# Generated by pormake.
# Topology gme, (4)-cn, num edge types: 1
# Building blocks:
#     Node 0, Type 0, BuildingBlock: UXUYUI_clean_sbu_0, # of connection points: 4
#     Node 1, Type 0, BuildingBlock: UXUYUI_clean_sbu_0, # of connection points: 4
#     Node 2, Type 0, BuildingBlock: UXUYUI_clean_sbu_0, # of connection points: 4
#     Node 3, Type 0, BuildingBlock: UXUYUI_clean_sbu_0, # of connection points: 4
#     Node 4, Type 0, BuildingBlock: UXUYUI_clean_sbu_0, # of connection points: 4
#     Node 5, Type 0, BuildingBlock: UXUYUI_clean_sbu_0, # of connection points: 4
#     Node 6, Type 0, BuildingBlock: UXUYUI_clean_sbu_0, # of connection points: 4
#     Node 7, Type 0, BuildingBlock: UXUYUI_clean_sbu_0, # of connection points: 4
#     Node 8, Type 0, BuildingBlock: UXUYUI_clean_sbu_0, # of connection points: 4
#     Node 9, Type 0, BuildingBlock: UXUYUI_clean_sbu_0, # of connection points: 4
#     Node 10, Type 0, BuildingBlock: UXUYUI_clean_sbu_0, # of connection points: 4
#     Node 11, Type 0, BuildingBlock: UXUYUI_clean_sbu_0, # of connection points: 4
#     Node 12, Type 0, BuildingBlock: UXUYUI_clean_sbu_0, # of connection points: 4
#     Node 13, Type 0, BuildingBlock: UXUYUI_clean_sbu_0, # of connection points: 4
#     Node 14, Type 0, BuildingBlock: UXUYUI_clean_sbu_0, # of connection points: 4
#     Node 15, Type 0, BuildingBlock: UXUYUI_clean_sbu_0, # of connection points: 4
#     Node 16, Type 0, BuildingBlock: UXUYUI_clean_sbu_0, # of connection points: 4
#     Node 17, Type 0, BuildingBlock: UXUYUI_clean_sbu_0, # of connection points: 4
#     Node 18, Type 0, BuildingBlock: UXUYUI_clean_sbu_0, # of connection points: 4
#     Node 19, Type 0, BuildingBlock: UXUYUI_clean_sbu_0, # of connection points: 4
#     Node 20, Type 0, BuildingBlock: UXUYUI_clean_sbu_0, # of connection points: 4
#     Node 21, Type 0, BuildingBlock: UXUYUI_clean_sbu_0, # of connection points: 4
#     Node 22, Type 0, BuildingBlock: UXUYUI_clean_sbu_0, # of connection points: 4
#     Node 23, Type 0, BuildingBlock: UXUYUI_clean_sbu_0, # of connection points: 4
#     Edge 24, Type (0, 0), None
#     Edge 25, Type (0, 0), None
#     Edge 26, Type (0, 0), None
#     Edge 27, Type (0, 0), None
#     Edge 28, Type (0, 0), None
#     Edge 29, Type (0, 0), None
#     Edge 30, Type (0, 0), None
#     Edge 31, Type (0, 0), None
#     Edge 32, Type (0, 0), None
#     Edge 33, Type (0, 0), None
#     Edge 34, Type (0, 0), None
#     Edge 35, Type (0, 0), None
#     Edge 36, Type (0, 0), None
#     Edge 37, Type (0, 0), None
#     Edge 38, Type (0, 0), None
#     Edge 39, Type (0, 0), None
#     Edge 40, Type (0, 0), None
#     Edge 41, Type (0, 0), None
#     Edge 42, Type (0, 0), None
#     Edge 43, Type (0, 0), None
#     Edge 44, Type (0, 0), None
#     Edge 45, Type (0, 0), None
#     Edge 46, Type (0, 0), None
#     Edge 47, Type (0, 0), None
#     Edge 48, Type (0, 0), None
#     Edge 49, Type (0, 0), None
#     Edge 50, Type (0, 0), None
#     Edge 51, Type (0, 0), None
#     Edge 52, Type (0, 0), None
#     Edge 53, Type (0, 0), None
#     Edge 54, Type (0, 0), None
#     Edge 55, Type (0, 0), None
#     Edge 56, Type (0, 0), None
#     Edge 57, Type (0, 0), None
#     Edge 58, Type (0, 0), None
#     Edge 59, Type (0, 0), None
#     Edge 60, Type (0, 0), None
#     Edge 61, Type (0, 0), None
#     Edge 62, Type (0, 0), None
#     Edge 63, Type (0, 0), None
#     Edge 64, Type (0, 0), None
#     Edge 65, Type (0, 0), None
#     Edge 66, Type (0, 0), None
#     Edge 67, Type (0, 0), None
#     Edge 68, Type (0, 0), None
#     Edge 69, Type (0, 0), None
#     Edge 70, Type (0, 0), None
#     Edge 71, Type (0, 0), None
# Relax obj value: 0.245
# Max RMSD: 0.175
# Mean RMSD: 0.174
data_MOF--net-gme--node1-UXUYUI_clean_sbu_0--edge1-none
_symmetry_space_group_name_H-M    P1
_symmetry_Int_Tables_number       1
_symmetry_cell_setting            triclinic
loop_
_symmetry_equiv_pos_as_xyz
'x, y, z'
_cell_length_a     60.035203
_cell_length_b     60.035277
_cell_length_c     42.841395
_cell_angle_alpha  89.999792
_cell_angle_beta   90.000273
_cell_angle_gamma 120.00012
loop_
_atom_site_label
_atom_site_type_symbol
_atom_site_fract_x
_atom_site_fract_y
_atom_site_fract_z
_atom_type_partial_charge
Li0 Li 0.43614 0.13019 0.0774 0.0
Li1 Li 0.43114 0.10352 0.1213 0.0
Li2 Li 0.464 0.11225 0.0822 0.0
Li3 Li 0.41901 0.08457 0.07003 0.0
C4 C 0.46371 0.15556 0.13044 0.0
N5 N 0.46802 0.19384 0.17005 0.0
C6 C 0.44175 0.15633 0.13965 0.0
C7 C 0.48783 0.17422 0.14143 0.0
C8 C 0.44434 0.17585 0.15967 0.0
C9 C 0.48961 0.19343 0.16144 0.0
C10 C 0.37966 0.08288 0.10485 0.0
C11 C 0.3529 0.04195 0.12989 0.0
N12 N 0.33212 0.04502 0.12596 0.0
C13 C 0.35803 0.08563 0.10108 0.0
C14 C 0.37708 0.06086 0.1194 0.0
C15 C 0.33417 0.06628 0.11191 0.0
C16 C 0.41205 0.15897 0.06165 0.0
N17 N 0.43511 0.1603 0.06595 0.0
C18 C 0.45714 0.20616 0.06286 0.0
C19 C 0.45745 0.18325 0.06625 0.0
C20 C 0.43356 0.20547 0.05964 0.0
C21 C 0.4108 0.1815 0.05853 0.0
H22 H 0.39457 0.14049 0.06196 0.0
H23 H 0.47546 0.18393 0.07083 0.0
C24 C 0.44601 0.1002 0.18082 0.0
N25 N 0.42606 0.09961 0.1652 0.0
C26 C 0.44585 0.09914 0.2133 0.0
C27 C 0.40425 0.09631 0.21317 0.0
C28 C 0.40549 0.09799 0.1806 0.0
C29 C 0.4247 0.09701 0.23007 0.0
H30 H 0.46236 0.10208 0.16792 0.0
H31 H 0.39016 0.09829 0.16775 0.0
C32 C 0.46118 0.13082 0.02256 0.0
N33 N 0.49302 0.16667 0.9791 0.0
C34 C 0.45425 0.1277 0.99105 0.0
C35 C 0.48434 0.15214 0.03194 0.0
C36 C 0.47059 0.14605 0.96943 0.0
C37 C 0.50016 0.17006 0.00963 0.0
C38 C 0.44617 0.06098 0.09315 0.0
C39 C 0.45077 0.05828 0.06176 0.0
C40 C 0.4483 0.04531 0.11564 0.0
C41 C 0.45733 0.03981 0.05339 0.0
C42 C 0.45492 0.02706 0.10632 0.0
N43 N 0.45925 0.02471 0.07566 0.0
C44 C 0.51165 0.12285 0.10468 0.0
C45 C 0.50676 0.11341 0.05055 0.0
C46 C 0.53586 0.12497 0.10459 0.0
N47 N 0.49763 0.11702 0.078 0.0
C48 C 0.53099 0.1155 0.04933 0.0
C49 C 0.54581 0.12111 0.07669 0.0
H50 H 0.50368 0.12526 0.12623 0.0
H51 H 0.49507 0.1085 0.02971 0.0
C52 C 0.38919 0.05744 0.01762 0.0
N53 N 0.39576 0.05458 0.04708 0.0
C54 C 0.37512 0.03592 0.99863 0.0
C55 C 0.37399 0.00891 0.04112 0.0
C56 C 0.38783 0.03089 0.05933 0.0
C57 C 0.36796 0.01124 0.01003 0.0
H58 H 0.3956 0.07652 0.00856 0.0
H59 H 0.39325 0.02904 0.08282 0.0
O60 O 0.46181 0.13691 0.11045 0.0
O61 O 0.40307 0.10166 0.09408 0.0
O62 O 0.44532 0.11293 0.0439 0.0
O63 O 0.43985 0.07902 0.10205 0.0
H64 H 0.42292 0.14212 0.13132 0.0
H65 H 0.505 0.17391 0.13444 0.0
H66 H 0.42753 0.17671 0.1669 0.0
H67 H 0.50817 0.20803 0.17008 0.0
H68 H 0.35067 0.02484 0.14122 0.0
H69 H 0.35965 0.10253 0.08989 0.0
H70 H 0.39356 0.05844 0.12287 0.0
H71 H 0.31728 0.06817 0.10913 0.0
H72 H 0.47504 0.22426 0.06455 0.0
H73 H 0.39225 0.18025 0.05613 0.0
H74 H 0.4625 0.10061 0.22502 0.0
H75 H 0.38746 0.09453 0.22486 0.0
H76 H 0.43643 0.11127 0.98336 0.0
H77 H 0.49008 0.15488 0.05619 0.0
H78 H 0.46545 0.14388 0.94497 0.0
H79 H 0.51812 0.18666 0.0166 0.0
H80 H 0.44925 0.07027 0.04403 0.0
H81 H 0.44488 0.04724 0.14004 0.0
H82 H 0.4609 0.03749 0.02919 0.0
H83 H 0.45662 0.01477 0.12348 0.0
H84 H 0.54628 0.12879 0.12638 0.0
H85 H 0.53793 0.1126 0.02725 0.0
H86 H 0.37051 0.03868 0.97503 0.0
H87 H 0.36929 0.99044 0.05092 0.0
Li88 Li 0.30577 0.43622 0.57743 0.0
Li89 Li 0.32745 0.43121 0.62132 0.0
Li90 Li 0.35157 0.46406 0.58222 0.0
Li91 Li 0.33425 0.41908 0.57005 0.0
C92 C 0.30799 0.46379 0.63048 0.0
N93 N 0.27404 0.46811 0.67012 0.0
C94 C 0.28526 0.44184 0.63969 0.0
C95 C 0.31347 0.48791 0.64148 0.0
C96 C 0.26834 0.44443 0.65972 0.0
C97 C 0.29606 0.4897 0.6615 0.0
C98 C 0.29659 0.37972 0.60488 0.0
C99 C 0.31076 0.35296 0.62992 0.0
N100 N 0.2869 0.33218 0.62598 0.0
C101 C 0.27222 0.3581 0.6011 0.0
C102 C 0.31603 0.37715 0.61943 0.0
C103 C 0.2677 0.33424 0.61192 0.0
C104 C 0.2529 0.41213 0.56168 0.0
N105 N 0.27463 0.43519 0.566 0.0
C106 C 0.2508 0.45722 0.5629 0.0
C107 C 0.27403 0.45753 0.5663 0.0
C108 C 0.22791 0.43364 0.55967 0.0
C109 C 0.22912 0.41088 0.55856 0.0
H110 H 0.2539 0.39465 0.56199 0.0
H111 H 0.29135 0.47554 0.57089 0.0
C112 C 0.34566 0.44606 0.68084 0.0
N113 N 0.32629 0.42613 0.66522 0.0
C114 C 0.34656 0.4459 0.71332 0.0
C115 C 0.30776 0.40433 0.71319 0.0
C116 C 0.30732 0.40556 0.68062 0.0
C117 C 0.32753 0.42477 0.7301 0.0
H118 H 0.36014 0.4624 0.66794 0.0
H119 H 0.29168 0.39025 0.66777 0.0
C120 C 0.33018 0.46126 0.5226 0.0
N121 N 0.32617 0.49312 0.47916 0.0
C122 C 0.32637 0.45434 0.49108 0.0
C123 C 0.33203 0.48442 0.53199 0.0
C124 C 0.32437 0.47069 0.46948 0.0
C125 C 0.32993 0.50025 0.5097 0.0
C126 C 0.385 0.44621 0.59313 0.0
C127 C 0.39228 0.45082 0.56174 0.0
C128 C 0.40282 0.44831 0.61559 0.0
C129 C 0.4173 0.45736 0.55333 0.0
C130 C 0.42767 0.45491 0.60625 0.0
N131 N 0.43433 0.45925 0.57557 0.0
C132 C 0.38863 0.5117 0.60471 0.0
C133 C 0.39317 0.50683 0.55057 0.0
C134 C 0.41073 0.53592 0.60461 0.0
N135 N 0.38044 0.4977 0.57802 0.0
C136 C 0.41531 0.53106 0.54935 0.0
C137 C 0.42453 0.54588 0.57671 0.0
H138 H 0.37827 0.50374 0.62625 0.0
H139 H 0.3864 0.49515 0.52973 0.0
C140 C 0.33157 0.38927 0.51763 0.0
N141 N 0.34098 0.39582 0.54709 0.0
C142 C 0.33902 0.37521 0.49863 0.0
C143 C 0.36488 0.37404 0.54114 0.0
C144 C 0.35674 0.38788 0.55935 0.0
C145 C 0.35653 0.36803 0.51003 0.0
H146 H 0.31892 0.3957 0.50856 0.0
H147 H 0.36399 0.39328 0.58284 0.0
O148 O 0.32474 0.46189 0.61048 0.0
O149 O 0.30123 0.40314 0.59411 0.0
O150 O 0.33221 0.44539 0.54392 0.0
O151 O 0.36066 0.43991 0.60206 0.0
H152 H 0.28062 0.423 0.63135 0.0
H153 H 0.33096 0.50508 0.6345 0.0
H154 H 0.25066 0.42762 0.66696 0.0
H155 H 0.30003 0.50826 0.67015 0.0
H156 H 0.32563 0.35073 0.64125 0.0
H157 H 0.25693 0.35972 0.5899 0.0
H158 H 0.33493 0.39363 0.6229 0.0
H159 H 0.24892 0.31735 0.60913 0.0
H160 H 0.2506 0.47512 0.56461 0.0
H161 H 0.21182 0.39233 0.55615 0.0
H162 H 0.36175 0.46255 0.72503 0.0
H163 H 0.29274 0.38754 0.72488 0.0
H164 H 0.32498 0.43652 0.48338 0.0
H165 H 0.33502 0.49015 0.55625 0.0
H166 H 0.3214 0.46556 0.44501 0.0
H167 H 0.33129 0.5182 0.51668 0.0
H168 H 0.37877 0.44932 0.54402 0.0
H169 H 0.39747 0.44488 0.64 0.0
H170 H 0.42318 0.46094 0.52913 0.0
H171 H 0.44166 0.45658 0.62338 0.0
H172 H 0.41733 0.54633 0.62641 0.0
H173 H 0.42516 0.53801 0.52727 0.0
H174 H 0.33167 0.37061 0.47502 0.0
H175 H 0.37863 0.36932 0.55094 0.0
Li176 Li 0.89611 0.32757 0.12135 0.0
Li177 Li 0.86941 0.3059 0.07747 0.0
Li178 Li 0.91503 0.33437 0.07007 0.0
Li179 Li 0.88738 0.3517 0.08226 0.0
C180 C 0.91672 0.2967 0.10489 0.0
N181 N 0.95457 0.287 0.12598 0.0
C182 C 0.91397 0.27233 0.1011 0.0
C183 C 0.93874 0.31613 0.11945 0.0
C184 C 0.93331 0.2678 0.11192 0.0
C185 C 0.95765 0.31085 0.12994 0.0
C186 C 0.84408 0.30813 0.13053 0.0
C187 C 0.80625 0.29622 0.16158 0.0
N188 N 0.80581 0.27419 0.17018 0.0
C189 C 0.84329 0.28539 0.13973 0.0
C190 C 0.82545 0.31362 0.14155 0.0
C191 C 0.82378 0.26848 0.15977 0.0
C192 C 0.8995 0.34579 0.18087 0.0
N193 N 0.90004 0.32641 0.16525 0.0
C194 C 0.90328 0.30785 0.21321 0.0
C195 C 0.90161 0.30742 0.18064 0.0
C196 C 0.90265 0.32763 0.23012 0.0
C197 C 0.90057 0.34668 0.21335 0.0
H198 H 0.89766 0.36028 0.16798 0.0
H199 H 0.90126 0.29177 0.16778 0.0
C200 C 0.84062 0.25303 0.06171 0.0
N201 N 0.83929 0.27476 0.06604 0.0
C202 C 0.81809 0.22925 0.05858 0.0
C203 C 0.79343 0.25093 0.06295 0.0
C204 C 0.81635 0.27415 0.06635 0.0
C205 C 0.79412 0.22803 0.05971 0.0
H206 H 0.85911 0.25403 0.062 0.0
H207 H 0.81567 0.29148 0.07095 0.0
C208 C 0.93867 0.38511 0.09314 0.0
N209 N 0.97498 0.43443 0.07554 0.0
C210 C 0.94132 0.39238 0.06175 0.0
C211 C 0.95441 0.40293 0.11558 0.0
C212 C 0.95981 0.4174 0.05332 0.0
C213 C 0.97268 0.42777 0.10622 0.0
C214 C 0.86877 0.33031 0.02264 0.0
C215 C 0.87187 0.32651 0.99112 0.0
C216 C 0.84746 0.33215 0.03206 0.0
C217 C 0.85351 0.32452 0.96953 0.0
C218 C 0.82953 0.33007 0.00977 0.0
N219 N 0.8329 0.32632 0.97923 0.0
C220 C 0.94214 0.33169 0.01764 0.0
C221 C 0.96871 0.35683 0.05937 0.0
C222 C 0.96366 0.33915 0.99864 0.0
N223 N 0.94501 0.34109 0.04711 0.0
C224 C 0.99069 0.36497 0.04115 0.0
C225 C 0.98834 0.35664 0.01004 0.0
H226 H 0.92306 0.31905 0.00857 0.0
H227 H 0.97057 0.36408 0.08287 0.0
C228 C 0.87682 0.38877 0.10476 0.0
N229 N 0.88262 0.38057 0.07806 0.0
C230 C 0.8747 0.41087 0.10467 0.0
C231 C 0.88411 0.41543 0.0494 0.0
C232 C 0.88621 0.3933 0.05061 0.0
C233 C 0.87853 0.42467 0.07676 0.0
H234 H 0.87443 0.37841 0.1263 0.0
H235 H 0.8911 0.38652 0.02976 0.0
O236 O 0.89794 0.30134 0.09414 0.0
O237 O 0.86273 0.32487 0.11052 0.0
O238 O 0.92062 0.36078 0.10209 0.0
O239 O 0.88668 0.33234 0.04395 0.0
H240 H 0.89706 0.25705 0.0899 0.0
H241 H 0.94116 0.33503 0.12294 0.0
H242 H 0.93141 0.24902 0.10912 0.0
H243 H 0.97475 0.32571 0.14128 0.0
H244 H 0.79167 0.3002 0.17024 0.0
H245 H 0.85747 0.28074 0.13137 0.0
H246 H 0.82578 0.33112 0.13457 0.0
H247 H 0.82289 0.25079 0.167 0.0
H248 H 0.90502 0.29281 0.2249 0.0
H249 H 0.89914 0.36188 0.22508 0.0
H250 H 0.81935 0.21195 0.05615 0.0
H251 H 0.77533 0.25073 0.06467 0.0
H252 H 0.92928 0.37887 0.04404 0.0
H253 H 0.95252 0.39759 0.13999 0.0
H254 H 0.9621 0.42327 0.02911 0.0
H255 H 0.98502 0.44176 0.12334 0.0
H256 H 0.88829 0.32512 0.98341 0.0
H257 H 0.84474 0.33514 0.05632 0.0
H258 H 0.85567 0.32155 0.94506 0.0
H259 H 0.81294 0.33142 0.01677 0.0
H260 H 0.9609 0.33181 0.97502 0.0
H261 H 0.00916 0.37871 0.05096 0.0
H262 H 0.8709 0.41747 0.12647 0.0
H263 H 0.887 0.42528 0.02731 0.0
Li264 Li 0.56834 0.89614 0.62131 0.0
Li265 Li 0.56333 0.86946 0.57741 0.0
Li266 Li 0.58047 0.91508 0.57003 0.0
Li267 Li 0.53548 0.88741 0.58221 0.0
C268 C 0.61982 0.91677 0.60486 0.0
N269 N 0.66737 0.95463 0.62597 0.0
C270 C 0.64145 0.91403 0.60109 0.0
C271 C 0.6224 0.93879 0.61941 0.0
C272 C 0.66531 0.93337 0.61191 0.0
C273 C 0.64658 0.95771 0.6299 0.0
C274 C 0.53577 0.8441 0.63046 0.0
C275 C 0.50987 0.80624 0.66146 0.0
N276 N 0.53146 0.80582 0.67008 0.0
C277 C 0.55773 0.84333 0.63966 0.0
C278 C 0.51165 0.82544 0.64145 0.0
C279 C 0.55514 0.82381 0.65969 0.0
C280 C 0.55348 0.89947 0.68083 0.0
N281 N 0.57342 0.90006 0.66521 0.0
C282 C 0.59523 0.90334 0.71318 0.0
C283 C 0.59399 0.90167 0.68061 0.0
C284 C 0.57479 0.90266 0.73008 0.0
C285 C 0.55364 0.90053 0.71331 0.0
H286 H 0.53714 0.89761 0.66793 0.0
H287 H 0.60931 0.90135 0.66776 0.0
C288 C 0.58743 0.84068 0.56167 0.0
N289 N 0.56436 0.83935 0.56597 0.0
C290 C 0.58867 0.81815 0.55855 0.0
C291 C 0.54234 0.79349 0.56288 0.0
C292 C 0.54202 0.8164 0.56627 0.0
C293 C 0.56592 0.79418 0.55966 0.0
H294 H 0.60491 0.85917 0.56198 0.0
H295 H 0.52401 0.81572 0.57085 0.0
C296 C 0.55332 0.93868 0.59315 0.0
N297 N 0.54024 0.97496 0.57565 0.0
C298 C 0.54872 0.94138 0.56177 0.0
C299 C 0.55119 0.95436 0.61564 0.0
C300 C 0.54216 0.95985 0.55339 0.0
C301 C 0.54457 0.97261 0.60632 0.0
C302 C 0.53829 0.86883 0.52258 0.0
C303 C 0.54522 0.87194 0.49107 0.0
C304 C 0.51513 0.84752 0.53196 0.0
C305 C 0.52888 0.8536 0.46945 0.0
C306 C 0.49931 0.8296 0.50965 0.0
N307 N 0.50645 0.83298 0.47912 0.0
C308 C 0.61028 0.94221 0.51763 0.0
C309 C 0.61165 0.96877 0.55933 0.0
C310 C 0.62435 0.96373 0.49863 0.0
N311 N 0.60372 0.94507 0.54708 0.0
C312 C 0.62549 0.99075 0.54112 0.0
C313 C 0.63152 0.98841 0.51003 0.0
H314 H 0.60387 0.92313 0.50857 0.0
H315 H 0.60624 0.97062 0.58283 0.0
C316 C 0.48784 0.87681 0.60469 0.0
N317 N 0.50185 0.88264 0.57801 0.0
C318 C 0.46362 0.87469 0.6046 0.0
C319 C 0.46849 0.88416 0.54934 0.0
C320 C 0.49272 0.88625 0.55056 0.0
C321 C 0.45367 0.87856 0.5767 0.0
H322 H 0.4958 0.87441 0.62624 0.0
H323 H 0.50441 0.89116 0.52972 0.0
O324 O 0.59641 0.89799 0.59409 0.0
O325 O 0.53766 0.86275 0.61047 0.0
O326 O 0.55963 0.92064 0.60206 0.0
O327 O 0.55415 0.88673 0.54391 0.0
H328 H 0.63983 0.89712 0.5899 0.0
H329 H 0.60592 0.94121 0.62288 0.0
H330 H 0.6822 0.93148 0.60913 0.0
H331 H 0.64882 0.97481 0.64123 0.0
H332 H 0.49131 0.79164 0.67011 0.0
H333 H 0.57656 0.85753 0.63133 0.0
H334 H 0.49448 0.82576 0.63447 0.0
H335 H 0.57195 0.82294 0.66692 0.0
H336 H 0.61202 0.90512 0.72487 0.0
H337 H 0.537 0.89907 0.72503 0.0
H338 H 0.60723 0.81941 0.55614 0.0
H339 H 0.52443 0.77539 0.56457 0.0
H340 H 0.55023 0.92938 0.54403 0.0
H341 H 0.55462 0.95243 0.64004 0.0
H342 H 0.53858 0.96217 0.52919 0.0
H343 H 0.54288 0.9849 0.62347 0.0
H344 H 0.56304 0.88838 0.48337 0.0
H345 H 0.5094 0.84478 0.55621 0.0
H346 H 0.53402 0.85577 0.44499 0.0
H347 H 0.48135 0.813 0.51663 0.0
H348 H 0.62896 0.96097 0.47503 0.0
H349 H 0.6302 0.00921 0.55092 0.0
H350 H 0.45321 0.87088 0.6264 0.0
H351 H 0.46155 0.88707 0.52726 0.0
Li352 Li 0.66522 0.58059 0.07007 0.0
Li353 Li 0.6479 0.5356 0.08224 0.0
Li354 Li 0.67202 0.56845 0.12134 0.0
Li355 Li 0.6937 0.56344 0.07745 0.0
C356 C 0.61447 0.55345 0.09315 0.0
N357 N 0.56514 0.54041 0.0756 0.0
C358 C 0.60719 0.54884 0.06176 0.0
C359 C 0.59665 0.55134 0.11562 0.0
C360 C 0.58217 0.5423 0.05336 0.0
C361 C 0.5718 0.54475 0.10627 0.0
C362 C 0.66929 0.5384 0.02262 0.0
C363 C 0.66954 0.49941 0.00971 0.0
N364 N 0.6733 0.50655 0.97917 0.0
C365 C 0.67311 0.54532 0.9911 0.0
C366 C 0.66744 0.51524 0.03201 0.0
C367 C 0.6751 0.52897 0.9695 0.0
C368 C 0.66791 0.61039 0.01765 0.0
N369 N 0.65849 0.60384 0.04711 0.0
C370 C 0.6346 0.62562 0.04115 0.0
C371 C 0.64273 0.61178 0.05936 0.0
C372 C 0.64295 0.63163 0.01005 0.0
C373 C 0.66046 0.62446 0.99865 0.0
H374 H 0.68056 0.60397 0.00859 0.0
H375 H 0.63547 0.60638 0.08286 0.0
C376 C 0.61084 0.48795 0.10472 0.0
N377 N 0.61903 0.50196 0.07804 0.0
C378 C 0.58875 0.46373 0.10462 0.0
C379 C 0.58417 0.46861 0.04937 0.0
C380 C 0.6063 0.49284 0.05059 0.0
C381 C 0.57494 0.45378 0.07672 0.0
H382 H 0.62121 0.49592 0.12627 0.0
H383 H 0.61308 0.50452 0.02975 0.0
C384 C 0.70288 0.61994 0.1049 0.0
N385 N 0.71257 0.66748 0.126 0.0
C386 C 0.72726 0.64156 0.10112 0.0
C387 C 0.68344 0.62252 0.11944 0.0
C388 C 0.73178 0.66542 0.11195 0.0
C389 C 0.68871 0.6467 0.12993 0.0
C390 C 0.69147 0.53587 0.13051 0.0
C391 C 0.7142 0.55782 0.13971 0.0
C392 C 0.686 0.51175 0.1415 0.0
C393 C 0.73112 0.55523 0.15975 0.0
C394 C 0.70341 0.50996 0.16152 0.0
N395 N 0.72543 0.53155 0.17014 0.0
C396 C 0.65383 0.55359 0.18086 0.0
C397 C 0.69214 0.5941 0.18064 0.0
C398 C 0.65293 0.55374 0.21334 0.0
N399 N 0.67318 0.57353 0.16525 0.0
C400 C 0.6917 0.59533 0.21322 0.0
C401 C 0.67194 0.57488 0.23012 0.0
H402 H 0.63935 0.53724 0.16796 0.0
H403 H 0.70778 0.60942 0.1678 0.0
C404 C 0.74657 0.58753 0.06172 0.0
N405 N 0.72484 0.56447 0.06602 0.0
C406 C 0.77035 0.58877 0.05861 0.0
C407 C 0.74867 0.54244 0.06294 0.0
C408 C 0.72544 0.54212 0.06633 0.0
C409 C 0.77156 0.56602 0.05972 0.0
H410 H 0.74557 0.60501 0.06203 0.0
H411 H 0.70811 0.52411 0.07091 0.0
O412 O 0.63881 0.55975 0.10208 0.0
O413 O 0.66726 0.55427 0.04394 0.0
O414 O 0.69825 0.59652 0.09413 0.0
O415 O 0.67473 0.53777 0.1105 0.0
H416 H 0.6207 0.55034 0.04404 0.0
H417 H 0.602 0.55478 0.14002 0.0
H418 H 0.57629 0.53873 0.02915 0.0
H419 H 0.55781 0.54307 0.12341 0.0
H420 H 0.66818 0.48146 0.0167 0.0
H421 H 0.6745 0.56314 0.9834 0.0
H422 H 0.66445 0.50951 0.05627 0.0
H423 H 0.67808 0.5341 0.94503 0.0
H424 H 0.62084 0.63033 0.05094 0.0
H425 H 0.66782 0.62906 0.97504 0.0
H426 H 0.58215 0.45332 0.12642 0.0
H427 H 0.57432 0.46166 0.02728 0.0
H428 H 0.74254 0.63994 0.08993 0.0
H429 H 0.66454 0.60604 0.12292 0.0
H430 H 0.75056 0.68231 0.10916 0.0
H431 H 0.67384 0.64894 0.14126 0.0
H432 H 0.71885 0.57666 0.13138 0.0
H433 H 0.66851 0.49458 0.13452 0.0
H434 H 0.74881 0.57203 0.16699 0.0
H435 H 0.69944 0.4914 0.17017 0.0
H436 H 0.63775 0.53709 0.22506 0.0
H437 H 0.70672 0.61212 0.22491 0.0
H438 H 0.78765 0.60733 0.0562 0.0
H439 H 0.74887 0.52453 0.06464 0.0
Li440 Li 0.13008 0.69379 0.57746 0.0
Li441 Li 0.10341 0.67212 0.62136 0.0
Li442 Li 0.11214 0.648 0.58225 0.0
Li443 Li 0.08446 0.66531 0.57009 0.0
C444 C 0.15545 0.69159 0.6305 0.0
N445 N 0.19374 0.72556 0.67011 0.0
C446 C 0.15622 0.71432 0.63971 0.0
C447 C 0.17411 0.68613 0.64148 0.0
C448 C 0.17574 0.73124 0.65973 0.0
C449 C 0.19332 0.70355 0.66149 0.0
C450 C 0.08277 0.70297 0.60492 0.0
C451 C 0.04184 0.68879 0.62996 0.0
N452 N 0.04491 0.71265 0.62603 0.0
C453 C 0.08552 0.72734 0.60115 0.0
C454 C 0.06075 0.68352 0.61946 0.0
C455 C 0.06618 0.73186 0.61198 0.0
C456 C 0.15886 0.74667 0.5617 0.0
N457 N 0.16019 0.72493 0.56601 0.0
C458 C 0.20605 0.74876 0.5629 0.0
C459 C 0.18314 0.72554 0.5663 0.0
C460 C 0.20536 0.77166 0.55968 0.0
C461 C 0.18139 0.77044 0.55858 0.0
H462 H 0.14038 0.74566 0.56202 0.0
H463 H 0.18382 0.70821 0.57089 0.0
C464 C 0.10014 0.65395 0.68087 0.0
N465 N 0.09951 0.67328 0.66527 0.0
C466 C 0.0991 0.65306 0.71335 0.0
C467 C 0.0962 0.69178 0.71324 0.0
C468 C 0.09786 0.69222 0.68067 0.0
C469 C 0.09693 0.67205 0.73014 0.0
H470 H 0.10204 0.6395 0.66797 0.0
H471 H 0.09814 0.70785 0.66782 0.0
C472 C 0.13071 0.66938 0.52262 0.0
N473 N 0.16656 0.6734 0.47915 0.0
C474 C 0.12759 0.6732 0.49111 0.0
C475 C 0.15203 0.66754 0.532 0.0
C476 C 0.14593 0.6752 0.46949 0.0
C477 C 0.16994 0.66964 0.50969 0.0
C478 C 0.06087 0.61456 0.5932 0.0
C479 C 0.05818 0.60727 0.56181 0.0
C480 C 0.04518 0.59675 0.61567 0.0
C481 C 0.0397 0.58224 0.55342 0.0
C482 C 0.02693 0.57189 0.60635 0.0
N483 N 0.02459 0.56521 0.57568 0.0
C484 C 0.12275 0.61095 0.60473 0.0
C485 C 0.1133 0.6064 0.5506 0.0
C486 C 0.12487 0.58886 0.60463 0.0
N487 N 0.11692 0.61913 0.57805 0.0
C488 C 0.11539 0.58426 0.54937 0.0
C489 C 0.12101 0.57504 0.57673 0.0
H490 H 0.12516 0.62132 0.62627 0.0
H491 H 0.10838 0.61317 0.52976 0.0
C492 C 0.05733 0.66799 0.51769 0.0
N493 N 0.05447 0.65857 0.54714 0.0
C494 C 0.03581 0.66054 0.49869 0.0
C495 C 0.0088 0.63466 0.54119 0.0
C496 C 0.03078 0.6428 0.55939 0.0
C497 C 0.01113 0.64302 0.51009 0.0
H498 H 0.07641 0.68066 0.50862 0.0
H499 H 0.02893 0.63554 0.58289 0.0
O500 O 0.1368 0.67483 0.61051 0.0
O501 O 0.10155 0.69834 0.59414 0.0
O502 O 0.11281 0.66735 0.54395 0.0
O503 O 0.07891 0.63891 0.60211 0.0
H504 H 0.14202 0.71895 0.63138 0.0
H505 H 0.1738 0.66864 0.63449 0.0
H506 H 0.17661 0.74892 0.66697 0.0
H507 H 0.20792 0.69959 0.67013 0.0
H508 H 0.02474 0.67392 0.64128 0.0
H509 H 0.10243 0.74263 0.58996 0.0
H510 H 0.05833 0.66462 0.62293 0.0
H511 H 0.06807 0.75064 0.6092 0.0
H512 H 0.22415 0.74896 0.5646 0.0
H513 H 0.18014 0.78774 0.55617 0.0
H514 H 0.1006 0.63789 0.72507 0.0
H515 H 0.09439 0.70678 0.72493 0.0
H516 H 0.11116 0.67458 0.48342 0.0
H517 H 0.15477 0.66454 0.55625 0.0
H518 H 0.14376 0.67817 0.44503 0.0
H519 H 0.18654 0.66828 0.51666 0.0
H520 H 0.07018 0.62078 0.54408 0.0
H521 H 0.0471 0.6021 0.64008 0.0
H522 H 0.03739 0.57635 0.52922 0.0
H523 H 0.01463 0.55789 0.62349 0.0
H524 H 0.1287 0.58226 0.62642 0.0
H525 H 0.11248 0.57441 0.52729 0.0
H526 H 0.03857 0.6679 0.47509 0.0
H527 H 0.99033 0.6209 0.55098 0.0
Li528 Li 0.88735 0.53558 0.41685 0.0
Li529 Li 0.915 0.58057 0.42904 0.0
Li530 Li 0.86938 0.56342 0.42164 0.0
Li531 Li 0.89608 0.56844 0.37776 0.0
C532 C 0.86873 0.53836 0.47646 0.0
N533 N 0.83286 0.50648 0.51988 0.0
C534 C 0.87183 0.54526 0.50798 0.0
C535 C 0.84742 0.51521 0.46705 0.0
C536 C 0.85347 0.5289 0.52957 0.0
C537 C 0.82949 0.49936 0.48933 0.0
C538 C 0.93864 0.55346 0.40598 0.0
C539 C 0.97265 0.54481 0.39292 0.0
N540 N 0.97495 0.54046 0.4236 0.0
C541 C 0.94128 0.54884 0.43738 0.0
C542 C 0.95439 0.55139 0.38355 0.0
C543 C 0.95978 0.54232 0.44581 0.0
C544 C 0.87679 0.48795 0.39436 0.0
N545 N 0.88259 0.50195 0.42105 0.0
C546 C 0.88408 0.46858 0.44972 0.0
C547 C 0.88617 0.49281 0.44851 0.0
C548 C 0.8785 0.45377 0.42235 0.0
C549 C 0.87467 0.46373 0.39445 0.0
H550 H 0.8744 0.49592 0.37281 0.0
H551 H 0.89106 0.50448 0.46935 0.0
C552 C 0.9421 0.61035 0.48148 0.0
N553 N 0.94498 0.60382 0.452 0.0
C554 C 0.96362 0.62442 0.50048 0.0
C555 C 0.99065 0.62562 0.45796 0.0
C556 C 0.96868 0.61178 0.43975 0.0
C557 C 0.98831 0.63161 0.48908 0.0
H558 H 0.92303 0.60391 0.49054 0.0
H559 H 0.97053 0.60639 0.41625 0.0
C560 C 0.84405 0.53585 0.36857 0.0
N561 N 0.80579 0.53152 0.32891 0.0
C562 C 0.84326 0.5578 0.35938 0.0
C563 C 0.82543 0.51173 0.35755 0.0
C564 C 0.82375 0.5552 0.33933 0.0
C565 C 0.80623 0.50993 0.33751 0.0
C566 C 0.91669 0.61992 0.39421 0.0
C567 C 0.91394 0.64154 0.39801 0.0
C568 C 0.93871 0.6225 0.37965 0.0
C569 C 0.93328 0.66541 0.38719 0.0
C570 C 0.95762 0.64669 0.36917 0.0
N571 N 0.95454 0.66747 0.37313 0.0
C572 C 0.84059 0.5875 0.43739 0.0
C573 C 0.81631 0.54209 0.43274 0.0
C574 C 0.81806 0.58874 0.44052 0.0
N575 N 0.83926 0.56443 0.43306 0.0
C576 C 0.7934 0.54241 0.43614 0.0
C577 C 0.79408 0.56598 0.43938 0.0
H578 H 0.85907 0.60498 0.43711 0.0
H579 H 0.81563 0.52409 0.42814 0.0
C580 C 0.89951 0.55363 0.31824 0.0
N581 N 0.90001 0.57353 0.33386 0.0
C582 C 0.90058 0.55381 0.28576 0.0
C583 C 0.90325 0.59534 0.28591 0.0
C584 C 0.90157 0.59408 0.31848 0.0
C585 C 0.90264 0.57493 0.26899 0.0
H586 H 0.89768 0.5373 0.33113 0.0
H587 H 0.9012 0.60937 0.33134 0.0
O588 O 0.88664 0.55424 0.45516 0.0
O589 O 0.92059 0.55974 0.39702 0.0
O590 O 0.8627 0.53775 0.38858 0.0
O591 O 0.89791 0.5965 0.40497 0.0
H592 H 0.88825 0.56308 0.5157 0.0
H593 H 0.8447 0.50949 0.44279 0.0
H594 H 0.85562 0.53402 0.55404 0.0
H595 H 0.8129 0.48141 0.48233 0.0
H596 H 0.985 0.54316 0.3758 0.0
H597 H 0.92924 0.55031 0.45508 0.0
H598 H 0.9525 0.55483 0.35914 0.0
H599 H 0.96206 0.53873 0.47002 0.0
H600 H 0.88696 0.46162 0.47181 0.0
H601 H 0.87088 0.45333 0.37265 0.0
H602 H 0.96086 0.629 0.52409 0.0
H603 H 0.00912 0.63035 0.44816 0.0
H604 H 0.85744 0.57663 0.36773 0.0
H605 H 0.82576 0.49456 0.36452 0.0
H606 H 0.82287 0.572 0.3321 0.0
H607 H 0.79166 0.49137 0.32884 0.0
H608 H 0.89703 0.63991 0.40921 0.0
H609 H 0.94113 0.60603 0.37617 0.0
H610 H 0.93138 0.68229 0.38999 0.0
H611 H 0.97472 0.64894 0.35783 0.0
H612 H 0.81931 0.60729 0.44295 0.0
H613 H 0.7753 0.5245 0.43442 0.0
H614 H 0.89918 0.5372 0.27403 0.0
H615 H 0.90497 0.61211 0.27422 0.0
Li616 Li 0.33425 0.9151 0.92899 0.0
Li617 Li 0.35158 0.88744 0.91681 0.0
Li618 Li 0.32746 0.89618 0.87771 0.0
Li619 Li 0.30578 0.86948 0.9216 0.0
C620 C 0.385 0.93873 0.90593 0.0
N621 N 0.43431 0.97505 0.92355 0.0
C622 C 0.39226 0.94138 0.93733 0.0
C623 C 0.40282 0.95448 0.8835 0.0
C624 C 0.41728 0.95987 0.94576 0.0
C625 C 0.42766 0.97275 0.89287 0.0
C626 C 0.33019 0.86883 0.97642 0.0
C627 C 0.32994 0.82959 0.98929 0.0
N628 N 0.32619 0.83296 0.01984 0.0
C629 C 0.32639 0.87193 0.00794 0.0
C630 C 0.33203 0.84752 0.96701 0.0
C631 C 0.32439 0.85358 0.02953 0.0
C632 C 0.33158 0.94221 0.98143 0.0
N633 N 0.34098 0.94508 0.95195 0.0
C634 C 0.36487 0.99076 0.9579 0.0
C635 C 0.35672 0.96878 0.93969 0.0
C636 C 0.35654 0.98841 0.98902 0.0
C637 C 0.33904 0.96373 0.00043 0.0
H638 H 0.31894 0.92314 0.99049 0.0
H639 H 0.36396 0.97063 0.91619 0.0
C640 C 0.38865 0.87687 0.89433 0.0
N641 N 0.38045 0.88268 0.92102 0.0
C642 C 0.41074 0.87475 0.89442 0.0
C643 C 0.41531 0.88417 0.94969 0.0
C644 C 0.39318 0.88627 0.94847 0.0
C645 C 0.42454 0.87859 0.92233 0.0
H646 H 0.37829 0.87448 0.87278 0.0
H647 H 0.38639 0.89117 0.96931 0.0
C648 C 0.29659 0.91679 0.89416 0.0
N649 N 0.28689 0.95464 0.87307 0.0
C650 C 0.27222 0.91404 0.89795 0.0
C651 C 0.31603 0.93881 0.8796 0.0
C652 C 0.26769 0.93338 0.88713 0.0
C653 C 0.31075 0.95772 0.86912 0.0
C654 C 0.30802 0.84414 0.86854 0.0
C655 C 0.28528 0.84335 0.85934 0.0
C656 C 0.31351 0.82551 0.85752 0.0
C657 C 0.26837 0.82384 0.83929 0.0
C658 C 0.2961 0.80631 0.83749 0.0
N659 N 0.27408 0.80588 0.82888 0.0
C660 C 0.34567 0.89955 0.81819 0.0
C661 C 0.30732 0.90168 0.81842 0.0
C662 C 0.34657 0.90061 0.78572 0.0
N663 N 0.3263 0.9001 0.83381 0.0
C664 C 0.30775 0.90335 0.78585 0.0
C665 C 0.32753 0.90271 0.76894 0.0
H666 H 0.36017 0.89771 0.83109 0.0
H667 H 0.29167 0.90133 0.83127 0.0
C668 C 0.25291 0.8407 0.93737 0.0
N669 N 0.27464 0.83936 0.93303 0.0
C670 C 0.22914 0.81817 0.9405 0.0
C671 C 0.25081 0.7935 0.93612 0.0
C672 C 0.27403 0.81641 0.93271 0.0
C673 C 0.22791 0.79419 0.93938 0.0
H674 H 0.25392 0.85918 0.93708 0.0
H675 H 0.29136 0.81573 0.9281 0.0
O676 O 0.36067 0.92069 0.89697 0.0
O677 O 0.33222 0.88674 0.95511 0.0
O678 O 0.30123 0.89801 0.90492 0.0
O679 O 0.32476 0.86279 0.88854 0.0
H680 H 0.37875 0.92934 0.95503 0.0
H681 H 0.39748 0.95259 0.85909 0.0
H682 H 0.42314 0.96215 0.96997 0.0
H683 H 0.44165 0.98509 0.87575 0.0
H684 H 0.3313 0.813 0.98229 0.0
H685 H 0.325 0.88836 0.01566 0.0
H686 H 0.33502 0.8448 0.94275 0.0
H687 H 0.32143 0.85573 0.054 0.0
H688 H 0.37861 0.00923 0.9481 0.0
H689 H 0.33171 0.96097 0.02404 0.0
H690 H 0.41735 0.87095 0.87262 0.0
H691 H 0.42516 0.88707 0.97177 0.0
H692 H 0.25693 0.89713 0.90915 0.0
H693 H 0.33493 0.94123 0.87612 0.0
H694 H 0.24891 0.93149 0.88993 0.0
H695 H 0.32561 0.97482 0.85778 0.0
H696 H 0.28063 0.85754 0.86769 0.0
H697 H 0.33101 0.82584 0.8645 0.0
H698 H 0.25068 0.82296 0.83206 0.0
H699 H 0.30009 0.79174 0.82882 0.0
H700 H 0.36177 0.89918 0.77399 0.0
H701 H 0.29272 0.9051 0.77416 0.0
H702 H 0.21184 0.81942 0.94294 0.0
H703 H 0.2506 0.7754 0.9344 0.0
Li704 Li 0.46396 0.35165 0.41683 0.0
Li705 Li 0.41898 0.33433 0.42901 0.0
Li706 Li 0.43612 0.30585 0.42162 0.0
Li707 Li 0.43111 0.32753 0.37773 0.0
C708 C 0.46117 0.33026 0.47645 0.0
N709 N 0.49302 0.32624 0.51989 0.0
C710 C 0.45425 0.32644 0.50797 0.0
C711 C 0.48432 0.3321 0.46706 0.0
C712 C 0.4706 0.32444 0.52957 0.0
C713 C 0.50015 0.33 0.48935 0.0
C714 C 0.44611 0.38508 0.40593 0.0
C715 C 0.45481 0.42775 0.39282 0.0
N716 N 0.45915 0.43441 0.42349 0.0
C717 C 0.45072 0.39235 0.43732 0.0
C718 C 0.44822 0.4029 0.38347 0.0
C719 C 0.45726 0.41738 0.44573 0.0
C720 C 0.51161 0.38871 0.39435 0.0
N721 N 0.4976 0.38051 0.42104 0.0
C722 C 0.53096 0.41538 0.44971 0.0
C723 C 0.50673 0.39324 0.44849 0.0
C724 C 0.54578 0.42461 0.42235 0.0
C725 C 0.53583 0.4108 0.39445 0.0
H726 H 0.50365 0.37834 0.3728 0.0
H727 H 0.49505 0.38647 0.46933 0.0
C728 C 0.38918 0.33165 0.48143 0.0
N729 N 0.39572 0.34106 0.45196 0.0
C730 C 0.37512 0.33911 0.50042 0.0
C731 C 0.37395 0.36496 0.45792 0.0
C732 C 0.38778 0.35682 0.43971 0.0
C733 C 0.36795 0.35662 0.48902 0.0
H734 H 0.39561 0.319 0.49049 0.0
H735 H 0.39318 0.36407 0.41621 0.0
C736 C 0.46369 0.30807 0.36857 0.0
N737 N 0.46802 0.27413 0.32893 0.0
C738 C 0.44174 0.28534 0.35936 0.0
C739 C 0.48782 0.31355 0.35757 0.0
C740 C 0.44434 0.26843 0.33933 0.0
C741 C 0.48961 0.29614 0.33754 0.0
C742 C 0.37963 0.29667 0.39418 0.0
C743 C 0.358 0.2723 0.39795 0.0
C744 C 0.37705 0.31611 0.37962 0.0
C745 C 0.33414 0.26778 0.38713 0.0
C746 C 0.35287 0.31084 0.36913 0.0
N747 N 0.33208 0.28698 0.37307 0.0
C748 C 0.41203 0.25297 0.43737 0.0
C749 C 0.45744 0.2741 0.43275 0.0
C750 C 0.41079 0.2292 0.44049 0.0
N751 N 0.4351 0.27471 0.43305 0.0
C752 C 0.45712 0.25088 0.43614 0.0
C753 C 0.43354 0.22798 0.43937 0.0
H754 H 0.39455 0.25398 0.43707 0.0
H755 H 0.47545 0.29143 0.42816 0.0
C756 C 0.44597 0.34573 0.31821 0.0
N757 N 0.42604 0.32637 0.33383 0.0
C758 C 0.44581 0.34663 0.28574 0.0
C759 C 0.40423 0.30784 0.28586 0.0
C760 C 0.40547 0.3074 0.31843 0.0
C761 C 0.42467 0.32761 0.26896 0.0
H762 H 0.46231 0.36022 0.33111 0.0
H763 H 0.39015 0.29176 0.33128 0.0
O764 O 0.4453 0.33229 0.45513 0.0
O765 O 0.43982 0.36074 0.39699 0.0
O766 O 0.46179 0.32482 0.38857 0.0
O767 O 0.40304 0.3013 0.40494 0.0
H768 H 0.43643 0.32506 0.51567 0.0
H769 H 0.49005 0.33509 0.4428 0.0
H770 H 0.46547 0.32147 0.55404 0.0
H771 H 0.51811 0.33136 0.48237 0.0
H772 H 0.45648 0.44174 0.37569 0.0
H773 H 0.44923 0.37884 0.45503 0.0
H774 H 0.44478 0.39755 0.35907 0.0
H775 H 0.46084 0.42325 0.46993 0.0
H776 H 0.53791 0.42523 0.4718 0.0
H777 H 0.54624 0.41741 0.37265 0.0
H778 H 0.37053 0.33176 0.52403 0.0
H779 H 0.36923 0.37871 0.44812 0.0
H780 H 0.42291 0.2807 0.3677 0.0
H781 H 0.50499 0.33105 0.36455 0.0
H782 H 0.42753 0.25074 0.33209 0.0
H783 H 0.50817 0.30012 0.32889 0.0
H784 H 0.35962 0.25701 0.40915 0.0
H785 H 0.39353 0.33501 0.37615 0.0
H786 H 0.31725 0.249 0.38992 0.0
H787 H 0.35063 0.3257 0.3578 0.0
H788 H 0.39224 0.2119 0.4429 0.0
H789 H 0.47503 0.25068 0.43443 0.0
H790 H 0.46245 0.36182 0.27402 0.0
H791 H 0.38745 0.29281 0.27417 0.0
Li792 Li 0.0845 0.41909 0.92903 0.0
Li793 Li 0.11218 0.46408 0.91686 0.0
Li794 Li 0.10345 0.43123 0.87776 0.0
Li795 Li 0.13012 0.43623 0.92165 0.0
C796 C 0.06091 0.44625 0.90591 0.0
N797 N 0.02464 0.45934 0.9234 0.0
C798 C 0.05821 0.45085 0.93729 0.0
C799 C 0.04524 0.4484 0.88342 0.0
C800 C 0.03974 0.45742 0.94567 0.0
C801 C 0.02699 0.45501 0.89273 0.0
C802 C 0.13075 0.46126 0.9765 0.0
C803 C 0.16999 0.50024 0.98943 0.0
N804 N 0.1666 0.49309 0.01996 0.0
C805 C 0.12763 0.45433 0.008 0.0
C806 C 0.15207 0.48442 0.96712 0.0
C807 C 0.14598 0.47067 0.02962 0.0
C808 C 0.05737 0.38928 0.98143 0.0
N809 N 0.05451 0.39584 0.95197 0.0
C810 C 0.00884 0.37408 0.95793 0.0
C811 C 0.03081 0.38792 0.93972 0.0
C812 C 0.01117 0.36806 0.98903 0.0
C813 C 0.03585 0.37521 0.00042 0.0
H814 H 0.07645 0.39569 0.99049 0.0
H815 H 0.02897 0.39334 0.91623 0.0
C816 C 0.12279 0.51174 0.89439 0.0
N817 N 0.11696 0.49772 0.92107 0.0
C818 C 0.12492 0.53596 0.89449 0.0
C819 C 0.11543 0.53106 0.94974 0.0
C820 C 0.11334 0.50683 0.94852 0.0
C821 C 0.12104 0.5459 0.92239 0.0
H822 H 0.1252 0.50378 0.87284 0.0
H823 H 0.10842 0.49514 0.96935 0.0
C824 C 0.08281 0.37974 0.8942 0.0
N825 N 0.04494 0.3322 0.87309 0.0
C826 C 0.08555 0.35811 0.89796 0.0
C827 C 0.06079 0.37717 0.87965 0.0
C828 C 0.06621 0.33425 0.88714 0.0
C829 C 0.04187 0.35299 0.86916 0.0
C830 C 0.15549 0.4638 0.86861 0.0
C831 C 0.15626 0.44184 0.8594 0.0
C832 C 0.17415 0.48792 0.85763 0.0
C833 C 0.17578 0.44443 0.83938 0.0
C834 C 0.19336 0.4897 0.83762 0.0
N835 N 0.19377 0.46811 0.829 0.0
C836 C 0.10014 0.44611 0.81824 0.0
C837 C 0.09791 0.40558 0.81845 0.0
C838 C 0.09909 0.44595 0.78576 0.0
N839 N 0.09954 0.42616 0.83385 0.0
C840 C 0.09624 0.40435 0.78588 0.0
C841 C 0.09694 0.4248 0.76898 0.0
H842 H 0.10203 0.46246 0.83114 0.0
H843 H 0.09821 0.39024 0.8313 0.0
C844 C 0.1589 0.41213 0.9374 0.0
N845 N 0.16023 0.43519 0.9331 0.0
C846 C 0.18143 0.41088 0.94052 0.0
C847 C 0.20609 0.45722 0.9362 0.0
C848 C 0.18318 0.45754 0.93281 0.0
C849 C 0.2054 0.43364 0.93941 0.0
H850 H 0.14042 0.39465 0.93708 0.0
H851 H 0.18386 0.47555 0.92823 0.0
O852 O 0.07895 0.43994 0.89701 0.0
O853 O 0.11286 0.44541 0.95516 0.0
O854 O 0.10159 0.40315 0.90497 0.0
O855 O 0.13684 0.4619 0.8886 0.0
H856 H 0.0702 0.44933 0.95503 0.0
H857 H 0.04717 0.44497 0.85902 0.0
H858 H 0.03742 0.46099 0.96987 0.0
H859 H 0.01471 0.45672 0.87558 0.0
H860 H 0.18659 0.5182 0.98246 0.0
H861 H 0.1112 0.43651 0.01569 0.0
H862 H 0.15481 0.49016 0.94287 0.0
H863 H 0.14381 0.46553 0.05408 0.0
H864 H 0.99037 0.36938 0.94814 0.0
H865 H 0.03861 0.3706 0.02403 0.0
H866 H 0.12874 0.54638 0.8727 0.0
H867 H 0.11252 0.538 0.97183 0.0
H868 H 0.10246 0.35973 0.90915 0.0
H869 H 0.05837 0.39365 0.87619 0.0
H870 H 0.06809 0.31736 0.88991 0.0
H871 H 0.02477 0.35076 0.85783 0.0
H872 H 0.14205 0.42301 0.86773 0.0
H873 H 0.17384 0.50509 0.86462 0.0
H874 H 0.17664 0.42762 0.83214 0.0
H875 H 0.20796 0.50826 0.82898 0.0
H876 H 0.10057 0.46261 0.77404 0.0
H877 H 0.09445 0.38755 0.77419 0.0
H878 H 0.18018 0.39233 0.94292 0.0
H879 H 0.22419 0.47513 0.9345 0.0
Li880 Li 0.64789 0.1122 0.4168 0.0
Li881 Li 0.66522 0.08455 0.42898 0.0
Li882 Li 0.69369 0.13016 0.42158 0.0
Li883 Li 0.67201 0.10347 0.3777 0.0
C884 C 0.66928 0.13081 0.47641 0.0
N885 N 0.67329 0.16668 0.51983 0.0
C886 C 0.67309 0.12771 0.50793 0.0
C887 C 0.66744 0.15212 0.467 0.0
C888 C 0.67509 0.14607 0.52952 0.0
C889 C 0.66953 0.17005 0.48929 0.0
C890 C 0.61447 0.06092 0.40592 0.0
C891 C 0.57181 0.02691 0.39284 0.0
N892 N 0.56516 0.02461 0.42352 0.0
C893 C 0.6072 0.05826 0.43731 0.0
C894 C 0.59665 0.04517 0.38347 0.0
C895 C 0.58219 0.03977 0.44574 0.0
C896 C 0.61083 0.12278 0.39432 0.0
N897 N 0.61902 0.11697 0.421 0.0
C898 C 0.58416 0.11547 0.44968 0.0
C899 C 0.6063 0.11337 0.44846 0.0
C900 C 0.57494 0.12106 0.42232 0.0
C901 C 0.58874 0.12491 0.39441 0.0
H902 H 0.62119 0.12518 0.37277 0.0
H903 H 0.61308 0.10847 0.4693 0.0
C904 C 0.66789 0.05744 0.48141 0.0
N905 N 0.65849 0.05456 0.45194 0.0
C906 C 0.66043 0.03592 0.50042 0.0
C907 C 0.6346 0.00889 0.4579 0.0
C908 C 0.64275 0.03087 0.43969 0.0
C909 C 0.64293 0.01123 0.48901 0.0
H910 H 0.68053 0.07651 0.49048 0.0
H911 H 0.6355 0.02901 0.41618 0.0
C912 C 0.69146 0.1555 0.36852 0.0
N913 N 0.72539 0.19377 0.32887 0.0
C914 C 0.71419 0.15629 0.35932 0.0
C915 C 0.68597 0.17413 0.35751 0.0
C916 C 0.7311 0.1758 0.33928 0.0
C917 C 0.70337 0.19333 0.33748 0.0
C918 C 0.70288 0.08286 0.39415 0.0
C919 C 0.72726 0.08561 0.39794 0.0
C920 C 0.68344 0.06084 0.3796 0.0
C921 C 0.73178 0.06627 0.38712 0.0
C922 C 0.68872 0.04192 0.36911 0.0
N923 N 0.71258 0.045 0.37306 0.0
C924 C 0.74656 0.15895 0.43734 0.0
C925 C 0.72544 0.18323 0.4327 0.0
C926 C 0.77034 0.18148 0.44046 0.0
N927 N 0.72483 0.16028 0.43301 0.0
C928 C 0.74866 0.20614 0.43609 0.0
C929 C 0.77156 0.20546 0.43934 0.0
H930 H 0.74556 0.14047 0.43704 0.0
H931 H 0.70811 0.18391 0.4281 0.0
C932 C 0.65381 0.10011 0.31818 0.0
N933 N 0.67317 0.09955 0.3338 0.0
C934 C 0.65291 0.09906 0.2857 0.0
C935 C 0.69171 0.09629 0.28583 0.0
C936 C 0.69215 0.09796 0.31841 0.0
C937 C 0.67194 0.09695 0.26893 0.0
H938 H 0.63932 0.10197 0.33108 0.0
H939 H 0.70779 0.09829 0.33126 0.0
O940 O 0.66726 0.1129 0.4551 0.0
O941 O 0.6388 0.07896 0.39696 0.0
O942 O 0.67472 0.13685 0.38853 0.0
O943 O 0.69824 0.10163 0.40491 0.0
H944 H 0.67448 0.11128 0.51564 0.0
H945 H 0.66445 0.15485 0.44274 0.0
H946 H 0.67805 0.14391 0.55399 0.0
H947 H 0.66818 0.18664 0.48229 0.0
H948 H 0.55781 0.01457 0.37572 0.0
H949 H 0.62072 0.0703 0.45501 0.0
H950 H 0.60199 0.04707 0.35907 0.0
H951 H 0.57632 0.03749 0.46994 0.0
H952 H 0.57432 0.11258 0.47176 0.0
H953 H 0.58213 0.12871 0.37262 0.0
H954 H 0.66777 0.03868 0.52403 0.0
H955 H 0.62086 0.99042 0.4481 0.0
H956 H 0.71884 0.1421 0.36767 0.0
H957 H 0.66847 0.17381 0.36449 0.0
H958 H 0.74879 0.17668 0.33204 0.0
H959 H 0.69939 0.20791 0.32882 0.0
H960 H 0.74254 0.10251 0.40914 0.0
H961 H 0.66454 0.05841 0.37612 0.0
H962 H 0.75056 0.06816 0.38991 0.0
H963 H 0.67386 0.02482 0.35778 0.0
H964 H 0.78764 0.18023 0.44289 0.0
H965 H 0.74886 0.22425 0.43438 0.0
H966 H 0.63772 0.1005 0.27398 0.0
H967 H 0.70674 0.09453 0.27414 0.0
Li968 Li 0.5805 0.66533 0.92901 0.0
Li969 Li 0.53552 0.648 0.91683 0.0
Li970 Li 0.56837 0.67212 0.87773 0.0
Li971 Li 0.56336 0.6938 0.92161 0.0
C972 C 0.55338 0.61458 0.90593 0.0
N973 N 0.54035 0.56525 0.92349 0.0
C974 C 0.54877 0.6073 0.93732 0.0
C975 C 0.55128 0.59676 0.88347 0.0
C976 C 0.54223 0.58228 0.94573 0.0
C977 C 0.54469 0.57191 0.89282 0.0
C978 C 0.53831 0.66939 0.97645 0.0
C979 C 0.49932 0.66964 0.98934 0.0
N980 N 0.50645 0.6734 0.01988 0.0
C981 C 0.54522 0.67321 0.00796 0.0
C982 C 0.51515 0.66755 0.96705 0.0
C983 C 0.52887 0.6752 0.02956 0.0
C984 C 0.6103 0.66801 0.98143 0.0
N985 N 0.60376 0.6586 0.95196 0.0
C986 C 0.62554 0.63471 0.95792 0.0
C987 C 0.6117 0.64285 0.93971 0.0
C988 C 0.63154 0.64305 0.98903 0.0
C989 C 0.62436 0.66055 0.00043 0.0
H990 H 0.60387 0.68066 0.9905 0.0
H991 H 0.60631 0.6356 0.91621 0.0
C992 C 0.48788 0.61094 0.89434 0.0
N993 N 0.50188 0.61913 0.92103 0.0
C994 C 0.46366 0.58884 0.89444 0.0
C995 C 0.46852 0.58427 0.9497 0.0
C996 C 0.49275 0.6064 0.94848 0.0
C997 C 0.45371 0.57504 0.92234 0.0
H998 H 0.49584 0.62131 0.8728 0.0
H999 H 0.50444 0.61318 0.96932 0.0
C1000 C 0.61985 0.70299 0.89418 0.0
N1001 N 0.6674 0.71268 0.87308 0.0
C1002 C 0.64148 0.72736 0.89795 0.0
C1003 C 0.62243 0.68355 0.87962 0.0
C1004 C 0.66534 0.73189 0.88713 0.0
C1005 C 0.64662 0.68883 0.86913 0.0
C1006 C 0.53579 0.69158 0.86856 0.0
C1007 C 0.55774 0.71431 0.85936 0.0
C1008 C 0.51166 0.68609 0.85756 0.0
C1009 C 0.55514 0.73122 0.83932 0.0
C1010 C 0.50987 0.7035 0.83753 0.0
N1011 N 0.53146 0.72552 0.82892 0.0
C1012 C 0.55352 0.65391 0.81821 0.0
C1013 C 0.59401 0.69226 0.81843 0.0
C1014 C 0.55368 0.65302 0.78573 0.0
N1015 N 0.57345 0.67328 0.83382 0.0
C1016 C 0.59525 0.69182 0.78586 0.0
C1017 C 0.57482 0.67205 0.76895 0.0
H1018 H 0.53719 0.63943 0.83111 0.0
H1019 H 0.60933 0.7079 0.83128 0.0
C1020 C 0.58744 0.74668 0.93736 0.0
N1021 N 0.56438 0.72494 0.93305 0.0
C1022 C 0.58869 0.77045 0.94048 0.0
C1023 C 0.54235 0.74877 0.93613 0.0
C1024 C 0.54204 0.72555 0.93274 0.0
C1025 C 0.56593 0.77167 0.93936 0.0
H1026 H 0.60492 0.74567 0.93706 0.0
H1027 H 0.52403 0.70822 0.92815 0.0
O1028 O 0.55967 0.63892 0.89699 0.0
O1029 O 0.55418 0.66736 0.95513 0.0
O1030 O 0.59644 0.69835 0.90494 0.0
O1031 O 0.53769 0.67483 0.88856 0.0
H1032 H 0.55026 0.62081 0.95503 0.0
H1033 H 0.55472 0.60211 0.85907 0.0
H1034 H 0.53865 0.5764 0.96993 0.0
H1035 H 0.54302 0.55792 0.87569 0.0
H1036 H 0.48137 0.66828 0.98235 0.0
H1037 H 0.56304 0.67459 0.01567 0.0
H1038 H 0.50943 0.66456 0.94279 0.0
H1039 H 0.534 0.67817 0.05403 0.0
H1040 H 0.63026 0.62096 0.94813 0.0
H1041 H 0.62895 0.6679 0.02404 0.0
H1042 H 0.45325 0.58224 0.87264 0.0
H1043 H 0.46157 0.57442 0.97178 0.0
H1044 H 0.63986 0.74265 0.90915 0.0
H1045 H 0.60596 0.66465 0.87615 0.0
H1046 H 0.68223 0.75067 0.88992 0.0
H1047 H 0.64886 0.67396 0.8578 0.0
H1048 H 0.57657 0.71895 0.8677 0.0
H1049 H 0.4945 0.6686 0.86454 0.0
H1050 H 0.57195 0.74891 0.83208 0.0
H1051 H 0.49131 0.69952 0.82887 0.0
H1052 H 0.53705 0.63782 0.77401 0.0
H1053 H 0.61203 0.70685 0.77417 0.0
H1054 H 0.60724 0.78775 0.9429 0.0
H1055 H 0.52445 0.74897 0.93443 0.0
Li1056 Li 0.57606 0.91486 0.92628 0.0
Li1057 Li 0.5605 0.8701 0.91861 0.0
Li1058 Li 0.56492 0.89621 0.87323 0.0
Li1059 Li 0.52947 0.88476 0.91328 0.0
C1060 C 0.61739 0.90758 0.90873 0.0
N1061 N 0.66815 0.9245 0.92379 0.0
C1062 C 0.62344 0.8982 0.93536 0.0
C1063 C 0.63715 0.92532 0.88955 0.0
C1064 C 0.64922 0.90703 0.94261 0.0
C1065 C 0.66269 0.93374 0.89765 0.0
C1066 C 0.54631 0.87578 0.97948 0.0
C1067 C 0.51925 0.84845 0.02087 0.0
N1068 N 0.54055 0.85472 0.03825 0.0
C1069 C 0.56792 0.88222 0.99786 0.0
C1070 C 0.52175 0.859 0.99112 0.0
C1071 C 0.56461 0.87126 0.02748 0.0
C1072 C 0.58412 0.95937 0.95459 0.0
N1073 N 0.59573 0.9451 0.95079 0.0
C1074 C 0.62999 0.97324 0.98476 0.0
C1075 C 0.61828 0.95158 0.96542 0.0
C1076 C 0.61847 0.9885 0.98886 0.0
C1077 C 0.59541 0.98144 0.9729 0.0
H1078 H 0.56575 0.95339 0.94372 0.0
H1079 H 0.62691 0.9397 0.96293 0.0
C1080 C 0.58157 0.83796 0.91371 0.0
N1081 N 0.56394 0.8411 0.93012 0.0
C1082 C 0.58348 0.81593 0.91772 0.0
C1083 C 0.54897 0.80057 0.9554 0.0
C1084 C 0.54792 0.82306 0.95093 0.0
C1085 C 0.56671 0.79669 0.93835 0.0
H1086 H 0.59347 0.85212 0.89652 0.0
H1087 H 0.53342 0.8254 0.96285 0.0
C1088 C 0.56478 0.94303 0.88182 0.0
N1089 N 0.5865 0.99194 0.85699 0.0
C1090 C 0.54973 0.95449 0.87711 0.0
C1091 C 0.59086 0.95642 0.87399 0.0
C1092 C 0.56108 0.97925 0.8645 0.0
C1093 C 0.60149 0.98113 0.86144 0.0
C1094 C 0.52504 0.83637 0.88122 0.0
C1095 C 0.53588 0.82702 0.85973 0.0
C1096 C 0.50494 0.81919 0.90045 0.0
C1097 C 0.52657 0.80056 0.85803 0.0
C1098 C 0.49613 0.79287 0.89799 0.0
N1099 N 0.50706 0.78418 0.87705 0.0
C1100 C 0.58456 0.8913 0.8151 0.0
C1101 C 0.56021 0.91245 0.81338 0.0
C1102 C 0.58651 0.89206 0.78253 0.0
N1103 N 0.57124 0.90109 0.8297 0.0
C1104 C 0.56225 0.91425 0.78098 0.0
C1105 C 0.57493 0.90336 0.76491 0.0
H1106 H 0.59284 0.88205 0.82869 0.0
H1107 H 0.54917 0.91952 0.82538 0.0
C1108 C 0.49362 0.89642 0.938 0.0
N1109 N 0.49614 0.87992 0.91862 0.0
C1110 C 0.47013 0.89582 0.94027 0.0
C1111 C 0.45214 0.86073 0.90322 0.0
C1112 C 0.47604 0.86216 0.90149 0.0
C1113 C 0.44905 0.87803 0.92239 0.0
H1114 H 0.51015 0.91063 0.9509 0.0
H1115 H 0.47875 0.84957 0.88586 0.0
O1116 O 0.59229 0.89881 0.90074 0.0
O1117 O 0.54906 0.88638 0.95053 0.0
O1118 O 0.554 0.91887 0.89431 0.0
O1119 O 0.53451 0.86227 0.88404 0.0
H1120 H 0.60845 0.88436 0.95039 0.0
H1121 H 0.63281 0.93241 0.86853 0.0
H1122 H 0.65417 0.90003 0.96322 0.0
H1123 H 0.67818 0.94753 0.88307 0.0
H1124 H 0.50038 0.83528 0.03012 0.0
H1125 H 0.58701 0.89561 0.98942 0.0
H1126 H 0.50484 0.85403 0.97721 0.0
H1127 H 0.58116 0.87596 0.04193 0.0
H1128 H 0.64747 0.97751 0.99695 0.0
H1129 H 0.58593 0.99269 0.97456 0.0
H1130 H 0.59699 0.81337 0.90357 0.0
H1131 H 0.53555 0.78603 0.97133 0.0
H1132 H 0.52951 0.94435 0.88317 0.0
H1133 H 0.60274 0.94783 0.87765 0.0
H1134 H 0.54968 0.98838 0.86071 0.0
H1135 H 0.62166 0.99173 0.85527 0.0
H1136 H 0.55154 0.84007 0.84481 0.0
H1137 H 0.49658 0.82616 0.91753 0.0
H1138 H 0.53491 0.79305 0.84169 0.0
H1139 H 0.48073 0.77937 0.9129 0.0
H1140 H 0.59614 0.88303 0.77139 0.0
H1141 H 0.5535 0.9237 0.76873 0.0
H1142 H 0.46886 0.90983 0.95493 0.0
H1143 H 0.43638 0.8465 0.8893 0.0
Li1144 Li 0.66103 0.57613 0.42632 0.0
Li1145 Li 0.69022 0.56056 0.41864 0.0
Li1146 Li 0.66853 0.56499 0.37326 0.0
Li1147 Li 0.64453 0.52953 0.41331 0.0
C1148 C 0.70963 0.61746 0.40876 0.0
N1149 N 0.74345 0.66822 0.42379 0.0
C1150 C 0.72508 0.62352 0.43537 0.0
C1151 C 0.71164 0.63721 0.38958 0.0
C1152 C 0.74201 0.6493 0.44261 0.0
C1153 C 0.72875 0.66276 0.39766 0.0
C1154 C 0.67036 0.54637 0.4795 0.0
C1155 C 0.67064 0.51931 0.52089 0.0
N1156 N 0.68568 0.54061 0.53827 0.0
C1157 C 0.68554 0.56798 0.49788 0.0
C1158 C 0.66258 0.52181 0.49115 0.0
C1159 C 0.6932 0.56467 0.52749 0.0
C1160 C 0.62458 0.58419 0.45462 0.0
N1161 N 0.65046 0.59579 0.45083 0.0
C1162 C 0.65658 0.63003 0.48483 0.0
C1163 C 0.66653 0.61833 0.46549 0.0
C1164 C 0.6298 0.61853 0.48892 0.0
C1165 C 0.6138 0.59548 0.47294 0.0
H1166 H 0.61218 0.56582 0.44374 0.0
H1167 H 0.68704 0.62695 0.463 0.0
C1168 C 0.74344 0.58164 0.41375 0.0
N1169 N 0.72267 0.564 0.43015 0.0
C1170 C 0.76738 0.58354 0.41775 0.0
C1171 C 0.74822 0.54902 0.45542 0.0
C1172 C 0.72468 0.54798 0.45095 0.0
C1173 C 0.76984 0.56676 0.43838 0.0
H1174 H 0.74118 0.59354 0.39656 0.0
H1175 H 0.70784 0.53346 0.46286 0.0
C1176 C 0.62157 0.56483 0.38186 0.0
N1177 N 0.59436 0.58653 0.35702 0.0
C1178 C 0.59506 0.54977 0.37713 0.0
C1179 C 0.63425 0.59091 0.37403 0.0
C1180 C 0.58164 0.56111 0.36452 0.0
C1181 C 0.62015 0.60153 0.36148 0.0
C1182 C 0.6885 0.52511 0.38124 0.0
C1183 C 0.70869 0.53596 0.35974 0.0
C1184 C 0.68558 0.50501 0.40046 0.0
C1185 C 0.72585 0.52666 0.35803 0.0
C1186 C 0.7031 0.49621 0.39798 0.0
N1187 N 0.72273 0.50715 0.37704 0.0
C1188 C 0.69308 0.58464 0.31513 0.0
C1189 C 0.64758 0.56028 0.31341 0.0
C1190 C 0.69426 0.5866 0.28257 0.0
N1191 N 0.66998 0.57131 0.32973 0.0
C1192 C 0.64782 0.56233 0.28102 0.0
C1193 C 0.67138 0.57501 0.26494 0.0
H1194 H 0.71061 0.59293 0.32872 0.0
H1195 H 0.62947 0.54924 0.32542 0.0
C1196 C 0.59703 0.49369 0.43802 0.0
N1197 N 0.61605 0.49621 0.41864 0.0
C1198 C 0.57414 0.4702 0.44029 0.0
C1199 C 0.59124 0.4522 0.40326 0.0
C1200 C 0.61372 0.4761 0.40153 0.0
C1201 C 0.57084 0.44911 0.42242 0.0
H1202 H 0.59935 0.51022 0.45091 0.0
H1203 H 0.62902 0.47881 0.3859 0.0
O1204 O 0.6933 0.59235 0.40078 0.0
O1205 O 0.6625 0.54912 0.45057 0.0
O1206 O 0.63496 0.55406 0.39434 0.0
O1207 O 0.67207 0.53457 0.38406 0.0
H1208 H 0.72393 0.60853 0.4504 0.0
H1209 H 0.70019 0.63286 0.36856 0.0
H1210 H 0.75398 0.65426 0.46322 0.0
H1211 H 0.73043 0.67824 0.38308 0.0
H1212 H 0.66493 0.50044 0.53015 0.0
H1213 H 0.69125 0.58707 0.48944 0.0
H1214 H 0.65062 0.50489 0.47725 0.0
H1215 H 0.70506 0.58122 0.54195 0.0
H1216 H 0.66979 0.64751 0.49704 0.0
H1217 H 0.59306 0.586 0.47458 0.0
H1218 H 0.78345 0.59706 0.40361 0.0
H1219 H 0.74933 0.53559 0.47134 0.0
H1220 H 0.58499 0.52955 0.38318 0.0
H1221 H 0.65471 0.60281 0.37771 0.0
H1222 H 0.56112 0.5497 0.36072 0.0
H1223 H 0.62971 0.6217 0.35532 0.0
H1224 H 0.71129 0.55163 0.34483 0.0
H1225 H 0.67026 0.49664 0.41753 0.0
H1226 H 0.7417 0.53501 0.34169 0.0
H1227 H 0.70122 0.48081 0.41288 0.0
H1228 H 0.71294 0.59624 0.27142 0.0
H1229 H 0.62962 0.55358 0.26877 0.0
H1230 H 0.55885 0.46893 0.45494 0.0
H1231 H 0.58971 0.43644 0.38934 0.0
Li1232 Li 0.12949 0.69032 0.91867 0.0
Li1233 Li 0.08473 0.66111 0.92634 0.0
Li1234 Li 0.11484 0.64463 0.91334 0.0
Li1235 Li 0.10339 0.66862 0.87328 0.0
C1236 C 0.12385 0.67046 0.97952 0.0
N1237 N 0.14502 0.68579 0.03824 0.0
C1238 C 0.11748 0.68567 0.99791 0.0
C1239 C 0.14063 0.66266 0.99113 0.0
C1240 C 0.12849 0.69334 0.0275 0.0
C1241 C 0.15123 0.67072 0.02084 0.0
C1242 C 0.09197 0.7097 0.90875 0.0
C1243 C 0.06578 0.72879 0.8976 0.0
N1244 N 0.07499 0.7435 0.92373 0.0
C1245 C 0.10134 0.72516 0.93536 0.0
C1246 C 0.07422 0.71168 0.88955 0.0
C1247 C 0.09247 0.74208 0.94257 0.0
C1248 C 0.16161 0.74354 0.91379 0.0
N1249 N 0.15848 0.72277 0.93019 0.0
C1250 C 0.19902 0.74833 0.95543 0.0
C1251 C 0.17653 0.72479 0.95097 0.0
C1252 C 0.20289 0.76995 0.93839 0.0
C1253 C 0.18364 0.76748 0.91778 0.0
H1254 H 0.14744 0.74127 0.8966 0.0
H1255 H 0.17421 0.70795 0.96289 0.0
C1256 C 0.04013 0.62465 0.95452 0.0
N1257 N 0.05449 0.65054 0.95084 0.0
C1258 C 0.01806 0.61388 0.97284 0.0
C1259 C 0.02643 0.65667 0.98495 0.0
C1260 C 0.04809 0.66662 0.96561 0.0
C1261 C 0.01108 0.62989 0.98893 0.0
H1262 H 0.04604 0.61223 0.94358 0.0
H1263 H 0.06004 0.68713 0.96322 0.0
C1264 C 0.16322 0.68861 0.88127 0.0
N1265 N 0.2154 0.72288 0.87705 0.0
C1266 C 0.17255 0.70881 0.85977 0.0
C1267 C 0.18043 0.68572 0.90047 0.0
C1268 C 0.199 0.72598 0.85805 0.0
C1269 C 0.20675 0.70326 0.89799 0.0
C1270 C 0.0566 0.62166 0.8818 0.0
C1271 C 0.0452 0.59517 0.87698 0.0
C1272 C 0.04318 0.63432 0.87401 0.0
C1273 C 0.02047 0.58175 0.8643 0.0
C1274 C 0.0185 0.62024 0.86139 0.0
N1275 N 0.00775 0.59446 0.85683 0.0
C1276 C 0.10318 0.59712 0.93804 0.0
C1277 C 0.13748 0.61384 0.90159 0.0
C1278 C 0.10378 0.57424 0.94031 0.0
N1279 N 0.1197 0.61616 0.91868 0.0
C1280 C 0.13891 0.59136 0.90332 0.0
C1281 C 0.1216 0.57096 0.92246 0.0
H1282 H 0.08895 0.59943 0.95092 0.0
H1283 H 0.15008 0.62914 0.88597 0.0
C1284 C 0.10825 0.69317 0.81516 0.0
N1285 N 0.09852 0.67007 0.82975 0.0
C1286 C 0.10748 0.69435 0.78259 0.0
C1287 C 0.0854 0.64791 0.78103 0.0
C1288 C 0.08721 0.64768 0.81343 0.0
C1289 C 0.09624 0.67148 0.76496 0.0
H1290 H 0.11746 0.7107 0.82875 0.0
H1291 H 0.08018 0.62957 0.82543 0.0
O1292 O 0.1132 0.66259 0.9506 0.0
O1293 O 0.10077 0.69338 0.9008 0.0
O1294 O 0.13734 0.67217 0.88411 0.0
O1295 O 0.08074 0.63504 0.89436 0.0
H1296 H 0.1041 0.6914 0.98949 0.0
H1297 H 0.14555 0.65068 0.97721 0.0
H1298 H 0.12383 0.70521 0.04197 0.0
H1299 H 0.16439 0.665 0.03007 0.0
H1300 H 0.05198 0.73046 0.88301 0.0
H1301 H 0.11518 0.72402 0.95041 0.0
H1302 H 0.06715 0.70023 0.86853 0.0
H1303 H 0.09946 0.75405 0.96318 0.0
H1304 H 0.21357 0.74945 0.97134 0.0
H1305 H 0.18618 0.78354 0.90363 0.0
H1306 H 0.00674 0.59314 0.9744 0.0
H1307 H 0.02223 0.6699 0.99725 0.0
H1308 H 0.15947 0.71139 0.84486 0.0
H1309 H 0.17349 0.6704 0.91755 0.0
H1310 H 0.20648 0.74183 0.8417 0.0
H1311 H 0.22027 0.70139 0.91288 0.0
H1312 H 0.05536 0.5851 0.883 0.0
H1313 H 0.05172 0.65478 0.87777 0.0
H1314 H 0.01138 0.56124 0.86042 0.0
H1315 H 0.00787 0.62979 0.85525 0.0
H1316 H 0.08976 0.55894 0.95494 0.0
H1317 H 0.15316 0.58984 0.88941 0.0
H1318 H 0.11648 0.71303 0.77145 0.0
H1319 H 0.07599 0.62972 0.76878 0.0
Li1320 Li 0.42342 0.0848 0.42627 0.0
Li1321 Li 0.43898 0.12955 0.4186 0.0
Li1322 Li 0.43457 0.10345 0.37322 0.0
Li1323 Li 0.47001 0.1149 0.41327 0.0
C1324 C 0.38209 0.09207 0.40871 0.0
N1325 N 0.33133 0.07514 0.42375 0.0
C1326 C 0.37603 0.10145 0.43534 0.0
C1327 C 0.36233 0.07433 0.38953 0.0
C1328 C 0.35025 0.09261 0.44258 0.0
C1329 C 0.33679 0.06591 0.39761 0.0
C1330 C 0.45318 0.12388 0.47946 0.0
C1331 C 0.48025 0.15122 0.52084 0.0
N1332 N 0.45895 0.14496 0.53823 0.0
C1333 C 0.43157 0.11745 0.49785 0.0
C1334 C 0.47774 0.14066 0.49111 0.0
C1335 C 0.43489 0.12843 0.52746 0.0
C1336 C 0.41535 0.04027 0.45455 0.0
N1337 N 0.40375 0.05456 0.45078 0.0
C1338 C 0.36952 0.02644 0.48479 0.0
C1339 C 0.38122 0.0481 0.46544 0.0
C1340 C 0.38102 0.01116 0.48886 0.0
C1341 C 0.40405 0.0182 0.47287 0.0
H1342 H 0.43371 0.04623 0.44366 0.0
H1343 H 0.3726 0.05999 0.46297 0.0
C1344 C 0.41791 0.1617 0.41372 0.0
N1345 N 0.43554 0.15855 0.43012 0.0
C1346 C 0.41599 0.18372 0.41772 0.0
C1347 C 0.45051 0.19908 0.45541 0.0
C1348 C 0.45155 0.17659 0.45093 0.0
C1349 C 0.43277 0.20296 0.43836 0.0
H1350 H 0.40601 0.14754 0.39652 0.0
H1351 H 0.46606 0.17426 0.46285 0.0
C1352 C 0.43471 0.05664 0.38179 0.0
N1353 N 0.413 0.00774 0.35693 0.0
C1354 C 0.44977 0.04519 0.37705 0.0
C1355 C 0.40863 0.04324 0.37397 0.0
C1356 C 0.43843 0.02044 0.36443 0.0
C1357 C 0.39801 0.01854 0.3614 0.0
C1358 C 0.47444 0.16329 0.38122 0.0
C1359 C 0.46359 0.17264 0.35972 0.0
C1360 C 0.49454 0.18047 0.40044 0.0
C1361 C 0.4729 0.1991 0.35803 0.0
C1362 C 0.50334 0.20679 0.39798 0.0
N1363 N 0.4924 0.21548 0.37704 0.0
C1364 C 0.41492 0.10836 0.31509 0.0
C1365 C 0.43929 0.08723 0.31337 0.0
C1366 C 0.41297 0.10759 0.28252 0.0
N1367 N 0.42825 0.09858 0.32969 0.0
C1368 C 0.43725 0.08543 0.28097 0.0
C1369 C 0.42456 0.09631 0.2649 0.0
H1370 H 0.40663 0.1176 0.32868 0.0
H1371 H 0.45033 0.08016 0.32537 0.0
C1372 C 0.50586 0.10323 0.43799 0.0
N1373 N 0.50334 0.11974 0.41861 0.0
C1374 C 0.52934 0.10383 0.44026 0.0
C1375 C 0.54735 0.13893 0.40322 0.0
C1376 C 0.52344 0.13751 0.40149 0.0
C1377 C 0.55043 0.12163 0.42238 0.0
H1378 H 0.48933 0.08902 0.45088 0.0
H1379 H 0.52073 0.1501 0.38586 0.0
O1380 O 0.4072 0.10085 0.40073 0.0
O1381 O 0.45042 0.11327 0.45053 0.0
O1382 O 0.44549 0.08079 0.3943 0.0
O1383 O 0.46497 0.13739 0.38403 0.0
H1384 H 0.39102 0.11528 0.45037 0.0
H1385 H 0.36668 0.06724 0.36851 0.0
H1386 H 0.34529 0.09961 0.46319 0.0
H1387 H 0.32131 0.05212 0.38303 0.0
H1388 H 0.49913 0.16438 0.53009 0.0
H1389 H 0.41248 0.10408 0.48941 0.0
H1390 H 0.49465 0.14561 0.47719 0.0
H1391 H 0.41835 0.12373 0.54192 0.0
H1392 H 0.35205 0.02219 0.49701 0.0
H1393 H 0.41352 0.00693 0.47451 0.0
H1394 H 0.40248 0.18628 0.40358 0.0
H1395 H 0.46393 0.21362 0.47133 0.0
H1396 H 0.46999 0.05533 0.3831 0.0
H1397 H 0.39674 0.05182 0.37766 0.0
H1398 H 0.44983 0.01132 0.36061 0.0
H1399 H 0.37784 0.00793 0.35524 0.0
H1400 H 0.44793 0.15958 0.3448 0.0
H1401 H 0.5029 0.17351 0.41752 0.0
H1402 H 0.46455 0.2066 0.34168 0.0
H1403 H 0.51874 0.2203 0.41289 0.0
H1404 H 0.40333 0.11662 0.27138 0.0
H1405 H 0.44601 0.07599 0.26872 0.0
H1406 H 0.53061 0.08981 0.45491 0.0
H1407 H 0.56311 0.15316 0.3893 0.0
Li1408 Li 0.30927 0.43908 0.91862 0.0
Li1409 Li 0.33846 0.42352 0.9263 0.0
Li1410 Li 0.35496 0.47011 0.91328 0.0
Li1411 Li 0.33096 0.43466 0.87324 0.0
C1412 C 0.32914 0.45326 0.97949 0.0
N1413 N 0.31384 0.45899 0.03828 0.0
C1414 C 0.31397 0.43164 0.99786 0.0
C1415 C 0.33692 0.47781 0.99116 0.0
C1416 C 0.30632 0.43494 0.02748 0.0
C1417 C 0.32887 0.4803 0.0209 0.0
C1418 C 0.28985 0.38218 0.90873 0.0
C1419 C 0.27071 0.33688 0.89763 0.0
N1420 N 0.25602 0.33142 0.92377 0.0
C1421 C 0.27441 0.37613 0.93535 0.0
C1422 C 0.28784 0.36243 0.88955 0.0
C1423 C 0.25747 0.35035 0.94259 0.0
C1424 C 0.25605 0.41801 0.91373 0.0
N1425 N 0.27682 0.43564 0.93014 0.0
C1426 C 0.25127 0.4506 0.95544 0.0
C1427 C 0.27481 0.45165 0.95096 0.0
C1428 C 0.22965 0.43287 0.93839 0.0
C1429 C 0.23211 0.4161 0.91774 0.0
H1430 H 0.25831 0.40612 0.89652 0.0
H1431 H 0.29165 0.46615 0.96288 0.0
C1432 C 0.37491 0.41547 0.95462 0.0
N1433 N 0.34903 0.40385 0.9508 0.0
C1434 C 0.38568 0.40418 0.97294 0.0
C1435 C 0.34291 0.36959 0.98478 0.0
C1436 C 0.33296 0.3813 0.96543 0.0
C1437 C 0.36969 0.38112 0.9889 0.0
H1438 H 0.3873 0.43384 0.94376 0.0
H1439 H 0.31245 0.37266 0.96292 0.0
C1440 C 0.311 0.47454 0.88124 0.0
N1441 N 0.27678 0.49251 0.87708 0.0
C1442 C 0.2908 0.4637 0.85973 0.0
C1443 C 0.31392 0.49463 0.90047 0.0
C1444 C 0.27365 0.47301 0.85805 0.0
C1445 C 0.2964 0.50344 0.89802 0.0
C1446 C 0.37792 0.4348 0.88184 0.0
C1447 C 0.40443 0.44985 0.87715 0.0
C1448 C 0.36524 0.40872 0.87401 0.0
C1449 C 0.41785 0.43851 0.86456 0.0
C1450 C 0.37933 0.39809 0.86148 0.0
N1451 N 0.40512 0.41308 0.85705 0.0
C1452 C 0.40246 0.50595 0.938 0.0
C1453 C 0.38577 0.52354 0.90151 0.0
C1454 C 0.42535 0.52944 0.94028 0.0
N1455 N 0.38344 0.50344 0.91862 0.0
C1456 C 0.40825 0.54745 0.90324 0.0
C1457 C 0.42865 0.55053 0.9224 0.0
H1458 H 0.40015 0.48943 0.95089 0.0
H1459 H 0.37048 0.52083 0.88588 0.0
C1460 C 0.3064 0.41502 0.81511 0.0
N1461 N 0.32951 0.42833 0.82971 0.0
C1462 C 0.30522 0.41307 0.78254 0.0
C1463 C 0.35166 0.4373 0.78099 0.0
C1464 C 0.3519 0.43935 0.81339 0.0
C1465 C 0.32809 0.42463 0.76492 0.0
H1466 H 0.28887 0.40675 0.8287 0.0
H1467 H 0.37001 0.45037 0.82539 0.0
O1468 O 0.33699 0.45052 0.95054 0.0
O1469 O 0.30619 0.40729 0.90075 0.0
O1470 O 0.32742 0.46507 0.88404 0.0
O1471 O 0.36453 0.44558 0.89432 0.0
H1472 H 0.30826 0.41256 0.9894 0.0
H1473 H 0.34887 0.49473 0.97726 0.0
H1474 H 0.29447 0.41838 0.04193 0.0
H1475 H 0.33458 0.49917 0.03018 0.0
H1476 H 0.26902 0.3214 0.88305 0.0
H1477 H 0.27557 0.39112 0.95039 0.0
H1478 H 0.29928 0.36678 0.86853 0.0
H1479 H 0.24551 0.34539 0.9632 0.0
H1480 H 0.25015 0.46401 0.97138 0.0
H1481 H 0.21605 0.40259 0.90359 0.0
H1482 H 0.40642 0.41367 0.97461 0.0
H1483 H 0.3297 0.35211 0.99696 0.0
H1484 H 0.2882 0.44805 0.84481 0.0
H1485 H 0.32923 0.50298 0.91755 0.0
H1486 H 0.2578 0.46467 0.8417 0.0
H1487 H 0.29829 0.51883 0.91293 0.0
H1488 H 0.41451 0.47007 0.88322 0.0
H1489 H 0.34476 0.39684 0.87766 0.0
H1490 H 0.43838 0.44991 0.86079 0.0
H1491 H 0.36976 0.37793 0.85531 0.0
H1492 H 0.44064 0.53072 0.95492 0.0
H1493 H 0.40978 0.56321 0.88932 0.0
H1494 H 0.28654 0.40344 0.7714 0.0
H1495 H 0.36986 0.44604 0.76874 0.0
Li1496 Li 0.87 0.30932 0.41862 0.0
Li1497 Li 0.91475 0.3385 0.42633 0.0
Li1498 Li 0.88467 0.35501 0.4133 0.0
Li1499 Li 0.89614 0.33102 0.37326 0.0
C1500 C 0.87569 0.32916 0.47951 0.0
N1501 N 0.85468 0.31384 0.53831 0.0
C1502 C 0.88216 0.314 0.49786 0.0
C1503 C 0.8589 0.33692 0.4912 0.0
C1504 C 0.87123 0.30634 0.52749 0.0
C1505 C 0.84838 0.32886 0.52095 0.0
C1506 C 0.90749 0.28991 0.40877 0.0
C1507 C 0.93367 0.27078 0.39771 0.0
N1508 N 0.92442 0.25608 0.42384 0.0
C1509 C 0.89809 0.27446 0.43538 0.0
C1510 C 0.92525 0.2879 0.38961 0.0
C1511 C 0.90693 0.25752 0.44264 0.0
C1512 C 0.83785 0.2561 0.4137 0.0
N1513 N 0.84099 0.27687 0.43012 0.0
C1514 C 0.80046 0.25132 0.45538 0.0
C1515 C 0.82295 0.27486 0.45092 0.0
C1516 C 0.79658 0.2297 0.43833 0.0
C1517 C 0.81582 0.23217 0.4177 0.0
H1518 H 0.85201 0.25837 0.39651 0.0
H1519 H 0.82529 0.2917 0.46284 0.0
C1520 C 0.95918 0.37494 0.45475 0.0
N1521 N 0.94497 0.34907 0.45086 0.0
C1522 C 0.98124 0.38573 0.47308 0.0
C1523 C 0.97318 0.34298 0.48474 0.0
C1524 C 0.95152 0.33301 0.46539 0.0
C1525 C 0.98837 0.36974 0.48895 0.0
H1526 H 0.95316 0.38732 0.44395 0.0
H1527 H 0.9397 0.3125 0.46281 0.0
C1528 C 0.83629 0.31107 0.38122 0.0
N1529 N 0.7841 0.27688 0.37704 0.0
C1530 C 0.82693 0.29088 0.35972 0.0
C1531 C 0.81912 0.314 0.40045 0.0
C1532 C 0.80047 0.27374 0.35802 0.0
C1533 C 0.79279 0.2965 0.39799 0.0
C1534 C 0.94297 0.37799 0.38195 0.0
C1535 C 0.95444 0.40452 0.37734 0.0
C1536 C 0.95637 0.36532 0.37409 0.0
C1537 C 0.97923 0.41796 0.36482 0.0
C1538 C 0.98111 0.37944 0.36163 0.0
N1539 N 0.99193 0.40524 0.35728 0.0
C1540 C 0.89632 0.40251 0.43804 0.0
C1541 C 0.86207 0.38584 0.4015 0.0
C1542 C 0.89572 0.4254 0.44031 0.0
N1543 N 0.87983 0.3835 0.41864 0.0
C1544 C 0.86065 0.40832 0.40323 0.0
C1545 C 0.87794 0.42871 0.42241 0.0
H1546 H 0.91052 0.40019 0.45094 0.0
H1547 H 0.8495 0.37055 0.38585 0.0
C1548 C 0.89122 0.30648 0.31512 0.0
N1549 N 0.90104 0.32958 0.32973 0.0
C1550 C 0.89199 0.3053 0.28256 0.0
C1551 C 0.91427 0.35175 0.28103 0.0
C1552 C 0.91246 0.35198 0.31342 0.0
C1553 C 0.90334 0.32818 0.26494 0.0
H1554 H 0.88193 0.28894 0.3287 0.0
H1555 H 0.91957 0.37009 0.32544 0.0
O1556 O 0.88626 0.33703 0.45056 0.0
O1557 O 0.89871 0.30624 0.40078 0.0
O1558 O 0.86219 0.32749 0.38404 0.0
O1559 O 0.91878 0.36458 0.39436 0.0
H1560 H 0.89555 0.30832 0.48939 0.0
H1561 H 0.85391 0.34886 0.47731 0.0
H1562 H 0.87596 0.2945 0.54192 0.0
H1563 H 0.83521 0.33454 0.53024 0.0
H1564 H 0.94747 0.2691 0.38315 0.0
H1565 H 0.88423 0.2756 0.4504 0.0
H1566 H 0.93236 0.29935 0.3686 0.0
H1567 H 0.89991 0.24555 0.46324 0.0
H1568 H 0.78592 0.2502 0.4713 0.0
H1569 H 0.81327 0.2161 0.40355 0.0
H1570 H 0.99244 0.40647 0.47482 0.0
H1571 H 0.9775 0.32976 0.49686 0.0
H1572 H 0.83998 0.28827 0.3448 0.0
H1573 H 0.82609 0.32932 0.41754 0.0
H1574 H 0.79295 0.25789 0.34167 0.0
H1575 H 0.77929 0.2984 0.4129 0.0
H1576 H 0.94429 0.41459 0.38342 0.0
H1577 H 0.94777 0.34484 0.37768 0.0
H1578 H 0.98837 0.4385 0.36111 0.0
H1579 H 0.99172 0.36988 0.35544 0.0
H1580 H 0.90973 0.44068 0.45497 0.0
H1581 H 0.84643 0.40986 0.3893 0.0
H1582 H 0.88292 0.28663 0.27141 0.0
H1583 H 0.92376 0.36995 0.26879 0.0
Li1584 Li 0.11483 0.47012 0.58578 0.0
Li1585 Li 0.10338 0.43468 0.62583 0.0
Li1586 Li 0.12948 0.43908 0.58044 0.0
Li1587 Li 0.08472 0.42352 0.57278 0.0
C1588 C 0.16322 0.47454 0.61783 0.0
N1589 N 0.21541 0.49248 0.62201 0.0
C1590 C 0.17256 0.46369 0.63933 0.0
C1591 C 0.18041 0.49463 0.5986 0.0
C1592 C 0.19902 0.47298 0.64103 0.0
C1593 C 0.20673 0.50343 0.60107 0.0
C1594 C 0.05658 0.43482 0.61728 0.0
C1595 C 0.01848 0.39812 0.63769 0.0
N1596 N 0.00769 0.41312 0.64219 0.0
C1597 C 0.04514 0.44988 0.62205 0.0
C1598 C 0.04318 0.40874 0.6251 0.0
C1599 C 0.02039 0.43855 0.63469 0.0
C1600 C 0.10315 0.50596 0.56107 0.0
N1601 N 0.11967 0.50344 0.58044 0.0
C1602 C 0.13888 0.54746 0.5958 0.0
C1603 C 0.13746 0.52355 0.59753 0.0
C1604 C 0.12156 0.55054 0.57666 0.0
C1605 C 0.10376 0.52944 0.5588 0.0
H1606 H 0.08893 0.48942 0.5482 0.0
H1607 H 0.15005 0.52085 0.61315 0.0
C1608 C 0.10828 0.41502 0.68396 0.0
N1609 N 0.09852 0.42836 0.66937 0.0
C1610 C 0.10752 0.41307 0.71652 0.0
C1611 C 0.08538 0.43737 0.71808 0.0
C1612 C 0.08719 0.43942 0.68569 0.0
C1613 C 0.09625 0.42467 0.73416 0.0
H1614 H 0.11751 0.40672 0.67037 0.0
H1615 H 0.08013 0.45047 0.67369 0.0
C1616 C 0.12381 0.45329 0.51959 0.0
N1617 N 0.14491 0.45908 0.46083 0.0
C1618 C 0.1174 0.43169 0.50119 0.0
C1619 C 0.14059 0.47786 0.50796 0.0
C1620 C 0.12838 0.43502 0.47159 0.0
C1621 C 0.15116 0.48038 0.47822 0.0
C1622 C 0.09199 0.38219 0.59035 0.0
C1623 C 0.10137 0.37612 0.56372 0.0
C1624 C 0.07426 0.36244 0.60954 0.0
C1625 C 0.09252 0.35035 0.55649 0.0
C1626 C 0.06583 0.33689 0.60146 0.0
N1627 N 0.07506 0.33143 0.57532 0.0
C1628 C 0.16162 0.418 0.58533 0.0
C1629 C 0.17651 0.45165 0.54811 0.0
C1630 C 0.18365 0.41609 0.58132 0.0
N1631 N 0.15848 0.43564 0.56892 0.0
C1632 C 0.19901 0.4506 0.54363 0.0
C1633 C 0.20289 0.43286 0.56069 0.0
H1634 H 0.14746 0.40611 0.60253 0.0
H1635 H 0.17418 0.46616 0.53619 0.0
C1636 C 0.04017 0.41542 0.54454 0.0
N1637 N 0.05448 0.40385 0.54828 0.0
C1638 C 0.0181 0.40412 0.52623 0.0
C1639 C 0.02638 0.36963 0.51424 0.0
C1640 C 0.04804 0.38134 0.53359 0.0
C1641 C 0.01108 0.3811 0.5102 0.0
H1642 H 0.04611 0.43377 0.55544 0.0
H1643 H 0.05995 0.37274 0.53603 0.0
O1644 O 0.13733 0.46508 0.61501 0.0
O1645 O 0.08073 0.44559 0.60476 0.0
O1646 O 0.11319 0.45052 0.54852 0.0
O1647 O 0.10078 0.4073 0.59832 0.0
H1648 H 0.1595 0.44803 0.65425 0.0
H1649 H 0.17345 0.503 0.58152 0.0
H1650 H 0.20652 0.46463 0.65738 0.0
H1651 H 0.22024 0.51882 0.58616 0.0
H1652 H 0.00788 0.37795 0.64385 0.0
H1653 H 0.05528 0.47011 0.616 0.0
H1654 H 0.05175 0.39685 0.62139 0.0
H1655 H 0.01128 0.44996 0.63853 0.0
H1656 H 0.15312 0.56322 0.60971 0.0
H1657 H 0.08973 0.53071 0.54417 0.0
H1658 H 0.11654 0.40341 0.72767 0.0
H1659 H 0.07595 0.44614 0.73034 0.0
H1660 H 0.10402 0.41259 0.50963 0.0
H1661 H 0.14554 0.49476 0.52187 0.0
H1662 H 0.1237 0.41847 0.45712 0.0
H1663 H 0.16432 0.49925 0.46898 0.0
H1664 H 0.1152 0.39111 0.54868 0.0
H1665 H 0.06717 0.36679 0.63056 0.0
H1666 H 0.09952 0.34538 0.53588 0.0
H1667 H 0.05204 0.32141 0.61605 0.0
H1668 H 0.1862 0.40258 0.59547 0.0
H1669 H 0.21354 0.46402 0.52771 0.0
H1670 H 0.00681 0.41358 0.52461 0.0
H1671 H 0.02215 0.35217 0.502 0.0
Li1672 Li 0.64456 0.11493 0.08574 0.0
Li1673 Li 0.66855 0.10346 0.12579 0.0
Li1674 Li 0.69026 0.12959 0.08042 0.0
Li1675 Li 0.66107 0.08484 0.07272 0.0
C1676 C 0.68852 0.16331 0.11782 0.0
N1677 N 0.72274 0.2155 0.12203 0.0
C1678 C 0.70871 0.17265 0.13933 0.0
C1679 C 0.68561 0.1805 0.0986 0.0
C1680 C 0.72586 0.19911 0.14104 0.0
C1681 C 0.70312 0.20682 0.10108 0.0
C1682 C 0.62158 0.05665 0.11714 0.0
C1683 C 0.62014 0.01851 0.13749 0.0
N1684 N 0.59434 0.00771 0.14189 0.0
C1685 C 0.59506 0.0452 0.1218 0.0
C1686 C 0.63425 0.04324 0.12498 0.0
C1687 C 0.58163 0.02043 0.13437 0.0
C1688 C 0.59705 0.10326 0.06103 0.0
N1689 N 0.61608 0.11978 0.0804 0.0
C1690 C 0.59127 0.13898 0.09578 0.0
C1691 C 0.61375 0.13755 0.09751 0.0
C1692 C 0.57087 0.12167 0.07663 0.0
C1693 C 0.57417 0.10386 0.05876 0.0
H1694 H 0.59937 0.08905 0.04815 0.0
H1695 H 0.62905 0.15014 0.11314 0.0
C1696 C 0.69309 0.10836 0.18392 0.0
N1697 N 0.66999 0.09857 0.16932 0.0
C1698 C 0.69427 0.10758 0.21648 0.0
C1699 C 0.64783 0.08536 0.21802 0.0
C1700 C 0.64759 0.08718 0.18563 0.0
C1701 C 0.67139 0.09626 0.2341 0.0
H1702 H 0.71063 0.11763 0.17034 0.0
H1703 H 0.62948 0.0801 0.17362 0.0
C1704 C 0.67041 0.12392 0.01954 0.0
N1705 N 0.68574 0.14497 0.96076 0.0
C1706 C 0.68558 0.11747 0.00118 0.0
C1707 C 0.66264 0.1407 0.00787 0.0
C1708 C 0.69325 0.12843 0.97156 0.0
C1709 C 0.6707 0.15124 0.97813 0.0
C1710 C 0.70966 0.09209 0.09029 0.0
C1711 C 0.72511 0.10149 0.06368 0.0
C1712 C 0.71165 0.07434 0.10946 0.0
C1713 C 0.74204 0.09264 0.05644 0.0
C1714 C 0.72877 0.06591 0.10138 0.0
N1715 N 0.74347 0.07515 0.07525 0.0
C1716 C 0.74347 0.16174 0.08533 0.0
C1717 C 0.72472 0.17664 0.04812 0.0
C1718 C 0.76741 0.18377 0.08133 0.0
N1719 N 0.7227 0.1586 0.06892 0.0
C1720 C 0.74826 0.19913 0.04366 0.0
C1721 C 0.76988 0.20301 0.06071 0.0
H1722 H 0.74121 0.14757 0.10252 0.0
H1723 H 0.70788 0.17431 0.0362 0.0
C1724 C 0.62462 0.04037 0.04436 0.0
N1725 N 0.6505 0.05461 0.0482 0.0
C1726 C 0.61383 0.0183 0.02604 0.0
C1727 C 0.6566 0.02645 0.01425 0.0
C1728 C 0.66656 0.0481 0.0336 0.0
C1729 C 0.62983 0.01122 0.01011 0.0
H1730 H 0.61223 0.04636 0.0552 0.0
H1731 H 0.68707 0.05996 0.03613 0.0
O1732 O 0.67209 0.13741 0.115 0.0
O1733 O 0.63499 0.08082 0.10469 0.0
O1734 O 0.66254 0.11333 0.04848 0.0
O1735 O 0.69333 0.10088 0.09827 0.0
H1736 H 0.71131 0.15959 0.15425 0.0
H1737 H 0.67029 0.17354 0.08152 0.0
H1738 H 0.7417 0.20661 0.1574 0.0
H1739 H 0.70124 0.22033 0.08617 0.0
H1740 H 0.62969 0.0079 0.14366 0.0
H1741 H 0.585 0.05535 0.11574 0.0
H1742 H 0.65472 0.05182 0.12135 0.0
H1743 H 0.5611 0.0113 0.13813 0.0
H1744 H 0.58974 0.15321 0.10969 0.0
H1745 H 0.55887 0.08984 0.04412 0.0
H1746 H 0.71294 0.11663 0.22764 0.0
H1747 H 0.62963 0.0759 0.23026 0.0
H1748 H 0.69128 0.10409 0.00964 0.0
H1749 H 0.65069 0.14567 0.02176 0.0
H1750 H 0.7051 0.12372 0.95712 0.0
H1751 H 0.66501 0.16441 0.96885 0.0
H1752 H 0.72397 0.11534 0.04866 0.0
H1753 H 0.7002 0.06724 0.13047 0.0
H1754 H 0.75401 0.09965 0.03584 0.0
H1755 H 0.73044 0.0521 0.11595 0.0
H1756 H 0.78348 0.18632 0.09548 0.0
H1757 H 0.74937 0.21368 0.02774 0.0
H1758 H 0.59309 0.00707 0.02435 0.0
H1759 H 0.66981 0.02216 0.00209 0.0
Li1760 Li 0.56492 0.66863 0.62582 0.0
Li1761 Li 0.52946 0.64463 0.58577 0.0
Li1762 Li 0.57606 0.66113 0.57275 0.0
Li1763 Li 0.56049 0.69032 0.58044 0.0
C1764 C 0.56478 0.62166 0.61718 0.0
N1765 N 0.5865 0.59445 0.64192 0.0
C1766 C 0.54973 0.59514 0.62183 0.0
C1767 C 0.59085 0.63435 0.62503 0.0
C1768 C 0.56108 0.58172 0.6344 0.0
C1769 C 0.60148 0.62025 0.63753 0.0
C1770 C 0.52503 0.68858 0.61782 0.0
C1771 C 0.49612 0.70318 0.60104 0.0
N1772 N 0.50705 0.7228 0.62198 0.0
C1773 C 0.53587 0.70878 0.63933 0.0
C1774 C 0.50494 0.68566 0.59858 0.0
C1775 C 0.52655 0.72592 0.64101 0.0
C1776 C 0.58455 0.69318 0.68394 0.0
N1777 N 0.57125 0.67007 0.66934 0.0
C1778 C 0.56229 0.64792 0.71805 0.0
C1779 C 0.56025 0.64768 0.68566 0.0
C1780 C 0.57495 0.67149 0.73413 0.0
C1781 C 0.58651 0.69437 0.71651 0.0
H1782 H 0.59281 0.71071 0.67036 0.0
H1783 H 0.54923 0.62957 0.67365 0.0
C1784 C 0.49362 0.59712 0.56105 0.0
N1785 N 0.49614 0.61614 0.58043 0.0
C1786 C 0.47013 0.57423 0.55878 0.0
C1787 C 0.45213 0.59133 0.59581 0.0
C1788 C 0.47603 0.61381 0.59755 0.0
C1789 C 0.44904 0.57094 0.57665 0.0
H1790 H 0.51015 0.59944 0.54816 0.0
H1791 H 0.47874 0.62911 0.61318 0.0
C1792 C 0.61739 0.70974 0.59031 0.0
N1793 N 0.66814 0.74357 0.57525 0.0
C1794 C 0.62344 0.72518 0.56368 0.0
C1795 C 0.63715 0.71176 0.60948 0.0
C1796 C 0.64921 0.74211 0.55643 0.0
C1797 C 0.66269 0.72888 0.60138 0.0
C1798 C 0.54633 0.67045 0.51956 0.0
C1799 C 0.56795 0.68561 0.50119 0.0
C1800 C 0.52177 0.66268 0.50788 0.0
C1801 C 0.56466 0.69326 0.47156 0.0
C1802 C 0.5193 0.67073 0.47813 0.0
N1803 N 0.54062 0.68575 0.46076 0.0
C1804 C 0.58408 0.62468 0.54439 0.0
C1805 C 0.6183 0.66662 0.53367 0.0
C1806 C 0.59536 0.6139 0.52607 0.0
N1807 N 0.59572 0.65056 0.54825 0.0
C1808 C 0.63 0.65666 0.51432 0.0
C1809 C 0.61845 0.62989 0.51016 0.0
H1810 H 0.56569 0.6123 0.55522 0.0
H1811 H 0.62696 0.68713 0.53621 0.0
C1812 C 0.58155 0.74353 0.58533 0.0
N1813 N 0.56393 0.72276 0.56892 0.0
C1814 C 0.58346 0.76747 0.58132 0.0
C1815 C 0.54896 0.74831 0.54362 0.0
C1816 C 0.54792 0.72478 0.5481 0.0
C1817 C 0.5667 0.76994 0.56068 0.0
H1818 H 0.59345 0.74127 0.60254 0.0
H1819 H 0.53342 0.70793 0.53618 0.0
O1820 O 0.554 0.63506 0.60473 0.0
O1821 O 0.53451 0.67216 0.61501 0.0
O1822 O 0.59228 0.6934 0.5983 0.0
O1823 O 0.54905 0.6626 0.54851 0.0
H1824 H 0.52952 0.58507 0.61576 0.0
H1825 H 0.60273 0.65482 0.62141 0.0
H1826 H 0.54968 0.56119 0.63815 0.0
H1827 H 0.62165 0.62981 0.64371 0.0
H1828 H 0.48073 0.70128 0.58613 0.0
H1829 H 0.55152 0.71138 0.65425 0.0
H1830 H 0.49659 0.67034 0.5815 0.0
H1831 H 0.53489 0.74177 0.65736 0.0
H1832 H 0.55357 0.62972 0.7303 0.0
H1833 H 0.59613 0.71304 0.72765 0.0
H1834 H 0.46886 0.55894 0.54413 0.0
H1835 H 0.43637 0.5898 0.60973 0.0
H1836 H 0.60844 0.72402 0.54866 0.0
H1837 H 0.63281 0.70032 0.6305 0.0
H1838 H 0.65416 0.75407 0.53582 0.0
H1839 H 0.67818 0.73057 0.61596 0.0
H1840 H 0.58703 0.69131 0.50966 0.0
H1841 H 0.50485 0.65074 0.52178 0.0
H1842 H 0.58123 0.7051 0.45712 0.0
H1843 H 0.50044 0.66503 0.46885 0.0
H1844 H 0.58584 0.59316 0.52438 0.0
H1845 H 0.64751 0.66987 0.50218 0.0
H1846 H 0.59697 0.78354 0.59547 0.0
H1847 H 0.53555 0.74943 0.52769 0.0
Li1848 Li 0.89615 0.56505 0.12586 0.0
Li1849 Li 0.88468 0.52958 0.08582 0.0
Li1850 Li 0.91475 0.57618 0.07279 0.0
Li1851 Li 0.87 0.5606 0.0805 0.0
C1852 C 0.94299 0.56492 0.11713 0.0
N1853 N 0.99198 0.58667 0.14173 0.0
C1854 C 0.9545 0.54989 0.12168 0.0
C1855 C 0.95637 0.59099 0.12502 0.0
C1856 C 0.97929 0.56125 0.13417 0.0
C1857 C 0.98113 0.60163 0.13744 0.0
C1858 C 0.8363 0.52513 0.11788 0.0
C1859 C 0.79281 0.4962 0.10108 0.0
N1860 N 0.7841 0.50711 0.12203 0.0
C1861 C 0.82692 0.53594 0.13938 0.0
C1862 C 0.81914 0.50503 0.09863 0.0
C1863 C 0.80045 0.52661 0.14107 0.0
C1864 C 0.89119 0.58464 0.18399 0.0
N1865 N 0.90105 0.57139 0.16938 0.0
C1866 C 0.9143 0.56247 0.21808 0.0
C1867 C 0.91249 0.56043 0.18569 0.0
C1868 C 0.90334 0.57508 0.23417 0.0
C1869 C 0.89197 0.58659 0.21656 0.0
H1870 H 0.88188 0.59286 0.17041 0.0
H1871 H 0.91963 0.54945 0.17367 0.0
C1872 C 0.89635 0.49374 0.06108 0.0
N1873 N 0.87985 0.49626 0.08048 0.0
C1874 C 0.89575 0.47025 0.05881 0.0
C1875 C 0.86067 0.45225 0.09588 0.0
C1876 C 0.86209 0.47616 0.09761 0.0
C1877 C 0.87797 0.44917 0.0767 0.0
H1878 H 0.91054 0.51027 0.04818 0.0
H1879 H 0.84951 0.47887 0.11326 0.0
C1880 C 0.90747 0.6175 0.09033 0.0
N1881 N 0.92437 0.66824 0.07523 0.0
C1882 C 0.89806 0.62353 0.0637 0.0
C1883 C 0.92522 0.63728 0.10948 0.0
C1884 C 0.90689 0.6493 0.05643 0.0
C1885 C 0.93362 0.66281 0.10136 0.0
C1886 C 0.87573 0.54647 0.01959 0.0
C1887 C 0.88223 0.56811 0.00125 0.0
C1888 C 0.85894 0.52193 0.00788 0.0
C1889 C 0.87132 0.56486 0.9716 0.0
C1890 C 0.84845 0.51949 0.97812 0.0
N1891 N 0.85478 0.54083 0.96077 0.0
C1892 C 0.95914 0.58412 0.04431 0.0
C1893 C 0.95157 0.61847 0.0338 0.0
C1894 C 0.9812 0.5954 0.02598 0.0
N1895 N 0.94498 0.59583 0.04827 0.0
C1896 C 0.97323 0.63016 0.01445 0.0
C1897 C 0.98837 0.61854 0.01018 0.0
H1898 H 0.95308 0.5657 0.05507 0.0
H1899 H 0.93979 0.6272 0.03644 0.0
C1900 C 0.83784 0.58165 0.08541 0.0
N1901 N 0.84099 0.56403 0.06899 0.0
C1902 C 0.81581 0.58356 0.0814 0.0
C1903 C 0.80047 0.54906 0.04369 0.0
C1904 C 0.82297 0.54802 0.04817 0.0
C1905 C 0.79658 0.56679 0.06075 0.0
H1906 H 0.852 0.59354 0.10261 0.0
H1907 H 0.82531 0.53352 0.03624 0.0
O1908 O 0.91879 0.55413 0.10476 0.0
O1909 O 0.8622 0.53462 0.11507 0.0
O1910 O 0.89871 0.5924 0.09834 0.0
O1911 O 0.88627 0.54916 0.04856 0.0
H1912 H 0.94436 0.52968 0.11558 0.0
H1913 H 0.94775 0.60285 0.12148 0.0
H1914 H 0.98846 0.54987 0.13783 0.0
H1915 H 0.99172 0.62179 0.14365 0.0
H1916 H 0.77932 0.48081 0.08616 0.0
H1917 H 0.83996 0.5516 0.15432 0.0
H1918 H 0.82612 0.4967 0.08155 0.0
H1919 H 0.79293 0.53493 0.15742 0.0
H1920 H 0.92381 0.55378 0.23033 0.0
H1921 H 0.88287 0.59617 0.22771 0.0
H1922 H 0.90976 0.46898 0.04415 0.0
H1923 H 0.84645 0.4365 0.10981 0.0
H1924 H 0.88422 0.60852 0.0487 0.0
H1925 H 0.93234 0.63295 0.1305 0.0
H1926 H 0.89986 0.65423 0.03582 0.0
H1927 H 0.94743 0.67831 0.11592 0.0
H1928 H 0.89562 0.58718 0.00974 0.0
H1929 H 0.85393 0.50499 0.02176 0.0
H1930 H 0.87608 0.58144 0.95717 0.0
H1931 H 0.83527 0.50064 0.96881 0.0
H1932 H 0.99237 0.58582 0.0242 0.0
H1933 H 0.97758 0.64773 0.00239 0.0
H1934 H 0.81325 0.59706 0.09555 0.0
H1935 H 0.78594 0.53565 0.02775 0.0
Li1936 Li 0.33093 0.89621 0.6258 0.0
Li1937 Li 0.35493 0.88474 0.58576 0.0
Li1938 Li 0.33842 0.91483 0.57273 0.0
Li1939 Li 0.30923 0.87008 0.58043 0.0
C1940 C 0.37791 0.94303 0.61714 0.0
N1941 N 0.40516 0.99198 0.64185 0.0
C1942 C 0.40443 0.95449 0.62177 0.0
C1943 C 0.36524 0.95644 0.62499 0.0
C1944 C 0.41787 0.97927 0.63432 0.0
C1945 C 0.37936 0.98117 0.63748 0.0
C1946 C 0.31097 0.83636 0.61782 0.0
C1947 C 0.29637 0.79286 0.60104 0.0
N1948 N 0.27675 0.78417 0.62199 0.0
C1949 C 0.29078 0.82701 0.63933 0.0
C1950 C 0.31388 0.81919 0.59858 0.0
C1951 C 0.27363 0.80055 0.64102 0.0
C1952 C 0.30639 0.89129 0.68393 0.0
N1953 N 0.32949 0.90111 0.66933 0.0
C1954 C 0.35165 0.91432 0.71803 0.0
C1955 C 0.35189 0.9125 0.68564 0.0
C1956 C 0.32809 0.9034 0.73412 0.0
C1957 C 0.30521 0.89206 0.7165 0.0
H1958 H 0.28885 0.88201 0.67035 0.0
H1959 H 0.37 0.91961 0.67363 0.0
C1960 C 0.40243 0.89641 0.56104 0.0
N1961 N 0.38341 0.8799 0.58042 0.0
C1962 C 0.42532 0.8958 0.55877 0.0
C1963 C 0.40822 0.86069 0.59579 0.0
C1964 C 0.38574 0.86212 0.59752 0.0
C1965 C 0.42861 0.878 0.57664 0.0
H1966 H 0.40012 0.91062 0.54816 0.0
H1967 H 0.37044 0.84953 0.61315 0.0
C1968 C 0.28983 0.90758 0.59031 0.0
N1969 N 0.25601 0.92452 0.57528 0.0
C1970 C 0.27437 0.89819 0.5637 0.0
C1971 C 0.28783 0.92533 0.60948 0.0
C1972 C 0.25744 0.90703 0.55646 0.0
C1973 C 0.27071 0.93376 0.6014 0.0
C1974 C 0.32908 0.87578 0.51955 0.0
C1975 C 0.31392 0.88224 0.50119 0.0
C1976 C 0.33685 0.859 0.50786 0.0
C1977 C 0.30625 0.8713 0.47157 0.0
C1978 C 0.32879 0.84847 0.47811 0.0
N1979 N 0.31376 0.85477 0.46075 0.0
C1980 C 0.37487 0.95929 0.54435 0.0
C1981 C 0.33293 0.95159 0.53365 0.0
C1982 C 0.38565 0.98136 0.52602 0.0
N1983 N 0.34899 0.94506 0.54822 0.0
C1984 C 0.34289 0.97324 0.51429 0.0
C1985 C 0.36966 0.98845 0.51012 0.0
H1986 H 0.38726 0.95328 0.55517 0.0
H1987 H 0.31242 0.93974 0.5362 0.0
C1988 C 0.25602 0.83794 0.58534 0.0
N1989 N 0.27679 0.84108 0.56892 0.0
C1990 C 0.23208 0.81592 0.58134 0.0
C1991 C 0.25123 0.80056 0.54363 0.0
C1992 C 0.27477 0.82305 0.54811 0.0
C1993 C 0.22961 0.79668 0.56069 0.0
H1994 H 0.25828 0.8521 0.60254 0.0
H1995 H 0.29161 0.82539 0.53618 0.0
O1996 O 0.3645 0.91885 0.6047 0.0
O1997 O 0.32739 0.86226 0.61501 0.0
O1998 O 0.30616 0.8988 0.59828 0.0
O1999 O 0.33695 0.88635 0.5485 0.0
H2000 H 0.41449 0.94434 0.6157 0.0
H2001 H 0.34477 0.94785 0.62138 0.0
H2002 H 0.43841 0.9884 0.63805 0.0
H2003 H 0.36981 0.99178 0.64366 0.0
H2004 H 0.29826 0.77936 0.58612 0.0
H2005 H 0.28818 0.84006 0.65426 0.0
H2006 H 0.3292 0.82615 0.58149 0.0
H2007 H 0.25779 0.79304 0.65737 0.0
H2008 H 0.36985 0.9238 0.73028 0.0
H2009 H 0.28653 0.883 0.72765 0.0
H2010 H 0.44061 0.90983 0.54413 0.0
H2011 H 0.40974 0.84646 0.6097 0.0
H2012 H 0.27552 0.88434 0.54867 0.0
H2013 H 0.29928 0.93243 0.63049 0.0
H2014 H 0.24547 0.90002 0.53586 0.0
H2015 H 0.26904 0.94756 0.61598 0.0
H2016 H 0.30822 0.89562 0.50967 0.0
H2017 H 0.3488 0.85401 0.52174 0.0
H2018 H 0.29441 0.87602 0.45713 0.0
H2019 H 0.33449 0.83531 0.46882 0.0
H2020 H 0.40639 0.99257 0.52431 0.0
H2021 H 0.32967 0.97754 0.50215 0.0
H2022 H 0.21602 0.81336 0.59549 0.0
H2023 H 0.25011 0.78603 0.5277 0.0
Li2024 Li 0.43457 0.33103 0.12582 0.0
Li2025 Li 0.47002 0.35503 0.08577 0.0
Li2026 Li 0.42343 0.33852 0.07276 0.0
Li2027 Li 0.43899 0.30933 0.08044 0.0
C2028 C 0.43471 0.37799 0.1172 0.0
N2029 N 0.413 0.4052 0.14198 0.0
C2030 C 0.44976 0.4045 0.12188 0.0
C2031 C 0.40863 0.36531 0.12504 0.0
C2032 C 0.43842 0.41793 0.13446 0.0
C2033 C 0.39801 0.37941 0.13756 0.0
C2034 C 0.47445 0.31107 0.11782 0.0
C2035 C 0.50335 0.29647 0.10104 0.0
N2036 N 0.49242 0.27684 0.12198 0.0
C2037 C 0.46361 0.29087 0.13932 0.0
C2038 C 0.49454 0.31398 0.09859 0.0
C2039 C 0.47292 0.27372 0.14101 0.0
C2040 C 0.41493 0.30647 0.18395 0.0
N2041 N 0.42824 0.32958 0.16935 0.0
C2042 C 0.43721 0.35173 0.21806 0.0
C2043 C 0.43925 0.35197 0.18566 0.0
C2044 C 0.42454 0.32817 0.23413 0.0
C2045 C 0.41297 0.30529 0.21651 0.0
H2046 H 0.40666 0.28894 0.17036 0.0
H2047 H 0.45028 0.37008 0.17366 0.0
C2048 C 0.50586 0.40254 0.06106 0.0
N2049 N 0.50335 0.38351 0.08043 0.0
C2050 C 0.52935 0.42542 0.05879 0.0
C2051 C 0.54736 0.40833 0.09581 0.0
C2052 C 0.52345 0.38584 0.09754 0.0
C2053 C 0.55044 0.42872 0.07666 0.0
H2054 H 0.48933 0.40022 0.04817 0.0
H2055 H 0.52075 0.37054 0.11317 0.0
C2056 C 0.38209 0.28992 0.09032 0.0
N2057 N 0.33133 0.25609 0.07527 0.0
C2058 C 0.37604 0.27448 0.0637 0.0
C2059 C 0.36234 0.28791 0.1095 0.0
C2060 C 0.35026 0.25754 0.05645 0.0
C2061 C 0.33679 0.27079 0.10141 0.0
C2062 C 0.45316 0.3292 0.01956 0.0
C2063 C 0.43155 0.31404 0.00119 0.0
C2064 C 0.47772 0.33698 0.00789 0.0
C2065 C 0.43484 0.30639 0.97157 0.0
C2066 C 0.48021 0.32894 0.97814 0.0
N2067 N 0.45889 0.31391 0.96077 0.0
C2068 C 0.41539 0.37498 0.04442 0.0
C2069 C 0.3812 0.33303 0.03363 0.0
C2070 C 0.4041 0.38576 0.0261 0.0
N2071 N 0.40377 0.34909 0.04825 0.0
C2072 C 0.3695 0.34299 0.01428 0.0
C2073 C 0.38104 0.36976 0.01015 0.0
H2074 H 0.43377 0.38737 0.05527 0.0
H2075 H 0.37256 0.31252 0.03615 0.0
C2076 C 0.41792 0.25612 0.08532 0.0
N2077 N 0.43555 0.27689 0.06891 0.0
C2078 C 0.41601 0.23218 0.08131 0.0
C2079 C 0.45052 0.25134 0.04361 0.0
C2080 C 0.45156 0.27488 0.0481 0.0
C2081 C 0.43278 0.22972 0.06066 0.0
H2082 H 0.40603 0.25838 0.10253 0.0
H2083 H 0.46607 0.29172 0.03617 0.0
O2084 O 0.44549 0.3646 0.10473 0.0
O2085 O 0.46498 0.32749 0.11501 0.0
O2086 O 0.4072 0.30625 0.0983 0.0
O2087 O 0.45044 0.33706 0.04851 0.0
H2088 H 0.46998 0.41458 0.11582 0.0
H2089 H 0.39675 0.34484 0.12139 0.0
H2090 H 0.44982 0.43846 0.13823 0.0
H2091 H 0.37784 0.36984 0.14373 0.0
H2092 H 0.51874 0.29835 0.08613 0.0
H2093 H 0.44795 0.28827 0.15425 0.0
H2094 H 0.5029 0.3293 0.08151 0.0
H2095 H 0.46458 0.25787 0.15736 0.0
H2096 H 0.44594 0.36993 0.23031 0.0
H2097 H 0.40335 0.28661 0.22766 0.0
H2098 H 0.53062 0.44072 0.04415 0.0
H2099 H 0.56312 0.40985 0.10973 0.0
H2100 H 0.39103 0.27563 0.04866 0.0
H2101 H 0.36669 0.29935 0.13051 0.0
H2102 H 0.3453 0.24558 0.03584 0.0
H2103 H 0.32131 0.2691 0.11599 0.0
H2104 H 0.41246 0.30833 0.00966 0.0
H2105 H 0.49464 0.34893 0.02179 0.0
H2106 H 0.41828 0.29454 0.95712 0.0
H2107 H 0.49907 0.33464 0.96886 0.0
H2108 H 0.41361 0.4065 0.02442 0.0
H2109 H 0.35201 0.32977 0.00211 0.0
H2110 H 0.40251 0.21611 0.09546 0.0
H2111 H 0.46393 0.25023 0.02767 0.0
loop_
_geom_bond_atom_site_label_1
_geom_bond_atom_site_label_2
_geom_bond_distance
_geom_bond_site_symmetry_2
_ccdc_geom_bond_type
Li0 N17 1.990 . S
Li0 O60 1.956 . S
Li0 O61 1.970 . S
Li0 O62 1.961 . S
Li1 N25 1.990 . S
Li1 O60 1.970 . S
Li1 O61 1.956 . S
Li1 O63 1.961 . S
Li2 N47 1.990 . S
Li2 O60 1.961 . S
Li2 O62 1.956 . S
Li2 O63 1.970 . S
Li3 N53 1.990 . S
Li3 O61 1.961 . S
Li3 O62 1.970 . S
Li3 O63 1.956 . S
C4 C6 1.348 . S
C4 C7 1.356 . S
C4 O60 1.325 . S
N5 C8 1.314 . S
N5 C9 1.279 . S
C6 C4 1.348 . S
C6 C8 1.353 . S
C6 H64 0.929 . S
C7 C4 1.356 . S
C7 C9 1.358 . S
C7 H65 0.930 . S
C8 N5 1.314 . S
C8 C6 1.353 . S
C8 H66 0.930 . S
C9 N5 1.279 . S
C9 C7 1.358 . S
C9 H67 0.930 . S
C10 C13 1.348 . S
C10 C14 1.356 . S
C10 O61 1.325 . S
C11 N12 1.279 . S
C11 C14 1.358 . S
C11 H68 0.930 . S
N12 C11 1.279 . S
N12 C15 1.314 . S
C13 C10 1.348 . S
C13 C15 1.353 . S
C13 H69 0.929 . S
C14 C10 1.356 . S
C14 C11 1.358 . S
C14 H70 0.930 . S
C15 N12 1.314 . S
C15 C13 1.353 . S
C15 H71 0.930 . S
C16 N17 1.314 . S
C16 C21 1.353 . S
C16 H22 0.930 . S
N17 Li0 1.990 . S
N17 C16 1.314 . S
N17 C19 1.279 . S
C18 C19 1.358 . S
C18 C20 1.356 . S
C18 H72 0.930 . S
C19 N17 1.279 . S
C19 C18 1.358 . S
C19 H23 0.930 . S
C20 C18 1.356 . S
C20 C21 1.348 . S
C21 C16 1.353 . S
C21 C20 1.348 . S
C21 H73 0.929 . S
H22 C16 0.930 . S
H23 C19 0.930 . S
C24 N25 1.314 . S
C24 C26 1.353 . S
C24 H30 0.930 . S
N25 Li1 1.990 . S
N25 C24 1.314 . S
N25 C28 1.279 . S
C26 C24 1.353 . S
C26 C29 1.348 . S
C26 H74 0.929 . S
C27 C28 1.358 . S
C27 C29 1.356 . S
C27 H75 0.930 . S
C28 N25 1.279 . S
C28 C27 1.358 . S
C28 H31 0.930 . S
C29 C26 1.348 . S
C29 C27 1.356 . S
H30 C24 0.930 . S
H31 C28 0.930 . S
C32 C34 1.348 1_554 S
C32 C35 1.356 . S
C32 O62 1.325 . S
N33 C36 1.314 . S
N33 C37 1.279 . S
C34 C32 1.348 1_556 S
C34 C36 1.353 . S
C34 H76 0.938 . S
C35 C32 1.356 . S
C35 C37 1.358 1_554 S
C35 H77 0.930 . S
C36 N33 1.314 . S
C36 C34 1.353 . S
C36 H78 0.930 . S
C37 N33 1.279 . S
C37 C35 1.358 1_556 S
C37 H79 0.930 . S
C38 C39 1.348 . S
C38 C40 1.356 . S
C38 O63 1.325 . S
C39 C38 1.348 . S
C39 C41 1.353 . S
C39 H80 0.929 . S
C40 C38 1.356 . S
C40 C42 1.358 . S
C40 H81 0.930 . S
C41 C39 1.353 . S
C41 N43 1.314 . S
C41 H82 0.930 . S
C42 C40 1.358 . S
C42 N43 1.279 . S
C42 H83 0.930 . S
N43 C41 1.314 . S
N43 C42 1.279 . S
C44 C46 1.353 . S
C44 N47 1.314 . S
C44 H50 0.930 . S
C45 N47 1.279 . S
C45 C48 1.358 . S
C45 H51 0.930 . S
C46 C44 1.353 . S
C46 C49 1.348 . S
C46 H84 0.929 . S
N47 Li2 1.990 . S
N47 C44 1.314 . S
N47 C45 1.279 . S
C48 C45 1.358 . S
C48 C49 1.356 . S
C48 H85 0.930 . S
C49 C46 1.348 . S
C49 C48 1.356 . S
H50 C44 0.930 . S
H51 C45 0.930 . S
C52 N53 1.314 . S
C52 C54 1.353 . S
C52 H58 0.930 . S
N53 Li3 1.990 . S
N53 C52 1.314 . S
N53 C56 1.279 . S
C54 C52 1.353 . S
C54 C57 1.348 . S
C54 H86 0.929 1_554 S
C55 C56 1.358 . S
C55 C57 1.356 . S
C55 H87 0.930 1_545 S
C56 N53 1.279 . S
C56 C55 1.358 . S
C56 H59 0.930 . S
C57 C54 1.348 . S
C57 C55 1.356 . S
H58 C52 0.930 . S
H59 C56 0.930 . S
O60 Li0 1.956 . S
O60 Li1 1.970 . S
O60 Li2 1.961 . S
O60 C4 1.325 . S
O61 Li0 1.970 . S
O61 Li1 1.956 . S
O61 Li3 1.961 . S
O61 C10 1.325 . S
O62 Li0 1.961 . S
O62 Li2 1.956 . S
O62 Li3 1.970 . S
O62 C32 1.325 . S
O63 Li1 1.961 . S
O63 Li2 1.970 . S
O63 Li3 1.956 . S
O63 C38 1.325 . S
H64 C6 0.929 . S
H65 C7 0.930 . S
H66 C8 0.930 . S
H67 C9 0.930 . S
H68 C11 0.930 . S
H69 C13 0.929 . S
H70 C14 0.930 . S
H71 C15 0.930 . S
H72 C18 0.930 . S
H73 C21 0.929 . S
H74 C26 0.929 . S
H75 C27 0.930 . S
H76 C34 0.938 . S
H77 C35 0.930 . S
H78 C36 0.930 . S
H79 C37 0.930 . S
H80 C39 0.929 . S
H81 C40 0.930 . S
H82 C41 0.930 . S
H83 C42 0.930 . S
H84 C46 0.929 . S
H85 C48 0.930 . S
H86 C54 0.929 1_556 S
H87 C55 0.930 1_565 S
Li88 N105 1.990 . S
Li88 O148 1.956 . S
Li88 O149 1.970 . S
Li88 O150 1.961 . S
Li89 N113 1.990 . S
Li89 O148 1.970 . S
Li89 O149 1.956 . S
Li89 O151 1.961 . S
Li90 N135 1.990 . S
Li90 O148 1.961 . S
Li90 O150 1.956 . S
Li90 O151 1.970 . S
Li91 N141 1.990 . S
Li91 O149 1.961 . S
Li91 O150 1.970 . S
Li91 O151 1.956 . S
C92 C94 1.348 . S
C92 C95 1.356 . S
C92 O148 1.325 . S
N93 C96 1.314 . S
N93 C97 1.279 . S
C94 C92 1.348 . S
C94 C96 1.353 . S
C94 H152 0.929 . S
C95 C92 1.356 . S
C95 C97 1.358 . S
C95 H153 0.930 . S
C96 N93 1.314 . S
C96 C94 1.353 . S
C96 H154 0.930 . S
C97 N93 1.279 . S
C97 C95 1.358 . S
C97 H155 0.930 . S
C98 C101 1.348 . S
C98 C102 1.356 . S
C98 O149 1.325 . S
C99 N100 1.279 . S
C99 C102 1.358 . S
C99 H156 0.930 . S
N100 C99 1.279 . S
N100 C103 1.314 . S
C101 C98 1.348 . S
C101 C103 1.353 . S
C101 H157 0.929 . S
C102 C98 1.356 . S
C102 C99 1.358 . S
C102 H158 0.930 . S
C103 N100 1.314 . S
C103 C101 1.353 . S
C103 H159 0.930 . S
C104 N105 1.314 . S
C104 C109 1.353 . S
C104 H110 0.930 . S
N105 Li88 1.990 . S
N105 C104 1.314 . S
N105 C107 1.279 . S
C106 C107 1.358 . S
C106 C108 1.356 . S
C106 H160 0.930 . S
C107 N105 1.279 . S
C107 C106 1.358 . S
C107 H111 0.930 . S
C108 C106 1.356 . S
C108 C109 1.348 . S
C109 C104 1.353 . S
C109 C108 1.348 . S
C109 H161 0.929 . S
H110 C104 0.930 . S
H111 C107 0.930 . S
C112 N113 1.314 . S
C112 C114 1.353 . S
C112 H118 0.930 . S
N113 Li89 1.990 . S
N113 C112 1.314 . S
N113 C116 1.279 . S
C114 C112 1.353 . S
C114 C117 1.348 . S
C114 H162 0.929 . S
C115 C116 1.358 . S
C115 C117 1.356 . S
C115 H163 0.930 . S
C116 N113 1.279 . S
C116 C115 1.358 . S
C116 H119 0.930 . S
C117 C114 1.348 . S
C117 C115 1.356 . S
H118 C112 0.930 . S
H119 C116 0.930 . S
C120 C122 1.348 . S
C120 C123 1.356 . S
C120 O150 1.325 . S
N121 C124 1.314 . S
N121 C125 1.279 . S
C122 C120 1.348 . S
C122 C124 1.353 . S
C122 H164 0.929 . S
C123 C120 1.356 . S
C123 C125 1.358 . S
C123 H165 0.930 . S
C124 N121 1.314 . S
C124 C122 1.353 . S
C124 H166 0.930 . S
C125 N121 1.279 . S
C125 C123 1.358 . S
C125 H167 0.930 . S
C126 C127 1.348 . S
C126 C128 1.356 . S
C126 O151 1.325 . S
C127 C126 1.348 . S
C127 C129 1.353 . S
C127 H168 0.929 . S
C128 C126 1.356 . S
C128 C130 1.358 . S
C128 H169 0.930 . S
C129 C127 1.353 . S
C129 N131 1.314 . S
C129 H170 0.930 . S
C130 C128 1.358 . S
C130 N131 1.279 . S
C130 H171 0.930 . S
N131 C129 1.314 . S
N131 C130 1.279 . S
C132 C134 1.353 . S
C132 N135 1.314 . S
C132 H138 0.930 . S
C133 N135 1.279 . S
C133 C136 1.358 . S
C133 H139 0.930 . S
C134 C132 1.353 . S
C134 C137 1.348 . S
C134 H172 0.929 . S
N135 Li90 1.990 . S
N135 C132 1.314 . S
N135 C133 1.279 . S
C136 C133 1.358 . S
C136 C137 1.356 . S
C136 H173 0.930 . S
C137 C134 1.348 . S
C137 C136 1.356 . S
H138 C132 0.930 . S
H139 C133 0.930 . S
C140 N141 1.314 . S
C140 C142 1.353 . S
C140 H146 0.930 . S
N141 Li91 1.990 . S
N141 C140 1.314 . S
N141 C144 1.279 . S
C142 C140 1.353 . S
C142 C145 1.348 . S
C142 H174 0.929 . S
C143 C144 1.358 . S
C143 C145 1.356 . S
C143 H175 0.930 . S
C144 N141 1.279 . S
C144 C143 1.358 . S
C144 H147 0.930 . S
C145 C142 1.348 . S
C145 C143 1.356 . S
H146 C140 0.930 . S
H147 C144 0.930 . S
O148 Li88 1.956 . S
O148 Li89 1.970 . S
O148 Li90 1.961 . S
O148 C92 1.325 . S
O149 Li88 1.970 . S
O149 Li89 1.956 . S
O149 Li91 1.961 . S
O149 C98 1.325 . S
O150 Li88 1.961 . S
O150 Li90 1.956 . S
O150 Li91 1.970 . S
O150 C120 1.325 . S
O151 Li89 1.961 . S
O151 Li90 1.970 . S
O151 Li91 1.956 . S
O151 C126 1.325 . S
H152 C94 0.929 . S
H153 C95 0.930 . S
H154 C96 0.930 . S
H155 C97 0.930 . S
H156 C99 0.930 . S
H157 C101 0.929 . S
H158 C102 0.930 . S
H159 C103 0.930 . S
H160 C106 0.930 . S
H161 C109 0.929 . S
H162 C114 0.929 . S
H163 C115 0.930 . S
H164 C122 0.929 . S
H165 C123 0.930 . S
H166 C124 0.930 . S
H167 C125 0.930 . S
H168 C127 0.929 . S
H169 C128 0.930 . S
H170 C129 0.930 . S
H171 C130 0.930 . S
H172 C134 0.929 . S
H173 C136 0.930 . S
H174 C142 0.929 . S
H175 C143 0.930 . S
Li176 N193 1.990 . S
Li176 O236 1.956 . S
Li176 O237 1.970 . S
Li176 O238 1.961 . S
Li177 N201 1.990 . S
Li177 O236 1.970 . S
Li177 O237 1.956 . S
Li177 O239 1.961 . S
Li178 N223 1.990 . S
Li178 O236 1.961 . S
Li178 O238 1.956 . S
Li178 O239 1.970 . S
Li179 N229 1.990 . S
Li179 O237 1.961 . S
Li179 O238 1.970 . S
Li179 O239 1.956 . S
C180 C182 1.348 . S
C180 C183 1.356 . S
C180 O236 1.325 . S
N181 C184 1.314 . S
N181 C185 1.279 . S
C182 C180 1.348 . S
C182 C184 1.353 . S
C182 H240 0.929 . S
C183 C180 1.356 . S
C183 C185 1.358 . S
C183 H241 0.930 . S
C184 N181 1.314 . S
C184 C182 1.353 . S
C184 H242 0.930 . S
C185 N181 1.279 . S
C185 C183 1.358 . S
C185 H243 0.930 . S
C186 C189 1.348 . S
C186 C190 1.356 . S
C186 O237 1.325 . S
C187 N188 1.279 . S
C187 C190 1.358 . S
C187 H244 0.930 . S
N188 C187 1.279 . S
N188 C191 1.314 . S
C189 C186 1.348 . S
C189 C191 1.353 . S
C189 H245 0.929 . S
C190 C186 1.356 . S
C190 C187 1.358 . S
C190 H246 0.930 . S
C191 N188 1.314 . S
C191 C189 1.353 . S
C191 H247 0.930 . S
C192 N193 1.314 . S
C192 C197 1.353 . S
C192 H198 0.930 . S
N193 Li176 1.990 . S
N193 C192 1.314 . S
N193 C195 1.279 . S
C194 C195 1.358 . S
C194 C196 1.356 . S
C194 H248 0.930 . S
C195 N193 1.279 . S
C195 C194 1.358 . S
C195 H199 0.930 . S
C196 C194 1.356 . S
C196 C197 1.348 . S
C197 C192 1.353 . S
C197 C196 1.348 . S
C197 H249 0.929 . S
H198 C192 0.930 . S
H199 C195 0.930 . S
C200 N201 1.314 . S
C200 C202 1.353 . S
C200 H206 0.930 . S
N201 Li177 1.990 . S
N201 C200 1.314 . S
N201 C204 1.279 . S
C202 C200 1.353 . S
C202 C205 1.348 . S
C202 H250 0.929 . S
C203 C204 1.358 . S
C203 C205 1.356 . S
C203 H251 0.930 . S
C204 N201 1.279 . S
C204 C203 1.358 . S
C204 H207 0.930 . S
C205 C202 1.348 . S
C205 C203 1.356 . S
H206 C200 0.930 . S
H207 C204 0.930 . S
C208 C210 1.348 . S
C208 C211 1.356 . S
C208 O238 1.325 . S
N209 C212 1.314 . S
N209 C213 1.279 . S
C210 C208 1.348 . S
C210 C212 1.353 . S
C210 H252 0.929 . S
C211 C208 1.356 . S
C211 C213 1.358 . S
C211 H253 0.930 . S
C212 N209 1.314 . S
C212 C210 1.353 . S
C212 H254 0.930 . S
C213 N209 1.279 . S
C213 C211 1.358 . S
C213 H255 0.930 . S
C214 C215 1.348 1_554 S
C214 C216 1.356 . S
C214 O239 1.325 . S
C215 C214 1.348 1_556 S
C215 C217 1.353 . S
C215 H256 0.937 . S
C216 C214 1.356 . S
C216 C218 1.358 1_554 S
C216 H257 0.930 . S
C217 C215 1.353 . S
C217 N219 1.314 . S
C217 H258 0.930 . S
C218 C216 1.358 1_556 S
C218 N219 1.279 . S
C218 H259 0.930 . S
N219 C217 1.314 . S
N219 C218 1.279 . S
C220 C222 1.353 . S
C220 N223 1.314 . S
C220 H226 0.930 . S
C221 N223 1.279 . S
C221 C224 1.358 . S
C221 H227 0.930 . S
C222 C220 1.353 . S
C222 C225 1.348 . S
C222 H260 0.929 1_554 S
N223 Li178 1.990 . S
N223 C220 1.314 . S
N223 C221 1.279 . S
C224 C221 1.358 . S
C224 C225 1.356 . S
C224 H261 0.930 1_655 S
C225 C222 1.348 . S
C225 C224 1.356 . S
H226 C220 0.930 . S
H227 C221 0.930 . S
C228 N229 1.314 . S
C228 C230 1.353 . S
C228 H234 0.930 . S
N229 Li179 1.990 . S
N229 C228 1.314 . S
N229 C232 1.279 . S
C230 C228 1.353 . S
C230 C233 1.348 . S
C230 H262 0.929 . S
C231 C232 1.358 . S
C231 C233 1.356 . S
C231 H263 0.930 . S
C232 N229 1.279 . S
C232 C231 1.358 . S
C232 H235 0.930 . S
C233 C230 1.348 . S
C233 C231 1.356 . S
H234 C228 0.930 . S
H235 C232 0.930 . S
O236 Li176 1.956 . S
O236 Li177 1.970 . S
O236 Li178 1.961 . S
O236 C180 1.325 . S
O237 Li176 1.970 . S
O237 Li177 1.956 . S
O237 Li179 1.961 . S
O237 C186 1.325 . S
O238 Li176 1.961 . S
O238 Li178 1.956 . S
O238 Li179 1.970 . S
O238 C208 1.325 . S
O239 Li177 1.961 . S
O239 Li178 1.970 . S
O239 Li179 1.956 . S
O239 C214 1.325 . S
H240 C182 0.929 . S
H241 C183 0.930 . S
H242 C184 0.930 . S
H243 C185 0.930 . S
H244 C187 0.930 . S
H245 C189 0.929 . S
H246 C190 0.930 . S
H247 C191 0.930 . S
H248 C194 0.930 . S
H249 C197 0.929 . S
H250 C202 0.929 . S
H251 C203 0.930 . S
H252 C210 0.929 . S
H253 C211 0.930 . S
H254 C212 0.930 . S
H255 C213 0.930 . S
H256 C215 0.937 . S
H257 C216 0.930 . S
H258 C217 0.930 . S
H259 C218 0.930 . S
H260 C222 0.929 1_556 S
H261 C224 0.930 1_455 S
H262 C230 0.929 . S
H263 C231 0.930 . S
Li264 N281 1.990 . S
Li264 O324 1.956 . S
Li264 O325 1.970 . S
Li264 O326 1.961 . S
Li265 N289 1.990 . S
Li265 O324 1.970 . S
Li265 O325 1.956 . S
Li265 O327 1.961 . S
Li266 N311 1.990 . S
Li266 O324 1.961 . S
Li266 O326 1.956 . S
Li266 O327 1.970 . S
Li267 N317 1.990 . S
Li267 O325 1.961 . S
Li267 O326 1.970 . S
Li267 O327 1.956 . S
C268 C270 1.348 . S
C268 C271 1.356 . S
C268 O324 1.325 . S
N269 C272 1.314 . S
N269 C273 1.279 . S
C270 C268 1.348 . S
C270 C272 1.353 . S
C270 H328 0.929 . S
C271 C268 1.356 . S
C271 C273 1.358 . S
C271 H329 0.930 . S
C272 N269 1.314 . S
C272 C270 1.353 . S
C272 H330 0.930 . S
C273 N269 1.279 . S
C273 C271 1.358 . S
C273 H331 0.930 . S
C274 C277 1.348 . S
C274 C278 1.356 . S
C274 O325 1.325 . S
C275 N276 1.279 . S
C275 C278 1.358 . S
C275 H332 0.930 . S
N276 C275 1.279 . S
N276 C279 1.314 . S
C277 C274 1.348 . S
C277 C279 1.353 . S
C277 H333 0.929 . S
C278 C274 1.356 . S
C278 C275 1.358 . S
C278 H334 0.930 . S
C279 N276 1.314 . S
C279 C277 1.353 . S
C279 H335 0.930 . S
C280 N281 1.314 . S
C280 C285 1.353 . S
C280 H286 0.930 . S
N281 Li264 1.990 . S
N281 C280 1.314 . S
N281 C283 1.279 . S
C282 C283 1.358 . S
C282 C284 1.356 . S
C282 H336 0.930 . S
C283 N281 1.279 . S
C283 C282 1.358 . S
C283 H287 0.930 . S
C284 C282 1.356 . S
C284 C285 1.348 . S
C285 C280 1.353 . S
C285 C284 1.348 . S
C285 H337 0.929 . S
H286 C280 0.930 . S
H287 C283 0.930 . S
C288 N289 1.314 . S
C288 C290 1.353 . S
C288 H294 0.930 . S
N289 Li265 1.990 . S
N289 C288 1.314 . S
N289 C292 1.279 . S
C290 C288 1.353 . S
C290 C293 1.348 . S
C290 H338 0.929 . S
C291 C292 1.358 . S
C291 C293 1.356 . S
C291 H339 0.930 . S
C292 N289 1.279 . S
C292 C291 1.358 . S
C292 H295 0.930 . S
C293 C290 1.348 . S
C293 C291 1.356 . S
H294 C288 0.930 . S
H295 C292 0.930 . S
C296 C298 1.348 . S
C296 C299 1.356 . S
C296 O326 1.325 . S
N297 C300 1.314 . S
N297 C301 1.279 . S
C298 C296 1.348 . S
C298 C300 1.353 . S
C298 H340 0.929 . S
C299 C296 1.356 . S
C299 C301 1.358 . S
C299 H341 0.930 . S
C300 N297 1.314 . S
C300 C298 1.353 . S
C300 H342 0.930 . S
C301 N297 1.279 . S
C301 C299 1.358 . S
C301 H343 0.930 . S
C302 C303 1.348 . S
C302 C304 1.356 . S
C302 O327 1.325 . S
C303 C302 1.348 . S
C303 C305 1.353 . S
C303 H344 0.929 . S
C304 C302 1.356 . S
C304 C306 1.358 . S
C304 H345 0.930 . S
C305 C303 1.353 . S
C305 N307 1.314 . S
C305 H346 0.930 . S
C306 C304 1.358 . S
C306 N307 1.279 . S
C306 H347 0.930 . S
N307 C305 1.314 . S
N307 C306 1.279 . S
C308 C310 1.353 . S
C308 N311 1.314 . S
C308 H314 0.930 . S
C309 N311 1.279 . S
C309 C312 1.358 . S
C309 H315 0.930 . S
C310 C308 1.353 . S
C310 C313 1.348 . S
C310 H348 0.929 . S
N311 Li266 1.990 . S
N311 C308 1.314 . S
N311 C309 1.279 . S
C312 C309 1.358 . S
C312 C313 1.356 . S
C312 H349 0.930 1_565 S
C313 C310 1.348 . S
C313 C312 1.356 . S
H314 C308 0.930 . S
H315 C309 0.930 . S
C316 N317 1.314 . S
C316 C318 1.353 . S
C316 H322 0.930 . S
N317 Li267 1.990 . S
N317 C316 1.314 . S
N317 C320 1.279 . S
C318 C316 1.353 . S
C318 C321 1.348 . S
C318 H350 0.929 . S
C319 C320 1.358 . S
C319 C321 1.356 . S
C319 H351 0.930 . S
C320 N317 1.279 . S
C320 C319 1.358 . S
C320 H323 0.930 . S
C321 C318 1.348 . S
C321 C319 1.356 . S
H322 C316 0.930 . S
H323 C320 0.930 . S
O324 Li264 1.956 . S
O324 Li265 1.970 . S
O324 Li266 1.961 . S
O324 C268 1.325 . S
O325 Li264 1.970 . S
O325 Li265 1.956 . S
O325 Li267 1.961 . S
O325 C274 1.325 . S
O326 Li264 1.961 . S
O326 Li266 1.956 . S
O326 Li267 1.970 . S
O326 C296 1.325 . S
O327 Li265 1.961 . S
O327 Li266 1.970 . S
O327 Li267 1.956 . S
O327 C302 1.325 . S
H328 C270 0.929 . S
H329 C271 0.930 . S
H330 C272 0.930 . S
H331 C273 0.930 . S
H332 C275 0.930 . S
H333 C277 0.929 . S
H334 C278 0.930 . S
H335 C279 0.930 . S
H336 C282 0.930 . S
H337 C285 0.929 . S
H338 C290 0.929 . S
H339 C291 0.930 . S
H340 C298 0.929 . S
H341 C299 0.930 . S
H342 C300 0.930 . S
H343 C301 0.930 . S
H344 C303 0.929 . S
H345 C304 0.930 . S
H346 C305 0.930 . S
H347 C306 0.930 . S
H348 C310 0.929 . S
H349 C312 0.930 1_545 S
H350 C318 0.929 . S
H351 C319 0.930 . S
Li352 N369 1.990 . S
Li352 O412 1.956 . S
Li352 O413 1.970 . S
Li352 O414 1.961 . S
Li353 N377 1.990 . S
Li353 O412 1.970 . S
Li353 O413 1.956 . S
Li353 O415 1.961 . S
Li354 N399 1.990 . S
Li354 O412 1.961 . S
Li354 O414 1.956 . S
Li354 O415 1.970 . S
Li355 N405 1.990 . S
Li355 O413 1.961 . S
Li355 O414 1.970 . S
Li355 O415 1.956 . S
C356 C358 1.348 . S
C356 C359 1.356 . S
C356 O412 1.325 . S
N357 C360 1.314 . S
N357 C361 1.279 . S
C358 C356 1.348 . S
C358 C360 1.353 . S
C358 H416 0.929 . S
C359 C356 1.356 . S
C359 C361 1.358 . S
C359 H417 0.930 . S
C360 N357 1.314 . S
C360 C358 1.353 . S
C360 H418 0.930 . S
C361 N357 1.279 . S
C361 C359 1.358 . S
C361 H419 0.930 . S
C362 C365 1.348 1_554 S
C362 C366 1.356 . S
C362 O413 1.325 . S
C363 N364 1.279 . S
C363 C366 1.358 1_556 S
C363 H420 0.930 . S
N364 C363 1.279 . S
N364 C367 1.314 . S
C365 C362 1.348 1_556 S
C365 C367 1.353 . S
C365 H421 0.937 . S
C366 C362 1.356 . S
C366 C363 1.358 1_554 S
C366 H422 0.930 . S
C367 N364 1.314 . S
C367 C365 1.353 . S
C367 H423 0.930 . S
C368 N369 1.314 . S
C368 C373 1.353 . S
C368 H374 0.930 . S
N369 Li352 1.990 . S
N369 C368 1.314 . S
N369 C371 1.279 . S
C370 C371 1.358 . S
C370 C372 1.356 . S
C370 H424 0.930 . S
C371 N369 1.279 . S
C371 C370 1.358 . S
C371 H375 0.930 . S
C372 C370 1.356 . S
C372 C373 1.348 . S
C373 C368 1.353 . S
C373 C372 1.348 . S
C373 H425 0.929 1_554 S
H374 C368 0.930 . S
H375 C371 0.930 . S
C376 N377 1.314 . S
C376 C378 1.353 . S
C376 H382 0.930 . S
N377 Li353 1.990 . S
N377 C376 1.314 . S
N377 C380 1.279 . S
C378 C376 1.353 . S
C378 C381 1.348 . S
C378 H426 0.929 . S
C379 C380 1.358 . S
C379 C381 1.356 . S
C379 H427 0.930 . S
C380 N377 1.279 . S
C380 C379 1.358 . S
C380 H383 0.930 . S
C381 C378 1.348 . S
C381 C379 1.356 . S
H382 C376 0.930 . S
H383 C380 0.930 . S
C384 C386 1.348 . S
C384 C387 1.356 . S
C384 O414 1.325 . S
N385 C388 1.314 . S
N385 C389 1.279 . S
C386 C384 1.348 . S
C386 C388 1.353 . S
C386 H428 0.929 . S
C387 C384 1.356 . S
C387 C389 1.358 . S
C387 H429 0.930 . S
C388 N385 1.314 . S
C388 C386 1.353 . S
C388 H430 0.930 . S
C389 N385 1.279 . S
C389 C387 1.358 . S
C389 H431 0.930 . S
C390 C391 1.348 . S
C390 C392 1.356 . S
C390 O415 1.325 . S
C391 C390 1.348 . S
C391 C393 1.353 . S
C391 H432 0.929 . S
C392 C390 1.356 . S
C392 C394 1.358 . S
C392 H433 0.930 . S
C393 C391 1.353 . S
C393 N395 1.314 . S
C393 H434 0.930 . S
C394 C392 1.358 . S
C394 N395 1.279 . S
C394 H435 0.930 . S
N395 C393 1.314 . S
N395 C394 1.279 . S
C396 C398 1.353 . S
C396 N399 1.314 . S
C396 H402 0.930 . S
C397 N399 1.279 . S
C397 C400 1.358 . S
C397 H403 0.930 . S
C398 C396 1.353 . S
C398 C401 1.348 . S
C398 H436 0.929 . S
N399 Li354 1.990 . S
N399 C396 1.314 . S
N399 C397 1.279 . S
C400 C397 1.358 . S
C400 C401 1.356 . S
C400 H437 0.930 . S
C401 C398 1.348 . S
C401 C400 1.356 . S
H402 C396 0.930 . S
H403 C397 0.930 . S
C404 N405 1.314 . S
C404 C406 1.353 . S
C404 H410 0.930 . S
N405 Li355 1.990 . S
N405 C404 1.314 . S
N405 C408 1.279 . S
C406 C404 1.353 . S
C406 C409 1.348 . S
C406 H438 0.929 . S
C407 C408 1.358 . S
C407 C409 1.356 . S
C407 H439 0.930 . S
C408 N405 1.279 . S
C408 C407 1.358 . S
C408 H411 0.930 . S
C409 C406 1.348 . S
C409 C407 1.356 . S
H410 C404 0.930 . S
H411 C408 0.930 . S
O412 Li352 1.956 . S
O412 Li353 1.970 . S
O412 Li354 1.961 . S
O412 C356 1.325 . S
O413 Li352 1.970 . S
O413 Li353 1.956 . S
O413 Li355 1.961 . S
O413 C362 1.325 . S
O414 Li352 1.961 . S
O414 Li354 1.956 . S
O414 Li355 1.970 . S
O414 C384 1.325 . S
O415 Li353 1.961 . S
O415 Li354 1.970 . S
O415 Li355 1.956 . S
O415 C390 1.325 . S
H416 C358 0.929 . S
H417 C359 0.930 . S
H418 C360 0.930 . S
H419 C361 0.930 . S
H420 C363 0.930 . S
H421 C365 0.937 . S
H422 C366 0.930 . S
H423 C367 0.930 . S
H424 C370 0.930 . S
H425 C373 0.929 1_556 S
H426 C378 0.929 . S
H427 C379 0.930 . S
H428 C386 0.929 . S
H429 C387 0.930 . S
H430 C388 0.930 . S
H431 C389 0.930 . S
H432 C391 0.929 . S
H433 C392 0.930 . S
H434 C393 0.930 . S
H435 C394 0.930 . S
H436 C398 0.929 . S
H437 C400 0.930 . S
H438 C406 0.929 . S
H439 C407 0.930 . S
Li440 N457 1.990 . S
Li440 O500 1.956 . S
Li440 O501 1.970 . S
Li440 O502 1.961 . S
Li441 N465 1.990 . S
Li441 O500 1.970 . S
Li441 O501 1.956 . S
Li441 O503 1.961 . S
Li442 N487 1.990 . S
Li442 O500 1.961 . S
Li442 O502 1.956 . S
Li442 O503 1.970 . S
Li443 N493 1.990 . S
Li443 O501 1.961 . S
Li443 O502 1.970 . S
Li443 O503 1.956 . S
C444 C446 1.348 . S
C444 C447 1.356 . S
C444 O500 1.325 . S
N445 C448 1.314 . S
N445 C449 1.279 . S
C446 C444 1.348 . S
C446 C448 1.353 . S
C446 H504 0.929 . S
C447 C444 1.356 . S
C447 C449 1.358 . S
C447 H505 0.930 . S
C448 N445 1.314 . S
C448 C446 1.353 . S
C448 H506 0.930 . S
C449 N445 1.279 . S
C449 C447 1.358 . S
C449 H507 0.930 . S
C450 C453 1.348 . S
C450 C454 1.356 . S
C450 O501 1.325 . S
C451 N452 1.279 . S
C451 C454 1.358 . S
C451 H508 0.930 . S
N452 C451 1.279 . S
N452 C455 1.314 . S
C453 C450 1.348 . S
C453 C455 1.353 . S
C453 H509 0.929 . S
C454 C450 1.356 . S
C454 C451 1.358 . S
C454 H510 0.930 . S
C455 N452 1.314 . S
C455 C453 1.353 . S
C455 H511 0.930 . S
C456 N457 1.314 . S
C456 C461 1.353 . S
C456 H462 0.930 . S
N457 Li440 1.990 . S
N457 C456 1.314 . S
N457 C459 1.279 . S
C458 C459 1.358 . S
C458 C460 1.356 . S
C458 H512 0.930 . S
C459 N457 1.279 . S
C459 C458 1.358 . S
C459 H463 0.930 . S
C460 C458 1.356 . S
C460 C461 1.348 . S
C461 C456 1.353 . S
C461 C460 1.348 . S
C461 H513 0.929 . S
H462 C456 0.930 . S
H463 C459 0.930 . S
C464 N465 1.314 . S
C464 C466 1.353 . S
C464 H470 0.930 . S
N465 Li441 1.990 . S
N465 C464 1.314 . S
N465 C468 1.279 . S
C466 C464 1.353 . S
C466 C469 1.348 . S
C466 H514 0.929 . S
C467 C468 1.358 . S
C467 C469 1.356 . S
C467 H515 0.930 . S
C468 N465 1.279 . S
C468 C467 1.358 . S
C468 H471 0.930 . S
C469 C466 1.348 . S
C469 C467 1.356 . S
H470 C464 0.930 . S
H471 C468 0.930 . S
C472 C474 1.348 . S
C472 C475 1.356 . S
C472 O502 1.325 . S
N473 C476 1.314 . S
N473 C477 1.279 . S
C474 C472 1.348 . S
C474 C476 1.353 . S
C474 H516 0.929 . S
C475 C472 1.356 . S
C475 C477 1.358 . S
C475 H517 0.930 . S
C476 N473 1.314 . S
C476 C474 1.353 . S
C476 H518 0.930 . S
C477 N473 1.279 . S
C477 C475 1.358 . S
C477 H519 0.930 . S
C478 C479 1.348 . S
C478 C480 1.356 . S
C478 O503 1.325 . S
C479 C478 1.348 . S
C479 C481 1.353 . S
C479 H520 0.929 . S
C480 C478 1.356 . S
C480 C482 1.358 . S
C480 H521 0.930 . S
C481 C479 1.353 . S
C481 N483 1.314 . S
C481 H522 0.930 . S
C482 C480 1.358 . S
C482 N483 1.279 . S
C482 H523 0.930 . S
N483 C481 1.314 . S
N483 C482 1.279 . S
C484 C486 1.353 . S
C484 N487 1.314 . S
C484 H490 0.930 . S
C485 N487 1.279 . S
C485 C488 1.358 . S
C485 H491 0.930 . S
C486 C484 1.353 . S
C486 C489 1.348 . S
C486 H524 0.929 . S
N487 Li442 1.990 . S
N487 C484 1.314 . S
N487 C485 1.279 . S
C488 C485 1.358 . S
C488 C489 1.356 . S
C488 H525 0.930 . S
C489 C486 1.348 . S
C489 C488 1.356 . S
H490 C484 0.930 . S
H491 C485 0.930 . S
C492 N493 1.314 . S
C492 C494 1.353 . S
C492 H498 0.930 . S
N493 Li443 1.990 . S
N493 C492 1.314 . S
N493 C496 1.279 . S
C494 C492 1.353 . S
C494 C497 1.348 . S
C494 H526 0.929 . S
C495 C496 1.358 . S
C495 C497 1.356 . S
C495 H527 0.930 1_455 S
C496 N493 1.279 . S
C496 C495 1.358 . S
C496 H499 0.930 . S
C497 C494 1.348 . S
C497 C495 1.356 . S
H498 C492 0.930 . S
H499 C496 0.930 . S
O500 Li440 1.956 . S
O500 Li441 1.970 . S
O500 Li442 1.961 . S
O500 C444 1.325 . S
O501 Li440 1.970 . S
O501 Li441 1.956 . S
O501 Li443 1.961 . S
O501 C450 1.325 . S
O502 Li440 1.961 . S
O502 Li442 1.956 . S
O502 Li443 1.970 . S
O502 C472 1.325 . S
O503 Li441 1.961 . S
O503 Li442 1.970 . S
O503 Li443 1.956 . S
O503 C478 1.325 . S
H504 C446 0.929 . S
H505 C447 0.930 . S
H506 C448 0.930 . S
H507 C449 0.930 . S
H508 C451 0.930 . S
H509 C453 0.929 . S
H510 C454 0.930 . S
H511 C455 0.930 . S
H512 C458 0.930 . S
H513 C461 0.929 . S
H514 C466 0.929 . S
H515 C467 0.930 . S
H516 C474 0.929 . S
H517 C475 0.930 . S
H518 C476 0.930 . S
H519 C477 0.930 . S
H520 C479 0.929 . S
H521 C480 0.930 . S
H522 C481 0.930 . S
H523 C482 0.930 . S
H524 C486 0.929 . S
H525 C488 0.930 . S
H526 C494 0.929 . S
H527 C495 0.930 1_655 S
Li528 N545 1.990 . S
Li528 O588 1.956 . S
Li528 O589 1.970 . S
Li528 O590 1.961 . S
Li529 N553 1.990 . S
Li529 O588 1.970 . S
Li529 O589 1.956 . S
Li529 O591 1.961 . S
Li530 N575 1.990 . S
Li530 O588 1.961 . S
Li530 O590 1.956 . S
Li530 O591 1.970 . S
Li531 N581 1.990 . S
Li531 O589 1.961 . S
Li531 O590 1.970 . S
Li531 O591 1.956 . S
C532 C534 1.348 . S
C532 C535 1.356 . S
C532 O588 1.325 . S
N533 C536 1.314 . S
N533 C537 1.279 . S
C534 C532 1.348 . S
C534 C536 1.353 . S
C534 H592 0.929 . S
C535 C532 1.356 . S
C535 C537 1.358 . S
C535 H593 0.930 . S
C536 N533 1.314 . S
C536 C534 1.353 . S
C536 H594 0.930 . S
C537 N533 1.279 . S
C537 C535 1.358 . S
C537 H595 0.930 . S
C538 C541 1.348 . S
C538 C542 1.356 . S
C538 O589 1.325 . S
C539 N540 1.279 . S
C539 C542 1.358 . S
C539 H596 0.930 . S
N540 C539 1.279 . S
N540 C543 1.314 . S
C541 C538 1.348 . S
C541 C543 1.353 . S
C541 H597 0.929 . S
C542 C538 1.356 . S
C542 C539 1.358 . S
C542 H598 0.930 . S
C543 N540 1.314 . S
C543 C541 1.353 . S
C543 H599 0.930 . S
C544 N545 1.314 . S
C544 C549 1.353 . S
C544 H550 0.930 . S
N545 Li528 1.990 . S
N545 C544 1.314 . S
N545 C547 1.279 . S
C546 C547 1.358 . S
C546 C548 1.356 . S
C546 H600 0.930 . S
C547 N545 1.279 . S
C547 C546 1.358 . S
C547 H551 0.930 . S
C548 C546 1.356 . S
C548 C549 1.348 . S
C549 C544 1.353 . S
C549 C548 1.348 . S
C549 H601 0.929 . S
H550 C544 0.930 . S
H551 C547 0.930 . S
C552 N553 1.314 . S
C552 C554 1.353 . S
C552 H558 0.930 . S
N553 Li529 1.990 . S
N553 C552 1.314 . S
N553 C556 1.279 . S
C554 C552 1.353 . S
C554 C557 1.348 . S
C554 H602 0.929 . S
C555 C556 1.358 . S
C555 C557 1.356 . S
C555 H603 0.930 1_655 S
C556 N553 1.279 . S
C556 C555 1.358 . S
C556 H559 0.930 . S
C557 C554 1.348 . S
C557 C555 1.356 . S
H558 C552 0.930 . S
H559 C556 0.930 . S
C560 C562 1.348 . S
C560 C563 1.356 . S
C560 O590 1.325 . S
N561 C564 1.314 . S
N561 C565 1.279 . S
C562 C560 1.348 . S
C562 C564 1.353 . S
C562 H604 0.929 . S
C563 C560 1.356 . S
C563 C565 1.358 . S
C563 H605 0.930 . S
C564 N561 1.314 . S
C564 C562 1.353 . S
C564 H606 0.930 . S
C565 N561 1.279 . S
C565 C563 1.358 . S
C565 H607 0.930 . S
C566 C567 1.348 . S
C566 C568 1.356 . S
C566 O591 1.325 . S
C567 C566 1.348 . S
C567 C569 1.353 . S
C567 H608 0.929 . S
C568 C566 1.356 . S
C568 C570 1.358 . S
C568 H609 0.930 . S
C569 C567 1.353 . S
C569 N571 1.314 . S
C569 H610 0.930 . S
C570 C568 1.358 . S
C570 N571 1.279 . S
C570 H611 0.930 . S
N571 C569 1.314 . S
N571 C570 1.279 . S
C572 C574 1.353 . S
C572 N575 1.314 . S
C572 H578 0.930 . S
C573 N575 1.279 . S
C573 C576 1.358 . S
C573 H579 0.930 . S
C574 C572 1.353 . S
C574 C577 1.348 . S
C574 H612 0.929 . S
N575 Li530 1.990 . S
N575 C572 1.314 . S
N575 C573 1.279 . S
C576 C573 1.358 . S
C576 C577 1.356 . S
C576 H613 0.930 . S
C577 C574 1.348 . S
C577 C576 1.356 . S
H578 C572 0.930 . S
H579 C573 0.930 . S
C580 N581 1.314 . S
C580 C582 1.353 . S
C580 H586 0.930 . S
N581 Li531 1.990 . S
N581 C580 1.314 . S
N581 C584 1.279 . S
C582 C580 1.353 . S
C582 C585 1.348 . S
C582 H614 0.929 . S
C583 C584 1.358 . S
C583 C585 1.356 . S
C583 H615 0.930 . S
C584 N581 1.279 . S
C584 C583 1.358 . S
C584 H587 0.930 . S
C585 C582 1.348 . S
C585 C583 1.356 . S
H586 C580 0.930 . S
H587 C584 0.930 . S
O588 Li528 1.956 . S
O588 Li529 1.970 . S
O588 Li530 1.961 . S
O588 C532 1.325 . S
O589 Li528 1.970 . S
O589 Li529 1.956 . S
O589 Li531 1.961 . S
O589 C538 1.325 . S
O590 Li528 1.961 . S
O590 Li530 1.956 . S
O590 Li531 1.970 . S
O590 C560 1.325 . S
O591 Li529 1.961 . S
O591 Li530 1.970 . S
O591 Li531 1.956 . S
O591 C566 1.325 . S
H592 C534 0.929 . S
H593 C535 0.930 . S
H594 C536 0.930 . S
H595 C537 0.930 . S
H596 C539 0.930 . S
H597 C541 0.929 . S
H598 C542 0.930 . S
H599 C543 0.930 . S
H600 C546 0.930 . S
H601 C549 0.929 . S
H602 C554 0.929 . S
H603 C555 0.930 1_455 S
H604 C562 0.929 . S
H605 C563 0.930 . S
H606 C564 0.930 . S
H607 C565 0.930 . S
H608 C567 0.929 . S
H609 C568 0.930 . S
H610 C569 0.930 . S
H611 C570 0.930 . S
H612 C574 0.929 . S
H613 C576 0.930 . S
H614 C582 0.929 . S
H615 C583 0.930 . S
Li616 N633 1.990 . S
Li616 O676 1.956 . S
Li616 O677 1.970 . S
Li616 O678 1.961 . S
Li617 N641 1.990 . S
Li617 O676 1.970 . S
Li617 O677 1.956 . S
Li617 O679 1.961 . S
Li618 N663 1.990 . S
Li618 O676 1.961 . S
Li618 O678 1.956 . S
Li618 O679 1.970 . S
Li619 N669 1.990 . S
Li619 O677 1.961 . S
Li619 O678 1.970 . S
Li619 O679 1.956 . S
C620 C622 1.348 . S
C620 C623 1.356 . S
C620 O676 1.325 . S
N621 C624 1.314 . S
N621 C625 1.279 . S
C622 C620 1.348 . S
C622 C624 1.353 . S
C622 H680 0.929 . S
C623 C620 1.356 . S
C623 C625 1.358 . S
C623 H681 0.930 . S
C624 N621 1.314 . S
C624 C622 1.353 . S
C624 H682 0.930 . S
C625 N621 1.279 . S
C625 C623 1.358 . S
C625 H683 0.930 . S
C626 C629 1.348 1_556 S
C626 C630 1.356 . S
C626 O677 1.325 . S
C627 N628 1.279 . S
C627 C630 1.358 1_554 S
C627 H684 0.930 . S
N628 C627 1.279 . S
N628 C631 1.314 . S
C629 C626 1.348 1_554 S
C629 C631 1.353 . S
C629 H685 0.937 . S
C630 C626 1.356 . S
C630 C627 1.358 1_556 S
C630 H686 0.930 . S
C631 N628 1.314 . S
C631 C629 1.353 . S
C631 H687 0.930 . S
C632 N633 1.314 . S
C632 C637 1.353 . S
C632 H638 0.930 . S
N633 Li616 1.990 . S
N633 C632 1.314 . S
N633 C635 1.279 . S
C634 C635 1.358 . S
C634 C636 1.356 . S
C634 H688 0.930 1_565 S
C635 N633 1.279 . S
C635 C634 1.358 . S
C635 H639 0.930 . S
C636 C634 1.356 . S
C636 C637 1.348 . S
C637 C632 1.353 . S
C637 C636 1.348 . S
C637 H689 0.929 1_556 S
H638 C632 0.930 . S
H639 C635 0.930 . S
C640 N641 1.314 . S
C640 C642 1.353 . S
C640 H646 0.930 . S
N641 Li617 1.990 . S
N641 C640 1.314 . S
N641 C644 1.279 . S
C642 C640 1.353 . S
C642 C645 1.348 . S
C642 H690 0.929 . S
C643 C644 1.358 . S
C643 C645 1.356 . S
C643 H691 0.930 . S
C644 N641 1.279 . S
C644 C643 1.358 . S
C644 H647 0.930 . S
C645 C642 1.348 . S
C645 C643 1.356 . S
H646 C640 0.930 . S
H647 C644 0.930 . S
C648 C650 1.348 . S
C648 C651 1.356 . S
C648 O678 1.325 . S
N649 C652 1.314 . S
N649 C653 1.279 . S
C650 C648 1.348 . S
C650 C652 1.353 . S
C650 H692 0.929 . S
C651 C648 1.356 . S
C651 C653 1.358 . S
C651 H693 0.930 . S
C652 N649 1.314 . S
C652 C650 1.353 . S
C652 H694 0.930 . S
C653 N649 1.279 . S
C653 C651 1.358 . S
C653 H695 0.930 . S
C654 C655 1.348 . S
C654 C656 1.356 . S
C654 O679 1.325 . S
C655 C654 1.348 . S
C655 C657 1.353 . S
C655 H696 0.929 . S
C656 C654 1.356 . S
C656 C658 1.358 . S
C656 H697 0.930 . S
C657 C655 1.353 . S
C657 N659 1.314 . S
C657 H698 0.930 . S
C658 C656 1.358 . S
C658 N659 1.279 . S
C658 H699 0.930 . S
N659 C657 1.314 . S
N659 C658 1.279 . S
C660 C662 1.353 . S
C660 N663 1.314 . S
C660 H666 0.930 . S
C661 N663 1.279 . S
C661 C664 1.358 . S
C661 H667 0.930 . S
C662 C660 1.353 . S
C662 C665 1.348 . S
C662 H700 0.929 . S
N663 Li618 1.990 . S
N663 C660 1.314 . S
N663 C661 1.279 . S
C664 C661 1.358 . S
C664 C665 1.356 . S
C664 H701 0.930 . S
C665 C662 1.348 . S
C665 C664 1.356 . S
H666 C660 0.930 . S
H667 C661 0.930 . S
C668 N669 1.314 . S
C668 C670 1.353 . S
C668 H674 0.930 . S
N669 Li619 1.990 . S
N669 C668 1.314 . S
N669 C672 1.279 . S
C670 C668 1.353 . S
C670 C673 1.348 . S
C670 H702 0.929 . S
C671 C672 1.358 . S
C671 C673 1.356 . S
C671 H703 0.930 . S
C672 N669 1.279 . S
C672 C671 1.358 . S
C672 H675 0.930 . S
C673 C670 1.348 . S
C673 C671 1.356 . S
H674 C668 0.930 . S
H675 C672 0.930 . S
O676 Li616 1.956 . S
O676 Li617 1.970 . S
O676 Li618 1.961 . S
O676 C620 1.325 . S
O677 Li616 1.970 . S
O677 Li617 1.956 . S
O677 Li619 1.961 . S
O677 C626 1.325 . S
O678 Li616 1.961 . S
O678 Li618 1.956 . S
O678 Li619 1.970 . S
O678 C648 1.325 . S
O679 Li617 1.961 . S
O679 Li618 1.970 . S
O679 Li619 1.956 . S
O679 C654 1.325 . S
H680 C622 0.929 . S
H681 C623 0.930 . S
H682 C624 0.930 . S
H683 C625 0.930 . S
H684 C627 0.930 . S
H685 C629 0.937 . S
H686 C630 0.930 . S
H687 C631 0.930 . S
H688 C634 0.930 1_545 S
H689 C637 0.929 1_554 S
H690 C642 0.929 . S
H691 C643 0.930 . S
H692 C650 0.929 . S
H693 C651 0.930 . S
H694 C652 0.930 . S
H695 C653 0.930 . S
H696 C655 0.929 . S
H697 C656 0.930 . S
H698 C657 0.930 . S
H699 C658 0.930 . S
H700 C662 0.929 . S
H701 C664 0.930 . S
H702 C670 0.929 . S
H703 C671 0.930 . S
Li704 N721 1.990 . S
Li704 O764 1.956 . S
Li704 O765 1.970 . S
Li704 O766 1.961 . S
Li705 N729 1.990 . S
Li705 O764 1.970 . S
Li705 O765 1.956 . S
Li705 O767 1.961 . S
Li706 N751 1.990 . S
Li706 O764 1.961 . S
Li706 O766 1.956 . S
Li706 O767 1.970 . S
Li707 N757 1.990 . S
Li707 O765 1.961 . S
Li707 O766 1.970 . S
Li707 O767 1.956 . S
C708 C710 1.348 . S
C708 C711 1.356 . S
C708 O764 1.325 . S
N709 C712 1.314 . S
N709 C713 1.279 . S
C710 C708 1.348 . S
C710 C712 1.353 . S
C710 H768 0.929 . S
C711 C708 1.356 . S
C711 C713 1.358 . S
C711 H769 0.930 . S
C712 N709 1.314 . S
C712 C710 1.353 . S
C712 H770 0.930 . S
C713 N709 1.279 . S
C713 C711 1.358 . S
C713 H771 0.930 . S
C714 C717 1.348 . S
C714 C718 1.356 . S
C714 O765 1.325 . S
C715 N716 1.279 . S
C715 C718 1.358 . S
C715 H772 0.930 . S
N716 C715 1.279 . S
N716 C719 1.314 . S
C717 C714 1.348 . S
C717 C719 1.353 . S
C717 H773 0.929 . S
C718 C714 1.356 . S
C718 C715 1.358 . S
C718 H774 0.930 . S
C719 N716 1.314 . S
C719 C717 1.353 . S
C719 H775 0.930 . S
C720 N721 1.314 . S
C720 C725 1.353 . S
C720 H726 0.930 . S
N721 Li704 1.990 . S
N721 C720 1.314 . S
N721 C723 1.279 . S
C722 C723 1.358 . S
C722 C724 1.356 . S
C722 H776 0.930 . S
C723 N721 1.279 . S
C723 C722 1.358 . S
C723 H727 0.930 . S
C724 C722 1.356 . S
C724 C725 1.348 . S
C725 C720 1.353 . S
C725 C724 1.348 . S
C725 H777 0.929 . S
H726 C720 0.930 . S
H727 C723 0.930 . S
C728 N729 1.314 . S
C728 C730 1.353 . S
C728 H734 0.930 . S
N729 Li705 1.990 . S
N729 C728 1.314 . S
N729 C732 1.279 . S
C730 C728 1.353 . S
C730 C733 1.348 . S
C730 H778 0.929 . S
C731 C732 1.358 . S
C731 C733 1.356 . S
C731 H779 0.930 . S
C732 N729 1.279 . S
C732 C731 1.358 . S
C732 H735 0.930 . S
C733 C730 1.348 . S
C733 C731 1.356 . S
H734 C728 0.930 . S
H735 C732 0.930 . S
C736 C738 1.348 . S
C736 C739 1.356 . S
C736 O766 1.325 . S
N737 C740 1.314 . S
N737 C741 1.279 . S
C738 C736 1.348 . S
C738 C740 1.353 . S
C738 H780 0.929 . S
C739 C736 1.356 . S
C739 C741 1.358 . S
C739 H781 0.930 . S
C740 N737 1.314 . S
C740 C738 1.353 . S
C740 H782 0.930 . S
C741 N737 1.279 . S
C741 C739 1.358 . S
C741 H783 0.930 . S
C742 C743 1.348 . S
C742 C744 1.356 . S
C742 O767 1.325 . S
C743 C742 1.348 . S
C743 C745 1.353 . S
C743 H784 0.929 . S
C744 C742 1.356 . S
C744 C746 1.358 . S
C744 H785 0.930 . S
C745 C743 1.353 . S
C745 N747 1.314 . S
C745 H786 0.930 . S
C746 C744 1.358 . S
C746 N747 1.279 . S
C746 H787 0.930 . S
N747 C745 1.314 . S
N747 C746 1.279 . S
C748 C750 1.353 . S
C748 N751 1.314 . S
C748 H754 0.930 . S
C749 N751 1.279 . S
C749 C752 1.358 . S
C749 H755 0.930 . S
C750 C748 1.353 . S
C750 C753 1.348 . S
C750 H788 0.929 . S
N751 Li706 1.990 . S
N751 C748 1.314 . S
N751 C749 1.279 . S
C752 C749 1.358 . S
C752 C753 1.356 . S
C752 H789 0.930 . S
C753 C750 1.348 . S
C753 C752 1.356 . S
H754 C748 0.930 . S
H755 C749 0.930 . S
C756 N757 1.314 . S
C756 C758 1.353 . S
C756 H762 0.930 . S
N757 Li707 1.990 . S
N757 C756 1.314 . S
N757 C760 1.279 . S
C758 C756 1.353 . S
C758 C761 1.348 . S
C758 H790 0.929 . S
C759 C760 1.358 . S
C759 C761 1.356 . S
C759 H791 0.930 . S
C760 N757 1.279 . S
C760 C759 1.358 . S
C760 H763 0.930 . S
C761 C758 1.348 . S
C761 C759 1.356 . S
H762 C756 0.930 . S
H763 C760 0.930 . S
O764 Li704 1.956 . S
O764 Li705 1.970 . S
O764 Li706 1.961 . S
O764 C708 1.325 . S
O765 Li704 1.970 . S
O765 Li705 1.956 . S
O765 Li707 1.961 . S
O765 C714 1.325 . S
O766 Li704 1.961 . S
O766 Li706 1.956 . S
O766 Li707 1.970 . S
O766 C736 1.325 . S
O767 Li705 1.961 . S
O767 Li706 1.970 . S
O767 Li707 1.956 . S
O767 C742 1.325 . S
H768 C710 0.929 . S
H769 C711 0.930 . S
H770 C712 0.930 . S
H771 C713 0.930 . S
H772 C715 0.930 . S
H773 C717 0.929 . S
H774 C718 0.930 . S
H775 C719 0.930 . S
H776 C722 0.930 . S
H777 C725 0.929 . S
H778 C730 0.929 . S
H779 C731 0.930 . S
H780 C738 0.929 . S
H781 C739 0.930 . S
H782 C740 0.930 . S
H783 C741 0.930 . S
H784 C743 0.929 . S
H785 C744 0.930 . S
H786 C745 0.930 . S
H787 C746 0.930 . S
H788 C750 0.929 . S
H789 C752 0.930 . S
H790 C758 0.929 . S
H791 C759 0.930 . S
Li792 N809 1.990 . S
Li792 O852 1.956 . S
Li792 O853 1.970 . S
Li792 O854 1.961 . S
Li793 N817 1.990 . S
Li793 O852 1.970 . S
Li793 O853 1.956 . S
Li793 O855 1.961 . S
Li794 N839 1.990 . S
Li794 O852 1.961 . S
Li794 O854 1.956 . S
Li794 O855 1.970 . S
Li795 N845 1.990 . S
Li795 O853 1.961 . S
Li795 O854 1.970 . S
Li795 O855 1.956 . S
C796 C798 1.348 . S
C796 C799 1.356 . S
C796 O852 1.325 . S
N797 C800 1.314 . S
N797 C801 1.279 . S
C798 C796 1.348 . S
C798 C800 1.353 . S
C798 H856 0.929 . S
C799 C796 1.356 . S
C799 C801 1.358 . S
C799 H857 0.930 . S
C800 N797 1.314 . S
C800 C798 1.353 . S
C800 H858 0.930 . S
C801 N797 1.279 . S
C801 C799 1.358 . S
C801 H859 0.930 . S
C802 C805 1.348 1_556 S
C802 C806 1.356 . S
C802 O853 1.325 . S
C803 N804 1.279 . S
C803 C806 1.358 1_554 S
C803 H860 0.930 . S
N804 C803 1.279 . S
N804 C807 1.314 . S
C805 C802 1.348 1_554 S
C805 C807 1.353 . S
C805 H861 0.938 . S
C806 C802 1.356 . S
C806 C803 1.358 1_556 S
C806 H862 0.930 . S
C807 N804 1.314 . S
C807 C805 1.353 . S
C807 H863 0.930 . S
C808 N809 1.314 . S
C808 C813 1.353 . S
C808 H814 0.930 . S
N809 Li792 1.990 . S
N809 C808 1.314 . S
N809 C811 1.279 . S
C810 C811 1.358 . S
C810 C812 1.356 . S
C810 H864 0.930 1_455 S
C811 N809 1.279 . S
C811 C810 1.358 . S
C811 H815 0.930 . S
C812 C810 1.356 . S
C812 C813 1.348 . S
C813 C808 1.353 . S
C813 C812 1.348 . S
C813 H865 0.929 1_556 S
H814 C808 0.930 . S
H815 C811 0.930 . S
C816 N817 1.314 . S
C816 C818 1.353 . S
C816 H822 0.930 . S
N817 Li793 1.990 . S
N817 C816 1.314 . S
N817 C820 1.279 . S
C818 C816 1.353 . S
C818 C821 1.348 . S
C818 H866 0.929 . S
C819 C820 1.358 . S
C819 C821 1.356 . S
C819 H867 0.930 . S
C820 N817 1.279 . S
C820 C819 1.358 . S
C820 H823 0.930 . S
C821 C818 1.348 . S
C821 C819 1.356 . S
H822 C816 0.930 . S
H823 C820 0.930 . S
C824 C826 1.348 . S
C824 C827 1.356 . S
C824 O854 1.325 . S
N825 C828 1.314 . S
N825 C829 1.279 . S
C826 C824 1.348 . S
C826 C828 1.353 . S
C826 H868 0.929 . S
C827 C824 1.356 . S
C827 C829 1.358 . S
C827 H869 0.930 . S
C828 N825 1.314 . S
C828 C826 1.353 . S
C828 H870 0.930 . S
C829 N825 1.279 . S
C829 C827 1.358 . S
C829 H871 0.930 . S
C830 C831 1.348 . S
C830 C832 1.356 . S
C830 O855 1.325 . S
C831 C830 1.348 . S
C831 C833 1.353 . S
C831 H872 0.929 . S
C832 C830 1.356 . S
C832 C834 1.358 . S
C832 H873 0.930 . S
C833 C831 1.353 . S
C833 N835 1.314 . S
C833 H874 0.930 . S
C834 C832 1.358 . S
C834 N835 1.279 . S
C834 H875 0.930 . S
N835 C833 1.314 . S
N835 C834 1.279 . S
C836 C838 1.353 . S
C836 N839 1.314 . S
C836 H842 0.930 . S
C837 N839 1.279 . S
C837 C840 1.358 . S
C837 H843 0.930 . S
C838 C836 1.353 . S
C838 C841 1.348 . S
C838 H876 0.929 . S
N839 Li794 1.990 . S
N839 C836 1.314 . S
N839 C837 1.279 . S
C840 C837 1.358 . S
C840 C841 1.356 . S
C840 H877 0.930 . S
C841 C838 1.348 . S
C841 C840 1.356 . S
H842 C836 0.930 . S
H843 C837 0.930 . S
C844 N845 1.314 . S
C844 C846 1.353 . S
C844 H850 0.930 . S
N845 Li795 1.990 . S
N845 C844 1.314 . S
N845 C848 1.279 . S
C846 C844 1.353 . S
C846 C849 1.348 . S
C846 H878 0.929 . S
C847 C848 1.358 . S
C847 C849 1.356 . S
C847 H879 0.930 . S
C848 N845 1.279 . S
C848 C847 1.358 . S
C848 H851 0.930 . S
C849 C846 1.348 . S
C849 C847 1.356 . S
H850 C844 0.930 . S
H851 C848 0.930 . S
O852 Li792 1.956 . S
O852 Li793 1.970 . S
O852 Li794 1.961 . S
O852 C796 1.325 . S
O853 Li792 1.970 . S
O853 Li793 1.956 . S
O853 Li795 1.961 . S
O853 C802 1.325 . S
O854 Li792 1.961 . S
O854 Li794 1.956 . S
O854 Li795 1.970 . S
O854 C824 1.325 . S
O855 Li793 1.961 . S
O855 Li794 1.970 . S
O855 Li795 1.956 . S
O855 C830 1.325 . S
H856 C798 0.929 . S
H857 C799 0.930 . S
H858 C800 0.930 . S
H859 C801 0.930 . S
H860 C803 0.930 . S
H861 C805 0.938 . S
H862 C806 0.930 . S
H863 C807 0.930 . S
H864 C810 0.930 1_655 S
H865 C813 0.929 1_554 S
H866 C818 0.929 . S
H867 C819 0.930 . S
H868 C826 0.929 . S
H869 C827 0.930 . S
H870 C828 0.930 . S
H871 C829 0.930 . S
H872 C831 0.929 . S
H873 C832 0.930 . S
H874 C833 0.930 . S
H875 C834 0.930 . S
H876 C838 0.929 . S
H877 C840 0.930 . S
H878 C846 0.929 . S
H879 C847 0.930 . S
Li880 N897 1.990 . S
Li880 O940 1.956 . S
Li880 O941 1.970 . S
Li880 O942 1.961 . S
Li881 N905 1.990 . S
Li881 O940 1.970 . S
Li881 O941 1.956 . S
Li881 O943 1.961 . S
Li882 N927 1.990 . S
Li882 O940 1.961 . S
Li882 O942 1.956 . S
Li882 O943 1.970 . S
Li883 N933 1.990 . S
Li883 O941 1.961 . S
Li883 O942 1.970 . S
Li883 O943 1.956 . S
C884 C886 1.348 . S
C884 C887 1.356 . S
C884 O940 1.325 . S
N885 C888 1.314 . S
N885 C889 1.279 . S
C886 C884 1.348 . S
C886 C888 1.353 . S
C886 H944 0.929 . S
C887 C884 1.356 . S
C887 C889 1.358 . S
C887 H945 0.930 . S
C888 N885 1.314 . S
C888 C886 1.353 . S
C888 H946 0.930 . S
C889 N885 1.279 . S
C889 C887 1.358 . S
C889 H947 0.930 . S
C890 C893 1.348 . S
C890 C894 1.356 . S
C890 O941 1.325 . S
C891 N892 1.279 . S
C891 C894 1.358 . S
C891 H948 0.930 . S
N892 C891 1.279 . S
N892 C895 1.314 . S
C893 C890 1.348 . S
C893 C895 1.353 . S
C893 H949 0.929 . S
C894 C890 1.356 . S
C894 C891 1.358 . S
C894 H950 0.930 . S
C895 N892 1.314 . S
C895 C893 1.353 . S
C895 H951 0.930 . S
C896 N897 1.314 . S
C896 C901 1.353 . S
C896 H902 0.930 . S
N897 Li880 1.990 . S
N897 C896 1.314 . S
N897 C899 1.279 . S
C898 C899 1.358 . S
C898 C900 1.356 . S
C898 H952 0.930 . S
C899 N897 1.279 . S
C899 C898 1.358 . S
C899 H903 0.930 . S
C900 C898 1.356 . S
C900 C901 1.348 . S
C901 C896 1.353 . S
C901 C900 1.348 . S
C901 H953 0.929 . S
H902 C896 0.930 . S
H903 C899 0.930 . S
C904 N905 1.314 . S
C904 C906 1.353 . S
C904 H910 0.930 . S
N905 Li881 1.990 . S
N905 C904 1.314 . S
N905 C908 1.279 . S
C906 C904 1.353 . S
C906 C909 1.348 . S
C906 H954 0.929 . S
C907 C908 1.358 . S
C907 C909 1.356 . S
C907 H955 0.930 1_545 S
C908 N905 1.279 . S
C908 C907 1.358 . S
C908 H911 0.930 . S
C909 C906 1.348 . S
C909 C907 1.356 . S
H910 C904 0.930 . S
H911 C908 0.930 . S
C912 C914 1.348 . S
C912 C915 1.356 . S
C912 O942 1.325 . S
N913 C916 1.314 . S
N913 C917 1.279 . S
C914 C912 1.348 . S
C914 C916 1.353 . S
C914 H956 0.929 . S
C915 C912 1.356 . S
C915 C917 1.358 . S
C915 H957 0.930 . S
C916 N913 1.314 . S
C916 C914 1.353 . S
C916 H958 0.930 . S
C917 N913 1.279 . S
C917 C915 1.358 . S
C917 H959 0.930 . S
C918 C919 1.348 . S
C918 C920 1.356 . S
C918 O943 1.325 . S
C919 C918 1.348 . S
C919 C921 1.353 . S
C919 H960 0.929 . S
C920 C918 1.356 . S
C920 C922 1.358 . S
C920 H961 0.930 . S
C921 C919 1.353 . S
C921 N923 1.314 . S
C921 H962 0.930 . S
C922 C920 1.358 . S
C922 N923 1.279 . S
C922 H963 0.930 . S
N923 C921 1.314 . S
N923 C922 1.279 . S
C924 C926 1.353 . S
C924 N927 1.314 . S
C924 H930 0.930 . S
C925 N927 1.279 . S
C925 C928 1.358 . S
C925 H931 0.930 . S
C926 C924 1.353 . S
C926 C929 1.348 . S
C926 H964 0.929 . S
N927 Li882 1.990 . S
N927 C924 1.314 . S
N927 C925 1.279 . S
C928 C925 1.358 . S
C928 C929 1.356 . S
C928 H965 0.930 . S
C929 C926 1.348 . S
C929 C928 1.356 . S
H930 C924 0.930 . S
H931 C925 0.930 . S
C932 N933 1.314 . S
C932 C934 1.353 . S
C932 H938 0.930 . S
N933 Li883 1.990 . S
N933 C932 1.314 . S
N933 C936 1.279 . S
C934 C932 1.353 . S
C934 C937 1.348 . S
C934 H966 0.929 . S
C935 C936 1.358 . S
C935 C937 1.356 . S
C935 H967 0.930 . S
C936 N933 1.279 . S
C936 C935 1.358 . S
C936 H939 0.930 . S
C937 C934 1.348 . S
C937 C935 1.356 . S
H938 C932 0.930 . S
H939 C936 0.930 . S
O940 Li880 1.956 . S
O940 Li881 1.970 . S
O940 Li882 1.961 . S
O940 C884 1.325 . S
O941 Li880 1.970 . S
O941 Li881 1.956 . S
O941 Li883 1.961 . S
O941 C890 1.325 . S
O942 Li880 1.961 . S
O942 Li882 1.956 . S
O942 Li883 1.970 . S
O942 C912 1.325 . S
O943 Li881 1.961 . S
O943 Li882 1.970 . S
O943 Li883 1.956 . S
O943 C918 1.325 . S
H944 C886 0.929 . S
H945 C887 0.930 . S
H946 C888 0.930 . S
H947 C889 0.930 . S
H948 C891 0.930 . S
H949 C893 0.929 . S
H950 C894 0.930 . S
H951 C895 0.930 . S
H952 C898 0.930 . S
H953 C901 0.929 . S
H954 C906 0.929 . S
H955 C907 0.930 1_565 S
H956 C914 0.929 . S
H957 C915 0.930 . S
H958 C916 0.930 . S
H959 C917 0.930 . S
H960 C919 0.929 . S
H961 C920 0.930 . S
H962 C921 0.930 . S
H963 C922 0.930 . S
H964 C926 0.929 . S
H965 C928 0.930 . S
H966 C934 0.929 . S
H967 C935 0.930 . S
Li968 N985 1.990 . S
Li968 O1028 1.956 . S
Li968 O1029 1.970 . S
Li968 O1030 1.961 . S
Li969 N993 1.990 . S
Li969 O1028 1.970 . S
Li969 O1029 1.956 . S
Li969 O1031 1.961 . S
Li970 N1015 1.990 . S
Li970 O1028 1.961 . S
Li970 O1030 1.956 . S
Li970 O1031 1.970 . S
Li971 N1021 1.990 . S
Li971 O1029 1.961 . S
Li971 O1030 1.970 . S
Li971 O1031 1.956 . S
C972 C974 1.348 . S
C972 C975 1.356 . S
C972 O1028 1.325 . S
N973 C976 1.314 . S
N973 C977 1.279 . S
C974 C972 1.348 . S
C974 C976 1.353 . S
C974 H1032 0.929 . S
C975 C972 1.356 . S
C975 C977 1.358 . S
C975 H1033 0.930 . S
C976 N973 1.314 . S
C976 C974 1.353 . S
C976 H1034 0.930 . S
C977 N973 1.279 . S
C977 C975 1.358 . S
C977 H1035 0.930 . S
C978 C981 1.348 1_556 S
C978 C982 1.356 . S
C978 O1029 1.325 . S
C979 N980 1.279 . S
C979 C982 1.358 1_554 S
C979 H1036 0.930 . S
N980 C979 1.279 . S
N980 C983 1.314 . S
C981 C978 1.348 1_554 S
C981 C983 1.353 . S
C981 H1037 0.937 . S
C982 C978 1.356 . S
C982 C979 1.358 1_556 S
C982 H1038 0.930 . S
C983 N980 1.314 . S
C983 C981 1.353 . S
C983 H1039 0.930 . S
C984 N985 1.314 . S
C984 C989 1.353 . S
C984 H990 0.930 . S
N985 Li968 1.990 . S
N985 C984 1.314 . S
N985 C987 1.279 . S
C986 C987 1.358 . S
C986 C988 1.356 . S
C986 H1040 0.930 . S
C987 N985 1.279 . S
C987 C986 1.358 . S
C987 H991 0.930 . S
C988 C986 1.356 . S
C988 C989 1.348 . S
C989 C984 1.353 . S
C989 C988 1.348 . S
C989 H1041 0.929 1_556 S
H990 C984 0.930 . S
H991 C987 0.930 . S
C992 N993 1.314 . S
C992 C994 1.353 . S
C992 H998 0.930 . S
N993 Li969 1.990 . S
N993 C992 1.314 . S
N993 C996 1.279 . S
C994 C992 1.353 . S
C994 C997 1.348 . S
C994 H1042 0.929 . S
C995 C996 1.358 . S
C995 C997 1.356 . S
C995 H1043 0.930 . S
C996 N993 1.279 . S
C996 C995 1.358 . S
C996 H999 0.930 . S
C997 C994 1.348 . S
C997 C995 1.356 . S
H998 C992 0.930 . S
H999 C996 0.930 . S
C1000 C1002 1.348 . S
C1000 C1003 1.356 . S
C1000 O1030 1.325 . S
N1001 C1004 1.314 . S
N1001 C1005 1.279 . S
C1002 C1000 1.348 . S
C1002 C1004 1.353 . S
C1002 H1044 0.929 . S
C1003 C1000 1.356 . S
C1003 C1005 1.358 . S
C1003 H1045 0.930 . S
C1004 N1001 1.314 . S
C1004 C1002 1.353 . S
C1004 H1046 0.930 . S
C1005 N1001 1.279 . S
C1005 C1003 1.358 . S
C1005 H1047 0.930 . S
C1006 C1007 1.348 . S
C1006 C1008 1.356 . S
C1006 O1031 1.325 . S
C1007 C1006 1.348 . S
C1007 C1009 1.353 . S
C1007 H1048 0.929 . S
C1008 C1006 1.356 . S
C1008 C1010 1.358 . S
C1008 H1049 0.930 . S
C1009 C1007 1.353 . S
C1009 N1011 1.314 . S
C1009 H1050 0.930 . S
C1010 C1008 1.358 . S
C1010 N1011 1.279 . S
C1010 H1051 0.930 . S
N1011 C1009 1.314 . S
N1011 C1010 1.279 . S
C1012 C1014 1.353 . S
C1012 N1015 1.314 . S
C1012 H1018 0.930 . S
C1013 N1015 1.279 . S
C1013 C1016 1.358 . S
C1013 H1019 0.930 . S
C1014 C1012 1.353 . S
C1014 C1017 1.348 . S
C1014 H1052 0.929 . S
N1015 Li970 1.990 . S
N1015 C1012 1.314 . S
N1015 C1013 1.279 . S
C1016 C1013 1.358 . S
C1016 C1017 1.356 . S
C1016 H1053 0.930 . S
C1017 C1014 1.348 . S
C1017 C1016 1.356 . S
H1018 C1012 0.930 . S
H1019 C1013 0.930 . S
C1020 N1021 1.314 . S
C1020 C1022 1.353 . S
C1020 H1026 0.930 . S
N1021 Li971 1.990 . S
N1021 C1020 1.314 . S
N1021 C1024 1.279 . S
C1022 C1020 1.353 . S
C1022 C1025 1.348 . S
C1022 H1054 0.929 . S
C1023 C1024 1.358 . S
C1023 C1025 1.356 . S
C1023 H1055 0.930 . S
C1024 N1021 1.279 . S
C1024 C1023 1.358 . S
C1024 H1027 0.930 . S
C1025 C1022 1.348 . S
C1025 C1023 1.356 . S
H1026 C1020 0.930 . S
H1027 C1024 0.930 . S
O1028 Li968 1.956 . S
O1028 Li969 1.970 . S
O1028 Li970 1.961 . S
O1028 C972 1.325 . S
O1029 Li968 1.970 . S
O1029 Li969 1.956 . S
O1029 Li971 1.961 . S
O1029 C978 1.325 . S
O1030 Li968 1.961 . S
O1030 Li970 1.956 . S
O1030 Li971 1.970 . S
O1030 C1000 1.325 . S
O1031 Li969 1.961 . S
O1031 Li970 1.970 . S
O1031 Li971 1.956 . S
O1031 C1006 1.325 . S
H1032 C974 0.929 . S
H1033 C975 0.930 . S
H1034 C976 0.930 . S
H1035 C977 0.930 . S
H1036 C979 0.930 . S
H1037 C981 0.937 . S
H1038 C982 0.930 . S
H1039 C983 0.930 . S
H1040 C986 0.930 . S
H1041 C989 0.929 1_554 S
H1042 C994 0.929 . S
H1043 C995 0.930 . S
H1044 C1002 0.929 . S
H1045 C1003 0.930 . S
H1046 C1004 0.930 . S
H1047 C1005 0.930 . S
H1048 C1007 0.929 . S
H1049 C1008 0.930 . S
H1050 C1009 0.930 . S
H1051 C1010 0.930 . S
H1052 C1014 0.929 . S
H1053 C1016 0.930 . S
H1054 C1022 0.929 . S
H1055 C1023 0.930 . S
Li1056 N1073 1.990 . S
Li1056 O1116 1.956 . S
Li1056 O1117 1.970 . S
Li1056 O1118 1.961 . S
Li1057 N1081 1.990 . S
Li1057 O1116 1.970 . S
Li1057 O1117 1.956 . S
Li1057 O1119 1.961 . S
Li1058 N1103 1.990 . S
Li1058 O1116 1.961 . S
Li1058 O1118 1.956 . S
Li1058 O1119 1.970 . S
Li1059 N1109 1.990 . S
Li1059 O1117 1.961 . S
Li1059 O1118 1.970 . S
Li1059 O1119 1.956 . S
C1060 C1062 1.348 . S
C1060 C1063 1.356 . S
C1060 O1116 1.325 . S
N1061 C1064 1.314 . S
N1061 C1065 1.279 . S
C1062 C1060 1.348 . S
C1062 C1064 1.353 . S
C1062 H1120 0.929 . S
C1063 C1060 1.356 . S
C1063 C1065 1.358 . S
C1063 H1121 0.930 . S
C1064 N1061 1.314 . S
C1064 C1062 1.353 . S
C1064 H1122 0.930 . S
C1065 N1061 1.279 . S
C1065 C1063 1.358 . S
C1065 H1123 0.930 . S
C1066 C1069 1.348 1_556 S
C1066 C1070 1.356 . S
C1066 O1117 1.325 . S
C1067 N1068 1.279 . S
C1067 C1070 1.358 1_554 S
C1067 H1124 0.930 . S
N1068 C1067 1.279 . S
N1068 C1071 1.314 . S
C1069 C1066 1.348 1_554 S
C1069 C1071 1.353 . S
C1069 H1125 0.929 . S
C1070 C1066 1.356 . S
C1070 C1067 1.358 1_556 S
C1070 H1126 0.930 . S
C1071 N1068 1.314 . S
C1071 C1069 1.353 . S
C1071 H1127 0.930 . S
C1072 N1073 1.314 . S
C1072 C1077 1.353 . S
C1072 H1078 0.930 . S
N1073 Li1056 1.990 . S
N1073 C1072 1.314 . S
N1073 C1075 1.279 . S
C1074 C1075 1.358 . S
C1074 C1076 1.356 . S
C1074 H1128 0.930 . S
C1075 N1073 1.279 . S
C1075 C1074 1.358 . S
C1075 H1079 0.930 . S
C1076 C1074 1.356 . S
C1076 C1077 1.348 . S
C1077 C1072 1.353 . S
C1077 C1076 1.348 . S
C1077 H1129 0.929 . S
H1078 C1072 0.930 . S
H1079 C1075 0.930 . S
C1080 N1081 1.314 . S
C1080 C1082 1.353 . S
C1080 H1086 0.930 . S
N1081 Li1057 1.990 . S
N1081 C1080 1.314 . S
N1081 C1084 1.279 . S
C1082 C1080 1.353 . S
C1082 C1085 1.348 . S
C1082 H1130 0.929 . S
C1083 C1084 1.358 . S
C1083 C1085 1.356 . S
C1083 H1131 0.930 . S
C1084 N1081 1.279 . S
C1084 C1083 1.358 . S
C1084 H1087 0.930 . S
C1085 C1082 1.348 . S
C1085 C1083 1.356 . S
H1086 C1080 0.930 . S
H1087 C1084 0.930 . S
C1088 C1090 1.348 . S
C1088 C1091 1.356 . S
C1088 O1118 1.325 . S
N1089 C1092 1.314 . S
N1089 C1093 1.279 . S
C1090 C1088 1.348 . S
C1090 C1092 1.353 . S
C1090 H1132 0.929 . S
C1091 C1088 1.356 . S
C1091 C1093 1.358 . S
C1091 H1133 0.930 . S
C1092 N1089 1.314 . S
C1092 C1090 1.353 . S
C1092 H1134 0.930 . S
C1093 N1089 1.279 . S
C1093 C1091 1.358 . S
C1093 H1135 0.912 1_565 S
C1094 C1095 1.348 . S
C1094 C1096 1.356 . S
C1094 O1119 1.325 . S
C1095 C1094 1.348 . S
C1095 C1097 1.353 . S
C1095 H1136 0.929 . S
C1096 C1094 1.356 . S
C1096 C1098 1.358 . S
C1096 H1137 0.930 . S
C1097 C1095 1.353 . S
C1097 N1099 1.314 . S
C1097 H1138 0.930 . S
C1098 C1096 1.358 . S
C1098 N1099 1.279 . S
C1098 H1139 0.930 . S
N1099 C1097 1.314 . S
N1099 C1098 1.279 . S
C1100 C1102 1.353 . S
C1100 N1103 1.314 . S
C1100 H1106 0.930 . S
C1101 N1103 1.279 . S
C1101 C1104 1.358 . S
C1101 H1107 0.930 . S
C1102 C1100 1.353 . S
C1102 C1105 1.348 . S
C1102 H1140 0.929 . S
N1103 Li1058 1.990 . S
N1103 C1100 1.314 . S
N1103 C1101 1.279 . S
C1104 C1101 1.358 . S
C1104 C1105 1.356 . S
C1104 H1141 0.930 . S
C1105 C1102 1.348 . S
C1105 C1104 1.356 . S
H1106 C1100 0.930 . S
H1107 C1101 0.930 . S
C1108 N1109 1.314 . S
C1108 C1110 1.353 . S
C1108 H1114 0.930 . S
N1109 Li1059 1.990 . S
N1109 C1108 1.314 . S
N1109 C1112 1.279 . S
C1110 C1108 1.353 . S
C1110 C1113 1.348 . S
C1110 H1142 0.929 . S
C1111 C1112 1.358 . S
C1111 C1113 1.356 . S
C1111 H1143 0.930 . S
C1112 N1109 1.279 . S
C1112 C1111 1.358 . S
C1112 H1115 0.930 . S
C1113 C1110 1.348 . S
C1113 C1111 1.356 . S
H1114 C1108 0.930 . S
H1115 C1112 0.930 . S
O1116 Li1056 1.956 . S
O1116 Li1057 1.970 . S
O1116 Li1058 1.961 . S
O1116 C1060 1.325 . S
O1117 Li1056 1.970 . S
O1117 Li1057 1.956 . S
O1117 Li1059 1.961 . S
O1117 C1066 1.325 . S
O1118 Li1056 1.961 . S
O1118 Li1058 1.956 . S
O1118 Li1059 1.970 . S
O1118 C1088 1.325 . S
O1119 Li1057 1.961 . S
O1119 Li1058 1.970 . S
O1119 Li1059 1.956 . S
O1119 C1094 1.325 . S
H1120 C1062 0.929 . S
H1121 C1063 0.930 . S
H1122 C1064 0.930 . S
H1123 C1065 0.930 . S
H1124 C1067 0.930 . S
H1125 C1069 0.929 . S
H1126 C1070 0.930 . S
H1127 C1071 0.930 . S
H1128 C1074 0.930 . S
H1129 C1077 0.929 . S
H1130 C1082 0.929 . S
H1131 C1083 0.930 . S
H1132 C1090 0.929 . S
H1133 C1091 0.930 . S
H1134 C1092 0.930 . S
H1135 C1093 0.912 1_545 S
H1136 C1095 0.929 . S
H1137 C1096 0.930 . S
H1138 C1097 0.930 . S
H1139 C1098 0.930 . S
H1140 C1102 0.929 . S
H1141 C1104 0.930 . S
H1142 C1110 0.929 . S
H1143 C1111 0.930 . S
Li1144 N1161 1.990 . S
Li1144 O1204 1.956 . S
Li1144 O1205 1.970 . S
Li1144 O1206 1.961 . S
Li1145 N1169 1.990 . S
Li1145 O1204 1.970 . S
Li1145 O1205 1.956 . S
Li1145 O1207 1.961 . S
Li1146 N1191 1.990 . S
Li1146 O1204 1.961 . S
Li1146 O1206 1.956 . S
Li1146 O1207 1.970 . S
Li1147 N1197 1.990 . S
Li1147 O1205 1.961 . S
Li1147 O1206 1.970 . S
Li1147 O1207 1.956 . S
C1148 C1150 1.348 . S
C1148 C1151 1.356 . S
C1148 O1204 1.325 . S
N1149 C1152 1.314 . S
N1149 C1153 1.279 . S
C1150 C1148 1.348 . S
C1150 C1152 1.353 . S
C1150 H1208 0.929 . S
C1151 C1148 1.356 . S
C1151 C1153 1.358 . S
C1151 H1209 0.930 . S
C1152 N1149 1.314 . S
C1152 C1150 1.353 . S
C1152 H1210 0.930 . S
C1153 N1149 1.279 . S
C1153 C1151 1.358 . S
C1153 H1211 0.930 . S
C1154 C1157 1.348 . S
C1154 C1158 1.356 . S
C1154 O1205 1.325 . S
C1155 N1156 1.279 . S
C1155 C1158 1.358 . S
C1155 H1212 0.930 . S
N1156 C1155 1.279 . S
N1156 C1159 1.314 . S
C1157 C1154 1.348 . S
C1157 C1159 1.353 . S
C1157 H1213 0.929 . S
C1158 C1154 1.356 . S
C1158 C1155 1.358 . S
C1158 H1214 0.930 . S
C1159 N1156 1.314 . S
C1159 C1157 1.353 . S
C1159 H1215 0.930 . S
C1160 N1161 1.314 . S
C1160 C1165 1.353 . S
C1160 H1166 0.930 . S
N1161 Li1144 1.990 . S
N1161 C1160 1.314 . S
N1161 C1163 1.279 . S
C1162 C1163 1.358 . S
C1162 C1164 1.356 . S
C1162 H1216 0.930 . S
C1163 N1161 1.279 . S
C1163 C1162 1.358 . S
C1163 H1167 0.930 . S
C1164 C1162 1.356 . S
C1164 C1165 1.348 . S
C1165 C1160 1.353 . S
C1165 C1164 1.348 . S
C1165 H1217 0.929 . S
H1166 C1160 0.930 . S
H1167 C1163 0.930 . S
C1168 N1169 1.314 . S
C1168 C1170 1.353 . S
C1168 H1174 0.930 . S
N1169 Li1145 1.990 . S
N1169 C1168 1.314 . S
N1169 C1172 1.279 . S
C1170 C1168 1.353 . S
C1170 C1173 1.348 . S
C1170 H1218 0.929 . S
C1171 C1172 1.358 . S
C1171 C1173 1.356 . S
C1171 H1219 0.930 . S
C1172 N1169 1.279 . S
C1172 C1171 1.358 . S
C1172 H1175 0.930 . S
C1173 C1170 1.348 . S
C1173 C1171 1.356 . S
H1174 C1168 0.930 . S
H1175 C1172 0.930 . S
C1176 C1178 1.348 . S
C1176 C1179 1.356 . S
C1176 O1206 1.325 . S
N1177 C1180 1.314 . S
N1177 C1181 1.279 . S
C1178 C1176 1.348 . S
C1178 C1180 1.353 . S
C1178 H1220 0.929 . S
C1179 C1176 1.356 . S
C1179 C1181 1.358 . S
C1179 H1221 0.930 . S
C1180 N1177 1.314 . S
C1180 C1178 1.353 . S
C1180 H1222 0.930 . S
C1181 N1177 1.279 . S
C1181 C1179 1.358 . S
C1181 H1223 0.930 . S
C1182 C1183 1.348 . S
C1182 C1184 1.356 . S
C1182 O1207 1.325 . S
C1183 C1182 1.348 . S
C1183 C1185 1.353 . S
C1183 H1224 0.929 . S
C1184 C1182 1.356 . S
C1184 C1186 1.358 . S
C1184 H1225 0.930 . S
C1185 C1183 1.353 . S
C1185 N1187 1.314 . S
C1185 H1226 0.930 . S
C1186 C1184 1.358 . S
C1186 N1187 1.279 . S
C1186 H1227 0.930 . S
N1187 C1185 1.314 . S
N1187 C1186 1.279 . S
C1188 C1190 1.353 . S
C1188 N1191 1.314 . S
C1188 H1194 0.930 . S
C1189 N1191 1.279 . S
C1189 C1192 1.358 . S
C1189 H1195 0.930 . S
C1190 C1188 1.353 . S
C1190 C1193 1.348 . S
C1190 H1228 0.929 . S
N1191 Li1146 1.990 . S
N1191 C1188 1.314 . S
N1191 C1189 1.279 . S
C1192 C1189 1.358 . S
C1192 C1193 1.356 . S
C1192 H1229 0.930 . S
C1193 C1190 1.348 . S
C1193 C1192 1.356 . S
H1194 C1188 0.930 . S
H1195 C1189 0.930 . S
C1196 N1197 1.314 . S
C1196 C1198 1.353 . S
C1196 H1202 0.930 . S
N1197 Li1147 1.990 . S
N1197 C1196 1.314 . S
N1197 C1200 1.279 . S
C1198 C1196 1.353 . S
C1198 C1201 1.348 . S
C1198 H1230 0.929 . S
C1199 C1200 1.358 . S
C1199 C1201 1.356 . S
C1199 H1231 0.930 . S
C1200 N1197 1.279 . S
C1200 C1199 1.358 . S
C1200 H1203 0.930 . S
C1201 C1198 1.348 . S
C1201 C1199 1.356 . S
H1202 C1196 0.930 . S
H1203 C1200 0.930 . S
O1204 Li1144 1.956 . S
O1204 Li1145 1.970 . S
O1204 Li1146 1.961 . S
O1204 C1148 1.325 . S
O1205 Li1144 1.970 . S
O1205 Li1145 1.956 . S
O1205 Li1147 1.961 . S
O1205 C1154 1.325 . S
O1206 Li1144 1.961 . S
O1206 Li1146 1.956 . S
O1206 Li1147 1.970 . S
O1206 C1176 1.325 . S
O1207 Li1145 1.961 . S
O1207 Li1146 1.970 . S
O1207 Li1147 1.956 . S
O1207 C1182 1.325 . S
H1208 C1150 0.929 . S
H1209 C1151 0.930 . S
H1210 C1152 0.930 . S
H1211 C1153 0.930 . S
H1212 C1155 0.930 . S
H1213 C1157 0.929 . S
H1214 C1158 0.930 . S
H1215 C1159 0.930 . S
H1216 C1162 0.930 . S
H1217 C1165 0.929 . S
H1218 C1170 0.929 . S
H1219 C1171 0.930 . S
H1220 C1178 0.929 . S
H1221 C1179 0.930 . S
H1222 C1180 0.930 . S
H1223 C1181 0.930 . S
H1224 C1183 0.929 . S
H1225 C1184 0.930 . S
H1226 C1185 0.930 . S
H1227 C1186 0.930 . S
H1228 C1190 0.929 . S
H1229 C1192 0.930 . S
H1230 C1198 0.929 . S
H1231 C1199 0.930 . S
Li1232 N1249 1.990 . S
Li1232 O1292 1.956 . S
Li1232 O1293 1.970 . S
Li1232 O1294 1.961 . S
Li1233 N1257 1.990 . S
Li1233 O1292 1.970 . S
Li1233 O1293 1.956 . S
Li1233 O1295 1.961 . S
Li1234 N1279 1.990 . S
Li1234 O1292 1.961 . S
Li1234 O1294 1.956 . S
Li1234 O1295 1.970 . S
Li1235 N1285 1.990 . S
Li1235 O1293 1.961 . S
Li1235 O1294 1.970 . S
Li1235 O1295 1.956 . S
C1236 C1238 1.348 1_556 S
C1236 C1239 1.356 . S
C1236 O1292 1.325 . S
N1237 C1240 1.314 . S
N1237 C1241 1.279 . S
C1238 C1236 1.348 1_554 S
C1238 C1240 1.353 . S
C1238 H1296 0.929 . S
C1239 C1236 1.356 . S
C1239 C1241 1.358 1_556 S
C1239 H1297 0.930 . S
C1240 N1237 1.314 . S
C1240 C1238 1.353 . S
C1240 H1298 0.930 . S
C1241 N1237 1.279 . S
C1241 C1239 1.358 1_554 S
C1241 H1299 0.930 . S
C1242 C1245 1.348 . S
C1242 C1246 1.356 . S
C1242 O1293 1.325 . S
C1243 N1244 1.279 . S
C1243 C1246 1.358 . S
C1243 H1300 0.930 . S
N1244 C1243 1.279 . S
N1244 C1247 1.314 . S
C1245 C1242 1.348 . S
C1245 C1247 1.353 . S
C1245 H1301 0.929 . S
C1246 C1242 1.356 . S
C1246 C1243 1.358 . S
C1246 H1302 0.930 . S
C1247 N1244 1.314 . S
C1247 C1245 1.353 . S
C1247 H1303 0.930 . S
C1248 N1249 1.314 . S
C1248 C1253 1.353 . S
C1248 H1254 0.930 . S
N1249 Li1232 1.990 . S
N1249 C1248 1.314 . S
N1249 C1251 1.279 . S
C1250 C1251 1.358 . S
C1250 C1252 1.356 . S
C1250 H1304 0.930 . S
C1251 N1249 1.279 . S
C1251 C1250 1.358 . S
C1251 H1255 0.930 . S
C1252 C1250 1.356 . S
C1252 C1253 1.348 . S
C1253 C1248 1.353 . S
C1253 C1252 1.348 . S
C1253 H1305 0.929 . S
H1254 C1248 0.930 . S
H1255 C1251 0.930 . S
C1256 N1257 1.314 . S
C1256 C1258 1.353 . S
C1256 H1262 0.930 . S
N1257 Li1233 1.990 . S
N1257 C1256 1.314 . S
N1257 C1260 1.279 . S
C1258 C1256 1.353 . S
C1258 C1261 1.348 . S
C1258 H1306 0.929 . S
C1259 C1260 1.358 . S
C1259 C1261 1.356 . S
C1259 H1307 0.930 . S
C1260 N1257 1.279 . S
C1260 C1259 1.358 . S
C1260 H1263 0.930 . S
C1261 C1258 1.348 . S
C1261 C1259 1.356 . S
H1262 C1256 0.930 . S
H1263 C1260 0.930 . S
C1264 C1266 1.348 . S
C1264 C1267 1.356 . S
C1264 O1294 1.325 . S
N1265 C1268 1.314 . S
N1265 C1269 1.279 . S
C1266 C1264 1.348 . S
C1266 C1268 1.353 . S
C1266 H1308 0.929 . S
C1267 C1264 1.356 . S
C1267 C1269 1.358 . S
C1267 H1309 0.930 . S
C1268 N1265 1.314 . S
C1268 C1266 1.353 . S
C1268 H1310 0.930 . S
C1269 N1265 1.279 . S
C1269 C1267 1.358 . S
C1269 H1311 0.930 . S
C1270 C1271 1.348 . S
C1270 C1272 1.356 . S
C1270 O1295 1.325 . S
C1271 C1270 1.348 . S
C1271 C1273 1.353 . S
C1271 H1312 0.929 . S
C1272 C1270 1.356 . S
C1272 C1274 1.358 . S
C1272 H1313 0.930 . S
C1273 C1271 1.353 . S
C1273 N1275 1.314 . S
C1273 H1314 0.930 . S
C1274 C1272 1.358 . S
C1274 N1275 1.279 . S
C1274 H1315 0.892 1_455 S
N1275 C1273 1.314 . S
N1275 C1274 1.279 . S
C1276 C1278 1.353 . S
C1276 N1279 1.314 . S
C1276 H1282 0.930 . S
C1277 N1279 1.279 . S
C1277 C1280 1.358 . S
C1277 H1283 0.930 . S
C1278 C1276 1.353 . S
C1278 C1281 1.348 . S
C1278 H1316 0.929 . S
N1279 Li1234 1.990 . S
N1279 C1276 1.314 . S
N1279 C1277 1.279 . S
C1280 C1277 1.358 . S
C1280 C1281 1.356 . S
C1280 H1317 0.930 . S
C1281 C1278 1.348 . S
C1281 C1280 1.356 . S
H1282 C1276 0.930 . S
H1283 C1277 0.930 . S
C1284 N1285 1.314 . S
C1284 C1286 1.353 . S
C1284 H1290 0.930 . S
N1285 Li1235 1.990 . S
N1285 C1284 1.314 . S
N1285 C1288 1.279 . S
C1286 C1284 1.353 . S
C1286 C1289 1.348 . S
C1286 H1318 0.929 . S
C1287 C1288 1.358 . S
C1287 C1289 1.356 . S
C1287 H1319 0.930 . S
C1288 N1285 1.279 . S
C1288 C1287 1.358 . S
C1288 H1291 0.930 . S
C1289 C1286 1.348 . S
C1289 C1287 1.356 . S
H1290 C1284 0.930 . S
H1291 C1288 0.930 . S
O1292 Li1232 1.956 . S
O1292 Li1233 1.970 . S
O1292 Li1234 1.961 . S
O1292 C1236 1.325 . S
O1293 Li1232 1.970 . S
O1293 Li1233 1.956 . S
O1293 Li1235 1.961 . S
O1293 C1242 1.325 . S
O1294 Li1232 1.961 . S
O1294 Li1234 1.956 . S
O1294 Li1235 1.970 . S
O1294 C1264 1.325 . S
O1295 Li1233 1.961 . S
O1295 Li1234 1.970 . S
O1295 Li1235 1.956 . S
O1295 C1270 1.325 . S
H1296 C1238 0.929 . S
H1297 C1239 0.930 . S
H1298 C1240 0.930 . S
H1299 C1241 0.930 . S
H1300 C1243 0.930 . S
H1301 C1245 0.929 . S
H1302 C1246 0.930 . S
H1303 C1247 0.930 . S
H1304 C1250 0.930 . S
H1305 C1253 0.929 . S
H1306 C1258 0.929 . S
H1307 C1259 0.930 . S
H1308 C1266 0.929 . S
H1309 C1267 0.930 . S
H1310 C1268 0.930 . S
H1311 C1269 0.930 . S
H1312 C1271 0.929 . S
H1313 C1272 0.930 . S
H1314 C1273 0.930 . S
H1315 C1274 0.892 1_655 S
H1316 C1278 0.929 . S
H1317 C1280 0.930 . S
H1318 C1286 0.929 . S
H1319 C1287 0.930 . S
Li1320 N1337 1.990 . S
Li1320 O1380 1.956 . S
Li1320 O1381 1.970 . S
Li1320 O1382 1.961 . S
Li1321 N1345 1.990 . S
Li1321 O1380 1.970 . S
Li1321 O1381 1.956 . S
Li1321 O1383 1.961 . S
Li1322 N1367 1.990 . S
Li1322 O1380 1.961 . S
Li1322 O1382 1.956 . S
Li1322 O1383 1.970 . S
Li1323 N1373 1.990 . S
Li1323 O1381 1.961 . S
Li1323 O1382 1.970 . S
Li1323 O1383 1.956 . S
C1324 C1326 1.348 . S
C1324 C1327 1.356 . S
C1324 O1380 1.325 . S
N1325 C1328 1.314 . S
N1325 C1329 1.279 . S
C1326 C1324 1.348 . S
C1326 C1328 1.353 . S
C1326 H1384 0.929 . S
C1327 C1324 1.356 . S
C1327 C1329 1.358 . S
C1327 H1385 0.930 . S
C1328 N1325 1.314 . S
C1328 C1326 1.353 . S
C1328 H1386 0.930 . S
C1329 N1325 1.279 . S
C1329 C1327 1.358 . S
C1329 H1387 0.930 . S
C1330 C1333 1.348 . S
C1330 C1334 1.356 . S
C1330 O1381 1.325 . S
C1331 N1332 1.279 . S
C1331 C1334 1.358 . S
C1331 H1388 0.930 . S
N1332 C1331 1.279 . S
N1332 C1335 1.314 . S
C1333 C1330 1.348 . S
C1333 C1335 1.353 . S
C1333 H1389 0.929 . S
C1334 C1330 1.356 . S
C1334 C1331 1.358 . S
C1334 H1390 0.930 . S
C1335 N1332 1.314 . S
C1335 C1333 1.353 . S
C1335 H1391 0.930 . S
C1336 N1337 1.314 . S
C1336 C1341 1.353 . S
C1336 H1342 0.930 . S
N1337 Li1320 1.990 . S
N1337 C1336 1.314 . S
N1337 C1339 1.279 . S
C1338 C1339 1.358 . S
C1338 C1340 1.356 . S
C1338 H1392 0.930 . S
C1339 N1337 1.279 . S
C1339 C1338 1.358 . S
C1339 H1343 0.930 . S
C1340 C1338 1.356 . S
C1340 C1341 1.348 . S
C1341 C1336 1.353 . S
C1341 C1340 1.348 . S
C1341 H1393 0.929 . S
H1342 C1336 0.930 . S
H1343 C1339 0.930 . S
C1344 N1345 1.314 . S
C1344 C1346 1.353 . S
C1344 H1350 0.930 . S
N1345 Li1321 1.990 . S
N1345 C1344 1.314 . S
N1345 C1348 1.279 . S
C1346 C1344 1.353 . S
C1346 C1349 1.348 . S
C1346 H1394 0.929 . S
C1347 C1348 1.358 . S
C1347 C1349 1.356 . S
C1347 H1395 0.930 . S
C1348 N1345 1.279 . S
C1348 C1347 1.358 . S
C1348 H1351 0.930 . S
C1349 C1346 1.348 . S
C1349 C1347 1.356 . S
H1350 C1344 0.930 . S
H1351 C1348 0.930 . S
C1352 C1354 1.348 . S
C1352 C1355 1.356 . S
C1352 O1382 1.325 . S
N1353 C1356 1.314 . S
N1353 C1357 1.279 . S
C1354 C1352 1.348 . S
C1354 C1356 1.353 . S
C1354 H1396 0.929 . S
C1355 C1352 1.356 . S
C1355 C1357 1.358 . S
C1355 H1397 0.930 . S
C1356 N1353 1.314 . S
C1356 C1354 1.353 . S
C1356 H1398 0.930 . S
C1357 N1353 1.279 . S
C1357 C1355 1.358 . S
C1357 H1399 0.912 1_545 S
C1358 C1359 1.348 . S
C1358 C1360 1.356 . S
C1358 O1383 1.325 . S
C1359 C1358 1.348 . S
C1359 C1361 1.353 . S
C1359 H1400 0.929 . S
C1360 C1358 1.356 . S
C1360 C1362 1.358 . S
C1360 H1401 0.930 . S
C1361 C1359 1.353 . S
C1361 N1363 1.314 . S
C1361 H1402 0.930 . S
C1362 C1360 1.358 . S
C1362 N1363 1.279 . S
C1362 H1403 0.930 . S
N1363 C1361 1.314 . S
N1363 C1362 1.279 . S
C1364 C1366 1.353 . S
C1364 N1367 1.314 . S
C1364 H1370 0.930 . S
C1365 N1367 1.279 . S
C1365 C1368 1.358 . S
C1365 H1371 0.930 . S
C1366 C1364 1.353 . S
C1366 C1369 1.348 . S
C1366 H1404 0.929 . S
N1367 Li1322 1.990 . S
N1367 C1364 1.314 . S
N1367 C1365 1.279 . S
C1368 C1365 1.358 . S
C1368 C1369 1.356 . S
C1368 H1405 0.930 . S
C1369 C1366 1.348 . S
C1369 C1368 1.356 . S
H1370 C1364 0.930 . S
H1371 C1365 0.930 . S
C1372 N1373 1.314 . S
C1372 C1374 1.353 . S
C1372 H1378 0.930 . S
N1373 Li1323 1.990 . S
N1373 C1372 1.314 . S
N1373 C1376 1.279 . S
C1374 C1372 1.353 . S
C1374 C1377 1.348 . S
C1374 H1406 0.929 . S
C1375 C1376 1.358 . S
C1375 C1377 1.356 . S
C1375 H1407 0.930 . S
C1376 N1373 1.279 . S
C1376 C1375 1.358 . S
C1376 H1379 0.930 . S
C1377 C1374 1.348 . S
C1377 C1375 1.356 . S
H1378 C1372 0.930 . S
H1379 C1376 0.930 . S
O1380 Li1320 1.956 . S
O1380 Li1321 1.970 . S
O1380 Li1322 1.961 . S
O1380 C1324 1.325 . S
O1381 Li1320 1.970 . S
O1381 Li1321 1.956 . S
O1381 Li1323 1.961 . S
O1381 C1330 1.325 . S
O1382 Li1320 1.961 . S
O1382 Li1322 1.956 . S
O1382 Li1323 1.970 . S
O1382 C1352 1.325 . S
O1383 Li1321 1.961 . S
O1383 Li1322 1.970 . S
O1383 Li1323 1.956 . S
O1383 C1358 1.325 . S
H1384 C1326 0.929 . S
H1385 C1327 0.930 . S
H1386 C1328 0.930 . S
H1387 C1329 0.930 . S
H1388 C1331 0.930 . S
H1389 C1333 0.929 . S
H1390 C1334 0.930 . S
H1391 C1335 0.930 . S
H1392 C1338 0.930 . S
H1393 C1341 0.929 . S
H1394 C1346 0.929 . S
H1395 C1347 0.930 . S
H1396 C1354 0.929 . S
H1397 C1355 0.930 . S
H1398 C1356 0.930 . S
H1399 C1357 0.912 1_565 S
H1400 C1359 0.929 . S
H1401 C1360 0.930 . S
H1402 C1361 0.930 . S
H1403 C1362 0.930 . S
H1404 C1366 0.929 . S
H1405 C1368 0.930 . S
H1406 C1374 0.929 . S
H1407 C1375 0.930 . S
Li1408 N1425 1.990 . S
Li1408 O1468 1.956 . S
Li1408 O1469 1.970 . S
Li1408 O1470 1.961 . S
Li1409 N1433 1.990 . S
Li1409 O1468 1.970 . S
Li1409 O1469 1.956 . S
Li1409 O1471 1.961 . S
Li1410 N1455 1.990 . S
Li1410 O1468 1.961 . S
Li1410 O1470 1.956 . S
Li1410 O1471 1.970 . S
Li1411 N1461 1.990 . S
Li1411 O1469 1.961 . S
Li1411 O1470 1.970 . S
Li1411 O1471 1.956 . S
C1412 C1414 1.348 1_556 S
C1412 C1415 1.356 . S
C1412 O1468 1.325 . S
N1413 C1416 1.314 . S
N1413 C1417 1.279 . S
C1414 C1412 1.348 1_554 S
C1414 C1416 1.353 . S
C1414 H1472 0.929 . S
C1415 C1412 1.356 . S
C1415 C1417 1.358 1_556 S
C1415 H1473 0.930 . S
C1416 N1413 1.314 . S
C1416 C1414 1.353 . S
C1416 H1474 0.930 . S
C1417 N1413 1.279 . S
C1417 C1415 1.358 1_554 S
C1417 H1475 0.930 . S
C1418 C1421 1.348 . S
C1418 C1422 1.356 . S
C1418 O1469 1.325 . S
C1419 N1420 1.279 . S
C1419 C1422 1.358 . S
C1419 H1476 0.930 . S
N1420 C1419 1.279 . S
N1420 C1423 1.314 . S
C1421 C1418 1.348 . S
C1421 C1423 1.353 . S
C1421 H1477 0.929 . S
C1422 C1418 1.356 . S
C1422 C1419 1.358 . S
C1422 H1478 0.930 . S
C1423 N1420 1.314 . S
C1423 C1421 1.353 . S
C1423 H1479 0.930 . S
C1424 N1425 1.314 . S
C1424 C1429 1.353 . S
C1424 H1430 0.930 . S
N1425 Li1408 1.990 . S
N1425 C1424 1.314 . S
N1425 C1427 1.279 . S
C1426 C1427 1.358 . S
C1426 C1428 1.356 . S
C1426 H1480 0.930 . S
C1427 N1425 1.279 . S
C1427 C1426 1.358 . S
C1427 H1431 0.930 . S
C1428 C1426 1.356 . S
C1428 C1429 1.348 . S
C1429 C1424 1.353 . S
C1429 C1428 1.348 . S
C1429 H1481 0.929 . S
H1430 C1424 0.930 . S
H1431 C1427 0.930 . S
C1432 N1433 1.314 . S
C1432 C1434 1.353 . S
C1432 H1438 0.930 . S
N1433 Li1409 1.990 . S
N1433 C1432 1.314 . S
N1433 C1436 1.279 . S
C1434 C1432 1.353 . S
C1434 C1437 1.348 . S
C1434 H1482 0.929 . S
C1435 C1436 1.358 . S
C1435 C1437 1.356 . S
C1435 H1483 0.930 . S
C1436 N1433 1.279 . S
C1436 C1435 1.358 . S
C1436 H1439 0.930 . S
C1437 C1434 1.348 . S
C1437 C1435 1.356 . S
H1438 C1432 0.930 . S
H1439 C1436 0.930 . S
C1440 C1442 1.348 . S
C1440 C1443 1.356 . S
C1440 O1470 1.325 . S
N1441 C1444 1.314 . S
N1441 C1445 1.279 . S
C1442 C1440 1.348 . S
C1442 C1444 1.353 . S
C1442 H1484 0.929 . S
C1443 C1440 1.356 . S
C1443 C1445 1.358 . S
C1443 H1485 0.930 . S
C1444 N1441 1.314 . S
C1444 C1442 1.353 . S
C1444 H1486 0.930 . S
C1445 N1441 1.279 . S
C1445 C1443 1.358 . S
C1445 H1487 0.930 . S
C1446 C1447 1.348 . S
C1446 C1448 1.356 . S
C1446 O1471 1.325 . S
C1447 C1446 1.348 . S
C1447 C1449 1.353 . S
C1447 H1488 0.929 . S
C1448 C1446 1.356 . S
C1448 C1450 1.358 . S
C1448 H1489 0.930 . S
C1449 C1447 1.353 . S
C1449 N1451 1.314 . S
C1449 H1490 0.930 . S
C1450 C1448 1.358 . S
C1450 N1451 1.279 . S
C1450 H1491 0.930 . S
N1451 C1449 1.314 . S
N1451 C1450 1.279 . S
C1452 C1454 1.353 . S
C1452 N1455 1.314 . S
C1452 H1458 0.930 . S
C1453 N1455 1.279 . S
C1453 C1456 1.358 . S
C1453 H1459 0.930 . S
C1454 C1452 1.353 . S
C1454 C1457 1.348 . S
C1454 H1492 0.929 . S
N1455 Li1410 1.990 . S
N1455 C1452 1.314 . S
N1455 C1453 1.279 . S
C1456 C1453 1.358 . S
C1456 C1457 1.356 . S
C1456 H1493 0.930 . S
C1457 C1454 1.348 . S
C1457 C1456 1.356 . S
H1458 C1452 0.930 . S
H1459 C1453 0.930 . S
C1460 N1461 1.314 . S
C1460 C1462 1.353 . S
C1460 H1466 0.930 . S
N1461 Li1411 1.990 . S
N1461 C1460 1.314 . S
N1461 C1464 1.279 . S
C1462 C1460 1.353 . S
C1462 C1465 1.348 . S
C1462 H1494 0.929 . S
C1463 C1464 1.358 . S
C1463 C1465 1.356 . S
C1463 H1495 0.930 . S
C1464 N1461 1.279 . S
C1464 C1463 1.358 . S
C1464 H1467 0.930 . S
C1465 C1462 1.348 . S
C1465 C1463 1.356 . S
H1466 C1460 0.930 . S
H1467 C1464 0.930 . S
O1468 Li1408 1.956 . S
O1468 Li1409 1.970 . S
O1468 Li1410 1.961 . S
O1468 C1412 1.325 . S
O1469 Li1408 1.970 . S
O1469 Li1409 1.956 . S
O1469 Li1411 1.961 . S
O1469 C1418 1.325 . S
O1470 Li1408 1.961 . S
O1470 Li1410 1.956 . S
O1470 Li1411 1.970 . S
O1470 C1440 1.325 . S
O1471 Li1409 1.961 . S
O1471 Li1410 1.970 . S
O1471 Li1411 1.956 . S
O1471 C1446 1.325 . S
H1472 C1414 0.929 . S
H1473 C1415 0.930 . S
H1474 C1416 0.930 . S
H1475 C1417 0.930 . S
H1476 C1419 0.930 . S
H1477 C1421 0.929 . S
H1478 C1422 0.930 . S
H1479 C1423 0.930 . S
H1480 C1426 0.930 . S
H1481 C1429 0.929 . S
H1482 C1434 0.929 . S
H1483 C1435 0.930 . S
H1484 C1442 0.929 . S
H1485 C1443 0.930 . S
H1486 C1444 0.930 . S
H1487 C1445 0.930 . S
H1488 C1447 0.929 . S
H1489 C1448 0.930 . S
H1490 C1449 0.930 . S
H1491 C1450 0.930 . S
H1492 C1454 0.929 . S
H1493 C1456 0.930 . S
H1494 C1462 0.929 . S
H1495 C1463 0.930 . S
Li1496 N1513 1.990 . S
Li1496 O1556 1.956 . S
Li1496 O1557 1.970 . S
Li1496 O1558 1.961 . S
Li1497 N1521 1.990 . S
Li1497 O1556 1.970 . S
Li1497 O1557 1.956 . S
Li1497 O1559 1.961 . S
Li1498 N1543 1.990 . S
Li1498 O1556 1.961 . S
Li1498 O1558 1.956 . S
Li1498 O1559 1.970 . S
Li1499 N1549 1.990 . S
Li1499 O1557 1.961 . S
Li1499 O1558 1.970 . S
Li1499 O1559 1.956 . S
C1500 C1502 1.348 . S
C1500 C1503 1.356 . S
C1500 O1556 1.325 . S
N1501 C1504 1.314 . S
N1501 C1505 1.279 . S
C1502 C1500 1.348 . S
C1502 C1504 1.353 . S
C1502 H1560 0.929 . S
C1503 C1500 1.356 . S
C1503 C1505 1.358 . S
C1503 H1561 0.930 . S
C1504 N1501 1.314 . S
C1504 C1502 1.353 . S
C1504 H1562 0.930 . S
C1505 N1501 1.279 . S
C1505 C1503 1.358 . S
C1505 H1563 0.930 . S
C1506 C1509 1.348 . S
C1506 C1510 1.356 . S
C1506 O1557 1.325 . S
C1507 N1508 1.279 . S
C1507 C1510 1.358 . S
C1507 H1564 0.930 . S
N1508 C1507 1.279 . S
N1508 C1511 1.314 . S
C1509 C1506 1.348 . S
C1509 C1511 1.353 . S
C1509 H1565 0.929 . S
C1510 C1506 1.356 . S
C1510 C1507 1.358 . S
C1510 H1566 0.930 . S
C1511 N1508 1.314 . S
C1511 C1509 1.353 . S
C1511 H1567 0.930 . S
C1512 N1513 1.314 . S
C1512 C1517 1.353 . S
C1512 H1518 0.930 . S
N1513 Li1496 1.990 . S
N1513 C1512 1.314 . S
N1513 C1515 1.279 . S
C1514 C1515 1.358 . S
C1514 C1516 1.356 . S
C1514 H1568 0.930 . S
C1515 N1513 1.279 . S
C1515 C1514 1.358 . S
C1515 H1519 0.930 . S
C1516 C1514 1.356 . S
C1516 C1517 1.348 . S
C1517 C1512 1.353 . S
C1517 C1516 1.348 . S
C1517 H1569 0.929 . S
H1518 C1512 0.930 . S
H1519 C1515 0.930 . S
C1520 N1521 1.314 . S
C1520 C1522 1.353 . S
C1520 H1526 0.930 . S
N1521 Li1497 1.990 . S
N1521 C1520 1.314 . S
N1521 C1524 1.279 . S
C1522 C1520 1.353 . S
C1522 C1525 1.348 . S
C1522 H1570 0.929 . S
C1523 C1524 1.358 . S
C1523 C1525 1.356 . S
C1523 H1571 0.930 . S
C1524 N1521 1.279 . S
C1524 C1523 1.358 . S
C1524 H1527 0.930 . S
C1525 C1522 1.348 . S
C1525 C1523 1.356 . S
H1526 C1520 0.930 . S
H1527 C1524 0.930 . S
C1528 C1530 1.348 . S
C1528 C1531 1.356 . S
C1528 O1558 1.325 . S
N1529 C1532 1.314 . S
N1529 C1533 1.279 . S
C1530 C1528 1.348 . S
C1530 C1532 1.353 . S
C1530 H1572 0.929 . S
C1531 C1528 1.356 . S
C1531 C1533 1.358 . S
C1531 H1573 0.930 . S
C1532 N1529 1.314 . S
C1532 C1530 1.353 . S
C1532 H1574 0.930 . S
C1533 N1529 1.279 . S
C1533 C1531 1.358 . S
C1533 H1575 0.930 . S
C1534 C1535 1.348 . S
C1534 C1536 1.356 . S
C1534 O1559 1.325 . S
C1535 C1534 1.348 . S
C1535 C1537 1.353 . S
C1535 H1576 0.929 . S
C1536 C1534 1.356 . S
C1536 C1538 1.358 . S
C1536 H1577 0.930 . S
C1537 C1535 1.353 . S
C1537 N1539 1.314 . S
C1537 H1578 0.930 . S
C1538 C1536 1.358 . S
C1538 N1539 1.279 . S
C1538 H1579 0.892 1_655 S
N1539 C1537 1.314 . S
N1539 C1538 1.279 . S
C1540 C1542 1.353 . S
C1540 N1543 1.314 . S
C1540 H1546 0.930 . S
C1541 N1543 1.279 . S
C1541 C1544 1.358 . S
C1541 H1547 0.930 . S
C1542 C1540 1.353 . S
C1542 C1545 1.348 . S
C1542 H1580 0.929 . S
N1543 Li1498 1.990 . S
N1543 C1540 1.314 . S
N1543 C1541 1.279 . S
C1544 C1541 1.358 . S
C1544 C1545 1.356 . S
C1544 H1581 0.930 . S
C1545 C1542 1.348 . S
C1545 C1544 1.356 . S
H1546 C1540 0.930 . S
H1547 C1541 0.930 . S
C1548 N1549 1.314 . S
C1548 C1550 1.353 . S
C1548 H1554 0.930 . S
N1549 Li1499 1.990 . S
N1549 C1548 1.314 . S
N1549 C1552 1.279 . S
C1550 C1548 1.353 . S
C1550 C1553 1.348 . S
C1550 H1582 0.929 . S
C1551 C1552 1.358 . S
C1551 C1553 1.356 . S
C1551 H1583 0.930 . S
C1552 N1549 1.279 . S
C1552 C1551 1.358 . S
C1552 H1555 0.930 . S
C1553 C1550 1.348 . S
C1553 C1551 1.356 . S
H1554 C1548 0.930 . S
H1555 C1552 0.930 . S
O1556 Li1496 1.956 . S
O1556 Li1497 1.970 . S
O1556 Li1498 1.961 . S
O1556 C1500 1.325 . S
O1557 Li1496 1.970 . S
O1557 Li1497 1.956 . S
O1557 Li1499 1.961 . S
O1557 C1506 1.325 . S
O1558 Li1496 1.961 . S
O1558 Li1498 1.956 . S
O1558 Li1499 1.970 . S
O1558 C1528 1.325 . S
O1559 Li1497 1.961 . S
O1559 Li1498 1.970 . S
O1559 Li1499 1.956 . S
O1559 C1534 1.325 . S
H1560 C1502 0.929 . S
H1561 C1503 0.930 . S
H1562 C1504 0.930 . S
H1563 C1505 0.930 . S
H1564 C1507 0.930 . S
H1565 C1509 0.929 . S
H1566 C1510 0.930 . S
H1567 C1511 0.930 . S
H1568 C1514 0.930 . S
H1569 C1517 0.929 . S
H1570 C1522 0.929 . S
H1571 C1523 0.930 . S
H1572 C1530 0.929 . S
H1573 C1531 0.930 . S
H1574 C1532 0.930 . S
H1575 C1533 0.930 . S
H1576 C1535 0.929 . S
H1577 C1536 0.930 . S
H1578 C1537 0.930 . S
H1579 C1538 0.892 1_455 S
H1580 C1542 0.929 . S
H1581 C1544 0.930 . S
H1582 C1550 0.929 . S
H1583 C1551 0.930 . S
Li1584 N1601 1.990 . S
Li1584 O1644 1.956 . S
Li1584 O1645 1.970 . S
Li1584 O1646 1.961 . S
Li1585 N1609 1.990 . S
Li1585 O1644 1.970 . S
Li1585 O1645 1.956 . S
Li1585 O1647 1.961 . S
Li1586 N1631 1.990 . S
Li1586 O1644 1.961 . S
Li1586 O1646 1.956 . S
Li1586 O1647 1.970 . S
Li1587 N1637 1.990 . S
Li1587 O1645 1.961 . S
Li1587 O1646 1.970 . S
Li1587 O1647 1.956 . S
C1588 C1590 1.348 . S
C1588 C1591 1.356 . S
C1588 O1644 1.325 . S
N1589 C1592 1.314 . S
N1589 C1593 1.279 . S
C1590 C1588 1.348 . S
C1590 C1592 1.353 . S
C1590 H1648 0.929 . S
C1591 C1588 1.356 . S
C1591 C1593 1.358 . S
C1591 H1649 0.930 . S
C1592 N1589 1.314 . S
C1592 C1590 1.353 . S
C1592 H1650 0.930 . S
C1593 N1589 1.279 . S
C1593 C1591 1.358 . S
C1593 H1651 0.930 . S
C1594 C1597 1.348 . S
C1594 C1598 1.356 . S
C1594 O1645 1.325 . S
C1595 N1596 1.279 . S
C1595 C1598 1.358 . S
C1595 H1652 0.912 1_455 S
N1596 C1595 1.279 . S
N1596 C1599 1.314 . S
C1597 C1594 1.348 . S
C1597 C1599 1.353 . S
C1597 H1653 0.929 . S
C1598 C1594 1.356 . S
C1598 C1595 1.358 . S
C1598 H1654 0.930 . S
C1599 N1596 1.314 . S
C1599 C1597 1.353 . S
C1599 H1655 0.930 . S
C1600 N1601 1.314 . S
C1600 C1605 1.353 . S
C1600 H1606 0.930 . S
N1601 Li1584 1.990 . S
N1601 C1600 1.314 . S
N1601 C1603 1.279 . S
C1602 C1603 1.358 . S
C1602 C1604 1.356 . S
C1602 H1656 0.930 . S
C1603 N1601 1.279 . S
C1603 C1602 1.358 . S
C1603 H1607 0.930 . S
C1604 C1602 1.356 . S
C1604 C1605 1.348 . S
C1605 C1600 1.353 . S
C1605 C1604 1.348 . S
C1605 H1657 0.929 . S
H1606 C1600 0.930 . S
H1607 C1603 0.930 . S
C1608 N1609 1.314 . S
C1608 C1610 1.353 . S
C1608 H1614 0.930 . S
N1609 Li1585 1.990 . S
N1609 C1608 1.314 . S
N1609 C1612 1.279 . S
C1610 C1608 1.353 . S
C1610 C1613 1.348 . S
C1610 H1658 0.929 . S
C1611 C1612 1.358 . S
C1611 C1613 1.356 . S
C1611 H1659 0.930 . S
C1612 N1609 1.279 . S
C1612 C1611 1.358 . S
C1612 H1615 0.930 . S
C1613 C1610 1.348 . S
C1613 C1611 1.356 . S
H1614 C1608 0.930 . S
H1615 C1612 0.930 . S
C1616 C1618 1.348 . S
C1616 C1619 1.356 . S
C1616 O1646 1.325 . S
N1617 C1620 1.314 . S
N1617 C1621 1.279 . S
C1618 C1616 1.348 . S
C1618 C1620 1.353 . S
C1618 H1660 0.929 . S
C1619 C1616 1.356 . S
C1619 C1621 1.358 . S
C1619 H1661 0.930 . S
C1620 N1617 1.314 . S
C1620 C1618 1.353 . S
C1620 H1662 0.930 . S
C1621 N1617 1.279 . S
C1621 C1619 1.358 . S
C1621 H1663 0.930 . S
C1622 C1623 1.348 . S
C1622 C1624 1.356 . S
C1622 O1647 1.325 . S
C1623 C1622 1.348 . S
C1623 C1625 1.353 . S
C1623 H1664 0.929 . S
C1624 C1622 1.356 . S
C1624 C1626 1.358 . S
C1624 H1665 0.930 . S
C1625 C1623 1.353 . S
C1625 N1627 1.314 . S
C1625 H1666 0.930 . S
C1626 C1624 1.358 . S
C1626 N1627 1.279 . S
C1626 H1667 0.930 . S
N1627 C1625 1.314 . S
N1627 C1626 1.279 . S
C1628 C1630 1.353 . S
C1628 N1631 1.314 . S
C1628 H1634 0.930 . S
C1629 N1631 1.279 . S
C1629 C1632 1.358 . S
C1629 H1635 0.930 . S
C1630 C1628 1.353 . S
C1630 C1633 1.348 . S
C1630 H1668 0.929 . S
N1631 Li1586 1.990 . S
N1631 C1628 1.314 . S
N1631 C1629 1.279 . S
C1632 C1629 1.358 . S
C1632 C1633 1.356 . S
C1632 H1669 0.930 . S
C1633 C1630 1.348 . S
C1633 C1632 1.356 . S
H1634 C1628 0.930 . S
H1635 C1629 0.930 . S
C1636 N1637 1.314 . S
C1636 C1638 1.353 . S
C1636 H1642 0.930 . S
N1637 Li1587 1.990 . S
N1637 C1636 1.314 . S
N1637 C1640 1.279 . S
C1638 C1636 1.353 . S
C1638 C1641 1.348 . S
C1638 H1670 0.929 . S
C1639 C1640 1.358 . S
C1639 C1641 1.356 . S
C1639 H1671 0.930 . S
C1640 N1637 1.279 . S
C1640 C1639 1.358 . S
C1640 H1643 0.930 . S
C1641 C1638 1.348 . S
C1641 C1639 1.356 . S
H1642 C1636 0.930 . S
H1643 C1640 0.930 . S
O1644 Li1584 1.956 . S
O1644 Li1585 1.970 . S
O1644 Li1586 1.961 . S
O1644 C1588 1.325 . S
O1645 Li1584 1.970 . S
O1645 Li1585 1.956 . S
O1645 Li1587 1.961 . S
O1645 C1594 1.325 . S
O1646 Li1584 1.961 . S
O1646 Li1586 1.956 . S
O1646 Li1587 1.970 . S
O1646 C1616 1.325 . S
O1647 Li1585 1.961 . S
O1647 Li1586 1.970 . S
O1647 Li1587 1.956 . S
O1647 C1622 1.325 . S
H1648 C1590 0.929 . S
H1649 C1591 0.930 . S
H1650 C1592 0.930 . S
H1651 C1593 0.930 . S
H1652 C1595 0.912 1_655 S
H1653 C1597 0.929 . S
H1654 C1598 0.930 . S
H1655 C1599 0.930 . S
H1656 C1602 0.930 . S
H1657 C1605 0.929 . S
H1658 C1610 0.929 . S
H1659 C1611 0.930 . S
H1660 C1618 0.929 . S
H1661 C1619 0.930 . S
H1662 C1620 0.930 . S
H1663 C1621 0.930 . S
H1664 C1623 0.929 . S
H1665 C1624 0.930 . S
H1666 C1625 0.930 . S
H1667 C1626 0.930 . S
H1668 C1630 0.929 . S
H1669 C1632 0.930 . S
H1670 C1638 0.929 . S
H1671 C1639 0.930 . S
Li1672 N1689 1.990 . S
Li1672 O1732 1.956 . S
Li1672 O1733 1.970 . S
Li1672 O1734 1.961 . S
Li1673 N1697 1.990 . S
Li1673 O1732 1.970 . S
Li1673 O1733 1.956 . S
Li1673 O1735 1.961 . S
Li1674 N1719 1.990 . S
Li1674 O1732 1.961 . S
Li1674 O1734 1.956 . S
Li1674 O1735 1.970 . S
Li1675 N1725 1.990 . S
Li1675 O1733 1.961 . S
Li1675 O1734 1.970 . S
Li1675 O1735 1.956 . S
C1676 C1678 1.348 . S
C1676 C1679 1.356 . S
C1676 O1732 1.325 . S
N1677 C1680 1.314 . S
N1677 C1681 1.279 . S
C1678 C1676 1.348 . S
C1678 C1680 1.353 . S
C1678 H1736 0.929 . S
C1679 C1676 1.356 . S
C1679 C1681 1.358 . S
C1679 H1737 0.930 . S
C1680 N1677 1.314 . S
C1680 C1678 1.353 . S
C1680 H1738 0.930 . S
C1681 N1677 1.279 . S
C1681 C1679 1.358 . S
C1681 H1739 0.930 . S
C1682 C1685 1.348 . S
C1682 C1686 1.356 . S
C1682 O1733 1.325 . S
C1683 N1684 1.279 . S
C1683 C1686 1.358 . S
C1683 H1740 0.892 1_545 S
N1684 C1683 1.279 . S
N1684 C1687 1.314 . S
C1685 C1682 1.348 . S
C1685 C1687 1.353 . S
C1685 H1741 0.929 . S
C1686 C1682 1.356 . S
C1686 C1683 1.358 . S
C1686 H1742 0.930 . S
C1687 N1684 1.314 . S
C1687 C1685 1.353 . S
C1687 H1743 0.930 . S
C1688 N1689 1.314 . S
C1688 C1693 1.353 . S
C1688 H1694 0.930 . S
N1689 Li1672 1.990 . S
N1689 C1688 1.314 . S
N1689 C1691 1.279 . S
C1690 C1691 1.358 . S
C1690 C1692 1.356 . S
C1690 H1744 0.930 . S
C1691 N1689 1.279 . S
C1691 C1690 1.358 . S
C1691 H1695 0.930 . S
C1692 C1690 1.356 . S
C1692 C1693 1.348 . S
C1693 C1688 1.353 . S
C1693 C1692 1.348 . S
C1693 H1745 0.929 . S
H1694 C1688 0.930 . S
H1695 C1691 0.930 . S
C1696 N1697 1.314 . S
C1696 C1698 1.353 . S
C1696 H1702 0.930 . S
N1697 Li1673 1.990 . S
N1697 C1696 1.314 . S
N1697 C1700 1.279 . S
C1698 C1696 1.353 . S
C1698 C1701 1.348 . S
C1698 H1746 0.929 . S
C1699 C1700 1.358 . S
C1699 C1701 1.356 . S
C1699 H1747 0.930 . S
C1700 N1697 1.279 . S
C1700 C1699 1.358 . S
C1700 H1703 0.930 . S
C1701 C1698 1.348 . S
C1701 C1699 1.356 . S
H1702 C1696 0.930 . S
H1703 C1700 0.930 . S
C1704 C1706 1.348 1_554 S
C1704 C1707 1.356 . S
C1704 O1734 1.325 . S
N1705 C1708 1.314 . S
N1705 C1709 1.279 . S
C1706 C1704 1.348 1_556 S
C1706 C1708 1.353 . S
C1706 H1748 0.929 . S
C1707 C1704 1.356 . S
C1707 C1709 1.358 1_554 S
C1707 H1749 0.930 . S
C1708 N1705 1.314 . S
C1708 C1706 1.353 . S
C1708 H1750 0.930 . S
C1709 N1705 1.279 . S
C1709 C1707 1.358 1_556 S
C1709 H1751 0.930 . S
C1710 C1711 1.348 . S
C1710 C1712 1.356 . S
C1710 O1735 1.325 . S
C1711 C1710 1.348 . S
C1711 C1713 1.353 . S
C1711 H1752 0.929 . S
C1712 C1710 1.356 . S
C1712 C1714 1.358 . S
C1712 H1753 0.930 . S
C1713 C1711 1.353 . S
C1713 N1715 1.314 . S
C1713 H1754 0.930 . S
C1714 C1712 1.358 . S
C1714 N1715 1.279 . S
C1714 H1755 0.930 . S
N1715 C1713 1.314 . S
N1715 C1714 1.279 . S
C1716 C1718 1.353 . S
C1716 N1719 1.314 . S
C1716 H1722 0.930 . S
C1717 N1719 1.279 . S
C1717 C1720 1.358 . S
C1717 H1723 0.930 . S
C1718 C1716 1.353 . S
C1718 C1721 1.348 . S
C1718 H1756 0.929 . S
N1719 Li1674 1.990 . S
N1719 C1716 1.314 . S
N1719 C1717 1.279 . S
C1720 C1717 1.358 . S
C1720 C1721 1.356 . S
C1720 H1757 0.930 . S
C1721 C1718 1.348 . S
C1721 C1720 1.356 . S
H1722 C1716 0.930 . S
H1723 C1717 0.930 . S
C1724 N1725 1.314 . S
C1724 C1726 1.353 . S
C1724 H1730 0.930 . S
N1725 Li1675 1.990 . S
N1725 C1724 1.314 . S
N1725 C1728 1.279 . S
C1726 C1724 1.353 . S
C1726 C1729 1.348 . S
C1726 H1758 0.929 . S
C1727 C1728 1.358 . S
C1727 C1729 1.356 . S
C1727 H1759 0.930 . S
C1728 N1725 1.279 . S
C1728 C1727 1.358 . S
C1728 H1731 0.930 . S
C1729 C1726 1.348 . S
C1729 C1727 1.356 . S
H1730 C1724 0.930 . S
H1731 C1728 0.930 . S
O1732 Li1672 1.956 . S
O1732 Li1673 1.970 . S
O1732 Li1674 1.961 . S
O1732 C1676 1.325 . S
O1733 Li1672 1.970 . S
O1733 Li1673 1.956 . S
O1733 Li1675 1.961 . S
O1733 C1682 1.325 . S
O1734 Li1672 1.961 . S
O1734 Li1674 1.956 . S
O1734 Li1675 1.970 . S
O1734 C1704 1.325 . S
O1735 Li1673 1.961 . S
O1735 Li1674 1.970 . S
O1735 Li1675 1.956 . S
O1735 C1710 1.325 . S
H1736 C1678 0.929 . S
H1737 C1679 0.930 . S
H1738 C1680 0.930 . S
H1739 C1681 0.930 . S
H1740 C1683 0.892 1_565 S
H1741 C1685 0.929 . S
H1742 C1686 0.930 . S
H1743 C1687 0.930 . S
H1744 C1690 0.930 . S
H1745 C1693 0.929 . S
H1746 C1698 0.929 . S
H1747 C1699 0.930 . S
H1748 C1706 0.929 . S
H1749 C1707 0.930 . S
H1750 C1708 0.930 . S
H1751 C1709 0.930 . S
H1752 C1711 0.929 . S
H1753 C1712 0.930 . S
H1754 C1713 0.930 . S
H1755 C1714 0.930 . S
H1756 C1718 0.929 . S
H1757 C1720 0.930 . S
H1758 C1726 0.929 . S
H1759 C1727 0.930 . S
Li1760 N1777 1.990 . S
Li1760 O1820 1.956 . S
Li1760 O1821 1.970 . S
Li1760 O1822 1.961 . S
Li1761 N1785 1.990 . S
Li1761 O1820 1.970 . S
Li1761 O1821 1.956 . S
Li1761 O1823 1.961 . S
Li1762 N1807 1.990 . S
Li1762 O1820 1.961 . S
Li1762 O1822 1.956 . S
Li1762 O1823 1.970 . S
Li1763 N1813 1.990 . S
Li1763 O1821 1.961 . S
Li1763 O1822 1.970 . S
Li1763 O1823 1.956 . S
C1764 C1766 1.348 . S
C1764 C1767 1.356 . S
C1764 O1820 1.325 . S
N1765 C1768 1.314 . S
N1765 C1769 1.279 . S
C1766 C1764 1.348 . S
C1766 C1768 1.353 . S
C1766 H1824 0.929 . S
C1767 C1764 1.356 . S
C1767 C1769 1.358 . S
C1767 H1825 0.930 . S
C1768 N1765 1.314 . S
C1768 C1766 1.353 . S
C1768 H1826 0.930 . S
C1769 N1765 1.279 . S
C1769 C1767 1.358 . S
C1769 H1827 0.930 . S
C1770 C1773 1.348 . S
C1770 C1774 1.356 . S
C1770 O1821 1.325 . S
C1771 N1772 1.279 . S
C1771 C1774 1.358 . S
C1771 H1828 0.930 . S
N1772 C1771 1.279 . S
N1772 C1775 1.314 . S
C1773 C1770 1.348 . S
C1773 C1775 1.353 . S
C1773 H1829 0.929 . S
C1774 C1770 1.356 . S
C1774 C1771 1.358 . S
C1774 H1830 0.930 . S
C1775 N1772 1.314 . S
C1775 C1773 1.353 . S
C1775 H1831 0.930 . S
C1776 N1777 1.314 . S
C1776 C1781 1.353 . S
C1776 H1782 0.930 . S
N1777 Li1760 1.990 . S
N1777 C1776 1.314 . S
N1777 C1779 1.279 . S
C1778 C1779 1.358 . S
C1778 C1780 1.356 . S
C1778 H1832 0.930 . S
C1779 N1777 1.279 . S
C1779 C1778 1.358 . S
C1779 H1783 0.930 . S
C1780 C1778 1.356 . S
C1780 C1781 1.348 . S
C1781 C1776 1.353 . S
C1781 C1780 1.348 . S
C1781 H1833 0.929 . S
H1782 C1776 0.930 . S
H1783 C1779 0.930 . S
C1784 N1785 1.314 . S
C1784 C1786 1.353 . S
C1784 H1790 0.930 . S
N1785 Li1761 1.990 . S
N1785 C1784 1.314 . S
N1785 C1788 1.279 . S
C1786 C1784 1.353 . S
C1786 C1789 1.348 . S
C1786 H1834 0.929 . S
C1787 C1788 1.358 . S
C1787 C1789 1.356 . S
C1787 H1835 0.930 . S
C1788 N1785 1.279 . S
C1788 C1787 1.358 . S
C1788 H1791 0.930 . S
C1789 C1786 1.348 . S
C1789 C1787 1.356 . S
H1790 C1784 0.930 . S
H1791 C1788 0.930 . S
C1792 C1794 1.348 . S
C1792 C1795 1.356 . S
C1792 O1822 1.325 . S
N1793 C1796 1.314 . S
N1793 C1797 1.279 . S
C1794 C1792 1.348 . S
C1794 C1796 1.353 . S
C1794 H1836 0.929 . S
C1795 C1792 1.356 . S
C1795 C1797 1.358 . S
C1795 H1837 0.930 . S
C1796 N1793 1.314 . S
C1796 C1794 1.353 . S
C1796 H1838 0.930 . S
C1797 N1793 1.279 . S
C1797 C1795 1.358 . S
C1797 H1839 0.930 . S
C1798 C1799 1.348 . S
C1798 C1800 1.356 . S
C1798 O1823 1.325 . S
C1799 C1798 1.348 . S
C1799 C1801 1.353 . S
C1799 H1840 0.929 . S
C1800 C1798 1.356 . S
C1800 C1802 1.358 . S
C1800 H1841 0.930 . S
C1801 C1799 1.353 . S
C1801 N1803 1.314 . S
C1801 H1842 0.930 . S
C1802 C1800 1.358 . S
C1802 N1803 1.279 . S
C1802 H1843 0.930 . S
N1803 C1801 1.314 . S
N1803 C1802 1.279 . S
C1804 C1806 1.353 . S
C1804 N1807 1.314 . S
C1804 H1810 0.930 . S
C1805 N1807 1.279 . S
C1805 C1808 1.358 . S
C1805 H1811 0.930 . S
C1806 C1804 1.353 . S
C1806 C1809 1.348 . S
C1806 H1844 0.929 . S
N1807 Li1762 1.990 . S
N1807 C1804 1.314 . S
N1807 C1805 1.279 . S
C1808 C1805 1.358 . S
C1808 C1809 1.356 . S
C1808 H1845 0.930 . S
C1809 C1806 1.348 . S
C1809 C1808 1.356 . S
H1810 C1804 0.930 . S
H1811 C1805 0.930 . S
C1812 N1813 1.314 . S
C1812 C1814 1.353 . S
C1812 H1818 0.930 . S
N1813 Li1763 1.990 . S
N1813 C1812 1.314 . S
N1813 C1816 1.279 . S
C1814 C1812 1.353 . S
C1814 C1817 1.348 . S
C1814 H1846 0.929 . S
C1815 C1816 1.358 . S
C1815 C1817 1.356 . S
C1815 H1847 0.930 . S
C1816 N1813 1.279 . S
C1816 C1815 1.358 . S
C1816 H1819 0.930 . S
C1817 C1814 1.348 . S
C1817 C1815 1.356 . S
H1818 C1812 0.930 . S
H1819 C1816 0.930 . S
O1820 Li1760 1.956 . S
O1820 Li1761 1.970 . S
O1820 Li1762 1.961 . S
O1820 C1764 1.325 . S
O1821 Li1760 1.970 . S
O1821 Li1761 1.956 . S
O1821 Li1763 1.961 . S
O1821 C1770 1.325 . S
O1822 Li1760 1.961 . S
O1822 Li1762 1.956 . S
O1822 Li1763 1.970 . S
O1822 C1792 1.325 . S
O1823 Li1761 1.961 . S
O1823 Li1762 1.970 . S
O1823 Li1763 1.956 . S
O1823 C1798 1.325 . S
H1824 C1766 0.929 . S
H1825 C1767 0.930 . S
H1826 C1768 0.930 . S
H1827 C1769 0.930 . S
H1828 C1771 0.930 . S
H1829 C1773 0.929 . S
H1830 C1774 0.930 . S
H1831 C1775 0.930 . S
H1832 C1778 0.930 . S
H1833 C1781 0.929 . S
H1834 C1786 0.929 . S
H1835 C1787 0.930 . S
H1836 C1794 0.929 . S
H1837 C1795 0.930 . S
H1838 C1796 0.930 . S
H1839 C1797 0.930 . S
H1840 C1799 0.929 . S
H1841 C1800 0.930 . S
H1842 C1801 0.930 . S
H1843 C1802 0.930 . S
H1844 C1806 0.929 . S
H1845 C1808 0.930 . S
H1846 C1814 0.929 . S
H1847 C1815 0.930 . S
Li1848 N1865 1.990 . S
Li1848 O1908 1.956 . S
Li1848 O1909 1.970 . S
Li1848 O1910 1.961 . S
Li1849 N1873 1.990 . S
Li1849 O1908 1.970 . S
Li1849 O1909 1.956 . S
Li1849 O1911 1.961 . S
Li1850 N1895 1.990 . S
Li1850 O1908 1.961 . S
Li1850 O1910 1.956 . S
Li1850 O1911 1.970 . S
Li1851 N1901 1.990 . S
Li1851 O1909 1.961 . S
Li1851 O1910 1.970 . S
Li1851 O1911 1.956 . S
C1852 C1854 1.348 . S
C1852 C1855 1.356 . S
C1852 O1908 1.325 . S
N1853 C1856 1.314 . S
N1853 C1857 1.279 . S
C1854 C1852 1.348 . S
C1854 C1856 1.353 . S
C1854 H1912 0.929 . S
C1855 C1852 1.356 . S
C1855 C1857 1.358 . S
C1855 H1913 0.930 . S
C1856 N1853 1.314 . S
C1856 C1854 1.353 . S
C1856 H1914 0.930 . S
C1857 N1853 1.279 . S
C1857 C1855 1.358 . S
C1857 H1915 0.912 1_655 S
C1858 C1861 1.348 . S
C1858 C1862 1.356 . S
C1858 O1909 1.325 . S
C1859 N1860 1.279 . S
C1859 C1862 1.358 . S
C1859 H1916 0.930 . S
N1860 C1859 1.279 . S
N1860 C1863 1.314 . S
C1861 C1858 1.348 . S
C1861 C1863 1.353 . S
C1861 H1917 0.929 . S
C1862 C1858 1.356 . S
C1862 C1859 1.358 . S
C1862 H1918 0.930 . S
C1863 N1860 1.314 . S
C1863 C1861 1.353 . S
C1863 H1919 0.930 . S
C1864 N1865 1.314 . S
C1864 C1869 1.353 . S
C1864 H1870 0.930 . S
N1865 Li1848 1.990 . S
N1865 C1864 1.314 . S
N1865 C1867 1.279 . S
C1866 C1867 1.358 . S
C1866 C1868 1.356 . S
C1866 H1920 0.930 . S
C1867 N1865 1.279 . S
C1867 C1866 1.358 . S
C1867 H1871 0.930 . S
C1868 C1866 1.356 . S
C1868 C1869 1.348 . S
C1869 C1864 1.353 . S
C1869 C1868 1.348 . S
C1869 H1921 0.929 . S
H1870 C1864 0.930 . S
H1871 C1867 0.930 . S
C1872 N1873 1.314 . S
C1872 C1874 1.353 . S
C1872 H1878 0.930 . S
N1873 Li1849 1.990 . S
N1873 C1872 1.314 . S
N1873 C1876 1.279 . S
C1874 C1872 1.353 . S
C1874 C1877 1.348 . S
C1874 H1922 0.929 . S
C1875 C1876 1.358 . S
C1875 C1877 1.356 . S
C1875 H1923 0.930 . S
C1876 N1873 1.279 . S
C1876 C1875 1.358 . S
C1876 H1879 0.930 . S
C1877 C1874 1.348 . S
C1877 C1875 1.356 . S
H1878 C1872 0.930 . S
H1879 C1876 0.930 . S
C1880 C1882 1.348 . S
C1880 C1883 1.356 . S
C1880 O1910 1.325 . S
N1881 C1884 1.314 . S
N1881 C1885 1.279 . S
C1882 C1880 1.348 . S
C1882 C1884 1.353 . S
C1882 H1924 0.929 . S
C1883 C1880 1.356 . S
C1883 C1885 1.358 . S
C1883 H1925 0.930 . S
C1884 N1881 1.314 . S
C1884 C1882 1.353 . S
C1884 H1926 0.930 . S
C1885 N1881 1.279 . S
C1885 C1883 1.358 . S
C1885 H1927 0.930 . S
C1886 C1887 1.348 1_554 S
C1886 C1888 1.356 . S
C1886 O1911 1.325 . S
C1887 C1886 1.348 1_556 S
C1887 C1889 1.353 . S
C1887 H1928 0.929 . S
C1888 C1886 1.356 . S
C1888 C1890 1.358 1_554 S
C1888 H1929 0.930 . S
C1889 C1887 1.353 . S
C1889 N1891 1.314 . S
C1889 H1930 0.930 . S
C1890 C1888 1.358 1_556 S
C1890 N1891 1.279 . S
C1890 H1931 0.930 . S
N1891 C1889 1.314 . S
N1891 C1890 1.279 . S
C1892 C1894 1.353 . S
C1892 N1895 1.314 . S
C1892 H1898 0.930 . S
C1893 N1895 1.279 . S
C1893 C1896 1.358 . S
C1893 H1899 0.930 . S
C1894 C1892 1.353 . S
C1894 C1897 1.348 . S
C1894 H1932 0.929 . S
N1895 Li1850 1.990 . S
N1895 C1892 1.314 . S
N1895 C1893 1.279 . S
C1896 C1893 1.358 . S
C1896 C1897 1.356 . S
C1896 H1933 0.930 . S
C1897 C1894 1.348 . S
C1897 C1896 1.356 . S
H1898 C1892 0.930 . S
H1899 C1893 0.930 . S
C1900 N1901 1.314 . S
C1900 C1902 1.353 . S
C1900 H1906 0.930 . S
N1901 Li1851 1.990 . S
N1901 C1900 1.314 . S
N1901 C1904 1.279 . S
C1902 C1900 1.353 . S
C1902 C1905 1.348 . S
C1902 H1934 0.929 . S
C1903 C1904 1.358 . S
C1903 C1905 1.356 . S
C1903 H1935 0.930 . S
C1904 N1901 1.279 . S
C1904 C1903 1.358 . S
C1904 H1907 0.930 . S
C1905 C1902 1.348 . S
C1905 C1903 1.356 . S
H1906 C1900 0.930 . S
H1907 C1904 0.930 . S
O1908 Li1848 1.956 . S
O1908 Li1849 1.970 . S
O1908 Li1850 1.961 . S
O1908 C1852 1.325 . S
O1909 Li1848 1.970 . S
O1909 Li1849 1.956 . S
O1909 Li1851 1.961 . S
O1909 C1858 1.325 . S
O1910 Li1848 1.961 . S
O1910 Li1850 1.956 . S
O1910 Li1851 1.970 . S
O1910 C1880 1.325 . S
O1911 Li1849 1.961 . S
O1911 Li1850 1.970 . S
O1911 Li1851 1.956 . S
O1911 C1886 1.325 . S
H1912 C1854 0.929 . S
H1913 C1855 0.930 . S
H1914 C1856 0.930 . S
H1915 C1857 0.912 1_455 S
H1916 C1859 0.930 . S
H1917 C1861 0.929 . S
H1918 C1862 0.930 . S
H1919 C1863 0.930 . S
H1920 C1866 0.930 . S
H1921 C1869 0.929 . S
H1922 C1874 0.929 . S
H1923 C1875 0.930 . S
H1924 C1882 0.929 . S
H1925 C1883 0.930 . S
H1926 C1884 0.930 . S
H1927 C1885 0.930 . S
H1928 C1887 0.929 . S
H1929 C1888 0.930 . S
H1930 C1889 0.930 . S
H1931 C1890 0.930 . S
H1932 C1894 0.929 . S
H1933 C1896 0.930 . S
H1934 C1902 0.929 . S
H1935 C1903 0.930 . S
Li1936 N1953 1.990 . S
Li1936 O1996 1.956 . S
Li1936 O1997 1.970 . S
Li1936 O1998 1.961 . S
Li1937 N1961 1.990 . S
Li1937 O1996 1.970 . S
Li1937 O1997 1.956 . S
Li1937 O1999 1.961 . S
Li1938 N1983 1.990 . S
Li1938 O1996 1.961 . S
Li1938 O1998 1.956 . S
Li1938 O1999 1.970 . S
Li1939 N1989 1.990 . S
Li1939 O1997 1.961 . S
Li1939 O1998 1.970 . S
Li1939 O1999 1.956 . S
C1940 C1942 1.348 . S
C1940 C1943 1.356 . S
C1940 O1996 1.325 . S
N1941 C1944 1.314 . S
N1941 C1945 1.279 . S
C1942 C1940 1.348 . S
C1942 C1944 1.353 . S
C1942 H2000 0.929 . S
C1943 C1940 1.356 . S
C1943 C1945 1.358 . S
C1943 H2001 0.930 . S
C1944 N1941 1.314 . S
C1944 C1942 1.353 . S
C1944 H2002 0.930 . S
C1945 N1941 1.279 . S
C1945 C1943 1.358 . S
C1945 H2003 0.892 1_565 S
C1946 C1949 1.348 . S
C1946 C1950 1.356 . S
C1946 O1997 1.325 . S
C1947 N1948 1.279 . S
C1947 C1950 1.358 . S
C1947 H2004 0.930 . S
N1948 C1947 1.279 . S
N1948 C1951 1.314 . S
C1949 C1946 1.348 . S
C1949 C1951 1.353 . S
C1949 H2005 0.929 . S
C1950 C1946 1.356 . S
C1950 C1947 1.358 . S
C1950 H2006 0.930 . S
C1951 N1948 1.314 . S
C1951 C1949 1.353 . S
C1951 H2007 0.930 . S
C1952 N1953 1.314 . S
C1952 C1957 1.353 . S
C1952 H1958 0.930 . S
N1953 Li1936 1.990 . S
N1953 C1952 1.314 . S
N1953 C1955 1.279 . S
C1954 C1955 1.358 . S
C1954 C1956 1.356 . S
C1954 H2008 0.930 . S
C1955 N1953 1.279 . S
C1955 C1954 1.358 . S
C1955 H1959 0.930 . S
C1956 C1954 1.356 . S
C1956 C1957 1.348 . S
C1957 C1952 1.353 . S
C1957 C1956 1.348 . S
C1957 H2009 0.929 . S
H1958 C1952 0.930 . S
H1959 C1955 0.930 . S
C1960 N1961 1.314 . S
C1960 C1962 1.353 . S
C1960 H1966 0.930 . S
N1961 Li1937 1.990 . S
N1961 C1960 1.314 . S
N1961 C1964 1.279 . S
C1962 C1960 1.353 . S
C1962 C1965 1.348 . S
C1962 H2010 0.929 . S
C1963 C1964 1.358 . S
C1963 C1965 1.356 . S
C1963 H2011 0.930 . S
C1964 N1961 1.279 . S
C1964 C1963 1.358 . S
C1964 H1967 0.930 . S
C1965 C1962 1.348 . S
C1965 C1963 1.356 . S
H1966 C1960 0.930 . S
H1967 C1964 0.930 . S
C1968 C1970 1.348 . S
C1968 C1971 1.356 . S
C1968 O1998 1.325 . S
N1969 C1972 1.314 . S
N1969 C1973 1.279 . S
C1970 C1968 1.348 . S
C1970 C1972 1.353 . S
C1970 H2012 0.929 . S
C1971 C1968 1.356 . S
C1971 C1973 1.358 . S
C1971 H2013 0.930 . S
C1972 N1969 1.314 . S
C1972 C1970 1.353 . S
C1972 H2014 0.930 . S
C1973 N1969 1.279 . S
C1973 C1971 1.358 . S
C1973 H2015 0.930 . S
C1974 C1975 1.348 . S
C1974 C1976 1.356 . S
C1974 O1999 1.325 . S
C1975 C1974 1.348 . S
C1975 C1977 1.353 . S
C1975 H2016 0.929 . S
C1976 C1974 1.356 . S
C1976 C1978 1.358 . S
C1976 H2017 0.930 . S
C1977 C1975 1.353 . S
C1977 N1979 1.314 . S
C1977 H2018 0.930 . S
C1978 C1976 1.358 . S
C1978 N1979 1.279 . S
C1978 H2019 0.930 . S
N1979 C1977 1.314 . S
N1979 C1978 1.279 . S
C1980 C1982 1.353 . S
C1980 N1983 1.314 . S
C1980 H1986 0.930 . S
C1981 N1983 1.279 . S
C1981 C1984 1.358 . S
C1981 H1987 0.930 . S
C1982 C1980 1.353 . S
C1982 C1985 1.348 . S
C1982 H2020 0.929 . S
N1983 Li1938 1.990 . S
N1983 C1980 1.314 . S
N1983 C1981 1.279 . S
C1984 C1981 1.358 . S
C1984 C1985 1.356 . S
C1984 H2021 0.930 . S
C1985 C1982 1.348 . S
C1985 C1984 1.356 . S
H1986 C1980 0.930 . S
H1987 C1981 0.930 . S
C1988 N1989 1.314 . S
C1988 C1990 1.353 . S
C1988 H1994 0.930 . S
N1989 Li1939 1.990 . S
N1989 C1988 1.314 . S
N1989 C1992 1.279 . S
C1990 C1988 1.353 . S
C1990 C1993 1.348 . S
C1990 H2022 0.929 . S
C1991 C1992 1.358 . S
C1991 C1993 1.356 . S
C1991 H2023 0.930 . S
C1992 N1989 1.279 . S
C1992 C1991 1.358 . S
C1992 H1995 0.930 . S
C1993 C1990 1.348 . S
C1993 C1991 1.356 . S
H1994 C1988 0.930 . S
H1995 C1992 0.930 . S
O1996 Li1936 1.956 . S
O1996 Li1937 1.970 . S
O1996 Li1938 1.961 . S
O1996 C1940 1.325 . S
O1997 Li1936 1.970 . S
O1997 Li1937 1.956 . S
O1997 Li1939 1.961 . S
O1997 C1946 1.325 . S
O1998 Li1936 1.961 . S
O1998 Li1938 1.956 . S
O1998 Li1939 1.970 . S
O1998 C1968 1.325 . S
O1999 Li1937 1.961 . S
O1999 Li1938 1.970 . S
O1999 Li1939 1.956 . S
O1999 C1974 1.325 . S
H2000 C1942 0.929 . S
H2001 C1943 0.930 . S
H2002 C1944 0.930 . S
H2003 C1945 0.892 1_545 S
H2004 C1947 0.930 . S
H2005 C1949 0.929 . S
H2006 C1950 0.930 . S
H2007 C1951 0.930 . S
H2008 C1954 0.930 . S
H2009 C1957 0.929 . S
H2010 C1962 0.929 . S
H2011 C1963 0.930 . S
H2012 C1970 0.929 . S
H2013 C1971 0.930 . S
H2014 C1972 0.930 . S
H2015 C1973 0.930 . S
H2016 C1975 0.929 . S
H2017 C1976 0.930 . S
H2018 C1977 0.930 . S
H2019 C1978 0.930 . S
H2020 C1982 0.929 . S
H2021 C1984 0.930 . S
H2022 C1990 0.929 . S
H2023 C1991 0.930 . S
Li2024 N2041 1.990 . S
Li2024 O2084 1.956 . S
Li2024 O2085 1.970 . S
Li2024 O2086 1.961 . S
Li2025 N2049 1.990 . S
Li2025 O2084 1.970 . S
Li2025 O2085 1.956 . S
Li2025 O2087 1.961 . S
Li2026 N2071 1.990 . S
Li2026 O2084 1.961 . S
Li2026 O2086 1.956 . S
Li2026 O2087 1.970 . S
Li2027 N2077 1.990 . S
Li2027 O2085 1.961 . S
Li2027 O2086 1.970 . S
Li2027 O2087 1.956 . S
C2028 C2030 1.348 . S
C2028 C2031 1.356 . S
C2028 O2084 1.325 . S
N2029 C2032 1.314 . S
N2029 C2033 1.279 . S
C2030 C2028 1.348 . S
C2030 C2032 1.353 . S
C2030 H2088 0.929 . S
C2031 C2028 1.356 . S
C2031 C2033 1.358 . S
C2031 H2089 0.930 . S
C2032 N2029 1.314 . S
C2032 C2030 1.353 . S
C2032 H2090 0.930 . S
C2033 N2029 1.279 . S
C2033 C2031 1.358 . S
C2033 H2091 0.930 . S
C2034 C2037 1.348 . S
C2034 C2038 1.356 . S
C2034 O2085 1.325 . S
C2035 N2036 1.279 . S
C2035 C2038 1.358 . S
C2035 H2092 0.930 . S
N2036 C2035 1.279 . S
N2036 C2039 1.314 . S
C2037 C2034 1.348 . S
C2037 C2039 1.353 . S
C2037 H2093 0.929 . S
C2038 C2034 1.356 . S
C2038 C2035 1.358 . S
C2038 H2094 0.930 . S
C2039 N2036 1.314 . S
C2039 C2037 1.353 . S
C2039 H2095 0.930 . S
C2040 N2041 1.314 . S
C2040 C2045 1.353 . S
C2040 H2046 0.930 . S
N2041 Li2024 1.990 . S
N2041 C2040 1.314 . S
N2041 C2043 1.279 . S
C2042 C2043 1.358 . S
C2042 C2044 1.356 . S
C2042 H2096 0.930 . S
C2043 N2041 1.279 . S
C2043 C2042 1.358 . S
C2043 H2047 0.930 . S
C2044 C2042 1.356 . S
C2044 C2045 1.348 . S
C2045 C2040 1.353 . S
C2045 C2044 1.348 . S
C2045 H2097 0.929 . S
H2046 C2040 0.930 . S
H2047 C2043 0.930 . S
C2048 N2049 1.314 . S
C2048 C2050 1.353 . S
C2048 H2054 0.930 . S
N2049 Li2025 1.990 . S
N2049 C2048 1.314 . S
N2049 C2052 1.279 . S
C2050 C2048 1.353 . S
C2050 C2053 1.348 . S
C2050 H2098 0.929 . S
C2051 C2052 1.358 . S
C2051 C2053 1.356 . S
C2051 H2099 0.930 . S
C2052 N2049 1.279 . S
C2052 C2051 1.358 . S
C2052 H2055 0.930 . S
C2053 C2050 1.348 . S
C2053 C2051 1.356 . S
H2054 C2048 0.930 . S
H2055 C2052 0.930 . S
C2056 C2058 1.348 . S
C2056 C2059 1.356 . S
C2056 O2086 1.325 . S
N2057 C2060 1.314 . S
N2057 C2061 1.279 . S
C2058 C2056 1.348 . S
C2058 C2060 1.353 . S
C2058 H2100 0.929 . S
C2059 C2056 1.356 . S
C2059 C2061 1.358 . S
C2059 H2101 0.930 . S
C2060 N2057 1.314 . S
C2060 C2058 1.353 . S
C2060 H2102 0.930 . S
C2061 N2057 1.279 . S
C2061 C2059 1.358 . S
C2061 H2103 0.930 . S
C2062 C2063 1.348 1_554 S
C2062 C2064 1.356 . S
C2062 O2087 1.325 . S
C2063 C2062 1.348 1_556 S
C2063 C2065 1.353 . S
C2063 H2104 0.929 . S
C2064 C2062 1.356 . S
C2064 C2066 1.358 1_554 S
C2064 H2105 0.930 . S
C2065 C2063 1.353 . S
C2065 N2067 1.314 . S
C2065 H2106 0.930 . S
C2066 C2064 1.358 1_556 S
C2066 N2067 1.279 . S
C2066 H2107 0.930 . S
N2067 C2065 1.314 . S
N2067 C2066 1.279 . S
C2068 C2070 1.353 . S
C2068 N2071 1.314 . S
C2068 H2074 0.930 . S
C2069 N2071 1.279 . S
C2069 C2072 1.358 . S
C2069 H2075 0.930 . S
C2070 C2068 1.353 . S
C2070 C2073 1.348 . S
C2070 H2108 0.929 . S
N2071 Li2026 1.990 . S
N2071 C2068 1.314 . S
N2071 C2069 1.279 . S
C2072 C2069 1.358 . S
C2072 C2073 1.356 . S
C2072 H2109 0.930 . S
C2073 C2070 1.348 . S
C2073 C2072 1.356 . S
H2074 C2068 0.930 . S
H2075 C2069 0.930 . S
C2076 N2077 1.314 . S
C2076 C2078 1.353 . S
C2076 H2082 0.930 . S
N2077 Li2027 1.990 . S
N2077 C2076 1.314 . S
N2077 C2080 1.279 . S
C2078 C2076 1.353 . S
C2078 C2081 1.348 . S
C2078 H2110 0.929 . S
C2079 C2080 1.358 . S
C2079 C2081 1.356 . S
C2079 H2111 0.930 . S
C2080 N2077 1.279 . S
C2080 C2079 1.358 . S
C2080 H2083 0.930 . S
C2081 C2078 1.348 . S
C2081 C2079 1.356 . S
H2082 C2076 0.930 . S
H2083 C2080 0.930 . S
O2084 Li2024 1.956 . S
O2084 Li2025 1.970 . S
O2084 Li2026 1.961 . S
O2084 C2028 1.325 . S
O2085 Li2024 1.970 . S
O2085 Li2025 1.956 . S
O2085 Li2027 1.961 . S
O2085 C2034 1.325 . S
O2086 Li2024 1.961 . S
O2086 Li2026 1.956 . S
O2086 Li2027 1.970 . S
O2086 C2056 1.325 . S
O2087 Li2025 1.961 . S
O2087 Li2026 1.970 . S
O2087 Li2027 1.956 . S
O2087 C2062 1.325 . S
H2088 C2030 0.929 . S
H2089 C2031 0.930 . S
H2090 C2032 0.930 . S
H2091 C2033 0.930 . S
H2092 C2035 0.930 . S
H2093 C2037 0.929 . S
H2094 C2038 0.930 . S
H2095 C2039 0.930 . S
H2096 C2042 0.930 . S
H2097 C2045 0.929 . S
H2098 C2050 0.929 . S
H2099 C2051 0.930 . S
H2100 C2058 0.929 . S
H2101 C2059 0.930 . S
H2102 C2060 0.930 . S
H2103 C2061 0.930 . S
H2104 C2063 0.929 . S
H2105 C2064 0.930 . S
H2106 C2065 0.930 . S
H2107 C2066 0.930 . S
H2108 C2070 0.929 . S
H2109 C2072 0.930 . S
H2110 C2078 0.929 . S
H2111 C2079 0.930 . S
C1369 C29 1.603 . S
C117 C1465 1.603 . S
C196 C1553 1.603 . S
C284 C1105 1.603 . S
C1193 C401 1.603 . S
C469 C1289 1.603 . S
C1868 C585 1.603 . S
C665 C1956 1.603 . S
C761 C2044 1.603 . S
C1613 C841 1.603 . S
C937 C1701 1.603 . S
C1780 C1017 1.603 . S
C20 C2081 1.021 . S
C1633 C108 1.021 . S
C205 C1721 1.021 . S
C1817 C293 1.021 . S
C409 C1905 1.021 . S
C1993 C460 1.021 . S
C577 C1173 1.022 . S
C1252 C673 1.021 . S
C1349 C753 1.021 . S
C1428 C849 1.020 . S
C929 C1516 1.021 . S
C1025 C1085 1.021 . S
C636 C57 0.963 1_566 S
C733 C145 0.964 . S
C812 C225 0.964 1_456 S
C909 C313 0.964 1_545 S
C372 C988 0.964 1_554 S
C497 C557 0.963 1_455 S
C1076 C1729 0.968 1_566 S
C1164 C1809 0.967 . S
C1897 C1261 0.968 1_654 S
C1985 C1340 0.968 1_565 S
C2073 C1437 0.967 1_554 S
C1641 C1525 0.968 1_455 S
C49 C1692 1.604 . S
C1789 C137 1.605 . S
C233 C1877 1.605 . S
C1965 C321 1.605 . S
C381 C2053 1.605 . S
C1604 C489 1.605 . S
C548 C1545 1.604 . S
C1113 C645 1.605 . S
C724 C1201 1.605 . S
C821 C1281 1.606 . S
C900 C1377 1.605 . S
C997 C1457 1.605 . S
