# Generated by pormake.
# Topology mdf, (4)-cn, num edge types: 1
# Building blocks:
#     Node 0, Type 0, BuildingBlock: CEKHIL_clean_sbu_0, # of connection points: 4
#     Node 1, Type 0, BuildingBlock: CEKHIL_clean_sbu_0, # of connection points: 4
#     Node 2, Type 0, BuildingBlock: CEKHIL_clean_sbu_0, # of connection points: 4
#     Node 3, Type 0, BuildingBlock: CEKHIL_clean_sbu_0, # of connection points: 4
#     Node 4, Type 0, BuildingBlock: CEKHIL_clean_sbu_0, # of connection points: 4
#     Node 5, Type 0, BuildingBlock: CEKHIL_clean_sbu_0, # of connection points: 4
#     Node 6, Type 0, BuildingBlock: CEKHIL_clean_sbu_0, # of connection points: 4
#     Node 7, Type 0, BuildingBlock: CEKHIL_clean_sbu_0, # of connection points: 4
#     Edge 8, Type (0, 0), BuildingBlock: UVAHIK_clean_linker_0, # of connection points: 2
#     Edge 9, Type (0, 0), BuildingBlock: UVAHIK_clean_linker_0, # of connection points: 2
#     Edge 10, Type (0, 0), BuildingBlock: UVAHIK_clean_linker_0, # of connection points: 2
#     Edge 11, Type (0, 0), BuildingBlock: UVAHIK_clean_linker_0, # of connection points: 2
#     Edge 12, Type (0, 0), BuildingBlock: UVAHIK_clean_linker_0, # of connection points: 2
#     Edge 13, Type (0, 0), BuildingBlock: UVAHIK_clean_linker_0, # of connection points: 2
#     Edge 14, Type (0, 0), BuildingBlock: UVAHIK_clean_linker_0, # of connection points: 2
#     Edge 15, Type (0, 0), BuildingBlock: UVAHIK_clean_linker_0, # of connection points: 2
#     Edge 16, Type (0, 0), BuildingBlock: UVAHIK_clean_linker_0, # of connection points: 2
#     Edge 17, Type (0, 0), BuildingBlock: UVAHIK_clean_linker_0, # of connection points: 2
#     Edge 18, Type (0, 0), BuildingBlock: UVAHIK_clean_linker_0, # of connection points: 2
#     Edge 19, Type (0, 0), BuildingBlock: UVAHIK_clean_linker_0, # of connection points: 2
#     Edge 20, Type (0, 0), BuildingBlock: UVAHIK_clean_linker_0, # of connection points: 2
#     Edge 21, Type (0, 0), BuildingBlock: UVAHIK_clean_linker_0, # of connection points: 2
#     Edge 22, Type (0, 0), BuildingBlock: UVAHIK_clean_linker_0, # of connection points: 2
#     Edge 23, Type (0, 0), BuildingBlock: UVAHIK_clean_linker_0, # of connection points: 2
# Relax obj value: 0.019
# Max RMSD: 0.044
# Mean RMSD: 0.044
data_MOF--net-mdf--node1-CEKHIL_clean_sbu_0--edge1-UVAHIK_clean_linker_0
_symmetry_space_group_name_H-M    P1
_symmetry_Int_Tables_number       1
_symmetry_cell_setting            triclinic
loop_
_symmetry_equiv_pos_as_xyz
'x, y, z'
_cell_length_a     49.301346
_cell_length_b     49.301793
_cell_length_c     14.665244
_cell_angle_alpha  90.002096
_cell_angle_beta   89.913295
_cell_angle_gamma 91.580903
loop_
_atom_site_label
_atom_site_type_symbol
_atom_site_fract_x
_atom_site_fract_y
_atom_site_fract_z
_atom_type_partial_charge
Co0 Co 0.25119 0.53153 0.38252 0.0
O1 O 0.22525 0.55971 0.39301 0.0
O2 O 0.23954 0.53543 0.50908 0.0
C3 C 0.2806 0.55508 0.29317 0.0
O4 O 0.27882 0.50124 0.39451 0.0
Co5 Co 0.26189 0.50781 0.18849 0.0
O6 O 0.29205 0.49002 0.25244 0.0
C7 C 0.21044 0.4957 0.28271 0.0
C8 C 0.22414 0.55463 0.47954 0.0
C9 C 0.29421 0.48824 0.33896 0.0
O10 O 0.22078 0.50431 0.3582 0.0
O11 O 0.22241 0.49821 0.20555 0.0
O12 O 0.28119 0.55852 0.38107 0.0
O13 O 0.26092 0.5399 0.26324 0.0
Co14 Co 0.46985 0.74939 0.61785 0.0
O15 O 0.44213 0.77589 0.60918 0.0
O16 O 0.46785 0.76355 0.49377 0.0
C17 C 0.44468 0.71858 0.69648 0.0
O18 O 0.5 0.72163 0.60361 0.0
Co19 Co 0.49073 0.73394 0.81152 0.0
O20 O 0.50842 0.70461 0.74311 0.0
C21 C 0.50618 0.78685 0.73115 0.0
C22 C 0.44839 0.77856 0.52384 0.0
C23 C 0.51168 0.70456 0.65677 0.0
O24 O 0.49699 0.77892 0.65313 0.0
O25 O 0.50321 0.77289 0.80428 0.0
O26 O 0.44258 0.71982 0.60822 0.0
O27 O 0.45966 0.73735 0.73333 0.0
Co28 Co 0.25028 0.96971 0.87795 0.0
O29 O 0.27563 0.94097 0.88859 0.0
O30 O 0.26465 0.96817 0.00167 0.0
C31 C 0.21822 0.94535 0.80258 0.0
O32 O 0.22378 0.00103 0.89028 0.0
Co33 Co 0.23559 0.98986 0.68279 0.0
O34 O 0.20781 0.01022 0.74992 0.0
C35 C 0.2892 0.0033 0.76043 0.0
C36 C 0.27882 0.94789 0.97314 0.0
C37 C 0.2077 0.01366 0.83616 0.0
O38 O 0.28082 0.99532 0.83946 0.0
O39 O 0.27512 0.00027 0.68769 0.0
O40 O 0.21967 0.94378 0.89094 0.0
O41 O 0.23753 0.95918 0.76375 0.0
Co42 Co 0.03049 0.74977 0.13259 0.0
O43 O 0.05936 0.72449 0.12341 0.0
O44 O 0.03486 0.73792 0.00666 0.0
C45 C 0.05304 0.78004 0.22115 0.0
O46 O 0.99959 0.77667 0.11837 0.0
Co47 Co 0.00572 0.76065 0.32471 0.0
O48 O 0.9873 0.79004 0.25919 0.0
C49 C 0.99372 0.70893 0.23137 0.0
C50 C 0.05438 0.72304 0.03685 0.0
C51 C 0.98585 0.79183 0.17255 0.0
O52 O 0.00402 0.7187 0.15719 0.0
O53 O 0.99477 0.72155 0.30763 0.0
O54 O 0.0567 0.78037 0.13332 0.0
O55 O 0.0383 0.76009 0.25189 0.0
Co56 Co 0.75168 0.03048 0.88184 0.0
O57 O 0.72501 0.05806 0.89105 0.0
O58 O 0.73852 0.03323 0.00695 0.0
C59 C 0.78163 0.05535 0.79872 0.0
O60 O 0.77982 0.00071 0.896 0.0
Co61 Co 0.76592 0.00814 0.68909 0.0
O62 O 0.79612 0.99151 0.75604 0.0
C63 C 0.71392 0.99237 0.77568 0.0
C64 C 0.72311 0.05237 0.97705 0.0
C65 C 0.79674 0.98888 0.84255 0.0
O66 O 0.72213 0.00287 0.85151 0.0
O67 O 0.72742 0.9945 0.70123 0.0
O68 O 0.78103 0.05801 0.88689 0.0
O69 O 0.76275 0.03994 0.76441 0.0
Co70 Co 0.96952 0.24965 0.11406 0.0
O71 O 0.94162 0.27588 0.103 0.0
O72 O 0.96653 0.26181 0.9879 0.0
C73 C 0.94519 0.22007 0.20044 0.0
O74 O 0.99967 0.22185 0.10245 0.0
Co75 Co 0.99202 0.23786 0.30875 0.0
O76 O 0.01012 0.20793 0.24431 0.0
C77 C 0.00512 0.28964 0.21815 0.0
C78 C 0.94728 0.27727 0.01688 0.0
C79 C 0.01236 0.20618 0.15778 0.0
O80 O 0.9968 0.27973 0.14164 0.0
O81 O 0.00211 0.27732 0.29446 0.0
O82 O 0.94229 0.21986 0.11232 0.0
O83 O 0.96036 0.23949 0.23231 0.0
Co84 Co 0.74972 0.46911 0.36983 0.0
O85 O 0.7746 0.43994 0.379 0.0
O86 O 0.76394 0.46669 0.49365 0.0
C87 C 0.7174 0.44558 0.29279 0.0
O88 O 0.72367 0.50077 0.3834 0.0
Co89 Co 0.73577 0.49034 0.17531 0.0
O90 O 0.70833 0.51099 0.24302 0.0
C91 C 0.78932 0.50275 0.25492 0.0
C92 C 0.77782 0.44635 0.46397 0.0
C93 C 0.70803 0.51399 0.32944 0.0
O94 O 0.78065 0.49448 0.33327 0.0
O95 O 0.7754 0.50023 0.18165 0.0
O96 O 0.71872 0.44358 0.38107 0.0
O97 O 0.73697 0.45929 0.25491 0.0
Co98 Co 0.53004 0.25006 0.62218 0.0
O99 O 0.55888 0.22476 0.61385 0.0
O100 O 0.53435 0.23775 0.49661 0.0
C101 C 0.55265 0.28061 0.70953 0.0
O102 O 0.49912 0.27693 0.60743 0.0
Co103 Co 0.50551 0.26141 0.81443 0.0
O104 O 0.48732 0.2908 0.74819 0.0
C105 C 0.49347 0.20945 0.72277 0.0
C106 C 0.55386 0.22297 0.5274 0.0
C107 C 0.48564 0.29236 0.66154 0.0
O108 O 0.50359 0.21906 0.6481 0.0
O109 O 0.49464 0.22226 0.79866 0.0
O110 O 0.55626 0.28068 0.62167 0.0
O111 O 0.53794 0.26074 0.74097 0.0
C112 C 0.41402 0.67745 0.71195 0.0
C113 C 0.43113 0.69729 0.75202 0.0
C114 C 0.40012 0.65836 0.76644 0.0
C115 C 0.3983 0.62861 0.99915 0.0
H116 H 0.32174 0.61699 0.94807 0.0
C117 C 0.32126 0.58538 0.26298 0.0
C118 C 0.30081 0.56751 0.23066 0.0
C119 C 0.33921 0.59827 0.2019 0.0
C120 C 0.34318 0.61968 0.96254 0.0
H121 H 0.44772 0.71234 0.87996 0.0
H122 H 0.42332 0.67944 0.97459 0.0
H123 H 0.34965 0.64422 0.84394 0.0
H124 H 0.28367 0.54832 0.10977 0.0
H125 H 0.31504 0.57058 0.00379 0.0
H126 H 0.39157 0.60455 0.11912 0.0
C127 C 0.42083 0.67827 0.90131 0.0
C128 C 0.35919 0.63523 0.90271 0.0
C129 C 0.43466 0.69728 0.84702 0.0
C130 C 0.29911 0.56215 0.13673 0.0
C131 C 0.31699 0.57499 0.07589 0.0
C132 C 0.38225 0.61308 0.05916 0.0
C133 C 0.40316 0.6588 0.86184 0.0
C134 C 0.38685 0.64017 0.92093 0.0
C135 C 0.33696 0.5935 0.10758 0.0
C136 C 0.35446 0.60871 0.04194 0.0
H137 H 0.41103 0.67693 0.6388 0.0
H138 H 0.38685 0.6434 0.734 0.0
H139 H 0.41965 0.63175 0.01435 0.0
H140 H 0.32302 0.58985 0.33508 0.0
H141 H 0.35427 0.61262 0.22825 0.0
C142 C 0.43561 0.79756 0.37013 0.0
C143 C 0.43354 0.79783 0.46568 0.0
C144 C 0.42008 0.81507 0.31704 0.0
C145 C 0.35822 0.85693 0.33138 0.0
H146 H 0.38615 0.8892 0.10816 0.0
C147 C 0.29878 0.93697 0.12701 0.0
C148 C 0.29784 0.93301 0.03216 0.0
C149 C 0.31627 0.92181 0.18128 0.0
C150 C 0.37799 0.88023 0.17016 0.0
H151 H 0.41429 0.81743 0.58038 0.0
H152 H 0.38805 0.84812 0.48891 0.0
H153 H 0.41497 0.85998 0.19826 0.0
H154 H 0.31495 0.91038 0.91992 0.0
H155 H 0.34522 0.88424 0.01391 0.0
H156 H 0.32129 0.87727 0.30332 0.0
C157 C 0.40092 0.83397 0.4542 0.0
C158 C 0.3945 0.86336 0.22169 0.0
C159 C 0.41619 0.81642 0.50687 0.0
C160 C 0.31508 0.91396 0.9928 0.0
C161 C 0.33264 0.89905 0.04666 0.0
C162 C 0.3418 0.87392 0.28018 0.0
C163 C 0.40229 0.83333 0.35848 0.0
C164 C 0.38483 0.85139 0.30298 0.0
C165 C 0.33338 0.9026 0.14165 0.0
C166 C 0.3514 0.88568 0.19865 0.0
H167 H 0.44875 0.78344 0.33635 0.0
H168 H 0.42155 0.81381 0.2435 0.0
H169 H 0.34978 0.84771 0.39253 0.0
H170 H 0.28578 0.95149 0.15938 0.0
H171 H 0.31649 0.92519 0.25425 0.0
C172 C 0.08264 0.82125 0.2494 0.0
C173 C 0.06489 0.80081 0.28265 0.0
C174 C 0.09516 0.83969 0.30951 0.0
C175 C 0.11601 0.84497 0.54889 0.0
H176 H 0.12918 0.92089 0.4905 0.0
C177 C 0.17594 0.91619 0.79146 0.0
C178 C 0.19619 0.93233 0.74911 0.0
C179 C 0.1562 0.90257 0.739 0.0
C180 C 0.1257 0.8997 0.50759 0.0
H181 H 0.04541 0.78425 0.40405 0.0
H182 H 0.06701 0.8165 0.50845 0.0
H183 H 0.10148 0.89248 0.38843 0.0
H184 H 0.21122 0.94762 0.61923 0.0
H185 H 0.17715 0.9237 0.52809 0.0
H186 H 0.14075 0.8519 0.66656 0.0
C187 C 0.07163 0.81806 0.43637 0.0
C188 C 0.10989 0.88346 0.44913 0.0
C189 C 0.05918 0.79966 0.37646 0.0
C190 C 0.19588 0.93529 0.65388 0.0
C191 C 0.1762 0.92175 0.6016 0.0
C192 C 0.13183 0.86117 0.60719 0.0
C193 C 0.09011 0.83798 0.40381 0.0
C194 C 0.1052 0.85583 0.46857 0.0
C195 C 0.15637 0.90494 0.64338 0.0
C196 C 0.1372 0.88861 0.58648 0.0
H197 H 0.08737 0.82261 0.17737 0.0
H198 H 0.1095 0.85468 0.28248 0.0
H199 H 0.1131 0.82365 0.56509 0.0
H200 H 0.17563 0.91368 0.86483 0.0
H201 H 0.14098 0.88998 0.77317 0.0
C202 C 0.06744 0.70486 0.88224 0.0
C203 C 0.07035 0.70496 0.97755 0.0
C204 C 0.08324 0.6879 0.82796 0.0
C205 C 0.12463 0.62603 0.83819 0.0
H206 H 0.15806 0.65507 0.61844 0.0
C207 C 0.20661 0.56814 0.63482 0.0
C208 C 0.2059 0.57028 0.53931 0.0
C209 C 0.18965 0.58396 0.68919 0.0
C210 C 0.14862 0.64644 0.67894 0.0
H211 H 0.09197 0.68704 0.09044 0.0
H212 H 0.11927 0.65775 0.99641 0.0
H213 H 0.12844 0.68337 0.70851 0.0
H214 H 0.18625 0.59019 0.42616 0.0
H215 H 0.15663 0.61701 0.51985 0.0
H216 H 0.14471 0.58905 0.80845 0.0
C217 C 0.10473 0.67054 0.96329 0.0
C218 C 0.13159 0.66274 0.7306 0.0
C219 C 0.08915 0.68754 0.01723 0.0
C220 C 0.18759 0.58818 0.49956 0.0
C221 C 0.17065 0.60378 0.5535 0.0
C222 C 0.14157 0.60967 0.78624 0.0
C223 C 0.10209 0.67052 0.86795 0.0
C224 C 0.11942 0.65279 0.81104 0.0
C225 C 0.17158 0.60217 0.64911 0.0
C226 C 0.15382 0.61964 0.70581 0.0
H227 H 0.05312 0.718 0.84959 0.0
H228 H 0.08053 0.68823 0.7547 0.0
H229 H 0.11534 0.6176 0.89925 0.0
H230 H 0.2205 0.55458 0.66754 0.0
H231 H 0.19111 0.5823 0.76263 0.0
C232 C 0.82227 0.08633 0.77869 0.0
C233 C 0.80225 0.06902 0.7407 0.0
C234 C 0.84071 0.10041 0.72231 0.0
C235 C 0.86865 0.10254 0.48722 0.0
H236 H 0.88098 0.1789 0.54056 0.0
C237 C 0.91392 0.17989 0.22711 0.0
C238 C 0.93208 0.19983 0.26124 0.0
C239 C 0.90035 0.16198 0.28672 0.0
C240 C 0.87806 0.15752 0.52537 0.0
H241 H 0.78619 0.05223 0.61441 0.0
H242 H 0.81801 0.077 0.51632 0.0
H243 H 0.85375 0.15095 0.64446 0.0
H244 H 0.95108 0.21604 0.38382 0.0
H245 H 0.9277 0.18473 0.48716 0.0
H246 H 0.89262 0.10937 0.36696 0.0
C247 C 0.81979 0.0795 0.58946 0.0
C248 C 0.8625 0.14149 0.58505 0.0
C249 C 0.80142 0.06546 0.64571 0.0
C250 C 0.93704 0.20102 0.35546 0.0
C251 C 0.92355 0.18318 0.41481 0.0
C252 C 0.8842 0.11862 0.42733 0.0
C253 C 0.83942 0.0974 0.62699 0.0
C254 C 0.85746 0.11387 0.56638 0.0
C255 C 0.90474 0.16376 0.38134 0.0
C256 C 0.88895 0.14631 0.44561 0.0
H257 H 0.82346 0.08933 0.85176 0.0
H258 H 0.85585 0.11379 0.7533 0.0
H259 H 0.86538 0.08124 0.47155 0.0
H260 H 0.90974 0.17853 0.15474 0.0
H261 H 0.88581 0.14733 0.25904 0.0
C262 C 0.93446 0.29486 0.86133 0.0
C263 C 0.93221 0.29585 0.9568 0.0
C264 C 0.9191 0.31203 0.80646 0.0
C265 C 0.88068 0.37586 0.81271 0.0
H266 H 0.84294 0.3454 0.60338 0.0
C267 C 0.79783 0.43435 0.61696 0.0
C268 C 0.79662 0.43085 0.52196 0.0
C269 C 0.81517 0.41862 0.67 0.0
C270 C 0.85361 0.35443 0.6608 0.0
H271 H 0.91246 0.31605 0.06936 0.0
H272 H 0.88601 0.34576 0.97438 0.0
H273 H 0.87269 0.31705 0.69247 0.0
H274 H 0.81331 0.40864 0.40805 0.0
H275 H 0.84367 0.38198 0.4993 0.0
H276 H 0.8617 0.41328 0.78097 0.0
C277 C 0.89962 0.33191 0.94153 0.0
C278 C 0.87071 0.3381 0.71191 0.0
C279 C 0.9147 0.31467 0.99603 0.0
C280 C 0.81347 0.41172 0.48119 0.0
C281 C 0.83082 0.39621 0.53377 0.0
C282 C 0.86369 0.39226 0.76127 0.0
C283 C 0.90145 0.33074 0.84605 0.0
C284 C 0.88437 0.34855 0.7888 0.0
C285 C 0.83177 0.39917 0.62905 0.0
C286 C 0.84984 0.38177 0.68465 0.0
H287 H 0.94777 0.2806 0.82904 0.0
H288 H 0.92114 0.31076 0.73306 0.0
H289 H 0.89113 0.38467 0.87098 0.0
H290 H 0.78509 0.44888 0.65044 0.0
H291 H 0.81515 0.42134 0.74326 0.0
C292 C 0.69539 0.43595 0.14318 0.0
C293 C 0.69536 0.43295 0.23841 0.0
C294 C 0.67577 0.42259 0.09013 0.0
C295 C 0.63095 0.3623 0.09475 0.0
H296 H 0.60167 0.39338 0.87393 0.0
C297 C 0.55845 0.30086 0.86399 0.0
C298 C 0.56444 0.30158 0.77034 0.0
C299 C 0.57087 0.31939 0.92348 0.0
C300 C 0.60978 0.38443 0.93522 0.0
H301 H 0.67419 0.41452 0.35333 0.0
H302 H 0.63963 0.39121 0.26039 0.0
H303 H 0.62926 0.42179 0.9764 0.0
H304 H 0.58735 0.32282 0.66482 0.0
H305 H 0.60946 0.35512 0.76929 0.0
H306 H 0.61204 0.32485 0.05295 0.0
C307 C 0.65509 0.40364 0.22678 0.0
C308 C 0.62553 0.40067 0.99389 0.0
C309 C 0.67478 0.41705 0.27998 0.0
C310 C 0.58241 0.32179 0.73675 0.0
C311 C 0.59492 0.34036 0.79647 0.0
C312 C 0.6152 0.34611 0.03627 0.0
C313 C 0.65565 0.40595 0.13115 0.0
C314 C 0.63662 0.38966 0.07361 0.0
C315 C 0.58961 0.33902 0.89069 0.0
C316 C 0.60474 0.35689 0.95529 0.0
H317 H 0.71099 0.44811 0.10916 0.0
H318 H 0.677 0.42451 0.01666 0.0
H319 H 0.63957 0.35307 0.15471 0.0
H320 H 0.54449 0.28566 0.89184 0.0
H321 H 0.56603 0.31814 0.99546 0.0
C322 C 0.68581 0.0852 0.99636 0.0
C323 C 0.7043 0.0675 0.03628 0.0
C324 C 0.66859 0.10054 0.05026 0.0
C325 C 0.66219 0.12958 0.28004 0.0
H326 H 0.5875 0.14018 0.20839 0.0
C327 C 0.58847 0.18728 0.50991 0.0
C328 C 0.56978 0.20456 0.46907 0.0
C329 C 0.60404 0.16998 0.45718 0.0
C330 C 0.60839 0.13775 0.2288 0.0
H331 H 0.71888 0.05181 0.16459 0.0
H332 H 0.68872 0.07883 0.25946 0.0
H333 H 0.61585 0.11027 0.11888 0.0
H334 H 0.55267 0.21699 0.34024 0.0
H335 H 0.58032 0.18698 0.24725 0.0
H336 H 0.655 0.15733 0.38895 0.0
C337 C 0.68772 0.08085 0.18602 0.0
C338 C 0.62464 0.12049 0.17764 0.0
C339 C 0.70489 0.06526 0.13177 0.0
C340 C 0.56687 0.20392 0.37379 0.0
C341 C 0.58264 0.1866 0.32064 0.0
C342 C 0.64601 0.14694 0.3309 0.0
C343 C 0.66942 0.09877 0.14579 0.0
C344 C 0.65176 0.11621 0.20253 0.0
C345 C 0.60157 0.16949 0.36173 0.0
C346 C 0.61886 0.15126 0.30614 0.0
H347 H 0.68475 0.08744 0.92299 0.0
H348 H 0.65505 0.11433 0.01691 0.0
H349 H 0.6831 0.12717 0.30024 0.0
H350 H 0.59111 0.18701 0.58321 0.0
H351 H 0.61789 0.15676 0.49168 0.0
C352 C 0.3173 0.4637 0.46811 0.0
C353 C 0.31505 0.46964 0.37464 0.0
C354 C 0.33639 0.44514 0.49892 0.0
C355 C 0.37758 0.38793 0.41729 0.0
H356 H 0.41922 0.40123 0.6373 0.0
C357 C 0.46496 0.31817 0.53028 0.0
C358 C 0.4668 0.31274 0.6242 0.0
C359 C 0.44712 0.33774 0.49786 0.0
C360 C 0.40758 0.39702 0.57611 0.0
H361 H 0.33192 0.46106 0.24088 0.0
H362 H 0.36489 0.42928 0.29449 0.0
H363 H 0.38643 0.43428 0.58784 0.0
H364 H 0.45075 0.32358 0.75719 0.0
H365 H 0.41984 0.35683 0.70099 0.0
H366 H 0.39853 0.35058 0.40589 0.0
C367 C 0.35163 0.43847 0.34397 0.0
C368 C 0.38873 0.41601 0.54787 0.0
C369 C 0.33271 0.45692 0.31333 0.0
C370 C 0.45023 0.32723 0.6844 0.0
C371 C 0.4325 0.34658 0.65219 0.0
C372 C 0.39638 0.3689 0.44567 0.0
C373 C 0.3536 0.43208 0.43694 0.0
C374 C 0.37345 0.41172 0.46812 0.0
C375 C 0.43073 0.35228 0.55864 0.0
C376 C 0.41156 0.37311 0.52573 0.0
H377 H 0.30408 0.47304 0.5173 0.0
H378 H 0.33726 0.44058 0.57107 0.0
H379 H 0.36591 0.38376 0.35612 0.0
H380 H 0.47739 0.30749 0.48193 0.0
H381 H 0.44644 0.34173 0.42531 0.0
C382 C 0.6778 0.96596 0.69157 0.0
C383 C 0.68816 0.97621 0.7744 0.0
C384 C 0.65448 0.94931 0.69032 0.0
C385 C 0.61666 0.90146 0.83485 0.0
H386 H 0.56241 0.90464 0.64411 0.0
C387 C 0.5278 0.82431 0.82262 0.0
C388 C 0.52202 0.8127 0.73702 0.0
C389 C 0.54467 0.84737 0.8297 0.0
C390 C 0.57748 0.90343 0.69749 0.0
H391 H 0.68144 0.97777 0.92064 0.0
H392 H 0.64065 0.94859 0.91821 0.0
H393 H 0.59817 0.93987 0.65304 0.0
H394 H 0.52855 0.8169 0.59131 0.0
H395 H 0.55855 0.85689 0.60385 0.0
H396 H 0.59667 0.86469 0.87784 0.0
C397 C 0.65082 0.95331 0.85442 0.0
C398 C 0.59789 0.9236 0.70272 0.0
C399 C 0.67413 0.97009 0.8557 0.0
C400 C 0.53263 0.82533 0.65827 0.0
C401 C 0.54971 0.84834 0.66545 0.0
C402 C 0.59636 0.88128 0.82947 0.0
C403 C 0.64099 0.94246 0.77182 0.0
C404 C 0.61787 0.92262 0.77083 0.0
C405 C 0.55635 0.85927 0.75144 0.0
C406 C 0.5767 0.88185 0.76016 0.0
H407 H 0.68797 0.97034 0.62752 0.0
H408 H 0.64758 0.94102 0.62573 0.0
H409 H 0.63204 0.89988 0.88712 0.0
H410 H 0.51962 0.81536 0.88463 0.0
H411 H 0.5489 0.85563 0.89677 0.0
C412 C 0.0375 0.18369 0.02851 0.0
C413 C 0.03117 0.18552 0.12184 0.0
C414 C 0.05626 0.1648 0.99746 0.0
C415 C 0.11329 0.12346 0.07912 0.0
H416 H 0.10076 0.08245 0.85717 0.0
C417 C 0.18266 0.03559 0.96688 0.0
C418 C 0.18814 0.03344 0.87304 0.0
C419 C 0.1634 0.05386 0.9988 0.0
C420 C 0.10478 0.09393 0.91886 0.0
H421 H 0.03928 0.16816 0.25508 0.0
H422 H 0.07142 0.13554 0.20105 0.0
H423 H 0.06757 0.11513 0.90663 0.0
H424 H 0.17801 0.04959 0.73975 0.0
H425 H 0.1453 0.08132 0.79512 0.0
H426 H 0.15058 0.10243 0.09111 0.0
C427 C 0.06238 0.14896 0.15189 0.0
C428 C 0.08569 0.11272 0.94713 0.0
C429 C 0.04371 0.16767 0.18275 0.0
C430 C 0.17422 0.05031 0.81246 0.0
C431 C 0.1552 0.06851 0.8442 0.0
C432 C 0.13242 0.10474 0.05071 0.0
C433 C 0.06914 0.1474 0.05908 0.0
C434 C 0.08968 0.12773 0.02766 0.0
C435 C 0.14927 0.07043 0.93762 0.0
C436 C 0.12849 0.08976 0.97 0.0
H437 H 0.0283 0.19707 0.97961 0.0
H438 H 0.06111 0.16424 0.92546 0.0
H439 H 0.11723 0.13493 0.14091 0.0
H440 H 0.19291 0.02291 0.01547 0.0
H441 H 0.15925 0.05464 0.07126 0.0
C442 C 0.97402 0.66904 0.14514 0.0
C443 C 0.97898 0.68238 0.22847 0.0
C444 C 0.95828 0.64504 0.14249 0.0
C445 C 0.92878 0.58977 0.28651 0.0
H446 H 0.87058 0.58974 0.10911 0.0
C447 C 0.82905 0.52708 0.32784 0.0
C448 C 0.81598 0.51716 0.24902 0.0
C449 C 0.85279 0.5431 0.3208 0.0
C450 C 0.88701 0.58906 0.15795 0.0
H451 H 0.97233 0.68016 0.37484 0.0
H452 H 0.94475 0.63865 0.36981 0.0
H453 H 0.90581 0.62511 0.10352 0.0
H454 H 0.81867 0.51468 0.10143 0.0
H455 H 0.86021 0.54217 0.08951 0.0
H456 H 0.90946 0.55404 0.3424 0.0
C457 C 0.95317 0.64659 0.30664 0.0
C458 C 0.90722 0.60937 0.15468 0.0
C459 C 0.96879 0.67057 0.30931 0.0
C460 C 0.82795 0.52238 0.16348 0.0
C461 C 0.85174 0.5382 0.15654 0.0
C462 C 0.90856 0.56937 0.28967 0.0
C463 C 0.94731 0.63383 0.2231 0.0
C464 C 0.92802 0.61027 0.22 0.0
C465 C 0.86404 0.54934 0.23487 0.0
C466 C 0.88716 0.5691 0.22645 0.0
H467 H 0.98172 0.67744 0.08165 0.0
H468 H 0.95432 0.63547 0.07719 0.0
H469 H 0.94478 0.58977 0.33706 0.0
H470 H 0.82039 0.52339 0.39477 0.0
H471 H 0.86163 0.55156 0.38247 0.0
C472 C 0.32733 0.02291 0.66666 0.0
C473 C 0.31574 0.01787 0.7529 0.0
C474 C 0.35107 0.03874 0.65816 0.0
C475 C 0.40853 0.07004 0.78761 0.0
H476 H 0.40508 0.12545 0.60053 0.0
C477 C 0.46897 0.17116 0.80246 0.0
C478 C 0.47877 0.18287 0.72094 0.0
C479 C 0.45335 0.14716 0.80091 0.0
C480 C 0.40668 0.1098 0.65191 0.0
H481 H 0.32077 0.02446 0.89825 0.0
H482 H 0.36193 0.05263 0.88323 0.0
H483 H 0.36977 0.09019 0.60869 0.0
H484 H 0.48086 0.17774 0.57408 0.0
H485 H 0.45346 0.13573 0.5716 0.0
H486 H 0.44504 0.09041 0.83264 0.0
C487 C 0.35283 0.04403 0.82222 0.0
C488 C 0.38642 0.08955 0.65666 0.0
C489 C 0.32912 0.02801 0.83081 0.0
C490 C 0.47346 0.16941 0.63807 0.0
C491 C 0.45772 0.14539 0.63655 0.0
C492 C 0.42881 0.09037 0.78295 0.0
C493 C 0.36371 0.05005 0.7356 0.0
C494 C 0.38683 0.06973 0.72556 0.0
C495 C 0.44712 0.1343 0.71786 0.0
C496 C 0.42778 0.11075 0.7161 0.0
H497 H 0.31781 0.01505 0.60524 0.0
H498 H 0.35925 0.04255 0.59064 0.0
H499 H 0.40964 0.05481 0.84058 0.0
H500 H 0.4728 0.18083 0.86767 0.0
H501 H 0.44523 0.13931 0.86462 0.0
C502 C 0.83674 0.95919 0.82157 0.0
C503 C 0.81741 0.97045 0.88037 0.0
C504 C 0.85533 0.9406 0.85354 0.0
C505 C 0.88828 0.91513 0.0612 0.0
H506 H 0.9018 0.85223 0.91043 0.0
C507 C 0.94918 0.82542 0.19461 0.0
C508 C 0.96697 0.81216 0.13517 0.0
C509 C 0.93153 0.84487 0.16238 0.0
C510 C 0.89861 0.86984 0.95283 0.0
H511 H 0.80317 0.97123 0.02024 0.0
H512 H 0.83584 0.93857 0.07641 0.0
H513 H 0.86979 0.88582 0.85942 0.0
H514 H 0.97985 0.80915 0.99427 0.0
H515 H 0.94913 0.84357 0.93773 0.0
H516 H 0.9172 0.89929 0.15438 0.0
C517 C 0.83649 0.94434 0.00518 0.0
C518 C 0.88015 0.88911 0.92371 0.0
C519 C 0.81771 0.96302 0.97299 0.0
C520 C 0.96642 0.81886 0.04198 0.0
C521 C 0.94872 0.83854 0.00959 0.0
C522 C 0.90683 0.89593 0.09017 0.0
C523 C 0.8553 0.93264 0.94541 0.0
C524 C 0.87471 0.91199 0.97755 0.0
C525 C 0.93112 0.8519 0.06963 0.0
C526 C 0.91216 0.87292 0.03662 0.0
H527 H 0.83748 0.96452 0.74995 0.0
H528 H 0.86986 0.9325 0.80596 0.0
H529 H 0.88492 0.9327 0.10368 0.0
H530 H 0.94867 0.82072 0.26674 0.0
H531 H 0.91792 0.85415 0.21045 0.0
C532 C 0.01713 0.33389 0.29124 0.0
C533 C 0.02022 0.31577 0.21851 0.0
C534 C 0.03324 0.35755 0.29653 0.0
C535 C 0.08438 0.39985 0.16575 0.0
H536 H 0.10679 0.42148 0.40884 0.0
C537 C 0.16553 0.48416 0.2139 0.0
C538 C 0.18425 0.48076 0.28457 0.0
C539 C 0.14189 0.468 0.2099 0.0
C540 C 0.10104 0.41559 0.34031 0.0
H541 H 0.04203 0.30812 0.0934 0.0
H542 H 0.07138 0.34843 0.10493 0.0
H543 H 0.07322 0.38527 0.39028 0.0
H544 H 0.19296 0.45841 0.40754 0.0
H545 H 0.15268 0.42895 0.39806 0.0
H546 H 0.11397 0.42838 0.1156 0.0
C547 C 0.05585 0.34523 0.15635 0.0
C548 C 0.08123 0.39506 0.32954 0.0
C549 C 0.03916 0.32196 0.14979 0.0
C550 C 0.17865 0.46151 0.35277 0.0
C551 C 0.1554 0.44475 0.34739 0.0
C552 C 0.10469 0.41985 0.17647 0.0
C553 C 0.05341 0.36318 0.23061 0.0
C554 C 0.07285 0.38663 0.24203 0.0
C555 C 0.13689 0.44744 0.27491 0.0
C556 C 0.11359 0.42779 0.26393 0.0
H557 H 0.00236 0.32965 0.34451 0.0
H558 H 0.03009 0.37117 0.35322 0.0
H559 H 0.0781 0.39447 0.09725 0.0
H560 H 0.16934 0.49917 0.1611 0.0
H561 H 0.12783 0.47136 0.15471 0.0
C562 C 0.54194 0.665 0.67752 0.0
C563 C 0.53062 0.68432 0.61894 0.0
C564 C 0.56085 0.64671 0.64559 0.0
C565 C 0.587 0.61429 0.43791 0.0
H566 H 0.64941 0.6005 0.59027 0.0
C567 C 0.67614 0.55207 0.3069 0.0
C568 C 0.68873 0.53394 0.3667 0.0
C569 C 0.65716 0.57031 0.33864 0.0
C570 C 0.63195 0.60379 0.54739 0.0
H571 H 0.53014 0.69889 0.47949 0.0
H572 H 0.56337 0.66671 0.42336 0.0
H573 H 0.61576 0.6326 0.64067 0.0
H574 H 0.69125 0.52125 0.5078 0.0
H575 H 0.65762 0.55303 0.56354 0.0
H576 H 0.60299 0.58534 0.34496 0.0
C577 C 0.55738 0.66585 0.4944 0.0
C578 C 0.61266 0.62229 0.57615 0.0
C579 C 0.53838 0.68434 0.52657 0.0
C580 C 0.68204 0.53492 0.45987 0.0
C581 C 0.6628 0.55322 0.49177 0.0
C582 C 0.60623 0.5957 0.40929 0.0
C583 C 0.56909 0.64703 0.55397 0.0
C584 C 0.58992 0.62779 0.52182 0.0
C585 C 0.64993 0.571 0.43124 0.0
C586 C 0.62904 0.59024 0.46346 0.0
H587 H 0.53638 0.66402 0.74894 0.0
H588 H 0.56894 0.63216 0.69297 0.0
H589 H 0.56955 0.61769 0.39504 0.0
H590 H 0.68094 0.55228 0.2348 0.0
H591 H 0.64828 0.58407 0.29025 0.0
loop_
_geom_bond_atom_site_label_1
_geom_bond_atom_site_label_2
_geom_bond_distance
_geom_bond_site_symmetry_2
_ccdc_geom_bond_type
Co0 O1 2.216 . S
Co0 O2 2.091 . S
Co0 O4 2.004 . S
Co0 O10 2.021 . S
Co0 O12 2.137 . S
Co0 O13 2.244 . S
O1 Co0 2.216 . S
O1 C8 1.247 . S
O2 Co0 2.091 . S
O2 C8 1.261 . S
C3 O12 1.247 . S
C3 O13 1.272 . S
O4 Co0 2.004 . S
O4 C9 1.259 . S
Co5 O6 2.061 . S
Co5 O11 2.052 . S
Co5 O13 2.135 . S
O6 Co5 2.061 . S
O6 C9 1.235 . S
C7 O10 1.238 . S
C7 O11 1.241 . S
C8 O1 1.247 . S
C8 O2 1.261 . S
C9 O4 1.259 . S
C9 O6 1.235 . S
O10 Co0 2.021 . S
O10 C7 1.238 . S
O11 Co5 2.052 . S
O11 C7 1.241 . S
O12 Co0 2.137 . S
O12 C3 1.247 . S
O13 Co0 2.244 . S
O13 C3 1.272 . S
O13 Co5 2.135 . S
Co14 O15 2.216 . S
Co14 O16 2.091 . S
Co14 O18 2.004 . S
Co14 O24 2.021 . S
Co14 O26 2.137 . S
Co14 O27 2.244 . S
O15 Co14 2.216 . S
O15 C22 1.247 . S
O16 Co14 2.091 . S
O16 C22 1.261 . S
C17 O26 1.247 . S
C17 O27 1.272 . S
O18 Co14 2.004 . S
O18 C23 1.259 . S
Co19 O20 2.061 . S
Co19 O25 2.052 . S
Co19 O27 2.135 . S
O20 Co19 2.061 . S
O20 C23 1.235 . S
C21 O24 1.238 . S
C21 O25 1.241 . S
C22 O15 1.247 . S
C22 O16 1.261 . S
C23 O18 1.259 . S
C23 O20 1.235 . S
O24 Co14 2.021 . S
O24 C21 1.238 . S
O25 Co19 2.052 . S
O25 C21 1.241 . S
O26 Co14 2.137 . S
O26 C17 1.247 . S
O27 Co14 2.244 . S
O27 C17 1.272 . S
O27 Co19 2.135 . S
Co28 O29 2.216 . S
Co28 O30 2.091 1_556 S
Co28 O32 2.004 . S
Co28 O38 2.021 1_565 S
Co28 O40 2.137 . S
Co28 O41 2.244 . S
O29 Co28 2.216 . S
O29 C36 1.247 . S
O30 Co28 2.091 1_554 S
O30 C36 1.261 1_554 S
C31 O40 1.247 . S
C31 O41 1.272 . S
O32 Co28 2.004 . S
O32 C37 1.259 1_565 S
Co33 O34 2.061 . S
Co33 O39 2.052 . S
Co33 O41 2.135 1_545 S
O34 Co33 2.061 . S
O34 C37 1.235 . S
C35 O38 1.238 . S
C35 O39 1.241 . S
C36 O29 1.247 . S
C36 O30 1.261 1_556 S
C37 O32 1.259 1_545 S
C37 O34 1.235 . S
O38 Co28 2.021 1_545 S
O38 C35 1.238 . S
O39 Co33 2.052 . S
O39 C35 1.241 . S
O40 Co28 2.137 . S
O40 C31 1.247 . S
O41 Co28 2.244 . S
O41 C31 1.272 . S
O41 Co33 2.135 1_565 S
Co42 O43 2.216 . S
Co42 O44 2.091 1_554 S
Co42 O46 2.004 . S
Co42 O52 2.021 1_455 S
Co42 O54 2.137 . S
Co42 O55 2.244 . S
O43 Co42 2.216 . S
O43 C50 1.247 . S
O44 Co42 2.091 1_556 S
O44 C50 1.261 1_556 S
C45 O54 1.247 . S
C45 O55 1.272 . S
O46 Co42 2.004 . S
O46 C51 1.259 1_455 S
Co47 O48 2.061 . S
Co47 O53 2.052 . S
Co47 O55 2.135 1_655 S
O48 Co47 2.061 . S
O48 C51 1.235 . S
C49 O52 1.238 . S
C49 O53 1.241 . S
C50 O43 1.247 . S
C50 O44 1.261 1_554 S
C51 O46 1.259 1_655 S
C51 O48 1.235 . S
O52 Co42 2.021 1_655 S
O52 C49 1.238 . S
O53 Co47 2.052 . S
O53 C49 1.241 . S
O54 Co42 2.137 . S
O54 C45 1.247 . S
O55 Co42 2.244 . S
O55 C45 1.272 . S
O55 Co47 2.135 1_455 S
Co56 O57 2.216 . S
Co56 O58 2.091 1_556 S
Co56 O60 2.004 . S
Co56 O66 2.021 1_545 S
Co56 O68 2.137 . S
Co56 O69 2.244 . S
O57 Co56 2.216 . S
O57 C64 1.247 . S
O58 Co56 2.091 1_554 S
O58 C64 1.261 1_554 S
C59 O68 1.247 . S
C59 O69 1.272 . S
O60 Co56 2.004 . S
O60 C65 1.259 1_545 S
Co61 O62 2.061 . S
Co61 O67 2.052 . S
Co61 O69 2.135 1_565 S
O62 Co61 2.061 . S
O62 C65 1.235 . S
C63 O66 1.238 . S
C63 O67 1.241 . S
C64 O57 1.247 . S
C64 O58 1.261 1_556 S
C65 O60 1.259 1_565 S
C65 O62 1.235 . S
O66 Co56 2.021 1_565 S
O66 C63 1.238 . S
O67 Co61 2.052 . S
O67 C63 1.241 . S
O68 Co56 2.137 . S
O68 C59 1.247 . S
O69 Co56 2.244 . S
O69 C59 1.272 . S
O69 Co61 2.135 1_545 S
Co70 O71 2.216 . S
Co70 O72 2.091 1_554 S
Co70 O74 2.004 . S
Co70 O80 2.021 1_655 S
Co70 O82 2.137 . S
Co70 O83 2.244 . S
O71 Co70 2.216 . S
O71 C78 1.247 . S
O72 Co70 2.091 1_556 S
O72 C78 1.261 1_556 S
C73 O82 1.247 . S
C73 O83 1.272 . S
O74 Co70 2.004 . S
O74 C79 1.259 1_655 S
Co75 O76 2.061 . S
Co75 O81 2.052 . S
Co75 O83 2.135 1_455 S
O76 Co75 2.061 . S
O76 C79 1.235 . S
C77 O80 1.238 . S
C77 O81 1.241 . S
C78 O71 1.247 . S
C78 O72 1.261 1_554 S
C79 O74 1.259 1_455 S
C79 O76 1.235 . S
O80 Co70 2.021 1_455 S
O80 C77 1.238 . S
O81 Co75 2.052 . S
O81 C77 1.241 . S
O82 Co70 2.137 . S
O82 C73 1.247 . S
O83 Co70 2.244 . S
O83 C73 1.272 . S
O83 Co75 2.135 1_655 S
Co84 O85 2.216 . S
Co84 O86 2.091 . S
Co84 O88 2.004 . S
Co84 O94 2.021 . S
Co84 O96 2.137 . S
Co84 O97 2.244 . S
O85 Co84 2.216 . S
O85 C92 1.247 . S
O86 Co84 2.091 . S
O86 C92 1.261 . S
C87 O96 1.247 . S
C87 O97 1.272 . S
O88 Co84 2.004 . S
O88 C93 1.259 . S
Co89 O90 2.061 . S
Co89 O95 2.052 . S
Co89 O97 2.135 . S
O90 Co89 2.061 . S
O90 C93 1.235 . S
C91 O94 1.238 . S
C91 O95 1.241 . S
C92 O85 1.247 . S
C92 O86 1.261 . S
C93 O88 1.259 . S
C93 O90 1.235 . S
O94 Co84 2.021 . S
O94 C91 1.238 . S
O95 Co89 2.052 . S
O95 C91 1.241 . S
O96 Co84 2.137 . S
O96 C87 1.247 . S
O97 Co84 2.244 . S
O97 C87 1.272 . S
O97 Co89 2.135 . S
Co98 O99 2.216 . S
Co98 O100 2.091 . S
Co98 O102 2.004 . S
Co98 O108 2.021 . S
Co98 O110 2.137 . S
Co98 O111 2.244 . S
O99 Co98 2.216 . S
O99 C106 1.247 . S
O100 Co98 2.091 . S
O100 C106 1.261 . S
C101 O110 1.247 . S
C101 O111 1.272 . S
O102 Co98 2.004 . S
O102 C107 1.259 . S
Co103 O104 2.061 . S
Co103 O109 2.052 . S
Co103 O111 2.135 . S
O104 Co103 2.061 . S
O104 C107 1.235 . S
C105 O108 1.238 . S
C105 O109 1.241 . S
C106 O99 1.247 . S
C106 O100 1.261 . S
C107 O102 1.259 . S
C107 O104 1.235 . S
O108 Co98 2.021 . S
O108 C105 1.238 . S
O109 Co103 2.052 . S
O109 C105 1.241 . S
O110 Co98 2.137 . S
O110 C101 1.247 . S
O111 Co98 2.244 . S
O111 C101 1.272 . S
O111 Co103 2.135 . S
C112 C113 1.349 . S
C112 C114 1.327 . S
C112 H137 0.950 . S
C113 C112 1.349 . S
C113 C129 1.349 . S
C114 C112 1.327 . S
C114 C133 1.429 . S
C114 H138 0.950 . S
C115 C132 1.574 . S
C115 C134 1.368 1_554 S
C115 H139 0.949 . S
H116 C120 0.949 . S
C117 C118 1.349 . S
C117 C119 1.327 . S
C117 H140 0.950 . S
C118 C117 1.349 . S
C118 C130 1.349 . S
C119 C117 1.327 . S
C119 C135 1.429 . S
C119 H141 0.950 . S
C120 H116 0.949 . S
C120 C128 1.574 . S
C120 C136 1.368 1_556 S
H121 C129 0.950 . S
H122 C127 0.950 . S
H123 C128 0.949 . S
H124 C130 0.950 . S
H125 C131 0.950 . S
H126 C132 0.949 . S
C127 H122 0.950 . S
C127 C129 1.327 . S
C127 C133 1.429 . S
C128 C120 1.574 . S
C128 H123 0.949 . S
C128 C134 1.368 . S
C129 C113 1.349 . S
C129 H121 0.950 . S
C129 C127 1.327 . S
C130 C118 1.349 . S
C130 H124 0.950 . S
C130 C131 1.327 . S
C131 H125 0.950 . S
C131 C130 1.327 . S
C131 C135 1.429 . S
C132 C115 1.574 . S
C132 H126 0.949 . S
C132 C136 1.368 . S
C133 C114 1.429 . S
C133 C127 1.429 . S
C133 C134 1.523 . S
C134 C115 1.368 1_556 S
C134 C128 1.368 . S
C134 C133 1.523 . S
C135 C119 1.429 . S
C135 C131 1.429 . S
C135 C136 1.523 . S
C136 C120 1.368 1_554 S
C136 C132 1.368 . S
C136 C135 1.523 . S
H137 C112 0.950 . S
H138 C114 0.950 . S
H139 C115 0.949 . S
H140 C117 0.950 . S
H141 C119 0.950 . S
C142 C143 1.349 . S
C142 C144 1.327 . S
C142 H167 0.950 . S
C143 C142 1.349 . S
C143 C159 1.349 . S
C144 C142 1.327 . S
C144 C163 1.429 . S
C144 H168 0.950 . S
C145 C162 1.574 . S
C145 C164 1.368 . S
C145 H169 0.949 . S
H146 C150 0.949 . S
C147 C148 1.349 . S
C147 C149 1.327 . S
C147 H170 0.950 . S
C148 C147 1.349 . S
C148 C160 1.349 . S
C149 C147 1.327 . S
C149 C165 1.429 . S
C149 H171 0.950 . S
C150 H146 0.949 . S
C150 C158 1.574 . S
C150 C166 1.368 . S
H151 C159 0.950 . S
H152 C157 0.950 . S
H153 C158 0.949 . S
H154 C160 0.950 1_556 S
H155 C161 0.950 . S
H156 C162 0.949 . S
C157 H152 0.950 . S
C157 C159 1.327 . S
C157 C163 1.429 . S
C158 C150 1.574 . S
C158 H153 0.949 . S
C158 C164 1.368 . S
C159 C143 1.349 . S
C159 H151 0.950 . S
C159 C157 1.327 . S
C160 C148 1.349 . S
C160 H154 0.950 1_554 S
C160 C161 1.327 . S
C161 H155 0.950 . S
C161 C160 1.327 . S
C161 C165 1.429 . S
C162 C145 1.574 . S
C162 H156 0.949 . S
C162 C166 1.368 . S
C163 C144 1.429 . S
C163 C157 1.429 . S
C163 C164 1.523 . S
C164 C145 1.368 . S
C164 C158 1.368 . S
C164 C163 1.523 . S
C165 C149 1.429 . S
C165 C161 1.429 . S
C165 C166 1.523 . S
C166 C150 1.368 . S
C166 C162 1.368 . S
C166 C165 1.523 . S
H167 C142 0.950 . S
H168 C144 0.950 . S
H169 C145 0.949 . S
H170 C147 0.950 . S
H171 C149 0.950 . S
C172 C173 1.349 . S
C172 C174 1.327 . S
C172 H197 0.950 . S
C173 C172 1.349 . S
C173 C189 1.349 . S
C174 C172 1.327 . S
C174 C193 1.429 . S
C174 H198 0.950 . S
C175 C192 1.574 . S
C175 C194 1.368 . S
C175 H199 0.949 . S
H176 C180 0.949 . S
C177 C178 1.349 . S
C177 C179 1.327 . S
C177 H200 0.950 . S
C178 C177 1.349 . S
C178 C190 1.349 . S
C179 C177 1.327 . S
C179 C195 1.429 . S
C179 H201 0.950 . S
C180 H176 0.949 . S
C180 C188 1.574 . S
C180 C196 1.368 . S
H181 C189 0.950 . S
H182 C187 0.950 . S
H183 C188 0.949 . S
H184 C190 0.950 . S
H185 C191 0.950 . S
H186 C192 0.949 . S
C187 H182 0.950 . S
C187 C189 1.327 . S
C187 C193 1.429 . S
C188 C180 1.574 . S
C188 H183 0.949 . S
C188 C194 1.368 . S
C189 C173 1.349 . S
C189 H181 0.950 . S
C189 C187 1.327 . S
C190 C178 1.349 . S
C190 H184 0.950 . S
C190 C191 1.327 . S
C191 H185 0.950 . S
C191 C190 1.327 . S
C191 C195 1.429 . S
C192 C175 1.574 . S
C192 H186 0.949 . S
C192 C196 1.368 . S
C193 C174 1.429 . S
C193 C187 1.429 . S
C193 C194 1.523 . S
C194 C175 1.368 . S
C194 C188 1.368 . S
C194 C193 1.523 . S
C195 C179 1.429 . S
C195 C191 1.429 . S
C195 C196 1.523 . S
C196 C180 1.368 . S
C196 C192 1.368 . S
C196 C195 1.523 . S
H197 C172 0.950 . S
H198 C174 0.950 . S
H199 C175 0.949 . S
H200 C177 0.950 . S
H201 C179 0.950 . S
C202 C203 1.349 . S
C202 C204 1.327 . S
C202 H227 0.950 . S
C203 C202 1.349 . S
C203 C219 1.349 . S
C204 C202 1.327 . S
C204 C223 1.429 . S
C204 H228 0.950 . S
C205 C222 1.574 . S
C205 C224 1.368 . S
C205 H229 0.949 . S
H206 C210 0.949 . S
C207 C208 1.349 . S
C207 C209 1.327 . S
C207 H230 0.950 . S
C208 C207 1.349 . S
C208 C220 1.349 . S
C209 C207 1.327 . S
C209 C225 1.429 . S
C209 H231 0.950 . S
C210 H206 0.949 . S
C210 C218 1.574 . S
C210 C226 1.368 . S
H211 C219 0.950 1_554 S
H212 C217 0.950 . S
H213 C218 0.949 . S
H214 C220 0.950 . S
H215 C221 0.950 . S
H216 C222 0.949 . S
C217 H212 0.950 . S
C217 C219 1.327 . S
C217 C223 1.429 . S
C218 C210 1.574 . S
C218 H213 0.949 . S
C218 C224 1.368 . S
C219 C203 1.349 . S
C219 H211 0.950 1_556 S
C219 C217 1.327 . S
C220 C208 1.349 . S
C220 H214 0.950 . S
C220 C221 1.327 . S
C221 H215 0.950 . S
C221 C220 1.327 . S
C221 C225 1.429 . S
C222 C205 1.574 . S
C222 H216 0.949 . S
C222 C226 1.368 . S
C223 C204 1.429 . S
C223 C217 1.429 . S
C223 C224 1.523 . S
C224 C205 1.368 . S
C224 C218 1.368 . S
C224 C223 1.523 . S
C225 C209 1.429 . S
C225 C221 1.429 . S
C225 C226 1.523 . S
C226 C210 1.368 . S
C226 C222 1.368 . S
C226 C225 1.523 . S
H227 C202 0.950 . S
H228 C204 0.950 . S
H229 C205 0.949 . S
H230 C207 0.950 . S
H231 C209 0.950 . S
C232 C233 1.349 . S
C232 C234 1.327 . S
C232 H257 0.950 . S
C233 C232 1.349 . S
C233 C249 1.349 . S
C234 C232 1.327 . S
C234 C253 1.429 . S
C234 H258 0.950 . S
C235 C252 1.574 . S
C235 C254 1.368 . S
C235 H259 0.949 . S
H236 C240 0.949 . S
C237 C238 1.349 . S
C237 C239 1.327 . S
C237 H260 0.950 . S
C238 C237 1.349 . S
C238 C250 1.349 . S
C239 C237 1.327 . S
C239 C255 1.429 . S
C239 H261 0.950 . S
C240 H236 0.949 . S
C240 C248 1.574 . S
C240 C256 1.368 . S
H241 C249 0.950 . S
H242 C247 0.950 . S
H243 C248 0.949 . S
H244 C250 0.950 . S
H245 C251 0.950 . S
H246 C252 0.949 . S
C247 H242 0.950 . S
C247 C249 1.327 . S
C247 C253 1.429 . S
C248 C240 1.574 . S
C248 H243 0.949 . S
C248 C254 1.368 . S
C249 C233 1.349 . S
C249 H241 0.950 . S
C249 C247 1.327 . S
C250 C238 1.349 . S
C250 H244 0.950 . S
C250 C251 1.327 . S
C251 H245 0.950 . S
C251 C250 1.327 . S
C251 C255 1.429 . S
C252 C235 1.574 . S
C252 H246 0.949 . S
C252 C256 1.368 . S
C253 C234 1.429 . S
C253 C247 1.429 . S
C253 C254 1.523 . S
C254 C235 1.368 . S
C254 C248 1.368 . S
C254 C253 1.523 . S
C255 C239 1.429 . S
C255 C251 1.429 . S
C255 C256 1.523 . S
C256 C240 1.368 . S
C256 C252 1.368 . S
C256 C255 1.523 . S
H257 C232 0.950 . S
H258 C234 0.950 . S
H259 C235 0.949 . S
H260 C237 0.950 . S
H261 C239 0.950 . S
C262 C263 1.349 . S
C262 C264 1.327 . S
C262 H287 0.950 . S
C263 C262 1.349 . S
C263 C279 1.349 . S
C264 C262 1.327 . S
C264 C283 1.429 . S
C264 H288 0.950 . S
C265 C282 1.574 . S
C265 C284 1.368 . S
C265 H289 0.949 . S
H266 C270 0.949 . S
C267 C268 1.349 . S
C267 C269 1.327 . S
C267 H290 0.950 . S
C268 C267 1.349 . S
C268 C280 1.349 . S
C269 C267 1.327 . S
C269 C285 1.429 . S
C269 H291 0.950 . S
C270 H266 0.949 . S
C270 C278 1.574 . S
C270 C286 1.368 . S
H271 C279 0.950 1_554 S
H272 C277 0.950 . S
H273 C278 0.949 . S
H274 C280 0.950 . S
H275 C281 0.950 . S
H276 C282 0.949 . S
C277 H272 0.950 . S
C277 C279 1.327 . S
C277 C283 1.429 . S
C278 C270 1.574 . S
C278 H273 0.949 . S
C278 C284 1.368 . S
C279 C263 1.349 . S
C279 H271 0.950 1_556 S
C279 C277 1.327 . S
C280 C268 1.349 . S
C280 H274 0.950 . S
C280 C281 1.327 . S
C281 H275 0.950 . S
C281 C280 1.327 . S
C281 C285 1.429 . S
C282 C265 1.574 . S
C282 H276 0.949 . S
C282 C286 1.368 . S
C283 C264 1.429 . S
C283 C277 1.429 . S
C283 C284 1.523 . S
C284 C265 1.368 . S
C284 C278 1.368 . S
C284 C283 1.523 . S
C285 C269 1.429 . S
C285 C281 1.429 . S
C285 C286 1.523 . S
C286 C270 1.368 . S
C286 C282 1.368 . S
C286 C285 1.523 . S
H287 C262 0.950 . S
H288 C264 0.950 . S
H289 C265 0.949 . S
H290 C267 0.950 . S
H291 C269 0.950 . S
C292 C293 1.349 . S
C292 C294 1.327 . S
C292 H317 0.950 . S
C293 C292 1.349 . S
C293 C309 1.349 . S
C294 C292 1.327 . S
C294 C313 1.429 . S
C294 H318 0.950 . S
C295 C312 1.574 . S
C295 C314 1.368 . S
C295 H319 0.949 . S
H296 C300 0.949 . S
C297 C298 1.349 . S
C297 C299 1.327 . S
C297 H320 0.950 . S
C298 C297 1.349 . S
C298 C310 1.349 . S
C299 C297 1.327 . S
C299 C315 1.429 . S
C299 H321 0.950 . S
C300 H296 0.949 . S
C300 C308 1.574 . S
C300 C316 1.368 . S
H301 C309 0.950 . S
H302 C307 0.950 . S
H303 C308 0.949 . S
H304 C310 0.950 . S
H305 C311 0.950 . S
H306 C312 0.949 . S
C307 H302 0.950 . S
C307 C309 1.327 . S
C307 C313 1.429 . S
C308 C300 1.574 . S
C308 H303 0.949 . S
C308 C314 1.368 1_556 S
C309 C293 1.349 . S
C309 H301 0.950 . S
C309 C307 1.327 . S
C310 C298 1.349 . S
C310 H304 0.950 . S
C310 C311 1.327 . S
C311 H305 0.950 . S
C311 C310 1.327 . S
C311 C315 1.429 . S
C312 C295 1.574 . S
C312 H306 0.949 . S
C312 C316 1.368 1_554 S
C313 C294 1.429 . S
C313 C307 1.429 . S
C313 C314 1.523 . S
C314 C295 1.368 . S
C314 C308 1.368 1_554 S
C314 C313 1.523 . S
C315 C299 1.429 . S
C315 C311 1.429 . S
C315 C316 1.523 . S
C316 C300 1.368 . S
C316 C312 1.368 1_556 S
C316 C315 1.523 . S
H317 C292 0.950 . S
H318 C294 0.950 . S
H319 C295 0.949 . S
H320 C297 0.950 . S
H321 C299 0.950 . S
C322 C323 1.349 . S
C322 C324 1.327 . S
C322 H347 0.950 1_554 S
C323 C322 1.349 . S
C323 C339 1.349 . S
C324 C322 1.327 . S
C324 C343 1.429 . S
C324 H348 0.950 . S
C325 C342 1.574 . S
C325 C344 1.368 . S
C325 H349 0.949 . S
H326 C330 0.949 . S
C327 C328 1.349 . S
C327 C329 1.327 . S
C327 H350 0.950 . S
C328 C327 1.349 . S
C328 C340 1.349 . S
C329 C327 1.327 . S
C329 C345 1.429 . S
C329 H351 0.950 . S
C330 H326 0.949 . S
C330 C338 1.574 . S
C330 C346 1.368 . S
H331 C339 0.950 . S
H332 C337 0.950 . S
H333 C338 0.949 . S
H334 C340 0.950 . S
H335 C341 0.950 . S
H336 C342 0.949 . S
C337 H332 0.950 . S
C337 C339 1.327 . S
C337 C343 1.429 . S
C338 C330 1.574 . S
C338 H333 0.949 . S
C338 C344 1.368 . S
C339 C323 1.349 . S
C339 H331 0.950 . S
C339 C337 1.327 . S
C340 C328 1.349 . S
C340 H334 0.950 . S
C340 C341 1.327 . S
C341 H335 0.950 . S
C341 C340 1.327 . S
C341 C345 1.429 . S
C342 C325 1.574 . S
C342 H336 0.949 . S
C342 C346 1.368 . S
C343 C324 1.429 . S
C343 C337 1.429 . S
C343 C344 1.523 . S
C344 C325 1.368 . S
C344 C338 1.368 . S
C344 C343 1.523 . S
C345 C329 1.429 . S
C345 C341 1.429 . S
C345 C346 1.523 . S
C346 C330 1.368 . S
C346 C342 1.368 . S
C346 C345 1.523 . S
H347 C322 0.950 1_556 S
H348 C324 0.950 . S
H349 C325 0.949 . S
H350 C327 0.950 . S
H351 C329 0.950 . S
C352 C353 1.349 . S
C352 C354 1.327 . S
C352 H377 0.950 . S
C353 C352 1.349 . S
C353 C369 1.349 . S
C354 C352 1.327 . S
C354 C373 1.429 . S
C354 H378 0.950 . S
C355 C372 1.574 . S
C355 C374 1.368 . S
C355 H379 0.949 . S
H356 C360 0.949 . S
C357 C358 1.349 . S
C357 C359 1.327 . S
C357 H380 0.950 . S
C358 C357 1.349 . S
C358 C370 1.349 . S
C359 C357 1.327 . S
C359 C375 1.429 . S
C359 H381 0.950 . S
C360 H356 0.949 . S
C360 C368 1.574 . S
C360 C376 1.368 . S
H361 C369 0.950 . S
H362 C367 0.950 . S
H363 C368 0.949 . S
H364 C370 0.950 . S
H365 C371 0.950 . S
H366 C372 0.949 . S
C367 H362 0.950 . S
C367 C369 1.327 . S
C367 C373 1.429 . S
C368 C360 1.574 . S
C368 H363 0.949 . S
C368 C374 1.368 . S
C369 C353 1.349 . S
C369 H361 0.950 . S
C369 C367 1.327 . S
C370 C358 1.349 . S
C370 H364 0.950 . S
C370 C371 1.327 . S
C371 H365 0.950 . S
C371 C370 1.327 . S
C371 C375 1.429 . S
C372 C355 1.574 . S
C372 H366 0.949 . S
C372 C376 1.368 . S
C373 C354 1.429 . S
C373 C367 1.429 . S
C373 C374 1.523 . S
C374 C355 1.368 . S
C374 C368 1.368 . S
C374 C373 1.523 . S
C375 C359 1.429 . S
C375 C371 1.429 . S
C375 C376 1.523 . S
C376 C360 1.368 . S
C376 C372 1.368 . S
C376 C375 1.523 . S
H377 C352 0.950 . S
H378 C354 0.950 . S
H379 C355 0.949 . S
H380 C357 0.950 . S
H381 C359 0.950 . S
C382 C383 1.349 . S
C382 C384 1.327 . S
C382 H407 0.950 . S
C383 C382 1.349 . S
C383 C399 1.349 . S
C384 C382 1.327 . S
C384 C403 1.429 . S
C384 H408 0.950 . S
C385 C402 1.574 . S
C385 C404 1.368 . S
C385 H409 0.949 . S
H386 C390 0.949 . S
C387 C388 1.349 . S
C387 C389 1.327 . S
C387 H410 0.950 . S
C388 C387 1.349 . S
C388 C400 1.349 . S
C389 C387 1.327 . S
C389 C405 1.429 . S
C389 H411 0.950 . S
C390 H386 0.949 . S
C390 C398 1.574 . S
C390 C406 1.368 . S
H391 C399 0.950 . S
H392 C397 0.950 . S
H393 C398 0.949 . S
H394 C400 0.950 . S
H395 C401 0.950 . S
H396 C402 0.949 . S
C397 H392 0.950 . S
C397 C399 1.327 . S
C397 C403 1.429 . S
C398 C390 1.574 . S
C398 H393 0.949 . S
C398 C404 1.368 . S
C399 C383 1.349 . S
C399 H391 0.950 . S
C399 C397 1.327 . S
C400 C388 1.349 . S
C400 H394 0.950 . S
C400 C401 1.327 . S
C401 H395 0.950 . S
C401 C400 1.327 . S
C401 C405 1.429 . S
C402 C385 1.574 . S
C402 H396 0.949 . S
C402 C406 1.368 . S
C403 C384 1.429 . S
C403 C397 1.429 . S
C403 C404 1.523 . S
C404 C385 1.368 . S
C404 C398 1.368 . S
C404 C403 1.523 . S
C405 C389 1.429 . S
C405 C401 1.429 . S
C405 C406 1.523 . S
C406 C390 1.368 . S
C406 C402 1.368 . S
C406 C405 1.523 . S
H407 C382 0.950 . S
H408 C384 0.950 . S
H409 C385 0.949 . S
H410 C387 0.950 . S
H411 C389 0.950 . S
C412 C413 1.349 . S
C412 C414 1.327 . S
C412 H437 0.950 . S
C413 C412 1.349 . S
C413 C429 1.349 . S
C414 C412 1.327 . S
C414 C433 1.429 . S
C414 H438 0.950 1_554 S
C415 C432 1.574 . S
C415 C434 1.368 . S
C415 H439 0.949 . S
H416 C420 0.949 . S
C417 C418 1.349 . S
C417 C419 1.327 . S
C417 H440 0.950 . S
C418 C417 1.349 . S
C418 C430 1.349 . S
C419 C417 1.327 . S
C419 C435 1.429 . S
C419 H441 0.950 1_556 S
C420 H416 0.949 . S
C420 C428 1.574 . S
C420 C436 1.368 . S
H421 C429 0.950 . S
H422 C427 0.950 . S
H423 C428 0.949 . S
H424 C430 0.950 . S
H425 C431 0.950 . S
H426 C432 0.949 . S
C427 H422 0.950 . S
C427 C429 1.327 . S
C427 C433 1.429 . S
C428 C420 1.574 . S
C428 H423 0.949 . S
C428 C434 1.368 1_556 S
C429 C413 1.349 . S
C429 H421 0.950 . S
C429 C427 1.327 . S
C430 C418 1.349 . S
C430 H424 0.950 . S
C430 C431 1.327 . S
C431 H425 0.950 . S
C431 C430 1.327 . S
C431 C435 1.429 . S
C432 C415 1.574 . S
C432 H426 0.949 . S
C432 C436 1.368 1_554 S
C433 C414 1.429 . S
C433 C427 1.429 . S
C433 C434 1.523 . S
C434 C415 1.368 . S
C434 C428 1.368 1_554 S
C434 C433 1.523 . S
C435 C419 1.429 . S
C435 C431 1.429 . S
C435 C436 1.523 . S
C436 C420 1.368 . S
C436 C432 1.368 1_556 S
C436 C435 1.523 . S
H437 C412 0.950 . S
H438 C414 0.950 1_556 S
H439 C415 0.949 . S
H440 C417 0.950 . S
H441 C419 0.950 1_554 S
C442 C443 1.349 . S
C442 C444 1.327 . S
C442 H467 0.950 . S
C443 C442 1.349 . S
C443 C459 1.349 . S
C444 C442 1.327 . S
C444 C463 1.429 . S
C444 H468 0.950 . S
C445 C462 1.574 . S
C445 C464 1.368 . S
C445 H469 0.949 . S
H446 C450 0.949 . S
C447 C448 1.349 . S
C447 C449 1.327 . S
C447 H470 0.950 . S
C448 C447 1.349 . S
C448 C460 1.349 . S
C449 C447 1.327 . S
C449 C465 1.429 . S
C449 H471 0.950 . S
C450 H446 0.949 . S
C450 C458 1.574 . S
C450 C466 1.368 . S
H451 C459 0.950 . S
H452 C457 0.950 . S
H453 C458 0.949 . S
H454 C460 0.950 . S
H455 C461 0.950 . S
H456 C462 0.949 . S
C457 H452 0.950 . S
C457 C459 1.327 . S
C457 C463 1.429 . S
C458 C450 1.574 . S
C458 H453 0.949 . S
C458 C464 1.368 . S
C459 C443 1.349 . S
C459 H451 0.950 . S
C459 C457 1.327 . S
C460 C448 1.349 . S
C460 H454 0.950 . S
C460 C461 1.327 . S
C461 H455 0.950 . S
C461 C460 1.327 . S
C461 C465 1.429 . S
C462 C445 1.574 . S
C462 H456 0.949 . S
C462 C466 1.368 . S
C463 C444 1.429 . S
C463 C457 1.429 . S
C463 C464 1.523 . S
C464 C445 1.368 . S
C464 C458 1.368 . S
C464 C463 1.523 . S
C465 C449 1.429 . S
C465 C461 1.429 . S
C465 C466 1.523 . S
C466 C450 1.368 . S
C466 C462 1.368 . S
C466 C465 1.523 . S
H467 C442 0.950 . S
H468 C444 0.950 . S
H469 C445 0.949 . S
H470 C447 0.950 . S
H471 C449 0.950 . S
C472 C473 1.349 . S
C472 C474 1.327 . S
C472 H497 0.950 . S
C473 C472 1.349 . S
C473 C489 1.349 . S
C474 C472 1.327 . S
C474 C493 1.429 . S
C474 H498 0.950 . S
C475 C492 1.574 . S
C475 C494 1.368 . S
C475 H499 0.949 . S
H476 C480 0.949 . S
C477 C478 1.349 . S
C477 C479 1.327 . S
C477 H500 0.950 . S
C478 C477 1.349 . S
C478 C490 1.349 . S
C479 C477 1.327 . S
C479 C495 1.429 . S
C479 H501 0.950 . S
C480 H476 0.949 . S
C480 C488 1.574 . S
C480 C496 1.368 . S
H481 C489 0.950 . S
H482 C487 0.950 . S
H483 C488 0.949 . S
H484 C490 0.950 . S
H485 C491 0.950 . S
H486 C492 0.949 . S
C487 H482 0.950 . S
C487 C489 1.327 . S
C487 C493 1.429 . S
C488 C480 1.574 . S
C488 H483 0.949 . S
C488 C494 1.368 . S
C489 C473 1.349 . S
C489 H481 0.950 . S
C489 C487 1.327 . S
C490 C478 1.349 . S
C490 H484 0.950 . S
C490 C491 1.327 . S
C491 H485 0.950 . S
C491 C490 1.327 . S
C491 C495 1.429 . S
C492 C475 1.574 . S
C492 H486 0.949 . S
C492 C496 1.368 . S
C493 C474 1.429 . S
C493 C487 1.429 . S
C493 C494 1.523 . S
C494 C475 1.368 . S
C494 C488 1.368 . S
C494 C493 1.523 . S
C495 C479 1.429 . S
C495 C491 1.429 . S
C495 C496 1.523 . S
C496 C480 1.368 . S
C496 C492 1.368 . S
C496 C495 1.523 . S
H497 C472 0.950 . S
H498 C474 0.950 . S
H499 C475 0.949 . S
H500 C477 0.950 . S
H501 C479 0.950 . S
C502 C503 1.349 . S
C502 C504 1.327 . S
C502 H527 0.950 . S
C503 C502 1.349 . S
C503 C519 1.349 1_556 S
C504 C502 1.327 . S
C504 C523 1.429 . S
C504 H528 0.950 . S
C505 C522 1.574 . S
C505 C524 1.368 1_554 S
C505 H529 0.949 . S
H506 C510 0.949 . S
C507 C508 1.349 . S
C507 C509 1.327 . S
C507 H530 0.950 . S
C508 C507 1.349 . S
C508 C520 1.349 1_554 S
C509 C507 1.327 . S
C509 C525 1.429 . S
C509 H531 0.950 . S
C510 H506 0.949 . S
C510 C518 1.574 . S
C510 C526 1.368 1_556 S
H511 C519 0.950 . S
H512 C517 0.950 . S
H513 C518 0.949 . S
H514 C520 0.950 . S
H515 C521 0.950 . S
H516 C522 0.949 . S
C517 H512 0.950 . S
C517 C519 1.327 . S
C517 C523 1.429 1_554 S
C518 C510 1.574 . S
C518 H513 0.949 . S
C518 C524 1.368 . S
C519 C503 1.349 1_554 S
C519 H511 0.950 . S
C519 C517 1.327 . S
C520 C508 1.349 1_556 S
C520 H514 0.950 . S
C520 C521 1.327 . S
C521 H515 0.950 . S
C521 C520 1.327 . S
C521 C525 1.429 1_556 S
C522 C505 1.574 . S
C522 H516 0.949 . S
C522 C526 1.368 . S
C523 C504 1.429 . S
C523 C517 1.429 1_556 S
C523 C524 1.523 . S
C524 C505 1.368 1_556 S
C524 C518 1.368 . S
C524 C523 1.523 . S
C525 C509 1.429 . S
C525 C521 1.429 1_554 S
C525 C526 1.523 . S
C526 C510 1.368 1_554 S
C526 C522 1.368 . S
C526 C525 1.523 . S
H527 C502 0.950 . S
H528 C504 0.950 . S
H529 C505 0.949 . S
H530 C507 0.950 . S
H531 C509 0.950 . S
C532 C533 1.349 . S
C532 C534 1.327 . S
C532 H557 0.950 . S
C533 C532 1.349 . S
C533 C549 1.349 . S
C534 C532 1.327 . S
C534 C553 1.429 . S
C534 H558 0.950 . S
C535 C552 1.574 . S
C535 C554 1.368 . S
C535 H559 0.949 . S
H536 C540 0.949 . S
C537 C538 1.349 . S
C537 C539 1.327 . S
C537 H560 0.950 . S
C538 C537 1.349 . S
C538 C550 1.349 . S
C539 C537 1.327 . S
C539 C555 1.429 . S
C539 H561 0.950 . S
C540 H536 0.949 . S
C540 C548 1.574 . S
C540 C556 1.368 . S
H541 C549 0.950 . S
H542 C547 0.950 . S
H543 C548 0.949 . S
H544 C550 0.950 . S
H545 C551 0.950 . S
H546 C552 0.949 . S
C547 H542 0.950 . S
C547 C549 1.327 . S
C547 C553 1.429 . S
C548 C540 1.574 . S
C548 H543 0.949 . S
C548 C554 1.368 . S
C549 C533 1.349 . S
C549 H541 0.950 . S
C549 C547 1.327 . S
C550 C538 1.349 . S
C550 H544 0.950 . S
C550 C551 1.327 . S
C551 H545 0.950 . S
C551 C550 1.327 . S
C551 C555 1.429 . S
C552 C535 1.574 . S
C552 H546 0.949 . S
C552 C556 1.368 . S
C553 C534 1.429 . S
C553 C547 1.429 . S
C553 C554 1.523 . S
C554 C535 1.368 . S
C554 C548 1.368 . S
C554 C553 1.523 . S
C555 C539 1.429 . S
C555 C551 1.429 . S
C555 C556 1.523 . S
C556 C540 1.368 . S
C556 C552 1.368 . S
C556 C555 1.523 . S
H557 C532 0.950 . S
H558 C534 0.950 . S
H559 C535 0.949 . S
H560 C537 0.950 . S
H561 C539 0.950 . S
C562 C563 1.349 . S
C562 C564 1.327 . S
C562 H587 0.950 . S
C563 C562 1.349 . S
C563 C579 1.349 . S
C564 C562 1.327 . S
C564 C583 1.429 . S
C564 H588 0.950 . S
C565 C582 1.574 . S
C565 C584 1.368 . S
C565 H589 0.949 . S
H566 C570 0.949 . S
C567 C568 1.349 . S
C567 C569 1.327 . S
C567 H590 0.950 . S
C568 C567 1.349 . S
C568 C580 1.349 . S
C569 C567 1.327 . S
C569 C585 1.429 . S
C569 H591 0.950 . S
C570 H566 0.949 . S
C570 C578 1.574 . S
C570 C586 1.368 . S
H571 C579 0.950 . S
H572 C577 0.950 . S
H573 C578 0.949 . S
H574 C580 0.950 . S
H575 C581 0.950 . S
H576 C582 0.949 . S
C577 H572 0.950 . S
C577 C579 1.327 . S
C577 C583 1.429 . S
C578 C570 1.574 . S
C578 H573 0.949 . S
C578 C584 1.368 . S
C579 C563 1.349 . S
C579 H571 0.950 . S
C579 C577 1.327 . S
C580 C568 1.349 . S
C580 H574 0.950 . S
C580 C581 1.327 . S
C581 H575 0.950 . S
C581 C580 1.327 . S
C581 C585 1.429 . S
C582 C565 1.574 . S
C582 H576 0.949 . S
C582 C586 1.368 . S
C583 C564 1.429 . S
C583 C577 1.429 . S
C583 C584 1.523 . S
C584 C565 1.368 . S
C584 C578 1.368 . S
C584 C583 1.523 . S
C585 C569 1.429 . S
C585 C581 1.429 . S
C585 C586 1.523 . S
C586 C570 1.368 . S
C586 C582 1.368 . S
C586 C585 1.523 . S
H587 C562 0.950 . S
H588 C564 0.950 . S
H589 C565 0.949 . S
H590 C567 0.950 . S
H591 C569 0.950 . S
C113 C17 1.414 . S
C118 C3 1.414 . S
C143 C22 1.414 . S
C148 C36 1.414 1_554 S
C173 C45 1.414 . S
C178 C31 1.414 . S
C203 C50 1.414 1_556 S
C208 C8 1.414 . S
C233 C59 1.414 . S
C238 C73 1.414 . S
C263 C78 1.414 1_556 S
C268 C92 1.414 . S
C293 C87 1.414 . S
C298 C101 1.414 . S
C323 C64 1.414 1_554 S
C328 C106 1.414 . S
C353 C9 1.419 . S
C358 C107 1.419 . S
C383 C63 1.424 . S
C388 C21 1.424 . S
C413 C79 1.419 . S
C418 C37 1.419 . S
C443 C49 1.424 . S
C448 C91 1.424 . S
C473 C35 1.424 . S
C478 C105 1.424 . S
C503 C65 1.419 . S
C508 C51 1.419 . S
C533 C77 1.424 . S
C538 C7 1.424 . S
C563 C23 1.419 . S
C568 C93 1.419 . S
