# Generated by pormake.
# Topology ukb, (4)-cn, num edge types: 1
# Building blocks:
#     Node 0, Type 0, BuildingBlock: ICAMEG_clean_sbu_1, # of connection points: 4
#     Node 1, Type 0, BuildingBlock: ICAMEG_clean_sbu_1, # of connection points: 4
#     Node 2, Type 0, BuildingBlock: ICAMEG_clean_sbu_1, # of connection points: 4
#     Node 3, Type 0, BuildingBlock: ICAMEG_clean_sbu_1, # of connection points: 4
#     Node 4, Type 0, BuildingBlock: ICAMEG_clean_sbu_1, # of connection points: 4
#     Node 5, Type 0, BuildingBlock: ICAMEG_clean_sbu_1, # of connection points: 4
#     Node 6, Type 0, BuildingBlock: ICAMEG_clean_sbu_1, # of connection points: 4
#     Node 7, Type 0, BuildingBlock: ICAMEG_clean_sbu_1, # of connection points: 4
#     Node 8, Type 0, BuildingBlock: ICAMEG_clean_sbu_1, # of connection points: 4
#     Node 9, Type 0, BuildingBlock: ICAMEG_clean_sbu_1, # of connection points: 4
#     Node 10, Type 0, BuildingBlock: ICAMEG_clean_sbu_1, # of connection points: 4
#     Node 11, Type 0, BuildingBlock: ICAMEG_clean_sbu_1, # of connection points: 4
#     Node 12, Type 0, BuildingBlock: ICAMEG_clean_sbu_1, # of connection points: 4
#     Node 13, Type 0, BuildingBlock: ICAMEG_clean_sbu_1, # of connection points: 4
#     Node 14, Type 0, BuildingBlock: ICAMEG_clean_sbu_1, # of connection points: 4
#     Node 15, Type 0, BuildingBlock: ICAMEG_clean_sbu_1, # of connection points: 4
#     Edge 16, Type (0, 0), BuildingBlock: TEMPAE_clean_linker_10, # of connection points: 2
#     Edge 17, Type (0, 0), BuildingBlock: TEMPAE_clean_linker_10, # of connection points: 2
#     Edge 18, Type (0, 0), BuildingBlock: TEMPAE_clean_linker_10, # of connection points: 2
#     Edge 19, Type (0, 0), BuildingBlock: TEMPAE_clean_linker_10, # of connection points: 2
#     Edge 20, Type (0, 0), BuildingBlock: TEMPAE_clean_linker_10, # of connection points: 2
#     Edge 21, Type (0, 0), BuildingBlock: TEMPAE_clean_linker_10, # of connection points: 2
#     Edge 22, Type (0, 0), BuildingBlock: TEMPAE_clean_linker_10, # of connection points: 2
#     Edge 23, Type (0, 0), BuildingBlock: TEMPAE_clean_linker_10, # of connection points: 2
#     Edge 24, Type (0, 0), BuildingBlock: TEMPAE_clean_linker_10, # of connection points: 2
#     Edge 25, Type (0, 0), BuildingBlock: TEMPAE_clean_linker_10, # of connection points: 2
#     Edge 26, Type (0, 0), BuildingBlock: TEMPAE_clean_linker_10, # of connection points: 2
#     Edge 27, Type (0, 0), BuildingBlock: TEMPAE_clean_linker_10, # of connection points: 2
#     Edge 28, Type (0, 0), BuildingBlock: TEMPAE_clean_linker_10, # of connection points: 2
#     Edge 29, Type (0, 0), BuildingBlock: TEMPAE_clean_linker_10, # of connection points: 2
#     Edge 30, Type (0, 0), BuildingBlock: TEMPAE_clean_linker_10, # of connection points: 2
#     Edge 31, Type (0, 0), BuildingBlock: TEMPAE_clean_linker_10, # of connection points: 2
#     Edge 32, Type (0, 0), BuildingBlock: TEMPAE_clean_linker_10, # of connection points: 2
#     Edge 33, Type (0, 0), BuildingBlock: TEMPAE_clean_linker_10, # of connection points: 2
#     Edge 34, Type (0, 0), BuildingBlock: TEMPAE_clean_linker_10, # of connection points: 2
#     Edge 35, Type (0, 0), BuildingBlock: TEMPAE_clean_linker_10, # of connection points: 2
#     Edge 36, Type (0, 0), BuildingBlock: TEMPAE_clean_linker_10, # of connection points: 2
#     Edge 37, Type (0, 0), BuildingBlock: TEMPAE_clean_linker_10, # of connection points: 2
#     Edge 38, Type (0, 0), BuildingBlock: TEMPAE_clean_linker_10, # of connection points: 2
#     Edge 39, Type (0, 0), BuildingBlock: TEMPAE_clean_linker_10, # of connection points: 2
#     Edge 40, Type (0, 0), BuildingBlock: TEMPAE_clean_linker_10, # of connection points: 2
#     Edge 41, Type (0, 0), BuildingBlock: TEMPAE_clean_linker_10, # of connection points: 2
#     Edge 42, Type (0, 0), BuildingBlock: TEMPAE_clean_linker_10, # of connection points: 2
#     Edge 43, Type (0, 0), BuildingBlock: TEMPAE_clean_linker_10, # of connection points: 2
#     Edge 44, Type (0, 0), BuildingBlock: TEMPAE_clean_linker_10, # of connection points: 2
#     Edge 45, Type (0, 0), BuildingBlock: TEMPAE_clean_linker_10, # of connection points: 2
#     Edge 46, Type (0, 0), BuildingBlock: TEMPAE_clean_linker_10, # of connection points: 2
#     Edge 47, Type (0, 0), BuildingBlock: TEMPAE_clean_linker_10, # of connection points: 2
# Relax obj value: 0.076
# Max RMSD: 0.091
# Mean RMSD: 0.091
data_MOF--net-ukb--node1-ICAMEG_clean_sbu_1--edge1-TEMPAE_clean_linker_10
_symmetry_space_group_name_H-M    P1
_symmetry_Int_Tables_number       1
_symmetry_cell_setting            triclinic
loop_
_symmetry_equiv_pos_as_xyz
'x, y, z'
_cell_length_a     46.849658
_cell_length_b     46.84466
_cell_length_c     43.265767
_cell_angle_alpha  90.0182
_cell_angle_beta   89.999723
_cell_angle_gamma 90.003668
loop_
_atom_site_label
_atom_site_type_symbol
_atom_site_fract_x
_atom_site_fract_y
_atom_site_fract_z
_atom_type_partial_charge
Co0 Co 0.57654 0.18794 0.15644 0.0
Co1 Co 0.53157 0.19745 0.21879 0.0
O2 O 0.53913 0.18489 0.17636 0.0
C3 C 0.53901 0.21736 0.11114 0.0
O4 O 0.52741 0.23141 0.13422 0.0
C5 C 0.51196 0.13731 0.2193 0.0
O6 O 0.53568 0.13054 0.20489 0.0
O7 O 0.56504 0.17558 0.23482 0.0
O8 O 0.59631 0.17743 0.19556 0.0
H9 H 0.55762 0.23773 0.32266 0.0
H10 H 0.53175 0.15204 0.12772 0.0
O11 O 0.55809 0.19862 0.11637 0.0
H12 H 0.61124 0.08634 0.15055 0.0
H13 H 0.64648 0.17388 0.06935 0.0
H14 H 0.63234 0.21304 0.17404 0.0
H15 H 0.61529 0.13765 0.16253 0.0
H16 H 0.59983 0.16962 0.09538 0.0
O17 O 0.50668 0.16327 0.22594 0.0
H18 H 0.56679 0.22189 0.2692 0.0
H19 H 0.47959 0.19909 0.25859 0.0
H20 H 0.67942 0.21752 0.14902 0.0
H21 H 0.5269 0.1009 0.11508 0.0
H22 H 0.68671 0.19787 0.09627 0.0
H23 H 0.56681 0.06766 0.12662 0.0
O24 O 0.57961 0.22904 0.16772 0.0
H25 H 0.44236 0.21032 0.15594 0.0
H26 H 0.50993 0.2569 0.22728 0.0
H27 H 0.46935 0.2844 0.20655 0.0
H28 H 0.43518 0.26108 0.17063 0.0
H29 H 0.48342 0.1837 0.17701 0.0
H30 H 0.46954 0.21437 0.31206 0.0
H31 H 0.5087 0.23398 0.34443 0.0
O32 O 0.55615 0.23194 0.21289 0.0
C33 C 0.58985 0.17165 0.22346 0.0
C34 C 0.54037 0.22928 0.30876 0.0
C35 C 0.49094 0.21614 0.30282 0.0
N36 N 0.52372 0.20976 0.26074 0.0
C37 C 0.54541 0.22036 0.27845 0.0
C38 C 0.49677 0.20745 0.27259 0.0
C39 C 0.51292 0.22715 0.32097 0.0
C40 C 0.54931 0.13774 0.13249 0.0
N41 N 0.5738 0.14783 0.1457 0.0
C42 C 0.5464 0.1088 0.12541 0.0
C43 C 0.56879 0.09015 0.13194 0.0
C44 C 0.59372 0.10061 0.14538 0.0
C45 C 0.59585 0.12968 0.15218 0.0
C46 C 0.64358 0.18247 0.09237 0.0
C47 C 0.63541 0.20424 0.15119 0.0
C48 C 0.6172 0.18018 0.10719 0.0
N49 N 0.61343 0.19088 0.1363 0.0
C50 C 0.66209 0.20693 0.13709 0.0
C51 C 0.66615 0.19593 0.10749 0.0
C52 C 0.57229 0.24254 0.19208 0.0
C53 C 0.45707 0.2207 0.17161 0.0
C54 C 0.49526 0.24665 0.21154 0.0
C55 C 0.47226 0.2623 0.19996 0.0
C56 C 0.45308 0.24919 0.17983 0.0
N57 N 0.49903 0.21872 0.20337 0.0
C58 C 0.4803 0.20572 0.18369 0.0
Co59 Co 0.30753 0.57191 0.65908 0.0
Co60 Co 0.30263 0.53027 0.72515 0.0
O61 O 0.31178 0.53544 0.68111 0.0
C62 C 0.2848 0.52688 0.61488 0.0
O63 O 0.28992 0.50599 0.63424 0.0
C64 C 0.36264 0.5102 0.72127 0.0
O65 O 0.36834 0.53266 0.70421 0.0
O66 O 0.32562 0.56444 0.73687 0.0
O67 O 0.32287 0.59311 0.69544 0.0
H68 H 0.27097 0.56246 0.8305 0.0
H69 H 0.34104 0.52419 0.63084 0.0
O70 O 0.29118 0.55262 0.62149 0.0
H71 H 0.4076 0.60537 0.63726 0.0
H72 H 0.31306 0.63743 0.56695 0.0
H73 H 0.28599 0.62915 0.67672 0.0
H74 H 0.35797 0.61034 0.65527 0.0
H75 H 0.31918 0.59187 0.59476 0.0
O76 O 0.33732 0.50581 0.73088 0.0
H77 H 0.28236 0.56844 0.77521 0.0
H78 H 0.30418 0.48065 0.76838 0.0
H79 H 0.27978 0.67518 0.64991 0.0
H80 H 0.39028 0.51841 0.61225 0.0
H81 H 0.29336 0.67952 0.5946 0.0
H82 H 0.42405 0.55916 0.61544 0.0
O83 O 0.26802 0.57658 0.67487 0.0
H84 H 0.28614 0.43581 0.67306 0.0
H85 H 0.24371 0.50992 0.73963 0.0
H86 H 0.21513 0.46776 0.72538 0.0
H87 H 0.23637 0.43026 0.69192 0.0
H88 H 0.3138 0.4786 0.68747 0.0
H89 H 0.29331 0.47379 0.82366 0.0
H90 H 0.27645 0.51485 0.85507 0.0
O91 O 0.26771 0.55453 0.72091 0.0
C92 C 0.33008 0.58818 0.72332 0.0
C93 C 0.27822 0.54438 0.81703 0.0
C94 C 0.29079 0.49462 0.8132 0.0
N95 N 0.29374 0.52489 0.76854 0.0
C96 C 0.28463 0.54762 0.7857 0.0
C97 C 0.29699 0.49866 0.78193 0.0
C98 C 0.28133 0.51767 0.83081 0.0
C99 C 0.35528 0.5422 0.63182 0.0
N100 N 0.34629 0.56773 0.6436 0.0
C101 C 0.3833 0.53873 0.62146 0.0
C102 C 0.40226 0.56157 0.62333 0.0
C103 C 0.39304 0.58749 0.63557 0.0
C104 C 0.36488 0.59016 0.64574 0.0
C105 C 0.30716 0.63583 0.59107 0.0
C106 C 0.29219 0.63095 0.65274 0.0
C107 C 0.31053 0.61008 0.60693 0.0
N108 N 0.30325 0.60795 0.63744 0.0
C109 C 0.28852 0.65703 0.63764 0.0
C110 C 0.2961 0.65944 0.6066 0.0
C111 C 0.25603 0.57019 0.70037 0.0
C112 C 0.27664 0.45201 0.68763 0.0
C113 C 0.25298 0.49393 0.72473 0.0
C114 C 0.23675 0.46998 0.7169 0.0
C115 C 0.2487 0.44893 0.69818 0.0
N116 N 0.28033 0.49686 0.71419 0.0
C117 C 0.29223 0.47623 0.69596 0.0
Co118 Co 0.92788 0.31355 0.15629 0.0
Co119 Co 0.97254 0.30357 0.2188 0.0
O120 O 0.96523 0.31641 0.17643 0.0
C121 C 0.96546 0.28422 0.11093 0.0
O122 O 0.97691 0.26997 0.13394 0.0
C123 C 0.99248 0.36364 0.22016 0.0
O124 O 0.96897 0.37075 0.20555 0.0
O125 O 0.9391 0.32551 0.23479 0.0
O126 O 0.90797 0.32394 0.19538 0.0
H127 H 0.94577 0.26288 0.32225 0.0
H128 H 0.9729 0.34948 0.12804 0.0
O129 O 0.94646 0.30303 0.11622 0.0
H130 H 0.89346 0.41527 0.15082 0.0
H131 H 0.85834 0.32825 0.06896 0.0
H132 H 0.87193 0.28854 0.17346 0.0
H133 H 0.88924 0.36393 0.16251 0.0
H134 H 0.90489 0.33226 0.09523 0.0
O135 O 0.99754 0.33756 0.22643 0.0
H136 H 0.93695 0.27904 0.26884 0.0
H137 H 0.02433 0.30139 0.25887 0.0
H138 H 0.82495 0.28431 0.14818 0.0
H139 H 0.97792 0.40066 0.1157 0.0
H140 H 0.81793 0.30424 0.09552 0.0
H141 H 0.93804 0.43394 0.12721 0.0
O142 O 0.92463 0.2724 0.16726 0.0
H143 H 0.06199 0.29075 0.15634 0.0
H144 H 0.99393 0.24399 0.22697 0.0
H145 H 0.03451 0.21646 0.20624 0.0
H146 H 0.06892 0.23987 0.17068 0.0
H147 H 0.02092 0.31738 0.1774 0.0
H148 H 0.03403 0.28579 0.3123 0.0
H149 H 0.9946 0.26624 0.34432 0.0
O150 O 0.94787 0.26922 0.21252 0.0
C151 C 0.91435 0.3296 0.22334 0.0
C152 C 0.96314 0.2713 0.3085 0.0
C153 C 0.01267 0.28419 0.30293 0.0
N154 N 0.98013 0.29097 0.2607 0.0
C155 C 0.95829 0.2804 0.27822 0.0
C156 C 0.00703 0.29306 0.27273 0.0
C157 C 0.99054 0.27321 0.32088 0.0
C158 C 0.95535 0.3638 0.13281 0.0
N159 N 0.93078 0.35371 0.14583 0.0
C160 C 0.95836 0.39276 0.1259 0.0
C161 C 0.93599 0.41143 0.13241 0.0
C162 C 0.91098 0.40098 0.14567 0.0
C163 C 0.90874 0.37189 0.1523 0.0
C164 C 0.86111 0.31954 0.09193 0.0
C165 C 0.86899 0.29746 0.15065 0.0
C166 C 0.88744 0.32168 0.10689 0.0
N167 N 0.89107 0.31083 0.13595 0.0
C168 C 0.84236 0.29491 0.1364 0.0
C169 C 0.83845 0.30607 0.10685 0.0
C170 C 0.93181 0.25876 0.19156 0.0
C171 C 0.04717 0.28032 0.17185 0.0
C172 C 0.00871 0.25427 0.21139 0.0
C173 C 0.03171 0.23861 0.1998 0.0
C174 C 0.05102 0.25176 0.17987 0.0
N175 N 0.00507 0.28226 0.20341 0.0
C176 C 0.02394 0.29532 0.18392 0.0
Co177 Co 0.19478 0.93167 0.6506 0.0
Co178 Co 0.2004 0.97402 0.71612 0.0
O179 O 0.19101 0.96846 0.67217 0.0
C180 C 0.21803 0.97584 0.60573 0.0
O181 O 0.21327 0.99705 0.62481 0.0
C182 C 0.14052 0.9946 0.71278 0.0
O183 O 0.1344 0.97212 0.6959 0.0
O184 O 0.17707 0.94026 0.72834 0.0
O185 O 0.17929 0.91108 0.68726 0.0
H186 H 0.23219 0.94253 0.82164 0.0
H187 H 0.16181 0.97946 0.62185 0.0
O188 O 0.21126 0.95029 0.61271 0.0
H189 H 0.09422 0.89924 0.62958 0.0
H190 H 0.1881 0.86511 0.55939 0.0
H191 H 0.21574 0.87439 0.6689 0.0
H192 H 0.14385 0.89383 0.64747 0.0
H193 H 0.18266 0.91108 0.5866 0.0
O194 O 0.16602 0.9989 0.72185 0.0
H195 H 0.22045 0.93612 0.76649 0.0
H196 H 0.19969 0.0241 0.75879 0.0
H197 H 0.22127 0.82797 0.64269 0.0
H198 H 0.11259 0.98566 0.60337 0.0
H199 H 0.2074 0.82312 0.58752 0.0
H200 H 0.0783 0.94539 0.60723 0.0
O201 O 0.2343 0.92669 0.66629 0.0
H202 H 0.21763 0.06772 0.66282 0.0
H203 H 0.25963 0.99387 0.73001 0.0
H204 H 0.28857 0.03559 0.7151 0.0
H205 H 0.26755 0.07295 0.68133 0.0
H206 H 0.1896 0.02538 0.67791 0.0
H207 H 0.2109 0.03139 0.81393 0.0
H208 H 0.22741 0.99044 0.84571 0.0
O209 O 0.23503 0.94936 0.71198 0.0
C210 C 0.17221 0.91646 0.71509 0.0
C211 C 0.22509 0.96055 0.80802 0.0
C212 C 0.21311 0.01042 0.8037 0.0
N213 N 0.20958 0.97974 0.7594 0.0
C214 C 0.21849 0.95707 0.77676 0.0
C215 C 0.20672 0.00614 0.7725 0.0
C216 C 0.22238 0.98743 0.82151 0.0
C217 C 0.14734 0.96165 0.62312 0.0
N218 N 0.15604 0.93615 0.63519 0.0
C219 C 0.11933 0.96537 0.61283 0.0
C220 C 0.10008 0.94279 0.61506 0.0
C221 C 0.109 0.9169 0.6276 0.0
C222 C 0.13716 0.91398 0.6377 0.0
C223 C 0.19412 0.86693 0.58346 0.0
C224 C 0.20941 0.87238 0.64498 0.0
C225 C 0.19113 0.89291 0.59897 0.0
N226 N 0.19856 0.89533 0.62942 0.0
C227 C 0.2127 0.84607 0.63022 0.0
C228 C 0.20495 0.84338 0.59926 0.0
C229 C 0.24647 0.93331 0.69163 0.0
C230 C 0.22704 0.05158 0.67753 0.0
C231 C 0.25044 0.00981 0.71499 0.0
C232 C 0.26688 0.0335 0.70678 0.0
C233 C 0.25505 0.05448 0.68788 0.0
N234 N 0.22301 0.00707 0.70464 0.0
C235 C 0.21124 0.02761 0.68623 0.0
Co236 Co 0.57564 0.31422 0.84659 0.0
Co237 Co 0.53129 0.30479 0.78373 0.0
O238 O 0.53839 0.31718 0.8263 0.0
C239 C 0.53811 0.28421 0.89147 0.0
O240 O 0.52708 0.26982 0.86831 0.0
C241 C 0.51137 0.36483 0.78336 0.0
O242 O 0.53491 0.37166 0.79807 0.0
O243 O 0.56479 0.3269 0.76819 0.0
O244 O 0.59573 0.325 0.80775 0.0
H245 H 0.55851 0.26519 0.67991 0.0
H246 H 0.53042 0.34979 0.87501 0.0
O247 O 0.55686 0.30332 0.88642 0.0
H248 H 0.60983 0.41596 0.85343 0.0
H249 H 0.64468 0.3282 0.93453 0.0
H250 H 0.63172 0.28946 0.82949 0.0
H251 H 0.61421 0.36473 0.84119 0.0
H252 H 0.59827 0.33238 0.90801 0.0
O253 O 0.5063 0.33888 0.7765 0.0
H254 H 0.56709 0.28077 0.73358 0.0
H255 H 0.47969 0.3031 0.74335 0.0
H256 H 0.67857 0.28507 0.85501 0.0
H257 H 0.52522 0.40085 0.88788 0.0
H258 H 0.68527 0.30451 0.90794 0.0
H259 H 0.56509 0.43432 0.87697 0.0
O260 O 0.579 0.27319 0.83513 0.0
H261 H 0.44158 0.29117 0.84557 0.0
H262 H 0.50997 0.2453 0.7746 0.0
H263 H 0.46932 0.21751 0.79471 0.0
H264 H 0.43474 0.24047 0.83044 0.0
H265 H 0.48273 0.31808 0.82512 0.0
H266 H 0.47022 0.28807 0.68967 0.0
H267 H 0.50978 0.26882 0.65762 0.0
O268 O 0.55596 0.27039 0.7897 0.0
C269 C 0.58949 0.3309 0.77981 0.0
C270 C 0.54108 0.27347 0.69367 0.0
C271 C 0.49154 0.28635 0.69914 0.0
N272 N 0.52388 0.29266 0.74163 0.0
C273 C 0.5458 0.28225 0.72409 0.0
C274 C 0.49704 0.2949 0.72948 0.0
C275 C 0.51374 0.27554 0.68117 0.0
C276 C 0.54796 0.36419 0.87051 0.0
N277 N 0.57262 0.35427 0.85751 0.0
C278 C 0.54485 0.39309 0.87772 0.0
C279 C 0.56721 0.41186 0.87154 0.0
C280 C 0.59232 0.40158 0.85832 0.0
C281 C 0.59465 0.37255 0.85138 0.0
C282 C 0.64205 0.3197 0.91144 0.0
C283 C 0.63453 0.29817 0.85242 0.0
C284 C 0.6158 0.32195 0.89633 0.0
N285 N 0.61235 0.31137 0.86712 0.0
C286 C 0.66108 0.29553 0.8668 0.0
C287 C 0.66482 0.30641 0.89651 0.0
C288 C 0.57195 0.25976 0.81064 0.0
C289 C 0.45648 0.28093 0.82999 0.0
C290 C 0.49512 0.25539 0.79026 0.0
C291 C 0.47208 0.23958 0.8015 0.0
C292 C 0.45268 0.25248 0.82152 0.0
N293 N 0.49871 0.28328 0.79867 0.0
C294 C 0.47976 0.29609 0.81826 0.0
Co295 Co 0.1949 0.56972 0.35127 0.0
Co296 Co 0.20027 0.52787 0.28537 0.0
O297 O 0.19097 0.5331 0.32938 0.0
C298 C 0.21791 0.52508 0.39574 0.0
O299 O 0.21294 0.50401 0.37654 0.0
C300 C 0.14036 0.50742 0.28868 0.0
O301 O 0.13436 0.5298 0.30576 0.0
O302 O 0.17698 0.56174 0.27353 0.0
O303 O 0.17945 0.59066 0.31481 0.0
H304 H 0.23191 0.56013 0.18007 0.0
H305 H 0.1617 0.52184 0.37959 0.0
O306 O 0.21133 0.55072 0.38897 0.0
H307 H 0.09453 0.60246 0.37271 0.0
H308 H 0.18862 0.63559 0.44309 0.0
H309 H 0.21607 0.62704 0.33345 0.0
H310 H 0.14416 0.60777 0.35483 0.0
H311 H 0.18294 0.58986 0.41548 0.0
O312 O 0.16582 0.5031 0.2795 0.0
H313 H 0.22029 0.56612 0.2353 0.0
H314 H 0.19938 0.47813 0.24224 0.0
H315 H 0.22185 0.67323 0.36008 0.0
H316 H 0.11247 0.51572 0.39806 0.0
H317 H 0.20808 0.67772 0.41532 0.0
H318 H 0.07838 0.5562 0.39464 0.0
O319 O 0.23443 0.57464 0.3356 0.0
H320 H 0.21745 0.4337 0.33772 0.0
H321 H 0.25946 0.50807 0.27119 0.0
H322 H 0.28836 0.46619 0.28564 0.0
H323 H 0.26733 0.42856 0.31907 0.0
H324 H 0.18946 0.47621 0.3231 0.0
H325 H 0.21047 0.47125 0.18702 0.0
H326 H 0.22699 0.51242 0.15557 0.0
O327 O 0.23495 0.55243 0.28965 0.0
C328 C 0.17224 0.58547 0.28698 0.0
C329 C 0.2248 0.54201 0.19354 0.0
C330 C 0.21274 0.49213 0.19743 0.0
N331 N 0.20935 0.52247 0.24202 0.0
C332 C 0.21827 0.54526 0.22484 0.0
C333 C 0.20642 0.49618 0.22868 0.0
C334 C 0.22201 0.51524 0.17981 0.0
C335 C 0.14733 0.53973 0.37851 0.0
N336 N 0.15615 0.56529 0.36668 0.0
C337 C 0.11931 0.53607 0.3888 0.0
C338 C 0.10017 0.55875 0.3868 0.0
C339 C 0.10921 0.5847 0.3745 0.0
C340 C 0.13738 0.58756 0.36441 0.0
C341 C 0.19461 0.63393 0.419 0.0
C342 C 0.20979 0.62889 0.3574 0.0
C343 C 0.19148 0.60808 0.40325 0.0
N344 N 0.19886 0.60587 0.37277 0.0
C345 C 0.21322 0.65507 0.3724 0.0
C346 C 0.20552 0.65756 0.4034 0.0
C347 C 0.24651 0.56822 0.31016 0.0
C348 C 0.22686 0.44995 0.32316 0.0
C349 C 0.25027 0.49201 0.28607 0.0
C350 C 0.26668 0.46823 0.29401 0.0
C351 C 0.25485 0.4471 0.31272 0.0
N352 N 0.22285 0.4947 0.29649 0.0
C353 C 0.21108 0.47402 0.31472 0.0
Co354 Co 0.92879 0.1887 0.84576 0.0
Co355 Co 0.97279 0.1987 0.78272 0.0
O356 O 0.96595 0.18593 0.82522 0.0
C357 C 0.96644 0.21838 0.89082 0.0
O358 O 0.97739 0.23298 0.86778 0.0
C359 C 0.99292 0.1387 0.78133 0.0
O360 O 0.96955 0.13158 0.79621 0.0
O361 O 0.93928 0.1766 0.76718 0.0
O362 O 0.90851 0.17827 0.80691 0.0
H363 H 0.94483 0.23904 0.67949 0.0
H364 H 0.97415 0.15289 0.87351 0.0
O365 O 0.94773 0.19925 0.88561 0.0
H366 H 0.89463 0.08691 0.85166 0.0
H367 H 0.86014 0.1739 0.93389 0.0
H368 H 0.87264 0.21363 0.82924 0.0
H369 H 0.89019 0.13824 0.84 0.0
H370 H 0.90643 0.16996 0.90708 0.0
O371 O 0.99785 0.16478 0.7749 0.0
H372 H 0.93661 0.22298 0.73305 0.0
H373 H 0.02417 0.20097 0.74203 0.0
H374 H 0.82591 0.21779 0.85506 0.0
H375 H 0.9794 0.10173 0.88581 0.0
H376 H 0.81943 0.19786 0.9078 0.0
H377 H 0.93948 0.06835 0.87477 0.0
O378 O 0.92536 0.22984 0.83479 0.0
H379 H 0.06281 0.21207 0.84409 0.0
H380 H 0.99385 0.25835 0.77412 0.0
H381 H 0.03453 0.2861 0.79426 0.0
H382 H 0.0694 0.26292 0.82948 0.0
H383 H 0.02163 0.18521 0.82361 0.0
H384 H 0.03327 0.21647 0.68845 0.0
H385 H 0.99345 0.2358 0.65685 0.0
O386 O 0.94805 0.23297 0.7892 0.0
C387 C 0.91464 0.17252 0.7789 0.0
C388 C 0.96237 0.23072 0.69305 0.0
C389 C 0.012 0.21802 0.69807 0.0
N390 N 0.97991 0.21122 0.7407 0.0
C391 C 0.95786 0.22167 0.72341 0.0
C392 C 0.0067 0.2092 0.72836 0.0
C393 C 0.98965 0.22888 0.68035 0.0
C394 C 0.95658 0.13853 0.86895 0.0
N395 N 0.93186 0.14856 0.8562 0.0
C396 C 0.95972 0.10957 0.87584 0.0
C397 C 0.93733 0.09085 0.86959 0.0
C398 C 0.91217 0.10125 0.85661 0.0
C399 C 0.90981 0.13033 0.84999 0.0
C400 C 0.86267 0.18262 0.91089 0.0
C401 C 0.86993 0.20471 0.85208 0.0
C402 C 0.88885 0.18051 0.89562 0.0
N403 N 0.89217 0.19136 0.86652 0.0
C404 C 0.84344 0.20722 0.86663 0.0
C405 C 0.83984 0.19606 0.89623 0.0
C406 C 0.93221 0.24345 0.81036 0.0
C407 C 0.04779 0.22239 0.82872 0.0
C408 C 0.00882 0.24817 0.78956 0.0
C409 C 0.03188 0.26396 0.80081 0.0
C410 C 0.05145 0.25094 0.82055 0.0
N411 N 0.00538 0.22019 0.79767 0.0
C412 C 0.02449 0.20727 0.81699 0.0
Co413 Co 0.30821 0.92944 0.34256 0.0
Co414 Co 0.30367 0.97097 0.27642 0.0
O415 O 0.31262 0.96588 0.32053 0.0
C416 C 0.28565 0.97458 0.38673 0.0
O417 O 0.29102 0.99548 0.36745 0.0
C418 C 0.36358 0.99129 0.28065 0.0
O419 O 0.36928 0.96888 0.2978 0.0
O420 O 0.32683 0.93688 0.26491 0.0
O421 O 0.32353 0.90814 0.30624 0.0
H422 H 0.27278 0.93852 0.1709 0.0
H423 H 0.34191 0.97702 0.37084 0.0
O424 O 0.29186 0.94881 0.38012 0.0
H425 H 0.40805 0.8955 0.36468 0.0
H426 H 0.31323 0.86392 0.43473 0.0
H427 H 0.28644 0.87229 0.32489 0.0
H428 H 0.35844 0.89077 0.34652 0.0
H429 H 0.31963 0.90944 0.40692 0.0
O430 O 0.3383 0.99556 0.27087 0.0
H431 H 0.28384 0.93266 0.22628 0.0
H432 H 0.30526 0.02054 0.23313 0.0
H433 H 0.27994 0.8263 0.35171 0.0
H434 H 0.39113 0.98257 0.38956 0.0
H435 H 0.29338 0.82191 0.40705 0.0
H436 H 0.42469 0.94164 0.3865 0.0
O437 O 0.26871 0.92494 0.32671 0.0
H438 H 0.28654 0.06543 0.32828 0.0
H439 H 0.24475 0.99106 0.26155 0.0
H440 H 0.21593 0.03313 0.27556 0.0
H441 H 0.23685 0.07075 0.30909 0.0
H442 H 0.31444 0.02274 0.31409 0.0
H443 H 0.29472 0.02729 0.17776 0.0
H444 H 0.27823 0.98611 0.14629 0.0
O445 O 0.2688 0.9466 0.28046 0.0
C446 C 0.33103 0.91309 0.27845 0.0
C447 C 0.27987 0.95664 0.18439 0.0
C448 C 0.29222 0.00646 0.18823 0.0
N449 N 0.295 0.97627 0.23296 0.0
C450 C 0.28609 0.95348 0.21577 0.0
C451 C 0.29822 0.00249 0.21956 0.0
C452 C 0.28296 0.98335 0.17059 0.0
C453 C 0.35605 0.95894 0.36992 0.0
N454 N 0.34695 0.93345 0.35813 0.0
C455 C 0.38407 0.96228 0.38035 0.0
C456 C 0.40291 0.93933 0.37855 0.0
C457 C 0.39359 0.91346 0.36631 0.0
C458 C 0.36544 0.91092 0.35606 0.0
C459 C 0.30739 0.86554 0.41059 0.0
C460 C 0.29258 0.87047 0.34889 0.0
C461 C 0.31092 0.89127 0.39474 0.0
N462 N 0.30372 0.89342 0.36421 0.0
C463 C 0.28875 0.84441 0.36399 0.0
C464 C 0.29625 0.84197 0.39505 0.0
C465 C 0.25692 0.93115 0.30105 0.0
C466 C 0.27717 0.04918 0.31367 0.0
C467 C 0.25388 0.00712 0.27647 0.0
C468 C 0.23752 0.031 0.28417 0.0
C469 C 0.24929 0.05213 0.30293 0.0
N470 N 0.28119 0.00431 0.28719 0.0
C471 C 0.2929 0.025 0.30547 0.0
Co472 Co 0.42886 0.81275 0.84539 0.0
Co473 Co 0.47345 0.80432 0.78256 0.0
O474 O 0.4662 0.81596 0.82535 0.0
C475 C 0.4662 0.78219 0.89012 0.0
O476 O 0.47718 0.76776 0.86696 0.0
C477 C 0.49347 0.8643 0.78357 0.0
O478 O 0.47002 0.87085 0.79859 0.0
O479 O 0.44009 0.82682 0.76737 0.0
O480 O 0.40893 0.82413 0.80667 0.0
H481 H 0.44648 0.76669 0.6778 0.0
H482 H 0.47398 0.84789 0.87464 0.0
O483 O 0.44748 0.80133 0.8851 0.0
H484 H 0.39464 0.91437 0.8539 0.0
H485 H 0.35949 0.82533 0.93328 0.0
H486 H 0.37277 0.78847 0.82749 0.0
H487 H 0.39032 0.86334 0.8407 0.0
H488 H 0.40601 0.82988 0.90706 0.0
O489 O 0.49851 0.83848 0.77611 0.0
H490 H 0.43777 0.78127 0.73178 0.0
H491 H 0.52518 0.80329 0.74233 0.0
H492 H 0.32581 0.78372 0.8527 0.0
H493 H 0.4791 0.89873 0.88849 0.0
H494 H 0.31895 0.80221 0.90601 0.0
H495 H 0.43928 0.93236 0.87801 0.0
O496 O 0.4255 0.7719 0.83314 0.0
H497 H 0.56283 0.78939 0.84459 0.0
H498 H 0.49481 0.74503 0.77211 0.0
H499 H 0.53533 0.7168 0.7918 0.0
H500 H 0.56973 0.73901 0.82829 0.0
H501 H 0.5218 0.81674 0.82453 0.0
H502 H 0.53477 0.78927 0.68837 0.0
H503 H 0.49528 0.77069 0.65576 0.0
O504 O 0.44867 0.76984 0.78772 0.0
C505 C 0.41535 0.83062 0.77895 0.0
C506 C 0.46388 0.77468 0.6918 0.0
C507 C 0.51343 0.78739 0.69772 0.0
N508 N 0.48097 0.79293 0.74024 0.0
C509 C 0.4591 0.78289 0.7224 0.0
C510 C 0.50785 0.79537 0.72823 0.0
C511 C 0.49126 0.77695 0.67944 0.0
C512 C 0.45645 0.86235 0.87033 0.0
N513 N 0.43185 0.85263 0.85702 0.0
C514 C 0.45952 0.89113 0.87809 0.0
C515 C 0.43718 0.90999 0.87216 0.0
C516 C 0.41214 0.89992 0.85861 0.0
C517 C 0.40984 0.87101 0.85112 0.0
C518 C 0.3622 0.81724 0.91003 0.0
C519 C 0.3699 0.79675 0.85059 0.0
C520 C 0.38851 0.81969 0.89509 0.0
N521 N 0.39205 0.80962 0.86568 0.0
C522 C 0.34328 0.79392 0.8648 0.0
C523 C 0.33945 0.80427 0.89471 0.0
C524 C 0.43258 0.7589 0.80837 0.0
C525 C 0.548 0.77948 0.82868 0.0
C526 C 0.50956 0.75477 0.78812 0.0
C527 C 0.53254 0.73873 0.7991 0.0
C528 C 0.55184 0.75121 0.81955 0.0
N529 N 0.50594 0.78249 0.79718 0.0
C530 C 0.52479 0.79488 0.81718 0.0
Co531 Co 0.68989 0.42544 0.34661 0.0
Co532 Co 0.69935 0.46999 0.2839 0.0
O533 O 0.68693 0.46276 0.32645 0.0
C534 C 0.71985 0.46291 0.39164 0.0
O535 O 0.73421 0.47406 0.36853 0.0
C536 C 0.6393 0.48986 0.28352 0.0
O537 O 0.6325 0.46649 0.29856 0.0
O538 O 0.67729 0.4365 0.26824 0.0
O539 O 0.67904 0.40546 0.3077 0.0
H540 H 0.73913 0.44299 0.18009 0.0
H541 H 0.65436 0.47059 0.37523 0.0
O542 O 0.70081 0.44411 0.38651 0.0
H543 H 0.58816 0.39125 0.35341 0.0
H544 H 0.67597 0.35613 0.4343 0.0
H545 H 0.71458 0.36939 0.32925 0.0
H546 H 0.63937 0.38689 0.3411 0.0
H547 H 0.67179 0.40263 0.40796 0.0
O548 O 0.66524 0.4949 0.27659 0.0
H549 H 0.72349 0.4343 0.23371 0.0
H550 H 0.70102 0.52166 0.24364 0.0
H551 H 0.71897 0.32246 0.35458 0.0
H552 H 0.60333 0.47575 0.38819 0.0
H553 H 0.6996 0.3156 0.40752 0.0
H554 H 0.56984 0.43592 0.37716 0.0
O555 O 0.73092 0.42208 0.33514 0.0
H556 H 0.7127 0.5596 0.346 0.0
H557 H 0.75881 0.49145 0.27494 0.0
H558 H 0.78648 0.53212 0.29521 0.0
H559 H 0.7634 0.56658 0.33099 0.0
H560 H 0.6859 0.51843 0.32538 0.0
H561 H 0.7161 0.53124 0.19001 0.0
H562 H 0.73545 0.49176 0.1579 0.0
O563 O 0.73378 0.44537 0.28988 0.0
C564 C 0.67317 0.4118 0.27979 0.0
C565 C 0.73081 0.46039 0.19388 0.0
C566 C 0.71785 0.50991 0.19943 0.0
N567 N 0.71154 0.47748 0.24184 0.0
C568 C 0.72199 0.45561 0.22428 0.0
C569 C 0.70926 0.50434 0.22975 0.0
C570 C 0.72871 0.48775 0.18143 0.0
C571 C 0.63996 0.45306 0.37068 0.0
N572 N 0.64985 0.42844 0.35757 0.0
C573 C 0.61107 0.45615 0.37794 0.0
C574 C 0.59229 0.43381 0.3717 0.0
C575 C 0.60255 0.40874 0.35835 0.0
C576 C 0.63156 0.40643 0.35137 0.0
C577 C 0.68444 0.35883 0.41121 0.0
C578 C 0.7059 0.36652 0.35219 0.0
C579 C 0.68219 0.38513 0.39621 0.0
N580 N 0.69274 0.38866 0.367 0.0
C581 C 0.70854 0.33992 0.36646 0.0
C582 C 0.69769 0.3361 0.39617 0.0
C583 C 0.74439 0.42929 0.31074 0.0
C584 C 0.72299 0.54475 0.3304 0.0
C585 C 0.74867 0.50624 0.29062 0.0
C586 C 0.76441 0.5293 0.30195 0.0
C587 C 0.75144 0.54864 0.322 0.0
N588 N 0.72077 0.50258 0.29896 0.0
C589 C 0.7079 0.52147 0.31858 0.0
Co590 Co 0.06958 0.69805 0.84661 0.0
Co591 Co 0.02737 0.70173 0.78087 0.0
O592 O 0.03294 0.69324 0.82501 0.0
C593 C 0.02476 0.72065 0.89115 0.0
O594 O 0.00376 0.71537 0.87196 0.0
C595 C 0.00768 0.64161 0.78541 0.0
O596 O 0.03029 0.63611 0.80233 0.0
O597 O 0.06149 0.67865 0.76925 0.0
O598 O 0.09057 0.68255 0.81026 0.0
H599 H 0.05863 0.73201 0.67474 0.0
H600 H 0.02238 0.66434 0.87561 0.0
O601 O 0.05048 0.71451 0.88426 0.0
H602 H 0.10411 0.59849 0.86918 0.0
H603 H 0.13595 0.69391 0.93813 0.0
H604 H 0.12653 0.71977 0.82815 0.0
H605 H 0.10849 0.648 0.85062 0.0
H606 H 0.09018 0.68725 0.91089 0.0
O607 O 0.00299 0.66688 0.77585 0.0
H608 H 0.06509 0.72138 0.73014 0.0
H609 H 0.97742 0.69947 0.73812 0.0
H610 H 0.17275 0.72651 0.85439 0.0
H611 H 0.0172 0.61522 0.89476 0.0
H612 H 0.17768 0.71355 0.90981 0.0
H613 H 0.05823 0.5818 0.89156 0.0
O614 O 0.07383 0.73745 0.83026 0.0
H615 H 0.93337 0.71861 0.8337 0.0
H616 H 0.00661 0.76032 0.76553 0.0
H617 H 0.96448 0.78896 0.77977 0.0
H618 H 0.92742 0.76807 0.81404 0.0
H619 H 0.97613 0.69092 0.81927 0.0
H620 H 0.97008 0.70955 0.68274 0.0
H621 H 0.01085 0.72607 0.65069 0.0
O622 O 0.05158 0.73678 0.78431 0.0
C623 C 0.0854 0.67472 0.78264 0.0
C624 C 0.04069 0.72489 0.68849 0.0
C625 C 0.991 0.71225 0.69297 0.0
N626 N 0.02162 0.71 0.73739 0.0
C627 C 0.04419 0.71892 0.71988 0.0
C628 C 0.9953 0.70651 0.72429 0.0
C629 C 0.01388 0.72154 0.675 0.0
C630 C 0.04052 0.65027 0.87464 0.0
N631 N 0.06587 0.6594 0.86256 0.0
C632 C 0.03738 0.62231 0.8853 0.0
C633 C 0.06038 0.60355 0.88343 0.0
C634 C 0.08612 0.61289 0.87088 0.0
C635 C 0.08845 0.64099 0.86041 0.0
C636 C 0.1341 0.69956 0.91396 0.0
C637 C 0.12857 0.71384 0.85218 0.0
C638 C 0.10822 0.69589 0.89843 0.0
N639 N 0.10577 0.70284 0.86785 0.0
C640 C 0.15477 0.71781 0.86696 0.0
C641 C 0.15751 0.71057 0.89806 0.0
C642 C 0.06731 0.7489 0.80449 0.0
C643 C 0.94938 0.72797 0.81878 0.0
C644 C 0.99082 0.75123 0.78079 0.0
C645 C 0.96689 0.76748 0.7886 0.0
C646 C 0.94608 0.75573 0.80778 0.0
N647 N 0.99398 0.72407 0.79178 0.0
C648 C 0.97359 0.71236 0.81045 0.0
Co649 Co 0.81476 0.0763 0.34587 0.0
Co650 Co 0.80484 0.03141 0.28354 0.0
O651 O 0.81759 0.03885 0.32593 0.0
C652 C 0.78527 0.03902 0.39137 0.0
O653 O 0.77091 0.02761 0.3684 0.0
C654 C 0.86479 0.0111 0.28261 0.0
O655 O 0.872 0.03464 0.29713 0.0
O656 O 0.827 0.06468 0.2675 0.0
O657 O 0.82522 0.09603 0.3067 0.0
H658 H 0.76464 0.05796 0.17981 0.0
H659 H 0.8506 0.03137 0.3744 0.0
O660 O 0.80419 0.05789 0.386 0.0
H661 H 0.91649 0.11067 0.35137 0.0
H662 H 0.82942 0.14621 0.4329 0.0
H663 H 0.78983 0.1322 0.32839 0.0
H664 H 0.86518 0.11487 0.33956 0.0
H665 H 0.8334 0.09953 0.40685 0.0
O666 O 0.83872 0.0062 0.27618 0.0
H667 H 0.78066 0.06692 0.23325 0.0
H668 H 0.80253 0.97946 0.24369 0.0
H669 H 0.78563 0.1793 0.35343 0.0
H670 H 0.90176 0.02636 0.38686 0.0
H671 H 0.8055 0.18653 0.4061 0.0
H672 H 0.93509 0.06617 0.37523 0.0
O673 O 0.77363 0.07953 0.33482 0.0
H674 H 0.79133 0.94233 0.34644 0.0
H675 H 0.7452 0.01024 0.27517 0.0
H676 H 0.71739 0.96991 0.29599 0.0
H677 H 0.74049 0.93557 0.33188 0.0
H678 H 0.81825 0.98317 0.32528 0.0
H679 H 0.78705 0.96962 0.19024 0.0
H680 H 0.76781 0.00902 0.15797 0.0
O681 O 0.77058 0.05626 0.28956 0.0
C682 C 0.83104 0.08949 0.27882 0.0
C683 C 0.77291 0.0406 0.19366 0.0
C684 C 0.78553 0.99103 0.19951 0.0
N685 N 0.79235 0.02371 0.24162 0.0
C686 C 0.78195 0.04553 0.22396 0.0
C687 C 0.79434 0.99674 0.22972 0.0
C688 C 0.77472 0.01314 0.18142 0.0
C689 C 0.86494 0.04889 0.36957 0.0
N690 N 0.8549 0.07341 0.35641 0.0
C691 C 0.8939 0.04589 0.37655 0.0
C692 C 0.91259 0.06822 0.36998 0.0
C693 C 0.90218 0.09318 0.35657 0.0
C694 C 0.8731 0.09541 0.34987 0.0
C695 C 0.82073 0.14334 0.40993 0.0
C696 C 0.79872 0.13524 0.35121 0.0
C697 C 0.82287 0.11695 0.39509 0.0
N698 N 0.81205 0.11321 0.36603 0.0
C699 C 0.79619 0.16193 0.36531 0.0
C700 C 0.80732 0.16596 0.39487 0.0
C701 C 0.76006 0.07234 0.31048 0.0
C702 C 0.78103 0.95713 0.33079 0.0
C703 C 0.75534 0.9955 0.29089 0.0
C704 C 0.73952 0.97263 0.30253 0.0
C705 C 0.7525 0.95336 0.32264 0.0
N706 N 0.78331 0.99905 0.299 0.0
C707 C 0.7962 0.98023 0.31866 0.0
Co708 Co 0.42776 0.68802 0.15611 0.0
Co709 Co 0.47349 0.69648 0.21796 0.0
O710 O 0.46544 0.68456 0.17541 0.0
C711 C 0.46505 0.71742 0.11047 0.0
O712 O 0.47717 0.73121 0.13341 0.0
C713 C 0.49336 0.63639 0.21721 0.0
O714 O 0.4697 0.62969 0.20265 0.0
O715 O 0.44031 0.67418 0.23397 0.0
O716 O 0.40844 0.67717 0.19536 0.0
H717 H 0.44848 0.73484 0.32298 0.0
H718 H 0.47196 0.65217 0.12623 0.0
O719 O 0.44574 0.69897 0.11589 0.0
H720 H 0.39234 0.5867 0.14936 0.0
H721 H 0.3566 0.67535 0.06993 0.0
H722 H 0.37228 0.71303 0.17499 0.0
H723 H 0.3888 0.63788 0.16215 0.0
H724 H 0.40357 0.67056 0.09515 0.0
O725 O 0.49854 0.66229 0.22421 0.0
H726 H 0.43877 0.71992 0.26931 0.0
H727 H 0.52593 0.69767 0.25708 0.0
H728 H 0.3249 0.71804 0.15078 0.0
H729 H 0.47629 0.60117 0.11276 0.0
H730 H 0.31683 0.69913 0.09784 0.0
H731 H 0.43632 0.56804 0.12445 0.0
O732 O 0.42507 0.729 0.16799 0.0
H733 H 0.56186 0.7106 0.15406 0.0
H734 H 0.4952 0.75579 0.22741 0.0
H735 H 0.53546 0.78373 0.20662 0.0
H736 H 0.56917 0.7611 0.16969 0.0
H737 H 0.52111 0.68355 0.17521 0.0
H738 H 0.53652 0.71203 0.31072 0.0
H739 H 0.49766 0.7309 0.34401 0.0
O740 O 0.44875 0.73101 0.21308 0.0
C741 C 0.41532 0.67065 0.22294 0.0
C742 C 0.46561 0.72672 0.30867 0.0
C743 C 0.51502 0.71389 0.30181 0.0
N744 N 0.48179 0.70812 0.26003 0.0
C745 C 0.46026 0.71832 0.27824 0.0
C746 C 0.50887 0.70571 0.27148 0.0
C747 C 0.4932 0.72448 0.32047 0.0
C748 C 0.45437 0.63793 0.13107 0.0
N749 N 0.43012 0.64801 0.14481 0.0
C750 C 0.45699 0.60906 0.12352 0.0
C751 C 0.43457 0.59048 0.13013 0.0
C752 C 0.40989 0.60093 0.14413 0.0
C753 C 0.40804 0.62992 0.15138 0.0
C754 C 0.35984 0.68363 0.09302 0.0
C755 C 0.36889 0.70458 0.15204 0.0
C756 C 0.38641 0.68105 0.10739 0.0
N757 N 0.39062 0.69136 0.13659 0.0
C758 C 0.34203 0.70755 0.13841 0.0
C759 C 0.33753 0.69697 0.1087 0.0
C760 C 0.43251 0.74202 0.19261 0.0
C761 C 0.54734 0.72068 0.17016 0.0
C762 C 0.50966 0.74586 0.21122 0.0
C763 C 0.53249 0.76175 0.19961 0.0
C764 C 0.55141 0.74903 0.17891 0.0
N765 N 0.5058 0.71808 0.20251 0.0
C766 C 0.52429 0.70545 0.18228 0.0
Co767 Co 0.81464 0.42605 0.65759 0.0
Co768 Co 0.80487 0.47111 0.7198 0.0
O769 O 0.8176 0.46354 0.67742 0.0
C770 C 0.78538 0.46333 0.6119 0.0
O771 O 0.77109 0.47494 0.63479 0.0
C772 C 0.86489 0.4913 0.7207 0.0
O773 O 0.87206 0.46773 0.70624 0.0
O774 O 0.82696 0.43783 0.73592 0.0
O775 O 0.82498 0.40638 0.69683 0.0
H776 H 0.76462 0.44491 0.82361 0.0
H777 H 0.85069 0.47075 0.62896 0.0
O778 O 0.80418 0.44437 0.61737 0.0
H779 H 0.91624 0.39128 0.65236 0.0
H780 H 0.82912 0.35582 0.57082 0.0
H781 H 0.78948 0.37029 0.67524 0.0
H782 H 0.86489 0.3873 0.6641 0.0
H783 H 0.83326 0.40256 0.59671 0.0
O784 O 0.83881 0.49627 0.72709 0.0
H785 H 0.78062 0.43578 0.7702 0.0
H786 H 0.8027 0.52317 0.7595 0.0
H787 H 0.78512 0.32313 0.65035 0.0
H788 H 0.90188 0.47553 0.61655 0.0
H789 H 0.80501 0.31567 0.59774 0.0
H790 H 0.93504 0.43563 0.62837 0.0
O791 O 0.77348 0.42301 0.66861 0.0
H792 H 0.79158 0.56007 0.65665 0.0
H793 H 0.74529 0.49247 0.72815 0.0
H794 H 0.71759 0.53282 0.70722 0.0
H795 H 0.74077 0.567 0.67122 0.0
H796 H 0.8184 0.51922 0.67791 0.0
H797 H 0.78725 0.53317 0.81292 0.0
H798 H 0.76792 0.4939 0.84531 0.0
O799 O 0.77055 0.44633 0.71386 0.0
C800 C 0.83087 0.41297 0.72467 0.0
C801 C 0.77294 0.46221 0.80971 0.0
C802 C 0.78568 0.51175 0.80372 0.0
N803 N 0.79241 0.47895 0.7617 0.0
C804 C 0.78196 0.45719 0.77942 0.0
C805 C 0.79447 0.50593 0.77352 0.0
C806 C 0.77482 0.4897 0.82187 0.0
C807 C 0.86496 0.45319 0.63386 0.0
N808 N 0.8548 0.42875 0.64709 0.0
C809 C 0.89393 0.45606 0.62691 0.0
C810 C 0.91253 0.43369 0.63359 0.0
C811 C 0.902 0.4088 0.64707 0.0
C812 C 0.87291 0.4067 0.65373 0.0
C813 C 0.82042 0.35879 0.59378 0.0
C814 C 0.79838 0.36715 0.65244 0.0
C815 C 0.82264 0.38522 0.60852 0.0
N816 N 0.81181 0.38909 0.63756 0.0
C817 C 0.79576 0.34043 0.63842 0.0
C818 C 0.80689 0.33626 0.60889 0.0
C819 C 0.75996 0.43025 0.69297 0.0
C820 C 0.78125 0.54534 0.67234 0.0
C821 C 0.75547 0.50714 0.71237 0.0
C822 C 0.73971 0.53002 0.70067 0.0
C823 C 0.75273 0.5492 0.6805 0.0
N824 N 0.78343 0.50349 0.70426 0.0
C825 C 0.79635 0.52223 0.68453 0.0
Co826 Co 0.06885 0.80402 0.15645 0.0
Co827 Co 0.02711 0.80051 0.22253 0.0
O828 O 0.03238 0.80892 0.17834 0.0
C829 C 0.02363 0.78173 0.11221 0.0
O830 O 0.00272 0.7874 0.13137 0.0
C831 C 0.00738 0.86061 0.21799 0.0
O832 O 0.02993 0.86607 0.20096 0.0
O833 O 0.06129 0.82363 0.23382 0.0
O834 O 0.09015 0.81945 0.19264 0.0
H835 H 0.05907 0.77046 0.32849 0.0
H836 H 0.02155 0.83798 0.12789 0.0
O837 O 0.04945 0.78759 0.11898 0.0
H838 H 0.10364 0.90344 0.13362 0.0
H839 H 0.13459 0.80797 0.06438 0.0
H840 H 0.12589 0.78218 0.17446 0.0
H841 H 0.10793 0.85391 0.15211 0.0
H842 H 0.08903 0.81474 0.09201 0.0
O843 O 0.00273 0.83535 0.22763 0.0
H844 H 0.06516 0.78098 0.27301 0.0
H845 H 0.97744 0.80285 0.26566 0.0
H846 H 0.17191 0.77533 0.14784 0.0
H847 H 0.01646 0.88711 0.10881 0.0
H848 H 0.17647 0.78826 0.09237 0.0
H849 H 0.05767 0.92035 0.11165 0.0
O850 O 0.0731 0.76462 0.17278 0.0
H851 H 0.93278 0.78343 0.17044 0.0
H852 H 0.00647 0.74195 0.23822 0.0
H853 H 0.96426 0.71325 0.22438 0.0
H854 H 0.92698 0.73402 0.19031 0.0
H855 H 0.97561 0.81118 0.18448 0.0
H856 H 0.97047 0.79287 0.32112 0.0
H857 H 0.01145 0.77643 0.35289 0.0
O858 O 0.05131 0.76546 0.21899 0.0
C859 C 0.08514 0.8274 0.22026 0.0
C860 C 0.04103 0.77754 0.31487 0.0
C861 C 0.99131 0.79015 0.31074 0.0
N862 N 0.02165 0.79233 0.26608 0.0
C863 C 0.04433 0.78345 0.28343 0.0
C864 C 0.99541 0.79584 0.27937 0.0
C865 C 0.01431 0.78092 0.32855 0.0
C866 C 0.03977 0.85195 0.1287 0.0
N867 N 0.06517 0.84269 0.14054 0.0
C868 C 0.03668 0.87993 0.11808 0.0
C869 C 0.05978 0.89859 0.11975 0.0
C870 C 0.08556 0.88912 0.13207 0.0
C871 C 0.08785 0.86101 0.1425 0.0
C872 C 0.13289 0.80233 0.08857 0.0
C873 C 0.12777 0.78809 0.15041 0.0
C874 C 0.10714 0.80606 0.10432 0.0
N875 N 0.10488 0.79913 0.13492 0.0
C876 C 0.15386 0.78406 0.13542 0.0
C877 C 0.15639 0.79128 0.10429 0.0
C878 C 0.06683 0.75326 0.19867 0.0
C879 C 0.94889 0.77412 0.18527 0.0
C880 C 0.99058 0.75099 0.22304 0.0
C881 C 0.9666 0.73471 0.21546 0.0
C882 C 0.94567 0.74639 0.19639 0.0
N883 N 0.99365 0.77812 0.21193 0.0
C884 C 0.97315 0.78977 0.19338 0.0
Co885 Co 0.68951 0.07694 0.65662 0.0
Co886 Co 0.69899 0.03218 0.71912 0.0
O887 O 0.68656 0.03955 0.67661 0.0
C888 C 0.71933 0.03956 0.61145 0.0
O889 O 0.73358 0.02824 0.63453 0.0
C890 C 0.63901 0.01204 0.71927 0.0
O891 O 0.63213 0.03551 0.70446 0.0
O892 O 0.67681 0.06554 0.73492 0.0
O893 O 0.67876 0.09677 0.69565 0.0
H894 H 0.73858 0.05885 0.82312 0.0
H895 H 0.6539 0.03194 0.62784 0.0
O896 O 0.70037 0.05843 0.61663 0.0
H897 H 0.5878 0.11122 0.65021 0.0
H898 H 0.67547 0.14663 0.56931 0.0
H899 H 0.71428 0.1329 0.67419 0.0
H900 H 0.63903 0.11549 0.66243 0.0
H901 H 0.67132 0.10002 0.59542 0.0
O902 O 0.66496 0.0071 0.72623 0.0
H903 H 0.72297 0.06773 0.76952 0.0
H904 H 0.70079 0.98033 0.75911 0.0
H905 H 0.71865 0.17994 0.64909 0.0
H906 H 0.60284 0.02687 0.61496 0.0
H907 H 0.69917 0.18704 0.59624 0.0
H908 H 0.5694 0.06666 0.62627 0.0
O909 O 0.73055 0.08021 0.66803 0.0
H910 H 0.7127 0.9429 0.65655 0.0
H911 H 0.7585 0.01087 0.72805 0.0
H912 H 0.78634 0.9704 0.70758 0.0
H913 H 0.7634 0.93603 0.67158 0.0
H914 H 0.68574 0.98387 0.67737 0.0
H915 H 0.71585 0.97057 0.81271 0.0
H916 H 0.73504 0.00997 0.84504 0.0
O917 O 0.73336 0.05694 0.71331 0.0
C918 C 0.6728 0.09031 0.72351 0.0
C919 C 0.73033 0.04148 0.80923 0.0
C920 C 0.71754 0.99194 0.8034 0.0
N921 N 0.71116 0.02454 0.76116 0.0
C922 C 0.72153 0.04637 0.77885 0.0
C923 C 0.70896 0.99762 0.7731 0.0
C924 C 0.72831 0.01406 0.82153 0.0
C925 C 0.63952 0.04946 0.63251 0.0
N926 N 0.64945 0.07401 0.64573 0.0
C927 C 0.61062 0.04642 0.6253 0.0
C928 C 0.59186 0.06874 0.6317 0.0
C929 C 0.60216 0.09374 0.64515 0.0
C930 C 0.63119 0.09601 0.65208 0.0
C931 C 0.68398 0.14383 0.59237 0.0
C932 C 0.70556 0.13588 0.6513 0.0
C933 C 0.68175 0.11746 0.60724 0.0
N934 N 0.69235 0.1138 0.63641 0.0
C935 C 0.70818 0.16254 0.63715 0.0
C936 C 0.69728 0.16649 0.60749 0.0
C937 C 0.74399 0.07303 0.69246 0.0
C938 C 0.72292 0.95771 0.67225 0.0
C939 C 0.74843 0.99612 0.71227 0.0
C940 C 0.76427 0.97317 0.70084 0.0
C941 C 0.75138 0.95388 0.68066 0.0
N942 N 0.72053 0.99973 0.70391 0.0
C943 C 0.70774 0.98088 0.68418 0.0
C944 C 0.49274 0.08737 0.21586 0.0
C945 C 0.49139 0.11485 0.22866 0.0
C946 C 0.47294 0.0662 0.22434 0.0
C947 C 0.45157 0.07255 0.24649 0.0
C948 C 0.45048 0.10009 0.2599 0.0
C949 C 0.47024 0.12093 0.25067 0.0
C950 C 0.47454 0.03721 0.20919 0.0
C951 C 0.42825 0.10767 0.28383 0.0
C952 C 0.38213 0.03067 0.24727 0.0
C953 C 0.3865 0.01155 0.27179 0.0
C954 C 0.40336 0.05014 0.23842 0.0
C955 C 0.42953 0.05087 0.25474 0.0
C956 C 0.43415 0.03158 0.27948 0.0
C957 C 0.41264 0.01198 0.28757 0.0
C958 C 0.39767 0.07008 0.21169 0.0
C959 C 0.4616 0.032 0.29773 0.0
H960 H 0.50898 0.08254 0.19878 0.0
H961 H 0.46918 0.14203 0.26091 0.0
H962 H 0.47662 0.02033 0.22702 0.0
H963 H 0.4545 0.03296 0.1963 0.0
H964 H 0.49279 0.03547 0.19291 0.0
H965 H 0.43118 0.12958 0.29313 0.0
H966 H 0.40662 0.10615 0.27352 0.0
H967 H 0.42912 0.0923 0.30331 0.0
H968 H 0.36209 0.03033 0.23476 0.0
H969 H 0.41613 0.99734 0.3066 0.0
H970 H 0.41469 0.06786 0.19402 0.0
H971 H 0.39804 0.09253 0.21987 0.0
H972 H 0.37671 0.06594 0.20054 0.0
H973 H 0.48006 0.02872 0.28208 0.0
H974 H 0.46208 0.01531 0.31597 0.0
H975 H 0.46439 0.05318 0.30882 0.0
C976 C 0.3811 0.47072 0.75456 0.0
C977 C 0.38559 0.49004 0.73025 0.0
C978 C 0.40238 0.45135 0.76353 0.0
C979 C 0.42874 0.45093 0.74754 0.0
C980 C 0.43348 0.47042 0.72302 0.0
C981 C 0.41191 0.4899 0.71481 0.0
C982 C 0.39655 0.43117 0.79002 0.0
C983 C 0.46114 0.47035 0.70513 0.0
C984 C 0.49177 0.41461 0.78695 0.0
C985 C 0.49076 0.38722 0.7739 0.0
C986 C 0.47191 0.4357 0.77838 0.0
C987 C 0.45084 0.42936 0.7559 0.0
C988 C 0.4501 0.4019 0.74225 0.0
C989 C 0.4699 0.38114 0.75156 0.0
C990 C 0.47313 0.46459 0.7938 0.0
C991 C 0.4282 0.39434 0.71796 0.0
H992 H 0.36093 0.47082 0.76683 0.0
H993 H 0.4155 0.5047 0.69595 0.0
H994 H 0.39717 0.40879 0.78166 0.0
H995 H 0.41335 0.43339 0.80793 0.0
H996 H 0.37543 0.43507 0.80093 0.0
H997 H 0.46169 0.48717 0.68705 0.0
H998 H 0.4794 0.47365 0.72106 0.0
H999 H 0.46421 0.44927 0.6939 0.0
H1000 H 0.50778 0.41944 0.80428 0.0
H1001 H 0.46911 0.36012 0.74113 0.0
H1002 H 0.45292 0.46859 0.80647 0.0
H1003 H 0.47528 0.48161 0.77614 0.0
H1004 H 0.49119 0.46635 0.81032 0.0
H1005 H 0.40645 0.39562 0.728 0.0
H1006 H 0.43139 0.37252 0.70851 0.0
H1007 H 0.42917 0.40986 0.69863 0.0
C1008 C 0.01207 0.41352 0.21815 0.0
C1009 C 0.01295 0.38584 0.23046 0.0
C1010 C 0.03178 0.43443 0.22761 0.0
C1011 C 0.05255 0.4276 0.25026 0.0
C1012 C 0.05315 0.39985 0.26316 0.0
C1013 C 0.03352 0.37929 0.25296 0.0
C1014 C 0.03075 0.46365 0.21297 0.0
C1015 C 0.07471 0.39176 0.28759 0.0
C1016 C 0.12233 0.46874 0.25402 0.0
C1017 C 0.11752 0.48748 0.27881 0.0
C1018 C 0.10113 0.4497 0.24408 0.0
C1019 C 0.07453 0.44898 0.25957 0.0
C1020 C 0.06946 0.46788 0.28456 0.0
C1021 C 0.09096 0.48708 0.29375 0.0
C1022 C 0.10731 0.43017 0.2171 0.0
C1023 C 0.04153 0.46744 0.30195 0.0
H1024 H 0.99628 0.41871 0.20071 0.0
H1025 H 0.03419 0.35803 0.26283 0.0
H1026 H 0.02835 0.48027 0.23105 0.0
H1027 H 0.05112 0.46796 0.20073 0.0
H1028 H 0.01291 0.46578 0.19621 0.0
H1029 H 0.07141 0.36973 0.29641 0.0
H1030 H 0.0966 0.39327 0.27795 0.0
H1031 H 0.07346 0.40684 0.30732 0.0
H1032 H 0.14269 0.46908 0.24213 0.0
H1033 H 0.08712 0.50145 0.31295 0.0
H1034 H 0.09074 0.43283 0.19901 0.0
H1035 H 0.10659 0.4076 0.22479 0.0
H1036 H 0.12856 0.43434 0.20663 0.0
H1037 H 0.02352 0.47112 0.28579 0.0
H1038 H 0.04072 0.48387 0.32046 0.0
H1039 H 0.03827 0.44613 0.31256 0.0
C1040 C 0.0911 0.01497 0.70782 0.0
C1041 C 0.11776 0.01469 0.72256 0.0
C1042 C 0.06967 0.03426 0.71696 0.0
C1043 C 0.0749 0.05338 0.74172 0.0
C1044 C 0.10161 0.05281 0.75699 0.0
C1045 C 0.12274 0.03367 0.74709 0.0
C1046 C 0.04162 0.03452 0.69981 0.0
C1047 C 0.10798 0.07258 0.78371 0.0
C1048 C 0.03373 0.123 0.74822 0.0
C1049 C 0.01337 0.11652 0.77097 0.0
C1050 C 0.05334 0.10243 0.73796 0.0
C1051 C 0.05294 0.07475 0.75108 0.0
C1052 C 0.03238 0.068 0.77398 0.0
C1053 C 0.01269 0.08891 0.78348 0.0
C1054 C 0.07466 0.11043 0.71326 0.0
C1055 C 0.03157 0.03887 0.78885 0.0
H1056 H 0.08713 1.00042 0.68881 0.0
H1057 H 0.14318 0.03343 0.75884 0.0
H1058 H 0.02374 0.03087 0.71614 0.0
H1059 H 0.03822 0.05577 0.6891 0.0
H1060 H 0.04072 0.018 0.6814 0.0
H1061 H 0.12934 0.06857 0.79399 0.0
H1062 H 0.1071 0.09509 0.77583 0.0
H1063 H 0.09158 0.07 0.80201 0.0
H1064 H 0.03426 0.14419 0.73819 0.0
H1065 H 0.99707 0.08377 0.80112 0.0
H1066 H 0.0733 0.09521 0.69366 0.0
H1067 H 0.09664 0.10906 0.72269 0.0
H1068 H 0.07121 0.13239 0.70431 0.0
H1069 H 0.02906 0.02213 0.77092 0.0
H1070 H 0.01387 0.0368 0.8058 0.0
H1071 H 0.05205 0.03471 0.80091 0.0
C1072 C 0.5338 0.88156 0.7507 0.0
C1073 C 0.51385 0.88691 0.7742 0.0
C1074 C 0.55322 0.90262 0.74125 0.0
C1075 C 0.55309 0.9296 0.756 0.0
C1076 C 0.53301 0.93516 0.77976 0.0
C1077 C 0.51345 0.91382 0.78839 0.0
C1078 C 0.57399 0.89593 0.71554 0.0
C1079 C 0.53253 0.96349 0.7964 0.0
C1080 C 0.62254 0.97132 0.75202 0.0
C1081 C 0.61669 0.99144 0.72884 0.0
C1082 C 0.60181 0.95157 0.76155 0.0
C1083 C 0.57466 0.95155 0.74719 0.0
C1084 C 0.56857 0.97182 0.72379 0.0
C1085 C 0.58959 0.9917 0.71507 0.0
C1086 C 0.60906 0.9306 0.78687 0.0
C1087 C 0.54005 0.97216 0.70758 0.0
H1088 H 0.53408 0.8609 0.7394 0.0
H1089 H 0.49816 0.91806 0.80663 0.0
H1090 H 0.57203 0.91202 0.69685 0.0
H1091 H 0.59618 0.89705 0.72439 0.0
H1092 H 0.57045 0.87438 0.7055 0.0
H1093 H 0.51539 0.96457 0.8141 0.0
H1094 H 0.55337 0.96719 0.80791 0.0
H1095 H 0.52935 0.98109 0.77961 0.0
H1096 H 0.64334 0.97113 0.763 0.0
H1097 H 0.58497 0.00712 0.69708 0.0
H1098 H 0.60814 0.9085 0.77772 0.0
H1099 H 0.59315 0.93212 0.8058 0.0
H1100 H 0.63066 0.93431 0.79668 0.0
H1101 H 0.53647 0.95143 0.69579 0.0
H1102 H 0.53852 0.98953 0.69018 0.0
H1103 H 0.52261 0.97489 0.72467 0.0
C1104 C 0.51321 0.58675 0.21308 0.0
C1105 C 0.51378 0.61389 0.22676 0.0
C1106 C 0.53281 0.56551 0.22195 0.0
C1107 C 0.55307 0.57142 0.24542 0.0
C1108 C 0.55337 0.59864 0.25965 0.0
C1109 C 0.53392 0.61958 0.24997 0.0
C1110 C 0.53216 0.53693 0.20585 0.0
C1111 C 0.57434 0.60571 0.28505 0.0
C1112 C 0.58983 0.51011 0.28745 0.0
C1113 C 0.61688 0.5102 0.27357 0.0
C1114 C 0.56873 0.52976 0.27838 0.0
C1115 C 0.57467 0.54959 0.25449 0.0
C1116 C 0.60176 0.54934 0.23999 0.0
C1117 C 0.62258 0.52985 0.24988 0.0
C1118 C 0.54028 0.5297 0.29476 0.0
C1119 C 0.60885 0.56982 0.21415 0.0
H1120 H 0.49777 0.58225 0.19507 0.0
H1121 H 0.53432 0.6404 0.26089 0.0
H1122 H 0.55291 0.533 0.19425 0.0
H1123 H 0.52906 0.51961 0.223 0.0
H1124 H 0.51489 0.53559 0.18832 0.0
H1125 H 0.57092 0.62743 0.2947 0.0
H1126 H 0.57248 0.58994 0.30407 0.0
H1127 H 0.59646 0.60441 0.27603 0.0
H1128 H 0.58533 0.49504 0.30582 0.0
H1129 H 0.64333 0.52987 0.23881 0.0
H1130 H 0.52275 0.52674 0.27783 0.0
H1131 H 0.5368 0.55061 0.30621 0.0
H1132 H 0.53883 0.5126 0.31248 0.0
H1133 H 0.59278 0.56799 0.1954 0.0
H1134 H 0.63036 0.56588 0.20422 0.0
H1135 H 0.60806 0.59209 0.22283 0.0
C1136 C 0.96871 0.62269 0.7517 0.0
C1137 C 0.98789 0.6184 0.77619 0.0
C1138 C 0.9498 0.60114 0.74235 0.0
C1139 C 0.94969 0.57468 0.75814 0.0
C1140 C 0.96903 0.57013 0.78285 0.0
C1141 C 0.98807 0.59198 0.79144 0.0
C1142 C 0.92979 0.60678 0.71567 0.0
C1143 C 0.96926 0.54236 0.80054 0.0
C1144 C 0.88049 0.53267 0.75305 0.0
C1145 C 0.887 0.51204 0.7306 0.0
C1146 C 0.90094 0.55263 0.76278 0.0
C1147 C 0.92852 0.5523 0.74943 0.0
C1148 C 0.93531 0.53144 0.72686 0.0
C1149 C 0.91453 0.5114 0.71788 0.0
C1150 C 0.89289 0.57427 0.78716 0.0
C1151 C 0.96434 0.53068 0.71175 0.0
H1152 H 0.96858 0.64293 0.73957 0.0
H1153 H 0.00278 0.58853 0.81041 0.0
H1154 H 0.93242 0.59009 0.6977 0.0
H1155 H 0.90735 0.60579 0.72378 0.0
H1156 H 0.93347 0.628 0.70492 0.0
H1157 H 0.98595 0.54197 0.81878 0.0
H1158 H 0.94815 0.53889 0.81155 0.0
H1159 H 0.97298 0.52425 0.78452 0.0
H1160 H 0.85936 0.53316 0.76324 0.0
H1161 H 0.91968 0.49556 0.70048 0.0
H1162 H 0.89391 0.5961 0.77729 0.0
H1163 H 0.90829 0.57343 0.80662 0.0
H1164 H 0.87106 0.5707 0.79641 0.0
H1165 H 0.96816 0.55098 0.69919 0.0
H1166 H 0.9665 0.51268 0.69518 0.0
H1167 H 0.98124 0.52872 0.72957 0.0
C1168 C 0.9144 0.99094 0.28545 0.0
C1169 C 0.88687 0.99032 0.27274 0.0
C1170 C 0.93515 0.97086 0.27649 0.0
C1171 C 0.92832 0.94997 0.25396 0.0
C1172 C 0.90073 0.94966 0.24063 0.0
C1173 C 0.88032 0.96966 0.25033 0.0
C1174 C 0.96419 0.97161 0.29158 0.0
C1175 C 0.89264 0.92799 0.21629 0.0
C1176 C 0.9878 0.91023 0.21193 0.0
C1177 C 0.98762 0.88383 0.22721 0.0
C1178 C 0.96878 0.9321 0.22052 0.0
C1179 C 0.94947 0.92758 0.24526 0.0
C1180 C 0.94958 0.90114 0.26108 0.0
C1181 C 0.96847 0.87956 0.25173 0.0
C1182 C 0.96901 0.95984 0.20279 0.0
C1183 C 0.92958 0.89553 0.28779 0.0
H1184 H 0.91959 0.00679 0.30282 0.0
H1185 H 0.85918 0.96918 0.24015 0.0
H1186 H 0.96801 0.95132 0.30415 0.0
H1187 H 0.98108 0.97353 0.27374 0.0
H1188 H 0.96638 0.98962 0.30813 0.0
H1189 H 0.8708 0.93156 0.20706 0.0
H1190 H 0.90802 0.9288 0.19681 0.0
H1191 H 0.89366 0.90617 0.2262 0.0
H1192 H 0.00248 0.91365 0.19293 0.0
H1193 H 0.96834 0.85934 0.26389 0.0
H1194 H 0.97275 0.97797 0.21879 0.0
H1195 H 0.94789 0.96331 0.19181 0.0
H1196 H 0.98567 0.9602 0.18453 0.0
H1197 H 0.93225 0.91224 0.30574 0.0
H1198 H 0.93327 0.87432 0.29856 0.0
H1199 H 0.90714 0.89653 0.27971 0.0
C1200 C 0.57417 0.28816 0.22209 0.0
C1201 C 0.58478 0.27117 0.19796 0.0
C1202 C 0.58802 0.31338 0.23098 0.0
C1203 C 0.61338 0.32173 0.21566 0.0
C1204 C 0.62335 0.3056 0.19016 0.0
C1205 C 0.60883 0.28058 0.18148 0.0
C1206 C 0.57647 0.3301 0.2581 0.0
C1207 C 0.65039 0.31369 0.17334 0.0
C1208 C 0.64201 0.39555 0.23586 0.0
C1209 C 0.66023 0.38905 0.2606 0.0
C1210 C 0.62726 0.37378 0.22008 0.0
C1211 C 0.63119 0.34496 0.22908 0.0
C1212 C 0.6507 0.33829 0.25298 0.0
C1213 C 0.66481 0.36038 0.2685 0.0
C1214 C 0.6065 0.38171 0.19485 0.0
C1215 C 0.65585 0.30784 0.26309 0.0
H1216 H 0.55551 0.28129 0.23486 0.0
H1217 H 0.6172 0.26769 0.16275 0.0
H1218 H 0.59101 0.32764 0.27817 0.0
H1219 H 0.57544 0.35318 0.25246 0.0
H1220 H 0.55485 0.32278 0.26506 0.0
H1221 H 0.65314 0.30139 0.15158 0.0
H1222 H 0.65049 0.33681 0.16782 0.0
H1223 H 0.66903 0.30945 0.18847 0.0
H1224 H 0.63834 0.41768 0.2297 0.0
H1225 H 0.67915 0.35514 0.28731 0.0
H1226 H 0.58439 0.37755 0.20286 0.0
H1227 H 0.61012 0.36837 0.17403 0.0
H1228 H 0.60823 0.40457 0.18825 0.0
H1229 H 0.63609 0.29901 0.27351 0.0
H1230 H 0.67334 0.30614 0.28033 0.0
H1231 H 0.66128 0.29433 0.24287 0.0
C1232 C 0.21744 0.6061 0.69006 0.0
C1233 C 0.22782 0.58304 0.70749 0.0
C1234 C 0.19248 0.62061 0.69884 0.0
C1235 C 0.17732 0.6116 0.7254 0.0
C1236 C 0.1868 0.58738 0.74205 0.0
C1237 C 0.21202 0.57356 0.73307 0.0
C1238 C 0.18329 0.64656 0.68071 0.0
C1239 C 0.17105 0.57686 0.77031 0.0
C1240 C 0.13709 0.66536 0.77409 0.0
C1241 C 0.10864 0.66 0.76586 0.0
C1242 C 0.15959 0.65045 0.76024 0.0
C1243 C 0.15355 0.62922 0.73791 0.0
C1244 C 0.12491 0.62407 0.72894 0.0
C1245 C 0.10274 0.63976 0.74285 0.0
C1246 C 0.18984 0.65699 0.7701 0.0
C1247 C 0.11764 0.60132 0.70553 0.0
H1248 H 0.22943 0.61364 0.67026 0.0
H1249 H 0.2197 0.55571 0.74664 0.0
H1250 H 0.16024 0.64529 0.675 0.0
H1251 H 0.18644 0.66598 0.695 0.0
H1252 H 0.19559 0.64906 0.65892 0.0
H1253 H 0.17927 0.55596 0.77854 0.0
H1254 H 0.17334 0.59262 0.7893 0.0
H1255 H 0.14792 0.57471 0.76531 0.0
H1256 H 0.14182 0.68121 0.7916 0.0
H1257 H 0.08076 0.63544 0.73653 0.0
H1258 H 0.20323 0.66177 0.74959 0.0
H1259 H 0.19924 0.63808 0.7817 0.0
H1260 H 0.19099 0.6754 0.78626 0.0
H1261 H 0.13018 0.6045 0.68406 0.0
H1262 H 0.09457 0.60119 0.69959 0.0
H1263 H 0.12347 0.58004 0.71488 0.0
C1264 C 0.86216 0.10562 0.2348 0.0
C1265 C 0.84381 0.11217 0.25942 0.0
C1266 C 0.87684 0.12738 0.21894 0.0
C1267 C 0.87273 0.15624 0.22775 0.0
C1268 C 0.85304 0.16294 0.25147 0.0
C1269 C 0.83899 0.14087 0.26706 0.0
C1270 C 0.89776 0.11942 0.19388 0.0
C1271 C 0.8477 0.19342 0.2614 0.0
C1272 C 0.92974 0.21307 0.22139 0.0
C1273 C 0.9193 0.2301 0.19721 0.0
C1274 C 0.91584 0.18783 0.23009 0.0
C1275 C 0.89064 0.17946 0.21449 0.0
C1276 C 0.88087 0.1956 0.18892 0.0
C1277 C 0.89541 0.22068 0.18046 0.0
C1278 C 0.92717 0.17112 0.25732 0.0
C1279 C 0.85402 0.18746 0.17178 0.0
H1280 H 0.866 0.08347 0.22883 0.0
H1281 H 0.82453 0.14614 0.28576 0.0
H1282 H 0.89435 0.13278 0.17305 0.0
H1283 H 0.91982 0.1235 0.2021 0.0
H1284 H 0.89602 0.09657 0.18725 0.0
H1285 H 0.83005 0.19513 0.27844 0.0
H1286 H 0.86734 0.20234 0.27201 0.0
H1287 H 0.84242 0.20684 0.24107 0.0
H1288 H 0.94827 0.21994 0.23438 0.0
H1289 H 0.88718 0.23359 0.16168 0.0
H1290 H 0.92829 0.14805 0.25168 0.0
H1291 H 0.91243 0.17355 0.27723 0.0
H1292 H 0.94871 0.17847 0.26454 0.0
H1293 H 0.85396 0.16432 0.16635 0.0
H1294 H 0.85152 0.19969 0.14994 0.0
H1295 H 0.83521 0.19178 0.18665 0.0
C1296 C 0.28504 0.8973 0.68137 0.0
C1297 C 0.27461 0.92034 0.69882 0.0
C1298 C 0.30993 0.8827 0.69026 0.0
C1299 C 0.3249 0.89155 0.71702 0.0
C1300 C 0.31539 0.91576 0.73369 0.0
C1301 C 0.29031 0.92971 0.72453 0.0
C1302 C 0.31923 0.85684 0.67204 0.0
C1303 C 0.33089 0.92606 0.76221 0.0
C1304 C 0.36399 0.83811 0.76703 0.0
C1305 C 0.39265 0.84394 0.7601 0.0
C1306 C 0.3418 0.85257 0.75208 0.0
C1307 C 0.34837 0.87372 0.72985 0.0
C1308 C 0.37723 0.879 0.72184 0.0
C1309 C 0.3991 0.86384 0.73694 0.0
C1310 C 0.31133 0.84594 0.76103 0.0
C1311 C 0.38503 0.90156 0.69843 0.0
H1312 H 0.27315 0.88984 0.66145 0.0
H1313 H 0.28261 0.94754 0.73813 0.0
H1314 H 0.34241 0.85788 0.66695 0.0
H1315 H 0.31551 0.83731 0.68599 0.0
H1316 H 0.30736 0.85471 0.64993 0.0
H1317 H 0.32263 0.94693 0.77053 0.0
H1318 H 0.32838 0.91018 0.78104 0.0
H1319 H 0.35406 0.9282 0.75749 0.0
H1320 H 0.35885 0.82247 0.78463 0.0
H1321 H 0.42123 0.86849 0.73162 0.0
H1322 H 0.2984 0.84137 0.74013 0.0
H1323 H 0.3017 0.86475 0.77262 0.0
H1324 H 0.30982 0.82738 0.77693 0.0
H1325 H 0.37243 0.89871 0.67694 0.0
H1326 H 0.4081 0.90112 0.69253 0.0
H1327 H 0.37974 0.92295 0.70784 0.0
C1328 C 0.57414 0.21426 0.78043 0.0
C1329 C 0.58447 0.23114 0.80481 0.0
C1330 C 0.588 0.18901 0.77169 0.0
C1331 C 0.61307 0.18048 0.78744 0.0
C1332 C 0.62275 0.19649 0.81316 0.0
C1333 C 0.60823 0.22157 0.82166 0.0
C1334 C 0.57678 0.17243 0.74431 0.0
C1335 C 0.64947 0.1882 0.83044 0.0
C1336 C 0.64139 0.10654 0.76724 0.0
C1337 C 0.65994 0.11303 0.74279 0.0
C1338 C 0.62666 0.12835 0.78298 0.0
C1339 C 0.63095 0.15719 0.77424 0.0
C1340 C 0.65083 0.16383 0.75069 0.0
C1341 C 0.66491 0.14171 0.7352 0.0
C1342 C 0.60552 0.12045 0.80785 0.0
C1343 C 0.65636 0.19429 0.74086 0.0
H1344 H 0.5557 0.22125 0.76736 0.0
H1345 H 0.61639 0.23436 0.84058 0.0
H1346 H 0.59166 0.17484 0.72452 0.0
H1347 H 0.57549 0.14935 0.74986 0.0
H1348 H 0.55532 0.17991 0.73695 0.0
H1349 H 0.65193 0.20039 0.8523 0.0
H1350 H 0.64936 0.16505 0.83584 0.0
H1351 H 0.66838 0.1924 0.81568 0.0
H1352 H 0.63743 0.0844 0.77316 0.0
H1353 H 0.67953 0.14693 0.71663 0.0
H1354 H 0.58354 0.12469 0.79947 0.0
H1355 H 0.60888 0.13374 0.82876 0.0
H1356 H 0.60707 0.09757 0.81442 0.0
H1357 H 0.63684 0.20331 0.73012 0.0
H1358 H 0.67413 0.19594 0.72395 0.0
H1359 H 0.66158 0.20767 0.76125 0.0
C1360 C 0.39939 0.63703 0.2647 0.0
C1361 C 0.39282 0.65756 0.24224 0.0
C1362 C 0.37756 0.62189 0.27989 0.0
C1363 C 0.34864 0.62779 0.27266 0.0
C1364 C 0.34201 0.64964 0.25125 0.0
C1365 C 0.36415 0.66409 0.23621 0.0
C1366 C 0.38543 0.59862 0.30244 0.0
C1367 C 0.3115 0.65694 0.24315 0.0
C1368 C 0.29005 0.57229 0.27686 0.0
C1369 C 0.27472 0.5811 0.30306 0.0
C1370 C 0.31519 0.58624 0.26786 0.0
C1371 C 0.32516 0.60983 0.28523 0.0
C1372 C 0.31058 0.61805 0.31248 0.0
C1373 C 0.2856 0.60351 0.32116 0.0
C1374 C 0.33022 0.57664 0.23876 0.0
C1375 C 0.32042 0.64322 0.33149 0.0
H1376 H 0.42154 0.63185 0.26931 0.0
H1377 H 0.35895 0.68022 0.21916 0.0
H1378 H 0.37304 0.60088 0.32414 0.0
H1379 H 0.37998 0.57754 0.29234 0.0
H1380 H 0.40856 0.59878 0.30811 0.0
H1381 H 0.30999 0.67601 0.22797 0.0
H1382 H 0.30143 0.63863 0.23106 0.0
H1383 H 0.29896 0.66101 0.26445 0.0
H1384 H 0.28202 0.55495 0.26276 0.0
H1385 H 0.274 0.61051 0.34146 0.0
H1386 H 0.35342 0.57405 0.24309 0.0
H1387 H 0.32772 0.59314 0.22056 0.0
H1388 H 0.3216 0.55615 0.2298 0.0
H1389 H 0.34366 0.64181 0.33611 0.0
H1390 H 0.30892 0.64473 0.35389 0.0
H1391 H 0.31667 0.66322 0.31836 0.0
C1392 C 0.83833 0.36161 0.73676 0.0
C1393 C 0.84361 0.39029 0.74408 0.0
C1394 C 0.85248 0.33948 0.75215 0.0
C1395 C 0.87273 0.34612 0.77533 0.0
C1396 C 0.87728 0.37498 0.78388 0.0
C1397 C 0.86249 0.3968 0.76823 0.0
C1398 C 0.84667 0.30901 0.74252 0.0
C1399 C 0.8988 0.38288 0.80837 0.0
C1400 C 0.89615 0.28167 0.8222 0.0
C1401 C 0.91963 0.2721 0.80486 0.0
C1402 C 0.88155 0.30679 0.81404 0.0
C1403 C 0.8908 0.32281 0.78816 0.0
C1404 C 0.91559 0.31427 0.77191 0.0
C1405 C 0.92958 0.289 0.78034 0.0
C1406 C 0.85515 0.31513 0.83188 0.0
C1407 C 0.92636 0.33084 0.74432 0.0
H1408 H 0.82345 0.35639 0.71843 0.0
H1409 H 0.8667 0.41894 0.77394 0.0
H1410 H 0.86597 0.29991 0.73138 0.0
H1411 H 0.84178 0.2957 0.76304 0.0
H1412 H 0.82859 0.30737 0.72599 0.0
H1413 H 0.89729 0.40573 0.81502 0.0
H1414 H 0.89581 0.36954 0.8293 0.0
H1415 H 0.92064 0.37871 0.79955 0.0
H1416 H 0.8883 0.26886 0.84124 0.0
H1417 H 0.94779 0.28202 0.76689 0.0
H1418 H 0.83597 0.31088 0.81755 0.0
H1419 H 0.85535 0.33829 0.83724 0.0
H1420 H 0.85311 0.30298 0.85383 0.0
H1421 H 0.91112 0.3285 0.72485 0.0
H1422 H 0.94766 0.32331 0.73648 0.0
H1423 H 0.92781 0.35392 0.74987 0.0
C1424 C 0.13692 0.83579 0.22911 0.0
C1425 C 0.10854 0.84202 0.23685 0.0
C1426 C 0.15964 0.85061 0.24269 0.0
C1427 C 0.15387 0.87263 0.26419 0.0
C1428 C 0.12527 0.87866 0.27267 0.0
C1429 C 0.10288 0.86304 0.25909 0.0
C1430 C 0.18982 0.84311 0.2334 0.0
C1431 C 0.1183 0.90228 0.29517 0.0
C1432 C 0.21773 0.89602 0.31194 0.0
C1433 C 0.22867 0.91841 0.29388 0.0
C1434 C 0.19263 0.88167 0.30335 0.0
C1435 C 0.1779 0.89014 0.2763 0.0
C1436 C 0.18798 0.91367 0.25891 0.0
C1437 C 0.21331 0.92736 0.26776 0.0
C1438 C 0.18276 0.85647 0.32229 0.0
C1439 C 0.17273 0.92357 0.23008 0.0
H1440 H 0.14144 0.81933 0.2122 0.0
H1441 H 0.08095 0.86801 0.26499 0.0
H1442 H 0.19972 0.86144 0.22122 0.0
H1443 H 0.20292 0.8387 0.25422 0.0
H1444 H 0.1907 0.82418 0.21795 0.0
H1445 H 0.09519 0.90307 0.30085 0.0
H1446 H 0.13059 0.8995 0.31687 0.0
H1447 H 0.12466 0.92312 0.28511 0.0
H1448 H 0.22937 0.88889 0.33216 0.0
H1449 H 0.22142 0.94468 0.25369 0.0
H1450 H 0.18559 0.83657 0.3087 0.0
H1451 H 0.15971 0.85839 0.32775 0.0
H1452 H 0.19487 0.85436 0.34425 0.0
H1453 H 0.17482 0.90713 0.21175 0.0
H1454 H 0.18148 0.944 0.22113 0.0
H1455 H 0.14961 0.92639 0.23474 0.0
C1456 C 0.34084 0.63986 0.73072 0.0
C1457 C 0.34452 0.61151 0.74038 0.0
C1458 C 0.35522 0.66234 0.74531 0.0
C1459 C 0.37422 0.65639 0.76991 0.0
C1460 C 0.37769 0.62789 0.78022 0.0
C1461 C 0.36257 0.60576 0.76549 0.0
C1462 C 0.35053 0.69246 0.73385 0.0
C1463 C 0.39807 0.62069 0.80607 0.0
C1464 C 0.43102 0.71342 0.77803 0.0
C1465 C 0.41993 0.73045 0.80188 0.0
C1466 C 0.4173 0.68822 0.76879 0.0
C1467 C 0.39151 0.68003 0.78333 0.0
C1468 C 0.38086 0.69635 0.80836 0.0
C1469 C 0.39534 0.72125 0.81752 0.0
C1470 C 0.42963 0.67122 0.74229 0.0
C1471 C 0.35325 0.68854 0.82421 0.0
H1472 H 0.3267 0.64455 0.71157 0.0
H1473 H 0.36558 0.58389 0.77299 0.0
H1474 H 0.34449 0.7066 0.75336 0.0
H1475 H 0.37064 0.70092 0.72388 0.0
H1476 H 0.33361 0.69365 0.71591 0.0
H1477 H 0.39697 0.59781 0.81271 0.0
H1478 H 0.42023 0.62564 0.79877 0.0
H1479 H 0.39342 0.63393 0.82672 0.0
H1480 H 0.45007 0.72016 0.76587 0.0
H1481 H 0.38656 0.7342 0.83597 0.0
H1482 H 0.4157 0.67345 0.7217 0.0
H1483 H 0.43047 0.6482 0.74826 0.0
H1484 H 0.45146 0.67845 0.73599 0.0
H1485 H 0.33518 0.69198 0.80805 0.0
H1486 H 0.34947 0.70152 0.84531 0.0
H1487 H 0.35319 0.66562 0.83066 0.0
C1488 C 0.89794 0.36065 0.2673 0.0
C1489 C 0.89156 0.34221 0.24271 0.0
C1490 C 0.87604 0.37518 0.28311 0.0
C1491 C 0.84723 0.3708 0.2743 0.0
C1492 C 0.84071 0.35101 0.25061 0.0
C1493 C 0.86291 0.33713 0.23505 0.0
C1494 C 0.88381 0.39623 0.30813 0.0
C1495 C 0.81029 0.34538 0.24068 0.0
C1496 C 0.78266 0.39306 0.32165 0.0
C1497 C 0.77305 0.41687 0.30491 0.0
C1498 C 0.80782 0.37867 0.31315 0.0
C1499 C 0.82385 0.38853 0.28753 0.0
C1500 C 0.81526 0.41363 0.27189 0.0
C1501 C 0.78995 0.42737 0.28064 0.0
C1502 C 0.81618 0.35191 0.33031 0.0
C1503 C 0.83185 0.42504 0.24462 0.0
H1504 H 0.92004 0.36469 0.27327 0.0
H1505 H 0.85779 0.32259 0.21637 0.0
H1506 H 0.87952 0.41823 0.29986 0.0
H1507 H 0.87048 0.39273 0.32897 0.0
H1508 H 0.90667 0.39471 0.31476 0.0
H1509 H 0.80875 0.32767 0.22368 0.0
H1510 H 0.79691 0.34002 0.26102 0.0
H1511 H 0.80121 0.36491 0.23002 0.0
H1512 H 0.76986 0.38477 0.34048 0.0
H1513 H 0.78293 0.44584 0.26765 0.0
H1514 H 0.83931 0.35208 0.33577 0.0
H1515 H 0.81207 0.33304 0.31544 0.0
H1516 H 0.80395 0.34931 0.35213 0.0
H1517 H 0.85491 0.4264 0.25025 0.0
H1518 H 0.8243 0.4465 0.23734 0.0
H1519 H 0.82956 0.41023 0.22475 0.0
C1520 C 0.10449 0.7868 0.81229 0.0
C1521 C 0.08029 0.77684 0.79644 0.0
C1522 C 0.11921 0.81122 0.80222 0.0
C1523 C 0.10918 0.82637 0.77607 0.0
C1524 C 0.08383 0.81741 0.76114 0.0
C1525 C 0.06989 0.79262 0.77128 0.0
C1526 C 0.1464 0.81981 0.81848 0.0
C1527 C 0.07215 0.83321 0.73346 0.0
C1528 C 0.13847 0.9001 0.75658 0.0
C1529 C 0.15733 0.89362 0.7324 0.0
C1530 C 0.12285 0.87842 0.77143 0.0
C1531 C 0.12666 0.84963 0.76224 0.0
C1532 C 0.14644 0.84297 0.73858 0.0
C1533 C 0.16129 0.86502 0.7238 0.0
C1534 C 0.1016 0.88637 0.79619 0.0
C1535 C 0.15156 0.81253 0.72842 0.0
H1536 H 0.11275 0.7748 0.83173 0.0
H1537 H 0.05118 0.78527 0.75893 0.0
H1538 H 0.16485 0.81612 0.80289 0.0
H1539 H 0.14606 0.8429 0.82414 0.0
H1540 H 0.14987 0.80752 0.84011 0.0
H1541 H 0.05058 0.82554 0.72677 0.0
H1542 H 0.07098 0.85644 0.73833 0.0
H1543 H 0.08669 0.83029 0.71347 0.0
H1544 H 0.13523 0.92219 0.76321 0.0
H1545 H 0.17604 0.85981 0.70536 0.0
H1546 H 0.1058 0.87403 0.81759 0.0
H1547 H 0.07973 0.88081 0.78838 0.0
H1548 H 0.10222 0.90951 0.80181 0.0
H1549 H 0.15712 0.79906 0.74864 0.0
H1550 H 0.16897 0.81083 0.71108 0.0
H1551 H 0.13177 0.80362 0.71815 0.0
C1552 C 0.60631 0.14067 0.26744 0.0
C1553 C 0.61266 0.15915 0.24289 0.0
C1554 C 0.62824 0.12624 0.28329 0.0
C1555 C 0.65705 0.13076 0.27455 0.0
C1556 C 0.66352 0.15062 0.25093 0.0
C1557 C 0.64129 0.16441 0.23534 0.0
C1558 C 0.62052 0.10513 0.30825 0.0
C1559 C 0.69393 0.15639 0.24108 0.0
C1560 C 0.72174 0.10847 0.32167 0.0
C1561 C 0.73137 0.08474 0.30478 0.0
C1562 C 0.69653 0.12282 0.3133 0.0
C1563 C 0.68047 0.11303 0.28767 0.0
C1564 C 0.68908 0.088 0.27189 0.0
C1565 C 0.71444 0.07429 0.28051 0.0
C1566 C 0.68813 0.1495 0.33063 0.0
C1567 C 0.67248 0.07666 0.24459 0.0
H1568 H 0.58421 0.1365 0.27334 0.0
H1569 H 0.64639 0.17899 0.21671 0.0
H1570 H 0.62481 0.08314 0.2999 0.0
H1571 H 0.63388 0.10859 0.32909 0.0
H1572 H 0.59767 0.10662 0.31492 0.0
H1573 H 0.69544 0.17417 0.22417 0.0
H1574 H 0.70728 0.16172 0.26145 0.0
H1575 H 0.7031 0.13693 0.23032 0.0
H1576 H 0.73457 0.11672 0.34051 0.0
H1577 H 0.72147 0.05588 0.26741 0.0
H1578 H 0.66499 0.14928 0.33607 0.0
H1579 H 0.69225 0.16844 0.31589 0.0
H1580 H 0.70034 0.15199 0.35248 0.0
H1581 H 0.64943 0.07522 0.25025 0.0
H1582 H 0.68007 0.05526 0.23717 0.0
H1583 H 0.67469 0.09156 0.2248 0.0
C1584 C 0.39538 0.77986 0.18387 0.0
C1585 C 0.42007 0.77053 0.19924 0.0
C1586 C 0.38108 0.80479 0.19324 0.0
C1587 C 0.39201 0.82103 0.21819 0.0
C1588 C 0.41789 0.81272 0.23244 0.0
C1589 C 0.43144 0.78749 0.22301 0.0
C1590 C 0.35335 0.81273 0.17769 0.0
C1591 C 0.43052 0.82963 0.25884 0.0
C1592 C 0.36342 0.89538 0.23624 0.0
C1593 C 0.34547 0.88971 0.26146 0.0
C1594 C 0.37841 0.87321 0.22144 0.0
C1595 C 0.37494 0.84473 0.2318 0.0
C1596 C 0.35609 0.83885 0.25656 0.0
C1597 C 0.34182 0.86138 0.2712 0.0
C1598 C 0.39865 0.88035 0.19543 0.0
C1599 C 0.3514 0.80875 0.26807 0.0
H1600 H 0.38639 0.76697 0.16548 0.0
H1601 H 0.45056 0.78065 0.23496 0.0
H1602 H 0.33542 0.80938 0.19405 0.0
H1603 H 0.35335 0.83564 0.17123 0.0
H1604 H 0.34932 0.79977 0.15663 0.0
H1605 H 0.45237 0.82231 0.26491 0.0
H1606 H 0.4314 0.85266 0.25291 0.0
H1607 H 0.41677 0.82742 0.27958 0.0
H1608 H 0.36642 0.91724 0.22866 0.0
H1609 H 0.32777 0.85672 0.29044 0.0
H1610 H 0.39372 0.86721 0.17478 0.0
H1611 H 0.42083 0.87518 0.20249 0.0
H1612 H 0.39768 0.90326 0.18889 0.0
H1613 H 0.34511 0.79463 0.24864 0.0
H1614 H 0.33464 0.80762 0.28621 0.0
H1615 H 0.37157 0.80021 0.27781 0.0
C1616 C 0.71426 0.42856 0.72282 0.0
C1617 C 0.73126 0.41789 0.69871 0.0
C1618 C 0.68889 0.41491 0.73151 0.0
C1619 C 0.68036 0.3897 0.71601 0.0
C1620 C 0.69651 0.37966 0.69056 0.0
C1621 C 0.7217 0.39398 0.68208 0.0
C1622 C 0.67217 0.42652 0.7586 0.0
C1623 C 0.68822 0.35277 0.67357 0.0
C1624 C 0.641 0.33862 0.76859 0.0
C1625 C 0.6124 0.34359 0.76066 0.0
C1626 C 0.66328 0.35245 0.75312 0.0
C1627 C 0.6569 0.37208 0.72924 0.0
C1628 C 0.62814 0.37637 0.7202 0.0
C1629 C 0.60616 0.3619 0.73593 0.0
C1630 C 0.69365 0.34691 0.76329 0.0
C1631 C 0.62051 0.39726 0.69499 0.0
H1632 H 0.72124 0.4471 0.73572 0.0
H1633 H 0.73459 0.38556 0.66338 0.0
H1634 H 0.64913 0.42782 0.75284 0.0
H1635 H 0.67438 0.41187 0.7786 0.0
H1636 H 0.67968 0.44803 0.76573 0.0
H1637 H 0.70057 0.35 0.65185 0.0
H1638 H 0.69222 0.33402 0.68862 0.0
H1639 H 0.66512 0.35292 0.66794 0.0
H1640 H 0.64603 0.32418 0.78738 0.0
H1641 H 0.58409 0.36586 0.72974 0.0
H1642 H 0.70267 0.36652 0.77385 0.0
H1643 H 0.70715 0.3414 0.74309 0.0
H1644 H 0.6951 0.32933 0.78045 0.0
H1645 H 0.62484 0.41932 0.70309 0.0
H1646 H 0.59766 0.39576 0.68828 0.0
H1647 H 0.6339 0.39357 0.67422 0.0
C1648 C 0.13832 0.60206 0.2458 0.0
C1649 C 0.15729 0.60842 0.26992 0.0
C1650 C 0.12261 0.62382 0.23118 0.0
C1651 C 0.12646 0.65255 0.24055 0.0
C1652 C 0.14633 0.6591 0.26415 0.0
C1653 C 0.16126 0.63696 0.27871 0.0
C1654 C 0.10126 0.61599 0.20648 0.0
C1655 C 0.15149 0.68948 0.27448 0.0
C1656 C 0.10406 0.71546 0.19073 0.0
C1657 C 0.0799 0.72536 0.20667 0.0
C1658 C 0.11887 0.69107 0.20072 0.0
C1659 C 0.10895 0.67588 0.22689 0.0
C1660 C 0.08364 0.68478 0.24194 0.0
C1661 C 0.06962 0.70955 0.23188 0.0
C1662 C 0.14603 0.68256 0.18436 0.0
C1663 C 0.07206 0.66891 0.26962 0.0
H1664 H 0.13505 0.58002 0.23904 0.0
H1665 H 0.17609 0.64207 0.29712 0.0
H1666 H 0.07944 0.62157 0.2144 0.0
H1667 H 0.10542 0.62839 0.18512 0.0
H1668 H 0.10181 0.59287 0.20077 0.0
H1669 H 0.16896 0.69109 0.29175 0.0
H1670 H 0.15698 0.70305 0.25432 0.0
H1671 H 0.13174 0.69833 0.28489 0.0
H1672 H 0.11223 0.72748 0.17125 0.0
H1673 H 0.05094 0.71687 0.24431 0.0
H1674 H 0.14566 0.65951 0.17854 0.0
H1675 H 0.16451 0.68614 0.19994 0.0
H1676 H 0.14949 0.69498 0.16281 0.0
H1677 H 0.07086 0.64569 0.26468 0.0
H1678 H 0.05052 0.67656 0.27643 0.0
H1679 H 0.08668 0.67177 0.28955 0.0
C1680 C 0.8631 0.16499 0.76773 0.0
C1681 C 0.89168 0.15987 0.75981 0.0
C1682 C 0.84076 0.15113 0.75238 0.0
C1683 C 0.84706 0.13132 0.72864 0.0
C1684 C 0.8758 0.12687 0.71959 0.0
C1685 C 0.89784 0.14139 0.73519 0.0
C1686 C 0.81042 0.15683 0.76254 0.0
C1687 C 0.88335 0.10579 0.69453 0.0
C1688 C 0.78957 0.07492 0.72252 0.0
C1689 C 0.77265 0.08545 0.6983 0.0
C1690 C 0.81494 0.08859 0.7312 0.0
C1691 C 0.82354 0.11369 0.71555 0.0
C1692 C 0.80745 0.1236 0.69 0.0
C1693 C 0.78226 0.10927 0.68155 0.0
C1694 C 0.8316 0.07712 0.75838 0.0
C1695 C 0.81581 0.15038 0.67285 0.0
H1696 H 0.85814 0.17955 0.78644 0.0
H1697 H 0.91989 0.13731 0.72902 0.0
H1698 H 0.79692 0.16224 0.74231 0.0
H1699 H 0.80135 0.13732 0.77326 0.0
H1700 H 0.80904 0.17454 0.77957 0.0
H1701 H 0.90619 0.10716 0.6878 0.0
H1702 H 0.87894 0.0838 0.70279 0.0
H1703 H 0.86996 0.10939 0.67375 0.0
H1704 H 0.78255 0.05644 0.73551 0.0
H1705 H 0.76942 0.11758 0.66276 0.0
H1706 H 0.82944 0.09193 0.77827 0.0
H1707 H 0.85464 0.07569 0.75265 0.0
H1708 H 0.82401 0.05569 0.76568 0.0
H1709 H 0.81191 0.16922 0.68781 0.0
H1710 H 0.80344 0.15309 0.65114 0.0
H1711 H 0.8389 0.15011 0.66719 0.0
C1712 C 0.51177 0.24573 0.07149 0.0
C1713 C 0.53258 0.22522 0.07863 0.0
C1714 C 0.50788 0.25523 0.0409 0.0
C1715 C 0.52548 0.24426 0.01706 0.0
C1716 C 0.54567 0.22272 0.02399 0.0
C1717 C 0.54881 0.21335 0.05456 0.0
C1718 C 0.48576 0.27784 0.03433 0.0
C1719 C 0.5651 0.21059 0.99939 0.0
C1720 C 0.51235 0.25423 0.9309 0.0
C1721 C 0.53159 0.27627 0.92395 0.0
C1722 C 0.50879 0.24458 0.96148 0.0
C1723 C 0.5251 0.25706 0.98553 0.0
C1724 C 0.54352 0.28019 0.9788 0.0
C1725 C 0.54638 0.2896 0.94822 0.0
C1726 C 0.48856 0.22022 0.96782 0.0
C1727 C 0.56151 0.29399 0.00365 0.0
H1728 H 0.49896 0.25486 0.08986 0.0
H1729 H 0.56487 0.19739 0.05969 0.0
H1730 H 0.49654 0.29831 0.02884 0.0
H1731 H 0.47276 0.27184 0.01389 0.0
H1732 H 0.4713 0.28135 0.05432 0.0
H1733 H 0.5785 0.1928 0.00821 0.0
H1734 H 0.55239 0.20268 0.97954 0.0
H1735 H 0.57941 0.22763 0.99059 0.0
H1736 H 0.50065 0.24394 0.91237 0.0
H1737 H 0.56115 0.30679 0.94324 0.0
H1738 H 0.47494 0.22508 0.98813 0.0
H1739 H 0.50095 0.2007 0.97337 0.0
H1740 H 0.4746 0.21556 0.94768 0.0
H1741 H 0.54794 0.30071 0.02334 0.0
H1742 H 0.57335 0.31292 0.99499 0.0
H1743 H 0.5772 0.2783 0.01262 0.0
C1744 C 0.21759 0.49875 0.44591 0.0
C1745 C 0.22976 0.51945 0.42666 0.0
C1746 C 0.22609 0.49633 0.477 0.0
C1747 C 0.24788 0.51442 0.48857 0.0
C1748 C 0.26134 0.53416 0.4685 0.0
C1749 C 0.25169 0.53683 0.43796 0.0
C1750 C 0.21058 0.4757 0.49786 0.0
C1751 C 0.28523 0.55326 0.47956 0.0
C1752 C 0.2515 0.53845 0.57212 0.0
C1753 C 0.27306 0.52091 0.58397 0.0
C1754 C 0.24187 0.53526 0.54164 0.0
C1755 C 0.25498 0.51478 0.52214 0.0
C1756 C 0.27641 0.49657 0.53426 0.0
C1757 C 0.28488 0.49955 0.5653 0.0
C1758 C 0.21837 0.55452 0.53 0.0
C1759 C 0.29155 0.47516 0.514 0.0
H1760 H 0.20035 0.4856 0.43715 0.0
H1761 H 0.26109 0.5528 0.42293 0.0
H1762 H 0.22598 0.46239 0.51092 0.0
H1763 H 0.19786 0.48785 0.51504 0.0
H1764 H 0.19597 0.46144 0.48479 0.0
H1765 H 0.29575 0.56475 0.46021 0.0
H1766 H 0.27669 0.5693 0.496 0.0
H1767 H 0.30157 0.54056 0.49205 0.0
H1768 H 0.24234 0.55492 0.58671 0.0
H1769 H 0.30182 0.48626 0.57446 0.0
H1770 H 0.20178 0.54182 0.5179 0.0
H1771 H 0.22722 0.56995 0.51308 0.0
H1772 H 0.20808 0.56673 0.54899 0.0
H1773 H 0.27591 0.46177 0.50135 0.0
H1774 H 0.30595 0.46101 0.52747 0.0
H1775 H 0.30445 0.48665 0.49644 0.0
C1776 C 0.95585 0.28861 0.05433 0.0
C1777 C 0.97192 0.27649 0.07838 0.0
C1778 C 0.95899 0.27937 0.02371 0.0
C1779 C 0.97903 0.25771 0.0167 0.0
C1780 C 0.99649 0.24647 0.04052 0.0
C1781 C 0.99259 0.25585 0.07116 0.0
C1782 C 0.93972 0.29177 0.99914 0.0
C1783 C 0.01844 0.22372 0.03386 0.0
C1784 C 0.95799 0.21281 0.94752 0.0
C1785 C 0.97293 0.22613 0.92337 0.0
C1786 C 0.96082 0.22208 0.97816 0.0
C1787 C 0.97939 0.24505 0.98508 0.0
C1788 C 0.99585 0.25751 0.96115 0.0
C1789 C 0.9923 0.24802 0.9305 0.0
C1790 C 0.94265 0.20831 0.00287 0.0
C1791 C 0.01625 0.28169 0.96769 0.0
H1792 H 0.93991 0.30467 0.05953 0.0
H1793 H 0.00528 0.24653 0.08951 0.0
H1794 H 0.95254 0.29967 0.97937 0.0
H1795 H 0.9253 0.27488 0.99019 0.0
H1796 H 0.92644 0.30962 0.00803 0.0
H1797 H 0.03283 0.22 0.05387 0.0
H1798 H 0.00752 0.20337 0.02822 0.0
H1799 H 0.03154 0.22973 0.0135 0.0
H1800 H 0.9431 0.19574 0.9424 0.0
H1801 H 0.00412 0.25831 0.91207 0.0
H1802 H 0.92707 0.22409 0.0119 0.0
H1803 H 0.95612 0.20138 0.02256 0.0
H1804 H 0.93067 0.18952 0.99406 0.0
H1805 H 0.00399 0.30127 0.97334 0.0
H1806 H 0.03028 0.28634 0.94762 0.0
H1807 H 0.02978 0.27663 0.98801 0.0
C1808 C 0.28654 1.00096 0.43686 0.0
C1809 C 0.27385 0.98059 0.41759 0.0
C1810 C 0.27797 0.00374 0.46789 0.0
C1811 C 0.25558 0.98636 0.47938 0.0
C1812 C 0.24163 0.96697 0.45929 0.0
C1813 C 0.25136 0.9639 0.42882 0.0
C1814 C 0.29401 0.02395 0.48879 0.0
C1815 C 0.21711 0.94866 0.47027 0.0
C1816 C 0.25094 0.96291 0.56306 0.0
C1817 C 0.22993 0.9812 0.57476 0.0
C1818 C 0.26071 0.9656 0.53258 0.0
C1819 C 0.2483 0.98635 0.51292 0.0
C1820 C 0.22743 0.0053 0.52486 0.0
C1821 C 0.21881 0.0028 0.5559 0.0
C1822 C 0.28363 0.94553 0.52113 0.0
C1823 C 0.21302 0.02706 0.50442 0.0
H1824 H 0.30422 0.01357 0.42816 0.0
H1825 H 0.24156 0.94818 0.41377 0.0
H1826 H 0.27896 0.03782 0.50165 0.0
H1827 H 0.3062 0.01147 0.50614 0.0
H1828 H 0.30918 0.03765 0.47578 0.0
H1829 H 0.20635 0.93743 0.45088 0.0
H1830 H 0.22507 0.93242 0.48681 0.0
H1831 H 0.20111 0.9619 0.4826 0.0
H1832 H 0.25956 0.94627 0.57778 0.0
H1833 H 0.20229 0.01669 0.56494 0.0
H1834 H 0.30067 0.95764 0.50907 0.0
H1835 H 0.27435 0.93033 0.50422 0.0
H1836 H 0.29343 0.93307 0.54022 0.0
H1837 H 0.22912 0.03995 0.49183 0.0
H1838 H 0.19898 0.04169 0.51774 0.0
H1839 H 0.1999 0.01589 0.48682 0.0
C1840 C 0.49142 0.75185 0.92966 0.0
C1841 C 0.47285 0.77444 0.92262 0.0
C1842 C 0.49498 0.74248 0.96034 0.0
C1843 C 0.47938 0.75583 0.9844 0.0
C1844 C 0.46173 0.77951 0.97756 0.0
C1845 C 0.45884 0.78861 0.94688 0.0
C1846 C 0.51438 0.71747 0.96679 0.0
C1847 C 0.44452 0.79427 0.00241 0.0
C1848 C 0.45454 0.71362 0.05403 0.0
C1849 C 0.47138 0.72504 0.07787 0.0
C1850 C 0.4578 0.72263 0.02337 0.0
C1851 C 0.47874 0.74334 0.01608 0.0
C1852 C 0.49689 0.75386 0.03968 0.0
C1853 C 0.49285 0.74475 0.07039 0.0
C1854 C 0.43775 0.71104 0.99904 0.0
C1855 C 0.5198 0.77556 0.0327 0.0
H1856 H 0.50252 0.74091 0.91114 0.0
H1857 H 0.44465 0.80627 0.94184 0.0
H1858 H 0.52828 0.72203 0.98696 0.0
H1859 H 0.50133 0.69846 0.97262 0.0
H1860 H 0.52802 0.71216 0.9466 0.0
H1861 H 0.43337 0.81357 0.99365 0.0
H1862 H 0.42828 0.7793 0.01171 0.0
H1863 H 0.4585 0.80063 0.02191 0.0
H1864 H 0.43795 0.69829 0.05943 0.0
H1865 H 0.50613 0.75351 0.08858 0.0
H1866 H 0.45003 0.70243 0.9792 0.0
H1867 H 0.42408 0.72854 0.99012 0.0
H1868 H 0.42371 0.69388 0.00815 0.0
H1869 H 0.53245 0.76887 0.01227 0.0
H1870 H 0.53449 0.77873 0.05257 0.0
H1871 H 0.50977 0.79636 0.02703 0.0
C1872 C 0.75702 0.49009 0.57185 0.0
C1873 C 0.77772 0.46955 0.57928 0.0
C1874 C 0.7477 0.49375 0.54116 0.0
C1875 C 0.75908 0.47618 0.5175 0.0
C1876 C 0.78081 0.45629 0.52471 0.0
C1877 C 0.78998 0.45338 0.55538 0.0
C1878 C 0.72487 0.51555 0.53427 0.0
C1879 C 0.79336 0.43691 0.50031 0.0
C1880 C 0.71441 0.45455 0.44836 0.0
C1881 C 0.72766 0.46947 0.42415 0.0
C1882 C 0.72364 0.45756 0.479 0.0
C1883 C 0.7465 0.47628 0.48584 0.0
C1884 C 0.75892 0.49268 0.46183 0.0
C1885 C 0.74947 0.48896 0.4312 0.0
C1886 C 0.70991 0.43946 0.50379 0.0
C1887 C 0.78301 0.51321 0.4683 0.0
H1888 H 0.74759 0.50286 0.59008 0.0
H1889 H 0.80609 0.43754 0.56073 0.0
H1890 H 0.73088 0.52855 0.51385 0.0
H1891 H 0.70459 0.50449 0.52863 0.0
H1892 H 0.72102 0.53004 0.55418 0.0
H1893 H 0.81126 0.42378 0.50935 0.0
H1894 H 0.77657 0.42233 0.49144 0.0
H1895 H 0.80124 0.44963 0.48046 0.0
H1896 H 0.69741 0.43957 0.44331 0.0
H1897 H 0.7597 0.50076 0.41272 0.0
H1898 H 0.70287 0.45301 0.52338 0.0
H1899 H 0.72576 0.42402 0.51297 0.0
H1900 H 0.69121 0.42733 0.49502 0.0
H1901 H 0.77782 0.52688 0.48848 0.0
H1902 H 0.78768 0.52711 0.44812 0.0
H1903 H 0.80261 0.50106 0.47412 0.0
C1904 C 0.9977 0.78424 0.06193 0.0
C1905 C 0.01761 0.77066 0.08105 0.0
C1906 C 0.99522 0.77664 0.03058 0.0
C1907 C 0.01243 0.75434 0.01857 0.0
C1908 C 0.03129 0.73947 0.03847 0.0
C1909 C 0.03407 0.74823 0.06931 0.0
C1910 C 0.97559 0.79362 0.00994 0.0
C1911 C 0.04941 0.71503 0.0269 0.0
C1912 C 0.99686 0.72034 0.94037 0.0
C1913 C 0.01892 0.73176 0.92238 0.0
C1914 C 0.99391 0.72798 0.97167 0.0
C1915 C 0.01292 0.74818 0.98478 0.0
C1916 C 0.03417 0.76095 0.96602 0.0
C1917 C 0.03725 0.75216 0.93523 0.0
C1918 C 0.9716 0.71323 0.9911 0.0
C1919 C 0.05435 0.78318 0.97876 0.0
H1920 H 0.9853 0.80189 0.07102 0.0
H1921 H 0.04946 0.73778 0.08423 0.0
H1922 H 0.98852 0.80626 0.99337 0.0
H1923 H 0.96178 0.7792 0.99618 0.0
H1924 H 0.96182 0.8085 0.02328 0.0
H1925 H 0.06012 0.70345 0.04607 0.0
H1926 H 0.03615 0.69966 0.01367 0.0
H1927 H 0.06607 0.72328 0.01102 0.0
H1928 H 0.98293 0.70427 0.93046 0.0
H1929 H 0.05427 0.76103 0.9212 0.0
H1930 H 0.95875 0.72908 0.00409 0.0
H1931 H 0.98229 0.69934 0.00837 0.0
H1932 H 0.957 0.69986 0.97695 0.0
H1933 H 0.04228 0.8 0.99124 0.0
H1934 H 0.06729 0.79343 0.96032 0.0
H1935 H 0.06912 0.77313 0.99559 0.0
C1936 C 0.71438 0.04847 0.55477 0.0
C1937 C 0.72717 0.03308 0.57893 0.0
C1938 C 0.72366 0.04543 0.52416 0.0
C1939 C 0.74608 0.02621 0.51728 0.0
C1940 C 0.75802 0.00938 0.54122 0.0
C1941 C 0.74854 0.01314 0.57184 0.0
C1942 C 0.71046 0.06401 0.49944 0.0
C1943 C 0.78162 0.9883 0.53471 0.0
C1944 C 0.75637 0.0126 0.43122 0.0
C1945 C 0.77753 0.03271 0.42395 0.0
C1946 C 0.74696 0.00899 0.46188 0.0
C1947 C 0.75873 0.02614 0.48566 0.0
C1948 C 0.78094 0.04555 0.4786 0.0
C1949 C 0.79018 0.04844 0.44796 0.0
C1950 C 0.72359 0.98771 0.4686 0.0
C1951 C 0.79394 0.06448 0.50315 0.0
H1952 H 0.69772 0.06382 0.55986 0.0
H1953 H 0.7584 1.00097 0.59028 0.0
H1954 H 0.72672 0.07907 0.49039 0.0
H1955 H 0.70311 0.05074 0.47976 0.0
H1956 H 0.69207 0.07658 0.50823 0.0
H1957 H 0.78592 0.9742 0.55483 0.0
H1958 H 0.77615 0.97485 0.51445 0.0
H1959 H 0.80152 1.0 0.52899 0.0
H1960 H 0.74663 1.00019 0.4129 0.0
H1961 H 0.80666 0.06393 0.44272 0.0
H1962 H 0.70357 0.99923 0.47423 0.0
H1963 H 0.72922 0.97448 0.48898 0.0
H1964 H 0.71944 0.9734 0.44861 0.0
H1965 H 0.77752 0.07944 0.51206 0.0
H1966 H 0.8122 0.07717 0.49423 0.0
H1967 H 0.80143 0.05146 0.52295 0.0
loop_
_geom_bond_atom_site_label_1
_geom_bond_atom_site_label_2
_geom_bond_distance
_geom_bond_site_symmetry_2
_ccdc_geom_bond_type
Co0 O2 2.143 . S
Co0 O8 2.074 . S
Co0 O11 2.093 . S
Co0 O24 2.097 . S
Co0 N41 2.151 . S
Co0 N49 2.214 . S
Co1 O2 2.160 . S
Co1 O7 2.058 . S
Co1 O17 2.057 . S
Co1 O32 2.037 . S
Co1 N36 2.145 . S
Co1 N57 2.257 . S
O2 Co0 2.143 . S
O2 Co1 2.160 . S
C3 O4 1.278 . S
C3 O11 1.224 . S
O4 C3 1.278 . S
C5 O6 1.245 . S
C5 O17 1.232 . S
O6 C5 1.245 . S
O7 Co1 2.058 . S
O7 C33 1.269 . S
O8 Co0 2.074 . S
O8 C33 1.257 . S
H9 C34 0.930 . S
H10 C40 0.930 . S
O11 Co0 2.093 . S
O11 C3 1.224 . S
H12 C44 0.929 . S
H13 C46 0.930 . S
H14 C47 0.930 . S
H15 C45 0.929 . S
H16 C48 0.928 . S
O17 Co1 2.057 . S
O17 C5 1.232 . S
H18 C37 0.929 . S
H19 C38 0.929 . S
H20 C50 0.931 . S
H21 C42 0.929 . S
H22 C51 0.930 . S
H23 C43 0.931 . S
O24 Co0 2.097 . S
O24 C52 1.214 . S
H25 C53 0.929 . S
H26 C54 0.929 . S
H27 C55 0.930 . S
H28 C56 0.929 . S
H29 C58 0.930 . S
H30 C35 0.930 . S
H31 C39 0.930 . S
O32 Co1 2.037 . S
O32 C52 1.234 . S
C33 O7 1.269 . S
C33 O8 1.257 . S
C34 H9 0.930 . S
C34 C37 1.388 . S
C34 C39 1.418 . S
C35 H30 0.930 . S
C35 C38 1.404 . S
C35 C39 1.353 . S
N36 Co1 2.145 . S
N36 C37 1.397 . S
N36 C38 1.334 . S
C37 H18 0.929 . S
C37 C34 1.388 . S
C37 N36 1.397 . S
C38 H19 0.929 . S
C38 C35 1.404 . S
C38 N36 1.334 . S
C39 H31 0.930 . S
C39 C34 1.418 . S
C39 C35 1.353 . S
C40 H10 0.930 . S
C40 N41 1.330 . S
C40 C42 1.446 . S
N41 Co0 2.151 . S
N41 C40 1.330 . S
N41 C45 1.418 . S
C42 H21 0.929 . S
C42 C40 1.446 . S
C42 C43 1.332 . S
C43 H23 0.931 . S
C43 C42 1.332 . S
C43 C44 1.267 . S
C44 H12 0.929 . S
C44 C43 1.267 . S
C44 C45 1.251 . S
C45 H15 0.929 . S
C45 N41 1.418 . S
C45 C44 1.251 . S
C46 H13 0.930 . S
C46 C48 1.406 . S
C46 C51 1.261 . S
C47 H14 0.930 . S
C47 N49 1.325 . S
C47 C50 1.357 . S
C48 H16 0.928 . S
C48 C46 1.406 . S
C48 N49 1.261 . S
N49 Co0 2.214 . S
N49 C47 1.325 . S
N49 C48 1.261 . S
C50 H20 0.931 . S
C50 C47 1.357 . S
C50 C51 1.312 . S
C51 H22 0.930 . S
C51 C46 1.261 . S
C51 C50 1.312 . S
C52 O24 1.214 . S
C52 O32 1.234 . S
C53 H25 0.929 . S
C53 C56 1.391 . S
C53 C58 1.391 . S
C54 H26 0.929 . S
C54 C55 1.390 . S
C54 N57 1.391 . S
C55 H27 0.930 . S
C55 C54 1.390 . S
C55 C56 1.392 . S
C56 H28 0.929 . S
C56 C53 1.391 . S
C56 C55 1.392 . S
N57 Co1 2.257 . S
N57 C54 1.391 . S
N57 C58 1.388 . S
C58 H29 0.930 . S
C58 C53 1.391 . S
C58 N57 1.388 . S
Co59 O61 2.143 . S
Co59 O67 2.074 . S
Co59 O70 2.093 . S
Co59 O83 2.097 . S
Co59 N100 2.151 . S
Co59 N108 2.214 . S
Co60 O61 2.160 . S
Co60 O66 2.058 . S
Co60 O76 2.057 . S
Co60 O91 2.037 . S
Co60 N95 2.145 . S
Co60 N116 2.257 . S
O61 Co59 2.143 . S
O61 Co60 2.160 . S
C62 O63 1.278 . S
C62 O70 1.224 . S
O63 C62 1.278 . S
C64 O65 1.245 . S
C64 O76 1.232 . S
O65 C64 1.245 . S
O66 Co60 2.058 . S
O66 C92 1.269 . S
O67 Co59 2.074 . S
O67 C92 1.257 . S
H68 C93 0.930 . S
H69 C99 0.930 . S
O70 Co59 2.093 . S
O70 C62 1.224 . S
H71 C103 0.929 . S
H72 C105 0.930 . S
H73 C106 0.930 . S
H74 C104 0.929 . S
H75 C107 0.928 . S
O76 Co60 2.057 . S
O76 C64 1.232 . S
H77 C96 0.929 . S
H78 C97 0.929 . S
H79 C109 0.931 . S
H80 C101 0.929 . S
H81 C110 0.930 . S
H82 C102 0.931 . S
O83 Co59 2.097 . S
O83 C111 1.214 . S
H84 C112 0.929 . S
H85 C113 0.929 . S
H86 C114 0.930 . S
H87 C115 0.929 . S
H88 C117 0.930 . S
H89 C94 0.930 . S
H90 C98 0.930 . S
O91 Co60 2.037 . S
O91 C111 1.234 . S
C92 O66 1.269 . S
C92 O67 1.257 . S
C93 H68 0.930 . S
C93 C96 1.388 . S
C93 C98 1.418 . S
C94 H89 0.930 . S
C94 C97 1.404 . S
C94 C98 1.353 . S
N95 Co60 2.145 . S
N95 C96 1.397 . S
N95 C97 1.334 . S
C96 H77 0.929 . S
C96 C93 1.388 . S
C96 N95 1.397 . S
C97 H78 0.929 . S
C97 C94 1.404 . S
C97 N95 1.334 . S
C98 H90 0.930 . S
C98 C93 1.418 . S
C98 C94 1.353 . S
C99 H69 0.930 . S
C99 N100 1.330 . S
C99 C101 1.446 . S
N100 Co59 2.151 . S
N100 C99 1.330 . S
N100 C104 1.418 . S
C101 H80 0.929 . S
C101 C99 1.446 . S
C101 C102 1.332 . S
C102 H82 0.931 . S
C102 C101 1.332 . S
C102 C103 1.267 . S
C103 H71 0.929 . S
C103 C102 1.267 . S
C103 C104 1.251 . S
C104 H74 0.929 . S
C104 N100 1.418 . S
C104 C103 1.251 . S
C105 H72 0.930 . S
C105 C107 1.406 . S
C105 C110 1.261 . S
C106 H73 0.930 . S
C106 N108 1.325 . S
C106 C109 1.357 . S
C107 H75 0.928 . S
C107 C105 1.406 . S
C107 N108 1.261 . S
N108 Co59 2.214 . S
N108 C106 1.325 . S
N108 C107 1.261 . S
C109 H79 0.931 . S
C109 C106 1.357 . S
C109 C110 1.312 . S
C110 H81 0.930 . S
C110 C105 1.261 . S
C110 C109 1.312 . S
C111 O83 1.214 . S
C111 O91 1.234 . S
C112 H84 0.929 . S
C112 C115 1.391 . S
C112 C117 1.391 . S
C113 H85 0.929 . S
C113 C114 1.390 . S
C113 N116 1.391 . S
C114 H86 0.930 . S
C114 C113 1.390 . S
C114 C115 1.392 . S
C115 H87 0.929 . S
C115 C112 1.391 . S
C115 C114 1.392 . S
N116 Co60 2.257 . S
N116 C113 1.391 . S
N116 C117 1.388 . S
C117 H88 0.930 . S
C117 C112 1.391 . S
C117 N116 1.388 . S
Co118 O120 2.143 . S
Co118 O126 2.074 . S
Co118 O129 2.093 . S
Co118 O142 2.097 . S
Co118 N159 2.151 . S
Co118 N167 2.214 . S
Co119 O120 2.160 . S
Co119 O125 2.058 . S
Co119 O135 2.057 1_655 S
Co119 O150 2.037 . S
Co119 N154 2.145 . S
Co119 N175 2.257 1_655 S
O120 Co118 2.143 . S
O120 Co119 2.160 . S
C121 O122 1.278 1_655 S
C121 O129 1.224 . S
O122 C121 1.278 1_455 S
C123 O124 1.245 . S
C123 O135 1.232 . S
O124 C123 1.245 . S
O125 Co119 2.058 . S
O125 C151 1.269 . S
O126 Co118 2.074 . S
O126 C151 1.257 . S
H127 C152 0.930 . S
H128 C158 0.930 . S
O129 Co118 2.093 . S
O129 C121 1.224 . S
H130 C162 0.929 . S
H131 C164 0.930 . S
H132 C165 0.930 . S
H133 C163 0.929 . S
H134 C166 0.928 . S
O135 Co119 2.057 1_455 S
O135 C123 1.232 . S
H136 C155 0.929 . S
H137 C156 0.929 . S
H138 C168 0.931 . S
H139 C160 0.929 . S
H140 C169 0.930 . S
H141 C161 0.931 . S
O142 Co118 2.097 . S
O142 C170 1.214 . S
H143 C171 0.929 . S
H144 C172 0.933 . S
H145 C173 0.930 . S
H146 C174 0.929 . S
H147 C176 0.930 . S
H148 C153 0.930 . S
H149 C157 0.930 1_455 S
O150 Co119 2.037 . S
O150 C170 1.234 . S
C151 O125 1.269 . S
C151 O126 1.257 . S
C152 H127 0.930 . S
C152 C155 1.388 . S
C152 C157 1.418 . S
C153 H148 0.930 . S
C153 C156 1.404 . S
C153 C157 1.353 1_455 S
N154 Co119 2.145 . S
N154 C155 1.397 . S
N154 C156 1.334 1_655 S
C155 H136 0.929 . S
C155 C152 1.388 . S
C155 N154 1.397 . S
C156 H137 0.929 . S
C156 C153 1.404 . S
C156 N154 1.334 1_455 S
C157 H149 0.930 1_655 S
C157 C152 1.418 . S
C157 C153 1.353 1_655 S
C158 H128 0.930 . S
C158 N159 1.330 . S
C158 C160 1.446 . S
N159 Co118 2.151 . S
N159 C158 1.330 . S
N159 C163 1.418 . S
C160 H139 0.929 . S
C160 C158 1.446 . S
C160 C161 1.332 . S
C161 H141 0.931 . S
C161 C160 1.332 . S
C161 C162 1.267 . S
C162 H130 0.929 . S
C162 C161 1.267 . S
C162 C163 1.251 . S
C163 H133 0.929 . S
C163 N159 1.418 . S
C163 C162 1.251 . S
C164 H131 0.930 . S
C164 C166 1.406 . S
C164 C169 1.261 . S
C165 H132 0.930 . S
C165 N167 1.325 . S
C165 C168 1.357 . S
C166 H134 0.928 . S
C166 C164 1.406 . S
C166 N167 1.261 . S
N167 Co118 2.214 . S
N167 C165 1.325 . S
N167 C166 1.261 . S
C168 H138 0.931 . S
C168 C165 1.357 . S
C168 C169 1.312 . S
C169 H140 0.930 . S
C169 C164 1.261 . S
C169 C168 1.312 . S
C170 O142 1.214 . S
C170 O150 1.234 . S
C171 H143 0.929 . S
C171 C174 1.391 . S
C171 C176 1.391 . S
C172 H144 0.933 . S
C172 C173 1.390 . S
C172 N175 1.391 . S
C173 H145 0.930 . S
C173 C172 1.390 . S
C173 C174 1.392 . S
C174 H146 0.929 . S
C174 C171 1.391 . S
C174 C173 1.392 . S
N175 Co119 2.257 1_455 S
N175 C172 1.391 . S
N175 C176 1.388 . S
C176 H147 0.930 . S
C176 C171 1.391 . S
C176 N175 1.388 . S
Co177 O179 2.143 . S
Co177 O185 2.074 . S
Co177 O188 2.093 . S
Co177 O201 2.097 . S
Co177 N218 2.151 . S
Co177 N226 2.214 . S
Co178 O179 2.160 . S
Co178 O184 2.058 . S
Co178 O194 2.057 1_565 S
Co178 O209 2.037 . S
Co178 N213 2.145 . S
Co178 N234 2.257 1_565 S
O179 Co177 2.143 . S
O179 Co178 2.160 . S
C180 O181 1.278 1_565 S
C180 O188 1.224 . S
O181 C180 1.278 1_545 S
C182 O183 1.245 . S
C182 O194 1.232 . S
O183 C182 1.245 . S
O184 Co178 2.058 . S
O184 C210 1.269 . S
O185 Co177 2.074 . S
O185 C210 1.257 . S
H186 C211 0.930 . S
H187 C217 0.930 . S
O188 Co177 2.093 . S
O188 C180 1.224 . S
H189 C221 0.929 . S
H190 C223 0.930 . S
H191 C224 0.930 . S
H192 C222 0.929 . S
H193 C225 0.928 . S
O194 Co178 2.057 1_545 S
O194 C182 1.232 . S
H195 C214 0.929 . S
H196 C215 0.929 . S
H197 C227 0.931 . S
H198 C219 0.929 . S
H199 C228 0.930 . S
H200 C220 0.931 . S
O201 Co177 2.097 . S
O201 C229 1.214 . S
H202 C230 0.929 . S
H203 C231 0.933 . S
H204 C232 0.930 . S
H205 C233 0.929 . S
H206 C235 0.930 . S
H207 C212 0.930 . S
H208 C216 0.930 1_545 S
O209 Co178 2.037 . S
O209 C229 1.234 . S
C210 O184 1.269 . S
C210 O185 1.257 . S
C211 H186 0.930 . S
C211 C214 1.388 . S
C211 C216 1.418 . S
C212 H207 0.930 . S
C212 C215 1.404 . S
C212 C216 1.353 1_545 S
N213 Co178 2.145 . S
N213 C214 1.397 . S
N213 C215 1.334 1_565 S
C214 H195 0.929 . S
C214 C211 1.388 . S
C214 N213 1.397 . S
C215 H196 0.929 . S
C215 C212 1.404 . S
C215 N213 1.334 1_545 S
C216 H208 0.930 1_565 S
C216 C211 1.418 . S
C216 C212 1.353 1_565 S
C217 H187 0.930 . S
C217 N218 1.330 . S
C217 C219 1.446 . S
N218 Co177 2.151 . S
N218 C217 1.330 . S
N218 C222 1.418 . S
C219 H198 0.929 . S
C219 C217 1.446 . S
C219 C220 1.332 . S
C220 H200 0.931 . S
C220 C219 1.332 . S
C220 C221 1.267 . S
C221 H189 0.929 . S
C221 C220 1.267 . S
C221 C222 1.251 . S
C222 H192 0.929 . S
C222 N218 1.418 . S
C222 C221 1.251 . S
C223 H190 0.930 . S
C223 C225 1.406 . S
C223 C228 1.261 . S
C224 H191 0.930 . S
C224 N226 1.325 . S
C224 C227 1.357 . S
C225 H193 0.928 . S
C225 C223 1.406 . S
C225 N226 1.261 . S
N226 Co177 2.214 . S
N226 C224 1.325 . S
N226 C225 1.261 . S
C227 H197 0.931 . S
C227 C224 1.357 . S
C227 C228 1.312 . S
C228 H199 0.930 . S
C228 C223 1.261 . S
C228 C227 1.312 . S
C229 O201 1.214 . S
C229 O209 1.234 . S
C230 H202 0.929 . S
C230 C233 1.391 . S
C230 C235 1.391 . S
C231 H203 0.933 . S
C231 C232 1.390 . S
C231 N234 1.391 . S
C232 H204 0.930 . S
C232 C231 1.390 . S
C232 C233 1.392 . S
C233 H205 0.929 . S
C233 C230 1.391 . S
C233 C232 1.392 . S
N234 Co178 2.257 1_545 S
N234 C231 1.391 . S
N234 C235 1.388 . S
C235 H206 0.930 . S
C235 C230 1.391 . S
C235 N234 1.388 . S
Co236 O238 2.143 . S
Co236 O244 2.074 . S
Co236 O247 2.093 . S
Co236 O260 2.097 . S
Co236 N277 2.151 . S
Co236 N285 2.214 . S
Co237 O238 2.160 . S
Co237 O243 2.058 . S
Co237 O253 2.057 . S
Co237 O268 2.037 . S
Co237 N272 2.145 . S
Co237 N293 2.257 . S
O238 Co236 2.143 . S
O238 Co237 2.160 . S
C239 O240 1.278 . S
C239 O247 1.224 . S
O240 C239 1.278 . S
C241 O242 1.245 . S
C241 O253 1.232 . S
O242 C241 1.245 . S
O243 Co237 2.058 . S
O243 C269 1.269 . S
O244 Co236 2.074 . S
O244 C269 1.257 . S
H245 C270 0.930 . S
H246 C276 0.930 . S
O247 Co236 2.093 . S
O247 C239 1.224 . S
H248 C280 0.929 . S
H249 C282 0.930 . S
H250 C283 0.930 . S
H251 C281 0.929 . S
H252 C284 0.928 . S
O253 Co237 2.057 . S
O253 C241 1.232 . S
H254 C273 0.929 . S
H255 C274 0.929 . S
H256 C286 0.931 . S
H257 C278 0.929 . S
H258 C287 0.930 . S
H259 C279 0.931 . S
O260 Co236 2.097 . S
O260 C288 1.214 . S
H261 C289 0.929 . S
H262 C290 0.929 . S
H263 C291 0.930 . S
H264 C292 0.929 . S
H265 C294 0.930 . S
H266 C271 0.930 . S
H267 C275 0.930 . S
O268 Co237 2.037 . S
O268 C288 1.234 . S
C269 O243 1.269 . S
C269 O244 1.257 . S
C270 H245 0.930 . S
C270 C273 1.388 . S
C270 C275 1.418 . S
C271 H266 0.930 . S
C271 C274 1.404 . S
C271 C275 1.353 . S
N272 Co237 2.145 . S
N272 C273 1.397 . S
N272 C274 1.334 . S
C273 H254 0.929 . S
C273 C270 1.388 . S
C273 N272 1.397 . S
C274 H255 0.929 . S
C274 C271 1.404 . S
C274 N272 1.334 . S
C275 H267 0.930 . S
C275 C270 1.418 . S
C275 C271 1.353 . S
C276 H246 0.930 . S
C276 N277 1.330 . S
C276 C278 1.446 . S
N277 Co236 2.151 . S
N277 C276 1.330 . S
N277 C281 1.418 . S
C278 H257 0.929 . S
C278 C276 1.446 . S
C278 C279 1.332 . S
C279 H259 0.931 . S
C279 C278 1.332 . S
C279 C280 1.267 . S
C280 H248 0.929 . S
C280 C279 1.267 . S
C280 C281 1.251 . S
C281 H251 0.929 . S
C281 N277 1.418 . S
C281 C280 1.251 . S
C282 H249 0.930 . S
C282 C284 1.406 . S
C282 C287 1.261 . S
C283 H250 0.930 . S
C283 N285 1.325 . S
C283 C286 1.357 . S
C284 H252 0.928 . S
C284 C282 1.406 . S
C284 N285 1.261 . S
N285 Co236 2.214 . S
N285 C283 1.325 . S
N285 C284 1.261 . S
C286 H256 0.931 . S
C286 C283 1.357 . S
C286 C287 1.312 . S
C287 H258 0.930 . S
C287 C282 1.261 . S
C287 C286 1.312 . S
C288 O260 1.214 . S
C288 O268 1.234 . S
C289 H261 0.929 . S
C289 C292 1.391 . S
C289 C294 1.391 . S
C290 H262 0.929 . S
C290 C291 1.390 . S
C290 N293 1.391 . S
C291 H263 0.930 . S
C291 C290 1.390 . S
C291 C292 1.392 . S
C292 H264 0.929 . S
C292 C289 1.391 . S
C292 C291 1.392 . S
N293 Co237 2.257 . S
N293 C290 1.391 . S
N293 C294 1.388 . S
C294 H265 0.930 . S
C294 C289 1.391 . S
C294 N293 1.388 . S
Co295 O297 2.143 . S
Co295 O303 2.074 . S
Co295 O306 2.093 . S
Co295 O319 2.097 . S
Co295 N336 2.151 . S
Co295 N344 2.214 . S
Co296 O297 2.160 . S
Co296 O302 2.058 . S
Co296 O312 2.057 . S
Co296 O327 2.037 . S
Co296 N331 2.145 . S
Co296 N352 2.257 . S
O297 Co295 2.143 . S
O297 Co296 2.160 . S
C298 O299 1.278 . S
C298 O306 1.224 . S
O299 C298 1.278 . S
C300 O301 1.245 . S
C300 O312 1.232 . S
O301 C300 1.245 . S
O302 Co296 2.058 . S
O302 C328 1.269 . S
O303 Co295 2.074 . S
O303 C328 1.257 . S
H304 C329 0.930 . S
H305 C335 0.930 . S
O306 Co295 2.093 . S
O306 C298 1.224 . S
H307 C339 0.929 . S
H308 C341 0.930 . S
H309 C342 0.930 . S
H310 C340 0.929 . S
H311 C343 0.928 . S
O312 Co296 2.057 . S
O312 C300 1.232 . S
H313 C332 0.929 . S
H314 C333 0.929 . S
H315 C345 0.931 . S
H316 C337 0.929 . S
H317 C346 0.930 . S
H318 C338 0.931 . S
O319 Co295 2.097 . S
O319 C347 1.214 . S
H320 C348 0.929 . S
H321 C349 0.929 . S
H322 C350 0.930 . S
H323 C351 0.929 . S
H324 C353 0.930 . S
H325 C330 0.930 . S
H326 C334 0.930 . S
O327 Co296 2.037 . S
O327 C347 1.234 . S
C328 O302 1.269 . S
C328 O303 1.257 . S
C329 H304 0.930 . S
C329 C332 1.388 . S
C329 C334 1.418 . S
C330 H325 0.930 . S
C330 C333 1.404 . S
C330 C334 1.353 . S
N331 Co296 2.145 . S
N331 C332 1.397 . S
N331 C333 1.334 . S
C332 H313 0.929 . S
C332 C329 1.388 . S
C332 N331 1.397 . S
C333 H314 0.929 . S
C333 C330 1.404 . S
C333 N331 1.334 . S
C334 H326 0.930 . S
C334 C329 1.418 . S
C334 C330 1.353 . S
C335 H305 0.930 . S
C335 N336 1.330 . S
C335 C337 1.446 . S
N336 Co295 2.151 . S
N336 C335 1.330 . S
N336 C340 1.418 . S
C337 H316 0.929 . S
C337 C335 1.446 . S
C337 C338 1.332 . S
C338 H318 0.931 . S
C338 C337 1.332 . S
C338 C339 1.267 . S
C339 H307 0.929 . S
C339 C338 1.267 . S
C339 C340 1.251 . S
C340 H310 0.929 . S
C340 N336 1.418 . S
C340 C339 1.251 . S
C341 H308 0.930 . S
C341 C343 1.406 . S
C341 C346 1.261 . S
C342 H309 0.930 . S
C342 N344 1.325 . S
C342 C345 1.357 . S
C343 H311 0.928 . S
C343 C341 1.406 . S
C343 N344 1.261 . S
N344 Co295 2.214 . S
N344 C342 1.325 . S
N344 C343 1.261 . S
C345 H315 0.931 . S
C345 C342 1.357 . S
C345 C346 1.312 . S
C346 H317 0.930 . S
C346 C341 1.261 . S
C346 C345 1.312 . S
C347 O319 1.214 . S
C347 O327 1.234 . S
C348 H320 0.929 . S
C348 C351 1.391 . S
C348 C353 1.391 . S
C349 H321 0.929 . S
C349 C350 1.390 . S
C349 N352 1.391 . S
C350 H322 0.930 . S
C350 C349 1.390 . S
C350 C351 1.392 . S
C351 H323 0.929 . S
C351 C348 1.391 . S
C351 C350 1.392 . S
N352 Co296 2.257 . S
N352 C349 1.391 . S
N352 C353 1.388 . S
C353 H324 0.930 . S
C353 C348 1.391 . S
C353 N352 1.388 . S
Co354 O356 2.143 . S
Co354 O362 2.074 . S
Co354 O365 2.093 . S
Co354 O378 2.097 . S
Co354 N395 2.151 . S
Co354 N403 2.214 . S
Co355 O356 2.160 . S
Co355 O361 2.058 . S
Co355 O371 2.057 1_655 S
Co355 O386 2.037 . S
Co355 N390 2.145 . S
Co355 N411 2.257 1_655 S
O356 Co354 2.143 . S
O356 Co355 2.160 . S
C357 O358 1.278 1_655 S
C357 O365 1.224 . S
O358 C357 1.278 1_455 S
C359 O360 1.245 . S
C359 O371 1.232 . S
O360 C359 1.245 . S
O361 Co355 2.058 . S
O361 C387 1.269 . S
O362 Co354 2.074 . S
O362 C387 1.257 . S
H363 C388 0.930 . S
H364 C394 0.930 . S
O365 Co354 2.093 . S
O365 C357 1.224 . S
H366 C398 0.929 . S
H367 C400 0.930 . S
H368 C401 0.930 . S
H369 C399 0.929 . S
H370 C402 0.928 . S
O371 Co355 2.057 1_455 S
O371 C359 1.232 . S
H372 C391 0.929 . S
H373 C392 0.929 . S
H374 C404 0.931 . S
H375 C396 0.929 . S
H376 C405 0.930 . S
H377 C397 0.931 . S
O378 Co354 2.097 . S
O378 C406 1.214 . S
H379 C407 0.929 . S
H380 C408 0.933 . S
H381 C409 0.930 . S
H382 C410 0.929 . S
H383 C412 0.930 . S
H384 C389 0.930 . S
H385 C393 0.930 1_455 S
O386 Co355 2.037 . S
O386 C406 1.234 . S
C387 O361 1.269 . S
C387 O362 1.257 . S
C388 H363 0.930 . S
C388 C391 1.388 . S
C388 C393 1.418 . S
C389 H384 0.930 . S
C389 C392 1.404 . S
C389 C393 1.353 1_455 S
N390 Co355 2.145 . S
N390 C391 1.397 . S
N390 C392 1.334 1_655 S
C391 H372 0.929 . S
C391 C388 1.388 . S
C391 N390 1.397 . S
C392 H373 0.929 . S
C392 C389 1.404 . S
C392 N390 1.334 1_455 S
C393 H385 0.930 1_655 S
C393 C388 1.418 . S
C393 C389 1.353 1_655 S
C394 H364 0.930 . S
C394 N395 1.330 . S
C394 C396 1.446 . S
N395 Co354 2.151 . S
N395 C394 1.330 . S
N395 C399 1.418 . S
C396 H375 0.929 . S
C396 C394 1.446 . S
C396 C397 1.332 . S
C397 H377 0.931 . S
C397 C396 1.332 . S
C397 C398 1.267 . S
C398 H366 0.929 . S
C398 C397 1.267 . S
C398 C399 1.251 . S
C399 H369 0.929 . S
C399 N395 1.418 . S
C399 C398 1.251 . S
C400 H367 0.930 . S
C400 C402 1.406 . S
C400 C405 1.261 . S
C401 H368 0.930 . S
C401 N403 1.325 . S
C401 C404 1.357 . S
C402 H370 0.928 . S
C402 C400 1.406 . S
C402 N403 1.261 . S
N403 Co354 2.214 . S
N403 C401 1.325 . S
N403 C402 1.261 . S
C404 H374 0.931 . S
C404 C401 1.357 . S
C404 C405 1.312 . S
C405 H376 0.930 . S
C405 C400 1.261 . S
C405 C404 1.312 . S
C406 O378 1.214 . S
C406 O386 1.234 . S
C407 H379 0.929 . S
C407 C410 1.391 . S
C407 C412 1.391 . S
C408 H380 0.933 . S
C408 C409 1.390 . S
C408 N411 1.391 . S
C409 H381 0.930 . S
C409 C408 1.390 . S
C409 C410 1.392 . S
C410 H382 0.929 . S
C410 C407 1.391 . S
C410 C409 1.392 . S
N411 Co355 2.257 1_455 S
N411 C408 1.391 . S
N411 C412 1.388 . S
C412 H383 0.930 . S
C412 C407 1.391 . S
C412 N411 1.388 . S
Co413 O415 2.143 . S
Co413 O421 2.074 . S
Co413 O424 2.093 . S
Co413 O437 2.097 . S
Co413 N454 2.151 . S
Co413 N462 2.214 . S
Co414 O415 2.160 . S
Co414 O420 2.058 . S
Co414 O430 2.057 1_565 S
Co414 O445 2.037 . S
Co414 N449 2.145 . S
Co414 N470 2.257 1_565 S
O415 Co413 2.143 . S
O415 Co414 2.160 . S
C416 O417 1.278 1_565 S
C416 O424 1.224 . S
O417 C416 1.278 1_545 S
C418 O419 1.245 . S
C418 O430 1.232 . S
O419 C418 1.245 . S
O420 Co414 2.058 . S
O420 C446 1.269 . S
O421 Co413 2.074 . S
O421 C446 1.257 . S
H422 C447 0.930 . S
H423 C453 0.930 . S
O424 Co413 2.093 . S
O424 C416 1.224 . S
H425 C457 0.929 . S
H426 C459 0.930 . S
H427 C460 0.930 . S
H428 C458 0.929 . S
H429 C461 0.928 . S
O430 Co414 2.057 1_545 S
O430 C418 1.232 . S
H431 C450 0.929 . S
H432 C451 0.929 . S
H433 C463 0.931 . S
H434 C455 0.929 . S
H435 C464 0.930 . S
H436 C456 0.931 . S
O437 Co413 2.097 . S
O437 C465 1.214 . S
H438 C466 0.929 . S
H439 C467 0.933 . S
H440 C468 0.930 . S
H441 C469 0.929 . S
H442 C471 0.930 . S
H443 C448 0.930 . S
H444 C452 0.930 1_545 S
O445 Co414 2.037 . S
O445 C465 1.234 . S
C446 O420 1.269 . S
C446 O421 1.257 . S
C447 H422 0.930 . S
C447 C450 1.388 . S
C447 C452 1.418 . S
C448 H443 0.930 . S
C448 C451 1.404 . S
C448 C452 1.353 1_545 S
N449 Co414 2.145 . S
N449 C450 1.397 . S
N449 C451 1.334 1_565 S
C450 H431 0.929 . S
C450 C447 1.388 . S
C450 N449 1.397 . S
C451 H432 0.929 . S
C451 C448 1.404 . S
C451 N449 1.334 1_545 S
C452 H444 0.930 1_565 S
C452 C447 1.418 . S
C452 C448 1.353 1_565 S
C453 H423 0.930 . S
C453 N454 1.330 . S
C453 C455 1.446 . S
N454 Co413 2.151 . S
N454 C453 1.330 . S
N454 C458 1.418 . S
C455 H434 0.929 . S
C455 C453 1.446 . S
C455 C456 1.332 . S
C456 H436 0.931 . S
C456 C455 1.332 . S
C456 C457 1.267 . S
C457 H425 0.929 . S
C457 C456 1.267 . S
C457 C458 1.251 . S
C458 H428 0.929 . S
C458 N454 1.418 . S
C458 C457 1.251 . S
C459 H426 0.930 . S
C459 C461 1.406 . S
C459 C464 1.261 . S
C460 H427 0.930 . S
C460 N462 1.325 . S
C460 C463 1.357 . S
C461 H429 0.928 . S
C461 C459 1.406 . S
C461 N462 1.261 . S
N462 Co413 2.214 . S
N462 C460 1.325 . S
N462 C461 1.261 . S
C463 H433 0.931 . S
C463 C460 1.357 . S
C463 C464 1.312 . S
C464 H435 0.930 . S
C464 C459 1.261 . S
C464 C463 1.312 . S
C465 O437 1.214 . S
C465 O445 1.234 . S
C466 H438 0.929 . S
C466 C469 1.391 . S
C466 C471 1.391 . S
C467 H439 0.933 . S
C467 C468 1.390 . S
C467 N470 1.391 . S
C468 H440 0.930 . S
C468 C467 1.390 . S
C468 C469 1.392 . S
C469 H441 0.929 . S
C469 C466 1.391 . S
C469 C468 1.392 . S
N470 Co414 2.257 1_545 S
N470 C467 1.391 . S
N470 C471 1.388 . S
C471 H442 0.930 . S
C471 C466 1.391 . S
C471 N470 1.388 . S
Co472 O474 2.143 . S
Co472 O480 2.074 . S
Co472 O483 2.093 . S
Co472 O496 2.097 . S
Co472 N513 2.151 . S
Co472 N521 2.214 . S
Co473 O474 2.160 . S
Co473 O479 2.058 . S
Co473 O489 2.057 . S
Co473 O504 2.037 . S
Co473 N508 2.145 . S
Co473 N529 2.257 . S
O474 Co472 2.143 . S
O474 Co473 2.160 . S
C475 O476 1.278 . S
C475 O483 1.224 . S
O476 C475 1.278 . S
C477 O478 1.245 . S
C477 O489 1.232 . S
O478 C477 1.245 . S
O479 Co473 2.058 . S
O479 C505 1.269 . S
O480 Co472 2.074 . S
O480 C505 1.257 . S
H481 C506 0.930 . S
H482 C512 0.930 . S
O483 Co472 2.093 . S
O483 C475 1.224 . S
H484 C516 0.929 . S
H485 C518 0.930 . S
H486 C519 0.930 . S
H487 C517 0.929 . S
H488 C520 0.928 . S
O489 Co473 2.057 . S
O489 C477 1.232 . S
H490 C509 0.929 . S
H491 C510 0.929 . S
H492 C522 0.931 . S
H493 C514 0.929 . S
H494 C523 0.930 . S
H495 C515 0.931 . S
O496 Co472 2.097 . S
O496 C524 1.214 . S
H497 C525 0.929 . S
H498 C526 0.929 . S
H499 C527 0.930 . S
H500 C528 0.929 . S
H501 C530 0.930 . S
H502 C507 0.930 . S
H503 C511 0.930 . S
O504 Co473 2.037 . S
O504 C524 1.234 . S
C505 O479 1.269 . S
C505 O480 1.257 . S
C506 H481 0.930 . S
C506 C509 1.388 . S
C506 C511 1.418 . S
C507 H502 0.930 . S
C507 C510 1.404 . S
C507 C511 1.353 . S
N508 Co473 2.145 . S
N508 C509 1.397 . S
N508 C510 1.334 . S
C509 H490 0.929 . S
C509 C506 1.388 . S
C509 N508 1.397 . S
C510 H491 0.929 . S
C510 C507 1.404 . S
C510 N508 1.334 . S
C511 H503 0.930 . S
C511 C506 1.418 . S
C511 C507 1.353 . S
C512 H482 0.930 . S
C512 N513 1.330 . S
C512 C514 1.446 . S
N513 Co472 2.151 . S
N513 C512 1.330 . S
N513 C517 1.418 . S
C514 H493 0.929 . S
C514 C512 1.446 . S
C514 C515 1.332 . S
C515 H495 0.931 . S
C515 C514 1.332 . S
C515 C516 1.267 . S
C516 H484 0.929 . S
C516 C515 1.267 . S
C516 C517 1.251 . S
C517 H487 0.929 . S
C517 N513 1.418 . S
C517 C516 1.251 . S
C518 H485 0.930 . S
C518 C520 1.406 . S
C518 C523 1.261 . S
C519 H486 0.930 . S
C519 N521 1.325 . S
C519 C522 1.357 . S
C520 H488 0.928 . S
C520 C518 1.406 . S
C520 N521 1.261 . S
N521 Co472 2.214 . S
N521 C519 1.325 . S
N521 C520 1.261 . S
C522 H492 0.931 . S
C522 C519 1.357 . S
C522 C523 1.312 . S
C523 H494 0.930 . S
C523 C518 1.261 . S
C523 C522 1.312 . S
C524 O496 1.214 . S
C524 O504 1.234 . S
C525 H497 0.929 . S
C525 C528 1.391 . S
C525 C530 1.391 . S
C526 H498 0.929 . S
C526 C527 1.390 . S
C526 N529 1.391 . S
C527 H499 0.930 . S
C527 C526 1.390 . S
C527 C528 1.392 . S
C528 H500 0.929 . S
C528 C525 1.391 . S
C528 C527 1.392 . S
N529 Co473 2.257 . S
N529 C526 1.391 . S
N529 C530 1.388 . S
C530 H501 0.930 . S
C530 C525 1.391 . S
C530 N529 1.388 . S
Co531 O533 2.143 . S
Co531 O539 2.074 . S
Co531 O542 2.093 . S
Co531 O555 2.097 . S
Co531 N572 2.151 . S
Co531 N580 2.214 . S
Co532 O533 2.160 . S
Co532 O538 2.058 . S
Co532 O548 2.057 . S
Co532 O563 2.037 . S
Co532 N567 2.145 . S
Co532 N588 2.257 . S
O533 Co531 2.143 . S
O533 Co532 2.160 . S
C534 O535 1.278 . S
C534 O542 1.224 . S
O535 C534 1.278 . S
C536 O537 1.245 . S
C536 O548 1.232 . S
O537 C536 1.245 . S
O538 Co532 2.058 . S
O538 C564 1.269 . S
O539 Co531 2.074 . S
O539 C564 1.257 . S
H540 C565 0.930 . S
H541 C571 0.930 . S
O542 Co531 2.093 . S
O542 C534 1.224 . S
H543 C575 0.929 . S
H544 C577 0.930 . S
H545 C578 0.930 . S
H546 C576 0.929 . S
H547 C579 0.928 . S
O548 Co532 2.057 . S
O548 C536 1.232 . S
H549 C568 0.929 . S
H550 C569 0.929 . S
H551 C581 0.931 . S
H552 C573 0.929 . S
H553 C582 0.930 . S
H554 C574 0.931 . S
O555 Co531 2.097 . S
O555 C583 1.214 . S
H556 C584 0.929 . S
H557 C585 0.929 . S
H558 C586 0.930 . S
H559 C587 0.929 . S
H560 C589 0.930 . S
H561 C566 0.930 . S
H562 C570 0.930 . S
O563 Co532 2.037 . S
O563 C583 1.234 . S
C564 O538 1.269 . S
C564 O539 1.257 . S
C565 H540 0.930 . S
C565 C568 1.388 . S
C565 C570 1.418 . S
C566 H561 0.930 . S
C566 C569 1.404 . S
C566 C570 1.353 . S
N567 Co532 2.145 . S
N567 C568 1.397 . S
N567 C569 1.334 . S
C568 H549 0.929 . S
C568 C565 1.388 . S
C568 N567 1.397 . S
C569 H550 0.929 . S
C569 C566 1.404 . S
C569 N567 1.334 . S
C570 H562 0.930 . S
C570 C565 1.418 . S
C570 C566 1.353 . S
C571 H541 0.930 . S
C571 N572 1.330 . S
C571 C573 1.446 . S
N572 Co531 2.151 . S
N572 C571 1.330 . S
N572 C576 1.418 . S
C573 H552 0.929 . S
C573 C571 1.446 . S
C573 C574 1.332 . S
C574 H554 0.931 . S
C574 C573 1.332 . S
C574 C575 1.267 . S
C575 H543 0.929 . S
C575 C574 1.267 . S
C575 C576 1.251 . S
C576 H546 0.929 . S
C576 N572 1.418 . S
C576 C575 1.251 . S
C577 H544 0.930 . S
C577 C579 1.406 . S
C577 C582 1.261 . S
C578 H545 0.930 . S
C578 N580 1.325 . S
C578 C581 1.357 . S
C579 H547 0.928 . S
C579 C577 1.406 . S
C579 N580 1.261 . S
N580 Co531 2.214 . S
N580 C578 1.325 . S
N580 C579 1.261 . S
C581 H551 0.931 . S
C581 C578 1.357 . S
C581 C582 1.312 . S
C582 H553 0.930 . S
C582 C577 1.261 . S
C582 C581 1.312 . S
C583 O555 1.214 . S
C583 O563 1.234 . S
C584 H556 0.929 . S
C584 C587 1.391 . S
C584 C589 1.391 . S
C585 H557 0.929 . S
C585 C586 1.390 . S
C585 N588 1.391 . S
C586 H558 0.930 . S
C586 C585 1.390 . S
C586 C587 1.392 . S
C587 H559 0.929 . S
C587 C584 1.391 . S
C587 C586 1.392 . S
N588 Co532 2.257 . S
N588 C585 1.391 . S
N588 C589 1.388 . S
C589 H560 0.930 . S
C589 C584 1.391 . S
C589 N588 1.388 . S
Co590 O592 2.143 . S
Co590 O598 2.074 . S
Co590 O601 2.093 . S
Co590 O614 2.097 . S
Co590 N631 2.151 . S
Co590 N639 2.214 . S
Co591 O592 2.160 . S
Co591 O597 2.058 . S
Co591 O607 2.057 1_455 S
Co591 O622 2.037 . S
Co591 N626 2.145 . S
Co591 N647 2.257 1_455 S
O592 Co590 2.143 . S
O592 Co591 2.160 . S
C593 O594 1.278 1_455 S
C593 O601 1.224 . S
O594 C593 1.278 1_655 S
C595 O596 1.245 . S
C595 O607 1.232 . S
O596 C595 1.245 . S
O597 Co591 2.058 . S
O597 C623 1.269 . S
O598 Co590 2.074 . S
O598 C623 1.257 . S
H599 C624 0.930 . S
H600 C630 0.930 . S
O601 Co590 2.093 . S
O601 C593 1.224 . S
H602 C634 0.929 . S
H603 C636 0.930 . S
H604 C637 0.930 . S
H605 C635 0.929 . S
H606 C638 0.928 . S
O607 Co591 2.057 1_655 S
O607 C595 1.232 . S
H608 C627 0.929 . S
H609 C628 0.929 . S
H610 C640 0.931 . S
H611 C632 0.929 . S
H612 C641 0.930 . S
H613 C633 0.931 . S
O614 Co590 2.097 . S
O614 C642 1.214 . S
H615 C643 0.929 . S
H616 C644 0.933 . S
H617 C645 0.930 . S
H618 C646 0.929 . S
H619 C648 0.930 . S
H620 C625 0.930 . S
H621 C629 0.930 1_655 S
O622 Co591 2.037 . S
O622 C642 1.234 . S
C623 O597 1.269 . S
C623 O598 1.257 . S
C624 H599 0.930 . S
C624 C627 1.388 . S
C624 C629 1.418 . S
C625 H620 0.930 . S
C625 C628 1.404 . S
C625 C629 1.353 1_655 S
N626 Co591 2.145 . S
N626 C627 1.397 . S
N626 C628 1.334 1_455 S
C627 H608 0.929 . S
C627 C624 1.388 . S
C627 N626 1.397 . S
C628 H609 0.929 . S
C628 C625 1.404 . S
C628 N626 1.334 1_655 S
C629 H621 0.930 1_455 S
C629 C624 1.418 . S
C629 C625 1.353 1_455 S
C630 H600 0.930 . S
C630 N631 1.330 . S
C630 C632 1.446 . S
N631 Co590 2.151 . S
N631 C630 1.330 . S
N631 C635 1.418 . S
C632 H611 0.929 . S
C632 C630 1.446 . S
C632 C633 1.332 . S
C633 H613 0.931 . S
C633 C632 1.332 . S
C633 C634 1.267 . S
C634 H602 0.929 . S
C634 C633 1.267 . S
C634 C635 1.251 . S
C635 H605 0.929 . S
C635 N631 1.418 . S
C635 C634 1.251 . S
C636 H603 0.930 . S
C636 C638 1.406 . S
C636 C641 1.261 . S
C637 H604 0.930 . S
C637 N639 1.325 . S
C637 C640 1.357 . S
C638 H606 0.928 . S
C638 C636 1.406 . S
C638 N639 1.261 . S
N639 Co590 2.214 . S
N639 C637 1.325 . S
N639 C638 1.261 . S
C640 H610 0.931 . S
C640 C637 1.357 . S
C640 C641 1.312 . S
C641 H612 0.930 . S
C641 C636 1.261 . S
C641 C640 1.312 . S
C642 O614 1.214 . S
C642 O622 1.234 . S
C643 H615 0.929 . S
C643 C646 1.391 . S
C643 C648 1.391 . S
C644 H616 0.933 . S
C644 C645 1.390 . S
C644 N647 1.391 . S
C645 H617 0.930 . S
C645 C644 1.390 . S
C645 C646 1.392 . S
C646 H618 0.929 . S
C646 C643 1.391 . S
C646 C645 1.392 . S
N647 Co591 2.257 1_655 S
N647 C644 1.391 . S
N647 C648 1.388 . S
C648 H619 0.930 . S
C648 C643 1.391 . S
C648 N647 1.388 . S
Co649 O651 2.143 . S
Co649 O657 2.074 . S
Co649 O660 2.093 . S
Co649 O673 2.097 . S
Co649 N690 2.151 . S
Co649 N698 2.214 . S
Co650 O651 2.160 . S
Co650 O656 2.058 . S
Co650 O666 2.057 1_545 S
Co650 O681 2.037 . S
Co650 N685 2.145 . S
Co650 N706 2.257 1_545 S
O651 Co649 2.143 . S
O651 Co650 2.160 . S
C652 O653 1.278 1_545 S
C652 O660 1.224 . S
O653 C652 1.278 1_565 S
C654 O655 1.245 . S
C654 O666 1.232 . S
O655 C654 1.245 . S
O656 Co650 2.058 . S
O656 C682 1.269 . S
O657 Co649 2.074 . S
O657 C682 1.257 . S
H658 C683 0.930 . S
H659 C689 0.930 . S
O660 Co649 2.093 . S
O660 C652 1.224 . S
H661 C693 0.929 . S
H662 C695 0.930 . S
H663 C696 0.930 . S
H664 C694 0.929 . S
H665 C697 0.928 . S
O666 Co650 2.057 1_565 S
O666 C654 1.232 . S
H667 C686 0.929 . S
H668 C687 0.929 . S
H669 C699 0.931 . S
H670 C691 0.929 . S
H671 C700 0.930 . S
H672 C692 0.931 . S
O673 Co649 2.097 . S
O673 C701 1.214 . S
H674 C702 0.929 . S
H675 C703 0.933 . S
H676 C704 0.930 . S
H677 C705 0.929 . S
H678 C707 0.930 . S
H679 C684 0.930 . S
H680 C688 0.930 1_565 S
O681 Co650 2.037 . S
O681 C701 1.234 . S
C682 O656 1.269 . S
C682 O657 1.257 . S
C683 H658 0.930 . S
C683 C686 1.388 . S
C683 C688 1.418 . S
C684 H679 0.930 . S
C684 C687 1.404 . S
C684 C688 1.353 1_565 S
N685 Co650 2.145 . S
N685 C686 1.397 . S
N685 C687 1.334 1_545 S
C686 H667 0.929 . S
C686 C683 1.388 . S
C686 N685 1.397 . S
C687 H668 0.929 . S
C687 C684 1.404 . S
C687 N685 1.334 1_565 S
C688 H680 0.930 1_545 S
C688 C683 1.418 . S
C688 C684 1.353 1_545 S
C689 H659 0.930 . S
C689 N690 1.330 . S
C689 C691 1.446 . S
N690 Co649 2.151 . S
N690 C689 1.330 . S
N690 C694 1.418 . S
C691 H670 0.929 . S
C691 C689 1.446 . S
C691 C692 1.332 . S
C692 H672 0.931 . S
C692 C691 1.332 . S
C692 C693 1.267 . S
C693 H661 0.929 . S
C693 C692 1.267 . S
C693 C694 1.251 . S
C694 H664 0.929 . S
C694 N690 1.418 . S
C694 C693 1.251 . S
C695 H662 0.930 . S
C695 C697 1.406 . S
C695 C700 1.261 . S
C696 H663 0.930 . S
C696 N698 1.325 . S
C696 C699 1.357 . S
C697 H665 0.928 . S
C697 C695 1.406 . S
C697 N698 1.261 . S
N698 Co649 2.214 . S
N698 C696 1.325 . S
N698 C697 1.261 . S
C699 H669 0.931 . S
C699 C696 1.357 . S
C699 C700 1.312 . S
C700 H671 0.930 . S
C700 C695 1.261 . S
C700 C699 1.312 . S
C701 O673 1.214 . S
C701 O681 1.234 . S
C702 H674 0.929 . S
C702 C705 1.391 . S
C702 C707 1.391 . S
C703 H675 0.933 . S
C703 C704 1.390 . S
C703 N706 1.391 . S
C704 H676 0.930 . S
C704 C703 1.390 . S
C704 C705 1.392 . S
C705 H677 0.929 . S
C705 C702 1.391 . S
C705 C704 1.392 . S
N706 Co650 2.257 1_565 S
N706 C703 1.391 . S
N706 C707 1.388 . S
C707 H678 0.930 . S
C707 C702 1.391 . S
C707 N706 1.388 . S
Co708 O710 2.143 . S
Co708 O716 2.074 . S
Co708 O719 2.093 . S
Co708 O732 2.097 . S
Co708 N749 2.151 . S
Co708 N757 2.214 . S
Co709 O710 2.160 . S
Co709 O715 2.058 . S
Co709 O725 2.057 . S
Co709 O740 2.037 . S
Co709 N744 2.145 . S
Co709 N765 2.257 . S
O710 Co708 2.143 . S
O710 Co709 2.160 . S
C711 O712 1.278 . S
C711 O719 1.224 . S
O712 C711 1.278 . S
C713 O714 1.245 . S
C713 O725 1.232 . S
O714 C713 1.245 . S
O715 Co709 2.058 . S
O715 C741 1.269 . S
O716 Co708 2.074 . S
O716 C741 1.257 . S
H717 C742 0.930 . S
H718 C748 0.930 . S
O719 Co708 2.093 . S
O719 C711 1.224 . S
H720 C752 0.929 . S
H721 C754 0.930 . S
H722 C755 0.930 . S
H723 C753 0.929 . S
H724 C756 0.928 . S
O725 Co709 2.057 . S
O725 C713 1.232 . S
H726 C745 0.929 . S
H727 C746 0.929 . S
H728 C758 0.931 . S
H729 C750 0.929 . S
H730 C759 0.930 . S
H731 C751 0.931 . S
O732 Co708 2.097 . S
O732 C760 1.214 . S
H733 C761 0.929 . S
H734 C762 0.929 . S
H735 C763 0.930 . S
H736 C764 0.929 . S
H737 C766 0.930 . S
H738 C743 0.930 . S
H739 C747 0.930 . S
O740 Co709 2.037 . S
O740 C760 1.234 . S
C741 O715 1.269 . S
C741 O716 1.257 . S
C742 H717 0.930 . S
C742 C745 1.388 . S
C742 C747 1.418 . S
C743 H738 0.930 . S
C743 C746 1.404 . S
C743 C747 1.353 . S
N744 Co709 2.145 . S
N744 C745 1.397 . S
N744 C746 1.334 . S
C745 H726 0.929 . S
C745 C742 1.388 . S
C745 N744 1.397 . S
C746 H727 0.929 . S
C746 C743 1.404 . S
C746 N744 1.334 . S
C747 H739 0.930 . S
C747 C742 1.418 . S
C747 C743 1.353 . S
C748 H718 0.930 . S
C748 N749 1.330 . S
C748 C750 1.446 . S
N749 Co708 2.151 . S
N749 C748 1.330 . S
N749 C753 1.418 . S
C750 H729 0.929 . S
C750 C748 1.446 . S
C750 C751 1.332 . S
C751 H731 0.931 . S
C751 C750 1.332 . S
C751 C752 1.267 . S
C752 H720 0.929 . S
C752 C751 1.267 . S
C752 C753 1.251 . S
C753 H723 0.929 . S
C753 N749 1.418 . S
C753 C752 1.251 . S
C754 H721 0.930 . S
C754 C756 1.406 . S
C754 C759 1.261 . S
C755 H722 0.930 . S
C755 N757 1.325 . S
C755 C758 1.357 . S
C756 H724 0.928 . S
C756 C754 1.406 . S
C756 N757 1.261 . S
N757 Co708 2.214 . S
N757 C755 1.325 . S
N757 C756 1.261 . S
C758 H728 0.931 . S
C758 C755 1.357 . S
C758 C759 1.312 . S
C759 H730 0.930 . S
C759 C754 1.261 . S
C759 C758 1.312 . S
C760 O732 1.214 . S
C760 O740 1.234 . S
C761 H733 0.929 . S
C761 C764 1.391 . S
C761 C766 1.391 . S
C762 H734 0.929 . S
C762 C763 1.390 . S
C762 N765 1.391 . S
C763 H735 0.930 . S
C763 C762 1.390 . S
C763 C764 1.392 . S
C764 H736 0.929 . S
C764 C761 1.391 . S
C764 C763 1.392 . S
N765 Co709 2.257 . S
N765 C762 1.391 . S
N765 C766 1.388 . S
C766 H737 0.930 . S
C766 C761 1.391 . S
C766 N765 1.388 . S
Co767 O769 2.143 . S
Co767 O775 2.074 . S
Co767 O778 2.093 . S
Co767 O791 2.097 . S
Co767 N808 2.151 . S
Co767 N816 2.214 . S
Co768 O769 2.160 . S
Co768 O774 2.058 . S
Co768 O784 2.057 . S
Co768 O799 2.037 . S
Co768 N803 2.145 . S
Co768 N824 2.257 . S
O769 Co767 2.143 . S
O769 Co768 2.160 . S
C770 O771 1.278 . S
C770 O778 1.224 . S
O771 C770 1.278 . S
C772 O773 1.245 . S
C772 O784 1.232 . S
O773 C772 1.245 . S
O774 Co768 2.058 . S
O774 C800 1.269 . S
O775 Co767 2.074 . S
O775 C800 1.257 . S
H776 C801 0.930 . S
H777 C807 0.930 . S
O778 Co767 2.093 . S
O778 C770 1.224 . S
H779 C811 0.929 . S
H780 C813 0.930 . S
H781 C814 0.930 . S
H782 C812 0.929 . S
H783 C815 0.928 . S
O784 Co768 2.057 . S
O784 C772 1.232 . S
H785 C804 0.929 . S
H786 C805 0.929 . S
H787 C817 0.931 . S
H788 C809 0.929 . S
H789 C818 0.930 . S
H790 C810 0.931 . S
O791 Co767 2.097 . S
O791 C819 1.214 . S
H792 C820 0.929 . S
H793 C821 0.929 . S
H794 C822 0.930 . S
H795 C823 0.929 . S
H796 C825 0.930 . S
H797 C802 0.930 . S
H798 C806 0.930 . S
O799 Co768 2.037 . S
O799 C819 1.234 . S
C800 O774 1.269 . S
C800 O775 1.257 . S
C801 H776 0.930 . S
C801 C804 1.388 . S
C801 C806 1.418 . S
C802 H797 0.930 . S
C802 C805 1.404 . S
C802 C806 1.353 . S
N803 Co768 2.145 . S
N803 C804 1.397 . S
N803 C805 1.334 . S
C804 H785 0.929 . S
C804 C801 1.388 . S
C804 N803 1.397 . S
C805 H786 0.929 . S
C805 C802 1.404 . S
C805 N803 1.334 . S
C806 H798 0.930 . S
C806 C801 1.418 . S
C806 C802 1.353 . S
C807 H777 0.930 . S
C807 N808 1.330 . S
C807 C809 1.446 . S
N808 Co767 2.151 . S
N808 C807 1.330 . S
N808 C812 1.418 . S
C809 H788 0.929 . S
C809 C807 1.446 . S
C809 C810 1.332 . S
C810 H790 0.931 . S
C810 C809 1.332 . S
C810 C811 1.267 . S
C811 H779 0.929 . S
C811 C810 1.267 . S
C811 C812 1.251 . S
C812 H782 0.929 . S
C812 N808 1.418 . S
C812 C811 1.251 . S
C813 H780 0.930 . S
C813 C815 1.406 . S
C813 C818 1.261 . S
C814 H781 0.930 . S
C814 N816 1.325 . S
C814 C817 1.357 . S
C815 H783 0.928 . S
C815 C813 1.406 . S
C815 N816 1.261 . S
N816 Co767 2.214 . S
N816 C814 1.325 . S
N816 C815 1.261 . S
C817 H787 0.931 . S
C817 C814 1.357 . S
C817 C818 1.312 . S
C818 H789 0.930 . S
C818 C813 1.261 . S
C818 C817 1.312 . S
C819 O791 1.214 . S
C819 O799 1.234 . S
C820 H792 0.929 . S
C820 C823 1.391 . S
C820 C825 1.391 . S
C821 H793 0.929 . S
C821 C822 1.390 . S
C821 N824 1.391 . S
C822 H794 0.930 . S
C822 C821 1.390 . S
C822 C823 1.392 . S
C823 H795 0.929 . S
C823 C820 1.391 . S
C823 C822 1.392 . S
N824 Co768 2.257 . S
N824 C821 1.391 . S
N824 C825 1.388 . S
C825 H796 0.930 . S
C825 C820 1.391 . S
C825 N824 1.388 . S
Co826 O828 2.143 . S
Co826 O834 2.074 . S
Co826 O837 2.093 . S
Co826 O850 2.097 . S
Co826 N867 2.151 . S
Co826 N875 2.214 . S
Co827 O828 2.160 . S
Co827 O833 2.058 . S
Co827 O843 2.057 1_455 S
Co827 O858 2.037 . S
Co827 N862 2.145 . S
Co827 N883 2.257 1_455 S
O828 Co826 2.143 . S
O828 Co827 2.160 . S
C829 O830 1.278 1_455 S
C829 O837 1.224 . S
O830 C829 1.278 1_655 S
C831 O832 1.245 . S
C831 O843 1.232 . S
O832 C831 1.245 . S
O833 Co827 2.058 . S
O833 C859 1.269 . S
O834 Co826 2.074 . S
O834 C859 1.257 . S
H835 C860 0.930 . S
H836 C866 0.930 . S
O837 Co826 2.093 . S
O837 C829 1.224 . S
H838 C870 0.929 . S
H839 C872 0.930 . S
H840 C873 0.930 . S
H841 C871 0.929 . S
H842 C874 0.928 . S
O843 Co827 2.057 1_655 S
O843 C831 1.232 . S
H844 C863 0.929 . S
H845 C864 0.929 . S
H846 C876 0.931 . S
H847 C868 0.929 . S
H848 C877 0.930 . S
H849 C869 0.931 . S
O850 Co826 2.097 . S
O850 C878 1.214 . S
H851 C879 0.929 . S
H852 C880 0.933 . S
H853 C881 0.930 . S
H854 C882 0.929 . S
H855 C884 0.930 . S
H856 C861 0.930 . S
H857 C865 0.930 1_655 S
O858 Co827 2.037 . S
O858 C878 1.234 . S
C859 O833 1.269 . S
C859 O834 1.257 . S
C860 H835 0.930 . S
C860 C863 1.388 . S
C860 C865 1.418 . S
C861 H856 0.930 . S
C861 C864 1.404 . S
C861 C865 1.353 1_655 S
N862 Co827 2.145 . S
N862 C863 1.397 . S
N862 C864 1.334 1_455 S
C863 H844 0.929 . S
C863 C860 1.388 . S
C863 N862 1.397 . S
C864 H845 0.929 . S
C864 C861 1.404 . S
C864 N862 1.334 1_655 S
C865 H857 0.930 1_455 S
C865 C860 1.418 . S
C865 C861 1.353 1_455 S
C866 H836 0.930 . S
C866 N867 1.330 . S
C866 C868 1.446 . S
N867 Co826 2.151 . S
N867 C866 1.330 . S
N867 C871 1.418 . S
C868 H847 0.929 . S
C868 C866 1.446 . S
C868 C869 1.332 . S
C869 H849 0.931 . S
C869 C868 1.332 . S
C869 C870 1.267 . S
C870 H838 0.929 . S
C870 C869 1.267 . S
C870 C871 1.251 . S
C871 H841 0.929 . S
C871 N867 1.418 . S
C871 C870 1.251 . S
C872 H839 0.930 . S
C872 C874 1.406 . S
C872 C877 1.261 . S
C873 H840 0.930 . S
C873 N875 1.325 . S
C873 C876 1.357 . S
C874 H842 0.928 . S
C874 C872 1.406 . S
C874 N875 1.261 . S
N875 Co826 2.214 . S
N875 C873 1.325 . S
N875 C874 1.261 . S
C876 H846 0.931 . S
C876 C873 1.357 . S
C876 C877 1.312 . S
C877 H848 0.930 . S
C877 C872 1.261 . S
C877 C876 1.312 . S
C878 O850 1.214 . S
C878 O858 1.234 . S
C879 H851 0.929 . S
C879 C882 1.391 . S
C879 C884 1.391 . S
C880 H852 0.933 . S
C880 C881 1.390 . S
C880 N883 1.391 . S
C881 H853 0.930 . S
C881 C880 1.390 . S
C881 C882 1.392 . S
C882 H854 0.929 . S
C882 C879 1.391 . S
C882 C881 1.392 . S
N883 Co827 2.257 1_655 S
N883 C880 1.391 . S
N883 C884 1.388 . S
C884 H855 0.930 . S
C884 C879 1.391 . S
C884 N883 1.388 . S
Co885 O887 2.143 . S
Co885 O893 2.074 . S
Co885 O896 2.093 . S
Co885 O909 2.097 . S
Co885 N926 2.151 . S
Co885 N934 2.214 . S
Co886 O887 2.160 . S
Co886 O892 2.058 . S
Co886 O902 2.057 1_545 S
Co886 O917 2.037 . S
Co886 N921 2.145 . S
Co886 N942 2.257 1_545 S
O887 Co885 2.143 . S
O887 Co886 2.160 . S
C888 O889 1.278 1_545 S
C888 O896 1.224 . S
O889 C888 1.278 1_565 S
C890 O891 1.245 . S
C890 O902 1.232 . S
O891 C890 1.245 . S
O892 Co886 2.058 . S
O892 C918 1.269 . S
O893 Co885 2.074 . S
O893 C918 1.257 . S
H894 C919 0.930 . S
H895 C925 0.930 . S
O896 Co885 2.093 . S
O896 C888 1.224 . S
H897 C929 0.929 . S
H898 C931 0.930 . S
H899 C932 0.930 . S
H900 C930 0.929 . S
H901 C933 0.928 . S
O902 Co886 2.057 1_565 S
O902 C890 1.232 . S
H903 C922 0.929 . S
H904 C923 0.929 . S
H905 C935 0.931 . S
H906 C927 0.929 . S
H907 C936 0.930 . S
H908 C928 0.931 . S
O909 Co885 2.097 . S
O909 C937 1.214 . S
H910 C938 0.929 . S
H911 C939 0.933 . S
H912 C940 0.930 . S
H913 C941 0.929 . S
H914 C943 0.930 . S
H915 C920 0.930 . S
H916 C924 0.930 1_565 S
O917 Co886 2.037 . S
O917 C937 1.234 . S
C918 O892 1.269 . S
C918 O893 1.257 . S
C919 H894 0.930 . S
C919 C922 1.388 . S
C919 C924 1.418 . S
C920 H915 0.930 . S
C920 C923 1.404 . S
C920 C924 1.353 1_565 S
N921 Co886 2.145 . S
N921 C922 1.397 . S
N921 C923 1.334 1_545 S
C922 H903 0.929 . S
C922 C919 1.388 . S
C922 N921 1.397 . S
C923 H904 0.929 . S
C923 C920 1.404 . S
C923 N921 1.334 1_565 S
C924 H916 0.930 1_545 S
C924 C919 1.418 . S
C924 C920 1.353 1_545 S
C925 H895 0.930 . S
C925 N926 1.330 . S
C925 C927 1.446 . S
N926 Co885 2.151 . S
N926 C925 1.330 . S
N926 C930 1.418 . S
C927 H906 0.929 . S
C927 C925 1.446 . S
C927 C928 1.332 . S
C928 H908 0.931 . S
C928 C927 1.332 . S
C928 C929 1.267 . S
C929 H897 0.929 . S
C929 C928 1.267 . S
C929 C930 1.251 . S
C930 H900 0.929 . S
C930 N926 1.418 . S
C930 C929 1.251 . S
C931 H898 0.930 . S
C931 C933 1.406 . S
C931 C936 1.261 . S
C932 H899 0.930 . S
C932 N934 1.325 . S
C932 C935 1.357 . S
C933 H901 0.928 . S
C933 C931 1.406 . S
C933 N934 1.261 . S
N934 Co885 2.214 . S
N934 C932 1.325 . S
N934 C933 1.261 . S
C935 H905 0.931 . S
C935 C932 1.357 . S
C935 C936 1.312 . S
C936 H907 0.930 . S
C936 C931 1.261 . S
C936 C935 1.312 . S
C937 O909 1.214 . S
C937 O917 1.234 . S
C938 H910 0.929 . S
C938 C941 1.391 . S
C938 C943 1.391 . S
C939 H911 0.933 . S
C939 C940 1.390 . S
C939 N942 1.391 . S
C940 H912 0.930 . S
C940 C939 1.390 . S
C940 C941 1.392 . S
C941 H913 0.929 . S
C941 C938 1.391 . S
C941 C940 1.392 . S
N942 Co886 2.257 1_565 S
N942 C939 1.391 . S
N942 C943 1.388 . S
C943 H914 0.930 . S
C943 C938 1.391 . S
C943 N942 1.388 . S
C944 C945 1.391 . S
C944 C946 1.394 . S
C944 H960 0.931 . S
C945 C944 1.391 . S
C945 C949 1.376 . S
C946 C944 1.394 . S
C946 C947 1.369 . S
C946 C950 1.531 . S
C947 C946 1.369 . S
C947 C948 1.410 . S
C947 C955 1.503 . S
C948 C947 1.410 . S
C948 C949 1.392 . S
C948 C951 1.511 . S
C949 C945 1.376 . S
C949 C948 1.392 . S
C949 H961 0.929 . S
C950 C946 1.531 . S
C950 H962 0.960 . S
C950 H963 0.962 . S
C950 H964 0.960 . S
C951 C948 1.511 . S
C951 H965 0.961 . S
C951 H966 0.961 . S
C951 H967 0.961 . S
C952 C953 1.370 . S
C952 C954 1.363 . S
C952 H968 0.931 . S
C953 C952 1.370 . S
C953 C957 1.408 . S
C954 C952 1.363 . S
C954 C955 1.370 . S
C954 C958 1.524 . S
C955 C947 1.503 . S
C955 C954 1.370 . S
C955 C956 1.403 . S
C956 C955 1.403 . S
C956 C957 1.404 . S
C956 C959 1.539 . S
C957 C953 1.408 . S
C957 C956 1.404 . S
C957 H969 0.930 . S
C958 C954 1.524 . S
C958 H970 0.956 . S
C958 H971 0.961 . S
C958 H972 0.961 . S
C959 C956 1.539 . S
C959 H973 0.958 . S
C959 H974 0.961 . S
C959 H975 0.960 . S
H960 C944 0.931 . S
H961 C949 0.929 . S
H962 C950 0.960 . S
H963 C950 0.962 . S
H964 C950 0.960 . S
H965 C951 0.961 . S
H966 C951 0.961 . S
H967 C951 0.961 . S
H968 C952 0.931 . S
H969 C957 0.930 . S
H970 C958 0.956 . S
H971 C958 0.961 . S
H972 C958 0.961 . S
H973 C959 0.958 . S
H974 C959 0.961 . S
H975 C959 0.960 . S
C976 C977 1.391 . S
C976 C978 1.394 . S
C976 H992 0.931 . S
C977 C976 1.391 . S
C977 C981 1.376 . S
C978 C976 1.394 . S
C978 C979 1.369 . S
C978 C982 1.531 . S
C979 C978 1.369 . S
C979 C980 1.410 . S
C979 C987 1.503 . S
C980 C979 1.410 . S
C980 C981 1.392 . S
C980 C983 1.511 . S
C981 C977 1.376 . S
C981 C980 1.392 . S
C981 H993 0.929 . S
C982 C978 1.531 . S
C982 H994 0.960 . S
C982 H995 0.962 . S
C982 H996 0.960 . S
C983 C980 1.511 . S
C983 H997 0.961 . S
C983 H998 0.961 . S
C983 H999 0.961 . S
C984 C985 1.370 . S
C984 C986 1.363 . S
C984 H1000 0.931 . S
C985 C984 1.370 . S
C985 C989 1.408 . S
C986 C984 1.363 . S
C986 C987 1.370 . S
C986 C990 1.524 . S
C987 C979 1.503 . S
C987 C986 1.370 . S
C987 C988 1.403 . S
C988 C987 1.403 . S
C988 C989 1.404 . S
C988 C991 1.539 . S
C989 C985 1.408 . S
C989 C988 1.404 . S
C989 H1001 0.930 . S
C990 C986 1.524 . S
C990 H1002 0.956 . S
C990 H1003 0.961 . S
C990 H1004 0.961 . S
C991 C988 1.539 . S
C991 H1005 0.958 . S
C991 H1006 0.961 . S
C991 H1007 0.960 . S
H992 C976 0.931 . S
H993 C981 0.929 . S
H994 C982 0.960 . S
H995 C982 0.962 . S
H996 C982 0.960 . S
H997 C983 0.961 . S
H998 C983 0.961 . S
H999 C983 0.961 . S
H1000 C984 0.931 . S
H1001 C989 0.930 . S
H1002 C990 0.956 . S
H1003 C990 0.961 . S
H1004 C990 0.961 . S
H1005 C991 0.958 . S
H1006 C991 0.961 . S
H1007 C991 0.960 . S
C1008 C1009 1.391 . S
C1008 C1010 1.394 . S
C1008 H1024 0.931 . S
C1009 C1008 1.391 . S
C1009 C1013 1.376 . S
C1010 C1008 1.394 . S
C1010 C1011 1.369 . S
C1010 C1014 1.531 . S
C1011 C1010 1.369 . S
C1011 C1012 1.410 . S
C1011 C1019 1.503 . S
C1012 C1011 1.410 . S
C1012 C1013 1.392 . S
C1012 C1015 1.511 . S
C1013 C1009 1.376 . S
C1013 C1012 1.392 . S
C1013 H1025 0.929 . S
C1014 C1010 1.531 . S
C1014 H1026 0.960 . S
C1014 H1027 0.962 . S
C1014 H1028 0.960 . S
C1015 C1012 1.511 . S
C1015 H1029 0.961 . S
C1015 H1030 0.961 . S
C1015 H1031 0.961 . S
C1016 C1017 1.370 . S
C1016 C1018 1.363 . S
C1016 H1032 0.931 . S
C1017 C1016 1.370 . S
C1017 C1021 1.408 . S
C1018 C1016 1.363 . S
C1018 C1019 1.370 . S
C1018 C1022 1.524 . S
C1019 C1011 1.503 . S
C1019 C1018 1.370 . S
C1019 C1020 1.403 . S
C1020 C1019 1.403 . S
C1020 C1021 1.404 . S
C1020 C1023 1.539 . S
C1021 C1017 1.408 . S
C1021 C1020 1.404 . S
C1021 H1033 0.930 . S
C1022 C1018 1.524 . S
C1022 H1034 0.956 . S
C1022 H1035 0.961 . S
C1022 H1036 0.961 . S
C1023 C1020 1.539 . S
C1023 H1037 0.958 . S
C1023 H1038 0.961 . S
C1023 H1039 0.960 . S
H1024 C1008 0.931 . S
H1025 C1013 0.929 . S
H1026 C1014 0.960 . S
H1027 C1014 0.962 . S
H1028 C1014 0.960 . S
H1029 C1015 0.961 . S
H1030 C1015 0.961 . S
H1031 C1015 0.961 . S
H1032 C1016 0.931 . S
H1033 C1021 0.930 . S
H1034 C1022 0.956 . S
H1035 C1022 0.961 . S
H1036 C1022 0.961 . S
H1037 C1023 0.958 . S
H1038 C1023 0.961 . S
H1039 C1023 0.960 . S
C1040 C1041 1.391 . S
C1040 C1042 1.394 . S
C1040 H1056 0.931 . S
C1041 C1040 1.391 . S
C1041 C1045 1.376 . S
C1042 C1040 1.394 . S
C1042 C1043 1.369 . S
C1042 C1046 1.531 . S
C1043 C1042 1.369 . S
C1043 C1044 1.410 . S
C1043 C1051 1.503 . S
C1044 C1043 1.410 . S
C1044 C1045 1.392 . S
C1044 C1047 1.511 . S
C1045 C1041 1.376 . S
C1045 C1044 1.392 . S
C1045 H1057 0.929 . S
C1046 C1042 1.531 . S
C1046 H1058 0.960 . S
C1046 H1059 0.962 . S
C1046 H1060 0.960 . S
C1047 C1044 1.511 . S
C1047 H1061 0.961 . S
C1047 H1062 0.961 . S
C1047 H1063 0.961 . S
C1048 C1049 1.370 . S
C1048 C1050 1.363 . S
C1048 H1064 0.931 . S
C1049 C1048 1.370 . S
C1049 C1053 1.408 . S
C1050 C1048 1.363 . S
C1050 C1051 1.370 . S
C1050 C1054 1.524 . S
C1051 C1043 1.503 . S
C1051 C1050 1.370 . S
C1051 C1052 1.403 . S
C1052 C1051 1.403 . S
C1052 C1053 1.404 . S
C1052 C1055 1.539 . S
C1053 C1049 1.408 . S
C1053 C1052 1.404 . S
C1053 H1065 0.930 . S
C1054 C1050 1.524 . S
C1054 H1066 0.956 . S
C1054 H1067 0.961 . S
C1054 H1068 0.961 . S
C1055 C1052 1.539 . S
C1055 H1069 0.958 . S
C1055 H1070 0.961 . S
C1055 H1071 0.960 . S
H1056 C1040 0.931 . S
H1057 C1045 0.929 . S
H1058 C1046 0.960 . S
H1059 C1046 0.962 . S
H1060 C1046 0.960 . S
H1061 C1047 0.961 . S
H1062 C1047 0.961 . S
H1063 C1047 0.961 . S
H1064 C1048 0.931 . S
H1065 C1053 0.930 . S
H1066 C1054 0.956 . S
H1067 C1054 0.961 . S
H1068 C1054 0.961 . S
H1069 C1055 0.958 . S
H1070 C1055 0.961 . S
H1071 C1055 0.960 . S
C1072 C1073 1.391 . S
C1072 C1074 1.394 . S
C1072 H1088 0.931 . S
C1073 C1072 1.391 . S
C1073 C1077 1.376 . S
C1074 C1072 1.394 . S
C1074 C1075 1.369 . S
C1074 C1078 1.531 . S
C1075 C1074 1.369 . S
C1075 C1076 1.410 . S
C1075 C1083 1.503 . S
C1076 C1075 1.410 . S
C1076 C1077 1.392 . S
C1076 C1079 1.511 . S
C1077 C1073 1.376 . S
C1077 C1076 1.392 . S
C1077 H1089 0.929 . S
C1078 C1074 1.531 . S
C1078 H1090 0.960 . S
C1078 H1091 0.962 . S
C1078 H1092 0.960 . S
C1079 C1076 1.511 . S
C1079 H1093 0.961 . S
C1079 H1094 0.961 . S
C1079 H1095 0.961 . S
C1080 C1081 1.370 . S
C1080 C1082 1.363 . S
C1080 H1096 0.931 . S
C1081 C1080 1.370 . S
C1081 C1085 1.408 . S
C1082 C1080 1.363 . S
C1082 C1083 1.370 . S
C1082 C1086 1.524 . S
C1083 C1075 1.503 . S
C1083 C1082 1.370 . S
C1083 C1084 1.403 . S
C1084 C1083 1.403 . S
C1084 C1085 1.404 . S
C1084 C1087 1.539 . S
C1085 C1081 1.408 . S
C1085 C1084 1.404 . S
C1085 H1097 0.930 . S
C1086 C1082 1.524 . S
C1086 H1098 0.956 . S
C1086 H1099 0.961 . S
C1086 H1100 0.961 . S
C1087 C1084 1.539 . S
C1087 H1101 0.958 . S
C1087 H1102 0.961 . S
C1087 H1103 0.960 . S
H1088 C1072 0.931 . S
H1089 C1077 0.929 . S
H1090 C1078 0.960 . S
H1091 C1078 0.962 . S
H1092 C1078 0.960 . S
H1093 C1079 0.961 . S
H1094 C1079 0.961 . S
H1095 C1079 0.961 . S
H1096 C1080 0.931 . S
H1097 C1085 0.930 . S
H1098 C1086 0.956 . S
H1099 C1086 0.961 . S
H1100 C1086 0.961 . S
H1101 C1087 0.958 . S
H1102 C1087 0.961 . S
H1103 C1087 0.960 . S
C1104 C1105 1.391 . S
C1104 C1106 1.394 . S
C1104 H1120 0.931 . S
C1105 C1104 1.391 . S
C1105 C1109 1.376 . S
C1106 C1104 1.394 . S
C1106 C1107 1.369 . S
C1106 C1110 1.531 . S
C1107 C1106 1.369 . S
C1107 C1108 1.410 . S
C1107 C1115 1.503 . S
C1108 C1107 1.410 . S
C1108 C1109 1.392 . S
C1108 C1111 1.511 . S
C1109 C1105 1.376 . S
C1109 C1108 1.392 . S
C1109 H1121 0.929 . S
C1110 C1106 1.531 . S
C1110 H1122 0.960 . S
C1110 H1123 0.962 . S
C1110 H1124 0.960 . S
C1111 C1108 1.511 . S
C1111 H1125 0.961 . S
C1111 H1126 0.961 . S
C1111 H1127 0.961 . S
C1112 C1113 1.370 . S
C1112 C1114 1.363 . S
C1112 H1128 0.931 . S
C1113 C1112 1.370 . S
C1113 C1117 1.408 . S
C1114 C1112 1.363 . S
C1114 C1115 1.370 . S
C1114 C1118 1.524 . S
C1115 C1107 1.503 . S
C1115 C1114 1.370 . S
C1115 C1116 1.403 . S
C1116 C1115 1.403 . S
C1116 C1117 1.404 . S
C1116 C1119 1.539 . S
C1117 C1113 1.408 . S
C1117 C1116 1.404 . S
C1117 H1129 0.930 . S
C1118 C1114 1.524 . S
C1118 H1130 0.956 . S
C1118 H1131 0.961 . S
C1118 H1132 0.961 . S
C1119 C1116 1.539 . S
C1119 H1133 0.958 . S
C1119 H1134 0.961 . S
C1119 H1135 0.960 . S
H1120 C1104 0.931 . S
H1121 C1109 0.929 . S
H1122 C1110 0.960 . S
H1123 C1110 0.962 . S
H1124 C1110 0.960 . S
H1125 C1111 0.961 . S
H1126 C1111 0.961 . S
H1127 C1111 0.961 . S
H1128 C1112 0.931 . S
H1129 C1117 0.930 . S
H1130 C1118 0.956 . S
H1131 C1118 0.961 . S
H1132 C1118 0.961 . S
H1133 C1119 0.958 . S
H1134 C1119 0.961 . S
H1135 C1119 0.960 . S
C1136 C1137 1.391 . S
C1136 C1138 1.394 . S
C1136 H1152 0.931 . S
C1137 C1136 1.391 . S
C1137 C1141 1.376 . S
C1138 C1136 1.394 . S
C1138 C1139 1.369 . S
C1138 C1142 1.531 . S
C1139 C1138 1.369 . S
C1139 C1140 1.410 . S
C1139 C1147 1.503 . S
C1140 C1139 1.410 . S
C1140 C1141 1.392 . S
C1140 C1143 1.511 . S
C1141 C1137 1.376 . S
C1141 C1140 1.392 . S
C1141 H1153 0.929 . S
C1142 C1138 1.531 . S
C1142 H1154 0.960 . S
C1142 H1155 0.962 . S
C1142 H1156 0.960 . S
C1143 C1140 1.511 . S
C1143 H1157 0.961 . S
C1143 H1158 0.961 . S
C1143 H1159 0.961 . S
C1144 C1145 1.370 . S
C1144 C1146 1.363 . S
C1144 H1160 0.931 . S
C1145 C1144 1.370 . S
C1145 C1149 1.408 . S
C1146 C1144 1.363 . S
C1146 C1147 1.370 . S
C1146 C1150 1.524 . S
C1147 C1139 1.503 . S
C1147 C1146 1.370 . S
C1147 C1148 1.403 . S
C1148 C1147 1.403 . S
C1148 C1149 1.404 . S
C1148 C1151 1.539 . S
C1149 C1145 1.408 . S
C1149 C1148 1.404 . S
C1149 H1161 0.930 . S
C1150 C1146 1.524 . S
C1150 H1162 0.956 . S
C1150 H1163 0.961 . S
C1150 H1164 0.961 . S
C1151 C1148 1.539 . S
C1151 H1165 0.958 . S
C1151 H1166 0.961 . S
C1151 H1167 0.960 . S
H1152 C1136 0.931 . S
H1153 C1141 0.929 . S
H1154 C1142 0.960 . S
H1155 C1142 0.962 . S
H1156 C1142 0.960 . S
H1157 C1143 0.961 . S
H1158 C1143 0.961 . S
H1159 C1143 0.961 . S
H1160 C1144 0.931 . S
H1161 C1149 0.930 . S
H1162 C1150 0.956 . S
H1163 C1150 0.961 . S
H1164 C1150 0.961 . S
H1165 C1151 0.958 . S
H1166 C1151 0.961 . S
H1167 C1151 0.960 . S
C1168 C1169 1.391 . S
C1168 C1170 1.394 . S
C1168 H1184 0.931 . S
C1169 C1168 1.391 . S
C1169 C1173 1.376 . S
C1170 C1168 1.394 . S
C1170 C1171 1.369 . S
C1170 C1174 1.531 . S
C1171 C1170 1.369 . S
C1171 C1172 1.410 . S
C1171 C1179 1.503 . S
C1172 C1171 1.410 . S
C1172 C1173 1.392 . S
C1172 C1175 1.511 . S
C1173 C1169 1.376 . S
C1173 C1172 1.392 . S
C1173 H1185 0.929 . S
C1174 C1170 1.531 . S
C1174 H1186 0.960 . S
C1174 H1187 0.962 . S
C1174 H1188 0.960 . S
C1175 C1172 1.511 . S
C1175 H1189 0.961 . S
C1175 H1190 0.961 . S
C1175 H1191 0.961 . S
C1176 C1177 1.370 . S
C1176 C1178 1.363 . S
C1176 H1192 0.931 . S
C1177 C1176 1.370 . S
C1177 C1181 1.408 . S
C1178 C1176 1.363 . S
C1178 C1179 1.370 . S
C1178 C1182 1.524 . S
C1179 C1171 1.503 . S
C1179 C1178 1.370 . S
C1179 C1180 1.403 . S
C1180 C1179 1.403 . S
C1180 C1181 1.404 . S
C1180 C1183 1.539 . S
C1181 C1177 1.408 . S
C1181 C1180 1.404 . S
C1181 H1193 0.930 . S
C1182 C1178 1.524 . S
C1182 H1194 0.956 . S
C1182 H1195 0.961 . S
C1182 H1196 0.961 . S
C1183 C1180 1.539 . S
C1183 H1197 0.958 . S
C1183 H1198 0.961 . S
C1183 H1199 0.960 . S
H1184 C1168 0.931 . S
H1185 C1173 0.929 . S
H1186 C1174 0.960 . S
H1187 C1174 0.962 . S
H1188 C1174 0.960 . S
H1189 C1175 0.961 . S
H1190 C1175 0.961 . S
H1191 C1175 0.961 . S
H1192 C1176 0.931 . S
H1193 C1181 0.930 . S
H1194 C1182 0.956 . S
H1195 C1182 0.961 . S
H1196 C1182 0.961 . S
H1197 C1183 0.958 . S
H1198 C1183 0.961 . S
H1199 C1183 0.960 . S
C1200 C1201 1.391 . S
C1200 C1202 1.394 . S
C1200 H1216 0.931 . S
C1201 C1200 1.391 . S
C1201 C1205 1.376 . S
C1202 C1200 1.394 . S
C1202 C1203 1.369 . S
C1202 C1206 1.531 . S
C1203 C1202 1.369 . S
C1203 C1204 1.410 . S
C1203 C1211 1.503 . S
C1204 C1203 1.410 . S
C1204 C1205 1.392 . S
C1204 C1207 1.511 . S
C1205 C1201 1.376 . S
C1205 C1204 1.392 . S
C1205 H1217 0.929 . S
C1206 C1202 1.531 . S
C1206 H1218 0.960 . S
C1206 H1219 0.962 . S
C1206 H1220 0.960 . S
C1207 C1204 1.511 . S
C1207 H1221 0.961 . S
C1207 H1222 0.961 . S
C1207 H1223 0.961 . S
C1208 C1209 1.370 . S
C1208 C1210 1.363 . S
C1208 H1224 0.931 . S
C1209 C1208 1.370 . S
C1209 C1213 1.408 . S
C1210 C1208 1.363 . S
C1210 C1211 1.370 . S
C1210 C1214 1.524 . S
C1211 C1203 1.503 . S
C1211 C1210 1.370 . S
C1211 C1212 1.403 . S
C1212 C1211 1.403 . S
C1212 C1213 1.404 . S
C1212 C1215 1.539 . S
C1213 C1209 1.408 . S
C1213 C1212 1.404 . S
C1213 H1225 0.930 . S
C1214 C1210 1.524 . S
C1214 H1226 0.956 . S
C1214 H1227 0.961 . S
C1214 H1228 0.961 . S
C1215 C1212 1.539 . S
C1215 H1229 0.958 . S
C1215 H1230 0.961 . S
C1215 H1231 0.960 . S
H1216 C1200 0.931 . S
H1217 C1205 0.929 . S
H1218 C1206 0.960 . S
H1219 C1206 0.962 . S
H1220 C1206 0.960 . S
H1221 C1207 0.961 . S
H1222 C1207 0.961 . S
H1223 C1207 0.961 . S
H1224 C1208 0.931 . S
H1225 C1213 0.930 . S
H1226 C1214 0.956 . S
H1227 C1214 0.961 . S
H1228 C1214 0.961 . S
H1229 C1215 0.958 . S
H1230 C1215 0.961 . S
H1231 C1215 0.960 . S
C1232 C1233 1.391 . S
C1232 C1234 1.394 . S
C1232 H1248 0.931 . S
C1233 C1232 1.391 . S
C1233 C1237 1.376 . S
C1234 C1232 1.394 . S
C1234 C1235 1.369 . S
C1234 C1238 1.531 . S
C1235 C1234 1.369 . S
C1235 C1236 1.410 . S
C1235 C1243 1.503 . S
C1236 C1235 1.410 . S
C1236 C1237 1.392 . S
C1236 C1239 1.511 . S
C1237 C1233 1.376 . S
C1237 C1236 1.392 . S
C1237 H1249 0.929 . S
C1238 C1234 1.531 . S
C1238 H1250 0.960 . S
C1238 H1251 0.962 . S
C1238 H1252 0.960 . S
C1239 C1236 1.511 . S
C1239 H1253 0.961 . S
C1239 H1254 0.961 . S
C1239 H1255 0.961 . S
C1240 C1241 1.370 . S
C1240 C1242 1.363 . S
C1240 H1256 0.931 . S
C1241 C1240 1.370 . S
C1241 C1245 1.408 . S
C1242 C1240 1.363 . S
C1242 C1243 1.370 . S
C1242 C1246 1.524 . S
C1243 C1235 1.503 . S
C1243 C1242 1.370 . S
C1243 C1244 1.403 . S
C1244 C1243 1.403 . S
C1244 C1245 1.404 . S
C1244 C1247 1.539 . S
C1245 C1241 1.408 . S
C1245 C1244 1.404 . S
C1245 H1257 0.930 . S
C1246 C1242 1.524 . S
C1246 H1258 0.956 . S
C1246 H1259 0.961 . S
C1246 H1260 0.961 . S
C1247 C1244 1.539 . S
C1247 H1261 0.958 . S
C1247 H1262 0.961 . S
C1247 H1263 0.960 . S
H1248 C1232 0.931 . S
H1249 C1237 0.929 . S
H1250 C1238 0.960 . S
H1251 C1238 0.962 . S
H1252 C1238 0.960 . S
H1253 C1239 0.961 . S
H1254 C1239 0.961 . S
H1255 C1239 0.961 . S
H1256 C1240 0.931 . S
H1257 C1245 0.930 . S
H1258 C1246 0.956 . S
H1259 C1246 0.961 . S
H1260 C1246 0.961 . S
H1261 C1247 0.958 . S
H1262 C1247 0.961 . S
H1263 C1247 0.960 . S
C1264 C1265 1.391 . S
C1264 C1266 1.394 . S
C1264 H1280 0.931 . S
C1265 C1264 1.391 . S
C1265 C1269 1.376 . S
C1266 C1264 1.394 . S
C1266 C1267 1.369 . S
C1266 C1270 1.531 . S
C1267 C1266 1.369 . S
C1267 C1268 1.410 . S
C1267 C1275 1.503 . S
C1268 C1267 1.410 . S
C1268 C1269 1.392 . S
C1268 C1271 1.511 . S
C1269 C1265 1.376 . S
C1269 C1268 1.392 . S
C1269 H1281 0.929 . S
C1270 C1266 1.531 . S
C1270 H1282 0.960 . S
C1270 H1283 0.962 . S
C1270 H1284 0.960 . S
C1271 C1268 1.511 . S
C1271 H1285 0.961 . S
C1271 H1286 0.961 . S
C1271 H1287 0.961 . S
C1272 C1273 1.370 . S
C1272 C1274 1.363 . S
C1272 H1288 0.931 . S
C1273 C1272 1.370 . S
C1273 C1277 1.408 . S
C1274 C1272 1.363 . S
C1274 C1275 1.370 . S
C1274 C1278 1.524 . S
C1275 C1267 1.503 . S
C1275 C1274 1.370 . S
C1275 C1276 1.403 . S
C1276 C1275 1.403 . S
C1276 C1277 1.404 . S
C1276 C1279 1.539 . S
C1277 C1273 1.408 . S
C1277 C1276 1.404 . S
C1277 H1289 0.930 . S
C1278 C1274 1.524 . S
C1278 H1290 0.956 . S
C1278 H1291 0.961 . S
C1278 H1292 0.961 . S
C1279 C1276 1.539 . S
C1279 H1293 0.958 . S
C1279 H1294 0.961 . S
C1279 H1295 0.960 . S
H1280 C1264 0.931 . S
H1281 C1269 0.929 . S
H1282 C1270 0.960 . S
H1283 C1270 0.962 . S
H1284 C1270 0.960 . S
H1285 C1271 0.961 . S
H1286 C1271 0.961 . S
H1287 C1271 0.961 . S
H1288 C1272 0.931 . S
H1289 C1277 0.930 . S
H1290 C1278 0.956 . S
H1291 C1278 0.961 . S
H1292 C1278 0.961 . S
H1293 C1279 0.958 . S
H1294 C1279 0.961 . S
H1295 C1279 0.960 . S
C1296 C1297 1.391 . S
C1296 C1298 1.394 . S
C1296 H1312 0.931 . S
C1297 C1296 1.391 . S
C1297 C1301 1.376 . S
C1298 C1296 1.394 . S
C1298 C1299 1.369 . S
C1298 C1302 1.531 . S
C1299 C1298 1.369 . S
C1299 C1300 1.410 . S
C1299 C1307 1.503 . S
C1300 C1299 1.410 . S
C1300 C1301 1.392 . S
C1300 C1303 1.511 . S
C1301 C1297 1.376 . S
C1301 C1300 1.392 . S
C1301 H1313 0.929 . S
C1302 C1298 1.531 . S
C1302 H1314 0.960 . S
C1302 H1315 0.962 . S
C1302 H1316 0.960 . S
C1303 C1300 1.511 . S
C1303 H1317 0.961 . S
C1303 H1318 0.961 . S
C1303 H1319 0.961 . S
C1304 C1305 1.370 . S
C1304 C1306 1.363 . S
C1304 H1320 0.931 . S
C1305 C1304 1.370 . S
C1305 C1309 1.408 . S
C1306 C1304 1.363 . S
C1306 C1307 1.370 . S
C1306 C1310 1.524 . S
C1307 C1299 1.503 . S
C1307 C1306 1.370 . S
C1307 C1308 1.403 . S
C1308 C1307 1.403 . S
C1308 C1309 1.404 . S
C1308 C1311 1.539 . S
C1309 C1305 1.408 . S
C1309 C1308 1.404 . S
C1309 H1321 0.930 . S
C1310 C1306 1.524 . S
C1310 H1322 0.956 . S
C1310 H1323 0.961 . S
C1310 H1324 0.961 . S
C1311 C1308 1.539 . S
C1311 H1325 0.958 . S
C1311 H1326 0.961 . S
C1311 H1327 0.960 . S
H1312 C1296 0.931 . S
H1313 C1301 0.929 . S
H1314 C1302 0.960 . S
H1315 C1302 0.962 . S
H1316 C1302 0.960 . S
H1317 C1303 0.961 . S
H1318 C1303 0.961 . S
H1319 C1303 0.961 . S
H1320 C1304 0.931 . S
H1321 C1309 0.930 . S
H1322 C1310 0.956 . S
H1323 C1310 0.961 . S
H1324 C1310 0.961 . S
H1325 C1311 0.958 . S
H1326 C1311 0.961 . S
H1327 C1311 0.960 . S
C1328 C1329 1.391 . S
C1328 C1330 1.394 . S
C1328 H1344 0.931 . S
C1329 C1328 1.391 . S
C1329 C1333 1.376 . S
C1330 C1328 1.394 . S
C1330 C1331 1.369 . S
C1330 C1334 1.531 . S
C1331 C1330 1.369 . S
C1331 C1332 1.410 . S
C1331 C1339 1.503 . S
C1332 C1331 1.410 . S
C1332 C1333 1.392 . S
C1332 C1335 1.511 . S
C1333 C1329 1.376 . S
C1333 C1332 1.392 . S
C1333 H1345 0.929 . S
C1334 C1330 1.531 . S
C1334 H1346 0.960 . S
C1334 H1347 0.962 . S
C1334 H1348 0.960 . S
C1335 C1332 1.511 . S
C1335 H1349 0.961 . S
C1335 H1350 0.961 . S
C1335 H1351 0.961 . S
C1336 C1337 1.370 . S
C1336 C1338 1.363 . S
C1336 H1352 0.931 . S
C1337 C1336 1.370 . S
C1337 C1341 1.408 . S
C1338 C1336 1.363 . S
C1338 C1339 1.370 . S
C1338 C1342 1.524 . S
C1339 C1331 1.503 . S
C1339 C1338 1.370 . S
C1339 C1340 1.403 . S
C1340 C1339 1.403 . S
C1340 C1341 1.404 . S
C1340 C1343 1.539 . S
C1341 C1337 1.408 . S
C1341 C1340 1.404 . S
C1341 H1353 0.930 . S
C1342 C1338 1.524 . S
C1342 H1354 0.956 . S
C1342 H1355 0.961 . S
C1342 H1356 0.961 . S
C1343 C1340 1.539 . S
C1343 H1357 0.958 . S
C1343 H1358 0.961 . S
C1343 H1359 0.960 . S
H1344 C1328 0.931 . S
H1345 C1333 0.929 . S
H1346 C1334 0.960 . S
H1347 C1334 0.962 . S
H1348 C1334 0.960 . S
H1349 C1335 0.961 . S
H1350 C1335 0.961 . S
H1351 C1335 0.961 . S
H1352 C1336 0.931 . S
H1353 C1341 0.930 . S
H1354 C1342 0.956 . S
H1355 C1342 0.961 . S
H1356 C1342 0.961 . S
H1357 C1343 0.958 . S
H1358 C1343 0.961 . S
H1359 C1343 0.960 . S
C1360 C1361 1.391 . S
C1360 C1362 1.394 . S
C1360 H1376 0.931 . S
C1361 C1360 1.391 . S
C1361 C1365 1.376 . S
C1362 C1360 1.394 . S
C1362 C1363 1.369 . S
C1362 C1366 1.531 . S
C1363 C1362 1.369 . S
C1363 C1364 1.410 . S
C1363 C1371 1.503 . S
C1364 C1363 1.410 . S
C1364 C1365 1.392 . S
C1364 C1367 1.511 . S
C1365 C1361 1.376 . S
C1365 C1364 1.392 . S
C1365 H1377 0.929 . S
C1366 C1362 1.531 . S
C1366 H1378 0.960 . S
C1366 H1379 0.962 . S
C1366 H1380 0.960 . S
C1367 C1364 1.511 . S
C1367 H1381 0.961 . S
C1367 H1382 0.961 . S
C1367 H1383 0.961 . S
C1368 C1369 1.370 . S
C1368 C1370 1.363 . S
C1368 H1384 0.931 . S
C1369 C1368 1.370 . S
C1369 C1373 1.408 . S
C1370 C1368 1.363 . S
C1370 C1371 1.370 . S
C1370 C1374 1.524 . S
C1371 C1363 1.503 . S
C1371 C1370 1.370 . S
C1371 C1372 1.403 . S
C1372 C1371 1.403 . S
C1372 C1373 1.404 . S
C1372 C1375 1.539 . S
C1373 C1369 1.408 . S
C1373 C1372 1.404 . S
C1373 H1385 0.930 . S
C1374 C1370 1.524 . S
C1374 H1386 0.956 . S
C1374 H1387 0.961 . S
C1374 H1388 0.961 . S
C1375 C1372 1.539 . S
C1375 H1389 0.958 . S
C1375 H1390 0.961 . S
C1375 H1391 0.960 . S
H1376 C1360 0.931 . S
H1377 C1365 0.929 . S
H1378 C1366 0.960 . S
H1379 C1366 0.962 . S
H1380 C1366 0.960 . S
H1381 C1367 0.961 . S
H1382 C1367 0.961 . S
H1383 C1367 0.961 . S
H1384 C1368 0.931 . S
H1385 C1373 0.930 . S
H1386 C1374 0.956 . S
H1387 C1374 0.961 . S
H1388 C1374 0.961 . S
H1389 C1375 0.958 . S
H1390 C1375 0.961 . S
H1391 C1375 0.960 . S
C1392 C1393 1.391 . S
C1392 C1394 1.394 . S
C1392 H1408 0.931 . S
C1393 C1392 1.391 . S
C1393 C1397 1.376 . S
C1394 C1392 1.394 . S
C1394 C1395 1.369 . S
C1394 C1398 1.531 . S
C1395 C1394 1.369 . S
C1395 C1396 1.410 . S
C1395 C1403 1.503 . S
C1396 C1395 1.410 . S
C1396 C1397 1.392 . S
C1396 C1399 1.511 . S
C1397 C1393 1.376 . S
C1397 C1396 1.392 . S
C1397 H1409 0.929 . S
C1398 C1394 1.531 . S
C1398 H1410 0.960 . S
C1398 H1411 0.962 . S
C1398 H1412 0.960 . S
C1399 C1396 1.511 . S
C1399 H1413 0.961 . S
C1399 H1414 0.961 . S
C1399 H1415 0.961 . S
C1400 C1401 1.370 . S
C1400 C1402 1.363 . S
C1400 H1416 0.931 . S
C1401 C1400 1.370 . S
C1401 C1405 1.408 . S
C1402 C1400 1.363 . S
C1402 C1403 1.370 . S
C1402 C1406 1.524 . S
C1403 C1395 1.503 . S
C1403 C1402 1.370 . S
C1403 C1404 1.403 . S
C1404 C1403 1.403 . S
C1404 C1405 1.404 . S
C1404 C1407 1.539 . S
C1405 C1401 1.408 . S
C1405 C1404 1.404 . S
C1405 H1417 0.930 . S
C1406 C1402 1.524 . S
C1406 H1418 0.956 . S
C1406 H1419 0.961 . S
C1406 H1420 0.961 . S
C1407 C1404 1.539 . S
C1407 H1421 0.958 . S
C1407 H1422 0.961 . S
C1407 H1423 0.960 . S
H1408 C1392 0.931 . S
H1409 C1397 0.929 . S
H1410 C1398 0.960 . S
H1411 C1398 0.962 . S
H1412 C1398 0.960 . S
H1413 C1399 0.961 . S
H1414 C1399 0.961 . S
H1415 C1399 0.961 . S
H1416 C1400 0.931 . S
H1417 C1405 0.930 . S
H1418 C1406 0.956 . S
H1419 C1406 0.961 . S
H1420 C1406 0.961 . S
H1421 C1407 0.958 . S
H1422 C1407 0.961 . S
H1423 C1407 0.960 . S
C1424 C1425 1.391 . S
C1424 C1426 1.394 . S
C1424 H1440 0.931 . S
C1425 C1424 1.391 . S
C1425 C1429 1.376 . S
C1426 C1424 1.394 . S
C1426 C1427 1.369 . S
C1426 C1430 1.531 . S
C1427 C1426 1.369 . S
C1427 C1428 1.410 . S
C1427 C1435 1.503 . S
C1428 C1427 1.410 . S
C1428 C1429 1.392 . S
C1428 C1431 1.511 . S
C1429 C1425 1.376 . S
C1429 C1428 1.392 . S
C1429 H1441 0.929 . S
C1430 C1426 1.531 . S
C1430 H1442 0.960 . S
C1430 H1443 0.962 . S
C1430 H1444 0.960 . S
C1431 C1428 1.511 . S
C1431 H1445 0.961 . S
C1431 H1446 0.961 . S
C1431 H1447 0.961 . S
C1432 C1433 1.370 . S
C1432 C1434 1.363 . S
C1432 H1448 0.931 . S
C1433 C1432 1.370 . S
C1433 C1437 1.408 . S
C1434 C1432 1.363 . S
C1434 C1435 1.370 . S
C1434 C1438 1.524 . S
C1435 C1427 1.503 . S
C1435 C1434 1.370 . S
C1435 C1436 1.403 . S
C1436 C1435 1.403 . S
C1436 C1437 1.404 . S
C1436 C1439 1.539 . S
C1437 C1433 1.408 . S
C1437 C1436 1.404 . S
C1437 H1449 0.930 . S
C1438 C1434 1.524 . S
C1438 H1450 0.956 . S
C1438 H1451 0.961 . S
C1438 H1452 0.961 . S
C1439 C1436 1.539 . S
C1439 H1453 0.958 . S
C1439 H1454 0.961 . S
C1439 H1455 0.960 . S
H1440 C1424 0.931 . S
H1441 C1429 0.929 . S
H1442 C1430 0.960 . S
H1443 C1430 0.962 . S
H1444 C1430 0.960 . S
H1445 C1431 0.961 . S
H1446 C1431 0.961 . S
H1447 C1431 0.961 . S
H1448 C1432 0.931 . S
H1449 C1437 0.930 . S
H1450 C1438 0.956 . S
H1451 C1438 0.961 . S
H1452 C1438 0.961 . S
H1453 C1439 0.958 . S
H1454 C1439 0.961 . S
H1455 C1439 0.960 . S
C1456 C1457 1.391 . S
C1456 C1458 1.394 . S
C1456 H1472 0.931 . S
C1457 C1456 1.391 . S
C1457 C1461 1.376 . S
C1458 C1456 1.394 . S
C1458 C1459 1.369 . S
C1458 C1462 1.531 . S
C1459 C1458 1.369 . S
C1459 C1460 1.410 . S
C1459 C1467 1.503 . S
C1460 C1459 1.410 . S
C1460 C1461 1.392 . S
C1460 C1463 1.511 . S
C1461 C1457 1.376 . S
C1461 C1460 1.392 . S
C1461 H1473 0.929 . S
C1462 C1458 1.531 . S
C1462 H1474 0.960 . S
C1462 H1475 0.962 . S
C1462 H1476 0.960 . S
C1463 C1460 1.511 . S
C1463 H1477 0.961 . S
C1463 H1478 0.961 . S
C1463 H1479 0.961 . S
C1464 C1465 1.370 . S
C1464 C1466 1.363 . S
C1464 H1480 0.931 . S
C1465 C1464 1.370 . S
C1465 C1469 1.408 . S
C1466 C1464 1.363 . S
C1466 C1467 1.370 . S
C1466 C1470 1.524 . S
C1467 C1459 1.503 . S
C1467 C1466 1.370 . S
C1467 C1468 1.403 . S
C1468 C1467 1.403 . S
C1468 C1469 1.404 . S
C1468 C1471 1.539 . S
C1469 C1465 1.408 . S
C1469 C1468 1.404 . S
C1469 H1481 0.930 . S
C1470 C1466 1.524 . S
C1470 H1482 0.956 . S
C1470 H1483 0.961 . S
C1470 H1484 0.961 . S
C1471 C1468 1.539 . S
C1471 H1485 0.958 . S
C1471 H1486 0.961 . S
C1471 H1487 0.960 . S
H1472 C1456 0.931 . S
H1473 C1461 0.929 . S
H1474 C1462 0.960 . S
H1475 C1462 0.962 . S
H1476 C1462 0.960 . S
H1477 C1463 0.961 . S
H1478 C1463 0.961 . S
H1479 C1463 0.961 . S
H1480 C1464 0.931 . S
H1481 C1469 0.930 . S
H1482 C1470 0.956 . S
H1483 C1470 0.961 . S
H1484 C1470 0.961 . S
H1485 C1471 0.958 . S
H1486 C1471 0.961 . S
H1487 C1471 0.960 . S
C1488 C1489 1.391 . S
C1488 C1490 1.394 . S
C1488 H1504 0.931 . S
C1489 C1488 1.391 . S
C1489 C1493 1.376 . S
C1490 C1488 1.394 . S
C1490 C1491 1.369 . S
C1490 C1494 1.531 . S
C1491 C1490 1.369 . S
C1491 C1492 1.410 . S
C1491 C1499 1.503 . S
C1492 C1491 1.410 . S
C1492 C1493 1.392 . S
C1492 C1495 1.511 . S
C1493 C1489 1.376 . S
C1493 C1492 1.392 . S
C1493 H1505 0.929 . S
C1494 C1490 1.531 . S
C1494 H1506 0.960 . S
C1494 H1507 0.962 . S
C1494 H1508 0.960 . S
C1495 C1492 1.511 . S
C1495 H1509 0.961 . S
C1495 H1510 0.961 . S
C1495 H1511 0.961 . S
C1496 C1497 1.370 . S
C1496 C1498 1.363 . S
C1496 H1512 0.931 . S
C1497 C1496 1.370 . S
C1497 C1501 1.408 . S
C1498 C1496 1.363 . S
C1498 C1499 1.370 . S
C1498 C1502 1.524 . S
C1499 C1491 1.503 . S
C1499 C1498 1.370 . S
C1499 C1500 1.403 . S
C1500 C1499 1.403 . S
C1500 C1501 1.404 . S
C1500 C1503 1.539 . S
C1501 C1497 1.408 . S
C1501 C1500 1.404 . S
C1501 H1513 0.930 . S
C1502 C1498 1.524 . S
C1502 H1514 0.956 . S
C1502 H1515 0.961 . S
C1502 H1516 0.961 . S
C1503 C1500 1.539 . S
C1503 H1517 0.958 . S
C1503 H1518 0.961 . S
C1503 H1519 0.960 . S
H1504 C1488 0.931 . S
H1505 C1493 0.929 . S
H1506 C1494 0.960 . S
H1507 C1494 0.962 . S
H1508 C1494 0.960 . S
H1509 C1495 0.961 . S
H1510 C1495 0.961 . S
H1511 C1495 0.961 . S
H1512 C1496 0.931 . S
H1513 C1501 0.930 . S
H1514 C1502 0.956 . S
H1515 C1502 0.961 . S
H1516 C1502 0.961 . S
H1517 C1503 0.958 . S
H1518 C1503 0.961 . S
H1519 C1503 0.960 . S
C1520 C1521 1.391 . S
C1520 C1522 1.394 . S
C1520 H1536 0.931 . S
C1521 C1520 1.391 . S
C1521 C1525 1.376 . S
C1522 C1520 1.394 . S
C1522 C1523 1.369 . S
C1522 C1526 1.531 . S
C1523 C1522 1.369 . S
C1523 C1524 1.410 . S
C1523 C1531 1.503 . S
C1524 C1523 1.410 . S
C1524 C1525 1.392 . S
C1524 C1527 1.511 . S
C1525 C1521 1.376 . S
C1525 C1524 1.392 . S
C1525 H1537 0.929 . S
C1526 C1522 1.531 . S
C1526 H1538 0.960 . S
C1526 H1539 0.962 . S
C1526 H1540 0.960 . S
C1527 C1524 1.511 . S
C1527 H1541 0.961 . S
C1527 H1542 0.961 . S
C1527 H1543 0.961 . S
C1528 C1529 1.370 . S
C1528 C1530 1.363 . S
C1528 H1544 0.931 . S
C1529 C1528 1.370 . S
C1529 C1533 1.408 . S
C1530 C1528 1.363 . S
C1530 C1531 1.370 . S
C1530 C1534 1.524 . S
C1531 C1523 1.503 . S
C1531 C1530 1.370 . S
C1531 C1532 1.403 . S
C1532 C1531 1.403 . S
C1532 C1533 1.404 . S
C1532 C1535 1.539 . S
C1533 C1529 1.408 . S
C1533 C1532 1.404 . S
C1533 H1545 0.930 . S
C1534 C1530 1.524 . S
C1534 H1546 0.956 . S
C1534 H1547 0.961 . S
C1534 H1548 0.961 . S
C1535 C1532 1.539 . S
C1535 H1549 0.958 . S
C1535 H1550 0.961 . S
C1535 H1551 0.960 . S
H1536 C1520 0.931 . S
H1537 C1525 0.929 . S
H1538 C1526 0.960 . S
H1539 C1526 0.962 . S
H1540 C1526 0.960 . S
H1541 C1527 0.961 . S
H1542 C1527 0.961 . S
H1543 C1527 0.961 . S
H1544 C1528 0.931 . S
H1545 C1533 0.930 . S
H1546 C1534 0.956 . S
H1547 C1534 0.961 . S
H1548 C1534 0.961 . S
H1549 C1535 0.958 . S
H1550 C1535 0.961 . S
H1551 C1535 0.960 . S
C1552 C1553 1.391 . S
C1552 C1554 1.394 . S
C1552 H1568 0.931 . S
C1553 C1552 1.391 . S
C1553 C1557 1.376 . S
C1554 C1552 1.394 . S
C1554 C1555 1.369 . S
C1554 C1558 1.531 . S
C1555 C1554 1.369 . S
C1555 C1556 1.410 . S
C1555 C1563 1.503 . S
C1556 C1555 1.410 . S
C1556 C1557 1.392 . S
C1556 C1559 1.511 . S
C1557 C1553 1.376 . S
C1557 C1556 1.392 . S
C1557 H1569 0.929 . S
C1558 C1554 1.531 . S
C1558 H1570 0.960 . S
C1558 H1571 0.962 . S
C1558 H1572 0.960 . S
C1559 C1556 1.511 . S
C1559 H1573 0.961 . S
C1559 H1574 0.961 . S
C1559 H1575 0.961 . S
C1560 C1561 1.370 . S
C1560 C1562 1.363 . S
C1560 H1576 0.931 . S
C1561 C1560 1.370 . S
C1561 C1565 1.408 . S
C1562 C1560 1.363 . S
C1562 C1563 1.370 . S
C1562 C1566 1.524 . S
C1563 C1555 1.503 . S
C1563 C1562 1.370 . S
C1563 C1564 1.403 . S
C1564 C1563 1.403 . S
C1564 C1565 1.404 . S
C1564 C1567 1.539 . S
C1565 C1561 1.408 . S
C1565 C1564 1.404 . S
C1565 H1577 0.930 . S
C1566 C1562 1.524 . S
C1566 H1578 0.956 . S
C1566 H1579 0.961 . S
C1566 H1580 0.961 . S
C1567 C1564 1.539 . S
C1567 H1581 0.958 . S
C1567 H1582 0.961 . S
C1567 H1583 0.960 . S
H1568 C1552 0.931 . S
H1569 C1557 0.929 . S
H1570 C1558 0.960 . S
H1571 C1558 0.962 . S
H1572 C1558 0.960 . S
H1573 C1559 0.961 . S
H1574 C1559 0.961 . S
H1575 C1559 0.961 . S
H1576 C1560 0.931 . S
H1577 C1565 0.930 . S
H1578 C1566 0.956 . S
H1579 C1566 0.961 . S
H1580 C1566 0.961 . S
H1581 C1567 0.958 . S
H1582 C1567 0.961 . S
H1583 C1567 0.960 . S
C1584 C1585 1.391 . S
C1584 C1586 1.394 . S
C1584 H1600 0.931 . S
C1585 C1584 1.391 . S
C1585 C1589 1.376 . S
C1586 C1584 1.394 . S
C1586 C1587 1.369 . S
C1586 C1590 1.531 . S
C1587 C1586 1.369 . S
C1587 C1588 1.410 . S
C1587 C1595 1.503 . S
C1588 C1587 1.410 . S
C1588 C1589 1.392 . S
C1588 C1591 1.511 . S
C1589 C1585 1.376 . S
C1589 C1588 1.392 . S
C1589 H1601 0.929 . S
C1590 C1586 1.531 . S
C1590 H1602 0.960 . S
C1590 H1603 0.962 . S
C1590 H1604 0.960 . S
C1591 C1588 1.511 . S
C1591 H1605 0.961 . S
C1591 H1606 0.961 . S
C1591 H1607 0.961 . S
C1592 C1593 1.370 . S
C1592 C1594 1.363 . S
C1592 H1608 0.931 . S
C1593 C1592 1.370 . S
C1593 C1597 1.408 . S
C1594 C1592 1.363 . S
C1594 C1595 1.370 . S
C1594 C1598 1.524 . S
C1595 C1587 1.503 . S
C1595 C1594 1.370 . S
C1595 C1596 1.403 . S
C1596 C1595 1.403 . S
C1596 C1597 1.404 . S
C1596 C1599 1.539 . S
C1597 C1593 1.408 . S
C1597 C1596 1.404 . S
C1597 H1609 0.930 . S
C1598 C1594 1.524 . S
C1598 H1610 0.956 . S
C1598 H1611 0.961 . S
C1598 H1612 0.961 . S
C1599 C1596 1.539 . S
C1599 H1613 0.958 . S
C1599 H1614 0.961 . S
C1599 H1615 0.960 . S
H1600 C1584 0.931 . S
H1601 C1589 0.929 . S
H1602 C1590 0.960 . S
H1603 C1590 0.962 . S
H1604 C1590 0.960 . S
H1605 C1591 0.961 . S
H1606 C1591 0.961 . S
H1607 C1591 0.961 . S
H1608 C1592 0.931 . S
H1609 C1597 0.930 . S
H1610 C1598 0.956 . S
H1611 C1598 0.961 . S
H1612 C1598 0.961 . S
H1613 C1599 0.958 . S
H1614 C1599 0.961 . S
H1615 C1599 0.960 . S
C1616 C1617 1.391 . S
C1616 C1618 1.394 . S
C1616 H1632 0.931 . S
C1617 C1616 1.391 . S
C1617 C1621 1.376 . S
C1618 C1616 1.394 . S
C1618 C1619 1.369 . S
C1618 C1622 1.531 . S
C1619 C1618 1.369 . S
C1619 C1620 1.410 . S
C1619 C1627 1.503 . S
C1620 C1619 1.410 . S
C1620 C1621 1.392 . S
C1620 C1623 1.511 . S
C1621 C1617 1.376 . S
C1621 C1620 1.392 . S
C1621 H1633 0.929 . S
C1622 C1618 1.531 . S
C1622 H1634 0.960 . S
C1622 H1635 0.962 . S
C1622 H1636 0.960 . S
C1623 C1620 1.511 . S
C1623 H1637 0.961 . S
C1623 H1638 0.961 . S
C1623 H1639 0.961 . S
C1624 C1625 1.370 . S
C1624 C1626 1.363 . S
C1624 H1640 0.931 . S
C1625 C1624 1.370 . S
C1625 C1629 1.408 . S
C1626 C1624 1.363 . S
C1626 C1627 1.370 . S
C1626 C1630 1.524 . S
C1627 C1619 1.503 . S
C1627 C1626 1.370 . S
C1627 C1628 1.403 . S
C1628 C1627 1.403 . S
C1628 C1629 1.404 . S
C1628 C1631 1.539 . S
C1629 C1625 1.408 . S
C1629 C1628 1.404 . S
C1629 H1641 0.930 . S
C1630 C1626 1.524 . S
C1630 H1642 0.956 . S
C1630 H1643 0.961 . S
C1630 H1644 0.961 . S
C1631 C1628 1.539 . S
C1631 H1645 0.958 . S
C1631 H1646 0.961 . S
C1631 H1647 0.960 . S
H1632 C1616 0.931 . S
H1633 C1621 0.929 . S
H1634 C1622 0.960 . S
H1635 C1622 0.962 . S
H1636 C1622 0.960 . S
H1637 C1623 0.961 . S
H1638 C1623 0.961 . S
H1639 C1623 0.961 . S
H1640 C1624 0.931 . S
H1641 C1629 0.930 . S
H1642 C1630 0.956 . S
H1643 C1630 0.961 . S
H1644 C1630 0.961 . S
H1645 C1631 0.958 . S
H1646 C1631 0.961 . S
H1647 C1631 0.960 . S
C1648 C1649 1.391 . S
C1648 C1650 1.394 . S
C1648 H1664 0.931 . S
C1649 C1648 1.391 . S
C1649 C1653 1.376 . S
C1650 C1648 1.394 . S
C1650 C1651 1.369 . S
C1650 C1654 1.531 . S
C1651 C1650 1.369 . S
C1651 C1652 1.410 . S
C1651 C1659 1.503 . S
C1652 C1651 1.410 . S
C1652 C1653 1.392 . S
C1652 C1655 1.511 . S
C1653 C1649 1.376 . S
C1653 C1652 1.392 . S
C1653 H1665 0.929 . S
C1654 C1650 1.531 . S
C1654 H1666 0.960 . S
C1654 H1667 0.962 . S
C1654 H1668 0.960 . S
C1655 C1652 1.511 . S
C1655 H1669 0.961 . S
C1655 H1670 0.961 . S
C1655 H1671 0.961 . S
C1656 C1657 1.370 . S
C1656 C1658 1.363 . S
C1656 H1672 0.931 . S
C1657 C1656 1.370 . S
C1657 C1661 1.408 . S
C1658 C1656 1.363 . S
C1658 C1659 1.370 . S
C1658 C1662 1.524 . S
C1659 C1651 1.503 . S
C1659 C1658 1.370 . S
C1659 C1660 1.403 . S
C1660 C1659 1.403 . S
C1660 C1661 1.404 . S
C1660 C1663 1.539 . S
C1661 C1657 1.408 . S
C1661 C1660 1.404 . S
C1661 H1673 0.930 . S
C1662 C1658 1.524 . S
C1662 H1674 0.956 . S
C1662 H1675 0.961 . S
C1662 H1676 0.961 . S
C1663 C1660 1.539 . S
C1663 H1677 0.958 . S
C1663 H1678 0.961 . S
C1663 H1679 0.960 . S
H1664 C1648 0.931 . S
H1665 C1653 0.929 . S
H1666 C1654 0.960 . S
H1667 C1654 0.962 . S
H1668 C1654 0.960 . S
H1669 C1655 0.961 . S
H1670 C1655 0.961 . S
H1671 C1655 0.961 . S
H1672 C1656 0.931 . S
H1673 C1661 0.930 . S
H1674 C1662 0.956 . S
H1675 C1662 0.961 . S
H1676 C1662 0.961 . S
H1677 C1663 0.958 . S
H1678 C1663 0.961 . S
H1679 C1663 0.960 . S
C1680 C1681 1.391 . S
C1680 C1682 1.394 . S
C1680 H1696 0.931 . S
C1681 C1680 1.391 . S
C1681 C1685 1.376 . S
C1682 C1680 1.394 . S
C1682 C1683 1.369 . S
C1682 C1686 1.531 . S
C1683 C1682 1.369 . S
C1683 C1684 1.410 . S
C1683 C1691 1.503 . S
C1684 C1683 1.410 . S
C1684 C1685 1.392 . S
C1684 C1687 1.511 . S
C1685 C1681 1.376 . S
C1685 C1684 1.392 . S
C1685 H1697 0.929 . S
C1686 C1682 1.531 . S
C1686 H1698 0.960 . S
C1686 H1699 0.962 . S
C1686 H1700 0.960 . S
C1687 C1684 1.511 . S
C1687 H1701 0.961 . S
C1687 H1702 0.961 . S
C1687 H1703 0.961 . S
C1688 C1689 1.370 . S
C1688 C1690 1.363 . S
C1688 H1704 0.931 . S
C1689 C1688 1.370 . S
C1689 C1693 1.408 . S
C1690 C1688 1.363 . S
C1690 C1691 1.370 . S
C1690 C1694 1.524 . S
C1691 C1683 1.503 . S
C1691 C1690 1.370 . S
C1691 C1692 1.403 . S
C1692 C1691 1.403 . S
C1692 C1693 1.404 . S
C1692 C1695 1.539 . S
C1693 C1689 1.408 . S
C1693 C1692 1.404 . S
C1693 H1705 0.930 . S
C1694 C1690 1.524 . S
C1694 H1706 0.956 . S
C1694 H1707 0.961 . S
C1694 H1708 0.961 . S
C1695 C1692 1.539 . S
C1695 H1709 0.958 . S
C1695 H1710 0.961 . S
C1695 H1711 0.960 . S
H1696 C1680 0.931 . S
H1697 C1685 0.929 . S
H1698 C1686 0.960 . S
H1699 C1686 0.962 . S
H1700 C1686 0.960 . S
H1701 C1687 0.961 . S
H1702 C1687 0.961 . S
H1703 C1687 0.961 . S
H1704 C1688 0.931 . S
H1705 C1693 0.930 . S
H1706 C1694 0.956 . S
H1707 C1694 0.961 . S
H1708 C1694 0.961 . S
H1709 C1695 0.958 . S
H1710 C1695 0.961 . S
H1711 C1695 0.960 . S
C1712 C1713 1.391 . S
C1712 C1714 1.394 . S
C1712 H1728 0.931 . S
C1713 C1712 1.391 . S
C1713 C1717 1.376 . S
C1714 C1712 1.394 . S
C1714 C1715 1.369 . S
C1714 C1718 1.531 . S
C1715 C1714 1.369 . S
C1715 C1716 1.410 . S
C1715 C1723 1.503 1_554 S
C1716 C1715 1.410 . S
C1716 C1717 1.392 . S
C1716 C1719 1.511 . S
C1717 C1713 1.376 . S
C1717 C1716 1.392 . S
C1717 H1729 0.929 . S
C1718 C1714 1.531 . S
C1718 H1730 0.960 1_554 S
C1718 H1731 0.962 . S
C1718 H1732 0.960 . S
C1719 C1716 1.511 . S
C1719 H1733 0.961 . S
C1719 H1734 0.961 1_554 S
C1719 H1735 0.961 . S
C1720 C1721 1.370 . S
C1720 C1722 1.363 . S
C1720 H1736 0.931 . S
C1721 C1720 1.370 . S
C1721 C1725 1.408 . S
C1722 C1720 1.363 . S
C1722 C1723 1.370 . S
C1722 C1726 1.524 . S
C1723 C1715 1.503 1_556 S
C1723 C1722 1.370 . S
C1723 C1724 1.403 . S
C1724 C1723 1.403 . S
C1724 C1725 1.404 . S
C1724 C1727 1.539 . S
C1725 C1721 1.408 . S
C1725 C1724 1.404 . S
C1725 H1737 0.930 . S
C1726 C1722 1.524 . S
C1726 H1738 0.956 . S
C1726 H1739 0.961 . S
C1726 H1740 0.961 . S
C1727 C1724 1.539 . S
C1727 H1741 0.958 . S
C1727 H1742 0.961 . S
C1727 H1743 0.960 1_556 S
H1728 C1712 0.931 . S
H1729 C1717 0.929 . S
H1730 C1718 0.960 1_556 S
H1731 C1718 0.962 . S
H1732 C1718 0.960 . S
H1733 C1719 0.961 . S
H1734 C1719 0.961 1_556 S
H1735 C1719 0.961 . S
H1736 C1720 0.931 . S
H1737 C1725 0.930 . S
H1738 C1726 0.956 . S
H1739 C1726 0.961 . S
H1740 C1726 0.961 . S
H1741 C1727 0.958 . S
H1742 C1727 0.961 . S
H1743 C1727 0.960 1_554 S
C1744 C1745 1.391 . S
C1744 C1746 1.394 . S
C1744 H1760 0.931 . S
C1745 C1744 1.391 . S
C1745 C1749 1.376 . S
C1746 C1744 1.394 . S
C1746 C1747 1.369 . S
C1746 C1750 1.531 . S
C1747 C1746 1.369 . S
C1747 C1748 1.410 . S
C1747 C1755 1.503 . S
C1748 C1747 1.410 . S
C1748 C1749 1.392 . S
C1748 C1751 1.511 . S
C1749 C1745 1.376 . S
C1749 C1748 1.392 . S
C1749 H1761 0.929 . S
C1750 C1746 1.531 . S
C1750 H1762 0.960 . S
C1750 H1763 0.962 . S
C1750 H1764 0.960 . S
C1751 C1748 1.511 . S
C1751 H1765 0.961 . S
C1751 H1766 0.961 . S
C1751 H1767 0.961 . S
C1752 C1753 1.370 . S
C1752 C1754 1.363 . S
C1752 H1768 0.931 . S
C1753 C1752 1.370 . S
C1753 C1757 1.408 . S
C1754 C1752 1.363 . S
C1754 C1755 1.370 . S
C1754 C1758 1.524 . S
C1755 C1747 1.503 . S
C1755 C1754 1.370 . S
C1755 C1756 1.403 . S
C1756 C1755 1.403 . S
C1756 C1757 1.404 . S
C1756 C1759 1.539 . S
C1757 C1753 1.408 . S
C1757 C1756 1.404 . S
C1757 H1769 0.930 . S
C1758 C1754 1.524 . S
C1758 H1770 0.956 . S
C1758 H1771 0.961 . S
C1758 H1772 0.961 . S
C1759 C1756 1.539 . S
C1759 H1773 0.958 . S
C1759 H1774 0.961 . S
C1759 H1775 0.960 . S
H1760 C1744 0.931 . S
H1761 C1749 0.929 . S
H1762 C1750 0.960 . S
H1763 C1750 0.962 . S
H1764 C1750 0.960 . S
H1765 C1751 0.961 . S
H1766 C1751 0.961 . S
H1767 C1751 0.961 . S
H1768 C1752 0.931 . S
H1769 C1757 0.930 . S
H1770 C1758 0.956 . S
H1771 C1758 0.961 . S
H1772 C1758 0.961 . S
H1773 C1759 0.958 . S
H1774 C1759 0.961 . S
H1775 C1759 0.960 . S
C1776 C1777 1.391 . S
C1776 C1778 1.394 . S
C1776 H1792 0.931 . S
C1777 C1776 1.391 . S
C1777 C1781 1.376 1_655 S
C1778 C1776 1.394 . S
C1778 C1779 1.369 . S
C1778 C1782 1.531 . S
C1779 C1778 1.369 . S
C1779 C1780 1.410 1_655 S
C1779 C1787 1.503 1_554 S
C1780 C1779 1.410 1_455 S
C1780 C1781 1.392 . S
C1780 C1783 1.511 . S
C1781 C1777 1.376 1_455 S
C1781 C1780 1.392 . S
C1781 H1793 0.929 . S
C1782 C1778 1.531 . S
C1782 H1794 0.960 1_554 S
C1782 H1795 0.962 . S
C1782 H1796 0.960 . S
C1783 C1780 1.511 . S
C1783 H1797 0.961 . S
C1783 H1798 0.961 1_554 S
C1783 H1799 0.961 . S
C1784 C1785 1.370 . S
C1784 C1786 1.363 . S
C1784 H1800 0.931 . S
C1785 C1784 1.370 . S
C1785 C1789 1.408 . S
C1786 C1784 1.363 . S
C1786 C1787 1.370 . S
C1786 C1790 1.524 . S
C1787 C1779 1.503 1_556 S
C1787 C1786 1.370 . S
C1787 C1788 1.403 . S
C1788 C1787 1.403 . S
C1788 C1789 1.404 . S
C1788 C1791 1.539 . S
C1789 C1785 1.408 . S
C1789 C1788 1.404 . S
C1789 H1801 0.930 . S
C1790 C1786 1.524 . S
C1790 H1802 0.956 1_556 S
C1790 H1803 0.989 1_556 S
C1790 H1804 0.961 . S
C1791 C1788 1.539 . S
C1791 H1805 0.958 . S
C1791 H1806 0.961 1_655 S
C1791 H1807 0.960 1_655 S
H1792 C1776 0.931 . S
H1793 C1781 0.929 . S
H1794 C1782 0.960 1_556 S
H1795 C1782 0.962 . S
H1796 C1782 0.960 . S
H1797 C1783 0.961 . S
H1798 C1783 0.961 1_556 S
H1799 C1783 0.961 . S
H1800 C1784 0.931 . S
H1801 C1789 0.930 . S
H1802 C1790 0.956 1_554 S
H1803 C1790 0.989 1_554 S
H1804 C1790 0.961 . S
H1805 C1791 0.958 . S
H1806 C1791 0.961 1_455 S
H1807 C1791 0.960 1_455 S
C1808 C1809 1.391 1_545 S
C1808 C1810 1.394 . S
C1808 H1824 0.931 . S
C1809 C1808 1.391 1_565 S
C1809 C1813 1.376 . S
C1810 C1808 1.394 . S
C1810 C1811 1.369 1_545 S
C1810 C1814 1.531 . S
C1811 C1810 1.369 1_565 S
C1811 C1812 1.410 . S
C1811 C1819 1.503 . S
C1812 C1811 1.410 . S
C1812 C1813 1.392 . S
C1812 C1815 1.511 . S
C1813 C1809 1.376 . S
C1813 C1812 1.392 . S
C1813 H1825 0.929 . S
C1814 C1810 1.531 . S
C1814 H1826 0.960 . S
C1814 H1827 0.962 . S
C1814 H1828 0.960 . S
C1815 C1812 1.511 . S
C1815 H1829 0.961 . S
C1815 H1830 0.961 . S
C1815 H1831 0.961 . S
C1816 C1817 1.370 . S
C1816 C1818 1.363 . S
C1816 H1832 0.931 . S
C1817 C1816 1.370 . S
C1817 C1821 1.408 1_565 S
C1818 C1816 1.363 . S
C1818 C1819 1.370 . S
C1818 C1822 1.524 . S
C1819 C1811 1.503 . S
C1819 C1818 1.370 . S
C1819 C1820 1.403 1_565 S
C1820 C1819 1.403 1_545 S
C1820 C1821 1.404 . S
C1820 C1823 1.539 . S
C1821 C1817 1.408 1_545 S
C1821 C1820 1.404 . S
C1821 H1833 0.930 . S
C1822 C1818 1.524 . S
C1822 H1834 0.956 . S
C1822 H1835 0.961 . S
C1822 H1836 0.961 . S
C1823 C1820 1.539 . S
C1823 H1837 0.958 . S
C1823 H1838 0.961 . S
C1823 H1839 0.960 . S
H1824 C1808 0.931 . S
H1825 C1813 0.929 . S
H1826 C1814 0.960 . S
H1827 C1814 0.962 . S
H1828 C1814 0.960 . S
H1829 C1815 0.961 . S
H1830 C1815 0.961 . S
H1831 C1815 0.961 . S
H1832 C1816 0.931 . S
H1833 C1821 0.930 . S
H1834 C1822 0.956 . S
H1835 C1822 0.961 . S
H1836 C1822 0.961 . S
H1837 C1823 0.958 . S
H1838 C1823 0.961 . S
H1839 C1823 0.960 . S
C1840 C1841 1.391 . S
C1840 C1842 1.394 . S
C1840 H1856 0.931 . S
C1841 C1840 1.391 . S
C1841 C1845 1.376 . S
C1842 C1840 1.394 . S
C1842 C1843 1.369 . S
C1842 C1846 1.531 . S
C1843 C1842 1.369 . S
C1843 C1844 1.410 . S
C1843 C1851 1.503 1_556 S
C1844 C1843 1.410 . S
C1844 C1845 1.392 . S
C1844 C1847 1.511 . S
C1845 C1841 1.376 . S
C1845 C1844 1.392 . S
C1845 H1857 0.929 . S
C1846 C1842 1.531 . S
C1846 H1858 0.960 . S
C1846 H1859 0.962 . S
C1846 H1860 0.960 . S
C1847 C1844 1.511 . S
C1847 H1861 0.961 . S
C1847 H1862 0.961 1_556 S
C1847 H1863 0.961 . S
C1848 C1849 1.370 . S
C1848 C1850 1.363 . S
C1848 H1864 0.931 . S
C1849 C1848 1.370 . S
C1849 C1853 1.408 . S
C1850 C1848 1.363 . S
C1850 C1851 1.370 . S
C1850 C1854 1.524 . S
C1851 C1843 1.503 1_554 S
C1851 C1850 1.370 . S
C1851 C1852 1.403 . S
C1852 C1851 1.403 . S
C1852 C1853 1.404 . S
C1852 C1855 1.539 . S
C1853 C1849 1.408 . S
C1853 C1852 1.404 . S
C1853 H1865 0.930 . S
C1854 C1850 1.524 . S
C1854 H1866 0.956 . S
C1854 H1867 0.961 . S
C1854 H1868 0.961 . S
C1855 C1852 1.539 . S
C1855 H1869 0.958 . S
C1855 H1870 0.961 . S
C1855 H1871 0.960 1_554 S
H1856 C1840 0.931 . S
H1857 C1845 0.929 . S
H1858 C1846 0.960 . S
H1859 C1846 0.962 . S
H1860 C1846 0.960 . S
H1861 C1847 0.961 . S
H1862 C1847 0.961 1_554 S
H1863 C1847 0.961 . S
H1864 C1848 0.931 . S
H1865 C1853 0.930 . S
H1866 C1854 0.956 . S
H1867 C1854 0.961 . S
H1868 C1854 0.961 . S
H1869 C1855 0.958 . S
H1870 C1855 0.961 . S
H1871 C1855 0.960 1_556 S
C1872 C1873 1.391 . S
C1872 C1874 1.394 . S
C1872 H1888 0.931 . S
C1873 C1872 1.391 . S
C1873 C1877 1.376 . S
C1874 C1872 1.394 . S
C1874 C1875 1.369 . S
C1874 C1878 1.531 . S
C1875 C1874 1.369 . S
C1875 C1876 1.410 . S
C1875 C1883 1.503 . S
C1876 C1875 1.410 . S
C1876 C1877 1.392 . S
C1876 C1879 1.511 . S
C1877 C1873 1.376 . S
C1877 C1876 1.392 . S
C1877 H1889 0.929 . S
C1878 C1874 1.531 . S
C1878 H1890 0.960 . S
C1878 H1891 0.962 . S
C1878 H1892 0.960 . S
C1879 C1876 1.511 . S
C1879 H1893 0.961 . S
C1879 H1894 0.961 . S
C1879 H1895 0.961 . S
C1880 C1881 1.370 . S
C1880 C1882 1.363 . S
C1880 H1896 0.931 . S
C1881 C1880 1.370 . S
C1881 C1885 1.408 . S
C1882 C1880 1.363 . S
C1882 C1883 1.370 . S
C1882 C1886 1.524 . S
C1883 C1875 1.503 . S
C1883 C1882 1.370 . S
C1883 C1884 1.403 . S
C1884 C1883 1.403 . S
C1884 C1885 1.404 . S
C1884 C1887 1.539 . S
C1885 C1881 1.408 . S
C1885 C1884 1.404 . S
C1885 H1897 0.930 . S
C1886 C1882 1.524 . S
C1886 H1898 0.956 . S
C1886 H1899 0.961 . S
C1886 H1900 0.961 . S
C1887 C1884 1.539 . S
C1887 H1901 0.958 . S
C1887 H1902 0.961 . S
C1887 H1903 0.960 . S
H1888 C1872 0.931 . S
H1889 C1877 0.929 . S
H1890 C1878 0.960 . S
H1891 C1878 0.962 . S
H1892 C1878 0.960 . S
H1893 C1879 0.961 . S
H1894 C1879 0.961 . S
H1895 C1879 0.961 . S
H1896 C1880 0.931 . S
H1897 C1885 0.930 . S
H1898 C1886 0.956 . S
H1899 C1886 0.961 . S
H1900 C1886 0.961 . S
H1901 C1887 0.958 . S
H1902 C1887 0.961 . S
H1903 C1887 0.960 . S
C1904 C1905 1.391 . S
C1904 C1906 1.394 . S
C1904 H1920 0.931 1_455 S
C1905 C1904 1.391 . S
C1905 C1909 1.376 . S
C1906 C1904 1.394 . S
C1906 C1907 1.369 . S
C1906 C1910 1.531 1_455 S
C1907 C1906 1.369 . S
C1907 C1908 1.410 . S
C1907 C1915 1.503 1_554 S
C1908 C1907 1.410 . S
C1908 C1909 1.392 . S
C1908 C1911 1.511 . S
C1909 C1905 1.376 . S
C1909 C1908 1.392 . S
C1909 H1921 0.929 . S
C1910 C1906 1.531 1_655 S
C1910 H1922 0.958 1_554 S
C1910 H1923 0.962 . S
C1910 H1924 0.960 . S
C1911 C1908 1.511 . S
C1911 H1925 0.961 . S
C1911 H1926 0.961 . S
C1911 H1927 0.961 . S
C1912 C1913 1.370 1_655 S
C1912 C1914 1.363 . S
C1912 H1928 0.931 . S
C1913 C1912 1.370 1_455 S
C1913 C1917 1.408 . S
C1914 C1912 1.363 . S
C1914 C1915 1.370 1_655 S
C1914 C1918 1.524 . S
C1915 C1907 1.503 1_556 S
C1915 C1914 1.370 1_455 S
C1915 C1916 1.403 . S
C1916 C1915 1.403 . S
C1916 C1917 1.404 . S
C1916 C1919 1.539 . S
C1917 C1913 1.408 . S
C1917 C1916 1.404 . S
C1917 H1929 0.930 . S
C1918 C1914 1.524 . S
C1918 H1930 0.948 1_556 S
C1918 H1931 0.961 1_556 S
C1918 H1932 0.961 . S
C1919 C1916 1.539 . S
C1919 H1933 0.958 . S
C1919 H1934 0.961 . S
C1919 H1935 0.960 . S
H1920 C1904 0.931 1_655 S
H1921 C1909 0.929 . S
H1922 C1910 0.958 1_556 S
H1923 C1910 0.962 . S
H1924 C1910 0.960 . S
H1925 C1911 0.961 . S
H1926 C1911 0.961 . S
H1927 C1911 0.961 . S
H1928 C1912 0.931 . S
H1929 C1917 0.930 . S
H1930 C1918 0.948 1_554 S
H1931 C1918 0.961 1_554 S
H1932 C1918 0.961 . S
H1933 C1919 0.958 . S
H1934 C1919 0.961 . S
H1935 C1919 0.960 . S
C1936 C1937 1.391 . S
C1936 C1938 1.394 . S
C1936 H1952 0.931 . S
C1937 C1936 1.391 . S
C1937 C1941 1.376 . S
C1938 C1936 1.394 . S
C1938 C1939 1.369 . S
C1938 C1942 1.531 . S
C1939 C1938 1.369 . S
C1939 C1940 1.410 . S
C1939 C1947 1.503 . S
C1940 C1939 1.410 . S
C1940 C1941 1.392 . S
C1940 C1943 1.511 1_545 S
C1941 C1937 1.376 . S
C1941 C1940 1.392 . S
C1941 H1953 0.929 1_545 S
C1942 C1938 1.531 . S
C1942 H1954 0.960 . S
C1942 H1955 0.962 . S
C1942 H1956 0.960 . S
C1943 C1940 1.511 1_565 S
C1943 H1957 0.961 . S
C1943 H1958 0.961 . S
C1943 H1959 0.961 1_565 S
C1944 C1945 1.370 1_565 S
C1944 C1946 1.363 . S
C1944 H1960 0.931 . S
C1945 C1944 1.370 1_545 S
C1945 C1949 1.408 . S
C1946 C1944 1.363 . S
C1946 C1947 1.370 1_565 S
C1946 C1950 1.524 . S
C1947 C1939 1.503 . S
C1947 C1946 1.370 1_545 S
C1947 C1948 1.403 . S
C1948 C1947 1.403 . S
C1948 C1949 1.404 . S
C1948 C1951 1.539 . S
C1949 C1945 1.408 . S
C1949 C1948 1.404 . S
C1949 H1961 0.930 . S
C1950 C1946 1.524 . S
C1950 H1962 0.956 . S
C1950 H1963 0.961 . S
C1950 H1964 0.961 . S
C1951 C1948 1.539 . S
C1951 H1965 0.958 . S
C1951 H1966 0.961 . S
C1951 H1967 0.960 . S
H1952 C1936 0.931 . S
H1953 C1941 0.929 1_565 S
H1954 C1942 0.960 . S
H1955 C1942 0.962 . S
H1956 C1942 0.960 . S
H1957 C1943 0.961 . S
H1958 C1943 0.961 . S
H1959 C1943 0.961 1_545 S
H1960 C1944 0.931 . S
H1961 C1949 0.930 . S
H1962 C1950 0.956 . S
H1963 C1950 0.961 . S
H1964 C1950 0.961 . S
H1965 C1951 0.958 . S
H1966 C1951 0.961 . S
H1967 C1951 0.960 . S
C945 C5 1.464 . S
C953 C418 1.480 . S
C977 C64 1.484 . S
C985 C241 1.470 . S
C1009 C123 1.455 . S
C1017 C300 1.477 . S
C1041 C182 1.454 . S
C1049 C359 1.476 . S
C1073 C477 1.461 . S
C1081 C890 1.467 . S
C1105 C713 1.479 . S
C1113 C536 1.469 . S
C1137 C595 1.458 . S
C1145 C772 1.468 . S
C1169 C654 1.476 . S
C1177 C831 1.468 . S
C1201 C52 1.587 . S
C1209 C564 1.596 . S
C1233 C111 1.601 . S
C1241 C623 1.591 . S
C1265 C682 1.599 . S
C1273 C170 1.594 . S
C1297 C229 1.590 . S
C1305 C505 1.599 . S
C1329 C288 1.597 . S
C1337 C918 1.591 . S
C1361 C741 1.599 . S
C1369 C347 1.596 . S
C1393 C800 1.582 . S
C1401 C406 1.599 . S
C1425 C859 1.585 . S
C1433 C465 1.598 . S
C1457 C92 1.598 . S
C1465 C524 1.594 . S
C1489 C151 1.582 . S
C1497 C583 1.598 . S
C1521 C642 1.589 . S
C1529 C210 1.594 . S
C1553 C33 1.581 . S
C1561 C701 1.599 . S
C1585 C760 1.591 . S
C1593 C446 1.592 . S
C1617 C819 1.594 . S
C1625 C269 1.598 . S
C1649 C328 1.582 . S
C1657 C878 1.600 . S
C1681 C387 1.599 . S
C1689 C937 1.597 . S
C1713 C3 1.653 . S
C1721 C239 1.656 . S
C1745 C298 1.662 . S
C1753 C62 1.660 . S
C1777 C121 1.654 . S
C1785 C357 1.657 . S
C1809 C416 1.663 . S
C1817 C180 1.660 . S
C1841 C475 1.669 . S
C1849 C711 1.663 . S
C1873 C770 1.654 . S
C1881 C534 1.654 . S
C1905 C829 1.636 . S
C1913 C593 1.648 . S
C1937 C888 1.635 . S
C1945 C652 1.650 . S
