# Generated by pormake.
# Topology sra, (4)-cn, num edge types: 1
# Building blocks:
#     Node 0, Type 0, BuildingBlock: TATPOV_clean_sbu_0, # of connection points: 4
#     Node 1, Type 0, BuildingBlock: TATPOV_clean_sbu_0, # of connection points: 4
#     Node 2, Type 0, BuildingBlock: TATPOV_clean_sbu_0, # of connection points: 4
#     Node 3, Type 0, BuildingBlock: TATPOV_clean_sbu_0, # of connection points: 4
#     Node 4, Type 0, BuildingBlock: TATPOV_clean_sbu_0, # of connection points: 4
#     Node 5, Type 0, BuildingBlock: TATPOV_clean_sbu_0, # of connection points: 4
#     Node 6, Type 0, BuildingBlock: TATPOV_clean_sbu_0, # of connection points: 4
#     Node 7, Type 0, BuildingBlock: TATPOV_clean_sbu_0, # of connection points: 4
#     Edge 8, Type (0, 0), BuildingBlock: XUDNAN_clean_linker_2, # of connection points: 2
#     Edge 9, Type (0, 0), BuildingBlock: XUDNAN_clean_linker_2, # of connection points: 2
#     Edge 10, Type (0, 0), BuildingBlock: XUDNAN_clean_linker_2, # of connection points: 2
#     Edge 11, Type (0, 0), BuildingBlock: XUDNAN_clean_linker_2, # of connection points: 2
#     Edge 12, Type (0, 0), BuildingBlock: XUDNAN_clean_linker_2, # of connection points: 2
#     Edge 13, Type (0, 0), BuildingBlock: XUDNAN_clean_linker_2, # of connection points: 2
#     Edge 14, Type (0, 0), BuildingBlock: XUDNAN_clean_linker_2, # of connection points: 2
#     Edge 15, Type (0, 0), BuildingBlock: XUDNAN_clean_linker_2, # of connection points: 2
#     Edge 16, Type (0, 0), BuildingBlock: XUDNAN_clean_linker_2, # of connection points: 2
#     Edge 17, Type (0, 0), BuildingBlock: XUDNAN_clean_linker_2, # of connection points: 2
#     Edge 18, Type (0, 0), BuildingBlock: XUDNAN_clean_linker_2, # of connection points: 2
#     Edge 19, Type (0, 0), BuildingBlock: XUDNAN_clean_linker_2, # of connection points: 2
#     Edge 20, Type (0, 0), BuildingBlock: XUDNAN_clean_linker_2, # of connection points: 2
#     Edge 21, Type (0, 0), BuildingBlock: XUDNAN_clean_linker_2, # of connection points: 2
#     Edge 22, Type (0, 0), BuildingBlock: XUDNAN_clean_linker_2, # of connection points: 2
#     Edge 23, Type (0, 0), BuildingBlock: XUDNAN_clean_linker_2, # of connection points: 2
# Relax obj value: 0.055
# Max RMSD: 0.069
# Mean RMSD: 0.069
data_MOF--net-sra--node1-TATPOV_clean_sbu_0--edge1-XUDNAN_clean_linker_2
_symmetry_space_group_name_H-M    P1
_symmetry_Int_Tables_number       1
_symmetry_cell_setting            triclinic
loop_
_symmetry_equiv_pos_as_xyz
'x, y, z'
_cell_length_a     27.361357
_cell_length_b     42.925294
_cell_length_c     40.806129
_cell_angle_alpha  90.027684
_cell_angle_beta   89.801417
_cell_angle_gamma 89.980862
loop_
_atom_site_label
_atom_site_type_symbol
_atom_site_fract_x
_atom_site_fract_y
_atom_site_fract_z
_atom_type_partial_charge
Zn0 Zn 0.02086 0.10334 0.25039 0.0
Zn1 Zn 0.01703 0.08372 0.18846 0.0
O2 O 0.08361 0.06708 0.20513 0.0
O3 O 0.08585 0.08317 0.25636 0.0
O4 O 0.01218 0.06673 0.14189 0.0
O5 O 0.96074 0.08008 0.26285 0.0
O6 O 0.95684 0.064 0.21171 0.0
C7 C 0.10532 0.06861 0.23274 0.0
C8 C 0.01296 0.15386 0.20429 0.0
O9 O 0.0136 0.13203 0.183 0.0
O10 O 0.01558 0.14734 0.23449 0.0
C11 C 0.97089 0.06681 0.12761 0.0
O12 O 0.93303 0.07865 0.14312 0.0
C13 C 0.93955 0.06447 0.24081 0.0
Zn14 Zn -0.01605 0.43439 0.24525 0.0
Zn15 Zn -0.00391 0.45151 0.18381 0.0
O16 O 0.92803 0.46894 0.19794 0.0
O17 O 0.91955 0.4548 0.24945 0.0
O18 O 0.0023 0.46731 0.13686 0.0
O19 O 0.04244 0.45769 0.25987 0.0
O20 O 0.05654 0.46989 0.20824 0.0
C21 C 0.90311 0.46855 0.22446 0.0
C22 C -0.00565 0.38207 0.2013 0.0
O23 O -0.002 0.40321 0.17945 0.0
O24 O -0.01143 0.38964 0.23107 0.0
C25 C 0.96674 0.46204 0.11761 0.0
O26 O 0.92915 0.44615 0.12874 0.0
C27 C 0.06863 0.47091 0.23846 0.0
Zn28 Zn 0.96677 0.92851 0.78057 0.0
Zn29 Zn 0.96375 0.94591 0.84217 0.0
O30 O 0.02666 0.96717 0.82408 0.0
O31 O 0.02176 0.95743 0.77117 0.0
O32 O 0.95587 0.96282 0.88851 0.0
O33 O 0.89962 0.94249 0.77031 0.0
O34 O 0.8982 0.96015 0.8209 0.0
C35 C 0.04287 0.97059 0.79492 0.0
C36 C -0.02161 0.87707 0.82555 0.0
O37 O 0.97112 0.89787 0.84742 0.0
O38 O -0.02053 0.88468 0.79557 0.0
C39 C -0.01025 0.96925 0.90875 0.0
O40 O 0.03546 0.96412 0.9004 0.0
C41 C 0.87777 0.95694 0.79299 0.0
Zn42 Zn 0.01837 0.60038 0.77174 0.0
Zn43 Zn 0.00309 0.5794 0.83151 0.0
O44 O 0.94388 0.56421 0.8038 0.0
O45 O 0.95901 0.58035 0.75356 0.0
O46 O -0.01218 0.56045 0.8761 0.0
O47 O 0.08072 0.57741 0.76806 0.0
O48 O 0.07017 0.55978 0.81825 0.0
C49 C 0.93214 0.56578 0.77357 0.0
C50 C 0.00976 0.64987 0.8191 0.0
O51 O 0.00399 0.62747 0.83935 0.0
O52 O 0.01651 0.64406 0.789 0.0
C53 C 0.01657 0.55879 0.90052 0.0
O54 O 0.06069 0.57065 0.8981 0.0
C55 C 0.09529 0.56103 0.79182 0.0
Zn56 Zn 0.50653 0.58931 0.74312 0.0
Zn57 Zn 0.49796 0.57151 0.6817 0.0
O58 O 0.56732 0.55709 0.69632 0.0
O59 O 0.57406 0.57338 0.74723 0.0
O60 O 0.49388 0.555 0.63487 0.0
O61 O 0.45216 0.56216 0.75785 0.0
O62 O 0.43926 0.55052 0.70601 0.0
C63 C 0.59207 0.55957 0.72266 0.0
C64 C 0.48917 0.64076 0.69916 0.0
O65 O 0.49081 0.61964 0.67714 0.0
O66 O 0.49393 0.63343 0.72904 0.0
C67 C 0.53023 0.55932 0.61585 0.0
O68 O 0.56798 0.575 0.62691 0.0
C69 C 0.42743 0.54824 0.73625 0.0
Zn70 Zn 0.45868 0.91936 0.74972 0.0
Zn71 Zn 0.45967 0.93868 0.6883 0.0
O72 O 0.3962 0.95638 0.70987 0.0
O73 O 0.39477 0.93848 0.76035 0.0
O74 O 0.45363 0.95623 0.64217 0.0
O75 O 0.51857 0.94407 0.75899 0.0
O76 O 0.52422 0.9571 0.70682 0.0
C77 C 0.37543 0.95446 0.73789 0.0
C78 C 0.46249 0.86858 0.70353 0.0
O79 O 0.46132 0.8904 0.68227 0.0
O80 O 0.46233 0.87522 0.73377 0.0
C81 C 0.48753 0.96094 0.6213 0.0
O82 O 0.53271 0.95347 0.62873 0.0
C83 C 0.54076 0.95793 0.73603 0.0
Zn84 Zn 0.48431 0.41794 0.27099 0.0
Zn85 Zn 0.49737 0.43806 0.33132 0.0
O86 O 0.55477 0.45622 0.30363 0.0
O87 O 0.54063 0.44145 0.25287 0.0
O88 O 0.51183 0.4564 0.3763 0.0
O89 O 0.41918 0.43783 0.26882 0.0
O90 O 0.42889 0.45573 0.31896 0.0
C91 C 0.56623 0.45634 0.27325 0.0
C92 C 0.49832 0.36774 0.3167 0.0
O93 O 0.50025 0.38976 0.33773 0.0
O94 O 0.49229 0.37406 0.28668 0.0
C95 C 0.4821 0.45966 0.40016 0.0
O96 O 0.43686 0.4499 0.39701 0.0
C97 C 0.40353 0.45359 0.29283 0.0
Zn98 Zn 0.52773 0.08659 0.27784 0.0
Zn99 Zn 0.51981 0.07031 0.33986 0.0
O100 O 0.45713 0.05299 0.31699 0.0
O101 O 0.4667 0.06536 0.26496 0.0
O102 O 0.51302 0.05468 0.3868 0.0
O103 O 0.58917 0.06307 0.27191 0.0
O104 O 0.5862 0.05103 0.32441 0.0
C105 C 0.44215 0.05241 0.28737 0.0
C106 C 0.52339 0.13952 0.32164 0.0
O107 O 0.52024 0.11866 0.34384 0.0
O108 O 0.52728 0.13154 0.29185 0.0
C109 C 0.47202 0.05642 0.4015 0.0
O110 O 0.43489 0.06914 0.38616 0.0
C111 C 0.60734 0.04958 0.2965 0.0
H112 H -0.01876 0.33326 0.2428 0.0
H113 H 0.01273 0.35455 0.14094 0.0
H114 H 0.0181 0.29788 0.12894 0.0
H115 H 0.06276 0.27042 0.25081 0.0
H116 H 0.02285 0.24853 0.27743 0.0
H117 H 0.01952 0.29037 0.27684 0.0
H118 H 0.92703 0.28738 0.26341 0.0
H119 H 0.93006 0.24548 0.26397 0.0
H120 H 0.90709 0.26535 0.2283 0.0
H121 H 0.0219 0.2372 0.12954 0.0
H122 H 0.0252 0.18072 0.14294 0.0
H123 H -0.00852 0.20242 0.24438 0.0
C124 C -0.0109 0.32623 0.21783 0.0
C125 C -0.00336 0.34845 0.19282 0.0
C126 C 0.00677 0.33797 0.16054 0.0
C127 C 0.00984 0.30583 0.15351 0.0
C128 C 0.00246 0.28459 0.17901 0.0
C129 C -0.0078 0.2946 0.21049 0.0
C130 C -0.01325 0.26772 0.23401 0.0
C131 C 0.02527 0.26936 0.26137 0.0
C132 C 0.93463 0.26641 0.24825 0.0
C133 C -0.00371 0.2408 0.21112 0.0
C134 C 0.00492 0.25066 0.17939 0.0
C135 C 0.01506 0.22936 0.15433 0.0
C136 C 0.0168 0.19734 0.16212 0.0
C137 C 0.00887 0.18711 0.19473 0.0
C138 C -0.00193 0.20932 0.21923 0.0
H139 H 0.00996 0.83105 0.78509 0.0
H140 H 0.96186 0.84747 0.88503 0.0
H141 H 0.96882 0.79074 0.89639 0.0
H142 H 0.94502 0.76209 0.77228 0.0
H143 H -0.00788 0.7443 0.74759 0.0
H144 H -0.01353 0.78601 0.74883 0.0
H145 H 0.07688 0.79071 0.76712 0.0
H146 H 0.08286 0.74895 0.76588 0.0
H147 H 0.09725 0.76988 0.80291 0.0
H148 H 0.97673 0.73023 0.89461 0.0
H149 H -0.01478 0.67425 0.88004 0.0
H150 H 0.02838 0.7007 0.78149 0.0
C151 C 0.00118 0.82295 0.80954 0.0
C152 C -0.0148 0.84375 0.83414 0.0
C153 C 0.97432 0.83197 0.86579 0.0
C154 C -0.02186 0.79979 0.87242 0.0
C155 C -0.00668 0.77988 0.84723 0.0
C156 C 0.00494 0.79128 0.8165 0.0
C157 C 0.01875 0.76556 0.79303 0.0
C158 C -0.01652 0.76443 0.76372 0.0
C159 C 0.07211 0.76899 0.78158 0.0
C160 C 0.0124 0.73763 0.81502 0.0
C161 C -0.00202 0.74604 0.84629 0.0
C162 C -0.01159 0.72354 0.87023 0.0
C163 C -0.00667 0.6918 0.86178 0.0
C164 C 0.00745 0.68298 0.82962 0.0
C165 C 0.01756 0.70643 0.80632 0.0
H166 H 0.46913 0.68794 0.74146 0.0
H167 H 0.49377 0.66928 0.63822 0.0
H168 H 0.48644 0.72592 0.62654 0.0
H169 H 0.38076 0.74982 0.73109 0.0
H170 H 0.40351 0.7712 0.76586 0.0
H171 H 0.40821 0.72937 0.76493 0.0
H172 H 0.50177 0.7334 0.77412 0.0
H173 H 0.4974 0.77519 0.77497 0.0
H174 H 0.53826 0.75644 0.74638 0.0
H175 H 0.47994 0.78651 0.62773 0.0
H176 H 0.47444 0.84281 0.64158 0.0
H177 H 0.45432 0.81861 0.74398 0.0
C178 C 0.47275 0.69554 0.71627 0.0
C179 C 0.48218 0.67412 0.69076 0.0
C180 C 0.4864 0.68526 0.65818 0.0
C181 C 0.48234 0.71739 0.65135 0.0
C182 C 0.47368 0.7379 0.67735 0.0
C183 C 0.46867 0.72717 0.70912 0.0
C184 C 0.46071 0.75343 0.73312 0.0
C185 C 0.4103 0.75079 0.74972 0.0
C186 C 0.502 0.75468 0.75863 0.0
C187 C 0.46283 0.78091 0.71015 0.0
C188 C 0.47001 0.7718 0.67801 0.0
C189 C 0.47405 0.79375 0.65284 0.0
C190 C 0.47089 0.82567 0.66091 0.0
C191 C 0.46406 0.83523 0.69387 0.0
C192 C 0.45967 0.8123 0.71852 0.0
H193 H 0.5082 0.31832 0.27567 0.0
H194 H 0.50041 0.34171 0.37902 0.0
H195 H 0.50736 0.28546 0.39284 0.0
H196 H 0.43716 0.24954 0.27912 0.0
H197 H 0.47342 0.22962 0.24868 0.0
H198 H 0.46876 0.27142 0.24786 0.0
H199 H 0.56326 0.27587 0.24995 0.0
H200 H 0.56822 0.23406 0.25076 0.0
H201 H 0.59619 0.25701 0.28259 0.0
H202 H 0.51298 0.22475 0.3941 0.0
H203 H 0.5182 0.16797 0.38268 0.0
H204 H 0.52326 0.18771 0.27843 0.0
C205 C 0.50795 0.31186 0.30132 0.0
C206 C 0.50355 0.33451 0.32626 0.0
C207 C 0.50374 0.32477 0.35946 0.0
C208 C 0.50763 0.29288 0.3675 0.0
C209 C 0.5116 0.27117 0.34206 0.0
C210 C 0.51198 0.28051 0.30966 0.0
C211 C 0.51638 0.25322 0.28652 0.0
C212 C 0.47124 0.25082 0.26425 0.0
C213 C 0.56384 0.25517 0.26628 0.0
C214 C 0.51816 0.22679 0.3108 0.0
C215 C 0.51535 0.23728 0.34278 0.0
C216 C 0.51544 0.21644 0.3691 0.0
C217 C 0.5184 0.18423 0.36241 0.0
C218 C 0.52132 0.17327 0.32967 0.0
C219 C 0.52134 0.19509 0.30379 0.0
H220 H 0.35796 0.05566 0.32307 0.0
H221 H 0.41798 0.02299 0.23091 0.0
H222 H 0.33478 0.0142 0.20988 0.0
H223 H 0.24138 1.00548 0.32226 0.0
H224 H 0.20642 0.03728 0.33918 0.0
H225 H 0.2697 0.03241 0.35028 0.0
H226 H 0.28721 0.089 0.33165 0.0
H227 H 0.22453 0.09392 0.31997 0.0
H228 H 0.27244 0.1005 0.29035 0.0
H229 H 0.24753 0.01999 0.19462 0.0
H230 H 0.16257 0.03821 0.18725 0.0
H231 H 0.15906 0.06806 0.28891 0.0
C232 C 0.35339 0.04509 0.29917 0.0
C233 C 0.39406 0.03956 0.27874 0.0
C234 C 0.38704 0.02704 0.247 0.0
C235 C 0.33995 0.0219 0.23489 0.0
C236 C 0.30029 0.02935 0.25486 0.0
C237 C 0.30646 0.04028 0.28655 0.0
C238 C 0.2584 0.05116 0.30102 0.0
C239 C 0.24307 0.03033 0.32989 0.0
C240 C 0.26083 0.08568 0.31132 0.0
C241 C 0.22508 0.04649 0.2719 0.0
C242 C 0.24956 0.03321 0.24576 0.0
C243 C 0.22755 0.02965 0.21518 0.0
C244 C 0.17939 0.04023 0.21114 0.0
C245 C 0.15412 0.05452 0.23747 0.0
C246 C 0.17714 0.05697 0.26834 0.0
H247 H 0.64779 0.47055 0.30868 0.0
H248 H 0.5867 0.47516 0.21093 0.0
H249 H 0.66674 0.49124 0.18897 0.0
H250 H 0.74381 0.53506 0.29712 0.0
H251 H 0.78726 0.5133 0.32106 0.0
H252 H 0.72292 0.51094 0.33049 0.0
H253 H 0.7268 0.45082 0.32506 0.0
H254 H 0.79071 0.45299 0.31553 0.0
H255 H 0.74961 0.43382 0.28758 0.0
H256 H 0.75509 0.49522 0.17587 0.0
H257 H 0.84404 0.48552 0.17308 0.0
H258 H 0.84823 0.47841 0.27908 0.0
C259 C 0.65086 0.47631 0.28293 0.0
C260 C 0.61117 0.47178 0.26155 0.0
C261 C 0.61676 0.47854 0.22777 0.0
C262 C 0.66201 0.48793 0.21508 0.0
C263 C 0.70124 0.49069 0.23651 0.0
C264 C 0.696 0.48539 0.26984 0.0
C265 C 0.74508 0.48492 0.28676 0.0
C266 C 0.75005 0.51272 0.31024 0.0
C267 C 0.75351 0.45379 0.30474 0.0
C268 C 0.77871 0.48842 0.25747 0.0
C269 C 0.75284 0.49271 0.22882 0.0
C270 C 0.7759 0.49273 0.19822 0.0
C271 C 0.82643 0.48717 0.19683 0.0
C272 C 0.85296 0.4812 0.22584 0.0
C273 C 0.82896 0.48314 0.25648 0.0
H274 H 0.12561 0.9665 0.83117 0.0
H275 H 0.06656 1.00574 0.74201 0.0
H276 H 0.14995 0.01621 0.72186 0.0
H277 H 0.24453 0.01596 0.83365 0.0
H278 H 0.27814 0.98252 0.84793 0.0
H279 H 0.21521 0.98785 0.85999 0.0
H280 H 0.19513 0.93287 0.8377 0.0
H281 H 0.25732 0.92756 0.82491 0.0
H282 H 0.20871 0.92375 0.79548 0.0
H283 H 0.2365 1.00968 0.70538 0.0
H284 H 0.31977 0.98936 0.69546 0.0
H285 H 0.32305 0.95336 0.79481 0.0
C286 C 0.13043 0.97905 0.80837 0.0
C287 C 0.09001 0.98581 0.78833 0.0
C288 C 0.09731 1.00083 0.75785 0.0
C289 C 0.14455 1.00688 0.74623 0.0
C290 C 0.18403 0.99783 0.76546 0.0
C291 C 0.17752 0.98473 0.79622 0.0
C292 C 0.22518 0.97205 0.80942 0.0
C293 C 0.24175 0.99072 0.83953 0.0
C294 C 0.22131 0.937 0.8173 0.0
C295 C 0.25845 0.97795 0.78038 0.0
C296 C 0.23449 0.99356 0.75559 0.0
C297 C 0.25616 0.99828 0.72496 0.0
C298 C 0.30333 0.98646 0.71945 0.0
C299 C 0.32796 0.96981 0.74435 0.0
C300 C 0.30546 0.96627 0.77536 0.0
H301 H 0.64705 0.55326 0.77763 0.0
H302 H 0.65264 0.54191 0.67201 0.0
H303 H 0.74155 0.5321 0.67538 0.0
H304 H 0.748 0.59678 0.7847 0.0
H305 H 0.76931 0.58071 0.82287 0.0
H306 H 0.70542 0.57951 0.8132 0.0
H307 H 0.70494 0.51957 0.82083 0.0
H308 H 0.76908 0.52059 0.83079 0.0
H309 H 0.74767 0.49589 0.79811 0.0
H310 H 0.8302 0.53436 0.68891 0.0
H311 H 0.91123 0.54734 0.71133 0.0
H312 H 0.84796 0.55639 0.80843 0.0
C313 C 0.66665 0.54777 0.75526 0.0
C314 C 0.64302 0.54836 0.72453 0.0
C315 C 0.66998 0.54135 0.69582 0.0
C316 C 0.72045 0.53568 0.69755 0.0
C317 C 0.74298 0.53658 0.72818 0.0
C318 C 0.71675 0.54202 0.7566 0.0
C319 C 0.75001 0.54564 0.78593 0.0
C320 C 0.74275 0.57755 0.80261 0.0
C321 C 0.74247 0.51882 0.81036 0.0
C322 C 0.79932 0.54337 0.76932 0.0
C323 C 0.79449 0.5375 0.73611 0.0
C324 C 0.83452 0.53811 0.71497 0.0
C325 C 0.88034 0.54568 0.72791 0.0
C326 C 0.88574 0.55259 0.76166 0.0
C327 C 0.84499 0.55042 0.78272 0.0
H328 H 0.62551 0.95505 0.70087 0.0
H329 H 0.56175 0.99162 0.79021 0.0
H330 H 0.64384 1.00462 0.81083 0.0
H331 H 0.71432 0.91546 0.73715 0.0
H332 H 0.76203 0.92168 0.70729 0.0
H333 H 0.69918 0.92366 0.69504 0.0
H334 H 0.71226 0.97938 0.67233 0.0
H335 H 0.7757 0.97743 0.68402 0.0
H336 H 0.73791 1.00905 0.6984 0.0
H337 H 0.73107 1.00287 0.82678 0.0
H338 H 0.81728 0.98815 0.83585 0.0
H339 H 0.8249 0.95177 0.73666 0.0
C340 C 0.62895 0.96733 0.72394 0.0
C341 C 0.58764 0.97286 0.74378 0.0
C342 C 0.59321 0.98761 0.77456 0.0
C343 C 0.63964 0.99513 0.78643 0.0
C344 C 0.68011 0.98774 0.76718 0.0
C345 C 0.67528 0.97454 0.73635 0.0
C346 C 0.72439 0.96438 0.7229 0.0
C347 C 0.72497 0.92923 0.71517 0.0
C348 C 0.73839 0.98373 0.69262 0.0
C349 C 0.75688 0.97211 0.75174 0.0
C350 C 0.73094 0.98624 0.77673 0.0
C351 C 0.75214 0.99256 0.80708 0.0
C352 C 0.80103 0.98395 0.8121 0.0
C353 C 0.82788 0.96887 0.78699 0.0
C354 C 0.80559 0.96357 0.75627 0.0
H355 H 0.34364 0.54187 0.70094 0.0
H356 H 0.40725 0.52302 0.79594 0.0
H357 H 0.32548 0.51214 0.81855 0.0
H358 H 0.25439 0.58544 0.72746 0.0
H359 H 0.20706 0.57318 0.69967 0.0
H360 H 0.26993 0.56923 0.68798 0.0
H361 H 0.2579 0.51014 0.67793 0.0
H362 H 0.19436 0.51395 0.68914 0.0
H363 H 0.23254 0.48608 0.70993 0.0
H364 H 0.23795 0.51703 0.83417 0.0
H365 H 0.15271 0.53554 0.84036 0.0
H366 H 0.14568 0.55109 0.73545 0.0
C367 C 0.34046 0.53374 0.72597 0.0
C368 C 0.38156 0.53307 0.74663 0.0
C369 C 0.37606 0.5235 0.77966 0.0
C370 C 0.32974 0.51715 0.79271 0.0
C371 C 0.28931 0.52017 0.77233 0.0
C372 C 0.29428 0.52766 0.73943 0.0
C373 C 0.24519 0.53469 0.7242 0.0
C374 C 0.24413 0.56757 0.70898 0.0
C375 C 0.2317 0.50972 0.6988 0.0
C376 C 0.21263 0.53253 0.75415 0.0
C377 C 0.23831 0.52322 0.78152 0.0
C378 C 0.21705 0.52342 0.81273 0.0
C379 C 0.1687 0.53407 0.81609 0.0
C380 C 0.14268 0.5448 0.78843 0.0
C381 C 0.16456 0.54289 0.75707 0.0
H382 H 0.689 0.05776 0.33324 0.0
H383 H 0.63298 1.01037 0.24766 0.0
H384 H 0.71698 0.99866 0.22954 0.0
H385 H 0.77279 0.09757 0.29472 0.0
H386 H 0.82069 0.09654 0.32491 0.0
H387 H 0.75826 0.092 0.33746 0.0
H388 H 0.77857 0.03926 0.36502 0.0
H389 H 0.84169 0.04388 0.3531 0.0
H390 H 0.80878 1.00918 0.34169 0.0
H391 H 0.80315 1.00476 0.21313 0.0
H392 H 0.88573 0.02533 0.20167 0.0
H393 H 0.88725 0.06903 0.2976 0.0
C394 C 0.6947 0.04323 0.31186 0.0
C395 C 0.65497 0.03437 0.29212 0.0
C396 C 0.66327 0.01682 0.2633 0.0
C397 C 0.71084 1.01006 0.25285 0.0
C398 C 0.74968 0.02099 0.27157 0.0
C399 C 0.74222 0.03673 0.30086 0.0
C400 C 0.78946 0.05074 0.31327 0.0
C401 C 0.78499 0.0863 0.31781 0.0
C402 C 0.80558 0.0348 0.34516 0.0
C403 C 0.82348 0.04256 0.28521 0.0
C404 C 0.80025 0.02472 0.2618 0.0
C405 C 0.82233 0.01784 0.23176 0.0
C406 C 0.8691 0.02981 0.22534 0.0
C407 C 0.89305 0.04862 0.24879 0.0
C408 C 0.87029 0.05426 0.27938 0.0
H409 H 0.15339 0.47406 0.20325 0.0
H410 H 0.0905 0.49485 0.29835 0.0
H411 H 0.17285 0.50324 0.32089 0.0
H412 H 0.24061 0.42807 0.2302 0.0
H413 H 0.28847 0.43916 0.20207 0.0
H414 H 0.22575 0.44417 0.19064 0.0
H415 H 0.24051 0.5029 0.17989 0.0
H416 H 0.30386 0.49801 0.19081 0.0
H417 H 0.26702 0.52679 0.21153 0.0
H418 H 0.26048 0.49718 0.33611 0.0
H419 H 0.34584 0.47876 0.34172 0.0
H420 H 0.35148 0.46158 0.23697 0.0
C421 C 0.15698 0.48201 0.22832 0.0
C422 C 0.1158 0.48406 0.24899 0.0
C423 C 0.12176 0.49333 0.28207 0.0
C424 C 0.1684 0.49826 0.29508 0.0
C425 C 0.20869 0.49407 0.27463 0.0
C426 C 0.20343 0.48666 0.24175 0.0
C427 C 0.25215 0.47859 0.22634 0.0
C428 C 0.25167 0.44555 0.21148 0.0
C429 C 0.26675 0.50304 0.20062 0.0
C430 C 0.28481 0.4804 0.25611 0.0
C431 C 0.25953 0.49018 0.28359 0.0
C432 C 0.28106 0.49031 0.3146 0.0
C433 C 0.32944 0.4797 0.31762 0.0
C434 C 0.3552 0.46868 0.28983 0.0
C435 C 0.33283 0.46995 0.2587 0.0
H436 H 0.0418 0.04241 0.08641 0.0
H437 H 0.88577 0.05988 0.09366 0.0
H438 H 0.87396 0.03641 0.03918 0.0
H439 H 0.05275 0.05955 0.99999 0.0
H440 H 0.09716 0.02938 0.99227 0.0
H441 H 0.09363 0.04738 0.03209 0.0
H442 H 0.08201 0.99317 0.05886 0.0
H443 H 0.08538 0.975 0.01911 0.0
H444 H 0.03309 0.9683 0.04514 0.0
H445 H 0.8784 1.01075 0.98423 0.0
H446 H 0.89921 0.98582 0.93157 0.0
H447 H 0.0525 0.98523 0.95892 0.0
C448 C 0.00516 0.04131 0.07653 0.0
C449 C 0.9647 0.05302 0.09445 0.0
C450 C 0.91739 0.05115 0.08053 0.0
C451 C 0.91025 0.0378 0.04955 0.0
C452 C 0.95075 0.02643 0.03261 0.0
C453 C -0.00267 0.02812 0.04548 0.0
C454 C 0.03457 0.01435 0.02189 0.0
C455 C 0.07172 0.03915 1.01091 0.0
C456 C 0.06027 0.98602 0.03717 0.0
C457 C 0.00159 1.00467 0.99383 0.0
C458 C 0.95337 1.01179 1.00063 0.0
C459 C 0.91605 1.00508 0.9786 0.0
C460 C 0.92828 0.99086 0.94872 0.0
C461 C 0.97751 0.98352 0.94097 0.0
C462 C 0.01453 0.99051 0.96402 0.0
H463 H 0.06745 0.55194 0.95846 0.0
H464 H 0.92929 0.52956 0.91192 0.0
H465 H 0.90248 0.50241 0.96205 0.0
H466 H 0.08097 0.47961 1.00226 0.0
H467 H 0.10657 0.49741 0.03834 0.0
H468 H 0.11527 0.51533 0.99884 0.0
H469 H 0.07775 0.56669 0.02081 0.0
H470 H 0.06903 0.54895 0.0604 0.0
H471 H 0.01785 0.5661 0.03935 0.0
H472 H 0.89057 0.47725 0.01664 0.0
H473 H 0.89339 0.45656 0.07285 0.0
H474 H 0.03884 0.4953 0.08506 0.0
C475 C 0.03153 0.54137 0.9588 0.0
C476 C 0.00052 0.54293 0.93111 0.0
C477 C 0.95377 0.52877 0.9327 0.0
C478 C 0.93818 0.51323 0.9611 0.0
C479 C 0.96963 0.51204 0.98784 0.0
C480 C 0.01526 0.52578 0.98706 0.0
C481 C 0.04171 0.52114 0.01936 0.0
C482 C 0.08892 0.50224 0.01439 0.0
C483 C 0.05219 0.55259 0.03596 0.0
C484 C 0.0038 0.50261 0.03836 0.0
C485 C 0.96258 0.49762 0.01961 0.0
C486 C 0.92262 0.48104 0.03158 0.0
C487 C 0.92465 0.46934 0.06361 0.0
C488 C 0.96632 0.47425 0.08351 0.0
C489 C 0.00644 0.49112 0.07055 0.0
H490 H 0.42923 0.46962 0.45705 0.0
H491 H 0.57167 0.4853 0.41272 0.0
H492 H 0.59865 0.51234 0.46276 0.0
H493 H 0.42079 0.54318 0.49894 0.0
H494 H 0.39164 0.52731 0.53492 0.0
H495 H 0.38321 0.50883 0.4957 0.0
H496 H 0.41442 0.45661 0.51958 0.0
H497 H 0.42283 0.47491 0.55889 0.0
H498 H 0.47328 0.45526 0.53926 0.0
H499 H 0.61014 0.53845 0.51692 0.0
H500 H 0.60633 0.56076 0.57247 0.0
H501 H 0.45692 0.52793 0.58281 0.0
C502 C 0.46614 0.47867 0.45787 0.0
C503 C 0.49829 0.47529 0.4308 0.0
C504 C 0.5463 0.4875 0.43301 0.0
C505 C 0.562 0.50297 0.46137 0.0
C506 C 0.5294 0.50601 0.48747 0.0
C507 C 0.48254 0.49413 0.48611 0.0
C508 C 0.45496 0.50059 0.51777 0.0
C509 C 0.40999 0.52121 0.51144 0.0
C510 C 0.44054 0.47002 0.53488 0.0
C511 C 0.49363 0.51802 0.53706 0.0
C512 C 0.53622 0.52092 0.51901 0.0
C513 C 0.57703 0.53628 0.53132 0.0
C514 C 0.57443 0.54893 0.56296 0.0
C515 C 0.53135 0.54614 0.58215 0.0
C516 C 0.49042 0.53045 0.56886 0.0
H517 H 0.55024 0.97371 0.5698 0.0
H518 H 0.3984 0.98156 0.60014 0.0
H519 H 0.37859 1.00682 0.54763 0.0
H520 H 0.55727 0.04735 0.52796 0.0
H521 H 0.59575 0.03301 0.49532 0.0
H522 H 0.59834 0.01526 0.53527 0.0
H523 H 0.57974 0.96138 0.50956 0.0
H524 H 0.5772 0.97896 0.46952 0.0
H525 H 0.52604 0.95665 0.48457 0.0
H526 H 0.37499 0.03182 0.49232 0.0
H527 H 0.38743 0.05385 0.43718 0.0
H528 H 0.54141 0.02966 0.44181 0.0
C529 C 0.5128 0.98068 0.5654 0.0
C530 C 0.4759 0.9756 0.58924 0.0
C531 C 0.42737 0.98511 0.58238 0.0
C532 C 0.41571 0.99954 0.55259 0.0
C533 C 0.45289 1.0043 0.52974 0.0
C534 C 0.50043 0.99509 0.53568 0.0
C535 C 0.53338 1.00293 0.50681 0.0
C536 C 0.57355 0.02601 0.51696 0.0
C537 C 0.55538 0.97321 0.49173 0.0
C538 C 0.49691 0.01802 0.4838 0.0
C539 C 0.45074 0.0186 0.4976 0.0
C540 C 0.41097 0.03146 0.48124 0.0
C541 C 0.41847 0.04397 0.44988 0.0
C542 C 0.46539 0.04354 0.43503 0.0
C543 C 0.50508 0.03037 0.4524 0.0
loop_
_geom_bond_atom_site_label_1
_geom_bond_atom_site_label_2
_geom_bond_distance
_geom_bond_site_symmetry_2
_ccdc_geom_bond_type
Zn0 O3 2.031 . S
Zn0 O5 2.049 1_455 S
Zn0 O10 2.067 1_455 S
Zn1 O2 1.962 . S
Zn1 O4 1.986 1_455 S
Zn1 O6 1.996 1_455 S
Zn1 O9 1.943 . S
O2 Zn1 1.962 . S
O2 C7 1.254 . S
O3 Zn0 2.031 . S
O3 C7 1.269 . S
O4 Zn1 1.986 1_655 S
O4 C11 1.262 1_655 S
O5 Zn0 2.049 1_655 S
O5 C13 1.260 . S
O6 Zn1 1.996 1_655 S
O6 C13 1.257 . S
C7 O2 1.254 . S
C7 O3 1.269 . S
C8 O9 1.249 . S
C8 O10 1.270 1_455 S
O9 Zn1 1.943 . S
O9 C8 1.249 . S
O10 Zn0 2.067 1_655 S
O10 C8 1.270 1_655 S
C11 O4 1.262 1_455 S
C11 O12 1.232 . S
O12 C11 1.232 . S
C13 O5 1.260 . S
C13 O6 1.257 . S
Zn14 O17 2.031 1_455 S
Zn14 O19 2.049 . S
Zn14 O24 2.067 . S
Zn15 O16 1.962 1_455 S
Zn15 O18 1.986 . S
Zn15 O20 1.996 . S
Zn15 O23 1.943 . S
O16 Zn15 1.962 1_655 S
O16 C21 1.254 . S
O17 Zn14 2.031 1_655 S
O17 C21 1.269 . S
O18 Zn15 1.986 . S
O18 C25 1.262 . S
O19 Zn14 2.049 . S
O19 C27 1.260 . S
O20 Zn15 1.996 . S
O20 C27 1.257 . S
C21 O16 1.254 . S
C21 O17 1.269 . S
C22 O23 1.249 . S
C22 O24 1.270 . S
O23 Zn15 1.943 . S
O23 C22 1.249 . S
O24 Zn14 2.067 . S
O24 C22 1.270 . S
C25 O18 1.262 . S
C25 O26 1.232 1_455 S
O26 C25 1.232 1_655 S
C27 O19 1.260 . S
C27 O20 1.257 . S
Zn28 O31 2.031 . S
Zn28 O33 2.049 1_455 S
Zn28 O38 2.067 1_455 S
Zn29 O30 1.962 . S
Zn29 O32 1.986 1_455 S
Zn29 O34 1.996 1_455 S
Zn29 O37 1.943 . S
O30 Zn29 1.962 . S
O30 C35 1.254 . S
O31 Zn28 2.031 . S
O31 C35 1.269 . S
O32 Zn29 1.986 1_655 S
O32 C39 1.262 1_655 S
O33 Zn28 2.049 1_655 S
O33 C41 1.260 . S
O34 Zn29 1.996 1_655 S
O34 C41 1.257 . S
C35 O30 1.254 . S
C35 O31 1.269 . S
C36 O37 1.249 . S
C36 O38 1.270 1_455 S
O37 Zn29 1.943 . S
O37 C36 1.249 . S
O38 Zn28 2.067 1_655 S
O38 C36 1.270 1_655 S
C39 O32 1.262 1_455 S
C39 O40 1.232 . S
O40 C39 1.232 . S
C41 O33 1.260 . S
C41 O34 1.257 . S
Zn42 O45 2.031 1_455 S
Zn42 O47 2.049 . S
Zn42 O52 2.067 . S
Zn43 O44 1.962 1_455 S
Zn43 O46 1.986 . S
Zn43 O48 1.996 . S
Zn43 O51 1.943 . S
O44 Zn43 1.962 1_655 S
O44 C49 1.254 . S
O45 Zn42 2.031 1_655 S
O45 C49 1.269 . S
O46 Zn43 1.986 . S
O46 C53 1.262 . S
O47 Zn42 2.049 . S
O47 C55 1.260 . S
O48 Zn43 1.996 . S
O48 C55 1.257 . S
C49 O44 1.254 . S
C49 O45 1.269 . S
C50 O51 1.249 . S
C50 O52 1.270 . S
O51 Zn43 1.943 . S
O51 C50 1.249 . S
O52 Zn42 2.067 . S
O52 C50 1.270 . S
C53 O46 1.262 . S
C53 O54 1.232 1_455 S
O54 C53 1.232 1_655 S
C55 O47 1.260 . S
C55 O48 1.257 . S
Zn56 O59 2.031 . S
Zn56 O61 2.049 . S
Zn56 O66 2.067 . S
Zn57 O58 1.962 . S
Zn57 O60 1.986 . S
Zn57 O62 1.996 . S
Zn57 O65 1.943 . S
O58 Zn57 1.962 . S
O58 C63 1.254 . S
O59 Zn56 2.031 . S
O59 C63 1.269 . S
O60 Zn57 1.986 . S
O60 C67 1.262 . S
O61 Zn56 2.049 . S
O61 C69 1.260 . S
O62 Zn57 1.996 . S
O62 C69 1.257 . S
C63 O58 1.254 . S
C63 O59 1.269 . S
C64 O65 1.249 . S
C64 O66 1.270 . S
O65 Zn57 1.943 . S
O65 C64 1.249 . S
O66 Zn56 2.067 . S
O66 C64 1.270 . S
C67 O60 1.262 . S
C67 O68 1.232 . S
O68 C67 1.232 . S
C69 O61 1.260 . S
C69 O62 1.257 . S
Zn70 O73 2.031 . S
Zn70 O75 2.049 . S
Zn70 O80 2.067 . S
Zn71 O72 1.962 . S
Zn71 O74 1.986 . S
Zn71 O76 1.996 . S
Zn71 O79 1.943 . S
O72 Zn71 1.962 . S
O72 C77 1.254 . S
O73 Zn70 2.031 . S
O73 C77 1.269 . S
O74 Zn71 1.986 . S
O74 C81 1.262 . S
O75 Zn70 2.049 . S
O75 C83 1.260 . S
O76 Zn71 1.996 . S
O76 C83 1.257 . S
C77 O72 1.254 . S
C77 O73 1.269 . S
C78 O79 1.249 . S
C78 O80 1.270 . S
O79 Zn71 1.943 . S
O79 C78 1.249 . S
O80 Zn70 2.067 . S
O80 C78 1.270 . S
C81 O74 1.262 . S
C81 O82 1.232 . S
O82 C81 1.232 . S
C83 O75 1.260 . S
C83 O76 1.257 . S
Zn84 O87 2.031 . S
Zn84 O89 2.049 . S
Zn84 O94 2.067 . S
Zn85 O86 1.962 . S
Zn85 O88 1.986 . S
Zn85 O90 1.996 . S
Zn85 O93 1.943 . S
O86 Zn85 1.962 . S
O86 C91 1.254 . S
O87 Zn84 2.031 . S
O87 C91 1.269 . S
O88 Zn85 1.986 . S
O88 C95 1.262 . S
O89 Zn84 2.049 . S
O89 C97 1.260 . S
O90 Zn85 1.996 . S
O90 C97 1.257 . S
C91 O86 1.254 . S
C91 O87 1.269 . S
C92 O93 1.249 . S
C92 O94 1.270 . S
O93 Zn85 1.943 . S
O93 C92 1.249 . S
O94 Zn84 2.067 . S
O94 C92 1.270 . S
C95 O88 1.262 . S
C95 O96 1.232 . S
O96 C95 1.232 . S
C97 O89 1.260 . S
C97 O90 1.257 . S
Zn98 O101 2.031 . S
Zn98 O103 2.049 . S
Zn98 O108 2.067 . S
Zn99 O100 1.962 . S
Zn99 O102 1.986 . S
Zn99 O104 1.996 . S
Zn99 O107 1.943 . S
O100 Zn99 1.962 . S
O100 C105 1.254 . S
O101 Zn98 2.031 . S
O101 C105 1.269 . S
O102 Zn99 1.986 . S
O102 C109 1.262 . S
O103 Zn98 2.049 . S
O103 C111 1.260 . S
O104 Zn99 1.996 . S
O104 C111 1.257 . S
C105 O100 1.254 . S
C105 O101 1.269 . S
C106 O107 1.249 . S
C106 O108 1.270 . S
O107 Zn99 1.943 . S
O107 C106 1.249 . S
O108 Zn98 2.067 . S
O108 C106 1.270 . S
C109 O102 1.262 . S
C109 O110 1.232 . S
O110 C109 1.232 . S
C111 O103 1.260 . S
C111 O104 1.257 . S
H112 C124 0.930 1_655 S
H113 C126 0.930 . S
H114 C127 0.930 . S
H115 C131 0.959 . S
H116 C131 0.959 . S
H117 C131 0.961 . S
H118 C132 0.960 . S
H119 C132 0.961 . S
H120 C132 0.959 . S
H121 C135 0.929 . S
H122 C136 0.931 . S
H123 C138 0.930 1_655 S
C124 H112 0.930 1_455 S
C124 C125 1.399 . S
C124 C129 1.399 . S
C125 C124 1.399 . S
C125 C126 1.376 . S
C126 H113 0.930 . S
C126 C125 1.376 . S
C126 C127 1.388 . S
C127 H114 0.930 . S
C127 C126 1.388 . S
C127 C128 1.390 . S
C128 C127 1.390 . S
C128 C129 1.394 . S
C128 C134 1.465 . S
C129 C124 1.399 . S
C129 C128 1.394 . S
C129 C130 1.516 1_455 S
C130 C129 1.516 1_655 S
C130 C131 1.502 . S
C130 C132 1.561 1_655 S
C130 C133 1.526 1_655 S
C131 H115 0.959 . S
C131 H116 0.959 . S
C131 H117 0.961 . S
C131 C130 1.502 . S
C132 H118 0.960 . S
C132 H119 0.961 . S
C132 H120 0.959 . S
C132 C130 1.561 1_455 S
C133 C130 1.526 1_455 S
C133 C134 1.396 . S
C133 C138 1.390 . S
C134 C128 1.465 . S
C134 C133 1.396 . S
C134 C135 1.399 . S
C135 H121 0.929 . S
C135 C134 1.399 . S
C135 C136 1.385 . S
C136 H122 0.931 . S
C136 C135 1.385 . S
C136 C137 1.389 . S
C137 C136 1.389 . S
C137 C138 1.387 . S
C138 H123 0.930 1_455 S
C138 C133 1.390 . S
C138 C137 1.387 . S
H139 C151 0.930 1_655 S
H140 C153 0.930 . S
H141 C154 0.930 . S
H142 C158 0.959 . S
H143 C158 0.959 . S
H144 C158 0.961 . S
H145 C159 0.960 . S
H146 C159 0.961 . S
H147 C159 0.959 . S
H148 C162 0.929 . S
H149 C163 0.931 . S
H150 C165 0.930 1_655 S
C151 H139 0.930 1_455 S
C151 C152 1.399 . S
C151 C156 1.399 . S
C152 C151 1.399 . S
C152 C153 1.376 . S
C153 H140 0.930 . S
C153 C152 1.376 . S
C153 C154 1.388 . S
C154 H141 0.930 . S
C154 C153 1.388 . S
C154 C155 1.390 . S
C155 C154 1.390 . S
C155 C156 1.394 . S
C155 C161 1.465 . S
C156 C151 1.399 . S
C156 C155 1.394 . S
C156 C157 1.516 . S
C157 C156 1.516 . S
C157 C158 1.502 1_455 S
C157 C159 1.561 . S
C157 C160 1.526 . S
C158 H142 0.959 . S
C158 H143 0.959 . S
C158 H144 0.961 . S
C158 C157 1.502 1_655 S
C159 H145 0.960 . S
C159 H146 0.961 . S
C159 H147 0.959 . S
C159 C157 1.561 . S
C160 C157 1.526 . S
C160 C161 1.396 . S
C160 C165 1.390 . S
C161 C155 1.465 . S
C161 C160 1.396 . S
C161 C162 1.399 . S
C162 H148 0.929 . S
C162 C161 1.399 . S
C162 C163 1.385 . S
C163 H149 0.931 . S
C163 C162 1.385 . S
C163 C164 1.389 . S
C164 C163 1.389 . S
C164 C165 1.387 . S
C165 H150 0.930 1_455 S
C165 C160 1.390 . S
C165 C164 1.387 . S
H166 C178 0.930 . S
H167 C180 0.930 . S
H168 C181 0.930 . S
H169 C185 0.959 . S
H170 C185 0.959 . S
H171 C185 0.961 . S
H172 C186 0.960 . S
H173 C186 0.961 . S
H174 C186 0.959 . S
H175 C189 0.929 . S
H176 C190 0.931 . S
H177 C192 0.930 . S
C178 H166 0.930 . S
C178 C179 1.399 . S
C178 C183 1.399 . S
C179 C178 1.399 . S
C179 C180 1.376 . S
C180 H167 0.930 . S
C180 C179 1.376 . S
C180 C181 1.388 . S
C181 H168 0.930 . S
C181 C180 1.388 . S
C181 C182 1.390 . S
C182 C181 1.390 . S
C182 C183 1.394 . S
C182 C188 1.465 . S
C183 C178 1.399 . S
C183 C182 1.394 . S
C183 C184 1.516 . S
C184 C183 1.516 . S
C184 C185 1.502 . S
C184 C186 1.561 . S
C184 C187 1.526 . S
C185 H169 0.959 . S
C185 H170 0.959 . S
C185 H171 0.961 . S
C185 C184 1.502 . S
C186 H172 0.960 . S
C186 H173 0.961 . S
C186 H174 0.959 . S
C186 C184 1.561 . S
C187 C184 1.526 . S
C187 C188 1.396 . S
C187 C192 1.390 . S
C188 C182 1.465 . S
C188 C187 1.396 . S
C188 C189 1.399 . S
C189 H175 0.929 . S
C189 C188 1.399 . S
C189 C190 1.385 . S
C190 H176 0.931 . S
C190 C189 1.385 . S
C190 C191 1.389 . S
C191 C190 1.389 . S
C191 C192 1.387 . S
C192 H177 0.930 . S
C192 C187 1.390 . S
C192 C191 1.387 . S
H193 C205 0.930 . S
H194 C207 0.930 . S
H195 C208 0.930 . S
H196 C212 0.959 . S
H197 C212 0.959 . S
H198 C212 0.961 . S
H199 C213 0.960 . S
H200 C213 0.961 . S
H201 C213 0.959 . S
H202 C216 0.929 . S
H203 C217 0.931 . S
H204 C219 0.930 . S
C205 H193 0.930 . S
C205 C206 1.399 . S
C205 C210 1.399 . S
C206 C205 1.399 . S
C206 C207 1.376 . S
C207 H194 0.930 . S
C207 C206 1.376 . S
C207 C208 1.388 . S
C208 H195 0.930 . S
C208 C207 1.388 . S
C208 C209 1.390 . S
C209 C208 1.390 . S
C209 C210 1.394 . S
C209 C215 1.465 . S
C210 C205 1.399 . S
C210 C209 1.394 . S
C210 C211 1.516 . S
C211 C210 1.516 . S
C211 C212 1.502 . S
C211 C213 1.561 . S
C211 C214 1.526 . S
C212 H196 0.959 . S
C212 H197 0.959 . S
C212 H198 0.961 . S
C212 C211 1.502 . S
C213 H199 0.960 . S
C213 H200 0.961 . S
C213 H201 0.959 . S
C213 C211 1.561 . S
C214 C211 1.526 . S
C214 C215 1.396 . S
C214 C219 1.390 . S
C215 C209 1.465 . S
C215 C214 1.396 . S
C215 C216 1.399 . S
C216 H202 0.929 . S
C216 C215 1.399 . S
C216 C217 1.385 . S
C217 H203 0.931 . S
C217 C216 1.385 . S
C217 C218 1.389 . S
C218 C217 1.389 . S
C218 C219 1.387 . S
C219 H204 0.930 . S
C219 C214 1.390 . S
C219 C218 1.387 . S
H220 C232 0.930 . S
H221 C234 0.930 . S
H222 C235 0.930 . S
H223 C239 0.959 . S
H224 C239 0.972 . S
H225 C239 0.961 . S
H226 C240 0.960 . S
H227 C240 0.961 . S
H228 C240 0.959 . S
H229 C243 0.929 . S
H230 C244 0.931 . S
H231 C246 0.930 . S
C232 H220 0.930 . S
C232 C233 1.399 . S
C232 C237 1.399 . S
C233 C232 1.399 . S
C233 C234 1.376 . S
C234 H221 0.930 . S
C234 C233 1.376 . S
C234 C235 1.388 . S
C235 H222 0.930 . S
C235 C234 1.388 . S
C235 C236 1.390 . S
C236 C235 1.390 . S
C236 C237 1.394 . S
C236 C242 1.465 . S
C237 C232 1.399 . S
C237 C236 1.394 . S
C237 C238 1.516 . S
C238 C237 1.516 . S
C238 C239 1.502 . S
C238 C240 1.561 . S
C238 C241 1.526 . S
C239 H223 0.959 . S
C239 H224 0.972 . S
C239 H225 0.961 . S
C239 C238 1.502 . S
C240 H226 0.960 . S
C240 H227 0.961 . S
C240 H228 0.959 . S
C240 C238 1.561 . S
C241 C238 1.526 . S
C241 C242 1.396 . S
C241 C246 1.390 . S
C242 C236 1.465 . S
C242 C241 1.396 . S
C242 C243 1.399 . S
C243 H229 0.929 . S
C243 C242 1.399 . S
C243 C244 1.385 . S
C244 H230 0.931 . S
C244 C243 1.385 . S
C244 C245 1.389 . S
C245 C244 1.389 . S
C245 C246 1.387 . S
C246 H231 0.930 . S
C246 C241 1.390 . S
C246 C245 1.387 . S
H247 C259 0.930 . S
H248 C261 0.930 . S
H249 C262 0.930 . S
H250 C266 0.959 . S
H251 C266 0.959 . S
H252 C266 0.961 . S
H253 C267 0.960 . S
H254 C267 0.961 . S
H255 C267 0.959 . S
H256 C270 0.929 . S
H257 C271 0.931 . S
H258 C273 0.930 . S
C259 H247 0.930 . S
C259 C260 1.399 . S
C259 C264 1.399 . S
C260 C259 1.399 . S
C260 C261 1.376 . S
C261 H248 0.930 . S
C261 C260 1.376 . S
C261 C262 1.388 . S
C262 H249 0.930 . S
C262 C261 1.388 . S
C262 C263 1.390 . S
C263 C262 1.390 . S
C263 C264 1.394 . S
C263 C269 1.465 . S
C264 C259 1.399 . S
C264 C263 1.394 . S
C264 C265 1.516 . S
C265 C264 1.516 . S
C265 C266 1.502 . S
C265 C267 1.561 . S
C265 C268 1.526 . S
C266 H250 0.959 . S
C266 H251 0.959 . S
C266 H252 0.961 . S
C266 C265 1.502 . S
C267 H253 0.960 . S
C267 H254 0.961 . S
C267 H255 0.959 . S
C267 C265 1.561 . S
C268 C265 1.526 . S
C268 C269 1.396 . S
C268 C273 1.390 . S
C269 C263 1.465 . S
C269 C268 1.396 . S
C269 C270 1.399 . S
C270 H256 0.929 . S
C270 C269 1.399 . S
C270 C271 1.385 . S
C271 H257 0.931 . S
C271 C270 1.385 . S
C271 C272 1.389 . S
C272 C271 1.389 . S
C272 C273 1.387 . S
C273 H258 0.930 . S
C273 C268 1.390 . S
C273 C272 1.387 . S
H274 C286 0.930 . S
H275 C288 0.930 . S
H276 C289 0.930 . S
H277 C293 0.959 . S
H278 C293 0.959 . S
H279 C293 0.961 . S
H280 C294 0.960 . S
H281 C294 0.961 . S
H282 C294 0.959 . S
H283 C297 0.929 . S
H284 C298 0.931 . S
H285 C300 0.930 . S
C286 H274 0.930 . S
C286 C287 1.399 . S
C286 C291 1.399 . S
C287 C286 1.399 . S
C287 C288 1.376 . S
C288 H275 0.930 . S
C288 C287 1.376 . S
C288 C289 1.388 . S
C289 H276 0.930 . S
C289 C288 1.388 . S
C289 C290 1.390 . S
C290 C289 1.390 . S
C290 C291 1.394 . S
C290 C296 1.465 . S
C291 C286 1.399 . S
C291 C290 1.394 . S
C291 C292 1.516 . S
C292 C291 1.516 . S
C292 C293 1.502 . S
C292 C294 1.561 . S
C292 C295 1.526 . S
C293 H277 0.959 . S
C293 H278 0.959 . S
C293 H279 0.961 . S
C293 C292 1.502 . S
C294 H280 0.960 . S
C294 H281 0.961 . S
C294 H282 0.959 . S
C294 C292 1.561 . S
C295 C292 1.526 . S
C295 C296 1.396 . S
C295 C300 1.390 . S
C296 C290 1.465 . S
C296 C295 1.396 . S
C296 C297 1.399 . S
C297 H283 0.929 . S
C297 C296 1.399 . S
C297 C298 1.385 . S
C298 H284 0.931 . S
C298 C297 1.385 . S
C298 C299 1.389 . S
C299 C298 1.389 . S
C299 C300 1.387 . S
C300 H285 0.930 . S
C300 C295 1.390 . S
C300 C299 1.387 . S
H301 C313 0.930 . S
H302 C315 0.930 . S
H303 C316 0.930 . S
H304 C320 0.959 . S
H305 C320 0.959 . S
H306 C320 0.961 . S
H307 C321 0.960 . S
H308 C321 0.961 . S
H309 C321 0.959 . S
H310 C324 0.929 . S
H311 C325 0.931 . S
H312 C327 0.930 . S
C313 H301 0.930 . S
C313 C314 1.399 . S
C313 C318 1.399 . S
C314 C313 1.399 . S
C314 C315 1.376 . S
C315 H302 0.930 . S
C315 C314 1.376 . S
C315 C316 1.388 . S
C316 H303 0.930 . S
C316 C315 1.388 . S
C316 C317 1.390 . S
C317 C316 1.390 . S
C317 C318 1.394 . S
C317 C323 1.465 . S
C318 C313 1.399 . S
C318 C317 1.394 . S
C318 C319 1.516 . S
C319 C318 1.516 . S
C319 C320 1.502 . S
C319 C321 1.561 . S
C319 C322 1.526 . S
C320 H304 0.959 . S
C320 H305 0.959 . S
C320 H306 0.961 . S
C320 C319 1.502 . S
C321 H307 0.960 . S
C321 H308 0.961 . S
C321 H309 0.959 . S
C321 C319 1.561 . S
C322 C319 1.526 . S
C322 C323 1.396 . S
C322 C327 1.390 . S
C323 C317 1.465 . S
C323 C322 1.396 . S
C323 C324 1.399 . S
C324 H310 0.929 . S
C324 C323 1.399 . S
C324 C325 1.385 . S
C325 H311 0.931 . S
C325 C324 1.385 . S
C325 C326 1.389 . S
C326 C325 1.389 . S
C326 C327 1.387 . S
C327 H312 0.930 . S
C327 C322 1.390 . S
C327 C326 1.387 . S
H328 C340 0.930 . S
H329 C342 0.930 . S
H330 C343 0.930 . S
H331 C347 0.959 . S
H332 C347 0.959 . S
H333 C347 0.961 . S
H334 C348 0.960 1_545 S
H335 C348 0.961 1_545 S
H336 C348 0.959 . S
H337 C351 0.929 . S
H338 C352 0.931 . S
H339 C354 0.930 . S
C340 H328 0.930 . S
C340 C341 1.399 . S
C340 C345 1.399 . S
C341 C340 1.399 . S
C341 C342 1.376 . S
C342 H329 0.930 . S
C342 C341 1.376 . S
C342 C343 1.388 . S
C343 H330 0.930 . S
C343 C342 1.388 . S
C343 C344 1.390 . S
C344 C343 1.390 . S
C344 C345 1.394 . S
C344 C350 1.465 . S
C345 C340 1.399 . S
C345 C344 1.394 . S
C345 C346 1.516 . S
C346 C345 1.516 . S
C346 C347 1.502 . S
C346 C348 1.561 . S
C346 C349 1.526 . S
C347 H331 0.959 . S
C347 H332 0.959 . S
C347 H333 0.961 . S
C347 C346 1.502 . S
C348 H334 0.960 1_565 S
C348 H335 0.961 1_565 S
C348 H336 0.959 . S
C348 C346 1.561 . S
C349 C346 1.526 . S
C349 C350 1.396 . S
C349 C354 1.390 . S
C350 C344 1.465 . S
C350 C349 1.396 . S
C350 C351 1.399 . S
C351 H337 0.929 . S
C351 C350 1.399 . S
C351 C352 1.385 . S
C352 H338 0.931 . S
C352 C351 1.385 . S
C352 C353 1.389 . S
C353 C352 1.389 . S
C353 C354 1.387 . S
C354 H339 0.930 . S
C354 C349 1.390 . S
C354 C353 1.387 . S
H355 C367 0.930 . S
H356 C369 0.930 . S
H357 C370 0.930 . S
H358 C374 0.959 . S
H359 C374 0.959 . S
H360 C374 0.961 . S
H361 C375 0.960 . S
H362 C375 0.961 . S
H363 C375 0.959 . S
H364 C378 0.929 . S
H365 C379 0.931 . S
H366 C381 0.930 . S
C367 H355 0.930 . S
C367 C368 1.399 . S
C367 C372 1.399 . S
C368 C367 1.399 . S
C368 C369 1.376 . S
C369 H356 0.930 . S
C369 C368 1.376 . S
C369 C370 1.388 . S
C370 H357 0.930 . S
C370 C369 1.388 . S
C370 C371 1.390 . S
C371 C370 1.390 . S
C371 C372 1.394 . S
C371 C377 1.465 . S
C372 C367 1.399 . S
C372 C371 1.394 . S
C372 C373 1.516 . S
C373 C372 1.516 . S
C373 C374 1.502 . S
C373 C375 1.561 . S
C373 C376 1.526 . S
C374 H358 0.959 . S
C374 H359 0.959 . S
C374 H360 0.961 . S
C374 C373 1.502 . S
C375 H361 0.960 . S
C375 H362 0.961 . S
C375 H363 0.959 . S
C375 C373 1.561 . S
C376 C373 1.526 . S
C376 C377 1.396 . S
C376 C381 1.390 . S
C377 C371 1.465 . S
C377 C376 1.396 . S
C377 C378 1.399 . S
C378 H364 0.929 . S
C378 C377 1.399 . S
C378 C379 1.385 . S
C379 H365 0.931 . S
C379 C378 1.385 . S
C379 C380 1.389 . S
C380 C379 1.389 . S
C380 C381 1.387 . S
C381 H366 0.930 . S
C381 C376 1.390 . S
C381 C380 1.387 . S
H382 C394 0.930 . S
H383 C396 0.930 . S
H384 C397 0.930 . S
H385 C401 0.959 . S
H386 C401 0.959 . S
H387 C401 0.961 . S
H388 C402 0.960 . S
H389 C402 0.961 1_565 S
H390 C402 0.959 . S
H391 C405 0.929 . S
H392 C406 0.931 . S
H393 C408 0.930 . S
C394 H382 0.930 . S
C394 C395 1.399 . S
C394 C399 1.399 . S
C395 C394 1.399 . S
C395 C396 1.376 . S
C396 H383 0.930 . S
C396 C395 1.376 . S
C396 C397 1.388 . S
C397 H384 0.930 . S
C397 C396 1.388 . S
C397 C398 1.390 . S
C398 C397 1.390 . S
C398 C399 1.394 . S
C398 C404 1.465 . S
C399 C394 1.399 . S
C399 C398 1.394 . S
C399 C400 1.516 . S
C400 C399 1.516 . S
C400 C401 1.502 . S
C400 C402 1.561 . S
C400 C403 1.526 . S
C401 H385 0.959 . S
C401 H386 0.959 . S
C401 H387 0.961 . S
C401 C400 1.502 . S
C402 H388 0.960 . S
C402 H389 0.961 1_545 S
C402 H390 0.959 . S
C402 C400 1.561 . S
C403 C400 1.526 . S
C403 C404 1.396 . S
C403 C408 1.390 . S
C404 C398 1.465 . S
C404 C403 1.396 . S
C404 C405 1.399 . S
C405 H391 0.929 . S
C405 C404 1.399 . S
C405 C406 1.385 . S
C406 H392 0.931 . S
C406 C405 1.385 . S
C406 C407 1.389 . S
C407 C406 1.389 . S
C407 C408 1.387 . S
C408 H393 0.930 . S
C408 C403 1.390 . S
C408 C407 1.387 . S
H409 C421 0.930 . S
H410 C423 0.930 . S
H411 C424 0.930 . S
H412 C428 0.959 . S
H413 C428 0.959 . S
H414 C428 0.961 . S
H415 C429 0.960 . S
H416 C429 0.961 . S
H417 C429 0.959 . S
H418 C432 0.929 . S
H419 C433 0.931 . S
H420 C435 0.930 . S
C421 H409 0.930 . S
C421 C422 1.399 . S
C421 C426 1.399 . S
C422 C421 1.399 . S
C422 C423 1.376 . S
C423 H410 0.930 . S
C423 C422 1.376 . S
C423 C424 1.388 . S
C424 H411 0.930 . S
C424 C423 1.388 . S
C424 C425 1.390 . S
C425 C424 1.390 . S
C425 C426 1.394 . S
C425 C431 1.465 . S
C426 C421 1.399 . S
C426 C425 1.394 . S
C426 C427 1.516 . S
C427 C426 1.516 . S
C427 C428 1.502 . S
C427 C429 1.561 . S
C427 C430 1.526 . S
C428 H412 0.959 . S
C428 H413 0.959 . S
C428 H414 0.961 . S
C428 C427 1.502 . S
C429 H415 0.960 . S
C429 H416 0.961 . S
C429 H417 0.959 . S
C429 C427 1.561 . S
C430 C427 1.526 . S
C430 C431 1.396 . S
C430 C435 1.390 . S
C431 C425 1.465 . S
C431 C430 1.396 . S
C431 C432 1.399 . S
C432 H418 0.929 . S
C432 C431 1.399 . S
C432 C433 1.385 . S
C433 H419 0.931 . S
C433 C432 1.385 . S
C433 C434 1.389 . S
C434 C433 1.389 . S
C434 C435 1.387 . S
C435 H420 0.930 . S
C435 C430 1.390 . S
C435 C434 1.387 . S
H436 C448 0.930 1_565 S
H437 C450 0.930 . S
H438 C451 0.930 . S
H439 C455 0.959 . S
H440 C455 0.959 . S
H441 C455 0.961 . S
H442 C456 0.960 . S
H443 C456 0.961 1_455 S
H444 C456 0.959 . S
H445 C459 0.929 . S
H446 C460 0.931 1_545 S
H447 C462 0.930 . S
C448 H436 0.930 1_545 S
C448 C449 1.399 . S
C448 C453 1.391 1_545 S
C449 C448 1.399 . S
C449 C450 1.376 1_455 S
C450 H437 0.930 . S
C450 C449 1.376 1_655 S
C450 C451 1.388 . S
C451 H438 0.930 . S
C451 C450 1.388 . S
C451 C452 1.390 . S
C452 C451 1.390 . S
C452 C453 1.376 1_645 S
C452 C458 1.465 1_554 S
C453 C448 1.391 1_565 S
C453 C452 1.376 1_465 S
C453 C454 1.541 . S
C454 C453 1.541 . S
C454 C455 1.502 . S
C454 C456 1.561 1_455 S
C454 C457 1.526 1_554 S
C455 H439 0.959 . S
C455 H440 0.959 . S
C455 H441 0.961 . S
C455 C454 1.502 . S
C456 H442 0.960 . S
C456 H443 0.961 1_655 S
C456 H444 0.959 . S
C456 C454 1.561 1_655 S
C457 C454 1.526 1_556 S
C457 C458 1.396 1_465 S
C457 C462 1.390 . S
C458 C452 1.465 1_556 S
C458 C457 1.396 1_645 S
C458 C459 1.399 . S
C459 H445 0.929 . S
C459 C458 1.399 . S
C459 C460 1.385 1_545 S
C460 H446 0.931 1_565 S
C460 C459 1.385 1_565 S
C460 C461 1.389 1_655 S
C461 C460 1.389 1_455 S
C461 C462 1.387 . S
C462 H447 0.930 . S
C462 C457 1.390 . S
C462 C461 1.387 . S
H463 C475 0.930 . S
H464 C477 0.930 . S
H465 C478 0.930 . S
H466 C482 0.959 . S
H467 C482 0.959 . S
H468 C482 0.961 1_556 S
H469 C483 0.960 . S
H470 C483 0.961 . S
H471 C483 0.959 . S
H472 C486 0.929 . S
H473 C487 0.931 . S
H474 C489 0.930 . S
C475 H463 0.930 . S
C475 C476 1.399 . S
C475 C480 1.399 . S
C476 C475 1.399 . S
C476 C477 1.376 1_455 S
C477 H464 0.930 . S
C477 C476 1.376 1_655 S
C477 C478 1.388 . S
C478 H465 0.930 . S
C478 C477 1.388 . S
C478 C479 1.390 . S
C479 C478 1.390 . S
C479 C480 1.394 1_655 S
C479 C485 1.465 1_556 S
C480 C475 1.399 . S
C480 C479 1.394 1_455 S
C480 C481 1.516 1_556 S
C481 C480 1.516 1_554 S
C481 C482 1.502 . S
C481 C483 1.561 . S
C481 C484 1.526 . S
C482 H466 0.959 . S
C482 H467 0.959 . S
C482 H468 0.961 1_554 S
C482 C481 1.502 . S
C483 H469 0.960 . S
C483 H470 0.961 . S
C483 H471 0.959 . S
C483 C481 1.561 . S
C484 C481 1.526 . S
C484 C485 1.385 1_455 S
C484 C489 1.390 . S
C485 C479 1.465 1_554 S
C485 C484 1.385 1_655 S
C485 C486 1.408 . S
C486 H472 0.929 . S
C486 C485 1.408 . S
C486 C487 1.385 . S
C487 H473 0.931 . S
C487 C486 1.385 . S
C487 C488 1.389 1_655 S
C488 C487 1.389 1_455 S
C488 C489 1.387 . S
C489 H474 0.930 . S
C489 C484 1.390 . S
C489 C488 1.387 . S
H490 C502 0.930 . S
H491 C504 0.930 . S
H492 C505 0.930 . S
H493 C509 0.959 . S
H494 C509 0.959 . S
H495 C509 0.961 . S
H496 C510 0.960 . S
H497 C510 0.961 . S
H498 C510 0.959 . S
H499 C513 0.929 . S
H500 C514 0.931 . S
H501 C516 0.930 . S
C502 H490 0.930 . S
C502 C503 1.399 . S
C502 C507 1.399 . S
C503 C502 1.399 . S
C503 C504 1.376 . S
C504 H491 0.930 . S
C504 C503 1.376 . S
C504 C505 1.388 . S
C505 H492 0.930 . S
C505 C504 1.388 . S
C505 C506 1.390 . S
C506 C505 1.390 . S
C506 C507 1.394 . S
C506 C512 1.465 . S
C507 C502 1.399 . S
C507 C506 1.394 . S
C507 C508 1.516 . S
C508 C507 1.516 . S
C508 C509 1.502 . S
C508 C510 1.561 . S
C508 C511 1.526 . S
C509 H493 0.959 . S
C509 H494 0.959 . S
C509 H495 0.961 . S
C509 C508 1.502 . S
C510 H496 0.960 . S
C510 H497 0.961 . S
C510 H498 0.959 . S
C510 C508 1.561 . S
C511 C508 1.526 . S
C511 C512 1.396 . S
C511 C516 1.390 . S
C512 C506 1.465 . S
C512 C511 1.396 . S
C512 C513 1.399 . S
C513 H499 0.929 . S
C513 C512 1.399 . S
C513 C514 1.385 . S
C514 H500 0.931 . S
C514 C513 1.385 . S
C514 C515 1.389 . S
C515 C514 1.389 . S
C515 C516 1.387 . S
C516 H501 0.930 . S
C516 C511 1.390 . S
C516 C515 1.387 . S
H517 C529 0.930 . S
H518 C531 0.930 1_545 S
H519 C532 0.930 . S
H520 C536 0.959 . S
H521 C536 0.959 . S
H522 C536 0.961 . S
H523 C537 0.960 . S
H524 C537 0.961 . S
H525 C537 0.959 . S
H526 C540 0.929 . S
H527 C541 0.931 . S
H528 C543 0.930 1_565 S
C529 H517 0.930 . S
C529 C530 1.399 . S
C529 C534 1.399 . S
C530 C529 1.399 . S
C530 C531 1.376 . S
C531 H518 0.930 1_565 S
C531 C530 1.376 . S
C531 C532 1.388 1_565 S
C532 H519 0.930 . S
C532 C531 1.388 1_545 S
C532 C533 1.390 . S
C533 C532 1.390 . S
C533 C534 1.394 1_545 S
C533 C539 1.465 . S
C534 C529 1.399 . S
C534 C533 1.394 1_565 S
C534 C535 1.516 . S
C535 C534 1.516 . S
C535 C536 1.502 . S
C535 C537 1.561 . S
C535 C538 1.520 1_565 S
C536 H520 0.959 . S
C536 H521 0.959 . S
C536 H522 0.961 . S
C536 C535 1.502 . S
C537 H523 0.960 . S
C537 H524 0.961 . S
C537 H525 0.959 . S
C537 C535 1.561 . S
C538 C535 1.520 1_545 S
C538 C539 1.400 . S
C538 C543 1.391 . S
C539 C533 1.465 . S
C539 C538 1.400 . S
C539 C540 1.399 . S
C540 H526 0.929 . S
C540 C539 1.399 . S
C540 C541 1.385 . S
C541 H527 0.931 . S
C541 C540 1.385 . S
C541 C542 1.389 . S
C542 C541 1.389 . S
C542 C543 1.387 . S
C543 H528 0.930 1_545 S
C543 C538 1.391 . S
C543 C542 1.387 . S
C125 C22 1.373 . S
C137 C8 1.401 . S
C152 C36 1.454 . S
C164 C50 1.430 . S
C179 C64 1.381 . S
C191 C78 1.376 . S
C206 C92 1.373 . S
C218 C106 1.401 . S
C233 C105 1.488 . S
C245 C7 1.490 . S
C260 C91 1.502 . S
C272 C21 1.518 . S
C287 C35 1.506 . S
C299 C77 1.517 . S
C314 C63 1.516 . S
C326 C49 1.507 . S
C341 C83 1.158 . S
C353 C41 1.227 . S
C368 C69 1.162 . S
C380 C55 1.198 . S
C395 C111 1.160 . S
C407 C13 1.205 . S
C422 C27 1.158 . S
C434 C97 1.216 . S
C449 C11 1.365 . S
C461 C39 1.364 . S
C476 C53 1.341 . S
C488 C25 1.342 . S
C503 C95 1.343 . S
C515 C67 1.344 . S
C530 C81 1.353 . S
C542 C109 1.355 . S
