# Generated by pormake.
# Topology lcy, (6)-cn, num edge types: 1
# Building blocks:
#     Node 0, Type 0, BuildingBlock: UKALOJ_clean_sbu_0, # of connection points: 6
#     Node 1, Type 0, BuildingBlock: UKALOJ_clean_sbu_0, # of connection points: 6
#     Node 2, Type 0, BuildingBlock: UKALOJ_clean_sbu_0, # of connection points: 6
#     Node 3, Type 0, BuildingBlock: UKALOJ_clean_sbu_0, # of connection points: 6
#     Edge 4, Type (0, 0), BuildingBlock: KIFKEQ_clean_linker_1, # of connection points: 2
#     Edge 5, Type (0, 0), BuildingBlock: KIFKEQ_clean_linker_1, # of connection points: 2
#     Edge 6, Type (0, 0), BuildingBlock: KIFKEQ_clean_linker_1, # of connection points: 2
#     Edge 7, Type (0, 0), BuildingBlock: KIFKEQ_clean_linker_1, # of connection points: 2
#     Edge 8, Type (0, 0), BuildingBlock: KIFKEQ_clean_linker_1, # of connection points: 2
#     Edge 9, Type (0, 0), BuildingBlock: KIFKEQ_clean_linker_1, # of connection points: 2
#     Edge 10, Type (0, 0), BuildingBlock: KIFKEQ_clean_linker_1, # of connection points: 2
#     Edge 11, Type (0, 0), BuildingBlock: KIFKEQ_clean_linker_1, # of connection points: 2
#     Edge 12, Type (0, 0), BuildingBlock: KIFKEQ_clean_linker_1, # of connection points: 2
#     Edge 13, Type (0, 0), BuildingBlock: KIFKEQ_clean_linker_1, # of connection points: 2
#     Edge 14, Type (0, 0), BuildingBlock: KIFKEQ_clean_linker_1, # of connection points: 2
#     Edge 15, Type (0, 0), BuildingBlock: KIFKEQ_clean_linker_1, # of connection points: 2
# Relax obj value: 0.340
# Max RMSD: 0.294
# Mean RMSD: 0.263
data_MOF--net-lcy--node1-UKALOJ_clean_sbu_0--edge1-KIFKEQ_clean_linker_1
_symmetry_space_group_name_H-M    P1
_symmetry_Int_Tables_number       1
_symmetry_cell_setting            triclinic
loop_
_symmetry_equiv_pos_as_xyz
'x, y, z'
_cell_length_a     26.830429
_cell_length_b     27.599206
_cell_length_c     27.140134
_cell_angle_alpha  89.545923
_cell_angle_beta   99.350789
_cell_angle_gamma 98.987582
loop_
_atom_site_label
_atom_site_type_symbol
_atom_site_fract_x
_atom_site_fract_y
_atom_site_fract_z
_atom_type_partial_charge
Zn0 Zn 0.35519 0.43412 0.33613 0.0
O1 O 0.32825 0.48089 0.38419 0.0
C2 C 0.44091 0.5139 0.33324 0.0
Zn3 Zn 0.42057 0.42673 0.39641 0.0
C4 C 0.35149 0.48887 0.42893 0.0
O5 O 0.39109 0.46947 0.44419 0.0
C6 C 0.42312 0.37093 0.30425 0.0
O7 O 0.37767 0.36211 0.42306 0.0
O8 O 0.31393 0.37347 0.3645 0.0
N9 N 0.48374 0.4221 0.44888 0.0
C10 C 0.51402 0.38711 0.45554 0.0
C11 C 0.55216 0.44879 0.5009 0.0
N12 N 0.50743 0.46033 0.47725 0.0
N13 N 0.55753 0.40329 0.48732 0.0
C14 C 0.2859 0.46851 0.24288 0.0
C15 C 0.235 0.40219 0.2214 0.0
N16 N 0.29443 0.43632 0.27975 0.0
N17 N 0.26217 0.39534 0.26651 0.0
N18 N 0.24954 0.44774 0.20562 0.0
H19 H 0.32139 0.53572 0.28223 0.0
H20 H 0.28663 0.54357 0.22052 0.0
H21 H 0.34711 0.52236 0.22696 0.0
C22 C 0.31179 0.52068 0.24346 0.0
C23 C 0.49986 0.33636 0.43302 0.0
H24 H 0.45786 0.32574 0.42418 0.0
H25 H 0.51593 0.30935 0.459 0.0
H26 H 0.51589 0.33504 0.39799 0.0
O27 O 0.44905 0.384 0.34663 0.0
O28 O 0.38161 0.38712 0.28999 0.0
C29 C 0.33191 0.34899 0.40102 0.0
O30 O 0.39803 0.49487 0.30898 0.0
O31 O 0.46052 0.49243 0.37141 0.0
Zn32 Zn 0.91786 0.14344 0.61726 0.0
O33 O 0.86881 0.19337 0.58074 0.0
C34 C 0.94794 0.21842 0.69829 0.0
Zn35 Zn 0.86786 0.12793 0.67485 0.0
C36 C 0.83036 0.19919 0.60089 0.0
O37 O 0.8224 0.17548 0.63968 0.0
C38 C 0.95141 0.06763 0.69145 0.0
O39 O 0.82049 0.06838 0.62778 0.0
O40 O 0.87436 0.08571 0.57487 0.0
N41 N 0.82273 0.12017 0.72914 0.0
C42 C 0.80646 0.08328 0.75844 0.0
C43 C 0.78289 0.14802 0.78276 0.0
N44 N 0.80786 0.1602 0.74433 0.0
N45 N 0.7815 0.09998 0.79297 0.0
C46 C 0.01421 0.16881 0.56656 0.0
C47 C 0.9824 0.15869 0.4894 0.0
N48 N 0.96338 0.15444 0.56359 0.0
N49 N 0.94378 0.14783 0.51568 0.0
N50 N 0.02708 0.17157 0.52042 0.0
H51 H 0.04847 0.22408 0.6216 0.0
H52 H 0.08974 0.18121 0.61211 0.0
H53 H 0.03759 0.16319 0.64593 0.0
C54 C 0.0497 0.18484 0.61419 0.0
C55 C 0.81345 0.03118 0.75113 0.0
H56 H 0.81858 0.02452 0.7122 0.0
H57 H 0.77999 1.0055 0.75981 0.0
H58 H 0.84836 0.0239 0.77621 0.0
O59 O 0.91399 0.07789 0.71055 0.0
O60 O 0.96377 0.09149 0.65365 0.0
C61 C 0.8347 0.06002 0.58635 0.0
O62 O 0.96041 0.20384 0.6585 0.0
O63 O 0.91341 0.19121 0.7174 0.0
Zn64 Zn 0.07805 0.65905 0.86112 0.0
O65 O 0.13557 0.71198 0.90642 0.0
C66 C 0.05493 0.73609 0.78675 0.0
Zn67 Zn 0.12887 0.66336 0.80401 0.0
C68 C 0.17555 0.73011 0.88868 0.0
O69 O 0.17997 0.71807 0.84487 0.0
C70 C 0.03799 0.58403 0.77974 0.0
O71 O 0.17066 0.61034 0.84336 0.0
O72 O 0.11464 0.60398 0.89472 0.0
N73 N 0.17396 0.67058 0.75007 0.0
C74 C 0.18662 0.63813 0.71935 0.0
C75 C 0.22032 0.70942 0.69987 0.0
N76 N 0.19505 0.71483 0.73798 0.0
N77 N 0.21519 0.66164 0.68729 0.0
C78 C 0.00885 0.68291 0.93725 0.0
C79 C 0.98483 0.61121 0.96312 0.0
N80 N 0.03252 0.65157 0.91508 0.0
N81 N 0.01782 0.60718 0.93155 0.0
N82 N 0.97862 0.65835 0.96755 0.0
H83 H 0.04924 0.75092 0.91472 0.0
H84 H 0.005 0.75829 0.95642 0.0
H85 H 0.98126 0.74014 0.89272 0.0
C86 C 0.01149 0.7362 0.92494 0.0
C87 C 0.17376 0.58351 0.72247 0.0
H88 H 0.16154 0.57232 0.75841 0.0
H89 H 0.20735 0.56617 0.71765 0.0
H90 H 0.14243 0.56991 0.69169 0.0
O91 O 0.07771 0.60521 0.76369 0.0
O92 O 0.025 0.60239 0.81775 0.0
C93 C 0.15325 0.59057 0.88087 0.0
O94 O 0.0409 0.71658 0.82589 0.0
O95 O 0.08877 0.7187 0.76755 0.0
Zn96 Zn 0.61553 0.87379 0.1596 0.0
O97 O 0.55792 0.83966 0.09841 0.0
C98 C 0.64459 0.95697 0.09625 0.0
Zn99 Zn 0.56943 0.93258 0.16699 0.0
C100 C 0.51915 0.86116 0.08564 0.0
O101 O 0.51643 0.90043 0.10798 0.0
C102 C 0.66053 0.94397 0.24574 0.0
O103 O 0.52782 0.88953 0.21794 0.0
O104 O 0.57645 0.83379 0.20909 0.0
N105 N 0.52753 0.98755 0.1653 0.0
C106 C 0.51921 0.01922 0.19937 0.0
C107 C 0.48741 0.04242 0.12758 0.0
N108 N 0.50744 1.00187 0.12084 0.0
N109 N 0.49452 0.05459 0.17648 0.0
C110 C 0.68373 0.80703 0.12042 0.0
C111 C 0.70663 0.76578 0.18453 0.0
N112 N 0.65924 0.81972 0.15678 0.0
N113 N 0.67326 0.79379 0.1965 0.0
N114 N 0.71399 0.7737 0.13704 0.0
H115 H 0.63778 0.83526 0.05724 0.0
H116 H 0.68241 0.79749 0.04143 0.0
H117 H 0.7052 0.85878 0.06545 0.0
C118 C 0.67657 0.8256 0.06805 0.0
C119 C 0.53302 0.01341 0.25458 0.0
H120 H 0.53401 0.97432 0.2637 0.0
H121 H 0.50519 0.02755 0.2746 0.0
H122 H 0.57165 0.03422 0.26758 0.0
O123 O 0.62253 0.96476 0.22826 0.0
O124 O 0.66871 0.90663 0.22275 0.0
C125 C 0.5417 0.84817 0.22908 0.0
O126 O 0.65617 0.91567 0.10991 0.0
O127 O 0.61014 0.97364 0.1149 0.0
H128 H 0.11451 0.49853 0.90291 0.0
H129 H 0.24822 0.60927 0.93487 0.0
H130 H 0.14292 0.45583 0.97885 0.0
H131 H 0.27586 0.5683 0.01216 0.0
H132 H 0.31958 0.47734 0.14669 0.0
H133 H 0.30356 0.50189 0.05963 0.0
H134 H 0.14091 0.47612 0.06309 0.0
H135 H 0.15767 0.45029 0.14984 0.0
C136 C 0.15112 0.51249 0.92534 0.0
C137 C 0.17962 0.55664 0.91312 0.0
C138 C 0.16692 0.4887 0.96931 0.0
C139 C 0.21088 0.50938 0.0024 0.0
C140 C 0.2419 0.55116 0.98756 0.0
C141 C 0.22642 0.57452 0.94305 0.0
C142 C 0.28054 0.47761 0.12873 0.0
C143 C 0.23974 0.46336 0.15494 0.0
C144 C 0.2713 0.4913 0.07886 0.0
C145 C 0.22099 0.49104 0.05418 0.0
C146 C 0.18016 0.47591 0.08049 0.0
C147 C 0.18951 0.46174 0.13025 0.0
H148 H 0.65848 0.0258 0.30111 0.0
H149 H 0.72592 0.89329 0.30616 0.0
H150 H 0.69506 0.04321 0.38843 0.0
H151 H 0.76231 0.91053 0.39386 0.0
H152 H 0.73123 0.0478 0.55474 0.0
H153 H 0.68736 0.01463 0.47277 0.0
H154 H 0.8267 0.9674 0.4454 0.0
H155 H 0.86967 0.9997 0.52702 0.0
C156 C 0.68128 1.00044 0.32077 0.0
C157 C 0.68924 0.95818 0.29643 0.0
C158 C 0.70176 0.01011 0.37113 0.0
C159 C 0.73089 0.97783 0.39861 0.0
C160 C 0.74009 0.93623 0.37391 0.0
C161 C 0.71952 0.92652 0.32346 0.0
C162 C 0.7516 0.02831 0.53205 0.0
C163 C 0.8037 0.02605 0.54728 0.0
C164 C 0.72688 0.01019 0.48468 0.0
C165 C 0.75381 0.98924 0.45196 0.0
C166 C 0.80464 0.98311 0.4694 0.0
C167 C 0.82927 1.00145 0.51638 0.0
H168 H 0.16225 0.59879 0.61498 0.0
H169 H 0.31108 0.68168 0.66766 0.0
H170 H 0.19634 0.56108 0.54928 0.0
H171 H 0.34538 0.64549 0.60065 0.0
H172 H 0.39584 0.51639 0.52403 0.0
H173 H 0.36297 0.56316 0.58345 0.0
H174 H 0.23206 0.57901 0.47211 0.0
H175 H 0.26459 0.53125 0.41246 0.0
C176 C 0.20241 0.60854 0.61255 0.0
C177 C 0.23463 0.64168 0.64709 0.0
C178 C 0.22173 0.58777 0.57445 0.0
C179 C 0.27361 0.6001 0.57006 0.0
C180 C 0.3054 0.63477 0.60361 0.0
C181 C 0.28593 0.65559 0.64168 0.0
C182 C 0.36015 0.53001 0.51201 0.0
C183 C 0.33257 0.51977 0.46364 0.0
C184 C 0.34157 0.55719 0.546 0.0
C185 C 0.29496 0.57471 0.53243 0.0
C186 C 0.26786 0.56548 0.48371 0.0
C187 C 0.28656 0.53832 0.44955 0.0
H188 H 0.59651 0.00826 0.0227 0.0
H189 H 0.74074 0.95966 0.07485 0.0
H190 H 0.62737 0.0392 0.9475 0.0
H191 H 0.77402 0.99454 0.00182 0.0
H192 H 0.80997 0.02154 0.84781 0.0
H193 H 0.77515 0.98647 0.91913 0.0
H194 H 0.67621 0.09707 0.91044 0.0
H195 H 0.70637 0.12766 0.83529 0.0
C196 C 0.63553 1.00564 0.01863 0.0
C197 C 0.66641 0.98196 0.05462 0.0
C198 C 0.65351 0.02355 0.97544 0.0
C199 C 0.70353 0.01965 0.96785 0.0
C200 C 0.73492 0.99729 0.00514 0.0
C201 C 0.71624 0.97793 0.04756 0.0
C202 C 0.77907 0.03691 0.85936 0.0
C203 C 0.75981 0.07649 0.8342 0.0
C204 C 0.76001 0.01768 0.90173 0.0
C205 C 0.7226 0.0387 0.92137 0.0
C206 C 0.70388 0.07864 0.89633 0.0
C207 C 0.7217 0.09674 0.85322 0.0
H208 H 0.04163 0.24282 0.45479 0.0
H209 H 0.11946 0.14268 0.54971 0.0
H210 H 0.12157 0.27615 0.42631 0.0
H211 H 0.20062 0.17725 0.52242 0.0
H212 H 0.33226 0.31605 0.49688 0.0
H213 H 0.26054 0.26483 0.52752 0.0
H214 H 0.18109 0.2412 0.37603 0.0
H215 H 0.25186 0.29208 0.34566 0.0
C216 C 0.07611 0.22822 0.46966 0.0
C217 C 0.07487 0.19116 0.50518 0.0
C218 C 0.12172 0.24706 0.45336 0.0
C219 C 0.16718 0.22912 0.47216 0.0
C220 C 0.16614 0.19194 0.50777 0.0
C221 C 0.12004 0.17259 0.52367 0.0
C222 C 0.30018 0.29848 0.47019 0.0
C223 C 0.29707 0.30861 0.41906 0.0
C224 C 0.2592 0.26934 0.48767 0.0
C225 C 0.21498 0.25011 0.45411 0.0
C226 C 0.21433 0.25646 0.40271 0.0
C227 C 0.2549 0.28544 0.38538 0.0
H228 H 0.972 0.77536 0.80614 0.0
H229 H 0.1 0.80356 0.72658 0.0
H230 H 0.94988 0.85583 0.7835 0.0
H231 H 0.07975 0.8849 0.70595 0.0
H232 H 0.00461 0.01416 0.63995 0.0
H233 H 0.02755 0.93356 0.65993 0.0
H234 H 0.97255 0.93904 0.80067 0.0
H235 H 0.94729 0.01851 0.77919 0.0
C236 C 0.99538 0.79871 0.78368 0.0
C237 C 0.03766 0.78271 0.76808 0.0
C238 C 0.98312 0.84536 0.77113 0.0
C239 C 0.0133 0.87788 0.74329 0.0
C240 C 0.05497 0.86121 0.72682 0.0
C241 C 0.06672 0.81428 0.73872 0.0
C242 C 0.99821 0.99852 0.67555 0.0
C243 C 0.97413 0.02302 0.70795 0.0
C244 C 0.01137 0.95199 0.68712 0.0
C245 C 0.00151 0.92878 0.73183 0.0
C246 C 0.97956 0.95458 0.76523 0.0
C247 C 0.9657 1.00073 0.75328 0.0
H248 H 0.21021 0.71865 0.98799 0.0
H249 H 0.2462 0.80007 0.85855 0.0
H250 H 0.29648 0.74875 0.03274 0.0
H251 H 0.3319 0.82979 0.90276 0.0
H252 H 0.46211 0.91126 0.01895 0.0
H253 H 0.37693 0.88267 0.97313 0.0
H254 H 0.3868 0.736 0.0263 0.0
H255 H 0.4728 0.76513 0.07275 0.0
C256 C 0.23596 0.74418 0.96972 0.0
C257 C 0.22129 0.75756 0.92003 0.0
C258 C 0.28566 0.76057 0.9949 0.0
C259 C 0.32129 0.79109 0.97103 0.0
C260 C 0.30547 0.80643 0.92229 0.0
C261 C 0.25622 0.78968 0.89706 0.0
C262 C 0.44664 0.8726 0.01978 0.0
C263 C 0.47425 0.84027 0.04889 0.0
C264 C 0.3977 0.85627 0.99374 0.0
C265 C 0.37478 0.8072 0.99654 0.0
C266 C 0.4032 0.77423 0.02404 0.0
C267 C 0.45273 0.79058 0.04979 0.0
H268 H 0.51743 0.34625 0.30227 0.0
H269 H 0.35669 0.30291 0.24608 0.0
H270 H 0.53561 0.27078 0.26781 0.0
H271 H 0.37368 0.22623 0.2153 0.0
H272 H 0.41888 0.10282 0.13622 0.0
H273 H 0.40506 0.1836 0.15945 0.0
H274 H 0.52929 0.18856 0.28389 0.0
H275 H 0.54688 0.11086 0.25656 0.0
C276 C 0.48614 0.32066 0.28214 0.0
C277 C 0.43579 0.33031 0.27659 0.0
C278 C 0.49631 0.27705 0.26305 0.0
C279 C 0.45607 0.24168 0.23938 0.0
C280 C 0.40592 0.25258 0.2324 0.0
C281 C 0.39603 0.29668 0.25017 0.0
C282 C 0.44311 0.12121 0.16864 0.0
C283 C 0.48292 0.09938 0.19539 0.0
C284 C 0.43499 0.16751 0.18228 0.0
C285 C 0.46575 0.19288 0.22391 0.0
C286 C 0.50515 0.17069 0.25118 0.0
C287 C 0.51424 0.12495 0.23651 0.0
H288 H 0.8289 0.2567 0.51658 0.0
H289 H 0.75056 0.21932 0.64223 0.0
H290 H 0.76776 0.31275 0.4876 0.0
H291 H 0.69038 0.27361 0.61333 0.0
H292 H 0.61295 0.403 0.5791 0.0
H293 H 0.68575 0.36006 0.60506 0.0
H294 H 0.67552 0.30858 0.45324 0.0
H295 H 0.60454 0.35372 0.42725 0.0
C296 C 0.7989 0.2604 0.53793 0.0
C297 C 0.79472 0.23348 0.58164 0.0
C298 C 0.76389 0.29234 0.52137 0.0
C299 C 0.72457 0.29803 0.54854 0.0
C300 C 0.72079 0.27107 0.59211 0.0
C301 C 0.75526 0.2394 0.6084 0.0
C302 C 0.62667 0.38279 0.55141 0.0
C303 C 0.60186 0.37988 0.5017 0.0
C304 C 0.66814 0.35809 0.56612 0.0
C305 C 0.68576 0.33007 0.53133 0.0
C306 C 0.66279 0.32962 0.48097 0.0
C307 C 0.62141 0.35454 0.46628 0.0
H308 H 0.06379 0.53216 0.70541 0.0
H309 H 0.96317 0.51872 0.81514 0.0
H310 H 0.04644 0.44517 0.69063 0.0
H311 H 0.94065 0.43084 0.79646 0.0
H312 H 0.94386 0.26538 0.78752 0.0
H313 H 0.96193 0.35382 0.80559 0.0
H314 H 0.99801 0.37862 0.65675 0.0
H315 H 0.98516 0.29189 0.64141 0.0
C316 C 0.03668 0.51075 0.7255 0.0
C317 C 0.01554 0.53294 0.76187 0.0
C318 C 0.02598 0.46011 0.71657 0.0
C319 C 0.99186 0.42951 0.74221 0.0
C320 C 0.9681 0.45224 0.77659 0.0
C321 C 0.98016 0.50312 0.78663 0.0
C322 C 0.95713 0.28998 0.75944 0.0
C323 C 0.96417 0.27113 0.7135 0.0
C324 C 0.96665 0.341 0.76932 0.0
C325 C 0.98193 0.37463 0.7329 0.0
C326 C 0.98832 0.3551 0.68693 0.0
C327 C 0.9806 0.30456 0.67786 0.0
H328 H 0.87944 0.62001 0.95851 0.0
H329 H 0.99467 0.73214 0.03607 0.0
H330 H 0.81513 0.64698 0.00192 0.0
H331 H 0.9303 0.76021 0.07882 0.0
H332 H 0.78637 0.82887 0.09408 0.0
H333 H 0.85178 0.80008 0.0539 0.0
H334 H 0.79515 0.65083 0.08947 0.0
H335 H 0.72911 0.68014 0.12924 0.0
C336 C 0.89074 0.65062 0.98476 0.0
C337 C 0.9414 0.67506 0.99297 0.0
C338 C 0.85418 0.66589 0.00971 0.0
C339 C 0.86768 0.70591 0.04342 0.0
C340 C 0.91867 0.72983 0.0523 0.0
C341 C 0.95534 0.71419 0.02762 0.0
C342 C 0.78759 0.78991 0.09258 0.0
C343 C 0.75223 0.75644 0.11352 0.0
C344 C 0.82537 0.77349 0.07029 0.0
C345 C 0.82841 0.72323 0.06844 0.0
C346 C 0.79328 0.68974 0.08992 0.0
C347 C 0.75577 0.70633 0.11272 0.0
H348 H 0.44309 0.80313 0.21638 0.0
H349 H 0.58844 0.81337 0.31364 0.0
H350 H 0.41636 0.72202 0.24918 0.0
H351 H 0.56273 0.73239 0.34573 0.0
H352 H 0.49256 0.58392 0.4006 0.0
H353 H 0.50855 0.67226 0.38713 0.0
H354 H 0.44891 0.64736 0.23009 0.0
H355 H 0.43284 0.5594 0.24377 0.0
C356 C 0.4681 0.78911 0.24671 0.0
C357 C 0.51756 0.81413 0.26281 0.0
C358 C 0.45339 0.74235 0.26474 0.0
C359 C 0.48812 0.72031 0.29891 0.0
C360 C 0.53515 0.7482 0.3194 0.0
C361 C 0.54976 0.79476 0.30135 0.0
C362 C 0.48397 0.59738 0.36304 0.0
C363 C 0.46123 0.56498 0.32317 0.0
C364 C 0.49247 0.64795 0.35547 0.0
C365 C 0.47856 0.66687 0.30785 0.0
C366 C 0.45821 0.63409 0.26761 0.0
C367 C 0.44963 0.58369 0.27523 0.0
loop_
_geom_bond_atom_site_label_1
_geom_bond_atom_site_label_2
_geom_bond_distance
_geom_bond_site_symmetry_2
_ccdc_geom_bond_type
Zn0 O1 2.055 . S
Zn0 O8 2.046 . S
Zn0 N16 2.036 . S
Zn0 O28 2.053 . S
Zn0 O30 2.066 . S
O1 Zn0 2.055 . S
O1 C4 1.259 . S
C2 O30 1.256 . S
C2 O31 1.244 . S
Zn3 O5 2.046 . S
Zn3 O7 2.055 . S
Zn3 N9 2.036 . S
Zn3 O27 2.066 . S
Zn3 O31 2.053 . S
C4 O1 1.259 . S
C4 O5 1.254 . S
O5 Zn3 2.046 . S
O5 C4 1.254 . S
C6 O27 1.256 . S
C6 O28 1.244 . S
O7 Zn3 2.055 . S
O7 C29 1.259 . S
O8 Zn0 2.046 . S
O8 C29 1.254 . S
N9 Zn3 2.036 . S
N9 C10 1.298 . S
N9 N12 1.398 . S
C10 N9 1.298 . S
C10 N13 1.367 . S
C10 C23 1.481 . S
C11 N12 1.299 . S
C11 N13 1.379 . S
N12 N9 1.398 . S
N12 C11 1.299 . S
N13 C10 1.367 . S
N13 C11 1.379 . S
C14 N16 1.298 . S
C14 N18 1.367 . S
C14 C22 1.481 . S
C15 N17 1.299 . S
C15 N18 1.379 . S
N16 Zn0 2.036 . S
N16 C14 1.298 . S
N16 N17 1.398 . S
N17 C15 1.299 . S
N17 N16 1.398 . S
N18 C14 1.367 . S
N18 C15 1.379 . S
H19 C22 0.980 . S
H20 C22 0.981 . S
H21 C22 0.981 . S
C22 C14 1.481 . S
C22 H19 0.980 . S
C22 H20 0.981 . S
C22 H21 0.981 . S
C23 C10 1.481 . S
C23 H24 0.980 . S
C23 H25 0.981 . S
C23 H26 0.981 . S
H24 C23 0.980 . S
H25 C23 0.981 . S
H26 C23 0.981 . S
O27 Zn3 2.066 . S
O27 C6 1.256 . S
O28 Zn0 2.053 . S
O28 C6 1.244 . S
C29 O7 1.259 . S
C29 O8 1.254 . S
O30 Zn0 2.066 . S
O30 C2 1.256 . S
O31 C2 1.244 . S
O31 Zn3 2.053 . S
Zn32 O33 2.055 . S
Zn32 O40 2.046 . S
Zn32 N48 2.036 . S
Zn32 O60 2.053 . S
Zn32 O62 2.066 . S
O33 Zn32 2.055 . S
O33 C36 1.259 . S
C34 O62 1.256 . S
C34 O63 1.244 . S
Zn35 O37 2.046 . S
Zn35 O39 2.055 . S
Zn35 N41 2.036 . S
Zn35 O59 2.066 . S
Zn35 O63 2.053 . S
C36 O33 1.259 . S
C36 O37 1.254 . S
O37 Zn35 2.046 . S
O37 C36 1.254 . S
C38 O59 1.256 . S
C38 O60 1.244 . S
O39 Zn35 2.055 . S
O39 C61 1.259 . S
O40 Zn32 2.046 . S
O40 C61 1.254 . S
N41 Zn35 2.036 . S
N41 C42 1.298 . S
N41 N44 1.398 . S
C42 N41 1.298 . S
C42 N45 1.367 . S
C42 C55 1.481 1_545 S
C43 N44 1.299 . S
C43 N45 1.379 . S
N44 N41 1.398 . S
N44 C43 1.299 . S
N45 C42 1.367 . S
N45 C43 1.379 . S
C46 N48 1.298 . S
C46 N50 1.367 1_655 S
C46 C54 1.481 . S
C47 N49 1.299 . S
C47 N50 1.379 . S
N48 Zn32 2.036 . S
N48 C46 1.298 . S
N48 N49 1.398 1_655 S
N49 C47 1.299 . S
N49 N48 1.398 1_455 S
N50 C46 1.367 1_455 S
N50 C47 1.379 . S
H51 C54 0.980 . S
H52 C54 0.981 . S
H53 C54 0.981 . S
C54 C46 1.481 . S
C54 H51 0.980 . S
C54 H52 0.981 . S
C54 H53 0.981 . S
C55 C42 1.481 1_565 S
C55 H56 0.980 1_565 S
C55 H57 0.981 . S
C55 H58 0.981 . S
H56 C55 0.980 1_545 S
H57 C55 0.981 . S
H58 C55 0.981 . S
O59 Zn35 2.066 . S
O59 C38 1.256 . S
O60 Zn32 2.053 . S
O60 C38 1.244 . S
C61 O39 1.259 . S
C61 O40 1.254 . S
O62 Zn32 2.066 . S
O62 C34 1.256 . S
O63 C34 1.244 . S
O63 Zn35 2.053 . S
Zn64 O65 2.055 . S
Zn64 O72 2.046 . S
Zn64 N80 2.036 . S
Zn64 O92 2.053 . S
Zn64 O94 2.066 . S
O65 Zn64 2.055 . S
O65 C68 1.259 . S
C66 O94 1.256 . S
C66 O95 1.244 . S
Zn67 O69 2.046 . S
Zn67 O71 2.055 . S
Zn67 N73 2.036 . S
Zn67 O91 2.066 . S
Zn67 O95 2.053 . S
C68 O65 1.259 . S
C68 O69 1.254 . S
O69 Zn67 2.046 . S
O69 C68 1.254 . S
C70 O91 1.256 . S
C70 O92 1.244 . S
O71 Zn67 2.055 . S
O71 C93 1.259 . S
O72 Zn64 2.046 . S
O72 C93 1.254 . S
N73 Zn67 2.036 . S
N73 C74 1.298 . S
N73 N76 1.398 . S
C74 N73 1.298 . S
C74 N77 1.367 . S
C74 C87 1.481 . S
C75 N76 1.299 . S
C75 N77 1.379 . S
N76 N73 1.398 . S
N76 C75 1.299 . S
N77 C74 1.367 . S
N77 C75 1.379 . S
C78 N80 1.298 . S
C78 N82 1.367 1_455 S
C78 C86 1.481 . S
C79 N81 1.299 1_655 S
C79 N82 1.379 . S
N80 Zn64 2.036 . S
N80 C78 1.298 . S
N80 N81 1.398 . S
N81 C79 1.299 1_455 S
N81 N80 1.398 . S
N82 C78 1.367 1_655 S
N82 C79 1.379 . S
H83 C86 0.980 . S
H84 C86 0.981 . S
H85 C86 0.981 . S
C86 C78 1.481 . S
C86 H83 0.980 . S
C86 H84 0.981 . S
C86 H85 0.981 . S
C87 C74 1.481 . S
C87 H88 0.980 . S
C87 H89 0.981 . S
C87 H90 0.981 . S
H88 C87 0.980 . S
H89 C87 0.981 . S
H90 C87 0.981 . S
O91 Zn67 2.066 . S
O91 C70 1.256 . S
O92 Zn64 2.053 . S
O92 C70 1.244 . S
C93 O71 1.259 . S
C93 O72 1.254 . S
O94 Zn64 2.066 . S
O94 C66 1.256 . S
O95 C66 1.244 . S
O95 Zn67 2.053 . S
Zn96 O97 2.055 . S
Zn96 O104 2.046 . S
Zn96 N112 2.036 . S
Zn96 O124 2.053 . S
Zn96 O126 2.066 . S
O97 Zn96 2.055 . S
O97 C100 1.259 . S
C98 O126 1.256 . S
C98 O127 1.244 . S
Zn99 O101 2.046 . S
Zn99 O103 2.055 . S
Zn99 N105 2.036 . S
Zn99 O123 2.066 . S
Zn99 O127 2.053 . S
C100 O97 1.259 . S
C100 O101 1.254 . S
O101 Zn99 2.046 . S
O101 C100 1.254 . S
C102 O123 1.256 . S
C102 O124 1.244 . S
O103 Zn99 2.055 . S
O103 C125 1.259 . S
O104 Zn96 2.046 . S
O104 C125 1.254 . S
N105 Zn99 2.036 . S
N105 C106 1.298 . S
N105 N108 1.398 1_565 S
C106 N105 1.298 . S
C106 N109 1.367 1_565 S
C106 C119 1.481 . S
C107 N108 1.299 . S
C107 N109 1.379 . S
N108 N105 1.398 1_545 S
N108 C107 1.299 . S
N109 C106 1.367 1_545 S
N109 C107 1.379 . S
C110 N112 1.298 . S
C110 N114 1.367 . S
C110 C118 1.481 . S
C111 N113 1.299 . S
C111 N114 1.379 . S
N112 Zn96 2.036 . S
N112 C110 1.298 . S
N112 N113 1.398 . S
N113 C111 1.299 . S
N113 N112 1.398 . S
N114 C110 1.367 . S
N114 C111 1.379 . S
H115 C118 0.980 . S
H116 C118 0.981 . S
H117 C118 0.981 . S
C118 C110 1.481 . S
C118 H115 0.980 . S
C118 H116 0.981 . S
C118 H117 0.981 . S
C119 C106 1.481 . S
C119 H120 0.980 . S
C119 H121 0.981 . S
C119 H122 0.981 . S
H120 C119 0.980 . S
H121 C119 0.981 . S
H122 C119 0.981 . S
O123 Zn99 2.066 . S
O123 C102 1.256 . S
O124 Zn96 2.053 . S
O124 C102 1.244 . S
C125 O103 1.259 . S
C125 O104 1.254 . S
O126 Zn96 2.066 . S
O126 C98 1.256 . S
O127 C98 1.244 . S
O127 Zn99 2.053 . S
H128 C136 0.950 . S
H129 C141 0.950 . S
H130 C138 0.950 . S
H131 C140 0.949 1_554 S
H132 C142 0.950 . S
H133 C144 0.950 . S
H134 C146 0.950 . S
H135 C147 0.950 . S
C136 H128 0.950 . S
C136 C137 1.386 . S
C136 C138 1.391 1_556 S
C137 C136 1.386 . S
C137 C141 1.393 . S
C138 H130 0.950 . S
C138 C136 1.391 1_554 S
C138 C139 1.400 . S
C139 C138 1.400 . S
C139 C140 1.398 1_554 S
C139 C145 1.491 . S
C140 H131 0.949 1_556 S
C140 C139 1.398 1_556 S
C140 C141 1.391 . S
C141 H129 0.950 . S
C141 C137 1.393 . S
C141 C140 1.391 . S
C142 H132 0.950 . S
C142 C143 1.386 . S
C142 C144 1.391 . S
C143 C142 1.386 . S
C143 C147 1.393 . S
C144 H133 0.950 . S
C144 C142 1.391 . S
C144 C145 1.400 . S
C145 C139 1.491 . S
C145 C144 1.400 . S
C145 C146 1.398 . S
C146 H134 0.950 . S
C146 C145 1.398 . S
C146 C147 1.391 . S
C147 H135 0.950 . S
C147 C143 1.393 . S
C147 C146 1.391 . S
H148 C156 0.950 1_545 S
H149 C161 0.950 . S
H150 C158 0.950 . S
H151 C160 0.950 . S
H152 C162 0.950 . S
H153 C164 0.950 . S
H154 C166 0.950 . S
H155 C167 0.950 . S
C156 H148 0.950 1_565 S
C156 C157 1.386 . S
C156 C158 1.391 1_565 S
C157 C156 1.386 . S
C157 C161 1.393 . S
C158 H150 0.950 . S
C158 C156 1.391 1_545 S
C158 C159 1.400 1_545 S
C159 C158 1.400 1_565 S
C159 C160 1.398 . S
C159 C165 1.491 . S
C160 H151 0.950 . S
C160 C159 1.398 . S
C160 C161 1.391 . S
C161 H149 0.950 . S
C161 C157 1.393 . S
C161 C160 1.391 . S
C162 H152 0.950 . S
C162 C163 1.386 1_565 S
C162 C164 1.391 . S
C163 C162 1.386 1_545 S
C163 C167 1.393 . S
C164 H153 0.950 . S
C164 C162 1.391 . S
C164 C165 1.400 . S
C165 C159 1.491 . S
C165 C164 1.400 . S
C165 C166 1.398 1_565 S
C166 H154 0.950 . S
C166 C165 1.398 1_545 S
C166 C167 1.391 . S
C167 H155 0.950 . S
C167 C163 1.393 . S
C167 C166 1.391 . S
H168 C176 0.950 . S
H169 C181 0.950 . S
H170 C178 0.950 . S
H171 C180 0.950 . S
H172 C182 0.950 . S
H173 C184 0.950 . S
H174 C186 0.950 . S
H175 C187 0.950 . S
C176 H168 0.950 . S
C176 C177 1.386 . S
C176 C178 1.391 . S
C177 C176 1.386 . S
C177 C181 1.393 . S
C178 H170 0.950 . S
C178 C176 1.391 . S
C178 C179 1.400 . S
C179 C178 1.400 . S
C179 C180 1.398 . S
C179 C185 1.491 . S
C180 H171 0.950 . S
C180 C179 1.398 . S
C180 C181 1.391 . S
C181 H169 0.950 . S
C181 C177 1.393 . S
C181 C180 1.391 . S
C182 H172 0.950 . S
C182 C183 1.386 . S
C182 C184 1.391 . S
C183 C182 1.386 . S
C183 C187 1.393 . S
C184 H173 0.950 . S
C184 C182 1.391 . S
C184 C185 1.400 . S
C185 C179 1.491 . S
C185 C184 1.400 . S
C185 C186 1.398 . S
C186 H174 0.950 . S
C186 C185 1.398 . S
C186 C187 1.391 . S
C187 H175 0.950 . S
C187 C183 1.393 . S
C187 C186 1.391 . S
H188 C196 0.950 1_545 S
H189 C201 0.950 . S
H190 C198 0.950 . S
H191 C200 0.950 . S
H192 C202 0.950 . S
H193 C204 0.950 . S
H194 C206 0.950 . S
H195 C207 0.950 . S
C196 H188 0.950 1_565 S
C196 C197 1.386 . S
C196 C198 1.391 1_564 S
C197 C196 1.386 . S
C197 C201 1.393 . S
C198 H190 0.950 . S
C198 C196 1.391 1_546 S
C198 C199 1.400 1_545 S
C199 C198 1.400 1_565 S
C199 C200 1.398 . S
C199 C205 1.491 . S
C200 H191 0.950 . S
C200 C199 1.398 . S
C200 C201 1.391 1_556 S
C201 H189 0.950 . S
C201 C197 1.393 . S
C201 C200 1.391 1_554 S
C202 H192 0.950 . S
C202 C203 1.386 1_565 S
C202 C204 1.391 . S
C203 C202 1.386 1_545 S
C203 C207 1.393 . S
C204 H193 0.950 . S
C204 C202 1.391 . S
C204 C205 1.400 . S
C205 C199 1.491 . S
C205 C204 1.400 . S
C205 C206 1.398 1_565 S
C206 H194 0.950 . S
C206 C205 1.398 1_545 S
C206 C207 1.391 . S
C207 H195 0.950 . S
C207 C203 1.393 . S
C207 C206 1.391 . S
H208 C216 0.950 . S
H209 C221 0.950 . S
H210 C218 0.950 . S
H211 C220 0.950 . S
H212 C222 0.950 . S
H213 C224 0.950 . S
H214 C226 0.950 . S
H215 C227 0.950 . S
C216 H208 0.950 . S
C216 C217 1.386 . S
C216 C218 1.391 . S
C217 C216 1.386 . S
C217 C221 1.393 . S
C218 H210 0.950 . S
C218 C216 1.391 . S
C218 C219 1.400 . S
C219 C218 1.400 . S
C219 C220 1.398 . S
C219 C225 1.491 . S
C220 H211 0.950 . S
C220 C219 1.398 . S
C220 C221 1.391 . S
C221 H209 0.950 . S
C221 C217 1.393 . S
C221 C220 1.391 . S
C222 H212 0.950 . S
C222 C223 1.386 . S
C222 C224 1.391 . S
C223 C222 1.386 . S
C223 C227 1.393 . S
C224 H213 0.950 . S
C224 C222 1.391 . S
C224 C225 1.400 . S
C225 C219 1.491 . S
C225 C224 1.400 . S
C225 C226 1.398 . S
C226 H214 0.950 . S
C226 C225 1.398 . S
C226 C227 1.391 . S
C227 H215 0.950 . S
C227 C223 1.393 . S
C227 C226 1.391 . S
H228 C236 0.950 . S
H229 C241 0.950 . S
H230 C238 0.950 1_655 S
H231 C240 0.950 . S
H232 C242 0.950 1_545 S
H233 C244 0.950 . S
H234 C246 0.950 . S
H235 C247 0.950 . S
C236 H228 0.950 . S
C236 C237 1.386 . S
C236 C238 1.391 . S
C237 C236 1.386 . S
C237 C241 1.393 . S
C238 H230 0.950 1_455 S
C238 C236 1.391 . S
C238 C239 1.400 . S
C239 C238 1.400 . S
C239 C240 1.398 . S
C239 C245 1.491 . S
C240 H231 0.950 . S
C240 C239 1.398 . S
C240 C241 1.391 . S
C241 H229 0.950 . S
C241 C237 1.393 . S
C241 C240 1.391 . S
C242 H232 0.950 1_565 S
C242 C243 1.386 1_465 S
C242 C244 1.391 . S
C243 C242 1.386 1_645 S
C243 C247 1.393 1_545 S
C244 H233 0.950 . S
C244 C242 1.391 . S
C244 C245 1.400 . S
C245 C239 1.491 . S
C245 C244 1.400 . S
C245 C246 1.398 1_455 S
C246 H234 0.950 . S
C246 C245 1.398 1_655 S
C246 C247 1.391 . S
C247 H235 0.950 . S
C247 C243 1.393 1_565 S
C247 C246 1.391 . S
H248 C256 0.950 . S
H249 C261 0.950 . S
H250 C258 0.950 1_554 S
H251 C260 0.950 . S
H252 C262 0.950 . S
H253 C264 0.950 . S
H254 C266 0.950 . S
H255 C267 0.950 . S
C256 H248 0.950 . S
C256 C257 1.386 . S
C256 C258 1.391 . S
C257 C256 1.386 . S
C257 C261 1.393 . S
C258 H250 0.950 1_556 S
C258 C256 1.391 . S
C258 C259 1.400 . S
C259 C258 1.400 . S
C259 C260 1.398 . S
C259 C265 1.491 . S
C260 H251 0.950 . S
C260 C259 1.398 . S
C260 C261 1.391 . S
C261 H249 0.950 . S
C261 C257 1.393 . S
C261 C260 1.391 . S
C262 H252 0.950 . S
C262 C263 1.386 1_556 S
C262 C264 1.391 . S
C263 C262 1.386 1_554 S
C263 C267 1.393 . S
C264 H253 0.950 . S
C264 C262 1.391 . S
C264 C265 1.400 . S
C265 C259 1.491 . S
C265 C264 1.400 . S
C265 C266 1.398 1_556 S
C266 H254 0.950 . S
C266 C265 1.398 1_554 S
C266 C267 1.391 . S
C267 H255 0.950 . S
C267 C263 1.393 . S
C267 C266 1.391 . S
H268 C276 0.950 . S
H269 C281 0.950 . S
H270 C278 0.950 . S
H271 C280 0.950 . S
H272 C282 0.950 . S
H273 C284 0.950 . S
H274 C286 0.950 . S
H275 C287 0.950 . S
C276 H268 0.950 . S
C276 C277 1.386 . S
C276 C278 1.391 . S
C277 C276 1.386 . S
C277 C281 1.393 . S
C278 H270 0.950 . S
C278 C276 1.391 . S
C278 C279 1.400 . S
C279 C278 1.400 . S
C279 C280 1.398 . S
C279 C285 1.491 . S
C280 H271 0.950 . S
C280 C279 1.398 . S
C280 C281 1.391 . S
C281 H269 0.950 . S
C281 C277 1.393 . S
C281 C280 1.391 . S
C282 H272 0.950 . S
C282 C283 1.386 . S
C282 C284 1.391 . S
C283 C282 1.386 . S
C283 C287 1.393 . S
C284 H273 0.950 . S
C284 C282 1.391 . S
C284 C285 1.400 . S
C285 C279 1.491 . S
C285 C284 1.400 . S
C285 C286 1.398 . S
C286 H274 0.950 . S
C286 C285 1.398 . S
C286 C287 1.391 . S
C287 H275 0.950 . S
C287 C283 1.393 . S
C287 C286 1.391 . S
H288 C296 0.950 . S
H289 C301 0.950 . S
H290 C298 0.950 . S
H291 C300 0.950 . S
H292 C302 0.950 . S
H293 C304 0.950 . S
H294 C306 0.950 . S
H295 C307 0.950 . S
C296 H288 0.950 . S
C296 C297 1.386 . S
C296 C298 1.391 . S
C297 C296 1.386 . S
C297 C301 1.393 . S
C298 H290 0.950 . S
C298 C296 1.391 . S
C298 C299 1.400 . S
C299 C298 1.400 . S
C299 C300 1.398 . S
C299 C305 1.491 . S
C300 H291 0.950 . S
C300 C299 1.398 . S
C300 C301 1.391 . S
C301 H289 0.950 . S
C301 C297 1.393 . S
C301 C300 1.391 . S
C302 H292 0.950 . S
C302 C303 1.386 . S
C302 C304 1.391 . S
C303 C302 1.386 . S
C303 C307 1.393 . S
C304 H293 0.950 . S
C304 C302 1.391 . S
C304 C305 1.400 . S
C305 C299 1.491 . S
C305 C304 1.400 . S
C305 C306 1.398 . S
C306 H294 0.950 . S
C306 C305 1.398 . S
C306 C307 1.391 . S
C307 H295 0.950 . S
C307 C303 1.393 . S
C307 C306 1.391 . S
H308 C316 0.950 1_655 S
H309 C321 0.950 . S
H310 C318 0.950 . S
H311 C320 0.950 . S
H312 C322 0.950 1_455 S
H313 C324 0.950 . S
H314 C326 0.950 . S
H315 C327 0.950 . S
C316 H308 0.950 1_455 S
C316 C317 1.386 . S
C316 C318 1.391 1_455 S
C317 C316 1.386 . S
C317 C321 1.393 . S
C318 H310 0.950 . S
C318 C316 1.391 1_655 S
C318 C319 1.400 1_655 S
C319 C318 1.400 1_455 S
C319 C320 1.398 . S
C319 C325 1.491 1_455 S
C320 H311 0.950 . S
C320 C319 1.398 . S
C320 C321 1.391 . S
C321 H309 0.950 . S
C321 C317 1.393 . S
C321 C320 1.391 . S
C322 H312 0.950 1_655 S
C322 C323 1.386 . S
C322 C324 1.391 1_655 S
C323 C322 1.386 . S
C323 C327 1.393 . S
C324 H313 0.950 . S
C324 C322 1.391 1_455 S
C324 C325 1.400 1_455 S
C325 C319 1.491 1_655 S
C325 C324 1.400 1_655 S
C325 C326 1.398 . S
C326 H314 0.950 . S
C326 C325 1.398 . S
C326 C327 1.391 . S
C327 H315 0.950 . S
C327 C323 1.393 . S
C327 C326 1.391 . S
H328 C336 0.950 . S
H329 C341 0.950 . S
H330 C338 0.950 . S
H331 C340 0.950 . S
H332 C342 0.950 . S
H333 C344 0.950 . S
H334 C346 0.950 . S
H335 C347 0.950 . S
C336 H328 0.950 . S
C336 C337 1.386 . S
C336 C338 1.391 . S
C337 C336 1.386 . S
C337 C341 1.393 . S
C338 H330 0.950 . S
C338 C336 1.391 . S
C338 C339 1.400 1_556 S
C339 C338 1.400 1_554 S
C339 C340 1.398 . S
C339 C345 1.491 . S
C340 H331 0.950 . S
C340 C339 1.398 . S
C340 C341 1.391 1_554 S
C341 H329 0.950 . S
C341 C337 1.393 . S
C341 C340 1.391 1_556 S
C342 H332 0.950 . S
C342 C343 1.386 . S
C342 C344 1.391 . S
C343 C342 1.386 . S
C343 C347 1.393 . S
C344 H333 0.950 . S
C344 C342 1.391 . S
C344 C345 1.400 . S
C345 C339 1.491 . S
C345 C344 1.400 . S
C345 C346 1.398 . S
C346 H334 0.950 . S
C346 C345 1.398 . S
C346 C347 1.391 . S
C347 H335 0.950 . S
C347 C343 1.393 . S
C347 C346 1.391 . S
H348 C356 0.950 . S
H349 C361 0.950 . S
H350 C358 0.950 . S
H351 C360 0.950 . S
H352 C362 0.950 . S
H353 C364 0.950 . S
H354 C366 0.950 . S
H355 C367 0.950 . S
C356 H348 0.950 . S
C356 C357 1.386 . S
C356 C358 1.391 . S
C357 C356 1.386 . S
C357 C361 1.393 . S
C358 H350 0.950 . S
C358 C356 1.391 . S
C358 C359 1.400 . S
C359 C358 1.400 . S
C359 C360 1.398 . S
C359 C365 1.491 . S
C360 H351 0.950 . S
C360 C359 1.398 . S
C360 C361 1.391 . S
C361 H349 0.950 . S
C361 C357 1.393 . S
C361 C360 1.391 . S
C362 H352 0.950 . S
C362 C363 1.386 . S
C362 C364 1.391 . S
C363 C362 1.386 . S
C363 C367 1.393 . S
C364 H353 0.950 . S
C364 C362 1.391 . S
C364 C365 1.400 . S
C365 C359 1.491 . S
C365 C364 1.400 . S
C365 C366 1.398 . S
C366 H354 0.950 . S
C366 C365 1.398 . S
C366 C367 1.391 . S
C367 H355 0.950 . S
C367 C363 1.393 . S
C367 C366 1.391 . S
C137 C93 1.244 . S
C143 N18 1.248 . S
C157 C102 1.654 . S
C163 C61 1.573 . S
C177 N77 0.970 . S
C183 C4 0.947 . S
C197 C98 1.509 . S
C203 N45 1.470 . S
C217 N50 1.150 . S
C223 C29 1.136 . S
C237 C66 1.899 . S
C243 C38 1.936 . S
C257 C68 1.191 . S
C263 C100 1.277 . S
C277 C6 1.503 . S
C283 N109 1.431 . S
C297 C36 1.177 . S
C303 N13 1.174 . S
C317 C70 2.198 . S
C323 C34 2.193 . S
C337 N82 1.001 . S
C343 N114 1.033 . S
C357 C125 1.493 . S
C363 C2 1.528 . S
