# Generated by pormake.
# Topology afw, (4)-cn, num edge types: 1
# Building blocks:
#     Node 0, Type 0, BuildingBlock: AZAVOO_clean_sbu_0, # of connection points: 4
#     Node 1, Type 0, BuildingBlock: AZAVOO_clean_sbu_0, # of connection points: 4
#     Node 2, Type 0, BuildingBlock: AZAVOO_clean_sbu_0, # of connection points: 4
#     Node 3, Type 0, BuildingBlock: AZAVOO_clean_sbu_0, # of connection points: 4
#     Node 4, Type 0, BuildingBlock: AZAVOO_clean_sbu_0, # of connection points: 4
#     Node 5, Type 0, BuildingBlock: AZAVOO_clean_sbu_0, # of connection points: 4
#     Node 6, Type 0, BuildingBlock: AZAVOO_clean_sbu_0, # of connection points: 4
#     Node 7, Type 0, BuildingBlock: AZAVOO_clean_sbu_0, # of connection points: 4
#     Node 8, Type 0, BuildingBlock: AZAVOO_clean_sbu_0, # of connection points: 4
#     Edge 9, Type (0, 0), BuildingBlock: TEMPAE_clean_linker_10, # of connection points: 2
#     Edge 10, Type (0, 0), BuildingBlock: TEMPAE_clean_linker_10, # of connection points: 2
#     Edge 11, Type (0, 0), BuildingBlock: TEMPAE_clean_linker_10, # of connection points: 2
#     Edge 12, Type (0, 0), BuildingBlock: TEMPAE_clean_linker_10, # of connection points: 2
#     Edge 13, Type (0, 0), BuildingBlock: TEMPAE_clean_linker_10, # of connection points: 2
#     Edge 14, Type (0, 0), BuildingBlock: TEMPAE_clean_linker_10, # of connection points: 2
#     Edge 15, Type (0, 0), BuildingBlock: TEMPAE_clean_linker_10, # of connection points: 2
#     Edge 16, Type (0, 0), BuildingBlock: TEMPAE_clean_linker_10, # of connection points: 2
#     Edge 17, Type (0, 0), BuildingBlock: TEMPAE_clean_linker_10, # of connection points: 2
#     Edge 18, Type (0, 0), BuildingBlock: TEMPAE_clean_linker_10, # of connection points: 2
#     Edge 19, Type (0, 0), BuildingBlock: TEMPAE_clean_linker_10, # of connection points: 2
#     Edge 20, Type (0, 0), BuildingBlock: TEMPAE_clean_linker_10, # of connection points: 2
#     Edge 21, Type (0, 0), BuildingBlock: TEMPAE_clean_linker_10, # of connection points: 2
#     Edge 22, Type (0, 0), BuildingBlock: TEMPAE_clean_linker_10, # of connection points: 2
#     Edge 23, Type (0, 0), BuildingBlock: TEMPAE_clean_linker_10, # of connection points: 2
#     Edge 24, Type (0, 0), BuildingBlock: TEMPAE_clean_linker_10, # of connection points: 2
#     Edge 25, Type (0, 0), BuildingBlock: TEMPAE_clean_linker_10, # of connection points: 2
#     Edge 26, Type (0, 0), BuildingBlock: TEMPAE_clean_linker_10, # of connection points: 2
# Relax obj value: 0.306
# Max RMSD: 0.283
# Mean RMSD: 0.260
data_MOF--net-afw--node1-AZAVOO_clean_sbu_0--edge1-TEMPAE_clean_linker_10
_symmetry_space_group_name_H-M    P1
_symmetry_Int_Tables_number       1
_symmetry_cell_setting            triclinic
loop_
_symmetry_equiv_pos_as_xyz
'x, y, z'
_cell_length_a     40.355509
_cell_length_b     38.286801
_cell_length_c     37.056738
_cell_angle_alpha  90.315441
_cell_angle_beta   90.322004
_cell_angle_gamma 120.25302
loop_
_atom_site_label
_atom_site_type_symbol
_atom_site_fract_x
_atom_site_fract_y
_atom_site_fract_z
_atom_type_partial_charge
Mg0 Mg 0.06579 0.27908 0.06821 0.0
O1 O 0.00608 0.22278 0.06757 0.0
O2 O 0.96274 0.24273 0.07026 0.0
Mg3 Mg 0.99528 0.31145 0.08091 0.0
C4 C 0.97142 0.21505 0.06737 0.0
C5 C 0.11503 0.23857 0.06589 0.0
O6 O 0.12385 0.25595 0.09792 0.0
O7 O 0.05632 0.29612 0.01165 0.0
O8 O 0.01931 0.32294 0.02388 0.0
O9 O 0.0694 0.27718 0.12887 0.0
O10 O 0.0465 0.31009 0.09843 0.0
C11 C 0.03942 0.31534 0.0022 0.0
C12 C 0.054 0.29975 0.1288 0.0
O13 O 0.09106 0.24217 0.04624 0.0
Mg14 Mg 0.77941 0.83623 -0.00855 0.0
O15 O 0.79761 0.9014 0.0058 0.0
O16 O 0.74571 0.90707 0.01338 0.0
Mg17 Mg 0.69379 0.84576 -0.0036 0.0
C18 C 0.78203 0.9222 0.01375 0.0
C19 C 0.86742 0.87856 -0.00974 0.0
O20 O 0.8602 0.89949 0.96675 0.0
O21 O 0.75614 0.81366 0.04798 0.0
O22 O 0.70081 0.81377 0.04543 0.0
O23 O 0.7813 0.8489 0.93232 0.0
O24 O 0.7301 0.82812 0.96611 0.0
C25 C 0.72363 0.80466 0.06129 0.0
C26 C 0.74538 0.83808 0.93477 0.0
O27 O 0.8395 0.84931 0.00622 0.0
Mg28 Mg 0.22525 0.9839 -0.00658 0.0
O29 O 0.21934 0.03962 -0.0041 0.0
O30 O 0.27428 0.09561 0.98373 0.0
Mg31 Mg 0.31733 0.07451 0.97285 0.0
C32 C 0.23886 0.07773 -0.00803 0.0
C33 C 0.14394 0.95471 0.02076 0.0
O34 O 0.16551 0.98044 0.04609 0.0
O35 O 0.22573 0.98512 0.93191 0.0
O36 O 0.28367 0.03911 0.92269 0.0
O37 O 0.24539 0.99386 0.05105 0.0
O38 O 0.28365 0.01885 0.0042 0.0
C39 C 0.25242 0.00906 0.91081 0.0
C40 C 0.27973 0.01579 0.03857 0.0
O41 O 0.16006 0.94695 -0.00496 0.0
Mg42 Mg 0.56855 0.51912 0.28222 0.0
O43 O 0.62793 0.52513 0.28408 0.0
O44 O 0.67242 0.58941 0.29553 0.0
Mg45 Mg 0.64104 0.62408 0.30513 0.0
C46 C 0.66286 0.55283 0.28856 0.0
C47 C 0.55034 0.43206 0.25913 0.0
O48 O 0.57367 0.45319 0.23305 0.0
O49 O 0.56758 0.52111 0.34362 0.0
O50 O 0.61261 0.58554 0.35494 0.0
O51 O 0.57808 0.53819 0.22419 0.0
O52 O 0.59363 0.5805 0.27025 0.0
C53 C 0.58762 0.55028 0.36543 0.0
C54 C 0.59424 0.57512 0.23606 0.0
O55 O 0.54179 0.45026 0.28287 0.0
Mg56 Mg 0.5255 0.08639 0.26696 0.0
O57 O 0.51043 0.13582 0.27596 0.0
O58 O 0.44774 0.11034 0.26641 0.0
Mg59 Mg 0.42177 0.04218 0.25555 0.0
C60 C 0.48112 0.14009 0.27372 0.0
C61 C 0.61273 0.13861 0.26774 0.0
O62 O 0.6054 0.12125 0.23572 0.0
O63 O 0.50234 0.0597 0.32233 0.0
O64 O 0.43926 0.03115 0.31145 0.0
O65 O 0.52971 0.10102 0.20837 0.0
O66 O 0.47708 0.05375 0.23477 0.0
C67 C 0.46746 0.03835 0.33218 0.0
C68 C 0.49347 0.07461 0.20663 0.0
O69 O 0.58505 0.12938 0.28908 0.0
Mg70 Mg 0.93474 0.46946 0.32965 0.0
O71 O 0.88487 0.40441 0.32313 0.0
O72 O 0.90407 0.36088 0.33788 0.0
Mg73 Mg 0.96568 0.39848 0.35776 0.0
C74 C 0.87834 0.36835 0.32671 0.0
C75 C 0.87275 0.48371 0.29328 0.0
O76 O 0.87898 0.46526 0.26643 0.0
O77 O 0.92559 0.46594 0.39033 0.0
O78 O 0.94381 0.42113 0.40365 0.0
O79 O 0.9543 0.46528 0.27442 0.0
O80 O 0.97368 0.44931 0.32433 0.0
C81 C 0.93045 0.4438 0.41282 0.0
C82 C 0.97307 0.45004 0.28968 0.0
O83 O 0.89211 0.49091 0.32231 0.0
Mg84 Mg 0.38906 0.91325 0.66241 0.0
O85 O 0.33641 0.84991 0.65815 0.0
O86 O 0.28614 0.85518 0.64036 0.0
Mg87 Mg 0.3061 0.92271 0.63653 0.0
C88 C 0.30102 0.83396 0.6496 0.0
C89 C 0.45187 0.88963 0.64015 0.0
O90 O 0.45827 0.91411 0.61302 0.0
O91 O 0.39309 0.91994 0.60135 0.0
O92 O 0.34542 0.93174 0.58876 0.0
O93 O 0.37522 0.91597 0.71984 0.0
O94 O 0.3534 0.93658 0.67478 0.0
C95 C 0.37457 0.92933 0.57922 0.0
C96 C 0.35335 0.92953 0.70874 0.0
O97 O 0.42687 0.88455 0.6635 0.0
Mg98 Mg 0.09314 0.44205 0.67448 0.0
O99 O 0.12333 0.51078 0.6794 0.0
O100 O 0.08067 0.52829 0.69659 0.0
Mg101 Mg 0.02199 0.47004 0.69967 0.0
C102 C 0.11468 0.53754 0.68781 0.0
C103 C 0.16812 0.44401 0.64821 0.0
O104 O 0.15096 0.43751 0.61662 0.0
O105 O 0.08865 0.43501 0.73487 0.0
O106 O 0.04069 0.44617 0.74792 0.0
O107 O 0.08153 0.44737 0.61721 0.0
O108 O 0.04209 0.44043 0.66145 0.0
C109 C 0.0651 0.43584 0.75711 0.0
C110 C 0.05073 0.44685 0.6278 0.0
O111 O 0.15128 0.44641 0.67616 0.0
Mg112 Mg 0.53325 0.61349 0.69571 0.0
O113 O 0.53711 0.6709 0.67305 0.0
O114 O 0.59842 0.71994 0.66946 0.0
Mg115 Mg 0.6338 0.69017 0.68298 0.0
C116 C 0.56262 0.70734 0.66628 0.0
C117 C 0.44905 0.54258 0.67808 0.0
O118 O 0.46456 0.51976 0.68192 0.0
O119 O 0.54691 0.59778 0.64115 0.0
O120 O 0.60762 0.64731 0.63367 0.0
O121 O 0.53709 0.63918 0.75006 0.0
O122 O 0.58755 0.64799 0.71876 0.0
C123 C 0.57726 0.61571 0.62236 0.0
C124 C 0.57393 0.65688 0.74642 0.0
O125 O 0.46979 0.58062 0.68216 0.0
C126 C 0.18183 0.08227 0.01106 0.0
C127 C 0.21983 0.10161 -0.00122 0.0
C128 C 0.16399 0.1044 0.02004 0.0
C129 C 0.18452 0.14693 0.01643 0.0
C130 C 0.22237 0.16657 0.00289 0.0
C131 C 0.23965 0.14368 -0.00566 0.0
C132 C 0.1236 0.08232 0.03451 0.0
C133 C 0.24492 0.21187 -0.00171 0.0
C134 C 0.12752 0.20116 0.0172 0.0
C135 C 0.1329 0.21533 0.05297 0.0
C136 C 0.14452 0.17922 0.00473 0.0
C137 C 0.1671 0.171 0.02872 0.0
C138 C 0.17258 0.18518 0.06485 0.0
C139 C 0.15555 0.20732 0.07649 0.0
C140 C 0.13826 0.16475 0.96597 0.0
C141 C 0.1962 0.17666 0.09131 0.0
H142 H 0.1661 0.04976 0.01446 0.0
H143 H 0.26889 0.15886 0.98466 0.0
H144 H 0.12371 0.09174 0.0629 0.0
H145 H 0.1049 0.09027 0.0188 0.0
H146 H 0.1108 0.04894 0.03361 0.0
H147 H 0.27299 0.22218 0.98515 0.0
H148 H 0.22824 0.22191 0.98184 0.0
H149 H 0.25021 0.22701 0.02504 0.0
H150 H 0.11015 0.20737 -0.00116 0.0
H151 H 0.15976 0.21808 0.10419 0.0
H152 H 0.12365 0.13126 0.96496 0.0
H153 H 0.16628 0.17646 0.95239 0.0
H154 H 0.12069 0.17452 0.95054 0.0
H155 H 0.18365 0.14353 0.09414 0.0
H156 H 0.19778 0.18996 0.11842 0.0
H157 H 0.22579 0.18903 0.08109 0.0
C158 C 0.7974 0.98459 0.04919 0.0
C159 C 0.80729 0.96554 0.02245 0.0
C160 C 0.82237 0.02541 0.05848 0.0
C161 C 0.85729 0.04789 0.03964 0.0
C162 C 0.86676 0.02894 0.01189 0.0
C163 C 0.84197 0.98784 0.0041 0.0
C164 C 0.8119 0.04417 0.08904 0.0
C165 C 0.90312 0.05205 -0.00959 0.0
C166 C 0.90888 0.16288 0.04024 0.0
C167 C 0.94053 0.17259 0.06261 0.0
C168 C 0.88116 0.12236 0.03288 0.0
C169 C 0.88457 0.09096 0.04932 0.0
C170 C 0.91558 0.10079 0.0733 0.0
C171 C 0.94359 0.14148 0.07911 0.0
C172 C 0.84927 0.11316 0.00626 0.0
C173 C 0.91963 0.0683 0.09226 0.0
H174 H 0.7707 0.96724 0.06357 0.0
H175 H 0.84948 0.9732 0.98317 0.0
H176 H 0.83426 0.05482 0.11052 0.0
H177 H 0.81085 0.07096 0.07939 0.0
H178 H 0.78374 0.02259 0.10101 0.0
H179 H 0.90495 0.03355 0.96815 0.0
H180 H 0.90472 0.07949 0.97872 0.0
H181 H 0.92848 0.06225 0.00835 0.0
H182 H 0.90672 0.18696 0.02724 0.0
H183 H 0.96793 0.14903 0.09665 0.0
H184 H 0.82097 0.09294 0.01853 0.0
H185 H 0.85184 0.09698 0.98246 0.0
H186 H 0.84985 0.14096 -0.00316 0.0
H187 H 0.89234 0.04679 0.10559 0.0
H188 H 0.94298 0.08103 0.11287 0.0
H189 H 0.92594 0.0508 0.07228 0.0
C190 C 0.91539 0.86482 0.02053 0.0
C191 C 0.90742 0.88849 -0.00276 0.0
C192 C 0.95323 0.87354 0.02646 0.0
C193 C 0.98373 0.90671 0.00871 0.0
C194 C 0.97591 0.93098 0.98553 0.0
C195 C 0.93787 0.92157 0.98007 0.0
C196 C 0.96056 0.84713 0.0515 0.0
C197 C 0.00771 0.96676 0.96626 0.0
C198 C 0.08598 0.95469 0.04406 0.0
C199 C 0.10214 0.93924 0.01985 0.0
C200 C 0.04718 0.9435 0.04138 0.0
C201 C 0.02393 0.91602 0.01397 0.0
C202 C 0.03972 0.89924 -0.00977 0.0
C203 C 0.07869 0.91113 -0.0066 0.0
C204 C 0.03146 0.96227 0.06705 0.0
C205 C 0.01576 0.86976 0.96071 0.0
H206 H 0.89204 0.83925 0.03394 0.0
H207 H 0.93202 0.94013 0.96214 0.0
H208 H 0.97461 0.83298 0.03655 0.0
H209 H 0.98046 0.86577 0.07355 0.0
H210 H 0.93375 0.82283 0.06363 0.0
H211 H -0.00316 0.98294 0.94957 0.0
H212 H 0.02882 0.98843 0.98614 0.0
H213 H 0.02325 0.9565 0.94848 0.0
H214 H 0.10391 0.97656 0.0645 0.0
H215 H 0.09095 0.899 0.97465 0.0
H216 H 0.00505 0.93842 0.08002 0.0
H217 H 0.02353 0.98192 0.05186 0.0
H218 H 0.05253 0.9808 0.08847 0.0
H219 H 0.98946 0.84413 0.97219 0.0
H220 H 0.03169 0.85756 0.94596 0.0
H221 H 0.00648 0.885 0.94109 0.0
C222 C 0.82501 0.49276 0.25726 0.0
C223 C 0.84216 0.49407 0.29064 0.0
C224 C 0.79555 0.502 0.25469 0.0
C225 C 0.78267 0.51219 0.28633 0.0
C226 C 0.7997 0.51329 0.32011 0.0
C227 C 0.82942 0.50449 0.32182 0.0
C228 C 0.77834 0.50106 0.21815 0.0
C229 C 0.7864 0.52356 0.35451 0.0
C230 C 0.7317 0.57244 0.28199 0.0
C231 C 0.69324 0.54211 0.28606 0.0
C232 C 0.76098 0.56293 0.28081 0.0
C233 C 0.75163 0.52219 0.2843 0.0
C234 C 0.71283 0.49132 0.28776 0.0
C235 C 0.68404 0.50164 0.28835 0.0
C236 C 0.802 0.59657 0.27651 0.0
C237 C 0.70182 0.44757 0.29194 0.0
H238 H 0.83479 0.48478 0.23307 0.0
H239 H 0.84234 0.50526 0.34776 0.0
H240 H 0.74711 0.47891 0.21811 0.0
H241 H 0.78181 0.53111 0.21228 0.0
H242 H 0.7918 0.49284 0.19613 0.0
H243 H 0.80211 0.52223 0.37869 0.0
H244 H 0.7905 0.55441 0.35279 0.0
H245 H 0.75529 0.50227 0.35821 0.0
H246 H 0.73899 0.60374 0.27979 0.0
H247 H 0.65439 0.47803 0.29151 0.0
H248 H 0.81548 0.5897 0.25363 0.0
H249 H 0.81879 0.5991 0.30118 0.0
H250 H 0.80417 0.62627 0.27171 0.0
H251 H 0.71353 0.43802 0.2694 0.0
H252 H 0.67023 0.42704 0.29265 0.0
H253 H 0.71446 0.44392 0.31731 0.0
C254 C 0.52163 0.21337 0.29031 0.0
C255 C 0.48705 0.18159 0.27632 0.0
C256 C 0.52972 0.25356 0.2892 0.0
C257 C 0.50273 0.26235 0.27346 0.0
C258 C 0.46724 0.23033 0.26034 0.0
C259 C 0.45975 0.19031 0.26206 0.0
C260 C 0.56776 0.28676 0.3038 0.0
C261 C 0.43783 0.23848 0.24314 0.0
C262 C 0.51569 0.3664 0.29243 0.0
C263 C 0.53608 0.38806 0.26197 0.0
C264 C 0.50401 0.32527 0.29628 0.0
C265 C 0.51271 0.30524 0.26894 0.0
C266 C 0.53247 0.32669 0.23775 0.0
C267 C 0.544 0.36781 0.23471 0.0
C268 C 0.48316 0.30351 0.32998 0.0
C269 C 0.54211 0.30639 0.20788 0.0
H270 H 0.54284 0.20696 0.30154 0.0
H271 H 0.43308 0.16604 0.25093 0.0
H272 H 0.5851 0.3066 0.28144 0.0
H273 H 0.56318 0.30588 0.32342 0.0
H274 H 0.58452 0.27469 0.31728 0.0
H275 H 0.41065 0.21016 0.23651 0.0
H276 H 0.43135 0.25729 0.26138 0.0
H277 H 0.44954 0.25574 0.21791 0.0
H278 H 0.50947 0.38176 0.31367 0.0
H279 H 0.55961 0.38419 0.21102 0.0
H280 H 0.50069 0.29358 0.34519 0.0
H281 H 0.45566 0.27595 0.32275 0.0
H282 H 0.47708 0.32285 0.34799 0.0
H283 H 0.56185 0.29647 0.21832 0.0
H284 H 0.55592 0.32671 0.18463 0.0
H285 H 0.51573 0.27897 0.19813 0.0
C286 C 0.66009 0.18964 0.31147 0.0
C287 C 0.65214 0.17055 0.27754 0.0
C288 C 0.69697 0.22144 0.32024 0.0
C289 C 0.72648 0.23449 0.2944 0.0
C290 C 0.71879 0.21501 0.2603 0.0
C291 C 0.68172 0.1832 0.25231 0.0
C292 C 0.70426 0.24141 0.35697 0.0
C293 C 0.74957 0.22819 0.23205 0.0
C294 C 0.81154 0.34104 0.3028 0.0
C295 C 0.83954 0.33409 0.31819 0.0
C296 C 0.77458 0.30887 0.29496 0.0
C297 C 0.76537 0.26885 0.30284 0.0
C298 C 0.7934 0.2616 0.31841 0.0
C299 C 0.83019 0.29429 0.32581 0.0
C300 C 0.74543 0.31769 0.27813 0.0
C301 C 0.78451 0.2193 0.32731 0.0
H302 H 0.63738 0.18001 0.33111 0.0
H303 H 0.67582 0.16864 0.22601 0.0
H304 H 0.72799 0.24005 0.3709 0.0
H305 H 0.71332 0.27382 0.35397 0.0
H306 H 0.67848 0.22696 0.37433 0.0
H307 H 0.73901 0.20949 0.20704 0.0
H308 H 0.76033 0.26024 0.22495 0.0
H309 H 0.77428 0.22629 0.2429 0.0
H310 H 0.81848 0.37165 0.29675 0.0
H311 H 0.85155 0.2886 0.33781 0.0
H312 H 0.7199 0.30626 0.29565 0.0
H313 H 0.73553 0.30172 0.25176 0.0
H314 H 0.75715 0.35054 0.27378 0.0
H315 H 0.76006 0.20512 0.34621 0.0
H316 H 0.80942 0.21886 0.33974 0.0
H317 H 0.7758 0.20035 0.30246 0.0
C318 C 0.49221 0.8637 0.61309 0.0
C319 C 0.47201 0.86636 0.64266 0.0
C320 C 0.50935 0.83962 0.6145 0.0
C321 C 0.50656 0.81812 0.64637 0.0
C322 C 0.48715 0.82163 0.67664 0.0
C323 C 0.46992 0.8455 0.67435 0.0
C324 C 0.52953 0.83631 0.5816 0.0
C325 C 0.48394 0.79955 0.71128 0.0
C326 C 0.5126 0.72246 0.64425 0.0
C327 C 0.5499 0.73642 0.65737 0.0
C328 C 0.49871 0.74908 0.63911 0.0
C329 C 0.5225 0.79058 0.64783 0.0
C330 C 0.56057 0.80508 0.6601 0.0
C331 C 0.57392 0.77784 0.66449 0.0
C332 C 0.4581 0.73253 0.62552 0.0
C333 C 0.58662 0.84902 0.67011 0.0
H334 H 0.49385 0.87963 0.58847 0.0
H335 H 0.45458 0.84761 0.6974 0.0
H336 H 0.5593 0.84435 0.5887 0.0
H337 H 0.51454 0.80459 0.57155 0.0
H338 H 0.53052 0.85621 0.55942 0.0
H339 H 0.46969 0.8072 0.73295 0.0
H340 H 0.46724 0.76643 0.70633 0.0
H341 H 0.51285 0.807 0.721 0.0
H342 H 0.49398 0.69051 0.63848 0.0
H343 H 0.60267 0.78877 0.67496 0.0
H344 H 0.4577 0.7502 0.60207 0.0
H345 H 0.44054 0.73545 0.64696 0.0
H346 H 0.44438 0.70018 0.61737 0.0
H347 H 0.58801 0.86871 0.64763 0.0
H348 H 0.6162 0.85596 0.67686 0.0
H349 H 0.57483 0.85683 0.6938 0.0
C350 C 0.24116 0.76897 0.63411 0.0
C351 C 0.27578 0.78976 0.65352 0.0
C352 C 0.21593 0.72751 0.63942 0.0
C353 C 0.2251 0.70665 0.66544 0.0
C354 C 0.26012 0.72745 0.68496 0.0
C355 C 0.28525 0.76864 0.67844 0.0
C356 C 0.1793 0.70611 0.6174 0.0
C357 C 0.27057 0.70648 0.71343 0.0
C358 C 0.14119 0.6108 0.70294 0.0
C359 C 0.14428 0.5807 0.68415 0.0
C360 C 0.1679 0.65192 0.69779 0.0
C361 C 0.19779 0.66318 0.67256 0.0
C362 C 0.20118 0.63291 0.6537 0.0
C363 C 0.17466 0.59204 0.66004 0.0
C364 C 0.16394 0.68334 0.71908 0.0
C365 C 0.23215 0.64368 0.62605 0.0
H366 H 0.2338 0.78513 0.61472 0.0
H367 H 0.31178 0.78465 0.69384 0.0
H368 H 0.17731 0.6794 0.6034 0.0
H369 H 0.15419 0.69489 0.63543 0.0
H370 H 0.1774 0.72613 0.59693 0.0
H371 H 0.299 0.72692 0.7261 0.0
H372 H 0.24853 0.69481 0.73485 0.0
H373 H 0.27103 0.68011 0.70148 0.0
H374 H 0.11787 0.60218 0.7217 0.0
H375 H 0.17697 0.56894 0.64512 0.0
H376 H 0.15808 0.70224 0.7005 0.0
H377 H 0.1912 0.70378 0.73357 0.0
H378 H 0.14044 0.66957 0.73907 0.0
H379 H 0.22912 0.66155 0.60415 0.0
H380 H 0.23104 0.6165 0.61391 0.0
H381 H 0.26086 0.66283 0.6386 0.0
C382 C 0.2285 0.45369 0.62014 0.0
C383 C 0.20789 0.45184 0.65113 0.0
C384 C 0.26733 0.46479 0.6225 0.0
C385 C 0.28588 0.47424 0.65665 0.0
C386 C 0.26481 0.47077 0.68814 0.0
C387 C 0.22608 0.4596 0.68501 0.0
C388 C 0.2889 0.46804 0.58835 0.0
C389 C 0.28356 0.48054 0.72507 0.0
C390 C 0.38295 0.48244 0.67044 0.0
C391 C 0.40755 0.5245 0.67034 0.0
C392 C 0.34325 0.46543 0.66506 0.0
C393 C 0.32798 0.49113 0.65938 0.0
C394 C 0.35282 0.53351 0.65822 0.0
C395 C 0.39225 0.54966 0.66374 0.0
C396 C 0.31756 0.42009 0.66644 0.0
C397 C 0.33765 0.56194 0.65209 0.0
H398 H 0.21461 0.44757 0.59388 0.0
H399 H 0.21033 0.45798 0.70914 0.0
H400 H 0.31041 0.50022 0.58344 0.0
H401 H 0.30475 0.45148 0.59116 0.0
H402 H 0.26956 0.45592 0.56442 0.0
H403 H 0.26253 0.47335 0.74704 0.0
H404 H 0.29868 0.46346 0.72963 0.0
H405 H 0.30535 0.5132 0.72681 0.0
H406 H 0.39457 0.46282 0.67543 0.0
H407 H 0.41107 0.58218 0.66333 0.0
H408 H 0.29911 0.40893 0.6419 0.0
H409 H 0.29825 0.41194 0.68998 0.0
H410 H 0.33413 0.4042 0.66868 0.0
H411 H 0.32026 0.55354 0.62688 0.0
H412 H 0.36099 0.59398 0.6502 0.0
H413 H 0.31857 0.55941 0.67461 0.0
C414 C 0.0464 0.31157 0.93551 0.0
C415 C 0.04583 0.33294 0.96601 0.0
C416 C 0.05084 0.32823 0.90097 0.0
C417 C 0.05606 0.36753 0.89736 0.0
C418 C 0.057 0.38972 0.92834 0.0
C419 C 0.05126 0.37187 0.96225 0.0
C420 C 0.04873 0.30338 0.86834 0.0
C421 C 0.06358 0.43212 0.92568 0.0
C422 C 0.09654 0.42446 0.81028 0.0
C423 C 0.06347 0.42037 0.7937 0.0
C424 C 0.09466 0.40749 0.84419 0.0
C425 C 0.05867 0.38495 0.86118 0.0
C426 C 0.02515 0.38043 0.84433 0.0
C427 C 0.02807 0.39875 0.811 0.0
C428 C 0.13112 0.41401 0.86198 0.0
C429 C 0.98617 0.35591 0.86132 0.0
H430 H 0.04214 0.28143 0.93858 0.0
H431 H 0.05142 0.38861 0.98602 0.0
H432 H 0.02404 0.29794 0.85099 0.0
H433 H 0.07499 0.32009 0.85195 0.0
H434 H 0.04539 0.27372 0.87583 0.0
H435 H 0.06651 0.44635 0.95261 0.0
H436 H 0.0899 0.45142 0.91002 0.0
H437 H 0.03923 0.43156 0.91109 0.0
H438 H 0.12392 0.4412 0.79684 0.0
H439 H 0.00237 0.39501 0.79789 0.0
H440 H 0.1291 0.3845 0.86715 0.0
H441 H 0.13517 0.42931 0.88851 0.0
H442 H 0.15682 0.4326 0.84526 0.0
H443 H 0.98045 0.32499 0.86726 0.0
H444 H 0.96272 0.35348 0.8437 0.0
H445 H 0.98547 0.36997 0.88734 0.0
C446 C 0.68069 0.80777 0.90638 0.0
C447 C 0.72066 0.82837 0.90234 0.0
C448 C 0.65621 0.78623 0.87749 0.0
C449 C 0.67215 0.78617 0.84361 0.0
C450 C 0.71204 0.81144 0.83817 0.0
C451 C 0.736 0.83207 0.86778 0.0
C452 C 0.61383 0.75977 0.88449 0.0
C453 C 0.72984 0.81357 0.80196 0.0
C454 C 0.62324 0.68521 0.79461 0.0
C455 C 0.59946 0.69026 0.77038 0.0
C456 C 0.64738 0.71656 0.8183 0.0
C457 C 0.64847 0.75416 0.81672 0.0
C458 C 0.62545 0.75978 0.79109 0.0
C459 C 0.60059 0.72734 0.76855 0.0
C460 C 0.67102 0.70906 0.84559 0.0
C461 C 0.6266 0.79965 0.78778 0.0
H462 H 0.6685 0.80527 0.93288 0.0
H463 H 0.76684 0.84852 0.86431 0.0
H464 H 0.59658 0.76245 0.86245 0.0
H465 H 0.6065 0.72768 0.88541 0.0
H466 H 0.60536 0.76749 0.91048 0.0
H467 H 0.75905 0.84051 0.8001 0.0
H468 H 0.73215 0.78615 0.79786 0.0
H469 H 0.71171 0.81449 0.77979 0.0
H470 H 0.62223 0.65638 0.79558 0.0
H471 H 0.5823 0.73102 0.74924 0.0
H472 H 0.66344 0.7135 0.87331 0.0
H473 H 0.70194 0.73104 0.84187 0.0
H474 H 0.66655 0.67802 0.84337 0.0
H475 H 0.61081 0.80329 0.81051 0.0
H476 H 0.61319 0.80153 0.76213 0.0
H477 H 0.65658 0.82527 0.78918 0.0
C478 C 0.30089 0.94474 0.72155 0.0
C479 C 0.32887 0.93615 0.73415 0.0
C480 C 0.27924 0.95344 0.74562 0.0
C481 C 0.28671 0.95489 0.78306 0.0
C482 C 0.31414 0.94511 0.79599 0.0
C483 C 0.33458 0.93545 0.77137 0.0
C484 C 0.24953 0.9626 0.73082 0.0
C485 C 0.32325 0.94665 0.83579 0.0
C486 C 0.27952 0.02535 0.84914 0.0
C487 C 0.25142 0.99765 0.87247 0.0
C488 C 0.28891 0.01221 0.81756 0.0
C489 C 0.26915 0.97047 0.80888 0.0
C490 C 0.23706 0.9433 0.82946 0.0
C491 C 0.22857 0.95721 0.86127 0.0
C492 C 0.32302 0.04235 0.79609 0.0
C493 C 0.21427 0.89886 0.82007 0.0
H494 H 0.29616 0.94535 0.6929 0.0
H495 H 0.3561 0.92881 0.78133 0.0
H496 H 0.2236 0.94925 0.74794 0.0
H497 H 0.26153 0.99579 0.7306 0.0
H498 H 0.24088 0.951 0.70276 0.0
H499 H 0.34449 0.93697 0.84143 0.0
H500 H 0.33497 0.97796 0.84624 0.0
H501 H 0.29675 0.92689 0.85099 0.0
H502 H 0.29666 0.05687 0.85719 0.0
H503 H 0.20637 0.93566 0.87884 0.0
H504 H 0.31659 0.03796 0.76676 0.0
H505 H 0.34761 0.03765 0.80129 0.0
H506 H 0.33189 0.07408 0.80344 0.0
H507 H 0.21002 0.89418 0.79044 0.0
H508 H 0.1858 0.88384 0.83329 0.0
H509 H 0.23024 0.88392 0.82931 0.0
C510 C 0.44333 0.03572 0.16123 0.0
C511 C 0.46939 0.0732 0.17647 0.0
C512 C 0.4147 0.03187 0.13737 0.0
C513 C 0.41145 0.06622 0.12966 0.0
C514 C 0.43836 0.10447 0.14446 0.0
C515 C 0.46745 0.10758 0.16755 0.0
C516 C 0.38709 0.99072 0.1215 0.0
C517 C 0.43519 0.14149 0.13752 0.0
C518 C 0.35051 0.05143 0.04718 0.0
C519 C 0.31392 0.0352 0.06234 0.0
C520 C 0.38311 0.06427 0.06898 0.0
C521 C 0.37904 0.06119 0.10685 0.0
C522 C 0.34264 0.04778 0.12244 0.0
C523 C 0.31033 0.03458 0.09993 0.0
C524 C 0.42136 0.07808 0.05134 0.0
C525 C 0.33743 0.04496 0.16284 0.0
H526 H 0.44477 0.00918 0.1688 0.0
H527 H 0.48713 0.13632 0.18038 0.0
H528 H 0.3578 0.98013 0.13179 0.0
H529 H 0.38585 0.99253 0.09169 0.0
H530 H 0.39527 0.96782 0.12831 0.0
H531 H 0.4603 0.16949 0.14839 0.0
H532 H 0.43248 0.14516 0.10817 0.0
H533 H 0.4089 0.1378 0.15046 0.0
H534 H 0.35359 0.05208 0.01813 0.0
H535 H 0.28218 0.02246 0.11176 0.0
H536 H 0.42942 0.05452 0.05471 0.0
H537 H 0.44417 0.10616 0.06442 0.0
H538 H 0.42063 0.08366 0.02203 0.0
H539 H 0.34045 0.01952 0.17307 0.0
H540 H 0.30879 0.0398 0.17071 0.0
H541 H 0.35988 0.073 0.1763 0.0
C542 C 0.01407 0.29609 0.18073 0.0
C543 C 0.04821 0.31711 0.16159 0.0
C544 C 0.00336 0.31664 0.20527 0.0
C545 C 0.02722 0.35902 0.20991 0.0
C546 C 0.0629 0.37969 0.19215 0.0
C547 C 0.07291 0.35836 0.16809 0.0
C548 C 0.96536 0.2936 0.22419 0.0
C549 C 0.08905 0.42484 0.19622 0.0
C550 C 0.97969 0.42024 0.23188 0.0
C551 C 0.98852 0.42867 0.26863 0.0
C552 C 0.99205 0.39741 0.21247 0.0
C553 C 0.01344 0.38249 0.2304 0.0
C554 C 0.02279 0.39127 0.26737 0.0
C555 C 0.0106 0.41468 0.28594 0.0
C556 C 0.98215 0.38918 0.17279 0.0
C557 C 0.04549 0.37579 0.28733 0.0
H558 H 0.99472 0.2643 0.17484 0.0
H559 H 0.09896 0.37448 0.15249 0.0
H560 H 0.96874 0.30174 0.2533 0.0
H561 H 0.94489 0.30187 0.21252 0.0
H562 H 0.95273 0.26036 0.22143 0.0
H563 H 0.11742 0.43545 0.1836 0.0
H564 H 0.07546 0.44063 0.18324 0.0
H565 H 0.09361 0.43385 0.22512 0.0
H566 H 0.96269 0.43101 0.21836 0.0
H567 H 0.01828 0.42182 0.31416 0.0
H568 H 0.96515 0.3561 0.16768 0.0
H569 H 0.00879 0.40116 0.1568 0.0
H570 H 0.96545 0.4031 0.16289 0.0
H571 H 0.03081 0.34236 0.28492 0.0
H572 H 0.04928 0.38424 0.31642 0.0
H573 H 0.07423 0.38806 0.2751 0.0
C574 C 0.63211 0.64971 0.22606 0.0
C575 C 0.61549 0.61023 0.21199 0.0
C576 C 0.6529 0.6835 0.20414 0.0
C577 C 0.65622 0.67782 0.16692 0.0
C578 C 0.63936 0.6381 0.15238 0.0
C579 C 0.61941 0.60474 0.17517 0.0
C580 C 0.67074 0.72532 0.22075 0.0
C581 C 0.64171 0.63089 0.11262 0.0
C582 C 0.67028 0.76078 0.10273 0.0
C583 C 0.70877 0.77707 0.09262 0.0
C584 C 0.6531 0.72895 0.12727 0.0
C585 C 0.67506 0.7134 0.14277 0.0
C586 C 0.7145 0.73122 0.13449 0.0
C587 C 0.73087 0.76271 0.1093 0.0
C588 C 0.61091 0.71071 0.13529 0.0
C589 C 0.73902 0.71607 0.15127 0.0
H590 H 0.6286 0.65445 0.25425 0.0
H591 H 0.60656 0.57438 0.16404 0.0
H592 H 0.7015 0.74334 0.21355 0.0
H593 H 0.65641 0.74134 0.2099 0.0
H594 H 0.66839 0.72448 0.25063 0.0
H595 H 0.62791 0.5982 0.10572 0.0
H596 H 0.62748 0.64423 0.09676 0.0
H597 H 0.67213 0.64608 0.10417 0.0
H598 H 0.65283 0.77157 0.09017 0.0
H599 H 0.76062 0.7751 0.10182 0.0
H600 H 0.6065 0.71095 0.16478 0.0
H601 H 0.59509 0.67867 0.12611 0.0
H602 H 0.59815 0.72709 0.12179 0.0
H603 H 0.73627 0.71517 0.18108 0.0
H604 H 0.7698 0.73526 0.14435 0.0
H605 H 0.72899 0.68474 0.14181 0.0
C606 C 0.03665 0.45976 0.56565 0.0
C607 C 0.02694 0.45433 0.60216 0.0
C608 C 0.01272 0.46288 0.54008 0.0
C609 C 0.97839 0.46113 0.55142 0.0
C610 C 0.96973 0.45849 0.58856 0.0
C611 C 0.9939 0.45454 0.61352 0.0
C612 C 0.02332 0.46574 0.50067 0.0
C613 C 0.93426 0.45789 0.6021 0.0
C614 C 0.94387 0.48615 0.46783 0.0
C615 C 0.92602 0.44775 0.45161 0.0
C616 C 0.9559 0.49095 0.50404 0.0
C617 C 0.95009 0.4566 0.52344 0.0
C618 C 0.92545 0.41746 0.50912 0.0
C619 C 0.91372 0.4135 0.47306 0.0
C620 C 0.97972 0.53298 0.5196 0.0
C621 C 0.91694 0.37991 0.52958 0.0
H622 H 0.06234 0.46008 0.55673 0.0
H623 H 0.98623 0.45057 0.64175 0.0
H624 H 0.0011 0.4388 0.4857 0.0
H625 H 0.02469 0.49283 0.48851 0.0
H626 H 0.05144 0.46766 0.49665 0.0
H627 H 0.93985 0.47306 0.62891 0.0
H628 H 0.92393 0.47282 0.58323 0.0
H629 H 0.91105 0.42607 0.60554 0.0
H630 H 0.95273 0.51267 0.45132 0.0
H631 H 0.89891 0.38372 0.46052 0.0
H632 H 0.01057 0.54363 0.51541 0.0
H633 H 0.97501 0.53324 0.54906 0.0
H634 H 0.97294 0.55454 0.50618 0.0
H635 H 0.94272 0.37655 0.52955 0.0
H636 H 0.89268 0.35225 0.51722 0.0
H637 H 0.90994 0.38225 0.55804 0.0
C638 C 0.54776 0.54595 0.41728 0.0
C639 C 0.57972 0.54511 0.40409 0.0
C640 C 0.54463 0.5518 0.45421 0.0
C641 C 0.57389 0.55605 0.47825 0.0
C642 C 0.60455 0.55168 0.46522 0.0
C643 C 0.6075 0.54704 0.42802 0.0
C644 C 0.51195 0.55715 0.46687 0.0
C645 C 0.63566 0.55482 0.49015 0.0
C646 C 0.59722 0.62696 0.5582 0.0
C647 C 0.57702 0.60003 0.58593 0.0
C648 C 0.59613 0.6129 0.523 0.0
C649 C 0.57533 0.57078 0.51568 0.0
C650 C 0.55566 0.54333 0.54382 0.0
C651 C 0.55619 0.55838 0.57859 0.0
C652 C 0.61669 0.64324 0.49352 0.0
C653 C 0.53428 0.49823 0.53721 0.0
H654 H 0.52671 0.54509 0.39841 0.0
H655 H 0.63235 0.5467 0.41746 0.0
H656 H 0.49861 0.53896 0.4913 0.0
H657 H 0.52317 0.58935 0.47427 0.0
H658 H 0.48943 0.54838 0.44572 0.0
H659 H 0.65338 0.54376 0.47701 0.0
H660 H 0.65477 0.58686 0.49828 0.0
H661 H 0.62308 0.53725 0.51508 0.0
H662 H 0.61304 0.65919 0.56385 0.0
H663 H 0.54081 0.53755 0.60019 0.0
H664 H 0.59617 0.63911 0.47157 0.0
H665 H 0.63916 0.6383 0.4816 0.0
H666 H 0.63042 0.67496 0.50355 0.0
H667 H 0.51078 0.4899 0.51732 0.0
H668 H 0.52181 0.48094 0.56233 0.0
H669 H 0.55391 0.48886 0.52553 0.0
C670 C 0.41518 0.93162 0.52718 0.0
C671 C 0.38954 0.94207 0.54237 0.0
C672 C 0.43099 0.94582 0.49298 0.0
C673 C 0.42147 0.97163 0.47403 0.0
C674 C 0.39585 0.98247 0.4894 0.0
C675 C 0.37991 0.96722 0.52315 0.0
C676 C 0.45756 0.93296 0.47701 0.0
C677 C 0.38534 0.01036 0.47026 0.0
C678 C 0.48199 0.03978 0.39815 0.0
C679 C 0.45859 0.01979 0.36819 0.0
C680 C 0.47115 0.0236 0.43291 0.0
C681 C 0.43669 0.98622 0.4374 0.0
C682 C 0.41434 0.96482 0.40686 0.0
C683 C 0.42531 0.98212 0.37269 0.0
C684 C 0.49537 0.04758 0.46494 0.0
C685 C 0.37786 0.92449 0.4104 0.0
H686 H 0.42272 0.9122 0.54193 0.0
H687 H 0.36056 0.97593 0.53489 0.0
H688 H 0.44528 0.91638 0.45124 0.0
H689 H 0.48562 0.95992 0.4707 0.0
H690 H 0.46252 0.91322 0.49544 0.0
H691 H 0.36652 0.01743 0.48675 0.0
H692 H 0.41168 0.03914 0.46355 0.0
H693 H 0.37026 0.99627 0.44449 0.0
H694 H 0.50774 0.0689 0.39463 0.0
H695 H 0.40753 0.96627 0.34941 0.0
H696 H 0.50126 0.02815 0.48279 0.0
H697 H 0.47945 0.05877 0.48107 0.0
H698 H 0.52311 0.07395 0.4567 0.0
H699 H 0.38288 0.90395 0.42762 0.0
H700 H 0.36647 0.90954 0.3838 0.0
H701 H 0.35562 0.92886 0.42365 0.0
loop_
_geom_bond_atom_site_label_1
_geom_bond_atom_site_label_2
_geom_bond_distance
_geom_bond_site_symmetry_2
_ccdc_geom_bond_type
Mg0 O1 2.028 1_455 S
Mg0 O7 1.986 1_554 S
Mg0 O9 2.114 . S
Mg0 O10 2.251 1_455 S
Mg0 O13 2.010 . S
O1 Mg0 2.028 1_655 S
O1 C4 1.250 1_554 S
O2 Mg3 2.028 . S
O2 C4 1.248 . S
Mg3 O2 2.028 . S
Mg3 O8 2.032 . S
Mg3 O10 2.079 1_556 S
C4 O1 1.250 1_556 S
C4 O2 1.248 . S
C5 O6 1.264 . S
C5 O13 1.249 . S
O6 C5 1.264 . S
O7 Mg0 1.986 1_556 S
O7 C11 1.246 . S
O8 Mg3 2.032 . S
O8 C11 1.259 1_655 S
O9 Mg0 2.114 . S
O9 C12 1.252 1_455 S
O10 Mg0 2.251 1_655 S
O10 Mg3 2.079 1_554 S
O10 C12 1.273 . S
C11 O7 1.246 . S
C11 O8 1.259 1_455 S
C12 O9 1.252 1_655 S
C12 O10 1.273 . S
O13 Mg0 2.010 . S
O13 C5 1.249 . S
Mg14 O15 2.028 . S
Mg14 O21 1.986 . S
Mg14 O23 2.114 1_554 S
Mg14 O24 2.251 1_554 S
Mg14 O27 2.010 . S
O15 Mg14 2.028 . S
O15 C18 1.250 . S
O16 Mg17 2.028 . S
O16 C18 1.248 . S
Mg17 O16 2.028 . S
Mg17 O22 2.032 . S
Mg17 O24 2.079 1_554 S
C18 O15 1.250 . S
C18 O16 1.248 . S
C19 O20 1.264 . S
C19 O27 1.249 1_556 S
O20 C19 1.264 . S
O21 Mg14 1.986 . S
O21 C25 1.246 . S
O22 Mg17 2.032 . S
O22 C25 1.259 . S
O23 Mg14 2.114 1_556 S
O23 C26 1.252 . S
O24 Mg14 2.251 1_556 S
O24 Mg17 2.079 1_556 S
O24 C26 1.273 . S
C25 O21 1.246 . S
C25 O22 1.259 . S
C26 O23 1.252 . S
C26 O24 1.273 . S
O27 Mg14 2.010 . S
O27 C19 1.249 1_554 S
Mg28 O29 2.028 1_565 S
Mg28 O35 1.986 1_554 S
Mg28 O37 2.114 1_565 S
Mg28 O38 2.251 1_565 S
Mg28 O41 2.010 . S
O29 Mg28 2.028 1_545 S
O29 C32 1.250 1_554 S
O30 Mg31 2.028 . S
O30 C32 1.248 . S
Mg31 O30 2.028 . S
Mg31 O36 2.032 . S
Mg31 O38 2.079 1_556 S
C32 O29 1.250 1_556 S
C32 O30 1.248 . S
C33 O34 1.264 . S
C33 O41 1.249 . S
O34 C33 1.264 . S
O35 Mg28 1.986 1_556 S
O35 C39 1.246 1_565 S
O36 Mg31 2.032 . S
O36 C39 1.259 . S
O37 Mg28 2.114 1_545 S
O37 C40 1.252 . S
O38 Mg28 2.251 1_545 S
O38 Mg31 2.079 1_554 S
O38 C40 1.273 . S
C39 O35 1.246 1_545 S
C39 O36 1.259 . S
C40 O37 1.252 . S
C40 O38 1.273 . S
O41 Mg28 2.010 . S
O41 C33 1.249 . S
Mg42 O43 2.028 . S
Mg42 O49 1.986 . S
Mg42 O51 2.114 . S
Mg42 O52 2.251 . S
Mg42 O55 2.010 . S
O43 Mg42 2.028 . S
O43 C46 1.250 . S
O44 Mg45 2.028 . S
O44 C46 1.248 . S
Mg45 O44 2.028 . S
Mg45 O50 2.032 . S
Mg45 O52 2.079 . S
C46 O43 1.250 . S
C46 O44 1.248 . S
C47 O48 1.264 . S
C47 O55 1.249 . S
O48 C47 1.264 . S
O49 Mg42 1.986 . S
O49 C53 1.246 . S
O50 Mg45 2.032 . S
O50 C53 1.259 . S
O51 Mg42 2.114 . S
O51 C54 1.252 . S
O52 Mg42 2.251 . S
O52 Mg45 2.079 . S
O52 C54 1.273 . S
C53 O49 1.246 . S
C53 O50 1.259 . S
C54 O51 1.252 . S
C54 O52 1.273 . S
O55 Mg42 2.010 . S
O55 C47 1.249 . S
Mg56 O57 2.028 . S
Mg56 O63 1.986 . S
Mg56 O65 2.114 . S
Mg56 O66 2.251 . S
Mg56 O69 2.010 . S
O57 Mg56 2.028 . S
O57 C60 1.250 . S
O58 Mg59 2.028 . S
O58 C60 1.248 . S
Mg59 O58 2.028 . S
Mg59 O64 2.032 . S
Mg59 O66 2.079 . S
C60 O57 1.250 . S
C60 O58 1.248 . S
C61 O62 1.264 . S
C61 O69 1.249 . S
O62 C61 1.264 . S
O63 Mg56 1.986 . S
O63 C67 1.246 . S
O64 Mg59 2.032 . S
O64 C67 1.259 . S
O65 Mg56 2.114 . S
O65 C68 1.252 . S
O66 Mg56 2.251 . S
O66 Mg59 2.079 . S
O66 C68 1.273 . S
C67 O63 1.246 . S
C67 O64 1.259 . S
C68 O65 1.252 . S
C68 O66 1.273 . S
O69 Mg56 2.010 . S
O69 C61 1.249 . S
Mg70 O71 2.028 . S
Mg70 O77 1.986 . S
Mg70 O79 2.114 . S
Mg70 O80 2.251 . S
Mg70 O83 2.010 . S
O71 Mg70 2.028 . S
O71 C74 1.250 . S
O72 Mg73 2.028 . S
O72 C74 1.248 . S
Mg73 O72 2.028 . S
Mg73 O78 2.032 . S
Mg73 O80 2.079 . S
C74 O71 1.250 . S
C74 O72 1.248 . S
C75 O76 1.264 . S
C75 O83 1.249 . S
O76 C75 1.264 . S
O77 Mg70 1.986 . S
O77 C81 1.246 . S
O78 Mg73 2.032 . S
O78 C81 1.259 . S
O79 Mg70 2.114 . S
O79 C82 1.252 . S
O80 Mg70 2.251 . S
O80 Mg73 2.079 . S
O80 C82 1.273 . S
C81 O77 1.246 . S
C81 O78 1.259 . S
C82 O79 1.252 . S
C82 O80 1.273 . S
O83 Mg70 2.010 . S
O83 C75 1.249 . S
Mg84 O85 2.028 . S
Mg84 O91 1.986 . S
Mg84 O93 2.114 . S
Mg84 O94 2.251 . S
Mg84 O97 2.010 . S
O85 Mg84 2.028 . S
O85 C88 1.250 . S
O86 Mg87 2.028 . S
O86 C88 1.248 . S
Mg87 O86 2.028 . S
Mg87 O92 2.032 . S
Mg87 O94 2.079 . S
C88 O85 1.250 . S
C88 O86 1.248 . S
C89 O90 1.264 . S
C89 O97 1.249 . S
O90 C89 1.264 . S
O91 Mg84 1.986 . S
O91 C95 1.246 . S
O92 Mg87 2.032 . S
O92 C95 1.259 . S
O93 Mg84 2.114 . S
O93 C96 1.252 . S
O94 Mg84 2.251 . S
O94 Mg87 2.079 . S
O94 C96 1.273 . S
C95 O91 1.246 . S
C95 O92 1.259 . S
C96 O93 1.252 . S
C96 O94 1.273 . S
O97 Mg84 2.010 . S
O97 C89 1.249 . S
Mg98 O99 2.028 . S
Mg98 O105 1.986 . S
Mg98 O107 2.114 . S
Mg98 O108 2.251 . S
Mg98 O111 2.010 . S
O99 Mg98 2.028 . S
O99 C102 1.250 . S
O100 Mg101 2.028 . S
O100 C102 1.248 . S
Mg101 O100 2.028 . S
Mg101 O106 2.032 . S
Mg101 O108 2.079 . S
C102 O99 1.250 . S
C102 O100 1.248 . S
C103 O104 1.264 . S
C103 O111 1.249 . S
O104 C103 1.264 . S
O105 Mg98 1.986 . S
O105 C109 1.246 . S
O106 Mg101 2.032 . S
O106 C109 1.259 . S
O107 Mg98 2.114 . S
O107 C110 1.252 . S
O108 Mg98 2.251 . S
O108 Mg101 2.079 . S
O108 C110 1.273 . S
C109 O105 1.246 . S
C109 O106 1.259 . S
C110 O107 1.252 . S
C110 O108 1.273 . S
O111 Mg98 2.010 . S
O111 C103 1.249 . S
Mg112 O113 2.028 . S
Mg112 O119 1.986 . S
Mg112 O121 2.114 . S
Mg112 O122 2.251 . S
Mg112 O125 2.010 . S
O113 Mg112 2.028 . S
O113 C116 1.250 . S
O114 Mg115 2.028 . S
O114 C116 1.248 . S
Mg115 O114 2.028 . S
Mg115 O120 2.032 . S
Mg115 O122 2.079 . S
C116 O113 1.250 . S
C116 O114 1.248 . S
C117 O118 1.264 . S
C117 O125 1.249 . S
O118 C117 1.264 . S
O119 Mg112 1.986 . S
O119 C123 1.246 . S
O120 Mg115 2.032 . S
O120 C123 1.259 . S
O121 Mg112 2.114 . S
O121 C124 1.252 . S
O122 Mg112 2.251 . S
O122 Mg115 2.079 . S
O122 C124 1.273 . S
C123 O119 1.246 . S
C123 O120 1.259 . S
C124 O121 1.252 . S
C124 O122 1.273 . S
O125 Mg112 2.010 . S
O125 C117 1.249 . S
C126 C127 1.378 1_554 S
C126 C128 1.394 . S
C126 H142 0.931 . S
C127 C126 1.378 1_556 S
C127 C131 1.384 . S
C128 C126 1.394 . S
C128 C129 1.369 . S
C128 C132 1.531 . S
C129 C128 1.369 . S
C129 C130 1.410 1_554 S
C129 C137 1.503 . S
C130 C129 1.410 1_556 S
C130 C131 1.392 . S
C130 C133 1.511 . S
C131 C127 1.384 . S
C131 C130 1.392 . S
C131 H143 0.929 . S
C132 C128 1.531 . S
C132 H144 0.960 . S
C132 H145 0.962 . S
C132 H146 0.960 . S
C133 C130 1.511 . S
C133 H147 0.961 . S
C133 H148 0.961 . S
C133 H149 0.961 . S
C134 C135 1.370 1_556 S
C134 C136 1.363 . S
C134 H150 0.931 . S
C135 C134 1.370 1_554 S
C135 C139 1.408 . S
C136 C134 1.363 . S
C136 C137 1.370 1_556 S
C136 C140 1.524 . S
C137 C129 1.503 . S
C137 C136 1.370 1_554 S
C137 C138 1.403 . S
C138 C137 1.403 . S
C138 C139 1.404 . S
C138 C141 1.539 . S
C139 C135 1.408 . S
C139 C138 1.404 . S
C139 H151 0.930 . S
C140 C136 1.524 . S
C140 H152 0.956 . S
C140 H153 0.961 . S
C140 H154 0.961 . S
C141 C138 1.539 . S
C141 H155 0.958 . S
C141 H156 0.961 . S
C141 H157 0.960 . S
H142 C126 0.931 . S
H143 C131 0.929 . S
H144 C132 0.960 . S
H145 C132 0.962 . S
H146 C132 0.960 . S
H147 C133 0.961 . S
H148 C133 0.961 . S
H149 C133 0.961 . S
H150 C134 0.931 . S
H151 C139 0.930 . S
H152 C140 0.956 . S
H153 C140 0.961 . S
H154 C140 0.961 . S
H155 C141 0.958 . S
H156 C141 0.961 . S
H157 C141 0.960 . S
C158 C159 1.391 . S
C158 C160 1.394 . S
C158 H174 0.931 . S
C159 C158 1.391 . S
C159 C163 1.376 . S
C160 C158 1.394 . S
C160 C161 1.369 1_565 S
C160 C164 1.531 1_565 S
C161 C160 1.369 1_545 S
C161 C162 1.410 1_545 S
C161 C169 1.503 . S
C162 C161 1.410 1_565 S
C162 C163 1.392 . S
C162 C165 1.511 1_554 S
C163 C159 1.376 . S
C163 C162 1.392 . S
C163 H175 0.929 1_554 S
C164 C160 1.531 1_545 S
C164 H176 0.960 . S
C164 H177 0.962 . S
C164 H178 0.960 . S
C165 C162 1.511 1_556 S
C165 H179 0.961 . S
C165 H180 0.961 1_565 S
C165 H181 0.965 1_566 S
C166 C167 1.370 . S
C166 C168 1.363 . S
C166 H182 0.931 . S
C167 C166 1.370 . S
C167 C171 1.408 1_556 S
C168 C166 1.363 . S
C168 C169 1.370 1_556 S
C168 C172 1.524 . S
C169 C161 1.503 . S
C169 C168 1.370 1_554 S
C169 C170 1.403 . S
C170 C169 1.403 . S
C170 C171 1.404 . S
C170 C173 1.539 . S
C171 C167 1.408 1_554 S
C171 C170 1.404 . S
C171 H183 0.930 . S
C172 C168 1.524 . S
C172 H184 0.956 . S
C172 H185 0.961 . S
C172 H186 0.961 . S
C173 C170 1.539 . S
C173 H187 0.958 . S
C173 H188 0.961 . S
C173 H189 0.960 . S
H174 C158 0.931 . S
H175 C163 0.929 1_556 S
H176 C164 0.960 . S
H177 C164 0.962 . S
H178 C164 0.960 . S
H179 C165 0.961 . S
H180 C165 0.961 1_545 S
H181 C165 0.965 1_544 S
H182 C166 0.931 . S
H183 C171 0.930 . S
H184 C172 0.956 . S
H185 C172 0.961 . S
H186 C172 0.961 . S
H187 C173 0.958 . S
H188 C173 0.961 . S
H189 C173 0.960 . S
C190 C191 1.391 1_554 S
C190 C192 1.394 . S
C190 H206 0.931 . S
C191 C190 1.391 1_556 S
C191 C195 1.376 . S
C192 C190 1.394 . S
C192 C193 1.355 1_554 S
C192 C196 1.531 . S
C193 C192 1.355 1_556 S
C193 C194 1.427 . S
C193 C201 1.499 1_656 S
C194 C193 1.427 . S
C194 C195 1.392 . S
C194 C197 1.511 1_655 S
C195 C191 1.376 . S
C195 C194 1.392 . S
C195 H207 0.929 . S
C196 C192 1.531 . S
C196 H208 0.960 1_655 S
C196 H209 0.962 . S
C196 H210 0.960 . S
C197 C194 1.511 1_455 S
C197 H211 0.961 1_455 S
C197 H212 0.961 . S
C197 H213 0.961 . S
C198 C199 1.370 . S
C198 C200 1.363 . S
C198 H214 0.931 . S
C199 C198 1.370 . S
C199 C203 1.408 1_554 S
C200 C198 1.363 . S
C200 C201 1.370 . S
C200 C204 1.524 . S
C201 C193 1.499 1_454 S
C201 C200 1.370 . S
C201 C202 1.403 1_554 S
C202 C201 1.403 1_556 S
C202 C203 1.404 . S
C202 C205 1.539 . S
C203 C199 1.408 1_556 S
C203 C202 1.404 . S
C203 H215 0.930 . S
C204 C200 1.524 . S
C204 H216 0.956 . S
C204 H217 0.961 . S
C204 H218 0.961 . S
C205 C202 1.539 . S
C205 H219 0.958 . S
C205 H220 0.961 . S
C205 H221 0.960 . S
H206 C190 0.931 . S
H207 C195 0.929 . S
H208 C196 0.960 1_455 S
H209 C196 0.962 . S
H210 C196 0.960 . S
H211 C197 0.961 1_655 S
H212 C197 0.961 . S
H213 C197 0.961 . S
H214 C198 0.931 . S
H215 C203 0.930 . S
H216 C204 0.956 . S
H217 C204 0.961 . S
H218 C204 0.961 . S
H219 C205 0.958 . S
H220 C205 0.961 . S
H221 C205 0.960 . S
C222 C223 1.391 . S
C222 C224 1.394 . S
C222 H238 0.931 . S
C223 C222 1.391 . S
C223 C227 1.376 . S
C224 C222 1.394 . S
C224 C225 1.369 . S
C224 C228 1.531 . S
C225 C224 1.369 . S
C225 C226 1.410 . S
C225 C233 1.503 . S
C226 C225 1.410 . S
C226 C227 1.392 . S
C226 C229 1.511 . S
C227 C223 1.376 . S
C227 C226 1.392 . S
C227 H239 0.929 . S
C228 C224 1.531 . S
C228 H240 0.960 . S
C228 H241 0.962 . S
C228 H242 0.960 . S
C229 C226 1.511 . S
C229 H243 0.961 . S
C229 H244 0.961 . S
C229 H245 0.961 . S
C230 C231 1.370 . S
C230 C232 1.363 . S
C230 H246 0.931 . S
C231 C230 1.370 . S
C231 C235 1.408 . S
C232 C230 1.363 . S
C232 C233 1.370 . S
C232 C236 1.524 . S
C233 C225 1.503 . S
C233 C232 1.370 . S
C233 C234 1.403 . S
C234 C233 1.403 . S
C234 C235 1.404 . S
C234 C237 1.539 . S
C235 C231 1.408 . S
C235 C234 1.404 . S
C235 H247 0.930 . S
C236 C232 1.524 . S
C236 H248 0.956 . S
C236 H249 0.961 . S
C236 H250 0.961 . S
C237 C234 1.539 . S
C237 H251 0.958 . S
C237 H252 0.961 . S
C237 H253 0.960 . S
H238 C222 0.931 . S
H239 C227 0.929 . S
H240 C228 0.960 . S
H241 C228 0.962 . S
H242 C228 0.960 . S
H243 C229 0.961 . S
H244 C229 0.961 . S
H245 C229 0.961 . S
H246 C230 0.931 . S
H247 C235 0.930 . S
H248 C236 0.956 . S
H249 C236 0.961 . S
H250 C236 0.961 . S
H251 C237 0.958 . S
H252 C237 0.961 . S
H253 C237 0.960 . S
C254 C255 1.391 . S
C254 C256 1.394 . S
C254 H270 0.931 . S
C255 C254 1.391 . S
C255 C259 1.376 . S
C256 C254 1.394 . S
C256 C257 1.369 . S
C256 C260 1.531 . S
C257 C256 1.369 . S
C257 C258 1.410 . S
C257 C265 1.503 . S
C258 C257 1.410 . S
C258 C259 1.392 . S
C258 C261 1.511 . S
C259 C255 1.376 . S
C259 C258 1.392 . S
C259 H271 0.929 . S
C260 C256 1.531 . S
C260 H272 0.960 . S
C260 H273 0.962 . S
C260 H274 0.960 . S
C261 C258 1.511 . S
C261 H275 0.961 . S
C261 H276 0.961 . S
C261 H277 0.961 . S
C262 C263 1.370 . S
C262 C264 1.363 . S
C262 H278 0.931 . S
C263 C262 1.370 . S
C263 C267 1.408 . S
C264 C262 1.363 . S
C264 C265 1.370 . S
C264 C268 1.524 . S
C265 C257 1.503 . S
C265 C264 1.370 . S
C265 C266 1.403 . S
C266 C265 1.403 . S
C266 C267 1.404 . S
C266 C269 1.539 . S
C267 C263 1.408 . S
C267 C266 1.404 . S
C267 H279 0.930 . S
C268 C264 1.524 . S
C268 H280 0.956 . S
C268 H281 0.961 . S
C268 H282 0.961 . S
C269 C266 1.539 . S
C269 H283 0.958 . S
C269 H284 0.961 . S
C269 H285 0.960 . S
H270 C254 0.931 . S
H271 C259 0.929 . S
H272 C260 0.960 . S
H273 C260 0.962 . S
H274 C260 0.960 . S
H275 C261 0.961 . S
H276 C261 0.961 . S
H277 C261 0.961 . S
H278 C262 0.931 . S
H279 C267 0.930 . S
H280 C268 0.956 . S
H281 C268 0.961 . S
H282 C268 0.961 . S
H283 C269 0.958 . S
H284 C269 0.961 . S
H285 C269 0.960 . S
C286 C287 1.391 . S
C286 C288 1.394 . S
C286 H302 0.931 . S
C287 C286 1.391 . S
C287 C291 1.376 . S
C288 C286 1.394 . S
C288 C289 1.369 . S
C288 C292 1.531 . S
C289 C288 1.369 . S
C289 C290 1.410 . S
C289 C297 1.503 . S
C290 C289 1.410 . S
C290 C291 1.392 . S
C290 C293 1.511 . S
C291 C287 1.376 . S
C291 C290 1.392 . S
C291 H303 0.929 . S
C292 C288 1.531 . S
C292 H304 0.960 . S
C292 H305 0.962 . S
C292 H306 0.960 . S
C293 C290 1.511 . S
C293 H307 0.961 . S
C293 H308 0.961 . S
C293 H309 0.961 . S
C294 C295 1.370 . S
C294 C296 1.363 . S
C294 H310 0.931 . S
C295 C294 1.370 . S
C295 C299 1.408 . S
C296 C294 1.363 . S
C296 C297 1.370 . S
C296 C300 1.524 . S
C297 C289 1.503 . S
C297 C296 1.370 . S
C297 C298 1.403 . S
C298 C297 1.403 . S
C298 C299 1.404 . S
C298 C301 1.539 . S
C299 C295 1.408 . S
C299 C298 1.404 . S
C299 H311 0.930 . S
C300 C296 1.524 . S
C300 H312 0.956 . S
C300 H313 0.961 . S
C300 H314 0.961 . S
C301 C298 1.539 . S
C301 H315 0.958 . S
C301 H316 0.961 . S
C301 H317 0.960 . S
H302 C286 0.931 . S
H303 C291 0.929 . S
H304 C292 0.960 . S
H305 C292 0.962 . S
H306 C292 0.960 . S
H307 C293 0.961 . S
H308 C293 0.961 . S
H309 C293 0.961 . S
H310 C294 0.931 . S
H311 C299 0.930 . S
H312 C300 0.956 . S
H313 C300 0.961 . S
H314 C300 0.961 . S
H315 C301 0.958 . S
H316 C301 0.961 . S
H317 C301 0.960 . S
C318 C319 1.391 . S
C318 C320 1.394 . S
C318 H334 0.931 . S
C319 C318 1.391 . S
C319 C323 1.376 . S
C320 C318 1.394 . S
C320 C321 1.369 . S
C320 C324 1.531 . S
C321 C320 1.369 . S
C321 C322 1.410 . S
C321 C329 1.503 . S
C322 C321 1.410 . S
C322 C323 1.392 . S
C322 C325 1.511 . S
C323 C319 1.376 . S
C323 C322 1.392 . S
C323 H335 0.929 . S
C324 C320 1.531 . S
C324 H336 0.960 . S
C324 H337 0.962 . S
C324 H338 0.960 . S
C325 C322 1.511 . S
C325 H339 0.961 . S
C325 H340 0.961 . S
C325 H341 0.961 . S
C326 C327 1.370 . S
C326 C328 1.363 . S
C326 H342 0.931 . S
C327 C326 1.370 . S
C327 C331 1.408 . S
C328 C326 1.363 . S
C328 C329 1.370 . S
C328 C332 1.524 . S
C329 C321 1.503 . S
C329 C328 1.370 . S
C329 C330 1.403 . S
C330 C329 1.403 . S
C330 C331 1.404 . S
C330 C333 1.539 . S
C331 C327 1.408 . S
C331 C330 1.404 . S
C331 H343 0.930 . S
C332 C328 1.524 . S
C332 H344 0.956 . S
C332 H345 0.961 . S
C332 H346 0.961 . S
C333 C330 1.539 . S
C333 H347 0.958 . S
C333 H348 0.961 . S
C333 H349 0.960 . S
H334 C318 0.931 . S
H335 C323 0.929 . S
H336 C324 0.960 . S
H337 C324 0.962 . S
H338 C324 0.960 . S
H339 C325 0.961 . S
H340 C325 0.961 . S
H341 C325 0.961 . S
H342 C326 0.931 . S
H343 C331 0.930 . S
H344 C332 0.956 . S
H345 C332 0.961 . S
H346 C332 0.961 . S
H347 C333 0.958 . S
H348 C333 0.961 . S
H349 C333 0.960 . S
C350 C351 1.391 . S
C350 C352 1.394 . S
C350 H366 0.931 . S
C351 C350 1.391 . S
C351 C355 1.376 . S
C352 C350 1.394 . S
C352 C353 1.369 . S
C352 C356 1.531 . S
C353 C352 1.369 . S
C353 C354 1.410 . S
C353 C361 1.503 . S
C354 C353 1.410 . S
C354 C355 1.392 . S
C354 C357 1.511 . S
C355 C351 1.376 . S
C355 C354 1.392 . S
C355 H367 0.929 . S
C356 C352 1.531 . S
C356 H368 0.960 . S
C356 H369 0.962 . S
C356 H370 0.960 . S
C357 C354 1.511 . S
C357 H371 0.961 . S
C357 H372 0.961 . S
C357 H373 0.961 . S
C358 C359 1.370 . S
C358 C360 1.363 . S
C358 H374 0.931 . S
C359 C358 1.370 . S
C359 C363 1.408 . S
C360 C358 1.363 . S
C360 C361 1.370 . S
C360 C364 1.524 . S
C361 C353 1.503 . S
C361 C360 1.370 . S
C361 C362 1.403 . S
C362 C361 1.403 . S
C362 C363 1.404 . S
C362 C365 1.539 . S
C363 C359 1.408 . S
C363 C362 1.404 . S
C363 H375 0.930 . S
C364 C360 1.524 . S
C364 H376 0.956 . S
C364 H377 0.961 . S
C364 H378 0.961 . S
C365 C362 1.539 . S
C365 H379 0.958 . S
C365 H380 0.961 . S
C365 H381 0.960 . S
H366 C350 0.931 . S
H367 C355 0.929 . S
H368 C356 0.960 . S
H369 C356 0.962 . S
H370 C356 0.960 . S
H371 C357 0.961 . S
H372 C357 0.961 . S
H373 C357 0.961 . S
H374 C358 0.931 . S
H375 C363 0.930 . S
H376 C364 0.956 . S
H377 C364 0.961 . S
H378 C364 0.961 . S
H379 C365 0.958 . S
H380 C365 0.961 . S
H381 C365 0.960 . S
C382 C383 1.391 . S
C382 C384 1.394 . S
C382 H398 0.931 . S
C383 C382 1.391 . S
C383 C387 1.376 . S
C384 C382 1.394 . S
C384 C385 1.369 . S
C384 C388 1.531 . S
C385 C384 1.369 . S
C385 C386 1.410 . S
C385 C393 1.503 . S
C386 C385 1.410 . S
C386 C387 1.392 . S
C386 C389 1.511 . S
C387 C383 1.376 . S
C387 C386 1.392 . S
C387 H399 0.929 . S
C388 C384 1.531 . S
C388 H400 0.960 . S
C388 H401 0.962 . S
C388 H402 0.960 . S
C389 C386 1.511 . S
C389 H403 0.961 . S
C389 H404 0.961 . S
C389 H405 0.961 . S
C390 C391 1.370 . S
C390 C392 1.363 . S
C390 H406 0.931 . S
C391 C390 1.370 . S
C391 C395 1.408 . S
C392 C390 1.363 . S
C392 C393 1.370 . S
C392 C396 1.524 . S
C393 C385 1.503 . S
C393 C392 1.370 . S
C393 C394 1.403 . S
C394 C393 1.403 . S
C394 C395 1.404 . S
C394 C397 1.539 . S
C395 C391 1.408 . S
C395 C394 1.404 . S
C395 H407 0.930 . S
C396 C392 1.524 . S
C396 H408 0.956 . S
C396 H409 0.961 . S
C396 H410 0.961 . S
C397 C394 1.539 . S
C397 H411 0.958 . S
C397 H412 0.961 . S
C397 H413 0.960 . S
H398 C382 0.931 . S
H399 C387 0.929 . S
H400 C388 0.960 . S
H401 C388 0.962 . S
H402 C388 0.960 . S
H403 C389 0.961 . S
H404 C389 0.961 . S
H405 C389 0.961 . S
H406 C390 0.931 . S
H407 C395 0.930 . S
H408 C396 0.956 . S
H409 C396 0.961 . S
H410 C396 0.961 . S
H411 C397 0.958 . S
H412 C397 0.961 . S
H413 C397 0.960 . S
C414 C415 1.391 . S
C414 C416 1.394 . S
C414 H430 0.931 1_455 S
C415 C414 1.391 . S
C415 C419 1.376 . S
C416 C414 1.394 . S
C416 C417 1.369 . S
C416 C420 1.531 . S
C417 C416 1.369 . S
C417 C418 1.410 . S
C417 C425 1.503 . S
C418 C417 1.410 . S
C418 C419 1.392 . S
C418 C421 1.511 . S
C419 C415 1.376 . S
C419 C418 1.392 . S
C419 H431 0.929 . S
C420 C416 1.531 . S
C420 H432 0.969 . S
C420 H433 0.962 . S
C420 H434 0.960 1_455 S
C421 C418 1.511 . S
C421 H435 0.961 . S
C421 H436 0.961 . S
C421 H437 0.961 . S
C422 C423 1.370 . S
C422 C424 1.363 . S
C422 H438 0.931 . S
C423 C422 1.370 . S
C423 C427 1.408 . S
C424 C422 1.363 . S
C424 C425 1.370 . S
C424 C428 1.524 . S
C425 C417 1.503 . S
C425 C424 1.370 . S
C425 C426 1.403 . S
C426 C425 1.403 . S
C426 C427 1.404 . S
C426 C429 1.539 . S
C427 C423 1.408 . S
C427 C426 1.404 . S
C427 H439 0.930 . S
C428 C424 1.524 . S
C428 H440 0.956 . S
C428 H441 0.961 . S
C428 H442 0.961 . S
C429 C426 1.539 . S
C429 H443 0.958 1_455 S
C429 H444 0.961 . S
C429 H445 0.960 . S
H430 C414 0.931 1_655 S
H431 C419 0.929 . S
H432 C420 0.969 . S
H433 C420 0.962 . S
H434 C420 0.960 1_655 S
H435 C421 0.961 . S
H436 C421 0.961 . S
H437 C421 0.961 . S
H438 C422 0.931 . S
H439 C427 0.930 . S
H440 C428 0.956 . S
H441 C428 0.961 . S
H442 C428 0.961 . S
H443 C429 0.958 1_655 S
H444 C429 0.961 . S
H445 C429 0.960 . S
C446 C447 1.391 . S
C446 C448 1.394 . S
C446 H462 0.931 . S
C447 C446 1.391 . S
C447 C451 1.376 . S
C448 C446 1.394 . S
C448 C449 1.369 . S
C448 C452 1.531 . S
C449 C448 1.369 . S
C449 C450 1.410 . S
C449 C457 1.503 . S
C450 C449 1.410 . S
C450 C451 1.392 . S
C450 C453 1.511 . S
C451 C447 1.376 . S
C451 C450 1.392 . S
C451 H463 0.929 . S
C452 C448 1.531 . S
C452 H464 0.960 . S
C452 H465 0.962 . S
C452 H466 0.960 . S
C453 C450 1.511 . S
C453 H467 0.961 . S
C453 H468 0.961 . S
C453 H469 0.961 . S
C454 C455 1.370 . S
C454 C456 1.363 . S
C454 H470 0.931 . S
C455 C454 1.370 . S
C455 C459 1.408 . S
C456 C454 1.363 . S
C456 C457 1.370 . S
C456 C460 1.524 . S
C457 C449 1.503 . S
C457 C456 1.370 . S
C457 C458 1.403 . S
C458 C457 1.403 . S
C458 C459 1.404 . S
C458 C461 1.539 . S
C459 C455 1.408 . S
C459 C458 1.404 . S
C459 H471 0.930 . S
C460 C456 1.524 . S
C460 H472 0.956 . S
C460 H473 0.961 . S
C460 H474 0.961 . S
C461 C458 1.539 . S
C461 H475 0.958 . S
C461 H476 0.961 . S
C461 H477 0.960 . S
H462 C446 0.931 . S
H463 C451 0.929 . S
H464 C452 0.960 . S
H465 C452 0.962 . S
H466 C452 0.960 . S
H467 C453 0.961 . S
H468 C453 0.961 . S
H469 C453 0.961 . S
H470 C454 0.931 . S
H471 C459 0.930 . S
H472 C460 0.956 . S
H473 C460 0.961 . S
H474 C460 0.961 . S
H475 C461 0.958 . S
H476 C461 0.961 . S
H477 C461 0.960 . S
C478 C479 1.391 . S
C478 C480 1.394 . S
C478 H494 0.931 . S
C479 C478 1.391 . S
C479 C483 1.376 . S
C480 C478 1.394 . S
C480 C481 1.369 . S
C480 C484 1.531 . S
C481 C480 1.369 . S
C481 C482 1.410 . S
C481 C489 1.503 . S
C482 C481 1.410 . S
C482 C483 1.392 . S
C482 C485 1.511 1_565 S
C483 C479 1.376 . S
C483 C482 1.392 . S
C483 H495 0.929 . S
C484 C480 1.531 . S
C484 H496 0.960 . S
C484 H497 0.962 . S
C484 H498 0.960 . S
C485 C482 1.511 1_545 S
C485 H499 0.961 . S
C485 H500 0.961 . S
C485 H501 0.961 . S
C486 C487 1.370 1_545 S
C486 C488 1.363 1_545 S
C486 H502 0.931 . S
C487 C486 1.370 1_565 S
C487 C491 1.408 . S
C488 C486 1.363 1_565 S
C488 C489 1.370 . S
C488 C492 1.524 1_565 S
C489 C481 1.503 . S
C489 C488 1.370 . S
C489 C490 1.403 . S
C490 C489 1.403 . S
C490 C491 1.404 . S
C490 C493 1.539 . S
C491 C487 1.408 . S
C491 C490 1.404 . S
C491 H503 0.930 . S
C492 C488 1.524 1_545 S
C492 H504 0.956 1_545 S
C492 H505 0.961 . S
C492 H506 0.961 . S
C493 C490 1.539 . S
C493 H507 0.958 . S
C493 H508 0.961 . S
C493 H509 0.960 . S
H494 C478 0.931 . S
H495 C483 0.929 . S
H496 C484 0.960 . S
H497 C484 0.962 . S
H498 C484 0.960 . S
H499 C485 0.961 . S
H500 C485 0.961 . S
H501 C485 0.961 . S
H502 C486 0.931 . S
H503 C491 0.930 . S
H504 C492 0.956 1_565 S
H505 C492 0.961 . S
H506 C492 0.961 . S
H507 C493 0.958 . S
H508 C493 0.961 . S
H509 C493 0.960 . S
C510 C511 1.391 . S
C510 C512 1.394 . S
C510 H526 0.931 . S
C511 C510 1.391 . S
C511 C515 1.376 . S
C512 C510 1.394 . S
C512 C513 1.369 . S
C512 C516 1.531 . S
C513 C512 1.369 . S
C513 C514 1.410 . S
C513 C521 1.503 . S
C514 C513 1.410 . S
C514 C515 1.392 . S
C514 C517 1.511 . S
C515 C511 1.376 . S
C515 C514 1.392 . S
C515 H527 0.929 . S
C516 C512 1.531 . S
C516 H528 0.960 . S
C516 H529 0.962 . S
C516 H530 0.960 . S
C517 C514 1.511 . S
C517 H531 0.961 . S
C517 H532 0.961 . S
C517 H533 0.961 . S
C518 C519 1.370 . S
C518 C520 1.363 . S
C518 H534 0.931 . S
C519 C518 1.370 . S
C519 C523 1.408 . S
C520 C518 1.363 . S
C520 C521 1.370 . S
C520 C524 1.524 . S
C521 C513 1.503 . S
C521 C520 1.370 . S
C521 C522 1.403 . S
C522 C521 1.403 . S
C522 C523 1.404 . S
C522 C525 1.539 1_545 S
C523 C519 1.408 . S
C523 C522 1.404 . S
C523 H535 0.930 1_545 S
C524 C520 1.524 . S
C524 H536 0.956 . S
C524 H537 0.961 . S
C524 H538 0.961 . S
C525 C522 1.539 1_565 S
C525 H539 0.958 . S
C525 H540 0.961 . S
C525 H541 0.960 1_565 S
H526 C510 0.931 . S
H527 C515 0.929 . S
H528 C516 0.960 . S
H529 C516 0.962 . S
H530 C516 0.960 . S
H531 C517 0.961 . S
H532 C517 0.961 . S
H533 C517 0.961 . S
H534 C518 0.931 . S
H535 C523 0.930 1_565 S
H536 C524 0.956 . S
H537 C524 0.961 . S
H538 C524 0.961 . S
H539 C525 0.958 . S
H540 C525 0.961 . S
H541 C525 0.960 1_545 S
C542 C543 1.391 . S
C542 C544 1.394 . S
C542 H558 0.931 . S
C543 C542 1.391 . S
C543 C547 1.376 1_655 S
C544 C542 1.394 . S
C544 C545 1.369 . S
C544 C548 1.531 . S
C545 C544 1.369 . S
C545 C546 1.416 . S
C545 C553 1.503 . S
C546 C545 1.416 . S
C546 C547 1.386 1_655 S
C546 C549 1.511 1_655 S
C547 C543 1.376 1_455 S
C547 C546 1.386 1_455 S
C547 H559 0.929 . S
C548 C544 1.531 . S
C548 H560 0.960 . S
C548 H561 0.962 . S
C548 H562 0.960 . S
C549 C546 1.511 1_455 S
C549 H563 0.961 . S
C549 H564 0.961 . S
C549 H565 0.961 . S
C550 C551 1.370 . S
C550 C552 1.363 . S
C550 H566 0.931 . S
C551 C550 1.370 . S
C551 C555 1.408 . S
C552 C550 1.363 . S
C552 C553 1.370 . S
C552 C556 1.524 . S
C553 C545 1.503 . S
C553 C552 1.370 . S
C553 C554 1.403 . S
C554 C553 1.403 . S
C554 C555 1.404 . S
C554 C557 1.539 1_655 S
C555 C551 1.408 . S
C555 C554 1.404 . S
C555 H567 0.930 . S
C556 C552 1.524 . S
C556 H568 0.956 . S
C556 H569 0.961 . S
C556 H570 0.961 . S
C557 C554 1.539 1_455 S
C557 H571 0.958 1_455 S
C557 H572 0.961 . S
C557 H573 0.960 . S
H558 C542 0.931 . S
H559 C547 0.929 . S
H560 C548 0.960 . S
H561 C548 0.962 . S
H562 C548 0.960 . S
H563 C549 0.961 . S
H564 C549 0.961 . S
H565 C549 0.961 . S
H566 C550 0.931 . S
H567 C555 0.930 . S
H568 C556 0.956 . S
H569 C556 0.961 . S
H570 C556 0.961 . S
H571 C557 0.958 1_655 S
H572 C557 0.961 . S
H573 C557 0.960 . S
C574 C575 1.391 . S
C574 C576 1.394 . S
C574 H590 0.931 . S
C575 C574 1.391 . S
C575 C579 1.376 . S
C576 C574 1.394 . S
C576 C577 1.369 . S
C576 C580 1.531 . S
C577 C576 1.369 . S
C577 C578 1.410 . S
C577 C585 1.503 . S
C578 C577 1.410 . S
C578 C579 1.392 . S
C578 C581 1.511 . S
C579 C575 1.376 . S
C579 C578 1.392 . S
C579 H591 0.929 . S
C580 C576 1.531 . S
C580 H592 0.960 . S
C580 H593 0.962 . S
C580 H594 0.960 . S
C581 C578 1.511 . S
C581 H595 0.961 . S
C581 H596 0.961 . S
C581 H597 0.961 . S
C582 C583 1.370 . S
C582 C584 1.363 . S
C582 H598 0.931 . S
C583 C582 1.370 . S
C583 C587 1.408 . S
C584 C582 1.363 . S
C584 C585 1.370 . S
C584 C588 1.524 . S
C585 C577 1.503 . S
C585 C584 1.370 . S
C585 C586 1.403 . S
C586 C585 1.403 . S
C586 C587 1.404 . S
C586 C589 1.539 . S
C587 C583 1.408 . S
C587 C586 1.404 . S
C587 H599 0.930 . S
C588 C584 1.524 . S
C588 H600 0.956 . S
C588 H601 0.961 . S
C588 H602 0.961 . S
C589 C586 1.539 . S
C589 H603 0.958 . S
C589 H604 0.961 . S
C589 H605 0.960 . S
H590 C574 0.931 . S
H591 C579 0.929 . S
H592 C580 0.960 . S
H593 C580 0.962 . S
H594 C580 0.960 . S
H595 C581 0.961 . S
H596 C581 0.961 . S
H597 C581 0.961 . S
H598 C582 0.931 . S
H599 C587 0.930 . S
H600 C588 0.956 . S
H601 C588 0.961 . S
H602 C588 0.961 . S
H603 C589 0.958 . S
H604 C589 0.961 . S
H605 C589 0.960 . S
C606 C607 1.391 . S
C606 C608 1.394 . S
C606 H622 0.931 . S
C607 C606 1.391 . S
C607 C611 1.376 . S
C608 C606 1.394 . S
C608 C609 1.369 . S
C608 C612 1.531 . S
C609 C608 1.369 . S
C609 C610 1.410 . S
C609 C617 1.503 1_455 S
C610 C609 1.410 . S
C610 C611 1.392 . S
C610 C613 1.511 1_455 S
C611 C607 1.376 . S
C611 C610 1.392 . S
C611 H623 0.929 . S
C612 C608 1.531 . S
C612 H624 0.960 . S
C612 H625 0.962 . S
C612 H626 0.960 . S
C613 C610 1.511 1_655 S
C613 H627 0.961 . S
C613 H628 0.961 . S
C613 H629 0.961 . S
C614 C615 1.370 . S
C614 C616 1.363 1_655 S
C614 H630 0.931 . S
C615 C614 1.370 . S
C615 C619 1.408 . S
C616 C614 1.363 1_455 S
C616 C617 1.370 1_455 S
C616 C620 1.524 . S
C617 C609 1.503 1_655 S
C617 C616 1.370 1_655 S
C617 C618 1.403 . S
C618 C617 1.403 . S
C618 C619 1.404 . S
C618 C621 1.539 . S
C619 C615 1.408 . S
C619 C618 1.404 . S
C619 H631 0.930 . S
C620 C616 1.524 . S
C620 H632 0.956 . S
C620 H633 0.961 . S
C620 H634 0.961 . S
C621 C618 1.539 . S
C621 H635 0.958 . S
C621 H636 0.961 . S
C621 H637 0.960 . S
H622 C606 0.931 . S
H623 C611 0.929 . S
H624 C612 0.960 . S
H625 C612 0.962 . S
H626 C612 0.960 . S
H627 C613 0.961 . S
H628 C613 0.961 . S
H629 C613 0.961 . S
H630 C614 0.931 . S
H631 C619 0.930 . S
H632 C620 0.956 . S
H633 C620 0.961 . S
H634 C620 0.961 . S
H635 C621 0.958 . S
H636 C621 0.961 . S
H637 C621 0.960 . S
C638 C639 1.391 . S
C638 C640 1.394 . S
C638 H654 0.931 . S
C639 C638 1.391 . S
C639 C643 1.376 . S
C640 C638 1.394 . S
C640 C641 1.369 . S
C640 C644 1.531 . S
C641 C640 1.369 . S
C641 C642 1.410 . S
C641 C649 1.503 . S
C642 C641 1.410 . S
C642 C643 1.392 . S
C642 C645 1.511 . S
C643 C639 1.376 . S
C643 C642 1.392 . S
C643 H655 0.929 . S
C644 C640 1.531 . S
C644 H656 0.960 . S
C644 H657 0.962 . S
C644 H658 0.960 . S
C645 C642 1.511 . S
C645 H659 0.961 . S
C645 H660 0.961 . S
C645 H661 0.961 . S
C646 C647 1.370 . S
C646 C648 1.363 . S
C646 H662 0.931 . S
C647 C646 1.370 . S
C647 C651 1.408 . S
C648 C646 1.363 . S
C648 C649 1.370 . S
C648 C652 1.524 . S
C649 C641 1.503 . S
C649 C648 1.370 . S
C649 C650 1.403 . S
C650 C649 1.403 . S
C650 C651 1.404 . S
C650 C653 1.539 . S
C651 C647 1.408 . S
C651 C650 1.404 . S
C651 H663 0.930 . S
C652 C648 1.524 . S
C652 H664 0.956 . S
C652 H665 0.961 . S
C652 H666 0.961 . S
C653 C650 1.539 . S
C653 H667 0.958 . S
C653 H668 0.961 . S
C653 H669 0.960 . S
H654 C638 0.931 . S
H655 C643 0.929 . S
H656 C644 0.960 . S
H657 C644 0.962 . S
H658 C644 0.960 . S
H659 C645 0.961 . S
H660 C645 0.961 . S
H661 C645 0.961 . S
H662 C646 0.931 . S
H663 C651 0.930 . S
H664 C652 0.956 . S
H665 C652 0.961 . S
H666 C652 0.961 . S
H667 C653 0.958 . S
H668 C653 0.961 . S
H669 C653 0.960 . S
C670 C671 1.391 . S
C670 C672 1.394 . S
C670 H686 0.931 . S
C671 C670 1.391 . S
C671 C675 1.376 . S
C672 C670 1.394 . S
C672 C673 1.369 . S
C672 C676 1.531 . S
C673 C672 1.369 . S
C673 C674 1.410 . S
C673 C681 1.503 1_565 S
C674 C673 1.410 . S
C674 C675 1.392 . S
C674 C677 1.511 1_565 S
C675 C671 1.376 . S
C675 C674 1.392 . S
C675 H687 0.929 . S
C676 C672 1.531 . S
C676 H688 0.960 . S
C676 H689 0.962 . S
C676 H690 0.960 . S
C677 C674 1.511 1_545 S
C677 H691 0.961 . S
C677 H692 0.961 . S
C677 H693 0.961 . S
C678 C679 1.370 . S
C678 C680 1.363 . S
C678 H694 0.931 . S
C679 C678 1.370 . S
C679 C683 1.408 . S
C680 C678 1.363 . S
C680 C681 1.370 . S
C680 C684 1.524 . S
C681 C673 1.503 1_545 S
C681 C680 1.370 . S
C681 C682 1.403 . S
C682 C681 1.403 . S
C682 C683 1.404 . S
C682 C685 1.539 1_545 S
C683 C679 1.408 . S
C683 C682 1.404 . S
C683 H695 0.930 . S
C684 C680 1.524 . S
C684 H696 0.956 . S
C684 H697 0.961 . S
C684 H698 0.961 . S
C685 C682 1.539 1_565 S
C685 H699 0.958 . S
C685 H700 0.961 . S
C685 H701 0.960 . S
H686 C670 0.931 . S
H687 C675 0.929 . S
H688 C676 0.960 . S
H689 C676 0.962 . S
H690 C676 0.960 . S
H691 C677 0.961 . S
H692 C677 0.961 . S
H693 C677 0.961 . S
H694 C678 0.931 . S
H695 C683 0.930 . S
H696 C684 0.956 . S
H697 C684 0.961 . S
H698 C684 0.961 . S
H699 C685 0.958 . S
H700 C685 0.961 . S
H701 C685 0.960 . S
C127 C32 1.061 . S
C135 C5 0.990 . S
C159 C18 1.093 . S
C167 C4 1.074 . S
C191 C19 0.779 . S
C199 C33 0.821 . S
C223 C75 1.023 . S
C231 C46 1.014 . S
C255 C60 0.917 . S
C263 C47 0.900 . S
C287 C61 0.976 . S
C295 C74 1.051 . S
C319 C89 0.837 . S
C327 C116 0.885 . S
C351 C88 1.161 . S
C359 C102 1.136 . S
C383 C103 0.914 . S
C391 C117 0.891 . S
C415 C11 1.323 . S
C423 C109 1.344 . S
C447 C26 1.294 . S
C455 C124 1.288 . S
C479 C96 1.298 . S
C487 C39 1.298 1_565 S
C511 C68 1.309 . S
C519 C40 1.310 . S
C543 C12 1.428 . S
C551 C82 1.428 . S
C575 C54 1.305 . S
C583 C25 1.315 . S
C607 C110 1.332 . S
C615 C81 1.320 . S
C639 C53 1.217 . S
C647 C123 1.218 . S
C671 C95 1.322 . S
C679 C67 1.315 . S
