# Generated by pormake.
# Topology wjd, (6)-cn, num edge types: 1
# Building blocks:
#     Node 0, Type 0, BuildingBlock: LEVNOQ01_clean_sbu_1, # of connection points: 6
#     Node 1, Type 0, BuildingBlock: LEVNOQ01_clean_sbu_1, # of connection points: 6
#     Node 2, Type 0, BuildingBlock: LEVNOQ01_clean_sbu_1, # of connection points: 6
#     Node 3, Type 0, BuildingBlock: LEVNOQ01_clean_sbu_1, # of connection points: 6
#     Node 4, Type 0, BuildingBlock: LEVNOQ01_clean_sbu_1, # of connection points: 6
#     Node 5, Type 0, BuildingBlock: LEVNOQ01_clean_sbu_1, # of connection points: 6
#     Node 6, Type 0, BuildingBlock: LEVNOQ01_clean_sbu_1, # of connection points: 6
#     Node 7, Type 0, BuildingBlock: LEVNOQ01_clean_sbu_1, # of connection points: 6
#     Node 8, Type 0, BuildingBlock: LEVNOQ01_clean_sbu_1, # of connection points: 6
#     Node 9, Type 0, BuildingBlock: LEVNOQ01_clean_sbu_1, # of connection points: 6
#     Node 10, Type 0, BuildingBlock: LEVNOQ01_clean_sbu_1, # of connection points: 6
#     Node 11, Type 0, BuildingBlock: LEVNOQ01_clean_sbu_1, # of connection points: 6
#     Edge 12, Type (0, 0), BuildingBlock: CIFDUS_clean_linker_0, # of connection points: 2
#     Edge 13, Type (0, 0), BuildingBlock: CIFDUS_clean_linker_0, # of connection points: 2
#     Edge 14, Type (0, 0), BuildingBlock: CIFDUS_clean_linker_0, # of connection points: 2
#     Edge 15, Type (0, 0), BuildingBlock: CIFDUS_clean_linker_0, # of connection points: 2
#     Edge 16, Type (0, 0), BuildingBlock: CIFDUS_clean_linker_0, # of connection points: 2
#     Edge 17, Type (0, 0), BuildingBlock: CIFDUS_clean_linker_0, # of connection points: 2
#     Edge 18, Type (0, 0), BuildingBlock: CIFDUS_clean_linker_0, # of connection points: 2
#     Edge 19, Type (0, 0), BuildingBlock: CIFDUS_clean_linker_0, # of connection points: 2
#     Edge 20, Type (0, 0), BuildingBlock: CIFDUS_clean_linker_0, # of connection points: 2
#     Edge 21, Type (0, 0), BuildingBlock: CIFDUS_clean_linker_0, # of connection points: 2
#     Edge 22, Type (0, 0), BuildingBlock: CIFDUS_clean_linker_0, # of connection points: 2
#     Edge 23, Type (0, 0), BuildingBlock: CIFDUS_clean_linker_0, # of connection points: 2
#     Edge 24, Type (0, 0), BuildingBlock: CIFDUS_clean_linker_0, # of connection points: 2
#     Edge 25, Type (0, 0), BuildingBlock: CIFDUS_clean_linker_0, # of connection points: 2
#     Edge 26, Type (0, 0), BuildingBlock: CIFDUS_clean_linker_0, # of connection points: 2
#     Edge 27, Type (0, 0), BuildingBlock: CIFDUS_clean_linker_0, # of connection points: 2
#     Edge 28, Type (0, 0), BuildingBlock: CIFDUS_clean_linker_0, # of connection points: 2
#     Edge 29, Type (0, 0), BuildingBlock: CIFDUS_clean_linker_0, # of connection points: 2
#     Edge 30, Type (0, 0), BuildingBlock: CIFDUS_clean_linker_0, # of connection points: 2
#     Edge 31, Type (0, 0), BuildingBlock: CIFDUS_clean_linker_0, # of connection points: 2
#     Edge 32, Type (0, 0), BuildingBlock: CIFDUS_clean_linker_0, # of connection points: 2
#     Edge 33, Type (0, 0), BuildingBlock: CIFDUS_clean_linker_0, # of connection points: 2
#     Edge 34, Type (0, 0), BuildingBlock: CIFDUS_clean_linker_0, # of connection points: 2
#     Edge 35, Type (0, 0), BuildingBlock: CIFDUS_clean_linker_0, # of connection points: 2
#     Edge 36, Type (0, 0), BuildingBlock: CIFDUS_clean_linker_0, # of connection points: 2
#     Edge 37, Type (0, 0), BuildingBlock: CIFDUS_clean_linker_0, # of connection points: 2
#     Edge 38, Type (0, 0), BuildingBlock: CIFDUS_clean_linker_0, # of connection points: 2
#     Edge 39, Type (0, 0), BuildingBlock: CIFDUS_clean_linker_0, # of connection points: 2
#     Edge 40, Type (0, 0), BuildingBlock: CIFDUS_clean_linker_0, # of connection points: 2
#     Edge 41, Type (0, 0), BuildingBlock: CIFDUS_clean_linker_0, # of connection points: 2
#     Edge 42, Type (0, 0), BuildingBlock: CIFDUS_clean_linker_0, # of connection points: 2
#     Edge 43, Type (0, 0), BuildingBlock: CIFDUS_clean_linker_0, # of connection points: 2
#     Edge 44, Type (0, 0), BuildingBlock: CIFDUS_clean_linker_0, # of connection points: 2
#     Edge 45, Type (0, 0), BuildingBlock: CIFDUS_clean_linker_0, # of connection points: 2
#     Edge 46, Type (0, 0), BuildingBlock: CIFDUS_clean_linker_0, # of connection points: 2
#     Edge 47, Type (0, 0), BuildingBlock: CIFDUS_clean_linker_0, # of connection points: 2
# Relax obj value: 0.147
# Max RMSD: 0.187
# Mean RMSD: 0.187
data_MOF--net-wjd--node1-LEVNOQ01_clean_sbu_1--edge1-CIFDUS_clean_linker_0
_symmetry_space_group_name_H-M    P1
_symmetry_Int_Tables_number       1
_symmetry_cell_setting            triclinic
loop_
_symmetry_equiv_pos_as_xyz
'x, y, z'
_cell_length_a     27.4763
_cell_length_b     27.309379
_cell_length_c     52.051892
_cell_angle_alpha  90.038301
_cell_angle_beta   90.236285
_cell_angle_gamma 120.03474
loop_
_atom_site_label
_atom_site_type_symbol
_atom_site_fract_x
_atom_site_fract_y
_atom_site_fract_z
_atom_type_partial_charge
O0 O 0.18812 -0.00117 0.14991 0.0
Mg1 Mg 0.22136 0.08406 0.16048 0.0
O2 O 0.23722 0.02403 0.11401 0.0
Mg3 Mg 0.30569 0.1166 0.11746 0.0
O4 O 0.30729 0.12504 0.16226 0.0
O5 O 0.25208 0.10702 0.19665 0.0
O6 O 0.37408 0.20852 0.12206 0.0
O7 O 0.3687 0.0847 0.12473 0.0
Mg8 Mg 0.38817 0.15535 0.07388 0.0
O9 O 0.30309 0.10786 0.07229 0.0
O10 O 0.42193 0.23914 0.08611 0.0
O11 O 0.42013 0.10609 0.08947 0.0
O12 O 0.35836 0.13868 0.03749 0.0
C13 C 0.20656 0.15533 0.12184 0.0
C14 C 0.20052 -0.01357 0.12841 0.0
C15 C 0.30162 0.12716 0.18698 0.0
C16 C 0.41092 0.24804 0.10857 0.0
C17 C 0.40653 0.08294 0.11138 0.0
C18 C 0.30912 0.10859 0.04742 0.0
O19 O 0.18977 0.13244 0.14356 0.0
O20 O 0.24512 0.15207 0.10983 0.0
O21 O 0.65945 0.51381 0.41055 0.0
Mg22 Mg 0.73799 0.55136 0.43134 0.0
O23 O 0.67018 0.57774 0.38084 0.0
Mg24 Mg 0.76539 0.63467 0.38341 0.0
O25 O 0.76163 0.63271 0.42672 0.0
O26 O 0.74998 0.59716 0.46559 0.0
O27 O 0.86018 0.68557 0.38692 0.0
O28 O 0.75952 0.71565 0.39146 0.0
Mg29 Mg 0.79334 0.71532 0.34664 0.0
O30 O 0.7688 0.63274 0.33845 0.0
O31 O 0.87519 0.75962 0.36384 0.0
O32 O 0.73178 0.73677 0.35622 0.0
O33 O 0.79459 0.70103 0.30877 0.0
C34 C 0.80374 0.54055 0.3904 0.0
C35 C 0.64004 0.53124 0.39262 0.0
C36 C 0.76015 0.63941 0.45112 0.0
C37 C 0.89287 0.7349 0.37865 0.0
C38 C 0.74088 0.744 0.38001 0.0
C39 C 0.77717 0.64901 0.31466 0.0
O40 O 0.80386 0.54349 0.41469 0.0
O41 O 0.77628 0.55726 0.37688 0.0
O42 O 0.96166 0.20243 0.13672 0.0
Mg43 Mg 0.87704 0.1431 0.14324 0.0
O44 O 0.92464 0.20513 0.09993 0.0
Mg45 Mg 0.83125 0.18352 0.10697 0.0
O46 O 0.82415 0.17267 0.15242 0.0
O47 O 0.85785 0.13432 0.18064 0.0
O48 O 0.73615 0.15446 0.11244 0.0
O49 O 0.86211 0.27736 0.11786 0.0
Mg50 Mg 0.78696 0.23093 0.06713 0.0
O51 O 0.83852 0.19805 0.06221 0.0
O52 O 0.70546 0.16769 0.07532 0.0
O53 O 0.82513 0.30743 0.08826 0.0
O54 O 0.80943 0.23194 0.0301 0.0
C55 C 0.80654 0.05192 0.10646 0.0
C56 C 0.96745 0.214 0.11312 0.0
C57 C 0.82874 0.15843 0.17583 0.0
C58 C 0.69601 0.14531 0.09727 0.0
C59 C 0.8541 0.31582 0.10851 0.0
C60 C 0.83784 0.20873 0.03783 0.0
O61 O 0.83985 0.06356 0.12526 0.0
O62 O 0.79691 0.08903 0.0969 0.0
O63 O 0.34203 0.03869 0.40699 0.0
Mg64 Mg 0.3584 0.12094 0.41729 0.0
O65 O 0.36793 0.09179 0.37382 0.0
Mg66 Mg 0.29313 0.11173 0.37765 0.0
O67 O 0.28083 0.10825 0.42334 0.0
O68 O 0.3446 0.12967 0.4548 0.0
O69 O 0.2235 0.13479 0.37683 0.0
O70 O 0.22792 0.01798 0.38126 0.0
Mg71 Mg 0.21444 0.05821 0.32574 0.0
O72 O 0.29661 0.11567 0.33409 0.0
O73 O 0.18409 0.11345 0.3376 0.0
O74 O 0.17927 0.98068 0.34571 0.0
O75 O 0.27479 0.06526 0.2992 0.0
C76 C 0.40552 0.22608 0.38396 0.0
C77 C 0.3737 0.05703 0.38786 0.0
C78 C 0.2935 0.11282 0.44777 0.0
C79 C 0.19099 0.13647 0.35969 0.0
C80 C 0.19044 0.9759 0.36883 0.0
C81 C 0.31372 0.10319 0.31347 0.0
O82 O 0.4196 0.19794 0.39852 0.0
O83 O 0.35536 0.20526 0.37617 0.0
O84 O 0.76973 0.76874 0.14761 0.0
Mg85 Mg 0.8244 0.73915 0.15733 0.0
O86 O 0.74608 0.72081 0.11098 0.0
Mg87 Mg 0.77725 0.65467 0.11315 0.0
O88 O 0.78367 0.65304 0.15758 0.0
O89 O 0.81719 0.70699 0.19291 0.0
O90 O 0.81163 0.59142 0.11805 0.0
O91 O 0.68644 0.58587 0.11799 0.0
Mg92 Mg 0.75597 0.57525 0.06852 0.0
O93 O 0.7702 0.6552 0.06866 0.0
O94 O 0.82826 0.57307 0.07904 0.0
O95 O 0.67723 0.52559 0.08694 0.0
O96 O 0.75704 0.60566 0.03264 0.0
C97 C 0.9089 0.76075 0.11759 0.0
C98 C 0.74458 0.75686 0.12614 0.0
C99 C 0.79025 0.65758 0.18235 0.0
C100 C 0.83662 0.57461 0.10293 0.0
C101 C 0.65764 0.53978 0.10581 0.0
C102 C 0.76594 0.65167 0.04378 0.0
O103 O 0.90361 0.77522 0.14002 0.0
O104 O 0.86803 0.72117 0.10561 0.0
O105 O 0.85217 0.31161 0.41439 0.0
Mg106 Mg 0.79716 0.23138 0.42894 0.0
O107 O 0.86849 0.277 0.3791 0.0
Mg108 Mg 0.82792 0.17994 0.38548 0.0
O109 O 0.83605 0.18507 0.43075 0.0
O110 O 0.81066 0.21563 0.46535 0.0
O111 O 0.78803 0.08489 0.39011 0.0
O112 O 0.91913 0.19335 0.39366 0.0
Mg113 Mg 0.87885 0.16153 0.35231 0.0
O114 O 0.81494 0.17269 0.3393 0.0
O115 O 0.85656 0.08182 0.37006 0.0
O116 O 0.95941 0.23297 0.35802 0.0
O117 O 0.86665 0.14871 0.31438 0.0
C118 C 0.69977 0.165 0.39516 0.0
C119 C 0.87526 0.31879 0.39266 0.0
C120 C 0.83598 0.1909 0.45566 0.0
C121 C 0.81228 0.05782 0.38349 0.0
C122 C 0.9641 0.22049 0.38079 0.0
C123 C 0.8272 0.16073 0.31684 0.0
O124 O 0.71397 0.18861 0.41692 0.0
O125 O 0.73562 0.16199 0.38085 0.0
O126 O 0.96026 0.25182 0.64079 0.0
Mg127 Mg 0.03548 0.25775 0.65405 0.0
O128 O 0.00578 0.24879 0.60741 0.0
Mg129 Mg 0.10416 0.31215 0.61363 0.0
O130 O 0.1104 0.33243 0.6584 0.0
O131 O 0.0489 0.28681 0.69019 0.0
O132 O 0.20357 0.37148 0.61736 0.0
O133 O 0.1005 0.39442 0.60466 0.0
Mg134 Mg 0.17465 0.35557 0.56089 0.0
O135 O 0.10017 0.29242 0.57099 0.0
O136 O 0.23882 0.35382 0.58285 0.0
O137 O 0.1604 0.4228 0.5717 0.0
O138 O 0.12764 0.29911 0.53088 0.0
C139 C 0.08879 0.19262 0.63484 0.0
C140 C 0.95914 0.23557 0.61808 0.0
C141 C 0.09654 0.32773 0.68257 0.0
C142 C 0.24561 0.37501 0.60519 0.0
C143 C 0.1311 0.43184 0.588 0.0
C144 C 0.08788 0.2754 0.54747 0.0
O145 O 0.0497 0.18791 0.64942 0.0
O146 O 0.11546 0.23612 0.62082 0.0
O147 O 0.18895 0.95702 0.83774 0.0
Mg148 Mg 0.11542 0.87686 0.83751 0.0
O149 O 0.19058 0.94387 0.8789 0.0
Mg150 Mg 0.16955 0.84989 0.88282 0.0
O151 O 0.14593 0.82336 0.84026 0.0
O152 O 0.09918 0.82707 0.80582 0.0
O153 O 0.14173 0.75669 0.88705 0.0
O154 O 0.26038 0.87136 0.86797 0.0
Mg155 Mg 0.24507 0.84811 0.91582 0.0
O156 O 0.18877 0.87256 0.92697 0.0
O157 O 0.22024 0.76487 0.90197 0.0
O158 O 0.3172 0.91602 0.89973 0.0
O159 O 0.23993 0.85253 0.9544 0.0
C160 C 0.0425 0.83614 0.88541 0.0
C161 C 0.19691 0.9767 0.86027 0.0
C162 C 0.13033 0.80979 0.81652 0.0
C163 C 0.17198 0.73508 0.89208 0.0
C164 C 0.31055 0.90132 0.87647 0.0
C165 C 0.20661 0.87218 0.95018 0.0
O166 O 0.04889 0.85816 0.86337 0.0
O167 O 0.07916 0.82606 0.89516 0.0
O168 O 0.75934 0.84529 0.64646 0.0
Mg169 Mg 0.68951 0.85986 0.64914 0.0
O170 O 0.70663 0.76287 0.62749 0.0
Mg171 Mg 0.63837 0.78549 0.61692 0.0
O172 O 0.61653 0.79254 0.66073 0.0
O173 O 0.67229 0.86714 0.68582 0.0
O174 O 0.57275 0.81292 0.60748 0.0
O175 O 0.56375 0.69105 0.62752 0.0
Mg176 Mg 0.5751 0.7161 0.57815 0.0
O177 O 0.6586 0.77227 0.57431 0.0
O178 O 0.51692 0.74367 0.58163 0.0
O179 O 0.55384 0.63796 0.59427 0.0
O180 O 0.60064 0.72374 0.54155 0.0
C181 C 0.71421 0.92648 0.61004 0.0
C182 C 0.75311 0.79907 0.63772 0.0
C183 C 0.6272 0.81894 0.68264 0.0
C184 C 0.52761 0.78729 0.5944 0.0
C185 C 0.54183 0.64182 0.61724 0.0
C186 C 0.65068 0.75701 0.55025 0.0
O187 O 0.68795 0.92662 0.62969 0.0
O188 O 0.71127 0.87975 0.60398 0.0
O189 O -0.02754 0.24574 0.85657 0.0
Mg190 Mg 0.05358 0.25717 0.85282 0.0
O191 O 0.00857 0.24721 0.89401 0.0
Mg192 Mg 0.10348 0.32193 0.88938 0.0
O193 O 0.11629 0.33623 0.84377 0.0
O194 O 0.07673 0.26364 0.81579 0.0
O195 O 0.19491 0.39368 0.88672 0.0
O196 O 0.07248 0.38654 0.88735 0.0
Mg197 Mg 0.14163 0.40148 0.93836 0.0
O198 O 0.09951 0.31604 0.93362 0.0
O199 O 0.22323 0.44431 0.92252 0.0
O200 O 0.08627 0.42896 0.92523 0.0
O201 O 0.12501 0.3572 0.97209 0.0
C202 C 0.1124 0.21072 0.88294 0.0
C203 C 0.96522 0.23047 0.87973 0.0
C204 C 0.11105 0.31626 0.82057 0.0
C205 C 0.23269 0.43372 0.90001 0.0
C206 C 0.06703 0.42028 0.90244 0.0
C207 C 0.09671 0.31194 0.95849 0.0
O208 O 0.06963 0.19562 0.86884 0.0
O209 O 0.13858 0.26089 0.89156 0.0
O210 O 0.24269 -0.00678 0.65332 0.0
Mg211 Mg 0.17235 0.91225 0.6591 0.0
O212 O 0.20479 0.95903 0.61651 0.0
Mg213 Mg 0.18199 0.86389 0.61691 0.0
O214 O 0.18315 0.84361 0.66167 0.0
O215 O 0.17638 0.89175 0.69541 0.0
O216 O 0.15563 0.76804 0.61374 0.0
O217 O 0.27685 0.88693 0.61769 0.0
Mg218 Mg 0.22824 0.84861 0.56451 0.0
O219 O 0.18005 0.88141 0.57344 0.0
O220 O 0.19516 0.76487 0.57732 0.0
O221 O 0.30744 0.91157 0.57827 0.0
O222 O 0.19537 0.86681 0.5329 0.0
C223 C 0.06255 0.85583 0.63048 0.0
C224 C 0.2309 0.00179 0.63106 0.0
C225 C 0.18235 0.85114 0.68638 0.0
C226 C 0.16747 0.74081 0.5974 0.0
C227 C 0.3171 0.90628 0.60159 0.0
C228 C 0.17895 0.89132 0.54909 0.0
O229 O 0.08824 0.8904 0.64867 0.0
O230 O 0.08804 0.83763 0.61651 0.0
O231 O 0.73544 0.7466 0.85838 0.0
Mg232 Mg 0.72708 0.81593 0.84726 0.0
O233 O 0.7102 0.76708 0.89473 0.0
Mg234 Mg 0.63673 0.78583 0.88661 0.0
O235 O 0.64523 0.79437 0.84285 0.0
O236 O 0.70444 0.81597 0.80993 0.0
O237 O 0.5634 0.80478 0.88024 0.0
O238 O 0.57269 0.69104 0.87987 0.0
Mg239 Mg 0.54116 0.73372 0.93421 0.0
O240 O 0.62411 0.7763 0.92919 0.0
O241 O 0.50706 0.77773 0.91441 0.0
O242 O 0.52052 0.65674 0.91519 0.0
O243 O 0.59004 0.75598 0.96823 0.0
C244 C 0.74947 0.91173 0.88493 0.0
C245 C 0.73576 0.7462 0.88257 0.0
C246 C 0.65476 0.80041 0.81842 0.0
C247 C 0.52055 0.79969 0.89219 0.0
C248 C 0.53491 0.65 0.89281 0.0
C249 C 0.63262 0.77256 0.95325 0.0
O250 O 0.77067 0.89407 0.86816 0.0
O251 O 0.69942 0.88082 0.89305 0.0
H252 H 0.07783 0.28459 0.12311 0.0
H253 H 0.96346 0.14199 0.07674 0.0
H254 H 0.03542 0.11574 0.07045 0.0
H255 H 0.12169 0.1204 0.0875 0.0
H256 H 0.23481 0.26171 0.13478 0.0
H257 H 0.17403 0.30293 0.13059 0.0
C258 C 0.06989 0.24961 0.11055 0.0
C259 C 0.01573 0.21518 0.10049 0.0
C260 C 0.11113 0.23408 0.10752 0.0
C261 C 0.00524 0.16948 0.08444 0.0
C262 C 0.04614 0.15393 0.08116 0.0
C263 C 0.134 0.16143 0.09585 0.0
C264 C 0.18205 0.18811 0.11151 0.0
C265 C 0.09797 0.18392 0.09395 0.0
C266 C 0.19777 0.24078 0.12263 0.0
C267 C 0.16282 0.26402 0.12042 0.0
H268 H 0.14755 0.86336 0.36076 0.0
H269 H 0.13069 -0.01441 0.40622 0.0
H270 H 0.03747 0.91438 0.41959 0.0
H271 H 0.95285 0.82604 0.4081 0.0
H272 H 0.9654 0.70392 0.36056 0.0
H273 H 0.06767 0.76534 0.35818 0.0
C274 C 0.12428 0.87321 0.37461 0.0
C275 C 0.14636 0.92896 0.38327 0.0
C276 C 0.06908 0.8324 0.38104 0.0
C277 C 0.1158 0.94222 0.40069 0.0
C278 C 0.06163 0.90177 0.40768 0.0
C279 C -0.02144 0.8123 0.39809 0.0
C280 C 0.95276 0.76191 0.38409 0.0
C281 C 0.03669 0.84796 0.39658 0.0
C282 C -0.01466 0.74333 0.37125 0.0
C283 C 0.04352 0.77846 0.36978 0.0
H284 H 0.72063 0.96641 0.13027 0.0
H285 H 0.82802 0.00739 0.06436 0.0
H286 H 0.80343 0.9082 0.06022 0.0
H287 H 0.77431 0.8198 0.08337 0.0
H288 H 0.67371 0.78148 0.15152 0.0
H289 H 0.67191 0.86958 0.14693 0.0
C290 C 0.73633 0.95276 0.11431 0.0
C291 C 0.77597 -0.00673 0.09766 0.0
C292 C 0.72405 0.89651 0.11292 0.0
C293 C 0.79708 0.97627 0.0772 0.0
C294 C 0.78352 0.91982 0.07508 0.0
C295 C 0.74859 0.82865 0.09605 0.0
C296 C 0.7235 0.79401 0.11748 0.0
C297 C 0.75008 0.88055 0.09388 0.0
C298 C 0.69288 0.80753 0.13476 0.0
C299 C 0.69241 0.85815 0.13228 0.0
H300 H 0.11869 0.1187 0.39819 0.0
H301 H 0.20175 0.22634 0.33349 0.0
H302 H 0.14776 0.2746 0.33941 0.0
H303 H 0.0658 0.27372 0.35783 0.0
H304 H -0.02589 0.15642 0.4185 0.0
H305 H 0.04326 0.12599 0.42015 0.0
C306 C 0.12524 0.1533 0.38572 0.0
C307 C 0.16279 0.16858 0.36516 0.0
C308 C 0.09246 0.1791 0.38859 0.0
C309 C 0.17179 0.21344 0.34907 0.0
C310 C 0.14124 0.24107 0.35253 0.0
C311 C 0.06189 0.24273 0.37194 0.0
C312 C 0.01449 0.21715 0.38788 0.0
C313 C 0.09974 0.22253 0.3715 0.0
C314 C 0.01032 0.17744 0.40623 0.0
C315 C 0.04946 0.15912 0.40684 0.0
H316 H 0.13309 0.96133 0.08787 0.0
H317 H 0.18467 0.88751 0.14751 0.0
H318 H 0.0974 0.7973 0.14239 0.0
H319 H -0.00216 0.75368 0.13169 0.0
H320 H 0.94092 0.83413 0.07794 0.0
H321 H 0.03823 0.90756 0.06958 0.0
C322 C 0.126 0.92443 0.09875 0.0
C323 C 0.16384 0.93016 0.11821 0.0
C324 C 0.07393 0.87476 0.09724 0.0
C325 C 0.15521 0.88319 0.13255 0.0
C326 C 0.10524 0.83209 0.1298 0.0
C327 C 0.00742 0.78609 0.11735 0.0
C328 C 0.96371 0.79005 0.10569 0.0
C329 C 0.06269 0.82925 0.11387 0.0
C330 C -0.02506 0.83126 0.08706 0.0
C331 C 0.03032 0.87324 0.08249 0.0
H332 H 0.67726 0.7944 0.37763 0.0
H333 H 0.83555 0.81724 0.40519 0.0
H334 H 0.87148 0.91819 0.41089 0.0
H335 H 0.86273 0.00163 0.4013 0.0
H336 H 0.70269 0.97913 0.37702 0.0
H337 H 0.66196 0.87627 0.37723 0.0
C338 C 0.71878 0.82134 0.38575 0.0
C339 C 0.75386 0.79889 0.3908 0.0
C340 C 0.73908 0.87937 0.3892 0.0
C341 C 0.80766 0.83374 0.40135 0.0
C342 C 0.82852 0.89158 0.40434 0.0
C343 C 0.81866 0.97392 0.39662 0.0
C344 C 0.78582 -0.00283 0.38868 0.0
C345 C 0.79541 0.91512 0.39727 0.0
C346 C 0.72859 0.96157 0.38304 0.0
C347 C 0.70543 0.90294 0.38305 0.0
H348 H 0.16226 0.01518 0.66167 0.0
H349 H 0.26162 0.08294 0.59338 0.0
H350 H 0.22336 0.1468 0.58754 0.0
H351 H 0.16145 0.18269 0.60258 0.0
H352 H 0.05879 0.10856 0.66985 0.0
H353 H 0.09801 0.04663 0.67517 0.0
C354 C 0.17643 0.04483 0.64578 0.0
C355 C 0.21577 0.04594 0.62836 0.0
C356 C 0.15298 0.07931 0.64223 0.0
C357 C 0.23211 0.08245 0.60722 0.0
C358 C 0.20999 0.11849 0.60387 0.0
C359 C 0.14743 0.15273 0.61831 0.0
C360 C 0.10755 0.15059 0.63595 0.0
C361 C 0.17019 0.11707 0.62128 0.0
C362 C 0.08932 0.11111 0.65603 0.0
C363 C 0.11203 0.07597 0.65921 0.0
H364 H 0.95155 0.73271 0.88859 0.0
H365 H 0.01614 0.90687 0.9098 0.0
H366 H 0.92083 0.88809 0.91844 0.0
H367 H 0.82017 0.82817 0.90958 0.0
H368 H 0.75665 0.6589 0.88091 0.0
H369 H 0.84938 0.6681 0.88659 0.0
C370 C 0.94456 0.76564 0.89625 0.0
C371 C -0.00985 0.82075 0.89891 0.0
C372 C 0.88948 0.75519 0.89955 0.0
C373 C -0.01872 0.86394 0.90807 0.0
C374 C 0.92682 0.85329 0.91273 0.0
C375 C 0.82626 0.79252 0.90574 0.0
C376 C 0.78211 0.74289 0.89494 0.0
C377 C 0.88054 0.79989 0.90711 0.0
C378 C 0.79029 0.69729 0.88938 0.0
C379 C 0.8434 0.70288 0.89234 0.0
H380 H 0.71856 0.02715 0.61504 0.0
H381 H 0.80843 0.95077 0.58199 0.0
H382 H 0.89118 0.04463 0.57604 0.0
H383 H 0.94327 0.14564 0.58891 0.0
H384 H 0.85409 0.21885 0.62568 0.0
H385 H 0.76579 0.1296 0.62102 0.0
C386 C 0.7558 0.03103 0.60595 0.0
C387 C 0.75765 0.98187 0.59949 0.0
C388 C 0.80376 0.08482 0.60357 0.0
C389 C 0.8059 -0.01223 0.58733 0.0
C390 C 0.85346 0.04152 0.58414 0.0
C391 C 0.90418 0.14258 0.59508 0.0
C392 C 0.90532 0.18871 0.6079 0.0
C393 C 0.85379 0.09008 0.59345 0.0
C394 C 0.85438 0.18393 0.61592 0.0
C395 C 0.80393 0.13273 0.61343 0.0
H396 H 0.06226 0.10355 0.86696 0.0
H397 H 0.21174 0.22986 0.90585 0.0
H398 H 0.25162 0.16688 0.90397 0.0
H399 H 0.24608 0.0777 0.88734 0.0
H400 H 0.0988 0.96134 0.84375 0.0
H401 H 0.05631 0.0188 0.85122 0.0
C402 C 0.10353 0.1176 0.87521 0.0
C403 C 0.13424 0.1715 0.88619 0.0
C404 C 0.12697 0.08301 0.87285 0.0
C405 C 0.18727 0.18842 0.89715 0.0
C406 C 0.21025 0.15265 0.89589 0.0
C407 C 0.20497 0.06558 0.87946 0.0
C408 C 0.17589 0.01584 0.86477 0.0
C409 C 0.18104 0.10032 0.88306 0.0
C410 C 0.12228 -0.0002 0.85486 0.0
C411 C 0.09771 0.03246 0.85919 0.0
H412 H -0.01925 0.81403 0.66583 0.0
H413 H 0.01049 0.85253 0.58524 0.0
H414 H 0.91252 0.82956 0.57928 0.0
H415 H 0.82213 0.81004 0.59858 0.0
H416 H 0.79373 0.7718 0.67924 0.0
H417 H 0.88673 0.781 0.6836 0.0
C418 C 0.96539 0.8167 0.64694 0.0
C419 C 0.00249 0.83581 0.62609 0.0
C420 C 0.90923 0.80298 0.64372 0.0
C421 C -0.01762 0.83818 0.60156 0.0
C422 C 0.92654 0.82516 0.59819 0.0
C423 C 0.83582 0.80195 0.61685 0.0
C424 C 0.80149 0.79 0.63858 0.0
C425 C 0.88998 0.80894 0.6193 0.0
C426 C 0.81966 0.78071 0.66233 0.0
C427 C 0.8729 0.78648 0.66484 0.0
H428 H 0.94949 0.14857 0.91344 0.0
H429 H 0.86103 0.19873 0.86071 0.0
H430 H 0.7794 0.10333 0.86176 0.0
H431 H 0.74168 0.00212 0.87067 0.0
H432 H 0.83569 0.95052 0.91881 0.0
H433 H 0.90646 0.04965 0.92684 0.0
C434 C 0.91159 0.13915 0.90292 0.0
C435 C 0.91132 0.18041 0.88686 0.0
C436 C 0.86623 0.08344 0.90243 0.0
C437 C 0.86217 0.16749 0.87313 0.0
C438 C 0.81572 0.11283 0.87355 0.0
C439 C 0.77685 0.013 0.88354 0.0
C440 C 0.78383 0.96987 0.89431 0.0
C441 C 0.81848 0.06985 0.88704 0.0
C442 C 0.82976 -0.0164 0.91054 0.0
C443 C 0.87021 0.04011 0.915 0.0
H444 H 0.38811 0.09011 0.28435 0.0
H445 H 0.34553 0.21442 0.30866 0.0
H446 H 0.35466 0.24859 0.26481 0.0
H447 H 0.33503 0.2141 0.21996 0.0
H448 H 0.37101 0.08497 0.1956 0.0
H449 H 0.40583 0.0825 0.23859 0.0
C450 C 0.38488 0.12735 0.28028 0.0
C451 C 0.36209 0.14698 0.29911 0.0
C452 C 0.38663 0.14411 0.25461 0.0
C453 C 0.36071 0.19687 0.29417 0.0
C454 C 0.36457 0.2156 0.26885 0.0
C455 C 0.35384 0.18806 0.22372 0.0
C456 C 0.34929 0.14872 0.20504 0.0
C457 C 0.37138 0.18523 0.24877 0.0
C458 C 0.37381 0.11527 0.20983 0.0
C459 C 0.39295 0.11331 0.23456 0.0
H460 H 0.68996 0.58716 0.28289 0.0
H461 H 0.86087 0.63201 0.29951 0.0
H462 H 0.87474 0.61501 0.25483 0.0
H463 H 0.84815 0.6223 0.21065 0.0
H464 H 0.68056 0.58775 0.19384 0.0
H465 H 0.65367 0.56173 0.23857 0.0
C466 C 0.72893 0.58966 0.27693 0.0
C467 C 0.77456 0.61132 0.29406 0.0
C468 C 0.73722 0.58237 0.25093 0.0
C469 C 0.82526 0.61518 0.28644 0.0
C470 C 0.83337 0.60616 0.26082 0.0
C471 C 0.80479 0.60538 0.21654 0.0
C472 C 0.7668 0.60863 0.1995 0.0
C473 C 0.79117 0.59471 0.24262 0.0
C474 C 0.71061 0.58621 0.20688 0.0
C475 C 0.69564 0.57257 0.23262 0.0
H476 H 0.75139 0.08359 0.2078 0.0
H477 H 0.85506 0.26209 0.19415 0.0
H478 H 0.85142 0.28161 0.23984 0.0
H479 H 0.8426 0.24448 0.28413 0.0
H480 H 0.74291 0.06515 0.29706 0.0
H481 H 0.71986 0.04897 0.2514 0.0
C482 C 0.77056 0.12688 0.21469 0.0
C483 C 0.80398 0.17133 0.19794 0.0
C484 C 0.77007 0.13733 0.24104 0.0
C485 C 0.82901 0.2273 0.20683 0.0
C486 C 0.82766 0.23832 0.23303 0.0
C487 C 0.81329 0.20237 0.27705 0.0
C488 C 0.79433 0.15596 0.29373 0.0
C489 C 0.80186 0.19332 0.25052 0.0
C490 C 0.75734 0.10137 0.28448 0.0
C491 C 0.74479 0.09209 0.25832 0.0
H492 H 0.10138 0.40578 0.71613 0.0
H493 H 0.18094 0.31004 0.69545 0.0
H494 H 0.20667 0.30853 0.74022 0.0
H495 H 0.17822 0.30828 0.78518 0.0
H496 H 0.09977 0.40508 0.80601 0.0
H497 H 0.1038 0.43458 0.76135 0.0
C498 C 0.12769 0.38806 0.72126 0.0
C499 C 0.13864 0.35742 0.70276 0.0
C500 C 0.14113 0.38628 0.7472 0.0
C501 C 0.17238 0.33415 0.70945 0.0
C502 C 0.18611 0.33229 0.73517 0.0
C503 C 0.16483 0.33827 0.78008 0.0
C504 C 0.1376 0.35364 0.7985 0.0
C505 C 0.16658 0.35427 0.75432 0.0
C506 C 0.12061 0.39264 0.79198 0.0
C507 C 0.1223 0.40891 0.76639 0.0
H508 H 0.08238 0.72466 0.78186 0.0
H509 H 0.24217 0.85391 0.81132 0.0
H510 H 0.28248 0.86951 0.76847 0.0
H511 H 0.25993 0.87025 0.72259 0.0
H512 H 0.09878 0.74379 0.69313 0.0
H513 H 0.07154 0.70162 0.73574 0.0
C514 C 0.12701 0.75338 0.77911 0.0
C515 C 0.15881 0.78966 0.7993 0.0
C516 C 0.14903 0.76376 0.75415 0.0
C517 C 0.21671 0.82606 0.79589 0.0
C518 C 0.23949 0.83587 0.77121 0.0
C519 C 0.22039 0.8312 0.72525 0.0
C520 C 0.18098 0.81039 0.70507 0.0
C521 C 0.20442 0.80864 0.75002 0.0
C522 C 0.12969 0.76022 0.70849 0.0
C523 C 0.11379 0.73671 0.73299 0.0
H524 H 0.59814 0.86822 0.71945 0.0
H525 H 0.58252 0.70911 0.69705 0.0
H526 H 0.56988 0.67903 0.74191 0.0
H527 H 0.59753 0.71321 0.78632 0.0
H528 H 0.62132 0.87578 0.80818 0.0
H529 H 0.59484 0.88909 0.765 0.0
C530 C 0.58915 0.82589 0.72439 0.0
C531 C 0.59313 0.79155 0.70541 0.0
C532 C 0.58459 0.81022 0.75023 0.0
C533 C 0.58037 0.73641 0.71156 0.0
C534 C 0.57389 0.71957 0.73725 0.0
C535 C 0.59347 0.74985 0.78191 0.0
C536 C 0.61186 0.79387 0.79992 0.0
C537 C 0.58097 0.7582 0.75674 0.0
C538 C 0.60709 0.84148 0.7944 0.0
C539 C 0.5928 0.8494 0.76961 0.0
H540 H 0.21129 0.97328 0.9483 0.0
H541 H 0.18335 0.83842 -0.00016 0.0
H542 H 0.19688 0.89918 0.03687 0.0
H543 H 0.24005 -0.00371 0.05366 0.0
H544 H 0.281 0.13363 0.00143 0.0
H545 H 0.23791 0.06697 0.96587 0.0
C546 C 0.20593 0.95667 0.96766 0.0
C547 C 0.19662 0.90172 0.97145 0.0
C548 C 0.21718 -0.00703 0.98881 0.0
C549 C 0.19072 0.88078 0.99657 0.0
C550 C 0.19885 0.91564 0.01772 0.0
C551 C 0.23692 0.01118 0.03474 0.0
C552 C 0.26361 0.06957 0.03007 0.0
C553 C 0.21547 0.97276 0.01405 0.0
C554 C 0.26042 0.0887 0.0054 0.0
C555 C 0.23646 0.05062 0.985 0.0
H556 H 0.80596 0.69223 0.49601 0.0
H557 H 0.70495 0.6903 0.43211 0.0
H558 H 0.67537 0.74694 0.45627 0.0
H559 H 0.65681 0.77099 0.49897 0.0
H560 H 0.74889 0.76313 0.5645 0.0
H561 H 0.80431 0.73793 0.5366 0.0
C562 C 0.77935 0.70637 0.48714 0.0
C563 C 0.75831 0.68796 0.46221 0.0
C564 C 0.7598 0.73607 0.5018 0.0
C565 C 0.72352 0.70587 0.45082 0.0
C566 C 0.70546 0.73718 0.46493 0.0
C567 C 0.69073 0.76613 0.50692 0.0
C568 C 0.69809 0.7675 0.53367 0.0
C569 C 0.72033 0.74901 0.49092 0.0
C570 C 0.74248 0.76207 0.54392 0.0
C571 C 0.77354 0.74676 0.52799 0.0
H572 H -0.01124 0.249 0.94383 0.0
H573 H 0.10516 0.2669 0.00367 0.0
H574 H 0.02819 0.22197 0.03431 0.0
H575 H 0.93371 0.20388 0.04616 0.0
H576 H 0.82045 0.19545 0.98642 0.0
H577 H 0.88932 0.20934 0.95379 0.0
C578 C -0.00322 0.23997 0.96317 0.0
C579 C 0.0524 0.26174 0.97161 0.0
C580 C 0.95277 0.21762 0.98104 0.0
C581 C 0.06247 0.25063 0.99684 0.0
C582 C 0.0185 0.22572 0.01448 0.0
C583 C 0.92345 0.20305 0.02597 0.0
C584 C 0.87274 0.20017 0.01878 0.0
C585 C 0.96424 0.21316 0.00723 0.0
C586 C 0.85981 0.19889 0.9925 0.0
C587 C 0.8992 0.20686 0.97377 0.0
H588 H 0.30128 0.1229 0.5001 0.0
H589 H 0.18586 0.03137 0.43874 0.0
H590 H 0.12818 0.95401 0.46784 0.0
H591 H 0.12638 0.90369 0.50754 0.0
H592 H 0.24221 -0.00441 0.56885 0.0
H593 H 0.28281 0.08201 0.54354 0.0
C594 C 0.26213 0.0872 0.49337 0.0
C595 C 0.2486 0.08198 0.467 0.0
C596 C 0.22958 0.04256 0.51032 0.0
C597 C 0.19739 0.0359 0.45875 0.0
C598 C 0.16472 -0.00864 0.47542 0.0
C599 C 0.15819 0.94345 0.51588 0.0
C600 C 0.18097 0.9434 0.5401 0.0
C601 C 0.18249 -0.00723 0.50083 0.0
C602 C 0.22289 -0.00514 0.55058 0.0
C603 C 0.24708 0.04414 0.53581 0.0
H604 H 0.75904 0.6547 0.99209 0.0
H605 H 0.76747 0.74691 0.06058 0.0
H606 H 0.7394 0.80546 0.03595 0.0
H607 H 0.69258 0.81456 0.99713 0.0
H608 H 0.66946 0.70812 0.9319 0.0
H609 H 0.72548 0.67311 0.95217 0.0
C610 C 0.75603 0.68847 0.00157 0.0
C611 C 0.76369 0.69575 0.02829 0.0
C612 C 0.73769 0.71986 0.9875 0.0
C613 C 0.76074 0.74028 0.04014 0.0
C614 C 0.74452 0.77341 0.02606 0.0
C615 C 0.70224 0.78569 0.98705 0.0
C616 C 0.68009 0.76673 0.96233 0.0
C617 C 0.72991 0.76142 2e-05 0.0
C618 C 0.69045 0.72737 0.94979 0.0
C619 C 0.72068 0.70555 0.96191 0.0
H620 H 0.04798 0.20337 0.50649 0.0
H621 H -0.00133 0.2806 0.56529 0.0
H622 H 0.90719 0.2442 0.54542 0.0
H623 H 0.85091 0.2108 0.50674 0.0
H624 H 0.90355 0.14674 0.4436 0.0
H625 H -0.01611 0.15758 0.46925 0.0
C626 C 0.01632 0.21044 0.51531 0.0
C627 C 0.02912 0.24204 0.53828 0.0
C628 C 0.96519 0.19356 0.50232 0.0
C629 C -0.01153 0.2525 0.54905 0.0
C630 C 0.93662 0.23329 0.53707 0.0
C631 C 0.87913 0.19795 0.49864 0.0
C632 C 0.8729 0.18024 0.47284 0.0
C633 C 0.92576 0.20636 0.51312 0.0
C634 C 0.90903 0.16247 0.46306 0.0
C635 C 0.95475 0.16869 0.47775 0.0
H636 H 0.64093 0.14677 0.14029 0.0
H637 H 0.62099 0.05746 0.06921 0.0
H638 H 0.51909 0.00938 0.07326 0.0
H639 H 0.43997 0.01595 0.08977 0.0
H640 H 0.45968 0.11424 0.15765 0.0
H641 H 0.556 0.13312 0.16317 0.0
C642 C 0.61397 0.11512 0.12634 0.0
C643 C 0.63758 0.10621 0.10424 0.0
C644 C 0.55523 0.0896 0.1282 0.0
C645 C 0.60301 0.06536 0.08612 0.0
C646 C 0.54489 0.03793 0.08843 0.0
C647 C 0.46453 0.03885 0.10653 0.0
C648 C 0.44411 0.06525 0.12279 0.0
C649 C 0.52079 0.05286 0.10836 0.0
C650 C 0.47519 0.09407 0.14473 0.0
C651 C 0.53069 0.10587 0.14755 0.0
H652 H 0.62517 0.44988 0.36109 0.0
H653 H 0.53589 0.51736 0.40198 0.0
H654 H 0.44804 0.42639 0.39771 0.0
H655 H 0.40396 0.32289 0.39158 0.0
H656 H 0.5009 0.2545 0.35846 0.0
H657 H 0.57869 0.34998 0.35027 0.0
C658 C 0.58577 0.44501 0.36807 0.0
C659 C 0.58613 0.48934 0.38171 0.0
C660 C 0.53747 0.39177 0.3676 0.0
C661 C 0.53581 0.48339 0.39117 0.0
C662 C 0.48605 0.43125 0.38909 0.0
C663 C 0.44182 0.3294 0.38208 0.0
C664 C 0.44779 0.2827 0.37586 0.0
C665 C 0.48738 0.38429 0.37885 0.0
C666 C 0.49645 0.2905 0.36366 0.0
C667 C 0.5406 0.34484 0.35893 0.0
H668 H 0.93522 0.42026 0.09575 0.0
H669 H 0.80627 0.32772 0.1515 0.0
H670 H 0.79902 0.41174 0.16061 0.0
H671 H 0.809 0.49994 0.1423 0.0
H672 H 0.93398 0.58861 0.0842 0.0
H673 H 0.96514 0.51947 0.08715 0.0
C674 C 0.90793 0.41967 0.11091 0.0
C675 C 0.87081 0.3683 0.12269 0.0
C676 C 0.90247 0.46737 0.11517 0.0
C677 C 0.83526 0.36725 0.14225 0.0
C678 C 0.83052 0.41506 0.14715 0.0
C679 C 0.84474 0.50537 0.13122 0.0
C680 C 0.86825 0.548 0.11253 0.0
C681 C 0.86074 0.46385 0.13219 0.0
C682 C 0.91466 0.55516 0.09832 0.0
C683 C 0.93223 0.51547 0.09988 0.0
H684 H 0.45357 0.07398 0.35129 0.0
H685 H 0.42335 0.06328 0.43322 0.0
H686 H 0.5204 0.09439 0.44184 0.0
H687 H 0.61421 0.12968 0.42734 0.0
H688 H 0.6512 0.13852 0.34653 0.0
H689 H 0.55094 0.10111 0.33628 0.0
C690 C 0.46826 0.07724 0.37093 0.0
C691 C 0.4308 0.06575 0.39147 0.0
C692 C 0.52521 0.09482 0.37606 0.0
C693 C 0.45049 0.0706 0.4169 0.0
C694 C 0.50638 0.08897 0.422 0.0
C695 C 0.60065 0.12358 0.4074 0.0
C696 C 0.64002 0.1382 0.38773 0.0
C697 C 0.54403 0.102 0.40184 0.0
C698 C 0.62147 0.12828 0.36203 0.0
C699 C 0.56431 0.10704 0.35621 0.0
H700 H 0.42227 0.34355 0.08977 0.0
H701 H 0.47526 0.27577 0.15146 0.0
H702 H 0.55387 0.37033 0.16139 0.0
H703 H 0.61909 0.46535 0.14449 0.0
H704 H 0.568 0.52955 0.08058 0.0
H705 H 0.47554 0.44423 0.08003 0.0
C706 C 0.44995 0.35029 0.10599 0.0
C707 C 0.44459 0.30396 0.11963 0.0
C708 C 0.49525 0.40399 0.11101 0.0
C709 C 0.47957 0.31176 0.14076 0.0
C710 C 0.52452 0.36552 0.14627 0.0
C711 C 0.58648 0.46137 0.13137 0.0
C712 C 0.59935 0.50236 0.11246 0.0
C713 C 0.53466 0.41117 0.13043 0.0
C714 C 0.55801 0.49773 0.09523 0.0
C715 C 0.50561 0.44892 0.09475 0.0
H716 H 0.89837 0.5431 0.40535 0.0
H717 H 0.76693 0.47209 0.34811 0.0
H718 H 0.79525 0.40341 0.33594 0.0
H719 H 0.83809 0.34823 0.35118 0.0
H720 H 0.96242 0.41515 0.4115 0.0
H721 H 0.95925 0.50275 0.41183 0.0
C722 C 0.87709 0.51353 0.38972 0.0
C723 C 0.82954 0.51071 0.37829 0.0
C724 C 0.89278 0.47371 0.38332 0.0
C725 C 0.80304 0.47386 0.35752 0.0
C726 C 0.81916 0.43461 0.3506 0.0
C727 C 0.86694 0.38353 0.36319 0.0
C728 C 0.89937 0.37537 0.38174 0.0
C729 C 0.86139 0.43175 0.36464 0.0
C730 C 0.93686 0.42087 0.39724 0.0
C731 C 0.9341 0.47039 0.3978 0.0
H732 H 0.21517 0.68905 0.5743 0.0
H733 H 0.08795 0.65865 0.63026 0.0
H734 H 0.06378 0.55857 0.63302 0.0
H735 H 0.07858 0.47868 0.6175 0.0
H736 H 0.20506 0.51846 0.55908 0.0
H737 H 0.22858 0.61513 0.55929 0.0
C738 C 0.18152 0.6608 0.58701 0.0
C739 C 0.15259 0.68112 0.60155 0.0
C740 C 0.16738 0.60434 0.58796 0.0
C741 C 0.1106 0.64391 0.61857 0.0
C742 C 0.09668 0.58668 0.62005 0.0
C743 C 0.11082 0.50852 0.60472 0.0
C744 C 0.13951 0.49016 0.58824 0.0
C745 C 0.12446 0.56604 0.60445 0.0
C746 C 0.1815 0.52997 0.57193 0.0
C747 C 0.19556 0.58602 0.572 0.0
H748 H 0.30481 0.80497 0.8615 0.0
H749 H 0.41927 -0.016 0.86865 0.0
H750 H 0.49935 0.96792 0.86871 0.0
H751 H 0.5338 0.90147 0.87779 0.0
H752 H 0.41593 0.7224 0.87784 0.0
H753 H 0.34035 0.7392 0.86424 0.0
C754 C 0.34746 0.84059 0.86185 0.0
C755 C 0.35636 0.89559 0.86499 0.0
C756 C 0.39261 0.83053 0.86422 0.0
C757 C 0.41163 0.94137 0.866 0.0
C758 C 0.45729 0.93203 0.86651 0.0
C759 C 0.49187 0.86639 0.87402 0.0
C760 C 0.47998 0.81097 0.87883 0.0
C761 C 0.448 0.87662 0.86737 0.0
C762 C 0.4256 0.76545 0.87426 0.0
C763 C 0.38244 0.77505 0.86653 0.0
H764 H 0.50606 0.5312 0.60909 0.0
H765 H 0.46097 0.64192 0.64805 0.0
H766 H 0.36363 0.56437 0.65166 0.0
H767 H 0.28819 0.47044 0.63566 0.0
H768 H 0.33547 0.36306 0.59488 0.0
H769 H 0.43447 0.43319 0.60034 0.0
C770 C 0.47535 0.53785 0.61917 0.0
C771 C 0.49071 0.59245 0.62797 0.0
C772 C 0.41921 0.49365 0.62036 0.0
C773 C 0.45048 0.60032 0.64113 0.0
C774 C 0.39447 0.55606 0.64287 0.0
C775 C 0.32024 0.46172 0.6287 0.0
C776 C 0.30428 0.41169 0.61456 0.0
C777 C 0.37773 0.50328 0.63134 0.0
C778 C 0.34646 0.40133 0.60555 0.0
C779 C 0.40321 0.44155 0.60861 0.0
H780 H 0.07016 0.64566 0.90279 0.0
H781 H 0.22823 0.69313 0.86637 0.0
H782 H 0.19776 0.59364 0.85819 0.0
H783 H 0.13462 0.49497 0.86882 0.0
H784 H -0.01301 0.44836 0.91402 0.0
H785 H 0.00237 0.54465 0.91022 0.0
C786 C 0.09732 0.63385 0.89276 0.0
C787 C 0.15152 0.67581 0.88555 0.0
C788 C 0.08068 0.57661 0.88945 0.0
C789 C 0.18678 0.66091 0.87252 0.0
C790 C 0.1692 0.60426 0.86769 0.0
C791 C 0.10448 0.50547 0.87679 0.0
C792 C 0.0595 0.46516 0.8914 0.0
C793 C 0.11725 0.56183 0.877 0.0
C794 C 0.02138 0.47895 0.90237 0.0
C795 C 0.03089 0.53415 0.90061 0.0
H796 H 0.33218 0.83583 0.57341 0.0
H797 H 0.40044 0.9443 0.63964 0.0
H798 H 0.47412 0.91772 0.64342 0.0
H799 H 0.51879 0.86315 0.62652 0.0
H800 H 0.44359 0.75505 0.56015 0.0
H801 H 0.3729 0.78255 0.55773 0.0
C802 C 0.36371 0.85452 0.58852 0.0
C803 C 0.36232 0.89319 0.60571 0.0
C804 C 0.40453 0.839 0.59049 0.0
C805 C 0.40163 0.91514 0.62589 0.0
C806 C 0.44351 0.89993 0.62798 0.0
C807 C 0.48711 0.84615 0.61148 0.0
C808 C 0.48677 0.80729 0.59345 0.0
C809 C 0.44557 0.86203 0.61016 0.0
C810 C 0.44504 0.78492 0.57427 0.0
C811 C 0.40445 0.80059 0.5728 0.0
H812 H 0.45204 0.6463 0.86645 0.0
H813 H 0.5202 0.5429 0.89178 0.0
H814 H 0.42613 0.45873 0.89034 0.0
H815 H 0.32407 0.42231 0.89451 0.0
H816 H 0.25847 0.53338 0.87913 0.0
H817 H 0.35111 0.60762 0.86504 0.0
C818 C 0.44635 0.60466 0.87037 0.0
C819 C 0.49218 0.60016 0.87922 0.0
C820 C 0.39197 0.55868 0.87271 0.0
C821 C 0.48514 0.54681 0.88476 0.0
C822 C 0.43126 0.49913 0.88451 0.0
C823 C 0.33029 0.46238 0.8874 0.0
C824 C 0.28565 0.47327 0.88786 0.0
C825 C 0.38418 0.50561 0.8806 0.0
C826 C 0.29303 0.5249 0.87889 0.0
C827 C 0.34574 0.56706 0.87081 0.0
loop_
_geom_bond_atom_site_label_1
_geom_bond_atom_site_label_2
_geom_bond_distance
_geom_bond_site_symmetry_2
_ccdc_geom_bond_type
O0 Mg1 1.990 . S
O0 C14 1.253 . S
Mg1 O0 1.990 . S
Mg1 O4 2.180 . S
Mg1 O5 2.117 . S
Mg1 O19 2.030 . S
O2 Mg3 2.072 . S
O2 C14 1.260 . S
Mg3 O2 2.072 . S
Mg3 O4 2.099 . S
Mg3 O6 2.079 . S
Mg3 O7 2.072 . S
Mg3 O9 2.099 . S
Mg3 O20 2.079 . S
O4 Mg1 2.180 . S
O4 Mg3 2.099 . S
O4 C15 1.279 . S
O5 Mg1 2.117 . S
O5 C15 1.250 . S
O6 Mg3 2.079 . S
O6 C16 1.264 . S
O7 Mg3 2.072 . S
O7 C17 1.260 . S
Mg8 O9 2.180 . S
Mg8 O10 2.030 . S
Mg8 O11 1.990 . S
Mg8 O12 2.117 . S
O9 Mg3 2.099 . S
O9 Mg8 2.180 . S
O9 C18 1.279 . S
O10 Mg8 2.030 . S
O10 C16 1.248 . S
O11 Mg8 1.990 . S
O11 C17 1.253 . S
O12 Mg8 2.117 . S
O12 C18 1.250 . S
C13 O19 1.248 . S
C13 O20 1.264 . S
C14 O0 1.253 . S
C14 O2 1.260 . S
C15 O4 1.279 . S
C15 O5 1.250 . S
C16 O6 1.264 . S
C16 O10 1.248 . S
C17 O7 1.260 . S
C17 O11 1.253 . S
C18 O9 1.279 . S
C18 O12 1.250 . S
O19 Mg1 2.030 . S
O19 C13 1.248 . S
O20 Mg3 2.079 . S
O20 C13 1.264 . S
O21 Mg22 1.990 . S
O21 C35 1.253 . S
Mg22 O21 1.990 . S
Mg22 O25 2.180 . S
Mg22 O26 2.117 . S
Mg22 O40 2.030 . S
O23 Mg24 2.072 . S
O23 C35 1.260 . S
Mg24 O23 2.072 . S
Mg24 O25 2.099 . S
Mg24 O27 2.079 . S
Mg24 O28 2.072 . S
Mg24 O30 2.099 . S
Mg24 O41 2.079 . S
O25 Mg22 2.180 . S
O25 Mg24 2.099 . S
O25 C36 1.279 . S
O26 Mg22 2.117 . S
O26 C36 1.250 . S
O27 Mg24 2.079 . S
O27 C37 1.264 . S
O28 Mg24 2.072 . S
O28 C38 1.260 . S
Mg29 O30 2.180 . S
Mg29 O31 2.030 . S
Mg29 O32 1.990 . S
Mg29 O33 2.117 . S
O30 Mg24 2.099 . S
O30 Mg29 2.180 . S
O30 C39 1.279 . S
O31 Mg29 2.030 . S
O31 C37 1.248 . S
O32 Mg29 1.990 . S
O32 C38 1.253 . S
O33 Mg29 2.117 . S
O33 C39 1.250 . S
C34 O40 1.248 . S
C34 O41 1.264 . S
C35 O21 1.253 . S
C35 O23 1.260 . S
C36 O25 1.279 . S
C36 O26 1.250 . S
C37 O27 1.264 . S
C37 O31 1.248 . S
C38 O28 1.260 . S
C38 O32 1.253 . S
C39 O30 1.279 . S
C39 O33 1.250 . S
O40 Mg22 2.030 . S
O40 C34 1.248 . S
O41 Mg24 2.079 . S
O41 C34 1.264 . S
O42 Mg43 1.990 . S
O42 C56 1.253 . S
Mg43 O42 1.990 . S
Mg43 O46 2.180 . S
Mg43 O47 2.117 . S
Mg43 O61 2.030 . S
O44 Mg45 2.072 . S
O44 C56 1.260 . S
Mg45 O44 2.072 . S
Mg45 O46 2.099 . S
Mg45 O48 2.079 . S
Mg45 O49 2.072 . S
Mg45 O51 2.099 . S
Mg45 O62 2.079 . S
O46 Mg43 2.180 . S
O46 Mg45 2.099 . S
O46 C57 1.279 . S
O47 Mg43 2.117 . S
O47 C57 1.250 . S
O48 Mg45 2.079 . S
O48 C58 1.264 . S
O49 Mg45 2.072 . S
O49 C59 1.260 . S
Mg50 O51 2.180 . S
Mg50 O52 2.030 . S
Mg50 O53 1.990 . S
Mg50 O54 2.117 . S
O51 Mg45 2.099 . S
O51 Mg50 2.180 . S
O51 C60 1.279 . S
O52 Mg50 2.030 . S
O52 C58 1.248 . S
O53 Mg50 1.990 . S
O53 C59 1.253 . S
O54 Mg50 2.117 . S
O54 C60 1.250 . S
C55 O61 1.248 . S
C55 O62 1.264 . S
C56 O42 1.253 . S
C56 O44 1.260 . S
C57 O46 1.279 . S
C57 O47 1.250 . S
C58 O48 1.264 . S
C58 O52 1.248 . S
C59 O49 1.260 . S
C59 O53 1.253 . S
C60 O51 1.279 . S
C60 O54 1.250 . S
O61 Mg43 2.030 . S
O61 C55 1.248 . S
O62 Mg45 2.079 . S
O62 C55 1.264 . S
O63 Mg64 1.990 . S
O63 C77 1.253 . S
Mg64 O63 1.990 . S
Mg64 O67 2.180 . S
Mg64 O68 2.117 . S
Mg64 O82 2.030 . S
O65 Mg66 2.072 . S
O65 C77 1.260 . S
Mg66 O65 2.072 . S
Mg66 O67 2.099 . S
Mg66 O69 2.079 . S
Mg66 O70 2.072 . S
Mg66 O72 2.099 . S
Mg66 O83 2.079 . S
O67 Mg64 2.180 . S
O67 Mg66 2.099 . S
O67 C78 1.279 . S
O68 Mg64 2.117 . S
O68 C78 1.250 . S
O69 Mg66 2.079 . S
O69 C79 1.264 . S
O70 Mg66 2.072 . S
O70 C80 1.260 . S
Mg71 O72 2.180 . S
Mg71 O73 2.030 . S
Mg71 O74 1.990 . S
Mg71 O75 2.117 . S
O72 Mg66 2.099 . S
O72 Mg71 2.180 . S
O72 C81 1.279 . S
O73 Mg71 2.030 . S
O73 C79 1.248 . S
O74 Mg71 1.990 . S
O74 C80 1.253 . S
O75 Mg71 2.117 . S
O75 C81 1.250 . S
C76 O82 1.248 . S
C76 O83 1.264 . S
C77 O63 1.253 . S
C77 O65 1.260 . S
C78 O67 1.279 . S
C78 O68 1.250 . S
C79 O69 1.264 . S
C79 O73 1.248 . S
C80 O70 1.260 . S
C80 O74 1.253 . S
C81 O72 1.279 . S
C81 O75 1.250 . S
O82 Mg64 2.030 . S
O82 C76 1.248 . S
O83 Mg66 2.079 . S
O83 C76 1.264 . S
O84 Mg85 1.990 . S
O84 C98 1.253 . S
Mg85 O84 1.990 . S
Mg85 O88 2.180 . S
Mg85 O89 2.117 . S
Mg85 O103 2.030 . S
O86 Mg87 2.072 . S
O86 C98 1.260 . S
Mg87 O86 2.072 . S
Mg87 O88 2.099 . S
Mg87 O90 2.079 . S
Mg87 O91 2.072 . S
Mg87 O93 2.099 . S
Mg87 O104 2.079 . S
O88 Mg85 2.180 . S
O88 Mg87 2.099 . S
O88 C99 1.279 . S
O89 Mg85 2.117 . S
O89 C99 1.250 . S
O90 Mg87 2.079 . S
O90 C100 1.264 . S
O91 Mg87 2.072 . S
O91 C101 1.260 . S
Mg92 O93 2.180 . S
Mg92 O94 2.030 . S
Mg92 O95 1.990 . S
Mg92 O96 2.117 . S
O93 Mg87 2.099 . S
O93 Mg92 2.180 . S
O93 C102 1.279 . S
O94 Mg92 2.030 . S
O94 C100 1.248 . S
O95 Mg92 1.990 . S
O95 C101 1.253 . S
O96 Mg92 2.117 . S
O96 C102 1.250 . S
C97 O103 1.248 . S
C97 O104 1.264 . S
C98 O84 1.253 . S
C98 O86 1.260 . S
C99 O88 1.279 . S
C99 O89 1.250 . S
C100 O90 1.264 . S
C100 O94 1.248 . S
C101 O91 1.260 . S
C101 O95 1.253 . S
C102 O93 1.279 . S
C102 O96 1.250 . S
O103 Mg85 2.030 . S
O103 C97 1.248 . S
O104 Mg87 2.079 . S
O104 C97 1.264 . S
O105 Mg106 1.990 . S
O105 C119 1.253 . S
Mg106 O105 1.990 . S
Mg106 O109 2.180 . S
Mg106 O110 2.117 . S
Mg106 O124 2.030 . S
O107 Mg108 2.072 . S
O107 C119 1.260 . S
Mg108 O107 2.072 . S
Mg108 O109 2.099 . S
Mg108 O111 2.079 . S
Mg108 O112 2.072 . S
Mg108 O114 2.099 . S
Mg108 O125 2.079 . S
O109 Mg106 2.180 . S
O109 Mg108 2.099 . S
O109 C120 1.279 . S
O110 Mg106 2.117 . S
O110 C120 1.250 . S
O111 Mg108 2.079 . S
O111 C121 1.264 . S
O112 Mg108 2.072 . S
O112 C122 1.260 . S
Mg113 O114 2.180 . S
Mg113 O115 2.030 . S
Mg113 O116 1.990 . S
Mg113 O117 2.117 . S
O114 Mg108 2.099 . S
O114 Mg113 2.180 . S
O114 C123 1.279 . S
O115 Mg113 2.030 . S
O115 C121 1.248 . S
O116 Mg113 1.990 . S
O116 C122 1.253 . S
O117 Mg113 2.117 . S
O117 C123 1.250 . S
C118 O124 1.248 . S
C118 O125 1.264 . S
C119 O105 1.253 . S
C119 O107 1.260 . S
C120 O109 1.279 . S
C120 O110 1.250 . S
C121 O111 1.264 . S
C121 O115 1.248 . S
C122 O112 1.260 . S
C122 O116 1.253 . S
C123 O114 1.279 . S
C123 O117 1.250 . S
O124 Mg106 2.030 . S
O124 C118 1.248 . S
O125 Mg108 2.079 . S
O125 C118 1.264 . S
O126 Mg127 1.990 . S
O126 C140 1.253 . S
Mg127 O126 1.990 . S
Mg127 O130 2.180 . S
Mg127 O131 2.117 . S
Mg127 O145 2.030 . S
O128 Mg129 2.072 . S
O128 C140 1.260 . S
Mg129 O128 2.072 . S
Mg129 O130 2.099 . S
Mg129 O132 2.079 . S
Mg129 O133 2.072 . S
Mg129 O135 2.099 . S
Mg129 O146 2.079 . S
O130 Mg127 2.180 . S
O130 Mg129 2.099 . S
O130 C141 1.279 . S
O131 Mg127 2.117 . S
O131 C141 1.250 . S
O132 Mg129 2.079 . S
O132 C142 1.264 . S
O133 Mg129 2.072 . S
O133 C143 1.260 . S
Mg134 O135 2.180 . S
Mg134 O136 2.030 . S
Mg134 O137 1.990 . S
Mg134 O138 2.117 . S
O135 Mg129 2.099 . S
O135 Mg134 2.180 . S
O135 C144 1.279 . S
O136 Mg134 2.030 . S
O136 C142 1.248 . S
O137 Mg134 1.990 . S
O137 C143 1.253 . S
O138 Mg134 2.117 . S
O138 C144 1.250 . S
C139 O145 1.248 . S
C139 O146 1.264 . S
C140 O126 1.253 . S
C140 O128 1.260 . S
C141 O130 1.279 . S
C141 O131 1.250 . S
C142 O132 1.264 . S
C142 O136 1.248 . S
C143 O133 1.260 . S
C143 O137 1.253 . S
C144 O135 1.279 . S
C144 O138 1.250 . S
O145 Mg127 2.030 . S
O145 C139 1.248 . S
O146 Mg129 2.079 . S
O146 C139 1.264 . S
O147 Mg148 1.990 . S
O147 C161 1.253 . S
Mg148 O147 1.990 . S
Mg148 O151 2.180 . S
Mg148 O152 2.117 . S
Mg148 O166 2.030 . S
O149 Mg150 2.072 . S
O149 C161 1.260 . S
Mg150 O149 2.072 . S
Mg150 O151 2.099 . S
Mg150 O153 2.079 . S
Mg150 O154 2.072 . S
Mg150 O156 2.099 . S
Mg150 O167 2.079 . S
O151 Mg148 2.180 . S
O151 Mg150 2.099 . S
O151 C162 1.279 . S
O152 Mg148 2.117 . S
O152 C162 1.250 . S
O153 Mg150 2.079 . S
O153 C163 1.264 . S
O154 Mg150 2.072 . S
O154 C164 1.260 . S
Mg155 O156 2.180 . S
Mg155 O157 2.030 . S
Mg155 O158 1.990 . S
Mg155 O159 2.117 . S
O156 Mg150 2.099 . S
O156 Mg155 2.180 . S
O156 C165 1.279 . S
O157 Mg155 2.030 . S
O157 C163 1.248 . S
O158 Mg155 1.990 . S
O158 C164 1.253 . S
O159 Mg155 2.117 . S
O159 C165 1.250 . S
C160 O166 1.248 . S
C160 O167 1.264 . S
C161 O147 1.253 . S
C161 O149 1.260 . S
C162 O151 1.279 . S
C162 O152 1.250 . S
C163 O153 1.264 . S
C163 O157 1.248 . S
C164 O154 1.260 . S
C164 O158 1.253 . S
C165 O156 1.279 . S
C165 O159 1.250 . S
O166 Mg148 2.030 . S
O166 C160 1.248 . S
O167 Mg150 2.079 . S
O167 C160 1.264 . S
O168 Mg169 1.990 . S
O168 C182 1.253 . S
Mg169 O168 1.990 . S
Mg169 O172 2.180 . S
Mg169 O173 2.117 . S
Mg169 O187 2.030 . S
O170 Mg171 2.072 . S
O170 C182 1.260 . S
Mg171 O170 2.072 . S
Mg171 O172 2.099 . S
Mg171 O174 2.079 . S
Mg171 O175 2.072 . S
Mg171 O177 2.099 . S
Mg171 O188 2.079 . S
O172 Mg169 2.180 . S
O172 Mg171 2.099 . S
O172 C183 1.279 . S
O173 Mg169 2.117 . S
O173 C183 1.250 . S
O174 Mg171 2.079 . S
O174 C184 1.264 . S
O175 Mg171 2.072 . S
O175 C185 1.260 . S
Mg176 O177 2.180 . S
Mg176 O178 2.030 . S
Mg176 O179 1.990 . S
Mg176 O180 2.117 . S
O177 Mg171 2.099 . S
O177 Mg176 2.180 . S
O177 C186 1.279 . S
O178 Mg176 2.030 . S
O178 C184 1.248 . S
O179 Mg176 1.990 . S
O179 C185 1.253 . S
O180 Mg176 2.117 . S
O180 C186 1.250 . S
C181 O187 1.248 . S
C181 O188 1.264 . S
C182 O168 1.253 . S
C182 O170 1.260 . S
C183 O172 1.279 . S
C183 O173 1.250 . S
C184 O174 1.264 . S
C184 O178 1.248 . S
C185 O175 1.260 . S
C185 O179 1.253 . S
C186 O177 1.279 . S
C186 O180 1.250 . S
O187 Mg169 2.030 . S
O187 C181 1.248 . S
O188 Mg171 2.079 . S
O188 C181 1.264 . S
O189 Mg190 1.990 . S
O189 C203 1.253 . S
Mg190 O189 1.990 . S
Mg190 O193 2.180 . S
Mg190 O194 2.117 . S
Mg190 O208 2.030 . S
O191 Mg192 2.072 . S
O191 C203 1.260 . S
Mg192 O191 2.072 . S
Mg192 O193 2.099 . S
Mg192 O195 2.079 . S
Mg192 O196 2.072 . S
Mg192 O198 2.099 . S
Mg192 O209 2.079 . S
O193 Mg190 2.180 . S
O193 Mg192 2.099 . S
O193 C204 1.279 . S
O194 Mg190 2.117 . S
O194 C204 1.250 . S
O195 Mg192 2.079 . S
O195 C205 1.264 . S
O196 Mg192 2.072 . S
O196 C206 1.260 . S
Mg197 O198 2.180 . S
Mg197 O199 2.030 . S
Mg197 O200 1.990 . S
Mg197 O201 2.117 . S
O198 Mg192 2.099 . S
O198 Mg197 2.180 . S
O198 C207 1.279 . S
O199 Mg197 2.030 . S
O199 C205 1.248 . S
O200 Mg197 1.990 . S
O200 C206 1.253 . S
O201 Mg197 2.117 . S
O201 C207 1.250 . S
C202 O208 1.248 . S
C202 O209 1.264 . S
C203 O189 1.253 . S
C203 O191 1.260 . S
C204 O193 1.279 . S
C204 O194 1.250 . S
C205 O195 1.264 . S
C205 O199 1.248 . S
C206 O196 1.260 . S
C206 O200 1.253 . S
C207 O198 1.279 . S
C207 O201 1.250 . S
O208 Mg190 2.030 . S
O208 C202 1.248 . S
O209 Mg192 2.079 . S
O209 C202 1.264 . S
O210 Mg211 1.990 . S
O210 C224 1.253 . S
Mg211 O210 1.990 . S
Mg211 O214 2.180 . S
Mg211 O215 2.117 . S
Mg211 O229 2.030 . S
O212 Mg213 2.072 . S
O212 C224 1.260 . S
Mg213 O212 2.072 . S
Mg213 O214 2.099 . S
Mg213 O216 2.079 . S
Mg213 O217 2.072 . S
Mg213 O219 2.099 . S
Mg213 O230 2.079 . S
O214 Mg211 2.180 . S
O214 Mg213 2.099 . S
O214 C225 1.279 . S
O215 Mg211 2.117 . S
O215 C225 1.250 . S
O216 Mg213 2.079 . S
O216 C226 1.264 . S
O217 Mg213 2.072 . S
O217 C227 1.260 . S
Mg218 O219 2.180 . S
Mg218 O220 2.030 . S
Mg218 O221 1.990 . S
Mg218 O222 2.117 . S
O219 Mg213 2.099 . S
O219 Mg218 2.180 . S
O219 C228 1.279 . S
O220 Mg218 2.030 . S
O220 C226 1.248 . S
O221 Mg218 1.990 . S
O221 C227 1.253 . S
O222 Mg218 2.117 . S
O222 C228 1.250 . S
C223 O229 1.248 . S
C223 O230 1.264 . S
C224 O210 1.253 . S
C224 O212 1.260 . S
C225 O214 1.279 . S
C225 O215 1.250 . S
C226 O216 1.264 . S
C226 O220 1.248 . S
C227 O217 1.260 . S
C227 O221 1.253 . S
C228 O219 1.279 . S
C228 O222 1.250 . S
O229 Mg211 2.030 . S
O229 C223 1.248 . S
O230 Mg213 2.079 . S
O230 C223 1.264 . S
O231 Mg232 1.990 . S
O231 C245 1.253 . S
Mg232 O231 1.990 . S
Mg232 O235 2.180 . S
Mg232 O236 2.117 . S
Mg232 O250 2.030 . S
O233 Mg234 2.072 . S
O233 C245 1.260 . S
Mg234 O233 2.072 . S
Mg234 O235 2.099 . S
Mg234 O237 2.079 . S
Mg234 O238 2.072 . S
Mg234 O240 2.099 . S
Mg234 O251 2.079 . S
O235 Mg232 2.180 . S
O235 Mg234 2.099 . S
O235 C246 1.279 . S
O236 Mg232 2.117 . S
O236 C246 1.250 . S
O237 Mg234 2.079 . S
O237 C247 1.264 . S
O238 Mg234 2.072 . S
O238 C248 1.260 . S
Mg239 O240 2.180 . S
Mg239 O241 2.030 . S
Mg239 O242 1.990 . S
Mg239 O243 2.117 . S
O240 Mg234 2.099 . S
O240 Mg239 2.180 . S
O240 C249 1.279 . S
O241 Mg239 2.030 . S
O241 C247 1.248 . S
O242 Mg239 1.990 . S
O242 C248 1.253 . S
O243 Mg239 2.117 . S
O243 C249 1.250 . S
C244 O250 1.248 . S
C244 O251 1.264 . S
C245 O231 1.253 . S
C245 O233 1.260 . S
C246 O235 1.279 . S
C246 O236 1.250 . S
C247 O237 1.264 . S
C247 O241 1.248 . S
C248 O238 1.260 . S
C248 O242 1.253 . S
C249 O240 1.279 . S
C249 O243 1.250 . S
O250 Mg232 2.030 . S
O250 C244 1.248 . S
O251 Mg234 2.079 . S
O251 C244 1.264 . S
H252 C258 0.930 . S
H253 C261 0.930 . S
H254 C262 0.930 . S
H255 C263 0.930 . S
H256 C266 0.930 . S
H257 C267 0.930 . S
C258 H252 0.930 . S
C258 C259 1.355 . S
C258 C260 1.415 . S
C259 C258 1.355 . S
C259 C261 1.419 1_455 S
C260 C258 1.415 . S
C260 C265 1.425 . S
C260 C267 1.409 . S
C261 H253 0.930 . S
C261 C259 1.419 1_655 S
C261 C262 1.362 1_655 S
C262 H254 0.930 . S
C262 C261 1.362 1_455 S
C262 C265 1.409 . S
C263 H255 0.930 . S
C263 C264 1.355 . S
C263 C265 1.415 . S
C264 C263 1.355 . S
C264 C266 1.419 . S
C265 C260 1.425 . S
C265 C262 1.409 . S
C265 C263 1.415 . S
C266 H256 0.930 . S
C266 C264 1.419 . S
C266 C267 1.362 . S
C267 H257 0.930 . S
C267 C260 1.409 . S
C267 C266 1.362 . S
H268 C274 0.930 . S
H269 C277 0.930 . S
H270 C278 0.930 . S
H271 C279 0.930 1_655 S
H272 C282 0.930 . S
H273 C283 0.930 . S
C274 H268 0.930 . S
C274 C275 1.355 . S
C274 C276 1.415 . S
C275 C274 1.355 . S
C275 C277 1.419 1_565 S
C276 C274 1.415 . S
C276 C281 1.425 . S
C276 C283 1.409 . S
C277 H269 0.930 . S
C277 C275 1.419 1_545 S
C277 C278 1.362 1_545 S
C278 H270 0.930 . S
C278 C277 1.362 1_565 S
C278 C281 1.409 . S
C279 H271 0.930 1_455 S
C279 C280 1.355 1_455 S
C279 C281 1.415 . S
C280 C279 1.355 1_655 S
C280 C282 1.419 1_655 S
C281 C276 1.425 . S
C281 C278 1.409 . S
C281 C279 1.415 . S
C282 H272 0.930 . S
C282 C280 1.419 1_455 S
C282 C283 1.362 . S
C283 H273 0.930 . S
C283 C276 1.409 . S
C283 C282 1.362 . S
H284 C290 0.930 . S
H285 C293 0.930 1_545 S
H286 C294 0.930 . S
H287 C295 0.930 . S
H288 C298 0.930 . S
H289 C299 0.930 . S
C290 H284 0.930 . S
C290 C291 1.355 1_565 S
C290 C292 1.415 . S
C291 C290 1.355 1_545 S
C291 C293 1.419 1_545 S
C292 C290 1.415 . S
C292 C297 1.425 . S
C292 C299 1.409 . S
C293 H285 0.930 1_565 S
C293 C291 1.419 1_565 S
C293 C294 1.362 . S
C294 H286 0.930 . S
C294 C293 1.362 . S
C294 C297 1.409 . S
C295 H287 0.930 . S
C295 C296 1.355 . S
C295 C297 1.415 . S
C296 C295 1.355 . S
C296 C298 1.419 . S
C297 C292 1.425 . S
C297 C294 1.409 . S
C297 C295 1.415 . S
C298 H288 0.930 . S
C298 C296 1.419 . S
C298 C299 1.362 . S
C299 H289 0.930 . S
C299 C292 1.409 . S
C299 C298 1.362 . S
H300 C306 0.930 . S
H301 C309 0.930 . S
H302 C310 0.930 . S
H303 C311 0.930 . S
H304 C314 0.930 . S
H305 C315 0.930 . S
C306 H300 0.930 . S
C306 C307 1.355 . S
C306 C308 1.415 . S
C307 C306 1.355 . S
C307 C309 1.419 . S
C308 C306 1.415 . S
C308 C313 1.425 . S
C308 C315 1.409 . S
C309 H301 0.930 . S
C309 C307 1.419 . S
C309 C310 1.362 . S
C310 H302 0.930 . S
C310 C309 1.362 . S
C310 C313 1.409 . S
C311 H303 0.930 . S
C311 C312 1.355 . S
C311 C313 1.415 . S
C312 C311 1.355 . S
C312 C314 1.419 1_455 S
C313 C308 1.425 . S
C313 C310 1.409 . S
C313 C311 1.415 . S
C314 H304 0.930 . S
C314 C312 1.419 1_655 S
C314 C315 1.362 1_655 S
C315 H305 0.930 . S
C315 C308 1.409 . S
C315 C314 1.362 1_455 S
H316 C322 0.930 1_545 S
H317 C325 0.930 . S
H318 C326 0.930 . S
H319 C327 0.930 . S
H320 C330 0.930 . S
H321 C331 0.930 . S
C322 H316 0.930 1_565 S
C322 C323 1.355 . S
C322 C324 1.415 . S
C323 C322 1.355 . S
C323 C325 1.419 . S
C324 C322 1.415 . S
C324 C329 1.425 . S
C324 C331 1.409 . S
C325 H317 0.930 . S
C325 C323 1.419 . S
C325 C326 1.362 . S
C326 H318 0.930 . S
C326 C325 1.362 . S
C326 C329 1.409 . S
C327 H319 0.930 . S
C327 C328 1.355 1_455 S
C327 C329 1.415 . S
C328 C327 1.355 1_655 S
C328 C330 1.419 . S
C329 C324 1.425 . S
C329 C326 1.409 . S
C329 C327 1.415 . S
C330 H320 0.930 . S
C330 C328 1.419 . S
C330 C331 1.362 1_655 S
C331 H321 0.930 . S
C331 C324 1.409 . S
C331 C330 1.362 1_455 S
H332 C338 0.930 . S
H333 C341 0.930 . S
H334 C342 0.930 . S
H335 C343 0.930 1_545 S
H336 C346 0.930 . S
H337 C347 0.930 . S
C338 H332 0.930 . S
C338 C339 1.355 . S
C338 C340 1.415 . S
C339 C338 1.355 . S
C339 C341 1.419 . S
C340 C338 1.415 . S
C340 C345 1.425 . S
C340 C347 1.409 . S
C341 H333 0.930 . S
C341 C339 1.419 . S
C341 C342 1.362 . S
C342 H334 0.930 . S
C342 C341 1.362 . S
C342 C345 1.409 . S
C343 H335 0.930 1_565 S
C343 C344 1.355 1_565 S
C343 C345 1.415 . S
C344 C343 1.355 1_545 S
C344 C346 1.419 1_545 S
C345 C340 1.425 . S
C345 C342 1.409 . S
C345 C343 1.415 . S
C346 H336 0.930 . S
C346 C344 1.419 1_565 S
C346 C347 1.362 . S
C347 H337 0.930 . S
C347 C340 1.409 . S
C347 C346 1.362 . S
H348 C354 0.930 . S
H349 C357 0.930 . S
H350 C358 0.930 . S
H351 C359 0.930 . S
H352 C362 0.930 . S
H353 C363 0.930 . S
C354 H348 0.930 . S
C354 C355 1.355 . S
C354 C356 1.415 . S
C355 C354 1.355 . S
C355 C357 1.419 . S
C356 C354 1.415 . S
C356 C361 1.425 . S
C356 C363 1.409 . S
C357 H349 0.930 . S
C357 C355 1.419 . S
C357 C358 1.362 . S
C358 H350 0.930 . S
C358 C357 1.362 . S
C358 C361 1.409 . S
C359 H351 0.930 . S
C359 C360 1.355 . S
C359 C361 1.415 . S
C360 C359 1.355 . S
C360 C362 1.419 . S
C361 C356 1.425 . S
C361 C358 1.409 . S
C361 C359 1.415 . S
C362 H352 0.930 . S
C362 C360 1.419 . S
C362 C363 1.362 . S
C363 H353 0.930 . S
C363 C356 1.409 . S
C363 C362 1.362 . S
H364 C370 0.930 . S
H365 C373 0.930 . S
H366 C374 0.930 . S
H367 C375 0.930 . S
H368 C378 0.930 . S
H369 C379 0.930 . S
C370 H364 0.930 . S
C370 C371 1.355 1_655 S
C370 C372 1.415 . S
C371 C370 1.355 1_455 S
C371 C373 1.419 . S
C372 C370 1.415 . S
C372 C377 1.425 . S
C372 C379 1.409 . S
C373 H365 0.930 . S
C373 C371 1.419 . S
C373 C374 1.362 1_455 S
C374 H366 0.930 . S
C374 C373 1.362 1_655 S
C374 C377 1.409 . S
C375 H367 0.930 . S
C375 C376 1.355 . S
C375 C377 1.415 . S
C376 C375 1.355 . S
C376 C378 1.419 . S
C377 C372 1.425 . S
C377 C374 1.409 . S
C377 C375 1.415 . S
C378 H368 0.930 . S
C378 C376 1.419 . S
C378 C379 1.362 . S
C379 H369 0.930 . S
C379 C372 1.409 . S
C379 C378 1.362 . S
H380 C386 0.930 . S
H381 C389 0.930 . S
H382 C390 0.930 . S
H383 C391 0.930 1_455 S
H384 C394 0.930 . S
H385 C395 0.930 . S
C386 H380 0.930 . S
C386 C387 1.355 1_545 S
C386 C388 1.415 . S
C387 C386 1.355 1_565 S
C387 C389 1.419 . S
C388 C386 1.415 . S
C388 C393 1.425 . S
C388 C395 1.409 . S
C389 H381 0.930 . S
C389 C387 1.419 . S
C389 C390 1.362 1_565 S
C390 H382 0.930 . S
C390 C389 1.362 1_545 S
C390 C393 1.409 . S
C391 H383 0.930 1_655 S
C391 C392 1.355 . S
C391 C393 1.415 . S
C392 C391 1.355 . S
C392 C394 1.419 . S
C393 C388 1.425 . S
C393 C390 1.409 . S
C393 C391 1.415 . S
C394 H384 0.930 . S
C394 C392 1.419 . S
C394 C395 1.362 . S
C395 H385 0.930 . S
C395 C388 1.409 . S
C395 C394 1.362 . S
H396 C402 0.930 . S
H397 C405 0.930 . S
H398 C406 0.930 . S
H399 C407 0.930 . S
H400 C410 0.930 1_565 S
H401 C411 0.930 . S
C402 H396 0.930 . S
C402 C403 1.355 . S
C402 C404 1.415 . S
C403 C402 1.355 . S
C403 C405 1.419 . S
C404 C402 1.415 . S
C404 C409 1.425 . S
C404 C411 1.409 . S
C405 H397 0.930 . S
C405 C403 1.419 . S
C405 C406 1.362 . S
C406 H398 0.930 . S
C406 C405 1.362 . S
C406 C409 1.409 . S
C407 H399 0.930 . S
C407 C408 1.355 . S
C407 C409 1.415 . S
C408 C407 1.355 . S
C408 C410 1.419 . S
C409 C404 1.425 . S
C409 C406 1.409 . S
C409 C407 1.415 . S
C410 H400 0.930 1_545 S
C410 C408 1.419 . S
C410 C411 1.362 . S
C411 H401 0.930 . S
C411 C404 1.409 . S
C411 C410 1.362 . S
H412 C418 0.935 . S
H413 C421 0.930 1_455 S
H414 C422 0.930 . S
H415 C423 0.930 . S
H416 C426 0.930 . S
H417 C427 0.930 . S
C418 H412 0.935 . S
C418 C419 1.355 1_655 S
C418 C420 1.415 . S
C419 C418 1.355 1_455 S
C419 C421 1.419 1_455 S
C420 C418 1.415 . S
C420 C425 1.425 . S
C420 C427 1.409 . S
C421 H413 0.930 1_655 S
C421 C419 1.419 1_655 S
C421 C422 1.362 . S
C422 H414 0.930 . S
C422 C421 1.362 . S
C422 C425 1.409 . S
C423 H415 0.930 . S
C423 C424 1.355 . S
C423 C425 1.415 . S
C424 C423 1.355 . S
C424 C426 1.419 . S
C425 C420 1.425 . S
C425 C422 1.409 . S
C425 C423 1.415 . S
C426 H416 0.930 . S
C426 C424 1.419 . S
C426 C427 1.362 . S
C427 H417 0.930 . S
C427 C420 1.409 . S
C427 C426 1.362 . S
H428 C434 0.930 1_455 S
H429 C437 0.930 . S
H430 C438 0.930 . S
H431 C439 0.930 . S
H432 C442 0.930 . S
H433 C443 0.930 . S
C434 H428 0.930 1_655 S
C434 C435 1.355 . S
C434 C436 1.415 . S
C435 C434 1.355 . S
C435 C437 1.419 . S
C436 C434 1.415 . S
C436 C441 1.425 . S
C436 C443 1.409 . S
C437 H429 0.930 . S
C437 C435 1.419 . S
C437 C438 1.362 . S
C438 H430 0.930 . S
C438 C437 1.362 . S
C438 C441 1.409 . S
C439 H431 0.930 . S
C439 C440 1.355 1_545 S
C439 C441 1.415 . S
C440 C439 1.355 1_565 S
C440 C442 1.419 . S
C441 C436 1.425 . S
C441 C438 1.409 . S
C441 C439 1.415 . S
C442 H432 0.930 . S
C442 C440 1.419 . S
C442 C443 1.362 1_565 S
C443 H433 0.930 . S
C443 C436 1.409 . S
C443 C442 1.362 1_545 S
H444 C450 0.930 . S
H445 C453 0.930 . S
H446 C454 0.930 . S
H447 C455 0.930 . S
H448 C458 0.930 . S
H449 C459 0.930 . S
C450 H444 0.930 . S
C450 C451 1.355 . S
C450 C452 1.415 . S
C451 C450 1.355 . S
C451 C453 1.419 . S
C452 C450 1.415 . S
C452 C457 1.425 . S
C452 C459 1.409 . S
C453 H445 0.930 . S
C453 C451 1.419 . S
C453 C454 1.362 . S
C454 H446 0.930 . S
C454 C453 1.362 . S
C454 C457 1.409 . S
C455 H447 0.930 . S
C455 C456 1.355 . S
C455 C457 1.415 . S
C456 C455 1.355 . S
C456 C458 1.419 . S
C457 C452 1.425 . S
C457 C454 1.409 . S
C457 C455 1.415 . S
C458 H448 0.930 . S
C458 C456 1.419 . S
C458 C459 1.362 . S
C459 H449 0.930 . S
C459 C452 1.409 . S
C459 C458 1.362 . S
H460 C466 0.930 . S
H461 C469 0.930 . S
H462 C470 0.930 . S
H463 C471 0.930 . S
H464 C474 0.930 . S
H465 C475 0.930 . S
C466 H460 0.930 . S
C466 C467 1.355 . S
C466 C468 1.415 . S
C467 C466 1.355 . S
C467 C469 1.419 . S
C468 C466 1.415 . S
C468 C473 1.425 . S
C468 C475 1.409 . S
C469 H461 0.930 . S
C469 C467 1.419 . S
C469 C470 1.362 . S
C470 H462 0.930 . S
C470 C469 1.362 . S
C470 C473 1.409 . S
C471 H463 0.930 . S
C471 C472 1.355 . S
C471 C473 1.415 . S
C472 C471 1.355 . S
C472 C474 1.419 . S
C473 C468 1.425 . S
C473 C470 1.409 . S
C473 C471 1.415 . S
C474 H464 0.930 . S
C474 C472 1.419 . S
C474 C475 1.362 . S
C475 H465 0.930 . S
C475 C468 1.409 . S
C475 C474 1.362 . S
H476 C482 0.930 . S
H477 C485 0.930 . S
H478 C486 0.930 . S
H479 C487 0.930 . S
H480 C490 0.930 . S
H481 C491 0.930 . S
C482 H476 0.930 . S
C482 C483 1.355 . S
C482 C484 1.415 . S
C483 C482 1.355 . S
C483 C485 1.419 . S
C484 C482 1.415 . S
C484 C489 1.425 . S
C484 C491 1.409 . S
C485 H477 0.930 . S
C485 C483 1.419 . S
C485 C486 1.362 . S
C486 H478 0.930 . S
C486 C485 1.362 . S
C486 C489 1.409 . S
C487 H479 0.930 . S
C487 C488 1.355 . S
C487 C489 1.415 . S
C488 C487 1.355 . S
C488 C490 1.419 . S
C489 C484 1.425 . S
C489 C486 1.409 . S
C489 C487 1.415 . S
C490 H480 0.930 . S
C490 C488 1.419 . S
C490 C491 1.362 . S
C491 H481 0.930 . S
C491 C484 1.409 . S
C491 C490 1.362 . S
H492 C498 0.930 . S
H493 C501 0.930 . S
H494 C502 0.930 . S
H495 C503 0.930 . S
H496 C506 0.930 . S
H497 C507 0.930 . S
C498 H492 0.930 . S
C498 C499 1.355 . S
C498 C500 1.415 . S
C499 C498 1.355 . S
C499 C501 1.419 . S
C500 C498 1.415 . S
C500 C505 1.425 . S
C500 C507 1.409 . S
C501 H493 0.930 . S
C501 C499 1.419 . S
C501 C502 1.362 . S
C502 H494 0.930 . S
C502 C501 1.362 . S
C502 C505 1.409 . S
C503 H495 0.930 . S
C503 C504 1.355 . S
C503 C505 1.415 . S
C504 C503 1.355 . S
C504 C506 1.419 . S
C505 C500 1.425 . S
C505 C502 1.409 . S
C505 C503 1.415 . S
C506 H496 0.930 . S
C506 C504 1.419 . S
C506 C507 1.362 . S
C507 H497 0.930 . S
C507 C500 1.409 . S
C507 C506 1.362 . S
H508 C514 0.930 . S
H509 C517 0.930 . S
H510 C518 0.930 . S
H511 C519 0.930 . S
H512 C522 0.930 . S
H513 C523 0.930 . S
C514 H508 0.930 . S
C514 C515 1.355 . S
C514 C516 1.415 . S
C515 C514 1.355 . S
C515 C517 1.419 . S
C516 C514 1.415 . S
C516 C521 1.425 . S
C516 C523 1.409 . S
C517 H509 0.930 . S
C517 C515 1.419 . S
C517 C518 1.362 . S
C518 H510 0.930 . S
C518 C517 1.362 . S
C518 C521 1.409 . S
C519 H511 0.930 . S
C519 C520 1.355 . S
C519 C521 1.415 . S
C520 C519 1.355 . S
C520 C522 1.419 . S
C521 C516 1.425 . S
C521 C518 1.409 . S
C521 C519 1.415 . S
C522 H512 0.930 . S
C522 C520 1.419 . S
C522 C523 1.362 . S
C523 H513 0.930 . S
C523 C516 1.409 . S
C523 C522 1.362 . S
H524 C530 0.930 . S
H525 C533 0.930 . S
H526 C534 0.930 . S
H527 C535 0.930 . S
H528 C538 0.930 . S
H529 C539 0.930 . S
C530 H524 0.930 . S
C530 C531 1.355 . S
C530 C532 1.415 . S
C531 C530 1.355 . S
C531 C533 1.419 . S
C532 C530 1.415 . S
C532 C537 1.425 . S
C532 C539 1.409 . S
C533 H525 0.930 . S
C533 C531 1.419 . S
C533 C534 1.362 . S
C534 H526 0.930 . S
C534 C533 1.362 . S
C534 C537 1.409 . S
C535 H527 0.930 . S
C535 C536 1.355 . S
C535 C537 1.415 . S
C536 C535 1.355 . S
C536 C538 1.419 . S
C537 C532 1.425 . S
C537 C534 1.409 . S
C537 C535 1.415 . S
C538 H528 0.930 . S
C538 C536 1.419 . S
C538 C539 1.362 . S
C539 H529 0.930 . S
C539 C532 1.409 . S
C539 C538 1.362 . S
H540 C546 0.930 1_545 S
H541 C549 0.930 . S
H542 C550 0.930 . S
H543 C551 0.930 1_565 S
H544 C554 0.930 . S
H545 C555 0.930 . S
C546 H540 0.930 1_565 S
C546 C547 1.355 . S
C546 C548 1.415 1_565 S
C547 C546 1.355 . S
C547 C549 1.419 . S
C548 C546 1.415 1_545 S
C548 C553 1.425 1_546 S
C548 C555 1.409 . S
C549 H541 0.930 . S
C549 C547 1.419 . S
C549 C550 1.362 1_556 S
C550 H542 0.930 . S
C550 C549 1.362 1_554 S
C550 C553 1.409 . S
C551 H543 0.930 1_545 S
C551 C552 1.355 . S
C551 C553 1.415 1_545 S
C552 C551 1.355 . S
C552 C554 1.419 . S
C553 C548 1.425 1_564 S
C553 C550 1.409 . S
C553 C551 1.415 1_565 S
C554 H544 0.930 . S
C554 C552 1.419 . S
C554 C555 1.362 1_554 S
C555 H545 0.930 . S
C555 C548 1.409 . S
C555 C554 1.362 1_556 S
H556 C562 0.930 . S
H557 C565 0.930 . S
H558 C566 0.930 . S
H559 C567 0.930 . S
H560 C570 0.930 . S
H561 C571 0.930 . S
C562 H556 0.930 . S
C562 C563 1.355 . S
C562 C564 1.415 . S
C563 C562 1.355 . S
C563 C565 1.419 . S
C564 C562 1.415 . S
C564 C569 1.425 . S
C564 C571 1.409 . S
C565 H557 0.930 . S
C565 C563 1.419 . S
C565 C566 1.362 . S
C566 H558 0.930 . S
C566 C565 1.362 . S
C566 C569 1.409 . S
C567 H559 0.930 . S
C567 C568 1.355 . S
C567 C569 1.415 . S
C568 C567 1.355 . S
C568 C570 1.419 . S
C569 C564 1.425 . S
C569 C566 1.409 . S
C569 C567 1.415 . S
C570 H560 0.930 . S
C570 C568 1.419 . S
C570 C571 1.362 . S
C571 H561 0.930 . S
C571 C564 1.409 . S
C571 C570 1.362 . S
H572 C578 0.930 . S
H573 C581 0.930 . S
H574 C582 0.930 . S
H575 C583 0.930 . S
H576 C586 0.930 . S
H577 C587 0.930 . S
C578 H572 0.930 . S
C578 C579 1.355 . S
C578 C580 1.415 1_455 S
C579 C578 1.355 . S
C579 C581 1.419 . S
C580 C578 1.415 1_655 S
C580 C585 1.425 1_656 S
C580 C587 1.409 . S
C581 H573 0.930 . S
C581 C579 1.419 . S
C581 C582 1.362 1_556 S
C582 H574 0.930 . S
C582 C581 1.362 1_554 S
C582 C585 1.409 . S
C583 H575 0.930 . S
C583 C584 1.355 . S
C583 C585 1.415 1_655 S
C584 C583 1.355 . S
C584 C586 1.419 . S
C585 C580 1.425 1_454 S
C585 C582 1.409 . S
C585 C583 1.415 1_455 S
C586 H576 0.930 . S
C586 C584 1.419 . S
C586 C587 1.362 1_554 S
C587 H577 0.930 . S
C587 C580 1.409 . S
C587 C586 1.362 1_556 S
H588 C594 0.930 . S
H589 C597 0.930 . S
H590 C598 0.930 . S
H591 C599 0.930 . S
H592 C602 0.930 . S
H593 C603 0.930 . S
C594 H588 0.930 . S
C594 C595 1.355 . S
C594 C596 1.415 . S
C595 C594 1.355 . S
C595 C597 1.419 . S
C596 C594 1.415 . S
C596 C601 1.425 1_545 S
C596 C603 1.409 . S
C597 H589 0.930 . S
C597 C595 1.419 . S
C597 C598 1.362 1_545 S
C598 H590 0.930 . S
C598 C597 1.362 1_565 S
C598 C601 1.409 . S
C599 H591 0.930 . S
C599 C600 1.355 . S
C599 C601 1.415 . S
C600 C599 1.355 . S
C600 C602 1.419 . S
C601 C596 1.425 1_565 S
C601 C598 1.409 . S
C601 C599 1.415 . S
C602 H592 0.930 . S
C602 C600 1.419 . S
C602 C603 1.362 1_565 S
C603 H593 0.930 . S
C603 C596 1.409 . S
C603 C602 1.362 1_545 S
H604 C610 0.930 . S
H605 C613 0.930 . S
H606 C614 0.930 . S
H607 C615 0.930 . S
H608 C618 0.930 . S
H609 C619 0.930 . S
C610 H604 0.930 . S
C610 C611 1.355 . S
C610 C612 1.415 . S
C611 C610 1.355 . S
C611 C613 1.419 . S
C612 C610 1.415 . S
C612 C617 1.425 1_554 S
C612 C619 1.409 1_554 S
C613 H605 0.930 . S
C613 C611 1.419 . S
C613 C614 1.362 . S
C614 H606 0.930 . S
C614 C613 1.362 . S
C614 C617 1.409 1_554 S
C615 H607 0.930 . S
C615 C616 1.355 . S
C615 C617 1.415 . S
C616 C615 1.355 . S
C616 C618 1.419 . S
C617 C612 1.425 1_556 S
C617 C614 1.409 1_556 S
C617 C615 1.415 . S
C618 H608 0.930 . S
C618 C616 1.419 . S
C618 C619 1.362 . S
C619 H609 0.930 . S
C619 C612 1.409 1_556 S
C619 C618 1.362 . S
H620 C626 0.930 . S
H621 C629 0.930 . S
H622 C630 0.930 . S
H623 C631 0.930 . S
H624 C634 0.930 . S
H625 C635 0.930 . S
C626 H620 0.930 . S
C626 C627 1.355 . S
C626 C628 1.415 . S
C627 C626 1.355 . S
C627 C629 1.419 . S
C628 C626 1.415 . S
C628 C633 1.425 1_455 S
C628 C635 1.409 . S
C629 H621 0.930 . S
C629 C627 1.419 . S
C629 C630 1.362 1_455 S
C630 H622 0.930 . S
C630 C629 1.362 1_655 S
C630 C633 1.409 . S
C631 H623 0.930 . S
C631 C632 1.355 . S
C631 C633 1.415 . S
C632 C631 1.355 . S
C632 C634 1.419 . S
C633 C628 1.425 1_655 S
C633 C630 1.409 . S
C633 C631 1.415 . S
C634 H624 0.930 . S
C634 C632 1.419 . S
C634 C635 1.362 1_655 S
C635 H625 0.930 . S
C635 C628 1.409 . S
C635 C634 1.362 1_455 S
H636 C642 0.930 . S
H637 C645 0.930 . S
H638 C646 0.930 . S
H639 C647 0.930 . S
H640 C650 0.930 . S
H641 C651 0.930 . S
C642 H636 0.930 . S
C642 C643 1.355 . S
C642 C644 1.415 . S
C643 C642 1.355 . S
C643 C645 1.419 . S
C644 C642 1.415 . S
C644 C649 1.425 . S
C644 C651 1.409 . S
C645 H637 0.930 . S
C645 C643 1.419 . S
C645 C646 1.362 . S
C646 H638 0.930 . S
C646 C645 1.362 . S
C646 C649 1.409 . S
C647 H639 0.930 . S
C647 C648 1.355 . S
C647 C649 1.415 . S
C648 C647 1.355 . S
C648 C650 1.419 . S
C649 C644 1.425 . S
C649 C646 1.409 . S
C649 C647 1.415 . S
C650 H640 0.930 . S
C650 C648 1.419 . S
C650 C651 1.362 . S
C651 H641 0.930 . S
C651 C644 1.409 . S
C651 C650 1.362 . S
H652 C658 0.930 . S
H653 C661 0.930 . S
H654 C662 0.930 . S
H655 C663 0.930 . S
H656 C666 0.930 . S
H657 C667 0.930 . S
C658 H652 0.930 . S
C658 C659 1.355 . S
C658 C660 1.415 . S
C659 C658 1.355 . S
C659 C661 1.419 . S
C660 C658 1.415 . S
C660 C665 1.425 . S
C660 C667 1.409 . S
C661 H653 0.930 . S
C661 C659 1.419 . S
C661 C662 1.362 . S
C662 H654 0.930 . S
C662 C661 1.362 . S
C662 C665 1.409 . S
C663 H655 0.930 . S
C663 C664 1.355 . S
C663 C665 1.415 . S
C664 C663 1.355 . S
C664 C666 1.419 . S
C665 C660 1.425 . S
C665 C662 1.409 . S
C665 C663 1.415 . S
C666 H656 0.930 . S
C666 C664 1.419 . S
C666 C667 1.362 . S
C667 H657 0.930 . S
C667 C660 1.409 . S
C667 C666 1.362 . S
H668 C674 0.930 . S
H669 C677 0.930 . S
H670 C678 0.930 . S
H671 C679 0.930 . S
H672 C682 0.930 . S
H673 C683 0.930 . S
C674 H668 0.930 . S
C674 C675 1.355 . S
C674 C676 1.415 . S
C675 C674 1.355 . S
C675 C677 1.419 . S
C676 C674 1.415 . S
C676 C681 1.425 . S
C676 C683 1.409 . S
C677 H669 0.930 . S
C677 C675 1.419 . S
C677 C678 1.362 . S
C678 H670 0.930 . S
C678 C677 1.362 . S
C678 C681 1.409 . S
C679 H671 0.930 . S
C679 C680 1.355 . S
C679 C681 1.415 . S
C680 C679 1.355 . S
C680 C682 1.419 . S
C681 C676 1.425 . S
C681 C678 1.409 . S
C681 C679 1.415 . S
C682 H672 0.930 . S
C682 C680 1.419 . S
C682 C683 1.362 . S
C683 H673 0.930 . S
C683 C676 1.409 . S
C683 C682 1.362 . S
H684 C690 0.930 . S
H685 C693 0.930 . S
H686 C694 0.930 . S
H687 C695 0.930 . S
H688 C698 0.930 . S
H689 C699 0.930 . S
C690 H684 0.930 . S
C690 C691 1.355 . S
C690 C692 1.415 . S
C691 C690 1.355 . S
C691 C693 1.419 . S
C692 C690 1.415 . S
C692 C697 1.425 . S
C692 C699 1.409 . S
C693 H685 0.930 . S
C693 C691 1.419 . S
C693 C694 1.362 . S
C694 H686 0.930 . S
C694 C693 1.362 . S
C694 C697 1.409 . S
C695 H687 0.930 . S
C695 C696 1.355 . S
C695 C697 1.415 . S
C696 C695 1.355 . S
C696 C698 1.419 . S
C697 C692 1.425 . S
C697 C694 1.409 . S
C697 C695 1.415 . S
C698 H688 0.930 . S
C698 C696 1.419 . S
C698 C699 1.362 . S
C699 H689 0.930 . S
C699 C692 1.409 . S
C699 C698 1.362 . S
H700 C706 0.930 . S
H701 C709 0.930 . S
H702 C710 0.930 . S
H703 C711 0.930 . S
H704 C714 0.930 . S
H705 C715 0.930 . S
C706 H700 0.930 . S
C706 C707 1.355 . S
C706 C708 1.415 . S
C707 C706 1.355 . S
C707 C709 1.419 . S
C708 C706 1.415 . S
C708 C713 1.425 . S
C708 C715 1.409 . S
C709 H701 0.930 . S
C709 C707 1.419 . S
C709 C710 1.362 . S
C710 H702 0.930 . S
C710 C709 1.362 . S
C710 C713 1.409 . S
C711 H703 0.930 . S
C711 C712 1.355 . S
C711 C713 1.415 . S
C712 C711 1.355 . S
C712 C714 1.419 . S
C713 C708 1.425 . S
C713 C710 1.409 . S
C713 C711 1.415 . S
C714 H704 0.930 . S
C714 C712 1.419 . S
C714 C715 1.362 . S
C715 H705 0.930 . S
C715 C708 1.409 . S
C715 C714 1.362 . S
H716 C722 0.930 . S
H717 C725 0.930 . S
H718 C726 0.930 . S
H719 C727 0.930 . S
H720 C730 0.930 . S
H721 C731 0.930 . S
C722 H716 0.930 . S
C722 C723 1.355 . S
C722 C724 1.415 . S
C723 C722 1.355 . S
C723 C725 1.419 . S
C724 C722 1.415 . S
C724 C729 1.425 . S
C724 C731 1.409 . S
C725 H717 0.930 . S
C725 C723 1.419 . S
C725 C726 1.362 . S
C726 H718 0.930 . S
C726 C725 1.362 . S
C726 C729 1.409 . S
C727 H719 0.930 . S
C727 C728 1.355 . S
C727 C729 1.415 . S
C728 C727 1.355 . S
C728 C730 1.419 . S
C729 C724 1.425 . S
C729 C726 1.409 . S
C729 C727 1.415 . S
C730 H720 0.930 . S
C730 C728 1.419 . S
C730 C731 1.362 . S
C731 H721 0.930 . S
C731 C724 1.409 . S
C731 C730 1.362 . S
H732 C738 0.930 . S
H733 C741 0.930 . S
H734 C742 0.930 . S
H735 C743 0.930 . S
H736 C746 0.930 . S
H737 C747 0.930 . S
C738 H732 0.930 . S
C738 C739 1.355 . S
C738 C740 1.415 . S
C739 C738 1.355 . S
C739 C741 1.419 . S
C740 C738 1.415 . S
C740 C745 1.425 . S
C740 C747 1.409 . S
C741 H733 0.930 . S
C741 C739 1.419 . S
C741 C742 1.362 . S
C742 H734 0.930 . S
C742 C741 1.362 . S
C742 C745 1.409 . S
C743 H735 0.930 . S
C743 C744 1.355 . S
C743 C745 1.415 . S
C744 C743 1.355 . S
C744 C746 1.419 . S
C745 C740 1.425 . S
C745 C742 1.409 . S
C745 C743 1.415 . S
C746 H736 0.930 . S
C746 C744 1.419 . S
C746 C747 1.362 . S
C747 H737 0.930 . S
C747 C740 1.409 . S
C747 C746 1.362 . S
H748 C754 0.930 . S
H749 C757 0.930 . S
H750 C758 0.930 . S
H751 C759 0.930 . S
H752 C762 0.930 . S
H753 C763 0.930 . S
C754 H748 0.930 . S
C754 C755 1.355 . S
C754 C756 1.415 . S
C755 C754 1.355 . S
C755 C757 1.419 . S
C756 C754 1.415 . S
C756 C761 1.425 . S
C756 C763 1.409 . S
C757 H749 0.930 . S
C757 C755 1.419 . S
C757 C758 1.362 . S
C758 H750 0.930 . S
C758 C757 1.362 . S
C758 C761 1.409 . S
C759 H751 0.930 . S
C759 C760 1.355 . S
C759 C761 1.415 . S
C760 C759 1.355 . S
C760 C762 1.419 . S
C761 C756 1.425 . S
C761 C758 1.409 . S
C761 C759 1.415 . S
C762 H752 0.930 . S
C762 C760 1.419 . S
C762 C763 1.362 . S
C763 H753 0.930 . S
C763 C756 1.409 . S
C763 C762 1.362 . S
H764 C770 0.930 . S
H765 C773 0.930 . S
H766 C774 0.930 . S
H767 C775 0.930 . S
H768 C778 0.930 . S
H769 C779 0.930 . S
C770 H764 0.930 . S
C770 C771 1.355 . S
C770 C772 1.415 . S
C771 C770 1.355 . S
C771 C773 1.419 . S
C772 C770 1.415 . S
C772 C777 1.425 . S
C772 C779 1.409 . S
C773 H765 0.930 . S
C773 C771 1.419 . S
C773 C774 1.362 . S
C774 H766 0.930 . S
C774 C773 1.362 . S
C774 C777 1.409 . S
C775 H767 0.930 . S
C775 C776 1.355 . S
C775 C777 1.415 . S
C776 C775 1.355 . S
C776 C778 1.419 . S
C777 C772 1.425 . S
C777 C774 1.409 . S
C777 C775 1.415 . S
C778 H768 0.930 . S
C778 C776 1.419 . S
C778 C779 1.362 . S
C779 H769 0.930 . S
C779 C772 1.409 . S
C779 C778 1.362 . S
H780 C786 0.930 . S
H781 C789 0.930 . S
H782 C790 0.930 . S
H783 C791 0.930 . S
H784 C794 0.930 . S
H785 C795 0.930 . S
C786 H780 0.930 . S
C786 C787 1.355 . S
C786 C788 1.415 . S
C787 C786 1.355 . S
C787 C789 1.419 . S
C788 C786 1.415 . S
C788 C793 1.425 . S
C788 C795 1.409 . S
C789 H781 0.930 . S
C789 C787 1.419 . S
C789 C790 1.362 . S
C790 H782 0.930 . S
C790 C789 1.362 . S
C790 C793 1.409 . S
C791 H783 0.930 . S
C791 C792 1.355 . S
C791 C793 1.415 . S
C792 C791 1.355 . S
C792 C794 1.419 . S
C793 C788 1.425 . S
C793 C790 1.409 . S
C793 C791 1.415 . S
C794 H784 0.930 . S
C794 C792 1.419 . S
C794 C795 1.362 . S
C795 H785 0.930 . S
C795 C788 1.409 . S
C795 C794 1.362 . S
H796 C802 0.930 . S
H797 C805 0.930 . S
H798 C806 0.930 . S
H799 C807 0.930 . S
H800 C810 0.930 . S
H801 C811 0.930 . S
C802 H796 0.930 . S
C802 C803 1.355 . S
C802 C804 1.415 . S
C803 C802 1.355 . S
C803 C805 1.419 . S
C804 C802 1.415 . S
C804 C809 1.425 . S
C804 C811 1.409 . S
C805 H797 0.930 . S
C805 C803 1.419 . S
C805 C806 1.362 . S
C806 H798 0.930 . S
C806 C805 1.362 . S
C806 C809 1.409 . S
C807 H799 0.930 . S
C807 C808 1.355 . S
C807 C809 1.415 . S
C808 C807 1.355 . S
C808 C810 1.419 . S
C809 C804 1.425 . S
C809 C806 1.409 . S
C809 C807 1.415 . S
C810 H800 0.930 . S
C810 C808 1.419 . S
C810 C811 1.362 . S
C811 H801 0.930 . S
C811 C804 1.409 . S
C811 C810 1.362 . S
H812 C818 0.930 . S
H813 C821 0.930 . S
H814 C822 0.930 . S
H815 C823 0.930 . S
H816 C826 0.930 . S
H817 C827 0.930 . S
C818 H812 0.930 . S
C818 C819 1.355 . S
C818 C820 1.415 . S
C819 C818 1.355 . S
C819 C821 1.419 . S
C820 C818 1.415 . S
C820 C825 1.425 . S
C820 C827 1.409 . S
C821 H813 0.930 . S
C821 C819 1.419 . S
C821 C822 1.362 . S
C822 H814 0.930 . S
C822 C821 1.362 . S
C822 C825 1.409 . S
C823 H815 0.930 . S
C823 C824 1.355 . S
C823 C825 1.415 . S
C824 C823 1.355 . S
C824 C826 1.419 . S
C825 C820 1.425 . S
C825 C822 1.409 . S
C825 C823 1.415 . S
C826 H816 0.930 . S
C826 C824 1.419 . S
C826 C827 1.362 . S
C827 H817 0.930 . S
C827 C820 1.409 . S
C827 C826 1.362 . S
C259 C56 1.056 1_455 S
C264 C13 1.080 . S
C275 C80 1.045 1_565 S
C280 C37 1.095 . S
C291 C55 1.105 . S
C296 C98 1.082 . S
C307 C79 1.044 . S
C312 C122 1.088 1_455 S
C323 C14 1.101 1_565 S
C328 C97 1.085 . S
C339 C38 1.032 . S
C344 C121 1.120 . S
C355 C224 1.128 1_545 S
C360 C139 1.013 . S
C371 C160 1.017 . S
C376 C245 1.138 . S
C387 C181 1.083 . S
C392 C140 1.104 1_655 S
C403 C202 1.130 . S
C408 C161 1.032 1_545 S
C419 C223 1.132 . S
C424 C182 1.036 . S
C435 C203 1.073 1_655 S
C440 C244 1.113 . S
C451 C81 1.327 . S
C456 C15 1.407 . S
C467 C39 1.333 . S
C472 C99 1.402 . S
C483 C57 1.435 . S
C488 C123 1.297 . S
C499 C141 1.330 . S
C504 C204 1.405 . S
C515 C162 1.345 . S
C520 C225 1.391 . S
C531 C183 1.359 . S
C536 C246 1.377 . S
C547 C165 1.572 . S
C552 C18 1.634 . S
C563 C36 1.602 . S
C568 C186 1.638 . S
C579 C207 1.631 . S
C584 C60 1.574 . S
C595 C78 1.646 . S
C600 C228 1.592 . S
C611 C102 1.659 . S
C616 C249 1.560 . S
C627 C144 1.566 . S
C632 C120 1.661 . S
C643 C58 1.250 . S
C648 C17 1.213 . S
C659 C35 1.201 . S
C664 C76 1.227 . S
C675 C59 1.208 . S
C680 C100 1.253 . S
C691 C77 1.108 . S
C696 C118 1.276 . S
C707 C16 1.251 . S
C712 C101 1.142 . S
C723 C34 1.265 . S
C728 C119 1.119 . S
C739 C226 1.284 . S
C744 C143 1.110 . S
C755 C164 1.213 . S
C760 C247 1.223 . S
C771 C185 1.149 . S
C776 C142 1.279 . S
C787 C163 1.236 . S
C792 C206 1.175 . S
C803 C227 1.235 . S
C808 C184 1.230 . S
C819 C248 1.220 . S
C824 C205 1.222 . S
