# Generated by pormake.
# Topology uox, (4)-cn, num edge types: 1
# Building blocks:
#     Node 0, Type 0, BuildingBlock: KUFVIS_clean_sbu_0, # of connection points: 4
#     Node 1, Type 0, BuildingBlock: KUFVIS_clean_sbu_0, # of connection points: 4
#     Node 2, Type 0, BuildingBlock: KUFVIS_clean_sbu_0, # of connection points: 4
#     Node 3, Type 0, BuildingBlock: KUFVIS_clean_sbu_0, # of connection points: 4
#     Node 4, Type 0, BuildingBlock: KUFVIS_clean_sbu_0, # of connection points: 4
#     Node 5, Type 0, BuildingBlock: KUFVIS_clean_sbu_0, # of connection points: 4
#     Node 6, Type 0, BuildingBlock: KUFVIS_clean_sbu_0, # of connection points: 4
#     Node 7, Type 0, BuildingBlock: KUFVIS_clean_sbu_0, # of connection points: 4
#     Node 8, Type 0, BuildingBlock: KUFVIS_clean_sbu_0, # of connection points: 4
#     Node 9, Type 0, BuildingBlock: KUFVIS_clean_sbu_0, # of connection points: 4
#     Node 10, Type 0, BuildingBlock: KUFVIS_clean_sbu_0, # of connection points: 4
#     Node 11, Type 0, BuildingBlock: KUFVIS_clean_sbu_0, # of connection points: 4
#     Node 12, Type 0, BuildingBlock: KUFVIS_clean_sbu_0, # of connection points: 4
#     Node 13, Type 0, BuildingBlock: KUFVIS_clean_sbu_0, # of connection points: 4
#     Node 14, Type 0, BuildingBlock: KUFVIS_clean_sbu_0, # of connection points: 4
#     Node 15, Type 0, BuildingBlock: KUFVIS_clean_sbu_0, # of connection points: 4
#     Node 16, Type 0, BuildingBlock: KUFVIS_clean_sbu_0, # of connection points: 4
#     Node 17, Type 0, BuildingBlock: KUFVIS_clean_sbu_0, # of connection points: 4
#     Node 18, Type 0, BuildingBlock: KUFVIS_clean_sbu_0, # of connection points: 4
#     Node 19, Type 0, BuildingBlock: KUFVIS_clean_sbu_0, # of connection points: 4
#     Node 20, Type 0, BuildingBlock: KUFVIS_clean_sbu_0, # of connection points: 4
#     Node 21, Type 0, BuildingBlock: KUFVIS_clean_sbu_0, # of connection points: 4
#     Node 22, Type 0, BuildingBlock: KUFVIS_clean_sbu_0, # of connection points: 4
#     Node 23, Type 0, BuildingBlock: KUFVIS_clean_sbu_0, # of connection points: 4
#     Node 24, Type 0, BuildingBlock: KUFVIS_clean_sbu_0, # of connection points: 4
#     Node 25, Type 0, BuildingBlock: KUFVIS_clean_sbu_0, # of connection points: 4
#     Node 26, Type 0, BuildingBlock: KUFVIS_clean_sbu_0, # of connection points: 4
#     Node 27, Type 0, BuildingBlock: KUFVIS_clean_sbu_0, # of connection points: 4
#     Node 28, Type 0, BuildingBlock: KUFVIS_clean_sbu_0, # of connection points: 4
#     Node 29, Type 0, BuildingBlock: KUFVIS_clean_sbu_0, # of connection points: 4
#     Node 30, Type 0, BuildingBlock: KUFVIS_clean_sbu_0, # of connection points: 4
#     Node 31, Type 0, BuildingBlock: KUFVIS_clean_sbu_0, # of connection points: 4
#     Edge 32, Type (0, 0), BuildingBlock: OJICUG_clean_linker_0, # of connection points: 2
#     Edge 33, Type (0, 0), BuildingBlock: OJICUG_clean_linker_0, # of connection points: 2
#     Edge 34, Type (0, 0), BuildingBlock: OJICUG_clean_linker_0, # of connection points: 2
#     Edge 35, Type (0, 0), BuildingBlock: OJICUG_clean_linker_0, # of connection points: 2
#     Edge 36, Type (0, 0), BuildingBlock: OJICUG_clean_linker_0, # of connection points: 2
#     Edge 37, Type (0, 0), BuildingBlock: OJICUG_clean_linker_0, # of connection points: 2
#     Edge 38, Type (0, 0), BuildingBlock: OJICUG_clean_linker_0, # of connection points: 2
#     Edge 39, Type (0, 0), BuildingBlock: OJICUG_clean_linker_0, # of connection points: 2
#     Edge 40, Type (0, 0), BuildingBlock: OJICUG_clean_linker_0, # of connection points: 2
#     Edge 41, Type (0, 0), BuildingBlock: OJICUG_clean_linker_0, # of connection points: 2
#     Edge 42, Type (0, 0), BuildingBlock: OJICUG_clean_linker_0, # of connection points: 2
#     Edge 43, Type (0, 0), BuildingBlock: OJICUG_clean_linker_0, # of connection points: 2
#     Edge 44, Type (0, 0), BuildingBlock: OJICUG_clean_linker_0, # of connection points: 2
#     Edge 45, Type (0, 0), BuildingBlock: OJICUG_clean_linker_0, # of connection points: 2
#     Edge 46, Type (0, 0), BuildingBlock: OJICUG_clean_linker_0, # of connection points: 2
#     Edge 47, Type (0, 0), BuildingBlock: OJICUG_clean_linker_0, # of connection points: 2
#     Edge 48, Type (0, 0), BuildingBlock: OJICUG_clean_linker_0, # of connection points: 2
#     Edge 49, Type (0, 0), BuildingBlock: OJICUG_clean_linker_0, # of connection points: 2
#     Edge 50, Type (0, 0), BuildingBlock: OJICUG_clean_linker_0, # of connection points: 2
#     Edge 51, Type (0, 0), BuildingBlock: OJICUG_clean_linker_0, # of connection points: 2
#     Edge 52, Type (0, 0), BuildingBlock: OJICUG_clean_linker_0, # of connection points: 2
#     Edge 53, Type (0, 0), BuildingBlock: OJICUG_clean_linker_0, # of connection points: 2
#     Edge 54, Type (0, 0), BuildingBlock: OJICUG_clean_linker_0, # of connection points: 2
#     Edge 55, Type (0, 0), BuildingBlock: OJICUG_clean_linker_0, # of connection points: 2
#     Edge 56, Type (0, 0), BuildingBlock: OJICUG_clean_linker_0, # of connection points: 2
#     Edge 57, Type (0, 0), BuildingBlock: OJICUG_clean_linker_0, # of connection points: 2
#     Edge 58, Type (0, 0), BuildingBlock: OJICUG_clean_linker_0, # of connection points: 2
#     Edge 59, Type (0, 0), BuildingBlock: OJICUG_clean_linker_0, # of connection points: 2
#     Edge 60, Type (0, 0), BuildingBlock: OJICUG_clean_linker_0, # of connection points: 2
#     Edge 61, Type (0, 0), BuildingBlock: OJICUG_clean_linker_0, # of connection points: 2
#     Edge 62, Type (0, 0), BuildingBlock: OJICUG_clean_linker_0, # of connection points: 2
#     Edge 63, Type (0, 0), BuildingBlock: OJICUG_clean_linker_0, # of connection points: 2
#     Edge 64, Type (0, 0), BuildingBlock: OJICUG_clean_linker_0, # of connection points: 2
#     Edge 65, Type (0, 0), BuildingBlock: OJICUG_clean_linker_0, # of connection points: 2
#     Edge 66, Type (0, 0), BuildingBlock: OJICUG_clean_linker_0, # of connection points: 2
#     Edge 67, Type (0, 0), BuildingBlock: OJICUG_clean_linker_0, # of connection points: 2
#     Edge 68, Type (0, 0), BuildingBlock: OJICUG_clean_linker_0, # of connection points: 2
#     Edge 69, Type (0, 0), BuildingBlock: OJICUG_clean_linker_0, # of connection points: 2
#     Edge 70, Type (0, 0), BuildingBlock: OJICUG_clean_linker_0, # of connection points: 2
#     Edge 71, Type (0, 0), BuildingBlock: OJICUG_clean_linker_0, # of connection points: 2
#     Edge 72, Type (0, 0), BuildingBlock: OJICUG_clean_linker_0, # of connection points: 2
#     Edge 73, Type (0, 0), BuildingBlock: OJICUG_clean_linker_0, # of connection points: 2
#     Edge 74, Type (0, 0), BuildingBlock: OJICUG_clean_linker_0, # of connection points: 2
#     Edge 75, Type (0, 0), BuildingBlock: OJICUG_clean_linker_0, # of connection points: 2
#     Edge 76, Type (0, 0), BuildingBlock: OJICUG_clean_linker_0, # of connection points: 2
#     Edge 77, Type (0, 0), BuildingBlock: OJICUG_clean_linker_0, # of connection points: 2
#     Edge 78, Type (0, 0), BuildingBlock: OJICUG_clean_linker_0, # of connection points: 2
#     Edge 79, Type (0, 0), BuildingBlock: OJICUG_clean_linker_0, # of connection points: 2
#     Edge 80, Type (0, 0), BuildingBlock: OJICUG_clean_linker_0, # of connection points: 2
#     Edge 81, Type (0, 0), BuildingBlock: OJICUG_clean_linker_0, # of connection points: 2
#     Edge 82, Type (0, 0), BuildingBlock: OJICUG_clean_linker_0, # of connection points: 2
#     Edge 83, Type (0, 0), BuildingBlock: OJICUG_clean_linker_0, # of connection points: 2
#     Edge 84, Type (0, 0), BuildingBlock: OJICUG_clean_linker_0, # of connection points: 2
#     Edge 85, Type (0, 0), BuildingBlock: OJICUG_clean_linker_0, # of connection points: 2
#     Edge 86, Type (0, 0), BuildingBlock: OJICUG_clean_linker_0, # of connection points: 2
#     Edge 87, Type (0, 0), BuildingBlock: OJICUG_clean_linker_0, # of connection points: 2
#     Edge 88, Type (0, 0), BuildingBlock: OJICUG_clean_linker_0, # of connection points: 2
#     Edge 89, Type (0, 0), BuildingBlock: OJICUG_clean_linker_0, # of connection points: 2
#     Edge 90, Type (0, 0), BuildingBlock: OJICUG_clean_linker_0, # of connection points: 2
#     Edge 91, Type (0, 0), BuildingBlock: OJICUG_clean_linker_0, # of connection points: 2
#     Edge 92, Type (0, 0), BuildingBlock: OJICUG_clean_linker_0, # of connection points: 2
#     Edge 93, Type (0, 0), BuildingBlock: OJICUG_clean_linker_0, # of connection points: 2
#     Edge 94, Type (0, 0), BuildingBlock: OJICUG_clean_linker_0, # of connection points: 2
#     Edge 95, Type (0, 0), BuildingBlock: OJICUG_clean_linker_0, # of connection points: 2
# Relax obj value: 0.067
# Max RMSD: 0.100
# Mean RMSD: 0.100
data_MOF--net-uox--node1-KUFVIS_clean_sbu_0--edge1-OJICUG_clean_linker_0
_symmetry_space_group_name_H-M    P1
_symmetry_Int_Tables_number       1
_symmetry_cell_setting            triclinic
loop_
_symmetry_equiv_pos_as_xyz
'x, y, z'
_cell_length_a     33.081205
_cell_length_b     33.081195
_cell_length_c     56.106737
_cell_angle_alpha  89.983321
_cell_angle_beta   90.007834
_cell_angle_gamma 90.000999
loop_
_atom_site_label
_atom_site_type_symbol
_atom_site_fract_x
_atom_site_fract_y
_atom_site_fract_z
_atom_type_partial_charge
Mn0 Mn 0.42802 0.07218 0.16631 0.0
Mn1 Mn 0.4908 0.9918 0.16498 0.0
C2 C 0.4975 0.08158 0.16329 0.0
C3 C 0.38822 0.12114 0.14736 0.0
C4 C 0.45015 0.02154 0.21023 0.0
O5 O 0.38976 0.02545 0.15764 0.0
O6 O 0.43562 0.97517 0.15499 0.0
C7 C 0.49156 0.976 0.11304 0.0
N8 N 0.51187 0.98461 0.13354 0.0
C9 C 0.57569 0.98473 0.11296 0.0
C10 C 0.55548 0.97563 0.09166 0.0
C11 C 0.51323 0.97129 0.0917 0.0
C12 C 0.55253 0.98871 0.13372 0.0
H13 H 0.45907 0.97282 0.11297 0.0
C14 C 0.39942 0.98877 0.15301 0.0
O15 O 0.3826 0.11146 0.16954 0.0
O16 O 0.41544 0.10077 0.13584 0.0
N17 N 0.5452 1.00455 0.17389 0.0
C18 C 0.55973 0.01615 0.19556 0.0
C19 C 0.60131 0.02331 0.19834 0.0
C20 C 0.62749 0.01837 0.17885 0.0
C21 C 0.61186 1.00625 0.15675 0.0
C22 C 0.5702 0.99924 0.1551 0.0
H23 H 0.53972 0.02021 0.21057 0.0
O24 O 0.47449 0.1101 0.17149 0.0
O25 O 0.47917 0.04837 0.1573 0.0
O26 O 0.43259 0.05198 0.20086 0.0
O27 O 0.47162 0.99662 0.19832 0.0
C28 C 0.63585 1.00169 0.13618 0.0
C29 C 0.61778 0.99092 0.1143 0.0
H30 H 0.57205 0.97229 0.07512 0.0
H31 H 0.4974 0.96447 0.07531 0.0
H32 H 0.61312 0.0328 0.21543 0.0
H33 H 0.65949 0.02429 0.18101 0.0
H34 H 0.66815 1.00694 0.13691 0.0
H35 H 0.63647 0.98807 0.09854 0.0
Mn36 Mn 0.198 0.17727 0.41645 0.0
Mn37 Mn 0.27849 0.23992 0.41511 0.0
C38 C 0.18872 0.24671 0.41313 0.0
C39 C 0.14911 0.13731 0.39758 0.0
C40 C 0.24818 0.20004 0.46046 0.0
O41 O 0.24468 0.13882 0.40806 0.0
O42 O 0.29516 0.18448 0.40566 0.0
C43 C 0.29495 0.23944 0.36324 0.0
N44 N 0.28613 0.26024 0.38353 0.0
C45 C 0.28642 0.32358 0.36242 0.0
C46 C 0.29575 0.30285 0.34133 0.0
C47 C 0.29998 0.2606 0.34175 0.0
C48 C 0.28212 0.30091 0.38335 0.0
H49 H 0.29806 0.20694 0.36346 0.0
C50 C 0.28151 0.1483 0.40374 0.0
O51 O 0.15864 0.13194 0.4198 0.0
O52 O 0.16958 0.16438 0.38598 0.0
N53 N 0.26579 0.29455 0.42352 0.0
C54 C 0.25404 0.30962 0.44503 0.0
C55 C 0.24701 0.35129 0.44743 0.0
C56 C 0.25224 0.377 0.42775 0.0
C57 C 0.26453 0.36082 0.40582 0.0
C58 C 0.2714 0.3191 0.40454 0.0
H59 H 0.24978 0.28998 0.46019 0.0
O60 O 0.16012 0.22382 0.42136 0.0
O61 O 0.22196 0.2283 0.40727 0.0
O62 O 0.21796 0.18219 0.45103 0.0
O63 O 0.27315 0.22149 0.44857 0.0
C64 C 0.26941 0.38432 0.38507 0.0
C65 C 0.28036 0.36571 0.36339 0.0
H66 H 0.29935 0.31902 0.32467 0.0
H67 H 0.30697 0.24437 0.32552 0.0
H68 H 0.2374 0.36353 0.4644 0.0
H69 H 0.24642 0.40907 0.42962 0.0
H70 H 0.26427 0.41665 0.38552 0.0
H71 H 0.28347 0.38402 0.34749 0.0
Mn72 Mn 0.09114 0.94773 0.66642 0.0
Mn73 Mn 0.02849 0.02824 0.66506 0.0
C74 C 0.02169 0.93847 0.6631 0.0
C75 C 0.13107 0.89882 0.64755 0.0
C76 C 0.0683 0.99789 0.71042 0.0
O77 O 0.12961 0.99442 0.65804 0.0
O78 O 0.08396 0.04491 0.65564 0.0
C79 C 0.02909 0.04473 0.61319 0.0
N80 N 1.00825 0.0359 0.63347 0.0
C81 C 0.94495 0.03623 0.61232 0.0
C82 C 0.96572 0.04557 0.59124 0.0
C83 C 1.00798 0.04978 0.59168 0.0
C84 C 0.96757 0.03191 0.63326 0.0
H85 H 0.06158 0.04783 0.61343 0.0
C86 C 0.12014 0.03126 0.65373 0.0
O87 O 0.13644 0.90834 0.66977 0.0
O88 O 0.10403 0.91933 0.63595 0.0
N89 N 0.97384 0.01555 0.67343 0.0
C90 C 0.95872 1.00381 0.69494 0.0
C91 C 0.91704 0.99679 0.69732 0.0
C92 C 0.89137 1.00204 0.67761 0.0
C93 C 0.90761 0.01433 0.6557 0.0
C94 C 0.94933 0.02119 0.65444 0.0
H95 H 0.97833 0.99953 0.71011 0.0
O96 O 0.04458 0.90986 0.67133 0.0
O97 O 0.04012 0.97171 0.65724 0.0
O98 O 0.08618 0.96769 0.70101 0.0
O99 O 0.04685 0.02286 0.69853 0.0
C100 C 0.88415 0.01924 0.63493 0.0
C101 C 0.90281 0.03019 0.61326 0.0
H102 H 0.94959 0.04918 0.57457 0.0
H103 H 0.02424 0.05678 0.57546 0.0
H104 H 0.90476 0.98718 0.71427 0.0
H105 H 0.8593 0.99624 0.67947 0.0
H106 H 0.85182 0.01411 0.63536 0.0
H107 H 0.88453 0.03332 0.59734 0.0
Mn108 Mn 0.3206 0.84067 0.9161 0.0
Mn109 Mn 0.24011 0.77801 0.91488 0.0
C110 C 0.32986 0.77122 0.91287 0.0
C111 C 0.36952 0.88056 0.89719 0.0
C112 C 0.27051 0.818 0.96016 0.0
O113 O 0.27391 0.87911 0.90768 0.0
O114 O 0.22341 0.83345 0.90541 0.0
C115 C 0.22352 0.77846 0.86302 0.0
N116 N 0.23239 0.75768 0.88332 0.0
C117 C 0.23208 0.69433 0.86224 0.0
C118 C 0.2227 0.71504 0.84114 0.0
C119 C 0.21846 0.75729 0.84154 0.0
C120 C 0.23642 0.717 0.88315 0.0
H121 H 0.2204 0.81096 0.86322 0.0
C122 C 0.23706 0.86962 0.90342 0.0
O123 O 0.35997 0.88599 0.9194 0.0
O124 O 0.34904 0.85349 0.88561 0.0
N125 N 0.25282 0.72339 0.92331 0.0
C126 C 0.26459 0.70832 0.94483 0.0
C127 C 0.27163 0.66666 0.94725 0.0
C128 C 0.26638 0.64094 0.92758 0.0
C129 C 0.25406 0.65711 0.90565 0.0
C130 C 0.24718 0.69883 0.90435 0.0
H131 H 0.26888 0.72798 0.95998 0.0
O132 O 0.35848 0.79414 0.92106 0.0
O133 O 0.29662 0.78962 0.90699 0.0
O134 O 0.30068 0.83585 0.95068 0.0
O135 O 0.24553 0.79648 0.94833 0.0
C136 C 0.24914 0.6336 0.88491 0.0
C137 C 0.23816 0.65219 0.86322 0.0
H138 H 0.21908 0.69886 0.82449 0.0
H139 H 0.21142 0.77351 0.82531 0.0
H140 H 0.28126 0.65443 0.96422 0.0
H141 H 0.2722 0.60887 0.92946 0.0
H142 H 0.25429 0.60127 0.88537 0.0
H143 H 0.23502 0.63387 0.84733 0.0
Mn144 Mn 0.4279 0.94722 0.35648 0.0
Mn145 Mn 0.49066 0.02761 0.35786 0.0
C146 C 0.49738 0.93783 0.35956 0.0
C147 C 0.38806 0.89825 0.37539 0.0
C148 C 0.45009 0.99787 0.31258 0.0
O149 O 0.38962 0.99393 0.36513 0.0
O150 O 0.43546 0.04422 0.36782 0.0
C151 C 0.49134 0.04341 0.4098 0.0
N152 N 0.51168 0.0348 0.38931 0.0
C153 C 0.57548 0.0347 0.40994 0.0
C154 C 0.55523 0.0438 0.43123 0.0
C155 C 0.51298 0.04812 0.43115 0.0
C156 C 0.55235 0.03071 0.38917 0.0
H157 H 0.45885 0.04658 0.40985 0.0
C158 C 0.39926 0.0306 0.36977 0.0
O159 O 0.38249 0.90793 0.3532 0.0
O160 O 0.41527 0.91861 0.38693 0.0
N161 N 0.54507 0.01487 0.34899 0.0
C162 C 0.55964 1.00328 0.32732 0.0
C163 C 0.60122 0.99613 0.32458 0.0
C164 C 0.62738 1.00108 0.34408 0.0
C165 C 0.61171 0.01319 0.36617 0.0
C166 C 0.57005 0.02019 0.3678 0.0
H167 H 0.53965 0.99922 0.3123 0.0
O168 O 0.47439 0.9093 0.35133 0.0
O169 O 0.47903 0.97103 0.36554 0.0
O170 O 0.43253 0.96742 0.32193 0.0
O171 O 0.47153 0.02279 0.32451 0.0
C172 C 0.63567 0.01776 0.38676 0.0
C173 C 0.61757 0.02852 0.40863 0.0
H174 H 0.57177 0.04714 0.44777 0.0
H175 H 0.49713 0.05494 0.44754 0.0
H176 H 0.61306 0.98665 0.30749 0.0
H177 H 0.65938 0.99517 0.34195 0.0
H178 H 0.66797 0.01252 0.38605 0.0
H179 H 0.63623 0.03138 0.4244 0.0
Mn180 Mn 0.32139 0.17783 0.60684 0.0
Mn181 Mn 0.24098 0.24057 0.60816 0.0
C182 C 0.33076 0.24729 0.60994 0.0
C183 C 0.37034 0.13796 0.62574 0.0
C184 C 0.27093 0.20017 0.56289 0.0
O185 O 0.27468 0.13951 0.61543 0.0
O186 O 0.22434 0.18531 0.61801 0.0
C187 C 0.22498 0.24097 0.66008 0.0
N188 N 0.23365 0.26142 0.63963 0.0
C189 C 0.23366 0.3251 0.66037 0.0
C190 C 0.22448 0.30474 0.68161 0.0
C191 C 0.22018 0.26249 0.68146 0.0
C192 C 0.23773 0.30209 0.63956 0.0
H193 H 0.22182 0.20848 0.66007 0.0
C194 C 0.23796 0.14912 0.61999 0.0
O195 O 0.36067 0.13243 0.60356 0.0
O196 O 0.34995 0.16513 0.63731 0.0
N197 N 0.25372 0.29504 0.59939 0.0
C198 C 0.26535 0.30973 0.57776 0.0
C199 C 0.27247 0.35134 0.57508 0.0
C200 C 0.26744 0.37738 0.59463 0.0
C201 C 0.25528 0.36159 0.61668 0.0
C202 C 0.24831 0.31991 0.61823 0.0
H203 H 0.26947 0.28984 0.5627 0.0
O204 O 0.35931 0.22431 0.60173 0.0
O205 O 0.29754 0.22894 0.6159 0.0
O206 O 0.30128 0.18252 0.57229 0.0
O207 O 0.24597 0.22162 0.57478 0.0
C208 C 0.25062 0.38543 0.6373 0.0
C209 C 0.23981 0.36721 0.65913 0.0
H210 H 0.22107 0.32119 0.69818 0.0
H211 H 0.21331 0.24654 0.69781 0.0
H212 H 0.28198 0.36328 0.55803 0.0
H213 H 0.27333 0.4094 0.59255 0.0
H214 H 0.25584 0.41774 0.63665 0.0
H215 H 0.23688 0.38578 0.67493 0.0
Mn216 Mn 0.09026 0.07091 0.85682 0.0
Mn217 Mn 0.02755 0.99046 0.85814 0.0
C218 C 0.02079 0.08023 0.85997 0.0
C219 C 0.13013 0.11985 0.87571 0.0
C220 C 0.06787 0.02052 0.81286 0.0
O221 O 0.12861 0.0242 0.86537 0.0
O222 O 0.08285 0.97382 0.86792 0.0
C223 C 0.02728 0.97433 0.91005 0.0
N224 N 1.00678 0.98305 0.88963 0.0
C225 C 0.94315 0.983 0.91042 0.0
C226 C 0.96356 0.97378 0.93164 0.0
C227 C 1.00582 0.96948 0.93145 0.0
C228 C 0.96611 0.98712 0.8896 0.0
H229 H 0.05977 0.97117 0.91001 0.0
C230 C 0.11903 0.98746 0.86988 0.0
O231 O 0.13563 0.11021 0.85352 0.0
O232 O 0.103 0.09944 0.88729 0.0
N233 N 0.97306 1.00319 0.84942 0.0
C234 C 0.95831 0.01486 0.82781 0.0
C235 C 0.9167 0.02197 0.82518 0.0
C236 C 0.8907 0.0169 0.84475 0.0
C237 C 0.90655 1.0047 0.86678 0.0
C238 C 0.94824 0.99775 0.86829 0.0
H239 H 0.97817 0.01901 0.81274 0.0
O240 O 0.04375 0.10881 0.85176 0.0
O241 O 0.03917 0.04701 0.8659 0.0
O242 O 0.08553 0.05085 0.82227 0.0
O243 O 0.04643 0.99553 0.82474 0.0
C244 C 0.88276 1.0 0.88742 0.0
C245 C 0.90104 0.98914 0.90922 0.0
H246 H 0.94716 0.97032 0.94822 0.0
H247 H 0.0218 0.96257 0.94778 0.0
H248 H 0.90471 0.03151 0.80814 0.0
H249 H 0.85867 0.02278 0.8427 0.0
H250 H 0.85044 1.00521 0.8868 0.0
H251 H 0.8825 0.98617 0.92504 0.0
Mn252 Mn 0.19815 0.84184 0.1066 0.0
Mn253 Mn 0.27866 0.7792 0.10805 0.0
C254 C 0.18888 0.77241 0.11 0.0
C255 C 0.14925 0.88185 0.12541 0.0
C256 C 0.24828 0.81877 0.06263 0.0
O257 O 0.24481 0.88035 0.11494 0.0
O258 O 0.29533 0.83473 0.11734 0.0
C259 C 0.29515 0.78014 0.15992 0.0
N260 N 0.28634 0.75916 0.13969 0.0
C261 C 0.2867 0.696 0.16099 0.0
C262 C 0.29602 0.71691 0.18202 0.0
C263 C 0.3002 0.75917 0.18148 0.0
C264 C 0.28237 0.71849 0.13999 0.0
H265 H 0.29822 0.81263 0.15961 0.0
C266 C 0.28166 0.87091 0.11923 0.0
O267 O 0.15878 0.88714 0.10319 0.0
O268 O 0.16973 0.85485 0.13705 0.0
N269 N 0.26601 0.72449 0.0998 0.0
C270 C 0.2543 0.70922 0.07833 0.0
C271 C 0.24733 0.66753 0.07604 0.0
C272 C 0.25259 0.64199 0.09581 0.0
C273 C 0.26486 0.65837 0.11769 0.0
C274 C 0.27166 0.70011 0.11885 0.0
H275 H 0.25002 0.72874 0.06311 0.0
O276 O 0.16028 0.79528 0.10175 0.0
O277 O 0.22212 0.79084 0.11586 0.0
O278 O 0.21812 0.83674 0.07203 0.0
O279 O 0.27325 0.79736 0.07454 0.0
C280 C 0.26977 0.63505 0.13851 0.0
C281 C 0.28069 0.65385 0.16014 0.0
H282 H 0.29964 0.70088 0.19872 0.0
H283 H 0.30718 0.77554 0.19766 0.0
H284 H 0.23775 0.65513 0.05912 0.0
H285 H 0.24682 0.6099 0.09403 0.0
H286 H 0.26468 0.6027 0.13815 0.0
H287 H 0.28384 0.63567 0.17609 0.0
Mn288 Mn 0.59055 0.9479 0.85683 0.0
Mn289 Mn 0.52781 0.02833 0.85801 0.0
C290 C 0.52107 0.93856 0.85987 0.0
C291 C 0.63036 0.89898 0.87579 0.0
C292 C 0.56834 0.99824 0.81281 0.0
O293 O 0.62884 0.99463 0.86542 0.0
O294 O 0.58305 0.04499 0.86788 0.0
C295 C 0.52727 0.04449 0.9099 0.0
N296 N 0.50688 0.03575 0.88946 0.0
C297 C 0.44313 0.03581 0.91013 0.0
C298 C 0.46344 0.04505 0.93138 0.0
C299 C 0.50569 0.04935 0.93126 0.0
C300 C 0.46621 0.03168 0.88935 0.0
H301 H 0.55976 0.04765 0.90992 0.0
C302 C 0.61923 0.03137 0.86992 0.0
O303 O 0.63594 0.90861 0.85361 0.0
O304 O 0.60317 0.91938 0.88733 0.0
N305 N 0.47337 0.01557 0.8492 0.0
C306 C 0.45873 1.00388 0.82757 0.0
C307 C 0.41713 0.99676 0.82487 0.0
C308 C 0.39103 1.00184 0.84438 0.0
C309 C 0.40677 0.01406 0.86644 0.0
C310 C 0.44845 0.02103 0.86802 0.0
H311 H 0.47867 0.99972 0.81254 0.0
O312 O 0.54407 0.90999 0.85171 0.0
O313 O 0.53941 0.97179 0.86582 0.0
O314 O 0.58596 0.96792 0.82226 0.0
O315 O 0.54685 0.02325 0.82464 0.0
C316 C 0.38286 0.01878 0.88703 0.0
C317 C 0.40103 0.02966 0.90886 0.0
H318 H 0.44694 0.04851 0.94793 0.0
H319 H 0.52159 0.05628 0.94762 0.0
H320 H 0.40524 0.9872 0.80781 0.0
H321 H 0.35902 0.99595 0.84228 0.0
H322 H 0.35056 0.01356 0.88636 0.0
H323 H 0.38241 0.03264 0.92464 0.0
Mn324 Mn 0.82143 0.84071 0.60653 0.0
Mn325 Mn 0.74098 0.77799 0.60779 0.0
C326 C 0.83076 0.77123 0.60963 0.0
C327 C 0.87034 0.88052 0.6255 0.0
C328 C 0.77103 0.81847 0.56255 0.0
O329 O 0.7747 0.87902 0.6151 0.0
O330 O 0.72435 0.83324 0.61766 0.0
C331 C 0.72488 0.77746 0.65969 0.0
N332 N 0.73359 0.75707 0.63925 0.0
C333 C 0.73352 0.69332 0.65994 0.0
C334 C 0.72431 0.71363 0.68119 0.0
C335 C 0.72003 0.75588 0.68106 0.0
C336 C 0.73765 0.71639 0.63915 0.0
H337 H 0.72173 0.80995 0.65971 0.0
C338 C 0.73798 0.86942 0.61964 0.0
O339 O 0.86075 0.88609 0.6033 0.0
O340 O 0.84991 0.85334 0.63703 0.0
N341 N 0.75372 0.72355 0.59899 0.0
C342 C 0.7654 0.70891 0.57736 0.0
C343 C 0.77251 0.66731 0.57467 0.0
C344 C 0.76743 0.64121 0.59419 0.0
C345 C 0.75523 0.65695 0.61624 0.0
C346 C 0.74827 0.69863 0.61782 0.0
H347 H 0.76956 0.72885 0.56232 0.0
O348 O 0.85933 0.79421 0.60145 0.0
O349 O 0.79753 0.78959 0.61556 0.0
O350 O 0.8014 0.83607 0.57196 0.0
O351 O 0.74603 0.79703 0.57442 0.0
C352 C 0.75052 0.63305 0.63685 0.0
C353 C 0.73966 0.65122 0.65867 0.0
H354 H 0.72086 0.69713 0.69774 0.0
H355 H 0.71312 0.77178 0.69741 0.0
H356 H 0.78206 0.65542 0.55761 0.0
H357 H 0.77331 0.6092 0.59209 0.0
H358 H 0.75573 0.60074 0.63618 0.0
H359 H 0.73669 0.6326 0.67446 0.0
Mn360 Mn 0.92824 0.07018 0.3568 0.0
Mn361 Mn 0.99079 0.9896 0.358 0.0
C362 C 0.99768 0.07935 0.36012 0.0
C363 C 0.88834 0.11905 0.3757 0.0
C364 C 0.95112 0.02032 0.31269 0.0
O365 O 0.88971 0.02352 0.36509 0.0
O366 O 0.93526 0.97293 0.3673 0.0
C367 C 0.98995 0.97274 0.40982 0.0
N368 N 0.01089 0.98168 0.3896 0.0
C369 C 0.0741 0.98114 0.41084 0.0
C370 C 0.05322 0.97169 0.43187 0.0
C371 C 0.01096 0.96753 0.43135 0.0
C372 C 0.05157 0.98563 0.38988 0.0
H373 H 0.95745 0.96969 0.40953 0.0
C374 C 0.89911 0.98663 0.36926 0.0
O375 O 0.88298 0.1096 0.35347 0.0
O376 O 0.91534 0.0985 0.3873 0.0
N377 N 0.0455 1.00224 0.34973 0.0
C378 C 0.06073 0.01407 0.32827 0.0
C379 C 0.10243 0.02102 0.32596 0.0
C380 C 0.12801 0.01562 0.3457 0.0
C381 C 0.11166 1.00324 0.36757 0.0
C382 C 0.06991 0.99646 0.36875 0.0
H383 H 0.04119 0.01846 0.31307 0.0
O384 O 0.97482 0.10802 0.35195 0.0
O385 O 0.97923 0.0461 0.36595 0.0
O386 O 0.9332 0.05041 0.32219 0.0
O387 O 0.97257 0.99525 0.32451 0.0
C388 C 0.13502 0.99817 0.38835 0.0
C389 C 0.11625 0.98712 0.40998 0.0
H390 H 0.06928 0.96794 0.44855 0.0
H391 H 0.99462 0.96044 0.44753 0.0
H392 H 0.1148 0.03069 0.30904 0.0
H393 H 0.1601 0.02137 0.3439 0.0
H394 H 0.16736 1.00324 0.38799 0.0
H395 H 0.13446 0.98386 0.42591 0.0
Mn396 Mn 0.69793 0.17934 0.10689 0.0
Mn397 Mn 0.77839 0.24203 0.10805 0.0
C398 C 0.68863 0.24882 0.10992 0.0
C399 C 0.64899 0.13958 0.12587 0.0
C400 C 0.74823 0.20153 0.06286 0.0
O401 O 0.74464 0.14102 0.11547 0.0
O402 O 0.79504 0.18678 0.11792 0.0
C403 C 0.79462 0.24254 0.15994 0.0
N404 N 0.78587 0.26295 0.1395 0.0
C405 C 0.78597 0.32668 0.16018 0.0
C406 C 0.79523 0.30636 0.18143 0.0
C407 C 0.79952 0.26411 0.1813 0.0
C408 C 0.7818 0.30362 0.1394 0.0
H409 H 0.79777 0.21005 0.15996 0.0
C410 C 0.78139 0.15061 0.11996 0.0
O411 O 0.6586 0.13398 0.10368 0.0
O412 O 0.66943 0.16675 0.1374 0.0
N413 N 0.76566 0.29649 0.09925 0.0
C414 C 0.75395 0.31114 0.07762 0.0
C415 C 0.74684 0.35274 0.07492 0.0
C416 C 0.75195 0.37883 0.09444 0.0
C417 C 0.76419 0.36307 0.11649 0.0
C418 C 0.77114 0.3214 0.11807 0.0
H419 H 0.74977 0.29121 0.06259 0.0
O420 O 0.66004 0.22584 0.10177 0.0
O421 O 0.72186 0.23047 0.11587 0.0
O422 O 0.71792 0.18391 0.07232 0.0
O423 O 0.77325 0.22301 0.07469 0.0
C424 C 0.76893 0.38697 0.13709 0.0
C425 C 0.77982 0.36878 0.15892 0.0
H426 H 0.79871 0.32284 0.19798 0.0
H427 H 0.80645 0.24819 0.19766 0.0
H428 H 0.73727 0.36466 0.05787 0.0
H429 H 0.74607 0.41085 0.09235 0.0
H430 H 0.76372 0.41928 0.13642 0.0
H431 H 0.78283 0.38739 0.1747 0.0
Mn432 Mn 0.59132 0.07072 0.66629 0.0
Mn433 Mn 0.52868 0.99022 0.66508 0.0
C434 C 0.52187 0.07998 0.66309 0.0
C435 C 0.63117 0.11962 0.64733 0.0
C436 C 0.56872 0.0206 0.71035 0.0
O437 O 0.62975 0.02404 0.65786 0.0
O438 O 0.58409 0.97355 0.65555 0.0
C439 C 0.52896 0.97371 0.61322 0.0
N440 N 0.50824 0.98254 0.63353 0.0
C441 C 0.44481 0.9822 0.61252 0.0
C442 C 0.46546 0.97287 0.5914 0.0
C443 C 0.50771 0.96865 0.59175 0.0
C444 C 0.46756 0.98654 0.63341 0.0
H445 H 0.56145 0.97061 0.61338 0.0
C446 C 0.62026 0.98721 0.65356 0.0
O447 O 0.63665 0.1101 0.66955 0.0
O448 O 0.60407 0.09913 0.63578 0.0
N449 N 0.47408 1.0029 0.67356 0.0
C450 C 0.45909 0.01466 0.69509 0.0
C451 C 0.41743 0.02167 0.69756 0.0
C452 C 0.39164 0.01642 0.67791 0.0
C453 C 0.40774 1.00412 0.65597 0.0
C454 C 0.44946 0.99727 0.65462 0.0
H455 H 0.4788 0.01894 0.71022 0.0
O456 O 0.54479 0.1086 0.67126 0.0
O457 O 0.54026 0.04675 0.6572 0.0
O458 O 0.58654 0.0508 0.70089 0.0
O459 O 0.54724 0.9956 0.69851 0.0
C460 C 0.38416 0.99921 0.63525 0.0
C461 C 0.40268 0.98825 0.61355 0.0
H462 H 0.44922 0.96925 0.57477 0.0
H463 H 0.52388 0.96165 0.5755 0.0
H464 H 0.40526 0.03128 0.71454 0.0
H465 H 0.35958 0.02222 0.67983 0.0
H466 H 0.35182 1.00433 0.63575 0.0
H467 H 0.3843 0.98512 0.59767 0.0
Mn468 Mn 0.69776 0.84014 0.41612 0.0
Mn469 Mn 0.77822 0.77744 0.41497 0.0
C470 C 0.68845 0.77065 0.41315 0.0
C471 C 0.64881 0.87985 0.39711 0.0
C472 C 0.74819 0.81813 0.46013 0.0
O473 O 0.74448 0.87843 0.40748 0.0
O474 O 0.79484 0.83263 0.40498 0.0
C475 C 0.79429 0.77662 0.36306 0.0
N476 N 0.78559 0.75634 0.38356 0.0
C477 C 0.78562 0.69249 0.363 0.0
C478 C 0.79482 0.71268 0.34171 0.0
C479 C 0.79912 0.75493 0.34174 0.0
C480 C 0.78151 0.71567 0.38374 0.0
H481 H 0.79745 0.80911 0.36298 0.0
C482 C 0.7812 0.8688 0.40293 0.0
O483 O 0.65844 0.88552 0.41929 0.0
O484 O 0.66924 0.85265 0.38561 0.0
N485 N 0.76548 0.72304 0.42389 0.0
C486 C 0.7538 0.70852 0.44555 0.0
C487 C 0.74668 0.66694 0.44834 0.0
C488 C 0.75173 0.64073 0.42887 0.0
C489 C 0.76393 0.65635 0.40678 0.0
C490 C 0.7709 0.69802 0.40511 0.0
H491 H 0.74967 0.72854 0.46055 0.0
O492 O 0.65987 0.79365 0.42129 0.0
O493 O 0.72167 0.78899 0.40718 0.0
O494 O 0.71781 0.83566 0.45069 0.0
O495 O 0.7732 0.79665 0.4483 0.0
C496 C 0.76861 0.63234 0.38623 0.0
C497 C 0.77946 0.65039 0.36436 0.0
H498 H 0.79826 0.6961 0.32519 0.0
H499 H 0.80602 0.77075 0.32535 0.0
H500 H 0.73714 0.65513 0.46542 0.0
H501 H 0.74584 0.60873 0.43103 0.0
H502 H 0.76339 0.60004 0.38696 0.0
H503 H 0.78241 0.63169 0.34861 0.0
Mn504 Mn 0.92835 0.9491 0.16604 0.0
Mn505 Mn 0.99096 0.02964 0.16487 0.0
C506 C 0.99779 0.93989 0.16276 0.0
C507 C 0.88843 0.90023 0.14714 0.0
C508 C 0.95119 0.99898 0.21016 0.0
O509 O 0.88986 0.99579 0.15772 0.0
O510 O 0.93546 0.04635 0.15551 0.0
C511 C 0.99025 0.04646 0.11304 0.0
N512 N 0.01114 0.03752 0.13328 0.0
C513 C 0.07439 0.03799 0.11209 0.0
C514 C 0.05357 0.04744 0.09105 0.0
C515 C 0.01132 0.05163 0.09152 0.0
C516 C 0.05181 0.03353 0.13304 0.0
H517 H 0.95776 0.04954 0.11329 0.0
C518 C 0.8993 0.03267 0.15353 0.0
O519 O 0.88306 0.90972 0.16936 0.0
O520 O 0.91545 0.92076 0.13554 0.0
N521 N 0.04563 0.01696 0.17319 0.0
C522 C 0.06081 1.00514 0.19467 0.0
C523 C 0.1025 0.99816 0.19701 0.0
C524 C 0.12813 1.00351 0.1773 0.0
C525 C 0.11183 0.01589 0.15541 0.0
C526 C 0.0701 0.02271 0.15419 0.0
H527 H 0.04124 1.00078 0.20985 0.0
O528 O 0.9749 0.91123 0.17093 0.0
O529 O 0.97937 0.97315 0.15692 0.0
O530 O 0.93328 0.96889 0.20065 0.0
O531 O 0.97266 0.02404 0.19834 0.0
C532 C 0.13524 0.02092 0.13465 0.0
C533 C 0.11654 0.03196 0.113 0.0
H534 H 0.06967 0.05116 0.07438 0.0
H535 H 0.99502 0.05873 0.07533 0.0
H536 H 0.11483 0.98849 0.21395 0.0
H537 H 0.16021 0.99773 0.17913 0.0
H538 H 0.16759 0.01582 0.13505 0.0
H539 H 0.13478 0.0352 0.09709 0.0
Mn540 Mn 0.82054 0.17824 0.91635 0.0
Mn541 Mn 0.74002 0.24086 0.91507 0.0
C542 C 0.82978 0.24769 0.91306 0.0
C543 C 0.86943 0.13833 0.89745 0.0
C544 C 0.77047 0.201 0.96039 0.0
O545 O 0.77386 0.13977 0.90798 0.0
O546 O 0.72334 0.1854 0.90563 0.0
C547 C 0.72343 0.24035 0.86321 0.0
N548 N 0.73229 0.26116 0.88349 0.0
C549 C 0.7319 0.32449 0.86238 0.0
C550 C 0.72254 0.30376 0.84129 0.0
C551 C 0.71834 0.2615 0.84172 0.0
C552 C 0.73628 0.30184 0.8833 0.0
H553 H 0.72034 0.20786 0.86343 0.0
C554 C 0.73701 0.14923 0.90369 0.0
O555 O 0.85992 0.13293 0.91967 0.0
O556 O 0.84892 0.16538 0.88586 0.0
N557 N 0.75269 0.2955 0.92346 0.0
C558 C 0.76446 0.31059 0.94497 0.0
C559 C 0.77146 0.35226 0.94737 0.0
C560 C 0.76617 0.37797 0.92768 0.0
C561 C 0.75386 0.36177 0.90576 0.0
C562 C 0.74702 0.32004 0.90449 0.0
H563 H 0.76877 0.29095 0.96013 0.0
O564 O 0.85841 0.22479 0.92126 0.0
O565 O 0.79654 0.22927 0.9072 0.0
O566 O 0.80065 0.18314 0.95094 0.0
O567 O 0.74545 0.22245 0.94853 0.0
C568 C 0.74891 0.38526 0.88501 0.0
C569 C 0.73794 0.36664 0.86334 0.0
H570 H 0.71889 0.31992 0.82464 0.0
H571 H 0.71131 0.24526 0.82549 0.0
H572 H 0.78109 0.36452 0.96433 0.0
H573 H 0.77197 0.41004 0.92955 0.0
H574 H 0.75402 0.4176 0.88545 0.0
H575 H 0.73477 0.38494 0.84744 0.0
Mn576 Mn 0.92839 0.57081 0.6661 0.0
Mn577 Mn 0.99105 0.49032 0.665 0.0
C578 C 0.99786 0.58007 0.663 0.0
C579 C 0.88861 0.61973 0.64711 0.0
C580 C 0.95076 0.52067 0.7102 0.0
O581 O 0.89001 0.52411 0.65761 0.0
O582 O 0.9357 0.47363 0.65536 0.0
C583 C 0.99106 0.47379 0.61314 0.0
N584 N 0.01166 0.48265 0.6335 0.0
C585 C 0.0752 0.48236 0.61261 0.0
C586 C 0.05467 0.47301 0.59145 0.0
C587 C 0.01242 0.46876 0.59172 0.0
C588 C 0.05234 0.48668 0.63346 0.0
H589 H 0.95856 0.47067 0.61325 0.0
C590 C 0.89953 0.48728 0.65332 0.0
O591 O 0.88305 0.61016 0.66931 0.0
O592 O 0.91574 0.59925 0.63558 0.0
N593 N 0.0456 0.50304 0.6736 0.0
C594 C 0.06047 0.51481 0.69516 0.0
C595 C 0.1021 0.52187 0.6977 0.0
C596 C 0.128 0.51663 0.67811 0.0
C597 C 0.11203 0.50432 0.65613 0.0
C598 C 0.07032 0.49742 0.6547 0.0
H599 H 0.04068 0.51908 0.71025 0.0
O600 O 0.97491 0.60868 0.67115 0.0
O601 O 0.97949 0.54683 0.6571 0.0
O602 O 0.93301 0.55088 0.7007 0.0
O603 O 0.97231 0.49567 0.6984 0.0
C604 C 0.13572 0.49943 0.63546 0.0
C605 C 0.11732 0.48846 0.61372 0.0
H606 H 0.071 0.4694 0.57485 0.0
H607 H 0.99634 0.46174 0.57544 0.0
H608 H 0.11418 0.5315 0.7147 0.0
H609 H 0.16005 0.52247 0.68009 0.0
H610 H 0.16805 0.50459 0.63602 0.0
H611 H 0.13578 0.48534 0.59788 0.0
Mn612 Mn 0.69764 0.67804 0.91643 0.0
Mn613 Mn 0.77811 0.74073 0.91512 0.0
C614 C 0.68834 0.74749 0.91322 0.0
C615 C 0.64873 0.63817 0.89751 0.0
C616 C 0.74788 0.70067 0.96044 0.0
O617 O 0.74434 0.63964 0.90796 0.0
O618 O 0.79478 0.68534 0.90557 0.0
C619 C 0.79446 0.7405 0.86324 0.0
N620 N 0.78568 0.7612 0.88357 0.0
C621 C 0.78592 0.82464 0.86256 0.0
C622 C 0.79521 0.80401 0.84143 0.0
C623 C 0.79944 0.76176 0.84178 0.0
C624 C 0.78166 0.80187 0.88346 0.0
H625 H 0.79757 0.708 0.8634 0.0
C626 C 0.78114 0.64916 0.9036 0.0
O627 O 0.65828 0.63269 0.91972 0.0
O628 O 0.6692 0.66528 0.88594 0.0
N629 N 0.76541 0.79532 0.92363 0.0
C630 C 0.7537 0.81029 0.94517 0.0
C631 C 0.74666 0.85194 0.94765 0.0
C632 C 0.75185 0.87775 0.928 0.0
C633 C 0.7641 0.86167 0.90604 0.0
C634 C 0.77098 0.81996 0.90469 0.0
H635 H 0.74946 0.79057 0.9603 0.0
O636 O 0.65975 0.72456 0.92143 0.0
O637 O 0.72157 0.72911 0.90732 0.0
O638 O 0.71765 0.68285 0.95101 0.0
O639 O 0.77284 0.72215 0.94856 0.0
C640 C 0.76894 0.88527 0.88533 0.0
C641 C 0.77985 0.86677 0.86361 0.0
H642 H 0.79877 0.82026 0.8248 0.0
H643 H 0.8064 0.74561 0.82552 0.0
H644 H 0.73707 0.8641 0.96464 0.0
H645 H 0.74602 0.9098 0.92993 0.0
H646 H 0.76379 0.9176 0.88583 0.0
H647 H 0.78293 0.88516 0.84773 0.0
Mn648 Mn 0.59064 0.44913 0.16616 0.0
Mn649 Mn 0.52807 0.52969 0.16497 0.0
C650 C 0.5212 0.43994 0.16283 0.0
C651 C 0.63058 0.40027 0.14726 0.0
C652 C 0.56777 0.49897 0.21027 0.0
O653 O 0.62916 0.49581 0.15787 0.0
O654 O 0.58358 0.54638 0.15566 0.0
C655 C 0.52885 0.54656 0.11315 0.0
N656 N 0.50793 0.5376 0.13338 0.0
C657 C 0.44471 0.53812 0.11215 0.0
C658 C 0.46556 0.54759 0.09112 0.0
C659 C 0.50781 0.55177 0.09162 0.0
C660 C 0.46725 0.53363 0.13311 0.0
H661 H 0.56134 0.54963 0.11342 0.0
C662 C 0.61974 0.5327 0.15369 0.0
O663 O 0.63592 0.40973 0.16949 0.0
O664 O 0.60357 0.42082 0.13565 0.0
N665 N 0.47338 0.51701 0.17326 0.0
C666 C 0.45817 0.50518 0.19472 0.0
C667 C 0.41648 0.4982 0.19704 0.0
C668 C 0.39088 0.50359 0.17732 0.0
C669 C 0.4072 0.51599 0.15544 0.0
C670 C 0.44894 0.52279 0.15424 0.0
H671 H 0.47772 0.50079 0.20991 0.0
O672 O 0.54407 0.41127 0.171 0.0
O673 O 0.53965 0.4732 0.15701 0.0
O674 O 0.58568 0.46888 0.20077 0.0
O675 O 0.54632 0.52405 0.19845 0.0
C676 C 0.38382 0.52105 0.13466 0.0
C677 C 0.40256 0.53211 0.11303 0.0
H678 H 0.44948 0.55133 0.07444 0.0
H679 H 0.52413 0.55887 0.07544 0.0
H680 H 0.40412 0.48852 0.21396 0.0
H681 H 0.35879 0.49782 0.17912 0.0
H682 H 0.35147 0.51596 0.13504 0.0
H683 H 0.38433 0.53537 0.09711 0.0
Mn684 Mn 0.82111 0.34002 0.41608 0.0
Mn685 Mn 0.74064 0.27734 0.41496 0.0
C686 C 0.8304 0.27054 0.41305 0.0
C687 C 0.87003 0.37976 0.39707 0.0
C688 C 0.77085 0.31787 0.46013 0.0
O689 O 0.77438 0.37835 0.40751 0.0
O690 O 0.72399 0.33258 0.40507 0.0
C691 C 0.72436 0.27676 0.36307 0.0
N692 N 0.73314 0.25639 0.38352 0.0
C693 C 0.73301 0.19263 0.36287 0.0
C694 C 0.72374 0.21292 0.34161 0.0
C695 C 0.71945 0.25517 0.34172 0.0
C696 C 0.7372 0.21571 0.38364 0.0
H697 H 0.72121 0.30925 0.36304 0.0
C698 C 0.73763 0.36875 0.40303 0.0
O699 O 0.86044 0.38538 0.41926 0.0
O700 O 0.84956 0.35259 0.38556 0.0
N701 N 0.75338 0.2229 0.42378 0.0
C702 C 0.76511 0.20827 0.44541 0.0
C703 C 0.77222 0.16667 0.44812 0.0
C704 C 0.7671 0.14056 0.42862 0.0
C705 C 0.75484 0.15629 0.40656 0.0
C706 C 0.74788 0.19796 0.40497 0.0
H707 H 0.76931 0.22822 0.46043 0.0
O708 O 0.859 0.29352 0.42119 0.0
O709 O 0.79717 0.2889 0.40711 0.0
O710 O 0.80117 0.33547 0.45066 0.0
O711 O 0.74581 0.29641 0.44831 0.0
C712 C 0.75007 0.13237 0.38598 0.0
C713 C 0.73916 0.15052 0.36415 0.0
H714 H 0.72023 0.19641 0.32507 0.0
H715 H 0.71249 0.27106 0.32536 0.0
H716 H 0.78181 0.15479 0.46518 0.0
H717 H 0.77298 0.10855 0.43073 0.0
H718 H 0.75528 0.10006 0.38666 0.0
H719 H 0.73614 0.13189 0.34837 0.0
Mn720 Mn 0.92767 0.44799 0.85665 0.0
Mn721 Mn 0.99042 0.52841 0.85793 0.0
C722 C 0.99713 0.43862 0.85978 0.0
C723 C 0.88778 0.3991 0.87558 0.0
C724 C 0.95012 0.49831 0.81266 0.0
O725 O 0.88935 0.49472 0.86517 0.0
O726 O 0.93513 0.54507 0.8677 0.0
C727 C 0.9907 0.54456 0.90983 0.0
N728 N 0.01119 0.53583 0.88942 0.0
C729 C 0.07484 0.53592 0.91021 0.0
C730 C 0.05443 0.54514 0.93142 0.0
C731 C 0.01217 0.54942 0.93123 0.0
C732 C 0.05187 0.53177 0.88939 0.0
H733 H 0.95821 0.5477 0.90979 0.0
C734 C 0.89894 0.53145 0.86968 0.0
O735 O 0.88227 0.4087 0.85337 0.0
O736 O 0.91494 0.41951 0.88713 0.0
N737 N 0.04491 0.51567 0.84922 0.0
C738 C 0.05966 0.50399 0.82762 0.0
C739 C 0.10127 0.49689 0.82499 0.0
C740 C 0.12727 0.50198 0.84456 0.0
C741 C 0.11142 0.5142 0.86658 0.0
C742 C 0.06974 0.52114 0.86809 0.0
H743 H 0.03979 0.49982 0.81255 0.0
O744 O 0.97415 0.41006 0.8516 0.0
O745 O 0.97879 0.47186 0.86571 0.0
O746 O 0.93242 0.468 0.82207 0.0
O747 O 0.97155 0.52331 0.82454 0.0
C748 C 0.13523 0.51892 0.88722 0.0
C749 C 0.11695 0.52979 0.90902 0.0
H750 H 0.07084 0.54861 0.94801 0.0
H751 H 0.99619 0.55634 0.94755 0.0
H752 H 0.11325 0.48734 0.80795 0.0
H753 H 0.1593 0.49612 0.84251 0.0
H754 H 0.16754 0.51373 0.88661 0.0
H755 H 0.13549 0.53278 0.92483 0.0
Mn756 Mn 0.82107 0.67922 0.10687 0.0
Mn757 Mn 0.74063 0.74194 0.10805 0.0
C758 C 0.8304 0.74871 0.10985 0.0
C759 C 0.87005 0.63948 0.12584 0.0
C760 C 0.77062 0.70129 0.06286 0.0
O761 O 0.77436 0.64093 0.11551 0.0
O762 O 0.72401 0.68672 0.11801 0.0
C763 C 0.72458 0.74264 0.15996 0.0
N764 N 0.73327 0.76297 0.13948 0.0
C765 C 0.73326 0.82678 0.16008 0.0
C766 C 0.72407 0.80654 0.18136 0.0
C767 C 0.71977 0.76429 0.1813 0.0
C768 C 0.73735 0.80364 0.13932 0.0
H769 H 0.72142 0.71015 0.16002 0.0
C770 C 0.73764 0.65055 0.12005 0.0
O771 O 0.86038 0.63384 0.10366 0.0
O772 O 0.84964 0.66669 0.13736 0.0
N773 N 0.75336 0.79635 0.09916 0.0
C774 C 0.76501 0.81092 0.07751 0.0
C775 C 0.77213 0.85251 0.07475 0.0
C776 C 0.76709 0.87867 0.09424 0.0
C777 C 0.75491 0.863 0.11632 0.0
C778 C 0.74794 0.82133 0.11796 0.0
H779 H 0.76914 0.79093 0.0625 0.0
O780 O 0.85897 0.72571 0.10169 0.0
O781 O 0.79718 0.73037 0.11582 0.0
O782 O 0.80099 0.68373 0.0723 0.0
O783 O 0.74563 0.72279 0.07471 0.0
C784 C 0.75024 0.88697 0.13689 0.0
C785 C 0.73941 0.86888 0.15875 0.0
H786 H 0.72064 0.82309 0.1979 0.0
H787 H 0.71288 0.74844 0.19768 0.0
H788 H 0.78166 0.86435 0.05767 0.0
H789 H 0.77298 0.91068 0.0921 0.0
H790 H 0.75546 0.91928 0.13618 0.0
H791 H 0.73647 0.88755 0.17452 0.0
Mn792 Mn 0.59064 0.57022 0.35691 0.0
Mn793 Mn 0.52806 0.48966 0.35809 0.0
C794 C 0.5212 0.57941 0.36019 0.0
C795 C 0.63053 0.61911 0.37583 0.0
C796 C 0.56781 0.52033 0.3128 0.0
O797 O 0.62915 0.52354 0.36525 0.0
O798 O 0.58356 0.47298 0.36745 0.0
C799 C 0.52877 0.47287 0.40993 0.0
N800 N 0.50788 0.48179 0.38968 0.0
C801 C 0.44463 0.48131 0.41087 0.0
C802 C 0.46545 0.47188 0.43192 0.0
C803 C 0.50771 0.46769 0.43144 0.0
C804 C 0.4672 0.48577 0.38992 0.0
H805 H 0.56127 0.4698 0.40967 0.0
C806 C 0.61972 0.48666 0.36944 0.0
O807 O 0.63592 0.60962 0.3536 0.0
O808 O 0.60351 0.59856 0.38742 0.0
N809 N 0.47337 0.50233 0.34977 0.0
C810 C 0.45819 0.51413 0.32829 0.0
C811 C 0.4165 0.5211 0.32594 0.0
C812 C 0.39088 0.51574 0.34566 0.0
C813 C 0.40717 0.50338 0.36755 0.0
C814 C 0.44891 0.49657 0.36877 0.0
H815 H 0.47776 0.51849 0.31311 0.0
O816 O 0.54409 0.60808 0.35202 0.0
O817 O 0.53963 0.54617 0.36603 0.0
O818 O 0.58573 0.55042 0.32231 0.0
O819 O 0.54635 0.49527 0.32462 0.0
C820 C 0.38377 0.49835 0.38831 0.0
C821 C 0.40248 0.48732 0.40996 0.0
H822 H 0.44935 0.46816 0.44859 0.0
H823 H 0.52401 0.46062 0.44764 0.0
H824 H 0.40417 0.53076 0.30901 0.0
H825 H 0.35879 0.52151 0.34383 0.0
H826 H 0.35142 0.50343 0.38792 0.0
H827 H 0.38424 0.48408 0.42588 0.0
Mn828 Mn 0.69834 0.34051 0.60661 0.0
Mn829 Mn 0.77882 0.27785 0.60783 0.0
C830 C 0.68906 0.27105 0.60979 0.0
C831 C 0.64947 0.38037 0.62556 0.0
C832 C 0.74855 0.31813 0.56258 0.0
O833 O 0.74507 0.37888 0.61508 0.0
O834 O 0.79548 0.33315 0.61758 0.0
C835 C 0.79518 0.27757 0.65971 0.0
N836 N 0.78637 0.25708 0.63931 0.0
C837 C 0.78656 0.19343 0.66011 0.0
C838 C 0.79587 0.21385 0.68131 0.0
C839 C 0.80014 0.2561 0.68111 0.0
C840 C 0.78233 0.2164 0.63929 0.0
H841 H 0.79831 0.31007 0.65966 0.0
C842 C 0.78183 0.36933 0.61955 0.0
O843 O 0.65901 0.38586 0.60335 0.0
O844 O 0.66994 0.35325 0.63711 0.0
N845 N 0.76608 0.22335 0.59914 0.0
C846 C 0.75434 0.2086 0.57755 0.0
C847 C 0.74725 0.16699 0.57493 0.0
C848 C 0.75242 0.14098 0.59449 0.0
C849 C 0.7647 0.15684 0.61651 0.0
C850 C 0.77163 0.19853 0.618 0.0
H851 H 0.75011 0.22847 0.56248 0.0
O852 O 0.66044 0.29399 0.60161 0.0
O853 O 0.7223 0.28943 0.61567 0.0
O854 O 0.71824 0.33578 0.57202 0.0
O855 O 0.7736 0.29673 0.57444 0.0
C856 C 0.76951 0.13304 0.63714 0.0
C857 C 0.78045 0.15132 0.65892 0.0
H858 H 0.79941 0.19743 0.69789 0.0
H859 H 0.80711 0.27209 0.69742 0.0
H860 H 0.73765 0.155 0.5579 0.0
H861 H 0.74656 0.10895 0.59246 0.0
H862 H 0.76433 0.10072 0.63653 0.0
H863 H 0.78351 0.13278 0.67474 0.0
Mn864 Mn 0.09098 0.44705 0.35653 0.0
Mn865 Mn 0.0282 0.52744 0.35785 0.0
C866 C 0.0215 0.43766 0.35957 0.0
C867 C 0.13077 0.39809 0.3755 0.0
C868 C 0.06884 0.49765 0.3126 0.0
O869 O 0.12924 0.49378 0.36519 0.0
O870 O 0.08339 0.54407 0.36783 0.0
C871 C 0.02745 0.5433 0.40978 0.0
N872 N 1.00714 0.53466 0.38928 0.0
C873 C 0.94332 0.53457 0.40987 0.0
C874 C 0.96353 0.5437 0.43117 0.0
C875 C 1.00578 0.54803 0.43111 0.0
C876 C 0.96647 0.53057 0.38911 0.0
H877 H 0.05994 0.54647 0.40984 0.0
C878 C 0.11958 0.53046 0.36981 0.0
O879 O 0.13639 0.40775 0.35332 0.0
O880 O 0.10356 0.41848 0.38702 0.0
N881 N 0.9738 0.51468 0.34894 0.0
C882 C 0.95927 0.50306 0.32727 0.0
C883 C 0.91769 0.4959 0.3245 0.0
C884 C 0.89151 0.50087 0.34399 0.0
C885 C 0.90714 0.51301 0.36609 0.0
C886 C 0.9488 0.52002 0.36774 0.0
H887 H 0.97927 0.49899 0.31226 0.0
O888 O 0.0445 0.40913 0.35137 0.0
O889 O 0.03983 0.47087 0.36555 0.0
O890 O 0.0864 0.46721 0.32198 0.0
O891 O 0.04737 0.52258 0.32451 0.0
C892 C 0.88315 0.5176 0.38666 0.0
C893 C 0.90123 0.52838 0.40853 0.0
H894 H 0.94697 0.54706 0.4477 0.0
H895 H 0.02162 0.55486 0.4475 0.0
H896 H 0.90587 0.4864 0.30741 0.0
H897 H 0.85951 0.49495 0.34184 0.0
H898 H 0.85085 0.51235 0.38593 0.0
H899 H 0.88254 0.53126 0.42429 0.0
Mn900 Mn 0.32094 0.34198 0.10645 0.0
Mn901 Mn 0.24047 0.2793 0.1078 0.0
C902 C 0.33024 0.27254 0.10979 0.0
C903 C 0.36981 0.38196 0.12533 0.0
C904 C 0.27079 0.31913 0.06244 0.0
O905 O 0.27424 0.38042 0.11482 0.0
O906 O 0.22377 0.33475 0.11722 0.0
C907 C 0.22399 0.27986 0.15967 0.0
N908 N 0.23282 0.25903 0.13939 0.0
C909 C 0.23252 0.19572 0.16054 0.0
C910 C 0.22318 0.21648 0.18162 0.0
C911 C 0.21895 0.25873 0.18117 0.0
C912 C 0.23683 0.21836 0.13959 0.0
H913 H 0.22088 0.31235 0.15944 0.0
C914 C 0.23741 0.37094 0.11913 0.0
O915 O 0.3603 0.38732 0.1031 0.0
O916 O 0.34934 0.3549 0.13693 0.0
N917 N 0.25317 0.22466 0.09942 0.0
C918 C 0.26492 0.20955 0.07792 0.0
C919 C 0.27195 0.16789 0.07554 0.0
C920 C 0.26671 0.1422 0.09524 0.0
C921 C 0.25442 0.15842 0.11715 0.0
C922 C 0.24755 0.20014 0.11842 0.0
H923 H 0.26919 0.22918 0.06275 0.0
O924 O 0.35884 0.29544 0.10156 0.0
O925 O 0.29699 0.29095 0.11564 0.0
O926 O 0.301 0.33701 0.07186 0.0
O927 O 0.24582 0.29768 0.07434 0.0
C928 C 0.24953 0.13494 0.13791 0.0
C929 C 0.23858 0.15358 0.15959 0.0
H930 H 0.21958 0.20033 0.19828 0.0
H931 H 0.21195 0.27498 0.1974 0.0
H932 H 0.28156 0.15562 0.05858 0.0
H933 H 0.27253 0.11013 0.09338 0.0
H934 H 0.25467 0.10261 0.13749 0.0
H935 H 0.23546 0.13529 0.1755 0.0
Mn936 Mn 0.42792 0.57095 0.85656 0.0
Mn937 Mn 0.49058 0.49045 0.85791 0.0
C938 C 0.49736 0.58022 0.8599 0.0
C939 C 0.38796 0.61983 0.87543 0.0
C940 C 0.45077 0.52082 0.81255 0.0
O941 O 0.38945 0.52425 0.86492 0.0
O942 O 0.43511 0.47376 0.86732 0.0
C943 C 0.48998 0.47393 0.90978 0.0
N944 N 0.51082 0.48277 0.8895 0.0
C945 C 0.57411 0.48245 0.91066 0.0
C946 C 0.55334 0.4731 0.93174 0.0
C947 C 0.51109 0.46887 0.93129 0.0
C948 C 0.5515 0.48678 0.88971 0.0
H949 H 0.45748 0.47082 0.90954 0.0
C950 C 0.39893 0.48741 0.86923 0.0
O951 O 0.38261 0.61032 0.8532 0.0
O952 O 0.415 0.59934 0.88704 0.0
N953 N 0.54522 0.50315 0.84954 0.0
C954 C 0.56035 0.51491 0.82804 0.0
C955 C 0.60202 0.52193 0.82566 0.0
C956 C 0.62769 0.51668 0.84537 0.0
C957 C 0.61145 0.50438 0.86728 0.0
C958 C 0.56973 0.49752 0.86854 0.0
H959 H 0.54073 0.51919 0.81287 0.0
O960 O 0.47448 0.60883 0.85167 0.0
O961 O 0.47894 0.54697 0.86575 0.0
O962 O 0.4329 0.55102 0.82198 0.0
O963 O 0.47221 0.49584 0.82444 0.0
C964 C 0.63491 0.49947 0.88805 0.0
C965 C 0.61625 0.48851 0.90972 0.0
H966 H 0.56947 0.46948 0.9484 0.0
H967 H 0.49482 0.46186 0.9475 0.0
H968 H 0.6143 0.53155 0.80871 0.0
H969 H 0.65976 0.52249 0.84352 0.0
H970 H 0.66724 0.5046 0.88762 0.0
H971 H 0.63453 0.48537 0.92563 0.0
Mn972 Mn 0.19831 0.67797 0.60679 0.0
Mn973 Mn 0.27881 0.74063 0.60806 0.0
C974 C 0.18905 0.74742 0.61007 0.0
C975 C 0.1494 0.63804 0.62568 0.0
C976 C 0.2484 0.70076 0.56275 0.0
O977 O 0.24501 0.63952 0.61519 0.0
O978 O 0.2955 0.68518 0.61749 0.0
C979 C 0.29538 0.74006 0.65992 0.0
N980 N 0.28652 0.7609 0.63964 0.0
C981 C 0.28685 0.8242 0.66077 0.0
C982 C 0.29621 0.80343 0.68185 0.0
C983 C 0.30045 0.76118 0.68142 0.0
C984 C 0.2825 0.80157 0.63984 0.0
H985 H 0.2985 0.70757 0.65969 0.0
C986 C 0.28186 0.649 0.61945 0.0
O987 O 0.15895 0.63266 0.60346 0.0
O988 O 0.16989 0.66509 0.63728 0.0
N989 N 0.26611 0.79528 0.59967 0.0
C990 C 0.25434 0.8104 0.57817 0.0
C991 C 0.24732 0.85206 0.57578 0.0
C992 C 0.25257 0.87774 0.59547 0.0
C993 C 0.26489 0.86152 0.61739 0.0
C994 C 0.27175 0.8198 0.61866 0.0
H995 H 0.25005 0.79078 0.563 0.0
O996 O 0.16043 0.72452 0.60187 0.0
O997 O 0.22229 0.72901 0.61594 0.0
O998 O 0.21824 0.68288 0.57221 0.0
O999 O 0.27339 0.72225 0.5746 0.0
C1000 C 0.2698 0.88498 0.63814 0.0
C1001 C 0.28078 0.86634 0.65982 0.0
H1002 H 0.29984 0.81957 0.69851 0.0
H1003 H 0.30747 0.74492 0.69764 0.0
H1004 H 0.23769 0.86434 0.55882 0.0
H1005 H 0.24676 0.90981 0.59361 0.0
H1006 H 0.26467 0.91732 0.63771 0.0
H1007 H 0.28392 0.88462 0.67572 0.0
Mn1008 Mn 0.09098 0.57201 0.16637 0.0
Mn1009 Mn 0.02822 0.49162 0.16496 0.0
C1010 C 0.02151 0.58141 0.1633 0.0
C1011 C 0.13082 0.62099 0.14748 0.0
C1012 C 0.06881 0.52132 0.21025 0.0
O1013 O 0.12926 0.52531 0.15769 0.0
O1014 O 0.08342 0.47501 0.155 0.0
C1015 C 0.02753 0.47588 0.11302 0.0
N1016 N 1.0072 0.48446 0.13351 0.0
C1017 C 0.9434 0.4846 0.11288 0.0
C1018 C 0.96364 0.47552 0.09159 0.0
C1019 C 1.00589 0.4712 0.09167 0.0
C1020 C 0.96653 0.48856 0.13366 0.0
H1021 H 0.06002 0.4727 0.11297 0.0
C1022 C 0.11961 0.48863 0.15305 0.0
O1023 O 0.13641 0.61128 0.16965 0.0
O1024 O 0.10361 0.60065 0.13592 0.0
N1025 N 0.97381 0.50436 0.17385 0.0
C1026 C 0.95924 0.51593 0.19551 0.0
C1027 C 0.91766 0.52307 0.19826 0.0
C1028 C 0.8915 0.51815 0.17875 0.0
C1029 C 0.90717 0.50606 0.15666 0.0
C1030 C 0.94883 0.49906 0.15503 0.0
H1031 H 0.97923 0.51997 0.21054 0.0
O1032 O 0.04451 0.60992 0.17154 0.0
O1033 O 0.03984 0.54821 0.15731 0.0
O1034 O 0.08637 0.55177 0.2009 0.0
O1035 O 0.04735 0.49641 0.19832 0.0
C1036 C 0.88321 0.50151 0.13607 0.0
C1037 C 0.90131 0.49078 0.1142 0.0
H1038 H 0.9471 0.4722 0.07504 0.0
H1039 H 0.02175 0.4644 0.07528 0.0
H1040 H 0.90582 0.53254 0.21535 0.0
H1041 H 0.8595 0.52406 0.18089 0.0
H1042 H 0.8509 0.50676 0.13678 0.0
H1043 H 0.88264 0.48793 0.09843 0.0
Mn1044 Mn 0.19764 0.34081 0.91604 0.0
Mn1045 Mn 0.27807 0.27809 0.91478 0.0
C1046 C 0.18829 0.27134 0.91299 0.0
C1047 C 0.14868 0.38062 0.89711 0.0
C1048 C 0.2481 0.31859 0.96001 0.0
O1049 O 0.24435 0.37912 0.90742 0.0
O1050 O 0.2947 0.33334 0.9049 0.0
C1051 C 0.2941 0.2776 0.86286 0.0
N1052 N 0.28542 0.25719 0.88332 0.0
C1053 C 0.28543 0.19346 0.86262 0.0
C1054 C 0.29461 0.21379 0.84137 0.0
C1055 C 0.29891 0.25604 0.84149 0.0
C1056 C 0.28134 0.21652 0.88342 0.0
H1057 H 0.29726 0.31009 0.86285 0.0
C1058 C 0.28107 0.36952 0.90289 0.0
O1059 O 0.15835 0.3862 0.91929 0.0
O1060 O 0.16906 0.35344 0.88557 0.0
N1061 N 0.26534 0.22363 0.92358 0.0
C1062 C 0.25369 0.20898 0.94522 0.0
C1063 C 0.24657 0.16738 0.94792 0.0
C1064 C 0.25161 0.1413 0.92839 0.0
C1065 C 0.26378 0.15706 0.90633 0.0
C1066 C 0.27075 0.19873 0.90475 0.0
H1067 H 0.24956 0.2289 0.96026 0.0
O1068 O 0.15974 0.29433 0.92118 0.0
O1069 O 0.22151 0.28968 0.90702 0.0
O1070 O 0.21775 0.33621 0.95059 0.0
O1071 O 0.27307 0.2971 0.94815 0.0
C1072 C 0.26845 0.13317 0.88572 0.0
C1073 C 0.27927 0.15136 0.86389 0.0
H1074 H 0.29803 0.19731 0.82481 0.0
H1075 H 0.3058 0.27196 0.82514 0.0
H1076 H 0.23705 0.15546 0.96498 0.0
H1077 H 0.24572 0.10928 0.93049 0.0
H1078 H 0.26323 0.10086 0.88639 0.0
H1079 H 0.28222 0.13276 0.8481 0.0
Mn1080 Mn 0.42865 0.44777 0.66616 0.0
Mn1081 Mn 0.49133 0.52823 0.66484 0.0
C1082 C 0.49811 0.43846 0.66304 0.0
C1083 C 0.38882 0.3988 0.64727 0.0
C1084 C 0.451 0.49819 0.71012 0.0
O1085 O 0.39029 0.49446 0.65759 0.0
O1086 O 0.43603 0.54485 0.65504 0.0
C1087 C 0.49162 0.54433 0.61293 0.0
N1088 N 0.51211 0.53563 0.63335 0.0
C1089 C 0.57576 0.5357 0.61257 0.0
C1090 C 0.55535 0.5449 0.59134 0.0
C1091 C 0.5131 0.54918 0.59153 0.0
C1092 C 0.55279 0.53158 0.63339 0.0
H1093 H 0.45913 0.54747 0.61296 0.0
C1094 C 0.39986 0.5312 0.65306 0.0
O1095 O 0.38329 0.40844 0.66946 0.0
O1096 O 0.41595 0.41922 0.6357 0.0
N1097 N 0.54582 0.51552 0.67357 0.0
C1098 C 0.56057 0.50386 0.69518 0.0
C1099 C 0.60218 0.49677 0.69782 0.0
C1100 C 0.62819 0.50184 0.67826 0.0
C1101 C 0.61234 0.51403 0.65622 0.0
C1102 C 0.57065 0.52097 0.6547 0.0
H1103 H 0.5407 0.49971 0.71025 0.0
O1104 O 0.47516 0.40989 0.67125 0.0
O1105 O 0.47974 0.47167 0.65709 0.0
O1106 O 0.43335 0.46785 0.70071 0.0
O1107 O 0.47244 0.52317 0.69823 0.0
C1108 C 0.63615 0.51873 0.63558 0.0
C1109 C 0.61787 0.52957 0.61377 0.0
H1110 H 0.57177 0.54835 0.57476 0.0
H1111 H 0.49711 0.55607 0.57519 0.0
H1112 H 0.61416 0.48723 0.71487 0.0
H1113 H 0.66021 0.49597 0.68031 0.0
H1114 H 0.66846 0.51354 0.63621 0.0
H1115 H 0.63641 0.53255 0.59796 0.0
Mn1116 Mn 0.32079 0.67741 0.41629 0.0
Mn1117 Mn 0.24026 0.74002 0.41487 0.0
C1118 C 0.33003 0.74685 0.41292 0.0
C1119 C 0.36971 0.63742 0.39749 0.0
C1120 C 0.27064 0.70039 0.46028 0.0
O1121 O 0.27414 0.6389 0.40794 0.0
O1122 O 0.22361 0.6845 0.40554 0.0
C1123 C 0.22378 0.73917 0.363 0.0
N1124 N 0.23258 0.76012 0.38324 0.0
C1125 C 0.23222 0.82332 0.36198 0.0
C1126 C 0.22291 0.80244 0.34094 0.0
C1127 C 0.21872 0.76018 0.34146 0.0
C1128 C 0.23655 0.80079 0.38297 0.0
H1129 H 0.2207 0.70668 0.36329 0.0
C1130 C 0.23729 0.64833 0.40365 0.0
O1131 O 0.36017 0.63212 0.41971 0.0
O1132 O 0.34923 0.66444 0.38585 0.0
N1133 N 0.2529 0.79472 0.42315 0.0
C1134 C 0.26461 0.80995 0.44463 0.0
C1135 C 0.27159 0.85164 0.44694 0.0
C1136 C 0.26633 0.87722 0.4272 0.0
C1137 C 0.25406 0.86087 0.4053 0.0
C1138 C 0.24725 0.81914 0.40411 0.0
H1139 H 0.2689 0.79041 0.45984 0.0
O1140 O 0.35864 0.72399 0.42117 0.0
O1141 O 0.2968 0.72841 0.40705 0.0
O1142 O 0.30081 0.68246 0.45086 0.0
O1143 O 0.24566 0.72181 0.44837 0.0
C1144 C 0.24915 0.88423 0.3845 0.0
C1145 C 0.23823 0.86547 0.36286 0.0
H1146 H 0.21929 0.81849 0.32425 0.0
H1147 H 0.21174 0.74384 0.32526 0.0
H1148 H 0.28117 0.86401 0.46388 0.0
H1149 H 0.2721 0.90931 0.429 0.0
H1150 H 0.25424 0.91657 0.38487 0.0
H1151 H 0.23509 0.88367 0.34691 0.0
C1152 C 0.44636 0.9706 0.27089 0.0
C1153 C 0.44708 1.00392 0.28643 0.0
H1154 H 0.44753 0.95007 0.2346 0.0
C1155 C 0.44699 0.04309 0.27667 0.0
H1156 H 0.44672 0.94007 0.27788 0.0
C1157 C 0.44638 0.04882 0.25192 0.0
C1158 C 0.44711 0.0155 0.23638 0.0
H1159 H 0.44751 0.06934 0.28821 0.0
H1160 H 0.44675 0.07935 0.24493 0.0
C1161 C 0.447 0.97633 0.24614 0.0
C1162 C 0.29855 0.19653 0.52128 0.0
C1163 C 0.26509 0.19726 0.53672 0.0
H1164 H 0.3194 0.19762 0.48506 0.0
C1165 C 0.22601 0.19719 0.52684 0.0
H1166 H 0.32902 0.19688 0.52836 0.0
C1167 C 0.2205 0.19654 0.50207 0.0
C1168 C 0.25397 0.19721 0.48664 0.0
H1169 H 0.19965 0.19771 0.5383 0.0
H1170 H 0.19004 0.19688 0.49499 0.0
C1171 C 0.29305 0.19714 0.49651 0.0
C1172 C 0.07161 0.04818 0.77126 0.0
C1173 C 0.07082 0.01471 0.78669 0.0
H1174 H 0.07065 0.06908 0.73503 0.0
C1175 C 0.07091 0.97563 0.77681 0.0
H1176 H 0.07125 0.07864 0.77834 0.0
C1177 C 0.07165 0.97016 0.75204 0.0
C1178 C 0.07104 1.00364 0.73661 0.0
H1179 H 0.07035 0.94927 0.78826 0.0
H1180 H 0.07133 0.9397 0.74495 0.0
C1181 C 0.07109 0.04271 0.74649 0.0
C1182 C 0.29836 0.82177 1.00172 0.0
C1183 C 0.26482 0.82093 0.98634 0.0
H1184 H 0.3194 0.82097 0.03792 0.0
C1185 C 0.22579 0.82105 0.99627 0.0
H1186 H 0.32879 0.82141 0.99459 0.0
C1187 C 0.22041 0.82189 0.02105 0.0
C1188 C 0.25395 0.82136 0.03643 0.0
H1189 H 0.19938 0.82045 0.98486 0.0
H1190 H 0.18998 0.8216 0.02818 0.0
C1191 C 0.29298 0.82135 0.0265 0.0
C1192 C 0.57214 0.97047 0.77124 0.0
C1193 C 0.57134 1.00399 0.78663 0.0
H1194 H 0.57117 0.94948 0.73505 0.0
C1195 C 0.57142 0.04304 0.7767 0.0
H1196 H 0.57179 0.94003 0.77837 0.0
C1197 C 0.57215 0.04844 0.75192 0.0
C1198 C 0.57154 0.01492 0.73654 0.0
H1199 H 0.57084 0.06943 0.78812 0.0
H1200 H 0.5718 0.07888 0.7448 0.0
C1201 C 0.57161 0.97588 0.74647 0.0
C1202 C 0.79313 0.82134 0.49616 0.0
C1203 C 0.75404 0.82122 0.4863 0.0
H1204 H 0.82912 0.82171 0.528 0.0
C1205 C 0.72059 0.822 0.50174 0.0
H1206 H 0.81947 0.82077 0.4847 0.0
C1207 C 0.72611 0.82146 0.52651 0.0
C1208 C 0.7652 0.8214 0.53637 0.0
H1209 H 0.69012 0.82162 0.49467 0.0
H1210 H 0.69977 0.82099 0.53797 0.0
C1211 C 0.79865 0.82206 0.52093 0.0
C1212 C 0.94836 0.97593 0.27643 0.0
C1213 C 0.94842 0.01487 0.28648 0.0
H1214 H 0.94806 0.9404 0.24442 0.0
C1215 C 0.94777 0.04855 0.2712 0.0
H1216 H 0.94883 0.94942 0.28777 0.0
C1217 C 0.94842 0.04339 0.24641 0.0
C1218 C 0.94845 1.00444 0.23636 0.0
H1219 H 0.9481 0.07891 0.27842 0.0
H1220 H 0.94893 0.0699 0.23507 0.0
C1221 C 0.94775 0.97077 0.25164 0.0
C1222 C 0.72578 0.19822 0.99652 0.0
C1223 C 0.76481 0.19826 0.98658 0.0
H1224 H 0.68997 0.1981 0.02842 0.0
C1225 C 0.79835 0.19765 1.00196 0.0
H1226 H 0.69937 0.19865 0.98511 0.0
C1227 C 0.79298 0.19841 0.02674 0.0
C1228 C 0.75394 0.19852 0.03668 0.0
H1229 H 0.82878 0.19797 0.99483 0.0
H1230 H 0.81939 0.19899 0.03816 0.0
C1231 C 0.72041 0.19772 0.0213 0.0
C1232 C 0.9476 0.47592 0.74631 0.0
C1233 C 0.94772 0.51497 0.73638 0.0
H1234 H 0.94711 0.44008 0.7782 0.0
C1235 C 0.94687 0.54849 0.75176 0.0
H1236 H 0.94821 0.44952 0.73489 0.0
C1237 C 0.94731 0.54308 0.77654 0.0
C1238 C 0.94734 0.50404 0.78647 0.0
H1239 H 0.94724 0.57893 0.74464 0.0
H1240 H 0.94772 0.56948 0.78796 0.0
C1241 C 0.94678 0.47052 0.77108 0.0
C1242 C 0.7257 0.69807 0.02682 0.0
C1243 C 0.76478 0.6982 0.0367 0.0
H1244 H 0.68973 0.6976 0.99497 0.0
C1245 C 0.79824 0.69738 0.02126 0.0
H1246 H 0.69934 0.69866 0.03828 0.0
C1247 C 0.79274 0.69785 0.99649 0.0
C1248 C 0.75366 0.69788 0.98662 0.0
H1249 H 0.82871 0.69777 0.02834 0.0
H1250 H 0.8191 0.69828 0.98504 0.0
C1251 C 0.72019 0.69728 1.00205 0.0
C1252 C 0.57121 0.54854 0.27132 0.0
C1253 C 0.57054 0.51486 0.2866 0.0
H1254 H 0.57007 0.56989 0.23519 0.0
C1255 C 0.57057 0.47592 0.27655 0.0
H1256 H 0.57089 0.57891 0.27854 0.0
C1257 C 0.57119 0.47076 0.25176 0.0
C1258 C 0.5705 0.50444 0.23648 0.0
H1259 H 0.57009 0.44941 0.28789 0.0
H1260 H 0.57086 0.44039 0.24454 0.0
C1261 C 0.57056 0.54338 0.24652 0.0
C1262 C 0.79328 0.32108 0.52647 0.0
C1263 C 0.75424 0.32101 0.5364 0.0
H1264 H 0.82911 0.32128 0.49457 0.0
C1265 C 0.72071 0.32166 0.52101 0.0
H1266 H 0.81969 0.32061 0.53789 0.0
C1267 C 0.7261 0.32097 0.49623 0.0
C1268 C 0.76514 0.32088 0.48631 0.0
H1269 H 0.69028 0.32131 0.52813 0.0
H1270 H 0.6997 0.32041 0.48481 0.0
C1271 C 0.79867 0.32165 0.50169 0.0
C1272 C 0.07201 0.54285 0.27669 0.0
C1273 C 0.07187 0.50368 0.28645 0.0
H1274 H 0.07229 0.57911 0.24496 0.0
C1275 C 0.07253 0.47035 0.27091 0.0
H1276 H 0.07153 0.5691 0.28823 0.0
C1277 C 0.07189 0.47608 0.24616 0.0
C1278 C 0.07183 0.51526 0.2364 0.0
H1279 H 0.07213 0.43983 0.2779 0.0
H1280 H 0.07132 0.44983 0.23462 0.0
C1281 C 0.07262 0.54857 0.25194 0.0
C1282 C 0.22596 0.32192 0.02638 0.0
C1283 C 0.26503 0.32187 0.03626 0.0
H1284 H 0.19 0.32206 0.99453 0.0
C1285 C 0.2985 0.32245 0.02083 0.0
H1286 H 0.19959 0.32151 0.03783 0.0
C1287 C 0.29301 0.32169 0.99606 0.0
C1288 C 0.25393 0.3216 0.98618 0.0
H1289 H 0.32896 0.32212 0.02792 0.0
H1290 H 0.31937 0.32109 0.98461 0.0
C1291 C 0.22047 0.32242 1.00161 0.0
C1292 C 0.44733 0.54855 0.77094 0.0
C1293 C 0.44799 0.51507 0.78637 0.0
H1294 H 0.44854 0.56944 0.73472 0.0
C1295 C 0.44793 0.476 0.77649 0.0
H1296 H 0.44766 0.579 0.77803 0.0
C1297 C 0.44735 0.47052 0.75172 0.0
C1298 C 0.44809 0.504 0.73629 0.0
H1299 H 0.4484 0.44963 0.78794 0.0
H1300 H 0.4477 0.44006 0.74464 0.0
C1301 C 0.44801 0.54307 0.74617 0.0
C1302 C 0.29311 0.69784 0.52663 0.0
C1303 C 0.25408 0.69793 0.53656 0.0
H1304 H 0.32892 0.69741 0.49472 0.0
C1305 C 0.22054 0.69718 0.52118 0.0
H1306 H 0.31952 0.69837 0.53804 0.0
C1307 C 0.22592 0.69771 0.4964 0.0
C1308 C 0.26495 0.69772 0.48647 0.0
H1309 H 0.19011 0.69753 0.52831 0.0
H1310 H 0.19951 0.69815 0.48499 0.0
C1311 C 0.29849 0.6971 0.50185 0.0
C1312 C 0.32735 0.97079 0.14104 0.0
C1313 C 0.36814 0.95975 0.14436 0.0
H1314 H 0.26778 0.95165 0.13042 0.0
C1315 C 0.37967 0.91988 0.13889 0.0
H1316 H 0.31736 1.00124 0.14496 0.0
C1317 C 0.35164 0.89186 0.13058 0.0
C1318 C 0.31083 0.90245 0.12736 0.0
H1319 H 0.41066 0.90994 0.14101 0.0
H1320 H 0.36229 0.86159 0.12675 0.0
C1321 C 0.29896 0.9424 0.13262 0.0
C1322 C 0.35142 0.12751 0.39215 0.0
C1323 C 0.31067 0.11682 0.39551 0.0
H1324 H 0.41039 0.10953 0.38158 0.0
C1325 C 0.29884 0.07683 0.39033 0.0
H1326 H 0.36203 0.15782 0.39591 0.0
C1327 C 0.32723 0.04848 0.38186 0.0
C1328 C 0.36797 0.05961 0.37842 0.0
H1329 H 0.26771 0.06751 0.39263 0.0
H1330 H 0.31728 0.01799 0.37801 0.0
C1331 C 0.37944 0.09952 0.38379 0.0
C1332 C 0.14092 0.10116 0.64209 0.0
C1333 C 0.15163 0.06043 0.64553 0.0
H1334 H 0.15889 0.16014 0.63151 0.0
C1335 C 0.19168 0.04866 0.64047 0.0
H1336 H 0.11056 0.11174 0.64575 0.0
C1337 C 0.22006 0.07707 0.63206 0.0
C1338 C 0.20891 0.11779 0.62856 0.0
H1339 H 0.20103 0.01754 0.64283 0.0
H1340 H 0.25061 0.06716 0.62831 0.0
C1341 C 0.16893 0.12921 0.63379 0.0
C1342 C 0.13906 0.91834 0.88349 0.0
C1343 C 0.15041 0.95839 0.87838 0.0
H1344 H 0.15663 0.85991 0.8953 0.0
C1345 C 0.1911 0.9696 0.88192 0.0
H1346 H 0.10816 0.90826 0.88116 0.0
C1347 C 0.21956 0.94121 0.89028 0.0
C1348 C 0.20785 0.90109 0.89524 0.0
H1349 H 0.20096 1.00019 0.87827 0.0
H1350 H 0.25064 0.95061 0.89269 0.0
C1351 C 0.16715 0.89032 0.89173 0.0
C1352 C 0.66714 0.12846 0.89198 0.0
C1353 C 0.70785 0.11774 0.89548 0.0
H1354 H 0.6082 0.11047 0.88134 0.0
C1355 C 0.71963 0.07767 0.89046 0.0
H1356 H 0.65656 0.15883 0.89559 0.0
C1357 C 0.69124 0.04928 0.88205 0.0
C1358 C 0.65054 0.06043 0.87849 0.0
H1359 H 0.75073 0.06831 0.89288 0.0
H1360 H 0.70115 0.01872 0.87835 0.0
C1361 C 0.63911 0.10043 0.88367 0.0
C1362 C 0.64092 0.91739 0.64169 0.0
C1363 C 0.65171 0.95806 0.64529 0.0
H1364 H 0.65881 0.85848 0.63096 0.0
C1365 C 0.6918 0.9698 0.6403 0.0
H1366 H 0.61052 0.90684 0.64527 0.0
C1367 C 0.72016 0.9414 0.63185 0.0
C1368 C 0.70894 0.90075 0.62822 0.0
H1369 H 0.70121 1.00087 0.64278 0.0
H1370 H 0.75074 0.95129 0.62819 0.0
C1371 C 0.66891 0.88936 0.63335 0.0
C1372 C 0.85009 0.88857 0.38882 0.0
C1373 C 0.81024 0.9001 0.3943 0.0
H1374 H 0.90839 0.90596 0.37669 0.0
C1375 C 0.79921 0.9409 0.39103 0.0
H1376 H 0.86002 0.85756 0.3909 0.0
C1377 C 0.82762 0.96931 0.38265 0.0
C1378 C 0.86756 0.95744 0.37737 0.0
H1379 H 0.76877 0.9509 0.39497 0.0
H1380 H 0.81838 1.0005 0.38049 0.0
C1381 C 0.87813 0.91661 0.38054 0.0
C1382 C 0.79933 0.07854 0.13194 0.0
C1383 C 0.81046 0.11927 0.12851 0.0
H1384 H 0.81841 0.01897 0.14262 0.0
C1385 C 0.85043 0.1307 0.13377 0.0
H1386 H 0.7688 0.06861 0.12818 0.0
C1387 C 0.87847 0.10263 0.14203 0.0
C1388 C 0.86778 0.06188 0.14539 0.0
H1389 H 0.86044 0.16165 0.13154 0.0
H1390 H 0.90882 0.11321 0.1457 0.0
C1391 C 0.82774 0.0501 0.14031 0.0
C1392 C 0.85106 0.38947 0.63288 0.0
C1393 C 0.81089 0.40072 0.62802 0.0
H1394 H 0.90955 0.40708 0.64455 0.0
C1395 C 0.79956 0.44129 0.63184 0.0
H1396 H 0.86125 0.35866 0.63031 0.0
C1397 C 0.82792 0.46973 0.64025 0.0
C1398 C 0.86813 0.45811 0.645 0.0
H1399 H 0.76887 0.45107 0.62839 0.0
H1400 H 0.8184 0.50072 0.64291 0.0
C1401 C 0.87905 0.41753 0.64118 0.0
C1402 C 0.87892 0.60062 0.88317 0.0
C1403 C 0.8676 0.56051 0.87822 0.0
H1404 H 0.8614 0.65906 0.89497 0.0
C1405 C 0.827 0.54922 0.882 0.0
H1406 H 0.90976 0.61077 0.88065 0.0
C1407 C 0.79861 0.57758 0.89046 0.0
C1408 C 0.81029 0.61774 0.89529 0.0
H1409 H 0.81717 0.51858 0.87847 0.0
H1410 H 0.76759 0.5681 0.89307 0.0
C1411 C 0.8509 0.62861 0.89153 0.0
C1412 C 0.71965 0.57846 0.13197 0.0
C1413 C 0.7086 0.61925 0.12866 0.0
H1414 H 0.70051 0.51886 0.14254 0.0
C1415 C 0.66872 0.63075 0.13409 0.0
H1416 H 0.75012 0.56848 0.12807 0.0
C1417 C 0.64068 0.6027 0.14237 0.0
C1418 C 0.65128 0.56189 0.14558 0.0
H1419 H 0.65877 0.66175 0.13198 0.0
H1420 H 0.6104 0.61333 0.14617 0.0
C1421 C 0.69125 0.55004 0.14035 0.0
C1422 C 0.71969 0.44082 0.39103 0.0
C1423 C 0.70857 0.40009 0.39447 0.0
H1424 H 0.70061 0.50038 0.38034 0.0
C1425 C 0.66859 0.38865 0.38922 0.0
H1426 H 0.75022 0.45075 0.39479 0.0
C1427 C 0.64055 0.41671 0.38096 0.0
C1428 C 0.65123 0.45747 0.37758 0.0
H1429 H 0.65858 0.3577 0.39145 0.0
H1430 H 0.6102 0.40613 0.37729 0.0
C1431 C 0.69128 0.46925 0.38266 0.0
C1432 C 0.13934 0.59938 0.38387 0.0
C1433 C 0.15086 0.5595 0.37846 0.0
H1434 H 0.1567 0.65769 0.39598 0.0
C1435 C 0.19163 0.54844 0.38183 0.0
H1436 H 0.10836 0.60934 0.3817 0.0
C1437 C 0.22001 0.57683 0.39026 0.0
C1438 C 0.20814 0.6168 0.39548 0.0
H1439 H 0.20162 0.51797 0.37795 0.0
H1440 H 0.25118 0.56757 0.39251 0.0
C1441 C 0.16735 0.62741 0.39219 0.0
C1442 C 0.22007 0.4424 0.13255 0.0
C1443 C 0.20824 0.40242 0.12733 0.0
H1444 H 0.20162 0.50123 0.14488 0.0
C1445 C 0.16747 0.39175 0.13064 0.0
H1446 H 0.25122 0.45171 0.13029 0.0
C1447 C 0.13943 0.41974 0.13898 0.0
C1448 C 0.15092 0.45963 0.14439 0.0
H1449 H 0.15685 0.36146 0.12684 0.0
H1450 H 0.10847 0.40974 0.14116 0.0
C1451 C 0.19166 0.47074 0.141 0.0
C1452 C 0.37813 0.41749 0.88081 0.0
C1453 C 0.36743 0.45822 0.8774 0.0
H1454 H 0.36013 0.3585 0.89136 0.0
C1455 C 0.32737 0.47 0.88245 0.0
H1456 H 0.40849 0.40691 0.87716 0.0
C1457 C 0.29898 0.44157 0.89084 0.0
C1458 C 0.31012 0.40085 0.89432 0.0
H1459 H 0.31803 0.50112 0.8801 0.0
H1460 H 0.26844 0.45148 0.89458 0.0
C1461 C 0.35011 0.38943 0.88909 0.0
C1462 C 0.32779 0.54906 0.64103 0.0
C1463 C 0.36849 0.56024 0.64453 0.0
H1464 H 0.26823 0.56805 0.63028 0.0
C1465 C 0.37986 0.60026 0.63935 0.0
H1466 H 0.31791 0.51848 0.64474 0.0
C1467 C 0.35178 0.62827 0.63109 0.0
C1468 C 0.31106 0.61752 0.62763 0.0
H1469 H 0.41078 0.61033 0.64164 0.0
H1470 H 0.36232 0.65866 0.62746 0.0
C1471 C 0.29934 0.57743 0.63265 0.0
C1472 C 0.37545 0.16756 0.11269 0.0
C1473 C 0.3684 0.15706 0.13665 0.0
H1474 H 0.3685 0.21252 0.0853 0.0
C1475 C 0.34605 0.18372 0.15103 0.0
H1476 H 0.39283 0.14785 0.10118 0.0
C1477 C 0.33257 0.22072 0.14196 0.0
C1478 C 0.3401 0.23139 0.11817 0.0
H1479 H 0.34046 0.17687 0.16962 0.0
H1480 H 0.31737 0.24162 0.15382 0.0
C1481 C 0.36166 0.20453 0.10359 0.0
C1482 C 0.08662 0.09501 0.40128 0.0
C1483 C 0.11322 0.11742 0.38688 0.0
H1484 H 0.02874 0.06628 0.40411 0.0
C1485 C 0.10268 0.12448 0.36293 0.0
H1486 H 0.09351 0.0894 0.41986 0.0
C1487 C 0.06569 0.11068 0.35386 0.0
C1488 C 0.03887 0.0891 0.36846 0.0
H1489 H 0.12235 0.14189 0.35141 0.0
H1490 H 0.05765 0.11756 0.33559 0.0
C1491 C 0.04961 0.08152 0.39224 0.0
C1492 C 0.1439 0.85242 0.6129 0.0
C1493 C 0.15092 0.86292 0.63686 0.0
H1494 H 0.15086 0.80745 0.58554 0.0
C1495 C 0.17324 0.83625 0.65127 0.0
H1496 H 0.12654 0.87213 0.60137 0.0
C1497 C 0.18672 0.79925 0.64222 0.0
C1498 C 0.17922 0.78857 0.61843 0.0
H1499 H 0.17881 0.8431 0.66985 0.0
H1500 H 0.20192 0.77835 0.65409 0.0
C1501 C 0.15769 0.81544 0.60382 0.0
C1502 C 0.46914 0.93614 0.89195 0.0
C1503 C 0.47989 0.92866 0.86817 0.0
H1504 H 0.42519 0.92824 0.91953 0.0
C1505 C 0.45308 0.90714 0.85353 0.0
H1506 H 0.48999 0.95131 0.90385 0.0
C1507 C 0.41605 0.89336 0.86257 0.0
C1508 C 0.40547 0.90038 0.88652 0.0
H1509 H 0.46113 0.90034 0.83526 0.0
H1510 H 0.39637 0.87601 0.85102 0.0
C1511 C 0.4321 0.92267 0.90095 0.0
C1512 C 0.3614 0.81486 0.41914 0.0
C1513 C 0.33987 0.788 0.40454 0.0
H1514 H 0.39258 0.87154 0.42157 0.0
C1515 C 0.33238 0.79868 0.38074 0.0
H1516 H 0.36822 0.80687 0.43743 0.0
C1517 C 0.34588 0.83568 0.37169 0.0
C1518 C 0.36821 0.86234 0.38609 0.0
H1519 H 0.31719 0.77778 0.36888 0.0
H1520 H 0.34032 0.84253 0.3531 0.0
C1521 C 0.37522 0.85184 0.41005 0.0
C1522 C 0.43286 0.09576 0.622 0.0
C1523 C 0.40627 0.11812 0.63642 0.0
H1524 H 0.49074 0.06707 0.61912 0.0
C1525 C 0.41687 0.12517 0.66036 0.0
H1526 H 0.42593 0.09016 0.60342 0.0
C1527 C 0.45389 0.11138 0.6694 0.0
C1528 C 0.48068 0.08982 0.65478 0.0
H1529 H 0.39722 0.14257 0.6719 0.0
H1530 H 0.46196 0.11823 0.68767 0.0
C1531 C 0.4699 0.08228 0.63101 0.0
C1532 C 0.14301 0.16636 0.91032 0.0
C1533 C 0.14998 0.15578 0.88637 0.0
H1534 H 0.15007 0.21141 0.93763 0.0
C1535 C 0.17228 0.1824 0.87192 0.0
H1536 H 0.12566 0.14669 0.92188 0.0
C1537 C 0.18579 0.21942 0.88091 0.0
C1538 C 0.17836 0.23017 0.9047 0.0
H1539 H 0.17782 0.17549 0.85334 0.0
H1540 H 0.20096 0.24027 0.86901 0.0
C1541 C 0.15685 0.20337 0.91935 0.0
C1542 C 0.10278 0.89474 0.16003 0.0
C1543 C 0.11335 0.90177 0.13608 0.0
H1544 H 0.05773 0.90169 0.18734 0.0
C1545 C 0.08676 0.92415 0.12165 0.0
H1546 H 0.12243 0.87734 0.17157 0.0
C1547 C 0.04974 0.93766 0.13067 0.0
C1548 C 0.03898 0.93011 0.15445 0.0
H1549 H 0.09367 0.92973 0.10307 0.0
H1550 H 0.02889 0.95288 0.11878 0.0
C1551 C 0.06578 0.90855 0.16907 0.0
C1552 C 0.68597 0.79939 0.88111 0.0
C1553 C 0.67846 0.78866 0.90489 0.0
H1554 H 0.67809 0.84331 0.8535 0.0
C1555 C 0.65691 0.81548 0.9195 0.0
H1556 H 0.70116 0.77852 0.86923 0.0
C1557 C 0.64312 0.85249 0.91044 0.0
C1558 C 0.65017 0.86305 0.88649 0.0
H1559 H 0.65008 0.80745 0.93778 0.0
H1560 H 0.62574 0.87217 0.92197 0.0
C1561 C 0.6725 0.83642 0.87208 0.0
C1562 C 0.96991 0.93616 0.63092 0.0
C1563 C 0.98055 0.92863 0.65472 0.0
H1564 H 0.92609 0.92828 0.60325 0.0
C1565 C 0.95367 0.90708 0.66929 0.0
H1566 H 0.99082 0.95136 0.61907 0.0
C1567 C 0.9167 0.89329 0.66019 0.0
C1568 C 0.90623 0.90034 0.63622 0.0
H1569 H 0.96164 0.90023 0.68758 0.0
H1570 H 0.89698 0.87591 0.6717 0.0
C1571 C 0.93291 0.92269 0.62184 0.0
C1572 C 0.86178 0.20254 0.41938 0.0
C1573 C 0.84025 0.22937 0.40475 0.0
H1574 H 0.89291 0.14584 0.42188 0.0
C1575 C 0.83274 0.21863 0.38097 0.0
H1576 H 0.8686 0.21058 0.43766 0.0
C1577 C 0.84619 0.1816 0.37196 0.0
C1578 C 0.86851 0.15497 0.38639 0.0
H1579 H 0.81755 0.2395 0.36908 0.0
H1580 H 0.84061 0.17472 0.35338 0.0
C1581 C 0.87555 0.16552 0.41034 0.0
C1582 C 0.58635 0.09758 0.12213 0.0
C1583 C 0.61303 0.11982 0.13656 0.0
H1584 H 0.52842 0.069 0.11927 0.0
C1585 C 0.60251 0.12681 0.16052 0.0
H1586 H 0.5932 0.09205 0.10354 0.0
C1587 C 0.5655 0.11302 0.16958 0.0
C1588 C 0.53864 0.09155 0.15496 0.0
H1589 H 0.62224 0.14412 0.17206 0.0
H1590 H 0.55751 0.11978 0.18788 0.0
C1591 C 0.54932 0.08413 0.13115 0.0
C1592 C 0.68676 0.21921 0.64194 0.0
C1593 C 0.67922 0.22989 0.61814 0.0
H1594 H 0.67892 0.17535 0.66958 0.0
C1595 C 0.65768 0.20302 0.60356 0.0
H1596 H 0.70196 0.24011 0.65379 0.0
C1597 C 0.64392 0.16603 0.61265 0.0
C1598 C 0.65098 0.15553 0.63661 0.0
H1599 H 0.65083 0.21102 0.58527 0.0
H1600 H 0.62654 0.14631 0.60114 0.0
C1601 C 0.67332 0.1822 0.65099 0.0
C1602 C 0.54914 0.93529 0.39174 0.0
C1603 C 0.53851 0.92787 0.36792 0.0
H1604 H 0.59297 0.92739 0.41938 0.0
C1605 C 0.5654 0.90639 0.35332 0.0
H1606 H 0.52822 0.95043 0.4036 0.0
C1607 C 0.60239 0.8926 0.36242 0.0
C1608 C 0.61287 0.89961 0.38639 0.0
H1609 H 0.55744 0.89962 0.33503 0.0
H1610 H 0.62214 0.87529 0.3509 0.0
C1611 C 0.58615 0.92185 0.40079 0.0
C1612 C 0.86179 0.81671 0.10348 0.0
C1613 C 0.8403 0.78988 0.11813 0.0
H1614 H 0.89291 0.87342 0.10096 0.0
C1615 C 0.83285 0.80063 0.14192 0.0
H1616 H 0.86857 0.80867 0.0852 0.0
C1617 C 0.84632 0.83767 0.15091 0.0
C1618 C 0.86859 0.8643 0.13647 0.0
H1619 H 0.81769 0.77976 0.15382 0.0
H1620 H 0.84077 0.84456 0.1695 0.0
C1621 C 0.87558 0.85374 0.11251 0.0
C1622 C 0.96899 0.08269 0.89212 0.0
C1623 C 0.97965 0.09013 0.86831 0.0
H1624 H 0.92517 0.09066 0.91976 0.0
C1625 C 0.95278 0.11163 0.8537 0.0
H1626 H 0.9899 0.06753 0.904 0.0
C1627 C 0.9158 0.12544 0.86278 0.0
C1628 C 0.90532 0.11848 0.88675 0.0
H1629 H 0.96076 0.1184 0.8354 0.0
H1630 H 0.89608 0.14278 0.85124 0.0
C1631 C 0.932 0.09619 0.90116 0.0
C1632 C 0.86215 0.70321 0.60337 0.0
C1633 C 0.84064 0.73008 0.61797 0.0
H1634 H 0.89325 0.64648 0.60092 0.0
C1635 C 0.83314 0.71938 0.64176 0.0
H1636 H 0.86898 0.71122 0.58508 0.0
C1637 C 0.84656 0.68235 0.6508 0.0
C1638 C 0.86885 0.65567 0.6364 0.0
H1639 H 0.81797 0.74027 0.65363 0.0
H1640 H 0.84098 0.67549 0.66939 0.0
C1641 C 0.8759 0.6662 0.61244 0.0
C1642 C 0.58614 0.59601 0.90117 0.0
C1643 C 0.61283 0.61833 0.88678 0.0
H1644 H 0.52823 0.56734 0.90395 0.0
C1645 C 0.60237 0.62537 0.86282 0.0
H1646 H 0.59296 0.59043 0.91976 0.0
C1647 C 0.56539 0.61159 0.85371 0.0
C1648 C 0.5385 0.59005 0.86829 0.0
H1649 H 0.62209 0.64273 0.85131 0.0
H1650 H 0.55743 0.61842 0.83542 0.0
C1651 C 0.54915 0.58254 0.8921 0.0
C1652 C 0.64343 0.35382 0.11262 0.0
C1653 C 0.65044 0.36437 0.13658 0.0
H1654 H 0.65042 0.30877 0.0853 0.0
C1655 C 0.67276 0.33775 0.15101 0.0
H1656 H 0.62606 0.3735 0.10108 0.0
C1657 C 0.68624 0.30073 0.142 0.0
C1658 C 0.67875 0.28999 0.11821 0.0
H1659 H 0.67833 0.34464 0.16959 0.0
H1660 H 0.70143 0.27987 0.15389 0.0
C1661 C 0.65723 0.31681 0.10358 0.0
C1662 C 0.91647 0.39248 0.36239 0.0
C1663 C 0.90598 0.3995 0.38635 0.0
H1664 H 0.96145 0.39945 0.33502 0.0
C1665 C 0.93269 0.42174 0.40076 0.0
H1666 H 0.89672 0.37516 0.35087 0.0
C1667 C 0.96971 0.43516 0.39172 0.0
C1668 C 0.98036 0.42771 0.36792 0.0
H1669 H 0.92586 0.42729 0.41935 0.0
H1670 H 0.99063 0.4503 0.4036 0.0
C1671 C 0.95347 0.40624 0.35331 0.0
C1672 C 0.84554 0.33658 0.87189 0.0
C1673 C 0.86791 0.36321 0.88628 0.0
H1674 H 0.81683 0.2787 0.86907 0.0
C1675 C 0.87497 0.35267 0.91024 0.0
H1676 H 0.83994 0.34346 0.8533 0.0
C1677 C 0.86117 0.31568 0.91931 0.0
C1678 C 0.8396 0.28885 0.90472 0.0
H1679 H 0.89237 0.37235 0.92175 0.0
H1680 H 0.86802 0.30766 0.93759 0.0
C1681 C 0.83205 0.29958 0.88093 0.0
C1682 C 0.9535 0.61286 0.16958 0.0
C1683 C 0.98037 0.59139 0.15496 0.0
H1684 H 0.89678 0.64398 0.17204 0.0
C1685 C 0.9697 0.584 0.13115 0.0
H1686 H 0.96149 0.61961 0.18788 0.0
C1687 C 0.93268 0.59747 0.12212 0.0
C1688 C 0.906 0.61971 0.13654 0.0
H1689 H 0.9906 0.56887 0.11927 0.0
H1690 H 0.92584 0.59195 0.10352 0.0
C1691 C 0.91651 0.62668 0.16051 0.0
C1692 C 0.67261 0.6817 0.37207 0.0
C1693 C 0.65033 0.65505 0.38651 0.0
H1694 H 0.7012 0.73961 0.36917 0.0
C1695 C 0.64332 0.6656 0.41046 0.0
H1696 H 0.67817 0.67481 0.35349 0.0
C1697 C 0.65708 0.70263 0.41949 0.0
C1698 C 0.67856 0.72948 0.40485 0.0
H1699 H 0.62599 0.64591 0.422 0.0
H1700 H 0.65028 0.71067 0.43777 0.0
C1701 C 0.68605 0.71874 0.38107 0.0
C1702 C 0.58692 0.42253 0.62185 0.0
C1703 C 0.61358 0.40022 0.63627 0.0
H1704 H 0.52903 0.45119 0.61902 0.0
C1705 C 0.6031 0.39323 0.66023 0.0
H1706 H 0.59376 0.42807 0.60326 0.0
C1707 C 0.56612 0.40705 0.66931 0.0
C1708 C 0.53925 0.42856 0.6547 0.0
H1709 H 0.62281 0.37587 0.67176 0.0
H1710 H 0.55813 0.40026 0.6876 0.0
C1711 C 0.54992 0.43602 0.63089 0.0
C1712 C 0.17293 0.3355 0.37186 0.0
C1713 C 0.15058 0.36218 0.38623 0.0
H1714 H 0.2016 0.2776 0.36909 0.0
C1715 C 0.14352 0.3517 0.41019 0.0
H1716 H 0.17852 0.34234 0.35327 0.0
C1717 C 0.15731 0.31473 0.4193 0.0
C1718 C 0.17887 0.28785 0.40474 0.0
H1719 H 0.12614 0.37142 0.42169 0.0
H1720 H 0.15046 0.30676 0.43759 0.0
C1721 C 0.18639 0.29851 0.38094 0.0
C1722 C 0.4323 0.42427 0.12164 0.0
C1723 C 0.40569 0.40186 0.13603 0.0
H1724 H 0.49017 0.45301 0.11884 0.0
C1725 C 0.41621 0.39479 0.15999 0.0
H1726 H 0.42542 0.42988 0.10306 0.0
C1727 C 0.4532 0.40859 0.16907 0.0
C1728 C 0.48003 0.43018 0.15448 0.0
H1729 H 0.39654 0.37737 0.1715 0.0
H1730 H 0.46122 0.4017 0.18734 0.0
C1731 C 0.4693 0.43776 0.13069 0.0
C1732 C 0.36127 0.70323 0.91914 0.0
C1733 C 0.33971 0.73006 0.90453 0.0
H1734 H 0.39247 0.64657 0.92161 0.0
C1735 C 0.3322 0.71935 0.88074 0.0
H1736 H 0.3681 0.71124 0.93742 0.0
C1737 C 0.34571 0.68235 0.87171 0.0
C1738 C 0.36807 0.65572 0.88612 0.0
H1739 H 0.31698 0.74022 0.86887 0.0
H1740 H 0.34014 0.67548 0.85312 0.0
C1741 C 0.37508 0.66624 0.91008 0.0
C1742 C 0.06585 0.61147 0.66933 0.0
C1743 C 0.03905 0.58992 0.6547 0.0
H1744 H 0.12252 0.64265 0.67183 0.0
C1745 C 0.04983 0.58237 0.63093 0.0
H1746 H 0.05778 0.61833 0.6876 0.0
C1747 C 0.08687 0.59584 0.62193 0.0
C1748 C 0.11347 0.6182 0.63635 0.0
H1749 H 0.02899 0.56716 0.61905 0.0
H1750 H 0.0938 0.59024 0.60336 0.0
C1751 C 0.10287 0.62526 0.66029 0.0
C1752 C 0.14369 0.66743 0.11283 0.0
C1753 C 0.15068 0.65691 0.13679 0.0
H1754 H 0.1507 0.71241 0.08547 0.0
C1755 C 0.17301 0.68355 0.1512 0.0
H1756 H 0.12632 0.64774 0.1013 0.0
C1757 C 0.18652 0.72056 0.14216 0.0
C1758 C 0.17904 0.73125 0.11836 0.0
H1759 H 0.17856 0.67668 0.16979 0.0
H1760 H 0.2017 0.74145 0.15403 0.0
C1761 C 0.15751 0.70441 0.10375 0.0
C1762 C 0.10214 0.39341 0.8625 0.0
C1763 C 0.11272 0.40043 0.88644 0.0
H1764 H 0.05706 0.4004 0.83518 0.0
C1765 C 0.0861 0.42273 0.90088 0.0
H1766 H 0.12181 0.37606 0.85095 0.0
C1767 C 0.04906 0.43619 0.89187 0.0
C1768 C 0.0383 0.42872 0.86809 0.0
H1769 H 0.09301 0.42829 0.91946 0.0
H1770 H 0.0282 0.45137 0.90377 0.0
C1771 C 0.06511 0.4072 0.85346 0.0
C1772 C 0.36217 0.31529 0.60361 0.0
C1773 C 0.34069 0.28845 0.61825 0.0
H1774 H 0.3933 0.372 0.60109 0.0
C1775 C 0.33327 0.29917 0.64204 0.0
H1776 H 0.36894 0.30727 0.58532 0.0
C1777 C 0.34674 0.3362 0.65105 0.0
C1778 C 0.369 0.36285 0.6366 0.0
H1779 H 0.31812 0.27829 0.65394 0.0
H1780 H 0.34122 0.34308 0.66963 0.0
C1781 C 0.37598 0.3523 0.61265 0.0
C1782 C 0.45321 0.61075 0.35385 0.0
C1783 C 0.48001 0.58919 0.36848 0.0
H1784 H 0.39655 0.64194 0.35133 0.0
C1785 C 0.46922 0.58165 0.39226 0.0
H1786 H 0.46128 0.61759 0.33558 0.0
C1787 C 0.4322 0.59515 0.40126 0.0
C1788 C 0.40561 0.61752 0.38683 0.0
H1789 H 0.49007 0.56643 0.40415 0.0
H1790 H 0.42527 0.58957 0.41984 0.0
C1791 C 0.4162 0.62454 0.36288 0.0
loop_
_geom_bond_atom_site_label_1
_geom_bond_atom_site_label_2
_geom_bond_distance
_geom_bond_site_symmetry_2
_ccdc_geom_bond_type
Mn0 O5 2.095 . S
Mn0 O15 2.162 . S
Mn0 O16 2.297 . S
Mn0 O24 2.385 . S
Mn0 O25 2.209 . S
Mn0 O26 2.094 . S
Mn1 O6 2.121 . S
Mn1 N8 2.257 . S
Mn1 N17 2.282 . S
Mn1 O25 2.215 1_565 S
Mn1 O27 2.117 . S
C2 O24 1.234 . S
C2 O25 1.283 . S
C3 O15 1.281 . S
C3 O16 1.236 . S
C4 O26 1.240 . S
C4 O27 1.264 1_545 S
O5 Mn0 2.095 . S
O5 C14 1.250 1_545 S
O6 Mn1 2.121 . S
O6 C14 1.258 . S
C7 N8 1.326 . S
C7 C11 1.460 . S
C7 H13 0.929 . S
N8 Mn1 2.257 . S
N8 C7 1.326 . S
N8 C12 1.362 . S
C9 C10 1.258 . S
C9 C12 1.431 . S
C9 C29 1.449 . S
C10 C9 1.258 . S
C10 C11 1.477 . S
C10 H30 0.931 . S
C11 C7 1.460 . S
C11 C10 1.477 . S
C11 H31 0.930 . S
C12 N8 1.362 . S
C12 C9 1.431 . S
C12 C22 1.476 . S
H13 C7 0.929 . S
C14 O5 1.250 1_565 S
C14 O6 1.258 . S
O15 Mn0 2.162 . S
O15 C3 1.281 . S
O16 Mn0 2.297 . S
O16 C3 1.236 . S
N17 Mn1 2.282 . S
N17 C18 1.328 . S
N17 C22 1.318 . S
C18 N17 1.328 . S
C18 C19 1.457 1_565 S
C18 H23 0.929 1_565 S
C19 C18 1.457 1_545 S
C19 C20 1.291 1_545 S
C19 H32 0.931 . S
C20 C19 1.291 1_565 S
C20 C21 1.373 . S
C20 H33 0.929 . S
C21 C20 1.373 . S
C21 C22 1.396 . S
C21 C28 1.403 . S
C22 C12 1.476 . S
C22 N17 1.318 . S
C22 C21 1.396 . S
H23 C18 0.929 1_545 S
O24 Mn0 2.385 . S
O24 C2 1.234 . S
O25 Mn0 2.209 . S
O25 Mn1 2.215 1_545 S
O25 C2 1.283 . S
O26 Mn0 2.094 . S
O26 C4 1.240 . S
O27 Mn1 2.117 . S
O27 C4 1.264 1_565 S
C28 C21 1.403 . S
C28 C29 1.399 . S
C28 H34 0.929 . S
C29 C9 1.449 . S
C29 C28 1.399 . S
C29 H35 0.930 . S
H30 C10 0.931 . S
H31 C11 0.930 . S
H32 C19 0.931 . S
H33 C20 0.929 . S
H34 C28 0.929 . S
H35 C29 0.930 . S
Mn36 O41 2.095 . S
Mn36 O51 2.162 . S
Mn36 O52 2.297 . S
Mn36 O60 2.385 . S
Mn36 O61 2.209 . S
Mn36 O62 2.094 . S
Mn37 O42 2.121 . S
Mn37 N44 2.257 . S
Mn37 N53 2.282 . S
Mn37 O61 2.215 . S
Mn37 O63 2.117 . S
C38 O60 1.234 . S
C38 O61 1.283 . S
C39 O51 1.281 . S
C39 O52 1.236 . S
C40 O62 1.240 . S
C40 O63 1.264 . S
O41 Mn36 2.095 . S
O41 C50 1.250 . S
O42 Mn37 2.121 . S
O42 C50 1.258 . S
C43 N44 1.326 . S
C43 C47 1.460 . S
C43 H49 0.929 . S
N44 Mn37 2.257 . S
N44 C43 1.326 . S
N44 C48 1.362 . S
C45 C46 1.258 . S
C45 C48 1.431 . S
C45 C65 1.449 . S
C46 C45 1.258 . S
C46 C47 1.477 . S
C46 H66 0.931 . S
C47 C43 1.460 . S
C47 C46 1.477 . S
C47 H67 0.930 . S
C48 N44 1.362 . S
C48 C45 1.431 . S
C48 C58 1.476 . S
H49 C43 0.929 . S
C50 O41 1.250 . S
C50 O42 1.258 . S
O51 Mn36 2.162 . S
O51 C39 1.281 . S
O52 Mn36 2.297 . S
O52 C39 1.236 . S
N53 Mn37 2.282 . S
N53 C54 1.328 . S
N53 C58 1.318 . S
C54 N53 1.328 . S
C54 C55 1.457 . S
C54 H59 0.929 . S
C55 C54 1.457 . S
C55 C56 1.291 . S
C55 H68 0.931 . S
C56 C55 1.291 . S
C56 C57 1.373 . S
C56 H69 0.929 . S
C57 C56 1.373 . S
C57 C58 1.396 . S
C57 C64 1.403 . S
C58 C48 1.476 . S
C58 N53 1.318 . S
C58 C57 1.396 . S
H59 C54 0.929 . S
O60 Mn36 2.385 . S
O60 C38 1.234 . S
O61 Mn36 2.209 . S
O61 Mn37 2.215 . S
O61 C38 1.283 . S
O62 Mn36 2.094 . S
O62 C40 1.240 . S
O63 Mn37 2.117 . S
O63 C40 1.264 . S
C64 C57 1.403 . S
C64 C65 1.399 . S
C64 H70 0.929 . S
C65 C45 1.449 . S
C65 C64 1.399 . S
C65 H71 0.930 . S
H66 C46 0.931 . S
H67 C47 0.930 . S
H68 C55 0.931 . S
H69 C56 0.929 . S
H70 C64 0.929 . S
H71 C65 0.930 . S
Mn72 O77 2.095 . S
Mn72 O87 2.162 . S
Mn72 O88 2.297 . S
Mn72 O96 2.385 . S
Mn72 O97 2.209 . S
Mn72 O98 2.094 . S
Mn73 O78 2.121 . S
Mn73 N80 2.257 . S
Mn73 N89 2.282 1_455 S
Mn73 O97 2.215 1_545 S
Mn73 O99 2.117 . S
C74 O96 1.234 . S
C74 O97 1.283 . S
C75 O87 1.281 . S
C75 O88 1.236 . S
C76 O98 1.240 . S
C76 O99 1.264 1_565 S
O77 Mn72 2.095 . S
O77 C86 1.250 1_565 S
O78 Mn73 2.121 . S
O78 C86 1.258 . S
C79 N80 1.326 . S
C79 C83 1.460 . S
C79 H85 0.929 . S
N80 Mn73 2.257 . S
N80 C79 1.326 . S
N80 C84 1.362 1_455 S
C81 C82 1.258 . S
C81 C84 1.431 . S
C81 C101 1.449 . S
C82 C81 1.258 . S
C82 C83 1.477 1_655 S
C82 H102 0.931 . S
C83 C79 1.460 . S
C83 C82 1.477 1_455 S
C83 H103 0.930 . S
C84 N80 1.362 1_655 S
C84 C81 1.431 . S
C84 C94 1.476 . S
H85 C79 0.929 . S
C86 O77 1.250 1_545 S
C86 O78 1.258 . S
O87 Mn72 2.162 . S
O87 C75 1.281 . S
O88 Mn72 2.297 . S
O88 C75 1.236 . S
N89 Mn73 2.282 1_655 S
N89 C90 1.328 . S
N89 C94 1.318 . S
C90 N89 1.328 . S
C90 C91 1.457 1_545 S
C90 H95 0.929 1_545 S
C91 C90 1.457 1_565 S
C91 C92 1.291 1_565 S
C91 H104 0.931 . S
C92 C91 1.291 1_545 S
C92 C93 1.373 . S
C92 H105 0.929 . S
C93 C92 1.373 . S
C93 C94 1.396 . S
C93 C100 1.403 . S
C94 C84 1.476 . S
C94 N89 1.318 . S
C94 C93 1.396 . S
H95 C90 0.929 1_565 S
O96 Mn72 2.385 . S
O96 C74 1.234 . S
O97 Mn72 2.209 . S
O97 Mn73 2.215 1_565 S
O97 C74 1.283 . S
O98 Mn72 2.094 . S
O98 C76 1.240 . S
O99 Mn73 2.117 . S
O99 C76 1.264 1_545 S
C100 C93 1.403 . S
C100 C101 1.399 . S
C100 H106 0.929 . S
C101 C81 1.449 . S
C101 C100 1.399 . S
C101 H107 0.930 . S
H102 C82 0.931 . S
H103 C83 0.930 . S
H104 C91 0.931 . S
H105 C92 0.929 . S
H106 C100 0.929 . S
H107 C101 0.930 . S
Mn108 O113 2.095 . S
Mn108 O123 2.162 . S
Mn108 O124 2.297 . S
Mn108 O132 2.385 . S
Mn108 O133 2.209 . S
Mn108 O134 2.094 . S
Mn109 O114 2.121 . S
Mn109 N116 2.257 . S
Mn109 N125 2.282 . S
Mn109 O133 2.215 . S
Mn109 O135 2.117 . S
C110 O132 1.234 . S
C110 O133 1.283 . S
C111 O123 1.281 . S
C111 O124 1.236 . S
C112 O134 1.240 . S
C112 O135 1.264 . S
O113 Mn108 2.095 . S
O113 C122 1.250 . S
O114 Mn109 2.121 . S
O114 C122 1.258 . S
C115 N116 1.326 . S
C115 C119 1.460 . S
C115 H121 0.929 . S
N116 Mn109 2.257 . S
N116 C115 1.326 . S
N116 C120 1.362 . S
C117 C118 1.258 . S
C117 C120 1.431 . S
C117 C137 1.449 . S
C118 C117 1.258 . S
C118 C119 1.477 . S
C118 H138 0.931 . S
C119 C115 1.460 . S
C119 C118 1.477 . S
C119 H139 0.930 . S
C120 N116 1.362 . S
C120 C117 1.431 . S
C120 C130 1.476 . S
H121 C115 0.929 . S
C122 O113 1.250 . S
C122 O114 1.258 . S
O123 Mn108 2.162 . S
O123 C111 1.281 . S
O124 Mn108 2.297 . S
O124 C111 1.236 . S
N125 Mn109 2.282 . S
N125 C126 1.328 . S
N125 C130 1.318 . S
C126 N125 1.328 . S
C126 C127 1.457 . S
C126 H131 0.929 . S
C127 C126 1.457 . S
C127 C128 1.291 . S
C127 H140 0.931 . S
C128 C127 1.291 . S
C128 C129 1.373 . S
C128 H141 0.929 . S
C129 C128 1.373 . S
C129 C130 1.396 . S
C129 C136 1.403 . S
C130 C120 1.476 . S
C130 N125 1.318 . S
C130 C129 1.396 . S
H131 C126 0.929 . S
O132 Mn108 2.385 . S
O132 C110 1.234 . S
O133 Mn108 2.209 . S
O133 Mn109 2.215 . S
O133 C110 1.283 . S
O134 Mn108 2.094 . S
O134 C112 1.240 . S
O135 Mn109 2.117 . S
O135 C112 1.264 . S
C136 C129 1.403 . S
C136 C137 1.399 . S
C136 H142 0.929 . S
C137 C117 1.449 . S
C137 C136 1.399 . S
C137 H143 0.930 . S
H138 C118 0.931 . S
H139 C119 0.930 . S
H140 C127 0.931 . S
H141 C128 0.929 . S
H142 C136 0.929 . S
H143 C137 0.930 . S
Mn144 O149 2.095 . S
Mn144 O159 2.162 . S
Mn144 O160 2.297 . S
Mn144 O168 2.385 . S
Mn144 O169 2.209 . S
Mn144 O170 2.094 . S
Mn145 O150 2.121 . S
Mn145 N152 2.257 . S
Mn145 N161 2.282 . S
Mn145 O169 2.215 1_545 S
Mn145 O171 2.117 . S
C146 O168 1.234 . S
C146 O169 1.283 . S
C147 O159 1.281 . S
C147 O160 1.236 . S
C148 O170 1.240 . S
C148 O171 1.264 1_565 S
O149 Mn144 2.095 . S
O149 C158 1.250 1_565 S
O150 Mn145 2.121 . S
O150 C158 1.258 . S
C151 N152 1.326 . S
C151 C155 1.460 . S
C151 H157 0.929 . S
N152 Mn145 2.257 . S
N152 C151 1.326 . S
N152 C156 1.362 . S
C153 C154 1.258 . S
C153 C156 1.431 . S
C153 C173 1.449 . S
C154 C153 1.258 . S
C154 C155 1.477 . S
C154 H174 0.931 . S
C155 C151 1.460 . S
C155 C154 1.477 . S
C155 H175 0.930 . S
C156 N152 1.362 . S
C156 C153 1.431 . S
C156 C166 1.476 . S
H157 C151 0.929 . S
C158 O149 1.250 1_545 S
C158 O150 1.258 . S
O159 Mn144 2.162 . S
O159 C147 1.281 . S
O160 Mn144 2.297 . S
O160 C147 1.236 . S
N161 Mn145 2.282 . S
N161 C162 1.328 . S
N161 C166 1.318 . S
C162 N161 1.328 . S
C162 C163 1.457 1_545 S
C162 H167 0.929 1_545 S
C163 C162 1.457 1_565 S
C163 C164 1.291 1_565 S
C163 H176 0.931 . S
C164 C163 1.291 1_545 S
C164 C165 1.373 . S
C164 H177 0.929 . S
C165 C164 1.373 . S
C165 C166 1.396 . S
C165 C172 1.403 . S
C166 C156 1.476 . S
C166 N161 1.318 . S
C166 C165 1.396 . S
H167 C162 0.929 1_565 S
O168 Mn144 2.385 . S
O168 C146 1.234 . S
O169 Mn144 2.209 . S
O169 Mn145 2.215 1_565 S
O169 C146 1.283 . S
O170 Mn144 2.094 . S
O170 C148 1.240 . S
O171 Mn145 2.117 . S
O171 C148 1.264 1_545 S
C172 C165 1.403 . S
C172 C173 1.399 . S
C172 H178 0.929 . S
C173 C153 1.449 . S
C173 C172 1.399 . S
C173 H179 0.930 . S
H174 C154 0.931 . S
H175 C155 0.930 . S
H176 C163 0.931 . S
H177 C164 0.929 . S
H178 C172 0.929 . S
H179 C173 0.930 . S
Mn180 O185 2.095 . S
Mn180 O195 2.162 . S
Mn180 O196 2.297 . S
Mn180 O204 2.385 . S
Mn180 O205 2.209 . S
Mn180 O206 2.094 . S
Mn181 O186 2.121 . S
Mn181 N188 2.257 . S
Mn181 N197 2.282 . S
Mn181 O205 2.215 . S
Mn181 O207 2.117 . S
C182 O204 1.234 . S
C182 O205 1.283 . S
C183 O195 1.281 . S
C183 O196 1.236 . S
C184 O206 1.240 . S
C184 O207 1.264 . S
O185 Mn180 2.095 . S
O185 C194 1.250 . S
O186 Mn181 2.121 . S
O186 C194 1.258 . S
C187 N188 1.326 . S
C187 C191 1.460 . S
C187 H193 0.929 . S
N188 Mn181 2.257 . S
N188 C187 1.326 . S
N188 C192 1.362 . S
C189 C190 1.258 . S
C189 C192 1.431 . S
C189 C209 1.449 . S
C190 C189 1.258 . S
C190 C191 1.477 . S
C190 H210 0.931 . S
C191 C187 1.460 . S
C191 C190 1.477 . S
C191 H211 0.930 . S
C192 N188 1.362 . S
C192 C189 1.431 . S
C192 C202 1.476 . S
H193 C187 0.929 . S
C194 O185 1.250 . S
C194 O186 1.258 . S
O195 Mn180 2.162 . S
O195 C183 1.281 . S
O196 Mn180 2.297 . S
O196 C183 1.236 . S
N197 Mn181 2.282 . S
N197 C198 1.328 . S
N197 C202 1.318 . S
C198 N197 1.328 . S
C198 C199 1.457 . S
C198 H203 0.929 . S
C199 C198 1.457 . S
C199 C200 1.291 . S
C199 H212 0.931 . S
C200 C199 1.291 . S
C200 C201 1.373 . S
C200 H213 0.929 . S
C201 C200 1.373 . S
C201 C202 1.396 . S
C201 C208 1.403 . S
C202 C192 1.476 . S
C202 N197 1.318 . S
C202 C201 1.396 . S
H203 C198 0.929 . S
O204 Mn180 2.385 . S
O204 C182 1.234 . S
O205 Mn180 2.209 . S
O205 Mn181 2.215 . S
O205 C182 1.283 . S
O206 Mn180 2.094 . S
O206 C184 1.240 . S
O207 Mn181 2.117 . S
O207 C184 1.264 . S
C208 C201 1.403 . S
C208 C209 1.399 . S
C208 H214 0.929 . S
C209 C189 1.449 . S
C209 C208 1.399 . S
C209 H215 0.930 . S
H210 C190 0.931 . S
H211 C191 0.930 . S
H212 C199 0.931 . S
H213 C200 0.929 . S
H214 C208 0.929 . S
H215 C209 0.930 . S
Mn216 O221 2.095 . S
Mn216 O231 2.162 . S
Mn216 O232 2.297 . S
Mn216 O240 2.385 . S
Mn216 O241 2.209 . S
Mn216 O242 2.094 . S
Mn217 O222 2.121 . S
Mn217 N224 2.257 . S
Mn217 N233 2.282 1_455 S
Mn217 O241 2.215 1_565 S
Mn217 O243 2.117 . S
C218 O240 1.234 . S
C218 O241 1.283 . S
C219 O231 1.281 . S
C219 O232 1.236 . S
C220 O242 1.240 . S
C220 O243 1.264 1_545 S
O221 Mn216 2.095 . S
O221 C230 1.250 1_545 S
O222 Mn217 2.121 . S
O222 C230 1.258 . S
C223 N224 1.326 . S
C223 C227 1.460 . S
C223 H229 0.929 . S
N224 Mn217 2.257 . S
N224 C223 1.326 . S
N224 C228 1.362 1_455 S
C225 C226 1.258 . S
C225 C228 1.431 . S
C225 C245 1.449 . S
C226 C225 1.258 . S
C226 C227 1.477 1_655 S
C226 H246 0.931 . S
C227 C223 1.460 . S
C227 C226 1.477 1_455 S
C227 H247 0.930 . S
C228 N224 1.362 1_655 S
C228 C225 1.431 . S
C228 C238 1.476 . S
H229 C223 0.929 . S
C230 O221 1.250 1_565 S
C230 O222 1.258 . S
O231 Mn216 2.162 . S
O231 C219 1.281 . S
O232 Mn216 2.297 . S
O232 C219 1.236 . S
N233 Mn217 2.282 1_655 S
N233 C234 1.328 . S
N233 C238 1.318 . S
C234 N233 1.328 . S
C234 C235 1.457 1_565 S
C234 H239 0.929 1_565 S
C235 C234 1.457 1_545 S
C235 C236 1.291 1_545 S
C235 H248 0.931 . S
C236 C235 1.291 1_565 S
C236 C237 1.373 . S
C236 H249 0.929 . S
C237 C236 1.373 . S
C237 C238 1.396 . S
C237 C244 1.403 . S
C238 C228 1.476 . S
C238 N233 1.318 . S
C238 C237 1.396 . S
H239 C234 0.929 1_545 S
O240 Mn216 2.385 . S
O240 C218 1.234 . S
O241 Mn216 2.209 . S
O241 Mn217 2.215 1_545 S
O241 C218 1.283 . S
O242 Mn216 2.094 . S
O242 C220 1.240 . S
O243 Mn217 2.117 . S
O243 C220 1.264 1_565 S
C244 C237 1.403 . S
C244 C245 1.399 . S
C244 H250 0.929 . S
C245 C225 1.449 . S
C245 C244 1.399 . S
C245 H251 0.930 . S
H246 C226 0.931 . S
H247 C227 0.930 . S
H248 C235 0.931 . S
H249 C236 0.929 . S
H250 C244 0.929 . S
H251 C245 0.930 . S
Mn252 O257 2.095 . S
Mn252 O267 2.162 . S
Mn252 O268 2.297 . S
Mn252 O276 2.385 . S
Mn252 O277 2.209 . S
Mn252 O278 2.094 . S
Mn253 O258 2.121 . S
Mn253 N260 2.257 . S
Mn253 N269 2.282 . S
Mn253 O277 2.215 . S
Mn253 O279 2.117 . S
C254 O276 1.234 . S
C254 O277 1.283 . S
C255 O267 1.281 . S
C255 O268 1.236 . S
C256 O278 1.240 . S
C256 O279 1.264 . S
O257 Mn252 2.095 . S
O257 C266 1.250 . S
O258 Mn253 2.121 . S
O258 C266 1.258 . S
C259 N260 1.326 . S
C259 C263 1.460 . S
C259 H265 0.929 . S
N260 Mn253 2.257 . S
N260 C259 1.326 . S
N260 C264 1.362 . S
C261 C262 1.258 . S
C261 C264 1.431 . S
C261 C281 1.449 . S
C262 C261 1.258 . S
C262 C263 1.477 . S
C262 H282 0.931 . S
C263 C259 1.460 . S
C263 C262 1.477 . S
C263 H283 0.930 . S
C264 N260 1.362 . S
C264 C261 1.431 . S
C264 C274 1.476 . S
H265 C259 0.929 . S
C266 O257 1.250 . S
C266 O258 1.258 . S
O267 Mn252 2.162 . S
O267 C255 1.281 . S
O268 Mn252 2.297 . S
O268 C255 1.236 . S
N269 Mn253 2.282 . S
N269 C270 1.328 . S
N269 C274 1.318 . S
C270 N269 1.328 . S
C270 C271 1.457 . S
C270 H275 0.929 . S
C271 C270 1.457 . S
C271 C272 1.291 . S
C271 H284 0.931 . S
C272 C271 1.291 . S
C272 C273 1.373 . S
C272 H285 0.929 . S
C273 C272 1.373 . S
C273 C274 1.396 . S
C273 C280 1.403 . S
C274 C264 1.476 . S
C274 N269 1.318 . S
C274 C273 1.396 . S
H275 C270 0.929 . S
O276 Mn252 2.385 . S
O276 C254 1.234 . S
O277 Mn252 2.209 . S
O277 Mn253 2.215 . S
O277 C254 1.283 . S
O278 Mn252 2.094 . S
O278 C256 1.240 . S
O279 Mn253 2.117 . S
O279 C256 1.264 . S
C280 C273 1.403 . S
C280 C281 1.399 . S
C280 H286 0.929 . S
C281 C261 1.449 . S
C281 C280 1.399 . S
C281 H287 0.930 . S
H282 C262 0.931 . S
H283 C263 0.930 . S
H284 C271 0.931 . S
H285 C272 0.929 . S
H286 C280 0.929 . S
H287 C281 0.930 . S
Mn288 O293 2.095 . S
Mn288 O303 2.162 . S
Mn288 O304 2.297 . S
Mn288 O312 2.385 . S
Mn288 O313 2.209 . S
Mn288 O314 2.094 . S
Mn289 O294 2.121 . S
Mn289 N296 2.257 . S
Mn289 N305 2.282 . S
Mn289 O313 2.215 1_545 S
Mn289 O315 2.117 . S
C290 O312 1.234 . S
C290 O313 1.283 . S
C291 O303 1.281 . S
C291 O304 1.236 . S
C292 O314 1.240 . S
C292 O315 1.264 1_565 S
O293 Mn288 2.095 . S
O293 C302 1.250 1_565 S
O294 Mn289 2.121 . S
O294 C302 1.258 . S
C295 N296 1.326 . S
C295 C299 1.460 . S
C295 H301 0.929 . S
N296 Mn289 2.257 . S
N296 C295 1.326 . S
N296 C300 1.362 . S
C297 C298 1.258 . S
C297 C300 1.431 . S
C297 C317 1.449 . S
C298 C297 1.258 . S
C298 C299 1.477 . S
C298 H318 0.931 . S
C299 C295 1.460 . S
C299 C298 1.477 . S
C299 H319 0.930 . S
C300 N296 1.362 . S
C300 C297 1.431 . S
C300 C310 1.476 . S
H301 C295 0.929 . S
C302 O293 1.250 1_545 S
C302 O294 1.258 . S
O303 Mn288 2.162 . S
O303 C291 1.281 . S
O304 Mn288 2.297 . S
O304 C291 1.236 . S
N305 Mn289 2.282 . S
N305 C306 1.328 . S
N305 C310 1.318 . S
C306 N305 1.328 . S
C306 C307 1.457 1_545 S
C306 H311 0.929 1_545 S
C307 C306 1.457 1_565 S
C307 C308 1.291 1_565 S
C307 H320 0.931 . S
C308 C307 1.291 1_545 S
C308 C309 1.373 . S
C308 H321 0.929 . S
C309 C308 1.373 . S
C309 C310 1.396 . S
C309 C316 1.403 . S
C310 C300 1.476 . S
C310 N305 1.318 . S
C310 C309 1.396 . S
H311 C306 0.929 1_565 S
O312 Mn288 2.385 . S
O312 C290 1.234 . S
O313 Mn288 2.209 . S
O313 Mn289 2.215 1_565 S
O313 C290 1.283 . S
O314 Mn288 2.094 . S
O314 C292 1.240 . S
O315 Mn289 2.117 . S
O315 C292 1.264 1_545 S
C316 C309 1.403 . S
C316 C317 1.399 . S
C316 H322 0.929 . S
C317 C297 1.449 . S
C317 C316 1.399 . S
C317 H323 0.930 . S
H318 C298 0.931 . S
H319 C299 0.930 . S
H320 C307 0.931 . S
H321 C308 0.929 . S
H322 C316 0.929 . S
H323 C317 0.930 . S
Mn324 O329 2.095 . S
Mn324 O339 2.162 . S
Mn324 O340 2.297 . S
Mn324 O348 2.385 . S
Mn324 O349 2.209 . S
Mn324 O350 2.094 . S
Mn325 O330 2.121 . S
Mn325 N332 2.257 . S
Mn325 N341 2.282 . S
Mn325 O349 2.215 . S
Mn325 O351 2.117 . S
C326 O348 1.234 . S
C326 O349 1.283 . S
C327 O339 1.281 . S
C327 O340 1.236 . S
C328 O350 1.240 . S
C328 O351 1.264 . S
O329 Mn324 2.095 . S
O329 C338 1.250 . S
O330 Mn325 2.121 . S
O330 C338 1.258 . S
C331 N332 1.326 . S
C331 C335 1.460 . S
C331 H337 0.929 . S
N332 Mn325 2.257 . S
N332 C331 1.326 . S
N332 C336 1.362 . S
C333 C334 1.258 . S
C333 C336 1.431 . S
C333 C353 1.449 . S
C334 C333 1.258 . S
C334 C335 1.477 . S
C334 H354 0.931 . S
C335 C331 1.460 . S
C335 C334 1.477 . S
C335 H355 0.930 . S
C336 N332 1.362 . S
C336 C333 1.431 . S
C336 C346 1.476 . S
H337 C331 0.929 . S
C338 O329 1.250 . S
C338 O330 1.258 . S
O339 Mn324 2.162 . S
O339 C327 1.281 . S
O340 Mn324 2.297 . S
O340 C327 1.236 . S
N341 Mn325 2.282 . S
N341 C342 1.328 . S
N341 C346 1.318 . S
C342 N341 1.328 . S
C342 C343 1.457 . S
C342 H347 0.929 . S
C343 C342 1.457 . S
C343 C344 1.291 . S
C343 H356 0.931 . S
C344 C343 1.291 . S
C344 C345 1.373 . S
C344 H357 0.929 . S
C345 C344 1.373 . S
C345 C346 1.396 . S
C345 C352 1.403 . S
C346 C336 1.476 . S
C346 N341 1.318 . S
C346 C345 1.396 . S
H347 C342 0.929 . S
O348 Mn324 2.385 . S
O348 C326 1.234 . S
O349 Mn324 2.209 . S
O349 Mn325 2.215 . S
O349 C326 1.283 . S
O350 Mn324 2.094 . S
O350 C328 1.240 . S
O351 Mn325 2.117 . S
O351 C328 1.264 . S
C352 C345 1.403 . S
C352 C353 1.399 . S
C352 H358 0.929 . S
C353 C333 1.449 . S
C353 C352 1.399 . S
C353 H359 0.930 . S
H354 C334 0.931 . S
H355 C335 0.930 . S
H356 C343 0.931 . S
H357 C344 0.929 . S
H358 C352 0.929 . S
H359 C353 0.930 . S
Mn360 O365 2.095 . S
Mn360 O375 2.162 . S
Mn360 O376 2.297 . S
Mn360 O384 2.385 . S
Mn360 O385 2.209 . S
Mn360 O386 2.094 . S
Mn361 O366 2.121 . S
Mn361 N368 2.257 . S
Mn361 N377 2.282 1_655 S
Mn361 O385 2.215 1_565 S
Mn361 O387 2.117 . S
C362 O384 1.234 . S
C362 O385 1.283 . S
C363 O375 1.281 . S
C363 O376 1.236 . S
C364 O386 1.240 . S
C364 O387 1.264 1_545 S
O365 Mn360 2.095 . S
O365 C374 1.250 1_545 S
O366 Mn361 2.121 . S
O366 C374 1.258 . S
C367 N368 1.326 . S
C367 C371 1.460 . S
C367 H373 0.929 . S
N368 Mn361 2.257 . S
N368 C367 1.326 . S
N368 C372 1.362 1_655 S
C369 C370 1.258 . S
C369 C372 1.431 . S
C369 C389 1.449 . S
C370 C369 1.258 . S
C370 C371 1.477 1_455 S
C370 H390 0.931 . S
C371 C367 1.460 . S
C371 C370 1.477 1_655 S
C371 H391 0.930 . S
C372 N368 1.362 1_455 S
C372 C369 1.431 . S
C372 C382 1.476 . S
H373 C367 0.929 . S
C374 O365 1.250 1_565 S
C374 O366 1.258 . S
O375 Mn360 2.162 . S
O375 C363 1.281 . S
O376 Mn360 2.297 . S
O376 C363 1.236 . S
N377 Mn361 2.282 1_455 S
N377 C378 1.328 . S
N377 C382 1.318 . S
C378 N377 1.328 . S
C378 C379 1.457 1_565 S
C378 H383 0.929 1_565 S
C379 C378 1.457 1_545 S
C379 C380 1.291 1_545 S
C379 H392 0.931 . S
C380 C379 1.291 1_565 S
C380 C381 1.373 . S
C380 H393 0.929 . S
C381 C380 1.373 . S
C381 C382 1.396 . S
C381 C388 1.403 . S
C382 C372 1.476 . S
C382 N377 1.318 . S
C382 C381 1.396 . S
H383 C378 0.929 1_545 S
O384 Mn360 2.385 . S
O384 C362 1.234 . S
O385 Mn360 2.209 . S
O385 Mn361 2.215 1_545 S
O385 C362 1.283 . S
O386 Mn360 2.094 . S
O386 C364 1.240 . S
O387 Mn361 2.117 . S
O387 C364 1.264 1_565 S
C388 C381 1.403 . S
C388 C389 1.399 . S
C388 H394 0.929 . S
C389 C369 1.449 . S
C389 C388 1.399 . S
C389 H395 0.930 . S
H390 C370 0.931 . S
H391 C371 0.930 . S
H392 C379 0.931 . S
H393 C380 0.929 . S
H394 C388 0.929 . S
H395 C389 0.930 . S
Mn396 O401 2.095 . S
Mn396 O411 2.162 . S
Mn396 O412 2.297 . S
Mn396 O420 2.385 . S
Mn396 O421 2.209 . S
Mn396 O422 2.094 . S
Mn397 O402 2.121 . S
Mn397 N404 2.257 . S
Mn397 N413 2.282 . S
Mn397 O421 2.215 . S
Mn397 O423 2.117 . S
C398 O420 1.234 . S
C398 O421 1.283 . S
C399 O411 1.281 . S
C399 O412 1.236 . S
C400 O422 1.240 . S
C400 O423 1.264 . S
O401 Mn396 2.095 . S
O401 C410 1.250 . S
O402 Mn397 2.121 . S
O402 C410 1.258 . S
C403 N404 1.326 . S
C403 C407 1.460 . S
C403 H409 0.929 . S
N404 Mn397 2.257 . S
N404 C403 1.326 . S
N404 C408 1.362 . S
C405 C406 1.258 . S
C405 C408 1.431 . S
C405 C425 1.449 . S
C406 C405 1.258 . S
C406 C407 1.477 . S
C406 H426 0.931 . S
C407 C403 1.460 . S
C407 C406 1.477 . S
C407 H427 0.930 . S
C408 N404 1.362 . S
C408 C405 1.431 . S
C408 C418 1.476 . S
H409 C403 0.929 . S
C410 O401 1.250 . S
C410 O402 1.258 . S
O411 Mn396 2.162 . S
O411 C399 1.281 . S
O412 Mn396 2.297 . S
O412 C399 1.236 . S
N413 Mn397 2.282 . S
N413 C414 1.328 . S
N413 C418 1.318 . S
C414 N413 1.328 . S
C414 C415 1.457 . S
C414 H419 0.929 . S
C415 C414 1.457 . S
C415 C416 1.291 . S
C415 H428 0.931 . S
C416 C415 1.291 . S
C416 C417 1.373 . S
C416 H429 0.929 . S
C417 C416 1.373 . S
C417 C418 1.396 . S
C417 C424 1.403 . S
C418 C408 1.476 . S
C418 N413 1.318 . S
C418 C417 1.396 . S
H419 C414 0.929 . S
O420 Mn396 2.385 . S
O420 C398 1.234 . S
O421 Mn396 2.209 . S
O421 Mn397 2.215 . S
O421 C398 1.283 . S
O422 Mn396 2.094 . S
O422 C400 1.240 . S
O423 Mn397 2.117 . S
O423 C400 1.264 . S
C424 C417 1.403 . S
C424 C425 1.399 . S
C424 H430 0.929 . S
C425 C405 1.449 . S
C425 C424 1.399 . S
C425 H431 0.930 . S
H426 C406 0.931 . S
H427 C407 0.930 . S
H428 C415 0.931 . S
H429 C416 0.929 . S
H430 C424 0.929 . S
H431 C425 0.930 . S
Mn432 O437 2.095 . S
Mn432 O447 2.162 . S
Mn432 O448 2.297 . S
Mn432 O456 2.385 . S
Mn432 O457 2.209 . S
Mn432 O458 2.094 . S
Mn433 O438 2.121 . S
Mn433 N440 2.257 . S
Mn433 N449 2.282 . S
Mn433 O457 2.215 1_565 S
Mn433 O459 2.117 . S
C434 O456 1.234 . S
C434 O457 1.283 . S
C435 O447 1.281 . S
C435 O448 1.236 . S
C436 O458 1.240 . S
C436 O459 1.264 1_545 S
O437 Mn432 2.095 . S
O437 C446 1.250 1_545 S
O438 Mn433 2.121 . S
O438 C446 1.258 . S
C439 N440 1.326 . S
C439 C443 1.460 . S
C439 H445 0.929 . S
N440 Mn433 2.257 . S
N440 C439 1.326 . S
N440 C444 1.362 . S
C441 C442 1.258 . S
C441 C444 1.431 . S
C441 C461 1.449 . S
C442 C441 1.258 . S
C442 C443 1.477 . S
C442 H462 0.931 . S
C443 C439 1.460 . S
C443 C442 1.477 . S
C443 H463 0.930 . S
C444 N440 1.362 . S
C444 C441 1.431 . S
C444 C454 1.476 . S
H445 C439 0.929 . S
C446 O437 1.250 1_565 S
C446 O438 1.258 . S
O447 Mn432 2.162 . S
O447 C435 1.281 . S
O448 Mn432 2.297 . S
O448 C435 1.236 . S
N449 Mn433 2.282 . S
N449 C450 1.328 . S
N449 C454 1.318 . S
C450 N449 1.328 . S
C450 C451 1.457 1_565 S
C450 H455 0.929 1_565 S
C451 C450 1.457 1_545 S
C451 C452 1.291 1_545 S
C451 H464 0.931 . S
C452 C451 1.291 1_565 S
C452 C453 1.373 . S
C452 H465 0.929 . S
C453 C452 1.373 . S
C453 C454 1.396 . S
C453 C460 1.403 . S
C454 C444 1.476 . S
C454 N449 1.318 . S
C454 C453 1.396 . S
H455 C450 0.929 1_545 S
O456 Mn432 2.385 . S
O456 C434 1.234 . S
O457 Mn432 2.209 . S
O457 Mn433 2.215 1_545 S
O457 C434 1.283 . S
O458 Mn432 2.094 . S
O458 C436 1.240 . S
O459 Mn433 2.117 . S
O459 C436 1.264 1_565 S
C460 C453 1.403 . S
C460 C461 1.399 . S
C460 H466 0.929 . S
C461 C441 1.449 . S
C461 C460 1.399 . S
C461 H467 0.930 . S
H462 C442 0.931 . S
H463 C443 0.930 . S
H464 C451 0.931 . S
H465 C452 0.929 . S
H466 C460 0.929 . S
H467 C461 0.930 . S
Mn468 O473 2.095 . S
Mn468 O483 2.162 . S
Mn468 O484 2.297 . S
Mn468 O492 2.385 . S
Mn468 O493 2.209 . S
Mn468 O494 2.094 . S
Mn469 O474 2.121 . S
Mn469 N476 2.257 . S
Mn469 N485 2.282 . S
Mn469 O493 2.215 . S
Mn469 O495 2.117 . S
C470 O492 1.234 . S
C470 O493 1.283 . S
C471 O483 1.281 . S
C471 O484 1.236 . S
C472 O494 1.240 . S
C472 O495 1.264 . S
O473 Mn468 2.095 . S
O473 C482 1.250 . S
O474 Mn469 2.121 . S
O474 C482 1.258 . S
C475 N476 1.326 . S
C475 C479 1.460 . S
C475 H481 0.929 . S
N476 Mn469 2.257 . S
N476 C475 1.326 . S
N476 C480 1.362 . S
C477 C478 1.258 . S
C477 C480 1.431 . S
C477 C497 1.449 . S
C478 C477 1.258 . S
C478 C479 1.477 . S
C478 H498 0.931 . S
C479 C475 1.460 . S
C479 C478 1.477 . S
C479 H499 0.930 . S
C480 N476 1.362 . S
C480 C477 1.431 . S
C480 C490 1.476 . S
H481 C475 0.929 . S
C482 O473 1.250 . S
C482 O474 1.258 . S
O483 Mn468 2.162 . S
O483 C471 1.281 . S
O484 Mn468 2.297 . S
O484 C471 1.236 . S
N485 Mn469 2.282 . S
N485 C486 1.328 . S
N485 C490 1.318 . S
C486 N485 1.328 . S
C486 C487 1.457 . S
C486 H491 0.929 . S
C487 C486 1.457 . S
C487 C488 1.291 . S
C487 H500 0.931 . S
C488 C487 1.291 . S
C488 C489 1.373 . S
C488 H501 0.929 . S
C489 C488 1.373 . S
C489 C490 1.396 . S
C489 C496 1.403 . S
C490 C480 1.476 . S
C490 N485 1.318 . S
C490 C489 1.396 . S
H491 C486 0.929 . S
O492 Mn468 2.385 . S
O492 C470 1.234 . S
O493 Mn468 2.209 . S
O493 Mn469 2.215 . S
O493 C470 1.283 . S
O494 Mn468 2.094 . S
O494 C472 1.240 . S
O495 Mn469 2.117 . S
O495 C472 1.264 . S
C496 C489 1.403 . S
C496 C497 1.399 . S
C496 H502 0.929 . S
C497 C477 1.449 . S
C497 C496 1.399 . S
C497 H503 0.930 . S
H498 C478 0.931 . S
H499 C479 0.930 . S
H500 C487 0.931 . S
H501 C488 0.929 . S
H502 C496 0.929 . S
H503 C497 0.930 . S
Mn504 O509 2.095 . S
Mn504 O519 2.162 . S
Mn504 O520 2.297 . S
Mn504 O528 2.385 . S
Mn504 O529 2.209 . S
Mn504 O530 2.094 . S
Mn505 O510 2.121 . S
Mn505 N512 2.257 . S
Mn505 N521 2.282 1_655 S
Mn505 O529 2.215 1_545 S
Mn505 O531 2.117 . S
C506 O528 1.234 . S
C506 O529 1.283 . S
C507 O519 1.281 . S
C507 O520 1.236 . S
C508 O530 1.240 . S
C508 O531 1.264 1_565 S
O509 Mn504 2.095 . S
O509 C518 1.250 1_565 S
O510 Mn505 2.121 . S
O510 C518 1.258 . S
C511 N512 1.326 . S
C511 C515 1.460 . S
C511 H517 0.929 . S
N512 Mn505 2.257 . S
N512 C511 1.326 . S
N512 C516 1.362 1_655 S
C513 C514 1.258 . S
C513 C516 1.431 . S
C513 C533 1.449 . S
C514 C513 1.258 . S
C514 C515 1.477 1_455 S
C514 H534 0.931 . S
C515 C511 1.460 . S
C515 C514 1.477 1_655 S
C515 H535 0.930 . S
C516 N512 1.362 1_455 S
C516 C513 1.431 . S
C516 C526 1.476 . S
H517 C511 0.929 . S
C518 O509 1.250 1_545 S
C518 O510 1.258 . S
O519 Mn504 2.162 . S
O519 C507 1.281 . S
O520 Mn504 2.297 . S
O520 C507 1.236 . S
N521 Mn505 2.282 1_455 S
N521 C522 1.328 . S
N521 C526 1.318 . S
C522 N521 1.328 . S
C522 C523 1.457 1_545 S
C522 H527 0.929 1_545 S
C523 C522 1.457 1_565 S
C523 C524 1.291 1_565 S
C523 H536 0.931 . S
C524 C523 1.291 1_545 S
C524 C525 1.373 . S
C524 H537 0.929 . S
C525 C524 1.373 . S
C525 C526 1.396 . S
C525 C532 1.403 . S
C526 C516 1.476 . S
C526 N521 1.318 . S
C526 C525 1.396 . S
H527 C522 0.929 1_565 S
O528 Mn504 2.385 . S
O528 C506 1.234 . S
O529 Mn504 2.209 . S
O529 Mn505 2.215 1_565 S
O529 C506 1.283 . S
O530 Mn504 2.094 . S
O530 C508 1.240 . S
O531 Mn505 2.117 . S
O531 C508 1.264 1_545 S
C532 C525 1.403 . S
C532 C533 1.399 . S
C532 H538 0.929 . S
C533 C513 1.449 . S
C533 C532 1.399 . S
C533 H539 0.930 . S
H534 C514 0.931 . S
H535 C515 0.930 . S
H536 C523 0.931 . S
H537 C524 0.929 . S
H538 C532 0.929 . S
H539 C533 0.930 . S
Mn540 O545 2.095 . S
Mn540 O555 2.162 . S
Mn540 O556 2.297 . S
Mn540 O564 2.385 . S
Mn540 O565 2.209 . S
Mn540 O566 2.094 . S
Mn541 O546 2.121 . S
Mn541 N548 2.257 . S
Mn541 N557 2.282 . S
Mn541 O565 2.215 . S
Mn541 O567 2.117 . S
C542 O564 1.234 . S
C542 O565 1.283 . S
C543 O555 1.281 . S
C543 O556 1.236 . S
C544 O566 1.240 . S
C544 O567 1.264 . S
O545 Mn540 2.095 . S
O545 C554 1.250 . S
O546 Mn541 2.121 . S
O546 C554 1.258 . S
C547 N548 1.326 . S
C547 C551 1.460 . S
C547 H553 0.929 . S
N548 Mn541 2.257 . S
N548 C547 1.326 . S
N548 C552 1.362 . S
C549 C550 1.258 . S
C549 C552 1.431 . S
C549 C569 1.449 . S
C550 C549 1.258 . S
C550 C551 1.477 . S
C550 H570 0.931 . S
C551 C547 1.460 . S
C551 C550 1.477 . S
C551 H571 0.930 . S
C552 N548 1.362 . S
C552 C549 1.431 . S
C552 C562 1.476 . S
H553 C547 0.929 . S
C554 O545 1.250 . S
C554 O546 1.258 . S
O555 Mn540 2.162 . S
O555 C543 1.281 . S
O556 Mn540 2.297 . S
O556 C543 1.236 . S
N557 Mn541 2.282 . S
N557 C558 1.328 . S
N557 C562 1.318 . S
C558 N557 1.328 . S
C558 C559 1.457 . S
C558 H563 0.929 . S
C559 C558 1.457 . S
C559 C560 1.291 . S
C559 H572 0.931 . S
C560 C559 1.291 . S
C560 C561 1.373 . S
C560 H573 0.929 . S
C561 C560 1.373 . S
C561 C562 1.396 . S
C561 C568 1.403 . S
C562 C552 1.476 . S
C562 N557 1.318 . S
C562 C561 1.396 . S
H563 C558 0.929 . S
O564 Mn540 2.385 . S
O564 C542 1.234 . S
O565 Mn540 2.209 . S
O565 Mn541 2.215 . S
O565 C542 1.283 . S
O566 Mn540 2.094 . S
O566 C544 1.240 . S
O567 Mn541 2.117 . S
O567 C544 1.264 . S
C568 C561 1.403 . S
C568 C569 1.399 . S
C568 H574 0.929 . S
C569 C549 1.449 . S
C569 C568 1.399 . S
C569 H575 0.930 . S
H570 C550 0.931 . S
H571 C551 0.930 . S
H572 C559 0.931 . S
H573 C560 0.929 . S
H574 C568 0.929 . S
H575 C569 0.930 . S
Mn576 O581 2.095 . S
Mn576 O591 2.162 . S
Mn576 O592 2.297 . S
Mn576 O600 2.385 . S
Mn576 O601 2.209 . S
Mn576 O602 2.094 . S
Mn577 O582 2.121 . S
Mn577 N584 2.257 . S
Mn577 N593 2.282 1_655 S
Mn577 O601 2.215 . S
Mn577 O603 2.117 . S
C578 O600 1.234 . S
C578 O601 1.283 . S
C579 O591 1.281 . S
C579 O592 1.236 . S
C580 O602 1.240 . S
C580 O603 1.264 . S
O581 Mn576 2.095 . S
O581 C590 1.250 . S
O582 Mn577 2.121 . S
O582 C590 1.258 . S
C583 N584 1.326 . S
C583 C587 1.460 . S
C583 H589 0.929 . S
N584 Mn577 2.257 . S
N584 C583 1.326 . S
N584 C588 1.362 1_655 S
C585 C586 1.258 . S
C585 C588 1.431 . S
C585 C605 1.449 . S
C586 C585 1.258 . S
C586 C587 1.477 1_455 S
C586 H606 0.931 . S
C587 C583 1.460 . S
C587 C586 1.477 1_655 S
C587 H607 0.930 . S
C588 N584 1.362 1_455 S
C588 C585 1.431 . S
C588 C598 1.476 . S
H589 C583 0.929 . S
C590 O581 1.250 . S
C590 O582 1.258 . S
O591 Mn576 2.162 . S
O591 C579 1.281 . S
O592 Mn576 2.297 . S
O592 C579 1.236 . S
N593 Mn577 2.282 1_455 S
N593 C594 1.328 . S
N593 C598 1.318 . S
C594 N593 1.328 . S
C594 C595 1.457 . S
C594 H599 0.929 . S
C595 C594 1.457 . S
C595 C596 1.291 . S
C595 H608 0.931 . S
C596 C595 1.291 . S
C596 C597 1.373 . S
C596 H609 0.929 . S
C597 C596 1.373 . S
C597 C598 1.396 . S
C597 C604 1.403 . S
C598 C588 1.476 . S
C598 N593 1.318 . S
C598 C597 1.396 . S
H599 C594 0.929 . S
O600 Mn576 2.385 . S
O600 C578 1.234 . S
O601 Mn576 2.209 . S
O601 Mn577 2.215 . S
O601 C578 1.283 . S
O602 Mn576 2.094 . S
O602 C580 1.240 . S
O603 Mn577 2.117 . S
O603 C580 1.264 . S
C604 C597 1.403 . S
C604 C605 1.399 . S
C604 H610 0.929 . S
C605 C585 1.449 . S
C605 C604 1.399 . S
C605 H611 0.930 . S
H606 C586 0.931 . S
H607 C587 0.930 . S
H608 C595 0.931 . S
H609 C596 0.929 . S
H610 C604 0.929 . S
H611 C605 0.930 . S
Mn612 O617 2.095 . S
Mn612 O627 2.162 . S
Mn612 O628 2.297 . S
Mn612 O636 2.385 . S
Mn612 O637 2.209 . S
Mn612 O638 2.094 . S
Mn613 O618 2.121 . S
Mn613 N620 2.257 . S
Mn613 N629 2.282 . S
Mn613 O637 2.215 . S
Mn613 O639 2.117 . S
C614 O636 1.234 . S
C614 O637 1.283 . S
C615 O627 1.281 . S
C615 O628 1.236 . S
C616 O638 1.240 . S
C616 O639 1.264 . S
O617 Mn612 2.095 . S
O617 C626 1.250 . S
O618 Mn613 2.121 . S
O618 C626 1.258 . S
C619 N620 1.326 . S
C619 C623 1.460 . S
C619 H625 0.929 . S
N620 Mn613 2.257 . S
N620 C619 1.326 . S
N620 C624 1.362 . S
C621 C622 1.258 . S
C621 C624 1.431 . S
C621 C641 1.449 . S
C622 C621 1.258 . S
C622 C623 1.477 . S
C622 H642 0.931 . S
C623 C619 1.460 . S
C623 C622 1.477 . S
C623 H643 0.930 . S
C624 N620 1.362 . S
C624 C621 1.431 . S
C624 C634 1.476 . S
H625 C619 0.929 . S
C626 O617 1.250 . S
C626 O618 1.258 . S
O627 Mn612 2.162 . S
O627 C615 1.281 . S
O628 Mn612 2.297 . S
O628 C615 1.236 . S
N629 Mn613 2.282 . S
N629 C630 1.328 . S
N629 C634 1.318 . S
C630 N629 1.328 . S
C630 C631 1.457 . S
C630 H635 0.929 . S
C631 C630 1.457 . S
C631 C632 1.291 . S
C631 H644 0.931 . S
C632 C631 1.291 . S
C632 C633 1.373 . S
C632 H645 0.929 . S
C633 C632 1.373 . S
C633 C634 1.396 . S
C633 C640 1.403 . S
C634 C624 1.476 . S
C634 N629 1.318 . S
C634 C633 1.396 . S
H635 C630 0.929 . S
O636 Mn612 2.385 . S
O636 C614 1.234 . S
O637 Mn612 2.209 . S
O637 Mn613 2.215 . S
O637 C614 1.283 . S
O638 Mn612 2.094 . S
O638 C616 1.240 . S
O639 Mn613 2.117 . S
O639 C616 1.264 . S
C640 C633 1.403 . S
C640 C641 1.399 . S
C640 H646 0.929 . S
C641 C621 1.449 . S
C641 C640 1.399 . S
C641 H647 0.930 . S
H642 C622 0.931 . S
H643 C623 0.930 . S
H644 C631 0.931 . S
H645 C632 0.929 . S
H646 C640 0.929 . S
H647 C641 0.930 . S
Mn648 O653 2.095 . S
Mn648 O663 2.162 . S
Mn648 O664 2.297 . S
Mn648 O672 2.385 . S
Mn648 O673 2.209 . S
Mn648 O674 2.094 . S
Mn649 O654 2.121 . S
Mn649 N656 2.257 . S
Mn649 N665 2.282 . S
Mn649 O673 2.215 . S
Mn649 O675 2.117 . S
C650 O672 1.234 . S
C650 O673 1.283 . S
C651 O663 1.281 . S
C651 O664 1.236 . S
C652 O674 1.240 . S
C652 O675 1.264 . S
O653 Mn648 2.095 . S
O653 C662 1.250 . S
O654 Mn649 2.121 . S
O654 C662 1.258 . S
C655 N656 1.326 . S
C655 C659 1.460 . S
C655 H661 0.929 . S
N656 Mn649 2.257 . S
N656 C655 1.326 . S
N656 C660 1.362 . S
C657 C658 1.258 . S
C657 C660 1.431 . S
C657 C677 1.449 . S
C658 C657 1.258 . S
C658 C659 1.477 . S
C658 H678 0.931 . S
C659 C655 1.460 . S
C659 C658 1.477 . S
C659 H679 0.930 . S
C660 N656 1.362 . S
C660 C657 1.431 . S
C660 C670 1.476 . S
H661 C655 0.929 . S
C662 O653 1.250 . S
C662 O654 1.258 . S
O663 Mn648 2.162 . S
O663 C651 1.281 . S
O664 Mn648 2.297 . S
O664 C651 1.236 . S
N665 Mn649 2.282 . S
N665 C666 1.328 . S
N665 C670 1.318 . S
C666 N665 1.328 . S
C666 C667 1.457 . S
C666 H671 0.929 . S
C667 C666 1.457 . S
C667 C668 1.291 . S
C667 H680 0.931 . S
C668 C667 1.291 . S
C668 C669 1.373 . S
C668 H681 0.929 . S
C669 C668 1.373 . S
C669 C670 1.396 . S
C669 C676 1.403 . S
C670 C660 1.476 . S
C670 N665 1.318 . S
C670 C669 1.396 . S
H671 C666 0.929 . S
O672 Mn648 2.385 . S
O672 C650 1.234 . S
O673 Mn648 2.209 . S
O673 Mn649 2.215 . S
O673 C650 1.283 . S
O674 Mn648 2.094 . S
O674 C652 1.240 . S
O675 Mn649 2.117 . S
O675 C652 1.264 . S
C676 C669 1.403 . S
C676 C677 1.399 . S
C676 H682 0.929 . S
C677 C657 1.449 . S
C677 C676 1.399 . S
C677 H683 0.930 . S
H678 C658 0.931 . S
H679 C659 0.930 . S
H680 C667 0.931 . S
H681 C668 0.929 . S
H682 C676 0.929 . S
H683 C677 0.930 . S
Mn684 O689 2.095 . S
Mn684 O699 2.162 . S
Mn684 O700 2.297 . S
Mn684 O708 2.385 . S
Mn684 O709 2.209 . S
Mn684 O710 2.094 . S
Mn685 O690 2.121 . S
Mn685 N692 2.257 . S
Mn685 N701 2.282 . S
Mn685 O709 2.215 . S
Mn685 O711 2.117 . S
C686 O708 1.234 . S
C686 O709 1.283 . S
C687 O699 1.281 . S
C687 O700 1.236 . S
C688 O710 1.240 . S
C688 O711 1.264 . S
O689 Mn684 2.095 . S
O689 C698 1.250 . S
O690 Mn685 2.121 . S
O690 C698 1.258 . S
C691 N692 1.326 . S
C691 C695 1.460 . S
C691 H697 0.929 . S
N692 Mn685 2.257 . S
N692 C691 1.326 . S
N692 C696 1.362 . S
C693 C694 1.258 . S
C693 C696 1.431 . S
C693 C713 1.449 . S
C694 C693 1.258 . S
C694 C695 1.477 . S
C694 H714 0.931 . S
C695 C691 1.460 . S
C695 C694 1.477 . S
C695 H715 0.930 . S
C696 N692 1.362 . S
C696 C693 1.431 . S
C696 C706 1.476 . S
H697 C691 0.929 . S
C698 O689 1.250 . S
C698 O690 1.258 . S
O699 Mn684 2.162 . S
O699 C687 1.281 . S
O700 Mn684 2.297 . S
O700 C687 1.236 . S
N701 Mn685 2.282 . S
N701 C702 1.328 . S
N701 C706 1.318 . S
C702 N701 1.328 . S
C702 C703 1.457 . S
C702 H707 0.929 . S
C703 C702 1.457 . S
C703 C704 1.291 . S
C703 H716 0.931 . S
C704 C703 1.291 . S
C704 C705 1.373 . S
C704 H717 0.929 . S
C705 C704 1.373 . S
C705 C706 1.396 . S
C705 C712 1.403 . S
C706 C696 1.476 . S
C706 N701 1.318 . S
C706 C705 1.396 . S
H707 C702 0.929 . S
O708 Mn684 2.385 . S
O708 C686 1.234 . S
O709 Mn684 2.209 . S
O709 Mn685 2.215 . S
O709 C686 1.283 . S
O710 Mn684 2.094 . S
O710 C688 1.240 . S
O711 Mn685 2.117 . S
O711 C688 1.264 . S
C712 C705 1.403 . S
C712 C713 1.399 . S
C712 H718 0.929 . S
C713 C693 1.449 . S
C713 C712 1.399 . S
C713 H719 0.930 . S
H714 C694 0.931 . S
H715 C695 0.930 . S
H716 C703 0.931 . S
H717 C704 0.929 . S
H718 C712 0.929 . S
H719 C713 0.930 . S
Mn720 O725 2.095 . S
Mn720 O735 2.162 . S
Mn720 O736 2.297 . S
Mn720 O744 2.385 . S
Mn720 O745 2.209 . S
Mn720 O746 2.094 . S
Mn721 O726 2.121 . S
Mn721 N728 2.257 . S
Mn721 N737 2.282 1_655 S
Mn721 O745 2.215 . S
Mn721 O747 2.117 . S
C722 O744 1.234 . S
C722 O745 1.283 . S
C723 O735 1.281 . S
C723 O736 1.236 . S
C724 O746 1.240 . S
C724 O747 1.264 . S
O725 Mn720 2.095 . S
O725 C734 1.250 . S
O726 Mn721 2.121 . S
O726 C734 1.258 . S
C727 N728 1.326 . S
C727 C731 1.460 . S
C727 H733 0.929 . S
N728 Mn721 2.257 . S
N728 C727 1.326 . S
N728 C732 1.362 1_655 S
C729 C730 1.258 . S
C729 C732 1.431 . S
C729 C749 1.449 . S
C730 C729 1.258 . S
C730 C731 1.477 1_455 S
C730 H750 0.931 . S
C731 C727 1.460 . S
C731 C730 1.477 1_655 S
C731 H751 0.930 . S
C732 N728 1.362 1_455 S
C732 C729 1.431 . S
C732 C742 1.476 . S
H733 C727 0.929 . S
C734 O725 1.250 . S
C734 O726 1.258 . S
O735 Mn720 2.162 . S
O735 C723 1.281 . S
O736 Mn720 2.297 . S
O736 C723 1.236 . S
N737 Mn721 2.282 1_455 S
N737 C738 1.328 . S
N737 C742 1.318 . S
C738 N737 1.328 . S
C738 C739 1.457 . S
C738 H743 0.929 . S
C739 C738 1.457 . S
C739 C740 1.291 . S
C739 H752 0.931 . S
C740 C739 1.291 . S
C740 C741 1.373 . S
C740 H753 0.929 . S
C741 C740 1.373 . S
C741 C742 1.396 . S
C741 C748 1.403 . S
C742 C732 1.476 . S
C742 N737 1.318 . S
C742 C741 1.396 . S
H743 C738 0.929 . S
O744 Mn720 2.385 . S
O744 C722 1.234 . S
O745 Mn720 2.209 . S
O745 Mn721 2.215 . S
O745 C722 1.283 . S
O746 Mn720 2.094 . S
O746 C724 1.240 . S
O747 Mn721 2.117 . S
O747 C724 1.264 . S
C748 C741 1.403 . S
C748 C749 1.399 . S
C748 H754 0.929 . S
C749 C729 1.449 . S
C749 C748 1.399 . S
C749 H755 0.930 . S
H750 C730 0.931 . S
H751 C731 0.930 . S
H752 C739 0.931 . S
H753 C740 0.929 . S
H754 C748 0.929 . S
H755 C749 0.930 . S
Mn756 O761 2.095 . S
Mn756 O771 2.162 . S
Mn756 O772 2.297 . S
Mn756 O780 2.385 . S
Mn756 O781 2.209 . S
Mn756 O782 2.094 . S
Mn757 O762 2.121 . S
Mn757 N764 2.257 . S
Mn757 N773 2.282 . S
Mn757 O781 2.215 . S
Mn757 O783 2.117 . S
C758 O780 1.234 . S
C758 O781 1.283 . S
C759 O771 1.281 . S
C759 O772 1.236 . S
C760 O782 1.240 . S
C760 O783 1.264 . S
O761 Mn756 2.095 . S
O761 C770 1.250 . S
O762 Mn757 2.121 . S
O762 C770 1.258 . S
C763 N764 1.326 . S
C763 C767 1.460 . S
C763 H769 0.929 . S
N764 Mn757 2.257 . S
N764 C763 1.326 . S
N764 C768 1.362 . S
C765 C766 1.258 . S
C765 C768 1.431 . S
C765 C785 1.449 . S
C766 C765 1.258 . S
C766 C767 1.477 . S
C766 H786 0.931 . S
C767 C763 1.460 . S
C767 C766 1.477 . S
C767 H787 0.930 . S
C768 N764 1.362 . S
C768 C765 1.431 . S
C768 C778 1.476 . S
H769 C763 0.929 . S
C770 O761 1.250 . S
C770 O762 1.258 . S
O771 Mn756 2.162 . S
O771 C759 1.281 . S
O772 Mn756 2.297 . S
O772 C759 1.236 . S
N773 Mn757 2.282 . S
N773 C774 1.328 . S
N773 C778 1.318 . S
C774 N773 1.328 . S
C774 C775 1.457 . S
C774 H779 0.929 . S
C775 C774 1.457 . S
C775 C776 1.291 . S
C775 H788 0.931 . S
C776 C775 1.291 . S
C776 C777 1.373 . S
C776 H789 0.929 . S
C777 C776 1.373 . S
C777 C778 1.396 . S
C777 C784 1.403 . S
C778 C768 1.476 . S
C778 N773 1.318 . S
C778 C777 1.396 . S
H779 C774 0.929 . S
O780 Mn756 2.385 . S
O780 C758 1.234 . S
O781 Mn756 2.209 . S
O781 Mn757 2.215 . S
O781 C758 1.283 . S
O782 Mn756 2.094 . S
O782 C760 1.240 . S
O783 Mn757 2.117 . S
O783 C760 1.264 . S
C784 C777 1.403 . S
C784 C785 1.399 . S
C784 H790 0.929 . S
C785 C765 1.449 . S
C785 C784 1.399 . S
C785 H791 0.930 . S
H786 C766 0.931 . S
H787 C767 0.930 . S
H788 C775 0.931 . S
H789 C776 0.929 . S
H790 C784 0.929 . S
H791 C785 0.930 . S
Mn792 O797 2.095 . S
Mn792 O807 2.162 . S
Mn792 O808 2.297 . S
Mn792 O816 2.385 . S
Mn792 O817 2.209 . S
Mn792 O818 2.094 . S
Mn793 O798 2.121 . S
Mn793 N800 2.257 . S
Mn793 N809 2.282 . S
Mn793 O817 2.215 . S
Mn793 O819 2.117 . S
C794 O816 1.234 . S
C794 O817 1.283 . S
C795 O807 1.281 . S
C795 O808 1.236 . S
C796 O818 1.240 . S
C796 O819 1.264 . S
O797 Mn792 2.095 . S
O797 C806 1.250 . S
O798 Mn793 2.121 . S
O798 C806 1.258 . S
C799 N800 1.326 . S
C799 C803 1.460 . S
C799 H805 0.929 . S
N800 Mn793 2.257 . S
N800 C799 1.326 . S
N800 C804 1.362 . S
C801 C802 1.258 . S
C801 C804 1.431 . S
C801 C821 1.449 . S
C802 C801 1.258 . S
C802 C803 1.477 . S
C802 H822 0.931 . S
C803 C799 1.460 . S
C803 C802 1.477 . S
C803 H823 0.930 . S
C804 N800 1.362 . S
C804 C801 1.431 . S
C804 C814 1.476 . S
H805 C799 0.929 . S
C806 O797 1.250 . S
C806 O798 1.258 . S
O807 Mn792 2.162 . S
O807 C795 1.281 . S
O808 Mn792 2.297 . S
O808 C795 1.236 . S
N809 Mn793 2.282 . S
N809 C810 1.328 . S
N809 C814 1.318 . S
C810 N809 1.328 . S
C810 C811 1.457 . S
C810 H815 0.929 . S
C811 C810 1.457 . S
C811 C812 1.291 . S
C811 H824 0.931 . S
C812 C811 1.291 . S
C812 C813 1.373 . S
C812 H825 0.929 . S
C813 C812 1.373 . S
C813 C814 1.396 . S
C813 C820 1.403 . S
C814 C804 1.476 . S
C814 N809 1.318 . S
C814 C813 1.396 . S
H815 C810 0.929 . S
O816 Mn792 2.385 . S
O816 C794 1.234 . S
O817 Mn792 2.209 . S
O817 Mn793 2.215 . S
O817 C794 1.283 . S
O818 Mn792 2.094 . S
O818 C796 1.240 . S
O819 Mn793 2.117 . S
O819 C796 1.264 . S
C820 C813 1.403 . S
C820 C821 1.399 . S
C820 H826 0.929 . S
C821 C801 1.449 . S
C821 C820 1.399 . S
C821 H827 0.930 . S
H822 C802 0.931 . S
H823 C803 0.930 . S
H824 C811 0.931 . S
H825 C812 0.929 . S
H826 C820 0.929 . S
H827 C821 0.930 . S
Mn828 O833 2.095 . S
Mn828 O843 2.162 . S
Mn828 O844 2.297 . S
Mn828 O852 2.385 . S
Mn828 O853 2.209 . S
Mn828 O854 2.094 . S
Mn829 O834 2.121 . S
Mn829 N836 2.257 . S
Mn829 N845 2.282 . S
Mn829 O853 2.215 . S
Mn829 O855 2.117 . S
C830 O852 1.234 . S
C830 O853 1.283 . S
C831 O843 1.281 . S
C831 O844 1.236 . S
C832 O854 1.240 . S
C832 O855 1.264 . S
O833 Mn828 2.095 . S
O833 C842 1.250 . S
O834 Mn829 2.121 . S
O834 C842 1.258 . S
C835 N836 1.326 . S
C835 C839 1.460 . S
C835 H841 0.929 . S
N836 Mn829 2.257 . S
N836 C835 1.326 . S
N836 C840 1.362 . S
C837 C838 1.258 . S
C837 C840 1.431 . S
C837 C857 1.449 . S
C838 C837 1.258 . S
C838 C839 1.477 . S
C838 H858 0.931 . S
C839 C835 1.460 . S
C839 C838 1.477 . S
C839 H859 0.930 . S
C840 N836 1.362 . S
C840 C837 1.431 . S
C840 C850 1.476 . S
H841 C835 0.929 . S
C842 O833 1.250 . S
C842 O834 1.258 . S
O843 Mn828 2.162 . S
O843 C831 1.281 . S
O844 Mn828 2.297 . S
O844 C831 1.236 . S
N845 Mn829 2.282 . S
N845 C846 1.328 . S
N845 C850 1.318 . S
C846 N845 1.328 . S
C846 C847 1.457 . S
C846 H851 0.929 . S
C847 C846 1.457 . S
C847 C848 1.291 . S
C847 H860 0.931 . S
C848 C847 1.291 . S
C848 C849 1.373 . S
C848 H861 0.929 . S
C849 C848 1.373 . S
C849 C850 1.396 . S
C849 C856 1.403 . S
C850 C840 1.476 . S
C850 N845 1.318 . S
C850 C849 1.396 . S
H851 C846 0.929 . S
O852 Mn828 2.385 . S
O852 C830 1.234 . S
O853 Mn828 2.209 . S
O853 Mn829 2.215 . S
O853 C830 1.283 . S
O854 Mn828 2.094 . S
O854 C832 1.240 . S
O855 Mn829 2.117 . S
O855 C832 1.264 . S
C856 C849 1.403 . S
C856 C857 1.399 . S
C856 H862 0.929 . S
C857 C837 1.449 . S
C857 C856 1.399 . S
C857 H863 0.930 . S
H858 C838 0.931 . S
H859 C839 0.930 . S
H860 C847 0.931 . S
H861 C848 0.929 . S
H862 C856 0.929 . S
H863 C857 0.930 . S
Mn864 O869 2.095 . S
Mn864 O879 2.162 . S
Mn864 O880 2.297 . S
Mn864 O888 2.385 . S
Mn864 O889 2.209 . S
Mn864 O890 2.094 . S
Mn865 O870 2.121 . S
Mn865 N872 2.257 . S
Mn865 N881 2.282 1_455 S
Mn865 O889 2.215 . S
Mn865 O891 2.117 . S
C866 O888 1.234 . S
C866 O889 1.283 . S
C867 O879 1.281 . S
C867 O880 1.236 . S
C868 O890 1.240 . S
C868 O891 1.264 . S
O869 Mn864 2.095 . S
O869 C878 1.250 . S
O870 Mn865 2.121 . S
O870 C878 1.258 . S
C871 N872 1.326 . S
C871 C875 1.460 . S
C871 H877 0.929 . S
N872 Mn865 2.257 . S
N872 C871 1.326 . S
N872 C876 1.362 1_455 S
C873 C874 1.258 . S
C873 C876 1.431 . S
C873 C893 1.449 . S
C874 C873 1.258 . S
C874 C875 1.477 1_655 S
C874 H894 0.931 . S
C875 C871 1.460 . S
C875 C874 1.477 1_455 S
C875 H895 0.930 . S
C876 N872 1.362 1_655 S
C876 C873 1.431 . S
C876 C886 1.476 . S
H877 C871 0.929 . S
C878 O869 1.250 . S
C878 O870 1.258 . S
O879 Mn864 2.162 . S
O879 C867 1.281 . S
O880 Mn864 2.297 . S
O880 C867 1.236 . S
N881 Mn865 2.282 1_655 S
N881 C882 1.328 . S
N881 C886 1.318 . S
C882 N881 1.328 . S
C882 C883 1.457 . S
C882 H887 0.929 . S
C883 C882 1.457 . S
C883 C884 1.291 . S
C883 H896 0.931 . S
C884 C883 1.291 . S
C884 C885 1.373 . S
C884 H897 0.929 . S
C885 C884 1.373 . S
C885 C886 1.396 . S
C885 C892 1.403 . S
C886 C876 1.476 . S
C886 N881 1.318 . S
C886 C885 1.396 . S
H887 C882 0.929 . S
O888 Mn864 2.385 . S
O888 C866 1.234 . S
O889 Mn864 2.209 . S
O889 Mn865 2.215 . S
O889 C866 1.283 . S
O890 Mn864 2.094 . S
O890 C868 1.240 . S
O891 Mn865 2.117 . S
O891 C868 1.264 . S
C892 C885 1.403 . S
C892 C893 1.399 . S
C892 H898 0.929 . S
C893 C873 1.449 . S
C893 C892 1.399 . S
C893 H899 0.930 . S
H894 C874 0.931 . S
H895 C875 0.930 . S
H896 C883 0.931 . S
H897 C884 0.929 . S
H898 C892 0.929 . S
H899 C893 0.930 . S
Mn900 O905 2.095 . S
Mn900 O915 2.162 . S
Mn900 O916 2.297 . S
Mn900 O924 2.385 . S
Mn900 O925 2.209 . S
Mn900 O926 2.094 . S
Mn901 O906 2.121 . S
Mn901 N908 2.257 . S
Mn901 N917 2.282 . S
Mn901 O925 2.215 . S
Mn901 O927 2.117 . S
C902 O924 1.234 . S
C902 O925 1.283 . S
C903 O915 1.281 . S
C903 O916 1.236 . S
C904 O926 1.240 . S
C904 O927 1.264 . S
O905 Mn900 2.095 . S
O905 C914 1.250 . S
O906 Mn901 2.121 . S
O906 C914 1.258 . S
C907 N908 1.326 . S
C907 C911 1.460 . S
C907 H913 0.929 . S
N908 Mn901 2.257 . S
N908 C907 1.326 . S
N908 C912 1.362 . S
C909 C910 1.258 . S
C909 C912 1.431 . S
C909 C929 1.449 . S
C910 C909 1.258 . S
C910 C911 1.477 . S
C910 H930 0.931 . S
C911 C907 1.460 . S
C911 C910 1.477 . S
C911 H931 0.930 . S
C912 N908 1.362 . S
C912 C909 1.431 . S
C912 C922 1.476 . S
H913 C907 0.929 . S
C914 O905 1.250 . S
C914 O906 1.258 . S
O915 Mn900 2.162 . S
O915 C903 1.281 . S
O916 Mn900 2.297 . S
O916 C903 1.236 . S
N917 Mn901 2.282 . S
N917 C918 1.328 . S
N917 C922 1.318 . S
C918 N917 1.328 . S
C918 C919 1.457 . S
C918 H923 0.929 . S
C919 C918 1.457 . S
C919 C920 1.291 . S
C919 H932 0.931 . S
C920 C919 1.291 . S
C920 C921 1.373 . S
C920 H933 0.929 . S
C921 C920 1.373 . S
C921 C922 1.396 . S
C921 C928 1.403 . S
C922 C912 1.476 . S
C922 N917 1.318 . S
C922 C921 1.396 . S
H923 C918 0.929 . S
O924 Mn900 2.385 . S
O924 C902 1.234 . S
O925 Mn900 2.209 . S
O925 Mn901 2.215 . S
O925 C902 1.283 . S
O926 Mn900 2.094 . S
O926 C904 1.240 . S
O927 Mn901 2.117 . S
O927 C904 1.264 . S
C928 C921 1.403 . S
C928 C929 1.399 . S
C928 H934 0.929 . S
C929 C909 1.449 . S
C929 C928 1.399 . S
C929 H935 0.930 . S
H930 C910 0.931 . S
H931 C911 0.930 . S
H932 C919 0.931 . S
H933 C920 0.929 . S
H934 C928 0.929 . S
H935 C929 0.930 . S
Mn936 O941 2.095 . S
Mn936 O951 2.162 . S
Mn936 O952 2.297 . S
Mn936 O960 2.385 . S
Mn936 O961 2.209 . S
Mn936 O962 2.094 . S
Mn937 O942 2.121 . S
Mn937 N944 2.257 . S
Mn937 N953 2.282 . S
Mn937 O961 2.215 . S
Mn937 O963 2.117 . S
C938 O960 1.234 . S
C938 O961 1.283 . S
C939 O951 1.281 . S
C939 O952 1.236 . S
C940 O962 1.240 . S
C940 O963 1.264 . S
O941 Mn936 2.095 . S
O941 C950 1.250 . S
O942 Mn937 2.121 . S
O942 C950 1.258 . S
C943 N944 1.326 . S
C943 C947 1.460 . S
C943 H949 0.929 . S
N944 Mn937 2.257 . S
N944 C943 1.326 . S
N944 C948 1.362 . S
C945 C946 1.258 . S
C945 C948 1.431 . S
C945 C965 1.449 . S
C946 C945 1.258 . S
C946 C947 1.477 . S
C946 H966 0.931 . S
C947 C943 1.460 . S
C947 C946 1.477 . S
C947 H967 0.930 . S
C948 N944 1.362 . S
C948 C945 1.431 . S
C948 C958 1.476 . S
H949 C943 0.929 . S
C950 O941 1.250 . S
C950 O942 1.258 . S
O951 Mn936 2.162 . S
O951 C939 1.281 . S
O952 Mn936 2.297 . S
O952 C939 1.236 . S
N953 Mn937 2.282 . S
N953 C954 1.328 . S
N953 C958 1.318 . S
C954 N953 1.328 . S
C954 C955 1.457 . S
C954 H959 0.929 . S
C955 C954 1.457 . S
C955 C956 1.291 . S
C955 H968 0.931 . S
C956 C955 1.291 . S
C956 C957 1.373 . S
C956 H969 0.929 . S
C957 C956 1.373 . S
C957 C958 1.396 . S
C957 C964 1.403 . S
C958 C948 1.476 . S
C958 N953 1.318 . S
C958 C957 1.396 . S
H959 C954 0.929 . S
O960 Mn936 2.385 . S
O960 C938 1.234 . S
O961 Mn936 2.209 . S
O961 Mn937 2.215 . S
O961 C938 1.283 . S
O962 Mn936 2.094 . S
O962 C940 1.240 . S
O963 Mn937 2.117 . S
O963 C940 1.264 . S
C964 C957 1.403 . S
C964 C965 1.399 . S
C964 H970 0.929 . S
C965 C945 1.449 . S
C965 C964 1.399 . S
C965 H971 0.930 . S
H966 C946 0.931 . S
H967 C947 0.930 . S
H968 C955 0.931 . S
H969 C956 0.929 . S
H970 C964 0.929 . S
H971 C965 0.930 . S
Mn972 O977 2.095 . S
Mn972 O987 2.162 . S
Mn972 O988 2.297 . S
Mn972 O996 2.385 . S
Mn972 O997 2.209 . S
Mn972 O998 2.094 . S
Mn973 O978 2.121 . S
Mn973 N980 2.257 . S
Mn973 N989 2.282 . S
Mn973 O997 2.215 . S
Mn973 O999 2.117 . S
C974 O996 1.234 . S
C974 O997 1.283 . S
C975 O987 1.281 . S
C975 O988 1.236 . S
C976 O998 1.240 . S
C976 O999 1.264 . S
O977 Mn972 2.095 . S
O977 C986 1.250 . S
O978 Mn973 2.121 . S
O978 C986 1.258 . S
C979 N980 1.326 . S
C979 C983 1.460 . S
C979 H985 0.929 . S
N980 Mn973 2.257 . S
N980 C979 1.326 . S
N980 C984 1.362 . S
C981 C982 1.258 . S
C981 C984 1.431 . S
C981 C1001 1.449 . S
C982 C981 1.258 . S
C982 C983 1.477 . S
C982 H1002 0.931 . S
C983 C979 1.460 . S
C983 C982 1.477 . S
C983 H1003 0.930 . S
C984 N980 1.362 . S
C984 C981 1.431 . S
C984 C994 1.476 . S
H985 C979 0.929 . S
C986 O977 1.250 . S
C986 O978 1.258 . S
O987 Mn972 2.162 . S
O987 C975 1.281 . S
O988 Mn972 2.297 . S
O988 C975 1.236 . S
N989 Mn973 2.282 . S
N989 C990 1.328 . S
N989 C994 1.318 . S
C990 N989 1.328 . S
C990 C991 1.457 . S
C990 H995 0.929 . S
C991 C990 1.457 . S
C991 C992 1.291 . S
C991 H1004 0.931 . S
C992 C991 1.291 . S
C992 C993 1.373 . S
C992 H1005 0.929 . S
C993 C992 1.373 . S
C993 C994 1.396 . S
C993 C1000 1.403 . S
C994 C984 1.476 . S
C994 N989 1.318 . S
C994 C993 1.396 . S
H995 C990 0.929 . S
O996 Mn972 2.385 . S
O996 C974 1.234 . S
O997 Mn972 2.209 . S
O997 Mn973 2.215 . S
O997 C974 1.283 . S
O998 Mn972 2.094 . S
O998 C976 1.240 . S
O999 Mn973 2.117 . S
O999 C976 1.264 . S
C1000 C993 1.403 . S
C1000 C1001 1.399 . S
C1000 H1006 0.929 . S
C1001 C981 1.449 . S
C1001 C1000 1.399 . S
C1001 H1007 0.930 . S
H1002 C982 0.931 . S
H1003 C983 0.930 . S
H1004 C991 0.931 . S
H1005 C992 0.929 . S
H1006 C1000 0.929 . S
H1007 C1001 0.930 . S
Mn1008 O1013 2.095 . S
Mn1008 O1023 2.162 . S
Mn1008 O1024 2.297 . S
Mn1008 O1032 2.385 . S
Mn1008 O1033 2.209 . S
Mn1008 O1034 2.094 . S
Mn1009 O1014 2.121 . S
Mn1009 N1016 2.257 . S
Mn1009 N1025 2.282 1_455 S
Mn1009 O1033 2.215 . S
Mn1009 O1035 2.117 . S
C1010 O1032 1.234 . S
C1010 O1033 1.283 . S
C1011 O1023 1.281 . S
C1011 O1024 1.236 . S
C1012 O1034 1.240 . S
C1012 O1035 1.264 . S
O1013 Mn1008 2.095 . S
O1013 C1022 1.250 . S
O1014 Mn1009 2.121 . S
O1014 C1022 1.258 . S
C1015 N1016 1.326 . S
C1015 C1019 1.460 . S
C1015 H1021 0.929 . S
N1016 Mn1009 2.257 . S
N1016 C1015 1.326 . S
N1016 C1020 1.362 1_455 S
C1017 C1018 1.258 . S
C1017 C1020 1.431 . S
C1017 C1037 1.449 . S
C1018 C1017 1.258 . S
C1018 C1019 1.477 1_655 S
C1018 H1038 0.931 . S
C1019 C1015 1.460 . S
C1019 C1018 1.477 1_455 S
C1019 H1039 0.930 . S
C1020 N1016 1.362 1_655 S
C1020 C1017 1.431 . S
C1020 C1030 1.476 . S
H1021 C1015 0.929 . S
C1022 O1013 1.250 . S
C1022 O1014 1.258 . S
O1023 Mn1008 2.162 . S
O1023 C1011 1.281 . S
O1024 Mn1008 2.297 . S
O1024 C1011 1.236 . S
N1025 Mn1009 2.282 1_655 S
N1025 C1026 1.328 . S
N1025 C1030 1.318 . S
C1026 N1025 1.328 . S
C1026 C1027 1.457 . S
C1026 H1031 0.929 . S
C1027 C1026 1.457 . S
C1027 C1028 1.291 . S
C1027 H1040 0.931 . S
C1028 C1027 1.291 . S
C1028 C1029 1.373 . S
C1028 H1041 0.929 . S
C1029 C1028 1.373 . S
C1029 C1030 1.396 . S
C1029 C1036 1.403 . S
C1030 C1020 1.476 . S
C1030 N1025 1.318 . S
C1030 C1029 1.396 . S
H1031 C1026 0.929 . S
O1032 Mn1008 2.385 . S
O1032 C1010 1.234 . S
O1033 Mn1008 2.209 . S
O1033 Mn1009 2.215 . S
O1033 C1010 1.283 . S
O1034 Mn1008 2.094 . S
O1034 C1012 1.240 . S
O1035 Mn1009 2.117 . S
O1035 C1012 1.264 . S
C1036 C1029 1.403 . S
C1036 C1037 1.399 . S
C1036 H1042 0.929 . S
C1037 C1017 1.449 . S
C1037 C1036 1.399 . S
C1037 H1043 0.930 . S
H1038 C1018 0.931 . S
H1039 C1019 0.930 . S
H1040 C1027 0.931 . S
H1041 C1028 0.929 . S
H1042 C1036 0.929 . S
H1043 C1037 0.930 . S
Mn1044 O1049 2.095 . S
Mn1044 O1059 2.162 . S
Mn1044 O1060 2.297 . S
Mn1044 O1068 2.385 . S
Mn1044 O1069 2.209 . S
Mn1044 O1070 2.094 . S
Mn1045 O1050 2.121 . S
Mn1045 N1052 2.257 . S
Mn1045 N1061 2.282 . S
Mn1045 O1069 2.215 . S
Mn1045 O1071 2.117 . S
C1046 O1068 1.234 . S
C1046 O1069 1.283 . S
C1047 O1059 1.281 . S
C1047 O1060 1.236 . S
C1048 O1070 1.240 . S
C1048 O1071 1.264 . S
O1049 Mn1044 2.095 . S
O1049 C1058 1.250 . S
O1050 Mn1045 2.121 . S
O1050 C1058 1.258 . S
C1051 N1052 1.326 . S
C1051 C1055 1.460 . S
C1051 H1057 0.929 . S
N1052 Mn1045 2.257 . S
N1052 C1051 1.326 . S
N1052 C1056 1.362 . S
C1053 C1054 1.258 . S
C1053 C1056 1.431 . S
C1053 C1073 1.449 . S
C1054 C1053 1.258 . S
C1054 C1055 1.477 . S
C1054 H1074 0.931 . S
C1055 C1051 1.460 . S
C1055 C1054 1.477 . S
C1055 H1075 0.930 . S
C1056 N1052 1.362 . S
C1056 C1053 1.431 . S
C1056 C1066 1.476 . S
H1057 C1051 0.929 . S
C1058 O1049 1.250 . S
C1058 O1050 1.258 . S
O1059 Mn1044 2.162 . S
O1059 C1047 1.281 . S
O1060 Mn1044 2.297 . S
O1060 C1047 1.236 . S
N1061 Mn1045 2.282 . S
N1061 C1062 1.328 . S
N1061 C1066 1.318 . S
C1062 N1061 1.328 . S
C1062 C1063 1.457 . S
C1062 H1067 0.929 . S
C1063 C1062 1.457 . S
C1063 C1064 1.291 . S
C1063 H1076 0.931 . S
C1064 C1063 1.291 . S
C1064 C1065 1.373 . S
C1064 H1077 0.929 . S
C1065 C1064 1.373 . S
C1065 C1066 1.396 . S
C1065 C1072 1.403 . S
C1066 C1056 1.476 . S
C1066 N1061 1.318 . S
C1066 C1065 1.396 . S
H1067 C1062 0.929 . S
O1068 Mn1044 2.385 . S
O1068 C1046 1.234 . S
O1069 Mn1044 2.209 . S
O1069 Mn1045 2.215 . S
O1069 C1046 1.283 . S
O1070 Mn1044 2.094 . S
O1070 C1048 1.240 . S
O1071 Mn1045 2.117 . S
O1071 C1048 1.264 . S
C1072 C1065 1.403 . S
C1072 C1073 1.399 . S
C1072 H1078 0.929 . S
C1073 C1053 1.449 . S
C1073 C1072 1.399 . S
C1073 H1079 0.930 . S
H1074 C1054 0.931 . S
H1075 C1055 0.930 . S
H1076 C1063 0.931 . S
H1077 C1064 0.929 . S
H1078 C1072 0.929 . S
H1079 C1073 0.930 . S
Mn1080 O1085 2.095 . S
Mn1080 O1095 2.162 . S
Mn1080 O1096 2.297 . S
Mn1080 O1104 2.385 . S
Mn1080 O1105 2.209 . S
Mn1080 O1106 2.094 . S
Mn1081 O1086 2.121 . S
Mn1081 N1088 2.257 . S
Mn1081 N1097 2.282 . S
Mn1081 O1105 2.215 . S
Mn1081 O1107 2.117 . S
C1082 O1104 1.234 . S
C1082 O1105 1.283 . S
C1083 O1095 1.281 . S
C1083 O1096 1.236 . S
C1084 O1106 1.240 . S
C1084 O1107 1.264 . S
O1085 Mn1080 2.095 . S
O1085 C1094 1.250 . S
O1086 Mn1081 2.121 . S
O1086 C1094 1.258 . S
C1087 N1088 1.326 . S
C1087 C1091 1.460 . S
C1087 H1093 0.929 . S
N1088 Mn1081 2.257 . S
N1088 C1087 1.326 . S
N1088 C1092 1.362 . S
C1089 C1090 1.258 . S
C1089 C1092 1.431 . S
C1089 C1109 1.449 . S
C1090 C1089 1.258 . S
C1090 C1091 1.477 . S
C1090 H1110 0.931 . S
C1091 C1087 1.460 . S
C1091 C1090 1.477 . S
C1091 H1111 0.930 . S
C1092 N1088 1.362 . S
C1092 C1089 1.431 . S
C1092 C1102 1.476 . S
H1093 C1087 0.929 . S
C1094 O1085 1.250 . S
C1094 O1086 1.258 . S
O1095 Mn1080 2.162 . S
O1095 C1083 1.281 . S
O1096 Mn1080 2.297 . S
O1096 C1083 1.236 . S
N1097 Mn1081 2.282 . S
N1097 C1098 1.328 . S
N1097 C1102 1.318 . S
C1098 N1097 1.328 . S
C1098 C1099 1.457 . S
C1098 H1103 0.929 . S
C1099 C1098 1.457 . S
C1099 C1100 1.291 . S
C1099 H1112 0.931 . S
C1100 C1099 1.291 . S
C1100 C1101 1.373 . S
C1100 H1113 0.929 . S
C1101 C1100 1.373 . S
C1101 C1102 1.396 . S
C1101 C1108 1.403 . S
C1102 C1092 1.476 . S
C1102 N1097 1.318 . S
C1102 C1101 1.396 . S
H1103 C1098 0.929 . S
O1104 Mn1080 2.385 . S
O1104 C1082 1.234 . S
O1105 Mn1080 2.209 . S
O1105 Mn1081 2.215 . S
O1105 C1082 1.283 . S
O1106 Mn1080 2.094 . S
O1106 C1084 1.240 . S
O1107 Mn1081 2.117 . S
O1107 C1084 1.264 . S
C1108 C1101 1.403 . S
C1108 C1109 1.399 . S
C1108 H1114 0.929 . S
C1109 C1089 1.449 . S
C1109 C1108 1.399 . S
C1109 H1115 0.930 . S
H1110 C1090 0.931 . S
H1111 C1091 0.930 . S
H1112 C1099 0.931 . S
H1113 C1100 0.929 . S
H1114 C1108 0.929 . S
H1115 C1109 0.930 . S
Mn1116 O1121 2.095 . S
Mn1116 O1131 2.162 . S
Mn1116 O1132 2.297 . S
Mn1116 O1140 2.385 . S
Mn1116 O1141 2.209 . S
Mn1116 O1142 2.094 . S
Mn1117 O1122 2.121 . S
Mn1117 N1124 2.257 . S
Mn1117 N1133 2.282 . S
Mn1117 O1141 2.215 . S
Mn1117 O1143 2.117 . S
C1118 O1140 1.234 . S
C1118 O1141 1.283 . S
C1119 O1131 1.281 . S
C1119 O1132 1.236 . S
C1120 O1142 1.240 . S
C1120 O1143 1.264 . S
O1121 Mn1116 2.095 . S
O1121 C1130 1.250 . S
O1122 Mn1117 2.121 . S
O1122 C1130 1.258 . S
C1123 N1124 1.326 . S
C1123 C1127 1.460 . S
C1123 H1129 0.929 . S
N1124 Mn1117 2.257 . S
N1124 C1123 1.326 . S
N1124 C1128 1.362 . S
C1125 C1126 1.258 . S
C1125 C1128 1.431 . S
C1125 C1145 1.449 . S
C1126 C1125 1.258 . S
C1126 C1127 1.477 . S
C1126 H1146 0.931 . S
C1127 C1123 1.460 . S
C1127 C1126 1.477 . S
C1127 H1147 0.930 . S
C1128 N1124 1.362 . S
C1128 C1125 1.431 . S
C1128 C1138 1.476 . S
H1129 C1123 0.929 . S
C1130 O1121 1.250 . S
C1130 O1122 1.258 . S
O1131 Mn1116 2.162 . S
O1131 C1119 1.281 . S
O1132 Mn1116 2.297 . S
O1132 C1119 1.236 . S
N1133 Mn1117 2.282 . S
N1133 C1134 1.328 . S
N1133 C1138 1.318 . S
C1134 N1133 1.328 . S
C1134 C1135 1.457 . S
C1134 H1139 0.929 . S
C1135 C1134 1.457 . S
C1135 C1136 1.291 . S
C1135 H1148 0.931 . S
C1136 C1135 1.291 . S
C1136 C1137 1.373 . S
C1136 H1149 0.929 . S
C1137 C1136 1.373 . S
C1137 C1138 1.396 . S
C1137 C1144 1.403 . S
C1138 C1128 1.476 . S
C1138 N1133 1.318 . S
C1138 C1137 1.396 . S
H1139 C1134 0.929 . S
O1140 Mn1116 2.385 . S
O1140 C1118 1.234 . S
O1141 Mn1116 2.209 . S
O1141 Mn1117 2.215 . S
O1141 C1118 1.283 . S
O1142 Mn1116 2.094 . S
O1142 C1120 1.240 . S
O1143 Mn1117 2.117 . S
O1143 C1120 1.264 . S
C1144 C1137 1.403 . S
C1144 C1145 1.399 . S
C1144 H1150 0.929 . S
C1145 C1125 1.449 . S
C1145 C1144 1.399 . S
C1145 H1151 0.930 . S
H1146 C1126 0.931 . S
H1147 C1127 0.930 . S
H1148 C1135 0.931 . S
H1149 C1136 0.929 . S
H1150 C1144 0.929 . S
H1151 C1145 0.930 . S
C1152 C1153 1.387 . S
C1152 H1156 0.950 . S
C1152 C1161 1.390 1_565 S
C1153 C1152 1.387 . S
C1153 C1155 1.387 . S
H1154 C1161 0.950 . S
C1155 C1153 1.387 . S
C1155 C1157 1.390 1_565 S
C1155 H1159 0.950 . S
H1156 C1152 0.950 . S
C1157 C1155 1.390 1_545 S
C1157 C1158 1.387 . S
C1157 H1160 0.950 . S
C1158 C1157 1.387 . S
C1158 C1161 1.387 . S
H1159 C1155 0.950 . S
H1160 C1157 0.950 . S
C1161 C1152 1.390 1_545 S
C1161 H1154 0.950 . S
C1161 C1158 1.387 . S
C1162 C1163 1.387 . S
C1162 H1166 0.950 . S
C1162 C1171 1.390 . S
C1163 C1162 1.387 . S
C1163 C1165 1.387 . S
H1164 C1171 0.950 . S
C1165 C1163 1.387 . S
C1165 C1167 1.390 . S
C1165 H1169 0.950 . S
H1166 C1162 0.950 . S
C1167 C1165 1.390 . S
C1167 C1168 1.387 . S
C1167 H1170 0.950 . S
C1168 C1167 1.387 . S
C1168 C1171 1.387 . S
H1169 C1165 0.950 . S
H1170 C1167 0.950 . S
C1171 C1162 1.390 . S
C1171 H1164 0.950 . S
C1171 C1168 1.387 . S
C1172 C1173 1.387 . S
C1172 H1176 0.950 . S
C1172 C1181 1.390 1_545 S
C1173 C1172 1.387 . S
C1173 C1175 1.387 . S
H1174 C1181 0.950 . S
C1175 C1173 1.387 . S
C1175 C1177 1.390 1_545 S
C1175 H1179 0.950 . S
H1176 C1172 0.950 . S
C1177 C1175 1.390 1_565 S
C1177 C1178 1.387 . S
C1177 H1180 0.950 . S
C1178 C1177 1.387 . S
C1178 C1181 1.387 . S
H1179 C1175 0.950 . S
H1180 C1177 0.950 . S
C1181 C1172 1.390 1_565 S
C1181 H1174 0.950 . S
C1181 C1178 1.387 . S
C1182 C1183 1.387 . S
C1182 H1186 0.950 . S
C1182 C1191 1.390 1_556 S
C1183 C1182 1.387 . S
C1183 C1185 1.387 . S
H1184 C1191 0.950 . S
C1185 C1183 1.387 . S
C1185 C1187 1.390 1_556 S
C1185 H1189 0.950 . S
H1186 C1182 0.950 . S
C1187 C1185 1.390 1_554 S
C1187 C1188 1.387 . S
C1187 H1190 0.950 . S
C1188 C1187 1.387 . S
C1188 C1191 1.387 . S
H1189 C1185 0.950 . S
H1190 C1187 0.950 . S
C1191 C1182 1.390 1_554 S
C1191 H1184 0.950 . S
C1191 C1188 1.387 . S
C1192 C1193 1.387 . S
C1192 H1196 0.950 . S
C1192 C1201 1.390 1_565 S
C1193 C1192 1.387 . S
C1193 C1195 1.387 . S
H1194 C1201 0.950 . S
C1195 C1193 1.387 . S
C1195 C1197 1.390 1_565 S
C1195 H1199 0.950 . S
H1196 C1192 0.950 . S
C1197 C1195 1.390 1_545 S
C1197 C1198 1.387 . S
C1197 H1200 0.950 . S
C1198 C1197 1.387 . S
C1198 C1201 1.387 . S
H1199 C1195 0.950 . S
H1200 C1197 0.950 . S
C1201 C1192 1.390 1_545 S
C1201 H1194 0.950 . S
C1201 C1198 1.387 . S
C1202 C1203 1.387 . S
C1202 H1206 0.950 . S
C1202 C1211 1.390 . S
C1203 C1202 1.387 . S
C1203 C1205 1.387 . S
H1204 C1211 0.950 . S
C1205 C1203 1.387 . S
C1205 C1207 1.390 . S
C1205 H1209 0.950 . S
H1206 C1202 0.950 . S
C1207 C1205 1.390 . S
C1207 C1208 1.387 . S
C1207 H1210 0.950 . S
C1208 C1207 1.387 . S
C1208 C1211 1.387 . S
H1209 C1205 0.950 . S
H1210 C1207 0.950 . S
C1211 C1202 1.390 . S
C1211 H1204 0.950 . S
C1211 C1208 1.387 . S
C1212 C1213 1.387 . S
C1212 H1216 0.950 . S
C1212 C1221 1.390 1_545 S
C1213 C1212 1.387 . S
C1213 C1215 1.387 . S
H1214 C1221 0.950 . S
C1215 C1213 1.387 . S
C1215 C1217 1.390 1_545 S
C1215 H1219 0.950 . S
H1216 C1212 0.950 . S
C1217 C1215 1.390 1_565 S
C1217 C1218 1.387 . S
C1217 H1220 0.950 . S
C1218 C1217 1.387 . S
C1218 C1221 1.387 . S
H1219 C1215 0.950 . S
H1220 C1217 0.950 . S
C1221 C1212 1.390 1_565 S
C1221 H1214 0.950 . S
C1221 C1218 1.387 . S
C1222 C1223 1.387 . S
C1222 H1226 0.950 . S
C1222 C1231 1.390 1_556 S
C1223 C1222 1.387 . S
C1223 C1225 1.387 . S
H1224 C1231 0.950 . S
C1225 C1223 1.387 . S
C1225 C1227 1.390 1_556 S
C1225 H1229 0.950 . S
H1226 C1222 0.950 . S
C1227 C1225 1.390 1_554 S
C1227 C1228 1.387 . S
C1227 H1230 0.950 . S
C1228 C1227 1.387 . S
C1228 C1231 1.387 . S
H1229 C1225 0.950 . S
H1230 C1227 0.950 . S
C1231 C1222 1.390 1_554 S
C1231 H1224 0.950 . S
C1231 C1228 1.387 . S
C1232 C1233 1.387 . S
C1232 H1236 0.950 . S
C1232 C1241 1.390 . S
C1233 C1232 1.387 . S
C1233 C1235 1.387 . S
H1234 C1241 0.950 . S
C1235 C1233 1.387 . S
C1235 C1237 1.390 . S
C1235 H1239 0.950 . S
H1236 C1232 0.950 . S
C1237 C1235 1.390 . S
C1237 C1238 1.387 . S
C1237 H1240 0.950 . S
C1238 C1237 1.387 . S
C1238 C1241 1.387 . S
H1239 C1235 0.950 . S
H1240 C1237 0.950 . S
C1241 C1232 1.390 . S
C1241 H1234 0.950 . S
C1241 C1238 1.387 . S
C1242 C1243 1.387 . S
C1242 H1246 0.950 . S
C1242 C1251 1.390 1_554 S
C1243 C1242 1.387 . S
C1243 C1245 1.387 . S
H1244 C1251 0.950 . S
C1245 C1243 1.387 . S
C1245 C1247 1.390 1_554 S
C1245 H1249 0.950 . S
H1246 C1242 0.950 . S
C1247 C1245 1.390 1_556 S
C1247 C1248 1.387 . S
C1247 H1250 0.950 . S
C1248 C1247 1.387 . S
C1248 C1251 1.387 . S
H1249 C1245 0.950 . S
H1250 C1247 0.950 . S
C1251 C1242 1.390 1_556 S
C1251 H1244 0.950 . S
C1251 C1248 1.387 . S
C1252 C1253 1.387 . S
C1252 H1256 0.950 . S
C1252 C1261 1.390 . S
C1253 C1252 1.387 . S
C1253 C1255 1.387 . S
H1254 C1261 0.950 . S
C1255 C1253 1.387 . S
C1255 C1257 1.390 . S
C1255 H1259 0.950 . S
H1256 C1252 0.950 . S
C1257 C1255 1.390 . S
C1257 C1258 1.387 . S
C1257 H1260 0.950 . S
C1258 C1257 1.387 . S
C1258 C1261 1.387 . S
H1259 C1255 0.950 . S
H1260 C1257 0.950 . S
C1261 C1252 1.390 . S
C1261 H1254 0.950 . S
C1261 C1258 1.387 . S
C1262 C1263 1.387 . S
C1262 H1266 0.950 . S
C1262 C1271 1.390 . S
C1263 C1262 1.387 . S
C1263 C1265 1.387 . S
H1264 C1271 0.950 . S
C1265 C1263 1.387 . S
C1265 C1267 1.390 . S
C1265 H1269 0.950 . S
H1266 C1262 0.950 . S
C1267 C1265 1.390 . S
C1267 C1268 1.387 . S
C1267 H1270 0.950 . S
C1268 C1267 1.387 . S
C1268 C1271 1.387 . S
H1269 C1265 0.950 . S
H1270 C1267 0.950 . S
C1271 C1262 1.390 . S
C1271 H1264 0.950 . S
C1271 C1268 1.387 . S
C1272 C1273 1.387 . S
C1272 H1276 0.950 . S
C1272 C1281 1.390 . S
C1273 C1272 1.387 . S
C1273 C1275 1.387 . S
H1274 C1281 0.950 . S
C1275 C1273 1.387 . S
C1275 C1277 1.390 . S
C1275 H1279 0.950 . S
H1276 C1272 0.950 . S
C1277 C1275 1.390 . S
C1277 C1278 1.387 . S
C1277 H1280 0.950 . S
C1278 C1277 1.387 . S
C1278 C1281 1.387 . S
H1279 C1275 0.950 . S
H1280 C1277 0.950 . S
C1281 C1272 1.390 . S
C1281 H1274 0.950 . S
C1281 C1278 1.387 . S
C1282 C1283 1.387 . S
C1282 H1286 0.950 . S
C1282 C1291 1.390 1_554 S
C1283 C1282 1.387 . S
C1283 C1285 1.387 . S
H1284 C1291 0.950 . S
C1285 C1283 1.387 . S
C1285 C1287 1.390 1_554 S
C1285 H1289 0.950 . S
H1286 C1282 0.950 . S
C1287 C1285 1.390 1_556 S
C1287 C1288 1.387 . S
C1287 H1290 0.950 . S
C1288 C1287 1.387 . S
C1288 C1291 1.387 . S
H1289 C1285 0.950 . S
H1290 C1287 0.950 . S
C1291 C1282 1.390 1_556 S
C1291 H1284 0.950 . S
C1291 C1288 1.387 . S
C1292 C1293 1.387 . S
C1292 H1296 0.950 . S
C1292 C1301 1.390 . S
C1293 C1292 1.387 . S
C1293 C1295 1.387 . S
H1294 C1301 0.950 . S
C1295 C1293 1.387 . S
C1295 C1297 1.390 . S
C1295 H1299 0.950 . S
H1296 C1292 0.950 . S
C1297 C1295 1.390 . S
C1297 C1298 1.387 . S
C1297 H1300 0.950 . S
C1298 C1297 1.387 . S
C1298 C1301 1.387 . S
H1299 C1295 0.950 . S
H1300 C1297 0.950 . S
C1301 C1292 1.390 . S
C1301 H1294 0.950 . S
C1301 C1298 1.387 . S
C1302 C1303 1.387 . S
C1302 H1306 0.950 . S
C1302 C1311 1.390 . S
C1303 C1302 1.387 . S
C1303 C1305 1.387 . S
H1304 C1311 0.950 . S
C1305 C1303 1.387 . S
C1305 C1307 1.390 . S
C1305 H1309 0.950 . S
H1306 C1302 0.950 . S
C1307 C1305 1.390 . S
C1307 C1308 1.387 . S
C1307 H1310 0.950 . S
C1308 C1307 1.387 . S
C1308 C1311 1.387 . S
H1309 C1305 0.950 . S
H1310 C1307 0.950 . S
C1311 C1302 1.390 . S
C1311 H1304 0.950 . S
C1311 C1308 1.387 . S
C1312 C1313 1.387 . S
C1312 H1316 0.950 . S
C1312 C1321 1.390 . S
C1313 C1312 1.387 . S
C1313 C1315 1.387 . S
H1314 C1321 0.950 . S
C1315 C1313 1.387 . S
C1315 C1317 1.390 . S
C1315 H1319 0.950 . S
H1316 C1312 0.950 . S
C1317 C1315 1.390 . S
C1317 C1318 1.387 . S
C1317 H1320 0.950 . S
C1318 C1317 1.387 . S
C1318 C1321 1.387 . S
H1319 C1315 0.950 . S
H1320 C1317 0.950 . S
C1321 C1312 1.390 . S
C1321 H1314 0.950 . S
C1321 C1318 1.387 . S
C1322 C1323 1.387 . S
C1322 H1326 0.950 . S
C1322 C1331 1.390 . S
C1323 C1322 1.387 . S
C1323 C1325 1.387 . S
H1324 C1331 0.950 . S
C1325 C1323 1.387 . S
C1325 C1327 1.390 . S
C1325 H1329 0.950 . S
H1326 C1322 0.950 . S
C1327 C1325 1.390 . S
C1327 C1328 1.387 . S
C1327 H1330 0.950 . S
C1328 C1327 1.387 . S
C1328 C1331 1.387 . S
H1329 C1325 0.950 . S
H1330 C1327 0.950 . S
C1331 C1322 1.390 . S
C1331 H1324 0.950 . S
C1331 C1328 1.387 . S
C1332 C1333 1.387 . S
C1332 H1336 0.950 . S
C1332 C1341 1.390 . S
C1333 C1332 1.387 . S
C1333 C1335 1.387 . S
H1334 C1341 0.950 . S
C1335 C1333 1.387 . S
C1335 C1337 1.390 . S
C1335 H1339 0.950 . S
H1336 C1332 0.950 . S
C1337 C1335 1.390 . S
C1337 C1338 1.387 . S
C1337 H1340 0.950 . S
C1338 C1337 1.387 . S
C1338 C1341 1.387 . S
H1339 C1335 0.950 . S
H1340 C1337 0.950 . S
C1341 C1332 1.390 . S
C1341 H1334 0.950 . S
C1341 C1338 1.387 . S
C1342 C1343 1.387 . S
C1342 H1346 0.950 . S
C1342 C1351 1.390 . S
C1343 C1342 1.387 . S
C1343 C1345 1.387 . S
H1344 C1351 0.950 . S
C1345 C1343 1.387 . S
C1345 C1347 1.390 . S
C1345 H1349 0.950 . S
H1346 C1342 0.950 . S
C1347 C1345 1.390 . S
C1347 C1348 1.387 . S
C1347 H1350 0.950 . S
C1348 C1347 1.387 . S
C1348 C1351 1.387 . S
H1349 C1345 0.950 . S
H1350 C1347 0.950 . S
C1351 C1342 1.390 . S
C1351 H1344 0.950 . S
C1351 C1348 1.387 . S
C1352 C1353 1.387 . S
C1352 H1356 0.950 . S
C1352 C1361 1.390 . S
C1353 C1352 1.387 . S
C1353 C1355 1.387 . S
H1354 C1361 0.950 . S
C1355 C1353 1.387 . S
C1355 C1357 1.390 . S
C1355 H1359 0.950 . S
H1356 C1352 0.950 . S
C1357 C1355 1.390 . S
C1357 C1358 1.387 . S
C1357 H1360 0.950 . S
C1358 C1357 1.387 . S
C1358 C1361 1.387 . S
H1359 C1355 0.950 . S
H1360 C1357 0.950 . S
C1361 C1352 1.390 . S
C1361 H1354 0.950 . S
C1361 C1358 1.387 . S
C1362 C1363 1.387 . S
C1362 H1366 0.950 . S
C1362 C1371 1.390 . S
C1363 C1362 1.387 . S
C1363 C1365 1.387 . S
H1364 C1371 0.950 . S
C1365 C1363 1.387 . S
C1365 C1367 1.390 . S
C1365 H1369 0.950 1_565 S
H1366 C1362 0.950 . S
C1367 C1365 1.390 . S
C1367 C1368 1.387 . S
C1367 H1370 0.950 . S
C1368 C1367 1.387 . S
C1368 C1371 1.387 . S
H1369 C1365 0.950 1_545 S
H1370 C1367 0.950 . S
C1371 C1362 1.390 . S
C1371 H1364 0.950 . S
C1371 C1368 1.387 . S
C1372 C1373 1.387 . S
C1372 H1376 0.950 . S
C1372 C1381 1.390 . S
C1373 C1372 1.387 . S
C1373 C1375 1.387 . S
H1374 C1381 0.950 . S
C1375 C1373 1.387 . S
C1375 C1377 1.390 . S
C1375 H1379 0.950 . S
H1376 C1372 0.950 . S
C1377 C1375 1.390 . S
C1377 C1378 1.387 . S
C1377 H1380 0.950 . S
C1378 C1377 1.387 . S
C1378 C1381 1.387 . S
H1379 C1375 0.950 . S
H1380 C1377 0.950 . S
C1381 C1372 1.390 . S
C1381 H1374 0.950 . S
C1381 C1378 1.387 . S
C1382 C1383 1.387 . S
C1382 H1386 0.950 . S
C1382 C1391 1.390 . S
C1383 C1382 1.387 . S
C1383 C1385 1.387 . S
H1384 C1391 0.963 . S
C1385 C1383 1.387 . S
C1385 C1387 1.390 . S
C1385 H1389 0.950 . S
H1386 C1382 0.950 . S
C1387 C1385 1.390 . S
C1387 C1388 1.387 . S
C1387 H1390 0.950 . S
C1388 C1387 1.387 . S
C1388 C1391 1.387 . S
H1389 C1385 0.950 . S
H1390 C1387 0.950 . S
C1391 C1382 1.390 . S
C1391 H1384 0.963 . S
C1391 C1388 1.387 . S
C1392 C1393 1.387 . S
C1392 H1396 0.950 . S
C1392 C1401 1.390 . S
C1393 C1392 1.387 . S
C1393 C1395 1.387 . S
H1394 C1401 0.950 . S
C1395 C1393 1.387 . S
C1395 C1397 1.390 . S
C1395 H1399 0.950 . S
H1396 C1392 0.950 . S
C1397 C1395 1.390 . S
C1397 C1398 1.387 . S
C1397 H1400 0.950 . S
C1398 C1397 1.387 . S
C1398 C1401 1.387 . S
H1399 C1395 0.950 . S
H1400 C1397 0.950 . S
C1401 C1392 1.390 . S
C1401 H1394 0.950 . S
C1401 C1398 1.387 . S
C1402 C1403 1.387 . S
C1402 H1406 0.950 . S
C1402 C1411 1.390 . S
C1403 C1402 1.387 . S
C1403 C1405 1.387 . S
H1404 C1411 0.950 . S
C1405 C1403 1.387 . S
C1405 C1407 1.390 . S
C1405 H1409 0.950 . S
H1406 C1402 0.950 . S
C1407 C1405 1.390 . S
C1407 C1408 1.387 . S
C1407 H1410 0.950 . S
C1408 C1407 1.387 . S
C1408 C1411 1.387 . S
H1409 C1405 0.950 . S
H1410 C1407 0.950 . S
C1411 C1402 1.390 . S
C1411 H1404 0.950 . S
C1411 C1408 1.387 . S
C1412 C1413 1.387 . S
C1412 H1416 0.950 . S
C1412 C1421 1.390 . S
C1413 C1412 1.387 . S
C1413 C1415 1.387 . S
H1414 C1421 0.950 . S
C1415 C1413 1.387 . S
C1415 C1417 1.390 . S
C1415 H1419 0.950 . S
H1416 C1412 0.950 . S
C1417 C1415 1.390 . S
C1417 C1418 1.387 . S
C1417 H1420 0.950 . S
C1418 C1417 1.387 . S
C1418 C1421 1.387 . S
H1419 C1415 0.950 . S
H1420 C1417 0.950 . S
C1421 C1412 1.390 . S
C1421 H1414 0.950 . S
C1421 C1418 1.387 . S
C1422 C1423 1.387 . S
C1422 H1426 0.950 . S
C1422 C1431 1.390 . S
C1423 C1422 1.387 . S
C1423 C1425 1.387 . S
H1424 C1431 0.950 . S
C1425 C1423 1.387 . S
C1425 C1427 1.390 . S
C1425 H1429 0.950 . S
H1426 C1422 0.950 . S
C1427 C1425 1.390 . S
C1427 C1428 1.387 . S
C1427 H1430 0.950 . S
C1428 C1427 1.387 . S
C1428 C1431 1.387 . S
H1429 C1425 0.950 . S
H1430 C1427 0.950 . S
C1431 C1422 1.390 . S
C1431 H1424 0.950 . S
C1431 C1428 1.387 . S
C1432 C1433 1.387 . S
C1432 H1436 0.950 . S
C1432 C1441 1.390 . S
C1433 C1432 1.387 . S
C1433 C1435 1.387 . S
H1434 C1441 0.950 . S
C1435 C1433 1.387 . S
C1435 C1437 1.390 . S
C1435 H1439 0.950 . S
H1436 C1432 0.950 . S
C1437 C1435 1.390 . S
C1437 C1438 1.387 . S
C1437 H1440 0.950 . S
C1438 C1437 1.387 . S
C1438 C1441 1.387 . S
H1439 C1435 0.950 . S
H1440 C1437 0.950 . S
C1441 C1432 1.390 . S
C1441 H1434 0.950 . S
C1441 C1438 1.387 . S
C1442 C1443 1.387 . S
C1442 H1446 0.950 . S
C1442 C1451 1.390 . S
C1443 C1442 1.387 . S
C1443 C1445 1.387 . S
H1444 C1451 0.950 . S
C1445 C1443 1.387 . S
C1445 C1447 1.390 . S
C1445 H1449 0.950 . S
H1446 C1442 0.950 . S
C1447 C1445 1.390 . S
C1447 C1448 1.387 . S
C1447 H1450 0.950 . S
C1448 C1447 1.387 . S
C1448 C1451 1.387 . S
H1449 C1445 0.950 . S
H1450 C1447 0.950 . S
C1451 C1442 1.390 . S
C1451 H1444 0.950 . S
C1451 C1448 1.387 . S
C1452 C1453 1.387 . S
C1452 H1456 0.950 . S
C1452 C1461 1.390 . S
C1453 C1452 1.387 . S
C1453 C1455 1.387 . S
H1454 C1461 0.950 . S
C1455 C1453 1.387 . S
C1455 C1457 1.390 . S
C1455 H1459 0.950 . S
H1456 C1452 0.950 . S
C1457 C1455 1.390 . S
C1457 C1458 1.387 . S
C1457 H1460 0.950 . S
C1458 C1457 1.387 . S
C1458 C1461 1.387 . S
H1459 C1455 0.950 . S
H1460 C1457 0.950 . S
C1461 C1452 1.390 . S
C1461 H1454 0.950 . S
C1461 C1458 1.387 . S
C1462 C1463 1.387 . S
C1462 H1466 0.950 . S
C1462 C1471 1.390 . S
C1463 C1462 1.387 . S
C1463 C1465 1.387 . S
H1464 C1471 0.950 . S
C1465 C1463 1.387 . S
C1465 C1467 1.390 . S
C1465 H1469 0.950 . S
H1466 C1462 0.950 . S
C1467 C1465 1.390 . S
C1467 C1468 1.387 . S
C1467 H1470 0.950 . S
C1468 C1467 1.387 . S
C1468 C1471 1.387 . S
H1469 C1465 0.950 . S
H1470 C1467 0.950 . S
C1471 C1462 1.390 . S
C1471 H1464 0.950 . S
C1471 C1468 1.387 . S
C1472 C1473 1.387 . S
C1472 H1476 0.950 . S
C1472 C1481 1.390 . S
C1473 C1472 1.387 . S
C1473 C1475 1.387 . S
H1474 C1481 0.950 . S
C1475 C1473 1.387 . S
C1475 C1477 1.390 . S
C1475 H1479 0.950 . S
H1476 C1472 0.950 . S
C1477 C1475 1.390 . S
C1477 C1478 1.387 . S
C1477 H1480 0.950 . S
C1478 C1477 1.387 . S
C1478 C1481 1.387 . S
H1479 C1475 0.950 . S
H1480 C1477 0.950 . S
C1481 C1472 1.390 . S
C1481 H1474 0.950 . S
C1481 C1478 1.387 . S
C1482 C1483 1.387 . S
C1482 H1486 0.950 . S
C1482 C1491 1.390 . S
C1483 C1482 1.387 . S
C1483 C1485 1.387 . S
H1484 C1491 0.950 . S
C1485 C1483 1.387 . S
C1485 C1487 1.390 . S
C1485 H1489 0.950 . S
H1486 C1482 0.950 . S
C1487 C1485 1.390 . S
C1487 C1488 1.387 . S
C1487 H1490 0.950 . S
C1488 C1487 1.387 . S
C1488 C1491 1.387 . S
H1489 C1485 0.950 . S
H1490 C1487 0.950 . S
C1491 C1482 1.390 . S
C1491 H1484 0.950 . S
C1491 C1488 1.387 . S
C1492 C1493 1.387 . S
C1492 H1496 0.950 . S
C1492 C1501 1.390 . S
C1493 C1492 1.387 . S
C1493 C1495 1.387 . S
H1494 C1501 0.950 . S
C1495 C1493 1.387 . S
C1495 C1497 1.390 . S
C1495 H1499 0.950 . S
H1496 C1492 0.950 . S
C1497 C1495 1.390 . S
C1497 C1498 1.387 . S
C1497 H1500 0.950 . S
C1498 C1497 1.387 . S
C1498 C1501 1.387 . S
H1499 C1495 0.950 . S
H1500 C1497 0.950 . S
C1501 C1492 1.390 . S
C1501 H1494 0.950 . S
C1501 C1498 1.387 . S
C1502 C1503 1.387 . S
C1502 H1506 0.950 . S
C1502 C1511 1.390 . S
C1503 C1502 1.387 . S
C1503 C1505 1.387 . S
H1504 C1511 0.950 . S
C1505 C1503 1.387 . S
C1505 C1507 1.390 . S
C1505 H1509 0.950 . S
H1506 C1502 0.950 . S
C1507 C1505 1.390 . S
C1507 C1508 1.387 . S
C1507 H1510 0.950 . S
C1508 C1507 1.387 . S
C1508 C1511 1.387 . S
H1509 C1505 0.950 . S
H1510 C1507 0.950 . S
C1511 C1502 1.390 . S
C1511 H1504 0.950 . S
C1511 C1508 1.387 . S
C1512 C1513 1.387 . S
C1512 H1516 0.950 . S
C1512 C1521 1.390 . S
C1513 C1512 1.387 . S
C1513 C1515 1.387 . S
H1514 C1521 0.950 . S
C1515 C1513 1.387 . S
C1515 C1517 1.390 . S
C1515 H1519 0.950 . S
H1516 C1512 0.950 . S
C1517 C1515 1.390 . S
C1517 C1518 1.387 . S
C1517 H1520 0.950 . S
C1518 C1517 1.387 . S
C1518 C1521 1.387 . S
H1519 C1515 0.950 . S
H1520 C1517 0.950 . S
C1521 C1512 1.390 . S
C1521 H1514 0.950 . S
C1521 C1518 1.387 . S
C1522 C1523 1.387 . S
C1522 H1526 0.950 . S
C1522 C1531 1.390 . S
C1523 C1522 1.387 . S
C1523 C1525 1.387 . S
H1524 C1531 0.950 . S
C1525 C1523 1.387 . S
C1525 C1527 1.390 . S
C1525 H1529 0.950 . S
H1526 C1522 0.950 . S
C1527 C1525 1.390 . S
C1527 C1528 1.387 . S
C1527 H1530 0.950 . S
C1528 C1527 1.387 . S
C1528 C1531 1.387 . S
H1529 C1525 0.950 . S
H1530 C1527 0.950 . S
C1531 C1522 1.390 . S
C1531 H1524 0.950 . S
C1531 C1528 1.387 . S
C1532 C1533 1.387 . S
C1532 H1536 0.950 . S
C1532 C1541 1.390 . S
C1533 C1532 1.387 . S
C1533 C1535 1.387 . S
H1534 C1541 0.950 . S
C1535 C1533 1.387 . S
C1535 C1537 1.390 . S
C1535 H1539 0.950 . S
H1536 C1532 0.950 . S
C1537 C1535 1.390 . S
C1537 C1538 1.387 . S
C1537 H1540 0.950 . S
C1538 C1537 1.387 . S
C1538 C1541 1.387 . S
H1539 C1535 0.950 . S
H1540 C1537 0.950 . S
C1541 C1532 1.390 . S
C1541 H1534 0.950 . S
C1541 C1538 1.387 . S
C1542 C1543 1.387 . S
C1542 H1546 0.950 . S
C1542 C1551 1.390 . S
C1543 C1542 1.387 . S
C1543 C1545 1.387 . S
H1544 C1551 0.950 . S
C1545 C1543 1.387 . S
C1545 C1547 1.390 . S
C1545 H1549 0.950 . S
H1546 C1542 0.950 . S
C1547 C1545 1.390 . S
C1547 C1548 1.387 . S
C1547 H1550 0.950 . S
C1548 C1547 1.387 . S
C1548 C1551 1.387 . S
H1549 C1545 0.950 . S
H1550 C1547 0.950 . S
C1551 C1542 1.390 . S
C1551 H1544 0.950 . S
C1551 C1548 1.387 . S
C1552 C1553 1.387 . S
C1552 H1556 0.950 . S
C1552 C1561 1.390 . S
C1553 C1552 1.387 . S
C1553 C1555 1.387 . S
H1554 C1561 0.950 . S
C1555 C1553 1.387 . S
C1555 C1557 1.390 . S
C1555 H1559 0.950 . S
H1556 C1552 0.950 . S
C1557 C1555 1.390 . S
C1557 C1558 1.387 . S
C1557 H1560 0.950 . S
C1558 C1557 1.387 . S
C1558 C1561 1.387 . S
H1559 C1555 0.950 . S
H1560 C1557 0.950 . S
C1561 C1552 1.390 . S
C1561 H1554 0.950 . S
C1561 C1558 1.387 . S
C1562 C1563 1.387 . S
C1562 H1566 0.950 . S
C1562 C1571 1.390 . S
C1563 C1562 1.387 . S
C1563 C1565 1.387 . S
H1564 C1571 0.950 . S
C1565 C1563 1.387 . S
C1565 C1567 1.390 . S
C1565 H1569 0.950 . S
H1566 C1562 0.950 . S
C1567 C1565 1.390 . S
C1567 C1568 1.387 . S
C1567 H1570 0.950 . S
C1568 C1567 1.387 . S
C1568 C1571 1.387 . S
H1569 C1565 0.950 . S
H1570 C1567 0.950 . S
C1571 C1562 1.390 . S
C1571 H1564 0.950 . S
C1571 C1568 1.387 . S
C1572 C1573 1.387 . S
C1572 H1576 0.950 . S
C1572 C1581 1.390 . S
C1573 C1572 1.387 . S
C1573 C1575 1.387 . S
H1574 C1581 0.950 . S
C1575 C1573 1.387 . S
C1575 C1577 1.390 . S
C1575 H1579 0.950 . S
H1576 C1572 0.950 . S
C1577 C1575 1.390 . S
C1577 C1578 1.387 . S
C1577 H1580 0.950 . S
C1578 C1577 1.387 . S
C1578 C1581 1.387 . S
H1579 C1575 0.950 . S
H1580 C1577 0.950 . S
C1581 C1572 1.390 . S
C1581 H1574 0.950 . S
C1581 C1578 1.387 . S
C1582 C1583 1.387 . S
C1582 H1586 0.950 . S
C1582 C1591 1.390 . S
C1583 C1582 1.387 . S
C1583 C1585 1.387 . S
H1584 C1591 0.950 . S
C1585 C1583 1.387 . S
C1585 C1587 1.390 . S
C1585 H1589 0.950 . S
H1586 C1582 0.950 . S
C1587 C1585 1.390 . S
C1587 C1588 1.387 . S
C1587 H1590 0.950 . S
C1588 C1587 1.387 . S
C1588 C1591 1.387 . S
H1589 C1585 0.950 . S
H1590 C1587 0.950 . S
C1591 C1582 1.390 . S
C1591 H1584 0.950 . S
C1591 C1588 1.387 . S
C1592 C1593 1.387 . S
C1592 H1596 0.950 . S
C1592 C1601 1.390 . S
C1593 C1592 1.387 . S
C1593 C1595 1.387 . S
H1594 C1601 0.950 . S
C1595 C1593 1.387 . S
C1595 C1597 1.390 . S
C1595 H1599 0.950 . S
H1596 C1592 0.950 . S
C1597 C1595 1.390 . S
C1597 C1598 1.387 . S
C1597 H1600 0.950 . S
C1598 C1597 1.387 . S
C1598 C1601 1.387 . S
H1599 C1595 0.950 . S
H1600 C1597 0.950 . S
C1601 C1592 1.390 . S
C1601 H1594 0.950 . S
C1601 C1598 1.387 . S
C1602 C1603 1.387 . S
C1602 H1606 0.950 . S
C1602 C1611 1.390 . S
C1603 C1602 1.387 . S
C1603 C1605 1.387 . S
H1604 C1611 0.950 . S
C1605 C1603 1.387 . S
C1605 C1607 1.390 . S
C1605 H1609 0.950 . S
H1606 C1602 0.950 . S
C1607 C1605 1.390 . S
C1607 C1608 1.387 . S
C1607 H1610 0.950 . S
C1608 C1607 1.387 . S
C1608 C1611 1.387 . S
H1609 C1605 0.950 . S
H1610 C1607 0.950 . S
C1611 C1602 1.390 . S
C1611 H1604 0.950 . S
C1611 C1608 1.387 . S
C1612 C1613 1.387 . S
C1612 H1616 0.950 . S
C1612 C1621 1.390 . S
C1613 C1612 1.387 . S
C1613 C1615 1.387 . S
H1614 C1621 0.950 . S
C1615 C1613 1.387 . S
C1615 C1617 1.390 . S
C1615 H1619 0.950 . S
H1616 C1612 0.950 . S
C1617 C1615 1.390 . S
C1617 C1618 1.387 . S
C1617 H1620 0.950 . S
C1618 C1617 1.387 . S
C1618 C1621 1.387 . S
H1619 C1615 0.950 . S
H1620 C1617 0.950 . S
C1621 C1612 1.390 . S
C1621 H1614 0.950 . S
C1621 C1618 1.387 . S
C1622 C1623 1.387 . S
C1622 H1626 0.950 . S
C1622 C1631 1.390 . S
C1623 C1622 1.387 . S
C1623 C1625 1.387 . S
H1624 C1631 0.950 . S
C1625 C1623 1.387 . S
C1625 C1627 1.390 . S
C1625 H1629 0.950 . S
H1626 C1622 0.950 . S
C1627 C1625 1.390 . S
C1627 C1628 1.387 . S
C1627 H1630 0.950 . S
C1628 C1627 1.387 . S
C1628 C1631 1.387 . S
H1629 C1625 0.950 . S
H1630 C1627 0.950 . S
C1631 C1622 1.390 . S
C1631 H1624 0.950 . S
C1631 C1628 1.387 . S
C1632 C1633 1.387 . S
C1632 H1636 0.950 . S
C1632 C1641 1.390 . S
C1633 C1632 1.387 . S
C1633 C1635 1.387 . S
H1634 C1641 0.950 . S
C1635 C1633 1.387 . S
C1635 C1637 1.390 . S
C1635 H1639 0.950 . S
H1636 C1632 0.950 . S
C1637 C1635 1.390 . S
C1637 C1638 1.387 . S
C1637 H1640 0.950 . S
C1638 C1637 1.387 . S
C1638 C1641 1.387 . S
H1639 C1635 0.950 . S
H1640 C1637 0.950 . S
C1641 C1632 1.390 . S
C1641 H1634 0.950 . S
C1641 C1638 1.387 . S
C1642 C1643 1.387 . S
C1642 H1646 0.950 . S
C1642 C1651 1.390 . S
C1643 C1642 1.387 . S
C1643 C1645 1.387 . S
H1644 C1651 0.950 . S
C1645 C1643 1.387 . S
C1645 C1647 1.390 . S
C1645 H1649 0.950 . S
H1646 C1642 0.950 . S
C1647 C1645 1.390 . S
C1647 C1648 1.387 . S
C1647 H1650 0.950 . S
C1648 C1647 1.387 . S
C1648 C1651 1.387 . S
H1649 C1645 0.950 . S
H1650 C1647 0.950 . S
C1651 C1642 1.390 . S
C1651 H1644 0.950 . S
C1651 C1648 1.387 . S
C1652 C1653 1.387 . S
C1652 H1656 0.950 . S
C1652 C1661 1.390 . S
C1653 C1652 1.387 . S
C1653 C1655 1.387 . S
H1654 C1661 0.950 . S
C1655 C1653 1.387 . S
C1655 C1657 1.390 . S
C1655 H1659 0.950 . S
H1656 C1652 0.950 . S
C1657 C1655 1.390 . S
C1657 C1658 1.387 . S
C1657 H1660 0.950 . S
C1658 C1657 1.387 . S
C1658 C1661 1.387 . S
H1659 C1655 0.950 . S
H1660 C1657 0.950 . S
C1661 C1652 1.390 . S
C1661 H1654 0.950 . S
C1661 C1658 1.387 . S
C1662 C1663 1.387 . S
C1662 H1666 0.950 . S
C1662 C1671 1.390 . S
C1663 C1662 1.387 . S
C1663 C1665 1.387 . S
H1664 C1671 0.950 . S
C1665 C1663 1.387 . S
C1665 C1667 1.390 . S
C1665 H1669 0.950 . S
H1666 C1662 0.950 . S
C1667 C1665 1.390 . S
C1667 C1668 1.387 . S
C1667 H1670 0.950 . S
C1668 C1667 1.387 . S
C1668 C1671 1.387 . S
H1669 C1665 0.950 . S
H1670 C1667 0.950 . S
C1671 C1662 1.390 . S
C1671 H1664 0.950 . S
C1671 C1668 1.387 . S
C1672 C1673 1.387 . S
C1672 H1676 0.950 . S
C1672 C1681 1.390 . S
C1673 C1672 1.387 . S
C1673 C1675 1.387 . S
H1674 C1681 0.950 . S
C1675 C1673 1.387 . S
C1675 C1677 1.390 . S
C1675 H1679 0.950 . S
H1676 C1672 0.950 . S
C1677 C1675 1.390 . S
C1677 C1678 1.387 . S
C1677 H1680 0.950 . S
C1678 C1677 1.387 . S
C1678 C1681 1.387 . S
H1679 C1675 0.950 . S
H1680 C1677 0.950 . S
C1681 C1672 1.390 . S
C1681 H1674 0.950 . S
C1681 C1678 1.387 . S
C1682 C1683 1.387 . S
C1682 H1686 0.950 . S
C1682 C1691 1.390 . S
C1683 C1682 1.387 . S
C1683 C1685 1.387 . S
H1684 C1691 0.950 . S
C1685 C1683 1.387 . S
C1685 C1687 1.390 . S
C1685 H1689 0.950 1_655 S
H1686 C1682 0.950 . S
C1687 C1685 1.390 . S
C1687 C1688 1.387 . S
C1687 H1690 0.950 . S
C1688 C1687 1.387 . S
C1688 C1691 1.387 . S
H1689 C1685 0.950 1_455 S
H1690 C1687 0.950 . S
C1691 C1682 1.390 . S
C1691 H1684 0.950 . S
C1691 C1688 1.387 . S
C1692 C1693 1.387 . S
C1692 H1696 0.950 . S
C1692 C1701 1.390 . S
C1693 C1692 1.387 . S
C1693 C1695 1.387 . S
H1694 C1701 0.950 . S
C1695 C1693 1.387 . S
C1695 C1697 1.390 . S
C1695 H1699 0.950 . S
H1696 C1692 0.950 . S
C1697 C1695 1.390 . S
C1697 C1698 1.387 . S
C1697 H1700 0.950 . S
C1698 C1697 1.387 . S
C1698 C1701 1.387 . S
H1699 C1695 0.950 . S
H1700 C1697 0.950 . S
C1701 C1692 1.390 . S
C1701 H1694 0.950 . S
C1701 C1698 1.387 . S
C1702 C1703 1.387 . S
C1702 H1706 0.950 . S
C1702 C1711 1.390 . S
C1703 C1702 1.387 . S
C1703 C1705 1.387 . S
H1704 C1711 0.950 . S
C1705 C1703 1.387 . S
C1705 C1707 1.390 . S
C1705 H1709 0.950 . S
H1706 C1702 0.950 . S
C1707 C1705 1.390 . S
C1707 C1708 1.387 . S
C1707 H1710 0.950 . S
C1708 C1707 1.387 . S
C1708 C1711 1.387 . S
H1709 C1705 0.950 . S
H1710 C1707 0.950 . S
C1711 C1702 1.390 . S
C1711 H1704 0.950 . S
C1711 C1708 1.387 . S
C1712 C1713 1.387 . S
C1712 H1716 0.950 . S
C1712 C1721 1.390 . S
C1713 C1712 1.387 . S
C1713 C1715 1.387 . S
H1714 C1721 0.950 . S
C1715 C1713 1.387 . S
C1715 C1717 1.390 . S
C1715 H1719 0.950 . S
H1716 C1712 0.950 . S
C1717 C1715 1.390 . S
C1717 C1718 1.387 . S
C1717 H1720 0.950 . S
C1718 C1717 1.387 . S
C1718 C1721 1.387 . S
H1719 C1715 0.950 . S
H1720 C1717 0.950 . S
C1721 C1712 1.390 . S
C1721 H1714 0.950 . S
C1721 C1718 1.387 . S
C1722 C1723 1.387 . S
C1722 H1726 0.950 . S
C1722 C1731 1.390 . S
C1723 C1722 1.387 . S
C1723 C1725 1.387 . S
H1724 C1731 0.950 . S
C1725 C1723 1.387 . S
C1725 C1727 1.390 . S
C1725 H1729 0.950 . S
H1726 C1722 0.950 . S
C1727 C1725 1.390 . S
C1727 C1728 1.387 . S
C1727 H1730 0.950 . S
C1728 C1727 1.387 . S
C1728 C1731 1.387 . S
H1729 C1725 0.950 . S
H1730 C1727 0.950 . S
C1731 C1722 1.390 . S
C1731 H1724 0.950 . S
C1731 C1728 1.387 . S
C1732 C1733 1.387 . S
C1732 H1736 0.950 . S
C1732 C1741 1.390 . S
C1733 C1732 1.387 . S
C1733 C1735 1.387 . S
H1734 C1741 0.950 . S
C1735 C1733 1.387 . S
C1735 C1737 1.390 . S
C1735 H1739 0.950 . S
H1736 C1732 0.950 . S
C1737 C1735 1.390 . S
C1737 C1738 1.387 . S
C1737 H1740 0.950 . S
C1738 C1737 1.387 . S
C1738 C1741 1.387 . S
H1739 C1735 0.950 . S
H1740 C1737 0.950 . S
C1741 C1732 1.390 . S
C1741 H1734 0.950 . S
C1741 C1738 1.387 . S
C1742 C1743 1.387 . S
C1742 H1746 0.950 . S
C1742 C1751 1.390 . S
C1743 C1742 1.387 . S
C1743 C1745 1.387 . S
H1744 C1751 0.950 . S
C1745 C1743 1.387 . S
C1745 C1747 1.390 . S
C1745 H1749 0.950 . S
H1746 C1742 0.950 . S
C1747 C1745 1.390 . S
C1747 C1748 1.387 . S
C1747 H1750 0.950 . S
C1748 C1747 1.387 . S
C1748 C1751 1.387 . S
H1749 C1745 0.950 . S
H1750 C1747 0.950 . S
C1751 C1742 1.390 . S
C1751 H1744 0.950 . S
C1751 C1748 1.387 . S
C1752 C1753 1.387 . S
C1752 H1756 0.950 . S
C1752 C1761 1.390 . S
C1753 C1752 1.387 . S
C1753 C1755 1.387 . S
H1754 C1761 0.950 . S
C1755 C1753 1.387 . S
C1755 C1757 1.390 . S
C1755 H1759 0.950 . S
H1756 C1752 0.950 . S
C1757 C1755 1.390 . S
C1757 C1758 1.387 . S
C1757 H1760 0.950 . S
C1758 C1757 1.387 . S
C1758 C1761 1.387 . S
H1759 C1755 0.950 . S
H1760 C1757 0.950 . S
C1761 C1752 1.390 . S
C1761 H1754 0.950 . S
C1761 C1758 1.387 . S
C1762 C1763 1.387 . S
C1762 H1766 0.950 . S
C1762 C1771 1.390 . S
C1763 C1762 1.387 . S
C1763 C1765 1.387 . S
H1764 C1771 0.950 . S
C1765 C1763 1.387 . S
C1765 C1767 1.390 . S
C1765 H1769 0.950 . S
H1766 C1762 0.950 . S
C1767 C1765 1.390 . S
C1767 C1768 1.387 . S
C1767 H1770 0.950 . S
C1768 C1767 1.387 . S
C1768 C1771 1.387 . S
H1769 C1765 0.950 . S
H1770 C1767 0.950 . S
C1771 C1762 1.390 . S
C1771 H1764 0.950 . S
C1771 C1768 1.387 . S
C1772 C1773 1.387 . S
C1772 H1776 0.950 . S
C1772 C1781 1.390 . S
C1773 C1772 1.387 . S
C1773 C1775 1.387 . S
H1774 C1781 0.950 . S
C1775 C1773 1.387 . S
C1775 C1777 1.390 . S
C1775 H1779 0.950 . S
H1776 C1772 0.950 . S
C1777 C1775 1.390 . S
C1777 C1778 1.387 . S
C1777 H1780 0.950 . S
C1778 C1777 1.387 . S
C1778 C1781 1.387 . S
H1779 C1775 0.950 . S
H1780 C1777 0.950 . S
C1781 C1772 1.390 . S
C1781 H1774 0.950 . S
C1781 C1778 1.387 . S
C1782 C1783 1.387 . S
C1782 H1786 0.950 . S
C1782 C1791 1.390 . S
C1783 C1782 1.387 . S
C1783 C1785 1.387 . S
H1784 C1791 0.950 . S
C1785 C1783 1.387 . S
C1785 C1787 1.390 . S
C1785 H1789 0.950 . S
H1786 C1782 0.950 . S
C1787 C1785 1.390 . S
C1787 C1788 1.387 . S
C1787 H1790 0.950 . S
C1788 C1787 1.387 . S
C1788 C1791 1.387 . S
H1789 C1785 0.950 . S
H1790 C1787 0.950 . S
C1791 C1782 1.390 . S
C1791 H1784 0.950 . S
C1791 C1788 1.387 . S
C1153 C148 1.507 . S
C1158 C4 1.507 . S
C1163 C184 1.508 . S
C1168 C40 1.508 . S
C1173 C220 1.508 . S
C1178 C76 1.508 . S
C1183 C112 1.508 . S
C1188 C256 1.508 . S
C1193 C292 1.507 . S
C1198 C436 1.507 . S
C1203 C472 1.507 . S
C1208 C328 1.507 . S
C1213 C364 1.508 . S
C1218 C508 1.508 . S
C1223 C544 1.508 . S
C1228 C400 1.508 . S
C1233 C580 1.508 . S
C1238 C724 1.508 . S
C1243 C760 1.508 . S
C1248 C616 1.508 . S
C1253 C796 1.508 . S
C1258 C652 1.508 . S
C1263 C832 1.508 . S
C1268 C688 1.508 . S
C1273 C868 1.508 . S
C1278 C1012 1.508 . S
C1283 C904 1.508 . S
C1288 C1048 1.508 . S
C1293 C940 1.508 . S
C1298 C1084 1.508 . S
C1303 C976 1.508 . S
C1308 C1120 1.508 . S
C1313 C14 1.189 . S
C1318 C266 1.192 . S
C1323 C50 1.189 . S
C1328 C158 1.192 . S
C1333 C86 1.189 . S
C1338 C194 1.192 . S
C1343 C230 1.192 . S
C1348 C122 1.190 . S
C1353 C554 1.191 . S
C1358 C302 1.188 . S
C1363 C446 1.191 . S
C1368 C338 1.188 . S
C1373 C482 1.188 . S
C1378 C374 1.191 . S
C1383 C410 1.192 . S
C1388 C518 1.189 . S
C1393 C842 1.192 . S
C1398 C590 1.189 . S
C1403 C734 1.192 . S
C1408 C626 1.189 . S
C1413 C770 1.188 . S
C1418 C662 1.191 . S
C1423 C698 1.188 . S
C1428 C806 1.191 . S
C1433 C878 1.188 . S
C1438 C1130 1.191 . S
C1443 C914 1.189 . S
C1448 C1022 1.192 . S
C1453 C950 1.192 . S
C1458 C1058 1.189 . S
C1463 C1094 1.192 . S
C1468 C986 1.189 . S
C1473 C3 1.480 . S
C1478 C902 1.451 . S
C1483 C39 1.480 . S
C1488 C362 1.450 1_455 S
C1493 C75 1.480 . S
C1498 C974 1.452 . S
C1503 C290 1.450 . S
C1508 C111 1.480 . S
C1513 C1118 1.452 . S
C1518 C147 1.480 . S
C1523 C183 1.480 . S
C1528 C434 1.451 . S
C1533 C219 1.480 . S
C1538 C1046 1.452 . S
C1543 C255 1.480 . S
C1548 C506 1.451 1_455 S
C1553 C614 1.451 . S
C1558 C291 1.480 . S
C1563 C74 1.452 1_655 S
C1568 C327 1.480 . S
C1573 C686 1.450 . S
C1578 C363 1.480 . S
C1583 C399 1.480 . S
C1588 C2 1.451 . S
C1593 C830 1.452 . S
C1598 C435 1.480 . S
C1603 C146 1.451 . S
C1608 C471 1.480 . S
C1613 C758 1.451 . S
C1618 C507 1.480 . S
C1623 C218 1.451 1_655 S
C1628 C543 1.480 . S
C1633 C326 1.452 . S
C1638 C579 1.480 . S
C1643 C615 1.480 . S
C1648 C938 1.450 . S
C1653 C651 1.480 . S
C1658 C398 1.452 . S
C1663 C687 1.480 . S
C1668 C866 1.451 1_655 S
C1673 C723 1.480 . S
C1678 C542 1.450 . S
C1683 C1010 1.452 1_655 S
C1688 C759 1.480 . S
C1693 C795 1.480 . S
C1698 C470 1.449 . S
C1703 C831 1.480 . S
C1708 C1082 1.451 . S
C1713 C867 1.480 . S
C1718 C38 1.452 . S
C1723 C903 1.480 . S
C1728 C650 1.451 . S
C1733 C110 1.450 . S
C1738 C939 1.480 . S
C1743 C578 1.450 1_455 S
C1748 C975 1.480 . S
C1753 C1011 1.480 . S
C1758 C254 1.450 . S
C1763 C1047 1.480 . S
C1768 C722 1.450 1_455 S
C1773 C182 1.450 . S
C1778 C1083 1.480 . S
C1783 C794 1.450 . S
C1788 C1119 1.480 . S
