# Generated by pormake.
# Topology snl, (6)-cn, num edge types: 1
# Building blocks:
#     Node 0, Type 0, BuildingBlock: UKALOJ_clean_sbu_0, # of connection points: 6
#     Node 1, Type 0, BuildingBlock: UKALOJ_clean_sbu_0, # of connection points: 6
#     Node 2, Type 0, BuildingBlock: UKALOJ_clean_sbu_0, # of connection points: 6
#     Node 3, Type 0, BuildingBlock: UKALOJ_clean_sbu_0, # of connection points: 6
#     Node 4, Type 0, BuildingBlock: UKALOJ_clean_sbu_0, # of connection points: 6
#     Node 5, Type 0, BuildingBlock: UKALOJ_clean_sbu_0, # of connection points: 6
#     Node 6, Type 0, BuildingBlock: UKALOJ_clean_sbu_0, # of connection points: 6
#     Node 7, Type 0, BuildingBlock: UKALOJ_clean_sbu_0, # of connection points: 6
#     Node 8, Type 0, BuildingBlock: UKALOJ_clean_sbu_0, # of connection points: 6
#     Node 9, Type 0, BuildingBlock: UKALOJ_clean_sbu_0, # of connection points: 6
#     Node 10, Type 0, BuildingBlock: UKALOJ_clean_sbu_0, # of connection points: 6
#     Node 11, Type 0, BuildingBlock: UKALOJ_clean_sbu_0, # of connection points: 6
#     Node 12, Type 0, BuildingBlock: UKALOJ_clean_sbu_0, # of connection points: 6
#     Node 13, Type 0, BuildingBlock: UKALOJ_clean_sbu_0, # of connection points: 6
#     Node 14, Type 0, BuildingBlock: UKALOJ_clean_sbu_0, # of connection points: 6
#     Node 15, Type 0, BuildingBlock: UKALOJ_clean_sbu_0, # of connection points: 6
#     Edge 16, Type (0, 0), None
#     Edge 17, Type (0, 0), None
#     Edge 18, Type (0, 0), None
#     Edge 19, Type (0, 0), None
#     Edge 20, Type (0, 0), None
#     Edge 21, Type (0, 0), None
#     Edge 22, Type (0, 0), None
#     Edge 23, Type (0, 0), None
#     Edge 24, Type (0, 0), None
#     Edge 25, Type (0, 0), None
#     Edge 26, Type (0, 0), None
#     Edge 27, Type (0, 0), None
#     Edge 28, Type (0, 0), None
#     Edge 29, Type (0, 0), None
#     Edge 30, Type (0, 0), None
#     Edge 31, Type (0, 0), None
#     Edge 32, Type (0, 0), None
#     Edge 33, Type (0, 0), None
#     Edge 34, Type (0, 0), None
#     Edge 35, Type (0, 0), None
#     Edge 36, Type (0, 0), None
#     Edge 37, Type (0, 0), None
#     Edge 38, Type (0, 0), None
#     Edge 39, Type (0, 0), None
#     Edge 40, Type (0, 0), None
#     Edge 41, Type (0, 0), None
#     Edge 42, Type (0, 0), None
#     Edge 43, Type (0, 0), None
#     Edge 44, Type (0, 0), None
#     Edge 45, Type (0, 0), None
#     Edge 46, Type (0, 0), None
#     Edge 47, Type (0, 0), None
#     Edge 48, Type (0, 0), None
#     Edge 49, Type (0, 0), None
#     Edge 50, Type (0, 0), None
#     Edge 51, Type (0, 0), None
#     Edge 52, Type (0, 0), None
#     Edge 53, Type (0, 0), None
#     Edge 54, Type (0, 0), None
#     Edge 55, Type (0, 0), None
#     Edge 56, Type (0, 0), None
#     Edge 57, Type (0, 0), None
#     Edge 58, Type (0, 0), None
#     Edge 59, Type (0, 0), None
#     Edge 60, Type (0, 0), None
#     Edge 61, Type (0, 0), None
#     Edge 62, Type (0, 0), None
#     Edge 63, Type (0, 0), None
# Relax obj value: 0.178
# Max RMSD: 0.146
# Mean RMSD: 0.125
data_MOF--net-snl--node1-UKALOJ_clean_sbu_0--edge1-none
_symmetry_space_group_name_H-M    P1
_symmetry_Int_Tables_number       1
_symmetry_cell_setting            triclinic
loop_
_symmetry_equiv_pos_as_xyz
'x, y, z'
_cell_length_a     38.873147
_cell_length_b     33.669875
_cell_length_c     6.8789013
_cell_angle_alpha  87.887983
_cell_angle_beta   89.141636
_cell_angle_gamma 91.019739
loop_
_atom_site_label
_atom_site_type_symbol
_atom_site_fract_x
_atom_site_fract_y
_atom_site_fract_z
_atom_type_partial_charge
Zn0 Zn 0.12585 0.67848 0.97865 0.0
O1 O 0.12748 0.67859 0.67006 0.0
C2 C 0.1455 0.59331 0.9549 0.0
Zn3 Zn 0.18185 0.67701 0.94381 0.0
C4 C 0.15475 0.67812 0.56613 0.0
O5 O 0.18414 0.67881 0.64352 0.0
C6 C 0.15212 0.67674 0.35757 0.0
O7 O 0.1925 0.73875 0.94554 0.0
O8 O 0.13709 0.74589 0.97848 0.0
N9 N 0.23176 0.66635 0.96781 0.0
C10 C 0.24806 0.67964 0.12452 0.0
C11 C 0.26034 0.61834 0.0997 0.0
N12 N 0.24028 0.62866 0.94927 0.0
N13 N 0.26399 0.64962 0.21329 0.0
C14 C 0.04694 0.66419 0.95219 0.0
C15 C 1.02889 0.72074 0.03438 0.0
N16 N 0.0747 0.68802 0.97676 0.0
N17 N 0.06341 0.72311 0.02676 0.0
N18 N 1.01794 0.68391 -0.00817 0.0
H19 H 0.07064 0.62213 0.76625 0.0
H20 H 1.02473 0.61793 0.78078 0.0
H21 H 0.04969 0.6009 -0.01528 0.0
C22 C 0.04811 0.62396 0.86598 0.0
C23 C 0.24741 0.72121 0.19707 0.0
H24 H 0.22205 0.72785 0.26192 0.0
H25 H 0.25287 0.74271 0.07404 0.0
H26 H 0.2667 0.72563 0.31163 0.0
O27 O 0.17902 0.67437 0.25382 0.0
O28 O 0.12311 0.67842 0.27889 0.0
C29 C 0.16756 0.76157 0.96995 0.0
O30 O 0.11777 0.61147 -0.00953 0.0
O31 O 0.17282 0.61428 0.93253 0.0
Zn32 Zn 0.62172 0.92638 0.12282 0.0
O33 O 0.56722 0.90995 0.13462 0.0
C34 C 0.62922 0.89314 0.53893 0.0
Zn35 Zn 0.63423 0.86345 0.1466 0.0
C36 C 0.5547 0.87461 0.14545 0.0
O37 O 0.57618 0.84582 0.15205 0.0
C38 C 0.69911 0.9185 0.11031 0.0
O39 O 0.63412 0.86458 0.83681 0.0
O40 O 0.62083 0.92772 0.81173 0.0
N41 N 0.6542 0.80935 0.13826 0.0
C42 C 0.64943 0.7756 0.24459 0.0
C43 C 0.69874 0.77262 0.10328 0.0
N44 N 0.68463 0.80729 0.04958 0.0
N45 N 0.67731 0.75247 0.22728 0.0
C46 C 0.60105 1.00003 0.31752 0.0
C47 C 0.64188 0.0377 0.20716 0.0
N48 N 0.61174 0.98508 0.14763 0.0
N49 N 0.63635 1.00946 0.07695 0.0
N50 N 0.62004 0.03206 0.35898 0.0
H51 H 0.5656 0.9521 0.41166 0.0
H52 H 0.55468 1.00122 0.48288 0.0
H53 H 0.58798 0.97676 0.60432 0.0
C54 C 0.57595 0.9807 0.46025 0.0
C55 C 0.6191 0.76722 0.37818 0.0
H56 H 0.6025 0.74386 0.31621 0.0
H57 H 0.60354 0.79411 0.39577 0.0
H58 H 0.62797 0.75597 0.52233 0.0
O59 O 0.69016 0.88235 0.13956 0.0
O60 O 0.67529 0.94362 0.10005 0.0
C61 C 0.62808 0.89528 0.73168 0.0
O62 O 0.62451 0.92382 0.43313 0.0
O63 O 0.63478 0.8606 0.45861 0.0
Zn64 Zn 0.34896 0.41313 0.65178 0.0
O65 O 0.35399 0.34972 0.68528 0.0
C66 C 0.37627 0.41302 0.04954 0.0
Zn67 Zn 0.4044 0.41195 0.63925 0.0
C68 C 0.38322 0.33309 0.67848 0.0
O69 O 0.41004 0.35373 0.64512 0.0
C70 C 0.37512 0.49271 0.61739 0.0
O71 O 0.40428 0.4113 0.33233 0.0
O72 O 0.34796 0.41111 0.33919 0.0
N73 N 0.45438 0.41911 0.64289 0.0
C74 C 0.47514 0.4405 0.5203 0.0
C75 C 0.5034 0.42671 0.77861 0.0
N76 N 0.4718 0.41034 0.80272 0.0
N77 N 0.50533 0.44591 0.60423 0.0
C78 C 0.27656 0.38959 0.78879 0.0
C79 C 0.25075 0.44172 0.68714 0.0
N80 N 0.29832 0.41081 0.6696 0.0
N81 N 0.28221 0.44288 0.60576 0.0
N82 N 0.24675 0.40897 0.80419 0.0
H83 H 0.31256 0.355 0.95886 0.0
H84 H 0.28414 0.32688 0.81277 0.0
H85 H 0.26867 0.34793 0.03492 0.0
C86 C 0.28591 0.35295 0.90634 0.0
C87 C 0.46604 0.45718 0.32281 0.0
H88 H 0.4624 0.43243 0.22286 0.0
H89 H 0.48692 0.47663 0.25979 0.0
H90 H 0.442 0.47426 0.33013 0.0
O91 O 0.40146 0.47164 0.62932 0.0
O92 O 0.34564 0.4764 0.62298 0.0
C93 C 0.37613 0.41174 0.24278 0.0
O94 O 0.34839 0.41592 0.95913 0.0
O95 O 0.40429 0.4114 0.95362 0.0
Zn96 Zn 0.84724 0.1613 0.97157 0.0
O97 O 0.85817 0.22736 0.97167 0.0
C98 C 0.87753 0.15807 0.56818 0.0
Zn99 Zn 0.9074 0.15437 0.97145 0.0
C100 C 0.88921 0.2418 0.97559 0.0
O101 O 0.91434 0.21813 0.96788 0.0
C102 C 0.87054 0.07343 -0.01185 0.0
O103 O 0.90536 0.1542 0.28067 0.0
O104 O 0.84859 0.16044 0.28507 0.0
N105 N 0.96208 0.1477 0.97264 0.0
C106 C 0.98406 0.11683 0.95834 0.0
C107 C 1.01495 0.16897 -0.00531 0.0
N108 N 0.98168 0.1798 -0.00474 0.0
N109 N 1.01731 0.12953 0.97319 0.0
C110 C 0.76319 0.1878 0.89307 0.0
C111 C 0.74196 0.13052 0.96274 0.0
N112 N 0.79009 0.16452 0.9557 0.0
N113 N 0.77584 0.12928 -0.00125 0.0
N114 N 0.73244 0.16677 0.89488 0.0
H115 H 0.7953 0.23601 0.77855 0.0
H116 H 0.75864 0.25027 0.92347 0.0
H117 H 0.75208 0.23398 0.68115 0.0
C118 C 0.76778 0.22945 0.81335 0.0
C119 C 0.97264 0.07433 0.94425 0.0
H120 H 0.95701 0.0655 0.07541 0.0
H121 H 0.9944 0.05374 0.93678 0.0
H122 H 0.95644 0.07116 0.81411 0.0
O123 O 0.89937 0.09187 -0.01752 0.0
O124 O 0.84298 0.09386 -0.01783 0.0
C125 C 0.87713 0.15755 0.37489 0.0
O126 O 0.84943 0.1617 0.66249 0.0
O127 O 0.90593 0.15492 0.65821 0.0
Zn128 Zn 0.15654 0.35455 0.94403 0.0
O129 O 0.15614 0.35641 0.64009 0.0
C130 C 0.21668 0.39824 0.89197 0.0
Zn131 Zn 0.14079 0.4212 0.93543 0.0
C132 C 0.14786 0.38772 0.54448 0.0
O133 O 0.13857 0.41875 0.63023 0.0
C134 C 0.14943 0.38804 0.3346 0.0
O135 O 0.08743 0.4129 0.96399 0.0
O136 O 0.1024 0.34983 0.95192 0.0
N137 N 0.14221 0.48588 0.91835 0.0
C138 C 0.12652 0.52027 0.96944 0.0
C139 C 0.1754 0.53709 0.84692 0.0
N140 N 0.17219 0.49752 0.8402 0.0
N141 N 0.14733 0.55294 0.92785 0.0
C142 C 0.18393 0.26209 0.93336 0.0
C143 C 0.13478 0.23377 0.95989 0.0
N144 N 0.16009 0.29132 0.94942 0.0
N145 N 0.12983 0.27299 0.96578 0.0
N146 N 0.16844 0.22527 0.9399 0.0
H147 H 0.22543 0.29295 0.78328 0.0
H148 H 0.23589 0.24335 0.86827 0.0
H149 H 0.23215 0.28288 0.03752 0.0
C150 C 0.2216 0.27035 0.90344 0.0
C151 C 0.09245 0.52118 0.07252 0.0
H152 H 0.08502 0.49113 0.13241 0.0
H153 H 0.07271 0.53115 0.96754 0.0
H154 H 0.09338 0.5427 0.19084 0.0
O155 O 0.14381 0.42024 0.23875 0.0
O156 O 0.15615 0.35608 0.24925 0.0
C157 C 0.07919 0.37592 0.96496 0.0
O158 O 0.20925 0.36195 0.93038 0.0
O159 O 0.19361 0.42423 0.90005 0.0
Zn160 Zn 0.84597 0.93865 0.0266 0.0
O161 O 0.85308 0.87147 0.034 0.0
C162 C 0.87515 0.94408 0.42511 0.0
Zn163 Zn 0.90474 0.9495 0.01689 0.0
C164 C 0.88472 0.86085 0.02992 0.0
O165 O 0.90798 0.88788 0.0264 0.0
C166 C 0.87117 0.02868 0.00228 0.0
O167 O 0.90351 0.94967 0.7064 0.0
O168 O 0.84717 0.93899 0.71487 0.0
N169 N 0.95933 0.95273 0.02174 0.0
C170 C 0.98394 0.93007 0.94122 0.0
C171 C 1.00937 0.96778 0.13767 0.0
N172 N 0.97546 0.97611 0.1433 0.0
N173 N 1.01555 0.9392 0.01023 0.0
C174 C 0.76363 0.91165 0.08944 0.0
C175 C 0.74215 0.96793 0.01816 0.0
N176 N 0.79049 0.93675 0.03703 0.0
N177 N 0.77648 0.97145 -0.00662 0.0
N178 N 0.73285 0.93071 0.0786 0.0
H179 H 0.79445 0.86513 0.21456 0.0
H180 H 0.76301 0.84937 0.04144 0.0
H181 H 0.74929 0.86204 0.28184 0.0
C182 C 0.76795 0.86962 0.162 0.0
C183 C 0.97715 0.89876 0.79699 0.0
H184 H 0.9512 0.90132 0.7347 0.0
H185 H 0.97939 0.86905 0.86991 0.0
H186 H 0.9968 0.90113 0.67818 0.0
O187 O 0.90046 1.01225 0.00458 0.0
O188 O 0.84403 1.00636 0.01261 0.0
C189 C 0.87527 0.94426 0.61839 0.0
O190 O 0.847 0.93872 0.33679 0.0
O191 O 0.90319 0.94925 0.32867 0.0
Zn192 Zn 0.37746 0.61994 0.54691 0.0
O193 O 0.39694 0.67942 0.51254 0.0
C194 C 0.40391 0.60922 0.13994 0.0
Zn195 Zn 0.43038 0.60211 0.54081 0.0
C196 C 0.42844 0.68641 0.471 0.0
O197 O 0.44972 0.65876 0.49331 0.0
C198 C 0.38118 0.53499 0.58948 0.0
O199 O 0.43159 0.60416 0.8517 0.0
O200 O 0.37745 0.62188 0.8559 0.0
N201 N 0.47605 0.57911 0.52614 0.0
C202 C 0.50668 0.59643 0.55314 0.0
C203 C 0.5131 0.55279 0.33889 0.0
N204 N 0.4801 0.55123 0.39752 0.0
N205 N 0.5301 0.58062 0.43602 0.0
C206 C 0.31541 0.65963 0.38995 0.0
C207 C 0.27595 0.62529 0.53892 0.0
N208 N 0.32996 0.63936 0.53826 0.0
N209 N 0.30534 0.61887 0.63436 0.0
N210 N 0.28192 0.65071 0.3865 0.0
H211 H 0.36129 0.6868 0.24595 0.0
H212 H 0.32169 0.71087 0.19635 0.0
H213 H 0.33043 0.66501 0.08796 0.0
C214 C 0.33373 0.68165 0.22296 0.0
C215 C 0.51263 0.63313 0.66575 0.0
H216 H 0.51653 0.65913 0.56332 0.0
H217 H 0.5364 0.63011 0.75153 0.0
H218 H 0.49076 0.63837 0.76616 0.0
O219 O 0.41221 0.54617 0.57516 0.0
O220 O 0.35756 0.56029 0.57767 0.0
C221 C 0.40432 0.61179 0.94664 0.0
O222 O 0.37692 0.6166 0.23546 0.0
O223 O 0.43056 0.59962 0.23118 0.0
Zn224 Zn 0.62533 0.21092 0.80194 0.0
O225 O 0.62432 0.21028 0.1069 0.0
C226 C 0.69834 0.17445 0.84739 0.0
Zn227 Zn 0.6222 0.14599 0.82611 0.0
C228 C 0.62323 0.1779 0.20841 0.0
O229 O 0.62101 0.14436 0.12908 0.0
C230 C 0.62471 0.17945 0.41714 0.0
O231 O 0.5662 0.14606 0.8294 0.0
O232 O 0.56531 0.21048 0.79889 0.0
N233 N 0.62293 0.08651 0.78955 0.0
C234 C 0.60537 0.0701 0.64336 0.0
C235 C 0.65564 0.04571 0.63978 0.0
N236 N 0.65395 0.07065 0.78806 0.0
N237 N 0.6255 0.04538 0.54715 0.0
C238 C 0.64317 0.29422 0.64127 0.0
C239 C 0.59627 0.32354 0.70346 0.0
N240 N 0.62469 0.27056 0.76859 0.0
N241 N 0.5956 0.28879 0.80621 0.0
N242 N 0.62553 0.32742 0.59619 0.0
H243 H 0.69811 0.29094 0.64042 0.0
H244 H 0.68025 0.29788 0.40107 0.0
H245 H 0.67778 0.2505 0.52634 0.0
C246 C 0.67649 0.28278 0.5459 0.0
C247 C 0.57105 0.08307 0.57142 0.0
H248 H 0.57077 0.11484 0.52729 0.0
H249 H 0.55171 0.0773 0.68962 0.0
H250 H 0.56376 0.06726 0.44001 0.0
O251 O 0.62489 0.1479 0.51972 0.0
O252 O 0.62543 0.21223 0.49784 0.0
C253 C 0.54849 0.17737 0.81493 0.0
O254 O 0.68574 0.20922 0.82055 0.0
O255 O 0.67727 0.14519 0.84435 0.0
Zn256 Zn 0.93797 0.36882 -0.01563 0.0
O257 O 0.93635 0.3687 0.29295 0.0
C258 C 0.91835 0.454 0.00792 0.0
Zn259 Zn 0.88198 0.37028 0.01914 0.0
C260 C 0.90908 0.36917 0.39685 0.0
O261 O 0.87969 0.3685 0.31943 0.0
C262 C 0.9117 0.37055 0.60541 0.0
O263 O 0.87132 0.30854 0.01749 0.0
O264 O 0.92673 0.30142 -0.01548 0.0
N265 N 0.83206 0.38097 -0.00485 0.0
C266 C 0.81576 0.36764 0.83852 0.0
C267 C 0.80356 0.42898 0.86267 0.0
N268 N 0.82359 0.41868 0.01327 0.0
N269 N 0.7999 0.39766 0.74936 0.0
C270 C 1.01686 0.38303 0.01201 0.0
C271 C 0.03493 0.32667 0.92722 0.0
N272 N 0.98911 0.35926 -0.01377 0.0
N273 N 1.00041 0.32428 0.93466 0.0
N274 N 0.04587 0.3634 0.97151 0.0
H275 H 0.993 0.4249 0.19843 0.0
H276 H 0.03894 0.42896 0.1859 0.0
H277 H 1.01428 0.44637 -0.0185 0.0
C278 C 1.01565 0.42314 0.09956 0.0
C279 C 0.81635 0.32604 0.76644 0.0
H280 H 0.84167 0.31938 0.70111 0.0
H281 H 0.81096 0.30459 0.88977 0.0
H282 H 0.79698 0.32158 0.65237 0.0
O283 O 0.8848 0.37289 0.70914 0.0
O284 O 0.9407 0.36889 0.68412 0.0
C285 C 0.89626 0.28573 -0.00696 0.0
O286 O 0.94609 0.43584 0.97252 0.0
O287 O 0.89103 0.43302 0.03027 0.0
Zn288 Zn 0.42967 0.18378 0.81494 0.0
O289 O 0.42918 0.18207 0.11853 0.0
C290 C 0.36482 0.12874 0.85316 0.0
Zn291 Zn 0.44223 0.12084 0.84091 0.0
C292 C 0.43597 0.15163 0.22278 0.0
O293 O 0.44404 0.11932 0.14502 0.0
C294 C 0.43454 0.15429 0.4318 0.0
O295 O 0.49669 0.1373 0.8253 0.0
O296 O 0.48769 0.20144 0.81277 0.0
N297 N 0.45212 0.06218 0.81422 0.0
C298 C 0.46273 0.04731 0.64399 0.0
C299 C 0.42203 1.0095 0.75507 0.0
N300 N 0.42759 0.03773 0.8853 0.0
N301 N 0.44375 1.01525 0.60281 0.0
C302 C 0.41459 0.27176 0.71945 0.0
C303 C 0.36502 0.27449 0.85818 0.0
N304 N 0.40965 0.23785 0.82433 0.0
N305 N 0.37906 0.23976 0.91141 0.0
N306 N 0.38667 0.29485 0.7362 0.0
H307 H 0.46149 0.30382 0.65072 0.0
H308 H 0.46088 0.25359 0.57094 0.0
H309 H 0.43649 0.29155 0.44304 0.0
C310 C 0.44513 0.28036 0.58773 0.0
C311 C 0.48752 0.06686 0.50024 0.0
H312 H 0.49784 0.09551 0.54837 0.0
H313 H 0.50886 0.0465 0.47607 0.0
H314 H 0.47522 0.07077 0.35706 0.0
O315 O 0.43855 0.12349 0.53702 0.0
O316 O 0.42977 0.18716 0.50956 0.0
C317 C 0.50919 0.17265 0.81679 0.0
O318 O 0.37373 0.16476 0.81839 0.0
O319 O 0.38867 0.10373 0.86822 0.0
Zn320 Zn 0.71487 0.63412 0.31036 0.0
O321 O 0.70992 0.69753 0.27738 0.0
C322 C 0.68755 0.63429 0.91259 0.0
Zn323 Zn 0.65942 0.63535 0.32287 0.0
C324 C 0.68072 0.71421 0.2846 0.0
O325 O 0.65387 0.6936 0.31761 0.0
C326 C 0.68862 0.55455 0.34371 0.0
O327 O 0.65956 0.63595 0.62975 0.0
O328 O 0.71589 0.63609 0.623 0.0
N329 N 0.60941 0.62831 0.31942 0.0
C330 C 0.58861 0.60702 0.44219 0.0
C331 C 0.56034 0.62088 0.18401 0.0
N332 N 0.59198 0.63713 0.15969 0.0
N333 N 0.55837 0.60174 0.35855 0.0
C334 C 0.78729 0.65765 0.17345 0.0
C335 C 0.81297 0.6052 0.27178 0.0
N336 N 0.76554 0.6363 0.29215 0.0
N337 N 0.78158 0.60403 0.35392 0.0
N338 N 0.81701 0.63816 0.15627 0.0
H339 H 0.75139 0.69237 0.00354 0.0
H340 H 0.77942 0.72034 0.15263 0.0
H341 H 0.79534 0.69993 0.92988 0.0
C342 C 0.77794 0.6945 0.05748 0.0
C343 C 0.59773 0.59024 0.63945 0.0
H344 H 0.60144 0.61494 0.7396 0.0
H345 H 0.57684 0.5708 0.7025 0.0
H346 H 0.62175 0.57311 0.63176 0.0
O347 O 0.66227 0.57564 0.33222 0.0
O348 O 0.7181 0.57086 0.33858 0.0
C349 C 0.68771 0.63551 0.71935 0.0
O350 O 0.71543 0.6314 0.00305 0.0
O351 O 0.65953 0.63595 0.00845 0.0
Zn352 Zn 0.21664 0.88598 -0.00869 0.0
O353 O 0.20568 0.81993 -0.00875 0.0
C354 C 0.18635 0.88923 0.3947 0.0
Zn355 Zn 0.15649 0.89294 -0.00858 0.0
C356 C 0.17463 0.80551 -0.01264 0.0
O357 O 0.14951 0.82918 -0.00495 0.0
C358 C 0.19338 0.97388 0.97468 0.0
O359 O 0.15852 0.8931 0.68221 0.0
O360 O 0.21528 0.88684 0.67782 0.0
N361 N 0.10182 0.89963 -0.00977 0.0
C362 C 0.07984 0.93051 0.00486 0.0
C363 C 0.04894 0.87842 0.96776 0.0
N364 N 0.0822 0.86757 0.96714 0.0
N365 N 0.04659 0.91784 -0.01012 0.0
C366 C 0.30065 0.85942 0.06985 0.0
C367 C 0.32193 0.91666 -0.00024 0.0
N368 N 0.27377 0.88271 0.00712 0.0
N369 N 0.28804 0.91792 0.9638 0.0
N370 N 0.33142 0.88042 0.06783 0.0
H371 H 0.26852 0.81127 0.18476 0.0
H372 H 0.30517 0.79694 0.03994 0.0
H373 H 0.31174 0.8133 0.28211 0.0
C374 C 0.29605 0.8178 0.1499 0.0
C375 C 0.09129 0.97299 0.01948 0.0
H376 H 0.10687 0.9819 0.88823 0.0
H377 H 0.06954 0.99359 0.02763 0.0
H378 H 0.10755 0.97606 0.14945 0.0
O379 O 0.16454 0.95544 0.98034 0.0
O380 O 0.22093 0.95343 0.98069 0.0
C381 C 0.18675 0.88974 0.58799 0.0
O382 O 0.21445 0.88559 0.30039 0.0
O383 O 0.15795 0.8924 0.30467 0.0
Zn384 Zn 0.92295 0.62613 0.02708 0.0
O385 O 0.97637 0.63442 0.00228 0.0
C386 C 0.91454 0.65929 0.61989 0.0
Zn387 Zn 0.90732 0.69276 0.01896 0.0
C388 C 0.98462 0.67141 -0.00121 0.0
O389 O 0.96141 0.69754 0.00949 0.0
C390 C 0.84709 0.64903 0.06901 0.0
O391 O 0.90811 0.6911 0.32934 0.0
O392 O 0.92436 0.62841 0.33889 0.0
N393 N 0.90375 0.75599 0.01277 0.0
C394 C 0.87995 0.78523 0.02971 0.0
C395 C 0.92907 0.81355 0.00068 0.0
N396 N 0.93399 0.77432 -0.00517 0.0
N397 N 0.89544 0.82205 0.02219 0.0
C398 C 0.9373 0.52705 -0.00701 0.0
C399 C 0.88842 0.51023 0.11555 0.0
N400 N 0.92159 0.56145 0.04386 0.0
N401 N 0.89161 0.5498 0.12207 0.0
N402 N 0.9165 0.49437 0.03474 0.0
H403 H 0.97883 0.55619 0.8303 0.0
H404 H 0.9911 0.51613 -0.00491 0.0
H405 H 0.97045 0.50464 0.77167 0.0
C406 C 0.97138 0.52613 0.89006 0.0
C407 C 0.84232 0.77701 0.06186 0.0
H408 H 0.83868 0.7541 0.18078 0.0
H409 H 0.82821 0.80396 0.09996 0.0
H410 H 0.83143 0.76493 0.92762 0.0
O411 O 0.85467 0.68539 0.03424 0.0
O412 O 0.87007 0.62296 0.05848 0.0
C413 C 0.91572 0.65959 0.42643 0.0
O414 O 0.92073 0.62731 0.71712 0.0
O415 O 0.90729 0.691 0.70716 0.0
Zn416 Zn 0.21794 0.10867 0.93617 0.0
O417 O 0.21082 0.17585 0.9288 0.0
C418 C 0.18877 0.10323 0.53767 0.0
Zn419 Zn 0.15917 0.09782 0.94589 0.0
C420 C 0.17918 0.18646 0.93264 0.0
O421 O 0.15593 0.15943 0.93611 0.0
C422 C 0.19275 1.01863 0.96055 0.0
O423 O 0.16039 0.09766 0.25641 0.0
O424 O 0.21672 0.10833 0.24787 0.0
N425 N 0.10457 0.09459 0.94105 0.0
C426 C 0.07998 0.11732 0.02136 0.0
C427 C 0.05451 0.07955 0.82534 0.0
N428 N 0.08841 0.07117 0.81979 0.0
N429 N 0.04838 0.10822 0.95229 0.0
C430 C 0.30027 0.13553 0.87155 0.0
C431 C 0.3218 0.07966 0.95052 0.0
N432 N 0.27342 0.11062 0.92647 0.0
N433 N 0.28745 0.07617 0.97489 0.0
N434 N 0.33107 0.11661 0.88555 0.0
H435 H 0.26928 0.18167 0.74403 0.0
H436 H 0.30149 0.19811 0.91136 0.0
H437 H 0.31425 0.18399 0.6717 0.0
C438 C 0.29594 0.17723 0.79423 0.0
C439 C 0.08679 0.14865 0.16548 0.0
H440 H 0.11275 0.14609 0.22772 0.0
H441 H 0.08454 0.17835 0.09252 0.0
H442 H 0.06715 0.14629 0.28435 0.0
O443 O 0.16346 0.03506 0.95833 0.0
O444 O 0.2199 0.04095 0.95013 0.0
C445 C 0.18863 0.10306 0.34439 0.0
O446 O 0.21692 0.1086 0.62595 0.0
O447 O 0.16073 0.09805 0.63415 0.0
Zn448 Zn 0.63334 0.44517 0.42156 0.0
O449 O 0.6321 0.44286 0.11726 0.0
C450 C 0.68257 0.51226 0.37124 0.0
Zn451 Zn 0.68637 0.42733 0.41529 0.0
C452 C 0.6594 0.43513 0.02383 0.0
O453 O 0.68631 0.42491 0.11288 0.0
C454 C 0.65997 0.43845 0.81419 0.0
O455 O 0.66687 0.36789 0.45153 0.0
O456 O 0.61405 0.38852 0.4703 0.0
N457 N 0.73388 0.40788 0.42463 0.0
C458 C 0.7484 0.3877 0.57332 0.0
C459 C 0.78792 0.42178 0.42338 0.0
N460 N 0.75852 0.42821 0.32798 0.0
N461 N 0.78191 0.39651 0.57634 0.0
C462 C 0.55704 0.45081 0.40957 0.0
C463 C 0.55064 0.49488 0.62189 0.0
N464 N 0.58766 0.4682 0.43563 0.0
N465 N 0.58362 0.49636 0.5629 0.0
N466 N 0.53367 0.46682 0.52624 0.0
H467 H 0.54722 0.38807 0.40188 0.0
H468 H 0.52722 0.41677 0.21306 0.0
H469 H 0.57285 0.40854 0.19782 0.0
C470 C 0.55104 0.41392 0.29846 0.0
C471 C 0.73005 0.36602 0.74127 0.0
H472 H 0.74215 0.3369 0.76992 0.0
H473 H 0.73322 0.38304 0.87518 0.0
H474 H 0.70251 0.3607 0.71819 0.0
O475 O 0.68701 0.43112 0.72005 0.0
O476 O 0.63321 0.44791 0.72463 0.0
C477 C 0.63536 0.3609 0.49292 0.0
O478 O 0.65155 0.50109 0.38614 0.0
O479 O 0.70621 0.48697 0.38264 0.0
Zn480 Zn 0.43854 0.83631 0.16083 0.0
O481 O 0.43955 0.83695 0.85576 0.0
C482 C 0.36552 0.87274 0.11535 0.0
Zn483 Zn 0.44165 0.90125 0.13639 0.0
C484 C 0.44062 0.86934 0.75423 0.0
O485 O 0.44282 0.90288 0.83355 0.0
C486 C 0.43916 0.8678 0.5455 0.0
O487 O 0.49767 0.90122 0.13296 0.0
O488 O 0.49857 0.8368 0.16389 0.0
N489 N 0.4408 0.96073 0.17255 0.0
C490 C 0.45837 0.97719 0.3185 0.0
C491 C 0.40807 1.00149 0.32242 0.0
N492 N 0.40977 0.97653 0.17421 0.0
N493 N 0.43823 1.00189 0.41477 0.0
C494 C 0.42066 0.75307 0.32195 0.0
C495 C 0.46758 0.72372 0.26058 0.0
N496 N 0.43918 0.77667 0.19459 0.0
N497 N 0.46829 0.75843 0.15753 0.0
N498 N 0.43828 0.71986 0.36747 0.0
H499 H 0.38613 0.79679 0.4375 0.0
H500 H 0.36576 0.75678 0.32056 0.0
H501 H 0.38323 0.74922 0.56059 0.0
C502 C 0.38728 0.76454 0.41653 0.0
C503 C 0.49272 0.96431 0.39011 0.0
H504 H 0.49303 0.93258 0.43487 0.0
H505 H 0.51197 0.97001 0.27142 0.0
H506 H 0.50005 0.98025 0.52105 0.0
O507 O 0.43898 0.89935 0.4429 0.0
O508 O 0.43845 0.83502 0.46481 0.0
C509 C 0.51539 0.86991 0.1476 0.0
O510 O 0.37812 0.83797 0.14233 0.0
O511 O 0.38659 0.90199 0.11822 0.0
loop_
_geom_bond_atom_site_label_1
_geom_bond_atom_site_label_2
_geom_bond_distance
_geom_bond_site_symmetry_2
_ccdc_geom_bond_type
Zn0 O1 2.055 1_554 S
Zn0 O8 2.046 . S
Zn0 N16 2.036 . S
Zn0 O28 2.053 . S
Zn0 O30 2.066 . S
O1 Zn0 2.055 1_556 S
O1 C4 1.259 . S
C2 O30 1.256 . S
C2 O31 1.244 . S
Zn3 O5 2.046 1_554 S
Zn3 O7 2.055 . S
Zn3 N9 2.036 . S
Zn3 O27 2.066 . S
Zn3 O31 2.053 . S
C4 O1 1.259 . S
C4 O5 1.254 . S
O5 Zn3 2.046 1_556 S
O5 C4 1.254 . S
C6 O27 1.256 . S
C6 O28 1.244 . S
O7 Zn3 2.055 . S
O7 C29 1.259 . S
O8 Zn0 2.046 . S
O8 C29 1.254 . S
N9 Zn3 2.036 . S
N9 C10 1.298 . S
N9 N12 1.398 1_554 S
C10 N9 1.298 . S
C10 N13 1.367 . S
C10 C23 1.481 . S
C11 N12 1.299 1_554 S
C11 N13 1.379 . S
N12 N9 1.398 1_556 S
N12 C11 1.299 1_556 S
N13 C10 1.367 . S
N13 C11 1.379 . S
C14 N16 1.298 1_656 S
C14 N18 1.367 1_556 S
C14 C22 1.481 1_655 S
C15 N17 1.299 1_655 S
C15 N18 1.379 . S
N16 Zn0 2.036 . S
N16 C14 1.298 1_454 S
N16 N17 1.398 . S
N17 C15 1.299 1_455 S
N17 N16 1.398 . S
N18 C14 1.367 1_554 S
N18 C15 1.379 . S
H19 C22 0.980 . S
H20 C22 0.981 1_655 S
H21 C22 0.981 . S
C22 C14 1.481 1_455 S
C22 H19 0.980 . S
C22 H20 0.981 1_455 S
C22 H21 0.981 . S
C23 C10 1.481 . S
C23 H24 0.980 . S
C23 H25 0.981 . S
C23 H26 0.981 . S
H24 C23 0.980 . S
H25 C23 0.981 . S
H26 C23 0.981 . S
O27 Zn3 2.066 . S
O27 C6 1.256 . S
O28 Zn0 2.053 . S
O28 C6 1.244 . S
C29 O7 1.259 . S
C29 O8 1.254 . S
O30 Zn0 2.066 . S
O30 C2 1.256 . S
O31 C2 1.244 . S
O31 Zn3 2.053 . S
Zn32 O33 2.055 . S
Zn32 O40 2.046 1_554 S
Zn32 N48 2.036 . S
Zn32 O60 2.053 . S
Zn32 O62 2.066 . S
O33 Zn32 2.055 . S
O33 C36 1.259 . S
C34 O62 1.256 . S
C34 O63 1.244 . S
Zn35 O37 2.046 . S
Zn35 O39 2.055 1_554 S
Zn35 N41 2.036 . S
Zn35 O59 2.066 . S
Zn35 O63 2.053 . S
C36 O33 1.259 . S
C36 O37 1.254 . S
O37 Zn35 2.046 . S
O37 C36 1.254 . S
C38 O59 1.256 . S
C38 O60 1.244 . S
O39 Zn35 2.055 1_556 S
O39 C61 1.259 . S
O40 Zn32 2.046 1_556 S
O40 C61 1.254 . S
N41 Zn35 2.036 . S
N41 C42 1.298 . S
N41 N44 1.398 . S
C42 N41 1.298 . S
C42 N45 1.367 . S
C42 C55 1.481 1_554 S
C43 N44 1.299 . S
C43 N45 1.379 . S
N44 N41 1.398 . S
N44 C43 1.299 . S
N45 C42 1.367 . S
N45 C43 1.379 . S
C46 N48 1.298 . S
C46 N50 1.387 . S
C46 C54 1.481 . S
C47 N49 1.299 . S
C47 N50 1.381 . S
N48 Zn32 2.036 . S
N48 C46 1.298 . S
N48 N49 1.398 . S
N49 C47 1.299 . S
N49 N48 1.398 . S
N50 C46 1.387 . S
N50 C47 1.381 . S
H51 C54 0.980 . S
H52 C54 0.981 . S
H53 C54 0.981 . S
C54 C46 1.481 . S
C54 H51 0.980 . S
C54 H52 0.981 . S
C54 H53 0.981 . S
C55 C42 1.481 1_556 S
C55 H56 0.980 . S
C55 H57 0.981 . S
C55 H58 0.981 . S
H56 C55 0.980 . S
H57 C55 0.981 . S
H58 C55 0.981 . S
O59 Zn35 2.066 . S
O59 C38 1.256 . S
O60 Zn32 2.053 . S
O60 C38 1.244 . S
C61 O39 1.259 . S
C61 O40 1.254 . S
O62 Zn32 2.066 . S
O62 C34 1.256 . S
O63 C34 1.244 . S
O63 Zn35 2.053 . S
Zn64 O65 2.055 . S
Zn64 O72 2.046 . S
Zn64 N80 2.036 . S
Zn64 O92 2.053 . S
Zn64 O94 2.066 . S
O65 Zn64 2.055 . S
O65 C68 1.259 . S
C66 O94 1.256 . S
C66 O95 1.244 . S
Zn67 O69 2.046 . S
Zn67 O71 2.055 . S
Zn67 N73 2.036 . S
Zn67 O91 2.066 . S
Zn67 O95 2.053 . S
C68 O65 1.259 . S
C68 O69 1.254 . S
O69 Zn67 2.046 . S
O69 C68 1.254 . S
C70 O91 1.256 . S
C70 O92 1.244 . S
O71 Zn67 2.055 . S
O71 C93 1.259 . S
O72 Zn64 2.046 . S
O72 C93 1.254 . S
N73 Zn67 2.036 . S
N73 C74 1.298 . S
N73 N76 1.398 . S
C74 N73 1.298 . S
C74 N77 1.367 . S
C74 C87 1.481 . S
C75 N76 1.299 . S
C75 N77 1.379 . S
N76 N73 1.398 . S
N76 C75 1.299 . S
N77 C74 1.367 . S
N77 C75 1.379 . S
C78 N80 1.298 . S
C78 N82 1.367 . S
C78 C86 1.481 . S
C79 N81 1.299 . S
C79 N82 1.379 . S
N80 Zn64 2.036 . S
N80 C78 1.298 . S
N80 N81 1.398 . S
N81 C79 1.299 . S
N81 N80 1.398 . S
N82 C78 1.367 . S
N82 C79 1.379 . S
H83 C86 0.980 . S
H84 C86 0.981 . S
H85 C86 0.981 . S
C86 C78 1.481 . S
C86 H83 0.980 . S
C86 H84 0.981 . S
C86 H85 0.981 . S
C87 C74 1.481 . S
C87 H88 0.980 . S
C87 H89 0.981 . S
C87 H90 0.981 . S
H88 C87 0.980 . S
H89 C87 0.981 . S
H90 C87 0.981 . S
O91 Zn67 2.066 . S
O91 C70 1.256 . S
O92 Zn64 2.053 . S
O92 C70 1.244 . S
C93 O71 1.259 . S
C93 O72 1.254 . S
O94 Zn64 2.066 . S
O94 C66 1.256 . S
O95 C66 1.244 . S
O95 Zn67 2.053 . S
Zn96 O97 2.055 . S
Zn96 O104 2.046 1_556 S
Zn96 N112 2.036 . S
Zn96 O124 2.053 1_556 S
Zn96 O126 2.066 . S
O97 Zn96 2.055 . S
O97 C100 1.259 . S
C98 O126 1.256 . S
C98 O127 1.244 . S
Zn99 O101 2.046 . S
Zn99 O103 2.055 1_556 S
Zn99 N105 2.036 . S
Zn99 O123 2.066 . S
Zn99 O127 2.053 . S
C100 O97 1.259 . S
C100 O101 1.254 . S
O101 Zn99 2.046 . S
O101 C100 1.254 . S
C102 O123 1.256 1_554 S
C102 O124 1.244 . S
O103 Zn99 2.055 1_554 S
O103 C125 1.259 . S
O104 Zn96 2.046 1_554 S
O104 C125 1.254 . S
N105 Zn99 2.036 . S
N105 C106 1.298 1_556 S
N105 N108 1.398 . S
C106 N105 1.298 1_554 S
C106 N109 1.367 1_554 S
C106 C119 1.481 . S
C107 N108 1.299 . S
C107 N109 1.379 . S
N108 N105 1.398 . S
N108 C107 1.299 . S
N109 C106 1.367 1_556 S
N109 C107 1.379 . S
C110 N112 1.298 . S
C110 N114 1.367 . S
C110 C118 1.481 . S
C111 N113 1.299 1_556 S
C111 N114 1.379 . S
N112 Zn96 2.036 . S
N112 C110 1.298 . S
N112 N113 1.398 1_556 S
N113 C111 1.299 1_554 S
N113 N112 1.398 1_554 S
N114 C110 1.367 . S
N114 C111 1.379 . S
H115 C118 0.980 . S
H116 C118 0.981 . S
H117 C118 0.981 . S
C118 C110 1.481 . S
C118 H115 0.980 . S
C118 H116 0.981 . S
C118 H117 0.981 . S
C119 C106 1.481 . S
C119 H120 0.980 . S
C119 H121 0.981 . S
C119 H122 0.981 . S
H120 C119 0.980 . S
H121 C119 0.981 . S
H122 C119 0.981 . S
O123 Zn99 2.066 . S
O123 C102 1.256 1_556 S
O124 Zn96 2.053 1_554 S
O124 C102 1.244 . S
C125 O103 1.259 . S
C125 O104 1.254 . S
O126 Zn96 2.066 . S
O126 C98 1.256 . S
O127 C98 1.244 . S
O127 Zn99 2.053 . S
Zn128 O129 2.055 . S
Zn128 O136 2.046 . S
Zn128 N144 2.036 . S
Zn128 O156 2.053 1_556 S
Zn128 O158 2.066 . S
O129 Zn128 2.055 . S
O129 C132 1.259 . S
C130 O158 1.256 . S
C130 O159 1.244 . S
Zn131 O133 2.046 . S
Zn131 O135 2.055 . S
Zn131 N137 2.036 . S
Zn131 O155 2.066 1_556 S
Zn131 O159 2.053 . S
C132 O129 1.259 . S
C132 O133 1.254 . S
O133 Zn131 2.046 . S
O133 C132 1.254 . S
C134 O155 1.256 . S
C134 O156 1.244 . S
O135 Zn131 2.055 . S
O135 C157 1.259 . S
O136 Zn128 2.046 . S
O136 C157 1.254 . S
N137 Zn131 2.036 . S
N137 C138 1.298 . S
N137 N140 1.398 . S
C138 N137 1.298 . S
C138 N141 1.367 . S
C138 C151 1.481 1_556 S
C139 N140 1.299 . S
C139 N141 1.379 . S
N140 N137 1.398 . S
N140 C139 1.299 . S
N141 C138 1.367 . S
N141 C139 1.379 . S
C142 N144 1.298 . S
C142 N146 1.367 . S
C142 C150 1.481 . S
C143 N145 1.299 . S
C143 N146 1.379 1_554 S
N144 Zn128 2.036 . S
N144 C142 1.298 . S
N144 N145 1.398 1_556 S
N145 C143 1.299 . S
N145 N144 1.398 1_554 S
N146 C142 1.367 . S
N146 C143 1.379 1_556 S
H147 C150 0.980 . S
H148 C150 0.981 . S
H149 C150 0.981 . S
C150 C142 1.481 . S
C150 H147 0.980 . S
C150 H148 0.981 . S
C150 H149 0.981 . S
C151 C138 1.481 1_554 S
C151 H152 0.980 1_554 S
C151 H153 0.981 1_554 S
C151 H154 0.981 . S
H152 C151 0.980 1_556 S
H153 C151 0.981 1_556 S
H154 C151 0.981 . S
O155 Zn131 2.066 1_554 S
O155 C134 1.256 . S
O156 Zn128 2.053 1_554 S
O156 C134 1.244 . S
C157 O135 1.259 . S
C157 O136 1.254 . S
O158 Zn128 2.066 . S
O158 C130 1.256 . S
O159 C130 1.244 . S
O159 Zn131 2.053 . S
Zn160 O161 2.055 . S
Zn160 O168 2.046 1_554 S
Zn160 N176 2.036 . S
Zn160 O188 2.053 . S
Zn160 O190 2.066 . S
O161 Zn160 2.055 . S
O161 C164 1.259 . S
C162 O190 1.256 . S
C162 O191 1.244 . S
Zn163 O165 2.046 . S
Zn163 O167 2.055 1_554 S
Zn163 N169 2.036 . S
Zn163 O187 2.066 . S
Zn163 O191 2.053 . S
C164 O161 1.259 . S
C164 O165 1.254 . S
O165 Zn163 2.046 . S
O165 C164 1.254 . S
C166 O187 1.256 . S
C166 O188 1.244 . S
O167 Zn163 2.055 1_556 S
O167 C189 1.259 . S
O168 Zn160 2.046 1_556 S
O168 C189 1.254 . S
N169 Zn163 2.036 . S
N169 C170 1.298 1_554 S
N169 N172 1.398 . S
C170 N169 1.298 1_556 S
C170 N173 1.367 1_556 S
C170 C183 1.481 . S
C171 N172 1.299 . S
C171 N173 1.379 . S
N172 N169 1.398 . S
N172 C171 1.299 . S
N173 C170 1.367 1_554 S
N173 C171 1.379 . S
C174 N176 1.298 . S
C174 N178 1.367 . S
C174 C182 1.481 . S
C175 N177 1.299 1_554 S
C175 N178 1.379 . S
N176 Zn160 2.036 . S
N176 C174 1.298 . S
N176 N177 1.398 1_554 S
N177 C175 1.299 1_556 S
N177 N176 1.398 1_556 S
N178 C174 1.367 . S
N178 C175 1.379 . S
H179 C182 0.980 . S
H180 C182 0.981 . S
H181 C182 0.981 . S
C182 C174 1.481 . S
C182 H179 0.980 . S
C182 H180 0.981 . S
C182 H181 0.981 . S
C183 C170 1.481 . S
C183 H184 0.980 . S
C183 H185 0.981 . S
C183 H186 0.981 . S
H184 C183 0.980 . S
H185 C183 0.981 . S
H186 C183 0.981 . S
O187 Zn163 2.066 . S
O187 C166 1.256 . S
O188 Zn160 2.053 . S
O188 C166 1.244 . S
C189 O167 1.259 . S
C189 O168 1.254 . S
O190 Zn160 2.066 . S
O190 C162 1.256 . S
O191 C162 1.244 . S
O191 Zn163 2.053 . S
Zn192 O193 2.055 . S
Zn192 O200 2.046 . S
Zn192 N208 2.036 . S
Zn192 O220 2.053 . S
Zn192 O222 2.066 . S
O193 Zn192 2.055 . S
O193 C196 1.259 . S
C194 O222 1.256 . S
C194 O223 1.244 . S
Zn195 O197 2.046 . S
Zn195 O199 2.055 . S
Zn195 N201 2.036 . S
Zn195 O219 2.066 . S
Zn195 O223 2.053 . S
C196 O193 1.259 . S
C196 O197 1.254 . S
O197 Zn195 2.046 . S
O197 C196 1.254 . S
C198 O219 1.256 . S
C198 O220 1.244 . S
O199 Zn195 2.055 . S
O199 C221 1.259 . S
O200 Zn192 2.046 . S
O200 C221 1.254 . S
N201 Zn195 2.036 . S
N201 C202 1.298 . S
N201 N204 1.398 . S
C202 N201 1.298 . S
C202 N205 1.367 . S
C202 C215 1.481 . S
C203 N204 1.299 . S
C203 N205 1.379 . S
N204 N201 1.398 . S
N204 C203 1.299 . S
N205 C202 1.367 . S
N205 C203 1.379 . S
C206 N208 1.298 . S
C206 N210 1.367 . S
C206 C214 1.481 . S
C207 N209 1.299 . S
C207 N210 1.379 . S
N208 Zn192 2.036 . S
N208 C206 1.298 . S
N208 N209 1.398 . S
N209 C207 1.299 . S
N209 N208 1.398 . S
N210 C206 1.367 . S
N210 C207 1.379 . S
H211 C214 0.980 . S
H212 C214 0.981 . S
H213 C214 0.981 . S
C214 C206 1.481 . S
C214 H211 0.980 . S
C214 H212 0.981 . S
C214 H213 0.981 . S
C215 C202 1.481 . S
C215 H216 0.980 . S
C215 H217 0.981 . S
C215 H218 0.981 . S
H216 C215 0.980 . S
H217 C215 0.981 . S
H218 C215 0.981 . S
O219 Zn195 2.066 . S
O219 C198 1.256 . S
O220 Zn192 2.053 . S
O220 C198 1.244 . S
C221 O199 1.259 . S
C221 O200 1.254 . S
O222 Zn192 2.066 . S
O222 C194 1.256 . S
O223 C194 1.244 . S
O223 Zn195 2.053 . S
Zn224 O225 2.055 1_556 S
Zn224 O232 2.046 . S
Zn224 N240 2.036 . S
Zn224 O252 2.053 . S
Zn224 O254 2.066 . S
O225 Zn224 2.055 1_554 S
O225 C228 1.259 . S
C226 O254 1.256 . S
C226 O255 1.244 . S
Zn227 O229 2.046 1_556 S
Zn227 O231 2.055 . S
Zn227 N233 2.036 . S
Zn227 O251 2.066 . S
Zn227 O255 2.053 . S
C228 O225 1.259 . S
C228 O229 1.254 . S
O229 Zn227 2.046 1_554 S
O229 C228 1.254 . S
C230 O251 1.256 . S
C230 O252 1.244 . S
O231 Zn227 2.055 . S
O231 C253 1.259 . S
O232 Zn224 2.046 . S
O232 C253 1.254 . S
N233 Zn227 2.036 . S
N233 C234 1.298 . S
N233 N236 1.398 . S
C234 N233 1.298 . S
C234 N237 1.367 . S
C234 C247 1.481 . S
C235 N236 1.299 . S
C235 N237 1.379 . S
N236 N233 1.398 . S
N236 C235 1.299 . S
N237 C234 1.367 . S
N237 C235 1.379 . S
C238 N240 1.298 . S
C238 N242 1.367 . S
C238 C246 1.481 1_556 S
C239 N241 1.299 . S
C239 N242 1.379 . S
N240 Zn224 2.036 . S
N240 C238 1.298 . S
N240 N241 1.398 . S
N241 C239 1.299 . S
N241 N240 1.398 . S
N242 C238 1.367 . S
N242 C239 1.379 . S
H243 C246 0.980 . S
H244 C246 0.981 . S
H245 C246 0.981 . S
C246 C238 1.481 1_554 S
C246 H243 0.980 . S
C246 H244 0.981 . S
C246 H245 0.981 . S
C247 C234 1.481 . S
C247 H248 0.980 . S
C247 H249 0.981 . S
C247 H250 0.981 . S
H248 C247 0.980 . S
H249 C247 0.981 . S
H250 C247 0.981 . S
O251 Zn227 2.066 . S
O251 C230 1.256 . S
O252 Zn224 2.053 . S
O252 C230 1.244 . S
C253 O231 1.259 . S
C253 O232 1.254 . S
O254 Zn224 2.066 . S
O254 C226 1.256 . S
O255 C226 1.244 . S
O255 Zn227 2.053 . S
Zn256 O257 2.055 1_556 S
Zn256 O264 2.046 . S
Zn256 N272 2.036 . S
Zn256 O284 2.053 . S
Zn256 O286 2.066 . S
O257 Zn256 2.055 1_554 S
O257 C260 1.259 . S
C258 O286 1.256 . S
C258 O287 1.244 . S
Zn259 O261 2.046 1_556 S
Zn259 O263 2.055 . S
Zn259 N265 2.036 . S
Zn259 O283 2.066 . S
Zn259 O287 2.053 . S
C260 O257 1.259 . S
C260 O261 1.254 . S
O261 Zn259 2.046 1_554 S
O261 C260 1.254 . S
C262 O283 1.256 . S
C262 O284 1.244 . S
O263 Zn259 2.055 . S
O263 C285 1.259 . S
O264 Zn256 2.046 . S
O264 C285 1.254 . S
N265 Zn259 2.036 . S
N265 C266 1.298 . S
N265 N268 1.398 1_556 S
C266 N265 1.298 . S
C266 N269 1.367 . S
C266 C279 1.481 . S
C267 N268 1.299 1_556 S
C267 N269 1.379 . S
N268 N265 1.398 1_554 S
N268 C267 1.299 1_554 S
N269 C266 1.367 . S
N269 C267 1.379 . S
C270 N272 1.298 1_454 S
C270 N274 1.367 1_554 S
C270 C278 1.481 1_455 S
C271 N273 1.299 1_455 S
C271 N274 1.379 . S
N272 Zn256 2.036 . S
N272 C270 1.298 1_656 S
N272 N273 1.398 . S
N273 C271 1.299 1_655 S
N273 N272 1.398 . S
N274 C270 1.367 1_556 S
N274 C271 1.379 . S
H275 C278 0.980 . S
H276 C278 0.981 1_455 S
H277 C278 0.981 . S
C278 C270 1.481 1_655 S
C278 H275 0.980 . S
C278 H276 0.981 1_655 S
C278 H277 0.981 . S
C279 C266 1.481 . S
C279 H280 0.980 . S
C279 H281 0.981 . S
C279 H282 0.981 . S
H280 C279 0.980 . S
H281 C279 0.981 . S
H282 C279 0.981 . S
O283 Zn259 2.066 . S
O283 C262 1.256 . S
O284 Zn256 2.053 . S
O284 C262 1.244 . S
C285 O263 1.259 . S
C285 O264 1.254 . S
O286 Zn256 2.066 . S
O286 C258 1.256 . S
O287 C258 1.244 . S
O287 Zn259 2.053 . S
Zn288 O289 2.055 1_556 S
Zn288 O296 2.046 . S
Zn288 N304 2.036 . S
Zn288 O316 2.053 . S
Zn288 O318 2.066 . S
O289 Zn288 2.055 1_554 S
O289 C292 1.259 . S
C290 O318 1.256 . S
C290 O319 1.244 . S
Zn291 O293 2.046 1_556 S
Zn291 O295 2.055 . S
Zn291 N297 2.036 . S
Zn291 O315 2.066 . S
Zn291 O319 2.053 . S
C292 O289 1.259 . S
C292 O293 1.254 . S
O293 Zn291 2.046 1_554 S
O293 C292 1.254 . S
C294 O315 1.256 . S
C294 O316 1.244 . S
O295 Zn291 2.055 . S
O295 C317 1.259 . S
O296 Zn288 2.046 . S
O296 C317 1.254 . S
N297 Zn291 2.036 . S
N297 C298 1.298 . S
N297 N300 1.398 . S
C298 N297 1.298 . S
C298 N301 1.387 . S
C298 C311 1.481 . S
C299 N300 1.299 . S
C299 N301 1.381 . S
N300 N297 1.398 . S
N300 C299 1.299 . S
N301 C298 1.387 . S
N301 C299 1.381 . S
C302 N304 1.298 . S
C302 N306 1.367 . S
C302 C310 1.481 1_556 S
C303 N305 1.299 . S
C303 N306 1.379 . S
N304 Zn288 2.036 . S
N304 C302 1.298 . S
N304 N305 1.398 . S
N305 C303 1.299 . S
N305 N304 1.398 . S
N306 C302 1.367 . S
N306 C303 1.379 . S
H307 C310 0.980 . S
H308 C310 0.981 . S
H309 C310 0.981 . S
C310 C302 1.481 1_554 S
C310 H307 0.980 . S
C310 H308 0.981 . S
C310 H309 0.981 . S
C311 C298 1.481 . S
C311 H312 0.980 . S
C311 H313 0.981 . S
C311 H314 0.981 . S
H312 C311 0.980 . S
H313 C311 0.981 . S
H314 C311 0.981 . S
O315 Zn291 2.066 . S
O315 C294 1.256 . S
O316 Zn288 2.053 . S
O316 C294 1.244 . S
C317 O295 1.259 . S
C317 O296 1.254 . S
O318 Zn288 2.066 . S
O318 C290 1.256 . S
O319 C290 1.244 . S
O319 Zn291 2.053 . S
Zn320 O321 2.055 . S
Zn320 O328 2.046 . S
Zn320 N336 2.036 . S
Zn320 O348 2.053 . S
Zn320 O350 2.066 . S
O321 Zn320 2.055 . S
O321 C324 1.259 . S
C322 O350 1.256 . S
C322 O351 1.244 . S
Zn323 O325 2.046 . S
Zn323 O327 2.055 . S
Zn323 N329 2.036 . S
Zn323 O347 2.066 . S
Zn323 O351 2.053 . S
C324 O321 1.259 . S
C324 O325 1.254 . S
O325 Zn323 2.046 . S
O325 C324 1.254 . S
C326 O347 1.256 . S
C326 O348 1.244 . S
O327 Zn323 2.055 . S
O327 C349 1.259 . S
O328 Zn320 2.046 . S
O328 C349 1.254 . S
N329 Zn323 2.036 . S
N329 C330 1.298 . S
N329 N332 1.398 . S
C330 N329 1.298 . S
C330 N333 1.367 . S
C330 C343 1.481 . S
C331 N332 1.299 . S
C331 N333 1.379 . S
N332 N329 1.398 . S
N332 C331 1.299 . S
N333 C330 1.367 . S
N333 C331 1.379 . S
C334 N336 1.298 . S
C334 N338 1.367 . S
C334 C342 1.481 . S
C335 N337 1.299 . S
C335 N338 1.379 . S
N336 Zn320 2.036 . S
N336 C334 1.298 . S
N336 N337 1.398 . S
N337 C335 1.299 . S
N337 N336 1.398 . S
N338 C334 1.367 . S
N338 C335 1.379 . S
H339 C342 0.980 . S
H340 C342 0.981 . S
H341 C342 0.981 . S
C342 C334 1.481 . S
C342 H339 0.980 . S
C342 H340 0.981 . S
C342 H341 0.981 . S
C343 C330 1.481 . S
C343 H344 0.980 . S
C343 H345 0.981 . S
C343 H346 0.981 . S
H344 C343 0.980 . S
H345 C343 0.981 . S
H346 C343 0.981 . S
O347 Zn323 2.066 . S
O347 C326 1.256 . S
O348 Zn320 2.053 . S
O348 C326 1.244 . S
C349 O327 1.259 . S
C349 O328 1.254 . S
O350 Zn320 2.066 . S
O350 C322 1.256 . S
O351 C322 1.244 . S
O351 Zn323 2.053 . S
Zn352 O353 2.055 . S
Zn352 O360 2.046 1_554 S
Zn352 N368 2.036 . S
Zn352 O380 2.053 1_554 S
Zn352 O382 2.066 . S
O353 Zn352 2.055 . S
O353 C356 1.259 . S
C354 O382 1.256 . S
C354 O383 1.244 . S
Zn355 O357 2.046 . S
Zn355 O359 2.055 1_554 S
Zn355 N361 2.036 . S
Zn355 O379 2.066 . S
Zn355 O383 2.053 . S
C356 O353 1.259 . S
C356 O357 1.254 . S
O357 Zn355 2.046 . S
O357 C356 1.254 . S
C358 O379 1.256 1_556 S
C358 O380 1.244 . S
O359 Zn355 2.055 1_556 S
O359 C381 1.259 . S
O360 Zn352 2.046 1_556 S
O360 C381 1.254 . S
N361 Zn355 2.036 . S
N361 C362 1.298 1_554 S
N361 N364 1.398 . S
C362 N361 1.298 1_556 S
C362 N365 1.367 1_556 S
C362 C375 1.481 . S
C363 N364 1.299 . S
C363 N365 1.379 . S
N364 N361 1.398 . S
N364 C363 1.299 . S
N365 C362 1.367 1_554 S
N365 C363 1.379 . S
C366 N368 1.298 . S
C366 N370 1.367 . S
C366 C374 1.481 . S
C367 N369 1.299 1_554 S
C367 N370 1.379 . S
N368 Zn352 2.036 . S
N368 C366 1.298 . S
N368 N369 1.398 1_554 S
N369 C367 1.299 1_556 S
N369 N368 1.398 1_556 S
N370 C366 1.367 . S
N370 C367 1.379 . S
H371 C374 0.980 . S
H372 C374 0.981 . S
H373 C374 0.981 . S
C374 C366 1.481 . S
C374 H371 0.980 . S
C374 H372 0.981 . S
C374 H373 0.981 . S
C375 C362 1.481 . S
C375 H376 0.980 . S
C375 H377 0.981 . S
C375 H378 0.981 . S
H376 C375 0.980 . S
H377 C375 0.981 . S
H378 C375 0.981 . S
O379 Zn355 2.066 . S
O379 C358 1.256 1_554 S
O380 Zn352 2.053 1_556 S
O380 C358 1.244 . S
C381 O359 1.259 . S
C381 O360 1.254 . S
O382 Zn352 2.066 . S
O382 C354 1.256 . S
O383 C354 1.244 . S
O383 Zn355 2.053 . S
Zn384 O385 2.055 . S
Zn384 O392 2.046 . S
Zn384 N400 2.036 . S
Zn384 O412 2.053 . S
Zn384 O414 2.066 1_554 S
O385 Zn384 2.055 . S
O385 C388 1.259 . S
C386 O414 1.256 . S
C386 O415 1.244 . S
Zn387 O389 2.046 . S
Zn387 O391 2.055 . S
Zn387 N393 2.036 . S
Zn387 O411 2.066 . S
Zn387 O415 2.053 1_554 S
C388 O385 1.259 . S
C388 O389 1.254 . S
O389 Zn387 2.046 . S
O389 C388 1.254 . S
C390 O411 1.256 . S
C390 O412 1.244 . S
O391 Zn387 2.055 . S
O391 C413 1.259 . S
O392 Zn384 2.046 . S
O392 C413 1.254 . S
N393 Zn387 2.036 . S
N393 C394 1.298 . S
N393 N396 1.398 1_554 S
C394 N393 1.298 . S
C394 N397 1.367 . S
C394 C407 1.481 . S
C395 N396 1.299 . S
C395 N397 1.379 1_556 S
N396 N393 1.398 1_556 S
N396 C395 1.299 . S
N397 C394 1.367 . S
N397 C395 1.379 1_554 S
C398 N400 1.298 . S
C398 N402 1.367 . S
C398 C406 1.481 1_554 S
C399 N401 1.299 . S
C399 N402 1.379 . S
N400 Zn384 2.036 . S
N400 C398 1.298 . S
N400 N401 1.398 . S
N401 C399 1.299 . S
N401 N400 1.398 . S
N402 C398 1.367 . S
N402 C399 1.379 . S
H403 C406 0.980 1_554 S
H404 C406 0.981 1_554 S
H405 C406 0.981 . S
C406 C398 1.481 1_556 S
C406 H403 0.980 1_556 S
C406 H404 0.981 1_556 S
C406 H405 0.981 . S
C407 C394 1.481 . S
C407 H408 0.980 . S
C407 H409 0.981 . S
C407 H410 0.981 . S
H408 C407 0.980 . S
H409 C407 0.981 . S
H410 C407 0.981 . S
O411 Zn387 2.066 . S
O411 C390 1.256 . S
O412 Zn384 2.053 . S
O412 C390 1.244 . S
C413 O391 1.259 . S
C413 O392 1.254 . S
O414 Zn384 2.066 1_556 S
O414 C386 1.256 . S
O415 C386 1.244 . S
O415 Zn387 2.053 1_556 S
Zn416 O417 2.055 . S
Zn416 O424 2.046 1_556 S
Zn416 N432 2.036 . S
Zn416 O444 2.053 . S
Zn416 O446 2.066 . S
O417 Zn416 2.055 . S
O417 C420 1.259 . S
C418 O446 1.256 . S
C418 O447 1.244 . S
Zn419 O421 2.046 . S
Zn419 O423 2.055 1_556 S
Zn419 N425 2.036 . S
Zn419 O443 2.066 . S
Zn419 O447 2.053 . S
C420 O417 1.259 . S
C420 O421 1.254 . S
O421 Zn419 2.046 . S
O421 C420 1.254 . S
C422 O443 1.256 . S
C422 O444 1.244 . S
O423 Zn419 2.055 1_554 S
O423 C445 1.259 . S
O424 Zn416 2.046 1_554 S
O424 C445 1.254 . S
N425 Zn419 2.036 . S
N425 C426 1.298 1_556 S
N425 N428 1.398 . S
C426 N425 1.298 1_554 S
C426 N429 1.367 1_554 S
C426 C439 1.481 . S
C427 N428 1.299 . S
C427 N429 1.379 . S
N428 N425 1.398 . S
N428 C427 1.299 . S
N429 C426 1.367 1_556 S
N429 C427 1.379 . S
C430 N432 1.298 . S
C430 N434 1.367 . S
C430 C438 1.481 . S
C431 N433 1.299 1_556 S
C431 N434 1.379 . S
N432 Zn416 2.036 . S
N432 C430 1.298 . S
N432 N433 1.398 1_556 S
N433 C431 1.299 1_554 S
N433 N432 1.398 1_554 S
N434 C430 1.367 . S
N434 C431 1.379 . S
H435 C438 0.980 . S
H436 C438 0.981 . S
H437 C438 0.981 . S
C438 C430 1.481 . S
C438 H435 0.980 . S
C438 H436 0.981 . S
C438 H437 0.981 . S
C439 C426 1.481 . S
C439 H440 0.980 . S
C439 H441 0.981 . S
C439 H442 0.981 . S
H440 C439 0.980 . S
H441 C439 0.981 . S
H442 C439 0.981 . S
O443 Zn419 2.066 . S
O443 C422 1.256 . S
O444 Zn416 2.053 . S
O444 C422 1.244 . S
C445 O423 1.259 . S
C445 O424 1.254 . S
O446 Zn416 2.066 . S
O446 C418 1.256 . S
O447 C418 1.244 . S
O447 Zn419 2.053 . S
Zn448 O449 2.055 . S
Zn448 O456 2.046 . S
Zn448 N464 2.036 . S
Zn448 O476 2.053 . S
Zn448 O478 2.066 . S
O449 Zn448 2.055 . S
O449 C452 1.259 . S
C450 O478 1.256 . S
C450 O479 1.244 . S
Zn451 O453 2.046 . S
Zn451 O455 2.055 . S
Zn451 N457 2.036 . S
Zn451 O475 2.066 . S
Zn451 O479 2.053 . S
C452 O449 1.259 . S
C452 O453 1.254 . S
O453 Zn451 2.046 . S
O453 C452 1.254 . S
C454 O475 1.256 . S
C454 O476 1.244 . S
O455 Zn451 2.055 . S
O455 C477 1.259 . S
O456 Zn448 2.046 . S
O456 C477 1.254 . S
N457 Zn451 2.036 . S
N457 C458 1.298 . S
N457 N460 1.398 . S
C458 N457 1.298 . S
C458 N461 1.367 . S
C458 C471 1.481 . S
C459 N460 1.299 . S
C459 N461 1.379 . S
N460 N457 1.398 . S
N460 C459 1.299 . S
N461 C458 1.367 . S
N461 C459 1.379 . S
C462 N464 1.298 . S
C462 N466 1.367 . S
C462 C470 1.481 . S
C463 N465 1.299 . S
C463 N466 1.379 . S
N464 Zn448 2.036 . S
N464 C462 1.298 . S
N464 N465 1.398 . S
N465 C463 1.299 . S
N465 N464 1.398 . S
N466 C462 1.367 . S
N466 C463 1.379 . S
H467 C470 0.980 . S
H468 C470 0.981 . S
H469 C470 0.981 . S
C470 C462 1.481 . S
C470 H467 0.980 . S
C470 H468 0.981 . S
C470 H469 0.981 . S
C471 C458 1.481 . S
C471 H472 0.980 . S
C471 H473 0.981 . S
C471 H474 0.981 . S
H472 C471 0.980 . S
H473 C471 0.981 . S
H474 C471 0.981 . S
O475 Zn451 2.066 . S
O475 C454 1.256 . S
O476 Zn448 2.053 . S
O476 C454 1.244 . S
C477 O455 1.259 . S
C477 O456 1.254 . S
O478 Zn448 2.066 . S
O478 C450 1.256 . S
O479 C450 1.244 . S
O479 Zn451 2.053 . S
Zn480 O481 2.055 1_554 S
Zn480 O488 2.046 . S
Zn480 N496 2.036 . S
Zn480 O508 2.053 . S
Zn480 O510 2.066 . S
O481 Zn480 2.055 1_556 S
O481 C484 1.259 . S
C482 O510 1.256 . S
C482 O511 1.244 . S
Zn483 O485 2.046 1_554 S
Zn483 O487 2.055 . S
Zn483 N489 2.036 . S
Zn483 O507 2.066 . S
Zn483 O511 2.053 . S
C484 O481 1.259 . S
C484 O485 1.254 . S
O485 Zn483 2.046 1_556 S
O485 C484 1.254 . S
C486 O507 1.256 . S
C486 O508 1.244 . S
O487 Zn483 2.055 . S
O487 C509 1.259 . S
O488 Zn480 2.046 . S
O488 C509 1.254 . S
N489 Zn483 2.036 . S
N489 C490 1.298 . S
N489 N492 1.398 . S
C490 N489 1.298 . S
C490 N493 1.367 . S
C490 C503 1.481 . S
C491 N492 1.299 . S
C491 N493 1.379 . S
N492 N489 1.398 . S
N492 C491 1.299 . S
N493 C490 1.367 . S
N493 C491 1.379 . S
C494 N496 1.298 . S
C494 N498 1.367 . S
C494 C502 1.481 1_554 S
C495 N497 1.299 . S
C495 N498 1.379 . S
N496 Zn480 2.036 . S
N496 C494 1.298 . S
N496 N497 1.398 . S
N497 C495 1.299 . S
N497 N496 1.398 . S
N498 C494 1.367 . S
N498 C495 1.379 . S
H499 C502 0.980 . S
H500 C502 0.981 . S
H501 C502 0.981 . S
C502 C494 1.481 1_556 S
C502 H499 0.980 . S
C502 H500 0.981 . S
C502 H501 0.981 . S
C503 C490 1.481 . S
C503 H504 0.980 . S
C503 H505 0.981 . S
C503 H506 0.981 . S
H504 C503 0.980 . S
H505 C503 0.981 . S
H506 C503 0.981 . S
O507 Zn483 2.066 . S
O507 C486 1.256 . S
O508 Zn480 2.053 . S
O508 C486 1.244 . S
C509 O487 1.259 . S
C509 O488 1.254 . S
O510 Zn480 2.066 . S
O510 C482 1.256 . S
O511 C482 1.244 . S
O511 Zn483 2.053 . S
C4 C6 1.512 . S
C61 C34 1.520 . S
C93 C66 1.519 1_554 S
C98 C125 1.545 . S
C134 C132 1.511 . S
C189 C162 1.545 . S
C221 C194 1.510 1_556 S
C228 C230 1.512 . S
C260 C262 1.512 . S
C294 C292 1.520 . S
C322 C349 1.519 1_554 S
C354 C381 1.545 . S
C386 C413 1.511 . S
C418 C445 1.545 . S
C452 C454 1.510 1_554 S
C484 C486 1.512 . S
C29 C356 2.848 . S
C36 C509 3.009 . S
C68 N306 1.512 . S
N109 N429 1.588 1_655 S
N146 C420 1.554 . S
N365 N173 1.588 1_455 S
C196 N498 0.947 . S
C253 C317 3.009 . S
C100 C285 2.848 . S
N45 C324 1.512 . S
N397 C164 1.554 . S
N242 C477 0.947 . S
N274 C157 1.491 . S
N205 N333 0.752 . S
N77 N466 0.752 . S
N18 C388 1.491 . S
C2 N141 1.810 1_554 S
C38 N178 2.491 . S
C70 C198 1.229 . S
N114 C226 2.673 . S
N402 C258 1.810 1_554 S
N434 C290 2.491 . S
C326 C450 1.229 . S
C482 N370 2.673 . S
N50 N237 1.845 1_565 S
C130 N82 1.625 . S
C166 C102 3.278 1_565 S
N13 N210 1.945 . S
N493 N301 1.845 1_565 S
C390 N338 1.625 . S
C422 C358 3.278 1_545 S
N461 N269 1.945 . S
