# Generated by pormake.
# Topology uoo, (4)-cn, num edge types: 1
# Building blocks:
#     Node 0, Type 0, BuildingBlock: QUQFOY_clean_sbu_3, # of connection points: 4
#     Node 1, Type 0, BuildingBlock: QUQFOY_clean_sbu_3, # of connection points: 4
#     Node 2, Type 0, BuildingBlock: QUQFOY_clean_sbu_3, # of connection points: 4
#     Node 3, Type 0, BuildingBlock: QUQFOY_clean_sbu_3, # of connection points: 4
#     Node 4, Type 0, BuildingBlock: QUQFOY_clean_sbu_3, # of connection points: 4
#     Node 5, Type 0, BuildingBlock: QUQFOY_clean_sbu_3, # of connection points: 4
#     Edge 6, Type (0, 0), BuildingBlock: EZIPEK_clean_linker_0, # of connection points: 2
#     Edge 7, Type (0, 0), BuildingBlock: EZIPEK_clean_linker_0, # of connection points: 2
#     Edge 8, Type (0, 0), BuildingBlock: EZIPEK_clean_linker_0, # of connection points: 2
#     Edge 9, Type (0, 0), BuildingBlock: EZIPEK_clean_linker_0, # of connection points: 2
#     Edge 10, Type (0, 0), BuildingBlock: EZIPEK_clean_linker_0, # of connection points: 2
#     Edge 11, Type (0, 0), BuildingBlock: EZIPEK_clean_linker_0, # of connection points: 2
#     Edge 12, Type (0, 0), BuildingBlock: EZIPEK_clean_linker_0, # of connection points: 2
#     Edge 13, Type (0, 0), BuildingBlock: EZIPEK_clean_linker_0, # of connection points: 2
#     Edge 14, Type (0, 0), BuildingBlock: EZIPEK_clean_linker_0, # of connection points: 2
#     Edge 15, Type (0, 0), BuildingBlock: EZIPEK_clean_linker_0, # of connection points: 2
#     Edge 16, Type (0, 0), BuildingBlock: EZIPEK_clean_linker_0, # of connection points: 2
#     Edge 17, Type (0, 0), BuildingBlock: EZIPEK_clean_linker_0, # of connection points: 2
# Relax obj value: 0.203
# Max RMSD: 0.151
# Mean RMSD: 0.150
data_MOF--net-uoo--node1-QUQFOY_clean_sbu_3--edge1-EZIPEK_clean_linker_0
_symmetry_space_group_name_H-M    P1
_symmetry_Int_Tables_number       1
_symmetry_cell_setting            triclinic
loop_
_symmetry_equiv_pos_as_xyz
'x, y, z'
_cell_length_a     18.260467
_cell_length_b     18.272309
_cell_length_c     31.994488
_cell_angle_alpha  90.799299
_cell_angle_beta   89.813727
_cell_angle_gamma 120.14648
loop_
_atom_site_label
_atom_site_type_symbol
_atom_site_fract_x
_atom_site_fract_y
_atom_site_fract_z
_atom_type_partial_charge
C0 C 0.31263 0.39866 0.00949 0.0
O1 O 0.2982 0.45002 -0.01012 0.0
Cd2 Cd 0.16718 0.42904 0.96746 0.0
O3 O 0.25309 0.32615 0.02074 0.0
Cd4 Cd 0.09503 0.24829 0.01771 0.0
C5 C 0.11905 0.24619 0.91162 0.0
O6 O 0.09287 0.37438 0.02944 0.0
O7 O -0.02641 0.27381 0.00681 0.0
O8 O 0.09546 0.21012 0.09005 0.0
C9 C 0.01677 0.34905 0.02086 0.0
O10 O 0.132 0.32158 0.91245 0.0
C11 C 0.03453 0.13444 0.08688 0.0
O12 O 0.10731 0.20508 0.94535 0.0
O13 O 0.00354 0.11005 0.05043 0.0
C14 C 0.61215 0.02163 0.3496 0.0
O15 O 0.63303 0.07865 0.37758 0.0
Cd16 Cd 0.77011 0.18689 0.39228 0.0
O17 O 0.66805 0.01671 0.32741 0.0
Cd18 Cd 0.82883 0.09923 0.32399 0.0
C19 C 0.86338 0.07353 0.42571 0.0
O20 O 0.81234 0.22133 0.32172 0.0
O21 O 0.94145 0.24987 0.32836 0.0
O22 O 0.81379 0.00853 0.26115 0.0
C23 C 0.89016 0.27544 0.32044 0.0
O24 O 0.83408 0.12228 0.43399 0.0
C25 C 0.88496 0.06174 0.24601 0.0
O26 O 0.86594 0.05214 0.38794 0.0
O27 O 0.9288 0.12774 0.26781 0.0
C28 C 0.52295 0.85178 0.64116 0.0
O29 O 0.49875 0.79038 0.61518 0.0
Cd30 Cd 0.56109 0.71517 0.58211 0.0
O31 O 0.59224 0.88064 0.66172 0.0
Cd32 Cd 0.68484 0.81826 0.66825 0.0
C33 C 0.75799 0.87659 0.56372 0.0
O34 O 0.62136 0.68136 0.63637 0.0
O35 O 0.57737 0.68184 0.69829 0.0
O36 O 0.71604 0.84343 0.7426 0.0
C37 C 0.57106 0.64024 0.66533 0.0
O38 O 0.68558 0.82266 0.54914 0.0
C39 C 0.78876 0.85048 0.74095 0.0
O40 O 0.77184 0.88418 0.60319 0.0
O41 O 0.81842 0.8539 0.70458 0.0
C42 C 0.66707 0.54608 -0.01427 0.0
O43 O 0.69017 0.50597 0.96148 0.0
Cd44 Cd 0.82676 0.56176 0.93763 0.0
O45 O 0.72013 0.6198 0.00024 0.0
Cd46 Cd 0.87813 0.72403 -0.00021 0.0
C47 C 0.87084 0.75738 0.89713 0.0
O48 O 0.87691 0.59632 0.00668 0.0
O49 O 0.00177 0.69992 -0.00587 0.0
O50 O 0.85095 0.7971 0.05956 0.0
C51 C 0.9551 0.62377 0.00537 0.0
O52 O 0.84723 0.67907 0.89367 0.0
C53 C 0.9192 0.8163 0.07863 0.0
O54 O 0.89263 0.79525 0.93257 0.0
O55 O -0.03064 0.79909 0.05942 0.0
C56 C 0.24835 0.8256 0.3497 0.0
O57 O 0.21512 0.7652 0.37565 0.0
Cd58 Cd 0.07676 0.68172 0.40443 0.0
O59 O 0.20406 0.84963 0.32917 0.0
Cd60 Cd 0.04906 0.80073 0.32046 0.0
C61 C 0.03591 0.8442 0.4274 0.0
O62 O 0.00727 0.6675 0.34342 0.0
O63 O 0.95408 0.65746 0.28355 0.0
O64 O 0.08364 0.86376 0.2515 0.0
C65 C -0.03362 0.62039 0.31338 0.0
O66 O 0.05591 0.78946 0.43815 0.0
C67 C 0.01875 0.87214 0.24811 0.0
O68 O 0.02443 0.85465 0.38893 0.0
O69 O -0.02931 0.85144 0.27993 0.0
C70 C 0.34442 0.03529 0.64128 0.0
O71 O 0.38176 0.09117 0.61377 0.0
Cd72 Cd 0.33984 0.18466 0.59151 0.0
O73 O 0.2815 0.02999 0.66162 0.0
Cd74 Cd 0.21096 0.11978 0.66535 0.0
C75 C 0.12844 0.0466 0.56945 0.0
O76 O 0.33892 0.25197 0.6545 0.0
O77 O 0.22613 0.25803 0.64347 0.0
O78 O 0.22922 0.12563 0.74099 0.0
C79 C 0.30569 0.29708 0.64885 0.0
O80 O 0.20419 0.09644 0.55799 0.0
C81 C 0.15928 0.12077 0.75005 0.0
O82 O 0.10948 0.03895 0.60814 0.0
O83 O 0.10826 0.10642 0.71999 0.0
C84 C 0.20303 0.23583 0.80383 0.0
C85 C 0.14743 0.15043 0.79166 0.0
C86 C 0.06859 0.12795 0.85713 0.0
C87 C 0.12895 0.21117 0.87088 0.0
N88 N 0.26704 0.33548 0.86095 0.0
N89 N 0.03739 0.01079 0.80977 0.0
C90 C 0.19996 0.26267 0.84525 0.0
C91 C 0.08299 0.09513 0.81917 0.0
N92 N 0.25739 0.29259 0.77545 0.0
N93 N -0.00442 0.08161 0.8791 0.0
H94 H 0.0448 -0.01505 0.78188 0.0
H95 H -0.00111 -0.03374 0.83155 0.0
H96 H -0.01916 0.1043 0.90601 0.0
H97 H 0.94617 0.02372 0.86854 0.0
H98 H 0.2921 0.35757 0.78141 0.0
H99 H 0.26191 0.27636 0.74458 0.0
H100 H 0.32405 0.36979 0.84503 0.0
H101 H 0.27015 0.35694 0.89155 0.0
C102 C 0.00609 0.08071 0.2015 0.0
C103 C 0.9179 0.05092 0.20497 0.0
C104 C 0.90651 0.031 0.12867 0.0
C105 C -0.0044 0.08388 0.12543 0.0
N106 N 0.13143 0.13805 0.15926 0.0
N107 N 0.78259 -0.00245 0.16956 0.0
C108 C 0.0456 0.10229 0.16203 0.0
C109 C 0.86704 0.02409 0.16804 0.0
N110 N 0.05433 0.08853 0.2355 0.0
N111 N 0.85979 -0.0149 0.09489 0.0
H112 H 0.74955 -0.00877 0.19702 0.0
H113 H 0.74622 -0.01224 0.14279 0.0
H114 H 0.88748 -0.01899 0.06712 0.0
H115 H 0.79542 0.94069 0.09669 0.0
H116 H 0.02977 0.06839 0.26535 0.0
H117 H 0.02977 0.06839 0.26535 0.0
H118 H 0.17046 0.15458 0.18561 0.0
H119 H 0.16245 0.14713 0.13072 0.0
C120 C 0.85948 0.94615 0.45794 0.0
C121 C 0.88057 0.03187 0.46145 0.0
C122 C 0.87404 0.0195 0.53798 0.0
C123 C 0.82443 0.93031 0.53269 0.0
N124 N 0.78989 0.80774 0.4897 0.0
N125 N 0.93708 0.15707 0.50476 0.0
C126 C 0.82467 0.89344 0.49326 0.0
C127 C 0.8982 0.07095 0.50171 0.0
N128 N 0.87521 0.91623 0.42171 0.0
N129 N 0.89893 0.05447 0.577 0.0
H130 H -0.03658 0.19535 0.47872 0.0
H131 H 0.94312 0.19027 0.53243 0.0
H132 H 0.88866 0.01829 0.6035 0.0
H133 H 0.93854 0.11886 0.58277 0.0
H134 H 0.86401 0.85483 0.41772 0.0
H135 H 0.91142 0.95631 0.39778 0.0
H136 H 0.77715 0.77522 0.46125 0.0
H137 H 0.77299 0.76902 0.51584 0.0
C138 C 0.82496 0.84697 0.8569 0.0
C139 C 0.86956 0.80188 0.85863 0.0
C140 C 0.87302 0.79784 0.78205 0.0
C141 C 0.83103 0.8459 0.78013 0.0
N142 N 0.7974 0.94178 0.81652 0.0
N143 N -0.03734 0.76394 0.82333 0.0
C144 C 0.81704 0.87891 0.81788 0.0
C145 C 0.90268 0.78755 0.82129 0.0
N146 N 0.7858 0.85551 0.89153 0.0
N147 N 0.87898 0.75562 0.74778 0.0
H148 H -0.01282 0.75799 0.85169 0.0
H149 H -0.00535 0.76017 0.79707 0.0
H150 H 0.85466 0.75511 0.71845 0.0
H151 H 0.90087 0.71292 0.74961 0.0
H152 H 0.74518 0.88002 0.89036 0.0
H153 H 0.78752 0.83174 0.92064 0.0
H154 H 0.79283 -0.02745 0.84323 0.0
H155 H 0.79621 -0.02996 0.78861 0.0
C156 C 0.05422 0.92589 0.17399 0.0
C157 C -0.00649 0.88978 0.20639 0.0
C158 C 0.87945 0.82425 0.15458 0.0
C159 C 0.9404 0.85368 0.12184 0.0
N160 N 0.08039 0.95904 0.1002 0.0
N161 N 0.85034 0.85034 0.22528 0.0
C162 C 0.0264 0.91307 0.13154 0.0
C163 C 0.90663 0.85393 0.19608 0.0
N164 N 0.13813 -0.02636 0.18394 0.0
N165 N 0.79696 0.76382 0.14736 0.0
H166 H 0.8697 0.88072 0.25429 0.0
H167 H 0.78725 0.83005 0.21816 0.0
H168 H 0.77258 0.73675 0.11826 0.0
H169 H 0.7538 0.73468 0.1715 0.0
H170 H 0.18669 -0.00779 0.16224 0.0
H171 H 0.15879 -0.00488 0.2144 0.0
H172 H 0.14274 0.00683 0.10508 0.0
H173 H 0.0598 0.95544 0.06945 0.0
C174 C 0.01782 0.90496 0.53814 0.0
C175 C 0.06661 -0.00555 0.53591 0.0
C176 C 0.06808 -0.01359 0.45948 0.0
C177 C 0.02854 0.89664 0.46169 0.0
N178 N 0.93487 0.77186 0.50034 0.0
N179 N 0.09878 0.11654 0.49568 0.0
C180 C -0.00706 0.85644 0.50026 0.0
C181 C 0.07722 0.03345 0.49675 0.0
N182 N -0.00132 0.86592 0.57591 0.0
N183 N 0.10309 0.02802 0.42319 0.0
H184 H 0.10505 0.15108 0.52307 0.0
H185 H 0.10047 0.14731 0.46821 0.0
H186 H 0.09877 -0.00168 0.39468 0.0
H187 H 0.14157 0.09356 0.4219 0.0
H188 H -0.02486 0.8013 0.57928 0.0
H189 H 0.0066 0.89805 0.60411 0.0
H190 H 0.90158 0.73961 0.5268 0.0
H191 H 0.91284 0.73617 0.47273 0.0
C192 C 0.45657 0.46703 0.04239 0.0
C193 C 0.40061 0.41774 0.0098 0.0
C194 C 0.51758 0.46214 0.96178 0.0
C195 C 0.57567 0.50613 -0.00516 0.0
N196 N 0.59985 0.53258 0.06941 0.0
N197 N 0.37963 0.34534 0.94376 0.0
C198 C 0.54529 0.50364 0.03616 0.0
C199 C 0.43208 0.40695 0.97142 0.0
N200 N 0.42506 0.47998 0.07871 0.0
N201 N 0.54239 0.4774 0.92094 0.0
H202 H 0.31621 0.30297 0.95055 0.0
H203 H 0.40156 0.33108 0.91645 0.0
H204 H 0.60273 0.52434 0.91195 0.0
H205 H 0.49987 0.45119 0.89602 0.0
H206 H 0.46308 0.52308 0.1018 0.0
H207 H 0.36012 0.45025 0.08455 0.0
H208 H 0.57954 0.52536 0.10033 0.0
H209 H 0.66473 0.55621 0.06651 0.0
C210 C 0.94228 0.40829 0.27995 0.0
C211 C 0.91728 0.36577 0.31854 0.0
C212 C 0.90813 0.4832 0.34974 0.0
C213 C 0.94209 0.53019 0.31274 0.0
N214 N 0.00927 0.5434 0.24553 0.0
N215 N 0.89845 0.37118 0.39281 0.0
C216 C -0.03625 0.49445 0.27838 0.0
C217 C 0.90684 0.40578 0.3543 0.0
N218 N 0.94478 0.36627 0.24478 0.0
N219 N 0.87456 0.51112 0.37999 0.0
H220 H 0.90272 0.31703 0.39737 0.0
H221 H 0.8977 0.4016 0.42047 0.0
H222 H 0.8704 0.56569 0.37689 0.0
H223 H 0.84237 0.47525 0.40588 0.0
H224 H 0.95294 0.39114 0.21489 0.0
H225 H 0.93295 0.30415 0.24519 0.0
H226 H 0.03387 0.52208 0.22201 0.0
H227 H 0.02988 0.60768 0.24355 0.0
C228 C 0.38169 0.93657 0.60771 0.0
C229 C 0.37201 -0.02777 0.64534 0.0
C230 C 0.44855 0.91461 0.68265 0.0
C231 C 0.47215 0.89452 0.64359 0.0
N232 N 0.47668 0.9078 0.56814 0.0
N233 N 0.40209 0.00146 0.71904 0.0
C234 C 0.44254 0.9108 0.60581 0.0
C235 C 0.40631 0.96241 0.68317 0.0
N236 N 0.33347 0.9287 0.57351 0.0
N237 N 0.46387 0.88611 0.71897 0.0
H238 H 0.37051 0.03564 0.72074 0.0
H239 H 0.43455 0.00433 0.7463 0.0
H240 H 0.49215 0.84878 0.71973 0.0
H241 H 0.441 0.89253 0.74785 0.0
H242 H 0.33373 0.897 0.5462 0.0
H243 H 0.28662 0.94553 0.57435 0.0
H244 H 0.46146 0.92624 0.54032 0.0
H245 H 0.52777 0.89761 0.56524 0.0
C246 C 0.43544 0.4187 0.6212 0.0
C247 C 0.36057 0.38961 0.64473 0.0
C248 C 0.4152 0.53336 0.67179 0.0
C249 C 0.49746 0.55493 0.65729 0.0
N250 N 0.58658 0.50981 0.62232 0.0
N251 N 0.27902 0.42021 0.69437 0.0
C252 C 0.50793 0.49556 0.63282 0.0
C253 C 0.34971 0.44724 0.67038 0.0
N254 N 0.43632 0.37366 0.5871 0.0
N255 N 0.39798 0.59473 0.68468 0.0
H256 H 0.22811 0.35848 0.69324 0.0
H257 H 0.27358 0.45835 0.71727 0.0
H258 H 0.44144 0.6592 0.68244 0.0
H259 H 0.33715 0.58187 0.69233 0.0
H260 H 0.48838 0.39486 0.56731 0.0
H261 H 0.38062 0.32223 0.57557 0.0
H262 H 0.59593 0.46418 0.60726 0.0
H263 H 0.64252 0.56249 0.63269 0.0
C264 C -0.01288 0.51965 0.97163 0.0
C265 C -0.01551 0.5626 0.00832 0.0
C266 C -0.01505 0.45428 0.05214 0.0
C267 C -0.00852 0.41314 0.01565 0.0
N268 N 0.00724 0.40919 0.94078 0.0
N269 N -0.0059 0.58076 0.08304 0.0
C270 C -0.00559 0.4462 0.97533 0.0
C271 C -0.01252 0.53279 0.0485 0.0
N272 N -0.01972 0.54803 0.93332 0.0
N273 N -0.02577 0.41673 0.09011 0.0
H274 H -0.00288 0.6392 0.081 0.0
H275 H 0.00398 0.56686 0.1132 0.0
H276 H -0.02918 0.35836 0.09352 0.0
H277 H -0.03847 0.43918 0.11766 0.0
H278 H -0.03002 0.51377 0.90557 0.0
H279 H -0.01834 0.60528 0.92941 0.0
H280 H 0.02121 0.43625 0.91132 0.0
H281 H 0.00816 0.35271 0.94177 0.0
C282 C 0.4752 0.94432 0.30805 0.0
C283 C 0.52087 0.95826 0.34599 0.0
C284 C 0.38917 0.89515 0.38524 0.0
C285 C 0.34213 0.8735 0.34735 0.0
N286 N 0.34091 0.86065 0.27202 0.0
N287 N 0.51871 0.92097 0.41819 0.0
C288 C 0.38517 0.89298 0.30841 0.0
C289 C 0.47673 0.92456 0.3837 0.0
N290 N 0.51667 -0.01712 0.27223 0.0
N291 N 0.35177 0.89304 0.42267 0.0
H292 H 0.58294 0.93963 0.41765 0.0
H293 H 0.4877 0.89072 0.44554 0.0
H294 H 0.28924 0.87949 0.4252 0.0
H295 H 0.38588 0.91523 0.45054 0.0
H296 H 0.4853 -0.01768 0.24497 0.0
H297 H 0.5823 0.02063 0.27055 0.0
H298 H 0.37013 0.86645 0.24325 0.0
H299 H 0.27536 0.82111 0.27109 0.0
loop_
_geom_bond_atom_site_label_1
_geom_bond_atom_site_label_2
_geom_bond_distance
_geom_bond_site_symmetry_2
_ccdc_geom_bond_type
C0 O1 1.306 1_554 S
C0 O3 1.160 . S
O1 C0 1.306 1_556 S
O1 Cd2 2.228 . S
Cd2 O1 2.228 . S
Cd2 O6 2.273 1_556 S
Cd2 O10 2.277 . S
O3 C0 1.160 . S
O3 Cd4 2.203 . S
Cd4 O3 2.203 . S
Cd4 O6 2.411 . S
Cd4 O7 2.333 1_455 S
Cd4 O8 2.352 . S
Cd4 O12 2.277 1_554 S
Cd4 O13 2.356 . S
C5 O10 1.209 . S
C5 O12 1.226 . S
O6 Cd2 2.273 1_554 S
O6 Cd4 2.411 . S
O6 C9 1.320 . S
O7 Cd4 2.333 1_655 S
O7 C9 1.214 1_655 S
O8 Cd4 2.352 . S
O8 C11 1.258 . S
C9 O6 1.320 . S
C9 O7 1.214 1_455 S
O10 Cd2 2.277 . S
O10 C5 1.209 . S
C11 O8 1.258 . S
C11 O13 1.282 . S
O12 Cd4 2.277 1_556 S
O12 C5 1.226 . S
O13 Cd4 2.356 . S
O13 C11 1.282 . S
C14 O15 1.306 . S
C14 O17 1.160 . S
O15 C14 1.306 . S
O15 Cd16 2.228 . S
Cd16 O15 2.228 . S
Cd16 O20 2.273 . S
Cd16 O24 2.277 . S
O17 C14 1.160 . S
O17 Cd18 2.203 . S
Cd18 O17 2.203 . S
Cd18 O20 2.411 . S
Cd18 O21 2.333 1_655 S
Cd18 O22 2.352 . S
Cd18 O26 2.277 . S
Cd18 O27 2.356 . S
C19 O24 1.209 . S
C19 O26 1.226 . S
O20 Cd16 2.273 . S
O20 Cd18 2.411 . S
O20 C23 1.320 . S
O21 Cd18 2.333 1_455 S
O21 C23 1.214 1_455 S
O22 Cd18 2.352 . S
O22 C25 1.258 . S
C23 O20 1.320 . S
C23 O21 1.214 1_655 S
O24 Cd16 2.277 . S
O24 C19 1.209 . S
C25 O22 1.258 . S
C25 O27 1.282 . S
O26 Cd18 2.277 . S
O26 C19 1.226 . S
O27 Cd18 2.356 . S
O27 C25 1.282 . S
C28 O29 1.306 . S
C28 O31 1.160 . S
O29 C28 1.306 . S
O29 Cd30 2.228 . S
Cd30 O29 2.228 . S
Cd30 O34 2.273 . S
Cd30 O38 2.277 . S
O31 C28 1.160 . S
O31 Cd32 2.203 . S
Cd32 O31 2.203 . S
Cd32 O34 2.411 . S
Cd32 O35 2.333 . S
Cd32 O36 2.352 . S
Cd32 O40 2.277 . S
Cd32 O41 2.356 . S
C33 O38 1.209 . S
C33 O40 1.226 . S
O34 Cd30 2.273 . S
O34 Cd32 2.411 . S
O34 C37 1.320 . S
O35 Cd32 2.333 . S
O35 C37 1.214 . S
O36 Cd32 2.352 . S
O36 C39 1.258 . S
C37 O34 1.320 . S
C37 O35 1.214 . S
O38 Cd30 2.277 . S
O38 C33 1.209 . S
C39 O36 1.258 . S
C39 O41 1.282 . S
O40 Cd32 2.277 . S
O40 C33 1.226 . S
O41 Cd32 2.356 . S
O41 C39 1.282 . S
C42 O43 1.306 1_554 S
C42 O45 1.160 . S
O43 C42 1.306 1_556 S
O43 Cd44 2.228 . S
Cd44 O43 2.228 . S
Cd44 O48 2.273 1_556 S
Cd44 O52 2.277 . S
O45 C42 1.160 . S
O45 Cd46 2.203 . S
Cd46 O45 2.203 . S
Cd46 O48 2.411 . S
Cd46 O49 2.333 1_655 S
Cd46 O50 2.352 . S
Cd46 O54 2.277 1_554 S
Cd46 O55 2.356 . S
C47 O52 1.209 . S
C47 O54 1.226 . S
O48 Cd44 2.273 1_554 S
O48 Cd46 2.411 . S
O48 C51 1.320 . S
O49 Cd46 2.333 1_455 S
O49 C51 1.214 1_455 S
O50 Cd46 2.352 . S
O50 C53 1.258 . S
C51 O48 1.320 . S
C51 O49 1.214 1_655 S
O52 Cd44 2.277 . S
O52 C47 1.209 . S
C53 O50 1.258 . S
C53 O55 1.282 . S
O54 Cd46 2.277 1_556 S
O54 C47 1.226 . S
O55 Cd46 2.356 . S
O55 C53 1.282 . S
C56 O57 1.306 . S
C56 O59 1.160 . S
O57 C56 1.306 . S
O57 Cd58 2.228 . S
Cd58 O57 2.228 . S
Cd58 O62 2.273 . S
Cd58 O66 2.277 . S
O59 C56 1.160 . S
O59 Cd60 2.203 . S
Cd60 O59 2.203 . S
Cd60 O62 2.411 . S
Cd60 O63 2.333 1_455 S
Cd60 O64 2.352 . S
Cd60 O68 2.277 . S
Cd60 O69 2.356 . S
C61 O66 1.209 . S
C61 O68 1.226 . S
O62 Cd58 2.273 . S
O62 Cd60 2.411 . S
O62 C65 1.320 . S
O63 Cd60 2.333 1_655 S
O63 C65 1.214 1_655 S
O64 Cd60 2.352 . S
O64 C67 1.258 . S
C65 O62 1.320 . S
C65 O63 1.214 1_455 S
O66 Cd58 2.277 . S
O66 C61 1.209 . S
C67 O64 1.258 . S
C67 O69 1.282 . S
O68 Cd60 2.277 . S
O68 C61 1.226 . S
O69 Cd60 2.356 . S
O69 C67 1.282 . S
C70 O71 1.306 . S
C70 O73 1.160 . S
O71 C70 1.306 . S
O71 Cd72 2.228 . S
Cd72 O71 2.228 . S
Cd72 O76 2.273 . S
Cd72 O80 2.277 . S
O73 C70 1.160 . S
O73 Cd74 2.203 . S
Cd74 O73 2.203 . S
Cd74 O76 2.411 . S
Cd74 O77 2.333 . S
Cd74 O78 2.352 . S
Cd74 O82 2.277 . S
Cd74 O83 2.356 . S
C75 O80 1.209 . S
C75 O82 1.226 . S
O76 Cd72 2.273 . S
O76 Cd74 2.411 . S
O76 C79 1.320 . S
O77 Cd74 2.333 . S
O77 C79 1.214 . S
O78 Cd74 2.352 . S
O78 C81 1.258 . S
C79 O76 1.320 . S
C79 O77 1.214 . S
O80 Cd72 2.277 . S
O80 C75 1.209 . S
C81 O78 1.258 . S
C81 O83 1.282 . S
O82 Cd74 2.277 . S
O82 C75 1.226 . S
O83 Cd74 2.356 . S
O83 C81 1.282 . S
C84 C85 1.363 . S
C84 C90 1.379 . S
C84 N92 1.356 . S
C85 C84 1.363 . S
C85 C91 1.363 . S
C86 C87 1.363 . S
C86 C91 1.379 . S
C86 N93 1.356 . S
C87 C86 1.363 . S
C87 C90 1.363 . S
N88 C90 1.356 . S
N88 H100 0.984 . S
N88 H101 0.985 . S
N89 C91 1.356 . S
N89 H94 0.984 . S
N89 H95 0.985 1_445 S
C90 C84 1.379 . S
C90 C87 1.363 . S
C90 N88 1.356 . S
C91 C85 1.363 . S
C91 C86 1.379 . S
C91 N89 1.356 . S
N92 C84 1.356 . S
N92 H98 0.984 . S
N92 H99 0.984 . S
N93 C86 1.356 . S
N93 H96 0.984 . S
N93 H97 0.985 1_455 S
H94 N89 0.984 . S
H95 N89 0.985 1_665 S
H96 N93 0.984 . S
H97 N93 0.985 1_655 S
H98 N92 0.984 . S
H99 N92 0.984 . S
H100 N88 0.984 . S
H101 N88 0.985 . S
C102 C103 1.363 . S
C102 C108 1.379 1_655 S
C102 N110 1.356 . S
C103 C102 1.363 . S
C103 C109 1.363 . S
C104 C105 1.363 1_655 S
C104 C109 1.379 . S
C104 N111 1.356 1_655 S
C105 C104 1.363 1_455 S
C105 C108 1.363 . S
N106 C108 1.356 . S
N106 H118 0.984 . S
N106 H119 0.985 . S
N107 C109 1.356 . S
N107 H112 0.984 . S
N107 H113 0.985 . S
C108 C102 1.379 1_455 S
C108 C105 1.363 . S
C108 N106 1.356 . S
C109 C103 1.363 . S
C109 C104 1.379 . S
C109 N107 1.356 . S
N110 C102 1.356 . S
N110 H116 0.984 1_645 S
N110 H117 0.984 . S
N111 C104 1.356 1_455 S
N111 H114 0.984 . S
N111 H115 0.985 1_455 S
H112 N107 0.984 . S
H113 N107 0.985 . S
H114 N111 0.984 . S
H115 N111 0.985 1_655 S
H116 N110 0.984 1_465 S
H117 N110 0.984 . S
H118 N106 0.984 . S
H119 N106 0.985 . S
C120 C121 1.363 1_565 S
C120 C126 1.379 . S
C120 N128 1.356 . S
C121 C120 1.363 1_545 S
C121 C127 1.363 . S
C122 C123 1.363 1_545 S
C122 C127 1.379 . S
C122 N129 1.356 . S
C123 C122 1.363 1_565 S
C123 C126 1.363 . S
N124 C126 1.356 . S
N124 H136 0.984 . S
N124 H137 0.985 . S
N125 C127 1.356 . S
N125 H130 0.984 . S
N125 H131 0.985 1_655 S
C126 C120 1.379 . S
C126 C123 1.363 . S
C126 N124 1.356 . S
C127 C121 1.363 . S
C127 C122 1.379 . S
C127 N125 1.356 . S
N128 C120 1.356 . S
N128 H134 0.984 . S
N128 H135 0.984 . S
N129 C122 1.356 . S
N129 H132 0.984 . S
N129 H133 0.985 . S
H130 N125 0.984 . S
H131 N125 0.985 1_455 S
H132 N129 0.984 . S
H133 N129 0.985 . S
H134 N128 0.984 . S
H135 N128 0.984 . S
H136 N124 0.984 . S
H137 N124 0.985 . S
C138 C139 1.363 . S
C138 C144 1.379 . S
C138 N146 1.356 . S
C139 C138 1.363 . S
C139 C145 1.363 . S
C140 C141 1.363 . S
C140 C145 1.379 . S
C140 N147 1.356 . S
C141 C140 1.363 . S
C141 C144 1.363 . S
N142 C144 1.356 . S
N142 H154 0.984 1_565 S
N142 H155 0.985 . S
N143 C145 1.356 . S
N143 H148 0.984 . S
N143 H149 0.985 . S
C144 C138 1.379 . S
C144 C141 1.363 . S
C144 N142 1.356 . S
C145 C139 1.363 . S
C145 C140 1.379 . S
C145 N143 1.356 . S
N146 C138 1.356 . S
N146 H152 0.984 . S
N146 H153 0.984 . S
N147 C140 1.356 . S
N147 H150 0.984 . S
N147 H151 0.985 . S
H148 N143 0.984 . S
H149 N143 0.985 . S
H150 N147 0.984 . S
H151 N147 0.985 . S
H152 N146 0.984 . S
H153 N146 0.984 . S
H154 N142 0.984 1_545 S
H155 N142 0.985 . S
C156 C157 1.363 . S
C156 C162 1.379 1_455 S
C156 N164 1.356 . S
C157 C156 1.363 . S
C157 C163 1.363 . S
C158 C159 1.363 . S
C158 C163 1.379 1_655 S
C158 N165 1.356 . S
C159 C158 1.363 . S
C159 C162 1.363 . S
N160 C162 1.356 . S
N160 H172 0.984 1_565 S
N160 H173 0.985 . S
N161 C163 1.356 . S
N161 H166 0.984 . S
N161 H167 0.985 . S
C162 C156 1.379 1_655 S
C162 C159 1.363 . S
C162 N160 1.356 . S
C163 C157 1.363 . S
C163 C158 1.379 1_455 S
C163 N161 1.356 . S
N164 C156 1.356 . S
N164 H170 0.984 1_565 S
N164 H171 0.984 . S
N165 C158 1.356 . S
N165 H168 0.984 . S
N165 H169 0.985 . S
H166 N161 0.984 . S
H167 N161 0.985 . S
H168 N165 0.984 . S
H169 N165 0.985 . S
H170 N164 0.984 1_545 S
H171 N164 0.984 . S
H172 N160 0.984 1_545 S
H173 N160 0.985 . S
C174 C175 1.363 1_565 S
C174 C180 1.379 . S
C174 N182 1.356 . S
C175 C174 1.363 1_545 S
C175 C181 1.363 . S
C176 C177 1.363 1_545 S
C176 C181 1.379 . S
C176 N183 1.356 . S
C177 C176 1.363 1_565 S
C177 C180 1.363 . S
N178 C180 1.356 . S
N178 H190 0.984 . S
N178 H191 0.985 . S
N179 C181 1.356 . S
N179 H184 0.984 . S
N179 H185 0.985 . S
C180 C174 1.379 . S
C180 C177 1.363 . S
C180 N178 1.356 . S
C181 C175 1.363 . S
C181 C176 1.379 . S
C181 N179 1.356 . S
N182 C174 1.356 . S
N182 H188 0.984 . S
N182 H189 0.984 . S
N183 C176 1.356 . S
N183 H186 0.984 . S
N183 H187 0.985 . S
H184 N179 0.984 . S
H185 N179 0.985 . S
H186 N183 0.984 . S
H187 N183 0.985 . S
H188 N182 0.984 . S
H189 N182 0.984 . S
H190 N178 0.984 . S
H191 N178 0.985 . S
C192 C193 1.363 . S
C192 C198 1.379 . S
C192 N200 1.356 . S
C193 C192 1.363 . S
C193 C199 1.363 1_554 S
C194 C195 1.363 1_556 S
C194 C199 1.379 . S
C194 N201 1.356 . S
C195 C194 1.363 1_554 S
C195 C198 1.363 . S
N196 C198 1.356 . S
N196 H208 0.984 . S
N196 H209 0.985 . S
N197 C199 1.356 . S
N197 H202 0.984 . S
N197 H203 0.985 . S
C198 C192 1.379 . S
C198 C195 1.363 . S
C198 N196 1.356 . S
C199 C193 1.363 1_556 S
C199 C194 1.379 . S
C199 N197 1.356 . S
N200 C192 1.356 . S
N200 H206 0.984 . S
N200 H207 0.984 . S
N201 C194 1.356 . S
N201 H204 0.984 . S
N201 H205 0.985 . S
H202 N197 0.984 . S
H203 N197 0.985 . S
H204 N201 0.984 . S
H205 N201 0.985 . S
H206 N200 0.984 . S
H207 N200 0.984 . S
H208 N196 0.984 . S
H209 N196 0.985 . S
C210 C211 1.363 1_455 S
C210 C216 1.379 . S
C210 N218 1.356 . S
C211 C210 1.363 1_655 S
C211 C217 1.363 . S
C212 C213 1.363 1_655 S
C212 C217 1.379 . S
C212 N219 1.356 . S
C213 C212 1.363 1_455 S
C213 C216 1.363 . S
N214 C216 1.356 . S
N214 H226 0.984 . S
N214 H227 0.985 . S
N215 C217 1.356 . S
N215 H220 0.984 . S
N215 H221 0.985 . S
C216 C210 1.379 . S
C216 C213 1.363 . S
C216 N214 1.356 . S
C217 C211 1.363 . S
C217 C212 1.379 . S
C217 N215 1.356 . S
N218 C210 1.356 . S
N218 H224 0.984 . S
N218 H225 0.984 . S
N219 C212 1.356 . S
N219 H222 0.984 . S
N219 H223 0.985 . S
H220 N215 0.984 . S
H221 N215 0.985 . S
H222 N219 0.984 . S
H223 N219 0.985 . S
H224 N218 0.984 . S
H225 N218 0.984 . S
H226 N214 0.984 . S
H227 N214 0.985 . S
C228 C229 1.363 1_565 S
C228 C234 1.379 . S
C228 N236 1.356 . S
C229 C228 1.363 1_545 S
C229 C235 1.363 . S
C230 C231 1.363 1_545 S
C230 C235 1.379 . S
C230 N237 1.356 . S
C231 C230 1.363 1_565 S
C231 C234 1.363 . S
N232 C234 1.356 . S
N232 H244 0.984 . S
N232 H245 0.985 . S
N233 C235 1.356 . S
N233 H238 0.984 . S
N233 H239 0.985 . S
C234 C228 1.379 . S
C234 C231 1.363 . S
C234 N232 1.356 . S
C235 C229 1.363 . S
C235 C230 1.379 . S
C235 N233 1.356 . S
N236 C228 1.356 . S
N236 H242 0.984 . S
N236 H243 0.984 . S
N237 C230 1.356 . S
N237 H240 0.984 . S
N237 H241 0.985 . S
H238 N233 0.984 . S
H239 N233 0.985 . S
H240 N237 0.984 . S
H241 N237 0.985 . S
H242 N236 0.984 . S
H243 N236 0.984 . S
H244 N232 0.984 . S
H245 N232 0.985 . S
C246 C247 1.363 . S
C246 C252 1.379 . S
C246 N254 1.356 . S
C247 C246 1.363 . S
C247 C253 1.363 . S
C248 C249 1.363 . S
C248 C253 1.379 . S
C248 N255 1.356 . S
C249 C248 1.363 . S
C249 C252 1.363 . S
N250 C252 1.356 . S
N250 H262 0.984 . S
N250 H263 0.985 . S
N251 C253 1.356 . S
N251 H256 0.984 . S
N251 H257 0.985 . S
C252 C246 1.379 . S
C252 C249 1.363 . S
C252 N250 1.356 . S
C253 C247 1.363 . S
C253 C248 1.379 . S
C253 N251 1.356 . S
N254 C246 1.356 . S
N254 H260 0.984 . S
N254 H261 0.984 . S
N255 C248 1.356 . S
N255 H258 0.984 . S
N255 H259 0.985 . S
H256 N251 0.984 . S
H257 N251 0.985 . S
H258 N255 0.984 . S
H259 N255 0.985 . S
H260 N254 0.984 . S
H261 N254 0.984 . S
H262 N250 0.984 . S
H263 N250 0.985 . S
C264 C265 1.363 . S
C264 C270 1.379 . S
C264 N272 1.356 . S
C265 C264 1.363 . S
C265 C271 1.363 1_656 S
C266 C267 1.363 1_554 S
C266 C271 1.379 . S
C266 N273 1.356 . S
C267 C266 1.363 1_556 S
C267 C270 1.363 1_455 S
N268 C270 1.356 . S
N268 H280 0.984 . S
N268 H281 0.985 . S
N269 C271 1.356 . S
N269 H274 0.984 . S
N269 H275 0.985 . S
C270 C264 1.379 . S
C270 C267 1.363 1_655 S
C270 N268 1.356 . S
C271 C265 1.363 1_454 S
C271 C266 1.379 . S
C271 N269 1.356 . S
N272 C264 1.356 . S
N272 H278 0.984 . S
N272 H279 0.984 . S
N273 C266 1.356 . S
N273 H276 0.984 . S
N273 H277 0.985 . S
H274 N269 0.984 . S
H275 N269 0.985 . S
H276 N273 0.984 . S
H277 N273 0.985 . S
H278 N272 0.984 . S
H279 N272 0.984 . S
H280 N268 0.984 . S
H281 N268 0.985 . S
C282 C283 1.363 . S
C282 C288 1.379 . S
C282 N290 1.356 . S
C283 C282 1.363 . S
C283 C289 1.363 1_545 S
C284 C285 1.363 . S
C284 C289 1.379 . S
C284 N291 1.356 . S
C285 C284 1.363 . S
C285 C288 1.363 1_565 S
N286 C288 1.356 . S
N286 H298 0.984 . S
N286 H299 0.985 . S
N287 C289 1.356 . S
N287 H292 0.984 . S
N287 H293 0.985 . S
C288 C282 1.379 . S
C288 C285 1.363 1_545 S
C288 N286 1.356 . S
C289 C283 1.363 1_565 S
C289 C284 1.379 . S
C289 N287 1.356 . S
N290 C282 1.356 . S
N290 H296 0.984 . S
N290 H297 0.984 . S
N291 C284 1.356 . S
N291 H294 0.984 . S
N291 H295 0.985 . S
H292 N287 0.984 . S
H293 N287 0.985 . S
H294 N291 0.984 . S
H295 N291 0.985 . S
H296 N290 0.984 . S
H297 N290 0.984 . S
H298 N286 0.984 . S
H299 N286 0.985 . S
C85 C81 1.361 . S
C87 C5 1.358 . S
C103 C25 1.379 . S
C105 C11 1.378 . S
C121 C19 1.344 . S
C123 C33 1.345 . S
C139 C47 1.358 . S
C141 C39 1.361 . S
C157 C67 1.379 . S
C159 C53 1.378 . S
C175 C75 1.345 . S
C177 C61 1.344 . S
C193 C0 1.478 . S
C195 C42 1.478 . S
C211 C23 1.520 . S
C213 C65 1.520 . S
C229 C70 1.458 . S
C231 C28 1.458 . S
C247 C79 1.497 . S
C249 C37 1.497 . S
C265 C51 1.514 1_556 S
C267 C9 1.514 1_556 S
C283 C14 1.453 . S
C285 C56 1.453 . S
