# Generated by pormake.
# Topology sml, (6)-cn, num edge types: 1
# Building blocks:
#     Node 0, Type 0, BuildingBlock: CIFDUS_clean_sbu_1, # of connection points: 6
#     Node 1, Type 0, BuildingBlock: CIFDUS_clean_sbu_1, # of connection points: 6
#     Node 2, Type 0, BuildingBlock: CIFDUS_clean_sbu_1, # of connection points: 6
#     Node 3, Type 0, BuildingBlock: CIFDUS_clean_sbu_1, # of connection points: 6
#     Node 4, Type 0, BuildingBlock: CIFDUS_clean_sbu_1, # of connection points: 6
#     Node 5, Type 0, BuildingBlock: CIFDUS_clean_sbu_1, # of connection points: 6
#     Edge 6, Type (0, 0), BuildingBlock: TEMPAE_clean_linker_10, # of connection points: 2
#     Edge 7, Type (0, 0), BuildingBlock: TEMPAE_clean_linker_10, # of connection points: 2
#     Edge 8, Type (0, 0), BuildingBlock: TEMPAE_clean_linker_10, # of connection points: 2
#     Edge 9, Type (0, 0), BuildingBlock: TEMPAE_clean_linker_10, # of connection points: 2
#     Edge 10, Type (0, 0), BuildingBlock: TEMPAE_clean_linker_10, # of connection points: 2
#     Edge 11, Type (0, 0), BuildingBlock: TEMPAE_clean_linker_10, # of connection points: 2
#     Edge 12, Type (0, 0), BuildingBlock: TEMPAE_clean_linker_10, # of connection points: 2
#     Edge 13, Type (0, 0), BuildingBlock: TEMPAE_clean_linker_10, # of connection points: 2
#     Edge 14, Type (0, 0), BuildingBlock: TEMPAE_clean_linker_10, # of connection points: 2
#     Edge 15, Type (0, 0), BuildingBlock: TEMPAE_clean_linker_10, # of connection points: 2
#     Edge 16, Type (0, 0), BuildingBlock: TEMPAE_clean_linker_10, # of connection points: 2
#     Edge 17, Type (0, 0), BuildingBlock: TEMPAE_clean_linker_10, # of connection points: 2
#     Edge 18, Type (0, 0), BuildingBlock: TEMPAE_clean_linker_10, # of connection points: 2
#     Edge 19, Type (0, 0), BuildingBlock: TEMPAE_clean_linker_10, # of connection points: 2
#     Edge 20, Type (0, 0), BuildingBlock: TEMPAE_clean_linker_10, # of connection points: 2
#     Edge 21, Type (0, 0), BuildingBlock: TEMPAE_clean_linker_10, # of connection points: 2
#     Edge 22, Type (0, 0), BuildingBlock: TEMPAE_clean_linker_10, # of connection points: 2
#     Edge 23, Type (0, 0), BuildingBlock: TEMPAE_clean_linker_10, # of connection points: 2
# Relax obj value: 0.146
# Max RMSD: 0.167
# Mean RMSD: 0.167
data_MOF--net-sml--node1-CIFDUS_clean_sbu_1--edge1-TEMPAE_clean_linker_10
_symmetry_space_group_name_H-M    P1
_symmetry_Int_Tables_number       1
_symmetry_cell_setting            triclinic
loop_
_symmetry_equiv_pos_as_xyz
'x, y, z'
_cell_length_a     40.100882
_cell_length_b     40.038123
_cell_length_c     15.810103
_cell_angle_alpha  90.014229
_cell_angle_beta   90.057439
_cell_angle_gamma 119.86675
loop_
_atom_site_label
_atom_site_type_symbol
_atom_site_fract_x
_atom_site_fract_y
_atom_site_fract_z
_atom_type_partial_charge
O0 O 0.21307 0.468 0.02438 0.0
Mn1 Mn 0.23492 0.43033 0.00744 0.0
O2 O 0.26098 0.51502 0.10026 0.0
Mn3 Mn 0.29576 0.49766 0.09237 0.0
O4 O 0.25977 0.39502 -0.00915 0.0
O5 O 0.18022 0.38424 0.02001 0.0
Mn6 Mn 0.17679 0.35168 0.93964 0.0
O7 O 0.2299 0.4322 0.87579 0.0
O8 O 0.21242 0.33591 0.95836 0.0
O9 O 0.23703 0.42576 0.14045 0.0
O10 O 0.29604 0.46773 0.17862 0.0
O11 O 0.13041 0.32706 -0.00796 0.0
O12 O 0.18102 0.37462 0.83591 0.0
C13 C 0.32472 0.5067 0.9804 0.0
C14 C 0.22811 0.50035 0.06452 0.0
C15 C 0.2477 0.35941 0.97354 0.0
C16 C 0.14487 0.35793 0.03802 0.0
C17 C 0.20712 0.40884 0.81933 0.0
C18 C 0.26343 0.44009 0.19683 0.0
O19 O 0.28989 0.47708 -0.00923 0.0
O20 O 0.34112 0.52888 0.04504 0.0
O21 O 0.74922 0.21414 0.35254 0.0
Mn22 Mn 0.80752 0.23267 0.33104 0.0
O23 O 0.75334 0.26356 0.42993 0.0
Mn24 Mn 0.80562 0.29789 0.4187 0.0
O25 O 0.867 0.25477 0.31055 0.0
O26 O 0.79673 0.17705 0.34576 0.0
Mn27 Mn 0.82205 0.17107 0.26075 0.0
O28 O 0.79869 0.22727 0.19839 0.0
O29 O 0.87421 0.20554 0.2672 0.0
O30 O 0.81553 0.23583 0.46312 0.0
O31 O 0.83607 0.29581 0.50307 0.0
O32 O 0.80122 0.12548 0.31605 0.0
O33 O 0.80028 0.17412 0.16119 0.0
C34 C 0.82526 0.32269 0.29949 0.0
C35 C 0.73385 0.23012 0.3966 0.0
C36 C 0.88814 0.24103 0.28452 0.0
C37 C 0.78719 0.1415 0.36468 0.0
C38 C 0.79599 0.20259 0.14237 0.0
C39 C 0.82976 0.26234 0.51948 0.0
O40 O 0.81809 0.28798 0.31827 0.0
O41 O 0.82136 0.34213 0.36041 0.0
O42 O 0.54504 0.74524 0.68022 0.0
Mn43 Mn 0.57964 0.80578 0.66834 0.0
O44 O 0.48492 0.73335 0.7034 0.0
Mn45 Mn 0.50019 0.78349 0.73101 0.0
O46 O 0.61399 0.86623 0.65393 0.0
O47 O 0.6269 0.79863 0.68459 0.0
Mn48 Mn 0.65614 0.82423 0.59662 0.0
O49 O 0.57866 0.80002 0.53635 0.0
O50 O 0.66985 0.87569 0.6004 0.0
O51 O 0.57995 0.81147 0.80093 0.0
O52 O 0.52073 0.79855 0.83727 0.0
O53 O 0.68452 0.80759 0.65195 0.0
O54 O 0.63211 0.79998 0.49756 0.0
C55 C 0.50546 0.8208 0.63369 0.0
C56 C 0.50868 0.72191 0.68843 0.0
C57 C 0.6478 0.88837 0.62339 0.0
C58 C 0.65508 0.79192 0.70209 0.0
C59 C 0.59948 0.79601 0.48023 0.0
C60 C 0.55484 0.80731 0.8568 0.0
O61 O 0.53286 0.81331 0.65276 0.0
O62 O 0.47534 0.80552 0.6819 0.0
O63 O 0.81158 0.54718 0.0028 0.0
Mn64 Mn 0.78672 0.58223 -0.0085 0.0
O65 O 0.77269 0.50881 0.10265 0.0
Mn66 Mn 0.73533 0.52182 0.08049 0.0
O67 O 0.7588 0.61525 0.97788 0.0
O68 O 0.84234 0.62962 0.0044 0.0
Mn69 Mn 0.83905 0.6582 0.92129 0.0
O70 O 0.7898 0.57916 0.85948 0.0
O71 O 0.80323 0.67359 0.93535 0.0
O72 O 0.78715 0.58852 0.12513 0.0
O73 O 0.72775 0.55056 0.15841 0.0
O74 O 0.88564 0.68902 0.96246 0.0
O75 O 0.83697 0.6367 0.81791 0.0
C76 C 0.69819 0.50028 0.98414 0.0
C77 C 0.80228 0.52025 0.057 0.0
C78 C 0.76886 0.6498 0.95505 0.0
C79 C 0.8773 0.6599 0.01148 0.0
C80 C 0.81183 0.60221 0.80214 0.0
C81 C 0.76009 0.57727 0.17932 0.0
O82 O 0.73071 0.53348 0.97317 0.0
O83 O 0.69205 0.48141 0.05442 0.0
O84 O 0.27134 0.80786 0.35875 0.0
Mn85 Mn 0.21032 0.77744 0.33955 0.0
O86 O 0.28776 0.76471 0.33215 0.0
Mn87 Mn 0.24361 0.73439 0.39048 0.0
O88 O 0.14991 0.74927 0.32032 0.0
O89 O 0.21502 0.83017 0.3532 0.0
Mn90 Mn 0.18425 0.83303 0.27697 0.0
O91 O 0.21821 0.7846 0.2079 0.0
O92 O 0.13429 0.79519 0.30019 0.0
O93 O 0.20215 0.77117 0.47029 0.0
O94 O 0.24172 0.74913 0.50096 0.0
O95 O 0.20609 0.87921 0.3331 0.0
O96 O 0.20227 0.82921 0.17146 0.0
C97 C 0.20208 0.6884 0.32884 0.0
C98 C 0.2976 0.79943 0.34205 0.0
C99 C 0.12474 0.75998 0.30943 0.0
C100 C 0.22374 0.86493 0.37526 0.0
C101 C 0.21411 0.8059 0.15241 0.0
C102 C 0.22075 0.76287 0.52414 0.0
O103 O 0.20237 0.72161 0.32541 0.0
O104 O 0.22647 0.68505 0.37708 0.0
O105 O 0.47473 0.262 0.67049 0.0
Mn106 Mn 0.43318 0.20328 0.6559 0.0
O107 O 0.52269 0.25895 0.73792 0.0
Mn108 Mn 0.50073 0.20614 0.74096 0.0
O109 O 0.39493 0.14336 0.64116 0.0
O110 O 0.39015 0.21826 0.66875 0.0
Mn111 Mn 0.36013 0.18862 0.58442 0.0
O112 O 0.43759 0.21047 0.52396 0.0
O113 O 0.33931 0.1364 0.59728 0.0
O114 O 0.42835 0.19738 0.7881 0.0
O115 O 0.47101 0.18162 0.83289 0.0
O116 O 0.33288 0.20884 0.62457 0.0
O117 O 0.383 0.2073 0.48201 0.0
C118 C 0.50192 0.17914 0.63034 0.0
C119 C 0.50869 0.2781 0.70354 0.0
C120 C 0.36 0.12195 0.61688 0.0
C121 C 0.36224 0.22672 0.67468 0.0
C122 C 0.41636 0.21298 0.46637 0.0
C123 C 0.44263 0.18624 0.84663 0.0
O124 O 0.47576 0.18901 0.64435 0.0
O125 O 0.52611 0.18518 0.69094 0.0
C126 C 0.34312 0.27567 0.69759 0.0
C127 C 0.3623 0.25705 0.72962 0.0
C128 C 0.3316 0.2963 0.7497 0.0
C129 C 0.34071 0.30016 0.8369 0.0
C130 C 0.36358 0.28481 0.86868 0.0
C131 C 0.37374 0.26287 0.81481 0.0
C132 C 0.30682 0.31119 0.71194 0.0
C133 C 0.37547 0.28967 0.96035 0.0
C134 C 0.31358 0.37062 0.93396 0.0
C135 C 0.27552 0.34542 0.95924 0.0
C136 C 0.33695 0.35635 0.90171 0.0
C137 C 0.3219 0.31602 0.89393 0.0
C138 C 0.28473 0.29073 0.9264 0.0
C139 C 0.26215 0.30567 0.95845 0.0
C140 C 0.37672 0.38449 0.87022 0.0
C141 C 0.26723 0.2476 0.9202 0.0
H142 H 0.33468 0.27191 0.63152 0.0
H143 H 0.38855 0.24867 0.84041 0.0
H144 H 0.27781 0.29606 0.74114 0.0
H145 H 0.31939 0.34235 0.72519 0.0
H146 H 0.30339 0.30684 0.64237 0.0
H147 H 0.40118 0.28642 0.96967 0.0
H148 H 0.38182 0.31827 0.98462 0.0
H149 H 0.35168 0.26731 -0.00129 0.0
H150 H 0.32433 0.4014 0.93412 0.0
H151 H 0.23298 0.28591 0.97869 0.0
H152 H 0.37614 0.3867 0.80036 0.0
H153 H 0.39724 0.37445 0.8862 0.0
H154 H 0.3874 0.41369 0.8973 0.0
H155 H 0.26105 0.23869 0.85289 0.0
H156 H 0.24001 0.23199 0.95658 0.0
H157 H 0.28762 0.23867 0.94395 0.0
C158 C 0.09904 0.37814 0.08937 0.0
C159 C 0.12054 0.35997 0.10574 0.0
C160 C 0.06356 0.36614 0.13036 0.0
C161 C 0.0491 0.33493 0.18834 0.0
C162 C 0.07276 0.31934 0.21116 0.0
C163 C 0.10803 0.33197 0.16949 0.0
C164 C 0.03982 0.38407 0.10437 0.0
C165 C 0.05891 0.28614 0.27237 0.0
C166 C 0.95428 0.29899 0.31016 0.0
C167 C 0.92901 0.26724 0.26079 0.0
C168 C 0.99342 0.32193 0.28712 0.0
C169 C 1.0072 0.31358 0.2118 0.0
C170 C 0.98109 0.28257 0.16013 0.0
C171 C 0.94272 0.25971 0.1857 0.0
C172 C 0.02026 0.35434 0.34447 0.0
C173 C 0.99378 0.27284 0.07827 0.0
H174 H 0.10794 0.39899 0.03847 0.0
H175 H 0.12404 0.31713 0.18085 0.0
H176 H 0.01822 0.36536 0.0567 0.0
H177 H 0.02407 0.38679 0.15915 0.0
H178 H 0.05795 0.41299 0.07585 0.0
H179 H 0.08276 0.28174 0.29442 0.0
H180 H 0.04506 0.29092 0.32818 0.0
H181 H 0.03706 0.25933 0.24075 0.0
H182 H 0.94378 0.30508 0.36797 0.0
H183 H 0.92314 0.23573 0.14616 0.0
H184 H 0.03628 0.38143 0.30789 0.0
H185 H 0.04179 0.34769 0.3718 0.0
H186 H 1.00474 0.35909 0.39708 0.0
H187 H 1.00781 0.29862 0.03699 0.0
H188 H 0.96942 0.24936 0.04292 0.0
H189 H 0.01525 0.26374 0.09165 0.0
C190 C 0.78003 0.1034 0.49246 0.0
C191 C 0.76364 0.11883 0.43767 0.0
C192 C 0.75721 0.06905 0.53722 0.0
C193 C 0.71671 0.04937 0.52728 0.0
C194 C 0.69979 0.06718 0.47957 0.0
C195 C 0.72348 0.1016 0.43471 0.0
C196 C 0.77688 0.05151 0.58674 0.0
C197 C 0.65682 0.04791 0.46856 0.0
C198 C 0.6747 0.94084 0.51758 0.0
C199 C 0.66039 0.92888 0.59957 0.0
C200 C 0.691 0.97943 0.49251 0.0
C201 C 0.69378 0.00748 0.5512 0.0
C202 C 0.67789 0.99537 0.6334 0.0
C203 C 0.66106 0.95605 0.65654 0.0
C204 C 0.7067 0.99031 0.40375 0.0
C205 C 0.6801 0.0241 0.69794 0.0
H206 H 0.81107 0.11615 0.49368 0.0
H207 H 0.71056 0.11279 0.39106 0.0
H208 H 0.76208 0.03979 0.64783 0.0
H209 H 0.7756 0.02724 0.55012 0.0
H210 H 0.80755 0.07274 0.59953 0.0
H211 H 0.6478 0.06878 0.44809 0.0
H212 H 0.64755 0.02514 0.41956 0.0
H213 H 0.64177 0.034 0.52823 0.0
H214 H 0.67373 0.9198 0.47289 0.0
H215 H 0.65005 0.94694 0.71998 0.0
H216 H 0.73832 0.00974 0.40613 0.0
H217 H 0.6941 1.00612 0.37178 0.0
H218 H 0.70053 0.96479 0.36466 0.0
H219 H 0.71017 0.04165 0.7205 0.0
H220 H 0.66139 0.00978 0.75343 0.0
H221 H 0.67167 0.0441 0.66923 0.0
C222 C 0.69094 0.7843 0.81998 0.0
C223 C 0.65657 0.76861 0.77353 0.0
C224 C 0.70224 0.7608 0.86287 0.0
C225 C 0.6785 0.72023 0.8601 0.0
C226 C 0.64178 0.70438 0.82089 0.0
C227 C 0.63131 0.72875 0.77742 0.0
C228 C 0.74165 0.77941 0.90302 0.0
C229 C 0.61501 0.66147 0.81795 0.0
C230 C 0.73862 0.67107 0.84752 0.0
C231 C 0.73976 0.66084 0.93184 0.0
C232 C 0.71666 0.68787 0.82275 0.0
C233 C 0.6954 0.69533 0.88407 0.0
C234 C 0.69488 0.68323 0.96891 0.0
C235 C 0.71707 0.66603 -0.00812 0.0
C236 C 0.71823 0.6998 0.73151 0.0
C237 C 0.6726 0.69031 0.03635 0.0
H238 H 0.71084 0.81504 0.81624 0.0
H239 H 0.60505 0.71624 0.7404 0.0
H240 H 0.74035 0.76694 0.96635 0.0
H241 H 0.76113 0.77379 0.8632 0.0
H242 H 0.75438 0.81107 0.90971 0.0
H243 H 0.58489 0.6543 0.80541 0.0
H244 H 0.62411 0.64894 0.76643 0.0
H245 H 0.61598 0.64774 0.87817 0.0
H246 H 0.75624 0.66717 0.80099 0.0
H247 H 0.71817 0.65848 0.05725 0.0
H248 H 0.73325 0.73169 0.72725 0.0
H249 H 0.68876 0.68862 0.7062 0.0
H250 H 0.73357 0.68924 0.69062 0.0
H251 H 0.68798 0.72129 0.05358 0.0
H252 H 0.66924 0.67327 0.09438 0.0
H253 H 0.6437 0.68306 0.01266 0.0
C254 C 0.07265 0.69924 0.24222 0.0
C255 C 0.08342 0.73121 0.29504 0.0
C256 C 0.0351 0.67859 0.20811 0.0
C257 C 1.00758 0.68991 0.22784 0.0
C258 C 0.01741 0.71959 0.28822 0.0
C259 C 0.05515 0.74003 0.32019 0.0
C260 C 0.0262 0.64728 0.14421 0.0
C261 C 0.98941 0.73277 0.31231 0.0
C262 C 0.9466 0.69266 0.04754 0.0
C263 C 0.90916 0.66296 0.06661 0.0
C264 C 0.97826 0.70077 0.09836 0.0
C265 C 0.97332 0.67832 0.17117 0.0
C266 C 0.93594 0.64713 0.19005 0.0
C267 C 0.90413 0.63972 0.13748 0.0
C268 C 0.01702 0.73453 0.07482 0.0
C269 C 0.9296 0.62213 0.26636 0.0
H270 H 0.09436 0.69242 0.22165 0.0
H271 H 0.06321 0.76465 0.36111 0.0
H272 H 0.99658 0.62283 0.15301 0.0
H273 H 0.02797 0.65883 0.07956 0.0
H274 H 0.04683 0.63645 0.14852 0.0
H275 H 0.99846 0.7505 0.37085 0.0
H276 H 0.98768 0.75045 0.26027 0.0
H277 H 0.96018 0.7078 0.32199 0.0
H278 H 0.95147 0.71058 -0.00762 0.0
H279 H 0.87554 0.61659 0.15288 0.0
H280 H 0.03849 0.72497 0.06764 0.0
H281 H 0.02729 0.75648 0.12584 0.0
H282 H 0.0161 0.74854 0.0149 0.0
H283 H 0.94843 0.60919 0.26264 0.0
H284 H 0.89923 0.59867 0.27195 0.0
H285 H 0.93768 0.63989 0.32468 0.0
C286 C 0.35788 0.05785 0.63749 0.0
C287 C 0.34431 0.0802 0.59803 0.0
C288 C 0.34276 0.01857 0.61583 0.0
C289 C 0.31439 1.00168 0.55143 0.0
C290 C 0.30132 0.02455 0.51066 0.0
C291 C 0.31601 0.06303 0.53499 0.0
C292 C 0.35693 0.99509 0.66201 0.0
C293 C 0.27181 0.00849 0.44043 0.0
C294 C 0.28991 0.9151 0.4126 0.0
C295 C 0.25242 0.88932 0.43949 0.0
C296 C 0.31266 0.95042 0.45472 0.0
C297 C 0.29748 0.96023 0.52545 0.0
C298 C 0.26141 0.93217 0.55858 0.0
C299 C 0.23918 0.89726 0.51471 0.0
C300 C 0.35086 0.97904 0.41679 0.0
C301 C 0.24415 0.94081 0.6344 0.0
H302 H 0.37989 0.07088 0.68582 0.0
H303 H 0.30579 0.08009 0.50258 0.0
H304 H 0.33241 0.97006 0.69303 0.0
H305 H 0.36966 0.98351 0.61646 0.0
H306 H 0.37878 0.01221 0.71084 0.0
H307 H 0.26556 0.03041 0.41343 0.0
H308 H 0.28213 0.9972 0.38871 0.0
H309 H 0.24455 0.98415 0.46458 0.0
H310 H 0.29991 0.90958 0.35332 0.0
H311 H 0.20987 0.87788 0.53474 0.0
H312 H 0.37232 0.99532 0.46679 0.0
H313 H 0.34717 1.00009 0.37804 0.0
H314 H 0.36232 0.96468 0.37536 0.0
H315 H 0.26635 0.95688 0.68323 0.0
H316 H 0.22072 0.91405 0.66307 0.0
H317 H 0.23196 0.95913 0.61452 0.0
C318 C 0.19016 0.42197 0.67633 0.0
C319 C 0.21595 0.41821 0.72967 0.0
C320 C 0.19571 0.42473 0.58825 0.0
C321 C 0.22668 0.42177 0.55328 0.0
C322 C 0.25247 0.41754 0.60747 0.0
C323 C 0.24711 0.41642 0.69518 0.0
C324 C 0.16859 0.43086 0.53272 0.0
C325 C 0.28537 0.41352 0.57272 0.0
C326 C 0.22602 0.39791 0.31935 0.0
C327 C 0.25333 0.43387 0.28747 0.0
C328 C 0.21665 0.39336 0.40605 0.0
C329 C 0.23401 0.42583 0.46065 0.0
C330 C 0.26032 0.4624 0.42759 0.0
C331 C 0.27007 0.46583 0.34198 0.0
C332 C 0.189 0.35378 0.4396 0.0
C333 C 0.27834 0.498 0.48275 0.0
H334 H 0.16561 0.42248 0.70354 0.0
H335 H 0.26631 0.41236 0.73688 0.0
H336 H 0.18507 0.45688 0.49299 0.0
H337 H 0.15312 0.40605 0.48924 0.0
H338 H 0.14708 0.43435 0.57011 0.0
H339 H 0.3011 0.40764 0.62307 0.0
H340 H 0.27441 0.38976 0.52576 0.0
H341 H 0.30599 0.44033 0.53946 0.0
H342 H 0.21267 0.37337 0.27701 0.0
H343 H 0.29036 0.49403 0.31719 0.0
H344 H 0.16459 0.35399 0.47193 0.0
H345 H 0.20378 0.34534 0.48725 0.0
H346 H 0.17745 0.33168 0.38875 0.0
H347 H 0.2557 0.50057 0.51759 0.0
H348 H 0.29559 0.52476 0.44564 0.0
H349 H 0.29739 0.49573 0.53052 0.0
C350 C 0.79789 0.18534 -0.00852 0.0
C351 C 0.79384 0.20947 0.05044 0.0
C352 C 0.803 0.19417 0.9052 0.0
C353 C 0.80269 0.22727 0.8756 0.0
C354 C 0.79638 0.25067 0.93354 0.0
C355 C 0.79256 0.2418 0.02061 0.0
C356 C 0.81052 0.16889 0.84624 0.0
C357 C 0.79449 0.28548 0.9038 0.0
C358 C 0.85453 0.26957 0.6675 0.0
C359 C 0.82449 0.25115 0.60924 0.0
C360 C 0.84784 0.26218 0.75468 0.0
C361 C 0.8099 0.23736 0.78409 0.0
C362 C 0.77938 0.21954 0.72512 0.0
C363 C 0.78719 0.22608 0.63836 0.0
C364 C 0.88138 0.28045 0.81523 0.0
C365 C 0.7384 0.19387 0.75365 0.0
H366 H 0.79891 0.16017 0.01298 0.0
H367 H 0.78946 0.26063 0.06527 0.0
H368 H 0.78842 0.15704 0.79569 0.0
H369 H 0.83883 0.18627 0.81495 0.0
H370 H 0.81048 0.14446 0.87964 0.0
H371 H 0.7859 0.29857 0.95525 0.0
H372 H 0.823 0.30754 0.87956 0.0
H373 H 0.77368 0.27742 0.85085 0.0
H374 H 0.88319 0.28958 0.64477 0.0
H375 H 0.76373 0.21285 0.59319 0.0
H376 H 0.88344 0.2577 0.85104 0.0
H377 H 0.87687 0.29846 0.862 0.0
H378 H 0.9091 0.29869 0.78226 0.0
H379 H 0.7353 0.16717 0.78218 0.0
H380 H 0.71757 0.18569 0.70061 0.0
H381 H 0.73078 0.20862 0.80304 0.0
C382 C 0.59342 0.77011 0.33422 0.0
C383 C 0.58978 0.79515 0.39035 0.0
C384 C 0.58899 0.77265 0.24673 0.0
C385 C 0.5827 0.80214 0.21486 0.0
C386 C 0.57964 0.82785 0.27162 0.0
C387 C 0.58244 0.82353 0.35889 0.0
C388 C 0.59066 0.74363 0.1885 0.0
C389 C 0.57401 0.86031 0.24013 0.0
C390 C 0.60091 0.82623 0.9799 0.0
C391 C 0.56326 0.80791 0.94829 0.0
C392 C 0.60784 0.82516 0.067 0.0
C393 C 0.57645 0.80437 0.12277 0.0
C394 C 0.53853 0.78544 0.09079 0.0
C395 C 0.53241 0.78783 0.0045 0.0
C396 C 0.64862 0.84641 0.09949 0.0
C397 C 0.50434 0.76205 0.14756 0.0
H398 H 0.59964 0.74853 0.35893 0.0
H399 H 0.58072 0.84355 0.40248 0.0
H400 H 0.56367 0.72846 0.1512 0.0
H401 H 0.6146 0.75848 0.14285 0.0
H402 H 0.59474 0.72188 0.22356 0.0
H403 H 0.57534 0.87962 0.2921 0.0
H404 H 0.5964 0.87766 0.19267 0.0
H405 H 0.5457 0.84844 0.20831 0.0
H406 H 0.62482 0.84163 0.93686 0.0
H407 H 0.50316 0.77291 0.98073 0.0
H408 H 0.65623 0.82577 0.12794 0.0
H409 H 0.65129 0.86685 0.15002 0.0
H410 H 0.66965 0.86265 0.04871 0.0
H411 H 0.50791 0.73964 0.18092 0.0
H412 H 0.47678 0.74773 0.112 0.0
H413 H 0.50241 0.78083 0.19658 0.0
C414 C 0.78229 0.60997 0.67449 0.0
C415 C 0.80177 0.59326 0.71315 0.0
C416 C 0.77797 0.60909 0.5868 0.0
C417 C 0.79313 0.59053 0.53679 0.0
C418 C 0.81217 0.57273 0.57583 0.0
C419 C 0.8167 0.5747 0.66424 0.0
C420 C 0.75753 0.62841 0.54771 0.0
C421 C 0.82774 0.55184 0.5242 0.0
C422 C 0.74218 0.55596 0.32793 0.0
C423 C 0.76854 0.58329 0.27084 0.0
C424 C 0.75079 0.55714 0.41373 0.0
C425 C 0.78604 0.58728 0.44443 0.0
C426 C 0.81267 0.61543 0.38794 0.0
C427 C 0.80383 0.61276 0.30119 0.0
C428 C 0.72211 0.52598 0.4716 0.0
C429 C 0.85019 0.64846 0.41931 0.0
H430 H 0.77149 0.62491 0.71308 0.0
H431 H 0.83252 0.56261 0.69479 0.0
H432 H 0.77615 0.64954 0.4993 0.0
H433 H 0.73097 0.60666 0.5153 0.0
H434 H 0.7495 0.64355 0.59541 0.0
H435 H 0.84131 0.5391 0.56428 0.0
H436 H 0.8042 0.52851 0.48691 0.0
H437 H 0.84938 0.57196 0.47845 0.0
H438 H 0.71501 0.53257 0.30529 0.0
H439 H 0.82443 0.63361 0.25728 0.0
H440 H 0.71083 0.53862 0.51815 0.0
H441 H 0.73634 0.51282 0.50787 0.0
H442 H 0.6974 0.50284 0.43643 0.0
H443 H 0.84439 0.66582 0.46551 0.0
H444 H 0.86803 0.66757 0.36711 0.0
H445 H 0.86696 0.6373 0.45277 0.0
C446 C 0.2548 0.78638 0.66133 0.0
C447 C 0.22041 0.77127 0.61512 0.0
C448 C 0.25572 0.79339 0.74847 0.0
C449 C 0.22117 0.78393 0.79128 0.0
C450 C 0.18629 0.76871 0.74484 0.0
C451 C 0.18643 0.76315 0.65683 0.0
C452 C 0.29369 0.81084 0.79475 0.0
C453 C 0.14877 0.75766 0.78848 0.0
C454 C 0.21734 0.76756 0.0298 0.0
C455 C 0.22019 0.80166 0.06112 0.0
C456 C 0.21787 0.76149 0.94219 0.0
C457 C 0.22169 0.79031 0.88451 0.0
C458 C 0.22613 0.82538 0.91592 0.0
C459 C 0.22507 0.83052 0.00356 0.0
C460 C 0.21294 0.72363 0.91137 0.0
C461 C 0.23142 0.85731 0.85683 0.0
H462 H 0.28124 0.7931 0.62894 0.0
H463 H 0.15982 0.75129 0.6212 0.0
H464 H 0.29922 0.83769 0.82726 0.0
H465 H 0.29268 0.79067 0.84412 0.0
H466 H 0.31815 0.81767 0.75167 0.0
H467 H 0.12407 0.74551 0.74386 0.0
H468 H 0.14325 0.73603 0.8384 0.0
H469 H 0.15046 0.78321 0.82002 0.0
H470 H 0.21321 0.74498 0.07353 0.0
H471 H 0.22755 0.85711 0.02702 0.0
H472 H 0.23513 0.72842 0.86363 0.0
H473 H 0.18446 0.70686 0.88032 0.0
H474 H 0.21482 0.70621 0.96382 0.0
H475 H 0.25622 0.86514 0.81424 0.0
H476 H 0.23631 0.88353 0.89137 0.0
H477 H 0.20559 0.84732 0.81625 0.0
C478 C 0.44984 0.20213 0.34568 0.0
C479 C 0.4279 0.21777 0.37686 0.0
C480 C 0.45354 0.19889 0.25823 0.0
C481 C 0.43493 0.21172 0.20138 0.0
C482 C 0.41485 0.22977 0.23269 0.0
C483 C 0.41154 0.23252 0.32013 0.0
C484 C 0.47562 0.17991 0.2269 0.0
C485 C 0.39536 0.24454 0.17392 0.0
C486 C 0.46542 0.22745 0.97208 0.0
C487 C 0.43707 0.1933 0.93473 0.0
C488 C 0.46501 0.23388 0.05884 0.0
C489 C 0.43544 0.2054 0.10913 0.0
C490 C 0.40609 0.17118 0.07113 0.0
C491 C 0.40734 0.1654 0.98375 0.0
C492 C 0.49667 0.27072 0.0969 0.0
C493 C 0.3739 0.14047 0.12313 0.0
H494 H 0.46204 0.19025 0.38937 0.0
H495 H 0.39473 0.24487 0.34425 0.0
H496 H 0.45536 0.15176 0.19767 0.0
H497 H 0.49649 0.19784 0.17745 0.0
H498 H 0.49143 0.17498 0.27868 0.0
H499 H 0.38299 0.26004 0.20832 0.0
H500 H 0.41605 0.26429 0.12624 0.0
H501 H 0.37188 0.22007 0.13898 0.0
H502 H 0.48859 0.24875 0.93334 0.0
H503 H 0.38582 0.13888 0.95429 0.0
H504 H 0.51297 0.26393 0.14397 0.0
H505 H 0.4842 0.28617 0.1309 0.0
H506 H 0.51707 0.29031 0.04842 0.0
H507 H 0.38593 0.12957 0.17209 0.0
H508 H 0.35308 0.11582 0.08388 0.0
H509 H 0.35824 0.15287 0.15656 0.0
C510 C 0.16871 0.50719 0.0769 0.0
C511 C 0.20869 0.52354 0.07072 0.0
C512 C 0.15242 0.52997 0.10122 0.0
C513 C 0.17686 0.56951 0.1218 0.0
C514 C 0.21703 0.58638 0.10855 0.0
C515 C 0.23204 0.56342 0.08123 0.0
C516 C 0.10932 0.51075 0.10851 0.0
C517 C 0.24508 0.62795 0.13087 0.0
C518 C 0.17192 0.65645 0.19025 0.0
C519 C 0.17654 0.65408 0.27758 0.0
C520 C 0.16379 0.62477 0.13742 0.0
C521 C 0.16314 0.59183 0.17262 0.0
C522 C 0.16145 0.58742 0.26159 0.0
C523 C 0.16694 0.61825 0.31276 0.0
C524 C 0.15967 0.6278 0.04345 0.0
C525 C 0.15946 0.55254 0.30333 0.0
H526 H 0.15033 0.47647 0.06735 0.0
H527 H 0.26293 0.57651 0.07356 0.0
H528 H 0.09925 0.48881 0.15952 0.0
H529 H 0.09909 0.53138 0.1215 0.0
H530 H 0.0959 0.49514 0.04886 0.0
H531 H 0.27554 0.63533 0.12332 0.0
H532 H 0.24027 0.64749 0.08962 0.0
H533 H 0.24091 0.63396 0.19738 0.0
H534 H 0.17814 0.68369 0.16249 0.0
H535 H 0.16907 0.616 0.38072 0.0
H536 H 0.13916 0.59916 0.01639 0.0
H537 H 0.18777 0.63806 0.01191 0.0
H538 H 0.14954 0.64842 0.02883 0.0
H539 H 0.13328 0.52613 0.2821 0.0
H540 H 0.15873 0.5539 0.37345 0.0
H541 H 0.1848 0.54993 0.285 0.0
C542 C 0.66489 0.18716 0.3509 0.0
C543 C 0.69189 0.21026 0.41215 0.0
C544 C 0.6253 0.17372 0.36301 0.0
C545 C 0.61277 0.18369 0.43793 0.0
C546 C 0.64005 0.20561 0.50123 0.0
C547 C 0.67898 0.21842 0.48754 0.0
C548 C 0.59732 0.15039 0.29412 0.0
C549 C 0.62841 0.21657 0.58306 0.0
C550 C 0.52856 0.19677 0.48691 0.0
C551 C 0.51043 0.16794 0.54807 0.0
C552 C 0.55903 0.19895 0.43837 0.0
C553 C 0.57157 0.17197 0.45274 0.0
C554 C 0.54873 0.13917 0.50304 0.0
C555 C 0.51801 0.13733 0.54936 0.0
C556 C 0.58144 0.23341 0.38207 0.0
C557 C 0.56046 0.10934 0.51955 0.0
H558 H 0.67479 0.18101 0.29228 0.0
H559 H 0.6997 0.23582 0.53569 0.0
H560 H 0.57018 0.12688 0.32093 0.0
H561 H 0.59002 0.16937 0.25691 0.0
H562 H 0.60971 0.13772 0.25034 0.0
H563 H 0.65317 0.23283 0.62645 0.0
H564 H 0.61526 0.23469 0.56945 0.0
H565 H 0.60661 0.19038 0.61643 0.0
H566 H 0.52299 0.22064 0.48576 0.0
H567 H 0.50405 0.115 0.59679 0.0
H568 H 0.59247 0.22556 0.32559 0.0
H569 H 0.60651 0.25585 0.41761 0.0
H570 H 0.5635 0.24589 0.36108 0.0
H571 H 0.57236 0.1035 0.46173 0.0
H572 H 0.53583 0.08191 0.54253 0.0
H573 H 0.58321 0.12029 0.56887 0.0
C574 C 0.34667 0.55934 0.87997 0.0
C575 C 0.3421 0.52304 0.89785 0.0
C576 C 0.37696 0.58588 0.82953 0.0
C577 C 0.40212 0.57507 0.79116 0.0
C578 C 0.39467 0.53668 0.80049 0.0
C579 C 0.36532 0.51132 0.85595 0.0
C580 C 0.38413 0.62667 0.82455 0.0
C581 C 0.41922 0.52307 0.75725 0.0
C582 C 0.46211 0.65592 0.64164 0.0
C583 C 0.49284 0.68003 0.69457 0.0
C584 C 0.43487 0.61845 0.66707 0.0
C585 C 0.43763 0.60559 0.74879 0.0
C586 C 0.47128 0.62812 0.79768 0.0
C587 C 0.49874 0.66508 0.76946 0.0
C588 C 0.40076 0.59457 0.61071 0.0
C589 C 0.47587 0.61564 0.88487 0.0
H590 H 0.32913 0.56861 0.91374 0.0
H591 H 0.36239 0.48355 0.87089 0.0
H592 H 0.41283 0.64692 0.85149 0.0
H593 H 0.38406 0.63499 0.75773 0.0
H594 H 0.3622 0.63043 0.85952 0.0
H595 H 0.40243 0.4916 0.74473 0.0
H596 H 0.43105 0.5384 0.69662 0.0
H597 H 0.44361 0.52846 0.79913 0.0
H598 H 0.45737 0.6676 0.5839 0.0
H599 H 0.52222 0.68394 0.81095 0.0
H600 H 0.37619 0.59814 0.63058 0.0
H601 H 0.3917 0.56354 0.61576 0.0
H602 H 0.40732 0.60363 0.54354 0.0
H603 H 0.45638 0.61906 0.92938 0.0
H604 H 0.50583 0.63305 0.90865 0.0
H605 H 0.46787 0.58487 0.88495 0.0
C606 C 0.86427 0.36721 0.18585 0.0
C607 C 0.82838 0.33781 0.21345 0.0
C608 C 0.86714 0.39734 0.13475 0.0
C609 C 0.83348 0.39883 0.11471 0.0
C610 C 0.79706 0.36655 0.13319 0.0
C611 C 0.79504 0.33599 0.18079 0.0
C612 C 0.9064 0.42985 0.11138 0.0
C613 C 0.76026 0.36676 0.11425 0.0
C614 C 0.83113 0.4912 0.14667 0.0
C615 C 0.82301 0.49868 0.06509 0.0
C616 C 0.83759 0.46048 0.16244 0.0
C617 C 0.83596 0.4365 0.09459 0.0
C618 C 0.83145 0.44624 0.01072 0.0
C619 C 0.82476 0.47723 -0.00309 0.0
C620 C 0.84253 0.45168 0.25305 0.0
C621 C 0.83064 0.42231 0.93626 0.0
H622 H 0.89017 0.36898 0.21164 0.0
H623 H 0.76726 0.31355 0.2032 0.0
H624 H 0.90571 0.44251 0.0494 0.0
H625 H 0.91619 0.45286 0.15989 0.0
H626 H 0.92773 0.41985 0.10851 0.0
H627 H 0.73448 0.33789 0.12303 0.0
H628 H 0.75784 0.38735 0.15736 0.0
H629 H 0.76032 0.37641 0.04855 0.0
H630 H 0.82938 0.50765 0.19934 0.0
H631 H 0.81775 0.48253 0.93389 0.0
H632 H 0.86867 0.4491 0.2595 0.0
H633 H 0.81753 0.42373 0.27217 0.0
H634 H 0.84495 0.47425 0.29764 0.0
H635 H 0.85064 0.41101 0.94572 0.0
H636 H 0.83832 0.43926 0.87671 0.0
H637 H 0.80122 0.39737 0.92867 0.0
C638 C 0.34333 0.81311 0.45746 0.0
C639 C 0.33676 0.82291 0.37657 0.0
C640 C 0.38033 0.82273 0.48434 0.0
C641 C 0.41221 0.84446 0.4304 0.0
C642 C 0.40611 0.85768 0.35166 0.0
C643 C 0.36822 0.84571 0.32446 0.0
C644 C 0.38469 0.80689 0.56795 0.0
C645 C 0.43908 0.88269 0.29391 0.0
C646 C 0.4983 0.87232 0.56891 0.0
C647 C 0.50331 0.84039 0.55692 0.0
C648 C 0.47248 0.87774 0.51843 0.0
C649 C 0.45072 0.85012 0.45575 0.0
C650 C 0.46061 0.82171 0.43438 0.0
C651 C 0.48724 0.81748 0.4849 0.0
C652 C 0.46475 0.90993 0.54003 0.0
C653 C 0.439 0.79212 0.3667 0.0
H654 H 0.3189 0.79469 0.49695 0.0
H655 H 0.36316 0.85268 0.2612 0.0
H656 H 0.39752 0.78824 0.55747 0.0
H657 H 0.4043 0.83072 0.61027 0.0
H658 H 0.35679 0.7897 0.60114 0.0
H659 H 0.43206 0.90135 0.25449 0.0
H660 H 0.46584 0.90117 0.32997 0.0
H661 H 0.44454 0.86419 0.25051 0.0
H662 H 0.51051 0.89007 0.62478 0.0
H663 H 0.49081 0.79258 0.47562 0.0
H664 H 0.43958 0.89895 0.58291 0.0
H665 H 0.45802 0.92119 0.4822 0.0
H666 H 0.48974 0.93392 0.57271 0.0
H667 H 0.41001 0.771 0.39071 0.0
H668 H 0.45411 0.77631 0.34823 0.0
H669 H 0.43509 0.80585 0.30962 0.0
C670 C 0.67249 0.48932 0.83275 0.0
C671 C 0.66709 0.48187 0.9198 0.0
C672 C 0.6439 0.46472 0.77444 0.0
C673 C 0.61043 0.4312 0.80418 0.0
C674 C 0.60393 0.4258 0.89234 0.0
C675 C 0.63144 0.45197 0.94811 0.0
C676 C 0.65076 0.47402 0.68149 0.0
C677 C 0.56969 0.39045 0.92927 0.0
C678 C 0.52118 0.34661 0.71206 0.0
C679 C 0.53453 0.32045 0.70313 0.0
C680 C 0.54702 0.38549 0.73272 0.0
C681 C 0.58644 0.39768 0.74772 0.0
C682 C 0.60029 0.37223 0.72854 0.0
C683 C 0.57429 0.33434 0.705 0.0
C684 C 0.53134 0.41245 0.74399 0.0
C685 C 0.64192 0.38341 0.74161 0.0
H686 H 0.69939 0.51303 0.80994 0.0
H687 H 0.62595 0.44696 0.01535 0.0
H688 H 0.67587 0.47165 0.66023 0.0
H689 H 0.62543 0.45505 0.64185 0.0
H690 H 0.65818 0.50437 0.67096 0.0
H691 H 0.5717 0.3886 -0.00094 0.0
H692 H 0.54298 0.3911 0.91514 0.0
H693 H 0.56698 0.36378 0.90128 0.0
H694 H 0.4906 0.33641 0.70835 0.0
H695 H 0.58498 0.31457 0.69435 0.0
H696 H 0.55443 0.44307 0.74723 0.0
H697 H 0.51387 0.40492 0.80257 0.0
H698 H 0.51181 0.4089 0.6906 0.0
H699 H 0.66049 0.40801 0.7001 0.0
H700 H 0.64748 0.35948 0.72702 0.0
H701 H 0.65061 0.39248 0.80813 0.0
loop_
_geom_bond_atom_site_label_1
_geom_bond_atom_site_label_2
_geom_bond_distance
_geom_bond_site_symmetry_2
_ccdc_geom_bond_type
O0 Mn1 2.163 . S
O0 C14 1.244 . S
Mn1 O0 2.163 . S
Mn1 O4 2.160 1_554 S
Mn1 O5 2.221 . S
Mn1 O7 2.163 1_554 S
Mn1 O9 2.160 . S
Mn1 O19 2.221 . S
O2 Mn3 2.087 . S
O2 C14 1.256 . S
Mn3 O2 2.087 . S
Mn3 O10 2.089 . S
Mn3 O19 2.290 . S
Mn3 O20 2.251 1_554 S
O4 Mn1 2.160 1_556 S
O4 C15 1.239 . S
O5 Mn1 2.221 . S
O5 Mn6 2.290 1_554 S
O5 C16 1.278 . S
Mn6 O5 2.290 1_556 S
Mn6 O8 2.089 . S
Mn6 O11 2.251 . S
Mn6 O12 2.087 . S
O7 Mn1 2.163 1_556 S
O7 C17 1.244 . S
O8 Mn6 2.089 . S
O8 C15 1.256 . S
O9 Mn1 2.160 . S
O9 C18 1.239 . S
O10 Mn3 2.089 . S
O10 C18 1.256 . S
O11 Mn6 2.251 . S
O11 C16 1.241 1_556 S
O12 Mn6 2.087 . S
O12 C17 1.256 . S
C13 O19 1.278 1_556 S
C13 O20 1.241 . S
C14 O0 1.244 . S
C14 O2 1.256 . S
C15 O4 1.239 . S
C15 O8 1.256 . S
C16 O5 1.278 . S
C16 O11 1.241 1_554 S
C17 O7 1.244 . S
C17 O12 1.256 . S
C18 O9 1.239 . S
C18 O10 1.256 . S
O19 Mn1 2.221 . S
O19 Mn3 2.290 . S
O19 C13 1.278 1_554 S
O20 Mn3 2.251 1_556 S
O20 C13 1.241 . S
O21 Mn22 2.163 . S
O21 C35 1.244 . S
Mn22 O21 2.163 . S
Mn22 O25 2.160 . S
Mn22 O26 2.221 . S
Mn22 O28 2.163 . S
Mn22 O30 2.160 . S
Mn22 O40 2.221 . S
O23 Mn24 2.087 . S
O23 C35 1.256 . S
Mn24 O23 2.087 . S
Mn24 O31 2.089 . S
Mn24 O40 2.290 . S
Mn24 O41 2.251 . S
O25 Mn22 2.160 . S
O25 C36 1.239 . S
O26 Mn22 2.221 . S
O26 Mn27 2.290 . S
O26 C37 1.278 . S
Mn27 O26 2.290 . S
Mn27 O29 2.089 . S
Mn27 O32 2.251 . S
Mn27 O33 2.087 . S
O28 Mn22 2.163 . S
O28 C38 1.244 . S
O29 Mn27 2.089 . S
O29 C36 1.256 . S
O30 Mn22 2.160 . S
O30 C39 1.239 . S
O31 Mn24 2.089 . S
O31 C39 1.256 . S
O32 Mn27 2.251 . S
O32 C37 1.241 . S
O33 Mn27 2.087 . S
O33 C38 1.256 . S
C34 O40 1.278 . S
C34 O41 1.241 . S
C35 O21 1.244 . S
C35 O23 1.256 . S
C36 O25 1.239 . S
C36 O29 1.256 . S
C37 O26 1.278 . S
C37 O32 1.241 . S
C38 O28 1.244 . S
C38 O33 1.256 . S
C39 O30 1.239 . S
C39 O31 1.256 . S
O40 Mn22 2.221 . S
O40 Mn24 2.290 . S
O40 C34 1.278 . S
O41 Mn24 2.251 . S
O41 C34 1.241 . S
O42 Mn43 2.163 . S
O42 C56 1.244 . S
Mn43 O42 2.163 . S
Mn43 O46 2.160 . S
Mn43 O47 2.221 . S
Mn43 O49 2.163 . S
Mn43 O51 2.160 . S
Mn43 O61 2.221 . S
O44 Mn45 2.087 . S
O44 C56 1.256 . S
Mn45 O44 2.087 . S
Mn45 O52 2.089 . S
Mn45 O61 2.290 . S
Mn45 O62 2.251 . S
O46 Mn43 2.160 . S
O46 C57 1.239 . S
O47 Mn43 2.221 . S
O47 Mn48 2.290 . S
O47 C58 1.278 . S
Mn48 O47 2.290 . S
Mn48 O50 2.089 . S
Mn48 O53 2.251 . S
Mn48 O54 2.087 . S
O49 Mn43 2.163 . S
O49 C59 1.244 . S
O50 Mn48 2.089 . S
O50 C57 1.256 . S
O51 Mn43 2.160 . S
O51 C60 1.239 . S
O52 Mn45 2.089 . S
O52 C60 1.256 . S
O53 Mn48 2.251 . S
O53 C58 1.241 . S
O54 Mn48 2.087 . S
O54 C59 1.256 . S
C55 O61 1.278 . S
C55 O62 1.241 . S
C56 O42 1.244 . S
C56 O44 1.256 . S
C57 O46 1.239 . S
C57 O50 1.256 . S
C58 O47 1.278 . S
C58 O53 1.241 . S
C59 O49 1.244 . S
C59 O54 1.256 . S
C60 O51 1.239 . S
C60 O52 1.256 . S
O61 Mn43 2.221 . S
O61 Mn45 2.290 . S
O61 C55 1.278 . S
O62 Mn45 2.251 . S
O62 C55 1.241 . S
O63 Mn64 2.163 . S
O63 C77 1.244 . S
Mn64 O63 2.163 . S
Mn64 O67 2.160 1_554 S
Mn64 O68 2.221 . S
Mn64 O70 2.163 1_554 S
Mn64 O72 2.160 . S
Mn64 O82 2.221 . S
O65 Mn66 2.087 . S
O65 C77 1.256 . S
Mn66 O65 2.087 . S
Mn66 O73 2.089 . S
Mn66 O82 2.290 . S
Mn66 O83 2.251 1_554 S
O67 Mn64 2.160 1_556 S
O67 C78 1.239 . S
O68 Mn64 2.221 . S
O68 Mn69 2.290 1_554 S
O68 C79 1.278 . S
Mn69 O68 2.290 1_556 S
Mn69 O71 2.089 . S
Mn69 O74 2.251 . S
Mn69 O75 2.087 . S
O70 Mn64 2.163 1_556 S
O70 C80 1.244 . S
O71 Mn69 2.089 . S
O71 C78 1.256 . S
O72 Mn64 2.160 . S
O72 C81 1.239 . S
O73 Mn66 2.089 . S
O73 C81 1.256 . S
O74 Mn69 2.251 . S
O74 C79 1.241 1_556 S
O75 Mn69 2.087 . S
O75 C80 1.256 . S
C76 O82 1.278 1_556 S
C76 O83 1.241 . S
C77 O63 1.244 . S
C77 O65 1.256 . S
C78 O67 1.239 . S
C78 O71 1.256 . S
C79 O68 1.278 . S
C79 O74 1.241 1_554 S
C80 O70 1.244 . S
C80 O75 1.256 . S
C81 O72 1.239 . S
C81 O73 1.256 . S
O82 Mn64 2.221 . S
O82 Mn66 2.290 . S
O82 C76 1.278 1_554 S
O83 Mn66 2.251 1_556 S
O83 C76 1.241 . S
O84 Mn85 2.163 . S
O84 C98 1.244 . S
Mn85 O84 2.163 . S
Mn85 O88 2.160 . S
Mn85 O89 2.221 . S
Mn85 O91 2.163 . S
Mn85 O93 2.160 . S
Mn85 O103 2.221 . S
O86 Mn87 2.087 . S
O86 C98 1.256 . S
Mn87 O86 2.087 . S
Mn87 O94 2.089 . S
Mn87 O103 2.290 . S
Mn87 O104 2.251 . S
O88 Mn85 2.160 . S
O88 C99 1.239 . S
O89 Mn85 2.221 . S
O89 Mn90 2.290 . S
O89 C100 1.278 . S
Mn90 O89 2.290 . S
Mn90 O92 2.089 . S
Mn90 O95 2.251 . S
Mn90 O96 2.087 . S
O91 Mn85 2.163 . S
O91 C101 1.244 . S
O92 Mn90 2.089 . S
O92 C99 1.256 . S
O93 Mn85 2.160 . S
O93 C102 1.239 . S
O94 Mn87 2.089 . S
O94 C102 1.256 . S
O95 Mn90 2.251 . S
O95 C100 1.241 . S
O96 Mn90 2.087 . S
O96 C101 1.256 . S
C97 O103 1.278 . S
C97 O104 1.241 . S
C98 O84 1.244 . S
C98 O86 1.256 . S
C99 O88 1.239 . S
C99 O92 1.256 . S
C100 O89 1.278 . S
C100 O95 1.241 . S
C101 O91 1.244 . S
C101 O96 1.256 . S
C102 O93 1.239 . S
C102 O94 1.256 . S
O103 Mn85 2.221 . S
O103 Mn87 2.290 . S
O103 C97 1.278 . S
O104 Mn87 2.251 . S
O104 C97 1.241 . S
O105 Mn106 2.163 . S
O105 C119 1.244 . S
Mn106 O105 2.163 . S
Mn106 O109 2.160 . S
Mn106 O110 2.221 . S
Mn106 O112 2.163 . S
Mn106 O114 2.160 . S
Mn106 O124 2.221 . S
O107 Mn108 2.087 . S
O107 C119 1.256 . S
Mn108 O107 2.087 . S
Mn108 O115 2.089 . S
Mn108 O124 2.290 . S
Mn108 O125 2.251 . S
O109 Mn106 2.160 . S
O109 C120 1.239 . S
O110 Mn106 2.221 . S
O110 Mn111 2.290 . S
O110 C121 1.278 . S
Mn111 O110 2.290 . S
Mn111 O113 2.089 . S
Mn111 O116 2.251 . S
Mn111 O117 2.087 . S
O112 Mn106 2.163 . S
O112 C122 1.244 . S
O113 Mn111 2.089 . S
O113 C120 1.256 . S
O114 Mn106 2.160 . S
O114 C123 1.239 . S
O115 Mn108 2.089 . S
O115 C123 1.256 . S
O116 Mn111 2.251 . S
O116 C121 1.241 . S
O117 Mn111 2.087 . S
O117 C122 1.256 . S
C118 O124 1.278 . S
C118 O125 1.241 . S
C119 O105 1.244 . S
C119 O107 1.256 . S
C120 O109 1.239 . S
C120 O113 1.256 . S
C121 O110 1.278 . S
C121 O116 1.241 . S
C122 O112 1.244 . S
C122 O117 1.256 . S
C123 O114 1.239 . S
C123 O115 1.256 . S
O124 Mn106 2.221 . S
O124 Mn108 2.290 . S
O124 C118 1.278 . S
O125 Mn108 2.251 . S
O125 C118 1.241 . S
C126 C127 1.391 . S
C126 C128 1.394 . S
C126 H142 0.931 . S
C127 C126 1.391 . S
C127 C131 1.376 . S
C128 C126 1.394 . S
C128 C129 1.369 . S
C128 C132 1.531 . S
C129 C128 1.369 . S
C129 C130 1.410 . S
C129 C137 1.503 . S
C130 C129 1.410 . S
C130 C131 1.392 . S
C130 C133 1.511 . S
C131 C127 1.376 . S
C131 C130 1.392 . S
C131 H143 0.929 . S
C132 C128 1.531 . S
C132 H144 0.960 . S
C132 H145 0.962 . S
C132 H146 0.960 . S
C133 C130 1.511 . S
C133 H147 0.961 . S
C133 H148 0.961 . S
C133 H149 0.955 1_556 S
C134 C135 1.370 . S
C134 C136 1.363 . S
C134 H150 0.931 . S
C135 C134 1.370 . S
C135 C139 1.408 . S
C136 C134 1.363 . S
C136 C137 1.370 . S
C136 C140 1.524 . S
C137 C129 1.503 . S
C137 C136 1.370 . S
C137 C138 1.403 . S
C138 C137 1.403 . S
C138 C139 1.404 . S
C138 C141 1.539 . S
C139 C135 1.408 . S
C139 C138 1.404 . S
C139 H151 0.930 . S
C140 C136 1.524 . S
C140 H152 0.956 . S
C140 H153 0.961 . S
C140 H154 0.961 . S
C141 C138 1.539 . S
C141 H155 0.958 . S
C141 H156 0.961 . S
C141 H157 0.960 . S
H142 C126 0.931 . S
H143 C131 0.929 . S
H144 C132 0.960 . S
H145 C132 0.962 . S
H146 C132 0.960 . S
H147 C133 0.961 . S
H148 C133 0.961 . S
H149 C133 0.955 1_554 S
H150 C134 0.931 . S
H151 C139 0.930 . S
H152 C140 0.956 . S
H153 C140 0.961 . S
H154 C140 0.961 . S
H155 C141 0.958 . S
H156 C141 0.961 . S
H157 C141 0.960 . S
C158 C159 1.391 . S
C158 C160 1.394 . S
C158 H174 0.931 . S
C159 C158 1.391 . S
C159 C163 1.376 . S
C160 C158 1.394 . S
C160 C161 1.369 . S
C160 C164 1.531 . S
C161 C160 1.369 . S
C161 C162 1.410 . S
C161 C169 1.503 1_455 S
C162 C161 1.410 . S
C162 C163 1.392 . S
C162 C165 1.511 . S
C163 C159 1.376 . S
C163 C162 1.392 . S
C163 H175 0.929 . S
C164 C160 1.531 . S
C164 H176 0.960 1_455 S
C164 H177 0.962 . S
C164 H178 0.960 . S
C165 C162 1.511 . S
C165 H179 0.961 . S
C165 H180 0.961 . S
C165 H181 0.961 . S
C166 C167 1.370 . S
C166 C168 1.363 . S
C166 H182 0.931 . S
C167 C166 1.370 . S
C167 C171 1.408 . S
C168 C166 1.363 . S
C168 C169 1.370 . S
C168 C172 1.524 1_655 S
C169 C161 1.503 1_655 S
C169 C168 1.370 . S
C169 C170 1.403 . S
C170 C169 1.403 . S
C170 C171 1.404 . S
C170 C173 1.539 . S
C171 C167 1.408 . S
C171 C170 1.404 . S
C171 H183 0.930 . S
C172 C168 1.524 1_455 S
C172 H184 0.956 . S
C172 H185 0.961 . S
C172 H186 0.961 . S
C173 C170 1.539 . S
C173 H187 0.958 1_554 S
C173 H188 0.961 . S
C173 H189 0.960 . S
H174 C158 0.931 . S
H175 C163 0.929 . S
H176 C164 0.960 1_655 S
H177 C164 0.962 . S
H178 C164 0.960 . S
H179 C165 0.961 . S
H180 C165 0.961 . S
H181 C165 0.961 . S
H182 C166 0.931 . S
H183 C171 0.930 . S
H184 C172 0.956 . S
H185 C172 0.961 . S
H186 C172 0.961 . S
H187 C173 0.958 1_556 S
H188 C173 0.961 . S
H189 C173 0.960 . S
C190 C191 1.391 . S
C190 C192 1.394 . S
C190 H206 0.931 . S
C191 C190 1.391 . S
C191 C195 1.376 . S
C192 C190 1.394 . S
C192 C193 1.369 . S
C192 C196 1.531 . S
C193 C192 1.369 . S
C193 C194 1.410 . S
C193 C201 1.503 1_545 S
C194 C193 1.410 . S
C194 C195 1.392 . S
C194 C197 1.511 . S
C195 C191 1.376 . S
C195 C194 1.392 . S
C195 H207 0.929 . S
C196 C192 1.531 . S
C196 H208 0.960 . S
C196 H209 0.962 . S
C196 H210 0.960 . S
C197 C194 1.511 . S
C197 H211 0.961 . S
C197 H212 0.961 . S
C197 H213 0.961 . S
C198 C199 1.370 . S
C198 C200 1.363 . S
C198 H214 0.931 . S
C199 C198 1.370 . S
C199 C203 1.408 . S
C200 C198 1.363 . S
C200 C201 1.370 . S
C200 C204 1.524 . S
C201 C193 1.503 1_565 S
C201 C200 1.370 . S
C201 C202 1.403 . S
C202 C201 1.403 . S
C202 C203 1.404 . S
C202 C205 1.539 1_565 S
C203 C199 1.408 . S
C203 C202 1.404 . S
C203 H215 0.930 . S
C204 C200 1.524 . S
C204 H216 0.956 . S
C204 H217 0.961 . S
C204 H218 0.961 . S
C205 C202 1.539 1_545 S
C205 H219 0.958 . S
C205 H220 0.961 . S
C205 H221 0.960 . S
H206 C190 0.931 . S
H207 C195 0.929 . S
H208 C196 0.960 . S
H209 C196 0.962 . S
H210 C196 0.960 . S
H211 C197 0.961 . S
H212 C197 0.961 . S
H213 C197 0.961 . S
H214 C198 0.931 . S
H215 C203 0.930 . S
H216 C204 0.956 . S
H217 C204 0.961 . S
H218 C204 0.961 . S
H219 C205 0.958 . S
H220 C205 0.961 . S
H221 C205 0.960 . S
C222 C223 1.391 . S
C222 C224 1.394 . S
C222 H238 0.931 . S
C223 C222 1.391 . S
C223 C227 1.376 . S
C224 C222 1.394 . S
C224 C225 1.369 . S
C224 C228 1.531 . S
C225 C224 1.369 . S
C225 C226 1.410 . S
C225 C233 1.503 . S
C226 C225 1.410 . S
C226 C227 1.392 . S
C226 C229 1.511 . S
C227 C223 1.376 . S
C227 C226 1.392 . S
C227 H239 0.929 . S
C228 C224 1.531 . S
C228 H240 0.960 . S
C228 H241 0.962 . S
C228 H242 0.960 . S
C229 C226 1.511 . S
C229 H243 0.961 . S
C229 H244 0.961 . S
C229 H245 0.961 . S
C230 C231 1.370 . S
C230 C232 1.363 . S
C230 H246 0.931 . S
C231 C230 1.370 . S
C231 C235 1.408 . S
C232 C230 1.363 . S
C232 C233 1.370 . S
C232 C236 1.524 . S
C233 C225 1.503 . S
C233 C232 1.370 . S
C233 C234 1.403 . S
C234 C233 1.403 . S
C234 C235 1.404 . S
C234 C237 1.539 1_556 S
C235 C231 1.408 . S
C235 C234 1.404 . S
C235 H247 0.930 1_556 S
C236 C232 1.524 . S
C236 H248 0.956 . S
C236 H249 0.961 . S
C236 H250 0.961 . S
C237 C234 1.539 1_554 S
C237 H251 0.958 . S
C237 H252 0.961 . S
C237 H253 0.960 1_554 S
H238 C222 0.931 . S
H239 C227 0.929 . S
H240 C228 0.960 . S
H241 C228 0.962 . S
H242 C228 0.960 . S
H243 C229 0.961 . S
H244 C229 0.961 . S
H245 C229 0.961 . S
H246 C230 0.931 . S
H247 C235 0.930 1_554 S
H248 C236 0.956 . S
H249 C236 0.961 . S
H250 C236 0.961 . S
H251 C237 0.958 . S
H252 C237 0.961 . S
H253 C237 0.960 1_556 S
C254 C255 1.391 . S
C254 C256 1.394 . S
C254 H270 0.931 . S
C255 C254 1.391 . S
C255 C259 1.376 . S
C256 C254 1.394 . S
C256 C257 1.369 . S
C256 C260 1.531 . S
C257 C256 1.369 . S
C257 C258 1.410 . S
C257 C265 1.503 1_455 S
C258 C257 1.410 . S
C258 C259 1.392 . S
C258 C261 1.511 1_455 S
C259 C255 1.376 . S
C259 C258 1.392 . S
C259 H271 0.929 . S
C260 C256 1.531 . S
C260 H272 0.960 1_455 S
C260 H273 0.962 . S
C260 H274 0.960 . S
C261 C258 1.511 1_655 S
C261 H275 0.961 . S
C261 H276 0.961 . S
C261 H277 0.961 . S
C262 C263 1.370 . S
C262 C264 1.363 . S
C262 H278 0.941 . S
C263 C262 1.370 . S
C263 C267 1.408 . S
C264 C262 1.363 . S
C264 C265 1.370 . S
C264 C268 1.524 . S
C265 C257 1.503 1_655 S
C265 C264 1.370 . S
C265 C266 1.403 . S
C266 C265 1.403 . S
C266 C267 1.404 . S
C266 C269 1.539 . S
C267 C263 1.408 . S
C267 C266 1.404 . S
C267 H279 0.930 . S
C268 C264 1.524 . S
C268 H280 0.956 1_655 S
C268 H281 0.961 1_655 S
C268 H282 0.961 . S
C269 C266 1.539 . S
C269 H283 0.958 . S
C269 H284 0.961 . S
C269 H285 0.960 . S
H270 C254 0.931 . S
H271 C259 0.929 . S
H272 C260 0.960 1_655 S
H273 C260 0.962 . S
H274 C260 0.960 . S
H275 C261 0.961 . S
H276 C261 0.961 . S
H277 C261 0.961 . S
H278 C262 0.941 . S
H279 C267 0.930 . S
H280 C268 0.956 1_455 S
H281 C268 0.961 1_455 S
H282 C268 0.961 . S
H283 C269 0.958 . S
H284 C269 0.961 . S
H285 C269 0.960 . S
C286 C287 1.391 . S
C286 C288 1.394 . S
C286 H302 0.931 . S
C287 C286 1.391 . S
C287 C291 1.376 . S
C288 C286 1.394 . S
C288 C289 1.369 . S
C288 C292 1.531 1_545 S
C289 C288 1.369 . S
C289 C290 1.410 . S
C289 C297 1.503 1_545 S
C290 C289 1.410 . S
C290 C291 1.392 . S
C290 C293 1.511 . S
C291 C287 1.376 . S
C291 C290 1.392 . S
C291 H303 0.929 . S
C292 C288 1.531 1_565 S
C292 H304 0.960 . S
C292 H305 0.962 . S
C292 H306 0.960 . S
C293 C290 1.511 . S
C293 H307 0.961 . S
C293 H308 0.961 . S
C293 H309 0.961 . S
C294 C295 1.370 . S
C294 C296 1.363 . S
C294 H310 0.931 . S
C295 C294 1.370 . S
C295 C299 1.408 . S
C296 C294 1.363 . S
C296 C297 1.370 . S
C296 C300 1.524 . S
C297 C289 1.503 1_565 S
C297 C296 1.370 . S
C297 C298 1.403 . S
C298 C297 1.403 . S
C298 C299 1.404 . S
C298 C301 1.539 . S
C299 C295 1.408 . S
C299 C298 1.404 . S
C299 H311 0.930 . S
C300 C296 1.524 . S
C300 H312 0.956 . S
C300 H313 0.961 1_565 S
C300 H314 0.961 . S
C301 C298 1.539 . S
C301 H315 0.958 . S
C301 H316 0.961 . S
C301 H317 0.960 . S
H302 C286 0.931 . S
H303 C291 0.929 . S
H304 C292 0.960 . S
H305 C292 0.962 . S
H306 C292 0.960 . S
H307 C293 0.961 . S
H308 C293 0.961 . S
H309 C293 0.961 . S
H310 C294 0.931 . S
H311 C299 0.930 . S
H312 C300 0.956 . S
H313 C300 0.961 1_545 S
H314 C300 0.961 . S
H315 C301 0.958 . S
H316 C301 0.961 . S
H317 C301 0.960 . S
C318 C319 1.391 . S
C318 C320 1.394 . S
C318 H334 0.931 . S
C319 C318 1.391 . S
C319 C323 1.376 . S
C320 C318 1.394 . S
C320 C321 1.369 . S
C320 C324 1.531 . S
C321 C320 1.369 . S
C321 C322 1.410 . S
C321 C329 1.503 . S
C322 C321 1.410 . S
C322 C323 1.392 . S
C322 C325 1.511 . S
C323 C319 1.376 . S
C323 C322 1.392 . S
C323 H335 0.929 . S
C324 C320 1.531 . S
C324 H336 0.960 . S
C324 H337 0.962 . S
C324 H338 0.960 . S
C325 C322 1.511 . S
C325 H339 0.961 . S
C325 H340 0.961 . S
C325 H341 0.961 . S
C326 C327 1.370 . S
C326 C328 1.363 . S
C326 H342 0.931 . S
C327 C326 1.370 . S
C327 C331 1.408 . S
C328 C326 1.363 . S
C328 C329 1.370 . S
C328 C332 1.524 . S
C329 C321 1.503 . S
C329 C328 1.370 . S
C329 C330 1.403 . S
C330 C329 1.403 . S
C330 C331 1.404 . S
C330 C333 1.539 . S
C331 C327 1.408 . S
C331 C330 1.404 . S
C331 H343 0.930 . S
C332 C328 1.524 . S
C332 H344 0.956 . S
C332 H345 0.961 . S
C332 H346 0.961 . S
C333 C330 1.539 . S
C333 H347 0.958 . S
C333 H348 0.961 . S
C333 H349 0.960 . S
H334 C318 0.931 . S
H335 C323 0.929 . S
H336 C324 0.960 . S
H337 C324 0.962 . S
H338 C324 0.960 . S
H339 C325 0.961 . S
H340 C325 0.961 . S
H341 C325 0.961 . S
H342 C326 0.931 . S
H343 C331 0.930 . S
H344 C332 0.956 . S
H345 C332 0.961 . S
H346 C332 0.961 . S
H347 C333 0.958 . S
H348 C333 0.961 . S
H349 C333 0.960 . S
C350 C351 1.391 . S
C350 C352 1.394 1_554 S
C350 H366 0.931 . S
C351 C350 1.391 . S
C351 C355 1.376 . S
C352 C350 1.394 1_556 S
C352 C353 1.369 . S
C352 C356 1.531 . S
C353 C352 1.369 . S
C353 C354 1.410 . S
C353 C361 1.503 . S
C354 C353 1.410 . S
C354 C355 1.392 1_556 S
C354 C357 1.511 . S
C355 C351 1.376 . S
C355 C354 1.392 1_554 S
C355 H367 0.929 . S
C356 C352 1.531 . S
C356 H368 0.960 . S
C356 H369 0.962 . S
C356 H370 0.960 . S
C357 C354 1.511 . S
C357 H371 0.961 . S
C357 H372 0.961 . S
C357 H373 0.961 . S
C358 C359 1.370 . S
C358 C360 1.363 . S
C358 H374 0.931 . S
C359 C358 1.370 . S
C359 C363 1.408 . S
C360 C358 1.363 . S
C360 C361 1.370 . S
C360 C364 1.524 . S
C361 C353 1.503 . S
C361 C360 1.370 . S
C361 C362 1.403 . S
C362 C361 1.403 . S
C362 C363 1.404 . S
C362 C365 1.539 . S
C363 C359 1.408 . S
C363 C362 1.404 . S
C363 H375 0.930 . S
C364 C360 1.524 . S
C364 H376 0.956 . S
C364 H377 0.961 . S
C364 H378 0.961 . S
C365 C362 1.539 . S
C365 H379 0.958 . S
C365 H380 0.961 . S
C365 H381 0.960 . S
H366 C350 0.931 . S
H367 C355 0.929 . S
H368 C356 0.960 . S
H369 C356 0.962 . S
H370 C356 0.960 . S
H371 C357 0.961 . S
H372 C357 0.961 . S
H373 C357 0.961 . S
H374 C358 0.931 . S
H375 C363 0.930 . S
H376 C364 0.956 . S
H377 C364 0.961 . S
H378 C364 0.961 . S
H379 C365 0.958 . S
H380 C365 0.961 . S
H381 C365 0.960 . S
C382 C383 1.391 . S
C382 C384 1.394 . S
C382 H398 0.931 . S
C383 C382 1.391 . S
C383 C387 1.376 . S
C384 C382 1.394 . S
C384 C385 1.369 . S
C384 C388 1.531 . S
C385 C384 1.369 . S
C385 C386 1.410 . S
C385 C393 1.503 . S
C386 C385 1.410 . S
C386 C387 1.392 . S
C386 C389 1.511 . S
C387 C383 1.376 . S
C387 C386 1.392 . S
C387 H399 0.929 . S
C388 C384 1.531 . S
C388 H400 0.960 . S
C388 H401 0.962 . S
C388 H402 0.960 . S
C389 C386 1.511 . S
C389 H403 0.961 . S
C389 H404 0.961 . S
C389 H405 0.961 . S
C390 C391 1.370 1_554 S
C390 C392 1.363 . S
C390 H406 0.931 1_554 S
C391 C390 1.370 1_556 S
C391 C395 1.408 . S
C392 C390 1.363 . S
C392 C393 1.370 . S
C392 C396 1.524 . S
C393 C385 1.503 . S
C393 C392 1.370 . S
C393 C394 1.403 . S
C394 C393 1.403 . S
C394 C395 1.404 1_554 S
C394 C397 1.539 . S
C395 C391 1.408 . S
C395 C394 1.404 1_556 S
C395 H407 0.930 . S
C396 C392 1.524 . S
C396 H408 0.956 . S
C396 H409 0.961 . S
C396 H410 0.961 . S
C397 C394 1.539 . S
C397 H411 0.958 . S
C397 H412 0.961 . S
C397 H413 0.960 . S
H398 C382 0.931 . S
H399 C387 0.929 . S
H400 C388 0.960 . S
H401 C388 0.962 . S
H402 C388 0.960 . S
H403 C389 0.961 . S
H404 C389 0.961 . S
H405 C389 0.961 . S
H406 C390 0.931 1_556 S
H407 C395 0.930 . S
H408 C396 0.956 . S
H409 C396 0.961 . S
H410 C396 0.961 . S
H411 C397 0.958 . S
H412 C397 0.961 . S
H413 C397 0.960 . S
C414 C415 1.391 . S
C414 C416 1.394 . S
C414 H430 0.931 . S
C415 C414 1.391 . S
C415 C419 1.376 . S
C416 C414 1.394 . S
C416 C417 1.369 . S
C416 C420 1.531 . S
C417 C416 1.369 . S
C417 C418 1.410 . S
C417 C425 1.503 . S
C418 C417 1.410 . S
C418 C419 1.392 . S
C418 C421 1.511 . S
C419 C415 1.376 . S
C419 C418 1.392 . S
C419 H431 0.929 . S
C420 C416 1.531 . S
C420 H432 0.960 . S
C420 H433 0.962 . S
C420 H434 0.960 . S
C421 C418 1.511 . S
C421 H435 0.961 . S
C421 H436 0.961 . S
C421 H437 0.961 . S
C422 C423 1.370 . S
C422 C424 1.363 . S
C422 H438 0.931 . S
C423 C422 1.370 . S
C423 C427 1.408 . S
C424 C422 1.363 . S
C424 C425 1.370 . S
C424 C428 1.524 . S
C425 C417 1.503 . S
C425 C424 1.370 . S
C425 C426 1.403 . S
C426 C425 1.403 . S
C426 C427 1.404 . S
C426 C429 1.539 . S
C427 C423 1.408 . S
C427 C426 1.404 . S
C427 H439 0.930 . S
C428 C424 1.524 . S
C428 H440 0.956 . S
C428 H441 0.961 . S
C428 H442 0.961 . S
C429 C426 1.539 . S
C429 H443 0.958 . S
C429 H444 0.961 . S
C429 H445 0.960 . S
H430 C414 0.931 . S
H431 C419 0.929 . S
H432 C420 0.960 . S
H433 C420 0.962 . S
H434 C420 0.960 . S
H435 C421 0.961 . S
H436 C421 0.961 . S
H437 C421 0.961 . S
H438 C422 0.931 . S
H439 C427 0.930 . S
H440 C428 0.956 . S
H441 C428 0.961 . S
H442 C428 0.961 . S
H443 C429 0.958 . S
H444 C429 0.961 . S
H445 C429 0.960 . S
C446 C447 1.391 . S
C446 C448 1.394 . S
C446 H462 0.931 . S
C447 C446 1.391 . S
C447 C451 1.376 . S
C448 C446 1.394 . S
C448 C449 1.369 . S
C448 C452 1.531 . S
C449 C448 1.369 . S
C449 C450 1.410 . S
C449 C457 1.503 . S
C450 C449 1.410 . S
C450 C451 1.392 . S
C450 C453 1.511 . S
C451 C447 1.376 . S
C451 C450 1.392 . S
C451 H463 0.929 . S
C452 C448 1.531 . S
C452 H464 0.960 . S
C452 H465 0.962 . S
C452 H466 0.960 . S
C453 C450 1.511 . S
C453 H467 0.961 . S
C453 H468 0.961 . S
C453 H469 0.961 . S
C454 C455 1.370 . S
C454 C456 1.363 1_554 S
C454 H470 0.931 . S
C455 C454 1.370 . S
C455 C459 1.408 . S
C456 C454 1.363 1_556 S
C456 C457 1.370 . S
C456 C460 1.524 . S
C457 C449 1.503 . S
C457 C456 1.370 . S
C457 C458 1.403 . S
C458 C457 1.403 . S
C458 C459 1.404 1_556 S
C458 C461 1.539 . S
C459 C455 1.408 . S
C459 C458 1.404 1_554 S
C459 H471 0.930 . S
C460 C456 1.524 . S
C460 H472 0.956 . S
C460 H473 0.961 . S
C460 H474 0.961 . S
C461 C458 1.539 . S
C461 H475 0.958 . S
C461 H476 0.961 . S
C461 H477 0.960 . S
H462 C446 0.931 . S
H463 C451 0.929 . S
H464 C452 0.960 . S
H465 C452 0.962 . S
H466 C452 0.960 . S
H467 C453 0.961 . S
H468 C453 0.961 . S
H469 C453 0.961 . S
H470 C454 0.931 . S
H471 C459 0.930 . S
H472 C460 0.956 . S
H473 C460 0.961 . S
H474 C460 0.961 . S
H475 C461 0.958 . S
H476 C461 0.961 . S
H477 C461 0.960 . S
C478 C479 1.391 . S
C478 C480 1.394 . S
C478 H494 0.931 . S
C479 C478 1.391 . S
C479 C483 1.376 . S
C480 C478 1.394 . S
C480 C481 1.369 . S
C480 C484 1.531 . S
C481 C480 1.369 . S
C481 C482 1.410 . S
C481 C489 1.503 . S
C482 C481 1.410 . S
C482 C483 1.392 . S
C482 C485 1.511 . S
C483 C479 1.376 . S
C483 C482 1.392 . S
C483 H495 0.929 . S
C484 C480 1.531 . S
C484 H496 0.960 . S
C484 H497 0.962 . S
C484 H498 0.960 . S
C485 C482 1.511 . S
C485 H499 0.961 . S
C485 H500 0.961 . S
C485 H501 0.961 . S
C486 C487 1.370 1_554 S
C486 C488 1.363 . S
C486 H502 0.931 1_554 S
C487 C486 1.370 1_556 S
C487 C491 1.408 . S
C488 C486 1.363 . S
C488 C489 1.370 . S
C488 C492 1.524 . S
C489 C481 1.503 . S
C489 C488 1.370 . S
C489 C490 1.403 . S
C490 C489 1.403 . S
C490 C491 1.404 1_554 S
C490 C493 1.539 . S
C491 C487 1.408 . S
C491 C490 1.404 1_556 S
C491 H503 0.930 . S
C492 C488 1.524 . S
C492 H504 0.956 . S
C492 H505 0.961 . S
C492 H506 0.961 . S
C493 C490 1.539 . S
C493 H507 0.958 . S
C493 H508 0.961 . S
C493 H509 0.960 . S
H494 C478 0.931 . S
H495 C483 0.929 . S
H496 C484 0.960 . S
H497 C484 0.962 . S
H498 C484 0.960 . S
H499 C485 0.961 . S
H500 C485 0.961 . S
H501 C485 0.961 . S
H502 C486 0.931 1_556 S
H503 C491 0.930 . S
H504 C492 0.956 . S
H505 C492 0.961 . S
H506 C492 0.961 . S
H507 C493 0.958 . S
H508 C493 0.961 . S
H509 C493 0.960 . S
C510 C511 1.391 . S
C510 C512 1.394 . S
C510 H526 0.931 . S
C511 C510 1.391 . S
C511 C515 1.376 . S
C512 C510 1.394 . S
C512 C513 1.369 . S
C512 C516 1.531 . S
C513 C512 1.369 . S
C513 C514 1.410 . S
C513 C521 1.503 . S
C514 C513 1.410 . S
C514 C515 1.392 . S
C514 C517 1.511 . S
C515 C511 1.376 . S
C515 C514 1.392 . S
C515 H527 0.929 . S
C516 C512 1.531 . S
C516 H528 0.960 . S
C516 H529 0.962 . S
C516 H530 0.960 . S
C517 C514 1.511 . S
C517 H531 0.961 . S
C517 H532 0.961 . S
C517 H533 0.961 . S
C518 C519 1.370 . S
C518 C520 1.363 . S
C518 H534 0.931 . S
C519 C518 1.370 . S
C519 C523 1.408 . S
C520 C518 1.363 . S
C520 C521 1.370 . S
C520 C524 1.524 . S
C521 C513 1.503 . S
C521 C520 1.370 . S
C521 C522 1.403 . S
C522 C521 1.403 . S
C522 C523 1.404 . S
C522 C525 1.539 . S
C523 C519 1.408 . S
C523 C522 1.404 . S
C523 H535 0.930 . S
C524 C520 1.524 . S
C524 H536 0.956 . S
C524 H537 0.961 . S
C524 H538 0.961 . S
C525 C522 1.539 . S
C525 H539 0.958 . S
C525 H540 0.961 . S
C525 H541 0.960 . S
H526 C510 0.931 . S
H527 C515 0.929 . S
H528 C516 0.960 . S
H529 C516 0.962 . S
H530 C516 0.960 . S
H531 C517 0.961 . S
H532 C517 0.961 . S
H533 C517 0.961 . S
H534 C518 0.931 . S
H535 C523 0.930 . S
H536 C524 0.956 . S
H537 C524 0.961 . S
H538 C524 0.961 . S
H539 C525 0.958 . S
H540 C525 0.961 . S
H541 C525 0.960 . S
C542 C543 1.391 . S
C542 C544 1.394 . S
C542 H558 0.931 . S
C543 C542 1.391 . S
C543 C547 1.376 . S
C544 C542 1.394 . S
C544 C545 1.369 . S
C544 C548 1.531 . S
C545 C544 1.369 . S
C545 C546 1.410 . S
C545 C553 1.503 . S
C546 C545 1.410 . S
C546 C547 1.392 . S
C546 C549 1.511 . S
C547 C543 1.376 . S
C547 C546 1.392 . S
C547 H559 0.929 . S
C548 C544 1.531 . S
C548 H560 0.960 . S
C548 H561 0.962 . S
C548 H562 0.960 . S
C549 C546 1.511 . S
C549 H563 0.961 . S
C549 H564 0.961 . S
C549 H565 0.961 . S
C550 C551 1.370 . S
C550 C552 1.363 . S
C550 H566 0.931 . S
C551 C550 1.370 . S
C551 C555 1.408 . S
C552 C550 1.363 . S
C552 C553 1.370 . S
C552 C556 1.524 . S
C553 C545 1.503 . S
C553 C552 1.370 . S
C553 C554 1.403 . S
C554 C553 1.403 . S
C554 C555 1.404 . S
C554 C557 1.539 . S
C555 C551 1.408 . S
C555 C554 1.404 . S
C555 H567 0.930 . S
C556 C552 1.524 . S
C556 H568 0.956 . S
C556 H569 0.961 . S
C556 H570 0.961 . S
C557 C554 1.539 . S
C557 H571 0.958 . S
C557 H572 0.961 . S
C557 H573 0.960 . S
H558 C542 0.931 . S
H559 C547 0.929 . S
H560 C548 0.960 . S
H561 C548 0.962 . S
H562 C548 0.960 . S
H563 C549 0.961 . S
H564 C549 0.961 . S
H565 C549 0.961 . S
H566 C550 0.931 . S
H567 C555 0.930 . S
H568 C556 0.956 . S
H569 C556 0.961 . S
H570 C556 0.961 . S
H571 C557 0.958 . S
H572 C557 0.961 . S
H573 C557 0.960 . S
C574 C575 1.391 . S
C574 C576 1.394 . S
C574 H590 0.931 . S
C575 C574 1.391 . S
C575 C579 1.376 . S
C576 C574 1.394 . S
C576 C577 1.369 . S
C576 C580 1.531 . S
C577 C576 1.369 . S
C577 C578 1.410 . S
C577 C585 1.503 . S
C578 C577 1.410 . S
C578 C579 1.392 . S
C578 C581 1.511 . S
C579 C575 1.376 . S
C579 C578 1.392 . S
C579 H591 0.929 . S
C580 C576 1.531 . S
C580 H592 0.960 . S
C580 H593 0.962 . S
C580 H594 0.960 1_556 S
C581 C578 1.511 . S
C581 H595 0.961 . S
C581 H596 0.961 . S
C581 H597 0.961 . S
C582 C583 1.370 . S
C582 C584 1.363 . S
C582 H598 0.931 . S
C583 C582 1.370 . S
C583 C587 1.408 . S
C584 C582 1.363 . S
C584 C585 1.370 . S
C584 C588 1.524 . S
C585 C577 1.503 . S
C585 C584 1.370 . S
C585 C586 1.403 . S
C586 C585 1.403 . S
C586 C587 1.404 . S
C586 C589 1.539 . S
C587 C583 1.408 . S
C587 C586 1.404 . S
C587 H599 0.930 . S
C588 C584 1.524 . S
C588 H600 0.956 . S
C588 H601 0.961 . S
C588 H602 0.961 . S
C589 C586 1.539 . S
C589 H603 0.958 1_556 S
C589 H604 0.961 . S
C589 H605 0.960 . S
H590 C574 0.931 . S
H591 C579 0.929 . S
H592 C580 0.960 . S
H593 C580 0.962 . S
H594 C580 0.960 1_554 S
H595 C581 0.961 . S
H596 C581 0.961 . S
H597 C581 0.961 . S
H598 C582 0.931 . S
H599 C587 0.930 . S
H600 C588 0.956 . S
H601 C588 0.961 . S
H602 C588 0.961 . S
H603 C589 0.958 1_554 S
H604 C589 0.961 . S
H605 C589 0.960 . S
C606 C607 1.391 . S
C606 C608 1.394 . S
C606 H622 0.931 . S
C607 C606 1.391 . S
C607 C611 1.376 . S
C608 C606 1.394 . S
C608 C609 1.369 . S
C608 C612 1.531 . S
C609 C608 1.369 . S
C609 C610 1.410 . S
C609 C617 1.503 . S
C610 C609 1.410 . S
C610 C611 1.392 . S
C610 C613 1.511 . S
C611 C607 1.376 . S
C611 C610 1.392 . S
C611 H623 0.929 . S
C612 C608 1.531 . S
C612 H624 0.960 . S
C612 H625 0.962 . S
C612 H626 0.960 . S
C613 C610 1.511 . S
C613 H627 0.961 . S
C613 H628 0.961 . S
C613 H629 0.961 . S
C614 C615 1.370 . S
C614 C616 1.363 . S
C614 H630 0.931 . S
C615 C614 1.370 . S
C615 C619 1.408 . S
C616 C614 1.363 . S
C616 C617 1.370 . S
C616 C620 1.524 . S
C617 C609 1.503 . S
C617 C616 1.370 . S
C617 C618 1.403 . S
C618 C617 1.403 . S
C618 C619 1.404 . S
C618 C621 1.539 . S
C619 C615 1.408 . S
C619 C618 1.404 . S
C619 H631 0.930 1_554 S
C620 C616 1.524 . S
C620 H632 0.956 . S
C620 H633 0.961 . S
C620 H634 0.961 . S
C621 C618 1.539 . S
C621 H635 0.958 1_554 S
C621 H636 0.961 1_554 S
C621 H637 0.960 . S
H622 C606 0.931 . S
H623 C611 0.929 . S
H624 C612 0.960 . S
H625 C612 0.962 . S
H626 C612 0.960 . S
H627 C613 0.961 . S
H628 C613 0.961 . S
H629 C613 0.961 . S
H630 C614 0.931 . S
H631 C619 0.930 1_556 S
H632 C620 0.956 . S
H633 C620 0.961 . S
H634 C620 0.961 . S
H635 C621 0.958 1_556 S
H636 C621 0.961 1_556 S
H637 C621 0.960 . S
C638 C639 1.391 . S
C638 C640 1.394 . S
C638 H654 0.931 . S
C639 C638 1.391 . S
C639 C643 1.376 . S
C640 C638 1.394 . S
C640 C641 1.369 . S
C640 C644 1.531 . S
C641 C640 1.369 . S
C641 C642 1.410 . S
C641 C649 1.503 . S
C642 C641 1.410 . S
C642 C643 1.392 . S
C642 C645 1.511 . S
C643 C639 1.376 . S
C643 C642 1.392 . S
C643 H655 0.929 . S
C644 C640 1.531 . S
C644 H656 0.960 . S
C644 H657 0.962 . S
C644 H658 0.960 . S
C645 C642 1.511 . S
C645 H659 0.961 . S
C645 H660 0.961 . S
C645 H661 0.961 . S
C646 C647 1.370 . S
C646 C648 1.363 . S
C646 H662 0.931 . S
C647 C646 1.370 . S
C647 C651 1.408 . S
C648 C646 1.363 . S
C648 C649 1.370 . S
C648 C652 1.524 . S
C649 C641 1.503 . S
C649 C648 1.370 . S
C649 C650 1.403 . S
C650 C649 1.403 . S
C650 C651 1.404 . S
C650 C653 1.539 . S
C651 C647 1.408 . S
C651 C650 1.404 . S
C651 H663 0.930 . S
C652 C648 1.524 . S
C652 H664 0.956 . S
C652 H665 0.961 . S
C652 H666 0.961 . S
C653 C650 1.539 . S
C653 H667 0.958 . S
C653 H668 0.961 . S
C653 H669 0.960 . S
H654 C638 0.931 . S
H655 C643 0.929 . S
H656 C644 0.960 . S
H657 C644 0.962 . S
H658 C644 0.960 . S
H659 C645 0.961 . S
H660 C645 0.961 . S
H661 C645 0.961 . S
H662 C646 0.931 . S
H663 C651 0.930 . S
H664 C652 0.956 . S
H665 C652 0.961 . S
H666 C652 0.961 . S
H667 C653 0.958 . S
H668 C653 0.961 . S
H669 C653 0.960 . S
C670 C671 1.391 . S
C670 C672 1.394 . S
C670 H686 0.931 . S
C671 C670 1.391 . S
C671 C675 1.376 . S
C672 C670 1.394 . S
C672 C673 1.369 . S
C672 C676 1.531 . S
C673 C672 1.369 . S
C673 C674 1.410 . S
C673 C681 1.503 . S
C674 C673 1.410 . S
C674 C675 1.392 . S
C674 C677 1.511 1_556 S
C675 C671 1.376 . S
C675 C674 1.392 . S
C675 H687 0.929 1_556 S
C676 C672 1.531 . S
C676 H688 0.960 . S
C676 H689 0.962 . S
C676 H690 0.960 . S
C677 C674 1.511 1_554 S
C677 H691 0.961 . S
C677 H692 0.961 1_554 S
C677 H693 0.961 . S
C678 C679 1.370 . S
C678 C680 1.363 . S
C678 H694 0.931 . S
C679 C678 1.370 . S
C679 C683 1.408 . S
C680 C678 1.363 . S
C680 C681 1.370 . S
C680 C684 1.524 . S
C681 C673 1.503 . S
C681 C680 1.370 . S
C681 C682 1.403 . S
C682 C681 1.403 . S
C682 C683 1.404 . S
C682 C685 1.539 . S
C683 C679 1.408 . S
C683 C682 1.404 . S
C683 H695 0.930 . S
C684 C680 1.524 . S
C684 H696 0.956 . S
C684 H697 0.961 . S
C684 H698 0.961 . S
C685 C682 1.539 . S
C685 H699 0.958 . S
C685 H700 0.961 . S
C685 H701 0.960 . S
H686 C670 0.931 . S
H687 C675 0.929 1_554 S
H688 C676 0.960 . S
H689 C676 0.962 . S
H690 C676 0.960 . S
H691 C677 0.961 . S
H692 C677 0.961 1_556 S
H693 C677 0.961 . S
H694 C678 0.931 . S
H695 C683 0.930 . S
H696 C684 0.956 . S
H697 C684 0.961 . S
H698 C684 0.961 . S
H699 C685 0.958 . S
H700 C685 0.961 . S
H701 C685 0.960 . S
C127 C121 1.365 . S
C135 C15 1.455 . S
C159 C16 1.327 . S
C167 C36 1.444 . S
C191 C37 1.410 . S
C199 C57 1.464 . S
C223 C58 1.408 . S
C231 C78 1.464 . S
C255 C99 1.476 . S
C263 C79 1.393 . S
C287 C120 1.451 . S
C295 C100 1.370 . S
C319 C17 1.194 . S
C327 C18 1.144 . S
C351 C38 1.174 . S
C359 C39 1.145 . S
C383 C59 1.195 . S
C391 C60 1.143 . S
C415 C80 1.137 . S
C423 C81 1.164 . S
C447 C102 1.179 . S
C455 C101 1.155 . S
C479 C122 1.137 . S
C487 C123 1.171 . S
C511 C14 1.308 . S
C519 C97 1.183 . S
C543 C35 1.353 . S
C551 C118 1.197 . S
C575 C13 1.191 . S
C583 C56 1.348 . S
C607 C34 1.230 . S
C615 C77 1.322 . S
C639 C98 1.317 . S
C647 C55 1.229 . S
C671 C76 1.180 . S
C679 C119 1.315 . S
