# Generated by pormake.
# Topology utj, (3)-cn, num edge types: 1
# Building blocks:
#     Node 0, Type 0, BuildingBlock: WUSLED_clean_sbu_0, # of connection points: 3
#     Node 1, Type 0, BuildingBlock: WUSLED_clean_sbu_0, # of connection points: 3
#     Node 2, Type 0, BuildingBlock: WUSLED_clean_sbu_0, # of connection points: 3
#     Node 3, Type 0, BuildingBlock: WUSLED_clean_sbu_0, # of connection points: 3
#     Node 4, Type 0, BuildingBlock: WUSLED_clean_sbu_0, # of connection points: 3
#     Node 5, Type 0, BuildingBlock: WUSLED_clean_sbu_0, # of connection points: 3
#     Node 6, Type 0, BuildingBlock: WUSLED_clean_sbu_0, # of connection points: 3
#     Node 7, Type 0, BuildingBlock: WUSLED_clean_sbu_0, # of connection points: 3
#     Node 8, Type 0, BuildingBlock: WUSLED_clean_sbu_0, # of connection points: 3
#     Node 9, Type 0, BuildingBlock: WUSLED_clean_sbu_0, # of connection points: 3
#     Node 10, Type 0, BuildingBlock: WUSLED_clean_sbu_0, # of connection points: 3
#     Node 11, Type 0, BuildingBlock: WUSLED_clean_sbu_0, # of connection points: 3
#     Node 12, Type 0, BuildingBlock: WUSLED_clean_sbu_0, # of connection points: 3
#     Node 13, Type 0, BuildingBlock: WUSLED_clean_sbu_0, # of connection points: 3
#     Node 14, Type 0, BuildingBlock: WUSLED_clean_sbu_0, # of connection points: 3
#     Node 15, Type 0, BuildingBlock: WUSLED_clean_sbu_0, # of connection points: 3
#     Edge 16, Type (0, 0), BuildingBlock: XIVTED_clean_linker_0, # of connection points: 2
#     Edge 17, Type (0, 0), BuildingBlock: XIVTED_clean_linker_0, # of connection points: 2
#     Edge 18, Type (0, 0), BuildingBlock: XIVTED_clean_linker_0, # of connection points: 2
#     Edge 19, Type (0, 0), BuildingBlock: XIVTED_clean_linker_0, # of connection points: 2
#     Edge 20, Type (0, 0), BuildingBlock: XIVTED_clean_linker_0, # of connection points: 2
#     Edge 21, Type (0, 0), BuildingBlock: XIVTED_clean_linker_0, # of connection points: 2
#     Edge 22, Type (0, 0), BuildingBlock: XIVTED_clean_linker_0, # of connection points: 2
#     Edge 23, Type (0, 0), BuildingBlock: XIVTED_clean_linker_0, # of connection points: 2
#     Edge 24, Type (0, 0), BuildingBlock: XIVTED_clean_linker_0, # of connection points: 2
#     Edge 25, Type (0, 0), BuildingBlock: XIVTED_clean_linker_0, # of connection points: 2
#     Edge 26, Type (0, 0), BuildingBlock: XIVTED_clean_linker_0, # of connection points: 2
#     Edge 27, Type (0, 0), BuildingBlock: XIVTED_clean_linker_0, # of connection points: 2
#     Edge 28, Type (0, 0), BuildingBlock: XIVTED_clean_linker_0, # of connection points: 2
#     Edge 29, Type (0, 0), BuildingBlock: XIVTED_clean_linker_0, # of connection points: 2
#     Edge 30, Type (0, 0), BuildingBlock: XIVTED_clean_linker_0, # of connection points: 2
#     Edge 31, Type (0, 0), BuildingBlock: XIVTED_clean_linker_0, # of connection points: 2
#     Edge 32, Type (0, 0), BuildingBlock: XIVTED_clean_linker_0, # of connection points: 2
#     Edge 33, Type (0, 0), BuildingBlock: XIVTED_clean_linker_0, # of connection points: 2
#     Edge 34, Type (0, 0), BuildingBlock: XIVTED_clean_linker_0, # of connection points: 2
#     Edge 35, Type (0, 0), BuildingBlock: XIVTED_clean_linker_0, # of connection points: 2
#     Edge 36, Type (0, 0), BuildingBlock: XIVTED_clean_linker_0, # of connection points: 2
#     Edge 37, Type (0, 0), BuildingBlock: XIVTED_clean_linker_0, # of connection points: 2
#     Edge 38, Type (0, 0), BuildingBlock: XIVTED_clean_linker_0, # of connection points: 2
#     Edge 39, Type (0, 0), BuildingBlock: XIVTED_clean_linker_0, # of connection points: 2
# Relax obj value: 0.003
# Max RMSD: 0.009
# Mean RMSD: 0.009
data_MOF--net-utj--node1-WUSLED_clean_sbu_0--edge1-XIVTED_clean_linker_0
_symmetry_space_group_name_H-M    P1
_symmetry_Int_Tables_number       1
_symmetry_cell_setting            triclinic
loop_
_symmetry_equiv_pos_as_xyz
'x, y, z'
_cell_length_a     75.503604
_cell_length_b     75.789633
_cell_length_c     64.243951
_cell_angle_alpha  89.855638
_cell_angle_beta   89.976334
_cell_angle_gamma 90.021305
loop_
_atom_site_label
_atom_site_type_symbol
_atom_site_fract_x
_atom_site_fract_y
_atom_site_fract_z
_atom_type_partial_charge
C0 C 0.06869 0.43411 0.05916 0.0
C1 C 0.06754 0.44847 0.07282 0.0
C2 C 0.05214 0.46568 0.04636 0.0
C3 C 0.05934 0.46412 0.06648 0.0
C4 C 0.05347 0.45125 0.03268 0.0
C5 C 0.06167 0.43559 0.03906 0.0
U6 U 0.09125 0.40743 0.10125 0.0
O7 O 0.0873 0.38005 0.11153 0.0
O8 O 0.11329 0.38844 0.09979 0.0
C9 C 0.10326 0.37516 0.1057 0.0
C10 C 0.07686 0.4175 0.066 0.0
C11 C 0.10392 0.35949 0.09229 0.0
C12 C 0.09362 0.34316 0.06214 0.0
C13 C 0.0933 0.35836 0.07443 0.0
C14 C 0.11553 0.33025 0.08514 0.0
C15 C 0.10468 0.32889 0.06741 0.0
C16 C 0.11511 0.34542 0.09749 0.0
C17 C 0.09852 0.43067 0.1538 0.0
C18 C 0.10359 0.41639 0.18719 0.0
C19 C 0.10553 0.44821 0.18422 0.0
C20 C 0.10173 0.44708 0.16301 0.0
C21 C 0.10612 0.43292 0.19668 0.0
C22 C 0.0998 0.41527 0.16589 0.0
C23 C 0.09276 0.43014 0.13196 0.0
O24 O 0.09398 0.41828 0.0696 0.0
O25 O 0.0681 0.40901 0.08059 0.0
O26 O 0.07884 0.42026 0.12812 0.0
O27 O 0.10533 0.42861 0.11792 0.0
H28 H 0.07294 0.44754 0.08841 0.0
H29 H 0.05878 0.47504 0.0773 0.0
H30 H 0.04789 0.45193 1.01718 0.0
H31 H 0.06239 0.42458 0.02836 0.0
H32 H 0.0853 0.34262 0.04843 0.0
H33 H 0.08467 0.36918 0.07009 0.0
H34 H 0.12406 0.31943 0.08972 0.0
H35 H 0.12341 0.34609 0.11123 0.0
H36 H 0.10385 0.40438 0.19635 0.0
H37 H 0.10775 0.46111 0.19095 0.0
H38 H 0.10088 0.45909 0.15387 0.0
H39 H 0.09738 0.40246 0.15899 0.0
C40 C 0.11313 0.06737 0.56068 0.0
C41 C 0.09904 0.0655 0.57475 0.0
C42 C 0.0815 0.05061 0.54824 0.0
C43 C 0.08336 0.0572 0.56859 0.0
C44 C 0.09567 0.05265 0.53417 0.0
C45 C 0.11135 0.06096 0.54037 0.0
U46 U 0.14103 0.08825 0.6029 0.0
O47 O 0.16896 0.0845 0.61123 0.0
O48 O 0.15953 0.11074 0.60189 0.0
C49 C 0.17328 0.10081 0.6064 0.0
C50 C 0.12979 0.07564 0.56727 0.0
C51 C 0.18861 0.10261 0.59245 0.0
C52 C 0.20491 0.09372 0.5616 0.0
C53 C 0.18976 0.0927 0.57407 0.0
C54 C 0.21766 0.115 0.58537 0.0
C55 C 0.21911 0.10475 0.56721 0.0
C56 C 0.20255 0.11389 0.5979 0.0
C57 C 0.12092 0.09174 0.65766 0.0
C58 C 0.12865 0.11161 0.68595 0.0
C59 C 0.1152 0.08328 0.69352 0.0
C60 C 0.11449 0.07957 0.67227 0.0
C61 C 0.12228 0.09933 0.70061 0.0
C62 C 0.12808 0.10781 0.66464 0.0
C63 C 0.11999 0.08724 0.63538 0.0
O64 O 0.12865 0.09242 0.57227 0.0
O65 O 0.13914 0.06636 0.58062 0.0
O66 O 0.12987 0.07385 0.62962 0.0
O67 O 0.12021 0.10043 0.62203 0.0
H68 H 0.10021 0.0704 0.59052 0.0
H69 H 0.07265 0.05607 0.57973 0.0
H70 H 0.09477 0.04755 0.51848 0.0
H71 H 0.12215 0.06224 0.52935 0.0
H72 H 0.20552 0.08585 0.54756 0.0
H73 H 0.17905 0.084 0.56955 0.0
H74 H 0.22843 0.1235 0.59021 0.0
H75 H 0.20187 0.12161 0.61204 0.0
H76 H 0.13429 0.12403 0.69098 0.0
H77 H 0.10996 0.07367 0.70441 0.0
H78 H 0.10888 0.06713 0.66722 0.0
H79 H 0.13324 0.11739 0.65367 0.0
C80 C 0.48292 0.11084 0.06034 0.0
C81 C 0.48378 0.09663 0.07433 0.0
C82 C 0.49949 0.07904 0.04857 0.0
C83 C 0.49198 0.08087 0.0685 0.0
C84 C 0.49849 0.09334 0.03458 0.0
C85 C 0.49027 0.10911 0.04044 0.0
U86 U 0.46022 0.13821 0.10154 0.0
O87 O 0.46392 0.16584 0.11086 0.0
O88 O 0.43797 0.15691 0.09963 0.0
C89 C 0.4478 0.17039 0.10527 0.0
C90 C 0.47467 0.12755 0.06663 0.0
C91 C 0.4466 0.18609 0.09189 0.0
C92 C 0.45516 0.20241 0.06089 0.0
C93 C 0.45607 0.18715 0.07315 0.0
C94 C 0.43506 0.21555 0.08585 0.0
C95 C 0.44471 0.21685 0.06715 0.0
C96 C 0.43602 0.20031 0.0981 0.0
C97 C 0.45252 0.11703 0.15483 0.0
C98 C 0.44478 0.13366 0.18581 0.0
C99 C 0.4451 0.10169 0.18685 0.0
C100 C 0.45003 0.10129 0.1659 0.0
C101 C 0.44261 0.11787 0.19712 0.0
C102 C 0.44964 0.13323 0.16479 0.0
C103 C 0.4587 0.1163 0.13317 0.0
O104 O 0.45755 0.12677 0.07025 0.0
O105 O 0.4834 0.13636 0.08093 0.0
O106 O 0.47264 0.12606 0.12893 0.0
O107 O 0.44631 0.11724 0.11884 0.0
H108 H 0.47823 0.0978 0.08983 0.0
H109 H 0.49271 0.07023 0.07975 0.0
H110 H 0.50394 0.0923 1.01903 0.0
H111 H 0.48969 0.11996 0.02945 0.0
H112 H 0.46292 0.20302 0.04673 0.0
H113 H 0.46431 0.17625 0.06812 0.0
H114 H 0.42666 0.22627 0.09098 0.0
H115 H 0.42855 0.19965 0.11248 0.0
H116 H 0.44278 0.14632 0.19322 0.0
H117 H 0.44376 0.08931 0.19517 0.0
H118 H 0.45223 0.08867 0.15842 0.0
H119 H 0.45141 0.14553 0.15641 0.0
C120 C 0.43472 0.48182 0.56044 0.0
C121 C 0.44882 0.48365 0.57448 0.0
C122 C 0.46625 0.49882 0.548 0.0
C123 C 0.46444 0.49209 0.56833 0.0
C124 C 0.45207 0.49684 0.53396 0.0
C125 C 0.43643 0.48842 0.54016 0.0
U126 U 0.40843 0.4583 0.60208 0.0
O127 O 0.38071 0.46104 0.61199 0.0
O128 O 0.39033 0.43556 0.60043 0.0
C129 C 0.37655 0.44493 0.60622 0.0
C130 C 0.41822 0.47317 0.56701 0.0
C131 C 0.36092 0.44355 0.59271 0.0
C132 C 0.34492 0.45178 0.56136 0.0
C133 C 0.36006 0.45285 0.57384 0.0
C134 C 0.33147 0.43187 0.58636 0.0
C135 C 0.33039 0.44134 0.56752 0.0
C136 C 0.3466 0.43299 0.59884 0.0
C137 C 0.43158 0.45119 0.65465 0.0
C138 C 0.41703 0.43968 0.68557 0.0
C139 C 0.44831 0.44687 0.68646 0.0
C140 C 0.44756 0.45206 0.66562 0.0
C141 C 0.43305 0.44068 0.69674 0.0
C142 C 0.41631 0.44488 0.66465 0.0
C143 C 0.43112 0.45742 0.63301 0.0
O144 O 0.4195 0.45613 0.5705 0.0
O145 O 0.40935 0.48154 0.58156 0.0
O146 O 0.42056 0.47085 0.62936 0.0
O147 O 0.43023 0.4451 0.61869 0.0
H148 H 0.44772 0.47857 0.59021 0.0
H149 H 0.47517 0.49315 0.57943 0.0
H150 H 0.45295 0.50204 0.51828 0.0
H151 H 0.42564 0.48714 0.52915 0.0
H152 H 0.34448 0.45941 0.5471 0.0
H153 H 0.37103 0.46107 0.56888 0.0
H154 H 0.32067 0.42349 0.59142 0.0
H155 H 0.3471 0.42566 0.61333 0.0
H156 H 0.40509 0.43483 0.69297 0.0
H157 H 0.46078 0.44811 0.69465 0.0
H158 H 0.45944 0.45699 0.65814 0.0
H159 H 0.40386 0.44411 0.65633 0.0
C160 C 0.06597 0.11282 0.99014 0.0
C161 C 0.06479 0.09854 0.97637 0.0
C162 C 0.04941 0.08118 1.00275 0.0
C163 C 0.05659 0.08286 0.98261 0.0
C164 C 0.05068 0.09558 1.01649 0.0
C165 C 0.05891 0.11127 1.01021 0.0
U166 U 0.08959 0.1392 0.9486 0.0
O167 O 0.08651 0.16671 0.93838 0.0
O168 O 0.1121 0.15761 0.95054 0.0
C169 C 0.10252 0.17115 0.94446 0.0
C170 C 0.07444 0.12936 0.9835 0.0
C171 C 0.10349 0.18682 0.95785 0.0
C172 C 0.09344 0.20346 0.98789 0.0
C173 C 0.09277 0.18826 0.97561 0.0
C174 C 0.11586 0.21575 0.96505 0.0
C175 C 0.10493 0.21742 0.98269 0.0
C176 C 0.1151 0.20058 0.95272 0.0
C177 C 0.09765 0.11609 0.89633 0.0
C178 C 0.10875 0.13079 0.86529 0.0
C179 C 0.10291 0.09934 0.86482 0.0
C180 C 0.09755 0.10005 0.8856 0.0
C181 C 0.10849 0.1147 0.85436 0.0
C182 C 0.10339 0.13147 0.88615 0.0
C183 C 0.09118 0.1165 0.91786 0.0
O184 O 0.09161 0.12835 0.98031 0.0
O185 O 0.06605 0.13797 0.96872 0.0
O186 O 0.07748 0.12678 0.92122 0.0
O187 O 0.10339 0.11765 0.93238 0.0
H188 H 0.07015 0.09956 0.96076 0.0
H189 H 0.05563 0.07215 0.97154 0.0
H190 H 0.0455 0.09466 0.03217 0.0
H191 H 0.05975 0.12218 1.02104 0.0
H192 H 0.08504 0.20424 1.00152 0.0
H193 H 0.08381 0.17768 0.97989 0.0
H194 H 0.12472 0.22632 0.96052 0.0
H195 H 0.12347 0.19967 0.93907 0.0
H196 H 0.11312 0.14282 0.85775 0.0
H197 H 0.10225 0.0868 0.85681 0.0
H198 H 0.09308 0.08808 0.89322 0.0
H199 H 0.10356 0.14398 0.89428 0.0
C200 C 0.43776 0.0655 0.48879 0.0
C201 C 0.44714 0.05466 0.4749 0.0
C202 C 0.46954 0.04902 0.50133 0.0
C203 C 0.46282 0.04641 0.48117 0.0
C204 C 0.46026 0.06007 0.51509 0.0
C205 C 0.44446 0.06818 0.50889 0.0
U206 U 0.41002 0.08862 0.4477 0.0
O207 O 0.38212 0.08547 0.43888 0.0
O208 O 0.39165 0.11111 0.45007 0.0
C209 C 0.37787 0.10152 0.44476 0.0
C210 C 0.42116 0.07421 0.48244 0.0
C211 C 0.36244 0.10272 0.45863 0.0
C212 C 0.34596 0.09265 0.48889 0.0
C213 C 0.36113 0.09202 0.47642 0.0
C214 C 0.33349 0.11505 0.46626 0.0
C215 C 0.3319 0.10407 0.48385 0.0
C216 C 0.34863 0.11434 0.45374 0.0
C217 C 0.43051 0.09551 0.39379 0.0
C218 C 0.41367 0.10245 0.36262 0.0
C219 C 0.44575 0.10326 0.3618 0.0
C220 C 0.44625 0.09848 0.3828 0.0
C221 C 0.42946 0.1051 0.35139 0.0
C222 C 0.41419 0.09775 0.38369 0.0
C223 C 0.43143 0.08952 0.41553 0.0
O224 O 0.42238 0.09122 0.47863 0.0
O225 O 0.41159 0.06571 0.46861 0.0
O226 O 0.42146 0.07584 0.42018 0.0
O227 O 0.43097 0.10199 0.4297 0.0
H228 H 0.44237 0.05258 0.4592 0.0
H229 H 0.46981 0.03817 0.47014 0.0
H230 H 0.46507 0.06223 0.53076 0.0
H231 H 0.43746 0.07654 0.51979 0.0
H232 H 0.34524 0.0842 0.50249 0.0
H233 H 0.37175 0.08305 0.48051 0.0
H234 H 0.32283 0.12386 0.46186 0.0
H235 H 0.34943 0.12268 0.44005 0.0
H236 H 0.40092 0.10396 0.35509 0.0
H237 H 0.45815 0.10499 0.35355 0.0
H238 H 0.45896 0.09679 0.39038 0.0
H239 H 0.40188 0.09561 0.392 0.0
C240 C 0.48058 0.43547 0.9907 0.0
C241 C 0.48247 0.44946 0.97654 0.0
C242 C 0.49656 0.46736 1.00328 0.0
C243 C 0.49038 0.46527 0.98277 0.0
C244 C 0.4945 0.45329 1.01744 0.0
C245 C 0.48658 0.43748 1.01118 0.0
U246 U 0.46083 0.4073 0.94812 0.0
O247 O 0.46519 0.37952 0.93997 0.0
O248 O 0.43853 0.38854 0.94845 0.0
C249 C 0.44876 0.375 0.94417 0.0
C250 C 0.4727 0.41869 0.98403 0.0
C251 C 0.44679 0.35958 0.95787 0.0
C252 C 0.45382 0.34383 0.98978 0.0
C253 C 0.45506 0.35899 0.9774 0.0
C254 C 0.4357 0.32987 0.96341 0.0
C255 C 0.44427 0.329 0.98285 0.0
C256 C 0.43698 0.34502 0.95104 0.0
C257 C 0.45772 0.42732 0.89328 0.0
C258 C 0.43799 0.41977 0.8647 0.0
C259 C 0.46666 0.43279 0.85752 0.0
C260 C 0.47018 0.43352 0.87883 0.0
C261 C 0.45053 0.42593 0.85021 0.0
C262 C 0.44159 0.42036 0.88607 0.0
C263 C 0.46198 0.42832 0.91565 0.0
O264 O 0.45593 0.41949 0.97863 0.0
O265 O 0.4824 0.40954 0.97094 0.0
O266 O 0.4755 0.41867 0.9217 0.0
O267 O 0.44858 0.42792 0.92874 0.0
H268 H 0.47787 0.44812 0.96064 0.0
H269 H 0.49153 0.4759 0.97155 0.0
H270 H 0.4993 0.45437 0.03327 0.0
H271 H 0.48528 0.42676 1.02227 0.0
H272 H 0.46074 0.34357 1.00455 0.0
H273 H 0.4627 0.37015 0.98291 0.0
H274 H 0.42799 0.31884 0.95773 0.0
H275 H 0.43046 0.34529 0.93602 0.0
H276 H 0.4255 0.4143 0.8595 0.0
H277 H 0.47648 0.43787 0.84677 0.0
H278 H 0.48267 0.43899 0.88406 0.0
H279 H 0.43178 0.41538 0.8969 0.0
C280 C 0.11397 0.47806 0.49118 0.0
C281 C 0.0995 0.47956 0.47762 0.0
C282 C 0.08244 0.49447 0.50453 0.0
C283 C 0.08387 0.48768 0.48422 0.0
C284 C 0.09699 0.49282 0.51809 0.0
C285 C 0.11263 0.48467 0.51145 0.0
U286 U 0.14046 0.45688 0.4481 0.0
O287 O 0.168 0.46085 0.43809 0.0
O288 O 0.15921 0.43464 0.44836 0.0
C289 C 0.17268 0.44466 0.44299 0.0
C290 C 0.13057 0.46998 0.48403 0.0
C291 C 0.1884 0.44323 0.45636 0.0
C292 C 0.20406 0.45042 0.48824 0.0
C293 C 0.18887 0.45148 0.47586 0.0
C294 C 0.21837 0.43262 0.46185 0.0
C295 C 0.21905 0.44104 0.48135 0.0
C296 C 0.20317 0.43372 0.44948 0.0
C297 C 0.117 0.45193 0.39529 0.0
C298 C 0.13164 0.44482 0.36267 0.0
C299 C 0.09979 0.44871 0.36367 0.0
C300 C 0.10066 0.45195 0.38502 0.0
C301 C 0.1153 0.44543 0.35216 0.0
C302 C 0.1325 0.44809 0.3841 0.0
C303 C 0.11758 0.45687 0.41736 0.0
O304 O 0.12958 0.45309 0.47959 0.0
O305 O 0.1392 0.47915 0.46991 0.0
O306 O 0.12775 0.47041 0.42182 0.0
O307 O 0.11898 0.44382 0.43077 0.0
H308 H 0.10037 0.47459 0.46185 0.0
H309 H 0.07303 0.48894 0.47328 0.0
H310 H 0.09626 0.4977 0.53389 0.0
H311 H 0.1237 0.48361 0.52211 0.0
H312 H 0.20418 0.45725 0.50302 0.0
H313 H 0.17754 0.45889 0.48141 0.0
H314 H 0.22954 0.42506 0.45619 0.0
H315 H 0.20298 0.42721 0.43448 0.0
H316 H 0.14382 0.44244 0.35422 0.0
H317 H 0.08697 0.44896 0.35613 0.0
H318 H 0.08857 0.45482 0.39346 0.0
H319 H 0.14524 0.44803 0.39184 0.0
C320 C 0.9756 0.61031 0.99101 0.0
C321 C 0.97649 0.59599 0.97726 0.0
C322 C 0.9913 0.57829 1.00375 0.0
C323 C 0.98426 0.58012 0.98357 0.0
C324 C 0.99017 0.59267 1.01753 0.0
C325 C 0.9824 0.60855 1.01118 0.0
U326 U 0.95518 0.63818 0.94846 0.0
O327 O 0.93377 0.65783 0.94904 0.0
O328 O 0.96045 0.66559 0.93895 0.0
C329 C 0.94437 0.67085 0.94372 0.0
C330 C 0.96811 0.62723 0.98411 0.0
C331 C 0.94344 0.6867 0.9568 0.0
C332 C 0.94404 0.70084 0.99069 0.0
C333 C 0.9447 0.68555 0.97855 0.0
C334 C 0.941 0.71855 0.95942 0.0
C335 C 0.94226 0.71753 0.98124 0.0
C336 C 0.94156 0.70326 0.94733 0.0
C337 C 0.94825 0.61716 0.89514 0.0
C338 C 0.94209 0.63411 0.86383 0.0
C339 C 0.94099 0.60215 0.86295 0.0
C340 C 0.94535 0.60154 0.88407 0.0
C341 C 0.9395 0.61844 0.85252 0.0
C342 C 0.94638 0.63347 0.885 0.0
C343 C 0.95374 0.61618 0.91704 0.0
O344 O 0.97759 0.63561 0.97007 0.0
O345 O 0.9511 0.62701 0.97977 0.0
O346 O 0.94097 0.61769 0.93083 0.0
O347 O 0.96795 0.62535 0.92179 0.0
H348 H 0.97128 0.59714 0.9616 0.0
H349 H 0.98468 0.56925 0.97267 0.0
H350 H 0.99564 0.59179 0.03308 0.0
H351 H 0.98189 0.61953 1.02194 0.0
H352 H 0.94525 0.69964 1.00743 0.0
H353 H 0.94628 0.67285 0.98611 0.0
H354 H 0.93941 0.73116 0.95169 0.0
H355 H 0.94058 0.70436 0.93055 0.0
H356 H 0.94085 0.64684 0.85629 0.0
H357 H 0.93929 0.58985 0.85464 0.0
H358 H 0.94677 0.58884 0.89168 0.0
H359 H 0.94847 0.64568 0.89339 0.0
C360 C 0.93762 0.97344 0.49048 0.0
C361 C 0.95188 0.9748 0.47657 0.0
C362 C 0.9695 0.98966 0.50301 0.0
C363 C 0.96768 0.98283 0.48277 0.0
C364 C 0.95519 0.98806 0.51696 0.0
C365 C 0.93937 0.98004 0.51071 0.0
U366 U 0.90985 0.95257 0.44821 0.0
O367 O 0.89049 0.9309 0.44908 0.0
O368 O 0.88221 0.95732 0.43895 0.0
C369 C 0.87722 0.94123 0.44388 0.0
C370 C 0.92076 0.96567 0.48372 0.0
C371 C 0.86144 0.9401 0.4572 0.0
C372 C 0.84749 0.94088 0.49128 0.0
C373 C 0.86274 0.94163 0.47891 0.0
C374 C 0.82953 0.93718 0.46034 0.0
C375 C 0.8307 0.93875 0.48211 0.0
C376 C 0.84478 0.93783 0.44801 0.0
C377 C 0.93088 0.94606 0.3947 0.0
C378 C 0.91389 0.93936 0.3636 0.0
C379 C 0.94597 0.93943 0.3623 0.0
C380 C 0.94657 0.94377 0.38342 0.0
C381 C 0.92962 0.93737 0.35209 0.0
C382 C 0.91451 0.94362 0.38476 0.0
C383 C 0.93182 0.95153 0.41658 0.0
O384 O 0.91213 0.97495 0.46972 0.0
O385 O 0.92128 0.94873 0.47941 0.0
O386 O 0.93057 0.93878 0.43041 0.0
O387 O 0.92238 0.96551 0.42137 0.0
H388 H 0.95073 0.96974 0.46086 0.0
H389 H 0.9785 0.98361 0.47174 0.0
H390 H 0.95607 0.99336 0.53257 0.0
H391 H 0.92845 0.97916 0.52161 0.0
H392 H 0.84881 0.94233 0.50797 0.0
H393 H 0.87552 0.94352 0.48625 0.0
H394 H 0.81683 0.93532 0.45282 0.0
H395 H 0.84355 0.93664 0.43127 0.0
H396 H 0.9011 0.93766 0.35623 0.0
H397 H 0.95832 0.93821 0.35384 0.0
H398 H 0.95931 0.94563 0.39086 0.0
H399 H 0.90225 0.94525 0.39331 0.0
C400 C 0.57664 0.93497 0.9932 0.0
C401 C 0.57601 0.94956 0.97974 0.0
C402 C 0.56117 0.96692 1.00641 0.0
C403 C 0.56837 0.96539 0.98629 0.0
C404 C 0.562 0.95227 1.0199 0.0
C405 C 0.56968 0.93642 1.01333 0.0
U406 U 0.59599 0.90789 0.94963 0.0
O407 O 0.61737 0.88821 0.94892 0.0
O408 O 0.59044 0.88073 0.93956 0.0
C409 C 0.60659 0.87532 0.9437 0.0
C410 C 0.58393 0.91811 0.98594 0.0
C411 C 0.60773 0.85926 0.95649 0.0
C412 C 0.60723 0.84458 0.99016 0.0
C413 C 0.60654 0.86006 0.97827 0.0
C414 C 0.61022 0.82738 0.9586 0.0
C415 C 0.60898 0.82805 0.98044 0.0
C416 C 0.60961 0.84286 0.94676 0.0
C417 C 0.60103 0.93114 0.89677 0.0
C418 C 0.60634 0.91615 0.86396 0.0
C419 C 0.60509 0.94809 0.86507 0.0
C420 C 0.60216 0.94741 0.88651 0.0
C421 C 0.60688 0.93247 0.85346 0.0
C422 C 0.60341 0.91549 0.88547 0.0
C423 C 0.59644 0.93084 0.91897 0.0
O424 O 0.57413 0.90993 0.9721 0.0
O425 O 0.60084 0.91835 0.98105 0.0
O426 O 0.6097 0.9288 0.932 0.0
O427 O 0.58246 0.92137 0.92387 0.0
H428 H 0.58122 0.94861 0.96406 0.0
H429 H 0.56773 0.97631 0.9754 0.0
H430 H 0.55678 0.95306 0.03558 0.0
H431 H 0.57005 0.92526 1.02389 0.0
H432 H 0.60604 0.84552 1.00692 0.0
H433 H 0.60493 0.87264 0.98604 0.0
H434 H 0.61178 0.81488 0.95066 0.0
H435 H 0.61054 0.84202 0.92995 0.0
H436 H 0.60757 0.90389 0.85545 0.0
H437 H 0.60576 0.96087 0.85753 0.0
H438 H 0.60044 0.95961 0.89503 0.0
H439 H 0.60258 0.90279 0.89321 0.0
C440 C 0.61137 0.57452 0.49128 0.0
C441 C 0.59748 0.5727 0.47695 0.0
C442 C 0.57925 0.55851 0.50344 0.0
C443 C 0.58156 0.56477 0.48298 0.0
C444 C 0.59321 0.56052 0.51778 0.0
C445 C 0.60915 0.56845 0.51172 0.0
U446 U 0.64018 0.59401 0.44893 0.0
O447 O 0.65908 0.61618 0.4494 0.0
O448 O 0.66811 0.58959 0.44108 0.0
C449 C 0.67268 0.60591 0.44539 0.0
C450 C 0.6283 0.58236 0.4848 0.0
C451 C 0.68797 0.60775 0.45938 0.0
C452 C 0.70417 0.59895 0.49037 0.0
C453 C 0.68903 0.59795 0.4779 0.0
C454 C 0.71707 0.62004 0.46632 0.0
C455 C 0.71844 0.60987 0.4846 0.0
C456 C 0.70197 0.61893 0.45379 0.0
C457 C 0.62072 0.59664 0.3938 0.0
C458 C 0.62931 0.61563 0.3649 0.0
C459 C 0.61515 0.58752 0.35819 0.0
C460 C 0.61411 0.58431 0.37956 0.0
C461 C 0.62276 0.6032 0.35061 0.0
C462 C 0.6284 0.61234 0.38634 0.0
C463 C 0.61946 0.59265 0.41622 0.0
O464 O 0.63767 0.57265 0.47195 0.0
O465 O 0.62755 0.59905 0.47922 0.0
O466 O 0.61979 0.60614 0.42907 0.0
O467 O 0.62903 0.57922 0.4226 0.0
H468 H 0.599 0.57735 0.46109 0.0
H469 H 0.57102 0.56367 0.47163 0.0
H470 H 0.59197 0.55565 0.53357 0.0
H471 H 0.61979 0.56969 0.52293 0.0
H472 H 0.70473 0.59115 0.5045 0.0
H473 H 0.67827 0.58932 0.48253 0.0
H474 H 0.72789 0.62845 0.46137 0.0
H475 H 0.70136 0.62658 0.43954 0.0
H476 H 0.63534 0.62777 0.35949 0.0
H477 H 0.60977 0.57781 0.34759 0.0
H478 H 0.6081 0.57216 0.38499 0.0
H479 H 0.63371 0.62202 0.39702 0.0
C480 C 0.97504 0.93538 0.05822 0.0
C481 C 0.97604 0.94973 0.07192 0.0
C482 C 0.99058 0.96741 0.04519 0.0
C483 C 0.98372 0.96561 0.06546 0.0
C484 C 0.98936 0.953 0.03147 0.0
C485 C 0.98165 0.93712 0.03795 0.0
U486 U 0.95505 0.90732 0.10099 0.0
O487 O 0.93365 0.88765 0.10055 0.0
O488 O 0.96043 0.87986 0.11018 0.0
C489 C 0.94433 0.8746 0.10552 0.0
C490 C 0.96763 0.91846 0.06522 0.0
C491 C 0.94335 0.85895 0.09213 0.0
C492 C 0.94409 0.84535 0.05794 0.0
C493 C 0.94471 0.86044 0.07042 0.0
C494 C 0.94085 0.82715 0.08878 0.0
C495 C 0.94221 0.82849 0.06697 0.0
C496 C 0.9414 0.84225 0.10121 0.0
C497 C 0.94858 0.92814 0.15454 0.0
C498 C 0.94242 0.91113 0.18582 0.0
C499 C 0.94176 0.94309 0.18691 0.0
C500 C 0.94599 0.94375 0.16575 0.0
C501 C 0.9401 0.92679 0.19725 0.0
C502 C 0.94657 0.91181 0.1646 0.0
C503 C 0.95389 0.92917 0.13258 0.0
O504 O 0.97727 0.91006 0.0791 0.0
O505 O 0.95067 0.91864 0.06983 0.0
O506 O 0.941 0.92771 0.11895 0.0
O507 O 0.96804 0.92001 0.12761 0.0
H508 H 0.97107 0.94856 0.08769 0.0
H509 H 0.98465 0.97634 0.07651 0.0
H510 H 0.99429 0.95401 1.01568 0.0
H511 H 0.98097 0.92616 0.02719 0.0
H512 H 0.94495 0.84691 0.04121 0.0
H513 H 0.94628 0.87326 0.06314 0.0
H514 H 0.93969 0.8144 0.0963 0.0
H515 H 0.94046 0.84087 0.11797 0.0
H516 H 0.94104 0.89838 0.19328 0.0
H517 H 0.94029 0.95538 0.1953 0.0
H518 H 0.94752 0.95646 0.15821 0.0
H519 H 0.94843 0.89961 0.15611 0.0
C520 C 0.61367 0.97187 0.55768 0.0
C521 C 0.5972 0.96542 0.56448 0.0
C522 C 0.58197 0.98799 0.54426 0.0
C523 C 0.58149 0.97333 0.55771 0.0
C524 C 0.59848 0.99439 0.53746 0.0
C525 C 0.61418 0.98635 0.54406 0.0
U526 U 0.64043 0.95148 0.6015 0.0
O527 O 0.66001 0.93002 0.60185 0.0
O528 O 0.66777 0.95665 0.61166 0.0
C529 C 0.67307 0.9406 0.60708 0.0
C530 C 0.63038 0.96429 0.56546 0.0
C531 C 0.68893 0.93965 0.59385 0.0
C532 C 0.70278 0.94029 0.55972 0.0
C533 C 0.68756 0.94084 0.57212 0.0
C534 C 0.72089 0.93745 0.59068 0.0
C535 C 0.71966 0.93867 0.56885 0.0
C536 C 0.70565 0.93793 0.60304 0.0
C537 C 0.61706 0.94564 0.65418 0.0
C538 C 0.63207 0.94008 0.687 0.0
C539 C 0.60001 0.9411 0.68573 0.0
C540 C 0.60072 0.94426 0.66433 0.0
C541 C 0.61567 0.93933 0.6974 0.0
C542 C 0.63276 0.94324 0.66552 0.0
C543 C 0.61738 0.95061 0.63208 0.0
O544 O 0.63848 0.97379 0.57963 0.0
O545 O 0.63015 0.94733 0.56986 0.0
O546 O 0.61933 0.93763 0.61874 0.0
O547 O 0.62699 0.96455 0.62752 0.0
H548 H 0.59648 0.95441 0.57524 0.0
H549 H 0.56898 0.96826 0.56341 0.0
H550 H 0.59925 1.00557 0.52696 0.0
H551 H 0.62675 0.99158 0.53873 0.0
H552 H 0.70129 0.94102 0.54298 0.0
H553 H 0.67473 0.94224 0.56475 0.0
H554 H 0.73365 0.93647 0.59827 0.0
H555 H 0.70694 0.93711 0.61981 0.0
H556 H 0.64437 0.93888 0.69555 0.0
H557 H 0.58717 0.94027 0.69319 0.0
H558 H 0.58847 0.946 0.65577 0.0
H559 H 0.64552 0.94427 0.65788 0.0
C560 C 0.57283 0.61196 0.0587 0.0
C561 C 0.57124 0.59776 0.07261 0.0
C562 C 0.55665 0.58024 0.04589 0.0
C563 C 0.56322 0.58204 0.06627 0.0
C564 C 0.55844 0.59451 0.03196 0.0
C565 C 0.56645 0.61025 0.03834 0.0
U566 U 0.59451 0.6388 0.10107 0.0
O567 O 0.61663 0.65767 0.10035 0.0
O568 O 0.59036 0.6663 0.11084 0.0
C569 C 0.60655 0.67103 0.10577 0.0
C570 C 0.58082 0.62864 0.06555 0.0
C571 C 0.60782 0.68681 0.0925 0.0
C572 C 0.60721 0.70076 0.05842 0.0
C573 C 0.60631 0.68557 0.07079 0.0
C574 C 0.61103 0.71857 0.08936 0.0
C575 C 0.60952 0.71748 0.06756 0.0
C576 C 0.6102 0.70337 0.10169 0.0
C577 C 0.60127 0.6161 0.15386 0.0
C578 C 0.6121 0.63119 0.18466 0.0
C579 C 0.6054 0.59993 0.1861 0.0
C580 C 0.60049 0.60032 0.16516 0.0
C581 C 0.61121 0.61537 0.19615 0.0
C582 C 0.60719 0.63155 0.16364 0.0
C583 C 0.59547 0.6162 0.13207 0.0
O584 O 0.57177 0.63714 0.07982 0.0
O585 O 0.59788 0.62793 0.06958 0.0
O586 O 0.60812 0.61753 0.11809 0.0
O587 O 0.58168 0.62618 0.12796 0.0
H588 H 0.57615 0.59886 0.08841 0.0
H589 H 0.56229 0.57125 0.0773 0.0
H590 H 0.55336 0.59364 1.01624 0.0
H591 H 0.56754 0.62113 0.02744 0.0
H592 H 0.60622 0.69938 0.04169 0.0
H593 H 0.6044 0.67286 0.06342 0.0
H594 H 0.61252 0.73122 0.09698 0.0
H595 H 0.61127 0.70456 0.11845 0.0
H596 H 0.61666 0.64327 0.19188 0.0
H597 H 0.60426 0.5876 0.19454 0.0
H598 H 0.59588 0.5883 0.15784 0.0
H599 H 0.60788 0.64386 0.15507 0.0
C600 C 0.93799 0.572 0.55957 0.0
C601 C 0.95225 0.57057 0.57346 0.0
C602 C 0.96965 0.55533 0.5471 0.0
C603 C 0.96795 0.56232 0.56728 0.0
C604 C 0.95531 0.55694 0.53321 0.0
C605 C 0.93961 0.56521 0.53942 0.0
U606 U 0.91058 0.59413 0.60135 0.0
O607 O 0.89167 0.61622 0.59963 0.0
O608 O 0.88289 0.59024 0.61077 0.0
C609 C 0.8782 0.60627 0.60516 0.0
C610 C 0.9213 0.58019 0.5662 0.0
C611 C 0.86252 0.60733 0.59166 0.0
C612 C 0.84567 0.59725 0.56178 0.0
C613 C 0.861 0.59663 0.57396 0.0
C614 C 0.83346 0.61963 0.58451 0.0
C615 C 0.83167 0.60867 0.567 0.0
C616 C 0.84875 0.61893 0.59676 0.0
C617 C 0.93156 0.60105 0.65482 0.0
C618 C 0.91467 0.60757 0.68606 0.0
C619 C 0.94676 0.60824 0.68697 0.0
C620 C 0.94729 0.60379 0.66588 0.0
C621 C 0.93045 0.60997 0.69737 0.0
C622 C 0.91523 0.60321 0.66492 0.0
C623 C 0.93246 0.59528 0.63304 0.0
O624 O 0.91247 0.57132 0.58042 0.0
O625 O 0.92217 0.59719 0.57011 0.0
O626 O 0.93149 0.60784 0.61895 0.0
O627 O 0.92279 0.58139 0.62849 0.0
H628 H 0.95116 0.57569 0.58914 0.0
H629 H 0.97862 0.56112 0.57845 0.0
H630 H 0.95625 0.55192 0.51748 0.0
H631 H 0.92872 0.56623 0.5285 0.0
H632 H 0.84478 0.58882 0.54823 0.0
H633 H 0.87158 0.58769 0.56971 0.0
H634 H 0.82286 0.62844 0.58906 0.0
H635 H 0.84973 0.62728 0.61037 0.0
H636 H 0.90191 0.60901 0.69358 0.0
H637 H 0.95914 0.60978 0.69527 0.0
H638 H 0.96001 0.60215 0.65831 0.0
H639 H 0.90293 0.60124 0.65655 0.0
H640 H 0.12601 0.41209 0.22305 0.0
H641 H 0.09561 0.46489 0.32487 0.0
H642 H 0.09095 0.45705 0.22264 0.0
H643 H 0.13297 0.42185 0.32699 0.0
H644 H 0.0937 0.46166 0.28728 0.0
H645 H 0.12869 0.41486 0.26097 0.0
C646 C 0.11887 0.42252 0.23092 0.0
C647 C 0.10832 0.43442 0.21961 0.0
C648 C 0.10233 0.45288 0.2959 0.0
C649 C 0.11136 0.43769 0.26291 0.0
C650 C 0.10333 0.45465 0.31743 0.0
C651 C 0.11435 0.44352 0.32916 0.0
C652 C 0.1124 0.43987 0.28585 0.0
C653 C 0.12437 0.43076 0.31855 0.0
C654 C 0.12048 0.42414 0.25253 0.0
C655 C 0.09948 0.44776 0.23061 0.0
N656 N 0.12311 0.42923 0.29748 0.0
N657 N 0.10118 0.449 0.25158 0.0
H658 H 0.1132 0.13003 0.72054 0.0
H659 H 0.12772 0.08916 0.83438 0.0
H660 H 0.13245 0.07734 0.73222 0.0
H661 H 0.10043 0.13832 0.8232 0.0
H662 H 0.13317 0.08651 0.79708 0.0
H663 H 0.11215 0.13519 0.75817 0.0
C664 C 0.11739 0.11963 0.73102 0.0
C665 C 0.12277 0.10318 0.72325 0.0
C666 C 0.12607 0.09794 0.80278 0.0
C667 C 0.12154 0.10895 0.76626 0.0
C668 C 0.12289 0.09943 0.82409 0.0
C669 C 0.1134 0.11388 0.83195 0.0
C670 C 0.11975 0.11099 0.78914 0.0
C671 C 0.10786 0.12698 0.81788 0.0
C672 C 0.1167 0.12254 0.75248 0.0
C673 C 0.12794 0.09012 0.73754 0.0
N674 N 0.111 0.12516 0.79714 0.0
N675 N 0.12714 0.09326 0.75832 0.0
H676 H 0.40837 0.09015 0.32154 0.0
H677 H 0.45667 0.13956 0.22693 0.0
H678 H 0.44981 0.12877 0.32953 0.0
H679 H 0.41953 0.09682 0.21894 0.0
H680 H 0.4516 0.13836 0.26447 0.0
H681 H 0.40959 0.09502 0.28394 0.0
C682 C 0.41757 0.09983 0.31541 0.0
C683 C 0.42908 0.10899 0.32871 0.0
C684 C 0.44448 0.12931 0.2545 0.0
C685 C 0.43069 0.11448 0.28563 0.0
C686 C 0.44727 0.13007 0.23304 0.0
C687 C 0.43859 0.1182 0.21976 0.0
C688 C 0.43288 0.11661 0.2628 0.0
C689 C 0.42672 0.10604 0.22862 0.0
C690 C 0.41834 0.10251 0.29393 0.0
C691 C 0.44088 0.12121 0.31985 0.0
N692 N 0.42427 0.10551 0.24957 0.0
N693 N 0.44143 0.12355 0.29887 0.0
H694 H 0.47276 0.41551 0.81897 0.0
H695 H 0.40873 0.44773 0.72748 0.0
H696 H 0.42001 0.43535 0.8298 0.0
H697 H 0.45935 0.42276 0.71725 0.0
H698 H 0.41172 0.44189 0.76478 0.0
H699 H 0.46741 0.41692 0.78154 0.0
C700 C 0.46002 0.42014 0.81345 0.0
C701 C 0.44687 0.42547 0.82751 0.0
C702 C 0.42211 0.43757 0.75435 0.0
C703 C 0.4406 0.4271 0.78461 0.0
C704 C 0.42036 0.44081 0.73302 0.0
C705 C 0.43389 0.43588 0.71919 0.0
C706 C 0.43751 0.42939 0.76193 0.0
C707 C 0.44875 0.42713 0.72734 0.0
C708 C 0.45694 0.42086 0.79207 0.0
C709 C 0.4305 0.43106 0.81949 0.0
N710 N 0.45021 0.42428 0.74815 0.0
N711 N 0.42788 0.43189 0.79856 0.0
H712 H 0.91592 0.59851 0.83013 0.0
H713 H 0.95079 0.63316 0.71975 0.0
H714 H 0.95526 0.63941 0.82305 0.0
H715 H 0.90924 0.59449 0.72684 0.0
H716 H 0.95151 0.6368 0.75754 0.0
H717 H 0.91215 0.59797 0.79235 0.0
C718 C 0.92373 0.60741 0.82062 0.0
C719 C 0.93601 0.61895 0.82977 0.0
C720 C 0.94214 0.62761 0.75083 0.0
C721 C 0.93173 0.61843 0.78647 0.0
C722 C 0.94178 0.62547 0.72926 0.0
C723 C 0.93002 0.61342 0.72012 0.0
C724 C 0.93073 0.61754 0.76342 0.0
C725 C 0.91844 0.60402 0.73319 0.0
C726 C 0.92152 0.60716 0.79905 0.0
C727 C 0.94556 0.63039 0.8167 0.0
N728 N 0.91919 0.60618 0.75417 0.0
N729 N 0.94332 0.62975 0.79572 0.0
H730 H 0.95562 0.9054 0.22648 0.0
H731 H 0.90773 0.95223 0.32289 0.0
H732 H 0.91697 0.94698 0.21995 0.0
H733 H 0.95039 0.91474 0.32941 0.0
H734 H 0.90848 0.94795 0.28521 0.0
H735 H 0.9514 0.90614 0.26418 0.0
C736 C 0.94608 0.91454 0.23295 0.0
C737 C 0.9367 0.92622 0.22003 0.0
C738 C 0.91762 0.94058 0.29489 0.0
C739 C 0.93196 0.92728 0.26324 0.0
C740 C 0.91711 0.94293 0.31643 0.0
C741 C 0.92908 0.9339 0.32934 0.0
C742 C 0.93016 0.92909 0.28615 0.0
C743 C 0.9411 0.92218 0.32003 0.0
C744 C 0.94377 0.91504 0.2545 0.0
C745 C 0.92468 0.93793 0.22934 0.0
N746 N 0.94137 0.92016 0.29902 0.0
N747 N 0.9227 0.9382 0.25036 0.0
H748 H 0.63551 0.91799 0.72323 0.0
H749 H 0.58868 0.95387 0.82674 0.0
H750 H 0.59401 0.95712 0.72414 0.0
H751 H 0.62833 0.91286 0.82759 0.0
H752 H 0.59114 0.95538 0.78903 0.0
H753 H 0.63377 0.91604 0.76131 0.0
C754 C 0.62606 0.92618 0.73142 0.0
C755 C 0.61481 0.93766 0.72044 0.0
C756 C 0.59934 0.94604 0.7974 0.0
C757 C 0.61272 0.93546 0.76392 0.0
C758 C 0.59803 0.94526 0.819 0.0
C759 C 0.60841 0.93331 0.83041 0.0
C760 C 0.61113 0.9348 0.78696 0.0
C761 C 0.62 0.9222 0.81942 0.0
C762 C 0.62502 0.925 0.75313 0.0
C763 C 0.60273 0.94786 0.73186 0.0
N764 N 0.62109 0.92325 0.79829 0.0
N765 N 0.60203 0.94653 0.75291 0.0
H766 H 0.61472 0.63365 0.3294 0.0
H767 H 0.62945 0.58978 0.21741 0.0
H768 H 0.6327 0.58023 0.32003 0.0
H769 H 0.60333 0.63985 0.22628 0.0
H770 H 0.63439 0.58785 0.25487 0.0
H771 H 0.61424 0.63795 0.29157 0.0
C772 C 0.61876 0.6229 0.31939 0.0
C773 C 0.62361 0.60651 0.32785 0.0
C774 C 0.62766 0.59931 0.24863 0.0
C775 C 0.62301 0.61129 0.28464 0.0
C776 C 0.62477 0.60039 0.22723 0.0
C777 C 0.61576 0.6149 0.21867 0.0
C778 C 0.62152 0.61284 0.26167 0.0
C779 C 0.61039 0.62846 0.23215 0.0
C780 C 0.61838 0.62532 0.29781 0.0
C781 C 0.62859 0.59299 0.31416 0.0
N782 N 0.61324 0.62704 0.253 0.0
N783 N 0.62811 0.59566 0.29326 0.0
H784 H 0.07611 0.31152 0.05102 0.0
H785 H 0.13385 0.23658 0.99533 0.0
H786 H 0.13311 0.30893 0.05493 0.0
H787 H 0.07679 0.23562 0.99886 0.0
H788 H 0.13397 0.2638 1.01574 0.0
H789 H 0.07622 0.28449 0.03038 0.0
C790 C 0.08867 0.30532 0.04742 0.0
C791 C 0.10463 0.31253 0.0547 0.0
C792 C 0.12143 0.25761 1.01209 0.0
C793 C 0.10484 0.28145 0.03118 0.0
C794 C 0.12135 0.24212 1.00034 0.0
C795 C 0.10528 0.23379 0.99538 0.0
C796 C 0.10532 0.26492 1.01881 0.0
C797 C 0.08949 0.24146 1.00252 0.0
C798 C 0.08871 0.28982 0.03575 0.0
C799 C 0.12048 0.30375 0.04982 0.0
N800 N 0.08991 0.2566 1.0138 0.0
N801 N 0.12019 0.28871 0.03832 0.0
H802 H 0.31383 0.07569 0.49959 0.0
H803 H 0.23904 0.1335 0.55569 0.0
H804 H 0.31234 0.13257 0.49681 0.0
H805 H 0.23684 0.07681 0.55015 0.0
H806 H 0.26664 0.13354 0.53566 0.0
H807 H 0.28646 0.07595 0.51984 0.0
C808 C 0.30781 0.08825 0.50338 0.0
C809 C 0.31542 0.10414 0.49652 0.0
C810 C 0.26008 0.1211 0.53878 0.0
C811 C 0.28393 0.10453 0.51957 0.0
C812 C 0.24438 0.12106 0.55029 0.0
C813 C 0.2356 0.10513 0.55458 0.0
C814 C 0.26716 0.10508 0.53164 0.0
C815 C 0.24303 0.08942 0.547 0.0
C816 C 0.2921 0.08839 0.51481 0.0
C817 C 0.30686 0.12 0.50161 0.0
N818 N 0.25839 0.08979 0.53598 0.0
N819 N 0.2916 0.1198 0.51287 0.0
H820 H 0.44104 0.32575 0.02533 0.0
H821 H 0.44368 0.22004 1.02453 0.0
H822 H 0.44605 0.2947 0.96939 0.0
H823 H 0.44429 0.25119 0.08071 0.0
H824 H 0.44317 0.24723 1.00403 0.0
H825 H 0.4408 0.29855 0.04585 0.0
C826 C 0.44215 0.31323 1.01735 0.0
C827 C 0.44359 0.31256 0.99556 0.0
C828 C 0.44339 0.24811 1.02084 0.0
C829 C 0.44314 0.28131 1.01899 0.0
C830 C 0.44378 0.23258 0.03258 0.0
C831 C 0.44406 0.23328 0.05442 0.0
C832 C 0.44326 0.26452 0.03098 0.0
C833 C 0.44385 0.24996 0.06394 0.0
C834 C 0.44192 0.29769 0.02908 0.0
C835 C 0.44468 0.2959 0.9861 0.0
N836 N 0.44349 0.26488 0.05217 0.0
N837 N 0.44445 0.28097 0.99785 0.0
H838 H 0.32783 0.44009 0.52485 0.0
H839 H 0.22174 0.4375 0.52383 0.0
H840 H 0.29571 0.4408 0.58046 0.0
H841 H 0.25369 0.4429 0.46842 0.0
H842 H 0.24874 0.43711 0.54477 0.0
H843 H 0.30087 0.43955 0.50386 0.0
C844 C 0.31512 0.4402 0.53267 0.0
C845 C 0.31409 0.44054 0.5545 0.0
C846 C 0.24984 0.43835 0.52802 0.0
C847 C 0.2831 0.43971 0.5305 0.0
C848 C 0.23442 0.43867 0.51605 0.0
C849 C 0.23539 0.44029 0.49429 0.0
C850 C 0.26643 0.43964 0.51822 0.0
C851 C 0.25225 0.44141 0.48509 0.0
C852 C 0.29972 0.4398 0.52066 0.0
C853 C 0.29721 0.44033 0.56372 0.0
N854 N 0.26707 0.4411 0.4971 0.0
N855 N 0.28241 0.43995 0.55169 0.0
H856 H 0.96198 0.82146 0.03205 0.0
H857 H 0.92459 0.72332 1.01794 0.0
H858 H 0.92191 0.79861 0.07183 0.0
H859 H 0.95915 0.7489 0.97366 0.0
H860 H 0.92431 0.75035 0.03869 0.0
H861 H 0.96167 0.79471 1.01099 0.0
C862 C 0.953 0.81089 0.03628 0.0
C863 C 0.94195 0.81236 0.05379 0.0
C864 C 0.93193 0.75006 1.02442 0.0
C865 C 0.94176 0.78148 0.02985 0.0
C866 C 0.93218 0.7346 1.01263 0.0
C867 C 0.94191 0.73384 0.99402 0.0
C868 C 0.94157 0.76486 1.01764 0.0
C869 C 0.95131 0.74895 0.98777 0.0
C870 C 0.95292 0.79555 1.0243 0.0
C871 C 0.93086 0.79803 0.05868 0.0
N872 N 0.95094 0.7638 0.99957 0.0
N873 N 0.93107 0.7832 0.04682 0.0
H874 H 0.7266 0.95821 0.53372 0.0
H875 H 0.82531 0.92164 0.5193 0.0
H876 H 0.74991 0.91888 0.57399 0.0
H877 H 0.79902 0.95515 0.47457 0.0
H878 H 0.79833 0.92143 0.54044 0.0
H879 H 0.7534 0.95794 0.51251 0.0
C880 C 0.73728 0.94941 0.53804 0.0
C881 C 0.73591 0.93853 0.5557 0.0
C882 C 0.79846 0.9288 0.52598 0.0
C883 C 0.76687 0.93839 0.53158 0.0
C884 C 0.81389 0.92901 0.51397 0.0
C885 C 0.81443 0.93841 0.49512 0.0
C886 C 0.78347 0.93816 0.51918 0.0
C887 C 0.79914 0.94755 0.48886 0.0
C888 C 0.75265 0.94934 0.52596 0.0
C889 C 0.75041 0.92768 0.5607 0.0
N890 N 0.78433 0.94723 0.50087 0.0
N891 N 0.76527 0.9279 0.54873 0.0
H892 H 0.6305 0.74686 0.07248 0.0
H893 H 0.59198 0.79688 0.97234 0.0
H894 H 0.5898 0.72528 0.03278 0.0
H895 H 0.62658 0.82158 1.01708 0.0
H896 H 0.59255 0.76982 0.99308 0.0
H897 H 0.63056 0.7737 0.05135 0.0
C898 C 0.62151 0.74776 0.05939 0.0
C899 C 0.61008 0.73374 0.05449 0.0
C900 C 0.60002 0.78115 0.99838 0.0
C901 C 0.61028 0.76442 0.03002 0.0
C902 C 0.59979 0.79658 0.98647 0.0
C903 C 0.60926 0.81153 0.99296 0.0
C904 C 0.60988 0.78059 1.0169 0.0
C905 C 0.61893 0.81044 1.01159 0.0
C906 C 0.62163 0.76308 0.04726 0.0
C907 C 0.59901 0.7356 0.03704 0.0
N908 N 0.61902 0.79523 1.02288 0.0
N909 N 0.59938 0.75064 0.02548 0.0
H910 H 0.73857 0.63852 0.49578 0.0
H911 H 0.81336 0.58037 0.55165 0.0
H912 H 0.73601 0.58186 0.50189 0.0
H913 H 0.81211 0.63725 0.55418 0.0
H914 H 0.78583 0.58076 0.5317 0.0
H915 H 0.76623 0.63844 0.51566 0.0
C916 C 0.74384 0.62607 0.50129 0.0
C917 C 0.73494 0.61018 0.4972 0.0
C918 C 0.79156 0.59316 0.53662 0.0
C919 C 0.76658 0.60998 0.51995 0.0
C920 C 0.80735 0.59296 0.54788 0.0
C921 C 0.81507 0.60881 0.55457 0.0
C922 C 0.78342 0.60934 0.53187 0.0
C923 C 0.80653 0.62471 0.5495 0.0
C924 C 0.75958 0.62603 0.51271 0.0
C925 C 0.74229 0.59444 0.50489 0.0
N926 N 0.79119 0.62458 0.53841 0.0
N927 N 0.75769 0.59474 0.51581 0.0
H928 H 0.98898 0.56121 0.04142 0.0
H929 H 0.05412 0.48256 1.00854 0.0
H930 H 1.01357 0.55723 0.98095 0.0
H931 H 0.02966 0.48659 0.06908 0.0
H932 H 0.03914 0.50973 0.99803 0.0
H933 H 1.00376 0.5339 0.05185 0.0
C934 C 0.99754 0.55464 0.03036 0.0
C935 C 1.00002 0.56156 1.01027 0.0
C936 C 0.03705 0.50468 1.01362 0.0
C937 C 1.01689 0.53015 1.02206 0.0
C938 C 0.04553 0.4891 1.0196 0.0
C939 C 0.04317 0.48225 0.03974 0.0
C940 C 0.02608 0.51352 0.02786 0.0
C941 C 0.03208 0.49148 0.0535 0.0
C942 C 1.00591 0.53899 0.03629 0.0
C943 C 1.01107 0.55229 0.9965 0.0
N944 N 1.02395 0.50661 0.0473 0.0
N945 N 1.0191 0.5371 1.00266 0.0
H946 H 0.06139 0.02719 0.57078 0.0
H947 H 0.98994 1.01261 0.48027 0.0
H948 H 0.06382 0.05318 0.51099 0.0
H949 H 0.98699 0.98727 0.54041 0.0
H950 H 1.01721 0.02728 0.49109 0.0
H951 H 0.03417 1.01243 0.55994 0.0
C952 C 0.05615 0.02989 0.55541 0.0
C953 C 0.06493 0.0415 0.5418 0.0
C954 C 1.01062 1.01851 0.50193 0.0
C955 C 0.03381 0.02443 0.52917 0.0
C956 C 0.99508 1.01003 0.49571 0.0
C957 C 0.98614 0.99864 0.50943 0.0
C958 C 1.01733 1.01559 0.52203 0.0
C959 C 0.9933 0.99608 0.52939 0.0
C960 C 0.04065 1.02136 0.54918 0.0
C961 C 0.05765 0.0442 0.52192 0.0
N962 N 1.00847 1.00446 0.53507 0.0
N963 N 0.04252 0.03576 0.51623 0.0
H964 H 0.4892 0.04501 0.05705 0.0
H965 H 0.57191 1.00096 0.99877 0.0
H966 H 0.53026 0.07495 0.02629 0.0
H967 H 0.53068 0.97101 0.02922 0.0
H968 H 0.55696 0.02819 1.00891 0.0
H969 H 0.50439 1.01779 0.04739 0.0
C970 C 0.50146 0.04588 0.04835 0.0
C971 C 0.50845 0.06234 0.0425 0.0
C972 C 0.55119 1.01567 1.01341 0.0
C973 C 0.52588 0.03114 0.03121 0.0
C974 C 0.55968 1.00009 1.00753 0.0
C975 C 0.55254 0.98363 1.0131 0.0
C976 C 0.5354 1.01483 1.02494 0.0
C977 C 0.53681 0.98338 1.02478 0.0
C978 C 0.51009 0.03031 0.04274 0.0
C979 C 0.52424 0.06258 0.03092 0.0
N980 N 0.52876 0.99872 0.03026 0.0
N981 N 0.53242 0.04724 0.02569 0.0
H982 H 0.55919 0.53509 0.48102 0.0
H983 H 0.48629 0.52224 0.57044 0.0
H984 H 0.56096 0.56185 0.54022 0.0
H985 H 0.48404 0.49618 0.51084 0.0
H986 H 0.51371 0.53675 0.55972 0.0
H987 H 0.53159 0.52085 0.49159 0.0
C988 C 0.55372 0.53807 0.4962 0.0
C989 C 0.56243 0.54974 0.50972 0.0
C990 C 0.50722 0.52787 0.54897 0.0
C991 C 0.53087 0.53326 0.52205 0.0
C992 C 0.4916 0.51949 0.55513 0.0
C993 C 0.48284 0.50792 0.54155 0.0
C994 C 0.51421 0.52466 0.52907 0.0
C995 C 0.49021 0.50513 0.52175 0.0
C996 C 0.538 0.52984 0.50227 0.0
C997 C 0.55485 0.55281 0.52936 0.0
N998 N 0.50547 0.51341 0.51614 0.0
N999 N 0.53952 0.54464 0.53491 0.0
H1000 H 1.0191 0.07719 0.02594 0.0
H1001 H 1.02066 0.97153 1.02168 0.0
H1002 H 0.05956 0.04712 0.99449 0.0
H1003 H 0.98034 1.00145 0.05359 0.0
H1004 H 0.03487 0.99911 1.01124 0.0
H1005 H 1.00475 0.04963 0.03632 0.0
C1006 C 1.02504 0.0648 1.02132 0.0
C1007 C 0.04058 0.06451 1.00931 0.0
C1008 C 1.02291 0.99966 1.02052 0.0
C1009 C 1.02407 0.03285 1.02096 0.0
C1010 C 1.01471 0.9839 0.02637 0.0
C1011 C 0.99924 0.98414 0.03852 0.0
C1012 C 1.01562 1.01584 0.02682 0.0
C1013 C 0.99235 1.0006 0.04444 0.0
C1014 C 1.01677 0.04906 0.02715 0.0
C1015 C 0.04749 0.04803 1.00351 0.0
N1016 N 1.00057 1.01577 0.03852 0.0
N1017 N 0.0392 0.03289 1.00939 0.0
H1018 H 0.49762 0.06336 0.52236 0.0
H1019 H 0.55123 0.97258 0.53075 0.0
H1020 H 0.47929 1.01461 0.49533 0.0
H1021 H 0.57477 0.02339 0.54295 0.0
H1022 H 0.52376 0.98737 0.52047 0.0
H1023 H 0.52503 0.04853 0.53288 0.0
C1024 C 0.49934 0.04951 0.51873 0.0
C1025 C 0.48618 0.0402 0.50794 0.0
C1026 C 0.53495 0.99529 0.52534 0.0
C1027 C 0.51747 0.02317 0.51989 0.0
C1028 C 0.55059 0.98685 0.53131 0.0
C1029 C 0.56531 0.99678 0.53768 0.0
C1030 C 0.53393 1.01379 0.52597 0.0
C1031 C 0.5638 1.01524 0.53792 0.0
C1032 C 0.51502 0.04109 0.52462 0.0
C1033 C 0.48917 1.02233 0.50344 0.0
N1034 N 0.54837 0.02315 0.53225 0.0
N1035 N 0.50446 1.01438 0.50951 0.0
H1036 H 0.55982 0.56285 1.00861 0.0
H1037 H 0.49289 0.48514 0.04025 0.0
H1038 H 0.53336 0.55971 0.06807 0.0
H1039 H 0.52011 0.48773 0.98122 0.0
H1040 H 0.50753 0.51248 0.05068 0.0
H1041 H 0.5451 0.53556 0.99811 0.0
C1042 C 0.55085 0.55648 1.01943 0.0
C1043 C 0.54784 0.56361 0.03927 0.0
C1044 C 0.5103 0.50708 0.03544 0.0
C1045 C 0.53104 0.53223 0.0274 0.0
C1046 C 0.50201 0.4914 0.02951 0.0
C1047 C 0.50526 0.48408 1.00981 0.0
C1048 C 0.52196 0.51555 1.0216 0.0
C1049 C 0.51701 0.49298 0.99644 0.0
C1050 C 0.54251 0.54084 1.01346 0.0
C1051 C 0.53627 0.5546 0.05273 0.0
N1052 N 0.52493 0.50821 1.00258 0.0
N1053 N 0.52829 0.53941 0.04655 0.0
H1054 H 0.97305 0.5252 0.52383 0.0
H1055 H 0.07911 0.52438 0.52825 0.0
H1056 H 1.00405 0.5646 0.55577 0.0
H1057 H 0.04802 0.48502 0.49638 0.0
H1058 H 0.05179 0.53909 0.53886 0.0
H1059 H 1.00038 0.51036 0.51357 0.0
C1060 C 0.9856 0.53081 0.52858 0.0
C1061 C 0.98621 0.54621 0.54067 0.0
C1062 C 0.05094 0.52723 0.52956 0.0
C1063 C 1.01763 0.52912 0.52916 0.0
C1064 C 0.06654 0.51875 0.5236 0.0
C1065 C 0.0659 0.50342 0.51138 0.0
C1066 C 0.0345 0.52035 0.52329 0.0
C1067 C 0.04919 0.49692 0.50556 0.0
C1068 C 1.00122 0.52225 0.52282 0.0
C1069 C 1.0029 0.55266 0.54666 0.0
N1070 N 0.03419 0.50541 0.51156 0.0
N1071 N 1.01792 0.5441 0.54083 0.0
loop_
_geom_bond_atom_site_label_1
_geom_bond_atom_site_label_2
_geom_bond_distance
_geom_bond_site_symmetry_2
_ccdc_geom_bond_type
C0 C1 1.264 . S
C0 C5 1.479 . S
C0 C10 1.465 . S
C1 C0 1.264 . S
C1 C3 1.339 . S
C1 H28 0.931 . S
C2 C3 1.395 . S
C2 C4 1.320 . S
C3 C1 1.339 . S
C3 C2 1.395 . S
C3 H29 0.929 . S
C4 C2 1.320 . S
C4 C5 1.405 . S
C4 H30 0.958 . S
C5 C0 1.479 . S
C5 C4 1.405 . S
C5 H31 0.931 . S
U6 O7 2.454 . S
U6 O8 2.458 . S
U6 C9 2.984 . S
U6 C10 2.847 . S
U6 C23 2.882 . S
U6 O24 2.441 . S
U6 O25 2.420 . S
U6 O26 2.455 . S
U6 O27 2.449 . S
O7 U6 2.454 . S
O7 C9 1.353 . S
O8 U6 2.458 . S
O8 C9 1.286 . S
C9 U6 2.984 . S
C9 O7 1.353 . S
C9 O8 1.286 . S
C9 C11 1.363 . S
C10 C0 1.465 . S
C10 U6 2.847 . S
C10 O24 1.249 . S
C10 O25 1.202 . S
C11 C9 1.363 . S
C11 C13 1.408 . S
C11 C16 1.342 . S
C12 C13 1.310 . S
C12 C15 1.461 . S
C12 H32 0.932 . S
C13 C11 1.408 . S
C13 C12 1.310 . S
C13 H33 0.930 . S
C14 C15 1.474 . S
C14 C16 1.285 . S
C14 H34 0.929 . S
C15 C12 1.461 . S
C15 C14 1.474 . S
C16 C11 1.342 . S
C16 C14 1.285 . S
C16 H35 0.930 . S
C17 C20 1.424 . S
C17 C22 1.245 . S
C17 C23 1.428 . S
C18 C21 1.260 . S
C18 C22 1.477 . S
C18 H36 0.932 . S
C19 C20 1.384 . S
C19 C21 1.479 . S
C19 H37 0.929 . S
C20 C17 1.424 . S
C20 C19 1.384 . S
C20 H38 0.928 . S
C21 C18 1.260 . S
C21 C19 1.479 . S
C22 C17 1.245 . S
C22 C18 1.477 . S
C22 H39 0.932 . S
C23 U6 2.882 . S
C23 C17 1.428 . S
C23 O26 1.301 . S
C23 O27 1.282 . S
O24 U6 2.441 . S
O24 C10 1.249 . S
O25 U6 2.420 . S
O25 C10 1.202 . S
O26 U6 2.455 . S
O26 C23 1.301 . S
O27 U6 2.449 . S
O27 C23 1.282 . S
H28 C1 0.931 . S
H29 C3 0.929 . S
H30 C4 0.958 . S
H31 C5 0.931 . S
H32 C12 0.932 . S
H33 C13 0.930 . S
H34 C14 0.929 . S
H35 C16 0.930 . S
H36 C18 0.932 . S
H37 C19 0.929 . S
H38 C20 0.928 . S
H39 C22 0.932 . S
C40 C41 1.264 . S
C40 C45 1.479 . S
C40 C50 1.465 . S
C41 C40 1.264 . S
C41 C43 1.339 . S
C41 H68 0.931 . S
C42 C43 1.395 . S
C42 C44 1.320 . S
C43 C41 1.339 . S
C43 C42 1.395 . S
C43 H69 0.929 . S
C44 C42 1.320 . S
C44 C45 1.405 . S
C44 H70 0.930 . S
C45 C40 1.479 . S
C45 C44 1.405 . S
C45 H71 0.931 . S
U46 O47 2.454 . S
U46 O48 2.458 . S
U46 C49 2.984 . S
U46 C50 2.847 . S
U46 C63 2.882 . S
U46 O64 2.441 . S
U46 O65 2.420 . S
U46 O66 2.455 . S
U46 O67 2.449 . S
O47 U46 2.454 . S
O47 C49 1.353 . S
O48 U46 2.458 . S
O48 C49 1.286 . S
C49 U46 2.984 . S
C49 O47 1.353 . S
C49 O48 1.286 . S
C49 C51 1.363 . S
C50 C40 1.465 . S
C50 U46 2.847 . S
C50 O64 1.249 . S
C50 O65 1.202 . S
C51 C49 1.363 . S
C51 C53 1.408 . S
C51 C56 1.342 . S
C52 C53 1.310 . S
C52 C55 1.461 . S
C52 H72 0.932 . S
C53 C51 1.408 . S
C53 C52 1.310 . S
C53 H73 0.930 . S
C54 C55 1.474 . S
C54 C56 1.285 . S
C54 H74 0.929 . S
C55 C52 1.461 . S
C55 C54 1.474 . S
C56 C51 1.342 . S
C56 C54 1.285 . S
C56 H75 0.930 . S
C57 C60 1.424 . S
C57 C62 1.245 . S
C57 C63 1.428 . S
C58 C61 1.260 . S
C58 C62 1.477 . S
C58 H76 0.932 . S
C59 C60 1.384 . S
C59 C61 1.479 . S
C59 H77 0.929 . S
C60 C57 1.424 . S
C60 C59 1.384 . S
C60 H78 0.928 . S
C61 C58 1.260 . S
C61 C59 1.479 . S
C62 C57 1.245 . S
C62 C58 1.477 . S
C62 H79 0.932 . S
C63 U46 2.882 . S
C63 C57 1.428 . S
C63 O66 1.301 . S
C63 O67 1.282 . S
O64 U46 2.441 . S
O64 C50 1.249 . S
O65 U46 2.420 . S
O65 C50 1.202 . S
O66 U46 2.455 . S
O66 C63 1.301 . S
O67 U46 2.449 . S
O67 C63 1.282 . S
H68 C41 0.931 . S
H69 C43 0.929 . S
H70 C44 0.930 . S
H71 C45 0.931 . S
H72 C52 0.932 . S
H73 C53 0.930 . S
H74 C54 0.929 . S
H75 C56 0.930 . S
H76 C58 0.932 . S
H77 C59 0.929 . S
H78 C60 0.928 . S
H79 C62 0.932 . S
C80 C81 1.264 . S
C80 C85 1.479 . S
C80 C90 1.465 . S
C81 C80 1.264 . S
C81 C83 1.339 . S
C81 H108 0.931 . S
C82 C83 1.395 . S
C82 C84 1.320 . S
C83 C81 1.339 . S
C83 C82 1.395 . S
C83 H109 0.929 . S
C84 C82 1.320 . S
C84 C85 1.405 . S
C84 H110 0.958 . S
C85 C80 1.479 . S
C85 C84 1.405 . S
C85 H111 0.931 . S
U86 O87 2.454 . S
U86 O88 2.458 . S
U86 C89 2.984 . S
U86 C90 2.847 . S
U86 C103 2.882 . S
U86 O104 2.441 . S
U86 O105 2.420 . S
U86 O106 2.455 . S
U86 O107 2.449 . S
O87 U86 2.454 . S
O87 C89 1.353 . S
O88 U86 2.458 . S
O88 C89 1.286 . S
C89 U86 2.984 . S
C89 O87 1.353 . S
C89 O88 1.286 . S
C89 C91 1.363 . S
C90 C80 1.465 . S
C90 U86 2.847 . S
C90 O104 1.249 . S
C90 O105 1.202 . S
C91 C89 1.363 . S
C91 C93 1.408 . S
C91 C96 1.342 . S
C92 C93 1.310 . S
C92 C95 1.461 . S
C92 H112 0.932 . S
C93 C91 1.408 . S
C93 C92 1.310 . S
C93 H113 0.930 . S
C94 C95 1.474 . S
C94 C96 1.285 . S
C94 H114 0.929 . S
C95 C92 1.461 . S
C95 C94 1.474 . S
C96 C91 1.342 . S
C96 C94 1.285 . S
C96 H115 0.930 . S
C97 C100 1.424 . S
C97 C102 1.245 . S
C97 C103 1.428 . S
C98 C101 1.260 . S
C98 C102 1.477 . S
C98 H116 0.932 . S
C99 C100 1.384 . S
C99 C101 1.479 . S
C99 H117 0.929 . S
C100 C97 1.424 . S
C100 C99 1.384 . S
C100 H118 0.928 . S
C101 C98 1.260 . S
C101 C99 1.479 . S
C102 C97 1.245 . S
C102 C98 1.477 . S
C102 H119 0.932 . S
C103 U86 2.882 . S
C103 C97 1.428 . S
C103 O106 1.301 . S
C103 O107 1.282 . S
O104 U86 2.441 . S
O104 C90 1.249 . S
O105 U86 2.420 . S
O105 C90 1.202 . S
O106 U86 2.455 . S
O106 C103 1.301 . S
O107 U86 2.449 . S
O107 C103 1.282 . S
H108 C81 0.931 . S
H109 C83 0.929 . S
H110 C84 0.958 . S
H111 C85 0.931 . S
H112 C92 0.932 . S
H113 C93 0.930 . S
H114 C94 0.929 . S
H115 C96 0.930 . S
H116 C98 0.932 . S
H117 C99 0.929 . S
H118 C100 0.928 . S
H119 C102 0.932 . S
C120 C121 1.264 . S
C120 C125 1.479 . S
C120 C130 1.465 . S
C121 C120 1.264 . S
C121 C123 1.339 . S
C121 H148 0.931 . S
C122 C123 1.395 . S
C122 C124 1.320 . S
C123 C121 1.339 . S
C123 C122 1.395 . S
C123 H149 0.929 . S
C124 C122 1.320 . S
C124 C125 1.405 . S
C124 H150 0.930 . S
C125 C120 1.479 . S
C125 C124 1.405 . S
C125 H151 0.931 . S
U126 O127 2.454 . S
U126 O128 2.458 . S
U126 C129 2.984 . S
U126 C130 2.847 . S
U126 C143 2.882 . S
U126 O144 2.441 . S
U126 O145 2.420 . S
U126 O146 2.455 . S
U126 O147 2.449 . S
O127 U126 2.454 . S
O127 C129 1.353 . S
O128 U126 2.458 . S
O128 C129 1.286 . S
C129 U126 2.984 . S
C129 O127 1.353 . S
C129 O128 1.286 . S
C129 C131 1.363 . S
C130 C120 1.465 . S
C130 U126 2.847 . S
C130 O144 1.249 . S
C130 O145 1.202 . S
C131 C129 1.363 . S
C131 C133 1.408 . S
C131 C136 1.342 . S
C132 C133 1.310 . S
C132 C135 1.461 . S
C132 H152 0.932 . S
C133 C131 1.408 . S
C133 C132 1.310 . S
C133 H153 0.930 . S
C134 C135 1.474 . S
C134 C136 1.285 . S
C134 H154 0.929 . S
C135 C132 1.461 . S
C135 C134 1.474 . S
C136 C131 1.342 . S
C136 C134 1.285 . S
C136 H155 0.930 . S
C137 C140 1.424 . S
C137 C142 1.245 . S
C137 C143 1.428 . S
C138 C141 1.260 . S
C138 C142 1.477 . S
C138 H156 0.932 . S
C139 C140 1.384 . S
C139 C141 1.479 . S
C139 H157 0.929 . S
C140 C137 1.424 . S
C140 C139 1.384 . S
C140 H158 0.928 . S
C141 C138 1.260 . S
C141 C139 1.479 . S
C142 C137 1.245 . S
C142 C138 1.477 . S
C142 H159 0.932 . S
C143 U126 2.882 . S
C143 C137 1.428 . S
C143 O146 1.301 . S
C143 O147 1.282 . S
O144 U126 2.441 . S
O144 C130 1.249 . S
O145 U126 2.420 . S
O145 C130 1.202 . S
O146 U126 2.455 . S
O146 C143 1.301 . S
O147 U126 2.449 . S
O147 C143 1.282 . S
H148 C121 0.931 . S
H149 C123 0.929 . S
H150 C124 0.930 . S
H151 C125 0.931 . S
H152 C132 0.932 . S
H153 C133 0.930 . S
H154 C134 0.929 . S
H155 C136 0.930 . S
H156 C138 0.932 . S
H157 C139 0.929 . S
H158 C140 0.928 . S
H159 C142 0.932 . S
C160 C161 1.264 . S
C160 C165 1.479 . S
C160 C170 1.465 . S
C161 C160 1.264 . S
C161 C163 1.339 . S
C161 H188 0.931 . S
C162 C163 1.395 . S
C162 C164 1.320 . S
C163 C161 1.339 . S
C163 C162 1.395 . S
C163 H189 0.929 . S
C164 C162 1.320 . S
C164 C165 1.405 . S
C164 H190 0.958 . S
C165 C160 1.479 . S
C165 C164 1.405 . S
C165 H191 0.931 . S
U166 O167 2.454 . S
U166 O168 2.458 . S
U166 C169 2.984 . S
U166 C170 2.847 . S
U166 C183 2.882 . S
U166 O184 2.441 . S
U166 O185 2.420 . S
U166 O186 2.455 . S
U166 O187 2.449 . S
O167 U166 2.454 . S
O167 C169 1.353 . S
O168 U166 2.458 . S
O168 C169 1.286 . S
C169 U166 2.984 . S
C169 O167 1.353 . S
C169 O168 1.286 . S
C169 C171 1.363 . S
C170 C160 1.465 . S
C170 U166 2.847 . S
C170 O184 1.249 . S
C170 O185 1.202 . S
C171 C169 1.363 . S
C171 C173 1.408 . S
C171 C176 1.342 . S
C172 C173 1.310 . S
C172 C175 1.461 . S
C172 H192 0.932 . S
C173 C171 1.408 . S
C173 C172 1.310 . S
C173 H193 0.930 . S
C174 C175 1.474 . S
C174 C176 1.285 . S
C174 H194 0.929 . S
C175 C172 1.461 . S
C175 C174 1.474 . S
C176 C171 1.342 . S
C176 C174 1.285 . S
C176 H195 0.930 . S
C177 C180 1.424 . S
C177 C182 1.245 . S
C177 C183 1.428 . S
C178 C181 1.260 . S
C178 C182 1.477 . S
C178 H196 0.932 . S
C179 C180 1.384 . S
C179 C181 1.479 . S
C179 H197 0.929 . S
C180 C177 1.424 . S
C180 C179 1.384 . S
C180 H198 0.928 . S
C181 C178 1.260 . S
C181 C179 1.479 . S
C182 C177 1.245 . S
C182 C178 1.477 . S
C182 H199 0.932 . S
C183 U166 2.882 . S
C183 C177 1.428 . S
C183 O186 1.301 . S
C183 O187 1.282 . S
O184 U166 2.441 . S
O184 C170 1.249 . S
O185 U166 2.420 . S
O185 C170 1.202 . S
O186 U166 2.455 . S
O186 C183 1.301 . S
O187 U166 2.449 . S
O187 C183 1.282 . S
H188 C161 0.931 . S
H189 C163 0.929 . S
H190 C164 0.958 . S
H191 C165 0.931 . S
H192 C172 0.932 . S
H193 C173 0.930 . S
H194 C174 0.929 . S
H195 C176 0.930 . S
H196 C178 0.932 . S
H197 C179 0.929 . S
H198 C180 0.928 . S
H199 C182 0.932 . S
C200 C201 1.264 . S
C200 C205 1.479 . S
C200 C210 1.465 . S
C201 C200 1.264 . S
C201 C203 1.339 . S
C201 H228 0.931 . S
C202 C203 1.395 . S
C202 C204 1.320 . S
C203 C201 1.339 . S
C203 C202 1.395 . S
C203 H229 0.929 . S
C204 C202 1.320 . S
C204 C205 1.405 . S
C204 H230 0.930 . S
C205 C200 1.479 . S
C205 C204 1.405 . S
C205 H231 0.931 . S
U206 O207 2.454 . S
U206 O208 2.458 . S
U206 C209 2.984 . S
U206 C210 2.847 . S
U206 C223 2.882 . S
U206 O224 2.441 . S
U206 O225 2.420 . S
U206 O226 2.455 . S
U206 O227 2.449 . S
O207 U206 2.454 . S
O207 C209 1.353 . S
O208 U206 2.458 . S
O208 C209 1.286 . S
C209 U206 2.984 . S
C209 O207 1.353 . S
C209 O208 1.286 . S
C209 C211 1.363 . S
C210 C200 1.465 . S
C210 U206 2.847 . S
C210 O224 1.249 . S
C210 O225 1.202 . S
C211 C209 1.363 . S
C211 C213 1.408 . S
C211 C216 1.342 . S
C212 C213 1.310 . S
C212 C215 1.461 . S
C212 H232 0.932 . S
C213 C211 1.408 . S
C213 C212 1.310 . S
C213 H233 0.930 . S
C214 C215 1.474 . S
C214 C216 1.285 . S
C214 H234 0.929 . S
C215 C212 1.461 . S
C215 C214 1.474 . S
C216 C211 1.342 . S
C216 C214 1.285 . S
C216 H235 0.930 . S
C217 C220 1.424 . S
C217 C222 1.245 . S
C217 C223 1.428 . S
C218 C221 1.260 . S
C218 C222 1.477 . S
C218 H236 0.932 . S
C219 C220 1.384 . S
C219 C221 1.479 . S
C219 H237 0.929 . S
C220 C217 1.424 . S
C220 C219 1.384 . S
C220 H238 0.928 . S
C221 C218 1.260 . S
C221 C219 1.479 . S
C222 C217 1.245 . S
C222 C218 1.477 . S
C222 H239 0.932 . S
C223 U206 2.882 . S
C223 C217 1.428 . S
C223 O226 1.301 . S
C223 O227 1.282 . S
O224 U206 2.441 . S
O224 C210 1.249 . S
O225 U206 2.420 . S
O225 C210 1.202 . S
O226 U206 2.455 . S
O226 C223 1.301 . S
O227 U206 2.449 . S
O227 C223 1.282 . S
H228 C201 0.931 . S
H229 C203 0.929 . S
H230 C204 0.930 . S
H231 C205 0.931 . S
H232 C212 0.932 . S
H233 C213 0.930 . S
H234 C214 0.929 . S
H235 C216 0.930 . S
H236 C218 0.932 . S
H237 C219 0.929 . S
H238 C220 0.928 . S
H239 C222 0.932 . S
C240 C241 1.264 . S
C240 C245 1.479 . S
C240 C250 1.465 . S
C241 C240 1.264 . S
C241 C243 1.339 . S
C241 H268 0.931 . S
C242 C243 1.395 . S
C242 C244 1.320 . S
C243 C241 1.339 . S
C243 C242 1.395 . S
C243 H269 0.929 . S
C244 C242 1.320 . S
C244 C245 1.405 . S
C244 H270 0.958 . S
C245 C240 1.479 . S
C245 C244 1.405 . S
C245 H271 0.931 . S
U246 O247 2.454 . S
U246 O248 2.458 . S
U246 C249 2.984 . S
U246 C250 2.847 . S
U246 C263 2.882 . S
U246 O264 2.441 . S
U246 O265 2.420 . S
U246 O266 2.455 . S
U246 O267 2.449 . S
O247 U246 2.454 . S
O247 C249 1.353 . S
O248 U246 2.458 . S
O248 C249 1.286 . S
C249 U246 2.984 . S
C249 O247 1.353 . S
C249 O248 1.286 . S
C249 C251 1.363 . S
C250 C240 1.465 . S
C250 U246 2.847 . S
C250 O264 1.249 . S
C250 O265 1.202 . S
C251 C249 1.363 . S
C251 C253 1.408 . S
C251 C256 1.342 . S
C252 C253 1.310 . S
C252 C255 1.461 . S
C252 H272 0.932 . S
C253 C251 1.408 . S
C253 C252 1.310 . S
C253 H273 0.930 . S
C254 C255 1.474 . S
C254 C256 1.285 . S
C254 H274 0.929 . S
C255 C252 1.461 . S
C255 C254 1.474 . S
C256 C251 1.342 . S
C256 C254 1.285 . S
C256 H275 0.930 . S
C257 C260 1.424 . S
C257 C262 1.245 . S
C257 C263 1.428 . S
C258 C261 1.260 . S
C258 C262 1.477 . S
C258 H276 0.932 . S
C259 C260 1.384 . S
C259 C261 1.479 . S
C259 H277 0.929 . S
C260 C257 1.424 . S
C260 C259 1.384 . S
C260 H278 0.928 . S
C261 C258 1.260 . S
C261 C259 1.479 . S
C262 C257 1.245 . S
C262 C258 1.477 . S
C262 H279 0.932 . S
C263 U246 2.882 . S
C263 C257 1.428 . S
C263 O266 1.301 . S
C263 O267 1.282 . S
O264 U246 2.441 . S
O264 C250 1.249 . S
O265 U246 2.420 . S
O265 C250 1.202 . S
O266 U246 2.455 . S
O266 C263 1.301 . S
O267 U246 2.449 . S
O267 C263 1.282 . S
H268 C241 0.931 . S
H269 C243 0.929 . S
H270 C244 0.958 . S
H271 C245 0.931 . S
H272 C252 0.932 . S
H273 C253 0.930 . S
H274 C254 0.929 . S
H275 C256 0.930 . S
H276 C258 0.932 . S
H277 C259 0.929 . S
H278 C260 0.928 . S
H279 C262 0.932 . S
C280 C281 1.264 . S
C280 C285 1.479 . S
C280 C290 1.465 . S
C281 C280 1.264 . S
C281 C283 1.339 . S
C281 H308 0.931 . S
C282 C283 1.395 . S
C282 C284 1.320 . S
C283 C281 1.339 . S
C283 C282 1.395 . S
C283 H309 0.929 . S
C284 C282 1.320 . S
C284 C285 1.405 . S
C284 H310 0.930 . S
C285 C280 1.479 . S
C285 C284 1.405 . S
C285 H311 0.931 . S
U286 O287 2.454 . S
U286 O288 2.458 . S
U286 C289 2.984 . S
U286 C290 2.847 . S
U286 C303 2.882 . S
U286 O304 2.441 . S
U286 O305 2.420 . S
U286 O306 2.455 . S
U286 O307 2.449 . S
O287 U286 2.454 . S
O287 C289 1.353 . S
O288 U286 2.458 . S
O288 C289 1.286 . S
C289 U286 2.984 . S
C289 O287 1.353 . S
C289 O288 1.286 . S
C289 C291 1.363 . S
C290 C280 1.465 . S
C290 U286 2.847 . S
C290 O304 1.249 . S
C290 O305 1.202 . S
C291 C289 1.363 . S
C291 C293 1.408 . S
C291 C296 1.342 . S
C292 C293 1.310 . S
C292 C295 1.461 . S
C292 H312 0.932 . S
C293 C291 1.408 . S
C293 C292 1.310 . S
C293 H313 0.930 . S
C294 C295 1.474 . S
C294 C296 1.285 . S
C294 H314 0.929 . S
C295 C292 1.461 . S
C295 C294 1.474 . S
C296 C291 1.342 . S
C296 C294 1.285 . S
C296 H315 0.930 . S
C297 C300 1.424 . S
C297 C302 1.245 . S
C297 C303 1.428 . S
C298 C301 1.260 . S
C298 C302 1.477 . S
C298 H316 0.932 . S
C299 C300 1.384 . S
C299 C301 1.479 . S
C299 H317 0.929 . S
C300 C297 1.424 . S
C300 C299 1.384 . S
C300 H318 0.928 . S
C301 C298 1.260 . S
C301 C299 1.479 . S
C302 C297 1.245 . S
C302 C298 1.477 . S
C302 H319 0.932 . S
C303 U286 2.882 . S
C303 C297 1.428 . S
C303 O306 1.301 . S
C303 O307 1.282 . S
O304 U286 2.441 . S
O304 C290 1.249 . S
O305 U286 2.420 . S
O305 C290 1.202 . S
O306 U286 2.455 . S
O306 C303 1.301 . S
O307 U286 2.449 . S
O307 C303 1.282 . S
H308 C281 0.931 . S
H309 C283 0.929 . S
H310 C284 0.930 . S
H311 C285 0.931 . S
H312 C292 0.932 . S
H313 C293 0.930 . S
H314 C294 0.929 . S
H315 C296 0.930 . S
H316 C298 0.932 . S
H317 C299 0.929 . S
H318 C300 0.928 . S
H319 C302 0.932 . S
C320 C321 1.264 . S
C320 C325 1.479 . S
C320 C330 1.465 . S
C321 C320 1.264 . S
C321 C323 1.339 . S
C321 H348 0.931 . S
C322 C323 1.395 . S
C322 C324 1.320 . S
C323 C321 1.339 . S
C323 C322 1.395 . S
C323 H349 0.929 . S
C324 C322 1.320 . S
C324 C325 1.405 . S
C324 H350 0.977 . S
C325 C320 1.479 . S
C325 C324 1.405 . S
C325 H351 0.931 . S
U326 O327 2.454 . S
U326 O328 2.458 . S
U326 C329 2.984 . S
U326 C330 2.847 . S
U326 C343 2.882 . S
U326 O344 2.441 . S
U326 O345 2.420 . S
U326 O346 2.455 . S
U326 O347 2.449 . S
O327 U326 2.454 . S
O327 C329 1.353 . S
O328 U326 2.458 . S
O328 C329 1.286 . S
C329 U326 2.984 . S
C329 O327 1.353 . S
C329 O328 1.286 . S
C329 C331 1.363 . S
C330 C320 1.465 . S
C330 U326 2.847 . S
C330 O344 1.249 . S
C330 O345 1.202 . S
C331 C329 1.363 . S
C331 C333 1.408 . S
C331 C336 1.342 . S
C332 C333 1.310 . S
C332 C335 1.461 . S
C332 H352 0.932 . S
C333 C331 1.408 . S
C333 C332 1.310 . S
C333 H353 0.930 . S
C334 C335 1.474 . S
C334 C336 1.285 . S
C334 H354 0.929 . S
C335 C332 1.461 . S
C335 C334 1.474 . S
C336 C331 1.342 . S
C336 C334 1.285 . S
C336 H355 0.930 . S
C337 C340 1.424 . S
C337 C342 1.245 . S
C337 C343 1.428 . S
C338 C341 1.260 . S
C338 C342 1.477 . S
C338 H356 0.932 . S
C339 C340 1.384 . S
C339 C341 1.479 . S
C339 H357 0.929 . S
C340 C337 1.424 . S
C340 C339 1.384 . S
C340 H358 0.928 . S
C341 C338 1.260 . S
C341 C339 1.479 . S
C342 C337 1.245 . S
C342 C338 1.477 . S
C342 H359 0.932 . S
C343 U326 2.882 . S
C343 C337 1.428 . S
C343 O346 1.301 . S
C343 O347 1.282 . S
O344 U326 2.441 . S
O344 C330 1.249 . S
O345 U326 2.420 . S
O345 C330 1.202 . S
O346 U326 2.455 . S
O346 C343 1.301 . S
O347 U326 2.449 . S
O347 C343 1.282 . S
H348 C321 0.931 . S
H349 C323 0.929 . S
H350 C324 0.977 . S
H351 C325 0.931 . S
H352 C332 0.932 . S
H353 C333 0.930 . S
H354 C334 0.929 . S
H355 C336 0.930 . S
H356 C338 0.932 . S
H357 C339 0.929 . S
H358 C340 0.928 . S
H359 C342 0.932 . S
C360 C361 1.264 . S
C360 C365 1.479 . S
C360 C370 1.465 . S
C361 C360 1.264 . S
C361 C363 1.339 . S
C361 H388 0.931 . S
C362 C363 1.395 . S
C362 C364 1.320 . S
C363 C361 1.339 . S
C363 C362 1.395 . S
C363 H389 0.929 . S
C364 C362 1.320 . S
C364 C365 1.405 . S
C364 H390 0.930 . S
C365 C360 1.479 . S
C365 C364 1.405 . S
C365 H391 0.931 . S
U366 O367 2.454 . S
U366 O368 2.458 . S
U366 C369 2.984 . S
U366 C370 2.847 . S
U366 C383 2.882 . S
U366 O384 2.441 . S
U366 O385 2.420 . S
U366 O386 2.455 . S
U366 O387 2.449 . S
O367 U366 2.454 . S
O367 C369 1.353 . S
O368 U366 2.458 . S
O368 C369 1.286 . S
C369 U366 2.984 . S
C369 O367 1.353 . S
C369 O368 1.286 . S
C369 C371 1.363 . S
C370 C360 1.465 . S
C370 U366 2.847 . S
C370 O384 1.249 . S
C370 O385 1.202 . S
C371 C369 1.363 . S
C371 C373 1.408 . S
C371 C376 1.342 . S
C372 C373 1.310 . S
C372 C375 1.461 . S
C372 H392 0.932 . S
C373 C371 1.408 . S
C373 C372 1.310 . S
C373 H393 0.930 . S
C374 C375 1.474 . S
C374 C376 1.285 . S
C374 H394 0.929 . S
C375 C372 1.461 . S
C375 C374 1.474 . S
C376 C371 1.342 . S
C376 C374 1.285 . S
C376 H395 0.930 . S
C377 C380 1.424 . S
C377 C382 1.245 . S
C377 C383 1.428 . S
C378 C381 1.260 . S
C378 C382 1.477 . S
C378 H396 0.932 . S
C379 C380 1.384 . S
C379 C381 1.479 . S
C379 H397 0.929 . S
C380 C377 1.424 . S
C380 C379 1.384 . S
C380 H398 0.928 . S
C381 C378 1.260 . S
C381 C379 1.479 . S
C382 C377 1.245 . S
C382 C378 1.477 . S
C382 H399 0.932 . S
C383 U366 2.882 . S
C383 C377 1.428 . S
C383 O386 1.301 . S
C383 O387 1.282 . S
O384 U366 2.441 . S
O384 C370 1.249 . S
O385 U366 2.420 . S
O385 C370 1.202 . S
O386 U366 2.455 . S
O386 C383 1.301 . S
O387 U366 2.449 . S
O387 C383 1.282 . S
H388 C361 0.931 . S
H389 C363 0.929 . S
H390 C364 0.930 . S
H391 C365 0.931 . S
H392 C372 0.932 . S
H393 C373 0.930 . S
H394 C374 0.929 . S
H395 C376 0.930 . S
H396 C378 0.932 . S
H397 C379 0.929 . S
H398 C380 0.928 . S
H399 C382 0.932 . S
C400 C401 1.264 . S
C400 C405 1.479 . S
C400 C410 1.465 . S
C401 C400 1.264 . S
C401 C403 1.339 . S
C401 H428 0.931 . S
C402 C403 1.395 . S
C402 C404 1.320 . S
C403 C401 1.339 . S
C403 C402 1.395 . S
C403 H429 0.929 . S
C404 C402 1.320 . S
C404 C405 1.405 . S
C404 H430 0.977 . S
C405 C400 1.479 . S
C405 C404 1.405 . S
C405 H431 0.931 . S
U406 O407 2.454 . S
U406 O408 2.458 . S
U406 C409 2.984 . S
U406 C410 2.847 . S
U406 C423 2.882 . S
U406 O424 2.441 . S
U406 O425 2.420 . S
U406 O426 2.455 . S
U406 O427 2.449 . S
O407 U406 2.454 . S
O407 C409 1.353 . S
O408 U406 2.458 . S
O408 C409 1.286 . S
C409 U406 2.984 . S
C409 O407 1.353 . S
C409 O408 1.286 . S
C409 C411 1.363 . S
C410 C400 1.465 . S
C410 U406 2.847 . S
C410 O424 1.249 . S
C410 O425 1.202 . S
C411 C409 1.363 . S
C411 C413 1.408 . S
C411 C416 1.342 . S
C412 C413 1.310 . S
C412 C415 1.461 . S
C412 H432 0.932 . S
C413 C411 1.408 . S
C413 C412 1.310 . S
C413 H433 0.930 . S
C414 C415 1.474 . S
C414 C416 1.285 . S
C414 H434 0.929 . S
C415 C412 1.461 . S
C415 C414 1.474 . S
C416 C411 1.342 . S
C416 C414 1.285 . S
C416 H435 0.930 . S
C417 C420 1.424 . S
C417 C422 1.245 . S
C417 C423 1.428 . S
C418 C421 1.260 . S
C418 C422 1.477 . S
C418 H436 0.932 . S
C419 C420 1.384 . S
C419 C421 1.479 . S
C419 H437 0.929 . S
C420 C417 1.424 . S
C420 C419 1.384 . S
C420 H438 0.928 . S
C421 C418 1.260 . S
C421 C419 1.479 . S
C422 C417 1.245 . S
C422 C418 1.477 . S
C422 H439 0.932 . S
C423 U406 2.882 . S
C423 C417 1.428 . S
C423 O426 1.301 . S
C423 O427 1.282 . S
O424 U406 2.441 . S
O424 C410 1.249 . S
O425 U406 2.420 . S
O425 C410 1.202 . S
O426 U406 2.455 . S
O426 C423 1.301 . S
O427 U406 2.449 . S
O427 C423 1.282 . S
H428 C401 0.931 . S
H429 C403 0.929 . S
H430 C404 0.977 . S
H431 C405 0.931 . S
H432 C412 0.932 . S
H433 C413 0.930 . S
H434 C414 0.929 . S
H435 C416 0.930 . S
H436 C418 0.932 . S
H437 C419 0.929 . S
H438 C420 0.928 . S
H439 C422 0.932 . S
C440 C441 1.264 . S
C440 C445 1.479 . S
C440 C450 1.465 . S
C441 C440 1.264 . S
C441 C443 1.339 . S
C441 H468 0.931 . S
C442 C443 1.395 . S
C442 C444 1.320 . S
C443 C441 1.339 . S
C443 C442 1.395 . S
C443 H469 0.929 . S
C444 C442 1.320 . S
C444 C445 1.405 . S
C444 H470 0.930 . S
C445 C440 1.479 . S
C445 C444 1.405 . S
C445 H471 0.931 . S
U446 O447 2.454 . S
U446 O448 2.458 . S
U446 C449 2.984 . S
U446 C450 2.847 . S
U446 C463 2.882 . S
U446 O464 2.441 . S
U446 O465 2.420 . S
U446 O466 2.455 . S
U446 O467 2.449 . S
O447 U446 2.454 . S
O447 C449 1.353 . S
O448 U446 2.458 . S
O448 C449 1.286 . S
C449 U446 2.984 . S
C449 O447 1.353 . S
C449 O448 1.286 . S
C449 C451 1.363 . S
C450 C440 1.465 . S
C450 U446 2.847 . S
C450 O464 1.249 . S
C450 O465 1.202 . S
C451 C449 1.363 . S
C451 C453 1.408 . S
C451 C456 1.342 . S
C452 C453 1.310 . S
C452 C455 1.461 . S
C452 H472 0.932 . S
C453 C451 1.408 . S
C453 C452 1.310 . S
C453 H473 0.930 . S
C454 C455 1.474 . S
C454 C456 1.285 . S
C454 H474 0.929 . S
C455 C452 1.461 . S
C455 C454 1.474 . S
C456 C451 1.342 . S
C456 C454 1.285 . S
C456 H475 0.930 . S
C457 C460 1.424 . S
C457 C462 1.245 . S
C457 C463 1.428 . S
C458 C461 1.260 . S
C458 C462 1.477 . S
C458 H476 0.932 . S
C459 C460 1.384 . S
C459 C461 1.479 . S
C459 H477 0.929 . S
C460 C457 1.424 . S
C460 C459 1.384 . S
C460 H478 0.928 . S
C461 C458 1.260 . S
C461 C459 1.479 . S
C462 C457 1.245 . S
C462 C458 1.477 . S
C462 H479 0.932 . S
C463 U446 2.882 . S
C463 C457 1.428 . S
C463 O466 1.301 . S
C463 O467 1.282 . S
O464 U446 2.441 . S
O464 C450 1.249 . S
O465 U446 2.420 . S
O465 C450 1.202 . S
O466 U446 2.455 . S
O466 C463 1.301 . S
O467 U446 2.449 . S
O467 C463 1.282 . S
H468 C441 0.931 . S
H469 C443 0.929 . S
H470 C444 0.930 . S
H471 C445 0.931 . S
H472 C452 0.932 . S
H473 C453 0.930 . S
H474 C454 0.929 . S
H475 C456 0.930 . S
H476 C458 0.932 . S
H477 C459 0.929 . S
H478 C460 0.928 . S
H479 C462 0.932 . S
C480 C481 1.264 . S
C480 C485 1.479 . S
C480 C490 1.465 . S
C481 C480 1.264 . S
C481 C483 1.339 . S
C481 H508 0.931 . S
C482 C483 1.395 . S
C482 C484 1.320 . S
C483 C481 1.339 . S
C483 C482 1.395 . S
C483 H509 0.929 . S
C484 C482 1.320 . S
C484 C485 1.405 . S
C484 H510 0.977 . S
C485 C480 1.479 . S
C485 C484 1.405 . S
C485 H511 0.931 . S
U486 O487 2.454 . S
U486 O488 2.458 . S
U486 C489 2.984 . S
U486 C490 2.847 . S
U486 C503 2.882 . S
U486 O504 2.441 . S
U486 O505 2.420 . S
U486 O506 2.455 . S
U486 O507 2.449 . S
O487 U486 2.454 . S
O487 C489 1.353 . S
O488 U486 2.458 . S
O488 C489 1.286 . S
C489 U486 2.984 . S
C489 O487 1.353 . S
C489 O488 1.286 . S
C489 C491 1.363 . S
C490 C480 1.465 . S
C490 U486 2.847 . S
C490 O504 1.249 . S
C490 O505 1.202 . S
C491 C489 1.363 . S
C491 C493 1.408 . S
C491 C496 1.342 . S
C492 C493 1.310 . S
C492 C495 1.461 . S
C492 H512 0.932 . S
C493 C491 1.408 . S
C493 C492 1.310 . S
C493 H513 0.930 . S
C494 C495 1.474 . S
C494 C496 1.285 . S
C494 H514 0.929 . S
C495 C492 1.461 . S
C495 C494 1.474 . S
C496 C491 1.342 . S
C496 C494 1.285 . S
C496 H515 0.930 . S
C497 C500 1.424 . S
C497 C502 1.245 . S
C497 C503 1.428 . S
C498 C501 1.260 . S
C498 C502 1.477 . S
C498 H516 0.932 . S
C499 C500 1.384 . S
C499 C501 1.479 . S
C499 H517 0.929 . S
C500 C497 1.424 . S
C500 C499 1.384 . S
C500 H518 0.928 . S
C501 C498 1.260 . S
C501 C499 1.479 . S
C502 C497 1.245 . S
C502 C498 1.477 . S
C502 H519 0.932 . S
C503 U486 2.882 . S
C503 C497 1.428 . S
C503 O506 1.301 . S
C503 O507 1.282 . S
O504 U486 2.441 . S
O504 C490 1.249 . S
O505 U486 2.420 . S
O505 C490 1.202 . S
O506 U486 2.455 . S
O506 C503 1.301 . S
O507 U486 2.449 . S
O507 C503 1.282 . S
H508 C481 0.931 . S
H509 C483 0.929 . S
H510 C484 0.977 . S
H511 C485 0.931 . S
H512 C492 0.932 . S
H513 C493 0.930 . S
H514 C494 0.929 . S
H515 C496 0.930 . S
H516 C498 0.932 . S
H517 C499 0.929 . S
H518 C500 0.928 . S
H519 C502 0.932 . S
C520 C521 1.264 . S
C520 C525 1.479 . S
C520 C530 1.465 . S
C521 C520 1.264 . S
C521 C523 1.339 . S
C521 H548 0.931 . S
C522 C523 1.395 . S
C522 C524 1.320 . S
C523 C521 1.339 . S
C523 C522 1.395 . S
C523 H549 0.929 . S
C524 C522 1.320 . S
C524 C525 1.405 . S
C524 H550 0.930 . S
C525 C520 1.479 . S
C525 C524 1.405 . S
C525 H551 0.931 . S
U526 O527 2.454 . S
U526 O528 2.458 . S
U526 C529 2.984 . S
U526 C530 2.847 . S
U526 C543 2.882 . S
U526 O544 2.441 . S
U526 O545 2.420 . S
U526 O546 2.455 . S
U526 O547 2.449 . S
O527 U526 2.454 . S
O527 C529 1.353 . S
O528 U526 2.458 . S
O528 C529 1.286 . S
C529 U526 2.984 . S
C529 O527 1.353 . S
C529 O528 1.286 . S
C529 C531 1.363 . S
C530 C520 1.465 . S
C530 U526 2.847 . S
C530 O544 1.249 . S
C530 O545 1.202 . S
C531 C529 1.363 . S
C531 C533 1.408 . S
C531 C536 1.342 . S
C532 C533 1.310 . S
C532 C535 1.461 . S
C532 H552 0.932 . S
C533 C531 1.408 . S
C533 C532 1.310 . S
C533 H553 0.930 . S
C534 C535 1.474 . S
C534 C536 1.285 . S
C534 H554 0.929 . S
C535 C532 1.461 . S
C535 C534 1.474 . S
C536 C531 1.342 . S
C536 C534 1.285 . S
C536 H555 0.930 . S
C537 C540 1.424 . S
C537 C542 1.245 . S
C537 C543 1.428 . S
C538 C541 1.260 . S
C538 C542 1.477 . S
C538 H556 0.932 . S
C539 C540 1.384 . S
C539 C541 1.479 . S
C539 H557 0.929 . S
C540 C537 1.424 . S
C540 C539 1.384 . S
C540 H558 0.928 . S
C541 C538 1.260 . S
C541 C539 1.479 . S
C542 C537 1.245 . S
C542 C538 1.477 . S
C542 H559 0.932 . S
C543 U526 2.882 . S
C543 C537 1.428 . S
C543 O546 1.301 . S
C543 O547 1.282 . S
O544 U526 2.441 . S
O544 C530 1.249 . S
O545 U526 2.420 . S
O545 C530 1.202 . S
O546 U526 2.455 . S
O546 C543 1.301 . S
O547 U526 2.449 . S
O547 C543 1.282 . S
H548 C521 0.931 . S
H549 C523 0.929 . S
H550 C524 0.930 . S
H551 C525 0.931 . S
H552 C532 0.932 . S
H553 C533 0.930 . S
H554 C534 0.929 . S
H555 C536 0.930 . S
H556 C538 0.932 . S
H557 C539 0.929 . S
H558 C540 0.928 . S
H559 C542 0.932 . S
C560 C561 1.264 . S
C560 C565 1.479 . S
C560 C570 1.465 . S
C561 C560 1.264 . S
C561 C563 1.339 . S
C561 H588 0.931 . S
C562 C563 1.395 . S
C562 C564 1.320 . S
C563 C561 1.339 . S
C563 C562 1.395 . S
C563 H589 0.929 . S
C564 C562 1.320 . S
C564 C565 1.405 . S
C564 H590 0.977 . S
C565 C560 1.479 . S
C565 C564 1.405 . S
C565 H591 0.931 . S
U566 O567 2.454 . S
U566 O568 2.458 . S
U566 C569 2.984 . S
U566 C570 2.847 . S
U566 C583 2.882 . S
U566 O584 2.441 . S
U566 O585 2.420 . S
U566 O586 2.455 . S
U566 O587 2.449 . S
O567 U566 2.454 . S
O567 C569 1.353 . S
O568 U566 2.458 . S
O568 C569 1.286 . S
C569 U566 2.984 . S
C569 O567 1.353 . S
C569 O568 1.286 . S
C569 C571 1.363 . S
C570 C560 1.465 . S
C570 U566 2.847 . S
C570 O584 1.249 . S
C570 O585 1.202 . S
C571 C569 1.363 . S
C571 C573 1.408 . S
C571 C576 1.342 . S
C572 C573 1.310 . S
C572 C575 1.461 . S
C572 H592 0.932 . S
C573 C571 1.408 . S
C573 C572 1.310 . S
C573 H593 0.930 . S
C574 C575 1.474 . S
C574 C576 1.285 . S
C574 H594 0.929 . S
C575 C572 1.461 . S
C575 C574 1.474 . S
C576 C571 1.342 . S
C576 C574 1.285 . S
C576 H595 0.930 . S
C577 C580 1.424 . S
C577 C582 1.245 . S
C577 C583 1.428 . S
C578 C581 1.260 . S
C578 C582 1.477 . S
C578 H596 0.932 . S
C579 C580 1.384 . S
C579 C581 1.479 . S
C579 H597 0.929 . S
C580 C577 1.424 . S
C580 C579 1.384 . S
C580 H598 0.928 . S
C581 C578 1.260 . S
C581 C579 1.479 . S
C582 C577 1.245 . S
C582 C578 1.477 . S
C582 H599 0.932 . S
C583 U566 2.882 . S
C583 C577 1.428 . S
C583 O586 1.301 . S
C583 O587 1.282 . S
O584 U566 2.441 . S
O584 C570 1.249 . S
O585 U566 2.420 . S
O585 C570 1.202 . S
O586 U566 2.455 . S
O586 C583 1.301 . S
O587 U566 2.449 . S
O587 C583 1.282 . S
H588 C561 0.931 . S
H589 C563 0.929 . S
H590 C564 0.977 . S
H591 C565 0.931 . S
H592 C572 0.932 . S
H593 C573 0.930 . S
H594 C574 0.929 . S
H595 C576 0.930 . S
H596 C578 0.932 . S
H597 C579 0.929 . S
H598 C580 0.928 . S
H599 C582 0.932 . S
C600 C601 1.264 . S
C600 C605 1.479 . S
C600 C610 1.465 . S
C601 C600 1.264 . S
C601 C603 1.339 . S
C601 H628 0.931 . S
C602 C603 1.395 . S
C602 C604 1.320 . S
C603 C601 1.339 . S
C603 C602 1.395 . S
C603 H629 0.929 . S
C604 C602 1.320 . S
C604 C605 1.405 . S
C604 H630 0.930 . S
C605 C600 1.479 . S
C605 C604 1.405 . S
C605 H631 0.931 . S
U606 O607 2.454 . S
U606 O608 2.458 . S
U606 C609 2.984 . S
U606 C610 2.847 . S
U606 C623 2.882 . S
U606 O624 2.441 . S
U606 O625 2.420 . S
U606 O626 2.455 . S
U606 O627 2.449 . S
O607 U606 2.454 . S
O607 C609 1.353 . S
O608 U606 2.458 . S
O608 C609 1.286 . S
C609 U606 2.984 . S
C609 O607 1.353 . S
C609 O608 1.286 . S
C609 C611 1.363 . S
C610 C600 1.465 . S
C610 U606 2.847 . S
C610 O624 1.249 . S
C610 O625 1.202 . S
C611 C609 1.363 . S
C611 C613 1.408 . S
C611 C616 1.342 . S
C612 C613 1.310 . S
C612 C615 1.461 . S
C612 H632 0.932 . S
C613 C611 1.408 . S
C613 C612 1.310 . S
C613 H633 0.930 . S
C614 C615 1.474 . S
C614 C616 1.285 . S
C614 H634 0.929 . S
C615 C612 1.461 . S
C615 C614 1.474 . S
C616 C611 1.342 . S
C616 C614 1.285 . S
C616 H635 0.930 . S
C617 C620 1.424 . S
C617 C622 1.245 . S
C617 C623 1.428 . S
C618 C621 1.260 . S
C618 C622 1.477 . S
C618 H636 0.932 . S
C619 C620 1.384 . S
C619 C621 1.479 . S
C619 H637 0.929 . S
C620 C617 1.424 . S
C620 C619 1.384 . S
C620 H638 0.928 . S
C621 C618 1.260 . S
C621 C619 1.479 . S
C622 C617 1.245 . S
C622 C618 1.477 . S
C622 H639 0.932 . S
C623 U606 2.882 . S
C623 C617 1.428 . S
C623 O626 1.301 . S
C623 O627 1.282 . S
O624 U606 2.441 . S
O624 C610 1.249 . S
O625 U606 2.420 . S
O625 C610 1.202 . S
O626 U606 2.455 . S
O626 C623 1.301 . S
O627 U606 2.449 . S
O627 C623 1.282 . S
H628 C601 0.931 . S
H629 C603 0.929 . S
H630 C604 0.930 . S
H631 C605 0.931 . S
H632 C612 0.932 . S
H633 C613 0.930 . S
H634 C614 0.929 . S
H635 C616 0.930 . S
H636 C618 0.932 . S
H637 C619 0.929 . S
H638 C620 0.928 . S
H639 C622 0.932 . S
H640 C646 0.930 . S
H641 C650 0.930 . S
H642 C655 0.929 . S
H643 C653 0.929 . S
H644 C648 0.929 . S
H645 C654 0.929 . S
C646 H640 0.930 . S
C646 C647 1.367 . S
C646 C654 1.378 . S
C647 C646 1.367 . S
C647 C655 1.433 . S
C648 H644 0.929 . S
C648 C650 1.378 . S
C648 C652 1.350 . S
C649 C652 1.463 . S
C649 C654 1.350 . S
C649 N657 1.427 . S
C650 H641 0.930 . S
C650 C648 1.378 . S
C650 C651 1.367 . S
C651 C650 1.367 . S
C651 C653 1.433 . S
C652 C648 1.350 . S
C652 C649 1.463 . S
C652 N656 1.427 . S
C653 H643 0.929 . S
C653 C651 1.433 . S
C653 N656 1.384 . S
C654 H645 0.929 . S
C654 C646 1.378 . S
C654 C649 1.350 . S
C655 H642 0.929 . S
C655 C647 1.433 . S
C655 N657 1.384 . S
N656 C652 1.427 . S
N656 C653 1.384 . S
N657 C649 1.427 . S
N657 C655 1.384 . S
H658 C664 0.930 . S
H659 C668 0.930 . S
H660 C673 0.929 . S
H661 C671 0.929 . S
H662 C666 0.929 . S
H663 C672 0.929 . S
C664 H658 0.930 . S
C664 C665 1.367 . S
C664 C672 1.378 . S
C665 C664 1.367 . S
C665 C673 1.433 . S
C666 H662 0.929 . S
C666 C668 1.378 . S
C666 C670 1.350 . S
C667 C670 1.463 . S
C667 C672 1.350 . S
C667 N675 1.427 . S
C668 H659 0.930 . S
C668 C666 1.378 . S
C668 C669 1.367 . S
C669 C668 1.367 . S
C669 C671 1.433 . S
C670 C666 1.350 . S
C670 C667 1.463 . S
C670 N674 1.427 . S
C671 H661 0.929 . S
C671 C669 1.433 . S
C671 N674 1.384 . S
C672 H663 0.929 . S
C672 C664 1.378 . S
C672 C667 1.350 . S
C673 H660 0.929 . S
C673 C665 1.433 . S
C673 N675 1.384 . S
N674 C670 1.427 . S
N674 C671 1.384 . S
N675 C667 1.427 . S
N675 C673 1.384 . S
H676 C682 0.930 . S
H677 C686 0.930 . S
H678 C691 0.929 . S
H679 C689 0.929 . S
H680 C684 0.929 . S
H681 C690 0.929 . S
C682 H676 0.930 . S
C682 C683 1.367 . S
C682 C690 1.378 . S
C683 C682 1.367 . S
C683 C691 1.433 . S
C684 H680 0.929 . S
C684 C686 1.378 . S
C684 C688 1.350 . S
C685 C688 1.463 . S
C685 C690 1.350 . S
C685 N693 1.427 . S
C686 H677 0.930 . S
C686 C684 1.378 . S
C686 C687 1.367 . S
C687 C686 1.367 . S
C687 C689 1.433 . S
C688 C684 1.350 . S
C688 C685 1.463 . S
C688 N692 1.427 . S
C689 H679 0.929 . S
C689 C687 1.433 . S
C689 N692 1.384 . S
C690 H681 0.929 . S
C690 C682 1.378 . S
C690 C685 1.350 . S
C691 H678 0.929 . S
C691 C683 1.433 . S
C691 N693 1.384 . S
N692 C688 1.427 . S
N692 C689 1.384 . S
N693 C685 1.427 . S
N693 C691 1.384 . S
H694 C700 0.930 . S
H695 C704 0.930 . S
H696 C709 0.929 . S
H697 C707 0.929 . S
H698 C702 0.929 . S
H699 C708 0.929 . S
C700 H694 0.930 . S
C700 C701 1.367 . S
C700 C708 1.378 . S
C701 C700 1.367 . S
C701 C709 1.433 . S
C702 H698 0.929 . S
C702 C704 1.378 . S
C702 C706 1.350 . S
C703 C706 1.463 . S
C703 C708 1.350 . S
C703 N711 1.427 . S
C704 H695 0.930 . S
C704 C702 1.378 . S
C704 C705 1.367 . S
C705 C704 1.367 . S
C705 C707 1.433 . S
C706 C702 1.350 . S
C706 C703 1.463 . S
C706 N710 1.427 . S
C707 H697 0.929 . S
C707 C705 1.433 . S
C707 N710 1.384 . S
C708 H699 0.929 . S
C708 C700 1.378 . S
C708 C703 1.350 . S
C709 H696 0.929 . S
C709 C701 1.433 . S
C709 N711 1.384 . S
N710 C706 1.427 . S
N710 C707 1.384 . S
N711 C703 1.427 . S
N711 C709 1.384 . S
H712 C718 0.930 . S
H713 C722 0.930 . S
H714 C727 0.929 . S
H715 C725 0.929 . S
H716 C720 0.929 . S
H717 C726 0.929 . S
C718 H712 0.930 . S
C718 C719 1.367 . S
C718 C726 1.378 . S
C719 C718 1.367 . S
C719 C727 1.433 . S
C720 H716 0.929 . S
C720 C722 1.378 . S
C720 C724 1.350 . S
C721 C724 1.463 . S
C721 C726 1.350 . S
C721 N729 1.427 . S
C722 H713 0.930 . S
C722 C720 1.378 . S
C722 C723 1.367 . S
C723 C722 1.367 . S
C723 C725 1.433 . S
C724 C720 1.350 . S
C724 C721 1.463 . S
C724 N728 1.427 . S
C725 H715 0.929 . S
C725 C723 1.433 . S
C725 N728 1.384 . S
C726 H717 0.929 . S
C726 C718 1.378 . S
C726 C721 1.350 . S
C727 H714 0.929 . S
C727 C719 1.433 . S
C727 N729 1.384 . S
N728 C724 1.427 . S
N728 C725 1.384 . S
N729 C721 1.427 . S
N729 C727 1.384 . S
H730 C736 0.930 . S
H731 C740 0.930 . S
H732 C745 0.929 . S
H733 C743 0.929 . S
H734 C738 0.929 . S
H735 C744 0.929 . S
C736 H730 0.930 . S
C736 C737 1.367 . S
C736 C744 1.378 . S
C737 C736 1.367 . S
C737 C745 1.433 . S
C738 H734 0.929 . S
C738 C740 1.378 . S
C738 C742 1.350 . S
C739 C742 1.463 . S
C739 C744 1.350 . S
C739 N747 1.427 . S
C740 H731 0.930 . S
C740 C738 1.378 . S
C740 C741 1.367 . S
C741 C740 1.367 . S
C741 C743 1.433 . S
C742 C738 1.350 . S
C742 C739 1.463 . S
C742 N746 1.427 . S
C743 H733 0.929 . S
C743 C741 1.433 . S
C743 N746 1.384 . S
C744 H735 0.929 . S
C744 C736 1.378 . S
C744 C739 1.350 . S
C745 H732 0.929 . S
C745 C737 1.433 . S
C745 N747 1.384 . S
N746 C742 1.427 . S
N746 C743 1.384 . S
N747 C739 1.427 . S
N747 C745 1.384 . S
H748 C754 0.930 . S
H749 C758 0.930 . S
H750 C763 0.929 . S
H751 C761 0.929 . S
H752 C756 0.929 . S
H753 C762 0.929 . S
C754 H748 0.930 . S
C754 C755 1.367 . S
C754 C762 1.378 . S
C755 C754 1.367 . S
C755 C763 1.433 . S
C756 H752 0.929 . S
C756 C758 1.378 . S
C756 C760 1.350 . S
C757 C760 1.463 . S
C757 C762 1.350 . S
C757 N765 1.427 . S
C758 H749 0.930 . S
C758 C756 1.378 . S
C758 C759 1.367 . S
C759 C758 1.367 . S
C759 C761 1.433 . S
C760 C756 1.350 . S
C760 C757 1.463 . S
C760 N764 1.427 . S
C761 H751 0.929 . S
C761 C759 1.433 . S
C761 N764 1.384 . S
C762 H753 0.929 . S
C762 C754 1.378 . S
C762 C757 1.350 . S
C763 H750 0.929 . S
C763 C755 1.433 . S
C763 N765 1.384 . S
N764 C760 1.427 . S
N764 C761 1.384 . S
N765 C757 1.427 . S
N765 C763 1.384 . S
H766 C772 0.930 . S
H767 C776 0.930 . S
H768 C781 0.929 . S
H769 C779 0.929 . S
H770 C774 0.929 . S
H771 C780 0.929 . S
C772 H766 0.930 . S
C772 C773 1.367 . S
C772 C780 1.378 . S
C773 C772 1.367 . S
C773 C781 1.433 . S
C774 H770 0.929 . S
C774 C776 1.378 . S
C774 C778 1.350 . S
C775 C778 1.463 . S
C775 C780 1.350 . S
C775 N783 1.427 . S
C776 H767 0.930 . S
C776 C774 1.378 . S
C776 C777 1.367 . S
C777 C776 1.367 . S
C777 C779 1.433 . S
C778 C774 1.350 . S
C778 C775 1.463 . S
C778 N782 1.427 . S
C779 H769 0.929 . S
C779 C777 1.433 . S
C779 N782 1.384 . S
C780 H771 0.929 . S
C780 C772 1.378 . S
C780 C775 1.350 . S
C781 H768 0.929 . S
C781 C773 1.433 . S
C781 N783 1.384 . S
N782 C778 1.427 . S
N782 C779 1.384 . S
N783 C775 1.427 . S
N783 C781 1.384 . S
H784 C790 0.930 . S
H785 C794 0.930 . S
H786 C799 0.945 . S
H787 C797 0.945 . S
H788 C792 0.929 . S
H789 C798 0.929 . S
C790 H784 0.930 . S
C790 C791 1.367 . S
C790 C798 1.378 . S
C791 C790 1.367 . S
C791 C799 1.433 . S
C792 H788 0.929 . S
C792 C794 1.378 . S
C792 C796 1.350 . S
C793 C796 1.463 1_554 S
C793 C798 1.350 . S
C793 N801 1.427 1_554 S
C794 H785 0.930 . S
C794 C792 1.378 . S
C794 C795 1.367 . S
C795 C794 1.367 . S
C795 C797 1.433 . S
C796 C792 1.350 . S
C796 C793 1.463 1_556 S
C796 N800 1.427 1_556 S
C797 H787 0.945 . S
C797 C795 1.433 . S
C797 N800 1.384 1_556 S
C798 H789 0.929 . S
C798 C790 1.378 . S
C798 C793 1.350 . S
C799 H786 0.945 . S
C799 C791 1.433 . S
C799 N801 1.384 1_554 S
N800 C796 1.427 1_554 S
N800 C797 1.384 1_554 S
N801 C793 1.427 1_556 S
N801 C799 1.384 1_556 S
H802 C808 0.930 . S
H803 C812 0.930 . S
H804 C817 0.929 . S
H805 C815 0.929 . S
H806 C810 0.929 . S
H807 C816 0.929 . S
C808 H802 0.930 . S
C808 C809 1.367 . S
C808 C816 1.378 . S
C809 C808 1.367 . S
C809 C817 1.433 . S
C810 H806 0.929 . S
C810 C812 1.378 . S
C810 C814 1.350 . S
C811 C814 1.463 . S
C811 C816 1.350 . S
C811 N819 1.427 . S
C812 H803 0.930 . S
C812 C810 1.378 . S
C812 C813 1.367 . S
C813 C812 1.367 . S
C813 C815 1.433 . S
C814 C810 1.350 . S
C814 C811 1.463 . S
C814 N818 1.427 . S
C815 H805 0.929 . S
C815 C813 1.433 . S
C815 N818 1.384 . S
C816 H807 0.929 . S
C816 C808 1.378 . S
C816 C811 1.350 . S
C817 H804 0.929 . S
C817 C809 1.433 . S
C817 N819 1.384 . S
N818 C814 1.427 . S
N818 C815 1.384 . S
N819 C811 1.427 . S
N819 C817 1.384 . S
H820 C826 0.930 . S
H821 C830 0.930 . S
H822 C835 0.929 . S
H823 C833 0.929 . S
H824 C828 0.929 . S
H825 C834 0.929 . S
C826 H820 0.930 . S
C826 C827 1.367 1_554 S
C826 C834 1.378 . S
C827 C826 1.367 1_556 S
C827 C835 1.433 . S
C828 H824 0.929 . S
C828 C830 1.378 . S
C828 C832 1.350 1_556 S
C829 C832 1.463 1_556 S
C829 C834 1.350 1_556 S
C829 N837 1.427 . S
C830 H821 0.930 . S
C830 C828 1.378 . S
C830 C831 1.367 1_556 S
C831 C830 1.367 1_554 S
C831 C833 1.433 . S
C832 C828 1.350 1_554 S
C832 C829 1.463 1_554 S
C832 N836 1.427 . S
C833 H823 0.929 . S
C833 C831 1.433 . S
C833 N836 1.384 . S
C834 H825 0.929 . S
C834 C826 1.378 . S
C834 C829 1.350 1_554 S
C835 H822 0.929 . S
C835 C827 1.433 . S
C835 N837 1.384 . S
N836 C832 1.427 . S
N836 C833 1.384 . S
N837 C829 1.427 . S
N837 C835 1.384 . S
H838 C844 0.930 . S
H839 C848 0.930 . S
H840 C853 0.929 . S
H841 C851 0.929 . S
H842 C846 0.929 . S
H843 C852 0.929 . S
C844 H838 0.930 . S
C844 C845 1.367 . S
C844 C852 1.378 . S
C845 C844 1.367 . S
C845 C853 1.433 . S
C846 H842 0.929 . S
C846 C848 1.378 . S
C846 C850 1.350 . S
C847 C850 1.463 . S
C847 C852 1.350 . S
C847 N855 1.427 . S
C848 H839 0.930 . S
C848 C846 1.378 . S
C848 C849 1.367 . S
C849 C848 1.367 . S
C849 C851 1.433 . S
C850 C846 1.350 . S
C850 C847 1.463 . S
C850 N854 1.427 . S
C851 H841 0.929 . S
C851 C849 1.433 . S
C851 N854 1.384 . S
C852 H843 0.929 . S
C852 C844 1.378 . S
C852 C847 1.350 . S
C853 H840 0.929 . S
C853 C845 1.433 . S
C853 N855 1.384 . S
N854 C850 1.427 . S
N854 C851 1.384 . S
N855 C847 1.427 . S
N855 C853 1.384 . S
H856 C862 0.930 1_556 S
H857 C866 0.930 1_554 S
H858 C871 0.929 . S
H859 C869 0.929 . S
H860 C864 0.929 . S
H861 C870 0.929 . S
C862 H856 0.930 1_554 S
C862 C863 1.367 . S
C862 C870 1.378 1_554 S
C863 C862 1.367 . S
C863 C871 1.433 . S
C864 H860 0.929 . S
C864 C866 1.378 1_554 S
C864 C868 1.350 1_554 S
C865 C868 1.463 1_554 S
C865 C870 1.350 1_554 S
C865 N873 1.427 . S
C866 H857 0.930 1_556 S
C866 C864 1.378 1_556 S
C866 C867 1.367 . S
C867 C866 1.367 . S
C867 C869 1.433 . S
C868 C864 1.350 1_556 S
C868 C865 1.463 1_556 S
C868 N872 1.427 . S
C869 H859 0.929 . S
C869 C867 1.433 . S
C869 N872 1.384 . S
C870 H861 0.929 . S
C870 C862 1.378 1_556 S
C870 C865 1.350 1_556 S
C871 H858 0.929 . S
C871 C863 1.433 . S
C871 N873 1.384 . S
N872 C868 1.427 . S
N872 C869 1.384 . S
N873 C865 1.427 . S
N873 C871 1.384 . S
H874 C880 0.930 . S
H875 C884 0.930 . S
H876 C889 0.929 . S
H877 C887 0.929 . S
H878 C882 0.929 . S
H879 C888 0.929 . S
C880 H874 0.930 . S
C880 C881 1.367 . S
C880 C888 1.378 . S
C881 C880 1.367 . S
C881 C889 1.433 . S
C882 H878 0.929 . S
C882 C884 1.378 . S
C882 C886 1.350 . S
C883 C886 1.463 . S
C883 C888 1.350 . S
C883 N891 1.427 . S
C884 H875 0.930 . S
C884 C882 1.378 . S
C884 C885 1.367 . S
C885 C884 1.367 . S
C885 C887 1.433 . S
C886 C882 1.350 . S
C886 C883 1.463 . S
C886 N890 1.427 . S
C887 H877 0.929 . S
C887 C885 1.433 . S
C887 N890 1.384 . S
C888 H879 0.929 . S
C888 C880 1.378 . S
C888 C883 1.350 . S
C889 H876 0.929 . S
C889 C881 1.433 . S
C889 N891 1.384 . S
N890 C886 1.427 . S
N890 C887 1.384 . S
N891 C883 1.427 . S
N891 C889 1.384 . S
H892 C898 0.930 . S
H893 C902 0.930 . S
H894 C907 0.948 . S
H895 C905 0.948 . S
H896 C900 0.929 . S
H897 C906 0.929 . S
C898 H892 0.930 . S
C898 C899 1.367 . S
C898 C906 1.378 . S
C899 C898 1.367 . S
C899 C907 1.402 1_554 S
C900 H896 0.929 . S
C900 C902 1.378 . S
C900 C904 1.350 . S
C901 C904 1.463 1_554 S
C901 C906 1.350 . S
C901 N909 1.427 1_554 S
C902 H893 0.930 . S
C902 C900 1.378 . S
C902 C903 1.367 . S
C903 C902 1.367 . S
C903 C905 1.402 1_556 S
C904 C900 1.350 . S
C904 C901 1.463 1_556 S
C904 N908 1.427 1_556 S
C905 H895 0.948 . S
C905 C903 1.402 1_554 S
C905 N908 1.396 . S
C906 H897 0.929 . S
C906 C898 1.378 . S
C906 C901 1.350 . S
C907 H894 0.948 . S
C907 C899 1.402 1_556 S
C907 N909 1.396 . S
N908 C904 1.427 1_554 S
N908 C905 1.396 . S
N909 C901 1.427 1_556 S
N909 C907 1.396 . S
H910 C916 0.930 . S
H911 C920 0.930 . S
H912 C925 0.929 . S
H913 C923 0.929 . S
H914 C918 0.929 . S
H915 C924 0.929 . S
C916 H910 0.930 . S
C916 C917 1.367 . S
C916 C924 1.378 . S
C917 C916 1.367 . S
C917 C925 1.433 . S
C918 H914 0.929 . S
C918 C920 1.378 . S
C918 C922 1.350 . S
C919 C922 1.463 . S
C919 C924 1.350 . S
C919 N927 1.427 . S
C920 H911 0.930 . S
C920 C918 1.378 . S
C920 C921 1.367 . S
C921 C920 1.367 . S
C921 C923 1.433 . S
C922 C918 1.350 . S
C922 C919 1.463 . S
C922 N926 1.427 . S
C923 H913 0.929 . S
C923 C921 1.433 . S
C923 N926 1.384 . S
C924 H915 0.929 . S
C924 C916 1.378 . S
C924 C919 1.350 . S
C925 H912 0.929 . S
C925 C917 1.433 . S
C925 N927 1.384 . S
N926 C922 1.427 . S
N926 C923 1.384 . S
N927 C919 1.427 . S
N927 C925 1.384 . S
H928 C934 0.930 . S
H929 C938 0.930 . S
H930 C943 0.929 . S
H931 C941 0.929 . S
H932 C936 0.929 . S
H933 C942 0.929 . S
C934 H928 0.930 . S
C934 C935 1.367 1_554 S
C934 C942 1.378 . S
C935 C934 1.367 1_556 S
C935 C943 1.433 . S
C936 H932 0.929 . S
C936 C938 1.378 . S
C936 C940 1.350 1_556 S
C937 C940 1.463 1_656 S
C937 C942 1.350 1_556 S
C937 N945 1.427 . S
C938 H929 0.930 . S
C938 C936 1.378 . S
C938 C939 1.367 1_556 S
C939 C938 1.367 1_554 S
C939 C941 1.433 . S
C940 C936 1.350 1_554 S
C940 C937 1.463 1_454 S
C940 N944 1.427 . S
C941 H931 0.929 . S
C941 C939 1.433 . S
C941 N944 1.384 . S
C942 H933 0.929 . S
C942 C934 1.378 . S
C942 C937 1.350 1_554 S
C943 H930 0.929 . S
C943 C935 1.433 . S
C943 N945 1.384 . S
N944 C940 1.427 . S
N944 C941 1.384 . S
N945 C937 1.427 . S
N945 C943 1.384 . S
H946 C952 0.930 . S
H947 C956 0.930 . S
H948 C961 0.929 . S
H949 C959 0.929 . S
H950 C954 0.929 1_545 S
H951 C960 0.929 1_565 S
C952 H946 0.930 . S
C952 C953 1.367 . S
C952 C960 1.378 . S
C953 C952 1.367 . S
C953 C961 1.433 . S
C954 H950 0.929 1_565 S
C954 C956 1.378 . S
C954 C958 1.350 . S
C955 C958 1.463 1_445 S
C955 C960 1.350 . S
C955 N963 1.427 . S
C956 H947 0.930 . S
C956 C954 1.378 . S
C956 C957 1.367 . S
C957 C956 1.367 . S
C957 C959 1.433 . S
C958 C954 1.350 . S
C958 C955 1.463 1_665 S
C958 N962 1.427 . S
C959 H949 0.929 . S
C959 C957 1.433 . S
C959 N962 1.384 . S
C960 H951 0.929 1_545 S
C960 C952 1.378 . S
C960 C955 1.350 . S
C961 H948 0.929 . S
C961 C953 1.433 . S
C961 N963 1.384 . S
N962 C958 1.427 . S
N962 C959 1.384 . S
N963 C955 1.427 . S
N963 C961 1.384 . S
H964 C970 0.930 . S
H965 C974 0.930 . S
H966 C979 0.929 . S
H967 C977 0.929 . S
H968 C972 0.929 . S
H969 C978 0.929 . S
C970 H964 0.930 . S
C970 C971 1.367 . S
C970 C978 1.378 1_545 S
C971 C970 1.367 . S
C971 C979 1.433 . S
C972 H968 0.929 . S
C972 C974 1.378 1_545 S
C972 C976 1.350 1_545 S
C973 C976 1.463 1_544 S
C973 C978 1.350 1_545 S
C973 N981 1.427 . S
C974 H965 0.930 . S
C974 C972 1.378 1_565 S
C974 C975 1.367 . S
C975 C974 1.367 . S
C975 C977 1.433 . S
C976 C972 1.350 1_565 S
C976 C973 1.463 1_566 S
C976 N980 1.427 . S
C977 H967 0.929 . S
C977 C975 1.433 . S
C977 N980 1.384 . S
C978 H969 0.929 . S
C978 C970 1.378 1_565 S
C978 C973 1.350 1_565 S
C979 H966 0.929 . S
C979 C971 1.433 . S
C979 N981 1.384 . S
N980 C976 1.427 . S
N980 C977 1.384 . S
N981 C973 1.427 . S
N981 C979 1.384 . S
H982 C988 0.930 . S
H983 C992 0.930 . S
H984 C997 0.929 . S
H985 C995 0.929 . S
H986 C990 0.929 . S
H987 C996 0.929 . S
C988 H982 0.930 . S
C988 C989 1.367 . S
C988 C996 1.378 . S
C989 C988 1.367 . S
C989 C997 1.433 . S
C990 H986 0.929 . S
C990 C992 1.378 . S
C990 C994 1.350 . S
C991 C994 1.463 . S
C991 C996 1.350 . S
C991 N999 1.427 . S
C992 H983 0.930 . S
C992 C990 1.378 . S
C992 C993 1.367 . S
C993 C992 1.367 . S
C993 C995 1.433 . S
C994 C990 1.350 . S
C994 C991 1.463 . S
C994 N998 1.427 . S
C995 H985 0.929 . S
C995 C993 1.433 . S
C995 N998 1.384 . S
C996 H987 0.929 . S
C996 C988 1.378 . S
C996 C991 1.350 . S
C997 H984 0.929 . S
C997 C989 1.433 . S
C997 N999 1.384 . S
N998 C994 1.427 . S
N998 C995 1.384 . S
N999 C991 1.427 . S
N999 C997 1.384 . S
H1000 C1006 0.930 . S
H1001 C1010 0.930 . S
H1002 C1015 0.929 . S
H1003 C1013 0.929 . S
H1004 C1008 0.929 1_455 S
H1005 C1014 0.929 1_655 S
C1006 H1000 0.930 . S
C1006 C1007 1.367 . S
C1006 C1014 1.378 . S
C1007 C1006 1.367 . S
C1007 C1015 1.433 . S
C1008 H1004 0.929 1_655 S
C1008 C1010 1.378 . S
C1008 C1012 1.350 . S
C1009 C1012 1.463 1_446 S
C1009 C1014 1.350 . S
C1009 N1017 1.427 1_545 S
C1010 H1001 0.930 . S
C1010 C1008 1.378 . S
C1010 C1011 1.367 . S
C1011 C1010 1.367 . S
C1011 C1013 1.433 . S
C1012 C1008 1.350 . S
C1012 C1009 1.463 1_664 S
C1012 N1016 1.427 1_565 S
C1013 H1003 0.929 . S
C1013 C1011 1.433 . S
C1013 N1016 1.384 1_565 S
C1014 H1005 0.929 1_455 S
C1014 C1006 1.378 . S
C1014 C1009 1.350 . S
C1015 H1002 0.929 . S
C1015 C1007 1.433 . S
C1015 N1017 1.384 1_545 S
N1016 C1012 1.427 1_545 S
N1016 C1013 1.384 1_545 S
N1017 C1009 1.427 1_565 S
N1017 C1015 1.384 1_565 S
H1018 C1024 0.930 . S
H1019 C1028 0.930 . S
H1020 C1033 0.929 . S
H1021 C1031 0.929 . S
H1022 C1026 0.929 . S
H1023 C1032 0.929 . S
C1024 H1018 0.930 . S
C1024 C1025 1.367 . S
C1024 C1032 1.378 . S
C1025 C1024 1.367 . S
C1025 C1033 1.433 . S
C1026 H1022 0.929 . S
C1026 C1028 1.378 . S
C1026 C1030 1.350 . S
C1027 C1030 1.463 1_545 S
C1027 C1032 1.350 . S
C1027 N1035 1.427 . S
C1028 H1019 0.930 . S
C1028 C1026 1.378 . S
C1028 C1029 1.367 . S
C1029 C1028 1.367 . S
C1029 C1031 1.433 . S
C1030 C1026 1.350 . S
C1030 C1027 1.463 1_565 S
C1030 N1034 1.427 . S
C1031 H1021 0.929 . S
C1031 C1029 1.433 . S
C1031 N1034 1.384 . S
C1032 H1023 0.929 . S
C1032 C1024 1.378 . S
C1032 C1027 1.350 . S
C1033 H1020 0.929 . S
C1033 C1025 1.433 . S
C1033 N1035 1.384 . S
N1034 C1030 1.427 . S
N1034 C1031 1.384 . S
N1035 C1027 1.427 . S
N1035 C1033 1.384 . S
H1036 C1042 0.916 1_556 S
H1037 C1046 0.916 1_554 S
H1038 C1051 0.929 . S
H1039 C1049 0.929 . S
H1040 C1044 0.929 . S
H1041 C1050 0.929 . S
C1042 H1036 0.916 1_554 S
C1042 C1043 1.393 . S
C1042 C1050 1.367 1_554 S
C1043 C1042 1.393 . S
C1043 C1051 1.433 . S
C1044 H1040 0.929 . S
C1044 C1046 1.367 1_554 S
C1044 C1048 1.350 1_554 S
C1045 C1048 1.463 1_554 S
C1045 C1050 1.350 1_554 S
C1045 N1053 1.427 . S
C1046 H1037 0.916 1_556 S
C1046 C1044 1.367 1_556 S
C1046 C1047 1.393 . S
C1047 C1046 1.393 . S
C1047 C1049 1.433 . S
C1048 C1044 1.350 1_556 S
C1048 C1045 1.463 1_556 S
C1048 N1052 1.427 . S
C1049 H1039 0.929 . S
C1049 C1047 1.433 . S
C1049 N1052 1.384 . S
C1050 H1041 0.929 . S
C1050 C1042 1.367 1_556 S
C1050 C1045 1.350 1_556 S
C1051 H1038 0.929 . S
C1051 C1043 1.433 . S
C1051 N1053 1.384 . S
N1052 C1048 1.427 . S
N1052 C1049 1.384 . S
N1053 C1045 1.427 . S
N1053 C1051 1.384 . S
H1054 C1060 0.930 . S
H1055 C1064 0.930 . S
H1056 C1069 0.929 . S
H1057 C1067 0.929 . S
H1058 C1062 0.929 . S
H1059 C1068 0.929 . S
C1060 H1054 0.930 . S
C1060 C1061 1.367 . S
C1060 C1068 1.378 . S
C1061 C1060 1.367 . S
C1061 C1069 1.433 . S
C1062 H1058 0.929 . S
C1062 C1064 1.378 . S
C1062 C1066 1.350 . S
C1063 C1066 1.463 1_655 S
C1063 C1068 1.350 . S
C1063 N1071 1.427 1_655 S
C1064 H1055 0.930 . S
C1064 C1062 1.378 . S
C1064 C1065 1.367 . S
C1065 C1064 1.367 . S
C1065 C1067 1.433 . S
C1066 C1062 1.350 . S
C1066 C1063 1.463 1_455 S
C1066 N1070 1.427 1_455 S
C1067 H1057 0.929 . S
C1067 C1065 1.433 . S
C1067 N1070 1.384 1_455 S
C1068 H1059 0.929 . S
C1068 C1060 1.378 . S
C1068 C1063 1.350 . S
C1069 H1056 0.929 . S
C1069 C1061 1.433 . S
C1069 N1071 1.384 1_655 S
N1070 C1066 1.427 1_655 S
N1070 C1067 1.384 1_655 S
N1071 C1063 1.427 1_455 S
N1071 C1069 1.384 1_455 S
C647 C21 1.723 . S
C651 C301 1.717 . S
C665 C61 1.728 . S
C669 C181 1.724 . S
C683 C221 1.714 . S
C687 C101 1.716 . S
C701 C261 1.715 . S
C705 C141 1.719 . S
C719 C341 1.803 . S
C723 C621 1.803 . S
C737 C501 1.800 . S
C741 C381 1.800 . S
C755 C541 1.801 . S
C759 C421 1.801 . S
C773 C461 1.803 . S
C777 C581 1.802 . S
C791 C15 1.696 . S
C795 C175 1.700 . S
C809 C215 1.697 . S
C813 C55 1.701 . S
C827 C255 1.701 . S
C831 C95 1.699 . S
C845 C135 1.699 . S
C849 C295 1.701 . S
C863 C495 1.702 . S
C867 C335 1.704 . S
C881 C535 1.702 . S
C885 C375 1.704 . S
C899 C575 1.702 . S
C903 C415 1.700 . S
C917 C455 1.704 . S
C921 C615 1.701 . S
C935 C322 1.856 . S
C939 C2 1.770 . S
C953 C42 1.761 . S
C957 C362 1.853 . S
C971 C82 1.772 . S
C975 C402 1.857 . S
C989 C442 1.852 . S
C993 C122 1.758 . S
C1007 C162 1.758 . S
C1011 C482 1.852 . S
C1025 C202 1.772 . S
C1029 C522 1.857 . S
C1043 C562 1.856 . S
C1047 C242 1.772 . S
C1061 C602 1.852 . S
C1065 C282 1.758 . S
