# Generated by pormake.
# Topology pcb, (4)-cn, num edge types: 1
# Building blocks:
#     Node 0, Type 0, BuildingBlock: GALJAG_clean_sbu_0, # of connection points: 4
#     Node 1, Type 0, BuildingBlock: GALJAG_clean_sbu_0, # of connection points: 4
#     Node 2, Type 0, BuildingBlock: GALJAG_clean_sbu_0, # of connection points: 4
#     Node 3, Type 0, BuildingBlock: GALJAG_clean_sbu_0, # of connection points: 4
#     Node 4, Type 0, BuildingBlock: GALJAG_clean_sbu_0, # of connection points: 4
#     Node 5, Type 0, BuildingBlock: GALJAG_clean_sbu_0, # of connection points: 4
#     Node 6, Type 0, BuildingBlock: GALJAG_clean_sbu_0, # of connection points: 4
#     Node 7, Type 0, BuildingBlock: GALJAG_clean_sbu_0, # of connection points: 4
#     Node 8, Type 0, BuildingBlock: GALJAG_clean_sbu_0, # of connection points: 4
#     Node 9, Type 0, BuildingBlock: GALJAG_clean_sbu_0, # of connection points: 4
#     Node 10, Type 0, BuildingBlock: GALJAG_clean_sbu_0, # of connection points: 4
#     Node 11, Type 0, BuildingBlock: GALJAG_clean_sbu_0, # of connection points: 4
#     Node 12, Type 0, BuildingBlock: GALJAG_clean_sbu_0, # of connection points: 4
#     Node 13, Type 0, BuildingBlock: GALJAG_clean_sbu_0, # of connection points: 4
#     Node 14, Type 0, BuildingBlock: GALJAG_clean_sbu_0, # of connection points: 4
#     Node 15, Type 0, BuildingBlock: GALJAG_clean_sbu_0, # of connection points: 4
#     Edge 16, Type (0, 0), BuildingBlock: AJUNOK_clean_linker_0, # of connection points: 2
#     Edge 17, Type (0, 0), BuildingBlock: AJUNOK_clean_linker_0, # of connection points: 2
#     Edge 18, Type (0, 0), BuildingBlock: AJUNOK_clean_linker_0, # of connection points: 2
#     Edge 19, Type (0, 0), BuildingBlock: AJUNOK_clean_linker_0, # of connection points: 2
#     Edge 20, Type (0, 0), BuildingBlock: AJUNOK_clean_linker_0, # of connection points: 2
#     Edge 21, Type (0, 0), BuildingBlock: AJUNOK_clean_linker_0, # of connection points: 2
#     Edge 22, Type (0, 0), BuildingBlock: AJUNOK_clean_linker_0, # of connection points: 2
#     Edge 23, Type (0, 0), BuildingBlock: AJUNOK_clean_linker_0, # of connection points: 2
#     Edge 24, Type (0, 0), BuildingBlock: AJUNOK_clean_linker_0, # of connection points: 2
#     Edge 25, Type (0, 0), BuildingBlock: AJUNOK_clean_linker_0, # of connection points: 2
#     Edge 26, Type (0, 0), BuildingBlock: AJUNOK_clean_linker_0, # of connection points: 2
#     Edge 27, Type (0, 0), BuildingBlock: AJUNOK_clean_linker_0, # of connection points: 2
#     Edge 28, Type (0, 0), BuildingBlock: AJUNOK_clean_linker_0, # of connection points: 2
#     Edge 29, Type (0, 0), BuildingBlock: AJUNOK_clean_linker_0, # of connection points: 2
#     Edge 30, Type (0, 0), BuildingBlock: AJUNOK_clean_linker_0, # of connection points: 2
#     Edge 31, Type (0, 0), BuildingBlock: AJUNOK_clean_linker_0, # of connection points: 2
#     Edge 32, Type (0, 0), BuildingBlock: AJUNOK_clean_linker_0, # of connection points: 2
#     Edge 33, Type (0, 0), BuildingBlock: AJUNOK_clean_linker_0, # of connection points: 2
#     Edge 34, Type (0, 0), BuildingBlock: AJUNOK_clean_linker_0, # of connection points: 2
#     Edge 35, Type (0, 0), BuildingBlock: AJUNOK_clean_linker_0, # of connection points: 2
#     Edge 36, Type (0, 0), BuildingBlock: AJUNOK_clean_linker_0, # of connection points: 2
#     Edge 37, Type (0, 0), BuildingBlock: AJUNOK_clean_linker_0, # of connection points: 2
#     Edge 38, Type (0, 0), BuildingBlock: AJUNOK_clean_linker_0, # of connection points: 2
#     Edge 39, Type (0, 0), BuildingBlock: AJUNOK_clean_linker_0, # of connection points: 2
#     Edge 40, Type (0, 0), BuildingBlock: AJUNOK_clean_linker_0, # of connection points: 2
#     Edge 41, Type (0, 0), BuildingBlock: AJUNOK_clean_linker_0, # of connection points: 2
#     Edge 42, Type (0, 0), BuildingBlock: AJUNOK_clean_linker_0, # of connection points: 2
#     Edge 43, Type (0, 0), BuildingBlock: AJUNOK_clean_linker_0, # of connection points: 2
#     Edge 44, Type (0, 0), BuildingBlock: AJUNOK_clean_linker_0, # of connection points: 2
#     Edge 45, Type (0, 0), BuildingBlock: AJUNOK_clean_linker_0, # of connection points: 2
#     Edge 46, Type (0, 0), BuildingBlock: AJUNOK_clean_linker_0, # of connection points: 2
#     Edge 47, Type (0, 0), BuildingBlock: AJUNOK_clean_linker_0, # of connection points: 2
# Relax obj value: 0.356
# Max RMSD: 0.193
# Mean RMSD: 0.171
data_MOF--net-pcb--node1-GALJAG_clean_sbu_0--edge1-AJUNOK_clean_linker_0
_symmetry_space_group_name_H-M    P1
_symmetry_Int_Tables_number       1
_symmetry_cell_setting            triclinic
loop_
_symmetry_equiv_pos_as_xyz
'x, y, z'
_cell_length_a     28.272407
_cell_length_b     36.042863
_cell_length_c     36.09663
_cell_angle_alpha  98.917012
_cell_angle_beta   95.937457
_cell_angle_gamma 96.053493
loop_
_atom_site_label
_atom_site_type_symbol
_atom_site_fract_x
_atom_site_fract_y
_atom_site_fract_z
_atom_type_partial_charge
In0 In 0.21296 0.12841 0.11962 0.0
O1 O 0.269 0.16486 0.16347 0.0
O2 O 0.21667 0.19186 0.13458 0.0
C3 C 0.23594 0.07077 0.15462 0.0
C4 C 0.11772 0.12927 0.11933 0.0
C5 C 0.23214 0.12023 0.04757 0.0
O6 O 0.26344 0.0853 0.13388 0.0
O7 O 0.19789 0.08557 0.15757 0.0
O8 O 0.20966 0.09443 0.06113 0.0
O9 O 0.24684 0.15004 0.07097 0.0
C10 C 0.25124 0.19513 0.16035 0.0
O11 O 0.13589 0.11576 0.0905 0.0
O12 O 0.14759 0.14217 0.14795 0.0
In13 In 0.82128 0.12748 0.13871 0.0
O14 O 0.82883 0.17516 0.18847 0.0
O15 O 0.75872 0.14831 0.16716 0.0
C16 C 0.91439 0.12894 0.12971 0.0
C17 C 0.80394 0.059 0.15905 0.0
C18 C 0.79068 0.14932 0.0733 0.0
O19 O 0.89977 0.1486 0.15734 0.0
O20 O 0.88186 0.10836 0.10668 0.0
O21 O 0.77812 0.11675 0.08042 0.0
O22 O 0.81788 0.17097 0.09951 0.0
C23 C 0.78462 0.1734 0.19112 0.0
O24 O 0.77751 0.06962 0.13336 0.0
O25 O 0.83871 0.08302 0.17455 0.0
In26 In 0.80383 0.82837 0.13541 0.0
O27 O 0.7819 0.81078 0.18933 0.0
O28 O 0.76791 0.76973 0.13933 0.0
C29 C 0.79802 0.9006 0.1652 0.0
C30 C 0.89795 0.82263 0.13326 0.0
C31 C 0.75829 0.82192 0.06506 0.0
O32 O 0.76158 0.87631 0.15539 0.0
O33 O 0.83754 0.88774 0.16227 0.0
O34 O 0.78722 0.79939 0.07377 0.0
O35 O 0.75098 0.84627 0.09212 0.0
C36 C 0.76604 0.77723 0.17438 0.0
O37 O 0.8739 0.83851 0.11029 0.0
O38 O 0.87446 0.80959 0.15723 0.0
In39 In 0.20124 0.84392 0.15564 0.0
O40 O 0.12876 0.8593 0.13337 0.0
O41 O 0.12981 0.80953 0.15808 0.0
C42 C 0.22986 0.91825 0.17854 0.0
C43 C 0.23624 0.80918 0.21138 0.0
C44 C 0.22261 0.8229 0.08484 0.0
O45 O 0.18858 0.90288 0.1816 0.0
O46 O 0.25754 0.89573 0.16534 0.0
O47 O 0.24168 0.85295 0.10604 0.0
O48 O 0.19428 0.80226 0.10008 0.0
C49 C 0.10491 0.8314 0.14284 0.0
O50 O 0.25211 0.80596 0.1798 0.0
O51 O 0.20393 0.83045 0.21492 0.0
In52 In 0.17752 0.83207 0.85462 0.0
O53 O 0.16791 0.77619 0.81458 0.0
O54 O 0.23814 0.80582 0.82786 0.0
C55 C 0.08446 0.83748 0.86049 0.0
C56 C 0.20731 0.81975 0.92442 0.0
C57 C 0.19801 0.89455 0.82373 0.0
O58 O 0.09853 0.81471 0.83493 0.0
O59 O 0.1175 0.85744 0.88348 0.0
O60 O 0.22125 0.889 0.85377 0.0
O61 O 0.16533 0.86831 0.80917 0.0
C62 C 0.21146 0.77712 0.80971 0.0
O63 O 0.22194 0.84937 0.91221 0.0
O64 O 0.17845 0.79616 0.90104 0.0
In65 In 0.17346 0.11624 0.81398 0.0
O66 O 0.09414 0.10965 0.79128 0.0
O67 O 0.11898 0.15145 0.83948 0.0
C68 C 0.19373 0.04537 0.79308 0.0
C69 C 0.20786 0.16449 0.77059 0.0
C70 C 0.20378 0.11682 0.88684 0.0
O71 O 0.15174 0.05432 0.78896 0.0
O72 O 0.22596 0.07289 0.80485 0.0
O73 O 0.22586 0.13773 0.86747 0.0
O74 O 0.16658 0.09656 0.86948 0.0
C75 C 0.08404 0.13554 0.81587 0.0
O76 O 0.21551 0.17108 0.80615 0.0
O77 O 0.18498 0.13254 0.75687 0.0
In78 In 0.79741 0.16136 0.84691 0.0
O79 O 0.87781 0.17467 0.86601 0.0
O80 O 0.8546 0.15545 0.8076 0.0
C81 C 0.77857 0.17322 0.91912 0.0
C82 C 0.75928 0.20718 0.80293 0.0
C83 C 0.77534 0.08572 0.83156 0.0
O84 O 0.81628 0.18834 0.90885 0.0
O85 O 0.74932 0.15417 0.89256 0.0
O86 O 0.74307 0.1074 0.83358 0.0
O87 O 0.81756 0.10219 0.83723 0.0
C88 C 0.88946 0.16537 0.83326 0.0
O89 O 0.75284 0.17166 0.79472 0.0
O90 O 0.78314 0.21992 0.83462 0.0
In91 In 0.7878 0.85956 0.85004 0.0
O92 O 0.77737 0.79716 0.82789 0.0
O93 O 0.75163 0.83346 0.79112 0.0
C94 C 0.75113 0.84821 0.91357 0.0
C95 C 0.88303 0.85589 0.85752 0.0
C96 C 0.76907 0.92647 0.83165 0.0
O97 O 0.74071 0.82513 0.88308 0.0
O98 O 0.77851 0.87765 0.91158 0.0
O99 O 0.8095 0.91483 0.83147 0.0
O100 O 0.7367 0.90384 0.84067 0.0
C101 C 0.75848 0.80023 0.79552 0.0
O102 O 0.85687 0.84898 0.82633 0.0
O103 O 0.86139 0.86565 0.88564 0.0
In104 In 0.70843 0.62586 0.60918 0.0
O105 O 0.72089 0.64506 0.67214 0.0
O106 O 0.74997 0.68226 0.6375 0.0
C107 C 0.7366 0.55783 0.61471 0.0
C108 C 0.6131 0.62207 0.61266 0.0
C109 C 0.73192 0.64759 0.5448 0.0
O110 O 0.74975 0.58635 0.64009 0.0
O111 O 0.71095 0.56416 0.58618 0.0
O112 O 0.69205 0.65116 0.55671 0.0
O113 O 0.76101 0.63339 0.56583 0.0
C114 C 0.74248 0.67703 0.67031 0.0
O115 O 0.64132 0.65225 0.62169 0.0
O116 O 0.63268 0.59346 0.60072 0.0
In117 In 0.32128 0.62731 0.64529 0.0
O118 O 0.33007 0.66904 0.70027 0.0
O119 O 0.2595 0.64973 0.67306 0.0
C120 C 0.41346 0.62169 0.63653 0.0
C121 C 0.29448 0.55722 0.65849 0.0
C122 C 0.29854 0.65929 0.58414 0.0
O123 O 0.40082 0.64617 0.66134 0.0
O124 O 0.3795 0.59977 0.6164 0.0
O125 O 0.27749 0.62787 0.58856 0.0
O126 O 0.32998 0.6747 0.61093 0.0
C127 C 0.2857 0.67024 0.70061 0.0
O128 O 0.27626 0.56963 0.63009 0.0
O129 O 0.32551 0.58047 0.68034 0.0
In130 In 0.28038 0.32393 0.62959 0.0
O131 O 0.35077 0.34782 0.61212 0.0
O132 O 0.3513 0.30021 0.64006 0.0
C133 C 0.23796 0.30867 0.55768 0.0
C134 C 0.24879 0.27619 0.67481 0.0
C135 C 0.27118 0.39642 0.65641 0.0
O136 O 0.27562 0.29534 0.56827 0.0
O137 O 0.22051 0.32821 0.58377 0.0
O138 O 0.23782 0.37442 0.63561 0.0
O139 O 0.30792 0.38115 0.66524 0.0
C140 C 0.37509 0.32457 0.6255 0.0
O141 O 0.26567 0.31011 0.68698 0.0
O142 O 0.24551 0.26684 0.63947 0.0
In143 In 0.67737 0.33082 0.6312 0.0
O144 O 0.70828 0.28211 0.65339 0.0
O145 O 0.70059 0.33002 0.69361 0.0
C146 C 0.69392 0.29523 0.56386 0.0
C147 C 0.58178 0.33107 0.63142 0.0
C148 C 0.7194 0.40145 0.63052 0.0
O149 O 0.72748 0.31136 0.58892 0.0
O150 O 0.65247 0.29507 0.57402 0.0
O151 O 0.70628 0.3772 0.60127 0.0
O152 O 0.71229 0.3899 0.66104 0.0
C153 C 0.71228 0.29702 0.68767 0.0
O154 O 0.60918 0.35938 0.62678 0.0
O155 O 0.6027 0.30287 0.63671 0.0
In156 In 0.66351 0.32834 0.34351 0.0
O157 O 0.70912 0.33284 0.39983 0.0
O158 O 0.65376 0.28644 0.38369 0.0
C159 C 0.6911 0.39489 0.3228 0.0
C160 C 0.70168 0.2781 0.29664 0.0
C161 C 0.57206 0.3401 0.34826 0.0
O162 O 0.70591 0.38713 0.35461 0.0
O163 O 0.66337 0.36878 0.30147 0.0
O164 O 0.58468 0.31981 0.32005 0.0
O165 O 0.60536 0.35341 0.37447 0.0
C166 C 0.68754 0.30326 0.4081 0.0
O167 O 0.65703 0.27609 0.29801 0.0
O168 O 0.72631 0.30552 0.31857 0.0
In169 In 0.67913 0.62175 0.31558 0.0
O170 O 0.70706 0.6792 0.30329 0.0
O171 O 0.69807 0.6332 0.25791 0.0
C172 C 0.72019 0.64791 0.38665 0.0
C173 C 0.58424 0.61921 0.31992 0.0
C174 C 0.69702 0.54951 0.30105 0.0
O175 O 0.73734 0.62356 0.36459 0.0
O176 O 0.68373 0.66022 0.37206 0.0
O177 O 0.65645 0.55943 0.29224 0.0
O178 O 0.72921 0.57636 0.31507 0.0
C179 C 0.70972 0.66818 0.26887 0.0
O180 O 0.61357 0.61185 0.3457 0.0
O181 O 0.60262 0.62712 0.29126 0.0
In182 In 0.30322 0.65964 0.36133 0.0
O183 O 0.38159 0.65501 0.37882 0.0
O184 O 0.35392 0.6362 0.32112 0.0
C185 C 0.29088 0.68756 0.43257 0.0
C186 C 0.28257 0.71318 0.32039 0.0
C187 C 0.25802 0.58877 0.35234 0.0
O188 O 0.33135 0.68998 0.42062 0.0
O189 O 0.2562 0.6738 0.40762 0.0
O190 O 0.25851 0.6068 0.325 0.0
O191 O 0.27997 0.60654 0.38307 0.0
C192 C 0.38965 0.6411 0.34612 0.0
O193 O 0.25054 0.68878 0.32701 0.0
O194 O 0.32415 0.71136 0.33556 0.0
In195 In 0.28053 0.36435 0.3529 0.0
O196 O 0.35087 0.38222 0.33191 0.0
O197 O 0.35455 0.36042 0.38329 0.0
C198 C 0.24995 0.43131 0.34817 0.0
C199 C 0.26744 0.31237 0.29047 0.0
C200 C 0.23639 0.33915 0.40889 0.0
O201 O 0.28251 0.42654 0.37296 0.0
O202 O 0.23253 0.40212 0.32465 0.0
O203 O 0.2379 0.31818 0.37784 0.0
O204 O 0.25567 0.37257 0.41106 0.0
C205 C 0.37684 0.37186 0.35791 0.0
O206 O 0.29295 0.30891 0.32023 0.0
O207 O 0.24543 0.34132 0.29293 0.0
C208 C 0.29251 0.25422 0.25561 0.0
C209 C 0.26591 0.28506 0.25534 0.0
C210 C 0.29066 0.22672 0.22354 0.0
C211 C 0.26196 0.22892 0.18998 0.0
H212 H 0.31409 0.25062 0.28112 0.0
H213 H 0.30996 0.20259 0.22577 0.0
S214 S 0.19099 0.30692 0.17282 0.0
N215 N 0.2142 0.31848 0.21755 0.0
N216 N 0.21048 0.26653 0.157 0.0
C217 C 0.23767 0.2609 0.1885 0.0
C218 C 0.23957 0.289 0.22129 0.0
C219 C 0.69442 0.2236 0.24381 0.0
C220 C 0.72365 0.25086 0.27104 0.0
C221 C 0.71452 0.1983 0.21837 0.0
C222 C 0.76448 0.19935 0.21929 0.0
H223 H 0.65578 0.22208 0.24178 0.0
H224 H 0.6906 0.17808 0.19751 0.0
S225 S 0.85669 0.2639 0.28668 0.0
N226 N 0.80509 0.27641 0.29853 0.0
N227 N 0.84279 0.22882 0.25067 0.0
C228 C 0.79415 0.22594 0.24691 0.0
C229 C 0.77368 0.25171 0.27278 0.0
C230 C 0.74839 0.75983 0.23588 0.0
C231 C 0.74964 0.74869 0.19697 0.0
C232 C 0.73564 0.73345 0.25873 0.0
C233 C 0.72368 0.69483 0.24362 0.0
H234 H 0.75768 0.7892 0.24899 0.0
H235 H 0.73529 0.74353 0.28857 0.0
S236 S 0.72079 0.65097 0.14324 0.0
N237 N 0.73739 0.69643 0.14404 0.0
N238 N 0.7133 0.64665 0.1872 0.0
C239 C 0.7244 0.68321 0.20468 0.0
C240 C 0.73736 0.7102 0.18129 0.0
C241 C 0.2281 0.75318 0.29104 0.0
C242 C 0.27291 0.73982 0.29443 0.0
C243 C 0.21732 0.77688 0.26493 0.0
C244 C 0.25054 0.78706 0.24068 0.0
H245 H 0.20115 0.74514 0.30855 0.0
H246 H 0.1821 0.78625 0.26288 0.0
S247 S 0.373 0.75959 0.23865 0.0
N248 N 0.35123 0.73904 0.27217 0.0
N249 N 0.3302 0.78265 0.2221 0.0
C250 C 0.29561 0.77413 0.24399 0.0
C251 C 0.30702 0.75074 0.2712 0.0
C252 C 0.29696 0.7239 0.75444 0.0
C253 C 0.26613 0.69523 0.72995 0.0
C254 C 0.27897 0.74983 0.78067 0.0
C255 C 0.2296 0.74784 0.78356 0.0
H256 H 0.33515 0.72697 0.75272 0.0
H257 H 0.30398 0.77195 0.79842 0.0
S258 S 0.13422 0.67617 0.72783 0.0
N259 N 0.1842 0.665 0.71152 0.0
N260 N 0.15035 0.71362 0.76106 0.0
C261 C 0.19852 0.71848 0.76013 0.0
C262 C 0.21684 0.69222 0.73324 0.0
C263 C 0.20973 0.1841 0.70744 0.0
C264 C 0.22049 0.19314 0.74694 0.0
C265 C 0.21831 0.21132 0.6844 0.0
C266 C 0.23776 0.24868 0.70001 0.0
H267 H 0.19423 0.1558 0.69411 0.0
H268 H 0.20966 0.20294 0.6541 0.0
S269 S 0.27267 0.28686 0.8019 0.0
N270 N 0.25203 0.24207 0.80075 0.0
N271 N 0.26798 0.2933 0.75745 0.0
C272 C 0.24878 0.25814 0.73949 0.0
C273 C 0.24028 0.23034 0.76295 0.0
C274 C 0.73143 0.2143 0.73735 0.0
C275 C 0.74525 0.23128 0.77522 0.0
C276 C 0.72181 0.23605 0.70935 0.0
C277 C 0.72493 0.27564 0.71813 0.0
H278 H 0.72889 0.18389 0.72897 0.0
H279 H 0.71138 0.22153 0.6806 0.0
S280 S 0.75856 0.33406 0.81311 0.0
N281 N 0.7613 0.29012 0.82025 0.0
N282 N 0.74206 0.33118 0.76739 0.0
C283 C 0.73799 0.29313 0.75594 0.0
C284 C 0.74844 0.2709 0.78455 0.0
C285 C 0.75309 0.77529 0.7269 0.0
C286 C 0.75214 0.76829 0.76404 0.0
C287 C 0.75242 0.74558 0.69685 0.0
C288 C 0.75005 0.70787 0.70292 0.0
H289 H 0.75531 0.80397 0.72105 0.0
H290 H 0.75252 0.75218 0.66858 0.0
S291 S 0.7467 0.6746 0.79494 0.0
N292 N 0.74906 0.72105 0.80541 0.0
N293 N 0.74697 0.66506 0.74874 0.0
C294 C 0.74905 0.70048 0.73993 0.0
C295 C 0.75024 0.73075 0.77056 0.0
C296 C 0.19975 0.0858 0.94323 0.0
C297 C 0.21855 0.11635 0.9271 0.0
C298 C 0.20738 0.08628 0.98212 0.0
C299 C 0.23365 0.11754 0.00648 0.0
H300 H 0.17762 0.06174 0.92582 0.0
H301 H 0.1904 0.06269 -0.00676 0.0
S302 S 0.29557 0.20264 0.97779 0.0
N303 N 0.26871 0.17702 0.93776 0.0
N304 N 0.28263 0.17824 0.01134 0.0
C305 C 0.25534 0.14725 -0.00949 0.0
C306 C 0.24788 0.14657 0.95066 0.0
C307 C 0.80602 0.19546 -0.01243 0.0
C308 C 0.7735 0.17206 0.95927 0.0
C309 C 0.80899 0.1895 0.02511 0.0
C310 C 0.78002 0.15958 0.03555 0.0
H311 H 0.831 0.21739 0.98041 0.0
H312 H 0.83621 0.20708 0.04557 0.0
S313 S 0.68457 0.09347 0.97318 0.0
N314 N 0.70796 0.12048 0.94505 0.0
N315 N 0.71422 0.10896 0.01555 0.0
C316 C 0.74506 0.13767 0.0081 0.0
C317 C 0.74157 0.14403 0.96994 0.0
C318 C 0.73685 0.86836 0.97985 0.0
C319 C 0.73969 0.83893 0.95009 0.0
C320 C 0.73793 0.86162 0.017 0.0
C321 C 0.74339 0.82544 0.02564 0.0
H322 H 0.73645 0.89715 0.97465 0.0
H323 H 0.73854 0.88559 0.03933 0.0
S324 S 0.74546 0.73791 0.95717 0.0
N325 N 0.7418 0.77141 0.93091 0.0
N326 N 0.74582 0.75906 0.00122 0.0
C327 C 0.74247 0.79523 -0.00414 0.0
C328 C 0.74008 0.80192 0.95786 0.0
C329 C 0.25262 0.8445 0.02839 0.0
C330 C 0.22656 0.81647 0.04388 0.0
C331 C 0.2485 0.84402 -0.01063 0.0
C332 C 0.21831 0.81538 0.96435 0.0
H333 H 0.2743 0.86832 0.04659 0.0
H334 H 0.26725 0.86733 0.97897 0.0
S335 S 0.14877 0.73188 -0.00986 0.0
N336 N 0.17429 0.7567 0.03094 0.0
N337 N 0.16671 0.75559 0.95745 0.0
C338 C 0.1953 0.7854 0.9792 0.0
C339 C 0.19939 0.78596 0.01904 0.0
C340 C 0.04908 0.14702 0.15322 0.0
C341 C 0.06569 0.12956 0.12027 0.0
C342 C 0.0001 0.14704 0.15573 0.0
C343 C 0.96579 0.12939 0.12546 0.0
H344 H 0.07407 0.16068 0.17749 0.0
H345 H 0.98912 0.1606 0.18185 0.0
S346 S 0.99052 0.08093 0.03227 0.0
N347 N 0.04403 0.09512 0.0562 0.0
N348 N 0.95168 0.09494 0.06099 0.0
C349 C 0.98181 0.11222 0.0921 0.0
C350 C 0.03184 0.11238 0.08947 0.0
C351 C 0.83658 0.96694 0.18566 0.0
C352 C 0.79498 0.94168 0.17166 0.0
C353 C 0.83808 0.00552 0.18377 0.0
C354 C 0.79829 0.02005 0.16725 0.0
H355 H 0.869 0.95656 0.19638 0.0
H356 H 0.87163 0.02359 0.19322 0.0
S357 S 0.67875 0.9668 0.13132 0.0
N358 N 0.71126 0.9347 0.14479 0.0
N359 N 0.71454 0.00721 0.14062 0.0
C360 C 0.75546 -0.00434 0.15564 0.0
C361 C 0.75366 0.95644 0.15809 0.0
C362 C 0.97643 0.84604 0.11407 0.0
C363 C 0.95013 0.82182 0.13367 0.0
C364 C 0.02643 0.84832 0.11656 0.0
C365 C 0.05195 0.82613 0.13834 0.0
H366 H 0.95844 0.86423 0.09754 0.0
H367 H 0.04525 0.86807 0.10172 0.0
S368 S -0.00047 0.75609 0.19281 0.0
N369 N 0.95297 0.77379 0.17405 0.0
N370 N 0.04694 0.7777 0.17837 0.0
C371 C 0.02593 0.80073 0.15693 0.0
C372 C 0.97502 0.7987 0.15471 0.0
C373 C 0.27591 0.01225 0.15451 0.0
C374 C 0.24341 0.03568 0.16953 0.0
C375 C 0.27467 0.97476 0.16076 0.0
C376 C 0.24076 0.95963 0.18207 0.0
H377 H 0.29993 0.02191 0.13551 0.0
H378 H 0.29768 0.95677 0.14621 0.0
S379 S 0.15603 0.01209 0.23489 0.0
N380 N 0.18265 0.04326 0.21231 0.0
N381 N 0.18005 0.97269 0.22363 0.0
C382 C 0.21186 0.98399 0.2006 0.0
C383 C 0.21325 0.02212 0.19442 0.0
C384 C 0.95218 0.832 0.82863 0.0
C385 C 0.93445 0.85138 0.86014 0.0
C386 C 0.00056 0.82709 0.82946 0.0
C387 C 0.03331 0.84177 0.86166 0.0
H388 H 0.92849 0.82037 0.80298 0.0
H389 H 0.01244 0.81218 0.80434 0.0
S390 S 0.00508 0.89399 0.95203 0.0
N391 N 0.95311 0.88458 0.92487 0.0
N392 N 0.04469 0.87584 0.92627 0.0
C393 C 0.01617 0.861 0.89357 0.0
C394 C 0.96655 0.86564 0.89286 0.0
C395 C 0.16655 0.93968 0.78449 0.0
C396 C 0.20365 0.93092 0.80956 0.0
C397 C 0.1657 0.97642 0.77655 0.0
C398 C 0.20226 0.00559 0.79294 0.0
H399 H 0.13624 0.91869 0.77282 0.0
H400 H 0.13473 0.98248 0.75924 0.0
S401 S 0.31166 -0.00433 0.85516 0.0
N402 N 0.28085 0.95308 0.84688 0.0
N403 N 0.27975 0.02211 0.8315 0.0
C404 C 0.24186 -0.00365 0.81514 0.0
C405 C 0.24238 0.959 0.82364 0.0
C406 C 0.02409 0.16734 0.85126 0.0
C407 C 0.03492 0.14548 0.81812 0.0
C408 C 0.97715 0.17484 0.85542 0.0
C409 C 0.93943 0.16118 0.8264 0.0
H410 H 0.0518 0.17781 0.87471 0.0
H411 H 0.97026 0.19075 0.88192 0.0
S412 S 0.94962 0.10504 0.73278 0.0
N413 N 0.00466 0.11198 0.75498 0.0
N414 N 0.91652 0.12643 0.76249 0.0
C415 C 0.95014 0.14062 0.79246 0.0
C416 C -0.00214 0.13264 0.78842 0.0
C417 C 0.7986 0.98475 0.80872 0.0
C418 C 0.76286 0.96515 0.82515 0.0
C419 C 0.80027 0.02354 0.80884 0.0
C420 C 0.76607 0.04421 0.82512 0.0
H421 H 0.82702 0.97039 0.79725 0.0
H422 H 0.82987 0.03776 0.79752 0.0
S423 S 0.66228 0.00583 0.86839 0.0
N424 N 0.69007 0.96868 0.85544 0.0
N425 N 0.69315 0.04214 0.85536 0.0
C426 C 0.72802 0.02469 0.83915 0.0
C427 C 0.7264 0.98493 0.83922 0.0
C428 C 0.70889 0.67896 0.45089 0.0
C429 C 0.73473 0.65551 0.42787 0.0
C430 C 0.71142 0.67856 0.48966 0.0
C431 C 0.74026 0.65504 0.50687 0.0
H432 H 0.68376 0.69568 0.43856 0.0
H433 H 0.6883 0.69505 0.50583 0.0
S434 S 0.82194 0.59379 0.46044 0.0
N435 N 0.79539 0.61226 0.42593 0.0
N436 N 0.80037 0.61184 0.49917 0.0
C437 C 0.77025 0.6346 0.48502 0.0
C438 C 0.76743 0.63478 0.44534 0.0
C439 C 0.25215 0.65855 0.52137 0.0
C440 C 0.29141 0.67424 0.54836 0.0
C441 C 0.24954 0.6665 0.48451 0.0
C442 C 0.28658 0.68987 0.47322 0.0
H443 H 0.2245 0.63838 0.52813 0.0
H444 H 0.22028 0.65167 0.46402 0.0
S445 S 0.39315 0.74277 0.5347 0.0
N446 N 0.36484 0.71839 0.56267 0.0
N447 N 0.36038 0.73248 0.49302 0.0
C448 C 0.32388 0.7083 0.50073 0.0
C449 C 0.3262 0.70067 0.53845 0.0
C450 C 0.20527 0.34988 0.47084 0.0
C451 C 0.2221 0.32498 0.44267 0.0
C452 C 0.20513 0.34202 0.50759 0.0
C453 C 0.22316 0.30952 0.51751 0.0
H454 H 0.19532 0.37685 0.46512 0.0
H455 H 0.19522 0.36334 0.52904 0.0
S456 S 0.26358 0.23244 0.45253 0.0
N457 N 0.25036 0.26394 0.42562 0.0
N458 N 0.2518 0.2498 0.49524 0.0
C459 C 0.23573 0.28272 0.48879 0.0
C460 C 0.23474 0.29031 0.45112 0.0
C461 C 0.65946 0.27085 0.45921 0.0
C462 C 0.69622 0.29246 0.44571 0.0
C463 C 0.66139 0.26824 0.49757 0.0
C464 C 0.70038 0.28679 0.52354 0.0
H465 H 0.62717 0.25846 0.44071 0.0
H466 H 0.63045 0.25412 0.50733 0.0
S467 S 0.81086 0.33905 0.50056 0.0
N468 N 0.77632 0.32698 0.45976 0.0
N469 N 0.78041 0.32164 0.53194 0.0
C470 C 0.73999 0.30443 0.50956 0.0
C471 C 0.73772 0.30749 0.47054 0.0
C472 C 0.5456 0.65244 0.63803 0.0
C473 C 0.56186 0.62068 0.61774 0.0
C474 C 0.49768 0.65215 0.64442 0.0
C475 C 0.46402 0.62028 0.63037 0.0
H476 H 0.57012 0.67776 0.6494 0.0
H477 H 0.48687 0.67737 0.6601 0.0
S478 S 0.48823 0.52956 0.57599 0.0
N479 N 0.54069 0.55616 0.58413 0.0
N480 N 0.45012 0.55584 0.59568 0.0
C481 C 0.47964 0.58826 0.61001 0.0
C482 C 0.52872 0.58839 0.60384 0.0
C483 C 0.24628 0.49369 0.63996 0.0
C484 C 0.28378 0.5174 0.66358 0.0
C485 C 0.23994 0.45464 0.64006 0.0
C486 C 0.27125 0.43789 0.66346 0.0
H487 H 0.22281 0.50509 0.62009 0.0
H488 H 0.21216 0.43727 0.61994 0.0
S489 S 0.37114 0.48807 0.73415 0.0
N490 N 0.34947 0.52181 0.71396 0.0
N491 N 0.33788 0.44833 0.71369 0.0
C492 C 0.30682 0.46156 0.68904 0.0
C493 C 0.31301 0.50138 0.68922 0.0
C494 C 0.50165 0.29936 0.63939 0.0
C495 C 0.52926 0.33038 0.62965 0.0
C496 C 0.45177 0.29761 0.63763 0.0
C497 C 0.42759 0.32666 0.62576 0.0
H498 H 0.51865 0.27626 0.64864 0.0
H499 H 0.43207 0.27327 0.64569 0.0
S500 S 0.48329 0.41393 0.59672 0.0
N501 N 0.52879 0.39079 0.60749 0.0
N502 N 0.43497 0.38739 0.60393 0.0
C503 C 0.45471 0.35776 0.61566 0.0
C504 C 0.50558 0.35966 0.61771 0.0
C505 C 0.73666 0.49021 0.58803 0.0
C506 C 0.74399 0.51897 0.6198 0.0
C507 C 0.73252 0.45213 0.592 0.0
C508 C 0.73481 0.44133 0.62793 0.0
H509 H 0.73167 0.49712 0.55983 0.0
H510 H 0.72456 0.43107 0.56657 0.0
S511 S 0.76103 0.50588 0.72006 0.0
N512 N 0.7595 0.53436 0.68836 0.0
N513 N 0.75086 0.46243 0.69585 0.0
C514 C 0.74605 0.46977 0.65994 0.0
C515 C 0.75088 0.50873 0.65586 0.0
C516 C 0.45926 0.36755 0.38786 0.0
C517 C 0.42744 0.36682 0.35512 0.0
C518 C 0.50631 0.35928 0.38539 0.0
C519 C 0.52253 0.34891 0.35012 0.0
H520 H 0.44766 0.37437 0.41552 0.0
H521 H 0.52983 0.36026 0.41131 0.0
S522 S 0.45274 0.34222 0.25599 0.0
N523 N 0.41532 0.35514 0.28636 0.0
N524 N 0.50325 0.33865 0.28181 0.0
C525 C 0.491 0.34804 0.31719 0.0
C526 C 0.44356 0.35729 0.31969 0.0
C527 C 0.66905 0.44337 0.28428 0.0
C528 C 0.69996 0.43306 0.31305 0.0
C529 C 0.67047 0.48103 0.27882 0.0
C530 C 0.70344 0.50954 0.30142 0.0
H531 H 0.64158 0.42267 0.2673 0.0
H532 H 0.6441 0.48811 0.2579 0.0
S533 S 0.79634 0.49646 0.37721 0.0
N534 N 0.76744 0.45366 0.362 0.0
N535 N 0.77081 0.52448 0.35125 0.0
C536 C 0.73707 0.49916 0.32829 0.0
C537 C 0.7351 0.46087 0.33426 0.0
C538 C 0.51903 0.62325 0.3611 0.0
C539 C 0.53335 0.62154 0.32476 0.0
C540 C 0.47221 0.62897 0.36755 0.0
C541 C 0.43774 0.6326 0.33782 0.0
H542 H 0.54452 0.62129 0.38507 0.0
H543 H 0.46314 0.63094 0.39617 0.0
S544 S 0.45615 0.628 0.23698 0.0
N545 N 0.50888 0.62252 0.25834 0.0
N546 N 0.42042 0.63264 0.27038 0.0
C547 C 0.45102 0.62963 0.30108 0.0
C548 C 0.49898 0.62429 0.29457 0.0
C549 C 0.23854 0.48456 0.31309 0.0
C550 C 0.23634 0.46914 0.3464 0.0
C551 C 0.2406 0.52383 0.31413 0.0
C552 C 0.24034 0.5483 0.3485 0.0
H553 H 0.24311 0.46674 0.28697 0.0
H554 H 0.24671 0.53519 0.28872 0.0
S555 S 0.22318 0.52017 0.44126 0.0
N556 N 0.22574 0.48002 0.41288 0.0
N557 N 0.22849 0.55356 0.41485 0.0
C558 C 0.23229 0.53248 0.38086 0.0
C559 C 0.23069 0.49284 0.37983 0.0
loop_
_geom_bond_atom_site_label_1
_geom_bond_atom_site_label_2
_geom_bond_distance
_geom_bond_site_symmetry_2
_ccdc_geom_bond_type
In0 O1 2.294 . S
In0 O2 2.326 . S
In0 O6 2.266 . S
In0 O7 2.326 . S
In0 O8 2.266 . S
In0 O9 2.326 . S
In0 O11 2.294 . S
In0 O12 2.326 . S
O1 In0 2.294 . S
O1 C10 1.240 . S
O2 In0 2.326 . S
O2 C10 1.252 . S
C3 O6 1.252 . S
C3 O7 1.260 . S
C4 O11 1.240 . S
C4 O12 1.252 . S
C5 O8 1.252 . S
C5 O9 1.260 . S
O6 In0 2.266 . S
O6 C3 1.252 . S
O7 In0 2.326 . S
O7 C3 1.260 . S
O8 In0 2.266 . S
O8 C5 1.252 . S
O9 In0 2.326 . S
O9 C5 1.260 . S
C10 O1 1.240 . S
C10 O2 1.252 . S
O11 In0 2.294 . S
O11 C4 1.240 . S
O12 In0 2.326 . S
O12 C4 1.252 . S
In13 O14 2.294 . S
In13 O15 2.326 . S
In13 O19 2.266 . S
In13 O20 2.326 . S
In13 O21 2.266 . S
In13 O22 2.326 . S
In13 O24 2.294 . S
In13 O25 2.326 . S
O14 In13 2.294 . S
O14 C23 1.240 . S
O15 In13 2.326 . S
O15 C23 1.252 . S
C16 O19 1.252 . S
C16 O20 1.260 . S
C17 O24 1.240 . S
C17 O25 1.252 . S
C18 O21 1.252 . S
C18 O22 1.260 . S
O19 In13 2.266 . S
O19 C16 1.252 . S
O20 In13 2.326 . S
O20 C16 1.260 . S
O21 In13 2.266 . S
O21 C18 1.252 . S
O22 In13 2.326 . S
O22 C18 1.260 . S
C23 O14 1.240 . S
C23 O15 1.252 . S
O24 In13 2.294 . S
O24 C17 1.240 . S
O25 In13 2.326 . S
O25 C17 1.252 . S
In26 O27 2.294 . S
In26 O28 2.326 . S
In26 O32 2.266 . S
In26 O33 2.326 . S
In26 O34 2.266 . S
In26 O35 2.326 . S
In26 O37 2.294 . S
In26 O38 2.326 . S
O27 In26 2.294 . S
O27 C36 1.240 . S
O28 In26 2.326 . S
O28 C36 1.252 . S
C29 O32 1.252 . S
C29 O33 1.260 . S
C30 O37 1.240 . S
C30 O38 1.252 . S
C31 O34 1.252 . S
C31 O35 1.260 . S
O32 In26 2.266 . S
O32 C29 1.252 . S
O33 In26 2.326 . S
O33 C29 1.260 . S
O34 In26 2.266 . S
O34 C31 1.252 . S
O35 In26 2.326 . S
O35 C31 1.260 . S
C36 O27 1.240 . S
C36 O28 1.252 . S
O37 In26 2.294 . S
O37 C30 1.240 . S
O38 In26 2.326 . S
O38 C30 1.252 . S
In39 O40 2.294 . S
In39 O41 2.326 . S
In39 O45 2.266 . S
In39 O46 2.326 . S
In39 O47 2.266 . S
In39 O48 2.326 . S
In39 O50 2.294 . S
In39 O51 2.326 . S
O40 In39 2.294 . S
O40 C49 1.240 . S
O41 In39 2.326 . S
O41 C49 1.252 . S
C42 O45 1.252 . S
C42 O46 1.260 . S
C43 O50 1.240 . S
C43 O51 1.252 . S
C44 O47 1.252 . S
C44 O48 1.260 . S
O45 In39 2.266 . S
O45 C42 1.252 . S
O46 In39 2.326 . S
O46 C42 1.260 . S
O47 In39 2.266 . S
O47 C44 1.252 . S
O48 In39 2.326 . S
O48 C44 1.260 . S
C49 O40 1.240 . S
C49 O41 1.252 . S
O50 In39 2.294 . S
O50 C43 1.240 . S
O51 In39 2.326 . S
O51 C43 1.252 . S
In52 O53 2.294 . S
In52 O54 2.326 . S
In52 O58 2.266 . S
In52 O59 2.326 . S
In52 O60 2.266 . S
In52 O61 2.326 . S
In52 O63 2.294 . S
In52 O64 2.326 . S
O53 In52 2.294 . S
O53 C62 1.240 . S
O54 In52 2.326 . S
O54 C62 1.252 . S
C55 O58 1.252 . S
C55 O59 1.260 . S
C56 O63 1.240 . S
C56 O64 1.252 . S
C57 O60 1.252 . S
C57 O61 1.260 . S
O58 In52 2.266 . S
O58 C55 1.252 . S
O59 In52 2.326 . S
O59 C55 1.260 . S
O60 In52 2.266 . S
O60 C57 1.252 . S
O61 In52 2.326 . S
O61 C57 1.260 . S
C62 O53 1.240 . S
C62 O54 1.252 . S
O63 In52 2.294 . S
O63 C56 1.240 . S
O64 In52 2.326 . S
O64 C56 1.252 . S
In65 O66 2.294 . S
In65 O67 2.326 . S
In65 O71 2.266 . S
In65 O72 2.326 . S
In65 O73 2.266 . S
In65 O74 2.326 . S
In65 O76 2.294 . S
In65 O77 2.326 . S
O66 In65 2.294 . S
O66 C75 1.240 . S
O67 In65 2.326 . S
O67 C75 1.252 . S
C68 O71 1.252 . S
C68 O72 1.260 . S
C69 O76 1.240 . S
C69 O77 1.252 . S
C70 O73 1.252 . S
C70 O74 1.260 . S
O71 In65 2.266 . S
O71 C68 1.252 . S
O72 In65 2.326 . S
O72 C68 1.260 . S
O73 In65 2.266 . S
O73 C70 1.252 . S
O74 In65 2.326 . S
O74 C70 1.260 . S
C75 O66 1.240 . S
C75 O67 1.252 . S
O76 In65 2.294 . S
O76 C69 1.240 . S
O77 In65 2.326 . S
O77 C69 1.252 . S
In78 O79 2.294 . S
In78 O80 2.326 . S
In78 O84 2.266 . S
In78 O85 2.326 . S
In78 O86 2.266 . S
In78 O87 2.326 . S
In78 O89 2.294 . S
In78 O90 2.326 . S
O79 In78 2.294 . S
O79 C88 1.240 . S
O80 In78 2.326 . S
O80 C88 1.252 . S
C81 O84 1.252 . S
C81 O85 1.260 . S
C82 O89 1.240 . S
C82 O90 1.252 . S
C83 O86 1.252 . S
C83 O87 1.260 . S
O84 In78 2.266 . S
O84 C81 1.252 . S
O85 In78 2.326 . S
O85 C81 1.260 . S
O86 In78 2.266 . S
O86 C83 1.252 . S
O87 In78 2.326 . S
O87 C83 1.260 . S
C88 O79 1.240 . S
C88 O80 1.252 . S
O89 In78 2.294 . S
O89 C82 1.240 . S
O90 In78 2.326 . S
O90 C82 1.252 . S
In91 O92 2.294 . S
In91 O93 2.326 . S
In91 O97 2.266 . S
In91 O98 2.326 . S
In91 O99 2.266 . S
In91 O100 2.326 . S
In91 O102 2.294 . S
In91 O103 2.326 . S
O92 In91 2.294 . S
O92 C101 1.240 . S
O93 In91 2.326 . S
O93 C101 1.252 . S
C94 O97 1.252 . S
C94 O98 1.260 . S
C95 O102 1.240 . S
C95 O103 1.252 . S
C96 O99 1.252 . S
C96 O100 1.260 . S
O97 In91 2.266 . S
O97 C94 1.252 . S
O98 In91 2.326 . S
O98 C94 1.260 . S
O99 In91 2.266 . S
O99 C96 1.252 . S
O100 In91 2.326 . S
O100 C96 1.260 . S
C101 O92 1.240 . S
C101 O93 1.252 . S
O102 In91 2.294 . S
O102 C95 1.240 . S
O103 In91 2.326 . S
O103 C95 1.252 . S
In104 O105 2.294 . S
In104 O106 2.326 . S
In104 O110 2.266 . S
In104 O111 2.326 . S
In104 O112 2.266 . S
In104 O113 2.326 . S
In104 O115 2.294 . S
In104 O116 2.326 . S
O105 In104 2.294 . S
O105 C114 1.240 . S
O106 In104 2.326 . S
O106 C114 1.252 . S
C107 O110 1.252 . S
C107 O111 1.260 . S
C108 O115 1.240 . S
C108 O116 1.252 . S
C109 O112 1.252 . S
C109 O113 1.260 . S
O110 In104 2.266 . S
O110 C107 1.252 . S
O111 In104 2.326 . S
O111 C107 1.260 . S
O112 In104 2.266 . S
O112 C109 1.252 . S
O113 In104 2.326 . S
O113 C109 1.260 . S
C114 O105 1.240 . S
C114 O106 1.252 . S
O115 In104 2.294 . S
O115 C108 1.240 . S
O116 In104 2.326 . S
O116 C108 1.252 . S
In117 O118 2.294 . S
In117 O119 2.326 . S
In117 O123 2.266 . S
In117 O124 2.326 . S
In117 O125 2.266 . S
In117 O126 2.326 . S
In117 O128 2.294 . S
In117 O129 2.326 . S
O118 In117 2.294 . S
O118 C127 1.240 . S
O119 In117 2.326 . S
O119 C127 1.252 . S
C120 O123 1.252 . S
C120 O124 1.260 . S
C121 O128 1.240 . S
C121 O129 1.252 . S
C122 O125 1.252 . S
C122 O126 1.260 . S
O123 In117 2.266 . S
O123 C120 1.252 . S
O124 In117 2.326 . S
O124 C120 1.260 . S
O125 In117 2.266 . S
O125 C122 1.252 . S
O126 In117 2.326 . S
O126 C122 1.260 . S
C127 O118 1.240 . S
C127 O119 1.252 . S
O128 In117 2.294 . S
O128 C121 1.240 . S
O129 In117 2.326 . S
O129 C121 1.252 . S
In130 O131 2.294 . S
In130 O132 2.326 . S
In130 O136 2.266 . S
In130 O137 2.326 . S
In130 O138 2.266 . S
In130 O139 2.326 . S
In130 O141 2.294 . S
In130 O142 2.326 . S
O131 In130 2.294 . S
O131 C140 1.240 . S
O132 In130 2.326 . S
O132 C140 1.252 . S
C133 O136 1.252 . S
C133 O137 1.260 . S
C134 O141 1.240 . S
C134 O142 1.252 . S
C135 O138 1.252 . S
C135 O139 1.260 . S
O136 In130 2.266 . S
O136 C133 1.252 . S
O137 In130 2.326 . S
O137 C133 1.260 . S
O138 In130 2.266 . S
O138 C135 1.252 . S
O139 In130 2.326 . S
O139 C135 1.260 . S
C140 O131 1.240 . S
C140 O132 1.252 . S
O141 In130 2.294 . S
O141 C134 1.240 . S
O142 In130 2.326 . S
O142 C134 1.252 . S
In143 O144 2.294 . S
In143 O145 2.326 . S
In143 O149 2.266 . S
In143 O150 2.326 . S
In143 O151 2.266 . S
In143 O152 2.326 . S
In143 O154 2.294 . S
In143 O155 2.326 . S
O144 In143 2.294 . S
O144 C153 1.240 . S
O145 In143 2.326 . S
O145 C153 1.252 . S
C146 O149 1.252 . S
C146 O150 1.260 . S
C147 O154 1.240 . S
C147 O155 1.252 . S
C148 O151 1.252 . S
C148 O152 1.260 . S
O149 In143 2.266 . S
O149 C146 1.252 . S
O150 In143 2.326 . S
O150 C146 1.260 . S
O151 In143 2.266 . S
O151 C148 1.252 . S
O152 In143 2.326 . S
O152 C148 1.260 . S
C153 O144 1.240 . S
C153 O145 1.252 . S
O154 In143 2.294 . S
O154 C147 1.240 . S
O155 In143 2.326 . S
O155 C147 1.252 . S
In156 O157 2.294 . S
In156 O158 2.326 . S
In156 O162 2.266 . S
In156 O163 2.326 . S
In156 O164 2.266 . S
In156 O165 2.326 . S
In156 O167 2.294 . S
In156 O168 2.326 . S
O157 In156 2.294 . S
O157 C166 1.240 . S
O158 In156 2.326 . S
O158 C166 1.252 . S
C159 O162 1.252 . S
C159 O163 1.260 . S
C160 O167 1.240 . S
C160 O168 1.252 . S
C161 O164 1.252 . S
C161 O165 1.260 . S
O162 In156 2.266 . S
O162 C159 1.252 . S
O163 In156 2.326 . S
O163 C159 1.260 . S
O164 In156 2.266 . S
O164 C161 1.252 . S
O165 In156 2.326 . S
O165 C161 1.260 . S
C166 O157 1.240 . S
C166 O158 1.252 . S
O167 In156 2.294 . S
O167 C160 1.240 . S
O168 In156 2.326 . S
O168 C160 1.252 . S
In169 O170 2.294 . S
In169 O171 2.326 . S
In169 O175 2.266 . S
In169 O176 2.326 . S
In169 O177 2.266 . S
In169 O178 2.326 . S
In169 O180 2.294 . S
In169 O181 2.326 . S
O170 In169 2.294 . S
O170 C179 1.240 . S
O171 In169 2.326 . S
O171 C179 1.252 . S
C172 O175 1.252 . S
C172 O176 1.260 . S
C173 O180 1.240 . S
C173 O181 1.252 . S
C174 O177 1.252 . S
C174 O178 1.260 . S
O175 In169 2.266 . S
O175 C172 1.252 . S
O176 In169 2.326 . S
O176 C172 1.260 . S
O177 In169 2.266 . S
O177 C174 1.252 . S
O178 In169 2.326 . S
O178 C174 1.260 . S
C179 O170 1.240 . S
C179 O171 1.252 . S
O180 In169 2.294 . S
O180 C173 1.240 . S
O181 In169 2.326 . S
O181 C173 1.252 . S
In182 O183 2.294 . S
In182 O184 2.326 . S
In182 O188 2.266 . S
In182 O189 2.326 . S
In182 O190 2.266 . S
In182 O191 2.326 . S
In182 O193 2.294 . S
In182 O194 2.326 . S
O183 In182 2.294 . S
O183 C192 1.240 . S
O184 In182 2.326 . S
O184 C192 1.252 . S
C185 O188 1.252 . S
C185 O189 1.260 . S
C186 O193 1.240 . S
C186 O194 1.252 . S
C187 O190 1.252 . S
C187 O191 1.260 . S
O188 In182 2.266 . S
O188 C185 1.252 . S
O189 In182 2.326 . S
O189 C185 1.260 . S
O190 In182 2.266 . S
O190 C187 1.252 . S
O191 In182 2.326 . S
O191 C187 1.260 . S
C192 O183 1.240 . S
C192 O184 1.252 . S
O193 In182 2.294 . S
O193 C186 1.240 . S
O194 In182 2.326 . S
O194 C186 1.252 . S
In195 O196 2.294 . S
In195 O197 2.326 . S
In195 O201 2.266 . S
In195 O202 2.326 . S
In195 O203 2.266 . S
In195 O204 2.326 . S
In195 O206 2.294 . S
In195 O207 2.326 . S
O196 In195 2.294 . S
O196 C205 1.240 . S
O197 In195 2.326 . S
O197 C205 1.252 . S
C198 O201 1.252 . S
C198 O202 1.260 . S
C199 O206 1.240 . S
C199 O207 1.252 . S
C200 O203 1.252 . S
C200 O204 1.260 . S
O201 In195 2.266 . S
O201 C198 1.252 . S
O202 In195 2.326 . S
O202 C198 1.260 . S
O203 In195 2.266 . S
O203 C200 1.252 . S
O204 In195 2.326 . S
O204 C200 1.260 . S
C205 O196 1.240 . S
C205 O197 1.252 . S
O206 In195 2.294 . S
O206 C199 1.240 . S
O207 In195 2.326 . S
O207 C199 1.252 . S
C208 C209 1.369 . S
C208 C210 1.419 . S
C208 H212 0.930 . S
C209 C208 1.369 . S
C209 C218 1.429 . S
C210 C208 1.419 . S
C210 C211 1.363 . S
C210 H213 0.929 . S
C211 C210 1.363 . S
C211 C217 1.428 . S
H212 C208 0.930 . S
H213 C210 0.929 . S
S214 N215 1.613 . S
S214 N216 1.610 . S
N215 S214 1.613 . S
N215 C218 1.350 . S
N216 S214 1.610 . S
N216 C217 1.351 . S
C217 C211 1.428 . S
C217 N216 1.351 . S
C217 C218 1.434 . S
C218 C209 1.429 . S
C218 N215 1.350 . S
C218 C217 1.434 . S
C219 C220 1.369 . S
C219 C221 1.419 . S
C219 H223 0.930 . S
C220 C219 1.369 . S
C220 C229 1.429 . S
C221 C219 1.419 . S
C221 C222 1.363 . S
C221 H224 0.929 . S
C222 C221 1.363 . S
C222 C228 1.428 . S
H223 C219 0.930 . S
H224 C221 0.929 . S
S225 N226 1.613 . S
S225 N227 1.610 . S
N226 S225 1.613 . S
N226 C229 1.350 . S
N227 S225 1.610 . S
N227 C228 1.351 . S
C228 C222 1.428 . S
C228 N227 1.351 . S
C228 C229 1.434 . S
C229 C220 1.429 . S
C229 N226 1.350 . S
C229 C228 1.434 . S
C230 C231 1.369 . S
C230 C232 1.419 . S
C230 H234 0.930 . S
C231 C230 1.369 . S
C231 C240 1.429 . S
C232 C230 1.419 . S
C232 C233 1.363 . S
C232 H235 0.929 . S
C233 C232 1.363 . S
C233 C239 1.428 . S
H234 C230 0.930 . S
H235 C232 0.929 . S
S236 N237 1.613 . S
S236 N238 1.610 . S
N237 S236 1.613 . S
N237 C240 1.350 . S
N238 S236 1.610 . S
N238 C239 1.351 . S
C239 C233 1.428 . S
C239 N238 1.351 . S
C239 C240 1.434 . S
C240 C231 1.429 . S
C240 N237 1.350 . S
C240 C239 1.434 . S
C241 C242 1.369 . S
C241 C243 1.419 . S
C241 H245 0.930 . S
C242 C241 1.369 . S
C242 C251 1.429 . S
C243 C241 1.419 . S
C243 C244 1.363 . S
C243 H246 0.929 . S
C244 C243 1.363 . S
C244 C250 1.428 . S
H245 C241 0.930 . S
H246 C243 0.929 . S
S247 N248 1.613 . S
S247 N249 1.610 . S
N248 S247 1.613 . S
N248 C251 1.350 . S
N249 S247 1.610 . S
N249 C250 1.351 . S
C250 C244 1.428 . S
C250 N249 1.351 . S
C250 C251 1.434 . S
C251 C242 1.429 . S
C251 N248 1.350 . S
C251 C250 1.434 . S
C252 C253 1.369 . S
C252 C254 1.419 . S
C252 H256 0.930 . S
C253 C252 1.369 . S
C253 C262 1.429 . S
C254 C252 1.419 . S
C254 C255 1.363 . S
C254 H257 0.929 . S
C255 C254 1.363 . S
C255 C261 1.428 . S
H256 C252 0.930 . S
H257 C254 0.929 . S
S258 N259 1.613 . S
S258 N260 1.610 . S
N259 S258 1.613 . S
N259 C262 1.350 . S
N260 S258 1.610 . S
N260 C261 1.351 . S
C261 C255 1.428 . S
C261 N260 1.351 . S
C261 C262 1.434 . S
C262 C253 1.429 . S
C262 N259 1.350 . S
C262 C261 1.434 . S
C263 C264 1.369 . S
C263 C265 1.419 . S
C263 H267 0.930 . S
C264 C263 1.369 . S
C264 C273 1.429 . S
C265 C263 1.419 . S
C265 C266 1.363 . S
C265 H268 0.929 . S
C266 C265 1.363 . S
C266 C272 1.428 . S
H267 C263 0.930 . S
H268 C265 0.929 . S
S269 N270 1.613 . S
S269 N271 1.610 . S
N270 S269 1.613 . S
N270 C273 1.350 . S
N271 S269 1.610 . S
N271 C272 1.351 . S
C272 C266 1.428 . S
C272 N271 1.351 . S
C272 C273 1.434 . S
C273 C264 1.429 . S
C273 N270 1.350 . S
C273 C272 1.434 . S
C274 C275 1.369 . S
C274 C276 1.419 . S
C274 H278 0.930 . S
C275 C274 1.369 . S
C275 C284 1.429 . S
C276 C274 1.419 . S
C276 C277 1.363 . S
C276 H279 0.929 . S
C277 C276 1.363 . S
C277 C283 1.428 . S
H278 C274 0.930 . S
H279 C276 0.929 . S
S280 N281 1.613 . S
S280 N282 1.610 . S
N281 S280 1.613 . S
N281 C284 1.350 . S
N282 S280 1.610 . S
N282 C283 1.351 . S
C283 C277 1.428 . S
C283 N282 1.351 . S
C283 C284 1.434 . S
C284 C275 1.429 . S
C284 N281 1.350 . S
C284 C283 1.434 . S
C285 C286 1.369 . S
C285 C287 1.419 . S
C285 H289 0.930 . S
C286 C285 1.369 . S
C286 C295 1.429 . S
C287 C285 1.419 . S
C287 C288 1.363 . S
C287 H290 0.929 . S
C288 C287 1.363 . S
C288 C294 1.428 . S
H289 C285 0.930 . S
H290 C287 0.929 . S
S291 N292 1.613 . S
S291 N293 1.610 . S
N292 S291 1.613 . S
N292 C295 1.350 . S
N293 S291 1.610 . S
N293 C294 1.351 . S
C294 C288 1.428 . S
C294 N293 1.351 . S
C294 C295 1.434 . S
C295 C286 1.429 . S
C295 N292 1.350 . S
C295 C294 1.434 . S
C296 C297 1.369 . S
C296 C298 1.419 . S
C296 H300 0.930 . S
C297 C296 1.369 . S
C297 C306 1.429 . S
C298 C296 1.419 . S
C298 C299 1.363 1_556 S
C298 H301 0.929 1_556 S
C299 C298 1.363 1_554 S
C299 C305 1.428 1_554 S
H300 C296 0.930 . S
H301 C298 0.929 1_554 S
S302 N303 1.613 . S
S302 N304 1.610 1_556 S
N303 S302 1.613 . S
N303 C306 1.350 . S
N304 S302 1.610 1_554 S
N304 C305 1.351 1_554 S
C305 C299 1.428 1_556 S
C305 N304 1.351 1_556 S
C305 C306 1.434 . S
C306 C297 1.429 . S
C306 N303 1.350 . S
C306 C305 1.434 . S
C307 C308 1.369 1_554 S
C307 C309 1.419 . S
C307 H311 0.930 . S
C308 C307 1.369 1_556 S
C308 C317 1.433 . S
C309 C307 1.419 . S
C309 C310 1.363 . S
C309 H312 0.929 . S
C310 C309 1.363 . S
C310 C316 1.428 . S
H311 C307 0.930 . S
H312 C309 0.929 . S
S313 N314 1.598 1_554 S
S313 N315 1.629 . S
N314 S313 1.598 1_556 S
N314 C317 1.355 . S
N315 S313 1.629 . S
N315 C316 1.351 . S
C316 C310 1.428 . S
C316 N315 1.351 . S
C316 C317 1.423 1_554 S
C317 C308 1.433 . S
C317 N314 1.355 . S
C317 C316 1.423 1_556 S
C318 C319 1.369 1_554 S
C318 C320 1.419 . S
C318 H322 0.930 . S
C319 C318 1.369 1_556 S
C319 C328 1.429 . S
C320 C318 1.419 . S
C320 C321 1.363 . S
C320 H323 0.929 . S
C321 C320 1.363 . S
C321 C327 1.428 . S
H322 C318 0.930 . S
H323 C320 0.929 . S
S324 N325 1.613 1_554 S
S324 N326 1.610 . S
N325 S324 1.613 1_556 S
N325 C328 1.350 . S
N326 S324 1.610 . S
N326 C327 1.351 . S
C327 C321 1.428 . S
C327 N326 1.351 . S
C327 C328 1.434 1_554 S
C328 C319 1.429 . S
C328 N325 1.350 . S
C328 C327 1.434 1_556 S
C329 C330 1.368 . S
C329 C331 1.421 1_554 S
C329 H333 0.929 . S
C330 C329 1.368 . S
C330 C339 1.433 . S
C331 C329 1.421 1_556 S
C331 C332 1.363 . S
C331 H334 0.929 . S
C332 C331 1.363 . S
C332 C338 1.428 . S
H333 C329 0.929 . S
H334 C331 0.929 . S
S335 N336 1.613 1_556 S
S335 N337 1.610 . S
N336 S335 1.613 1_554 S
N336 C339 1.357 . S
N337 S335 1.610 . S
N337 C338 1.351 . S
C338 C332 1.428 . S
C338 N337 1.351 . S
C338 C339 1.422 1_556 S
C339 C330 1.433 . S
C339 N336 1.357 . S
C339 C338 1.422 1_554 S
C340 C341 1.369 . S
C340 C342 1.419 . S
C340 H344 0.930 . S
C341 C340 1.369 . S
C341 C350 1.429 . S
C342 C340 1.419 . S
C342 C343 1.363 . S
C342 H345 0.929 . S
C343 C342 1.363 . S
C343 C349 1.428 . S
H344 C340 0.930 . S
H345 C342 0.929 . S
S346 N347 1.613 . S
S346 N348 1.610 . S
N347 S346 1.613 . S
N347 C350 1.350 . S
N348 S346 1.610 . S
N348 C349 1.351 . S
C349 C343 1.428 . S
C349 N348 1.351 . S
C349 C350 1.434 . S
C350 C341 1.429 . S
C350 N347 1.350 . S
C350 C349 1.434 . S
C351 C352 1.377 . S
C351 C353 1.399 1_565 S
C351 H355 0.943 . S
C352 C351 1.377 . S
C352 C361 1.427 1_565 S
C353 C351 1.399 1_545 S
C353 C354 1.363 . S
C353 H356 0.929 . S
C354 C353 1.363 . S
C354 C360 1.428 . S
H355 C351 0.943 . S
H356 C353 0.929 . S
S357 N358 1.613 1_545 S
S357 N359 1.610 . S
N358 S357 1.613 1_565 S
N358 C361 1.349 1_565 S
N359 S357 1.610 . S
N359 C360 1.351 . S
C360 C354 1.428 . S
C360 N359 1.351 . S
C360 C361 1.437 . S
C361 C352 1.427 1_545 S
C361 N358 1.349 1_545 S
C361 C360 1.437 . S
C362 C363 1.369 . S
C362 C364 1.419 1_655 S
C362 H366 0.930 . S
C363 C362 1.369 . S
C363 C372 1.429 . S
C364 C362 1.419 1_455 S
C364 C365 1.363 . S
C364 H367 0.929 . S
C365 C364 1.363 . S
C365 C371 1.428 . S
H366 C362 0.930 . S
H367 C364 0.929 . S
S368 N369 1.613 1_455 S
S368 N370 1.610 . S
N369 S368 1.613 1_655 S
N369 C372 1.350 . S
N370 S368 1.610 . S
N370 C371 1.351 . S
C371 C365 1.428 . S
C371 N370 1.351 . S
C371 C372 1.434 1_455 S
C372 C363 1.429 . S
C372 N369 1.350 . S
C372 C371 1.434 1_655 S
C373 C374 1.369 1_565 S
C373 C375 1.419 . S
C373 H377 0.930 1_565 S
C374 C373 1.369 1_545 S
C374 C383 1.429 1_545 S
C375 C373 1.419 . S
C375 C376 1.363 . S
C375 H378 0.929 . S
C376 C375 1.363 . S
C376 C382 1.428 . S
H377 C373 0.930 1_545 S
H378 C375 0.929 . S
S379 N380 1.613 1_565 S
S379 N381 1.610 . S
N380 S379 1.613 1_545 S
N380 C383 1.350 1_545 S
N381 S379 1.610 . S
N381 C382 1.351 . S
C382 C376 1.428 . S
C382 N381 1.351 . S
C382 C383 1.434 . S
C383 C374 1.429 1_565 S
C383 N380 1.350 1_565 S
C383 C382 1.434 . S
C384 C385 1.369 . S
C384 C386 1.419 . S
C384 H388 0.930 . S
C385 C384 1.369 . S
C385 C394 1.429 . S
C386 C384 1.419 . S
C386 C387 1.363 . S
C386 H389 0.929 . S
C387 C386 1.363 . S
C387 C393 1.428 . S
H388 C384 0.930 . S
H389 C386 0.929 . S
S390 N391 1.613 . S
S390 N392 1.610 1_655 S
N391 S390 1.613 . S
N391 C394 1.350 . S
N392 S390 1.610 1_455 S
N392 C393 1.351 1_455 S
C393 C387 1.428 . S
C393 N392 1.351 1_655 S
C393 C394 1.434 . S
C394 C385 1.429 . S
C394 N391 1.350 . S
C394 C393 1.434 . S
C395 C396 1.369 . S
C395 C397 1.419 . S
C395 H399 0.930 . S
C396 C395 1.369 . S
C396 C405 1.429 . S
C397 C395 1.419 . S
C397 C398 1.363 1_565 S
C397 H400 0.929 . S
C398 C397 1.363 1_545 S
C398 C404 1.428 1_545 S
H399 C395 0.930 . S
H400 C397 0.929 . S
S401 N402 1.613 . S
S401 N403 1.610 1_565 S
N402 S401 1.613 . S
N402 C405 1.350 . S
N403 S401 1.610 1_545 S
N403 C404 1.351 1_545 S
C404 C398 1.428 1_565 S
C404 N403 1.351 1_565 S
C404 C405 1.434 . S
C405 C396 1.429 . S
C405 N402 1.350 . S
C405 C404 1.434 . S
C406 C407 1.369 . S
C406 C408 1.419 1_455 S
C406 H410 0.930 . S
C407 C406 1.369 . S
C407 C416 1.429 . S
C408 C406 1.419 1_655 S
C408 C409 1.363 . S
C408 H411 0.929 . S
C409 C408 1.363 . S
C409 C415 1.428 . S
H410 C406 0.930 . S
H411 C408 0.929 . S
S412 N413 1.613 1_655 S
S412 N414 1.610 . S
N413 S412 1.613 1_455 S
N413 C416 1.350 . S
N414 S412 1.610 . S
N414 C415 1.351 . S
C415 C409 1.428 . S
C415 N414 1.351 . S
C415 C416 1.434 1_655 S
C416 C407 1.429 . S
C416 N413 1.350 . S
C416 C415 1.434 1_455 S
C417 C418 1.369 1_545 S
C417 C419 1.419 . S
C417 H421 0.930 1_545 S
C418 C417 1.369 1_565 S
C418 C427 1.429 1_565 S
C419 C417 1.419 . S
C419 C420 1.363 . S
C419 H422 0.929 . S
C420 C419 1.363 . S
C420 C426 1.428 . S
H421 C417 0.930 1_565 S
H422 C419 0.929 . S
S423 N424 1.613 . S
S423 N425 1.610 . S
N424 S423 1.613 . S
N424 C427 1.350 . S
N425 S423 1.610 . S
N425 C426 1.351 . S
C426 C420 1.428 . S
C426 N425 1.351 . S
C426 C427 1.434 . S
C427 C418 1.429 1_545 S
C427 N424 1.350 . S
C427 C426 1.434 . S
C428 C429 1.369 . S
C428 C430 1.419 . S
C428 H432 0.930 . S
C429 C428 1.369 . S
C429 C438 1.429 . S
C430 C428 1.419 . S
C430 C431 1.363 . S
C430 H433 0.929 . S
C431 C430 1.363 . S
C431 C437 1.428 . S
H432 C428 0.930 . S
H433 C430 0.929 . S
S434 N435 1.613 . S
S434 N436 1.610 . S
N435 S434 1.613 . S
N435 C438 1.350 . S
N436 S434 1.610 . S
N436 C437 1.351 . S
C437 C431 1.428 . S
C437 N436 1.351 . S
C437 C438 1.434 . S
C438 C429 1.429 . S
C438 N435 1.350 . S
C438 C437 1.434 . S
C439 C440 1.369 . S
C439 C441 1.419 . S
C439 H443 0.930 . S
C440 C439 1.369 . S
C440 C449 1.429 . S
C441 C439 1.419 . S
C441 C442 1.363 . S
C441 H444 0.929 . S
C442 C441 1.363 . S
C442 C448 1.428 . S
H443 C439 0.930 . S
H444 C441 0.929 . S
S445 N446 1.613 . S
S445 N447 1.610 . S
N446 S445 1.613 . S
N446 C449 1.350 . S
N447 S445 1.610 . S
N447 C448 1.351 . S
C448 C442 1.428 . S
C448 N447 1.351 . S
C448 C449 1.434 . S
C449 C440 1.429 . S
C449 N446 1.350 . S
C449 C448 1.434 . S
C450 C451 1.369 . S
C450 C452 1.419 . S
C450 H454 0.930 . S
C451 C450 1.369 . S
C451 C460 1.429 . S
C452 C450 1.419 . S
C452 C453 1.363 . S
C452 H455 0.929 . S
C453 C452 1.363 . S
C453 C459 1.428 . S
H454 C450 0.930 . S
H455 C452 0.929 . S
S456 N457 1.613 . S
S456 N458 1.610 . S
N457 S456 1.613 . S
N457 C460 1.350 . S
N458 S456 1.610 . S
N458 C459 1.351 . S
C459 C453 1.428 . S
C459 N458 1.351 . S
C459 C460 1.434 . S
C460 C451 1.429 . S
C460 N457 1.350 . S
C460 C459 1.434 . S
C461 C462 1.369 . S
C461 C463 1.419 . S
C461 H465 0.930 . S
C462 C461 1.369 . S
C462 C471 1.429 . S
C463 C461 1.419 . S
C463 C464 1.363 . S
C463 H466 0.929 . S
C464 C463 1.363 . S
C464 C470 1.428 . S
H465 C461 0.930 . S
H466 C463 0.929 . S
S467 N468 1.613 . S
S467 N469 1.610 . S
N468 S467 1.613 . S
N468 C471 1.350 . S
N469 S467 1.610 . S
N469 C470 1.351 . S
C470 C464 1.428 . S
C470 N469 1.351 . S
C470 C471 1.434 . S
C471 C462 1.429 . S
C471 N468 1.350 . S
C471 C470 1.434 . S
C472 C473 1.369 . S
C472 C474 1.419 . S
C472 H476 0.930 . S
C473 C472 1.369 . S
C473 C482 1.429 . S
C474 C472 1.419 . S
C474 C475 1.363 . S
C474 H477 0.929 . S
C475 C474 1.363 . S
C475 C481 1.428 . S
H476 C472 0.930 . S
H477 C474 0.929 . S
S478 N479 1.613 . S
S478 N480 1.610 . S
N479 S478 1.613 . S
N479 C482 1.350 . S
N480 S478 1.610 . S
N480 C481 1.351 . S
C481 C475 1.428 . S
C481 N480 1.351 . S
C481 C482 1.434 . S
C482 C473 1.429 . S
C482 N479 1.350 . S
C482 C481 1.434 . S
C483 C484 1.369 . S
C483 C485 1.419 . S
C483 H487 0.930 . S
C484 C483 1.369 . S
C484 C493 1.429 . S
C485 C483 1.419 . S
C485 C486 1.363 . S
C485 H488 0.929 . S
C486 C485 1.363 . S
C486 C492 1.428 . S
H487 C483 0.930 . S
H488 C485 0.929 . S
S489 N490 1.613 . S
S489 N491 1.610 . S
N490 S489 1.613 . S
N490 C493 1.350 . S
N491 S489 1.610 . S
N491 C492 1.351 . S
C492 C486 1.428 . S
C492 N491 1.351 . S
C492 C493 1.434 . S
C493 C484 1.429 . S
C493 N490 1.350 . S
C493 C492 1.434 . S
C494 C495 1.369 . S
C494 C496 1.419 . S
C494 H498 0.930 . S
C495 C494 1.369 . S
C495 C504 1.429 . S
C496 C494 1.419 . S
C496 C497 1.363 . S
C496 H499 0.929 . S
C497 C496 1.363 . S
C497 C503 1.428 . S
H498 C494 0.930 . S
H499 C496 0.929 . S
S500 N501 1.613 . S
S500 N502 1.610 . S
N501 S500 1.613 . S
N501 C504 1.350 . S
N502 S500 1.610 . S
N502 C503 1.351 . S
C503 C497 1.428 . S
C503 N502 1.351 . S
C503 C504 1.434 . S
C504 C495 1.429 . S
C504 N501 1.350 . S
C504 C503 1.434 . S
C505 C506 1.369 . S
C505 C507 1.419 . S
C505 H509 0.930 . S
C506 C505 1.369 . S
C506 C515 1.429 . S
C507 C505 1.419 . S
C507 C508 1.363 . S
C507 H510 0.929 . S
C508 C507 1.363 . S
C508 C514 1.428 . S
H509 C505 0.930 . S
H510 C507 0.929 . S
S511 N512 1.613 . S
S511 N513 1.610 . S
N512 S511 1.613 . S
N512 C515 1.350 . S
N513 S511 1.610 . S
N513 C514 1.351 . S
C514 C508 1.428 . S
C514 N513 1.351 . S
C514 C515 1.434 . S
C515 C506 1.429 . S
C515 N512 1.350 . S
C515 C514 1.434 . S
C516 C517 1.369 . S
C516 C518 1.419 . S
C516 H520 0.930 . S
C517 C516 1.369 . S
C517 C526 1.429 . S
C518 C516 1.419 . S
C518 C519 1.363 . S
C518 H521 0.929 . S
C519 C518 1.363 . S
C519 C525 1.428 . S
H520 C516 0.930 . S
H521 C518 0.929 . S
S522 N523 1.613 . S
S522 N524 1.610 . S
N523 S522 1.613 . S
N523 C526 1.350 . S
N524 S522 1.610 . S
N524 C525 1.351 . S
C525 C519 1.428 . S
C525 N524 1.351 . S
C525 C526 1.434 . S
C526 C517 1.429 . S
C526 N523 1.350 . S
C526 C525 1.434 . S
C527 C528 1.369 . S
C527 C529 1.419 . S
C527 H531 0.930 . S
C528 C527 1.369 . S
C528 C537 1.429 . S
C529 C527 1.419 . S
C529 C530 1.363 . S
C529 H532 0.929 . S
C530 C529 1.363 . S
C530 C536 1.428 . S
H531 C527 0.930 . S
H532 C529 0.929 . S
S533 N534 1.613 . S
S533 N535 1.610 . S
N534 S533 1.613 . S
N534 C537 1.350 . S
N535 S533 1.610 . S
N535 C536 1.351 . S
C536 C530 1.428 . S
C536 N535 1.351 . S
C536 C537 1.434 . S
C537 C528 1.429 . S
C537 N534 1.350 . S
C537 C536 1.434 . S
C538 C539 1.369 . S
C538 C540 1.419 . S
C538 H542 0.930 . S
C539 C538 1.369 . S
C539 C548 1.429 . S
C540 C538 1.419 . S
C540 C541 1.363 . S
C540 H543 0.929 . S
C541 C540 1.363 . S
C541 C547 1.428 . S
H542 C538 0.930 . S
H543 C540 0.929 . S
S544 N545 1.613 . S
S544 N546 1.610 . S
N545 S544 1.613 . S
N545 C548 1.350 . S
N546 S544 1.610 . S
N546 C547 1.351 . S
C547 C541 1.428 . S
C547 N546 1.351 . S
C547 C548 1.434 . S
C548 C539 1.429 . S
C548 N545 1.350 . S
C548 C547 1.434 . S
C549 C550 1.369 . S
C549 C551 1.419 . S
C549 H553 0.930 . S
C550 C549 1.369 . S
C550 C559 1.429 . S
C551 C549 1.419 . S
C551 C552 1.363 . S
C551 H554 0.929 . S
C552 C551 1.363 . S
C552 C558 1.428 . S
H553 C549 0.930 . S
H554 C551 0.929 . S
S555 N556 1.613 . S
S555 N557 1.610 . S
N556 S555 1.613 . S
N556 C559 1.350 . S
N557 S555 1.610 . S
N557 C558 1.351 . S
C558 C552 1.428 . S
C558 N557 1.351 . S
C558 C559 1.434 . S
C559 C550 1.429 . S
C559 N556 1.350 . S
C559 C558 1.434 . S
C209 C199 1.617 . S
C211 C10 1.609 . S
C220 C160 1.077 . S
C222 C23 1.078 . S
C231 C36 1.303 . S
C233 C179 1.259 . S
C242 C186 1.251 . S
C244 C43 1.308 . S
C253 C127 1.077 . S
C255 C62 1.078 . S
C264 C69 1.248 . S
C266 C134 1.308 . S
C275 C82 1.256 . S
C277 C153 1.306 . S
C286 C101 1.606 . S
C288 C114 1.613 . S
C297 C70 1.798 . S
C299 C5 1.690 . S
C308 C81 1.550 . S
C310 C18 1.641 . S
C319 C94 1.752 . S
C321 C31 1.699 . S
C330 C44 1.456 . S
C332 C56 1.424 . S
C341 C4 1.478 . S
C343 C16 1.483 1_455 S
C352 C29 1.457 . S
C354 C17 1.420 . S
C363 C30 1.845 . S
C365 C49 1.841 . S
C374 C3 1.752 . S
C376 C42 1.697 . S
C385 C95 1.480 . S
C387 C55 1.481 1_655 S
C396 C57 1.640 . S
C398 C68 1.549 . S
C407 C75 1.594 . S
C409 C88 1.595 . S
C418 C96 1.691 . S
C420 C83 1.799 . S
C429 C172 1.800 . S
C431 C109 1.690 . S
C440 C122 1.643 . S
C442 C185 1.554 . S
C451 C200 1.752 . S
C453 C133 1.699 . S
C462 C166 1.425 . S
C464 C146 1.457 . S
C473 C108 1.480 . S
C475 C120 1.481 . S
C484 C121 1.418 . S
C486 C135 1.455 . S
C495 C147 1.838 . S
C497 C140 1.840 . S
C506 C107 1.754 . S
C508 C148 1.702 . S
C517 C205 1.478 . S
C519 C161 1.484 . S
C528 C159 1.640 . S
C530 C174 1.549 . S
C539 C173 1.599 . S
C541 C192 1.598 . S
C550 C198 1.689 . S
C552 C187 1.800 . S
