# Generated by pormake.
# Topology tfs, (6)-cn, num edge types: 1
# Building blocks:
#     Node 0, Type 0, BuildingBlock: VOLQOD_clean_sbu_1, # of connection points: 6
#     Node 1, Type 0, BuildingBlock: VOLQOD_clean_sbu_1, # of connection points: 6
#     Node 2, Type 0, BuildingBlock: VOLQOD_clean_sbu_1, # of connection points: 6
#     Node 3, Type 0, BuildingBlock: VOLQOD_clean_sbu_1, # of connection points: 6
#     Node 4, Type 0, BuildingBlock: VOLQOD_clean_sbu_1, # of connection points: 6
#     Node 5, Type 0, BuildingBlock: VOLQOD_clean_sbu_1, # of connection points: 6
#     Edge 6, Type (0, 0), BuildingBlock: ZUJKAS_clean_linker_0, # of connection points: 2
#     Edge 7, Type (0, 0), BuildingBlock: ZUJKAS_clean_linker_0, # of connection points: 2
#     Edge 8, Type (0, 0), BuildingBlock: ZUJKAS_clean_linker_0, # of connection points: 2
#     Edge 9, Type (0, 0), BuildingBlock: ZUJKAS_clean_linker_0, # of connection points: 2
#     Edge 10, Type (0, 0), BuildingBlock: ZUJKAS_clean_linker_0, # of connection points: 2
#     Edge 11, Type (0, 0), BuildingBlock: ZUJKAS_clean_linker_0, # of connection points: 2
#     Edge 12, Type (0, 0), BuildingBlock: ZUJKAS_clean_linker_0, # of connection points: 2
#     Edge 13, Type (0, 0), BuildingBlock: ZUJKAS_clean_linker_0, # of connection points: 2
#     Edge 14, Type (0, 0), BuildingBlock: ZUJKAS_clean_linker_0, # of connection points: 2
#     Edge 15, Type (0, 0), BuildingBlock: ZUJKAS_clean_linker_0, # of connection points: 2
#     Edge 16, Type (0, 0), BuildingBlock: ZUJKAS_clean_linker_0, # of connection points: 2
#     Edge 17, Type (0, 0), BuildingBlock: ZUJKAS_clean_linker_0, # of connection points: 2
#     Edge 18, Type (0, 0), BuildingBlock: ZUJKAS_clean_linker_0, # of connection points: 2
#     Edge 19, Type (0, 0), BuildingBlock: ZUJKAS_clean_linker_0, # of connection points: 2
#     Edge 20, Type (0, 0), BuildingBlock: ZUJKAS_clean_linker_0, # of connection points: 2
#     Edge 21, Type (0, 0), BuildingBlock: ZUJKAS_clean_linker_0, # of connection points: 2
#     Edge 22, Type (0, 0), BuildingBlock: ZUJKAS_clean_linker_0, # of connection points: 2
#     Edge 23, Type (0, 0), BuildingBlock: ZUJKAS_clean_linker_0, # of connection points: 2
# Relax obj value: 0.115
# Max RMSD: 0.091
# Mean RMSD: 0.091
data_MOF--net-tfs--node1-VOLQOD_clean_sbu_1--edge1-ZUJKAS_clean_linker_0
_symmetry_space_group_name_H-M    P1
_symmetry_Int_Tables_number       1
_symmetry_cell_setting            triclinic
loop_
_symmetry_equiv_pos_as_xyz
'x, y, z'
_cell_length_a     58.181995
_cell_length_b     58.201056
_cell_length_c     21.671627
_cell_angle_alpha  90.086596
_cell_angle_beta   89.935141
_cell_angle_gamma 120.00088
loop_
_atom_site_label
_atom_site_type_symbol
_atom_site_fract_x
_atom_site_fract_y
_atom_site_fract_z
_atom_type_partial_charge
O0 O 0.24296 0.46917 0.95727 0.0
Zn1 Zn 0.2036 0.44865 0.94231 0.0
O2 O 0.18563 0.41836 -0.00274 0.0
Zn3 Zn 0.1693 0.38567 0.94862 0.0
Zn4 Zn 0.21181 0.41835 0.05321 0.0
Zn5 Zn 0.15823 0.42091 0.04438 0.0
O6 O 0.13044 0.36349 0.96752 0.0
O7 O 0.12202 0.3896 0.02675 0.0
O8 O 0.19711 0.43754 0.85368 0.0
O9 O 0.17204 0.39371 0.858 0.0
O10 O 0.18692 0.36393 0.96422 0.0
O11 O 0.2152 0.38616 0.03969 0.0
O12 O 0.2015 0.41837 0.14123 0.0
O13 O 0.19011 0.4738 0.95557 0.0
O14 O 0.16422 0.41996 0.13547 0.0
O15 O 0.15834 0.45512 0.02614 0.0
C16 C 0.25774 0.46786 -0.00125 0.0
C17 C 0.11422 0.36795 -0.0026 0.0
C18 C 0.20462 0.36657 0.00267 0.0
C19 C 0.18387 0.41514 0.82716 0.0
C20 C 0.18214 0.41895 0.16702 0.0
C21 C 0.17241 0.47415 -0.01058 0.0
O22 O 0.24825 0.44988 0.03991 0.0
O23 O 0.76505 0.24158 0.94424 0.0
Zn24 Zn 0.74774 0.20225 0.93063 0.0
O25 O 0.76137 0.18579 0.98639 0.0
Zn26 Zn 0.77939 0.17071 0.93904 0.0
Zn27 Zn 0.7865 0.21295 0.0422 0.0
Zn28 Zn 0.73199 0.15782 0.03354 0.0
O29 O 0.76348 0.13181 0.95692 0.0
O30 O 0.72824 0.12221 0.01475 0.0
O31 O 0.75312 0.19586 0.84268 0.0
O32 O 0.7749 0.17365 0.84785 0.0
O33 O 0.81873 0.18942 0.95759 0.0
O34 O 0.82285 0.21827 0.02989 0.0
O35 O 0.77639 0.2026 0.13016 0.0
O36 O 0.70887 0.18754 0.9439 0.0
O37 O 0.73908 0.16376 0.12463 0.0
O38 O 0.69723 0.15684 0.01651 0.0
C39 C 0.78049 0.25701 0.98585 0.0
C40 C 0.74272 0.11508 0.98577 0.0
C41 C 0.83296 0.20799 -0.00475 0.0
C42 C 0.76405 0.18417 0.8166 0.0
C43 C 0.75732 0.18248 0.15605 0.0
C44 C 0.6914 0.17002 0.97909 0.0
O45 O 0.78945 0.24845 0.02804 0.0
O46 O 0.51844 0.76731 0.94639 0.0
Zn47 Zn 0.53992 0.7493 0.93444 0.0
O48 O 0.57054 0.76382 -0.01112 0.0
Zn49 Zn 0.60328 0.78089 0.94019 0.0
Zn50 Zn 0.56956 0.79022 0.04227 0.0
Zn51 Zn 0.56905 0.73503 0.03851 0.0
O52 O 0.62576 0.76448 0.95836 0.0
O53 O 0.601 0.73119 0.02189 0.0
O54 O 0.55107 0.75331 0.84623 0.0
O55 O 0.5951 0.77612 0.84956 0.0
O56 O 0.62502 0.82026 0.95687 0.0
O57 O 0.60113 0.82606 0.02842 0.0
O58 O 0.57006 0.78136 0.13093 0.0
O59 O 0.51565 0.71062 0.95008 0.0
O60 O 0.56971 0.74304 0.12882 0.0
O61 O 0.53556 0.69997 0.02258 0.0
C62 C 0.51939 0.78403 0.98569 0.0
C63 C 0.62213 0.74464 -0.00951 0.0
C64 C 0.62143 0.83526 -0.00637 0.0
C65 C 0.57349 0.76449 0.81926 0.0
C66 C 0.5702 0.76216 0.15853 0.0
C67 C 0.51619 0.6936 0.98587 0.0
O68 O 0.53747 0.79381 0.02662 0.0
O69 O 0.74649 0.52249 0.93934 0.0
Zn70 Zn 0.78582 0.54386 0.92562 0.0
O71 O 0.80271 0.57359 0.98234 0.0
Zn72 Zn 0.81833 0.60677 0.93572 0.0
Zn73 Zn 0.77591 0.57199 0.03876 0.0
Zn74 Zn 0.83036 0.57143 0.02892 0.0
O75 O 0.85713 0.62923 0.95465 0.0
O76 O 0.86634 0.60239 0.00864 0.0
O77 O 0.79266 0.5558 0.83773 0.0
O78 O 0.81579 0.59972 0.84422 0.0
O79 O 0.80008 0.62773 0.95439 0.0
O80 O 0.77097 0.60325 0.02645 0.0
O81 O 0.78662 0.57253 0.12671 0.0
O82 O 0.79962 0.51897 0.93839 0.0
O83 O 0.82511 0.57334 0.12026 0.0
O84 O 0.83007 0.53704 0.01195 0.0
C85 C 0.73133 0.52237 0.98187 0.0
C86 C 0.87372 0.6244 0.98143 0.0
C87 C 0.78155 0.62365 -0.00806 0.0
C88 C 0.80499 0.5785 0.81228 0.0
C89 C 0.80675 0.57342 0.15216 0.0
C90 C 0.81667 0.51831 0.97391 0.0
O91 O 0.74021 0.53956 0.02491 0.0
O92 O 0.21767 0.74754 0.93729 0.0
Zn93 Zn 0.23659 0.78688 0.92286 0.0
O94 O 0.22436 0.80459 0.97899 0.0
Zn95 Zn 0.20776 0.82106 0.93204 0.0
Zn96 Zn 0.19857 0.77843 0.03557 0.0
Zn97 Zn 0.25448 0.83189 0.02522 0.0
O98 O 0.22376 0.85963 0.95405 0.0
O99 O 0.26031 0.86812 0.00522 0.0
O100 O 0.23195 0.794 0.8347 0.0
O101 O 0.2134 0.81926 0.84081 0.0
O102 O 0.16842 0.80289 0.94772 0.0
O103 O 0.16276 0.7746 0.02276 0.0
O104 O 0.20899 0.7892 0.12344 0.0
O105 O 0.27524 0.79982 0.93587 0.0
O106 O 0.24751 0.82681 0.11668 0.0
O107 O 0.28809 0.83102 0.00777 0.0
C108 C 0.20231 0.73279 0.9799 0.0
C109 C 0.24556 0.87583 0.98008 0.0
C110 C 0.15354 0.78508 0.98615 0.0
C111 C 0.22294 0.80755 0.80908 0.0
C112 C 0.22874 0.80893 0.14874 0.0
C113 C 0.29314 0.8171 0.97074 0.0
O114 O 0.19429 0.74224 0.02235 0.0
O115 O 0.46583 0.21851 0.94368 0.0
Zn116 Zn 0.44589 0.23782 0.92874 0.0
O117 O 0.41555 0.22566 0.9834 0.0
Zn118 Zn 0.38301 0.20953 0.9344 0.0
Zn119 Zn 0.41512 0.19938 0.03973 0.0
Zn120 Zn 0.41833 0.25579 0.03004 0.0
O121 O 0.36086 0.22626 0.9537 0.0
O122 O 0.38739 0.26105 0.01174 0.0
O123 O 0.435 0.23338 0.84018 0.0
O124 O 0.39116 0.21486 0.84383 0.0
O125 O 0.36111 0.17025 0.94994 0.0
O126 O 0.38171 0.16442 0.02964 0.0
O127 O 0.41666 0.21069 0.12729 0.0
O128 O 0.47147 0.27634 0.94214 0.0
O129 O 0.4175 0.24919 0.12126 0.0
O130 O 0.45266 0.28964 0.01189 0.0
C131 C 0.46403 0.20183 0.98405 0.0
C132 C 0.36561 0.24717 0.98296 0.0
C133 C 0.36267 0.15554 -0.00884 0.0
C134 C 0.4127 0.22437 0.81333 0.0
C135 C 0.41716 0.23061 0.15292 0.0
C136 C 0.47184 0.29445 0.97577 0.0
O137 O 0.44586 0.19314 0.02489 0.0
H138 H 0.37094 0.29352 0.02772 0.0
H139 H 0.33777 0.30757 0.02744 0.0
H140 H 0.28157 0.23423 0.93956 0.0
H141 H 0.31464 0.21988 0.93916 0.0
H142 H 0.30724 0.30718 0.90669 0.0
H143 H 0.24697 0.24721 0.10709 0.0
H144 H 0.28182 0.25771 0.10029 0.0
H145 H 0.25825 0.23235 0.05028 0.0
C146 C 0.35153 0.28029 0.00844 0.0
C147 C 0.34545 0.25557 0.98342 0.0
C148 C 0.33265 0.28838 0.00831 0.0
C149 C 0.30734 0.27183 0.98374 0.0
C150 C 0.30104 0.24713 0.95897 0.0
H151 H 0.19535 0.32858 0.91578 0.0
H152 H 0.21663 0.30144 0.90866 0.0
C153 C 0.31998 0.23906 0.95868 0.0
C154 C 0.28782 0.2809 0.98297 0.0
H155 H 0.23524 0.2768 0.06237 0.0
C156 C 0.29123 0.30033 0.94003 0.0
C157 C 0.26717 0.27186 0.02687 0.0
C158 C 0.26316 0.25117 0.07407 0.0
C159 C 0.27483 0.31157 0.9409 0.0
C160 C 0.2545 0.30297 0.98571 0.0
C161 C 0.25072 0.28309 0.0278 0.0
C162 C 0.23892 0.31644 -0.00669 0.0
C163 C 0.28007 0.33339 0.89576 0.0
C164 C 0.24383 0.33309 0.04428 0.0
C165 C 0.23184 0.34863 0.04845 0.0
C166 C 0.21459 0.34766 0.00179 0.0
C167 C 0.2086 0.32985 0.95236 0.0
C168 C 0.22076 0.31439 0.94809 0.0
H169 H 0.29878 0.34012 0.86955 0.0
H170 H 0.26344 0.32609 0.86231 0.0
H171 H 0.2812 0.35069 0.92033 0.0
H172 H 0.25778 0.33486 0.07963 0.0
H173 H 0.23671 0.36196 0.0874 0.0
H174 H 0.07445 0.36792 0.06497 0.0
H175 H 0.02733 0.33453 0.06436 0.0
H176 H 0.04212 0.28852 0.93063 0.0
H177 H 0.08938 0.32184 0.93063 0.0
H178 H -0.00046 0.29806 0.90129 0.0
H179 H 0.99102 0.25858 0.13814 0.0
H180 H 0.00726 0.29414 0.13418 0.0
H181 H 0.02243 0.27709 0.09857 0.0
C182 C 0.06777 0.35067 0.03561 0.0
C183 C 0.08572 0.34756 -0.0021 0.0
C184 C 0.04086 0.33152 0.03567 0.0
C185 C 0.03141 0.30893 -0.00185 0.0
C186 C 0.04915 0.30575 0.96028 0.0
H187 H 0.86303 0.19295 0.92655 0.0
H188 H 0.91152 0.21365 0.92605 0.0
C189 C 0.07612 0.32482 0.96039 0.0
C190 C 0.00272 0.28941 -0.00366 0.0
H191 H 0.95044 0.24821 0.08766 0.0
C192 C 0.98877 0.28679 0.94162 0.0
C193 C 0.98892 0.27476 0.0491 0.0
C194 C 0.00317 0.27603 0.10822 0.0
C195 C 0.96103 0.27101 0.93927 0.0
C196 C 0.94708 0.25713 -0.0072 0.0
C197 C 0.96121 0.25889 0.04674 0.0
C198 C 0.91776 0.24292 -0.00432 0.0
C199 C 0.9468 0.27051 0.88063 0.0
C200 C 0.90528 0.25192 0.03652 0.0
C201 C 0.87773 0.24007 0.03733 0.0
C202 C 0.86203 0.21893 -0.00279 0.0
C203 C 0.87455 0.20932 0.9577 0.0
C204 C 0.90223 0.22119 0.95711 0.0
H205 H 0.96006 0.28625 0.8478 0.0
H206 H 0.93932 0.25103 0.85753 0.0
H207 H 0.92953 0.27309 0.89095 0.0
H208 H 0.91693 0.26862 0.06678 0.0
H209 H 0.86882 0.24793 0.0686 0.0
H210 H 0.76605 0.09155 0.92134 0.0
H211 H 0.75305 0.04452 0.92036 0.0
H212 H 0.68975 0.02757 0.04833 0.0
H213 H 0.7025 0.07442 0.04993 0.0
H214 H 0.72415 0.00457 0.0762 0.0
H215 H 0.68288 0.98497 0.83748 0.0
H216 H 0.71567 0.01283 0.84936 0.0
H217 H 0.68753 0.01332 0.88163 0.0
C218 C 0.74937 0.07785 0.94937 0.0
C219 C 0.73522 0.08675 0.98552 0.0
C220 C 0.74198 0.05101 0.94858 0.0
C221 C 0.72038 0.03269 0.98393 0.0
C222 C 0.70648 0.0415 0.02071 0.0
H223 H 0.62081 0.87217 0.07006 0.0
H224 H 0.64968 0.92004 0.06713 0.0
C225 C 0.71375 0.06826 0.02137 0.0
C226 C 0.71181 0.00418 0.9824 0.0
H227 H 0.67812 0.94853 0.89418 0.0
C228 C 0.71437 0.99231 0.03621 0.0
C229 C 0.69937 0.98841 0.92987 0.0
C230 C 0.69599 0.00035 0.87122 0.0
C231 C 0.70393 0.96481 0.03963 0.0
C232 C 0.69008 0.94882 -0.01168 0.0
C233 C 0.68873 0.96087 0.93344 0.0
C234 C 0.67432 0.91958 -0.00721 0.0
C235 C 0.70745 0.95309 0.09848 0.0
C236 C 0.67832 0.90339 0.95121 0.0
C237 C 0.66161 0.87584 0.95236 0.0
C238 C 0.64048 0.86412 -0.00527 0.0
C239 C 0.63689 0.88046 0.03687 0.0
C240 C 0.65355 0.90788 0.03568 0.0
H241 H 0.72557 0.96767 0.12366 0.0
H242 H 0.69016 0.94758 0.12912 0.0
H243 H 0.70878 0.93503 0.08917 0.0
H244 H 0.69411 0.91212 0.91734 0.0
H245 H 0.66488 0.86383 0.91919 0.0
H246 H 0.74197 0.62044 0.06537 0.0
H247 H 0.722 0.64851 0.06317 0.0
H248 H 0.77735 0.69713 0.92222 0.0
H249 H 0.79735 0.66874 0.92316 0.0
H250 H 0.74347 0.70309 0.08266 0.0
H251 H 0.7045 0.67284 0.84377 0.0
H252 H 0.71729 0.65544 0.88796 0.0
H253 H 0.73969 0.68691 0.85354 0.0
C254 C 0.75007 0.63715 0.03401 0.0
C255 C 0.77109 0.64215 -0.0061 0.0
C256 C 0.73865 0.65323 0.033 0.0
C257 C 0.74796 0.67462 -0.00806 0.0
C258 C 0.7696 0.68039 0.95347 0.0
H259 H 0.66774 0.76564 0.92185 0.0
H260 H 0.70167 0.75252 0.92263 0.0
C261 C 0.78106 0.66423 0.95429 0.0
C262 C 0.73404 0.68996 -0.01163 0.0
H263 H 0.69282 0.70078 0.89644 0.0
C264 C 0.73264 0.70288 0.04174 0.0
C265 C 0.71999 0.68962 0.93482 0.0
C266 C 0.72018 0.67533 0.8768 0.0
C267 C 0.71688 0.71483 0.0436 0.0
C268 C 0.70196 0.71349 -0.00905 0.0
C269 C 0.7043 0.70167 0.93669 0.0
C270 C 0.68224 0.72239 -0.00739 0.0
C271 C 0.71596 0.7284 0.10215 0.0
C272 C 0.66001 0.70953 0.03126 0.0
C273 C 0.64053 0.71682 0.03077 0.0
C274 C 0.64292 0.7371 -0.00856 0.0
C275 C 0.66531 0.74999 0.95282 0.0
C276 C 0.68474 0.74257 0.95319 0.0
H277 H 0.73376 0.73428 0.13127 0.0
H278 H 0.71452 0.74632 0.09178 0.0
H279 H 0.6982 0.71452 0.1293 0.0
H280 H 0.6575 0.69351 0.06109 0.0
H281 H 0.62356 0.70646 0.06101 0.0
H282 H 0.12426 0.7933 0.89921 0.0
H283 H 0.07586 0.77293 0.89538 0.0
H284 H 0.0694 0.73414 0.06915 0.0
H285 H 0.11754 0.75427 0.07352 0.0
H286 H 0.04169 0.71644 0.89624 0.0
H287 H 0.01919 0.76515 0.08851 0.0
H288 H 0.05154 0.7796 0.05268 0.0
H289 H 0.04165 0.75364 0.10885 0.0
C290 C 0.11256 0.78081 0.93714 0.0
C291 C 0.12471 0.77527 0.98652 0.0
C292 C 0.08496 0.76922 0.93483 0.0
C293 C 0.06919 0.75232 0.98231 0.0
C294 C 0.0813 0.74751 0.03262 0.0
H295 H 0.9157 0.61862 0.0161 0.0
H296 H 0.96285 0.65197 0.01186 0.0
C297 C 0.10881 0.75887 0.03475 0.0
C298 C 0.04003 0.73737 0.97666 0.0
H299 H 0.98309 0.7238 0.05204 0.0
C300 C 0.02882 0.71835 0.92959 0.0
C301 C 0.0234 0.74003 0.02021 0.0
C302 C 0.0345 0.76088 0.07013 0.0
C303 C 0.00138 0.70092 0.92687 0.0
C304 C 0.98494 0.70265 0.97237 0.0
C305 C -0.00406 0.7225 0.01759 0.0
C306 C 0.95646 0.68292 0.97559 0.0
C307 C 0.99014 0.68028 0.8765 0.0
C308 C 0.93747 0.68957 0.95711 0.0
C309 C 0.91052 0.67054 0.95907 0.0
C310 C 0.9022 0.64469 0.98022 0.0
C311 C 0.92141 0.63832 -0.00038 0.0
C312 C 0.94832 0.65729 -0.00287 0.0
H313 H 0.00473 0.68449 0.83892 0.0
H314 H 0.98438 0.66055 0.89635 0.0
H315 H 0.97204 0.67917 0.85654 0.0
H316 H 0.94354 0.70935 0.94055 0.0
H317 H 0.89623 0.67612 0.94407 0.0
H318 H 0.29585 0.91766 0.97643 0.0
H319 H 0.30974 0.96475 0.98167 0.0
H320 H 0.22786 0.94494 -0.0029 0.0
H321 H 0.21382 0.89776 -0.01224 0.0
H322 H 0.25202 0.98534 0.92659 0.0
H323 H 0.3151 0.0054 0.13185 0.0
H324 H 0.32632 0.99232 0.07159 0.0
H325 H 0.2936 0.97217 0.10403 0.0
C326 C 0.28085 0.9234 0.98093 0.0
C327 C 0.25381 0.90418 0.98221 0.0
C328 C 0.28879 0.95028 0.98451 0.0
C329 C 0.26991 0.95839 -0.00813 0.0
C330 C 0.24281 0.93917 -0.00799 0.0
H331 H 0.33919 0.12505 0.09182 0.0
H332 H 0.31063 0.0768 0.09484 0.0
C333 C 0.23481 0.91227 0.98669 0.0
C334 C 0.27854 0.98696 -0.00188 0.0
H335 H 0.32397 0.04353 0.07071 0.0
C336 C 0.26746 -0.00198 0.95882 0.0
C337 C 0.29805 0.00344 0.04147 0.0
C338 C 0.30867 0.99261 0.09005 0.0
C339 C 0.27632 0.02531 0.9596 0.0
C340 C 0.2977 0.04214 -0.00132 0.0
C341 C 0.30785 0.03083 0.03995 0.0
C342 C 0.31093 0.07153 -0.00419 0.0
C343 C 0.26243 0.0356 0.91887 0.0
C344 C 0.32001 0.08482 0.93915 0.0
C345 C 0.3355 0.11244 0.93735 0.0
C346 C 0.34302 0.12712 -0.00766 0.0
C347 C 0.33359 0.11402 0.04887 0.0
C348 C 0.31736 0.0865 0.05053 0.0
H349 H 0.2412 0.02037 0.91265 0.0
H350 H 0.26354 0.0538 0.93819 0.0
H351 H 0.27179 0.04017 0.87251 0.0
H352 H 0.31624 0.07384 0.89646 0.0
H353 H 0.34293 0.12217 0.89332 0.0
H354 H 0.17079 0.69509 0.06467 0.0
H355 H 0.16093 0.64899 0.07034 0.0
H356 H 0.20621 0.66011 0.90434 0.0
H357 H 0.21632 0.70609 0.89822 0.0
H358 H 0.13701 0.60579 0.97822 0.0
H359 H 0.24107 0.63621 0.03933 0.0
H360 H 0.22784 0.65832 0.04607 0.0
H361 H 0.23768 0.65224 0.97199 0.0
C362 C 0.17852 0.68769 0.02912 0.0
C363 C 0.19459 0.70439 0.98132 0.0
C364 C 0.1728 0.66135 0.03241 0.0
C365 C 0.18316 0.65138 -0.01178 0.0
C366 C 0.19836 0.66764 0.93933 0.0
H367 H 0.19421 0.51468 0.90654 0.0
H368 H 0.19346 0.55612 0.90914 0.0
C369 C 0.20407 0.6939 0.93591 0.0
C370 C 0.17908 0.62431 -0.00592 0.0
H371 H 0.21301 0.59104 0.01165 0.0
C372 C 0.15351 0.60244 0.98617 0.0
C373 C 0.20068 0.62016 0.00496 0.0
C374 C 0.22835 0.64294 0.01666 0.0
C375 C 0.14919 0.57642 0.98593 0.0
C376 C 0.171 0.57239 -0.00542 0.0
C377 C 0.19638 0.59426 0.0046 0.0
C378 C 0.16852 0.54589 -0.00985 0.0
C379 C 0.12165 0.55353 0.9741 0.0
C380 C 0.15433 0.52621 0.03442 0.0
C381 C 0.15466 0.50232 0.03309 0.0
C382 C 0.1694 0.49794 -0.01225 0.0
C383 C 0.18281 0.51743 0.9424 0.0
C384 C 0.18239 0.54115 0.94369 0.0
H385 H 0.10793 0.56031 0.95776 0.0
H386 H 0.12221 0.5398 0.93926 0.0
H387 H 0.11352 0.54221 0.0175 0.0
H388 H 0.14381 0.5297 0.07118 0.0
H389 H 0.14419 0.48774 0.06877 0.0
H390 H 0.50528 0.21635 0.90395 0.0
H391 H 0.54013 0.20477 0.90832 0.0
H392 H 0.50379 0.15683 0.0696 0.0
H393 H 0.46852 0.16816 0.06557 0.0
H394 H 0.5742 0.21617 0.01336 0.0
H395 H 0.51928 0.10863 0.9538 0.0
H396 H 0.50677 0.13059 0.93485 0.0
H397 H 0.50533 0.11976 0.01291 0.0
C398 C 0.50444 0.20311 0.94007 0.0
C399 C 0.48411 0.19327 0.98456 0.0
C400 C 0.5244 0.19651 0.94242 0.0
C401 C 0.52439 0.17981 -0.01104 0.0
C402 C 0.50389 0.16944 0.03277 0.0
H403 H 0.65085 0.14247 0.06188 0.0
H404 H 0.60861 0.14229 0.06793 0.0
C405 C 0.48385 0.17606 0.03054 0.0
C406 C 0.54699 0.17501 -0.00637 0.0
H407 H 0.5651 0.12791 0.97479 0.0
C408 C 0.57219 0.19684 0.00531 0.0
C409 C 0.54419 0.14971 0.98369 0.0
C410 C 0.5175 0.12577 0.97022 0.0
C411 C 0.59483 0.19422 0.0059 0.0
C412 C 0.59222 0.16918 -0.00654 0.0
C413 C 0.56693 0.14707 0.98403 0.0
C414 C 0.61591 0.16629 0.98627 0.0
C415 C 0.62145 0.21836 0.01913 0.0
C416 C 0.6334 0.17906 0.9372 0.0
C417 C 0.65742 0.17926 0.93364 0.0
C418 C 0.66439 0.16658 0.97901 0.0
C419 C 0.64611 0.15249 0.02632 0.0
C420 C 0.622 0.15236 0.02989 0.0
H421 H 0.61933 0.23413 0.04292 0.0
H422 H 0.63388 0.21311 0.04809 0.0
H423 H 0.63205 0.22661 0.97494 0.0
H424 H 0.62882 0.18959 0.90263 0.0
H425 H 0.67084 0.19004 0.89616 0.0
H426 H 0.50474 0.65378 0.06931 0.0
H427 H 0.4643 0.61016 0.07426 0.0
H428 H 0.43498 0.62851 0.90983 0.0
H429 H 0.47511 0.67176 0.90414 0.0
H430 H 0.4129 0.60256 0.08562 0.0
H431 H 0.42131 0.55364 0.87453 0.0
H432 H 0.4494 0.58227 0.90848 0.0
H433 H 0.42661 0.58627 0.85981 0.0
C434 C 0.48987 0.64833 0.03363 0.0
C435 C 0.49314 0.66629 0.9864 0.0
C436 C 0.4668 0.62344 0.03659 0.0
C437 C 0.44685 0.616 -0.00807 0.0
C438 C 0.45038 0.63363 0.94402 0.0
H439 H 0.28492 0.50897 0.91843 0.0
H440 H 0.33191 0.5426 0.92114 0.0
C441 C 0.47328 0.65847 0.94116 0.0
C442 C 0.42125 0.59095 -0.00217 0.0
H443 H 0.37737 0.53608 0.91673 0.0
C444 C 0.40528 0.5877 0.04938 0.0
C445 C 0.41142 0.57168 0.95039 0.0
C446 C 0.42819 0.57347 0.89547 0.0
C447 C 0.37911 0.56648 0.05299 0.0
C448 C 0.36888 0.54787 0.00415 0.0
C449 C 0.38526 0.55048 0.95393 0.0
C450 C 0.34069 0.52672 0.00217 0.0
C451 C 0.36215 0.56492 0.10735 0.0
C452 C 0.33018 0.50646 0.04646 0.0
C453 C 0.30325 0.48719 0.0452 0.0
C454 C 0.28642 0.48782 -0.00058 0.0
C455 C 0.29723 0.50791 0.95447 0.0
C456 C 0.32411 0.52713 0.95581 0.0
H457 H 0.37148 0.58346 0.13514 0.0
H458 H 0.34233 0.56097 0.09164 0.0
H459 H 0.35914 0.54833 0.13778 0.0
H460 H 0.34278 0.5056 0.08207 0.0
H461 H 0.29563 0.47191 0.0803 0.0
H462 H 0.84297 0.50397 0.05686 0.0
H463 H 0.84189 0.46135 0.06202 0.0
H464 H 0.79512 0.43584 0.89556 0.0
H465 H 0.79587 0.47801 0.89011 0.0
H466 H 0.77272 0.40164 -0.00044 0.0
H467 H 0.87736 0.42785 0.95521 0.0
H468 H 0.87195 0.44725 0.01205 0.0
H469 H 0.86453 0.44917 0.93255 0.0
C470 C 0.83289 0.48948 0.02073 0.0
C471 C 0.81932 0.49431 0.97336 0.0
C472 C 0.83237 0.46519 0.02367 0.0
C473 C 0.8185 0.44556 0.97903 0.0
C474 C 0.80593 0.45078 0.93042 0.0
H475 H 0.76547 0.28228 0.90271 0.0
H476 H 0.77604 0.32847 0.90446 0.0
C477 C 0.80637 0.47491 0.92748 0.0
C478 C 0.81477 0.41864 0.98548 0.0
H479 H 0.84669 0.38294 0.97732 0.0
C480 C 0.7889 0.39754 -0.00513 0.0
C481 C 0.83599 0.41349 0.97998 0.0
C482 C 0.86405 0.43554 0.969 0.0
C483 C 0.78354 0.37129 -0.00207 0.0
C484 C 0.80458 0.366 -0.00973 0.0
C485 C 0.83062 0.38714 0.98277 0.0
C486 C 0.79959 0.33851 -0.01223 0.0
C487 C 0.75539 0.34943 0.0094 0.0
C488 C 0.81003 0.32913 0.03307 0.0
C489 C 0.80409 0.3027 0.03217 0.0
C490 C 0.78772 0.28528 0.9857 0.0
C491 C 0.77794 0.29505 0.93946 0.0
C492 C 0.78389 0.32143 0.94043 0.0
H493 H 0.7432 0.35717 0.03058 0.0
H494 H 0.7461 0.33999 0.96479 0.0
H495 H 0.75492 0.33393 0.04006 0.0
H496 H 0.8223 0.34211 0.06979 0.0
H497 H 0.81207 0.29587 0.06831 0.0
H498 H 0.3111 0.7918 0.89542 0.0
H499 H 0.35374 0.79341 0.89996 0.0
H500 H 0.37864 0.85041 0.04816 0.0
H501 H 0.33576 0.84877 0.04461 0.0
H502 H 0.40671 0.83685 0.88884 0.0
H503 H 0.38588 0.78843 0.11961 0.0
H504 H 0.36025 0.78851 0.07294 0.0
H505 H 0.38341 0.81793 0.11379 0.0
C506 C 0.32564 0.80483 0.92883 0.0
C507 C 0.31988 0.81995 0.97013 0.0
C508 C 0.35003 0.80576 0.93119 0.0
C509 C 0.36912 0.82174 0.97493 0.0
C510 C 0.36394 0.83765 0.01472 0.0
H511 H 0.51458 0.81892 0.06227 0.0
H512 H 0.48048 0.83177 0.05942 0.0
C513 C 0.33948 0.83675 0.01241 0.0
C514 C 0.39392 0.82072 0.97994 0.0
H515 H 0.42599 0.79815 0.07183 0.0
C516 C 0.4111 0.82863 0.92903 0.0
C517 C 0.39952 0.81003 0.03255 0.0
C518 C 0.38127 0.80053 0.08779 0.0
C519 C 0.43358 0.82565 0.92886 0.0
C520 C 0.43863 0.81403 0.98052 0.0
C521 C 0.42198 0.80702 0.03231 0.0
C522 C 0.46004 0.80736 0.98033 0.0
C523 C 0.4516 0.83479 0.87325 0.0
C524 C 0.45961 0.78917 0.93718 0.0
C525 C 0.47899 0.78174 0.93867 0.0
C526 C 0.49908 0.79224 0.98369 0.0
C527 C 0.49942 0.81048 0.02693 0.0
C528 C 0.47999 0.81788 0.02538 0.0
H529 H 0.44974 0.85013 0.84682 0.0
H530 H 0.47267 0.84301 0.88691 0.0
H531 H 0.44601 0.81764 0.84211 0.0
H532 H 0.44399 0.78035 0.90295 0.0
H533 H 0.47803 0.76758 0.90483 0.0
H534 H 0.69267 0.51517 0.065 0.0
H535 H 0.64657 0.47879 0.06768 0.0
H536 H 0.65987 0.44594 0.90211 0.0
H537 H 0.70587 0.48195 0.89898 0.0
H538 H 0.60493 0.4608 0.97281 0.0
H539 H 0.63344 0.38576 0.03365 0.0
H540 H 0.65576 0.42097 0.04253 0.0
H541 H 0.65052 0.40576 0.96775 0.0
C542 C 0.68578 0.50027 0.02898 0.0
C543 C 0.70305 0.50135 0.98208 0.0
C544 C 0.65943 0.47957 0.03057 0.0
C545 C 0.65005 0.4596 0.98556 0.0
C546 C 0.66694 0.46103 0.93773 0.0
H547 H 0.51312 0.313 0.89473 0.0
H548 H 0.55487 0.35488 0.89927 0.0
C549 C 0.69321 0.48167 0.93601 0.0
C550 C 0.62282 0.43672 -0.01087 0.0
H551 H 0.58872 0.36938 0.00298 0.0
C552 C 0.60125 0.44081 0.98001 0.0
C553 C 0.61826 0.41078 -0.00101 0.0
C554 C 0.64068 0.40547 0.01187 0.0
C555 C 0.57514 0.4193 0.97769 0.0
C556 C 0.57071 0.39329 0.98548 0.0
C557 C 0.59226 0.38938 -0.00343 0.0
C558 C 0.54411 0.36954 0.9796 0.0
C559 C 0.55263 0.42441 0.96468 0.0
C560 C 0.52405 0.36414 0.02279 0.0
C561 C 0.5 0.34012 0.02031 0.0
C562 C 0.49582 0.3211 0.97491 0.0
C563 C 0.5157 0.32709 0.93058 0.0
C564 C 0.5396 0.35104 0.933 0.0
H565 H 0.55986 0.44502 0.94848 0.0
H566 H 0.53907 0.41035 0.92932 0.0
H567 H 0.54099 0.4213 0.00756 0.0
H568 H 0.52735 0.37804 0.05966 0.0
H569 H 0.48512 0.33608 0.05524 0.0
H570 H 0.21224 0.45518 0.74537 0.0
H571 H 0.20805 0.45368 0.63325 0.0
H572 H 0.14603 0.37171 0.643 0.0
H573 H 0.15051 0.37279 0.75527 0.0
H574 H 0.18183 0.37959 0.55489 0.0
H575 H 0.15018 0.45442 0.53187 0.0
H576 H 0.18071 0.467 0.57379 0.0
H577 H 0.15068 0.43995 0.60511 0.0
C578 C 0.19764 0.43683 0.72376 0.0
C579 C 0.18164 0.41412 0.75924 0.0
C580 C 0.19514 0.43608 0.6597 0.0
C581 C 0.17632 0.41277 0.63005 0.0
C582 C 0.16052 0.38996 0.66517 0.0
H583 H 0.14001 0.41119 0.23846 0.0
H584 H 0.13651 0.4077 0.35095 0.0
C585 C 0.16316 0.39061 0.72926 0.0
C586 C 0.17394 0.41194 0.56212 0.0
H587 H 0.16551 0.44362 0.43942 0.0
C588 C 0.17798 0.3934 0.52961 0.0
C589 C 0.16839 0.42962 0.52938 0.0
C590 C 0.16196 0.44867 0.56187 0.0
C591 C 0.17768 0.39276 0.465 0.0
C592 C 0.17392 0.41162 0.43225 0.0
C593 C 0.16879 0.42944 0.46473 0.0
C594 C 0.17599 0.41368 0.36433 0.0
C595 C 0.18133 0.37184 0.43253 0.0
C596 C 0.19953 0.41872 0.33491 0.0
C597 C 0.20156 0.42056 0.27081 0.0
C598 C 0.18018 0.41779 0.235 0.0
C599 C 0.15683 0.4134 0.26474 0.0
C600 C 0.15476 0.41136 0.32894 0.0
H601 H 0.17556 0.35434 0.46265 0.0
H602 H 0.16943 0.36505 0.38946 0.0
H603 H 0.20257 0.38026 0.42032 0.0
H604 H 0.21641 0.42132 0.36158 0.0
H605 H 0.21992 0.42423 0.24941 0.0
H606 H 0.77606 0.15296 0.74431 0.0
H607 H 0.77391 0.14939 0.63171 0.0
H608 H 0.74929 0.208 0.62292 0.0
H609 H 0.75073 0.21124 0.73517 0.0
H610 H 0.71907 0.16506 0.55013 0.0
H611 H 0.82643 0.20275 0.50976 0.0
H612 H 0.81072 0.17466 0.56045 0.0
H613 H 0.81363 0.20571 0.58339 0.0
C614 C 0.77034 0.1652 0.71836 0.0
C615 C 0.76365 0.18245 0.74862 0.0
C616 C 0.76921 0.16319 0.65407 0.0
C617 C 0.76178 0.17869 0.61911 0.0
C618 C 0.7551 0.19589 0.64918 0.0
H619 H 0.78733 0.2218 0.23793 0.0
H620 H 0.78701 0.21885 0.35019 0.0
C621 C 0.75598 0.19774 0.71332 0.0
C622 C 0.76056 0.17691 0.5511 0.0
H623 H 0.79838 0.1876 0.42246 0.0
C624 C 0.73637 0.16991 0.5221 0.0
C625 C 0.78325 0.18347 0.51493 0.0
C626 C 0.81005 0.19231 0.54356 0.0
C627 C 0.73433 0.16969 0.45766 0.0
C628 C 0.75696 0.17602 0.42149 0.0
C629 C 0.78105 0.18262 0.45049 0.0
C630 C 0.75657 0.17743 0.35351 0.0
C631 C 0.70824 0.16363 0.42905 0.0
C632 C 0.73957 0.15506 0.31827 0.0
C633 C 0.73949 0.15674 0.254 0.0
C634 C 0.75671 0.18073 0.22402 0.0
C635 C 0.77385 0.20302 0.25958 0.0
C636 C 0.77373 0.20137 0.32371 0.0
H637 H 0.69503 0.16569 0.46294 0.0
H638 H 0.71143 0.17697 0.3894 0.0
H639 H 0.69783 0.14288 0.41191 0.0
H640 H 0.72658 0.13626 0.34041 0.0
H641 H 0.72625 0.13915 0.22785 0.0
H642 H 0.61621 0.79333 0.74396 0.0
H643 H 0.61682 0.79351 0.63109 0.0
H644 H 0.53368 0.73431 0.62841 0.0
H645 H 0.53265 0.7344 0.7409 0.0
H646 H 0.6053 0.7535 0.54807 0.0
H647 H 0.53626 0.79244 0.52023 0.0
H648 H 0.55127 0.79279 0.59329 0.0
H649 H 0.52271 0.76291 0.56625 0.0
C650 C 0.59805 0.78037 0.71934 0.0
C651 C 0.57431 0.76406 0.75129 0.0
C652 C 0.59846 0.78049 0.65495 0.0
C653 C 0.57518 0.7643 0.62167 0.0
C654 C 0.55168 0.74744 0.65339 0.0
H655 H 0.56182 0.7214 0.23525 0.0
H656 H 0.56402 0.72224 0.34794 0.0
C657 C 0.55118 0.74745 0.71765 0.0
C658 C 0.57543 0.76497 0.55366 0.0
H659 H 0.54607 0.77574 0.42973 0.0
C660 C 0.59249 0.7585 0.52204 0.0
C661 C 0.55896 0.77191 0.52015 0.0
C662 C 0.54146 0.78067 0.55168 0.0
C663 C 0.59314 0.75829 0.45741 0.0
C664 C 0.57581 0.7641 0.42394 0.0
C665 C 0.55912 0.77102 0.45564 0.0
C666 C 0.57487 0.76354 0.35591 0.0
C667 C 0.61266 0.75229 0.42571 0.0
C668 C 0.57948 0.78625 0.32338 0.0
C669 C 0.5778 0.78573 0.25924 0.0
C670 C 0.57155 0.76246 0.22647 0.0
C671 C 0.56688 0.73968 0.2592 0.0
C672 C 0.56832 0.74017 0.3235 0.0
H673 H 0.6293 0.75582 0.45678 0.0
H674 H 0.60235 0.7311 0.41184 0.0
H675 H 0.621 0.76458 0.38362 0.0
H676 H 0.58445 0.80444 0.3477 0.0
H677 H 0.5816 0.80364 0.23538 0.0
H678 H 0.77879 0.53844 0.72911 0.0
H679 H 0.78352 0.54065 0.61716 0.0
H680 H 0.84164 0.62394 0.6293 0.0
H681 H 0.8366 0.6221 0.74161 0.0
H682 H 0.80566 0.61391 0.53955 0.0
H683 H 0.84414 0.54449 0.51763 0.0
H684 H 0.81332 0.52998 0.55899 0.0
H685 H 0.84221 0.55828 0.59081 0.0
C686 C 0.79264 0.55725 0.7081 0.0
C687 C 0.80742 0.58008 0.74433 0.0
C688 C 0.79547 0.55841 0.64411 0.0
C689 C 0.8134 0.5823 0.61514 0.0
C690 C 0.82788 0.60525 0.65093 0.0
H691 H 0.85006 0.58425 0.22276 0.0
H692 H 0.85407 0.5889 0.33507 0.0
C693 C 0.82492 0.60417 0.71503 0.0
C694 C 0.81619 0.58341 0.54722 0.0
H695 H 0.82727 0.55325 0.42491 0.0
C696 C 0.81069 0.60088 0.51446 0.0
C697 C 0.82329 0.56679 0.51467 0.0
C698 C 0.83136 0.54905 0.54739 0.0
C699 C 0.81094 0.60132 0.4498 0.0
C700 C 0.81615 0.58332 0.41725 0.0
C701 C 0.82285 0.56673 0.45 0.0
C702 C 0.81386 0.58075 0.34933 0.0
C703 C 0.8056 0.62105 0.41707 0.0
C704 C 0.78977 0.57412 0.3204 0.0
C705 C 0.78745 0.57161 0.25639 0.0
C706 C 0.80908 0.57529 0.22012 0.0
C707 C 0.83303 0.5813 0.24937 0.0
C708 C 0.83538 0.58401 0.31348 0.0
H709 H 0.81054 0.63849 0.44681 0.0
H710 H 0.8172 0.62813 0.37363 0.0
H711 H 0.78419 0.61143 0.40552 0.0
H712 H 0.77268 0.57075 0.34739 0.0
H713 H 0.76864 0.56669 0.23542 0.0
H714 H 0.1962 0.7717 0.23219 0.0
H715 H 0.19675 0.77587 0.34419 0.0
H716 H 0.26297 0.8557 0.33162 0.0
H717 H 0.263 0.85154 0.21923 0.0
H718 H 0.27008 0.82738 0.42102 0.0
H719 H 0.17056 0.81686 0.44459 0.0
H720 H 0.16946 0.7897 0.40286 0.0
H721 H 0.18727 0.82268 0.37121 0.0
C722 C 0.21086 0.7902 0.2531 0.0
C723 C 0.22947 0.81135 0.21672 0.0
C724 C 0.21101 0.7926 0.31714 0.0
C725 C 0.2295 0.8163 0.34602 0.0
C726 C 0.24839 0.83732 0.31007 0.0
H727 H 0.21363 0.84104 0.73844 0.0
H728 H 0.2171 0.84605 0.62619 0.0
C729 C 0.24839 0.83488 0.24591 0.0
C730 C 0.22957 0.81868 0.41398 0.0
H731 H 0.18955 0.81064 0.53689 0.0
C732 C 0.25258 0.82403 0.44639 0.0
C733 C 0.2069 0.81484 0.44689 0.0
C734 C 0.18226 0.81099 0.41455 0.0
C735 C 0.25316 0.82448 0.51107 0.0
C736 C 0.22988 0.81877 0.54398 0.0
C737 C 0.20725 0.81461 0.51155 0.0
C738 C 0.22826 0.81611 0.61194 0.0
C739 C 0.2787 0.83109 0.54341 0.0
C740 C 0.23294 0.7973 0.64091 0.0
C741 C 0.23114 0.79449 0.70491 0.0
C742 C 0.22421 0.81018 0.74114 0.0
C743 C 0.219 0.82865 0.71187 0.0
C744 C 0.22102 0.83158 0.64779 0.0
H745 H 0.2962 0.84309 0.51345 0.0
H746 H 0.2811 0.84219 0.58688 0.0
H747 H 0.27851 0.81242 0.55484 0.0
H748 H 0.2378 0.78462 0.61394 0.0
H749 H 0.23503 0.7799 0.72589 0.0
H750 H 0.3708 0.21585 0.74037 0.0
H751 H 0.37013 0.2186 0.62788 0.0
H752 H 0.45192 0.23773 0.62039 0.0
H753 H 0.45302 0.23568 0.7327 0.0
H754 H 0.44202 0.27 0.54685 0.0
H755 H 0.36752 0.16392 0.50699 0.0
H756 H 0.35656 0.18101 0.5575 0.0
H757 H 0.3835 0.17616 0.5806 0.0
C758 C 0.38861 0.22052 0.71476 0.0
C759 C 0.41193 0.22541 0.74539 0.0
C760 C 0.38815 0.222 0.65053 0.0
C761 C 0.41087 0.22799 0.61597 0.0
C762 C 0.43418 0.23303 0.64639 0.0
H763 H 0.42514 0.1997 0.23448 0.0
H764 H 0.42354 0.20076 0.3468 0.0
C765 C 0.43474 0.23179 0.71053 0.0
C766 C 0.41057 0.22922 0.54799 0.0
H767 H 0.3817 0.19193 0.41961 0.0
C768 C 0.42882 0.25297 0.5189 0.0
C769 C 0.39344 0.20686 0.51196 0.0
C770 C 0.3743 0.18046 0.5407 0.0
C771 C 0.43065 0.25491 0.45444 0.0
C772 C 0.41332 0.23263 0.41843 0.0
C773 C 0.39484 0.20899 0.44754 0.0
C774 C 0.41491 0.23285 0.35045 0.0
C775 C 0.45168 0.28044 0.42561 0.0
C776 C 0.41058 0.25058 0.31542 0.0
C777 C 0.41174 0.25021 0.25108 0.0
C778 C 0.41686 0.23182 0.22089 0.0
C779 C 0.42109 0.21406 0.25628 0.0
C780 C 0.42016 0.21461 0.32045 0.0
H781 H 0.46734 0.29308 0.45932 0.0
H782 H 0.46119 0.27641 0.38581 0.0
H783 H 0.44236 0.29184 0.40859 0.0
H784 H 0.40596 0.26444 0.33777 0.0
H785 H 0.40816 0.26399 0.22505 0.0
loop_
_geom_bond_atom_site_label_1
_geom_bond_atom_site_label_2
_geom_bond_distance
_geom_bond_site_symmetry_2
_ccdc_geom_bond_type
O0 Zn1 1.953 . S
O0 C16 1.225 . S
Zn1 O0 1.953 . S
Zn1 O2 1.949 1_556 S
Zn1 O8 1.919 . S
Zn1 O13 1.924 . S
O2 Zn1 1.949 1_554 S
O2 Zn3 1.923 1_554 S
O2 Zn4 1.950 . S
O2 Zn5 1.945 . S
Zn3 O2 1.923 1_556 S
Zn3 O6 1.933 . S
Zn3 O9 1.941 . S
Zn3 O10 1.965 . S
Zn4 O2 1.950 . S
Zn4 O11 1.938 . S
Zn4 O12 1.906 . S
Zn4 O22 1.953 . S
Zn5 O2 1.945 . S
Zn5 O7 1.932 . S
Zn5 O14 1.977 . S
Zn5 O15 1.910 . S
O6 Zn3 1.933 . S
O6 C17 1.229 . S
O7 Zn5 1.932 . S
O7 C17 1.304 1_554 S
O8 Zn1 1.919 . S
O8 C19 1.253 . S
O9 Zn3 1.941 . S
O9 C19 1.283 . S
O10 Zn3 1.965 . S
O10 C18 1.303 1_556 S
O11 Zn4 1.938 . S
O11 C18 1.247 . S
O12 Zn4 1.906 . S
O12 C20 1.304 . S
O13 Zn1 1.924 . S
O13 C21 1.311 . S
O14 Zn5 1.977 . S
O14 C20 1.272 . S
O15 Zn5 1.910 . S
O15 C21 1.231 1_554 S
C16 O0 1.225 . S
C16 O22 1.298 1_556 S
C17 O6 1.229 . S
C17 O7 1.304 1_556 S
C18 O10 1.303 1_554 S
C18 O11 1.247 . S
C19 O8 1.253 . S
C19 O9 1.283 . S
C20 O12 1.304 . S
C20 O14 1.272 . S
C21 O13 1.311 . S
C21 O15 1.231 1_556 S
O22 Zn4 1.953 . S
O22 C16 1.298 1_554 S
O23 Zn24 1.953 . S
O23 C39 1.225 . S
Zn24 O23 1.953 . S
Zn24 O25 1.949 1_556 S
Zn24 O31 1.919 . S
Zn24 O36 1.924 . S
O25 Zn24 1.949 1_554 S
O25 Zn26 1.923 1_554 S
O25 Zn27 1.950 . S
O25 Zn28 1.945 . S
Zn26 O25 1.923 1_556 S
Zn26 O29 1.933 . S
Zn26 O32 1.941 . S
Zn26 O33 1.965 . S
Zn27 O25 1.950 . S
Zn27 O34 1.938 . S
Zn27 O35 1.906 . S
Zn27 O45 1.953 . S
Zn28 O25 1.945 . S
Zn28 O30 1.932 . S
Zn28 O37 1.977 . S
Zn28 O38 1.910 . S
O29 Zn26 1.933 . S
O29 C40 1.229 . S
O30 Zn28 1.932 . S
O30 C40 1.304 1_554 S
O31 Zn24 1.919 . S
O31 C42 1.253 . S
O32 Zn26 1.941 . S
O32 C42 1.283 . S
O33 Zn26 1.965 . S
O33 C41 1.303 1_556 S
O34 Zn27 1.938 . S
O34 C41 1.247 . S
O35 Zn27 1.906 . S
O35 C43 1.304 . S
O36 Zn24 1.924 . S
O36 C44 1.311 . S
O37 Zn28 1.977 . S
O37 C43 1.272 . S
O38 Zn28 1.910 . S
O38 C44 1.231 1_554 S
C39 O23 1.225 . S
C39 O45 1.298 1_556 S
C40 O29 1.229 . S
C40 O30 1.304 1_556 S
C41 O33 1.303 1_554 S
C41 O34 1.247 . S
C42 O31 1.253 . S
C42 O32 1.283 . S
C43 O35 1.304 . S
C43 O37 1.272 . S
C44 O36 1.311 . S
C44 O38 1.231 1_556 S
O45 Zn27 1.953 . S
O45 C39 1.298 1_554 S
O46 Zn47 1.953 . S
O46 C62 1.225 . S
Zn47 O46 1.953 . S
Zn47 O48 1.949 1_556 S
Zn47 O54 1.919 . S
Zn47 O59 1.924 . S
O48 Zn47 1.949 1_554 S
O48 Zn49 1.923 1_554 S
O48 Zn50 1.950 . S
O48 Zn51 1.945 . S
Zn49 O48 1.923 1_556 S
Zn49 O52 1.933 . S
Zn49 O55 1.941 . S
Zn49 O56 1.965 . S
Zn50 O48 1.950 . S
Zn50 O57 1.938 . S
Zn50 O58 1.906 . S
Zn50 O68 1.953 . S
Zn51 O48 1.945 . S
Zn51 O53 1.932 . S
Zn51 O60 1.977 . S
Zn51 O61 1.910 . S
O52 Zn49 1.933 . S
O52 C63 1.229 . S
O53 Zn51 1.932 . S
O53 C63 1.304 1_554 S
O54 Zn47 1.919 . S
O54 C65 1.253 . S
O55 Zn49 1.941 . S
O55 C65 1.283 . S
O56 Zn49 1.965 . S
O56 C64 1.303 1_556 S
O57 Zn50 1.938 . S
O57 C64 1.247 . S
O58 Zn50 1.906 . S
O58 C66 1.304 . S
O59 Zn47 1.924 . S
O59 C67 1.311 . S
O60 Zn51 1.977 . S
O60 C66 1.272 . S
O61 Zn51 1.910 . S
O61 C67 1.231 1_554 S
C62 O46 1.225 . S
C62 O68 1.298 1_556 S
C63 O52 1.229 . S
C63 O53 1.304 1_556 S
C64 O56 1.303 1_554 S
C64 O57 1.247 . S
C65 O54 1.253 . S
C65 O55 1.283 . S
C66 O58 1.304 . S
C66 O60 1.272 . S
C67 O59 1.311 . S
C67 O61 1.231 1_556 S
O68 Zn50 1.953 . S
O68 C62 1.298 1_554 S
O69 Zn70 1.953 . S
O69 C85 1.225 . S
Zn70 O69 1.953 . S
Zn70 O71 1.949 1_556 S
Zn70 O77 1.919 . S
Zn70 O82 1.924 . S
O71 Zn70 1.949 1_554 S
O71 Zn72 1.923 1_554 S
O71 Zn73 1.950 . S
O71 Zn74 1.945 . S
Zn72 O71 1.923 1_556 S
Zn72 O75 1.933 . S
Zn72 O78 1.941 . S
Zn72 O79 1.965 . S
Zn73 O71 1.950 . S
Zn73 O80 1.938 . S
Zn73 O81 1.906 . S
Zn73 O91 1.953 . S
Zn74 O71 1.945 . S
Zn74 O76 1.932 . S
Zn74 O83 1.977 . S
Zn74 O84 1.910 . S
O75 Zn72 1.933 . S
O75 C86 1.229 . S
O76 Zn74 1.932 . S
O76 C86 1.304 1_554 S
O77 Zn70 1.919 . S
O77 C88 1.253 . S
O78 Zn72 1.941 . S
O78 C88 1.283 . S
O79 Zn72 1.965 . S
O79 C87 1.303 1_556 S
O80 Zn73 1.938 . S
O80 C87 1.247 . S
O81 Zn73 1.906 . S
O81 C89 1.304 . S
O82 Zn70 1.924 . S
O82 C90 1.311 . S
O83 Zn74 1.977 . S
O83 C89 1.272 . S
O84 Zn74 1.910 . S
O84 C90 1.231 1_554 S
C85 O69 1.225 . S
C85 O91 1.298 1_556 S
C86 O75 1.229 . S
C86 O76 1.304 1_556 S
C87 O79 1.303 1_554 S
C87 O80 1.247 . S
C88 O77 1.253 . S
C88 O78 1.283 . S
C89 O81 1.304 . S
C89 O83 1.272 . S
C90 O82 1.311 . S
C90 O84 1.231 1_556 S
O91 Zn73 1.953 . S
O91 C85 1.298 1_554 S
O92 Zn93 1.953 . S
O92 C108 1.225 . S
Zn93 O92 1.953 . S
Zn93 O94 1.949 1_556 S
Zn93 O100 1.919 . S
Zn93 O105 1.924 . S
O94 Zn93 1.949 1_554 S
O94 Zn95 1.923 1_554 S
O94 Zn96 1.950 . S
O94 Zn97 1.945 . S
Zn95 O94 1.923 1_556 S
Zn95 O98 1.933 . S
Zn95 O101 1.941 . S
Zn95 O102 1.965 . S
Zn96 O94 1.950 . S
Zn96 O103 1.938 . S
Zn96 O104 1.906 . S
Zn96 O114 1.953 . S
Zn97 O94 1.945 . S
Zn97 O99 1.932 . S
Zn97 O106 1.977 . S
Zn97 O107 1.910 . S
O98 Zn95 1.933 . S
O98 C109 1.229 . S
O99 Zn97 1.932 . S
O99 C109 1.304 1_554 S
O100 Zn93 1.919 . S
O100 C111 1.253 . S
O101 Zn95 1.941 . S
O101 C111 1.283 . S
O102 Zn95 1.965 . S
O102 C110 1.303 1_556 S
O103 Zn96 1.938 . S
O103 C110 1.247 . S
O104 Zn96 1.906 . S
O104 C112 1.304 . S
O105 Zn93 1.924 . S
O105 C113 1.311 . S
O106 Zn97 1.977 . S
O106 C112 1.272 . S
O107 Zn97 1.910 . S
O107 C113 1.231 1_554 S
C108 O92 1.225 . S
C108 O114 1.298 1_556 S
C109 O98 1.229 . S
C109 O99 1.304 1_556 S
C110 O102 1.303 1_554 S
C110 O103 1.247 . S
C111 O100 1.253 . S
C111 O101 1.283 . S
C112 O104 1.304 . S
C112 O106 1.272 . S
C113 O105 1.311 . S
C113 O107 1.231 1_556 S
O114 Zn96 1.953 . S
O114 C108 1.298 1_554 S
O115 Zn116 1.953 . S
O115 C131 1.225 . S
Zn116 O115 1.953 . S
Zn116 O117 1.949 1_556 S
Zn116 O123 1.919 . S
Zn116 O128 1.924 . S
O117 Zn116 1.949 1_554 S
O117 Zn118 1.923 1_554 S
O117 Zn119 1.950 . S
O117 Zn120 1.945 . S
Zn118 O117 1.923 1_556 S
Zn118 O121 1.933 . S
Zn118 O124 1.941 . S
Zn118 O125 1.965 . S
Zn119 O117 1.950 . S
Zn119 O126 1.938 . S
Zn119 O127 1.906 . S
Zn119 O137 1.953 . S
Zn120 O117 1.945 . S
Zn120 O122 1.932 . S
Zn120 O129 1.977 . S
Zn120 O130 1.910 . S
O121 Zn118 1.933 . S
O121 C132 1.229 . S
O122 Zn120 1.932 . S
O122 C132 1.304 1_554 S
O123 Zn116 1.919 . S
O123 C134 1.253 . S
O124 Zn118 1.941 . S
O124 C134 1.283 . S
O125 Zn118 1.965 . S
O125 C133 1.303 1_556 S
O126 Zn119 1.938 . S
O126 C133 1.247 . S
O127 Zn119 1.906 . S
O127 C135 1.304 . S
O128 Zn116 1.924 . S
O128 C136 1.311 . S
O129 Zn120 1.977 . S
O129 C135 1.272 . S
O130 Zn120 1.910 . S
O130 C136 1.231 1_554 S
C131 O115 1.225 . S
C131 O137 1.298 1_556 S
C132 O121 1.229 . S
C132 O122 1.304 1_556 S
C133 O125 1.303 1_554 S
C133 O126 1.247 . S
C134 O123 1.253 . S
C134 O124 1.283 . S
C135 O127 1.304 . S
C135 O129 1.272 . S
C136 O128 1.311 . S
C136 O130 1.231 1_556 S
O137 Zn119 1.953 . S
O137 C131 1.298 1_554 S
H138 C146 0.929 1_554 S
H139 C148 0.930 . S
H140 C150 0.930 . S
H141 C153 0.929 . S
H142 C156 0.930 . S
H143 C158 0.960 . S
H144 C158 0.960 . S
H145 C158 0.960 . S
C146 H138 0.929 1_556 S
C146 C147 1.378 . S
C146 C148 1.384 . S
C147 C146 1.378 . S
C147 C153 1.390 . S
C148 H139 0.930 . S
C148 C146 1.384 . S
C148 C149 1.372 . S
C149 C148 1.372 . S
C149 C150 1.400 . S
C149 C154 1.490 . S
C150 H140 0.930 . S
C150 C149 1.400 . S
C150 C153 1.386 . S
H151 C167 0.930 . S
H152 C168 0.931 . S
C153 H141 0.929 . S
C153 C147 1.390 . S
C153 C150 1.386 . S
C154 C149 1.490 . S
C154 C156 1.395 . S
C154 C157 1.403 1_556 S
H155 C161 0.930 . S
C156 H142 0.930 . S
C156 C154 1.395 . S
C156 C159 1.403 . S
C157 C154 1.403 1_554 S
C157 C158 1.524 . S
C157 C161 1.400 . S
C158 H143 0.960 . S
C158 H144 0.960 . S
C158 H145 0.960 . S
C158 C157 1.524 . S
C159 C156 1.403 . S
C159 C160 1.392 . S
C159 C163 1.495 . S
C160 C159 1.392 . S
C160 C161 1.385 1_556 S
C160 C162 1.478 . S
C161 H155 0.930 . S
C161 C157 1.400 . S
C161 C160 1.385 1_554 S
C162 C160 1.478 . S
C162 C164 1.381 . S
C162 C168 1.383 . S
C163 C159 1.495 . S
C163 H169 0.959 . S
C163 H170 0.961 . S
C163 H171 0.960 . S
C164 C162 1.381 . S
C164 C165 1.394 . S
C164 H172 0.930 . S
C165 C164 1.394 . S
C165 C166 1.383 . S
C165 H173 0.929 1_556 S
C166 C165 1.383 . S
C166 C167 1.377 . S
C167 H151 0.930 . S
C167 C166 1.377 . S
C167 C168 1.379 . S
C168 H152 0.931 . S
C168 C162 1.383 . S
C168 C167 1.379 . S
H169 C163 0.959 . S
H170 C163 0.961 . S
H171 C163 0.960 . S
H172 C164 0.930 . S
H173 C165 0.929 1_554 S
H174 C182 0.929 . S
H175 C184 0.930 . S
H176 C186 0.930 . S
H177 C189 0.929 . S
H178 C192 0.930 1_455 S
H179 C194 0.960 1_655 S
H180 C194 0.960 . S
H181 C194 0.960 . S
C182 H174 0.929 . S
C182 C183 1.377 . S
C182 C184 1.384 . S
C183 C182 1.377 . S
C183 C189 1.390 1_556 S
C184 H175 0.930 . S
C184 C182 1.384 . S
C184 C185 1.372 . S
C185 C184 1.372 . S
C185 C186 1.400 1_556 S
C185 C190 1.490 . S
C186 H176 0.930 . S
C186 C185 1.400 1_554 S
C186 C189 1.386 . S
H187 C203 0.930 . S
H188 C204 0.931 . S
C189 H177 0.929 . S
C189 C183 1.390 1_554 S
C189 C186 1.386 . S
C190 C185 1.490 . S
C190 C192 1.395 1_455 S
C190 C193 1.403 1_456 S
H191 C197 0.930 . S
C192 H178 0.930 1_655 S
C192 C190 1.395 1_655 S
C192 C195 1.403 . S
C193 C190 1.403 1_654 S
C193 C194 1.524 1_655 S
C193 C197 1.400 . S
C194 H179 0.960 1_455 S
C194 H180 0.960 . S
C194 H181 0.960 . S
C194 C193 1.524 1_455 S
C195 C192 1.403 . S
C195 C196 1.392 . S
C195 C199 1.495 . S
C196 C195 1.392 . S
C196 C197 1.385 1_556 S
C196 C198 1.478 . S
C197 H191 0.930 . S
C197 C193 1.400 . S
C197 C196 1.385 1_554 S
C198 C196 1.478 . S
C198 C200 1.381 . S
C198 C204 1.383 1_556 S
C199 C195 1.495 . S
C199 H205 0.959 . S
C199 H206 0.961 . S
C199 H207 0.960 . S
C200 C198 1.381 . S
C200 C201 1.394 . S
C200 H208 0.930 . S
C201 C200 1.394 . S
C201 C202 1.383 . S
C201 H209 0.929 . S
C202 C201 1.383 . S
C202 C203 1.377 1_556 S
C203 H187 0.930 . S
C203 C202 1.377 1_554 S
C203 C204 1.379 . S
C204 H188 0.931 . S
C204 C198 1.383 1_554 S
C204 C203 1.379 . S
H205 C199 0.959 . S
H206 C199 0.961 . S
H207 C199 0.960 . S
H208 C200 0.930 . S
H209 C201 0.929 . S
H210 C218 0.929 . S
H211 C220 0.930 . S
H212 C222 0.930 . S
H213 C225 0.929 . S
H214 C228 0.930 1_545 S
H215 C230 0.960 1_565 S
H216 C230 0.960 . S
H217 C230 0.960 . S
C218 H210 0.929 . S
C218 C219 1.377 1_554 S
C218 C220 1.384 . S
C219 C218 1.377 1_556 S
C219 C225 1.390 . S
C220 H211 0.930 . S
C220 C218 1.384 . S
C220 C221 1.364 1_554 S
C221 C220 1.364 1_556 S
C221 C222 1.408 . S
C221 C226 1.490 1_556 S
C222 H212 0.930 . S
C222 C221 1.408 . S
C222 C225 1.386 . S
H223 C239 0.930 . S
H224 C240 0.931 . S
C225 H213 0.929 . S
C225 C219 1.390 . S
C225 C222 1.386 . S
C226 C221 1.490 1_554 S
C226 C228 1.395 1_545 S
C226 C229 1.403 1_544 S
H227 C233 0.930 . S
C228 H214 0.930 1_565 S
C228 C226 1.395 1_565 S
C228 C231 1.403 . S
C229 C226 1.403 1_566 S
C229 C230 1.524 1_565 S
C229 C233 1.400 . S
C230 H215 0.960 1_545 S
C230 H216 0.960 . S
C230 H217 0.960 . S
C230 C229 1.524 1_545 S
C231 C228 1.403 . S
C231 C232 1.392 . S
C231 C235 1.495 . S
C232 C231 1.392 . S
C232 C233 1.385 1_554 S
C232 C234 1.478 . S
C233 H227 0.930 . S
C233 C229 1.400 . S
C233 C232 1.385 1_556 S
C234 C232 1.478 . S
C234 C236 1.381 . S
C234 C240 1.383 1_554 S
C235 C231 1.495 . S
C235 H241 0.959 . S
C235 H242 0.961 . S
C235 H243 0.960 . S
C236 C234 1.381 . S
C236 C237 1.394 . S
C236 H244 0.930 . S
C237 C236 1.394 . S
C237 C238 1.386 . S
C237 H245 0.929 . S
C238 C237 1.386 . S
C238 C239 1.374 1_554 S
C239 H223 0.930 . S
C239 C238 1.374 1_556 S
C239 C240 1.379 . S
C240 H224 0.931 . S
C240 C234 1.383 1_556 S
C240 C239 1.379 . S
H241 C235 0.959 . S
H242 C235 0.961 . S
H243 C235 0.960 . S
H244 C236 0.930 . S
H245 C237 0.929 . S
H246 C254 0.929 . S
H247 C256 0.930 . S
H248 C258 0.930 . S
H249 C261 0.929 . S
H250 C264 0.930 . S
H251 C266 0.960 . S
H252 C266 0.960 . S
H253 C266 0.960 . S
C254 H246 0.929 . S
C254 C255 1.377 1_554 S
C254 C256 1.384 . S
C255 C254 1.377 1_556 S
C255 C261 1.390 . S
C256 H247 0.930 . S
C256 C254 1.384 . S
C256 C257 1.372 1_554 S
C257 C256 1.372 1_556 S
C257 C258 1.400 . S
C257 C262 1.490 1_556 S
C258 H248 0.930 . S
C258 C257 1.400 . S
C258 C261 1.386 . S
H259 C275 0.930 . S
H260 C276 0.931 . S
C261 H249 0.929 . S
C261 C255 1.390 . S
C261 C258 1.386 . S
C262 C257 1.490 1_554 S
C262 C264 1.395 . S
C262 C265 1.403 1_554 S
H263 C269 0.930 . S
C264 H250 0.930 . S
C264 C262 1.395 . S
C264 C267 1.403 . S
C265 C262 1.403 1_556 S
C265 C266 1.524 . S
C265 C269 1.400 . S
C266 H251 0.960 . S
C266 H252 0.960 . S
C266 H253 0.960 . S
C266 C265 1.524 . S
C267 C264 1.403 . S
C267 C268 1.392 . S
C267 C271 1.495 . S
C268 C267 1.392 . S
C268 C269 1.385 1_554 S
C268 C270 1.478 . S
C269 H263 0.930 . S
C269 C265 1.400 . S
C269 C268 1.385 1_556 S
C270 C268 1.478 . S
C270 C272 1.381 . S
C270 C276 1.383 1_554 S
C271 C267 1.495 . S
C271 H277 0.959 . S
C271 H278 0.961 . S
C271 H279 0.960 . S
C272 C270 1.381 . S
C272 C273 1.394 . S
C272 H280 0.930 . S
C273 C272 1.394 . S
C273 C274 1.383 . S
C273 H281 0.929 . S
C274 C273 1.383 . S
C274 C275 1.377 1_554 S
C275 H259 0.930 . S
C275 C274 1.377 1_556 S
C275 C276 1.379 . S
C276 H260 0.931 . S
C276 C270 1.383 1_556 S
C276 C275 1.379 . S
H277 C271 0.959 . S
H278 C271 0.961 . S
H279 C271 0.960 . S
H280 C272 0.930 . S
H281 C273 0.929 . S
H282 C290 0.929 . S
H283 C292 0.930 . S
H284 C294 0.930 . S
H285 C297 0.929 . S
H286 C300 0.930 . S
H287 C302 0.960 . S
H288 C302 0.960 . S
H289 C302 0.960 . S
C290 H282 0.929 . S
C290 C291 1.377 . S
C290 C292 1.384 . S
C291 C290 1.377 . S
C291 C297 1.390 1_556 S
C292 H283 0.930 . S
C292 C290 1.384 . S
C292 C293 1.372 . S
C293 C292 1.372 . S
C293 C294 1.400 1_556 S
C293 C298 1.490 . S
C294 H284 0.930 . S
C294 C293 1.400 1_554 S
C294 C297 1.386 . S
H295 C311 0.930 . S
H296 C312 0.931 . S
C297 H285 0.929 . S
C297 C291 1.390 1_554 S
C297 C294 1.386 . S
C298 C293 1.490 . S
C298 C300 1.395 . S
C298 C301 1.403 1_556 S
H299 C305 0.930 1_655 S
C300 H286 0.930 . S
C300 C298 1.395 . S
C300 C303 1.403 . S
C301 C298 1.403 1_554 S
C301 C302 1.524 . S
C301 C305 1.400 . S
C302 H287 0.960 . S
C302 H288 0.960 . S
C302 H289 0.960 . S
C302 C301 1.524 . S
C303 C300 1.403 . S
C303 C304 1.392 1_455 S
C303 C307 1.495 1_455 S
C304 C303 1.392 1_655 S
C304 C305 1.385 1_656 S
C304 C306 1.478 . S
C305 H299 0.930 1_455 S
C305 C301 1.400 . S
C305 C304 1.385 1_454 S
C306 C304 1.478 . S
C306 C308 1.381 . S
C306 C312 1.383 1_556 S
C307 C303 1.495 1_655 S
C307 H313 0.959 1_655 S
C307 H314 0.961 . S
C307 H315 0.960 . S
C308 C306 1.381 . S
C308 C309 1.394 . S
C308 H316 0.930 . S
C309 C308 1.394 . S
C309 C310 1.383 . S
C309 H317 0.929 . S
C310 C309 1.383 . S
C310 C311 1.377 1_556 S
C311 H295 0.930 . S
C311 C310 1.377 1_554 S
C311 C312 1.379 . S
C312 H296 0.931 . S
C312 C306 1.383 1_554 S
C312 C311 1.379 . S
H313 C307 0.959 1_455 S
H314 C307 0.961 . S
H315 C307 0.960 . S
H316 C308 0.930 . S
H317 C309 0.929 . S
H318 C326 0.929 . S
H319 C328 0.930 . S
H320 C330 0.930 . S
H321 C333 0.929 . S
H322 C336 0.930 1_565 S
H323 C338 0.960 1_545 S
H324 C338 0.960 . S
H325 C338 0.960 . S
C326 H318 0.929 . S
C326 C327 1.377 . S
C326 C328 1.384 . S
C327 C326 1.377 . S
C327 C333 1.390 1_556 S
C328 H319 0.930 . S
C328 C326 1.384 . S
C328 C329 1.372 . S
C329 C328 1.372 . S
C329 C330 1.400 1_556 S
C329 C334 1.490 . S
C330 H320 0.930 . S
C330 C329 1.400 1_554 S
C330 C333 1.386 . S
H331 C347 0.930 . S
H332 C348 0.931 . S
C333 H321 0.929 . S
C333 C327 1.390 1_554 S
C333 C330 1.386 . S
C334 C329 1.490 . S
C334 C336 1.395 1_565 S
C334 C337 1.403 1_566 S
H335 C341 0.930 . S
C336 H322 0.930 1_545 S
C336 C334 1.395 1_545 S
C336 C339 1.403 . S
C337 C334 1.403 1_544 S
C337 C338 1.524 1_545 S
C337 C341 1.400 . S
C338 H323 0.960 1_565 S
C338 H324 0.960 . S
C338 H325 0.960 . S
C338 C337 1.524 1_565 S
C339 C336 1.403 . S
C339 C340 1.392 . S
C339 C343 1.495 . S
C340 C339 1.392 . S
C340 C341 1.385 1_556 S
C340 C342 1.478 . S
C341 H335 0.930 . S
C341 C337 1.400 . S
C341 C340 1.385 1_554 S
C342 C340 1.478 . S
C342 C344 1.381 . S
C342 C348 1.383 1_556 S
C343 C339 1.495 . S
C343 H349 0.959 . S
C343 H350 0.961 . S
C343 H351 0.960 . S
C344 C342 1.381 . S
C344 C345 1.394 . S
C344 H352 0.930 . S
C345 C344 1.394 . S
C345 C346 1.383 . S
C345 H353 0.929 . S
C346 C345 1.383 . S
C346 C347 1.377 1_556 S
C347 H331 0.930 . S
C347 C346 1.377 1_554 S
C347 C348 1.379 . S
C348 H332 0.931 . S
C348 C342 1.383 1_554 S
C348 C347 1.379 . S
H349 C343 0.959 . S
H350 C343 0.961 . S
H351 C343 0.960 . S
H352 C344 0.930 . S
H353 C345 0.929 . S
H354 C362 0.929 . S
H355 C364 0.930 . S
H356 C366 0.930 . S
H357 C369 0.929 . S
H358 C372 0.930 . S
H359 C374 0.960 . S
H360 C374 0.960 . S
H361 C374 0.960 . S
C362 H354 0.929 . S
C362 C363 1.377 1_554 S
C362 C364 1.384 . S
C363 C362 1.377 1_556 S
C363 C369 1.390 . S
C364 H355 0.930 . S
C364 C362 1.384 . S
C364 C365 1.372 . S
C365 C364 1.372 . S
C365 C366 1.400 1_554 S
C365 C370 1.490 . S
C366 H356 0.930 . S
C366 C365 1.400 1_556 S
C366 C369 1.386 . S
H367 C383 0.930 . S
H368 C384 0.931 . S
C369 H357 0.929 . S
C369 C363 1.390 . S
C369 C366 1.386 . S
C370 C365 1.490 . S
C370 C372 1.395 . S
C370 C373 1.403 1_554 S
H371 C377 0.930 . S
C372 H358 0.930 . S
C372 C370 1.395 . S
C372 C375 1.403 . S
C373 C370 1.403 1_556 S
C373 C374 1.524 . S
C373 C377 1.400 . S
C374 H359 0.960 . S
C374 H360 0.960 . S
C374 H361 0.960 . S
C374 C373 1.524 . S
C375 C372 1.403 . S
C375 C376 1.392 . S
C375 C379 1.495 . S
C376 C375 1.392 . S
C376 C377 1.385 1_554 S
C376 C378 1.478 . S
C377 H371 0.930 . S
C377 C373 1.400 . S
C377 C376 1.385 1_556 S
C378 C376 1.478 . S
C378 C380 1.381 . S
C378 C384 1.383 1_554 S
C379 C375 1.495 . S
C379 H385 0.959 . S
C379 H386 0.961 . S
C379 H387 0.960 . S
C380 C378 1.381 . S
C380 C381 1.394 . S
C380 H388 0.930 . S
C381 C380 1.394 . S
C381 C382 1.383 . S
C381 H389 0.929 . S
C382 C381 1.383 . S
C382 C383 1.377 1_554 S
C383 H367 0.930 . S
C383 C382 1.377 1_556 S
C383 C384 1.379 . S
C384 H368 0.931 . S
C384 C378 1.383 1_556 S
C384 C383 1.379 . S
H385 C379 0.959 . S
H386 C379 0.961 . S
H387 C379 0.960 . S
H388 C380 0.930 . S
H389 C381 0.929 . S
H390 C398 0.929 . S
H391 C400 0.930 . S
H392 C402 0.930 . S
H393 C405 0.929 . S
H394 C408 0.930 . S
H395 C410 0.960 . S
H396 C410 0.960 . S
H397 C410 0.960 . S
C398 H390 0.929 . S
C398 C399 1.377 . S
C398 C400 1.384 . S
C399 C398 1.377 . S
C399 C405 1.390 1_556 S
C400 H391 0.930 . S
C400 C398 1.384 . S
C400 C401 1.372 . S
C401 C400 1.372 . S
C401 C402 1.400 1_556 S
C401 C406 1.490 . S
C402 H392 0.930 . S
C402 C401 1.400 1_554 S
C402 C405 1.386 . S
H403 C419 0.930 . S
H404 C420 0.931 . S
C405 H393 0.929 . S
C405 C399 1.390 1_554 S
C405 C402 1.386 . S
C406 C401 1.490 . S
C406 C408 1.395 1_556 S
C406 C409 1.403 . S
H407 C413 0.930 . S
C408 H394 0.930 . S
C408 C406 1.395 1_554 S
C408 C411 1.403 . S
C409 C406 1.403 . S
C409 C410 1.524 . S
C409 C413 1.400 . S
C410 H395 0.960 . S
C410 H396 0.960 . S
C410 H397 0.960 . S
C410 C409 1.524 . S
C411 C408 1.403 . S
C411 C412 1.392 . S
C411 C415 1.495 . S
C412 C411 1.392 . S
C412 C413 1.385 1_554 S
C412 C414 1.478 . S
C413 H407 0.930 . S
C413 C409 1.400 . S
C413 C412 1.385 1_556 S
C414 C412 1.478 . S
C414 C416 1.381 1_554 S
C414 C420 1.383 . S
C415 C411 1.495 . S
C415 H421 0.959 . S
C415 H422 0.961 . S
C415 H423 0.960 . S
C416 C414 1.381 1_556 S
C416 C417 1.394 . S
C416 H424 0.930 . S
C417 C416 1.394 . S
C417 C418 1.383 1_556 S
C417 H425 0.929 . S
C418 C417 1.383 1_554 S
C418 C419 1.377 . S
C419 H403 0.930 . S
C419 C418 1.377 . S
C419 C420 1.379 . S
C420 H404 0.931 . S
C420 C414 1.383 . S
C420 C419 1.379 . S
H421 C415 0.959 . S
H422 C415 0.961 . S
H423 C415 0.960 . S
H424 C416 0.930 . S
H425 C417 0.929 . S
H426 C434 0.929 . S
H427 C436 0.930 . S
H428 C438 0.930 . S
H429 C441 0.929 . S
H430 C444 0.930 . S
H431 C446 0.960 . S
H432 C446 0.960 1_554 S
H433 C446 0.960 . S
C434 H426 0.929 . S
C434 C435 1.377 . S
C434 C436 1.384 . S
C435 C434 1.377 . S
C435 C441 1.390 1_554 S
C436 H427 0.930 . S
C436 C434 1.384 . S
C436 C437 1.372 . S
C437 C436 1.372 . S
C437 C438 1.400 1_554 S
C437 C442 1.490 . S
C438 H428 0.930 . S
C438 C437 1.400 1_556 S
C438 C441 1.386 . S
H439 C455 0.930 . S
H440 C456 0.931 . S
C441 H429 0.929 . S
C441 C435 1.390 1_556 S
C441 C438 1.386 . S
C442 C437 1.490 . S
C442 C444 1.395 . S
C442 C445 1.403 1_554 S
H443 C449 0.930 . S
C444 H430 0.930 . S
C444 C442 1.395 . S
C444 C447 1.403 . S
C445 C442 1.403 1_556 S
C445 C446 1.524 . S
C445 C449 1.400 . S
C446 H431 0.960 . S
C446 H432 0.960 1_556 S
C446 H433 0.960 . S
C446 C445 1.524 . S
C447 C444 1.403 . S
C447 C448 1.392 . S
C447 C451 1.495 . S
C448 C447 1.392 . S
C448 C449 1.385 1_554 S
C448 C450 1.478 . S
C449 H443 0.930 . S
C449 C445 1.400 . S
C449 C448 1.385 1_556 S
C450 C448 1.478 . S
C450 C452 1.381 . S
C450 C456 1.383 1_554 S
C451 C447 1.495 . S
C451 H457 0.959 . S
C451 H458 0.961 1_554 S
C451 H459 0.960 . S
C452 C450 1.381 . S
C452 C453 1.394 . S
C452 H460 0.930 . S
C453 C452 1.394 . S
C453 C454 1.371 1_554 S
C453 H461 0.929 . S
C454 C453 1.371 1_556 S
C454 C455 1.388 . S
C455 H439 0.930 . S
C455 C454 1.388 . S
C455 C456 1.379 . S
C456 H440 0.931 . S
C456 C450 1.383 1_556 S
C456 C455 1.379 . S
H457 C451 0.959 . S
H458 C451 0.961 1_556 S
H459 C451 0.960 . S
H460 C452 0.930 . S
H461 C453 0.929 . S
H462 C470 0.929 . S
H463 C472 0.930 . S
H464 C474 0.930 . S
H465 C477 0.929 . S
H466 C480 0.930 . S
H467 C482 0.960 . S
H468 C482 0.960 1_554 S
H469 C482 0.960 . S
C470 H462 0.929 . S
C470 C471 1.377 . S
C470 C472 1.384 . S
C471 C470 1.377 . S
C471 C477 1.390 1_554 S
C472 H463 0.930 . S
C472 C470 1.384 . S
C472 C473 1.372 . S
C473 C472 1.372 . S
C473 C474 1.400 1_554 S
C473 C478 1.490 . S
C474 H464 0.930 . S
C474 C473 1.400 1_556 S
C474 C477 1.386 . S
H475 C491 0.930 . S
H476 C492 0.931 . S
C477 H465 0.929 . S
C477 C471 1.390 1_556 S
C477 C474 1.386 . S
C478 C473 1.490 . S
C478 C480 1.395 . S
C478 C481 1.403 1_554 S
H479 C485 0.930 . S
C480 H466 0.930 . S
C480 C478 1.395 . S
C480 C483 1.403 . S
C481 C478 1.403 1_556 S
C481 C482 1.524 . S
C481 C485 1.400 . S
C482 H467 0.960 . S
C482 H468 0.960 1_556 S
C482 H469 0.960 . S
C482 C481 1.524 . S
C483 C480 1.403 . S
C483 C484 1.392 . S
C483 C487 1.495 . S
C484 C483 1.392 . S
C484 C485 1.385 1_554 S
C484 C486 1.478 . S
C485 H479 0.930 . S
C485 C481 1.400 . S
C485 C484 1.385 1_556 S
C486 C484 1.478 . S
C486 C488 1.381 . S
C486 C492 1.383 1_554 S
C487 C483 1.495 . S
C487 H493 0.959 . S
C487 H494 0.961 1_554 S
C487 H495 0.960 . S
C488 C486 1.381 . S
C488 C489 1.394 . S
C488 H496 0.930 . S
C489 C488 1.394 . S
C489 C490 1.372 1_554 S
C489 H497 0.929 . S
C490 C489 1.372 1_556 S
C490 C491 1.388 . S
C491 H475 0.930 . S
C491 C490 1.388 . S
C491 C492 1.379 . S
C492 H476 0.931 . S
C492 C486 1.383 1_556 S
C492 C491 1.379 . S
H493 C487 0.959 . S
H494 C487 0.961 1_556 S
H495 C487 0.960 . S
H496 C488 0.930 . S
H497 C489 0.929 . S
H498 C506 0.929 . S
H499 C508 0.930 . S
H500 C510 0.930 . S
H501 C513 0.929 . S
H502 C516 0.930 . S
H503 C518 0.960 . S
H504 C518 0.960 . S
H505 C518 0.960 . S
C506 H498 0.929 . S
C506 C507 1.377 1_556 S
C506 C508 1.384 . S
C507 C506 1.377 1_554 S
C507 C513 1.390 . S
C508 H499 0.930 . S
C508 C506 1.384 . S
C508 C509 1.372 1_556 S
C509 C508 1.372 1_554 S
C509 C510 1.400 . S
C509 C514 1.489 1_554 S
C510 H500 0.930 . S
C510 C509 1.400 . S
C510 C513 1.386 . S
H511 C527 0.930 . S
H512 C528 0.931 . S
C513 H501 0.929 . S
C513 C507 1.390 . S
C513 C510 1.386 . S
C514 C509 1.489 1_556 S
C514 C516 1.408 . S
C514 C517 1.391 1_556 S
H515 C521 0.930 . S
C516 H502 0.930 . S
C516 C514 1.408 . S
C516 C519 1.403 . S
C517 C514 1.391 1_554 S
C517 C518 1.524 . S
C517 C521 1.400 . S
C518 H503 0.960 . S
C518 H504 0.960 . S
C518 H505 0.960 . S
C518 C517 1.524 . S
C519 C516 1.403 . S
C519 C520 1.392 . S
C519 C523 1.495 . S
C520 C519 1.392 . S
C520 C521 1.385 1_556 S
C520 C522 1.478 . S
C521 H515 0.930 . S
C521 C517 1.400 . S
C521 C520 1.385 1_554 S
C522 C520 1.478 . S
C522 C524 1.381 . S
C522 C528 1.383 . S
C523 C519 1.495 . S
C523 H529 0.959 . S
C523 H530 0.961 . S
C523 H531 0.960 . S
C524 C522 1.381 . S
C524 C525 1.394 . S
C524 H532 0.930 . S
C525 C524 1.394 . S
C525 C526 1.383 . S
C525 H533 0.931 . S
C526 C525 1.383 . S
C526 C527 1.377 . S
C527 H511 0.930 . S
C527 C526 1.377 . S
C527 C528 1.379 . S
C528 H512 0.931 . S
C528 C522 1.383 . S
C528 C527 1.379 . S
H529 C523 0.959 . S
H530 C523 0.961 . S
H531 C523 0.960 . S
H532 C524 0.930 . S
H533 C525 0.931 . S
H534 C542 0.929 . S
H535 C544 0.930 . S
H536 C546 0.930 . S
H537 C549 0.929 . S
H538 C552 0.930 . S
H539 C554 0.960 . S
H540 C554 0.960 . S
H541 C554 0.960 . S
C542 H534 0.929 . S
C542 C543 1.365 1_554 S
C542 C544 1.384 . S
C543 C542 1.365 1_556 S
C543 C549 1.402 . S
C544 H535 0.930 . S
C544 C542 1.384 . S
C544 C545 1.372 . S
C545 C544 1.372 . S
C545 C546 1.400 1_554 S
C545 C550 1.490 . S
C546 H536 0.930 . S
C546 C545 1.400 1_556 S
C546 C549 1.386 . S
H547 C563 0.930 . S
H548 C564 0.931 . S
C549 H537 0.929 . S
C549 C543 1.402 . S
C549 C546 1.386 . S
C550 C545 1.490 . S
C550 C552 1.395 . S
C550 C553 1.403 1_554 S
H551 C557 0.930 . S
C552 H538 0.930 . S
C552 C550 1.395 . S
C552 C555 1.403 . S
C553 C550 1.403 1_556 S
C553 C554 1.524 . S
C553 C557 1.400 . S
C554 H539 0.960 . S
C554 H540 0.960 . S
C554 H541 0.960 . S
C554 C553 1.524 . S
C555 C552 1.403 . S
C555 C556 1.392 . S
C555 C559 1.495 . S
C556 C555 1.392 . S
C556 C557 1.385 1_554 S
C556 C558 1.478 . S
C557 H551 0.930 . S
C557 C553 1.400 . S
C557 C556 1.385 1_556 S
C558 C556 1.478 . S
C558 C560 1.381 . S
C558 C564 1.383 1_554 S
C559 C555 1.495 . S
C559 H565 0.959 . S
C559 H566 0.961 . S
C559 H567 0.960 . S
C560 C558 1.381 . S
C560 C561 1.394 . S
C560 H568 0.930 . S
C561 C560 1.394 . S
C561 C562 1.383 . S
C561 H569 0.929 . S
C562 C561 1.383 . S
C562 C563 1.377 1_554 S
C563 H547 0.930 . S
C563 C562 1.377 1_556 S
C563 C564 1.379 . S
C564 H548 0.931 . S
C564 C558 1.383 1_556 S
C564 C563 1.379 . S
H565 C559 0.959 . S
H566 C559 0.961 . S
H567 C559 0.960 . S
H568 C560 0.930 . S
H569 C561 0.929 . S
H570 C578 0.929 . S
H571 C580 0.930 . S
H572 C582 0.930 . S
H573 C585 0.929 . S
H574 C588 0.930 . S
H575 C590 0.960 . S
H576 C590 0.960 . S
H577 C590 0.960 . S
C578 H570 0.929 . S
C578 C579 1.377 . S
C578 C580 1.384 . S
C579 C578 1.377 . S
C579 C585 1.390 . S
C580 H571 0.930 . S
C580 C578 1.384 . S
C580 C581 1.372 . S
C581 C580 1.372 . S
C581 C582 1.400 . S
C581 C586 1.490 . S
C582 H572 0.930 . S
C582 C581 1.400 . S
C582 C585 1.386 . S
H583 C599 0.930 . S
H584 C600 0.931 . S
C585 H573 0.929 . S
C585 C579 1.390 . S
C585 C582 1.386 . S
C586 C581 1.490 . S
C586 C588 1.395 . S
C586 C589 1.403 . S
H587 C593 0.930 . S
C588 H574 0.930 . S
C588 C586 1.395 . S
C588 C591 1.403 . S
C589 C586 1.403 . S
C589 C590 1.524 . S
C589 C593 1.400 . S
C590 H575 0.960 . S
C590 H576 0.960 . S
C590 H577 0.960 . S
C590 C589 1.524 . S
C591 C588 1.403 . S
C591 C592 1.392 . S
C591 C595 1.495 . S
C592 C591 1.392 . S
C592 C593 1.385 . S
C592 C594 1.478 . S
C593 H587 0.930 . S
C593 C589 1.400 . S
C593 C592 1.385 . S
C594 C592 1.478 . S
C594 C596 1.381 . S
C594 C600 1.383 . S
C595 C591 1.495 . S
C595 H601 0.959 . S
C595 H602 0.961 . S
C595 H603 0.960 . S
C596 C594 1.381 . S
C596 C597 1.394 . S
C596 H604 0.930 . S
C597 C596 1.394 . S
C597 C598 1.383 . S
C597 H605 0.929 . S
C598 C597 1.383 . S
C598 C599 1.377 . S
C599 H583 0.930 . S
C599 C598 1.377 . S
C599 C600 1.379 . S
C600 H584 0.931 . S
C600 C594 1.383 . S
C600 C599 1.379 . S
H601 C595 0.959 . S
H602 C595 0.961 . S
H603 C595 0.960 . S
H604 C596 0.930 . S
H605 C597 0.929 . S
H606 C614 0.929 . S
H607 C616 0.930 . S
H608 C618 0.930 . S
H609 C621 0.929 . S
H610 C624 0.930 . S
H611 C626 0.960 . S
H612 C626 0.960 . S
H613 C626 0.960 . S
C614 H606 0.929 . S
C614 C615 1.377 . S
C614 C616 1.384 . S
C615 C614 1.377 . S
C615 C621 1.390 . S
C616 H607 0.930 . S
C616 C614 1.384 . S
C616 C617 1.372 . S
C617 C616 1.372 . S
C617 C618 1.400 . S
C617 C622 1.490 . S
C618 H608 0.930 . S
C618 C617 1.400 . S
C618 C621 1.386 . S
H619 C635 0.930 . S
H620 C636 0.931 . S
C621 H609 0.929 . S
C621 C615 1.390 . S
C621 C618 1.386 . S
C622 C617 1.490 . S
C622 C624 1.395 . S
C622 C625 1.403 . S
H623 C629 0.930 . S
C624 H610 0.930 . S
C624 C622 1.395 . S
C624 C627 1.403 . S
C625 C622 1.403 . S
C625 C626 1.524 . S
C625 C629 1.400 . S
C626 H611 0.960 . S
C626 H612 0.960 . S
C626 H613 0.960 . S
C626 C625 1.524 . S
C627 C624 1.403 . S
C627 C628 1.392 . S
C627 C631 1.495 . S
C628 C627 1.392 . S
C628 C629 1.385 . S
C628 C630 1.478 . S
C629 H623 0.930 . S
C629 C625 1.400 . S
C629 C628 1.385 . S
C630 C628 1.478 . S
C630 C632 1.381 . S
C630 C636 1.383 . S
C631 C627 1.495 . S
C631 H637 0.959 . S
C631 H638 0.961 . S
C631 H639 0.960 . S
C632 C630 1.381 . S
C632 C633 1.394 . S
C632 H640 0.930 . S
C633 C632 1.394 . S
C633 C634 1.383 . S
C633 H641 0.929 . S
C634 C633 1.383 . S
C634 C635 1.377 . S
C635 H619 0.930 . S
C635 C634 1.377 . S
C635 C636 1.379 . S
C636 H620 0.931 . S
C636 C630 1.383 . S
C636 C635 1.379 . S
H637 C631 0.959 . S
H638 C631 0.961 . S
H639 C631 0.960 . S
H640 C632 0.930 . S
H641 C633 0.929 . S
H642 C650 0.929 . S
H643 C652 0.930 . S
H644 C654 0.930 . S
H645 C657 0.929 . S
H646 C660 0.930 . S
H647 C662 0.960 . S
H648 C662 0.960 . S
H649 C662 0.960 . S
C650 H642 0.929 . S
C650 C651 1.377 . S
C650 C652 1.384 . S
C651 C650 1.377 . S
C651 C657 1.390 . S
C652 H643 0.930 . S
C652 C650 1.384 . S
C652 C653 1.372 . S
C653 C652 1.372 . S
C653 C654 1.400 . S
C653 C658 1.490 . S
C654 H644 0.930 . S
C654 C653 1.400 . S
C654 C657 1.386 . S
H655 C671 0.930 . S
H656 C672 0.931 . S
C657 H645 0.929 . S
C657 C651 1.390 . S
C657 C654 1.386 . S
C658 C653 1.490 . S
C658 C660 1.395 . S
C658 C661 1.403 . S
H659 C665 0.930 . S
C660 H646 0.930 . S
C660 C658 1.395 . S
C660 C663 1.403 . S
C661 C658 1.403 . S
C661 C662 1.524 . S
C661 C665 1.400 . S
C662 H647 0.960 . S
C662 H648 0.960 . S
C662 H649 0.960 . S
C662 C661 1.524 . S
C663 C660 1.403 . S
C663 C664 1.392 . S
C663 C667 1.495 . S
C664 C663 1.392 . S
C664 C665 1.385 . S
C664 C666 1.478 . S
C665 H659 0.930 . S
C665 C661 1.400 . S
C665 C664 1.385 . S
C666 C664 1.478 . S
C666 C668 1.381 . S
C666 C672 1.383 . S
C667 C663 1.495 . S
C667 H673 0.959 . S
C667 H674 0.961 . S
C667 H675 0.960 . S
C668 C666 1.381 . S
C668 C669 1.394 . S
C668 H676 0.930 . S
C669 C668 1.394 . S
C669 C670 1.383 . S
C669 H677 0.929 . S
C670 C669 1.383 . S
C670 C671 1.377 . S
C671 H655 0.930 . S
C671 C670 1.377 . S
C671 C672 1.379 . S
C672 H656 0.931 . S
C672 C666 1.383 . S
C672 C671 1.379 . S
H673 C667 0.959 . S
H674 C667 0.961 . S
H675 C667 0.960 . S
H676 C668 0.930 . S
H677 C669 0.929 . S
H678 C686 0.929 . S
H679 C688 0.930 . S
H680 C690 0.930 . S
H681 C693 0.929 . S
H682 C696 0.930 . S
H683 C698 0.960 . S
H684 C698 0.960 . S
H685 C698 0.960 . S
C686 H678 0.929 . S
C686 C687 1.377 . S
C686 C688 1.384 . S
C687 C686 1.377 . S
C687 C693 1.390 . S
C688 H679 0.930 . S
C688 C686 1.384 . S
C688 C689 1.372 . S
C689 C688 1.372 . S
C689 C690 1.400 . S
C689 C694 1.490 . S
C690 H680 0.930 . S
C690 C689 1.400 . S
C690 C693 1.386 . S
H691 C707 0.930 . S
H692 C708 0.931 . S
C693 H681 0.929 . S
C693 C687 1.390 . S
C693 C690 1.386 . S
C694 C689 1.490 . S
C694 C696 1.395 . S
C694 C697 1.403 . S
H695 C701 0.930 . S
C696 H682 0.930 . S
C696 C694 1.395 . S
C696 C699 1.403 . S
C697 C694 1.403 . S
C697 C698 1.524 . S
C697 C701 1.400 . S
C698 H683 0.960 . S
C698 H684 0.960 . S
C698 H685 0.960 . S
C698 C697 1.524 . S
C699 C696 1.403 . S
C699 C700 1.392 . S
C699 C703 1.495 . S
C700 C699 1.392 . S
C700 C701 1.385 . S
C700 C702 1.478 . S
C701 H695 0.930 . S
C701 C697 1.400 . S
C701 C700 1.385 . S
C702 C700 1.478 . S
C702 C704 1.381 . S
C702 C708 1.383 . S
C703 C699 1.495 . S
C703 H709 0.959 . S
C703 H710 0.961 . S
C703 H711 0.960 . S
C704 C702 1.381 . S
C704 C705 1.394 . S
C704 H712 0.930 . S
C705 C704 1.394 . S
C705 C706 1.383 . S
C705 H713 0.929 . S
C706 C705 1.383 . S
C706 C707 1.377 . S
C707 H691 0.930 . S
C707 C706 1.377 . S
C707 C708 1.379 . S
C708 H692 0.931 . S
C708 C702 1.383 . S
C708 C707 1.379 . S
H709 C703 0.959 . S
H710 C703 0.961 . S
H711 C703 0.960 . S
H712 C704 0.930 . S
H713 C705 0.929 . S
H714 C722 0.929 . S
H715 C724 0.930 . S
H716 C726 0.930 . S
H717 C729 0.929 . S
H718 C732 0.930 . S
H719 C734 0.960 . S
H720 C734 0.960 . S
H721 C734 0.960 . S
C722 H714 0.929 . S
C722 C723 1.377 . S
C722 C724 1.384 . S
C723 C722 1.377 . S
C723 C729 1.390 . S
C724 H715 0.930 . S
C724 C722 1.384 . S
C724 C725 1.372 . S
C725 C724 1.372 . S
C725 C726 1.400 . S
C725 C730 1.490 . S
C726 H716 0.930 . S
C726 C725 1.400 . S
C726 C729 1.386 . S
H727 C743 0.930 . S
H728 C744 0.931 . S
C729 H717 0.929 . S
C729 C723 1.390 . S
C729 C726 1.386 . S
C730 C725 1.490 . S
C730 C732 1.395 . S
C730 C733 1.403 . S
H731 C737 0.930 . S
C732 H718 0.930 . S
C732 C730 1.395 . S
C732 C735 1.403 . S
C733 C730 1.403 . S
C733 C734 1.524 . S
C733 C737 1.400 . S
C734 H719 0.960 . S
C734 H720 0.960 . S
C734 H721 0.960 . S
C734 C733 1.524 . S
C735 C732 1.403 . S
C735 C736 1.392 . S
C735 C739 1.495 . S
C736 C735 1.392 . S
C736 C737 1.385 . S
C736 C738 1.478 . S
C737 H731 0.930 . S
C737 C733 1.400 . S
C737 C736 1.385 . S
C738 C736 1.478 . S
C738 C740 1.381 . S
C738 C744 1.383 . S
C739 C735 1.495 . S
C739 H745 0.959 . S
C739 H746 0.961 . S
C739 H747 0.960 . S
C740 C738 1.381 . S
C740 C741 1.394 . S
C740 H748 0.930 . S
C741 C740 1.394 . S
C741 C742 1.383 . S
C741 H749 0.929 . S
C742 C741 1.383 . S
C742 C743 1.377 . S
C743 H727 0.930 . S
C743 C742 1.377 . S
C743 C744 1.379 . S
C744 H728 0.931 . S
C744 C738 1.383 . S
C744 C743 1.379 . S
H745 C739 0.959 . S
H746 C739 0.961 . S
H747 C739 0.960 . S
H748 C740 0.930 . S
H749 C741 0.929 . S
H750 C758 0.929 . S
H751 C760 0.930 . S
H752 C762 0.930 . S
H753 C765 0.929 . S
H754 C768 0.930 . S
H755 C770 0.960 . S
H756 C770 0.960 . S
H757 C770 0.960 . S
C758 H750 0.929 . S
C758 C759 1.377 . S
C758 C760 1.384 . S
C759 C758 1.377 . S
C759 C765 1.390 . S
C760 H751 0.930 . S
C760 C758 1.384 . S
C760 C761 1.372 . S
C761 C760 1.372 . S
C761 C762 1.400 . S
C761 C766 1.490 . S
C762 H752 0.930 . S
C762 C761 1.400 . S
C762 C765 1.386 . S
H763 C779 0.930 . S
H764 C780 0.931 . S
C765 H753 0.929 . S
C765 C759 1.390 . S
C765 C762 1.386 . S
C766 C761 1.490 . S
C766 C768 1.395 . S
C766 C769 1.403 . S
H767 C773 0.930 . S
C768 H754 0.930 . S
C768 C766 1.395 . S
C768 C771 1.403 . S
C769 C766 1.403 . S
C769 C770 1.524 . S
C769 C773 1.400 . S
C770 H755 0.960 . S
C770 H756 0.960 . S
C770 H757 0.960 . S
C770 C769 1.524 . S
C771 C768 1.403 . S
C771 C772 1.392 . S
C771 C775 1.495 . S
C772 C771 1.392 . S
C772 C773 1.385 . S
C772 C774 1.478 . S
C773 H767 0.930 . S
C773 C769 1.400 . S
C773 C772 1.385 . S
C774 C772 1.478 . S
C774 C776 1.381 . S
C774 C780 1.383 . S
C775 C771 1.495 . S
C775 H781 0.959 . S
C775 H782 0.961 . S
C775 H783 0.960 . S
C776 C774 1.381 . S
C776 C777 1.394 . S
C776 H784 0.930 . S
C777 C776 1.394 . S
C777 C778 1.383 . S
C777 H785 0.929 . S
C778 C777 1.383 . S
C778 C779 1.377 . S
C779 H763 0.930 . S
C779 C778 1.377 . S
C779 C780 1.379 . S
C780 H764 0.931 . S
C780 C774 1.383 . S
C780 C779 1.379 . S
H781 C775 0.959 . S
H782 C775 0.961 . S
H783 C775 0.960 . S
H784 C776 0.930 . S
H785 C777 0.929 . S
C147 C132 1.459 . S
C166 C18 1.459 1_556 S
C183 C17 1.459 . S
C202 C41 1.456 1_556 S
C219 C40 1.463 . S
C238 C64 1.428 . S
C255 C87 1.445 1_556 S
C274 C63 1.460 1_554 S
C291 C110 1.446 1_556 S
C310 C86 1.452 . S
C327 C109 1.459 . S
C346 C133 1.451 1_556 S
C363 C108 1.431 . S
C382 C21 1.436 1_554 S
C399 C131 1.433 . S
C418 C44 1.442 1_554 S
C435 C67 1.437 1_554 S
C454 C16 1.420 . S
C471 C90 1.437 1_554 S
C490 C39 1.420 . S
C507 C113 1.438 1_554 S
C526 C62 1.425 . S
C543 C85 1.432 . S
C562 C136 1.433 1_554 S
C579 C19 1.415 . S
C598 C20 1.434 . S
C615 C42 1.418 . S
C634 C43 1.436 . S
C651 C65 1.414 . S
C670 C66 1.446 . S
C687 C88 1.415 . S
C706 C89 1.433 . S
C723 C112 1.427 . S
C742 C111 1.419 . S
C759 C134 1.421 . S
C778 C135 1.424 . S
