# Generated by pormake.
# Topology sqp, (5)-cn, num edge types: 1
# Building blocks:
#     Node 0, Type 0, BuildingBlock: BEQFEK_clean_sbu_0, # of connection points: 5
#     Node 1, Type 0, BuildingBlock: BEQFEK_clean_sbu_0, # of connection points: 5
#     Node 2, Type 0, BuildingBlock: BEQFEK_clean_sbu_0, # of connection points: 5
#     Node 3, Type 0, BuildingBlock: BEQFEK_clean_sbu_0, # of connection points: 5
#     Edge 4, Type (0, 0), BuildingBlock: EZIPEK_clean_linker_0, # of connection points: 2
#     Edge 5, Type (0, 0), BuildingBlock: EZIPEK_clean_linker_0, # of connection points: 2
#     Edge 6, Type (0, 0), BuildingBlock: EZIPEK_clean_linker_0, # of connection points: 2
#     Edge 7, Type (0, 0), BuildingBlock: EZIPEK_clean_linker_0, # of connection points: 2
#     Edge 8, Type (0, 0), BuildingBlock: EZIPEK_clean_linker_0, # of connection points: 2
#     Edge 9, Type (0, 0), BuildingBlock: EZIPEK_clean_linker_0, # of connection points: 2
#     Edge 10, Type (0, 0), BuildingBlock: EZIPEK_clean_linker_0, # of connection points: 2
#     Edge 11, Type (0, 0), BuildingBlock: EZIPEK_clean_linker_0, # of connection points: 2
#     Edge 12, Type (0, 0), BuildingBlock: EZIPEK_clean_linker_0, # of connection points: 2
#     Edge 13, Type (0, 0), BuildingBlock: EZIPEK_clean_linker_0, # of connection points: 2
# Relax obj value: 0.029
# Max RMSD: 0.078
# Mean RMSD: 0.078
data_MOF--net-sqp--node1-BEQFEK_clean_sbu_0--edge1-EZIPEK_clean_linker_0
_symmetry_space_group_name_H-M    P1
_symmetry_Int_Tables_number       1
_symmetry_cell_setting            triclinic
loop_
_symmetry_equiv_pos_as_xyz
'x, y, z'
_cell_length_a     18.891422
_cell_length_b     18.910071
_cell_length_c     29.057425
_cell_angle_alpha  97.59681
_cell_angle_beta   97.686443
_cell_angle_gamma 105.34428
loop_
_atom_site_label
_atom_site_type_symbol
_atom_site_fract_x
_atom_site_fract_y
_atom_site_fract_z
_atom_type_partial_charge
Co0 Co 0.05533 0.93045 0.29793 0.0
Co1 Co 0.9592 0.04464 0.30525 0.0
C2 C 0.88752 0.88703 0.26362 0.0
O3 O 0.94974 0.8725 0.27166 0.0
O4 O 0.88228 0.9531 0.27209 0.0
C5 C 0.1069 0.82204 0.24398 0.0
O6 O 0.04369 0.81133 0.21525 0.0
C7 C 0.87102 0.14687 0.28003 0.0
C8 C 0.90197 0.23123 0.3452 0.0
C9 C 0.85982 0.21285 0.30027 0.0
N10 N 0.91834 0.12744 0.31146 0.0
N11 N 0.93634 0.17807 0.35037 0.0
C12 C 0.83694 0.1027 0.23192 0.0
H13 H 0.78146 0.06515 0.23342 0.0
H14 H 0.87242 0.06815 0.21987 0.0
H15 H 0.8289 0.13996 0.20646 0.0
C16 C 0.15136 0.05352 0.26273 0.0
N17 N 0.08612 0.02084 0.2754 0.0
N18 N 0.0451 0.06729 0.27632 0.0
C19 C 0.08244 0.13026 0.26288 0.0
C20 C 0.15077 0.12353 0.25401 0.0
C21 C 0.2166 0.02251 0.26511 0.0
H22 H 0.20444 0.97398 0.23647 0.0
H23 H 0.26814 0.06438 0.26126 0.0
H24 H 0.22563 0.00302 0.2992 0.0
O25 O 0.06136 0.95192 0.36654 0.0
O26 O 0.9869 0.02584 0.36995 0.0
H27 H 0.09576 0.24243 0.24925 0.0
H28 H 1.00118 0.18265 0.23942 0.0
C29 C 0.05646 0.1982 0.2625 0.0
H30 H 0.05075 0.22007 0.29871 0.0
H31 H 0.97269 0.17667 0.38039 0.0
O32 O 0.1226 0.86891 0.28216 0.0
C33 C 0.02682 0.98965 0.38965 0.0
Co34 Co 0.09223 0.96002 0.6791 0.0
Co35 Co 0.97988 0.05859 0.67517 0.0
C36 C 0.14057 0.12688 0.71443 0.0
O37 O 0.15291 0.06364 0.707 0.0
O38 O 0.07512 0.13409 0.70575 0.0
C39 C 0.19756 0.90578 0.7327 0.0
O40 O 0.20581 0.96765 0.76206 0.0
C41 C 0.88027 0.14913 0.70288 0.0
C42 C 0.79324 0.11754 0.63888 0.0
C43 C 0.81364 0.16034 0.68356 0.0
N44 N 0.89806 0.10106 0.67112 0.0
N45 N 0.84583 0.08276 0.63294 0.0
C46 C 0.92638 0.18375 0.75041 0.0
H47 H 0.96493 0.15107 0.76082 0.0
H48 H 0.89005 0.18772 0.77709 0.0
H49 H 0.95975 0.24108 0.749 0.0
C50 C 0.9692 0.86435 0.71458 0.0
N51 N 1.00259 0.92996 0.70266 0.0
N52 N 0.95779 0.97265 0.70408 0.0
C53 C 0.8954 0.93613 0.71853 0.0
C54 C 0.90064 0.86652 0.72548 0.0
C55 C 0.99756 0.79749 0.70915 0.0
H56 H 0.04592 0.80576 0.73738 0.0
H57 H 0.95422 0.74602 0.71141 0.0
H58 H 0.01667 0.79085 0.67477 0.0
O59 O 0.06952 0.95831 0.61057 0.0
O60 O 0.99192 0.02924 0.60926 0.0
H61 H 0.78589 0.92606 0.73623 0.0
H62 H 0.84729 0.01968 0.74431 0.0
C63 C 0.82903 0.96414 0.72145 0.0
H64 H 0.80449 0.96977 0.68576 0.0
H65 H 0.84571 0.04581 0.60287 0.0
O66 O 0.15282 0.89122 0.69358 0.0
C67 C 0.02859 0.99121 0.58844 0.0
Co68 Co 0.5643 0.43256 0.8012 0.0
Co69 Co 0.46748 0.54627 0.80574 0.0
C70 C 0.39676 0.38815 0.76518 0.0
O71 O 0.45912 0.37422 0.77426 0.0
O72 O 0.39121 0.45424 0.77231 0.0
C73 C 0.6183 0.32777 0.74656 0.0
O74 O 0.55745 0.32104 0.71653 0.0
C75 C 0.37748 0.64619 0.77906 0.0
C76 C 0.4116 0.73466 0.84224 0.0
C77 C 0.36723 0.71337 0.79797 0.0
N78 N 0.42645 0.62896 0.81058 0.0
N79 N 0.44629 0.682 0.84831 0.0
C80 C 0.3411 0.59879 0.73217 0.0
H81 H 0.2906 0.55618 0.7367 0.0
H82 H 0.37952 0.5694 0.71822 0.0
H83 H 0.32396 0.63263 0.70673 0.0
C84 C 0.66244 0.55672 0.7677 0.0
N85 N 0.59622 0.52323 0.77892 0.0
N86 N 0.55405 0.56854 0.77768 0.0
C87 C 0.59128 0.6311 0.76379 0.0
C88 C 0.661 0.62566 0.75724 0.0
C89 C 0.72906 0.52794 0.77334 0.0
H90 H 0.73315 0.50501 0.80651 0.0
H91 H 0.72247 0.48235 0.74362 0.0
H92 H 0.78127 0.57223 0.77371 0.0
O93 O 0.56711 0.4532 0.86934 0.0
O94 O 0.4945 0.52922 0.87117 0.0
H95 H 0.55925 0.72299 0.79645 0.0
H96 H 0.6013 0.73994 0.74518 0.0
C97 C 0.56357 0.69757 0.76069 0.0
H98 H 0.50749 0.67933 0.73842 0.0
H99 H 0.48419 0.6826 0.87808 0.0
O100 O 0.63192 0.37107 0.7861 0.0
C101 C 0.53296 0.49238 0.8916 0.0
Co102 Co 0.58647 0.46025 0.18065 0.0
Co103 Co 0.47115 0.55553 0.17412 0.0
C104 C 0.63093 0.6267 0.21547 0.0
O105 O 0.64479 0.56407 0.20946 0.0
O106 O 0.56526 0.63249 0.20475 0.0
C107 C 0.6903 0.40618 0.23588 0.0
O108 O 0.69562 0.4666 0.2658 0.0
C109 C 0.37124 0.64617 0.20054 0.0
C110 C 0.28149 0.60951 0.1379 0.0
C111 C 0.30329 0.65523 0.18165 0.0
N112 N 0.3883 0.59654 0.16949 0.0
N113 N 0.33451 0.57525 0.13208 0.0
C114 C 0.41945 0.68412 0.24697 0.0
H115 H 0.46278 0.7332 0.24137 0.0
H116 H 0.44818 0.64587 0.26185 0.0
H117 H 0.38634 0.70348 0.27211 0.0
C118 C 0.46204 0.36184 0.21353 0.0
N119 N 0.49547 0.42803 0.20234 0.0
N120 N 0.45002 0.47006 0.20341 0.0
C121 C 0.38737 0.43271 0.21719 0.0
C122 C 0.39294 0.3631 0.22382 0.0
C123 C 0.49087 0.29531 0.2078 0.0
H124 H 0.51391 0.2915 0.17468 0.0
H125 H 0.53644 0.30167 0.23756 0.0
H126 H 0.44652 0.24309 0.20726 0.0
O127 O 0.56708 0.46017 0.11224 0.0
O128 O 0.48471 0.52586 0.10858 0.0
H129 H 0.29453 0.46286 0.18391 0.0
H130 H 0.27866 0.42285 0.23602 0.0
C131 C 0.32056 0.46001 0.21988 0.0
H132 H 0.33864 0.51658 0.24138 0.0
H133 H 0.33358 0.53654 0.10271 0.0
O134 O 0.64797 0.39253 0.19588 0.0
C135 C 0.52478 0.49054 0.089 0.0
C136 C 0.99821 0.92171 0.45641 0.0
C137 C 0.0301 0.98927 0.44066 0.0
C138 C 0.06177 0.05752 0.52191 0.0
C139 C 0.028 0.99044 0.53751 0.0
N140 N 0.95593 0.86145 0.52076 0.0
N141 N 0.08821 0.12198 0.45651 0.0
C142 C 0.99458 0.92302 0.50511 0.0
C143 C 0.0607 0.05735 0.47292 0.0
N144 N 0.97047 0.85652 0.42464 0.0
N145 N 0.09713 0.12087 0.55421 0.0
H146 H 0.09497 0.12338 0.42157 0.0
H147 H 0.10186 0.1749 0.47677 0.0
H148 H 0.09554 0.12489 0.59011 0.0
H149 H 0.1313 0.16893 0.54624 0.0
H150 H 0.95507 0.80413 0.43406 0.0
H151 H 0.96531 0.85385 0.38824 0.0
H152 H 0.92354 0.81237 0.49881 0.0
H153 H 0.95173 0.86076 0.55615 0.0
C154 C 0.55892 0.55853 0.0232 0.0
C155 C 0.5269 0.49049 0.03839 0.0
C156 C 0.49581 0.42441 0.95671 0.0
C157 C 0.53322 0.49109 0.94218 0.0
N158 N 0.61039 0.61834 0.96129 0.0
N159 N 0.47185 0.35723 0.02118 0.0
C160 C 0.56742 0.55736 0.97533 0.0
C161 C 0.49787 0.42285 0.00562 0.0
N162 N 0.58056 0.62446 0.05431 0.0
N163 N 0.45495 0.36383 0.92366 0.0
H164 H 0.46764 0.35431 0.05634 0.0
H165 H 0.45854 0.30518 -0.00022 0.0
H166 H 0.45134 0.36284 0.88743 0.0
H167 H 0.41953 0.31658 0.93179 0.0
H168 H 0.59569 0.67636 0.04412 0.0
H169 H 0.57857 0.62822 0.09015 0.0
H170 H 0.6438 0.66565 0.98458 0.0
H171 H 0.61791 0.61936 0.92642 0.0
C172 C 0.26636 0.22959 0.2854 0.0
C173 C 0.21435 0.18329 0.24614 0.0
C174 C 0.27871 0.25545 0.19214 0.0
C175 C 0.33269 0.29956 0.23124 0.0
N176 N 0.38584 0.32275 0.31381 0.0
N177 N 0.17552 0.14379 0.16218 0.0
C178 C 0.3289 0.2848 0.27754 0.0
C179 C 0.22183 0.19382 0.19945 0.0
N180 N 0.25472 0.22208 0.3302 0.0
N181 N 0.28115 0.27342 0.14818 0.0
H182 H 0.13228 0.0989 0.16632 0.0
H183 H 0.18285 0.14331 0.12729 0.0
H184 H 0.32397 0.31581 0.14097 0.0
H185 H 0.23871 0.24939 0.11923 0.0
H186 H 0.28553 0.25947 0.36022 0.0
H187 H 0.21069 0.181 0.33744 0.0
H188 H 0.39077 0.3091 0.3474 0.0
H189 H 0.43162 0.36486 0.30951 0.0
C190 C 0.7476 0.25977 0.29853 0.0
C191 C 0.81246 0.25647 0.2799 0.0
C192 C 0.79037 0.34278 0.22716 0.0
C193 C 0.73075 0.35276 0.24983 0.0
N194 N 0.65822 0.32806 0.31153 0.0
N195 N 0.90253 0.30291 0.23156 0.0
C196 C 0.71098 0.31338 0.28683 0.0
C197 C 0.83544 0.29963 0.24522 0.0
N198 N 0.71973 0.21006 0.3264 0.0
N199 N 0.80477 0.3754 0.18882 0.0
H200 H 0.9375 0.27309 0.24452 0.0
H201 H 0.92652 0.33976 0.21054 0.0
H202 H 0.77638 0.4113 0.1763 0.0
H203 H 0.84151 0.363 0.16746 0.0
H204 H 0.66828 0.20427 0.33701 0.0
H205 H 0.74466 0.16945 0.33523 0.0
H206 H 0.64803 0.30772 0.34234 0.0
H207 H 0.62806 0.36496 0.3034 0.0
C208 C 0.70573 0.74468 0.27046 0.0
C209 C 0.69488 0.69517 0.22737 0.0
C210 C 0.8059 0.77639 0.20549 0.0
C211 C 0.81859 0.82395 0.24961 0.0
N212 N 0.78897 0.84842 0.32745 0.0
N213 N 0.72741 0.66656 0.15081 0.0
C214 C 0.77024 0.80736 0.28281 0.0
C215 C 0.74338 0.71151 0.19412 0.0
N216 N 0.654 0.73196 0.29945 0.0
N217 N 0.85478 0.793 0.175 0.0
H218 H 0.68276 0.61833 0.1411 0.0
H219 H 0.75558 0.67787 0.12307 0.0
H220 H 0.89786 0.84264 0.18089 0.0
H221 H 0.85486 0.75768 0.14442 0.0
H222 H 0.65323 0.77056 0.32831 0.0
H223 H 0.60847 0.68436 0.29301 0.0
H224 H 0.76142 0.83397 0.35504 0.0
H225 H 0.83604 0.89423 0.33844 0.0
C226 C 0.19695 0.79924 0.19149 0.0
C227 C 0.16145 0.78277 0.23054 0.0
C228 C 0.22167 0.68395 0.23928 0.0
C229 C 0.26035 0.70332 0.20198 0.0
N230 N 0.29779 0.7895 0.1497 0.0
N231 N 0.14868 0.71793 0.29652 0.0
C232 C 0.2518 0.76406 0.18022 0.0
C233 C 0.17713 0.72823 0.25625 0.0
N234 N 0.17747 0.84751 0.16456 0.0
N235 N 0.22384 0.62067 0.25661 0.0
H236 H 0.11197 0.74566 0.30855 0.0
H237 H 0.16535 0.68558 0.31978 0.0
H238 H 0.25526 0.58659 0.2449 0.0
H239 H 0.19007 0.59862 0.27981 0.0
H240 H 0.19472 0.85469 0.1325 0.0
H241 H 0.13976 0.87683 0.17239 0.0
H242 H 0.29979 0.83833 0.13637 0.0
H243 H 0.33938 0.76572 0.14125 0.0
C244 C 0.33934 0.7953 0.74033 0.0
C245 C 0.31892 0.75571 0.77707 0.0
C246 C 0.21973 0.81544 0.78519 0.0
C247 C 0.23721 0.85171 0.74657 0.0
N248 N 0.30575 0.86754 0.68242 0.0
N249 N 0.23013 0.71503 0.82722 0.0
C250 C 0.29408 0.83829 0.72229 0.0
C251 C 0.25619 0.76192 0.79733 0.0
N252 N 0.40438 0.79548 0.7246 0.0
N253 N 0.16934 0.833 0.81099 0.0
H254 H 0.25492 0.67446 0.83635 0.0
H255 H 0.18003 0.71128 0.83931 0.0
H256 H 0.13906 0.86966 0.80254 0.0
H257 H 0.16122 0.81522 0.84281 0.0
H258 H 0.42691 0.82996 0.7019 0.0
H259 H 0.43931 0.76543 0.73727 0.0
H260 H 0.34011 0.85244 0.66011 0.0
H261 H 0.27728 0.90324 0.6697 0.0
C262 C 0.21629 0.24263 0.77116 0.0
C263 C 0.20541 0.1946 0.72743 0.0
C264 C 0.31868 0.27501 0.70766 0.0
C265 C 0.32827 0.32441 0.75066 0.0
N266 N 0.28553 0.35914 0.82283 0.0
N267 N 0.24029 0.16778 0.65137 0.0
C268 C 0.27646 0.30964 0.7821 0.0
C269 C 0.25525 0.21132 0.69505 0.0
N270 N 0.17139 0.22183 0.80323 0.0
N271 N 0.37093 0.28878 0.67906 0.0
H272 H 0.19665 0.11883 0.64114 0.0
H273 H 0.26816 0.18191 0.62386 0.0
H274 H 0.4142 0.33822 0.68477 0.0
H275 H 0.37375 0.25031 0.65076 0.0
H276 H 0.18026 0.24965 0.83778 0.0
H277 H 0.12722 0.17298 0.79641 0.0
H278 H 0.24542 0.35705 0.84429 0.0
H279 H 0.33225 0.40503 0.83471 0.0
C280 C 0.76652 0.27216 0.68512 0.0
C281 C 0.77083 0.20808 0.70436 0.0
C282 C 0.6838 0.22965 0.75664 0.0
C283 C 0.67258 0.28811 0.73318 0.0
N284 N 0.69638 0.35964 0.67092 0.0
N285 N 0.72624 0.11916 0.75381 0.0
C286 C 0.71198 0.30787 0.6962 0.0
C287 C 0.72808 0.18536 0.73927 0.0
N288 N 0.81605 0.30003 0.65713 0.0
N289 N 0.65129 0.2156 0.79505 0.0
H290 H 0.75731 0.08499 0.74164 0.0
H291 H 0.68961 0.09513 0.77495 0.0
H292 H 0.61465 0.24341 0.8071 0.0
H293 H 0.66446 0.17981 0.81693 0.0
H294 H 0.82104 0.35096 0.64598 0.0
H295 H 0.85733 0.27572 0.6488 0.0
H296 H 0.71681 0.36973 0.64013 0.0
H297 H 0.65867 0.38905 0.67855 0.0
C298 C 0.76915 0.73968 0.78826 0.0
C299 C 0.72432 0.68577 0.74938 0.0
C300 C 0.79304 0.75201 0.69467 0.0
C301 C 0.84044 0.80362 0.73372 0.0
N302 N 0.88162 0.84219 0.81758 0.0
N303 N 0.6993 0.63287 0.66674 0.0
C304 C 0.83076 0.79621 0.78055 0.0
C305 C 0.73804 0.68961 0.70288 0.0
N306 N 0.75189 0.73754 0.83239 0.0
N307 N 0.79925 0.76395 0.64977 0.0
H308 H 0.65732 0.58719 0.6713 0.0
H309 H 0.71221 0.62801 0.63296 0.0
H310 H 0.83983 0.80816 0.64228 0.0
H311 H 0.76111 0.73334 0.61999 0.0
H312 H 0.77652 0.77999 0.86122 0.0
H313 H 0.7094 0.69507 0.83986 0.0
H314 H 0.8827 0.83479 0.8525 0.0
H315 H 0.92655 0.88515 0.81317 0.0
loop_
_geom_bond_atom_site_label_1
_geom_bond_atom_site_label_2
_geom_bond_distance
_geom_bond_site_symmetry_2
_ccdc_geom_bond_type
Co0 O3 1.970 1_455 S
Co0 N17 1.989 1_565 S
Co0 O25 1.967 . S
Co0 O32 1.920 . S
Co1 O4 1.966 1_545 S
Co1 N10 2.022 . S
Co1 N18 1.993 1_655 S
Co1 O26 1.941 . S
C2 O3 1.258 . S
C2 O4 1.263 . S
O3 Co0 1.970 1_655 S
O3 C2 1.258 . S
O4 Co1 1.966 1_565 S
O4 C2 1.263 . S
C5 O6 1.235 . S
C5 O32 1.289 . S
O6 C5 1.235 . S
C7 C9 1.400 . S
C7 N10 1.351 . S
C7 C12 1.501 . S
C8 C9 1.387 . S
C8 N11 1.341 . S
C9 C7 1.400 . S
C9 C8 1.387 . S
N10 Co1 2.022 . S
N10 C7 1.351 . S
N10 N11 1.365 . S
N11 C8 1.341 . S
N11 N10 1.365 . S
N11 H31 0.862 . S
C12 C7 1.501 . S
C12 H13 0.961 . S
C12 H14 0.961 . S
C12 H15 0.960 . S
H13 C12 0.961 . S
H14 C12 0.961 . S
H15 C12 0.960 . S
C16 N17 1.342 . S
C16 C20 1.401 . S
C16 C21 1.499 . S
N17 Co0 1.989 1_545 S
N17 C16 1.342 . S
N17 N18 1.388 . S
N18 Co1 1.993 1_455 S
N18 N17 1.388 . S
N18 C19 1.346 . S
C19 N18 1.346 . S
C19 C20 1.396 . S
C19 C29 1.510 . S
C20 C16 1.401 . S
C20 C19 1.396 . S
C21 C16 1.499 . S
C21 H22 0.959 1_545 S
C21 H23 0.960 . S
C21 H24 0.961 . S
H22 C21 0.959 1_565 S
H23 C21 0.960 . S
H24 C21 0.961 . S
O25 Co0 1.967 . S
O25 C33 1.258 . S
O26 Co1 1.941 . S
O26 C33 1.266 1_645 S
H27 C29 0.959 . S
H28 C29 0.961 . S
C29 C19 1.510 . S
C29 H27 0.959 . S
C29 H28 0.961 . S
C29 H30 0.960 1_455 S
H30 C29 0.960 1_655 S
H31 N11 0.862 . S
O32 Co0 1.920 . S
O32 C5 1.289 . S
C33 O25 1.258 . S
C33 O26 1.266 1_465 S
Co34 O37 1.970 1_565 S
Co34 N51 1.989 1_455 S
Co34 O59 1.967 . S
Co34 O66 1.920 . S
Co35 O38 1.966 1_655 S
Co35 N44 2.022 . S
Co35 N52 1.993 1_545 S
Co35 O60 1.941 . S
C36 O37 1.258 . S
C36 O38 1.263 . S
O37 Co34 1.970 1_545 S
O37 C36 1.258 . S
O38 Co35 1.966 1_455 S
O38 C36 1.263 . S
C39 O40 1.235 . S
C39 O66 1.289 . S
O40 C39 1.235 . S
C41 C43 1.400 . S
C41 N44 1.351 . S
C41 C46 1.501 . S
C42 C43 1.387 . S
C42 N45 1.341 . S
C43 C41 1.400 . S
C43 C42 1.387 . S
N44 Co35 2.022 . S
N44 C41 1.351 . S
N44 N45 1.365 . S
N45 C42 1.341 . S
N45 N44 1.365 . S
N45 H65 0.862 . S
C46 C41 1.501 . S
C46 H47 0.961 1_655 S
C46 H48 0.961 . S
C46 H49 0.960 . S
H47 C46 0.961 1_455 S
H48 C46 0.961 . S
H49 C46 0.960 . S
C50 N51 1.342 . S
C50 C54 1.401 . S
C50 C55 1.499 . S
N51 Co34 1.989 1_655 S
N51 C50 1.342 . S
N51 N52 1.388 . S
N52 Co35 1.993 1_565 S
N52 N51 1.388 . S
N52 C53 1.346 . S
C53 N52 1.346 . S
C53 C54 1.396 . S
C53 C63 1.510 . S
C54 C50 1.401 . S
C54 C53 1.396 . S
C55 C50 1.499 . S
C55 H56 0.959 1_655 S
C55 H57 0.960 . S
C55 H58 0.961 . S
H56 C55 0.959 1_455 S
H57 C55 0.960 . S
H58 C55 0.961 . S
O59 Co34 1.967 . S
O59 C67 1.258 . S
O60 Co35 1.941 . S
O60 C67 1.266 1_645 S
H61 C63 0.959 . S
H62 C63 0.961 . S
C63 C53 1.510 . S
C63 H61 0.959 . S
C63 H62 0.961 . S
C63 H64 0.960 1_565 S
H64 C63 0.960 1_545 S
H65 N45 0.862 . S
O66 Co34 1.920 . S
O66 C39 1.289 . S
C67 O59 1.258 . S
C67 O60 1.266 1_465 S
Co68 O71 1.970 . S
Co68 N85 1.989 . S
Co68 O93 1.967 . S
Co68 O100 1.920 . S
Co69 O72 1.966 . S
Co69 N78 2.022 . S
Co69 N86 1.993 . S
Co69 O94 1.941 . S
C70 O71 1.258 . S
C70 O72 1.263 . S
O71 Co68 1.970 . S
O71 C70 1.258 . S
O72 Co69 1.966 . S
O72 C70 1.263 . S
C73 O74 1.235 . S
C73 O100 1.289 . S
O74 C73 1.235 . S
C75 C77 1.400 . S
C75 N78 1.351 . S
C75 C80 1.501 . S
C76 C77 1.387 . S
C76 N79 1.341 . S
C77 C75 1.400 . S
C77 C76 1.387 . S
N78 Co69 2.022 . S
N78 C75 1.351 . S
N78 N79 1.365 . S
N79 C76 1.341 . S
N79 N78 1.365 . S
N79 H99 0.862 . S
C80 C75 1.501 . S
C80 H81 0.961 . S
C80 H82 0.961 . S
C80 H83 0.960 . S
H81 C80 0.961 . S
H82 C80 0.961 . S
H83 C80 0.960 . S
C84 N85 1.342 . S
C84 C88 1.401 . S
C84 C89 1.499 . S
N85 Co68 1.989 . S
N85 C84 1.342 . S
N85 N86 1.388 . S
N86 Co69 1.993 . S
N86 N85 1.388 . S
N86 C87 1.346 . S
C87 N86 1.346 . S
C87 C88 1.396 . S
C87 C97 1.510 . S
C88 C84 1.401 . S
C88 C87 1.396 . S
C89 C84 1.499 . S
C89 H90 0.959 . S
C89 H91 0.960 . S
C89 H92 0.961 . S
H90 C89 0.959 . S
H91 C89 0.960 . S
H92 C89 0.961 . S
O93 Co68 1.967 . S
O93 C101 1.258 . S
O94 Co69 1.941 . S
O94 C101 1.266 . S
H95 C97 0.959 . S
H96 C97 0.961 . S
C97 C87 1.510 . S
C97 H95 0.959 . S
C97 H96 0.961 . S
C97 H98 0.960 . S
H98 C97 0.960 . S
H99 N79 0.862 . S
O100 Co68 1.920 . S
O100 C73 1.289 . S
C101 O93 1.258 . S
C101 O94 1.266 . S
Co102 O105 1.970 . S
Co102 N119 1.989 . S
Co102 O127 1.967 . S
Co102 O134 1.920 . S
Co103 O106 1.966 . S
Co103 N112 2.022 . S
Co103 N120 1.993 . S
Co103 O128 1.941 . S
C104 O105 1.258 . S
C104 O106 1.263 . S
O105 Co102 1.970 . S
O105 C104 1.258 . S
O106 Co103 1.966 . S
O106 C104 1.263 . S
C107 O108 1.235 . S
C107 O134 1.289 . S
O108 C107 1.235 . S
C109 C111 1.400 . S
C109 N112 1.351 . S
C109 C114 1.501 . S
C110 C111 1.387 . S
C110 N113 1.341 . S
C111 C109 1.400 . S
C111 C110 1.387 . S
N112 Co103 2.022 . S
N112 C109 1.351 . S
N112 N113 1.365 . S
N113 C110 1.341 . S
N113 N112 1.365 . S
N113 H133 0.862 . S
C114 C109 1.501 . S
C114 H115 0.961 . S
C114 H116 0.961 . S
C114 H117 0.960 . S
H115 C114 0.961 . S
H116 C114 0.961 . S
H117 C114 0.960 . S
C118 N119 1.342 . S
C118 C122 1.401 . S
C118 C123 1.499 . S
N119 Co102 1.989 . S
N119 C118 1.342 . S
N119 N120 1.388 . S
N120 Co103 1.993 . S
N120 N119 1.388 . S
N120 C121 1.346 . S
C121 N120 1.346 . S
C121 C122 1.396 . S
C121 C131 1.510 . S
C122 C118 1.401 . S
C122 C121 1.396 . S
C123 C118 1.499 . S
C123 H124 0.959 . S
C123 H125 0.960 . S
C123 H126 0.961 . S
H124 C123 0.959 . S
H125 C123 0.960 . S
H126 C123 0.961 . S
O127 Co102 1.967 . S
O127 C135 1.258 . S
O128 Co103 1.941 . S
O128 C135 1.266 . S
H129 C131 0.959 . S
H130 C131 0.961 . S
C131 C121 1.510 . S
C131 H129 0.959 . S
C131 H130 0.961 . S
C131 H132 0.960 . S
H132 C131 0.960 . S
H133 N113 0.862 . S
O134 Co102 1.920 . S
O134 C107 1.289 . S
C135 O127 1.258 . S
C135 O128 1.266 . S
C136 C137 1.363 1_655 S
C136 C142 1.379 . S
C136 N144 1.356 . S
C137 C136 1.363 1_455 S
C137 C143 1.363 1_565 S
C138 C139 1.363 1_545 S
C138 C143 1.379 . S
C138 N145 1.356 . S
C139 C138 1.363 1_565 S
C139 C142 1.363 1_455 S
N140 C142 1.356 . S
N140 H152 0.984 . S
N140 H153 0.985 . S
N141 C143 1.356 . S
N141 H146 0.984 . S
N141 H147 0.985 . S
C142 C136 1.379 . S
C142 C139 1.363 1_655 S
C142 N140 1.356 . S
C143 C137 1.363 1_545 S
C143 C138 1.379 . S
C143 N141 1.356 . S
N144 C136 1.356 . S
N144 H150 0.984 . S
N144 H151 0.984 . S
N145 C138 1.356 . S
N145 H148 0.984 . S
N145 H149 0.985 . S
H146 N141 0.984 . S
H147 N141 0.985 . S
H148 N145 0.984 . S
H149 N145 0.985 . S
H150 N144 0.984 . S
H151 N144 0.984 . S
H152 N140 0.984 . S
H153 N140 0.985 . S
C154 C155 1.363 . S
C154 C160 1.379 1_554 S
C154 N162 1.356 . S
C155 C154 1.363 . S
C155 C161 1.363 . S
C156 C157 1.363 . S
C156 C161 1.379 1_556 S
C156 N163 1.356 . S
C157 C156 1.363 . S
C157 C160 1.363 . S
N158 C160 1.356 . S
N158 H170 0.984 . S
N158 H171 0.985 . S
N159 C161 1.356 . S
N159 H164 0.984 . S
N159 H165 0.985 . S
C160 C154 1.379 1_556 S
C160 C157 1.363 . S
C160 N158 1.356 . S
C161 C155 1.363 . S
C161 C156 1.379 1_554 S
C161 N159 1.356 . S
N162 C154 1.356 . S
N162 H168 0.984 . S
N162 H169 0.984 . S
N163 C156 1.356 . S
N163 H166 0.984 . S
N163 H167 0.985 . S
H164 N159 0.984 . S
H165 N159 0.985 . S
H166 N163 0.984 . S
H167 N163 0.985 . S
H168 N162 0.984 . S
H169 N162 0.984 . S
H170 N158 0.984 . S
H171 N158 0.985 . S
C172 C173 1.363 . S
C172 C178 1.379 . S
C172 N180 1.356 . S
C173 C172 1.363 . S
C173 C179 1.363 . S
C174 C175 1.363 . S
C174 C179 1.379 . S
C174 N181 1.356 . S
C175 C174 1.363 . S
C175 C178 1.363 . S
N176 C178 1.356 . S
N176 H188 0.984 . S
N176 H189 0.985 . S
N177 C179 1.356 . S
N177 H182 0.984 . S
N177 H183 0.985 . S
C178 C172 1.379 . S
C178 C175 1.363 . S
C178 N176 1.356 . S
C179 C173 1.363 . S
C179 C174 1.379 . S
C179 N177 1.356 . S
N180 C172 1.356 . S
N180 H186 0.984 . S
N180 H187 0.984 . S
N181 C174 1.356 . S
N181 H184 0.984 . S
N181 H185 0.985 . S
H182 N177 0.984 . S
H183 N177 0.985 . S
H184 N181 0.984 . S
H185 N181 0.985 . S
H186 N180 0.984 . S
H187 N180 0.984 . S
H188 N176 0.984 . S
H189 N176 0.985 . S
C190 C191 1.363 . S
C190 C196 1.379 . S
C190 N198 1.356 . S
C191 C190 1.363 . S
C191 C197 1.363 . S
C192 C193 1.363 . S
C192 C197 1.379 . S
C192 N199 1.356 . S
C193 C192 1.363 . S
C193 C196 1.363 . S
N194 C196 1.356 . S
N194 H206 0.984 . S
N194 H207 0.985 . S
N195 C197 1.356 . S
N195 H200 0.984 . S
N195 H201 0.985 . S
C196 C190 1.379 . S
C196 C193 1.363 . S
C196 N194 1.356 . S
C197 C191 1.363 . S
C197 C192 1.379 . S
C197 N195 1.356 . S
N198 C190 1.356 . S
N198 H204 0.984 . S
N198 H205 0.984 . S
N199 C192 1.356 . S
N199 H202 0.984 . S
N199 H203 0.985 . S
H200 N195 0.984 . S
H201 N195 0.985 . S
H202 N199 0.984 . S
H203 N199 0.985 . S
H204 N198 0.984 . S
H205 N198 0.984 . S
H206 N194 0.984 . S
H207 N194 0.985 . S
C208 C209 1.363 . S
C208 C214 1.379 . S
C208 N216 1.356 . S
C209 C208 1.363 . S
C209 C215 1.363 . S
C210 C211 1.363 . S
C210 C215 1.379 . S
C210 N217 1.356 . S
C211 C210 1.363 . S
C211 C214 1.363 . S
N212 C214 1.356 . S
N212 H224 0.984 . S
N212 H225 0.985 . S
N213 C215 1.356 . S
N213 H218 0.984 . S
N213 H219 0.985 . S
C214 C208 1.379 . S
C214 C211 1.363 . S
C214 N212 1.356 . S
C215 C209 1.363 . S
C215 C210 1.379 . S
C215 N213 1.356 . S
N216 C208 1.356 . S
N216 H222 0.984 . S
N216 H223 0.984 . S
N217 C210 1.356 . S
N217 H220 0.984 . S
N217 H221 0.985 . S
H218 N213 0.984 . S
H219 N213 0.985 . S
H220 N217 0.984 . S
H221 N217 0.985 . S
H222 N216 0.984 . S
H223 N216 0.984 . S
H224 N212 0.984 . S
H225 N212 0.985 . S
C226 C227 1.363 . S
C226 C232 1.379 . S
C226 N234 1.356 . S
C227 C226 1.363 . S
C227 C233 1.363 . S
C228 C229 1.363 . S
C228 C233 1.379 . S
C228 N235 1.356 . S
C229 C228 1.363 . S
C229 C232 1.363 . S
N230 C232 1.356 . S
N230 H242 0.984 . S
N230 H243 0.985 . S
N231 C233 1.356 . S
N231 H236 0.984 . S
N231 H237 0.985 . S
C232 C226 1.379 . S
C232 C229 1.363 . S
C232 N230 1.356 . S
C233 C227 1.363 . S
C233 C228 1.379 . S
C233 N231 1.356 . S
N234 C226 1.356 . S
N234 H240 0.984 . S
N234 H241 0.984 . S
N235 C228 1.356 . S
N235 H238 0.984 . S
N235 H239 0.985 . S
H236 N231 0.984 . S
H237 N231 0.985 . S
H238 N235 0.984 . S
H239 N235 0.985 . S
H240 N234 0.984 . S
H241 N234 0.984 . S
H242 N230 0.984 . S
H243 N230 0.985 . S
C244 C245 1.363 . S
C244 C250 1.379 . S
C244 N252 1.356 . S
C245 C244 1.363 . S
C245 C251 1.363 . S
C246 C247 1.363 . S
C246 C251 1.379 . S
C246 N253 1.356 . S
C247 C246 1.363 . S
C247 C250 1.363 . S
N248 C250 1.356 . S
N248 H260 0.984 . S
N248 H261 0.985 . S
N249 C251 1.356 . S
N249 H254 0.984 . S
N249 H255 0.985 . S
C250 C244 1.379 . S
C250 C247 1.363 . S
C250 N248 1.356 . S
C251 C245 1.363 . S
C251 C246 1.379 . S
C251 N249 1.356 . S
N252 C244 1.356 . S
N252 H258 0.984 . S
N252 H259 0.984 . S
N253 C246 1.356 . S
N253 H256 0.984 . S
N253 H257 0.985 . S
H254 N249 0.984 . S
H255 N249 0.985 . S
H256 N253 0.984 . S
H257 N253 0.985 . S
H258 N252 0.984 . S
H259 N252 0.984 . S
H260 N248 0.984 . S
H261 N248 0.985 . S
C262 C263 1.363 . S
C262 C268 1.379 . S
C262 N270 1.356 . S
C263 C262 1.363 . S
C263 C269 1.363 . S
C264 C265 1.363 . S
C264 C269 1.379 . S
C264 N271 1.356 . S
C265 C264 1.363 . S
C265 C268 1.363 . S
N266 C268 1.356 . S
N266 H278 0.984 . S
N266 H279 0.985 . S
N267 C269 1.356 . S
N267 H272 0.984 . S
N267 H273 0.985 . S
C268 C262 1.379 . S
C268 C265 1.363 . S
C268 N266 1.356 . S
C269 C263 1.363 . S
C269 C264 1.379 . S
C269 N267 1.356 . S
N270 C262 1.356 . S
N270 H276 0.984 . S
N270 H277 0.984 . S
N271 C264 1.356 . S
N271 H274 0.984 . S
N271 H275 0.985 . S
H272 N267 0.984 . S
H273 N267 0.985 . S
H274 N271 0.984 . S
H275 N271 0.985 . S
H276 N270 0.984 . S
H277 N270 0.984 . S
H278 N266 0.984 . S
H279 N266 0.985 . S
C280 C281 1.363 . S
C280 C286 1.379 . S
C280 N288 1.356 . S
C281 C280 1.363 . S
C281 C287 1.363 . S
C282 C283 1.363 . S
C282 C287 1.379 . S
C282 N289 1.356 . S
C283 C282 1.363 . S
C283 C286 1.363 . S
N284 C286 1.356 . S
N284 H296 0.984 . S
N284 H297 0.985 . S
N285 C287 1.356 . S
N285 H290 0.984 . S
N285 H291 0.985 . S
C286 C280 1.379 . S
C286 C283 1.363 . S
C286 N284 1.356 . S
C287 C281 1.363 . S
C287 C282 1.379 . S
C287 N285 1.356 . S
N288 C280 1.356 . S
N288 H294 0.984 . S
N288 H295 0.984 . S
N289 C282 1.356 . S
N289 H292 0.984 . S
N289 H293 0.985 . S
H290 N285 0.984 . S
H291 N285 0.985 . S
H292 N289 0.984 . S
H293 N289 0.985 . S
H294 N288 0.984 . S
H295 N288 0.984 . S
H296 N284 0.984 . S
H297 N284 0.985 . S
C298 C299 1.363 . S
C298 C304 1.379 . S
C298 N306 1.356 . S
C299 C298 1.363 . S
C299 C305 1.363 . S
C300 C301 1.363 . S
C300 C305 1.379 . S
C300 N307 1.356 . S
C301 C300 1.363 . S
C301 C304 1.363 . S
N302 C304 1.356 . S
N302 H314 0.984 . S
N302 H315 0.985 . S
N303 C305 1.356 . S
N303 H308 0.984 . S
N303 H309 0.985 . S
C304 C298 1.379 . S
C304 C301 1.363 . S
C304 N302 1.356 . S
C305 C299 1.363 . S
C305 C300 1.379 . S
C305 N303 1.356 . S
N306 C298 1.356 . S
N306 H312 0.984 . S
N306 H313 0.984 . S
N307 C300 1.356 . S
N307 H310 0.984 . S
N307 H311 0.985 . S
H308 N303 0.984 . S
H309 N303 0.985 . S
H310 N307 0.984 . S
H311 N307 0.985 . S
H312 N306 0.984 . S
H313 N306 0.984 . S
H314 N302 0.984 . S
H315 N302 0.985 . S
C137 C33 1.512 . S
C139 C67 1.512 . S
C155 C135 1.512 . S
C157 C101 1.512 . S
C173 C20 1.313 . S
C175 C122 1.313 . S
C191 C9 1.512 . S
C193 C107 1.526 . S
C209 C104 1.602 . S
C211 C2 1.602 . S
C227 C5 1.526 . S
C229 C111 1.512 . S
C245 C77 1.512 . S
C247 C39 1.526 . S
C263 C36 1.602 . S
C265 C70 1.602 . S
C281 C43 1.512 . S
C283 C73 1.526 . S
C299 C88 1.313 . S
C301 C54 1.313 . S
