# Generated by pormake.
# Topology wse, (4)-cn, num edge types: 1
# Building blocks:
#     Node 0, Type 0, BuildingBlock: QUQFOY_clean_sbu_1, # of connection points: 4
#     Node 1, Type 0, BuildingBlock: QUQFOY_clean_sbu_1, # of connection points: 4
#     Node 2, Type 0, BuildingBlock: QUQFOY_clean_sbu_1, # of connection points: 4
#     Node 3, Type 0, BuildingBlock: QUQFOY_clean_sbu_1, # of connection points: 4
#     Node 4, Type 0, BuildingBlock: QUQFOY_clean_sbu_1, # of connection points: 4
#     Node 5, Type 0, BuildingBlock: QUQFOY_clean_sbu_1, # of connection points: 4
#     Node 6, Type 0, BuildingBlock: QUQFOY_clean_sbu_1, # of connection points: 4
#     Node 7, Type 0, BuildingBlock: QUQFOY_clean_sbu_1, # of connection points: 4
#     Node 8, Type 0, BuildingBlock: QUQFOY_clean_sbu_1, # of connection points: 4
#     Node 9, Type 0, BuildingBlock: QUQFOY_clean_sbu_1, # of connection points: 4
#     Node 10, Type 0, BuildingBlock: QUQFOY_clean_sbu_1, # of connection points: 4
#     Node 11, Type 0, BuildingBlock: QUQFOY_clean_sbu_1, # of connection points: 4
#     Node 12, Type 0, BuildingBlock: QUQFOY_clean_sbu_1, # of connection points: 4
#     Node 13, Type 0, BuildingBlock: QUQFOY_clean_sbu_1, # of connection points: 4
#     Node 14, Type 0, BuildingBlock: QUQFOY_clean_sbu_1, # of connection points: 4
#     Node 15, Type 0, BuildingBlock: QUQFOY_clean_sbu_1, # of connection points: 4
#     Node 16, Type 0, BuildingBlock: QUQFOY_clean_sbu_1, # of connection points: 4
#     Node 17, Type 0, BuildingBlock: QUQFOY_clean_sbu_1, # of connection points: 4
#     Node 18, Type 0, BuildingBlock: QUQFOY_clean_sbu_1, # of connection points: 4
#     Node 19, Type 0, BuildingBlock: QUQFOY_clean_sbu_1, # of connection points: 4
#     Node 20, Type 0, BuildingBlock: QUQFOY_clean_sbu_1, # of connection points: 4
#     Node 21, Type 0, BuildingBlock: QUQFOY_clean_sbu_1, # of connection points: 4
#     Node 22, Type 0, BuildingBlock: QUQFOY_clean_sbu_1, # of connection points: 4
#     Node 23, Type 0, BuildingBlock: QUQFOY_clean_sbu_1, # of connection points: 4
#     Node 24, Type 0, BuildingBlock: QUQFOY_clean_sbu_1, # of connection points: 4
#     Node 25, Type 0, BuildingBlock: QUQFOY_clean_sbu_1, # of connection points: 4
#     Node 26, Type 0, BuildingBlock: QUQFOY_clean_sbu_1, # of connection points: 4
#     Node 27, Type 0, BuildingBlock: QUQFOY_clean_sbu_1, # of connection points: 4
#     Node 28, Type 0, BuildingBlock: QUQFOY_clean_sbu_1, # of connection points: 4
#     Node 29, Type 0, BuildingBlock: QUQFOY_clean_sbu_1, # of connection points: 4
#     Node 30, Type 0, BuildingBlock: QUQFOY_clean_sbu_1, # of connection points: 4
#     Node 31, Type 0, BuildingBlock: QUQFOY_clean_sbu_1, # of connection points: 4
#     Node 32, Type 0, BuildingBlock: QUQFOY_clean_sbu_1, # of connection points: 4
#     Node 33, Type 0, BuildingBlock: QUQFOY_clean_sbu_1, # of connection points: 4
#     Node 34, Type 0, BuildingBlock: QUQFOY_clean_sbu_1, # of connection points: 4
#     Node 35, Type 0, BuildingBlock: QUQFOY_clean_sbu_1, # of connection points: 4
#     Node 36, Type 0, BuildingBlock: QUQFOY_clean_sbu_1, # of connection points: 4
#     Node 37, Type 0, BuildingBlock: QUQFOY_clean_sbu_1, # of connection points: 4
#     Node 38, Type 0, BuildingBlock: QUQFOY_clean_sbu_1, # of connection points: 4
#     Node 39, Type 0, BuildingBlock: QUQFOY_clean_sbu_1, # of connection points: 4
#     Node 40, Type 0, BuildingBlock: QUQFOY_clean_sbu_1, # of connection points: 4
#     Node 41, Type 0, BuildingBlock: QUQFOY_clean_sbu_1, # of connection points: 4
#     Node 42, Type 0, BuildingBlock: QUQFOY_clean_sbu_1, # of connection points: 4
#     Node 43, Type 0, BuildingBlock: QUQFOY_clean_sbu_1, # of connection points: 4
#     Node 44, Type 0, BuildingBlock: QUQFOY_clean_sbu_1, # of connection points: 4
#     Node 45, Type 0, BuildingBlock: QUQFOY_clean_sbu_1, # of connection points: 4
#     Node 46, Type 0, BuildingBlock: QUQFOY_clean_sbu_1, # of connection points: 4
#     Node 47, Type 0, BuildingBlock: QUQFOY_clean_sbu_1, # of connection points: 4
#     Node 48, Type 0, BuildingBlock: QUQFOY_clean_sbu_1, # of connection points: 4
#     Node 49, Type 0, BuildingBlock: QUQFOY_clean_sbu_1, # of connection points: 4
#     Node 50, Type 0, BuildingBlock: QUQFOY_clean_sbu_1, # of connection points: 4
#     Node 51, Type 0, BuildingBlock: QUQFOY_clean_sbu_1, # of connection points: 4
#     Node 52, Type 0, BuildingBlock: QUQFOY_clean_sbu_1, # of connection points: 4
#     Node 53, Type 0, BuildingBlock: QUQFOY_clean_sbu_1, # of connection points: 4
#     Node 54, Type 0, BuildingBlock: QUQFOY_clean_sbu_1, # of connection points: 4
#     Node 55, Type 0, BuildingBlock: QUQFOY_clean_sbu_1, # of connection points: 4
#     Node 56, Type 0, BuildingBlock: QUQFOY_clean_sbu_1, # of connection points: 4
#     Node 57, Type 0, BuildingBlock: QUQFOY_clean_sbu_1, # of connection points: 4
#     Node 58, Type 0, BuildingBlock: QUQFOY_clean_sbu_1, # of connection points: 4
#     Node 59, Type 0, BuildingBlock: QUQFOY_clean_sbu_1, # of connection points: 4
#     Node 60, Type 0, BuildingBlock: QUQFOY_clean_sbu_1, # of connection points: 4
#     Node 61, Type 0, BuildingBlock: QUQFOY_clean_sbu_1, # of connection points: 4
#     Node 62, Type 0, BuildingBlock: QUQFOY_clean_sbu_1, # of connection points: 4
#     Node 63, Type 0, BuildingBlock: QUQFOY_clean_sbu_1, # of connection points: 4
#     Node 64, Type 0, BuildingBlock: QUQFOY_clean_sbu_1, # of connection points: 4
#     Node 65, Type 0, BuildingBlock: QUQFOY_clean_sbu_1, # of connection points: 4
#     Node 66, Type 0, BuildingBlock: QUQFOY_clean_sbu_1, # of connection points: 4
#     Node 67, Type 0, BuildingBlock: QUQFOY_clean_sbu_1, # of connection points: 4
#     Node 68, Type 0, BuildingBlock: QUQFOY_clean_sbu_1, # of connection points: 4
#     Node 69, Type 0, BuildingBlock: QUQFOY_clean_sbu_1, # of connection points: 4
#     Node 70, Type 0, BuildingBlock: QUQFOY_clean_sbu_1, # of connection points: 4
#     Node 71, Type 0, BuildingBlock: QUQFOY_clean_sbu_1, # of connection points: 4
#     Node 72, Type 0, BuildingBlock: QUQFOY_clean_sbu_1, # of connection points: 4
#     Node 73, Type 0, BuildingBlock: QUQFOY_clean_sbu_1, # of connection points: 4
#     Node 74, Type 0, BuildingBlock: QUQFOY_clean_sbu_1, # of connection points: 4
#     Node 75, Type 0, BuildingBlock: QUQFOY_clean_sbu_1, # of connection points: 4
#     Node 76, Type 0, BuildingBlock: QUQFOY_clean_sbu_1, # of connection points: 4
#     Node 77, Type 0, BuildingBlock: QUQFOY_clean_sbu_1, # of connection points: 4
#     Node 78, Type 0, BuildingBlock: QUQFOY_clean_sbu_1, # of connection points: 4
#     Node 79, Type 0, BuildingBlock: QUQFOY_clean_sbu_1, # of connection points: 4
#     Node 80, Type 0, BuildingBlock: QUQFOY_clean_sbu_1, # of connection points: 4
#     Node 81, Type 0, BuildingBlock: QUQFOY_clean_sbu_1, # of connection points: 4
#     Node 82, Type 0, BuildingBlock: QUQFOY_clean_sbu_1, # of connection points: 4
#     Node 83, Type 0, BuildingBlock: QUQFOY_clean_sbu_1, # of connection points: 4
#     Node 84, Type 0, BuildingBlock: QUQFOY_clean_sbu_1, # of connection points: 4
#     Node 85, Type 0, BuildingBlock: QUQFOY_clean_sbu_1, # of connection points: 4
#     Node 86, Type 0, BuildingBlock: QUQFOY_clean_sbu_1, # of connection points: 4
#     Node 87, Type 0, BuildingBlock: QUQFOY_clean_sbu_1, # of connection points: 4
#     Node 88, Type 0, BuildingBlock: QUQFOY_clean_sbu_1, # of connection points: 4
#     Node 89, Type 0, BuildingBlock: QUQFOY_clean_sbu_1, # of connection points: 4
#     Node 90, Type 0, BuildingBlock: QUQFOY_clean_sbu_1, # of connection points: 4
#     Node 91, Type 0, BuildingBlock: QUQFOY_clean_sbu_1, # of connection points: 4
#     Node 92, Type 0, BuildingBlock: QUQFOY_clean_sbu_1, # of connection points: 4
#     Node 93, Type 0, BuildingBlock: QUQFOY_clean_sbu_1, # of connection points: 4
#     Node 94, Type 0, BuildingBlock: QUQFOY_clean_sbu_1, # of connection points: 4
#     Node 95, Type 0, BuildingBlock: QUQFOY_clean_sbu_1, # of connection points: 4
#     Edge 96, Type (0, 0), BuildingBlock: OJICUG_clean_linker_0, # of connection points: 2
#     Edge 97, Type (0, 0), BuildingBlock: OJICUG_clean_linker_0, # of connection points: 2
#     Edge 98, Type (0, 0), BuildingBlock: OJICUG_clean_linker_0, # of connection points: 2
#     Edge 99, Type (0, 0), BuildingBlock: OJICUG_clean_linker_0, # of connection points: 2
#     Edge 100, Type (0, 0), BuildingBlock: OJICUG_clean_linker_0, # of connection points: 2
#     Edge 101, Type (0, 0), BuildingBlock: OJICUG_clean_linker_0, # of connection points: 2
#     Edge 102, Type (0, 0), BuildingBlock: OJICUG_clean_linker_0, # of connection points: 2
#     Edge 103, Type (0, 0), BuildingBlock: OJICUG_clean_linker_0, # of connection points: 2
#     Edge 104, Type (0, 0), BuildingBlock: OJICUG_clean_linker_0, # of connection points: 2
#     Edge 105, Type (0, 0), BuildingBlock: OJICUG_clean_linker_0, # of connection points: 2
#     Edge 106, Type (0, 0), BuildingBlock: OJICUG_clean_linker_0, # of connection points: 2
#     Edge 107, Type (0, 0), BuildingBlock: OJICUG_clean_linker_0, # of connection points: 2
#     Edge 108, Type (0, 0), BuildingBlock: OJICUG_clean_linker_0, # of connection points: 2
#     Edge 109, Type (0, 0), BuildingBlock: OJICUG_clean_linker_0, # of connection points: 2
#     Edge 110, Type (0, 0), BuildingBlock: OJICUG_clean_linker_0, # of connection points: 2
#     Edge 111, Type (0, 0), BuildingBlock: OJICUG_clean_linker_0, # of connection points: 2
#     Edge 112, Type (0, 0), BuildingBlock: OJICUG_clean_linker_0, # of connection points: 2
#     Edge 113, Type (0, 0), BuildingBlock: OJICUG_clean_linker_0, # of connection points: 2
#     Edge 114, Type (0, 0), BuildingBlock: OJICUG_clean_linker_0, # of connection points: 2
#     Edge 115, Type (0, 0), BuildingBlock: OJICUG_clean_linker_0, # of connection points: 2
#     Edge 116, Type (0, 0), BuildingBlock: OJICUG_clean_linker_0, # of connection points: 2
#     Edge 117, Type (0, 0), BuildingBlock: OJICUG_clean_linker_0, # of connection points: 2
#     Edge 118, Type (0, 0), BuildingBlock: OJICUG_clean_linker_0, # of connection points: 2
#     Edge 119, Type (0, 0), BuildingBlock: OJICUG_clean_linker_0, # of connection points: 2
#     Edge 120, Type (0, 0), BuildingBlock: OJICUG_clean_linker_0, # of connection points: 2
#     Edge 121, Type (0, 0), BuildingBlock: OJICUG_clean_linker_0, # of connection points: 2
#     Edge 122, Type (0, 0), BuildingBlock: OJICUG_clean_linker_0, # of connection points: 2
#     Edge 123, Type (0, 0), BuildingBlock: OJICUG_clean_linker_0, # of connection points: 2
#     Edge 124, Type (0, 0), BuildingBlock: OJICUG_clean_linker_0, # of connection points: 2
#     Edge 125, Type (0, 0), BuildingBlock: OJICUG_clean_linker_0, # of connection points: 2
#     Edge 126, Type (0, 0), BuildingBlock: OJICUG_clean_linker_0, # of connection points: 2
#     Edge 127, Type (0, 0), BuildingBlock: OJICUG_clean_linker_0, # of connection points: 2
#     Edge 128, Type (0, 0), BuildingBlock: OJICUG_clean_linker_0, # of connection points: 2
#     Edge 129, Type (0, 0), BuildingBlock: OJICUG_clean_linker_0, # of connection points: 2
#     Edge 130, Type (0, 0), BuildingBlock: OJICUG_clean_linker_0, # of connection points: 2
#     Edge 131, Type (0, 0), BuildingBlock: OJICUG_clean_linker_0, # of connection points: 2
#     Edge 132, Type (0, 0), BuildingBlock: OJICUG_clean_linker_0, # of connection points: 2
#     Edge 133, Type (0, 0), BuildingBlock: OJICUG_clean_linker_0, # of connection points: 2
#     Edge 134, Type (0, 0), BuildingBlock: OJICUG_clean_linker_0, # of connection points: 2
#     Edge 135, Type (0, 0), BuildingBlock: OJICUG_clean_linker_0, # of connection points: 2
#     Edge 136, Type (0, 0), BuildingBlock: OJICUG_clean_linker_0, # of connection points: 2
#     Edge 137, Type (0, 0), BuildingBlock: OJICUG_clean_linker_0, # of connection points: 2
#     Edge 138, Type (0, 0), BuildingBlock: OJICUG_clean_linker_0, # of connection points: 2
#     Edge 139, Type (0, 0), BuildingBlock: OJICUG_clean_linker_0, # of connection points: 2
#     Edge 140, Type (0, 0), BuildingBlock: OJICUG_clean_linker_0, # of connection points: 2
#     Edge 141, Type (0, 0), BuildingBlock: OJICUG_clean_linker_0, # of connection points: 2
#     Edge 142, Type (0, 0), BuildingBlock: OJICUG_clean_linker_0, # of connection points: 2
#     Edge 143, Type (0, 0), BuildingBlock: OJICUG_clean_linker_0, # of connection points: 2
#     Edge 144, Type (0, 0), BuildingBlock: OJICUG_clean_linker_0, # of connection points: 2
#     Edge 145, Type (0, 0), BuildingBlock: OJICUG_clean_linker_0, # of connection points: 2
#     Edge 146, Type (0, 0), BuildingBlock: OJICUG_clean_linker_0, # of connection points: 2
#     Edge 147, Type (0, 0), BuildingBlock: OJICUG_clean_linker_0, # of connection points: 2
#     Edge 148, Type (0, 0), BuildingBlock: OJICUG_clean_linker_0, # of connection points: 2
#     Edge 149, Type (0, 0), BuildingBlock: OJICUG_clean_linker_0, # of connection points: 2
#     Edge 150, Type (0, 0), BuildingBlock: OJICUG_clean_linker_0, # of connection points: 2
#     Edge 151, Type (0, 0), BuildingBlock: OJICUG_clean_linker_0, # of connection points: 2
#     Edge 152, Type (0, 0), BuildingBlock: OJICUG_clean_linker_0, # of connection points: 2
#     Edge 153, Type (0, 0), BuildingBlock: OJICUG_clean_linker_0, # of connection points: 2
#     Edge 154, Type (0, 0), BuildingBlock: OJICUG_clean_linker_0, # of connection points: 2
#     Edge 155, Type (0, 0), BuildingBlock: OJICUG_clean_linker_0, # of connection points: 2
#     Edge 156, Type (0, 0), BuildingBlock: OJICUG_clean_linker_0, # of connection points: 2
#     Edge 157, Type (0, 0), BuildingBlock: OJICUG_clean_linker_0, # of connection points: 2
#     Edge 158, Type (0, 0), BuildingBlock: OJICUG_clean_linker_0, # of connection points: 2
#     Edge 159, Type (0, 0), BuildingBlock: OJICUG_clean_linker_0, # of connection points: 2
#     Edge 160, Type (0, 0), BuildingBlock: OJICUG_clean_linker_0, # of connection points: 2
#     Edge 161, Type (0, 0), BuildingBlock: OJICUG_clean_linker_0, # of connection points: 2
#     Edge 162, Type (0, 0), BuildingBlock: OJICUG_clean_linker_0, # of connection points: 2
#     Edge 163, Type (0, 0), BuildingBlock: OJICUG_clean_linker_0, # of connection points: 2
#     Edge 164, Type (0, 0), BuildingBlock: OJICUG_clean_linker_0, # of connection points: 2
#     Edge 165, Type (0, 0), BuildingBlock: OJICUG_clean_linker_0, # of connection points: 2
#     Edge 166, Type (0, 0), BuildingBlock: OJICUG_clean_linker_0, # of connection points: 2
#     Edge 167, Type (0, 0), BuildingBlock: OJICUG_clean_linker_0, # of connection points: 2
#     Edge 168, Type (0, 0), BuildingBlock: OJICUG_clean_linker_0, # of connection points: 2
#     Edge 169, Type (0, 0), BuildingBlock: OJICUG_clean_linker_0, # of connection points: 2
#     Edge 170, Type (0, 0), BuildingBlock: OJICUG_clean_linker_0, # of connection points: 2
#     Edge 171, Type (0, 0), BuildingBlock: OJICUG_clean_linker_0, # of connection points: 2
#     Edge 172, Type (0, 0), BuildingBlock: OJICUG_clean_linker_0, # of connection points: 2
#     Edge 173, Type (0, 0), BuildingBlock: OJICUG_clean_linker_0, # of connection points: 2
#     Edge 174, Type (0, 0), BuildingBlock: OJICUG_clean_linker_0, # of connection points: 2
#     Edge 175, Type (0, 0), BuildingBlock: OJICUG_clean_linker_0, # of connection points: 2
#     Edge 176, Type (0, 0), BuildingBlock: OJICUG_clean_linker_0, # of connection points: 2
#     Edge 177, Type (0, 0), BuildingBlock: OJICUG_clean_linker_0, # of connection points: 2
#     Edge 178, Type (0, 0), BuildingBlock: OJICUG_clean_linker_0, # of connection points: 2
#     Edge 179, Type (0, 0), BuildingBlock: OJICUG_clean_linker_0, # of connection points: 2
#     Edge 180, Type (0, 0), BuildingBlock: OJICUG_clean_linker_0, # of connection points: 2
#     Edge 181, Type (0, 0), BuildingBlock: OJICUG_clean_linker_0, # of connection points: 2
#     Edge 182, Type (0, 0), BuildingBlock: OJICUG_clean_linker_0, # of connection points: 2
#     Edge 183, Type (0, 0), BuildingBlock: OJICUG_clean_linker_0, # of connection points: 2
#     Edge 184, Type (0, 0), BuildingBlock: OJICUG_clean_linker_0, # of connection points: 2
#     Edge 185, Type (0, 0), BuildingBlock: OJICUG_clean_linker_0, # of connection points: 2
#     Edge 186, Type (0, 0), BuildingBlock: OJICUG_clean_linker_0, # of connection points: 2
#     Edge 187, Type (0, 0), BuildingBlock: OJICUG_clean_linker_0, # of connection points: 2
#     Edge 188, Type (0, 0), BuildingBlock: OJICUG_clean_linker_0, # of connection points: 2
#     Edge 189, Type (0, 0), BuildingBlock: OJICUG_clean_linker_0, # of connection points: 2
#     Edge 190, Type (0, 0), BuildingBlock: OJICUG_clean_linker_0, # of connection points: 2
#     Edge 191, Type (0, 0), BuildingBlock: OJICUG_clean_linker_0, # of connection points: 2
#     Edge 192, Type (0, 0), BuildingBlock: OJICUG_clean_linker_0, # of connection points: 2
#     Edge 193, Type (0, 0), BuildingBlock: OJICUG_clean_linker_0, # of connection points: 2
#     Edge 194, Type (0, 0), BuildingBlock: OJICUG_clean_linker_0, # of connection points: 2
#     Edge 195, Type (0, 0), BuildingBlock: OJICUG_clean_linker_0, # of connection points: 2
#     Edge 196, Type (0, 0), BuildingBlock: OJICUG_clean_linker_0, # of connection points: 2
#     Edge 197, Type (0, 0), BuildingBlock: OJICUG_clean_linker_0, # of connection points: 2
#     Edge 198, Type (0, 0), BuildingBlock: OJICUG_clean_linker_0, # of connection points: 2
#     Edge 199, Type (0, 0), BuildingBlock: OJICUG_clean_linker_0, # of connection points: 2
#     Edge 200, Type (0, 0), BuildingBlock: OJICUG_clean_linker_0, # of connection points: 2
#     Edge 201, Type (0, 0), BuildingBlock: OJICUG_clean_linker_0, # of connection points: 2
#     Edge 202, Type (0, 0), BuildingBlock: OJICUG_clean_linker_0, # of connection points: 2
#     Edge 203, Type (0, 0), BuildingBlock: OJICUG_clean_linker_0, # of connection points: 2
#     Edge 204, Type (0, 0), BuildingBlock: OJICUG_clean_linker_0, # of connection points: 2
#     Edge 205, Type (0, 0), BuildingBlock: OJICUG_clean_linker_0, # of connection points: 2
#     Edge 206, Type (0, 0), BuildingBlock: OJICUG_clean_linker_0, # of connection points: 2
#     Edge 207, Type (0, 0), BuildingBlock: OJICUG_clean_linker_0, # of connection points: 2
#     Edge 208, Type (0, 0), BuildingBlock: OJICUG_clean_linker_0, # of connection points: 2
#     Edge 209, Type (0, 0), BuildingBlock: OJICUG_clean_linker_0, # of connection points: 2
#     Edge 210, Type (0, 0), BuildingBlock: OJICUG_clean_linker_0, # of connection points: 2
#     Edge 211, Type (0, 0), BuildingBlock: OJICUG_clean_linker_0, # of connection points: 2
#     Edge 212, Type (0, 0), BuildingBlock: OJICUG_clean_linker_0, # of connection points: 2
#     Edge 213, Type (0, 0), BuildingBlock: OJICUG_clean_linker_0, # of connection points: 2
#     Edge 214, Type (0, 0), BuildingBlock: OJICUG_clean_linker_0, # of connection points: 2
#     Edge 215, Type (0, 0), BuildingBlock: OJICUG_clean_linker_0, # of connection points: 2
#     Edge 216, Type (0, 0), BuildingBlock: OJICUG_clean_linker_0, # of connection points: 2
#     Edge 217, Type (0, 0), BuildingBlock: OJICUG_clean_linker_0, # of connection points: 2
#     Edge 218, Type (0, 0), BuildingBlock: OJICUG_clean_linker_0, # of connection points: 2
#     Edge 219, Type (0, 0), BuildingBlock: OJICUG_clean_linker_0, # of connection points: 2
#     Edge 220, Type (0, 0), BuildingBlock: OJICUG_clean_linker_0, # of connection points: 2
#     Edge 221, Type (0, 0), BuildingBlock: OJICUG_clean_linker_0, # of connection points: 2
#     Edge 222, Type (0, 0), BuildingBlock: OJICUG_clean_linker_0, # of connection points: 2
#     Edge 223, Type (0, 0), BuildingBlock: OJICUG_clean_linker_0, # of connection points: 2
#     Edge 224, Type (0, 0), BuildingBlock: OJICUG_clean_linker_0, # of connection points: 2
#     Edge 225, Type (0, 0), BuildingBlock: OJICUG_clean_linker_0, # of connection points: 2
#     Edge 226, Type (0, 0), BuildingBlock: OJICUG_clean_linker_0, # of connection points: 2
#     Edge 227, Type (0, 0), BuildingBlock: OJICUG_clean_linker_0, # of connection points: 2
#     Edge 228, Type (0, 0), BuildingBlock: OJICUG_clean_linker_0, # of connection points: 2
#     Edge 229, Type (0, 0), BuildingBlock: OJICUG_clean_linker_0, # of connection points: 2
#     Edge 230, Type (0, 0), BuildingBlock: OJICUG_clean_linker_0, # of connection points: 2
#     Edge 231, Type (0, 0), BuildingBlock: OJICUG_clean_linker_0, # of connection points: 2
#     Edge 232, Type (0, 0), BuildingBlock: OJICUG_clean_linker_0, # of connection points: 2
#     Edge 233, Type (0, 0), BuildingBlock: OJICUG_clean_linker_0, # of connection points: 2
#     Edge 234, Type (0, 0), BuildingBlock: OJICUG_clean_linker_0, # of connection points: 2
#     Edge 235, Type (0, 0), BuildingBlock: OJICUG_clean_linker_0, # of connection points: 2
#     Edge 236, Type (0, 0), BuildingBlock: OJICUG_clean_linker_0, # of connection points: 2
#     Edge 237, Type (0, 0), BuildingBlock: OJICUG_clean_linker_0, # of connection points: 2
#     Edge 238, Type (0, 0), BuildingBlock: OJICUG_clean_linker_0, # of connection points: 2
#     Edge 239, Type (0, 0), BuildingBlock: OJICUG_clean_linker_0, # of connection points: 2
#     Edge 240, Type (0, 0), BuildingBlock: OJICUG_clean_linker_0, # of connection points: 2
#     Edge 241, Type (0, 0), BuildingBlock: OJICUG_clean_linker_0, # of connection points: 2
#     Edge 242, Type (0, 0), BuildingBlock: OJICUG_clean_linker_0, # of connection points: 2
#     Edge 243, Type (0, 0), BuildingBlock: OJICUG_clean_linker_0, # of connection points: 2
#     Edge 244, Type (0, 0), BuildingBlock: OJICUG_clean_linker_0, # of connection points: 2
#     Edge 245, Type (0, 0), BuildingBlock: OJICUG_clean_linker_0, # of connection points: 2
#     Edge 246, Type (0, 0), BuildingBlock: OJICUG_clean_linker_0, # of connection points: 2
#     Edge 247, Type (0, 0), BuildingBlock: OJICUG_clean_linker_0, # of connection points: 2
#     Edge 248, Type (0, 0), BuildingBlock: OJICUG_clean_linker_0, # of connection points: 2
#     Edge 249, Type (0, 0), BuildingBlock: OJICUG_clean_linker_0, # of connection points: 2
#     Edge 250, Type (0, 0), BuildingBlock: OJICUG_clean_linker_0, # of connection points: 2
#     Edge 251, Type (0, 0), BuildingBlock: OJICUG_clean_linker_0, # of connection points: 2
#     Edge 252, Type (0, 0), BuildingBlock: OJICUG_clean_linker_0, # of connection points: 2
#     Edge 253, Type (0, 0), BuildingBlock: OJICUG_clean_linker_0, # of connection points: 2
#     Edge 254, Type (0, 0), BuildingBlock: OJICUG_clean_linker_0, # of connection points: 2
#     Edge 255, Type (0, 0), BuildingBlock: OJICUG_clean_linker_0, # of connection points: 2
#     Edge 256, Type (0, 0), BuildingBlock: OJICUG_clean_linker_0, # of connection points: 2
#     Edge 257, Type (0, 0), BuildingBlock: OJICUG_clean_linker_0, # of connection points: 2
#     Edge 258, Type (0, 0), BuildingBlock: OJICUG_clean_linker_0, # of connection points: 2
#     Edge 259, Type (0, 0), BuildingBlock: OJICUG_clean_linker_0, # of connection points: 2
#     Edge 260, Type (0, 0), BuildingBlock: OJICUG_clean_linker_0, # of connection points: 2
#     Edge 261, Type (0, 0), BuildingBlock: OJICUG_clean_linker_0, # of connection points: 2
#     Edge 262, Type (0, 0), BuildingBlock: OJICUG_clean_linker_0, # of connection points: 2
#     Edge 263, Type (0, 0), BuildingBlock: OJICUG_clean_linker_0, # of connection points: 2
#     Edge 264, Type (0, 0), BuildingBlock: OJICUG_clean_linker_0, # of connection points: 2
#     Edge 265, Type (0, 0), BuildingBlock: OJICUG_clean_linker_0, # of connection points: 2
#     Edge 266, Type (0, 0), BuildingBlock: OJICUG_clean_linker_0, # of connection points: 2
#     Edge 267, Type (0, 0), BuildingBlock: OJICUG_clean_linker_0, # of connection points: 2
#     Edge 268, Type (0, 0), BuildingBlock: OJICUG_clean_linker_0, # of connection points: 2
#     Edge 269, Type (0, 0), BuildingBlock: OJICUG_clean_linker_0, # of connection points: 2
#     Edge 270, Type (0, 0), BuildingBlock: OJICUG_clean_linker_0, # of connection points: 2
#     Edge 271, Type (0, 0), BuildingBlock: OJICUG_clean_linker_0, # of connection points: 2
#     Edge 272, Type (0, 0), BuildingBlock: OJICUG_clean_linker_0, # of connection points: 2
#     Edge 273, Type (0, 0), BuildingBlock: OJICUG_clean_linker_0, # of connection points: 2
#     Edge 274, Type (0, 0), BuildingBlock: OJICUG_clean_linker_0, # of connection points: 2
#     Edge 275, Type (0, 0), BuildingBlock: OJICUG_clean_linker_0, # of connection points: 2
#     Edge 276, Type (0, 0), BuildingBlock: OJICUG_clean_linker_0, # of connection points: 2
#     Edge 277, Type (0, 0), BuildingBlock: OJICUG_clean_linker_0, # of connection points: 2
#     Edge 278, Type (0, 0), BuildingBlock: OJICUG_clean_linker_0, # of connection points: 2
#     Edge 279, Type (0, 0), BuildingBlock: OJICUG_clean_linker_0, # of connection points: 2
#     Edge 280, Type (0, 0), BuildingBlock: OJICUG_clean_linker_0, # of connection points: 2
#     Edge 281, Type (0, 0), BuildingBlock: OJICUG_clean_linker_0, # of connection points: 2
#     Edge 282, Type (0, 0), BuildingBlock: OJICUG_clean_linker_0, # of connection points: 2
#     Edge 283, Type (0, 0), BuildingBlock: OJICUG_clean_linker_0, # of connection points: 2
#     Edge 284, Type (0, 0), BuildingBlock: OJICUG_clean_linker_0, # of connection points: 2
#     Edge 285, Type (0, 0), BuildingBlock: OJICUG_clean_linker_0, # of connection points: 2
#     Edge 286, Type (0, 0), BuildingBlock: OJICUG_clean_linker_0, # of connection points: 2
#     Edge 287, Type (0, 0), BuildingBlock: OJICUG_clean_linker_0, # of connection points: 2
# Relax obj value: 0.259
# Max RMSD: 0.178
# Mean RMSD: 0.175
data_MOF--net-wse--node1-QUQFOY_clean_sbu_1--edge1-OJICUG_clean_linker_0
_symmetry_space_group_name_H-M    P1
_symmetry_Int_Tables_number       1
_symmetry_cell_setting            triclinic
loop_
_symmetry_equiv_pos_as_xyz
'x, y, z'
_cell_length_a     79.289611
_cell_length_b     79.299679
_cell_length_c     79.298477
_cell_angle_alpha  90.004615
_cell_angle_beta   90.003477
_cell_angle_gamma 89.998193
loop_
_atom_site_label
_atom_site_type_symbol
_atom_site_fract_x
_atom_site_fract_y
_atom_site_fract_z
_atom_type_partial_charge
O0 O 0.04788 0.17853 0.4265 0.0
Cd1 Cd 0.07237 0.18465 0.43337 0.0
Cd2 Cd 0.06949 0.14843 0.4317 0.0
O3 O 0.04599 0.15134 0.42118 0.0
O4 O 0.066 0.20706 0.44235 0.0
O5 O 0.0833 0.20459 0.42091 0.0
C6 C 0.07507 0.21424 0.43108 0.0
C7 C 0.09301 0.1366 0.41905 0.0
C8 C 0.03928 0.16586 0.42172 0.0
C9 C 0.07849 0.16331 0.46445 0.0
O10 O 0.07079 0.1511 0.4575 0.0
O11 O 0.08264 0.1762 0.45589 0.0
O12 O 0.08105 0.12723 0.42497 0.0
O13 O 0.09097 0.1528 0.41931 0.0
O14 O 0.84942 0.07148 0.45764 0.0
Cd15 Cd 0.85259 0.07009 0.43191 0.0
Cd16 Cd 0.81613 0.07227 0.43288 0.0
O17 O 0.82382 0.08224 0.4558 0.0
O18 O 0.87384 0.0818 0.42561 0.0
O19 O 0.84832 0.0915 0.41934 0.0
C20 C 0.86451 0.09367 0.41943 0.0
C21 C 0.78657 0.0742 0.42978 0.0
C22 C 0.83682 0.07863 0.46447 0.0
C23 C 0.83584 0.03964 0.42132 0.0
O24 O 0.82292 0.04806 0.42572 0.0
O25 O 0.8503 0.04651 0.42138 0.0
O26 O 0.79366 0.06504 0.44103 0.0
O27 O 0.79625 0.08308 0.4202 0.0
O28 O 0.95323 0.82277 0.42642 0.0
Cd29 Cd 0.92874 0.81662 0.43326 0.0
Cd30 Cd 0.93156 0.85285 0.43155 0.0
O31 O 0.95506 0.84994 0.421 0.0
O32 O 0.93514 0.79424 0.44227 0.0
O33 O 0.91785 0.79665 0.42081 0.0
C34 C 0.92609 0.78703 0.431 0.0
C35 C 0.90801 0.86471 0.41898 0.0
C36 C 0.96181 0.83544 0.42161 0.0
C37 C 0.92265 0.83797 0.46432 0.0
O38 O 0.93034 0.85017 0.45736 0.0
O39 O 0.91846 0.82508 0.45577 0.0
O40 O 0.92 0.87407 0.42488 0.0
O41 O 0.91004 0.84851 0.41922 0.0
O42 O 0.15184 0.92996 0.45759 0.0
Cd43 Cd 0.14887 0.93137 0.43183 0.0
Cd44 Cd 0.18522 0.92883 0.43313 0.0
O45 O 0.17711 0.91849 0.45574 0.0
O46 O 0.12759 0.91982 0.42535 0.0
O47 O 0.15309 0.90995 0.41928 0.0
C48 C 0.13689 0.90789 0.41925 0.0
C49 C 0.21481 0.92651 0.43054 0.0
C50 C 0.16421 0.92241 0.46441 0.0
C51 C 0.16597 0.96175 0.42172 0.0
O52 O 0.17876 0.95324 0.4263 0.0
O53 O 0.15149 0.95494 0.42138 0.0
O54 O 0.20763 0.93553 0.44184 0.0
O55 O 0.20517 0.91807 0.42053 0.0
O56 O 0.04836 0.82348 0.57634 0.0
Cd57 Cd 0.07256 0.81669 0.56917 0.0
Cd58 Cd 0.07041 0.85318 0.57021 0.0
O59 O 0.0468 0.85085 0.58072 0.0
O60 O 0.06533 0.79423 0.561 0.0
O61 O 0.08338 0.79679 0.58181 0.0
C62 C 0.0745 0.78712 0.57223 0.0
C63 C 0.09403 0.86508 0.58266 0.0
C64 C 0.03994 0.83639 0.58075 0.0
C65 C 0.07889 0.83743 0.53761 0.0
O66 O 0.07176 0.85003 0.54447 0.0
O67 O 0.0825 0.82442 0.54625 0.0
O68 O 0.08216 0.87442 0.57652 0.0
O69 O 0.09185 0.8489 0.58275 0.0
O70 O 0.15133 0.07118 0.54457 0.0
Cd71 Cd 0.14883 0.06986 0.57039 0.0
Cd72 Cd 0.18491 0.07321 0.56839 0.0
O73 O 0.17607 0.08374 0.54615 0.0
O74 O 0.12757 0.08123 0.57726 0.0
O75 O 0.15309 0.0914 0.58271 0.0
C76 C 0.13687 0.0933 0.58307 0.0
C77 C 0.21449 0.07626 0.57035 0.0
C78 C 0.16327 0.07927 0.53761 0.0
C79 C 0.16669 0.03978 0.57989 0.0
O80 O 0.17918 0.04854 0.57493 0.0
O81 O 0.15214 0.04637 0.58085 0.0
O82 O 0.20728 0.06732 0.559 0.0
O83 O 0.20487 0.08414 0.58083 0.0
O84 O 0.95333 0.1778 0.57668 0.0
Cd85 Cd 0.9292 0.18476 0.56943 0.0
Cd86 Cd 0.9312 0.14822 0.57011 0.0
O87 O 0.95483 0.15036 0.58059 0.0
O88 O 0.93663 0.20727 0.56163 0.0
O89 O 0.91833 0.20454 0.5822 0.0
C90 C 0.92739 0.21428 0.57286 0.0
C91 C 0.90763 0.13626 0.58257 0.0
C92 C 0.96172 0.16481 0.58089 0.0
C93 C 0.92279 0.16432 0.53763 0.0
O94 O 0.92975 0.15157 0.5444 0.0
O95 O 0.91938 0.17733 0.54634 0.0
O96 O 0.91945 0.12695 0.57628 0.0
O97 O 0.90983 0.15244 0.58277 0.0
O98 O 0.85002 0.93017 0.54409 0.0
Cd99 Cd 0.85304 0.93161 0.56985 0.0
Cd100 Cd 0.81662 0.92902 0.56862 0.0
O101 O 0.82461 0.91897 0.54584 0.0
O102 O 0.87434 0.92009 0.57632 0.0
O103 O 0.84886 0.91019 0.58243 0.0
C104 C 0.86507 0.90816 0.58247 0.0
C105 C 0.78704 0.92682 0.5714 0.0
C106 C 0.83757 0.92279 0.53722 0.0
C107 C 0.83588 0.9619 0.58019 0.0
O108 O 0.82309 0.95334 0.5757 0.0
O109 O 0.85041 0.95518 0.58032 0.0
O110 O 0.79418 0.93595 0.56015 0.0
O111 O 0.7967 0.91814 0.58117 0.0
O112 O 0.45725 0.07089 0.15089 0.0
Cd113 Cd 0.43154 0.0695 0.14754 0.0
Cd114 Cd 0.43215 0.07151 0.18407 0.0
O115 O 0.45523 0.08133 0.17661 0.0
O116 O 0.42533 0.08133 0.12634 0.0
O117 O 0.4189 0.09086 0.15188 0.0
C118 C 0.41906 0.09311 0.13571 0.0
C119 C 0.42887 0.07341 0.21362 0.0
C120 C 0.46398 0.07788 0.16364 0.0
C121 C 0.42059 0.03904 0.1641 0.0
O122 O 0.4248 0.0474 0.17712 0.0
O123 O 0.42099 0.04592 0.14966 0.0
O124 O 0.44005 0.06412 0.20657 0.0
O125 O 0.41946 0.08241 0.20389 0.0
O126 O 0.9541 0.42565 0.17784 0.0
Cd127 Cd 0.92992 0.43296 0.18456 0.0
Cd128 Cd 0.93218 0.43197 0.14808 0.0
O129 O 0.95576 0.42145 0.15045 0.0
O130 O 0.93713 0.441 0.20707 0.0
O131 O 0.91895 0.42031 0.20436 0.0
C132 C 0.92787 0.42979 0.2141 0.0
C133 C 0.90862 0.41941 0.1362 0.0
C134 C 0.96256 0.42128 0.16494 0.0
C135 C 0.92368 0.46458 0.16382 0.0
O136 O 0.93077 0.45771 0.15119 0.0
O137 O 0.92012 0.45596 0.17685 0.0
O138 O 0.92047 0.42559 0.12685 0.0
O139 O 0.91079 0.41938 0.15238 0.0
O140 O 0.54466 0.93106 0.15113 0.0
Cd141 Cd 0.57038 0.93241 0.14788 0.0
Cd142 Cd 0.56971 0.93047 0.18436 0.0
O143 O 0.54653 0.92085 0.17696 0.0
O144 O 0.57667 0.92042 0.12679 0.0
O145 O 0.58292 0.91105 0.15243 0.0
C146 C 0.58283 0.90868 0.13627 0.0
C147 C 0.57322 0.9286 0.21387 0.0
C148 C 0.53785 0.9242 0.1639 0.0
C149 C 0.58142 0.96287 0.16437 0.0
O150 O 0.5772 0.95453 0.17739 0.0
O151 O 0.58096 0.95599 0.14993 0.0
O152 O 0.56206 0.93796 0.20691 0.0
O153 O 0.58244 0.91945 0.20409 0.0
O154 O 0.04891 0.5755 0.17833 0.0
Cd155 Cd 0.07331 0.56851 0.1847 0.0
Cd156 Cd 0.07067 0.56992 0.14837 0.0
O157 O 0.04719 0.58055 0.15108 0.0
O158 O 0.06663 0.55963 0.20706 0.0
O159 O 0.08413 0.58093 0.20473 0.0
C160 C 0.07571 0.57085 0.2143 0.0
C161 C 0.0943 0.58236 0.13653 0.0
C162 C 0.0404 0.58019 0.16557 0.0
C163 C 0.07948 0.53727 0.16358 0.0
O164 O 0.07187 0.54414 0.15127 0.0
O165 O 0.08356 0.54591 0.17644 0.0
O166 O 0.08235 0.57641 0.12716 0.0
O167 O 0.0922 0.58226 0.15273 0.0
O168 O 0.45712 0.93413 0.8488 0.0
Cd169 Cd 0.43156 0.93423 0.85327 0.0
Cd170 Cd 0.43043 0.93253 0.81672 0.0
O171 O 0.45414 0.92357 0.82321 0.0
O172 O 0.42654 0.92154 0.8743 0.0
O173 O 0.41975 0.91246 0.84868 0.0
C174 C 0.42048 0.90977 0.86477 0.0
C175 C 0.42643 0.93091 0.78727 0.0
C176 C 0.46341 0.92737 0.83572 0.0
C177 C 0.41834 0.96424 0.83764 0.0
O178 O 0.42217 0.95617 0.82432 0.0
O179 O 0.41991 0.95731 0.85197 0.0
O180 O 0.43721 0.94077 0.79416 0.0
O181 O 0.41782 0.92122 0.79708 0.0
O182 O 0.04877 0.42676 0.8219 0.0
Cd183 Cd 0.07347 0.43317 0.81608 0.0
Cd184 Cd 0.07036 0.43097 0.85211 0.0
O185 O 0.04685 0.42052 0.84888 0.0
O186 O 0.06761 0.44257 0.7937 0.0
O187 O 0.08433 0.42067 0.79612 0.0
C188 C 0.0765 0.43117 0.7865 0.0
C189 C 0.09383 0.41833 0.86405 0.0
C190 C 0.04012 0.4217 0.83441 0.0
C191 C 0.07965 0.46383 0.83779 0.0
O192 O 0.07163 0.45679 0.84973 0.0
O193 O 0.08407 0.45537 0.82493 0.0
O194 O 0.08173 0.42409 0.87336 0.0
O195 O 0.09193 0.41869 0.84783 0.0
O196 O 0.54336 0.0696 0.84999 0.0
Cd197 Cd 0.56907 0.0682 0.85335 0.0
Cd198 Cd 0.56865 0.07103 0.81686 0.0
O199 O 0.5455 0.08055 0.82449 0.0
O200 O 0.57539 0.08001 0.87456 0.0
O201 O 0.58157 0.08964 0.84899 0.0
C202 C 0.58151 0.09187 0.86517 0.0
C203 C 0.57185 0.07335 0.78737 0.0
C204 C 0.53668 0.07685 0.83735 0.0
C205 C 0.58045 0.03822 0.83615 0.0
O206 O 0.57632 0.04688 0.82331 0.0
O207 O 0.57975 0.04469 0.85077 0.0
O208 O 0.56077 0.06387 0.79431 0.0
O209 O 0.58117 0.08236 0.79719 0.0
O210 O 0.95246 0.57431 0.82219 0.0
Cd211 Cd 0.92776 0.56794 0.81635 0.0
Cd212 Cd 0.93083 0.5701 0.85237 0.0
O213 O 0.95438 0.58049 0.84919 0.0
O214 O 0.93362 0.55857 0.79396 0.0
O215 O 0.91692 0.58048 0.7964 0.0
C216 C 0.92474 0.56998 0.78677 0.0
C217 C 0.90733 0.58283 0.86418 0.0
C218 C 0.96112 0.57934 0.83472 0.0
C219 C 0.92153 0.53725 0.83801 0.0
O220 O 0.92952 0.54427 0.84998 0.0
O221 O 0.91714 0.54574 0.82514 0.0
O222 O 0.91936 0.57704 0.87356 0.0
O223 O 0.90931 0.58243 0.84797 0.0
O224 O 0.15212 0.45727 0.07147 0.0
Cd225 Cd 0.14877 0.43156 0.07004 0.0
Cd226 Cd 0.18532 0.43226 0.07206 0.0
O227 O 0.17787 0.45533 0.08187 0.0
O228 O 0.12748 0.42537 0.08173 0.0
O229 O 0.15295 0.41888 0.09141 0.0
C230 C 0.13676 0.41907 0.09357 0.0
C231 C 0.21486 0.42891 0.07386 0.0
C232 C 0.16486 0.46405 0.07843 0.0
C233 C 0.16537 0.42074 0.03955 0.0
O234 O 0.17837 0.42498 0.04793 0.0
O235 O 0.15093 0.42105 0.04643 0.0
O236 O 0.20782 0.44013 0.06463 0.0
O237 O 0.20514 0.41953 0.08291 0.0
O238 O 0.1515 0.54379 0.93049 0.0
Cd239 Cd 0.14832 0.56952 0.93194 0.0
Cd240 Cd 0.18484 0.56859 0.92959 0.0
O241 O 0.17713 0.5456 0.91979 0.0
O242 O 0.12703 0.57588 0.92033 0.0
O243 O 0.15252 0.58216 0.91056 0.0
C244 C 0.13632 0.5821 0.90846 0.0
C245 C 0.21438 0.57174 0.92754 0.0
C246 C 0.16412 0.53695 0.92337 0.0
C247 C 0.16526 0.58021 0.96228 0.0
O248 O 0.17815 0.57588 0.95378 0.0
O249 O 0.15075 0.58001 0.95553 0.0
O250 O 0.20734 0.56053 0.93679 0.0
O251 O 0.20465 0.58122 0.91862 0.0
O252 O 0.45721 0.15104 0.93071 0.0
Cd253 Cd 0.43147 0.14794 0.93212 0.0
Cd254 Cd 0.43237 0.18434 0.92995 0.0
O255 O 0.45541 0.17673 0.92015 0.0
O256 O 0.42503 0.12685 0.92021 0.0
O257 O 0.41892 0.1525 0.91077 0.0
C258 C 0.41892 0.13634 0.90844 0.0
C259 C 0.42906 0.21387 0.92794 0.0
C260 C 0.46405 0.16369 0.92365 0.0
C261 C 0.42076 0.16465 0.96255 0.0
O262 O 0.42509 0.17758 0.95412 0.0
O263 O 0.42097 0.15018 0.95572 0.0
O264 O 0.44029 0.20688 0.9372 0.0
O265 O 0.41965 0.2041 0.91898 0.0
O266 O 0.84993 0.45747 0.9297 0.0
Cd267 Cd 0.85255 0.43166 0.93116 0.0
Cd268 Cd 0.81648 0.43344 0.92803 0.0
O269 O 0.82506 0.45573 0.91742 0.0
O270 O 0.87381 0.42481 0.91979 0.0
O271 O 0.84828 0.41914 0.90974 0.0
C272 C 0.8645 0.41883 0.9078 0.0
C273 C 0.78691 0.4312 0.92506 0.0
C274 C 0.83787 0.46435 0.92173 0.0
C275 C 0.83495 0.42222 0.96141 0.0
O276 O 0.82236 0.42706 0.95272 0.0
O277 O 0.84946 0.42132 0.95471 0.0
O278 O 0.79404 0.44264 0.93395 0.0
O279 O 0.7966 0.42079 0.91719 0.0
O280 O 0.54437 0.84896 0.9344 0.0
Cd281 Cd 0.56992 0.85355 0.93455 0.0
Cd282 Cd 0.57133 0.81704 0.93295 0.0
O283 O 0.54747 0.82324 0.92417 0.0
O284 O 0.57488 0.87454 0.92177 0.0
O285 O 0.58179 0.84891 0.91282 0.0
C286 C 0.58102 0.86499 0.91006 0.0
C287 C 0.57572 0.78765 0.93124 0.0
C288 C 0.53814 0.83575 0.92783 0.0
C289 C 0.58331 0.83808 0.96458 0.0
O290 O 0.57962 0.82471 0.95654 0.0
O291 O 0.58154 0.85239 0.95765 0.0
O292 O 0.56495 0.79437 0.94121 0.0
O293 O 0.58409 0.79759 0.92148 0.0
O294 O 0.84997 0.54463 0.07109 0.0
Cd295 Cd 0.85254 0.57043 0.06972 0.0
Cd296 Cd 0.81639 0.56851 0.07287 0.0
O297 O 0.82513 0.54626 0.08346 0.0
O298 O 0.87383 0.57721 0.08111 0.0
O299 O 0.84832 0.5828 0.09125 0.0
C300 C 0.86454 0.58306 0.09318 0.0
C301 C 0.7868 0.57054 0.0757 0.0
C302 C 0.83796 0.5377 0.07911 0.0
C303 C 0.83484 0.57995 0.03953 0.0
O304 O 0.8223 0.57505 0.04824 0.0
O305 O 0.84937 0.58086 0.04619 0.0
O306 O 0.79404 0.55918 0.0668 0.0
O307 O 0.79638 0.58096 0.08369 0.0
O308 O 0.45816 0.8501 0.0696 0.0
Cd309 Cd 0.43242 0.85334 0.06832 0.0
Cd310 Cd 0.43308 0.81685 0.07128 0.0
O311 O 0.45606 0.82479 0.08096 0.0
O312 O 0.42607 0.87455 0.08011 0.0
O313 O 0.42008 0.84898 0.08984 0.0
C314 C 0.42008 0.86516 0.09203 0.0
C315 C 0.4304 0.7873 0.07371 0.0
C316 C 0.46485 0.83761 0.07706 0.0
C317 C 0.42109 0.83595 0.03843 0.0
O318 O 0.42537 0.82317 0.04711 0.0
O319 O 0.42164 0.85059 0.04488 0.0
O320 O 0.4414 0.7944 0.06426 0.0
O321 O 0.4208 0.79699 0.08255 0.0
O322 O 0.54449 0.15121 0.07121 0.0
Cd323 Cd 0.57027 0.14839 0.06999 0.0
Cd324 Cd 0.56878 0.18465 0.07261 0.0
O325 O 0.54624 0.17635 0.08296 0.0
O326 O 0.57682 0.12721 0.08166 0.0
O327 O 0.58261 0.15279 0.09149 0.0
C328 C 0.58274 0.13659 0.09361 0.0
C329 C 0.57109 0.21425 0.07507 0.0
C330 C 0.53761 0.16348 0.07888 0.0
C331 C 0.58039 0.16556 0.03968 0.0
O332 O 0.57566 0.17831 0.04818 0.0
O333 O 0.58086 0.15109 0.0465 0.0
O334 O 0.55984 0.20701 0.06603 0.0
O335 O 0.58124 0.20467 0.08341 0.0
O336 O 0.90791 0.82206 0.54376 0.0
Cd337 Cd 0.90665 0.81959 0.56968 0.0
Cd338 Cd 0.94118 0.82006 0.56677 0.0
O339 O 0.93439 0.83053 0.54389 0.0
O340 O 0.8856 0.83099 0.57711 0.0
O341 O 0.91125 0.84079 0.58253 0.0
C342 C 0.89506 0.84288 0.583 0.0
C343 C 0.96876 0.82664 0.57553 0.0
C344 C 0.92049 0.82846 0.53618 0.0
C345 C 0.92225 0.78735 0.57668 0.0
O346 O 0.93523 0.79491 0.57107 0.0
O347 O 0.90873 0.7955 0.57938 0.0
O348 O 0.96575 0.81658 0.56323 0.0
O349 O 0.95607 0.83352 0.58301 0.0
O350 O 0.20786 0.9343 0.57094 0.0
Cd351 Cd 0.18278 0.9405 0.56667 0.0
Cd352 Cd 0.18308 0.90584 0.56961 0.0
O353 O 0.20718 0.90783 0.57936 0.0
O354 O 0.1867 0.96491 0.56252 0.0
O355 O 0.16973 0.95603 0.58264 0.0
C356 C 0.17679 0.96841 0.57482 0.0
C357 C 0.15964 0.89449 0.5829 0.0
C358 C 0.21538 0.92131 0.57659 0.0
C359 C 0.17413 0.91971 0.53619 0.0
O360 O 0.18064 0.90714 0.54369 0.0
O361 O 0.17204 0.93357 0.54395 0.0
O362 O 0.17147 0.88491 0.57707 0.0
O363 O 0.16188 0.91066 0.58241 0.0
O364 O 0.0936 0.17914 0.54385 0.0
Cd365 Cd 0.09496 0.1817 0.56976 0.0
Cd366 Cd 0.06039 0.18117 0.56698 0.0
O367 O 0.0671 0.17073 0.54406 0.0
O368 O 0.11607 0.17038 0.57716 0.0
O369 O 0.09048 0.16052 0.58272 0.0
C370 C 0.10667 0.15849 0.58315 0.0
C371 C 0.03286 0.1745 0.57582 0.0
C372 C 0.08098 0.17277 0.53631 0.0
C373 C 0.07929 0.21392 0.57682 0.0
O374 O 0.06629 0.20632 0.57129 0.0
O375 O 0.09285 0.20581 0.57942 0.0
O376 O 0.0358 0.1846 0.56353 0.0
O377 O 0.0456 0.16765 0.58325 0.0
O378 O 0.79419 0.06672 0.57166 0.0
Cd379 Cd 0.8193 0.06085 0.56709 0.0
Cd380 Cd 0.81856 0.09545 0.56976 0.0
O381 O 0.79458 0.09331 0.5797 0.0
O382 O 0.81566 0.03635 0.56328 0.0
O383 O 0.83281 0.0457 0.58303 0.0
C384 C 0.82581 0.03313 0.57547 0.0
C385 C 0.84206 0.10679 0.58293 0.0
C386 C 0.78654 0.07968 0.57722 0.0
C387 C 0.8273 0.08149 0.53632 0.0
O388 O 0.82079 0.09407 0.54383 0.0
O389 O 0.82959 0.0677 0.54415 0.0
O390 O 0.8302 0.11637 0.57717 0.0
O391 O 0.83984 0.09063 0.58242 0.0
O392 O 0.907 0.18042 0.45834 0.0
Cd393 Cd 0.90547 0.18263 0.43241 0.0
Cd394 Cd 0.94015 0.18191 0.43492 0.0
O395 O 0.93337 0.17162 0.45789 0.0
O396 O 0.88449 0.17102 0.4251 0.0
O397 O 0.91021 0.16138 0.4197 0.0
C398 C 0.89404 0.15917 0.41925 0.0
C399 C 0.96797 0.17567 0.42664 0.0
C400 C 0.91962 0.17392 0.46578 0.0
C401 C 0.92119 0.21461 0.42479 0.0
O402 O 0.93418 0.20697 0.43027 0.0
O403 O 0.90753 0.20659 0.42244 0.0
O404 O 0.96461 0.18577 0.43882 0.0
O405 O 0.9555 0.16853 0.41904 0.0
O406 O 0.79476 0.93479 0.43009 0.0
Cd407 Cd 0.81987 0.94071 0.43463 0.0
Cd408 Cd 0.81925 0.90609 0.43192 0.0
O409 O 0.79524 0.90821 0.42204 0.0
O410 O 0.81622 0.96523 0.43834 0.0
O411 O 0.83334 0.95581 0.41859 0.0
C412 C 0.82633 0.9684 0.42612 0.0
C413 C 0.84262 0.89453 0.41869 0.0
C414 C 0.78716 0.92181 0.42453 0.0
C415 C 0.82804 0.92009 0.46536 0.0
O416 O 0.82159 0.90749 0.45784 0.0
O417 O 0.83022 0.93392 0.45756 0.0
O418 O 0.83072 0.88506 0.42457 0.0
O419 O 0.8405 0.91071 0.41914 0.0
O420 O 0.0942 0.82147 0.45822 0.0
Cd421 Cd 0.09559 0.81916 0.4323 0.0
Cd422 Cd 0.06095 0.81966 0.43508 0.0
O423 O 0.06778 0.83012 0.45795 0.0
O424 O 0.11659 0.83067 0.42493 0.0
O425 O 0.09091 0.84038 0.4195 0.0
C426 C 0.10709 0.84253 0.41904 0.0
C427 C 0.03314 0.82581 0.42673 0.0
C428 C 0.08161 0.82793 0.46575 0.0
C429 C 0.08002 0.78702 0.42503 0.0
O430 O 0.06703 0.79459 0.43063 0.0
O431 O 0.09357 0.79515 0.42244 0.0
O432 O 0.0365 0.8158 0.43899 0.0
O433 O 0.04561 0.8329 0.41909 0.0
O434 O 0.20651 0.06697 0.43102 0.0
Cd435 Cd 0.18141 0.06086 0.4353 0.0
Cd436 Cd 0.18171 0.09545 0.43228 0.0
O437 O 0.20581 0.09343 0.42259 0.0
O438 O 0.18522 0.0364 0.4392 0.0
O439 O 0.16826 0.04557 0.41919 0.0
C440 C 0.17528 0.03308 0.42687 0.0
C441 C 0.15842 0.10691 0.41885 0.0
C442 C 0.21401 0.07996 0.42534 0.0
C443 C 0.17274 0.08163 0.46577 0.0
O444 O 0.17915 0.09422 0.4582 0.0
O445 O 0.17076 0.06772 0.45807 0.0
O446 O 0.17025 0.11643 0.42477 0.0
O447 O 0.16056 0.09074 0.41936 0.0
O448 O 0.54188 0.90763 0.82183 0.0
Cd449 Cd 0.56736 0.90411 0.81978 0.0
Cd450 Cd 0.5686 0.93973 0.81711 0.0
O451 O 0.54367 0.93532 0.82418 0.0
O452 O 0.57312 0.88321 0.83237 0.0
O453 O 0.58068 0.90884 0.8407 0.0
C454 C 0.57994 0.8928 0.84364 0.0
C455 C 0.5775 0.96726 0.82387 0.0
C456 C 0.53502 0.92181 0.82462 0.0
C457 C 0.57987 0.91699 0.78728 0.0
O458 O 0.57751 0.9315 0.79373 0.0
O459 O 0.57694 0.90371 0.79572 0.0
O460 O 0.56742 0.96418 0.81159 0.0
O461 O 0.5828 0.95465 0.83266 0.0
O462 O 0.09416 0.54335 0.82214 0.0
Cd463 Cd 0.09522 0.56928 0.81968 0.0
Cd464 Cd 0.06062 0.56589 0.81973 0.0
O465 O 0.06768 0.54329 0.83061 0.0
O466 O 0.11616 0.57684 0.83119 0.0
O467 O 0.09044 0.58209 0.84088 0.0
C468 C 0.10661 0.58264 0.84305 0.0
C469 C 0.03262 0.57394 0.82546 0.0
C470 C 0.08165 0.53569 0.8286 0.0
C471 C 0.07992 0.5759 0.78726 0.0
O472 O 0.06696 0.57003 0.79467 0.0
O473 O 0.09325 0.57897 0.79558 0.0
O474 O 0.03626 0.56157 0.81569 0.0
O475 O 0.04491 0.58188 0.83255 0.0
O476 O 0.45764 0.09404 0.82141 0.0
Cd477 Cd 0.43175 0.09609 0.81913 0.0
Cd478 Cd 0.43323 0.06174 0.82011 0.0
O479 O 0.45662 0.06762 0.83 0.0
O480 O 0.42468 0.11704 0.83093 0.0
O481 O 0.41892 0.09129 0.84029 0.0
C482 C 0.41866 0.10744 0.84266 0.0
C483 C 0.42325 0.03486 0.82755 0.0
C484 C 0.46483 0.08119 0.82775 0.0
C485 C 0.42362 0.08042 0.78721 0.0
O486 O 0.42871 0.06731 0.79493 0.0
O487 O 0.42175 0.09419 0.79515 0.0
O488 O 0.43548 0.03697 0.81717 0.0
O489 O 0.41654 0.04807 0.83424 0.0
O490 O 0.90711 0.45779 0.822 0.0
Cd491 Cd 0.90607 0.43187 0.81939 0.0
Cd492 Cd 0.94066 0.43529 0.81949 0.0
O493 O 0.93359 0.45784 0.83047 0.0
O494 O 0.88504 0.42428 0.83072 0.0
O495 O 0.9107 0.41891 0.84053 0.0
C496 C 0.89451 0.41837 0.84259 0.0
C497 C 0.96864 0.42718 0.82521 0.0
C498 C 0.91961 0.46543 0.8285 0.0
C499 C 0.92142 0.42539 0.78697 0.0
O500 O 0.93436 0.43125 0.79441 0.0
O501 O 0.90807 0.42229 0.79525 0.0
O502 O 0.96502 0.43961 0.81551 0.0
O503 O 0.95633 0.41922 0.83225 0.0
O504 O 0.54317 0.09393 0.17995 0.0
Cd505 Cd 0.56908 0.09557 0.18239 0.0
Cd506 Cd 0.56689 0.06109 0.18151 0.0
O507 O 0.54377 0.06751 0.17132 0.0
O508 O 0.57642 0.11657 0.17087 0.0
O509 O 0.58201 0.09088 0.16127 0.0
C510 C 0.58243 0.10705 0.15908 0.0
C511 C 0.57614 0.0338 0.17449 0.0
C512 C 0.5358 0.08124 0.17352 0.0
C513 C 0.57662 0.07979 0.2144 0.0
O514 O 0.57132 0.06677 0.20668 0.0
O515 O 0.57886 0.09349 0.20643 0.0
O516 O 0.56387 0.03642 0.18471 0.0
O517 O 0.5833 0.04672 0.1677 0.0
O518 O 0.90799 0.54397 0.17945 0.0
Cd519 Cd 0.90645 0.56989 0.18174 0.0
Cd520 Cd 0.9412 0.56725 0.18126 0.0
O521 O 0.93445 0.5443 0.17092 0.0
O522 O 0.88532 0.5771 0.17032 0.0
O523 O 0.91091 0.58272 0.16048 0.0
C524 C 0.89471 0.58307 0.15841 0.0
C525 C 0.96905 0.57554 0.17511 0.0
C526 C 0.92064 0.53647 0.17308 0.0
C527 C 0.92205 0.57733 0.21388 0.0
O528 O 0.93508 0.57183 0.20631 0.0
O529 O 0.90847 0.57977 0.20576 0.0
O530 O 0.96565 0.56336 0.18521 0.0
O531 O 0.95659 0.58315 0.16794 0.0
O532 O 0.45855 0.90777 0.17932 0.0
Cd533 Cd 0.43263 0.90595 0.18135 0.0
Cd534 Cd 0.43467 0.94052 0.18059 0.0
O535 O 0.4579 0.93416 0.17062 0.0
O536 O 0.42559 0.88496 0.16958 0.0
O537 O 0.42003 0.91067 0.16001 0.0
C538 C 0.41975 0.8945 0.15772 0.0
C539 C 0.42568 0.96798 0.17384 0.0
C540 C 0.46593 0.9205 0.17296 0.0
C541 C 0.42464 0.9216 0.21331 0.0
O542 O 0.42997 0.93466 0.20567 0.0
O543 O 0.42252 0.90791 0.20528 0.0
O544 O 0.43782 0.96513 0.18415 0.0
O545 O 0.41851 0.9552 0.1668 0.0
O546 O 0.09446 0.45793 0.17991 0.0
Cd547 Cd 0.09574 0.43202 0.18237 0.0
Cd548 Cd 0.06124 0.43479 0.1817 0.0
O549 O 0.06804 0.45769 0.17128 0.0
O550 O 0.11669 0.4245 0.17085 0.0
O551 O 0.09096 0.41921 0.16118 0.0
C552 C 0.10713 0.41867 0.159 0.0
C553 C 0.03368 0.42608 0.17499 0.0
C554 C 0.08188 0.46546 0.17342 0.0
C555 C 0.08 0.42484 0.21449 0.0
O556 O 0.06704 0.43042 0.20686 0.0
O557 O 0.09359 0.42225 0.20642 0.0
O558 O 0.03666 0.43836 0.18509 0.0
O559 O 0.04639 0.4186 0.16815 0.0
O560 O 0.79385 0.57064 0.93407 0.0
Cd561 Cd 0.81895 0.56646 0.94027 0.0
Cd562 Cd 0.81871 0.56956 0.90559 0.0
O563 O 0.79455 0.57914 0.90762 0.0
O564 O 0.81509 0.56234 0.9647 0.0
O565 O 0.83196 0.58252 0.95575 0.0
C566 C 0.82495 0.57469 0.96816 0.0
C567 C 0.84196 0.58301 0.89401 0.0
C568 C 0.78633 0.57631 0.92107 0.0
C569 C 0.82785 0.53611 0.91939 0.0
O570 O 0.82137 0.54365 0.90682 0.0
O571 O 0.82979 0.5438 0.93331 0.0
O572 O 0.8301 0.57706 0.88455 0.0
O573 O 0.83986 0.58254 0.9102 0.0
O574 O 0.79477 0.43121 0.06713 0.0
Cd575 Cd 0.81981 0.43549 0.06084 0.0
Cd576 Cd 0.81966 0.43239 0.09547 0.0
O577 O 0.79558 0.42262 0.09353 0.0
O578 O 0.81575 0.43974 0.03648 0.0
O579 O 0.83272 0.41954 0.04517 0.0
C580 C 0.82559 0.42742 0.03286 0.0
C581 C 0.84307 0.41904 0.10678 0.0
C582 C 0.78732 0.42546 0.08011 0.0
C583 C 0.82857 0.46587 0.0817 0.0
O584 O 0.8221 0.45831 0.09426 0.0
O585 O 0.8306 0.45816 0.0678 0.0
O586 O 0.83126 0.42488 0.11638 0.0
O587 O 0.84083 0.41958 0.09062 0.0
O588 O 0.54389 0.82168 0.0942 0.0
Cd589 Cd 0.56978 0.81933 0.0962 0.0
Cd590 Cd 0.56826 0.82029 0.06191 0.0
O591 O 0.5449 0.83023 0.06778 0.0
O592 O 0.57693 0.83114 0.11712 0.0
O593 O 0.58265 0.84045 0.09134 0.0
C594 C 0.58294 0.84284 0.10749 0.0
C595 C 0.57839 0.82788 0.03513 0.0
C596 C 0.53669 0.82802 0.08136 0.0
C597 C 0.57779 0.78736 0.08053 0.0
O598 O 0.57269 0.79509 0.06743 0.0
O599 O 0.57972 0.79532 0.0943 0.0
O600 O 0.56613 0.81751 0.03711 0.0
O601 O 0.58506 0.83446 0.04842 0.0
O602 O 0.20751 0.57153 0.06668 0.0
Cd603 Cd 0.18239 0.56685 0.06094 0.0
Cd604 Cd 0.18328 0.56928 0.09553 0.0
O605 O 0.20725 0.57925 0.09336 0.0
O606 O 0.18583 0.56334 0.03636 0.0
O607 O 0.16862 0.58286 0.04609 0.0
C608 C 0.17557 0.57548 0.03338 0.0
C609 C 0.15983 0.58246 0.10698 0.0
C610 C 0.21521 0.57697 0.07966 0.0
C611 C 0.17457 0.5359 0.08141 0.0
O612 O 0.18104 0.54336 0.09404 0.0
O613 O 0.17227 0.54378 0.06765 0.0
O614 O 0.1717 0.57663 0.11651 0.0
O615 O 0.16201 0.582 0.0908 0.0
O616 O 0.45828 0.17965 0.0941 0.0
Cd617 Cd 0.43236 0.18215 0.09538 0.0
Cd618 Cd 0.43507 0.18149 0.061 0.0
O619 O 0.45799 0.17104 0.06768 0.0
O620 O 0.42475 0.17052 0.11622 0.0
O621 O 0.41951 0.16104 0.09041 0.0
C622 C 0.41892 0.15875 0.10656 0.0
C623 C 0.42605 0.17468 0.03358 0.0
C624 C 0.46578 0.17317 0.08151 0.0
C625 C 0.42527 0.21431 0.07973 0.0
O626 O 0.43084 0.20668 0.06676 0.0
O627 O 0.42264 0.20623 0.0933 0.0
O628 O 0.4384 0.18475 0.03638 0.0
O629 O 0.41868 0.16793 0.04639 0.0
O630 O 0.20666 0.42957 0.93489 0.0
Cd631 Cd 0.18156 0.43417 0.94076 0.0
Cd632 Cd 0.18227 0.43168 0.9061 0.0
O633 O 0.20628 0.42182 0.90822 0.0
O634 O 0.18515 0.4377 0.96531 0.0
O635 O 0.16795 0.4181 0.9557 0.0
C636 C 0.17495 0.42551 0.96836 0.0
C637 C 0.15901 0.41844 0.89431 0.0
C638 C 0.21431 0.42414 0.92188 0.0
C639 C 0.17354 0.46507 0.92031 0.0
O640 O 0.17992 0.4576 0.90765 0.0
O641 O 0.17135 0.45721 0.9341 0.0
O642 O 0.17093 0.42444 0.88494 0.0
O643 O 0.16103 0.4188 0.9105 0.0
O644 O 0.54338 0.17919 0.90751 0.0
Cd645 Cd 0.56931 0.18124 0.90583 0.0
Cd646 Cd 0.5669 0.18083 0.94051 0.0
O647 O 0.5439 0.17049 0.93391 0.0
O648 O 0.57639 0.16944 0.88487 0.0
O649 O 0.58189 0.15989 0.91059 0.0
C650 C 0.5822 0.15759 0.89443 0.0
C651 C 0.57533 0.1748 0.96833 0.0
C652 C 0.53596 0.17277 0.92018 0.0
C653 C 0.57697 0.21336 0.92125 0.0
O654 O 0.57147 0.20584 0.9343 0.0
O655 O 0.57939 0.2052 0.90769 0.0
O656 O 0.56313 0.18488 0.96495 0.0
O657 O 0.58287 0.16757 0.95588 0.0
O658 O 0.45975 0.82173 0.90791 0.0
Cd659 Cd 0.43428 0.81966 0.9043 0.0
Cd660 Cd 0.43294 0.81692 0.93995 0.0
O661 O 0.45788 0.82402 0.93561 0.0
O662 O 0.42861 0.83218 0.88333 0.0
O663 O 0.4209 0.84057 0.9089 0.0
C664 C 0.42171 0.84347 0.89285 0.0
C665 C 0.424 0.82361 0.96748 0.0
C666 C 0.46656 0.82448 0.92212 0.0
C667 C 0.42174 0.78714 0.91711 0.0
O668 O 0.42404 0.79357 0.93163 0.0
O669 O 0.42472 0.7956 0.90385 0.0
O670 O 0.43409 0.81133 0.96437 0.0
O671 O 0.41871 0.83243 0.95488 0.0
O672 O 0.54866 0.6808 0.92792 0.0
Cd673 Cd 0.57358 0.68563 0.93442 0.0
Cd674 Cd 0.56941 0.64985 0.93216 0.0
O675 O 0.54606 0.65389 0.92159 0.0
O676 O 0.56883 0.70806 0.94427 0.0
O677 O 0.58518 0.70527 0.92212 0.0
C678 C 0.57802 0.71502 0.93297 0.0
C679 C 0.59288 0.63794 0.91947 0.0
C680 C 0.53971 0.66854 0.92274 0.0
C681 C 0.57924 0.66354 0.96495 0.0
O682 O 0.57063 0.65196 0.95801 0.0
O683 O 0.58414 0.67617 0.9564 0.0
O684 O 0.58065 0.62862 0.92495 0.0
O685 O 0.5911 0.65416 0.92011 0.0
O686 O 0.35025 0.57058 0.95659 0.0
Cd687 Cd 0.35264 0.56938 0.93077 0.0
Cd688 Cd 0.31671 0.57249 0.9328 0.0
O689 O 0.32552 0.58316 0.95499 0.0
O690 O 0.37354 0.58132 0.92379 0.0
O691 O 0.3477 0.5909 0.91872 0.0
C692 C 0.36386 0.59323 0.91827 0.0
C693 C 0.28713 0.57542 0.93077 0.0
C694 C 0.33833 0.57871 0.96353 0.0
C695 C 0.3351 0.53917 0.9213 0.0
O696 O 0.32257 0.54782 0.92633 0.0
O697 O 0.34958 0.5459 0.92023 0.0
O698 O 0.29434 0.56655 0.94217 0.0
O699 O 0.29674 0.58331 0.9203 0.0
O700 O 0.4531 0.32191 0.92646 0.0
Cd701 Cd 0.42844 0.31615 0.93306 0.0
Cd702 Cd 0.43167 0.35218 0.93103 0.0
O703 O 0.45514 0.34895 0.9205 0.0
O704 O 0.43434 0.29378 0.94243 0.0
O705 O 0.41748 0.29621 0.92063 0.0
C706 C 0.42536 0.28659 0.9311 0.0
C707 C 0.40814 0.36394 0.91836 0.0
C708 C 0.46179 0.33443 0.92146 0.0
C709 C 0.42239 0.33779 0.96384 0.0
O710 O 0.43043 0.34975 0.95685 0.0
O711 O 0.41795 0.32497 0.95533 0.0
O712 O 0.42017 0.37334 0.9241 0.0
O713 O 0.41013 0.34773 0.91877 0.0
O714 O 0.65144 0.42988 0.95703 0.0
Cd715 Cd 0.64816 0.43129 0.93131 0.0
Cd716 Cd 0.68466 0.42931 0.93212 0.0
O717 O 0.67715 0.41939 0.95513 0.0
O718 O 0.62696 0.41947 0.92506 0.0
O719 O 0.6525 0.40992 0.91869 0.0
C720 C 0.63633 0.40766 0.91883 0.0
C721 C 0.7142 0.42751 0.92881 0.0
C722 C 0.66414 0.42287 0.96382 0.0
C723 C 0.66474 0.46184 0.92067 0.0
O724 O 0.67772 0.45347 0.92496 0.0
O725 O 0.65031 0.45493 0.92084 0.0
O726 O 0.70715 0.43668 0.94007 0.0
O727 O 0.70449 0.41852 0.91936 0.0
O728 O 0.54807 0.32326 0.07556 0.0
Cd729 Cd 0.57234 0.31659 0.06847 0.0
Cd730 Cd 0.56998 0.35303 0.06941 0.0
O731 O 0.5464 0.35063 0.07989 0.0
O732 O 0.56528 0.29413 0.06015 0.0
O733 O 0.58316 0.2967 0.08111 0.0
C734 C 0.57443 0.28702 0.0714 0.0
C735 C 0.59353 0.36493 0.08195 0.0
C736 C 0.53959 0.33614 0.07993 0.0
C737 C 0.57874 0.33732 0.03692 0.0
O738 O 0.57143 0.34986 0.04368 0.0
O739 O 0.58243 0.32439 0.04563 0.0
O740 O 0.58167 0.37427 0.07577 0.0
O741 O 0.59137 0.34875 0.08201 0.0
O742 O 0.65102 0.57073 0.04431 0.0
Cd743 Cd 0.64806 0.56928 0.07007 0.0
Cd744 Cd 0.68447 0.5715 0.06896 0.0
O745 O 0.6767 0.58134 0.046 0.0
O746 O 0.62699 0.58114 0.07668 0.0
O747 O 0.65267 0.59059 0.08268 0.0
C748 C 0.6365 0.59289 0.08281 0.0
C749 C 0.71403 0.57361 0.07203 0.0
C750 C 0.66363 0.57781 0.03741 0.0
C751 C 0.66488 0.53885 0.0806 0.0
O752 O 0.67779 0.54729 0.07621 0.0
O753 O 0.65041 0.54567 0.08051 0.0
O754 O 0.70698 0.56436 0.06083 0.0
O755 O 0.7043 0.58247 0.08158 0.0
O756 O 0.45462 0.67866 0.07648 0.0
Cd757 Cd 0.43022 0.68488 0.06929 0.0
Cd758 Cd 0.43351 0.64867 0.06971 0.0
O759 O 0.45661 0.65135 0.08105 0.0
O760 O 0.43684 0.70721 0.06034 0.0
O761 O 0.41923 0.70492 0.08155 0.0
C762 C 0.4276 0.71447 0.07141 0.0
C763 C 0.40958 0.63673 0.08148 0.0
C764 C 0.46322 0.66593 0.08108 0.0
C765 C 0.42498 0.66454 0.03752 0.0
O766 O 0.43314 0.65239 0.044 0.0
O767 O 0.41999 0.67674 0.04663 0.0
O768 O 0.42158 0.62741 0.07555 0.0
O769 O 0.41174 0.65292 0.08163 0.0
O770 O 0.3506 0.4299 0.0441 0.0
Cd771 Cd 0.35315 0.43136 0.06991 0.0
Cd772 Cd 0.31713 0.42821 0.06806 0.0
O773 O 0.32579 0.4175 0.04584 0.0
O774 O 0.37436 0.41993 0.07681 0.0
O775 O 0.34879 0.40994 0.08238 0.0
C776 C 0.36499 0.40795 0.08272 0.0
C777 C 0.28757 0.42518 0.07025 0.0
C778 C 0.33859 0.42183 0.03723 0.0
C779 C 0.33553 0.46162 0.07926 0.0
O780 O 0.32297 0.45292 0.07438 0.0
O781 O 0.35003 0.45491 0.08025 0.0
O782 O 0.29469 0.43404 0.05879 0.0
O783 O 0.29725 0.41738 0.08072 0.0
O784 O 0.95708 0.5709 0.65131 0.0
Cd785 Cd 0.93137 0.56957 0.64794 0.0
Cd786 Cd 0.93199 0.57148 0.68452 0.0
O787 O 0.95516 0.58113 0.67713 0.0
O788 O 0.92524 0.58137 0.62669 0.0
O789 O 0.91877 0.59098 0.65219 0.0
C790 C 0.91898 0.5932 0.63601 0.0
C791 C 0.92856 0.57331 0.71405 0.0
C792 C 0.96387 0.57774 0.66411 0.0
C793 C 0.92032 0.53911 0.66446 0.0
O794 O 0.92453 0.54743 0.6775 0.0
O795 O 0.92078 0.546 0.65003 0.0
O796 O 0.93972 0.56397 0.70705 0.0
O797 O 0.91929 0.58243 0.70431 0.0
O798 O 0.45339 0.92779 0.68021 0.0
Cd799 Cd 0.42853 0.93441 0.68515 0.0
Cd800 Cd 0.43269 0.93234 0.64929 0.0
O801 O 0.45605 0.92176 0.65323 0.0
O802 O 0.4335 0.94417 0.70758 0.0
O803 O 0.41698 0.92214 0.70483 0.0
C804 C 0.4243 0.9329 0.71458 0.0
C805 C 0.40916 0.9197 0.63744 0.0
C806 C 0.46236 0.92272 0.66792 0.0
C807 C 0.42284 0.96505 0.66317 0.0
O808 O 0.43142 0.95817 0.65153 0.0
O809 O 0.41801 0.95646 0.67579 0.0
O810 O 0.42134 0.9252 0.62809 0.0
O811 O 0.41102 0.92027 0.65365 0.0
O812 O 0.04431 0.43055 0.65101 0.0
Cd813 Cd 0.07003 0.43189 0.64769 0.0
Cd814 Cd 0.06936 0.42985 0.68424 0.0
O815 O 0.04622 0.4202 0.67678 0.0
O816 O 0.07624 0.42005 0.62648 0.0
O817 O 0.08261 0.41049 0.65202 0.0
C818 C 0.08246 0.40823 0.63584 0.0
C819 C 0.07274 0.42795 0.71378 0.0
C820 C 0.03752 0.42364 0.66377 0.0
C821 C 0.08105 0.4623 0.66431 0.0
O822 O 0.07683 0.45392 0.67731 0.0
O823 O 0.08062 0.45546 0.64985 0.0
O824 O 0.06158 0.43729 0.70677 0.0
O825 O 0.08204 0.41886 0.70403 0.0
O826 O 0.5474 0.07613 0.67912 0.0
Cd827 Cd 0.57195 0.06916 0.68505 0.0
Cd828 Cd 0.56839 0.06978 0.64902 0.0
O829 O 0.54534 0.08116 0.6519 0.0
O830 O 0.56576 0.05995 0.70739 0.0
O831 O 0.583 0.08146 0.70503 0.0
C832 C 0.57495 0.07109 0.71462 0.0
C833 C 0.59233 0.08154 0.6371 0.0
C834 C 0.53875 0.08088 0.66648 0.0
C835 C 0.5771 0.03755 0.66458 0.0
O836 O 0.56869 0.04405 0.65261 0.0
O837 O 0.58234 0.04667 0.67666 0.0
O838 O 0.58028 0.07572 0.62776 0.0
O839 O 0.5902 0.08161 0.65329 0.0
O840 O 0.95715 0.43061 0.34997 0.0
Cd841 Cd 0.93134 0.43192 0.35257 0.0
Cd842 Cd 0.93318 0.42884 0.31643 0.0
O843 O 0.9555 0.41831 0.3251 0.0
O844 O 0.92457 0.42043 0.37379 0.0
O845 O 0.91901 0.4104 0.34823 0.0
C846 C 0.91874 0.40841 0.36444 0.0
C847 C 0.93112 0.426 0.28684 0.0
C848 C 0.96407 0.42264 0.33793 0.0
C849 C 0.92166 0.4621 0.33496 0.0
O850 O 0.92655 0.45344 0.32238 0.0
O851 O 0.92084 0.45542 0.34948 0.0
O852 O 0.94246 0.43495 0.29406 0.0
O853 O 0.92072 0.41799 0.29644 0.0
O854 O 0.54867 0.92729 0.32164 0.0
Cd855 Cd 0.57345 0.93362 0.31611 0.0
Cd856 Cd 0.57003 0.93129 0.35199 0.0
O857 O 0.54655 0.92086 0.34856 0.0
O858 O 0.56791 0.94316 0.29371 0.0
O859 O 0.58445 0.92112 0.29623 0.0
C860 C 0.57681 0.93174 0.28657 0.0
C861 C 0.59352 0.91854 0.36375 0.0
C862 C 0.53991 0.92215 0.33405 0.0
C863 C 0.57951 0.96418 0.33796 0.0
O864 O 0.57131 0.95714 0.34977 0.0
O865 O 0.58409 0.95573 0.32514 0.0
O866 O 0.58144 0.9242 0.37315 0.0
O867 O 0.59158 0.91906 0.34755 0.0
O868 O 0.04448 0.57112 0.34998 0.0
Cd869 Cd 0.07022 0.56965 0.35307 0.0
Cd870 Cd 0.06913 0.57206 0.31665 0.0
O871 O 0.04637 0.58226 0.32456 0.0
O872 O 0.07661 0.58125 0.37435 0.0
O873 O 0.08281 0.59106 0.34886 0.0
C874 C 0.08276 0.59316 0.36505 0.0
C875 C 0.07199 0.57421 0.28707 0.0
C876 C 0.03769 0.57852 0.3375 0.0
C877 C 0.08056 0.53925 0.3361 0.0
O878 O 0.07611 0.54775 0.32324 0.0
O879 O 0.08067 0.54606 0.35058 0.0
O880 O 0.0607 0.56513 0.29419 0.0
O881 O 0.08179 0.58285 0.29675 0.0
O882 O 0.45253 0.07459 0.32198 0.0
Cd883 Cd 0.42792 0.06806 0.31595 0.0
Cd884 Cd 0.43085 0.0699 0.35208 0.0
O885 O 0.45438 0.08032 0.34908 0.0
O886 O 0.43405 0.05882 0.29358 0.0
O887 O 0.41712 0.08057 0.29596 0.0
C888 C 0.42513 0.07017 0.28636 0.0
C889 C 0.4074 0.08259 0.36401 0.0
C890 C 0.46114 0.07946 0.3346 0.0
C891 C 0.42158 0.03717 0.33738 0.0
O892 O 0.42948 0.04409 0.34948 0.0
O893 O 0.41733 0.04575 0.32454 0.0
O894 O 0.41941 0.07667 0.37333 0.0
O895 O 0.40937 0.08233 0.3478 0.0
O896 O 0.65124 0.95661 0.5706 0.0
Cd897 Cd 0.64864 0.93081 0.56937 0.0
Cd898 Cd 0.68468 0.9325 0.57227 0.0
O899 O 0.67616 0.95488 0.5828 0.0
O900 O 0.62776 0.92395 0.58141 0.0
O901 O 0.65362 0.91867 0.59083 0.0
C902 C 0.63747 0.91832 0.59325 0.0
C903 C 0.71426 0.93023 0.57492 0.0
C904 C 0.66333 0.96348 0.57854 0.0
C905 C 0.66595 0.92101 0.53911 0.0
O906 O 0.67859 0.92586 0.54771 0.0
O907 O 0.65146 0.92025 0.54586 0.0
O908 O 0.70706 0.94159 0.56599 0.0
O909 O 0.70464 0.91997 0.58307 0.0
O910 O 0.65079 0.04414 0.43025 0.0
Cd911 Cd 0.64809 0.06993 0.43177 0.0
Cd912 Cd 0.68425 0.06829 0.42876 0.0
O913 O 0.67575 0.04594 0.41815 0.0
O914 O 0.62687 0.07674 0.4203 0.0
O915 O 0.65243 0.08249 0.41039 0.0
C916 C 0.63623 0.08275 0.40837 0.0
C917 C 0.71383 0.07057 0.426 0.0
C918 C 0.66292 0.03731 0.42234 0.0
C919 C 0.66559 0.07954 0.46204 0.0
O920 O 0.67822 0.0748 0.45337 0.0
O921 O 0.65107 0.08026 0.45535 0.0
O922 O 0.70666 0.05916 0.4349 0.0
O923 O 0.70418 0.0809 0.41797 0.0
O924 O 0.95729 0.65131 0.43053 0.0
Cd925 Cd 0.93154 0.64826 0.43186 0.0
Cd926 Cd 0.93267 0.6847 0.42955 0.0
O927 O 0.95553 0.67682 0.41955 0.0
O928 O 0.92515 0.62708 0.42007 0.0
O929 O 0.91908 0.65265 0.41041 0.0
C930 C 0.91909 0.63647 0.4082 0.0
C931 C 0.92975 0.71427 0.42751 0.0
C932 C 0.96415 0.66383 0.42326 0.0
C933 C 0.92104 0.66517 0.46226 0.0
O934 O 0.92551 0.67803 0.45379 0.0
O935 O 0.921 0.65069 0.45544 0.0
O936 O 0.94099 0.70715 0.43665 0.0
O937 O 0.92007 0.70461 0.41872 0.0
O938 O 0.35055 0.95742 0.42989 0.0
Cd939 Cd 0.35362 0.93167 0.43129 0.0
Cd940 Cd 0.31719 0.93279 0.42897 0.0
O941 O 0.32511 0.95553 0.41877 0.0
O942 O 0.37481 0.9252 0.41954 0.0
O943 O 0.34922 0.91909 0.40991 0.0
C944 C 0.3654 0.91906 0.40771 0.0
C945 C 0.28759 0.93009 0.42687 0.0
C946 C 0.33805 0.96422 0.42253 0.0
C947 C 0.33671 0.92133 0.46174 0.0
O948 O 0.32384 0.92579 0.45328 0.0
O949 O 0.35117 0.92121 0.45489 0.0
O950 O 0.29479 0.94133 0.43595 0.0
O951 O 0.2972 0.92022 0.41824 0.0
O952 O 0.04425 0.35007 0.43048 0.0
Cd953 Cd 0.07001 0.35303 0.43197 0.0
Cd954 Cd 0.06874 0.31658 0.42959 0.0
O955 O 0.04596 0.32456 0.41949 0.0
O956 O 0.07651 0.37427 0.42034 0.0
O957 O 0.08259 0.34874 0.41058 0.0
C958 C 0.08262 0.36493 0.40846 0.0
C959 C 0.07157 0.287 0.42753 0.0
C960 C 0.03737 0.33758 0.42317 0.0
C961 C 0.08031 0.33602 0.46237 0.0
O962 O 0.07583 0.32319 0.45387 0.0
O963 O 0.08043 0.35051 0.45558 0.0
O964 O 0.06031 0.29416 0.43662 0.0
O965 O 0.08132 0.29664 0.41879 0.0
O966 O 0.35021 0.04477 0.57068 0.0
Cd967 Cd 0.35317 0.07053 0.56922 0.0
Cd968 Cd 0.31677 0.0694 0.57141 0.0
O969 O 0.3245 0.04642 0.58123 0.0
O970 O 0.37428 0.07709 0.58104 0.0
O971 O 0.34864 0.08313 0.59055 0.0
C972 C 0.36481 0.08322 0.59283 0.0
C973 C 0.28723 0.07261 0.57348 0.0
C974 C 0.3376 0.03786 0.57773 0.0
C975 C 0.33637 0.08103 0.53877 0.0
O976 O 0.32347 0.07663 0.54721 0.0
O977 O 0.35084 0.08097 0.5456 0.0
O978 O 0.29424 0.06138 0.56424 0.0
O979 O 0.29699 0.08208 0.58239 0.0
O980 O 0.95693 0.34995 0.57131 0.0
Cd981 Cd 0.93112 0.35253 0.57011 0.0
Cd982 Cd 0.93294 0.31653 0.57329 0.0
O983 O 0.95523 0.32521 0.58386 0.0
O984 O 0.92438 0.37377 0.58156 0.0
O985 O 0.91887 0.34824 0.59168 0.0
C986 C 0.91859 0.36445 0.59363 0.0
C987 C 0.93083 0.28698 0.57644 0.0
C988 C 0.96384 0.33796 0.57938 0.0
C989 C 0.92151 0.3349 0.53995 0.0
O990 O 0.92647 0.32234 0.54861 0.0
O991 O 0.92056 0.34939 0.54667 0.0
O992 O 0.94221 0.2941 0.56747 0.0
O993 O 0.92037 0.29667 0.58425 0.0
O994 O 0.04453 0.65136 0.57135 0.0
Cd995 Cd 0.07033 0.64861 0.57019 0.0
Cd996 Cd 0.0687 0.68479 0.5731 0.0
O997 O 0.04623 0.67632 0.58347 0.0
O998 O 0.0769 0.62736 0.58173 0.0
O999 O 0.08259 0.65289 0.59176 0.0
C1000 C 0.08275 0.63668 0.59376 0.0
C1001 C 0.07094 0.71438 0.57586 0.0
C1002 C 0.03762 0.6635 0.57918 0.0
C1003 C 0.08029 0.66604 0.53999 0.0
O1004 O 0.07546 0.6787 0.54858 0.0
O1005 O 0.08095 0.65154 0.54673 0.0
O1006 O 0.05964 0.7072 0.56683 0.0
O1007 O 0.08119 0.70473 0.584 0.0
O1008 O 0.40746 0.32206 0.04329 0.0
Cd1009 Cd 0.40626 0.31943 0.0692 0.0
Cd1010 Cd 0.44078 0.31988 0.06625 0.0
O1011 O 0.43398 0.3304 0.0434 0.0
O1012 O 0.38527 0.33082 0.07679 0.0
O1013 O 0.41096 0.34053 0.0822 0.0
C1014 C 0.39478 0.34264 0.08275 0.0
C1015 C 0.4684 0.32639 0.07492 0.0
C1016 C 0.42006 0.32843 0.0357 0.0
C1017 C 0.42186 0.28717 0.07614 0.0
O1018 O 0.43485 0.29474 0.07054 0.0
O1019 O 0.40833 0.29532 0.07882 0.0
O1020 O 0.46532 0.31635 0.0626 0.0
O1021 O 0.45575 0.33328 0.08245 0.0
O1022 O 0.70676 0.43454 0.07115 0.0
Cd1023 Cd 0.68162 0.44026 0.06662 0.0
Cd1024 Cd 0.68252 0.40575 0.06905 0.0
O1025 O 0.7065 0.4079 0.079 0.0
O1026 O 0.68502 0.46484 0.06319 0.0
O1027 O 0.66794 0.45502 0.08279 0.0
C1028 C 0.67484 0.46776 0.07542 0.0
C1029 C 0.65906 0.39439 0.08226 0.0
C1030 C 0.71447 0.42158 0.07663 0.0
C1031 C 0.67375 0.41984 0.03568 0.0
O1032 O 0.68026 0.40723 0.04313 0.0
O1033 O 0.67142 0.43359 0.04357 0.0
O1034 O 0.6709 0.38482 0.07644 0.0
O1035 O 0.66128 0.41056 0.08177 0.0
O1036 O 0.59503 0.67941 0.04417 0.0
Cd1037 Cd 0.59646 0.68207 0.07008 0.0
Cd1038 Cd 0.56199 0.68198 0.06736 0.0
O1039 O 0.5685 0.67115 0.04459 0.0
O1040 O 0.61732 0.67037 0.07754 0.0
O1041 O 0.59152 0.66102 0.08305 0.0
C1042 C 0.60767 0.65866 0.08349 0.0
C1043 C 0.53436 0.67588 0.07622 0.0
C1044 C 0.58235 0.67301 0.03675 0.0
C1045 C 0.58128 0.71452 0.07693 0.0
O1046 O 0.56822 0.70708 0.07133 0.0
O1047 O 0.59469 0.70623 0.07971 0.0
O1048 O 0.53749 0.68577 0.06381 0.0
O1049 O 0.54697 0.66891 0.08376 0.0
O1050 O 0.2955 0.56745 0.07015 0.0
Cd1051 Cd 0.32053 0.56107 0.0659 0.0
Cd1052 Cd 0.32042 0.59575 0.06878 0.0
O1053 O 0.29637 0.59389 0.07865 0.0
O1054 O 0.31636 0.53672 0.0617 0.0
O1055 O 0.33339 0.54538 0.08187 0.0
C1056 C 0.3262 0.53308 0.07402 0.0
C1057 C 0.34394 0.60721 0.08184 0.0
C1058 C 0.28808 0.58047 0.07586 0.0
C1059 C 0.32921 0.58172 0.03538 0.0
O1060 O 0.32273 0.59433 0.04286 0.0
O1061 O 0.33131 0.56789 0.04319 0.0
O1062 O 0.33207 0.61674 0.07602 0.0
O1063 O 0.3417 0.59104 0.08149 0.0
O1064 O 0.40687 0.67944 0.95878 0.0
Cd1065 Cd 0.40396 0.68238 0.93331 0.0
Cd1066 Cd 0.44004 0.68564 0.93338 0.0
O1067 O 0.43466 0.67758 0.95783 0.0
O1068 O 0.38294 0.67032 0.92691 0.0
O1069 O 0.40849 0.6618 0.91936 0.0
C1070 C 0.3924 0.65911 0.91983 0.0
C1071 C 0.46823 0.68011 0.9257 0.0
C1072 C 0.42087 0.67659 0.96599 0.0
C1073 C 0.41702 0.7153 0.92196 0.0
O1074 O 0.43154 0.70897 0.92461 0.0
O1075 O 0.40374 0.7067 0.9244 0.0
O1076 O 0.46421 0.69186 0.93609 0.0
O1077 O 0.45619 0.67116 0.91941 0.0
O1078 O 0.29468 0.43363 0.93101 0.0
Cd1079 Cd 0.31978 0.43988 0.93508 0.0
Cd1080 Cd 0.31958 0.40523 0.93206 0.0
O1081 O 0.29541 0.40719 0.92252 0.0
O1082 O 0.31584 0.46429 0.93918 0.0
O1083 O 0.33265 0.45539 0.91895 0.0
C1084 C 0.32563 0.46778 0.92678 0.0
C1085 C 0.34276 0.39368 0.9185 0.0
C1086 C 0.28718 0.42063 0.92537 0.0
C1087 C 0.32877 0.41911 0.96546 0.0
O1088 O 0.3223 0.40651 0.95796 0.0
O1089 O 0.33069 0.43301 0.95773 0.0
O1090 O 0.33096 0.3842 0.92454 0.0
O1091 O 0.34064 0.40986 0.91897 0.0
O1092 O 0.59442 0.32086 0.95769 0.0
Cd1093 Cd 0.59585 0.31849 0.93177 0.0
Cd1094 Cd 0.56115 0.3188 0.93453 0.0
O1095 O 0.56799 0.32949 0.9573 0.0
O1096 O 0.61675 0.3302 0.92438 0.0
O1097 O 0.59098 0.33968 0.91899 0.0
C1098 C 0.60713 0.34198 0.91853 0.0
C1099 C 0.5332 0.32467 0.92639 0.0
C1100 C 0.5818 0.32737 0.96514 0.0
C1101 C 0.58044 0.28624 0.92459 0.0
O1102 O 0.56741 0.29375 0.93018 0.0
O1103 O 0.59394 0.29443 0.92194 0.0
O1104 O 0.53677 0.31475 0.93867 0.0
O1105 O 0.54555 0.33181 0.91859 0.0
O1106 O 0.70582 0.56665 0.92997 0.0
Cd1107 Cd 0.68074 0.56066 0.93454 0.0
Cd1108 Cd 0.68133 0.59538 0.93213 0.0
O1109 O 0.70534 0.59332 0.92221 0.0
O1110 O 0.68441 0.5361 0.93798 0.0
O1111 O 0.66716 0.54571 0.91843 0.0
C1112 C 0.67421 0.53305 0.92579 0.0
C1113 C 0.65801 0.6074 0.91915 0.0
C1114 C 0.71342 0.57969 0.92454 0.0
C1115 C 0.67274 0.58099 0.96551 0.0
O1116 O 0.67909 0.59368 0.95805 0.0
O1117 O 0.67054 0.56723 0.95761 0.0
O1118 O 0.67001 0.61665 0.92516 0.0
O1119 O 0.65997 0.59119 0.91933 0.0
O1120 O 0.04344 0.40724 0.32217 0.0
Cd1121 Cd 0.06936 0.40589 0.31964 0.0
Cd1122 Cd 0.06658 0.44043 0.32003 0.0
O1123 O 0.04371 0.43374 0.33057 0.0
O1124 O 0.07683 0.38493 0.33118 0.0
O1125 O 0.08227 0.41065 0.34078 0.0
C1126 C 0.08276 0.39448 0.34299 0.0
C1127 C 0.07531 0.46805 0.32642 0.0
C1128 C 0.03593 0.41987 0.32855 0.0
C1129 C 0.0764 0.42139 0.28737 0.0
O1130 O 0.07083 0.4344 0.29491 0.0
O1131 O 0.07906 0.40788 0.29554 0.0
O1132 O 0.06298 0.46496 0.3164 0.0
O1133 O 0.08282 0.45542 0.33336 0.0
O1134 O 0.59413 0.04368 0.32229 0.0
Cd1135 Cd 0.59518 0.0696 0.3197 0.0
Cd1136 Cd 0.5606 0.06623 0.31975 0.0
O1137 O 0.56762 0.04363 0.33064 0.0
O1138 O 0.61612 0.07723 0.33116 0.0
O1139 O 0.59039 0.08253 0.34083 0.0
C1140 C 0.60656 0.08311 0.34299 0.0
C1141 C 0.53262 0.07433 0.32549 0.0
C1142 C 0.58159 0.03603 0.32871 0.0
C1143 C 0.57987 0.07619 0.28726 0.0
O1144 O 0.5669 0.07036 0.29468 0.0
O1145 O 0.59322 0.07922 0.29557 0.0
O1146 O 0.53623 0.06195 0.31572 0.0
O1147 O 0.54493 0.08225 0.33257 0.0
O1148 O 0.95843 0.59449 0.32147 0.0
Cd1149 Cd 0.93251 0.59596 0.31906 0.0
Cd1150 Cd 0.9352 0.56131 0.31931 0.0
O1151 O 0.95802 0.56802 0.32996 0.0
O1152 O 0.92513 0.61688 0.33076 0.0
O1153 O 0.91965 0.59111 0.34022 0.0
C1154 C 0.91921 0.60727 0.34252 0.0
C1155 C 0.92684 0.53345 0.32524 0.0
C1156 C 0.96587 0.58183 0.32789 0.0
C1157 C 0.92537 0.58063 0.28676 0.0
O1158 O 0.93092 0.56758 0.29425 0.0
O1159 O 0.92274 0.59412 0.29498 0.0
O1160 O 0.93913 0.53689 0.3153 0.0
O1161 O 0.91915 0.54587 0.33237 0.0
O1162 O 0.40684 0.9578 0.32105 0.0
Cd1163 Cd 0.40577 0.93187 0.31857 0.0
Cd1164 Cd 0.44038 0.93517 0.31868 0.0
O1165 O 0.43329 0.95774 0.32962 0.0
O1166 O 0.38492 0.92426 0.33023 0.0
O1167 O 0.41072 0.9191 0.33975 0.0
C1168 C 0.39457 0.91851 0.34204 0.0
C1169 C 0.46843 0.92725 0.3244 0.0
C1170 C 0.41936 0.96539 0.32759 0.0
C1171 C 0.4211 0.92515 0.28618 0.0
O1172 O 0.43406 0.93099 0.29362 0.0
O1173 O 0.40773 0.92214 0.29447 0.0
O1174 O 0.46472 0.9396 0.31463 0.0
O1175 O 0.45617 0.91925 0.33148 0.0
O1176 O 0.04319 0.59355 0.68005 0.0
Cd1177 Cd 0.0691 0.59515 0.68239 0.0
Cd1178 Cd 0.06682 0.56062 0.68154 0.0
O1179 O 0.04367 0.56711 0.67146 0.0
O1180 O 0.07639 0.61622 0.67094 0.0
O1181 O 0.08198 0.59058 0.6612 0.0
C1182 C 0.08238 0.60677 0.65909 0.0
C1183 C 0.07592 0.53327 0.67453 0.0
C1184 C 0.03575 0.58086 0.67368 0.0
C1185 C 0.07671 0.57936 0.71439 0.0
O1186 O 0.07138 0.56633 0.70669 0.0
O1187 O 0.07894 0.59306 0.70641 0.0
O1188 O 0.06372 0.53597 0.68481 0.0
O1189 O 0.0831 0.54614 0.66768 0.0
O1190 O 0.40667 0.0442 0.67912 0.0
Cd1191 Cd 0.40515 0.07009 0.68185 0.0
Cd1192 Cd 0.43972 0.0674 0.68192 0.0
O1193 O 0.43323 0.04469 0.67095 0.0
O1194 O 0.38424 0.07749 0.67019 0.0
O1195 O 0.41 0.08317 0.66084 0.0
C1196 C 0.39384 0.08355 0.6585 0.0
C1197 C 0.46749 0.07607 0.67617 0.0
C1198 C 0.4194 0.03682 0.67274 0.0
C1199 C 0.42021 0.07688 0.71437 0.0
O1200 O 0.4333 0.07131 0.70698 0.0
O1201 O 0.40682 0.07967 0.70604 0.0
O1202 O 0.46416 0.06365 0.68597 0.0
O1203 O 0.45502 0.08374 0.66909 0.0
O1204 O 0.95821 0.40781 0.6797 0.0
Cd1205 Cd 0.9323 0.40619 0.6821 0.0
Cd1206 Cd 0.93459 0.44074 0.68127 0.0
O1207 O 0.95772 0.43426 0.67115 0.0
O1208 O 0.92502 0.38509 0.67071 0.0
O1209 O 0.91935 0.41069 0.66093 0.0
C1210 C 0.91897 0.3945 0.65886 0.0
C1211 C 0.92548 0.4681 0.67435 0.0
C1212 C 0.96564 0.4205 0.67334 0.0
C1213 C 0.92473 0.42197 0.7141 0.0
O1214 O 0.93006 0.435 0.70642 0.0
O1215 O 0.92249 0.40828 0.70611 0.0
O1216 O 0.93771 0.46538 0.68459 0.0
O1217 O 0.91829 0.45525 0.66749 0.0
O1218 O 0.59502 0.9588 0.6796 0.0
Cd1219 Cd 0.59784 0.93332 0.68256 0.0
Cd1220 Cd 0.56185 0.93341 0.68568 0.0
O1221 O 0.56724 0.95788 0.67768 0.0
O1222 O 0.61879 0.9268 0.67044 0.0
O1223 O 0.59316 0.9194 0.66201 0.0
C1224 C 0.60925 0.91979 0.65925 0.0
C1225 C 0.53374 0.92564 0.67988 0.0
C1226 C 0.58104 0.96603 0.67671 0.0
C1227 C 0.58471 0.92198 0.71544 0.0
O1228 O 0.57022 0.92463 0.70906 0.0
O1229 O 0.59802 0.92441 0.70688 0.0
O1230 O 0.53762 0.93601 0.6917 0.0
O1231 O 0.54588 0.91941 0.67102 0.0
O1232 O 0.29456 0.07106 0.43446 0.0
Cd1233 Cd 0.31975 0.06678 0.44021 0.0
Cd1234 Cd 0.31895 0.06935 0.40569 0.0
O1235 O 0.29488 0.07906 0.40786 0.0
O1236 O 0.31641 0.06336 0.46481 0.0
O1237 O 0.33328 0.08311 0.45492 0.0
C1238 C 0.32647 0.0757 0.46769 0.0
C1239 C 0.34217 0.08274 0.39404 0.0
C1240 C 0.28687 0.07654 0.4215 0.0
C1241 C 0.32804 0.036 0.41973 0.0
O1242 O 0.3215 0.04344 0.40713 0.0
O1243 O 0.33021 0.04386 0.43353 0.0
O1244 O 0.33029 0.07676 0.38461 0.0
O1245 O 0.34011 0.0823 0.41023 0.0
O1246 O 0.29584 0.93028 0.56684 0.0
Cd1247 Cd 0.32088 0.93493 0.56074 0.0
Cd1248 Cd 0.32041 0.93251 0.59547 0.0
O1249 O 0.29641 0.92251 0.5935 0.0
O1250 O 0.317 0.93852 0.53623 0.0
O1251 O 0.33438 0.91896 0.54558 0.0
C1252 C 0.32721 0.92638 0.53302 0.0
C1253 C 0.34383 0.91954 0.60729 0.0
C1254 C 0.28829 0.92483 0.5799 0.0
C1255 C 0.32883 0.96591 0.58108 0.0
O1256 O 0.32254 0.95843 0.59378 0.0
O1257 O 0.33104 0.95802 0.56731 0.0
O1258 O 0.33189 0.9255 0.61664 0.0
O1259 O 0.34176 0.91978 0.5911 0.0
O1260 O 0.0432 0.32175 0.59432 0.0
Cd1261 Cd 0.06911 0.31916 0.59552 0.0
Cd1262 Cd 0.06621 0.31952 0.56107 0.0
O1263 O 0.04338 0.33013 0.56781 0.0
O1264 O 0.07674 0.3308 0.61636 0.0
O1265 O 0.082 0.34026 0.59055 0.0
C1266 C 0.08259 0.34256 0.6067 0.0
C1267 C 0.07502 0.32605 0.53351 0.0
C1268 C 0.03565 0.32816 0.58171 0.0
C1269 C 0.07599 0.28683 0.58005 0.0
O1270 O 0.07038 0.29437 0.56705 0.0
O1271 O 0.07873 0.29502 0.59354 0.0
O1272 O 0.06267 0.31604 0.5365 0.0
O1273 O 0.08253 0.33289 0.5462 0.0
O1274 O 0.70619 0.07038 0.56757 0.0
Cd1275 Cd 0.68115 0.06602 0.56129 0.0
Cd1276 Cd 0.6814 0.06866 0.59599 0.0
O1277 O 0.70544 0.07854 0.59412 0.0
O1278 O 0.68519 0.06207 0.53688 0.0
O1279 O 0.66807 0.08202 0.54582 0.0
C1280 C 0.67523 0.07433 0.53341 0.0
C1281 C 0.65792 0.08172 0.60751 0.0
C1282 C 0.71367 0.07594 0.58063 0.0
C1283 C 0.67263 0.03532 0.58179 0.0
O1284 O 0.67907 0.04275 0.59444 0.0
O1285 O 0.67054 0.04319 0.56799 0.0
O1286 O 0.66979 0.07584 0.61701 0.0
O1287 O 0.66014 0.08141 0.59134 0.0
O1288 O 0.95824 0.67959 0.59413 0.0
Cd1289 Cd 0.93233 0.68214 0.59538 0.0
Cd1290 Cd 0.93518 0.68172 0.56092 0.0
O1291 O 0.95805 0.67118 0.56764 0.0
O1292 O 0.92476 0.67056 0.61627 0.0
O1293 O 0.91944 0.66103 0.5905 0.0
C1294 C 0.91889 0.65877 0.60666 0.0
C1295 C 0.92632 0.67512 0.53338 0.0
C1296 C 0.96579 0.6732 0.58152 0.0
C1297 C 0.9254 0.71443 0.57987 0.0
O1298 O 0.93097 0.70687 0.56687 0.0
O1299 O 0.92269 0.70627 0.59338 0.0
O1300 O 0.93865 0.68516 0.53633 0.0
O1301 O 0.91886 0.66828 0.5461 0.0
O1302 O 0.70673 0.93086 0.43389 0.0
Cd1303 Cd 0.68161 0.935 0.44002 0.0
Cd1304 Cd 0.68197 0.93219 0.40536 0.0
O1305 O 0.70612 0.92262 0.40736 0.0
O1306 O 0.68541 0.93888 0.46448 0.0
O1307 O 0.66855 0.9188 0.45531 0.0
C1308 C 0.67554 0.9265 0.4678 0.0
C1309 C 0.65881 0.91868 0.39369 0.0
C1310 C 0.71429 0.92532 0.42087 0.0
C1311 C 0.67279 0.96554 0.4194 0.0
O1312 O 0.67926 0.95808 0.40676 0.0
O1313 O 0.67083 0.95774 0.43325 0.0
O1314 O 0.67063 0.92476 0.38427 0.0
O1315 O 0.66088 0.91908 0.40988 0.0
O1316 O 0.04353 0.67958 0.40764 0.0
Cd1317 Cd 0.06945 0.68194 0.4062 0.0
Cd1318 Cd 0.06671 0.68157 0.44083 0.0
O1319 O 0.04385 0.67103 0.43409 0.0
O1320 O 0.07682 0.67039 0.38522 0.0
O1321 O 0.0823 0.66076 0.41092 0.0
C1322 C 0.08275 0.65857 0.39475 0.0
C1323 C 0.0751 0.67555 0.46866 0.0
C1324 C 0.03603 0.67316 0.42026 0.0
C1325 C 0.07663 0.71416 0.42165 0.0
O1326 O 0.07105 0.70663 0.43467 0.0
O1327 O 0.07926 0.70599 0.40814 0.0
O1328 O 0.06281 0.68551 0.46527 0.0
O1329 O 0.08276 0.66843 0.4562 0.0
O1330 O 0.95799 0.32202 0.40731 0.0
Cd1331 Cd 0.93206 0.31969 0.40584 0.0
Cd1332 Cd 0.93489 0.31993 0.44054 0.0
O1333 O 0.95767 0.33059 0.43376 0.0
O1334 O 0.92477 0.3312 0.3848 0.0
O1335 O 0.9192 0.34091 0.41045 0.0
C1336 C 0.9188 0.34305 0.39427 0.0
C1337 C 0.92672 0.32564 0.46851 0.0
C1338 C 0.96549 0.32846 0.41994 0.0
C1339 C 0.92491 0.28744 0.42121 0.0
O1340 O 0.93056 0.29491 0.43423 0.0
O1341 O 0.92221 0.29566 0.40774 0.0
O1342 O 0.93902 0.31577 0.46491 0.0
O1343 O 0.91893 0.33285 0.4562 0.0
C1344 C 0.12393 0.13921 0.41327 0.0
C1345 C 0.10947 0.12904 0.41445 0.0
H1346 H 0.15091 0.14014 0.41354 0.0
C1347 C 0.11135 0.11141 0.41383 0.0
H1348 H 0.12293 0.15283 0.41363 0.0
C1349 C 0.12742 0.10412 0.41362 0.0
C1350 C 0.1419 0.11432 0.41422 0.0
H1351 H 0.10045 0.10322 0.41456 0.0
H1352 H 0.12844 0.09052 0.4143 0.0
C1353 C 0.14 0.13193 0.41324 0.0
C1354 C 0.88968 0.11208 0.41441 0.0
C1355 C 0.87205 0.11015 0.41491 0.0
H1356 H 0.91053 0.12921 0.41496 0.0
C1357 C 0.86184 0.12458 0.41365 0.0
H1358 H 0.8979 0.10119 0.41521 0.0
C1359 C 0.86909 0.14066 0.41365 0.0
C1360 C 0.88669 0.14261 0.41471 0.0
H1361 H 0.84822 0.12354 0.41393 0.0
H1362 H 0.86085 0.15156 0.41388 0.0
C1363 C 0.89693 0.12816 0.41421 0.0
C1364 C 0.86101 0.86946 0.41323 0.0
C1365 C 0.85914 0.88707 0.41416 0.0
H1366 H 0.87805 0.84852 0.41365 0.0
C1367 C 0.87364 0.89724 0.41356 0.0
H1368 H 0.85008 0.86127 0.41354 0.0
C1369 C 0.8897 0.88992 0.41378 0.0
C1370 C 0.89155 0.8723 0.41442 0.0
H1371 H 0.87265 0.91085 0.41421 0.0
H1372 H 0.90062 0.8981 0.4145 0.0
C1373 C 0.87707 0.86214 0.41327 0.0
C1374 C 0.13211 0.86092 0.4134 0.0
C1375 C 0.11451 0.85905 0.41446 0.0
H1376 H 0.15305 0.87796 0.41371 0.0
C1377 C 0.10432 0.87355 0.41396 0.0
H1378 H 0.1403 0.84999 0.41364 0.0
C1379 C 0.11164 0.8896 0.41416 0.0
C1380 C 0.12928 0.89145 0.41468 0.0
H1381 H 0.09072 0.87255 0.4147 0.0
H1382 H 0.10347 0.90052 0.41496 0.0
C1383 C 0.13942 0.87698 0.41342 0.0
C1384 C 0.14105 0.86959 0.58851 0.0
C1385 C 0.14305 0.88718 0.58743 0.0
H1386 H 0.12389 0.84876 0.58822 0.0
C1387 C 0.1286 0.89744 0.58787 0.0
H1388 H 0.15193 0.86133 0.58832 0.0
C1389 C 0.1125 0.89022 0.58765 0.0
C1390 C 0.11054 0.8726 0.58718 0.0
H1391 H 0.12969 0.91104 0.58709 0.0
H1392 H 0.10164 0.89846 0.58681 0.0
C1393 C 0.12495 0.86237 0.58848 0.0
C1394 C 0.13185 0.14027 0.58869 0.0
C1395 C 0.11423 0.14204 0.58777 0.0
H1396 H 0.15289 0.12337 0.58829 0.0
C1397 C 0.10414 0.12748 0.58847 0.0
H1398 H 0.13998 0.15125 0.58831 0.0
C1399 C 0.11156 0.11147 0.5883 0.0
C1400 C 0.1292 0.10972 0.58763 0.0
H1401 H 0.09053 0.1284 0.58783 0.0
H1402 H 0.10344 0.1005 0.58764 0.0
C1403 C 0.13927 0.12427 0.58871 0.0
C1404 C 0.8892 0.11108 0.58754 0.0
C1405 C 0.89115 0.12871 0.58712 0.0
H1406 H 0.87203 0.09026 0.58697 0.0
C1407 C 0.87673 0.13892 0.5885 0.0
H1408 H 0.90007 0.10286 0.58663 0.0
C1409 C 0.86064 0.1317 0.58856 0.0
C1410 C 0.85866 0.11411 0.58742 0.0
H1411 H 0.87779 0.15254 0.58828 0.0
H1412 H 0.84975 0.13995 0.58843 0.0
C1413 C 0.87311 0.10385 0.58779 0.0
C1414 C 0.89772 0.87393 0.58798 0.0
C1415 C 0.88759 0.8594 0.58752 0.0
H1416 H 0.8985 0.90089 0.58684 0.0
C1417 C 0.86998 0.86123 0.58853 0.0
H1418 H 0.91133 0.87297 0.58726 0.0
C1419 C 0.86261 0.87726 0.58842 0.0
C1420 C 0.87272 0.89176 0.58711 0.0
H1421 H 0.86182 0.85028 0.58833 0.0
H1422 H 0.84899 0.8782 0.5881 0.0
C1423 C 0.89036 0.88996 0.58768 0.0
C1424 C 0.41314 0.12399 0.13852 0.0
C1425 C 0.4145 0.10962 0.12823 0.0
H1426 H 0.41329 0.15096 0.13967 0.0
C1427 C 0.41408 0.11164 0.11062 0.0
H1428 H 0.41335 0.12287 0.15213 0.0
C1429 C 0.41388 0.12777 0.10346 0.0
C1430 C 0.41429 0.14216 0.11379 0.0
H1431 H 0.41496 0.10081 0.10235 0.0
H1432 H 0.41471 0.1289 0.08988 0.0
C1433 C 0.41313 0.14011 0.13137 0.0
C1434 C 0.89019 0.41433 0.11105 0.0
C1435 C 0.89215 0.41481 0.12867 0.0
H1436 H 0.87301 0.41486 0.09023 0.0
C1437 C 0.87774 0.41346 0.1389 0.0
H1438 H 0.90106 0.41521 0.10281 0.0
C1439 C 0.86164 0.41339 0.13168 0.0
C1440 C 0.85965 0.41449 0.11409 0.0
H1441 H 0.8788 0.41371 0.15251 0.0
H1442 H 0.85076 0.41355 0.13993 0.0
C1443 C 0.8741 0.41408 0.10382 0.0
C1444 C 0.58847 0.87778 0.13933 0.0
C1445 C 0.58734 0.89209 0.12895 0.0
H1446 H 0.58812 0.85081 0.14063 0.0
C1447 C 0.58794 0.88996 0.11135 0.0
H1448 H 0.5881 0.87898 0.15293 0.0
C1449 C 0.58812 0.8738 0.10429 0.0
C1450 C 0.5875 0.85946 0.11469 0.0
H1451 H 0.58723 0.90075 0.10301 0.0
H1452 H 0.58745 0.87259 0.0907 0.0
C1453 C 0.58845 0.86161 0.13227 0.0
C1454 C 0.11273 0.58741 0.11137 0.0
C1455 C 0.11081 0.58685 0.129 0.0
H1456 H 0.12986 0.58688 0.09052 0.0
C1457 C 0.12525 0.58802 0.1392 0.0
H1458 H 0.10184 0.58667 0.10316 0.0
C1459 C 0.14133 0.588 0.13195 0.0
C1460 C 0.14328 0.58701 0.11435 0.0
H1461 H 0.12421 0.58769 0.15282 0.0
H1462 H 0.15223 0.58772 0.14019 0.0
C1463 C 0.12882 0.58758 0.10412 0.0
C1464 C 0.41601 0.89059 0.88947 0.0
C1465 C 0.41664 0.89294 0.87191 0.0
H1466 H 0.41668 0.87297 0.90993 0.0
C1467 C 0.41603 0.87872 0.86135 0.0
H1468 H 0.41635 0.9013 0.89794 0.0
C1469 C 0.41641 0.86248 0.86822 0.0
C1470 C 0.41716 0.86014 0.88578 0.0
H1471 H 0.41647 0.88009 0.84777 0.0
H1472 H 0.41706 0.85178 0.85975 0.0
C1473 C 0.41614 0.87433 0.89635 0.0
C1474 C 0.12483 0.41286 0.86166 0.0
C1475 C 0.11026 0.41384 0.87172 0.0
H1476 H 0.15181 0.41339 0.86098 0.0
C1477 C 0.11201 0.41313 0.88936 0.0
H1478 H 0.12393 0.41331 0.84804 0.0
C1479 C 0.12801 0.41302 0.89679 0.0
C1480 C 0.14258 0.41381 0.88672 0.0
H1481 H 0.10103 0.41371 0.89747 0.0
H1482 H 0.12891 0.41362 0.9104 0.0
C1483 C 0.14083 0.41294 0.86909 0.0
C1484 C 0.58659 0.1104 0.89026 0.0
C1485 C 0.58605 0.10839 0.87264 0.0
H1486 H 0.58622 0.12765 0.91103 0.0
C1487 C 0.58736 0.12277 0.86237 0.0
H1488 H 0.58575 0.09956 0.89853 0.0
C1489 C 0.58749 0.13889 0.86954 0.0
C1490 C 0.58652 0.14094 0.88713 0.0
H1491 H 0.58705 0.12166 0.84876 0.0
H1492 H 0.58732 0.14975 0.86125 0.0
C1493 C 0.58692 0.12652 0.89743 0.0
C1494 C 0.87297 0.58831 0.89671 0.0
C1495 C 0.85846 0.58763 0.88654 0.0
H1496 H 0.89994 0.58745 0.89756 0.0
C1497 C 0.86033 0.58852 0.86893 0.0
H1498 H 0.87198 0.58769 0.91032 0.0
C1499 C 0.87638 0.5885 0.86161 0.0
C1500 C 0.89087 0.58742 0.87176 0.0
H1501 H 0.84939 0.58815 0.86075 0.0
H1502 H 0.87735 0.58808 0.84799 0.0
C1503 C 0.88902 0.58811 0.88938 0.0
C1504 C 0.13936 0.41307 0.12445 0.0
C1505 C 0.12917 0.41447 0.11001 0.0
H1506 H 0.14031 0.41314 0.15143 0.0
C1507 C 0.11155 0.41402 0.1119 0.0
H1508 H 0.15298 0.41331 0.12343 0.0
C1509 C 0.10427 0.41375 0.12797 0.0
C1510 C 0.11449 0.41412 0.14245 0.0
H1511 H 0.10335 0.41492 0.10101 0.0
H1512 H 0.09067 0.41456 0.12901 0.0
C1513 C 0.13208 0.413 0.14052 0.0
C1514 C 0.13159 0.58828 0.86152 0.0
C1515 C 0.11399 0.58717 0.85961 0.0
H1516 H 0.1525 0.58792 0.87858 0.0
C1517 C 0.10379 0.58752 0.8741 0.0
H1518 H 0.1398 0.58816 0.8506 0.0
C1519 C 0.11108 0.58722 0.89016 0.0
C1520 C 0.12872 0.58675 0.89203 0.0
H1521 H 0.09019 0.58672 0.87307 0.0
H1522 H 0.1029 0.5863 0.90105 0.0
C1523 C 0.13888 0.58817 0.87758 0.0
C1524 C 0.41351 0.10431 0.87362 0.0
C1525 C 0.41415 0.11468 0.85927 0.0
H1526 H 0.41441 0.10307 0.90058 0.0
C1527 C 0.41324 0.13227 0.86139 0.0
H1528 H 0.41414 0.09071 0.87244 0.0
C1529 C 0.41325 0.13936 0.87754 0.0
C1530 C 0.41437 0.129 0.89188 0.0
H1531 H 0.41358 0.1406 0.85057 0.0
H1532 H 0.41365 0.15296 0.87872 0.0
C1533 C 0.41371 0.1114 0.88978 0.0
C1534 C 0.86205 0.41285 0.87691 0.0
C1535 C 0.87215 0.41412 0.89142 0.0
H1536 H 0.86127 0.413 0.84993 0.0
C1537 C 0.88978 0.4135 0.88964 0.0
H1538 H 0.84842 0.41321 0.87784 0.0
C1539 C 0.89716 0.41322 0.87361 0.0
C1540 C 0.88703 0.41375 0.85908 0.0
H1541 H 0.89792 0.4143 0.90058 0.0
H1542 H 0.91077 0.41392 0.87266 0.0
C1543 C 0.86942 0.41275 0.86089 0.0
C1544 C 0.58538 0.89643 0.87451 0.0
C1545 C 0.58446 0.88581 0.86036 0.0
H1546 H 0.58506 0.89814 0.90147 0.0
C1547 C 0.58526 0.86826 0.86277 0.0
H1548 H 0.5848 0.91001 0.87309 0.0
C1549 C 0.58559 0.86146 0.87904 0.0
C1550 C 0.58489 0.87207 0.89322 0.0
H1551 H 0.58468 0.85974 0.8521 0.0
H1552 H 0.5852 0.84788 0.88047 0.0
C1553 C 0.58547 0.88963 0.89079 0.0
C1554 C 0.86954 0.58857 0.14017 0.0
C1555 C 0.88716 0.58764 0.14195 0.0
H1556 H 0.84851 0.58823 0.12325 0.0
C1557 C 0.89726 0.58833 0.1274 0.0
H1558 H 0.86141 0.5882 0.15114 0.0
C1559 C 0.88985 0.5882 0.11138 0.0
C1560 C 0.87221 0.58756 0.10961 0.0
H1561 H 0.91087 0.58769 0.12832 0.0
H1562 H 0.89797 0.58754 0.10041 0.0
C1563 C 0.86214 0.58862 0.12416 0.0
C1564 C 0.41508 0.89026 0.11056 0.0
C1565 C 0.41563 0.87265 0.10857 0.0
H1566 H 0.41554 0.91106 0.12778 0.0
C1567 C 0.41444 0.86239 0.12297 0.0
H1568 H 0.41585 0.89852 0.09971 0.0
C1569 C 0.4144 0.86958 0.13908 0.0
C1570 C 0.41536 0.88717 0.1411 0.0
H1571 H 0.41477 0.84878 0.12188 0.0
H1572 H 0.41465 0.86131 0.14995 0.0
C1573 C 0.41485 0.89746 0.12668 0.0
C1574 C 0.58823 0.13929 0.12457 0.0
C1575 C 0.58719 0.12908 0.11012 0.0
H1576 H 0.5877 0.14027 0.15154 0.0
C1577 C 0.5878 0.11146 0.11205 0.0
H1578 H 0.58786 0.1529 0.12353 0.0
C1579 C 0.58787 0.1042 0.12813 0.0
C1580 C 0.58713 0.11444 0.14258 0.0
H1581 H 0.58718 0.10324 0.10116 0.0
H1582 H 0.58719 0.0906 0.12918 0.0
C1583 C 0.5881 0.13204 0.14065 0.0
C1584 C 0.63988 0.63274 0.91404 0.0
C1585 C 0.64157 0.6151 0.91471 0.0
H1586 H 0.62307 0.65385 0.91465 0.0
C1587 C 0.62696 0.6051 0.91386 0.0
H1588 H 0.6509 0.64081 0.91454 0.0
C1589 C 0.61098 0.61259 0.91407 0.0
C1590 C 0.6093 0.63023 0.91495 0.0
H1591 H 0.62781 0.59147 0.91431 0.0
H1592 H 0.59997 0.60452 0.91458 0.0
C1593 C 0.62391 0.64023 0.91407 0.0
C1594 C 0.36759 0.64045 0.91418 0.0
C1595 C 0.38518 0.64263 0.91481 0.0
H1596 H 0.347 0.62301 0.91435 0.0
C1597 C 0.39562 0.62838 0.91338 0.0
H1598 H 0.35921 0.65119 0.91512 0.0
C1599 C 0.38861 0.61218 0.9131 0.0
C1600 C 0.37104 0.60996 0.91405 0.0
H1601 H 0.40921 0.62963 0.91378 0.0
H1602 H 0.39701 0.60141 0.91323 0.0
C1603 C 0.36059 0.62427 0.9137 0.0
C1604 C 0.38978 0.38911 0.91311 0.0
C1605 C 0.39166 0.37149 0.91381 0.0
H1606 H 0.37272 0.41003 0.91363 0.0
C1607 C 0.37717 0.36132 0.9128 0.0
H1608 H 0.4007 0.3973 0.91372 0.0
C1609 C 0.36111 0.36862 0.91286 0.0
C1610 C 0.35924 0.38623 0.91377 0.0
H1611 H 0.37816 0.3477 0.91323 0.0
H1612 H 0.35019 0.36043 0.9133 0.0
C1613 C 0.37372 0.39642 0.913 0.0
C1614 C 0.63198 0.36065 0.91294 0.0
C1615 C 0.6144 0.3586 0.91401 0.0
H1616 H 0.65276 0.37788 0.91324 0.0
C1617 C 0.60408 0.373 0.91358 0.0
H1618 H 0.64028 0.34979 0.91312 0.0
C1619 C 0.61125 0.38912 0.91381 0.0
C1620 C 0.62886 0.39115 0.91429 0.0
H1621 H 0.59049 0.37187 0.91435 0.0
H1622 H 0.60297 0.39996 0.91466 0.0
C1623 C 0.63914 0.37677 0.91297 0.0
C1624 C 0.62442 0.36225 0.08784 0.0
C1625 C 0.61 0.37247 0.08653 0.0
H1626 H 0.6514 0.36122 0.08769 0.0
C1627 C 0.61195 0.39009 0.08701 0.0
H1628 H 0.62337 0.34863 0.08758 0.0
C1629 C 0.62804 0.39732 0.08724 0.0
C1630 C 0.64249 0.38706 0.08679 0.0
H1631 H 0.60108 0.39832 0.08616 0.0
H1632 H 0.62911 0.41092 0.08646 0.0
C1633 C 0.64052 0.36947 0.08788 0.0
C1634 C 0.63952 0.62373 0.08883 0.0
C1635 C 0.62916 0.60941 0.08753 0.0
H1636 H 0.6408 0.65069 0.08875 0.0
C1637 C 0.61156 0.61152 0.08818 0.0
H1638 H 0.65313 0.62255 0.08845 0.0
C1639 C 0.60448 0.62768 0.08852 0.0
C1640 C 0.61487 0.64203 0.08802 0.0
H1641 H 0.60322 0.60073 0.08736 0.0
H1642 H 0.59088 0.62888 0.08784 0.0
C1643 C 0.63245 0.63989 0.08898 0.0
C1644 C 0.36252 0.63217 0.08719 0.0
C1645 C 0.36055 0.61457 0.08621 0.0
H1646 H 0.37966 0.65302 0.08681 0.0
C1647 C 0.37501 0.60432 0.08662 0.0
H1648 H 0.35163 0.64041 0.08701 0.0
C1649 C 0.3911 0.61156 0.08633 0.0
C1650 C 0.39304 0.62918 0.08583 0.0
H1651 H 0.37394 0.59072 0.08591 0.0
H1652 H 0.40197 0.60333 0.08552 0.0
C1653 C 0.37861 0.6394 0.08709 0.0
C1654 C 0.39753 0.37362 0.08811 0.0
C1655 C 0.38735 0.35912 0.08747 0.0
H1656 H 0.39839 0.40059 0.08724 0.0
C1657 C 0.36975 0.36099 0.08848 0.0
H1658 H 0.41114 0.37262 0.08741 0.0
C1659 C 0.36243 0.37704 0.08851 0.0
C1660 C 0.37258 0.39152 0.08735 0.0
H1661 H 0.36156 0.35006 0.08815 0.0
H1662 H 0.34881 0.37802 0.08815 0.0
C1663 C 0.39021 0.38967 0.08796 0.0
C1664 C 0.91312 0.6402 0.63152 0.0
C1665 C 0.91428 0.6422 0.61394 0.0
H1666 H 0.91333 0.62302 0.65234 0.0
C1667 C 0.91386 0.62777 0.60366 0.0
H1668 H 0.91329 0.65108 0.63979 0.0
C1669 C 0.91405 0.61167 0.61087 0.0
C1670 C 0.91447 0.6097 0.62849 0.0
H1671 H 0.91469 0.62886 0.59007 0.0
H1672 H 0.91493 0.60081 0.60262 0.0
C1673 C 0.91312 0.6241 0.63873 0.0
C1674 C 0.36212 0.91431 0.6325 0.0
C1675 C 0.36033 0.91508 0.61487 0.0
H1676 H 0.37906 0.91479 0.65351 0.0
C1677 C 0.37488 0.91429 0.60477 0.0
H1678 H 0.35116 0.91476 0.64063 0.0
C1679 C 0.39091 0.91445 0.61217 0.0
C1680 C 0.39269 0.91522 0.6298 0.0
H1681 H 0.37395 0.91482 0.59115 0.0
H1682 H 0.40187 0.91501 0.60403 0.0
C1683 C 0.37814 0.91429 0.63989 0.0
C1684 C 0.0874 0.38968 0.61076 0.0
C1685 C 0.08699 0.39172 0.62837 0.0
H1686 H 0.08676 0.37242 0.59001 0.0
C1687 C 0.08835 0.37735 0.63865 0.0
H1688 H 0.08651 0.40051 0.60248 0.0
C1689 C 0.08836 0.36122 0.6315 0.0
C1690 C 0.0872 0.35916 0.61393 0.0
H1691 H 0.08815 0.37847 0.65227 0.0
H1692 H 0.0882 0.35038 0.63981 0.0
C1693 C 0.0876 0.37356 0.6036 0.0
C1694 C 0.62331 0.08702 0.63976 0.0
C1695 C 0.60887 0.08586 0.62955 0.0
H1696 H 0.65029 0.08681 0.64074 0.0
C1697 C 0.61079 0.08642 0.61193 0.0
H1698 H 0.62227 0.0867 0.65337 0.0
C1699 C 0.62688 0.08666 0.60467 0.0
C1700 C 0.64134 0.08614 0.6149 0.0
H1701 H 0.5999 0.08569 0.60371 0.0
H1702 H 0.62793 0.08599 0.59107 0.0
C1703 C 0.63939 0.08707 0.6325 0.0
C1704 C 0.9135 0.37404 0.39698 0.0
C1705 C 0.91418 0.35954 0.38681 0.0
H1706 H 0.91428 0.40102 0.39783 0.0
C1707 C 0.91322 0.3614 0.3692 0.0
H1708 H 0.91416 0.37305 0.41059 0.0
C1709 C 0.91315 0.37745 0.36188 0.0
C1710 C 0.91423 0.39194 0.37203 0.0
H1711 H 0.91359 0.35047 0.36102 0.0
H1712 H 0.91353 0.37842 0.34826 0.0
C1713 C 0.91361 0.39009 0.38966 0.0
C1714 C 0.64053 0.91312 0.36856 0.0
C1715 C 0.64236 0.91396 0.38617 0.0
H1716 H 0.62355 0.91353 0.34759 0.0
C1717 C 0.62785 0.91311 0.39631 0.0
H1718 H 0.65148 0.91361 0.36039 0.0
C1719 C 0.61181 0.91321 0.38896 0.0
C1720 C 0.60998 0.91398 0.37133 0.0
H1721 H 0.62881 0.91367 0.40993 0.0
H1722 H 0.60086 0.91376 0.39712 0.0
C1723 C 0.6245 0.91304 0.3612 0.0
C1724 C 0.08848 0.64014 0.36977 0.0
C1725 C 0.08738 0.64205 0.38737 0.0
H1726 H 0.08827 0.62307 0.34886 0.0
C1727 C 0.0879 0.62757 0.39757 0.0
H1728 H 0.08823 0.65106 0.36156 0.0
C1729 C 0.08775 0.6115 0.39028 0.0
C1730 C 0.08728 0.60962 0.37265 0.0
H1731 H 0.08712 0.62859 0.41117 0.0
H1732 H 0.08696 0.6006 0.39847 0.0
C1733 C 0.08853 0.62408 0.36248 0.0
C1734 C 0.37646 0.08831 0.36154 0.0
C1735 C 0.39098 0.0872 0.37164 0.0
H1736 H 0.34948 0.08796 0.36076 0.0
C1737 C 0.38919 0.08786 0.38927 0.0
H1738 H 0.37739 0.08791 0.34791 0.0
C1739 C 0.37316 0.08805 0.39665 0.0
C1740 C 0.35863 0.08738 0.38653 0.0
H1741 H 0.40014 0.08718 0.39741 0.0
H1742 H 0.37222 0.0874 0.41026 0.0
C1743 C 0.36044 0.08831 0.36891 0.0
C1744 C 0.60586 0.91344 0.62853 0.0
C1745 C 0.61637 0.91478 0.64273 0.0
H1746 H 0.60434 0.91339 0.60156 0.0
C1747 C 0.63394 0.91407 0.64047 0.0
H1748 H 0.59227 0.9139 0.62984 0.0
C1749 C 0.64087 0.91362 0.62425 0.0
C1750 C 0.63035 0.91407 0.60999 0.0
H1751 H 0.64238 0.91494 0.65118 0.0
H1752 H 0.65445 0.91422 0.62293 0.0
C1753 C 0.61279 0.91319 0.6123 0.0
C1754 C 0.61102 0.08801 0.39006 0.0
C1755 C 0.62865 0.08744 0.39194 0.0
H1756 H 0.59013 0.0875 0.37297 0.0
C1757 C 0.63883 0.08874 0.37749 0.0
H1758 H 0.60283 0.08718 0.40096 0.0
C1759 C 0.63154 0.08881 0.36142 0.0
C1760 C 0.61394 0.08775 0.35951 0.0
H1761 H 0.65245 0.08843 0.37849 0.0
H1762 H 0.63975 0.08858 0.35051 0.0
C1763 C 0.60373 0.08825 0.37399 0.0
C1764 C 0.91353 0.63213 0.36114 0.0
C1765 C 0.91459 0.61454 0.3591 0.0
H1766 H 0.91374 0.6529 0.37837 0.0
C1767 C 0.91403 0.60423 0.3735 0.0
H1768 H 0.91382 0.64042 0.35029 0.0
C1769 C 0.91415 0.6114 0.38963 0.0
C1770 C 0.91464 0.62901 0.39165 0.0
H1771 H 0.91478 0.59064 0.37238 0.0
H1772 H 0.91489 0.60312 0.40047 0.0
C1773 C 0.91346 0.63929 0.37726 0.0
C1774 C 0.39765 0.91364 0.37307 0.0
C1775 C 0.38733 0.914 0.35866 0.0
H1776 H 0.39877 0.91485 0.40002 0.0
C1777 C 0.36974 0.9129 0.36072 0.0
H1778 H 0.41124 0.91442 0.37193 0.0
C1779 C 0.36259 0.91302 0.37685 0.0
C1780 C 0.37287 0.91442 0.39121 0.0
H1781 H 0.36144 0.91303 0.34987 0.0
H1782 H 0.34897 0.91328 0.37796 0.0
C1783 C 0.39049 0.91394 0.38919 0.0
C1784 C 0.08844 0.36953 0.36147 0.0
C1785 C 0.08737 0.38713 0.35953 0.0
H1786 H 0.08815 0.34866 0.37858 0.0
C1787 C 0.0879 0.39736 0.37399 0.0
H1788 H 0.08819 0.3613 0.35057 0.0
C1789 C 0.08771 0.3901 0.39007 0.0
C1790 C 0.08719 0.37248 0.39199 0.0
H1791 H 0.08715 0.41096 0.37294 0.0
H1792 H 0.08692 0.39831 0.40095 0.0
C1793 C 0.08844 0.36228 0.37755 0.0
C1794 C 0.3898 0.0885 0.6114 0.0
C1795 C 0.3722 0.08786 0.60935 0.0
H1796 H 0.41053 0.08808 0.62869 0.0
C1797 C 0.36187 0.08906 0.6237 0.0
H1798 H 0.39811 0.08775 0.60058 0.0
C1799 C 0.369 0.08912 0.63984 0.0
C1800 C 0.38659 0.08816 0.64192 0.0
H1801 H 0.34826 0.08868 0.62256 0.0
H1802 H 0.36068 0.08882 0.65067 0.0
C1803 C 0.39693 0.08875 0.62754 0.0
C1804 C 0.91317 0.36198 0.62462 0.0
C1805 C 0.91414 0.37208 0.61009 0.0
H1806 H 0.91378 0.36121 0.65159 0.0
C1807 C 0.91347 0.38971 0.61188 0.0
H1808 H 0.91358 0.34836 0.62369 0.0
C1809 C 0.91344 0.39709 0.6279 0.0
C1810 C 0.91425 0.38698 0.64243 0.0
H1811 H 0.91405 0.39785 0.60092 0.0
H1812 H 0.91407 0.41071 0.62884 0.0
C1813 C 0.91332 0.36936 0.64064 0.0
C1814 C 0.08804 0.63186 0.64079 0.0
C1815 C 0.08706 0.61425 0.64263 0.0
H1816 H 0.08782 0.65282 0.62379 0.0
C1817 C 0.0878 0.60409 0.62812 0.0
H1818 H 0.08763 0.64003 0.65173 0.0
C1819 C 0.08776 0.61144 0.61208 0.0
C1820 C 0.08716 0.62907 0.61025 0.0
H1821 H 0.08713 0.59048 0.62909 0.0
H1822 H 0.08714 0.60328 0.60114 0.0
C1823 C 0.08818 0.6392 0.62475 0.0
C1824 C 0.06497 0.24204 0.44113 0.0
C1825 C 0.07515 0.23287 0.42992 0.0
H1826 H 0.05589 0.26594 0.44906 0.0
C1827 C 0.0846 0.2417 0.41775 0.0
H1828 H 0.05752 0.23575 0.4507 0.0
C1829 C 0.08369 0.25941 0.41683 0.0
C1830 C 0.07322 0.26841 0.42798 0.0
H1831 H 0.09255 0.23495 0.40893 0.0
H1832 H 0.091 0.26599 0.40736 0.0
C1833 C 0.06398 0.25947 0.44014 0.0
C1834 C 0.75908 0.06118 0.43677 0.0
C1835 C 0.768 0.07367 0.42796 0.0
H1836 H 0.73536 0.05036 0.44284 0.0
C1837 C 0.75899 0.0851 0.4178 0.0
H1838 H 0.76556 0.05203 0.44458 0.0
C1839 C 0.74129 0.08417 0.41683 0.0
C1840 C 0.73247 0.0717 0.42589 0.0
H1841 H 0.76557 0.09483 0.41083 0.0
H1842 H 0.73453 0.09323 0.40916 0.0
C1843 C 0.74165 0.06018 0.43571 0.0
C1844 C 0.9362 0.75926 0.44112 0.0
C1845 C 0.92604 0.76839 0.42986 0.0
H1846 H 0.9453 0.73538 0.44909 0.0
C1847 C 0.91664 0.75954 0.41767 0.0
H1848 H 0.9436 0.76557 0.45071 0.0
C1849 C 0.91759 0.74183 0.41677 0.0
C1850 C 0.92805 0.73285 0.42795 0.0
H1851 H 0.90871 0.76626 0.40881 0.0
H1852 H 0.91033 0.73522 0.40727 0.0
C1853 C 0.93722 0.74182 0.44015 0.0
C1854 C 0.24252 0.93768 0.43964 0.0
C1855 C 0.23343 0.92668 0.42916 0.0
H1856 H 0.26637 0.94737 0.447 0.0
C1857 C 0.24232 0.91655 0.41761 0.0
H1858 H 0.23618 0.94573 0.44867 0.0
C1859 C 0.26003 0.91746 0.41667 0.0
C1860 C 0.26898 0.92863 0.42718 0.0
H1861 H 0.23563 0.90797 0.40935 0.0
H1862 H 0.26666 0.90954 0.40774 0.0
C1863 C 0.25996 0.93867 0.43863 0.0
C1864 C 0.06053 0.74219 0.56619 0.0
C1865 C 0.07205 0.73302 0.57601 0.0
H1866 H 0.05237 0.76611 0.55735 0.0
C1867 C 0.08449 0.74183 0.58512 0.0
H1868 H 0.05074 0.73591 0.55903 0.0
C1869 C 0.0854 0.75954 0.58418 0.0
C1870 C 0.07398 0.76855 0.57402 0.0
H1871 H 0.09354 0.73508 0.5928 0.0
H1872 H 0.09511 0.76611 0.59119 0.0
C1873 C 0.06151 0.75963 0.56517 0.0
C1874 C 0.24199 0.08522 0.58401 0.0
C1875 C 0.23313 0.07656 0.57127 0.0
H1876 H 0.2663 0.09087 0.59479 0.0
C1877 C 0.24229 0.06726 0.55931 0.0
H1878 H 0.23525 0.09249 0.5934 0.0
C1879 C 0.25973 0.06622 0.56019 0.0
C1880 C 0.26868 0.07454 0.57299 0.0
H1881 H 0.23598 0.06049 0.54927 0.0
H1882 H 0.26619 0.05878 0.55073 0.0
C1883 C 0.2597 0.08427 0.58482 0.0
C1884 C 0.91684 0.25959 0.58519 0.0
C1885 C 0.92987 0.26834 0.57688 0.0
H1886 H 0.90574 0.23535 0.59055 0.0
C1887 C 0.94209 0.25909 0.56801 0.0
H1888 H 0.90725 0.26639 0.59213 0.0
C1889 C 0.94114 0.24166 0.567 0.0
C1890 C 0.92801 0.23281 0.57491 0.0
H1891 H 0.95238 0.26533 0.56155 0.0
H1892 H 0.9508 0.23511 0.55988 0.0
C1893 C 0.91596 0.24188 0.58427 0.0
C1894 C 0.75948 0.91613 0.5836 0.0
C1895 C 0.76844 0.92718 0.57299 0.0
H1896 H 0.73506 0.90829 0.59259 0.0
C1897 C 0.75946 0.93919 0.56359 0.0
H1898 H 0.7661 0.90678 0.59103 0.0
C1899 C 0.74202 0.94014 0.56458 0.0
C1900 C 0.7329 0.92905 0.57494 0.0
H1901 H 0.76589 0.94801 0.55537 0.0
H1902 H 0.73569 0.94959 0.55701 0.0
C1903 C 0.74177 0.91701 0.58451 0.0
C1904 C 0.43452 0.05941 0.25858 0.0
C1905 C 0.42495 0.07117 0.26771 0.0
H1906 H 0.4432 0.05099 0.23469 0.0
C1907 C 0.41608 0.08374 0.25885 0.0
H1908 H 0.44148 0.0495 0.2649 0.0
C1909 C 0.41704 0.08457 0.24114 0.0
C1910 C 0.42699 0.07292 0.23217 0.0
H1911 H 0.40859 0.09298 0.26557 0.0
H1912 H 0.41024 0.09441 0.23453 0.0
C1913 C 0.43556 0.0603 0.24114 0.0
C1914 C 0.941 0.43643 0.24162 0.0
C1915 C 0.92834 0.4279 0.23266 0.0
H1916 H 0.95184 0.44229 0.26538 0.0
C1917 C 0.91668 0.41797 0.24162 0.0
H1918 H 0.95033 0.44405 0.23518 0.0
C1919 C 0.91752 0.41699 0.25933 0.0
C1920 C 0.93012 0.42582 0.26819 0.0
H1921 H 0.90683 0.41121 0.23501 0.0
H1922 H 0.90826 0.40953 0.26605 0.0
C1923 C 0.9419 0.43537 0.25906 0.0
C1924 C 0.58541 0.91774 0.25913 0.0
C1925 C 0.57733 0.93089 0.26792 0.0
H1926 H 0.59056 0.90661 0.23487 0.0
C1927 C 0.56872 0.94331 0.25871 0.0
H1928 H 0.59215 0.90799 0.26591 0.0
C1929 C 0.5677 0.94244 0.24127 0.0
C1930 C 0.57534 0.92918 0.23239 0.0
H1931 H 0.56244 0.95371 0.26497 0.0
H1932 H 0.56076 0.95224 0.23475 0.0
C1933 C 0.58448 0.91693 0.24142 0.0
C1934 C 0.06502 0.56114 0.242 0.0
C1935 C 0.07563 0.57204 0.23294 0.0
H1936 H 0.05559 0.5534 0.26582 0.0
C1937 C 0.08539 0.58389 0.24186 0.0
H1938 H 0.0573 0.55184 0.23563 0.0
C1939 C 0.08444 0.58475 0.25957 0.0
C1940 C 0.0736 0.57388 0.26848 0.0
H1941 H 0.09367 0.59246 0.23519 0.0
H1942 H 0.09203 0.59395 0.26622 0.0
C1943 C 0.06399 0.56208 0.25944 0.0
C1944 C 0.43083 0.94517 0.7599 0.0
C1945 C 0.42423 0.93136 0.76876 0.0
H1946 H 0.43573 0.95653 0.73615 0.0
C1947 C 0.41634 0.91829 0.7597 0.0
H1948 H 0.43675 0.9556 0.76646 0.0
C1949 C 0.41579 0.91881 0.74197 0.0
C1950 C 0.42303 0.93244 0.73319 0.0
H1951 H 0.41109 0.90752 0.76625 0.0
H1952 H 0.41014 0.9084 0.73516 0.0
C1953 C 0.43021 0.94573 0.74242 0.0
C1954 C 0.08529 0.41738 0.75902 0.0
C1955 C 0.07681 0.43024 0.76786 0.0
H1956 H 0.09077 0.40647 0.73473 0.0
C1957 C 0.06767 0.44232 0.75869 0.0
H1958 H 0.09244 0.4079 0.76577 0.0
C1959 C 0.06662 0.44142 0.74125 0.0
C1960 C 0.07474 0.42848 0.73232 0.0
H1961 H 0.06104 0.45247 0.76499 0.0
H1962 H 0.0593 0.45097 0.73477 0.0
C1963 C 0.08432 0.41655 0.74131 0.0
C1964 C 0.56662 0.05945 0.74236 0.0
C1965 C 0.57546 0.0718 0.73326 0.0
H1966 H 0.55865 0.05035 0.76624 0.0
C1967 C 0.58386 0.08466 0.74217 0.0
H1968 H 0.5601 0.04927 0.736 0.0
C1969 C 0.58306 0.08525 0.7599 0.0
C1970 C 0.57374 0.07306 0.76882 0.0
H1971 H 0.59079 0.09434 0.73547 0.0
H1972 H 0.58941 0.09534 0.76655 0.0
C1973 C 0.56574 0.0601 0.75981 0.0
C1974 C 0.9346 0.55975 0.7415 0.0
C1975 C 0.92653 0.57274 0.73259 0.0
H1976 H 0.94012 0.54865 0.76523 0.0
C1977 C 0.91699 0.58469 0.7416 0.0
H1978 H 0.94189 0.55019 0.73501 0.0
C1979 C 0.916 0.58383 0.7593 0.0
C1980 C 0.92444 0.57093 0.76812 0.0
H1981 H 0.91058 0.5948 0.73503 0.0
H1982 H 0.90889 0.59333 0.76606 0.0
C1983 C 0.93353 0.55884 0.75894 0.0
C1984 C 0.24225 0.43505 0.06026 0.0
C1985 C 0.2334 0.42691 0.07323 0.0
H1986 H 0.26593 0.44065 0.04909 0.0
C1987 C 0.24246 0.41732 0.08511 0.0
H1988 H 0.23572 0.44237 0.05075 0.0
C1989 C 0.26017 0.41637 0.08419 0.0
C1990 C 0.26893 0.42486 0.07129 0.0
H1991 H 0.23593 0.41086 0.09522 0.0
H1992 H 0.26696 0.40922 0.09363 0.0
C1993 C 0.25969 0.434 0.05927 0.0
C1994 C 0.24192 0.58349 0.91631 0.0
C1995 C 0.23294 0.57361 0.92801 0.0
H1996 H 0.26636 0.59185 0.90786 0.0
C1997 C 0.2419 0.56512 0.9407 0.0
H1998 H 0.23532 0.59022 0.90643 0.0
C1999 C 0.25934 0.56617 0.94161 0.0
C2000 C 0.26848 0.57565 0.92979 0.0
H2001 H 0.23543 0.55755 0.95006 0.0
H2002 H 0.26565 0.55927 0.95157 0.0
C2003 C 0.25963 0.58444 0.91715 0.0
C2004 C 0.43522 0.24134 0.94138 0.0
C2005 C 0.42707 0.23241 0.92846 0.0
H2006 H 0.44083 0.26508 0.95239 0.0
C2007 C 0.41746 0.24139 0.91654 0.0
H2008 H 0.44255 0.23486 0.95092 0.0
C2009 C 0.41651 0.2591 0.91736 0.0
C2010 C 0.42503 0.26794 0.93019 0.0
H2011 H 0.41099 0.2348 0.90648 0.0
H2012 H 0.40935 0.26584 0.90788 0.0
C2013 C 0.43418 0.25878 0.94226 0.0
C2014 C 0.75951 0.41732 0.91615 0.0
C2015 C 0.76827 0.43013 0.92478 0.0
H2016 H 0.73527 0.40634 0.91054 0.0
C2017 C 0.75904 0.44203 0.93408 0.0
H2018 H 0.76631 0.40797 0.90888 0.0
C2019 C 0.7416 0.44102 0.93513 0.0
C2020 C 0.73275 0.42814 0.92684 0.0
H2021 H 0.76527 0.45214 0.94083 0.0
H2022 H 0.73507 0.45044 0.94256 0.0
C2023 C 0.7418 0.41637 0.91711 0.0
C2024 C 0.58553 0.76017 0.91825 0.0
C2025 C 0.57818 0.76918 0.93165 0.0
H2026 H 0.59128 0.73566 0.90803 0.0
C2027 C 0.57226 0.76029 0.94575 0.0
H2028 H 0.59026 0.76675 0.90726 0.0
C2029 C 0.57292 0.74281 0.94623 0.0
C2030 C 0.57946 0.73362 0.9326 0.0
H2031 H 0.56679 0.76683 0.95643 0.0
H2032 H 0.56789 0.7365 0.95726 0.0
C2033 C 0.58613 0.74243 0.9187 0.0
C2034 C 0.7416 0.56076 0.06506 0.0
C2035 C 0.7326 0.57321 0.07383 0.0
H2036 H 0.76539 0.5501 0.05898 0.0
C2037 C 0.74154 0.58475 0.08394 0.0
H2038 H 0.73518 0.55153 0.05729 0.0
C2039 C 0.75925 0.58395 0.08488 0.0
C2040 C 0.76815 0.57152 0.07585 0.0
H2041 H 0.7349 0.59445 0.09089 0.0
H2042 H 0.76595 0.59309 0.09251 0.0
C2043 C 0.75904 0.55989 0.06609 0.0
C2044 C 0.43735 0.74219 0.06083 0.0
C2045 C 0.42737 0.73312 0.0723 0.0
H2046 H 0.44608 0.76603 0.05238 0.0
C2047 C 0.41793 0.74206 0.08439 0.0
H2048 H 0.44477 0.73581 0.05129 0.0
C2049 C 0.41866 0.75978 0.08499 0.0
C2050 C 0.42893 0.7687 0.07358 0.0
H2051 H 0.41012 0.73539 0.0934 0.0
H2052 H 0.41137 0.76646 0.09442 0.0
C2053 C 0.43814 0.75964 0.06149 0.0
C2054 C 0.58425 0.24179 0.08464 0.0
C2055 C 0.57225 0.23289 0.07505 0.0
H2056 H 0.59443 0.26614 0.09114 0.0
C2057 C 0.56116 0.24197 0.06465 0.0
H2058 H 0.59296 0.23511 0.09276 0.0
C2059 C 0.56209 0.25941 0.06363 0.0
C2060 C 0.57406 0.26843 0.07304 0.0
H2061 H 0.55174 0.23562 0.05707 0.0
H2062 H 0.55327 0.26581 0.05539 0.0
C2063 C 0.5851 0.2595 0.0837 0.0
C2064 C 0.91209 0.75976 0.58919 0.0
C2065 C 0.92272 0.76872 0.57815 0.0
H2066 H 0.90478 0.73538 0.59873 0.0
C2067 C 0.93388 0.75966 0.56781 0.0
H2068 H 0.90334 0.76643 0.59728 0.0
C2069 C 0.93436 0.74212 0.5683 0.0
C2070 C 0.92397 0.73307 0.57942 0.0
H2071 H 0.94214 0.76612 0.55905 0.0
H2072 H 0.94315 0.73564 0.56008 0.0
C2073 C 0.91291 0.74204 0.59002 0.0
C2074 C 0.24299 0.91148 0.58939 0.0
C2075 C 0.23402 0.92174 0.578 0.0
H2076 H 0.26737 0.9046 0.59926 0.0
C2077 C 0.24307 0.93258 0.56732 0.0
H2078 H 0.23632 0.90299 0.59774 0.0
C2079 C 0.2606 0.93315 0.56786 0.0
C2080 C 0.26966 0.92319 0.57936 0.0
H2081 H 0.2366 0.94053 0.55829 0.0
H2082 H 0.26706 0.94171 0.55938 0.0
C2083 C 0.2607 0.9124 0.59025 0.0
C2084 C 0.08946 0.24154 0.58927 0.0
C2085 C 0.07877 0.23255 0.57832 0.0
H2086 H 0.0968 0.26593 0.59876 0.0
C2087 C 0.06748 0.24158 0.56808 0.0
H2088 H 0.0983 0.23489 0.59728 0.0
C2089 C 0.06696 0.25912 0.56858 0.0
C2090 C 0.07743 0.26819 0.57962 0.0
H2091 H 0.05917 0.2351 0.55938 0.0
H2092 H 0.05809 0.26558 0.56044 0.0
C2093 C 0.0886 0.25925 0.59011 0.0
C2094 C 0.75894 0.06759 0.56872 0.0
C2095 C 0.76792 0.07902 0.57882 0.0
H2096 H 0.73499 0.05798 0.56121 0.0
C2097 C 0.75889 0.08974 0.58972 0.0
H2098 H 0.76545 0.05925 0.56007 0.0
C2099 C 0.74118 0.08877 0.59062 0.0
C2100 C 0.73229 0.07746 0.58022 0.0
H2101 H 0.76551 0.0987 0.59764 0.0
H2102 H 0.73446 0.097 0.5992 0.0
C2103 C 0.74141 0.06696 0.56927 0.0
C2104 C 0.93352 0.2422 0.43295 0.0
C2105 C 0.92187 0.23321 0.4231 0.0
H2106 H 0.9433 0.26614 0.44023 0.0
C2107 C 0.91095 0.24223 0.41239 0.0
H2108 H 0.94202 0.2357 0.44145 0.0
C2109 C 0.91191 0.25993 0.41145 0.0
C2110 C 0.92343 0.26882 0.42161 0.0
H2111 H 0.90182 0.23562 0.40467 0.0
H2112 H 0.90352 0.26665 0.40303 0.0
C2113 C 0.93416 0.25972 0.43236 0.0
C2114 C 0.74188 0.91258 0.41101 0.0
C2115 C 0.73291 0.92388 0.42135 0.0
H2116 H 0.76624 0.90271 0.40409 0.0
C2117 C 0.74196 0.93444 0.43232 0.0
H2118 H 0.73521 0.90432 0.40241 0.0
C2119 C 0.75949 0.93385 0.43293 0.0
C2120 C 0.76854 0.92242 0.42288 0.0
H2121 H 0.73548 0.94341 0.44034 0.0
H2122 H 0.76595 0.94222 0.44159 0.0
C2123 C 0.75958 0.91166 0.41196 0.0
C2124 C 0.06823 0.75936 0.43374 0.0
C2125 C 0.07949 0.7684 0.42349 0.0
H2126 H 0.05883 0.73538 0.44135 0.0
C2127 C 0.09015 0.75944 0.41248 0.0
H2128 H 0.05995 0.76583 0.44248 0.0
C2129 C 0.08927 0.74173 0.4116 0.0
C2130 C 0.07811 0.73278 0.42211 0.0
H2131 H 0.09897 0.7661 0.40446 0.0
H2132 H 0.09742 0.73505 0.40291 0.0
C2133 C 0.06769 0.74184 0.43319 0.0
C2134 C 0.24151 0.08989 0.41246 0.0
C2135 C 0.23263 0.07951 0.4238 0.0
H2136 H 0.2658 0.0969 0.40249 0.0
C2137 C 0.24176 0.06856 0.43429 0.0
H2138 H 0.23477 0.09847 0.40424 0.0
C2139 C 0.25929 0.068 0.43363 0.0
C2140 C 0.26825 0.0781 0.42217 0.0
H2141 H 0.23535 0.06051 0.44329 0.0
H2142 H 0.26582 0.05936 0.44196 0.0
C2143 C 0.25921 0.08899 0.41146 0.0
C2144 C 0.59652 0.92792 0.74398 0.0
C2145 C 0.58588 0.91822 0.73364 0.0
H2146 H 0.60273 0.93534 0.76928 0.0
C2147 C 0.57476 0.90667 0.74115 0.0
H2148 H 0.60504 0.93708 0.73847 0.0
C2149 C 0.57389 0.90526 0.75873 0.0
C2150 C 0.58364 0.91584 0.76908 0.0
H2151 H 0.56635 0.89916 0.73344 0.0
H2152 H 0.56473 0.89673 0.76423 0.0
C2153 C 0.59518 0.92697 0.76156 0.0
C2154 C 0.06873 0.56681 0.74196 0.0
C2155 C 0.07836 0.57867 0.733 0.0
H2156 H 0.06151 0.55695 0.76589 0.0
C2157 C 0.08877 0.58985 0.74206 0.0
H2158 H 0.06047 0.5581 0.73542 0.0
C2159 C 0.0896 0.58896 0.75977 0.0
C2160 C 0.07964 0.57726 0.76863 0.0
H2161 H 0.09631 0.59914 0.73548 0.0
H2162 H 0.09778 0.59758 0.76652 0.0
C2163 C 0.06921 0.56625 0.75949 0.0
C2164 C 0.41066 0.09005 0.74185 0.0
C2165 C 0.42043 0.07818 0.733 0.0
H2166 H 0.40421 0.10041 0.76614 0.0
C2167 C 0.43071 0.06703 0.74213 0.0
H2168 H 0.40261 0.09878 0.7351 0.0
C2169 C 0.43126 0.06764 0.75966 0.0
C2170 C 0.42186 0.07969 0.76861 0.0
H2171 H 0.43826 0.05762 0.73571 0.0
H2172 H 0.43942 0.05883 0.76618 0.0
C2173 C 0.41158 0.09098 0.75956 0.0
C2174 C 0.9327 0.43449 0.74169 0.0
C2175 C 0.92306 0.42265 0.73271 0.0
H2176 H 0.9399 0.44432 0.76565 0.0
C2177 C 0.91263 0.41148 0.74175 0.0
H2178 H 0.94099 0.44318 0.73518 0.0
C2179 C 0.91176 0.41236 0.75945 0.0
C2180 C 0.92173 0.42405 0.76834 0.0
H2181 H 0.90508 0.40221 0.73514 0.0
H2182 H 0.90356 0.40376 0.76618 0.0
C2183 C 0.93219 0.43505 0.75922 0.0
C2184 C 0.56856 0.06727 0.24195 0.0
C2185 C 0.57825 0.07909 0.23301 0.0
H2186 H 0.56131 0.0574 0.26588 0.0
C2187 C 0.58873 0.09019 0.24208 0.0
H2188 H 0.56024 0.05862 0.23541 0.0
C2189 C 0.58958 0.08926 0.25979 0.0
C2190 C 0.57956 0.07759 0.26864 0.0
H2191 H 0.59632 0.09944 0.23551 0.0
H2192 H 0.59781 0.09782 0.26655 0.0
C2193 C 0.56906 0.06666 0.25948 0.0
C2194 C 0.91181 0.58977 0.24148 0.0
C2195 C 0.92259 0.5789 0.2325 0.0
H2196 H 0.9044 0.5992 0.26588 0.0
C2197 C 0.93399 0.56879 0.24153 0.0
H2198 H 0.90288 0.59769 0.23483 0.0
C2199 C 0.93452 0.56931 0.25906 0.0
C2200 C 0.92395 0.58024 0.26813 0.0
H2201 H 0.94237 0.56016 0.23506 0.0
H2202 H 0.94347 0.56125 0.26552 0.0
C2203 C 0.91267 0.59064 0.25919 0.0
C2204 C 0.43246 0.93417 0.24091 0.0
C2205 C 0.4229 0.92228 0.23192 0.0
H2206 H 0.43955 0.94409 0.26486 0.0
C2207 C 0.41247 0.91109 0.24095 0.0
H2208 H 0.44074 0.94288 0.23441 0.0
C2209 C 0.41154 0.91202 0.25866 0.0
C2210 C 0.42144 0.92376 0.26755 0.0
H2211 H 0.40498 0.90178 0.23434 0.0
H2212 H 0.40335 0.9034 0.26538 0.0
C2213 C 0.43189 0.93477 0.25844 0.0
C2214 C 0.08912 0.41139 0.25981 0.0
C2215 C 0.0779 0.42186 0.26874 0.0
H2216 H 0.09893 0.40432 0.23547 0.0
C2217 C 0.06746 0.4329 0.25966 0.0
H2218 H 0.0973 0.40274 0.2665 0.0
C2219 C 0.06806 0.43347 0.24213 0.0
C2220 C 0.07939 0.42327 0.23311 0.0
H2221 H 0.05855 0.44102 0.26611 0.0
H2222 H 0.05977 0.44218 0.23564 0.0
C2223 C 0.09006 0.4123 0.24211 0.0
C2224 C 0.74104 0.59002 0.91217 0.0
C2225 C 0.73205 0.5791 0.92291 0.0
H2226 H 0.76544 0.59753 0.90281 0.0
C2227 C 0.74109 0.56754 0.93283 0.0
H2228 H 0.73439 0.59907 0.9044 0.0
C2229 C 0.75862 0.56699 0.93227 0.0
C2230 C 0.7677 0.57771 0.92148 0.0
H2231 H 0.73461 0.55905 0.94135 0.0
H2232 H 0.76508 0.55792 0.94019 0.0
C2233 C 0.75875 0.58914 0.91126 0.0
C2234 C 0.75984 0.4124 0.08988 0.0
C2235 C 0.7687 0.42396 0.07973 0.0
H2236 H 0.73556 0.40225 0.09667 0.0
C2237 C 0.75955 0.4347 0.06903 0.0
H2238 H 0.7666 0.404 0.09827 0.0
C2239 C 0.74203 0.43402 0.06846 0.0
C2240 C 0.73308 0.42232 0.07829 0.0
H2241 H 0.76594 0.44387 0.06117 0.0
H2242 H 0.73549 0.44252 0.05999 0.0
C2243 C 0.74214 0.4114 0.08896 0.0
C2244 C 0.59085 0.74201 0.09007 0.0
C2245 C 0.58098 0.73315 0.07829 0.0
H2246 H 0.59738 0.76631 0.10036 0.0
C2247 C 0.57056 0.74227 0.06725 0.0
H2248 H 0.599 0.73527 0.0987 0.0
C2249 C 0.56999 0.7598 0.06788 0.0
C2250 C 0.57951 0.76876 0.07982 0.0
H2251 H 0.56293 0.73585 0.05791 0.0
H2252 H 0.56174 0.76632 0.05915 0.0
C2253 C 0.58991 0.75972 0.09101 0.0
C2254 C 0.26031 0.56952 0.06648 0.0
C2255 C 0.26945 0.58014 0.07731 0.0
H2256 H 0.23626 0.56055 0.05856 0.0
C2257 C 0.26059 0.59021 0.08893 0.0
H2258 H 0.26671 0.56173 0.05726 0.0
C2259 C 0.24288 0.58928 0.08991 0.0
C2260 C 0.23382 0.57869 0.07891 0.0
H2261 H 0.26733 0.59852 0.09741 0.0
H2262 H 0.23629 0.59691 0.09913 0.0
C2263 C 0.24278 0.56895 0.06713 0.0
C2264 C 0.43405 0.24195 0.06791 0.0
C2265 C 0.42376 0.23293 0.07915 0.0
H2266 H 0.44168 0.26592 0.05847 0.0
C2267 C 0.41272 0.24192 0.08974 0.0
H2268 H 0.44282 0.23545 0.05968 0.0
C2269 C 0.41183 0.25963 0.08881 0.0
C2270 C 0.42237 0.26856 0.07767 0.0
H2271 H 0.40466 0.23528 0.09855 0.0
H2272 H 0.40311 0.26632 0.09692 0.0
C2273 C 0.4335 0.25948 0.06731 0.0
C2274 C 0.24194 0.4323 0.93418 0.0
C2275 C 0.23292 0.42246 0.92254 0.0
H2276 H 0.26592 0.43959 0.94389 0.0
C2277 C 0.24192 0.41178 0.91157 0.0
H2278 H 0.23545 0.44078 0.94272 0.0
C2279 C 0.25963 0.41086 0.91248 0.0
C2280 C 0.26855 0.42101 0.92398 0.0
H2281 H 0.23529 0.40408 0.90246 0.0
H2282 H 0.26633 0.40247 0.90404 0.0
C2283 C 0.25947 0.43173 0.93476 0.0
C2284 C 0.56901 0.25856 0.93366 0.0
C2285 C 0.57999 0.26761 0.92313 0.0
H2286 H 0.55978 0.23458 0.94149 0.0
C2287 C 0.59039 0.25865 0.91187 0.0
H2288 H 0.56095 0.26503 0.94261 0.0
C2289 C 0.58948 0.24094 0.91099 0.0
C2290 C 0.57857 0.23198 0.92175 0.0
H2291 H 0.59899 0.26532 0.90362 0.0
H2292 H 0.5974 0.23427 0.90209 0.0
C2293 C 0.56845 0.24104 0.93312 0.0
C2294 C 0.42773 0.75863 0.90529 0.0
C2295 C 0.41798 0.76894 0.91591 0.0
H2296 H 0.43529 0.73336 0.89913 0.0
C2297 C 0.40646 0.76138 0.92704 0.0
H2298 H 0.43687 0.76415 0.89676 0.0
C2299 C 0.40515 0.74379 0.92795 0.0
C2300 C 0.41579 0.7335 0.91822 0.0
H2301 H 0.39892 0.76907 0.93544 0.0
H2302 H 0.39665 0.73826 0.93711 0.0
C2303 C 0.42688 0.74105 0.90667 0.0
C2304 C 0.01402 0.18447 0.42073 0.0
C2305 C 0.02087 0.16818 0.41919 0.0
H2306 H 0.99191 0.19943 0.42434 0.0
C2307 C 0.00978 0.15439 0.41755 0.0
H2308 H 0.02208 0.19545 0.42181 0.0
C2309 C 0.99224 0.15681 0.41871 0.0
C2310 C 0.9857 0.17298 0.42176 0.0
H2311 H 0.01464 0.14169 0.41632 0.0
H2312 H 0.98395 0.14596 0.41836 0.0
C2313 C 0.99669 0.1868 0.42219 0.0
C2314 C 0.81749 0.01426 0.41921 0.0
C2315 C 0.8338 0.02123 0.41858 0.0
H2316 H 0.80253 0.99205 0.42216 0.0
C2317 C 0.84774 0.01024 0.41774 0.0
H2318 H 0.80641 0.02224 0.41965 0.0
C2319 C 0.84539 0.9927 0.41886 0.0
C2320 C 0.82912 0.98604 0.42106 0.0
H2321 H 0.86046 0.01519 0.41723 0.0
H2322 H 0.85631 0.98449 0.41921 0.0
C2323 C 0.81522 0.99692 0.42064 0.0
C2324 C 0.9913 0.84696 0.41746 0.0
C2325 C 0.98023 0.83315 0.41913 0.0
H2326 H 0.01711 0.85545 0.41829 0.0
C2327 C 0.98712 0.81688 0.42076 0.0
H2328 H 0.98641 0.85964 0.41616 0.0
C2329 C 0.00445 0.8146 0.42228 0.0
C2330 C 0.01541 0.82843 0.4218 0.0
H2331 H 0.97907 0.80589 0.42188 0.0
H2332 H 0.00925 0.80199 0.4245 0.0
C2333 C 0.00883 0.84458 0.41867 0.0
C2334 C 0.15423 0.99118 0.41779 0.0
C2335 C 0.16812 0.98019 0.41921 0.0
H2336 H 0.14561 0.01693 0.41883 0.0
C2337 C 0.18438 0.98716 0.42057 0.0
H2338 H 0.14154 0.98622 0.4167 0.0
C2339 C 0.18659 0.00449 0.42209 0.0
C2340 C 0.17269 0.01538 0.42187 0.0
H2341 H 0.19543 0.97917 0.42149 0.0
H2342 H 0.19921 0.00936 0.42412 0.0
C2343 C 0.15652 0.00872 0.41899 0.0
C2344 C 0.99295 0.84583 0.58284 0.0
C2345 C 0.98635 0.82952 0.58076 0.0
H2346 H 0.01539 0.86098 0.58448 0.0
C2347 C 0.99726 0.81565 0.5814 0.0
H2348 H 0.98471 0.85672 0.58231 0.0
C2349 C 0.01459 0.81799 0.58294 0.0
C2350 C 0.02152 0.83432 0.58345 0.0
H2351 H 0.99243 0.80295 0.57997 0.0
H2352 H 0.02261 0.80694 0.58267 0.0
C2353 C 0.01048 0.84824 0.58407 0.0
C2354 C 0.1556 0.01018 0.58447 0.0
C2355 C 0.16923 0.02136 0.58219 0.0
H2356 H 0.14733 0.98429 0.5842 0.0
C2357 C 0.18547 0.01461 0.5799 0.0
H2358 H 0.14293 0.01496 0.58629 0.0
C2359 C 0.18786 0.99729 0.57841 0.0
C2360 C 0.17416 0.9862 0.57956 0.0
H2361 H 0.19634 0.02274 0.57829 0.0
H2362 H 0.20041 0.9926 0.57573 0.0
C2363 C 0.15809 0.99266 0.58329 0.0
C2364 C 0.00868 0.15524 0.58286 0.0
C2365 C 0.0153 0.17157 0.58109 0.0
H2366 H 0.9862 0.14011 0.5842 0.0
C2367 C 0.00442 0.18545 0.58201 0.0
H2368 H 0.01689 0.14435 0.5821 0.0
C2369 C 0.98709 0.18311 0.58351 0.0
C2370 C 0.98013 0.16679 0.58369 0.0
H2371 H 0.00928 0.19817 0.58081 0.0
H2372 H 0.97909 0.19419 0.58344 0.0
C2373 C 0.99114 0.15284 0.58405 0.0
C2374 C 0.81486 0.00445 0.58047 0.0
C2375 C 0.82867 0.01546 0.58041 0.0
H2376 H 0.80627 0.97904 0.58117 0.0
C2377 C 0.84495 0.00894 0.58293 0.0
H2378 H 0.80217 0.00921 0.57871 0.0
C2379 C 0.84744 0.99141 0.58403 0.0
C2380 C 0.83362 0.9803 0.58286 0.0
H2381 H 0.85579 0.01725 0.58288 0.0
H2382 H 0.86018 0.98658 0.58482 0.0
C2383 C 0.81727 0.98713 0.58188 0.0
C2384 C 0.41766 0.01369 0.18237 0.0
C2385 C 0.41772 0.02065 0.16605 0.0
H2386 H 0.42019 0.99151 0.19746 0.0
C2387 C 0.41756 0.00964 0.15209 0.0
H2388 H 0.41756 0.02169 0.19345 0.0
C2389 C 0.41876 0.99212 0.1545 0.0
C2390 C 0.42032 0.9855 0.17085 0.0
H2391 H 0.4176 0.01459 0.13936 0.0
H2392 H 0.4197 0.98391 0.14362 0.0
C2393 C 0.41915 0.99637 0.18472 0.0
C2394 C 0.00513 0.42021 0.18584 0.0
C2395 C 0.0161 0.4209 0.17201 0.0
H2396 H 0.97975 0.41902 0.19445 0.0
C2397 C 0.00956 0.41897 0.15566 0.0
H2398 H 0.00993 0.42153 0.19857 0.0
C2399 C 0.99203 0.41786 0.15318 0.0
C2400 C 0.98095 0.41844 0.16706 0.0
H2401 H 0.01784 0.41955 0.14481 0.0
H2402 H 0.98716 0.41758 0.14042 0.0
C2403 C 0.98781 0.41878 0.18342 0.0
C2404 C 0.58472 0.98815 0.18268 0.0
C2405 C 0.58435 0.98126 0.16633 0.0
H2406 H 0.58235 0.01026 0.1979 0.0
C2407 C 0.58419 0.99231 0.15242 0.0
H2408 H 0.58508 0.9801 0.19371 0.0
C2409 C 0.58295 0.00982 0.15492 0.0
C2410 C 0.58166 0.01636 0.17133 0.0
H2411 H 0.58391 0.98741 0.13967 0.0
H2412 H 0.58171 0.01806 0.1441 0.0
C2413 C 0.58318 0.00546 0.18513 0.0
C2414 C 0.01096 0.58432 0.15392 0.0
C2415 C 0.02199 0.58282 0.16778 0.0
H2416 H 0.98517 0.58345 0.14538 0.0
C2417 C 0.01506 0.58151 0.18406 0.0
H2418 H 0.01588 0.58537 0.14123 0.0
C2419 C 0.99771 0.58012 0.18633 0.0
C2420 C 0.98678 0.5804 0.17246 0.0
H2421 H 0.02307 0.58054 0.19509 0.0
H2422 H 0.99287 0.57812 0.19895 0.0
C2423 C 0.99341 0.58324 0.15627 0.0
C2424 C 0.41617 0.99352 0.84996 0.0
C2425 C 0.41482 0.98255 0.83605 0.0
H2426 H 0.41966 0.01917 0.85818 0.0
C2427 C 0.41301 0.98953 0.81984 0.0
H2428 H 0.41759 0.98855 0.86261 0.0
C2429 C 0.41446 0.00685 0.81737 0.0
C2430 C 0.41731 0.01764 0.83104 0.0
H2431 H 0.41172 0.98153 0.80884 0.0
H2432 H 0.41432 0.01173 0.8046 0.0
C2433 C 0.41734 0.01102 0.84746 0.0
C2434 C 0.01062 0.41705 0.84576 0.0
C2435 C 0.02166 0.41953 0.83205 0.0
H2436 H 0.98482 0.41727 0.85432 0.0
C2437 C 0.01473 0.42215 0.81593 0.0
H2438 H 0.01554 0.41498 0.85833 0.0
C2439 C 0.9974 0.42376 0.81377 0.0
C2440 C 0.98645 0.4224 0.82757 0.0
H2441 H 0.02274 0.42392 0.805 0.0
H2442 H 0.99257 0.42667 0.80132 0.0
C2443 C 0.99308 0.41835 0.84349 0.0
C2444 C 0.58362 0.00847 0.84726 0.0
C2445 C 0.58373 0.01994 0.83369 0.0
H2446 H 0.58181 0.98244 0.85479 0.0
C2447 C 0.58456 0.01354 0.81716 0.0
H2448 H 0.58301 0.01297 0.86014 0.0
C2449 C 0.5836 0.99627 0.81417 0.0
C2450 C 0.58216 0.98489 0.8276 0.0
H2451 H 0.5849 0.02192 0.80637 0.0
H2452 H 0.58323 0.99185 0.80124 0.0
C2453 C 0.58294 0.99101 0.84422 0.0
C2454 C 0.00817 0.58268 0.84378 0.0
C2455 C 0.01479 0.57867 0.82785 0.0
H2456 H 0.98572 0.58601 0.85864 0.0
C2457 C 0.00383 0.57732 0.81406 0.0
H2458 H 0.01643 0.58376 0.85461 0.0
C2459 C 0.9865 0.5789 0.81623 0.0
C2460 C 0.97958 0.5815 0.83236 0.0
H2461 H 0.00866 0.57443 0.80159 0.0
H2462 H 0.97848 0.57714 0.8053 0.0
C2463 C 0.99062 0.58396 0.84607 0.0
C2464 C 0.15339 0.41741 0.01016 0.0
C2465 C 0.16735 0.41791 0.02115 0.0
H2466 H 0.14485 0.41915 0.98442 0.0
C2467 C 0.18367 0.41816 0.01417 0.0
H2468 H 0.14066 0.41719 0.01512 0.0
C2469 C 0.18597 0.41958 0.99683 0.0
C2470 C 0.17207 0.42036 0.98597 0.0
H2471 H 0.19475 0.41834 0.02215 0.0
H2472 H 0.19868 0.42083 0.99196 0.0
C2473 C 0.15575 0.41852 0.99262 0.0
C2474 C 0.18382 0.58273 0.98747 0.0
C2475 C 0.16744 0.58305 0.98066 0.0
H2476 H 0.19906 0.58003 0.00953 0.0
C2477 C 0.15359 0.58361 0.99179 0.0
H2478 H 0.19482 0.58251 0.97937 0.0
C2479 C 0.15614 0.58251 0.00931 0.0
C2480 C 0.17252 0.58061 0.0158 0.0
H2481 H 0.14082 0.58387 0.98697 0.0
H2482 H 0.14532 0.58193 0.01763 0.0
C2483 C 0.1863 0.58132 0.00478 0.0
C2484 C 0.41967 0.18549 0.00513 0.0
C2485 C 0.42067 0.17167 0.01607 0.0
H2486 H 0.41815 0.19411 0.97977 0.0
C2487 C 0.4189 0.1553 0.00953 0.0
H2488 H 0.42088 0.19824 0.00993 0.0
C2489 C 0.41765 0.15282 0.99201 0.0
C2490 C 0.41797 0.16672 0.98095 0.0
H2491 H 0.41971 0.14445 0.01779 0.0
H2492 H 0.41752 0.14006 0.98713 0.0
C2493 C 0.41813 0.18307 0.98782 0.0
C2494 C 0.81642 0.4224 0.98676 0.0
C2495 C 0.83258 0.41999 0.97985 0.0
H2496 H 0.80172 0.42668 0.00891 0.0
C2497 C 0.84631 0.41765 0.9909 0.0
H2498 H 0.80549 0.42406 0.97873 0.0
C2499 C 0.844 0.41886 0.00844 0.0
C2500 C 0.82802 0.4227 0.01505 0.0
H2501 H 0.85891 0.41574 0.986 0.0
H2502 H 0.85484 0.41789 0.01671 0.0
C2503 C 0.81422 0.42392 0.00409 0.0
C2504 C 0.58756 0.81787 0.00719 0.0
C2505 C 0.5844 0.83149 0.01797 0.0
H2506 H 0.59051 0.80941 0.98187 0.0
C2507 C 0.58407 0.84791 0.01136 0.0
H2508 H 0.58791 0.80511 0.01207 0.0
C2509 C 0.58524 0.85044 0.99386 0.0
C2510 C 0.58688 0.83656 0.98289 0.0
H2511 H 0.58151 0.85857 0.01951 0.0
H2512 H 0.58358 0.86305 0.98889 0.0
C2513 C 0.589 0.82038 0.98987 0.0
C2514 C 0.84607 0.58437 0.00996 0.0
C2515 C 0.83239 0.58223 0.0211 0.0
H2516 H 0.85443 0.58392 0.9841 0.0
C2517 C 0.81614 0.58005 0.0143 0.0
H2518 H 0.85873 0.5861 0.01478 0.0
C2519 C 0.81381 0.57851 0.99698 0.0
C2520 C 0.82755 0.5795 0.98593 0.0
H2521 H 0.80524 0.57856 0.0224 0.0
H2522 H 0.80125 0.5759 0.99225 0.0
C2523 C 0.84363 0.58314 0.99243 0.0
C2524 C 0.41844 0.84394 0.99122 0.0
C2525 C 0.41935 0.82732 0.98511 0.0
H2526 H 0.41828 0.85988 0.01316 0.0
C2527 C 0.41803 0.81389 0.99652 0.0
H2528 H 0.41947 0.85451 0.98263 0.0
C2529 C 0.41709 0.81689 0.01379 0.0
C2530 C 0.41779 0.83344 0.02016 0.0
H2531 H 0.4185 0.80096 0.99211 0.0
H2532 H 0.41686 0.80612 0.02218 0.0
C2533 C 0.41777 0.84699 0.00867 0.0
C2534 C 0.58326 0.15611 0.99272 0.0
C2535 C 0.58029 0.17225 0.98605 0.0
H2536 H 0.58561 0.14116 0.01523 0.0
C2537 C 0.57999 0.18616 0.99693 0.0
H2538 H 0.58351 0.14519 0.98451 0.0
C2539 C 0.58148 0.18396 0.01427 0.0
C2540 C 0.58293 0.16772 0.02125 0.0
H2541 H 0.57789 0.19875 0.99205 0.0
H2542 H 0.58049 0.19501 0.02225 0.0
C2543 C 0.58445 0.15383 0.01027 0.0
C2544 C 0.51489 0.68782 0.92219 0.0
C2545 C 0.52137 0.67143 0.92017 0.0
H2546 H 0.49309 0.70328 0.92547 0.0
C2547 C 0.50998 0.65802 0.91774 0.0
H2548 H 0.5232 0.69853 0.9239 0.0
C2549 C 0.49248 0.66086 0.91843 0.0
C2550 C 0.48621 0.6771 0.92178 0.0
H2551 H 0.51454 0.64525 0.91612 0.0
H2552 H 0.48395 0.65025 0.91735 0.0
C2553 C 0.49757 0.69058 0.92312 0.0
C2554 C 0.31654 0.51385 0.92138 0.0
C2555 C 0.33273 0.52072 0.91906 0.0
H2556 H 0.30179 0.49174 0.9257 0.0
C2557 C 0.34645 0.50965 0.91684 0.0
H2558 H 0.3056 0.52189 0.92294 0.0
C2559 C 0.34411 0.49211 0.91813 0.0
C2560 C 0.3281 0.48554 0.92191 0.0
H2561 H 0.35907 0.51453 0.915 0.0
H2562 H 0.35494 0.48383 0.91728 0.0
C2563 C 0.3143 0.49652 0.92298 0.0
C2564 C 0.49133 0.34565 0.9168 0.0
C2565 C 0.48021 0.33197 0.9191 0.0
H2566 H 0.51718 0.35404 0.91704 0.0
C2567 C 0.48704 0.31576 0.92137 0.0
H2568 H 0.48648 0.35829 0.915 0.0
C2569 C 0.50437 0.31346 0.92283 0.0
C2570 C 0.5154 0.3272 0.92167 0.0
H2571 H 0.47897 0.30486 0.92299 0.0
H2572 H 0.50914 0.30092 0.92549 0.0
C2573 C 0.50886 0.34325 0.91795 0.0
C2574 C 0.65507 0.50878 0.91862 0.0
C2575 C 0.67137 0.51545 0.92059 0.0
H2576 H 0.64002 0.48627 0.9171 0.0
C2577 C 0.68528 0.5046 0.91985 0.0
H2578 H 0.64416 0.51697 0.91923 0.0
C2579 C 0.68301 0.48727 0.91833 0.0
C2580 C 0.66671 0.48027 0.91795 0.0
H2581 H 0.69798 0.50949 0.92119 0.0
H2582 H 0.69411 0.4793 0.91853 0.0
C2583 C 0.65273 0.49124 0.91742 0.0
C2584 C 0.51014 0.34793 0.08345 0.0
C2585 C 0.52118 0.33403 0.08264 0.0
H2586 H 0.48435 0.3564 0.08191 0.0
C2587 C 0.51427 0.3177 0.08199 0.0
H2588 H 0.51504 0.36066 0.08397 0.0
C2589 C 0.49694 0.31536 0.08051 0.0
C2590 C 0.48601 0.32923 0.08007 0.0
H2591 H 0.5223 0.30665 0.08157 0.0
H2592 H 0.49211 0.30267 0.07898 0.0
C2593 C 0.4926 0.34552 0.08228 0.0
C2594 C 0.65308 0.50939 0.08386 0.0
C2595 C 0.66698 0.52045 0.08336 0.0
H2596 H 0.64467 0.48361 0.08199 0.0
C2597 C 0.68333 0.51357 0.08301 0.0
H2598 H 0.64033 0.51427 0.08414 0.0
C2599 C 0.68572 0.49625 0.08149 0.0
C2600 C 0.67188 0.48532 0.0807 0.0
H2601 H 0.69437 0.52162 0.08284 0.0
H2602 H 0.69845 0.49145 0.08017 0.0
C2603 C 0.65554 0.49186 0.08264 0.0
C2604 C 0.49269 0.65445 0.08524 0.0
C2605 C 0.48158 0.66826 0.08389 0.0
H2606 H 0.51851 0.64606 0.08415 0.0
C2607 C 0.48841 0.68459 0.08275 0.0
H2608 H 0.48785 0.64171 0.08616 0.0
C2609 C 0.50574 0.68697 0.0813 0.0
C2610 C 0.51673 0.67314 0.08138 0.0
H2611 H 0.48033 0.69557 0.08189 0.0
H2612 H 0.51051 0.69963 0.07937 0.0
C2613 C 0.51021 0.6569 0.08411 0.0
C2614 C 0.31701 0.48697 0.07897 0.0
C2615 C 0.33316 0.48006 0.08147 0.0
H2616 H 0.30234 0.50913 0.07462 0.0
C2617 C 0.34687 0.49111 0.08388 0.0
H2618 H 0.30608 0.47895 0.07725 0.0
C2619 C 0.34457 0.50865 0.08266 0.0
C2620 C 0.32861 0.51527 0.07874 0.0
H2621 H 0.35947 0.4862 0.08586 0.0
H2622 H 0.3554 0.51691 0.08369 0.0
C2623 C 0.31481 0.50431 0.07745 0.0
C2624 C 0.91745 0.50969 0.65245 0.0
C2625 C 0.9174 0.52071 0.66639 0.0
H2626 H 0.9198 0.48396 0.64404 0.0
C2627 C 0.91713 0.51378 0.68272 0.0
H2628 H 0.91765 0.51462 0.63971 0.0
C2629 C 0.91865 0.49646 0.68511 0.0
C2630 C 0.92004 0.48558 0.67127 0.0
H2631 H 0.91687 0.5218 0.69378 0.0
H2632 H 0.91955 0.49162 0.69786 0.0
C2633 C 0.91866 0.49217 0.65489 0.0
C2634 C 0.50438 0.92268 0.69017 0.0
C2635 C 0.51581 0.92165 0.67672 0.0
H2636 H 0.47871 0.92325 0.698 0.0
C2637 C 0.50962 0.91859 0.66039 0.0
H2638 H 0.5088 0.92481 0.70293 0.0
C2639 C 0.49215 0.91792 0.65744 0.0
C2640 C 0.48068 0.92007 0.67085 0.0
H2641 H 0.51821 0.91776 0.6498 0.0
H2642 H 0.48765 0.91656 0.64462 0.0
C2643 C 0.48708 0.92176 0.68731 0.0
C2644 C 0.08272 0.50928 0.65496 0.0
C2645 C 0.08134 0.5158 0.67137 0.0
H2646 H 0.08373 0.4869 0.63968 0.0
C2647 C 0.08273 0.50485 0.68516 0.0
H2648 H 0.0816 0.51754 0.64415 0.0
C2649 C 0.08424 0.48755 0.68269 0.0
C2650 C 0.08397 0.48068 0.66633 0.0
H2651 H 0.08183 0.50964 0.69794 0.0
H2652 H 0.08449 0.47948 0.69371 0.0
C2653 C 0.08393 0.49176 0.65244 0.0
C2654 C 0.49176 0.08434 0.65749 0.0
C2655 C 0.4852 0.08107 0.67362 0.0
H2656 H 0.51416 0.08684 0.64242 0.0
C2657 C 0.49618 0.08042 0.68744 0.0
H2658 H 0.48348 0.08485 0.64665 0.0
C2659 C 0.51352 0.08185 0.68514 0.0
C2660 C 0.52038 0.08357 0.66887 0.0
H2661 H 0.49139 0.07808 0.70002 0.0
H2662 H 0.52158 0.08056 0.6961 0.0
C2663 C 0.5093 0.08546 0.6551 0.0
C2664 C 0.91728 0.49163 0.34631 0.0
C2665 C 0.91929 0.48053 0.33257 0.0
H2666 H 0.91783 0.51746 0.35474 0.0
C2667 C 0.92129 0.48737 0.31632 0.0
H2668 H 0.91569 0.48678 0.35897 0.0
C2669 C 0.92281 0.50469 0.31403 0.0
C2670 C 0.92197 0.5157 0.32782 0.0
H2671 H 0.92267 0.4793 0.30539 0.0
H2672 H 0.92529 0.50946 0.30146 0.0
C2673 C 0.91849 0.50916 0.34391 0.0
C2674 C 0.49282 0.91842 0.34274 0.0
C2675 C 0.48628 0.92265 0.32683 0.0
H2676 H 0.5152 0.91497 0.3577 0.0
C2677 C 0.49732 0.92432 0.31314 0.0
H2678 H 0.4845 0.91709 0.35349 0.0
C2679 C 0.51465 0.92282 0.31541 0.0
C2680 C 0.52148 0.91998 0.33154 0.0
H2681 H 0.49257 0.92738 0.3007 0.0
H2682 H 0.52273 0.92481 0.30457 0.0
C2683 C 0.51036 0.91722 0.34512 0.0
C2684 C 0.08412 0.50979 0.34786 0.0
C2685 C 0.08318 0.52083 0.33396 0.0
H2686 H 0.08263 0.48402 0.35636 0.0
C2687 C 0.08233 0.51391 0.31764 0.0
H2688 H 0.0848 0.51471 0.36058 0.0
C2689 C 0.08079 0.49659 0.31533 0.0
C2690 C 0.08048 0.48567 0.3292 0.0
H2691 H 0.0818 0.52193 0.3066 0.0
H2692 H 0.07911 0.49176 0.30265 0.0
C2693 C 0.08289 0.49226 0.34547 0.0
C2694 C 0.50391 0.07797 0.31402 0.0
C2695 C 0.51481 0.07909 0.32787 0.0
H2696 H 0.47858 0.0779 0.30519 0.0
C2697 C 0.50814 0.08281 0.34386 0.0
H2698 H 0.50878 0.0753 0.30153 0.0
C2699 C 0.49058 0.08401 0.34611 0.0
C2700 C 0.47959 0.08176 0.33232 0.0
H2701 H 0.51636 0.08369 0.35473 0.0
H2702 H 0.48563 0.08582 0.3587 0.0
C2703 C 0.48656 0.07948 0.31617 0.0
C2704 C 0.65683 0.91818 0.49207 0.0
C2705 C 0.67296 0.92149 0.48551 0.0
H2706 H 0.64179 0.91546 0.51448 0.0
C2707 C 0.68679 0.92205 0.49648 0.0
H2708 H 0.64597 0.91774 0.48379 0.0
C2709 C 0.68451 0.92045 0.5138 0.0
C2710 C 0.66826 0.91864 0.52067 0.0
H2711 H 0.69937 0.9244 0.49169 0.0
H2712 H 0.69549 0.92163 0.52184 0.0
C2713 C 0.65446 0.91689 0.5096 0.0
C2714 C 0.68647 0.07835 0.50467 0.0
C2715 C 0.67266 0.07917 0.51566 0.0
H2716 H 0.69514 0.07851 0.47929 0.0
C2717 C 0.65657 0.08263 0.50909 0.0
H2718 H 0.69903 0.07588 0.50945 0.0
C2719 C 0.65419 0.08384 0.49156 0.0
C2720 C 0.66795 0.08186 0.48048 0.0
H2721 H 0.64573 0.08328 0.51738 0.0
H2722 H 0.64153 0.08543 0.48669 0.0
C2723 C 0.68419 0.07987 0.48734 0.0
C2724 C 0.9189 0.68365 0.48754 0.0
C2725 C 0.91834 0.6673 0.48067 0.0
H2726 H 0.92192 0.69876 0.50964 0.0
C2727 C 0.91768 0.65342 0.49174 0.0
H2728 H 0.9192 0.69468 0.47948 0.0
C2729 C 0.91892 0.65588 0.50926 0.0
C2730 C 0.92106 0.67221 0.5158 0.0
H2731 H 0.91723 0.64067 0.48687 0.0
H2732 H 0.91942 0.64502 0.51753 0.0
C2733 C 0.92044 0.68604 0.50485 0.0
C2734 C 0.31832 0.91958 0.48713 0.0
C2735 C 0.33462 0.9187 0.48017 0.0
H2736 H 0.30338 0.92274 0.50932 0.0
C2737 C 0.34854 0.91772 0.49117 0.0
H2738 H 0.30725 0.92014 0.47913 0.0
C2739 C 0.3462 0.9189 0.50871 0.0
C2740 C 0.32995 0.92132 0.51535 0.0
H2741 H 0.36126 0.91702 0.48623 0.0
H2742 H 0.35711 0.91911 0.51693 0.0
C2743 C 0.31605 0.92107 0.50446 0.0
C2744 C 0.08254 0.34524 0.50939 0.0
C2745 C 0.08025 0.32893 0.51592 0.0
H2746 H 0.08435 0.36045 0.48701 0.0
C2747 C 0.0807 0.3151 0.50495 0.0
H2748 H 0.08216 0.35609 0.51768 0.0
C2749 C 0.08224 0.31749 0.48764 0.0
C2750 C 0.08296 0.33384 0.48078 0.0
H2751 H 0.0791 0.30239 0.50973 0.0
H2752 H 0.08182 0.30647 0.47957 0.0
C2753 C 0.08378 0.3477 0.49187 0.0
C2754 C 0.31794 0.08338 0.51347 0.0
C2755 C 0.33429 0.08377 0.52036 0.0
H2756 H 0.30283 0.08046 0.49135 0.0
C2757 C 0.34819 0.08427 0.50931 0.0
H2758 H 0.30689 0.0832 0.52151 0.0
C2759 C 0.34575 0.08301 0.49179 0.0
C2760 C 0.32941 0.08103 0.48523 0.0
H2761 H 0.36094 0.08458 0.5142 0.0
H2762 H 0.35661 0.08237 0.48353 0.0
C2763 C 0.31556 0.08182 0.49615 0.0
C2764 C 0.91812 0.34401 0.49294 0.0
C2765 C 0.92195 0.32804 0.48631 0.0
H2766 H 0.915 0.35889 0.51541 0.0
C2767 C 0.92313 0.31422 0.49725 0.0
H2768 H 0.91717 0.35486 0.4847 0.0
C2769 C 0.9216 0.31639 0.51459 0.0
C2770 C 0.91922 0.33255 0.52152 0.0
H2771 H 0.92588 0.30173 0.49241 0.0
H2772 H 0.92325 0.30545 0.5226 0.0
C2773 C 0.91689 0.34629 0.51049 0.0
C2774 C 0.07947 0.68683 0.49733 0.0
C2775 C 0.08004 0.67298 0.48638 0.0
H2776 H 0.0798 0.69557 0.52269 0.0
C2777 C 0.0833 0.65686 0.49298 0.0
H2778 H 0.07716 0.69941 0.49252 0.0
C2779 C 0.08452 0.65452 0.51052 0.0
C2780 C 0.08275 0.66833 0.52157 0.0
H2781 H 0.08375 0.64599 0.48472 0.0
H2782 H 0.08591 0.64185 0.51541 0.0
C2783 C 0.081 0.68458 0.51466 0.0
C2784 C 0.07043 0.15717 0.51099 0.0
C2785 C 0.08195 0.16858 0.51816 0.0
H2786 H 0.06063 0.14618 0.48835 0.0
C2787 C 0.09358 0.17681 0.50764 0.0
H2788 H 0.06141 0.15053 0.51881 0.0
C2789 C 0.09296 0.1745 0.49017 0.0
C2790 C 0.08095 0.16364 0.48293 0.0
H2791 H 0.1026 0.18567 0.51281 0.0
H2792 H 0.10156 0.18161 0.48228 0.0
C2793 C 0.07006 0.15459 0.49355 0.0
C2794 C 0.82498 0.09284 0.49005 0.0
C2795 C 0.83628 0.08117 0.48293 0.0
H2796 H 0.81351 0.10233 0.51261 0.0
C2797 C 0.84575 0.07073 0.49366 0.0
H2798 H 0.81755 0.10108 0.48208 0.0
C2799 C 0.84318 0.07121 0.51109 0.0
C2800 C 0.83138 0.0824 0.51816 0.0
H2801 H 0.8545 0.06158 0.48854 0.0
H2802 H 0.85017 0.06254 0.51901 0.0
C2803 C 0.82269 0.09357 0.50752 0.0
C2804 C 0.90777 0.82442 0.50756 0.0
C2805 C 0.91944 0.83265 0.51804 0.0
H2806 H 0.89967 0.81964 0.48224 0.0
C2807 C 0.93092 0.84408 0.51082 0.0
H2808 H 0.89877 0.81556 0.51277 0.0
C2809 C 0.93121 0.84668 0.49339 0.0
C2810 C 0.92027 0.83762 0.48281 0.0
H2811 H 0.93997 0.85072 0.51862 0.0
H2812 H 0.94061 0.85509 0.48815 0.0
C2813 C 0.9083 0.82675 0.49009 0.0
C2814 C 0.17581 0.90799 0.48998 0.0
C2815 C 0.16471 0.91986 0.48287 0.0
H2816 H 0.18726 0.89841 0.51251 0.0
C2817 C 0.15552 0.93053 0.49361 0.0
H2818 H 0.18303 0.89956 0.48201 0.0
C2819 C 0.15819 0.93009 0.51102 0.0
C2820 C 0.16984 0.91873 0.51807 0.0
H2821 H 0.14692 0.93984 0.4885 0.0
H2822 H 0.15145 0.93895 0.51894 0.0
C2823 C 0.17822 0.90731 0.50744 0.0
C2824 C 0.09379 0.82338 0.49452 0.0
C2825 C 0.08254 0.83202 0.48391 0.0
H2826 H 0.10139 0.81828 0.51993 0.0
C2827 C 0.07131 0.84376 0.49101 0.0
H2828 H 0.10257 0.81425 0.4894 0.0
C2829 C 0.07087 0.84633 0.50844 0.0
C2830 C 0.08139 0.83691 0.51914 0.0
H2831 H 0.06258 0.8507 0.48311 0.0
H2832 H 0.06168 0.85503 0.51358 0.0
C2833 C 0.09309 0.82567 0.51199 0.0
C2834 C 0.15718 0.07106 0.4911 0.0
C2835 C 0.16848 0.08267 0.48389 0.0
H2836 H 0.14631 0.06119 0.51375 0.0
C2837 C 0.17655 0.09444 0.49438 0.0
H2838 H 0.15066 0.06193 0.4833 0.0
C2839 C 0.17423 0.09386 0.51186 0.0
C2840 C 0.16352 0.08174 0.51913 0.0
H2841 H 0.1853 0.10355 0.4892 0.0
H2842 H 0.18123 0.10257 0.51972 0.0
C2843 C 0.15459 0.07071 0.50853 0.0
C2844 C 0.90859 0.17635 0.51213 0.0
C2845 C 0.9202 0.16494 0.51918 0.0
H2846 H 0.89905 0.18788 0.48962 0.0
C2847 C 0.93052 0.15541 0.50838 0.0
H2848 H 0.90044 0.18383 0.52015 0.0
C2849 C 0.92996 0.15798 0.49096 0.0
C2850 C 0.91881 0.16986 0.48396 0.0
H2851 H 0.93963 0.14658 0.51344 0.0
H2852 H 0.93853 0.15094 0.48298 0.0
C2853 C 0.90777 0.17864 0.49466 0.0
C2854 C 0.82367 0.90779 0.49411 0.0
C2855 C 0.83216 0.91916 0.48352 0.0
H2856 H 0.81869 0.90008 0.51952 0.0
C2857 C 0.84381 0.93049 0.49063 0.0
H2858 H 0.81463 0.89892 0.48899 0.0
C2859 C 0.84639 0.93092 0.50806 0.0
C2860 C 0.83711 0.92028 0.51875 0.0
H2861 H 0.85064 0.93931 0.48274 0.0
H2862 H 0.85501 0.94019 0.51321 0.0
C2863 C 0.82598 0.90847 0.51158 0.0
C2864 C 0.49328 0.07008 0.15495 0.0
C2865 C 0.48243 0.08048 0.16432 0.0
H2866 H 0.51871 0.06204 0.15068 0.0
C2867 C 0.48942 0.09221 0.17565 0.0
H2868 H 0.48826 0.06088 0.14618 0.0
C2869 C 0.50688 0.09306 0.17802 0.0
C2870 C 0.51763 0.08195 0.1694 0.0
H2871 H 0.48136 0.10042 0.18301 0.0
H2872 H 0.51187 0.10188 0.18719 0.0
C2873 C 0.5107 0.07068 0.1576 0.0
C2874 C 0.93159 0.49376 0.15485 0.0
C2875 C 0.92113 0.48304 0.1643 0.0
H2876 H 0.93976 0.51911 0.15038 0.0
C2877 C 0.90939 0.49018 0.17552 0.0
H2878 H 0.9408 0.48863 0.14616 0.0
C2879 C 0.9086 0.50766 0.17774 0.0
C2880 C 0.9198 0.51829 0.16906 0.0
H2881 H 0.90113 0.48222 0.18293 0.0
H2882 H 0.89979 0.51276 0.18684 0.0
C2883 C 0.93107 0.5112 0.15735 0.0
C2884 C 0.49488 0.90893 0.17796 0.0
C2885 C 0.48415 0.9199 0.1691 0.0
H2886 H 0.52038 0.90178 0.18331 0.0
C2887 C 0.49116 0.93114 0.15732 0.0
H2888 H 0.48983 0.90015 0.18712 0.0
C2889 C 0.50861 0.93183 0.15488 0.0
C2890 C 0.5194 0.92157 0.16446 0.0
H2891 H 0.48318 0.93966 0.15023 0.0
H2892 H 0.51367 0.94099 0.1461 0.0
C2893 C 0.51235 0.90989 0.1758 0.0
C2894 C 0.09383 0.51161 0.17506 0.0
C2895 C 0.08192 0.51879 0.16405 0.0
H2896 H 0.10338 0.48903 0.18643 0.0
C2897 C 0.07111 0.50812 0.15495 0.0
H2898 H 0.10237 0.51954 0.18221 0.0
C2899 C 0.07146 0.4907 0.15763 0.0
C2900 C 0.08288 0.48359 0.16918 0.0
H2901 H 0.06175 0.51328 0.14644 0.0
H2902 H 0.06251 0.48284 0.15094 0.0
C2903 C 0.09443 0.49415 0.17747 0.0
C2904 C 0.49295 0.93665 0.84164 0.0
C2905 C 0.48181 0.92504 0.83424 0.0
H2906 H 0.51857 0.94495 0.84404 0.0
C2907 C 0.48836 0.91198 0.82421 0.0
H2908 H 0.48821 0.94692 0.8493 0.0
C2909 C 0.50572 0.91065 0.82148 0.0
C2910 C 0.5168 0.92266 0.82831 0.0
H2911 H 0.48002 0.90287 0.81835 0.0
H2912 H 0.51041 0.90055 0.81357 0.0
C2913 C 0.51028 0.93561 0.83851 0.0
C2914 C 0.0946 0.50717 0.82465 0.0
C2915 C 0.08282 0.51757 0.83282 0.0
H2916 H 0.1028 0.48189 0.81981 0.0
C2917 C 0.07131 0.51028 0.84416 0.0
H2918 H 0.10363 0.51243 0.81586 0.0
C2919 C 0.07104 0.49283 0.84667 0.0
C2920 C 0.08206 0.48232 0.83763 0.0
H2921 H 0.06218 0.51801 0.85075 0.0
H2922 H 0.06159 0.48753 0.85499 0.0
C2923 C 0.09411 0.48969 0.8269 0.0
C2924 C 0.49391 0.09263 0.82321 0.0
C2925 C 0.48304 0.08156 0.83175 0.0
H2926 H 0.5195 0.09975 0.81825 0.0
C2927 C 0.48989 0.07005 0.84337 0.0
H2928 H 0.489 0.10163 0.81418 0.0
C2929 C 0.50731 0.0692 0.84595 0.0
C2930 C 0.51825 0.07959 0.83669 0.0
H2931 H 0.48179 0.06144 0.85023 0.0
H2932 H 0.51224 0.05984 0.8546 0.0
C2933 C 0.51136 0.09153 0.82552 0.0
C2934 C 0.90661 0.49395 0.82471 0.0
C2935 C 0.91842 0.48353 0.83281 0.0
H2936 H 0.89836 0.51924 0.82 0.0
C2937 C 0.92994 0.49079 0.84417 0.0
H2938 H 0.89757 0.48871 0.81591 0.0
C2939 C 0.93017 0.50823 0.84677 0.0
C2940 C 0.91912 0.51876 0.83779 0.0
H2941 H 0.93909 0.48305 0.85072 0.0
H2942 H 0.93964 0.51351 0.85509 0.0
C2943 C 0.90708 0.51142 0.82704 0.0
C2944 C 0.15602 0.49328 0.07059 0.0
C2945 C 0.1655 0.48251 0.08097 0.0
H2946 H 0.15163 0.51866 0.06248 0.0
C2947 C 0.1769 0.48958 0.09258 0.0
H2948 H 0.14721 0.48821 0.06147 0.0
C2949 C 0.17923 0.50704 0.09335 0.0
C2950 C 0.1705 0.51772 0.08225 0.0
H2951 H 0.18434 0.48157 0.10078 0.0
H2952 H 0.18845 0.51209 0.10207 0.0
C2953 C 0.15864 0.51071 0.07109 0.0
C2954 C 0.17813 0.4939 0.90829 0.0
C2955 C 0.16949 0.48325 0.9195 0.0
H2956 H 0.18325 0.51935 0.90079 0.0
C2957 C 0.15778 0.49031 0.93078 0.0
H2958 H 0.18723 0.48881 0.89947 0.0
C2959 C 0.15523 0.50775 0.9313 0.0
C2960 C 0.16464 0.51849 0.92081 0.0
H2961 H 0.15084 0.48239 0.93948 0.0
H2962 H 0.14654 0.51286 0.94052 0.0
C2963 C 0.17587 0.51137 0.90907 0.0
C2964 C 0.49326 0.15465 0.93137 0.0
C2965 C 0.4825 0.16417 0.92102 0.0
H2966 H 0.51866 0.15007 0.93933 0.0
C2967 C 0.48959 0.17543 0.90929 0.0
H2968 H 0.48817 0.14593 0.94057 0.0
C2969 C 0.50707 0.1776 0.90839 0.0
C2970 C 0.51775 0.16883 0.91947 0.0
H2971 H 0.4816 0.1829 0.90111 0.0
H2972 H 0.51214 0.18673 0.89959 0.0
C2973 C 0.51071 0.15709 0.93073 0.0
C2974 C 0.84367 0.51091 0.92986 0.0
C2975 C 0.83224 0.51802 0.91832 0.0
H2976 H 0.85479 0.48833 0.93967 0.0
C2977 C 0.82419 0.50746 0.9066 0.0
H2978 H 0.85019 0.51876 0.93895 0.0
C2979 C 0.82665 0.49001 0.90717 0.0
C2980 C 0.83748 0.48282 0.91923 0.0
H2981 H 0.81533 0.51259 0.89755 0.0
H2982 H 0.81964 0.48209 0.89851 0.0
C2983 C 0.8464 0.49349 0.9302 0.0
C2984 C 0.49591 0.82129 0.9111 0.0
C2985 C 0.48478 0.82819 0.92303 0.0
H2986 H 0.52164 0.81817 0.90342 0.0
C2987 C 0.49125 0.83846 0.93594 0.0
H2988 H 0.49126 0.81333 0.90102 0.0
C2989 C 0.50857 0.84162 0.93702 0.0
C2990 C 0.51975 0.83418 0.92548 0.0
H2991 H 0.48291 0.84403 0.94522 0.0
H2992 H 0.51326 0.84936 0.94726 0.0
C2993 C 0.51327 0.82406 0.91247 0.0
C2994 C 0.8442 0.49117 0.07118 0.0
C2995 C 0.83281 0.484 0.08272 0.0
H2996 H 0.85513 0.51379 0.0613 0.0
C2997 C 0.82461 0.49453 0.09436 0.0
H2998 H 0.85082 0.48334 0.06214 0.0
C2999 C 0.82691 0.512 0.09372 0.0
C3000 C 0.83771 0.51923 0.08166 0.0
H3001 H 0.81578 0.48936 0.10341 0.0
H3002 H 0.81981 0.51989 0.10233 0.0
C3003 C 0.84676 0.5086 0.07076 0.0
C3004 C 0.49421 0.84616 0.0693 0.0
C3005 C 0.48329 0.83701 0.07981 0.0
H3006 H 0.51971 0.85033 0.06143 0.0
C3007 C 0.49019 0.82598 0.09186 0.0
H3008 H 0.48927 0.8547 0.05985 0.0
C3009 C 0.50764 0.82366 0.09294 0.0
C3010 C 0.51849 0.83206 0.08175 0.0
H3011 H 0.48207 0.81879 0.10017 0.0
H3012 H 0.51256 0.81472 0.10202 0.0
C3013 C 0.51163 0.84357 0.07013 0.0
C3014 C 0.51197 0.17489 0.09332 0.0
C3015 C 0.51914 0.16391 0.08138 0.0
H3016 H 0.48939 0.1862 0.10295 0.0
C3017 C 0.50845 0.15479 0.0706 0.0
H3018 H 0.51991 0.18205 0.10184 0.0
C3019 C 0.49103 0.15742 0.07102 0.0
C3020 C 0.48392 0.16895 0.08246 0.0
H3021 H 0.5136 0.14629 0.06123 0.0
H3022 H 0.48315 0.15073 0.06208 0.0
C3023 C 0.49451 0.17725 0.09398 0.0
C3024 C 0.59434 0.67405 0.99059 0.0
C3025 C 0.58187 0.66367 0.98341 0.0
H3026 H 0.60447 0.68492 0.01316 0.0
C3027 C 0.57069 0.65505 0.99409 0.0
H3028 H 0.60318 0.68081 0.98267 0.0
C3029 C 0.57124 0.65764 0.01152 0.0
C3030 C 0.58318 0.66866 0.01863 0.0
H3031 H 0.56092 0.64701 0.98894 0.0
H3032 H 0.56199 0.65137 0.01939 0.0
C3033 C 0.5951 0.67639 0.00805 0.0
C3034 C 0.32522 0.59425 0.00668 0.0
C3035 C 0.33339 0.58261 0.01723 0.0
H3036 H 0.32036 0.60211 0.9813 0.0
C3037 C 0.3447 0.57097 0.01008 0.0
H3038 H 0.31645 0.60337 0.01183 0.0
C3039 C 0.34718 0.57045 0.99264 0.0
C3040 C 0.33815 0.58134 0.98199 0.0
H3041 H 0.3513 0.56195 0.01794 0.0
H3042 H 0.35548 0.56091 0.98747 0.0
C3043 C 0.32744 0.5935 0.9892 0.0
C3044 C 0.43064 0.34394 0.01035 0.0
C3045 C 0.41902 0.33266 0.01757 0.0
H3046 H 0.44051 0.35477 0.98767 0.0
C3047 C 0.40724 0.32458 0.0071 0.0
H3048 H 0.43978 0.35046 0.01813 0.0
C3049 C 0.40781 0.32688 0.98962 0.0
C3050 C 0.41994 0.33756 0.98233 0.0
H3051 H 0.39813 0.31584 0.0123 0.0
H3052 H 0.3991 0.31987 0.98178 0.0
C3053 C 0.43099 0.3465 0.99291 0.0
C3054 C 0.65784 0.43017 0.01048 0.0
C3055 C 0.66969 0.41901 0.0175 0.0
H3056 H 0.64646 0.43982 0.98797 0.0
C3057 C 0.67842 0.4079 0.00683 0.0
H3058 H 0.65083 0.43879 0.01843 0.0
C3059 C 0.67611 0.40868 0.98936 0.0
C3060 C 0.66474 0.42031 0.98228 0.0
H3061 H 0.68763 0.39917 0.01188 0.0
H3062 H 0.68356 0.40049 0.98136 0.0
C3063 C 0.65525 0.43069 0.99305 0.0
C3064 C 0.57084 0.34603 0.00766 0.0
C3065 C 0.58135 0.33673 0.01846 0.0
H3066 H 0.56264 0.3502 0.98227 0.0
C3067 C 0.59315 0.32551 0.01143 0.0
H3068 H 0.56158 0.35472 0.01271 0.0
C3069 C 0.59393 0.32311 0.99397 0.0
C3070 C 0.58267 0.33161 0.98327 0.0
H3071 H 0.60145 0.31821 0.01946 0.0
H3072 H 0.60278 0.31399 0.98896 0.0
C3073 C 0.57137 0.34336 0.99024 0.0
C3074 C 0.65711 0.57045 0.9908 0.0
C3075 C 0.66877 0.58176 0.9837 0.0
H3076 H 0.64598 0.56066 0.01338 0.0
C3077 C 0.67743 0.59297 0.99434 0.0
H3078 H 0.65016 0.56175 0.98288 0.0
C3079 C 0.67524 0.59216 0.01182 0.0
C3080 C 0.66406 0.58039 0.01896 0.0
H3081 H 0.6865 0.60182 0.98923 0.0
H3082 H 0.68264 0.60044 0.01977 0.0
C3083 C 0.65463 0.5699 0.00824 0.0
C3084 C 0.4352 0.6593 0.00817 0.0
C3085 C 0.42281 0.66574 0.01906 0.0
H3086 H 0.44448 0.65802 0.98281 0.0
C3087 C 0.4093 0.67497 0.01226 0.0
H3088 H 0.44583 0.65228 0.0131 0.0
C3089 C 0.40837 0.67801 0.99492 0.0
C3090 C 0.42119 0.67228 0.98412 0.0
H3091 H 0.39959 0.6801 0.02039 0.0
H3092 H 0.39795 0.68539 0.99006 0.0
C3093 C 0.43451 0.66272 0.99087 0.0
C3094 C 0.34454 0.42972 0.99065 0.0
C3095 C 0.33315 0.41812 0.98356 0.0
H3096 H 0.35555 0.43968 0.0132 0.0
C3097 C 0.32508 0.40644 0.99415 0.0
H3098 H 0.35105 0.43878 0.98277 0.0
C3099 C 0.32748 0.40711 0.01161 0.0
C3100 C 0.33827 0.41924 0.01877 0.0
H3101 H 0.31626 0.39735 0.98905 0.0
H3102 H 0.32048 0.39849 0.01955 0.0
C3103 C 0.3472 0.43016 0.00806 0.0
C3104 C 0.99311 0.56986 0.65529 0.0
C3105 C 0.98233 0.58026 0.66475 0.0
H3106 H 0.0185 0.56178 0.65087 0.0
C3107 C 0.9894 0.59191 0.6761 0.0
H3108 H 0.98802 0.56071 0.64651 0.0
C3109 C 0.00687 0.59272 0.67839 0.0
C3110 C 0.01756 0.58161 0.66967 0.0
H3111 H 0.9814 0.60012 0.68352 0.0
H3112 H 0.01193 0.60148 0.68757 0.0
C3113 C 0.01054 0.5704 0.65786 0.0
C3114 C 0.43061 0.01167 0.65732 0.0
C3115 C 0.41864 0.01871 0.66836 0.0
H3116 H 0.44104 0.98916 0.64666 0.0
C3117 C 0.40679 0.00806 0.67609 0.0
H3118 H 0.43981 0.01959 0.65105 0.0
C3119 C 0.40764 0.99061 0.67374 0.0
C3120 C 0.42013 0.9835 0.66334 0.0
H3121 H 0.3974 0.01311 0.68463 0.0
H3122 H 0.39885 0.98263 0.6805 0.0
C3123 C 0.43124 0.99425 0.65471 0.0
C3124 C 0.00828 0.43155 0.65497 0.0
C3125 C 0.01905 0.42111 0.66439 0.0
H3126 H 0.98289 0.43965 0.65058 0.0
C3127 C 0.01198 0.40942 0.67569 0.0
H3128 H 0.01336 0.44073 0.64622 0.0
C3129 C 0.99451 0.40861 0.67798 0.0
C3130 C 0.98383 0.41975 0.66931 0.0
H3131 H 0.01999 0.40118 0.68308 0.0
H3132 H 0.98946 0.39981 0.68713 0.0
C3133 C 0.99085 0.431 0.65754 0.0
C3134 C 0.59367 0.99492 0.67797 0.0
C3135 C 0.58075 0.98416 0.67238 0.0
H3136 H 0.60258 0.02035 0.67992 0.0
C3137 C 0.56738 0.99094 0.66292 0.0
H3138 H 0.60414 0.99003 0.68526 0.0
C3139 C 0.56674 0.00823 0.65946 0.0
C3140 C 0.57923 0.01909 0.66577 0.0
H3141 H 0.55734 0.98291 0.65831 0.0
H3142 H 0.55605 0.01318 0.65253 0.0
C3143 C 0.59279 0.01225 0.67489 0.0
C3144 C 0.01063 0.43055 0.3441 0.0
C3145 C 0.01778 0.41895 0.33276 0.0
H3146 H 0.98802 0.44051 0.35499 0.0
C3147 C 0.00723 0.4073 0.32459 0.0
H3148 H 0.01848 0.43959 0.35069 0.0
C3149 C 0.98975 0.40799 0.32688 0.0
C3150 C 0.98254 0.4201 0.33765 0.0
H3151 H 0.01238 0.39821 0.3158 0.0
H3152 H 0.98185 0.39937 0.31982 0.0
C3153 C 0.9932 0.43101 0.34666 0.0
C3154 C 0.59461 0.00751 0.32496 0.0
C3155 C 0.58275 0.01792 0.33299 0.0
H3156 H 0.60288 0.98223 0.32024 0.0
C3157 C 0.57112 0.01063 0.34423 0.0
H3158 H 0.60374 0.01276 0.31625 0.0
C3159 C 0.57084 0.99319 0.34676 0.0
C3160 C 0.58195 0.98267 0.33784 0.0
H3161 H 0.56192 0.01837 0.35072 0.0
H3162 H 0.5613 0.9879 0.35498 0.0
C3163 C 0.5941 0.99003 0.32723 0.0
C3164 C 0.99102 0.57127 0.34373 0.0
C3165 C 0.98403 0.58264 0.33207 0.0
H3166 H 0.01351 0.56137 0.35494 0.0
C3167 C 0.99473 0.5939 0.32356 0.0
H3168 H 0.98305 0.56253 0.35057 0.0
C3169 C 0.01219 0.59305 0.32587 0.0
C3170 C 0.01924 0.58119 0.33701 0.0
H3171 H 0.98969 0.60279 0.31449 0.0
H3172 H 0.02021 0.60136 0.31857 0.0
C3173 C 0.00845 0.57067 0.34632 0.0
C3174 C 0.42968 0.99064 0.34343 0.0
C3175 C 0.41823 0.98348 0.33194 0.0
H3176 H 0.4394 0.01325 0.35453 0.0
C3177 C 0.40657 0.994 0.32375 0.0
H3178 H 0.43872 0.98281 0.35004 0.0
C3179 C 0.40712 0.01147 0.32614 0.0
C3180 C 0.4191 0.0187 0.33704 0.0
H3181 H 0.39758 0.98885 0.31484 0.0
H3182 H 0.39851 0.01936 0.31905 0.0
C3183 C 0.43 0.00806 0.34609 0.0
C3184 C 0.65455 0.99265 0.5704 0.0
C3185 C 0.66363 0.98194 0.58119 0.0
H3186 H 0.65043 0.01799 0.56204 0.0
C3187 C 0.67444 0.98907 0.59331 0.0
H3188 H 0.64617 0.98753 0.56091 0.0
C3189 C 0.6767 0.00654 0.59412 0.0
C3190 C 0.66846 0.01716 0.58259 0.0
H3191 H 0.68155 0.98111 0.60183 0.0
H3192 H 0.68553 0.01163 0.60321 0.0
C3193 C 0.65708 0.01009 0.57098 0.0
C3194 C 0.657 0.99068 0.43005 0.0
C3195 C 0.66844 0.98365 0.41848 0.0
H3196 H 0.64591 0.0132 0.44003 0.0
C3197 C 0.67658 0.99429 0.4069 0.0
H3198 H 0.65042 0.98277 0.43904 0.0
C3199 C 0.67417 0.01174 0.40763 0.0
C3200 C 0.66331 0.01885 0.41971 0.0
H3201 H 0.68546 0.98923 0.39783 0.0
H3202 H 0.68123 0.01972 0.39907 0.0
C3203 C 0.65432 0.0081 0.43054 0.0
C3204 C 0.00723 0.67767 0.40812 0.0
C3205 C 0.01786 0.66908 0.41939 0.0
H3206 H 0.9818 0.68278 0.40057 0.0
C3207 C 0.01077 0.65742 0.43071 0.0
H3208 H 0.01234 0.68673 0.39927 0.0
C3209 C 0.99333 0.65491 0.43123 0.0
C3210 C 0.98262 0.66428 0.4207 0.0
H3211 H 0.01868 0.65052 0.43946 0.0
H3212 H 0.9882 0.64627 0.44049 0.0
C3213 C 0.98976 0.67543 0.4089 0.0
C3214 C 0.32387 0.0072 0.40747 0.0
C3215 C 0.33228 0.01787 0.41883 0.0
H3216 H 0.31907 0.98175 0.39979 0.0
C3217 C 0.34398 0.01086 0.43016 0.0
H3218 H 0.31479 0.01225 0.39859 0.0
C3219 C 0.34669 0.99345 0.43062 0.0
C3220 C 0.33747 0.98268 0.41999 0.0
H3221 H 0.35076 0.0188 0.43898 0.0
H3222 H 0.35533 0.98837 0.4399 0.0
C3223 C 0.3263 0.98975 0.40817 0.0
C3224 C 0.99075 0.34418 0.43041 0.0
C3225 C 0.98366 0.33252 0.41908 0.0
H3226 H 0.01332 0.35527 0.44026 0.0
C3227 C 0.9943 0.32389 0.40786 0.0
H3228 H 0.98283 0.35111 0.43912 0.0
C3229 C 0.01178 0.32607 0.4087 0.0
C3230 C 0.01892 0.33721 0.42051 0.0
H3231 H 0.9892 0.31482 0.399 0.0
H3232 H 0.01975 0.31868 0.40042 0.0
C3233 C 0.00819 0.34664 0.43099 0.0
C3234 C 0.32603 0.01224 0.59209 0.0
C3235 C 0.33722 0.0194 0.58034 0.0
H3236 H 0.31487 0.98962 0.60179 0.0
C3237 C 0.34674 0.0087 0.56992 0.0
H3238 H 0.31856 0.02018 0.60033 0.0
C3239 C 0.34437 0.99125 0.57052 0.0
C3240 C 0.3327 0.98413 0.58182 0.0
H3241 H 0.3554 0.01385 0.5607 0.0
H3242 H 0.35139 0.98334 0.56187 0.0
C3243 C 0.32394 0.99475 0.59296 0.0
C3244 C 0.99296 0.34647 0.57077 0.0
C3245 C 0.98233 0.33761 0.58182 0.0
H3246 H 0.01821 0.35028 0.56198 0.0
C3247 C 0.98956 0.32687 0.59394 0.0
H3248 H 0.98776 0.35478 0.56125 0.0
C3249 C 0.00702 0.32446 0.59451 0.0
C3250 C 0.01754 0.33247 0.58273 0.0
H3251 H 0.98167 0.31991 0.60266 0.0
H3252 H 0.01217 0.31569 0.60362 0.0
C3253 C 0.01038 0.3438 0.57111 0.0
C3254 C 0.99108 0.65755 0.57099 0.0
C3255 C 0.98392 0.66895 0.58253 0.0
H3256 H 0.0137 0.64652 0.56119 0.0
C3257 C 0.99444 0.6771 0.59421 0.0
H3258 H 0.98325 0.65097 0.56193 0.0
C3259 C 0.01191 0.67473 0.59363 0.0
C3260 C 0.01914 0.66389 0.5816 0.0
H3261 H 0.98928 0.68594 0.60326 0.0
H3262 H 0.0198 0.68178 0.60228 0.0
C3263 C 0.00851 0.65491 0.57064 0.0
loop_
_geom_bond_atom_site_label_1
_geom_bond_atom_site_label_2
_geom_bond_distance
_geom_bond_site_symmetry_2
_ccdc_geom_bond_type
O0 Cd1 2.223 . S
O0 C8 1.315 . S
Cd1 O0 2.223 . S
Cd1 O4 2.297 . S
Cd1 O5 2.439 . S
Cd1 O11 2.240 . S
Cd2 O3 2.240 . S
Cd2 O10 2.223 . S
Cd2 O12 2.297 . S
Cd2 O13 2.439 . S
O3 Cd2 2.240 . S
O3 C8 1.279 . S
O4 Cd1 2.297 . S
O4 C6 1.247 . S
O5 Cd1 2.439 . S
O5 C6 1.208 . S
C6 O4 1.247 . S
C6 O5 1.208 . S
C7 O12 1.247 . S
C7 O13 1.208 . S
C8 O0 1.315 . S
C8 O3 1.279 . S
C9 O10 1.315 . S
C9 O11 1.279 . S
O10 Cd2 2.223 . S
O10 C9 1.315 . S
O11 Cd1 2.240 . S
O11 C9 1.279 . S
O12 Cd2 2.297 . S
O12 C7 1.247 . S
O13 Cd2 2.439 . S
O13 C7 1.208 . S
O14 Cd15 2.223 . S
O14 C22 1.315 . S
Cd15 O14 2.223 . S
Cd15 O18 2.297 . S
Cd15 O19 2.439 . S
Cd15 O25 2.240 . S
Cd16 O17 2.240 . S
Cd16 O24 2.223 . S
Cd16 O26 2.297 . S
Cd16 O27 2.439 . S
O17 Cd16 2.240 . S
O17 C22 1.279 . S
O18 Cd15 2.297 . S
O18 C20 1.247 . S
O19 Cd15 2.439 . S
O19 C20 1.208 . S
C20 O18 1.247 . S
C20 O19 1.208 . S
C21 O26 1.247 . S
C21 O27 1.208 . S
C22 O14 1.315 . S
C22 O17 1.279 . S
C23 O24 1.315 . S
C23 O25 1.279 . S
O24 Cd16 2.223 . S
O24 C23 1.315 . S
O25 Cd15 2.240 . S
O25 C23 1.279 . S
O26 Cd16 2.297 . S
O26 C21 1.247 . S
O27 Cd16 2.439 . S
O27 C21 1.208 . S
O28 Cd29 2.223 . S
O28 C36 1.315 . S
Cd29 O28 2.223 . S
Cd29 O32 2.297 . S
Cd29 O33 2.439 . S
Cd29 O39 2.240 . S
Cd30 O31 2.240 . S
Cd30 O38 2.223 . S
Cd30 O40 2.297 . S
Cd30 O41 2.439 . S
O31 Cd30 2.240 . S
O31 C36 1.279 . S
O32 Cd29 2.297 . S
O32 C34 1.247 . S
O33 Cd29 2.439 . S
O33 C34 1.208 . S
C34 O32 1.247 . S
C34 O33 1.208 . S
C35 O40 1.247 . S
C35 O41 1.208 . S
C36 O28 1.315 . S
C36 O31 1.279 . S
C37 O38 1.315 . S
C37 O39 1.279 . S
O38 Cd30 2.223 . S
O38 C37 1.315 . S
O39 Cd29 2.240 . S
O39 C37 1.279 . S
O40 Cd30 2.297 . S
O40 C35 1.247 . S
O41 Cd30 2.439 . S
O41 C35 1.208 . S
O42 Cd43 2.223 . S
O42 C50 1.315 . S
Cd43 O42 2.223 . S
Cd43 O46 2.297 . S
Cd43 O47 2.439 . S
Cd43 O53 2.240 . S
Cd44 O45 2.240 . S
Cd44 O52 2.223 . S
Cd44 O54 2.297 . S
Cd44 O55 2.439 . S
O45 Cd44 2.240 . S
O45 C50 1.279 . S
O46 Cd43 2.297 . S
O46 C48 1.247 . S
O47 Cd43 2.439 . S
O47 C48 1.208 . S
C48 O46 1.247 . S
C48 O47 1.208 . S
C49 O54 1.247 . S
C49 O55 1.208 . S
C50 O42 1.315 . S
C50 O45 1.279 . S
C51 O52 1.315 . S
C51 O53 1.279 . S
O52 Cd44 2.223 . S
O52 C51 1.315 . S
O53 Cd43 2.240 . S
O53 C51 1.279 . S
O54 Cd44 2.297 . S
O54 C49 1.247 . S
O55 Cd44 2.439 . S
O55 C49 1.208 . S
O56 Cd57 2.223 . S
O56 C64 1.315 . S
Cd57 O56 2.223 . S
Cd57 O60 2.297 . S
Cd57 O61 2.439 . S
Cd57 O67 2.240 . S
Cd58 O59 2.240 . S
Cd58 O66 2.223 . S
Cd58 O68 2.297 . S
Cd58 O69 2.439 . S
O59 Cd58 2.240 . S
O59 C64 1.279 . S
O60 Cd57 2.297 . S
O60 C62 1.247 . S
O61 Cd57 2.439 . S
O61 C62 1.208 . S
C62 O60 1.247 . S
C62 O61 1.208 . S
C63 O68 1.247 . S
C63 O69 1.208 . S
C64 O56 1.315 . S
C64 O59 1.279 . S
C65 O66 1.315 . S
C65 O67 1.279 . S
O66 Cd58 2.223 . S
O66 C65 1.315 . S
O67 Cd57 2.240 . S
O67 C65 1.279 . S
O68 Cd58 2.297 . S
O68 C63 1.247 . S
O69 Cd58 2.439 . S
O69 C63 1.208 . S
O70 Cd71 2.223 . S
O70 C78 1.315 . S
Cd71 O70 2.223 . S
Cd71 O74 2.297 . S
Cd71 O75 2.439 . S
Cd71 O81 2.240 . S
Cd72 O73 2.240 . S
Cd72 O80 2.223 . S
Cd72 O82 2.297 . S
Cd72 O83 2.439 . S
O73 Cd72 2.240 . S
O73 C78 1.279 . S
O74 Cd71 2.297 . S
O74 C76 1.247 . S
O75 Cd71 2.439 . S
O75 C76 1.208 . S
C76 O74 1.247 . S
C76 O75 1.208 . S
C77 O82 1.247 . S
C77 O83 1.208 . S
C78 O70 1.315 . S
C78 O73 1.279 . S
C79 O80 1.315 . S
C79 O81 1.279 . S
O80 Cd72 2.223 . S
O80 C79 1.315 . S
O81 Cd71 2.240 . S
O81 C79 1.279 . S
O82 Cd72 2.297 . S
O82 C77 1.247 . S
O83 Cd72 2.439 . S
O83 C77 1.208 . S
O84 Cd85 2.223 . S
O84 C92 1.315 . S
Cd85 O84 2.223 . S
Cd85 O88 2.297 . S
Cd85 O89 2.439 . S
Cd85 O95 2.240 . S
Cd86 O87 2.240 . S
Cd86 O94 2.223 . S
Cd86 O96 2.297 . S
Cd86 O97 2.439 . S
O87 Cd86 2.240 . S
O87 C92 1.279 . S
O88 Cd85 2.297 . S
O88 C90 1.247 . S
O89 Cd85 2.439 . S
O89 C90 1.208 . S
C90 O88 1.247 . S
C90 O89 1.208 . S
C91 O96 1.247 . S
C91 O97 1.208 . S
C92 O84 1.315 . S
C92 O87 1.279 . S
C93 O94 1.315 . S
C93 O95 1.279 . S
O94 Cd86 2.223 . S
O94 C93 1.315 . S
O95 Cd85 2.240 . S
O95 C93 1.279 . S
O96 Cd86 2.297 . S
O96 C91 1.247 . S
O97 Cd86 2.439 . S
O97 C91 1.208 . S
O98 Cd99 2.223 . S
O98 C106 1.315 . S
Cd99 O98 2.223 . S
Cd99 O102 2.297 . S
Cd99 O103 2.439 . S
Cd99 O109 2.240 . S
Cd100 O101 2.240 . S
Cd100 O108 2.223 . S
Cd100 O110 2.297 . S
Cd100 O111 2.439 . S
O101 Cd100 2.240 . S
O101 C106 1.279 . S
O102 Cd99 2.297 . S
O102 C104 1.247 . S
O103 Cd99 2.439 . S
O103 C104 1.208 . S
C104 O102 1.247 . S
C104 O103 1.208 . S
C105 O110 1.247 . S
C105 O111 1.208 . S
C106 O98 1.315 . S
C106 O101 1.279 . S
C107 O108 1.315 . S
C107 O109 1.279 . S
O108 Cd100 2.223 . S
O108 C107 1.315 . S
O109 Cd99 2.240 . S
O109 C107 1.279 . S
O110 Cd100 2.297 . S
O110 C105 1.247 . S
O111 Cd100 2.439 . S
O111 C105 1.208 . S
O112 Cd113 2.223 . S
O112 C120 1.315 . S
Cd113 O112 2.223 . S
Cd113 O116 2.297 . S
Cd113 O117 2.439 . S
Cd113 O123 2.240 . S
Cd114 O115 2.240 . S
Cd114 O122 2.223 . S
Cd114 O124 2.297 . S
Cd114 O125 2.439 . S
O115 Cd114 2.240 . S
O115 C120 1.279 . S
O116 Cd113 2.297 . S
O116 C118 1.247 . S
O117 Cd113 2.439 . S
O117 C118 1.208 . S
C118 O116 1.247 . S
C118 O117 1.208 . S
C119 O124 1.247 . S
C119 O125 1.208 . S
C120 O112 1.315 . S
C120 O115 1.279 . S
C121 O122 1.315 . S
C121 O123 1.279 . S
O122 Cd114 2.223 . S
O122 C121 1.315 . S
O123 Cd113 2.240 . S
O123 C121 1.279 . S
O124 Cd114 2.297 . S
O124 C119 1.247 . S
O125 Cd114 2.439 . S
O125 C119 1.208 . S
O126 Cd127 2.223 . S
O126 C134 1.315 . S
Cd127 O126 2.223 . S
Cd127 O130 2.297 . S
Cd127 O131 2.439 . S
Cd127 O137 2.240 . S
Cd128 O129 2.240 . S
Cd128 O136 2.223 . S
Cd128 O138 2.297 . S
Cd128 O139 2.439 . S
O129 Cd128 2.240 . S
O129 C134 1.279 . S
O130 Cd127 2.297 . S
O130 C132 1.247 . S
O131 Cd127 2.439 . S
O131 C132 1.208 . S
C132 O130 1.247 . S
C132 O131 1.208 . S
C133 O138 1.247 . S
C133 O139 1.208 . S
C134 O126 1.315 . S
C134 O129 1.279 . S
C135 O136 1.315 . S
C135 O137 1.279 . S
O136 Cd128 2.223 . S
O136 C135 1.315 . S
O137 Cd127 2.240 . S
O137 C135 1.279 . S
O138 Cd128 2.297 . S
O138 C133 1.247 . S
O139 Cd128 2.439 . S
O139 C133 1.208 . S
O140 Cd141 2.223 . S
O140 C148 1.315 . S
Cd141 O140 2.223 . S
Cd141 O144 2.297 . S
Cd141 O145 2.439 . S
Cd141 O151 2.240 . S
Cd142 O143 2.240 . S
Cd142 O150 2.223 . S
Cd142 O152 2.297 . S
Cd142 O153 2.439 . S
O143 Cd142 2.240 . S
O143 C148 1.279 . S
O144 Cd141 2.297 . S
O144 C146 1.247 . S
O145 Cd141 2.439 . S
O145 C146 1.208 . S
C146 O144 1.247 . S
C146 O145 1.208 . S
C147 O152 1.247 . S
C147 O153 1.208 . S
C148 O140 1.315 . S
C148 O143 1.279 . S
C149 O150 1.315 . S
C149 O151 1.279 . S
O150 Cd142 2.223 . S
O150 C149 1.315 . S
O151 Cd141 2.240 . S
O151 C149 1.279 . S
O152 Cd142 2.297 . S
O152 C147 1.247 . S
O153 Cd142 2.439 . S
O153 C147 1.208 . S
O154 Cd155 2.223 . S
O154 C162 1.315 . S
Cd155 O154 2.223 . S
Cd155 O158 2.297 . S
Cd155 O159 2.439 . S
Cd155 O165 2.240 . S
Cd156 O157 2.240 . S
Cd156 O164 2.223 . S
Cd156 O166 2.297 . S
Cd156 O167 2.439 . S
O157 Cd156 2.240 . S
O157 C162 1.279 . S
O158 Cd155 2.297 . S
O158 C160 1.247 . S
O159 Cd155 2.439 . S
O159 C160 1.208 . S
C160 O158 1.247 . S
C160 O159 1.208 . S
C161 O166 1.247 . S
C161 O167 1.208 . S
C162 O154 1.315 . S
C162 O157 1.279 . S
C163 O164 1.315 . S
C163 O165 1.279 . S
O164 Cd156 2.223 . S
O164 C163 1.315 . S
O165 Cd155 2.240 . S
O165 C163 1.279 . S
O166 Cd156 2.297 . S
O166 C161 1.247 . S
O167 Cd156 2.439 . S
O167 C161 1.208 . S
O168 Cd169 2.223 . S
O168 C176 1.315 . S
Cd169 O168 2.223 . S
Cd169 O172 2.297 . S
Cd169 O173 2.439 . S
Cd169 O179 2.240 . S
Cd170 O171 2.240 . S
Cd170 O178 2.223 . S
Cd170 O180 2.297 . S
Cd170 O181 2.439 . S
O171 Cd170 2.240 . S
O171 C176 1.279 . S
O172 Cd169 2.297 . S
O172 C174 1.247 . S
O173 Cd169 2.439 . S
O173 C174 1.208 . S
C174 O172 1.247 . S
C174 O173 1.208 . S
C175 O180 1.247 . S
C175 O181 1.208 . S
C176 O168 1.315 . S
C176 O171 1.279 . S
C177 O178 1.315 . S
C177 O179 1.279 . S
O178 Cd170 2.223 . S
O178 C177 1.315 . S
O179 Cd169 2.240 . S
O179 C177 1.279 . S
O180 Cd170 2.297 . S
O180 C175 1.247 . S
O181 Cd170 2.439 . S
O181 C175 1.208 . S
O182 Cd183 2.223 . S
O182 C190 1.315 . S
Cd183 O182 2.223 . S
Cd183 O186 2.297 . S
Cd183 O187 2.439 . S
Cd183 O193 2.240 . S
Cd184 O185 2.240 . S
Cd184 O192 2.223 . S
Cd184 O194 2.297 . S
Cd184 O195 2.439 . S
O185 Cd184 2.240 . S
O185 C190 1.279 . S
O186 Cd183 2.297 . S
O186 C188 1.247 . S
O187 Cd183 2.439 . S
O187 C188 1.208 . S
C188 O186 1.247 . S
C188 O187 1.208 . S
C189 O194 1.247 . S
C189 O195 1.208 . S
C190 O182 1.315 . S
C190 O185 1.279 . S
C191 O192 1.315 . S
C191 O193 1.279 . S
O192 Cd184 2.223 . S
O192 C191 1.315 . S
O193 Cd183 2.240 . S
O193 C191 1.279 . S
O194 Cd184 2.297 . S
O194 C189 1.247 . S
O195 Cd184 2.439 . S
O195 C189 1.208 . S
O196 Cd197 2.223 . S
O196 C204 1.315 . S
Cd197 O196 2.223 . S
Cd197 O200 2.297 . S
Cd197 O201 2.439 . S
Cd197 O207 2.240 . S
Cd198 O199 2.240 . S
Cd198 O206 2.223 . S
Cd198 O208 2.297 . S
Cd198 O209 2.439 . S
O199 Cd198 2.240 . S
O199 C204 1.279 . S
O200 Cd197 2.297 . S
O200 C202 1.247 . S
O201 Cd197 2.439 . S
O201 C202 1.208 . S
C202 O200 1.247 . S
C202 O201 1.208 . S
C203 O208 1.247 . S
C203 O209 1.208 . S
C204 O196 1.315 . S
C204 O199 1.279 . S
C205 O206 1.315 . S
C205 O207 1.279 . S
O206 Cd198 2.223 . S
O206 C205 1.315 . S
O207 Cd197 2.240 . S
O207 C205 1.279 . S
O208 Cd198 2.297 . S
O208 C203 1.247 . S
O209 Cd198 2.439 . S
O209 C203 1.208 . S
O210 Cd211 2.223 . S
O210 C218 1.315 . S
Cd211 O210 2.223 . S
Cd211 O214 2.297 . S
Cd211 O215 2.439 . S
Cd211 O221 2.240 . S
Cd212 O213 2.240 . S
Cd212 O220 2.223 . S
Cd212 O222 2.297 . S
Cd212 O223 2.439 . S
O213 Cd212 2.240 . S
O213 C218 1.279 . S
O214 Cd211 2.297 . S
O214 C216 1.247 . S
O215 Cd211 2.439 . S
O215 C216 1.208 . S
C216 O214 1.247 . S
C216 O215 1.208 . S
C217 O222 1.247 . S
C217 O223 1.208 . S
C218 O210 1.315 . S
C218 O213 1.279 . S
C219 O220 1.315 . S
C219 O221 1.279 . S
O220 Cd212 2.223 . S
O220 C219 1.315 . S
O221 Cd211 2.240 . S
O221 C219 1.279 . S
O222 Cd212 2.297 . S
O222 C217 1.247 . S
O223 Cd212 2.439 . S
O223 C217 1.208 . S
O224 Cd225 2.223 . S
O224 C232 1.315 . S
Cd225 O224 2.223 . S
Cd225 O228 2.297 . S
Cd225 O229 2.439 . S
Cd225 O235 2.240 . S
Cd226 O227 2.240 . S
Cd226 O234 2.223 . S
Cd226 O236 2.297 . S
Cd226 O237 2.439 . S
O227 Cd226 2.240 . S
O227 C232 1.279 . S
O228 Cd225 2.297 . S
O228 C230 1.247 . S
O229 Cd225 2.439 . S
O229 C230 1.208 . S
C230 O228 1.247 . S
C230 O229 1.208 . S
C231 O236 1.247 . S
C231 O237 1.208 . S
C232 O224 1.315 . S
C232 O227 1.279 . S
C233 O234 1.315 . S
C233 O235 1.279 . S
O234 Cd226 2.223 . S
O234 C233 1.315 . S
O235 Cd225 2.240 . S
O235 C233 1.279 . S
O236 Cd226 2.297 . S
O236 C231 1.247 . S
O237 Cd226 2.439 . S
O237 C231 1.208 . S
O238 Cd239 2.223 . S
O238 C246 1.315 . S
Cd239 O238 2.223 . S
Cd239 O242 2.297 . S
Cd239 O243 2.439 . S
Cd239 O249 2.240 . S
Cd240 O241 2.240 . S
Cd240 O248 2.223 . S
Cd240 O250 2.297 . S
Cd240 O251 2.439 . S
O241 Cd240 2.240 . S
O241 C246 1.279 . S
O242 Cd239 2.297 . S
O242 C244 1.247 . S
O243 Cd239 2.439 . S
O243 C244 1.208 . S
C244 O242 1.247 . S
C244 O243 1.208 . S
C245 O250 1.247 . S
C245 O251 1.208 . S
C246 O238 1.315 . S
C246 O241 1.279 . S
C247 O248 1.315 . S
C247 O249 1.279 . S
O248 Cd240 2.223 . S
O248 C247 1.315 . S
O249 Cd239 2.240 . S
O249 C247 1.279 . S
O250 Cd240 2.297 . S
O250 C245 1.247 . S
O251 Cd240 2.439 . S
O251 C245 1.208 . S
O252 Cd253 2.223 . S
O252 C260 1.315 . S
Cd253 O252 2.223 . S
Cd253 O256 2.297 . S
Cd253 O257 2.439 . S
Cd253 O263 2.240 . S
Cd254 O255 2.240 . S
Cd254 O262 2.223 . S
Cd254 O264 2.297 . S
Cd254 O265 2.439 . S
O255 Cd254 2.240 . S
O255 C260 1.279 . S
O256 Cd253 2.297 . S
O256 C258 1.247 . S
O257 Cd253 2.439 . S
O257 C258 1.208 . S
C258 O256 1.247 . S
C258 O257 1.208 . S
C259 O264 1.247 . S
C259 O265 1.208 . S
C260 O252 1.315 . S
C260 O255 1.279 . S
C261 O262 1.315 . S
C261 O263 1.279 . S
O262 Cd254 2.223 . S
O262 C261 1.315 . S
O263 Cd253 2.240 . S
O263 C261 1.279 . S
O264 Cd254 2.297 . S
O264 C259 1.247 . S
O265 Cd254 2.439 . S
O265 C259 1.208 . S
O266 Cd267 2.223 . S
O266 C274 1.315 . S
Cd267 O266 2.223 . S
Cd267 O270 2.297 . S
Cd267 O271 2.439 . S
Cd267 O277 2.240 . S
Cd268 O269 2.240 . S
Cd268 O276 2.223 . S
Cd268 O278 2.297 . S
Cd268 O279 2.439 . S
O269 Cd268 2.240 . S
O269 C274 1.279 . S
O270 Cd267 2.297 . S
O270 C272 1.247 . S
O271 Cd267 2.439 . S
O271 C272 1.208 . S
C272 O270 1.247 . S
C272 O271 1.208 . S
C273 O278 1.247 . S
C273 O279 1.208 . S
C274 O266 1.315 . S
C274 O269 1.279 . S
C275 O276 1.315 . S
C275 O277 1.279 . S
O276 Cd268 2.223 . S
O276 C275 1.315 . S
O277 Cd267 2.240 . S
O277 C275 1.279 . S
O278 Cd268 2.297 . S
O278 C273 1.247 . S
O279 Cd268 2.439 . S
O279 C273 1.208 . S
O280 Cd281 2.223 . S
O280 C288 1.315 . S
Cd281 O280 2.223 . S
Cd281 O284 2.297 . S
Cd281 O285 2.439 . S
Cd281 O291 2.240 . S
Cd282 O283 2.240 . S
Cd282 O290 2.223 . S
Cd282 O292 2.297 . S
Cd282 O293 2.439 . S
O283 Cd282 2.240 . S
O283 C288 1.279 . S
O284 Cd281 2.297 . S
O284 C286 1.247 . S
O285 Cd281 2.439 . S
O285 C286 1.208 . S
C286 O284 1.247 . S
C286 O285 1.208 . S
C287 O292 1.247 . S
C287 O293 1.208 . S
C288 O280 1.315 . S
C288 O283 1.279 . S
C289 O290 1.315 . S
C289 O291 1.279 . S
O290 Cd282 2.223 . S
O290 C289 1.315 . S
O291 Cd281 2.240 . S
O291 C289 1.279 . S
O292 Cd282 2.297 . S
O292 C287 1.247 . S
O293 Cd282 2.439 . S
O293 C287 1.208 . S
O294 Cd295 2.223 . S
O294 C302 1.315 . S
Cd295 O294 2.223 . S
Cd295 O298 2.297 . S
Cd295 O299 2.439 . S
Cd295 O305 2.240 . S
Cd296 O297 2.240 . S
Cd296 O304 2.223 . S
Cd296 O306 2.297 . S
Cd296 O307 2.439 . S
O297 Cd296 2.240 . S
O297 C302 1.279 . S
O298 Cd295 2.297 . S
O298 C300 1.247 . S
O299 Cd295 2.439 . S
O299 C300 1.208 . S
C300 O298 1.247 . S
C300 O299 1.208 . S
C301 O306 1.247 . S
C301 O307 1.208 . S
C302 O294 1.315 . S
C302 O297 1.279 . S
C303 O304 1.315 . S
C303 O305 1.279 . S
O304 Cd296 2.223 . S
O304 C303 1.315 . S
O305 Cd295 2.240 . S
O305 C303 1.279 . S
O306 Cd296 2.297 . S
O306 C301 1.247 . S
O307 Cd296 2.439 . S
O307 C301 1.208 . S
O308 Cd309 2.223 . S
O308 C316 1.315 . S
Cd309 O308 2.223 . S
Cd309 O312 2.297 . S
Cd309 O313 2.439 . S
Cd309 O319 2.240 . S
Cd310 O311 2.240 . S
Cd310 O318 2.223 . S
Cd310 O320 2.297 . S
Cd310 O321 2.439 . S
O311 Cd310 2.240 . S
O311 C316 1.279 . S
O312 Cd309 2.297 . S
O312 C314 1.247 . S
O313 Cd309 2.439 . S
O313 C314 1.208 . S
C314 O312 1.247 . S
C314 O313 1.208 . S
C315 O320 1.247 . S
C315 O321 1.208 . S
C316 O308 1.315 . S
C316 O311 1.279 . S
C317 O318 1.315 . S
C317 O319 1.279 . S
O318 Cd310 2.223 . S
O318 C317 1.315 . S
O319 Cd309 2.240 . S
O319 C317 1.279 . S
O320 Cd310 2.297 . S
O320 C315 1.247 . S
O321 Cd310 2.439 . S
O321 C315 1.208 . S
O322 Cd323 2.223 . S
O322 C330 1.315 . S
Cd323 O322 2.223 . S
Cd323 O326 2.297 . S
Cd323 O327 2.439 . S
Cd323 O333 2.240 . S
Cd324 O325 2.240 . S
Cd324 O332 2.223 . S
Cd324 O334 2.297 . S
Cd324 O335 2.439 . S
O325 Cd324 2.240 . S
O325 C330 1.279 . S
O326 Cd323 2.297 . S
O326 C328 1.247 . S
O327 Cd323 2.439 . S
O327 C328 1.208 . S
C328 O326 1.247 . S
C328 O327 1.208 . S
C329 O334 1.247 . S
C329 O335 1.208 . S
C330 O322 1.315 . S
C330 O325 1.279 . S
C331 O332 1.315 . S
C331 O333 1.279 . S
O332 Cd324 2.223 . S
O332 C331 1.315 . S
O333 Cd323 2.240 . S
O333 C331 1.279 . S
O334 Cd324 2.297 . S
O334 C329 1.247 . S
O335 Cd324 2.439 . S
O335 C329 1.208 . S
O336 Cd337 2.223 . S
O336 C344 1.315 . S
Cd337 O336 2.223 . S
Cd337 O340 2.297 . S
Cd337 O341 2.439 . S
Cd337 O347 2.240 . S
Cd338 O339 2.240 . S
Cd338 O346 2.223 . S
Cd338 O348 2.297 . S
Cd338 O349 2.439 . S
O339 Cd338 2.240 . S
O339 C344 1.279 . S
O340 Cd337 2.297 . S
O340 C342 1.247 . S
O341 Cd337 2.439 . S
O341 C342 1.208 . S
C342 O340 1.247 . S
C342 O341 1.208 . S
C343 O348 1.247 . S
C343 O349 1.208 . S
C344 O336 1.315 . S
C344 O339 1.279 . S
C345 O346 1.315 . S
C345 O347 1.279 . S
O346 Cd338 2.223 . S
O346 C345 1.315 . S
O347 Cd337 2.240 . S
O347 C345 1.279 . S
O348 Cd338 2.297 . S
O348 C343 1.247 . S
O349 Cd338 2.439 . S
O349 C343 1.208 . S
O350 Cd351 2.223 . S
O350 C358 1.315 . S
Cd351 O350 2.223 . S
Cd351 O354 2.297 . S
Cd351 O355 2.439 . S
Cd351 O361 2.240 . S
Cd352 O353 2.240 . S
Cd352 O360 2.223 . S
Cd352 O362 2.297 . S
Cd352 O363 2.439 . S
O353 Cd352 2.240 . S
O353 C358 1.279 . S
O354 Cd351 2.297 . S
O354 C356 1.247 . S
O355 Cd351 2.439 . S
O355 C356 1.208 . S
C356 O354 1.247 . S
C356 O355 1.208 . S
C357 O362 1.247 . S
C357 O363 1.208 . S
C358 O350 1.315 . S
C358 O353 1.279 . S
C359 O360 1.315 . S
C359 O361 1.279 . S
O360 Cd352 2.223 . S
O360 C359 1.315 . S
O361 Cd351 2.240 . S
O361 C359 1.279 . S
O362 Cd352 2.297 . S
O362 C357 1.247 . S
O363 Cd352 2.439 . S
O363 C357 1.208 . S
O364 Cd365 2.223 . S
O364 C372 1.315 . S
Cd365 O364 2.223 . S
Cd365 O368 2.297 . S
Cd365 O369 2.439 . S
Cd365 O375 2.240 . S
Cd366 O367 2.240 . S
Cd366 O374 2.223 . S
Cd366 O376 2.297 . S
Cd366 O377 2.439 . S
O367 Cd366 2.240 . S
O367 C372 1.279 . S
O368 Cd365 2.297 . S
O368 C370 1.247 . S
O369 Cd365 2.439 . S
O369 C370 1.208 . S
C370 O368 1.247 . S
C370 O369 1.208 . S
C371 O376 1.247 . S
C371 O377 1.208 . S
C372 O364 1.315 . S
C372 O367 1.279 . S
C373 O374 1.315 . S
C373 O375 1.279 . S
O374 Cd366 2.223 . S
O374 C373 1.315 . S
O375 Cd365 2.240 . S
O375 C373 1.279 . S
O376 Cd366 2.297 . S
O376 C371 1.247 . S
O377 Cd366 2.439 . S
O377 C371 1.208 . S
O378 Cd379 2.223 . S
O378 C386 1.315 . S
Cd379 O378 2.223 . S
Cd379 O382 2.297 . S
Cd379 O383 2.439 . S
Cd379 O389 2.240 . S
Cd380 O381 2.240 . S
Cd380 O388 2.223 . S
Cd380 O390 2.297 . S
Cd380 O391 2.439 . S
O381 Cd380 2.240 . S
O381 C386 1.279 . S
O382 Cd379 2.297 . S
O382 C384 1.247 . S
O383 Cd379 2.439 . S
O383 C384 1.208 . S
C384 O382 1.247 . S
C384 O383 1.208 . S
C385 O390 1.247 . S
C385 O391 1.208 . S
C386 O378 1.315 . S
C386 O381 1.279 . S
C387 O388 1.315 . S
C387 O389 1.279 . S
O388 Cd380 2.223 . S
O388 C387 1.315 . S
O389 Cd379 2.240 . S
O389 C387 1.279 . S
O390 Cd380 2.297 . S
O390 C385 1.247 . S
O391 Cd380 2.439 . S
O391 C385 1.208 . S
O392 Cd393 2.223 . S
O392 C400 1.315 . S
Cd393 O392 2.223 . S
Cd393 O396 2.297 . S
Cd393 O397 2.439 . S
Cd393 O403 2.240 . S
Cd394 O395 2.240 . S
Cd394 O402 2.223 . S
Cd394 O404 2.297 . S
Cd394 O405 2.439 . S
O395 Cd394 2.240 . S
O395 C400 1.279 . S
O396 Cd393 2.297 . S
O396 C398 1.247 . S
O397 Cd393 2.439 . S
O397 C398 1.208 . S
C398 O396 1.247 . S
C398 O397 1.208 . S
C399 O404 1.247 . S
C399 O405 1.208 . S
C400 O392 1.315 . S
C400 O395 1.279 . S
C401 O402 1.315 . S
C401 O403 1.279 . S
O402 Cd394 2.223 . S
O402 C401 1.315 . S
O403 Cd393 2.240 . S
O403 C401 1.279 . S
O404 Cd394 2.297 . S
O404 C399 1.247 . S
O405 Cd394 2.439 . S
O405 C399 1.208 . S
O406 Cd407 2.223 . S
O406 C414 1.315 . S
Cd407 O406 2.223 . S
Cd407 O410 2.297 . S
Cd407 O411 2.439 . S
Cd407 O417 2.240 . S
Cd408 O409 2.240 . S
Cd408 O416 2.223 . S
Cd408 O418 2.297 . S
Cd408 O419 2.439 . S
O409 Cd408 2.240 . S
O409 C414 1.279 . S
O410 Cd407 2.297 . S
O410 C412 1.247 . S
O411 Cd407 2.439 . S
O411 C412 1.208 . S
C412 O410 1.247 . S
C412 O411 1.208 . S
C413 O418 1.247 . S
C413 O419 1.208 . S
C414 O406 1.315 . S
C414 O409 1.279 . S
C415 O416 1.315 . S
C415 O417 1.279 . S
O416 Cd408 2.223 . S
O416 C415 1.315 . S
O417 Cd407 2.240 . S
O417 C415 1.279 . S
O418 Cd408 2.297 . S
O418 C413 1.247 . S
O419 Cd408 2.439 . S
O419 C413 1.208 . S
O420 Cd421 2.223 . S
O420 C428 1.315 . S
Cd421 O420 2.223 . S
Cd421 O424 2.297 . S
Cd421 O425 2.439 . S
Cd421 O431 2.240 . S
Cd422 O423 2.240 . S
Cd422 O430 2.223 . S
Cd422 O432 2.297 . S
Cd422 O433 2.439 . S
O423 Cd422 2.240 . S
O423 C428 1.279 . S
O424 Cd421 2.297 . S
O424 C426 1.247 . S
O425 Cd421 2.439 . S
O425 C426 1.208 . S
C426 O424 1.247 . S
C426 O425 1.208 . S
C427 O432 1.247 . S
C427 O433 1.208 . S
C428 O420 1.315 . S
C428 O423 1.279 . S
C429 O430 1.315 . S
C429 O431 1.279 . S
O430 Cd422 2.223 . S
O430 C429 1.315 . S
O431 Cd421 2.240 . S
O431 C429 1.279 . S
O432 Cd422 2.297 . S
O432 C427 1.247 . S
O433 Cd422 2.439 . S
O433 C427 1.208 . S
O434 Cd435 2.223 . S
O434 C442 1.315 . S
Cd435 O434 2.223 . S
Cd435 O438 2.297 . S
Cd435 O439 2.439 . S
Cd435 O445 2.240 . S
Cd436 O437 2.240 . S
Cd436 O444 2.223 . S
Cd436 O446 2.297 . S
Cd436 O447 2.439 . S
O437 Cd436 2.240 . S
O437 C442 1.279 . S
O438 Cd435 2.297 . S
O438 C440 1.247 . S
O439 Cd435 2.439 . S
O439 C440 1.208 . S
C440 O438 1.247 . S
C440 O439 1.208 . S
C441 O446 1.247 . S
C441 O447 1.208 . S
C442 O434 1.315 . S
C442 O437 1.279 . S
C443 O444 1.315 . S
C443 O445 1.279 . S
O444 Cd436 2.223 . S
O444 C443 1.315 . S
O445 Cd435 2.240 . S
O445 C443 1.279 . S
O446 Cd436 2.297 . S
O446 C441 1.247 . S
O447 Cd436 2.439 . S
O447 C441 1.208 . S
O448 Cd449 2.223 . S
O448 C456 1.315 . S
Cd449 O448 2.223 . S
Cd449 O452 2.297 . S
Cd449 O453 2.439 . S
Cd449 O459 2.240 . S
Cd450 O451 2.240 . S
Cd450 O458 2.223 . S
Cd450 O460 2.297 . S
Cd450 O461 2.439 . S
O451 Cd450 2.240 . S
O451 C456 1.279 . S
O452 Cd449 2.297 . S
O452 C454 1.247 . S
O453 Cd449 2.439 . S
O453 C454 1.208 . S
C454 O452 1.247 . S
C454 O453 1.208 . S
C455 O460 1.247 . S
C455 O461 1.208 . S
C456 O448 1.315 . S
C456 O451 1.279 . S
C457 O458 1.315 . S
C457 O459 1.279 . S
O458 Cd450 2.223 . S
O458 C457 1.315 . S
O459 Cd449 2.240 . S
O459 C457 1.279 . S
O460 Cd450 2.297 . S
O460 C455 1.247 . S
O461 Cd450 2.439 . S
O461 C455 1.208 . S
O462 Cd463 2.223 . S
O462 C470 1.315 . S
Cd463 O462 2.223 . S
Cd463 O466 2.297 . S
Cd463 O467 2.439 . S
Cd463 O473 2.240 . S
Cd464 O465 2.240 . S
Cd464 O472 2.223 . S
Cd464 O474 2.297 . S
Cd464 O475 2.439 . S
O465 Cd464 2.240 . S
O465 C470 1.279 . S
O466 Cd463 2.297 . S
O466 C468 1.247 . S
O467 Cd463 2.439 . S
O467 C468 1.208 . S
C468 O466 1.247 . S
C468 O467 1.208 . S
C469 O474 1.247 . S
C469 O475 1.208 . S
C470 O462 1.315 . S
C470 O465 1.279 . S
C471 O472 1.315 . S
C471 O473 1.279 . S
O472 Cd464 2.223 . S
O472 C471 1.315 . S
O473 Cd463 2.240 . S
O473 C471 1.279 . S
O474 Cd464 2.297 . S
O474 C469 1.247 . S
O475 Cd464 2.439 . S
O475 C469 1.208 . S
O476 Cd477 2.223 . S
O476 C484 1.315 . S
Cd477 O476 2.223 . S
Cd477 O480 2.297 . S
Cd477 O481 2.439 . S
Cd477 O487 2.240 . S
Cd478 O479 2.240 . S
Cd478 O486 2.223 . S
Cd478 O488 2.297 . S
Cd478 O489 2.439 . S
O479 Cd478 2.240 . S
O479 C484 1.279 . S
O480 Cd477 2.297 . S
O480 C482 1.247 . S
O481 Cd477 2.439 . S
O481 C482 1.208 . S
C482 O480 1.247 . S
C482 O481 1.208 . S
C483 O488 1.247 . S
C483 O489 1.208 . S
C484 O476 1.315 . S
C484 O479 1.279 . S
C485 O486 1.315 . S
C485 O487 1.279 . S
O486 Cd478 2.223 . S
O486 C485 1.315 . S
O487 Cd477 2.240 . S
O487 C485 1.279 . S
O488 Cd478 2.297 . S
O488 C483 1.247 . S
O489 Cd478 2.439 . S
O489 C483 1.208 . S
O490 Cd491 2.223 . S
O490 C498 1.315 . S
Cd491 O490 2.223 . S
Cd491 O494 2.297 . S
Cd491 O495 2.439 . S
Cd491 O501 2.240 . S
Cd492 O493 2.240 . S
Cd492 O500 2.223 . S
Cd492 O502 2.297 . S
Cd492 O503 2.439 . S
O493 Cd492 2.240 . S
O493 C498 1.279 . S
O494 Cd491 2.297 . S
O494 C496 1.247 . S
O495 Cd491 2.439 . S
O495 C496 1.208 . S
C496 O494 1.247 . S
C496 O495 1.208 . S
C497 O502 1.247 . S
C497 O503 1.208 . S
C498 O490 1.315 . S
C498 O493 1.279 . S
C499 O500 1.315 . S
C499 O501 1.279 . S
O500 Cd492 2.223 . S
O500 C499 1.315 . S
O501 Cd491 2.240 . S
O501 C499 1.279 . S
O502 Cd492 2.297 . S
O502 C497 1.247 . S
O503 Cd492 2.439 . S
O503 C497 1.208 . S
O504 Cd505 2.223 . S
O504 C512 1.315 . S
Cd505 O504 2.223 . S
Cd505 O508 2.297 . S
Cd505 O509 2.439 . S
Cd505 O515 2.240 . S
Cd506 O507 2.240 . S
Cd506 O514 2.223 . S
Cd506 O516 2.297 . S
Cd506 O517 2.439 . S
O507 Cd506 2.240 . S
O507 C512 1.279 . S
O508 Cd505 2.297 . S
O508 C510 1.247 . S
O509 Cd505 2.439 . S
O509 C510 1.208 . S
C510 O508 1.247 . S
C510 O509 1.208 . S
C511 O516 1.247 . S
C511 O517 1.208 . S
C512 O504 1.315 . S
C512 O507 1.279 . S
C513 O514 1.315 . S
C513 O515 1.279 . S
O514 Cd506 2.223 . S
O514 C513 1.315 . S
O515 Cd505 2.240 . S
O515 C513 1.279 . S
O516 Cd506 2.297 . S
O516 C511 1.247 . S
O517 Cd506 2.439 . S
O517 C511 1.208 . S
O518 Cd519 2.223 . S
O518 C526 1.315 . S
Cd519 O518 2.223 . S
Cd519 O522 2.297 . S
Cd519 O523 2.439 . S
Cd519 O529 2.240 . S
Cd520 O521 2.240 . S
Cd520 O528 2.223 . S
Cd520 O530 2.297 . S
Cd520 O531 2.439 . S
O521 Cd520 2.240 . S
O521 C526 1.279 . S
O522 Cd519 2.297 . S
O522 C524 1.247 . S
O523 Cd519 2.439 . S
O523 C524 1.208 . S
C524 O522 1.247 . S
C524 O523 1.208 . S
C525 O530 1.247 . S
C525 O531 1.208 . S
C526 O518 1.315 . S
C526 O521 1.279 . S
C527 O528 1.315 . S
C527 O529 1.279 . S
O528 Cd520 2.223 . S
O528 C527 1.315 . S
O529 Cd519 2.240 . S
O529 C527 1.279 . S
O530 Cd520 2.297 . S
O530 C525 1.247 . S
O531 Cd520 2.439 . S
O531 C525 1.208 . S
O532 Cd533 2.223 . S
O532 C540 1.315 . S
Cd533 O532 2.223 . S
Cd533 O536 2.297 . S
Cd533 O537 2.439 . S
Cd533 O543 2.240 . S
Cd534 O535 2.240 . S
Cd534 O542 2.223 . S
Cd534 O544 2.297 . S
Cd534 O545 2.439 . S
O535 Cd534 2.240 . S
O535 C540 1.279 . S
O536 Cd533 2.297 . S
O536 C538 1.247 . S
O537 Cd533 2.439 . S
O537 C538 1.208 . S
C538 O536 1.247 . S
C538 O537 1.208 . S
C539 O544 1.247 . S
C539 O545 1.208 . S
C540 O532 1.315 . S
C540 O535 1.279 . S
C541 O542 1.315 . S
C541 O543 1.279 . S
O542 Cd534 2.223 . S
O542 C541 1.315 . S
O543 Cd533 2.240 . S
O543 C541 1.279 . S
O544 Cd534 2.297 . S
O544 C539 1.247 . S
O545 Cd534 2.439 . S
O545 C539 1.208 . S
O546 Cd547 2.223 . S
O546 C554 1.315 . S
Cd547 O546 2.223 . S
Cd547 O550 2.297 . S
Cd547 O551 2.439 . S
Cd547 O557 2.240 . S
Cd548 O549 2.240 . S
Cd548 O556 2.223 . S
Cd548 O558 2.297 . S
Cd548 O559 2.439 . S
O549 Cd548 2.240 . S
O549 C554 1.279 . S
O550 Cd547 2.297 . S
O550 C552 1.247 . S
O551 Cd547 2.439 . S
O551 C552 1.208 . S
C552 O550 1.247 . S
C552 O551 1.208 . S
C553 O558 1.247 . S
C553 O559 1.208 . S
C554 O546 1.315 . S
C554 O549 1.279 . S
C555 O556 1.315 . S
C555 O557 1.279 . S
O556 Cd548 2.223 . S
O556 C555 1.315 . S
O557 Cd547 2.240 . S
O557 C555 1.279 . S
O558 Cd548 2.297 . S
O558 C553 1.247 . S
O559 Cd548 2.439 . S
O559 C553 1.208 . S
O560 Cd561 2.223 . S
O560 C568 1.315 . S
Cd561 O560 2.223 . S
Cd561 O564 2.297 . S
Cd561 O565 2.439 . S
Cd561 O571 2.240 . S
Cd562 O563 2.240 . S
Cd562 O570 2.223 . S
Cd562 O572 2.297 . S
Cd562 O573 2.439 . S
O563 Cd562 2.240 . S
O563 C568 1.279 . S
O564 Cd561 2.297 . S
O564 C566 1.247 . S
O565 Cd561 2.439 . S
O565 C566 1.208 . S
C566 O564 1.247 . S
C566 O565 1.208 . S
C567 O572 1.247 . S
C567 O573 1.208 . S
C568 O560 1.315 . S
C568 O563 1.279 . S
C569 O570 1.315 . S
C569 O571 1.279 . S
O570 Cd562 2.223 . S
O570 C569 1.315 . S
O571 Cd561 2.240 . S
O571 C569 1.279 . S
O572 Cd562 2.297 . S
O572 C567 1.247 . S
O573 Cd562 2.439 . S
O573 C567 1.208 . S
O574 Cd575 2.223 . S
O574 C582 1.315 . S
Cd575 O574 2.223 . S
Cd575 O578 2.297 . S
Cd575 O579 2.439 . S
Cd575 O585 2.240 . S
Cd576 O577 2.240 . S
Cd576 O584 2.223 . S
Cd576 O586 2.297 . S
Cd576 O587 2.439 . S
O577 Cd576 2.240 . S
O577 C582 1.279 . S
O578 Cd575 2.297 . S
O578 C580 1.247 . S
O579 Cd575 2.439 . S
O579 C580 1.208 . S
C580 O578 1.247 . S
C580 O579 1.208 . S
C581 O586 1.247 . S
C581 O587 1.208 . S
C582 O574 1.315 . S
C582 O577 1.279 . S
C583 O584 1.315 . S
C583 O585 1.279 . S
O584 Cd576 2.223 . S
O584 C583 1.315 . S
O585 Cd575 2.240 . S
O585 C583 1.279 . S
O586 Cd576 2.297 . S
O586 C581 1.247 . S
O587 Cd576 2.439 . S
O587 C581 1.208 . S
O588 Cd589 2.223 . S
O588 C596 1.315 . S
Cd589 O588 2.223 . S
Cd589 O592 2.297 . S
Cd589 O593 2.439 . S
Cd589 O599 2.240 . S
Cd590 O591 2.240 . S
Cd590 O598 2.223 . S
Cd590 O600 2.297 . S
Cd590 O601 2.439 . S
O591 Cd590 2.240 . S
O591 C596 1.279 . S
O592 Cd589 2.297 . S
O592 C594 1.247 . S
O593 Cd589 2.439 . S
O593 C594 1.208 . S
C594 O592 1.247 . S
C594 O593 1.208 . S
C595 O600 1.247 . S
C595 O601 1.208 . S
C596 O588 1.315 . S
C596 O591 1.279 . S
C597 O598 1.315 . S
C597 O599 1.279 . S
O598 Cd590 2.223 . S
O598 C597 1.315 . S
O599 Cd589 2.240 . S
O599 C597 1.279 . S
O600 Cd590 2.297 . S
O600 C595 1.247 . S
O601 Cd590 2.439 . S
O601 C595 1.208 . S
O602 Cd603 2.223 . S
O602 C610 1.315 . S
Cd603 O602 2.223 . S
Cd603 O606 2.297 . S
Cd603 O607 2.439 . S
Cd603 O613 2.240 . S
Cd604 O605 2.240 . S
Cd604 O612 2.223 . S
Cd604 O614 2.297 . S
Cd604 O615 2.439 . S
O605 Cd604 2.240 . S
O605 C610 1.279 . S
O606 Cd603 2.297 . S
O606 C608 1.247 . S
O607 Cd603 2.439 . S
O607 C608 1.208 . S
C608 O606 1.247 . S
C608 O607 1.208 . S
C609 O614 1.247 . S
C609 O615 1.208 . S
C610 O602 1.315 . S
C610 O605 1.279 . S
C611 O612 1.315 . S
C611 O613 1.279 . S
O612 Cd604 2.223 . S
O612 C611 1.315 . S
O613 Cd603 2.240 . S
O613 C611 1.279 . S
O614 Cd604 2.297 . S
O614 C609 1.247 . S
O615 Cd604 2.439 . S
O615 C609 1.208 . S
O616 Cd617 2.223 . S
O616 C624 1.315 . S
Cd617 O616 2.223 . S
Cd617 O620 2.297 . S
Cd617 O621 2.439 . S
Cd617 O627 2.240 . S
Cd618 O619 2.240 . S
Cd618 O626 2.223 . S
Cd618 O628 2.297 . S
Cd618 O629 2.439 . S
O619 Cd618 2.240 . S
O619 C624 1.279 . S
O620 Cd617 2.297 . S
O620 C622 1.247 . S
O621 Cd617 2.439 . S
O621 C622 1.208 . S
C622 O620 1.247 . S
C622 O621 1.208 . S
C623 O628 1.247 . S
C623 O629 1.208 . S
C624 O616 1.315 . S
C624 O619 1.279 . S
C625 O626 1.315 . S
C625 O627 1.279 . S
O626 Cd618 2.223 . S
O626 C625 1.315 . S
O627 Cd617 2.240 . S
O627 C625 1.279 . S
O628 Cd618 2.297 . S
O628 C623 1.247 . S
O629 Cd618 2.439 . S
O629 C623 1.208 . S
O630 Cd631 2.223 . S
O630 C638 1.315 . S
Cd631 O630 2.223 . S
Cd631 O634 2.297 . S
Cd631 O635 2.439 . S
Cd631 O641 2.240 . S
Cd632 O633 2.240 . S
Cd632 O640 2.223 . S
Cd632 O642 2.297 . S
Cd632 O643 2.439 . S
O633 Cd632 2.240 . S
O633 C638 1.279 . S
O634 Cd631 2.297 . S
O634 C636 1.247 . S
O635 Cd631 2.439 . S
O635 C636 1.208 . S
C636 O634 1.247 . S
C636 O635 1.208 . S
C637 O642 1.247 . S
C637 O643 1.208 . S
C638 O630 1.315 . S
C638 O633 1.279 . S
C639 O640 1.315 . S
C639 O641 1.279 . S
O640 Cd632 2.223 . S
O640 C639 1.315 . S
O641 Cd631 2.240 . S
O641 C639 1.279 . S
O642 Cd632 2.297 . S
O642 C637 1.247 . S
O643 Cd632 2.439 . S
O643 C637 1.208 . S
O644 Cd645 2.223 . S
O644 C652 1.315 . S
Cd645 O644 2.223 . S
Cd645 O648 2.297 . S
Cd645 O649 2.439 . S
Cd645 O655 2.240 . S
Cd646 O647 2.240 . S
Cd646 O654 2.223 . S
Cd646 O656 2.297 . S
Cd646 O657 2.439 . S
O647 Cd646 2.240 . S
O647 C652 1.279 . S
O648 Cd645 2.297 . S
O648 C650 1.247 . S
O649 Cd645 2.439 . S
O649 C650 1.208 . S
C650 O648 1.247 . S
C650 O649 1.208 . S
C651 O656 1.247 . S
C651 O657 1.208 . S
C652 O644 1.315 . S
C652 O647 1.279 . S
C653 O654 1.315 . S
C653 O655 1.279 . S
O654 Cd646 2.223 . S
O654 C653 1.315 . S
O655 Cd645 2.240 . S
O655 C653 1.279 . S
O656 Cd646 2.297 . S
O656 C651 1.247 . S
O657 Cd646 2.439 . S
O657 C651 1.208 . S
O658 Cd659 2.223 . S
O658 C666 1.315 . S
Cd659 O658 2.223 . S
Cd659 O662 2.297 . S
Cd659 O663 2.439 . S
Cd659 O669 2.240 . S
Cd660 O661 2.240 . S
Cd660 O668 2.223 . S
Cd660 O670 2.297 . S
Cd660 O671 2.439 . S
O661 Cd660 2.240 . S
O661 C666 1.279 . S
O662 Cd659 2.297 . S
O662 C664 1.247 . S
O663 Cd659 2.439 . S
O663 C664 1.208 . S
C664 O662 1.247 . S
C664 O663 1.208 . S
C665 O670 1.247 . S
C665 O671 1.208 . S
C666 O658 1.315 . S
C666 O661 1.279 . S
C667 O668 1.315 . S
C667 O669 1.279 . S
O668 Cd660 2.223 . S
O668 C667 1.315 . S
O669 Cd659 2.240 . S
O669 C667 1.279 . S
O670 Cd660 2.297 . S
O670 C665 1.247 . S
O671 Cd660 2.439 . S
O671 C665 1.208 . S
O672 Cd673 2.223 . S
O672 C680 1.315 . S
Cd673 O672 2.223 . S
Cd673 O676 2.297 . S
Cd673 O677 2.439 . S
Cd673 O683 2.240 . S
Cd674 O675 2.240 . S
Cd674 O682 2.223 . S
Cd674 O684 2.297 . S
Cd674 O685 2.439 . S
O675 Cd674 2.240 . S
O675 C680 1.279 . S
O676 Cd673 2.297 . S
O676 C678 1.247 . S
O677 Cd673 2.439 . S
O677 C678 1.208 . S
C678 O676 1.247 . S
C678 O677 1.208 . S
C679 O684 1.247 . S
C679 O685 1.208 . S
C680 O672 1.315 . S
C680 O675 1.279 . S
C681 O682 1.315 . S
C681 O683 1.279 . S
O682 Cd674 2.223 . S
O682 C681 1.315 . S
O683 Cd673 2.240 . S
O683 C681 1.279 . S
O684 Cd674 2.297 . S
O684 C679 1.247 . S
O685 Cd674 2.439 . S
O685 C679 1.208 . S
O686 Cd687 2.223 . S
O686 C694 1.315 . S
Cd687 O686 2.223 . S
Cd687 O690 2.297 . S
Cd687 O691 2.439 . S
Cd687 O697 2.240 . S
Cd688 O689 2.240 . S
Cd688 O696 2.223 . S
Cd688 O698 2.297 . S
Cd688 O699 2.439 . S
O689 Cd688 2.240 . S
O689 C694 1.279 . S
O690 Cd687 2.297 . S
O690 C692 1.247 . S
O691 Cd687 2.439 . S
O691 C692 1.208 . S
C692 O690 1.247 . S
C692 O691 1.208 . S
C693 O698 1.247 . S
C693 O699 1.208 . S
C694 O686 1.315 . S
C694 O689 1.279 . S
C695 O696 1.315 . S
C695 O697 1.279 . S
O696 Cd688 2.223 . S
O696 C695 1.315 . S
O697 Cd687 2.240 . S
O697 C695 1.279 . S
O698 Cd688 2.297 . S
O698 C693 1.247 . S
O699 Cd688 2.439 . S
O699 C693 1.208 . S
O700 Cd701 2.223 . S
O700 C708 1.315 . S
Cd701 O700 2.223 . S
Cd701 O704 2.297 . S
Cd701 O705 2.439 . S
Cd701 O711 2.240 . S
Cd702 O703 2.240 . S
Cd702 O710 2.223 . S
Cd702 O712 2.297 . S
Cd702 O713 2.439 . S
O703 Cd702 2.240 . S
O703 C708 1.279 . S
O704 Cd701 2.297 . S
O704 C706 1.247 . S
O705 Cd701 2.439 . S
O705 C706 1.208 . S
C706 O704 1.247 . S
C706 O705 1.208 . S
C707 O712 1.247 . S
C707 O713 1.208 . S
C708 O700 1.315 . S
C708 O703 1.279 . S
C709 O710 1.315 . S
C709 O711 1.279 . S
O710 Cd702 2.223 . S
O710 C709 1.315 . S
O711 Cd701 2.240 . S
O711 C709 1.279 . S
O712 Cd702 2.297 . S
O712 C707 1.247 . S
O713 Cd702 2.439 . S
O713 C707 1.208 . S
O714 Cd715 2.223 . S
O714 C722 1.315 . S
Cd715 O714 2.223 . S
Cd715 O718 2.297 . S
Cd715 O719 2.439 . S
Cd715 O725 2.240 . S
Cd716 O717 2.240 . S
Cd716 O724 2.223 . S
Cd716 O726 2.297 . S
Cd716 O727 2.439 . S
O717 Cd716 2.240 . S
O717 C722 1.279 . S
O718 Cd715 2.297 . S
O718 C720 1.247 . S
O719 Cd715 2.439 . S
O719 C720 1.208 . S
C720 O718 1.247 . S
C720 O719 1.208 . S
C721 O726 1.247 . S
C721 O727 1.208 . S
C722 O714 1.315 . S
C722 O717 1.279 . S
C723 O724 1.315 . S
C723 O725 1.279 . S
O724 Cd716 2.223 . S
O724 C723 1.315 . S
O725 Cd715 2.240 . S
O725 C723 1.279 . S
O726 Cd716 2.297 . S
O726 C721 1.247 . S
O727 Cd716 2.439 . S
O727 C721 1.208 . S
O728 Cd729 2.223 . S
O728 C736 1.315 . S
Cd729 O728 2.223 . S
Cd729 O732 2.297 . S
Cd729 O733 2.439 . S
Cd729 O739 2.240 . S
Cd730 O731 2.240 . S
Cd730 O738 2.223 . S
Cd730 O740 2.297 . S
Cd730 O741 2.439 . S
O731 Cd730 2.240 . S
O731 C736 1.279 . S
O732 Cd729 2.297 . S
O732 C734 1.247 . S
O733 Cd729 2.439 . S
O733 C734 1.208 . S
C734 O732 1.247 . S
C734 O733 1.208 . S
C735 O740 1.247 . S
C735 O741 1.208 . S
C736 O728 1.315 . S
C736 O731 1.279 . S
C737 O738 1.315 . S
C737 O739 1.279 . S
O738 Cd730 2.223 . S
O738 C737 1.315 . S
O739 Cd729 2.240 . S
O739 C737 1.279 . S
O740 Cd730 2.297 . S
O740 C735 1.247 . S
O741 Cd730 2.439 . S
O741 C735 1.208 . S
O742 Cd743 2.223 . S
O742 C750 1.315 . S
Cd743 O742 2.223 . S
Cd743 O746 2.297 . S
Cd743 O747 2.439 . S
Cd743 O753 2.240 . S
Cd744 O745 2.240 . S
Cd744 O752 2.223 . S
Cd744 O754 2.297 . S
Cd744 O755 2.439 . S
O745 Cd744 2.240 . S
O745 C750 1.279 . S
O746 Cd743 2.297 . S
O746 C748 1.247 . S
O747 Cd743 2.439 . S
O747 C748 1.208 . S
C748 O746 1.247 . S
C748 O747 1.208 . S
C749 O754 1.247 . S
C749 O755 1.208 . S
C750 O742 1.315 . S
C750 O745 1.279 . S
C751 O752 1.315 . S
C751 O753 1.279 . S
O752 Cd744 2.223 . S
O752 C751 1.315 . S
O753 Cd743 2.240 . S
O753 C751 1.279 . S
O754 Cd744 2.297 . S
O754 C749 1.247 . S
O755 Cd744 2.439 . S
O755 C749 1.208 . S
O756 Cd757 2.223 . S
O756 C764 1.315 . S
Cd757 O756 2.223 . S
Cd757 O760 2.297 . S
Cd757 O761 2.439 . S
Cd757 O767 2.240 . S
Cd758 O759 2.240 . S
Cd758 O766 2.223 . S
Cd758 O768 2.297 . S
Cd758 O769 2.439 . S
O759 Cd758 2.240 . S
O759 C764 1.279 . S
O760 Cd757 2.297 . S
O760 C762 1.247 . S
O761 Cd757 2.439 . S
O761 C762 1.208 . S
C762 O760 1.247 . S
C762 O761 1.208 . S
C763 O768 1.247 . S
C763 O769 1.208 . S
C764 O756 1.315 . S
C764 O759 1.279 . S
C765 O766 1.315 . S
C765 O767 1.279 . S
O766 Cd758 2.223 . S
O766 C765 1.315 . S
O767 Cd757 2.240 . S
O767 C765 1.279 . S
O768 Cd758 2.297 . S
O768 C763 1.247 . S
O769 Cd758 2.439 . S
O769 C763 1.208 . S
O770 Cd771 2.223 . S
O770 C778 1.315 . S
Cd771 O770 2.223 . S
Cd771 O774 2.297 . S
Cd771 O775 2.439 . S
Cd771 O781 2.240 . S
Cd772 O773 2.240 . S
Cd772 O780 2.223 . S
Cd772 O782 2.297 . S
Cd772 O783 2.439 . S
O773 Cd772 2.240 . S
O773 C778 1.279 . S
O774 Cd771 2.297 . S
O774 C776 1.247 . S
O775 Cd771 2.439 . S
O775 C776 1.208 . S
C776 O774 1.247 . S
C776 O775 1.208 . S
C777 O782 1.247 . S
C777 O783 1.208 . S
C778 O770 1.315 . S
C778 O773 1.279 . S
C779 O780 1.315 . S
C779 O781 1.279 . S
O780 Cd772 2.223 . S
O780 C779 1.315 . S
O781 Cd771 2.240 . S
O781 C779 1.279 . S
O782 Cd772 2.297 . S
O782 C777 1.247 . S
O783 Cd772 2.439 . S
O783 C777 1.208 . S
O784 Cd785 2.223 . S
O784 C792 1.315 . S
Cd785 O784 2.223 . S
Cd785 O788 2.297 . S
Cd785 O789 2.439 . S
Cd785 O795 2.240 . S
Cd786 O787 2.240 . S
Cd786 O794 2.223 . S
Cd786 O796 2.297 . S
Cd786 O797 2.439 . S
O787 Cd786 2.240 . S
O787 C792 1.279 . S
O788 Cd785 2.297 . S
O788 C790 1.247 . S
O789 Cd785 2.439 . S
O789 C790 1.208 . S
C790 O788 1.247 . S
C790 O789 1.208 . S
C791 O796 1.247 . S
C791 O797 1.208 . S
C792 O784 1.315 . S
C792 O787 1.279 . S
C793 O794 1.315 . S
C793 O795 1.279 . S
O794 Cd786 2.223 . S
O794 C793 1.315 . S
O795 Cd785 2.240 . S
O795 C793 1.279 . S
O796 Cd786 2.297 . S
O796 C791 1.247 . S
O797 Cd786 2.439 . S
O797 C791 1.208 . S
O798 Cd799 2.223 . S
O798 C806 1.315 . S
Cd799 O798 2.223 . S
Cd799 O802 2.297 . S
Cd799 O803 2.439 . S
Cd799 O809 2.240 . S
Cd800 O801 2.240 . S
Cd800 O808 2.223 . S
Cd800 O810 2.297 . S
Cd800 O811 2.439 . S
O801 Cd800 2.240 . S
O801 C806 1.279 . S
O802 Cd799 2.297 . S
O802 C804 1.247 . S
O803 Cd799 2.439 . S
O803 C804 1.208 . S
C804 O802 1.247 . S
C804 O803 1.208 . S
C805 O810 1.247 . S
C805 O811 1.208 . S
C806 O798 1.315 . S
C806 O801 1.279 . S
C807 O808 1.315 . S
C807 O809 1.279 . S
O808 Cd800 2.223 . S
O808 C807 1.315 . S
O809 Cd799 2.240 . S
O809 C807 1.279 . S
O810 Cd800 2.297 . S
O810 C805 1.247 . S
O811 Cd800 2.439 . S
O811 C805 1.208 . S
O812 Cd813 2.223 . S
O812 C820 1.315 . S
Cd813 O812 2.223 . S
Cd813 O816 2.297 . S
Cd813 O817 2.439 . S
Cd813 O823 2.240 . S
Cd814 O815 2.240 . S
Cd814 O822 2.223 . S
Cd814 O824 2.297 . S
Cd814 O825 2.439 . S
O815 Cd814 2.240 . S
O815 C820 1.279 . S
O816 Cd813 2.297 . S
O816 C818 1.247 . S
O817 Cd813 2.439 . S
O817 C818 1.208 . S
C818 O816 1.247 . S
C818 O817 1.208 . S
C819 O824 1.247 . S
C819 O825 1.208 . S
C820 O812 1.315 . S
C820 O815 1.279 . S
C821 O822 1.315 . S
C821 O823 1.279 . S
O822 Cd814 2.223 . S
O822 C821 1.315 . S
O823 Cd813 2.240 . S
O823 C821 1.279 . S
O824 Cd814 2.297 . S
O824 C819 1.247 . S
O825 Cd814 2.439 . S
O825 C819 1.208 . S
O826 Cd827 2.223 . S
O826 C834 1.315 . S
Cd827 O826 2.223 . S
Cd827 O830 2.297 . S
Cd827 O831 2.439 . S
Cd827 O837 2.240 . S
Cd828 O829 2.240 . S
Cd828 O836 2.223 . S
Cd828 O838 2.297 . S
Cd828 O839 2.439 . S
O829 Cd828 2.240 . S
O829 C834 1.279 . S
O830 Cd827 2.297 . S
O830 C832 1.247 . S
O831 Cd827 2.439 . S
O831 C832 1.208 . S
C832 O830 1.247 . S
C832 O831 1.208 . S
C833 O838 1.247 . S
C833 O839 1.208 . S
C834 O826 1.315 . S
C834 O829 1.279 . S
C835 O836 1.315 . S
C835 O837 1.279 . S
O836 Cd828 2.223 . S
O836 C835 1.315 . S
O837 Cd827 2.240 . S
O837 C835 1.279 . S
O838 Cd828 2.297 . S
O838 C833 1.247 . S
O839 Cd828 2.439 . S
O839 C833 1.208 . S
O840 Cd841 2.223 . S
O840 C848 1.315 . S
Cd841 O840 2.223 . S
Cd841 O844 2.297 . S
Cd841 O845 2.439 . S
Cd841 O851 2.240 . S
Cd842 O843 2.240 . S
Cd842 O850 2.223 . S
Cd842 O852 2.297 . S
Cd842 O853 2.439 . S
O843 Cd842 2.240 . S
O843 C848 1.279 . S
O844 Cd841 2.297 . S
O844 C846 1.247 . S
O845 Cd841 2.439 . S
O845 C846 1.208 . S
C846 O844 1.247 . S
C846 O845 1.208 . S
C847 O852 1.247 . S
C847 O853 1.208 . S
C848 O840 1.315 . S
C848 O843 1.279 . S
C849 O850 1.315 . S
C849 O851 1.279 . S
O850 Cd842 2.223 . S
O850 C849 1.315 . S
O851 Cd841 2.240 . S
O851 C849 1.279 . S
O852 Cd842 2.297 . S
O852 C847 1.247 . S
O853 Cd842 2.439 . S
O853 C847 1.208 . S
O854 Cd855 2.223 . S
O854 C862 1.315 . S
Cd855 O854 2.223 . S
Cd855 O858 2.297 . S
Cd855 O859 2.439 . S
Cd855 O865 2.240 . S
Cd856 O857 2.240 . S
Cd856 O864 2.223 . S
Cd856 O866 2.297 . S
Cd856 O867 2.439 . S
O857 Cd856 2.240 . S
O857 C862 1.279 . S
O858 Cd855 2.297 . S
O858 C860 1.247 . S
O859 Cd855 2.439 . S
O859 C860 1.208 . S
C860 O858 1.247 . S
C860 O859 1.208 . S
C861 O866 1.247 . S
C861 O867 1.208 . S
C862 O854 1.315 . S
C862 O857 1.279 . S
C863 O864 1.315 . S
C863 O865 1.279 . S
O864 Cd856 2.223 . S
O864 C863 1.315 . S
O865 Cd855 2.240 . S
O865 C863 1.279 . S
O866 Cd856 2.297 . S
O866 C861 1.247 . S
O867 Cd856 2.439 . S
O867 C861 1.208 . S
O868 Cd869 2.223 . S
O868 C876 1.315 . S
Cd869 O868 2.223 . S
Cd869 O872 2.297 . S
Cd869 O873 2.439 . S
Cd869 O879 2.240 . S
Cd870 O871 2.240 . S
Cd870 O878 2.223 . S
Cd870 O880 2.297 . S
Cd870 O881 2.439 . S
O871 Cd870 2.240 . S
O871 C876 1.279 . S
O872 Cd869 2.297 . S
O872 C874 1.247 . S
O873 Cd869 2.439 . S
O873 C874 1.208 . S
C874 O872 1.247 . S
C874 O873 1.208 . S
C875 O880 1.247 . S
C875 O881 1.208 . S
C876 O868 1.315 . S
C876 O871 1.279 . S
C877 O878 1.315 . S
C877 O879 1.279 . S
O878 Cd870 2.223 . S
O878 C877 1.315 . S
O879 Cd869 2.240 . S
O879 C877 1.279 . S
O880 Cd870 2.297 . S
O880 C875 1.247 . S
O881 Cd870 2.439 . S
O881 C875 1.208 . S
O882 Cd883 2.223 . S
O882 C890 1.315 . S
Cd883 O882 2.223 . S
Cd883 O886 2.297 . S
Cd883 O887 2.439 . S
Cd883 O893 2.240 . S
Cd884 O885 2.240 . S
Cd884 O892 2.223 . S
Cd884 O894 2.297 . S
Cd884 O895 2.439 . S
O885 Cd884 2.240 . S
O885 C890 1.279 . S
O886 Cd883 2.297 . S
O886 C888 1.247 . S
O887 Cd883 2.439 . S
O887 C888 1.208 . S
C888 O886 1.247 . S
C888 O887 1.208 . S
C889 O894 1.247 . S
C889 O895 1.208 . S
C890 O882 1.315 . S
C890 O885 1.279 . S
C891 O892 1.315 . S
C891 O893 1.279 . S
O892 Cd884 2.223 . S
O892 C891 1.315 . S
O893 Cd883 2.240 . S
O893 C891 1.279 . S
O894 Cd884 2.297 . S
O894 C889 1.247 . S
O895 Cd884 2.439 . S
O895 C889 1.208 . S
O896 Cd897 2.223 . S
O896 C904 1.315 . S
Cd897 O896 2.223 . S
Cd897 O900 2.297 . S
Cd897 O901 2.439 . S
Cd897 O907 2.240 . S
Cd898 O899 2.240 . S
Cd898 O906 2.223 . S
Cd898 O908 2.297 . S
Cd898 O909 2.439 . S
O899 Cd898 2.240 . S
O899 C904 1.279 . S
O900 Cd897 2.297 . S
O900 C902 1.247 . S
O901 Cd897 2.439 . S
O901 C902 1.208 . S
C902 O900 1.247 . S
C902 O901 1.208 . S
C903 O908 1.247 . S
C903 O909 1.208 . S
C904 O896 1.315 . S
C904 O899 1.279 . S
C905 O906 1.315 . S
C905 O907 1.279 . S
O906 Cd898 2.223 . S
O906 C905 1.315 . S
O907 Cd897 2.240 . S
O907 C905 1.279 . S
O908 Cd898 2.297 . S
O908 C903 1.247 . S
O909 Cd898 2.439 . S
O909 C903 1.208 . S
O910 Cd911 2.223 . S
O910 C918 1.315 . S
Cd911 O910 2.223 . S
Cd911 O914 2.297 . S
Cd911 O915 2.439 . S
Cd911 O921 2.240 . S
Cd912 O913 2.240 . S
Cd912 O920 2.223 . S
Cd912 O922 2.297 . S
Cd912 O923 2.439 . S
O913 Cd912 2.240 . S
O913 C918 1.279 . S
O914 Cd911 2.297 . S
O914 C916 1.247 . S
O915 Cd911 2.439 . S
O915 C916 1.208 . S
C916 O914 1.247 . S
C916 O915 1.208 . S
C917 O922 1.247 . S
C917 O923 1.208 . S
C918 O910 1.315 . S
C918 O913 1.279 . S
C919 O920 1.315 . S
C919 O921 1.279 . S
O920 Cd912 2.223 . S
O920 C919 1.315 . S
O921 Cd911 2.240 . S
O921 C919 1.279 . S
O922 Cd912 2.297 . S
O922 C917 1.247 . S
O923 Cd912 2.439 . S
O923 C917 1.208 . S
O924 Cd925 2.223 . S
O924 C932 1.315 . S
Cd925 O924 2.223 . S
Cd925 O928 2.297 . S
Cd925 O929 2.439 . S
Cd925 O935 2.240 . S
Cd926 O927 2.240 . S
Cd926 O934 2.223 . S
Cd926 O936 2.297 . S
Cd926 O937 2.439 . S
O927 Cd926 2.240 . S
O927 C932 1.279 . S
O928 Cd925 2.297 . S
O928 C930 1.247 . S
O929 Cd925 2.439 . S
O929 C930 1.208 . S
C930 O928 1.247 . S
C930 O929 1.208 . S
C931 O936 1.247 . S
C931 O937 1.208 . S
C932 O924 1.315 . S
C932 O927 1.279 . S
C933 O934 1.315 . S
C933 O935 1.279 . S
O934 Cd926 2.223 . S
O934 C933 1.315 . S
O935 Cd925 2.240 . S
O935 C933 1.279 . S
O936 Cd926 2.297 . S
O936 C931 1.247 . S
O937 Cd926 2.439 . S
O937 C931 1.208 . S
O938 Cd939 2.223 . S
O938 C946 1.315 . S
Cd939 O938 2.223 . S
Cd939 O942 2.297 . S
Cd939 O943 2.439 . S
Cd939 O949 2.240 . S
Cd940 O941 2.240 . S
Cd940 O948 2.223 . S
Cd940 O950 2.297 . S
Cd940 O951 2.439 . S
O941 Cd940 2.240 . S
O941 C946 1.279 . S
O942 Cd939 2.297 . S
O942 C944 1.247 . S
O943 Cd939 2.439 . S
O943 C944 1.208 . S
C944 O942 1.247 . S
C944 O943 1.208 . S
C945 O950 1.247 . S
C945 O951 1.208 . S
C946 O938 1.315 . S
C946 O941 1.279 . S
C947 O948 1.315 . S
C947 O949 1.279 . S
O948 Cd940 2.223 . S
O948 C947 1.315 . S
O949 Cd939 2.240 . S
O949 C947 1.279 . S
O950 Cd940 2.297 . S
O950 C945 1.247 . S
O951 Cd940 2.439 . S
O951 C945 1.208 . S
O952 Cd953 2.223 . S
O952 C960 1.315 . S
Cd953 O952 2.223 . S
Cd953 O956 2.297 . S
Cd953 O957 2.439 . S
Cd953 O963 2.240 . S
Cd954 O955 2.240 . S
Cd954 O962 2.223 . S
Cd954 O964 2.297 . S
Cd954 O965 2.439 . S
O955 Cd954 2.240 . S
O955 C960 1.279 . S
O956 Cd953 2.297 . S
O956 C958 1.247 . S
O957 Cd953 2.439 . S
O957 C958 1.208 . S
C958 O956 1.247 . S
C958 O957 1.208 . S
C959 O964 1.247 . S
C959 O965 1.208 . S
C960 O952 1.315 . S
C960 O955 1.279 . S
C961 O962 1.315 . S
C961 O963 1.279 . S
O962 Cd954 2.223 . S
O962 C961 1.315 . S
O963 Cd953 2.240 . S
O963 C961 1.279 . S
O964 Cd954 2.297 . S
O964 C959 1.247 . S
O965 Cd954 2.439 . S
O965 C959 1.208 . S
O966 Cd967 2.223 . S
O966 C974 1.315 . S
Cd967 O966 2.223 . S
Cd967 O970 2.297 . S
Cd967 O971 2.439 . S
Cd967 O977 2.240 . S
Cd968 O969 2.240 . S
Cd968 O976 2.223 . S
Cd968 O978 2.297 . S
Cd968 O979 2.439 . S
O969 Cd968 2.240 . S
O969 C974 1.279 . S
O970 Cd967 2.297 . S
O970 C972 1.247 . S
O971 Cd967 2.439 . S
O971 C972 1.208 . S
C972 O970 1.247 . S
C972 O971 1.208 . S
C973 O978 1.247 . S
C973 O979 1.208 . S
C974 O966 1.315 . S
C974 O969 1.279 . S
C975 O976 1.315 . S
C975 O977 1.279 . S
O976 Cd968 2.223 . S
O976 C975 1.315 . S
O977 Cd967 2.240 . S
O977 C975 1.279 . S
O978 Cd968 2.297 . S
O978 C973 1.247 . S
O979 Cd968 2.439 . S
O979 C973 1.208 . S
O980 Cd981 2.223 . S
O980 C988 1.315 . S
Cd981 O980 2.223 . S
Cd981 O984 2.297 . S
Cd981 O985 2.439 . S
Cd981 O991 2.240 . S
Cd982 O983 2.240 . S
Cd982 O990 2.223 . S
Cd982 O992 2.297 . S
Cd982 O993 2.439 . S
O983 Cd982 2.240 . S
O983 C988 1.279 . S
O984 Cd981 2.297 . S
O984 C986 1.247 . S
O985 Cd981 2.439 . S
O985 C986 1.208 . S
C986 O984 1.247 . S
C986 O985 1.208 . S
C987 O992 1.247 . S
C987 O993 1.208 . S
C988 O980 1.315 . S
C988 O983 1.279 . S
C989 O990 1.315 . S
C989 O991 1.279 . S
O990 Cd982 2.223 . S
O990 C989 1.315 . S
O991 Cd981 2.240 . S
O991 C989 1.279 . S
O992 Cd982 2.297 . S
O992 C987 1.247 . S
O993 Cd982 2.439 . S
O993 C987 1.208 . S
O994 Cd995 2.223 . S
O994 C1002 1.315 . S
Cd995 O994 2.223 . S
Cd995 O998 2.297 . S
Cd995 O999 2.439 . S
Cd995 O1005 2.240 . S
Cd996 O997 2.240 . S
Cd996 O1004 2.223 . S
Cd996 O1006 2.297 . S
Cd996 O1007 2.439 . S
O997 Cd996 2.240 . S
O997 C1002 1.279 . S
O998 Cd995 2.297 . S
O998 C1000 1.247 . S
O999 Cd995 2.439 . S
O999 C1000 1.208 . S
C1000 O998 1.247 . S
C1000 O999 1.208 . S
C1001 O1006 1.247 . S
C1001 O1007 1.208 . S
C1002 O994 1.315 . S
C1002 O997 1.279 . S
C1003 O1004 1.315 . S
C1003 O1005 1.279 . S
O1004 Cd996 2.223 . S
O1004 C1003 1.315 . S
O1005 Cd995 2.240 . S
O1005 C1003 1.279 . S
O1006 Cd996 2.297 . S
O1006 C1001 1.247 . S
O1007 Cd996 2.439 . S
O1007 C1001 1.208 . S
O1008 Cd1009 2.223 . S
O1008 C1016 1.315 . S
Cd1009 O1008 2.223 . S
Cd1009 O1012 2.297 . S
Cd1009 O1013 2.439 . S
Cd1009 O1019 2.240 . S
Cd1010 O1011 2.240 . S
Cd1010 O1018 2.223 . S
Cd1010 O1020 2.297 . S
Cd1010 O1021 2.439 . S
O1011 Cd1010 2.240 . S
O1011 C1016 1.279 . S
O1012 Cd1009 2.297 . S
O1012 C1014 1.247 . S
O1013 Cd1009 2.439 . S
O1013 C1014 1.208 . S
C1014 O1012 1.247 . S
C1014 O1013 1.208 . S
C1015 O1020 1.247 . S
C1015 O1021 1.208 . S
C1016 O1008 1.315 . S
C1016 O1011 1.279 . S
C1017 O1018 1.315 . S
C1017 O1019 1.279 . S
O1018 Cd1010 2.223 . S
O1018 C1017 1.315 . S
O1019 Cd1009 2.240 . S
O1019 C1017 1.279 . S
O1020 Cd1010 2.297 . S
O1020 C1015 1.247 . S
O1021 Cd1010 2.439 . S
O1021 C1015 1.208 . S
O1022 Cd1023 2.223 . S
O1022 C1030 1.315 . S
Cd1023 O1022 2.223 . S
Cd1023 O1026 2.297 . S
Cd1023 O1027 2.439 . S
Cd1023 O1033 2.240 . S
Cd1024 O1025 2.240 . S
Cd1024 O1032 2.223 . S
Cd1024 O1034 2.297 . S
Cd1024 O1035 2.439 . S
O1025 Cd1024 2.240 . S
O1025 C1030 1.279 . S
O1026 Cd1023 2.297 . S
O1026 C1028 1.247 . S
O1027 Cd1023 2.439 . S
O1027 C1028 1.208 . S
C1028 O1026 1.247 . S
C1028 O1027 1.208 . S
C1029 O1034 1.247 . S
C1029 O1035 1.208 . S
C1030 O1022 1.315 . S
C1030 O1025 1.279 . S
C1031 O1032 1.315 . S
C1031 O1033 1.279 . S
O1032 Cd1024 2.223 . S
O1032 C1031 1.315 . S
O1033 Cd1023 2.240 . S
O1033 C1031 1.279 . S
O1034 Cd1024 2.297 . S
O1034 C1029 1.247 . S
O1035 Cd1024 2.439 . S
O1035 C1029 1.208 . S
O1036 Cd1037 2.223 . S
O1036 C1044 1.315 . S
Cd1037 O1036 2.223 . S
Cd1037 O1040 2.297 . S
Cd1037 O1041 2.439 . S
Cd1037 O1047 2.240 . S
Cd1038 O1039 2.240 . S
Cd1038 O1046 2.223 . S
Cd1038 O1048 2.297 . S
Cd1038 O1049 2.439 . S
O1039 Cd1038 2.240 . S
O1039 C1044 1.279 . S
O1040 Cd1037 2.297 . S
O1040 C1042 1.247 . S
O1041 Cd1037 2.439 . S
O1041 C1042 1.208 . S
C1042 O1040 1.247 . S
C1042 O1041 1.208 . S
C1043 O1048 1.247 . S
C1043 O1049 1.208 . S
C1044 O1036 1.315 . S
C1044 O1039 1.279 . S
C1045 O1046 1.315 . S
C1045 O1047 1.279 . S
O1046 Cd1038 2.223 . S
O1046 C1045 1.315 . S
O1047 Cd1037 2.240 . S
O1047 C1045 1.279 . S
O1048 Cd1038 2.297 . S
O1048 C1043 1.247 . S
O1049 Cd1038 2.439 . S
O1049 C1043 1.208 . S
O1050 Cd1051 2.223 . S
O1050 C1058 1.315 . S
Cd1051 O1050 2.223 . S
Cd1051 O1054 2.297 . S
Cd1051 O1055 2.439 . S
Cd1051 O1061 2.240 . S
Cd1052 O1053 2.240 . S
Cd1052 O1060 2.223 . S
Cd1052 O1062 2.297 . S
Cd1052 O1063 2.439 . S
O1053 Cd1052 2.240 . S
O1053 C1058 1.279 . S
O1054 Cd1051 2.297 . S
O1054 C1056 1.247 . S
O1055 Cd1051 2.439 . S
O1055 C1056 1.208 . S
C1056 O1054 1.247 . S
C1056 O1055 1.208 . S
C1057 O1062 1.247 . S
C1057 O1063 1.208 . S
C1058 O1050 1.315 . S
C1058 O1053 1.279 . S
C1059 O1060 1.315 . S
C1059 O1061 1.279 . S
O1060 Cd1052 2.223 . S
O1060 C1059 1.315 . S
O1061 Cd1051 2.240 . S
O1061 C1059 1.279 . S
O1062 Cd1052 2.297 . S
O1062 C1057 1.247 . S
O1063 Cd1052 2.439 . S
O1063 C1057 1.208 . S
O1064 Cd1065 2.223 . S
O1064 C1072 1.315 . S
Cd1065 O1064 2.223 . S
Cd1065 O1068 2.297 . S
Cd1065 O1069 2.439 . S
Cd1065 O1075 2.240 . S
Cd1066 O1067 2.240 . S
Cd1066 O1074 2.223 . S
Cd1066 O1076 2.297 . S
Cd1066 O1077 2.439 . S
O1067 Cd1066 2.240 . S
O1067 C1072 1.279 . S
O1068 Cd1065 2.297 . S
O1068 C1070 1.247 . S
O1069 Cd1065 2.439 . S
O1069 C1070 1.208 . S
C1070 O1068 1.247 . S
C1070 O1069 1.208 . S
C1071 O1076 1.247 . S
C1071 O1077 1.208 . S
C1072 O1064 1.315 . S
C1072 O1067 1.279 . S
C1073 O1074 1.315 . S
C1073 O1075 1.279 . S
O1074 Cd1066 2.223 . S
O1074 C1073 1.315 . S
O1075 Cd1065 2.240 . S
O1075 C1073 1.279 . S
O1076 Cd1066 2.297 . S
O1076 C1071 1.247 . S
O1077 Cd1066 2.439 . S
O1077 C1071 1.208 . S
O1078 Cd1079 2.223 . S
O1078 C1086 1.315 . S
Cd1079 O1078 2.223 . S
Cd1079 O1082 2.297 . S
Cd1079 O1083 2.439 . S
Cd1079 O1089 2.240 . S
Cd1080 O1081 2.240 . S
Cd1080 O1088 2.223 . S
Cd1080 O1090 2.297 . S
Cd1080 O1091 2.439 . S
O1081 Cd1080 2.240 . S
O1081 C1086 1.279 . S
O1082 Cd1079 2.297 . S
O1082 C1084 1.247 . S
O1083 Cd1079 2.439 . S
O1083 C1084 1.208 . S
C1084 O1082 1.247 . S
C1084 O1083 1.208 . S
C1085 O1090 1.247 . S
C1085 O1091 1.208 . S
C1086 O1078 1.315 . S
C1086 O1081 1.279 . S
C1087 O1088 1.315 . S
C1087 O1089 1.279 . S
O1088 Cd1080 2.223 . S
O1088 C1087 1.315 . S
O1089 Cd1079 2.240 . S
O1089 C1087 1.279 . S
O1090 Cd1080 2.297 . S
O1090 C1085 1.247 . S
O1091 Cd1080 2.439 . S
O1091 C1085 1.208 . S
O1092 Cd1093 2.223 . S
O1092 C1100 1.315 . S
Cd1093 O1092 2.223 . S
Cd1093 O1096 2.297 . S
Cd1093 O1097 2.439 . S
Cd1093 O1103 2.240 . S
Cd1094 O1095 2.240 . S
Cd1094 O1102 2.223 . S
Cd1094 O1104 2.297 . S
Cd1094 O1105 2.439 . S
O1095 Cd1094 2.240 . S
O1095 C1100 1.279 . S
O1096 Cd1093 2.297 . S
O1096 C1098 1.247 . S
O1097 Cd1093 2.439 . S
O1097 C1098 1.208 . S
C1098 O1096 1.247 . S
C1098 O1097 1.208 . S
C1099 O1104 1.247 . S
C1099 O1105 1.208 . S
C1100 O1092 1.315 . S
C1100 O1095 1.279 . S
C1101 O1102 1.315 . S
C1101 O1103 1.279 . S
O1102 Cd1094 2.223 . S
O1102 C1101 1.315 . S
O1103 Cd1093 2.240 . S
O1103 C1101 1.279 . S
O1104 Cd1094 2.297 . S
O1104 C1099 1.247 . S
O1105 Cd1094 2.439 . S
O1105 C1099 1.208 . S
O1106 Cd1107 2.223 . S
O1106 C1114 1.315 . S
Cd1107 O1106 2.223 . S
Cd1107 O1110 2.297 . S
Cd1107 O1111 2.439 . S
Cd1107 O1117 2.240 . S
Cd1108 O1109 2.240 . S
Cd1108 O1116 2.223 . S
Cd1108 O1118 2.297 . S
Cd1108 O1119 2.439 . S
O1109 Cd1108 2.240 . S
O1109 C1114 1.279 . S
O1110 Cd1107 2.297 . S
O1110 C1112 1.247 . S
O1111 Cd1107 2.439 . S
O1111 C1112 1.208 . S
C1112 O1110 1.247 . S
C1112 O1111 1.208 . S
C1113 O1118 1.247 . S
C1113 O1119 1.208 . S
C1114 O1106 1.315 . S
C1114 O1109 1.279 . S
C1115 O1116 1.315 . S
C1115 O1117 1.279 . S
O1116 Cd1108 2.223 . S
O1116 C1115 1.315 . S
O1117 Cd1107 2.240 . S
O1117 C1115 1.279 . S
O1118 Cd1108 2.297 . S
O1118 C1113 1.247 . S
O1119 Cd1108 2.439 . S
O1119 C1113 1.208 . S
O1120 Cd1121 2.223 . S
O1120 C1128 1.315 . S
Cd1121 O1120 2.223 . S
Cd1121 O1124 2.297 . S
Cd1121 O1125 2.439 . S
Cd1121 O1131 2.240 . S
Cd1122 O1123 2.240 . S
Cd1122 O1130 2.223 . S
Cd1122 O1132 2.297 . S
Cd1122 O1133 2.439 . S
O1123 Cd1122 2.240 . S
O1123 C1128 1.279 . S
O1124 Cd1121 2.297 . S
O1124 C1126 1.247 . S
O1125 Cd1121 2.439 . S
O1125 C1126 1.208 . S
C1126 O1124 1.247 . S
C1126 O1125 1.208 . S
C1127 O1132 1.247 . S
C1127 O1133 1.208 . S
C1128 O1120 1.315 . S
C1128 O1123 1.279 . S
C1129 O1130 1.315 . S
C1129 O1131 1.279 . S
O1130 Cd1122 2.223 . S
O1130 C1129 1.315 . S
O1131 Cd1121 2.240 . S
O1131 C1129 1.279 . S
O1132 Cd1122 2.297 . S
O1132 C1127 1.247 . S
O1133 Cd1122 2.439 . S
O1133 C1127 1.208 . S
O1134 Cd1135 2.223 . S
O1134 C1142 1.315 . S
Cd1135 O1134 2.223 . S
Cd1135 O1138 2.297 . S
Cd1135 O1139 2.439 . S
Cd1135 O1145 2.240 . S
Cd1136 O1137 2.240 . S
Cd1136 O1144 2.223 . S
Cd1136 O1146 2.297 . S
Cd1136 O1147 2.439 . S
O1137 Cd1136 2.240 . S
O1137 C1142 1.279 . S
O1138 Cd1135 2.297 . S
O1138 C1140 1.247 . S
O1139 Cd1135 2.439 . S
O1139 C1140 1.208 . S
C1140 O1138 1.247 . S
C1140 O1139 1.208 . S
C1141 O1146 1.247 . S
C1141 O1147 1.208 . S
C1142 O1134 1.315 . S
C1142 O1137 1.279 . S
C1143 O1144 1.315 . S
C1143 O1145 1.279 . S
O1144 Cd1136 2.223 . S
O1144 C1143 1.315 . S
O1145 Cd1135 2.240 . S
O1145 C1143 1.279 . S
O1146 Cd1136 2.297 . S
O1146 C1141 1.247 . S
O1147 Cd1136 2.439 . S
O1147 C1141 1.208 . S
O1148 Cd1149 2.223 . S
O1148 C1156 1.315 . S
Cd1149 O1148 2.223 . S
Cd1149 O1152 2.297 . S
Cd1149 O1153 2.439 . S
Cd1149 O1159 2.240 . S
Cd1150 O1151 2.240 . S
Cd1150 O1158 2.223 . S
Cd1150 O1160 2.297 . S
Cd1150 O1161 2.439 . S
O1151 Cd1150 2.240 . S
O1151 C1156 1.279 . S
O1152 Cd1149 2.297 . S
O1152 C1154 1.247 . S
O1153 Cd1149 2.439 . S
O1153 C1154 1.208 . S
C1154 O1152 1.247 . S
C1154 O1153 1.208 . S
C1155 O1160 1.247 . S
C1155 O1161 1.208 . S
C1156 O1148 1.315 . S
C1156 O1151 1.279 . S
C1157 O1158 1.315 . S
C1157 O1159 1.279 . S
O1158 Cd1150 2.223 . S
O1158 C1157 1.315 . S
O1159 Cd1149 2.240 . S
O1159 C1157 1.279 . S
O1160 Cd1150 2.297 . S
O1160 C1155 1.247 . S
O1161 Cd1150 2.439 . S
O1161 C1155 1.208 . S
O1162 Cd1163 2.223 . S
O1162 C1170 1.315 . S
Cd1163 O1162 2.223 . S
Cd1163 O1166 2.297 . S
Cd1163 O1167 2.439 . S
Cd1163 O1173 2.240 . S
Cd1164 O1165 2.240 . S
Cd1164 O1172 2.223 . S
Cd1164 O1174 2.297 . S
Cd1164 O1175 2.439 . S
O1165 Cd1164 2.240 . S
O1165 C1170 1.279 . S
O1166 Cd1163 2.297 . S
O1166 C1168 1.247 . S
O1167 Cd1163 2.439 . S
O1167 C1168 1.208 . S
C1168 O1166 1.247 . S
C1168 O1167 1.208 . S
C1169 O1174 1.247 . S
C1169 O1175 1.208 . S
C1170 O1162 1.315 . S
C1170 O1165 1.279 . S
C1171 O1172 1.315 . S
C1171 O1173 1.279 . S
O1172 Cd1164 2.223 . S
O1172 C1171 1.315 . S
O1173 Cd1163 2.240 . S
O1173 C1171 1.279 . S
O1174 Cd1164 2.297 . S
O1174 C1169 1.247 . S
O1175 Cd1164 2.439 . S
O1175 C1169 1.208 . S
O1176 Cd1177 2.223 . S
O1176 C1184 1.315 . S
Cd1177 O1176 2.223 . S
Cd1177 O1180 2.297 . S
Cd1177 O1181 2.439 . S
Cd1177 O1187 2.240 . S
Cd1178 O1179 2.240 . S
Cd1178 O1186 2.223 . S
Cd1178 O1188 2.297 . S
Cd1178 O1189 2.439 . S
O1179 Cd1178 2.240 . S
O1179 C1184 1.279 . S
O1180 Cd1177 2.297 . S
O1180 C1182 1.247 . S
O1181 Cd1177 2.439 . S
O1181 C1182 1.208 . S
C1182 O1180 1.247 . S
C1182 O1181 1.208 . S
C1183 O1188 1.247 . S
C1183 O1189 1.208 . S
C1184 O1176 1.315 . S
C1184 O1179 1.279 . S
C1185 O1186 1.315 . S
C1185 O1187 1.279 . S
O1186 Cd1178 2.223 . S
O1186 C1185 1.315 . S
O1187 Cd1177 2.240 . S
O1187 C1185 1.279 . S
O1188 Cd1178 2.297 . S
O1188 C1183 1.247 . S
O1189 Cd1178 2.439 . S
O1189 C1183 1.208 . S
O1190 Cd1191 2.223 . S
O1190 C1198 1.315 . S
Cd1191 O1190 2.223 . S
Cd1191 O1194 2.297 . S
Cd1191 O1195 2.439 . S
Cd1191 O1201 2.240 . S
Cd1192 O1193 2.240 . S
Cd1192 O1200 2.223 . S
Cd1192 O1202 2.297 . S
Cd1192 O1203 2.439 . S
O1193 Cd1192 2.240 . S
O1193 C1198 1.279 . S
O1194 Cd1191 2.297 . S
O1194 C1196 1.247 . S
O1195 Cd1191 2.439 . S
O1195 C1196 1.208 . S
C1196 O1194 1.247 . S
C1196 O1195 1.208 . S
C1197 O1202 1.247 . S
C1197 O1203 1.208 . S
C1198 O1190 1.315 . S
C1198 O1193 1.279 . S
C1199 O1200 1.315 . S
C1199 O1201 1.279 . S
O1200 Cd1192 2.223 . S
O1200 C1199 1.315 . S
O1201 Cd1191 2.240 . S
O1201 C1199 1.279 . S
O1202 Cd1192 2.297 . S
O1202 C1197 1.247 . S
O1203 Cd1192 2.439 . S
O1203 C1197 1.208 . S
O1204 Cd1205 2.223 . S
O1204 C1212 1.315 . S
Cd1205 O1204 2.223 . S
Cd1205 O1208 2.297 . S
Cd1205 O1209 2.439 . S
Cd1205 O1215 2.240 . S
Cd1206 O1207 2.240 . S
Cd1206 O1214 2.223 . S
Cd1206 O1216 2.297 . S
Cd1206 O1217 2.439 . S
O1207 Cd1206 2.240 . S
O1207 C1212 1.279 . S
O1208 Cd1205 2.297 . S
O1208 C1210 1.247 . S
O1209 Cd1205 2.439 . S
O1209 C1210 1.208 . S
C1210 O1208 1.247 . S
C1210 O1209 1.208 . S
C1211 O1216 1.247 . S
C1211 O1217 1.208 . S
C1212 O1204 1.315 . S
C1212 O1207 1.279 . S
C1213 O1214 1.315 . S
C1213 O1215 1.279 . S
O1214 Cd1206 2.223 . S
O1214 C1213 1.315 . S
O1215 Cd1205 2.240 . S
O1215 C1213 1.279 . S
O1216 Cd1206 2.297 . S
O1216 C1211 1.247 . S
O1217 Cd1206 2.439 . S
O1217 C1211 1.208 . S
O1218 Cd1219 2.223 . S
O1218 C1226 1.315 . S
Cd1219 O1218 2.223 . S
Cd1219 O1222 2.297 . S
Cd1219 O1223 2.439 . S
Cd1219 O1229 2.240 . S
Cd1220 O1221 2.240 . S
Cd1220 O1228 2.223 . S
Cd1220 O1230 2.297 . S
Cd1220 O1231 2.439 . S
O1221 Cd1220 2.240 . S
O1221 C1226 1.279 . S
O1222 Cd1219 2.297 . S
O1222 C1224 1.247 . S
O1223 Cd1219 2.439 . S
O1223 C1224 1.208 . S
C1224 O1222 1.247 . S
C1224 O1223 1.208 . S
C1225 O1230 1.247 . S
C1225 O1231 1.208 . S
C1226 O1218 1.315 . S
C1226 O1221 1.279 . S
C1227 O1228 1.315 . S
C1227 O1229 1.279 . S
O1228 Cd1220 2.223 . S
O1228 C1227 1.315 . S
O1229 Cd1219 2.240 . S
O1229 C1227 1.279 . S
O1230 Cd1220 2.297 . S
O1230 C1225 1.247 . S
O1231 Cd1220 2.439 . S
O1231 C1225 1.208 . S
O1232 Cd1233 2.223 . S
O1232 C1240 1.315 . S
Cd1233 O1232 2.223 . S
Cd1233 O1236 2.297 . S
Cd1233 O1237 2.439 . S
Cd1233 O1243 2.240 . S
Cd1234 O1235 2.240 . S
Cd1234 O1242 2.223 . S
Cd1234 O1244 2.297 . S
Cd1234 O1245 2.439 . S
O1235 Cd1234 2.240 . S
O1235 C1240 1.279 . S
O1236 Cd1233 2.297 . S
O1236 C1238 1.247 . S
O1237 Cd1233 2.439 . S
O1237 C1238 1.208 . S
C1238 O1236 1.247 . S
C1238 O1237 1.208 . S
C1239 O1244 1.247 . S
C1239 O1245 1.208 . S
C1240 O1232 1.315 . S
C1240 O1235 1.279 . S
C1241 O1242 1.315 . S
C1241 O1243 1.279 . S
O1242 Cd1234 2.223 . S
O1242 C1241 1.315 . S
O1243 Cd1233 2.240 . S
O1243 C1241 1.279 . S
O1244 Cd1234 2.297 . S
O1244 C1239 1.247 . S
O1245 Cd1234 2.439 . S
O1245 C1239 1.208 . S
O1246 Cd1247 2.223 . S
O1246 C1254 1.315 . S
Cd1247 O1246 2.223 . S
Cd1247 O1250 2.297 . S
Cd1247 O1251 2.439 . S
Cd1247 O1257 2.240 . S
Cd1248 O1249 2.240 . S
Cd1248 O1256 2.223 . S
Cd1248 O1258 2.297 . S
Cd1248 O1259 2.439 . S
O1249 Cd1248 2.240 . S
O1249 C1254 1.279 . S
O1250 Cd1247 2.297 . S
O1250 C1252 1.247 . S
O1251 Cd1247 2.439 . S
O1251 C1252 1.208 . S
C1252 O1250 1.247 . S
C1252 O1251 1.208 . S
C1253 O1258 1.247 . S
C1253 O1259 1.208 . S
C1254 O1246 1.315 . S
C1254 O1249 1.279 . S
C1255 O1256 1.315 . S
C1255 O1257 1.279 . S
O1256 Cd1248 2.223 . S
O1256 C1255 1.315 . S
O1257 Cd1247 2.240 . S
O1257 C1255 1.279 . S
O1258 Cd1248 2.297 . S
O1258 C1253 1.247 . S
O1259 Cd1248 2.439 . S
O1259 C1253 1.208 . S
O1260 Cd1261 2.223 . S
O1260 C1268 1.315 . S
Cd1261 O1260 2.223 . S
Cd1261 O1264 2.297 . S
Cd1261 O1265 2.439 . S
Cd1261 O1271 2.240 . S
Cd1262 O1263 2.240 . S
Cd1262 O1270 2.223 . S
Cd1262 O1272 2.297 . S
Cd1262 O1273 2.439 . S
O1263 Cd1262 2.240 . S
O1263 C1268 1.279 . S
O1264 Cd1261 2.297 . S
O1264 C1266 1.247 . S
O1265 Cd1261 2.439 . S
O1265 C1266 1.208 . S
C1266 O1264 1.247 . S
C1266 O1265 1.208 . S
C1267 O1272 1.247 . S
C1267 O1273 1.208 . S
C1268 O1260 1.315 . S
C1268 O1263 1.279 . S
C1269 O1270 1.315 . S
C1269 O1271 1.279 . S
O1270 Cd1262 2.223 . S
O1270 C1269 1.315 . S
O1271 Cd1261 2.240 . S
O1271 C1269 1.279 . S
O1272 Cd1262 2.297 . S
O1272 C1267 1.247 . S
O1273 Cd1262 2.439 . S
O1273 C1267 1.208 . S
O1274 Cd1275 2.223 . S
O1274 C1282 1.315 . S
Cd1275 O1274 2.223 . S
Cd1275 O1278 2.297 . S
Cd1275 O1279 2.439 . S
Cd1275 O1285 2.240 . S
Cd1276 O1277 2.240 . S
Cd1276 O1284 2.223 . S
Cd1276 O1286 2.297 . S
Cd1276 O1287 2.439 . S
O1277 Cd1276 2.240 . S
O1277 C1282 1.279 . S
O1278 Cd1275 2.297 . S
O1278 C1280 1.247 . S
O1279 Cd1275 2.439 . S
O1279 C1280 1.208 . S
C1280 O1278 1.247 . S
C1280 O1279 1.208 . S
C1281 O1286 1.247 . S
C1281 O1287 1.208 . S
C1282 O1274 1.315 . S
C1282 O1277 1.279 . S
C1283 O1284 1.315 . S
C1283 O1285 1.279 . S
O1284 Cd1276 2.223 . S
O1284 C1283 1.315 . S
O1285 Cd1275 2.240 . S
O1285 C1283 1.279 . S
O1286 Cd1276 2.297 . S
O1286 C1281 1.247 . S
O1287 Cd1276 2.439 . S
O1287 C1281 1.208 . S
O1288 Cd1289 2.223 . S
O1288 C1296 1.315 . S
Cd1289 O1288 2.223 . S
Cd1289 O1292 2.297 . S
Cd1289 O1293 2.439 . S
Cd1289 O1299 2.240 . S
Cd1290 O1291 2.240 . S
Cd1290 O1298 2.223 . S
Cd1290 O1300 2.297 . S
Cd1290 O1301 2.439 . S
O1291 Cd1290 2.240 . S
O1291 C1296 1.279 . S
O1292 Cd1289 2.297 . S
O1292 C1294 1.247 . S
O1293 Cd1289 2.439 . S
O1293 C1294 1.208 . S
C1294 O1292 1.247 . S
C1294 O1293 1.208 . S
C1295 O1300 1.247 . S
C1295 O1301 1.208 . S
C1296 O1288 1.315 . S
C1296 O1291 1.279 . S
C1297 O1298 1.315 . S
C1297 O1299 1.279 . S
O1298 Cd1290 2.223 . S
O1298 C1297 1.315 . S
O1299 Cd1289 2.240 . S
O1299 C1297 1.279 . S
O1300 Cd1290 2.297 . S
O1300 C1295 1.247 . S
O1301 Cd1290 2.439 . S
O1301 C1295 1.208 . S
O1302 Cd1303 2.223 . S
O1302 C1310 1.315 . S
Cd1303 O1302 2.223 . S
Cd1303 O1306 2.297 . S
Cd1303 O1307 2.439 . S
Cd1303 O1313 2.240 . S
Cd1304 O1305 2.240 . S
Cd1304 O1312 2.223 . S
Cd1304 O1314 2.297 . S
Cd1304 O1315 2.439 . S
O1305 Cd1304 2.240 . S
O1305 C1310 1.279 . S
O1306 Cd1303 2.297 . S
O1306 C1308 1.247 . S
O1307 Cd1303 2.439 . S
O1307 C1308 1.208 . S
C1308 O1306 1.247 . S
C1308 O1307 1.208 . S
C1309 O1314 1.247 . S
C1309 O1315 1.208 . S
C1310 O1302 1.315 . S
C1310 O1305 1.279 . S
C1311 O1312 1.315 . S
C1311 O1313 1.279 . S
O1312 Cd1304 2.223 . S
O1312 C1311 1.315 . S
O1313 Cd1303 2.240 . S
O1313 C1311 1.279 . S
O1314 Cd1304 2.297 . S
O1314 C1309 1.247 . S
O1315 Cd1304 2.439 . S
O1315 C1309 1.208 . S
O1316 Cd1317 2.223 . S
O1316 C1324 1.315 . S
Cd1317 O1316 2.223 . S
Cd1317 O1320 2.297 . S
Cd1317 O1321 2.439 . S
Cd1317 O1327 2.240 . S
Cd1318 O1319 2.240 . S
Cd1318 O1326 2.223 . S
Cd1318 O1328 2.297 . S
Cd1318 O1329 2.439 . S
O1319 Cd1318 2.240 . S
O1319 C1324 1.279 . S
O1320 Cd1317 2.297 . S
O1320 C1322 1.247 . S
O1321 Cd1317 2.439 . S
O1321 C1322 1.208 . S
C1322 O1320 1.247 . S
C1322 O1321 1.208 . S
C1323 O1328 1.247 . S
C1323 O1329 1.208 . S
C1324 O1316 1.315 . S
C1324 O1319 1.279 . S
C1325 O1326 1.315 . S
C1325 O1327 1.279 . S
O1326 Cd1318 2.223 . S
O1326 C1325 1.315 . S
O1327 Cd1317 2.240 . S
O1327 C1325 1.279 . S
O1328 Cd1318 2.297 . S
O1328 C1323 1.247 . S
O1329 Cd1318 2.439 . S
O1329 C1323 1.208 . S
O1330 Cd1331 2.223 . S
O1330 C1338 1.315 . S
Cd1331 O1330 2.223 . S
Cd1331 O1334 2.297 . S
Cd1331 O1335 2.439 . S
Cd1331 O1341 2.240 . S
Cd1332 O1333 2.240 . S
Cd1332 O1340 2.223 . S
Cd1332 O1342 2.297 . S
Cd1332 O1343 2.439 . S
O1333 Cd1332 2.240 . S
O1333 C1338 1.279 . S
O1334 Cd1331 2.297 . S
O1334 C1336 1.247 . S
O1335 Cd1331 2.439 . S
O1335 C1336 1.208 . S
C1336 O1334 1.247 . S
C1336 O1335 1.208 . S
C1337 O1342 1.247 . S
C1337 O1343 1.208 . S
C1338 O1330 1.315 . S
C1338 O1333 1.279 . S
C1339 O1340 1.315 . S
C1339 O1341 1.279 . S
O1340 Cd1332 2.223 . S
O1340 C1339 1.315 . S
O1341 Cd1331 2.240 . S
O1341 C1339 1.279 . S
O1342 Cd1332 2.297 . S
O1342 C1337 1.247 . S
O1343 Cd1332 2.439 . S
O1343 C1337 1.208 . S
C1344 C1345 1.387 . S
C1344 H1348 0.950 . S
C1344 C1353 1.390 . S
C1345 C1344 1.387 . S
C1345 C1347 1.387 . S
H1346 C1353 0.950 . S
C1347 C1345 1.387 . S
C1347 C1349 1.390 . S
C1347 H1351 0.950 . S
H1348 C1344 0.950 . S
C1349 C1347 1.390 . S
C1349 C1350 1.387 . S
C1349 H1352 0.950 . S
C1350 C1349 1.387 . S
C1350 C1353 1.387 . S
H1351 C1347 0.950 . S
H1352 C1349 0.950 . S
C1353 C1344 1.390 . S
C1353 H1346 0.950 . S
C1353 C1350 1.387 . S
C1354 C1355 1.387 . S
C1354 H1358 0.950 . S
C1354 C1363 1.390 . S
C1355 C1354 1.387 . S
C1355 C1357 1.387 . S
H1356 C1363 0.950 . S
C1357 C1355 1.387 . S
C1357 C1359 1.390 . S
C1357 H1361 0.950 . S
H1358 C1354 0.950 . S
C1359 C1357 1.390 . S
C1359 C1360 1.387 . S
C1359 H1362 0.950 . S
C1360 C1359 1.387 . S
C1360 C1363 1.387 . S
H1361 C1357 0.950 . S
H1362 C1359 0.950 . S
C1363 C1354 1.390 . S
C1363 H1356 0.950 . S
C1363 C1360 1.387 . S
C1364 C1365 1.387 . S
C1364 H1368 0.950 . S
C1364 C1373 1.390 . S
C1365 C1364 1.387 . S
C1365 C1367 1.387 . S
H1366 C1373 0.950 . S
C1367 C1365 1.387 . S
C1367 C1369 1.390 . S
C1367 H1371 0.950 . S
H1368 C1364 0.950 . S
C1369 C1367 1.390 . S
C1369 C1370 1.387 . S
C1369 H1372 0.950 . S
C1370 C1369 1.387 . S
C1370 C1373 1.387 . S
H1371 C1367 0.950 . S
H1372 C1369 0.950 . S
C1373 C1364 1.390 . S
C1373 H1366 0.950 . S
C1373 C1370 1.387 . S
C1374 C1375 1.387 . S
C1374 H1378 0.950 . S
C1374 C1383 1.390 . S
C1375 C1374 1.387 . S
C1375 C1377 1.387 . S
H1376 C1383 0.950 . S
C1377 C1375 1.387 . S
C1377 C1379 1.390 . S
C1377 H1381 0.950 . S
H1378 C1374 0.950 . S
C1379 C1377 1.390 . S
C1379 C1380 1.387 . S
C1379 H1382 0.950 . S
C1380 C1379 1.387 . S
C1380 C1383 1.387 . S
H1381 C1377 0.950 . S
H1382 C1379 0.950 . S
C1383 C1374 1.390 . S
C1383 H1376 0.950 . S
C1383 C1380 1.387 . S
C1384 C1385 1.387 . S
C1384 H1388 0.950 . S
C1384 C1393 1.390 . S
C1385 C1384 1.387 . S
C1385 C1387 1.387 . S
H1386 C1393 0.950 . S
C1387 C1385 1.387 . S
C1387 C1389 1.390 . S
C1387 H1391 0.950 . S
H1388 C1384 0.950 . S
C1389 C1387 1.390 . S
C1389 C1390 1.387 . S
C1389 H1392 0.950 . S
C1390 C1389 1.387 . S
C1390 C1393 1.387 . S
H1391 C1387 0.950 . S
H1392 C1389 0.950 . S
C1393 C1384 1.390 . S
C1393 H1386 0.950 . S
C1393 C1390 1.387 . S
C1394 C1395 1.387 . S
C1394 H1398 0.950 . S
C1394 C1403 1.390 . S
C1395 C1394 1.387 . S
C1395 C1397 1.387 . S
H1396 C1403 0.950 . S
C1397 C1395 1.387 . S
C1397 C1399 1.390 . S
C1397 H1401 0.950 . S
H1398 C1394 0.950 . S
C1399 C1397 1.390 . S
C1399 C1400 1.387 . S
C1399 H1402 0.950 . S
C1400 C1399 1.387 . S
C1400 C1403 1.387 . S
H1401 C1397 0.950 . S
H1402 C1399 0.950 . S
C1403 C1394 1.390 . S
C1403 H1396 0.950 . S
C1403 C1400 1.387 . S
C1404 C1405 1.387 . S
C1404 H1408 0.950 . S
C1404 C1413 1.390 . S
C1405 C1404 1.387 . S
C1405 C1407 1.387 . S
H1406 C1413 0.950 . S
C1407 C1405 1.387 . S
C1407 C1409 1.390 . S
C1407 H1411 0.950 . S
H1408 C1404 0.950 . S
C1409 C1407 1.390 . S
C1409 C1410 1.387 . S
C1409 H1412 0.950 . S
C1410 C1409 1.387 . S
C1410 C1413 1.387 . S
H1411 C1407 0.950 . S
H1412 C1409 0.950 . S
C1413 C1404 1.390 . S
C1413 H1406 0.950 . S
C1413 C1410 1.387 . S
C1414 C1415 1.387 . S
C1414 H1418 0.950 . S
C1414 C1423 1.390 . S
C1415 C1414 1.387 . S
C1415 C1417 1.387 . S
H1416 C1423 0.950 . S
C1417 C1415 1.387 . S
C1417 C1419 1.390 . S
C1417 H1421 0.950 . S
H1418 C1414 0.950 . S
C1419 C1417 1.390 . S
C1419 C1420 1.387 . S
C1419 H1422 0.950 . S
C1420 C1419 1.387 . S
C1420 C1423 1.387 . S
H1421 C1417 0.950 . S
H1422 C1419 0.950 . S
C1423 C1414 1.390 . S
C1423 H1416 0.950 . S
C1423 C1420 1.387 . S
C1424 C1425 1.387 . S
C1424 H1428 0.950 . S
C1424 C1433 1.390 . S
C1425 C1424 1.387 . S
C1425 C1427 1.387 . S
H1426 C1433 0.950 . S
C1427 C1425 1.387 . S
C1427 C1429 1.390 . S
C1427 H1431 0.950 . S
H1428 C1424 0.950 . S
C1429 C1427 1.390 . S
C1429 C1430 1.387 . S
C1429 H1432 0.950 . S
C1430 C1429 1.387 . S
C1430 C1433 1.387 . S
H1431 C1427 0.950 . S
H1432 C1429 0.950 . S
C1433 C1424 1.390 . S
C1433 H1426 0.950 . S
C1433 C1430 1.387 . S
C1434 C1435 1.387 . S
C1434 H1438 0.950 . S
C1434 C1443 1.390 . S
C1435 C1434 1.387 . S
C1435 C1437 1.387 . S
H1436 C1443 0.950 . S
C1437 C1435 1.387 . S
C1437 C1439 1.390 . S
C1437 H1441 0.950 . S
H1438 C1434 0.950 . S
C1439 C1437 1.390 . S
C1439 C1440 1.387 . S
C1439 H1442 0.950 . S
C1440 C1439 1.387 . S
C1440 C1443 1.387 . S
H1441 C1437 0.950 . S
H1442 C1439 0.950 . S
C1443 C1434 1.390 . S
C1443 H1436 0.950 . S
C1443 C1440 1.387 . S
C1444 C1445 1.387 . S
C1444 H1448 0.950 . S
C1444 C1453 1.390 . S
C1445 C1444 1.387 . S
C1445 C1447 1.387 . S
H1446 C1453 0.950 . S
C1447 C1445 1.387 . S
C1447 C1449 1.390 . S
C1447 H1451 0.950 . S
H1448 C1444 0.950 . S
C1449 C1447 1.390 . S
C1449 C1450 1.387 . S
C1449 H1452 0.950 . S
C1450 C1449 1.387 . S
C1450 C1453 1.387 . S
H1451 C1447 0.950 . S
H1452 C1449 0.950 . S
C1453 C1444 1.390 . S
C1453 H1446 0.950 . S
C1453 C1450 1.387 . S
C1454 C1455 1.387 . S
C1454 H1458 0.950 . S
C1454 C1463 1.390 . S
C1455 C1454 1.387 . S
C1455 C1457 1.387 . S
H1456 C1463 0.950 . S
C1457 C1455 1.387 . S
C1457 C1459 1.390 . S
C1457 H1461 0.950 . S
H1458 C1454 0.950 . S
C1459 C1457 1.390 . S
C1459 C1460 1.387 . S
C1459 H1462 0.950 . S
C1460 C1459 1.387 . S
C1460 C1463 1.387 . S
H1461 C1457 0.950 . S
H1462 C1459 0.950 . S
C1463 C1454 1.390 . S
C1463 H1456 0.950 . S
C1463 C1460 1.387 . S
C1464 C1465 1.387 . S
C1464 H1468 0.950 . S
C1464 C1473 1.390 . S
C1465 C1464 1.387 . S
C1465 C1467 1.387 . S
H1466 C1473 0.950 . S
C1467 C1465 1.387 . S
C1467 C1469 1.390 . S
C1467 H1471 0.950 . S
H1468 C1464 0.950 . S
C1469 C1467 1.390 . S
C1469 C1470 1.387 . S
C1469 H1472 0.950 . S
C1470 C1469 1.387 . S
C1470 C1473 1.387 . S
H1471 C1467 0.950 . S
H1472 C1469 0.950 . S
C1473 C1464 1.390 . S
C1473 H1466 0.950 . S
C1473 C1470 1.387 . S
C1474 C1475 1.387 . S
C1474 H1478 0.950 . S
C1474 C1483 1.390 . S
C1475 C1474 1.387 . S
C1475 C1477 1.387 . S
H1476 C1483 0.950 . S
C1477 C1475 1.387 . S
C1477 C1479 1.390 . S
C1477 H1481 0.950 . S
H1478 C1474 0.950 . S
C1479 C1477 1.390 . S
C1479 C1480 1.387 . S
C1479 H1482 0.950 . S
C1480 C1479 1.387 . S
C1480 C1483 1.387 . S
H1481 C1477 0.950 . S
H1482 C1479 0.950 . S
C1483 C1474 1.390 . S
C1483 H1476 0.950 . S
C1483 C1480 1.387 . S
C1484 C1485 1.387 . S
C1484 H1488 0.950 . S
C1484 C1493 1.390 . S
C1485 C1484 1.387 . S
C1485 C1487 1.387 . S
H1486 C1493 0.950 . S
C1487 C1485 1.387 . S
C1487 C1489 1.390 . S
C1487 H1491 0.950 . S
H1488 C1484 0.950 . S
C1489 C1487 1.390 . S
C1489 C1490 1.387 . S
C1489 H1492 0.950 . S
C1490 C1489 1.387 . S
C1490 C1493 1.387 . S
H1491 C1487 0.950 . S
H1492 C1489 0.950 . S
C1493 C1484 1.390 . S
C1493 H1486 0.950 . S
C1493 C1490 1.387 . S
C1494 C1495 1.387 . S
C1494 H1498 0.950 . S
C1494 C1503 1.390 . S
C1495 C1494 1.387 . S
C1495 C1497 1.387 . S
H1496 C1503 0.950 . S
C1497 C1495 1.387 . S
C1497 C1499 1.390 . S
C1497 H1501 0.950 . S
H1498 C1494 0.950 . S
C1499 C1497 1.390 . S
C1499 C1500 1.387 . S
C1499 H1502 0.950 . S
C1500 C1499 1.387 . S
C1500 C1503 1.387 . S
H1501 C1497 0.950 . S
H1502 C1499 0.950 . S
C1503 C1494 1.390 . S
C1503 H1496 0.950 . S
C1503 C1500 1.387 . S
C1504 C1505 1.387 . S
C1504 H1508 0.950 . S
C1504 C1513 1.390 . S
C1505 C1504 1.387 . S
C1505 C1507 1.387 . S
H1506 C1513 0.950 . S
C1507 C1505 1.387 . S
C1507 C1509 1.390 . S
C1507 H1511 0.950 . S
H1508 C1504 0.950 . S
C1509 C1507 1.390 . S
C1509 C1510 1.387 . S
C1509 H1512 0.950 . S
C1510 C1509 1.387 . S
C1510 C1513 1.387 . S
H1511 C1507 0.950 . S
H1512 C1509 0.950 . S
C1513 C1504 1.390 . S
C1513 H1506 0.950 . S
C1513 C1510 1.387 . S
C1514 C1515 1.387 . S
C1514 H1518 0.950 . S
C1514 C1523 1.390 . S
C1515 C1514 1.387 . S
C1515 C1517 1.387 . S
H1516 C1523 0.950 . S
C1517 C1515 1.387 . S
C1517 C1519 1.390 . S
C1517 H1521 0.950 . S
H1518 C1514 0.950 . S
C1519 C1517 1.390 . S
C1519 C1520 1.387 . S
C1519 H1522 0.950 . S
C1520 C1519 1.387 . S
C1520 C1523 1.387 . S
H1521 C1517 0.950 . S
H1522 C1519 0.950 . S
C1523 C1514 1.390 . S
C1523 H1516 0.950 . S
C1523 C1520 1.387 . S
C1524 C1525 1.387 . S
C1524 H1528 0.950 . S
C1524 C1533 1.390 . S
C1525 C1524 1.387 . S
C1525 C1527 1.387 . S
H1526 C1533 0.950 . S
C1527 C1525 1.387 . S
C1527 C1529 1.390 . S
C1527 H1531 0.950 . S
H1528 C1524 0.950 . S
C1529 C1527 1.390 . S
C1529 C1530 1.387 . S
C1529 H1532 0.950 . S
C1530 C1529 1.387 . S
C1530 C1533 1.387 . S
H1531 C1527 0.950 . S
H1532 C1529 0.950 . S
C1533 C1524 1.390 . S
C1533 H1526 0.950 . S
C1533 C1530 1.387 . S
C1534 C1535 1.387 . S
C1534 H1538 0.950 . S
C1534 C1543 1.390 . S
C1535 C1534 1.387 . S
C1535 C1537 1.387 . S
H1536 C1543 0.950 . S
C1537 C1535 1.387 . S
C1537 C1539 1.390 . S
C1537 H1541 0.950 . S
H1538 C1534 0.950 . S
C1539 C1537 1.390 . S
C1539 C1540 1.387 . S
C1539 H1542 0.950 . S
C1540 C1539 1.387 . S
C1540 C1543 1.387 . S
H1541 C1537 0.950 . S
H1542 C1539 0.950 . S
C1543 C1534 1.390 . S
C1543 H1536 0.950 . S
C1543 C1540 1.387 . S
C1544 C1545 1.387 . S
C1544 H1548 0.950 . S
C1544 C1553 1.390 . S
C1545 C1544 1.387 . S
C1545 C1547 1.387 . S
H1546 C1553 0.950 . S
C1547 C1545 1.387 . S
C1547 C1549 1.390 . S
C1547 H1551 0.950 . S
H1548 C1544 0.950 . S
C1549 C1547 1.390 . S
C1549 C1550 1.387 . S
C1549 H1552 0.950 . S
C1550 C1549 1.387 . S
C1550 C1553 1.387 . S
H1551 C1547 0.950 . S
H1552 C1549 0.950 . S
C1553 C1544 1.390 . S
C1553 H1546 0.950 . S
C1553 C1550 1.387 . S
C1554 C1555 1.387 . S
C1554 H1558 0.950 . S
C1554 C1563 1.390 . S
C1555 C1554 1.387 . S
C1555 C1557 1.387 . S
H1556 C1563 0.950 . S
C1557 C1555 1.387 . S
C1557 C1559 1.390 . S
C1557 H1561 0.950 . S
H1558 C1554 0.950 . S
C1559 C1557 1.390 . S
C1559 C1560 1.387 . S
C1559 H1562 0.950 . S
C1560 C1559 1.387 . S
C1560 C1563 1.387 . S
H1561 C1557 0.950 . S
H1562 C1559 0.950 . S
C1563 C1554 1.390 . S
C1563 H1556 0.950 . S
C1563 C1560 1.387 . S
C1564 C1565 1.387 . S
C1564 H1568 0.950 . S
C1564 C1573 1.390 . S
C1565 C1564 1.387 . S
C1565 C1567 1.387 . S
H1566 C1573 0.950 . S
C1567 C1565 1.387 . S
C1567 C1569 1.390 . S
C1567 H1571 0.950 . S
H1568 C1564 0.950 . S
C1569 C1567 1.390 . S
C1569 C1570 1.387 . S
C1569 H1572 0.950 . S
C1570 C1569 1.387 . S
C1570 C1573 1.387 . S
H1571 C1567 0.950 . S
H1572 C1569 0.950 . S
C1573 C1564 1.390 . S
C1573 H1566 0.950 . S
C1573 C1570 1.387 . S
C1574 C1575 1.387 . S
C1574 H1578 0.950 . S
C1574 C1583 1.390 . S
C1575 C1574 1.387 . S
C1575 C1577 1.387 . S
H1576 C1583 0.950 . S
C1577 C1575 1.387 . S
C1577 C1579 1.390 . S
C1577 H1581 0.950 . S
H1578 C1574 0.950 . S
C1579 C1577 1.390 . S
C1579 C1580 1.387 . S
C1579 H1582 0.950 . S
C1580 C1579 1.387 . S
C1580 C1583 1.387 . S
H1581 C1577 0.950 . S
H1582 C1579 0.950 . S
C1583 C1574 1.390 . S
C1583 H1576 0.950 . S
C1583 C1580 1.387 . S
C1584 C1585 1.387 . S
C1584 H1588 0.950 . S
C1584 C1593 1.390 . S
C1585 C1584 1.387 . S
C1585 C1587 1.387 . S
H1586 C1593 0.950 . S
C1587 C1585 1.387 . S
C1587 C1589 1.390 . S
C1587 H1591 0.950 . S
H1588 C1584 0.950 . S
C1589 C1587 1.390 . S
C1589 C1590 1.387 . S
C1589 H1592 0.950 . S
C1590 C1589 1.387 . S
C1590 C1593 1.387 . S
H1591 C1587 0.950 . S
H1592 C1589 0.950 . S
C1593 C1584 1.390 . S
C1593 H1586 0.950 . S
C1593 C1590 1.387 . S
C1594 C1595 1.387 . S
C1594 H1598 0.950 . S
C1594 C1603 1.390 . S
C1595 C1594 1.387 . S
C1595 C1597 1.387 . S
H1596 C1603 0.950 . S
C1597 C1595 1.387 . S
C1597 C1599 1.390 . S
C1597 H1601 0.950 . S
H1598 C1594 0.950 . S
C1599 C1597 1.390 . S
C1599 C1600 1.387 . S
C1599 H1602 0.950 . S
C1600 C1599 1.387 . S
C1600 C1603 1.387 . S
H1601 C1597 0.950 . S
H1602 C1599 0.950 . S
C1603 C1594 1.390 . S
C1603 H1596 0.950 . S
C1603 C1600 1.387 . S
C1604 C1605 1.387 . S
C1604 H1608 0.950 . S
C1604 C1613 1.390 . S
C1605 C1604 1.387 . S
C1605 C1607 1.387 . S
H1606 C1613 0.950 . S
C1607 C1605 1.387 . S
C1607 C1609 1.390 . S
C1607 H1611 0.950 . S
H1608 C1604 0.950 . S
C1609 C1607 1.390 . S
C1609 C1610 1.387 . S
C1609 H1612 0.950 . S
C1610 C1609 1.387 . S
C1610 C1613 1.387 . S
H1611 C1607 0.950 . S
H1612 C1609 0.950 . S
C1613 C1604 1.390 . S
C1613 H1606 0.950 . S
C1613 C1610 1.387 . S
C1614 C1615 1.387 . S
C1614 H1618 0.950 . S
C1614 C1623 1.390 . S
C1615 C1614 1.387 . S
C1615 C1617 1.387 . S
H1616 C1623 0.950 . S
C1617 C1615 1.387 . S
C1617 C1619 1.390 . S
C1617 H1621 0.950 . S
H1618 C1614 0.950 . S
C1619 C1617 1.390 . S
C1619 C1620 1.387 . S
C1619 H1622 0.950 . S
C1620 C1619 1.387 . S
C1620 C1623 1.387 . S
H1621 C1617 0.950 . S
H1622 C1619 0.950 . S
C1623 C1614 1.390 . S
C1623 H1616 0.950 . S
C1623 C1620 1.387 . S
C1624 C1625 1.387 . S
C1624 H1628 0.950 . S
C1624 C1633 1.390 . S
C1625 C1624 1.387 . S
C1625 C1627 1.387 . S
H1626 C1633 0.950 . S
C1627 C1625 1.387 . S
C1627 C1629 1.390 . S
C1627 H1631 0.950 . S
H1628 C1624 0.950 . S
C1629 C1627 1.390 . S
C1629 C1630 1.387 . S
C1629 H1632 0.950 . S
C1630 C1629 1.387 . S
C1630 C1633 1.387 . S
H1631 C1627 0.950 . S
H1632 C1629 0.950 . S
C1633 C1624 1.390 . S
C1633 H1626 0.950 . S
C1633 C1630 1.387 . S
C1634 C1635 1.387 . S
C1634 H1638 0.950 . S
C1634 C1643 1.390 . S
C1635 C1634 1.387 . S
C1635 C1637 1.387 . S
H1636 C1643 0.950 . S
C1637 C1635 1.387 . S
C1637 C1639 1.390 . S
C1637 H1641 0.950 . S
H1638 C1634 0.950 . S
C1639 C1637 1.390 . S
C1639 C1640 1.387 . S
C1639 H1642 0.950 . S
C1640 C1639 1.387 . S
C1640 C1643 1.387 . S
H1641 C1637 0.950 . S
H1642 C1639 0.950 . S
C1643 C1634 1.390 . S
C1643 H1636 0.950 . S
C1643 C1640 1.387 . S
C1644 C1645 1.387 . S
C1644 H1648 0.950 . S
C1644 C1653 1.390 . S
C1645 C1644 1.387 . S
C1645 C1647 1.387 . S
H1646 C1653 0.950 . S
C1647 C1645 1.387 . S
C1647 C1649 1.390 . S
C1647 H1651 0.950 . S
H1648 C1644 0.950 . S
C1649 C1647 1.390 . S
C1649 C1650 1.387 . S
C1649 H1652 0.950 . S
C1650 C1649 1.387 . S
C1650 C1653 1.387 . S
H1651 C1647 0.950 . S
H1652 C1649 0.950 . S
C1653 C1644 1.390 . S
C1653 H1646 0.950 . S
C1653 C1650 1.387 . S
C1654 C1655 1.387 . S
C1654 H1658 0.950 . S
C1654 C1663 1.390 . S
C1655 C1654 1.387 . S
C1655 C1657 1.387 . S
H1656 C1663 0.950 . S
C1657 C1655 1.387 . S
C1657 C1659 1.390 . S
C1657 H1661 0.950 . S
H1658 C1654 0.950 . S
C1659 C1657 1.390 . S
C1659 C1660 1.387 . S
C1659 H1662 0.950 . S
C1660 C1659 1.387 . S
C1660 C1663 1.387 . S
H1661 C1657 0.950 . S
H1662 C1659 0.950 . S
C1663 C1654 1.390 . S
C1663 H1656 0.950 . S
C1663 C1660 1.387 . S
C1664 C1665 1.387 . S
C1664 H1668 0.950 . S
C1664 C1673 1.390 . S
C1665 C1664 1.387 . S
C1665 C1667 1.387 . S
H1666 C1673 0.950 . S
C1667 C1665 1.387 . S
C1667 C1669 1.390 . S
C1667 H1671 0.950 . S
H1668 C1664 0.950 . S
C1669 C1667 1.390 . S
C1669 C1670 1.387 . S
C1669 H1672 0.950 . S
C1670 C1669 1.387 . S
C1670 C1673 1.387 . S
H1671 C1667 0.950 . S
H1672 C1669 0.950 . S
C1673 C1664 1.390 . S
C1673 H1666 0.950 . S
C1673 C1670 1.387 . S
C1674 C1675 1.387 . S
C1674 H1678 0.950 . S
C1674 C1683 1.390 . S
C1675 C1674 1.387 . S
C1675 C1677 1.387 . S
H1676 C1683 0.950 . S
C1677 C1675 1.387 . S
C1677 C1679 1.390 . S
C1677 H1681 0.950 . S
H1678 C1674 0.950 . S
C1679 C1677 1.390 . S
C1679 C1680 1.387 . S
C1679 H1682 0.950 . S
C1680 C1679 1.387 . S
C1680 C1683 1.387 . S
H1681 C1677 0.950 . S
H1682 C1679 0.950 . S
C1683 C1674 1.390 . S
C1683 H1676 0.950 . S
C1683 C1680 1.387 . S
C1684 C1685 1.387 . S
C1684 H1688 0.950 . S
C1684 C1693 1.390 . S
C1685 C1684 1.387 . S
C1685 C1687 1.387 . S
H1686 C1693 0.950 . S
C1687 C1685 1.387 . S
C1687 C1689 1.390 . S
C1687 H1691 0.950 . S
H1688 C1684 0.950 . S
C1689 C1687 1.390 . S
C1689 C1690 1.387 . S
C1689 H1692 0.950 . S
C1690 C1689 1.387 . S
C1690 C1693 1.387 . S
H1691 C1687 0.950 . S
H1692 C1689 0.950 . S
C1693 C1684 1.390 . S
C1693 H1686 0.950 . S
C1693 C1690 1.387 . S
C1694 C1695 1.387 . S
C1694 H1698 0.950 . S
C1694 C1703 1.390 . S
C1695 C1694 1.387 . S
C1695 C1697 1.387 . S
H1696 C1703 0.950 . S
C1697 C1695 1.387 . S
C1697 C1699 1.390 . S
C1697 H1701 0.950 . S
H1698 C1694 0.950 . S
C1699 C1697 1.390 . S
C1699 C1700 1.387 . S
C1699 H1702 0.950 . S
C1700 C1699 1.387 . S
C1700 C1703 1.387 . S
H1701 C1697 0.950 . S
H1702 C1699 0.950 . S
C1703 C1694 1.390 . S
C1703 H1696 0.950 . S
C1703 C1700 1.387 . S
C1704 C1705 1.387 . S
C1704 H1708 0.950 . S
C1704 C1713 1.390 . S
C1705 C1704 1.387 . S
C1705 C1707 1.387 . S
H1706 C1713 0.950 . S
C1707 C1705 1.387 . S
C1707 C1709 1.390 . S
C1707 H1711 0.950 . S
H1708 C1704 0.950 . S
C1709 C1707 1.390 . S
C1709 C1710 1.387 . S
C1709 H1712 0.950 . S
C1710 C1709 1.387 . S
C1710 C1713 1.387 . S
H1711 C1707 0.950 . S
H1712 C1709 0.950 . S
C1713 C1704 1.390 . S
C1713 H1706 0.950 . S
C1713 C1710 1.387 . S
C1714 C1715 1.387 . S
C1714 H1718 0.950 . S
C1714 C1723 1.390 . S
C1715 C1714 1.387 . S
C1715 C1717 1.387 . S
H1716 C1723 0.950 . S
C1717 C1715 1.387 . S
C1717 C1719 1.390 . S
C1717 H1721 0.950 . S
H1718 C1714 0.950 . S
C1719 C1717 1.390 . S
C1719 C1720 1.387 . S
C1719 H1722 0.950 . S
C1720 C1719 1.387 . S
C1720 C1723 1.387 . S
H1721 C1717 0.950 . S
H1722 C1719 0.950 . S
C1723 C1714 1.390 . S
C1723 H1716 0.950 . S
C1723 C1720 1.387 . S
C1724 C1725 1.387 . S
C1724 H1728 0.950 . S
C1724 C1733 1.390 . S
C1725 C1724 1.387 . S
C1725 C1727 1.387 . S
H1726 C1733 0.950 . S
C1727 C1725 1.387 . S
C1727 C1729 1.390 . S
C1727 H1731 0.950 . S
H1728 C1724 0.950 . S
C1729 C1727 1.390 . S
C1729 C1730 1.387 . S
C1729 H1732 0.950 . S
C1730 C1729 1.387 . S
C1730 C1733 1.387 . S
H1731 C1727 0.950 . S
H1732 C1729 0.950 . S
C1733 C1724 1.390 . S
C1733 H1726 0.950 . S
C1733 C1730 1.387 . S
C1734 C1735 1.387 . S
C1734 H1738 0.950 . S
C1734 C1743 1.390 . S
C1735 C1734 1.387 . S
C1735 C1737 1.387 . S
H1736 C1743 0.950 . S
C1737 C1735 1.387 . S
C1737 C1739 1.390 . S
C1737 H1741 0.950 . S
H1738 C1734 0.950 . S
C1739 C1737 1.390 . S
C1739 C1740 1.387 . S
C1739 H1742 0.950 . S
C1740 C1739 1.387 . S
C1740 C1743 1.387 . S
H1741 C1737 0.950 . S
H1742 C1739 0.950 . S
C1743 C1734 1.390 . S
C1743 H1736 0.950 . S
C1743 C1740 1.387 . S
C1744 C1745 1.387 . S
C1744 H1748 0.950 . S
C1744 C1753 1.390 . S
C1745 C1744 1.387 . S
C1745 C1747 1.387 . S
H1746 C1753 0.950 . S
C1747 C1745 1.387 . S
C1747 C1749 1.390 . S
C1747 H1751 0.950 . S
H1748 C1744 0.950 . S
C1749 C1747 1.390 . S
C1749 C1750 1.387 . S
C1749 H1752 0.950 . S
C1750 C1749 1.387 . S
C1750 C1753 1.387 . S
H1751 C1747 0.950 . S
H1752 C1749 0.950 . S
C1753 C1744 1.390 . S
C1753 H1746 0.950 . S
C1753 C1750 1.387 . S
C1754 C1755 1.387 . S
C1754 H1758 0.950 . S
C1754 C1763 1.390 . S
C1755 C1754 1.387 . S
C1755 C1757 1.387 . S
H1756 C1763 0.950 . S
C1757 C1755 1.387 . S
C1757 C1759 1.390 . S
C1757 H1761 0.950 . S
H1758 C1754 0.950 . S
C1759 C1757 1.390 . S
C1759 C1760 1.387 . S
C1759 H1762 0.950 . S
C1760 C1759 1.387 . S
C1760 C1763 1.387 . S
H1761 C1757 0.950 . S
H1762 C1759 0.950 . S
C1763 C1754 1.390 . S
C1763 H1756 0.950 . S
C1763 C1760 1.387 . S
C1764 C1765 1.387 . S
C1764 H1768 0.950 . S
C1764 C1773 1.390 . S
C1765 C1764 1.387 . S
C1765 C1767 1.387 . S
H1766 C1773 0.950 . S
C1767 C1765 1.387 . S
C1767 C1769 1.390 . S
C1767 H1771 0.950 . S
H1768 C1764 0.950 . S
C1769 C1767 1.390 . S
C1769 C1770 1.387 . S
C1769 H1772 0.950 . S
C1770 C1769 1.387 . S
C1770 C1773 1.387 . S
H1771 C1767 0.950 . S
H1772 C1769 0.950 . S
C1773 C1764 1.390 . S
C1773 H1766 0.950 . S
C1773 C1770 1.387 . S
C1774 C1775 1.387 . S
C1774 H1778 0.950 . S
C1774 C1783 1.390 . S
C1775 C1774 1.387 . S
C1775 C1777 1.387 . S
H1776 C1783 0.950 . S
C1777 C1775 1.387 . S
C1777 C1779 1.390 . S
C1777 H1781 0.950 . S
H1778 C1774 0.950 . S
C1779 C1777 1.390 . S
C1779 C1780 1.387 . S
C1779 H1782 0.950 . S
C1780 C1779 1.387 . S
C1780 C1783 1.387 . S
H1781 C1777 0.950 . S
H1782 C1779 0.950 . S
C1783 C1774 1.390 . S
C1783 H1776 0.950 . S
C1783 C1780 1.387 . S
C1784 C1785 1.387 . S
C1784 H1788 0.950 . S
C1784 C1793 1.390 . S
C1785 C1784 1.387 . S
C1785 C1787 1.387 . S
H1786 C1793 0.950 . S
C1787 C1785 1.387 . S
C1787 C1789 1.390 . S
C1787 H1791 0.950 . S
H1788 C1784 0.950 . S
C1789 C1787 1.390 . S
C1789 C1790 1.387 . S
C1789 H1792 0.950 . S
C1790 C1789 1.387 . S
C1790 C1793 1.387 . S
H1791 C1787 0.950 . S
H1792 C1789 0.950 . S
C1793 C1784 1.390 . S
C1793 H1786 0.950 . S
C1793 C1790 1.387 . S
C1794 C1795 1.387 . S
C1794 H1798 0.950 . S
C1794 C1803 1.390 . S
C1795 C1794 1.387 . S
C1795 C1797 1.387 . S
H1796 C1803 0.950 . S
C1797 C1795 1.387 . S
C1797 C1799 1.390 . S
C1797 H1801 0.950 . S
H1798 C1794 0.950 . S
C1799 C1797 1.390 . S
C1799 C1800 1.387 . S
C1799 H1802 0.950 . S
C1800 C1799 1.387 . S
C1800 C1803 1.387 . S
H1801 C1797 0.950 . S
H1802 C1799 0.950 . S
C1803 C1794 1.390 . S
C1803 H1796 0.950 . S
C1803 C1800 1.387 . S
C1804 C1805 1.387 . S
C1804 H1808 0.950 . S
C1804 C1813 1.390 . S
C1805 C1804 1.387 . S
C1805 C1807 1.387 . S
H1806 C1813 0.950 . S
C1807 C1805 1.387 . S
C1807 C1809 1.390 . S
C1807 H1811 0.950 . S
H1808 C1804 0.950 . S
C1809 C1807 1.390 . S
C1809 C1810 1.387 . S
C1809 H1812 0.950 . S
C1810 C1809 1.387 . S
C1810 C1813 1.387 . S
H1811 C1807 0.950 . S
H1812 C1809 0.950 . S
C1813 C1804 1.390 . S
C1813 H1806 0.950 . S
C1813 C1810 1.387 . S
C1814 C1815 1.387 . S
C1814 H1818 0.950 . S
C1814 C1823 1.390 . S
C1815 C1814 1.387 . S
C1815 C1817 1.387 . S
H1816 C1823 0.950 . S
C1817 C1815 1.387 . S
C1817 C1819 1.390 . S
C1817 H1821 0.950 . S
H1818 C1814 0.950 . S
C1819 C1817 1.390 . S
C1819 C1820 1.387 . S
C1819 H1822 0.950 . S
C1820 C1819 1.387 . S
C1820 C1823 1.387 . S
H1821 C1817 0.950 . S
H1822 C1819 0.950 . S
C1823 C1814 1.390 . S
C1823 H1816 0.950 . S
C1823 C1820 1.387 . S
C1824 C1825 1.387 . S
C1824 H1828 0.950 . S
C1824 C1833 1.390 . S
C1825 C1824 1.387 . S
C1825 C1827 1.387 . S
H1826 C1833 0.950 . S
C1827 C1825 1.387 . S
C1827 C1829 1.390 . S
C1827 H1831 0.950 . S
H1828 C1824 0.950 . S
C1829 C1827 1.390 . S
C1829 C1830 1.387 . S
C1829 H1832 0.950 . S
C1830 C1829 1.387 . S
C1830 C1833 1.387 . S
H1831 C1827 0.950 . S
H1832 C1829 0.950 . S
C1833 C1824 1.390 . S
C1833 H1826 0.950 . S
C1833 C1830 1.387 . S
C1834 C1835 1.387 . S
C1834 H1838 0.950 . S
C1834 C1843 1.390 . S
C1835 C1834 1.387 . S
C1835 C1837 1.387 . S
H1836 C1843 0.950 . S
C1837 C1835 1.387 . S
C1837 C1839 1.390 . S
C1837 H1841 0.950 . S
H1838 C1834 0.950 . S
C1839 C1837 1.390 . S
C1839 C1840 1.387 . S
C1839 H1842 0.950 . S
C1840 C1839 1.387 . S
C1840 C1843 1.387 . S
H1841 C1837 0.950 . S
H1842 C1839 0.950 . S
C1843 C1834 1.390 . S
C1843 H1836 0.950 . S
C1843 C1840 1.387 . S
C1844 C1845 1.387 . S
C1844 H1848 0.950 . S
C1844 C1853 1.390 . S
C1845 C1844 1.387 . S
C1845 C1847 1.387 . S
H1846 C1853 0.950 . S
C1847 C1845 1.387 . S
C1847 C1849 1.390 . S
C1847 H1851 0.950 . S
H1848 C1844 0.950 . S
C1849 C1847 1.390 . S
C1849 C1850 1.387 . S
C1849 H1852 0.950 . S
C1850 C1849 1.387 . S
C1850 C1853 1.387 . S
H1851 C1847 0.950 . S
H1852 C1849 0.950 . S
C1853 C1844 1.390 . S
C1853 H1846 0.950 . S
C1853 C1850 1.387 . S
C1854 C1855 1.387 . S
C1854 H1858 0.950 . S
C1854 C1863 1.390 . S
C1855 C1854 1.387 . S
C1855 C1857 1.387 . S
H1856 C1863 0.950 . S
C1857 C1855 1.387 . S
C1857 C1859 1.390 . S
C1857 H1861 0.950 . S
H1858 C1854 0.950 . S
C1859 C1857 1.390 . S
C1859 C1860 1.387 . S
C1859 H1862 0.950 . S
C1860 C1859 1.387 . S
C1860 C1863 1.387 . S
H1861 C1857 0.950 . S
H1862 C1859 0.950 . S
C1863 C1854 1.390 . S
C1863 H1856 0.950 . S
C1863 C1860 1.387 . S
C1864 C1865 1.387 . S
C1864 H1868 0.950 . S
C1864 C1873 1.390 . S
C1865 C1864 1.387 . S
C1865 C1867 1.387 . S
H1866 C1873 0.950 . S
C1867 C1865 1.387 . S
C1867 C1869 1.390 . S
C1867 H1871 0.950 . S
H1868 C1864 0.950 . S
C1869 C1867 1.390 . S
C1869 C1870 1.387 . S
C1869 H1872 0.950 . S
C1870 C1869 1.387 . S
C1870 C1873 1.387 . S
H1871 C1867 0.950 . S
H1872 C1869 0.950 . S
C1873 C1864 1.390 . S
C1873 H1866 0.950 . S
C1873 C1870 1.387 . S
C1874 C1875 1.387 . S
C1874 H1878 0.950 . S
C1874 C1883 1.390 . S
C1875 C1874 1.387 . S
C1875 C1877 1.387 . S
H1876 C1883 0.950 . S
C1877 C1875 1.387 . S
C1877 C1879 1.390 . S
C1877 H1881 0.950 . S
H1878 C1874 0.950 . S
C1879 C1877 1.390 . S
C1879 C1880 1.387 . S
C1879 H1882 0.950 . S
C1880 C1879 1.387 . S
C1880 C1883 1.387 . S
H1881 C1877 0.950 . S
H1882 C1879 0.950 . S
C1883 C1874 1.390 . S
C1883 H1876 0.950 . S
C1883 C1880 1.387 . S
C1884 C1885 1.387 . S
C1884 H1888 0.950 . S
C1884 C1893 1.390 . S
C1885 C1884 1.387 . S
C1885 C1887 1.387 . S
H1886 C1893 0.950 . S
C1887 C1885 1.387 . S
C1887 C1889 1.390 . S
C1887 H1891 0.950 . S
H1888 C1884 0.950 . S
C1889 C1887 1.390 . S
C1889 C1890 1.387 . S
C1889 H1892 0.950 . S
C1890 C1889 1.387 . S
C1890 C1893 1.387 . S
H1891 C1887 0.950 . S
H1892 C1889 0.950 . S
C1893 C1884 1.390 . S
C1893 H1886 0.950 . S
C1893 C1890 1.387 . S
C1894 C1895 1.387 . S
C1894 H1898 0.950 . S
C1894 C1903 1.390 . S
C1895 C1894 1.387 . S
C1895 C1897 1.387 . S
H1896 C1903 0.950 . S
C1897 C1895 1.387 . S
C1897 C1899 1.390 . S
C1897 H1901 0.950 . S
H1898 C1894 0.950 . S
C1899 C1897 1.390 . S
C1899 C1900 1.387 . S
C1899 H1902 0.950 . S
C1900 C1899 1.387 . S
C1900 C1903 1.387 . S
H1901 C1897 0.950 . S
H1902 C1899 0.950 . S
C1903 C1894 1.390 . S
C1903 H1896 0.950 . S
C1903 C1900 1.387 . S
C1904 C1905 1.387 . S
C1904 H1908 0.950 . S
C1904 C1913 1.390 . S
C1905 C1904 1.387 . S
C1905 C1907 1.387 . S
H1906 C1913 0.950 . S
C1907 C1905 1.387 . S
C1907 C1909 1.390 . S
C1907 H1911 0.950 . S
H1908 C1904 0.950 . S
C1909 C1907 1.390 . S
C1909 C1910 1.387 . S
C1909 H1912 0.950 . S
C1910 C1909 1.387 . S
C1910 C1913 1.387 . S
H1911 C1907 0.950 . S
H1912 C1909 0.950 . S
C1913 C1904 1.390 . S
C1913 H1906 0.950 . S
C1913 C1910 1.387 . S
C1914 C1915 1.387 . S
C1914 H1918 0.950 . S
C1914 C1923 1.390 . S
C1915 C1914 1.387 . S
C1915 C1917 1.387 . S
H1916 C1923 0.950 . S
C1917 C1915 1.387 . S
C1917 C1919 1.390 . S
C1917 H1921 0.950 . S
H1918 C1914 0.950 . S
C1919 C1917 1.390 . S
C1919 C1920 1.387 . S
C1919 H1922 0.950 . S
C1920 C1919 1.387 . S
C1920 C1923 1.387 . S
H1921 C1917 0.950 . S
H1922 C1919 0.950 . S
C1923 C1914 1.390 . S
C1923 H1916 0.950 . S
C1923 C1920 1.387 . S
C1924 C1925 1.387 . S
C1924 H1928 0.950 . S
C1924 C1933 1.390 . S
C1925 C1924 1.387 . S
C1925 C1927 1.387 . S
H1926 C1933 0.950 . S
C1927 C1925 1.387 . S
C1927 C1929 1.390 . S
C1927 H1931 0.950 . S
H1928 C1924 0.950 . S
C1929 C1927 1.390 . S
C1929 C1930 1.387 . S
C1929 H1932 0.950 . S
C1930 C1929 1.387 . S
C1930 C1933 1.387 . S
H1931 C1927 0.950 . S
H1932 C1929 0.950 . S
C1933 C1924 1.390 . S
C1933 H1926 0.950 . S
C1933 C1930 1.387 . S
C1934 C1935 1.387 . S
C1934 H1938 0.950 . S
C1934 C1943 1.390 . S
C1935 C1934 1.387 . S
C1935 C1937 1.387 . S
H1936 C1943 0.950 . S
C1937 C1935 1.387 . S
C1937 C1939 1.390 . S
C1937 H1941 0.950 . S
H1938 C1934 0.950 . S
C1939 C1937 1.390 . S
C1939 C1940 1.387 . S
C1939 H1942 0.950 . S
C1940 C1939 1.387 . S
C1940 C1943 1.387 . S
H1941 C1937 0.950 . S
H1942 C1939 0.950 . S
C1943 C1934 1.390 . S
C1943 H1936 0.950 . S
C1943 C1940 1.387 . S
C1944 C1945 1.387 . S
C1944 H1948 0.950 . S
C1944 C1953 1.390 . S
C1945 C1944 1.387 . S
C1945 C1947 1.387 . S
H1946 C1953 0.950 . S
C1947 C1945 1.387 . S
C1947 C1949 1.390 . S
C1947 H1951 0.950 . S
H1948 C1944 0.950 . S
C1949 C1947 1.390 . S
C1949 C1950 1.387 . S
C1949 H1952 0.950 . S
C1950 C1949 1.387 . S
C1950 C1953 1.387 . S
H1951 C1947 0.950 . S
H1952 C1949 0.950 . S
C1953 C1944 1.390 . S
C1953 H1946 0.950 . S
C1953 C1950 1.387 . S
C1954 C1955 1.387 . S
C1954 H1958 0.950 . S
C1954 C1963 1.390 . S
C1955 C1954 1.387 . S
C1955 C1957 1.387 . S
H1956 C1963 0.950 . S
C1957 C1955 1.387 . S
C1957 C1959 1.390 . S
C1957 H1961 0.950 . S
H1958 C1954 0.950 . S
C1959 C1957 1.390 . S
C1959 C1960 1.387 . S
C1959 H1962 0.950 . S
C1960 C1959 1.387 . S
C1960 C1963 1.387 . S
H1961 C1957 0.950 . S
H1962 C1959 0.950 . S
C1963 C1954 1.390 . S
C1963 H1956 0.950 . S
C1963 C1960 1.387 . S
C1964 C1965 1.387 . S
C1964 H1968 0.950 . S
C1964 C1973 1.390 . S
C1965 C1964 1.387 . S
C1965 C1967 1.387 . S
H1966 C1973 0.950 . S
C1967 C1965 1.387 . S
C1967 C1969 1.390 . S
C1967 H1971 0.950 . S
H1968 C1964 0.950 . S
C1969 C1967 1.390 . S
C1969 C1970 1.387 . S
C1969 H1972 0.950 . S
C1970 C1969 1.387 . S
C1970 C1973 1.387 . S
H1971 C1967 0.950 . S
H1972 C1969 0.950 . S
C1973 C1964 1.390 . S
C1973 H1966 0.950 . S
C1973 C1970 1.387 . S
C1974 C1975 1.387 . S
C1974 H1978 0.950 . S
C1974 C1983 1.390 . S
C1975 C1974 1.387 . S
C1975 C1977 1.387 . S
H1976 C1983 0.950 . S
C1977 C1975 1.387 . S
C1977 C1979 1.390 . S
C1977 H1981 0.950 . S
H1978 C1974 0.950 . S
C1979 C1977 1.390 . S
C1979 C1980 1.387 . S
C1979 H1982 0.950 . S
C1980 C1979 1.387 . S
C1980 C1983 1.387 . S
H1981 C1977 0.950 . S
H1982 C1979 0.950 . S
C1983 C1974 1.390 . S
C1983 H1976 0.950 . S
C1983 C1980 1.387 . S
C1984 C1985 1.387 . S
C1984 H1988 0.950 . S
C1984 C1993 1.390 . S
C1985 C1984 1.387 . S
C1985 C1987 1.387 . S
H1986 C1993 0.950 . S
C1987 C1985 1.387 . S
C1987 C1989 1.390 . S
C1987 H1991 0.950 . S
H1988 C1984 0.950 . S
C1989 C1987 1.390 . S
C1989 C1990 1.387 . S
C1989 H1992 0.950 . S
C1990 C1989 1.387 . S
C1990 C1993 1.387 . S
H1991 C1987 0.950 . S
H1992 C1989 0.950 . S
C1993 C1984 1.390 . S
C1993 H1986 0.950 . S
C1993 C1990 1.387 . S
C1994 C1995 1.387 . S
C1994 H1998 0.950 . S
C1994 C2003 1.390 . S
C1995 C1994 1.387 . S
C1995 C1997 1.387 . S
H1996 C2003 0.950 . S
C1997 C1995 1.387 . S
C1997 C1999 1.390 . S
C1997 H2001 0.950 . S
H1998 C1994 0.950 . S
C1999 C1997 1.390 . S
C1999 C2000 1.387 . S
C1999 H2002 0.950 . S
C2000 C1999 1.387 . S
C2000 C2003 1.387 . S
H2001 C1997 0.950 . S
H2002 C1999 0.950 . S
C2003 C1994 1.390 . S
C2003 H1996 0.950 . S
C2003 C2000 1.387 . S
C2004 C2005 1.387 . S
C2004 H2008 0.950 . S
C2004 C2013 1.390 . S
C2005 C2004 1.387 . S
C2005 C2007 1.387 . S
H2006 C2013 0.950 . S
C2007 C2005 1.387 . S
C2007 C2009 1.390 . S
C2007 H2011 0.950 . S
H2008 C2004 0.950 . S
C2009 C2007 1.390 . S
C2009 C2010 1.387 . S
C2009 H2012 0.950 . S
C2010 C2009 1.387 . S
C2010 C2013 1.387 . S
H2011 C2007 0.950 . S
H2012 C2009 0.950 . S
C2013 C2004 1.390 . S
C2013 H2006 0.950 . S
C2013 C2010 1.387 . S
C2014 C2015 1.387 . S
C2014 H2018 0.950 . S
C2014 C2023 1.390 . S
C2015 C2014 1.387 . S
C2015 C2017 1.387 . S
H2016 C2023 0.950 . S
C2017 C2015 1.387 . S
C2017 C2019 1.390 . S
C2017 H2021 0.950 . S
H2018 C2014 0.950 . S
C2019 C2017 1.390 . S
C2019 C2020 1.387 . S
C2019 H2022 0.950 . S
C2020 C2019 1.387 . S
C2020 C2023 1.387 . S
H2021 C2017 0.950 . S
H2022 C2019 0.950 . S
C2023 C2014 1.390 . S
C2023 H2016 0.950 . S
C2023 C2020 1.387 . S
C2024 C2025 1.387 . S
C2024 H2028 0.950 . S
C2024 C2033 1.390 . S
C2025 C2024 1.387 . S
C2025 C2027 1.387 . S
H2026 C2033 0.950 . S
C2027 C2025 1.387 . S
C2027 C2029 1.390 . S
C2027 H2031 0.950 . S
H2028 C2024 0.950 . S
C2029 C2027 1.390 . S
C2029 C2030 1.387 . S
C2029 H2032 0.950 . S
C2030 C2029 1.387 . S
C2030 C2033 1.387 . S
H2031 C2027 0.950 . S
H2032 C2029 0.950 . S
C2033 C2024 1.390 . S
C2033 H2026 0.950 . S
C2033 C2030 1.387 . S
C2034 C2035 1.387 . S
C2034 H2038 0.950 . S
C2034 C2043 1.390 . S
C2035 C2034 1.387 . S
C2035 C2037 1.387 . S
H2036 C2043 0.950 . S
C2037 C2035 1.387 . S
C2037 C2039 1.390 . S
C2037 H2041 0.950 . S
H2038 C2034 0.950 . S
C2039 C2037 1.390 . S
C2039 C2040 1.387 . S
C2039 H2042 0.950 . S
C2040 C2039 1.387 . S
C2040 C2043 1.387 . S
H2041 C2037 0.950 . S
H2042 C2039 0.950 . S
C2043 C2034 1.390 . S
C2043 H2036 0.950 . S
C2043 C2040 1.387 . S
C2044 C2045 1.387 . S
C2044 H2048 0.950 . S
C2044 C2053 1.390 . S
C2045 C2044 1.387 . S
C2045 C2047 1.387 . S
H2046 C2053 0.950 . S
C2047 C2045 1.387 . S
C2047 C2049 1.390 . S
C2047 H2051 0.950 . S
H2048 C2044 0.950 . S
C2049 C2047 1.390 . S
C2049 C2050 1.387 . S
C2049 H2052 0.950 . S
C2050 C2049 1.387 . S
C2050 C2053 1.387 . S
H2051 C2047 0.950 . S
H2052 C2049 0.950 . S
C2053 C2044 1.390 . S
C2053 H2046 0.950 . S
C2053 C2050 1.387 . S
C2054 C2055 1.387 . S
C2054 H2058 0.950 . S
C2054 C2063 1.390 . S
C2055 C2054 1.387 . S
C2055 C2057 1.387 . S
H2056 C2063 0.950 . S
C2057 C2055 1.387 . S
C2057 C2059 1.390 . S
C2057 H2061 0.950 . S
H2058 C2054 0.950 . S
C2059 C2057 1.390 . S
C2059 C2060 1.387 . S
C2059 H2062 0.950 . S
C2060 C2059 1.387 . S
C2060 C2063 1.387 . S
H2061 C2057 0.950 . S
H2062 C2059 0.950 . S
C2063 C2054 1.390 . S
C2063 H2056 0.950 . S
C2063 C2060 1.387 . S
C2064 C2065 1.387 . S
C2064 H2068 0.950 . S
C2064 C2073 1.390 . S
C2065 C2064 1.387 . S
C2065 C2067 1.387 . S
H2066 C2073 0.950 . S
C2067 C2065 1.387 . S
C2067 C2069 1.390 . S
C2067 H2071 0.950 . S
H2068 C2064 0.950 . S
C2069 C2067 1.390 . S
C2069 C2070 1.387 . S
C2069 H2072 0.950 . S
C2070 C2069 1.387 . S
C2070 C2073 1.387 . S
H2071 C2067 0.950 . S
H2072 C2069 0.950 . S
C2073 C2064 1.390 . S
C2073 H2066 0.950 . S
C2073 C2070 1.387 . S
C2074 C2075 1.387 . S
C2074 H2078 0.950 . S
C2074 C2083 1.390 . S
C2075 C2074 1.387 . S
C2075 C2077 1.387 . S
H2076 C2083 0.950 . S
C2077 C2075 1.387 . S
C2077 C2079 1.390 . S
C2077 H2081 0.950 . S
H2078 C2074 0.950 . S
C2079 C2077 1.390 . S
C2079 C2080 1.387 . S
C2079 H2082 0.950 . S
C2080 C2079 1.387 . S
C2080 C2083 1.387 . S
H2081 C2077 0.950 . S
H2082 C2079 0.950 . S
C2083 C2074 1.390 . S
C2083 H2076 0.950 . S
C2083 C2080 1.387 . S
C2084 C2085 1.387 . S
C2084 H2088 0.950 . S
C2084 C2093 1.390 . S
C2085 C2084 1.387 . S
C2085 C2087 1.387 . S
H2086 C2093 0.950 . S
C2087 C2085 1.387 . S
C2087 C2089 1.390 . S
C2087 H2091 0.950 . S
H2088 C2084 0.950 . S
C2089 C2087 1.390 . S
C2089 C2090 1.387 . S
C2089 H2092 0.950 . S
C2090 C2089 1.387 . S
C2090 C2093 1.387 . S
H2091 C2087 0.950 . S
H2092 C2089 0.950 . S
C2093 C2084 1.390 . S
C2093 H2086 0.950 . S
C2093 C2090 1.387 . S
C2094 C2095 1.387 . S
C2094 H2098 0.950 . S
C2094 C2103 1.390 . S
C2095 C2094 1.387 . S
C2095 C2097 1.387 . S
H2096 C2103 0.950 . S
C2097 C2095 1.387 . S
C2097 C2099 1.390 . S
C2097 H2101 0.950 . S
H2098 C2094 0.950 . S
C2099 C2097 1.390 . S
C2099 C2100 1.387 . S
C2099 H2102 0.950 . S
C2100 C2099 1.387 . S
C2100 C2103 1.387 . S
H2101 C2097 0.950 . S
H2102 C2099 0.950 . S
C2103 C2094 1.390 . S
C2103 H2096 0.950 . S
C2103 C2100 1.387 . S
C2104 C2105 1.387 . S
C2104 H2108 0.950 . S
C2104 C2113 1.390 . S
C2105 C2104 1.387 . S
C2105 C2107 1.387 . S
H2106 C2113 0.950 . S
C2107 C2105 1.387 . S
C2107 C2109 1.390 . S
C2107 H2111 0.950 . S
H2108 C2104 0.950 . S
C2109 C2107 1.390 . S
C2109 C2110 1.387 . S
C2109 H2112 0.950 . S
C2110 C2109 1.387 . S
C2110 C2113 1.387 . S
H2111 C2107 0.950 . S
H2112 C2109 0.950 . S
C2113 C2104 1.390 . S
C2113 H2106 0.950 . S
C2113 C2110 1.387 . S
C2114 C2115 1.387 . S
C2114 H2118 0.950 . S
C2114 C2123 1.390 . S
C2115 C2114 1.387 . S
C2115 C2117 1.387 . S
H2116 C2123 0.950 . S
C2117 C2115 1.387 . S
C2117 C2119 1.390 . S
C2117 H2121 0.950 . S
H2118 C2114 0.950 . S
C2119 C2117 1.390 . S
C2119 C2120 1.387 . S
C2119 H2122 0.950 . S
C2120 C2119 1.387 . S
C2120 C2123 1.387 . S
H2121 C2117 0.950 . S
H2122 C2119 0.950 . S
C2123 C2114 1.390 . S
C2123 H2116 0.950 . S
C2123 C2120 1.387 . S
C2124 C2125 1.387 . S
C2124 H2128 0.950 . S
C2124 C2133 1.390 . S
C2125 C2124 1.387 . S
C2125 C2127 1.387 . S
H2126 C2133 0.950 . S
C2127 C2125 1.387 . S
C2127 C2129 1.390 . S
C2127 H2131 0.950 . S
H2128 C2124 0.950 . S
C2129 C2127 1.390 . S
C2129 C2130 1.387 . S
C2129 H2132 0.950 . S
C2130 C2129 1.387 . S
C2130 C2133 1.387 . S
H2131 C2127 0.950 . S
H2132 C2129 0.950 . S
C2133 C2124 1.390 . S
C2133 H2126 0.950 . S
C2133 C2130 1.387 . S
C2134 C2135 1.387 . S
C2134 H2138 0.950 . S
C2134 C2143 1.390 . S
C2135 C2134 1.387 . S
C2135 C2137 1.387 . S
H2136 C2143 0.950 . S
C2137 C2135 1.387 . S
C2137 C2139 1.390 . S
C2137 H2141 0.950 . S
H2138 C2134 0.950 . S
C2139 C2137 1.390 . S
C2139 C2140 1.387 . S
C2139 H2142 0.950 . S
C2140 C2139 1.387 . S
C2140 C2143 1.387 . S
H2141 C2137 0.950 . S
H2142 C2139 0.950 . S
C2143 C2134 1.390 . S
C2143 H2136 0.950 . S
C2143 C2140 1.387 . S
C2144 C2145 1.387 . S
C2144 H2148 0.950 . S
C2144 C2153 1.390 . S
C2145 C2144 1.387 . S
C2145 C2147 1.387 . S
H2146 C2153 0.950 . S
C2147 C2145 1.387 . S
C2147 C2149 1.390 . S
C2147 H2151 0.950 . S
H2148 C2144 0.950 . S
C2149 C2147 1.390 . S
C2149 C2150 1.387 . S
C2149 H2152 0.950 . S
C2150 C2149 1.387 . S
C2150 C2153 1.387 . S
H2151 C2147 0.950 . S
H2152 C2149 0.950 . S
C2153 C2144 1.390 . S
C2153 H2146 0.950 . S
C2153 C2150 1.387 . S
C2154 C2155 1.387 . S
C2154 H2158 0.950 . S
C2154 C2163 1.390 . S
C2155 C2154 1.387 . S
C2155 C2157 1.387 . S
H2156 C2163 0.950 . S
C2157 C2155 1.387 . S
C2157 C2159 1.390 . S
C2157 H2161 0.950 . S
H2158 C2154 0.950 . S
C2159 C2157 1.390 . S
C2159 C2160 1.387 . S
C2159 H2162 0.950 . S
C2160 C2159 1.387 . S
C2160 C2163 1.387 . S
H2161 C2157 0.950 . S
H2162 C2159 0.950 . S
C2163 C2154 1.390 . S
C2163 H2156 0.950 . S
C2163 C2160 1.387 . S
C2164 C2165 1.387 . S
C2164 H2168 0.950 . S
C2164 C2173 1.390 . S
C2165 C2164 1.387 . S
C2165 C2167 1.387 . S
H2166 C2173 0.950 . S
C2167 C2165 1.387 . S
C2167 C2169 1.390 . S
C2167 H2171 0.950 . S
H2168 C2164 0.950 . S
C2169 C2167 1.390 . S
C2169 C2170 1.387 . S
C2169 H2172 0.950 . S
C2170 C2169 1.387 . S
C2170 C2173 1.387 . S
H2171 C2167 0.950 . S
H2172 C2169 0.950 . S
C2173 C2164 1.390 . S
C2173 H2166 0.950 . S
C2173 C2170 1.387 . S
C2174 C2175 1.387 . S
C2174 H2178 0.950 . S
C2174 C2183 1.390 . S
C2175 C2174 1.387 . S
C2175 C2177 1.387 . S
H2176 C2183 0.950 . S
C2177 C2175 1.387 . S
C2177 C2179 1.390 . S
C2177 H2181 0.950 . S
H2178 C2174 0.950 . S
C2179 C2177 1.390 . S
C2179 C2180 1.387 . S
C2179 H2182 0.950 . S
C2180 C2179 1.387 . S
C2180 C2183 1.387 . S
H2181 C2177 0.950 . S
H2182 C2179 0.950 . S
C2183 C2174 1.390 . S
C2183 H2176 0.950 . S
C2183 C2180 1.387 . S
C2184 C2185 1.387 . S
C2184 H2188 0.950 . S
C2184 C2193 1.390 . S
C2185 C2184 1.387 . S
C2185 C2187 1.387 . S
H2186 C2193 0.950 . S
C2187 C2185 1.387 . S
C2187 C2189 1.390 . S
C2187 H2191 0.950 . S
H2188 C2184 0.950 . S
C2189 C2187 1.390 . S
C2189 C2190 1.387 . S
C2189 H2192 0.950 . S
C2190 C2189 1.387 . S
C2190 C2193 1.387 . S
H2191 C2187 0.950 . S
H2192 C2189 0.950 . S
C2193 C2184 1.390 . S
C2193 H2186 0.950 . S
C2193 C2190 1.387 . S
C2194 C2195 1.387 . S
C2194 H2198 0.950 . S
C2194 C2203 1.390 . S
C2195 C2194 1.387 . S
C2195 C2197 1.387 . S
H2196 C2203 0.950 . S
C2197 C2195 1.387 . S
C2197 C2199 1.390 . S
C2197 H2201 0.950 . S
H2198 C2194 0.950 . S
C2199 C2197 1.390 . S
C2199 C2200 1.387 . S
C2199 H2202 0.950 . S
C2200 C2199 1.387 . S
C2200 C2203 1.387 . S
H2201 C2197 0.950 . S
H2202 C2199 0.950 . S
C2203 C2194 1.390 . S
C2203 H2196 0.950 . S
C2203 C2200 1.387 . S
C2204 C2205 1.387 . S
C2204 H2208 0.950 . S
C2204 C2213 1.390 . S
C2205 C2204 1.387 . S
C2205 C2207 1.387 . S
H2206 C2213 0.950 . S
C2207 C2205 1.387 . S
C2207 C2209 1.390 . S
C2207 H2211 0.950 . S
H2208 C2204 0.950 . S
C2209 C2207 1.390 . S
C2209 C2210 1.387 . S
C2209 H2212 0.950 . S
C2210 C2209 1.387 . S
C2210 C2213 1.387 . S
H2211 C2207 0.950 . S
H2212 C2209 0.950 . S
C2213 C2204 1.390 . S
C2213 H2206 0.950 . S
C2213 C2210 1.387 . S
C2214 C2215 1.387 . S
C2214 H2218 0.950 . S
C2214 C2223 1.390 . S
C2215 C2214 1.387 . S
C2215 C2217 1.387 . S
H2216 C2223 0.950 . S
C2217 C2215 1.387 . S
C2217 C2219 1.390 . S
C2217 H2221 0.950 . S
H2218 C2214 0.950 . S
C2219 C2217 1.390 . S
C2219 C2220 1.387 . S
C2219 H2222 0.950 . S
C2220 C2219 1.387 . S
C2220 C2223 1.387 . S
H2221 C2217 0.950 . S
H2222 C2219 0.950 . S
C2223 C2214 1.390 . S
C2223 H2216 0.950 . S
C2223 C2220 1.387 . S
C2224 C2225 1.387 . S
C2224 H2228 0.950 . S
C2224 C2233 1.390 . S
C2225 C2224 1.387 . S
C2225 C2227 1.387 . S
H2226 C2233 0.950 . S
C2227 C2225 1.387 . S
C2227 C2229 1.390 . S
C2227 H2231 0.950 . S
H2228 C2224 0.950 . S
C2229 C2227 1.390 . S
C2229 C2230 1.387 . S
C2229 H2232 0.950 . S
C2230 C2229 1.387 . S
C2230 C2233 1.387 . S
H2231 C2227 0.950 . S
H2232 C2229 0.950 . S
C2233 C2224 1.390 . S
C2233 H2226 0.950 . S
C2233 C2230 1.387 . S
C2234 C2235 1.387 . S
C2234 H2238 0.950 . S
C2234 C2243 1.390 . S
C2235 C2234 1.387 . S
C2235 C2237 1.387 . S
H2236 C2243 0.950 . S
C2237 C2235 1.387 . S
C2237 C2239 1.390 . S
C2237 H2241 0.950 . S
H2238 C2234 0.950 . S
C2239 C2237 1.390 . S
C2239 C2240 1.387 . S
C2239 H2242 0.950 . S
C2240 C2239 1.387 . S
C2240 C2243 1.387 . S
H2241 C2237 0.950 . S
H2242 C2239 0.950 . S
C2243 C2234 1.390 . S
C2243 H2236 0.950 . S
C2243 C2240 1.387 . S
C2244 C2245 1.387 . S
C2244 H2248 0.950 . S
C2244 C2253 1.390 . S
C2245 C2244 1.387 . S
C2245 C2247 1.387 . S
H2246 C2253 0.950 . S
C2247 C2245 1.387 . S
C2247 C2249 1.390 . S
C2247 H2251 0.950 . S
H2248 C2244 0.950 . S
C2249 C2247 1.390 . S
C2249 C2250 1.387 . S
C2249 H2252 0.950 . S
C2250 C2249 1.387 . S
C2250 C2253 1.387 . S
H2251 C2247 0.950 . S
H2252 C2249 0.950 . S
C2253 C2244 1.390 . S
C2253 H2246 0.950 . S
C2253 C2250 1.387 . S
C2254 C2255 1.387 . S
C2254 H2258 0.950 . S
C2254 C2263 1.390 . S
C2255 C2254 1.387 . S
C2255 C2257 1.387 . S
H2256 C2263 0.950 . S
C2257 C2255 1.387 . S
C2257 C2259 1.390 . S
C2257 H2261 0.950 . S
H2258 C2254 0.950 . S
C2259 C2257 1.390 . S
C2259 C2260 1.387 . S
C2259 H2262 0.950 . S
C2260 C2259 1.387 . S
C2260 C2263 1.387 . S
H2261 C2257 0.950 . S
H2262 C2259 0.950 . S
C2263 C2254 1.390 . S
C2263 H2256 0.950 . S
C2263 C2260 1.387 . S
C2264 C2265 1.387 . S
C2264 H2268 0.950 . S
C2264 C2273 1.390 . S
C2265 C2264 1.387 . S
C2265 C2267 1.387 . S
H2266 C2273 0.950 . S
C2267 C2265 1.387 . S
C2267 C2269 1.390 . S
C2267 H2271 0.950 . S
H2268 C2264 0.950 . S
C2269 C2267 1.390 . S
C2269 C2270 1.387 . S
C2269 H2272 0.950 . S
C2270 C2269 1.387 . S
C2270 C2273 1.387 . S
H2271 C2267 0.950 . S
H2272 C2269 0.950 . S
C2273 C2264 1.390 . S
C2273 H2266 0.950 . S
C2273 C2270 1.387 . S
C2274 C2275 1.387 . S
C2274 H2278 0.950 . S
C2274 C2283 1.390 . S
C2275 C2274 1.387 . S
C2275 C2277 1.387 . S
H2276 C2283 0.950 . S
C2277 C2275 1.387 . S
C2277 C2279 1.390 . S
C2277 H2281 0.950 . S
H2278 C2274 0.950 . S
C2279 C2277 1.390 . S
C2279 C2280 1.387 . S
C2279 H2282 0.950 . S
C2280 C2279 1.387 . S
C2280 C2283 1.387 . S
H2281 C2277 0.950 . S
H2282 C2279 0.950 . S
C2283 C2274 1.390 . S
C2283 H2276 0.950 . S
C2283 C2280 1.387 . S
C2284 C2285 1.387 . S
C2284 H2288 0.950 . S
C2284 C2293 1.390 . S
C2285 C2284 1.387 . S
C2285 C2287 1.387 . S
H2286 C2293 0.950 . S
C2287 C2285 1.387 . S
C2287 C2289 1.390 . S
C2287 H2291 0.950 . S
H2288 C2284 0.950 . S
C2289 C2287 1.390 . S
C2289 C2290 1.387 . S
C2289 H2292 0.950 . S
C2290 C2289 1.387 . S
C2290 C2293 1.387 . S
H2291 C2287 0.950 . S
H2292 C2289 0.950 . S
C2293 C2284 1.390 . S
C2293 H2286 0.950 . S
C2293 C2290 1.387 . S
C2294 C2295 1.387 . S
C2294 H2298 0.950 . S
C2294 C2303 1.390 . S
C2295 C2294 1.387 . S
C2295 C2297 1.387 . S
H2296 C2303 0.950 . S
C2297 C2295 1.387 . S
C2297 C2299 1.390 . S
C2297 H2301 0.950 . S
H2298 C2294 0.950 . S
C2299 C2297 1.390 . S
C2299 C2300 1.387 . S
C2299 H2302 0.950 . S
C2300 C2299 1.387 . S
C2300 C2303 1.387 . S
H2301 C2297 0.950 . S
H2302 C2299 0.950 . S
C2303 C2294 1.390 . S
C2303 H2296 0.950 . S
C2303 C2300 1.387 . S
C2304 C2305 1.387 . S
C2304 H2308 0.950 . S
C2304 C2313 1.390 . S
C2305 C2304 1.387 . S
C2305 C2307 1.387 . S
H2306 C2313 0.950 1_655 S
C2307 C2305 1.387 . S
C2307 C2309 1.390 . S
C2307 H2311 0.950 . S
H2308 C2304 0.950 . S
C2309 C2307 1.390 . S
C2309 C2310 1.387 1_455 S
C2309 H2312 0.950 1_455 S
C2310 C2309 1.387 1_655 S
C2310 C2313 1.387 1_655 S
H2311 C2307 0.950 . S
H2312 C2309 0.950 1_655 S
C2313 C2304 1.390 . S
C2313 H2306 0.950 1_455 S
C2313 C2310 1.387 1_455 S
C2314 C2315 1.387 . S
C2314 H2318 0.950 . S
C2314 C2323 1.390 . S
C2315 C2314 1.387 . S
C2315 C2317 1.387 . S
H2316 C2323 0.950 1_565 S
C2317 C2315 1.387 . S
C2317 C2319 1.390 . S
C2317 H2321 0.950 . S
H2318 C2314 0.950 . S
C2319 C2317 1.390 . S
C2319 C2320 1.387 1_545 S
C2319 H2322 0.950 1_545 S
C2320 C2319 1.387 1_565 S
C2320 C2323 1.387 1_565 S
H2321 C2317 0.950 . S
H2322 C2319 0.950 1_565 S
C2323 C2314 1.390 . S
C2323 H2316 0.950 1_545 S
C2323 C2320 1.387 1_545 S
C2324 C2325 1.387 . S
C2324 H2328 0.950 . S
C2324 C2333 1.390 . S
C2325 C2324 1.387 . S
C2325 C2327 1.387 . S
H2326 C2333 0.939 1_455 S
C2327 C2325 1.387 . S
C2327 C2329 1.390 . S
C2327 H2331 0.950 . S
H2328 C2324 0.950 . S
C2329 C2327 1.390 . S
C2329 C2330 1.387 1_655 S
C2329 H2332 0.950 1_655 S
C2330 C2329 1.387 1_455 S
C2330 C2333 1.387 1_455 S
H2331 C2327 0.950 . S
H2332 C2329 0.950 1_455 S
C2333 C2324 1.390 . S
C2333 H2326 0.939 1_655 S
C2333 C2330 1.387 1_655 S
C2334 C2335 1.387 . S
C2334 H2338 0.950 . S
C2334 C2343 1.390 . S
C2335 C2334 1.387 . S
C2335 C2337 1.387 . S
H2336 C2343 0.950 1_545 S
C2337 C2335 1.387 . S
C2337 C2339 1.390 . S
C2337 H2341 0.950 . S
H2338 C2334 0.950 . S
C2339 C2337 1.390 . S
C2339 C2340 1.387 1_565 S
C2339 H2342 0.950 1_565 S
C2340 C2339 1.387 1_545 S
C2340 C2343 1.387 1_545 S
H2341 C2337 0.950 . S
H2342 C2339 0.950 1_545 S
C2343 C2334 1.390 . S
C2343 H2336 0.950 1_565 S
C2343 C2340 1.387 1_565 S
C2344 C2345 1.387 1_455 S
C2344 H2348 0.950 1_455 S
C2344 C2353 1.390 . S
C2345 C2344 1.387 1_655 S
C2345 C2347 1.387 1_655 S
H2346 C2353 0.950 . S
C2347 C2345 1.387 1_455 S
C2347 C2349 1.390 . S
C2347 H2351 0.950 1_455 S
H2348 C2344 0.950 1_655 S
C2349 C2347 1.390 . S
C2349 C2350 1.387 . S
C2349 H2352 0.950 . S
C2350 C2349 1.387 . S
C2350 C2353 1.387 . S
H2351 C2347 0.950 1_655 S
H2352 C2349 0.950 . S
C2353 C2344 1.390 . S
C2353 H2346 0.950 . S
C2353 C2350 1.387 . S
C2354 C2355 1.387 . S
C2354 H2358 0.950 . S
C2354 C2363 1.390 . S
C2355 C2354 1.387 . S
C2355 C2357 1.387 . S
H2356 C2363 0.950 1_565 S
C2357 C2355 1.387 . S
C2357 C2359 1.390 . S
C2357 H2361 0.950 . S
H2358 C2354 0.950 . S
C2359 C2357 1.390 . S
C2359 C2360 1.387 1_545 S
C2359 H2362 0.946 1_545 S
C2360 C2359 1.387 1_565 S
C2360 C2363 1.387 1_565 S
H2361 C2357 0.950 . S
H2362 C2359 0.946 1_565 S
C2363 C2354 1.390 . S
C2363 H2356 0.950 1_545 S
C2363 C2360 1.387 1_545 S
C2364 C2365 1.387 1_655 S
C2364 H2368 0.950 1_655 S
C2364 C2373 1.390 . S
C2365 C2364 1.387 1_455 S
C2365 C2367 1.387 1_455 S
H2366 C2373 0.950 . S
C2367 C2365 1.387 1_655 S
C2367 C2369 1.390 . S
C2367 H2371 0.950 1_655 S
H2368 C2364 0.950 1_455 S
C2369 C2367 1.390 . S
C2369 C2370 1.387 . S
C2369 H2372 0.950 . S
C2370 C2369 1.387 . S
C2370 C2373 1.387 . S
H2371 C2367 0.950 1_455 S
H2372 C2369 0.950 . S
C2373 C2364 1.390 . S
C2373 H2366 0.950 . S
C2373 C2370 1.387 . S
C2374 C2375 1.387 1_565 S
C2374 H2378 0.947 1_565 S
C2374 C2383 1.390 . S
C2375 C2374 1.387 1_545 S
C2375 C2377 1.387 1_545 S
H2376 C2383 0.950 . S
C2377 C2375 1.387 1_565 S
C2377 C2379 1.390 . S
C2377 H2381 0.950 1_565 S
H2378 C2374 0.947 1_545 S
C2379 C2377 1.390 . S
C2379 C2380 1.387 . S
C2379 H2382 0.950 . S
C2380 C2379 1.387 . S
C2380 C2383 1.387 . S
H2381 C2377 0.950 1_545 S
H2382 C2379 0.950 . S
C2383 C2374 1.390 . S
C2383 H2376 0.950 . S
C2383 C2380 1.387 . S
C2384 C2385 1.387 . S
C2384 H2388 0.950 . S
C2384 C2393 1.390 . S
C2385 C2384 1.387 . S
C2385 C2387 1.387 . S
H2386 C2393 0.950 1_565 S
C2387 C2385 1.387 . S
C2387 C2389 1.390 . S
C2387 H2391 0.950 . S
H2388 C2384 0.950 . S
C2389 C2387 1.390 . S
C2389 C2390 1.387 1_545 S
C2389 H2392 0.950 1_545 S
C2390 C2389 1.387 1_565 S
C2390 C2393 1.387 1_565 S
H2391 C2387 0.950 . S
H2392 C2389 0.950 1_565 S
C2393 C2384 1.390 . S
C2393 H2386 0.950 1_545 S
C2393 C2390 1.387 1_545 S
C2394 C2395 1.387 1_655 S
C2394 H2398 0.950 1_655 S
C2394 C2403 1.390 . S
C2395 C2394 1.387 1_455 S
C2395 C2397 1.387 1_455 S
H2396 C2403 0.950 . S
C2397 C2395 1.387 1_655 S
C2397 C2399 1.390 . S
C2397 H2401 0.937 1_655 S
H2398 C2394 0.950 1_455 S
C2399 C2397 1.390 . S
C2399 C2400 1.387 . S
C2399 H2402 0.950 . S
C2400 C2399 1.387 . S
C2400 C2403 1.387 . S
H2401 C2397 0.937 1_455 S
H2402 C2399 0.950 . S
C2403 C2394 1.390 . S
C2403 H2396 0.950 . S
C2403 C2400 1.387 . S
C2404 C2405 1.387 . S
C2404 H2408 0.950 . S
C2404 C2413 1.390 . S
C2405 C2404 1.387 . S
C2405 C2407 1.387 . S
H2406 C2413 0.950 1_545 S
C2407 C2405 1.387 . S
C2407 C2409 1.390 . S
C2407 H2411 0.950 . S
H2408 C2404 0.950 . S
C2409 C2407 1.390 . S
C2409 C2410 1.387 1_565 S
C2409 H2412 0.940 1_565 S
C2410 C2409 1.387 1_545 S
C2410 C2413 1.387 1_545 S
H2411 C2407 0.950 . S
H2412 C2409 0.940 1_545 S
C2413 C2404 1.390 . S
C2413 H2406 0.950 1_565 S
C2413 C2410 1.387 1_565 S
C2414 C2415 1.387 . S
C2414 H2418 0.950 . S
C2414 C2423 1.390 . S
C2415 C2414 1.387 . S
C2415 C2417 1.387 . S
H2416 C2423 0.950 1_655 S
C2417 C2415 1.387 . S
C2417 C2419 1.390 . S
C2417 H2421 0.950 . S
H2418 C2414 0.950 . S
C2419 C2417 1.390 . S
C2419 C2420 1.387 1_455 S
C2419 H2422 0.950 1_455 S
C2420 C2419 1.387 1_655 S
C2420 C2423 1.387 1_655 S
H2421 C2417 0.950 . S
H2422 C2419 0.950 1_655 S
C2423 C2414 1.390 . S
C2423 H2416 0.950 1_455 S
C2423 C2420 1.387 1_455 S
C2424 C2425 1.387 . S
C2424 H2428 0.950 . S
C2424 C2433 1.390 . S
C2425 C2424 1.387 . S
C2425 C2427 1.387 . S
H2426 C2433 0.950 1_545 S
C2427 C2425 1.387 . S
C2427 C2429 1.390 . S
C2427 H2431 0.950 . S
H2428 C2424 0.950 . S
C2429 C2427 1.390 . S
C2429 C2430 1.387 1_565 S
C2429 H2432 0.950 1_565 S
C2430 C2429 1.387 1_545 S
C2430 C2433 1.387 1_545 S
H2431 C2427 0.950 . S
H2432 C2429 0.950 1_545 S
C2433 C2424 1.390 . S
C2433 H2426 0.950 1_565 S
C2433 C2430 1.387 1_565 S
C2434 C2435 1.387 . S
C2434 H2438 0.950 . S
C2434 C2443 1.390 . S
C2435 C2434 1.387 . S
C2435 C2437 1.387 . S
H2436 C2443 0.950 1_655 S
C2437 C2435 1.387 . S
C2437 C2439 1.390 . S
C2437 H2441 0.950 . S
H2438 C2434 0.950 . S
C2439 C2437 1.390 . S
C2439 C2440 1.387 1_455 S
C2439 H2442 0.950 1_455 S
C2440 C2439 1.387 1_655 S
C2440 C2443 1.387 1_655 S
H2441 C2437 0.950 . S
H2442 C2439 0.950 1_655 S
C2443 C2434 1.390 . S
C2443 H2436 0.950 1_455 S
C2443 C2440 1.387 1_455 S
C2444 C2445 1.387 . S
C2444 H2448 0.950 . S
C2444 C2453 1.390 . S
C2445 C2444 1.387 . S
C2445 C2447 1.387 . S
H2446 C2453 0.933 1_565 S
C2447 C2445 1.387 . S
C2447 C2449 1.390 . S
C2447 H2451 0.950 . S
H2448 C2444 0.950 . S
C2449 C2447 1.390 . S
C2449 C2450 1.387 1_545 S
C2449 H2452 0.950 1_545 S
C2450 C2449 1.387 1_565 S
C2450 C2453 1.387 1_565 S
H2451 C2447 0.950 . S
H2452 C2449 0.950 1_565 S
C2453 C2444 1.390 . S
C2453 H2446 0.933 1_545 S
C2453 C2450 1.387 1_545 S
C2454 C2455 1.387 1_655 S
C2454 H2458 0.950 1_655 S
C2454 C2463 1.390 . S
C2455 C2454 1.387 1_455 S
C2455 C2457 1.387 1_455 S
H2456 C2463 0.950 . S
C2457 C2455 1.387 1_655 S
C2457 C2459 1.390 . S
C2457 H2461 0.950 1_655 S
H2458 C2454 0.950 1_455 S
C2459 C2457 1.390 . S
C2459 C2460 1.387 . S
C2459 H2462 0.950 . S
C2460 C2459 1.387 . S
C2460 C2463 1.387 . S
H2461 C2457 0.950 1_455 S
H2462 C2459 0.950 . S
C2463 C2454 1.390 . S
C2463 H2456 0.950 . S
C2463 C2460 1.387 . S
C2464 C2465 1.387 . S
C2464 H2468 0.950 . S
C2464 C2473 1.390 . S
C2465 C2464 1.387 . S
C2465 C2467 1.387 . S
H2466 C2473 0.950 1_556 S
C2467 C2465 1.387 . S
C2467 C2469 1.390 . S
C2467 H2471 0.950 . S
H2468 C2464 0.950 . S
C2469 C2467 1.390 . S
C2469 C2470 1.387 1_554 S
C2469 H2472 0.944 1_554 S
C2470 C2469 1.387 1_556 S
C2470 C2473 1.387 1_556 S
H2471 C2467 0.950 . S
H2472 C2469 0.944 1_556 S
C2473 C2464 1.390 . S
C2473 H2466 0.950 1_554 S
C2473 C2470 1.387 1_554 S
C2474 C2475 1.387 . S
C2474 H2478 0.950 . S
C2474 C2483 1.390 . S
C2475 C2474 1.387 . S
C2475 C2477 1.387 . S
H2476 C2483 0.935 1_554 S
C2477 C2475 1.387 . S
C2477 C2479 1.390 . S
C2477 H2481 0.950 . S
H2478 C2474 0.950 . S
C2479 C2477 1.390 . S
C2479 C2480 1.387 1_556 S
C2479 H2482 0.950 1_556 S
C2480 C2479 1.387 1_554 S
C2480 C2483 1.387 1_554 S
H2481 C2477 0.950 . S
H2482 C2479 0.950 1_554 S
C2483 C2474 1.390 . S
C2483 H2476 0.935 1_556 S
C2483 C2480 1.387 1_556 S
C2484 C2485 1.387 1_556 S
C2484 H2488 0.950 1_556 S
C2484 C2493 1.390 . S
C2485 C2484 1.387 1_554 S
C2485 C2487 1.387 1_554 S
H2486 C2493 0.950 . S
C2487 C2485 1.387 1_556 S
C2487 C2489 1.390 . S
C2487 H2491 0.933 1_556 S
H2488 C2484 0.950 1_554 S
C2489 C2487 1.390 . S
C2489 C2490 1.387 . S
C2489 H2492 0.950 . S
C2490 C2489 1.387 . S
C2490 C2493 1.387 . S
H2491 C2487 0.933 1_554 S
H2492 C2489 0.950 . S
C2493 C2484 1.390 . S
C2493 H2486 0.950 . S
C2493 C2490 1.387 . S
C2494 C2495 1.387 . S
C2494 H2498 0.950 . S
C2494 C2503 1.390 . S
C2495 C2494 1.387 . S
C2495 C2497 1.387 . S
H2496 C2503 0.926 1_554 S
C2497 C2495 1.387 . S
C2497 C2499 1.390 . S
C2497 H2501 0.950 . S
H2498 C2494 0.950 . S
C2499 C2497 1.390 . S
C2499 C2500 1.387 1_556 S
C2499 H2502 0.950 1_556 S
C2500 C2499 1.387 1_554 S
C2500 C2503 1.387 1_554 S
H2501 C2497 0.950 . S
H2502 C2499 0.950 1_554 S
C2503 C2494 1.390 . S
C2503 H2496 0.926 1_556 S
C2503 C2500 1.387 1_556 S
C2504 C2505 1.387 1_556 S
C2504 H2508 0.950 1_556 S
C2504 C2513 1.390 . S
C2505 C2504 1.387 1_554 S
C2505 C2507 1.387 1_554 S
H2506 C2513 0.950 . S
C2507 C2505 1.387 1_556 S
C2507 C2509 1.390 . S
C2507 H2511 0.950 1_556 S
H2508 C2504 0.950 1_554 S
C2509 C2507 1.390 . S
C2509 C2510 1.387 . S
C2509 H2512 0.950 . S
C2510 C2509 1.387 . S
C2510 C2513 1.387 . S
H2511 C2507 0.950 1_554 S
H2512 C2509 0.950 . S
C2513 C2504 1.390 . S
C2513 H2506 0.950 . S
C2513 C2510 1.387 . S
C2514 C2515 1.387 . S
C2514 H2518 0.950 . S
C2514 C2523 1.390 . S
C2515 C2514 1.387 . S
C2515 C2517 1.387 . S
H2516 C2523 0.951 1_556 S
C2517 C2515 1.387 . S
C2517 C2519 1.390 . S
C2517 H2521 0.950 . S
H2518 C2514 0.950 . S
C2519 C2517 1.390 . S
C2519 C2520 1.387 1_554 S
C2519 H2522 0.950 1_554 S
C2520 C2519 1.387 1_556 S
C2520 C2523 1.387 1_556 S
H2521 C2517 0.950 . S
H2522 C2519 0.950 1_556 S
C2523 C2514 1.390 . S
C2523 H2516 0.951 1_554 S
C2523 C2520 1.387 1_554 S
C2524 C2525 1.387 1_554 S
C2524 H2528 0.924 1_554 S
C2524 C2533 1.390 . S
C2525 C2524 1.387 1_556 S
C2525 C2527 1.387 1_556 S
H2526 C2533 0.950 . S
C2527 C2525 1.387 1_554 S
C2527 C2529 1.390 . S
C2527 H2531 0.950 1_554 S
H2528 C2524 0.924 1_556 S
C2529 C2527 1.390 . S
C2529 C2530 1.387 . S
C2529 H2532 0.950 . S
C2530 C2529 1.387 . S
C2530 C2533 1.387 . S
H2531 C2527 0.950 1_556 S
H2532 C2529 0.950 . S
C2533 C2524 1.390 . S
C2533 H2526 0.950 . S
C2533 C2530 1.387 . S
C2534 C2535 1.387 1_554 S
C2534 H2538 0.950 1_554 S
C2534 C2543 1.390 . S
C2535 C2534 1.387 1_556 S
C2535 C2537 1.387 1_556 S
H2536 C2543 0.950 . S
C2537 C2535 1.387 1_554 S
C2537 C2539 1.390 . S
C2537 H2541 0.926 1_554 S
H2538 C2534 0.950 1_556 S
C2539 C2537 1.390 . S
C2539 C2540 1.387 . S
C2539 H2542 0.950 . S
C2540 C2539 1.387 . S
C2540 C2543 1.387 . S
H2541 C2537 0.926 1_556 S
H2542 C2539 0.950 . S
C2543 C2534 1.390 . S
C2543 H2536 0.950 . S
C2543 C2540 1.387 . S
C2544 C2545 1.387 . S
C2544 H2548 0.950 . S
C2544 C2553 1.390 . S
C2545 C2544 1.387 . S
C2545 C2547 1.387 . S
H2546 C2553 0.950 . S
C2547 C2545 1.387 . S
C2547 C2549 1.390 . S
C2547 H2551 0.950 . S
H2548 C2544 0.950 . S
C2549 C2547 1.390 . S
C2549 C2550 1.387 . S
C2549 H2552 0.950 . S
C2550 C2549 1.387 . S
C2550 C2553 1.387 . S
H2551 C2547 0.950 . S
H2552 C2549 0.950 . S
C2553 C2544 1.390 . S
C2553 H2546 0.950 . S
C2553 C2550 1.387 . S
C2554 C2555 1.387 . S
C2554 H2558 0.950 . S
C2554 C2563 1.390 . S
C2555 C2554 1.387 . S
C2555 C2557 1.387 . S
H2556 C2563 0.950 . S
C2557 C2555 1.387 . S
C2557 C2559 1.390 . S
C2557 H2561 0.950 . S
H2558 C2554 0.950 . S
C2559 C2557 1.390 . S
C2559 C2560 1.387 . S
C2559 H2562 0.950 . S
C2560 C2559 1.387 . S
C2560 C2563 1.387 . S
H2561 C2557 0.950 . S
H2562 C2559 0.950 . S
C2563 C2554 1.390 . S
C2563 H2556 0.950 . S
C2563 C2560 1.387 . S
C2564 C2565 1.387 . S
C2564 H2568 0.950 . S
C2564 C2573 1.390 . S
C2565 C2564 1.387 . S
C2565 C2567 1.387 . S
H2566 C2573 0.950 . S
C2567 C2565 1.387 . S
C2567 C2569 1.390 . S
C2567 H2571 0.950 . S
H2568 C2564 0.950 . S
C2569 C2567 1.390 . S
C2569 C2570 1.387 . S
C2569 H2572 0.950 . S
C2570 C2569 1.387 . S
C2570 C2573 1.387 . S
H2571 C2567 0.950 . S
H2572 C2569 0.950 . S
C2573 C2564 1.390 . S
C2573 H2566 0.950 . S
C2573 C2570 1.387 . S
C2574 C2575 1.387 . S
C2574 H2578 0.950 . S
C2574 C2583 1.390 . S
C2575 C2574 1.387 . S
C2575 C2577 1.387 . S
H2576 C2583 0.950 . S
C2577 C2575 1.387 . S
C2577 C2579 1.390 . S
C2577 H2581 0.950 . S
H2578 C2574 0.950 . S
C2579 C2577 1.390 . S
C2579 C2580 1.387 . S
C2579 H2582 0.950 . S
C2580 C2579 1.387 . S
C2580 C2583 1.387 . S
H2581 C2577 0.950 . S
H2582 C2579 0.950 . S
C2583 C2574 1.390 . S
C2583 H2576 0.950 . S
C2583 C2580 1.387 . S
C2584 C2585 1.387 . S
C2584 H2588 0.950 . S
C2584 C2593 1.390 . S
C2585 C2584 1.387 . S
C2585 C2587 1.387 . S
H2586 C2593 0.950 . S
C2587 C2585 1.387 . S
C2587 C2589 1.390 . S
C2587 H2591 0.950 . S
H2588 C2584 0.950 . S
C2589 C2587 1.390 . S
C2589 C2590 1.387 . S
C2589 H2592 0.950 . S
C2590 C2589 1.387 . S
C2590 C2593 1.387 . S
H2591 C2587 0.950 . S
H2592 C2589 0.950 . S
C2593 C2584 1.390 . S
C2593 H2586 0.950 . S
C2593 C2590 1.387 . S
C2594 C2595 1.387 . S
C2594 H2598 0.950 . S
C2594 C2603 1.390 . S
C2595 C2594 1.387 . S
C2595 C2597 1.387 . S
H2596 C2603 0.950 . S
C2597 C2595 1.387 . S
C2597 C2599 1.390 . S
C2597 H2601 0.950 . S
H2598 C2594 0.950 . S
C2599 C2597 1.390 . S
C2599 C2600 1.387 . S
C2599 H2602 0.950 . S
C2600 C2599 1.387 . S
C2600 C2603 1.387 . S
H2601 C2597 0.950 . S
H2602 C2599 0.950 . S
C2603 C2594 1.390 . S
C2603 H2596 0.950 . S
C2603 C2600 1.387 . S
C2604 C2605 1.387 . S
C2604 H2608 0.950 . S
C2604 C2613 1.390 . S
C2605 C2604 1.387 . S
C2605 C2607 1.387 . S
H2606 C2613 0.950 . S
C2607 C2605 1.387 . S
C2607 C2609 1.390 . S
C2607 H2611 0.950 . S
H2608 C2604 0.950 . S
C2609 C2607 1.390 . S
C2609 C2610 1.387 . S
C2609 H2612 0.950 . S
C2610 C2609 1.387 . S
C2610 C2613 1.387 . S
H2611 C2607 0.950 . S
H2612 C2609 0.950 . S
C2613 C2604 1.390 . S
C2613 H2606 0.950 . S
C2613 C2610 1.387 . S
C2614 C2615 1.387 . S
C2614 H2618 0.950 . S
C2614 C2623 1.390 . S
C2615 C2614 1.387 . S
C2615 C2617 1.387 . S
H2616 C2623 0.950 . S
C2617 C2615 1.387 . S
C2617 C2619 1.390 . S
C2617 H2621 0.950 . S
H2618 C2614 0.950 . S
C2619 C2617 1.390 . S
C2619 C2620 1.387 . S
C2619 H2622 0.950 . S
C2620 C2619 1.387 . S
C2620 C2623 1.387 . S
H2621 C2617 0.950 . S
H2622 C2619 0.950 . S
C2623 C2614 1.390 . S
C2623 H2616 0.950 . S
C2623 C2620 1.387 . S
C2624 C2625 1.387 . S
C2624 H2628 0.950 . S
C2624 C2633 1.390 . S
C2625 C2624 1.387 . S
C2625 C2627 1.387 . S
H2626 C2633 0.950 . S
C2627 C2625 1.387 . S
C2627 C2629 1.390 . S
C2627 H2631 0.950 . S
H2628 C2624 0.950 . S
C2629 C2627 1.390 . S
C2629 C2630 1.387 . S
C2629 H2632 0.950 . S
C2630 C2629 1.387 . S
C2630 C2633 1.387 . S
H2631 C2627 0.950 . S
H2632 C2629 0.950 . S
C2633 C2624 1.390 . S
C2633 H2626 0.950 . S
C2633 C2630 1.387 . S
C2634 C2635 1.387 . S
C2634 H2638 0.950 . S
C2634 C2643 1.390 . S
C2635 C2634 1.387 . S
C2635 C2637 1.387 . S
H2636 C2643 0.950 . S
C2637 C2635 1.387 . S
C2637 C2639 1.390 . S
C2637 H2641 0.950 . S
H2638 C2634 0.950 . S
C2639 C2637 1.390 . S
C2639 C2640 1.387 . S
C2639 H2642 0.950 . S
C2640 C2639 1.387 . S
C2640 C2643 1.387 . S
H2641 C2637 0.950 . S
H2642 C2639 0.950 . S
C2643 C2634 1.390 . S
C2643 H2636 0.950 . S
C2643 C2640 1.387 . S
C2644 C2645 1.387 . S
C2644 H2648 0.950 . S
C2644 C2653 1.390 . S
C2645 C2644 1.387 . S
C2645 C2647 1.387 . S
H2646 C2653 0.950 . S
C2647 C2645 1.387 . S
C2647 C2649 1.390 . S
C2647 H2651 0.950 . S
H2648 C2644 0.950 . S
C2649 C2647 1.390 . S
C2649 C2650 1.387 . S
C2649 H2652 0.950 . S
C2650 C2649 1.387 . S
C2650 C2653 1.387 . S
H2651 C2647 0.950 . S
H2652 C2649 0.950 . S
C2653 C2644 1.390 . S
C2653 H2646 0.950 . S
C2653 C2650 1.387 . S
C2654 C2655 1.387 . S
C2654 H2658 0.950 . S
C2654 C2663 1.390 . S
C2655 C2654 1.387 . S
C2655 C2657 1.387 . S
H2656 C2663 0.950 . S
C2657 C2655 1.387 . S
C2657 C2659 1.390 . S
C2657 H2661 0.950 . S
H2658 C2654 0.950 . S
C2659 C2657 1.390 . S
C2659 C2660 1.387 . S
C2659 H2662 0.950 . S
C2660 C2659 1.387 . S
C2660 C2663 1.387 . S
H2661 C2657 0.950 . S
H2662 C2659 0.950 . S
C2663 C2654 1.390 . S
C2663 H2656 0.950 . S
C2663 C2660 1.387 . S
C2664 C2665 1.387 . S
C2664 H2668 0.950 . S
C2664 C2673 1.390 . S
C2665 C2664 1.387 . S
C2665 C2667 1.387 . S
H2666 C2673 0.950 . S
C2667 C2665 1.387 . S
C2667 C2669 1.390 . S
C2667 H2671 0.950 . S
H2668 C2664 0.950 . S
C2669 C2667 1.390 . S
C2669 C2670 1.387 . S
C2669 H2672 0.950 . S
C2670 C2669 1.387 . S
C2670 C2673 1.387 . S
H2671 C2667 0.950 . S
H2672 C2669 0.950 . S
C2673 C2664 1.390 . S
C2673 H2666 0.950 . S
C2673 C2670 1.387 . S
C2674 C2675 1.387 . S
C2674 H2678 0.950 . S
C2674 C2683 1.390 . S
C2675 C2674 1.387 . S
C2675 C2677 1.387 . S
H2676 C2683 0.950 . S
C2677 C2675 1.387 . S
C2677 C2679 1.390 . S
C2677 H2681 0.950 . S
H2678 C2674 0.950 . S
C2679 C2677 1.390 . S
C2679 C2680 1.387 . S
C2679 H2682 0.950 . S
C2680 C2679 1.387 . S
C2680 C2683 1.387 . S
H2681 C2677 0.950 . S
H2682 C2679 0.950 . S
C2683 C2674 1.390 . S
C2683 H2676 0.950 . S
C2683 C2680 1.387 . S
C2684 C2685 1.387 . S
C2684 H2688 0.950 . S
C2684 C2693 1.390 . S
C2685 C2684 1.387 . S
C2685 C2687 1.387 . S
H2686 C2693 0.950 . S
C2687 C2685 1.387 . S
C2687 C2689 1.390 . S
C2687 H2691 0.950 . S
H2688 C2684 0.950 . S
C2689 C2687 1.390 . S
C2689 C2690 1.387 . S
C2689 H2692 0.950 . S
C2690 C2689 1.387 . S
C2690 C2693 1.387 . S
H2691 C2687 0.950 . S
H2692 C2689 0.950 . S
C2693 C2684 1.390 . S
C2693 H2686 0.950 . S
C2693 C2690 1.387 . S
C2694 C2695 1.387 . S
C2694 H2698 0.950 . S
C2694 C2703 1.390 . S
C2695 C2694 1.387 . S
C2695 C2697 1.387 . S
H2696 C2703 0.950 . S
C2697 C2695 1.387 . S
C2697 C2699 1.390 . S
C2697 H2701 0.950 . S
H2698 C2694 0.950 . S
C2699 C2697 1.390 . S
C2699 C2700 1.387 . S
C2699 H2702 0.950 . S
C2700 C2699 1.387 . S
C2700 C2703 1.387 . S
H2701 C2697 0.950 . S
H2702 C2699 0.950 . S
C2703 C2694 1.390 . S
C2703 H2696 0.950 . S
C2703 C2700 1.387 . S
C2704 C2705 1.387 . S
C2704 H2708 0.950 . S
C2704 C2713 1.390 . S
C2705 C2704 1.387 . S
C2705 C2707 1.387 . S
H2706 C2713 0.950 . S
C2707 C2705 1.387 . S
C2707 C2709 1.390 . S
C2707 H2711 0.950 . S
H2708 C2704 0.950 . S
C2709 C2707 1.390 . S
C2709 C2710 1.387 . S
C2709 H2712 0.950 . S
C2710 C2709 1.387 . S
C2710 C2713 1.387 . S
H2711 C2707 0.950 . S
H2712 C2709 0.950 . S
C2713 C2704 1.390 . S
C2713 H2706 0.950 . S
C2713 C2710 1.387 . S
C2714 C2715 1.387 . S
C2714 H2718 0.950 . S
C2714 C2723 1.390 . S
C2715 C2714 1.387 . S
C2715 C2717 1.387 . S
H2716 C2723 0.950 . S
C2717 C2715 1.387 . S
C2717 C2719 1.390 . S
C2717 H2721 0.950 . S
H2718 C2714 0.950 . S
C2719 C2717 1.390 . S
C2719 C2720 1.387 . S
C2719 H2722 0.950 . S
C2720 C2719 1.387 . S
C2720 C2723 1.387 . S
H2721 C2717 0.950 . S
H2722 C2719 0.950 . S
C2723 C2714 1.390 . S
C2723 H2716 0.950 . S
C2723 C2720 1.387 . S
C2724 C2725 1.387 . S
C2724 H2728 0.950 . S
C2724 C2733 1.390 . S
C2725 C2724 1.387 . S
C2725 C2727 1.387 . S
H2726 C2733 0.950 . S
C2727 C2725 1.387 . S
C2727 C2729 1.390 . S
C2727 H2731 0.950 . S
H2728 C2724 0.950 . S
C2729 C2727 1.390 . S
C2729 C2730 1.387 . S
C2729 H2732 0.950 . S
C2730 C2729 1.387 . S
C2730 C2733 1.387 . S
H2731 C2727 0.950 . S
H2732 C2729 0.950 . S
C2733 C2724 1.390 . S
C2733 H2726 0.950 . S
C2733 C2730 1.387 . S
C2734 C2735 1.387 . S
C2734 H2738 0.950 . S
C2734 C2743 1.390 . S
C2735 C2734 1.387 . S
C2735 C2737 1.387 . S
H2736 C2743 0.950 . S
C2737 C2735 1.387 . S
C2737 C2739 1.390 . S
C2737 H2741 0.950 . S
H2738 C2734 0.950 . S
C2739 C2737 1.390 . S
C2739 C2740 1.387 . S
C2739 H2742 0.950 . S
C2740 C2739 1.387 . S
C2740 C2743 1.387 . S
H2741 C2737 0.950 . S
H2742 C2739 0.950 . S
C2743 C2734 1.390 . S
C2743 H2736 0.950 . S
C2743 C2740 1.387 . S
C2744 C2745 1.387 . S
C2744 H2748 0.950 . S
C2744 C2753 1.390 . S
C2745 C2744 1.387 . S
C2745 C2747 1.387 . S
H2746 C2753 0.950 . S
C2747 C2745 1.387 . S
C2747 C2749 1.390 . S
C2747 H2751 0.950 . S
H2748 C2744 0.950 . S
C2749 C2747 1.390 . S
C2749 C2750 1.387 . S
C2749 H2752 0.950 . S
C2750 C2749 1.387 . S
C2750 C2753 1.387 . S
H2751 C2747 0.950 . S
H2752 C2749 0.950 . S
C2753 C2744 1.390 . S
C2753 H2746 0.950 . S
C2753 C2750 1.387 . S
C2754 C2755 1.387 . S
C2754 H2758 0.950 . S
C2754 C2763 1.390 . S
C2755 C2754 1.387 . S
C2755 C2757 1.387 . S
H2756 C2763 0.950 . S
C2757 C2755 1.387 . S
C2757 C2759 1.390 . S
C2757 H2761 0.950 . S
H2758 C2754 0.950 . S
C2759 C2757 1.390 . S
C2759 C2760 1.387 . S
C2759 H2762 0.950 . S
C2760 C2759 1.387 . S
C2760 C2763 1.387 . S
H2761 C2757 0.950 . S
H2762 C2759 0.950 . S
C2763 C2754 1.390 . S
C2763 H2756 0.950 . S
C2763 C2760 1.387 . S
C2764 C2765 1.387 . S
C2764 H2768 0.950 . S
C2764 C2773 1.390 . S
C2765 C2764 1.387 . S
C2765 C2767 1.387 . S
H2766 C2773 0.950 . S
C2767 C2765 1.387 . S
C2767 C2769 1.390 . S
C2767 H2771 0.950 . S
H2768 C2764 0.950 . S
C2769 C2767 1.390 . S
C2769 C2770 1.387 . S
C2769 H2772 0.950 . S
C2770 C2769 1.387 . S
C2770 C2773 1.387 . S
H2771 C2767 0.950 . S
H2772 C2769 0.950 . S
C2773 C2764 1.390 . S
C2773 H2766 0.950 . S
C2773 C2770 1.387 . S
C2774 C2775 1.387 . S
C2774 H2778 0.950 . S
C2774 C2783 1.390 . S
C2775 C2774 1.387 . S
C2775 C2777 1.387 . S
H2776 C2783 0.950 . S
C2777 C2775 1.387 . S
C2777 C2779 1.390 . S
C2777 H2781 0.950 . S
H2778 C2774 0.950 . S
C2779 C2777 1.390 . S
C2779 C2780 1.387 . S
C2779 H2782 0.950 . S
C2780 C2779 1.387 . S
C2780 C2783 1.387 . S
H2781 C2777 0.950 . S
H2782 C2779 0.950 . S
C2783 C2774 1.390 . S
C2783 H2776 0.950 . S
C2783 C2780 1.387 . S
C2784 C2785 1.387 . S
C2784 H2788 0.950 . S
C2784 C2793 1.390 . S
C2785 C2784 1.387 . S
C2785 C2787 1.387 . S
H2786 C2793 0.950 . S
C2787 C2785 1.387 . S
C2787 C2789 1.390 . S
C2787 H2791 0.950 . S
H2788 C2784 0.950 . S
C2789 C2787 1.390 . S
C2789 C2790 1.387 . S
C2789 H2792 0.950 . S
C2790 C2789 1.387 . S
C2790 C2793 1.387 . S
H2791 C2787 0.950 . S
H2792 C2789 0.950 . S
C2793 C2784 1.390 . S
C2793 H2786 0.950 . S
C2793 C2790 1.387 . S
C2794 C2795 1.387 . S
C2794 H2798 0.950 . S
C2794 C2803 1.390 . S
C2795 C2794 1.387 . S
C2795 C2797 1.387 . S
H2796 C2803 0.950 . S
C2797 C2795 1.387 . S
C2797 C2799 1.390 . S
C2797 H2801 0.950 . S
H2798 C2794 0.950 . S
C2799 C2797 1.390 . S
C2799 C2800 1.387 . S
C2799 H2802 0.950 . S
C2800 C2799 1.387 . S
C2800 C2803 1.387 . S
H2801 C2797 0.950 . S
H2802 C2799 0.950 . S
C2803 C2794 1.390 . S
C2803 H2796 0.950 . S
C2803 C2800 1.387 . S
C2804 C2805 1.387 . S
C2804 H2808 0.950 . S
C2804 C2813 1.390 . S
C2805 C2804 1.387 . S
C2805 C2807 1.387 . S
H2806 C2813 0.950 . S
C2807 C2805 1.387 . S
C2807 C2809 1.390 . S
C2807 H2811 0.950 . S
H2808 C2804 0.950 . S
C2809 C2807 1.390 . S
C2809 C2810 1.387 . S
C2809 H2812 0.950 . S
C2810 C2809 1.387 . S
C2810 C2813 1.387 . S
H2811 C2807 0.950 . S
H2812 C2809 0.950 . S
C2813 C2804 1.390 . S
C2813 H2806 0.950 . S
C2813 C2810 1.387 . S
C2814 C2815 1.387 . S
C2814 H2818 0.950 . S
C2814 C2823 1.390 . S
C2815 C2814 1.387 . S
C2815 C2817 1.387 . S
H2816 C2823 0.950 . S
C2817 C2815 1.387 . S
C2817 C2819 1.390 . S
C2817 H2821 0.950 . S
H2818 C2814 0.950 . S
C2819 C2817 1.390 . S
C2819 C2820 1.387 . S
C2819 H2822 0.950 . S
C2820 C2819 1.387 . S
C2820 C2823 1.387 . S
H2821 C2817 0.950 . S
H2822 C2819 0.950 . S
C2823 C2814 1.390 . S
C2823 H2816 0.950 . S
C2823 C2820 1.387 . S
C2824 C2825 1.387 . S
C2824 H2828 0.950 . S
C2824 C2833 1.390 . S
C2825 C2824 1.387 . S
C2825 C2827 1.387 . S
H2826 C2833 0.950 . S
C2827 C2825 1.387 . S
C2827 C2829 1.390 . S
C2827 H2831 0.950 . S
H2828 C2824 0.950 . S
C2829 C2827 1.390 . S
C2829 C2830 1.387 . S
C2829 H2832 0.950 . S
C2830 C2829 1.387 . S
C2830 C2833 1.387 . S
H2831 C2827 0.950 . S
H2832 C2829 0.950 . S
C2833 C2824 1.390 . S
C2833 H2826 0.950 . S
C2833 C2830 1.387 . S
C2834 C2835 1.387 . S
C2834 H2838 0.950 . S
C2834 C2843 1.390 . S
C2835 C2834 1.387 . S
C2835 C2837 1.387 . S
H2836 C2843 0.950 . S
C2837 C2835 1.387 . S
C2837 C2839 1.390 . S
C2837 H2841 0.950 . S
H2838 C2834 0.950 . S
C2839 C2837 1.390 . S
C2839 C2840 1.387 . S
C2839 H2842 0.950 . S
C2840 C2839 1.387 . S
C2840 C2843 1.387 . S
H2841 C2837 0.950 . S
H2842 C2839 0.950 . S
C2843 C2834 1.390 . S
C2843 H2836 0.950 . S
C2843 C2840 1.387 . S
C2844 C2845 1.387 . S
C2844 H2848 0.950 . S
C2844 C2853 1.390 . S
C2845 C2844 1.387 . S
C2845 C2847 1.387 . S
H2846 C2853 0.950 . S
C2847 C2845 1.387 . S
C2847 C2849 1.390 . S
C2847 H2851 0.950 . S
H2848 C2844 0.950 . S
C2849 C2847 1.390 . S
C2849 C2850 1.387 . S
C2849 H2852 0.950 . S
C2850 C2849 1.387 . S
C2850 C2853 1.387 . S
H2851 C2847 0.950 . S
H2852 C2849 0.950 . S
C2853 C2844 1.390 . S
C2853 H2846 0.950 . S
C2853 C2850 1.387 . S
C2854 C2855 1.387 . S
C2854 H2858 0.950 . S
C2854 C2863 1.390 . S
C2855 C2854 1.387 . S
C2855 C2857 1.387 . S
H2856 C2863 0.950 . S
C2857 C2855 1.387 . S
C2857 C2859 1.390 . S
C2857 H2861 0.950 . S
H2858 C2854 0.950 . S
C2859 C2857 1.390 . S
C2859 C2860 1.387 . S
C2859 H2862 0.950 . S
C2860 C2859 1.387 . S
C2860 C2863 1.387 . S
H2861 C2857 0.950 . S
H2862 C2859 0.950 . S
C2863 C2854 1.390 . S
C2863 H2856 0.950 . S
C2863 C2860 1.387 . S
C2864 C2865 1.387 . S
C2864 H2868 0.950 . S
C2864 C2873 1.390 . S
C2865 C2864 1.387 . S
C2865 C2867 1.387 . S
H2866 C2873 0.950 . S
C2867 C2865 1.387 . S
C2867 C2869 1.390 . S
C2867 H2871 0.950 . S
H2868 C2864 0.950 . S
C2869 C2867 1.390 . S
C2869 C2870 1.387 . S
C2869 H2872 0.950 . S
C2870 C2869 1.387 . S
C2870 C2873 1.387 . S
H2871 C2867 0.950 . S
H2872 C2869 0.950 . S
C2873 C2864 1.390 . S
C2873 H2866 0.950 . S
C2873 C2870 1.387 . S
C2874 C2875 1.387 . S
C2874 H2878 0.950 . S
C2874 C2883 1.390 . S
C2875 C2874 1.387 . S
C2875 C2877 1.387 . S
H2876 C2883 0.950 . S
C2877 C2875 1.387 . S
C2877 C2879 1.390 . S
C2877 H2881 0.950 . S
H2878 C2874 0.950 . S
C2879 C2877 1.390 . S
C2879 C2880 1.387 . S
C2879 H2882 0.950 . S
C2880 C2879 1.387 . S
C2880 C2883 1.387 . S
H2881 C2877 0.950 . S
H2882 C2879 0.950 . S
C2883 C2874 1.390 . S
C2883 H2876 0.950 . S
C2883 C2880 1.387 . S
C2884 C2885 1.387 . S
C2884 H2888 0.950 . S
C2884 C2893 1.390 . S
C2885 C2884 1.387 . S
C2885 C2887 1.387 . S
H2886 C2893 0.950 . S
C2887 C2885 1.387 . S
C2887 C2889 1.390 . S
C2887 H2891 0.950 . S
H2888 C2884 0.950 . S
C2889 C2887 1.390 . S
C2889 C2890 1.387 . S
C2889 H2892 0.950 . S
C2890 C2889 1.387 . S
C2890 C2893 1.387 . S
H2891 C2887 0.950 . S
H2892 C2889 0.950 . S
C2893 C2884 1.390 . S
C2893 H2886 0.950 . S
C2893 C2890 1.387 . S
C2894 C2895 1.387 . S
C2894 H2898 0.950 . S
C2894 C2903 1.390 . S
C2895 C2894 1.387 . S
C2895 C2897 1.387 . S
H2896 C2903 0.950 . S
C2897 C2895 1.387 . S
C2897 C2899 1.390 . S
C2897 H2901 0.950 . S
H2898 C2894 0.950 . S
C2899 C2897 1.390 . S
C2899 C2900 1.387 . S
C2899 H2902 0.950 . S
C2900 C2899 1.387 . S
C2900 C2903 1.387 . S
H2901 C2897 0.950 . S
H2902 C2899 0.950 . S
C2903 C2894 1.390 . S
C2903 H2896 0.950 . S
C2903 C2900 1.387 . S
C2904 C2905 1.387 . S
C2904 H2908 0.950 . S
C2904 C2913 1.390 . S
C2905 C2904 1.387 . S
C2905 C2907 1.387 . S
H2906 C2913 0.950 . S
C2907 C2905 1.387 . S
C2907 C2909 1.390 . S
C2907 H2911 0.950 . S
H2908 C2904 0.950 . S
C2909 C2907 1.390 . S
C2909 C2910 1.387 . S
C2909 H2912 0.950 . S
C2910 C2909 1.387 . S
C2910 C2913 1.387 . S
H2911 C2907 0.950 . S
H2912 C2909 0.950 . S
C2913 C2904 1.390 . S
C2913 H2906 0.950 . S
C2913 C2910 1.387 . S
C2914 C2915 1.387 . S
C2914 H2918 0.950 . S
C2914 C2923 1.390 . S
C2915 C2914 1.387 . S
C2915 C2917 1.387 . S
H2916 C2923 0.950 . S
C2917 C2915 1.387 . S
C2917 C2919 1.390 . S
C2917 H2921 0.950 . S
H2918 C2914 0.950 . S
C2919 C2917 1.390 . S
C2919 C2920 1.387 . S
C2919 H2922 0.950 . S
C2920 C2919 1.387 . S
C2920 C2923 1.387 . S
H2921 C2917 0.950 . S
H2922 C2919 0.950 . S
C2923 C2914 1.390 . S
C2923 H2916 0.950 . S
C2923 C2920 1.387 . S
C2924 C2925 1.387 . S
C2924 H2928 0.950 . S
C2924 C2933 1.390 . S
C2925 C2924 1.387 . S
C2925 C2927 1.387 . S
H2926 C2933 0.950 . S
C2927 C2925 1.387 . S
C2927 C2929 1.390 . S
C2927 H2931 0.950 . S
H2928 C2924 0.950 . S
C2929 C2927 1.390 . S
C2929 C2930 1.387 . S
C2929 H2932 0.950 . S
C2930 C2929 1.387 . S
C2930 C2933 1.387 . S
H2931 C2927 0.950 . S
H2932 C2929 0.950 . S
C2933 C2924 1.390 . S
C2933 H2926 0.950 . S
C2933 C2930 1.387 . S
C2934 C2935 1.387 . S
C2934 H2938 0.950 . S
C2934 C2943 1.390 . S
C2935 C2934 1.387 . S
C2935 C2937 1.387 . S
H2936 C2943 0.950 . S
C2937 C2935 1.387 . S
C2937 C2939 1.390 . S
C2937 H2941 0.950 . S
H2938 C2934 0.950 . S
C2939 C2937 1.390 . S
C2939 C2940 1.387 . S
C2939 H2942 0.950 . S
C2940 C2939 1.387 . S
C2940 C2943 1.387 . S
H2941 C2937 0.950 . S
H2942 C2939 0.950 . S
C2943 C2934 1.390 . S
C2943 H2936 0.950 . S
C2943 C2940 1.387 . S
C2944 C2945 1.387 . S
C2944 H2948 0.950 . S
C2944 C2953 1.390 . S
C2945 C2944 1.387 . S
C2945 C2947 1.387 . S
H2946 C2953 0.950 . S
C2947 C2945 1.387 . S
C2947 C2949 1.390 . S
C2947 H2951 0.950 . S
H2948 C2944 0.950 . S
C2949 C2947 1.390 . S
C2949 C2950 1.387 . S
C2949 H2952 0.950 . S
C2950 C2949 1.387 . S
C2950 C2953 1.387 . S
H2951 C2947 0.950 . S
H2952 C2949 0.950 . S
C2953 C2944 1.390 . S
C2953 H2946 0.950 . S
C2953 C2950 1.387 . S
C2954 C2955 1.387 . S
C2954 H2958 0.950 . S
C2954 C2963 1.390 . S
C2955 C2954 1.387 . S
C2955 C2957 1.387 . S
H2956 C2963 0.950 . S
C2957 C2955 1.387 . S
C2957 C2959 1.390 . S
C2957 H2961 0.950 . S
H2958 C2954 0.950 . S
C2959 C2957 1.390 . S
C2959 C2960 1.387 . S
C2959 H2962 0.950 . S
C2960 C2959 1.387 . S
C2960 C2963 1.387 . S
H2961 C2957 0.950 . S
H2962 C2959 0.950 . S
C2963 C2954 1.390 . S
C2963 H2956 0.950 . S
C2963 C2960 1.387 . S
C2964 C2965 1.387 . S
C2964 H2968 0.950 . S
C2964 C2973 1.390 . S
C2965 C2964 1.387 . S
C2965 C2967 1.387 . S
H2966 C2973 0.950 . S
C2967 C2965 1.387 . S
C2967 C2969 1.390 . S
C2967 H2971 0.950 . S
H2968 C2964 0.950 . S
C2969 C2967 1.390 . S
C2969 C2970 1.387 . S
C2969 H2972 0.950 . S
C2970 C2969 1.387 . S
C2970 C2973 1.387 . S
H2971 C2967 0.950 . S
H2972 C2969 0.950 . S
C2973 C2964 1.390 . S
C2973 H2966 0.950 . S
C2973 C2970 1.387 . S
C2974 C2975 1.387 . S
C2974 H2978 0.950 . S
C2974 C2983 1.390 . S
C2975 C2974 1.387 . S
C2975 C2977 1.387 . S
H2976 C2983 0.950 . S
C2977 C2975 1.387 . S
C2977 C2979 1.390 . S
C2977 H2981 0.950 . S
H2978 C2974 0.950 . S
C2979 C2977 1.390 . S
C2979 C2980 1.387 . S
C2979 H2982 0.950 . S
C2980 C2979 1.387 . S
C2980 C2983 1.387 . S
H2981 C2977 0.950 . S
H2982 C2979 0.950 . S
C2983 C2974 1.390 . S
C2983 H2976 0.950 . S
C2983 C2980 1.387 . S
C2984 C2985 1.387 . S
C2984 H2988 0.950 . S
C2984 C2993 1.390 . S
C2985 C2984 1.387 . S
C2985 C2987 1.387 . S
H2986 C2993 0.950 . S
C2987 C2985 1.387 . S
C2987 C2989 1.390 . S
C2987 H2991 0.950 . S
H2988 C2984 0.950 . S
C2989 C2987 1.390 . S
C2989 C2990 1.387 . S
C2989 H2992 0.950 . S
C2990 C2989 1.387 . S
C2990 C2993 1.387 . S
H2991 C2987 0.950 . S
H2992 C2989 0.950 . S
C2993 C2984 1.390 . S
C2993 H2986 0.950 . S
C2993 C2990 1.387 . S
C2994 C2995 1.387 . S
C2994 H2998 0.950 . S
C2994 C3003 1.390 . S
C2995 C2994 1.387 . S
C2995 C2997 1.387 . S
H2996 C3003 0.950 . S
C2997 C2995 1.387 . S
C2997 C2999 1.390 . S
C2997 H3001 0.950 . S
H2998 C2994 0.950 . S
C2999 C2997 1.390 . S
C2999 C3000 1.387 . S
C2999 H3002 0.950 . S
C3000 C2999 1.387 . S
C3000 C3003 1.387 . S
H3001 C2997 0.950 . S
H3002 C2999 0.950 . S
C3003 C2994 1.390 . S
C3003 H2996 0.950 . S
C3003 C3000 1.387 . S
C3004 C3005 1.387 . S
C3004 H3008 0.950 . S
C3004 C3013 1.390 . S
C3005 C3004 1.387 . S
C3005 C3007 1.387 . S
H3006 C3013 0.950 . S
C3007 C3005 1.387 . S
C3007 C3009 1.390 . S
C3007 H3011 0.950 . S
H3008 C3004 0.950 . S
C3009 C3007 1.390 . S
C3009 C3010 1.387 . S
C3009 H3012 0.950 . S
C3010 C3009 1.387 . S
C3010 C3013 1.387 . S
H3011 C3007 0.950 . S
H3012 C3009 0.950 . S
C3013 C3004 1.390 . S
C3013 H3006 0.950 . S
C3013 C3010 1.387 . S
C3014 C3015 1.387 . S
C3014 H3018 0.950 . S
C3014 C3023 1.390 . S
C3015 C3014 1.387 . S
C3015 C3017 1.387 . S
H3016 C3023 0.950 . S
C3017 C3015 1.387 . S
C3017 C3019 1.390 . S
C3017 H3021 0.950 . S
H3018 C3014 0.950 . S
C3019 C3017 1.390 . S
C3019 C3020 1.387 . S
C3019 H3022 0.950 . S
C3020 C3019 1.387 . S
C3020 C3023 1.387 . S
H3021 C3017 0.950 . S
H3022 C3019 0.950 . S
C3023 C3014 1.390 . S
C3023 H3016 0.950 . S
C3023 C3020 1.387 . S
C3024 C3025 1.387 . S
C3024 H3028 0.950 . S
C3024 C3033 1.390 . S
C3025 C3024 1.387 . S
C3025 C3027 1.387 . S
H3026 C3033 0.950 1_554 S
C3027 C3025 1.387 . S
C3027 C3029 1.390 . S
C3027 H3031 0.950 . S
H3028 C3024 0.950 . S
C3029 C3027 1.390 . S
C3029 C3030 1.387 1_556 S
C3029 H3032 0.950 1_556 S
C3030 C3029 1.387 1_554 S
C3030 C3033 1.387 1_554 S
H3031 C3027 0.950 . S
H3032 C3029 0.950 1_554 S
C3033 C3024 1.390 . S
C3033 H3026 0.950 1_556 S
C3033 C3030 1.387 1_556 S
C3034 C3035 1.387 1_556 S
C3034 H3038 0.950 1_556 S
C3034 C3043 1.390 . S
C3035 C3034 1.387 1_554 S
C3035 C3037 1.387 1_554 S
H3036 C3043 0.950 . S
C3037 C3035 1.387 1_556 S
C3037 C3039 1.390 . S
C3037 H3041 0.950 1_556 S
H3038 C3034 0.950 1_554 S
C3039 C3037 1.390 . S
C3039 C3040 1.387 . S
C3039 H3042 0.950 . S
C3040 C3039 1.387 . S
C3040 C3043 1.387 . S
H3041 C3037 0.950 1_554 S
H3042 C3039 0.950 . S
C3043 C3034 1.390 . S
C3043 H3036 0.950 . S
C3043 C3040 1.387 . S
C3044 C3045 1.387 1_556 S
C3044 H3048 0.950 1_556 S
C3044 C3053 1.390 . S
C3045 C3044 1.387 1_554 S
C3045 C3047 1.387 1_554 S
H3046 C3053 0.950 . S
C3047 C3045 1.387 1_556 S
C3047 C3049 1.390 . S
C3047 H3051 0.950 1_556 S
H3048 C3044 0.950 1_554 S
C3049 C3047 1.390 . S
C3049 C3050 1.387 . S
C3049 H3052 0.950 . S
C3050 C3049 1.387 . S
C3050 C3053 1.387 . S
H3051 C3047 0.950 1_554 S
H3052 C3049 0.950 . S
C3053 C3044 1.390 . S
C3053 H3046 0.950 . S
C3053 C3050 1.387 . S
C3054 C3055 1.387 1_556 S
C3054 H3058 0.950 1_556 S
C3054 C3063 1.390 . S
C3055 C3054 1.387 1_554 S
C3055 C3057 1.387 1_554 S
H3056 C3063 0.950 . S
C3057 C3055 1.387 1_556 S
C3057 C3059 1.390 . S
C3057 H3061 0.950 1_556 S
H3058 C3054 0.950 1_554 S
C3059 C3057 1.390 . S
C3059 C3060 1.387 . S
C3059 H3062 0.950 . S
C3060 C3059 1.387 . S
C3060 C3063 1.387 . S
H3061 C3057 0.950 1_554 S
H3062 C3059 0.950 . S
C3063 C3054 1.390 . S
C3063 H3056 0.950 . S
C3063 C3060 1.387 . S
C3064 C3065 1.387 . S
C3064 H3068 0.950 . S
C3064 C3073 1.390 . S
C3065 C3064 1.387 . S
C3065 C3067 1.387 . S
H3066 C3073 0.950 1_556 S
C3067 C3065 1.387 . S
C3067 C3069 1.390 . S
C3067 H3071 0.950 . S
H3068 C3064 0.950 . S
C3069 C3067 1.390 . S
C3069 C3070 1.387 1_554 S
C3069 H3072 0.950 1_554 S
C3070 C3069 1.387 1_556 S
C3070 C3073 1.387 1_556 S
H3071 C3067 0.950 . S
H3072 C3069 0.950 1_556 S
C3073 C3064 1.390 . S
C3073 H3066 0.950 1_554 S
C3073 C3070 1.387 1_554 S
C3074 C3075 1.387 1_554 S
C3074 H3078 0.950 1_554 S
C3074 C3083 1.390 . S
C3075 C3074 1.387 1_556 S
C3075 C3077 1.387 1_556 S
H3076 C3083 0.950 . S
C3077 C3075 1.387 1_554 S
C3077 C3079 1.390 . S
C3077 H3081 0.950 1_554 S
H3078 C3074 0.950 1_556 S
C3079 C3077 1.390 . S
C3079 C3080 1.387 . S
C3079 H3082 0.950 . S
C3080 C3079 1.387 . S
C3080 C3083 1.387 . S
H3081 C3077 0.950 1_556 S
H3082 C3079 0.950 . S
C3083 C3074 1.390 . S
C3083 H3076 0.950 . S
C3083 C3080 1.387 . S
C3084 C3085 1.387 . S
C3084 H3088 0.950 . S
C3084 C3093 1.390 . S
C3085 C3084 1.387 . S
C3085 C3087 1.387 . S
H3086 C3093 0.950 1_556 S
C3087 C3085 1.387 . S
C3087 C3089 1.390 . S
C3087 H3091 0.950 . S
H3088 C3084 0.950 . S
C3089 C3087 1.390 . S
C3089 C3090 1.387 1_554 S
C3089 H3092 0.950 1_554 S
C3090 C3089 1.387 1_556 S
C3090 C3093 1.387 1_556 S
H3091 C3087 0.950 . S
H3092 C3089 0.950 1_556 S
C3093 C3084 1.390 . S
C3093 H3086 0.950 1_554 S
C3093 C3090 1.387 1_554 S
C3094 C3095 1.387 1_554 S
C3094 H3098 0.950 1_554 S
C3094 C3103 1.390 . S
C3095 C3094 1.387 1_556 S
C3095 C3097 1.387 1_556 S
H3096 C3103 0.950 . S
C3097 C3095 1.387 1_554 S
C3097 C3099 1.390 . S
C3097 H3101 0.950 1_554 S
H3098 C3094 0.950 1_556 S
C3099 C3097 1.390 . S
C3099 C3100 1.387 . S
C3099 H3102 0.950 . S
C3100 C3099 1.387 . S
C3100 C3103 1.387 . S
H3101 C3097 0.950 1_556 S
H3102 C3099 0.950 . S
C3103 C3094 1.390 . S
C3103 H3096 0.950 . S
C3103 C3100 1.387 . S
C3104 C3105 1.387 . S
C3104 H3108 0.950 . S
C3104 C3113 1.390 . S
C3105 C3104 1.387 . S
C3105 C3107 1.387 . S
H3106 C3113 0.950 1_455 S
C3107 C3105 1.387 . S
C3107 C3109 1.390 . S
C3107 H3111 0.950 . S
H3108 C3104 0.950 . S
C3109 C3107 1.390 . S
C3109 C3110 1.387 1_655 S
C3109 H3112 0.950 1_655 S
C3110 C3109 1.387 1_455 S
C3110 C3113 1.387 1_455 S
H3111 C3107 0.950 . S
H3112 C3109 0.950 1_455 S
C3113 C3104 1.390 . S
C3113 H3106 0.950 1_655 S
C3113 C3110 1.387 1_655 S
C3114 C3115 1.387 1_565 S
C3114 H3118 0.950 1_565 S
C3114 C3123 1.390 . S
C3115 C3114 1.387 1_545 S
C3115 C3117 1.387 1_545 S
H3116 C3123 0.950 . S
C3117 C3115 1.387 1_565 S
C3117 C3119 1.390 . S
C3117 H3121 0.950 1_565 S
H3118 C3114 0.950 1_545 S
C3119 C3117 1.390 . S
C3119 C3120 1.387 . S
C3119 H3122 0.950 . S
C3120 C3119 1.387 . S
C3120 C3123 1.387 . S
H3121 C3117 0.950 1_545 S
H3122 C3119 0.950 . S
C3123 C3114 1.390 . S
C3123 H3116 0.950 . S
C3123 C3120 1.387 . S
C3124 C3125 1.387 . S
C3124 H3128 0.950 . S
C3124 C3133 1.390 . S
C3125 C3124 1.387 . S
C3125 C3127 1.387 . S
H3126 C3133 0.950 1_655 S
C3127 C3125 1.387 . S
C3127 C3129 1.390 . S
C3127 H3131 0.950 . S
H3128 C3124 0.950 . S
C3129 C3127 1.390 . S
C3129 C3130 1.387 1_455 S
C3129 H3132 0.950 1_455 S
C3130 C3129 1.387 1_655 S
C3130 C3133 1.387 1_655 S
H3131 C3127 0.950 . S
H3132 C3129 0.950 1_655 S
C3133 C3124 1.390 . S
C3133 H3126 0.950 1_455 S
C3133 C3130 1.387 1_455 S
C3134 C3135 1.387 1_545 S
C3134 H3138 0.950 1_545 S
C3134 C3143 1.390 . S
C3135 C3134 1.387 1_565 S
C3135 C3137 1.387 1_565 S
H3136 C3143 0.950 . S
C3137 C3135 1.387 1_545 S
C3137 C3139 1.390 . S
C3137 H3141 0.946 1_545 S
H3138 C3134 0.950 1_565 S
C3139 C3137 1.390 . S
C3139 C3140 1.387 . S
C3139 H3142 0.950 . S
C3140 C3139 1.387 . S
C3140 C3143 1.387 . S
H3141 C3137 0.946 1_565 S
H3142 C3139 0.950 . S
C3143 C3134 1.390 . S
C3143 H3136 0.950 . S
C3143 C3140 1.387 . S
C3144 C3145 1.387 1_655 S
C3144 H3148 0.950 1_655 S
C3144 C3153 1.390 . S
C3145 C3144 1.387 1_455 S
C3145 C3147 1.387 1_455 S
H3146 C3153 0.950 . S
C3147 C3145 1.387 1_655 S
C3147 C3149 1.390 . S
C3147 H3151 0.950 1_655 S
H3148 C3144 0.950 1_455 S
C3149 C3147 1.390 . S
C3149 C3150 1.387 . S
C3149 H3152 0.950 . S
C3150 C3149 1.387 . S
C3150 C3153 1.387 . S
H3151 C3147 0.950 1_455 S
H3152 C3149 0.950 . S
C3153 C3144 1.390 . S
C3153 H3146 0.950 . S
C3153 C3150 1.387 . S
C3154 C3155 1.387 1_565 S
C3154 H3158 0.950 1_565 S
C3154 C3163 1.390 . S
C3155 C3154 1.387 1_545 S
C3155 C3157 1.387 1_545 S
H3156 C3163 0.950 . S
C3157 C3155 1.387 1_565 S
C3157 C3159 1.390 . S
C3157 H3161 0.950 1_565 S
H3158 C3154 0.950 1_545 S
C3159 C3157 1.390 . S
C3159 C3160 1.387 . S
C3159 H3162 0.950 . S
C3160 C3159 1.387 . S
C3160 C3163 1.387 . S
H3161 C3157 0.950 1_545 S
H3162 C3159 0.950 . S
C3163 C3154 1.390 . S
C3163 H3156 0.950 . S
C3163 C3160 1.387 . S
C3164 C3165 1.387 1_455 S
C3164 H3168 0.950 1_455 S
C3164 C3173 1.390 . S
C3165 C3164 1.387 1_655 S
C3165 C3167 1.387 1_655 S
H3166 C3173 0.950 . S
C3167 C3165 1.387 1_455 S
C3167 C3169 1.390 . S
C3167 H3171 0.950 1_455 S
H3168 C3164 0.950 1_655 S
C3169 C3167 1.390 . S
C3169 C3170 1.387 . S
C3169 H3172 0.950 . S
C3170 C3169 1.387 . S
C3170 C3173 1.387 . S
H3171 C3167 0.950 1_655 S
H3172 C3169 0.950 . S
C3173 C3164 1.390 . S
C3173 H3166 0.950 . S
C3173 C3170 1.387 . S
C3174 C3175 1.387 1_545 S
C3174 H3178 0.950 1_545 S
C3174 C3183 1.390 . S
C3175 C3174 1.387 1_565 S
C3175 C3177 1.387 1_565 S
H3176 C3183 0.950 . S
C3177 C3175 1.387 1_545 S
C3177 C3179 1.390 . S
C3177 H3181 0.950 1_545 S
H3178 C3174 0.950 1_565 S
C3179 C3177 1.390 . S
C3179 C3180 1.387 . S
C3179 H3182 0.950 . S
C3180 C3179 1.387 . S
C3180 C3183 1.387 . S
H3181 C3177 0.950 1_565 S
H3182 C3179 0.950 . S
C3183 C3174 1.390 . S
C3183 H3176 0.950 . S
C3183 C3180 1.387 . S
C3184 C3185 1.387 . S
C3184 H3188 0.950 . S
C3184 C3193 1.390 . S
C3185 C3184 1.387 . S
C3185 C3187 1.387 . S
H3186 C3193 0.950 1_545 S
C3187 C3185 1.387 . S
C3187 C3189 1.390 . S
C3187 H3191 0.950 . S
H3188 C3184 0.950 . S
C3189 C3187 1.390 . S
C3189 C3190 1.387 1_565 S
C3189 H3192 0.950 1_565 S
C3190 C3189 1.387 1_545 S
C3190 C3193 1.387 1_545 S
H3191 C3187 0.950 . S
H3192 C3189 0.950 1_545 S
C3193 C3184 1.390 . S
C3193 H3186 0.950 1_565 S
C3193 C3190 1.387 1_565 S
C3194 C3195 1.387 1_545 S
C3194 H3198 0.950 1_545 S
C3194 C3203 1.390 . S
C3195 C3194 1.387 1_565 S
C3195 C3197 1.387 1_565 S
H3196 C3203 0.950 . S
C3197 C3195 1.387 1_545 S
C3197 C3199 1.390 . S
C3197 H3201 0.950 1_545 S
H3198 C3194 0.950 1_565 S
C3199 C3197 1.390 . S
C3199 C3200 1.387 . S
C3199 H3202 0.950 . S
C3200 C3199 1.387 . S
C3200 C3203 1.387 . S
H3201 C3197 0.950 1_565 S
H3202 C3199 0.950 . S
C3203 C3194 1.390 . S
C3203 H3196 0.950 . S
C3203 C3200 1.387 . S
C3204 C3205 1.387 1_655 S
C3204 H3208 0.950 1_655 S
C3204 C3213 1.390 . S
C3205 C3204 1.387 1_455 S
C3205 C3207 1.387 1_455 S
H3206 C3213 0.950 . S
C3207 C3205 1.387 1_655 S
C3207 C3209 1.390 . S
C3207 H3211 0.950 1_655 S
H3208 C3204 0.950 1_455 S
C3209 C3207 1.390 . S
C3209 C3210 1.387 . S
C3209 H3212 0.950 . S
C3210 C3209 1.387 . S
C3210 C3213 1.387 . S
H3211 C3207 0.950 1_455 S
H3212 C3209 0.950 . S
C3213 C3204 1.390 . S
C3213 H3206 0.950 . S
C3213 C3210 1.387 . S
C3214 C3215 1.387 1_565 S
C3214 H3218 0.950 1_565 S
C3214 C3223 1.390 . S
C3215 C3214 1.387 1_545 S
C3215 C3217 1.387 1_545 S
H3216 C3223 0.950 . S
C3217 C3215 1.387 1_565 S
C3217 C3219 1.390 . S
C3217 H3221 0.950 1_565 S
H3218 C3214 0.950 1_545 S
C3219 C3217 1.390 . S
C3219 C3220 1.387 . S
C3219 H3222 0.950 . S
C3220 C3219 1.387 . S
C3220 C3223 1.387 . S
H3221 C3217 0.950 1_545 S
H3222 C3219 0.950 . S
C3223 C3214 1.390 . S
C3223 H3216 0.950 . S
C3223 C3220 1.387 . S
C3224 C3225 1.387 1_455 S
C3224 H3228 0.950 1_455 S
C3224 C3233 1.390 . S
C3225 C3224 1.387 1_655 S
C3225 C3227 1.387 1_655 S
H3226 C3233 0.950 . S
C3227 C3225 1.387 1_455 S
C3227 C3229 1.390 . S
C3227 H3231 0.950 1_455 S
H3228 C3224 0.950 1_655 S
C3229 C3227 1.390 . S
C3229 C3230 1.387 . S
C3229 H3232 0.950 . S
C3230 C3229 1.387 . S
C3230 C3233 1.387 . S
H3231 C3227 0.950 1_655 S
H3232 C3229 0.950 . S
C3233 C3224 1.390 . S
C3233 H3226 0.950 . S
C3233 C3230 1.387 . S
C3234 C3235 1.387 . S
C3234 H3238 0.950 . S
C3234 C3243 1.390 . S
C3235 C3234 1.387 . S
C3235 C3237 1.387 . S
H3236 C3243 0.950 1_565 S
C3237 C3235 1.387 . S
C3237 C3239 1.390 . S
C3237 H3241 0.950 . S
H3238 C3234 0.950 . S
C3239 C3237 1.390 . S
C3239 C3240 1.387 1_545 S
C3239 H3242 0.950 1_545 S
C3240 C3239 1.387 1_565 S
C3240 C3243 1.387 1_565 S
H3241 C3237 0.950 . S
H3242 C3239 0.950 1_565 S
C3243 C3234 1.390 . S
C3243 H3236 0.950 1_545 S
C3243 C3240 1.387 1_545 S
C3244 C3245 1.387 . S
C3244 H3248 0.950 . S
C3244 C3253 1.390 . S
C3245 C3244 1.387 . S
C3245 C3247 1.387 . S
H3246 C3253 0.950 1_455 S
C3247 C3245 1.387 . S
C3247 C3249 1.390 . S
C3247 H3251 0.950 . S
H3248 C3244 0.950 . S
C3249 C3247 1.390 . S
C3249 C3250 1.387 1_655 S
C3249 H3252 0.950 1_655 S
C3250 C3249 1.387 1_455 S
C3250 C3253 1.387 1_455 S
H3251 C3247 0.950 . S
H3252 C3249 0.950 1_455 S
C3253 C3244 1.390 . S
C3253 H3246 0.950 1_655 S
C3253 C3250 1.387 1_655 S
C3254 C3255 1.387 1_455 S
C3254 H3258 0.950 1_455 S
C3254 C3263 1.390 . S
C3255 C3254 1.387 1_655 S
C3255 C3257 1.387 1_655 S
H3256 C3263 0.950 . S
C3257 C3255 1.387 1_455 S
C3257 C3259 1.390 . S
C3257 H3261 0.950 1_455 S
H3258 C3254 0.950 1_655 S
C3259 C3257 1.390 . S
C3259 C3260 1.387 . S
C3259 H3262 0.950 . S
C3260 C3259 1.387 . S
C3260 C3263 1.387 . S
H3261 C3257 0.950 1_655 S
H3262 C3259 0.950 . S
C3263 C3254 1.390 . S
C3263 H3256 0.950 . S
C3263 C3260 1.387 . S
C1345 C7 1.388 . S
C1350 C441 1.438 . S
C1355 C20 1.386 . S
C1360 C398 1.438 . S
C1365 C413 1.439 . S
C1370 C35 1.388 . S
C1375 C426 1.435 . S
C1380 C48 1.385 . S
C1385 C357 1.435 . S
C1390 C63 1.384 . S
C1395 C370 1.439 . S
C1400 C76 1.389 . S
C1405 C91 1.384 . S
C1410 C385 1.436 . S
C1415 C342 1.438 . S
C1420 C104 1.387 . S
C1425 C118 1.385 . S
C1430 C622 1.435 . S
C1435 C133 1.384 . S
C1440 C581 1.435 . S
C1445 C146 1.386 . S
C1450 C594 1.435 . S
C1455 C161 1.384 . S
C1460 C609 1.435 . S
C1465 C174 1.386 . S
C1470 C664 1.438 . S
C1475 C189 1.388 . S
C1480 C637 1.439 . S
C1485 C202 1.385 . S
C1490 C650 1.437 . S
C1495 C567 1.439 . S
C1500 C217 1.388 . S
C1505 C230 1.385 . S
C1510 C552 1.435 . S
C1515 C468 1.435 . S
C1520 C244 1.385 . S
C1525 C482 1.436 . S
C1530 C258 1.384 . S
C1535 C272 1.388 . S
C1540 C496 1.439 . S
C1545 C454 1.439 . S
C1550 C286 1.388 . S
C1555 C524 1.439 . S
C1560 C300 1.388 . S
C1565 C314 1.385 . S
C1570 C538 1.437 . S
C1575 C328 1.386 . S
C1580 C510 1.436 . S
C1585 C1113 1.438 . S
C1590 C679 1.388 . S
C1595 C1070 1.435 . S
C1600 C692 1.384 . S
C1605 C707 1.384 . S
C1610 C1085 1.435 . S
C1615 C1098 1.439 . S
C1620 C720 1.388 . S
C1625 C735 1.385 . S
C1630 C1029 1.435 . S
C1635 C748 1.388 . S
C1640 C1042 1.438 . S
C1645 C1057 1.439 . S
C1650 C763 1.389 . S
C1655 C1014 1.439 . S
C1660 C776 1.387 . S
C1665 C1294 1.438 . S
C1670 C790 1.388 . S
C1675 C1253 1.435 . S
C1680 C805 1.384 . S
C1685 C818 1.388 . S
C1690 C1266 1.439 . S
C1695 C833 1.388 . S
C1700 C1281 1.439 . S
C1705 C1336 1.438 . S
C1710 C846 1.386 . S
C1715 C1309 1.435 . S
C1720 C861 1.385 . S
C1725 C1322 1.439 . S
C1730 C874 1.389 . S
C1735 C889 1.385 . S
C1740 C1239 1.435 . S
C1745 C1224 1.438 . S
C1750 C902 1.387 . S
C1755 C916 1.387 . S
C1760 C1140 1.439 . S
C1765 C1154 1.435 . S
C1770 C930 1.385 . S
C1775 C1168 1.438 . S
C1780 C944 1.387 . S
C1785 C1126 1.438 . S
C1790 C958 1.389 . S
C1795 C972 1.388 . S
C1800 C1196 1.439 . S
C1805 C986 1.389 . S
C1810 C1210 1.439 . S
C1815 C1182 1.436 . S
C1820 C1000 1.387 . S
C1825 C6 1.578 . S
C1830 C959 1.581 . S
C1835 C21 1.580 . S
C1840 C917 1.579 . S
C1845 C34 1.578 . S
C1850 C931 1.581 . S
C1855 C49 1.580 . S
C1860 C945 1.580 . S
C1865 C1001 1.578 . S
C1870 C62 1.581 . S
C1875 C77 1.578 . S
C1880 C973 1.576 . S
C1885 C987 1.579 . S
C1890 C90 1.576 . S
C1895 C105 1.576 . S
C1900 C903 1.577 . S
C1905 C888 1.580 . S
C1910 C119 1.580 . S
C1915 C132 1.581 . S
C1920 C847 1.577 . S
C1925 C860 1.578 . S
C1930 C147 1.576 . S
C1935 C160 1.579 . S
C1940 C875 1.580 . S
C1945 C175 1.580 . S
C1950 C804 1.579 . S
C1955 C188 1.578 . S
C1960 C819 1.576 . S
C1965 C832 1.577 . S
C1970 C203 1.581 . S
C1975 C791 1.581 . S
C1980 C216 1.579 . S
C1985 C231 1.581 . S
C1990 C777 1.579 . S
C1995 C245 1.576 . S
C2000 C693 1.577 . S
C2005 C259 1.581 . S
C2010 C706 1.577 . S
C2015 C273 1.578 . S
C2020 C721 1.576 . S
C2025 C287 1.576 . S
C2030 C678 1.579 . S
C2035 C749 1.580 . S
C2040 C301 1.579 . S
C2045 C762 1.578 . S
C2050 C315 1.581 . S
C2055 C329 1.577 . S
C2060 C734 1.576 . S
C2065 C345 1.650 . S
C2070 C1297 1.651 . S
C2075 C358 1.651 . S
C2080 C1254 1.651 . S
C2085 C373 1.651 . S
C2090 C1269 1.651 . S
C2095 C386 1.652 . S
C2100 C1282 1.652 . S
C2105 C401 1.651 . S
C2110 C1339 1.652 . S
C2115 C1310 1.651 . S
C2120 C414 1.651 . S
C2125 C429 1.651 . S
C2130 C1325 1.652 . S
C2135 C442 1.651 . S
C2140 C1240 1.650 . S
C2145 C1227 1.652 . S
C2150 C457 1.650 . S
C2155 C1185 1.651 . S
C2160 C471 1.652 . S
C2165 C1199 1.651 . S
C2170 C485 1.650 . S
C2175 C1213 1.652 . S
C2180 C499 1.652 . S
C2185 C513 1.652 . S
C2190 C1143 1.652 . S
C2195 C527 1.650 . S
C2200 C1157 1.652 . S
C2205 C541 1.651 . S
C2210 C1171 1.652 . S
C2215 C1129 1.650 . S
C2220 C555 1.652 . S
C2225 C1114 1.651 . S
C2230 C568 1.650 . S
C2235 C582 1.651 . S
C2240 C1030 1.651 . S
C2245 C1045 1.650 . S
C2250 C597 1.651 . S
C2255 C1058 1.652 . S
C2260 C610 1.652 . S
C2265 C625 1.652 . S
C2270 C1017 1.652 . S
C2275 C638 1.652 . S
C2280 C1086 1.652 . S
C2285 C1101 1.652 . S
C2290 C653 1.651 . S
C2295 C667 1.652 . S
C2300 C1073 1.651 . S
C2305 C8 1.540 . S
C2310 C399 1.440 . S
C2315 C23 1.540 . S
C2320 C412 1.440 . S
C2325 C36 1.541 . S
C2330 C427 1.436 . S
C2335 C51 1.541 . S
C2340 C440 1.437 . S
C2345 C343 1.437 . S
C2350 C64 1.540 . S
C2355 C79 1.539 . S
C2360 C356 1.440 . S
C2365 C371 1.438 . S
C2370 C92 1.540 . S
C2375 C384 1.437 . S
C2380 C107 1.541 . S
C2385 C121 1.540 . S
C2390 C539 1.441 . S
C2395 C553 1.441 . S
C2400 C134 1.539 . S
C2405 C149 1.539 . S
C2410 C511 1.441 . S
C2415 C162 1.540 . S
C2420 C525 1.437 . S
C2425 C177 1.540 . S
C2430 C483 1.437 . S
C2435 C190 1.540 . S
C2440 C497 1.437 . S
C2445 C205 1.541 . S
C2450 C455 1.436 . S
C2455 C469 1.437 . S
C2460 C218 1.540 . S
C2465 C233 1.539 . S
C2470 C636 1.439 . S
C2475 C247 1.541 . S
C2480 C608 1.438 . S
C2485 C623 1.441 . S
C2490 C261 1.540 . S
C2495 C275 1.541 . S
C2500 C580 1.438 . S
C2505 C595 1.440 . S
C2510 C289 1.540 . S
C2515 C303 1.541 . S
C2520 C566 1.436 . S
C2525 C665 1.436 . S
C2530 C317 1.541 . S
C2535 C651 1.438 . S
C2540 C331 1.540 . S
C2545 C680 1.541 . S
C2550 C1071 1.438 . S
C2555 C695 1.541 . S
C2560 C1084 1.438 . S
C2565 C708 1.541 . S
C2570 C1099 1.436 . S
C2575 C1112 1.440 . S
C2580 C723 1.539 . S
C2585 C736 1.541 . S
C2590 C1015 1.436 . S
C2595 C751 1.541 . S
C2600 C1028 1.437 . S
C2605 C764 1.540 . S
C2610 C1043 1.437 . S
C2615 C779 1.541 . S
C2620 C1056 1.438 . S
C2625 C793 1.541 . S
C2630 C1211 1.436 . S
C2635 C1225 1.440 . S
C2640 C806 1.540 . S
C2645 C1183 1.436 . S
C2650 C821 1.541 . S
C2655 C1197 1.437 . S
C2660 C834 1.540 . S
C2665 C849 1.540 . S
C2670 C1155 1.437 . S
C2675 C1169 1.440 . S
C2680 C862 1.539 . S
C2685 C877 1.540 . S
C2690 C1127 1.437 . S
C2695 C1141 1.440 . S
C2700 C890 1.540 . S
C2705 C1308 1.438 . S
C2710 C905 1.540 . S
C2715 C1280 1.441 . S
C2720 C919 1.539 . S
C2725 C933 1.540 . S
C2730 C1295 1.441 . S
C2735 C947 1.539 . S
C2740 C1252 1.440 . S
C2745 C1267 1.436 . S
C2750 C961 1.541 . S
C2755 C975 1.541 . S
C2760 C1238 1.438 . S
C2765 C1337 1.437 . S
C2770 C989 1.540 . S
C2775 C1323 1.441 . S
C2780 C1003 1.539 . S
C2785 C372 1.708 . S
C2790 C9 1.726 . S
C2795 C22 1.727 . S
C2800 C387 1.710 . S
C2805 C344 1.710 . S
C2810 C37 1.727 . S
C2815 C50 1.727 . S
C2820 C359 1.710 . S
C2825 C428 1.710 . S
C2830 C65 1.727 . S
C2835 C443 1.708 . S
C2840 C78 1.726 . S
C2845 C93 1.727 . S
C2850 C400 1.710 . S
C2855 C415 1.710 . S
C2860 C106 1.727 . S
C2865 C120 1.726 . S
C2870 C512 1.708 . S
C2875 C135 1.726 . S
C2880 C526 1.708 . S
C2885 C540 1.710 . S
C2890 C148 1.727 . S
C2895 C163 1.727 . S
C2900 C554 1.710 . S
C2905 C176 1.726 . S
C2910 C456 1.708 . S
C2915 C470 1.710 . S
C2920 C191 1.727 . S
C2925 C484 1.710 . S
C2930 C204 1.727 . S
C2935 C498 1.710 . S
C2940 C219 1.727 . S
C2945 C232 1.726 . S
C2950 C611 1.708 . S
C2955 C639 1.710 . S
C2960 C246 1.727 . S
C2965 C260 1.726 . S
C2970 C652 1.708 . S
C2975 C569 1.708 . S
C2980 C274 1.726 . S
C2985 C666 1.710 . S
C2990 C288 1.727 . S
C2995 C583 1.708 . S
C3000 C302 1.726 . S
C3005 C316 1.726 . S
C3010 C596 1.708 . S
C3015 C330 1.727 . S
C3020 C624 1.710 . S
C3025 C681 1.727 . S
C3030 C1044 1.710 . S
C3035 C1059 1.710 . S
C3040 C694 1.727 . S
C3045 C1016 1.708 . S
C3050 C709 1.726 . S
C3055 C1031 1.708 . S
C3060 C722 1.726 . S
C3065 C737 1.726 . S
C3070 C1100 1.708 . S
C3075 C1115 1.708 . S
C3080 C750 1.726 . S
C3085 C765 1.726 . S
C3090 C1072 1.708 . S
C3095 C1087 1.708 . S
C3100 C778 1.726 . S
C3105 C792 1.726 . S
C3110 C1184 1.708 . S
C3115 C1198 1.708 . S
C3120 C807 1.726 . S
C3125 C820 1.726 . S
C3130 C1212 1.708 . S
C3135 C1226 1.710 . S
C3140 C835 1.727 . S
C3145 C1128 1.708 . S
C3150 C848 1.726 . S
C3155 C1142 1.710 . S
C3160 C863 1.727 . S
C3165 C1156 1.708 . S
C3170 C876 1.726 . S
C3175 C1170 1.708 . S
C3180 C891 1.726 . S
C3185 C904 1.726 . S
C3190 C1283 1.708 . S
C3195 C1311 1.708 . S
C3200 C918 1.726 . S
C3205 C1324 1.710 . S
C3210 C932 1.727 . S
C3215 C1241 1.710 . S
C3220 C946 1.727 . S
C3225 C1338 1.708 . S
C3230 C960 1.726 . S
C3235 C974 1.727 . S
C3240 C1255 1.710 . S
C3245 C988 1.726 . S
C3250 C1268 1.708 . S
C3255 C1296 1.708 . S
C3260 C1002 1.726 . S
