# Generated by pormake.
# Topology uod, (4)-cn, num edge types: 1
# Building blocks:
#     Node 0, Type 0, BuildingBlock: QUQFOY_clean_sbu_3, # of connection points: 4
#     Node 1, Type 0, BuildingBlock: QUQFOY_clean_sbu_3, # of connection points: 4
#     Node 2, Type 0, BuildingBlock: QUQFOY_clean_sbu_3, # of connection points: 4
#     Node 3, Type 0, BuildingBlock: QUQFOY_clean_sbu_3, # of connection points: 4
#     Node 4, Type 0, BuildingBlock: QUQFOY_clean_sbu_3, # of connection points: 4
#     Node 5, Type 0, BuildingBlock: QUQFOY_clean_sbu_3, # of connection points: 4
#     Node 6, Type 0, BuildingBlock: QUQFOY_clean_sbu_3, # of connection points: 4
#     Node 7, Type 0, BuildingBlock: QUQFOY_clean_sbu_3, # of connection points: 4
#     Node 8, Type 0, BuildingBlock: QUQFOY_clean_sbu_3, # of connection points: 4
#     Node 9, Type 0, BuildingBlock: QUQFOY_clean_sbu_3, # of connection points: 4
#     Node 10, Type 0, BuildingBlock: QUQFOY_clean_sbu_3, # of connection points: 4
#     Node 11, Type 0, BuildingBlock: QUQFOY_clean_sbu_3, # of connection points: 4
#     Node 12, Type 0, BuildingBlock: QUQFOY_clean_sbu_3, # of connection points: 4
#     Node 13, Type 0, BuildingBlock: QUQFOY_clean_sbu_3, # of connection points: 4
#     Node 14, Type 0, BuildingBlock: QUQFOY_clean_sbu_3, # of connection points: 4
#     Node 15, Type 0, BuildingBlock: QUQFOY_clean_sbu_3, # of connection points: 4
#     Node 16, Type 0, BuildingBlock: QUQFOY_clean_sbu_3, # of connection points: 4
#     Node 17, Type 0, BuildingBlock: QUQFOY_clean_sbu_3, # of connection points: 4
#     Node 18, Type 0, BuildingBlock: QUQFOY_clean_sbu_3, # of connection points: 4
#     Node 19, Type 0, BuildingBlock: QUQFOY_clean_sbu_3, # of connection points: 4
#     Node 20, Type 0, BuildingBlock: QUQFOY_clean_sbu_3, # of connection points: 4
#     Node 21, Type 0, BuildingBlock: QUQFOY_clean_sbu_3, # of connection points: 4
#     Node 22, Type 0, BuildingBlock: QUQFOY_clean_sbu_3, # of connection points: 4
#     Node 23, Type 0, BuildingBlock: QUQFOY_clean_sbu_3, # of connection points: 4
#     Node 24, Type 0, BuildingBlock: QUQFOY_clean_sbu_3, # of connection points: 4
#     Node 25, Type 0, BuildingBlock: QUQFOY_clean_sbu_3, # of connection points: 4
#     Node 26, Type 0, BuildingBlock: QUQFOY_clean_sbu_3, # of connection points: 4
#     Node 27, Type 0, BuildingBlock: QUQFOY_clean_sbu_3, # of connection points: 4
#     Node 28, Type 0, BuildingBlock: QUQFOY_clean_sbu_3, # of connection points: 4
#     Node 29, Type 0, BuildingBlock: QUQFOY_clean_sbu_3, # of connection points: 4
#     Node 30, Type 0, BuildingBlock: QUQFOY_clean_sbu_3, # of connection points: 4
#     Node 31, Type 0, BuildingBlock: QUQFOY_clean_sbu_3, # of connection points: 4
#     Edge 32, Type (0, 0), BuildingBlock: XUDNAN_clean_linker_2, # of connection points: 2
#     Edge 33, Type (0, 0), BuildingBlock: XUDNAN_clean_linker_2, # of connection points: 2
#     Edge 34, Type (0, 0), BuildingBlock: XUDNAN_clean_linker_2, # of connection points: 2
#     Edge 35, Type (0, 0), BuildingBlock: XUDNAN_clean_linker_2, # of connection points: 2
#     Edge 36, Type (0, 0), BuildingBlock: XUDNAN_clean_linker_2, # of connection points: 2
#     Edge 37, Type (0, 0), BuildingBlock: XUDNAN_clean_linker_2, # of connection points: 2
#     Edge 38, Type (0, 0), BuildingBlock: XUDNAN_clean_linker_2, # of connection points: 2
#     Edge 39, Type (0, 0), BuildingBlock: XUDNAN_clean_linker_2, # of connection points: 2
#     Edge 40, Type (0, 0), BuildingBlock: XUDNAN_clean_linker_2, # of connection points: 2
#     Edge 41, Type (0, 0), BuildingBlock: XUDNAN_clean_linker_2, # of connection points: 2
#     Edge 42, Type (0, 0), BuildingBlock: XUDNAN_clean_linker_2, # of connection points: 2
#     Edge 43, Type (0, 0), BuildingBlock: XUDNAN_clean_linker_2, # of connection points: 2
#     Edge 44, Type (0, 0), BuildingBlock: XUDNAN_clean_linker_2, # of connection points: 2
#     Edge 45, Type (0, 0), BuildingBlock: XUDNAN_clean_linker_2, # of connection points: 2
#     Edge 46, Type (0, 0), BuildingBlock: XUDNAN_clean_linker_2, # of connection points: 2
#     Edge 47, Type (0, 0), BuildingBlock: XUDNAN_clean_linker_2, # of connection points: 2
#     Edge 48, Type (0, 0), BuildingBlock: XUDNAN_clean_linker_2, # of connection points: 2
#     Edge 49, Type (0, 0), BuildingBlock: XUDNAN_clean_linker_2, # of connection points: 2
#     Edge 50, Type (0, 0), BuildingBlock: XUDNAN_clean_linker_2, # of connection points: 2
#     Edge 51, Type (0, 0), BuildingBlock: XUDNAN_clean_linker_2, # of connection points: 2
#     Edge 52, Type (0, 0), BuildingBlock: XUDNAN_clean_linker_2, # of connection points: 2
#     Edge 53, Type (0, 0), BuildingBlock: XUDNAN_clean_linker_2, # of connection points: 2
#     Edge 54, Type (0, 0), BuildingBlock: XUDNAN_clean_linker_2, # of connection points: 2
#     Edge 55, Type (0, 0), BuildingBlock: XUDNAN_clean_linker_2, # of connection points: 2
#     Edge 56, Type (0, 0), BuildingBlock: XUDNAN_clean_linker_2, # of connection points: 2
#     Edge 57, Type (0, 0), BuildingBlock: XUDNAN_clean_linker_2, # of connection points: 2
#     Edge 58, Type (0, 0), BuildingBlock: XUDNAN_clean_linker_2, # of connection points: 2
#     Edge 59, Type (0, 0), BuildingBlock: XUDNAN_clean_linker_2, # of connection points: 2
#     Edge 60, Type (0, 0), BuildingBlock: XUDNAN_clean_linker_2, # of connection points: 2
#     Edge 61, Type (0, 0), BuildingBlock: XUDNAN_clean_linker_2, # of connection points: 2
#     Edge 62, Type (0, 0), BuildingBlock: XUDNAN_clean_linker_2, # of connection points: 2
#     Edge 63, Type (0, 0), BuildingBlock: XUDNAN_clean_linker_2, # of connection points: 2
#     Edge 64, Type (0, 0), BuildingBlock: XUDNAN_clean_linker_2, # of connection points: 2
#     Edge 65, Type (0, 0), BuildingBlock: XUDNAN_clean_linker_2, # of connection points: 2
#     Edge 66, Type (0, 0), BuildingBlock: XUDNAN_clean_linker_2, # of connection points: 2
#     Edge 67, Type (0, 0), BuildingBlock: XUDNAN_clean_linker_2, # of connection points: 2
#     Edge 68, Type (0, 0), BuildingBlock: XUDNAN_clean_linker_2, # of connection points: 2
#     Edge 69, Type (0, 0), BuildingBlock: XUDNAN_clean_linker_2, # of connection points: 2
#     Edge 70, Type (0, 0), BuildingBlock: XUDNAN_clean_linker_2, # of connection points: 2
#     Edge 71, Type (0, 0), BuildingBlock: XUDNAN_clean_linker_2, # of connection points: 2
#     Edge 72, Type (0, 0), BuildingBlock: XUDNAN_clean_linker_2, # of connection points: 2
#     Edge 73, Type (0, 0), BuildingBlock: XUDNAN_clean_linker_2, # of connection points: 2
#     Edge 74, Type (0, 0), BuildingBlock: XUDNAN_clean_linker_2, # of connection points: 2
#     Edge 75, Type (0, 0), BuildingBlock: XUDNAN_clean_linker_2, # of connection points: 2
#     Edge 76, Type (0, 0), BuildingBlock: XUDNAN_clean_linker_2, # of connection points: 2
#     Edge 77, Type (0, 0), BuildingBlock: XUDNAN_clean_linker_2, # of connection points: 2
#     Edge 78, Type (0, 0), BuildingBlock: XUDNAN_clean_linker_2, # of connection points: 2
#     Edge 79, Type (0, 0), BuildingBlock: XUDNAN_clean_linker_2, # of connection points: 2
#     Edge 80, Type (0, 0), BuildingBlock: XUDNAN_clean_linker_2, # of connection points: 2
#     Edge 81, Type (0, 0), BuildingBlock: XUDNAN_clean_linker_2, # of connection points: 2
#     Edge 82, Type (0, 0), BuildingBlock: XUDNAN_clean_linker_2, # of connection points: 2
#     Edge 83, Type (0, 0), BuildingBlock: XUDNAN_clean_linker_2, # of connection points: 2
#     Edge 84, Type (0, 0), BuildingBlock: XUDNAN_clean_linker_2, # of connection points: 2
#     Edge 85, Type (0, 0), BuildingBlock: XUDNAN_clean_linker_2, # of connection points: 2
#     Edge 86, Type (0, 0), BuildingBlock: XUDNAN_clean_linker_2, # of connection points: 2
#     Edge 87, Type (0, 0), BuildingBlock: XUDNAN_clean_linker_2, # of connection points: 2
#     Edge 88, Type (0, 0), BuildingBlock: XUDNAN_clean_linker_2, # of connection points: 2
#     Edge 89, Type (0, 0), BuildingBlock: XUDNAN_clean_linker_2, # of connection points: 2
#     Edge 90, Type (0, 0), BuildingBlock: XUDNAN_clean_linker_2, # of connection points: 2
#     Edge 91, Type (0, 0), BuildingBlock: XUDNAN_clean_linker_2, # of connection points: 2
#     Edge 92, Type (0, 0), BuildingBlock: XUDNAN_clean_linker_2, # of connection points: 2
#     Edge 93, Type (0, 0), BuildingBlock: XUDNAN_clean_linker_2, # of connection points: 2
#     Edge 94, Type (0, 0), BuildingBlock: XUDNAN_clean_linker_2, # of connection points: 2
#     Edge 95, Type (0, 0), BuildingBlock: XUDNAN_clean_linker_2, # of connection points: 2
# Relax obj value: 0.161
# Max RMSD: 0.155
# Mean RMSD: 0.155
data_MOF--net-uod--node1-QUQFOY_clean_sbu_3--edge1-XUDNAN_clean_linker_2
_symmetry_space_group_name_H-M    P1
_symmetry_Int_Tables_number       1
_symmetry_cell_setting            triclinic
loop_
_symmetry_equiv_pos_as_xyz
'x, y, z'
_cell_length_a     91.802962
_cell_length_b     27.493955
_cell_length_c     64.353796
_cell_angle_alpha  90.07812
_cell_angle_beta   89.945822
_cell_angle_gamma 89.992042
loop_
_atom_site_label
_atom_site_type_symbol
_atom_site_fract_x
_atom_site_fract_y
_atom_site_fract_z
_atom_type_partial_charge
C0 C 0.03566 0.28979 0.10451 0.0
O1 O 0.03651 0.32351 0.11793 0.0
Cd2 Cd 0.05054 0.395 0.11345 0.0
O3 O 0.04072 0.29586 0.08617 0.0
Cd4 Cd 0.0513 0.36502 0.06532 0.0
C5 C 0.08227 0.3447 0.09161 0.0
O6 O 0.0421 0.43546 0.08369 0.0
O7 O 0.06212 0.44541 0.06659 0.0
O8 O 0.0302 0.36643 0.0424 0.0
C9 C 0.05177 0.4642 0.07686 0.0
O10 O 0.07493 0.36422 0.10625 0.0
C11 C 0.03733 0.37226 0.0257 0.0
O12 O 0.07659 0.33777 0.0737 0.0
O13 O 0.05113 0.36838 0.02699 0.0
C14 C 0.22812 0.90748 0.17151 0.0
O15 O 0.22837 0.88941 0.18962 0.0
Cd16 Cd 0.21822 0.8102 0.19574 0.0
O17 O 0.22305 0.88285 0.1564 0.0
Cd18 Cd 0.21289 0.80069 0.15144 0.0
C19 C 0.18304 0.82652 0.17944 0.0
O20 O 0.22889 0.75003 0.17255 0.0
O21 O 0.20709 0.72383 0.16774 0.0
O22 O 0.22834 0.78487 0.12103 0.0
C23 C 0.22052 0.7139 0.16982 0.0
O24 O 0.19148 0.81908 0.19482 0.0
C25 C 0.21817 0.77135 0.10902 0.0
O26 O 0.18808 0.82541 0.16099 0.0
O27 O 0.2053 0.77441 0.11621 0.0
C28 C 0.03656 0.95086 0.1456 0.0
O29 O 0.04216 0.92711 0.13068 0.0
Cd30 Cd 0.05209 0.84778 0.13186 0.0
O31 O 0.03518 0.93159 0.16357 0.0
Cd32 Cd 0.04013 0.84955 0.17954 0.0
C33 C 0.07658 0.8621 0.1728 0.0
O34 O 0.03505 0.79906 0.14951 0.0
O35 O 0.04856 0.76709 0.17311 0.0
O36 O 0.01525 0.84631 0.19294 0.0
C37 C 0.04164 0.76196 0.15626 0.0
O38 O 0.07356 0.85431 0.15376 0.0
C39 C 0.01844 0.8296 0.21072 0.0
O40 O 0.06644 0.86604 0.18638 0.0
O41 O 0.03194 0.82584 0.21488 0.0
C42 C 0.23097 0.24189 0.12372 0.0
O43 O 0.22951 0.24261 0.10412 0.0
Cd44 Cd 0.22213 0.31412 0.08571 0.0
O45 O 0.22864 0.28021 0.13434 0.0
Cd46 Cd 0.22122 0.36385 0.12504 0.0
C47 C 0.18854 0.33012 0.10744 0.0
O48 O 0.23727 0.3822 0.0965 0.0
O49 O 0.2161 0.41384 0.09453 0.0
O50 O 0.23854 0.39824 0.15012 0.0
C51 C 0.22975 0.41965 0.09255 0.0
O52 O 0.1954 0.32258 0.09051 0.0
C53 C 0.2302 0.43118 0.15711 0.0
O54 O 0.19547 0.34161 0.12387 0.0
O55 O 0.21723 0.43122 0.15021 0.0
C56 C 0.9537 0.68617 0.87214 0.0
O57 O 0.95003 0.66788 0.8548 0.0
Cd58 Cd 0.94708 0.58438 0.84728 0.0
O59 O 0.95576 0.65915 0.888 0.0
Cd60 Cd 0.95481 0.56969 0.8948 0.0
C61 C 0.91909 0.5549 0.88005 0.0
O62 O 0.96821 0.55024 0.86296 0.0
O63 O 0.95963 0.49003 0.88083 0.0
O64 O 0.97677 0.58003 0.9154 0.0
C65 C 0.96808 0.50521 0.86673 0.0
O66 O 0.92376 0.56103 0.86164 0.0
C67 C 0.97352 0.54994 0.92958 0.0
O68 O 0.92776 0.55789 0.89553 0.0
O69 O 0.9606 0.53332 0.9293 0.0
C70 C 0.79969 -0.00747 0.89675 0.0
O71 O 0.79685 0.0085 0.87871 0.0
Cd72 Cd 0.79551 0.09062 0.86818 0.0
O73 O 0.80276 0.02168 0.91158 0.0
Cd74 Cd 0.80515 0.11225 0.91359 0.0
C75 C 0.8311 0.12293 0.87568 0.0
O76 O 0.78217 0.12858 0.89526 0.0
O77 O 0.79647 0.18953 0.90113 0.0
O78 O 0.7932 0.11411 0.94768 0.0
C79 C 0.78389 0.17404 0.89657 0.0
O80 O 0.82035 0.11702 0.8635 0.0
C81 C 0.80153 0.14615 0.95545 0.0
O82 O 0.8293 0.11992 0.89533 0.0
O83 O 0.81281 0.15693 0.94495 0.0
C84 C 0.97207 0.0309 0.84557 0.0
O85 O 0.97308 0.06431 0.85913 0.0
Cd86 Cd 0.9689 0.14837 0.85353 0.0
O87 O 0.96948 0.04099 0.82654 0.0
Cd88 Cd 0.96577 0.11717 0.8061 0.0
C89 C 0.93434 0.13935 0.83361 0.0
O90 O 0.9834 0.16815 0.82386 0.0
O91 O 0.96742 0.20455 0.80488 0.0
O92 O 0.98217 0.10071 0.77666 0.0
C93 C 0.97934 0.2066 0.81474 0.0
O94 O 0.94244 0.1522 0.84871 0.0
C95 C 0.97274 0.11096 0.76292 0.0
O96 O 0.93993 0.1241 0.81663 0.0
O97 O 0.95973 0.11667 0.76924 0.0
C98 C 0.78112 0.64235 0.88849 0.0
O99 O 0.77954 0.6114 0.90295 0.0
Cd100 Cd 0.779 0.52549 0.89878 0.0
O101 O 0.78176 0.62893 0.86949 0.0
Cd102 Cd 0.78065 0.5506 0.84985 0.0
C103 C 0.81243 0.51879 0.87394 0.0
O104 O 0.76212 0.51197 0.87159 0.0
O105 O 0.77404 0.46608 0.8503 0.0
O106 O 0.76357 0.58502 0.82495 0.0
C107 C 0.76324 0.47154 0.86232 0.0
O108 O 0.80423 0.50972 0.88943 0.0
C109 C 0.76825 0.56079 0.80949 0.0
O110 O 0.80709 0.53623 0.85717 0.0
O111 O 0.78025 0.53843 0.81199 0.0
C112 C 0.04365 0.82372 0.65055 0.0
O113 O 0.04659 0.84563 0.66739 0.0
Cd114 Cd 0.05434 0.92897 0.66641 0.0
O115 O 0.0444 0.84619 0.6333 0.0
Cd116 Cd 0.04979 0.92888 0.62077 0.0
C117 C 0.0849 0.92138 0.63618 0.0
O118 O 0.03657 0.97596 0.64695 0.0
O119 O 0.05289 0.01358 0.62894 0.0
O120 O 0.028 0.92221 0.59961 0.0
C121 C 0.0409 0.0153 0.63873 0.0
O122 O 0.0797 0.92867 0.65427 0.0
C123 C 0.03322 0.94008 0.58307 0.0
O124 O 0.07639 0.9172 0.62062 0.0
O125 O 0.04681 0.94912 0.58314 0.0
C126 C 0.2063 0.47031 0.5971 0.0
O127 O 0.20127 0.45021 0.61335 0.0
Cd128 Cd 0.19487 0.36714 0.61643 0.0
O129 O 0.20768 0.44633 0.58017 0.0
Cd130 Cd 0.20317 0.36103 0.56787 0.0
C131 C 0.16694 0.36 0.58095 0.0
O132 O 0.2147 0.32996 0.59889 0.0
O133 O 0.20516 0.27598 0.57877 0.0
O134 O 0.22514 0.37466 0.54734 0.0
C135 C 0.21317 0.28569 0.59425 0.0
O136 O 0.17151 0.35787 0.59958 0.0
C137 C 0.22199 0.34596 0.53258 0.0
O138 O 0.17593 0.36433 0.56586 0.0
O139 O 0.20921 0.32816 0.53279 0.0
C140 C 0.02599 0.48281 0.61653 0.0
O141 O 0.02297 0.48018 0.59735 0.0
Cd142 Cd 0.02474 0.40497 0.57908 0.0
O143 O 0.029 0.44439 0.62666 0.0
Cd144 Cd 0.02943 0.35645 0.61817 0.0
C145 C 0.05986 0.36917 0.59084 0.0
O146 O 0.00923 0.34385 0.59414 0.0
O147 O 0.02805 0.29926 0.58925 0.0
O148 O 0.0117 0.34222 0.64506 0.0
C149 C 0.01431 0.3033 0.58822 0.0
O150 O 0.05073 0.38368 0.57729 0.0
C151 C 0.01759 0.30541 0.65337 0.0
O152 O 0.05557 0.35867 0.60916 0.0
O153 O 0.03019 0.29383 0.64672 0.0
C154 C 0.23145 0.80502 0.63334 0.0
O155 O 0.23283 0.83766 0.61954 0.0
Cd156 Cd 0.22696 0.92129 0.62271 0.0
O157 O 0.22793 0.81608 0.652 0.0
Cd158 Cd 0.2235 0.89367 0.6718 0.0
C159 C 0.19223 0.90688 0.64381 0.0
O160 O 0.2393 0.94845 0.65246 0.0
O161 O 0.22278 -0.01894 0.67193 0.0
O162 O 0.24194 0.88095 0.69864 0.0
C163 C 0.234 -0.01364 0.66071 0.0
O164 O 0.20087 0.91864 0.62914 0.0
C165 C 0.23371 0.8936 0.71359 0.0
O166 O 0.19717 0.89436 0.6616 0.0
O167 O 0.22021 0.89802 0.70946 0.0
C168 C 0.98143 0.15488 0.37959 0.0
O169 O 0.98439 0.12437 0.36536 0.0
Cd170 Cd 0.98373 0.03801 0.36825 0.0
O171 O 0.97864 0.14083 0.39809 0.0
Cd172 Cd 0.97687 0.06213 0.41691 0.0
C173 C 0.94794 0.03496 0.38491 0.0
O174 O 0.99662 0.01975 0.39913 0.0
O175 O 0.9818 0.9764 0.41744 0.0
O176 O 0.99188 0.08518 0.44668 0.0
C177 C 0.99367 0.97929 0.40749 0.0
O178 O 0.95756 0.02535 0.37123 0.0
C179 C 0.98295 0.06994 0.46029 0.0
O180 O 0.95166 0.05066 0.40286 0.0
O181 O 0.9704 0.05743 0.45384 0.0
C182 C 0.77829 0.54694 0.38855 0.0
O183 O 0.77859 0.57839 0.37413 0.0
Cd184 Cd 0.78271 0.66291 0.3779 0.0
O185 O 0.77905 0.55971 0.40763 0.0
Cd186 Cd 0.78052 0.63961 0.4262 0.0
C187 C 0.81465 0.65443 0.40561 0.0
O188 O 0.76546 0.68863 0.4032 0.0
O189 O 0.77978 0.72663 0.42426 0.0
O190 O 0.76056 0.62701 0.45082 0.0
C191 C 0.76897 0.72805 0.41206 0.0
O192 O 0.80825 0.66558 0.38872 0.0
C193 C 0.76752 0.64331 0.4664 0.0
O194 O 0.80729 0.64222 0.42164 0.0
O195 O 0.78113 0.64975 0.46395 0.0
C196 C 0.95532 0.4987 0.36794 0.0
O197 O 0.9563 0.51539 0.38628 0.0
Cd198 Cd 0.95554 0.59818 0.39626 0.0
O199 O 0.95305 0.527 0.35256 0.0
Cd200 Cd 0.9495 0.61664 0.34887 0.0
C201 C 0.92058 0.62679 0.38224 0.0
O202 O 0.97041 0.63639 0.37097 0.0
O203 O 0.95676 0.69607 0.36102 0.0
O204 O 0.96459 0.61528 0.31774 0.0
C205 C 0.96872 0.68163 0.36862 0.0
O206 O 0.93025 0.62162 0.39617 0.0
C207 C 0.95681 0.64426 0.30721 0.0
O208 O 0.92401 0.62371 0.36303 0.0
O209 O 0.94446 0.6553 0.31485 0.0
C210 C 0.80602 0.20712 0.3677 0.0
O211 O 0.80883 0.18905 0.38538 0.0
Cd212 Cd 0.81255 0.10472 0.391 0.0
O213 O 0.80552 0.18015 0.35157 0.0
Cd214 Cd 0.80786 0.09209 0.3433 0.0
C215 C 0.84267 0.07936 0.36134 0.0
O216 O 0.7927 0.06801 0.37288 0.0
O217 O 0.80306 0.01096 0.3549 0.0
O218 O 0.78712 0.10976 0.32136 0.0
C219 C 0.79338 0.02362 0.36783 0.0
O220 O 0.83677 0.08419 0.3791 0.0
C221 C 0.78968 0.07826 0.30744 0.0
O222 O 0.83501 0.08273 0.34482 0.0
O223 O 0.802 0.05722 0.30834 0.0
C224 C 0.51297 0.23376 0.61523 0.0
O225 O 0.51367 0.2369 0.63486 0.0
Cd226 Cd 0.5184 0.30731 0.65434 0.0
O227 O 0.51527 0.27082 0.60383 0.0
Cd228 Cd 0.51948 0.35843 0.61197 0.0
C229 C 0.55181 0.34729 0.63659 0.0
O230 O 0.5019 0.36466 0.64066 0.0
O231 O 0.51856 0.41975 0.63932 0.0
O232 O 0.49894 0.37813 0.59013 0.0
C233 C 0.50632 0.40599 0.64635 0.0
O234 O 0.54356 0.33219 0.65111 0.0
C235 C 0.5048 0.41018 0.57878 0.0
O236 O 0.54657 0.35627 0.61858 0.0
O237 O 0.51839 0.41701 0.58145 0.0
C238 C 0.68554 0.87897 0.63669 0.0
O239 O 0.68148 0.84539 0.64888 0.0
Cd240 Cd 0.67166 0.77152 0.63562 0.0
O241 O 0.6851 0.87282 0.61704 0.0
Cd242 Cd 0.67915 0.80839 0.59119 0.0
C243 C 0.64369 0.81564 0.60502 0.0
O244 O 0.68886 0.74137 0.61084 0.0
O245 O 0.6747 0.72276 0.58512 0.0
O246 O 0.70279 0.8293 0.57696 0.0
C247 C 0.68447 0.70987 0.59787 0.0
O248 O 0.6481 0.79404 0.62132 0.0
C249 C 0.70002 0.81679 0.55841 0.0
O250 O 0.6527 0.82791 0.5908 0.0
O251 O 0.68674 0.80777 0.55422 0.0
C252 C 0.49416 0.8963 0.60012 0.0
O253 O 0.49428 0.86342 0.58631 0.0
Cd254 Cd 0.50375 0.7861 0.59631 0.0
O255 O 0.49781 0.8866 0.61876 0.0
Cd256 Cd 0.50517 0.81884 0.64128 0.0
C257 C 0.53711 0.82312 0.61621 0.0
O258 O 0.49115 0.75254 0.62594 0.0
O259 O 0.51096 0.73509 0.64276 0.0
O260 O 0.48495 0.84122 0.664 0.0
C261 C 0.49847 0.72206 0.63645 0.0
O262 O 0.52944 0.8045 0.60177 0.0
C263 C 0.49089 0.82789 0.68084 0.0
O264 O 0.53134 0.83449 0.63363 0.0
O265 O 0.50431 0.81656 0.67983 0.0
C266 C 0.69615 0.22456 0.65684 0.0
O267 O 0.69376 0.23919 0.63843 0.0
Cd268 Cd 0.68927 0.31806 0.62496 0.0
O269 O 0.69636 0.25426 0.67213 0.0
Cd270 Cd 0.69342 0.34452 0.6746 0.0
C271 C 0.65861 0.34528 0.65316 0.0
O272 O 0.70734 0.36231 0.64288 0.0
O273 O 0.69684 0.42223 0.65847 0.0
O274 O 0.7129 0.35484 0.70065 0.0
C275 C 0.70542 0.40762 0.64442 0.0
O276 O 0.66448 0.33812 0.63549 0.0
C277 C 0.70558 0.3832 0.71227 0.0
O278 O 0.66639 0.34665 0.66965 0.0
O279 O 0.69222 0.38869 0.70766 0.0
C280 C 0.4543 0.66406 0.38522 0.0
O281 O 0.45384 0.63162 0.3712 0.0
Cd282 Cd 0.44807 0.54888 0.37631 0.0
O283 O 0.45166 0.6534 0.40421 0.0
Cd284 Cd 0.44525 0.57622 0.42317 0.0
C285 C 0.41354 0.56287 0.39509 0.0
O286 O 0.463 0.52729 0.40532 0.0
O287 O 0.44691 0.48734 0.42282 0.0
O288 O 0.46261 0.59192 0.45148 0.0
C289 C 0.45935 0.48826 0.41426 0.0
O290 O 0.4217 0.54909 0.38023 0.0
C291 C 0.45402 0.58012 0.46608 0.0
O292 O 0.41909 0.5761 0.41241 0.0
O293 O 0.4408 0.57302 0.46103 0.0
C294 C 0.29807 0.0209 0.37828 0.0
O295 O 0.30179 0.03867 0.36086 0.0
Cd296 Cd 0.30616 0.12109 0.35232 0.0
O297 O 0.29698 0.04794 0.39439 0.0
Cd298 Cd 0.30112 0.13705 0.40082 0.0
C299 C 0.33633 0.14328 0.38134 0.0
O300 O 0.28682 0.16067 0.37043 0.0
O301 O 0.29724 0.21848 0.38759 0.0
O302 O 0.28123 0.141 0.42667 0.0
C303 C 0.28813 0.20567 0.37389 0.0
O304 O 0.33082 0.13915 0.36332 0.0
C305 C 0.28831 0.16628 0.43974 0.0
O306 O 0.32824 0.14149 0.3975 0.0
O307 O 0.30172 0.17293 0.43579 0.0
C308 C 0.47341 0.01335 0.37009 0.0
O309 O 0.47395 0.03152 0.38824 0.0
Cd310 Cd 0.47475 0.11492 0.39808 0.0
O311 O 0.47377 0.04044 0.35397 0.0
Cd312 Cd 0.47564 0.12924 0.34638 0.0
C313 C 0.44325 0.14922 0.3717 0.0
O314 O 0.49164 0.14982 0.37534 0.0
O315 O 0.48128 0.209 0.35929 0.0
O316 O 0.49547 0.11486 0.32237 0.0
C317 C 0.49032 0.19519 0.37291 0.0
O318 O 0.45081 0.1434 0.3881 0.0
C319 C 0.49146 0.14479 0.30851 0.0
O320 O 0.44889 0.143 0.35365 0.0
O321 O 0.47883 0.16327 0.31073 0.0
C322 C 0.27479 0.67982 0.34933 0.0
O323 O 0.27015 0.64726 0.36165 0.0
Cd324 Cd 0.27403 0.56239 0.35682 0.0
O325 O 0.28037 0.66837 0.33177 0.0
Cd326 Cd 0.28516 0.59466 0.30993 0.0
C327 C 0.31142 0.57276 0.34628 0.0
O328 O 0.26568 0.54378 0.32319 0.0
O329 O 0.28272 0.50774 0.30596 0.0
O330 O 0.27048 0.6301 0.28232 0.0
C331 C 0.27042 0.50521 0.31481 0.0
O332 O 0.30046 0.56177 0.35749 0.0
C333 C 0.27795 0.61274 0.26743 0.0
O334 O 0.3097 0.58717 0.3275 0.0
O335 O 0.29013 0.59357 0.27222 0.0
C336 C 0.53597 0.75793 0.11202 0.0
O337 O 0.53279 0.77407 0.12998 0.0
Cd338 Cd 0.53143 0.85594 0.1421 0.0
O339 O 0.53877 0.78693 0.09703 0.0
Cd340 Cd 0.54025 0.87722 0.09327 0.0
C341 C 0.56698 0.88625 0.13077 0.0
O342 O 0.51922 0.89842 0.11543 0.0
O343 O 0.53329 0.95612 0.10492 0.0
O344 O 0.528 0.88471 0.05962 0.0
C345 C 0.52169 0.94359 0.11408 0.0
O346 O 0.55688 0.87968 0.14404 0.0
C347 C 0.53801 0.90978 0.05118 0.0
O348 O 0.56426 0.88482 0.11129 0.0
O349 O 0.54978 0.91443 0.06139 0.0
C350 C 0.73465 0.47203 0.12267 0.0
O351 O 0.73674 0.45517 0.1408 0.0
Cd352 Cd 0.73814 0.37212 0.15103 0.0
O353 O 0.73378 0.4438 0.10694 0.0
Cd354 Cd 0.73552 0.35484 0.09981 0.0
C355 C 0.70491 0.33671 0.12937 0.0
O356 O 0.75348 0.3349 0.12662 0.0
O357 O 0.74201 0.27573 0.11209 0.0
O358 O 0.75324 0.36943 0.07237 0.0
C359 C 0.75186 0.2895 0.12451 0.0
O360 O 0.71356 0.3442 0.14451 0.0
C361 C 0.7482 0.33833 0.05966 0.0
O362 O 0.70936 0.34075 0.11056 0.0
O363 O 0.73607 0.31889 0.06445 0.0
C364 C 0.55725 0.41052 0.12683 0.0
O365 O 0.56019 0.37938 0.11288 0.0
Cd366 Cd 0.56658 0.29708 0.11883 0.0
O367 O 0.55769 0.39886 0.14605 0.0
Cd368 Cd 0.56355 0.3212 0.16489 0.0
C369 C 0.59826 0.31082 0.14514 0.0
O370 O 0.54863 0.26855 0.1432 0.0
O371 O 0.56307 0.23309 0.16495 0.0
O372 O 0.54393 0.33151 0.19077 0.0
C373 C 0.55174 0.23117 0.15377 0.0
O374 O 0.59227 0.29745 0.12827 0.0
C375 C 0.5517 0.31865 0.20612 0.0
O376 O 0.59047 0.3232 0.16071 0.0
O377 O 0.5653 0.31484 0.20275 0.0
C378 C 0.71222 0.81926 0.13712 0.0
O379 O 0.70968 0.85029 0.123 0.0
Cd380 Cd 0.70406 0.933 0.12888 0.0
O381 O 0.71182 0.83153 0.15628 0.0
Cd382 Cd 0.70693 0.91012 0.17501 0.0
C383 C 0.67241 0.91969 0.15595 0.0
O384 O 0.7224 0.95864 0.15296 0.0
O385 O 0.70778 -0.00108 0.17283 0.0
O386 O 0.72684 0.89562 0.19983 0.0
C387 C 0.71947 -0.00214 0.16234 0.0
O388 O 0.67855 0.93351 0.13925 0.0
C389 C 0.72006 0.91288 0.21537 0.0
O390 O 0.68006 0.90679 0.17153 0.0
O391 O 0.70657 0.92139 0.21279 0.0
C392 C 0.48486 0.19721 0.85916 0.0
O393 O 0.483 0.16634 0.84469 0.0
Cd394 Cd 0.47881 0.08118 0.84816 0.0
O395 O 0.48568 0.18379 0.87814 0.0
Cd396 Cd 0.48448 0.10557 0.89738 0.0
C397 C 0.44906 0.09573 0.87998 0.0
O398 O 0.49691 0.05466 0.87186 0.0
O399 O 0.4851 0.01873 0.8964 0.0
O400 O 0.50488 0.12087 0.92109 0.0
C401 C 0.49397 0.0157 0.88142 0.0
O402 O 0.45411 0.0813 0.86258 0.0
C403 C 0.49827 0.10498 0.93709 0.0
O404 O 0.45761 0.10832 0.8947 0.0
O405 O 0.48475 0.09617 0.93508 0.0
C406 C 0.26626 0.52984 0.90467 0.0
O407 O 0.26605 0.56058 0.88994 0.0
Cd408 Cd 0.27138 0.64508 0.89122 0.0
O409 O 0.26826 0.54327 0.9235 0.0
Cd410 Cd 0.27138 0.62169 0.94305 0.0
C411 C 0.30435 0.63233 0.9174 0.0
O412 O 0.25791 0.67298 0.91974 0.0
O413 O 0.27083 0.71005 0.9426 0.0
O414 O 0.25136 0.60448 0.96666 0.0
C415 C 0.26208 0.71295 0.92744 0.0
O416 O 0.29695 0.64322 0.90131 0.0
C417 C 0.25789 0.61749 0.98315 0.0
O418 O 0.29805 0.62135 0.93457 0.0
O419 O 0.27144 0.62676 0.98147 0.0
C420 C 0.44883 0.5297 0.85645 0.0
O421 O 0.45032 0.54659 0.87469 0.0
Cd422 Cd 0.445 0.62657 0.88551 0.0
O423 O 0.4435 0.55582 0.84191 0.0
Cd424 Cd 0.43459 0.6416 0.8386 0.0
C425 C 0.40806 0.63128 0.87594 0.0
O426 O 0.45545 0.6712 0.85792 0.0
O427 O 0.43908 0.72453 0.85013 0.0
O428 O 0.4477 0.64123 0.8055 0.0
C429 C 0.45191 0.71535 0.8562 0.0
O430 O 0.41887 0.63085 0.88828 0.0
C431 C 0.43901 0.66898 0.79586 0.0
O432 O 0.41011 0.63294 0.85628 0.0
O433 O 0.42712 0.67904 0.80511 0.0
C434 C 0.29707 0.19529 0.88112 0.0
O435 O 0.29962 0.17468 0.89837 0.0
Cd436 Cd 0.30978 0.09555 0.90108 0.0
O437 O 0.29979 0.1736 0.86399 0.0
Cd438 Cd 0.30879 0.09289 0.85138 0.0
C439 C 0.34196 0.1098 0.87337 0.0
O440 O 0.29559 0.04798 0.87795 0.0
O441 O 0.31041 0.00686 0.85846 0.0
O442 O 0.28773 0.10294 0.82935 0.0
C443 C 0.30016 0.00712 0.87163 0.0
O444 O 0.33469 0.10482 0.89005 0.0
C445 C 0.29223 0.07778 0.81414 0.0
O446 O 0.33563 0.10848 0.85567 0.0
O447 O 0.30553 0.06481 0.81469 0.0
H448 H 0.02359 0.6945 0.13935 0.0
H449 H 0.06855 0.74204 0.14173 0.0
H450 H 0.07559 0.67557 0.11775 0.0
H451 H 0.03163 0.56976 0.14192 0.0
H452 H 0.01707 0.55082 0.12497 0.0
H453 H 0.01529 0.60587 0.1399 0.0
H454 H 0.01037 0.65432 0.10607 0.0
H455 H 0.01221 0.59933 0.09102 0.0
H456 H 0.02334 0.65149 0.08505 0.0
H457 H 0.07785 0.60275 0.09508 0.0
H458 H 0.07585 0.52223 0.07833 0.0
H459 H 0.02966 0.51881 0.09273 0.0
C460 C 0.03485 0.69102 0.1345 0.0
C461 C 0.04558 0.72287 0.14205 0.0
C462 C 0.06027 0.71743 0.13593 0.0
C463 C 0.06431 0.68024 0.12225 0.0
C464 C 0.0535 0.64888 0.11512 0.0
C465 C 0.0391 0.65346 0.12121 0.0
C466 C 0.02995 0.61192 0.11308 0.0
C467 C 0.02309 0.58288 0.13104 0.0
C468 C 0.01828 0.63039 0.0979 0.0
C469 C 0.04152 0.58275 0.10191 0.0
C470 C 0.05494 0.60535 0.10283 0.0
C471 C 0.06739 0.58473 0.09413 0.0
C472 C 0.06614 0.53912 0.08464 0.0
C473 C 0.05261 0.5145 0.08437 0.0
C474 C 0.04012 0.53699 0.09277 0.0
H475 H 0.20724 0.66414 0.13919 0.0
H476 H 0.24666 0.66583 0.17626 0.0
H477 H 0.25611 0.59541 0.15586 0.0
H478 H 0.20355 0.53764 0.13445 0.0
H479 H 0.19661 0.54157 0.10832 0.0
H480 H 0.19387 0.59117 0.12607 0.0
H481 H 0.20609 0.64899 0.09945 0.0
H482 H 0.20938 0.59913 0.08188 0.0
H483 H 0.22436 0.63626 0.09054 0.0
H484 H 0.25931 0.51796 0.13317 0.0
H485 H 0.25563 0.44353 0.11214 0.0
H486 H 0.21575 0.50437 0.0873 0.0
C487 C 0.21782 0.64961 0.14329 0.0
C488 C 0.22611 0.66968 0.15958 0.0
C489 C 0.24009 0.65042 0.16394 0.0
C490 C 0.24556 0.6109 0.15231 0.0
C491 C 0.23705 0.5924 0.13611 0.0
C492 C 0.22352 0.61165 0.13163 0.0
C493 C 0.21618 0.58563 0.11394 0.0
C494 C 0.20171 0.56262 0.12113 0.0
C495 C 0.21387 0.61957 0.09533 0.0
C496 C 0.2275 0.5477 0.10921 0.0
C497 C 0.23948 0.55153 0.12216 0.0
C498 C 0.2502 0.51555 0.12255 0.0
C499 C 0.2481 0.47356 0.11035 0.0
C500 C 0.23539 0.46832 0.09802 0.0
C501 C 0.22567 0.50762 0.09632 0.0
H502 H 0.9741 0.29137 0.7949 0.0
H503 H 0.00039 0.22701 0.84346 0.0
H504 H 0.00746 0.30853 0.85544 0.0
H505 H 0.9973 0.41413 0.79061 0.0
H506 H 0.98057 0.44681 0.78618 0.0
H507 H 0.98291 0.38643 0.77567 0.0
H508 H 0.95911 0.35946 0.79386 0.0
H509 H 0.95679 0.4189 0.80453 0.0
H510 H 0.95738 0.36699 0.82162 0.0
H511 H 0.00361 0.38772 0.87013 0.0
H512 H 0.99042 0.45797 0.88469 0.0
H513 H 0.96732 0.47643 0.82679 0.0
C514 C 0.98188 0.29474 0.80745 0.0
C515 C 0.98654 0.25342 0.8185 0.0
C516 C 0.99666 0.25846 0.83485 0.0
C517 C 0.00084 0.30471 0.84163 0.0
C518 C 0.99501 0.34526 0.83161 0.0
C519 C 0.98605 0.34076 0.81439 0.0
C520 C 0.97873 0.38853 0.80913 0.0
C521 C 0.98528 0.41027 0.78922 0.0
C522 C 0.96203 0.38307 0.80723 0.0
C523 C 0.98307 0.41816 0.82793 0.0
C524 C 0.99308 0.39344 0.84015 0.0
C525 C 0.99634 0.40848 0.86033 0.0
C526 C 0.98873 0.44803 0.86856 0.0
C527 C 0.97815 0.47213 0.85653 0.0
C528 C 0.97579 0.45887 0.83577 0.0
H529 H 0.76177 0.43606 0.90089 0.0
H530 H 0.74804 0.41019 0.83776 0.0
H531 H 0.74258 0.32498 0.84623 0.0
H532 H 0.78343 0.35306 0.90315 0.0
H533 H 0.78129 0.33069 0.92932 0.0
H534 H 0.77595 0.39136 0.92332 0.0
H535 H 0.74992 0.37452 0.9369 0.0
H536 H 0.75531 0.31324 0.94333 0.0
H537 H 0.73971 0.32362 0.92693 0.0
H538 H 0.74784 0.24254 0.85601 0.0
H539 H 0.76405 0.17416 0.86515 0.0
H540 H 0.77724 0.24983 0.92093 0.0
C541 C 0.75661 0.41282 0.88947 0.0
C542 C 0.75502 0.42895 0.86893 0.0
C543 C 0.74901 0.39807 0.85371 0.0
C544 C 0.74582 0.34967 0.85848 0.0
C545 C 0.74903 0.33272 0.8784 0.0
C546 C 0.75409 0.36376 0.89389 0.0
C547 C 0.76081 0.33546 0.91164 0.0
C548 C 0.77628 0.35369 0.9171 0.0
C549 C 0.75084 0.33678 0.93083 0.0
C550 C 0.76099 0.28518 0.90214 0.0
C551 C 0.75313 0.2835 0.88378 0.0
C552 C 0.75362 0.24295 0.87066 0.0
C553 C 0.76291 0.20444 0.87581 0.0
C554 C 0.77184 0.20784 0.89354 0.0
C555 C 0.77036 0.24721 0.90731 0.0
H556 H 0.03707 0.05023 0.60022 0.0
H557 H 0.02053 0.06199 0.66297 0.0
H558 H 0.00393 0.12854 0.65171 0.0
H559 H 0.04081 0.16515 0.58916 0.0
H560 H 0.03496 0.16211 0.56242 0.0
H561 H 0.04205 0.10902 0.57471 0.0
H562 H 0.01855 0.06405 0.56491 0.0
H563 H 0.01058 0.11782 0.5536 0.0
H564 H 0.00109 0.08538 0.57379 0.0
H565 H 0.99345 0.20297 0.63515 0.0
H566 H 0.99431 0.28348 0.61837 0.0
H567 H 0.01709 0.22133 0.56598 0.0
C568 C 0.02975 0.06634 0.6115 0.0
C569 C 0.03021 0.05229 0.63252 0.0
C570 C 0.02036 0.07311 0.64685 0.0
C571 C 0.01078 0.11018 0.64047 0.0
C572 C 0.01086 0.12423 0.61956 0.0
C573 C 0.02005 0.10239 0.60529 0.0
C574 C 0.01981 0.12816 0.5846 0.0
C575 C 0.03531 0.14199 0.57736 0.0
C576 C 0.01202 0.09701 0.56824 0.0
C577 C 0.01069 0.17192 0.5902 0.0
C578 C 0.00481 0.16755 0.60997 0.0
C579 C 0.99778 0.20649 0.6196 0.0
C580 C 0.99818 0.25208 0.60983 0.0
C581 C 0.006 0.25815 0.59106 0.0
C582 C 0.01092 0.21695 0.5802 0.0
H583 H 0.23394 0.01554 0.62086 0.0
H584 H 0.24059 0.06537 0.68393 0.0
H585 H 0.24061 0.15062 0.67177 0.0
H586 H 0.25278 0.12111 0.59241 0.0
H587 H 0.23876 0.12083 0.57283 0.0
H588 H 0.24418 0.06472 0.58508 0.0
H589 H 0.21731 0.04893 0.59537 0.0
H590 H 0.21183 0.10525 0.58368 0.0
H591 H 0.2077 0.09372 0.61062 0.0
H592 H 0.23514 0.2283 0.65446 0.0
H593 H 0.22401 0.29353 0.63348 0.0
H594 H 0.21851 0.19246 0.58226 0.0
C595 C 0.23622 0.0445 0.6318 0.0
C596 C 0.23769 0.03464 0.65312 0.0
C597 C 0.23979 0.07288 0.66744 0.0
C598 C 0.23985 0.12118 0.66066 0.0
C599 C 0.23757 0.13015 0.6396 0.0
C600 C 0.23583 0.09284 0.62533 0.0
C601 C 0.23063 0.11178 0.60457 0.0
C602 C 0.24229 0.10417 0.58773 0.0
C603 C 0.216 0.08855 0.59822 0.0
C604 C 0.22887 0.16502 0.60978 0.0
C605 C 0.2334 0.17513 0.6298 0.0
C606 C 0.23183 0.22111 0.63863 0.0
C607 C 0.22542 0.2577 0.62667 0.0
C608 C 0.22036 0.24758 0.60635 0.0
C609 C 0.22227 0.2009 0.59775 0.0
H610 H 0.99478 0.94372 0.36895 0.0
H611 H 0.00682 0.91371 0.43243 0.0
H612 H 0.01005 0.82709 0.4239 0.0
H613 H 0.97105 0.86566 0.36614 0.0
H614 H 0.97296 0.84358 0.33987 0.0
H615 H 0.97944 0.90285 0.34637 0.0
H616 H 0.00527 0.88099 0.33325 0.0
H617 H 0.99872 0.82141 0.32612 0.0
H618 H 0.01431 0.82741 0.34293 0.0
H619 H 0.00339 0.74578 0.41317 0.0
H620 H 0.98698 0.67954 0.40195 0.0
H621 H 0.9762 0.7606 0.34649 0.0
C622 C 0.99914 0.91904 0.38048 0.0
C623 C 0.00093 0.93463 0.40108 0.0
C624 C 0.00579 0.90196 0.41642 0.0
C625 C 0.00768 0.85276 0.41163 0.0
C626 C 0.00436 0.837 0.39156 0.0
C627 C 0.00037 0.86947 0.37603 0.0
C628 C 0.99334 0.84338 0.35789 0.0
C629 C 0.97831 0.86513 0.35231 0.0
C630 C 0.00352 0.84328 0.33893 0.0
C631 C 0.99203 0.79294 0.36695 0.0
C632 C 0.99934 0.78905 0.38568 0.0
C633 C 0.99802 0.74789 0.39824 0.0
C634 C 0.98859 0.71068 0.39191 0.0
C635 C 0.98032 0.71601 0.3736 0.0
C636 C 0.98248 0.75642 0.36062 0.0
H637 H 0.77002 0.81197 0.43357 0.0
H638 H 0.75472 0.74902 0.37593 0.0
H639 H 0.7513 0.83093 0.36146 0.0
H640 H 0.74827 0.93818 0.42723 0.0
H641 H 0.76358 0.96883 0.43889 0.0
H642 H 0.75823 0.90937 0.44795 0.0
H643 H 0.78447 0.87859 0.44154 0.0
H644 H 0.78981 0.93697 0.43216 0.0
H645 H 0.79233 0.8841 0.41592 0.0
H646 H 0.75941 0.90848 0.34902 0.0
H647 H 0.77594 0.9764 0.34093 0.0
H648 H 0.78537 -0.00508 0.40624 0.0
C649 C 0.76526 0.81591 0.41828 0.0
C650 C 0.76284 0.77486 0.40568 0.0
C651 C 0.75665 0.78035 0.38577 0.0
C652 C 0.75457 0.82683 0.37751 0.0
C653 C 0.75846 0.86704 0.38957 0.0
C654 C 0.76321 0.86215 0.40991 0.0
C655 C 0.76962 0.90917 0.41808 0.0
C656 C 0.7593 0.93279 0.43397 0.0
C657 C 0.78496 0.90169 0.42741 0.0
C658 C 0.77005 0.93834 0.39821 0.0
C659 C 0.76288 0.91437 0.38219 0.0
C660 C 0.76445 0.92868 0.36153 0.0
C661 C 0.77399 0.96676 0.35702 0.0
C662 C 0.78168 -0.0098 0.37313 0.0
C663 C 0.77918 0.97774 0.39394 0.0
H664 H 0.50857 0.66665 0.66765 0.0
H665 H 0.47447 0.67381 0.62134 0.0
H666 H 0.46643 0.59125 0.63119 0.0
H667 H 0.52122 0.56412 0.65582 0.0
H668 H 0.52541 0.54118 0.6814 0.0
H669 H 0.52424 0.60511 0.67732 0.0
H670 H 0.50506 0.61059 0.70649 0.0
H671 H 0.50564 0.54567 0.71028 0.0
H672 H 0.48853 0.57536 0.70502 0.0
H673 H 0.46703 0.5043 0.63756 0.0
H674 H 0.4785 0.42381 0.63491 0.0
H675 H 0.51277 0.47002 0.67634 0.0
C676 C 0.49914 0.65125 0.66001 0.0
C677 C 0.49227 0.67579 0.64354 0.0
C678 C 0.47991 0.65517 0.63395 0.0
C679 C 0.47515 0.60865 0.63972 0.0
C680 C 0.48272 0.58391 0.65532 0.0
C681 C 0.49442 0.60495 0.6655 0.0
C682 C 0.50294 0.56808 0.67792 0.0
C683 C 0.51939 0.5697 0.67274 0.0
C684 C 0.50036 0.57535 0.70131 0.0
C685 C 0.49571 0.52196 0.67042 0.0
C686 C 0.48333 0.53193 0.65877 0.0
C687 C 0.47637 0.4959 0.64715 0.0
C688 C 0.48294 0.45011 0.64575 0.0
C689 C 0.49647 0.44171 0.65548 0.0
C690 C 0.50227 0.47628 0.66919 0.0
H691 H 0.70532 0.67413 0.62332 0.0
H692 H 0.67896 0.63721 0.56974 0.0
H693 H 0.6894 0.55457 0.56967 0.0
H694 H 0.73736 0.58645 0.61082 0.0
H695 H 0.73935 0.57357 0.63813 0.0
H696 H 0.73387 0.63342 0.62975 0.0
H697 H 0.71087 0.62839 0.65312 0.0
H698 H 0.71645 0.56954 0.6617 0.0
H699 H 0.69868 0.57738 0.65022 0.0
H700 H 0.69743 0.47354 0.58032 0.0
H701 H 0.69919 0.40206 0.60331 0.0
H702 H 0.72012 0.49001 0.65022 0.0
C703 C 0.70208 0.64902 0.61121 0.0
C704 C 0.6913 0.66167 0.59667 0.0
C705 C 0.68718 0.62797 0.58114 0.0
C706 C 0.69324 0.58124 0.58076 0.0
C707 C 0.70353 0.56916 0.59583 0.0
C708 C 0.70796 0.60233 0.61076 0.0
C709 C 0.71672 0.57832 0.62771 0.0
C710 C 0.73278 0.59386 0.62652 0.0
C711 C 0.71027 0.58898 0.64943 0.0
C712 C 0.71496 0.5257 0.62144 0.0
C713 C 0.70813 0.52123 0.60231 0.0
C714 C 0.70321 0.47638 0.59492 0.0
C715 C 0.70428 0.43589 0.608 0.0
C716 C 0.70992 0.44133 0.62824 0.0
C717 C 0.71614 0.48556 0.6345 0.0
H718 H 0.45346 0.39652 0.42799 0.0
H719 H 0.48771 0.48623 0.40192 0.0
H720 H 0.50383 0.41506 0.40002 0.0
H721 H 0.47936 0.30319 0.4551 0.0
H722 H 0.46704 0.25451 0.44852 0.0
H723 H 0.46 0.31409 0.45467 0.0
H724 H 0.44628 0.3163 0.41945 0.0
H725 H 0.45302 0.25689 0.41359 0.0
H726 H 0.45634 0.30619 0.39574 0.0
H727 H 0.51308 0.33574 0.39113 0.0
H728 H 0.51336 0.25622 0.3735 0.0
H729 H 0.47442 0.21406 0.40649 0.0
C730 C 0.46453 0.40125 0.42254 0.0
C731 C 0.46933 0.44652 0.41498 0.0
C732 C 0.48378 0.45162 0.40766 0.0
C733 C 0.49311 0.41151 0.40685 0.0
C734 C 0.4879 0.36666 0.41363 0.0
C735 C 0.47394 0.36134 0.42151 0.0
C736 C 0.46994 0.30829 0.42385 0.0
C737 C 0.46904 0.2942 0.44691 0.0
C738 C 0.45557 0.29627 0.41245 0.0
C739 C 0.48304 0.28489 0.41359 0.0
C740 C 0.49364 0.31904 0.4088 0.0
C741 C 0.50524 0.30821 0.39553 0.0
C742 C 0.5054 0.26291 0.38562 0.0
C743 C 0.49412 0.22933 0.38928 0.0
C744 C 0.48346 0.23892 0.4044 0.0
H745 H 0.26492 0.47198 0.35319 0.0
H746 H 0.26459 0.43123 0.28831 0.0
H747 H 0.26216 0.34483 0.29806 0.0
H748 H 0.28921 0.39478 0.36612 0.0
H749 H 0.28286 0.3783 0.39168 0.0
H750 H 0.27788 0.43589 0.38088 0.0
H751 H 0.25051 0.41609 0.38563 0.0
H752 H 0.25539 0.35841 0.39699 0.0
H753 H 0.24318 0.36047 0.37509 0.0
H754 H 0.26645 0.26505 0.31387 0.0
H755 H 0.27824 0.19949 0.33404 0.0
H756 H 0.27879 0.29244 0.38844 0.0
C757 C 0.26337 0.44487 0.34117 0.0
C758 C 0.26452 0.45759 0.32011 0.0
C759 C 0.26336 0.42164 0.30455 0.0
C760 C 0.26193 0.37263 0.30997 0.0
C761 C 0.26193 0.36048 0.33101 0.0
C762 C 0.26254 0.39574 0.34644 0.0
C763 C 0.26612 0.37372 0.36735 0.0
C764 C 0.27983 0.39704 0.37703 0.0
C765 C 0.25301 0.37738 0.38213 0.0
C766 C 0.26881 0.32167 0.36092 0.0
C767 C 0.2656 0.31414 0.34017 0.0
C768 C 0.26865 0.27013 0.33025 0.0
C769 C 0.27543 0.2333 0.34173 0.0
C770 C 0.27947 0.2416 0.3626 0.0
C771 C 0.27578 0.28564 0.37242 0.0
H772 H 0.53152 0.20467 0.12524 0.0
H773 H 0.54954 0.1645 0.18495 0.0
H774 H 0.53372 0.09221 0.18586 0.0
H775 H 0.49338 0.14271 0.13328 0.0
H776 H 0.49341 0.12407 0.10642 0.0
H777 H 0.50149 0.18134 0.11384 0.0
H778 H 0.52584 0.15611 0.09639 0.0
H779 H 0.51766 0.10017 0.08857 0.0
H780 H 0.53421 0.09927 0.10367 0.0
H781 H 0.52179 0.01671 0.17679 0.0
H782 H 0.51994 0.9419 0.15604 0.0
H783 H 0.5096 0.02665 0.10164 0.0
C784 C 0.53172 0.1813 0.13877 0.0
C785 C 0.54171 0.18969 0.15493 0.0
C786 C 0.542 0.15826 0.17228 0.0
C787 C 0.53283 0.11767 0.17311 0.0
C788 C 0.52341 0.10907 0.15651 0.0
C789 C 0.52283 0.1401 0.13957 0.0
C790 C 0.51458 0.11746 0.1217 0.0
C791 C 0.49984 0.14291 0.11864 0.0
C792 C 0.52363 0.11822 0.10144 0.0
C793 C 0.51246 0.06654 0.13013 0.0
C794 C 0.51659 0.0635 0.15082 0.0
C795 C 0.5181 0.01876 0.16085 0.0
C796 C 0.51691 0.97622 0.149 0.0
C797 C 0.51457 0.97933 0.12741 0.0
C798 C 0.51101 0.02421 0.11831 0.0
H799 H 0.71521 0.08892 0.17813 0.0
H800 H 0.74706 -0.00164 0.14678 0.0
H801 H 0.76401 0.06743 0.14525 0.0
H802 H 0.71816 0.18397 0.14795 0.0
H803 H 0.71613 0.23053 0.16752 0.0
H804 H 0.70882 0.17125 0.17201 0.0
H805 H 0.72377 0.16601 0.20615 0.0
H806 H 0.73145 0.22529 0.20123 0.0
H807 H 0.74326 0.17385 0.20542 0.0
H808 H 0.77415 0.14646 0.13815 0.0
H809 H 0.77471 0.22792 0.12243 0.0
H810 H 0.73777 0.27093 0.15966 0.0
C811 C 0.72593 0.08348 0.1715 0.0
C812 C 0.72982 0.03863 0.16248 0.0
C813 C 0.74383 0.03267 0.15366 0.0
C814 C 0.75364 0.0715 0.15306 0.0
C815 C 0.74936 0.11594 0.16153 0.0
C816 C 0.73581 0.12212 0.17066 0.0
C817 C 0.73269 0.17522 0.17486 0.0
C818 C 0.71812 0.19112 0.16496 0.0
C819 C 0.73281 0.18569 0.19832 0.0
C820 C 0.74574 0.19821 0.16431 0.0
C821 C 0.75564 0.1633 0.15772 0.0
C822 C 0.76688 0.17441 0.14389 0.0
C823 C 0.76723 0.22088 0.13511 0.0
C824 C 0.75649 0.25529 0.14039 0.0
C825 C 0.74643 0.2453 0.1563 0.0
H826 H 0.45193 0.80345 0.8373 0.0
H827 H 0.47663 0.7125 0.87949 0.0
H828 H 0.49503 0.77747 0.88315 0.0
H829 H 0.48493 0.8656 0.8131 0.0
H830 H 0.47513 0.92221 0.81109 0.0
H831 H 0.46556 0.86521 0.80854 0.0
H832 H 0.44788 0.89035 0.8382 0.0
H833 H 0.45717 0.9474 0.84039 0.0
H834 H 0.45528 0.90894 0.86291 0.0
H835 H 0.50698 0.85614 0.88852 0.0
H836 H 0.51087 0.94318 0.89609 0.0
H837 H 0.48036 -0.01808 0.84779 0.0
C838 C 0.46134 0.79713 0.84708 0.0
C839 C 0.46287 0.75361 0.85834 0.0
C840 C 0.47531 0.74599 0.87084 0.0
C841 C 0.48588 0.78234 0.87278 0.0
C842 C 0.48401 0.82526 0.8616 0.0
C843 C 0.47211 0.83259 0.84882 0.0
C844 C 0.4717 0.88382 0.84044 0.0
C845 C 0.4745 0.88421 0.81689 0.0
C846 C 0.45716 0.90908 0.84584 0.0
C847 C 0.4844 0.90558 0.85214 0.0
C848 C 0.49167 0.87079 0.86377 0.0
C849 C 0.50189 0.88346 0.87886 0.0
C850 C 0.50409 0.93284 0.88303 0.0
C851 C 0.49625 0.96839 0.87193 0.0
C852 C 0.48696 0.95488 0.8556 0.0
H853 H 0.26604 0.80425 0.94226 0.0
H854 H 0.25694 0.72336 0.88585 0.0
H855 H 0.26304 0.79556 0.86497 0.0
H856 H 0.25323 0.92832 0.92106 0.0
H857 H 0.26739 0.95867 0.93548 0.0
H858 H 0.25893 0.90474 0.94588 0.0
H859 H 0.28441 0.86529 0.94952 0.0
H860 H 0.29295 0.91808 0.93854 0.0
H861 H 0.29585 0.85925 0.92686 0.0
H862 H 0.27649 0.8662 0.85075 0.0
H863 H 0.2916 0.93889 0.84378 0.0
H864 H 0.29009 0.97722 0.90908 0.0
C865 C 0.26471 0.80254 0.92555 0.0
C866 C 0.26123 0.75839 0.9156 0.0
C867 C 0.25965 0.75695 0.89375 0.0
C868 C 0.26309 0.79777 0.88176 0.0
C869 C 0.26757 0.83985 0.89199 0.0
C870 C 0.26783 0.8432 0.91343 0.0
C871 C 0.27434 0.89091 0.92058 0.0
C872 C 0.26278 0.92254 0.93138 0.0
C873 C 0.28767 0.88284 0.93469 0.0
C874 C 0.2787 0.91215 0.89988 0.0
C875 C 0.27465 0.88225 0.88356 0.0
C876 C 0.27926 0.89084 0.86326 0.0
C877 C 0.288 0.93158 0.85951 0.0
C878 C 0.29184 0.96313 0.87596 0.0
C879 C 0.28703 0.95369 0.89629 0.0
H880 H 0.97045 0.48901 0.96363 0.0
H881 H 0.00281 0.56236 0.92567 0.0
H882 H 0.02234 0.51877 0.94401 0.0
H883 H 0.99188 0.49326 0.01144 0.0
H884 H 0.98557 0.43473 0.02026 0.0
H885 H 0.97411 0.47158 0.00393 0.0
H886 H 0.97206 0.39997 0.97788 0.0
H887 H 0.9838 0.36331 0.99392 0.0
H888 H 0.9884 0.37377 0.96706 0.0
H889 H 0.03844 0.46414 0.96501 0.0
H890 H 0.05031 0.41394 0.99186 0.0
H891 H 0.00793 0.37891 0.0178 0.0
C892 C 0.98165 0.49638 0.9594 0.0
C893 C 0.98504 0.52922 0.94317 0.0
C894 C -0.00013 0.53771 0.93811 0.0
C895 C 0.01108 0.51272 0.9483 0.0
C896 C 0.00738 0.47964 0.96378 0.0
C897 C 0.99307 0.47227 0.9697 0.0
C898 C 0.99219 0.4363 0.98754 0.0
C899 C 0.98555 0.46042 0.00694 0.0
C900 C 0.9836 0.39063 0.98121 0.0
C901 C 0.00822 0.42473 0.99066 0.0
C902 C 0.01675 0.44945 0.9765 0.0
C903 C 0.03188 0.44476 0.97626 0.0
C904 C 0.03853 0.41573 0.99147 0.0
C905 C 0.03009 0.39231 0.00694 0.0
C906 C 0.0147 0.39601 0.00612 0.0
H907 H 0.26825 0.65155 0.02079 0.0
H908 H 0.2284 0.61351 0.98834 0.0
H909 H 0.21395 0.64942 0.01675 0.0
H910 H 0.25326 0.62815 0.07403 0.0
H911 H 0.26356 0.67757 0.08512 0.0
H912 H 0.27066 0.6447 0.06308 0.0
H913 H 0.27317 0.72615 0.04307 0.0
H914 H 0.26571 0.759 0.06483 0.0
H915 H 0.25734 0.76412 0.0396 0.0
H916 H 0.20379 0.69731 0.04685 0.0
H917 H 0.19862 0.74293 0.07916 0.0
H918 H 0.24491 0.74797 0.09265 0.0
C919 C 0.25649 0.64959 0.01991 0.0
C920 C 0.2495 0.62963 0.00225 0.0
C921 C 0.23405 0.62831 1.00169 0.0
C922 C 0.22572 0.64893 0.01772 0.0
C923 C 0.23294 0.67018 0.03444 0.0
C924 C 0.24796 0.66953 0.03595 0.0
C925 C 0.25298 0.69521 0.05557 0.0
C926 C 0.26056 0.65926 0.07032 0.0
C927 C 0.26289 0.7387 0.05045 0.0
C928 C 0.23849 0.7119 0.06439 0.0
C929 C 0.22706 0.69706 0.05198 0.0
C930 C 0.21265 0.70873 0.05679 0.0
C931 C 0.20982 0.73492 0.07513 0.0
C932 C 0.22133 0.74904 0.08848 0.0
C933 C 0.23586 0.73791 0.08277 0.0
H934 H 0.02167 0.76692 0.24364 0.0
H935 H 0.98912 0.84637 0.20858 0.0
H936 H 0.96962 0.80563 0.22852 0.0
H937 H 0.00263 0.65509 0.24524 0.0
H938 H 0.00817 0.63955 0.27126 0.0
H939 H 0.01966 0.67748 0.25541 0.0
H940 H 0.01944 0.74457 0.28375 0.0
H941 H 0.00815 0.70654 0.29987 0.0
H942 H 0.00225 0.76713 0.29332 0.0
H943 H 0.95354 0.75467 0.25211 0.0
H944 H 0.94242 0.70023 0.27836 0.0
H945 H 0.9855 0.65112 0.2964 0.0
C946 C 0.01046 0.77651 0.24045 0.0
C947 C 0.00694 0.81023 0.22466 0.0
C948 C 0.99209 0.82093 0.22069 0.0
C949 C 0.98093 0.79781 0.23188 0.0
C950 C 0.98475 0.76374 0.24693 0.0
C951 C 0.99917 0.75334 0.25132 0.0
C952 C 0.00036 0.71437 0.26786 0.0
C953 C 0.00817 0.66894 0.25943 0.0
C954 C 0.008 0.73435 0.28735 0.0
C955 C 0.98438 0.70425 0.27199 0.0
C956 C 0.97553 0.73326 0.25988 0.0
C957 C 0.96038 0.73156 0.26158 0.0
C958 C 0.95414 0.70032 0.27643 0.0
C959 C 0.96304 0.67076 0.2892 0.0
C960 C 0.97835 0.67234 0.28657 0.0
H961 H 0.25721 0.43683 0.17507 0.0
H962 H 0.21555 0.511 0.17221 0.0
H963 H 0.22479 0.57365 0.19649 0.0
H964 H 0.26325 0.45369 0.2284 0.0
H965 H 0.28264 0.46234 0.22592 0.0
H966 H 0.27301 0.42656 0.20699 0.0
H967 H 0.2831 0.48193 0.17773 0.0
H968 H 0.29256 0.51851 0.19667 0.0
H969 H 0.27995 0.54659 0.17889 0.0
H970 H 0.23812 0.625 0.22306 0.0
H971 H 0.25325 0.65535 0.25202 0.0
H972 H 0.28634 0.54818 0.23716 0.0
C973 C 0.25004 0.46641 0.17943 0.0
C974 C 0.2356 0.46876 0.17183 0.0
C975 C 0.2266 0.5081 0.17797 0.0
C976 C 0.23179 0.54408 0.19164 0.0
C977 C 0.2461 0.54062 0.19884 0.0
C978 C 0.25506 0.50261 0.193 0.0
C979 C 0.26963 0.50525 0.20402 0.0
C980 C 0.27228 0.45925 0.21711 0.0
C981 C 0.28205 0.51357 0.18839 0.0
C982 C 0.26731 0.54969 0.2176 0.0
C983 C 0.25378 0.57021 0.21406 0.0
C984 C 0.24879 0.60953 0.22578 0.0
C985 C 0.25752 0.62673 0.24216 0.0
C986 C 0.27108 0.60456 0.24679 0.0
C987 C 0.27622 0.56677 0.23376 0.0
H988 H 0.77547 0.14183 0.97647 0.0
H989 H 0.81642 0.22057 0.97423 0.0
H990 H 0.80666 0.28053 0.99925 0.0
H991 H 0.75258 0.24518 0.97826 0.0
H992 H 0.73946 0.2192 0.99591 0.0
H993 H 0.74984 0.18027 0.97891 0.0
H994 H 0.75923 0.13086 0.01044 0.0
H995 H 0.7486 0.16884 0.0275 0.0
H996 H 0.7679 0.16224 0.03171 0.0
H997 H 0.79193 0.33481 0.02279 0.0
H998 H 0.7745 0.37372 0.04678 0.0
H999 H 0.74301 0.25984 0.03387 0.0
C1000 C 0.78253 0.17097 0.98162 0.0
C1001 C 0.79679 0.17616 0.97347 0.0
C1002 C 0.80554 0.21545 0.98037 0.0
C1003 C 0.80004 0.24997 0.99445 0.0
C1004 C 0.78576 0.24476 1.00155 0.0
C1005 C 0.7772 0.20583 0.99564 0.0
C1006 C 0.76216 0.20904 0.00538 0.0
C1007 C 0.75031 0.2137 0.98861 0.0
C1008 C 0.75931 0.16515 0.01961 0.0
C1009 C 0.76362 0.25575 0.01779 0.0
C1010 C 0.77727 0.276 0.01516 0.0
C1011 C 0.78123 0.31913 0.02503 0.0
C1012 C 0.77119 0.34116 0.03854 0.0
C1013 C 0.75733 0.32005 0.04222 0.0
C1014 C 0.75343 0.27728 0.03127 0.0
H1015 H 0.00053 0.12099 0.74695 0.0
H1016 H 0.95484 0.14047 0.73162 0.0
H1017 H 0.9618 0.18829 0.70091 0.0
H1018 H 0.01215 0.23568 0.73488 0.0
H1019 H 0.02929 0.21937 0.72309 0.0
H1020 H 0.02118 0.18005 0.7422 0.0
H1021 H 0.02201 0.10839 0.71639 0.0
H1022 H 0.03005 0.1468 0.69678 0.0
H1023 H 0.01343 0.11427 0.69137 0.0
H1024 H 0.97305 0.24757 0.67712 0.0
H1025 H 0.98825 0.30168 0.65598 0.0
H1026 H 0.02725 0.23941 0.68329 0.0
C1027 C 0.99201 0.13361 0.73667 0.0
C1028 C 0.9771 0.12683 0.74175 0.0
C1029 C 0.9663 0.14485 0.72807 0.0
C1030 C 0.97015 0.17235 0.71061 0.0
C1031 C 0.98486 0.18077 0.70674 0.0
C1032 C 0.99568 0.16078 0.71893 0.0
C1033 C 0.01065 0.17748 0.71164 0.0
C1034 C 0.01879 0.20476 0.72899 0.0
C1035 C 0.01958 0.13416 0.70356 0.0
C1036 C 0.00647 0.2116 0.69406 0.0
C1037 C 0.99151 0.21307 0.69174 0.0
C1038 C 0.9848 0.2456 0.6783 0.0
C1039 C 0.99357 0.27663 0.6665 0.0
C1040 C 0.00898 0.27437 0.6677 0.0
C1041 C 0.01552 0.2413 0.68172 0.0
H1042 H 0.734 0.37927 0.72621 0.0
H1043 H 0.69344 0.45846 0.73398 0.0
H1044 H 0.70593 0.51765 0.75662 0.0
H1045 H 0.74647 0.39566 0.77932 0.0
H1046 H 0.76532 0.40139 0.77189 0.0
H1047 H 0.75309 0.36572 0.75622 0.0
H1048 H 0.76014 0.41752 0.72412 0.0
H1049 H 0.77212 0.45414 0.73986 0.0
H1050 H 0.75783 0.48261 0.72502 0.0
H1051 H 0.72286 0.56961 0.77773 0.0
H1052 H 0.74204 0.603 0.80044 0.0
H1053 H 0.77164 0.48972 0.7797 0.0
C1054 C 0.72771 0.40872 0.73287 0.0
C1055 C 0.7127 0.41408 0.72829 0.0
C1056 C 0.7049 0.45328 0.73732 0.0
C1057 C 0.71193 0.48745 0.75005 0.0
C1058 C 0.72679 0.48191 0.75376 0.0
C1059 C 0.73454 0.44302 0.74579 0.0
C1060 C 0.75029 0.4445 0.75294 0.0
C1061 C 0.75401 0.39914 0.76587 0.0
C1062 C 0.76071 0.45002 0.73437 0.0
C1063 C 0.75015 0.49013 0.76625 0.0
C1064 C 0.73653 0.51152 0.76624 0.0
C1065 C 0.73357 0.55319 0.77785 0.0
C1066 C 0.7446 0.57216 0.7906 0.0
C1067 C 0.75841 0.5493 0.79182 0.0
C1068 C 0.76131 0.50867 0.77889 0.0
H1069 H 0.01102 0.06255 0.47455 0.0
H1070 H 0.96595 0.04711 0.49385 0.0
H1071 H 0.97411 0.01148 0.52709 0.0
H1072 H 0.02282 0.95026 0.49455 0.0
H1073 H 0.04051 0.97125 0.50275 0.0
H1074 H 0.03141 0.00042 0.48134 0.0
H1075 H 0.03355 0.08343 0.49976 0.0
H1076 H 0.04271 0.05515 0.52134 0.0
H1077 H 0.02652 0.09075 0.52569 0.0
H1078 H 0.98692 0.97172 0.55678 0.0
H1079 H 0.00359 0.93782 0.58292 0.0
H1080 H 0.04062 0.97771 0.5445 0.0
C1081 C 0.00287 0.05311 0.48603 0.0
C1082 C 0.98782 0.05822 0.48168 0.0
C1083 C 0.97752 0.04405 0.4969 0.0
C1084 C 0.98205 0.02349 0.51577 0.0
C1085 C 0.99693 0.01711 0.51917 0.0
C1086 C 0.00722 0.03206 0.50487 0.0
C1087 C 0.0225 0.01889 0.51197 0.0
C1088 C 0.02973 -0.01692 0.49674 0.0
C1089 C 0.03187 0.06477 0.51488 0.0
C1090 C 0.0192 -0.00554 0.53258 0.0
C1091 C 0.00436 -0.0065 0.53627 0.0
C1092 C 0.99856 0.97245 0.5541 0.0
C1093 C 0.00816 0.953 0.56882 0.0
C1094 C 0.02346 0.95491 0.5658 0.0
C1095 C 0.02901 0.9754 0.54724 0.0
H1096 H 0.25919 0.16411 0.45058 0.0
H1097 H 0.30045 0.23133 0.46677 0.0
H1098 H 0.2877 0.28664 0.49085 0.0
H1099 H 0.23788 0.27131 0.45099 0.0
H1100 H 0.22199 0.24399 0.46258 0.0
H1101 H 0.23426 0.20743 0.44728 0.0
H1102 H 0.23772 0.14798 0.47808 0.0
H1103 H 0.22521 0.18377 0.49332 0.0
H1104 H 0.24324 0.17142 0.50303 0.0
H1105 H 0.27045 0.33863 0.5112 0.0
H1106 H 0.25024 0.37631 0.53058 0.0
H1107 H 0.21995 0.27459 0.50231 0.0
C1108 C 0.26558 0.18978 0.45951 0.0
C1109 C 0.28087 0.19319 0.45677 0.0
C1110 C 0.28878 0.22769 0.46863 0.0
C1111 C 0.28161 0.25958 0.48227 0.0
C1112 C 0.26651 0.25639 0.48405 0.0
C1113 C 0.2586 0.22177 0.47335 0.0
C1114 C 0.24245 0.22608 0.47826 0.0
C1115 C 0.23363 0.23791 0.4586 0.0
C1116 C 0.23683 0.17955 0.4888 0.0
C1117 C 0.24254 0.26878 0.49325 0.0
C1118 C 0.25654 0.28591 0.49618 0.0
C1119 C 0.25945 0.32529 0.50915 0.0
C1120 C 0.24785 0.3467 0.52 0.0
C1121 C 0.23345 0.3286 0.518 0.0
C1122 C 0.23078 0.28962 0.50409 0.0
H1123 H 0.2626 0.89811 0.72525 0.0
H1124 H 0.21904 0.9388 0.7451 0.0
H1125 H 0.22954 -0.00819 0.77208 0.0
H1126 H 0.27899 0.89948 0.77848 0.0
H1127 H 0.29606 0.92305 0.76894 0.0
H1128 H 0.28504 0.88463 0.75257 0.0
H1129 H 0.28526 0.95156 0.72429 0.0
H1130 H 0.29589 -0.00923 0.7408 0.0
H1131 H 0.27871 0.01163 0.73059 0.0
H1132 H 0.2445 0.04867 0.79342 0.0
H1133 H 0.26298 0.09359 0.81327 0.0
H1134 H 0.29724 0.01396 0.78137 0.0
C1135 C 0.25525 0.91688 0.73572 0.0
C1136 C 0.23994 0.9141 0.73302 0.0
C1137 C 0.23076 0.9399 0.74689 0.0
C1138 C 0.23664 0.97055 0.76217 0.0
C1139 C 0.25174 0.9745 0.76365 0.0
C1140 C 0.26095 0.94733 0.75126 0.0
C1141 C 0.2768 0.95895 0.75601 0.0
C1142 C 0.28469 0.91385 0.76451 0.0
C1143 C 0.28462 0.97944 0.73678 0.0
C1144 C 0.27502 -0.00234 0.77268 0.0
C1145 C 0.26044 0.00631 0.77662 0.0
C1146 C 0.25594 0.04161 0.79074 0.0
C1147 C 0.26658 0.06732 0.80181 0.0
C1148 C 0.28162 0.05738 0.79899 0.0
C1149 C 0.28586 0.02263 0.78387 0.0
H1150 H 0.73793 0.64859 0.47287 0.0
H1151 H 0.77941 0.69007 0.49993 0.0
H1152 H 0.76659 0.74305 0.52494 0.0
H1153 H 0.7214 0.76314 0.47549 0.0
H1154 H 0.7035 0.7415 0.48238 0.0
H1155 H 0.71563 0.7032 0.46763 0.0
H1156 H 0.71349 0.63503 0.49525 0.0
H1157 H 0.70098 0.67251 0.50974 0.0
H1158 H 0.7171 0.64901 0.52214 0.0
H1159 H 0.74946 0.79691 0.54502 0.0
H1160 H 0.72895 0.83719 0.56288 0.0
H1161 H 0.69849 0.76078 0.52295 0.0
C1162 C 0.74431 0.66767 0.48443 0.0
C1163 C 0.75972 0.66488 0.48444 0.0
C1164 C 0.76762 0.69117 0.49967 0.0
C1165 C 0.76043 0.7218 0.51383 0.0
C1166 C 0.74531 0.72558 0.51269 0.0
C1167 C 0.7373 0.69838 0.49872 0.0
C1168 C 0.72115 0.70943 0.50066 0.0
C1169 C 0.71507 0.73057 0.48033 0.0
C1170 C 0.71268 0.66379 0.50735 0.0
C1171 C 0.72135 0.74746 0.51777 0.0
C1172 C 0.73542 0.75648 0.52435 0.0
C1173 C 0.73839 0.7899 0.54007 0.0
C1174 C 0.72666 0.81298 0.55 0.0
C1175 C 0.71208 0.8025 0.54426 0.0
C1176 C 0.70948 0.77029 0.52749 0.0
H1177 H 0.74949 0.9069 0.22397 0.0
H1178 H 0.70883 0.96678 0.24722 0.0
H1179 H 0.72249 0.01674 0.2723 0.0
H1180 H 0.76819 0.90417 0.27546 0.0
H1181 H 0.78556 0.91981 0.2642 0.0
H1182 H 0.77247 0.88569 0.24926 0.0
H1183 H 0.77394 0.95069 0.22024 0.0
H1184 H 0.78671 -0.01429 0.23532 0.0
H1185 H 0.77004 0.01335 0.22641 0.0
H1186 H 0.74039 0.06795 0.29142 0.0
H1187 H 0.76126 0.10577 0.30899 0.0
H1188 H 0.79075 0.01011 0.27547 0.0
C1189 C 0.74343 0.92937 0.23477 0.0
C1190 C 0.72803 0.93274 0.23359 0.0
C1191 C 0.72057 0.96317 0.24786 0.0
C1192 C 0.72826 -0.00791 0.26207 0.0
C1193 C 0.74342 -0.01029 0.26211 0.0
C1194 C 0.75094 0.95814 0.2493 0.0
C1195 C 0.76729 0.96307 0.25255 0.0
C1196 C 0.77376 0.91535 0.26087 0.0
C1197 C 0.77494 0.97916 0.23243 0.0
C1198 C 0.76775 0.00299 0.26889 0.0
C1199 C 0.75382 0.01812 0.27391 0.0
C1200 C 0.75133 0.05585 0.28789 0.0
C1201 C 0.76333 0.07746 0.29765 0.0
C1202 C 0.77772 0.06099 0.2937 0.0
C1203 C 0.77992 0.02366 0.27882 0.0
H1204 H 0.48251 0.56509 0.47779 0.0
H1205 H 0.43816 0.56063 0.50111 0.0
H1206 H 0.44692 0.52207 0.53337 0.0
H1207 H 0.49266 0.45093 0.49532 0.0
H1208 H 0.51107 0.46643 0.50244 0.0
H1209 H 0.5019 0.50028 0.48243 0.0
H1210 H 0.50651 0.5806 0.5024 0.0
H1211 H 0.51592 0.54711 0.52237 0.0
H1212 H 0.50079 0.58585 0.52911 0.0
H1213 H 0.4597 0.47475 0.56068 0.0
H1214 H 0.47593 0.42669 0.58299 0.0
H1215 H 0.51257 0.46158 0.54299 0.0
C1216 C 0.4747 0.5576 0.48999 0.0
C1217 C 0.45962 0.56653 0.48698 0.0
C1218 C 0.44974 0.55472 0.5031 0.0
C1219 C 0.45463 0.53264 0.52147 0.0
C1220 C 0.46945 0.52266 0.5236 0.0
C1221 C 0.47941 0.53529 0.50845 0.0
C1222 C 0.49459 0.51731 0.51408 0.0
C1223 C 0.50039 0.48163 0.49759 0.0
C1224 C 0.50507 0.56028 0.51718 0.0
C1225 C 0.49154 0.49155 0.53451 0.0
C1226 C 0.47694 0.49533 0.53963 0.0
C1227 C 0.47118 0.47218 0.55699 0.0
C1228 C 0.48051 0.4446 0.56949 0.0
C1229 C 0.49556 0.44028 0.5648 0.0
C1230 C 0.50117 0.46458 0.54712 0.0
H1231 H 0.49715 0.76585 0.71305 0.0
H1232 H 0.46362 0.86232 0.68957 0.0
H1233 H 0.44647 0.83125 0.71603 0.0
H1234 H 0.47445 0.66581 0.72125 0.0
H1235 H 0.48317 0.64532 0.74476 0.0
H1236 H 0.49341 0.67907 0.72576 0.0
H1237 H 0.50058 0.74298 0.75346 0.0
H1238 H 0.49066 0.70893 0.77273 0.0
H1239 H 0.48653 0.77226 0.76856 0.0
H1240 H 0.43239 0.78532 0.74366 0.0
H1241 H 0.42323 0.73328 0.77216 0.0
H1242 H 0.46571 0.66482 0.77669 0.0
C1243 C 0.48635 0.78164 0.71392 0.0
C1244 C 0.4818 0.81712 0.6994 0.0
C1245 C 0.46741 0.8356 0.70067 0.0
C1246 C 0.45756 0.81792 0.71557 0.0
C1247 C 0.4622 0.78153 0.7291 0.0
C1248 C 0.47632 0.76404 0.72859 0.0
C1249 C 0.47837 0.72339 0.74423 0.0
C1250 C 0.48259 0.67556 0.73335 0.0
C1251 C 0.4897 0.73776 0.76073 0.0
C1252 C 0.46319 0.72047 0.75349 0.0
C1253 C 0.45402 0.75435 0.74459 0.0
C1254 C 0.4395 0.75873 0.75077 0.0
C1255 C 0.43435 0.72873 0.76687 0.0
C1256 C 0.44366 0.69456 0.7766 0.0
C1257 C 0.45821 0.69004 0.76946 0.0
H1258 H 0.48686 0.20721 0.2751 0.0
H1259 H 0.52053 0.12639 0.30756 0.0
H1260 H 0.5393 0.16758 0.28686 0.0
H1261 H 0.50535 0.20207 0.2241 0.0
H1262 H 0.49929 0.26192 0.21667 0.0
H1263 H 0.48836 0.22557 0.23397 0.0
H1264 H 0.48871 0.29581 0.26085 0.0
H1265 H 0.49994 0.33185 0.24383 0.0
H1266 H 0.50593 0.31909 0.26992 0.0
H1267 H 0.55466 0.22168 0.26506 0.0
H1268 H 0.56568 0.27272 0.23788 0.0
H1269 H 0.52254 0.31529 0.21706 0.0
C1270 C 0.49817 0.19759 0.27757 0.0
C1271 C 0.50216 0.16353 0.29308 0.0
C1272 C 0.5171 0.15209 0.29579 0.0
C1273 C 0.52792 0.17568 0.28422 0.0
C1274 C 0.52368 0.21018 0.26965 0.0
C1275 C 0.50918 0.22017 0.26577 0.0
C1276 C 0.50774 0.25742 0.24844 0.0
C1277 C 0.49971 0.23542 0.22968 0.0
C1278 C 0.50013 0.30379 0.25623 0.0
C1279 C 0.52368 0.26705 0.24345 0.0
C1280 C 0.53265 0.23995 0.25618 0.0
C1281 C 0.54777 0.24276 0.25484 0.0
C1282 C 0.55393 0.27231 0.23943 0.0
C1283 C 0.54503 0.2982 0.22527 0.0
C1284 C 0.52967 0.29635 0.22772 0.0
H1285 H 0.48814 0.04785 0.96878 0.0
H1286 H 0.52708 0.12037 0.9464 0.0
H1287 H 0.54168 0.07737 0.97291 0.0
H1288 H 0.49826 0.04494 0.02433 0.0
H1289 H 0.49027 -0.01434 0.02792 0.0
H1290 H 0.48288 0.02656 0.0088 0.0
H1291 H 0.48624 0.95998 0.98066 0.0
H1292 H 0.49401 0.91935 0.99955 0.0
H1293 H 0.50406 0.93428 0.97635 0.0
H1294 H 0.5523 0.02146 1.00036 0.0
H1295 H 0.55769 0.96284 0.02845 0.0
H1296 H 0.51186 0.92482 0.03167 0.0
C1297 C 0.49967 0.05591 0.96983 0.0
C1298 C 0.50643 0.08797 0.95561 0.0
C1299 C 0.52162 0.09644 0.95725 0.0
C1300 C 0.53002 0.0719 0.97218 0.0
C1301 C 0.52309 0.03891 0.98534 0.0
C1302 C 0.50822 0.0314 0.98449 0.0
C1303 C 0.50349 -0.00755 0.99971 0.0
C1304 C 0.49311 0.01368 0.01617 0.0
C1305 C 0.49654 0.94895 0.98838 0.0
C1306 C 0.51804 0.97876 0.00912 0.0
C1307 C 0.52922 0.00603 1.00069 0.0
C1308 C 0.54362 2e-05 0.0071 0.0
C1309 C 0.54659 0.96635 0.02295 0.0
C1310 C 0.53524 0.93881 0.03215 0.0
C1311 C 0.52083 0.94469 0.02479 0.0
H1312 H 0.16885 0.33534 0.07499 0.0
H1313 H 0.1718 0.31418 0.14171 0.0
H1314 H 0.14508 0.30732 0.14373 0.0
H1315 H 0.1375 0.41088 0.07668 0.0
H1316 H 0.12943 0.38723 0.05323 0.0
H1317 H 0.1489 0.38589 0.05649 0.0
H1318 H 0.14888 0.2929 0.05002 0.0
H1319 H 0.12938 0.29394 0.04683 0.0
H1320 H 0.13753 0.25426 0.06582 0.0
H1321 H 0.11843 0.30676 0.13927 0.0
H1322 H 0.09289 0.31822 0.12907 0.0
H1323 H 0.10624 0.34178 0.06513 0.0
C1324 C 0.16386 0.32857 0.08997 0.0
C1325 C 0.17245 0.32497 0.10821 0.0
C1326 C 0.16549 0.31708 0.12755 0.0
C1327 C 0.15031 0.31284 0.12884 0.0
C1328 C 0.14217 0.31681 0.11067 0.0
C1329 C 0.14863 0.32483 0.09159 0.0
C1330 C 0.13716 0.33123 0.07476 0.0
C1331 C 0.13832 0.38181 0.0647 0.0
C1332 C 0.13831 0.29066 0.05839 0.0
C1333 C 0.12327 0.32633 0.08746 0.0
C1334 C 0.12652 0.31737 0.10809 0.0
C1335 C 0.11573 0.31347 0.12316 0.0
C1336 C 0.10124 0.32014 0.11718 0.0
C1337 C 0.09754 0.3308 0.09629 0.0
C1338 C 0.10871 0.33287 0.08113 0.0
H1339 H 0.10009 0.86211 0.14676 0.0
H1340 H 0.08862 0.8645 0.21222 0.0
H1341 H 0.11482 0.85931 0.22129 0.0
H1342 H 0.12791 0.77537 0.15038 0.0
H1343 H 0.13938 0.80333 0.13103 0.0
H1344 H 0.11994 0.81124 0.1299 0.0
H1345 H 0.12318 0.90489 0.13027 0.0
H1346 H 0.14266 0.8973 0.13127 0.0
H1347 H 0.13352 0.93299 0.15085 0.0
H1348 H 0.14247 0.84824 0.22282 0.0
H1349 H 0.16876 0.83461 0.21687 0.0
H1350 H 0.16155 0.83935 0.15024 0.0
C1351 C 0.10301 0.86218 0.16306 0.0
C1352 C 0.09222 0.86379 0.1788 0.0
C1353 C 0.09664 0.86359 0.19989 0.0
C1354 C 0.11151 0.86054 0.20517 0.0
C1355 C 0.1218 0.858 0.18918 0.0
C1356 C 0.11769 0.85916 0.16856 0.0
C1357 C 0.13069 0.85415 0.15421 0.0
C1358 C 0.1294 0.8083 0.14059 0.0
C1359 C 0.13263 0.90007 0.14087 0.0
C1360 C 0.14282 0.84921 0.16994 0.0
C1361 C 0.13752 0.85171 0.19004 0.0
C1362 C 0.14671 0.84663 0.20713 0.0
C1363 C 0.16164 0.83878 0.20358 0.0
C1364 C 0.16729 0.83597 0.18307 0.0
C1365 C 0.15766 0.84153 0.16611 0.0
H1366 H 0.83483 0.54893 0.84796 0.0
H1367 H 0.82641 0.47769 0.90697 0.0
H1368 H 0.85261 0.47816 0.91474 0.0
H1369 H 0.86946 0.48509 0.83717 0.0
H1370 H 0.87772 0.53808 0.82567 0.0
H1371 H 0.8583 0.52946 0.82409 0.0
H1372 H 0.85433 0.61407 0.84094 0.0
H1373 H 0.87372 0.62269 0.8428 0.0
H1374 H 0.86254 0.62722 0.86576 0.0
H1375 H 0.87956 0.49286 0.9178 0.0
H1376 H 0.90569 0.51349 0.91396 0.0
H1377 H 0.89687 0.57216 0.85266 0.0
C1378 C 0.83852 0.53256 0.86231 0.0
C1379 C 0.82845 0.5134 0.87682 0.0
C1380 C 0.83381 0.49276 0.89555 0.0
C1381 C 0.84872 0.49287 0.90018 0.0
C1382 C 0.85828 0.5133 0.88588 0.0
C1383 C 0.85345 0.53207 0.86717 0.0
C1384 C 0.86606 0.5526 0.85472 0.0
C1385 C 0.868 0.52463 0.8342 0.0
C1386 C 0.86404 0.60739 0.85083 0.0
C1387 C 0.87862 0.54307 0.86949 0.0
C1388 C 0.8739 0.52057 0.88743 0.0
C1389 C 0.88343 0.50995 0.9037 0.0
C1390 C 0.89823 0.52203 0.90146 0.0
C1391 C 0.90337 0.5441 0.88299 0.0
C1392 C 0.89334 0.55478 0.86689 0.0
H1393 H 0.91849 0.14103 0.87 0.0
H1394 H 0.9138 0.14036 0.80287 0.0
H1395 H 0.88706 0.14088 0.8068 0.0
H1396 H 0.88906 0.05976 0.88009 0.0
H1397 H 0.88321 0.08981 0.90358 0.0
H1398 H 0.90201 0.09292 0.89567 0.0
H1399 H 0.90087 0.18701 0.89664 0.0
H1400 H 0.88204 0.1842 0.90454 0.0
H1401 H 0.88713 0.21824 0.88174 0.0
H1402 H 0.86113 0.13989 0.81767 0.0
H1403 H 0.83728 0.13262 0.8345 0.0
H1404 H 0.85817 0.13064 0.89509 0.0
C1405 C 0.91183 0.14159 0.85612 0.0
C1406 C 0.91827 0.14103 0.83608 0.0
C1407 C 0.90916 0.14084 0.81834 0.0
C1408 C 0.89395 0.14132 0.82043 0.0
C1409 C 0.88798 0.14159 0.84036 0.0
C1410 C 0.89659 0.14142 0.85793 0.0
C1411 C 0.88732 0.13909 0.8775 0.0
C1412 C 0.8906 0.09263 0.88994 0.0
C1413 C 0.88947 0.18487 0.89089 0.0
C1414 C 0.87214 0.1376 0.86816 0.0
C1415 C 0.87286 0.13963 0.84671 0.0
C1416 C 0.86042 0.13829 0.83444 0.0
C1417 C 0.84688 0.13412 0.84425 0.0
C1418 C 0.84574 0.13089 0.86622 0.0
C1419 C 0.85861 0.13316 0.87832 0.0
H1420 H 0.16883 0.90763 0.67137 0.0
H1421 H 0.17962 0.90559 0.60563 0.0
H1422 H 0.15362 0.90736 0.59684 0.0
H1423 H 0.13623 0.83225 0.66761 0.0
H1424 H 0.12621 0.86679 0.68668 0.0
H1425 H 0.14579 0.86345 0.68814 0.0
H1426 H 0.14727 0.95752 0.68769 0.0
H1427 H 0.12771 0.96114 0.68618 0.0
H1428 H 0.13878 -0.00934 0.66679 0.0
H1429 H 0.12661 0.91027 0.59467 0.0
H1430 H 0.10001 0.9159 0.59953 0.0
H1431 H 0.10615 0.91817 0.66645 0.0
C1432 C 0.1657 0.90717 0.65516 0.0
C1433 C 0.17635 0.90647 0.63923 0.0
C1434 C 0.17175 0.90637 0.61817 0.0
C1435 C 0.15696 0.90722 0.61296 0.0
C1436 C 0.14677 0.90838 0.62893 0.0
C1437 C 0.15087 0.90848 0.6496 0.0
C1438 C 0.13758 0.91133 0.66362 0.0
C1439 C 0.13638 0.86573 0.67732 0.0
C1440 C 0.13786 0.95794 0.67685 0.0
C1441 C 0.12547 0.91297 0.64755 0.0
C1442 C 0.13105 0.91093 0.62765 0.0
C1443 C 0.12208 0.91188 0.61019 0.0
C1444 C 0.10697 0.91508 0.6131 0.0
C1445 C 0.10093 0.91759 0.63334 0.0
C1446 C 0.11038 0.91647 0.65076 0.0
H1447 H 0.08351 0.35185 0.61631 0.0
H1448 H 0.07173 0.37917 0.55204 0.0
H1449 H 0.09765 0.37654 0.54211 0.0
H1450 H 0.11531 0.42579 0.61655 0.0
H1451 H 0.12564 0.38571 0.63307 0.0
H1452 H 0.10609 0.3872 0.63498 0.0
H1453 H 0.10508 0.29423 0.62842 0.0
H1454 H 0.12465 0.29247 0.6265 0.0
H1455 H 0.11364 0.26926 0.60554 0.0
H1456 H 0.12519 0.37353 0.53922 0.0
H1457 H 0.15195 0.37151 0.54406 0.0
H1458 H 0.14555 0.34672 0.61007 0.0
C1459 C 0.08636 0.35683 0.60012 0.0
C1460 C 0.07551 0.36563 0.58499 0.0
C1461 C 0.07978 0.37239 0.56398 0.0
C1462 C 0.09451 0.37088 0.55813 0.0
C1463 C 0.10492 0.36255 0.57343 0.0
C1464 C 0.10103 0.35562 0.59399 0.0
C1465 C 0.11438 0.34888 0.60751 0.0
C1466 C 0.11541 0.38931 0.624 0.0
C1467 C 0.11444 0.29819 0.61758 0.0
C1468 C 0.12634 0.35356 0.59138 0.0
C1469 C 0.1207 0.36115 0.57178 0.0
C1470 C 0.12973 0.36739 0.5545 0.0
C1471 C 0.14493 0.36616 0.55738 0.0
C1472 C 0.15093 0.35896 0.57741 0.0
C1473 C 0.1414 0.35226 0.59451 0.0
H1474 H 0.86258 0.0914 0.39256 0.0
H1475 H 0.85878 0.044 0.32842 0.0
H1476 H 0.88506 0.0233 0.32824 0.0
H1477 H 0.89777 0.14694 0.38738 0.0
H1478 H 0.90372 0.12892 0.41291 0.0
H1479 H 0.88465 0.13875 0.40795 0.0
H1480 H 0.87897 0.0518 0.42114 0.0
H1481 H 0.89805 0.04151 0.42596 0.0
H1482 H 0.88805 0.00048 0.40942 0.0
H1483 H 0.91167 0.00669 0.33544 0.0
H1484 H 0.93695 0.00229 0.34794 0.0
H1485 H 0.9235 0.06287 0.40732 0.0
C1486 C 0.86723 0.0766 0.37843 0.0
C1487 C 0.85856 0.06909 0.36049 0.0
C1488 C 0.86518 0.05016 0.34231 0.0
C1489 C 0.88007 0.03806 0.34213 0.0
C1490 C 0.88822 0.04543 0.36019 0.0
C1491 C 0.88205 0.06477 0.37793 0.0
C1492 C 0.89326 0.0707 0.39508 0.0
C1493 C 0.89495 0.12453 0.40118 0.0
C1494 C 0.88935 0.03924 0.41402 0.0
C1495 C 0.90677 0.05174 0.38423 0.0
C1496 C 0.90358 0.03691 0.36419 0.0
C1497 C 0.91428 0.01833 0.35107 0.0
C1498 C 0.92864 0.01591 0.3584 0.0
C1499 C 0.93232 0.03232 0.37867 0.0
C1500 C 0.92111 0.04978 0.39182 0.0
H1501 H 0.89546 0.637 0.3583 0.0
H1502 H 0.91088 0.63405 0.42214 0.0
H1503 H 0.88582 0.64325 0.43469 0.0
H1504 H 0.86669 0.7271 0.36709 0.0
H1505 H 0.85406 0.69823 0.34954 0.0
H1506 H 0.87339 0.69285 0.34517 0.0
H1507 H 0.8711 0.59895 0.34517 0.0
H1508 H 0.85178 0.60405 0.34957 0.0
H1509 H 0.86286 0.56896 0.36714 0.0
H1510 H 0.85913 0.64831 0.44089 0.0
H1511 H 0.83226 0.65205 0.43995 0.0
H1512 H 0.83366 0.65435 0.3725 0.0
C1513 C 0.89357 0.63868 0.3749 0.0
C1514 C 0.90526 0.63468 0.38914 0.0
C1515 C 0.90223 0.63693 0.41078 0.0
C1516 C 0.88798 0.6422 0.41816 0.0
C1517 C 0.87674 0.64554 0.4038 0.0
C1518 C 0.87931 0.6442 0.38263 0.0
C1519 C 0.86511 0.64797 0.37067 0.0
C1520 C 0.8648 0.6943 0.35733 0.0
C1521 C 0.86257 0.60225 0.35735 0.0
C1522 C 0.85424 0.65102 0.38846 0.0
C1523 C 0.86121 0.6495 0.40743 0.0
C1524 C 0.85352 0.64998 0.42613 0.0
C1525 C 0.83826 0.652 0.42545 0.0
C1526 C 0.83082 0.65384 0.40621 0.0
C1527 C 0.839 0.65361 0.3875 0.0
H1528 H 0.57619 0.34209 0.61073 0.0
H1529 H 0.56279 0.36921 0.67443 0.0
H1530 H 0.58841 0.37529 0.68508 0.0
H1531 H 0.60627 0.26662 0.62337 0.0
H1532 H 0.61807 0.2888 0.60309 0.0
H1533 H 0.59861 0.29063 0.59972 0.0
H1534 H 0.59987 0.38329 0.59272 0.0
H1535 H 0.61936 0.38167 0.59597 0.0
H1536 H 0.60851 0.42258 0.61148 0.0
H1537 H 0.61529 0.37355 0.68973 0.0
H1538 H 0.64202 0.36525 0.68767 0.0
H1539 H 0.63861 0.33864 0.62129 0.0
C1540 C 0.57868 0.35022 0.62681 0.0
C1541 C 0.56743 0.3552 0.64172 0.0
C1542 C 0.57117 0.36499 0.6627 0.0
C1543 C 0.58572 0.36868 0.66895 0.0
C1544 C 0.59655 0.36247 0.65409 0.0
C1545 C 0.59329 0.35364 0.63343 0.0
C1546 C 0.60716 0.34613 0.62094 0.0
C1547 C 0.60755 0.295 0.61121 0.0
C1548 C 0.60882 0.38579 0.60429 0.0
C1549 C 0.6186 0.3515 0.63787 0.0
C1550 C 0.61222 0.36119 0.65684 0.0
C1551 C 0.62045 0.36633 0.67492 0.0
C1552 C 0.63565 0.36144 0.67361 0.0
C1553 C 0.64251 0.35139 0.65436 0.0
C1554 C 0.63378 0.34658 0.63627 0.0
H1555 H 0.56064 0.81574 0.64282 0.0
H1556 H 0.54878 0.84982 0.57927 0.0
H1557 H 0.57473 0.85812 0.57004 0.0
H1558 H 0.59326 0.89506 0.64585 0.0
H1559 H 0.60344 0.85128 0.66077 0.0
H1560 H 0.58389 0.85393 0.66309 0.0
H1561 H 0.58225 0.76247 0.65359 0.0
H1562 H 0.60176 0.75963 0.65116 0.0
H1563 H 0.59038 0.74117 0.62974 0.0
H1564 H 0.60202 0.85767 0.56697 0.0
H1565 H 0.62864 0.84555 0.57028 0.0
H1566 H 0.62282 0.80849 0.63533 0.0
C1567 C 0.56354 0.82609 0.62712 0.0
C1568 C 0.5527 0.83258 0.61181 0.0
C1569 C 0.55691 0.84478 0.59126 0.0
C1570 C 0.57163 0.84975 0.58587 0.0
C1571 C 0.58209 0.84206 0.60114 0.0
C1572 C 0.57826 0.83042 0.62136 0.0
C1573 C 0.59169 0.82015 0.63432 0.0
C1574 C 0.59315 0.85733 0.65205 0.0
C1575 C 0.5915 0.76774 0.64269 0.0
C1576 C 0.60356 0.827 0.61816 0.0
C1577 C 0.59783 0.84031 0.5992 0.0
C1578 C 0.60666 0.84753 0.58179 0.0
C1579 C 0.62177 0.84057 0.5838 0.0
C1580 C 0.62786 0.82594 0.603 0.0
C1581 C 0.61856 0.81958 0.62038 0.0
H1582 H 0.39876 0.56005 0.35788 0.0
H1583 H 0.39202 0.57071 0.42453 0.0
H1584 H 0.36543 0.57428 0.41883 0.0
H1585 H 0.37019 0.64384 0.34354 0.0
H1586 H 0.36495 0.61044 0.32062 0.0
H1587 H 0.38346 0.60761 0.32981 0.0
H1588 H 0.38184 0.51368 0.33146 0.0
H1589 H 0.36333 0.51618 0.32226 0.0
H1590 H 0.36746 0.4856 0.3463 0.0
H1591 H 0.33984 0.5749 0.4062 0.0
H1592 H 0.31652 0.57609 0.38773 0.0
H1593 H 0.33928 0.56855 0.32857 0.0
C1594 C 0.39169 0.56291 0.37131 0.0
C1595 C 0.39751 0.56479 0.39173 0.0
C1596 C 0.38787 0.56916 0.4088 0.0
C1597 C 0.37274 0.57115 0.40569 0.0
C1598 C 0.3674 0.56925 0.38541 0.0
C1599 C 0.37656 0.56555 0.36847 0.0
C1600 C 0.36794 0.56522 0.34827 0.0
C1601 C 0.37187 0.60941 0.33477 0.0
C1602 C 0.37028 0.51732 0.33637 0.0
C1603 C 0.35247 0.56902 0.35652 0.0
C1604 C 0.35251 0.571 0.378 0.0
C1605 C 0.33968 0.57353 0.3894 0.0
C1606 C 0.32645 0.574 0.37865 0.0
C1607 C 0.32597 0.57232 0.35659 0.0
C1608 C 0.33924 0.57012 0.34538 0.0
H1609 H 0.41997 0.1304 0.34523 0.0
H1610 H 0.43093 0.19229 0.40532 0.0
H1611 H 0.40492 0.20002 0.41374 0.0
H1612 H 0.38673 0.20595 0.33678 0.0
H1613 H 0.37697 0.15664 0.32465 0.0
H1614 H 0.39651 0.16003 0.3224 0.0
H1615 H 0.39862 0.07299 0.33745 0.0
H1616 H 0.37912 0.06958 0.33999 0.0
H1617 H 0.39055 0.05964 0.36235 0.0
H1618 H 0.37797 0.1929 0.41756 0.0
H1619 H 0.35144 0.1788 0.41485 0.0
H1620 H 0.35742 0.1242 0.35208 0.0
C1621 C 0.41687 0.14675 0.3599 0.0
C1622 C 0.42754 0.16062 0.37461 0.0
C1623 C 0.423 0.18111 0.39381 0.0
C1624 C 0.40822 0.18572 0.39878 0.0
C1625 C 0.39798 0.17008 0.38435 0.0
C1626 C 0.40204 0.15173 0.36516 0.0
C1627 C 0.38873 0.13602 0.35288 0.0
C1628 C 0.38714 0.16649 0.333 0.0
C1629 C 0.3893 0.08131 0.34788 0.0
C1630 C 0.37668 0.14748 0.36835 0.0
C1631 C 0.38228 0.16703 0.38641 0.0
C1632 C 0.3734 0.17828 0.40337 0.0
C1633 C 0.35836 0.16988 0.40175 0.0
C1634 C 0.3523 0.15073 0.38324 0.0
C1635 C 0.36167 0.13946 0.36636 0.0
H1636 H 0.65331 0.92554 0.12324 0.0
H1637 H 0.65493 0.90634 0.19016 0.0
H1638 H 0.62809 0.89899 0.19097 0.0
H1639 H 0.61973 -0.00464 0.12137 0.0
H1640 H 0.61347 0.96642 0.09787 0.0
H1641 H 0.63272 0.97268 0.10269 0.0
H1642 H 0.63602 0.87965 0.09822 0.0
H1643 H 0.61681 0.8731 0.09342 0.0
H1644 H 0.62533 0.83873 0.11391 0.0
H1645 H 0.60121 0.89229 0.1844 0.0
H1646 H 0.57625 0.88372 0.1711 0.0
H1647 H 0.59205 0.90501 0.1081 0.0
C1648 C 0.64804 0.92031 0.13813 0.0
C1649 C 0.65626 0.91683 0.1567 0.0
C1650 C 0.6489 0.90923 0.17577 0.0
C1651 C 0.63365 0.90511 0.17637 0.0
C1652 C 0.62592 0.90842 0.15777 0.0
C1653 C 0.63286 0.91569 0.13899 0.0
C1654 C 0.62206 0.91597 0.12114 0.0
C1655 C 0.622 0.96556 0.11012 0.0
C1656 C 0.62525 0.87438 0.10577 0.0
C1657 C 0.60794 0.9074 0.13279 0.0
C1658 C 0.61043 0.90356 0.15391 0.0
C1659 C 0.59914 0.8953 0.1679 0.0
C1660 C 0.58496 0.8905 0.16013 0.0
C1661 C 0.5821 0.89362 0.13849 0.0
C1662 C 0.59382 0.90245 0.1247 0.0
H1663 H 0.68057 0.33312 0.10331 0.0
H1664 H 0.69402 0.31595 0.16764 0.0
H1665 H 0.66856 0.30626 0.17818 0.0
H1666 H 0.6485 0.40138 0.11343 0.0
H1667 H 0.63751 0.37251 0.09378 0.0
H1668 H 0.65697 0.3759 0.09059 0.0
H1669 H 0.65826 0.28232 0.08632 0.0
H1670 H 0.63877 0.27869 0.08933 0.0
H1671 H 0.6505 0.24379 0.10609 0.0
H1672 H 0.64174 0.30554 0.18276 0.0
H1673 H 0.61489 0.30556 0.18027 0.0
H1674 H 0.61812 0.31839 0.11319 0.0
C1675 C 0.67817 0.32661 0.11954 0.0
C1676 C 0.68942 0.3258 0.13459 0.0
C1677 C 0.68571 0.31729 0.15573 0.0
C1678 C 0.67122 0.31164 0.16196 0.0
C1679 C 0.6604 0.31391 0.14693 0.0
C1680 C 0.66363 0.32041 0.12612 0.0
C1681 C 0.64973 0.32171 0.11331 0.0
C1682 C 0.64808 0.3708 0.10212 0.0
C1683 C 0.64929 0.27908 0.09785 0.0
C1684 C 0.63831 0.31576 0.13026 0.0
C1685 C 0.64475 0.3116 0.14954 0.0
C1686 C 0.63653 0.3081 0.16772 0.0
C1687 C 0.62129 0.30839 0.16617 0.0
C1688 C 0.61439 0.31159 0.14657 0.0
C1689 C 0.62307 0.31524 0.1284 0.0
H1690 H 0.42731 0.06832 0.85272 0.0
H1691 H 0.4345 0.1371 0.91268 0.0
H1692 H 0.40815 0.15233 0.91585 0.0
H1693 H 0.39871 0.14849 0.83528 0.0
H1694 H 0.38827 0.10108 0.82291 0.0
H1695 H 0.40777 0.09551 0.82497 0.0
H1696 H 0.40486 0.01271 0.84366 0.0
H1697 H 0.38537 0.01774 0.84143 0.0
H1698 H 0.3936 0.00888 0.86656 0.0
H1699 H 0.38142 0.16066 0.91277 0.0
H1700 H 0.35526 0.15573 0.90519 0.0
H1701 H 0.36458 0.08117 0.84716 0.0
C1702 C 0.42335 0.08645 0.86657 0.0
C1703 C 0.43305 0.10156 0.88247 0.0
C1704 C 0.42736 0.12502 0.90032 0.0
C1705 C 0.41239 0.13411 0.90222 0.0
C1706 C 0.40321 0.11944 0.88616 0.0
C1707 C 0.40839 0.09568 0.86876 0.0
C1708 C 0.39601 0.08264 0.85408 0.0
C1709 C 0.3978 0.10848 0.83307 0.0
C1710 C 0.3949 0.0272 0.85128 0.0
C1711 C 0.38304 0.10261 0.86604 0.0
C1712 C 0.38756 0.12399 0.88441 0.0
C1713 C 0.37775 0.14404 0.89845 0.0
C1714 C 0.36289 0.14103 0.89396 0.0
C1715 C 0.35785 0.11808 0.87557 0.0
C1716 C 0.36811 0.0995 0.86118 0.0
H1717 H 0.38099 0.64573 0.85724 0.0
H1718 H 0.40146 0.61068 0.91621 0.0
H1719 H 0.3775 0.60759 0.933 0.0
H1720 H 0.35302 0.72319 0.87878 0.0
H1721 H 0.33905 0.70318 0.86106 0.0
H1722 H 0.35788 0.70192 0.85318 0.0
H1723 H 0.35567 0.61016 0.84454 0.0
H1724 H 0.33682 0.61121 0.85232 0.0
H1725 H 0.34923 0.56872 0.86419 0.0
H1726 H 0.35137 0.60833 0.94395 0.0
H1727 H 0.3246 0.61272 0.94784 0.0
H1728 H 0.32079 0.64815 0.88229 0.0
C1729 C 0.38041 0.63721 0.87364 0.0
C1730 C 0.39322 0.62857 0.8853 0.0
C1731 C 0.39191 0.61773 0.90681 0.0
C1732 C 0.3783 0.61578 0.91659 0.0
C1733 C 0.36595 0.62483 0.90478 0.0
C1734 C 0.36682 0.63532 0.88378 0.0
C1735 C 0.35174 0.64404 0.87487 0.0
C1736 C 0.35035 0.69619 0.86648 0.0
C1737 C 0.34816 0.60627 0.85798 0.0
C1738 C 0.34239 0.63672 0.89411 0.0
C1739 C 0.3508 0.62562 0.91119 0.0
C1740 C 0.34463 0.61704 0.93068 0.0
C1741 C 0.32941 0.61965 0.93276 0.0
C1742 C 0.32051 0.63086 0.91546 0.0
C1743 C 0.3272 0.63963 0.89592 0.0
H1744 H 0.04101 0.004 0.11037 0.0
H1745 H 0.02256 0.01378 0.1724 0.0
H1746 H 0.01693 0.10063 0.16629 0.0
H1747 H 0.05893 0.11407 0.11151 0.0
H1748 H 0.05592 0.12856 0.08455 0.0
H1749 H 0.05645 0.06611 0.0927 0.0
H1750 H 0.03087 0.05206 0.07674 0.0
H1751 H 0.03024 0.11472 0.06858 0.0
H1752 H 0.01589 0.0903 0.08459 0.0
H1753 H 0.01574 0.18777 0.15475 0.0
H1754 H 0.0203 0.2688 0.13979 0.0
H1755 H 0.03977 0.20159 0.08538 0.0
C1756 C 0.03551 0.02397 0.12258 0.0
C1757 C 0.03215 0.00193 0.14186 0.0
C1758 C 0.02518 0.02979 0.15749 0.0
C1759 C 0.02187 0.07905 0.15411 0.0
C1760 C 0.02553 0.0997 0.135 0.0
C1761 C 0.0322 0.07295 0.1195 0.0
C1762 C 0.03633 0.10451 0.10115 0.0
C1763 C 0.05288 0.10324 0.09727 0.0
C1764 C 0.02782 0.0895 0.08161 0.0
C1765 C 0.03142 0.15371 0.10901 0.0
C1766 C 0.02498 0.15003 0.1284 0.0
C1767 C 0.02058 0.19099 0.13947 0.0
C1768 C 0.02324 0.23689 0.13083 0.0
C1769 C 0.03036 0.24155 0.11135 0.0
C1770 C 0.03407 0.19925 0.10008 0.0
H1771 H 0.2298 0.9557 0.13448 0.0
H1772 H 0.23617 0.975 0.20082 0.0
H1773 H 0.24056 0.06265 0.19525 0.0
H1774 H 0.25681 0.04856 0.11729 0.0
H1775 H 0.24541 0.06718 0.09595 0.0
H1776 H 0.24496 0.00508 0.10489 0.0
H1777 H 0.21703 0.01161 0.11019 0.0
H1778 H 0.2174 0.07363 0.10143 0.0
H1779 H 0.20981 0.05922 0.12652 0.0
H1780 H 0.24081 0.14951 0.18298 0.0
H1781 H 0.23764 0.22798 0.16487 0.0
H1782 H 0.23149 0.15091 0.10661 0.0
C1783 C 0.23246 0.97805 0.14782 0.0
C1784 C 0.23265 0.95846 0.16809 0.0
C1785 C 0.23603 -0.01087 0.18513 0.0
C1786 C 0.23856 0.03896 0.18212 0.0
C1787 C 0.23785 0.05733 0.16197 0.0
C1788 C 0.23504 0.02766 0.14508 0.0
C1789 C 0.2337 0.05674 0.12525 0.0
C1790 C 0.24595 0.04361 0.10995 0.0
C1791 C 0.21859 0.04989 0.11528 0.0
C1792 C 0.2356 0.10764 0.13372 0.0
C1793 C 0.23815 0.10729 0.15488 0.0
C1794 C 0.2391 0.15021 0.16635 0.0
C1795 C 0.23723 0.19459 0.15594 0.0
C1796 C 0.2344 0.1956 0.1343 0.0
C1797 C 0.23386 0.15146 0.12309 0.0
H1798 H 0.9501 0.75237 0.84106 0.0
H1799 H 0.96472 0.73893 0.90499 0.0
H1800 H 0.97212 0.8255 0.90468 0.0
H1801 H 0.97881 0.82833 0.82359 0.0
H1802 H 0.96739 0.86392 0.80666 0.0
H1803 H 0.96277 0.8016 0.81216 0.0
H1804 H 0.93724 0.82816 0.82522 0.0
H1805 H 0.94169 0.89044 0.81942 0.0
H1806 H 0.93584 0.87393 0.84521 0.0
H1807 H 0.97827 0.91316 0.89691 0.0
H1808 H 0.98116 -0.00355 0.88328 0.0
H1809 H 0.96293 0.95035 0.82421 0.0
C1810 C 0.95474 0.76752 0.85512 0.0
C1811 C 0.95683 0.73883 0.87307 0.0
C1812 C 0.96296 0.76026 0.89108 0.0
C1813 C 0.96727 0.80927 0.89101 0.0
C1814 C 0.96537 0.83606 0.87282 0.0
C1815 C 0.95913 0.81598 0.85528 0.0
C1816 C 0.95825 0.85226 0.8377 0.0
C1817 C 0.96735 0.83551 0.81893 0.0
C1818 C 0.94231 0.86176 0.83154 0.0
C1819 C 0.96496 0.89613 0.84806 0.0
C1820 C 0.96903 0.88608 0.86829 0.0
C1821 C 0.97514 0.92141 0.88109 0.0
C1822 C 0.97677 0.96855 0.87318 0.0
C1823 C 0.97231 0.97985 0.85264 0.0
C1824 C 0.96661 0.94278 0.83985 0.0
H1825 H 0.79786 0.9215 0.86737 0.0
H1826 H 0.79844 0.94416 0.93416 0.0
H1827 H 0.79372 0.85634 0.93943 0.0
H1828 H 0.76896 0.83784 0.86616 0.0
H1829 H 0.77663 0.80109 0.84567 0.0
H1830 H 0.78097 0.86483 0.84722 0.0
H1831 H 0.80854 0.84455 0.84818 0.0
H1832 H 0.8043 0.78073 0.84634 0.0
H1833 H 0.81533 0.80288 0.86749 0.0
H1834 H 0.78743 0.76701 0.93706 0.0
H1835 H 0.78194 0.68209 0.92756 0.0
H1836 H 0.78558 0.7194 0.86218 0.0
C1837 C 0.79715 0.90808 0.88315 0.0
C1838 C 0.79848 0.93968 0.90038 0.0
C1839 C 0.79752 0.92053 0.92075 0.0
C1840 C 0.79478 0.87081 0.92387 0.0
C1841 C 0.79314 0.841 0.90647 0.0
C1842 C 0.79447 0.85888 0.88652 0.0
C1843 C 0.79205 0.81968 0.87039 0.0
C1844 C 0.77887 0.83159 0.85655 0.0
C1845 C 0.80588 0.81147 0.85734 0.0
C1846 C 0.78897 0.77682 0.88436 0.0
C1847 C 0.78963 0.7898 0.9051 0.0
C1848 C 0.78697 0.75639 0.92087 0.0
C1849 C 0.7838 0.70826 0.91528 0.0
C1850 C 0.78333 0.694 0.89409 0.0
C1851 C 0.78584 0.72903 0.87849 0.0
H1852 H 0.03387 0.76957 0.61785 0.0
H1853 H 0.04443 0.76011 0.68347 0.0
H1854 H 0.03907 0.67196 0.68274 0.0
H1855 H 0.00423 0.68008 0.61831 0.0
H1856 H 0.00913 0.65666 0.59307 0.0
H1857 H 0.01258 0.71949 0.59936 0.0
H1858 H 0.03986 0.70792 0.59006 0.0
H1859 H 0.0365 0.64517 0.58377 0.0
H1860 H 0.05016 0.66071 0.60275 0.0
H1861 H 0.03458 0.5835 0.67388 0.0
H1862 H 0.03111 0.50265 0.65776 0.0
H1863 H 0.02318 0.57188 0.59823 0.0
C1864 C 0.0349 0.7492 0.63216 0.0
C1865 C 0.03959 0.77171 0.65071 0.0
C1866 C 0.04082 0.74363 0.66908 0.0
C1867 C 0.03778 0.69359 0.66882 0.0
C1868 C 0.03338 0.67246 0.65015 0.0
C1869 C 0.03185 0.69952 0.63221 0.0
C1870 C 0.02766 0.66803 0.61391 0.0
C1871 C 0.0125 0.68189 0.60569 0.0
C1872 C 0.03924 0.67061 0.59662 0.0
C1873 C 0.02746 0.6187 0.6242 0.0
C1874 C 0.03067 0.62191 0.64513 0.0
C1875 C 0.03188 0.58062 0.65756 0.0
C1876 C 0.02992 0.53487 0.64826 0.0
C1877 C 0.02683 0.53092 0.62675 0.0
C1878 C 0.02538 0.57358 0.61474 0.0
H1879 H 0.20292 0.53307 0.62975 0.0
H1880 H 0.222 0.52179 0.56813 0.0
H1881 H 0.23256 0.60397 0.57227 0.0
H1882 H 0.19321 0.65844 0.62654 0.0
H1883 H 0.19727 0.67067 0.65344 0.0
H1884 H 0.19164 0.61072 0.6456 0.0
H1885 H 0.21504 0.57484 0.6621 0.0
H1886 H 0.22086 0.63488 0.66968 0.0
H1887 H 0.2326 0.59722 0.65397 0.0
H1888 H 0.24074 0.68737 0.58303 0.0
H1889 H 0.24394 0.76923 0.59799 0.0
H1890 H 0.21958 0.72542 0.65271 0.0
C1891 C 0.2093 0.54777 0.61707 0.0
C1892 C 0.21166 0.52091 0.59861 0.0
C1893 C 0.22001 0.54173 0.58238 0.0
C1894 C 0.22614 0.58819 0.58466 0.0
C1895 C 0.22381 0.61319 0.60324 0.0
C1896 C 0.21547 0.59391 0.61907 0.0
C1897 C 0.21413 0.62891 0.63715 0.0
C1898 C 0.19811 0.64303 0.64089 0.0
C1899 C 0.22108 0.60768 0.65689 0.0
C1900 C 0.22288 0.67133 0.62893 0.0
C1901 C 0.22851 0.66127 0.60944 0.0
C1902 C 0.23645 0.69556 0.59831 0.0
C1903 C 0.23823 0.74193 0.60698 0.0
C1904 C 0.23205 0.75367 0.62656 0.0
C1905 C 0.22464 0.71735 0.63789 0.0
H1906 H 0.95579 0.42762 0.39736 0.0
H1907 H 0.96175 0.45198 0.33124 0.0
H1908 H 0.96974 0.36652 0.32708 0.0
H1909 H 0.98664 0.35419 0.40503 0.0
H1910 H 0.97802 0.31417 0.42348 0.0
H1911 H 0.97193 0.37614 0.42107 0.0
H1912 H 0.94558 0.34668 0.41383 0.0
H1913 H 0.95154 0.28463 0.41662 0.0
H1914 H 0.94236 0.30351 0.39323 0.0
H1915 H 0.97852 0.2799 0.33078 0.0
H1916 H 0.9849 0.1963 0.34118 0.0
H1917 H 0.97307 0.23006 0.40497 0.0
C1918 C 0.9586 0.41496 0.38193 0.0
C1919 C 0.95818 0.44645 0.36462 0.0
C1920 C 0.96191 0.42836 0.3447 0.0
C1921 C 0.96655 0.38004 0.34221 0.0
C1922 C 0.96728 0.35048 0.35978 0.0
C1923 C 0.96319 0.36709 0.37919 0.0
C1924 C 0.96501 0.32835 0.39563 0.0
C1925 C 0.97606 0.34418 0.41228 0.0
C1926 C 0.95024 0.315 0.40539 0.0
C1927 C 0.97092 0.2873 0.38249 0.0
C1928 C 0.97221 0.30077 0.36188 0.0
C1929 C 0.97748 0.26887 0.34685 0.0
C1930 C 0.98115 0.22153 0.35296 0.0
C1931 C 0.97949 0.20654 0.37392 0.0
C1932 C 0.97453 0.24032 0.38886 0.0
H1933 H 0.80594 0.27457 0.39904 0.0
H1934 H 0.79593 0.2562 0.33352 0.0
H1935 H 0.78608 0.33973 0.33251 0.0
H1936 H 0.77426 0.34284 0.41247 0.0
H1937 H 0.78363 0.38229 0.43042 0.0
H1938 H 0.79017 0.32135 0.42606 0.0
H1939 H 0.81562 0.35476 0.41594 0.0
H1940 H 0.80924 0.41568 0.42068 0.0
H1941 H 0.81704 0.40011 0.39583 0.0
H1942 H 0.77699 0.42425 0.33877 0.0
H1943 H 0.77156 0.50737 0.35087 0.0
H1944 H 0.78732 0.47007 0.41242 0.0
C1945 C 0.8018 0.28814 0.38441 0.0
C1946 C 0.8017 0.25878 0.36635 0.0
C1947 C 0.79617 0.27804 0.34754 0.0
C1948 C 0.79046 0.3253 0.34684 0.0
C1949 C 0.79038 0.35268 0.36507 0.0
C1950 C 0.79606 0.33507 0.38343 0.0
C1951 C 0.79491 0.3722 0.40074 0.0
C1952 C 0.78516 0.35354 0.41847 0.0
C1953 C 0.8101 0.38654 0.40876 0.0
C1954 C 0.78773 0.41364 0.38921 0.0
C1955 C 0.78511 0.40146 0.3687 0.0
C1956 C 0.77897 0.43422 0.35479 0.0
C1957 C 0.77588 0.48128 0.36185 0.0
C1958 C 0.77898 0.49513 0.38261 0.0
C1959 C 0.78462 0.46038 0.39657 0.0
H1960 H 0.48423 0.96755 0.6252 0.0
H1961 H 0.50003 0.94023 0.56283 0.0
H1962 H 0.50304 0.02872 0.55738 0.0
H1963 H 0.46656 0.09105 0.61431 0.0
H1964 H 0.47238 0.11266 0.63942 0.0
H1965 H 0.46759 0.04958 0.63593 0.0
H1966 H 0.49281 0.02469 0.65054 0.0
H1967 H 0.49785 0.08727 0.65357 0.0
H1968 H 0.5091 0.04726 0.63819 0.0
H1969 H 0.50947 0.11799 0.56189 0.0
H1970 H 0.5171 0.19886 0.57531 0.0
H1971 H 0.49749 0.1644 0.63484 0.0
C1972 C 0.48769 -0.0196 0.61007 0.0
C1973 C 0.49186 0.94746 0.59444 0.0
C1974 C 0.49657 0.96517 0.57491 0.0
C1975 C 0.49836 0.01535 0.57171 0.0
C1976 C 0.4951 0.04691 0.58806 0.0
C1977 C 0.48952 0.03 0.60672 0.0
C1978 C 0.48878 0.06963 0.62289 0.0
C1979 C 0.47288 0.08144 0.62845 0.0
C1980 C 0.49767 0.0564 0.64242 0.0
C1981 C 0.49573 0.11064 0.61097 0.0
C1982 C 0.49901 0.09762 0.59076 0.0
C1983 C 0.50664 0.12891 0.57755 0.0
C1984 C 0.51102 0.17451 0.58529 0.0
C1985 C 0.50801 0.18747 0.60615 0.0
C1986 C 0.50006 0.15535 0.61887 0.0
H1987 H 0.70328 0.15782 0.62755 0.0
H1988 H 0.69305 0.17218 0.6931 0.0
H1989 H 0.6927 0.08234 0.69632 0.0
H1990 H 0.67964 0.06713 0.61706 0.0
H1991 H 0.69098 0.03529 0.59865 0.0
H1992 H 0.69334 0.09948 0.6025 0.0
H1993 H 0.7206 0.08617 0.61133 0.0
H1994 H 0.71837 0.0217 0.60729 0.0
H1995 H 0.72557 0.04402 0.63155 0.0
H1996 H 0.68969 -0.00828 0.6908 0.0
H1997 H 0.68456 0.90928 0.67738 0.0
H1998 H 0.69659 0.95635 0.61534 0.0
C1999 C 0.70131 0.1422 0.64274 0.0
C2000 C 0.69815 0.17185 0.66008 0.0
C2001 C 0.6956 0.15003 0.67965 0.0
C2002 C 0.69539 0.0991 0.68161 0.0
C2003 C 0.698 0.07091 0.66391 0.0
C2004 C 0.7011 0.09186 0.64492 0.0
C2005 C 0.70202 0.05439 0.62778 0.0
C2006 C 0.69083 0.0647 0.6105 0.0
C2007 C 0.71757 0.0514 0.61898 0.0
C2008 C 0.69819 0.00915 0.63983 0.0
C2009 C 0.69619 0.01907 0.66072 0.0
C2010 C 0.69149 -0.01659 0.67456 0.0
C2011 C 0.68856 0.93672 0.66676 0.0
C2012 C 0.69016 0.92639 0.64529 0.0
C2013 C 0.69534 0.96296 0.63184 0.0
H2014 H 0.45747 0.7446 0.41038 0.0
H2015 H 0.4592 0.69768 0.34591 0.0
H2016 H 0.46494 0.78125 0.3351 0.0
H2017 H 0.44058 0.85956 0.40084 0.0
H2018 H 0.45082 0.8913 0.42053 0.0
H2019 H 0.44715 0.82732 0.42334 0.0
H2020 H 0.47481 0.81037 0.42705 0.0
H2021 H 0.47856 0.87433 0.42421 0.0
H2022 H 0.48713 0.83097 0.40708 0.0
H2023 H 0.46985 0.87029 0.33099 0.0
H2024 H 0.47368 0.95898 0.3342 0.0
H2025 H 0.46908 0.9473 0.40122 0.0
C2026 C 0.45909 0.75184 0.39401 0.0
C2027 C 0.45788 0.71447 0.37904 0.0
C2028 C 0.46008 0.72559 0.35773 0.0
C2029 C 0.46336 0.77299 0.35138 0.0
C2030 C 0.46446 0.80894 0.3665 0.0
C2031 C 0.46242 0.799 0.38737 0.0
C2032 C 0.46405 0.84447 0.40041 0.0
C2033 C 0.4498 0.85635 0.41195 0.0
C2034 C 0.4769 0.83973 0.41558 0.0
C2035 C 0.46721 0.88142 0.38358 0.0
C2036 C 0.46742 0.86024 0.36414 0.0
C2037 C 0.46979 0.88735 0.34616 0.0
C2038 C 0.47195 0.93766 0.34813 0.0
C2039 C 0.47174 0.96012 0.36794 0.0
C2040 C 0.46942 0.93132 0.38584 0.0
H2041 H 0.28711 0.75795 0.3296 0.0
H2042 H 0.26402 0.71697 0.38585 0.0
H2043 H 0.26774 0.79956 0.39995 0.0
H2044 H 0.31413 0.82866 0.35396 0.0
H2045 H 0.31487 0.87412 0.33384 0.0
H2046 H 0.30958 0.81281 0.32756 0.0
H2047 H 0.28539 0.84407 0.31165 0.0
H2048 H 0.29072 0.90558 0.31755 0.0
H2049 H 0.27359 0.88236 0.327 0.0
H2050 H 0.27525 0.88613 0.40867 0.0
H2051 H 0.28418 0.97116 0.4098 0.0
H2052 H 0.30241 0.95318 0.34797 0.0
C2053 C 0.2826 0.76645 0.34473 0.0
C2054 C 0.27526 0.73091 0.35658 0.0
C2055 C 0.26966 0.74359 0.37642 0.0
C2056 C 0.27176 0.79037 0.38462 0.0
C2057 C 0.27944 0.82407 0.37277 0.0
C2058 C 0.28462 0.81279 0.35316 0.0
C2059 C 0.29275 0.85508 0.3437 0.0
C2060 C 0.30878 0.84186 0.33953 0.0
C2061 C 0.28516 0.87282 0.32381 0.0
C2062 C 0.29141 0.89182 0.36108 0.0
C2063 C 0.28374 0.87342 0.37777 0.0
C2064 C 0.28122 0.90102 0.39564 0.0
C2065 C 0.28641 0.94912 0.39621 0.0
C2066 C 0.29397 0.9689 0.37899 0.0
C2067 C 0.29664 0.93936 0.3614 0.0
H2068 H 0.54835 0.48702 0.15149 0.0
H2069 H 0.55738 0.44726 0.08739 0.0
H2070 H 0.55136 0.53043 0.07625 0.0
H2071 H 0.51785 0.56805 0.1402 0.0
H2072 H 0.52277 0.61076 0.16027 0.0
H2073 H 0.52713 0.54724 0.1632 0.0
H2074 H 0.55434 0.56917 0.16858 0.0
H2075 H 0.55005 0.63267 0.16575 0.0
H2076 H 0.56363 0.60512 0.14926 0.0
H2077 H 0.54574 0.61922 0.07216 0.0
H2078 H 0.54094 0.70736 0.07576 0.0
H2079 H 0.53503 0.68827 0.14224 0.0
C2080 C 0.54898 0.49569 0.1351 0.0
C2081 C 0.55335 0.46051 0.12036 0.0
C2082 C 0.55405 0.47347 0.09904 0.0
C2083 C 0.55062 0.52064 0.0925 0.0
C2084 C 0.5464 0.55446 0.10742 0.0
C2085 C 0.54552 0.54259 0.12826 0.0
C2086 C 0.54111 0.58617 0.14119 0.0
C2087 C 0.52633 0.57752 0.15184 0.0
C2088 C 0.55299 0.59903 0.15713 0.0
C2089 C 0.53994 0.62447 0.12439 0.0
C2090 C 0.54296 0.60548 0.105 0.0
C2091 C 0.54321 0.63449 0.08724 0.0
C2092 C 0.54048 0.68448 0.08943 0.0
C2093 C 0.53753 0.70476 0.10923 0.0
C2094 C 0.53708 0.67397 0.12682 0.0
H2095 H 0.73294 0.54043 0.15349 0.0
H2096 H 0.73083 0.52323 0.08643 0.0
H2097 H 0.72541 0.61087 0.08291 0.0
H2098 H 0.70349 0.62261 0.15797 0.0
H2099 H 0.71166 0.65814 0.17843 0.0
H2100 H 0.71623 0.59479 0.17564 0.0
H2101 H 0.74362 0.61688 0.17314 0.0
H2102 H 0.73915 0.68032 0.17606 0.0
H2103 H 0.74959 0.66018 0.15392 0.0
H2104 H 0.71933 0.69914 0.08684 0.0
H2105 H 0.71332 0.7826 0.09766 0.0
H2106 H 0.71916 0.74175 0.16234 0.0
C2107 C 0.73152 0.55504 0.13801 0.0
C2108 C 0.73236 0.52493 0.12021 0.0
C2109 C 0.73027 0.54558 0.10028 0.0
C2110 C 0.72719 0.59528 0.09813 0.0
C2111 C 0.72624 0.62366 0.11605 0.0
C2112 C 0.72838 0.60435 0.13559 0.0
C2113 C 0.72632 0.64233 0.1524 0.0
C2114 C 0.71367 0.62864 0.16696 0.0
C2115 C 0.74052 0.6504 0.16459 0.0
C2116 C 0.72257 0.6861 0.13925 0.0
C2117 C 0.72263 0.67453 0.11833 0.0
C2118 C 0.71931 0.7087 0.10316 0.0
C2119 C 0.71589 0.75603 0.10951 0.0
C2120 C 0.71577 0.76884 0.13089 0.0
C2121 C 0.71916 0.73321 0.1459 0.0
H2122 H 0.48217 0.27323 0.88635 0.0
H2123 H 0.48347 0.23871 0.82051 0.0
H2124 H 0.47537 0.32198 0.8123 0.0
H2125 H 0.45036 0.33719 0.88538 0.0
H2126 H 0.45551 0.38277 0.90415 0.0
H2127 H 0.46377 0.32352 0.90497 0.0
H2128 H 0.4895 0.36182 0.90225 0.0
H2129 H 0.48135 0.42143 0.90197 0.0
H2130 H 0.4935 0.40332 0.88134 0.0
H2131 H 0.4638 0.4052 0.81156 0.0
H2132 H 0.45232 0.48514 0.8184 0.0
H2133 H 0.45851 0.46332 0.88464 0.0
C2134 C 0.48126 0.28357 0.87018 0.0
C2135 C 0.48346 0.2494 0.8541 0.0
C2136 C 0.48188 0.26428 0.83312 0.0
C2137 C 0.47724 0.31149 0.82828 0.0
C2138 C 0.47438 0.34343 0.84457 0.0
C2139 C 0.47661 0.33039 0.86508 0.0
C2140 C 0.47178 0.37015 0.87978 0.0
C2141 C 0.45964 0.35232 0.89442 0.0
C2142 C 0.48481 0.39039 0.89205 0.0
C2143 C 0.46609 0.40692 0.86437 0.0
C2144 C 0.46773 0.39113 0.84413 0.0
C2145 C 0.46266 0.41831 0.82734 0.0
C2146 C 0.45604 0.4634 0.83137 0.0
C2147 C 0.45454 0.48054 0.85203 0.0
C2148 C 0.45955 0.4515 0.86865 0.0
H2149 H 0.29485 0.25891 0.91372 0.0
H2150 H 0.28399 0.24188 0.84845 0.0
H2151 H 0.27208 0.32245 0.84883 0.0
H2152 H 0.26191 0.32395 0.92942 0.0
H2153 H 0.27158 0.36353 0.94699 0.0
H2154 H 0.27823 0.30289 0.94212 0.0
H2155 H 0.30329 0.33776 0.93094 0.0
H2156 H 0.29677 0.39831 0.93604 0.0
H2157 H 0.30404 0.38324 0.91081 0.0
H2158 H 0.26237 0.40572 0.85585 0.0
H2159 H 0.25779 0.48942 0.86784 0.0
H2160 H 0.27529 0.45273 0.9285 0.0
C2161 C 0.28985 0.27188 0.89954 0.0
C2162 C 0.29028 0.24402 0.88107 0.0
C2163 C 0.28381 0.26264 0.86277 0.0
C2164 C 0.27691 0.30815 0.86288 0.0
C2165 C 0.27661 0.3345 0.88139 0.0
C2166 C 0.28302 0.31728 0.89933 0.0
C2167 C 0.28215 0.35428 0.91674 0.0
C2168 C 0.27292 0.335 0.93489 0.0
C2169 C 0.29747 0.36929 0.92405 0.0
C2170 C 0.2745 0.39551 0.90566 0.0
C2171 C 0.27119 0.38298 0.88539 0.0
C2172 C 0.26481 0.41584 0.87172 0.0
C2173 C 0.26224 0.46331 0.87871 0.0
C2174 C 0.26616 0.47763 0.89914 0.0
C2175 C 0.27195 0.44274 0.91294 0.0
loop_
_geom_bond_atom_site_label_1
_geom_bond_atom_site_label_2
_geom_bond_distance
_geom_bond_site_symmetry_2
_ccdc_geom_bond_type
C0 O1 1.306 . S
C0 O3 1.160 . S
O1 C0 1.306 . S
O1 Cd2 2.228 . S
Cd2 O1 2.228 . S
Cd2 O6 2.273 . S
Cd2 O10 2.277 . S
O3 C0 1.160 . S
O3 Cd4 2.203 . S
Cd4 O3 2.203 . S
Cd4 O6 2.411 . S
Cd4 O7 2.333 . S
Cd4 O8 2.352 . S
Cd4 O12 2.277 . S
Cd4 O13 2.356 . S
C5 O10 1.209 . S
C5 O12 1.226 . S
O6 Cd2 2.273 . S
O6 Cd4 2.411 . S
O6 C9 1.320 . S
O7 Cd4 2.333 . S
O7 C9 1.214 . S
O8 Cd4 2.352 . S
O8 C11 1.258 . S
C9 O6 1.320 . S
C9 O7 1.214 . S
O10 Cd2 2.277 . S
O10 C5 1.209 . S
C11 O8 1.258 . S
C11 O13 1.282 . S
O12 Cd4 2.277 . S
O12 C5 1.226 . S
O13 Cd4 2.356 . S
O13 C11 1.282 . S
C14 O15 1.306 . S
C14 O17 1.160 . S
O15 C14 1.306 . S
O15 Cd16 2.228 . S
Cd16 O15 2.228 . S
Cd16 O20 2.273 . S
Cd16 O24 2.277 . S
O17 C14 1.160 . S
O17 Cd18 2.203 . S
Cd18 O17 2.203 . S
Cd18 O20 2.411 . S
Cd18 O21 2.333 . S
Cd18 O22 2.352 . S
Cd18 O26 2.277 . S
Cd18 O27 2.356 . S
C19 O24 1.209 . S
C19 O26 1.226 . S
O20 Cd16 2.273 . S
O20 Cd18 2.411 . S
O20 C23 1.320 . S
O21 Cd18 2.333 . S
O21 C23 1.214 . S
O22 Cd18 2.352 . S
O22 C25 1.258 . S
C23 O20 1.320 . S
C23 O21 1.214 . S
O24 Cd16 2.277 . S
O24 C19 1.209 . S
C25 O22 1.258 . S
C25 O27 1.282 . S
O26 Cd18 2.277 . S
O26 C19 1.226 . S
O27 Cd18 2.356 . S
O27 C25 1.282 . S
C28 O29 1.306 . S
C28 O31 1.160 . S
O29 C28 1.306 . S
O29 Cd30 2.228 . S
Cd30 O29 2.228 . S
Cd30 O34 2.273 . S
Cd30 O38 2.277 . S
O31 C28 1.160 . S
O31 Cd32 2.203 . S
Cd32 O31 2.203 . S
Cd32 O34 2.411 . S
Cd32 O35 2.333 . S
Cd32 O36 2.352 . S
Cd32 O40 2.277 . S
Cd32 O41 2.356 . S
C33 O38 1.209 . S
C33 O40 1.226 . S
O34 Cd30 2.273 . S
O34 Cd32 2.411 . S
O34 C37 1.320 . S
O35 Cd32 2.333 . S
O35 C37 1.214 . S
O36 Cd32 2.352 . S
O36 C39 1.258 . S
C37 O34 1.320 . S
C37 O35 1.214 . S
O38 Cd30 2.277 . S
O38 C33 1.209 . S
C39 O36 1.258 . S
C39 O41 1.282 . S
O40 Cd32 2.277 . S
O40 C33 1.226 . S
O41 Cd32 2.356 . S
O41 C39 1.282 . S
C42 O43 1.306 . S
C42 O45 1.160 . S
O43 C42 1.306 . S
O43 Cd44 2.228 . S
Cd44 O43 2.228 . S
Cd44 O48 2.273 . S
Cd44 O52 2.277 . S
O45 C42 1.160 . S
O45 Cd46 2.203 . S
Cd46 O45 2.203 . S
Cd46 O48 2.411 . S
Cd46 O49 2.333 . S
Cd46 O50 2.352 . S
Cd46 O54 2.277 . S
Cd46 O55 2.356 . S
C47 O52 1.209 . S
C47 O54 1.226 . S
O48 Cd44 2.273 . S
O48 Cd46 2.411 . S
O48 C51 1.320 . S
O49 Cd46 2.333 . S
O49 C51 1.214 . S
O50 Cd46 2.352 . S
O50 C53 1.258 . S
C51 O48 1.320 . S
C51 O49 1.214 . S
O52 Cd44 2.277 . S
O52 C47 1.209 . S
C53 O50 1.258 . S
C53 O55 1.282 . S
O54 Cd46 2.277 . S
O54 C47 1.226 . S
O55 Cd46 2.356 . S
O55 C53 1.282 . S
C56 O57 1.306 . S
C56 O59 1.160 . S
O57 C56 1.306 . S
O57 Cd58 2.228 . S
Cd58 O57 2.228 . S
Cd58 O62 2.273 . S
Cd58 O66 2.277 . S
O59 C56 1.160 . S
O59 Cd60 2.203 . S
Cd60 O59 2.203 . S
Cd60 O62 2.411 . S
Cd60 O63 2.333 . S
Cd60 O64 2.352 . S
Cd60 O68 2.277 . S
Cd60 O69 2.356 . S
C61 O66 1.209 . S
C61 O68 1.226 . S
O62 Cd58 2.273 . S
O62 Cd60 2.411 . S
O62 C65 1.320 . S
O63 Cd60 2.333 . S
O63 C65 1.214 . S
O64 Cd60 2.352 . S
O64 C67 1.258 . S
C65 O62 1.320 . S
C65 O63 1.214 . S
O66 Cd58 2.277 . S
O66 C61 1.209 . S
C67 O64 1.258 . S
C67 O69 1.282 . S
O68 Cd60 2.277 . S
O68 C61 1.226 . S
O69 Cd60 2.356 . S
O69 C67 1.282 . S
C70 O71 1.306 . S
C70 O73 1.160 . S
O71 C70 1.306 . S
O71 Cd72 2.228 . S
Cd72 O71 2.228 . S
Cd72 O76 2.273 . S
Cd72 O80 2.277 . S
O73 C70 1.160 . S
O73 Cd74 2.203 . S
Cd74 O73 2.203 . S
Cd74 O76 2.411 . S
Cd74 O77 2.333 . S
Cd74 O78 2.352 . S
Cd74 O82 2.277 . S
Cd74 O83 2.356 . S
C75 O80 1.209 . S
C75 O82 1.226 . S
O76 Cd72 2.273 . S
O76 Cd74 2.411 . S
O76 C79 1.320 . S
O77 Cd74 2.333 . S
O77 C79 1.214 . S
O78 Cd74 2.352 . S
O78 C81 1.258 . S
C79 O76 1.320 . S
C79 O77 1.214 . S
O80 Cd72 2.277 . S
O80 C75 1.209 . S
C81 O78 1.258 . S
C81 O83 1.282 . S
O82 Cd74 2.277 . S
O82 C75 1.226 . S
O83 Cd74 2.356 . S
O83 C81 1.282 . S
C84 O85 1.306 . S
C84 O87 1.160 . S
O85 C84 1.306 . S
O85 Cd86 2.228 . S
Cd86 O85 2.228 . S
Cd86 O90 2.273 . S
Cd86 O94 2.277 . S
O87 C84 1.160 . S
O87 Cd88 2.203 . S
Cd88 O87 2.203 . S
Cd88 O90 2.411 . S
Cd88 O91 2.333 . S
Cd88 O92 2.352 . S
Cd88 O96 2.277 . S
Cd88 O97 2.356 . S
C89 O94 1.209 . S
C89 O96 1.226 . S
O90 Cd86 2.273 . S
O90 Cd88 2.411 . S
O90 C93 1.320 . S
O91 Cd88 2.333 . S
O91 C93 1.214 . S
O92 Cd88 2.352 . S
O92 C95 1.258 . S
C93 O90 1.320 . S
C93 O91 1.214 . S
O94 Cd86 2.277 . S
O94 C89 1.209 . S
C95 O92 1.258 . S
C95 O97 1.282 . S
O96 Cd88 2.277 . S
O96 C89 1.226 . S
O97 Cd88 2.356 . S
O97 C95 1.282 . S
C98 O99 1.306 . S
C98 O101 1.160 . S
O99 C98 1.306 . S
O99 Cd100 2.228 . S
Cd100 O99 2.228 . S
Cd100 O104 2.273 . S
Cd100 O108 2.277 . S
O101 C98 1.160 . S
O101 Cd102 2.203 . S
Cd102 O101 2.203 . S
Cd102 O104 2.411 . S
Cd102 O105 2.333 . S
Cd102 O106 2.352 . S
Cd102 O110 2.277 . S
Cd102 O111 2.356 . S
C103 O108 1.209 . S
C103 O110 1.226 . S
O104 Cd100 2.273 . S
O104 Cd102 2.411 . S
O104 C107 1.320 . S
O105 Cd102 2.333 . S
O105 C107 1.214 . S
O106 Cd102 2.352 . S
O106 C109 1.258 . S
C107 O104 1.320 . S
C107 O105 1.214 . S
O108 Cd100 2.277 . S
O108 C103 1.209 . S
C109 O106 1.258 . S
C109 O111 1.282 . S
O110 Cd102 2.277 . S
O110 C103 1.226 . S
O111 Cd102 2.356 . S
O111 C109 1.282 . S
C112 O113 1.306 . S
C112 O115 1.160 . S
O113 C112 1.306 . S
O113 Cd114 2.228 . S
Cd114 O113 2.228 . S
Cd114 O118 2.273 . S
Cd114 O122 2.277 . S
O115 C112 1.160 . S
O115 Cd116 2.203 . S
Cd116 O115 2.203 . S
Cd116 O118 2.411 . S
Cd116 O119 2.333 . S
Cd116 O120 2.352 . S
Cd116 O124 2.277 . S
Cd116 O125 2.356 . S
C117 O122 1.209 . S
C117 O124 1.226 . S
O118 Cd114 2.273 . S
O118 Cd116 2.411 . S
O118 C121 1.320 . S
O119 Cd116 2.333 . S
O119 C121 1.214 . S
O120 Cd116 2.352 . S
O120 C123 1.258 . S
C121 O118 1.320 . S
C121 O119 1.214 . S
O122 Cd114 2.277 . S
O122 C117 1.209 . S
C123 O120 1.258 . S
C123 O125 1.282 . S
O124 Cd116 2.277 . S
O124 C117 1.226 . S
O125 Cd116 2.356 . S
O125 C123 1.282 . S
C126 O127 1.306 . S
C126 O129 1.160 . S
O127 C126 1.306 . S
O127 Cd128 2.228 . S
Cd128 O127 2.228 . S
Cd128 O132 2.273 . S
Cd128 O136 2.277 . S
O129 C126 1.160 . S
O129 Cd130 2.203 . S
Cd130 O129 2.203 . S
Cd130 O132 2.411 . S
Cd130 O133 2.333 . S
Cd130 O134 2.352 . S
Cd130 O138 2.277 . S
Cd130 O139 2.356 . S
C131 O136 1.209 . S
C131 O138 1.226 . S
O132 Cd128 2.273 . S
O132 Cd130 2.411 . S
O132 C135 1.320 . S
O133 Cd130 2.333 . S
O133 C135 1.214 . S
O134 Cd130 2.352 . S
O134 C137 1.258 . S
C135 O132 1.320 . S
C135 O133 1.214 . S
O136 Cd128 2.277 . S
O136 C131 1.209 . S
C137 O134 1.258 . S
C137 O139 1.282 . S
O138 Cd130 2.277 . S
O138 C131 1.226 . S
O139 Cd130 2.356 . S
O139 C137 1.282 . S
C140 O141 1.306 . S
C140 O143 1.160 . S
O141 C140 1.306 . S
O141 Cd142 2.228 . S
Cd142 O141 2.228 . S
Cd142 O146 2.273 . S
Cd142 O150 2.277 . S
O143 C140 1.160 . S
O143 Cd144 2.203 . S
Cd144 O143 2.203 . S
Cd144 O146 2.411 . S
Cd144 O147 2.333 . S
Cd144 O148 2.352 . S
Cd144 O152 2.277 . S
Cd144 O153 2.356 . S
C145 O150 1.209 . S
C145 O152 1.226 . S
O146 Cd142 2.273 . S
O146 Cd144 2.411 . S
O146 C149 1.320 . S
O147 Cd144 2.333 . S
O147 C149 1.214 . S
O148 Cd144 2.352 . S
O148 C151 1.258 . S
C149 O146 1.320 . S
C149 O147 1.214 . S
O150 Cd142 2.277 . S
O150 C145 1.209 . S
C151 O148 1.258 . S
C151 O153 1.282 . S
O152 Cd144 2.277 . S
O152 C145 1.226 . S
O153 Cd144 2.356 . S
O153 C151 1.282 . S
C154 O155 1.306 . S
C154 O157 1.160 . S
O155 C154 1.306 . S
O155 Cd156 2.228 . S
Cd156 O155 2.228 . S
Cd156 O160 2.273 . S
Cd156 O164 2.277 . S
O157 C154 1.160 . S
O157 Cd158 2.203 . S
Cd158 O157 2.203 . S
Cd158 O160 2.411 . S
Cd158 O161 2.333 . S
Cd158 O162 2.352 . S
Cd158 O166 2.277 . S
Cd158 O167 2.356 . S
C159 O164 1.209 . S
C159 O166 1.226 . S
O160 Cd156 2.273 . S
O160 Cd158 2.411 . S
O160 C163 1.320 . S
O161 Cd158 2.333 . S
O161 C163 1.214 . S
O162 Cd158 2.352 . S
O162 C165 1.258 . S
C163 O160 1.320 . S
C163 O161 1.214 . S
O164 Cd156 2.277 . S
O164 C159 1.209 . S
C165 O162 1.258 . S
C165 O167 1.282 . S
O166 Cd158 2.277 . S
O166 C159 1.226 . S
O167 Cd158 2.356 . S
O167 C165 1.282 . S
C168 O169 1.306 . S
C168 O171 1.160 . S
O169 C168 1.306 . S
O169 Cd170 2.228 . S
Cd170 O169 2.228 . S
Cd170 O174 2.273 . S
Cd170 O178 2.277 . S
O171 C168 1.160 . S
O171 Cd172 2.203 . S
Cd172 O171 2.203 . S
Cd172 O174 2.411 . S
Cd172 O175 2.333 . S
Cd172 O176 2.352 . S
Cd172 O180 2.277 . S
Cd172 O181 2.356 . S
C173 O178 1.209 . S
C173 O180 1.226 . S
O174 Cd170 2.273 . S
O174 Cd172 2.411 . S
O174 C177 1.320 . S
O175 Cd172 2.333 . S
O175 C177 1.214 . S
O176 Cd172 2.352 . S
O176 C179 1.258 . S
C177 O174 1.320 . S
C177 O175 1.214 . S
O178 Cd170 2.277 . S
O178 C173 1.209 . S
C179 O176 1.258 . S
C179 O181 1.282 . S
O180 Cd172 2.277 . S
O180 C173 1.226 . S
O181 Cd172 2.356 . S
O181 C179 1.282 . S
C182 O183 1.306 . S
C182 O185 1.160 . S
O183 C182 1.306 . S
O183 Cd184 2.228 . S
Cd184 O183 2.228 . S
Cd184 O188 2.273 . S
Cd184 O192 2.277 . S
O185 C182 1.160 . S
O185 Cd186 2.203 . S
Cd186 O185 2.203 . S
Cd186 O188 2.411 . S
Cd186 O189 2.333 . S
Cd186 O190 2.352 . S
Cd186 O194 2.277 . S
Cd186 O195 2.356 . S
C187 O192 1.209 . S
C187 O194 1.226 . S
O188 Cd184 2.273 . S
O188 Cd186 2.411 . S
O188 C191 1.320 . S
O189 Cd186 2.333 . S
O189 C191 1.214 . S
O190 Cd186 2.352 . S
O190 C193 1.258 . S
C191 O188 1.320 . S
C191 O189 1.214 . S
O192 Cd184 2.277 . S
O192 C187 1.209 . S
C193 O190 1.258 . S
C193 O195 1.282 . S
O194 Cd186 2.277 . S
O194 C187 1.226 . S
O195 Cd186 2.356 . S
O195 C193 1.282 . S
C196 O197 1.306 . S
C196 O199 1.160 . S
O197 C196 1.306 . S
O197 Cd198 2.228 . S
Cd198 O197 2.228 . S
Cd198 O202 2.273 . S
Cd198 O206 2.277 . S
O199 C196 1.160 . S
O199 Cd200 2.203 . S
Cd200 O199 2.203 . S
Cd200 O202 2.411 . S
Cd200 O203 2.333 . S
Cd200 O204 2.352 . S
Cd200 O208 2.277 . S
Cd200 O209 2.356 . S
C201 O206 1.209 . S
C201 O208 1.226 . S
O202 Cd198 2.273 . S
O202 Cd200 2.411 . S
O202 C205 1.320 . S
O203 Cd200 2.333 . S
O203 C205 1.214 . S
O204 Cd200 2.352 . S
O204 C207 1.258 . S
C205 O202 1.320 . S
C205 O203 1.214 . S
O206 Cd198 2.277 . S
O206 C201 1.209 . S
C207 O204 1.258 . S
C207 O209 1.282 . S
O208 Cd200 2.277 . S
O208 C201 1.226 . S
O209 Cd200 2.356 . S
O209 C207 1.282 . S
C210 O211 1.306 . S
C210 O213 1.160 . S
O211 C210 1.306 . S
O211 Cd212 2.228 . S
Cd212 O211 2.228 . S
Cd212 O216 2.273 . S
Cd212 O220 2.277 . S
O213 C210 1.160 . S
O213 Cd214 2.203 . S
Cd214 O213 2.203 . S
Cd214 O216 2.411 . S
Cd214 O217 2.333 . S
Cd214 O218 2.352 . S
Cd214 O222 2.277 . S
Cd214 O223 2.356 . S
C215 O220 1.209 . S
C215 O222 1.226 . S
O216 Cd212 2.273 . S
O216 Cd214 2.411 . S
O216 C219 1.320 . S
O217 Cd214 2.333 . S
O217 C219 1.214 . S
O218 Cd214 2.352 . S
O218 C221 1.258 . S
C219 O216 1.320 . S
C219 O217 1.214 . S
O220 Cd212 2.277 . S
O220 C215 1.209 . S
C221 O218 1.258 . S
C221 O223 1.282 . S
O222 Cd214 2.277 . S
O222 C215 1.226 . S
O223 Cd214 2.356 . S
O223 C221 1.282 . S
C224 O225 1.306 . S
C224 O227 1.160 . S
O225 C224 1.306 . S
O225 Cd226 2.228 . S
Cd226 O225 2.228 . S
Cd226 O230 2.273 . S
Cd226 O234 2.277 . S
O227 C224 1.160 . S
O227 Cd228 2.203 . S
Cd228 O227 2.203 . S
Cd228 O230 2.411 . S
Cd228 O231 2.333 . S
Cd228 O232 2.352 . S
Cd228 O236 2.277 . S
Cd228 O237 2.356 . S
C229 O234 1.209 . S
C229 O236 1.226 . S
O230 Cd226 2.273 . S
O230 Cd228 2.411 . S
O230 C233 1.320 . S
O231 Cd228 2.333 . S
O231 C233 1.214 . S
O232 Cd228 2.352 . S
O232 C235 1.258 . S
C233 O230 1.320 . S
C233 O231 1.214 . S
O234 Cd226 2.277 . S
O234 C229 1.209 . S
C235 O232 1.258 . S
C235 O237 1.282 . S
O236 Cd228 2.277 . S
O236 C229 1.226 . S
O237 Cd228 2.356 . S
O237 C235 1.282 . S
C238 O239 1.306 . S
C238 O241 1.160 . S
O239 C238 1.306 . S
O239 Cd240 2.228 . S
Cd240 O239 2.228 . S
Cd240 O244 2.273 . S
Cd240 O248 2.277 . S
O241 C238 1.160 . S
O241 Cd242 2.203 . S
Cd242 O241 2.203 . S
Cd242 O244 2.411 . S
Cd242 O245 2.333 . S
Cd242 O246 2.352 . S
Cd242 O250 2.277 . S
Cd242 O251 2.356 . S
C243 O248 1.209 . S
C243 O250 1.226 . S
O244 Cd240 2.273 . S
O244 Cd242 2.411 . S
O244 C247 1.320 . S
O245 Cd242 2.333 . S
O245 C247 1.214 . S
O246 Cd242 2.352 . S
O246 C249 1.258 . S
C247 O244 1.320 . S
C247 O245 1.214 . S
O248 Cd240 2.277 . S
O248 C243 1.209 . S
C249 O246 1.258 . S
C249 O251 1.282 . S
O250 Cd242 2.277 . S
O250 C243 1.226 . S
O251 Cd242 2.356 . S
O251 C249 1.282 . S
C252 O253 1.306 . S
C252 O255 1.160 . S
O253 C252 1.306 . S
O253 Cd254 2.228 . S
Cd254 O253 2.228 . S
Cd254 O258 2.273 . S
Cd254 O262 2.277 . S
O255 C252 1.160 . S
O255 Cd256 2.203 . S
Cd256 O255 2.203 . S
Cd256 O258 2.411 . S
Cd256 O259 2.333 . S
Cd256 O260 2.352 . S
Cd256 O264 2.277 . S
Cd256 O265 2.356 . S
C257 O262 1.209 . S
C257 O264 1.226 . S
O258 Cd254 2.273 . S
O258 Cd256 2.411 . S
O258 C261 1.320 . S
O259 Cd256 2.333 . S
O259 C261 1.214 . S
O260 Cd256 2.352 . S
O260 C263 1.258 . S
C261 O258 1.320 . S
C261 O259 1.214 . S
O262 Cd254 2.277 . S
O262 C257 1.209 . S
C263 O260 1.258 . S
C263 O265 1.282 . S
O264 Cd256 2.277 . S
O264 C257 1.226 . S
O265 Cd256 2.356 . S
O265 C263 1.282 . S
C266 O267 1.306 . S
C266 O269 1.160 . S
O267 C266 1.306 . S
O267 Cd268 2.228 . S
Cd268 O267 2.228 . S
Cd268 O272 2.273 . S
Cd268 O276 2.277 . S
O269 C266 1.160 . S
O269 Cd270 2.203 . S
Cd270 O269 2.203 . S
Cd270 O272 2.411 . S
Cd270 O273 2.333 . S
Cd270 O274 2.352 . S
Cd270 O278 2.277 . S
Cd270 O279 2.356 . S
C271 O276 1.209 . S
C271 O278 1.226 . S
O272 Cd268 2.273 . S
O272 Cd270 2.411 . S
O272 C275 1.320 . S
O273 Cd270 2.333 . S
O273 C275 1.214 . S
O274 Cd270 2.352 . S
O274 C277 1.258 . S
C275 O272 1.320 . S
C275 O273 1.214 . S
O276 Cd268 2.277 . S
O276 C271 1.209 . S
C277 O274 1.258 . S
C277 O279 1.282 . S
O278 Cd270 2.277 . S
O278 C271 1.226 . S
O279 Cd270 2.356 . S
O279 C277 1.282 . S
C280 O281 1.306 . S
C280 O283 1.160 . S
O281 C280 1.306 . S
O281 Cd282 2.228 . S
Cd282 O281 2.228 . S
Cd282 O286 2.273 . S
Cd282 O290 2.277 . S
O283 C280 1.160 . S
O283 Cd284 2.203 . S
Cd284 O283 2.203 . S
Cd284 O286 2.411 . S
Cd284 O287 2.333 . S
Cd284 O288 2.352 . S
Cd284 O292 2.277 . S
Cd284 O293 2.356 . S
C285 O290 1.209 . S
C285 O292 1.226 . S
O286 Cd282 2.273 . S
O286 Cd284 2.411 . S
O286 C289 1.320 . S
O287 Cd284 2.333 . S
O287 C289 1.214 . S
O288 Cd284 2.352 . S
O288 C291 1.258 . S
C289 O286 1.320 . S
C289 O287 1.214 . S
O290 Cd282 2.277 . S
O290 C285 1.209 . S
C291 O288 1.258 . S
C291 O293 1.282 . S
O292 Cd284 2.277 . S
O292 C285 1.226 . S
O293 Cd284 2.356 . S
O293 C291 1.282 . S
C294 O295 1.306 . S
C294 O297 1.160 . S
O295 C294 1.306 . S
O295 Cd296 2.228 . S
Cd296 O295 2.228 . S
Cd296 O300 2.273 . S
Cd296 O304 2.277 . S
O297 C294 1.160 . S
O297 Cd298 2.203 . S
Cd298 O297 2.203 . S
Cd298 O300 2.411 . S
Cd298 O301 2.333 . S
Cd298 O302 2.352 . S
Cd298 O306 2.277 . S
Cd298 O307 2.356 . S
C299 O304 1.209 . S
C299 O306 1.226 . S
O300 Cd296 2.273 . S
O300 Cd298 2.411 . S
O300 C303 1.320 . S
O301 Cd298 2.333 . S
O301 C303 1.214 . S
O302 Cd298 2.352 . S
O302 C305 1.258 . S
C303 O300 1.320 . S
C303 O301 1.214 . S
O304 Cd296 2.277 . S
O304 C299 1.209 . S
C305 O302 1.258 . S
C305 O307 1.282 . S
O306 Cd298 2.277 . S
O306 C299 1.226 . S
O307 Cd298 2.356 . S
O307 C305 1.282 . S
C308 O309 1.306 . S
C308 O311 1.160 . S
O309 C308 1.306 . S
O309 Cd310 2.228 . S
Cd310 O309 2.228 . S
Cd310 O314 2.273 . S
Cd310 O318 2.277 . S
O311 C308 1.160 . S
O311 Cd312 2.203 . S
Cd312 O311 2.203 . S
Cd312 O314 2.411 . S
Cd312 O315 2.333 . S
Cd312 O316 2.352 . S
Cd312 O320 2.277 . S
Cd312 O321 2.356 . S
C313 O318 1.209 . S
C313 O320 1.226 . S
O314 Cd310 2.273 . S
O314 Cd312 2.411 . S
O314 C317 1.320 . S
O315 Cd312 2.333 . S
O315 C317 1.214 . S
O316 Cd312 2.352 . S
O316 C319 1.258 . S
C317 O314 1.320 . S
C317 O315 1.214 . S
O318 Cd310 2.277 . S
O318 C313 1.209 . S
C319 O316 1.258 . S
C319 O321 1.282 . S
O320 Cd312 2.277 . S
O320 C313 1.226 . S
O321 Cd312 2.356 . S
O321 C319 1.282 . S
C322 O323 1.306 . S
C322 O325 1.160 . S
O323 C322 1.306 . S
O323 Cd324 2.228 . S
Cd324 O323 2.228 . S
Cd324 O328 2.273 . S
Cd324 O332 2.277 . S
O325 C322 1.160 . S
O325 Cd326 2.203 . S
Cd326 O325 2.203 . S
Cd326 O328 2.411 . S
Cd326 O329 2.333 . S
Cd326 O330 2.352 . S
Cd326 O334 2.277 . S
Cd326 O335 2.356 . S
C327 O332 1.209 . S
C327 O334 1.226 . S
O328 Cd324 2.273 . S
O328 Cd326 2.411 . S
O328 C331 1.320 . S
O329 Cd326 2.333 . S
O329 C331 1.214 . S
O330 Cd326 2.352 . S
O330 C333 1.258 . S
C331 O328 1.320 . S
C331 O329 1.214 . S
O332 Cd324 2.277 . S
O332 C327 1.209 . S
C333 O330 1.258 . S
C333 O335 1.282 . S
O334 Cd326 2.277 . S
O334 C327 1.226 . S
O335 Cd326 2.356 . S
O335 C333 1.282 . S
C336 O337 1.306 . S
C336 O339 1.160 . S
O337 C336 1.306 . S
O337 Cd338 2.228 . S
Cd338 O337 2.228 . S
Cd338 O342 2.273 . S
Cd338 O346 2.277 . S
O339 C336 1.160 . S
O339 Cd340 2.203 . S
Cd340 O339 2.203 . S
Cd340 O342 2.411 . S
Cd340 O343 2.333 . S
Cd340 O344 2.352 . S
Cd340 O348 2.277 . S
Cd340 O349 2.356 . S
C341 O346 1.209 . S
C341 O348 1.226 . S
O342 Cd338 2.273 . S
O342 Cd340 2.411 . S
O342 C345 1.320 . S
O343 Cd340 2.333 . S
O343 C345 1.214 . S
O344 Cd340 2.352 . S
O344 C347 1.258 . S
C345 O342 1.320 . S
C345 O343 1.214 . S
O346 Cd338 2.277 . S
O346 C341 1.209 . S
C347 O344 1.258 . S
C347 O349 1.282 . S
O348 Cd340 2.277 . S
O348 C341 1.226 . S
O349 Cd340 2.356 . S
O349 C347 1.282 . S
C350 O351 1.306 . S
C350 O353 1.160 . S
O351 C350 1.306 . S
O351 Cd352 2.228 . S
Cd352 O351 2.228 . S
Cd352 O356 2.273 . S
Cd352 O360 2.277 . S
O353 C350 1.160 . S
O353 Cd354 2.203 . S
Cd354 O353 2.203 . S
Cd354 O356 2.411 . S
Cd354 O357 2.333 . S
Cd354 O358 2.352 . S
Cd354 O362 2.277 . S
Cd354 O363 2.356 . S
C355 O360 1.209 . S
C355 O362 1.226 . S
O356 Cd352 2.273 . S
O356 Cd354 2.411 . S
O356 C359 1.320 . S
O357 Cd354 2.333 . S
O357 C359 1.214 . S
O358 Cd354 2.352 . S
O358 C361 1.258 . S
C359 O356 1.320 . S
C359 O357 1.214 . S
O360 Cd352 2.277 . S
O360 C355 1.209 . S
C361 O358 1.258 . S
C361 O363 1.282 . S
O362 Cd354 2.277 . S
O362 C355 1.226 . S
O363 Cd354 2.356 . S
O363 C361 1.282 . S
C364 O365 1.306 . S
C364 O367 1.160 . S
O365 C364 1.306 . S
O365 Cd366 2.228 . S
Cd366 O365 2.228 . S
Cd366 O370 2.273 . S
Cd366 O374 2.277 . S
O367 C364 1.160 . S
O367 Cd368 2.203 . S
Cd368 O367 2.203 . S
Cd368 O370 2.411 . S
Cd368 O371 2.333 . S
Cd368 O372 2.352 . S
Cd368 O376 2.277 . S
Cd368 O377 2.356 . S
C369 O374 1.209 . S
C369 O376 1.226 . S
O370 Cd366 2.273 . S
O370 Cd368 2.411 . S
O370 C373 1.320 . S
O371 Cd368 2.333 . S
O371 C373 1.214 . S
O372 Cd368 2.352 . S
O372 C375 1.258 . S
C373 O370 1.320 . S
C373 O371 1.214 . S
O374 Cd366 2.277 . S
O374 C369 1.209 . S
C375 O372 1.258 . S
C375 O377 1.282 . S
O376 Cd368 2.277 . S
O376 C369 1.226 . S
O377 Cd368 2.356 . S
O377 C375 1.282 . S
C378 O379 1.306 . S
C378 O381 1.160 . S
O379 C378 1.306 . S
O379 Cd380 2.228 . S
Cd380 O379 2.228 . S
Cd380 O384 2.273 . S
Cd380 O388 2.277 . S
O381 C378 1.160 . S
O381 Cd382 2.203 . S
Cd382 O381 2.203 . S
Cd382 O384 2.411 . S
Cd382 O385 2.333 . S
Cd382 O386 2.352 . S
Cd382 O390 2.277 . S
Cd382 O391 2.356 . S
C383 O388 1.209 . S
C383 O390 1.226 . S
O384 Cd380 2.273 . S
O384 Cd382 2.411 . S
O384 C387 1.320 . S
O385 Cd382 2.333 . S
O385 C387 1.214 . S
O386 Cd382 2.352 . S
O386 C389 1.258 . S
C387 O384 1.320 . S
C387 O385 1.214 . S
O388 Cd380 2.277 . S
O388 C383 1.209 . S
C389 O386 1.258 . S
C389 O391 1.282 . S
O390 Cd382 2.277 . S
O390 C383 1.226 . S
O391 Cd382 2.356 . S
O391 C389 1.282 . S
C392 O393 1.306 . S
C392 O395 1.160 . S
O393 C392 1.306 . S
O393 Cd394 2.228 . S
Cd394 O393 2.228 . S
Cd394 O398 2.273 . S
Cd394 O402 2.277 . S
O395 C392 1.160 . S
O395 Cd396 2.203 . S
Cd396 O395 2.203 . S
Cd396 O398 2.411 . S
Cd396 O399 2.333 . S
Cd396 O400 2.352 . S
Cd396 O404 2.277 . S
Cd396 O405 2.356 . S
C397 O402 1.209 . S
C397 O404 1.226 . S
O398 Cd394 2.273 . S
O398 Cd396 2.411 . S
O398 C401 1.320 . S
O399 Cd396 2.333 . S
O399 C401 1.214 . S
O400 Cd396 2.352 . S
O400 C403 1.258 . S
C401 O398 1.320 . S
C401 O399 1.214 . S
O402 Cd394 2.277 . S
O402 C397 1.209 . S
C403 O400 1.258 . S
C403 O405 1.282 . S
O404 Cd396 2.277 . S
O404 C397 1.226 . S
O405 Cd396 2.356 . S
O405 C403 1.282 . S
C406 O407 1.306 . S
C406 O409 1.160 . S
O407 C406 1.306 . S
O407 Cd408 2.228 . S
Cd408 O407 2.228 . S
Cd408 O412 2.273 . S
Cd408 O416 2.277 . S
O409 C406 1.160 . S
O409 Cd410 2.203 . S
Cd410 O409 2.203 . S
Cd410 O412 2.411 . S
Cd410 O413 2.333 . S
Cd410 O414 2.352 . S
Cd410 O418 2.277 . S
Cd410 O419 2.356 . S
C411 O416 1.209 . S
C411 O418 1.226 . S
O412 Cd408 2.273 . S
O412 Cd410 2.411 . S
O412 C415 1.320 . S
O413 Cd410 2.333 . S
O413 C415 1.214 . S
O414 Cd410 2.352 . S
O414 C417 1.258 . S
C415 O412 1.320 . S
C415 O413 1.214 . S
O416 Cd408 2.277 . S
O416 C411 1.209 . S
C417 O414 1.258 . S
C417 O419 1.282 . S
O418 Cd410 2.277 . S
O418 C411 1.226 . S
O419 Cd410 2.356 . S
O419 C417 1.282 . S
C420 O421 1.306 . S
C420 O423 1.160 . S
O421 C420 1.306 . S
O421 Cd422 2.228 . S
Cd422 O421 2.228 . S
Cd422 O426 2.273 . S
Cd422 O430 2.277 . S
O423 C420 1.160 . S
O423 Cd424 2.203 . S
Cd424 O423 2.203 . S
Cd424 O426 2.411 . S
Cd424 O427 2.333 . S
Cd424 O428 2.352 . S
Cd424 O432 2.277 . S
Cd424 O433 2.356 . S
C425 O430 1.209 . S
C425 O432 1.226 . S
O426 Cd422 2.273 . S
O426 Cd424 2.411 . S
O426 C429 1.320 . S
O427 Cd424 2.333 . S
O427 C429 1.214 . S
O428 Cd424 2.352 . S
O428 C431 1.258 . S
C429 O426 1.320 . S
C429 O427 1.214 . S
O430 Cd422 2.277 . S
O430 C425 1.209 . S
C431 O428 1.258 . S
C431 O433 1.282 . S
O432 Cd424 2.277 . S
O432 C425 1.226 . S
O433 Cd424 2.356 . S
O433 C431 1.282 . S
C434 O435 1.306 . S
C434 O437 1.160 . S
O435 C434 1.306 . S
O435 Cd436 2.228 . S
Cd436 O435 2.228 . S
Cd436 O440 2.273 . S
Cd436 O444 2.277 . S
O437 C434 1.160 . S
O437 Cd438 2.203 . S
Cd438 O437 2.203 . S
Cd438 O440 2.411 . S
Cd438 O441 2.333 . S
Cd438 O442 2.352 . S
Cd438 O446 2.277 . S
Cd438 O447 2.356 . S
C439 O444 1.209 . S
C439 O446 1.226 . S
O440 Cd436 2.273 . S
O440 Cd438 2.411 . S
O440 C443 1.320 . S
O441 Cd438 2.333 . S
O441 C443 1.214 . S
O442 Cd438 2.352 . S
O442 C445 1.258 . S
C443 O440 1.320 . S
C443 O441 1.214 . S
O444 Cd436 2.277 . S
O444 C439 1.209 . S
C445 O442 1.258 . S
C445 O447 1.282 . S
O446 Cd438 2.277 . S
O446 C439 1.226 . S
O447 Cd438 2.356 . S
O447 C445 1.282 . S
H448 C460 0.930 . S
H449 C462 0.930 . S
H450 C463 0.930 . S
H451 C467 0.959 . S
H452 C467 0.959 . S
H453 C467 0.961 . S
H454 C468 0.960 . S
H455 C468 0.961 . S
H456 C468 0.959 . S
H457 C471 0.929 . S
H458 C472 0.931 . S
H459 C474 0.930 . S
C460 H448 0.930 . S
C460 C461 1.399 . S
C460 C465 1.399 . S
C461 C460 1.399 . S
C461 C462 1.376 . S
C462 H449 0.930 . S
C462 C461 1.376 . S
C462 C463 1.388 . S
C463 H450 0.930 . S
C463 C462 1.388 . S
C463 C464 1.390 . S
C464 C463 1.390 . S
C464 C465 1.394 . S
C464 C470 1.465 . S
C465 C460 1.399 . S
C465 C464 1.394 . S
C465 C466 1.516 . S
C466 C465 1.516 . S
C466 C467 1.502 . S
C466 C468 1.561 . S
C466 C469 1.526 . S
C467 H451 0.959 . S
C467 H452 0.959 . S
C467 H453 0.961 . S
C467 C466 1.502 . S
C468 H454 0.960 . S
C468 H455 0.961 . S
C468 H456 0.959 . S
C468 C466 1.561 . S
C469 C466 1.526 . S
C469 C470 1.396 . S
C469 C474 1.390 . S
C470 C464 1.465 . S
C470 C469 1.396 . S
C470 C471 1.399 . S
C471 H457 0.929 . S
C471 C470 1.399 . S
C471 C472 1.385 . S
C472 H458 0.931 . S
C472 C471 1.385 . S
C472 C473 1.389 . S
C473 C472 1.389 . S
C473 C474 1.387 . S
C474 H459 0.930 . S
C474 C469 1.390 . S
C474 C473 1.387 . S
H475 C487 0.930 . S
H476 C489 0.930 . S
H477 C490 0.930 . S
H478 C494 0.959 . S
H479 C494 0.959 . S
H480 C494 0.961 . S
H481 C495 0.960 . S
H482 C495 0.961 . S
H483 C495 0.959 . S
H484 C498 0.929 . S
H485 C499 0.931 . S
H486 C501 0.930 . S
C487 H475 0.930 . S
C487 C488 1.399 . S
C487 C492 1.399 . S
C488 C487 1.399 . S
C488 C489 1.376 . S
C489 H476 0.930 . S
C489 C488 1.376 . S
C489 C490 1.388 . S
C490 H477 0.930 . S
C490 C489 1.388 . S
C490 C491 1.390 . S
C491 C490 1.390 . S
C491 C492 1.394 . S
C491 C497 1.465 . S
C492 C487 1.399 . S
C492 C491 1.394 . S
C492 C493 1.516 . S
C493 C492 1.516 . S
C493 C494 1.502 . S
C493 C495 1.561 . S
C493 C496 1.526 . S
C494 H478 0.959 . S
C494 H479 0.959 . S
C494 H480 0.961 . S
C494 C493 1.502 . S
C495 H481 0.960 . S
C495 H482 0.961 . S
C495 H483 0.959 . S
C495 C493 1.561 . S
C496 C493 1.526 . S
C496 C497 1.396 . S
C496 C501 1.390 . S
C497 C491 1.465 . S
C497 C496 1.396 . S
C497 C498 1.399 . S
C498 H484 0.929 . S
C498 C497 1.399 . S
C498 C499 1.385 . S
C499 H485 0.931 . S
C499 C498 1.385 . S
C499 C500 1.389 . S
C500 C499 1.389 . S
C500 C501 1.387 . S
C501 H486 0.930 . S
C501 C496 1.390 . S
C501 C500 1.387 . S
H502 C514 0.930 . S
H503 C516 0.930 . S
H504 C517 0.930 . S
H505 C521 0.959 . S
H506 C521 0.959 . S
H507 C521 0.961 . S
H508 C522 0.960 . S
H509 C522 0.961 . S
H510 C522 0.959 . S
H511 C525 0.929 . S
H512 C526 0.931 . S
H513 C528 0.930 . S
C514 H502 0.930 . S
C514 C515 1.399 . S
C514 C519 1.399 . S
C515 C514 1.399 . S
C515 C516 1.376 . S
C516 H503 0.930 . S
C516 C515 1.376 . S
C516 C517 1.388 . S
C517 H504 0.930 . S
C517 C516 1.388 . S
C517 C518 1.390 . S
C518 C517 1.390 . S
C518 C519 1.394 . S
C518 C524 1.465 . S
C519 C514 1.399 . S
C519 C518 1.394 . S
C519 C520 1.516 . S
C520 C519 1.516 . S
C520 C521 1.502 . S
C520 C522 1.561 . S
C520 C523 1.526 . S
C521 H505 0.959 . S
C521 H506 0.959 . S
C521 H507 0.961 . S
C521 C520 1.502 . S
C522 H508 0.960 . S
C522 H509 0.961 . S
C522 H510 0.959 . S
C522 C520 1.561 . S
C523 C520 1.526 . S
C523 C524 1.396 . S
C523 C528 1.390 . S
C524 C518 1.465 . S
C524 C523 1.396 . S
C524 C525 1.399 . S
C525 H511 0.929 . S
C525 C524 1.399 . S
C525 C526 1.385 . S
C526 H512 0.931 . S
C526 C525 1.385 . S
C526 C527 1.389 . S
C527 C526 1.389 . S
C527 C528 1.387 . S
C528 H513 0.930 . S
C528 C523 1.390 . S
C528 C527 1.387 . S
H529 C541 0.930 . S
H530 C543 0.930 . S
H531 C544 0.930 . S
H532 C548 0.959 . S
H533 C548 0.959 . S
H534 C548 0.961 . S
H535 C549 0.960 . S
H536 C549 0.961 . S
H537 C549 0.959 . S
H538 C552 0.929 . S
H539 C553 0.931 . S
H540 C555 0.930 . S
C541 H529 0.930 . S
C541 C542 1.399 . S
C541 C546 1.399 . S
C542 C541 1.399 . S
C542 C543 1.376 . S
C543 H530 0.930 . S
C543 C542 1.376 . S
C543 C544 1.388 . S
C544 H531 0.930 . S
C544 C543 1.388 . S
C544 C545 1.390 . S
C545 C544 1.390 . S
C545 C546 1.394 . S
C545 C551 1.465 . S
C546 C541 1.399 . S
C546 C545 1.394 . S
C546 C547 1.516 . S
C547 C546 1.516 . S
C547 C548 1.502 . S
C547 C549 1.561 . S
C547 C550 1.526 . S
C548 H532 0.959 . S
C548 H533 0.959 . S
C548 H534 0.961 . S
C548 C547 1.502 . S
C549 H535 0.960 . S
C549 H536 0.961 . S
C549 H537 0.959 . S
C549 C547 1.561 . S
C550 C547 1.526 . S
C550 C551 1.396 . S
C550 C555 1.390 . S
C551 C545 1.465 . S
C551 C550 1.396 . S
C551 C552 1.399 . S
C552 H538 0.929 . S
C552 C551 1.399 . S
C552 C553 1.385 . S
C553 H539 0.931 . S
C553 C552 1.385 . S
C553 C554 1.389 . S
C554 C553 1.389 . S
C554 C555 1.387 . S
C555 H540 0.930 . S
C555 C550 1.390 . S
C555 C554 1.387 . S
H556 C568 0.930 . S
H557 C570 0.930 1_565 S
H558 C571 0.930 . S
H559 C575 0.959 . S
H560 C575 0.959 . S
H561 C575 0.961 . S
H562 C576 0.960 . S
H563 C576 0.961 . S
H564 C576 0.959 . S
H565 C579 0.929 . S
H566 C580 0.931 . S
H567 C582 0.930 . S
C568 H556 0.930 . S
C568 C569 1.399 1_545 S
C568 C573 1.399 . S
C569 C568 1.399 1_565 S
C569 C570 1.376 1_565 S
C570 H557 0.930 1_545 S
C570 C569 1.376 1_545 S
C570 C571 1.388 . S
C571 H558 0.930 . S
C571 C570 1.388 . S
C571 C572 1.390 . S
C572 C571 1.390 . S
C572 C573 1.394 . S
C572 C578 1.465 . S
C573 C568 1.399 . S
C573 C572 1.394 . S
C573 C574 1.516 . S
C574 C573 1.516 . S
C574 C575 1.502 . S
C574 C576 1.561 . S
C574 C577 1.526 . S
C575 H559 0.959 . S
C575 H560 0.959 . S
C575 H561 0.961 . S
C575 C574 1.502 . S
C576 H562 0.960 . S
C576 H563 0.961 . S
C576 H564 0.959 . S
C576 C574 1.561 . S
C577 C574 1.526 . S
C577 C578 1.396 . S
C577 C582 1.390 . S
C578 C572 1.465 . S
C578 C577 1.396 . S
C578 C579 1.399 . S
C579 H565 0.929 . S
C579 C578 1.399 . S
C579 C580 1.385 . S
C580 H566 0.931 . S
C580 C579 1.385 . S
C580 C581 1.389 . S
C581 C580 1.389 . S
C581 C582 1.387 . S
C582 H567 0.930 . S
C582 C577 1.390 . S
C582 C581 1.387 . S
H583 C595 0.930 . S
H584 C597 0.930 1_565 S
H585 C598 0.930 . S
H586 C602 0.959 . S
H587 C602 0.959 . S
H588 C602 0.961 . S
H589 C603 0.960 . S
H590 C603 0.961 . S
H591 C603 0.959 . S
H592 C606 0.929 . S
H593 C607 0.931 . S
H594 C609 0.930 . S
C595 H583 0.930 . S
C595 C596 1.399 1_545 S
C595 C600 1.399 . S
C596 C595 1.399 1_565 S
C596 C597 1.376 1_565 S
C597 H584 0.930 1_545 S
C597 C596 1.376 1_545 S
C597 C598 1.388 . S
C598 H585 0.930 . S
C598 C597 1.388 . S
C598 C599 1.390 . S
C599 C598 1.390 . S
C599 C600 1.394 . S
C599 C605 1.465 . S
C600 C595 1.399 . S
C600 C599 1.394 . S
C600 C601 1.516 . S
C601 C600 1.516 . S
C601 C602 1.502 . S
C601 C603 1.561 . S
C601 C604 1.526 . S
C602 H586 0.959 . S
C602 H587 0.959 . S
C602 H588 0.961 . S
C602 C601 1.502 . S
C603 H589 0.960 . S
C603 H590 0.961 . S
C603 H591 0.959 . S
C603 C601 1.561 . S
C604 C601 1.526 . S
C604 C605 1.396 . S
C604 C609 1.390 . S
C605 C599 1.465 . S
C605 C604 1.396 . S
C605 C606 1.399 . S
C606 H592 0.929 . S
C606 C605 1.399 . S
C606 C607 1.385 . S
C607 H593 0.931 . S
C607 C606 1.385 . S
C607 C608 1.389 . S
C608 C607 1.389 . S
C608 C609 1.387 . S
C609 H594 0.930 . S
C609 C604 1.390 . S
C609 C608 1.387 . S
H610 C622 0.930 . S
H611 C624 0.930 1_545 S
H612 C625 0.930 . S
H613 C629 0.959 . S
H614 C629 0.959 . S
H615 C629 0.961 . S
H616 C630 0.960 . S
H617 C630 0.961 . S
H618 C630 0.959 . S
H619 C633 0.929 . S
H620 C634 0.931 . S
H621 C636 0.930 . S
C622 H610 0.930 . S
C622 C623 1.399 1_565 S
C622 C627 1.399 . S
C623 C622 1.399 1_545 S
C623 C624 1.376 1_545 S
C624 H611 0.930 1_565 S
C624 C623 1.376 1_565 S
C624 C625 1.388 . S
C625 H612 0.930 . S
C625 C624 1.388 . S
C625 C626 1.390 . S
C626 C625 1.390 . S
C626 C627 1.394 . S
C626 C632 1.465 . S
C627 C622 1.399 . S
C627 C626 1.394 . S
C627 C628 1.516 . S
C628 C627 1.516 . S
C628 C629 1.502 . S
C628 C630 1.561 . S
C628 C631 1.526 . S
C629 H613 0.959 . S
C629 H614 0.959 . S
C629 H615 0.961 . S
C629 C628 1.502 . S
C630 H616 0.960 . S
C630 H617 0.961 . S
C630 H618 0.959 . S
C630 C628 1.561 . S
C631 C628 1.526 . S
C631 C632 1.396 . S
C631 C636 1.390 . S
C632 C626 1.465 . S
C632 C631 1.396 . S
C632 C633 1.399 . S
C633 H619 0.929 . S
C633 C632 1.399 . S
C633 C634 1.385 . S
C634 H620 0.931 . S
C634 C633 1.385 . S
C634 C635 1.389 . S
C635 C634 1.389 . S
C635 C636 1.387 . S
C636 H621 0.930 . S
C636 C631 1.390 . S
C636 C635 1.387 . S
H637 C649 0.930 . S
H638 C651 0.930 . S
H639 C652 0.930 . S
H640 C656 0.959 . S
H641 C656 0.959 . S
H642 C656 0.961 . S
H643 C657 0.960 . S
H644 C657 0.961 . S
H645 C657 0.959 . S
H646 C660 0.929 . S
H647 C661 0.931 1_545 S
H648 C663 0.930 . S
C649 H637 0.930 . S
C649 C650 1.399 . S
C649 C654 1.399 . S
C650 C649 1.399 . S
C650 C651 1.376 . S
C651 H638 0.930 . S
C651 C650 1.376 . S
C651 C652 1.388 . S
C652 H639 0.930 . S
C652 C651 1.388 . S
C652 C653 1.390 . S
C653 C652 1.390 . S
C653 C654 1.394 . S
C653 C659 1.465 . S
C654 C649 1.399 . S
C654 C653 1.394 . S
C654 C655 1.516 . S
C655 C654 1.516 . S
C655 C656 1.502 . S
C655 C657 1.561 . S
C655 C658 1.526 . S
C656 H640 0.959 . S
C656 H641 0.959 . S
C656 H642 0.961 . S
C656 C655 1.502 . S
C657 H643 0.960 . S
C657 H644 0.961 . S
C657 H645 0.959 . S
C657 C655 1.561 . S
C658 C655 1.526 . S
C658 C659 1.396 . S
C658 C663 1.390 . S
C659 C653 1.465 . S
C659 C658 1.396 . S
C659 C660 1.399 . S
C660 H646 0.929 . S
C660 C659 1.399 . S
C660 C661 1.385 . S
C661 H647 0.931 1_565 S
C661 C660 1.385 . S
C661 C662 1.389 1_565 S
C662 C661 1.389 1_545 S
C662 C663 1.387 1_545 S
C663 H648 0.930 . S
C663 C658 1.390 . S
C663 C662 1.387 1_565 S
H664 C676 0.930 . S
H665 C678 0.930 . S
H666 C679 0.930 . S
H667 C683 0.959 . S
H668 C683 0.959 . S
H669 C683 0.961 . S
H670 C684 0.960 . S
H671 C684 0.961 . S
H672 C684 0.959 . S
H673 C687 0.929 . S
H674 C688 0.931 . S
H675 C690 0.930 . S
C676 H664 0.930 . S
C676 C677 1.399 . S
C676 C681 1.399 . S
C677 C676 1.399 . S
C677 C678 1.376 . S
C678 H665 0.930 . S
C678 C677 1.376 . S
C678 C679 1.388 . S
C679 H666 0.930 . S
C679 C678 1.388 . S
C679 C680 1.390 . S
C680 C679 1.390 . S
C680 C681 1.394 . S
C680 C686 1.465 . S
C681 C676 1.399 . S
C681 C680 1.394 . S
C681 C682 1.516 . S
C682 C681 1.516 . S
C682 C683 1.502 . S
C682 C684 1.561 . S
C682 C685 1.526 . S
C683 H667 0.959 . S
C683 H668 0.959 . S
C683 H669 0.961 . S
C683 C682 1.502 . S
C684 H670 0.960 . S
C684 H671 0.961 . S
C684 H672 0.959 . S
C684 C682 1.561 . S
C685 C682 1.526 . S
C685 C686 1.396 . S
C685 C690 1.390 . S
C686 C680 1.465 . S
C686 C685 1.396 . S
C686 C687 1.399 . S
C687 H673 0.929 . S
C687 C686 1.399 . S
C687 C688 1.385 . S
C688 H674 0.931 . S
C688 C687 1.385 . S
C688 C689 1.389 . S
C689 C688 1.389 . S
C689 C690 1.387 . S
C690 H675 0.930 . S
C690 C685 1.390 . S
C690 C689 1.387 . S
H691 C703 0.930 . S
H692 C705 0.930 . S
H693 C706 0.930 . S
H694 C710 0.959 . S
H695 C710 0.959 . S
H696 C710 0.961 . S
H697 C711 0.960 . S
H698 C711 0.961 . S
H699 C711 0.959 . S
H700 C714 0.929 . S
H701 C715 0.931 . S
H702 C717 0.930 . S
C703 H691 0.930 . S
C703 C704 1.399 . S
C703 C708 1.399 . S
C704 C703 1.399 . S
C704 C705 1.376 . S
C705 H692 0.930 . S
C705 C704 1.376 . S
C705 C706 1.388 . S
C706 H693 0.930 . S
C706 C705 1.388 . S
C706 C707 1.390 . S
C707 C706 1.390 . S
C707 C708 1.394 . S
C707 C713 1.465 . S
C708 C703 1.399 . S
C708 C707 1.394 . S
C708 C709 1.516 . S
C709 C708 1.516 . S
C709 C710 1.502 . S
C709 C711 1.561 . S
C709 C712 1.526 . S
C710 H694 0.959 . S
C710 H695 0.959 . S
C710 H696 0.961 . S
C710 C709 1.502 . S
C711 H697 0.960 . S
C711 H698 0.961 . S
C711 H699 0.959 . S
C711 C709 1.561 . S
C712 C709 1.526 . S
C712 C713 1.396 . S
C712 C717 1.390 . S
C713 C707 1.465 . S
C713 C712 1.396 . S
C713 C714 1.399 . S
C714 H700 0.929 . S
C714 C713 1.399 . S
C714 C715 1.385 . S
C715 H701 0.931 . S
C715 C714 1.385 . S
C715 C716 1.389 . S
C716 C715 1.389 . S
C716 C717 1.387 . S
C717 H702 0.930 . S
C717 C712 1.390 . S
C717 C716 1.387 . S
H718 C730 0.930 . S
H719 C732 0.930 . S
H720 C733 0.930 . S
H721 C737 0.959 . S
H722 C737 0.959 . S
H723 C737 0.961 . S
H724 C738 0.960 . S
H725 C738 0.961 . S
H726 C738 0.959 . S
H727 C741 0.929 . S
H728 C742 0.931 . S
H729 C744 0.930 . S
C730 H718 0.930 . S
C730 C731 1.399 . S
C730 C735 1.399 . S
C731 C730 1.399 . S
C731 C732 1.376 . S
C732 H719 0.930 . S
C732 C731 1.376 . S
C732 C733 1.388 . S
C733 H720 0.930 . S
C733 C732 1.388 . S
C733 C734 1.390 . S
C734 C733 1.390 . S
C734 C735 1.394 . S
C734 C740 1.465 . S
C735 C730 1.399 . S
C735 C734 1.394 . S
C735 C736 1.516 . S
C736 C735 1.516 . S
C736 C737 1.502 . S
C736 C738 1.561 . S
C736 C739 1.526 . S
C737 H721 0.959 . S
C737 H722 0.959 . S
C737 H723 0.961 . S
C737 C736 1.502 . S
C738 H724 0.960 . S
C738 H725 0.961 . S
C738 H726 0.959 . S
C738 C736 1.561 . S
C739 C736 1.526 . S
C739 C740 1.396 . S
C739 C744 1.390 . S
C740 C734 1.465 . S
C740 C739 1.396 . S
C740 C741 1.399 . S
C741 H727 0.929 . S
C741 C740 1.399 . S
C741 C742 1.385 . S
C742 H728 0.931 . S
C742 C741 1.385 . S
C742 C743 1.389 . S
C743 C742 1.389 . S
C743 C744 1.387 . S
C744 H729 0.930 . S
C744 C739 1.390 . S
C744 C743 1.387 . S
H745 C757 0.930 . S
H746 C759 0.930 . S
H747 C760 0.930 . S
H748 C764 0.959 . S
H749 C764 0.959 . S
H750 C764 0.961 . S
H751 C765 0.960 . S
H752 C765 0.961 . S
H753 C765 0.959 . S
H754 C768 0.929 . S
H755 C769 0.931 . S
H756 C771 0.930 . S
C757 H745 0.930 . S
C757 C758 1.399 . S
C757 C762 1.399 . S
C758 C757 1.399 . S
C758 C759 1.376 . S
C759 H746 0.930 . S
C759 C758 1.376 . S
C759 C760 1.388 . S
C760 H747 0.930 . S
C760 C759 1.388 . S
C760 C761 1.390 . S
C761 C760 1.390 . S
C761 C762 1.394 . S
C761 C767 1.465 . S
C762 C757 1.399 . S
C762 C761 1.394 . S
C762 C763 1.516 . S
C763 C762 1.516 . S
C763 C764 1.502 . S
C763 C765 1.561 . S
C763 C766 1.526 . S
C764 H748 0.959 . S
C764 H749 0.959 . S
C764 H750 0.961 . S
C764 C763 1.502 . S
C765 H751 0.960 . S
C765 H752 0.961 . S
C765 H753 0.959 . S
C765 C763 1.561 . S
C766 C763 1.526 . S
C766 C767 1.396 . S
C766 C771 1.390 . S
C767 C761 1.465 . S
C767 C766 1.396 . S
C767 C768 1.399 . S
C768 H754 0.929 . S
C768 C767 1.399 . S
C768 C769 1.385 . S
C769 H755 0.931 . S
C769 C768 1.385 . S
C769 C770 1.389 . S
C770 C769 1.389 . S
C770 C771 1.387 . S
C771 H756 0.930 . S
C771 C766 1.390 . S
C771 C770 1.387 . S
H772 C784 0.930 . S
H773 C786 0.930 . S
H774 C787 0.930 . S
H775 C791 0.959 . S
H776 C791 0.959 . S
H777 C791 0.961 . S
H778 C792 0.960 . S
H779 C792 0.961 . S
H780 C792 0.959 . S
H781 C795 0.929 . S
H782 C796 0.931 1_565 S
H783 C798 0.930 . S
C784 H772 0.930 . S
C784 C785 1.399 . S
C784 C789 1.399 . S
C785 C784 1.399 . S
C785 C786 1.376 . S
C786 H773 0.930 . S
C786 C785 1.376 . S
C786 C787 1.388 . S
C787 H774 0.930 . S
C787 C786 1.388 . S
C787 C788 1.390 . S
C788 C787 1.390 . S
C788 C789 1.394 . S
C788 C794 1.465 . S
C789 C784 1.399 . S
C789 C788 1.394 . S
C789 C790 1.516 . S
C790 C789 1.516 . S
C790 C791 1.502 . S
C790 C792 1.561 . S
C790 C793 1.526 . S
C791 H775 0.959 . S
C791 H776 0.959 . S
C791 H777 0.961 . S
C791 C790 1.502 . S
C792 H778 0.960 . S
C792 H779 0.961 . S
C792 H780 0.959 . S
C792 C790 1.561 . S
C793 C790 1.526 . S
C793 C794 1.396 . S
C793 C798 1.390 . S
C794 C788 1.465 . S
C794 C793 1.396 . S
C794 C795 1.399 . S
C795 H781 0.929 . S
C795 C794 1.399 . S
C795 C796 1.385 . S
C796 H782 0.931 1_545 S
C796 C795 1.385 . S
C796 C797 1.389 1_545 S
C797 C796 1.389 1_565 S
C797 C798 1.387 1_565 S
C798 H783 0.930 . S
C798 C793 1.390 . S
C798 C797 1.387 1_545 S
H799 C811 0.930 . S
H800 C813 0.930 1_565 S
H801 C814 0.930 . S
H802 C818 0.959 . S
H803 C818 0.959 . S
H804 C818 0.961 . S
H805 C819 0.960 . S
H806 C819 0.961 . S
H807 C819 0.959 . S
H808 C822 0.929 . S
H809 C823 0.931 . S
H810 C825 0.930 . S
C811 H799 0.930 . S
C811 C812 1.399 1_545 S
C811 C816 1.399 . S
C812 C811 1.399 1_565 S
C812 C813 1.376 1_565 S
C813 H800 0.930 1_545 S
C813 C812 1.376 1_545 S
C813 C814 1.388 . S
C814 H801 0.930 . S
C814 C813 1.388 . S
C814 C815 1.390 . S
C815 C814 1.390 . S
C815 C816 1.394 . S
C815 C821 1.465 . S
C816 C811 1.399 . S
C816 C815 1.394 . S
C816 C817 1.516 . S
C817 C816 1.516 . S
C817 C818 1.502 . S
C817 C819 1.561 . S
C817 C820 1.526 . S
C818 H802 0.959 . S
C818 H803 0.959 . S
C818 H804 0.961 . S
C818 C817 1.502 . S
C819 H805 0.960 . S
C819 H806 0.961 . S
C819 H807 0.959 . S
C819 C817 1.561 . S
C820 C817 1.526 . S
C820 C821 1.396 . S
C820 C825 1.390 . S
C821 C815 1.465 . S
C821 C820 1.396 . S
C821 C822 1.399 . S
C822 H808 0.929 . S
C822 C821 1.399 . S
C822 C823 1.385 . S
C823 H809 0.931 . S
C823 C822 1.385 . S
C823 C824 1.389 . S
C824 C823 1.389 . S
C824 C825 1.387 . S
C825 H810 0.930 . S
C825 C820 1.390 . S
C825 C824 1.387 . S
H826 C838 0.930 . S
H827 C840 0.930 . S
H828 C841 0.930 . S
H829 C845 0.959 . S
H830 C845 0.959 . S
H831 C845 0.961 . S
H832 C846 0.960 . S
H833 C846 0.961 . S
H834 C846 0.959 . S
H835 C849 0.929 . S
H836 C850 0.931 1_545 S
H837 C852 0.930 . S
C838 H826 0.930 . S
C838 C839 1.399 . S
C838 C843 1.399 . S
C839 C838 1.399 . S
C839 C840 1.376 . S
C840 H827 0.930 . S
C840 C839 1.376 . S
C840 C841 1.388 . S
C841 H828 0.930 . S
C841 C840 1.388 . S
C841 C842 1.390 . S
C842 C841 1.390 . S
C842 C843 1.394 . S
C842 C848 1.465 . S
C843 C838 1.399 . S
C843 C842 1.394 . S
C843 C844 1.516 . S
C844 C843 1.516 . S
C844 C845 1.502 . S
C844 C846 1.561 . S
C844 C847 1.526 . S
C845 H829 0.959 . S
C845 H830 0.959 . S
C845 H831 0.961 . S
C845 C844 1.502 . S
C846 H832 0.960 . S
C846 H833 0.961 . S
C846 H834 0.959 . S
C846 C844 1.561 . S
C847 C844 1.526 . S
C847 C848 1.396 . S
C847 C852 1.390 . S
C848 C842 1.465 . S
C848 C847 1.396 . S
C848 C849 1.399 . S
C849 H835 0.929 . S
C849 C848 1.399 . S
C849 C850 1.385 . S
C850 H836 0.931 1_565 S
C850 C849 1.385 . S
C850 C851 1.389 1_565 S
C851 C850 1.389 1_545 S
C851 C852 1.387 1_545 S
C852 H837 0.930 . S
C852 C847 1.390 . S
C852 C851 1.387 1_565 S
H853 C865 0.930 . S
H854 C867 0.930 . S
H855 C868 0.930 . S
H856 C872 0.959 . S
H857 C872 0.959 . S
H858 C872 0.961 . S
H859 C873 0.960 . S
H860 C873 0.961 . S
H861 C873 0.959 . S
H862 C876 0.929 . S
H863 C877 0.931 1_545 S
H864 C879 0.930 . S
C865 H853 0.930 . S
C865 C866 1.399 . S
C865 C870 1.399 . S
C866 C865 1.399 . S
C866 C867 1.376 . S
C867 H854 0.930 . S
C867 C866 1.376 . S
C867 C868 1.388 . S
C868 H855 0.930 . S
C868 C867 1.388 . S
C868 C869 1.390 . S
C869 C868 1.390 . S
C869 C870 1.394 . S
C869 C875 1.465 . S
C870 C865 1.399 . S
C870 C869 1.394 . S
C870 C871 1.516 . S
C871 C870 1.516 . S
C871 C872 1.502 . S
C871 C873 1.561 . S
C871 C874 1.526 . S
C872 H856 0.959 . S
C872 H857 0.959 . S
C872 H858 0.961 . S
C872 C871 1.502 . S
C873 H859 0.960 . S
C873 H860 0.961 . S
C873 H861 0.959 . S
C873 C871 1.561 . S
C874 C871 1.526 . S
C874 C875 1.396 . S
C874 C879 1.390 . S
C875 C869 1.465 . S
C875 C874 1.396 . S
C875 C876 1.399 . S
C876 H862 0.929 . S
C876 C875 1.399 . S
C876 C877 1.385 . S
C877 H863 0.931 1_565 S
C877 C876 1.385 . S
C877 C878 1.389 1_565 S
C878 C877 1.389 1_545 S
C878 C879 1.387 1_545 S
C879 H864 0.930 . S
C879 C874 1.390 . S
C879 C878 1.387 1_565 S
H880 C892 0.930 . S
H881 C894 0.930 . S
H882 C895 0.930 1_554 S
H883 C899 0.959 . S
H884 C899 0.959 1_455 S
H885 C899 0.961 . S
H886 C900 0.960 . S
H887 C900 0.961 . S
H888 C900 0.959 . S
H889 C903 0.929 . S
H890 C904 0.931 . S
H891 C906 0.930 . S
C892 H880 0.930 . S
C892 C893 1.399 . S
C892 C897 1.399 . S
C893 C892 1.399 . S
C893 C894 1.376 . S
C894 H881 0.930 . S
C894 C893 1.376 . S
C894 C895 1.388 . S
C895 H882 0.930 1_556 S
C895 C894 1.388 . S
C895 C896 1.390 . S
C896 C895 1.390 . S
C896 C897 1.394 . S
C896 C902 1.465 1_656 S
C897 C892 1.399 . S
C897 C896 1.394 . S
C897 C898 1.516 1_655 S
C898 C897 1.516 1_455 S
C898 C899 1.502 1_455 S
C898 C900 1.561 . S
C898 C901 1.526 1_556 S
C899 H883 0.959 . S
C899 H884 0.959 1_655 S
C899 H885 0.961 . S
C899 C898 1.502 1_655 S
C900 H886 0.960 . S
C900 H887 0.961 . S
C900 H888 0.959 . S
C900 C898 1.561 . S
C901 C898 1.526 1_554 S
C901 C902 1.396 . S
C901 C906 1.390 . S
C902 C896 1.465 1_454 S
C902 C901 1.396 . S
C902 C903 1.399 . S
C903 H889 0.929 . S
C903 C902 1.399 . S
C903 C904 1.385 . S
C904 H890 0.931 . S
C904 C903 1.385 . S
C904 C905 1.389 . S
C905 C904 1.389 . S
C905 C906 1.387 . S
C906 H891 0.930 . S
C906 C901 1.390 . S
C906 C905 1.387 . S
H907 C919 0.930 . S
H908 C921 0.930 . S
H909 C922 0.930 . S
H910 C926 0.959 . S
H911 C926 0.959 . S
H912 C926 0.961 . S
H913 C927 0.960 . S
H914 C927 0.961 1_554 S
H915 C927 0.959 . S
H916 C930 0.929 . S
H917 C931 0.931 . S
H918 C933 0.930 . S
C919 H907 0.930 . S
C919 C920 1.399 . S
C919 C924 1.399 . S
C920 C919 1.399 . S
C920 C921 1.376 . S
C921 H908 0.930 . S
C921 C920 1.376 . S
C921 C922 1.388 . S
C922 H909 0.930 . S
C922 C921 1.388 . S
C922 C923 1.390 . S
C923 C922 1.390 . S
C923 C924 1.394 . S
C923 C929 1.465 1_556 S
C924 C919 1.399 . S
C924 C923 1.394 . S
C924 C925 1.516 1_556 S
C925 C924 1.516 1_554 S
C925 C926 1.502 . S
C925 C927 1.561 1_554 S
C925 C928 1.526 . S
C926 H910 0.959 . S
C926 H911 0.959 . S
C926 H912 0.961 . S
C926 C925 1.502 . S
C927 H913 0.960 . S
C927 H914 0.961 1_556 S
C927 H915 0.959 . S
C927 C925 1.561 1_556 S
C928 C925 1.526 . S
C928 C929 1.396 . S
C928 C933 1.390 . S
C929 C923 1.465 1_554 S
C929 C928 1.396 . S
C929 C930 1.399 . S
C930 H916 0.929 . S
C930 C929 1.399 . S
C930 C931 1.385 . S
C931 H917 0.931 . S
C931 C930 1.385 . S
C931 C932 1.389 . S
C932 C931 1.389 . S
C932 C933 1.387 . S
C933 H918 0.930 . S
C933 C928 1.390 . S
C933 C932 1.387 . S
H934 C946 0.930 . S
H935 C948 0.930 . S
H936 C949 0.930 . S
H937 C953 0.959 . S
H938 C953 0.959 . S
H939 C953 0.961 . S
H940 C954 0.963 1_455 S
H941 C954 0.958 . S
H942 C954 0.955 . S
H943 C957 0.929 . S
H944 C958 0.931 . S
H945 C960 0.930 . S
C946 H934 0.930 . S
C946 C947 1.399 . S
C946 C951 1.399 . S
C947 C946 1.399 . S
C947 C948 1.376 . S
C948 H935 0.930 . S
C948 C947 1.376 . S
C948 C949 1.388 1_455 S
C949 H936 0.930 . S
C949 C948 1.388 1_655 S
C949 C950 1.390 . S
C950 C949 1.390 . S
C950 C951 1.394 1_655 S
C950 C956 1.465 . S
C951 C946 1.399 . S
C951 C950 1.394 1_455 S
C951 C952 1.516 . S
C952 C951 1.516 . S
C952 C953 1.502 . S
C952 C954 1.563 1_455 S
C952 C955 1.526 1_455 S
C953 H937 0.959 . S
C953 H938 0.959 . S
C953 H939 0.961 . S
C953 C952 1.502 . S
C954 H940 0.963 1_655 S
C954 H941 0.958 . S
C954 H942 0.955 . S
C954 C952 1.563 1_655 S
C955 C952 1.526 1_655 S
C955 C956 1.396 . S
C955 C960 1.390 . S
C956 C950 1.465 . S
C956 C955 1.396 . S
C956 C957 1.399 . S
C957 H943 0.929 . S
C957 C956 1.399 . S
C957 C958 1.385 . S
C958 H944 0.931 . S
C958 C957 1.385 . S
C958 C959 1.389 . S
C959 C958 1.389 . S
C959 C960 1.387 . S
C960 H945 0.930 . S
C960 C955 1.390 . S
C960 C959 1.387 . S
H961 C973 0.930 . S
H962 C975 0.930 . S
H963 C976 0.930 . S
H964 C980 0.959 . S
H965 C980 0.959 . S
H966 C980 0.961 . S
H967 C981 0.960 . S
H968 C981 0.961 . S
H969 C981 0.959 . S
H970 C984 0.929 . S
H971 C985 0.931 . S
H972 C987 0.930 . S
C973 H961 0.930 . S
C973 C974 1.399 . S
C973 C978 1.399 . S
C974 C973 1.399 . S
C974 C975 1.376 . S
C975 H962 0.930 . S
C975 C974 1.376 . S
C975 C976 1.388 . S
C976 H963 0.930 . S
C976 C975 1.388 . S
C976 C977 1.390 . S
C977 C976 1.390 . S
C977 C978 1.394 . S
C977 C983 1.465 . S
C978 C973 1.399 . S
C978 C977 1.394 . S
C978 C979 1.516 . S
C979 C978 1.516 . S
C979 C980 1.502 . S
C979 C981 1.561 . S
C979 C982 1.526 . S
C980 H964 0.959 . S
C980 H965 0.959 . S
C980 H966 0.961 . S
C980 C979 1.502 . S
C981 H967 0.960 . S
C981 H968 0.961 . S
C981 H969 0.959 . S
C981 C979 1.561 . S
C982 C979 1.526 . S
C982 C983 1.396 . S
C982 C987 1.390 . S
C983 C977 1.465 . S
C983 C982 1.396 . S
C983 C984 1.399 . S
C984 H970 0.929 . S
C984 C983 1.399 . S
C984 C985 1.385 . S
C985 H971 0.931 . S
C985 C984 1.385 . S
C985 C986 1.389 . S
C986 C985 1.389 . S
C986 C987 1.387 . S
C987 H972 0.930 . S
C987 C982 1.390 . S
C987 C986 1.387 . S
H988 C1000 0.930 . S
H989 C1002 0.930 . S
H990 C1003 0.930 . S
H991 C1007 0.959 . S
H992 C1007 0.959 . S
H993 C1007 0.961 . S
H994 C1008 0.960 . S
H995 C1008 0.961 . S
H996 C1008 0.959 . S
H997 C1011 0.929 1_556 S
H998 C1012 0.931 . S
H999 C1014 0.930 . S
C1000 H988 0.930 . S
C1000 C1001 1.399 . S
C1000 C1005 1.399 . S
C1001 C1000 1.399 . S
C1001 C1002 1.376 . S
C1002 H989 0.930 . S
C1002 C1001 1.376 . S
C1002 C1003 1.388 . S
C1003 H990 0.930 . S
C1003 C1002 1.388 . S
C1003 C1004 1.390 . S
C1004 C1003 1.390 . S
C1004 C1005 1.394 . S
C1004 C1010 1.465 1_556 S
C1005 C1000 1.399 . S
C1005 C1004 1.394 . S
C1005 C1006 1.516 1_556 S
C1006 C1005 1.516 1_554 S
C1006 C1007 1.502 . S
C1006 C1008 1.561 . S
C1006 C1009 1.526 . S
C1007 H991 0.959 . S
C1007 H992 0.959 . S
C1007 H993 0.961 . S
C1007 C1006 1.502 . S
C1008 H994 0.960 . S
C1008 H995 0.961 . S
C1008 H996 0.959 . S
C1008 C1006 1.561 . S
C1009 C1006 1.526 . S
C1009 C1010 1.396 . S
C1009 C1014 1.390 . S
C1010 C1004 1.465 1_554 S
C1010 C1009 1.396 . S
C1010 C1011 1.399 . S
C1011 H997 0.929 1_554 S
C1011 C1010 1.399 . S
C1011 C1012 1.385 . S
C1012 H998 0.931 . S
C1012 C1011 1.385 . S
C1012 C1013 1.389 . S
C1013 C1012 1.389 . S
C1013 C1014 1.387 . S
C1014 H999 0.930 . S
C1014 C1009 1.390 . S
C1014 C1013 1.387 . S
H1015 C1027 0.930 1_455 S
H1016 C1029 0.930 . S
H1017 C1030 0.930 . S
H1018 C1034 0.959 . S
H1019 C1034 0.959 . S
H1020 C1034 0.961 . S
H1021 C1035 0.960 . S
H1022 C1035 0.961 . S
H1023 C1035 0.959 . S
H1024 C1038 0.929 . S
H1025 C1039 0.931 1_655 S
H1026 C1041 0.930 . S
C1027 H1015 0.930 1_655 S
C1027 C1028 1.399 . S
C1027 C1032 1.409 . S
C1028 C1027 1.399 . S
C1028 C1029 1.376 . S
C1029 H1016 0.930 . S
C1029 C1028 1.376 . S
C1029 C1030 1.388 . S
C1030 H1017 0.930 . S
C1030 C1029 1.388 . S
C1030 C1031 1.390 . S
C1031 C1030 1.390 . S
C1031 C1032 1.416 . S
C1031 C1037 1.465 . S
C1032 C1027 1.409 . S
C1032 C1031 1.416 . S
C1032 C1033 1.487 1_655 S
C1033 C1032 1.487 1_455 S
C1033 C1034 1.502 . S
C1033 C1035 1.561 . S
C1033 C1036 1.526 . S
C1034 H1018 0.959 . S
C1034 H1019 0.959 . S
C1034 H1020 0.961 . S
C1034 C1033 1.502 . S
C1035 H1021 0.960 . S
C1035 H1022 0.961 . S
C1035 H1023 0.959 . S
C1035 C1033 1.561 . S
C1036 C1033 1.526 . S
C1036 C1037 1.396 1_455 S
C1036 C1041 1.390 . S
C1037 C1031 1.465 . S
C1037 C1036 1.396 1_655 S
C1037 C1038 1.399 . S
C1038 H1024 0.929 . S
C1038 C1037 1.399 . S
C1038 C1039 1.385 1_655 S
C1039 H1025 0.931 1_455 S
C1039 C1038 1.385 1_455 S
C1039 C1040 1.389 . S
C1040 C1039 1.389 . S
C1040 C1041 1.387 . S
C1041 H1026 0.930 . S
C1041 C1036 1.390 . S
C1041 C1040 1.387 . S
H1042 C1054 0.930 . S
H1043 C1056 0.930 . S
H1044 C1057 0.930 . S
H1045 C1061 0.959 . S
H1046 C1061 0.959 . S
H1047 C1061 0.961 . S
H1048 C1062 0.960 . S
H1049 C1062 0.961 . S
H1050 C1062 0.959 . S
H1051 C1065 0.929 . S
H1052 C1066 0.931 . S
H1053 C1068 0.930 . S
C1054 H1042 0.930 . S
C1054 C1055 1.399 . S
C1054 C1059 1.399 . S
C1055 C1054 1.399 . S
C1055 C1056 1.376 . S
C1056 H1043 0.930 . S
C1056 C1055 1.376 . S
C1056 C1057 1.388 . S
C1057 H1044 0.930 . S
C1057 C1056 1.388 . S
C1057 C1058 1.390 . S
C1058 C1057 1.390 . S
C1058 C1059 1.394 . S
C1058 C1064 1.465 . S
C1059 C1054 1.399 . S
C1059 C1058 1.394 . S
C1059 C1060 1.516 . S
C1060 C1059 1.516 . S
C1060 C1061 1.502 . S
C1060 C1062 1.561 . S
C1060 C1063 1.526 . S
C1061 H1045 0.959 . S
C1061 H1046 0.959 . S
C1061 H1047 0.961 . S
C1061 C1060 1.502 . S
C1062 H1048 0.960 . S
C1062 H1049 0.961 . S
C1062 H1050 0.959 . S
C1062 C1060 1.561 . S
C1063 C1060 1.526 . S
C1063 C1064 1.396 . S
C1063 C1068 1.390 . S
C1064 C1058 1.465 . S
C1064 C1063 1.396 . S
C1064 C1065 1.399 . S
C1065 H1051 0.929 . S
C1065 C1064 1.399 . S
C1065 C1066 1.385 . S
C1066 H1052 0.931 . S
C1066 C1065 1.385 . S
C1066 C1067 1.389 . S
C1067 C1066 1.389 . S
C1067 C1068 1.387 . S
C1068 H1053 0.930 . S
C1068 C1063 1.390 . S
C1068 C1067 1.387 . S
H1069 C1081 0.930 1_455 S
H1070 C1083 0.930 . S
H1071 C1084 0.930 . S
H1072 C1088 0.959 . S
H1073 C1088 0.959 . S
H1074 C1088 0.961 . S
H1075 C1089 0.960 . S
H1076 C1089 0.961 . S
H1077 C1089 0.959 . S
H1078 C1092 0.929 . S
H1079 C1093 0.924 1_655 S
H1080 C1095 0.930 . S
C1081 H1069 0.930 1_655 S
C1081 C1082 1.399 . S
C1081 C1086 1.397 1_655 S
C1082 C1081 1.399 . S
C1082 C1083 1.376 . S
C1083 H1070 0.930 . S
C1083 C1082 1.376 . S
C1083 C1084 1.388 . S
C1084 H1071 0.930 . S
C1084 C1083 1.388 . S
C1084 C1085 1.390 . S
C1085 C1084 1.390 . S
C1085 C1086 1.390 1_655 S
C1085 C1091 1.465 1_545 S
C1086 C1081 1.397 1_455 S
C1086 C1085 1.390 1_455 S
C1086 C1087 1.521 1_545 S
C1087 C1086 1.521 1_565 S
C1087 C1088 1.502 . S
C1087 C1089 1.561 1_565 S
C1087 C1090 1.526 . S
C1088 H1072 0.959 . S
C1088 H1073 0.959 . S
C1088 H1074 0.961 . S
C1088 C1087 1.502 . S
C1089 H1075 0.960 . S
C1089 H1076 0.961 . S
C1089 H1077 0.959 . S
C1089 C1087 1.561 1_545 S
C1090 C1087 1.526 . S
C1090 C1091 1.396 1_455 S
C1090 C1095 1.390 . S
C1091 C1085 1.465 1_565 S
C1091 C1090 1.396 1_655 S
C1091 C1092 1.399 . S
C1092 H1078 0.929 . S
C1092 C1091 1.399 . S
C1092 C1093 1.385 1_655 S
C1093 H1079 0.924 1_455 S
C1093 C1092 1.385 1_455 S
C1093 C1094 1.389 . S
C1094 C1093 1.389 . S
C1094 C1095 1.387 . S
C1095 H1080 0.930 . S
C1095 C1090 1.390 . S
C1095 C1094 1.387 . S
H1096 C1108 0.930 . S
H1097 C1110 0.930 . S
H1098 C1111 0.930 . S
H1099 C1115 0.959 . S
H1100 C1115 0.959 . S
H1101 C1115 0.961 . S
H1102 C1116 0.960 . S
H1103 C1116 0.961 . S
H1104 C1116 0.959 . S
H1105 C1119 0.929 . S
H1106 C1120 0.931 . S
H1107 C1122 0.930 . S
C1108 H1096 0.930 . S
C1108 C1109 1.399 . S
C1108 C1113 1.399 . S
C1109 C1108 1.399 . S
C1109 C1110 1.376 . S
C1110 H1097 0.930 . S
C1110 C1109 1.376 . S
C1110 C1111 1.388 . S
C1111 H1098 0.930 . S
C1111 C1110 1.388 . S
C1111 C1112 1.390 . S
C1112 C1111 1.390 . S
C1112 C1113 1.394 . S
C1112 C1118 1.465 . S
C1113 C1108 1.399 . S
C1113 C1112 1.394 . S
C1113 C1114 1.516 . S
C1114 C1113 1.516 . S
C1114 C1115 1.502 . S
C1114 C1116 1.561 . S
C1114 C1117 1.526 . S
C1115 H1099 0.959 . S
C1115 H1100 0.959 . S
C1115 H1101 0.961 . S
C1115 C1114 1.502 . S
C1116 H1102 0.960 . S
C1116 H1103 0.961 . S
C1116 H1104 0.959 . S
C1116 C1114 1.561 . S
C1117 C1114 1.526 . S
C1117 C1118 1.396 . S
C1117 C1122 1.390 . S
C1118 C1112 1.465 . S
C1118 C1117 1.396 . S
C1118 C1119 1.399 . S
C1119 H1105 0.929 . S
C1119 C1118 1.399 . S
C1119 C1120 1.385 . S
C1120 H1106 0.931 . S
C1120 C1119 1.385 . S
C1120 C1121 1.389 . S
C1121 C1120 1.389 . S
C1121 C1122 1.387 . S
C1122 H1107 0.930 . S
C1122 C1117 1.390 . S
C1122 C1121 1.387 . S
H1123 C1135 0.930 . S
H1124 C1137 0.930 . S
H1125 C1138 0.930 . S
H1126 C1142 0.959 . S
H1127 C1142 0.959 . S
H1128 C1142 0.961 . S
H1129 C1143 0.960 . S
H1130 C1143 0.961 . S
H1131 C1143 0.959 . S
H1132 C1146 0.929 . S
H1133 C1147 0.931 . S
H1134 C1149 0.930 . S
C1135 H1123 0.930 . S
C1135 C1136 1.399 . S
C1135 C1140 1.399 . S
C1136 C1135 1.399 . S
C1136 C1137 1.376 . S
C1137 H1124 0.930 . S
C1137 C1136 1.376 . S
C1137 C1138 1.388 . S
C1138 H1125 0.930 . S
C1138 C1137 1.388 . S
C1138 C1139 1.390 . S
C1139 C1138 1.390 . S
C1139 C1140 1.394 . S
C1139 C1145 1.465 1_565 S
C1140 C1135 1.399 . S
C1140 C1139 1.394 . S
C1140 C1141 1.516 1_565 S
C1141 C1140 1.516 1_545 S
C1141 C1142 1.502 . S
C1141 C1143 1.561 . S
C1141 C1144 1.526 . S
C1142 H1126 0.959 . S
C1142 H1127 0.959 . S
C1142 H1128 0.961 . S
C1142 C1141 1.502 . S
C1143 H1129 0.960 . S
C1143 H1130 0.961 . S
C1143 H1131 0.959 . S
C1143 C1141 1.561 . S
C1144 C1141 1.526 . S
C1144 C1145 1.396 . S
C1144 C1149 1.390 . S
C1145 C1139 1.465 1_545 S
C1145 C1144 1.396 . S
C1145 C1146 1.399 1_545 S
C1146 H1132 0.929 . S
C1146 C1145 1.399 1_565 S
C1146 C1147 1.385 1_565 S
C1147 H1133 0.931 . S
C1147 C1146 1.385 1_545 S
C1147 C1148 1.389 . S
C1148 C1147 1.389 . S
C1148 C1149 1.387 . S
C1149 H1134 0.930 . S
C1149 C1144 1.390 . S
C1149 C1148 1.387 . S
H1150 C1162 0.930 . S
H1151 C1164 0.930 . S
H1152 C1165 0.930 . S
H1153 C1169 0.959 . S
H1154 C1169 0.959 . S
H1155 C1169 0.961 . S
H1156 C1170 0.960 . S
H1157 C1170 0.961 . S
H1158 C1170 0.959 . S
H1159 C1173 0.929 . S
H1160 C1174 0.931 . S
H1161 C1176 0.930 . S
C1162 H1150 0.930 . S
C1162 C1163 1.399 . S
C1162 C1167 1.399 . S
C1163 C1162 1.399 . S
C1163 C1164 1.376 . S
C1164 H1151 0.930 . S
C1164 C1163 1.376 . S
C1164 C1165 1.388 . S
C1165 H1152 0.930 . S
C1165 C1164 1.388 . S
C1165 C1166 1.390 . S
C1166 C1165 1.390 . S
C1166 C1167 1.394 . S
C1166 C1172 1.465 . S
C1167 C1162 1.399 . S
C1167 C1166 1.394 . S
C1167 C1168 1.516 . S
C1168 C1167 1.516 . S
C1168 C1169 1.502 . S
C1168 C1170 1.561 . S
C1168 C1171 1.526 . S
C1169 H1153 0.959 . S
C1169 H1154 0.959 . S
C1169 H1155 0.961 . S
C1169 C1168 1.502 . S
C1170 H1156 0.960 . S
C1170 H1157 0.961 . S
C1170 H1158 0.959 . S
C1170 C1168 1.561 . S
C1171 C1168 1.526 . S
C1171 C1172 1.396 . S
C1171 C1176 1.390 . S
C1172 C1166 1.465 . S
C1172 C1171 1.396 . S
C1172 C1173 1.399 . S
C1173 H1159 0.929 . S
C1173 C1172 1.399 . S
C1173 C1174 1.385 . S
C1174 H1160 0.931 . S
C1174 C1173 1.385 . S
C1174 C1175 1.389 . S
C1175 C1174 1.389 . S
C1175 C1176 1.387 . S
C1176 H1161 0.930 . S
C1176 C1171 1.390 . S
C1176 C1175 1.387 . S
H1177 C1189 0.930 1_545 S
H1178 C1191 0.930 . S
H1179 C1192 0.930 . S
H1180 C1196 0.959 . S
H1181 C1196 0.959 . S
H1182 C1196 0.961 . S
H1183 C1197 0.960 . S
H1184 C1197 0.961 . S
H1185 C1197 0.959 . S
H1186 C1200 0.929 . S
H1187 C1201 0.931 . S
H1188 C1203 0.930 . S
C1189 H1177 0.930 1_565 S
C1189 C1190 1.399 . S
C1189 C1194 1.402 . S
C1190 C1189 1.399 . S
C1190 C1191 1.376 . S
C1191 H1178 0.930 . S
C1191 C1190 1.376 . S
C1191 C1192 1.388 . S
C1192 H1179 0.930 . S
C1192 C1191 1.388 . S
C1192 C1193 1.390 . S
C1193 C1192 1.390 . S
C1193 C1194 1.399 . S
C1193 C1199 1.465 . S
C1194 C1189 1.402 . S
C1194 C1193 1.399 . S
C1194 C1195 1.508 1_565 S
C1195 C1194 1.508 1_545 S
C1195 C1196 1.502 . S
C1195 C1197 1.561 . S
C1195 C1198 1.526 . S
C1196 H1180 0.959 . S
C1196 H1181 0.959 . S
C1196 H1182 0.961 . S
C1196 C1195 1.502 . S
C1197 H1183 0.960 . S
C1197 H1184 0.961 . S
C1197 H1185 0.959 . S
C1197 C1195 1.561 . S
C1198 C1195 1.526 . S
C1198 C1199 1.396 1_545 S
C1198 C1203 1.390 . S
C1199 C1193 1.465 . S
C1199 C1198 1.396 1_565 S
C1199 C1200 1.399 . S
C1200 H1186 0.929 . S
C1200 C1199 1.399 . S
C1200 C1201 1.385 1_565 S
C1201 H1187 0.931 . S
C1201 C1200 1.385 1_545 S
C1201 C1202 1.389 . S
C1202 C1201 1.389 . S
C1202 C1203 1.387 . S
C1203 H1188 0.930 . S
C1203 C1198 1.390 . S
C1203 C1202 1.387 . S
H1204 C1216 0.930 . S
H1205 C1218 0.930 . S
H1206 C1219 0.930 . S
H1207 C1223 0.959 . S
H1208 C1223 0.959 . S
H1209 C1223 0.961 . S
H1210 C1224 0.960 . S
H1211 C1224 0.961 . S
H1212 C1224 0.959 . S
H1213 C1227 0.929 . S
H1214 C1228 0.931 . S
H1215 C1230 0.930 . S
C1216 H1204 0.930 . S
C1216 C1217 1.399 . S
C1216 C1221 1.399 . S
C1217 C1216 1.399 . S
C1217 C1218 1.376 . S
C1218 H1205 0.930 . S
C1218 C1217 1.376 . S
C1218 C1219 1.388 . S
C1219 H1206 0.930 . S
C1219 C1218 1.388 . S
C1219 C1220 1.390 . S
C1220 C1219 1.390 . S
C1220 C1221 1.394 . S
C1220 C1226 1.465 . S
C1221 C1216 1.399 . S
C1221 C1220 1.394 . S
C1221 C1222 1.516 . S
C1222 C1221 1.516 . S
C1222 C1223 1.502 . S
C1222 C1224 1.561 . S
C1222 C1225 1.526 . S
C1223 H1207 0.959 . S
C1223 H1208 0.959 . S
C1223 H1209 0.961 . S
C1223 C1222 1.502 . S
C1224 H1210 0.960 . S
C1224 H1211 0.961 . S
C1224 H1212 0.959 . S
C1224 C1222 1.561 . S
C1225 C1222 1.526 . S
C1225 C1226 1.396 . S
C1225 C1230 1.390 . S
C1226 C1220 1.465 . S
C1226 C1225 1.396 . S
C1226 C1227 1.399 . S
C1227 H1213 0.929 . S
C1227 C1226 1.399 . S
C1227 C1228 1.385 . S
C1228 H1214 0.931 . S
C1228 C1227 1.385 . S
C1228 C1229 1.389 . S
C1229 C1228 1.389 . S
C1229 C1230 1.387 . S
C1230 H1215 0.930 . S
C1230 C1225 1.390 . S
C1230 C1229 1.387 . S
H1231 C1243 0.930 . S
H1232 C1245 0.930 . S
H1233 C1246 0.930 . S
H1234 C1250 0.959 . S
H1235 C1250 0.959 . S
H1236 C1250 0.961 . S
H1237 C1251 0.960 . S
H1238 C1251 0.961 . S
H1239 C1251 0.959 . S
H1240 C1254 0.929 . S
H1241 C1255 0.931 . S
H1242 C1257 0.930 . S
C1243 H1231 0.930 . S
C1243 C1244 1.399 . S
C1243 C1248 1.399 . S
C1244 C1243 1.399 . S
C1244 C1245 1.376 . S
C1245 H1232 0.930 . S
C1245 C1244 1.376 . S
C1245 C1246 1.388 . S
C1246 H1233 0.930 . S
C1246 C1245 1.388 . S
C1246 C1247 1.390 . S
C1247 C1246 1.390 . S
C1247 C1248 1.394 . S
C1247 C1253 1.465 . S
C1248 C1243 1.399 . S
C1248 C1247 1.394 . S
C1248 C1249 1.516 . S
C1249 C1248 1.516 . S
C1249 C1250 1.502 . S
C1249 C1251 1.561 . S
C1249 C1252 1.526 . S
C1250 H1234 0.959 . S
C1250 H1235 0.959 . S
C1250 H1236 0.961 . S
C1250 C1249 1.502 . S
C1251 H1237 0.960 . S
C1251 H1238 0.961 . S
C1251 H1239 0.959 . S
C1251 C1249 1.561 . S
C1252 C1249 1.526 . S
C1252 C1253 1.396 . S
C1252 C1257 1.390 . S
C1253 C1247 1.465 . S
C1253 C1252 1.396 . S
C1253 C1254 1.399 . S
C1254 H1240 0.929 . S
C1254 C1253 1.399 . S
C1254 C1255 1.385 . S
C1255 H1241 0.931 . S
C1255 C1254 1.385 . S
C1255 C1256 1.389 . S
C1256 C1255 1.389 . S
C1256 C1257 1.387 . S
C1257 H1242 0.930 . S
C1257 C1252 1.390 . S
C1257 C1256 1.387 . S
H1258 C1270 0.930 . S
H1259 C1272 0.930 . S
H1260 C1273 0.930 . S
H1261 C1277 0.959 . S
H1262 C1277 0.959 . S
H1263 C1277 0.961 . S
H1264 C1278 0.960 . S
H1265 C1278 0.961 . S
H1266 C1278 0.959 . S
H1267 C1281 0.929 . S
H1268 C1282 0.931 . S
H1269 C1284 0.930 . S
C1270 H1258 0.930 . S
C1270 C1271 1.399 . S
C1270 C1275 1.399 . S
C1271 C1270 1.399 . S
C1271 C1272 1.376 . S
C1272 H1259 0.930 . S
C1272 C1271 1.376 . S
C1272 C1273 1.388 . S
C1273 H1260 0.930 . S
C1273 C1272 1.388 . S
C1273 C1274 1.390 . S
C1274 C1273 1.390 . S
C1274 C1275 1.394 . S
C1274 C1280 1.465 . S
C1275 C1270 1.399 . S
C1275 C1274 1.394 . S
C1275 C1276 1.516 . S
C1276 C1275 1.516 . S
C1276 C1277 1.502 . S
C1276 C1278 1.561 . S
C1276 C1279 1.526 . S
C1277 H1261 0.959 . S
C1277 H1262 0.959 . S
C1277 H1263 0.961 . S
C1277 C1276 1.502 . S
C1278 H1264 0.960 . S
C1278 H1265 0.961 . S
C1278 H1266 0.959 . S
C1278 C1276 1.561 . S
C1279 C1276 1.526 . S
C1279 C1280 1.396 . S
C1279 C1284 1.390 . S
C1280 C1274 1.465 . S
C1280 C1279 1.396 . S
C1280 C1281 1.399 . S
C1281 H1267 0.929 . S
C1281 C1280 1.399 . S
C1281 C1282 1.385 . S
C1282 H1268 0.931 . S
C1282 C1281 1.385 . S
C1282 C1283 1.389 . S
C1283 C1282 1.389 . S
C1283 C1284 1.387 . S
C1284 H1269 0.930 . S
C1284 C1279 1.390 . S
C1284 C1283 1.387 . S
H1285 C1297 0.930 1_565 S
H1286 C1299 0.930 . S
H1287 C1300 0.916 1_554 S
H1288 C1304 0.954 1_554 S
H1289 C1304 0.959 . S
H1290 C1304 0.961 . S
H1291 C1305 0.960 . S
H1292 C1305 0.961 . S
H1293 C1305 0.959 . S
H1294 C1308 0.929 . S
H1295 C1309 0.931 1_545 S
H1296 C1311 0.930 . S
C1297 H1285 0.930 1_545 S
C1297 C1298 1.399 . S
C1297 C1302 1.399 . S
C1298 C1297 1.399 . S
C1298 C1299 1.376 . S
C1299 H1286 0.930 . S
C1299 C1298 1.376 . S
C1299 C1300 1.388 . S
C1300 H1287 0.916 1_556 S
C1300 C1299 1.388 . S
C1300 C1301 1.390 . S
C1301 C1300 1.390 . S
C1301 C1302 1.395 . S
C1301 C1307 1.465 1_556 S
C1302 C1297 1.399 . S
C1302 C1301 1.395 . S
C1302 C1303 1.515 1_545 S
C1303 C1302 1.515 1_565 S
C1303 C1304 1.502 . S
C1303 C1305 1.561 . S
C1303 C1306 1.526 1_556 S
C1304 H1288 0.954 1_556 S
C1304 H1289 0.959 . S
C1304 H1290 0.961 . S
C1304 C1303 1.502 . S
C1305 H1291 0.960 . S
C1305 H1292 0.961 . S
C1305 H1293 0.959 . S
C1305 C1303 1.561 . S
C1306 C1303 1.526 1_554 S
C1306 C1307 1.396 1_565 S
C1306 C1311 1.390 . S
C1307 C1301 1.465 1_554 S
C1307 C1306 1.396 1_545 S
C1307 C1308 1.399 . S
C1308 H1294 0.929 . S
C1308 C1307 1.399 . S
C1308 C1309 1.385 1_545 S
C1309 H1295 0.931 1_565 S
C1309 C1308 1.385 1_565 S
C1309 C1310 1.389 . S
C1310 C1309 1.389 . S
C1310 C1311 1.387 . S
C1311 H1296 0.930 . S
C1311 C1306 1.390 . S
C1311 C1310 1.387 . S
H1312 C1324 0.930 . S
H1313 C1326 0.930 . S
H1314 C1327 0.930 . S
H1315 C1331 0.959 . S
H1316 C1331 0.959 . S
H1317 C1331 0.961 . S
H1318 C1332 0.960 . S
H1319 C1332 0.961 . S
H1320 C1332 0.959 . S
H1321 C1335 0.929 . S
H1322 C1336 0.931 . S
H1323 C1338 0.930 . S
C1324 H1312 0.930 . S
C1324 C1325 1.399 . S
C1324 C1329 1.399 . S
C1325 C1324 1.399 . S
C1325 C1326 1.376 . S
C1326 H1313 0.930 . S
C1326 C1325 1.376 . S
C1326 C1327 1.388 . S
C1327 H1314 0.930 . S
C1327 C1326 1.388 . S
C1327 C1328 1.390 . S
C1328 C1327 1.390 . S
C1328 C1329 1.394 . S
C1328 C1334 1.465 . S
C1329 C1324 1.399 . S
C1329 C1328 1.394 . S
C1329 C1330 1.516 . S
C1330 C1329 1.516 . S
C1330 C1331 1.502 . S
C1330 C1332 1.561 . S
C1330 C1333 1.526 . S
C1331 H1315 0.959 . S
C1331 H1316 0.959 . S
C1331 H1317 0.961 . S
C1331 C1330 1.502 . S
C1332 H1318 0.960 . S
C1332 H1319 0.961 . S
C1332 H1320 0.959 . S
C1332 C1330 1.561 . S
C1333 C1330 1.526 . S
C1333 C1334 1.396 . S
C1333 C1338 1.390 . S
C1334 C1328 1.465 . S
C1334 C1333 1.396 . S
C1334 C1335 1.399 . S
C1335 H1321 0.929 . S
C1335 C1334 1.399 . S
C1335 C1336 1.385 . S
C1336 H1322 0.931 . S
C1336 C1335 1.385 . S
C1336 C1337 1.389 . S
C1337 C1336 1.389 . S
C1337 C1338 1.387 . S
C1338 H1323 0.930 . S
C1338 C1333 1.390 . S
C1338 C1337 1.387 . S
H1339 C1351 0.930 . S
H1340 C1353 0.930 . S
H1341 C1354 0.930 . S
H1342 C1358 0.959 . S
H1343 C1358 0.959 . S
H1344 C1358 0.961 . S
H1345 C1359 0.960 . S
H1346 C1359 0.961 . S
H1347 C1359 0.959 . S
H1348 C1362 0.929 . S
H1349 C1363 0.931 . S
H1350 C1365 0.930 . S
C1351 H1339 0.930 . S
C1351 C1352 1.399 . S
C1351 C1356 1.399 . S
C1352 C1351 1.399 . S
C1352 C1353 1.376 . S
C1353 H1340 0.930 . S
C1353 C1352 1.376 . S
C1353 C1354 1.388 . S
C1354 H1341 0.930 . S
C1354 C1353 1.388 . S
C1354 C1355 1.390 . S
C1355 C1354 1.390 . S
C1355 C1356 1.394 . S
C1355 C1361 1.465 . S
C1356 C1351 1.399 . S
C1356 C1355 1.394 . S
C1356 C1357 1.516 . S
C1357 C1356 1.516 . S
C1357 C1358 1.502 . S
C1357 C1359 1.561 . S
C1357 C1360 1.526 . S
C1358 H1342 0.959 . S
C1358 H1343 0.959 . S
C1358 H1344 0.961 . S
C1358 C1357 1.502 . S
C1359 H1345 0.960 . S
C1359 H1346 0.961 . S
C1359 H1347 0.959 . S
C1359 C1357 1.561 . S
C1360 C1357 1.526 . S
C1360 C1361 1.396 . S
C1360 C1365 1.390 . S
C1361 C1355 1.465 . S
C1361 C1360 1.396 . S
C1361 C1362 1.399 . S
C1362 H1348 0.929 . S
C1362 C1361 1.399 . S
C1362 C1363 1.385 . S
C1363 H1349 0.931 . S
C1363 C1362 1.385 . S
C1363 C1364 1.389 . S
C1364 C1363 1.389 . S
C1364 C1365 1.387 . S
C1365 H1350 0.930 . S
C1365 C1360 1.390 . S
C1365 C1364 1.387 . S
H1366 C1378 0.930 . S
H1367 C1380 0.930 . S
H1368 C1381 0.930 . S
H1369 C1385 0.959 . S
H1370 C1385 0.959 . S
H1371 C1385 0.961 . S
H1372 C1386 0.960 . S
H1373 C1386 0.961 . S
H1374 C1386 0.959 . S
H1375 C1389 0.929 . S
H1376 C1390 0.931 . S
H1377 C1392 0.930 . S
C1378 H1366 0.930 . S
C1378 C1379 1.399 . S
C1378 C1383 1.399 . S
C1379 C1378 1.399 . S
C1379 C1380 1.376 . S
C1380 H1367 0.930 . S
C1380 C1379 1.376 . S
C1380 C1381 1.388 . S
C1381 H1368 0.930 . S
C1381 C1380 1.388 . S
C1381 C1382 1.390 . S
C1382 C1381 1.390 . S
C1382 C1383 1.394 . S
C1382 C1388 1.465 . S
C1383 C1378 1.399 . S
C1383 C1382 1.394 . S
C1383 C1384 1.516 . S
C1384 C1383 1.516 . S
C1384 C1385 1.502 . S
C1384 C1386 1.561 . S
C1384 C1387 1.526 . S
C1385 H1369 0.959 . S
C1385 H1370 0.959 . S
C1385 H1371 0.961 . S
C1385 C1384 1.502 . S
C1386 H1372 0.960 . S
C1386 H1373 0.961 . S
C1386 H1374 0.959 . S
C1386 C1384 1.561 . S
C1387 C1384 1.526 . S
C1387 C1388 1.396 . S
C1387 C1392 1.390 . S
C1388 C1382 1.465 . S
C1388 C1387 1.396 . S
C1388 C1389 1.399 . S
C1389 H1375 0.929 . S
C1389 C1388 1.399 . S
C1389 C1390 1.385 . S
C1390 H1376 0.931 . S
C1390 C1389 1.385 . S
C1390 C1391 1.389 . S
C1391 C1390 1.389 . S
C1391 C1392 1.387 . S
C1392 H1377 0.930 . S
C1392 C1387 1.390 . S
C1392 C1391 1.387 . S
H1393 C1405 0.930 . S
H1394 C1407 0.930 . S
H1395 C1408 0.930 . S
H1396 C1412 0.959 . S
H1397 C1412 0.959 . S
H1398 C1412 0.961 . S
H1399 C1413 0.960 . S
H1400 C1413 0.961 . S
H1401 C1413 0.959 . S
H1402 C1416 0.929 . S
H1403 C1417 0.931 . S
H1404 C1419 0.930 . S
C1405 H1393 0.930 . S
C1405 C1406 1.399 . S
C1405 C1410 1.399 . S
C1406 C1405 1.399 . S
C1406 C1407 1.376 . S
C1407 H1394 0.930 . S
C1407 C1406 1.376 . S
C1407 C1408 1.388 . S
C1408 H1395 0.930 . S
C1408 C1407 1.388 . S
C1408 C1409 1.390 . S
C1409 C1408 1.390 . S
C1409 C1410 1.394 . S
C1409 C1415 1.465 . S
C1410 C1405 1.399 . S
C1410 C1409 1.394 . S
C1410 C1411 1.516 . S
C1411 C1410 1.516 . S
C1411 C1412 1.502 . S
C1411 C1413 1.561 . S
C1411 C1414 1.526 . S
C1412 H1396 0.959 . S
C1412 H1397 0.959 . S
C1412 H1398 0.961 . S
C1412 C1411 1.502 . S
C1413 H1399 0.960 . S
C1413 H1400 0.961 . S
C1413 H1401 0.959 . S
C1413 C1411 1.561 . S
C1414 C1411 1.526 . S
C1414 C1415 1.396 . S
C1414 C1419 1.390 . S
C1415 C1409 1.465 . S
C1415 C1414 1.396 . S
C1415 C1416 1.399 . S
C1416 H1402 0.929 . S
C1416 C1415 1.399 . S
C1416 C1417 1.385 . S
C1417 H1403 0.931 . S
C1417 C1416 1.385 . S
C1417 C1418 1.389 . S
C1418 C1417 1.389 . S
C1418 C1419 1.387 . S
C1419 H1404 0.930 . S
C1419 C1414 1.390 . S
C1419 C1418 1.387 . S
H1420 C1432 0.930 . S
H1421 C1434 0.930 . S
H1422 C1435 0.930 . S
H1423 C1439 0.959 . S
H1424 C1439 0.959 . S
H1425 C1439 0.961 . S
H1426 C1440 0.957 1_545 S
H1427 C1440 0.957 1_545 S
H1428 C1440 0.961 . S
H1429 C1443 0.929 . S
H1430 C1444 0.931 . S
H1431 C1446 0.930 . S
C1432 H1420 0.930 . S
C1432 C1433 1.399 . S
C1432 C1437 1.399 . S
C1433 C1432 1.399 . S
C1433 C1434 1.376 . S
C1434 H1421 0.930 . S
C1434 C1433 1.376 . S
C1434 C1435 1.388 . S
C1435 H1422 0.930 . S
C1435 C1434 1.388 . S
C1435 C1436 1.390 . S
C1436 C1435 1.390 . S
C1436 C1437 1.394 . S
C1436 C1442 1.465 . S
C1437 C1432 1.399 . S
C1437 C1436 1.394 . S
C1437 C1438 1.516 . S
C1438 C1437 1.516 . S
C1438 C1439 1.502 . S
C1438 C1440 1.565 . S
C1438 C1441 1.526 . S
C1439 H1423 0.959 . S
C1439 H1424 0.959 . S
C1439 H1425 0.961 . S
C1439 C1438 1.502 . S
C1440 H1426 0.957 1_565 S
C1440 H1427 0.957 1_565 S
C1440 H1428 0.961 . S
C1440 C1438 1.565 . S
C1441 C1438 1.526 . S
C1441 C1442 1.396 . S
C1441 C1446 1.390 . S
C1442 C1436 1.465 . S
C1442 C1441 1.396 . S
C1442 C1443 1.399 . S
C1443 H1429 0.929 . S
C1443 C1442 1.399 . S
C1443 C1444 1.385 . S
C1444 H1430 0.931 . S
C1444 C1443 1.385 . S
C1444 C1445 1.389 . S
C1445 C1444 1.389 . S
C1445 C1446 1.387 . S
C1446 H1431 0.930 . S
C1446 C1441 1.390 . S
C1446 C1445 1.387 . S
H1447 C1459 0.930 . S
H1448 C1461 0.930 . S
H1449 C1462 0.930 . S
H1450 C1466 0.959 . S
H1451 C1466 0.959 . S
H1452 C1466 0.961 . S
H1453 C1467 0.960 . S
H1454 C1467 0.961 . S
H1455 C1467 0.959 . S
H1456 C1470 0.929 . S
H1457 C1471 0.931 . S
H1458 C1473 0.930 . S
C1459 H1447 0.930 . S
C1459 C1460 1.399 . S
C1459 C1464 1.399 . S
C1460 C1459 1.399 . S
C1460 C1461 1.376 . S
C1461 H1448 0.930 . S
C1461 C1460 1.376 . S
C1461 C1462 1.388 . S
C1462 H1449 0.930 . S
C1462 C1461 1.388 . S
C1462 C1463 1.390 . S
C1463 C1462 1.390 . S
C1463 C1464 1.394 . S
C1463 C1469 1.465 . S
C1464 C1459 1.399 . S
C1464 C1463 1.394 . S
C1464 C1465 1.516 . S
C1465 C1464 1.516 . S
C1465 C1466 1.502 . S
C1465 C1467 1.561 . S
C1465 C1468 1.526 . S
C1466 H1450 0.959 . S
C1466 H1451 0.959 . S
C1466 H1452 0.961 . S
C1466 C1465 1.502 . S
C1467 H1453 0.960 . S
C1467 H1454 0.961 . S
C1467 H1455 0.959 . S
C1467 C1465 1.561 . S
C1468 C1465 1.526 . S
C1468 C1469 1.396 . S
C1468 C1473 1.390 . S
C1469 C1463 1.465 . S
C1469 C1468 1.396 . S
C1469 C1470 1.399 . S
C1470 H1456 0.929 . S
C1470 C1469 1.399 . S
C1470 C1471 1.385 . S
C1471 H1457 0.931 . S
C1471 C1470 1.385 . S
C1471 C1472 1.389 . S
C1472 C1471 1.389 . S
C1472 C1473 1.387 . S
C1473 H1458 0.930 . S
C1473 C1468 1.390 . S
C1473 C1472 1.387 . S
H1474 C1486 0.930 . S
H1475 C1488 0.930 . S
H1476 C1489 0.930 . S
H1477 C1493 0.959 . S
H1478 C1493 0.959 . S
H1479 C1493 0.961 . S
H1480 C1494 0.960 . S
H1481 C1494 0.961 . S
H1482 C1494 0.959 . S
H1483 C1497 0.929 . S
H1484 C1498 0.931 . S
H1485 C1500 0.930 . S
C1486 H1474 0.930 . S
C1486 C1487 1.399 . S
C1486 C1491 1.399 . S
C1487 C1486 1.399 . S
C1487 C1488 1.376 . S
C1488 H1475 0.930 . S
C1488 C1487 1.376 . S
C1488 C1489 1.388 . S
C1489 H1476 0.930 . S
C1489 C1488 1.388 . S
C1489 C1490 1.390 . S
C1490 C1489 1.390 . S
C1490 C1491 1.394 . S
C1490 C1496 1.465 . S
C1491 C1486 1.399 . S
C1491 C1490 1.394 . S
C1491 C1492 1.516 . S
C1492 C1491 1.516 . S
C1492 C1493 1.502 . S
C1492 C1494 1.561 . S
C1492 C1495 1.526 . S
C1493 H1477 0.959 . S
C1493 H1478 0.959 . S
C1493 H1479 0.961 . S
C1493 C1492 1.502 . S
C1494 H1480 0.960 . S
C1494 H1481 0.961 . S
C1494 H1482 0.959 . S
C1494 C1492 1.561 . S
C1495 C1492 1.526 . S
C1495 C1496 1.396 . S
C1495 C1500 1.390 . S
C1496 C1490 1.465 . S
C1496 C1495 1.396 . S
C1496 C1497 1.399 . S
C1497 H1483 0.929 . S
C1497 C1496 1.399 . S
C1497 C1498 1.385 . S
C1498 H1484 0.931 . S
C1498 C1497 1.385 . S
C1498 C1499 1.389 . S
C1499 C1498 1.389 . S
C1499 C1500 1.387 . S
C1500 H1485 0.930 . S
C1500 C1495 1.390 . S
C1500 C1499 1.387 . S
H1501 C1513 0.930 . S
H1502 C1515 0.930 . S
H1503 C1516 0.930 . S
H1504 C1520 0.959 . S
H1505 C1520 0.959 . S
H1506 C1520 0.961 . S
H1507 C1521 0.960 . S
H1508 C1521 0.961 . S
H1509 C1521 0.959 . S
H1510 C1524 0.929 . S
H1511 C1525 0.931 . S
H1512 C1527 0.930 . S
C1513 H1501 0.930 . S
C1513 C1514 1.399 . S
C1513 C1518 1.399 . S
C1514 C1513 1.399 . S
C1514 C1515 1.376 . S
C1515 H1502 0.930 . S
C1515 C1514 1.376 . S
C1515 C1516 1.388 . S
C1516 H1503 0.930 . S
C1516 C1515 1.388 . S
C1516 C1517 1.390 . S
C1517 C1516 1.390 . S
C1517 C1518 1.394 . S
C1517 C1523 1.465 . S
C1518 C1513 1.399 . S
C1518 C1517 1.394 . S
C1518 C1519 1.516 . S
C1519 C1518 1.516 . S
C1519 C1520 1.502 . S
C1519 C1521 1.561 . S
C1519 C1522 1.526 . S
C1520 H1504 0.959 . S
C1520 H1505 0.959 . S
C1520 H1506 0.961 . S
C1520 C1519 1.502 . S
C1521 H1507 0.960 . S
C1521 H1508 0.961 . S
C1521 H1509 0.959 . S
C1521 C1519 1.561 . S
C1522 C1519 1.526 . S
C1522 C1523 1.396 . S
C1522 C1527 1.390 . S
C1523 C1517 1.465 . S
C1523 C1522 1.396 . S
C1523 C1524 1.399 . S
C1524 H1510 0.929 . S
C1524 C1523 1.399 . S
C1524 C1525 1.385 . S
C1525 H1511 0.931 . S
C1525 C1524 1.385 . S
C1525 C1526 1.389 . S
C1526 C1525 1.389 . S
C1526 C1527 1.387 . S
C1527 H1512 0.930 . S
C1527 C1522 1.390 . S
C1527 C1526 1.387 . S
H1528 C1540 0.930 . S
H1529 C1542 0.930 . S
H1530 C1543 0.930 . S
H1531 C1547 0.959 . S
H1532 C1547 0.959 . S
H1533 C1547 0.961 . S
H1534 C1548 0.960 . S
H1535 C1548 0.961 . S
H1536 C1548 0.959 . S
H1537 C1551 0.929 . S
H1538 C1552 0.931 . S
H1539 C1554 0.930 . S
C1540 H1528 0.930 . S
C1540 C1541 1.399 . S
C1540 C1545 1.399 . S
C1541 C1540 1.399 . S
C1541 C1542 1.376 . S
C1542 H1529 0.930 . S
C1542 C1541 1.376 . S
C1542 C1543 1.388 . S
C1543 H1530 0.930 . S
C1543 C1542 1.388 . S
C1543 C1544 1.390 . S
C1544 C1543 1.390 . S
C1544 C1545 1.394 . S
C1544 C1550 1.465 . S
C1545 C1540 1.399 . S
C1545 C1544 1.394 . S
C1545 C1546 1.516 . S
C1546 C1545 1.516 . S
C1546 C1547 1.502 . S
C1546 C1548 1.561 . S
C1546 C1549 1.526 . S
C1547 H1531 0.959 . S
C1547 H1532 0.959 . S
C1547 H1533 0.961 . S
C1547 C1546 1.502 . S
C1548 H1534 0.960 . S
C1548 H1535 0.961 . S
C1548 H1536 0.959 . S
C1548 C1546 1.561 . S
C1549 C1546 1.526 . S
C1549 C1550 1.396 . S
C1549 C1554 1.390 . S
C1550 C1544 1.465 . S
C1550 C1549 1.396 . S
C1550 C1551 1.399 . S
C1551 H1537 0.929 . S
C1551 C1550 1.399 . S
C1551 C1552 1.385 . S
C1552 H1538 0.931 . S
C1552 C1551 1.385 . S
C1552 C1553 1.389 . S
C1553 C1552 1.389 . S
C1553 C1554 1.387 . S
C1554 H1539 0.930 . S
C1554 C1549 1.390 . S
C1554 C1553 1.387 . S
H1555 C1567 0.930 . S
H1556 C1569 0.930 . S
H1557 C1570 0.930 . S
H1558 C1574 0.959 . S
H1559 C1574 0.959 . S
H1560 C1574 0.961 . S
H1561 C1575 0.960 . S
H1562 C1575 0.961 . S
H1563 C1575 0.959 . S
H1564 C1578 0.929 . S
H1565 C1579 0.931 . S
H1566 C1581 0.930 . S
C1567 H1555 0.930 . S
C1567 C1568 1.399 . S
C1567 C1572 1.399 . S
C1568 C1567 1.399 . S
C1568 C1569 1.376 . S
C1569 H1556 0.930 . S
C1569 C1568 1.376 . S
C1569 C1570 1.388 . S
C1570 H1557 0.930 . S
C1570 C1569 1.388 . S
C1570 C1571 1.390 . S
C1571 C1570 1.390 . S
C1571 C1572 1.394 . S
C1571 C1577 1.465 . S
C1572 C1567 1.399 . S
C1572 C1571 1.394 . S
C1572 C1573 1.516 . S
C1573 C1572 1.516 . S
C1573 C1574 1.502 . S
C1573 C1575 1.561 . S
C1573 C1576 1.526 . S
C1574 H1558 0.959 . S
C1574 H1559 0.959 . S
C1574 H1560 0.961 . S
C1574 C1573 1.502 . S
C1575 H1561 0.960 . S
C1575 H1562 0.961 . S
C1575 H1563 0.959 . S
C1575 C1573 1.561 . S
C1576 C1573 1.526 . S
C1576 C1577 1.396 . S
C1576 C1581 1.390 . S
C1577 C1571 1.465 . S
C1577 C1576 1.396 . S
C1577 C1578 1.399 . S
C1578 H1564 0.929 . S
C1578 C1577 1.399 . S
C1578 C1579 1.385 . S
C1579 H1565 0.931 . S
C1579 C1578 1.385 . S
C1579 C1580 1.389 . S
C1580 C1579 1.389 . S
C1580 C1581 1.387 . S
C1581 H1566 0.930 . S
C1581 C1576 1.390 . S
C1581 C1580 1.387 . S
H1582 C1594 0.930 . S
H1583 C1596 0.930 . S
H1584 C1597 0.930 . S
H1585 C1601 0.959 . S
H1586 C1601 0.959 . S
H1587 C1601 0.961 . S
H1588 C1602 0.960 . S
H1589 C1602 0.961 . S
H1590 C1602 0.959 . S
H1591 C1605 0.929 . S
H1592 C1606 0.931 . S
H1593 C1608 0.930 . S
C1594 H1582 0.930 . S
C1594 C1595 1.399 . S
C1594 C1599 1.399 . S
C1595 C1594 1.399 . S
C1595 C1596 1.376 . S
C1596 H1583 0.930 . S
C1596 C1595 1.376 . S
C1596 C1597 1.388 . S
C1597 H1584 0.930 . S
C1597 C1596 1.388 . S
C1597 C1598 1.390 . S
C1598 C1597 1.390 . S
C1598 C1599 1.394 . S
C1598 C1604 1.465 . S
C1599 C1594 1.399 . S
C1599 C1598 1.394 . S
C1599 C1600 1.516 . S
C1600 C1599 1.516 . S
C1600 C1601 1.502 . S
C1600 C1602 1.561 . S
C1600 C1603 1.526 . S
C1601 H1585 0.959 . S
C1601 H1586 0.959 . S
C1601 H1587 0.961 . S
C1601 C1600 1.502 . S
C1602 H1588 0.960 . S
C1602 H1589 0.961 . S
C1602 H1590 0.959 . S
C1602 C1600 1.561 . S
C1603 C1600 1.526 . S
C1603 C1604 1.396 . S
C1603 C1608 1.390 . S
C1604 C1598 1.465 . S
C1604 C1603 1.396 . S
C1604 C1605 1.399 . S
C1605 H1591 0.929 . S
C1605 C1604 1.399 . S
C1605 C1606 1.385 . S
C1606 H1592 0.931 . S
C1606 C1605 1.385 . S
C1606 C1607 1.389 . S
C1607 C1606 1.389 . S
C1607 C1608 1.387 . S
C1608 H1593 0.930 . S
C1608 C1603 1.390 . S
C1608 C1607 1.387 . S
H1609 C1621 0.930 . S
H1610 C1623 0.930 . S
H1611 C1624 0.930 . S
H1612 C1628 0.959 . S
H1613 C1628 0.959 . S
H1614 C1628 0.961 . S
H1615 C1629 0.960 . S
H1616 C1629 0.961 . S
H1617 C1629 0.959 . S
H1618 C1632 0.929 . S
H1619 C1633 0.931 . S
H1620 C1635 0.930 . S
C1621 H1609 0.930 . S
C1621 C1622 1.399 . S
C1621 C1626 1.399 . S
C1622 C1621 1.399 . S
C1622 C1623 1.376 . S
C1623 H1610 0.930 . S
C1623 C1622 1.376 . S
C1623 C1624 1.388 . S
C1624 H1611 0.930 . S
C1624 C1623 1.388 . S
C1624 C1625 1.390 . S
C1625 C1624 1.390 . S
C1625 C1626 1.394 . S
C1625 C1631 1.465 . S
C1626 C1621 1.399 . S
C1626 C1625 1.394 . S
C1626 C1627 1.516 . S
C1627 C1626 1.516 . S
C1627 C1628 1.502 . S
C1627 C1629 1.561 . S
C1627 C1630 1.526 . S
C1628 H1612 0.959 . S
C1628 H1613 0.959 . S
C1628 H1614 0.961 . S
C1628 C1627 1.502 . S
C1629 H1615 0.960 . S
C1629 H1616 0.961 . S
C1629 H1617 0.959 . S
C1629 C1627 1.561 . S
C1630 C1627 1.526 . S
C1630 C1631 1.396 . S
C1630 C1635 1.390 . S
C1631 C1625 1.465 . S
C1631 C1630 1.396 . S
C1631 C1632 1.399 . S
C1632 H1618 0.929 . S
C1632 C1631 1.399 . S
C1632 C1633 1.385 . S
C1633 H1619 0.931 . S
C1633 C1632 1.385 . S
C1633 C1634 1.389 . S
C1634 C1633 1.389 . S
C1634 C1635 1.387 . S
C1635 H1620 0.930 . S
C1635 C1630 1.390 . S
C1635 C1634 1.387 . S
H1636 C1648 0.930 . S
H1637 C1650 0.930 . S
H1638 C1651 0.930 . S
H1639 C1655 0.959 . S
H1640 C1655 0.959 . S
H1641 C1655 0.961 . S
H1642 C1656 0.960 . S
H1643 C1656 0.961 . S
H1644 C1656 0.959 . S
H1645 C1659 0.929 . S
H1646 C1660 0.931 . S
H1647 C1662 0.930 . S
C1648 H1636 0.930 . S
C1648 C1649 1.399 . S
C1648 C1653 1.399 . S
C1649 C1648 1.399 . S
C1649 C1650 1.376 . S
C1650 H1637 0.930 . S
C1650 C1649 1.376 . S
C1650 C1651 1.388 . S
C1651 H1638 0.930 . S
C1651 C1650 1.388 . S
C1651 C1652 1.390 . S
C1652 C1651 1.390 . S
C1652 C1653 1.394 . S
C1652 C1658 1.465 . S
C1653 C1648 1.399 . S
C1653 C1652 1.394 . S
C1653 C1654 1.516 . S
C1654 C1653 1.516 . S
C1654 C1655 1.502 . S
C1654 C1656 1.561 . S
C1654 C1657 1.526 . S
C1655 H1639 0.959 . S
C1655 H1640 0.959 . S
C1655 H1641 0.961 . S
C1655 C1654 1.502 . S
C1656 H1642 0.960 . S
C1656 H1643 0.961 . S
C1656 H1644 0.959 . S
C1656 C1654 1.561 . S
C1657 C1654 1.526 . S
C1657 C1658 1.396 . S
C1657 C1662 1.390 . S
C1658 C1652 1.465 . S
C1658 C1657 1.396 . S
C1658 C1659 1.399 . S
C1659 H1645 0.929 . S
C1659 C1658 1.399 . S
C1659 C1660 1.385 . S
C1660 H1646 0.931 . S
C1660 C1659 1.385 . S
C1660 C1661 1.389 . S
C1661 C1660 1.389 . S
C1661 C1662 1.387 . S
C1662 H1647 0.930 . S
C1662 C1657 1.390 . S
C1662 C1661 1.387 . S
H1663 C1675 0.930 . S
H1664 C1677 0.930 . S
H1665 C1678 0.930 . S
H1666 C1682 0.959 . S
H1667 C1682 0.959 . S
H1668 C1682 0.961 . S
H1669 C1683 0.960 . S
H1670 C1683 0.961 . S
H1671 C1683 0.959 . S
H1672 C1686 0.929 . S
H1673 C1687 0.931 . S
H1674 C1689 0.930 . S
C1675 H1663 0.930 . S
C1675 C1676 1.399 . S
C1675 C1680 1.399 . S
C1676 C1675 1.399 . S
C1676 C1677 1.376 . S
C1677 H1664 0.930 . S
C1677 C1676 1.376 . S
C1677 C1678 1.388 . S
C1678 H1665 0.930 . S
C1678 C1677 1.388 . S
C1678 C1679 1.390 . S
C1679 C1678 1.390 . S
C1679 C1680 1.394 . S
C1679 C1685 1.465 . S
C1680 C1675 1.399 . S
C1680 C1679 1.394 . S
C1680 C1681 1.516 . S
C1681 C1680 1.516 . S
C1681 C1682 1.502 . S
C1681 C1683 1.561 . S
C1681 C1684 1.526 . S
C1682 H1666 0.959 . S
C1682 H1667 0.959 . S
C1682 H1668 0.961 . S
C1682 C1681 1.502 . S
C1683 H1669 0.960 . S
C1683 H1670 0.961 . S
C1683 H1671 0.959 . S
C1683 C1681 1.561 . S
C1684 C1681 1.526 . S
C1684 C1685 1.396 . S
C1684 C1689 1.390 . S
C1685 C1679 1.465 . S
C1685 C1684 1.396 . S
C1685 C1686 1.399 . S
C1686 H1672 0.929 . S
C1686 C1685 1.399 . S
C1686 C1687 1.385 . S
C1687 H1673 0.931 . S
C1687 C1686 1.385 . S
C1687 C1688 1.389 . S
C1688 C1687 1.389 . S
C1688 C1689 1.387 . S
C1689 H1674 0.930 . S
C1689 C1684 1.390 . S
C1689 C1688 1.387 . S
H1690 C1702 0.930 . S
H1691 C1704 0.930 . S
H1692 C1705 0.930 . S
H1693 C1709 0.959 . S
H1694 C1709 0.959 1_565 S
H1695 C1709 0.961 . S
H1696 C1710 0.960 1_565 S
H1697 C1710 0.961 1_565 S
H1698 C1710 0.959 . S
H1699 C1713 0.929 . S
H1700 C1714 0.931 . S
H1701 C1716 0.930 . S
C1702 H1690 0.930 . S
C1702 C1703 1.399 . S
C1702 C1707 1.399 . S
C1703 C1702 1.399 . S
C1703 C1704 1.376 . S
C1704 H1691 0.930 . S
C1704 C1703 1.376 . S
C1704 C1705 1.388 . S
C1705 H1692 0.930 . S
C1705 C1704 1.388 . S
C1705 C1706 1.390 . S
C1706 C1705 1.390 . S
C1706 C1707 1.394 . S
C1706 C1712 1.465 . S
C1707 C1702 1.399 . S
C1707 C1706 1.394 . S
C1707 C1708 1.516 . S
C1708 C1707 1.516 . S
C1708 C1709 1.502 . S
C1708 C1710 1.561 . S
C1708 C1711 1.526 . S
C1709 H1693 0.959 . S
C1709 H1694 0.959 1_545 S
C1709 H1695 0.961 . S
C1709 C1708 1.502 . S
C1710 H1696 0.960 1_545 S
C1710 H1697 0.961 1_545 S
C1710 H1698 0.959 . S
C1710 C1708 1.561 . S
C1711 C1708 1.526 . S
C1711 C1712 1.396 . S
C1711 C1716 1.390 . S
C1712 C1706 1.465 . S
C1712 C1711 1.396 . S
C1712 C1713 1.399 . S
C1713 H1699 0.929 . S
C1713 C1712 1.399 . S
C1713 C1714 1.385 . S
C1714 H1700 0.931 . S
C1714 C1713 1.385 . S
C1714 C1715 1.389 . S
C1715 C1714 1.389 . S
C1715 C1716 1.387 . S
C1716 H1701 0.930 . S
C1716 C1711 1.390 . S
C1716 C1715 1.387 . S
H1717 C1729 0.930 . S
H1718 C1731 0.930 . S
H1719 C1732 0.930 . S
H1720 C1736 0.959 . S
H1721 C1736 0.959 . S
H1722 C1736 0.961 . S
H1723 C1737 0.960 . S
H1724 C1737 0.961 . S
H1725 C1737 0.959 . S
H1726 C1740 0.929 . S
H1727 C1741 0.931 . S
H1728 C1743 0.930 . S
C1729 H1717 0.930 . S
C1729 C1730 1.399 . S
C1729 C1734 1.399 . S
C1730 C1729 1.399 . S
C1730 C1731 1.376 . S
C1731 H1718 0.930 . S
C1731 C1730 1.376 . S
C1731 C1732 1.388 . S
C1732 H1719 0.930 . S
C1732 C1731 1.388 . S
C1732 C1733 1.390 . S
C1733 C1732 1.390 . S
C1733 C1734 1.394 . S
C1733 C1739 1.465 . S
C1734 C1729 1.399 . S
C1734 C1733 1.394 . S
C1734 C1735 1.516 . S
C1735 C1734 1.516 . S
C1735 C1736 1.502 . S
C1735 C1737 1.561 . S
C1735 C1738 1.526 . S
C1736 H1720 0.959 . S
C1736 H1721 0.959 . S
C1736 H1722 0.961 . S
C1736 C1735 1.502 . S
C1737 H1723 0.960 . S
C1737 H1724 0.961 . S
C1737 H1725 0.959 . S
C1737 C1735 1.561 . S
C1738 C1735 1.526 . S
C1738 C1739 1.396 . S
C1738 C1743 1.390 . S
C1739 C1733 1.465 . S
C1739 C1738 1.396 . S
C1739 C1740 1.399 . S
C1740 H1726 0.929 . S
C1740 C1739 1.399 . S
C1740 C1741 1.385 . S
C1741 H1727 0.931 . S
C1741 C1740 1.385 . S
C1741 C1742 1.389 . S
C1742 C1741 1.389 . S
C1742 C1743 1.387 . S
C1743 H1728 0.930 . S
C1743 C1738 1.390 . S
C1743 C1742 1.387 . S
H1744 C1756 0.930 . S
H1745 C1758 0.930 . S
H1746 C1759 0.930 . S
H1747 C1763 0.959 . S
H1748 C1763 0.959 . S
H1749 C1763 0.961 . S
H1750 C1764 0.960 . S
H1751 C1764 0.961 . S
H1752 C1764 0.959 . S
H1753 C1767 0.929 . S
H1754 C1768 0.931 . S
H1755 C1770 0.930 . S
C1756 H1744 0.930 . S
C1756 C1757 1.399 1_545 S
C1756 C1761 1.399 . S
C1757 C1756 1.399 1_565 S
C1757 C1758 1.376 1_565 S
C1758 H1745 0.930 . S
C1758 C1757 1.376 1_545 S
C1758 C1759 1.388 . S
C1759 H1746 0.930 . S
C1759 C1758 1.388 . S
C1759 C1760 1.390 . S
C1760 C1759 1.390 . S
C1760 C1761 1.394 . S
C1760 C1766 1.465 . S
C1761 C1756 1.399 . S
C1761 C1760 1.394 . S
C1761 C1762 1.516 . S
C1762 C1761 1.516 . S
C1762 C1763 1.502 . S
C1762 C1764 1.561 . S
C1762 C1765 1.526 . S
C1763 H1747 0.959 . S
C1763 H1748 0.959 . S
C1763 H1749 0.961 . S
C1763 C1762 1.502 . S
C1764 H1750 0.960 . S
C1764 H1751 0.961 . S
C1764 H1752 0.959 . S
C1764 C1762 1.561 . S
C1765 C1762 1.526 . S
C1765 C1766 1.396 . S
C1765 C1770 1.390 . S
C1766 C1760 1.465 . S
C1766 C1765 1.396 . S
C1766 C1767 1.399 . S
C1767 H1753 0.929 . S
C1767 C1766 1.399 . S
C1767 C1768 1.385 . S
C1768 H1754 0.931 . S
C1768 C1767 1.385 . S
C1768 C1769 1.389 . S
C1769 C1768 1.389 . S
C1769 C1770 1.387 . S
C1770 H1755 0.930 . S
C1770 C1765 1.390 . S
C1770 C1769 1.387 . S
H1771 C1783 0.930 . S
H1772 C1785 0.930 1_565 S
H1773 C1786 0.930 . S
H1774 C1790 0.959 . S
H1775 C1790 0.959 . S
H1776 C1790 0.961 . S
H1777 C1791 0.960 . S
H1778 C1791 0.961 . S
H1779 C1791 0.959 . S
H1780 C1794 0.929 . S
H1781 C1795 0.931 . S
H1782 C1797 0.930 . S
C1783 H1771 0.930 . S
C1783 C1784 1.399 1_545 S
C1783 C1788 1.399 . S
C1784 C1783 1.399 1_565 S
C1784 C1785 1.376 1_565 S
C1785 H1772 0.930 1_545 S
C1785 C1784 1.376 1_545 S
C1785 C1786 1.388 . S
C1786 H1773 0.930 . S
C1786 C1785 1.388 . S
C1786 C1787 1.390 . S
C1787 C1786 1.390 . S
C1787 C1788 1.394 . S
C1787 C1793 1.465 . S
C1788 C1783 1.399 . S
C1788 C1787 1.394 . S
C1788 C1789 1.516 . S
C1789 C1788 1.516 . S
C1789 C1790 1.502 . S
C1789 C1791 1.561 . S
C1789 C1792 1.526 . S
C1790 H1774 0.959 . S
C1790 H1775 0.959 . S
C1790 H1776 0.961 . S
C1790 C1789 1.502 . S
C1791 H1777 0.960 . S
C1791 H1778 0.961 . S
C1791 H1779 0.959 . S
C1791 C1789 1.561 . S
C1792 C1789 1.526 . S
C1792 C1793 1.396 . S
C1792 C1797 1.390 . S
C1793 C1787 1.465 . S
C1793 C1792 1.396 . S
C1793 C1794 1.399 . S
C1794 H1780 0.929 . S
C1794 C1793 1.399 . S
C1794 C1795 1.385 . S
C1795 H1781 0.931 . S
C1795 C1794 1.385 . S
C1795 C1796 1.389 . S
C1796 C1795 1.389 . S
C1796 C1797 1.387 . S
C1797 H1782 0.930 . S
C1797 C1792 1.390 . S
C1797 C1796 1.387 . S
H1798 C1810 0.930 . S
H1799 C1812 0.930 . S
H1800 C1813 0.930 . S
H1801 C1817 0.959 . S
H1802 C1817 0.959 . S
H1803 C1817 0.961 . S
H1804 C1818 0.960 . S
H1805 C1818 0.961 . S
H1806 C1818 0.959 . S
H1807 C1821 0.929 . S
H1808 C1822 0.931 1_545 S
H1809 C1824 0.930 . S
C1810 H1798 0.930 . S
C1810 C1811 1.399 . S
C1810 C1815 1.399 . S
C1811 C1810 1.399 . S
C1811 C1812 1.376 . S
C1812 H1799 0.930 . S
C1812 C1811 1.376 . S
C1812 C1813 1.388 . S
C1813 H1800 0.930 . S
C1813 C1812 1.388 . S
C1813 C1814 1.390 . S
C1814 C1813 1.390 . S
C1814 C1815 1.394 . S
C1814 C1820 1.465 . S
C1815 C1810 1.399 . S
C1815 C1814 1.394 . S
C1815 C1816 1.516 . S
C1816 C1815 1.516 . S
C1816 C1817 1.502 . S
C1816 C1818 1.561 . S
C1816 C1819 1.526 . S
C1817 H1801 0.959 . S
C1817 H1802 0.959 . S
C1817 H1803 0.961 . S
C1817 C1816 1.502 . S
C1818 H1804 0.960 . S
C1818 H1805 0.961 . S
C1818 H1806 0.959 . S
C1818 C1816 1.561 . S
C1819 C1816 1.526 . S
C1819 C1820 1.396 . S
C1819 C1824 1.390 . S
C1820 C1814 1.465 . S
C1820 C1819 1.396 . S
C1820 C1821 1.399 . S
C1821 H1807 0.929 . S
C1821 C1820 1.399 . S
C1821 C1822 1.385 . S
C1822 H1808 0.931 1_565 S
C1822 C1821 1.385 . S
C1822 C1823 1.389 1_565 S
C1823 C1822 1.389 1_545 S
C1823 C1824 1.387 1_545 S
C1824 H1809 0.930 . S
C1824 C1819 1.390 . S
C1824 C1823 1.387 1_565 S
H1825 C1837 0.930 . S
H1826 C1839 0.930 1_545 S
H1827 C1840 0.930 . S
H1828 C1844 0.959 . S
H1829 C1844 0.959 . S
H1830 C1844 0.961 . S
H1831 C1845 0.960 . S
H1832 C1845 0.961 . S
H1833 C1845 0.959 . S
H1834 C1848 0.929 . S
H1835 C1849 0.931 . S
H1836 C1851 0.930 . S
C1837 H1825 0.930 . S
C1837 C1838 1.399 1_565 S
C1837 C1842 1.399 . S
C1838 C1837 1.399 1_545 S
C1838 C1839 1.376 1_545 S
C1839 H1826 0.930 1_565 S
C1839 C1838 1.376 1_565 S
C1839 C1840 1.388 . S
C1840 H1827 0.930 . S
C1840 C1839 1.388 . S
C1840 C1841 1.390 . S
C1841 C1840 1.390 . S
C1841 C1842 1.394 . S
C1841 C1847 1.465 . S
C1842 C1837 1.399 . S
C1842 C1841 1.394 . S
C1842 C1843 1.516 . S
C1843 C1842 1.516 . S
C1843 C1844 1.502 . S
C1843 C1845 1.561 . S
C1843 C1846 1.526 . S
C1844 H1828 0.959 . S
C1844 H1829 0.959 . S
C1844 H1830 0.961 . S
C1844 C1843 1.502 . S
C1845 H1831 0.960 . S
C1845 H1832 0.961 . S
C1845 H1833 0.959 . S
C1845 C1843 1.561 . S
C1846 C1843 1.526 . S
C1846 C1847 1.396 . S
C1846 C1851 1.390 . S
C1847 C1841 1.465 . S
C1847 C1846 1.396 . S
C1847 C1848 1.399 . S
C1848 H1834 0.929 . S
C1848 C1847 1.399 . S
C1848 C1849 1.385 . S
C1849 H1835 0.931 . S
C1849 C1848 1.385 . S
C1849 C1850 1.389 . S
C1850 C1849 1.389 . S
C1850 C1851 1.387 . S
C1851 H1836 0.930 . S
C1851 C1846 1.390 . S
C1851 C1850 1.387 . S
H1852 C1864 0.930 . S
H1853 C1866 0.930 . S
H1854 C1867 0.930 . S
H1855 C1871 0.959 . S
H1856 C1871 0.959 . S
H1857 C1871 0.961 . S
H1858 C1872 0.960 . S
H1859 C1872 0.961 . S
H1860 C1872 0.959 . S
H1861 C1875 0.929 . S
H1862 C1876 0.931 . S
H1863 C1878 0.930 . S
C1864 H1852 0.930 . S
C1864 C1865 1.399 . S
C1864 C1869 1.399 . S
C1865 C1864 1.399 . S
C1865 C1866 1.376 . S
C1866 H1853 0.930 . S
C1866 C1865 1.376 . S
C1866 C1867 1.388 . S
C1867 H1854 0.930 . S
C1867 C1866 1.388 . S
C1867 C1868 1.390 . S
C1868 C1867 1.390 . S
C1868 C1869 1.394 . S
C1868 C1874 1.465 . S
C1869 C1864 1.399 . S
C1869 C1868 1.394 . S
C1869 C1870 1.516 . S
C1870 C1869 1.516 . S
C1870 C1871 1.502 . S
C1870 C1872 1.561 . S
C1870 C1873 1.526 . S
C1871 H1855 0.959 . S
C1871 H1856 0.959 . S
C1871 H1857 0.961 . S
C1871 C1870 1.502 . S
C1872 H1858 0.960 . S
C1872 H1859 0.961 . S
C1872 H1860 0.959 . S
C1872 C1870 1.561 . S
C1873 C1870 1.526 . S
C1873 C1874 1.396 . S
C1873 C1878 1.390 . S
C1874 C1868 1.465 . S
C1874 C1873 1.396 . S
C1874 C1875 1.399 . S
C1875 H1861 0.929 . S
C1875 C1874 1.399 . S
C1875 C1876 1.385 . S
C1876 H1862 0.931 . S
C1876 C1875 1.385 . S
C1876 C1877 1.389 . S
C1877 C1876 1.389 . S
C1877 C1878 1.387 . S
C1878 H1863 0.930 . S
C1878 C1873 1.390 . S
C1878 C1877 1.387 . S
H1879 C1891 0.930 . S
H1880 C1893 0.930 . S
H1881 C1894 0.930 . S
H1882 C1898 0.959 . S
H1883 C1898 0.959 . S
H1884 C1898 0.961 . S
H1885 C1899 0.960 . S
H1886 C1899 0.961 . S
H1887 C1899 0.959 . S
H1888 C1902 0.929 . S
H1889 C1903 0.931 . S
H1890 C1905 0.930 . S
C1891 H1879 0.930 . S
C1891 C1892 1.399 . S
C1891 C1896 1.399 . S
C1892 C1891 1.399 . S
C1892 C1893 1.376 . S
C1893 H1880 0.930 . S
C1893 C1892 1.376 . S
C1893 C1894 1.388 . S
C1894 H1881 0.930 . S
C1894 C1893 1.388 . S
C1894 C1895 1.390 . S
C1895 C1894 1.390 . S
C1895 C1896 1.394 . S
C1895 C1901 1.465 . S
C1896 C1891 1.399 . S
C1896 C1895 1.394 . S
C1896 C1897 1.516 . S
C1897 C1896 1.516 . S
C1897 C1898 1.502 . S
C1897 C1899 1.561 . S
C1897 C1900 1.526 . S
C1898 H1882 0.959 . S
C1898 H1883 0.959 . S
C1898 H1884 0.961 . S
C1898 C1897 1.502 . S
C1899 H1885 0.960 . S
C1899 H1886 0.961 . S
C1899 H1887 0.959 . S
C1899 C1897 1.561 . S
C1900 C1897 1.526 . S
C1900 C1901 1.396 . S
C1900 C1905 1.390 . S
C1901 C1895 1.465 . S
C1901 C1900 1.396 . S
C1901 C1902 1.399 . S
C1902 H1888 0.929 . S
C1902 C1901 1.399 . S
C1902 C1903 1.385 . S
C1903 H1889 0.931 . S
C1903 C1902 1.385 . S
C1903 C1904 1.389 . S
C1904 C1903 1.389 . S
C1904 C1905 1.387 . S
C1905 H1890 0.930 . S
C1905 C1900 1.390 . S
C1905 C1904 1.387 . S
H1906 C1918 0.930 . S
H1907 C1920 0.930 . S
H1908 C1921 0.930 . S
H1909 C1925 0.959 . S
H1910 C1925 0.959 . S
H1911 C1925 0.961 . S
H1912 C1926 0.960 . S
H1913 C1926 0.961 . S
H1914 C1926 0.959 . S
H1915 C1929 0.929 . S
H1916 C1930 0.931 . S
H1917 C1932 0.930 . S
C1918 H1906 0.930 . S
C1918 C1919 1.399 . S
C1918 C1923 1.399 . S
C1919 C1918 1.399 . S
C1919 C1920 1.376 . S
C1920 H1907 0.930 . S
C1920 C1919 1.376 . S
C1920 C1921 1.388 . S
C1921 H1908 0.930 . S
C1921 C1920 1.388 . S
C1921 C1922 1.390 . S
C1922 C1921 1.390 . S
C1922 C1923 1.394 . S
C1922 C1928 1.465 . S
C1923 C1918 1.399 . S
C1923 C1922 1.394 . S
C1923 C1924 1.516 . S
C1924 C1923 1.516 . S
C1924 C1925 1.502 . S
C1924 C1926 1.561 . S
C1924 C1927 1.526 . S
C1925 H1909 0.959 . S
C1925 H1910 0.959 . S
C1925 H1911 0.961 . S
C1925 C1924 1.502 . S
C1926 H1912 0.960 . S
C1926 H1913 0.961 . S
C1926 H1914 0.959 . S
C1926 C1924 1.561 . S
C1927 C1924 1.526 . S
C1927 C1928 1.396 . S
C1927 C1932 1.390 . S
C1928 C1922 1.465 . S
C1928 C1927 1.396 . S
C1928 C1929 1.399 . S
C1929 H1915 0.929 . S
C1929 C1928 1.399 . S
C1929 C1930 1.385 . S
C1930 H1916 0.931 . S
C1930 C1929 1.385 . S
C1930 C1931 1.389 . S
C1931 C1930 1.389 . S
C1931 C1932 1.387 . S
C1932 H1917 0.930 . S
C1932 C1927 1.390 . S
C1932 C1931 1.387 . S
H1933 C1945 0.930 . S
H1934 C1947 0.930 . S
H1935 C1948 0.930 . S
H1936 C1952 0.959 . S
H1937 C1952 0.959 . S
H1938 C1952 0.961 . S
H1939 C1953 0.960 . S
H1940 C1953 0.961 . S
H1941 C1953 0.959 . S
H1942 C1956 0.929 . S
H1943 C1957 0.931 . S
H1944 C1959 0.930 . S
C1945 H1933 0.930 . S
C1945 C1946 1.399 . S
C1945 C1950 1.399 . S
C1946 C1945 1.399 . S
C1946 C1947 1.376 . S
C1947 H1934 0.930 . S
C1947 C1946 1.376 . S
C1947 C1948 1.388 . S
C1948 H1935 0.930 . S
C1948 C1947 1.388 . S
C1948 C1949 1.390 . S
C1949 C1948 1.390 . S
C1949 C1950 1.394 . S
C1949 C1955 1.465 . S
C1950 C1945 1.399 . S
C1950 C1949 1.394 . S
C1950 C1951 1.516 . S
C1951 C1950 1.516 . S
C1951 C1952 1.502 . S
C1951 C1953 1.561 . S
C1951 C1954 1.526 . S
C1952 H1936 0.959 . S
C1952 H1937 0.959 . S
C1952 H1938 0.961 . S
C1952 C1951 1.502 . S
C1953 H1939 0.960 . S
C1953 H1940 0.961 . S
C1953 H1941 0.959 . S
C1953 C1951 1.561 . S
C1954 C1951 1.526 . S
C1954 C1955 1.396 . S
C1954 C1959 1.390 . S
C1955 C1949 1.465 . S
C1955 C1954 1.396 . S
C1955 C1956 1.399 . S
C1956 H1942 0.929 . S
C1956 C1955 1.399 . S
C1956 C1957 1.385 . S
C1957 H1943 0.931 . S
C1957 C1956 1.385 . S
C1957 C1958 1.389 . S
C1958 C1957 1.389 . S
C1958 C1959 1.387 . S
C1959 H1944 0.930 . S
C1959 C1954 1.390 . S
C1959 C1958 1.387 . S
H1960 C1972 0.930 . S
H1961 C1974 0.930 1_565 S
H1962 C1975 0.930 . S
H1963 C1979 0.959 . S
H1964 C1979 0.959 . S
H1965 C1979 0.961 . S
H1966 C1980 0.960 . S
H1967 C1980 0.961 . S
H1968 C1980 0.959 . S
H1969 C1983 0.929 . S
H1970 C1984 0.931 . S
H1971 C1986 0.930 . S
C1972 H1960 0.930 . S
C1972 C1973 1.399 1_545 S
C1972 C1977 1.399 . S
C1973 C1972 1.399 1_565 S
C1973 C1974 1.376 1_565 S
C1974 H1961 0.930 1_545 S
C1974 C1973 1.376 1_545 S
C1974 C1975 1.388 . S
C1975 H1962 0.930 . S
C1975 C1974 1.388 . S
C1975 C1976 1.390 . S
C1976 C1975 1.390 . S
C1976 C1977 1.394 . S
C1976 C1982 1.465 . S
C1977 C1972 1.399 . S
C1977 C1976 1.394 . S
C1977 C1978 1.516 . S
C1978 C1977 1.516 . S
C1978 C1979 1.502 . S
C1978 C1980 1.561 . S
C1978 C1981 1.526 . S
C1979 H1963 0.959 . S
C1979 H1964 0.959 . S
C1979 H1965 0.961 . S
C1979 C1978 1.502 . S
C1980 H1966 0.960 . S
C1980 H1967 0.961 . S
C1980 H1968 0.959 . S
C1980 C1978 1.561 . S
C1981 C1978 1.526 . S
C1981 C1982 1.396 . S
C1981 C1986 1.390 . S
C1982 C1976 1.465 . S
C1982 C1981 1.396 . S
C1982 C1983 1.399 . S
C1983 H1969 0.929 . S
C1983 C1982 1.399 . S
C1983 C1984 1.385 . S
C1984 H1970 0.931 . S
C1984 C1983 1.385 . S
C1984 C1985 1.389 . S
C1985 C1984 1.389 . S
C1985 C1986 1.387 . S
C1986 H1971 0.930 . S
C1986 C1981 1.390 . S
C1986 C1985 1.387 . S
H1987 C1999 0.930 . S
H1988 C2001 0.930 . S
H1989 C2002 0.930 . S
H1990 C2006 0.959 . S
H1991 C2006 0.959 . S
H1992 C2006 0.961 . S
H1993 C2007 0.960 . S
H1994 C2007 0.961 . S
H1995 C2007 0.959 . S
H1996 C2010 0.929 . S
H1997 C2011 0.931 1_565 S
H1998 C2013 0.930 . S
C1999 H1987 0.930 . S
C1999 C2000 1.399 . S
C1999 C2004 1.399 . S
C2000 C1999 1.399 . S
C2000 C2001 1.376 . S
C2001 H1988 0.930 . S
C2001 C2000 1.376 . S
C2001 C2002 1.388 . S
C2002 H1989 0.930 . S
C2002 C2001 1.388 . S
C2002 C2003 1.390 . S
C2003 C2002 1.390 . S
C2003 C2004 1.394 . S
C2003 C2009 1.465 . S
C2004 C1999 1.399 . S
C2004 C2003 1.394 . S
C2004 C2005 1.516 . S
C2005 C2004 1.516 . S
C2005 C2006 1.502 . S
C2005 C2007 1.561 . S
C2005 C2008 1.526 . S
C2006 H1990 0.959 . S
C2006 H1991 0.959 . S
C2006 H1992 0.961 . S
C2006 C2005 1.502 . S
C2007 H1993 0.960 . S
C2007 H1994 0.961 . S
C2007 H1995 0.959 . S
C2007 C2005 1.561 . S
C2008 C2005 1.526 . S
C2008 C2009 1.396 . S
C2008 C2013 1.390 . S
C2009 C2003 1.465 . S
C2009 C2008 1.396 . S
C2009 C2010 1.399 . S
C2010 H1996 0.929 . S
C2010 C2009 1.399 . S
C2010 C2011 1.385 . S
C2011 H1997 0.931 1_545 S
C2011 C2010 1.385 . S
C2011 C2012 1.389 1_545 S
C2012 C2011 1.389 1_565 S
C2012 C2013 1.387 1_565 S
C2013 H1998 0.930 . S
C2013 C2008 1.390 . S
C2013 C2012 1.387 1_545 S
H2014 C2026 0.930 . S
H2015 C2028 0.930 . S
H2016 C2029 0.930 . S
H2017 C2033 0.959 . S
H2018 C2033 0.959 . S
H2019 C2033 0.961 . S
H2020 C2034 0.960 . S
H2021 C2034 0.961 . S
H2022 C2034 0.959 . S
H2023 C2037 0.929 . S
H2024 C2038 0.931 . S
H2025 C2040 0.930 . S
C2026 H2014 0.930 . S
C2026 C2027 1.399 . S
C2026 C2031 1.399 . S
C2027 C2026 1.399 . S
C2027 C2028 1.376 . S
C2028 H2015 0.930 . S
C2028 C2027 1.376 . S
C2028 C2029 1.388 . S
C2029 H2016 0.930 . S
C2029 C2028 1.388 . S
C2029 C2030 1.390 . S
C2030 C2029 1.390 . S
C2030 C2031 1.394 . S
C2030 C2036 1.465 . S
C2031 C2026 1.399 . S
C2031 C2030 1.394 . S
C2031 C2032 1.516 . S
C2032 C2031 1.516 . S
C2032 C2033 1.502 . S
C2032 C2034 1.561 . S
C2032 C2035 1.526 . S
C2033 H2017 0.959 . S
C2033 H2018 0.959 . S
C2033 H2019 0.961 . S
C2033 C2032 1.502 . S
C2034 H2020 0.960 . S
C2034 H2021 0.961 . S
C2034 H2022 0.959 . S
C2034 C2032 1.561 . S
C2035 C2032 1.526 . S
C2035 C2036 1.396 . S
C2035 C2040 1.390 . S
C2036 C2030 1.465 . S
C2036 C2035 1.396 . S
C2036 C2037 1.399 . S
C2037 H2023 0.929 . S
C2037 C2036 1.399 . S
C2037 C2038 1.385 . S
C2038 H2024 0.931 . S
C2038 C2037 1.385 . S
C2038 C2039 1.389 1_565 S
C2039 C2038 1.389 1_545 S
C2039 C2040 1.387 1_545 S
C2040 H2025 0.930 . S
C2040 C2035 1.390 . S
C2040 C2039 1.387 1_565 S
H2041 C2053 0.930 . S
H2042 C2055 0.930 . S
H2043 C2056 0.930 . S
H2044 C2060 0.959 . S
H2045 C2060 0.959 . S
H2046 C2060 0.961 . S
H2047 C2061 0.960 . S
H2048 C2061 0.961 . S
H2049 C2061 0.959 . S
H2050 C2064 0.929 . S
H2051 C2065 0.931 1_545 S
H2052 C2067 0.930 . S
C2053 H2041 0.930 . S
C2053 C2054 1.399 . S
C2053 C2058 1.399 . S
C2054 C2053 1.399 . S
C2054 C2055 1.376 . S
C2055 H2042 0.930 . S
C2055 C2054 1.376 . S
C2055 C2056 1.388 . S
C2056 H2043 0.930 . S
C2056 C2055 1.388 . S
C2056 C2057 1.390 . S
C2057 C2056 1.390 . S
C2057 C2058 1.394 . S
C2057 C2063 1.465 . S
C2058 C2053 1.399 . S
C2058 C2057 1.394 . S
C2058 C2059 1.516 . S
C2059 C2058 1.516 . S
C2059 C2060 1.502 . S
C2059 C2061 1.561 . S
C2059 C2062 1.526 . S
C2060 H2044 0.959 . S
C2060 H2045 0.959 . S
C2060 H2046 0.961 . S
C2060 C2059 1.502 . S
C2061 H2047 0.960 . S
C2061 H2048 0.961 . S
C2061 H2049 0.959 . S
C2061 C2059 1.561 . S
C2062 C2059 1.526 . S
C2062 C2063 1.396 . S
C2062 C2067 1.390 . S
C2063 C2057 1.465 . S
C2063 C2062 1.396 . S
C2063 C2064 1.399 . S
C2064 H2050 0.929 . S
C2064 C2063 1.399 . S
C2064 C2065 1.385 . S
C2065 H2051 0.931 1_565 S
C2065 C2064 1.385 . S
C2065 C2066 1.389 1_565 S
C2066 C2065 1.389 1_545 S
C2066 C2067 1.387 1_545 S
C2067 H2052 0.930 . S
C2067 C2062 1.390 . S
C2067 C2066 1.387 1_565 S
H2068 C2080 0.930 . S
H2069 C2082 0.930 . S
H2070 C2083 0.930 . S
H2071 C2087 0.959 . S
H2072 C2087 0.959 . S
H2073 C2087 0.961 . S
H2074 C2088 0.960 . S
H2075 C2088 0.961 . S
H2076 C2088 0.959 . S
H2077 C2091 0.929 . S
H2078 C2092 0.931 . S
H2079 C2094 0.930 . S
C2080 H2068 0.930 . S
C2080 C2081 1.399 . S
C2080 C2085 1.399 . S
C2081 C2080 1.399 . S
C2081 C2082 1.376 . S
C2082 H2069 0.930 . S
C2082 C2081 1.376 . S
C2082 C2083 1.388 . S
C2083 H2070 0.930 . S
C2083 C2082 1.388 . S
C2083 C2084 1.390 . S
C2084 C2083 1.390 . S
C2084 C2085 1.394 . S
C2084 C2090 1.465 . S
C2085 C2080 1.399 . S
C2085 C2084 1.394 . S
C2085 C2086 1.516 . S
C2086 C2085 1.516 . S
C2086 C2087 1.502 . S
C2086 C2088 1.561 . S
C2086 C2089 1.526 . S
C2087 H2071 0.959 . S
C2087 H2072 0.959 . S
C2087 H2073 0.961 . S
C2087 C2086 1.502 . S
C2088 H2074 0.960 . S
C2088 H2075 0.961 . S
C2088 H2076 0.959 . S
C2088 C2086 1.561 . S
C2089 C2086 1.526 . S
C2089 C2090 1.396 . S
C2089 C2094 1.390 . S
C2090 C2084 1.465 . S
C2090 C2089 1.396 . S
C2090 C2091 1.399 . S
C2091 H2077 0.929 . S
C2091 C2090 1.399 . S
C2091 C2092 1.385 . S
C2092 H2078 0.931 . S
C2092 C2091 1.385 . S
C2092 C2093 1.389 . S
C2093 C2092 1.389 . S
C2093 C2094 1.387 . S
C2094 H2079 0.930 . S
C2094 C2089 1.390 . S
C2094 C2093 1.387 . S
H2095 C2107 0.930 . S
H2096 C2109 0.930 . S
H2097 C2110 0.930 . S
H2098 C2114 0.959 . S
H2099 C2114 0.959 . S
H2100 C2114 0.961 . S
H2101 C2115 0.960 . S
H2102 C2115 0.961 . S
H2103 C2115 0.959 . S
H2104 C2118 0.929 . S
H2105 C2119 0.931 . S
H2106 C2121 0.930 . S
C2107 H2095 0.930 . S
C2107 C2108 1.399 . S
C2107 C2112 1.399 . S
C2108 C2107 1.399 . S
C2108 C2109 1.376 . S
C2109 H2096 0.930 . S
C2109 C2108 1.376 . S
C2109 C2110 1.388 . S
C2110 H2097 0.930 . S
C2110 C2109 1.388 . S
C2110 C2111 1.390 . S
C2111 C2110 1.390 . S
C2111 C2112 1.394 . S
C2111 C2117 1.465 . S
C2112 C2107 1.399 . S
C2112 C2111 1.394 . S
C2112 C2113 1.516 . S
C2113 C2112 1.516 . S
C2113 C2114 1.502 . S
C2113 C2115 1.561 . S
C2113 C2116 1.526 . S
C2114 H2098 0.959 . S
C2114 H2099 0.959 . S
C2114 H2100 0.961 . S
C2114 C2113 1.502 . S
C2115 H2101 0.960 . S
C2115 H2102 0.961 . S
C2115 H2103 0.959 . S
C2115 C2113 1.561 . S
C2116 C2113 1.526 . S
C2116 C2117 1.396 . S
C2116 C2121 1.390 . S
C2117 C2111 1.465 . S
C2117 C2116 1.396 . S
C2117 C2118 1.399 . S
C2118 H2104 0.929 . S
C2118 C2117 1.399 . S
C2118 C2119 1.385 . S
C2119 H2105 0.931 . S
C2119 C2118 1.385 . S
C2119 C2120 1.389 . S
C2120 C2119 1.389 . S
C2120 C2121 1.387 . S
C2121 H2106 0.930 . S
C2121 C2116 1.390 . S
C2121 C2120 1.387 . S
H2122 C2134 0.930 . S
H2123 C2136 0.930 . S
H2124 C2137 0.930 . S
H2125 C2141 0.959 . S
H2126 C2141 0.959 . S
H2127 C2141 0.961 . S
H2128 C2142 0.960 . S
H2129 C2142 0.961 . S
H2130 C2142 0.959 . S
H2131 C2145 0.929 . S
H2132 C2146 0.931 . S
H2133 C2148 0.930 . S
C2134 H2122 0.930 . S
C2134 C2135 1.399 . S
C2134 C2139 1.399 . S
C2135 C2134 1.399 . S
C2135 C2136 1.376 . S
C2136 H2123 0.930 . S
C2136 C2135 1.376 . S
C2136 C2137 1.388 . S
C2137 H2124 0.930 . S
C2137 C2136 1.388 . S
C2137 C2138 1.390 . S
C2138 C2137 1.390 . S
C2138 C2139 1.394 . S
C2138 C2144 1.465 . S
C2139 C2134 1.399 . S
C2139 C2138 1.394 . S
C2139 C2140 1.516 . S
C2140 C2139 1.516 . S
C2140 C2141 1.502 . S
C2140 C2142 1.561 . S
C2140 C2143 1.526 . S
C2141 H2125 0.959 . S
C2141 H2126 0.959 . S
C2141 H2127 0.961 . S
C2141 C2140 1.502 . S
C2142 H2128 0.960 . S
C2142 H2129 0.961 . S
C2142 H2130 0.959 . S
C2142 C2140 1.561 . S
C2143 C2140 1.526 . S
C2143 C2144 1.396 . S
C2143 C2148 1.390 . S
C2144 C2138 1.465 . S
C2144 C2143 1.396 . S
C2144 C2145 1.399 . S
C2145 H2131 0.929 . S
C2145 C2144 1.399 . S
C2145 C2146 1.385 . S
C2146 H2132 0.931 . S
C2146 C2145 1.385 . S
C2146 C2147 1.389 . S
C2147 C2146 1.389 . S
C2147 C2148 1.387 . S
C2148 H2133 0.930 . S
C2148 C2143 1.390 . S
C2148 C2147 1.387 . S
H2149 C2161 0.930 . S
H2150 C2163 0.930 . S
H2151 C2164 0.930 . S
H2152 C2168 0.959 . S
H2153 C2168 0.959 . S
H2154 C2168 0.961 . S
H2155 C2169 0.960 . S
H2156 C2169 0.961 . S
H2157 C2169 0.959 . S
H2158 C2172 0.929 . S
H2159 C2173 0.931 . S
H2160 C2175 0.930 . S
C2161 H2149 0.930 . S
C2161 C2162 1.399 . S
C2161 C2166 1.399 . S
C2162 C2161 1.399 . S
C2162 C2163 1.376 . S
C2163 H2150 0.930 . S
C2163 C2162 1.376 . S
C2163 C2164 1.388 . S
C2164 H2151 0.930 . S
C2164 C2163 1.388 . S
C2164 C2165 1.390 . S
C2165 C2164 1.390 . S
C2165 C2166 1.394 . S
C2165 C2171 1.465 . S
C2166 C2161 1.399 . S
C2166 C2165 1.394 . S
C2166 C2167 1.516 . S
C2167 C2166 1.516 . S
C2167 C2168 1.502 . S
C2167 C2169 1.561 . S
C2167 C2170 1.526 . S
C2168 H2152 0.959 . S
C2168 H2153 0.959 . S
C2168 H2154 0.961 . S
C2168 C2167 1.502 . S
C2169 H2155 0.960 . S
C2169 H2156 0.961 . S
C2169 H2157 0.959 . S
C2169 C2167 1.561 . S
C2170 C2167 1.526 . S
C2170 C2171 1.396 . S
C2170 C2175 1.390 . S
C2171 C2165 1.465 . S
C2171 C2170 1.396 . S
C2171 C2172 1.399 . S
C2172 H2158 0.929 . S
C2172 C2171 1.399 . S
C2172 C2173 1.385 . S
C2173 H2159 0.931 . S
C2173 C2172 1.385 . S
C2173 C2174 1.389 . S
C2174 C2173 1.389 . S
C2174 C2175 1.387 . S
C2175 H2160 0.930 . S
C2175 C2170 1.390 . S
C2175 C2174 1.387 . S
C461 C37 0.387 . S
C473 C9 0.568 . S
C488 C23 0.606 . S
C500 C51 0.405 . S
C515 C93 0.569 . S
C527 C65 0.351 . S
C542 C107 0.423 . S
C554 C79 0.617 . S
C569 C121 0.608 . S
C581 C149 0.402 . S
C596 C163 0.384 . S
C608 C135 0.571 . S
C623 C177 0.470 . S
C635 C205 0.609 . S
C650 C191 0.559 . S
C662 C219 0.353 . S
C677 C261 0.609 . S
C689 C233 0.399 . S
C704 C247 0.426 . S
C716 C275 0.534 . S
C731 C289 0.568 . S
C743 C317 0.351 . S
C758 C331 0.480 . S
C770 C303 0.606 . S
C785 C373 0.365 . S
C797 C345 0.589 . S
C812 C387 0.586 . S
C824 C359 0.443 . S
C839 C429 0.545 . S
C851 C401 0.358 . S
C866 C415 0.567 . S
C878 C443 0.351 . S
C893 C67 1.608 . S
C905 C11 1.555 . S
C920 C417 1.587 . S
C932 C25 1.564 . S
C947 C39 1.579 . S
C959 C207 1.589 . S
C974 C53 1.571 . S
C986 C333 1.597 . S
C1001 C81 1.551 . S
C1013 C361 1.603 . S
C1028 C95 1.567 . S
C1040 C151 1.599 . S
C1055 C277 1.583 . S
C1067 C109 1.569 . S
C1082 C179 1.590 . S
C1094 C123 1.579 . S
C1109 C305 1.575 . S
C1121 C137 1.592 . S
C1136 C165 1.580 . S
C1148 C445 1.571 . S
C1163 C193 1.576 . S
C1175 C249 1.592 . S
C1190 C389 1.593 . S
C1202 C221 1.560 . S
C1217 C291 1.552 . S
C1229 C235 1.602 . S
C1244 C263 1.601 . S
C1256 C431 1.553 . S
C1271 C319 1.609 . S
C1283 C375 1.551 . S
C1298 C403 1.609 . S
C1310 C347 1.551 . S
C1325 C47 1.508 . S
C1337 C5 1.493 . S
C1352 C33 1.505 . S
C1364 C19 1.495 . S
C1379 C103 1.491 . S
C1391 C61 1.504 . S
C1406 C89 1.513 . S
C1418 C75 1.494 . S
C1433 C159 1.496 . S
C1445 C117 1.511 . S
C1460 C145 1.494 . S
C1472 C131 1.511 . S
C1487 C215 1.491 . S
C1499 C173 1.503 . S
C1514 C201 1.506 . S
C1526 C187 1.507 . S
C1541 C229 1.495 . S
C1553 C271 1.511 . S
C1568 C257 1.491 . S
C1580 C243 1.513 . S
C1595 C285 1.513 . S
C1607 C327 1.498 . S
C1622 C313 1.490 . S
C1634 C299 1.504 . S
C1649 C383 1.509 . S
C1661 C341 1.492 . S
C1676 C355 1.495 . S
C1688 C369 1.510 . S
C1703 C397 1.512 . S
C1715 C439 1.500 . S
C1730 C425 1.510 . S
C1742 C411 1.502 . S
C1757 C28 1.510 . S
C1769 C0 1.494 . S
C1784 C14 1.479 . S
C1796 C42 1.492 . S
C1811 C56 1.500 . S
C1823 C84 1.498 . S
C1838 C70 1.477 . S
C1850 C98 1.477 . S
C1865 C112 1.498 . S
C1877 C140 1.514 . S
C1892 C126 1.520 . S
C1904 C154 1.507 . S
C1919 C196 1.491 . S
C1931 C168 1.490 . S
C1946 C210 1.481 . S
C1958 C182 1.481 . S
C1973 C252 1.478 . S
C1985 C224 1.489 . S
C2000 C266 1.521 . S
C2012 C238 1.510 . S
C2027 C280 1.515 . S
C2039 C308 1.516 . S
C2054 C322 1.523 . S
C2066 C294 1.523 . S
C2081 C364 1.480 . S
C2093 C336 1.494 . S
C2108 C350 1.498 . S
C2120 C378 1.483 . S
C2135 C392 1.517 . S
C2147 C420 1.518 . S
C2162 C434 1.495 . S
C2174 C406 1.493 . S
