# Generated by pormake.
# Topology dia, (4)-cn, num edge types: 1
# Building blocks:
#     Node 0, Type 0, BuildingBlock: UXUYUI_clean_sbu_0, # of connection points: 4
#     Node 1, Type 0, BuildingBlock: UXUYUI_clean_sbu_0, # of connection points: 4
#     Node 2, Type 0, BuildingBlock: UXUYUI_clean_sbu_0, # of connection points: 4
#     Node 3, Type 0, BuildingBlock: UXUYUI_clean_sbu_0, # of connection points: 4
#     Node 4, Type 0, BuildingBlock: UXUYUI_clean_sbu_0, # of connection points: 4
#     Node 5, Type 0, BuildingBlock: UXUYUI_clean_sbu_0, # of connection points: 4
#     Node 6, Type 0, BuildingBlock: UXUYUI_clean_sbu_0, # of connection points: 4
#     Node 7, Type 0, BuildingBlock: UXUYUI_clean_sbu_0, # of connection points: 4
#     Edge 8, Type (0, 0), BuildingBlock: ZUJKAS_clean_linker_0, # of connection points: 2
#     Edge 9, Type (0, 0), BuildingBlock: ZUJKAS_clean_linker_0, # of connection points: 2
#     Edge 10, Type (0, 0), BuildingBlock: ZUJKAS_clean_linker_0, # of connection points: 2
#     Edge 11, Type (0, 0), BuildingBlock: ZUJKAS_clean_linker_0, # of connection points: 2
#     Edge 12, Type (0, 0), BuildingBlock: ZUJKAS_clean_linker_0, # of connection points: 2
#     Edge 13, Type (0, 0), BuildingBlock: ZUJKAS_clean_linker_0, # of connection points: 2
#     Edge 14, Type (0, 0), BuildingBlock: ZUJKAS_clean_linker_0, # of connection points: 2
#     Edge 15, Type (0, 0), BuildingBlock: ZUJKAS_clean_linker_0, # of connection points: 2
#     Edge 16, Type (0, 0), BuildingBlock: ZUJKAS_clean_linker_0, # of connection points: 2
#     Edge 17, Type (0, 0), BuildingBlock: ZUJKAS_clean_linker_0, # of connection points: 2
#     Edge 18, Type (0, 0), BuildingBlock: ZUJKAS_clean_linker_0, # of connection points: 2
#     Edge 19, Type (0, 0), BuildingBlock: ZUJKAS_clean_linker_0, # of connection points: 2
#     Edge 20, Type (0, 0), BuildingBlock: ZUJKAS_clean_linker_0, # of connection points: 2
#     Edge 21, Type (0, 0), BuildingBlock: ZUJKAS_clean_linker_0, # of connection points: 2
#     Edge 22, Type (0, 0), BuildingBlock: ZUJKAS_clean_linker_0, # of connection points: 2
#     Edge 23, Type (0, 0), BuildingBlock: ZUJKAS_clean_linker_0, # of connection points: 2
# Relax obj value: 0.000
# Max RMSD: 0.003
# Mean RMSD: 0.003
data_MOF--net-dia--node1-UXUYUI_clean_sbu_0--edge1-ZUJKAS_clean_linker_0
_symmetry_space_group_name_H-M    P1
_symmetry_Int_Tables_number       1
_symmetry_cell_setting            triclinic
loop_
_symmetry_equiv_pos_as_xyz
'x, y, z'
_cell_length_a     61.949795
_cell_length_b     61.985397
_cell_length_c     62.013161
_cell_angle_alpha  89.99214
_cell_angle_beta   90.007631
_cell_angle_gamma 89.985883
loop_
_atom_site_label
_atom_site_type_symbol
_atom_site_fract_x
_atom_site_fract_y
_atom_site_fract_z
_atom_type_partial_charge
Li0 Li 0.12182 0.14676 0.64384 0.0
Li1 Li 0.14901 0.11781 0.64436 0.0
Li2 Li 0.14875 0.1466 0.61529 0.0
Li3 Li 0.12166 0.11755 0.61525 0.0
C4 C 0.15687 0.16457 0.66266 0.0
N5 N 0.16247 0.19499 0.69475 0.0
C6 C 0.16348 0.15822 0.68326 0.0
C7 C 0.15344 0.18642 0.6583 0.0
C8 C 0.16614 0.17383 0.69929 0.0
C9 C 0.15625 0.20155 0.67477 0.0
C10 C 0.11114 0.09834 0.65997 0.0
C11 C 0.10693 0.06014 0.6661 0.0
N12 N 0.09926 0.06431 0.68622 0.0
C13 C 0.10294 0.10226 0.6806 0.0
C14 C 0.11292 0.07712 0.65256 0.0
C15 C 0.09713 0.08484 0.69367 0.0
C16 C 0.08868 0.17712 0.65231 0.0
N17 N 0.10408 0.16462 0.66169 0.0
C18 C 0.09427 0.17769 0.69663 0.0
C19 C 0.10693 0.16453 0.68343 0.0
C20 C 0.0783 0.19092 0.68742 0.0
C21 C 0.07557 0.19044 0.66491 0.0
H22 H 0.08645 0.17663 0.63504 0.0
H23 H 0.11906 0.15423 0.69055 0.0
C24 C 0.18544 0.092 0.65397 0.0
N25 N 0.16684 0.10011 0.66231 0.0
C26 C 0.19882 0.07888 0.66652 0.0
C27 C 0.17396 0.08315 0.69623 0.0
C28 C 0.16107 0.09616 0.68309 0.0
C29 C 0.19311 0.07424 0.68796 0.0
H30 H 0.18994 0.09578 0.63756 0.0
H31 H 0.14656 0.10329 0.68959 0.0
C32 C 0.11353 0.16403 0.59626 0.0
N33 N 0.10761 0.19401 0.56379 0.0
C34 C 0.10655 0.15743 0.57587 0.0
C35 C 0.11717 0.18593 0.60022 0.0
C36 C 0.10373 0.17281 0.55965 0.0
C37 C 0.11419 0.20082 0.58358 0.0
C38 C 0.15965 0.09815 0.59974 0.0
C39 C 0.16748 0.10205 0.57896 0.0
C40 C 0.15839 0.07697 0.60734 0.0
C41 C 0.17342 0.08464 0.56595 0.0
C42 C 0.1645 0.05999 0.59385 0.0
N43 N 0.17179 0.06414 0.57359 0.0
C44 C 0.18214 0.1765 0.60646 0.0
C45 C 0.16337 0.16427 0.57552 0.0
C46 C 0.19527 0.18971 0.59375 0.0
N47 N 0.16648 0.16424 0.59722 0.0
C48 C 0.17601 0.17734 0.56221 0.0
C49 C 0.19225 0.19033 0.57128 0.0
H50 H 0.18456 0.17592 0.62371 0.0
H51 H 0.15105 0.15414 0.5685 0.0
C52 C 0.08551 0.09115 0.60602 0.0
N53 N 0.10394 0.09951 0.59753 0.0
C54 C 0.0723 0.07774 0.59362 0.0
C55 C 0.09695 0.0822 0.56377 0.0
C56 C 0.10967 0.09552 0.57675 0.0
C57 C 0.078 0.07301 0.57219 0.0
H58 H 0.08106 0.09489 0.62245 0.0
H59 H 0.12395 0.10294 0.5701 0.0
O60 O 0.15395 0.14948 0.64682 0.0
O61 O 0.117 0.11523 0.64699 0.0
O62 O 0.1166 0.14916 0.61228 0.0
O63 O 0.15368 0.11504 0.61267 0.0
H64 H 0.16641 0.14142 0.68687 0.0
H65 H 0.14866 0.19166 0.64239 0.0
H66 H 0.17111 0.16913 0.71533 0.0
H67 H 0.15352 0.2185 0.67164 0.0
H68 H 0.10829 0.04364 0.66058 0.0
H69 H 0.10118 0.11856 0.68651 0.0
H70 H 0.11862 0.0738 0.63645 0.0
H71 H 0.09091 0.08765 0.70972 0.0
H72 H 0.09715 0.17763 0.71385 0.0
H73 H 0.06321 0.20002 0.6571 0.0
H74 H 0.21363 0.07272 0.65959 0.0
H75 H 0.16885 0.07996 0.71262 0.0
H76 H 0.10344 0.1406 0.57256 0.0
H77 H 0.12226 0.19136 0.61597 0.0
H78 H 0.09846 0.1679 0.54376 0.0
H79 H 0.11708 0.2178 0.5864 0.0
H80 H 0.16883 0.11833 0.57288 0.0
H81 H 0.153 0.07366 0.62357 0.0
H82 H 0.17934 0.08743 0.54978 0.0
H83 H 0.16353 0.04351 0.59953 0.0
H84 H 0.20783 0.19909 0.60145 0.0
H85 H 0.1729 0.1774 0.54503 0.0
H86 H 0.05791 0.07094 0.60083 0.0
H87 H 0.10173 0.07943 0.54721 0.0
Li88 Li 0.8705 0.3942 0.86578 0.0
Li89 Li 0.89758 0.39544 0.89461 0.0
Li90 Li 0.89809 0.36672 0.86564 0.0
Li91 Li 0.87087 0.36555 0.89458 0.0
C92 C 0.90342 0.41511 0.84867 0.0
N93 N 0.90448 0.44912 0.81988 0.0
C94 C 0.90791 0.43597 0.85594 0.0
C95 C 0.89972 0.4115 0.82673 0.0
C96 C 0.90832 0.45296 0.84114 0.0
C97 C 0.90024 0.42892 0.81244 0.0
C98 C 0.85831 0.40728 0.91557 0.0
C99 C 0.85301 0.40787 0.95411 0.0
N100 N 0.84344 0.42755 0.95241 0.0
C101 C 0.84816 0.42738 0.91418 0.0
C102 C 0.86054 0.39734 0.93568 0.0
C103 C 0.84087 0.43742 0.93299 0.0
C104 C 0.83989 0.40264 0.83273 0.0
N105 N 0.85236 0.41191 0.8482 0.0
C106 C 0.83948 0.44696 0.83851 0.0
C107 C 0.85231 0.43361 0.85135 0.0
C108 C 0.82648 0.43789 0.82229 0.0
C109 C 0.82681 0.41538 0.81951 0.0
H110 H 0.84011 0.38535 0.83062 0.0
H111 H 0.86232 0.44057 0.86381 0.0
C112 C 0.93536 0.40662 0.91729 0.0
N113 N 0.91515 0.41357 0.91229 0.0
C114 C 0.94884 0.41914 0.93029 0.0
C115 C 0.92071 0.44608 0.93232 0.0
C116 C 0.90776 0.433 0.91931 0.0
C117 C 0.94155 0.43916 0.93807 0.0
H118 H 0.941 0.39129 0.91115 0.0
H119 H 0.89189 0.43847 0.91467 0.0
C120 C 0.86436 0.34564 0.84897 0.0
N121 N 0.86137 0.31118 0.82086 0.0
C122 C 0.85805 0.32535 0.85653 0.0
C123 C 0.86892 0.34845 0.82707 0.0
C124 C 0.85667 0.30813 0.84207 0.0
C125 C 0.8674 0.33082 0.81313 0.0
C126 C 0.91105 0.35244 0.91422 0.0
C127 C 0.92039 0.33218 0.91088 0.0
C128 C 0.91063 0.36116 0.93501 0.0
C129 C 0.92868 0.32077 0.92845 0.0
C130 C 0.91911 0.34926 0.95216 0.0
N131 N 0.92785 0.32946 0.94857 0.0
C132 C 0.93077 0.35893 0.83461 0.0
C133 C 0.9149 0.32735 0.84914 0.0
C134 C 0.94418 0.34654 0.82137 0.0
N135 N 0.91642 0.3492 0.84804 0.0
C136 C 0.92789 0.31435 0.83611 0.0
C137 C 0.94282 0.3239 0.82195 0.0
H138 H 0.93187 0.37632 0.83423 0.0
H139 H 0.90348 0.31998 0.86005 0.0
C140 C 0.83289 0.35405 0.91677 0.0
N141 N 0.85331 0.34736 0.91229 0.0
C142 C 0.81942 0.34156 0.92985 0.0
C143 C 0.84809 0.31534 0.93316 0.0
C144 C 0.86095 0.32827 0.91993 0.0
C145 C 0.82705 0.32198 0.93836 0.0
H146 H 0.82711 0.36918 0.91028 0.0
H147 H 0.87694 0.32292 0.91561 0.0
O148 O 0.90255 0.39834 0.86297 0.0
O149 O 0.86556 0.39727 0.89727 0.0
O150 O 0.866 0.36264 0.86293 0.0
O151 O 0.90288 0.36382 0.89713 0.0
H152 H 0.91087 0.43904 0.87284 0.0
H153 H 0.89631 0.39545 0.82083 0.0
H154 H 0.91165 0.46921 0.84655 0.0
H155 H 0.89724 0.42638 0.79545 0.0
H156 H 0.85467 0.40035 0.96977 0.0
H157 H 0.84602 0.43522 0.89876 0.0
H158 H 0.8677 0.38153 0.93704 0.0
H159 H 0.83313 0.45304 0.93215 0.0
H160 H 0.83954 0.46418 0.84147 0.0
H161 H 0.81726 0.40768 0.80708 0.0
H162 H 0.96492 0.41334 0.93396 0.0
H163 H 0.91437 0.46133 0.938 0.0
H164 H 0.85435 0.3229 0.87339 0.0
H165 H 0.87379 0.36404 0.82094 0.0
H166 H 0.85191 0.29232 0.84771 0.0
H167 H 0.87104 0.33273 0.79618 0.0
H168 H 0.92113 0.32526 0.89491 0.0
H169 H 0.90413 0.37706 0.93787 0.0
H170 H 0.93581 0.30501 0.9261 0.0
H171 H 0.91884 0.35583 0.96832 0.0
H172 H 0.95568 0.35464 0.81101 0.0
H173 H 0.92604 0.297 0.83696 0.0
H174 H 0.80334 0.34734 0.93353 0.0
H175 H 0.85446 0.30015 0.93901 0.0
Li176 Li 0.62111 0.14507 0.14529 0.0
Li177 Li 0.64824 0.11592 0.14575 0.0
Li178 Li 0.64818 0.14478 0.11666 0.0
Li179 Li 0.62092 0.11589 0.11663 0.0
C180 C 0.65692 0.16264 0.16389 0.0
N181 N 0.66432 0.19308 0.19558 0.0
C182 C 0.66325 0.15617 0.18453 0.0
C183 C 0.65466 0.18459 0.15927 0.0
C184 C 0.66684 0.17181 0.20036 0.0
C185 C 0.65838 0.19973 0.17554 0.0
C186 C 0.61004 0.09687 0.1614 0.0
C187 C 0.6063 0.05874 0.16822 0.0
N188 N 0.59774 0.06321 0.18792 0.0
C189 C 0.60098 0.10109 0.1816 0.0
C190 C 0.61253 0.07554 0.15455 0.0
C191 C 0.59495 0.08385 0.19481 0.0
C192 C 0.58756 0.17494 0.15399 0.0
N193 N 0.60344 0.16292 0.16319 0.0
C194 C 0.59403 0.17617 0.19817 0.0
C195 C 0.60671 0.16313 0.18487 0.0
C196 C 0.5776 0.18894 0.18913 0.0
C197 C 0.57442 0.18814 0.16669 0.0
H198 H 0.58496 0.17415 0.13678 0.0
H199 H 0.61911 0.15309 0.19188 0.0
C200 C 0.68516 0.09105 0.15573 0.0
N201 N 0.66602 0.09821 0.16371 0.0
C202 C 0.69867 0.0781 0.16834 0.0
C203 C 0.67259 0.08025 0.19721 0.0
C204 C 0.65972 0.09332 0.18412 0.0
C205 C 0.69241 0.07242 0.1894 0.0
H206 H 0.69001 0.09551 0.13958 0.0
H207 H 0.64479 0.09971 0.19039 0.0
C208 C 0.61247 0.16299 0.09841 0.0
N209 N 0.60531 0.19423 0.06743 0.0
C210 C 0.60489 0.15717 0.07799 0.0
C211 C 0.61611 0.18472 0.10316 0.0
C212 C 0.60144 0.1732 0.06253 0.0
C213 C 0.61248 0.20027 0.08726 0.0
C214 C 0.65869 0.09663 0.1007 0.0
C215 C 0.66575 0.10098 0.07974 0.0
C216 C 0.65798 0.07532 0.10801 0.0
C217 C 0.67146 0.08386 0.06625 0.0
C218 C 0.66384 0.05864 0.09404 0.0
N219 N 0.67037 0.06322 0.07361 0.0
C220 C 0.6828 0.17316 0.10793 0.0
C221 C 0.66225 0.16364 0.07718 0.0
C222 C 0.69624 0.18621 0.09539 0.0
N223 N 0.6661 0.16233 0.09872 0.0
C224 C 0.67515 0.17664 0.06406 0.0
C225 C 0.69246 0.18818 0.07311 0.0
H226 H 0.6858 0.17153 0.12503 0.0
H227 H 0.64917 0.15453 0.07013 0.0
C228 C 0.58498 0.0892 0.10754 0.0
N229 N 0.60308 0.09803 0.09887 0.0
C230 C 0.57161 0.07601 0.09507 0.0
C231 C 0.59548 0.08162 0.06479 0.0
C232 C 0.60835 0.09473 0.07784 0.0
C233 C 0.57682 0.07198 0.07337 0.0
H234 H 0.5808 0.09251 0.12413 0.0
H235 H 0.62242 0.10245 0.07109 0.0
O236 O 0.65324 0.14755 0.14821 0.0
O237 O 0.61621 0.11357 0.14835 0.0
O238 O 0.61607 0.1475 0.1137 0.0
O239 O 0.65296 0.11321 0.1141 0.0
H240 H 0.66525 0.13927 0.18833 0.0
H241 H 0.65015 0.18989 0.1433 0.0
H242 H 0.67162 0.16702 0.21645 0.0
H243 H 0.6566 0.21677 0.17222 0.0
H244 H 0.6082 0.04216 0.16314 0.0
H245 H 0.59873 0.11749 0.18709 0.0
H246 H 0.61901 0.07199 0.13878 0.0
H247 H 0.58806 0.08689 0.21055 0.0
H248 H 0.59723 0.17636 0.21533 0.0
H249 H 0.56169 0.19734 0.15903 0.0
H250 H 0.71397 0.07289 0.16172 0.0
H251 H 0.6669 0.07622 0.21321 0.0
H252 H 0.6018 0.14046 0.07409 0.0
H253 H 0.62165 0.18953 0.11897 0.0
H254 H 0.5957 0.16892 0.04662 0.0
H255 H 0.61534 0.21714 0.0907 0.0
H256 H 0.66663 0.11738 0.07389 0.0
H257 H 0.65315 0.07168 0.12435 0.0
H258 H 0.67677 0.08698 0.04993 0.0
H259 H 0.66328 0.04206 0.09947 0.0
H260 H 0.70964 0.19439 0.10306 0.0
H261 H 0.67142 0.17776 0.04704 0.0
H262 H 0.55716 0.06933 0.10228 0.0
H263 H 0.60023 0.07894 0.0482 0.0
Li264 Li 0.8998 0.89428 0.39569 0.0
Li265 Li 0.87138 0.89367 0.36625 0.0
Li266 Li 0.87184 0.86675 0.39465 0.0
Li267 Li 0.8981 0.86517 0.36661 0.0
C268 C 0.85103 0.90009 0.41103 0.0
N269 N 0.81571 0.90102 0.43818 0.0
C270 C 0.83023 0.89773 0.40264 0.0
C271 C 0.85389 0.90305 0.43319 0.0
C272 C 0.81257 0.8982 0.41665 0.0
C273 C 0.83582 0.90345 0.44665 0.0
C274 C 0.90672 0.91385 0.35009 0.0
C275 C 0.90574 0.92966 0.31455 0.0
N276 N 0.9125 0.94876 0.32296 0.0
C277 C 0.91381 0.93359 0.35836 0.0
C278 C 0.90281 0.9118 0.32798 0.0
C279 C 0.91659 0.95106 0.34438 0.0
C280 C 0.93899 0.90671 0.41533 0.0
N281 N 0.91783 0.91199 0.41297 0.0
C282 C 0.92228 0.94301 0.43541 0.0
C283 C 0.90933 0.92976 0.42259 0.0
C284 C 0.9442 0.9379 0.43835 0.0
C285 C 0.95253 0.91947 0.42807 0.0
H286 H 0.94532 0.89255 0.40734 0.0
H287 H 0.89247 0.93365 0.42027 0.0
C288 C 0.8374 0.90273 0.33707 0.0
N289 N 0.85349 0.91186 0.34886 0.0
C290 C 0.824 0.91555 0.32423 0.0
C291 C 0.84385 0.94696 0.33606 0.0
C292 C 0.8566 0.93358 0.34896 0.0
C293 C 0.82732 0.93794 0.32348 0.0
H294 H 0.83486 0.8855 0.33772 0.0
H295 H 0.86895 0.94054 0.35909 0.0
C296 C 0.90562 0.84762 0.41423 0.0
N297 N 0.90948 0.81754 0.4469 0.0
C298 C 0.89851 0.82645 0.41107 0.0
C299 C 0.91479 0.85346 0.43398 0.0
C300 C 0.90055 0.8115 0.4278 0.0
C301 C 0.91659 0.83802 0.4503 0.0
C302 C 0.86504 0.84734 0.3476 0.0
C303 C 0.86156 0.82561 0.35257 0.0
C304 C 0.86772 0.85354 0.3261 0.0
C305 C 0.861 0.81043 0.33593 0.0
C306 C 0.86709 0.83787 0.30992 0.0
N307 N 0.86378 0.81682 0.31513 0.0
C308 C 0.83568 0.84051 0.40454 0.0
C309 C 0.85693 0.84955 0.43497 0.0
C310 C 0.82178 0.82828 0.4174 0.0
N311 N 0.85311 0.85048 0.41339 0.0
C312 C 0.84356 0.83738 0.4484 0.0
C313 C 0.8258 0.82639 0.43961 0.0
H314 H 0.83253 0.84209 0.38748 0.0
H315 H 0.87035 0.85831 0.44182 0.0
C316 C 0.92954 0.85722 0.33439 0.0
N317 N 0.9161 0.8474 0.34868 0.0
C318 C 0.94283 0.84496 0.32093 0.0
C319 C 0.92839 0.81265 0.3372 0.0
C320 C 0.91551 0.82554 0.35045 0.0
C321 C 0.94234 0.82231 0.32215 0.0
H322 H 0.9301 0.8746 0.33355 0.0
H323 H 0.90494 0.81802 0.36201 0.0
O324 O 0.86852 0.89904 0.39765 0.0
O325 O 0.90375 0.89661 0.36355 0.0
O326 O 0.90373 0.86255 0.39809 0.0
O327 O 0.86595 0.86244 0.36368 0.0
H328 H 0.82778 0.89528 0.38554 0.0
H329 H 0.86992 0.90469 0.43994 0.0
H330 H 0.79638 0.89626 0.41041 0.0
H331 H 0.83778 0.90558 0.46385 0.0
H332 H 0.90264 0.92832 0.29743 0.0
H333 H 0.91703 0.93548 0.37538 0.0
H334 H 0.89749 0.89662 0.32126 0.0
H335 H 0.92197 0.96646 0.35059 0.0
H336 H 0.91514 0.95693 0.44318 0.0
H337 H 0.96938 0.91509 0.42964 0.0
H338 H 0.81137 0.90802 0.3148 0.0
H339 H 0.84663 0.96421 0.3362 0.0
H340 H 0.89099 0.82176 0.39608 0.0
H341 H 0.9203 0.86978 0.43676 0.0
H342 H 0.89493 0.79512 0.42563 0.0
H343 H 0.92359 0.84233 0.46569 0.0
H344 H 0.85967 0.82044 0.36911 0.0
H345 H 0.87033 0.87026 0.32194 0.0
H346 H 0.85846 0.79355 0.33956 0.0
H347 H 0.86924 0.84245 0.29323 0.0
H348 H 0.80825 0.82011 0.40996 0.0
H349 H 0.84696 0.83678 0.46552 0.0
H350 H 0.95361 0.85318 0.30991 0.0
H351 H 0.92722 0.79528 0.3386 0.0
Li352 Li 0.12136 0.64492 0.14439 0.0
Li353 Li 0.14846 0.61592 0.14493 0.0
Li354 Li 0.14842 0.64481 0.11618 0.0
Li355 Li 0.12126 0.61591 0.11559 0.0
C356 C 0.15602 0.66237 0.16389 0.0
N357 N 0.16084 0.69219 0.19666 0.0
C358 C 0.16343 0.65584 0.18415 0.0
C359 C 0.15136 0.68413 0.16021 0.0
C360 C 0.1657 0.67114 0.20053 0.0
C361 C 0.1538 0.69894 0.17701 0.0
C362 C 0.1099 0.59664 0.16011 0.0
C363 C 0.10311 0.5587 0.16558 0.0
N364 N 0.09636 0.56295 0.18601 0.0
C365 C 0.10258 0.60065 0.18105 0.0
C366 C 0.1099 0.57552 0.15221 0.0
C367 C 0.09594 0.5834 0.19394 0.0
C368 C 0.08785 0.67485 0.15255 0.0
N369 N 0.10336 0.66264 0.16213 0.0
C370 C 0.09316 0.67584 0.1969 0.0
C371 C 0.1061 0.66278 0.18388 0.0
C372 C 0.07701 0.68872 0.1875 0.0
C373 C 0.07445 0.68805 0.16497 0.0
H374 H 0.08579 0.67423 0.13526 0.0
H375 H 0.11838 0.65278 0.19116 0.0
C376 C 0.18466 0.58975 0.15467 0.0
N377 N 0.16611 0.59806 0.16294 0.0
C378 C 0.19783 0.57647 0.16725 0.0
C379 C 0.17301 0.58115 0.19693 0.0
C380 C 0.16026 0.59423 0.18372 0.0
C381 C 0.19203 0.57197 0.18868 0.0
H382 H 0.1893 0.5935 0.13829 0.0
H383 H 0.14584 0.60155 0.19017 0.0
C384 C 0.11434 0.6621 0.09632 0.0
N385 N 0.11084 0.69135 0.06287 0.0
C386 C 0.1091 0.65501 0.07558 0.0
C387 C 0.11748 0.6841 0.10011 0.0
C388 C 0.10747 0.67004 0.05886 0.0
C389 C 0.11574 0.69862 0.08297 0.0
C390 C 0.15949 0.5955 0.10159 0.0
C391 C 0.16896 0.598 0.08128 0.0
C392 C 0.15674 0.57481 0.11009 0.0
C393 C 0.17509 0.57971 0.06962 0.0
C394 C 0.16309 0.55692 0.09795 0.0
N395 N 0.17203 0.55972 0.07812 0.0
C396 C 0.17987 0.67691 0.10742 0.0
C397 C 0.16488 0.6604 0.07641 0.0
C398 C 0.19277 0.69021 0.09459 0.0
N399 N 0.16618 0.66248 0.09819 0.0
C400 C 0.17748 0.67336 0.06295 0.0
C401 C 0.19166 0.68856 0.07201 0.0
H402 H 0.18088 0.67804 0.12477 0.0
H403 H 0.15396 0.64872 0.06945 0.0
C404 C 0.08402 0.59162 0.10556 0.0
N405 N 0.10345 0.59814 0.09773 0.0
C406 C 0.07054 0.57849 0.09315 0.0
C407 C 0.09706 0.57944 0.06461 0.0
C408 C 0.11001 0.59256 0.07757 0.0
C409 C 0.07705 0.57214 0.07239 0.0
H410 H 0.07902 0.59656 0.12152 0.0
H411 H 0.12515 0.59854 0.07137 0.0
O412 O 0.1535 0.64756 0.14772 0.0
O413 O 0.11644 0.61339 0.14726 0.0
O414 O 0.11631 0.64758 0.11282 0.0
O415 O 0.15325 0.61326 0.11315 0.0
H416 H 0.16734 0.63913 0.18723 0.0
H417 H 0.1458 0.6895 0.1446 0.0
H418 H 0.17131 0.66629 0.21632 0.0
H419 H 0.1501 0.7158 0.17443 0.0
H420 H 0.1031 0.54228 0.15967 0.0
H421 H 0.10217 0.61689 0.18736 0.0
H422 H 0.11479 0.57214 0.13585 0.0
H423 H 0.09041 0.58627 0.21023 0.0
H424 H 0.09595 0.67597 0.21413 0.0
H425 H 0.06199 0.69737 0.15701 0.0
H426 H 0.21257 0.57006 0.16038 0.0
H427 H 0.16792 0.57811 0.21335 0.0
H428 H 0.10647 0.63808 0.07237 0.0
H429 H 0.12128 0.68989 0.1161 0.0
H430 H 0.10357 0.66476 0.0427 0.0
H431 H 0.11828 0.71568 0.08566 0.0
H432 H 0.17148 0.61388 0.07454 0.0
H433 H 0.15008 0.57258 0.12601 0.0
H434 H 0.1823 0.58142 0.05383 0.0
H435 H 0.16102 0.54082 0.10435 0.0
H436 H 0.20373 0.70144 0.10228 0.0
H437 H 0.17592 0.67166 0.04564 0.0
H438 H 0.05531 0.57316 0.09986 0.0
H439 H 0.10253 0.57536 0.04853 0.0
Li440 Li 0.37243 0.39645 0.36716 0.0
Li441 Li 0.39884 0.39675 0.39489 0.0
Li442 Li 0.39957 0.36791 0.36592 0.0
Li443 Li 0.3714 0.36942 0.39534 0.0
C444 C 0.40632 0.41306 0.346 0.0
N445 N 0.41042 0.44027 0.3109 0.0
C446 C 0.40034 0.43475 0.34767 0.0
C447 C 0.41446 0.40524 0.32647 0.0
C448 C 0.4025 0.44823 0.32974 0.0
C449 C 0.4164 0.41925 0.30892 0.0
C450 C 0.36816 0.41687 0.41334 0.0
C451 C 0.3729 0.42839 0.45021 0.0
N452 N 0.37202 0.44932 0.44368 0.0
C453 C 0.36727 0.43851 0.40702 0.0
C454 C 0.37094 0.41177 0.43513 0.0
C455 C 0.36924 0.45467 0.42259 0.0
C456 C 0.33715 0.42406 0.35796 0.0
N457 N 0.3538 0.41319 0.34869 0.0
C458 C 0.34316 0.42561 0.31373 0.0
C459 C 0.3567 0.41338 0.32695 0.0
C460 C 0.32616 0.4375 0.32291 0.0
C461 C 0.32314 0.43642 0.34535 0.0
H462 H 0.3346 0.42298 0.37516 0.0
H463 H 0.36954 0.40402 0.3198 0.0
C464 C 0.42667 0.40495 0.43044 0.0
N465 N 0.4175 0.414 0.41269 0.0
C466 C 0.43987 0.41722 0.44399 0.0
C467 C 0.43423 0.44787 0.4206 0.0
C468 C 0.4212 0.43499 0.4075 0.0
C469 C 0.44374 0.43904 0.43918 0.0
H470 H 0.42367 0.38822 0.43417 0.0
H471 H 0.4139 0.44183 0.39328 0.0
C472 C 0.35007 0.36357 0.35139 0.0
N473 N 0.31353 0.3632 0.32588 0.0
C474 C 0.32974 0.36663 0.36067 0.0
C475 C 0.35183 0.36024 0.32918 0.0
C476 C 0.31145 0.36641 0.34749 0.0
C477 C 0.33316 0.36013 0.31655 0.0
C478 C 0.4047 0.3472 0.41085 0.0
C479 C 0.41106 0.3274 0.40211 0.0
C480 C 0.39937 0.34849 0.43272 0.0
C481 C 0.4118 0.30919 0.41536 0.0
C482 C 0.40026 0.3299 0.44543 0.0
N483 N 0.4064 0.3108 0.43656 0.0
C484 C 0.43862 0.35356 0.34753 0.0
C485 C 0.4079 0.33301 0.33767 0.0
C486 C 0.45192 0.3405 0.33486 0.0
N487 N 0.41705 0.34969 0.34856 0.0
C488 C 0.42059 0.31955 0.3248 0.0
C489 C 0.44293 0.32323 0.32322 0.0
H490 H 0.44543 0.36693 0.35644 0.0
H491 H 0.39076 0.33008 0.33911 0.0
C492 C 0.3393 0.36064 0.42686 0.0
N493 N 0.35299 0.35149 0.41239 0.0
C494 C 0.32596 0.34774 0.43964 0.0
C495 C 0.34067 0.31623 0.42204 0.0
C496 C 0.3536 0.32976 0.40949 0.0
C497 C 0.32664 0.32516 0.43748 0.0
H498 H 0.3386 0.37799 0.42838 0.0
H499 H 0.36431 0.32292 0.39754 0.0
O500 O 0.40441 0.39956 0.36337 0.0
O501 O 0.36683 0.4008 0.39826 0.0
O502 O 0.36818 0.36435 0.36396 0.0
O503 O 0.40364 0.36517 0.39805 0.0
H504 H 0.39362 0.44102 0.36245 0.0
H505 H 0.41908 0.38852 0.32479 0.0
H506 H 0.39775 0.46499 0.33077 0.0
H507 H 0.42261 0.41339 0.29371 0.0
H508 H 0.3752 0.42466 0.46709 0.0
H509 H 0.36538 0.44282 0.39023 0.0
H510 H 0.37189 0.39515 0.44032 0.0
H511 H 0.3687 0.47147 0.41789 0.0
H512 H 0.34619 0.42594 0.29654 0.0
H513 H 0.30992 0.44482 0.35309 0.0
H514 H 0.44671 0.40977 0.45823 0.0
H515 H 0.43701 0.46451 0.41608 0.0
H516 H 0.32813 0.36942 0.37782 0.0
H517 H 0.36748 0.35812 0.32172 0.0
H518 H 0.29562 0.36887 0.35442 0.0
H519 H 0.33428 0.3577 0.29931 0.0
H520 H 0.41531 0.32605 0.38526 0.0
H521 H 0.39426 0.3636 0.43976 0.0
H522 H 0.41662 0.29376 0.40878 0.0
H523 H 0.396 0.33065 0.46233 0.0
H524 H 0.469 0.34408 0.33396 0.0
H525 H 0.41303 0.30622 0.31641 0.0
H526 H 0.31504 0.35542 0.45091 0.0
H527 H 0.3419 0.29894 0.41986 0.0
Li528 Li 0.37049 0.89528 0.86578 0.0
Li529 Li 0.39755 0.89573 0.89481 0.0
Li530 Li 0.39753 0.8671 0.86566 0.0
Li531 Li 0.37025 0.8664 0.89448 0.0
C532 C 0.40448 0.91551 0.84905 0.0
N533 N 0.40769 0.94963 0.82056 0.0
C534 C 0.40955 0.93613 0.8566 0.0
C535 C 0.40132 0.91217 0.82699 0.0
C536 C 0.41105 0.95319 0.84195 0.0
C537 C 0.40292 0.92965 0.81285 0.0
C538 C 0.35862 0.90903 0.91522 0.0
C539 C 0.35406 0.91138 0.95378 0.0
N540 N 0.3446 0.93104 0.95137 0.0
C541 C 0.34861 0.92913 0.91311 0.0
C542 C 0.36117 0.89998 0.93571 0.0
C543 C 0.34173 0.94005 0.93158 0.0
C544 C 0.33941 0.90427 0.83339 0.0
N545 N 0.35278 0.9134 0.84817 0.0
C546 C 0.34128 0.94872 0.83769 0.0
C547 C 0.35381 0.93517 0.85064 0.0
C548 C 0.32743 0.93977 0.82212 0.0
C549 C 0.32657 0.91719 0.82011 0.0
H550 H 0.33862 0.88692 0.83196 0.0
H551 H 0.36446 0.94204 0.86261 0.0
C552 C 0.43535 0.90605 0.91799 0.0
N553 N 0.41535 0.91342 0.91275 0.0
C554 C 0.44891 0.91828 0.93122 0.0
C555 C 0.42119 0.94565 0.93313 0.0
C556 C 0.40823 0.93295 0.91978 0.0
C557 C 0.44181 0.93832 0.93909 0.0
H558 H 0.44073 0.89059 0.91195 0.0
H559 H 0.39261 0.93883 0.91483 0.0
C560 C 0.36309 0.84754 0.84807 0.0
N561 N 0.35877 0.81459 0.81838 0.0
C562 C 0.35576 0.82726 0.85464 0.0
C563 C 0.36795 0.85115 0.82636 0.0
C564 C 0.35374 0.81079 0.83939 0.0
C565 C 0.36575 0.83426 0.81161 0.0
C566 C 0.40929 0.85162 0.91403 0.0
C567 C 0.41703 0.83077 0.91028 0.0
C568 C 0.40939 0.85989 0.935 0.0
C569 C 0.42422 0.81834 0.92766 0.0
C570 C 0.41673 0.84697 0.95194 0.0
N571 N 0.42389 0.82662 0.94796 0.0
C572 C 0.43084 0.85889 0.83548 0.0
C573 C 0.41285 0.82758 0.84801 0.0
C574 C 0.44402 0.84641 0.82211 0.0
N575 N 0.41554 0.84935 0.84797 0.0
C576 C 0.4255 0.81451 0.83472 0.0
C577 C 0.44133 0.82392 0.82152 0.0
H578 H 0.43279 0.87622 0.83587 0.0
H579 H 0.40082 0.82033 0.85833 0.0
C580 C 0.33328 0.85626 0.91926 0.0
N581 N 0.35244 0.84834 0.91207 0.0
C582 C 0.31992 0.84367 0.93233 0.0
C583 C 0.34588 0.8147 0.9298 0.0
C584 C 0.35876 0.82788 0.91684 0.0
C585 C 0.3262 0.82259 0.93784 0.0
H586 H 0.32833 0.87239 0.9148 0.0
H587 H 0.3737 0.82167 0.9104 0.0
O588 O 0.40264 0.89867 0.86319 0.0
O589 O 0.36556 0.89819 0.89728 0.0
O590 O 0.36539 0.86379 0.86282 0.0
O591 O 0.40225 0.86402 0.89716 0.0
H592 H 0.41214 0.93898 0.8736 0.0
H593 H 0.39758 0.89629 0.82085 0.0
H594 H 0.41483 0.96927 0.84758 0.0
H595 H 0.40037 0.92733 0.79575 0.0
H596 H 0.35598 0.90456 0.96973 0.0
H597 H 0.34626 0.93629 0.89739 0.0
H598 H 0.36827 0.88419 0.93762 0.0
H599 H 0.33409 0.95569 0.93018 0.0
H600 H 0.34265 0.96602 0.83968 0.0
H601 H 0.31587 0.90956 0.80861 0.0
H602 H 0.46464 0.91198 0.93548 0.0
H603 H 0.41526 0.96119 0.93847 0.0
H604 H 0.35176 0.82423 0.87133 0.0
H605 H 0.37352 0.86677 0.82098 0.0
H606 H 0.34819 0.79498 0.84426 0.0
H607 H 0.36961 0.83678 0.79479 0.0
H608 H 0.41736 0.82418 0.89416 0.0
H609 H 0.40415 0.8762 0.93817 0.0
H610 H 0.43008 0.80212 0.92499 0.0
H611 H 0.41683 0.85317 0.96825 0.0
H612 H 0.45597 0.8543 0.81209 0.0
H613 H 0.42311 0.7972 0.83499 0.0
H614 H 0.30469 0.85028 0.93781 0.0
H615 H 0.35139 0.79857 0.93365 0.0
Li616 Li 0.62191 0.64591 0.64586 0.0
Li617 Li 0.64931 0.61718 0.64465 0.0
Li618 Li 0.64862 0.646 0.61597 0.0
Li619 Li 0.62172 0.61695 0.61719 0.0
C620 C 0.66133 0.66678 0.65805 0.0
N621 N 0.67637 0.70311 0.67911 0.0
C622 C 0.67207 0.66483 0.67778 0.0
C623 C 0.65857 0.68719 0.64888 0.0
C624 C 0.67946 0.68339 0.68823 0.0
C625 C 0.6662 0.70536 0.6598 0.0
C626 C 0.6163 0.60046 0.66603 0.0
C627 C 0.61939 0.56471 0.68108 0.0
N628 N 0.61496 0.57283 0.70097 0.0
C629 C 0.61162 0.60843 0.68659 0.0
C630 C 0.62005 0.5784 0.6632 0.0
C631 C 0.61107 0.5942 0.70406 0.0
C632 C 0.58328 0.66659 0.65752 0.0
N633 N 0.60404 0.66345 0.66389 0.0
C634 C 0.59834 0.68515 0.69526 0.0
C635 C 0.61165 0.6722 0.68249 0.0
C636 C 0.57684 0.68892 0.689 0.0
C637 C 0.56935 0.67932 0.66986 0.0
H638 H 0.57754 0.65918 0.64281 0.0
H639 H 0.628 0.66907 0.68756 0.0
C640 C 0.68022 0.58439 0.65293 0.0
N641 N 0.66755 0.59963 0.66231 0.0
C642 C 0.69322 0.571 0.66557 0.0
C643 C 0.68014 0.58943 0.69732 0.0
C644 C 0.6674 0.60245 0.68405 0.0
C645 C 0.69325 0.57336 0.68812 0.0
H646 H 0.6802 0.58256 0.63561 0.0
H647 H 0.65726 0.61475 0.69112 0.0
C648 C 0.609 0.66587 0.60299 0.0
N649 N 0.59325 0.70096 0.58036 0.0
C650 C 0.60066 0.66318 0.58221 0.0
C651 C 0.60888 0.68636 0.61241 0.0
C652 C 0.59292 0.68113 0.57098 0.0
C653 C 0.60096 0.7039 0.60068 0.0
C654 C 0.65516 0.59987 0.5965 0.0
C655 C 0.66133 0.60674 0.57594 0.0
C656 C 0.65036 0.57812 0.60003 0.0
C657 C 0.6623 0.59175 0.55914 0.0
C658 C 0.65149 0.56363 0.58281 0.0
N659 N 0.65736 0.57069 0.56289 0.0
C660 C 0.68536 0.67075 0.60507 0.0
C661 C 0.65896 0.66904 0.5775 0.0
C662 C 0.69838 0.68402 0.59234 0.0
N663 N 0.66591 0.66383 0.59764 0.0
C664 C 0.67151 0.68218 0.56417 0.0
C665 C 0.69149 0.69 0.57157 0.0
H666 H 0.69074 0.66602 0.62097 0.0
H667 H 0.64383 0.66273 0.57163 0.0
C668 C 0.58996 0.58494 0.60937 0.0
N669 N 0.6036 0.59914 0.59969 0.0
C670 C 0.57691 0.5714 0.59694 0.0
C671 C 0.59204 0.58746 0.5648 0.0
C672 C 0.60473 0.60072 0.57786 0.0
C673 C 0.5779 0.57249 0.57431 0.0
H674 H 0.58927 0.58407 0.62676 0.0
H675 H 0.61563 0.61219 0.57055 0.0
O676 O 0.65392 0.64874 0.64768 0.0
O677 O 0.61727 0.6142 0.64879 0.0
O678 O 0.61656 0.6484 0.61423 0.0
O679 O 0.65381 0.61438 0.61308 0.0
H680 H 0.67463 0.64918 0.68502 0.0
H681 H 0.65094 0.68899 0.63334 0.0
H682 H 0.68767 0.68211 0.70357 0.0
H683 H 0.66414 0.72124 0.65287 0.0
H684 H 0.62242 0.54763 0.67915 0.0
H685 H 0.60863 0.62543 0.68907 0.0
H686 H 0.62361 0.57195 0.6474 0.0
H687 H 0.60759 0.60017 0.72008 0.0
H688 H 0.60493 0.69229 0.70976 0.0
H689 H 0.55283 0.68139 0.66456 0.0
H690 H 0.70288 0.55871 0.65777 0.0
H691 H 0.67986 0.59208 0.71457 0.0
H692 H 0.6003 0.64745 0.57475 0.0
H693 H 0.61455 0.68871 0.6287 0.0
H694 H 0.58661 0.67929 0.55482 0.0
H695 H 0.60085 0.71984 0.60778 0.0
H696 H 0.66523 0.62346 0.57295 0.0
H697 H 0.6456 0.57252 0.61583 0.0
H698 H 0.66694 0.59686 0.54312 0.0
H699 H 0.64765 0.54679 0.58527 0.0
H700 H 0.71355 0.68975 0.59884 0.0
H701 H 0.66575 0.68589 0.5481 0.0
H702 H 0.56641 0.55998 0.60496 0.0
H703 H 0.59312 0.58908 0.54745 0.0
H704 H 0.31616 0.33049 0.48015 0.0
H705 H 0.29316 0.30751 0.5025 0.0
H706 H 0.28316 0.26473 0.44865 0.0
H707 H 0.30562 0.28789 0.42593 0.0
H708 H 0.24796 0.29459 0.49298 0.0
H709 H 0.30513 0.22568 0.49983 0.0
H710 H 0.31381 0.25256 0.49261 0.0
H711 H 0.30031 0.23596 0.47312 0.0
C712 C 0.30891 0.31633 0.47294 0.0
C713 C 0.3128 0.31107 0.45119 0.0
C714 C 0.29588 0.30315 0.4858 0.0
C715 C 0.28668 0.28435 0.47726 0.0
C716 C 0.29041 0.27902 0.45561 0.0
H717 H 0.20844 0.18142 0.53104 0.0
H718 H 0.23044 0.20471 0.50809 0.0
C719 C 0.30333 0.29226 0.44268 0.0
C720 C 0.27285 0.27048 0.49094 0.0
H721 H 0.27044 0.22095 0.51488 0.0
C722 C 0.25284 0.27851 0.49784 0.0
C723 C 0.27929 0.24949 0.4971 0.0
C724 C 0.30086 0.24035 0.49046 0.0
C725 C 0.23889 0.26594 0.51054 0.0
C726 C 0.24542 0.245 0.51695 0.0
C727 C 0.26546 0.23699 0.50998 0.0
C728 C 0.23173 0.23111 0.53087 0.0
C729 C 0.21709 0.27503 0.51646 0.0
C730 C 0.22531 0.2381 0.55143 0.0
C731 C 0.21246 0.22494 0.56448 0.0
C732 C 0.20598 0.20436 0.55738 0.0
C733 C 0.21275 0.1973 0.5369 0.0
C734 C 0.2255 0.21053 0.52381 0.0
H735 H 0.21212 0.28813 0.50528 0.0
H736 H 0.20448 0.2623 0.5163 0.0
H737 H 0.21789 0.28195 0.53295 0.0
H738 H 0.23033 0.25371 0.55744 0.0
H739 H 0.20743 0.23101 0.58006 0.0
H740 H 0.7345 0.55921 0.68044 0.0
H741 H 0.75667 0.53572 0.70311 0.0
H742 H 0.70534 0.53223 0.74991 0.0
H743 H 0.68288 0.55544 0.72721 0.0
H744 H 0.74673 0.54117 0.76763 0.0
H745 H 0.7481 0.47025 0.71287 0.0
H746 H 0.75595 0.49532 0.7006 0.0
H747 H 0.72877 0.49188 0.71008 0.0
C748 C 0.72779 0.55324 0.69541 0.0
C749 C 0.70685 0.55917 0.70194 0.0
C750 C 0.74051 0.53983 0.70836 0.0
C751 C 0.73254 0.53203 0.72805 0.0
C752 C 0.71177 0.53806 0.73474 0.0
H753 H 0.78533 0.42983 0.80809 0.0
H754 H 0.7626 0.45279 0.78542 0.0
C755 C 0.69901 0.55143 0.72179 0.0
C756 C 0.74601 0.51791 0.74187 0.0
H757 H 0.77121 0.46891 0.74336 0.0
C758 C 0.75207 0.52535 0.76237 0.0
C759 C 0.75273 0.4972 0.73502 0.0
C760 C 0.74593 0.48804 0.71353 0.0
C761 C 0.76497 0.51276 0.77609 0.0
C762 C 0.77217 0.49229 0.76901 0.0
C763 C 0.76582 0.4847 0.74866 0.0
C764 C 0.78612 0.47841 0.7826 0.0
C765 C 0.77056 0.52131 0.79818 0.0
C766 C 0.807 0.48509 0.78828 0.0
C767 C 0.82011 0.47194 0.80111 0.0
C768 C 0.81261 0.45181 0.80846 0.0
C769 C 0.79173 0.4451 0.80253 0.0
C770 C 0.77866 0.45824 0.78966 0.0
H771 H 0.75973 0.53475 0.80304 0.0
H772 H 0.76953 0.50834 0.81048 0.0
H773 H 0.78737 0.52749 0.79802 0.0
H774 H 0.81322 0.50041 0.78263 0.0
H775 H 0.83623 0.47744 0.80502 0.0
H776 H 0.56575 0.07762 0.03089 0.0
H777 H 0.54298 0.05448 0.00856 0.0
H778 H 0.53269 0.01202 0.06267 0.0
H779 H 0.55621 0.03457 0.08491 0.0
H780 H 0.54163 0.98988 0.02566 0.0
H781 H 0.47763 0.05056 0.01056 0.0
H782 H 0.50406 0.05962 1.00293 0.0
H783 H 0.49821 0.05422 0.03083 0.0
C784 C 0.55882 0.06326 0.03803 0.0
C785 C 0.56279 0.05802 0.05976 0.0
C786 C 0.54556 0.0502 0.02529 0.0
C787 C 0.53581 0.03173 0.03405 0.0
C788 C 0.53991 0.02629 0.05563 0.0
H789 H 0.43016 0.96032 0.9755 0.0
H790 H 0.45315 0.98229 0.99888 0.0
C791 C 0.55322 0.03931 0.06837 0.0
C792 C 0.52166 0.01786 0.0206 0.0
H793 H 0.47601 0.01838 0.98971 0.0
C794 C 0.52723 0.99607 0.01786 0.0
C795 C 0.5027 0.02589 0.01069 0.0
C796 C 0.49514 0.04879 0.01404 0.0
C797 C 0.51457 0.98218 1.00519 0.0
C798 C 0.49608 0.99043 0.9946 0.0
C799 C 0.49031 0.01213 0.99765 0.0
C800 C 0.48233 0.9768 0.9805 0.0
C801 C 0.52093 0.95873 1.00362 0.0
C802 C 0.49103 0.96657 0.96226 0.0
C803 C 0.47793 0.95395 0.94891 0.0
C804 C 0.45581 0.95155 0.95337 0.0
C805 C 0.4471 0.962 0.97152 0.0
C806 C 0.46023 0.9745 0.98493 0.0
H807 H 0.53145 0.9538 0.01727 0.0
H808 H 0.50649 0.94812 1.00338 0.0
H809 H 0.53007 0.95612 0.98846 0.0
H810 H 0.50791 0.96857 0.95818 0.0
H811 H 0.48505 0.9464 0.93485 0.0
H812 H 0.96357 0.78479 0.33235 0.0
H813 H 0.9861 0.76254 0.30883 0.0
H814 H 0.97588 0.80716 0.25652 0.0
H815 H 0.95281 0.82927 0.27969 0.0
H816 H 0.97323 0.74398 0.26666 0.0
H817 H 0.0433 0.79997 0.2621 0.0
H818 H 0.02343 0.80145 0.28338 0.0
H819 H 0.01709 0.8114 0.25695 0.0
C820 C 0.9659 0.78981 0.31579 0.0
C821 C 0.95633 0.80887 0.30795 0.0
C822 C 0.9789 0.77712 0.30243 0.0
C823 C 0.9828 0.78334 0.28105 0.0
C824 C 0.97331 0.80228 0.2731 0.0
H825 H 0.06192 0.7294 0.17855 0.0
H826 H 0.03825 0.75186 0.2007 0.0
C827 C 0.96019 0.81493 0.2864 0.0
C828 C 0.99648 0.76976 0.26695 0.0
H829 H 0.04487 0.76855 0.24066 0.0
C830 C 0.98892 0.74929 0.26098 0.0
C831 C 0.01683 0.77685 0.2595 0.0
C832 C 0.02582 0.79855 0.26586 0.0
C833 C 1.0011 0.73575 0.24751 0.0
C834 C 0.02166 0.74268 0.24031 0.0
C835 C 0.02914 0.76324 0.24621 0.0
C836 C 0.03574 0.7288 0.22677 0.0
C837 C 0.99161 0.71437 0.24075 0.0
C838 C 0.04239 0.70845 0.23415 0.0
C839 C 0.05568 0.69543 0.2214 0.0
C840 C 0.06286 0.70261 0.20109 0.0
C841 C 0.05641 0.72317 0.19391 0.0
C842 C 0.04301 0.73612 0.20663 0.0
H843 H 0.97373 0.71435 0.24217 0.0
H844 H 0.99601 0.71038 0.22385 0.0
H845 H 0.99796 0.70148 0.25141 0.0
H846 H 0.03738 0.70264 0.24984 0.0
H847 H 0.06013 0.67964 0.2274 0.0
H848 H 0.31858 0.93495 0.77907 0.0
H849 H 0.29605 0.958 0.75626 0.0
H850 H 0.28319 0.99948 0.81056 0.0
H851 H 0.30547 0.97643 0.83356 0.0
H852 H 0.2521 0.96864 0.76152 0.0
H853 H 0.30402 0.04162 0.76381 0.0
H854 H 0.31359 0.01532 0.77194 0.0
H855 H 0.297 0.03099 0.78983 0.0
C856 C 0.31087 0.94891 0.78621 0.0
C857 C 0.31391 0.95387 0.80815 0.0
C858 C 0.29809 0.96212 0.77312 0.0
C859 C 0.28822 0.98061 0.78164 0.0
C860 C 0.29106 0.98555 0.80354 0.0
H861 H 0.20352 0.07968 0.73058 0.0
H862 H 0.22608 0.05645 0.75315 0.0
C863 C 0.30382 0.97235 0.81666 0.0
C864 C 0.2745 0.99444 0.76774 0.0
H865 H 0.2695 0.04554 0.74774 0.0
C866 C 0.25594 0.98542 0.7584 0.0
C867 C 0.27954 0.01634 0.76376 0.0
C868 C 0.29972 0.02665 0.77268 0.0
C869 C 0.24204 0.99784 0.7455 0.0
C870 C 0.24708 0.01974 0.74152 0.0
C871 C 0.26566 0.02875 0.75084 0.0
C872 C 0.23326 0.03362 0.72776 0.0
C873 C 0.22182 0.98753 0.73668 0.0
C874 C 0.23 0.02863 0.70593 0.0
C875 C 0.21699 0.04179 0.69302 0.0
C876 C 0.20707 0.06029 0.70166 0.0
C877 C 0.21061 0.06537 0.72349 0.0
C878 C 0.22362 0.0522 0.73639 0.0
H879 H 0.21748 0.97264 0.74566 0.0
H880 H 0.20797 0.99889 0.73736 0.0
H881 H 0.2245 0.98305 0.71956 0.0
H882 H 0.2376 0.01458 0.69884 0.0
H883 H 0.2145 0.03731 0.67632 0.0
H884 H 0.9468 0.48307 0.93682 0.0
H885 H 0.9698 0.50533 0.95989 0.0
H886 H 0.99154 0.44841 0.99346 0.0
H887 H 0.96806 0.42607 0.97093 0.0
H888 H 0.98041 0.48215 0.02098 0.0
H889 H 0.03564 0.51014 0.95631 0.0
H890 H 1.00758 0.51502 0.9509 0.0
H891 H 0.01734 0.48776 0.95272 0.0
C892 C 0.95634 0.47528 0.94921 0.0
C893 C 0.95563 0.45276 0.95197 0.0
C894 C 0.96967 0.48801 0.96222 0.0
C895 C 0.98263 0.47849 0.97815 0.0
C896 C 0.98178 0.45607 0.98113 0.0
H897 H 0.08929 0.53838 0.04664 0.0
H898 H 0.06626 0.51546 0.02424 0.0
C899 C 0.96847 0.44331 0.96814 0.0
C900 C 0.99681 0.49193 0.99198 0.0
H901 H 0.03923 0.52707 0.99048 0.0
C902 C 0.99331 0.49193 0.01434 0.0
C903 C 0.0138 0.50446 0.98329 0.0
C904 C 0.01901 0.50425 0.95952 0.0
C905 C 1.00614 0.50442 0.02823 0.0
C906 C 0.02268 0.51748 0.01947 0.0
C907 C 0.0264 0.5172 0.99714 0.0
C908 C 0.0365 0.53138 0.03321 0.0
C909 C 1.00209 0.50323 0.0522 0.0
C910 C 0.02744 0.5481 0.04549 0.0
C911 C 0.04056 0.56127 0.05827 0.0
C912 C 0.06304 0.55808 0.05888 0.0
C913 C 0.07207 0.54142 0.04638 0.0
C914 C 0.05893 0.52824 0.03364 0.0
H915 H 0.99289 0.48851 0.05666 0.0
H916 H 0.01751 0.50336 0.06133 0.0
H917 H 0.99248 0.51747 0.05725 0.0
H918 H 0.01023 0.55112 0.04501 0.0
H919 H 0.03313 0.57419 0.06739 0.0
H920 H 0.43393 0.30714 0.28306 0.0
H921 H 0.45671 0.28404 0.2606 0.0
H922 H 0.50603 0.28458 0.30968 0.0
H923 H 0.48331 0.30761 0.3323 0.0
H924 H 0.52211 0.29216 0.26867 0.0
H925 H 0.46929 0.21989 0.26939 0.0
H926 H 0.45596 0.24411 0.26072 0.0
H927 H 0.46577 0.24206 0.28793 0.0
C928 C 0.44951 0.30214 0.2892 0.0
C929 C 0.45675 0.30916 0.30954 0.0
C930 C 0.46251 0.28893 0.27634 0.0
C931 C 0.48293 0.28233 0.2836 0.0
C932 C 0.4903 0.28945 0.30378 0.0
H933 H 0.56146 0.17981 0.22931 0.0
H934 H 0.53928 0.20289 0.25231 0.0
C935 C 0.47733 0.30269 0.31665 0.0
C936 C 0.49682 0.26838 0.26998 0.0
H937 H 0.49893 0.21929 0.24509 0.0
C938 C 0.51709 0.2762 0.26355 0.0
C939 C 0.49034 0.24746 0.26356 0.0
C940 C 0.46925 0.23775 0.2709 0.0
C941 C 0.53094 0.26378 0.25061 0.0
C942 C 0.52416 0.24314 0.2436 0.0
C943 C 0.50402 0.2352 0.2503 0.0
C944 C 0.53785 0.22935 0.2296 0.0
C945 C 0.55286 0.27274 0.24491 0.0
C946 C 0.54425 0.23646 0.20908 0.0
C947 C 0.55717 0.22341 0.19598 0.0
C948 C 0.56378 0.20285 0.20304 0.0
C949 C 0.55704 0.19568 0.22349 0.0
C950 C 0.54419 0.20878 0.23661 0.0
H951 H 0.55782 0.28577 0.25617 0.0
H952 H 0.56535 0.25989 0.24515 0.0
H953 H 0.55227 0.27967 0.22843 0.0
H954 H 0.53919 0.2521 0.20315 0.0
H955 H 0.56217 0.22954 0.18041 0.0
H956 H 0.78164 0.824 0.43936 0.0
H957 H 0.75853 0.80147 0.46216 0.0
H958 H 0.8149 0.7755 0.49367 0.0
H959 H 0.83806 0.79808 0.4711 0.0
H960 H 0.75684 0.75765 0.4658 0.0
H961 H 0.77851 0.79371 0.54469 0.0
H962 H 0.78549 0.80623 0.51936 0.0
H963 H 0.80149 0.78435 0.52977 0.0
C964 C 0.7891 0.81348 0.45115 0.0
C965 C 0.81167 0.81291 0.45352 0.0
C966 C 0.77588 0.80067 0.4642 0.0
C967 C 0.78496 0.78708 0.47989 0.0
C968 C 0.8075 0.78629 0.4821 0.0
H969 H 0.73562 0.68999 0.56741 0.0
H970 H 0.75782 0.71369 0.54501 0.0
C971 C 0.82072 0.79918 0.46915 0.0
C972 C 0.77089 0.77325 0.49347 0.0
H973 H 0.75837 0.76098 0.54572 0.0
C974 C 0.75706 0.75849 0.48327 0.0
C975 C 0.77118 0.77437 0.51628 0.0
C976 C 0.7848 0.79066 0.52819 0.0
C977 C 0.74385 0.74451 0.49525 0.0
C978 C 0.74438 0.74546 0.51802 0.0
C979 C 0.75811 0.76025 0.52825 0.0
C980 C 0.7308 0.73118 0.53153 0.0
C981 C 0.72976 0.7285 0.48352 0.0
C982 C 0.70827 0.73335 0.53152 0.0
C983 C 0.69552 0.72 0.54448 0.0
C984 C 0.70507 0.70419 0.55772 0.0
C985 C 0.72771 0.70215 0.55768 0.0
C986 C 0.74044 0.71559 0.54479 0.0
H987 H 0.73443 0.72683 0.4663 0.0
H988 H 0.73064 0.7124 0.49133 0.0
H989 H 0.71273 0.73402 0.48419 0.0
H990 H 0.70056 0.74555 0.52165 0.0
H991 H 0.67819 0.72231 0.54438 0.0
H992 H 0.20358 0.57817 0.23085 0.0
H993 H 0.2264 0.55505 0.25332 0.0
H994 H 0.23418 0.51084 0.20019 0.0
H995 H 0.21152 0.53395 0.17758 0.0
H996 H 0.22081 0.51302 0.26553 0.0
H997 H 0.29623 0.52131 0.21802 0.0
H998 H 0.27319 0.53867 0.21397 0.0
H999 H 0.27366 0.51205 0.20242 0.0
C1000 C 0.21011 0.56349 0.22397 0.0
C1001 C 0.20583 0.55794 0.20239 0.0
C1002 C 0.2232 0.55034 0.23681 0.0
C1003 C 0.2323 0.53141 0.22834 0.0
C1004 C 0.2278 0.52566 0.20691 0.0
H1005 H 0.31037 0.42829 0.28255 0.0
H1006 H 0.28735 0.45094 0.25984 0.0
C1007 C 0.21482 0.53886 0.19402 0.0
C1008 C 0.24608 0.51746 0.2421 0.0
H1009 H 0.29627 0.49488 0.2458 0.0
C1010 C 0.23734 0.50914 0.26127 0.0
C1011 C 0.26766 0.51242 0.23652 0.0
C1012 C 0.27834 0.52173 0.21672 0.0
C1013 C 0.24949 0.49565 0.27484 0.0
C1014 C 0.27099 0.49053 0.26917 0.0
C1015 C 0.27974 0.49879 0.25002 0.0
C1016 C 0.28477 0.47681 0.28307 0.0
C1017 C 0.23914 0.48669 0.29496 0.0
C1018 C 0.29111 0.48399 0.30356 0.0
C1019 C 0.30445 0.47121 0.3165 0.0
C1020 C 0.31174 0.45098 0.3092 0.0
C1021 C 0.30533 0.44388 0.2886 0.0
C1022 C 0.29206 0.45673 0.27563 0.0
H1023 H 0.22128 0.48825 0.29457 0.0
H1024 H 0.24339 0.46942 0.29712 0.0
H1025 H 0.24521 0.49568 0.30919 0.0
H1026 H 0.28596 0.49963 0.30942 0.0
H1027 H 0.30938 0.47739 0.33208 0.0
H1028 H 0.78428 0.31215 0.9331 0.0
H1029 H 0.76157 0.28982 0.95642 0.0
H1030 H 0.81562 0.27915 0.99896 0.0
H1031 H 0.83848 0.30128 0.9756 0.0
H1032 H 0.79425 0.24212 0.99054 0.0
H1033 H 0.73593 0.30563 0.01426 0.0
H1034 H 0.73813 0.30242 0.98559 0.0
H1035 H 0.76105 0.31168 1.00083 0.0
C1036 C 0.79127 0.30523 0.94755 0.0
C1037 C 0.81316 0.30855 0.95255 0.0
C1038 C 0.77825 0.29251 0.96089 0.0
C1039 C 0.78679 0.28311 0.97965 0.0
C1040 C 0.80867 0.28629 0.9846 0.0
H1041 H 0.71065 0.22725 0.0834 0.0
H1042 H 0.73427 0.24959 0.06114 0.0
C1043 C 0.82173 0.29888 0.9712 0.0
C1044 C 0.77309 0.26949 0.99383 0.0
H1045 H 0.72662 0.26952 0.02345 0.0
C1046 C 0.7795 0.24813 0.99781 0.0
C1047 C 0.75403 0.27744 1.00358 0.0
C1048 C 0.74696 0.30061 1.00105 0.0
C1049 C 0.76722 0.2344 0.011 0.0
C1050 C 0.74769 0.24209 0.02003 0.0
C1051 C 0.74146 0.26355 0.01633 0.0
C1052 C 0.73359 0.22822 0.03357 0.0
C1053 C 0.77555 0.21196 0.01546 0.0
C1054 C 0.72516 0.20884 0.02543 0.0
C1055 C 0.71194 0.19582 0.03825 0.0
C1056 C 0.70656 0.20206 0.05941 0.0
C1057 C 0.71475 0.22169 0.06736 0.0
C1058 C 0.72811 0.23461 0.05458 0.0
H1059 H 0.79326 0.21084 0.01284 0.0
H1060 H 0.77193 0.2069 0.03225 0.0
H1061 H 0.76765 0.20043 1.00428 0.0
H1062 H 0.72874 0.2038 0.0091 0.0
H1063 H 0.70613 0.18075 0.03161 0.0
H1064 H 0.84016 0.96884 0.2949 0.0
H1065 H 0.81733 0.99159 0.27205 0.0
H1066 H 0.76048 0.96153 0.29878 0.0
H1067 H 0.78333 0.93821 0.32104 0.0
H1068 H 0.75637 0.96536 0.2569 0.0
H1069 H 0.78402 0.0439 0.28911 0.0
H1070 H 0.8059 0.02825 0.27847 0.0
H1071 H 0.79116 0.01861 0.30159 0.0
C1072 C 0.82278 0.96722 0.29595 0.0
C1073 C 0.81348 0.95186 0.30979 0.0
C1074 C 0.80973 0.9803 0.283 0.0
C1075 C 0.78713 0.97866 0.28402 0.0
C1076 C 0.77786 0.96319 0.29775 0.0
H1077 H 0.69894 0.07506 0.23317 0.0
H1078 H 0.72099 0.05165 0.25582 0.0
C1079 C 0.7909 0.94986 0.31045 0.0
C1080 C 0.77314 0.99264 0.27042 0.0
H1081 H 0.76287 0.0451 0.25702 0.0
C1082 C 0.75772 0.98281 0.25703 0.0
C1083 C 0.77462 0.01544 0.2708 0.0
C1084 C 0.78966 0.02718 0.28593 0.0
C1085 C 0.74394 0.99508 0.24386 0.0
C1086 C 0.74613 0.01782 0.24349 0.0
C1087 C 0.76137 0.02766 0.25707 0.0
C1088 C 0.73248 0.03177 0.22952 0.0
C1089 C 0.72685 0.98353 0.23092 0.0
C1090 C 0.73172 0.02859 0.20712 0.0
C1091 C 0.7187 0.04168 0.19412 0.0
C1092 C 0.70646 0.05854 0.20319 0.0
C1093 C 0.7077 0.06198 0.22561 0.0
C1094 C 0.72051 0.04872 0.2386 0.0
H1095 H 0.72296 0.96751 0.23798 0.0
H1096 H 0.71175 0.99314 0.22999 0.0
H1097 H 0.73288 0.98081 0.2143 0.0
H1098 H 0.74123 0.016 0.19963 0.0
H1099 H 0.71808 0.03838 0.17699 0.0
H1100 H 0.94524 0.98206 0.44045 0.0
H1101 H 0.96815 1.00465 0.46331 0.0
H1102 H 0.99815 0.94774 0.4898 0.0
H1103 H 0.9749 0.92498 0.46741 0.0
H1104 H 0.98585 0.97831 0.52104 0.0
H1105 H 0.03306 0.01593 0.45488 0.0
H1106 H 1.0043 0.01817 0.45193 0.0
H1107 H 0.01684 0.99204 0.45098 0.0
C1108 C 0.95662 0.97433 0.45123 0.0
C1109 C 0.95828 0.9517 0.45205 0.0
C1110 C 0.96985 0.98727 0.46411 0.0
C1111 C 0.98505 0.97787 0.47801 0.0
C1112 C 0.98662 0.95531 0.47906 0.0
H1113 H 0.09108 0.04194 0.54361 0.0
H1114 H 0.06846 0.01865 0.52117 0.0
C1115 C 0.97343 0.94235 0.46614 0.0
C1116 C 0.99905 0.99154 0.49178 0.0
H1117 H 0.03803 0.03045 0.48995 0.0
C1118 C 0.9973 0.98968 0.51427 0.0
C1119 C 0.01414 0.00616 0.48288 0.0
C1120 C 0.01741 0.00813 0.45885 0.0
C1121 C 0.01002 1.00232 0.52813 0.0
C1122 C 0.02465 0.0174 0.51922 0.0
C1123 C 0.02665 0.01901 0.49673 0.0
C1124 C 0.03823 0.03153 0.53296 0.0
C1125 C 1.00791 0.99919 0.55216 0.0
C1126 C 0.02873 0.04666 0.54686 0.0
C1127 C 0.04161 0.06007 0.55964 0.0
C1128 C 0.06426 0.0587 0.55867 0.0
C1129 C 0.0737 0.0436 0.54459 0.0
C1130 C 0.06081 0.0302 0.53182 0.0
H1131 H 1.0002 0.98352 0.55618 0.0
H1132 H 0.02394 0.99994 0.56015 0.0
H1133 H 0.9977 0.01226 0.55892 0.0
H1134 H 0.01134 0.04828 0.54764 0.0
H1135 H 0.03381 0.07178 0.57 0.0
H1136 H 0.95517 0.33152 0.78011 0.0
H1137 H 0.97829 0.30914 0.75724 0.0
H1138 H 0.98512 0.26307 0.80885 0.0
H1139 H 0.96249 0.28553 0.83205 0.0
H1140 H 0.02231 0.29449 0.76652 0.0
H1141 H 0.96396 0.22719 0.75578 0.0
H1142 H 0.9558 0.25376 0.76455 0.0
H1143 H 0.96864 0.23562 0.78313 0.0
C1144 C 0.96174 0.31674 0.78671 0.0
C1145 C 0.95687 0.31033 0.80794 0.0
C1146 C 0.97485 0.30392 0.77356 0.0
C1147 C 0.98317 0.28435 0.78129 0.0
C1148 C 0.97853 0.27794 0.80247 0.0
H1149 H 0.06123 0.18174 0.72721 0.0
H1150 H 0.03899 0.20501 0.74996 0.0
C1151 C 0.96552 0.29079 0.81568 0.0
C1152 C 0.99698 0.27076 0.7673 0.0
H1153 H 0.99918 0.22188 0.74204 0.0
C1154 C 0.01726 0.27865 0.76106 0.0
C1155 C 0.99033 0.25009 0.76034 0.0
C1156 C 0.96844 0.24114 0.76611 0.0
C1157 C 0.03131 0.2662 0.74835 0.0
C1158 C 0.02462 0.24554 0.74126 0.0
C1159 C 1.00428 0.23771 0.74748 0.0
C1160 C 0.0385 0.2317 0.72748 0.0
C1161 C 0.05338 0.27508 0.74314 0.0
C1162 C 0.04547 0.23889 0.70718 0.0
C1163 C 0.05844 0.22572 0.69423 0.0
C1164 C 0.06451 0.20498 0.70121 0.0
C1165 C 0.05723 0.19775 0.72146 0.0
C1166 C 0.04435 0.21096 0.73443 0.0
H1167 H 0.05821 0.28798 0.75461 0.0
H1168 H 0.0658 0.26217 0.74349 0.0
H1169 H 0.05313 0.28218 0.72671 0.0
H1170 H 0.04078 0.25464 0.70127 0.0
H1171 H 0.06387 0.23191 0.67882 0.0
H1172 H 0.57474 0.69151 0.73317 0.0
H1173 H 0.55146 0.71463 0.75494 0.0
H1174 H 0.52214 0.73997 0.69717 0.0
H1175 H 0.54616 0.71775 0.67519 0.0
H1176 H 0.53136 0.77161 0.7253 0.0
H1177 H 0.48833 0.70587 0.76786 0.0
H1178 H 0.51706 0.70435 0.77112 0.0
H1179 H 0.50534 0.70099 0.74476 0.0
C1180 C 0.5635 0.70213 0.72503 0.0
C1181 C 0.56233 0.70268 0.70237 0.0
C1182 C 0.54996 0.71512 0.73755 0.0
C1183 C 0.53474 0.72872 0.72772 0.0
C1184 C 0.53363 0.72945 0.70512 0.0
H1185 H 0.42842 0.79079 0.79546 0.0
H1186 H 0.45088 0.76829 0.77202 0.0
C1187 C 0.54726 0.71658 0.69258 0.0
C1188 C 0.52037 0.7426 0.74096 0.0
H1189 H 0.48327 0.74141 0.78167 0.0
C1190 C 0.52075 0.765 0.73755 0.0
C1191 C 0.50628 0.73395 0.75671 0.0
C1192 C 0.50402 0.70996 0.76021 0.0
C1193 C 0.50774 0.77901 0.74972 0.0
C1194 C 0.49438 0.77043 0.76613 0.0
C1195 C 0.4937 0.74801 0.76926 0.0
C1196 C 0.48081 0.78438 0.78014 0.0
C1197 C 0.50817 0.8028 0.74455 0.0
C1198 C 0.49017 0.80078 0.79267 0.0
C1199 C 0.47734 0.81374 0.80595 0.0
C1200 C 0.45494 0.81032 0.80725 0.0
C1201 C 0.44565 0.7937 0.79492 0.0
C1202 C 0.45846 0.78089 0.78148 0.0
H1203 H 0.5139 0.8058 0.72784 0.0
H1204 H 0.49193 0.81015 0.74643 0.0
H1205 H 0.51945 0.81105 0.75574 0.0
H1206 H 0.50745 0.8034 0.79239 0.0
H1207 H 0.485 0.82618 0.81554 0.0
H1208 H 0.20088 0.73149 0.07714 0.0
H1209 H 0.22344 0.75432 0.05414 0.0
H1210 H 0.23585 0.70014 0.01234 0.0
H1211 H 0.21343 0.67717 0.03528 0.0
H1212 H 0.26695 0.74944 0.04345 0.0
H1213 H 0.21541 0.7467 0.97028 0.0
H1214 H 0.20586 0.73829 0.99647 0.0
H1215 H 0.22263 0.72065 0.9807 0.0
C1216 C 0.20849 0.7244 0.0631 0.0
C1217 C 0.20527 0.70251 0.058 0.0
C1218 C 0.22129 0.73749 0.04993 0.0
C1219 C 0.23104 0.72901 0.03135 0.0
C1220 C 0.22806 0.70714 0.02632 0.0
H1221 H 0.31692 0.77963 0.93315 0.0
H1222 H 0.29429 0.75708 0.95635 0.0
C1223 C 0.21524 0.69404 0.03946 0.0
C1224 C 0.24477 0.74292 0.01754 0.0
H1225 H 0.25006 0.76259 0.96635 0.0
C1226 C 0.26321 0.75243 0.02663 0.0
C1227 C 0.23985 0.74675 0.99558 0.0
C1228 C 0.21976 0.73774 0.98518 0.0
C1229 C 0.27711 0.76534 0.01424 0.0
C1230 C 0.27223 0.7691 0.99228 0.0
C1231 C 0.25378 0.75963 0.98319 0.0
C1232 C 0.28608 0.78283 0.97842 0.0
C1233 C 0.29716 0.77445 0.02463 0.0
C1234 C 0.28878 0.80482 0.98303 0.0
C1235 C 0.30178 0.81773 0.96986 0.0
C1236 C 0.31227 0.8089 0.95178 0.0
C1237 C 0.30935 0.78687 0.94712 0.0
C1238 C 0.29631 0.77399 0.96027 0.0
H1239 H 0.30131 0.76583 0.03979 0.0
H1240 H 0.31116 0.77351 0.01348 0.0
H1241 H 0.2944 0.79168 0.02863 0.0
H1242 H 0.28075 0.81204 0.99676 0.0
H1243 H 0.3038 0.83459 0.97399 0.0
H1244 H 0.43723 0.48089 0.45179 0.0
H1245 H 0.46043 0.50313 0.47467 0.0
H1246 H 0.50472 0.44994 0.48185 0.0
H1247 H 0.48169 0.42759 0.45884 0.0
H1248 H 0.49511 0.47064 0.5207 0.0
H1249 H 0.51863 0.52954 0.45752 0.0
H1250 H 0.48999 0.52626 0.4606 0.0
H1251 H 0.5061 0.50401 0.45128 0.0
C1252 C 0.45203 0.47398 0.45803 0.0
C1253 C 0.45767 0.45249 0.45337 0.0
C1254 C 0.46526 0.48672 0.47112 0.0
C1255 C 0.48446 0.47829 0.47968 0.0
C1256 C 0.48999 0.45677 0.47534 0.0
H1257 H 0.58939 0.5514 0.53723 0.0
H1258 H 0.56688 0.52811 0.51468 0.0
C1259 C 0.47676 0.444 0.46227 0.0
C1260 C 0.49864 0.49182 0.49341 0.0
H1261 H 0.52862 0.53805 0.49351 0.0
C1262 C 0.50249 0.48535 0.51476 0.0
C1263 C 0.50847 0.51085 0.48552 0.0
C1264 C 0.5058 0.51802 0.46242 0.0
C1265 C 0.51563 0.49762 0.52857 0.0
C1266 C 0.52489 0.51701 0.52088 0.0
C1267 C 0.52134 0.52328 0.49942 0.0
C1268 C 0.53848 0.53097 0.53478 0.0
C1269 C 0.51975 0.48952 0.55115 0.0
C1270 C 0.52992 0.54049 0.55345 0.0
C1271 C 0.54272 0.55387 0.56633 0.0
C1272 C 0.56431 0.55813 0.56071 0.0
C1273 C 0.57277 0.54866 0.5419 0.0
C1274 C 0.55997 0.53527 0.52905 0.0
H1275 H 0.51627 0.472 0.55266 0.0
H1276 H 0.53675 0.49245 0.55602 0.0
H1277 H 0.50908 0.49827 0.56256 0.0
H1278 H 0.51323 0.53779 0.55791 0.0
H1279 H 0.53558 0.56119 0.5805 0.0
loop_
_geom_bond_atom_site_label_1
_geom_bond_atom_site_label_2
_geom_bond_distance
_geom_bond_site_symmetry_2
_ccdc_geom_bond_type
Li0 N17 1.990 . S
Li0 O60 1.956 . S
Li0 O61 1.970 . S
Li0 O62 1.961 . S
Li1 N25 1.990 . S
Li1 O60 1.970 . S
Li1 O61 1.956 . S
Li1 O63 1.961 . S
Li2 N47 1.990 . S
Li2 O60 1.961 . S
Li2 O62 1.956 . S
Li2 O63 1.970 . S
Li3 N53 1.990 . S
Li3 O61 1.961 . S
Li3 O62 1.970 . S
Li3 O63 1.956 . S
C4 C6 1.348 . S
C4 C7 1.356 . S
C4 O60 1.325 . S
N5 C8 1.314 . S
N5 C9 1.279 . S
C6 C4 1.348 . S
C6 C8 1.353 . S
C6 H64 0.929 . S
C7 C4 1.356 . S
C7 C9 1.358 . S
C7 H65 0.930 . S
C8 N5 1.314 . S
C8 C6 1.353 . S
C8 H66 0.930 . S
C9 N5 1.279 . S
C9 C7 1.358 . S
C9 H67 0.930 . S
C10 C13 1.348 . S
C10 C14 1.356 . S
C10 O61 1.325 . S
C11 N12 1.279 . S
C11 C14 1.358 . S
C11 H68 0.930 . S
N12 C11 1.279 . S
N12 C15 1.314 . S
C13 C10 1.348 . S
C13 C15 1.353 . S
C13 H69 0.929 . S
C14 C10 1.356 . S
C14 C11 1.358 . S
C14 H70 0.930 . S
C15 N12 1.314 . S
C15 C13 1.353 . S
C15 H71 0.930 . S
C16 N17 1.314 . S
C16 C21 1.353 . S
C16 H22 0.930 . S
N17 Li0 1.990 . S
N17 C16 1.314 . S
N17 C19 1.279 . S
C18 C19 1.358 . S
C18 C20 1.356 . S
C18 H72 0.930 . S
C19 N17 1.279 . S
C19 C18 1.358 . S
C19 H23 0.930 . S
C20 C18 1.356 . S
C20 C21 1.348 . S
C21 C16 1.353 . S
C21 C20 1.348 . S
C21 H73 0.929 . S
H22 C16 0.930 . S
H23 C19 0.930 . S
C24 N25 1.314 . S
C24 C26 1.353 . S
C24 H30 0.930 . S
N25 Li1 1.990 . S
N25 C24 1.314 . S
N25 C28 1.279 . S
C26 C24 1.353 . S
C26 C29 1.348 . S
C26 H74 0.929 . S
C27 C28 1.358 . S
C27 C29 1.356 . S
C27 H75 0.930 . S
C28 N25 1.279 . S
C28 C27 1.358 . S
C28 H31 0.930 . S
C29 C26 1.348 . S
C29 C27 1.356 . S
H30 C24 0.930 . S
H31 C28 0.930 . S
C32 C34 1.348 . S
C32 C35 1.356 . S
C32 O62 1.325 . S
N33 C36 1.314 . S
N33 C37 1.279 . S
C34 C32 1.348 . S
C34 C36 1.353 . S
C34 H76 0.929 . S
C35 C32 1.356 . S
C35 C37 1.358 . S
C35 H77 0.930 . S
C36 N33 1.314 . S
C36 C34 1.353 . S
C36 H78 0.930 . S
C37 N33 1.279 . S
C37 C35 1.358 . S
C37 H79 0.930 . S
C38 C39 1.348 . S
C38 C40 1.356 . S
C38 O63 1.325 . S
C39 C38 1.348 . S
C39 C41 1.353 . S
C39 H80 0.929 . S
C40 C38 1.356 . S
C40 C42 1.358 . S
C40 H81 0.930 . S
C41 C39 1.353 . S
C41 N43 1.314 . S
C41 H82 0.930 . S
C42 C40 1.358 . S
C42 N43 1.279 . S
C42 H83 0.930 . S
N43 C41 1.314 . S
N43 C42 1.279 . S
C44 C46 1.353 . S
C44 N47 1.314 . S
C44 H50 0.930 . S
C45 N47 1.279 . S
C45 C48 1.358 . S
C45 H51 0.930 . S
C46 C44 1.353 . S
C46 C49 1.348 . S
C46 H84 0.929 . S
N47 Li2 1.990 . S
N47 C44 1.314 . S
N47 C45 1.279 . S
C48 C45 1.358 . S
C48 C49 1.356 . S
C48 H85 0.930 . S
C49 C46 1.348 . S
C49 C48 1.356 . S
H50 C44 0.930 . S
H51 C45 0.930 . S
C52 N53 1.314 . S
C52 C54 1.353 . S
C52 H58 0.930 . S
N53 Li3 1.990 . S
N53 C52 1.314 . S
N53 C56 1.279 . S
C54 C52 1.353 . S
C54 C57 1.348 . S
C54 H86 0.929 . S
C55 C56 1.358 . S
C55 C57 1.356 . S
C55 H87 0.930 . S
C56 N53 1.279 . S
C56 C55 1.358 . S
C56 H59 0.930 . S
C57 C54 1.348 . S
C57 C55 1.356 . S
H58 C52 0.930 . S
H59 C56 0.930 . S
O60 Li0 1.956 . S
O60 Li1 1.970 . S
O60 Li2 1.961 . S
O60 C4 1.325 . S
O61 Li0 1.970 . S
O61 Li1 1.956 . S
O61 Li3 1.961 . S
O61 C10 1.325 . S
O62 Li0 1.961 . S
O62 Li2 1.956 . S
O62 Li3 1.970 . S
O62 C32 1.325 . S
O63 Li1 1.961 . S
O63 Li2 1.970 . S
O63 Li3 1.956 . S
O63 C38 1.325 . S
H64 C6 0.929 . S
H65 C7 0.930 . S
H66 C8 0.930 . S
H67 C9 0.930 . S
H68 C11 0.930 . S
H69 C13 0.929 . S
H70 C14 0.930 . S
H71 C15 0.930 . S
H72 C18 0.930 . S
H73 C21 0.929 . S
H74 C26 0.929 . S
H75 C27 0.930 . S
H76 C34 0.929 . S
H77 C35 0.930 . S
H78 C36 0.930 . S
H79 C37 0.930 . S
H80 C39 0.929 . S
H81 C40 0.930 . S
H82 C41 0.930 . S
H83 C42 0.930 . S
H84 C46 0.929 . S
H85 C48 0.930 . S
H86 C54 0.929 . S
H87 C55 0.930 . S
Li88 N105 1.990 . S
Li88 O148 1.956 . S
Li88 O149 1.970 . S
Li88 O150 1.961 . S
Li89 N113 1.990 . S
Li89 O148 1.970 . S
Li89 O149 1.956 . S
Li89 O151 1.961 . S
Li90 N135 1.990 . S
Li90 O148 1.961 . S
Li90 O150 1.956 . S
Li90 O151 1.970 . S
Li91 N141 1.990 . S
Li91 O149 1.961 . S
Li91 O150 1.970 . S
Li91 O151 1.956 . S
C92 C94 1.348 . S
C92 C95 1.356 . S
C92 O148 1.325 . S
N93 C96 1.314 . S
N93 C97 1.279 . S
C94 C92 1.348 . S
C94 C96 1.353 . S
C94 H152 0.929 . S
C95 C92 1.356 . S
C95 C97 1.358 . S
C95 H153 0.930 . S
C96 N93 1.314 . S
C96 C94 1.353 . S
C96 H154 0.930 . S
C97 N93 1.279 . S
C97 C95 1.358 . S
C97 H155 0.930 . S
C98 C101 1.348 . S
C98 C102 1.356 . S
C98 O149 1.325 . S
C99 N100 1.279 . S
C99 C102 1.358 . S
C99 H156 0.930 . S
N100 C99 1.279 . S
N100 C103 1.314 . S
C101 C98 1.348 . S
C101 C103 1.353 . S
C101 H157 0.929 . S
C102 C98 1.356 . S
C102 C99 1.358 . S
C102 H158 0.930 . S
C103 N100 1.314 . S
C103 C101 1.353 . S
C103 H159 0.930 . S
C104 N105 1.314 . S
C104 C109 1.353 . S
C104 H110 0.930 . S
N105 Li88 1.990 . S
N105 C104 1.314 . S
N105 C107 1.279 . S
C106 C107 1.358 . S
C106 C108 1.356 . S
C106 H160 0.930 . S
C107 N105 1.279 . S
C107 C106 1.358 . S
C107 H111 0.930 . S
C108 C106 1.356 . S
C108 C109 1.348 . S
C109 C104 1.353 . S
C109 C108 1.348 . S
C109 H161 0.929 . S
H110 C104 0.930 . S
H111 C107 0.930 . S
C112 N113 1.314 . S
C112 C114 1.353 . S
C112 H118 0.930 . S
N113 Li89 1.990 . S
N113 C112 1.314 . S
N113 C116 1.279 . S
C114 C112 1.353 . S
C114 C117 1.348 . S
C114 H162 0.929 . S
C115 C116 1.358 . S
C115 C117 1.356 . S
C115 H163 0.930 . S
C116 N113 1.279 . S
C116 C115 1.358 . S
C116 H119 0.930 . S
C117 C114 1.348 . S
C117 C115 1.356 . S
H118 C112 0.930 . S
H119 C116 0.930 . S
C120 C122 1.348 . S
C120 C123 1.356 . S
C120 O150 1.325 . S
N121 C124 1.314 . S
N121 C125 1.279 . S
C122 C120 1.348 . S
C122 C124 1.353 . S
C122 H164 0.929 . S
C123 C120 1.356 . S
C123 C125 1.358 . S
C123 H165 0.930 . S
C124 N121 1.314 . S
C124 C122 1.353 . S
C124 H166 0.930 . S
C125 N121 1.279 . S
C125 C123 1.358 . S
C125 H167 0.930 . S
C126 C127 1.348 . S
C126 C128 1.356 . S
C126 O151 1.325 . S
C127 C126 1.348 . S
C127 C129 1.353 . S
C127 H168 0.929 . S
C128 C126 1.356 . S
C128 C130 1.358 . S
C128 H169 0.930 . S
C129 C127 1.353 . S
C129 N131 1.314 . S
C129 H170 0.930 . S
C130 C128 1.358 . S
C130 N131 1.279 . S
C130 H171 0.930 . S
N131 C129 1.314 . S
N131 C130 1.279 . S
C132 C134 1.353 . S
C132 N135 1.314 . S
C132 H138 0.930 . S
C133 N135 1.279 . S
C133 C136 1.358 . S
C133 H139 0.930 . S
C134 C132 1.353 . S
C134 C137 1.348 . S
C134 H172 0.929 . S
N135 Li90 1.990 . S
N135 C132 1.314 . S
N135 C133 1.279 . S
C136 C133 1.358 . S
C136 C137 1.356 . S
C136 H173 0.930 . S
C137 C134 1.348 . S
C137 C136 1.356 . S
H138 C132 0.930 . S
H139 C133 0.930 . S
C140 N141 1.314 . S
C140 C142 1.353 . S
C140 H146 0.930 . S
N141 Li91 1.990 . S
N141 C140 1.314 . S
N141 C144 1.279 . S
C142 C140 1.353 . S
C142 C145 1.348 . S
C142 H174 0.929 . S
C143 C144 1.358 . S
C143 C145 1.356 . S
C143 H175 0.930 . S
C144 N141 1.279 . S
C144 C143 1.358 . S
C144 H147 0.930 . S
C145 C142 1.348 . S
C145 C143 1.356 . S
H146 C140 0.930 . S
H147 C144 0.930 . S
O148 Li88 1.956 . S
O148 Li89 1.970 . S
O148 Li90 1.961 . S
O148 C92 1.325 . S
O149 Li88 1.970 . S
O149 Li89 1.956 . S
O149 Li91 1.961 . S
O149 C98 1.325 . S
O150 Li88 1.961 . S
O150 Li90 1.956 . S
O150 Li91 1.970 . S
O150 C120 1.325 . S
O151 Li89 1.961 . S
O151 Li90 1.970 . S
O151 Li91 1.956 . S
O151 C126 1.325 . S
H152 C94 0.929 . S
H153 C95 0.930 . S
H154 C96 0.930 . S
H155 C97 0.930 . S
H156 C99 0.930 . S
H157 C101 0.929 . S
H158 C102 0.930 . S
H159 C103 0.930 . S
H160 C106 0.930 . S
H161 C109 0.929 . S
H162 C114 0.929 . S
H163 C115 0.930 . S
H164 C122 0.929 . S
H165 C123 0.930 . S
H166 C124 0.930 . S
H167 C125 0.930 . S
H168 C127 0.929 . S
H169 C128 0.930 . S
H170 C129 0.930 . S
H171 C130 0.930 . S
H172 C134 0.929 . S
H173 C136 0.930 . S
H174 C142 0.929 . S
H175 C143 0.930 . S
Li176 N193 1.990 . S
Li176 O236 1.956 . S
Li176 O237 1.970 . S
Li176 O238 1.961 . S
Li177 N201 1.990 . S
Li177 O236 1.970 . S
Li177 O237 1.956 . S
Li177 O239 1.961 . S
Li178 N223 1.990 . S
Li178 O236 1.961 . S
Li178 O238 1.956 . S
Li178 O239 1.970 . S
Li179 N229 1.990 . S
Li179 O237 1.961 . S
Li179 O238 1.970 . S
Li179 O239 1.956 . S
C180 C182 1.348 . S
C180 C183 1.356 . S
C180 O236 1.325 . S
N181 C184 1.314 . S
N181 C185 1.279 . S
C182 C180 1.348 . S
C182 C184 1.353 . S
C182 H240 0.929 . S
C183 C180 1.356 . S
C183 C185 1.358 . S
C183 H241 0.930 . S
C184 N181 1.314 . S
C184 C182 1.353 . S
C184 H242 0.930 . S
C185 N181 1.279 . S
C185 C183 1.358 . S
C185 H243 0.930 . S
C186 C189 1.348 . S
C186 C190 1.356 . S
C186 O237 1.325 . S
C187 N188 1.279 . S
C187 C190 1.358 . S
C187 H244 0.930 . S
N188 C187 1.279 . S
N188 C191 1.314 . S
C189 C186 1.348 . S
C189 C191 1.353 . S
C189 H245 0.929 . S
C190 C186 1.356 . S
C190 C187 1.358 . S
C190 H246 0.930 . S
C191 N188 1.314 . S
C191 C189 1.353 . S
C191 H247 0.930 . S
C192 N193 1.314 . S
C192 C197 1.353 . S
C192 H198 0.930 . S
N193 Li176 1.990 . S
N193 C192 1.314 . S
N193 C195 1.279 . S
C194 C195 1.358 . S
C194 C196 1.356 . S
C194 H248 0.930 . S
C195 N193 1.279 . S
C195 C194 1.358 . S
C195 H199 0.930 . S
C196 C194 1.356 . S
C196 C197 1.348 . S
C197 C192 1.353 . S
C197 C196 1.348 . S
C197 H249 0.929 . S
H198 C192 0.930 . S
H199 C195 0.930 . S
C200 N201 1.314 . S
C200 C202 1.353 . S
C200 H206 0.930 . S
N201 Li177 1.990 . S
N201 C200 1.314 . S
N201 C204 1.279 . S
C202 C200 1.353 . S
C202 C205 1.348 . S
C202 H250 0.929 . S
C203 C204 1.358 . S
C203 C205 1.356 . S
C203 H251 0.930 . S
C204 N201 1.279 . S
C204 C203 1.358 . S
C204 H207 0.930 . S
C205 C202 1.348 . S
C205 C203 1.356 . S
H206 C200 0.930 . S
H207 C204 0.930 . S
C208 C210 1.348 . S
C208 C211 1.356 . S
C208 O238 1.325 . S
N209 C212 1.314 . S
N209 C213 1.279 . S
C210 C208 1.348 . S
C210 C212 1.353 . S
C210 H252 0.929 . S
C211 C208 1.356 . S
C211 C213 1.358 . S
C211 H253 0.930 . S
C212 N209 1.314 . S
C212 C210 1.353 . S
C212 H254 0.930 . S
C213 N209 1.279 . S
C213 C211 1.358 . S
C213 H255 0.930 . S
C214 C215 1.348 . S
C214 C216 1.356 . S
C214 O239 1.325 . S
C215 C214 1.348 . S
C215 C217 1.353 . S
C215 H256 0.929 . S
C216 C214 1.356 . S
C216 C218 1.358 . S
C216 H257 0.930 . S
C217 C215 1.353 . S
C217 N219 1.314 . S
C217 H258 0.930 . S
C218 C216 1.358 . S
C218 N219 1.279 . S
C218 H259 0.930 . S
N219 C217 1.314 . S
N219 C218 1.279 . S
C220 C222 1.353 . S
C220 N223 1.314 . S
C220 H226 0.930 . S
C221 N223 1.279 . S
C221 C224 1.358 . S
C221 H227 0.930 . S
C222 C220 1.353 . S
C222 C225 1.348 . S
C222 H260 0.929 . S
N223 Li178 1.990 . S
N223 C220 1.314 . S
N223 C221 1.279 . S
C224 C221 1.358 . S
C224 C225 1.356 . S
C224 H261 0.930 . S
C225 C222 1.348 . S
C225 C224 1.356 . S
H226 C220 0.930 . S
H227 C221 0.930 . S
C228 N229 1.314 . S
C228 C230 1.353 . S
C228 H234 0.930 . S
N229 Li179 1.990 . S
N229 C228 1.314 . S
N229 C232 1.279 . S
C230 C228 1.353 . S
C230 C233 1.348 . S
C230 H262 0.929 . S
C231 C232 1.358 . S
C231 C233 1.356 . S
C231 H263 0.930 . S
C232 N229 1.279 . S
C232 C231 1.358 . S
C232 H235 0.930 . S
C233 C230 1.348 . S
C233 C231 1.356 . S
H234 C228 0.930 . S
H235 C232 0.930 . S
O236 Li176 1.956 . S
O236 Li177 1.970 . S
O236 Li178 1.961 . S
O236 C180 1.325 . S
O237 Li176 1.970 . S
O237 Li177 1.956 . S
O237 Li179 1.961 . S
O237 C186 1.325 . S
O238 Li176 1.961 . S
O238 Li178 1.956 . S
O238 Li179 1.970 . S
O238 C208 1.325 . S
O239 Li177 1.961 . S
O239 Li178 1.970 . S
O239 Li179 1.956 . S
O239 C214 1.325 . S
H240 C182 0.929 . S
H241 C183 0.930 . S
H242 C184 0.930 . S
H243 C185 0.930 . S
H244 C187 0.930 . S
H245 C189 0.929 . S
H246 C190 0.930 . S
H247 C191 0.930 . S
H248 C194 0.930 . S
H249 C197 0.929 . S
H250 C202 0.929 . S
H251 C203 0.930 . S
H252 C210 0.929 . S
H253 C211 0.930 . S
H254 C212 0.930 . S
H255 C213 0.930 . S
H256 C215 0.929 . S
H257 C216 0.930 . S
H258 C217 0.930 . S
H259 C218 0.930 . S
H260 C222 0.929 . S
H261 C224 0.930 . S
H262 C230 0.929 . S
H263 C231 0.930 . S
Li264 N281 1.990 . S
Li264 O324 1.956 . S
Li264 O325 1.970 . S
Li264 O326 1.961 . S
Li265 N289 1.990 . S
Li265 O324 1.970 . S
Li265 O325 1.956 . S
Li265 O327 1.961 . S
Li266 N311 1.990 . S
Li266 O324 1.961 . S
Li266 O326 1.956 . S
Li266 O327 1.970 . S
Li267 N317 1.990 . S
Li267 O325 1.961 . S
Li267 O326 1.970 . S
Li267 O327 1.956 . S
C268 C270 1.348 . S
C268 C271 1.356 . S
C268 O324 1.325 . S
N269 C272 1.314 . S
N269 C273 1.279 . S
C270 C268 1.348 . S
C270 C272 1.353 . S
C270 H328 0.929 . S
C271 C268 1.356 . S
C271 C273 1.358 . S
C271 H329 0.930 . S
C272 N269 1.314 . S
C272 C270 1.353 . S
C272 H330 0.930 . S
C273 N269 1.279 . S
C273 C271 1.358 . S
C273 H331 0.930 . S
C274 C277 1.348 . S
C274 C278 1.356 . S
C274 O325 1.325 . S
C275 N276 1.279 . S
C275 C278 1.358 . S
C275 H332 0.930 . S
N276 C275 1.279 . S
N276 C279 1.314 . S
C277 C274 1.348 . S
C277 C279 1.353 . S
C277 H333 0.929 . S
C278 C274 1.356 . S
C278 C275 1.358 . S
C278 H334 0.930 . S
C279 N276 1.314 . S
C279 C277 1.353 . S
C279 H335 0.930 . S
C280 N281 1.314 . S
C280 C285 1.353 . S
C280 H286 0.930 . S
N281 Li264 1.990 . S
N281 C280 1.314 . S
N281 C283 1.279 . S
C282 C283 1.358 . S
C282 C284 1.356 . S
C282 H336 0.930 . S
C283 N281 1.279 . S
C283 C282 1.358 . S
C283 H287 0.930 . S
C284 C282 1.356 . S
C284 C285 1.348 . S
C285 C280 1.353 . S
C285 C284 1.348 . S
C285 H337 0.929 . S
H286 C280 0.930 . S
H287 C283 0.930 . S
C288 N289 1.314 . S
C288 C290 1.353 . S
C288 H294 0.930 . S
N289 Li265 1.990 . S
N289 C288 1.314 . S
N289 C292 1.279 . S
C290 C288 1.353 . S
C290 C293 1.348 . S
C290 H338 0.929 . S
C291 C292 1.358 . S
C291 C293 1.356 . S
C291 H339 0.930 . S
C292 N289 1.279 . S
C292 C291 1.358 . S
C292 H295 0.930 . S
C293 C290 1.348 . S
C293 C291 1.356 . S
H294 C288 0.930 . S
H295 C292 0.930 . S
C296 C298 1.348 . S
C296 C299 1.356 . S
C296 O326 1.325 . S
N297 C300 1.314 . S
N297 C301 1.279 . S
C298 C296 1.348 . S
C298 C300 1.353 . S
C298 H340 0.929 . S
C299 C296 1.356 . S
C299 C301 1.358 . S
C299 H341 0.930 . S
C300 N297 1.314 . S
C300 C298 1.353 . S
C300 H342 0.930 . S
C301 N297 1.279 . S
C301 C299 1.358 . S
C301 H343 0.930 . S
C302 C303 1.348 . S
C302 C304 1.356 . S
C302 O327 1.325 . S
C303 C302 1.348 . S
C303 C305 1.353 . S
C303 H344 0.929 . S
C304 C302 1.356 . S
C304 C306 1.358 . S
C304 H345 0.930 . S
C305 C303 1.353 . S
C305 N307 1.314 . S
C305 H346 0.930 . S
C306 C304 1.358 . S
C306 N307 1.279 . S
C306 H347 0.930 . S
N307 C305 1.314 . S
N307 C306 1.279 . S
C308 C310 1.353 . S
C308 N311 1.314 . S
C308 H314 0.930 . S
C309 N311 1.279 . S
C309 C312 1.358 . S
C309 H315 0.930 . S
C310 C308 1.353 . S
C310 C313 1.348 . S
C310 H348 0.929 . S
N311 Li266 1.990 . S
N311 C308 1.314 . S
N311 C309 1.279 . S
C312 C309 1.358 . S
C312 C313 1.356 . S
C312 H349 0.930 . S
C313 C310 1.348 . S
C313 C312 1.356 . S
H314 C308 0.930 . S
H315 C309 0.930 . S
C316 N317 1.314 . S
C316 C318 1.353 . S
C316 H322 0.930 . S
N317 Li267 1.990 . S
N317 C316 1.314 . S
N317 C320 1.279 . S
C318 C316 1.353 . S
C318 C321 1.348 . S
C318 H350 0.929 . S
C319 C320 1.358 . S
C319 C321 1.356 . S
C319 H351 0.930 . S
C320 N317 1.279 . S
C320 C319 1.358 . S
C320 H323 0.930 . S
C321 C318 1.348 . S
C321 C319 1.356 . S
H322 C316 0.930 . S
H323 C320 0.930 . S
O324 Li264 1.956 . S
O324 Li265 1.970 . S
O324 Li266 1.961 . S
O324 C268 1.325 . S
O325 Li264 1.970 . S
O325 Li265 1.956 . S
O325 Li267 1.961 . S
O325 C274 1.325 . S
O326 Li264 1.961 . S
O326 Li266 1.956 . S
O326 Li267 1.970 . S
O326 C296 1.325 . S
O327 Li265 1.961 . S
O327 Li266 1.970 . S
O327 Li267 1.956 . S
O327 C302 1.325 . S
H328 C270 0.929 . S
H329 C271 0.930 . S
H330 C272 0.930 . S
H331 C273 0.930 . S
H332 C275 0.930 . S
H333 C277 0.929 . S
H334 C278 0.930 . S
H335 C279 0.930 . S
H336 C282 0.930 . S
H337 C285 0.929 . S
H338 C290 0.929 . S
H339 C291 0.930 . S
H340 C298 0.929 . S
H341 C299 0.930 . S
H342 C300 0.930 . S
H343 C301 0.930 . S
H344 C303 0.929 . S
H345 C304 0.930 . S
H346 C305 0.930 . S
H347 C306 0.930 . S
H348 C310 0.929 . S
H349 C312 0.930 . S
H350 C318 0.929 . S
H351 C319 0.930 . S
Li352 N369 1.990 . S
Li352 O412 1.956 . S
Li352 O413 1.970 . S
Li352 O414 1.961 . S
Li353 N377 1.990 . S
Li353 O412 1.970 . S
Li353 O413 1.956 . S
Li353 O415 1.961 . S
Li354 N399 1.990 . S
Li354 O412 1.961 . S
Li354 O414 1.956 . S
Li354 O415 1.970 . S
Li355 N405 1.990 . S
Li355 O413 1.961 . S
Li355 O414 1.970 . S
Li355 O415 1.956 . S
C356 C358 1.348 . S
C356 C359 1.356 . S
C356 O412 1.325 . S
N357 C360 1.314 . S
N357 C361 1.279 . S
C358 C356 1.348 . S
C358 C360 1.353 . S
C358 H416 0.929 . S
C359 C356 1.356 . S
C359 C361 1.358 . S
C359 H417 0.930 . S
C360 N357 1.314 . S
C360 C358 1.353 . S
C360 H418 0.930 . S
C361 N357 1.279 . S
C361 C359 1.358 . S
C361 H419 0.930 . S
C362 C365 1.348 . S
C362 C366 1.356 . S
C362 O413 1.325 . S
C363 N364 1.279 . S
C363 C366 1.358 . S
C363 H420 0.930 . S
N364 C363 1.279 . S
N364 C367 1.314 . S
C365 C362 1.348 . S
C365 C367 1.353 . S
C365 H421 0.929 . S
C366 C362 1.356 . S
C366 C363 1.358 . S
C366 H422 0.930 . S
C367 N364 1.314 . S
C367 C365 1.353 . S
C367 H423 0.930 . S
C368 N369 1.314 . S
C368 C373 1.353 . S
C368 H374 0.930 . S
N369 Li352 1.990 . S
N369 C368 1.314 . S
N369 C371 1.279 . S
C370 C371 1.358 . S
C370 C372 1.356 . S
C370 H424 0.930 . S
C371 N369 1.279 . S
C371 C370 1.358 . S
C371 H375 0.930 . S
C372 C370 1.356 . S
C372 C373 1.348 . S
C373 C368 1.353 . S
C373 C372 1.348 . S
C373 H425 0.929 . S
H374 C368 0.930 . S
H375 C371 0.930 . S
C376 N377 1.314 . S
C376 C378 1.353 . S
C376 H382 0.930 . S
N377 Li353 1.990 . S
N377 C376 1.314 . S
N377 C380 1.279 . S
C378 C376 1.353 . S
C378 C381 1.348 . S
C378 H426 0.929 . S
C379 C380 1.358 . S
C379 C381 1.356 . S
C379 H427 0.930 . S
C380 N377 1.279 . S
C380 C379 1.358 . S
C380 H383 0.930 . S
C381 C378 1.348 . S
C381 C379 1.356 . S
H382 C376 0.930 . S
H383 C380 0.930 . S
C384 C386 1.348 . S
C384 C387 1.356 . S
C384 O414 1.325 . S
N385 C388 1.314 . S
N385 C389 1.279 . S
C386 C384 1.348 . S
C386 C388 1.353 . S
C386 H428 0.929 . S
C387 C384 1.356 . S
C387 C389 1.358 . S
C387 H429 0.930 . S
C388 N385 1.314 . S
C388 C386 1.353 . S
C388 H430 0.930 . S
C389 N385 1.279 . S
C389 C387 1.358 . S
C389 H431 0.930 . S
C390 C391 1.348 . S
C390 C392 1.356 . S
C390 O415 1.325 . S
C391 C390 1.348 . S
C391 C393 1.353 . S
C391 H432 0.929 . S
C392 C390 1.356 . S
C392 C394 1.358 . S
C392 H433 0.930 . S
C393 C391 1.353 . S
C393 N395 1.314 . S
C393 H434 0.930 . S
C394 C392 1.358 . S
C394 N395 1.279 . S
C394 H435 0.930 . S
N395 C393 1.314 . S
N395 C394 1.279 . S
C396 C398 1.353 . S
C396 N399 1.314 . S
C396 H402 0.930 . S
C397 N399 1.279 . S
C397 C400 1.358 . S
C397 H403 0.930 . S
C398 C396 1.353 . S
C398 C401 1.348 . S
C398 H436 0.929 . S
N399 Li354 1.990 . S
N399 C396 1.314 . S
N399 C397 1.279 . S
C400 C397 1.358 . S
C400 C401 1.356 . S
C400 H437 0.930 . S
C401 C398 1.348 . S
C401 C400 1.356 . S
H402 C396 0.930 . S
H403 C397 0.930 . S
C404 N405 1.314 . S
C404 C406 1.353 . S
C404 H410 0.930 . S
N405 Li355 1.990 . S
N405 C404 1.314 . S
N405 C408 1.279 . S
C406 C404 1.353 . S
C406 C409 1.348 . S
C406 H438 0.929 . S
C407 C408 1.358 . S
C407 C409 1.356 . S
C407 H439 0.930 . S
C408 N405 1.279 . S
C408 C407 1.358 . S
C408 H411 0.930 . S
C409 C406 1.348 . S
C409 C407 1.356 . S
H410 C404 0.930 . S
H411 C408 0.930 . S
O412 Li352 1.956 . S
O412 Li353 1.970 . S
O412 Li354 1.961 . S
O412 C356 1.325 . S
O413 Li352 1.970 . S
O413 Li353 1.956 . S
O413 Li355 1.961 . S
O413 C362 1.325 . S
O414 Li352 1.961 . S
O414 Li354 1.956 . S
O414 Li355 1.970 . S
O414 C384 1.325 . S
O415 Li353 1.961 . S
O415 Li354 1.970 . S
O415 Li355 1.956 . S
O415 C390 1.325 . S
H416 C358 0.929 . S
H417 C359 0.930 . S
H418 C360 0.930 . S
H419 C361 0.930 . S
H420 C363 0.930 . S
H421 C365 0.929 . S
H422 C366 0.930 . S
H423 C367 0.930 . S
H424 C370 0.930 . S
H425 C373 0.929 . S
H426 C378 0.929 . S
H427 C379 0.930 . S
H428 C386 0.929 . S
H429 C387 0.930 . S
H430 C388 0.930 . S
H431 C389 0.930 . S
H432 C391 0.929 . S
H433 C392 0.930 . S
H434 C393 0.930 . S
H435 C394 0.930 . S
H436 C398 0.929 . S
H437 C400 0.930 . S
H438 C406 0.929 . S
H439 C407 0.930 . S
Li440 N457 1.990 . S
Li440 O500 1.956 . S
Li440 O501 1.970 . S
Li440 O502 1.961 . S
Li441 N465 1.990 . S
Li441 O500 1.970 . S
Li441 O501 1.956 . S
Li441 O503 1.961 . S
Li442 N487 1.990 . S
Li442 O500 1.961 . S
Li442 O502 1.956 . S
Li442 O503 1.970 . S
Li443 N493 1.990 . S
Li443 O501 1.961 . S
Li443 O502 1.970 . S
Li443 O503 1.956 . S
C444 C446 1.348 . S
C444 C447 1.356 . S
C444 O500 1.325 . S
N445 C448 1.314 . S
N445 C449 1.279 . S
C446 C444 1.348 . S
C446 C448 1.353 . S
C446 H504 0.929 . S
C447 C444 1.356 . S
C447 C449 1.358 . S
C447 H505 0.930 . S
C448 N445 1.314 . S
C448 C446 1.353 . S
C448 H506 0.930 . S
C449 N445 1.279 . S
C449 C447 1.358 . S
C449 H507 0.930 . S
C450 C453 1.348 . S
C450 C454 1.356 . S
C450 O501 1.325 . S
C451 N452 1.279 . S
C451 C454 1.358 . S
C451 H508 0.930 . S
N452 C451 1.279 . S
N452 C455 1.314 . S
C453 C450 1.348 . S
C453 C455 1.353 . S
C453 H509 0.929 . S
C454 C450 1.356 . S
C454 C451 1.358 . S
C454 H510 0.930 . S
C455 N452 1.314 . S
C455 C453 1.353 . S
C455 H511 0.930 . S
C456 N457 1.314 . S
C456 C461 1.353 . S
C456 H462 0.930 . S
N457 Li440 1.990 . S
N457 C456 1.314 . S
N457 C459 1.279 . S
C458 C459 1.358 . S
C458 C460 1.356 . S
C458 H512 0.930 . S
C459 N457 1.279 . S
C459 C458 1.358 . S
C459 H463 0.930 . S
C460 C458 1.356 . S
C460 C461 1.348 . S
C461 C456 1.353 . S
C461 C460 1.348 . S
C461 H513 0.929 . S
H462 C456 0.930 . S
H463 C459 0.930 . S
C464 N465 1.314 . S
C464 C466 1.353 . S
C464 H470 0.930 . S
N465 Li441 1.990 . S
N465 C464 1.314 . S
N465 C468 1.279 . S
C466 C464 1.353 . S
C466 C469 1.348 . S
C466 H514 0.929 . S
C467 C468 1.358 . S
C467 C469 1.356 . S
C467 H515 0.930 . S
C468 N465 1.279 . S
C468 C467 1.358 . S
C468 H471 0.930 . S
C469 C466 1.348 . S
C469 C467 1.356 . S
H470 C464 0.930 . S
H471 C468 0.930 . S
C472 C474 1.348 . S
C472 C475 1.356 . S
C472 O502 1.325 . S
N473 C476 1.314 . S
N473 C477 1.279 . S
C474 C472 1.348 . S
C474 C476 1.353 . S
C474 H516 0.929 . S
C475 C472 1.356 . S
C475 C477 1.358 . S
C475 H517 0.930 . S
C476 N473 1.314 . S
C476 C474 1.353 . S
C476 H518 0.930 . S
C477 N473 1.279 . S
C477 C475 1.358 . S
C477 H519 0.930 . S
C478 C479 1.348 . S
C478 C480 1.356 . S
C478 O503 1.325 . S
C479 C478 1.348 . S
C479 C481 1.353 . S
C479 H520 0.929 . S
C480 C478 1.356 . S
C480 C482 1.358 . S
C480 H521 0.930 . S
C481 C479 1.353 . S
C481 N483 1.314 . S
C481 H522 0.930 . S
C482 C480 1.358 . S
C482 N483 1.279 . S
C482 H523 0.930 . S
N483 C481 1.314 . S
N483 C482 1.279 . S
C484 C486 1.353 . S
C484 N487 1.314 . S
C484 H490 0.930 . S
C485 N487 1.279 . S
C485 C488 1.358 . S
C485 H491 0.930 . S
C486 C484 1.353 . S
C486 C489 1.348 . S
C486 H524 0.929 . S
N487 Li442 1.990 . S
N487 C484 1.314 . S
N487 C485 1.279 . S
C488 C485 1.358 . S
C488 C489 1.356 . S
C488 H525 0.930 . S
C489 C486 1.348 . S
C489 C488 1.356 . S
H490 C484 0.930 . S
H491 C485 0.930 . S
C492 N493 1.314 . S
C492 C494 1.353 . S
C492 H498 0.930 . S
N493 Li443 1.990 . S
N493 C492 1.314 . S
N493 C496 1.279 . S
C494 C492 1.353 . S
C494 C497 1.348 . S
C494 H526 0.929 . S
C495 C496 1.358 . S
C495 C497 1.356 . S
C495 H527 0.930 . S
C496 N493 1.279 . S
C496 C495 1.358 . S
C496 H499 0.930 . S
C497 C494 1.348 . S
C497 C495 1.356 . S
H498 C492 0.930 . S
H499 C496 0.930 . S
O500 Li440 1.956 . S
O500 Li441 1.970 . S
O500 Li442 1.961 . S
O500 C444 1.325 . S
O501 Li440 1.970 . S
O501 Li441 1.956 . S
O501 Li443 1.961 . S
O501 C450 1.325 . S
O502 Li440 1.961 . S
O502 Li442 1.956 . S
O502 Li443 1.970 . S
O502 C472 1.325 . S
O503 Li441 1.961 . S
O503 Li442 1.970 . S
O503 Li443 1.956 . S
O503 C478 1.325 . S
H504 C446 0.929 . S
H505 C447 0.930 . S
H506 C448 0.930 . S
H507 C449 0.930 . S
H508 C451 0.930 . S
H509 C453 0.929 . S
H510 C454 0.930 . S
H511 C455 0.930 . S
H512 C458 0.930 . S
H513 C461 0.929 . S
H514 C466 0.929 . S
H515 C467 0.930 . S
H516 C474 0.929 . S
H517 C475 0.930 . S
H518 C476 0.930 . S
H519 C477 0.930 . S
H520 C479 0.929 . S
H521 C480 0.930 . S
H522 C481 0.930 . S
H523 C482 0.930 . S
H524 C486 0.929 . S
H525 C488 0.930 . S
H526 C494 0.929 . S
H527 C495 0.930 . S
Li528 N545 1.990 . S
Li528 O588 1.956 . S
Li528 O589 1.970 . S
Li528 O590 1.961 . S
Li529 N553 1.990 . S
Li529 O588 1.970 . S
Li529 O589 1.956 . S
Li529 O591 1.961 . S
Li530 N575 1.990 . S
Li530 O588 1.961 . S
Li530 O590 1.956 . S
Li530 O591 1.970 . S
Li531 N581 1.990 . S
Li531 O589 1.961 . S
Li531 O590 1.970 . S
Li531 O591 1.956 . S
C532 C534 1.348 . S
C532 C535 1.356 . S
C532 O588 1.325 . S
N533 C536 1.314 . S
N533 C537 1.279 . S
C534 C532 1.348 . S
C534 C536 1.353 . S
C534 H592 0.929 . S
C535 C532 1.356 . S
C535 C537 1.358 . S
C535 H593 0.930 . S
C536 N533 1.314 . S
C536 C534 1.353 . S
C536 H594 0.930 . S
C537 N533 1.279 . S
C537 C535 1.358 . S
C537 H595 0.930 . S
C538 C541 1.348 . S
C538 C542 1.356 . S
C538 O589 1.325 . S
C539 N540 1.279 . S
C539 C542 1.358 . S
C539 H596 0.930 . S
N540 C539 1.279 . S
N540 C543 1.314 . S
C541 C538 1.348 . S
C541 C543 1.353 . S
C541 H597 0.929 . S
C542 C538 1.356 . S
C542 C539 1.358 . S
C542 H598 0.930 . S
C543 N540 1.314 . S
C543 C541 1.353 . S
C543 H599 0.930 . S
C544 N545 1.314 . S
C544 C549 1.353 . S
C544 H550 0.930 . S
N545 Li528 1.990 . S
N545 C544 1.314 . S
N545 C547 1.279 . S
C546 C547 1.358 . S
C546 C548 1.356 . S
C546 H600 0.930 . S
C547 N545 1.279 . S
C547 C546 1.358 . S
C547 H551 0.930 . S
C548 C546 1.356 . S
C548 C549 1.348 . S
C549 C544 1.353 . S
C549 C548 1.348 . S
C549 H601 0.929 . S
H550 C544 0.930 . S
H551 C547 0.930 . S
C552 N553 1.314 . S
C552 C554 1.353 . S
C552 H558 0.930 . S
N553 Li529 1.990 . S
N553 C552 1.314 . S
N553 C556 1.279 . S
C554 C552 1.353 . S
C554 C557 1.348 . S
C554 H602 0.929 . S
C555 C556 1.358 . S
C555 C557 1.356 . S
C555 H603 0.930 . S
C556 N553 1.279 . S
C556 C555 1.358 . S
C556 H559 0.930 . S
C557 C554 1.348 . S
C557 C555 1.356 . S
H558 C552 0.930 . S
H559 C556 0.930 . S
C560 C562 1.348 . S
C560 C563 1.356 . S
C560 O590 1.325 . S
N561 C564 1.314 . S
N561 C565 1.279 . S
C562 C560 1.348 . S
C562 C564 1.353 . S
C562 H604 0.929 . S
C563 C560 1.356 . S
C563 C565 1.358 . S
C563 H605 0.930 . S
C564 N561 1.314 . S
C564 C562 1.353 . S
C564 H606 0.930 . S
C565 N561 1.279 . S
C565 C563 1.358 . S
C565 H607 0.930 . S
C566 C567 1.348 . S
C566 C568 1.356 . S
C566 O591 1.325 . S
C567 C566 1.348 . S
C567 C569 1.353 . S
C567 H608 0.929 . S
C568 C566 1.356 . S
C568 C570 1.358 . S
C568 H609 0.930 . S
C569 C567 1.353 . S
C569 N571 1.314 . S
C569 H610 0.930 . S
C570 C568 1.358 . S
C570 N571 1.279 . S
C570 H611 0.930 . S
N571 C569 1.314 . S
N571 C570 1.279 . S
C572 C574 1.353 . S
C572 N575 1.314 . S
C572 H578 0.930 . S
C573 N575 1.279 . S
C573 C576 1.358 . S
C573 H579 0.930 . S
C574 C572 1.353 . S
C574 C577 1.348 . S
C574 H612 0.929 . S
N575 Li530 1.990 . S
N575 C572 1.314 . S
N575 C573 1.279 . S
C576 C573 1.358 . S
C576 C577 1.356 . S
C576 H613 0.930 . S
C577 C574 1.348 . S
C577 C576 1.356 . S
H578 C572 0.930 . S
H579 C573 0.930 . S
C580 N581 1.314 . S
C580 C582 1.353 . S
C580 H586 0.930 . S
N581 Li531 1.990 . S
N581 C580 1.314 . S
N581 C584 1.279 . S
C582 C580 1.353 . S
C582 C585 1.348 . S
C582 H614 0.929 . S
C583 C584 1.358 . S
C583 C585 1.356 . S
C583 H615 0.930 . S
C584 N581 1.279 . S
C584 C583 1.358 . S
C584 H587 0.930 . S
C585 C582 1.348 . S
C585 C583 1.356 . S
H586 C580 0.930 . S
H587 C584 0.930 . S
O588 Li528 1.956 . S
O588 Li529 1.970 . S
O588 Li530 1.961 . S
O588 C532 1.325 . S
O589 Li528 1.970 . S
O589 Li529 1.956 . S
O589 Li531 1.961 . S
O589 C538 1.325 . S
O590 Li528 1.961 . S
O590 Li530 1.956 . S
O590 Li531 1.970 . S
O590 C560 1.325 . S
O591 Li529 1.961 . S
O591 Li530 1.970 . S
O591 Li531 1.956 . S
O591 C566 1.325 . S
H592 C534 0.929 . S
H593 C535 0.930 . S
H594 C536 0.930 . S
H595 C537 0.930 . S
H596 C539 0.930 . S
H597 C541 0.929 . S
H598 C542 0.930 . S
H599 C543 0.930 . S
H600 C546 0.930 . S
H601 C549 0.929 . S
H602 C554 0.929 . S
H603 C555 0.930 . S
H604 C562 0.929 . S
H605 C563 0.930 . S
H606 C564 0.930 . S
H607 C565 0.930 . S
H608 C567 0.929 . S
H609 C568 0.930 . S
H610 C569 0.930 . S
H611 C570 0.930 . S
H612 C574 0.929 . S
H613 C576 0.930 . S
H614 C582 0.929 . S
H615 C583 0.930 . S
Li616 N633 1.990 . S
Li616 O676 1.956 . S
Li616 O677 1.970 . S
Li616 O678 1.961 . S
Li617 N641 1.990 . S
Li617 O676 1.970 . S
Li617 O677 1.956 . S
Li617 O679 1.961 . S
Li618 N663 1.990 . S
Li618 O676 1.961 . S
Li618 O678 1.956 . S
Li618 O679 1.970 . S
Li619 N669 1.990 . S
Li619 O677 1.961 . S
Li619 O678 1.970 . S
Li619 O679 1.956 . S
C620 C622 1.348 . S
C620 C623 1.356 . S
C620 O676 1.325 . S
N621 C624 1.314 . S
N621 C625 1.279 . S
C622 C620 1.348 . S
C622 C624 1.353 . S
C622 H680 0.929 . S
C623 C620 1.356 . S
C623 C625 1.358 . S
C623 H681 0.930 . S
C624 N621 1.314 . S
C624 C622 1.353 . S
C624 H682 0.930 . S
C625 N621 1.279 . S
C625 C623 1.358 . S
C625 H683 0.930 . S
C626 C629 1.348 . S
C626 C630 1.356 . S
C626 O677 1.325 . S
C627 N628 1.279 . S
C627 C630 1.358 . S
C627 H684 0.930 . S
N628 C627 1.279 . S
N628 C631 1.314 . S
C629 C626 1.348 . S
C629 C631 1.353 . S
C629 H685 0.929 . S
C630 C626 1.356 . S
C630 C627 1.358 . S
C630 H686 0.930 . S
C631 N628 1.314 . S
C631 C629 1.353 . S
C631 H687 0.930 . S
C632 N633 1.314 . S
C632 C637 1.353 . S
C632 H638 0.930 . S
N633 Li616 1.990 . S
N633 C632 1.314 . S
N633 C635 1.279 . S
C634 C635 1.358 . S
C634 C636 1.356 . S
C634 H688 0.930 . S
C635 N633 1.279 . S
C635 C634 1.358 . S
C635 H639 0.930 . S
C636 C634 1.356 . S
C636 C637 1.348 . S
C637 C632 1.353 . S
C637 C636 1.348 . S
C637 H689 0.929 . S
H638 C632 0.930 . S
H639 C635 0.930 . S
C640 N641 1.314 . S
C640 C642 1.353 . S
C640 H646 0.930 . S
N641 Li617 1.990 . S
N641 C640 1.314 . S
N641 C644 1.279 . S
C642 C640 1.353 . S
C642 C645 1.348 . S
C642 H690 0.929 . S
C643 C644 1.358 . S
C643 C645 1.356 . S
C643 H691 0.930 . S
C644 N641 1.279 . S
C644 C643 1.358 . S
C644 H647 0.930 . S
C645 C642 1.348 . S
C645 C643 1.356 . S
H646 C640 0.930 . S
H647 C644 0.930 . S
C648 C650 1.348 . S
C648 C651 1.356 . S
C648 O678 1.325 . S
N649 C652 1.314 . S
N649 C653 1.279 . S
C650 C648 1.348 . S
C650 C652 1.353 . S
C650 H692 0.929 . S
C651 C648 1.356 . S
C651 C653 1.358 . S
C651 H693 0.930 . S
C652 N649 1.314 . S
C652 C650 1.353 . S
C652 H694 0.930 . S
C653 N649 1.279 . S
C653 C651 1.358 . S
C653 H695 0.930 . S
C654 C655 1.348 . S
C654 C656 1.356 . S
C654 O679 1.325 . S
C655 C654 1.348 . S
C655 C657 1.353 . S
C655 H696 0.929 . S
C656 C654 1.356 . S
C656 C658 1.358 . S
C656 H697 0.930 . S
C657 C655 1.353 . S
C657 N659 1.314 . S
C657 H698 0.930 . S
C658 C656 1.358 . S
C658 N659 1.279 . S
C658 H699 0.930 . S
N659 C657 1.314 . S
N659 C658 1.279 . S
C660 C662 1.353 . S
C660 N663 1.314 . S
C660 H666 0.930 . S
C661 N663 1.279 . S
C661 C664 1.358 . S
C661 H667 0.930 . S
C662 C660 1.353 . S
C662 C665 1.348 . S
C662 H700 0.929 . S
N663 Li618 1.990 . S
N663 C660 1.314 . S
N663 C661 1.279 . S
C664 C661 1.358 . S
C664 C665 1.356 . S
C664 H701 0.930 . S
C665 C662 1.348 . S
C665 C664 1.356 . S
H666 C660 0.930 . S
H667 C661 0.930 . S
C668 N669 1.314 . S
C668 C670 1.353 . S
C668 H674 0.930 . S
N669 Li619 1.990 . S
N669 C668 1.314 . S
N669 C672 1.279 . S
C670 C668 1.353 . S
C670 C673 1.348 . S
C670 H702 0.929 . S
C671 C672 1.358 . S
C671 C673 1.356 . S
C671 H703 0.930 . S
C672 N669 1.279 . S
C672 C671 1.358 . S
C672 H675 0.930 . S
C673 C670 1.348 . S
C673 C671 1.356 . S
H674 C668 0.930 . S
H675 C672 0.930 . S
O676 Li616 1.956 . S
O676 Li617 1.970 . S
O676 Li618 1.961 . S
O676 C620 1.325 . S
O677 Li616 1.970 . S
O677 Li617 1.956 . S
O677 Li619 1.961 . S
O677 C626 1.325 . S
O678 Li616 1.961 . S
O678 Li618 1.956 . S
O678 Li619 1.970 . S
O678 C648 1.325 . S
O679 Li617 1.961 . S
O679 Li618 1.970 . S
O679 Li619 1.956 . S
O679 C654 1.325 . S
H680 C622 0.929 . S
H681 C623 0.930 . S
H682 C624 0.930 . S
H683 C625 0.930 . S
H684 C627 0.930 . S
H685 C629 0.929 . S
H686 C630 0.930 . S
H687 C631 0.930 . S
H688 C634 0.930 . S
H689 C637 0.929 . S
H690 C642 0.929 . S
H691 C643 0.930 . S
H692 C650 0.929 . S
H693 C651 0.930 . S
H694 C652 0.930 . S
H695 C653 0.930 . S
H696 C655 0.929 . S
H697 C656 0.930 . S
H698 C657 0.930 . S
H699 C658 0.930 . S
H700 C662 0.929 . S
H701 C664 0.930 . S
H702 C670 0.929 . S
H703 C671 0.930 . S
H704 C712 0.929 . S
H705 C714 0.930 . S
H706 C716 0.930 . S
H707 C719 0.929 . S
H708 C722 0.930 . S
H709 C724 0.960 . S
H710 C724 0.960 . S
H711 C724 0.960 . S
C712 H704 0.929 . S
C712 C713 1.377 . S
C712 C714 1.384 . S
C713 C712 1.377 . S
C713 C719 1.390 . S
C714 H705 0.930 . S
C714 C712 1.384 . S
C714 C715 1.372 . S
C715 C714 1.372 . S
C715 C716 1.400 . S
C715 C720 1.490 . S
C716 H706 0.930 . S
C716 C715 1.400 . S
C716 C719 1.386 . S
H717 C733 0.930 . S
H718 C734 0.931 . S
C719 H707 0.929 . S
C719 C713 1.390 . S
C719 C716 1.386 . S
C720 C715 1.490 . S
C720 C722 1.395 . S
C720 C723 1.403 . S
H721 C727 0.930 . S
C722 H708 0.930 . S
C722 C720 1.395 . S
C722 C725 1.403 . S
C723 C720 1.403 . S
C723 C724 1.524 . S
C723 C727 1.400 . S
C724 H709 0.960 . S
C724 H710 0.960 . S
C724 H711 0.960 . S
C724 C723 1.524 . S
C725 C722 1.403 . S
C725 C726 1.392 . S
C725 C729 1.495 . S
C726 C725 1.392 . S
C726 C727 1.385 . S
C726 C728 1.478 . S
C727 H721 0.930 . S
C727 C723 1.400 . S
C727 C726 1.385 . S
C728 C726 1.478 . S
C728 C730 1.381 . S
C728 C734 1.383 . S
C729 C725 1.495 . S
C729 H735 0.959 . S
C729 H736 0.961 . S
C729 H737 0.960 . S
C730 C728 1.381 . S
C730 C731 1.394 . S
C730 H738 0.930 . S
C731 C730 1.394 . S
C731 C732 1.383 . S
C731 H739 0.929 . S
C732 C731 1.383 . S
C732 C733 1.377 . S
C733 H717 0.930 . S
C733 C732 1.377 . S
C733 C734 1.379 . S
C734 H718 0.931 . S
C734 C728 1.383 . S
C734 C733 1.379 . S
H735 C729 0.959 . S
H736 C729 0.961 . S
H737 C729 0.960 . S
H738 C730 0.930 . S
H739 C731 0.929 . S
H740 C748 0.929 . S
H741 C750 0.930 . S
H742 C752 0.930 . S
H743 C755 0.929 . S
H744 C758 0.930 . S
H745 C760 0.960 . S
H746 C760 0.960 . S
H747 C760 0.960 . S
C748 H740 0.929 . S
C748 C749 1.377 . S
C748 C750 1.384 . S
C749 C748 1.377 . S
C749 C755 1.390 . S
C750 H741 0.930 . S
C750 C748 1.384 . S
C750 C751 1.372 . S
C751 C750 1.372 . S
C751 C752 1.400 . S
C751 C756 1.490 . S
C752 H742 0.930 . S
C752 C751 1.400 . S
C752 C755 1.386 . S
H753 C769 0.930 . S
H754 C770 0.931 . S
C755 H743 0.929 . S
C755 C749 1.390 . S
C755 C752 1.386 . S
C756 C751 1.490 . S
C756 C758 1.395 . S
C756 C759 1.403 . S
H757 C763 0.930 . S
C758 H744 0.930 . S
C758 C756 1.395 . S
C758 C761 1.403 . S
C759 C756 1.403 . S
C759 C760 1.524 . S
C759 C763 1.400 . S
C760 H745 0.960 . S
C760 H746 0.960 . S
C760 H747 0.960 . S
C760 C759 1.524 . S
C761 C758 1.403 . S
C761 C762 1.392 . S
C761 C765 1.495 . S
C762 C761 1.392 . S
C762 C763 1.385 . S
C762 C764 1.478 . S
C763 H757 0.930 . S
C763 C759 1.400 . S
C763 C762 1.385 . S
C764 C762 1.478 . S
C764 C766 1.381 . S
C764 C770 1.383 . S
C765 C761 1.495 . S
C765 H771 0.959 . S
C765 H772 0.961 . S
C765 H773 0.960 . S
C766 C764 1.381 . S
C766 C767 1.394 . S
C766 H774 0.930 . S
C767 C766 1.394 . S
C767 C768 1.383 . S
C767 H775 0.929 . S
C768 C767 1.383 . S
C768 C769 1.377 . S
C769 H753 0.930 . S
C769 C768 1.377 . S
C769 C770 1.379 . S
C770 H754 0.931 . S
C770 C764 1.383 . S
C770 C769 1.379 . S
H771 C765 0.959 . S
H772 C765 0.961 . S
H773 C765 0.960 . S
H774 C766 0.930 . S
H775 C767 0.929 . S
H776 C784 0.929 . S
H777 C786 0.930 . S
H778 C788 0.930 . S
H779 C791 0.929 . S
H780 C794 0.930 . S
H781 C796 0.960 . S
H782 C796 0.960 . S
H783 C796 0.960 . S
C784 H776 0.929 . S
C784 C785 1.377 . S
C784 C786 1.384 . S
C785 C784 1.377 . S
C785 C791 1.390 . S
C786 H777 0.930 . S
C786 C784 1.384 . S
C786 C787 1.372 . S
C787 C786 1.372 . S
C787 C788 1.400 . S
C787 C792 1.490 . S
C788 H778 0.930 . S
C788 C787 1.400 . S
C788 C791 1.386 . S
H789 C805 0.930 . S
H790 C806 0.931 . S
C791 H779 0.929 . S
C791 C785 1.390 . S
C791 C788 1.386 . S
C792 C787 1.490 . S
C792 C794 1.395 1_545 S
C792 C795 1.403 . S
H793 C799 0.930 . S
C794 H780 0.930 . S
C794 C792 1.395 1_565 S
C794 C797 1.403 1_554 S
C795 C792 1.403 . S
C795 C796 1.524 . S
C795 C799 1.400 1_554 S
C796 H781 0.960 . S
C796 H782 0.960 . S
C796 H783 0.960 . S
C796 C795 1.524 . S
C797 C794 1.403 1_556 S
C797 C798 1.392 . S
C797 C801 1.495 . S
C798 C797 1.392 . S
C798 C799 1.385 1_565 S
C798 C800 1.478 . S
C799 H793 0.930 . S
C799 C795 1.400 1_556 S
C799 C798 1.385 1_545 S
C800 C798 1.478 . S
C800 C802 1.381 . S
C800 C806 1.383 . S
C801 C797 1.495 . S
C801 H807 0.959 . S
C801 H808 0.961 . S
C801 H809 0.960 . S
C802 C800 1.381 . S
C802 C803 1.394 . S
C802 H810 0.930 . S
C803 C802 1.394 . S
C803 C804 1.383 . S
C803 H811 0.929 . S
C804 C803 1.383 . S
C804 C805 1.377 . S
C805 H789 0.930 . S
C805 C804 1.377 . S
C805 C806 1.379 . S
C806 H790 0.931 . S
C806 C800 1.383 . S
C806 C805 1.379 . S
H807 C801 0.959 . S
H808 C801 0.961 . S
H809 C801 0.960 . S
H810 C802 0.930 . S
H811 C803 0.929 . S
H812 C820 0.929 . S
H813 C822 0.930 . S
H814 C824 0.930 . S
H815 C827 0.929 . S
H816 C830 0.930 . S
H817 C832 0.960 . S
H818 C832 0.960 . S
H819 C832 0.960 . S
C820 H812 0.929 . S
C820 C821 1.377 . S
C820 C822 1.384 . S
C821 C820 1.377 . S
C821 C827 1.390 . S
C822 H813 0.930 . S
C822 C820 1.384 . S
C822 C823 1.372 . S
C823 C822 1.372 . S
C823 C824 1.400 . S
C823 C828 1.490 . S
C824 H814 0.930 . S
C824 C823 1.400 . S
C824 C827 1.386 . S
H825 C841 0.930 . S
H826 C842 0.931 . S
C827 H815 0.929 . S
C827 C821 1.390 . S
C827 C824 1.386 . S
C828 C823 1.490 . S
C828 C830 1.395 . S
C828 C831 1.403 1_655 S
H829 C835 0.930 . S
C830 H816 0.930 . S
C830 C828 1.395 . S
C830 C833 1.403 . S
C831 C828 1.403 1_455 S
C831 C832 1.524 . S
C831 C835 1.400 . S
C832 H817 0.960 . S
C832 H818 0.960 . S
C832 H819 0.960 . S
C832 C831 1.524 . S
C833 C830 1.403 . S
C833 C834 1.392 1_655 S
C833 C837 1.495 . S
C834 C833 1.392 1_455 S
C834 C835 1.385 . S
C834 C836 1.478 . S
C835 H829 0.930 . S
C835 C831 1.400 . S
C835 C834 1.385 . S
C836 C834 1.478 . S
C836 C838 1.381 . S
C836 C842 1.383 . S
C837 C833 1.495 . S
C837 H843 0.959 . S
C837 H844 0.961 . S
C837 H845 0.960 . S
C838 C836 1.381 . S
C838 C839 1.394 . S
C838 H846 0.930 . S
C839 C838 1.394 . S
C839 C840 1.383 . S
C839 H847 0.929 . S
C840 C839 1.383 . S
C840 C841 1.377 . S
C841 H825 0.930 . S
C841 C840 1.377 . S
C841 C842 1.379 . S
C842 H826 0.931 . S
C842 C836 1.383 . S
C842 C841 1.379 . S
H843 C837 0.959 . S
H844 C837 0.961 . S
H845 C837 0.960 . S
H846 C838 0.930 . S
H847 C839 0.929 . S
H848 C856 0.929 . S
H849 C858 0.930 . S
H850 C860 0.930 . S
H851 C863 0.929 . S
H852 C866 0.930 . S
H853 C868 0.960 . S
H854 C868 0.960 . S
H855 C868 0.960 . S
C856 H848 0.929 . S
C856 C857 1.377 . S
C856 C858 1.384 . S
C857 C856 1.377 . S
C857 C863 1.390 . S
C858 H849 0.930 . S
C858 C856 1.384 . S
C858 C859 1.372 . S
C859 C858 1.372 . S
C859 C860 1.400 . S
C859 C864 1.490 . S
C860 H850 0.930 . S
C860 C859 1.400 . S
C860 C863 1.386 . S
H861 C877 0.930 . S
H862 C878 0.931 . S
C863 H851 0.929 . S
C863 C857 1.390 . S
C863 C860 1.386 . S
C864 C859 1.490 . S
C864 C866 1.395 . S
C864 C867 1.403 1_565 S
H865 C871 0.930 . S
C866 H852 0.930 . S
C866 C864 1.395 . S
C866 C869 1.403 . S
C867 C864 1.403 1_545 S
C867 C868 1.524 . S
C867 C871 1.400 . S
C868 H853 0.960 . S
C868 H854 0.960 . S
C868 H855 0.960 . S
C868 C867 1.524 . S
C869 C866 1.403 . S
C869 C870 1.392 1_565 S
C869 C873 1.495 . S
C870 C869 1.392 1_545 S
C870 C871 1.385 . S
C870 C872 1.478 . S
C871 H865 0.930 . S
C871 C867 1.400 . S
C871 C870 1.385 . S
C872 C870 1.478 . S
C872 C874 1.381 . S
C872 C878 1.383 . S
C873 C869 1.495 . S
C873 H879 0.959 . S
C873 H880 0.961 . S
C873 H881 0.960 . S
C874 C872 1.381 . S
C874 C875 1.394 . S
C874 H882 0.930 . S
C875 C874 1.394 . S
C875 C876 1.383 . S
C875 H883 0.929 . S
C876 C875 1.383 . S
C876 C877 1.377 . S
C877 H861 0.930 . S
C877 C876 1.377 . S
C877 C878 1.379 . S
C878 H862 0.931 . S
C878 C872 1.383 . S
C878 C877 1.379 . S
H879 C873 0.959 . S
H880 C873 0.961 . S
H881 C873 0.960 . S
H882 C874 0.930 . S
H883 C875 0.929 . S
H884 C892 0.929 . S
H885 C894 0.930 . S
H886 C896 0.930 . S
H887 C899 0.929 . S
H888 C902 0.930 . S
H889 C904 0.960 . S
H890 C904 0.960 . S
H891 C904 0.960 . S
C892 H884 0.929 . S
C892 C893 1.377 . S
C892 C894 1.384 . S
C893 C892 1.377 . S
C893 C899 1.390 . S
C894 H885 0.930 . S
C894 C892 1.384 . S
C894 C895 1.372 . S
C895 C894 1.372 . S
C895 C896 1.400 . S
C895 C900 1.490 . S
C896 H886 0.930 . S
C896 C895 1.400 . S
C896 C899 1.386 . S
H897 C913 0.930 . S
H898 C914 0.931 . S
C899 H887 0.929 . S
C899 C893 1.390 . S
C899 C896 1.386 . S
C900 C895 1.490 . S
C900 C902 1.395 1_556 S
C900 C903 1.403 1_655 S
H901 C907 0.930 . S
C902 H888 0.930 . S
C902 C900 1.395 1_554 S
C902 C905 1.403 . S
C903 C900 1.403 1_455 S
C903 C904 1.524 . S
C903 C907 1.400 . S
C904 H889 0.960 . S
C904 H890 0.960 . S
C904 H891 0.960 . S
C904 C903 1.524 . S
C905 C902 1.403 . S
C905 C906 1.392 1_655 S
C905 C909 1.495 . S
C906 C905 1.392 1_455 S
C906 C907 1.385 1_554 S
C906 C908 1.478 . S
C907 H901 0.930 . S
C907 C903 1.400 . S
C907 C906 1.385 1_556 S
C908 C906 1.478 . S
C908 C910 1.381 . S
C908 C914 1.383 . S
C909 C905 1.495 . S
C909 H915 0.959 . S
C909 H916 0.961 . S
C909 H917 0.960 . S
C910 C908 1.381 . S
C910 C911 1.394 . S
C910 H918 0.930 . S
C911 C910 1.394 . S
C911 C912 1.383 . S
C911 H919 0.929 . S
C912 C911 1.383 . S
C912 C913 1.377 . S
C913 H897 0.930 . S
C913 C912 1.377 . S
C913 C914 1.379 . S
C914 H898 0.931 . S
C914 C908 1.383 . S
C914 C913 1.379 . S
H915 C909 0.959 . S
H916 C909 0.961 . S
H917 C909 0.960 . S
H918 C910 0.930 . S
H919 C911 0.929 . S
H920 C928 0.929 . S
H921 C930 0.930 . S
H922 C932 0.930 . S
H923 C935 0.929 . S
H924 C938 0.930 . S
H925 C940 0.960 . S
H926 C940 0.960 . S
H927 C940 0.960 . S
C928 H920 0.929 . S
C928 C929 1.377 . S
C928 C930 1.384 . S
C929 C928 1.377 . S
C929 C935 1.390 . S
C930 H921 0.930 . S
C930 C928 1.384 . S
C930 C931 1.372 . S
C931 C930 1.372 . S
C931 C932 1.400 . S
C931 C936 1.490 . S
C932 H922 0.930 . S
C932 C931 1.400 . S
C932 C935 1.386 . S
H933 C949 0.930 . S
H934 C950 0.931 . S
C935 H923 0.929 . S
C935 C929 1.390 . S
C935 C932 1.386 . S
C936 C931 1.490 . S
C936 C938 1.395 . S
C936 C939 1.403 . S
H937 C943 0.930 . S
C938 H924 0.930 . S
C938 C936 1.395 . S
C938 C941 1.403 . S
C939 C936 1.403 . S
C939 C940 1.524 . S
C939 C943 1.400 . S
C940 H925 0.960 . S
C940 H926 0.960 . S
C940 H927 0.960 . S
C940 C939 1.524 . S
C941 C938 1.403 . S
C941 C942 1.392 . S
C941 C945 1.495 . S
C942 C941 1.392 . S
C942 C943 1.385 . S
C942 C944 1.478 . S
C943 H937 0.930 . S
C943 C939 1.400 . S
C943 C942 1.385 . S
C944 C942 1.478 . S
C944 C946 1.381 . S
C944 C950 1.383 . S
C945 C941 1.495 . S
C945 H951 0.959 . S
C945 H952 0.961 . S
C945 H953 0.960 . S
C946 C944 1.381 . S
C946 C947 1.394 . S
C946 H954 0.930 . S
C947 C946 1.394 . S
C947 C948 1.383 . S
C947 H955 0.929 . S
C948 C947 1.383 . S
C948 C949 1.377 . S
C949 H933 0.930 . S
C949 C948 1.377 . S
C949 C950 1.379 . S
C950 H934 0.931 . S
C950 C944 1.383 . S
C950 C949 1.379 . S
H951 C945 0.959 . S
H952 C945 0.961 . S
H953 C945 0.960 . S
H954 C946 0.930 . S
H955 C947 0.929 . S
H956 C964 0.929 . S
H957 C966 0.930 . S
H958 C968 0.930 . S
H959 C971 0.929 . S
H960 C974 0.930 . S
H961 C976 0.960 . S
H962 C976 0.960 . S
H963 C976 0.960 . S
C964 H956 0.929 . S
C964 C965 1.377 . S
C964 C966 1.384 . S
C965 C964 1.377 . S
C965 C971 1.390 . S
C966 H957 0.930 . S
C966 C964 1.384 . S
C966 C967 1.372 . S
C967 C966 1.372 . S
C967 C968 1.400 . S
C967 C972 1.490 . S
C968 H958 0.930 . S
C968 C967 1.400 . S
C968 C971 1.386 . S
H969 C985 0.930 . S
H970 C986 0.931 . S
C971 H959 0.929 . S
C971 C965 1.390 . S
C971 C968 1.386 . S
C972 C967 1.490 . S
C972 C974 1.395 . S
C972 C975 1.403 . S
H973 C979 0.930 . S
C974 H960 0.930 . S
C974 C972 1.395 . S
C974 C977 1.403 . S
C975 C972 1.403 . S
C975 C976 1.524 . S
C975 C979 1.400 . S
C976 H961 0.960 . S
C976 H962 0.960 . S
C976 H963 0.960 . S
C976 C975 1.524 . S
C977 C974 1.403 . S
C977 C978 1.392 . S
C977 C981 1.495 . S
C978 C977 1.392 . S
C978 C979 1.385 . S
C978 C980 1.478 . S
C979 H973 0.930 . S
C979 C975 1.400 . S
C979 C978 1.385 . S
C980 C978 1.478 . S
C980 C982 1.381 . S
C980 C986 1.383 . S
C981 C977 1.495 . S
C981 H987 0.959 . S
C981 H988 0.961 . S
C981 H989 0.960 . S
C982 C980 1.381 . S
C982 C983 1.394 . S
C982 H990 0.930 . S
C983 C982 1.394 . S
C983 C984 1.383 . S
C983 H991 0.929 . S
C984 C983 1.383 . S
C984 C985 1.377 . S
C985 H969 0.930 . S
C985 C984 1.377 . S
C985 C986 1.379 . S
C986 H970 0.931 . S
C986 C980 1.383 . S
C986 C985 1.379 . S
H987 C981 0.959 . S
H988 C981 0.961 . S
H989 C981 0.960 . S
H990 C982 0.930 . S
H991 C983 0.929 . S
H992 C1000 0.929 . S
H993 C1002 0.930 . S
H994 C1004 0.930 . S
H995 C1007 0.929 . S
H996 C1010 0.930 . S
H997 C1012 0.960 . S
H998 C1012 0.960 . S
H999 C1012 0.960 . S
C1000 H992 0.929 . S
C1000 C1001 1.377 . S
C1000 C1002 1.384 . S
C1001 C1000 1.377 . S
C1001 C1007 1.390 . S
C1002 H993 0.930 . S
C1002 C1000 1.384 . S
C1002 C1003 1.372 . S
C1003 C1002 1.372 . S
C1003 C1004 1.400 . S
C1003 C1008 1.490 . S
C1004 H994 0.930 . S
C1004 C1003 1.400 . S
C1004 C1007 1.386 . S
H1005 C1021 0.930 . S
H1006 C1022 0.931 . S
C1007 H995 0.929 . S
C1007 C1001 1.390 . S
C1007 C1004 1.386 . S
C1008 C1003 1.490 . S
C1008 C1010 1.395 . S
C1008 C1011 1.403 . S
H1009 C1015 0.930 . S
C1010 H996 0.930 . S
C1010 C1008 1.395 . S
C1010 C1013 1.403 . S
C1011 C1008 1.403 . S
C1011 C1012 1.524 . S
C1011 C1015 1.400 . S
C1012 H997 0.960 . S
C1012 H998 0.960 . S
C1012 H999 0.960 . S
C1012 C1011 1.524 . S
C1013 C1010 1.403 . S
C1013 C1014 1.392 . S
C1013 C1017 1.495 . S
C1014 C1013 1.392 . S
C1014 C1015 1.385 . S
C1014 C1016 1.478 . S
C1015 H1009 0.930 . S
C1015 C1011 1.400 . S
C1015 C1014 1.385 . S
C1016 C1014 1.478 . S
C1016 C1018 1.381 . S
C1016 C1022 1.383 . S
C1017 C1013 1.495 . S
C1017 H1023 0.959 . S
C1017 H1024 0.961 . S
C1017 H1025 0.960 . S
C1018 C1016 1.381 . S
C1018 C1019 1.394 . S
C1018 H1026 0.930 . S
C1019 C1018 1.394 . S
C1019 C1020 1.383 . S
C1019 H1027 0.929 . S
C1020 C1019 1.383 . S
C1020 C1021 1.377 . S
C1021 H1005 0.930 . S
C1021 C1020 1.377 . S
C1021 C1022 1.379 . S
C1022 H1006 0.931 . S
C1022 C1016 1.383 . S
C1022 C1021 1.379 . S
H1023 C1017 0.959 . S
H1024 C1017 0.961 . S
H1025 C1017 0.960 . S
H1026 C1018 0.930 . S
H1027 C1019 0.929 . S
H1028 C1036 0.929 . S
H1029 C1038 0.930 . S
H1030 C1040 0.930 . S
H1031 C1043 0.929 . S
H1032 C1046 0.930 . S
H1033 C1048 0.960 . S
H1034 C1048 0.960 . S
H1035 C1048 0.960 . S
C1036 H1028 0.929 . S
C1036 C1037 1.377 . S
C1036 C1038 1.384 . S
C1037 C1036 1.377 . S
C1037 C1043 1.390 . S
C1038 H1029 0.930 . S
C1038 C1036 1.384 . S
C1038 C1039 1.372 . S
C1039 C1038 1.372 . S
C1039 C1040 1.400 . S
C1039 C1044 1.490 . S
C1040 H1030 0.930 . S
C1040 C1039 1.400 . S
C1040 C1043 1.386 . S
H1041 C1057 0.930 . S
H1042 C1058 0.931 . S
C1043 H1031 0.929 . S
C1043 C1037 1.390 . S
C1043 C1040 1.386 . S
C1044 C1039 1.490 . S
C1044 C1046 1.395 . S
C1044 C1047 1.403 1_556 S
H1045 C1051 0.930 . S
C1046 H1032 0.930 . S
C1046 C1044 1.395 . S
C1046 C1049 1.403 . S
C1047 C1044 1.403 1_554 S
C1047 C1048 1.524 . S
C1047 C1051 1.400 . S
C1048 H1033 0.960 . S
C1048 H1034 0.960 . S
C1048 H1035 0.960 . S
C1048 C1047 1.524 . S
C1049 C1046 1.403 . S
C1049 C1050 1.392 1_556 S
C1049 C1053 1.495 . S
C1050 C1049 1.392 1_554 S
C1050 C1051 1.385 . S
C1050 C1052 1.478 . S
C1051 H1045 0.930 . S
C1051 C1047 1.400 . S
C1051 C1050 1.385 . S
C1052 C1050 1.478 . S
C1052 C1054 1.381 . S
C1052 C1058 1.383 . S
C1053 C1049 1.495 . S
C1053 H1059 0.959 . S
C1053 H1060 0.961 . S
C1053 H1061 0.960 . S
C1054 C1052 1.381 . S
C1054 C1055 1.394 . S
C1054 H1062 0.930 . S
C1055 C1054 1.394 . S
C1055 C1056 1.383 . S
C1055 H1063 0.929 . S
C1056 C1055 1.383 . S
C1056 C1057 1.377 . S
C1057 H1041 0.930 . S
C1057 C1056 1.377 . S
C1057 C1058 1.379 . S
C1058 H1042 0.931 . S
C1058 C1052 1.383 . S
C1058 C1057 1.379 . S
H1059 C1053 0.959 . S
H1060 C1053 0.961 . S
H1061 C1053 0.960 . S
H1062 C1054 0.930 . S
H1063 C1055 0.929 . S
H1064 C1072 0.929 . S
H1065 C1074 0.930 . S
H1066 C1076 0.930 . S
H1067 C1079 0.929 . S
H1068 C1082 0.930 . S
H1069 C1084 0.960 . S
H1070 C1084 0.960 . S
H1071 C1084 0.960 . S
C1072 H1064 0.929 . S
C1072 C1073 1.377 . S
C1072 C1074 1.384 . S
C1073 C1072 1.377 . S
C1073 C1079 1.390 . S
C1074 H1065 0.930 . S
C1074 C1072 1.384 . S
C1074 C1075 1.372 . S
C1075 C1074 1.372 . S
C1075 C1076 1.400 . S
C1075 C1080 1.490 . S
C1076 H1066 0.930 . S
C1076 C1075 1.400 . S
C1076 C1079 1.386 . S
H1077 C1093 0.930 . S
H1078 C1094 0.931 . S
C1079 H1067 0.929 . S
C1079 C1073 1.390 . S
C1079 C1076 1.386 . S
C1080 C1075 1.490 . S
C1080 C1082 1.395 . S
C1080 C1083 1.403 1_565 S
H1081 C1087 0.930 . S
C1082 H1068 0.930 . S
C1082 C1080 1.395 . S
C1082 C1085 1.403 . S
C1083 C1080 1.403 1_545 S
C1083 C1084 1.524 . S
C1083 C1087 1.400 . S
C1084 H1069 0.960 . S
C1084 H1070 0.960 . S
C1084 H1071 0.960 . S
C1084 C1083 1.524 . S
C1085 C1082 1.403 . S
C1085 C1086 1.392 1_565 S
C1085 C1089 1.495 . S
C1086 C1085 1.392 1_545 S
C1086 C1087 1.385 . S
C1086 C1088 1.478 . S
C1087 H1081 0.930 . S
C1087 C1083 1.400 . S
C1087 C1086 1.385 . S
C1088 C1086 1.478 . S
C1088 C1090 1.381 . S
C1088 C1094 1.383 . S
C1089 C1085 1.495 . S
C1089 H1095 0.959 . S
C1089 H1096 0.961 . S
C1089 H1097 0.960 . S
C1090 C1088 1.381 . S
C1090 C1091 1.394 . S
C1090 H1098 0.930 . S
C1091 C1090 1.394 . S
C1091 C1092 1.383 . S
C1091 H1099 0.929 . S
C1092 C1091 1.383 . S
C1092 C1093 1.377 . S
C1093 H1077 0.930 . S
C1093 C1092 1.377 . S
C1093 C1094 1.379 . S
C1094 H1078 0.931 . S
C1094 C1088 1.383 . S
C1094 C1093 1.379 . S
H1095 C1089 0.959 . S
H1096 C1089 0.961 . S
H1097 C1089 0.960 . S
H1098 C1090 0.930 . S
H1099 C1091 0.929 . S
H1100 C1108 0.929 . S
H1101 C1110 0.930 . S
H1102 C1112 0.930 . S
H1103 C1115 0.929 . S
H1104 C1118 0.930 . S
H1105 C1120 0.960 . S
H1106 C1120 0.960 . S
H1107 C1120 0.960 . S
C1108 H1100 0.929 . S
C1108 C1109 1.377 . S
C1108 C1110 1.384 . S
C1109 C1108 1.377 . S
C1109 C1115 1.390 . S
C1110 H1101 0.930 . S
C1110 C1108 1.384 . S
C1110 C1111 1.372 . S
C1111 C1110 1.372 . S
C1111 C1112 1.400 . S
C1111 C1116 1.490 . S
C1112 H1102 0.930 . S
C1112 C1111 1.400 . S
C1112 C1115 1.386 . S
H1113 C1129 0.930 . S
H1114 C1130 0.931 . S
C1115 H1103 0.929 . S
C1115 C1109 1.390 . S
C1115 C1112 1.386 . S
C1116 C1111 1.490 . S
C1116 C1118 1.395 . S
C1116 C1119 1.403 1_655 S
H1117 C1123 0.930 . S
C1118 H1104 0.930 . S
C1118 C1116 1.395 . S
C1118 C1121 1.403 1_565 S
C1119 C1116 1.403 1_455 S
C1119 C1120 1.524 . S
C1119 C1123 1.400 1_565 S
C1120 H1105 0.960 . S
C1120 H1106 0.960 . S
C1120 H1107 0.960 . S
C1120 C1119 1.524 . S
C1121 C1118 1.403 1_545 S
C1121 C1122 1.392 1_655 S
C1121 C1125 1.495 . S
C1122 C1121 1.392 1_455 S
C1122 C1123 1.385 . S
C1122 C1124 1.478 . S
C1123 H1117 0.930 . S
C1123 C1119 1.400 1_545 S
C1123 C1122 1.385 . S
C1124 C1122 1.478 . S
C1124 C1126 1.381 . S
C1124 C1130 1.383 . S
C1125 C1121 1.495 . S
C1125 H1131 0.959 . S
C1125 H1132 0.961 . S
C1125 H1133 0.960 . S
C1126 C1124 1.381 . S
C1126 C1127 1.394 . S
C1126 H1134 0.930 . S
C1127 C1126 1.394 . S
C1127 C1128 1.383 . S
C1127 H1135 0.929 . S
C1128 C1127 1.383 . S
C1128 C1129 1.377 . S
C1129 H1113 0.930 . S
C1129 C1128 1.377 . S
C1129 C1130 1.379 . S
C1130 H1114 0.931 . S
C1130 C1124 1.383 . S
C1130 C1129 1.379 . S
H1131 C1125 0.959 . S
H1132 C1125 0.961 . S
H1133 C1125 0.960 . S
H1134 C1126 0.930 . S
H1135 C1127 0.929 . S
H1136 C1144 0.929 . S
H1137 C1146 0.930 . S
H1138 C1148 0.930 . S
H1139 C1151 0.929 . S
H1140 C1154 0.930 . S
H1141 C1156 0.960 . S
H1142 C1156 0.960 . S
H1143 C1156 0.960 . S
C1144 H1136 0.929 . S
C1144 C1145 1.377 . S
C1144 C1146 1.384 . S
C1145 C1144 1.377 . S
C1145 C1151 1.390 . S
C1146 H1137 0.930 . S
C1146 C1144 1.384 . S
C1146 C1147 1.372 . S
C1147 C1146 1.372 . S
C1147 C1148 1.400 . S
C1147 C1152 1.490 . S
C1148 H1138 0.930 . S
C1148 C1147 1.400 . S
C1148 C1151 1.386 . S
H1149 C1165 0.930 . S
H1150 C1166 0.931 . S
C1151 H1139 0.929 . S
C1151 C1145 1.390 . S
C1151 C1148 1.386 . S
C1152 C1147 1.490 . S
C1152 C1154 1.395 1_655 S
C1152 C1155 1.403 . S
H1153 C1159 0.930 . S
C1154 H1140 0.930 . S
C1154 C1152 1.395 1_455 S
C1154 C1157 1.403 . S
C1155 C1152 1.403 . S
C1155 C1156 1.524 . S
C1155 C1159 1.400 . S
C1156 H1141 0.960 . S
C1156 H1142 0.960 . S
C1156 H1143 0.960 . S
C1156 C1155 1.524 . S
C1157 C1154 1.403 . S
C1157 C1158 1.392 . S
C1157 C1161 1.495 . S
C1158 C1157 1.392 . S
C1158 C1159 1.385 1_455 S
C1158 C1160 1.478 . S
C1159 H1153 0.930 . S
C1159 C1155 1.400 . S
C1159 C1158 1.385 1_655 S
C1160 C1158 1.478 . S
C1160 C1162 1.381 . S
C1160 C1166 1.383 . S
C1161 C1157 1.495 . S
C1161 H1167 0.959 . S
C1161 H1168 0.961 . S
C1161 H1169 0.960 . S
C1162 C1160 1.381 . S
C1162 C1163 1.394 . S
C1162 H1170 0.930 . S
C1163 C1162 1.394 . S
C1163 C1164 1.383 . S
C1163 H1171 0.929 . S
C1164 C1163 1.383 . S
C1164 C1165 1.377 . S
C1165 H1149 0.930 . S
C1165 C1164 1.377 . S
C1165 C1166 1.379 . S
C1166 H1150 0.931 . S
C1166 C1160 1.383 . S
C1166 C1165 1.379 . S
H1167 C1161 0.959 . S
H1168 C1161 0.961 . S
H1169 C1161 0.960 . S
H1170 C1162 0.930 . S
H1171 C1163 0.929 . S
H1172 C1180 0.929 . S
H1173 C1182 0.930 . S
H1174 C1184 0.930 . S
H1175 C1187 0.929 . S
H1176 C1190 0.930 . S
H1177 C1192 0.960 . S
H1178 C1192 0.960 . S
H1179 C1192 0.960 . S
C1180 H1172 0.929 . S
C1180 C1181 1.377 . S
C1180 C1182 1.384 . S
C1181 C1180 1.377 . S
C1181 C1187 1.390 . S
C1182 H1173 0.930 . S
C1182 C1180 1.384 . S
C1182 C1183 1.372 . S
C1183 C1182 1.372 . S
C1183 C1184 1.400 . S
C1183 C1188 1.490 . S
C1184 H1174 0.930 . S
C1184 C1183 1.400 . S
C1184 C1187 1.386 . S
H1185 C1201 0.930 . S
H1186 C1202 0.931 . S
C1187 H1175 0.929 . S
C1187 C1181 1.390 . S
C1187 C1184 1.386 . S
C1188 C1183 1.490 . S
C1188 C1190 1.395 . S
C1188 C1191 1.403 . S
H1189 C1195 0.930 . S
C1190 H1176 0.930 . S
C1190 C1188 1.395 . S
C1190 C1193 1.403 . S
C1191 C1188 1.403 . S
C1191 C1192 1.524 . S
C1191 C1195 1.400 . S
C1192 H1177 0.960 . S
C1192 H1178 0.960 . S
C1192 H1179 0.960 . S
C1192 C1191 1.524 . S
C1193 C1190 1.403 . S
C1193 C1194 1.392 . S
C1193 C1197 1.495 . S
C1194 C1193 1.392 . S
C1194 C1195 1.385 . S
C1194 C1196 1.478 . S
C1195 H1189 0.930 . S
C1195 C1191 1.400 . S
C1195 C1194 1.385 . S
C1196 C1194 1.478 . S
C1196 C1198 1.381 . S
C1196 C1202 1.383 . S
C1197 C1193 1.495 . S
C1197 H1203 0.959 . S
C1197 H1204 0.961 . S
C1197 H1205 0.960 . S
C1198 C1196 1.381 . S
C1198 C1199 1.394 . S
C1198 H1206 0.930 . S
C1199 C1198 1.394 . S
C1199 C1200 1.383 . S
C1199 H1207 0.929 . S
C1200 C1199 1.383 . S
C1200 C1201 1.377 . S
C1201 H1185 0.930 . S
C1201 C1200 1.377 . S
C1201 C1202 1.379 . S
C1202 H1186 0.931 . S
C1202 C1196 1.383 . S
C1202 C1201 1.379 . S
H1203 C1197 0.959 . S
H1204 C1197 0.961 . S
H1205 C1197 0.960 . S
H1206 C1198 0.930 . S
H1207 C1199 0.929 . S
H1208 C1216 0.929 . S
H1209 C1218 0.930 . S
H1210 C1220 0.930 . S
H1211 C1223 0.929 . S
H1212 C1226 0.930 . S
H1213 C1228 0.960 . S
H1214 C1228 0.960 . S
H1215 C1228 0.960 . S
C1216 H1208 0.929 . S
C1216 C1217 1.377 . S
C1216 C1218 1.384 . S
C1217 C1216 1.377 . S
C1217 C1223 1.390 . S
C1218 H1209 0.930 . S
C1218 C1216 1.384 . S
C1218 C1219 1.372 . S
C1219 C1218 1.372 . S
C1219 C1220 1.400 . S
C1219 C1224 1.490 . S
C1220 H1210 0.930 . S
C1220 C1219 1.400 . S
C1220 C1223 1.386 . S
H1221 C1237 0.930 . S
H1222 C1238 0.931 . S
C1223 H1211 0.929 . S
C1223 C1217 1.390 . S
C1223 C1220 1.386 . S
C1224 C1219 1.490 . S
C1224 C1226 1.395 . S
C1224 C1227 1.403 1_554 S
H1225 C1231 0.930 . S
C1226 H1212 0.930 . S
C1226 C1224 1.395 . S
C1226 C1229 1.403 . S
C1227 C1224 1.403 1_556 S
C1227 C1228 1.524 . S
C1227 C1231 1.400 . S
C1228 H1213 0.960 . S
C1228 H1214 0.960 . S
C1228 H1215 0.960 . S
C1228 C1227 1.524 . S
C1229 C1226 1.403 . S
C1229 C1230 1.392 1_554 S
C1229 C1233 1.495 . S
C1230 C1229 1.392 1_556 S
C1230 C1231 1.385 . S
C1230 C1232 1.478 . S
C1231 H1225 0.930 . S
C1231 C1227 1.400 . S
C1231 C1230 1.385 . S
C1232 C1230 1.478 . S
C1232 C1234 1.381 . S
C1232 C1238 1.383 . S
C1233 C1229 1.495 . S
C1233 H1239 0.959 . S
C1233 H1240 0.961 . S
C1233 H1241 0.960 . S
C1234 C1232 1.381 . S
C1234 C1235 1.394 . S
C1234 H1242 0.930 . S
C1235 C1234 1.394 . S
C1235 C1236 1.383 . S
C1235 H1243 0.929 . S
C1236 C1235 1.383 . S
C1236 C1237 1.377 . S
C1237 H1221 0.930 . S
C1237 C1236 1.377 . S
C1237 C1238 1.379 . S
C1238 H1222 0.931 . S
C1238 C1232 1.383 . S
C1238 C1237 1.379 . S
H1239 C1233 0.959 . S
H1240 C1233 0.961 . S
H1241 C1233 0.960 . S
H1242 C1234 0.930 . S
H1243 C1235 0.929 . S
H1244 C1252 0.929 . S
H1245 C1254 0.930 . S
H1246 C1256 0.930 . S
H1247 C1259 0.929 . S
H1248 C1262 0.930 . S
H1249 C1264 0.960 . S
H1250 C1264 0.960 . S
H1251 C1264 0.960 . S
C1252 H1244 0.929 . S
C1252 C1253 1.377 . S
C1252 C1254 1.384 . S
C1253 C1252 1.377 . S
C1253 C1259 1.390 . S
C1254 H1245 0.930 . S
C1254 C1252 1.384 . S
C1254 C1255 1.372 . S
C1255 C1254 1.372 . S
C1255 C1256 1.400 . S
C1255 C1260 1.490 . S
C1256 H1246 0.930 . S
C1256 C1255 1.400 . S
C1256 C1259 1.386 . S
H1257 C1273 0.930 . S
H1258 C1274 0.931 . S
C1259 H1247 0.929 . S
C1259 C1253 1.390 . S
C1259 C1256 1.386 . S
C1260 C1255 1.490 . S
C1260 C1262 1.395 . S
C1260 C1263 1.403 . S
H1261 C1267 0.930 . S
C1262 H1248 0.930 . S
C1262 C1260 1.395 . S
C1262 C1265 1.403 . S
C1263 C1260 1.403 . S
C1263 C1264 1.524 . S
C1263 C1267 1.400 . S
C1264 H1249 0.960 . S
C1264 H1250 0.960 . S
C1264 H1251 0.960 . S
C1264 C1263 1.524 . S
C1265 C1262 1.403 . S
C1265 C1266 1.392 . S
C1265 C1269 1.495 . S
C1266 C1265 1.392 . S
C1266 C1267 1.385 . S
C1266 C1268 1.478 . S
C1267 H1261 0.930 . S
C1267 C1263 1.400 . S
C1267 C1266 1.385 . S
C1268 C1266 1.478 . S
C1268 C1270 1.381 . S
C1268 C1274 1.383 . S
C1269 C1265 1.495 . S
C1269 H1275 0.959 . S
C1269 H1276 0.961 . S
C1269 H1277 0.960 . S
C1270 C1268 1.381 . S
C1270 C1271 1.394 . S
C1270 H1278 0.930 . S
C1271 C1270 1.394 . S
C1271 C1272 1.383 . S
C1271 H1279 0.929 . S
C1272 C1271 1.383 . S
C1272 C1273 1.377 . S
C1273 H1257 0.930 . S
C1273 C1272 1.377 . S
C1273 C1274 1.379 . S
C1274 H1258 0.931 . S
C1274 C1268 1.383 . S
C1274 C1273 1.379 . S
H1275 C1269 0.959 . S
H1276 C1269 0.961 . S
H1277 C1269 0.960 . S
H1278 C1270 0.930 . S
H1279 C1271 0.929 . S
C713 C497 1.499 . S
C732 C49 1.495 . S
C749 C645 1.500 . S
C768 C108 1.497 . S
C785 C233 1.500 . S
C804 C557 1.497 . S
C821 C321 1.500 . S
C840 C372 1.498 . S
C857 C548 1.499 . S
C876 C29 1.495 . S
C893 C117 1.500 . S
C912 C409 1.497 . S
C929 C489 1.499 . S
C948 C196 1.495 . S
C965 C313 1.499 . S
C984 C665 1.496 . S
C1001 C381 1.500 . S
C1020 C460 1.498 . S
C1037 C145 1.500 . S
C1056 C225 1.498 . S
C1073 C293 1.499 . S
C1092 C205 1.495 . S
C1109 C284 1.500 . S
C1128 C57 1.497 . S
C1145 C137 1.499 . S
C1164 C20 1.495 . S
C1181 C636 1.500 . S
C1200 C577 1.498 . S
C1217 C401 1.499 . S
C1236 C585 1.495 . S
C1253 C469 1.499 . S
C1272 C673 1.495 . S
