# Generated by pormake.
# Topology vbm, (6)-cn, num edge types: 1
# Building blocks:
#     Node 0, Type 0, BuildingBlock: BETFEN_clean_sbu_0, # of connection points: 6
#     Node 1, Type 0, BuildingBlock: BETFEN_clean_sbu_0, # of connection points: 6
#     Node 2, Type 0, BuildingBlock: BETFEN_clean_sbu_0, # of connection points: 6
#     Node 3, Type 0, BuildingBlock: BETFEN_clean_sbu_0, # of connection points: 6
#     Node 4, Type 0, BuildingBlock: BETFEN_clean_sbu_0, # of connection points: 6
#     Node 5, Type 0, BuildingBlock: BETFEN_clean_sbu_0, # of connection points: 6
#     Node 6, Type 0, BuildingBlock: BETFEN_clean_sbu_0, # of connection points: 6
#     Node 7, Type 0, BuildingBlock: BETFEN_clean_sbu_0, # of connection points: 6
#     Node 8, Type 0, BuildingBlock: BETFEN_clean_sbu_0, # of connection points: 6
#     Node 9, Type 0, BuildingBlock: BETFEN_clean_sbu_0, # of connection points: 6
#     Node 10, Type 0, BuildingBlock: BETFEN_clean_sbu_0, # of connection points: 6
#     Node 11, Type 0, BuildingBlock: BETFEN_clean_sbu_0, # of connection points: 6
#     Node 12, Type 0, BuildingBlock: BETFEN_clean_sbu_0, # of connection points: 6
#     Node 13, Type 0, BuildingBlock: BETFEN_clean_sbu_0, # of connection points: 6
#     Node 14, Type 0, BuildingBlock: BETFEN_clean_sbu_0, # of connection points: 6
#     Node 15, Type 0, BuildingBlock: BETFEN_clean_sbu_0, # of connection points: 6
#     Edge 16, Type (0, 0), None
#     Edge 17, Type (0, 0), None
#     Edge 18, Type (0, 0), None
#     Edge 19, Type (0, 0), None
#     Edge 20, Type (0, 0), None
#     Edge 21, Type (0, 0), None
#     Edge 22, Type (0, 0), None
#     Edge 23, Type (0, 0), None
#     Edge 24, Type (0, 0), None
#     Edge 25, Type (0, 0), None
#     Edge 26, Type (0, 0), None
#     Edge 27, Type (0, 0), None
#     Edge 28, Type (0, 0), None
#     Edge 29, Type (0, 0), None
#     Edge 30, Type (0, 0), None
#     Edge 31, Type (0, 0), None
#     Edge 32, Type (0, 0), None
#     Edge 33, Type (0, 0), None
#     Edge 34, Type (0, 0), None
#     Edge 35, Type (0, 0), None
#     Edge 36, Type (0, 0), None
#     Edge 37, Type (0, 0), None
#     Edge 38, Type (0, 0), None
#     Edge 39, Type (0, 0), None
#     Edge 40, Type (0, 0), None
#     Edge 41, Type (0, 0), None
#     Edge 42, Type (0, 0), None
#     Edge 43, Type (0, 0), None
#     Edge 44, Type (0, 0), None
#     Edge 45, Type (0, 0), None
#     Edge 46, Type (0, 0), None
#     Edge 47, Type (0, 0), None
#     Edge 48, Type (0, 0), None
#     Edge 49, Type (0, 0), None
#     Edge 50, Type (0, 0), None
#     Edge 51, Type (0, 0), None
#     Edge 52, Type (0, 0), None
#     Edge 53, Type (0, 0), None
#     Edge 54, Type (0, 0), None
#     Edge 55, Type (0, 0), None
#     Edge 56, Type (0, 0), None
#     Edge 57, Type (0, 0), None
#     Edge 58, Type (0, 0), None
#     Edge 59, Type (0, 0), None
#     Edge 60, Type (0, 0), None
#     Edge 61, Type (0, 0), None
#     Edge 62, Type (0, 0), None
#     Edge 63, Type (0, 0), None
# Relax obj value: 0.100
# Max RMSD: 0.208
# Mean RMSD: 0.208
data_MOF--net-vbm--node1-BETFEN_clean_sbu_0--edge1-none
_symmetry_space_group_name_H-M    P1
_symmetry_Int_Tables_number       1
_symmetry_cell_setting            triclinic
loop_
_symmetry_equiv_pos_as_xyz
'x, y, z'
_cell_length_a     23.879744
_cell_length_b     16.013161
_cell_length_c     23.869808
_cell_angle_alpha  90.000641
_cell_angle_beta   90.819731
_cell_angle_gamma 89.999802
loop_
_atom_site_label
_atom_site_type_symbol
_atom_site_fract_x
_atom_site_fract_y
_atom_site_fract_z
_atom_type_partial_charge
Pr0 Pr 0.10204 0.13787 0.14834 0.0
Pr1 Pr 0.02699 0.2656 0.16935 0.0
C2 C 0.14889 0.98607 0.14382 0.0
C3 C 0.12368 0.90215 0.1489 0.0
C4 C 0.09058 0.86861 0.10523 0.0
C5 C 0.06593 0.79007 0.1106 0.0
C6 C 0.073 0.7438 0.16019 0.0
C7 C 0.10521 0.77821 0.20435 0.0
C8 C 0.13014 0.85655 0.19877 0.0
C9 C 0.09519 0.23596 0.05232 0.0
C10 C -0.0371 0.11194 0.1236 0.0
C11 C -0.02291 0.41419 0.18328 0.0
C12 C 0.00072 0.49888 0.17786 0.0
C13 C 0.05448 0.51669 0.19921 0.0
C14 C 0.07753 0.59593 0.19369 0.0
C15 C 0.04789 0.65936 0.16558 0.0
C16 C -0.00517 0.64075 0.14221 0.0
C17 C -0.02825 0.56088 0.14788 0.0
C18 C 0.0313 0.14092 0.25539 0.0
C19 C 0.16022 0.31695 0.17647 0.0
O20 O 0.14999 1.03154 0.18924 0.0
O21 O 0.13569 1.02891 0.099 0.0
O22 O 0.05303 0.21411 0.08096 0.0
O23 O 0.14157 0.2172 0.07842 0.0
O24 O -0.04125 0.19303 0.12263 0.0
O25 O 0.01097 1.07617 0.13836 0.0
O26 O -0.02719 0.37185 0.1367 0.0
O27 O -0.00404 0.36924 0.22525 0.0
O28 O 0.07291 0.1766 0.23373 0.0
O29 O -0.01453 0.17264 0.23478 0.0
O30 O 0.1697 0.23577 0.17965 0.0
O31 O 0.10973 0.34366 0.16481 0.0
H32 H 0.08332 0.90319 0.06686 0.0
H33 H 0.04195 0.76532 0.07552 0.0
H34 H 0.11084 0.74501 0.24355 0.0
H35 H 0.15454 0.88145 0.23357 0.0
H36 H 0.07889 0.46969 0.22078 0.0
H37 H 0.11885 0.60698 0.2113 0.0
H38 H -0.02918 0.68793 0.12002 0.0
H39 H 0.93139 0.54753 0.12872 0.0
Pr40 Pr 0.77033 1.04964 0.14182 0.0
Pr41 Pr 0.84074 0.92487 0.1785 0.0
C42 C 0.72561 0.2009 0.11962 0.0
C43 C 0.74523 0.28648 0.13214 0.0
C44 C 0.75075 0.34517 0.089 0.0
C45 C 0.77414 0.42388 0.09982 0.0
C46 C 0.79045 0.44711 0.15474 0.0
C47 C 0.78275 0.38835 0.19797 0.0
C48 C 0.76164 0.30891 0.18671 0.0
C49 C 0.77675 0.9337 0.05501 0.0
C50 C 0.91076 1.06393 0.12474 0.0
C51 C 0.88117 0.77491 0.20869 0.0
C52 C 0.85917 0.69147 0.194 0.0
C53 C 0.86891 0.62366 0.22947 0.0
C54 C 0.84932 0.54421 0.21507 0.0
C55 C 0.81466 0.53173 0.16746 0.0
C56 C 0.80298 0.6014 0.13305 0.0
C57 C 0.82603 0.67977 0.14553 0.0
C58 C 0.84017 1.06386 0.25396 0.0
C59 C 0.7073 0.87753 0.17658 0.0
O60 O 0.71112 0.15509 0.16232 0.0
O61 O 0.75498 0.15946 0.08333 0.0
O62 O 0.81867 0.9578 0.08435 0.0
O63 O 0.73053 0.96185 0.07561 0.0
O64 O 0.91353 0.98315 0.13108 0.0
O65 O 0.86307 0.10378 0.1338 0.0
O66 O 0.90183 0.81825 0.1674 0.0
O67 O 0.84949 0.81944 0.24137 0.0
O68 O 0.79707 1.02961 0.2326 0.0
O69 O 0.88454 1.02311 0.23952 0.0
O70 O 0.69892 0.95903 0.17395 0.0
O71 O 0.75782 0.84855 0.17069 0.0
H72 H 0.73735 0.32984 0.04683 0.0
H73 H 0.7796 0.46574 0.06476 0.0
H74 H 0.79247 0.40299 0.24101 0.0
H75 H 0.75764 0.26538 0.22113 0.0
H76 H 0.89146 0.63206 0.26846 0.0
H77 H 0.8622 0.4926 0.24128 0.0
H78 H 0.77561 0.5964 0.09674 0.0
H79 H 0.81699 0.73167 0.11773 0.0
Pr80 Pr 0.10274 1.04964 0.40378 0.0
Pr81 Pr 0.03233 0.92487 0.36709 0.0
C82 C 0.14746 0.2009 0.42599 0.0
C83 C 0.12783 0.28648 0.41347 0.0
C84 C 0.12232 0.34517 0.4566 0.0
C85 C 0.09892 0.42388 0.44579 0.0
C86 C 0.08262 0.44711 0.39086 0.0
C87 C 0.09032 0.38835 0.34763 0.0
C88 C 0.11143 0.3089 0.3589 0.0
C89 C 0.09631 0.93369 0.49059 0.0
C90 C -0.0377 1.06393 0.42085 0.0
C91 C -0.00809 0.77491 0.3369 0.0
C92 C 0.01389 0.69147 0.35159 0.0
C93 C 0.00416 0.62366 0.31613 0.0
C94 C 0.02375 0.5442 0.33054 0.0
C95 C 0.05841 0.53172 0.37815 0.0
C96 C 0.07009 0.6014 0.41255 0.0
C97 C 0.04704 0.67977 0.40007 0.0
C98 C 0.03291 1.06386 0.29163 0.0
C99 C 0.16578 0.87753 0.36903 0.0
O100 O 0.16195 0.15509 0.38329 0.0
O101 O 0.11808 0.15946 0.46227 0.0
O102 O 0.05439 0.95779 0.46125 0.0
O103 O 0.14254 0.96185 0.47 0.0
O104 O -0.04045 0.98315 0.41452 0.0
O105 O 0.01 0.10377 0.4118 0.0
O106 O -0.02876 0.81825 0.37819 0.0
O107 O 0.02358 0.81943 0.30422 0.0
O108 O 0.07601 1.02961 0.313 0.0
O109 O -0.01146 1.0231 0.30607 0.0
O110 O 0.17415 0.95902 0.37166 0.0
O111 O 0.11525 0.84855 0.37491 0.0
H112 H 0.13571 0.32984 0.49878 0.0
H113 H 0.09346 0.46574 0.48084 0.0
H114 H 0.0806 0.40298 0.30459 0.0
H115 H 0.11543 0.26537 0.32447 0.0
H116 H -0.01839 0.63205 0.27713 0.0
H117 H 0.01087 0.49259 0.30433 0.0
H118 H 0.09746 0.5964 0.44886 0.0
H119 H 0.05607 0.73167 0.42786 0.0
Pr120 Pr 0.77102 0.13786 0.39729 0.0
Pr121 Pr 0.84608 0.2656 0.37626 0.0
C122 C 0.72418 0.98606 0.40183 0.0
C123 C 0.74939 0.90215 0.39674 0.0
C124 C 0.7825 0.8686 0.4404 0.0
C125 C 0.80715 0.79007 0.43502 0.0
C126 C 0.80007 0.7438 0.38542 0.0
C127 C 0.76787 0.77822 0.34127 0.0
C128 C 0.74293 0.85655 0.34686 0.0
C129 C 0.77788 0.23598 0.4933 0.0
C130 C 0.91016 0.11194 0.42202 0.0
C131 C 0.89598 0.41419 0.36232 0.0
C132 C 0.87235 0.49887 0.36775 0.0
C133 C 0.81859 0.51669 0.3464 0.0
C134 C 0.79554 0.59593 0.35192 0.0
C135 C 0.82518 0.65936 0.38003 0.0
C136 C 0.87825 0.64075 0.4034 0.0
C137 C 0.90132 0.56088 0.39772 0.0
C138 C 0.84178 0.14085 0.29027 0.0
C139 C 0.71285 0.31694 0.36914 0.0
O140 O 0.72306 1.03154 0.3564 0.0
O141 O 0.73739 1.0289 0.44665 0.0
O142 O 0.82004 0.21413 0.46466 0.0
O143 O 0.73149 0.21722 0.4672 0.0
O144 O 0.91433 0.19303 0.42298 0.0
O145 O 0.8621 1.07616 0.40728 0.0
O146 O 0.90027 0.37185 0.4089 0.0
O147 O 0.8771 0.36923 0.32035 0.0
O148 O 0.80017 0.17655 0.3119 0.0
O149 O 0.88761 0.17263 0.31084 0.0
O150 O 0.70337 0.23576 0.36597 0.0
O151 O 0.76334 0.34365 0.3808 0.0
H152 H 0.78976 0.90318 0.47877 0.0
H153 H 0.83114 0.76531 0.47009 0.0
H154 H 0.76223 0.74502 0.30207 0.0
H155 H 0.71853 0.88146 0.31207 0.0
H156 H 0.79418 0.46969 0.32483 0.0
H157 H 0.75422 0.60699 0.33431 0.0
H158 H 0.90226 0.68792 0.42559 0.0
H159 H -0.05832 0.54751 0.41689 0.0
Pr160 Pr 0.84606 0.89665 0.87637 0.0
Pr161 Pr 0.77096 1.02444 0.89733 0.0
C162 C 0.89599 0.74806 0.86252 0.0
C163 C 0.87238 0.66335 0.86784 0.0
C164 C 0.81867 0.64552 0.84637 0.0
C165 C 0.79562 0.56627 0.85186 0.0
C166 C 0.82521 0.50286 0.88004 0.0
C167 C 0.87824 0.52148 0.90349 0.0
C168 C 0.90131 0.60135 0.89786 0.0
C169 C 0.84184 1.02124 0.79015 0.0
C170 C 0.71285 0.84529 0.86907 0.0
C171 C 0.72412 0.17623 0.90192 0.0
C172 C 0.74934 0.26013 0.89681 0.0
C173 C 0.78241 0.29372 0.94048 0.0
C174 C 0.80708 0.37224 0.93508 0.0
C175 C 0.80008 0.41843 0.88545 0.0
C176 C 0.76792 0.38397 0.84128 0.0
C177 C 0.74295 0.30566 0.84689 0.0
C178 C 0.77791 0.92623 0.99319 0.0
C179 C 0.91017 1.05028 0.92201 0.0
O180 O 0.90013 0.79036 0.90914 0.0
O181 O 0.87722 0.79303 0.82052 0.0
O182 O 0.80022 0.98581 0.81193 0.0
O183 O 0.88763 0.98946 0.8108 0.0
O184 O 0.70336 0.92648 0.86594 0.0
O185 O 0.76333 0.81858 0.88076 0.0
O186 O 0.72294 0.13075 0.8565 0.0
O187 O 0.73736 0.13338 0.94673 0.0
O188 O 0.82002 0.94848 0.96462 0.0
O189 O 0.73147 0.9447 0.9671 0.0
O190 O 0.91432 0.96919 0.92306 0.0
O191 O 0.8621 0.08605 0.90724 0.0
H192 H 0.7943 0.69252 0.82476 0.0
H193 H 0.75433 0.5552 0.83418 0.0
H194 H 0.90221 0.47431 0.92573 0.0
H195 H -0.05836 0.61472 0.9171 0.0
H196 H 0.78962 0.25918 0.97888 0.0
H197 H 0.83103 0.39703 0.97017 0.0
H198 H 0.76234 0.41712 0.80206 0.0
H199 H 0.71858 0.28072 0.81209 0.0
Pr200 Pr 0.03234 0.23732 0.86723 0.0
Pr201 Pr 0.10282 0.11251 0.90385 0.0
C202 C -0.00811 0.38732 0.83717 0.0
C203 C 0.0139 0.47076 0.85182 0.0
C204 C 0.00416 0.53855 0.81633 0.0
C205 C 0.02377 0.61801 0.8307 0.0
C206 C 0.05842 0.63052 0.87831 0.0
C207 C 0.07011 0.56086 0.91273 0.0
C208 C 0.04707 0.48249 0.90027 0.0
C209 C 0.03283 0.09846 0.79157 0.0
C210 C 0.16578 0.28469 0.86896 0.0
C211 C 0.14756 0.9613 0.92612 0.0
C212 C 0.12789 0.87574 0.9136 0.0
C213 C 0.12233 0.81708 0.95675 0.0
C214 C 0.09891 0.73839 0.94594 0.0
C215 C 0.08263 0.71514 0.89101 0.0
C216 C 0.09034 0.77388 0.84777 0.0
C217 C 0.11148 0.85332 0.85903 0.0
C218 C 0.0963 0.22855 0.9905 0.0
C219 C -0.03768 0.09827 0.92087 0.0
O220 O -0.02868 0.34397 0.87851 0.0
O221 O 0.0235 0.34281 0.80442 0.0
O222 O 0.07596 0.13243 0.81306 0.0
O223 O -0.01149 0.13929 0.80604 0.0
O224 O 0.17416 0.20319 0.87161 0.0
O225 O 0.11526 0.31366 0.87491 0.0
O226 O 0.16206 1.00708 0.88341 0.0
O227 O 0.1182 1.00278 0.96241 0.0
O228 O 0.05442 0.20402 0.96128 0.0
O229 O 0.1426 0.20072 0.96988 0.0
O230 O -0.04045 0.17905 0.91461 0.0
O231 O 0.01002 1.05843 0.9118 0.0
H232 H -0.01841 0.53013 0.77735 0.0
H233 H 0.0109 0.6696 0.80446 0.0
H234 H 0.0975 0.56589 0.94902 0.0
H235 H 0.05612 0.4306 0.92808 0.0
H236 H 0.1357 0.83242 0.99893 0.0
H237 H 0.09342 0.69655 0.981 0.0
H238 H 0.08063 0.75924 0.80473 0.0
H239 H 0.1155 0.89683 0.8246 0.0
Pr240 Pr 0.84072 0.23732 0.67839 0.0
Pr241 Pr 0.77024 0.11251 0.64176 0.0
C242 C 0.88117 0.38733 0.70845 0.0
C243 C 0.85917 0.47077 0.6938 0.0
C244 C 0.86891 0.53856 0.72929 0.0
C245 C 0.8493 0.61802 0.71492 0.0
C246 C 0.81465 0.63053 0.66731 0.0
C247 C 0.80295 0.56086 0.63289 0.0
C248 C 0.82599 0.48249 0.64535 0.0
C249 C 0.84022 0.09846 0.75405 0.0
C250 C 0.70729 0.28469 0.67665 0.0
C251 C 0.72551 0.96131 0.61949 0.0
C252 C 0.74518 0.87574 0.632 0.0
C253 C 0.75074 0.81708 0.58886 0.0
C254 C 0.77416 0.73839 0.59967 0.0
C255 C 0.79044 0.71515 0.6546 0.0
C256 C 0.78272 0.77389 0.69784 0.0
C257 C 0.76158 0.85332 0.68658 0.0
C258 C 0.77677 0.22857 0.55512 0.0
C259 C 0.91075 0.09827 0.62475 0.0
O260 O 0.90175 0.34397 0.66712 0.0
O261 O 0.84956 0.34282 0.7412 0.0
O262 O 0.7971 0.13243 0.73255 0.0
O263 O 0.88455 0.13929 0.73959 0.0
O264 O 0.6989 0.2032 0.674 0.0
O265 O 0.75781 0.31367 0.67072 0.0
O266 O 0.711 1.00708 0.6622 0.0
O267 O 0.75487 1.00278 0.5832 0.0
O268 O 0.81865 0.20403 0.58434 0.0
O269 O 0.73047 0.20073 0.57573 0.0
O270 O 0.91351 0.17905 0.63101 0.0
O271 O 0.86304 1.05844 0.63382 0.0
H272 H 0.89148 0.53014 0.76827 0.0
H273 H 0.86217 0.66961 0.74115 0.0
H274 H 0.77557 0.56589 0.5966 0.0
H275 H 0.81694 0.4306 0.61754 0.0
H276 H 0.73736 0.83242 0.54668 0.0
H277 H 0.77965 0.69654 0.56461 0.0
H278 H 0.79244 0.75925 0.74088 0.0
H279 H 0.75757 0.89684 0.72101 0.0
Pr280 Pr 0.02699 0.89666 0.66924 0.0
Pr281 Pr 0.10211 1.02445 0.64825 0.0
C282 C -0.02293 0.74807 0.68309 0.0
C283 C 0.00068 0.66336 0.67777 0.0
C284 C 0.05439 0.64552 0.69924 0.0
C285 C 0.07744 0.56626 0.69375 0.0
C286 C 0.04785 0.50286 0.66557 0.0
C287 C -0.00518 0.52148 0.64211 0.0
C288 C -0.02825 0.60136 0.64775 0.0
C289 C 0.03121 1.02132 0.7554 0.0
C290 C 0.16021 0.84529 0.67654 0.0
C291 C 0.14895 0.17623 0.64365 0.0
C292 C 0.12372 0.26013 0.64877 0.0
C293 C 0.09064 0.29372 0.60511 0.0
C294 C 0.06597 0.37224 0.61051 0.0
C295 C 0.07298 0.41843 0.66015 0.0
C296 C 0.10514 0.38396 0.70431 0.0
C297 C 0.13011 0.30565 0.6987 0.0
C298 C 0.09515 0.92621 0.5524 0.0
C299 C -0.0371 1.05027 0.62358 0.0
O300 O -0.02707 0.79036 0.63648 0.0
O301 O -0.00415 0.79304 0.72509 0.0
O302 O 0.07284 0.98585 0.73366 0.0
O303 O -0.01458 0.98946 0.7348 0.0
O304 O 0.16971 0.92649 0.67966 0.0
O305 O 0.10973 0.81859 0.66486 0.0
O306 O 0.15014 0.13076 0.68907 0.0
O307 O 0.13569 0.13339 0.59884 0.0
O308 O 0.05304 0.94847 0.58098 0.0
O309 O 0.1416 0.94468 0.57849 0.0
O310 O -0.04126 0.96919 0.62255 0.0
O311 O 0.01097 0.08606 0.63834 0.0
H312 H 0.07876 0.69252 0.72085 0.0
H313 H 0.11873 0.55519 0.71142 0.0
H314 H -0.02916 0.47432 0.61987 0.0
H315 H 0.93142 0.61473 0.62851 0.0
H316 H 0.08343 0.2592 0.56671 0.0
H317 H 0.04202 0.39703 0.57543 0.0
H318 H 0.11072 0.4171 0.74354 0.0
H319 H 0.15448 0.28071 0.73349 0.0
Pr320 Pr 0.60205 0.63787 0.14835 0.0
Pr321 Pr 0.527 0.7656 0.16936 0.0
C322 C 0.64889 0.48607 0.14383 0.0
C323 C 0.62368 0.40215 0.14891 0.0
C324 C 0.59058 0.3686 0.10524 0.0
C325 C 0.56594 0.29006 0.11061 0.0
C326 C 0.57301 0.2438 0.16021 0.0
C327 C 0.60521 0.27821 0.20436 0.0
C328 C 0.63014 0.35655 0.19879 0.0
C329 C 0.59519 0.73596 0.05233 0.0
C330 C 0.4629 0.61194 0.12361 0.0
C331 C 0.47709 0.91419 0.1833 0.0
C332 C 0.50073 0.99887 0.17787 0.0
C333 C 0.55448 1.01669 0.19923 0.0
C334 C 0.57753 0.09593 0.19371 0.0
C335 C 0.5479 0.15935 0.1656 0.0
C336 C 0.49483 0.14075 0.14222 0.0
C337 C 0.47176 1.06088 0.1479 0.0
C338 C 0.5313 0.64092 0.2554 0.0
C339 C 0.66022 0.81695 0.17648 0.0
O340 O 0.64999 0.53154 0.18925 0.0
O341 O 0.63569 0.5289 0.09901 0.0
O342 O 0.55303 0.71411 0.08097 0.0
O343 O 0.64158 0.7172 0.07843 0.0
O344 O 0.45875 0.69303 0.12264 0.0
O345 O 0.51097 0.57617 0.13836 0.0
O346 O 0.47281 0.87185 0.13671 0.0
O347 O 0.49596 0.86924 0.22527 0.0
O348 O 0.57291 0.67659 0.23374 0.0
O349 O 0.48548 0.67264 0.23479 0.0
O350 O 0.6697 0.73576 0.17966 0.0
O351 O 0.60973 0.84366 0.16482 0.0
H352 H 0.58333 0.40318 0.06687 0.0
H353 H 0.54196 0.26531 0.07554 0.0
H354 H 0.61084 0.24501 0.24356 0.0
H355 H 0.65453 0.38146 0.23358 0.0
H356 H 0.57889 0.96969 0.2208 0.0
H357 H 0.61885 0.10698 0.21133 0.0
H358 H 0.47083 0.18792 0.12002 0.0
H359 H 0.4314 1.04752 0.12872 0.0
Pr360 Pr 0.27033 0.54965 0.14181 0.0
Pr361 Pr 0.34074 0.42487 0.17849 0.0
C362 C 0.22561 0.7009 0.11961 0.0
C363 C 0.24523 0.78648 0.13213 0.0
C364 C 0.25074 0.84517 0.08899 0.0
C365 C 0.27413 0.92388 0.09981 0.0
C366 C 0.29044 0.94711 0.15473 0.0
C367 C 0.28275 0.88835 0.19796 0.0
C368 C 0.26164 0.8089 0.1867 0.0
C369 C 0.27675 0.4337 0.055 0.0
C370 C 0.41076 0.56393 0.12474 0.0
C371 C 0.38117 0.27491 0.20868 0.0
C372 C 0.35917 0.19147 0.19399 0.0
C373 C 0.36891 0.12366 0.22946 0.0
C374 C 0.34932 1.04421 0.21505 0.0
C375 C 0.31466 1.03173 0.16744 0.0
C376 C 0.30298 0.1014 0.13304 0.0
C377 C 0.32602 0.17977 0.14552 0.0
C378 C 0.34017 0.56385 0.25395 0.0
C379 C 0.2073 0.37754 0.17657 0.0
O380 O 0.21112 0.65509 0.16231 0.0
O381 O 0.25498 0.65946 0.08332 0.0
O382 O 0.31867 0.4578 0.08434 0.0
O383 O 0.23053 0.46185 0.0756 0.0
O384 O 0.41353 0.48315 0.13107 0.0
O385 O 0.36307 0.60378 0.13379 0.0
O386 O 0.40183 0.31825 0.16738 0.0
O387 O 0.34949 0.31944 0.24136 0.0
O388 O 0.29707 0.52961 0.23259 0.0
O389 O 0.38454 0.5231 0.23952 0.0
O390 O 0.19892 0.45903 0.17394 0.0
O391 O 0.25782 0.34855 0.17069 0.0
H392 H 0.23734 0.82984 0.04682 0.0
H393 H 0.27959 0.96574 0.06475 0.0
H394 H 0.29248 0.90298 0.241 0.0
H395 H 0.25765 0.76537 0.22112 0.0
H396 H 0.39146 0.13206 0.26845 0.0
H397 H 0.3622 0.9926 0.24126 0.0
H398 H 0.27561 0.0964 0.09673 0.0
H399 H 0.31699 0.23167 0.11772 0.0
Pr400 Pr 0.60274 0.54964 0.40379 0.0
Pr401 Pr 0.53233 0.42486 0.3671 0.0
C402 C 0.64746 0.70089 0.42601 0.0
C403 C 0.62783 0.78648 0.41348 0.0
C404 C 0.62233 0.84517 0.45662 0.0
C405 C 0.59893 0.92388 0.4458 0.0
C406 C 0.58262 0.9471 0.39088 0.0
C407 C 0.59031 0.88834 0.34765 0.0
C408 C 0.61142 0.80889 0.35892 0.0
C409 C 0.59631 0.43368 0.4906 0.0
C410 C 0.4623 0.56393 0.42086 0.0
C411 C 0.4919 0.2749 0.33691 0.0
C412 C 0.51389 0.19146 0.35161 0.0
C413 C 0.50416 0.12365 0.31614 0.0
C414 C 0.52375 1.0442 0.33055 0.0
C415 C 0.55841 1.03172 0.37816 0.0
C416 C 0.57009 0.1014 0.41257 0.0
C417 C 0.54705 0.17977 0.40008 0.0
C418 C 0.53291 0.56385 0.29164 0.0
C419 C 0.66577 0.37753 0.36904 0.0
O420 O 0.66196 0.65509 0.3833 0.0
O421 O 0.61808 0.65945 0.46229 0.0
O422 O 0.55439 0.45779 0.46126 0.0
O423 O 0.64254 0.46184 0.47001 0.0
O424 O 0.45954 0.48315 0.41452 0.0
O425 O 0.51 0.60377 0.41181 0.0
O426 O 0.47124 0.31825 0.37821 0.0
O427 O 0.52358 0.31943 0.30424 0.0
O428 O 0.57601 0.5296 0.31301 0.0
O429 O 0.48854 0.5231 0.30607 0.0
O430 O 0.67416 0.45902 0.37167 0.0
O431 O 0.61525 0.34854 0.37491 0.0
H432 H 0.63573 0.82985 0.49879 0.0
H433 H 0.59348 0.96575 0.48086 0.0
H434 H 0.58059 0.90297 0.30461 0.0
H435 H 0.61542 0.76536 0.32449 0.0
H436 H 0.4816 0.13204 0.27715 0.0
H437 H 0.51086 0.99259 0.30435 0.0
H438 H 0.59746 0.0964 0.44887 0.0
H439 H 0.55608 0.23167 0.42788 0.0
Pr440 Pr 0.27102 0.63786 0.39729 0.0
Pr441 Pr 0.34608 0.7656 0.37626 0.0
C442 C 0.22418 0.48606 0.40182 0.0
C443 C 0.24939 0.40214 0.39673 0.0
C444 C 0.28249 0.3686 0.44039 0.0
C445 C 0.30714 0.29006 0.43501 0.0
C446 C 0.30007 0.2438 0.38541 0.0
C447 C 0.26787 0.27822 0.34126 0.0
C448 C 0.24293 0.35656 0.34685 0.0
C449 C 0.27788 0.73598 0.49329 0.0
C450 C 0.41016 0.61194 0.42202 0.0
C451 C 0.39598 0.91418 0.36231 0.0
C452 C 0.37234 0.99887 0.36774 0.0
C453 C 0.31859 1.01669 0.34638 0.0
C454 C 0.29554 0.09594 0.35191 0.0
C455 C 0.32518 0.15936 0.38002 0.0
C456 C 0.37824 0.14074 0.40339 0.0
C457 C 0.40132 1.06087 0.39772 0.0
C458 C 0.34178 0.64084 0.29027 0.0
C459 C 0.21285 0.81694 0.36913 0.0
O460 O 0.22306 0.53154 0.3564 0.0
O461 O 0.23739 0.5289 0.44664 0.0
O462 O 0.32004 0.71413 0.46465 0.0
O463 O 0.23149 0.71722 0.46719 0.0
O464 O 0.41433 0.69303 0.42297 0.0
O465 O 0.36209 0.57616 0.40727 0.0
O466 O 0.40027 0.87185 0.4089 0.0
O467 O 0.3771 0.86923 0.32034 0.0
O468 O 0.30017 0.67655 0.3119 0.0
O469 O 0.38761 0.67263 0.31083 0.0
O470 O 0.20337 0.73576 0.36596 0.0
O471 O 0.26334 0.84365 0.38078 0.0
H472 H 0.28975 0.40317 0.47876 0.0
H473 H 0.33113 0.2653 0.47009 0.0
H474 H 0.26223 0.24502 0.30206 0.0
H475 H 0.21854 0.38146 0.31205 0.0
H476 H 0.29418 0.96969 0.32481 0.0
H477 H 0.25422 0.10699 0.33429 0.0
H478 H 0.40225 0.18792 0.42559 0.0
H479 H 0.44167 1.04751 0.41689 0.0
Pr480 Pr 0.34606 0.39665 0.87636 0.0
Pr481 Pr 0.27095 0.52444 0.89732 0.0
C482 C 0.39599 0.24806 0.86251 0.0
C483 C 0.37238 0.16336 0.86784 0.0
C484 C 0.31867 0.14552 0.84636 0.0
C485 C 0.29562 1.06627 0.85184 0.0
C486 C 0.3252 1.00286 0.88003 0.0
C487 C 0.37823 1.02148 0.90349 0.0
C488 C 0.40131 0.10136 0.89786 0.0
C489 C 0.34184 0.52125 0.79014 0.0
C490 C 0.21285 0.34529 0.86906 0.0
C491 C 0.22411 0.67623 0.90192 0.0
C492 C 0.24934 0.76013 0.8968 0.0
C493 C 0.2824 0.79372 0.94047 0.0
C494 C 0.30707 0.87224 0.93507 0.0
C495 C 0.30007 0.91844 0.88544 0.0
C496 C 0.26792 0.88396 0.84127 0.0
C497 C 0.24295 0.80565 0.84688 0.0
C498 C 0.27791 0.42623 0.99319 0.0
C499 C 0.41017 0.55027 0.92201 0.0
O500 O 0.40013 0.29036 0.90913 0.0
O501 O 0.37722 0.29303 0.82051 0.0
O502 O 0.30022 0.48581 0.81192 0.0
O503 O 0.38763 0.48946 0.81079 0.0
O504 O 0.20335 0.42648 0.86594 0.0
O505 O 0.26333 0.31858 0.88074 0.0
O506 O 0.22294 0.63075 0.85649 0.0
O507 O 0.23736 0.63338 0.94672 0.0
O508 O 0.32002 0.44848 0.96461 0.0
O509 O 0.23147 0.4447 0.96709 0.0
O510 O 0.41431 0.46919 0.92305 0.0
O511 O 0.3621 0.58604 0.90724 0.0
H512 H 0.29431 0.19252 0.82474 0.0
H513 H 0.25433 1.0552 0.83416 0.0
H514 H 0.4022 0.97432 0.92574 0.0
H515 H 0.44163 0.11473 0.9171 0.0
H516 H 0.28961 0.75919 0.97887 0.0
H517 H 0.33102 0.89703 0.97017 0.0
H518 H 0.26234 0.91711 0.80204 0.0
H519 H 0.21859 0.78071 0.81207 0.0
Pr520 Pr 0.53234 0.73732 0.86724 0.0
Pr521 Pr 0.60282 0.61251 0.90387 0.0
C522 C 0.49189 0.88733 0.83719 0.0
C523 C 0.5139 0.97077 0.85184 0.0
C524 C 0.50416 1.03855 0.81635 0.0
C525 C 0.52377 0.11802 0.83071 0.0
C526 C 0.55842 0.13052 0.87832 0.0
C527 C 0.57012 1.06087 0.91274 0.0
C528 C 0.54707 0.98249 0.90029 0.0
C529 C 0.53283 0.59847 0.79158 0.0
C530 C 0.66577 0.78469 0.86897 0.0
C531 C 0.64756 0.46131 0.92613 0.0
C532 C 0.62789 0.37574 0.91362 0.0
C533 C 0.62234 0.31708 0.95677 0.0
C534 C 0.59892 0.23839 0.94596 0.0
C535 C 0.58263 0.21515 0.89103 0.0
C536 C 0.59034 0.27389 0.84779 0.0
C537 C 0.61148 0.35332 0.85905 0.0
C538 C 0.5963 0.72856 0.99051 0.0
C539 C 0.46232 0.59827 0.92088 0.0
O540 O 0.47132 0.84398 0.87853 0.0
O541 O 0.52349 0.84281 0.80443 0.0
O542 O 0.57596 0.63244 0.81307 0.0
O543 O 0.48851 0.6393 0.80605 0.0
O544 O 0.67417 0.70319 0.87163 0.0
O545 O 0.61526 0.81367 0.87491 0.0
O546 O 0.66206 0.50708 0.88342 0.0
O547 O 0.6182 0.50278 0.96242 0.0
O548 O 0.55442 0.70402 0.96129 0.0
O549 O 0.6426 0.70072 0.96989 0.0
O550 O 0.45955 0.67905 0.91462 0.0
O551 O 0.51002 0.55843 0.9118 0.0
H552 H 0.48159 1.03013 0.77737 0.0
H553 H 0.5109 0.1696 0.80448 0.0
H554 H 0.5975 1.06589 0.94904 0.0
H555 H 0.55613 0.9306 0.92809 0.0
H556 H 0.63572 0.33242 0.99895 0.0
H557 H 0.59343 0.19654 0.98101 0.0
H558 H 0.58062 0.25925 0.80475 0.0
H559 H 0.61549 0.39684 0.82462 0.0
Pr560 Pr 0.34072 0.73732 0.67839 0.0
Pr561 Pr 0.27024 0.61251 0.64175 0.0
C562 C 0.38118 0.88733 0.70844 0.0
C563 C 0.35916 0.97077 0.69379 0.0
C564 C 0.36891 1.03856 0.72928 0.0
C565 C 0.3493 0.11802 0.7149 0.0
C566 C 0.31464 0.13053 0.6673 0.0
C567 C 0.30295 1.06086 0.63288 0.0
C568 C 0.32599 0.98249 0.64534 0.0
C569 C 0.34022 0.59846 0.75404 0.0
C570 C 0.20729 0.78469 0.67664 0.0
C571 C 0.22551 0.46131 0.61948 0.0
C572 C 0.24517 0.37574 0.63199 0.0
C573 C 0.25073 0.31708 0.58885 0.0
C574 C 0.27415 0.23838 0.59966 0.0
C575 C 0.29044 0.21515 0.65459 0.0
C576 C 0.28272 0.27389 0.69782 0.0
C577 C 0.26159 0.35332 0.68656 0.0
C578 C 0.27677 0.72857 0.55511 0.0
C579 C 0.41075 0.59826 0.62475 0.0
O580 O 0.40175 0.84397 0.6671 0.0
O581 O 0.34957 0.84282 0.7412 0.0
O582 O 0.2971 0.63244 0.73254 0.0
O583 O 0.38454 0.6393 0.73958 0.0
O584 O 0.19889 0.70319 0.67398 0.0
O585 O 0.25781 0.81367 0.67072 0.0
O586 O 0.211 0.50708 0.66219 0.0
O587 O 0.25487 0.50278 0.58319 0.0
O588 O 0.31865 0.70403 0.58433 0.0
O589 O 0.23047 0.70073 0.57573 0.0
O590 O 0.41351 0.67905 0.631 0.0
O591 O 0.36304 0.55843 0.63382 0.0
H592 H 0.39148 1.03014 0.76825 0.0
H593 H 0.36217 0.16961 0.74114 0.0
H594 H 0.27556 1.06589 0.59659 0.0
H595 H 0.31694 0.9306 0.61753 0.0
H596 H 0.23735 0.33241 0.54667 0.0
H597 H 0.27964 0.19654 0.5646 0.0
H598 H 0.29244 0.25925 0.74087 0.0
H599 H 0.25757 0.39685 0.72099 0.0
Pr600 Pr 0.527 0.39666 0.66925 0.0
Pr601 Pr 0.60212 0.52445 0.64826 0.0
C602 C 0.47707 0.24807 0.68311 0.0
C603 C 0.50069 0.16336 0.67778 0.0
C604 C 0.55439 0.14552 0.69926 0.0
C605 C 0.57744 1.06626 0.69377 0.0
C606 C 0.54785 1.00286 0.66558 0.0
C607 C 0.49482 1.02149 0.64212 0.0
C608 C 0.47175 0.10136 0.64776 0.0
C609 C 0.53122 0.52133 0.75541 0.0
C610 C 0.66021 0.3453 0.67655 0.0
C611 C 0.64895 0.67623 0.64366 0.0
C612 C 0.62372 0.76014 0.64879 0.0
C613 C 0.59065 0.79373 0.60512 0.0
C614 C 0.56598 0.87225 0.61053 0.0
C615 C 0.57298 0.91843 0.66016 0.0
C616 C 0.60514 0.88396 0.70432 0.0
C617 C 0.63011 0.80565 0.69871 0.0
C618 C 0.59515 0.42621 0.55241 0.0
C619 C 0.4629 0.55027 0.62358 0.0
O620 O 0.47293 0.29036 0.63649 0.0
O621 O 0.49585 0.29304 0.72511 0.0
O622 O 0.57284 0.48586 0.73367 0.0
O623 O 0.48542 0.48947 0.73481 0.0
O624 O 0.66971 0.42649 0.67966 0.0
O625 O 0.60973 0.31858 0.66487 0.0
O626 O 0.65014 0.63076 0.68908 0.0
O627 O 0.63569 0.63339 0.59885 0.0
O628 O 0.55304 0.44847 0.58099 0.0
O629 O 0.6416 0.44468 0.5785 0.0
O630 O 0.45874 0.46919 0.62255 0.0
O631 O 0.51097 0.58606 0.63835 0.0
H632 H 0.57876 0.19251 0.72087 0.0
H633 H 0.61873 1.05519 0.71145 0.0
H634 H 0.47085 0.97433 0.61988 0.0
H635 H 0.43143 0.11474 0.62852 0.0
H636 H 0.58343 0.75921 0.56672 0.0
H637 H 0.54203 0.89704 0.57544 0.0
H638 H 0.61072 0.9171 0.74356 0.0
H639 H 0.65448 0.78071 0.73351 0.0
loop_
_geom_bond_atom_site_label_1
_geom_bond_atom_site_label_2
_geom_bond_distance
_geom_bond_site_symmetry_2
_ccdc_geom_bond_type
Pr0 C2 2.880 1_545 S
Pr0 O20 2.562 1_545 S
Pr0 O21 2.490 1_545 S
Pr0 O22 2.695 . S
Pr0 O23 2.512 . S
Pr0 O25 2.437 1_545 S
Pr0 O28 2.436 . S
Pr0 O30 2.438 . S
Pr1 C11 2.880 . S
Pr1 O22 2.436 . S
Pr1 O24 2.438 . S
Pr1 O26 2.562 . S
Pr1 O27 2.490 . S
Pr1 O28 2.695 . S
Pr1 O29 2.512 . S
Pr1 O31 2.437 . S
C2 Pr0 2.880 1_565 S
C2 C3 1.491 . S
C2 O20 1.254 . S
C2 O21 1.225 . S
C3 C2 1.491 . S
C3 C4 1.392 . S
C3 C8 1.356 . S
C4 C3 1.392 . S
C4 C5 1.368 . S
C4 H32 0.929 . S
C5 C4 1.368 . S
C5 C6 1.386 . S
C5 H33 0.929 . S
C6 C5 1.386 . S
C6 C7 1.373 . S
C7 C6 1.373 . S
C7 C8 1.409 . S
C7 H34 0.931 . S
C8 C3 1.356 . S
C8 C7 1.409 . S
C8 H35 0.930 . S
C9 O22 1.270 . S
C9 O23 1.248 . S
C10 O24 1.267 1_565 S
C10 O25 1.278 . S
C11 Pr1 2.880 . S
C11 C12 1.491 . S
C11 O26 1.254 . S
C11 O27 1.225 . S
C12 C11 1.491 . S
C12 C13 1.392 . S
C12 C17 1.356 . S
C13 C12 1.392 . S
C13 C14 1.368 . S
C13 H36 0.929 . S
C14 C13 1.368 . S
C14 C15 1.386 . S
C14 H37 0.929 . S
C15 C14 1.386 . S
C15 C16 1.373 . S
C16 C15 1.373 . S
C16 C17 1.409 . S
C16 H38 0.931 . S
C17 C12 1.356 . S
C17 C16 1.409 . S
C17 H39 0.930 . S
C18 O28 1.270 . S
C18 O29 1.248 . S
C19 O30 1.267 . S
C19 O31 1.278 . S
O20 Pr0 2.562 1_565 S
O20 C2 1.254 . S
O21 Pr0 2.490 1_565 S
O21 C2 1.225 . S
O22 Pr0 2.695 . S
O22 Pr1 2.436 . S
O22 C9 1.270 . S
O23 Pr0 2.512 . S
O23 C9 1.248 . S
O24 Pr1 2.438 . S
O24 C10 1.267 1_545 S
O25 Pr0 2.437 1_565 S
O25 C10 1.278 . S
O26 Pr1 2.562 . S
O26 C11 1.254 . S
O27 Pr1 2.490 . S
O27 C11 1.225 . S
O28 Pr0 2.436 . S
O28 Pr1 2.695 . S
O28 C18 1.270 . S
O29 Pr1 2.512 . S
O29 C18 1.248 . S
O30 Pr0 2.438 . S
O30 C19 1.267 . S
O31 Pr1 2.437 . S
O31 C19 1.278 . S
H32 C4 0.929 . S
H33 C5 0.929 . S
H34 C7 0.931 . S
H35 C8 0.930 . S
H36 C13 0.929 . S
H37 C14 0.929 . S
H38 C16 0.931 . S
H39 C17 0.930 . S
Pr40 C42 2.880 1_565 S
Pr40 O60 2.562 1_565 S
Pr40 O61 2.490 1_565 S
Pr40 O62 2.695 . S
Pr40 O63 2.512 . S
Pr40 O65 2.437 1_565 S
Pr40 O68 2.436 . S
Pr40 O70 2.438 . S
Pr41 C51 2.880 . S
Pr41 O62 2.436 . S
Pr41 O64 2.438 . S
Pr41 O66 2.562 . S
Pr41 O67 2.490 . S
Pr41 O68 2.695 . S
Pr41 O69 2.512 . S
Pr41 O71 2.437 . S
C42 Pr40 2.880 1_545 S
C42 C43 1.491 . S
C42 O60 1.254 . S
C42 O61 1.225 . S
C43 C42 1.491 . S
C43 C44 1.392 . S
C43 C48 1.356 . S
C44 C43 1.392 . S
C44 C45 1.368 . S
C44 H72 0.929 . S
C45 C44 1.368 . S
C45 C46 1.386 . S
C45 H73 0.929 . S
C46 C45 1.386 . S
C46 C47 1.373 . S
C47 C46 1.373 . S
C47 C48 1.409 . S
C47 H74 0.931 . S
C48 C43 1.356 . S
C48 C47 1.409 . S
C48 H75 0.930 . S
C49 O62 1.270 . S
C49 O63 1.248 . S
C50 O64 1.267 1_545 S
C50 O65 1.278 . S
C51 Pr41 2.880 . S
C51 C52 1.491 . S
C51 O66 1.254 . S
C51 O67 1.225 . S
C52 C51 1.491 . S
C52 C53 1.392 . S
C52 C57 1.356 . S
C53 C52 1.392 . S
C53 C54 1.368 . S
C53 H76 0.929 . S
C54 C53 1.368 . S
C54 C55 1.386 . S
C54 H77 0.929 . S
C55 C54 1.386 . S
C55 C56 1.373 . S
C56 C55 1.373 . S
C56 C57 1.409 . S
C56 H78 0.931 . S
C57 C52 1.356 . S
C57 C56 1.409 . S
C57 H79 0.930 . S
C58 O68 1.270 . S
C58 O69 1.248 . S
C59 O70 1.267 . S
C59 O71 1.278 . S
O60 Pr40 2.562 1_545 S
O60 C42 1.254 . S
O61 Pr40 2.490 1_545 S
O61 C42 1.225 . S
O62 Pr40 2.695 . S
O62 Pr41 2.436 . S
O62 C49 1.270 . S
O63 Pr40 2.512 . S
O63 C49 1.248 . S
O64 Pr41 2.438 . S
O64 C50 1.267 1_565 S
O65 Pr40 2.437 1_545 S
O65 C50 1.278 . S
O66 Pr41 2.562 . S
O66 C51 1.254 . S
O67 Pr41 2.490 . S
O67 C51 1.225 . S
O68 Pr40 2.436 . S
O68 Pr41 2.695 . S
O68 C58 1.270 . S
O69 Pr41 2.512 . S
O69 C58 1.248 . S
O70 Pr40 2.438 . S
O70 C59 1.267 . S
O71 Pr41 2.437 . S
O71 C59 1.278 . S
H72 C44 0.929 . S
H73 C45 0.929 . S
H74 C47 0.931 . S
H75 C48 0.930 . S
H76 C53 0.929 . S
H77 C54 0.929 . S
H78 C56 0.931 . S
H79 C57 0.930 . S
Pr80 C82 2.880 1_565 S
Pr80 O100 2.562 1_565 S
Pr80 O101 2.490 1_565 S
Pr80 O102 2.695 . S
Pr80 O103 2.512 . S
Pr80 O105 2.437 1_565 S
Pr80 O108 2.436 . S
Pr80 O110 2.438 . S
Pr81 C91 2.880 . S
Pr81 O102 2.436 . S
Pr81 O104 2.438 . S
Pr81 O106 2.562 . S
Pr81 O107 2.490 . S
Pr81 O108 2.695 . S
Pr81 O109 2.512 . S
Pr81 O111 2.437 . S
C82 Pr80 2.880 1_545 S
C82 C83 1.491 . S
C82 O100 1.254 . S
C82 O101 1.225 . S
C83 C82 1.491 . S
C83 C84 1.392 . S
C83 C88 1.356 . S
C84 C83 1.392 . S
C84 C85 1.368 . S
C84 H112 0.929 . S
C85 C84 1.368 . S
C85 C86 1.386 . S
C85 H113 0.929 . S
C86 C85 1.386 . S
C86 C87 1.373 . S
C87 C86 1.373 . S
C87 C88 1.409 . S
C87 H114 0.931 . S
C88 C83 1.356 . S
C88 C87 1.409 . S
C88 H115 0.930 . S
C89 O102 1.270 . S
C89 O103 1.248 . S
C90 O104 1.267 1_545 S
C90 O105 1.278 . S
C91 Pr81 2.880 . S
C91 C92 1.491 . S
C91 O106 1.254 . S
C91 O107 1.225 . S
C92 C91 1.491 . S
C92 C93 1.392 . S
C92 C97 1.356 . S
C93 C92 1.392 . S
C93 C94 1.368 . S
C93 H116 0.929 . S
C94 C93 1.368 . S
C94 C95 1.386 . S
C94 H117 0.929 . S
C95 C94 1.386 . S
C95 C96 1.373 . S
C96 C95 1.373 . S
C96 C97 1.409 . S
C96 H118 0.931 . S
C97 C92 1.356 . S
C97 C96 1.409 . S
C97 H119 0.930 . S
C98 O108 1.270 . S
C98 O109 1.248 . S
C99 O110 1.267 . S
C99 O111 1.278 . S
O100 Pr80 2.562 1_545 S
O100 C82 1.254 . S
O101 Pr80 2.490 1_545 S
O101 C82 1.225 . S
O102 Pr80 2.695 . S
O102 Pr81 2.436 . S
O102 C89 1.270 . S
O103 Pr80 2.512 . S
O103 C89 1.248 . S
O104 Pr81 2.438 . S
O104 C90 1.267 1_565 S
O105 Pr80 2.437 1_545 S
O105 C90 1.278 . S
O106 Pr81 2.562 . S
O106 C91 1.254 . S
O107 Pr81 2.490 . S
O107 C91 1.225 . S
O108 Pr80 2.436 . S
O108 Pr81 2.695 . S
O108 C98 1.270 . S
O109 Pr81 2.512 . S
O109 C98 1.248 . S
O110 Pr80 2.438 . S
O110 C99 1.267 . S
O111 Pr81 2.437 . S
O111 C99 1.278 . S
H112 C84 0.929 . S
H113 C85 0.929 . S
H114 C87 0.931 . S
H115 C88 0.930 . S
H116 C93 0.929 . S
H117 C94 0.929 . S
H118 C96 0.931 . S
H119 C97 0.930 . S
Pr120 C122 2.880 1_545 S
Pr120 O140 2.562 1_545 S
Pr120 O141 2.490 1_545 S
Pr120 O142 2.695 . S
Pr120 O143 2.512 . S
Pr120 O145 2.437 1_545 S
Pr120 O148 2.436 . S
Pr120 O150 2.438 . S
Pr121 C131 2.880 . S
Pr121 O142 2.436 . S
Pr121 O144 2.438 . S
Pr121 O146 2.562 . S
Pr121 O147 2.490 . S
Pr121 O148 2.695 . S
Pr121 O149 2.512 . S
Pr121 O151 2.437 . S
C122 Pr120 2.880 1_565 S
C122 C123 1.491 . S
C122 O140 1.254 . S
C122 O141 1.225 . S
C123 C122 1.491 . S
C123 C124 1.392 . S
C123 C128 1.356 . S
C124 C123 1.392 . S
C124 C125 1.368 . S
C124 H152 0.929 . S
C125 C124 1.368 . S
C125 C126 1.386 . S
C125 H153 0.929 . S
C126 C125 1.386 . S
C126 C127 1.373 . S
C127 C126 1.373 . S
C127 C128 1.409 . S
C127 H154 0.931 . S
C128 C123 1.356 . S
C128 C127 1.409 . S
C128 H155 0.930 . S
C129 O142 1.270 . S
C129 O143 1.248 . S
C130 O144 1.267 1_565 S
C130 O145 1.278 . S
C131 Pr121 2.880 . S
C131 C132 1.491 . S
C131 O146 1.254 . S
C131 O147 1.225 . S
C132 C131 1.491 . S
C132 C133 1.392 . S
C132 C137 1.356 . S
C133 C132 1.392 . S
C133 C134 1.368 . S
C133 H156 0.929 . S
C134 C133 1.368 . S
C134 C135 1.386 . S
C134 H157 0.929 . S
C135 C134 1.386 . S
C135 C136 1.373 . S
C136 C135 1.373 . S
C136 C137 1.409 . S
C136 H158 0.931 . S
C137 C132 1.356 . S
C137 C136 1.409 . S
C137 H159 0.930 . S
C138 O148 1.270 . S
C138 O149 1.248 . S
C139 O150 1.267 . S
C139 O151 1.278 . S
O140 Pr120 2.562 1_565 S
O140 C122 1.254 . S
O141 Pr120 2.490 1_565 S
O141 C122 1.225 . S
O142 Pr120 2.695 . S
O142 Pr121 2.436 . S
O142 C129 1.270 . S
O143 Pr120 2.512 . S
O143 C129 1.248 . S
O144 Pr121 2.438 . S
O144 C130 1.267 1_545 S
O145 Pr120 2.437 1_565 S
O145 C130 1.278 . S
O146 Pr121 2.562 . S
O146 C131 1.254 . S
O147 Pr121 2.490 . S
O147 C131 1.225 . S
O148 Pr120 2.436 . S
O148 Pr121 2.695 . S
O148 C138 1.270 . S
O149 Pr121 2.512 . S
O149 C138 1.248 . S
O150 Pr120 2.438 . S
O150 C139 1.267 . S
O151 Pr121 2.437 . S
O151 C139 1.278 . S
H152 C124 0.929 . S
H153 C125 0.929 . S
H154 C127 0.931 . S
H155 C128 0.930 . S
H156 C133 0.929 . S
H157 C134 0.929 . S
H158 C136 0.931 . S
H159 C137 0.930 . S
Pr160 C162 2.880 . S
Pr160 O180 2.562 . S
Pr160 O181 2.490 . S
Pr160 O182 2.695 . S
Pr160 O183 2.512 . S
Pr160 O185 2.437 . S
Pr160 O188 2.436 . S
Pr160 O190 2.438 . S
Pr161 C171 2.880 1_565 S
Pr161 O182 2.436 . S
Pr161 O184 2.438 . S
Pr161 O186 2.562 1_565 S
Pr161 O187 2.490 1_565 S
Pr161 O188 2.695 . S
Pr161 O189 2.512 . S
Pr161 O191 2.437 1_565 S
C162 Pr160 2.880 . S
C162 C163 1.491 . S
C162 O180 1.254 . S
C162 O181 1.225 . S
C163 C162 1.491 . S
C163 C164 1.392 . S
C163 C168 1.356 . S
C164 C163 1.392 . S
C164 C165 1.368 . S
C164 H192 0.929 . S
C165 C164 1.368 . S
C165 C166 1.386 . S
C165 H193 0.929 . S
C166 C165 1.386 . S
C166 C167 1.373 . S
C167 C166 1.373 . S
C167 C168 1.409 . S
C167 H194 0.931 . S
C168 C163 1.356 . S
C168 C167 1.409 . S
C168 H195 0.930 . S
C169 O182 1.270 . S
C169 O183 1.248 . S
C170 O184 1.267 . S
C170 O185 1.278 . S
C171 Pr161 2.880 1_545 S
C171 C172 1.491 . S
C171 O186 1.254 . S
C171 O187 1.225 . S
C172 C171 1.491 . S
C172 C173 1.392 . S
C172 C177 1.356 . S
C173 C172 1.392 . S
C173 C174 1.368 . S
C173 H196 0.929 . S
C174 C173 1.368 . S
C174 C175 1.386 . S
C174 H197 0.929 . S
C175 C174 1.386 . S
C175 C176 1.373 . S
C176 C175 1.373 . S
C176 C177 1.409 . S
C176 H198 0.931 . S
C177 C172 1.356 . S
C177 C176 1.409 . S
C177 H199 0.930 . S
C178 O188 1.270 . S
C178 O189 1.248 . S
C179 O190 1.267 1_545 S
C179 O191 1.278 . S
O180 Pr160 2.562 . S
O180 C162 1.254 . S
O181 Pr160 2.490 . S
O181 C162 1.225 . S
O182 Pr160 2.695 . S
O182 Pr161 2.436 . S
O182 C169 1.270 . S
O183 Pr160 2.512 . S
O183 C169 1.248 . S
O184 Pr161 2.438 . S
O184 C170 1.267 . S
O185 Pr160 2.437 . S
O185 C170 1.278 . S
O186 Pr161 2.562 1_545 S
O186 C171 1.254 . S
O187 Pr161 2.490 1_545 S
O187 C171 1.225 . S
O188 Pr160 2.436 . S
O188 Pr161 2.695 . S
O188 C178 1.270 . S
O189 Pr161 2.512 . S
O189 C178 1.248 . S
O190 Pr160 2.438 . S
O190 C179 1.267 1_565 S
O191 Pr161 2.437 1_545 S
O191 C179 1.278 . S
H192 C164 0.929 . S
H193 C165 0.929 . S
H194 C167 0.931 . S
H195 C168 0.930 . S
H196 C173 0.929 . S
H197 C174 0.929 . S
H198 C176 0.931 . S
H199 C177 0.930 . S
Pr200 C202 2.880 . S
Pr200 O220 2.562 . S
Pr200 O221 2.490 . S
Pr200 O222 2.695 . S
Pr200 O223 2.512 . S
Pr200 O225 2.437 . S
Pr200 O228 2.436 . S
Pr200 O230 2.438 . S
Pr201 C211 2.880 1_545 S
Pr201 O222 2.436 . S
Pr201 O224 2.438 . S
Pr201 O226 2.562 1_545 S
Pr201 O227 2.490 1_545 S
Pr201 O228 2.695 . S
Pr201 O229 2.512 . S
Pr201 O231 2.437 1_545 S
C202 Pr200 2.880 . S
C202 C203 1.491 . S
C202 O220 1.254 . S
C202 O221 1.225 . S
C203 C202 1.491 . S
C203 C204 1.392 . S
C203 C208 1.356 . S
C204 C203 1.392 . S
C204 C205 1.368 . S
C204 H232 0.929 . S
C205 C204 1.368 . S
C205 C206 1.386 . S
C205 H233 0.929 . S
C206 C205 1.386 . S
C206 C207 1.373 . S
C207 C206 1.373 . S
C207 C208 1.409 . S
C207 H234 0.931 . S
C208 C203 1.356 . S
C208 C207 1.409 . S
C208 H235 0.930 . S
C209 O222 1.270 . S
C209 O223 1.248 . S
C210 O224 1.267 . S
C210 O225 1.278 . S
C211 Pr201 2.880 1_565 S
C211 C212 1.491 . S
C211 O226 1.254 . S
C211 O227 1.225 . S
C212 C211 1.491 . S
C212 C213 1.392 . S
C212 C217 1.356 . S
C213 C212 1.392 . S
C213 C214 1.368 . S
C213 H236 0.929 . S
C214 C213 1.368 . S
C214 C215 1.386 . S
C214 H237 0.929 . S
C215 C214 1.386 . S
C215 C216 1.373 . S
C216 C215 1.373 . S
C216 C217 1.409 . S
C216 H238 0.931 . S
C217 C212 1.356 . S
C217 C216 1.409 . S
C217 H239 0.930 . S
C218 O228 1.270 . S
C218 O229 1.248 . S
C219 O230 1.267 1_565 S
C219 O231 1.278 . S
O220 Pr200 2.562 . S
O220 C202 1.254 . S
O221 Pr200 2.490 . S
O221 C202 1.225 . S
O222 Pr200 2.695 . S
O222 Pr201 2.436 . S
O222 C209 1.270 . S
O223 Pr200 2.512 . S
O223 C209 1.248 . S
O224 Pr201 2.438 . S
O224 C210 1.267 . S
O225 Pr200 2.437 . S
O225 C210 1.278 . S
O226 Pr201 2.562 1_565 S
O226 C211 1.254 . S
O227 Pr201 2.490 1_565 S
O227 C211 1.225 . S
O228 Pr200 2.436 . S
O228 Pr201 2.695 . S
O228 C218 1.270 . S
O229 Pr201 2.512 . S
O229 C218 1.248 . S
O230 Pr200 2.438 . S
O230 C219 1.267 1_545 S
O231 Pr201 2.437 1_565 S
O231 C219 1.278 . S
H232 C204 0.929 . S
H233 C205 0.929 . S
H234 C207 0.931 . S
H235 C208 0.930 . S
H236 C213 0.929 . S
H237 C214 0.929 . S
H238 C216 0.931 . S
H239 C217 0.930 . S
Pr240 C242 2.880 . S
Pr240 O260 2.562 . S
Pr240 O261 2.490 . S
Pr240 O262 2.695 . S
Pr240 O263 2.512 . S
Pr240 O265 2.437 . S
Pr240 O268 2.436 . S
Pr240 O270 2.438 . S
Pr241 C251 2.880 1_545 S
Pr241 O262 2.436 . S
Pr241 O264 2.438 . S
Pr241 O266 2.562 1_545 S
Pr241 O267 2.490 1_545 S
Pr241 O268 2.695 . S
Pr241 O269 2.512 . S
Pr241 O271 2.437 1_545 S
C242 Pr240 2.880 . S
C242 C243 1.491 . S
C242 O260 1.254 . S
C242 O261 1.225 . S
C243 C242 1.491 . S
C243 C244 1.392 . S
C243 C248 1.356 . S
C244 C243 1.392 . S
C244 C245 1.368 . S
C244 H272 0.929 . S
C245 C244 1.368 . S
C245 C246 1.386 . S
C245 H273 0.929 . S
C246 C245 1.386 . S
C246 C247 1.373 . S
C247 C246 1.373 . S
C247 C248 1.409 . S
C247 H274 0.931 . S
C248 C243 1.356 . S
C248 C247 1.409 . S
C248 H275 0.930 . S
C249 O262 1.270 . S
C249 O263 1.248 . S
C250 O264 1.267 . S
C250 O265 1.278 . S
C251 Pr241 2.880 1_565 S
C251 C252 1.491 . S
C251 O266 1.254 . S
C251 O267 1.225 . S
C252 C251 1.491 . S
C252 C253 1.392 . S
C252 C257 1.356 . S
C253 C252 1.392 . S
C253 C254 1.368 . S
C253 H276 0.929 . S
C254 C253 1.368 . S
C254 C255 1.386 . S
C254 H277 0.929 . S
C255 C254 1.386 . S
C255 C256 1.373 . S
C256 C255 1.373 . S
C256 C257 1.409 . S
C256 H278 0.931 . S
C257 C252 1.356 . S
C257 C256 1.409 . S
C257 H279 0.930 . S
C258 O268 1.270 . S
C258 O269 1.248 . S
C259 O270 1.267 1_565 S
C259 O271 1.278 . S
O260 Pr240 2.562 . S
O260 C242 1.254 . S
O261 Pr240 2.490 . S
O261 C242 1.225 . S
O262 Pr240 2.695 . S
O262 Pr241 2.436 . S
O262 C249 1.270 . S
O263 Pr240 2.512 . S
O263 C249 1.248 . S
O264 Pr241 2.438 . S
O264 C250 1.267 . S
O265 Pr240 2.437 . S
O265 C250 1.278 . S
O266 Pr241 2.562 1_565 S
O266 C251 1.254 . S
O267 Pr241 2.490 1_565 S
O267 C251 1.225 . S
O268 Pr240 2.436 . S
O268 Pr241 2.695 . S
O268 C258 1.270 . S
O269 Pr241 2.512 . S
O269 C258 1.248 . S
O270 Pr240 2.438 . S
O270 C259 1.267 1_545 S
O271 Pr241 2.437 1_565 S
O271 C259 1.278 . S
H272 C244 0.929 . S
H273 C245 0.929 . S
H274 C247 0.931 . S
H275 C248 0.930 . S
H276 C253 0.929 . S
H277 C254 0.929 . S
H278 C256 0.931 . S
H279 C257 0.930 . S
Pr280 C282 2.880 . S
Pr280 O300 2.562 . S
Pr280 O301 2.490 . S
Pr280 O302 2.695 . S
Pr280 O303 2.512 . S
Pr280 O305 2.437 . S
Pr280 O308 2.436 . S
Pr280 O310 2.438 . S
Pr281 C291 2.880 1_565 S
Pr281 O302 2.436 . S
Pr281 O304 2.438 . S
Pr281 O306 2.562 1_565 S
Pr281 O307 2.490 1_565 S
Pr281 O308 2.695 . S
Pr281 O309 2.512 . S
Pr281 O311 2.437 1_565 S
C282 Pr280 2.880 . S
C282 C283 1.491 . S
C282 O300 1.254 . S
C282 O301 1.225 . S
C283 C282 1.491 . S
C283 C284 1.392 . S
C283 C288 1.356 . S
C284 C283 1.392 . S
C284 C285 1.368 . S
C284 H312 0.929 . S
C285 C284 1.368 . S
C285 C286 1.386 . S
C285 H313 0.929 . S
C286 C285 1.386 . S
C286 C287 1.373 . S
C287 C286 1.373 . S
C287 C288 1.409 . S
C287 H314 0.931 . S
C288 C283 1.356 . S
C288 C287 1.409 . S
C288 H315 0.930 . S
C289 O302 1.270 . S
C289 O303 1.248 . S
C290 O304 1.267 . S
C290 O305 1.278 . S
C291 Pr281 2.880 1_545 S
C291 C292 1.491 . S
C291 O306 1.254 . S
C291 O307 1.225 . S
C292 C291 1.491 . S
C292 C293 1.392 . S
C292 C297 1.356 . S
C293 C292 1.392 . S
C293 C294 1.368 . S
C293 H316 0.929 . S
C294 C293 1.368 . S
C294 C295 1.386 . S
C294 H317 0.929 . S
C295 C294 1.386 . S
C295 C296 1.373 . S
C296 C295 1.373 . S
C296 C297 1.409 . S
C296 H318 0.931 . S
C297 C292 1.356 . S
C297 C296 1.409 . S
C297 H319 0.930 . S
C298 O308 1.270 . S
C298 O309 1.248 . S
C299 O310 1.267 1_545 S
C299 O311 1.278 . S
O300 Pr280 2.562 . S
O300 C282 1.254 . S
O301 Pr280 2.490 . S
O301 C282 1.225 . S
O302 Pr280 2.695 . S
O302 Pr281 2.436 . S
O302 C289 1.270 . S
O303 Pr280 2.512 . S
O303 C289 1.248 . S
O304 Pr281 2.438 . S
O304 C290 1.267 . S
O305 Pr280 2.437 . S
O305 C290 1.278 . S
O306 Pr281 2.562 1_545 S
O306 C291 1.254 . S
O307 Pr281 2.490 1_545 S
O307 C291 1.225 . S
O308 Pr280 2.436 . S
O308 Pr281 2.695 . S
O308 C298 1.270 . S
O309 Pr281 2.512 . S
O309 C298 1.248 . S
O310 Pr280 2.438 . S
O310 C299 1.267 1_565 S
O311 Pr281 2.437 1_545 S
O311 C299 1.278 . S
H312 C284 0.929 . S
H313 C285 0.929 . S
H314 C287 0.931 . S
H315 C288 0.930 . S
H316 C293 0.929 . S
H317 C294 0.929 . S
H318 C296 0.931 . S
H319 C297 0.930 . S
Pr320 C322 2.880 . S
Pr320 O340 2.562 . S
Pr320 O341 2.490 . S
Pr320 O342 2.695 . S
Pr320 O343 2.512 . S
Pr320 O345 2.437 . S
Pr320 O348 2.436 . S
Pr320 O350 2.438 . S
Pr321 C331 2.880 . S
Pr321 O342 2.436 . S
Pr321 O344 2.438 . S
Pr321 O346 2.562 . S
Pr321 O347 2.490 . S
Pr321 O348 2.695 . S
Pr321 O349 2.512 . S
Pr321 O351 2.437 . S
C322 Pr320 2.880 . S
C322 C323 1.491 . S
C322 O340 1.254 . S
C322 O341 1.225 . S
C323 C322 1.491 . S
C323 C324 1.392 . S
C323 C328 1.356 . S
C324 C323 1.392 . S
C324 C325 1.368 . S
C324 H352 0.929 . S
C325 C324 1.368 . S
C325 C326 1.386 . S
C325 H353 0.929 . S
C326 C325 1.386 . S
C326 C327 1.373 . S
C327 C326 1.373 . S
C327 C328 1.409 . S
C327 H354 0.931 . S
C328 C323 1.356 . S
C328 C327 1.409 . S
C328 H355 0.930 . S
C329 O342 1.270 . S
C329 O343 1.248 . S
C330 O344 1.267 . S
C330 O345 1.278 . S
C331 Pr321 2.880 . S
C331 C332 1.491 . S
C331 O346 1.254 . S
C331 O347 1.225 . S
C332 C331 1.491 . S
C332 C333 1.392 . S
C332 C337 1.356 . S
C333 C332 1.392 . S
C333 C334 1.368 1_565 S
C333 H356 0.929 . S
C334 C333 1.368 1_545 S
C334 C335 1.386 . S
C334 H357 0.929 . S
C335 C334 1.386 . S
C335 C336 1.373 . S
C336 C335 1.373 . S
C336 C337 1.409 1_545 S
C336 H358 0.931 . S
C337 C332 1.356 . S
C337 C336 1.409 1_565 S
C337 H359 0.930 . S
C338 O348 1.270 . S
C338 O349 1.248 . S
C339 O350 1.267 . S
C339 O351 1.278 . S
O340 Pr320 2.562 . S
O340 C322 1.254 . S
O341 Pr320 2.490 . S
O341 C322 1.225 . S
O342 Pr320 2.695 . S
O342 Pr321 2.436 . S
O342 C329 1.270 . S
O343 Pr320 2.512 . S
O343 C329 1.248 . S
O344 Pr321 2.438 . S
O344 C330 1.267 . S
O345 Pr320 2.437 . S
O345 C330 1.278 . S
O346 Pr321 2.562 . S
O346 C331 1.254 . S
O347 Pr321 2.490 . S
O347 C331 1.225 . S
O348 Pr320 2.436 . S
O348 Pr321 2.695 . S
O348 C338 1.270 . S
O349 Pr321 2.512 . S
O349 C338 1.248 . S
O350 Pr320 2.438 . S
O350 C339 1.267 . S
O351 Pr321 2.437 . S
O351 C339 1.278 . S
H352 C324 0.929 . S
H353 C325 0.929 . S
H354 C327 0.931 . S
H355 C328 0.930 . S
H356 C333 0.929 . S
H357 C334 0.929 . S
H358 C336 0.931 . S
H359 C337 0.930 . S
Pr360 C362 2.880 . S
Pr360 O380 2.562 . S
Pr360 O381 2.490 . S
Pr360 O382 2.695 . S
Pr360 O383 2.512 . S
Pr360 O385 2.437 . S
Pr360 O388 2.436 . S
Pr360 O390 2.438 . S
Pr361 C371 2.880 . S
Pr361 O382 2.436 . S
Pr361 O384 2.438 . S
Pr361 O386 2.562 . S
Pr361 O387 2.490 . S
Pr361 O388 2.695 . S
Pr361 O389 2.512 . S
Pr361 O391 2.437 . S
C362 Pr360 2.880 . S
C362 C363 1.491 . S
C362 O380 1.254 . S
C362 O381 1.225 . S
C363 C362 1.491 . S
C363 C364 1.392 . S
C363 C368 1.356 . S
C364 C363 1.392 . S
C364 C365 1.368 . S
C364 H392 0.929 . S
C365 C364 1.368 . S
C365 C366 1.386 . S
C365 H393 0.929 . S
C366 C365 1.386 . S
C366 C367 1.373 . S
C367 C366 1.373 . S
C367 C368 1.409 . S
C367 H394 0.931 . S
C368 C363 1.356 . S
C368 C367 1.409 . S
C368 H395 0.930 . S
C369 O382 1.270 . S
C369 O383 1.248 . S
C370 O384 1.267 . S
C370 O385 1.278 . S
C371 Pr361 2.880 . S
C371 C372 1.491 . S
C371 O386 1.254 . S
C371 O387 1.225 . S
C372 C371 1.491 . S
C372 C373 1.392 . S
C372 C377 1.356 . S
C373 C372 1.392 . S
C373 C374 1.368 1_545 S
C373 H396 0.929 . S
C374 C373 1.368 1_565 S
C374 C375 1.386 . S
C374 H397 0.929 . S
C375 C374 1.386 . S
C375 C376 1.373 . S
C376 C375 1.373 . S
C376 C377 1.409 1_565 S
C376 H398 0.931 . S
C377 C372 1.356 . S
C377 C376 1.409 1_545 S
C377 H399 0.930 . S
C378 O388 1.270 . S
C378 O389 1.248 . S
C379 O390 1.267 . S
C379 O391 1.278 . S
O380 Pr360 2.562 . S
O380 C362 1.254 . S
O381 Pr360 2.490 . S
O381 C362 1.225 . S
O382 Pr360 2.695 . S
O382 Pr361 2.436 . S
O382 C369 1.270 . S
O383 Pr360 2.512 . S
O383 C369 1.248 . S
O384 Pr361 2.438 . S
O384 C370 1.267 . S
O385 Pr360 2.437 . S
O385 C370 1.278 . S
O386 Pr361 2.562 . S
O386 C371 1.254 . S
O387 Pr361 2.490 . S
O387 C371 1.225 . S
O388 Pr360 2.436 . S
O388 Pr361 2.695 . S
O388 C378 1.270 . S
O389 Pr361 2.512 . S
O389 C378 1.248 . S
O390 Pr360 2.438 . S
O390 C379 1.267 . S
O391 Pr361 2.437 . S
O391 C379 1.278 . S
H392 C364 0.929 . S
H393 C365 0.929 . S
H394 C367 0.931 . S
H395 C368 0.930 . S
H396 C373 0.929 . S
H397 C374 0.929 . S
H398 C376 0.931 . S
H399 C377 0.930 . S
Pr400 C402 2.880 . S
Pr400 O420 2.562 . S
Pr400 O421 2.490 . S
Pr400 O422 2.695 . S
Pr400 O423 2.512 . S
Pr400 O425 2.437 . S
Pr400 O428 2.436 . S
Pr400 O430 2.438 . S
Pr401 C411 2.880 . S
Pr401 O422 2.436 . S
Pr401 O424 2.438 . S
Pr401 O426 2.562 . S
Pr401 O427 2.490 . S
Pr401 O428 2.695 . S
Pr401 O429 2.512 . S
Pr401 O431 2.437 . S
C402 Pr400 2.880 . S
C402 C403 1.491 . S
C402 O420 1.254 . S
C402 O421 1.225 . S
C403 C402 1.491 . S
C403 C404 1.392 . S
C403 C408 1.356 . S
C404 C403 1.392 . S
C404 C405 1.368 . S
C404 H432 0.929 . S
C405 C404 1.368 . S
C405 C406 1.386 . S
C405 H433 0.929 . S
C406 C405 1.386 . S
C406 C407 1.373 . S
C407 C406 1.373 . S
C407 C408 1.409 . S
C407 H434 0.931 . S
C408 C403 1.356 . S
C408 C407 1.409 . S
C408 H435 0.930 . S
C409 O422 1.270 . S
C409 O423 1.248 . S
C410 O424 1.267 . S
C410 O425 1.278 . S
C411 Pr401 2.880 . S
C411 C412 1.491 . S
C411 O426 1.254 . S
C411 O427 1.225 . S
C412 C411 1.491 . S
C412 C413 1.392 . S
C412 C417 1.356 . S
C413 C412 1.392 . S
C413 C414 1.368 1_545 S
C413 H436 0.929 . S
C414 C413 1.368 1_565 S
C414 C415 1.386 . S
C414 H437 0.929 . S
C415 C414 1.386 . S
C415 C416 1.373 . S
C416 C415 1.373 . S
C416 C417 1.409 1_565 S
C416 H438 0.931 . S
C417 C412 1.356 . S
C417 C416 1.409 1_545 S
C417 H439 0.930 . S
C418 O428 1.270 . S
C418 O429 1.248 . S
C419 O430 1.267 . S
C419 O431 1.278 . S
O420 Pr400 2.562 . S
O420 C402 1.254 . S
O421 Pr400 2.490 . S
O421 C402 1.225 . S
O422 Pr400 2.695 . S
O422 Pr401 2.436 . S
O422 C409 1.270 . S
O423 Pr400 2.512 . S
O423 C409 1.248 . S
O424 Pr401 2.438 . S
O424 C410 1.267 . S
O425 Pr400 2.437 . S
O425 C410 1.278 . S
O426 Pr401 2.562 . S
O426 C411 1.254 . S
O427 Pr401 2.490 . S
O427 C411 1.225 . S
O428 Pr400 2.436 . S
O428 Pr401 2.695 . S
O428 C418 1.270 . S
O429 Pr401 2.512 . S
O429 C418 1.248 . S
O430 Pr400 2.438 . S
O430 C419 1.267 . S
O431 Pr401 2.437 . S
O431 C419 1.278 . S
H432 C404 0.929 . S
H433 C405 0.929 . S
H434 C407 0.931 . S
H435 C408 0.930 . S
H436 C413 0.929 . S
H437 C414 0.929 . S
H438 C416 0.931 . S
H439 C417 0.930 . S
Pr440 C442 2.880 . S
Pr440 O460 2.562 . S
Pr440 O461 2.490 . S
Pr440 O462 2.695 . S
Pr440 O463 2.512 . S
Pr440 O465 2.437 . S
Pr440 O468 2.436 . S
Pr440 O470 2.438 . S
Pr441 C451 2.880 . S
Pr441 O462 2.436 . S
Pr441 O464 2.438 . S
Pr441 O466 2.562 . S
Pr441 O467 2.490 . S
Pr441 O468 2.695 . S
Pr441 O469 2.512 . S
Pr441 O471 2.437 . S
C442 Pr440 2.880 . S
C442 C443 1.491 . S
C442 O460 1.254 . S
C442 O461 1.225 . S
C443 C442 1.491 . S
C443 C444 1.392 . S
C443 C448 1.356 . S
C444 C443 1.392 . S
C444 C445 1.368 . S
C444 H472 0.929 . S
C445 C444 1.368 . S
C445 C446 1.386 . S
C445 H473 0.929 . S
C446 C445 1.386 . S
C446 C447 1.373 . S
C447 C446 1.373 . S
C447 C448 1.409 . S
C447 H474 0.931 . S
C448 C443 1.356 . S
C448 C447 1.409 . S
C448 H475 0.930 . S
C449 O462 1.270 . S
C449 O463 1.248 . S
C450 O464 1.267 . S
C450 O465 1.278 . S
C451 Pr441 2.880 . S
C451 C452 1.491 . S
C451 O466 1.254 . S
C451 O467 1.225 . S
C452 C451 1.491 . S
C452 C453 1.392 . S
C452 C457 1.356 . S
C453 C452 1.392 . S
C453 C454 1.368 1_565 S
C453 H476 0.929 . S
C454 C453 1.368 1_545 S
C454 C455 1.386 . S
C454 H477 0.929 . S
C455 C454 1.386 . S
C455 C456 1.373 . S
C456 C455 1.373 . S
C456 C457 1.409 1_545 S
C456 H478 0.931 . S
C457 C452 1.356 . S
C457 C456 1.409 1_565 S
C457 H479 0.930 . S
C458 O468 1.270 . S
C458 O469 1.248 . S
C459 O470 1.267 . S
C459 O471 1.278 . S
O460 Pr440 2.562 . S
O460 C442 1.254 . S
O461 Pr440 2.490 . S
O461 C442 1.225 . S
O462 Pr440 2.695 . S
O462 Pr441 2.436 . S
O462 C449 1.270 . S
O463 Pr440 2.512 . S
O463 C449 1.248 . S
O464 Pr441 2.438 . S
O464 C450 1.267 . S
O465 Pr440 2.437 . S
O465 C450 1.278 . S
O466 Pr441 2.562 . S
O466 C451 1.254 . S
O467 Pr441 2.490 . S
O467 C451 1.225 . S
O468 Pr440 2.436 . S
O468 Pr441 2.695 . S
O468 C458 1.270 . S
O469 Pr441 2.512 . S
O469 C458 1.248 . S
O470 Pr440 2.438 . S
O470 C459 1.267 . S
O471 Pr441 2.437 . S
O471 C459 1.278 . S
H472 C444 0.929 . S
H473 C445 0.929 . S
H474 C447 0.931 . S
H475 C448 0.930 . S
H476 C453 0.929 . S
H477 C454 0.929 . S
H478 C456 0.931 . S
H479 C457 0.930 . S
Pr480 C482 2.880 . S
Pr480 O500 2.562 . S
Pr480 O501 2.490 . S
Pr480 O502 2.695 . S
Pr480 O503 2.512 . S
Pr480 O505 2.437 . S
Pr480 O508 2.436 . S
Pr480 O510 2.438 . S
Pr481 C491 2.880 . S
Pr481 O502 2.436 . S
Pr481 O504 2.438 . S
Pr481 O506 2.562 . S
Pr481 O507 2.490 . S
Pr481 O508 2.695 . S
Pr481 O509 2.512 . S
Pr481 O511 2.437 . S
C482 Pr480 2.880 . S
C482 C483 1.491 . S
C482 O500 1.254 . S
C482 O501 1.225 . S
C483 C482 1.491 . S
C483 C484 1.392 . S
C483 C488 1.356 . S
C484 C483 1.392 . S
C484 C485 1.368 1_545 S
C484 H512 0.929 . S
C485 C484 1.368 1_565 S
C485 C486 1.386 . S
C485 H513 0.929 . S
C486 C485 1.386 . S
C486 C487 1.373 . S
C487 C486 1.373 . S
C487 C488 1.409 1_565 S
C487 H514 0.931 . S
C488 C483 1.356 . S
C488 C487 1.409 1_545 S
C488 H515 0.930 . S
C489 O502 1.270 . S
C489 O503 1.248 . S
C490 O504 1.267 . S
C490 O505 1.278 . S
C491 Pr481 2.880 . S
C491 C492 1.491 . S
C491 O506 1.254 . S
C491 O507 1.225 . S
C492 C491 1.491 . S
C492 C493 1.392 . S
C492 C497 1.356 . S
C493 C492 1.392 . S
C493 C494 1.368 . S
C493 H516 0.929 . S
C494 C493 1.368 . S
C494 C495 1.386 . S
C494 H517 0.929 . S
C495 C494 1.386 . S
C495 C496 1.373 . S
C496 C495 1.373 . S
C496 C497 1.409 . S
C496 H518 0.931 . S
C497 C492 1.356 . S
C497 C496 1.409 . S
C497 H519 0.930 . S
C498 O508 1.270 . S
C498 O509 1.248 . S
C499 O510 1.267 . S
C499 O511 1.278 . S
O500 Pr480 2.562 . S
O500 C482 1.254 . S
O501 Pr480 2.490 . S
O501 C482 1.225 . S
O502 Pr480 2.695 . S
O502 Pr481 2.436 . S
O502 C489 1.270 . S
O503 Pr480 2.512 . S
O503 C489 1.248 . S
O504 Pr481 2.438 . S
O504 C490 1.267 . S
O505 Pr480 2.437 . S
O505 C490 1.278 . S
O506 Pr481 2.562 . S
O506 C491 1.254 . S
O507 Pr481 2.490 . S
O507 C491 1.225 . S
O508 Pr480 2.436 . S
O508 Pr481 2.695 . S
O508 C498 1.270 . S
O509 Pr481 2.512 . S
O509 C498 1.248 . S
O510 Pr480 2.438 . S
O510 C499 1.267 . S
O511 Pr481 2.437 . S
O511 C499 1.278 . S
H512 C484 0.929 . S
H513 C485 0.929 . S
H514 C487 0.931 . S
H515 C488 0.930 . S
H516 C493 0.929 . S
H517 C494 0.929 . S
H518 C496 0.931 . S
H519 C497 0.930 . S
Pr520 C522 2.880 . S
Pr520 O540 2.562 . S
Pr520 O541 2.490 . S
Pr520 O542 2.695 . S
Pr520 O543 2.512 . S
Pr520 O545 2.437 . S
Pr520 O548 2.436 . S
Pr520 O550 2.438 . S
Pr521 C531 2.880 . S
Pr521 O542 2.436 . S
Pr521 O544 2.438 . S
Pr521 O546 2.562 . S
Pr521 O547 2.490 . S
Pr521 O548 2.695 . S
Pr521 O549 2.512 . S
Pr521 O551 2.437 . S
C522 Pr520 2.880 . S
C522 C523 1.491 . S
C522 O540 1.254 . S
C522 O541 1.225 . S
C523 C522 1.491 . S
C523 C524 1.392 . S
C523 C528 1.356 . S
C524 C523 1.392 . S
C524 C525 1.368 1_565 S
C524 H552 0.929 . S
C525 C524 1.368 1_545 S
C525 C526 1.386 . S
C525 H553 0.929 . S
C526 C525 1.386 . S
C526 C527 1.373 . S
C527 C526 1.373 . S
C527 C528 1.409 1_545 S
C527 H554 0.931 . S
C528 C523 1.356 . S
C528 C527 1.409 1_565 S
C528 H555 0.930 . S
C529 O542 1.270 . S
C529 O543 1.248 . S
C530 O544 1.267 . S
C530 O545 1.278 . S
C531 Pr521 2.880 . S
C531 C532 1.491 . S
C531 O546 1.254 . S
C531 O547 1.225 . S
C532 C531 1.491 . S
C532 C533 1.392 . S
C532 C537 1.356 . S
C533 C532 1.392 . S
C533 C534 1.368 . S
C533 H556 0.929 . S
C534 C533 1.368 . S
C534 C535 1.386 . S
C534 H557 0.929 . S
C535 C534 1.386 . S
C535 C536 1.373 . S
C536 C535 1.373 . S
C536 C537 1.409 . S
C536 H558 0.931 . S
C537 C532 1.356 . S
C537 C536 1.409 . S
C537 H559 0.930 . S
C538 O548 1.270 . S
C538 O549 1.248 . S
C539 O550 1.267 . S
C539 O551 1.278 . S
O540 Pr520 2.562 . S
O540 C522 1.254 . S
O541 Pr520 2.490 . S
O541 C522 1.225 . S
O542 Pr520 2.695 . S
O542 Pr521 2.436 . S
O542 C529 1.270 . S
O543 Pr520 2.512 . S
O543 C529 1.248 . S
O544 Pr521 2.438 . S
O544 C530 1.267 . S
O545 Pr520 2.437 . S
O545 C530 1.278 . S
O546 Pr521 2.562 . S
O546 C531 1.254 . S
O547 Pr521 2.490 . S
O547 C531 1.225 . S
O548 Pr520 2.436 . S
O548 Pr521 2.695 . S
O548 C538 1.270 . S
O549 Pr521 2.512 . S
O549 C538 1.248 . S
O550 Pr520 2.438 . S
O550 C539 1.267 . S
O551 Pr521 2.437 . S
O551 C539 1.278 . S
H552 C524 0.929 . S
H553 C525 0.929 . S
H554 C527 0.931 . S
H555 C528 0.930 . S
H556 C533 0.929 . S
H557 C534 0.929 . S
H558 C536 0.931 . S
H559 C537 0.930 . S
Pr560 C562 2.880 . S
Pr560 O580 2.562 . S
Pr560 O581 2.490 . S
Pr560 O582 2.695 . S
Pr560 O583 2.512 . S
Pr560 O585 2.437 . S
Pr560 O588 2.436 . S
Pr560 O590 2.438 . S
Pr561 C571 2.880 . S
Pr561 O582 2.436 . S
Pr561 O584 2.438 . S
Pr561 O586 2.562 . S
Pr561 O587 2.490 . S
Pr561 O588 2.695 . S
Pr561 O589 2.512 . S
Pr561 O591 2.437 . S
C562 Pr560 2.880 . S
C562 C563 1.491 . S
C562 O580 1.254 . S
C562 O581 1.225 . S
C563 C562 1.491 . S
C563 C564 1.392 . S
C563 C568 1.356 . S
C564 C563 1.392 . S
C564 C565 1.368 1_565 S
C564 H592 0.929 . S
C565 C564 1.368 1_545 S
C565 C566 1.386 . S
C565 H593 0.929 . S
C566 C565 1.386 . S
C566 C567 1.373 . S
C567 C566 1.373 . S
C567 C568 1.409 1_545 S
C567 H594 0.931 . S
C568 C563 1.356 . S
C568 C567 1.409 1_565 S
C568 H595 0.930 . S
C569 O582 1.270 . S
C569 O583 1.248 . S
C570 O584 1.267 . S
C570 O585 1.278 . S
C571 Pr561 2.880 . S
C571 C572 1.491 . S
C571 O586 1.254 . S
C571 O587 1.225 . S
C572 C571 1.491 . S
C572 C573 1.392 . S
C572 C577 1.356 . S
C573 C572 1.392 . S
C573 C574 1.368 . S
C573 H596 0.929 . S
C574 C573 1.368 . S
C574 C575 1.386 . S
C574 H597 0.929 . S
C575 C574 1.386 . S
C575 C576 1.373 . S
C576 C575 1.373 . S
C576 C577 1.409 . S
C576 H598 0.931 . S
C577 C572 1.356 . S
C577 C576 1.409 . S
C577 H599 0.930 . S
C578 O588 1.270 . S
C578 O589 1.248 . S
C579 O590 1.267 . S
C579 O591 1.278 . S
O580 Pr560 2.562 . S
O580 C562 1.254 . S
O581 Pr560 2.490 . S
O581 C562 1.225 . S
O582 Pr560 2.695 . S
O582 Pr561 2.436 . S
O582 C569 1.270 . S
O583 Pr560 2.512 . S
O583 C569 1.248 . S
O584 Pr561 2.438 . S
O584 C570 1.267 . S
O585 Pr560 2.437 . S
O585 C570 1.278 . S
O586 Pr561 2.562 . S
O586 C571 1.254 . S
O587 Pr561 2.490 . S
O587 C571 1.225 . S
O588 Pr560 2.436 . S
O588 Pr561 2.695 . S
O588 C578 1.270 . S
O589 Pr561 2.512 . S
O589 C578 1.248 . S
O590 Pr560 2.438 . S
O590 C579 1.267 . S
O591 Pr561 2.437 . S
O591 C579 1.278 . S
H592 C564 0.929 . S
H593 C565 0.929 . S
H594 C567 0.931 . S
H595 C568 0.930 . S
H596 C573 0.929 . S
H597 C574 0.929 . S
H598 C576 0.931 . S
H599 C577 0.930 . S
Pr600 C602 2.880 . S
Pr600 O620 2.562 . S
Pr600 O621 2.490 . S
Pr600 O622 2.695 . S
Pr600 O623 2.512 . S
Pr600 O625 2.437 . S
Pr600 O628 2.436 . S
Pr600 O630 2.438 . S
Pr601 C611 2.880 . S
Pr601 O622 2.436 . S
Pr601 O624 2.438 . S
Pr601 O626 2.562 . S
Pr601 O627 2.490 . S
Pr601 O628 2.695 . S
Pr601 O629 2.512 . S
Pr601 O631 2.437 . S
C602 Pr600 2.880 . S
C602 C603 1.491 . S
C602 O620 1.254 . S
C602 O621 1.225 . S
C603 C602 1.491 . S
C603 C604 1.392 . S
C603 C608 1.356 . S
C604 C603 1.392 . S
C604 C605 1.368 1_545 S
C604 H632 0.929 . S
C605 C604 1.368 1_565 S
C605 C606 1.386 . S
C605 H633 0.929 . S
C606 C605 1.386 . S
C606 C607 1.373 . S
C607 C606 1.373 . S
C607 C608 1.409 1_565 S
C607 H634 0.931 . S
C608 C603 1.356 . S
C608 C607 1.409 1_545 S
C608 H635 0.930 . S
C609 O622 1.270 . S
C609 O623 1.248 . S
C610 O624 1.267 . S
C610 O625 1.278 . S
C611 Pr601 2.880 . S
C611 C612 1.491 . S
C611 O626 1.254 . S
C611 O627 1.225 . S
C612 C611 1.491 . S
C612 C613 1.392 . S
C612 C617 1.356 . S
C613 C612 1.392 . S
C613 C614 1.368 . S
C613 H636 0.929 . S
C614 C613 1.368 . S
C614 C615 1.386 . S
C614 H637 0.929 . S
C615 C614 1.386 . S
C615 C616 1.373 . S
C616 C615 1.373 . S
C616 C617 1.409 . S
C616 H638 0.931 . S
C617 C612 1.356 . S
C617 C616 1.409 . S
C617 H639 0.930 . S
C618 O628 1.270 . S
C618 O629 1.248 . S
C619 O630 1.267 . S
C619 O631 1.278 . S
O620 Pr600 2.562 . S
O620 C602 1.254 . S
O621 Pr600 2.490 . S
O621 C602 1.225 . S
O622 Pr600 2.695 . S
O622 Pr601 2.436 . S
O622 C609 1.270 . S
O623 Pr600 2.512 . S
O623 C609 1.248 . S
O624 Pr601 2.438 . S
O624 C610 1.267 . S
O625 Pr600 2.437 . S
O625 C610 1.278 . S
O626 Pr601 2.562 . S
O626 C611 1.254 . S
O627 Pr601 2.490 . S
O627 C611 1.225 . S
O628 Pr600 2.436 . S
O628 Pr601 2.695 . S
O628 C618 1.270 . S
O629 Pr601 2.512 . S
O629 C618 1.248 . S
O630 Pr600 2.438 . S
O630 C619 1.267 . S
O631 Pr601 2.437 . S
O631 C619 1.278 . S
H632 C604 0.929 . S
H633 C605 0.929 . S
H634 C607 0.931 . S
H635 C608 0.930 . S
H636 C613 0.929 . S
H637 C614 0.929 . S
H638 C616 0.931 . S
H639 C617 0.930 . S
C19 C379 2.763 . S
C59 C339 2.763 . S
C459 C99 2.763 . S
C139 C419 2.763 . S
C530 C170 2.763 . S
C490 C210 2.763 . S
C610 C250 2.763 . S
C290 C570 2.763 . S
C98 C18 3.063 1_565 S
C138 C58 3.063 1_545 S
C249 C169 3.063 1_545 S
C209 C289 3.063 1_545 S
C418 C338 3.063 . S
C458 C378 3.063 . S
C489 C569 3.063 . S
C529 C609 3.063 . S
C218 C9 1.399 1_556 S
C178 C49 1.399 1_556 S
C89 C298 1.399 . S
C258 C129 1.399 . S
C329 C538 1.399 1_554 S
C498 C369 1.399 1_556 S
C409 C618 1.399 . S
C578 C449 1.399 . S
C50 C10 1.855 1_645 S
C130 C90 1.855 1_665 S
C219 C179 1.855 1_465 S
C259 C299 1.855 1_665 S
C370 C330 1.855 . S
C450 C410 1.855 . S
C499 C539 1.855 . S
C579 C619 1.855 . S
C6 C15 1.966 . S
C46 C55 1.966 . S
C86 C95 1.966 . S
C135 C126 1.966 . S
C175 C166 1.966 . S
C206 C215 1.966 . S
C255 C246 1.966 . S
C295 C286 1.966 . S
C335 C326 1.966 . S
C366 C375 1.966 . S
C415 C406 1.966 . S
C455 C446 1.966 . S
C495 C486 1.966 . S
C535 C526 1.966 . S
C566 C575 1.966 . S
C615 C606 1.966 . S
