# Generated by pormake.
# Topology vbm, (6)-cn, num edge types: 1
# Building blocks:
#     Node 0, Type 0, BuildingBlock: BETDEL_clean_sbu_0, # of connection points: 6
#     Node 1, Type 0, BuildingBlock: BETDEL_clean_sbu_0, # of connection points: 6
#     Node 2, Type 0, BuildingBlock: BETDEL_clean_sbu_0, # of connection points: 6
#     Node 3, Type 0, BuildingBlock: BETDEL_clean_sbu_0, # of connection points: 6
#     Node 4, Type 0, BuildingBlock: BETDEL_clean_sbu_0, # of connection points: 6
#     Node 5, Type 0, BuildingBlock: BETDEL_clean_sbu_0, # of connection points: 6
#     Node 6, Type 0, BuildingBlock: BETDEL_clean_sbu_0, # of connection points: 6
#     Node 7, Type 0, BuildingBlock: BETDEL_clean_sbu_0, # of connection points: 6
#     Node 8, Type 0, BuildingBlock: BETDEL_clean_sbu_0, # of connection points: 6
#     Node 9, Type 0, BuildingBlock: BETDEL_clean_sbu_0, # of connection points: 6
#     Node 10, Type 0, BuildingBlock: BETDEL_clean_sbu_0, # of connection points: 6
#     Node 11, Type 0, BuildingBlock: BETDEL_clean_sbu_0, # of connection points: 6
#     Node 12, Type 0, BuildingBlock: BETDEL_clean_sbu_0, # of connection points: 6
#     Node 13, Type 0, BuildingBlock: BETDEL_clean_sbu_0, # of connection points: 6
#     Node 14, Type 0, BuildingBlock: BETDEL_clean_sbu_0, # of connection points: 6
#     Node 15, Type 0, BuildingBlock: BETDEL_clean_sbu_0, # of connection points: 6
#     Edge 16, Type (0, 0), BuildingBlock: OJICUG_clean_linker_0, # of connection points: 2
#     Edge 17, Type (0, 0), BuildingBlock: OJICUG_clean_linker_0, # of connection points: 2
#     Edge 18, Type (0, 0), BuildingBlock: OJICUG_clean_linker_0, # of connection points: 2
#     Edge 19, Type (0, 0), BuildingBlock: OJICUG_clean_linker_0, # of connection points: 2
#     Edge 20, Type (0, 0), BuildingBlock: OJICUG_clean_linker_0, # of connection points: 2
#     Edge 21, Type (0, 0), BuildingBlock: OJICUG_clean_linker_0, # of connection points: 2
#     Edge 22, Type (0, 0), BuildingBlock: OJICUG_clean_linker_0, # of connection points: 2
#     Edge 23, Type (0, 0), BuildingBlock: OJICUG_clean_linker_0, # of connection points: 2
#     Edge 24, Type (0, 0), BuildingBlock: OJICUG_clean_linker_0, # of connection points: 2
#     Edge 25, Type (0, 0), BuildingBlock: OJICUG_clean_linker_0, # of connection points: 2
#     Edge 26, Type (0, 0), BuildingBlock: OJICUG_clean_linker_0, # of connection points: 2
#     Edge 27, Type (0, 0), BuildingBlock: OJICUG_clean_linker_0, # of connection points: 2
#     Edge 28, Type (0, 0), BuildingBlock: OJICUG_clean_linker_0, # of connection points: 2
#     Edge 29, Type (0, 0), BuildingBlock: OJICUG_clean_linker_0, # of connection points: 2
#     Edge 30, Type (0, 0), BuildingBlock: OJICUG_clean_linker_0, # of connection points: 2
#     Edge 31, Type (0, 0), BuildingBlock: OJICUG_clean_linker_0, # of connection points: 2
#     Edge 32, Type (0, 0), BuildingBlock: OJICUG_clean_linker_0, # of connection points: 2
#     Edge 33, Type (0, 0), BuildingBlock: OJICUG_clean_linker_0, # of connection points: 2
#     Edge 34, Type (0, 0), BuildingBlock: OJICUG_clean_linker_0, # of connection points: 2
#     Edge 35, Type (0, 0), BuildingBlock: OJICUG_clean_linker_0, # of connection points: 2
#     Edge 36, Type (0, 0), BuildingBlock: OJICUG_clean_linker_0, # of connection points: 2
#     Edge 37, Type (0, 0), BuildingBlock: OJICUG_clean_linker_0, # of connection points: 2
#     Edge 38, Type (0, 0), BuildingBlock: OJICUG_clean_linker_0, # of connection points: 2
#     Edge 39, Type (0, 0), BuildingBlock: OJICUG_clean_linker_0, # of connection points: 2
#     Edge 40, Type (0, 0), BuildingBlock: OJICUG_clean_linker_0, # of connection points: 2
#     Edge 41, Type (0, 0), BuildingBlock: OJICUG_clean_linker_0, # of connection points: 2
#     Edge 42, Type (0, 0), BuildingBlock: OJICUG_clean_linker_0, # of connection points: 2
#     Edge 43, Type (0, 0), BuildingBlock: OJICUG_clean_linker_0, # of connection points: 2
#     Edge 44, Type (0, 0), BuildingBlock: OJICUG_clean_linker_0, # of connection points: 2
#     Edge 45, Type (0, 0), BuildingBlock: OJICUG_clean_linker_0, # of connection points: 2
#     Edge 46, Type (0, 0), BuildingBlock: OJICUG_clean_linker_0, # of connection points: 2
#     Edge 47, Type (0, 0), BuildingBlock: OJICUG_clean_linker_0, # of connection points: 2
#     Edge 48, Type (0, 0), BuildingBlock: OJICUG_clean_linker_0, # of connection points: 2
#     Edge 49, Type (0, 0), BuildingBlock: OJICUG_clean_linker_0, # of connection points: 2
#     Edge 50, Type (0, 0), BuildingBlock: OJICUG_clean_linker_0, # of connection points: 2
#     Edge 51, Type (0, 0), BuildingBlock: OJICUG_clean_linker_0, # of connection points: 2
#     Edge 52, Type (0, 0), BuildingBlock: OJICUG_clean_linker_0, # of connection points: 2
#     Edge 53, Type (0, 0), BuildingBlock: OJICUG_clean_linker_0, # of connection points: 2
#     Edge 54, Type (0, 0), BuildingBlock: OJICUG_clean_linker_0, # of connection points: 2
#     Edge 55, Type (0, 0), BuildingBlock: OJICUG_clean_linker_0, # of connection points: 2
#     Edge 56, Type (0, 0), BuildingBlock: OJICUG_clean_linker_0, # of connection points: 2
#     Edge 57, Type (0, 0), BuildingBlock: OJICUG_clean_linker_0, # of connection points: 2
#     Edge 58, Type (0, 0), BuildingBlock: OJICUG_clean_linker_0, # of connection points: 2
#     Edge 59, Type (0, 0), BuildingBlock: OJICUG_clean_linker_0, # of connection points: 2
#     Edge 60, Type (0, 0), BuildingBlock: OJICUG_clean_linker_0, # of connection points: 2
#     Edge 61, Type (0, 0), BuildingBlock: OJICUG_clean_linker_0, # of connection points: 2
#     Edge 62, Type (0, 0), BuildingBlock: OJICUG_clean_linker_0, # of connection points: 2
#     Edge 63, Type (0, 0), BuildingBlock: OJICUG_clean_linker_0, # of connection points: 2
# Relax obj value: 0.061
# Max RMSD: 0.119
# Mean RMSD: 0.119
data_MOF--net-vbm--node1-BETDEL_clean_sbu_0--edge1-OJICUG_clean_linker_0
_symmetry_space_group_name_H-M    P1
_symmetry_Int_Tables_number       1
_symmetry_cell_setting            triclinic
loop_
_symmetry_equiv_pos_as_xyz
'x, y, z'
_cell_length_a     43.061203
_cell_length_b     13.9222
_cell_length_c     40.494463
_cell_angle_alpha  89.976642
_cell_angle_beta   89.925111
_cell_angle_gamma 90.021142
loop_
_atom_site_label
_atom_site_type_symbol
_atom_site_fract_x
_atom_site_fract_y
_atom_site_fract_z
_atom_type_partial_charge
Dy0 Dy 0.12172 0.04808 0.15089 0.0
C1 C 0.09665 0.44528 0.15545 0.0
C2 C 0.12412 0.85169 0.155 0.0
Dy3 Dy 0.09919 0.24867 0.15815 0.0
O4 O 0.12892 0.90168 0.12844 0.0
O5 O 0.11967 0.90934 0.17975 0.0
O6 O 0.14685 0.08683 0.10498 0.0
O7 O 0.10382 0.15337 0.1148 0.0
C8 C 0.12661 0.14941 0.09482 0.0
C9 C 0.09569 0.14155 0.21344 0.0
O10 O 0.0541 0.19114 0.14106 0.0
O11 O 0.06959 0.03428 0.15028 0.0
O12 O 0.09259 0.39394 0.18185 0.0
O13 O 0.1004 0.38889 0.13024 0.0
O14 O 0.07475 0.20426 0.20513 0.0
O15 O 0.11779 0.14304 0.193 0.0
O16 O 0.16703 0.11103 0.16722 0.0
O17 O 0.15069 0.26653 0.15719 0.0
C18 C 0.0478 0.09854 0.14356 0.0
C19 C 0.17281 0.20428 0.16422 0.0
Dy20 Dy 0.84734 1.01679 0.1543 0.0
C21 C 0.87238 0.61947 0.15959 0.0
C22 C 0.84494 0.2131 0.15861 0.0
Dy23 Dy 0.8698 0.81611 0.16182 0.0
O24 O 0.8406 0.16344 0.13191 0.0
O25 O 0.84894 0.15516 0.18338 0.0
O26 O 0.82229 0.97842 0.10839 0.0
O27 O 0.86515 0.91099 0.11834 0.0
C28 C 0.84239 0.91511 0.09839 0.0
C29 C 0.87326 0.92392 0.21691 0.0
O30 O 0.91485 0.87319 0.14429 0.0
O31 O 0.89949 1.0304 0.15308 0.0
O32 O 0.87554 0.67115 0.18603 0.0
O33 O 0.8695 0.67553 0.13416 0.0
O34 O 0.89425 0.8613 0.20861 0.0
O35 O 0.85116 0.92216 0.19652 0.0
O36 O 0.80178 0.95375 0.16983 0.0
O37 O 0.81835 0.79823 0.16022 0.0
C38 C 0.92119 0.96587 0.1463 0.0
C39 C 0.79608 0.8605 0.16674 0.0
Dy40 Dy 0.12132 1.01515 0.39753 0.0
C41 C 0.09623 0.61805 0.39418 0.0
C42 C 0.12344 0.21142 0.39242 0.0
Dy43 Dy 0.09846 0.81465 0.39069 0.0
O44 O 0.13173 0.16215 0.41817 0.0
O45 O 0.11561 0.15308 0.36886 0.0
O46 O 0.14654 0.97691 0.4434 0.0
O47 O 0.10351 0.91025 0.43387 0.0
C48 C 0.12637 0.91413 0.45367 0.0
C49 C 0.09506 0.92138 0.33525 0.0
O50 O 0.05383 0.87237 0.40929 0.0
O51 O 0.06923 1.02946 0.40022 0.0
O52 O 0.08872 0.66884 0.3685 0.0
O53 O 0.10328 0.675 0.41839 0.0
O54 O 0.07405 0.85892 0.34368 0.0
O55 O 0.11713 0.9197 0.35563 0.0
O56 O 0.16618 0.9519 0.37979 0.0
O57 O 0.14996 0.79628 0.38992 0.0
C58 C 0.04754 0.96512 0.40736 0.0
C59 C 0.172 0.85858 0.38248 0.0
Dy60 Dy 0.84731 0.04963 0.4009 0.0
C61 C 0.87243 0.44666 0.39804 0.0
C62 C 0.84519 0.85329 0.39604 0.0
Dy63 Dy 0.87023 0.25014 0.39421 0.0
O64 O 0.8367 0.90277 0.42168 0.0
O65 O 0.85319 0.91145 0.37247 0.0
O66 O 0.82203 0.08809 0.44678 0.0
O67 O 0.86519 0.15405 0.4373 0.0
C68 C 0.84232 0.15024 0.45715 0.0
C69 C 0.87373 0.14404 0.33866 0.0
O70 O 0.91492 0.19193 0.41234 0.0
O71 O 0.8994 0.03517 0.40295 0.0
O72 O 0.88032 0.39622 0.3724 0.0
O73 O 0.86502 0.38939 0.42208 0.0
O74 O 0.89467 0.20668 0.34706 0.0
O75 O 0.85165 0.14542 0.35908 0.0
O76 O 0.80272 0.11293 0.38246 0.0
O77 O 0.8187 0.26845 0.39301 0.0
C78 C 0.92117 0.09925 0.40998 0.0
C79 C 0.79682 0.20621 0.38508 0.0
Dy80 Dy 0.87016 0.81247 0.8943 0.0
C81 C 0.84514 0.20915 0.89624 0.0
C82 C 0.8723 0.61592 0.89822 0.0
Dy83 Dy 0.84728 1.01277 0.90098 0.0
O84 O 0.8803 0.66635 0.8726 0.0
O85 O 0.86479 0.67322 0.92219 0.0
O86 O 0.8946 0.85548 0.84712 0.0
O87 O 0.85163 0.91733 0.85911 0.0
C88 C 0.87371 0.91818 0.83868 0.0
C89 C 0.84224 0.91156 0.9572 0.0
O90 O 0.80271 0.94953 0.88244 0.0
O91 O 0.81865 0.79401 0.89301 0.0
O92 O 0.83674 0.15948 0.92188 0.0
O93 O 0.85307 0.15117 0.87261 0.0
O94 O 0.8219 0.97345 0.94677 0.0
O95 O 0.86516 0.90849 0.93742 0.0
O96 O 0.91485 0.87053 0.91243 0.0
O97 O 0.89938 1.02725 0.90295 0.0
C98 C 0.79679 0.85623 0.88503 0.0
C99 C 0.92113 0.96318 0.91002 0.0
Dy100 Dy 0.09851 0.24731 0.89063 0.0
C101 C 0.12349 0.85066 0.89258 0.0
C102 C 0.09634 0.44389 0.89419 0.0
Dy103 Dy 0.12134 0.04694 0.89757 0.0
O104 O 0.08881 0.39323 0.8685 0.0
O105 O 0.10338 0.38683 0.91838 0.0
O106 O 0.07414 0.20353 0.8436 0.0
O107 O 0.11716 0.14215 0.85559 0.0
C108 C 0.09511 0.14102 0.83518 0.0
C109 C 0.12641 0.14849 0.95362 0.0
O110 O 0.16621 0.11023 0.87979 0.0
O111 O 0.15 0.26583 0.88983 0.0
O112 O 0.1316 0.89999 0.91836 0.0
O113 O 0.11583 0.90894 0.86893 0.0
O114 O 0.14663 0.08593 0.94335 0.0
O115 O 0.10352 0.15167 0.93387 0.0
O116 O 0.05388 0.18965 0.90923 0.0
O117 O 0.06924 0.0326 0.90016 0.0
C118 C 0.17203 0.20356 0.88241 0.0
C119 C 0.04756 0.09694 0.90729 0.0
Dy120 Dy 0.86983 0.24593 0.66174 0.0
C121 C 0.84491 0.84899 0.6584 0.0
C122 C 0.87238 0.44262 0.65943 0.0
Dy123 Dy 0.84736 0.04538 0.65421 0.0
O124 O 0.87557 0.39096 0.68588 0.0
O125 O 0.86949 0.38652 0.63402 0.0
O126 O 0.89423 0.20126 0.70858 0.0
O127 O 0.85118 0.1397 0.69648 0.0
C128 C 0.87327 0.13852 0.7169 0.0
C129 C 0.84243 0.14763 0.59833 0.0
O130 O 0.80178 0.10834 0.66974 0.0
O131 O 0.81839 0.26389 0.66018 0.0
O132 O 0.84074 0.89884 0.6317 0.0
O133 O 0.84874 0.90678 0.68323 0.0
O134 O 0.82226 0.08451 0.60837 0.0
O135 O 0.86523 0.15107 0.61825 0.0
O136 O 0.91491 0.18899 0.64431 0.0
O137 O 0.89951 0.03179 0.65314 0.0
C138 C 0.79611 0.20162 0.66669 0.0
C139 C 0.92124 0.09633 0.64638 0.0
Dy140 Dy 0.09926 0.81375 0.6582 0.0
C141 C 0.12426 0.21071 0.65486 0.0
C142 C 0.09675 0.61711 0.65542 0.0
Dy143 Dy 0.12182 1.01426 0.65088 0.0
O144 O 0.09271 0.66831 0.68184 0.0
O145 O 0.10047 0.67366 0.63023 0.0
O146 O 0.07488 0.85753 0.70522 0.0
O147 O 0.11787 0.91949 0.69304 0.0
C148 C 0.09579 0.92035 0.71352 0.0
C149 C 0.12666 0.9125 0.59487 0.0
O150 O 0.16714 0.95132 0.66719 0.0
O151 O 0.15074 0.79583 0.65726 0.0
O152 O 0.12886 0.16067 0.62828 0.0
O153 O 0.12001 0.15309 0.67968 0.0
O154 O 0.14697 0.97489 0.60503 0.0
O155 O 0.10384 0.90917 0.61482 0.0
O156 O 0.05415 0.87122 0.64119 0.0
O157 O 0.06967 1.02805 0.65041 0.0
C158 C 0.1729 0.85806 0.66425 0.0
C159 C 0.04786 0.9638 0.64372 0.0
Dy160 Dy 0.62169 0.54956 0.14139 0.0
C161 C 0.59657 0.94655 0.14428 0.0
C162 C 0.62383 0.35321 0.14616 0.0
Dy163 Dy 0.5988 0.75001 0.14807 0.0
O164 O 0.63208 0.40284 0.12046 0.0
O165 O 0.61606 0.41123 0.16984 0.0
O166 O 0.64699 0.5882 0.09553 0.0
O167 O 0.60382 0.65402 0.10497 0.0
C168 C 0.6267 0.65027 0.08514 0.0
C169 C 0.59529 0.64384 0.20363 0.0
O170 O 0.55408 0.69179 0.13005 0.0
O171 O 0.56959 0.53508 0.13951 0.0
O172 O 0.58892 0.896 0.16999 0.0
O173 O 0.60377 0.88938 0.12016 0.0
O174 O 0.57435 0.70645 0.19522 0.0
O175 O 0.61737 0.64527 0.18321 0.0
O176 O 0.66629 0.61287 0.15981 0.0
O177 O 0.65033 0.76836 0.14918 0.0
C178 C 0.54782 0.59913 0.13249 0.0
C179 C 0.6722 0.70616 0.15714 0.0
Dy180 Dy 0.34771 0.51505 0.14613 0.0
C181 C 0.37276 0.11799 0.14953 0.0
C182 C 0.34562 0.71127 0.15129 0.0
Dy183 Dy 0.37056 0.31455 0.15302 0.0
O184 O 0.33722 0.6621 0.12557 0.0
O185 O 0.35355 0.65287 0.17479 0.0
O186 O 0.32247 0.47683 0.10028 0.0
O187 O 0.36547 0.41016 0.10982 0.0
C188 C 0.34261 0.41404 0.09002 0.0
C189 C 0.374 0.4213 0.20842 0.0
O190 O 0.41514 0.3723 0.13426 0.0
O191 O 0.3998 0.5294 0.14329 0.0
O192 O 0.38036 0.16872 0.17518 0.0
O193 O 0.36563 0.17497 0.12534 0.0
O194 O 0.395 0.35888 0.19999 0.0
O195 O 0.35192 0.41958 0.18805 0.0
O196 O 0.30287 0.45175 0.16395 0.0
O197 O 0.31905 0.29614 0.15385 0.0
C198 C 0.42145 0.46504 0.13611 0.0
C199 C 0.29704 0.35844 0.1613 0.0
Dy200 Dy 0.62169 0.51669 0.38805 0.0
C201 C 0.59661 0.11934 0.38285 0.0
C202 C 0.62409 0.71301 0.38367 0.0
Dy203 Dy 0.59919 0.31601 0.38058 0.0
O204 O 0.62863 0.66334 0.41034 0.0
O205 O 0.61989 0.65508 0.35895 0.0
O206 O 0.64673 0.47831 0.43396 0.0
O207 O 0.60386 0.41087 0.42403 0.0
C208 C 0.62663 0.41499 0.44398 0.0
C209 C 0.59573 0.42383 0.32547 0.0
O210 O 0.55416 0.37304 0.39818 0.0
O211 O 0.56954 0.53029 0.38939 0.0
O212 O 0.59326 0.17106 0.35643 0.0
O213 O 0.59968 0.17538 0.40825 0.0
O214 O 0.57473 0.36121 0.33379 0.0
O215 O 0.61784 0.42207 0.34584 0.0
O216 O 0.66724 0.45371 0.37248 0.0
O217 O 0.65065 0.29815 0.3821 0.0
C218 C 0.54784 0.46573 0.3962 0.0
C219 C 0.67293 0.36045 0.37557 0.0
Dy220 Dy 0.3473 0.54807 0.39271 0.0
C221 C 0.37244 0.94536 0.388 0.0
C222 C 0.34487 0.35166 0.38873 0.0
Dy223 Dy 0.36986 0.74873 0.38539 0.0
O224 O 0.34052 0.40167 0.41535 0.0
O225 O 0.34887 0.40929 0.36387 0.0
O226 O 0.32221 0.58678 0.43862 0.0
O227 O 0.36524 0.65339 0.42876 0.0
C228 C 0.34246 0.64938 0.44875 0.0
C229 C 0.37333 0.64164 0.33013 0.0
O230 O 0.415 0.69114 0.40227 0.0
O231 O 0.39944 0.53431 0.39308 0.0
O232 O 0.37603 0.89402 0.36153 0.0
O233 O 0.36913 0.88896 0.41329 0.0
O234 O 0.39427 0.70442 0.3384 0.0
O235 O 0.35123 0.64307 0.35059 0.0
O236 O 0.30196 0.61107 0.37652 0.0
O237 O 0.31836 0.76652 0.38654 0.0
C238 C 0.42127 0.59853 0.39972 0.0
C239 C 0.29621 0.7043 0.37954 0.0
Dy240 Dy 0.3698 0.31397 0.8855 0.0
C241 C 0.34484 0.71088 0.88892 0.0
C242 C 0.37232 0.11733 0.88824 0.0
Dy243 Dy 0.34729 0.51442 0.89282 0.0
O244 O 0.37616 0.16863 0.86179 0.0
O245 O 0.3688 0.17378 0.91347 0.0
O246 O 0.3942 0.35785 0.83848 0.0
O247 O 0.35122 0.41977 0.85065 0.0
C248 C 0.37331 0.42068 0.83017 0.0
C249 C 0.3424 0.41253 0.94883 0.0
O250 O 0.30196 0.45148 0.87653 0.0
O251 O 0.31833 0.29601 0.88652 0.0
O252 O 0.34047 0.6607 0.91552 0.0
O253 O 0.34888 0.65338 0.86404 0.0
O254 O 0.3221 0.4749 0.93865 0.0
O255 O 0.36523 0.40925 0.92889 0.0
O256 O 0.41495 0.37142 0.90243 0.0
O257 O 0.39944 0.52822 0.89316 0.0
C258 C 0.29619 0.35822 0.87949 0.0
C259 C 0.42125 0.46399 0.89984 0.0
Dy260 Dy 0.59925 0.74598 0.88055 0.0
C261 C 0.62411 0.34913 0.8837 0.0
C262 C 0.59675 0.94264 0.88302 0.0
Dy263 Dy 0.62171 0.54546 0.88806 0.0
O264 O 0.59292 0.89115 0.85663 0.0
O265 O 0.60026 0.88638 0.9083 0.0
O266 O 0.57485 0.70137 0.83371 0.0
O267 O 0.6179 0.63991 0.84581 0.0
C268 C 0.59581 0.63873 0.82538 0.0
C269 C 0.62664 0.64756 0.94395 0.0
O270 O 0.66725 0.60842 0.87238 0.0
O271 O 0.65069 0.76401 0.88186 0.0
O272 O 0.62887 0.39879 0.91032 0.0
O273 O 0.61969 0.40708 0.85902 0.0
O274 O 0.64679 0.58445 0.93392 0.0
O275 O 0.60385 0.65101 0.92403 0.0
O276 O 0.55423 0.68903 0.89822 0.0
O277 O 0.56955 0.5318 0.88943 0.0
C278 C 0.67295 0.70171 0.87537 0.0
C279 C 0.54787 0.59637 0.89624 0.0
Dy280 Dy 0.37058 0.74739 0.65291 0.0
C281 C 0.34561 0.35073 0.65113 0.0
C282 C 0.37271 0.94399 0.64928 0.0
Dy283 Dy 0.34772 0.54703 0.64605 0.0
O284 O 0.38058 0.89333 0.67487 0.0
O285 O 0.36535 0.88692 0.62521 0.0
O286 O 0.39496 0.70366 0.69995 0.0
O287 O 0.35193 0.64222 0.688 0.0
C288 C 0.37399 0.64112 0.70841 0.0
C289 C 0.34265 0.64855 0.58995 0.0
O290 O 0.30288 0.61022 0.6639 0.0
O291 O 0.31909 0.76587 0.65385 0.0
O292 O 0.33718 0.40005 0.62544 0.0
O293 O 0.35357 0.40904 0.67464 0.0
O294 O 0.32243 0.58595 0.60025 0.0
O295 O 0.36554 0.65177 0.6097 0.0
O296 O 0.41517 0.68982 0.63419 0.0
O297 O 0.39982 0.53272 0.64328 0.0
C298 C 0.29706 0.70355 0.66128 0.0
C299 C 0.42149 0.5971 0.6361 0.0
Dy300 Dy 0.59888 0.31256 0.6481 0.0
C301 C 0.62396 0.70933 0.64604 0.0
C302 C 0.59669 0.116 0.64422 0.0
Dy303 Dy 0.62178 0.51293 0.64136 0.0
O304 O 0.58895 0.16638 0.66992 0.0
O305 O 0.60396 0.17335 0.62015 0.0
O306 O 0.57449 0.35549 0.69529 0.0
O307 O 0.61746 0.4174 0.68324 0.0
C308 C 0.5954 0.41821 0.7037 0.0
C309 C 0.62676 0.41177 0.58517 0.0
O310 O 0.6664 0.44965 0.65977 0.0
O311 O 0.65038 0.29414 0.64925 0.0
O312 O 0.6321 0.65968 0.62031 0.0
O313 O 0.61629 0.65132 0.66978 0.0
O314 O 0.64712 0.47367 0.59556 0.0
O315 O 0.60385 0.40867 0.60497 0.0
O316 O 0.55414 0.37068 0.63014 0.0
O317 O 0.56968 0.52737 0.63957 0.0
C318 C 0.67228 0.35634 0.65717 0.0
C319 C 0.54788 0.46332 0.63259 0.0
C320 C 0.20957 0.34291 0.16796 0.0
C321 C 0.2047 0.24267 0.16727 0.0
H322 H 0.24248 0.45838 0.1668 0.0
C323 C 0.23047 0.18145 0.16738 0.0
H324 H 0.19017 0.39242 0.16824 0.0
C325 C 0.26046 0.21965 0.16656 0.0
C326 C 0.2653 0.3199 0.16573 0.0
H327 H 0.22753 0.10419 0.16697 0.0
H328 H 0.27985 0.17014 0.16578 0.0
C329 C 0.23956 0.38111 0.16724 0.0
C330 C 0.75914 0.72216 0.16934 0.0
C331 C 0.76408 0.82233 0.16834 0.0
H332 H 0.72635 0.60661 0.16667 0.0
C333 C 0.73838 0.88353 0.16615 0.0
H334 H 0.77848 0.67274 0.17133 0.0
C335 C 0.70851 0.84526 0.1634 0.0
C336 C 0.7037 0.74497 0.16292 0.0
H337 H 0.74138 0.96074 0.16533 0.0
H338 H 0.68925 0.89473 0.16092 0.0
C339 C 0.72927 0.68389 0.16671 0.0
C340 C 0.23852 0.68155 0.37644 0.0
C341 C 0.26432 0.74275 0.37655 0.0
H342 H 0.18914 0.67028 0.37802 0.0
C343 C 0.25948 0.843 0.37589 0.0
H344 H 0.24144 0.60429 0.37684 0.0
C345 C 0.2295 0.88122 0.3766 0.0
C346 C 0.20373 0.82004 0.37809 0.0
H347 H 0.27889 0.89249 0.37561 0.0
H348 H 0.2266 0.95849 0.37705 0.0
C349 C 0.20855 0.71978 0.37726 0.0
C350 C 0.73973 0.18389 0.37559 0.0
C351 C 0.76531 0.24499 0.37931 0.0
H352 H 0.69051 0.17269 0.37105 0.0
C353 C 0.76051 0.34528 0.37879 0.0
H354 H 0.74264 0.10661 0.37566 0.0
C355 C 0.73064 0.38352 0.37607 0.0
C356 C 0.70493 0.3223 0.37395 0.0
H357 H 0.77978 0.39478 0.38122 0.0
H358 H 0.72765 0.46073 0.37685 0.0
C359 C 0.70985 0.22212 0.37298 0.0
C360 C 0.73065 0.67876 0.87592 0.0
C361 C 0.70495 0.7399 0.8737 0.0
H362 H 0.77978 0.66763 0.8812 0.0
C363 C 0.70987 0.84009 0.87267 0.0
H364 H 0.72766 0.60153 0.87675 0.0
C365 C 0.73974 0.87842 0.87533 0.0
C366 C 0.76531 0.81738 0.87916 0.0
H367 H 0.69053 0.88947 0.87065 0.0
H368 H 0.74264 0.9557 0.87536 0.0
C369 C 0.76051 0.71708 0.87868 0.0
C370 C 0.25949 0.21944 0.87576 0.0
C371 C 0.26432 0.3197 0.87644 0.0
H372 H 0.22663 0.10383 0.87692 0.0
C373 C 0.23852 0.38082 0.87633 0.0
H374 H 0.27891 0.17001 0.87548 0.0
C375 C 0.20855 0.34248 0.87714 0.0
C376 C 0.20375 0.2422 0.87798 0.0
H377 H 0.24143 0.45809 0.87674 0.0
H378 H 0.18914 0.39192 0.87791 0.0
C379 C 0.22952 0.18111 0.87647 0.0
C380 C 0.72938 0.37844 0.66669 0.0
C381 C 0.70377 0.31745 0.66294 0.0
H382 H 0.7786 0.38943 0.67127 0.0
C383 C 0.70854 0.21713 0.66344 0.0
H384 H 0.7265 0.45573 0.66664 0.0
C385 C 0.73839 0.17877 0.66616 0.0
C386 C 0.76412 0.23987 0.66831 0.0
H387 H 0.68924 0.16771 0.66098 0.0
H388 H 0.74134 0.10154 0.66536 0.0
C389 C 0.75924 0.34007 0.6693 0.0
C390 C 0.20959 0.71931 0.66798 0.0
C391 C 0.20477 0.81957 0.6673 0.0
H392 H 0.24244 0.60374 0.6668 0.0
C393 C 0.23058 0.88071 0.66741 0.0
H394 H 0.19017 0.66985 0.66826 0.0
C395 C 0.26055 0.84241 0.66659 0.0
C396 C 0.26534 0.74214 0.66575 0.0
H397 H 0.22767 0.95798 0.66701 0.0
H398 H 0.27996 0.89188 0.66581 0.0
C399 C 0.23956 0.68101 0.66726 0.0
C400 C 0.12329 1.00489 0.28919 0.0
C401 C 0.09511 0.97746 0.30405 0.0
H402 H 0.14552 0.0758 0.24837 0.0
C403 C 0.0671 1.00416 0.28882 0.0
H404 H 0.14523 0.98513 0.30033 0.0
C405 C 0.06727 0.05866 0.25961 0.0
C406 C 0.09545 0.08478 0.2445 0.0
H407 H 0.04506 0.98424 0.29979 0.0
H408 H 0.04535 0.07921 0.24857 0.0
C409 C 0.12345 0.05652 0.25942 0.0
C410 C 0.84557 0.06071 0.29262 0.0
C411 C 0.87372 0.08813 0.30744 0.0
H412 H 0.82339 0.98979 0.25186 0.0
C413 C 0.90176 0.06144 0.29218 0.0
H414 H 0.82361 0.08045 0.3038 0.0
C415 C 0.90163 1.00694 0.26299 0.0
C416 C 0.87346 0.98082 0.24792 0.0
H417 H 0.92378 0.08132 0.30313 0.0
H418 H 0.92356 0.98636 0.25194 0.0
C419 C 0.84545 1.00909 0.26287 0.0
C420 C 0.90166 0.05551 0.763 0.0
C421 C 0.8735 0.08161 0.74793 0.0
H422 H 0.92381 0.98104 0.80316 0.0
C423 C 0.84548 0.05317 0.76286 0.0
H424 H 0.9236 0.07621 0.75197 0.0
C425 C 0.8456 1.00144 0.7926 0.0
C426 C 0.87375 0.97405 0.80743 0.0
H427 H 0.82343 0.07242 0.75185 0.0
H428 H 0.82363 0.98161 0.80376 0.0
C429 C 0.90179 1.00088 0.79219 0.0
C430 C 0.12331 0.05746 0.78916 0.0
C431 C 0.09514 0.08492 0.80399 0.0
H432 H 0.14556 0.98638 0.74843 0.0
C433 C 0.06713 0.05804 0.78878 0.0
H434 H 0.14526 0.07734 0.80029 0.0
C435 C 0.06731 1.00333 0.75962 0.0
C436 C 0.0955 0.97719 0.74455 0.0
H437 H 0.04509 0.07795 0.79973 0.0
H438 H 0.04539 0.98264 0.7486 0.0
C439 C 0.12349 1.00565 0.75945 0.0
C440 C 0.62356 0.50896 0.27946 0.0
C441 C 0.59554 0.48069 0.29443 0.0
H442 H 0.64541 0.58031 0.23851 0.0
C443 C 0.56738 0.50677 0.27935 0.0
H444 H 0.64561 0.4897 0.29048 0.0
C445 C 0.56726 0.56123 0.25014 0.0
C446 C 0.59529 0.58793 0.23486 0.0
H447 H 0.54544 0.48618 0.29041 0.0
H448 H 0.54523 0.58109 0.23918 0.0
C449 C 0.62344 0.56056 0.24969 0.0
C450 C 0.40177 0.55872 0.28402 0.0
C451 C 0.37358 0.58477 0.29911 0.0
H452 H 0.42399 0.48432 0.24388 0.0
C453 C 0.34558 0.55638 0.2842 0.0
H454 H 0.42368 0.57937 0.29505 0.0
C455 C 0.34576 0.5047 0.25446 0.0
C456 C 0.37394 0.47736 0.23961 0.0
H457 H 0.32351 0.57561 0.29524 0.0
H458 H 0.32382 0.48486 0.24332 0.0
C459 C 0.40195 0.50417 0.25484 0.0
C460 C 0.34561 0.50589 0.78421 0.0
C461 C 0.3736 0.47749 0.79912 0.0
H462 H 0.32384 0.57746 0.74334 0.0
C463 C 0.40179 0.50364 0.78403 0.0
H464 H 0.32354 0.48661 0.79525 0.0
C465 C 0.40197 0.55828 0.75485 0.0
C466 C 0.37396 0.58509 0.73962 0.0
H467 H 0.4237 0.483 0.79506 0.0
H468 H 0.42401 0.5782 0.74388 0.0
C469 C 0.34579 0.55764 0.75447 0.0
C470 C 0.56743 0.55564 0.77929 0.0
C471 C 0.59559 0.58184 0.79436 0.0
H472 H 0.54529 0.48103 0.73918 0.0
C473 C 0.62361 0.55349 0.77943 0.0
H474 H 0.54549 0.57627 0.79032 0.0
C475 C 0.6235 0.50171 0.74972 0.0
C476 C 0.59535 0.47419 0.73491 0.0
H477 H 0.64566 0.57282 0.79044 0.0
H478 H 0.64547 0.48193 0.73857 0.0
C479 C 0.56731 0.50097 0.75013 0.0
C480 C 0.15336 0.17598 1.00689 0.0
C481 C 0.12534 0.17414 0.98922 0.0
H482 H 0.17547 0.17179 0.05411 0.0
C483 C 0.09721 0.18117 1.00686 0.0
H484 H 0.17539 0.17129 0.99401 0.0
C485 C 0.09726 0.18146 0.04171 0.0
C486 C 0.12543 0.17474 0.0592 0.0
H487 H 0.07523 0.17937 0.99389 0.0
H488 H 0.07531 0.17984 0.0548 0.0
C489 C 0.1534 0.17629 0.04136 0.0
C490 C 0.81541 0.88581 1.01073 0.0
C491 C 0.84338 0.88703 0.99289 0.0
H492 H 0.79342 0.89158 0.05806 0.0
C493 C 0.87155 0.8805 1.01041 0.0
H494 H 0.79334 0.89014 0.99796 0.0
C495 C 0.8716 0.88128 0.04525 0.0
C496 C 0.84347 0.88864 0.06287 0.0
H497 H 0.8935 0.88183 0.99732 0.0
H498 H 0.89357 0.88326 0.05822 0.0
C499 C 0.81545 0.88661 0.0452 0.0
C500 C 0.15335 0.88641 0.5069 0.0
C501 C 0.12532 0.88831 0.48926 0.0
H502 H 0.17549 0.89029 0.55412 0.0
C503 C 0.0972 0.88118 0.50691 0.0
H504 H 0.17537 0.89119 0.49402 0.0
C505 C 0.09726 0.88072 0.54176 0.0
C506 C 0.12545 0.88734 0.55924 0.0
H507 H 0.07522 0.88303 0.49396 0.0
H508 H 0.07533 0.88227 0.55487 0.0
C509 C 0.15341 0.88587 0.54138 0.0
C510 C 0.87168 0.18107 0.54518 0.0
C511 C 0.84355 0.17393 0.5628 0.0
H512 H 0.89358 0.18015 0.49724 0.0
C513 C 0.81553 0.17592 0.54512 0.0
H514 H 0.89365 0.17912 0.55815 0.0
C515 C 0.81549 0.17642 0.51064 0.0
C516 C 0.84347 0.17502 0.49282 0.0
H517 H 0.79349 0.17112 0.55798 0.0
H518 H 0.79342 0.17203 0.49788 0.0
C519 C 0.87164 0.18163 0.51033 0.0
C520 C 0.59741 0.6816 0.03193 0.0
C521 C 0.62557 0.675 0.04946 0.0
H522 H 0.57542 0.67904 0.98411 0.0
C523 C 0.65356 0.67639 0.03164 0.0
H524 H 0.57546 0.68014 0.04501 0.0
C525 C 0.65353 0.67583 0.99717 0.0
C526 C 0.62552 0.67384 0.97948 0.0
H527 H 0.67561 0.67202 0.04442 0.0
H528 H 0.67557 0.67101 0.98432 0.0
C529 C 0.59738 0.681 0.99709 0.0
C530 C 0.37176 0.38067 1.00196 0.0
C531 C 0.34359 0.38733 0.98446 0.0
H532 H 0.39377 0.38292 0.04977 0.0
C533 C 0.31561 0.38589 1.0023 0.0
H534 H 0.3937 0.3822 0.98886 0.0
C535 C 0.31565 0.38641 0.03678 0.0
C536 C 0.34367 0.38826 0.05444 0.0
H537 H 0.29354 0.39032 0.98955 0.0
H538 H 0.29362 0.39121 0.04965 0.0
C539 C 0.3718 0.3811 0.03681 0.0
C540 C 0.59739 0.38133 0.49713 0.0
C541 C 0.62552 0.38858 0.47951 0.0
H542 H 0.57548 0.38203 0.54506 0.0
C543 C 0.65354 0.38653 0.49719 0.0
H544 H 0.57542 0.38332 0.48415 0.0
C545 C 0.65358 0.3858 0.53166 0.0
C546 C 0.6256 0.38713 0.54949 0.0
H547 H 0.67557 0.39142 0.48432 0.0
H548 H 0.67564 0.39012 0.54442 0.0
C549 C 0.59743 0.38061 0.53197 0.0
C550 C 0.37186 0.68121 0.53671 0.0
C551 C 0.34373 0.67417 0.55435 0.0
H552 H 0.39376 0.67988 0.48877 0.0
C553 C 0.31571 0.67599 0.53668 0.0
H554 H 0.39383 0.67943 0.54968 0.0
C555 C 0.31567 0.67629 0.5022 0.0
C556 C 0.34364 0.67477 0.48436 0.0
H557 H 0.29368 0.67128 0.54955 0.0
H558 H 0.2936 0.67179 0.48945 0.0
C559 C 0.37182 0.6815 0.50186 0.0
C560 C 0.97812 0.93354 0.1412 0.0
C561 C 0.95349 0.99941 0.14235 0.0
H562 H 0.02727 0.91328 0.14052 0.0
C563 C 0.96009 0.09836 0.14138 0.0
H564 H 0.97382 0.85691 0.1418 0.0
C565 C -0.00925 0.13082 0.14052 0.0
C566 C 0.0154 0.06497 0.1408 0.0
H567 H 0.94161 0.15109 0.14198 0.0
H568 H -0.00494 0.20746 0.14068 0.0
C569 C 0.00878 0.966 0.14053 0.0
C570 C 0.95998 0.96628 0.41368 0.0
C571 C 0.95349 0.06533 0.41326 0.0
H572 H -0.00522 0.85675 0.41243 0.0
C573 C 0.97825 0.13087 0.41363 0.0
H574 H 0.94141 0.91378 0.41366 0.0
C575 C 0.00886 0.09803 0.4128 0.0
C576 C 0.01532 0.99899 0.41179 0.0
H577 H 0.97404 0.20756 0.41338 0.0
H578 H 0.02742 0.15054 0.41214 0.0
C579 C -0.00941 0.93344 0.41305 0.0
C580 C -0.00936 0.12876 0.91298 0.0
C581 C 0.01533 0.06313 0.91171 0.0
H582 H 0.94146 0.14858 0.91362 0.0
C583 C 0.00882 0.96412 0.91274 0.0
H584 H -0.00513 0.20544 0.91234 0.0
C585 C 0.97819 0.93138 0.9136 0.0
C586 C 0.95347 0.997 0.91325 0.0
H587 H 0.02735 0.91156 0.91208 0.0
H588 H 0.97394 0.8547 0.91337 0.0
C589 C 0.96001 0.09603 0.91365 0.0
C590 C 0.97819 0.12872 0.64138 0.0
C591 C 0.95355 0.06283 0.64251 0.0
H592 H 0.02735 0.14905 0.64074 0.0
C593 C 0.96014 0.96389 0.64157 0.0
H594 H 0.9739 0.20535 0.64198 0.0
C595 C -0.0092 0.93147 0.64073 0.0
C596 C 0.01546 0.99735 0.64101 0.0
H597 H 0.94165 0.91113 0.64215 0.0
H598 H -0.00489 0.85483 0.64089 0.0
C599 C 0.00884 0.0963 0.64074 0.0
C600 C 0.47835 0.43335 0.13001 0.0
C601 C 0.45365 0.49892 0.13146 0.0
H602 H 0.52752 0.41368 0.12901 0.0
C603 C 0.46012 0.59795 0.13034 0.0
H604 H 0.47414 0.35667 0.1307 0.0
C605 C 0.49073 0.63077 0.12924 0.0
C606 C 0.51547 0.56522 0.12943 0.0
H607 H 0.44158 0.65046 0.13112 0.0
H608 H 0.49496 0.70747 0.12942 0.0
C609 C 0.50896 0.46618 0.12911 0.0
C610 C 0.47836 0.63074 0.40239 0.0
C611 C 0.45368 0.56493 0.40227 0.0
H612 H 0.52749 0.65096 0.40062 0.0
C613 C 0.46027 0.46595 0.40248 0.0
H614 H 0.47406 0.70739 0.40227 0.0
C615 C 0.49091 0.43346 0.4016 0.0
C616 C 0.51556 0.49929 0.4003 0.0
H617 H 0.44176 0.41325 0.4026 0.0
H618 H 0.49518 0.35681 0.40095 0.0
C619 C 0.50899 0.59825 0.40132 0.0
C620 C 0.46031 0.59645 0.90255 0.0
C621 C 0.45366 0.4975 0.90237 0.0
H622 H 0.49529 0.70546 0.90098 0.0
C623 C 0.47831 0.43159 0.90251 0.0
H624 H 0.44183 0.64921 0.90266 0.0
C625 C 0.50896 0.46397 0.90141 0.0
C626 C 0.51558 0.5629 0.90037 0.0
H627 H 0.47397 0.35496 0.90241 0.0
H628 H 0.52743 0.4112 0.90072 0.0
C629 C 0.49097 0.62883 0.90165 0.0
C630 C 0.46018 0.4643 0.63041 0.0
C631 C 0.45369 0.56331 0.63151 0.0
H632 H 0.49502 0.35487 0.62953 0.0
C633 C 0.47839 0.62894 0.63009 0.0
H634 H 0.44163 0.41174 0.63118 0.0
C635 C 0.50901 0.59619 0.62922 0.0
C636 C 0.51553 0.49717 0.62955 0.0
H637 H 0.47419 0.70561 0.63077 0.0
H638 H 0.52757 0.64874 0.62913 0.0
C639 C 0.49079 0.43156 0.62934 0.0
C640 C 0.10932 0.70076 0.18484 0.0
C641 C 0.11837 0.74697 0.15552 0.0
H642 H 0.09488 0.56902 0.20771 0.0
C643 C 0.11934 0.69381 0.12605 0.0
H644 H 0.10806 0.74024 0.20785 0.0
C645 C 0.11142 0.5963 0.12588 0.0
C646 C 0.10239 0.55002 0.15519 0.0
H647 H 0.12592 0.72778 0.10301 0.0
H648 H 0.11266 0.55695 0.10285 0.0
C649 C 0.10145 0.60311 0.18469 0.0
C650 C 0.85899 0.36402 0.18883 0.0
C651 C 0.85067 0.3178 0.1593 0.0
H652 H 0.87284 0.49586 0.212 0.0
C653 C 0.85042 0.37095 0.1298 0.0
H654 H 0.85969 0.32455 0.21188 0.0
C655 C 0.85835 0.46842 0.12979 0.0
C656 C 0.86664 0.51475 0.15929 0.0
H657 H 0.8444 0.33699 0.10661 0.0
H658 H 0.85767 0.50772 0.10671 0.0
C659 C 0.86684 0.46172 0.18884 0.0
C660 C 0.10491 0.36125 0.36438 0.0
C661 C 0.11774 0.3162 0.39227 0.0
H662 H 0.08759 0.49211 0.34326 0.0
C663 C 0.12262 0.37062 0.421 0.0
H664 H 0.10061 0.32081 0.342 0.0
C665 C 0.1148 0.46817 0.42186 0.0
C666 C 0.10197 0.51329 0.394 0.0
H667 H 0.13219 0.3376 0.44297 0.0
H668 H 0.11909 0.50847 0.44427 0.0
C669 C 0.09715 0.45896 0.36522 0.0
C670 C 0.8718 0.60585 0.36915 0.0
C671 C 0.86669 0.55144 0.39788 0.0
H672 H 0.86853 0.74399 0.34589 0.0
C673 C 0.85358 0.59648 0.42564 0.0
H674 H 0.88158 0.57278 0.34728 0.0
C675 C 0.84577 0.69405 0.42472 0.0
C676 C 0.8509 0.74852 0.39602 0.0
H677 H 0.84908 0.55611 0.44802 0.0
H678 H 0.83598 0.72704 0.44661 0.0
C679 C 0.86402 0.70352 0.36824 0.0
C680 C 0.84569 0.36835 0.92493 0.0
C681 C 0.85083 0.31396 0.89622 0.0
H682 H 0.84898 0.50628 0.94822 0.0
C683 C 0.86393 0.35908 0.86845 0.0
H684 H 0.83593 0.33526 0.94682 0.0
C685 C 0.87168 0.45678 0.86935 0.0
C686 C 0.86657 0.51112 0.89808 0.0
H687 H 0.86844 0.31869 0.84609 0.0
H688 H 0.88145 0.48993 0.84747 0.0
C689 C 0.85348 0.46597 0.92584 0.0
C690 C 0.11476 0.59379 0.92198 0.0
C691 C 0.10208 0.54868 0.89405 0.0
H692 H 0.13201 0.7244 0.9432 0.0
C693 C 0.09738 0.60306 0.86524 0.0
H694 H 0.11895 0.55345 0.94442 0.0
C695 C 0.10513 0.7008 0.86445 0.0
C696 C 0.11781 0.74585 0.89241 0.0
H697 H 0.08794 0.56993 0.84324 0.0
H698 H 0.10093 0.74127 0.84204 0.0
C699 C 0.12256 0.69138 0.92117 0.0
C700 C 0.85887 0.69796 0.68864 0.0
C701 C 0.85064 0.74428 0.65909 0.0
H702 H 0.87266 0.5661 0.71184 0.0
C703 C 0.85048 0.69121 0.62958 0.0
H704 H 0.8595 0.73736 0.71169 0.0
C705 C 0.85841 0.59375 0.62959 0.0
C706 C 0.86662 0.54734 0.65911 0.0
H707 H 0.84453 0.72525 0.60637 0.0
H708 H 0.85781 0.55452 0.6065 0.0
C709 C 0.86673 0.6003 0.68866 0.0
C710 C 0.10959 0.36158 0.68475 0.0
C711 C 0.11851 0.31543 0.65539 0.0
H712 H 0.09524 0.49323 0.70768 0.0
C713 C 0.11934 0.36866 0.62591 0.0
H714 H 0.10844 0.32207 0.70777 0.0
C715 C 0.11142 0.46616 0.62578 0.0
C716 C 0.10251 0.51238 0.65512 0.0
H717 H 0.12583 0.33474 0.60284 0.0
H718 H 0.11256 0.50556 0.60273 0.0
C719 C 0.10171 0.45921 0.68463 0.0
C720 C 0.61515 0.09657 0.11654 0.0
C721 C 0.60231 0.05133 0.14442 0.0
H722 H 0.63254 0.2273 0.09544 0.0
C723 C 0.59748 0.10555 0.17323 0.0
H724 H 0.61943 0.05634 0.0941 0.0
C725 C 0.60527 0.20323 0.1741 0.0
C726 C 0.61812 0.24843 0.14621 0.0
H727 H 0.58792 0.07233 0.1952 0.0
H728 H 0.60097 0.24355 0.19652 0.0
C729 C 0.62297 0.19415 0.11742 0.0
C730 C 0.36419 0.86106 0.17931 0.0
C731 C 0.3513 0.81607 0.15144 0.0
H732 H 0.38153 0.99191 0.20041 0.0
C733 C 0.34635 0.87057 0.12273 0.0
H734 H 0.36854 0.82055 0.20167 0.0
C735 C 0.35415 0.96814 0.12187 0.0
C736 C 0.36703 1.01321 0.14971 0.0
H737 H 0.33674 0.8376 0.10078 0.0
H738 H 0.34981 1.00851 0.09947 0.0
C739 C 0.37193 0.9588 0.17847 0.0
C740 C 0.61088 0.96829 0.41255 0.0
C741 C 0.60236 1.01463 0.38311 0.0
H742 H 0.62501 0.83688 0.43564 0.0
C743 C 0.60195 0.96161 0.35358 0.0
H744 H 0.61172 1.00757 0.43562 0.0
C745 C 0.6098 0.86394 0.35354 0.0
C746 C 0.61835 0.81771 0.38301 0.0
H747 H 0.59578 0.99576 0.33046 0.0
H748 H 0.60894 0.82448 0.33051 0.0
C749 C 0.61882 0.87085 0.41249 0.0
C750 C 0.3671 0.10309 0.35877 0.0
C751 C 0.36668 0.05008 0.38831 0.0
H752 H 0.36006 0.24012 0.33564 0.0
C753 C 0.35814 0.09641 0.41775 0.0
H754 H 0.37329 0.06897 0.33564 0.0
C755 C 0.35019 0.19388 0.41768 0.0
C756 C 0.35064 0.24696 0.38816 0.0
H757 H 0.3573 0.05712 0.44083 0.0
H758 H 0.34398 0.22788 0.44082 0.0
C759 C 0.3592 0.20071 0.3587 0.0
C760 C 0.35927 0.86193 0.85894 0.0
C761 C 0.35059 0.81561 0.88837 0.0
H762 H 0.37343 0.99373 0.83593 0.0
C763 C 0.34999 0.86868 0.91787 0.0
H764 H 0.36024 0.82254 0.8359 0.0
C765 C 0.3579 0.9662 0.91796 0.0
C766 C 0.36657 1.01259 0.88855 0.0
H767 H 0.34369 0.83463 0.94099 0.0
H768 H 0.35694 1.00549 0.94103 0.0
C769 C 0.36714 0.95958 0.85903 0.0
C770 C 0.60949 0.19835 0.8537 0.0
C771 C 0.61841 0.24439 0.88307 0.0
H772 H 0.5952 0.06665 0.83074 0.0
C773 C 0.61929 0.19101 0.9125 0.0
H774 H 0.60831 0.23799 0.83071 0.0
C775 C 0.61139 0.09351 0.91261 0.0
C776 C 0.60249 0.04737 0.88327 0.0
H777 H 0.62578 0.22483 0.93557 0.0
H778 H 0.61256 0.05404 0.93563 0.0
C779 C 0.60167 0.10064 0.85379 0.0
C780 C 0.37208 0.10321 0.67817 0.0
C781 C 0.36698 0.04877 0.64947 0.0
H782 H 0.36886 0.24147 0.70135 0.0
C783 C 0.3539 0.09381 0.62172 0.0
H784 H 0.38183 0.07014 0.70004 0.0
C785 C 0.34613 0.19139 0.6226 0.0
C786 C 0.35128 0.24593 0.65125 0.0
H787 H 0.3494 0.05342 0.59937 0.0
H788 H 0.33637 0.22435 0.60071 0.0
C789 C 0.36435 0.20095 0.67903 0.0
C790 C 0.60541 0.8592 0.67398 0.0
C791 C 0.61825 0.81412 0.64608 0.0
H792 H 0.58806 0.98998 0.6951 0.0
C793 C 0.6231 0.86852 0.6173 0.0
H794 H 0.60112 0.8188 0.6964 0.0
C795 C 0.61528 0.9661 0.61644 0.0
C796 C 0.60244 1.01122 0.64433 0.0
H797 H 0.63266 0.83546 0.59532 0.0
H798 H 0.61956 1.00643 0.594 0.0
C799 C 0.59762 0.95687 0.67313 0.0
loop_
_geom_bond_atom_site_label_1
_geom_bond_atom_site_label_2
_geom_bond_distance
_geom_bond_site_symmetry_2
_ccdc_geom_bond_type
Dy0 O4 2.398 . S
Dy0 O5 2.491 . S
Dy0 O6 2.403 1_565 S
Dy0 O7 2.664 1_565 S
Dy0 O11 2.326 . S
Dy0 O15 2.310 1_565 S
Dy0 O16 2.351 1_565 S
C1 O12 1.185 . S
C1 O13 1.355 . S
C2 O4 1.185 . S
C2 O5 1.355 . S
Dy3 O7 2.310 . S
Dy3 O10 2.351 . S
Dy3 O12 2.398 . S
Dy3 O13 2.491 . S
Dy3 O14 2.403 . S
Dy3 O15 2.664 . S
Dy3 O17 2.326 . S
O4 Dy0 2.398 . S
O4 C2 1.185 . S
O5 Dy0 2.491 . S
O5 C2 1.355 . S
O6 Dy0 2.403 1_545 S
O6 C8 1.254 . S
O7 Dy0 2.664 1_545 S
O7 Dy3 2.310 . S
O7 C8 1.268 . S
C8 O6 1.254 . S
C8 O7 1.268 . S
C9 O14 1.254 . S
C9 O15 1.268 . S
O10 Dy3 2.351 . S
O10 C18 1.249 . S
O11 Dy0 2.326 . S
O11 C18 1.267 1_565 S
O12 C1 1.185 . S
O12 Dy3 2.398 . S
O13 C1 1.355 . S
O13 Dy3 2.491 . S
O14 Dy3 2.403 . S
O14 C9 1.254 . S
O15 Dy0 2.310 1_545 S
O15 Dy3 2.664 . S
O15 C9 1.268 . S
O16 Dy0 2.351 1_545 S
O16 C19 1.249 . S
O17 Dy3 2.326 . S
O17 C19 1.267 . S
C18 O10 1.249 . S
C18 O11 1.267 1_545 S
C19 O16 1.249 . S
C19 O17 1.267 . S
Dy20 O24 2.398 . S
Dy20 O25 2.491 . S
Dy20 O26 2.403 1_545 S
Dy20 O27 2.664 1_545 S
Dy20 O31 2.326 . S
Dy20 O35 2.310 1_545 S
Dy20 O36 2.351 1_545 S
C21 O32 1.185 . S
C21 O33 1.355 . S
C22 O24 1.185 . S
C22 O25 1.355 . S
Dy23 O27 2.310 . S
Dy23 O30 2.351 . S
Dy23 O32 2.398 . S
Dy23 O33 2.491 . S
Dy23 O34 2.403 . S
Dy23 O35 2.664 . S
Dy23 O37 2.326 . S
O24 Dy20 2.398 . S
O24 C22 1.185 . S
O25 Dy20 2.491 . S
O25 C22 1.355 . S
O26 Dy20 2.403 1_565 S
O26 C28 1.254 . S
O27 Dy20 2.664 1_565 S
O27 Dy23 2.310 . S
O27 C28 1.268 . S
C28 O26 1.254 . S
C28 O27 1.268 . S
C29 O34 1.254 . S
C29 O35 1.268 . S
O30 Dy23 2.351 . S
O30 C38 1.249 . S
O31 Dy20 2.326 . S
O31 C38 1.267 1_545 S
O32 C21 1.185 . S
O32 Dy23 2.398 . S
O33 C21 1.355 . S
O33 Dy23 2.491 . S
O34 Dy23 2.403 . S
O34 C29 1.254 . S
O35 Dy20 2.310 1_565 S
O35 Dy23 2.664 . S
O35 C29 1.268 . S
O36 Dy20 2.351 1_565 S
O36 C39 1.249 . S
O37 Dy23 2.326 . S
O37 C39 1.267 . S
C38 O30 1.249 . S
C38 O31 1.267 1_565 S
C39 O36 1.249 . S
C39 O37 1.267 . S
Dy40 O44 2.398 . S
Dy40 O45 2.491 . S
Dy40 O46 2.403 1_545 S
Dy40 O47 2.664 1_545 S
Dy40 O51 2.326 . S
Dy40 O55 2.310 1_545 S
Dy40 O56 2.351 1_545 S
C41 O52 1.185 . S
C41 O53 1.355 . S
C42 O44 1.185 . S
C42 O45 1.355 . S
Dy43 O47 2.310 . S
Dy43 O50 2.351 . S
Dy43 O52 2.398 . S
Dy43 O53 2.491 . S
Dy43 O54 2.403 . S
Dy43 O55 2.664 . S
Dy43 O57 2.326 . S
O44 Dy40 2.398 . S
O44 C42 1.185 . S
O45 Dy40 2.491 . S
O45 C42 1.355 . S
O46 Dy40 2.403 1_565 S
O46 C48 1.254 . S
O47 Dy40 2.664 1_565 S
O47 Dy43 2.310 . S
O47 C48 1.268 . S
C48 O46 1.254 . S
C48 O47 1.268 . S
C49 O54 1.254 . S
C49 O55 1.268 . S
O50 Dy43 2.351 . S
O50 C58 1.249 . S
O51 Dy40 2.326 . S
O51 C58 1.267 1_545 S
O52 C41 1.185 . S
O52 Dy43 2.398 . S
O53 C41 1.355 . S
O53 Dy43 2.491 . S
O54 Dy43 2.403 . S
O54 C49 1.254 . S
O55 Dy40 2.310 1_565 S
O55 Dy43 2.664 . S
O55 C49 1.268 . S
O56 Dy40 2.351 1_565 S
O56 C59 1.249 . S
O57 Dy43 2.326 . S
O57 C59 1.267 . S
C58 O50 1.249 . S
C58 O51 1.267 1_565 S
C59 O56 1.249 . S
C59 O57 1.267 . S
Dy60 O64 2.398 . S
Dy60 O65 2.491 . S
Dy60 O66 2.403 1_565 S
Dy60 O67 2.664 1_565 S
Dy60 O71 2.326 . S
Dy60 O75 2.310 1_565 S
Dy60 O76 2.351 1_565 S
C61 O72 1.185 . S
C61 O73 1.355 . S
C62 O64 1.185 . S
C62 O65 1.355 . S
Dy63 O67 2.310 . S
Dy63 O70 2.351 . S
Dy63 O72 2.398 . S
Dy63 O73 2.491 . S
Dy63 O74 2.403 . S
Dy63 O75 2.664 . S
Dy63 O77 2.326 . S
O64 Dy60 2.398 . S
O64 C62 1.185 . S
O65 Dy60 2.491 . S
O65 C62 1.355 . S
O66 Dy60 2.403 1_545 S
O66 C68 1.254 . S
O67 Dy60 2.664 1_545 S
O67 Dy63 2.310 . S
O67 C68 1.268 . S
C68 O66 1.254 . S
C68 O67 1.268 . S
C69 O74 1.254 . S
C69 O75 1.268 . S
O70 Dy63 2.351 . S
O70 C78 1.249 . S
O71 Dy60 2.326 . S
O71 C78 1.267 1_565 S
O72 C61 1.185 . S
O72 Dy63 2.398 . S
O73 C61 1.355 . S
O73 Dy63 2.491 . S
O74 Dy63 2.403 . S
O74 C69 1.254 . S
O75 Dy60 2.310 1_545 S
O75 Dy63 2.664 . S
O75 C69 1.268 . S
O76 Dy60 2.351 1_545 S
O76 C79 1.249 . S
O77 Dy63 2.326 . S
O77 C79 1.267 . S
C78 O70 1.249 . S
C78 O71 1.267 1_545 S
C79 O76 1.249 . S
C79 O77 1.267 . S
Dy80 O84 2.398 . S
Dy80 O85 2.491 . S
Dy80 O86 2.403 . S
Dy80 O87 2.664 . S
Dy80 O91 2.326 . S
Dy80 O95 2.310 . S
Dy80 O96 2.351 . S
C81 O92 1.185 . S
C81 O93 1.355 . S
C82 O84 1.185 . S
C82 O85 1.355 . S
Dy83 O87 2.310 1_545 S
Dy83 O90 2.351 1_545 S
Dy83 O92 2.398 . S
Dy83 O93 2.491 . S
Dy83 O94 2.403 1_545 S
Dy83 O95 2.664 1_545 S
Dy83 O97 2.326 . S
O84 Dy80 2.398 . S
O84 C82 1.185 . S
O85 Dy80 2.491 . S
O85 C82 1.355 . S
O86 Dy80 2.403 . S
O86 C88 1.254 . S
O87 Dy80 2.664 . S
O87 Dy83 2.310 1_565 S
O87 C88 1.268 . S
C88 O86 1.254 . S
C88 O87 1.268 . S
C89 O94 1.254 . S
C89 O95 1.268 . S
O90 Dy83 2.351 1_565 S
O90 C98 1.249 . S
O91 Dy80 2.326 . S
O91 C98 1.267 . S
O92 C81 1.185 . S
O92 Dy83 2.398 . S
O93 C81 1.355 . S
O93 Dy83 2.491 . S
O94 Dy83 2.403 1_565 S
O94 C89 1.254 . S
O95 Dy80 2.310 . S
O95 Dy83 2.664 1_565 S
O95 C89 1.268 . S
O96 Dy80 2.351 . S
O96 C99 1.249 . S
O97 Dy83 2.326 . S
O97 C99 1.267 1_545 S
C98 O90 1.249 . S
C98 O91 1.267 . S
C99 O96 1.249 . S
C99 O97 1.267 1_565 S
Dy100 O104 2.398 . S
Dy100 O105 2.491 . S
Dy100 O106 2.403 . S
Dy100 O107 2.664 . S
Dy100 O111 2.326 . S
Dy100 O115 2.310 . S
Dy100 O116 2.351 . S
C101 O112 1.185 . S
C101 O113 1.355 . S
C102 O104 1.185 . S
C102 O105 1.355 . S
Dy103 O107 2.310 1_565 S
Dy103 O110 2.351 1_565 S
Dy103 O112 2.398 . S
Dy103 O113 2.491 . S
Dy103 O114 2.403 1_565 S
Dy103 O115 2.664 1_565 S
Dy103 O117 2.326 . S
O104 Dy100 2.398 . S
O104 C102 1.185 . S
O105 Dy100 2.491 . S
O105 C102 1.355 . S
O106 Dy100 2.403 . S
O106 C108 1.254 . S
O107 Dy100 2.664 . S
O107 Dy103 2.310 1_545 S
O107 C108 1.268 . S
C108 O106 1.254 . S
C108 O107 1.268 . S
C109 O114 1.254 . S
C109 O115 1.268 . S
O110 Dy103 2.351 1_545 S
O110 C118 1.249 . S
O111 Dy100 2.326 . S
O111 C118 1.267 . S
O112 C101 1.185 . S
O112 Dy103 2.398 . S
O113 C101 1.355 . S
O113 Dy103 2.491 . S
O114 Dy103 2.403 1_545 S
O114 C109 1.254 . S
O115 Dy100 2.310 . S
O115 Dy103 2.664 1_545 S
O115 C109 1.268 . S
O116 Dy100 2.351 . S
O116 C119 1.249 . S
O117 Dy103 2.326 . S
O117 C119 1.267 1_565 S
C118 O110 1.249 . S
C118 O111 1.267 . S
C119 O116 1.249 . S
C119 O117 1.267 1_545 S
Dy120 O124 2.398 . S
Dy120 O125 2.491 . S
Dy120 O126 2.403 . S
Dy120 O127 2.664 . S
Dy120 O131 2.326 . S
Dy120 O135 2.310 . S
Dy120 O136 2.351 . S
C121 O132 1.185 . S
C121 O133 1.355 . S
C122 O124 1.185 . S
C122 O125 1.355 . S
Dy123 O127 2.310 1_565 S
Dy123 O130 2.351 1_565 S
Dy123 O132 2.398 . S
Dy123 O133 2.491 . S
Dy123 O134 2.403 1_565 S
Dy123 O135 2.664 1_565 S
Dy123 O137 2.326 . S
O124 Dy120 2.398 . S
O124 C122 1.185 . S
O125 Dy120 2.491 . S
O125 C122 1.355 . S
O126 Dy120 2.403 . S
O126 C128 1.254 . S
O127 Dy120 2.664 . S
O127 Dy123 2.310 1_545 S
O127 C128 1.268 . S
C128 O126 1.254 . S
C128 O127 1.268 . S
C129 O134 1.254 . S
C129 O135 1.268 . S
O130 Dy123 2.351 1_545 S
O130 C138 1.249 . S
O131 Dy120 2.326 . S
O131 C138 1.267 . S
O132 C121 1.185 . S
O132 Dy123 2.398 . S
O133 C121 1.355 . S
O133 Dy123 2.491 . S
O134 Dy123 2.403 1_545 S
O134 C129 1.254 . S
O135 Dy120 2.310 . S
O135 Dy123 2.664 1_545 S
O135 C129 1.268 . S
O136 Dy120 2.351 . S
O136 C139 1.249 . S
O137 Dy123 2.326 . S
O137 C139 1.267 1_565 S
C138 O130 1.249 . S
C138 O131 1.267 . S
C139 O136 1.249 . S
C139 O137 1.267 1_545 S
Dy140 O144 2.398 . S
Dy140 O145 2.491 . S
Dy140 O146 2.403 . S
Dy140 O147 2.664 . S
Dy140 O151 2.326 . S
Dy140 O155 2.310 . S
Dy140 O156 2.351 . S
C141 O152 1.185 . S
C141 O153 1.355 . S
C142 O144 1.185 . S
C142 O145 1.355 . S
Dy143 O147 2.310 1_545 S
Dy143 O150 2.351 1_545 S
Dy143 O152 2.398 . S
Dy143 O153 2.491 . S
Dy143 O154 2.403 1_545 S
Dy143 O155 2.664 1_545 S
Dy143 O157 2.326 . S
O144 Dy140 2.398 . S
O144 C142 1.185 . S
O145 Dy140 2.491 . S
O145 C142 1.355 . S
O146 Dy140 2.403 . S
O146 C148 1.254 . S
O147 Dy140 2.664 . S
O147 Dy143 2.310 1_565 S
O147 C148 1.268 . S
C148 O146 1.254 . S
C148 O147 1.268 . S
C149 O154 1.254 . S
C149 O155 1.268 . S
O150 Dy143 2.351 1_565 S
O150 C158 1.249 . S
O151 Dy140 2.326 . S
O151 C158 1.267 . S
O152 C141 1.185 . S
O152 Dy143 2.398 . S
O153 C141 1.355 . S
O153 Dy143 2.491 . S
O154 Dy143 2.403 1_565 S
O154 C149 1.254 . S
O155 Dy140 2.310 . S
O155 Dy143 2.664 1_565 S
O155 C149 1.268 . S
O156 Dy140 2.351 . S
O156 C159 1.249 . S
O157 Dy143 2.326 . S
O157 C159 1.267 1_545 S
C158 O150 1.249 . S
C158 O151 1.267 . S
C159 O156 1.249 . S
C159 O157 1.267 1_565 S
Dy160 O164 2.398 . S
Dy160 O165 2.491 . S
Dy160 O166 2.403 . S
Dy160 O167 2.664 . S
Dy160 O171 2.326 . S
Dy160 O175 2.310 . S
Dy160 O176 2.351 . S
C161 O172 1.185 . S
C161 O173 1.355 . S
C162 O164 1.185 . S
C162 O165 1.355 . S
Dy163 O167 2.310 . S
Dy163 O170 2.351 . S
Dy163 O172 2.398 . S
Dy163 O173 2.491 . S
Dy163 O174 2.403 . S
Dy163 O175 2.664 . S
Dy163 O177 2.326 . S
O164 Dy160 2.398 . S
O164 C162 1.185 . S
O165 Dy160 2.491 . S
O165 C162 1.355 . S
O166 Dy160 2.403 . S
O166 C168 1.254 . S
O167 Dy160 2.664 . S
O167 Dy163 2.310 . S
O167 C168 1.268 . S
C168 O166 1.254 . S
C168 O167 1.268 . S
C169 O174 1.254 . S
C169 O175 1.268 . S
O170 Dy163 2.351 . S
O170 C178 1.249 . S
O171 Dy160 2.326 . S
O171 C178 1.267 . S
O172 C161 1.185 . S
O172 Dy163 2.398 . S
O173 C161 1.355 . S
O173 Dy163 2.491 . S
O174 Dy163 2.403 . S
O174 C169 1.254 . S
O175 Dy160 2.310 . S
O175 Dy163 2.664 . S
O175 C169 1.268 . S
O176 Dy160 2.351 . S
O176 C179 1.249 . S
O177 Dy163 2.326 . S
O177 C179 1.267 . S
C178 O170 1.249 . S
C178 O171 1.267 . S
C179 O176 1.249 . S
C179 O177 1.267 . S
Dy180 O184 2.398 . S
Dy180 O185 2.491 . S
Dy180 O186 2.403 . S
Dy180 O187 2.664 . S
Dy180 O191 2.326 . S
Dy180 O195 2.310 . S
Dy180 O196 2.351 . S
C181 O192 1.185 . S
C181 O193 1.355 . S
C182 O184 1.185 . S
C182 O185 1.355 . S
Dy183 O187 2.310 . S
Dy183 O190 2.351 . S
Dy183 O192 2.398 . S
Dy183 O193 2.491 . S
Dy183 O194 2.403 . S
Dy183 O195 2.664 . S
Dy183 O197 2.326 . S
O184 Dy180 2.398 . S
O184 C182 1.185 . S
O185 Dy180 2.491 . S
O185 C182 1.355 . S
O186 Dy180 2.403 . S
O186 C188 1.254 . S
O187 Dy180 2.664 . S
O187 Dy183 2.310 . S
O187 C188 1.268 . S
C188 O186 1.254 . S
C188 O187 1.268 . S
C189 O194 1.254 . S
C189 O195 1.268 . S
O190 Dy183 2.351 . S
O190 C198 1.249 . S
O191 Dy180 2.326 . S
O191 C198 1.267 . S
O192 C181 1.185 . S
O192 Dy183 2.398 . S
O193 C181 1.355 . S
O193 Dy183 2.491 . S
O194 Dy183 2.403 . S
O194 C189 1.254 . S
O195 Dy180 2.310 . S
O195 Dy183 2.664 . S
O195 C189 1.268 . S
O196 Dy180 2.351 . S
O196 C199 1.249 . S
O197 Dy183 2.326 . S
O197 C199 1.267 . S
C198 O190 1.249 . S
C198 O191 1.267 . S
C199 O196 1.249 . S
C199 O197 1.267 . S
Dy200 O204 2.398 . S
Dy200 O205 2.491 . S
Dy200 O206 2.403 . S
Dy200 O207 2.664 . S
Dy200 O211 2.326 . S
Dy200 O215 2.310 . S
Dy200 O216 2.351 . S
C201 O212 1.185 . S
C201 O213 1.355 . S
C202 O204 1.185 . S
C202 O205 1.355 . S
Dy203 O207 2.310 . S
Dy203 O210 2.351 . S
Dy203 O212 2.398 . S
Dy203 O213 2.491 . S
Dy203 O214 2.403 . S
Dy203 O215 2.664 . S
Dy203 O217 2.326 . S
O204 Dy200 2.398 . S
O204 C202 1.185 . S
O205 Dy200 2.491 . S
O205 C202 1.355 . S
O206 Dy200 2.403 . S
O206 C208 1.254 . S
O207 Dy200 2.664 . S
O207 Dy203 2.310 . S
O207 C208 1.268 . S
C208 O206 1.254 . S
C208 O207 1.268 . S
C209 O214 1.254 . S
C209 O215 1.268 . S
O210 Dy203 2.351 . S
O210 C218 1.249 . S
O211 Dy200 2.326 . S
O211 C218 1.267 . S
O212 C201 1.185 . S
O212 Dy203 2.398 . S
O213 C201 1.355 . S
O213 Dy203 2.491 . S
O214 Dy203 2.403 . S
O214 C209 1.254 . S
O215 Dy200 2.310 . S
O215 Dy203 2.664 . S
O215 C209 1.268 . S
O216 Dy200 2.351 . S
O216 C219 1.249 . S
O217 Dy203 2.326 . S
O217 C219 1.267 . S
C218 O210 1.249 . S
C218 O211 1.267 . S
C219 O216 1.249 . S
C219 O217 1.267 . S
Dy220 O224 2.398 . S
Dy220 O225 2.491 . S
Dy220 O226 2.403 . S
Dy220 O227 2.664 . S
Dy220 O231 2.326 . S
Dy220 O235 2.310 . S
Dy220 O236 2.351 . S
C221 O232 1.185 . S
C221 O233 1.355 . S
C222 O224 1.185 . S
C222 O225 1.355 . S
Dy223 O227 2.310 . S
Dy223 O230 2.351 . S
Dy223 O232 2.398 . S
Dy223 O233 2.491 . S
Dy223 O234 2.403 . S
Dy223 O235 2.664 . S
Dy223 O237 2.326 . S
O224 Dy220 2.398 . S
O224 C222 1.185 . S
O225 Dy220 2.491 . S
O225 C222 1.355 . S
O226 Dy220 2.403 . S
O226 C228 1.254 . S
O227 Dy220 2.664 . S
O227 Dy223 2.310 . S
O227 C228 1.268 . S
C228 O226 1.254 . S
C228 O227 1.268 . S
C229 O234 1.254 . S
C229 O235 1.268 . S
O230 Dy223 2.351 . S
O230 C238 1.249 . S
O231 Dy220 2.326 . S
O231 C238 1.267 . S
O232 C221 1.185 . S
O232 Dy223 2.398 . S
O233 C221 1.355 . S
O233 Dy223 2.491 . S
O234 Dy223 2.403 . S
O234 C229 1.254 . S
O235 Dy220 2.310 . S
O235 Dy223 2.664 . S
O235 C229 1.268 . S
O236 Dy220 2.351 . S
O236 C239 1.249 . S
O237 Dy223 2.326 . S
O237 C239 1.267 . S
C238 O230 1.249 . S
C238 O231 1.267 . S
C239 O236 1.249 . S
C239 O237 1.267 . S
Dy240 O244 2.398 . S
Dy240 O245 2.491 . S
Dy240 O246 2.403 . S
Dy240 O247 2.664 . S
Dy240 O251 2.326 . S
Dy240 O255 2.310 . S
Dy240 O256 2.351 . S
C241 O252 1.185 . S
C241 O253 1.355 . S
C242 O244 1.185 . S
C242 O245 1.355 . S
Dy243 O247 2.310 . S
Dy243 O250 2.351 . S
Dy243 O252 2.398 . S
Dy243 O253 2.491 . S
Dy243 O254 2.403 . S
Dy243 O255 2.664 . S
Dy243 O257 2.326 . S
O244 Dy240 2.398 . S
O244 C242 1.185 . S
O245 Dy240 2.491 . S
O245 C242 1.355 . S
O246 Dy240 2.403 . S
O246 C248 1.254 . S
O247 Dy240 2.664 . S
O247 Dy243 2.310 . S
O247 C248 1.268 . S
C248 O246 1.254 . S
C248 O247 1.268 . S
C249 O254 1.254 . S
C249 O255 1.268 . S
O250 Dy243 2.351 . S
O250 C258 1.249 . S
O251 Dy240 2.326 . S
O251 C258 1.267 . S
O252 C241 1.185 . S
O252 Dy243 2.398 . S
O253 C241 1.355 . S
O253 Dy243 2.491 . S
O254 Dy243 2.403 . S
O254 C249 1.254 . S
O255 Dy240 2.310 . S
O255 Dy243 2.664 . S
O255 C249 1.268 . S
O256 Dy240 2.351 . S
O256 C259 1.249 . S
O257 Dy243 2.326 . S
O257 C259 1.267 . S
C258 O250 1.249 . S
C258 O251 1.267 . S
C259 O256 1.249 . S
C259 O257 1.267 . S
Dy260 O264 2.398 . S
Dy260 O265 2.491 . S
Dy260 O266 2.403 . S
Dy260 O267 2.664 . S
Dy260 O271 2.326 . S
Dy260 O275 2.310 . S
Dy260 O276 2.351 . S
C261 O272 1.185 . S
C261 O273 1.355 . S
C262 O264 1.185 . S
C262 O265 1.355 . S
Dy263 O267 2.310 . S
Dy263 O270 2.351 . S
Dy263 O272 2.398 . S
Dy263 O273 2.491 . S
Dy263 O274 2.403 . S
Dy263 O275 2.664 . S
Dy263 O277 2.326 . S
O264 Dy260 2.398 . S
O264 C262 1.185 . S
O265 Dy260 2.491 . S
O265 C262 1.355 . S
O266 Dy260 2.403 . S
O266 C268 1.254 . S
O267 Dy260 2.664 . S
O267 Dy263 2.310 . S
O267 C268 1.268 . S
C268 O266 1.254 . S
C268 O267 1.268 . S
C269 O274 1.254 . S
C269 O275 1.268 . S
O270 Dy263 2.351 . S
O270 C278 1.249 . S
O271 Dy260 2.326 . S
O271 C278 1.267 . S
O272 C261 1.185 . S
O272 Dy263 2.398 . S
O273 C261 1.355 . S
O273 Dy263 2.491 . S
O274 Dy263 2.403 . S
O274 C269 1.254 . S
O275 Dy260 2.310 . S
O275 Dy263 2.664 . S
O275 C269 1.268 . S
O276 Dy260 2.351 . S
O276 C279 1.249 . S
O277 Dy263 2.326 . S
O277 C279 1.267 . S
C278 O270 1.249 . S
C278 O271 1.267 . S
C279 O276 1.249 . S
C279 O277 1.267 . S
Dy280 O284 2.398 . S
Dy280 O285 2.491 . S
Dy280 O286 2.403 . S
Dy280 O287 2.664 . S
Dy280 O291 2.326 . S
Dy280 O295 2.310 . S
Dy280 O296 2.351 . S
C281 O292 1.185 . S
C281 O293 1.355 . S
C282 O284 1.185 . S
C282 O285 1.355 . S
Dy283 O287 2.310 . S
Dy283 O290 2.351 . S
Dy283 O292 2.398 . S
Dy283 O293 2.491 . S
Dy283 O294 2.403 . S
Dy283 O295 2.664 . S
Dy283 O297 2.326 . S
O284 Dy280 2.398 . S
O284 C282 1.185 . S
O285 Dy280 2.491 . S
O285 C282 1.355 . S
O286 Dy280 2.403 . S
O286 C288 1.254 . S
O287 Dy280 2.664 . S
O287 Dy283 2.310 . S
O287 C288 1.268 . S
C288 O286 1.254 . S
C288 O287 1.268 . S
C289 O294 1.254 . S
C289 O295 1.268 . S
O290 Dy283 2.351 . S
O290 C298 1.249 . S
O291 Dy280 2.326 . S
O291 C298 1.267 . S
O292 C281 1.185 . S
O292 Dy283 2.398 . S
O293 C281 1.355 . S
O293 Dy283 2.491 . S
O294 Dy283 2.403 . S
O294 C289 1.254 . S
O295 Dy280 2.310 . S
O295 Dy283 2.664 . S
O295 C289 1.268 . S
O296 Dy280 2.351 . S
O296 C299 1.249 . S
O297 Dy283 2.326 . S
O297 C299 1.267 . S
C298 O290 1.249 . S
C298 O291 1.267 . S
C299 O296 1.249 . S
C299 O297 1.267 . S
Dy300 O304 2.398 . S
Dy300 O305 2.491 . S
Dy300 O306 2.403 . S
Dy300 O307 2.664 . S
Dy300 O311 2.326 . S
Dy300 O315 2.310 . S
Dy300 O316 2.351 . S
C301 O312 1.185 . S
C301 O313 1.355 . S
C302 O304 1.185 . S
C302 O305 1.355 . S
Dy303 O307 2.310 . S
Dy303 O310 2.351 . S
Dy303 O312 2.398 . S
Dy303 O313 2.491 . S
Dy303 O314 2.403 . S
Dy303 O315 2.664 . S
Dy303 O317 2.326 . S
O304 Dy300 2.398 . S
O304 C302 1.185 . S
O305 Dy300 2.491 . S
O305 C302 1.355 . S
O306 Dy300 2.403 . S
O306 C308 1.254 . S
O307 Dy300 2.664 . S
O307 Dy303 2.310 . S
O307 C308 1.268 . S
C308 O306 1.254 . S
C308 O307 1.268 . S
C309 O314 1.254 . S
C309 O315 1.268 . S
O310 Dy303 2.351 . S
O310 C318 1.249 . S
O311 Dy300 2.326 . S
O311 C318 1.267 . S
O312 C301 1.185 . S
O312 Dy303 2.398 . S
O313 C301 1.355 . S
O313 Dy303 2.491 . S
O314 Dy303 2.403 . S
O314 C309 1.254 . S
O315 Dy300 2.310 . S
O315 Dy303 2.664 . S
O315 C309 1.268 . S
O316 Dy300 2.351 . S
O316 C319 1.249 . S
O317 Dy303 2.326 . S
O317 C319 1.267 . S
C318 O310 1.249 . S
C318 O311 1.267 . S
C319 O316 1.249 . S
C319 O317 1.267 . S
C320 C321 1.387 . S
C320 H324 0.950 . S
C320 C329 1.390 . S
C321 C320 1.387 . S
C321 C323 1.387 . S
H322 C329 0.950 . S
C323 C321 1.387 . S
C323 C325 1.390 . S
C323 H327 0.950 . S
H324 C320 0.950 . S
C325 C323 1.390 . S
C325 C326 1.387 . S
C325 H328 0.950 . S
C326 C325 1.387 . S
C326 C329 1.387 . S
H327 C323 0.950 . S
H328 C325 0.950 . S
C329 C320 1.390 . S
C329 H322 0.950 . S
C329 C326 1.387 . S
C330 C331 1.387 . S
C330 H334 0.950 . S
C330 C339 1.390 . S
C331 C330 1.387 . S
C331 C333 1.387 . S
H332 C339 0.950 . S
C333 C331 1.387 . S
C333 C335 1.390 . S
C333 H337 0.950 . S
H334 C330 0.950 . S
C335 C333 1.390 . S
C335 C336 1.387 . S
C335 H338 0.950 . S
C336 C335 1.387 . S
C336 C339 1.387 . S
H337 C333 0.950 . S
H338 C335 0.950 . S
C339 C330 1.390 . S
C339 H332 0.950 . S
C339 C336 1.387 . S
C340 C341 1.387 . S
C340 H344 0.950 . S
C340 C349 1.390 . S
C341 C340 1.387 . S
C341 C343 1.387 . S
H342 C349 0.950 . S
C343 C341 1.387 . S
C343 C345 1.390 . S
C343 H347 0.950 . S
H344 C340 0.950 . S
C345 C343 1.390 . S
C345 C346 1.387 . S
C345 H348 0.950 . S
C346 C345 1.387 . S
C346 C349 1.387 . S
H347 C343 0.950 . S
H348 C345 0.950 . S
C349 C340 1.390 . S
C349 H342 0.950 . S
C349 C346 1.387 . S
C350 C351 1.387 . S
C350 H354 0.950 . S
C350 C359 1.390 . S
C351 C350 1.387 . S
C351 C353 1.387 . S
H352 C359 0.950 . S
C353 C351 1.387 . S
C353 C355 1.390 . S
C353 H357 0.950 . S
H354 C350 0.950 . S
C355 C353 1.390 . S
C355 C356 1.387 . S
C355 H358 0.950 . S
C356 C355 1.387 . S
C356 C359 1.387 . S
H357 C353 0.950 . S
H358 C355 0.950 . S
C359 C350 1.390 . S
C359 H352 0.950 . S
C359 C356 1.387 . S
C360 C361 1.387 . S
C360 H364 0.950 . S
C360 C369 1.390 . S
C361 C360 1.387 . S
C361 C363 1.387 . S
H362 C369 0.950 . S
C363 C361 1.387 . S
C363 C365 1.390 . S
C363 H367 0.950 . S
H364 C360 0.950 . S
C365 C363 1.390 . S
C365 C366 1.387 . S
C365 H368 0.950 . S
C366 C365 1.387 . S
C366 C369 1.387 . S
H367 C363 0.950 . S
H368 C365 0.950 . S
C369 C360 1.390 . S
C369 H362 0.950 . S
C369 C366 1.387 . S
C370 C371 1.387 . S
C370 H374 0.950 . S
C370 C379 1.390 . S
C371 C370 1.387 . S
C371 C373 1.387 . S
H372 C379 0.950 . S
C373 C371 1.387 . S
C373 C375 1.390 . S
C373 H377 0.950 . S
H374 C370 0.950 . S
C375 C373 1.390 . S
C375 C376 1.387 . S
C375 H378 0.950 . S
C376 C375 1.387 . S
C376 C379 1.387 . S
H377 C373 0.950 . S
H378 C375 0.950 . S
C379 C370 1.390 . S
C379 H372 0.950 . S
C379 C376 1.387 . S
C380 C381 1.387 . S
C380 H384 0.950 . S
C380 C389 1.390 . S
C381 C380 1.387 . S
C381 C383 1.387 . S
H382 C389 0.950 . S
C383 C381 1.387 . S
C383 C385 1.390 . S
C383 H387 0.950 . S
H384 C380 0.950 . S
C385 C383 1.390 . S
C385 C386 1.387 . S
C385 H388 0.950 . S
C386 C385 1.387 . S
C386 C389 1.387 . S
H387 C383 0.950 . S
H388 C385 0.950 . S
C389 C380 1.390 . S
C389 H382 0.950 . S
C389 C386 1.387 . S
C390 C391 1.387 . S
C390 H394 0.950 . S
C390 C399 1.390 . S
C391 C390 1.387 . S
C391 C393 1.387 . S
H392 C399 0.950 . S
C393 C391 1.387 . S
C393 C395 1.390 . S
C393 H397 0.950 . S
H394 C390 0.950 . S
C395 C393 1.390 . S
C395 C396 1.387 . S
C395 H398 0.950 . S
C396 C395 1.387 . S
C396 C399 1.387 . S
H397 C393 0.950 . S
H398 C395 0.950 . S
C399 C390 1.390 . S
C399 H392 0.950 . S
C399 C396 1.387 . S
C400 C401 1.387 . S
C400 H404 0.950 . S
C400 C409 1.390 1_565 S
C401 C400 1.387 . S
C401 C403 1.387 . S
H402 C409 0.950 . S
C403 C401 1.387 . S
C403 C405 1.390 1_565 S
C403 H407 0.950 . S
H404 C400 0.950 . S
C405 C403 1.390 1_545 S
C405 C406 1.387 . S
C405 H408 0.950 . S
C406 C405 1.387 . S
C406 C409 1.387 . S
H407 C403 0.950 . S
H408 C405 0.950 . S
C409 C400 1.390 1_545 S
C409 H402 0.950 . S
C409 C406 1.387 . S
C410 C411 1.387 . S
C410 H414 0.950 . S
C410 C419 1.390 1_545 S
C411 C410 1.387 . S
C411 C413 1.387 . S
H412 C419 0.950 . S
C413 C411 1.387 . S
C413 C415 1.390 1_545 S
C413 H417 0.950 . S
H414 C410 0.950 . S
C415 C413 1.390 1_565 S
C415 C416 1.387 . S
C415 H418 0.950 . S
C416 C415 1.387 . S
C416 C419 1.387 . S
H417 C413 0.950 . S
H418 C415 0.950 . S
C419 C410 1.390 1_565 S
C419 H412 0.950 . S
C419 C416 1.387 . S
C420 C421 1.387 . S
C420 H424 0.950 . S
C420 C429 1.390 1_545 S
C421 C420 1.387 . S
C421 C423 1.387 . S
H422 C429 0.950 . S
C423 C421 1.387 . S
C423 C425 1.390 1_545 S
C423 H427 0.950 . S
H424 C420 0.950 . S
C425 C423 1.390 1_565 S
C425 C426 1.387 . S
C425 H428 0.950 . S
C426 C425 1.387 . S
C426 C429 1.387 . S
H427 C423 0.950 . S
H428 C425 0.950 . S
C429 C420 1.390 1_565 S
C429 H422 0.950 . S
C429 C426 1.387 . S
C430 C431 1.387 . S
C430 H434 0.950 . S
C430 C439 1.390 1_545 S
C431 C430 1.387 . S
C431 C433 1.387 . S
H432 C439 0.950 . S
C433 C431 1.387 . S
C433 C435 1.390 1_545 S
C433 H437 0.950 . S
H434 C430 0.950 . S
C435 C433 1.390 1_565 S
C435 C436 1.387 . S
C435 H438 0.950 . S
C436 C435 1.387 . S
C436 C439 1.387 . S
H437 C433 0.950 . S
H438 C435 0.950 . S
C439 C430 1.390 1_565 S
C439 H432 0.950 . S
C439 C436 1.387 . S
C440 C441 1.387 . S
C440 H444 0.950 . S
C440 C449 1.390 . S
C441 C440 1.387 . S
C441 C443 1.387 . S
H442 C449 0.950 . S
C443 C441 1.387 . S
C443 C445 1.390 . S
C443 H447 0.950 . S
H444 C440 0.950 . S
C445 C443 1.390 . S
C445 C446 1.387 . S
C445 H448 0.950 . S
C446 C445 1.387 . S
C446 C449 1.387 . S
H447 C443 0.950 . S
H448 C445 0.950 . S
C449 C440 1.390 . S
C449 H442 0.950 . S
C449 C446 1.387 . S
C450 C451 1.387 . S
C450 H454 0.950 . S
C450 C459 1.390 . S
C451 C450 1.387 . S
C451 C453 1.387 . S
H452 C459 0.950 . S
C453 C451 1.387 . S
C453 C455 1.390 . S
C453 H457 0.950 . S
H454 C450 0.950 . S
C455 C453 1.390 . S
C455 C456 1.387 . S
C455 H458 0.950 . S
C456 C455 1.387 . S
C456 C459 1.387 . S
H457 C453 0.950 . S
H458 C455 0.950 . S
C459 C450 1.390 . S
C459 H452 0.950 . S
C459 C456 1.387 . S
C460 C461 1.387 . S
C460 H464 0.950 . S
C460 C469 1.390 . S
C461 C460 1.387 . S
C461 C463 1.387 . S
H462 C469 0.950 . S
C463 C461 1.387 . S
C463 C465 1.390 . S
C463 H467 0.950 . S
H464 C460 0.950 . S
C465 C463 1.390 . S
C465 C466 1.387 . S
C465 H468 0.950 . S
C466 C465 1.387 . S
C466 C469 1.387 . S
H467 C463 0.950 . S
H468 C465 0.950 . S
C469 C460 1.390 . S
C469 H462 0.950 . S
C469 C466 1.387 . S
C470 C471 1.387 . S
C470 H474 0.950 . S
C470 C479 1.390 . S
C471 C470 1.387 . S
C471 C473 1.387 . S
H472 C479 0.950 . S
C473 C471 1.387 . S
C473 C475 1.390 . S
C473 H477 0.950 . S
H474 C470 0.950 . S
C475 C473 1.390 . S
C475 C476 1.387 . S
C475 H478 0.950 . S
C476 C475 1.387 . S
C476 C479 1.387 . S
H477 C473 0.950 . S
H478 C475 0.950 . S
C479 C470 1.390 . S
C479 H472 0.950 . S
C479 C476 1.387 . S
C480 C481 1.387 . S
C480 H484 0.950 . S
C480 C489 1.390 1_556 S
C481 C480 1.387 . S
C481 C483 1.387 . S
H482 C489 0.950 . S
C483 C481 1.387 . S
C483 C485 1.390 1_556 S
C483 H487 0.950 1_545 S
H484 C480 0.950 . S
C485 C483 1.390 1_554 S
C485 C486 1.387 . S
C485 H488 0.950 1_545 S
C486 C485 1.387 . S
C486 C489 1.387 . S
H487 C483 0.950 1_565 S
H488 C485 0.950 1_565 S
C489 C480 1.390 1_554 S
C489 H482 0.950 . S
C489 C486 1.387 . S
C490 C491 1.387 . S
C490 H494 0.950 . S
C490 C499 1.390 1_556 S
C491 C490 1.387 . S
C491 C493 1.387 . S
H492 C499 0.950 . S
C493 C491 1.387 . S
C493 C495 1.390 1_556 S
C493 H497 0.950 1_565 S
H494 C490 0.950 . S
C495 C493 1.390 1_554 S
C495 C496 1.387 . S
C495 H498 0.950 1_565 S
C496 C495 1.387 . S
C496 C499 1.387 . S
H497 C493 0.950 1_545 S
H498 C495 0.950 1_545 S
C499 C490 1.390 1_554 S
C499 H492 0.950 . S
C499 C496 1.387 . S
C500 C501 1.387 . S
C500 H504 0.950 . S
C500 C509 1.390 . S
C501 C500 1.387 . S
C501 C503 1.387 . S
H502 C509 0.950 . S
C503 C501 1.387 . S
C503 C505 1.390 . S
C503 H507 0.950 1_565 S
H504 C500 0.950 . S
C505 C503 1.390 . S
C505 C506 1.387 . S
C505 H508 0.950 1_565 S
C506 C505 1.387 . S
C506 C509 1.387 . S
H507 C503 0.950 1_545 S
H508 C505 0.950 1_545 S
C509 C500 1.390 . S
C509 H502 0.950 . S
C509 C506 1.387 . S
C510 C511 1.387 . S
C510 H514 0.950 1_545 S
C510 C519 1.390 . S
C511 C510 1.387 . S
C511 C513 1.387 . S
H512 C519 0.950 1_565 S
C513 C511 1.387 . S
C513 C515 1.390 . S
C513 H517 0.950 . S
H514 C510 0.950 1_565 S
C515 C513 1.390 . S
C515 C516 1.387 . S
C515 H518 0.950 . S
C516 C515 1.387 . S
C516 C519 1.387 . S
H517 C513 0.950 . S
H518 C515 0.950 . S
C519 C510 1.390 . S
C519 H512 0.950 1_545 S
C519 C516 1.387 . S
C520 C521 1.387 . S
C520 H524 0.950 . S
C520 C529 1.390 1_554 S
C521 C520 1.387 . S
C521 C523 1.387 . S
H522 C529 0.950 . S
C523 C521 1.387 . S
C523 C525 1.390 1_554 S
C523 H527 0.950 . S
H524 C520 0.950 . S
C525 C523 1.390 1_556 S
C525 C526 1.387 . S
C525 H528 0.950 . S
C526 C525 1.387 . S
C526 C529 1.387 . S
H527 C523 0.950 . S
H528 C525 0.950 . S
C529 C520 1.390 1_556 S
C529 H522 0.950 . S
C529 C526 1.387 . S
C530 C531 1.387 . S
C530 H534 0.950 . S
C530 C539 1.390 1_556 S
C531 C530 1.387 . S
C531 C533 1.387 . S
H532 C539 0.950 . S
C533 C531 1.387 . S
C533 C535 1.390 1_556 S
C533 H537 0.950 . S
H534 C530 0.950 . S
C535 C533 1.390 1_554 S
C535 C536 1.387 . S
C535 H538 0.950 . S
C536 C535 1.387 . S
C536 C539 1.387 . S
H537 C533 0.950 . S
H538 C535 0.950 . S
C539 C530 1.390 1_554 S
C539 H532 0.950 . S
C539 C536 1.387 . S
C540 C541 1.387 . S
C540 H544 0.950 . S
C540 C549 1.390 . S
C541 C540 1.387 . S
C541 C543 1.387 . S
H542 C549 0.950 . S
C543 C541 1.387 . S
C543 C545 1.390 . S
C543 H547 0.950 . S
H544 C540 0.950 . S
C545 C543 1.390 . S
C545 C546 1.387 . S
C545 H548 0.950 . S
C546 C545 1.387 . S
C546 C549 1.387 . S
H547 C543 0.950 . S
H548 C545 0.950 . S
C549 C540 1.390 . S
C549 H542 0.950 . S
C549 C546 1.387 . S
C550 C551 1.387 . S
C550 H554 0.950 . S
C550 C559 1.390 . S
C551 C550 1.387 . S
C551 C553 1.387 . S
H552 C559 0.950 . S
C553 C551 1.387 . S
C553 C555 1.390 . S
C553 H557 0.950 . S
H554 C550 0.950 . S
C555 C553 1.390 . S
C555 C556 1.387 . S
C555 H558 0.950 . S
C556 C555 1.387 . S
C556 C559 1.387 . S
H557 C553 0.950 . S
H558 C555 0.950 . S
C559 C550 1.390 . S
C559 H552 0.950 . S
C559 C556 1.387 . S
C560 C561 1.387 . S
C560 H564 0.950 . S
C560 C569 1.390 1_645 S
C561 C560 1.387 . S
C561 C563 1.387 . S
H562 C569 0.950 . S
C563 C561 1.387 . S
C563 C565 1.390 1_645 S
C563 H567 0.950 . S
H564 C560 0.950 . S
C565 C563 1.390 1_465 S
C565 C566 1.387 . S
C565 H568 0.950 . S
C566 C565 1.387 . S
C566 C569 1.387 . S
H567 C563 0.950 . S
H568 C565 0.950 . S
C569 C560 1.390 1_465 S
C569 H562 0.950 . S
C569 C566 1.387 . S
C570 C571 1.387 . S
C570 H574 0.950 . S
C570 C579 1.390 1_665 S
C571 C570 1.387 . S
C571 C573 1.387 . S
H572 C579 0.950 . S
C573 C571 1.387 . S
C573 C575 1.390 1_665 S
C573 H577 0.950 . S
H574 C570 0.950 . S
C575 C573 1.390 1_445 S
C575 C576 1.387 . S
C575 H578 0.950 . S
C576 C575 1.387 . S
C576 C579 1.387 . S
H577 C573 0.950 . S
H578 C575 0.950 . S
C579 C570 1.390 1_445 S
C579 H572 0.950 . S
C579 C576 1.387 . S
C580 C581 1.387 . S
C580 H584 0.950 . S
C580 C589 1.390 1_465 S
C581 C580 1.387 . S
C581 C583 1.387 . S
H582 C589 0.950 . S
C583 C581 1.387 . S
C583 C585 1.390 1_465 S
C583 H587 0.950 . S
H584 C580 0.950 . S
C585 C583 1.390 1_645 S
C585 C586 1.387 . S
C585 H588 0.950 . S
C586 C585 1.387 . S
C586 C589 1.387 . S
H587 C583 0.950 . S
H588 C585 0.950 . S
C589 C580 1.390 1_645 S
C589 H582 0.950 . S
C589 C586 1.387 . S
C590 C591 1.387 . S
C590 H594 0.950 . S
C590 C599 1.390 1_665 S
C591 C590 1.387 . S
C591 C593 1.387 . S
H592 C599 0.950 . S
C593 C591 1.387 . S
C593 C595 1.390 1_665 S
C593 H597 0.950 . S
H594 C590 0.950 . S
C595 C593 1.390 1_445 S
C595 C596 1.387 . S
C595 H598 0.950 . S
C596 C595 1.387 . S
C596 C599 1.387 . S
H597 C593 0.950 . S
H598 C595 0.950 . S
C599 C590 1.390 1_445 S
C599 H592 0.950 . S
C599 C596 1.387 . S
C600 C601 1.387 . S
C600 H604 0.950 . S
C600 C609 1.390 . S
C601 C600 1.387 . S
C601 C603 1.387 . S
H602 C609 0.950 . S
C603 C601 1.387 . S
C603 C605 1.390 . S
C603 H607 0.950 . S
H604 C600 0.950 . S
C605 C603 1.390 . S
C605 C606 1.387 . S
C605 H608 0.950 . S
C606 C605 1.387 . S
C606 C609 1.387 . S
H607 C603 0.950 . S
H608 C605 0.950 . S
C609 C600 1.390 . S
C609 H602 0.950 . S
C609 C606 1.387 . S
C610 C611 1.387 . S
C610 H614 0.950 . S
C610 C619 1.390 . S
C611 C610 1.387 . S
C611 C613 1.387 . S
H612 C619 0.950 . S
C613 C611 1.387 . S
C613 C615 1.390 . S
C613 H617 0.950 . S
H614 C610 0.950 . S
C615 C613 1.390 . S
C615 C616 1.387 . S
C615 H618 0.950 . S
C616 C615 1.387 . S
C616 C619 1.387 . S
H617 C613 0.950 . S
H618 C615 0.950 . S
C619 C610 1.390 . S
C619 H612 0.950 . S
C619 C616 1.387 . S
C620 C621 1.387 . S
C620 H624 0.950 . S
C620 C629 1.390 . S
C621 C620 1.387 . S
C621 C623 1.387 . S
H622 C629 0.950 . S
C623 C621 1.387 . S
C623 C625 1.390 . S
C623 H627 0.950 . S
H624 C620 0.950 . S
C625 C623 1.390 . S
C625 C626 1.387 . S
C625 H628 0.950 . S
C626 C625 1.387 . S
C626 C629 1.387 . S
H627 C623 0.950 . S
H628 C625 0.950 . S
C629 C620 1.390 . S
C629 H622 0.950 . S
C629 C626 1.387 . S
C630 C631 1.387 . S
C630 H634 0.950 . S
C630 C639 1.390 . S
C631 C630 1.387 . S
C631 C633 1.387 . S
H632 C639 0.950 . S
C633 C631 1.387 . S
C633 C635 1.390 . S
C633 H637 0.950 . S
H634 C630 0.950 . S
C635 C633 1.390 . S
C635 C636 1.387 . S
C635 H638 0.950 . S
C636 C635 1.387 . S
C636 C639 1.387 . S
H637 C633 0.950 . S
H638 C635 0.950 . S
C639 C630 1.390 . S
C639 H632 0.950 . S
C639 C636 1.387 . S
C640 C641 1.387 . S
C640 H644 0.950 . S
C640 C649 1.390 . S
C641 C640 1.387 . S
C641 C643 1.387 . S
H642 C649 0.950 . S
C643 C641 1.387 . S
C643 C645 1.390 . S
C643 H647 0.950 . S
H644 C640 0.950 . S
C645 C643 1.390 . S
C645 C646 1.387 . S
C645 H648 0.950 . S
C646 C645 1.387 . S
C646 C649 1.387 . S
H647 C643 0.950 . S
H648 C645 0.950 . S
C649 C640 1.390 . S
C649 H642 0.950 . S
C649 C646 1.387 . S
C650 C651 1.387 . S
C650 H654 0.950 . S
C650 C659 1.390 . S
C651 C650 1.387 . S
C651 C653 1.387 . S
H652 C659 0.950 . S
C653 C651 1.387 . S
C653 C655 1.390 . S
C653 H657 0.950 . S
H654 C650 0.950 . S
C655 C653 1.390 . S
C655 C656 1.387 . S
C655 H658 0.950 . S
C656 C655 1.387 . S
C656 C659 1.387 . S
H657 C653 0.950 . S
H658 C655 0.950 . S
C659 C650 1.390 . S
C659 H652 0.950 . S
C659 C656 1.387 . S
C660 C661 1.387 . S
C660 H664 0.950 . S
C660 C669 1.390 . S
C661 C660 1.387 . S
C661 C663 1.387 . S
H662 C669 0.950 . S
C663 C661 1.387 . S
C663 C665 1.390 . S
C663 H667 0.950 . S
H664 C660 0.950 . S
C665 C663 1.390 . S
C665 C666 1.387 . S
C665 H668 0.950 . S
C666 C665 1.387 . S
C666 C669 1.387 . S
H667 C663 0.950 . S
H668 C665 0.950 . S
C669 C660 1.390 . S
C669 H662 0.950 . S
C669 C666 1.387 . S
C670 C671 1.387 . S
C670 H674 0.950 . S
C670 C679 1.390 . S
C671 C670 1.387 . S
C671 C673 1.387 . S
H672 C679 0.950 . S
C673 C671 1.387 . S
C673 C675 1.390 . S
C673 H677 0.950 . S
H674 C670 0.950 . S
C675 C673 1.390 . S
C675 C676 1.387 . S
C675 H678 0.950 . S
C676 C675 1.387 . S
C676 C679 1.387 . S
H677 C673 0.950 . S
H678 C675 0.950 . S
C679 C670 1.390 . S
C679 H672 0.950 . S
C679 C676 1.387 . S
C680 C681 1.387 . S
C680 H684 0.950 . S
C680 C689 1.390 . S
C681 C680 1.387 . S
C681 C683 1.387 . S
H682 C689 0.950 . S
C683 C681 1.387 . S
C683 C685 1.390 . S
C683 H687 0.950 . S
H684 C680 0.950 . S
C685 C683 1.390 . S
C685 C686 1.387 . S
C685 H688 0.950 . S
C686 C685 1.387 . S
C686 C689 1.387 . S
H687 C683 0.950 . S
H688 C685 0.950 . S
C689 C680 1.390 . S
C689 H682 0.950 . S
C689 C686 1.387 . S
C690 C691 1.387 . S
C690 H694 0.950 . S
C690 C699 1.390 . S
C691 C690 1.387 . S
C691 C693 1.387 . S
H692 C699 0.950 . S
C693 C691 1.387 . S
C693 C695 1.390 . S
C693 H697 0.950 . S
H694 C690 0.950 . S
C695 C693 1.390 . S
C695 C696 1.387 . S
C695 H698 0.950 . S
C696 C695 1.387 . S
C696 C699 1.387 . S
H697 C693 0.950 . S
H698 C695 0.950 . S
C699 C690 1.390 . S
C699 H692 0.950 . S
C699 C696 1.387 . S
C700 C701 1.387 . S
C700 H704 0.950 . S
C700 C709 1.390 . S
C701 C700 1.387 . S
C701 C703 1.387 . S
H702 C709 0.950 . S
C703 C701 1.387 . S
C703 C705 1.390 . S
C703 H707 0.950 . S
H704 C700 0.950 . S
C705 C703 1.390 . S
C705 C706 1.387 . S
C705 H708 0.950 . S
C706 C705 1.387 . S
C706 C709 1.387 . S
H707 C703 0.950 . S
H708 C705 0.950 . S
C709 C700 1.390 . S
C709 H702 0.950 . S
C709 C706 1.387 . S
C710 C711 1.387 . S
C710 H714 0.950 . S
C710 C719 1.390 . S
C711 C710 1.387 . S
C711 C713 1.387 . S
H712 C719 0.950 . S
C713 C711 1.387 . S
C713 C715 1.390 . S
C713 H717 0.950 . S
H714 C710 0.950 . S
C715 C713 1.390 . S
C715 C716 1.387 . S
C715 H718 0.950 . S
C716 C715 1.387 . S
C716 C719 1.387 . S
H717 C713 0.950 . S
H718 C715 0.950 . S
C719 C710 1.390 . S
C719 H712 0.950 . S
C719 C716 1.387 . S
C720 C721 1.388 . S
C720 H724 0.950 . S
C720 C729 1.390 . S
C721 C720 1.388 . S
C721 C723 1.389 . S
H722 C729 0.950 . S
C723 C721 1.389 . S
C723 C725 1.390 . S
C723 H727 0.950 . S
H724 C720 0.950 . S
C725 C723 1.390 . S
C725 C726 1.387 . S
C725 H728 0.950 . S
C726 C725 1.387 . S
C726 C729 1.387 . S
H727 C723 0.950 . S
H728 C725 0.950 . S
C729 C720 1.390 . S
C729 H722 0.950 . S
C729 C726 1.387 . S
C730 C731 1.387 . S
C730 H734 0.950 . S
C730 C739 1.390 . S
C731 C730 1.387 . S
C731 C733 1.387 . S
H732 C739 0.950 . S
C733 C731 1.387 . S
C733 C735 1.390 . S
C733 H737 0.950 . S
H734 C730 0.950 . S
C735 C733 1.390 . S
C735 C736 1.387 . S
C735 H738 0.950 . S
C736 C735 1.387 . S
C736 C739 1.387 . S
H737 C733 0.950 . S
H738 C735 0.950 . S
C739 C730 1.390 . S
C739 H732 0.950 . S
C739 C736 1.387 . S
C740 C741 1.388 . S
C740 H744 0.950 . S
C740 C749 1.390 . S
C741 C740 1.388 . S
C741 C743 1.388 . S
H742 C749 0.950 . S
C743 C741 1.388 . S
C743 C745 1.390 . S
C743 H747 0.950 . S
H744 C740 0.950 . S
C745 C743 1.390 . S
C745 C746 1.387 . S
C745 H748 0.950 . S
C746 C745 1.387 . S
C746 C749 1.387 . S
H747 C743 0.950 . S
H748 C745 0.950 . S
C749 C740 1.390 . S
C749 H742 0.950 . S
C749 C746 1.387 . S
C750 C751 1.387 . S
C750 H754 0.950 . S
C750 C759 1.390 . S
C751 C750 1.387 . S
C751 C753 1.387 . S
H752 C759 0.950 . S
C753 C751 1.387 . S
C753 C755 1.390 . S
C753 H757 0.950 1_545 S
H754 C750 0.950 . S
C755 C753 1.390 . S
C755 C756 1.387 . S
C755 H758 0.950 . S
C756 C755 1.387 . S
C756 C759 1.387 . S
H757 C753 0.950 1_565 S
H758 C755 0.950 . S
C759 C750 1.390 . S
C759 H752 0.950 . S
C759 C756 1.387 . S
C760 C761 1.387 . S
C760 H764 0.950 . S
C760 C769 1.390 . S
C761 C760 1.387 . S
C761 C763 1.387 . S
H762 C769 0.950 . S
C763 C761 1.387 . S
C763 C765 1.390 . S
C763 H767 0.950 . S
H764 C760 0.950 . S
C765 C763 1.390 . S
C765 C766 1.388 . S
C765 H768 0.950 . S
C766 C765 1.388 . S
C766 C769 1.388 . S
H767 C763 0.950 . S
H768 C765 0.950 . S
C769 C760 1.390 . S
C769 H762 0.950 . S
C769 C766 1.388 . S
C770 C771 1.387 . S
C770 H774 0.950 . S
C770 C779 1.390 . S
C771 C770 1.387 . S
C771 C773 1.387 . S
H772 C779 0.950 . S
C773 C771 1.387 . S
C773 C775 1.390 . S
C773 H777 0.950 . S
H774 C770 0.950 . S
C775 C773 1.390 . S
C775 C776 1.389 . S
C775 H778 0.950 . S
C776 C775 1.389 . S
C776 C779 1.388 . S
H777 C773 0.950 . S
H778 C775 0.950 . S
C779 C770 1.390 . S
C779 H772 0.950 . S
C779 C776 1.388 . S
C780 C781 1.389 . S
C780 H784 0.950 . S
C780 C789 1.390 . S
C781 C780 1.389 . S
C781 C783 1.388 . S
H782 C789 0.950 . S
C783 C781 1.388 . S
C783 C785 1.390 . S
C783 H787 0.950 . S
H784 C780 0.950 . S
C785 C783 1.390 . S
C785 C786 1.387 . S
C785 H788 0.950 . S
C786 C785 1.387 . S
C786 C789 1.387 . S
H787 C783 0.950 . S
H788 C785 0.950 . S
C789 C780 1.390 . S
C789 H782 0.950 . S
C789 C786 1.387 . S
C790 C791 1.387 . S
C790 H794 0.950 . S
C790 C799 1.390 . S
C791 C790 1.387 . S
C791 C793 1.387 . S
H792 C799 0.950 . S
C793 C791 1.387 . S
C793 C795 1.390 . S
C793 H797 0.950 . S
H794 C790 0.950 . S
C795 C793 1.390 . S
C795 C796 1.388 . S
C795 H798 0.950 1_565 S
C796 C795 1.388 . S
C796 C799 1.388 . S
H797 C793 0.950 . S
H798 C795 0.950 1_545 S
C799 C790 1.390 . S
C799 H792 0.950 . S
C799 C796 1.388 . S
C321 C19 1.508 . S
C326 C199 1.508 . S
C331 C39 1.508 . S
C336 C179 1.508 . S
C341 C239 1.508 . S
C346 C59 1.508 . S
C351 C79 1.508 . S
C356 C219 1.508 . S
C361 C278 1.508 . S
C366 C98 1.508 . S
C371 C258 1.508 . S
C376 C118 1.508 . S
C381 C318 1.508 . S
C386 C138 1.508 . S
C391 C158 1.508 . S
C396 C298 1.508 . S
C401 C49 1.612 . S
C406 C9 1.612 . S
C411 C69 1.612 . S
C416 C29 1.612 . S
C421 C128 1.612 . S
C426 C88 1.612 . S
C431 C108 1.611 . S
C436 C148 1.611 . S
C441 C209 1.612 . S
C446 C169 1.612 . S
C451 C229 1.611 . S
C456 C189 1.611 . S
C461 C248 1.611 . S
C466 C288 1.611 . S
C471 C268 1.612 . S
C476 C308 1.612 . S
C481 C109 1.483 . S
C486 C8 1.484 . S
C491 C89 1.483 . S
C496 C28 1.484 . S
C501 C48 1.484 . S
C506 C149 1.483 . S
C511 C129 1.484 . S
C516 C68 1.482 . S
C521 C168 1.483 . S
C526 C269 1.483 . S
C531 C249 1.484 . S
C536 C188 1.482 . S
C541 C208 1.482 . S
C546 C309 1.484 . S
C551 C289 1.484 . S
C556 C228 1.482 . S
C561 C38 1.590 1_545 S
C566 C18 1.590 1_565 S
C571 C78 1.590 1_565 S
C576 C58 1.590 1_545 S
C581 C119 1.592 1_565 S
C586 C99 1.592 1_545 S
C591 C139 1.590 1_565 S
C596 C159 1.590 1_545 S
C601 C198 1.592 . S
C606 C178 1.592 . S
C611 C238 1.590 . S
C616 C218 1.590 . S
C621 C259 1.592 . S
C626 C279 1.592 . S
C631 C299 1.592 . S
C636 C319 1.592 . S
C641 C2 1.571 . S
C646 C1 1.571 . S
C651 C22 1.571 . S
C656 C21 1.571 . S
C661 C42 1.571 . S
C666 C41 1.571 . S
C671 C61 1.571 . S
C676 C62 1.571 . S
C681 C81 1.571 . S
C686 C82 1.571 . S
C691 C102 1.571 . S
C696 C101 1.571 . S
C701 C121 1.575 . S
C706 C122 1.575 . S
C711 C141 1.575 . S
C716 C142 1.575 . S
C721 C161 1.573 1_545 S
C726 C162 1.575 . S
C731 C182 1.571 . S
C736 C181 1.572 1_565 S
C741 C201 1.573 1_565 S
C746 C202 1.575 . S
C751 C221 1.572 1_545 S
C756 C222 1.571 . S
C761 C241 1.575 . S
C766 C242 1.573 1_565 S
C771 C261 1.574 . S
C776 C262 1.572 1_545 S
C781 C282 1.573 1_545 S
C786 C281 1.575 . S
C791 C301 1.575 . S
C796 C302 1.573 1_565 S
