# Generated by pormake.
# Topology lll, (7)-cn, num edge types: 1
# Building blocks:
#     Node 0, Type 0, BuildingBlock: NUHQUE_clean_sbu_2, # of connection points: 7
#     Node 1, Type 0, BuildingBlock: NUHQUE_clean_sbu_2, # of connection points: 7
#     Node 2, Type 0, BuildingBlock: NUHQUE_clean_sbu_2, # of connection points: 7
#     Node 3, Type 0, BuildingBlock: NUHQUE_clean_sbu_2, # of connection points: 7
#     Node 4, Type 0, BuildingBlock: NUHQUE_clean_sbu_2, # of connection points: 7
#     Node 5, Type 0, BuildingBlock: NUHQUE_clean_sbu_2, # of connection points: 7
#     Node 6, Type 0, BuildingBlock: NUHQUE_clean_sbu_2, # of connection points: 7
#     Node 7, Type 0, BuildingBlock: NUHQUE_clean_sbu_2, # of connection points: 7
#     Node 8, Type 0, BuildingBlock: NUHQUE_clean_sbu_2, # of connection points: 7
#     Node 9, Type 0, BuildingBlock: NUHQUE_clean_sbu_2, # of connection points: 7
#     Node 10, Type 0, BuildingBlock: NUHQUE_clean_sbu_2, # of connection points: 7
#     Node 11, Type 0, BuildingBlock: NUHQUE_clean_sbu_2, # of connection points: 7
#     Node 12, Type 0, BuildingBlock: NUHQUE_clean_sbu_2, # of connection points: 7
#     Node 13, Type 0, BuildingBlock: NUHQUE_clean_sbu_2, # of connection points: 7
#     Node 14, Type 0, BuildingBlock: NUHQUE_clean_sbu_2, # of connection points: 7
#     Node 15, Type 0, BuildingBlock: NUHQUE_clean_sbu_2, # of connection points: 7
#     Edge 16, Type (0, 0), BuildingBlock: TEMPAE_clean_linker_10, # of connection points: 2
#     Edge 17, Type (0, 0), BuildingBlock: TEMPAE_clean_linker_10, # of connection points: 2
#     Edge 18, Type (0, 0), BuildingBlock: TEMPAE_clean_linker_10, # of connection points: 2
#     Edge 19, Type (0, 0), BuildingBlock: TEMPAE_clean_linker_10, # of connection points: 2
#     Edge 20, Type (0, 0), BuildingBlock: TEMPAE_clean_linker_10, # of connection points: 2
#     Edge 21, Type (0, 0), BuildingBlock: TEMPAE_clean_linker_10, # of connection points: 2
#     Edge 22, Type (0, 0), BuildingBlock: TEMPAE_clean_linker_10, # of connection points: 2
#     Edge 23, Type (0, 0), BuildingBlock: TEMPAE_clean_linker_10, # of connection points: 2
#     Edge 24, Type (0, 0), BuildingBlock: TEMPAE_clean_linker_10, # of connection points: 2
#     Edge 25, Type (0, 0), BuildingBlock: TEMPAE_clean_linker_10, # of connection points: 2
#     Edge 26, Type (0, 0), BuildingBlock: TEMPAE_clean_linker_10, # of connection points: 2
#     Edge 27, Type (0, 0), BuildingBlock: TEMPAE_clean_linker_10, # of connection points: 2
#     Edge 28, Type (0, 0), BuildingBlock: TEMPAE_clean_linker_10, # of connection points: 2
#     Edge 29, Type (0, 0), BuildingBlock: TEMPAE_clean_linker_10, # of connection points: 2
#     Edge 30, Type (0, 0), BuildingBlock: TEMPAE_clean_linker_10, # of connection points: 2
#     Edge 31, Type (0, 0), BuildingBlock: TEMPAE_clean_linker_10, # of connection points: 2
#     Edge 32, Type (0, 0), BuildingBlock: TEMPAE_clean_linker_10, # of connection points: 2
#     Edge 33, Type (0, 0), BuildingBlock: TEMPAE_clean_linker_10, # of connection points: 2
#     Edge 34, Type (0, 0), BuildingBlock: TEMPAE_clean_linker_10, # of connection points: 2
#     Edge 35, Type (0, 0), BuildingBlock: TEMPAE_clean_linker_10, # of connection points: 2
#     Edge 36, Type (0, 0), BuildingBlock: TEMPAE_clean_linker_10, # of connection points: 2
#     Edge 37, Type (0, 0), BuildingBlock: TEMPAE_clean_linker_10, # of connection points: 2
#     Edge 38, Type (0, 0), BuildingBlock: TEMPAE_clean_linker_10, # of connection points: 2
#     Edge 39, Type (0, 0), BuildingBlock: TEMPAE_clean_linker_10, # of connection points: 2
#     Edge 40, Type (0, 0), BuildingBlock: TEMPAE_clean_linker_10, # of connection points: 2
#     Edge 41, Type (0, 0), BuildingBlock: TEMPAE_clean_linker_10, # of connection points: 2
#     Edge 42, Type (0, 0), BuildingBlock: TEMPAE_clean_linker_10, # of connection points: 2
#     Edge 43, Type (0, 0), BuildingBlock: TEMPAE_clean_linker_10, # of connection points: 2
#     Edge 44, Type (0, 0), BuildingBlock: TEMPAE_clean_linker_10, # of connection points: 2
#     Edge 45, Type (0, 0), BuildingBlock: TEMPAE_clean_linker_10, # of connection points: 2
#     Edge 46, Type (0, 0), BuildingBlock: TEMPAE_clean_linker_10, # of connection points: 2
#     Edge 47, Type (0, 0), BuildingBlock: TEMPAE_clean_linker_10, # of connection points: 2
#     Edge 48, Type (0, 0), BuildingBlock: TEMPAE_clean_linker_10, # of connection points: 2
#     Edge 49, Type (0, 0), BuildingBlock: TEMPAE_clean_linker_10, # of connection points: 2
#     Edge 50, Type (0, 0), BuildingBlock: TEMPAE_clean_linker_10, # of connection points: 2
#     Edge 51, Type (0, 0), BuildingBlock: TEMPAE_clean_linker_10, # of connection points: 2
#     Edge 52, Type (0, 0), BuildingBlock: TEMPAE_clean_linker_10, # of connection points: 2
#     Edge 53, Type (0, 0), BuildingBlock: TEMPAE_clean_linker_10, # of connection points: 2
#     Edge 54, Type (0, 0), BuildingBlock: TEMPAE_clean_linker_10, # of connection points: 2
#     Edge 55, Type (0, 0), BuildingBlock: TEMPAE_clean_linker_10, # of connection points: 2
#     Edge 56, Type (0, 0), BuildingBlock: TEMPAE_clean_linker_10, # of connection points: 2
#     Edge 57, Type (0, 0), BuildingBlock: TEMPAE_clean_linker_10, # of connection points: 2
#     Edge 58, Type (0, 0), BuildingBlock: TEMPAE_clean_linker_10, # of connection points: 2
#     Edge 59, Type (0, 0), BuildingBlock: TEMPAE_clean_linker_10, # of connection points: 2
#     Edge 60, Type (0, 0), BuildingBlock: TEMPAE_clean_linker_10, # of connection points: 2
#     Edge 61, Type (0, 0), BuildingBlock: TEMPAE_clean_linker_10, # of connection points: 2
#     Edge 62, Type (0, 0), BuildingBlock: TEMPAE_clean_linker_10, # of connection points: 2
#     Edge 63, Type (0, 0), BuildingBlock: TEMPAE_clean_linker_10, # of connection points: 2
#     Edge 64, Type (0, 0), BuildingBlock: TEMPAE_clean_linker_10, # of connection points: 2
#     Edge 65, Type (0, 0), BuildingBlock: TEMPAE_clean_linker_10, # of connection points: 2
#     Edge 66, Type (0, 0), BuildingBlock: TEMPAE_clean_linker_10, # of connection points: 2
#     Edge 67, Type (0, 0), BuildingBlock: TEMPAE_clean_linker_10, # of connection points: 2
#     Edge 68, Type (0, 0), BuildingBlock: TEMPAE_clean_linker_10, # of connection points: 2
#     Edge 69, Type (0, 0), BuildingBlock: TEMPAE_clean_linker_10, # of connection points: 2
#     Edge 70, Type (0, 0), BuildingBlock: TEMPAE_clean_linker_10, # of connection points: 2
#     Edge 71, Type (0, 0), BuildingBlock: TEMPAE_clean_linker_10, # of connection points: 2
# Relax obj value: 0.472
# Max RMSD: 0.287
# Mean RMSD: 0.287
data_MOF--net-lll--node1-NUHQUE_clean_sbu_2--edge1-TEMPAE_clean_linker_10
_symmetry_space_group_name_H-M    P1
_symmetry_Int_Tables_number       1
_symmetry_cell_setting            triclinic
loop_
_symmetry_equiv_pos_as_xyz
'x, y, z'
_cell_length_a     49.152889
_cell_length_b     49.243829
_cell_length_c     46.212533
_cell_angle_alpha  89.863513
_cell_angle_beta   89.960268
_cell_angle_gamma 89.894632
loop_
_atom_site_label
_atom_site_type_symbol
_atom_site_fract_x
_atom_site_fract_y
_atom_site_fract_z
_atom_type_partial_charge
O0 O 0.67171 0.07774 0.04442 0.0
Tb1 Tb 0.70624 0.10506 0.04299 0.0
Eu2 Eu 0.66032 0.12948 0.09077 0.0
C3 C 0.66126 0.06792 1.02037 0.0
O4 O 0.63944 0.05264 1.02168 0.0
C5 C 0.66442 0.14947 1.02214 0.0
O6 O 0.68462 0.16502 0.10566 0.0
C7 C 0.61631 0.12294 0.12127 0.0
C8 C 0.70541 0.17488 0.09112 0.0
O9 O 0.70896 0.16887 0.0638 0.0
C10 C 0.71943 0.11196 0.108 0.0
C11 C 0.60294 0.1121 0.14788 0.0
C12 C 0.58388 0.09116 0.14397 0.0
C13 C 0.56831 0.08135 0.16709 0.0
C14 C 0.5719 0.09249 0.1946 0.0
C15 C 0.59028 0.11374 0.19935 0.0
C16 C 0.60609 0.12356 0.1759 0.0
O17 O 0.68932 0.13965 1.01949 0.0
O18 O 0.64905 0.14395 0.04501 0.0
O19 O 0.73905 0.0753 1.0383 0.0
O20 O 0.73319 0.10452 1.00572 0.0
C21 C 0.74882 0.0847 1.01412 0.0
O22 O 0.69391 0.10502 0.11238 0.0
O23 O 0.72688 0.11923 0.08186 0.0
O24 O 0.63122 0.14507 0.12261 0.0
O25 O 0.62511 0.10516 0.10207 0.0
H26 H 0.58067 0.08276 0.12256 0.0
H27 H 0.55942 0.08527 0.21241 0.0
H28 H 0.61993 0.14035 0.17925 0.0
O29 O 0.91432 0.21595 0.27895 0.0
Tb30 Tb 0.88066 0.20959 0.30857 0.0
Eu31 Eu 0.85493 0.15408 0.34601 0.0
C32 C 0.9163 0.20127 0.25534 0.0
O33 O 0.906 0.17667 0.25555 0.0
C34 C 0.84361 0.16358 0.27685 0.0
O35 O 0.81253 0.14947 0.3622 0.0
C36 C 0.88405 0.11465 0.36626 0.0
C37 C 0.79575 0.1702 0.36333 0.0
O38 O 0.80393 0.19441 0.35514 0.0
C39 C 0.87914 0.2076 0.3741 0.0
C40 C 0.89638 0.10177 0.39183 0.0
C41 C 0.91497 0.08083 0.38675 0.0
C42 C 0.92429 0.06437 0.4094 0.0
C43 C 0.91575 0.07003 0.43779 0.0
C44 C 0.89661 0.09083 0.44358 0.0
C45 C 0.88708 0.10677 0.42018 0.0
O46 O 0.85468 0.18801 0.27727 0.0
O47 O 0.84456 0.14699 0.29915 0.0
O48 O 0.87991 0.25325 0.30187 0.0
O49 O 0.84565 0.2337 0.32118 0.0
C50 C 0.85596 0.25682 0.31309 0.0
O51 O 0.85777 0.19181 0.37307 0.0
O52 O 0.89671 0.20674 0.35258 0.0
O53 O 0.85738 0.11406 0.36484 0.0
O54 O 0.89506 0.13693 0.35554 0.0
H55 H 0.92135 0.07657 0.36474 0.0
H56 H 0.92339 0.05748 0.45526 0.0
H57 H 0.87164 0.12215 0.42368 0.0
O58 O 0.7628 0.38934 0.50251 0.0
Tb59 Tb 0.78752 0.36319 0.53005 0.0
Eu60 Eu 0.83171 0.36128 0.59368 0.0
C61 C 0.76823 0.39105 0.47471 0.0
O62 O 0.79012 0.379 0.46475 0.0
C63 C 0.84684 0.35171 0.52693 0.0
O64 O 0.81394 0.33087 0.62442 0.0
C65 C 0.87406 0.38211 0.61835 0.0
C66 C 0.79166 0.31701 0.61916 0.0
O67 O 0.78087 0.31737 0.59326 0.0
C68 C 0.76816 0.37522 0.59522 0.0
C69 C 0.88711 0.39522 0.64342 0.0
C70 C 0.90873 0.41305 0.63788 0.0
C71 C 0.92449 0.42368 0.66053 0.0
C72 C 0.91776 0.41638 0.68912 0.0
C73 C 0.89704 0.39745 0.69519 0.0
C74 C 0.88137 0.3873 0.67212 0.0
O75 O 0.83005 0.37216 0.52205 0.0
O76 O 0.84651 0.34052 0.55282 0.0
O77 O 0.77757 0.33135 0.49881 0.0
O78 O 0.79744 0.32096 0.53812 0.0
C79 C 0.78894 0.31185 0.51354 0.0
O80 O 0.79255 0.38495 0.60133 0.0
O81 O 0.76281 0.36478 0.56953 0.0
O82 O 0.86681 0.35658 0.62129 0.0
O83 O 0.85794 0.39648 0.60135 0.0
H84 H 0.91406 0.41747 0.6156 0.0
H85 H 0.92893 0.42525 0.70693 0.0
H86 H 0.86567 0.37238 0.67628 0.0
O87 O 0.55761 0.32239 0.78883 0.0
Tb88 Tb 0.59268 0.29613 0.79637 0.0
Eu89 Eu 0.64457 0.31468 0.83292 0.0
C90 C 0.5465 0.32732 0.7633 0.0
O91 O 0.52564 0.34395 0.76186 0.0
C92 C 0.64795 0.31926 0.7658 0.0
O93 O 0.67192 0.31194 0.87133 0.0
C94 C 0.61372 0.35628 0.84431 0.0
C95 C 0.67859 0.28942 0.8851 0.0
O96 O 0.67703 0.26557 0.87261 0.0
C97 C 0.60766 0.2695 0.85461 0.0
C98 C 0.60043 0.36828 0.86999 0.0
C99 C 0.58121 0.38923 0.86619 0.0
C100 C 0.569 0.40166 0.89029 0.0
C101 C 0.57675 0.39344 0.91812 0.0
C102 C 0.59626 0.37302 0.92245 0.0
C103 C 0.60767 0.35996 0.89824 0.0
O104 O 0.62083 0.31876 0.76662 0.0
O105 O 0.66252 0.31384 0.78887 0.0
O106 O 0.56964 0.26341 0.77586 0.0
O107 O 0.61149 0.25758 0.7869 0.0
C108 C 0.58971 0.24618 0.77664 0.0
O109 O 0.63197 0.2727 0.84453 0.0
O110 O 0.58817 0.28432 0.84289 0.0
O111 O 0.64046 0.35735 0.84385 0.0
O112 O 0.60405 0.33306 0.83493 0.0
H113 H 0.5757 0.39576 0.84455 0.0
H114 H 0.56769 0.40335 0.93674 0.0
H115 H 0.62259 0.34403 0.90127 0.0
O116 O 0.65103 0.42507 0.29557 0.0
Tb117 Tb 0.65721 0.38846 0.2702 0.0
Eu118 Eu 0.63667 0.33639 0.23181 0.0
C119 C 0.63532 0.42427 0.31861 0.0
O120 O 0.61311 0.40951 0.31759 0.0
C121 C 0.63305 0.33481 0.29994 0.0
O122 O 0.65739 0.30372 0.20729 0.0
C123 C 0.58942 0.34953 0.21206 0.0
C124 C 0.68332 0.3 0.21296 0.0
O125 O 0.69384 0.31115 0.23614 0.0
C126 C 0.66996 0.38525 0.2054 0.0
C127 C 0.5768 0.36208 0.18637 0.0
C128 C 0.55522 0.38015 0.19089 0.0
C129 C 0.54271 0.3935 0.16763 0.0
C130 C 0.55218 0.38838 0.13944 0.0
C131 C 0.57316 0.36939 0.13408 0.0
C132 C 0.58566 0.35652 0.15797 0.0
O133 O 0.6333 0.3617 0.29929 0.0
O134 O 0.63807 0.3203 0.27686 0.0
O135 O 0.69769 0.39811 0.28639 0.0
O136 O 0.69093 0.36041 0.265 0.0
C137 C 0.70899 0.37604 0.2769 0.0
O138 O 0.66955 0.35912 0.20942 0.0
O139 O 0.65814 0.40146 0.22446 0.0
O140 O 0.59978 0.32494 0.20919 0.0
O141 O 0.60402 0.36589 0.22847 0.0
H142 H 0.54801 0.38357 0.21277 0.0
H143 H 0.54333 0.39962 0.12161 0.0
H144 H 0.60189 0.34196 0.15459 0.0
O145 O 0.59728 0.21908 0.56467 0.0
Tb146 Tb 0.61512 0.19226 0.53189 0.0
Eu147 Eu 0.60593 0.13739 0.484 0.0
C148 C 0.60805 0.21965 0.59085 0.0
O149 O 0.62819 0.203 0.59672 0.0
C150 C 0.62584 0.13489 0.54969 0.0
O151 O 0.60713 0.10289 0.45197 0.0
C152 C 0.55406 0.13814 0.4855 0.0
C153 C 0.6176 0.10423 0.42596 0.0
O154 O 0.61246 0.08464 0.40753 0.0
C155 C 0.61194 0.19993 0.46474 0.0
C156 C 0.53874 0.1284 0.45994 0.0
C157 C 0.51848 0.10878 0.46379 0.0
C158 C 0.50844 0.09406 0.44011 0.0
C159 C 0.51793 0.10017 0.4121 0.0
C160 C 0.53896 0.11918 0.40748 0.0
C161 C 0.54899 0.13337 0.43175 0.0
O162 O 0.60698 0.15366 0.55271 0.0
O163 O 0.63179 0.127 0.52325 0.0
O164 O 0.65184 0.21287 0.54553 0.0
O165 O 0.65556 0.1774 0.51975 0.0
C166 C 0.66872 0.1956 0.53428 0.0
O167 O 0.6214 0.17503 0.46027 0.0
O168 O 0.60068 0.2067 0.48978 0.0
O169 O 0.56799 0.11915 0.49894 0.0
O170 O 0.568 0.16062 0.48199 0.0
H171 H 0.51183 0.10369 0.48552 0.0
H172 H 0.50978 0.08887 0.39402 0.0
H173 H 0.56618 0.14687 0.42909 0.0
O174 O 0.75135 0.10682 0.80679 0.0
Tb175 Tb 0.75413 0.12685 0.76483 0.0
Eu176 Eu 0.82578 0.13753 0.74046 0.0
C177 C 0.74096 0.12145 0.82795 0.0
O178 O 0.73428 0.1468 0.82269 0.0
C179 C 0.7952 0.16838 0.79333 0.0
O180 O 0.85903 0.16592 0.72681 0.0
C181 C 0.84992 0.09124 0.73309 0.0
C182 C 0.85614 0.18533 0.70778 0.0
O183 O 0.87779 0.1987 0.69912 0.0
C184 C 0.7747 0.12493 0.70402 0.0
C185 C 0.86215 0.07964 0.70663 0.0
C186 C 0.88293 0.06017 0.70946 0.0
C187 C 0.89778 0.05168 0.68513 0.0
C188 C 0.89094 0.0621 0.65787 0.0
C189 C 0.87112 0.08234 0.65454 0.0
C190 C 0.85632 0.09086 0.67903 0.0
O191 O 0.77092 0.16517 0.78146 0.0
O192 O 0.816 0.15267 0.78603 0.0
O193 O 0.71346 0.11013 0.75897 0.0
O194 O 0.7221 0.15042 0.74465 0.0
C195 C 0.70388 0.13129 0.74562 0.0
O196 O 0.79472 0.14251 0.70447 0.0
O197 O 0.77227 0.10902 0.72677 0.0
O198 O 0.86237 0.1128 0.74292 0.0
O199 O 0.82334 0.09359 0.73377 0.0
H200 H 0.88845 0.05274 0.73077 0.0
H201 H 0.90186 0.055 0.63892 0.0
H202 H 0.8414 0.10698 0.6769 0.0
O203 O 0.86249 0.30254 0.05849 0.0
Tb204 Tb 0.83449 0.29351 1.02349 0.0
Eu205 Eu 0.83758 0.35711 0.99347 0.0
C206 C 0.85235 0.29924 0.08467 0.0
O207 O 0.82607 0.29496 0.08703 0.0
C208 C 0.80279 0.34221 0.04977 0.0
O209 O 0.82281 0.39759 0.97703 0.0
C210 C 0.88955 0.36001 0.98517 0.0
C211 C 0.79773 0.40152 0.9686 0.0
O212 O 0.79063 0.42517 0.95779 0.0
C213 C 0.82808 0.30363 0.95769 0.0
C214 C 0.90506 0.36857 0.95943 0.0
C215 C 0.92607 0.38738 0.96352 0.0
C216 C 0.93752 0.40105 0.93991 0.0
C217 C 0.92876 0.39481 0.91191 0.0
C218 C 0.90732 0.37656 0.9072 0.0
C219 C 0.89567 0.36309 0.9311 0.0
O220 O 0.80009 0.31721 0.03995 0.0
O221 O 0.82226 0.35788 0.03972 0.0
O222 O 0.85199 0.25344 1.03015 0.0
O223 O 0.80896 0.25739 1.0267 0.0
C224 C 0.82913 0.2404 1.02987 0.0
O225 O 0.81843 0.32852 0.96037 0.0
O226 O 0.84459 0.29419 0.97763 0.0
O227 O 0.87535 0.37952 0.99711 0.0
O228 O 0.87627 0.33699 0.98381 0.0
H229 H 0.93212 0.39288 0.9853 0.0
H230 H 0.93728 0.40588 0.89371 0.0
H231 H 0.87825 0.34997 0.92785 0.0
O232 O 0.20656 0.58642 0.52237 0.0
Tb233 Tb 0.22477 0.61112 0.55616 0.0
Eu234 Eu 0.16117 0.62664 0.59505 0.0
C235 C 0.20473 0.59807 0.49673 0.0
O236 O 0.2105 0.62399 0.49456 0.0
C237 C 0.18431 0.65636 0.53868 0.0
O238 O 0.1231 0.64771 0.60973 0.0
C239 C 0.14796 0.57836 0.61212 0.0
C240 C 0.12298 0.66995 0.62491 0.0
O241 O 0.09981 0.67932 0.635 0.0
C242 C 0.22095 0.62703 0.6203 0.0
C243 C 0.1282 0.57093 0.63536 0.0
C244 C 0.10672 0.55292 0.62911 0.0
C245 C 0.08654 0.5474 0.64994 0.0
C246 C 0.0887 0.55925 0.67739 0.0
C247 C 0.10895 0.57822 0.68395 0.0
C248 C 0.12902 0.58375 0.66292 0.0
O249 O 0.20957 0.65199 0.54706 0.0
O250 O 0.1647 0.64015 0.54789 0.0
O251 O 0.26278 0.588 0.55803 0.0
O252 O 0.26258 0.62713 0.53861 0.0
C253 C 0.27745 0.60602 0.54479 0.0
O254 O 0.19857 0.64188 0.61948 0.0
O255 O 0.22283 0.60595 0.60293 0.0
O256 O 0.13772 0.58935 0.58858 0.0
O257 O 0.17032 0.59042 0.62054 0.0
H258 H 0.10522 0.54401 0.60775 0.0
H259 H 0.07399 0.55395 0.69395 0.0
H260 H 0.1446 0.59862 0.66768 0.0
O261 O 0.39463 0.7343 0.76934 0.0
Tb262 Tb 0.37917 0.70466 0.80037 0.0
Eu263 Eu 0.37046 0.64958 0.8485 0.0
C264 C 0.40672 0.72656 0.74534 0.0
O265 O 0.41254 0.7008 0.74162 0.0
C266 C 0.36449 0.64925 0.77853 0.0
O267 O 0.32875 0.65215 0.86789 0.0
C268 C 0.39335 0.60584 0.86828 0.0
C269 C 0.31759 0.67408 0.87902 0.0
O270 O 0.33109 0.69702 0.87985 0.0
C271 C 0.39265 0.71114 0.86805 0.0
C272 C 0.40705 0.59327 0.89346 0.0
C273 C 0.42821 0.57488 0.88808 0.0
C274 C 0.43955 0.55933 0.91053 0.0
C275 C 0.42989 0.56303 0.93893 0.0
C276 C 0.40825 0.58108 0.94498 0.0
C277 C 0.39712 0.59636 0.92194 0.0
O278 O 0.38515 0.66634 0.77806 0.0
O279 O 0.35399 0.64228 0.80359 0.0
O280 O 0.34276 0.72116 0.78058 0.0
O281 O 0.33891 0.69286 0.81535 0.0
C282 C 0.32597 0.70656 0.79563 0.0
O283 O 0.38497 0.68599 0.87376 0.0
O284 O 0.39443 0.72121 0.84144 0.0
O285 O 0.36734 0.6113 0.87113 0.0
O286 O 0.40672 0.62391 0.85269 0.0
H287 H 0.43532 0.57207 0.86607 0.0
H288 H 0.43877 0.5511 0.95623 0.0
H289 H 0.37998 0.60971 0.92585 0.0
O290 O 0.3016 0.86154 0.04214 0.0
Tb291 Tb 0.33143 0.84065 0.06847 0.0
Eu292 Eu 0.38219 0.84038 0.11366 0.0
C293 C 0.30813 0.8829 1.02655 0.0
O294 O 0.33239 0.89367 1.02955 0.0
C295 C 0.38688 0.83014 0.04741 0.0
O296 O 0.41592 0.83329 0.14585 0.0
C297 C 0.38416 0.89262 0.11184 0.0
C298 C 0.41366 0.81828 0.16911 0.0
O299 O 0.43329 0.81852 0.18838 0.0
C300 C 0.31964 0.83856 0.13469 0.0
C301 C 0.38866 0.91028 0.13702 0.0
C302 C 0.40517 0.93321 0.13388 0.0
C303 C 0.41489 0.94699 0.15831 0.0
C304 C 0.40722 0.93803 0.18601 0.0
C305 C 0.39114 0.91466 0.18972 0.0
C306 C 0.38163 0.90107 0.165 0.0
O307 O 0.36981 0.85057 0.04844 0.0
O308 O 0.39192 0.81783 0.07206 0.0
O309 O 0.31824 0.80699 0.04196 0.0
O310 O 0.3363 0.79849 0.08284 0.0
C311 C 0.3263 0.78793 0.0594 0.0
O312 O 0.34416 0.82806 0.13916 0.0
O313 O 0.31386 0.85125 0.11023 0.0
O314 O 0.40511 0.87732 0.10539 0.0
O315 O 0.36106 0.87938 0.11112 0.0
H316 H 0.41168 0.93944 0.11244 0.0
H317 H 0.41506 0.9485 0.20485 0.0
H318 H 0.37035 0.8823 0.16751 0.0
O319 O 0.09282 0.8167 0.29227 0.0
Tb320 Tb 0.11818 0.78295 0.30599 0.0
Eu321 Eu 0.13166 0.84021 0.33459 0.0
C322 C 0.08417 0.82009 0.26555 0.0
O323 O 0.06883 0.84119 0.25947 0.0
C324 C 0.16398 0.81651 0.27922 0.0
O325 O 0.14727 0.88038 0.35061 0.0
C326 C 0.08027 0.84726 0.3442 0.0
C327 C 0.17086 0.88365 0.36311 0.0
O328 O 0.17718 0.9075 0.37381 0.0
C329 C 0.14221 0.78489 0.3707 0.0
C330 C 0.06703 0.86045 0.36925 0.0
C331 C 0.04646 0.87993 0.36459 0.0
C332 C 0.03589 0.89489 0.3879 0.0
C333 C 0.04616 0.8904 0.41574 0.0
C334 C 0.06743 0.87197 0.42069 0.0
C335 C 0.0775 0.85662 0.39745 0.0
O336 O 0.15773 0.79196 0.28798 0.0
O337 O 0.15047 0.83763 0.28936 0.0
O338 O 0.08887 0.74954 0.30402 0.0
O339 O 0.12176 0.75056 0.27442 0.0
C340 C 0.10063 0.73678 0.28281 0.0
O341 O 0.14897 0.81083 0.36812 0.0
O342 O 0.12785 0.77217 0.35075 0.0
O343 O 0.09456 0.86364 0.32774 0.0
O344 O 0.0926 0.82396 0.34908 0.0
H345 H 0.03918 0.8839 0.34284 0.0
H346 H 0.03827 0.90229 0.43362 0.0
H347 H 0.09435 0.84278 0.40108 0.0
O348 O 0.21735 0.87544 0.8213 0.0
Tb349 Tb 0.1927 0.8529 0.79093 0.0
Eu350 Eu 0.14633 0.85512 0.72888 0.0
C351 C 0.20639 0.89064 0.84154 0.0
O352 O 0.18009 0.89536 0.841 0.0
C353 C 0.13436 0.84375 0.79506 0.0
O354 O 0.1626 0.82724 0.69493 0.0
C355 C 0.10359 0.87852 0.70786 0.0
C356 C 0.18482 0.81282 0.69865 0.0
O357 O 0.19594 0.8112 0.72435 0.0
C358 C 0.20988 0.86856 0.72648 0.0
C359 C 0.0914 0.89251 0.6829 0.0
C360 C 0.07096 0.91165 0.68838 0.0
C361 C 0.05561 0.9228 0.6657 0.0
C362 C 0.06144 0.91479 0.63719 0.0
C363 C 0.08137 0.89499 0.63126 0.0
C364 C 0.09669 0.88424 0.6543 0.0
O365 O 0.15098 0.86436 0.79808 0.0
O366 O 0.1333 0.83271 0.76926 0.0
O367 O 0.18297 0.81066 0.78145 0.0
O368 O 0.20235 0.8201 0.82109 0.0
C369 C 0.19171 0.80079 0.8057 0.0
O370 O 0.1854 0.87911 0.72249 0.0
O371 O 0.21648 0.8568 0.75121 0.0
O372 O 0.10906 0.85258 0.70455 0.0
O373 O 0.12138 0.89167 0.72391 0.0
H374 H 0.06606 0.91671 0.71061 0.0
H375 H 0.05016 0.92378 0.61944 0.0
H376 H 0.11166 0.86852 0.65018 0.0
O377 O 0.10037 0.71706 0.05979 0.0
Tb378 Tb 0.11426 0.69539 1.02154 0.0
Eu379 Eu 0.11155 0.64217 0.97096 0.0
C380 C 0.1139 0.71172 0.08376 0.0
O381 O 0.1338 0.69392 0.08252 0.0
C382 C 0.12325 0.63716 1.03873 0.0
O383 O 0.12126 0.60934 0.93902 0.0
C384 C 0.06028 0.63794 0.96398 0.0
C385 C 0.13892 0.61285 0.91836 0.0
O386 O 0.14122 0.59458 0.89785 0.0
C387 C 0.11349 0.70537 0.95673 0.0
C388 C 0.04938 0.62283 0.93887 0.0
C389 C 0.03154 0.60129 0.94403 0.0
C390 C 0.02587 0.58244 0.92223 0.0
C391 C 0.03708 0.58597 0.89455 0.0
C392 C 0.05587 0.60686 0.88878 0.0
C393 C 0.06161 0.62549 0.91115 0.0
O394 O 0.10467 0.65624 0.04067 0.0
O395 O 0.13246 0.63073 1.01293 0.0
O396 O 0.14969 0.72104 1.02755 0.0
O397 O 0.15547 0.68029 1.0136 0.0
C398 C 0.16754 0.70272 1.0206 0.0
O399 O 0.12727 0.68247 0.95337 0.0
O400 O 0.09841 0.70912 0.98005 0.0
O401 O 0.07324 0.62293 0.98309 0.0
O402 O 0.07299 0.66064 0.958 0.0
H403 H 0.02351 0.5981 0.96565 0.0
H404 H 0.03218 0.57132 0.87792 0.0
H405 H 0.07699 0.64088 0.90765 0.0
O406 O 0.2683 0.56458 0.27954 0.0
Tb407 Tb 0.24332 0.60096 0.27933 0.0
Eu408 Eu 0.30205 0.60117 0.24589 0.0
C409 C 0.26821 0.54724 0.3013 0.0
O410 O 0.28162 0.52428 0.29877 0.0
C411 C 0.29018 0.63255 0.30739 0.0
O412 O 0.31417 0.63924 0.2232 0.0
C413 C 0.34024 0.56733 0.231 0.0
C414 C 0.29968 0.66159 0.2222 0.0
O415 O 0.27551 0.66262 0.23423 0.0
C416 C 0.24454 0.61104 0.21428 0.0
C417 C 0.35285 0.5564 0.2043 0.0
C418 C 0.37244 0.53566 0.20708 0.0
C419 C 0.38824 0.52768 0.1832 0.0
C420 C 0.38348 0.53988 0.15628 0.0
C421 C 0.36464 0.561 0.15299 0.0
C422 C 0.34895 0.56912 0.17704 0.0
O423 O 0.26405 0.6334 0.30164 0.0
O424 O 0.30639 0.61571 0.29309 0.0
O425 O 0.20264 0.58373 0.27515 0.0
O426 O 0.21309 0.60404 0.31378 0.0
C427 C 0.19356 0.5916 0.30017 0.0
O428 O 0.2669 0.59631 0.214 0.0
O429 O 0.23543 0.62117 0.23855 0.0
O430 O 0.3442 0.5933 0.2354 0.0
O431 O 0.31556 0.55926 0.23812 0.0
H432 H 0.37647 0.52686 0.22818 0.0
H433 H 0.39532 0.53348 0.13767 0.0
H434 H 0.3349 0.58599 0.17496 0.0
O435 O 0.40177 0.7994 0.52718 0.0
Tb436 Tb 0.37139 0.7684 0.53538 0.0
Eu437 Eu 0.34984 0.81467 0.48848 0.0
C438 C 0.41523 0.81113 0.54839 0.0
O439 O 0.4317 0.83135 0.5425 0.0
C440 C 0.32574 0.80953 0.55524 0.0
O441 O 0.32229 0.80942 0.45073 0.0
C442 C 0.37439 0.8599 0.47669 0.0
C443 C 0.30577 0.78878 0.44733 0.0
O444 O 0.30085 0.77219 0.469 0.0
C445 C 0.35694 0.75352 0.47268 0.0
C446 C 0.38657 0.87494 0.45224 0.0
C447 C 0.40296 0.89751 0.45852 0.0
C448 C 0.41213 0.91466 0.43629 0.0
C449 C 0.40471 0.90905 0.40768 0.0
C450 C 0.38767 0.88712 0.40088 0.0
C451 C 0.37903 0.86965 0.42326 0.0
O452 O 0.34459 0.79199 0.56299 0.0
O453 O 0.32238 0.81782 0.52826 0.0
O454 O 0.39997 0.7348 0.54232 0.0
O455 O 0.36981 0.74295 0.57372 0.0
C456 C 0.38965 0.72675 0.56683 0.0
O457 O 0.36737 0.77738 0.46657 0.0
O458 O 0.3499 0.7487 0.49964 0.0
O459 O 0.34791 0.85668 0.47533 0.0
O460 O 0.38743 0.83858 0.48713 0.0
H461 H 0.408 0.90216 0.48081 0.0
H462 H 0.41143 0.9226 0.39057 0.0
H463 H 0.36545 0.85295 0.41839 0.0
C464 C 0.78614 0.09904 0.98253 0.0
C465 C 0.77812 0.08552 1.00783 0.0
C466 C 0.80596 0.11941 0.98402 0.0
C467 C 0.81732 0.12568 1.01129 0.0
C468 C 0.81493 0.10673 1.03416 0.0
C469 C 0.79553 0.08601 1.03184 0.0
C470 C 0.8104 0.13765 0.95822 0.0
C471 C 0.82844 0.1116 0.06293 0.0
C472 C 0.84991 0.19486 1.02211 0.0
C473 C 0.82693 0.21075 1.02836 0.0
C474 C 0.8475 0.16687 1.01704 0.0
C475 C 0.82152 0.1547 1.01856 0.0
C476 C 0.79846 0.17069 1.02609 0.0
C477 C 0.80149 0.19856 1.0307 0.0
C478 C 0.87258 0.15107 1.00855 0.0
C479 C 0.77025 0.15874 1.02828 0.0
H480 H 0.77365 0.09752 0.9633 0.0
H481 H 0.79039 0.07433 0.051 0.0
H482 H 0.7971 0.15581 0.96012 0.0
H483 H 0.83181 0.14473 0.95738 0.0
H484 H 0.80537 0.12711 0.93768 0.0
H485 H 0.82918 0.09275 0.07616 0.0
H486 H 0.8494 0.11941 0.05993 0.0
H487 H 0.81669 0.12717 0.075 0.0
H488 H 0.86966 0.20444 1.02002 0.0
H489 H 0.78381 0.21095 1.03553 0.0
H490 H 0.8758 0.15329 0.98489 0.0
H491 H 0.87083 0.12911 1.01355 0.0
H492 H 0.89088 0.15924 1.01957 0.0
H493 H 0.76369 0.15131 1.00676 0.0
H494 H 0.75503 0.17384 1.03573 0.0
H495 H 0.77014 0.14135 0.04358 0.0
C496 C 0.74915 0.35063 0.26008 0.0
C497 C 0.73782 0.36939 0.27923 0.0
C498 C 0.77499 0.33993 0.26517 0.0
C499 C 0.78893 0.34745 0.2907 0.0
C500 C 0.77917 0.36912 0.30781 0.0
C501 C 0.7536 0.38023 0.30154 0.0
C502 C 0.78558 0.31826 0.24503 0.0
C503 C 0.79437 0.37852 0.33429 0.0
C504 C 0.81479 0.28331 0.32415 0.0
C505 C 0.84121 0.28254 0.31313 0.0
C506 C 0.7982 0.30582 0.3192 0.0
C507 C 0.80856 0.32799 0.303 0.0
C508 C 0.8362 0.32848 0.29458 0.0
C509 C 0.85229 0.30548 0.29962 0.0
C510 C 0.76884 0.30465 0.32898 0.0
C511 C 0.8482 0.35195 0.27789 0.0
H512 H 0.73738 0.34338 0.24185 0.0
H513 H 0.74517 0.39587 0.3153 0.0
H514 H 0.80809 0.31786 0.24425 0.0
H515 H 0.7784 0.2981 0.25264 0.0
H516 H 0.7779 0.32157 0.22271 0.0
H517 H 0.78664 0.39838 0.34224 0.0
H518 H 0.79199 0.36331 0.35187 0.0
H519 H 0.81643 0.3803 0.3296 0.0
H520 H 0.80652 0.26565 0.3351 0.0
H521 H 0.87298 0.30491 0.29149 0.0
H522 H 0.75536 0.30281 0.30983 0.0
H523 H 0.76316 0.32356 0.34051 0.0
H524 H 0.76487 0.28713 0.34357 0.0
H525 H 0.84624 0.34794 0.25437 0.0
H526 H 0.87021 0.35421 0.28277 0.0
H527 H 0.83768 0.37137 0.28273 0.0
C528 C 0.80368 0.26474 0.52321 0.0
C529 C 0.78885 0.28311 0.50614 0.0
C530 C 0.79603 0.23739 0.52426 0.0
C531 C 0.77224 0.22954 0.50951 0.0
C532 C 0.76209 0.24633 0.48694 0.0
C533 C 0.77035 0.27345 0.48577 0.0
C534 C 0.81006 0.21819 0.54485 0.0
C535 C 0.73877 0.23751 0.46798 0.0
C536 C 0.71559 0.18085 0.52068 0.0
C537 C 0.69822 0.19817 0.53599 0.0
C538 C 0.74267 0.18846 0.51556 0.0
C539 C 0.75167 0.2139 0.52582 0.0
C540 C 0.73556 0.22831 0.54628 0.0
C541 C 0.70889 0.22011 0.55105 0.0
C542 C 0.76072 0.1705 0.49743 0.0
C543 C 0.74463 0.25451 0.56019 0.0
H544 H 0.81939 0.27211 0.53765 0.0
H545 H 0.76001 0.28756 0.47146 0.0
H546 H 0.79639 0.21327 0.56322 0.0
H547 H 0.81471 0.19884 0.5336 0.0
H548 H 0.82924 0.22688 0.55349 0.0
H549 H 0.73557 0.25164 0.44951 0.0
H550 H 0.74272 0.21695 0.45927 0.0
H551 H 0.71972 0.23674 0.48087 0.0
H552 H 0.70762 0.16243 0.51138 0.0
H553 H 0.69568 0.23241 0.56454 0.0
H554 H 0.78254 0.174 0.50225 0.0
H555 H 0.7573 0.17477 0.47416 0.0
H556 H 0.75585 0.14876 0.50123 0.0
H557 H 0.76478 0.25195 0.57061 0.0
H558 H 0.72999 0.26155 0.57687 0.0
H559 H 0.74602 0.27075 0.54366 0.0
C560 C 0.57383 0.20627 0.74786 0.0
C561 C 0.58796 0.21704 0.7714 0.0
C562 C 0.58007 0.17996 0.73807 0.0
C563 C 0.60108 0.16522 0.75206 0.0
C564 C 0.60987 0.17377 0.77986 0.0
C565 C 0.60374 0.20005 0.78875 0.0
C566 C 0.5667 0.16963 0.71095 0.0
C567 C 0.62963 0.15756 0.79803 0.0
C568 C 0.65559 0.11565 0.74254 0.0
C569 C 0.67587 0.13462 0.73573 0.0
C570 C 0.62807 0.12335 0.74126 0.0
C571 C 0.62159 0.1506 0.73439 0.0
C572 C 0.64171 0.16703 0.72102 0.0
C573 C 0.66882 0.15894 0.72237 0.0
C574 C 0.60656 0.10349 0.75073 0.0
C575 C 0.63577 0.1951 0.70972 0.0
H576 H 0.56014 0.21903 0.73563 0.0
H577 H 0.61324 0.20808 0.8081 0.0
H578 H 0.57077 0.1837 0.69265 0.0
H579 H 0.57363 0.14887 0.70516 0.0
H580 H 0.54431 0.16935 0.71413 0.0
H581 H 0.63104 0.1655 0.82048 0.0
H582 H 0.62328 0.13604 0.7993 0.0
H583 H 0.65024 0.15854 0.78828 0.0
H584 H 0.6611 0.09593 0.75122 0.0
H585 H 0.68461 0.17281 0.71525 0.0
H586 H 0.58573 0.11212 0.7491 0.0
H587 H 0.61044 0.09679 0.7733 0.0
H588 H 0.60778 0.08508 0.73695 0.0
H589 H 0.65278 0.20294 0.69626 0.0
H590 H 0.63286 0.20916 0.72818 0.0
H591 H 0.61716 0.19513 0.69626 0.0
C592 C 0.40877 0.67993 0.56438 0.0
C593 C 0.39105 0.69861 0.57733 0.0
C594 C 0.40133 0.65246 0.56228 0.0
C595 C 0.37504 0.64462 0.57155 0.0
C596 C 0.35976 0.66249 0.58946 0.0
C597 C 0.36884 0.68906 0.59322 0.0
C598 C 0.42003 0.63311 0.54672 0.0
C599 C 0.33132 0.65574 0.59982 0.0
C600 C 0.31977 0.62411 0.52414 0.0
C601 C 0.3072 0.60585 0.54298 0.0
C602 C 0.34618 0.6331 0.52965 0.0
C603 C 0.35957 0.62394 0.55508 0.0
C604 C 0.34942 0.60089 0.56979 0.0
C605 C 0.32277 0.59223 0.5639 0.0
C606 C 0.35733 0.65593 0.51133 0.0
C607 C 0.36508 0.58823 0.59439 0.0
H608 H 0.42681 0.6871 0.55323 0.0
H609 H 0.35572 0.70337 0.60429 0.0
H610 H 0.41248 0.61188 0.54723 0.0
H611 H 0.42265 0.63968 0.5239 0.0
H612 H 0.44047 0.63374 0.55689 0.0
H613 H 0.32253 0.67186 0.61376 0.0
H614 H 0.31751 0.65336 0.58104 0.0
H615 H 0.33132 0.63646 0.61211 0.0
H616 H 0.30795 0.63364 0.50708 0.0
H617 H 0.31331 0.57719 0.57779 0.0
H618 H 0.37919 0.65267 0.50674 0.0
H619 H 0.35507 0.67549 0.523 0.0
H620 H 0.34652 0.65761 0.49033 0.0
H621 H 0.38714 0.58766 0.58921 0.0
H622 H 0.35783 0.56732 0.59906 0.0
H623 H 0.36254 0.60058 0.61424 0.0
C624 C 0.21501 0.76354 0.83087 0.0
C625 C 0.19505 0.77179 0.81134 0.0
C626 C 0.22683 0.73792 0.82824 0.0
C627 C 0.21858 0.72088 0.80507 0.0
C628 C 0.19379 0.72643 0.79092 0.0
C629 C 0.18254 0.75254 0.79345 0.0
C630 C 0.25145 0.73177 0.84657 0.0
C631 C 0.18162 0.7062 0.77031 0.0
C632 C 0.28461 0.72324 0.77139 0.0
C633 C 0.29705 0.70414 0.78939 0.0
C634 C 0.25632 0.72504 0.77038 0.0
C635 C 0.24077 0.70768 0.78854 0.0
C636 C 0.25317 0.68418 0.8 0.0
C637 C 0.2816 0.68314 0.80148 0.0
C638 C 0.24377 0.74841 0.75389 0.0
C639 C 0.23674 0.6622 0.81408 0.0
H640 H 0.22365 0.77807 0.84587 0.0
H641 H 0.1658 0.75857 0.77956 0.0
H642 H 0.25292 0.70981 0.85131 0.0
H643 H 0.27011 0.73813 0.83488 0.0
H644 H 0.25073 0.74296 0.86741 0.0
H645 H 0.16147 0.71299 0.76216 0.0
H646 H 0.1955 0.7028 0.75173 0.0
H647 H 0.17912 0.68639 0.78149 0.0
H648 H 0.29684 0.73827 0.76017 0.0
H649 H 0.29148 0.66686 0.81334 0.0
H650 H 0.23954 0.76542 0.76893 0.0
H651 H 0.2244 0.74224 0.74359 0.0
H652 H 0.25768 0.7561 0.73678 0.0
H653 H 0.23506 0.66668 0.83739 0.0
H654 H 0.24696 0.64218 0.81182 0.0
H655 H 0.21601 0.66111 0.80468 0.0
C656 C 0.31678 0.74966 1.02719 0.0
C657 C 0.31863 0.75962 0.05541 0.0
C658 C 0.29835 0.72902 1.0206 0.0
C659 C 0.28089 0.71952 0.04273 0.0
C660 C 0.28687 0.72549 0.07202 0.0
C661 C 0.30579 0.7459 0.07808 0.0
C662 C 0.29367 0.72188 0.98926 0.0
C663 C 0.26951 0.71476 0.09641 0.0
C664 C 0.2071 0.73255 1.02591 0.0
C665 C 0.19687 0.70629 1.0236 0.0
C666 C 0.23453 0.73694 1.03167 0.0
C667 C 0.25224 0.71429 1.03499 0.0
C668 C 0.24216 0.68762 1.03164 0.0
C669 C 0.2143 0.68391 1.02634 0.0
C670 C 0.24425 0.76594 1.03477 0.0
C671 C 0.26044 0.66309 1.03438 0.0
H672 H 0.32694 0.76038 1.00977 0.0
H673 H 0.30717 0.75383 0.09988 0.0
H674 H 0.28517 0.70114 0.98696 0.0
H675 H 0.27897 0.73651 0.97974 0.0
H676 H 0.31288 0.72329 0.97668 0.0
H677 H 0.28058 0.71545 0.11737 0.0
H678 H 0.25097 0.72754 0.09842 0.0
H679 H 0.26299 0.6936 0.0922 0.0
H680 H 0.19345 0.74977 1.02374 0.0
H681 H 0.20608 0.66358 1.02508 0.0
H682 H 0.26007 0.77042 1.01833 0.0
H683 H 0.25334 0.76904 0.05647 0.0
H684 H 0.22755 0.78095 1.032 0.0
H685 H 0.25148 0.64505 1.02365 0.0
H686 H 0.26332 0.65815 0.05759 0.0
H687 H 0.28081 0.667 1.02491 0.0
C688 C 0.11797 0.6946 0.26138 0.0
C689 C 0.09736 0.70767 0.27679 0.0
C690 C 0.12197 0.66666 0.26396 0.0
C691 C 0.10491 0.65154 0.28285 0.0
C692 C 0.0811 0.66386 0.29408 0.0
C693 C 0.07775 0.69212 0.29131 0.0
C694 C 0.14698 0.65448 0.24993 0.0
C695 C 0.06059 0.64801 0.31147 0.0
C696 C 0.14485 0.5882 0.28575 0.0
C697 C 0.16455 0.5971 0.30554 0.0
C698 C 0.12072 0.60313 0.28184 0.0
C699 C 0.11714 0.62753 0.29744 0.0
C700 C 0.13398 0.63272 0.32169 0.0
C701 C 0.15777 0.61752 0.32521 0.0
C702 C 0.10124 0.59488 0.25831 0.0
C703 C 0.12989 0.6573 0.3407 0.0
H704 H 0.13307 0.70658 0.25004 0.0
H705 H 0.06121 0.70214 0.30259 0.0
H706 H 0.16216 0.64906 0.26676 0.0
H707 H 0.14162 0.63577 0.23801 0.0
H708 H 0.15679 0.66869 0.23441 0.0
H709 H 0.03973 0.65306 0.30393 0.0
H710 H 0.06369 0.62574 0.30973 0.0
H711 H 0.06178 0.65403 0.33455 0.0
H712 H 0.14955 0.57168 0.2711 0.0
H713 H 0.17277 0.62442 0.34062 0.0
H714 H 0.10997 0.6 0.23685 0.0
H715 H 0.08124 0.60518 0.26057 0.0
H716 H 0.09814 0.57254 0.25883 0.0
H717 H 0.13556 0.67596 0.32859 0.0
H718 H 0.14252 0.65621 0.36059 0.0
H719 H 0.10831 0.65913 0.34729 0.0
C720 C 0.61427 0.26456 0.90785 0.0
C721 C 0.6053 0.25318 0.88169 0.0
C722 C 0.62212 0.24811 0.93155 0.0
C723 C 0.62106 0.21936 0.92927 0.0
C724 C 0.61091 0.20783 0.90328 0.0
C725 C 0.60338 0.22481 0.87987 0.0
C726 C 0.63351 0.26147 0.95826 0.0
C727 C 0.60983 0.17746 0.89936 0.0
C728 C 0.67008 0.17658 0.97575 0.0
C729 C 0.65324 0.16736 0.9984 0.0
C730 C 0.65999 0.19357 0.95346 0.0
C731 C 0.63219 0.20147 0.95323 0.0
C732 C 0.61511 0.19226 0.97601 0.0
C733 C 0.6258 0.1755 0.99819 0.0
C734 C 0.67924 0.20273 0.92989 0.0
C735 C 0.58546 0.20015 0.97691 0.0
H736 H 0.61704 0.28638 0.90904 0.0
H737 H 0.59763 0.21578 0.85941 0.0
H738 H 0.62301 0.25376 0.97787 0.0
H739 H 0.65539 0.25629 0.96046 0.0
H740 H 0.63152 0.28392 0.95749 0.0
H741 H 0.59814 0.17163 0.87977 0.0
H742 H 0.63084 0.16944 0.89716 0.0
H743 H 0.60051 0.16756 0.91854 0.0
H744 H 0.69122 0.17065 0.97546 0.0
H745 H 0.61241 0.16861 1.01545 0.0
H746 H 0.67602 0.22445 0.92445 0.0
H747 H 0.67532 0.19076 0.91003 0.0
H748 H 0.70086 0.19987 0.93615 0.0
H749 H 0.58351 0.22259 0.97767 0.0
H750 H 0.57474 0.19137 0.99592 0.0
H751 H 0.57515 0.19319 0.95691 0.0
C752 C 0.81749 0.12808 0.24873 0.0
C753 C 0.82807 0.15456 0.25048 0.0
C754 C 0.80138 0.11963 0.22514 0.0
C755 C 0.79456 0.13828 0.20276 0.0
C756 C 0.80605 0.16482 0.20386 0.0
C757 C 0.82265 0.17248 0.22747 0.0
C758 C 0.79185 0.0905 0.22463 0.0
C759 C 0.80156 0.18548 0.18016 0.0
C760 C 0.76683 0.11853 0.12779 0.0
C761 C 0.73872 0.11614 0.1328 0.0
C762 C 0.78521 0.1247 0.15033 0.0
C763 C 0.77534 0.13008 0.17867 0.0
C764 C 0.74688 0.12749 0.18385 0.0
C765 C 0.72918 0.11991 0.16115 0.0
C766 C 0.81515 0.12564 0.14314 0.0
C767 C 0.73457 0.13299 0.21321 0.0
H768 H 0.82172 0.1137 0.26595 0.0
H769 H 0.83097 0.19285 0.22804 0.0
H770 H 0.77311 0.08864 0.23785 0.0
H771 H 0.78746 0.08325 0.2024 0.0
H772 H 0.80735 0.07685 0.23442 0.0
H773 H 0.79907 0.20613 0.18943 0.0
H774 H 0.81989 0.18603 0.16613 0.0
H775 H 0.78373 0.18086 0.16645 0.0
H776 H 0.77463 0.11548 0.10609 0.0
H777 H 0.70755 0.11828 0.1654 0.0
H778 H 0.82837 0.12378 0.16248 0.0
H779 H 0.81973 0.14512 0.13205 0.0
H780 H 0.8205 0.10901 0.12798 0.0
H781 H 0.73312 0.11362 0.22539 0.0
H782 H 0.71358 0.14117 0.21108 0.0
H783 H 0.74678 0.14753 0.22607 0.0
C784 C 0.84705 0.33696 0.47425 0.0
C785 C 0.85751 0.33463 0.50241 0.0
C786 C 0.85332 0.31769 0.45257 0.0
C787 C 0.87135 0.29585 0.45872 0.0
C788 C 0.88347 0.29451 0.48654 0.0
C789 C 0.8762 0.31358 0.50799 0.0
C790 C 0.83927 0.31981 0.42362 0.0
C791 C 0.9032 0.27211 0.49418 0.0
C792 C 0.86028 0.22865 0.4191 0.0
C793 C 0.8797 0.22936 0.39678 0.0
C794 C 0.85761 0.24993 0.4391 0.0
C795 C 0.87497 0.2728 0.43747 0.0
C796 C 0.8953 0.27338 0.41557 0.0
C797 C 0.89734 0.25178 0.3954 0.0
C798 C 0.83552 0.24818 0.4616 0.0
C799 C 0.91466 0.297 0.41323 0.0
H800 H 0.83288 0.35309 0.46947 0.0
H801 H 0.88469 0.31153 0.52953 0.0
H802 H 0.85424 0.31811 0.40575 0.0
H803 H 0.82471 0.30275 0.42129 0.0
H804 H 0.8279 0.3392 0.42115 0.0
H805 H 0.914 0.27617 0.51482 0.0
H806 H 0.89205 0.25265 0.49642 0.0
H807 H 0.91848 0.26947 0.47672 0.0
H808 H 0.84651 0.21154 0.42067 0.0
H809 H 0.91235 0.25274 0.37824 0.0
H810 H 0.82185 0.26595 0.45931 0.0
H811 H 0.84465 0.24883 0.4835 0.0
H812 H 0.82318 0.22938 0.45975 0.0
H813 H 0.90317 0.31578 0.40797 0.0
H814 H 0.93039 0.29375 0.39631 0.0
H815 H 0.92491 0.30038 0.4343 0.0
C816 C 0.65334 0.3482 0.72051 0.0
C817 C 0.66312 0.32783 0.73913 0.0
C818 C 0.66925 0.35788 0.69705 0.0
C819 C 0.69538 0.34655 0.69151 0.0
C820 C 0.70499 0.32563 0.71004 0.0
C821 C 0.68897 0.31679 0.73356 0.0
C822 C 0.65823 0.38051 0.67837 0.0
C823 C 0.73213 0.3122 0.70483 0.0
C824 C 0.72685 0.35138 0.61558 0.0
C825 C 0.74774 0.37067 0.61914 0.0
C826 C 0.70965 0.34366 0.63866 0.0
C827 C 0.71254 0.35598 0.66617 0.0
C828 C 0.7329 0.3762 0.6697 0.0
C829 C 0.75042 0.38298 0.64641 0.0
C830 C 0.68911 0.32135 0.63385 0.0
C831 C 0.73661 0.39025 0.69839 0.0
H832 H 0.63364 0.35721 0.72483 0.0
H833 H 0.69675 0.30099 0.7477 0.0
H834 H 0.6735 0.39698 0.67627 0.0
H835 H 0.65411 0.37271 0.65631 0.0
H836 H 0.63911 0.38922 0.68723 0.0
H837 H 0.73699 0.29646 0.7213 0.0
H838 H 0.7319 0.30251 0.68327 0.0
H839 H 0.74862 0.32754 0.70469 0.0
H840 H 0.72464 0.34124 0.59494 0.0
H841 H 0.76645 0.39772 0.64969 0.0
H842 H 0.66843 0.32847 0.6398 0.0
H843 H 0.69397 0.30376 0.648 0.0
H844 H 0.68877 0.31426 0.61104 0.0
H845 H 0.71683 0.39834 0.70619 0.0
H846 H 0.75143 0.40721 0.69704 0.0
H847 H 0.74395 0.37545 0.71476 0.0
C848 C 0.64434 0.31985 0.35043 0.0
C849 C 0.62634 0.31976 0.32692 0.0
C850 C 0.64124 0.30129 0.37356 0.0
C851 C 0.61911 0.28275 0.37365 0.0
C852 C 0.60004 0.28377 0.35063 0.0
C853 C 0.60425 0.30179 0.32731 0.0
C854 C 0.66249 0.30054 0.3971 0.0
C855 C 0.5757 0.26511 0.35005 0.0
C856 C 0.62618 0.2152 0.41453 0.0
C857 C 0.61327 0.22079 0.44102 0.0
C858 C 0.62794 0.23505 0.39245 0.0
C859 C 0.61674 0.2613 0.39683 0.0
C860 C 0.60321 0.26687 0.42323 0.0
C861 C 0.60177 0.24672 0.44494 0.0
C862 C 0.64217 0.22806 0.36451 0.0
C863 C 0.58997 0.29411 0.42846 0.0
H864 H 0.66175 0.33334 0.3499 0.0
H865 H 0.59048 0.30147 0.30898 0.0
H866 H 0.65279 0.30285 0.41862 0.0
H867 H 0.67293 0.28053 0.39692 0.0
H868 H 0.67799 0.31675 0.39442 0.0
H869 H 0.56107 0.27074 0.33272 0.0
H870 H 0.58247 0.24391 0.34633 0.0
H871 H 0.56497 0.26555 0.37118 0.0
H872 H 0.63513 0.19535 0.41104 0.0
H873 H 0.59152 0.2514 0.46509 0.0
H874 H 0.66143 0.23971 0.36295 0.0
H875 H 0.62956 0.23376 0.34558 0.0
H876 H 0.64679 0.20611 0.36302 0.0
H877 H 0.6055 0.31041 0.42772 0.0
H878 H 0.57938 0.29502 0.44968 0.0
H879 H 0.575 0.29847 0.41108 0.0
C880 C 0.64252 0.14183 0.60084 0.0
C881 C 0.6464 0.13053 0.57331 0.0
C882 C 0.66329 0.14141 0.62191 0.0
C883 C 0.68836 0.12813 0.61614 0.0
C884 C 0.69192 0.11547 0.58883 0.0
C885 C 0.67116 0.11709 0.56774 0.0
C886 C 0.65816 0.15527 0.65039 0.0
C887 C 0.71782 0.10036 0.58175 0.0
C888 C 0.75248 0.14611 0.6598 0.0
C889 C 0.75293 0.12576 0.68121 0.0
C890 C 0.7317 0.14712 0.63862 0.0
C891 C 0.71073 0.1273 0.63859 0.0
C892 C 0.71119 0.1067 0.6601 0.0
C893 C 0.73208 0.10625 0.68105 0.0
C894 C 0.7319 0.16978 0.61657 0.0
C895 C 0.68957 0.085 0.66104 0.0
H896 H 0.62331 0.15158 0.6058 0.0
H897 H 0.67457 0.10812 0.54666 0.0
H898 H 0.65342 0.1396 0.66687 0.0
H899 H 0.6764 0.16662 0.65765 0.0
H900 H 0.64068 0.16955 0.64922 0.0
H901 H 0.7169 0.09028 0.5603 0.0
H902 H 0.73528 0.1146 0.58177 0.0
H903 H 0.7219 0.08474 0.59856 0.0
H904 H 0.76826 0.16145 0.65972 0.0
H905 H 0.73206 0.09045 0.69741 0.0
H906 H 0.71356 0.18267 0.61956 0.0
H907 H 0.73098 0.16145 0.59432 0.0
H908 H 0.75033 0.18267 0.61837 0.0
H909 H 0.66977 0.09422 0.66705 0.0
H910 H 0.69437 0.06877 0.67698 0.0
H911 H 0.68712 0.07563 0.63938 0.0
C912 C 0.81549 0.29612 0.90475 0.0
C913 C 0.82183 0.28576 0.93227 0.0
C914 C 0.81075 0.27856 0.88096 0.0
C915 C 0.81158 0.24985 0.88483 0.0
C916 C 0.81726 0.23946 0.91284 0.0
C917 C 0.82271 0.25738 0.93586 0.0
C918 C 0.80545 0.29074 0.85154 0.0
C919 C 0.81751 0.20925 0.91865 0.0
C920 C 0.77693 0.20169 0.83065 0.0
C921 C 0.79919 0.19015 0.81588 0.0
C922 C 0.78056 0.22125 0.85273 0.0
C923 C 0.80708 0.2305 0.85982 0.0
C924 C 0.82952 0.21973 0.84419 0.0
C925 C 0.82537 0.19957 0.82287 0.0
C926 C 0.756 0.23143 0.86911 0.0
C927 C 0.85809 0.22931 0.85026 0.0
H928 H 0.81487 0.31794 0.90164 0.0
H929 H 0.8272 0.24904 0.95707 0.0
H930 H 0.82169 0.28435 0.83629 0.0
H931 H 0.78587 0.28317 0.84281 0.0
H932 H 0.80478 0.31329 0.85211 0.0
H933 H 0.82111 0.20441 0.94183 0.0
H934 H 0.79781 0.20019 0.91207 0.0
H935 H 0.83366 0.19937 0.90559 0.0
H936 H 0.75656 0.195 0.82544 0.0
H937 H 0.84277 0.19129 0.81147 0.0
H938 H 0.75507 0.25393 0.86829 0.0
H939 H 0.7577 0.22554 0.89223 0.0
H940 H 0.73665 0.22316 0.86041 0.0
H941 H 0.85902 0.25181 0.8492 0.0
H942 H 0.8731 0.2208 0.83473 0.0
H943 H 0.86414 0.2232 0.87247 0.0
C944 C 0.76489 0.33615 0.08616 0.0
C945 C 0.78366 0.35317 0.07226 0.0
C946 C 0.74652 0.34623 0.10702 0.0
C947 C 0.74681 0.37414 0.11461 0.0
C948 C 0.76552 0.39155 0.10045 0.0
C949 C 0.7837 0.3809 0.07962 0.0
C950 C 0.72697 0.32681 0.1212 0.0
C951 C 0.76636 0.42146 0.10733 0.0
C952 C 0.68206 0.3965 0.1544 0.0
C953 C 0.69004 0.39437 0.18347 0.0
C954 C 0.70083 0.39213 0.13164 0.0
C955 C 0.7281 0.38457 0.13804 0.0
C956 C 0.73656 0.38409 0.16737 0.0
C957 C 0.71759 0.38937 0.18955 0.0
C958 C 0.69102 0.3937 0.10076 0.0
C959 C 0.76496 0.37528 0.17564 0.0
H960 H 0.76446 0.31484 0.08061 0.0
H961 H 0.79787 0.39446 0.06893 0.0
H962 H 0.73224 0.32468 0.14443 0.0
H963 H 0.70584 0.33467 0.11999 0.0
H964 H 0.72755 0.30653 0.11087 0.0
H965 H 0.78136 0.43255 0.09377 0.0
H966 H 0.74596 0.43061 0.10395 0.0
H967 H 0.7717 0.4244 0.13043 0.0
H968 H 0.66068 0.39935 0.14946 0.0
H969 H 0.72371 0.3867 0.21191 0.0
H970 H 0.69446 0.37402 0.08971 0.0
H971 H 0.70293 0.40922 0.08881 0.0
H972 H 0.66907 0.39896 0.09928 0.0
H973 H 0.76723 0.35318 0.17157 0.0
H974 H 0.76938 0.37914 0.19885 0.0
H975 H 0.78035 0.38594 0.16226 0.0
C976 C 0.15261 0.78011 0.42446 0.0
C977 C 0.15041 0.76859 0.39677 0.0
C978 C 0.1584 0.76382 0.44909 0.0
C979 C 0.16284 0.7354 0.44598 0.0
C980 C 0.16149 0.72399 0.41788 0.0
C981 C 0.15484 0.74049 0.39393 0.0
C982 C 0.15953 0.777 0.47848 0.0
C983 C 0.1668 0.69413 0.41299 0.0
C984 C 0.19997 0.69251 0.50337 0.0
C985 C 0.17858 0.67798 0.5164 0.0
C986 C 0.19517 0.71189 0.48135 0.0
C987 C 0.1682 0.71723 0.47186 0.0
C988 C 0.14645 0.70331 0.48564 0.0
C989 C 0.15187 0.6839 0.50753 0.0
C990 C 0.21924 0.72561 0.46736 0.0
C991 C 0.11736 0.70847 0.47676 0.0
H992 H 0.14911 0.80171 0.427 0.0
H993 H 0.15341 0.73132 0.37268 0.0
H994 H 0.14453 0.76728 0.49317 0.0
H995 H 0.17996 0.77393 0.48816 0.0
H996 H 0.1552 0.79913 0.47748 0.0
H997 H 0.1688 0.68919 0.38965 0.0
H998 H 0.18572 0.68767 0.42415 0.0
H999 H 0.1498 0.68207 0.42215 0.0
H1000 H 0.22073 0.68831 0.50991 0.0
H1001 H 0.13508 0.67313 0.51749 0.0
H1002 H 0.22302 0.71619 0.44596 0.0
H1003 H 0.23802 0.72344 0.48054 0.0
H1004 H 0.21522 0.74754 0.46386 0.0
H1005 H 0.11293 0.73057 0.47711 0.0
H1006 H 0.10261 0.69792 0.4911 0.0
H1007 H 0.1142 0.70134 0.45426 0.0
C1008 C 0.34894 0.66062 0.72728 0.0
C1009 C 0.34658 0.64491 0.75256 0.0
C1010 C 0.32929 0.65903 0.70491 0.0
C1011 C 0.3066 0.64131 0.70767 0.0
C1012 C 0.30451 0.62504 0.73288 0.0
C1013 C 0.32438 0.62696 0.75473 0.0
C1014 C 0.33319 0.67599 0.67808 0.0
C1015 C 0.28096 0.60576 0.73707 0.0
C1016 C 0.24046 0.6515 0.66418 0.0
C1017 C 0.24304 0.63191 0.64223 0.0
C1018 C 0.26111 0.65515 0.68522 0.0
C1019 C 0.28524 0.63917 0.68422 0.0
C1020 C 0.28812 0.61984 0.66174 0.0
C1021 C 0.26717 0.61649 0.6412 0.0
C1022 C 0.25699 0.67588 0.70883 0.0
C1023 C 0.31294 0.6018 0.65996 0.0
H1024 H 0.36573 0.6747 0.72522 0.0
H1025 H 0.32208 0.61466 0.77406 0.0
H1026 H 0.34075 0.66268 0.66056 0.0
H1027 H 0.31372 0.68526 0.67092 0.0
H1028 H 0.34843 0.69225 0.68131 0.0
H1029 H 0.28255 0.59402 0.75755 0.0
H1030 H 0.26154 0.61729 0.73732 0.0
H1031 H 0.27994 0.59128 0.71875 0.0
H1032 H 0.22213 0.66374 0.6652 0.0
H1033 H 0.26971 0.60144 0.62434 0.0
H1034 H 0.27309 0.6916 0.70737 0.0
H1035 H 0.25893 0.66616 0.73042 0.0
H1036 H 0.23674 0.68586 0.70753 0.0
H1037 H 0.3318 0.61399 0.66186 0.0
H1038 H 0.31371 0.59015 0.63942 0.0
H1039 H 0.31275 0.58718 0.67826 0.0
C1040 C 0.4071 0.75584 0.89118 0.0
C1041 C 0.39679 0.72933 0.89378 0.0
C1042 C 0.40839 0.77342 0.91537 0.0
C1043 C 0.39849 0.76469 0.94276 0.0
C1044 C 0.38854 0.73783 0.94553 0.0
C1045 C 0.38813 0.72056 0.92132 0.0
C1046 C 0.42003 0.80152 0.91155 0.0
C1047 C 0.37756 0.72738 0.97397 0.0
C1048 C 0.41444 0.79904 1.01529 0.0
C1049 C 0.39152 0.81562 1.01943 0.0
C1050 C 0.41779 0.78364 0.98974 0.0
C1051 C 0.39715 0.78376 0.96824 0.0
C1052 C 0.37402 0.80061 0.97235 0.0
C1053 C 0.37179 0.81669 0.99746 0.0
C1054 C 0.44322 0.76679 0.98608 0.0
C1055 C 0.3508 0.80056 0.95096 0.0
H1056 H 0.41392 0.76298 0.8702 0.0
H1057 H 0.38 0.70027 0.92396 0.0
H1058 H 0.40374 0.8169 0.91446 0.0
H1059 H 0.43572 0.80542 0.92828 0.0
H1060 H 0.42928 0.80442 0.88982 0.0
H1061 H 0.36767 0.70721 0.97184 0.0
H1062 H 0.39432 0.72557 0.9899 0.0
H1063 H 0.36254 0.74188 0.98289 0.0
H1064 H 0.42979 0.79808 1.0321 0.0
H1065 H 0.35383 0.82917 1.00049 0.0
H1066 H 0.45174 0.76953 0.96401 0.0
H1067 H 0.43824 0.74497 0.98869 0.0
H1068 H 0.45908 0.77213 1.0022 0.0
H1069 H 0.35838 0.80496 0.92885 0.0
H1070 H 0.33483 0.81567 0.95651 0.0
H1071 H 0.34137 0.78009 0.9505 0.0
C1072 C 0.19684 0.79786 0.24248 0.0
C1073 C 0.18647 0.82023 0.25775 0.0
C1074 C 0.21863 0.80062 0.22287 0.0
C1075 C 0.23102 0.82633 0.21868 0.0
C1076 C 0.22067 0.84902 0.2341 0.0
C1077 C 0.19846 0.84575 0.2532 0.0
C1078 C 0.22859 0.77569 0.20716 0.0
C1079 C 0.23318 0.87678 0.23051 0.0
C1080 C 0.30291 0.82928 0.18584 0.0
C1081 C 0.29744 0.83564 0.15676 0.0
C1082 C 0.28161 0.8265 0.20629 0.0
C1083 C 0.25411 0.82973 0.19749 0.0
C1084 C 0.24856 0.83603 0.16816 0.0
C1085 C 0.27013 0.83904 0.14835 0.0
C1086 C 0.28847 0.81956 0.23722 0.0
C1087 C 0.21966 0.83921 0.15757 0.0
H1088 H 0.18782 0.77801 0.24574 0.0
H1089 H 0.19083 0.86316 0.26502 0.0
H1090 H 0.21316 0.75923 0.20725 0.0
H1091 H 0.23396 0.78041 0.18438 0.0
H1092 H 0.24709 0.76796 0.21817 0.0
H1093 H 0.22314 0.89229 0.24431 0.0
H1094 H 0.25512 0.87598 0.23611 0.0
H1095 H 0.23169 0.88334 0.20757 0.0
H1096 H 0.32382 0.82663 0.19269 0.0
H1097 H 0.26547 0.84368 0.12596 0.0
H1098 H 0.28145 0.79865 0.24213 0.0
H1099 H 0.27779 0.83347 0.25231 0.0
H1100 H 0.31066 0.82077 0.24144 0.0
H1101 H 0.20831 0.82003 0.16119 0.0
H1102 H 0.21865 0.84444 0.1342 0.0
H1103 H 0.20913 0.85534 0.17005 0.0
C1104 C 0.13475 0.83387 0.84886 0.0
C1105 C 0.1281 0.82596 0.82055 0.0
C1106 C 0.13162 0.81588 0.87247 0.0
C1107 C 0.12164 0.78922 0.86778 0.0
C1108 C 0.11433 0.78136 0.83937 0.0
C1109 C 0.11745 0.79977 0.81627 0.0
C1110 C 0.13992 0.82509 0.90231 0.0
C1111 C 0.10406 0.75308 0.83313 0.0
C1112 C 0.13975 0.73056 0.91856 0.0
C1113 C 0.11579 0.72741 0.93472 0.0
C1114 C 0.1423 0.75141 0.8978 0.0
C1115 C 0.12006 0.76898 0.89213 0.0
C1116 C 0.0959 0.76606 0.90863 0.0
C1117 C 0.0942 0.74557 0.92995 0.0
C1118 C 0.16864 0.75426 0.88142 0.0
C1119 C 0.07165 0.78421 0.90333 0.0
H1120 H 0.14303 0.85393 0.85254 0.0
H1121 H 0.11227 0.79324 0.79459 0.0
H1122 H 0.123 0.82188 0.91784 0.0
H1123 H 0.15742 0.81277 0.90998 0.0
H1124 H 0.14582 0.84686 0.90271 0.0
H1125 H 0.09748 0.75067 0.81028 0.0
H1126 H 0.1204 0.73807 0.8376 0.0
H1127 H 0.08667 0.74811 0.84751 0.0
H1128 H 0.15672 0.71692 0.92242 0.0
H1129 H 0.07563 0.74332 0.9424 0.0
H1130 H 0.17503 0.77582 0.88025 0.0
H1131 H 0.16553 0.74708 0.85896 0.0
H1132 H 0.18534 0.74233 0.89138 0.0
H1133 H 0.0777 0.80584 0.90499 0.0
H1134 H 0.05485 0.78028 0.91886 0.0
H1135 H 0.06392 0.78098 0.88104 0.0
C1136 C 0.16815 0.62521 0.0612 0.0
C1137 C 0.14026 0.63062 0.06458 0.0
C1138 C 0.18545 0.62221 0.08524 0.0
C1139 C 0.17459 0.62378 0.1136 0.0
C1140 C 0.14628 0.62844 0.1172 0.0
C1141 C 0.12953 0.63211 0.09269 0.0
C1142 C 0.21556 0.61829 0.08025 0.0
C1143 C 0.1337 0.62975 0.14697 0.0
C1144 C 0.21705 0.59147 0.17392 0.0
C1145 C 0.2279 0.61428 0.18777 0.0
C1146 C 0.19924 0.5943 0.15021 0.0
C1147 C 0.19293 0.62055 0.13937 0.0
C1148 C 0.20455 0.64363 0.1529 0.0
C1149 C 0.22137 0.64022 0.17734 0.0
C1150 C 0.18682 0.56919 0.13705 0.0
C1151 C 0.19939 0.67191 0.14145 0.0
H1152 H 0.17678 0.62433 0.03963 0.0
H1153 H 0.10806 0.63641 0.09551 0.0
H1154 H 0.22685 0.63571 0.08953 0.0
H1155 H 0.22284 0.5997 0.09143 0.0
H1156 H 0.22069 0.61664 0.05691 0.0
H1157 H 0.11124 0.63217 0.14612 0.0
H1158 H 0.13862 0.61099 0.15928 0.0
H1159 H 0.14232 0.64708 0.15919 0.0
H1160 H 0.2218 0.57142 0.18227 0.0
H1161 H 0.22974 0.65787 0.18812 0.0
H1162 H 0.19306 0.56737 0.11406 0.0
H1163 H 0.1643 0.57083 0.13745 0.0
H1164 H 0.19293 0.55037 0.14865 0.0
H1165 H 0.20514 0.67309 0.11825 0.0
H1166 H 0.21096 0.68758 0.15353 0.0
H1167 H 0.17742 0.67678 0.14295 0.0
C1168 C 0.3268 0.6454 0.34366 0.0
C1169 C 0.30081 0.64965 0.33181 0.0
C1170 C 0.33654 0.66142 0.36685 0.0
C1171 C 0.32017 0.68258 0.3784 0.0
C1172 C 0.29396 0.68697 0.36645 0.0
C1173 C 0.28461 0.67047 0.3436 0.0
C1174 C 0.36441 0.65565 0.37906 0.0
C1175 C 0.27575 0.70931 0.37767 0.0
C1176 C 0.33434 0.71055 0.45458 0.0
C1177 C 0.34884 0.73454 0.44871 0.0
C1178 C 0.32503 0.69349 0.43209 0.0
C1179 C 0.33041 0.70029 0.40276 0.0
C1180 C 0.34505 0.72448 0.39672 0.0
C1181 C 0.35407 0.74116 0.41961 0.0
C1182 C 0.30933 0.66815 0.43979 0.0
C1183 C 0.35078 0.73306 0.36594 0.0
H1184 H 0.33951 0.62934 0.335 0.0
H1185 H 0.26453 0.67415 0.33474 0.0
H1186 H 0.37743 0.67393 0.37693 0.0
H1187 H 0.36277 0.65091 0.40249 0.0
H1188 H 0.37461 0.63839 0.36803 0.0
H1189 H 0.25575 0.70984 0.3665 0.0
H1190 H 0.2722 0.70662 0.40122 0.0
H1191 H 0.28583 0.72925 0.37463 0.0
H1192 H 0.32983 0.70526 0.47684 0.0
H1193 H 0.36491 0.75973 0.41461 0.0
H1194 H 0.29068 0.66644 0.42642 0.0
H1195 H 0.30333 0.66773 0.46296 0.0
H1196 H 0.3221 0.65005 0.43525 0.0
H1197 H 0.36193 0.71673 0.35441 0.0
H1198 H 0.36293 0.75203 0.36476 0.0
H1199 H 0.33132 0.73638 0.35428 0.0
C1200 C 0.28095 0.81297 0.58119 0.0
C1201 C 0.3081 0.82105 0.5783 0.0
C1202 C 0.26467 0.82243 0.60426 0.0
C1203 C 0.27562 0.84098 0.62476 0.0
C1204 C 0.30279 0.8501 0.62093 0.0
C1205 C 0.3188 0.8396 0.5982 0.0
C1206 C 0.23611 0.81154 0.60645 0.0
C1207 C 0.31511 0.87095 0.64088 0.0
C1208 C 0.22435 0.87742 0.67442 0.0
C1209 C 0.22848 0.86418 0.70103 0.0
C1210 C 0.23996 0.87067 0.64968 0.0
C1211 C 0.25959 0.84949 0.65111 0.0
C1212 C 0.26366 0.83595 0.67785 0.0
C1213 C 0.24869 0.84388 0.70244 0.0
C1214 C 0.23492 0.88572 0.62174 0.0
C1215 C 0.28299 0.81216 0.68027 0.0
H1216 H 0.27259 0.79858 0.56587 0.0
H1217 H 0.33976 0.84606 0.59586 0.0
H1218 H 0.22422 0.82034 0.62447 0.0
H1219 H 0.2251 0.81556 0.58589 0.0
H1220 H 0.23698 0.78916 0.60918 0.0
H1221 H 0.33396 0.87992 0.63167 0.0
H1222 H 0.30037 0.88755 0.64529 0.0
H1223 H 0.32036 0.86132 0.66185 0.0
H1224 H 0.2087 0.89288 0.67281 0.0
H1225 H 0.2519 0.83299 0.72256 0.0
H1226 H 0.22537 0.87179 0.60588 0.0
H1227 H 0.25449 0.89272 0.61234 0.0
H1228 H 0.22133 0.90354 0.62477 0.0
H1229 H 0.27894 0.79732 0.66276 0.0
H1230 H 0.28125 0.80154 0.70143 0.0
H1231 H 0.30426 0.8192 0.67771 0.0
C1232 C 0.68969 0.27894 0.16512 0.0
C1233 C 0.70104 0.28757 0.19115 0.0
C1234 C 0.7054 0.26535 0.14472 0.0
C1235 C 0.73323 0.25979 0.15088 0.0
C1236 C 0.74565 0.27204 0.17511 0.0
C1237 C 0.72923 0.2855 0.19536 0.0
C1238 C 0.69118 0.25506 0.1179 0.0
C1239 C 0.77578 0.26968 0.18077 0.0
C1240 C 0.7261 0.18944 0.13681 0.0
C1241 C 0.72514 0.19158 0.10665 0.0
C1242 C 0.73649 0.21058 0.15327 0.0
C1243 C 0.7447 0.23452 0.13882 0.0
C1244 C 0.75085 0.23338 0.10898 0.0
C1245 C 0.74027 0.21182 0.09268 0.0
C1246 C 0.73285 0.20948 0.1857 0.0
C1247 C 0.76423 0.25678 0.09368 0.0
H1248 H 0.66817 0.28186 0.16103 0.0
H1249 H 0.73834 0.2935 0.21487 0.0
H1250 H 0.70362 0.25888 0.09834 0.0
H1251 H 0.68755 0.23294 0.11997 0.0
H1252 H 0.67112 0.26503 0.11456 0.0
H1253 H 0.78481 0.29032 0.18061 0.0
H1254 H 0.77935 0.26099 0.20264 0.0
H1255 H 0.78659 0.25722 0.1644 0.0
H1256 H 0.71588 0.17284 0.14768 0.0
H1257 H 0.74113 0.21261 0.06927 0.0
H1258 H 0.71385 0.22028 0.1918 0.0
H1259 H 0.75012 0.21939 0.19683 0.0
H1260 H 0.73131 0.18827 0.19359 0.0
H1261 H 0.7809 0.24905 0.07971 0.0
H1262 H 0.7727 0.27176 0.10916 0.0
H1263 H 0.74927 0.26698 0.0793 0.0
C1264 C 0.65849 0.12976 0.43957 0.0
C1265 C 0.63844 0.12426 0.41901 0.0
C1266 C 0.68288 0.14204 0.43132 0.0
C1267 C 0.68662 0.14987 0.40213 0.0
C1268 C 0.66519 0.14686 0.38197 0.0
C1269 C 0.64133 0.13365 0.39061 0.0
C1270 C 0.7055 0.14421 0.45321 0.0
C1271 C 0.66847 0.15473 0.35058 0.0
C1272 C 0.75138 0.18729 0.3825 0.0
C1273 C 0.76767 0.1657 0.37296 0.0
C1274 C 0.72473 0.18259 0.39211 0.0
C1275 C 0.71433 0.15584 0.39167 0.0
C1276 C 0.73076 0.13405 0.382 0.0
C1277 C 0.75725 0.13928 0.37282 0.0
C1278 C 0.70779 0.20603 0.40287 0.0
C1279 C 0.72058 0.10509 0.38192 0.0
H1280 H 0.65614 0.12226 0.46151 0.0
H1281 H 0.62564 0.12929 0.37482 0.0
H1282 H 0.709 0.16593 0.45818 0.0
H1283 H 0.70063 0.13318 0.47353 0.0
H1284 H 0.7248 0.1358 0.44454 0.0
H1285 H 0.6485 0.15949 0.34057 0.0
H1286 H 0.68206 0.17254 0.34798 0.0
H1287 H 0.67758 0.13747 0.33857 0.0
H1288 H 0.75957 0.20771 0.38287 0.0
H1289 H 0.7698 0.12256 0.36538 0.0
H1290 H 0.70384 0.20359 0.42635 0.0
H1291 H 0.68778 0.20601 0.39198 0.0
H1292 H 0.71779 0.22595 0.39916 0.0
H1293 H 0.71445 0.099 0.40413 0.0
H1294 H 0.73617 0.09051 0.37406 0.0
H1295 H 0.70236 0.10338 0.3679 0.0
C1296 C 0.79483 0.29628 0.66774 0.0
C1297 C 0.78113 0.29845 0.64138 0.0
C1298 C 0.79147 0.27331 0.68503 0.0
C1299 C 0.77441 0.25207 0.67504 0.0
C1300 C 0.75555 0.25766 0.65275 0.0
C1301 C 0.75945 0.28084 0.63557 0.0
C1302 C 0.80953 0.27024 0.71127 0.0
C1303 C 0.73324 0.23807 0.64509 0.0
C1304 C 0.82674 0.2 0.66776 0.0
C1305 C 0.82936 0.19316 0.69687 0.0
C1306 C 0.80441 0.21508 0.65823 0.0
C1307 C 0.78488 0.22406 0.67882 0.0
C1308 C 0.78464 0.21218 0.70669 0.0
C1309 C 0.80759 0.19756 0.71589 0.0
C1310 C 0.80432 0.2247 0.62717 0.0
C1311 C 0.76185 0.21731 0.72781 0.0
H1312 H 0.81009 0.31116 0.67358 0.0
H1313 H 0.74685 0.2841 0.6167 0.0
H1314 H 0.79757 0.26279 0.72998 0.0
H1315 H 0.82598 0.25539 0.70668 0.0
H1316 H 0.81917 0.28975 0.71753 0.0
H1317 H 0.71332 0.24867 0.64657 0.0
H1318 H 0.73555 0.23141 0.62231 0.0
H1319 H 0.73285 0.22008 0.65962 0.0
H1320 H 0.84324 0.19547 0.65292 0.0
H1321 H 0.80926 0.19131 0.73829 0.0
H1322 H 0.81 0.24648 0.62618 0.0
H1323 H 0.78382 0.22234 0.61759 0.0
H1324 H 0.819 0.21317 0.61363 0.0
H1325 H 0.75225 0.19762 0.73346 0.0
H1326 H 0.74592 0.23098 0.71892 0.0
H1327 H 0.77 0.22591 0.74823 0.0
C1328 C 0.76799 0.36658 0.99116 0.0
C1329 C 0.7793 0.37851 0.96643 0.0
C1330 C 0.75009 0.3445 0.98873 0.0
C1331 C 0.74381 0.3344 0.96092 0.0
C1332 C 0.75609 0.34613 0.93595 0.0
C1333 C 0.77354 0.3682 0.93913 0.0
C1334 C 0.73797 0.3322 1.01581 0.0
C1335 C 0.75009 0.33626 0.90564 0.0
C1336 C 0.71108 0.27753 0.92444 0.0
C1337 C 0.68858 0.29224 0.91467 0.0
C1338 C 0.72754 0.28855 0.94621 0.0
C1339 C 0.72141 0.31489 0.95666 0.0
C1340 C 0.69524 0.32599 0.9519 0.0
C1341 C 0.67889 0.31418 0.93085 0.0
C1342 C 0.75356 0.27416 0.95391 0.0
C1343 C 0.68678 0.35321 0.96402 0.0
H1344 H 0.77257 0.37502 1.01221 0.0
H1345 H 0.78278 0.37749 0.92022 0.0
H1346 H 0.73682 0.34737 1.03349 0.0
H1347 H 0.71738 0.32372 1.01232 0.0
H1348 H 0.75093 0.31503 1.02293 0.0
H1349 H 0.75616 0.31467 0.90344 0.0
H1350 H 0.72799 0.33782 0.90111 0.0
H1351 H 0.76113 0.34806 0.88883 0.0
H1352 H 0.71768 0.25951 0.91295 0.0
H1353 H 0.66028 0.32431 0.92439 0.0
H1354 H 0.76529 0.28486 0.97093 0.0
H1355 H 0.76615 0.27201 0.93415 0.0
H1356 H 0.74885 0.25329 0.96155 0.0
H1357 H 0.69138 0.35456 0.98741 0.0
H1358 H 0.6647 0.35707 0.96098 0.0
H1359 H 0.6982 0.36959 0.95281 0.0
C1360 C 0.179 0.79318 0.64997 0.0
C1361 C 0.19471 0.79562 0.67503 0.0
C1362 C 0.18186 0.77042 0.63237 0.0
C1363 C 0.2004 0.74982 0.64085 0.0
C1364 C 0.22111 0.75617 0.66083 0.0
C1365 C 0.2176 0.77891 0.67863 0.0
C1366 C 0.16181 0.76647 0.60801 0.0
C1367 C 0.24456 0.73717 0.66638 0.0
C1368 C 0.15266 0.6944 0.65842 0.0
C1369 C 0.14823 0.6843 0.6308 0.0
C1370 C 0.17351 0.71291 0.66344 0.0
C1371 C 0.18992 0.72171 0.63982 0.0
C1372 C 0.18819 0.70808 0.61301 0.0
C1373 C 0.16665 0.68997 0.60851 0.0
C1374 C 0.17545 0.72513 0.6933 0.0
C1375 C 0.20752 0.71384 0.58841 0.0
H1376 H 0.1626 0.80739 0.64573 0.0
H1377 H 0.23118 0.78198 0.69678 0.0
H1378 H 0.1725 0.75927 0.58834 0.0
H1379 H 0.14648 0.751 0.61427 0.0
H1380 H 0.15089 0.78557 0.60251 0.0
H1381 H 0.26383 0.74765 0.66079 0.0
H1382 H 0.24562 0.7321 0.68973 0.0
H1383 H 0.24323 0.71823 0.65346 0.0
H1384 H 0.13872 0.68904 0.67573 0.0
H1385 H 0.16335 0.68153 0.58723 0.0
H1386 H 0.16872 0.74662 0.69273 0.0
H1387 H 0.19671 0.72429 0.70118 0.0
H1388 H 0.16244 0.71429 0.70918 0.0
H1389 H 0.19595 0.7191 0.56852 0.0
H1390 H 0.21925 0.69511 0.58361 0.0
H1391 H 0.22219 0.7303 0.59335 0.0
C1392 C 0.274 0.64942 0.8826 0.0
C1393 C 0.28916 0.67264 0.88902 0.0
C1394 C 0.24688 0.64717 0.89097 0.0
C1395 C 0.23432 0.6689 0.90595 0.0
C1396 C 0.24948 0.69242 0.91287 0.0
C1397 C 0.27694 0.69397 0.90441 0.0
C1398 C 0.23165 0.62147 0.88332 0.0
C1399 C 0.237 0.71574 0.92935 0.0
C1400 C 0.16138 0.65265 0.89682 0.0
C1401 C 0.15831 0.63497 0.92011 0.0
C1402 C 0.18469 0.66867 0.89454 0.0
C1403 C 0.20574 0.66543 0.91525 0.0
C1404 C 0.20074 0.65041 0.94085 0.0
C1405 C 0.17664 0.63552 0.94317 0.0
C1406 C 0.18773 0.68601 0.86794 0.0
C1407 C 0.2226 0.64629 0.96334 0.0
H1408 H 0.28323 0.63287 0.87066 0.0
H1409 H 0.28869 0.71189 0.90968 0.0
H1410 H 0.22352 0.61174 0.90319 0.0
H1411 H 0.21415 0.6264 0.86908 0.0
H1412 H 0.24468 0.60645 0.87193 0.0
H1413 H 0.24783 0.73508 0.92489 0.0
H1414 H 0.21516 0.71835 0.92401 0.0
H1415 H 0.23853 0.71158 0.9529 0.0
H1416 H 0.14649 0.65265 0.87949 0.0
H1417 H 0.17367 0.62194 0.96142 0.0
H1418 H 0.18951 0.67274 0.84872 0.0
H1419 H 0.20544 0.69979 0.86925 0.0
H1420 H 0.16896 0.69816 0.86465 0.0
H1421 H 0.23887 0.63307 0.95441 0.0
H1422 H 0.21455 0.63645 0.9832 0.0
H1423 H 0.23204 0.66597 0.96907 0.0
C1424 C 0.29714 0.70775 0.19948 0.0
C1425 C 0.31256 0.68605 0.21029 0.0
C1426 C 0.31006 0.73116 0.18884 0.0
C1427 C 0.33875 0.73302 0.19028 0.0
C1428 C 0.35431 0.71083 0.20046 0.0
C1429 C 0.34101 0.68756 0.21013 0.0
C1430 C 0.2931 0.75402 0.17673 0.0
C1431 C 0.38503 0.71188 0.20192 0.0
C1432 C 0.38288 0.78296 0.15024 0.0
C1433 C 0.39061 0.80001 0.17294 0.0
C1434 C 0.36417 0.76203 0.15493 0.0
C1435 C 0.35292 0.75852 0.18288 0.0
C1436 C 0.35933 0.77697 0.2053 0.0
C1437 C 0.37843 0.79742 0.20011 0.0
C1438 C 0.35885 0.7422 0.13075 0.0
C1439 C 0.34793 0.77364 0.23544 0.0
H1440 H 0.27512 0.70638 0.1992 0.0
H1441 H 0.35302 0.67079 0.21846 0.0
H1442 H 0.29178 0.77038 0.19306 0.0
H1443 H 0.30262 0.76276 0.15702 0.0
H1444 H 0.27219 0.74723 0.17129 0.0
H1445 H 0.39406 0.69237 0.20932 0.0
H1446 H 0.39357 0.71689 0.18034 0.0
H1447 H 0.39147 0.7281 0.21706 0.0
H1448 H 0.39269 0.78492 0.12931 0.0
H1449 H 0.38457 0.8108 0.21754 0.0
H1450 H 0.33848 0.73272 0.13259 0.0
H1451 H 0.37427 0.72574 0.1317 0.0
H1452 H 0.36073 0.75223 0.10929 0.0
H1453 H 0.32572 0.76979 0.23459 0.0
H1454 H 0.35177 0.79176 0.24912 0.0
H1455 H 0.35757 0.7558 0.24601 0.0
C1456 C 0.2965 0.80551 0.39793 0.0
C1457 C 0.29038 0.78712 0.42021 0.0
C1458 C 0.27657 0.81273 0.37787 0.0
C1459 C 0.25059 0.80078 0.38041 0.0
C1460 C 0.24742 0.77701 0.39718 0.0
C1461 C 0.26724 0.77074 0.41792 0.0
C1462 C 0.2818 0.83638 0.35779 0.0
C1463 C 0.22132 0.76125 0.39669 0.0
C1464 C 0.19901 0.85546 0.39509 0.0
C1465 C 0.18906 0.86059 0.36746 0.0
C1466 C 0.21776 0.83464 0.39983 0.0
C1467 C 0.22679 0.81866 0.37606 0.0
C1468 C 0.21576 0.82305 0.3482 0.0
C1469 C 0.19706 0.84428 0.3442 0.0
C1470 C 0.22869 0.83084 0.43018 0.0
C1471 C 0.22367 0.80597 0.32244 0.0
H1472 H 0.31546 0.81673 0.39826 0.0
H1473 H 0.26331 0.75504 0.43383 0.0
H1474 H 0.27363 0.83208 0.33592 0.0
H1475 H 0.27129 0.85473 0.36617 0.0
H1476 H 0.30386 0.84097 0.35584 0.0
H1477 H 0.22535 0.73924 0.39966 0.0
H1478 H 0.20841 0.76808 0.4149 0.0
H1479 H 0.21012 0.7644 0.37609 0.0
H1480 H 0.19239 0.86808 0.41298 0.0
H1481 H 0.18952 0.84878 0.32277 0.0
H1482 H 0.25116 0.83286 0.43028 0.0
H1483 H 0.22348 0.81028 0.43828 0.0
H1484 H 0.22021 0.84587 0.44565 0.0
H1485 H 0.22832 0.81922 0.30362 0.0
H1486 H 0.20619 0.79295 0.31645 0.0
H1487 H 0.24136 0.79249 0.32648 0.0
C1488 C 0.71845 0.08582 0.85813 0.0
C1489 C 0.73365 0.10976 0.85631 0.0
C1490 C 0.70644 0.07779 0.88448 0.0
C1491 C 0.71073 0.09352 0.90977 0.0
C1492 C 0.72729 0.11706 0.9081 0.0
C1493 C 0.73805 0.12511 0.88131 0.0
C1494 C 0.68797 0.05335 0.88484 0.0
C1495 C 0.73276 0.13494 0.93391 0.0
C1496 C 0.66161 0.09334 0.97367 0.0
C1497 C 0.67353 0.07407 0.99199 0.0
C1498 C 0.67313 0.09935 0.94653 0.0
C1499 C 0.69731 0.08591 0.93769 0.0
C1500 C 0.709 0.0659 0.95603 0.0
C1501 C 0.6966 0.05988 0.98273 0.0
C1502 C 0.65925 0.11988 0.92721 0.0
C1503 C 0.73465 0.05079 0.94788 0.0
H1504 H 0.71449 0.07434 0.83858 0.0
H1505 H 0.7495 0.14388 0.87981 0.0
H1506 H 0.69722 0.03698 0.89808 0.0
H1507 H 0.66813 0.05867 0.89487 0.0
H1508 H 0.68419 0.04527 0.86278 0.0
H1509 H 0.75377 0.14311 0.93305 0.0
H1510 H 0.71874 0.15257 0.93322 0.0
H1511 H 0.72988 0.12427 0.95475 0.0
H1512 H 0.6433 0.10377 0.98065 0.0
H1513 H 0.70531 0.04441 0.99667 0.0
H1514 H 0.65502 0.1107 0.90577 0.0
H1515 H 0.67282 0.13749 0.92353 0.0
H1516 H 0.63984 0.12742 0.93659 0.0
H1517 H 0.72914 0.03235 0.93549 0.0
H1518 H 0.74598 0.04397 0.96738 0.0
H1519 H 0.74842 0.06329 0.93429 0.0
C1520 C 0.85759 0.29095 0.13735 0.0
C1521 C 0.86976 0.29297 0.10996 0.0
C1522 C 0.871 0.27826 0.16044 0.0
C1523 C 0.89745 0.26752 0.15617 0.0
C1524 C 0.91087 0.2718 0.1294 0.0
C1525 C 0.8968 0.28444 0.10648 0.0
C1526 C 0.85581 0.27429 0.1886 0.0
C1527 C 0.93931 0.2613 0.12429 0.0
C1528 C 0.92794 0.24302 0.22687 0.0
C1529 C 0.91899 0.21596 0.22741 0.0
C1530 C 0.92333 0.25965 0.20258 0.0
C1531 C 0.90913 0.24902 0.17851 0.0
C1532 C 0.90231 0.22107 0.17795 0.0
C1533 C 0.90763 0.20482 0.20227 0.0
C1534 C 0.93144 0.28916 0.20384 0.0
C1535 C 0.88694 0.20888 0.15285 0.0
H1536 H 0.83677 0.29776 0.14031 0.0
H1537 H 0.90636 0.28597 0.08539 0.0
H1538 H 0.84969 0.25269 0.19069 0.0
H1539 H 0.86894 0.27922 0.20735 0.0
H1540 H 0.83719 0.28707 0.18979 0.0
H1541 H 0.94864 0.27044 0.10466 0.0
H1542 H 0.95252 0.26554 0.1432 0.0
H1543 H 0.93868 0.23895 0.12141 0.0
H1544 H 0.93699 0.25175 0.2461 0.0
H1545 H 0.90071 0.18393 0.20236 0.0
H1546 H 0.91331 0.30167 0.20912 0.0
H1547 H 0.93935 0.29619 0.18262 0.0
H1548 H 0.94713 0.29282 0.22067 0.0
H1549 H 0.8659 0.21711 0.15251 0.0
H1550 H 0.88575 0.18639 0.15433 0.0
H1551 H 0.89671 0.21443 0.13203 0.0
C1552 C 0.74742 0.39216 0.42576 0.0
C1553 C 0.74783 0.40194 0.4542 0.0
C1554 C 0.72683 0.39979 0.40647 0.0
C1555 C 0.70655 0.41842 0.41542 0.0
C1556 C 0.70736 0.42921 0.4438 0.0
C1557 C 0.72781 0.42048 0.46307 0.0
C1558 C 0.72628 0.38715 0.37674 0.0
C1559 C 0.6864 0.44949 0.45392 0.0
C1560 C 0.67064 0.44643 0.34943 0.0
C1561 C 0.64881 0.4283 0.34693 0.0
C1562 C 0.68813 0.44544 0.37345 0.0
C1563 C 0.68409 0.42534 0.39502 0.0
C1564 C 0.66081 0.40848 0.39373 0.0
C1565 C 0.64325 0.41042 0.36988 0.0
C1566 C 0.71235 0.46419 0.37431 0.0
C1567 C 0.65596 0.3864 0.41587 0.0
H1568 H 0.76263 0.37757 0.41883 0.0
H1569 H 0.72809 0.42811 0.48505 0.0
H1570 H 0.70754 0.37486 0.37418 0.0
H1571 H 0.72576 0.4033 0.36004 0.0
H1572 H 0.74412 0.37382 0.37269 0.0
H1573 H 0.69141 0.45795 0.47553 0.0
H1574 H 0.68468 0.46645 0.43817 0.0
H1575 H 0.66618 0.43959 0.45519 0.0
H1576 H 0.67495 0.46036 0.33181 0.0
H1577 H 0.62654 0.39619 0.36809 0.0
H1578 H 0.73081 0.45291 0.36744 0.0
H1579 H 0.71593 0.47168 0.39661 0.0
H1580 H 0.70968 0.48189 0.35963 0.0
H1581 H 0.67096 0.36981 0.41257 0.0
H1582 H 0.63522 0.37763 0.41413 0.0
H1583 H 0.65885 0.39426 0.43811 0.0
C1584 C 0.54315 0.29005 0.72734 0.0
C1585 C 0.55576 0.31399 0.73649 0.0
C1586 C 0.55053 0.27765 0.70113 0.0
C1587 C 0.5703 0.29006 0.68314 0.0
C1588 C 0.58128 0.31556 0.69115 0.0
C1589 C 0.57415 0.32706 0.71798 0.0
C1590 C 0.53702 0.25136 0.6926 0.0
C1591 C 0.60051 0.33065 0.67139 0.0
C1592 C 0.61317 0.24081 0.6397 0.0
C1593 C 0.59895 0.23925 0.61337 0.0
C1594 C 0.60489 0.25853 0.66176 0.0
C1595 C 0.58146 0.27484 0.65783 0.0
C1596 C 0.56778 0.27444 0.63081 0.0
C1597 C 0.57659 0.25651 0.60895 0.0
C1598 C 0.62065 0.25893 0.68982 0.0
C1599 C 0.54355 0.29244 0.62486 0.0
H1600 H 0.5277 0.28085 0.74093 0.0
H1601 H 0.58268 0.34643 0.72436 0.0
H1602 H 0.52422 0.25477 0.67319 0.0
H1603 H 0.55254 0.23588 0.68683 0.0
H1604 H 0.52382 0.24315 0.71006 0.0
H1605 H 0.60226 0.35236 0.67749 0.0
H1606 H 0.62103 0.32132 0.67247 0.0
H1607 H 0.59354 0.3294 0.64859 0.0
H1608 H 0.63075 0.22793 0.64332 0.0
H1609 H 0.56571 0.25583 0.58857 0.0
H1610 H 0.60857 0.24856 0.70685 0.0
H1611 H 0.62429 0.27995 0.6973 0.0
H1612 H 0.64076 0.24888 0.68768 0.0
H1613 H 0.52462 0.28109 0.62976 0.0
H1614 H 0.54279 0.29833 0.60165 0.0
H1615 H 0.5438 0.31116 0.63818 0.0
C1616 C 0.22323 0.56117 0.46575 0.0
C1617 C 0.20452 0.58233 0.46966 0.0
C1618 C 0.23068 0.55274 0.43774 0.0
C1619 C 0.21875 0.56552 0.41329 0.0
C1620 C 0.19783 0.58491 0.41744 0.0
C1621 C 0.19121 0.59332 0.44555 0.0
C1622 C 0.25317 0.53209 0.43437 0.0
C1623 C 0.18423 0.59873 0.39221 0.0
C1624 C 0.26307 0.57423 0.34633 0.0
C1625 C 0.25391 0.55319 0.32862 0.0
C1626 C 0.25165 0.57855 0.37381 0.0
C1627 C 0.23048 0.56133 0.38379 0.0
C1628 C 0.22087 0.54026 0.36566 0.0
C1629 C 0.23298 0.53622 0.33839 0.0
C1630 C 0.26265 0.60124 0.39237 0.0
C1631 C 0.19799 0.5219 0.37517 0.0
H1632 H 0.23396 0.55306 0.48436 0.0
H1633 H 0.17695 0.60992 0.44858 0.0
H1634 H 0.24767 0.51669 0.41792 0.0
H1635 H 0.27188 0.54245 0.42672 0.0
H1636 H 0.25783 0.52157 0.45508 0.0
H1637 H 0.17942 0.58387 0.37496 0.0
H1638 H 0.1652 0.6093 0.39871 0.0
H1639 H 0.19838 0.61402 0.38301 0.0
H1640 H 0.27991 0.58663 0.33915 0.0
H1641 H 0.22616 0.51973 0.3247 0.0
H1642 H 0.27 0.59297 0.41331 0.0
H1643 H 0.24623 0.61602 0.39725 0.0
H1644 H 0.27965 0.61228 0.38174 0.0
H1645 H 0.20399 0.51065 0.39499 0.0
H1646 H 0.19234 0.507 0.3582 0.0
H1647 H 0.17979 0.5342 0.38068 0.0
C1648 C 0.42777 0.76152 0.71299 0.0
C1649 C 0.40599 0.74442 0.71978 0.0
C1650 C 0.42827 0.77583 0.68657 0.0
C1651 C 0.4068 0.77234 0.6664 0.0
C1652 C 0.38414 0.7561 0.67403 0.0
C1653 C 0.38399 0.74245 0.70073 0.0
C1654 C 0.45221 0.79388 0.67976 0.0
C1655 C 0.36085 0.75177 0.65329 0.0
C1656 C 0.39948 0.81724 0.59934 0.0
C1657 C 0.41273 0.80148 0.57845 0.0
C1658 C 0.39772 0.80839 0.62827 0.0
C1659 C 0.40937 0.78308 0.63627 0.0
C1660 C 0.42318 0.76741 0.61514 0.0
C1661 C 0.42511 0.7771 0.58662 0.0
C1662 C 0.38315 0.82601 0.65004 0.0
C1663 C 0.43548 0.74012 0.62248 0.0
H1664 H 0.44468 0.76309 0.72793 0.0
H1665 H 0.36704 0.72945 0.7064 0.0
H1666 H 0.46471 0.78452 0.66244 0.0
H1667 H 0.44504 0.81387 0.67161 0.0
H1668 H 0.46536 0.79718 0.69898 0.0
H1669 H 0.36837 0.74053 0.63415 0.0
H1670 H 0.34389 0.74015 0.66323 0.0
H1671 H 0.35281 0.7715 0.64547 0.0
H1672 H 0.39047 0.83646 0.59299 0.0
H1673 H 0.4362 0.76549 0.57055 0.0
H1674 H 0.39433 0.82648 0.67089 0.0
H1675 H 0.36263 0.81757 0.65433 0.0
H1676 H 0.38058 0.84716 0.64205 0.0
H1677 H 0.4513 0.74249 0.63939 0.0
H1678 H 0.44485 0.73015 0.60336 0.0
H1679 H 0.41957 0.72648 0.63138 0.0
C1680 C 0.24787 0.88503 0.87194 0.0
C1681 C 0.22254 0.89751 0.86752 0.0
C1682 C 0.26137 0.88713 0.89851 0.0
C1683 C 0.24953 0.90257 0.92106 0.0
C1684 C 0.22498 0.9169 0.91604 0.0
C1685 C 0.2116 0.91399 0.88937 0.0
C1686 C 0.2874 0.87129 0.90305 0.0
C1687 C 0.2121 0.93409 0.93933 0.0
C1688 C 0.2676 0.8754 0.99517 0.0
C1689 C 0.29029 0.89126 1.0023 0.0
C1690 C 0.2532 0.87988 0.96945 0.0
C1691 C 0.26143 0.90102 0.95058 0.0
C1692 C 0.283 0.91841 0.95868 0.0
C1693 C 0.29734 0.91321 0.9844 0.0
C1694 C 0.2304 0.86074 0.96155 0.0
C1695 C 0.29194 0.94153 0.93941 0.0
H1696 H 0.25654 0.87229 0.85519 0.0
H1697 H 0.19213 0.92388 0.88601 0.0
H1698 H 0.30357 0.88472 0.91162 0.0
H1699 H 0.28394 0.85504 0.91932 0.0
H1700 H 0.29486 0.86175 0.88278 0.0
H1701 H 0.1957 0.94732 0.93061 0.0
H1702 H 0.20319 0.92072 0.9562 0.0
H1703 H 0.22759 0.94701 0.94999 0.0
H1704 H 0.26189 0.85848 1.00892 0.0
H1705 H 0.3147 0.92572 0.98989 0.0
H1706 H 0.23648 0.84845 0.94251 0.0
H1707 H 0.21189 0.87232 0.95545 0.0
H1708 H 0.22516 0.84669 0.97955 0.0
H1709 H 0.30275 0.93328 0.92027 0.0
H1710 H 0.30583 0.95569 0.95081 0.0
H1711 H 0.27407 0.9531 0.93138 0.0
C1712 C 0.09306 0.74988 0.11245 0.0
C1713 C 0.10859 0.72602 0.11139 0.0
C1714 C 0.08981 0.76418 0.13861 0.0
C1715 C 0.10229 0.7543 0.16427 0.0
C1716 C 0.1177 0.73003 0.16322 0.0
C1717 C 0.12047 0.71616 0.13694 0.0
C1718 C 0.07333 0.79006 0.13874 0.0
C1719 C 0.13078 0.71801 0.18982 0.0
C1720 C 0.1136 0.80555 0.22466 0.0
C1721 C 0.09095 0.80089 0.24231 0.0
C1722 C 0.11809 0.7899 0.19971 0.0
C1723 C 0.09916 0.76943 0.19206 0.0
C1724 C 0.07677 0.76407 0.21054 0.0
C1725 C 0.07278 0.78009 0.23532 0.0
C1726 C 0.1428 0.79557 0.18126 0.0
C1727 C 0.05674 0.74178 0.20381 0.0
H1728 H 0.08389 0.75766 0.09278 0.0
H1729 H 0.1321 0.69745 0.13647 0.0
H1730 H 0.05624 0.78823 0.15432 0.0
H1731 H 0.08623 0.80722 0.146 0.0
H1732 H 0.0649 0.79502 0.11706 0.0
H1733 H 0.14826 0.70468 0.1842 0.0
H1734 H 0.13795 0.7339 0.20497 0.0
H1735 H 0.11542 0.70536 0.20109 0.0
H1736 H 0.12733 0.82202 0.22989 0.0
H1737 H 0.05513 0.77676 0.24896 0.0
H1738 H 0.13637 0.80149 0.1591 0.0
H1739 H 0.15533 0.77688 0.17932 0.0
H1740 H 0.15569 0.81199 0.19034 0.0
H1741 H 0.04676 0.74588 0.18271 0.0
H1742 H 0.04079 0.73979 0.22072 0.0
H1743 H 0.06761 0.7221 0.20189 0.0
C1744 C 0.55255 0.10019 0.35861 0.0
C1745 C 0.55171 0.1223 0.37786 0.0
C1746 C 0.5625 0.10288 0.33021 0.0
C1747 C 0.57326 0.12803 0.32069 0.0
C1748 C 0.57447 0.14995 0.34054 0.0
C1749 C 0.56323 0.14702 0.36856 0.0
C1750 C 0.56094 0.07875 0.31015 0.0
C1751 C 0.5871 0.17676 0.33227 0.0
C1752 C 0.61084 0.11869 0.24883 0.0
C1753 C 0.59046 0.12572 0.22896 0.0
C1754 C 0.60662 0.1216 0.27891 0.0
C1755 C 0.58123 0.1314 0.28942 0.0
C1756 C 0.56154 0.14054 0.26919 0.0
C1757 C 0.56647 0.13772 0.23935 0.0
C1758 C 0.62875 0.11194 0.29906 0.0
C1759 C 0.53406 0.15071 0.27899 0.0
H1760 H 0.54528 0.0805 0.36557 0.0
H1761 H 0.56313 0.16438 0.3829 0.0
H1762 H 0.54974 0.08433 0.29014 0.0
H1763 H 0.58175 0.07246 0.30369 0.0
H1764 H 0.55063 0.06107 0.3203 0.0
H1765 H 0.595 0.18753 0.35162 0.0
H1766 H 0.60399 0.17405 0.31658 0.0
H1767 H 0.57144 0.18992 0.3221 0.0
H1768 H 0.62925 0.10898 0.24104 0.0
H1769 H 0.55049 0.14278 0.22407 0.0
H1770 H 0.62955 0.08942 0.2987 0.0
H1771 H 0.62559 0.11865 0.32168 0.0
H1772 H 0.64883 0.11941 0.29144 0.0
H1773 H 0.52275 0.1339 0.28958 0.0
H1774 H 0.52163 0.15859 0.26073 0.0
H1775 H 0.53648 0.16711 0.29518 0.0
C1776 C 0.87936 0.12044 0.48478 0.0
C1777 C 0.88582 0.09458 0.47376 0.0
C1778 C 0.87136 0.12392 0.5139 0.0
C1779 C 0.87062 0.10116 0.53276 0.0
C1780 C 0.87568 0.07495 0.52136 0.0
C1781 C 0.88264 0.07199 0.49208 0.0
C1782 C 0.86491 0.15212 0.52463 0.0
C1783 C 0.87528 0.05 0.54047 0.0
C1784 C 0.89222 0.10355 0.61112 0.0
C1785 C 0.86846 0.09514 0.62539 0.0
C1786 C 0.89265 0.10789 0.58114 0.0
C1787 C 0.86848 0.10449 0.56491 0.0
C1788 C 0.84366 0.09947 0.57975 0.0
C1789 C 0.84396 0.0945 0.60989 0.0
C1790 C 0.91963 0.11329 0.56657 0.0
C1791 C 0.81713 0.0973 0.56355 0.0
H1792 H 0.88141 0.13814 0.47099 0.0
H1793 H 0.88619 0.05175 0.48373 0.0
H1794 H 0.84858 0.15171 0.54124 0.0
H1795 H 0.88332 0.16101 0.53468 0.0
H1796 H 0.85849 0.16568 0.50663 0.0
H1797 H 0.87892 0.03101 0.52813 0.0
H1798 H 0.89123 0.05175 0.55737 0.0
H1799 H 0.8554 0.0483 0.55167 0.0
H1800 H 0.91112 0.10457 0.62317 0.0
H1801 H 0.82546 0.0883 0.62083 0.0
H1802 H 0.91793 0.13073 0.55147 0.0
H1803 H 0.92568 0.09526 0.55367 0.0
H1804 H 0.93605 0.11764 0.5824 0.0
H1805 H 0.81614 0.11244 0.54575 0.0
H1806 H 0.79942 0.10033 0.57816 0.0
H1807 H 0.81548 0.07681 0.5538 0.0
C1808 C 0.86745 0.38357 0.73769 0.0
C1809 C 0.89337 0.38743 0.72554 0.0
C1810 C 0.86438 0.37684 0.76722 0.0
C1811 C 0.88774 0.37432 0.78504 0.0
C1812 C 0.91389 0.37641 0.77237 0.0
C1813 C 0.91635 0.38263 0.74287 0.0
C1814 C 0.83614 0.37387 0.7796 0.0
C1815 C 0.93944 0.37376 0.79034 0.0
C1816 C 0.8904 0.39887 0.86228 0.0
C1817 C 0.89573 0.37476 0.8775 0.0
C1818 C 0.88555 0.39874 0.83243 0.0
C1819 C 0.88544 0.37378 0.81731 0.0
C1820 C 0.88773 0.3491 0.83311 0.0
C1821 C 0.89307 0.34987 0.86311 0.0
C1822 C 0.88305 0.4256 0.81676 0.0
C1823 C 0.88654 0.32197 0.81812 0.0
H1824 H 0.84954 0.3869 0.72448 0.0
H1825 H 0.93649 0.38451 0.7335 0.0
H1826 H 0.83534 0.35698 0.79553 0.0
H1827 H 0.83041 0.39279 0.79107 0.0
H1828 H 0.82083 0.37012 0.7624 0.0
H1829 H 0.95819 0.37419 0.77691 0.0
H1830 H 0.94044 0.39069 0.80612 0.0
H1831 H 0.93914 0.35452 0.80285 0.0
H1832 H 0.89168 0.41813 0.87352 0.0
H1833 H 0.89677 0.33115 0.87486 0.0
H1834 H 0.86526 0.42548 0.80204 0.0
H1835 H 0.90147 0.42896 0.80331 0.0
H1836 H 0.88091 0.44295 0.83192 0.0
H1837 H 0.87156 0.32225 0.80017 0.0
H1838 H 0.88108 0.30545 0.83348 0.0
H1839 H 0.90679 0.31722 0.80878 0.0
C1840 C 0.56171 0.3639 0.08139 0.0
C1841 C 0.58135 0.36318 0.10347 0.0
C1842 C 0.56894 0.36139 0.05218 0.0
C1843 C 0.59646 0.35675 0.04452 0.0
C1844 C 0.61613 0.35358 0.06667 0.0
C1845 C 0.60849 0.35736 0.09585 0.0
C1846 C 0.54714 0.36488 1.02939 0.0
C1847 C 0.64537 0.34705 0.05952 0.0
C1848 C 0.6006 0.34039 0.96422 0.0
C1849 C 0.60423 0.36649 0.95273 0.0
C1850 C 0.60062 0.33613 0.99444 0.0
C1851 C 0.60445 0.35851 1.01332 0.0
C1852 C 0.61098 0.38425 1.00151 0.0
C1853 C 0.61094 0.38784 0.97142 0.0
C1854 C 0.595 0.30807 1.00616 0.0
C1855 C 0.61507 0.40878 1.02057 0.0
H1856 H 0.54051 0.36705 0.08684 0.0
H1857 H 0.62399 0.35653 0.11249 0.0
H1858 H 0.55208 0.38253 1.01535 0.0
H1859 H 0.5463 0.34666 1.01537 0.0
H1860 H 0.52665 0.3682 1.03895 0.0
H1861 H 0.6567 0.33969 0.07881 0.0
H1862 H 0.64652 0.33136 0.04235 0.0
H1863 H 0.65564 0.3655 0.05116 0.0
H1864 H 0.59574 0.32378 0.94977 0.0
H1865 H 0.61422 0.40796 0.96249 0.0
H1866 H 0.57858 0.3086 1.02262 0.0
H1867 H 0.61357 0.30022 1.01697 0.0
H1868 H 0.58901 0.29366 0.98885 0.0
H1869 H 0.59544 0.41434 1.03088 0.0
H1870 H 0.62261 0.42662 1.0082 0.0
H1871 H 0.62974 0.4042 1.03812 0.0
C1872 C 0.12957 0.5936 0.7316 0.0
C1873 C 0.10732 0.59233 0.71263 0.0
C1874 C 0.12595 0.60121 0.76088 0.0
C1875 C 0.09942 0.60701 0.77149 0.0
C1876 C 0.07748 0.60811 0.75169 0.0
C1877 C 0.0818 0.60124 0.72259 0.0
C1878 C 0.15024 0.60137 0.78078 0.0
C1879 C 0.04883 0.61415 0.76165 0.0
C1880 C 0.07681 0.58298 0.84589 0.0
C1881 C 0.07072 0.60744 0.86021 0.0
C1882 C 0.08739 0.58266 0.81765 0.0
C1883 C 0.09337 0.60743 0.80338 0.0
C1884 C 0.0899 0.63217 0.81866 0.0
C1885 C 0.07824 0.63194 0.84666 0.0
C1886 C 0.09064 0.55569 0.8025 0.0
C1887 C 0.09736 0.65903 0.80508 0.0
H1888 H 0.14944 0.58712 0.7241 0.0
H1889 H 0.06462 0.60112 0.70788 0.0
H1890 H 0.14867 0.61806 0.79681 0.0
H1891 H 0.15114 0.58192 0.79289 0.0
H1892 H 0.16955 0.60364 0.76849 0.0
H1893 H 0.03434 0.61593 0.7433 0.0
H1894 H 0.04172 0.59764 0.77619 0.0
H1895 H 0.04827 0.63332 0.77415 0.0
H1896 H 0.07269 0.56378 0.85647 0.0
H1897 H 0.0742 0.65105 0.85741 0.0
H1898 H 0.11178 0.55329 0.79452 0.0
H1899 H 0.07696 0.55493 0.78341 0.0
H1900 H 0.0858 0.53821 0.81683 0.0
H1901 H 0.11578 0.65711 0.79132 0.0
H1902 H 0.10108 0.67479 0.82179 0.0
H1903 H 0.0804 0.66612 0.79116 0.0
C1904 C 0.34226 0.57279 0.10559 0.0
C1905 C 0.36433 0.57528 0.12456 0.0
C1906 C 0.34529 0.57863 0.07581 0.0
C1907 C 0.37111 0.58653 0.06484 0.0
C1908 C 0.39262 0.59146 0.08451 0.0
C1909 C 0.38887 0.586 0.11406 0.0
C1910 C 0.32149 0.57416 0.05583 0.0
C1911 C 0.42054 0.59969 0.07409 0.0
C1912 C 0.39527 0.5591 0.99235 0.0
C1913 C 0.39649 0.58256 0.975 0.0
C1914 C 0.38624 0.5601 1.02117 0.0
C1915 C 0.37728 0.58505 1.03309 0.0
C1916 C 0.37685 0.60855 1.0153 0.0
C1917 C 0.38673 0.60711 0.98663 0.0
C1918 C 0.38726 0.53447 0.03921 0.0
C1919 C 0.36673 0.6354 1.02678 0.0
H1920 H 0.32329 0.56441 0.11356 0.0
H1921 H 0.40597 0.58792 0.12873 0.0
H1922 H 0.32076 0.59003 1.03875 0.0
H1923 H 0.32374 0.55422 0.04497 0.0
H1924 H 0.30188 0.57421 0.0678 0.0
H1925 H 0.43407 0.60574 0.09221 0.0
H1926 H 0.43012 0.58237 0.06258 0.0
H1927 H 0.41913 0.61683 0.05857 0.0
H1928 H 0.40164 0.53976 0.98351 0.0
H1929 H 0.38743 0.62543 0.97363 0.0
H1930 H 0.36685 0.52995 0.04822 0.0
H1931 H 0.4013 0.53735 0.05776 0.0
H1932 H 0.39427 0.5166 1.02659 0.0
H1933 H 0.34745 0.63264 1.03893 0.0
H1934 H 0.36333 0.65042 1.00916 0.0
H1935 H 0.3819 0.6439 0.04202 0.0
C1936 C 0.36115 0.89365 0.22831 0.0
C1937 C 0.38667 0.90343 0.21942 0.0
C1938 C 0.35657 0.88566 0.25726 0.0
C1939 C 0.37801 0.88748 0.2777 0.0
C1940 C 0.40417 0.89569 0.26829 0.0
C1941 C 0.40818 0.90333 0.23937 0.0
C1942 C 0.32859 0.87633 0.26625 0.0
C1943 C 0.42772 0.89792 0.28916 0.0
C1944 C 0.36871 0.90754 0.35582 0.0
C1945 C 0.3782 0.88437 0.3704 0.0
C1946 C 0.36621 0.90804 0.32563 0.0
C1947 C 0.37285 0.88456 0.30945 0.0
C1948 C 0.37932 0.86011 0.3243 0.0
C1949 C 0.38213 0.86033 0.35471 0.0
C1950 C 0.35917 0.9346 0.31098 0.0
C1951 C 0.38551 0.83433 0.30801 0.0
H1952 H 0.3445 0.89328 0.21296 0.0
H1953 H 0.42822 0.90986 0.23249 0.0
H1954 H 0.32997 0.85639 0.27737 0.0
H1955 H 0.31969 0.89089 0.28191 0.0
H1956 H 0.31458 0.87454 0.24751 0.0
H1957 H 0.44708 0.90326 0.27812 0.0
H1958 H 0.42324 0.91376 0.30554 0.0
H1959 H 0.43066 0.87846 0.30088 0.0
H1960 H 0.365 0.926 0.36798 0.0
H1961 H 0.38917 0.84226 0.36588 0.0
H1962 H 0.34369 0.93148 0.29387 0.0
H1963 H 0.37764 0.94298 0.30043 0.0
H1964 H 0.35132 0.94991 0.32653 0.0
H1965 H 0.37207 0.8322 0.28887 0.0
H1966 H 0.38313 0.81615 0.32206 0.0
H1967 H 0.40683 0.83492 0.30016 0.0
C1968 C 0.08276 0.84579 0.46471 0.0
C1969 C 0.0796 0.87058 0.45009 0.0
C1970 C 0.0888 0.84525 0.49452 0.0
C1971 C 0.09132 0.87004 0.50985 0.0
C1972 C 0.09083 0.89491 0.49443 0.0
C1973 C 0.08521 0.89482 0.46476 0.0
C1974 C 0.09036 0.81824 0.50988 0.0
C1975 C 0.09366 0.92186 0.50968 0.0
C1976 C 0.06132 0.87986 0.58432 0.0
C1977 C 0.08455 0.8846 0.60118 0.0
C1978 C 0.06341 0.87321 0.55497 0.0
C1979 C 0.08943 0.8708 0.54204 0.0
C1980 C 0.11302 0.8733 0.55944 0.0
C1981 C 0.11032 0.88034 0.58885 0.0
C1982 C 0.03764 0.87052 0.53739 0.0
C1983 C 0.14112 0.87009 0.54674 0.0
H1984 H 0.07884 0.82697 0.45335 0.0
H1985 H 0.08362 0.91399 0.45328 0.0
H1986 H 0.10596 0.81856 0.52721 0.0
H1987 H 0.07044 0.8138 0.52013 0.0
H1988 H 0.09518 0.80151 0.4946 0.0
H1989 H 0.09562 0.93907 0.49424 0.0
H1990 H 0.07546 0.92547 0.5234 0.0
H1991 H 0.11168 0.92173 0.52409 0.0
H1992 H 0.04133 0.88214 0.59394 0.0
H1993 H 0.12839 0.88364 0.6018 0.0
H1994 H 0.03784 0.85126 0.52501 0.0
H1995 H 0.03637 0.88744 0.52152 0.0
H1996 H 0.01907 0.87098 0.5511 0.0
H1997 H 0.14165 0.85339 0.53067 0.0
H1998 H 0.15654 0.86596 0.56377 0.0
H1999 H 0.14691 0.88909 0.53539 0.0
C2000 C 0.52762 0.06433 0.14027 0.0
C2001 C 0.54681 0.06078 0.16239 0.0
C2002 C 0.50566 0.04638 0.13727 0.0
C2003 C 0.50302 0.0243 0.15673 0.0
C2004 C 0.52281 0.02019 0.17858 0.0
C2005 C 0.54441 0.03857 0.18123 0.0
C2006 C 0.48487 0.05148 0.11383 0.0
C2007 C 0.52088 -0.00331 0.19953 0.0
C2008 C 0.43426 -0.00772 0.17163 0.0
C2009 C 0.4359 0.96838 0.15532 0.0
C2010 C 0.45561 0.01115 0.1715 0.0
C2011 C 0.47923 0.00583 0.15485 0.0
C2012 C 0.48064 0.98213 0.13766 0.0
C2013 C 0.45892 0.96371 0.13805 0.0
C2014 C 0.45327 0.03635 0.18989 0.0
C2015 C 0.50557 0.97565 0.11983 0.0
H2016 H 0.52926 0.0817 0.12593 0.0
H2017 H 0.55936 0.03573 0.19821 0.0
H2018 H 0.48255 0.03314 0.10016 0.0
H2019 H 0.46475 0.05569 0.12378 0.0
H2020 H 0.49046 0.0689 0.09974 0.0
H2021 H 0.53855 -0.00427 0.21448 0.0
H2022 H 0.50202 -0.00147 0.21259 0.0
H2023 H 0.51965 0.97725 0.18751 0.0
H2024 H 0.41642 -0.00404 0.18488 0.0
H2025 H 0.46047 0.94503 0.12579 0.0
H2026 H 0.45729 0.05471 0.17662 0.0
H2027 H 0.46879 0.03575 0.2073 0.0
H2028 H 0.43286 0.03838 0.20002 0.0
H2029 H 0.51078 -0.00695 0.1056 0.0
H2030 H 0.50272 0.95733 0.10619 0.0
H2031 H 0.52319 0.97214 0.13437 0.0
C2032 C 0.96367 0.03309 0.4196 0.0
C2033 C 0.94086 0.0398 0.40286 0.0
C2034 C 0.97869 0.00934 0.41406 0.0
C2035 C 0.97057 -0.00823 0.39139 0.0
C2036 C 0.94778 -0.00135 0.37418 0.0
C2037 C 0.93323 0.02254 0.38012 0.0
C2038 C 0.00301 0.00281 0.43278 0.0
C2039 C 0.93832 0.98039 0.35 0.0
C2040 C 0.02307 0.93982 0.36666 0.0
C2041 C 0.01617 0.91737 0.38381 0.0
C2042 C 0.0078 0.96397 0.36802 0.0
C2043 C 0.98505 0.9655 0.38683 0.0
C2044 C 0.97704 0.94224 0.40273 0.0
C2045 C -0.00722 0.9185 0.40113 0.0
C2046 C 0.01697 -0.01169 0.35071 0.0
C2047 C 0.9527 0.94284 0.42269 0.0
H2048 H 0.96978 0.04645 0.43703 0.0
H2049 H 0.91535 0.02736 0.36737 0.0
H2050 H -0.00069 0.98368 0.44489 0.0
H2051 H 0.02126 -0.00045 0.41907 0.0
H2052 H 0.00746 0.01918 0.44857 0.0
H2053 H 0.92123 -0.01056 0.33752 0.0
H2054 H 0.95535 0.97608 0.33492 0.0
H2055 H 0.93154 0.96065 0.35907 0.0
H2056 H 0.04139 0.93907 0.3536 0.0
H2057 H 0.98753 0.90113 0.41446 0.0
H2058 H 0.02474 0.00414 0.36561 0.0
H2059 H -0.00039 -0.00272 0.33867 0.0
H2060 H 0.03333 0.98309 0.33507 0.0
H2061 H 0.95678 0.95675 0.44103 0.0
H2062 H 0.94783 0.92244 0.43156 0.0
H2063 H 0.93458 0.95076 0.41109 0.0
C2064 C 0.0368 0.53792 0.65487 0.0
C2065 C 0.06226 0.53022 0.64369 0.0
C2066 C 0.01452 0.52029 0.65422 0.0
C2067 C 0.01724 0.49463 0.64087 0.0
C2068 C 0.04212 0.48763 0.62717 0.0
C2069 C 0.06451 0.50541 0.62903 0.0
C2070 C -0.0114 0.52853 0.66951 0.0
C2071 C 0.04547 0.4609 0.61169 0.0
C2072 C 0.97189 0.43969 0.67237 0.0
C2073 C 0.94887 0.44103 0.65436 0.0
C2074 C -0.0055 0.45651 0.66775 0.0
C2075 C -0.00523 0.47449 0.6438 0.0
C2076 C 0.97237 0.47498 0.62459 0.0
C2077 C 0.94951 0.45869 0.63039 0.0
C2078 C 0.01769 0.45572 0.68918 0.0
C2079 C 0.97222 0.49323 0.59829 0.0
H2080 H 0.03457 0.55749 0.66533 0.0
H2081 H 0.08398 0.49935 0.62011 0.0
H2082 H 0.97102 0.5271 0.6546 0.0
H2083 H 0.98469 0.51445 0.68783 0.0
H2084 H -0.01044 0.54956 0.6781 0.0
H2085 H 0.04702 0.44423 0.62779 0.0
H2086 H 0.0275 0.45669 0.59789 0.0
H2087 H 0.06405 0.46056 0.59799 0.0
H2088 H 0.97232 0.42553 0.69033 0.0
H2089 H 0.93196 0.46026 0.61633 0.0
H2090 H 0.01999 0.47594 0.69945 0.0
H2091 H 0.03706 0.45108 0.67791 0.0
H2092 H 0.01451 0.44035 0.70648 0.0
H2093 H 0.96965 0.51466 0.6051 0.0
H2094 H 0.95549 0.48808 0.58313 0.0
H2095 H -0.00811 0.49175 0.58657 0.0
C2096 C 0.45575 0.52012 0.88038 0.0
C2097 C 0.45983 0.53762 0.90394 0.0
C2098 C 0.47358 0.4984 0.87489 0.0
C2099 C 0.49609 0.49397 0.8934 0.0
C2100 C 0.50077 0.512 0.91673 0.0
C2101 C 0.48257 0.53355 0.92176 0.0
C2102 C 0.46774 0.47959 0.8499 0.0
C2103 C 0.52461 0.50807 0.93691 0.0
C2104 C 0.5245 0.42281 0.90344 0.0
C2105 C 0.54867 0.42387 0.88733 0.0
C2106 C 0.50685 0.44518 0.90481 0.0
C2107 C 0.51354 0.46935 0.88978 0.0
C2108 C 0.53734 0.47018 0.87245 0.0
C2109 C 0.55462 0.44735 0.87135 0.0
C2110 C 0.48155 0.44324 0.92327 0.0
C2111 C 0.54515 0.49555 0.85608 0.0
H2112 H 0.43802 0.52283 0.86673 0.0
H2113 H 0.48604 0.54714 0.93979 0.0
H2114 H 0.48611 0.47718 0.83618 0.0
H2115 H 0.46236 0.45917 0.8583 0.0
H2116 H 0.45074 0.48704 0.83617 0.0
H2117 H 0.52642 0.52482 0.95286 0.0
H2118 H 0.5223 0.48865 0.94888 0.0
H2119 H 0.54381 0.50677 0.92436 0.0
H2120 H 0.51978 0.40459 0.91566 0.0
H2121 H 0.57342 0.44832 0.85911 0.0
H2122 H 0.46335 0.44895 0.91042 0.0
H2123 H 0.48299 0.45772 0.94156 0.0
H2124 H 0.47848 0.42251 0.93221 0.0
H2125 H 0.52788 0.50273 0.84263 0.0
H2126 H 0.56309 0.49227 0.84187 0.0
H2127 H 0.54999 0.51197 0.87164 0.0
C2128 C 0.49721 0.413 0.15387 0.0
C2129 C 0.51953 0.41251 0.17279 0.0
C2130 C 0.47543 0.43104 0.15816 0.0
C2131 C 0.47573 0.44883 0.18219 0.0
C2132 C 0.49781 0.44798 0.20181 0.0
C2133 C 0.51952 0.43001 0.19676 0.0
C2134 C 0.4524 0.43151 0.13655 0.0
C2135 C 0.49883 0.46653 0.22776 0.0
C2136 C 0.43621 0.51432 0.17251 0.0
C2137 C 0.41135 0.5083 0.18605 0.0
C2138 C 0.45747 0.49538 0.17173 0.0
C2139 C 0.45407 0.46983 0.18527 0.0
C2140 C 0.42959 0.46409 0.20034 0.0
C2141 C 0.40843 0.48342 0.20051 0.0
C2142 C 0.48318 0.50239 0.15543 0.0
C2143 C 0.42544 0.43721 0.21544 0.0
H2144 H 0.4967 0.39921 0.13563 0.0
H2145 H 0.53677 0.43008 0.21135 0.0
H2146 H 0.43268 0.42847 0.14777 0.0
H2147 H 0.45155 0.45165 0.12576 0.0
H2148 H 0.45467 0.41563 0.11968 0.0
H2149 H 0.51607 0.4616 0.2424 0.0
H2150 H 0.50099 0.4879 0.22045 0.0
H2151 H 0.47958 0.46517 0.24022 0.0
H2152 H 0.43886 0.53381 0.16191 0.0
H2153 H 0.3893 0.4787 0.21105 0.0
H2154 H 0.48579 0.4883 0.13692 0.0
H2155 H 0.50117 0.49989 0.16967 0.0
H2156 H 0.48295 0.52353 0.14696 0.0
H2157 H 0.42463 0.4207 0.19917 0.0
H2158 H 0.40634 0.43681 0.2283 0.0
H2159 H 0.44283 0.43278 0.23001 0.0
C2160 C 0.49901 0.05021 0.46568 0.0
C2161 C 0.49132 0.06955 0.44484 0.0
C2162 C 0.48567 0.02511 0.46777 0.0
C2163 C 0.46406 0.01917 0.4486 0.0
C2164 C 0.45533 0.03911 0.42846 0.0
C2165 C 0.46914 0.06403 0.42675 0.0
C2166 C 0.49569 0.00438 0.48943 0.0
C2167 C 0.43218 0.03368 0.40783 0.0
C2168 C 0.45073 0.94626 0.42637 0.0
C2169 C 0.42746 0.9399 0.44254 0.0
C2170 C 0.46329 0.97169 0.42886 0.0
C2171 C 0.45217 -0.00863 0.44781 0.0
C2172 C 0.42924 0.98472 0.46499 0.0
C2173 C 0.4172 0.95897 0.46223 0.0
C2174 C 0.48794 0.9778 0.41044 0.0
C2175 C 0.41675 0.00517 0.48534 0.0
H2176 H 0.51642 0.05414 0.47943 0.0
H2177 H 0.46301 0.07897 0.41076 0.0
H2178 H 0.47844 -0.00397 0.50209 0.0
H2179 H 0.50533 0.98717 0.47781 0.0
H2180 H 0.51082 0.01306 0.50466 0.0
H2181 H 0.42632 0.05206 0.39531 0.0
H2182 H 0.43819 0.01753 0.39238 0.0
H2183 H 0.41411 0.02625 0.41986 0.0
H2184 H 0.45873 0.93147 0.41123 0.0
H2185 H 0.399 0.95421 0.47448 0.0
H2186 H 0.50493 0.98502 0.42421 0.0
H2187 H 0.48307 -0.00569 0.39489 0.0
H2188 H 0.49497 0.95979 0.39806 0.0
H2189 H 0.43249 0.01362 0.49995 0.0
H2190 H 0.40022 -0.00378 0.4987 0.0
H2191 H 0.40822 0.02238 0.47271 0.0
C2192 C 0.00815 0.93931 0.65596 0.0
C2193 C 0.03235 0.94134 0.67194 0.0
C2194 C 0.98617 0.9568 0.66115 0.0
C2195 C 0.98813 0.97651 0.6833 0.0
C2196 C 0.01204 0.97808 0.70024 0.0
C2197 C 0.03397 0.96068 0.69417 0.0
C2198 C 0.96114 0.95471 0.64234 0.0
C2199 C 0.01472 -0.0014 0.72428 0.0
C2200 C 0.94538 0.03946 0.67159 0.0
C2201 C 0.92188 0.03356 0.68769 0.0
C2202 C 0.96731 0.02136 0.67062 0.0
C2203 C 0.96611 -0.00302 0.68677 0.0
C2204 C 0.9432 -0.00841 0.70452 0.0
C2205 C 0.92121 0.00994 0.70466 0.0
C2206 C -0.00875 0.02783 0.65126 0.0
C2207 C 0.94151 0.96604 0.7225 0.0
H2208 H 0.00632 0.92397 0.6393 0.0
H2209 H 0.05259 0.96258 0.70654 0.0
H2210 H 0.94277 0.95188 0.65596 0.0
H2211 H 0.95834 0.97387 0.63 0.0
H2212 H 0.96244 0.93763 0.62674 0.0
H2213 H 0.03332 -0.00478 0.73747 0.0
H2214 H 0.01557 0.01937 0.71499 0.0
H2215 H -0.00331 -0.00225 0.73872 0.0
H2216 H 0.94638 0.05809 0.65909 0.0
H2217 H 0.90316 0.00533 0.71723 0.0
H2218 H -0.00712 0.0123 0.63398 0.0
H2219 H 0.01045 0.02719 0.66382 0.0
H2220 H -0.0106 0.04813 0.6409 0.0
H2221 H 0.93949 0.94819 0.70807 0.0
H2222 H 0.92389 0.96634 0.73756 0.0
H2223 H 0.96045 0.96323 0.73524 0.0
C2224 C 0.02145 0.54069 0.95235 0.0
C2225 C 0.01188 0.55673 0.92938 0.0
C2226 C 0.01084 0.51472 0.95744 0.0
C2227 C -0.00998 0.50475 0.93926 0.0
C2228 C 0.97969 0.52122 0.91659 0.0
C2229 C -0.00908 0.547 0.91178 0.0
C2230 C 0.02256 0.4976 0.98157 0.0
C2231 C 0.95721 0.51138 0.897 0.0
C2232 C 0.97782 0.42969 0.92766 0.0
C2233 C 0.95437 0.42552 0.94429 0.0
C2234 C -0.00935 0.4551 0.92713 0.0
C2235 C 0.97942 0.47681 0.94328 0.0
C2236 C 0.95667 0.47225 0.96139 0.0
C2237 C 0.94447 0.44657 0.96177 0.0
C2238 C 0.01523 0.45909 0.90799 0.0
C2239 C 0.94404 0.49494 0.97878 0.0
H2240 H 0.03804 0.54804 0.96563 0.0
H2241 H 0.98359 0.55944 0.89402 0.0
H2242 H 0.00612 0.49038 0.99611 0.0
H2243 H 0.03256 0.47935 0.97234 0.0
H2244 H 0.03774 0.50888 0.99465 0.0
H2245 H 0.95059 0.52719 0.88131 0.0
H2246 H 0.96423 0.49334 0.88473 0.0
H2247 H 0.93936 0.50503 0.91007 0.0
H2248 H 0.98545 0.41337 0.91418 0.0
H2249 H 0.92606 0.44349 0.97429 0.0
H2250 H 0.0317 0.46945 0.92009 0.0
H2251 H 0.00973 0.47228 0.88939 0.0
H2252 H 0.0232 0.43956 0.89947 0.0
H2253 H 0.95981 0.50586 0.99133 0.0
H2254 H 0.92822 0.48742 0.99398 0.0
H2255 H 0.93451 0.50988 0.96387 0.0
loop_
_geom_bond_atom_site_label_1
_geom_bond_atom_site_label_2
_geom_bond_distance
_geom_bond_site_symmetry_2
_ccdc_geom_bond_type
O0 Tb1 2.292 1_556 S
O0 C3 1.255 . S
Tb1 O0 2.292 1_554 S
Tb1 O17 2.326 . S
Tb1 O19 2.500 1_554 S
Tb1 O20 2.473 . S
Tb1 O23 2.324 . S
Eu2 O6 2.292 . S
Eu2 C7 2.852 . S
Eu2 O18 2.324 . S
Eu2 O22 2.326 . S
Eu2 O24 2.500 . S
Eu2 O25 2.473 . S
C3 O0 1.255 . S
C3 O4 1.247 . S
O4 C3 1.247 . S
C5 O17 1.242 . S
C5 O18 1.258 . S
O6 Eu2 2.292 . S
O6 C8 1.255 . S
C7 Eu2 2.852 . S
C7 C11 1.503 . S
C7 O24 1.273 . S
C7 O25 1.257 . S
C8 O6 1.255 . S
C8 O9 1.247 . S
O9 C8 1.247 . S
C10 O22 1.242 . S
C10 O23 1.258 . S
C11 C7 1.503 . S
C11 C12 1.379 . S
C11 C16 1.392 . S
C12 C11 1.379 . S
C12 C13 1.404 . S
C12 H26 0.929 . S
C13 C12 1.404 . S
C13 C14 1.389 . S
C14 C13 1.389 . S
C14 C15 1.399 . S
C14 H27 0.931 . S
C15 C14 1.399 . S
C15 C16 1.390 . S
C16 C11 1.392 . S
C16 C15 1.390 . S
C16 H28 0.929 . S
O17 Tb1 2.326 . S
O17 C5 1.242 . S
O18 Eu2 2.324 . S
O18 C5 1.258 . S
O19 Tb1 2.500 1_556 S
O19 C21 1.273 1_556 S
O20 Tb1 2.473 . S
O20 C21 1.257 . S
C21 O19 1.273 1_554 S
C21 O20 1.257 . S
O22 Eu2 2.326 . S
O22 C10 1.242 . S
O23 Tb1 2.324 . S
O23 C10 1.258 . S
O24 Eu2 2.500 . S
O24 C7 1.273 . S
O25 Eu2 2.473 . S
O25 C7 1.257 . S
H26 C12 0.929 . S
H27 C14 0.931 . S
H28 C16 0.929 . S
O29 Tb30 2.292 . S
O29 C32 1.255 . S
Tb30 O29 2.292 . S
Tb30 O46 2.326 . S
Tb30 O48 2.500 . S
Tb30 O49 2.473 . S
Tb30 O52 2.324 . S
Eu31 O35 2.292 . S
Eu31 C36 2.852 . S
Eu31 O47 2.324 . S
Eu31 O51 2.326 . S
Eu31 O53 2.500 . S
Eu31 O54 2.473 . S
C32 O29 1.255 . S
C32 O33 1.247 . S
O33 C32 1.247 . S
C34 O46 1.242 . S
C34 O47 1.258 . S
O35 Eu31 2.292 . S
O35 C37 1.255 . S
C36 Eu31 2.852 . S
C36 C40 1.503 . S
C36 O53 1.273 . S
C36 O54 1.257 . S
C37 O35 1.255 . S
C37 O38 1.247 . S
O38 C37 1.247 . S
C39 O51 1.242 . S
C39 O52 1.258 . S
C40 C36 1.503 . S
C40 C41 1.379 . S
C40 C45 1.392 . S
C41 C40 1.379 . S
C41 C42 1.404 . S
C41 H55 0.929 . S
C42 C41 1.404 . S
C42 C43 1.389 . S
C43 C42 1.389 . S
C43 C44 1.399 . S
C43 H56 0.931 . S
C44 C43 1.399 . S
C44 C45 1.390 . S
C45 C40 1.392 . S
C45 C44 1.390 . S
C45 H57 0.929 . S
O46 Tb30 2.326 . S
O46 C34 1.242 . S
O47 Eu31 2.324 . S
O47 C34 1.258 . S
O48 Tb30 2.500 . S
O48 C50 1.273 . S
O49 Tb30 2.473 . S
O49 C50 1.257 . S
C50 O48 1.273 . S
C50 O49 1.257 . S
O51 Eu31 2.326 . S
O51 C39 1.242 . S
O52 Tb30 2.324 . S
O52 C39 1.258 . S
O53 Eu31 2.500 . S
O53 C36 1.273 . S
O54 Eu31 2.473 . S
O54 C36 1.257 . S
H55 C41 0.929 . S
H56 C43 0.931 . S
H57 C45 0.929 . S
O58 Tb59 2.292 . S
O58 C61 1.255 . S
Tb59 O58 2.292 . S
Tb59 O75 2.326 . S
Tb59 O77 2.500 . S
Tb59 O78 2.473 . S
Tb59 O81 2.324 . S
Eu60 O64 2.292 . S
Eu60 C65 2.852 . S
Eu60 O76 2.324 . S
Eu60 O80 2.326 . S
Eu60 O82 2.500 . S
Eu60 O83 2.473 . S
C61 O58 1.255 . S
C61 O62 1.247 . S
O62 C61 1.247 . S
C63 O75 1.242 . S
C63 O76 1.258 . S
O64 Eu60 2.292 . S
O64 C66 1.255 . S
C65 Eu60 2.852 . S
C65 C69 1.503 . S
C65 O82 1.273 . S
C65 O83 1.257 . S
C66 O64 1.255 . S
C66 O67 1.247 . S
O67 C66 1.247 . S
C68 O80 1.242 . S
C68 O81 1.258 . S
C69 C65 1.503 . S
C69 C70 1.379 . S
C69 C74 1.392 . S
C70 C69 1.379 . S
C70 C71 1.404 . S
C70 H84 0.929 . S
C71 C70 1.404 . S
C71 C72 1.389 . S
C72 C71 1.389 . S
C72 C73 1.399 . S
C72 H85 0.931 . S
C73 C72 1.399 . S
C73 C74 1.390 . S
C74 C69 1.392 . S
C74 C73 1.390 . S
C74 H86 0.929 . S
O75 Tb59 2.326 . S
O75 C63 1.242 . S
O76 Eu60 2.324 . S
O76 C63 1.258 . S
O77 Tb59 2.500 . S
O77 C79 1.273 . S
O78 Tb59 2.473 . S
O78 C79 1.257 . S
C79 O77 1.273 . S
C79 O78 1.257 . S
O80 Eu60 2.326 . S
O80 C68 1.242 . S
O81 Tb59 2.324 . S
O81 C68 1.258 . S
O82 Eu60 2.500 . S
O82 C65 1.273 . S
O83 Eu60 2.473 . S
O83 C65 1.257 . S
H84 C70 0.929 . S
H85 C72 0.931 . S
H86 C74 0.929 . S
O87 Tb88 2.292 . S
O87 C90 1.255 . S
Tb88 O87 2.292 . S
Tb88 O104 2.326 . S
Tb88 O106 2.500 . S
Tb88 O107 2.473 . S
Tb88 O110 2.324 . S
Eu89 O93 2.292 . S
Eu89 C94 2.852 . S
Eu89 O105 2.324 . S
Eu89 O109 2.326 . S
Eu89 O111 2.500 . S
Eu89 O112 2.473 . S
C90 O87 1.255 . S
C90 O91 1.247 . S
O91 C90 1.247 . S
C92 O104 1.242 . S
C92 O105 1.258 . S
O93 Eu89 2.292 . S
O93 C95 1.255 . S
C94 Eu89 2.852 . S
C94 C98 1.503 . S
C94 O111 1.273 . S
C94 O112 1.257 . S
C95 O93 1.255 . S
C95 O96 1.247 . S
O96 C95 1.247 . S
C97 O109 1.242 . S
C97 O110 1.258 . S
C98 C94 1.503 . S
C98 C99 1.379 . S
C98 C103 1.392 . S
C99 C98 1.379 . S
C99 C100 1.404 . S
C99 H113 0.929 . S
C100 C99 1.404 . S
C100 C101 1.389 . S
C101 C100 1.389 . S
C101 C102 1.399 . S
C101 H114 0.931 . S
C102 C101 1.399 . S
C102 C103 1.390 . S
C103 C98 1.392 . S
C103 C102 1.390 . S
C103 H115 0.929 . S
O104 Tb88 2.326 . S
O104 C92 1.242 . S
O105 Eu89 2.324 . S
O105 C92 1.258 . S
O106 Tb88 2.500 . S
O106 C108 1.273 . S
O107 Tb88 2.473 . S
O107 C108 1.257 . S
C108 O106 1.273 . S
C108 O107 1.257 . S
O109 Eu89 2.326 . S
O109 C97 1.242 . S
O110 Tb88 2.324 . S
O110 C97 1.258 . S
O111 Eu89 2.500 . S
O111 C94 1.273 . S
O112 Eu89 2.473 . S
O112 C94 1.257 . S
H113 C99 0.929 . S
H114 C101 0.931 . S
H115 C103 0.929 . S
O116 Tb117 2.292 . S
O116 C119 1.255 . S
Tb117 O116 2.292 . S
Tb117 O133 2.326 . S
Tb117 O135 2.500 . S
Tb117 O136 2.473 . S
Tb117 O139 2.324 . S
Eu118 O122 2.292 . S
Eu118 C123 2.852 . S
Eu118 O134 2.324 . S
Eu118 O138 2.326 . S
Eu118 O140 2.500 . S
Eu118 O141 2.473 . S
C119 O116 1.255 . S
C119 O120 1.247 . S
O120 C119 1.247 . S
C121 O133 1.242 . S
C121 O134 1.258 . S
O122 Eu118 2.292 . S
O122 C124 1.255 . S
C123 Eu118 2.852 . S
C123 C127 1.503 . S
C123 O140 1.273 . S
C123 O141 1.257 . S
C124 O122 1.255 . S
C124 O125 1.247 . S
O125 C124 1.247 . S
C126 O138 1.242 . S
C126 O139 1.258 . S
C127 C123 1.503 . S
C127 C128 1.379 . S
C127 C132 1.392 . S
C128 C127 1.379 . S
C128 C129 1.404 . S
C128 H142 0.929 . S
C129 C128 1.404 . S
C129 C130 1.389 . S
C130 C129 1.389 . S
C130 C131 1.399 . S
C130 H143 0.931 . S
C131 C130 1.399 . S
C131 C132 1.390 . S
C132 C127 1.392 . S
C132 C131 1.390 . S
C132 H144 0.929 . S
O133 Tb117 2.326 . S
O133 C121 1.242 . S
O134 Eu118 2.324 . S
O134 C121 1.258 . S
O135 Tb117 2.500 . S
O135 C137 1.273 . S
O136 Tb117 2.473 . S
O136 C137 1.257 . S
C137 O135 1.273 . S
C137 O136 1.257 . S
O138 Eu118 2.326 . S
O138 C126 1.242 . S
O139 Tb117 2.324 . S
O139 C126 1.258 . S
O140 Eu118 2.500 . S
O140 C123 1.273 . S
O141 Eu118 2.473 . S
O141 C123 1.257 . S
H142 C128 0.929 . S
H143 C130 0.931 . S
H144 C132 0.929 . S
O145 Tb146 2.292 . S
O145 C148 1.255 . S
Tb146 O145 2.292 . S
Tb146 O162 2.326 . S
Tb146 O164 2.500 . S
Tb146 O165 2.473 . S
Tb146 O168 2.324 . S
Eu147 O151 2.292 . S
Eu147 C152 2.852 . S
Eu147 O163 2.324 . S
Eu147 O167 2.326 . S
Eu147 O169 2.500 . S
Eu147 O170 2.473 . S
C148 O145 1.255 . S
C148 O149 1.247 . S
O149 C148 1.247 . S
C150 O162 1.242 . S
C150 O163 1.258 . S
O151 Eu147 2.292 . S
O151 C153 1.255 . S
C152 Eu147 2.852 . S
C152 C156 1.503 . S
C152 O169 1.273 . S
C152 O170 1.257 . S
C153 O151 1.255 . S
C153 O154 1.247 . S
O154 C153 1.247 . S
C155 O167 1.242 . S
C155 O168 1.258 . S
C156 C152 1.503 . S
C156 C157 1.379 . S
C156 C161 1.392 . S
C157 C156 1.379 . S
C157 C158 1.404 . S
C157 H171 0.929 . S
C158 C157 1.404 . S
C158 C159 1.389 . S
C159 C158 1.389 . S
C159 C160 1.399 . S
C159 H172 0.931 . S
C160 C159 1.399 . S
C160 C161 1.390 . S
C161 C156 1.392 . S
C161 C160 1.390 . S
C161 H173 0.929 . S
O162 Tb146 2.326 . S
O162 C150 1.242 . S
O163 Eu147 2.324 . S
O163 C150 1.258 . S
O164 Tb146 2.500 . S
O164 C166 1.273 . S
O165 Tb146 2.473 . S
O165 C166 1.257 . S
C166 O164 1.273 . S
C166 O165 1.257 . S
O167 Eu147 2.326 . S
O167 C155 1.242 . S
O168 Tb146 2.324 . S
O168 C155 1.258 . S
O169 Eu147 2.500 . S
O169 C152 1.273 . S
O170 Eu147 2.473 . S
O170 C152 1.257 . S
H171 C157 0.929 . S
H172 C159 0.931 . S
H173 C161 0.929 . S
O174 Tb175 2.292 . S
O174 C177 1.255 . S
Tb175 O174 2.292 . S
Tb175 O191 2.326 . S
Tb175 O193 2.500 . S
Tb175 O194 2.473 . S
Tb175 O197 2.324 . S
Eu176 O180 2.292 . S
Eu176 C181 2.852 . S
Eu176 O192 2.324 . S
Eu176 O196 2.326 . S
Eu176 O198 2.500 . S
Eu176 O199 2.473 . S
C177 O174 1.255 . S
C177 O178 1.247 . S
O178 C177 1.247 . S
C179 O191 1.242 . S
C179 O192 1.258 . S
O180 Eu176 2.292 . S
O180 C182 1.255 . S
C181 Eu176 2.852 . S
C181 C185 1.503 . S
C181 O198 1.273 . S
C181 O199 1.257 . S
C182 O180 1.255 . S
C182 O183 1.247 . S
O183 C182 1.247 . S
C184 O196 1.242 . S
C184 O197 1.258 . S
C185 C181 1.503 . S
C185 C186 1.379 . S
C185 C190 1.392 . S
C186 C185 1.379 . S
C186 C187 1.404 . S
C186 H200 0.929 . S
C187 C186 1.404 . S
C187 C188 1.389 . S
C188 C187 1.389 . S
C188 C189 1.399 . S
C188 H201 0.931 . S
C189 C188 1.399 . S
C189 C190 1.390 . S
C190 C185 1.392 . S
C190 C189 1.390 . S
C190 H202 0.929 . S
O191 Tb175 2.326 . S
O191 C179 1.242 . S
O192 Eu176 2.324 . S
O192 C179 1.258 . S
O193 Tb175 2.500 . S
O193 C195 1.273 . S
O194 Tb175 2.473 . S
O194 C195 1.257 . S
C195 O193 1.273 . S
C195 O194 1.257 . S
O196 Eu176 2.326 . S
O196 C184 1.242 . S
O197 Tb175 2.324 . S
O197 C184 1.258 . S
O198 Eu176 2.500 . S
O198 C181 1.273 . S
O199 Eu176 2.473 . S
O199 C181 1.257 . S
H200 C186 0.929 . S
H201 C188 0.931 . S
H202 C190 0.929 . S
O203 Tb204 2.292 1_554 S
O203 C206 1.255 . S
Tb204 O203 2.292 1_556 S
Tb204 O220 2.326 . S
Tb204 O222 2.500 1_556 S
Tb204 O223 2.473 . S
Tb204 O226 2.324 . S
Eu205 O209 2.292 . S
Eu205 C210 2.852 . S
Eu205 O221 2.324 . S
Eu205 O225 2.326 . S
Eu205 O227 2.500 . S
Eu205 O228 2.473 . S
C206 O203 1.255 . S
C206 O207 1.247 . S
O207 C206 1.247 . S
C208 O220 1.242 . S
C208 O221 1.258 . S
O209 Eu205 2.292 . S
O209 C211 1.255 . S
C210 Eu205 2.852 . S
C210 C214 1.503 . S
C210 O227 1.273 . S
C210 O228 1.257 . S
C211 O209 1.255 . S
C211 O212 1.247 . S
O212 C211 1.247 . S
C213 O225 1.242 . S
C213 O226 1.258 . S
C214 C210 1.503 . S
C214 C215 1.379 . S
C214 C219 1.392 . S
C215 C214 1.379 . S
C215 C216 1.404 . S
C215 H229 0.929 . S
C216 C215 1.404 . S
C216 C217 1.389 . S
C217 C216 1.389 . S
C217 C218 1.399 . S
C217 H230 0.931 . S
C218 C217 1.399 . S
C218 C219 1.390 . S
C219 C214 1.392 . S
C219 C218 1.390 . S
C219 H231 0.929 . S
O220 Tb204 2.326 . S
O220 C208 1.242 . S
O221 Eu205 2.324 . S
O221 C208 1.258 . S
O222 Tb204 2.500 1_554 S
O222 C224 1.273 1_554 S
O223 Tb204 2.473 . S
O223 C224 1.257 . S
C224 O222 1.273 1_556 S
C224 O223 1.257 . S
O225 Eu205 2.326 . S
O225 C213 1.242 . S
O226 Tb204 2.324 . S
O226 C213 1.258 . S
O227 Eu205 2.500 . S
O227 C210 1.273 . S
O228 Eu205 2.473 . S
O228 C210 1.257 . S
H229 C215 0.929 . S
H230 C217 0.931 . S
H231 C219 0.929 . S
O232 Tb233 2.292 . S
O232 C235 1.255 . S
Tb233 O232 2.292 . S
Tb233 O249 2.326 . S
Tb233 O251 2.500 . S
Tb233 O252 2.473 . S
Tb233 O255 2.324 . S
Eu234 O238 2.292 . S
Eu234 C239 2.852 . S
Eu234 O250 2.324 . S
Eu234 O254 2.326 . S
Eu234 O256 2.500 . S
Eu234 O257 2.473 . S
C235 O232 1.255 . S
C235 O236 1.247 . S
O236 C235 1.247 . S
C237 O249 1.242 . S
C237 O250 1.258 . S
O238 Eu234 2.292 . S
O238 C240 1.255 . S
C239 Eu234 2.852 . S
C239 C243 1.503 . S
C239 O256 1.273 . S
C239 O257 1.257 . S
C240 O238 1.255 . S
C240 O241 1.247 . S
O241 C240 1.247 . S
C242 O254 1.242 . S
C242 O255 1.258 . S
C243 C239 1.503 . S
C243 C244 1.379 . S
C243 C248 1.392 . S
C244 C243 1.379 . S
C244 C245 1.404 . S
C244 H258 0.929 . S
C245 C244 1.404 . S
C245 C246 1.389 . S
C246 C245 1.389 . S
C246 C247 1.399 . S
C246 H259 0.931 . S
C247 C246 1.399 . S
C247 C248 1.390 . S
C248 C243 1.392 . S
C248 C247 1.390 . S
C248 H260 0.929 . S
O249 Tb233 2.326 . S
O249 C237 1.242 . S
O250 Eu234 2.324 . S
O250 C237 1.258 . S
O251 Tb233 2.500 . S
O251 C253 1.273 . S
O252 Tb233 2.473 . S
O252 C253 1.257 . S
C253 O251 1.273 . S
C253 O252 1.257 . S
O254 Eu234 2.326 . S
O254 C242 1.242 . S
O255 Tb233 2.324 . S
O255 C242 1.258 . S
O256 Eu234 2.500 . S
O256 C239 1.273 . S
O257 Eu234 2.473 . S
O257 C239 1.257 . S
H258 C244 0.929 . S
H259 C246 0.931 . S
H260 C248 0.929 . S
O261 Tb262 2.292 . S
O261 C264 1.255 . S
Tb262 O261 2.292 . S
Tb262 O278 2.326 . S
Tb262 O280 2.500 . S
Tb262 O281 2.473 . S
Tb262 O284 2.324 . S
Eu263 O267 2.292 . S
Eu263 C268 2.852 . S
Eu263 O279 2.324 . S
Eu263 O283 2.326 . S
Eu263 O285 2.500 . S
Eu263 O286 2.473 . S
C264 O261 1.255 . S
C264 O265 1.247 . S
O265 C264 1.247 . S
C266 O278 1.242 . S
C266 O279 1.258 . S
O267 Eu263 2.292 . S
O267 C269 1.255 . S
C268 Eu263 2.852 . S
C268 C272 1.503 . S
C268 O285 1.273 . S
C268 O286 1.257 . S
C269 O267 1.255 . S
C269 O270 1.247 . S
O270 C269 1.247 . S
C271 O283 1.242 . S
C271 O284 1.258 . S
C272 C268 1.503 . S
C272 C273 1.379 . S
C272 C277 1.392 . S
C273 C272 1.379 . S
C273 C274 1.404 . S
C273 H287 0.929 . S
C274 C273 1.404 . S
C274 C275 1.389 . S
C275 C274 1.389 . S
C275 C276 1.399 . S
C275 H288 0.931 . S
C276 C275 1.399 . S
C276 C277 1.390 . S
C277 C272 1.392 . S
C277 C276 1.390 . S
C277 H289 0.929 . S
O278 Tb262 2.326 . S
O278 C266 1.242 . S
O279 Eu263 2.324 . S
O279 C266 1.258 . S
O280 Tb262 2.500 . S
O280 C282 1.273 . S
O281 Tb262 2.473 . S
O281 C282 1.257 . S
C282 O280 1.273 . S
C282 O281 1.257 . S
O283 Eu263 2.326 . S
O283 C271 1.242 . S
O284 Tb262 2.324 . S
O284 C271 1.258 . S
O285 Eu263 2.500 . S
O285 C268 1.273 . S
O286 Eu263 2.473 . S
O286 C268 1.257 . S
H287 C273 0.929 . S
H288 C275 0.931 . S
H289 C277 0.929 . S
O290 Tb291 2.292 1_556 S
O290 C293 1.255 . S
Tb291 O290 2.292 1_554 S
Tb291 O307 2.326 . S
Tb291 O309 2.500 1_554 S
Tb291 O310 2.473 . S
Tb291 O313 2.324 . S
Eu292 O296 2.292 . S
Eu292 C297 2.852 . S
Eu292 O308 2.324 . S
Eu292 O312 2.326 . S
Eu292 O314 2.500 . S
Eu292 O315 2.473 . S
C293 O290 1.255 . S
C293 O294 1.247 . S
O294 C293 1.247 . S
C295 O307 1.242 . S
C295 O308 1.258 . S
O296 Eu292 2.292 . S
O296 C298 1.255 . S
C297 Eu292 2.852 . S
C297 C301 1.503 . S
C297 O314 1.273 . S
C297 O315 1.257 . S
C298 O296 1.255 . S
C298 O299 1.247 . S
O299 C298 1.247 . S
C300 O312 1.242 . S
C300 O313 1.258 . S
C301 C297 1.503 . S
C301 C302 1.379 . S
C301 C306 1.392 . S
C302 C301 1.379 . S
C302 C303 1.404 . S
C302 H316 0.929 . S
C303 C302 1.404 . S
C303 C304 1.389 . S
C304 C303 1.389 . S
C304 C305 1.399 . S
C304 H317 0.931 . S
C305 C304 1.399 . S
C305 C306 1.390 . S
C306 C301 1.392 . S
C306 C305 1.390 . S
C306 H318 0.929 . S
O307 Tb291 2.326 . S
O307 C295 1.242 . S
O308 Eu292 2.324 . S
O308 C295 1.258 . S
O309 Tb291 2.500 1_556 S
O309 C311 1.273 1_556 S
O310 Tb291 2.473 . S
O310 C311 1.257 . S
C311 O309 1.273 1_554 S
C311 O310 1.257 . S
O312 Eu292 2.326 . S
O312 C300 1.242 . S
O313 Tb291 2.324 . S
O313 C300 1.258 . S
O314 Eu292 2.500 . S
O314 C297 1.273 . S
O315 Eu292 2.473 . S
O315 C297 1.257 . S
H316 C302 0.929 . S
H317 C304 0.931 . S
H318 C306 0.929 . S
O319 Tb320 2.292 . S
O319 C322 1.255 . S
Tb320 O319 2.292 . S
Tb320 O336 2.326 . S
Tb320 O338 2.500 . S
Tb320 O339 2.473 . S
Tb320 O342 2.324 . S
Eu321 O325 2.292 . S
Eu321 C326 2.852 . S
Eu321 O337 2.324 . S
Eu321 O341 2.326 . S
Eu321 O343 2.500 . S
Eu321 O344 2.473 . S
C322 O319 1.255 . S
C322 O323 1.247 . S
O323 C322 1.247 . S
C324 O336 1.242 . S
C324 O337 1.258 . S
O325 Eu321 2.292 . S
O325 C327 1.255 . S
C326 Eu321 2.852 . S
C326 C330 1.503 . S
C326 O343 1.273 . S
C326 O344 1.257 . S
C327 O325 1.255 . S
C327 O328 1.247 . S
O328 C327 1.247 . S
C329 O341 1.242 . S
C329 O342 1.258 . S
C330 C326 1.503 . S
C330 C331 1.379 . S
C330 C335 1.392 . S
C331 C330 1.379 . S
C331 C332 1.404 . S
C331 H345 0.929 . S
C332 C331 1.404 . S
C332 C333 1.389 . S
C333 C332 1.389 . S
C333 C334 1.399 . S
C333 H346 0.931 . S
C334 C333 1.399 . S
C334 C335 1.390 . S
C335 C330 1.392 . S
C335 C334 1.390 . S
C335 H347 0.929 . S
O336 Tb320 2.326 . S
O336 C324 1.242 . S
O337 Eu321 2.324 . S
O337 C324 1.258 . S
O338 Tb320 2.500 . S
O338 C340 1.273 . S
O339 Tb320 2.473 . S
O339 C340 1.257 . S
C340 O338 1.273 . S
C340 O339 1.257 . S
O341 Eu321 2.326 . S
O341 C329 1.242 . S
O342 Tb320 2.324 . S
O342 C329 1.258 . S
O343 Eu321 2.500 . S
O343 C326 1.273 . S
O344 Eu321 2.473 . S
O344 C326 1.257 . S
H345 C331 0.929 . S
H346 C333 0.931 . S
H347 C335 0.929 . S
O348 Tb349 2.292 . S
O348 C351 1.255 . S
Tb349 O348 2.292 . S
Tb349 O365 2.326 . S
Tb349 O367 2.500 . S
Tb349 O368 2.473 . S
Tb349 O371 2.324 . S
Eu350 O354 2.292 . S
Eu350 C355 2.852 . S
Eu350 O366 2.324 . S
Eu350 O370 2.326 . S
Eu350 O372 2.500 . S
Eu350 O373 2.473 . S
C351 O348 1.255 . S
C351 O352 1.247 . S
O352 C351 1.247 . S
C353 O365 1.242 . S
C353 O366 1.258 . S
O354 Eu350 2.292 . S
O354 C356 1.255 . S
C355 Eu350 2.852 . S
C355 C359 1.503 . S
C355 O372 1.273 . S
C355 O373 1.257 . S
C356 O354 1.255 . S
C356 O357 1.247 . S
O357 C356 1.247 . S
C358 O370 1.242 . S
C358 O371 1.258 . S
C359 C355 1.503 . S
C359 C360 1.379 . S
C359 C364 1.392 . S
C360 C359 1.379 . S
C360 C361 1.404 . S
C360 H374 0.929 . S
C361 C360 1.404 . S
C361 C362 1.389 . S
C362 C361 1.389 . S
C362 C363 1.399 . S
C362 H375 0.931 . S
C363 C362 1.399 . S
C363 C364 1.390 . S
C364 C359 1.392 . S
C364 C363 1.390 . S
C364 H376 0.929 . S
O365 Tb349 2.326 . S
O365 C353 1.242 . S
O366 Eu350 2.324 . S
O366 C353 1.258 . S
O367 Tb349 2.500 . S
O367 C369 1.273 . S
O368 Tb349 2.473 . S
O368 C369 1.257 . S
C369 O367 1.273 . S
C369 O368 1.257 . S
O370 Eu350 2.326 . S
O370 C358 1.242 . S
O371 Tb349 2.324 . S
O371 C358 1.258 . S
O372 Eu350 2.500 . S
O372 C355 1.273 . S
O373 Eu350 2.473 . S
O373 C355 1.257 . S
H374 C360 0.929 . S
H375 C362 0.931 . S
H376 C364 0.929 . S
O377 Tb378 2.292 1_554 S
O377 C380 1.255 . S
Tb378 O377 2.292 1_556 S
Tb378 O394 2.326 . S
Tb378 O396 2.500 1_556 S
Tb378 O397 2.473 . S
Tb378 O400 2.324 . S
Eu379 O383 2.292 . S
Eu379 C384 2.852 . S
Eu379 O395 2.324 . S
Eu379 O399 2.326 . S
Eu379 O401 2.500 . S
Eu379 O402 2.473 . S
C380 O377 1.255 . S
C380 O381 1.247 . S
O381 C380 1.247 . S
C382 O394 1.242 . S
C382 O395 1.258 . S
O383 Eu379 2.292 . S
O383 C385 1.255 . S
C384 Eu379 2.852 . S
C384 C388 1.503 . S
C384 O401 1.273 . S
C384 O402 1.257 . S
C385 O383 1.255 . S
C385 O386 1.247 . S
O386 C385 1.247 . S
C387 O399 1.242 . S
C387 O400 1.258 . S
C388 C384 1.503 . S
C388 C389 1.379 . S
C388 C393 1.392 . S
C389 C388 1.379 . S
C389 C390 1.404 . S
C389 H403 0.929 . S
C390 C389 1.404 . S
C390 C391 1.389 . S
C391 C390 1.389 . S
C391 C392 1.399 . S
C391 H404 0.931 . S
C392 C391 1.399 . S
C392 C393 1.390 . S
C393 C388 1.392 . S
C393 C392 1.390 . S
C393 H405 0.929 . S
O394 Tb378 2.326 . S
O394 C382 1.242 . S
O395 Eu379 2.324 . S
O395 C382 1.258 . S
O396 Tb378 2.500 1_554 S
O396 C398 1.273 1_554 S
O397 Tb378 2.473 . S
O397 C398 1.257 . S
C398 O396 1.273 1_556 S
C398 O397 1.257 . S
O399 Eu379 2.326 . S
O399 C387 1.242 . S
O400 Tb378 2.324 . S
O400 C387 1.258 . S
O401 Eu379 2.500 . S
O401 C384 1.273 . S
O402 Eu379 2.473 . S
O402 C384 1.257 . S
H403 C389 0.929 . S
H404 C391 0.931 . S
H405 C393 0.929 . S
O406 Tb407 2.292 . S
O406 C409 1.255 . S
Tb407 O406 2.292 . S
Tb407 O423 2.326 . S
Tb407 O425 2.500 . S
Tb407 O426 2.473 . S
Tb407 O429 2.324 . S
Eu408 O412 2.292 . S
Eu408 C413 2.852 . S
Eu408 O424 2.324 . S
Eu408 O428 2.326 . S
Eu408 O430 2.500 . S
Eu408 O431 2.473 . S
C409 O406 1.255 . S
C409 O410 1.247 . S
O410 C409 1.247 . S
C411 O423 1.242 . S
C411 O424 1.258 . S
O412 Eu408 2.292 . S
O412 C414 1.255 . S
C413 Eu408 2.852 . S
C413 C417 1.503 . S
C413 O430 1.273 . S
C413 O431 1.257 . S
C414 O412 1.255 . S
C414 O415 1.247 . S
O415 C414 1.247 . S
C416 O428 1.242 . S
C416 O429 1.258 . S
C417 C413 1.503 . S
C417 C418 1.379 . S
C417 C422 1.392 . S
C418 C417 1.379 . S
C418 C419 1.404 . S
C418 H432 0.929 . S
C419 C418 1.404 . S
C419 C420 1.389 . S
C420 C419 1.389 . S
C420 C421 1.399 . S
C420 H433 0.931 . S
C421 C420 1.399 . S
C421 C422 1.390 . S
C422 C417 1.392 . S
C422 C421 1.390 . S
C422 H434 0.929 . S
O423 Tb407 2.326 . S
O423 C411 1.242 . S
O424 Eu408 2.324 . S
O424 C411 1.258 . S
O425 Tb407 2.500 . S
O425 C427 1.273 . S
O426 Tb407 2.473 . S
O426 C427 1.257 . S
C427 O425 1.273 . S
C427 O426 1.257 . S
O428 Eu408 2.326 . S
O428 C416 1.242 . S
O429 Tb407 2.324 . S
O429 C416 1.258 . S
O430 Eu408 2.500 . S
O430 C413 1.273 . S
O431 Eu408 2.473 . S
O431 C413 1.257 . S
H432 C418 0.929 . S
H433 C420 0.931 . S
H434 C422 0.929 . S
O435 Tb436 2.292 . S
O435 C438 1.255 . S
Tb436 O435 2.292 . S
Tb436 O452 2.326 . S
Tb436 O454 2.500 . S
Tb436 O455 2.473 . S
Tb436 O458 2.324 . S
Eu437 O441 2.292 . S
Eu437 C442 2.852 . S
Eu437 O453 2.324 . S
Eu437 O457 2.326 . S
Eu437 O459 2.500 . S
Eu437 O460 2.473 . S
C438 O435 1.255 . S
C438 O439 1.247 . S
O439 C438 1.247 . S
C440 O452 1.242 . S
C440 O453 1.258 . S
O441 Eu437 2.292 . S
O441 C443 1.255 . S
C442 Eu437 2.852 . S
C442 C446 1.503 . S
C442 O459 1.273 . S
C442 O460 1.257 . S
C443 O441 1.255 . S
C443 O444 1.247 . S
O444 C443 1.247 . S
C445 O457 1.242 . S
C445 O458 1.258 . S
C446 C442 1.503 . S
C446 C447 1.379 . S
C446 C451 1.392 . S
C447 C446 1.379 . S
C447 C448 1.404 . S
C447 H461 0.929 . S
C448 C447 1.404 . S
C448 C449 1.389 . S
C449 C448 1.389 . S
C449 C450 1.399 . S
C449 H462 0.931 . S
C450 C449 1.399 . S
C450 C451 1.390 . S
C451 C446 1.392 . S
C451 C450 1.390 . S
C451 H463 0.929 . S
O452 Tb436 2.326 . S
O452 C440 1.242 . S
O453 Eu437 2.324 . S
O453 C440 1.258 . S
O454 Tb436 2.500 . S
O454 C456 1.273 . S
O455 Tb436 2.473 . S
O455 C456 1.257 . S
C456 O454 1.273 . S
C456 O455 1.257 . S
O457 Eu437 2.326 . S
O457 C445 1.242 . S
O458 Tb436 2.324 . S
O458 C445 1.258 . S
O459 Eu437 2.500 . S
O459 C442 1.273 . S
O460 Eu437 2.473 . S
O460 C442 1.257 . S
H461 C447 0.929 . S
H462 C449 0.931 . S
H463 C451 0.929 . S
C464 C465 1.373 1_556 S
C464 C466 1.394 . S
C464 H480 0.931 . S
C465 C464 1.373 1_554 S
C465 C469 1.394 . S
C466 C464 1.394 . S
C466 C467 1.369 1_556 S
C466 C470 1.531 . S
C467 C466 1.369 1_554 S
C467 C468 1.410 . S
C467 C475 1.503 . S
C468 C467 1.410 . S
C468 C469 1.392 . S
C468 C471 1.511 . S
C469 C465 1.394 . S
C469 C468 1.392 . S
C469 H481 0.929 . S
C470 C466 1.531 . S
C470 H482 0.960 . S
C470 H483 0.962 . S
C470 H484 0.960 . S
C471 C468 1.511 . S
C471 H485 0.961 . S
C471 H486 0.961 . S
C471 H487 0.961 . S
C472 C473 1.365 1_556 S
C472 C474 1.363 . S
C472 H488 0.931 . S
C473 C472 1.365 1_554 S
C473 C477 1.413 . S
C474 C472 1.363 . S
C474 C475 1.370 1_556 S
C474 C478 1.524 . S
C475 C467 1.503 . S
C475 C474 1.370 1_554 S
C475 C476 1.403 . S
C476 C475 1.403 . S
C476 C477 1.404 . S
C476 C479 1.539 . S
C477 C473 1.413 . S
C477 C476 1.404 . S
C477 H489 0.930 . S
C478 C474 1.524 . S
C478 H490 0.956 . S
C478 H491 0.961 1_556 S
C478 H492 0.961 . S
C479 C476 1.539 . S
C479 H493 0.960 . S
C479 H494 0.961 . S
C479 H495 0.960 . S
H480 C464 0.931 . S
H481 C469 0.929 . S
H482 C470 0.960 . S
H483 C470 0.962 . S
H484 C470 0.960 . S
H485 C471 0.961 . S
H486 C471 0.961 . S
H487 C471 0.961 . S
H488 C472 0.931 . S
H489 C477 0.930 . S
H490 C478 0.956 . S
H491 C478 0.961 1_554 S
H492 C478 0.961 . S
H493 C479 0.960 . S
H494 C479 0.961 . S
H495 C479 0.960 . S
C496 C497 1.391 . S
C496 C498 1.394 . S
C496 H512 0.931 . S
C497 C496 1.391 . S
C497 C501 1.376 . S
C498 C496 1.394 . S
C498 C499 1.369 . S
C498 C502 1.531 . S
C499 C498 1.369 . S
C499 C500 1.410 . S
C499 C507 1.503 . S
C500 C499 1.410 . S
C500 C501 1.392 . S
C500 C503 1.511 . S
C501 C497 1.376 . S
C501 C500 1.392 . S
C501 H513 0.929 . S
C502 C498 1.531 . S
C502 H514 0.960 . S
C502 H515 0.962 . S
C502 H516 0.960 . S
C503 C500 1.511 . S
C503 H517 0.961 . S
C503 H518 0.961 . S
C503 H519 0.961 . S
C504 C505 1.370 . S
C504 C506 1.363 . S
C504 H520 0.931 . S
C505 C504 1.370 . S
C505 C509 1.408 . S
C506 C504 1.363 . S
C506 C507 1.370 . S
C506 C510 1.524 . S
C507 C499 1.503 . S
C507 C506 1.370 . S
C507 C508 1.403 . S
C508 C507 1.403 . S
C508 C509 1.404 . S
C508 C511 1.539 . S
C509 C505 1.408 . S
C509 C508 1.404 . S
C509 H521 0.930 . S
C510 C506 1.524 . S
C510 H522 0.956 . S
C510 H523 0.961 . S
C510 H524 0.961 . S
C511 C508 1.539 . S
C511 H525 0.958 . S
C511 H526 0.961 . S
C511 H527 0.960 . S
H512 C496 0.931 . S
H513 C501 0.929 . S
H514 C502 0.960 . S
H515 C502 0.962 . S
H516 C502 0.960 . S
H517 C503 0.961 . S
H518 C503 0.961 . S
H519 C503 0.961 . S
H520 C504 0.931 . S
H521 C509 0.930 . S
H522 C510 0.956 . S
H523 C510 0.961 . S
H524 C510 0.961 . S
H525 C511 0.958 . S
H526 C511 0.961 . S
H527 C511 0.960 . S
C528 C529 1.391 . S
C528 C530 1.394 . S
C528 H544 0.931 . S
C529 C528 1.391 . S
C529 C533 1.376 . S
C530 C528 1.394 . S
C530 C531 1.369 . S
C530 C534 1.531 . S
C531 C530 1.369 . S
C531 C532 1.410 . S
C531 C539 1.503 . S
C532 C531 1.410 . S
C532 C533 1.392 . S
C532 C535 1.511 . S
C533 C529 1.376 . S
C533 C532 1.392 . S
C533 H545 0.929 . S
C534 C530 1.531 . S
C534 H546 0.960 . S
C534 H547 0.962 . S
C534 H548 0.960 . S
C535 C532 1.511 . S
C535 H549 0.961 . S
C535 H550 0.961 . S
C535 H551 0.961 . S
C536 C537 1.370 . S
C536 C538 1.363 . S
C536 H552 0.931 . S
C537 C536 1.370 . S
C537 C541 1.408 . S
C538 C536 1.363 . S
C538 C539 1.370 . S
C538 C542 1.524 . S
C539 C531 1.503 . S
C539 C538 1.370 . S
C539 C540 1.403 . S
C540 C539 1.403 . S
C540 C541 1.404 . S
C540 C543 1.539 . S
C541 C537 1.408 . S
C541 C540 1.404 . S
C541 H553 0.930 . S
C542 C538 1.524 . S
C542 H554 0.956 . S
C542 H555 0.961 . S
C542 H556 0.961 . S
C543 C540 1.539 . S
C543 H557 0.958 . S
C543 H558 0.961 . S
C543 H559 0.960 . S
H544 C528 0.931 . S
H545 C533 0.929 . S
H546 C534 0.960 . S
H547 C534 0.962 . S
H548 C534 0.960 . S
H549 C535 0.961 . S
H550 C535 0.961 . S
H551 C535 0.961 . S
H552 C536 0.931 . S
H553 C541 0.930 . S
H554 C542 0.956 . S
H555 C542 0.961 . S
H556 C542 0.961 . S
H557 C543 0.958 . S
H558 C543 0.961 . S
H559 C543 0.960 . S
C560 C561 1.391 . S
C560 C562 1.394 . S
C560 H576 0.931 . S
C561 C560 1.391 . S
C561 C565 1.376 . S
C562 C560 1.394 . S
C562 C563 1.369 . S
C562 C566 1.531 . S
C563 C562 1.369 . S
C563 C564 1.410 . S
C563 C571 1.503 . S
C564 C563 1.410 . S
C564 C565 1.392 . S
C564 C567 1.511 . S
C565 C561 1.376 . S
C565 C564 1.392 . S
C565 H577 0.929 . S
C566 C562 1.531 . S
C566 H578 0.960 . S
C566 H579 0.962 . S
C566 H580 0.960 . S
C567 C564 1.511 . S
C567 H581 0.961 . S
C567 H582 0.961 . S
C567 H583 0.961 . S
C568 C569 1.370 . S
C568 C570 1.363 . S
C568 H584 0.931 . S
C569 C568 1.370 . S
C569 C573 1.408 . S
C570 C568 1.363 . S
C570 C571 1.370 . S
C570 C574 1.524 . S
C571 C563 1.503 . S
C571 C570 1.370 . S
C571 C572 1.403 . S
C572 C571 1.403 . S
C572 C573 1.404 . S
C572 C575 1.539 . S
C573 C569 1.408 . S
C573 C572 1.404 . S
C573 H585 0.930 . S
C574 C570 1.524 . S
C574 H586 0.956 . S
C574 H587 0.961 . S
C574 H588 0.961 . S
C575 C572 1.539 . S
C575 H589 0.958 . S
C575 H590 0.961 . S
C575 H591 0.960 . S
H576 C560 0.931 . S
H577 C565 0.929 . S
H578 C566 0.960 . S
H579 C566 0.962 . S
H580 C566 0.960 . S
H581 C567 0.961 . S
H582 C567 0.961 . S
H583 C567 0.961 . S
H584 C568 0.931 . S
H585 C573 0.930 . S
H586 C574 0.956 . S
H587 C574 0.961 . S
H588 C574 0.961 . S
H589 C575 0.958 . S
H590 C575 0.961 . S
H591 C575 0.960 . S
C592 C593 1.391 . S
C592 C594 1.394 . S
C592 H608 0.931 . S
C593 C592 1.391 . S
C593 C597 1.376 . S
C594 C592 1.394 . S
C594 C595 1.369 . S
C594 C598 1.531 . S
C595 C594 1.369 . S
C595 C596 1.410 . S
C595 C603 1.503 . S
C596 C595 1.410 . S
C596 C597 1.392 . S
C596 C599 1.511 . S
C597 C593 1.376 . S
C597 C596 1.392 . S
C597 H609 0.929 . S
C598 C594 1.531 . S
C598 H610 0.960 . S
C598 H611 0.962 . S
C598 H612 0.960 . S
C599 C596 1.511 . S
C599 H613 0.961 . S
C599 H614 0.961 . S
C599 H615 0.961 . S
C600 C601 1.370 . S
C600 C602 1.363 . S
C600 H616 0.931 . S
C601 C600 1.370 . S
C601 C605 1.408 . S
C602 C600 1.363 . S
C602 C603 1.370 . S
C602 C606 1.524 . S
C603 C595 1.503 . S
C603 C602 1.370 . S
C603 C604 1.403 . S
C604 C603 1.403 . S
C604 C605 1.404 . S
C604 C607 1.539 . S
C605 C601 1.408 . S
C605 C604 1.404 . S
C605 H617 0.930 . S
C606 C602 1.524 . S
C606 H618 0.956 . S
C606 H619 0.961 . S
C606 H620 0.961 . S
C607 C604 1.539 . S
C607 H621 0.958 . S
C607 H622 0.961 . S
C607 H623 0.960 . S
H608 C592 0.931 . S
H609 C597 0.929 . S
H610 C598 0.960 . S
H611 C598 0.962 . S
H612 C598 0.960 . S
H613 C599 0.961 . S
H614 C599 0.961 . S
H615 C599 0.961 . S
H616 C600 0.931 . S
H617 C605 0.930 . S
H618 C606 0.956 . S
H619 C606 0.961 . S
H620 C606 0.961 . S
H621 C607 0.958 . S
H622 C607 0.961 . S
H623 C607 0.960 . S
C624 C625 1.391 . S
C624 C626 1.394 . S
C624 H640 0.931 . S
C625 C624 1.391 . S
C625 C629 1.376 . S
C626 C624 1.394 . S
C626 C627 1.369 . S
C626 C630 1.531 . S
C627 C626 1.369 . S
C627 C628 1.410 . S
C627 C635 1.503 . S
C628 C627 1.410 . S
C628 C629 1.392 . S
C628 C631 1.511 . S
C629 C625 1.376 . S
C629 C628 1.392 . S
C629 H641 0.929 . S
C630 C626 1.531 . S
C630 H642 0.960 . S
C630 H643 0.962 . S
C630 H644 0.960 . S
C631 C628 1.511 . S
C631 H645 0.961 . S
C631 H646 0.961 . S
C631 H647 0.961 . S
C632 C633 1.370 . S
C632 C634 1.363 . S
C632 H648 0.931 . S
C633 C632 1.370 . S
C633 C637 1.408 . S
C634 C632 1.363 . S
C634 C635 1.370 . S
C634 C638 1.524 . S
C635 C627 1.503 . S
C635 C634 1.370 . S
C635 C636 1.403 . S
C636 C635 1.403 . S
C636 C637 1.404 . S
C636 C639 1.539 . S
C637 C633 1.408 . S
C637 C636 1.404 . S
C637 H649 0.930 . S
C638 C634 1.524 . S
C638 H650 0.956 . S
C638 H651 0.961 . S
C638 H652 0.961 . S
C639 C636 1.539 . S
C639 H653 0.958 . S
C639 H654 0.961 . S
C639 H655 0.960 . S
H640 C624 0.931 . S
H641 C629 0.929 . S
H642 C630 0.960 . S
H643 C630 0.962 . S
H644 C630 0.960 . S
H645 C631 0.961 . S
H646 C631 0.961 . S
H647 C631 0.961 . S
H648 C632 0.931 . S
H649 C637 0.930 . S
H650 C638 0.956 . S
H651 C638 0.961 . S
H652 C638 0.961 . S
H653 C639 0.958 . S
H654 C639 0.961 . S
H655 C639 0.960 . S
C656 C657 1.373 1_556 S
C656 C658 1.394 . S
C656 H672 0.931 . S
C657 C656 1.373 1_554 S
C657 C661 1.394 . S
C658 C656 1.394 . S
C658 C659 1.369 1_556 S
C658 C662 1.531 . S
C659 C658 1.369 1_554 S
C659 C660 1.410 . S
C659 C667 1.503 . S
C660 C659 1.410 . S
C660 C661 1.392 . S
C660 C663 1.511 . S
C661 C657 1.394 . S
C661 C660 1.392 . S
C661 H673 0.929 . S
C662 C658 1.531 . S
C662 H674 0.960 . S
C662 H675 0.962 . S
C662 H676 0.960 . S
C663 C660 1.511 . S
C663 H677 0.961 . S
C663 H678 0.961 . S
C663 H679 0.961 . S
C664 C665 1.365 1_556 S
C664 C666 1.363 . S
C664 H680 0.931 . S
C665 C664 1.365 1_554 S
C665 C669 1.413 . S
C666 C664 1.363 . S
C666 C667 1.370 1_556 S
C666 C670 1.524 . S
C667 C659 1.503 . S
C667 C666 1.370 1_554 S
C667 C668 1.403 . S
C668 C667 1.403 . S
C668 C669 1.404 . S
C668 C671 1.539 . S
C669 C665 1.413 . S
C669 C668 1.404 . S
C669 H681 0.930 . S
C670 C666 1.524 . S
C670 H682 0.956 . S
C670 H683 0.961 1_556 S
C670 H684 0.961 . S
C671 C668 1.539 . S
C671 H685 0.957 . S
C671 H686 0.961 . S
C671 H687 0.960 . S
H672 C656 0.931 . S
H673 C661 0.929 . S
H674 C662 0.960 . S
H675 C662 0.962 . S
H676 C662 0.960 . S
H677 C663 0.961 . S
H678 C663 0.961 . S
H679 C663 0.961 . S
H680 C664 0.931 . S
H681 C669 0.930 . S
H682 C670 0.956 . S
H683 C670 0.961 1_554 S
H684 C670 0.961 . S
H685 C671 0.957 . S
H686 C671 0.961 . S
H687 C671 0.960 . S
C688 C689 1.391 . S
C688 C690 1.394 . S
C688 H704 0.931 . S
C689 C688 1.391 . S
C689 C693 1.376 . S
C690 C688 1.394 . S
C690 C691 1.369 . S
C690 C694 1.531 . S
C691 C690 1.369 . S
C691 C692 1.410 . S
C691 C699 1.503 . S
C692 C691 1.410 . S
C692 C693 1.392 . S
C692 C695 1.511 . S
C693 C689 1.376 . S
C693 C692 1.392 . S
C693 H705 0.929 . S
C694 C690 1.531 . S
C694 H706 0.960 . S
C694 H707 0.962 . S
C694 H708 0.960 . S
C695 C692 1.511 . S
C695 H709 0.961 . S
C695 H710 0.961 . S
C695 H711 0.961 . S
C696 C697 1.370 . S
C696 C698 1.363 . S
C696 H712 0.931 . S
C697 C696 1.370 . S
C697 C701 1.408 . S
C698 C696 1.363 . S
C698 C699 1.370 . S
C698 C702 1.524 . S
C699 C691 1.503 . S
C699 C698 1.370 . S
C699 C700 1.403 . S
C700 C699 1.403 . S
C700 C701 1.404 . S
C700 C703 1.539 . S
C701 C697 1.408 . S
C701 C700 1.404 . S
C701 H713 0.930 . S
C702 C698 1.524 . S
C702 H714 0.956 . S
C702 H715 0.961 . S
C702 H716 0.961 . S
C703 C700 1.539 . S
C703 H717 0.958 . S
C703 H718 0.961 . S
C703 H719 0.960 . S
H704 C688 0.931 . S
H705 C693 0.929 . S
H706 C694 0.960 . S
H707 C694 0.962 . S
H708 C694 0.960 . S
H709 C695 0.961 . S
H710 C695 0.961 . S
H711 C695 0.961 . S
H712 C696 0.931 . S
H713 C701 0.930 . S
H714 C702 0.956 . S
H715 C702 0.961 . S
H716 C702 0.961 . S
H717 C703 0.958 . S
H718 C703 0.961 . S
H719 C703 0.960 . S
C720 C721 1.391 . S
C720 C722 1.394 . S
C720 H736 0.931 . S
C721 C720 1.391 . S
C721 C725 1.376 . S
C722 C720 1.394 . S
C722 C723 1.369 . S
C722 C726 1.531 . S
C723 C722 1.369 . S
C723 C724 1.410 . S
C723 C731 1.503 . S
C724 C723 1.410 . S
C724 C725 1.392 . S
C724 C727 1.511 . S
C725 C721 1.376 . S
C725 C724 1.392 . S
C725 H737 0.929 . S
C726 C722 1.531 . S
C726 H738 0.960 . S
C726 H739 0.962 . S
C726 H740 0.960 . S
C727 C724 1.511 . S
C727 H741 0.961 . S
C727 H742 0.961 . S
C727 H743 0.961 . S
C728 C729 1.370 . S
C728 C730 1.363 . S
C728 H744 0.931 . S
C729 C728 1.370 . S
C729 C733 1.408 . S
C730 C728 1.363 . S
C730 C731 1.370 . S
C730 C734 1.524 . S
C731 C723 1.503 . S
C731 C730 1.370 . S
C731 C732 1.403 . S
C732 C731 1.403 . S
C732 C733 1.404 . S
C732 C735 1.539 . S
C733 C729 1.408 . S
C733 C732 1.404 . S
C733 H745 0.968 . S
C734 C730 1.524 . S
C734 H746 0.956 . S
C734 H747 0.961 . S
C734 H748 0.961 . S
C735 C732 1.539 . S
C735 H749 0.958 . S
C735 H750 0.961 . S
C735 H751 0.960 . S
H736 C720 0.931 . S
H737 C725 0.929 . S
H738 C726 0.960 . S
H739 C726 0.962 . S
H740 C726 0.960 . S
H741 C727 0.961 . S
H742 C727 0.961 . S
H743 C727 0.961 . S
H744 C728 0.931 . S
H745 C733 0.968 . S
H746 C734 0.956 . S
H747 C734 0.961 . S
H748 C734 0.961 . S
H749 C735 0.958 . S
H750 C735 0.961 . S
H751 C735 0.960 . S
C752 C753 1.391 . S
C752 C754 1.394 . S
C752 H768 0.931 . S
C753 C752 1.391 . S
C753 C757 1.376 . S
C754 C752 1.394 . S
C754 C755 1.369 . S
C754 C758 1.531 . S
C755 C754 1.369 . S
C755 C756 1.410 . S
C755 C763 1.503 . S
C756 C755 1.410 . S
C756 C757 1.392 . S
C756 C759 1.511 . S
C757 C753 1.376 . S
C757 C756 1.392 . S
C757 H769 0.929 . S
C758 C754 1.531 . S
C758 H770 0.960 . S
C758 H771 0.962 . S
C758 H772 0.960 . S
C759 C756 1.511 . S
C759 H773 0.961 . S
C759 H774 0.961 . S
C759 H775 0.961 . S
C760 C761 1.370 . S
C760 C762 1.363 . S
C760 H776 0.931 . S
C761 C760 1.370 . S
C761 C765 1.408 . S
C762 C760 1.363 . S
C762 C763 1.370 . S
C762 C766 1.524 . S
C763 C755 1.503 . S
C763 C762 1.370 . S
C763 C764 1.403 . S
C764 C763 1.403 . S
C764 C765 1.404 . S
C764 C767 1.539 . S
C765 C761 1.408 . S
C765 C764 1.404 . S
C765 H777 0.930 . S
C766 C762 1.524 . S
C766 H778 0.956 . S
C766 H779 0.961 . S
C766 H780 0.961 . S
C767 C764 1.539 . S
C767 H781 0.958 . S
C767 H782 0.961 . S
C767 H783 0.960 . S
H768 C752 0.931 . S
H769 C757 0.929 . S
H770 C758 0.960 . S
H771 C758 0.962 . S
H772 C758 0.960 . S
H773 C759 0.961 . S
H774 C759 0.961 . S
H775 C759 0.961 . S
H776 C760 0.931 . S
H777 C765 0.930 . S
H778 C766 0.956 . S
H779 C766 0.961 . S
H780 C766 0.961 . S
H781 C767 0.958 . S
H782 C767 0.961 . S
H783 C767 0.960 . S
C784 C785 1.391 . S
C784 C786 1.394 . S
C784 H800 0.931 . S
C785 C784 1.391 . S
C785 C789 1.376 . S
C786 C784 1.394 . S
C786 C787 1.369 . S
C786 C790 1.531 . S
C787 C786 1.369 . S
C787 C788 1.410 . S
C787 C795 1.503 . S
C788 C787 1.410 . S
C788 C789 1.392 . S
C788 C791 1.511 . S
C789 C785 1.376 . S
C789 C788 1.392 . S
C789 H801 0.929 . S
C790 C786 1.531 . S
C790 H802 0.960 . S
C790 H803 0.962 . S
C790 H804 0.960 . S
C791 C788 1.511 . S
C791 H805 0.961 . S
C791 H806 0.961 . S
C791 H807 0.961 . S
C792 C793 1.370 . S
C792 C794 1.363 . S
C792 H808 0.931 . S
C793 C792 1.370 . S
C793 C797 1.408 . S
C794 C792 1.363 . S
C794 C795 1.370 . S
C794 C798 1.524 . S
C795 C787 1.503 . S
C795 C794 1.370 . S
C795 C796 1.403 . S
C796 C795 1.403 . S
C796 C797 1.404 . S
C796 C799 1.539 . S
C797 C793 1.408 . S
C797 C796 1.404 . S
C797 H809 0.930 . S
C798 C794 1.524 . S
C798 H810 0.956 . S
C798 H811 0.961 . S
C798 H812 0.961 . S
C799 C796 1.539 . S
C799 H813 0.958 . S
C799 H814 0.961 . S
C799 H815 0.960 . S
H800 C784 0.931 . S
H801 C789 0.929 . S
H802 C790 0.960 . S
H803 C790 0.962 . S
H804 C790 0.960 . S
H805 C791 0.961 . S
H806 C791 0.961 . S
H807 C791 0.961 . S
H808 C792 0.931 . S
H809 C797 0.930 . S
H810 C798 0.956 . S
H811 C798 0.961 . S
H812 C798 0.961 . S
H813 C799 0.958 . S
H814 C799 0.961 . S
H815 C799 0.960 . S
C816 C817 1.391 . S
C816 C818 1.394 . S
C816 H832 0.931 . S
C817 C816 1.391 . S
C817 C821 1.376 . S
C818 C816 1.394 . S
C818 C819 1.369 . S
C818 C822 1.531 . S
C819 C818 1.369 . S
C819 C820 1.410 . S
C819 C827 1.503 . S
C820 C819 1.410 . S
C820 C821 1.392 . S
C820 C823 1.511 . S
C821 C817 1.376 . S
C821 C820 1.392 . S
C821 H833 0.929 . S
C822 C818 1.531 . S
C822 H834 0.960 . S
C822 H835 0.962 . S
C822 H836 0.960 . S
C823 C820 1.511 . S
C823 H837 0.961 . S
C823 H838 0.961 . S
C823 H839 0.961 . S
C824 C825 1.370 . S
C824 C826 1.363 . S
C824 H840 0.931 . S
C825 C824 1.370 . S
C825 C829 1.408 . S
C826 C824 1.363 . S
C826 C827 1.370 . S
C826 C830 1.524 . S
C827 C819 1.503 . S
C827 C826 1.370 . S
C827 C828 1.403 . S
C828 C827 1.403 . S
C828 C829 1.404 . S
C828 C831 1.539 . S
C829 C825 1.408 . S
C829 C828 1.404 . S
C829 H841 0.930 . S
C830 C826 1.524 . S
C830 H842 0.956 . S
C830 H843 0.961 . S
C830 H844 0.961 . S
C831 C828 1.539 . S
C831 H845 0.958 . S
C831 H846 0.961 . S
C831 H847 0.960 . S
H832 C816 0.931 . S
H833 C821 0.929 . S
H834 C822 0.960 . S
H835 C822 0.962 . S
H836 C822 0.960 . S
H837 C823 0.961 . S
H838 C823 0.961 . S
H839 C823 0.961 . S
H840 C824 0.931 . S
H841 C829 0.930 . S
H842 C830 0.956 . S
H843 C830 0.961 . S
H844 C830 0.961 . S
H845 C831 0.958 . S
H846 C831 0.961 . S
H847 C831 0.960 . S
C848 C849 1.391 . S
C848 C850 1.394 . S
C848 H864 0.931 . S
C849 C848 1.391 . S
C849 C853 1.376 . S
C850 C848 1.394 . S
C850 C851 1.369 . S
C850 C854 1.531 . S
C851 C850 1.369 . S
C851 C852 1.410 . S
C851 C859 1.503 . S
C852 C851 1.410 . S
C852 C853 1.392 . S
C852 C855 1.511 . S
C853 C849 1.376 . S
C853 C852 1.392 . S
C853 H865 0.929 . S
C854 C850 1.531 . S
C854 H866 0.960 . S
C854 H867 0.962 . S
C854 H868 0.960 . S
C855 C852 1.511 . S
C855 H869 0.961 . S
C855 H870 0.961 . S
C855 H871 0.961 . S
C856 C857 1.370 . S
C856 C858 1.363 . S
C856 H872 0.931 . S
C857 C856 1.370 . S
C857 C861 1.408 . S
C858 C856 1.363 . S
C858 C859 1.370 . S
C858 C862 1.524 . S
C859 C851 1.503 . S
C859 C858 1.370 . S
C859 C860 1.403 . S
C860 C859 1.403 . S
C860 C861 1.404 . S
C860 C863 1.539 . S
C861 C857 1.408 . S
C861 C860 1.404 . S
C861 H873 0.930 . S
C862 C858 1.524 . S
C862 H874 0.956 . S
C862 H875 0.961 . S
C862 H876 0.961 . S
C863 C860 1.539 . S
C863 H877 0.958 . S
C863 H878 0.961 . S
C863 H879 0.960 . S
H864 C848 0.931 . S
H865 C853 0.929 . S
H866 C854 0.960 . S
H867 C854 0.962 . S
H868 C854 0.960 . S
H869 C855 0.961 . S
H870 C855 0.961 . S
H871 C855 0.961 . S
H872 C856 0.931 . S
H873 C861 0.930 . S
H874 C862 0.956 . S
H875 C862 0.961 . S
H876 C862 0.961 . S
H877 C863 0.958 . S
H878 C863 0.961 . S
H879 C863 0.960 . S
C880 C881 1.391 . S
C880 C882 1.394 . S
C880 H896 0.931 . S
C881 C880 1.391 . S
C881 C885 1.376 . S
C882 C880 1.394 . S
C882 C883 1.369 . S
C882 C886 1.531 . S
C883 C882 1.369 . S
C883 C884 1.410 . S
C883 C891 1.503 . S
C884 C883 1.410 . S
C884 C885 1.392 . S
C884 C887 1.511 . S
C885 C881 1.376 . S
C885 C884 1.392 . S
C885 H897 0.929 . S
C886 C882 1.531 . S
C886 H898 0.960 . S
C886 H899 0.962 . S
C886 H900 0.960 . S
C887 C884 1.511 . S
C887 H901 0.961 . S
C887 H902 0.961 . S
C887 H903 0.961 . S
C888 C889 1.370 . S
C888 C890 1.363 . S
C888 H904 0.931 . S
C889 C888 1.370 . S
C889 C893 1.408 . S
C890 C888 1.363 . S
C890 C891 1.370 . S
C890 C894 1.524 . S
C891 C883 1.503 . S
C891 C890 1.370 . S
C891 C892 1.403 . S
C892 C891 1.403 . S
C892 C893 1.404 . S
C892 C895 1.539 . S
C893 C889 1.408 . S
C893 C892 1.404 . S
C893 H905 0.930 . S
C894 C890 1.524 . S
C894 H906 0.956 . S
C894 H907 0.961 . S
C894 H908 0.961 . S
C895 C892 1.539 . S
C895 H909 0.958 . S
C895 H910 0.961 . S
C895 H911 0.960 . S
H896 C880 0.931 . S
H897 C885 0.929 . S
H898 C886 0.960 . S
H899 C886 0.962 . S
H900 C886 0.960 . S
H901 C887 0.961 . S
H902 C887 0.961 . S
H903 C887 0.961 . S
H904 C888 0.931 . S
H905 C893 0.930 . S
H906 C894 0.956 . S
H907 C894 0.961 . S
H908 C894 0.961 . S
H909 C895 0.958 . S
H910 C895 0.961 . S
H911 C895 0.960 . S
C912 C913 1.391 . S
C912 C914 1.394 . S
C912 H928 0.931 . S
C913 C912 1.391 . S
C913 C917 1.376 . S
C914 C912 1.394 . S
C914 C915 1.369 . S
C914 C918 1.531 . S
C915 C914 1.369 . S
C915 C916 1.410 . S
C915 C923 1.503 . S
C916 C915 1.410 . S
C916 C917 1.392 . S
C916 C919 1.511 . S
C917 C913 1.376 . S
C917 C916 1.392 . S
C917 H929 0.929 . S
C918 C914 1.531 . S
C918 H930 0.960 . S
C918 H931 0.962 . S
C918 H932 0.960 . S
C919 C916 1.511 . S
C919 H933 0.961 . S
C919 H934 0.961 . S
C919 H935 0.961 . S
C920 C921 1.370 . S
C920 C922 1.363 . S
C920 H936 0.931 . S
C921 C920 1.370 . S
C921 C925 1.408 . S
C922 C920 1.363 . S
C922 C923 1.370 . S
C922 C926 1.524 . S
C923 C915 1.503 . S
C923 C922 1.370 . S
C923 C924 1.403 . S
C924 C923 1.403 . S
C924 C925 1.404 . S
C924 C927 1.539 . S
C925 C921 1.408 . S
C925 C924 1.404 . S
C925 H937 0.930 . S
C926 C922 1.524 . S
C926 H938 0.956 . S
C926 H939 0.961 . S
C926 H940 0.961 . S
C927 C924 1.539 . S
C927 H941 0.958 . S
C927 H942 0.961 . S
C927 H943 0.960 . S
H928 C912 0.931 . S
H929 C917 0.929 . S
H930 C918 0.960 . S
H931 C918 0.962 . S
H932 C918 0.960 . S
H933 C919 0.961 . S
H934 C919 0.961 . S
H935 C919 0.961 . S
H936 C920 0.931 . S
H937 C925 0.930 . S
H938 C926 0.956 . S
H939 C926 0.961 . S
H940 C926 0.961 . S
H941 C927 0.958 . S
H942 C927 0.961 . S
H943 C927 0.960 . S
C944 C945 1.391 . S
C944 C946 1.394 . S
C944 H960 0.931 . S
C945 C944 1.391 . S
C945 C949 1.376 . S
C946 C944 1.394 . S
C946 C947 1.369 . S
C946 C950 1.531 . S
C947 C946 1.369 . S
C947 C948 1.410 . S
C947 C955 1.503 . S
C948 C947 1.410 . S
C948 C949 1.392 . S
C948 C951 1.511 . S
C949 C945 1.376 . S
C949 C948 1.392 . S
C949 H961 0.929 . S
C950 C946 1.531 . S
C950 H962 0.960 . S
C950 H963 0.962 . S
C950 H964 0.960 . S
C951 C948 1.511 . S
C951 H965 0.961 . S
C951 H966 0.961 . S
C951 H967 0.961 . S
C952 C953 1.370 . S
C952 C954 1.363 . S
C952 H968 0.931 . S
C953 C952 1.370 . S
C953 C957 1.408 . S
C954 C952 1.363 . S
C954 C955 1.370 . S
C954 C958 1.524 . S
C955 C947 1.503 . S
C955 C954 1.370 . S
C955 C956 1.403 . S
C956 C955 1.403 . S
C956 C957 1.404 . S
C956 C959 1.539 . S
C957 C953 1.408 . S
C957 C956 1.404 . S
C957 H969 0.930 . S
C958 C954 1.524 . S
C958 H970 0.956 . S
C958 H971 0.961 . S
C958 H972 0.961 . S
C959 C956 1.539 . S
C959 H973 0.958 . S
C959 H974 0.961 . S
C959 H975 0.960 . S
H960 C944 0.931 . S
H961 C949 0.929 . S
H962 C950 0.960 . S
H963 C950 0.962 . S
H964 C950 0.960 . S
H965 C951 0.961 . S
H966 C951 0.961 . S
H967 C951 0.961 . S
H968 C952 0.931 . S
H969 C957 0.930 . S
H970 C958 0.956 . S
H971 C958 0.961 . S
H972 C958 0.961 . S
H973 C959 0.958 . S
H974 C959 0.961 . S
H975 C959 0.960 . S
C976 C977 1.391 . S
C976 C978 1.394 . S
C976 H992 0.931 . S
C977 C976 1.391 . S
C977 C981 1.376 . S
C978 C976 1.394 . S
C978 C979 1.369 . S
C978 C982 1.531 . S
C979 C978 1.369 . S
C979 C980 1.410 . S
C979 C987 1.503 . S
C980 C979 1.410 . S
C980 C981 1.392 . S
C980 C983 1.511 . S
C981 C977 1.376 . S
C981 C980 1.392 . S
C981 H993 0.929 . S
C982 C978 1.531 . S
C982 H994 0.960 . S
C982 H995 0.962 . S
C982 H996 0.960 . S
C983 C980 1.511 . S
C983 H997 0.961 . S
C983 H998 0.961 . S
C983 H999 0.961 . S
C984 C985 1.370 . S
C984 C986 1.363 . S
C984 H1000 0.931 . S
C985 C984 1.370 . S
C985 C989 1.408 . S
C986 C984 1.363 . S
C986 C987 1.370 . S
C986 C990 1.524 . S
C987 C979 1.503 . S
C987 C986 1.370 . S
C987 C988 1.403 . S
C988 C987 1.403 . S
C988 C989 1.404 . S
C988 C991 1.539 . S
C989 C985 1.408 . S
C989 C988 1.404 . S
C989 H1001 0.930 . S
C990 C986 1.524 . S
C990 H1002 0.956 . S
C990 H1003 0.961 . S
C990 H1004 0.961 . S
C991 C988 1.539 . S
C991 H1005 0.958 . S
C991 H1006 0.961 . S
C991 H1007 0.960 . S
H992 C976 0.931 . S
H993 C981 0.929 . S
H994 C982 0.960 . S
H995 C982 0.962 . S
H996 C982 0.960 . S
H997 C983 0.961 . S
H998 C983 0.961 . S
H999 C983 0.961 . S
H1000 C984 0.931 . S
H1001 C989 0.930 . S
H1002 C990 0.956 . S
H1003 C990 0.961 . S
H1004 C990 0.961 . S
H1005 C991 0.958 . S
H1006 C991 0.961 . S
H1007 C991 0.960 . S
C1008 C1009 1.391 . S
C1008 C1010 1.394 . S
C1008 H1024 0.931 . S
C1009 C1008 1.391 . S
C1009 C1013 1.376 . S
C1010 C1008 1.394 . S
C1010 C1011 1.369 . S
C1010 C1014 1.531 . S
C1011 C1010 1.369 . S
C1011 C1012 1.410 . S
C1011 C1019 1.503 . S
C1012 C1011 1.410 . S
C1012 C1013 1.392 . S
C1012 C1015 1.511 . S
C1013 C1009 1.376 . S
C1013 C1012 1.392 . S
C1013 H1025 0.929 . S
C1014 C1010 1.531 . S
C1014 H1026 0.960 . S
C1014 H1027 0.962 . S
C1014 H1028 0.960 . S
C1015 C1012 1.511 . S
C1015 H1029 0.961 . S
C1015 H1030 0.961 . S
C1015 H1031 0.961 . S
C1016 C1017 1.370 . S
C1016 C1018 1.363 . S
C1016 H1032 0.931 . S
C1017 C1016 1.370 . S
C1017 C1021 1.408 . S
C1018 C1016 1.363 . S
C1018 C1019 1.370 . S
C1018 C1022 1.524 . S
C1019 C1011 1.503 . S
C1019 C1018 1.370 . S
C1019 C1020 1.403 . S
C1020 C1019 1.403 . S
C1020 C1021 1.404 . S
C1020 C1023 1.539 . S
C1021 C1017 1.408 . S
C1021 C1020 1.404 . S
C1021 H1033 0.930 . S
C1022 C1018 1.524 . S
C1022 H1034 0.956 . S
C1022 H1035 0.961 . S
C1022 H1036 0.961 . S
C1023 C1020 1.539 . S
C1023 H1037 0.958 . S
C1023 H1038 0.961 . S
C1023 H1039 0.960 . S
H1024 C1008 0.931 . S
H1025 C1013 0.929 . S
H1026 C1014 0.960 . S
H1027 C1014 0.962 . S
H1028 C1014 0.960 . S
H1029 C1015 0.961 . S
H1030 C1015 0.961 . S
H1031 C1015 0.961 . S
H1032 C1016 0.931 . S
H1033 C1021 0.930 . S
H1034 C1022 0.956 . S
H1035 C1022 0.961 . S
H1036 C1022 0.961 . S
H1037 C1023 0.958 . S
H1038 C1023 0.961 . S
H1039 C1023 0.960 . S
C1040 C1041 1.391 . S
C1040 C1042 1.394 . S
C1040 H1056 0.931 . S
C1041 C1040 1.391 . S
C1041 C1045 1.376 . S
C1042 C1040 1.394 . S
C1042 C1043 1.369 . S
C1042 C1046 1.531 . S
C1043 C1042 1.369 . S
C1043 C1044 1.410 . S
C1043 C1051 1.503 . S
C1044 C1043 1.410 . S
C1044 C1045 1.392 . S
C1044 C1047 1.511 . S
C1045 C1041 1.376 . S
C1045 C1044 1.392 . S
C1045 H1057 0.929 . S
C1046 C1042 1.531 . S
C1046 H1058 0.960 . S
C1046 H1059 0.962 . S
C1046 H1060 0.960 . S
C1047 C1044 1.511 . S
C1047 H1061 0.961 . S
C1047 H1062 0.961 . S
C1047 H1063 0.961 . S
C1048 C1049 1.370 . S
C1048 C1050 1.363 . S
C1048 H1064 0.931 . S
C1049 C1048 1.370 . S
C1049 C1053 1.408 . S
C1050 C1048 1.363 . S
C1050 C1051 1.370 . S
C1050 C1054 1.524 . S
C1051 C1043 1.503 . S
C1051 C1050 1.370 . S
C1051 C1052 1.403 . S
C1052 C1051 1.403 . S
C1052 C1053 1.404 . S
C1052 C1055 1.539 . S
C1053 C1049 1.408 . S
C1053 C1052 1.404 . S
C1053 H1065 0.930 . S
C1054 C1050 1.524 . S
C1054 H1066 0.956 . S
C1054 H1067 0.961 . S
C1054 H1068 0.961 . S
C1055 C1052 1.539 . S
C1055 H1069 0.958 . S
C1055 H1070 0.961 . S
C1055 H1071 0.960 . S
H1056 C1040 0.931 . S
H1057 C1045 0.929 . S
H1058 C1046 0.960 . S
H1059 C1046 0.962 . S
H1060 C1046 0.960 . S
H1061 C1047 0.961 . S
H1062 C1047 0.961 . S
H1063 C1047 0.961 . S
H1064 C1048 0.931 . S
H1065 C1053 0.930 . S
H1066 C1054 0.956 . S
H1067 C1054 0.961 . S
H1068 C1054 0.961 . S
H1069 C1055 0.958 . S
H1070 C1055 0.961 . S
H1071 C1055 0.960 . S
C1072 C1073 1.391 . S
C1072 C1074 1.394 . S
C1072 H1088 0.931 . S
C1073 C1072 1.391 . S
C1073 C1077 1.376 . S
C1074 C1072 1.394 . S
C1074 C1075 1.369 . S
C1074 C1078 1.531 . S
C1075 C1074 1.369 . S
C1075 C1076 1.410 . S
C1075 C1083 1.503 . S
C1076 C1075 1.410 . S
C1076 C1077 1.392 . S
C1076 C1079 1.511 . S
C1077 C1073 1.376 . S
C1077 C1076 1.392 . S
C1077 H1089 0.929 . S
C1078 C1074 1.531 . S
C1078 H1090 0.960 . S
C1078 H1091 0.962 . S
C1078 H1092 0.960 . S
C1079 C1076 1.511 . S
C1079 H1093 0.961 . S
C1079 H1094 0.961 . S
C1079 H1095 0.961 . S
C1080 C1081 1.370 . S
C1080 C1082 1.363 . S
C1080 H1096 0.931 . S
C1081 C1080 1.370 . S
C1081 C1085 1.408 . S
C1082 C1080 1.363 . S
C1082 C1083 1.370 . S
C1082 C1086 1.524 . S
C1083 C1075 1.503 . S
C1083 C1082 1.370 . S
C1083 C1084 1.403 . S
C1084 C1083 1.403 . S
C1084 C1085 1.404 . S
C1084 C1087 1.539 . S
C1085 C1081 1.408 . S
C1085 C1084 1.404 . S
C1085 H1097 0.930 . S
C1086 C1082 1.524 . S
C1086 H1098 0.956 . S
C1086 H1099 0.961 . S
C1086 H1100 0.961 . S
C1087 C1084 1.539 . S
C1087 H1101 0.958 . S
C1087 H1102 0.961 . S
C1087 H1103 0.960 . S
H1088 C1072 0.931 . S
H1089 C1077 0.929 . S
H1090 C1078 0.960 . S
H1091 C1078 0.962 . S
H1092 C1078 0.960 . S
H1093 C1079 0.961 . S
H1094 C1079 0.961 . S
H1095 C1079 0.961 . S
H1096 C1080 0.931 . S
H1097 C1085 0.930 . S
H1098 C1086 0.956 . S
H1099 C1086 0.961 . S
H1100 C1086 0.961 . S
H1101 C1087 0.958 . S
H1102 C1087 0.961 . S
H1103 C1087 0.960 . S
C1104 C1105 1.391 . S
C1104 C1106 1.394 . S
C1104 H1120 0.931 . S
C1105 C1104 1.391 . S
C1105 C1109 1.376 . S
C1106 C1104 1.394 . S
C1106 C1107 1.369 . S
C1106 C1110 1.531 . S
C1107 C1106 1.369 . S
C1107 C1108 1.410 . S
C1107 C1115 1.503 . S
C1108 C1107 1.410 . S
C1108 C1109 1.392 . S
C1108 C1111 1.511 . S
C1109 C1105 1.376 . S
C1109 C1108 1.392 . S
C1109 H1121 0.929 . S
C1110 C1106 1.531 . S
C1110 H1122 0.960 . S
C1110 H1123 0.962 . S
C1110 H1124 0.960 . S
C1111 C1108 1.511 . S
C1111 H1125 0.961 . S
C1111 H1126 0.961 . S
C1111 H1127 0.961 . S
C1112 C1113 1.370 . S
C1112 C1114 1.363 . S
C1112 H1128 0.931 . S
C1113 C1112 1.370 . S
C1113 C1117 1.408 . S
C1114 C1112 1.363 . S
C1114 C1115 1.370 . S
C1114 C1118 1.524 . S
C1115 C1107 1.503 . S
C1115 C1114 1.370 . S
C1115 C1116 1.403 . S
C1116 C1115 1.403 . S
C1116 C1117 1.404 . S
C1116 C1119 1.539 . S
C1117 C1113 1.408 . S
C1117 C1116 1.404 . S
C1117 H1129 0.930 . S
C1118 C1114 1.524 . S
C1118 H1130 0.956 . S
C1118 H1131 0.961 . S
C1118 H1132 0.961 . S
C1119 C1116 1.539 . S
C1119 H1133 0.958 . S
C1119 H1134 0.961 . S
C1119 H1135 0.960 . S
H1120 C1104 0.931 . S
H1121 C1109 0.929 . S
H1122 C1110 0.960 . S
H1123 C1110 0.962 . S
H1124 C1110 0.960 . S
H1125 C1111 0.961 . S
H1126 C1111 0.961 . S
H1127 C1111 0.961 . S
H1128 C1112 0.931 . S
H1129 C1117 0.930 . S
H1130 C1118 0.956 . S
H1131 C1118 0.961 . S
H1132 C1118 0.961 . S
H1133 C1119 0.958 . S
H1134 C1119 0.961 . S
H1135 C1119 0.960 . S
C1136 C1137 1.391 . S
C1136 C1138 1.394 . S
C1136 H1152 0.931 . S
C1137 C1136 1.391 . S
C1137 C1141 1.376 . S
C1138 C1136 1.394 . S
C1138 C1139 1.369 . S
C1138 C1142 1.531 . S
C1139 C1138 1.369 . S
C1139 C1140 1.410 . S
C1139 C1147 1.503 . S
C1140 C1139 1.410 . S
C1140 C1141 1.392 . S
C1140 C1143 1.511 . S
C1141 C1137 1.376 . S
C1141 C1140 1.392 . S
C1141 H1153 0.929 . S
C1142 C1138 1.531 . S
C1142 H1154 0.960 . S
C1142 H1155 0.962 . S
C1142 H1156 0.960 . S
C1143 C1140 1.511 . S
C1143 H1157 0.961 . S
C1143 H1158 0.961 . S
C1143 H1159 0.961 . S
C1144 C1145 1.370 . S
C1144 C1146 1.363 . S
C1144 H1160 0.931 . S
C1145 C1144 1.370 . S
C1145 C1149 1.408 . S
C1146 C1144 1.363 . S
C1146 C1147 1.370 . S
C1146 C1150 1.524 . S
C1147 C1139 1.503 . S
C1147 C1146 1.370 . S
C1147 C1148 1.403 . S
C1148 C1147 1.403 . S
C1148 C1149 1.404 . S
C1148 C1151 1.539 . S
C1149 C1145 1.408 . S
C1149 C1148 1.404 . S
C1149 H1161 0.930 . S
C1150 C1146 1.524 . S
C1150 H1162 0.956 . S
C1150 H1163 0.961 . S
C1150 H1164 0.961 . S
C1151 C1148 1.539 . S
C1151 H1165 0.958 . S
C1151 H1166 0.961 . S
C1151 H1167 0.960 . S
H1152 C1136 0.931 . S
H1153 C1141 0.929 . S
H1154 C1142 0.960 . S
H1155 C1142 0.962 . S
H1156 C1142 0.960 . S
H1157 C1143 0.961 . S
H1158 C1143 0.961 . S
H1159 C1143 0.961 . S
H1160 C1144 0.931 . S
H1161 C1149 0.930 . S
H1162 C1150 0.956 . S
H1163 C1150 0.961 . S
H1164 C1150 0.961 . S
H1165 C1151 0.958 . S
H1166 C1151 0.961 . S
H1167 C1151 0.960 . S
C1168 C1169 1.391 . S
C1168 C1170 1.394 . S
C1168 H1184 0.931 . S
C1169 C1168 1.391 . S
C1169 C1173 1.376 . S
C1170 C1168 1.394 . S
C1170 C1171 1.369 . S
C1170 C1174 1.531 . S
C1171 C1170 1.369 . S
C1171 C1172 1.410 . S
C1171 C1179 1.503 . S
C1172 C1171 1.410 . S
C1172 C1173 1.392 . S
C1172 C1175 1.511 . S
C1173 C1169 1.376 . S
C1173 C1172 1.392 . S
C1173 H1185 0.929 . S
C1174 C1170 1.531 . S
C1174 H1186 0.960 . S
C1174 H1187 0.962 . S
C1174 H1188 0.960 . S
C1175 C1172 1.511 . S
C1175 H1189 0.961 . S
C1175 H1190 0.961 . S
C1175 H1191 0.961 . S
C1176 C1177 1.370 . S
C1176 C1178 1.363 . S
C1176 H1192 0.931 . S
C1177 C1176 1.370 . S
C1177 C1181 1.408 . S
C1178 C1176 1.363 . S
C1178 C1179 1.370 . S
C1178 C1182 1.524 . S
C1179 C1171 1.503 . S
C1179 C1178 1.370 . S
C1179 C1180 1.403 . S
C1180 C1179 1.403 . S
C1180 C1181 1.404 . S
C1180 C1183 1.539 . S
C1181 C1177 1.408 . S
C1181 C1180 1.404 . S
C1181 H1193 0.930 . S
C1182 C1178 1.524 . S
C1182 H1194 0.956 . S
C1182 H1195 0.961 . S
C1182 H1196 0.961 . S
C1183 C1180 1.539 . S
C1183 H1197 0.958 . S
C1183 H1198 0.961 . S
C1183 H1199 0.960 . S
H1184 C1168 0.931 . S
H1185 C1173 0.929 . S
H1186 C1174 0.960 . S
H1187 C1174 0.962 . S
H1188 C1174 0.960 . S
H1189 C1175 0.961 . S
H1190 C1175 0.961 . S
H1191 C1175 0.961 . S
H1192 C1176 0.931 . S
H1193 C1181 0.930 . S
H1194 C1182 0.956 . S
H1195 C1182 0.961 . S
H1196 C1182 0.961 . S
H1197 C1183 0.958 . S
H1198 C1183 0.961 . S
H1199 C1183 0.960 . S
C1200 C1201 1.391 . S
C1200 C1202 1.394 . S
C1200 H1216 0.931 . S
C1201 C1200 1.391 . S
C1201 C1205 1.376 . S
C1202 C1200 1.394 . S
C1202 C1203 1.369 . S
C1202 C1206 1.531 . S
C1203 C1202 1.369 . S
C1203 C1204 1.410 . S
C1203 C1211 1.503 . S
C1204 C1203 1.410 . S
C1204 C1205 1.392 . S
C1204 C1207 1.511 . S
C1205 C1201 1.376 . S
C1205 C1204 1.392 . S
C1205 H1217 0.929 . S
C1206 C1202 1.531 . S
C1206 H1218 0.960 . S
C1206 H1219 0.962 . S
C1206 H1220 0.960 . S
C1207 C1204 1.511 . S
C1207 H1221 0.961 . S
C1207 H1222 0.961 . S
C1207 H1223 0.961 . S
C1208 C1209 1.370 . S
C1208 C1210 1.363 . S
C1208 H1224 0.931 . S
C1209 C1208 1.370 . S
C1209 C1213 1.408 . S
C1210 C1208 1.363 . S
C1210 C1211 1.370 . S
C1210 C1214 1.524 . S
C1211 C1203 1.503 . S
C1211 C1210 1.370 . S
C1211 C1212 1.403 . S
C1212 C1211 1.403 . S
C1212 C1213 1.404 . S
C1212 C1215 1.539 . S
C1213 C1209 1.408 . S
C1213 C1212 1.404 . S
C1213 H1225 0.930 . S
C1214 C1210 1.524 . S
C1214 H1226 0.956 . S
C1214 H1227 0.961 . S
C1214 H1228 0.961 . S
C1215 C1212 1.539 . S
C1215 H1229 0.958 . S
C1215 H1230 0.961 . S
C1215 H1231 0.960 . S
H1216 C1200 0.931 . S
H1217 C1205 0.929 . S
H1218 C1206 0.960 . S
H1219 C1206 0.962 . S
H1220 C1206 0.960 . S
H1221 C1207 0.961 . S
H1222 C1207 0.961 . S
H1223 C1207 0.961 . S
H1224 C1208 0.931 . S
H1225 C1213 0.930 . S
H1226 C1214 0.956 . S
H1227 C1214 0.961 . S
H1228 C1214 0.961 . S
H1229 C1215 0.958 . S
H1230 C1215 0.961 . S
H1231 C1215 0.960 . S
C1232 C1233 1.391 . S
C1232 C1234 1.394 . S
C1232 H1248 0.931 . S
C1233 C1232 1.391 . S
C1233 C1237 1.376 . S
C1234 C1232 1.394 . S
C1234 C1235 1.369 . S
C1234 C1238 1.531 . S
C1235 C1234 1.369 . S
C1235 C1236 1.410 . S
C1235 C1243 1.503 . S
C1236 C1235 1.410 . S
C1236 C1237 1.392 . S
C1236 C1239 1.511 . S
C1237 C1233 1.376 . S
C1237 C1236 1.392 . S
C1237 H1249 0.929 . S
C1238 C1234 1.531 . S
C1238 H1250 0.960 . S
C1238 H1251 0.962 . S
C1238 H1252 0.960 . S
C1239 C1236 1.511 . S
C1239 H1253 0.961 . S
C1239 H1254 0.961 . S
C1239 H1255 0.961 . S
C1240 C1241 1.370 . S
C1240 C1242 1.363 . S
C1240 H1256 0.931 . S
C1241 C1240 1.370 . S
C1241 C1245 1.408 . S
C1242 C1240 1.363 . S
C1242 C1243 1.370 . S
C1242 C1246 1.524 . S
C1243 C1235 1.503 . S
C1243 C1242 1.370 . S
C1243 C1244 1.403 . S
C1244 C1243 1.403 . S
C1244 C1245 1.404 . S
C1244 C1247 1.539 . S
C1245 C1241 1.408 . S
C1245 C1244 1.404 . S
C1245 H1257 0.930 . S
C1246 C1242 1.524 . S
C1246 H1258 0.956 . S
C1246 H1259 0.961 . S
C1246 H1260 0.961 . S
C1247 C1244 1.539 . S
C1247 H1261 0.958 . S
C1247 H1262 0.961 . S
C1247 H1263 0.960 . S
H1248 C1232 0.931 . S
H1249 C1237 0.929 . S
H1250 C1238 0.960 . S
H1251 C1238 0.962 . S
H1252 C1238 0.960 . S
H1253 C1239 0.961 . S
H1254 C1239 0.961 . S
H1255 C1239 0.961 . S
H1256 C1240 0.931 . S
H1257 C1245 0.930 . S
H1258 C1246 0.956 . S
H1259 C1246 0.961 . S
H1260 C1246 0.961 . S
H1261 C1247 0.958 . S
H1262 C1247 0.961 . S
H1263 C1247 0.960 . S
C1264 C1265 1.391 . S
C1264 C1266 1.394 . S
C1264 H1280 0.931 . S
C1265 C1264 1.391 . S
C1265 C1269 1.376 . S
C1266 C1264 1.394 . S
C1266 C1267 1.369 . S
C1266 C1270 1.531 . S
C1267 C1266 1.369 . S
C1267 C1268 1.410 . S
C1267 C1275 1.503 . S
C1268 C1267 1.410 . S
C1268 C1269 1.392 . S
C1268 C1271 1.511 . S
C1269 C1265 1.376 . S
C1269 C1268 1.392 . S
C1269 H1281 0.929 . S
C1270 C1266 1.531 . S
C1270 H1282 0.960 . S
C1270 H1283 0.962 . S
C1270 H1284 0.960 . S
C1271 C1268 1.511 . S
C1271 H1285 0.961 . S
C1271 H1286 0.961 . S
C1271 H1287 0.961 . S
C1272 C1273 1.370 . S
C1272 C1274 1.363 . S
C1272 H1288 0.931 . S
C1273 C1272 1.370 . S
C1273 C1277 1.408 . S
C1274 C1272 1.363 . S
C1274 C1275 1.370 . S
C1274 C1278 1.524 . S
C1275 C1267 1.503 . S
C1275 C1274 1.370 . S
C1275 C1276 1.403 . S
C1276 C1275 1.403 . S
C1276 C1277 1.404 . S
C1276 C1279 1.539 . S
C1277 C1273 1.408 . S
C1277 C1276 1.404 . S
C1277 H1289 0.930 . S
C1278 C1274 1.524 . S
C1278 H1290 0.956 . S
C1278 H1291 0.961 . S
C1278 H1292 0.961 . S
C1279 C1276 1.539 . S
C1279 H1293 0.958 . S
C1279 H1294 0.961 . S
C1279 H1295 0.960 . S
H1280 C1264 0.931 . S
H1281 C1269 0.929 . S
H1282 C1270 0.960 . S
H1283 C1270 0.962 . S
H1284 C1270 0.960 . S
H1285 C1271 0.961 . S
H1286 C1271 0.961 . S
H1287 C1271 0.961 . S
H1288 C1272 0.931 . S
H1289 C1277 0.930 . S
H1290 C1278 0.956 . S
H1291 C1278 0.961 . S
H1292 C1278 0.961 . S
H1293 C1279 0.958 . S
H1294 C1279 0.961 . S
H1295 C1279 0.960 . S
C1296 C1297 1.391 . S
C1296 C1298 1.394 . S
C1296 H1312 0.931 . S
C1297 C1296 1.391 . S
C1297 C1301 1.376 . S
C1298 C1296 1.394 . S
C1298 C1299 1.369 . S
C1298 C1302 1.531 . S
C1299 C1298 1.369 . S
C1299 C1300 1.410 . S
C1299 C1307 1.503 . S
C1300 C1299 1.410 . S
C1300 C1301 1.392 . S
C1300 C1303 1.511 . S
C1301 C1297 1.376 . S
C1301 C1300 1.392 . S
C1301 H1313 0.929 . S
C1302 C1298 1.531 . S
C1302 H1314 0.960 . S
C1302 H1315 0.962 . S
C1302 H1316 0.960 . S
C1303 C1300 1.511 . S
C1303 H1317 0.961 . S
C1303 H1318 0.961 . S
C1303 H1319 0.961 . S
C1304 C1305 1.370 . S
C1304 C1306 1.363 . S
C1304 H1320 0.931 . S
C1305 C1304 1.370 . S
C1305 C1309 1.408 . S
C1306 C1304 1.363 . S
C1306 C1307 1.370 . S
C1306 C1310 1.524 . S
C1307 C1299 1.503 . S
C1307 C1306 1.370 . S
C1307 C1308 1.403 . S
C1308 C1307 1.403 . S
C1308 C1309 1.404 . S
C1308 C1311 1.539 . S
C1309 C1305 1.408 . S
C1309 C1308 1.404 . S
C1309 H1321 0.930 . S
C1310 C1306 1.524 . S
C1310 H1322 0.956 . S
C1310 H1323 0.961 . S
C1310 H1324 0.961 . S
C1311 C1308 1.539 . S
C1311 H1325 0.958 . S
C1311 H1326 0.961 . S
C1311 H1327 0.960 . S
H1312 C1296 0.931 . S
H1313 C1301 0.929 . S
H1314 C1302 0.960 . S
H1315 C1302 0.962 . S
H1316 C1302 0.960 . S
H1317 C1303 0.961 . S
H1318 C1303 0.961 . S
H1319 C1303 0.961 . S
H1320 C1304 0.931 . S
H1321 C1309 0.930 . S
H1322 C1310 0.956 . S
H1323 C1310 0.961 . S
H1324 C1310 0.961 . S
H1325 C1311 0.958 . S
H1326 C1311 0.961 . S
H1327 C1311 0.960 . S
C1328 C1329 1.391 . S
C1328 C1330 1.394 . S
C1328 H1344 0.931 . S
C1329 C1328 1.391 . S
C1329 C1333 1.376 . S
C1330 C1328 1.394 . S
C1330 C1331 1.369 . S
C1330 C1334 1.531 . S
C1331 C1330 1.369 . S
C1331 C1332 1.410 . S
C1331 C1339 1.503 . S
C1332 C1331 1.410 . S
C1332 C1333 1.392 . S
C1332 C1335 1.511 . S
C1333 C1329 1.376 . S
C1333 C1332 1.392 . S
C1333 H1345 0.929 . S
C1334 C1330 1.531 . S
C1334 H1346 0.960 . S
C1334 H1347 0.962 . S
C1334 H1348 0.960 . S
C1335 C1332 1.511 . S
C1335 H1349 0.961 . S
C1335 H1350 0.961 . S
C1335 H1351 0.961 . S
C1336 C1337 1.370 . S
C1336 C1338 1.363 . S
C1336 H1352 0.931 . S
C1337 C1336 1.370 . S
C1337 C1341 1.408 . S
C1338 C1336 1.363 . S
C1338 C1339 1.370 . S
C1338 C1342 1.524 . S
C1339 C1331 1.503 . S
C1339 C1338 1.370 . S
C1339 C1340 1.403 . S
C1340 C1339 1.403 . S
C1340 C1341 1.404 . S
C1340 C1343 1.539 . S
C1341 C1337 1.408 . S
C1341 C1340 1.404 . S
C1341 H1353 0.930 . S
C1342 C1338 1.524 . S
C1342 H1354 0.956 . S
C1342 H1355 0.961 . S
C1342 H1356 0.961 . S
C1343 C1340 1.539 . S
C1343 H1357 0.958 . S
C1343 H1358 0.961 . S
C1343 H1359 0.960 . S
H1344 C1328 0.931 . S
H1345 C1333 0.929 . S
H1346 C1334 0.960 . S
H1347 C1334 0.962 . S
H1348 C1334 0.960 . S
H1349 C1335 0.961 . S
H1350 C1335 0.961 . S
H1351 C1335 0.961 . S
H1352 C1336 0.931 . S
H1353 C1341 0.930 . S
H1354 C1342 0.956 . S
H1355 C1342 0.961 . S
H1356 C1342 0.961 . S
H1357 C1343 0.958 . S
H1358 C1343 0.961 . S
H1359 C1343 0.960 . S
C1360 C1361 1.391 . S
C1360 C1362 1.394 . S
C1360 H1376 0.931 . S
C1361 C1360 1.391 . S
C1361 C1365 1.376 . S
C1362 C1360 1.394 . S
C1362 C1363 1.369 . S
C1362 C1366 1.531 . S
C1363 C1362 1.369 . S
C1363 C1364 1.410 . S
C1363 C1371 1.503 . S
C1364 C1363 1.410 . S
C1364 C1365 1.392 . S
C1364 C1367 1.511 . S
C1365 C1361 1.376 . S
C1365 C1364 1.392 . S
C1365 H1377 0.929 . S
C1366 C1362 1.531 . S
C1366 H1378 0.960 . S
C1366 H1379 0.962 . S
C1366 H1380 0.960 . S
C1367 C1364 1.511 . S
C1367 H1381 0.961 . S
C1367 H1382 0.961 . S
C1367 H1383 0.961 . S
C1368 C1369 1.370 . S
C1368 C1370 1.363 . S
C1368 H1384 0.931 . S
C1369 C1368 1.370 . S
C1369 C1373 1.408 . S
C1370 C1368 1.363 . S
C1370 C1371 1.370 . S
C1370 C1374 1.524 . S
C1371 C1363 1.503 . S
C1371 C1370 1.370 . S
C1371 C1372 1.403 . S
C1372 C1371 1.403 . S
C1372 C1373 1.404 . S
C1372 C1375 1.539 . S
C1373 C1369 1.408 . S
C1373 C1372 1.404 . S
C1373 H1385 0.930 . S
C1374 C1370 1.524 . S
C1374 H1386 0.956 . S
C1374 H1387 0.961 . S
C1374 H1388 0.961 . S
C1375 C1372 1.539 . S
C1375 H1389 0.958 . S
C1375 H1390 0.961 . S
C1375 H1391 0.960 . S
H1376 C1360 0.931 . S
H1377 C1365 0.929 . S
H1378 C1366 0.960 . S
H1379 C1366 0.962 . S
H1380 C1366 0.960 . S
H1381 C1367 0.961 . S
H1382 C1367 0.961 . S
H1383 C1367 0.961 . S
H1384 C1368 0.931 . S
H1385 C1373 0.930 . S
H1386 C1374 0.956 . S
H1387 C1374 0.961 . S
H1388 C1374 0.961 . S
H1389 C1375 0.958 . S
H1390 C1375 0.961 . S
H1391 C1375 0.960 . S
C1392 C1393 1.391 . S
C1392 C1394 1.394 . S
C1392 H1408 0.931 . S
C1393 C1392 1.391 . S
C1393 C1397 1.376 . S
C1394 C1392 1.394 . S
C1394 C1395 1.369 . S
C1394 C1398 1.531 . S
C1395 C1394 1.369 . S
C1395 C1396 1.410 . S
C1395 C1403 1.503 . S
C1396 C1395 1.410 . S
C1396 C1397 1.392 . S
C1396 C1399 1.511 . S
C1397 C1393 1.376 . S
C1397 C1396 1.392 . S
C1397 H1409 0.929 . S
C1398 C1394 1.531 . S
C1398 H1410 0.960 . S
C1398 H1411 0.962 . S
C1398 H1412 0.960 . S
C1399 C1396 1.511 . S
C1399 H1413 0.961 . S
C1399 H1414 0.961 . S
C1399 H1415 0.961 . S
C1400 C1401 1.370 . S
C1400 C1402 1.363 . S
C1400 H1416 0.931 . S
C1401 C1400 1.370 . S
C1401 C1405 1.408 . S
C1402 C1400 1.363 . S
C1402 C1403 1.370 . S
C1402 C1406 1.524 . S
C1403 C1395 1.503 . S
C1403 C1402 1.370 . S
C1403 C1404 1.403 . S
C1404 C1403 1.403 . S
C1404 C1405 1.404 . S
C1404 C1407 1.539 . S
C1405 C1401 1.408 . S
C1405 C1404 1.404 . S
C1405 H1417 0.930 . S
C1406 C1402 1.524 . S
C1406 H1418 0.956 . S
C1406 H1419 0.961 . S
C1406 H1420 0.961 . S
C1407 C1404 1.539 . S
C1407 H1421 0.958 . S
C1407 H1422 0.961 . S
C1407 H1423 0.960 . S
H1408 C1392 0.931 . S
H1409 C1397 0.929 . S
H1410 C1398 0.960 . S
H1411 C1398 0.962 . S
H1412 C1398 0.960 . S
H1413 C1399 0.961 . S
H1414 C1399 0.961 . S
H1415 C1399 0.961 . S
H1416 C1400 0.931 . S
H1417 C1405 0.930 . S
H1418 C1406 0.956 . S
H1419 C1406 0.961 . S
H1420 C1406 0.961 . S
H1421 C1407 0.958 . S
H1422 C1407 0.961 . S
H1423 C1407 0.960 . S
C1424 C1425 1.391 . S
C1424 C1426 1.394 . S
C1424 H1440 0.931 . S
C1425 C1424 1.391 . S
C1425 C1429 1.376 . S
C1426 C1424 1.394 . S
C1426 C1427 1.369 . S
C1426 C1430 1.531 . S
C1427 C1426 1.369 . S
C1427 C1428 1.410 . S
C1427 C1435 1.503 . S
C1428 C1427 1.410 . S
C1428 C1429 1.392 . S
C1428 C1431 1.511 . S
C1429 C1425 1.376 . S
C1429 C1428 1.392 . S
C1429 H1441 0.929 . S
C1430 C1426 1.531 . S
C1430 H1442 0.960 . S
C1430 H1443 0.962 . S
C1430 H1444 0.960 . S
C1431 C1428 1.511 . S
C1431 H1445 0.961 . S
C1431 H1446 0.961 . S
C1431 H1447 0.961 . S
C1432 C1433 1.370 . S
C1432 C1434 1.363 . S
C1432 H1448 0.931 . S
C1433 C1432 1.370 . S
C1433 C1437 1.408 . S
C1434 C1432 1.363 . S
C1434 C1435 1.370 . S
C1434 C1438 1.524 . S
C1435 C1427 1.503 . S
C1435 C1434 1.370 . S
C1435 C1436 1.403 . S
C1436 C1435 1.403 . S
C1436 C1437 1.404 . S
C1436 C1439 1.539 . S
C1437 C1433 1.408 . S
C1437 C1436 1.404 . S
C1437 H1449 0.930 . S
C1438 C1434 1.524 . S
C1438 H1450 0.956 . S
C1438 H1451 0.961 . S
C1438 H1452 0.961 . S
C1439 C1436 1.539 . S
C1439 H1453 0.958 . S
C1439 H1454 0.961 . S
C1439 H1455 0.960 . S
H1440 C1424 0.931 . S
H1441 C1429 0.929 . S
H1442 C1430 0.960 . S
H1443 C1430 0.962 . S
H1444 C1430 0.960 . S
H1445 C1431 0.961 . S
H1446 C1431 0.961 . S
H1447 C1431 0.961 . S
H1448 C1432 0.931 . S
H1449 C1437 0.930 . S
H1450 C1438 0.956 . S
H1451 C1438 0.961 . S
H1452 C1438 0.961 . S
H1453 C1439 0.958 . S
H1454 C1439 0.961 . S
H1455 C1439 0.960 . S
C1456 C1457 1.391 . S
C1456 C1458 1.394 . S
C1456 H1472 0.931 . S
C1457 C1456 1.391 . S
C1457 C1461 1.376 . S
C1458 C1456 1.394 . S
C1458 C1459 1.369 . S
C1458 C1462 1.531 . S
C1459 C1458 1.369 . S
C1459 C1460 1.410 . S
C1459 C1467 1.503 . S
C1460 C1459 1.410 . S
C1460 C1461 1.392 . S
C1460 C1463 1.511 . S
C1461 C1457 1.376 . S
C1461 C1460 1.392 . S
C1461 H1473 0.929 . S
C1462 C1458 1.531 . S
C1462 H1474 0.960 . S
C1462 H1475 0.962 . S
C1462 H1476 0.960 . S
C1463 C1460 1.511 . S
C1463 H1477 0.961 . S
C1463 H1478 0.961 . S
C1463 H1479 0.961 . S
C1464 C1465 1.370 . S
C1464 C1466 1.363 . S
C1464 H1480 0.931 . S
C1465 C1464 1.370 . S
C1465 C1469 1.408 . S
C1466 C1464 1.363 . S
C1466 C1467 1.370 . S
C1466 C1470 1.524 . S
C1467 C1459 1.503 . S
C1467 C1466 1.370 . S
C1467 C1468 1.403 . S
C1468 C1467 1.403 . S
C1468 C1469 1.404 . S
C1468 C1471 1.539 . S
C1469 C1465 1.408 . S
C1469 C1468 1.404 . S
C1469 H1481 0.930 . S
C1470 C1466 1.524 . S
C1470 H1482 0.956 . S
C1470 H1483 0.961 . S
C1470 H1484 0.961 . S
C1471 C1468 1.539 . S
C1471 H1485 0.958 . S
C1471 H1486 0.961 . S
C1471 H1487 0.960 . S
H1472 C1456 0.931 . S
H1473 C1461 0.929 . S
H1474 C1462 0.960 . S
H1475 C1462 0.962 . S
H1476 C1462 0.960 . S
H1477 C1463 0.961 . S
H1478 C1463 0.961 . S
H1479 C1463 0.961 . S
H1480 C1464 0.931 . S
H1481 C1469 0.930 . S
H1482 C1470 0.956 . S
H1483 C1470 0.961 . S
H1484 C1470 0.961 . S
H1485 C1471 0.958 . S
H1486 C1471 0.961 . S
H1487 C1471 0.960 . S
C1488 C1489 1.391 . S
C1488 C1490 1.394 . S
C1488 H1504 0.931 . S
C1489 C1488 1.391 . S
C1489 C1493 1.376 . S
C1490 C1488 1.394 . S
C1490 C1491 1.369 . S
C1490 C1494 1.530 1_545 S
C1491 C1490 1.369 . S
C1491 C1492 1.410 . S
C1491 C1499 1.503 . S
C1492 C1491 1.410 . S
C1492 C1493 1.392 . S
C1492 C1495 1.511 . S
C1493 C1489 1.376 . S
C1493 C1492 1.392 . S
C1493 H1505 0.929 . S
C1494 C1490 1.530 1_565 S
C1494 H1506 0.960 1_565 S
C1494 H1507 0.962 . S
C1494 H1508 0.961 . S
C1495 C1492 1.511 . S
C1495 H1509 0.961 . S
C1495 H1510 0.961 . S
C1495 H1511 0.961 . S
C1496 C1497 1.370 . S
C1496 C1498 1.363 . S
C1496 H1512 0.931 . S
C1497 C1496 1.370 . S
C1497 C1501 1.408 . S
C1498 C1496 1.363 . S
C1498 C1499 1.370 . S
C1498 C1502 1.524 . S
C1499 C1491 1.503 . S
C1499 C1498 1.370 . S
C1499 C1500 1.403 . S
C1500 C1499 1.403 . S
C1500 C1501 1.404 . S
C1500 C1503 1.539 . S
C1501 C1497 1.408 . S
C1501 C1500 1.404 . S
C1501 H1513 0.930 . S
C1502 C1498 1.524 . S
C1502 H1514 0.956 . S
C1502 H1515 0.961 . S
C1502 H1516 0.961 . S
C1503 C1500 1.539 . S
C1503 H1517 0.958 . S
C1503 H1518 0.961 . S
C1503 H1519 0.960 . S
H1504 C1488 0.931 . S
H1505 C1493 0.929 . S
H1506 C1494 0.960 1_545 S
H1507 C1494 0.962 . S
H1508 C1494 0.961 . S
H1509 C1495 0.961 . S
H1510 C1495 0.961 . S
H1511 C1495 0.961 . S
H1512 C1496 0.931 . S
H1513 C1501 0.930 . S
H1514 C1502 0.956 . S
H1515 C1502 0.961 . S
H1516 C1502 0.961 . S
H1517 C1503 0.958 . S
H1518 C1503 0.961 . S
H1519 C1503 0.960 . S
C1520 C1521 1.391 . S
C1520 C1522 1.394 . S
C1520 H1536 0.931 . S
C1521 C1520 1.391 . S
C1521 C1525 1.376 . S
C1522 C1520 1.394 . S
C1522 C1523 1.369 . S
C1522 C1526 1.531 . S
C1523 C1522 1.369 . S
C1523 C1524 1.410 . S
C1523 C1531 1.503 . S
C1524 C1523 1.410 . S
C1524 C1525 1.392 . S
C1524 C1527 1.511 1_655 S
C1525 C1521 1.376 . S
C1525 C1524 1.392 . S
C1525 H1537 0.929 . S
C1526 C1522 1.531 . S
C1526 H1538 0.960 . S
C1526 H1539 0.962 . S
C1526 H1540 0.960 . S
C1527 C1524 1.511 1_455 S
C1527 H1541 0.961 . S
C1527 H1542 0.961 1_455 S
C1527 H1543 0.961 . S
C1528 C1529 1.370 . S
C1528 C1530 1.363 . S
C1528 H1544 0.931 . S
C1529 C1528 1.370 . S
C1529 C1533 1.408 . S
C1530 C1528 1.363 . S
C1530 C1531 1.370 . S
C1530 C1534 1.524 . S
C1531 C1523 1.503 . S
C1531 C1530 1.370 . S
C1531 C1532 1.403 . S
C1532 C1531 1.403 . S
C1532 C1533 1.404 . S
C1532 C1535 1.539 . S
C1533 C1529 1.408 . S
C1533 C1532 1.404 . S
C1533 H1545 0.930 . S
C1534 C1530 1.524 . S
C1534 H1546 0.956 . S
C1534 H1547 0.961 . S
C1534 H1548 0.961 . S
C1535 C1532 1.539 . S
C1535 H1549 0.958 . S
C1535 H1550 0.961 . S
C1535 H1551 0.960 . S
H1536 C1520 0.931 . S
H1537 C1525 0.929 . S
H1538 C1526 0.960 . S
H1539 C1526 0.962 . S
H1540 C1526 0.960 . S
H1541 C1527 0.961 . S
H1542 C1527 0.961 1_655 S
H1543 C1527 0.961 . S
H1544 C1528 0.931 . S
H1545 C1533 0.930 . S
H1546 C1534 0.956 . S
H1547 C1534 0.961 . S
H1548 C1534 0.961 . S
H1549 C1535 0.958 . S
H1550 C1535 0.961 . S
H1551 C1535 0.960 . S
C1552 C1553 1.391 . S
C1552 C1554 1.394 . S
C1552 H1568 0.931 . S
C1553 C1552 1.391 . S
C1553 C1557 1.376 . S
C1554 C1552 1.394 . S
C1554 C1555 1.369 . S
C1554 C1558 1.531 . S
C1555 C1554 1.369 . S
C1555 C1556 1.410 . S
C1555 C1563 1.503 . S
C1556 C1555 1.410 . S
C1556 C1557 1.392 . S
C1556 C1559 1.511 . S
C1557 C1553 1.376 . S
C1557 C1556 1.392 . S
C1557 H1569 0.929 . S
C1558 C1554 1.531 . S
C1558 H1570 0.960 . S
C1558 H1571 0.962 . S
C1558 H1572 0.960 . S
C1559 C1556 1.511 . S
C1559 H1573 0.961 . S
C1559 H1574 0.961 . S
C1559 H1575 0.961 . S
C1560 C1561 1.370 . S
C1560 C1562 1.363 . S
C1560 H1576 0.931 . S
C1561 C1560 1.370 . S
C1561 C1565 1.408 . S
C1562 C1560 1.363 . S
C1562 C1563 1.370 . S
C1562 C1566 1.524 . S
C1563 C1555 1.503 . S
C1563 C1562 1.370 . S
C1563 C1564 1.403 . S
C1564 C1563 1.403 . S
C1564 C1565 1.404 . S
C1564 C1567 1.539 . S
C1565 C1561 1.408 . S
C1565 C1564 1.404 . S
C1565 H1577 0.930 . S
C1566 C1562 1.524 . S
C1566 H1578 0.956 . S
C1566 H1579 0.961 . S
C1566 H1580 0.961 . S
C1567 C1564 1.539 . S
C1567 H1581 0.958 . S
C1567 H1582 0.961 . S
C1567 H1583 0.960 . S
H1568 C1552 0.931 . S
H1569 C1557 0.929 . S
H1570 C1558 0.960 . S
H1571 C1558 0.962 . S
H1572 C1558 0.960 . S
H1573 C1559 0.961 . S
H1574 C1559 0.961 . S
H1575 C1559 0.961 . S
H1576 C1560 0.931 . S
H1577 C1565 0.930 . S
H1578 C1566 0.956 . S
H1579 C1566 0.961 . S
H1580 C1566 0.961 . S
H1581 C1567 0.958 . S
H1582 C1567 0.961 . S
H1583 C1567 0.960 . S
C1584 C1585 1.391 . S
C1584 C1586 1.394 . S
C1584 H1600 0.931 . S
C1585 C1584 1.391 . S
C1585 C1589 1.376 . S
C1586 C1584 1.394 . S
C1586 C1587 1.369 . S
C1586 C1590 1.531 . S
C1587 C1586 1.369 . S
C1587 C1588 1.410 . S
C1587 C1595 1.503 . S
C1588 C1587 1.410 . S
C1588 C1589 1.392 . S
C1588 C1591 1.511 . S
C1589 C1585 1.376 . S
C1589 C1588 1.392 . S
C1589 H1601 0.929 . S
C1590 C1586 1.531 . S
C1590 H1602 0.960 . S
C1590 H1603 0.962 . S
C1590 H1604 0.960 . S
C1591 C1588 1.511 . S
C1591 H1605 0.961 . S
C1591 H1606 0.961 . S
C1591 H1607 0.961 . S
C1592 C1593 1.370 . S
C1592 C1594 1.363 . S
C1592 H1608 0.931 . S
C1593 C1592 1.370 . S
C1593 C1597 1.408 . S
C1594 C1592 1.363 . S
C1594 C1595 1.370 . S
C1594 C1598 1.524 . S
C1595 C1587 1.503 . S
C1595 C1594 1.370 . S
C1595 C1596 1.403 . S
C1596 C1595 1.403 . S
C1596 C1597 1.404 . S
C1596 C1599 1.539 . S
C1597 C1593 1.408 . S
C1597 C1596 1.404 . S
C1597 H1609 0.930 . S
C1598 C1594 1.524 . S
C1598 H1610 0.956 . S
C1598 H1611 0.961 . S
C1598 H1612 0.961 . S
C1599 C1596 1.539 . S
C1599 H1613 0.958 . S
C1599 H1614 0.961 . S
C1599 H1615 0.960 . S
H1600 C1584 0.931 . S
H1601 C1589 0.929 . S
H1602 C1590 0.960 . S
H1603 C1590 0.962 . S
H1604 C1590 0.960 . S
H1605 C1591 0.961 . S
H1606 C1591 0.961 . S
H1607 C1591 0.961 . S
H1608 C1592 0.931 . S
H1609 C1597 0.930 . S
H1610 C1598 0.956 . S
H1611 C1598 0.961 . S
H1612 C1598 0.961 . S
H1613 C1599 0.958 . S
H1614 C1599 0.961 . S
H1615 C1599 0.960 . S
C1616 C1617 1.391 . S
C1616 C1618 1.394 . S
C1616 H1632 0.931 . S
C1617 C1616 1.391 . S
C1617 C1621 1.376 . S
C1618 C1616 1.394 . S
C1618 C1619 1.369 . S
C1618 C1622 1.531 . S
C1619 C1618 1.369 . S
C1619 C1620 1.410 . S
C1619 C1627 1.503 . S
C1620 C1619 1.410 . S
C1620 C1621 1.392 . S
C1620 C1623 1.511 . S
C1621 C1617 1.376 . S
C1621 C1620 1.392 . S
C1621 H1633 0.929 . S
C1622 C1618 1.531 . S
C1622 H1634 0.960 . S
C1622 H1635 0.962 . S
C1622 H1636 0.960 . S
C1623 C1620 1.511 . S
C1623 H1637 0.961 . S
C1623 H1638 0.961 . S
C1623 H1639 0.961 . S
C1624 C1625 1.370 . S
C1624 C1626 1.363 . S
C1624 H1640 0.931 . S
C1625 C1624 1.370 . S
C1625 C1629 1.408 . S
C1626 C1624 1.363 . S
C1626 C1627 1.370 . S
C1626 C1630 1.524 . S
C1627 C1619 1.503 . S
C1627 C1626 1.370 . S
C1627 C1628 1.403 . S
C1628 C1627 1.403 . S
C1628 C1629 1.404 . S
C1628 C1631 1.539 . S
C1629 C1625 1.408 . S
C1629 C1628 1.404 . S
C1629 H1641 0.930 . S
C1630 C1626 1.524 . S
C1630 H1642 0.956 . S
C1630 H1643 0.961 . S
C1630 H1644 0.961 . S
C1631 C1628 1.539 . S
C1631 H1645 0.958 . S
C1631 H1646 0.961 . S
C1631 H1647 0.960 . S
H1632 C1616 0.931 . S
H1633 C1621 0.929 . S
H1634 C1622 0.960 . S
H1635 C1622 0.962 . S
H1636 C1622 0.960 . S
H1637 C1623 0.961 . S
H1638 C1623 0.961 . S
H1639 C1623 0.961 . S
H1640 C1624 0.931 . S
H1641 C1629 0.930 . S
H1642 C1630 0.956 . S
H1643 C1630 0.961 . S
H1644 C1630 0.961 . S
H1645 C1631 0.958 . S
H1646 C1631 0.961 . S
H1647 C1631 0.960 . S
C1648 C1649 1.391 . S
C1648 C1650 1.394 . S
C1648 H1664 0.931 . S
C1649 C1648 1.391 . S
C1649 C1653 1.376 . S
C1650 C1648 1.394 . S
C1650 C1651 1.369 . S
C1650 C1654 1.531 . S
C1651 C1650 1.369 . S
C1651 C1652 1.410 . S
C1651 C1659 1.503 . S
C1652 C1651 1.410 . S
C1652 C1653 1.392 . S
C1652 C1655 1.511 . S
C1653 C1649 1.376 . S
C1653 C1652 1.392 . S
C1653 H1665 0.929 . S
C1654 C1650 1.531 . S
C1654 H1666 0.960 . S
C1654 H1667 0.962 . S
C1654 H1668 0.960 . S
C1655 C1652 1.511 . S
C1655 H1669 0.961 . S
C1655 H1670 0.961 . S
C1655 H1671 0.961 . S
C1656 C1657 1.370 . S
C1656 C1658 1.363 . S
C1656 H1672 0.931 . S
C1657 C1656 1.370 . S
C1657 C1661 1.408 . S
C1658 C1656 1.363 . S
C1658 C1659 1.370 . S
C1658 C1662 1.524 . S
C1659 C1651 1.503 . S
C1659 C1658 1.370 . S
C1659 C1660 1.403 . S
C1660 C1659 1.403 . S
C1660 C1661 1.404 . S
C1660 C1663 1.539 . S
C1661 C1657 1.408 . S
C1661 C1660 1.404 . S
C1661 H1673 0.930 . S
C1662 C1658 1.524 . S
C1662 H1674 0.956 . S
C1662 H1675 0.961 . S
C1662 H1676 0.961 . S
C1663 C1660 1.539 . S
C1663 H1677 0.958 . S
C1663 H1678 0.961 . S
C1663 H1679 0.960 . S
H1664 C1648 0.931 . S
H1665 C1653 0.929 . S
H1666 C1654 0.960 . S
H1667 C1654 0.962 . S
H1668 C1654 0.960 . S
H1669 C1655 0.961 . S
H1670 C1655 0.961 . S
H1671 C1655 0.961 . S
H1672 C1656 0.931 . S
H1673 C1661 0.930 . S
H1674 C1662 0.956 . S
H1675 C1662 0.961 . S
H1676 C1662 0.961 . S
H1677 C1663 0.958 . S
H1678 C1663 0.961 . S
H1679 C1663 0.960 . S
C1680 C1681 1.391 . S
C1680 C1682 1.394 . S
C1680 H1696 0.931 . S
C1681 C1680 1.391 . S
C1681 C1685 1.376 . S
C1682 C1680 1.394 . S
C1682 C1683 1.369 . S
C1682 C1686 1.531 . S
C1683 C1682 1.369 . S
C1683 C1684 1.410 . S
C1683 C1691 1.503 . S
C1684 C1683 1.410 . S
C1684 C1685 1.392 . S
C1684 C1687 1.511 1_565 S
C1685 C1681 1.376 . S
C1685 C1684 1.392 . S
C1685 H1697 0.929 . S
C1686 C1682 1.531 . S
C1686 H1698 0.960 . S
C1686 H1699 0.962 . S
C1686 H1700 0.960 . S
C1687 C1684 1.511 1_545 S
C1687 H1701 0.961 . S
C1687 H1702 0.962 . S
C1687 H1703 0.961 . S
C1688 C1689 1.370 . S
C1688 C1690 1.363 . S
C1688 H1704 0.931 . S
C1689 C1688 1.370 . S
C1689 C1693 1.408 . S
C1690 C1688 1.363 . S
C1690 C1691 1.370 . S
C1690 C1694 1.524 . S
C1691 C1683 1.503 . S
C1691 C1690 1.370 . S
C1691 C1692 1.403 . S
C1692 C1691 1.403 . S
C1692 C1693 1.404 . S
C1692 C1695 1.539 . S
C1693 C1689 1.408 . S
C1693 C1692 1.404 . S
C1693 H1705 0.930 . S
C1694 C1690 1.524 . S
C1694 H1706 0.956 . S
C1694 H1707 0.961 . S
C1694 H1708 0.961 . S
C1695 C1692 1.539 . S
C1695 H1709 0.958 . S
C1695 H1710 0.961 . S
C1695 H1711 0.960 . S
H1696 C1680 0.931 . S
H1697 C1685 0.929 . S
H1698 C1686 0.960 . S
H1699 C1686 0.962 . S
H1700 C1686 0.960 . S
H1701 C1687 0.961 . S
H1702 C1687 0.962 . S
H1703 C1687 0.961 . S
H1704 C1688 0.931 . S
H1705 C1693 0.930 . S
H1706 C1694 0.956 . S
H1707 C1694 0.961 . S
H1708 C1694 0.961 . S
H1709 C1695 0.958 . S
H1710 C1695 0.961 . S
H1711 C1695 0.960 . S
C1712 C1713 1.391 . S
C1712 C1714 1.394 . S
C1712 H1728 0.931 . S
C1713 C1712 1.391 . S
C1713 C1717 1.376 . S
C1714 C1712 1.394 . S
C1714 C1715 1.369 . S
C1714 C1718 1.531 . S
C1715 C1714 1.369 . S
C1715 C1716 1.410 . S
C1715 C1723 1.503 . S
C1716 C1715 1.410 . S
C1716 C1717 1.392 . S
C1716 C1719 1.511 . S
C1717 C1713 1.376 . S
C1717 C1716 1.392 . S
C1717 H1729 0.929 . S
C1718 C1714 1.531 . S
C1718 H1730 0.960 . S
C1718 H1731 0.962 1_455 S
C1718 H1732 0.960 1_455 S
C1719 C1716 1.511 . S
C1719 H1733 0.961 . S
C1719 H1734 0.961 . S
C1719 H1735 0.961 . S
C1720 C1721 1.370 . S
C1720 C1722 1.363 . S
C1720 H1736 0.931 . S
C1721 C1720 1.370 . S
C1721 C1725 1.408 . S
C1722 C1720 1.363 . S
C1722 C1723 1.370 . S
C1722 C1726 1.524 . S
C1723 C1715 1.503 . S
C1723 C1722 1.370 . S
C1723 C1724 1.403 . S
C1724 C1723 1.403 . S
C1724 C1725 1.404 . S
C1724 C1727 1.539 . S
C1725 C1721 1.408 . S
C1725 C1724 1.404 . S
C1725 H1737 0.930 . S
C1726 C1722 1.524 . S
C1726 H1738 0.956 . S
C1726 H1739 0.961 . S
C1726 H1740 0.961 . S
C1727 C1724 1.539 . S
C1727 H1741 0.958 . S
C1727 H1742 0.961 . S
C1727 H1743 0.960 . S
H1728 C1712 0.931 . S
H1729 C1717 0.929 . S
H1730 C1718 0.960 . S
H1731 C1718 0.962 1_655 S
H1732 C1718 0.960 1_655 S
H1733 C1719 0.961 . S
H1734 C1719 0.961 . S
H1735 C1719 0.961 . S
H1736 C1720 0.931 . S
H1737 C1725 0.930 . S
H1738 C1726 0.956 . S
H1739 C1726 0.961 . S
H1740 C1726 0.961 . S
H1741 C1727 0.958 . S
H1742 C1727 0.961 . S
H1743 C1727 0.960 . S
C1744 C1745 1.391 . S
C1744 C1746 1.394 . S
C1744 H1760 0.931 . S
C1745 C1744 1.391 . S
C1745 C1749 1.376 . S
C1746 C1744 1.394 . S
C1746 C1747 1.369 . S
C1746 C1750 1.531 . S
C1747 C1746 1.369 . S
C1747 C1748 1.410 . S
C1747 C1755 1.503 . S
C1748 C1747 1.410 . S
C1748 C1749 1.392 . S
C1748 C1751 1.511 . S
C1749 C1745 1.376 . S
C1749 C1748 1.392 . S
C1749 H1761 0.929 . S
C1750 C1746 1.531 . S
C1750 H1762 0.960 . S
C1750 H1763 0.962 . S
C1750 H1764 0.960 . S
C1751 C1748 1.511 . S
C1751 H1765 0.961 . S
C1751 H1766 0.961 . S
C1751 H1767 0.961 . S
C1752 C1753 1.370 . S
C1752 C1754 1.363 . S
C1752 H1768 0.931 . S
C1753 C1752 1.370 . S
C1753 C1757 1.408 . S
C1754 C1752 1.363 . S
C1754 C1755 1.370 . S
C1754 C1758 1.524 . S
C1755 C1747 1.503 . S
C1755 C1754 1.370 . S
C1755 C1756 1.403 . S
C1756 C1755 1.403 . S
C1756 C1757 1.404 . S
C1756 C1759 1.539 . S
C1757 C1753 1.408 . S
C1757 C1756 1.404 . S
C1757 H1769 0.930 . S
C1758 C1754 1.524 . S
C1758 H1770 0.956 . S
C1758 H1771 0.961 . S
C1758 H1772 0.961 . S
C1759 C1756 1.539 . S
C1759 H1773 0.958 . S
C1759 H1774 0.961 . S
C1759 H1775 0.960 . S
H1760 C1744 0.931 . S
H1761 C1749 0.929 . S
H1762 C1750 0.960 . S
H1763 C1750 0.962 . S
H1764 C1750 0.960 . S
H1765 C1751 0.961 . S
H1766 C1751 0.961 . S
H1767 C1751 0.961 . S
H1768 C1752 0.931 . S
H1769 C1757 0.930 . S
H1770 C1758 0.956 . S
H1771 C1758 0.961 . S
H1772 C1758 0.961 . S
H1773 C1759 0.958 . S
H1774 C1759 0.961 . S
H1775 C1759 0.960 . S
C1776 C1777 1.391 . S
C1776 C1778 1.394 . S
C1776 H1792 0.931 . S
C1777 C1776 1.391 . S
C1777 C1781 1.376 . S
C1778 C1776 1.394 . S
C1778 C1779 1.369 . S
C1778 C1782 1.531 . S
C1779 C1778 1.369 . S
C1779 C1780 1.410 . S
C1779 C1787 1.503 . S
C1780 C1779 1.410 . S
C1780 C1781 1.392 . S
C1780 C1783 1.511 . S
C1781 C1777 1.376 . S
C1781 C1780 1.392 . S
C1781 H1793 0.929 . S
C1782 C1778 1.531 . S
C1782 H1794 0.960 . S
C1782 H1795 0.962 . S
C1782 H1796 0.960 . S
C1783 C1780 1.511 . S
C1783 H1797 0.961 . S
C1783 H1798 0.961 . S
C1783 H1799 0.961 . S
C1784 C1785 1.370 . S
C1784 C1786 1.363 . S
C1784 H1800 0.931 . S
C1785 C1784 1.370 . S
C1785 C1789 1.408 . S
C1786 C1784 1.363 . S
C1786 C1787 1.370 . S
C1786 C1790 1.524 . S
C1787 C1779 1.503 . S
C1787 C1786 1.370 . S
C1787 C1788 1.403 . S
C1788 C1787 1.403 . S
C1788 C1789 1.404 . S
C1788 C1791 1.539 . S
C1789 C1785 1.408 . S
C1789 C1788 1.404 . S
C1789 H1801 0.930 . S
C1790 C1786 1.524 . S
C1790 H1802 0.956 . S
C1790 H1803 0.961 . S
C1790 H1804 0.961 . S
C1791 C1788 1.539 . S
C1791 H1805 0.958 . S
C1791 H1806 0.961 . S
C1791 H1807 0.960 . S
H1792 C1776 0.931 . S
H1793 C1781 0.929 . S
H1794 C1782 0.960 . S
H1795 C1782 0.962 . S
H1796 C1782 0.960 . S
H1797 C1783 0.961 . S
H1798 C1783 0.961 . S
H1799 C1783 0.961 . S
H1800 C1784 0.931 . S
H1801 C1789 0.930 . S
H1802 C1790 0.956 . S
H1803 C1790 0.961 . S
H1804 C1790 0.961 . S
H1805 C1791 0.958 . S
H1806 C1791 0.961 . S
H1807 C1791 0.960 . S
C1808 C1809 1.391 . S
C1808 C1810 1.394 . S
C1808 H1824 0.931 . S
C1809 C1808 1.391 . S
C1809 C1813 1.376 . S
C1810 C1808 1.394 . S
C1810 C1811 1.369 . S
C1810 C1814 1.531 . S
C1811 C1810 1.369 . S
C1811 C1812 1.410 . S
C1811 C1819 1.503 . S
C1812 C1811 1.410 . S
C1812 C1813 1.392 . S
C1812 C1815 1.511 . S
C1813 C1809 1.376 . S
C1813 C1812 1.392 . S
C1813 H1825 0.929 . S
C1814 C1810 1.531 . S
C1814 H1826 0.960 . S
C1814 H1827 0.962 . S
C1814 H1828 0.960 . S
C1815 C1812 1.511 . S
C1815 H1829 0.961 . S
C1815 H1830 0.961 . S
C1815 H1831 0.961 . S
C1816 C1817 1.370 . S
C1816 C1818 1.363 . S
C1816 H1832 0.931 . S
C1817 C1816 1.370 . S
C1817 C1821 1.408 . S
C1818 C1816 1.363 . S
C1818 C1819 1.370 . S
C1818 C1822 1.524 . S
C1819 C1811 1.503 . S
C1819 C1818 1.370 . S
C1819 C1820 1.403 . S
C1820 C1819 1.403 . S
C1820 C1821 1.404 . S
C1820 C1823 1.539 . S
C1821 C1817 1.408 . S
C1821 C1820 1.404 . S
C1821 H1833 0.930 . S
C1822 C1818 1.524 . S
C1822 H1834 0.956 . S
C1822 H1835 0.961 . S
C1822 H1836 0.961 . S
C1823 C1820 1.539 . S
C1823 H1837 0.958 . S
C1823 H1838 0.961 . S
C1823 H1839 0.960 . S
H1824 C1808 0.931 . S
H1825 C1813 0.929 . S
H1826 C1814 0.960 . S
H1827 C1814 0.962 . S
H1828 C1814 0.960 . S
H1829 C1815 0.961 . S
H1830 C1815 0.961 . S
H1831 C1815 0.961 . S
H1832 C1816 0.931 . S
H1833 C1821 0.930 . S
H1834 C1822 0.956 . S
H1835 C1822 0.961 . S
H1836 C1822 0.961 . S
H1837 C1823 0.958 . S
H1838 C1823 0.961 . S
H1839 C1823 0.960 . S
C1840 C1841 1.391 . S
C1840 C1842 1.394 . S
C1840 H1856 0.931 . S
C1841 C1840 1.391 . S
C1841 C1845 1.376 . S
C1842 C1840 1.394 . S
C1842 C1843 1.369 . S
C1842 C1846 1.531 . S
C1843 C1842 1.369 . S
C1843 C1844 1.410 . S
C1843 C1851 1.503 1_554 S
C1844 C1843 1.410 . S
C1844 C1845 1.392 . S
C1844 C1847 1.511 . S
C1845 C1841 1.376 . S
C1845 C1844 1.392 . S
C1845 H1857 0.929 . S
C1846 C1842 1.531 . S
C1846 H1858 0.960 1_554 S
C1846 H1859 0.962 . S
C1846 H1860 0.960 . S
C1847 C1844 1.511 . S
C1847 H1861 0.961 . S
C1847 H1862 0.961 1_554 S
C1847 H1863 0.961 . S
C1848 C1849 1.370 . S
C1848 C1850 1.363 . S
C1848 H1864 0.931 . S
C1849 C1848 1.370 . S
C1849 C1853 1.408 . S
C1850 C1848 1.363 . S
C1850 C1851 1.370 . S
C1850 C1854 1.524 1_556 S
C1851 C1843 1.503 1_556 S
C1851 C1850 1.370 . S
C1851 C1852 1.403 . S
C1852 C1851 1.403 . S
C1852 C1853 1.404 . S
C1852 C1855 1.539 . S
C1853 C1849 1.408 . S
C1853 C1852 1.404 . S
C1853 H1865 0.930 . S
C1854 C1850 1.524 1_554 S
C1854 H1866 0.956 . S
C1854 H1867 0.961 . S
C1854 H1868 0.961 1_554 S
C1855 C1852 1.539 . S
C1855 H1869 0.958 . S
C1855 H1870 0.961 . S
C1855 H1871 0.960 . S
H1856 C1840 0.931 . S
H1857 C1845 0.929 . S
H1858 C1846 0.960 1_556 S
H1859 C1846 0.962 . S
H1860 C1846 0.960 . S
H1861 C1847 0.961 . S
H1862 C1847 0.961 1_556 S
H1863 C1847 0.961 . S
H1864 C1848 0.931 . S
H1865 C1853 0.930 . S
H1866 C1854 0.956 . S
H1867 C1854 0.961 . S
H1868 C1854 0.961 1_556 S
H1869 C1855 0.958 . S
H1870 C1855 0.961 . S
H1871 C1855 0.960 . S
C1872 C1873 1.391 . S
C1872 C1874 1.394 . S
C1872 H1888 0.931 . S
C1873 C1872 1.391 . S
C1873 C1877 1.376 . S
C1874 C1872 1.394 . S
C1874 C1875 1.369 . S
C1874 C1878 1.531 . S
C1875 C1874 1.369 . S
C1875 C1876 1.410 . S
C1875 C1883 1.503 . S
C1876 C1875 1.410 . S
C1876 C1877 1.392 . S
C1876 C1879 1.511 . S
C1877 C1873 1.376 . S
C1877 C1876 1.392 . S
C1877 H1889 0.929 . S
C1878 C1874 1.531 . S
C1878 H1890 0.960 . S
C1878 H1891 0.962 . S
C1878 H1892 0.960 . S
C1879 C1876 1.511 . S
C1879 H1893 0.961 . S
C1879 H1894 0.961 . S
C1879 H1895 0.961 . S
C1880 C1881 1.370 . S
C1880 C1882 1.363 . S
C1880 H1896 0.931 . S
C1881 C1880 1.370 . S
C1881 C1885 1.408 . S
C1882 C1880 1.363 . S
C1882 C1883 1.370 . S
C1882 C1886 1.524 . S
C1883 C1875 1.503 . S
C1883 C1882 1.370 . S
C1883 C1884 1.403 . S
C1884 C1883 1.403 . S
C1884 C1885 1.404 . S
C1884 C1887 1.539 . S
C1885 C1881 1.408 . S
C1885 C1884 1.404 . S
C1885 H1897 0.930 . S
C1886 C1882 1.524 . S
C1886 H1898 0.956 . S
C1886 H1899 0.961 . S
C1886 H1900 0.961 . S
C1887 C1884 1.539 . S
C1887 H1901 0.958 . S
C1887 H1902 0.961 . S
C1887 H1903 0.960 . S
H1888 C1872 0.931 . S
H1889 C1877 0.929 . S
H1890 C1878 0.960 . S
H1891 C1878 0.962 . S
H1892 C1878 0.960 . S
H1893 C1879 0.961 . S
H1894 C1879 0.961 . S
H1895 C1879 0.961 . S
H1896 C1880 0.931 . S
H1897 C1885 0.930 . S
H1898 C1886 0.956 . S
H1899 C1886 0.961 . S
H1900 C1886 0.961 . S
H1901 C1887 0.958 . S
H1902 C1887 0.961 . S
H1903 C1887 0.960 . S
C1904 C1905 1.391 . S
C1904 C1906 1.394 . S
C1904 H1920 0.931 . S
C1905 C1904 1.391 . S
C1905 C1909 1.376 . S
C1906 C1904 1.394 . S
C1906 C1907 1.369 . S
C1906 C1910 1.531 . S
C1907 C1906 1.369 . S
C1907 C1908 1.410 . S
C1907 C1915 1.503 1_554 S
C1908 C1907 1.410 . S
C1908 C1909 1.392 . S
C1908 C1911 1.511 . S
C1909 C1905 1.376 . S
C1909 C1908 1.392 . S
C1909 H1921 0.929 . S
C1910 C1906 1.531 . S
C1910 H1922 0.960 1_554 S
C1910 H1923 0.962 1_554 S
C1910 H1924 0.960 . S
C1911 C1908 1.511 . S
C1911 H1925 0.961 . S
C1911 H1926 0.961 . S
C1911 H1927 0.961 . S
C1912 C1913 1.370 . S
C1912 C1914 1.363 . S
C1912 H1928 0.931 . S
C1913 C1912 1.370 . S
C1913 C1917 1.408 . S
C1914 C1912 1.363 . S
C1914 C1915 1.370 . S
C1914 C1918 1.524 . S
C1915 C1907 1.503 1_556 S
C1915 C1914 1.370 . S
C1915 C1916 1.403 . S
C1916 C1915 1.403 . S
C1916 C1917 1.404 . S
C1916 C1919 1.539 . S
C1917 C1913 1.408 . S
C1917 C1916 1.404 . S
C1917 H1929 0.930 . S
C1918 C1914 1.524 . S
C1918 H1930 0.956 . S
C1918 H1931 0.961 . S
C1918 H1932 0.961 . S
C1919 C1916 1.539 . S
C1919 H1933 0.958 . S
C1919 H1934 0.961 . S
C1919 H1935 0.960 1_556 S
H1920 C1904 0.931 . S
H1921 C1909 0.929 . S
H1922 C1910 0.960 1_556 S
H1923 C1910 0.962 1_556 S
H1924 C1910 0.960 . S
H1925 C1911 0.961 . S
H1926 C1911 0.961 . S
H1927 C1911 0.961 . S
H1928 C1912 0.931 . S
H1929 C1917 0.930 . S
H1930 C1918 0.956 . S
H1931 C1918 0.961 . S
H1932 C1918 0.961 . S
H1933 C1919 0.958 . S
H1934 C1919 0.961 . S
H1935 C1919 0.960 1_554 S
C1936 C1937 1.391 . S
C1936 C1938 1.394 . S
C1936 H1952 0.931 . S
C1937 C1936 1.391 . S
C1937 C1941 1.376 . S
C1938 C1936 1.394 . S
C1938 C1939 1.369 . S
C1938 C1942 1.531 . S
C1939 C1938 1.369 . S
C1939 C1940 1.410 . S
C1939 C1947 1.503 . S
C1940 C1939 1.410 . S
C1940 C1941 1.392 . S
C1940 C1943 1.511 . S
C1941 C1937 1.376 . S
C1941 C1940 1.392 . S
C1941 H1953 0.929 . S
C1942 C1938 1.531 . S
C1942 H1954 0.960 . S
C1942 H1955 0.962 . S
C1942 H1956 0.960 . S
C1943 C1940 1.511 . S
C1943 H1957 0.961 . S
C1943 H1958 0.961 . S
C1943 H1959 0.961 . S
C1944 C1945 1.370 . S
C1944 C1946 1.363 . S
C1944 H1960 0.931 . S
C1945 C1944 1.370 . S
C1945 C1949 1.408 . S
C1946 C1944 1.363 . S
C1946 C1947 1.370 . S
C1946 C1950 1.524 . S
C1947 C1939 1.503 . S
C1947 C1946 1.370 . S
C1947 C1948 1.403 . S
C1948 C1947 1.403 . S
C1948 C1949 1.404 . S
C1948 C1951 1.539 . S
C1949 C1945 1.408 . S
C1949 C1948 1.404 . S
C1949 H1961 0.930 . S
C1950 C1946 1.524 . S
C1950 H1962 0.956 . S
C1950 H1963 0.961 . S
C1950 H1964 0.961 . S
C1951 C1948 1.539 . S
C1951 H1965 0.958 . S
C1951 H1966 0.961 . S
C1951 H1967 0.960 . S
H1952 C1936 0.931 . S
H1953 C1941 0.929 . S
H1954 C1942 0.960 . S
H1955 C1942 0.962 . S
H1956 C1942 0.960 . S
H1957 C1943 0.961 . S
H1958 C1943 0.961 . S
H1959 C1943 0.961 . S
H1960 C1944 0.931 . S
H1961 C1949 0.930 . S
H1962 C1950 0.956 . S
H1963 C1950 0.961 . S
H1964 C1950 0.961 . S
H1965 C1951 0.958 . S
H1966 C1951 0.961 . S
H1967 C1951 0.960 . S
C1968 C1969 1.391 . S
C1968 C1970 1.394 . S
C1968 H1984 0.931 . S
C1969 C1968 1.391 . S
C1969 C1973 1.376 . S
C1970 C1968 1.394 . S
C1970 C1971 1.369 . S
C1970 C1974 1.531 . S
C1971 C1970 1.369 . S
C1971 C1972 1.410 . S
C1971 C1979 1.503 . S
C1972 C1971 1.410 . S
C1972 C1973 1.392 . S
C1972 C1975 1.511 . S
C1973 C1969 1.376 . S
C1973 C1972 1.392 . S
C1973 H1985 0.929 . S
C1974 C1970 1.531 . S
C1974 H1986 0.960 . S
C1974 H1987 0.962 . S
C1974 H1988 0.960 . S
C1975 C1972 1.511 . S
C1975 H1989 0.961 . S
C1975 H1990 0.961 . S
C1975 H1991 0.961 . S
C1976 C1977 1.370 . S
C1976 C1978 1.363 . S
C1976 H1992 0.931 . S
C1977 C1976 1.370 . S
C1977 C1981 1.408 . S
C1978 C1976 1.363 . S
C1978 C1979 1.370 . S
C1978 C1982 1.524 . S
C1979 C1971 1.503 . S
C1979 C1978 1.370 . S
C1979 C1980 1.403 . S
C1980 C1979 1.403 . S
C1980 C1981 1.404 . S
C1980 C1983 1.539 . S
C1981 C1977 1.408 . S
C1981 C1980 1.404 . S
C1981 H1993 0.930 . S
C1982 C1978 1.524 . S
C1982 H1994 0.956 . S
C1982 H1995 0.961 . S
C1982 H1996 0.961 . S
C1983 C1980 1.539 . S
C1983 H1997 0.958 . S
C1983 H1998 0.961 . S
C1983 H1999 0.960 . S
H1984 C1968 0.931 . S
H1985 C1973 0.929 . S
H1986 C1974 0.960 . S
H1987 C1974 0.962 . S
H1988 C1974 0.960 . S
H1989 C1975 0.961 . S
H1990 C1975 0.961 . S
H1991 C1975 0.961 . S
H1992 C1976 0.931 . S
H1993 C1981 0.930 . S
H1994 C1982 0.956 . S
H1995 C1982 0.961 . S
H1996 C1982 0.961 . S
H1997 C1983 0.958 . S
H1998 C1983 0.961 . S
H1999 C1983 0.960 . S
C2000 C2001 1.391 . S
C2000 C2002 1.394 . S
C2000 H2016 0.931 . S
C2001 C2000 1.391 . S
C2001 C2005 1.376 1_545 S
C2002 C2000 1.394 . S
C2002 C2003 1.336 1_545 S
C2002 C2006 1.531 . S
C2003 C2002 1.336 1_565 S
C2003 C2004 1.437 . S
C2003 C2011 1.509 . S
C2004 C2003 1.437 . S
C2004 C2005 1.392 . S
C2004 C2007 1.511 . S
C2005 C2001 1.376 1_565 S
C2005 C2004 1.392 . S
C2005 H2017 0.929 . S
C2006 C2002 1.531 . S
C2006 H2018 0.960 . S
C2006 H2019 0.962 . S
C2006 H2020 0.960 . S
C2007 C2004 1.511 . S
C2007 H2021 0.961 . S
C2007 H2022 0.961 . S
C2007 H2023 0.961 . S
C2008 C2009 1.370 1_545 S
C2008 C2010 1.363 . S
C2008 H2024 0.931 . S
C2009 C2008 1.370 1_565 S
C2009 C2013 1.408 . S
C2010 C2008 1.363 . S
C2010 C2011 1.370 1_545 S
C2010 C2014 1.524 . S
C2011 C2003 1.509 . S
C2011 C2010 1.370 1_565 S
C2011 C2012 1.403 . S
C2012 C2011 1.403 . S
C2012 C2013 1.404 . S
C2012 C2015 1.539 . S
C2013 C2009 1.408 . S
C2013 C2012 1.404 . S
C2013 H2025 0.930 . S
C2014 C2010 1.524 . S
C2014 H2026 0.956 . S
C2014 H2027 0.961 . S
C2014 H2028 0.961 . S
C2015 C2012 1.539 . S
C2015 H2029 0.958 . S
C2015 H2030 0.961 . S
C2015 H2031 0.960 . S
H2016 C2000 0.931 . S
H2017 C2005 0.929 . S
H2018 C2006 0.960 . S
H2019 C2006 0.962 . S
H2020 C2006 0.960 . S
H2021 C2007 0.961 . S
H2022 C2007 0.961 . S
H2023 C2007 0.961 . S
H2024 C2008 0.931 . S
H2025 C2013 0.930 . S
H2026 C2014 0.956 . S
H2027 C2014 0.961 . S
H2028 C2014 0.961 . S
H2029 C2015 0.958 . S
H2030 C2015 0.961 . S
H2031 C2015 0.960 . S
C2032 C2033 1.391 1_455 S
C2032 C2034 1.394 . S
C2032 H2048 0.931 . S
C2033 C2032 1.391 1_655 S
C2033 C2037 1.376 . S
C2034 C2032 1.394 . S
C2034 C2035 1.369 1_455 S
C2034 C2038 1.531 . S
C2035 C2034 1.369 1_655 S
C2035 C2036 1.410 . S
C2035 C2043 1.503 1_645 S
C2036 C2035 1.410 . S
C2036 C2037 1.392 . S
C2036 C2039 1.511 . S
C2037 C2033 1.376 . S
C2037 C2036 1.392 . S
C2037 H2049 0.929 . S
C2038 C2034 1.531 . S
C2038 H2050 0.960 . S
C2038 H2051 0.962 . S
C2038 H2052 0.960 . S
C2039 C2036 1.511 . S
C2039 H2053 0.961 . S
C2039 H2054 0.961 1_545 S
C2039 H2055 0.961 . S
C2040 C2041 1.370 . S
C2040 C2042 1.363 . S
C2040 H2056 0.931 . S
C2041 C2040 1.370 . S
C2041 C2045 1.408 . S
C2042 C2040 1.363 . S
C2042 C2043 1.370 . S
C2042 C2046 1.524 1_455 S
C2043 C2035 1.503 1_465 S
C2043 C2042 1.370 . S
C2043 C2044 1.403 . S
C2044 C2043 1.403 . S
C2044 C2045 1.404 . S
C2044 C2047 1.539 . S
C2045 C2041 1.408 . S
C2045 C2044 1.404 . S
C2045 H2057 0.930 . S
C2046 C2042 1.524 1_655 S
C2046 H2058 0.942 1_665 S
C2046 H2059 0.961 . S
C2046 H2060 0.961 . S
C2047 C2044 1.539 . S
C2047 H2061 0.958 . S
C2047 H2062 0.961 1_455 S
C2047 H2063 0.960 1_455 S
H2048 C2032 0.931 . S
H2049 C2037 0.929 . S
H2050 C2038 0.960 . S
H2051 C2038 0.962 . S
H2052 C2038 0.960 . S
H2053 C2039 0.961 . S
H2054 C2039 0.961 1_565 S
H2055 C2039 0.961 . S
H2056 C2040 0.931 . S
H2057 C2045 0.930 . S
H2058 C2046 0.942 1_445 S
H2059 C2046 0.961 . S
H2060 C2046 0.961 . S
H2061 C2047 0.958 . S
H2062 C2047 0.961 1_655 S
H2063 C2047 0.960 1_655 S
C2064 C2065 1.391 . S
C2064 C2066 1.394 . S
C2064 H2080 0.931 . S
C2065 C2064 1.391 . S
C2065 C2069 1.376 . S
C2066 C2064 1.394 . S
C2066 C2067 1.369 . S
C2066 C2070 1.531 . S
C2067 C2066 1.369 . S
C2067 C2068 1.410 . S
C2067 C2075 1.503 1_455 S
C2068 C2067 1.410 . S
C2068 C2069 1.392 . S
C2068 C2071 1.511 . S
C2069 C2065 1.376 . S
C2069 C2068 1.392 . S
C2069 H2081 0.929 . S
C2070 C2066 1.531 . S
C2070 H2082 0.960 1_455 S
C2070 H2083 0.962 . S
C2070 H2084 0.960 . S
C2071 C2068 1.511 . S
C2071 H2085 0.961 . S
C2071 H2086 0.929 1_455 S
C2071 H2087 0.961 . S
C2072 C2073 1.370 . S
C2072 C2074 1.363 . S
C2072 H2088 0.931 . S
C2073 C2072 1.370 . S
C2073 C2077 1.408 . S
C2074 C2072 1.363 . S
C2074 C2075 1.370 . S
C2074 C2078 1.524 . S
C2075 C2067 1.503 1_655 S
C2075 C2074 1.370 . S
C2075 C2076 1.403 . S
C2076 C2075 1.403 . S
C2076 C2077 1.404 . S
C2076 C2079 1.539 . S
C2077 C2073 1.408 . S
C2077 C2076 1.404 . S
C2077 H2089 0.930 . S
C2078 C2074 1.524 . S
C2078 H2090 0.956 1_655 S
C2078 H2091 0.961 1_655 S
C2078 H2092 0.961 . S
C2079 C2076 1.539 . S
C2079 H2093 0.958 . S
C2079 H2094 0.961 . S
C2079 H2095 0.960 . S
H2080 C2064 0.931 . S
H2081 C2069 0.929 . S
H2082 C2070 0.960 1_655 S
H2083 C2070 0.962 . S
H2084 C2070 0.960 . S
H2085 C2071 0.961 . S
H2086 C2071 0.929 1_655 S
H2087 C2071 0.961 . S
H2088 C2072 0.931 . S
H2089 C2077 0.930 . S
H2090 C2078 0.956 1_455 S
H2091 C2078 0.961 1_455 S
H2092 C2078 0.961 . S
H2093 C2079 0.958 . S
H2094 C2079 0.961 . S
H2095 C2079 0.960 . S
C2096 C2097 1.391 . S
C2096 C2098 1.394 . S
C2096 H2112 0.931 . S
C2097 C2096 1.391 . S
C2097 C2101 1.376 . S
C2098 C2096 1.394 . S
C2098 C2099 1.369 . S
C2098 C2102 1.531 . S
C2099 C2098 1.369 . S
C2099 C2100 1.410 . S
C2099 C2107 1.503 . S
C2100 C2099 1.410 . S
C2100 C2101 1.392 . S
C2100 C2103 1.511 . S
C2101 C2097 1.376 . S
C2101 C2100 1.392 . S
C2101 H2113 0.929 . S
C2102 C2098 1.531 . S
C2102 H2114 0.960 . S
C2102 H2115 0.962 . S
C2102 H2116 0.960 . S
C2103 C2100 1.511 . S
C2103 H2117 0.961 . S
C2103 H2118 0.961 . S
C2103 H2119 0.961 . S
C2104 C2105 1.370 . S
C2104 C2106 1.363 . S
C2104 H2120 0.931 . S
C2105 C2104 1.370 . S
C2105 C2109 1.408 . S
C2106 C2104 1.363 . S
C2106 C2107 1.370 . S
C2106 C2110 1.524 . S
C2107 C2099 1.503 . S
C2107 C2106 1.370 . S
C2107 C2108 1.403 . S
C2108 C2107 1.403 . S
C2108 C2109 1.404 . S
C2108 C2111 1.539 . S
C2109 C2105 1.408 . S
C2109 C2108 1.404 . S
C2109 H2121 0.930 . S
C2110 C2106 1.524 . S
C2110 H2122 0.956 . S
C2110 H2123 0.961 . S
C2110 H2124 0.961 . S
C2111 C2108 1.539 . S
C2111 H2125 0.958 . S
C2111 H2126 0.961 . S
C2111 H2127 0.960 . S
H2112 C2096 0.931 . S
H2113 C2101 0.929 . S
H2114 C2102 0.960 . S
H2115 C2102 0.962 . S
H2116 C2102 0.960 . S
H2117 C2103 0.961 . S
H2118 C2103 0.961 . S
H2119 C2103 0.961 . S
H2120 C2104 0.931 . S
H2121 C2109 0.930 . S
H2122 C2110 0.956 . S
H2123 C2110 0.961 . S
H2124 C2110 0.961 . S
H2125 C2111 0.958 . S
H2126 C2111 0.961 . S
H2127 C2111 0.960 . S
C2128 C2129 1.391 . S
C2128 C2130 1.394 . S
C2128 H2144 0.931 . S
C2129 C2128 1.391 . S
C2129 C2133 1.376 . S
C2130 C2128 1.394 . S
C2130 C2131 1.369 . S
C2130 C2134 1.531 . S
C2131 C2130 1.369 . S
C2131 C2132 1.410 . S
C2131 C2139 1.503 . S
C2132 C2131 1.410 . S
C2132 C2133 1.392 . S
C2132 C2135 1.511 . S
C2133 C2129 1.376 . S
C2133 C2132 1.392 . S
C2133 H2145 0.929 . S
C2134 C2130 1.531 . S
C2134 H2146 0.960 . S
C2134 H2147 0.962 . S
C2134 H2148 0.960 . S
C2135 C2132 1.511 . S
C2135 H2149 0.961 . S
C2135 H2150 0.961 . S
C2135 H2151 0.961 . S
C2136 C2137 1.370 . S
C2136 C2138 1.363 . S
C2136 H2152 0.931 . S
C2137 C2136 1.370 . S
C2137 C2141 1.408 . S
C2138 C2136 1.363 . S
C2138 C2139 1.370 . S
C2138 C2142 1.524 . S
C2139 C2131 1.503 . S
C2139 C2138 1.370 . S
C2139 C2140 1.403 . S
C2140 C2139 1.403 . S
C2140 C2141 1.404 . S
C2140 C2143 1.539 . S
C2141 C2137 1.408 . S
C2141 C2140 1.404 . S
C2141 H2153 0.930 . S
C2142 C2138 1.524 . S
C2142 H2154 0.956 . S
C2142 H2155 0.961 . S
C2142 H2156 0.961 . S
C2143 C2140 1.539 . S
C2143 H2157 0.958 . S
C2143 H2158 0.961 . S
C2143 H2159 0.960 . S
H2144 C2128 0.931 . S
H2145 C2133 0.929 . S
H2146 C2134 0.960 . S
H2147 C2134 0.962 . S
H2148 C2134 0.960 . S
H2149 C2135 0.961 . S
H2150 C2135 0.961 . S
H2151 C2135 0.961 . S
H2152 C2136 0.931 . S
H2153 C2141 0.930 . S
H2154 C2142 0.956 . S
H2155 C2142 0.961 . S
H2156 C2142 0.961 . S
H2157 C2143 0.958 . S
H2158 C2143 0.961 . S
H2159 C2143 0.960 . S
C2160 C2161 1.391 . S
C2160 C2162 1.394 . S
C2160 H2176 0.931 . S
C2161 C2160 1.391 . S
C2161 C2165 1.376 . S
C2162 C2160 1.394 . S
C2162 C2163 1.369 . S
C2162 C2166 1.531 . S
C2163 C2162 1.369 . S
C2163 C2164 1.410 . S
C2163 C2171 1.503 1_545 S
C2164 C2163 1.410 . S
C2164 C2165 1.392 . S
C2164 C2167 1.511 . S
C2165 C2161 1.376 . S
C2165 C2164 1.392 . S
C2165 H2177 0.929 . S
C2166 C2162 1.531 . S
C2166 H2178 0.960 1_545 S
C2166 H2179 0.962 . S
C2166 H2180 0.960 . S
C2167 C2164 1.511 . S
C2167 H2181 0.961 . S
C2167 H2182 0.981 . S
C2167 H2183 0.961 . S
C2168 C2169 1.370 . S
C2168 C2170 1.363 . S
C2168 H2184 0.931 . S
C2169 C2168 1.370 . S
C2169 C2173 1.408 . S
C2170 C2168 1.363 . S
C2170 C2171 1.370 . S
C2170 C2174 1.524 . S
C2171 C2163 1.503 1_565 S
C2171 C2170 1.370 . S
C2171 C2172 1.403 . S
C2172 C2171 1.403 . S
C2172 C2173 1.404 . S
C2172 C2175 1.539 . S
C2173 C2169 1.408 . S
C2173 C2172 1.404 . S
C2173 H2185 0.930 . S
C2174 C2170 1.524 . S
C2174 H2186 0.956 . S
C2174 H2187 0.961 . S
C2174 H2188 0.961 . S
C2175 C2172 1.539 . S
C2175 H2189 0.958 . S
C2175 H2190 0.961 . S
C2175 H2191 0.960 1_565 S
H2176 C2160 0.931 . S
H2177 C2165 0.929 . S
H2178 C2166 0.960 1_565 S
H2179 C2166 0.962 . S
H2180 C2166 0.960 . S
H2181 C2167 0.961 . S
H2182 C2167 0.981 . S
H2183 C2167 0.961 . S
H2184 C2168 0.931 . S
H2185 C2173 0.930 . S
H2186 C2174 0.956 . S
H2187 C2174 0.961 . S
H2188 C2174 0.961 . S
H2189 C2175 0.958 . S
H2190 C2175 0.961 . S
H2191 C2175 0.960 1_545 S
C2192 C2193 1.391 . S
C2192 C2194 1.394 . S
C2192 H2208 0.931 . S
C2193 C2192 1.391 . S
C2193 C2197 1.376 1_565 S
C2194 C2192 1.394 . S
C2194 C2195 1.369 . S
C2194 C2198 1.531 . S
C2195 C2194 1.369 . S
C2195 C2196 1.410 1_565 S
C2195 C2203 1.503 1_455 S
C2196 C2195 1.410 1_545 S
C2196 C2197 1.392 . S
C2196 C2199 1.511 . S
C2197 C2193 1.376 1_545 S
C2197 C2196 1.392 . S
C2197 H2209 0.929 . S
C2198 C2194 1.531 . S
C2198 H2210 0.960 1_455 S
C2198 H2211 0.962 . S
C2198 H2212 0.960 . S
C2199 C2196 1.511 . S
C2199 H2213 0.961 . S
C2199 H2214 0.961 . S
C2199 H2215 0.961 . S
C2200 C2201 1.370 . S
C2200 C2202 1.363 . S
C2200 H2216 0.931 . S
C2201 C2200 1.370 . S
C2201 C2205 1.408 1_545 S
C2202 C2200 1.363 . S
C2202 C2203 1.370 1_545 S
C2202 C2206 1.524 . S
C2203 C2195 1.503 1_655 S
C2203 C2202 1.370 1_565 S
C2203 C2204 1.403 . S
C2204 C2203 1.403 . S
C2204 C2205 1.404 . S
C2204 C2207 1.539 . S
C2205 C2201 1.408 1_565 S
C2205 C2204 1.404 . S
C2205 H2217 0.930 . S
C2206 C2202 1.524 . S
C2206 H2218 0.956 1_655 S
C2206 H2219 0.961 1_655 S
C2206 H2220 0.961 . S
C2207 C2204 1.539 . S
C2207 H2221 0.958 . S
C2207 H2222 0.961 . S
C2207 H2223 0.960 . S
H2208 C2192 0.931 . S
H2209 C2197 0.929 . S
H2210 C2198 0.960 1_655 S
H2211 C2198 0.962 . S
H2212 C2198 0.960 . S
H2213 C2199 0.961 . S
H2214 C2199 0.961 . S
H2215 C2199 0.961 . S
H2216 C2200 0.931 . S
H2217 C2205 0.930 . S
H2218 C2206 0.956 1_455 S
H2219 C2206 0.961 1_455 S
H2220 C2206 0.961 . S
H2221 C2207 0.958 . S
H2222 C2207 0.961 . S
H2223 C2207 0.960 . S
C2224 C2225 1.391 . S
C2224 C2226 1.394 . S
C2224 H2240 0.931 . S
C2225 C2224 1.391 . S
C2225 C2229 1.376 1_455 S
C2226 C2224 1.394 . S
C2226 C2227 1.369 . S
C2226 C2230 1.531 . S
C2227 C2226 1.369 . S
C2227 C2228 1.410 1_455 S
C2227 C2235 1.503 1_455 S
C2228 C2227 1.410 1_655 S
C2228 C2229 1.392 . S
C2228 C2231 1.511 . S
C2229 C2225 1.376 1_655 S
C2229 C2228 1.392 . S
C2229 H2241 0.929 . S
C2230 C2226 1.531 . S
C2230 H2242 0.960 . S
C2230 H2243 0.962 . S
C2230 H2244 0.960 . S
C2231 C2228 1.511 . S
C2231 H2245 0.961 . S
C2231 H2246 0.961 . S
C2231 H2247 0.961 . S
C2232 C2233 1.370 . S
C2232 C2234 1.363 . S
C2232 H2248 0.931 . S
C2233 C2232 1.370 . S
C2233 C2237 1.408 . S
C2234 C2232 1.363 . S
C2234 C2235 1.370 . S
C2234 C2238 1.524 . S
C2235 C2227 1.503 1_655 S
C2235 C2234 1.370 . S
C2235 C2236 1.403 . S
C2236 C2235 1.403 . S
C2236 C2237 1.404 . S
C2236 C2239 1.536 1_655 S
C2237 C2233 1.408 . S
C2237 C2236 1.404 . S
C2237 H2249 0.930 . S
C2238 C2234 1.524 . S
C2238 H2250 0.956 1_655 S
C2238 H2251 0.961 . S
C2238 H2252 0.961 . S
C2239 C2236 1.536 1_455 S
C2239 H2253 0.999 . S
C2239 H2254 0.938 1_455 S
C2239 H2255 0.946 1_455 S
H2240 C2224 0.931 . S
H2241 C2229 0.929 . S
H2242 C2230 0.960 . S
H2243 C2230 0.962 . S
H2244 C2230 0.960 . S
H2245 C2231 0.961 . S
H2246 C2231 0.961 . S
H2247 C2231 0.961 . S
H2248 C2232 0.931 . S
H2249 C2237 0.930 . S
H2250 C2238 0.956 1_455 S
H2251 C2238 0.961 . S
H2252 C2238 0.961 . S
H2253 C2239 0.999 . S
H2254 C2239 0.938 1_655 S
H2255 C2239 0.946 1_655 S
C465 C21 0.446 . S
C473 C224 0.402 1_554 S
C497 C137 0.263 . S
C505 C50 0.356 . S
C529 C79 0.265 . S
C537 C166 0.389 . S
C561 C108 0.485 . S
C569 C195 0.369 . S
C593 C456 0.459 . S
C601 C253 0.340 . S
C625 C369 0.461 . S
C633 C282 0.408 . S
C657 C311 0.446 . S
C665 C398 0.402 1_554 S
C689 C340 0.434 . S
C697 C427 0.416 . S
C721 C97 2.305 . S
C729 C5 2.266 1_556 S
C753 C34 2.252 . S
C761 C10 2.287 . S
C785 C63 2.286 . S
C793 C39 2.288 . S
C817 C92 2.244 . S
C825 C68 2.296 . S
C849 C121 2.292 . S
C857 C155 2.283 . S
C881 C150 2.266 . S
C889 C184 2.295 . S
C913 C213 2.304 . S
C921 C179 2.264 . S
C945 C208 2.289 1_554 S
C953 C126 2.279 . S
C977 C329 2.300 . S
C985 C237 2.263 . S
C1009 C266 2.268 . S
C1017 C242 2.295 . S
C1041 C271 2.265 . S
C1049 C295 2.273 1_556 S
C1073 C324 2.260 . S
C1081 C300 2.296 . S
C1105 C353 2.277 . S
C1113 C387 2.292 . S
C1137 C382 2.286 1_554 S
C1145 C416 2.278 . S
C1169 C411 2.246 . S
C1177 C445 2.290 . S
C1201 C440 2.273 . S
C1209 C358 2.279 . S
C1233 C124 0.952 . S
C1241 C8 0.843 . S
C1265 C153 0.947 . S
C1273 C37 0.851 . S
C1297 C66 0.960 . S
C1305 C182 0.840 . S
C1329 C211 0.921 . S
C1337 C95 0.863 . S
C1361 C356 0.964 . S
C1369 C240 0.838 . S
C1393 C269 0.973 . S
C1401 C385 0.835 . S
C1425 C414 0.784 . S
C1433 C298 0.916 . S
C1457 C443 0.973 . S
C1465 C327 0.835 . S
C1489 C177 2.211 . S
C1497 C3 2.197 . S
C1521 C206 2.191 . S
C1529 C32 2.213 . S
C1553 C61 2.188 . S
C1561 C119 2.200 . S
C1585 C90 2.215 . S
C1593 C148 2.209 . S
C1617 C235 2.219 . S
C1625 C409 2.205 . S
C1649 C264 2.211 . S
C1657 C438 2.197 . S
C1681 C351 2.189 . S
C1689 C293 2.213 . S
C1713 C380 2.207 . S
C1721 C322 2.197 . S
C1745 C160 2.283 . S
C1753 C15 2.284 . S
C1777 C44 2.264 . S
C1785 C189 2.282 . S
C1809 C73 2.265 . S
C1817 C218 2.283 . S
C1841 C131 2.283 . S
C1849 C102 2.277 . S
C1873 C247 2.264 . S
C1881 C392 2.281 . S
C1905 C421 2.264 . S
C1913 C276 2.281 . S
C1937 C305 2.266 . S
C1945 C450 2.278 . S
C1969 C334 2.267 . S
C1977 C363 2.284 . S
C2001 C13 1.954 . S
C2009 C303 1.913 . S
C2033 C42 1.888 . S
C2041 C332 1.906 . S
C2065 C245 1.882 . S
C2073 C71 1.935 . S
C2097 C274 1.954 . S
C2105 C100 1.913 . S
C2129 C129 1.915 . S
C2137 C419 1.932 . S
C2161 C158 1.957 . S
C2169 C448 1.905 . S
C2193 C361 1.894 . S
C2201 C187 1.935 . S
C2225 C390 1.935 . S
C2233 C216 1.925 . S
