# Generated by pormake.
# Topology xbj, (5)-cn, num edge types: 1
# Building blocks:
#     Node 0, Type 0, BuildingBlock: BEQFEK_clean_sbu_0, # of connection points: 5
#     Node 1, Type 0, BuildingBlock: BEQFEK_clean_sbu_0, # of connection points: 5
#     Node 2, Type 0, BuildingBlock: BEQFEK_clean_sbu_0, # of connection points: 5
#     Node 3, Type 0, BuildingBlock: BEQFEK_clean_sbu_0, # of connection points: 5
#     Node 4, Type 0, BuildingBlock: BEQFEK_clean_sbu_0, # of connection points: 5
#     Node 5, Type 0, BuildingBlock: BEQFEK_clean_sbu_0, # of connection points: 5
#     Node 6, Type 0, BuildingBlock: BEQFEK_clean_sbu_0, # of connection points: 5
#     Node 7, Type 0, BuildingBlock: BEQFEK_clean_sbu_0, # of connection points: 5
#     Edge 8, Type (0, 0), BuildingBlock: OJICUG_clean_linker_0, # of connection points: 2
#     Edge 9, Type (0, 0), BuildingBlock: OJICUG_clean_linker_0, # of connection points: 2
#     Edge 10, Type (0, 0), BuildingBlock: OJICUG_clean_linker_0, # of connection points: 2
#     Edge 11, Type (0, 0), BuildingBlock: OJICUG_clean_linker_0, # of connection points: 2
#     Edge 12, Type (0, 0), BuildingBlock: OJICUG_clean_linker_0, # of connection points: 2
#     Edge 13, Type (0, 0), BuildingBlock: OJICUG_clean_linker_0, # of connection points: 2
#     Edge 14, Type (0, 0), BuildingBlock: OJICUG_clean_linker_0, # of connection points: 2
#     Edge 15, Type (0, 0), BuildingBlock: OJICUG_clean_linker_0, # of connection points: 2
#     Edge 16, Type (0, 0), BuildingBlock: OJICUG_clean_linker_0, # of connection points: 2
#     Edge 17, Type (0, 0), BuildingBlock: OJICUG_clean_linker_0, # of connection points: 2
#     Edge 18, Type (0, 0), BuildingBlock: OJICUG_clean_linker_0, # of connection points: 2
#     Edge 19, Type (0, 0), BuildingBlock: OJICUG_clean_linker_0, # of connection points: 2
#     Edge 20, Type (0, 0), BuildingBlock: OJICUG_clean_linker_0, # of connection points: 2
#     Edge 21, Type (0, 0), BuildingBlock: OJICUG_clean_linker_0, # of connection points: 2
#     Edge 22, Type (0, 0), BuildingBlock: OJICUG_clean_linker_0, # of connection points: 2
#     Edge 23, Type (0, 0), BuildingBlock: OJICUG_clean_linker_0, # of connection points: 2
#     Edge 24, Type (0, 0), BuildingBlock: OJICUG_clean_linker_0, # of connection points: 2
#     Edge 25, Type (0, 0), BuildingBlock: OJICUG_clean_linker_0, # of connection points: 2
#     Edge 26, Type (0, 0), BuildingBlock: OJICUG_clean_linker_0, # of connection points: 2
#     Edge 27, Type (0, 0), BuildingBlock: OJICUG_clean_linker_0, # of connection points: 2
# Relax obj value: 0.035
# Max RMSD: 0.115
# Mean RMSD: 0.112
data_MOF--net-xbj--node1-BEQFEK_clean_sbu_0--edge1-OJICUG_clean_linker_0
_symmetry_space_group_name_H-M    P1
_symmetry_Int_Tables_number       1
_symmetry_cell_setting            triclinic
loop_
_symmetry_equiv_pos_as_xyz
'x, y, z'
_cell_length_a     15.717809
_cell_length_b     15.708708
_cell_length_c     82.483568
_cell_angle_alpha  91.159437
_cell_angle_beta   90.986727
_cell_angle_gamma 89.953676
loop_
_atom_site_label
_atom_site_type_symbol
_atom_site_fract_x
_atom_site_fract_y
_atom_site_fract_z
_atom_type_partial_charge
Co0 Co 0.21954 0.75896 0.03988 0.0
Co1 Co 0.01783 0.75631 0.04014 0.0
C2 C 0.11143 0.89492 0.02431 0.0
O3 O 0.18304 0.86222 0.02826 0.0
O4 O 0.0412 0.86274 0.02872 0.0
C5 C 0.39752 0.81688 0.04401 0.0
O6 O 0.3689 0.89547 0.04437 0.0
C7 C 0.82924 0.78492 0.04111 0.0
C8 C 0.78966 0.66257 0.05137 0.0
C9 C 0.75815 0.73945 0.04594 0.0
N10 N 0.89916 0.73722 0.04388 0.0
N11 N 0.87461 0.6641 0.04991 0.0
C12 C 0.83066 0.86824 0.03267 0.0
H13 H 0.84531 0.91988 0.04166 0.0
H14 H 0.76874 0.88162 0.02659 0.0
H15 H 0.88101 0.86739 0.02345 0.0
C16 C 0.19418 0.74021 0.07513 0.0
N17 N 0.16388 0.74847 0.05986 0.0
N18 N 0.08023 0.75161 0.06007 0.0
C19 C 0.05477 0.7481 0.07556 0.0
C20 C 0.1259 0.73939 0.0856 0.0
C21 C 0.28646 0.72958 0.07938 0.0
H22 H 0.3167 0.68616 0.07041 0.0
H23 H 0.31849 0.79237 0.07886 0.0
H24 H 0.29556 0.70353 0.09169 0.0
O25 O 0.19212 0.66388 0.02506 0.0
O26 O 0.05107 0.66431 0.0248 0.0
H27 H 0.93186 0.69842 0.08074 0.0
H28 H 0.96297 0.78811 0.09335 0.0
C29 C 0.9649 0.76076 0.08085 0.0
H30 H 0.9308 0.8042 0.07254 0.0
H31 H 0.91617 0.61491 0.05297 0.0
O32 O 0.34527 0.75532 0.0426 0.0
C33 C 0.12141 0.63504 0.01969 0.0
Co34 Co 0.59538 0.81997 0.28948 0.0
Co35 Co 0.60473 0.61857 0.28931 0.0
C36 C 0.46049 0.71228 0.27353 0.0
O37 O 0.49056 0.78466 0.27793 0.0
O38 O 0.49689 0.64288 0.27747 0.0
C39 C 0.53928 -0.00167 0.29376 0.0
O40 O 0.46058 0.97061 0.29432 0.0
C41 C 0.57177 0.43104 0.29253 0.0
C42 C 0.70468 0.38708 0.29527 0.0
C43 C 0.62147 0.35805 0.29443 0.0
N44 N 0.62386 0.49928 0.29238 0.0
N45 N 0.70299 0.47207 0.29402 0.0
C46 C 0.47748 0.43563 0.28992 0.0
H47 H 0.45871 0.49653 0.28442 0.0
H48 H 0.44581 0.43128 0.30179 0.0
H49 H 0.45515 0.38207 0.28196 0.0
C50 C 0.60987 0.79347 0.32481 0.0
N51 N 0.60776 0.76349 0.3094 0.0
N52 N 0.61221 0.67983 0.30941 0.0
C53 C 0.61811 0.65384 0.32486 0.0
C54 C 0.61671 0.72501 0.33516 0.0
C55 C 0.59777 0.88535 0.32936 0.0
H56 H 0.53935 0.90928 0.32327 0.0
H57 H 0.59154 0.89551 0.34262 0.0
H58 H 0.65241 0.9227 0.325 0.0
O59 O 0.68822 0.79351 0.27447 0.0
O60 O 0.694 0.65264 0.27434 0.0
H61 H 0.6852 0.53577 0.3237 0.0
H62 H 0.63555 0.55537 0.3428 0.0
C63 C 0.62794 0.56268 0.32953 0.0
H64 H 0.57182 0.5258 0.32505 0.0
H65 H 0.75619 0.51181 0.29413 0.0
O66 O 0.60012 0.94546 0.29234 0.0
C67 C 0.71921 0.72382 0.26918 0.0
Co68 Co 0.71492 0.26437 0.54032 0.0
Co69 Co 0.51354 0.25502 0.53915 0.0
C70 C 0.60847 0.39522 0.52351 0.0
O71 O 0.68021 0.36598 0.52827 0.0
O72 O 0.53851 0.3603 0.52731 0.0
C73 C 0.89313 0.32178 0.54524 0.0
O74 O 0.86559 0.4007 0.54602 0.0
C75 C 0.32623 0.28847 0.54251 0.0
C76 C 0.28119 0.1555 0.54333 0.0
C77 C 0.25274 0.23905 0.54371 0.0
N78 N 0.39396 0.23584 0.54157 0.0
N79 N 0.36614 0.15667 0.54206 0.0
C80 C 0.33223 0.3832 0.54144 0.0
H81 H 0.39445 0.40249 0.53666 0.0
H82 H 0.32592 0.41202 0.55376 0.0
H83 H 0.28041 0.40796 0.53353 0.0
C84 C 0.68263 0.2543 0.57555 0.0
N85 N 0.65536 0.2559 0.55999 0.0
N86 N 0.57174 0.25143 0.5595 0.0
C87 C 0.54309 0.24594 0.57475 0.0
C88 C 0.61236 0.24783 0.58545 0.0
C89 C 0.77386 0.26465 0.58069 0.0
H90 H 0.80068 0.3212 0.5748 0.0
H91 H 0.78141 0.27286 0.59402 0.0
H92 H 0.81046 0.20809 0.57654 0.0
O93 O 0.69156 0.16737 0.52541 0.0
O94 O 0.55074 0.16294 0.52449 0.0
H95 H 0.42601 0.17782 0.57213 0.0
H96 H 0.44201 0.22465 0.59191 0.0
C97 C 0.45135 0.23442 0.5788 0.0
H98 H 0.41458 0.2909 0.57488 0.0
H99 H 0.40542 0.10316 0.54144 0.0
O100 O 0.84021 0.26091 0.5436 0.0
C101 C 0.62253 0.13577 0.51978 0.0
Co102 Co 0.09461 0.32616 0.79022 0.0
Co103 Co 0.10207 0.12431 0.78936 0.0
C104 C 0.96144 0.21581 0.77314 0.0
O105 O 0.99288 0.2874 0.77773 0.0
O106 O -0.00481 0.14549 0.77727 0.0
C107 C 0.05653 0.5034 0.78448 0.0
O108 O 0.02154 0.47398 0.77092 0.0
C109 C 0.07262 0.93696 0.78967 0.0
C110 C 0.19844 0.89288 0.79844 0.0
C111 C 0.11883 0.86406 0.79341 0.0
N112 N 0.12306 0.00531 0.79232 0.0
N113 N 0.1981 0.97825 0.79753 0.0
C114 C 0.98099 0.94252 0.78461 0.0
H115 H 0.95184 0.00059 0.79 0.0
H116 H 0.94515 0.88566 0.78841 0.0
H117 H 0.97658 0.94702 0.77121 0.0
C118 C 0.10875 0.29606 0.82535 0.0
N119 N 0.10559 0.26731 0.80987 0.0
N120 N 0.10443 0.18356 0.80965 0.0
C121 C 0.10471 0.15629 0.82504 0.0
C122 C 0.10793 0.22667 0.83552 0.0
C123 C 0.11538 0.38827 0.83013 0.0
H124 H 0.1608 0.42044 0.82214 0.0
H125 H 0.05219 0.41881 0.82853 0.0
H126 H 0.13726 0.39693 0.84292 0.0
O127 O 0.19097 0.30493 0.77588 0.0
O128 O 0.19234 0.16364 0.77485 0.0
H129 H 0.15738 0.03317 0.82924 0.0
H130 H 0.06863 0.05971 0.84195 0.0
C131 C 0.09446 0.06512 0.82958 0.0
H132 H 0.0509 0.0321 0.82081 0.0
H133 H 0.24924 0.01831 0.80048 0.0
O134 O 0.08905 0.45128 0.79444 0.0
C135 C 0.22042 0.23512 0.77028 0.0
Co136 Co 0.0113 0.2503 0.95103 0.0
Co137 Co 0.21308 0.24604 0.95135 0.0
C138 C 0.11977 0.3876 0.96717 0.0
O139 O 0.04837 0.35469 0.96295 0.0
O140 O 0.19021 0.35412 0.96296 0.0
C141 C 0.83382 0.289 0.95662 0.0
O142 O 0.86288 0.32759 0.96986 0.0
C143 C 0.40046 0.27599 0.95094 0.0
C144 C 0.44428 0.14988 0.94213 0.0
C145 C 0.47327 0.22943 0.94722 0.0
N146 N 0.33204 0.22576 0.94823 0.0
N147 N 0.35896 0.15057 0.94299 0.0
C148 C 0.3951 0.36758 0.95614 0.0
H149 H 0.33697 0.39693 0.95086 0.0
H150 H 0.45188 0.40343 0.9523 0.0
H151 H 0.39093 0.37171 0.96955 0.0
C152 C 0.03993 0.23107 0.91584 0.0
N153 N 0.0693 0.23719 0.93124 0.0
N154 N 0.15295 0.23963 0.93125 0.0
C155 C 0.17949 0.23736 0.9158 0.0
C156 C 0.10879 0.23123 0.9055 0.0
C157 C 0.94769 0.2225 0.91128 0.0
H158 H 0.91661 0.17769 0.91955 0.0
H159 H 0.9163 0.28546 0.91269 0.0
H160 H 0.9388 0.19883 0.89861 0.0
O161 O 0.03527 0.15653 0.96586 0.0
O162 O 0.17649 0.15729 0.96632 0.0
H163 H 0.30308 0.18648 0.91128 0.0
H164 H 0.27426 0.27428 0.89858 0.0
C165 C 0.27012 0.2489 0.911 0.0
H166 H 0.30299 0.2934 0.91961 0.0
H167 H 0.31882 0.09947 0.94004 0.0
O168 O 0.88612 0.25375 0.94698 0.0
C169 C 0.10603 0.12887 0.97132 0.0
Co170 Co 0.08951 0.61755 0.20013 0.0
Co171 Co 0.09475 0.81943 0.20129 0.0
C172 C 0.95478 0.72629 0.21638 0.0
O173 O 0.98713 0.6551 0.21201 0.0
O174 O 0.98756 0.79698 0.21243 0.0
C175 C 0.04859 0.4406 0.20504 0.0
O176 O 0.00971 0.47028 0.21795 0.0
C177 C 0.06471 0.00677 0.20052 0.0
C178 C 0.19276 0.05094 0.19391 0.0
C179 C 0.11182 0.07969 0.19752 0.0
N180 N 0.11592 0.93851 0.19878 0.0
N181 N 0.19229 0.96562 0.19488 0.0
C182 C 0.97188 0.00107 0.20402 0.0
H183 H 0.94487 0.94173 0.19854 0.0
H184 H 0.93689 0.05685 0.19924 0.0
H185 H 0.96356 -0.00097 0.21734 0.0
C186 C 0.11088 0.64973 0.1652 0.0
N187 N 0.10203 0.67739 0.18064 0.0
N188 N 0.1002 0.76113 0.18101 0.0
C189 C 0.10583 0.78946 0.16576 0.0
C190 C 0.11371 0.71991 0.15523 0.0
C191 C 0.12024 0.55794 0.16033 0.0
H192 H 0.16357 0.52582 0.16903 0.0
H193 H 0.05718 0.52645 0.16078 0.0
H194 H 0.14584 0.55046 0.14794 0.0
O195 O 0.18555 0.63886 0.21524 0.0
O196 O 0.18434 0.78016 0.21638 0.0
H197 H 0.15992 0.91272 0.16274 0.0
H198 H 0.07518 0.88711 0.14848 0.0
C199 C 0.0972 0.88095 0.16125 0.0
H200 H 0.05109 0.91358 0.16928 0.0
H201 H 0.24421 0.9256 0.19283 0.0
O202 O 0.08463 0.49248 0.19571 0.0
C203 C 0.21367 0.70912 0.22109 0.0
Co204 Co 0.51923 0.75566 0.45033 0.0
Co205 Co 0.72118 0.7453 0.45144 0.0
C206 C 0.62808 0.88909 0.46714 0.0
O207 O 0.55637 0.85828 0.46255 0.0
O208 O 0.69824 0.85395 0.4632 0.0
C209 C 0.34104 0.80681 0.4529 0.0
O210 O 0.36933 0.86481 0.46334 0.0
C211 C 0.90718 0.77885 0.44891 0.0
C212 C 0.95555 0.64701 0.44693 0.0
C213 C 0.98168 0.73123 0.44751 0.0
N214 N 0.8407 0.72485 0.44916 0.0
N215 N 0.87035 0.64627 0.44803 0.0
C216 C 0.89821 0.87362 0.44931 0.0
H217 H 0.83557 0.89224 0.44407 0.0
H218 H 0.95014 0.90384 0.44253 0.0
H219 H 0.90138 0.89685 0.46211 0.0
C220 C 0.5515 0.74358 0.41522 0.0
N221 N 0.57939 0.74459 0.43074 0.0
N222 N 0.66296 0.73917 0.43108 0.0
C223 C 0.69093 0.733 0.41574 0.0
C224 C 0.62116 0.73576 0.40515 0.0
C225 C 0.4604 0.75697 0.4103 0.0
H226 H 0.43319 0.80989 0.41765 0.0
H227 H 0.45352 0.77241 0.39728 0.0
H228 H 0.42366 0.69846 0.41275 0.0
O229 O 0.54102 0.66016 0.46507 0.0
O230 O 0.68207 0.657 0.46604 0.0
H231 H 0.79093 0.70893 0.39833 0.0
H232 H 0.81931 0.77788 0.41546 0.0
C233 C 0.78241 0.72077 0.41149 0.0
H234 H 0.80826 0.66534 0.41804 0.0
H235 H 0.83219 0.59194 0.44802 0.0
O236 O 0.39378 0.7569 0.44603 0.0
C237 C 0.61044 0.6302 0.47071 0.0
Co238 Co 0.58502 0.13071 0.70002 0.0
Co239 Co 0.59602 0.33271 0.70189 0.0
C240 C 0.4555 0.2389 0.71736 0.0
O241 O 0.48503 0.1673 0.71251 0.0
O242 O 0.48983 0.30918 0.71355 0.0
C243 C 0.53222 0.95296 0.70184 0.0
O244 O 0.47409 0.98181 0.7118 0.0
C245 C 0.56197 0.51871 0.69919 0.0
C246 C 0.69365 0.56766 0.69875 0.0
C247 C 0.60935 0.59341 0.69827 0.0
N248 N 0.61619 0.45248 0.70013 0.0
N249 N 0.69466 0.48248 0.69995 0.0
C250 C 0.46735 0.50925 0.6984 0.0
H251 H 0.44987 0.44571 0.69324 0.0
H252 H 0.43808 0.56002 0.69098 0.0
H253 H 0.44208 0.5143 0.71086 0.0
C254 C 0.59442 0.16652 0.66498 0.0
N255 N 0.59335 0.19271 0.68062 0.0
N256 N 0.59901 0.2763 0.68136 0.0
C257 C 0.60532 0.30595 0.66622 0.0
C258 C 0.60235 0.23739 0.65529 0.0
C259 C 0.58254 0.07576 0.65954 0.0
H260 H 0.53051 0.04667 0.66645 0.0
H261 H 0.56686 0.07032 0.6464 0.0
H262 H 0.64181 0.03975 0.66214 0.0
O263 O 0.68367 0.15084 0.7148 0.0
O264 O 0.6869 0.29193 0.71626 0.0
H265 H 0.63236 0.40743 0.6495 0.0
H266 H 0.56215 0.43508 0.66598 0.0
C267 C 0.61914 0.39776 0.66248 0.0
H268 H 0.67424 0.42219 0.6697 0.0
H269 H 0.74911 0.44454 0.70057 0.0
O270 O 0.58264 0.00532 0.69539 0.0
C271 C 0.71479 0.21988 0.72064 0.0
C272 C 0.07115 0.67392 0.11068 0.0
C273 C 0.12707 0.73079 0.1034 0.0
H274 H 0.02248 0.62664 0.13287 0.0
C275 C 0.18117 0.78149 0.11325 0.0
H276 H 0.02935 0.63358 0.10332 0.0
C277 C 0.17814 0.77655 0.13012 0.0
C278 C 0.12073 0.72112 0.13739 0.0
H279 H 0.22428 0.82635 0.10791 0.0
H280 H 0.22005 0.81668 0.1375 0.0
C281 C 0.06782 0.66929 0.12754 0.0
C282 C 0.56432 0.67818 0.37867 0.0
C283 C 0.62071 0.7326 0.38722 0.0
H284 H 0.51735 0.63491 0.35539 0.0
C285 C 0.67565 0.78468 0.37857 0.0
H286 H 0.52156 0.63717 0.38508 0.0
C287 C 0.67505 0.78146 0.36163 0.0
C288 C 0.61834 0.72736 0.35308 0.0
H289 H 0.71871 0.82826 0.3849 0.0
H290 H 0.71882 0.82133 0.3552 0.0
C291 C 0.56257 0.67619 0.36173 0.0
C292 C 0.55682 0.30035 0.61201 0.0
C293 C 0.61094 0.24559 0.60335 0.0
H294 H 0.50963 0.33846 0.63525 0.0
C295 C 0.66255 0.18809 0.61185 0.0
H296 H 0.51706 0.34585 0.60572 0.0
C297 C 0.66005 0.18552 0.62877 0.0
C298 C 0.60521 0.23974 0.6374 0.0
H299 H 0.70435 0.14482 0.6054 0.0
H300 H 0.70119 0.14143 0.6351 0.0
C301 C 0.55324 0.29675 0.62887 0.0
C302 C 0.05254 0.28276 0.8789 0.0
C303 C 0.10752 0.22916 0.88757 0.0
H304 H 0.00858 0.32278 0.85553 0.0
C305 C 0.16235 0.17448 0.87905 0.0
H306 H 0.01038 0.32623 0.8852 0.0
C307 C 0.16254 0.17375 0.86211 0.0
C308 C 0.10761 0.22739 0.85344 0.0
H309 H 0.20493 0.13215 0.88548 0.0
H310 H 0.20616 0.13179 0.8558 0.0
C311 C 0.05228 0.28156 0.86196 0.0
C312 C 0.04391 0.54533 -0.00112 0.0
C313 C 0.12107 0.57228 0.00613 0.0
H314 H 0.98293 0.46787 0.98059 0.0
C315 C 0.19804 0.543 -0.00041 0.0
H316 H 0.98348 0.56762 0.00346 0.0
C317 C 0.19779 0.48641 0.98634 0.0
C318 C 0.12056 0.45773 0.97936 0.0
H319 H 0.25869 0.56342 0.00474 0.0
H320 H 0.25819 0.46343 0.98188 0.0
C321 C 0.04365 0.48883 0.98563 0.0
C322 C 0.80509 0.64828 0.24812 0.0
C323 C 0.77896 0.72498 0.25555 0.0
H324 H 0.87861 0.58851 0.22961 0.0
C325 C 0.8057 0.80248 0.2491 0.0
H326 H 0.78462 0.5874 0.2526 0.0
C327 C 0.85923 0.80316 0.23576 0.0
C328 C 0.8871 0.72633 0.2286 0.0
H329 H 0.78574 0.86276 0.2544 0.0
H330 H 0.88057 0.86393 0.23138 0.0
C331 C 0.85827 0.64895 0.23478 0.0
C332 C 0.53135 0.54108 0.49038 0.0
C333 C 0.60878 0.57003 0.48423 0.0
H334 H 0.47016 0.46447 0.50789 0.0
C335 C 0.68531 0.54593 0.49193 0.0
H336 H 0.47122 0.55943 0.48486 0.0
C337 C 0.68468 0.49296 0.50526 0.0
C338 C 0.60753 0.46209 0.51117 0.0
H339 H 0.74614 0.56799 0.48769 0.0
H340 H 0.7451 0.47447 0.51064 0.0
C341 C 0.53073 0.48753 0.5037 0.0
C342 C 0.86468 0.13861 0.75333 0.0
C343 C 0.89239 0.21529 0.76078 0.0
H344 H 0.7878 0.07969 0.73458 0.0
C345 C 0.86088 0.29273 0.75493 0.0
H346 H 0.88819 0.07783 0.75747 0.0
C347 C 0.80483 0.29381 0.7417 0.0
C348 C 0.7782 0.21744 0.73404 0.0
H349 H 0.88098 0.35305 0.76031 0.0
H350 H 0.78233 0.35491 0.73753 0.0
C351 C 0.808 0.13969 0.74009 0.0
C352 C 0.3104 0.31449 0.75083 0.0
C353 C 0.28118 0.23677 0.75682 0.0
H354 H 0.38686 0.37649 0.73341 0.0
C355 C 0.30513 0.16051 0.74896 0.0
H356 H 0.2922 0.3745 0.75647 0.0
C357 C 0.35809 0.16173 0.7356 0.0
C358 C 0.38897 0.2392 0.72981 0.0
H359 H 0.28282 0.09954 0.75308 0.0
H360 H 0.37636 0.10151 0.73006 0.0
C361 C 0.36379 0.3157 0.73747 0.0
C362 C 0.29901 0.7858 0.24255 0.0
C363 C 0.27582 0.70883 0.23471 0.0
H364 H 0.37311 0.84704 0.26126 0.0
C365 C 0.3085 0.632 0.24066 0.0
H366 H 0.27402 0.84612 0.23847 0.0
C367 C 0.3652 0.63247 0.25389 0.0
C368 C 0.39018 0.7098 0.26143 0.0
H369 H 0.29093 0.57151 0.23503 0.0
H370 H 0.39128 0.57243 0.25788 0.0
C371 C 0.35524 0.78626 0.25578 0.0
C372 C 0.55101 0.99222 0.48494 0.0
C373 C 0.62853 0.95884 0.47942 0.0
H374 H 0.48822 0.07207 0.50217 0.0
C375 C 0.70471 0.98494 0.4872 0.0
H376 H 0.49104 0.97354 0.47928 0.0
C377 C 0.70302 0.04153 0.50048 0.0
C378 C 0.62512 0.07284 0.50626 0.0
H379 H 0.7655 0.96002 0.48331 0.0
H380 H 0.76268 0.06026 0.50628 0.0
C381 C 0.5493 0.04815 0.49823 0.0
C382 C 0.03207 0.99092 0.00545 0.0
C383 C 0.10981 0.96223 0.01203 0.0
H384 H 0.96966 0.06443 0.98722 0.0
C385 C 0.18611 0.98982 0.00522 0.0
H386 H 0.97207 0.97084 0.01035 0.0
C387 C 0.1847 0.0426 0.99183 0.0
C388 C 0.10696 0.06938 0.98497 0.0
H389 H 0.24721 0.96878 0.00992 0.0
H390 H 0.24478 0.0621 0.98685 0.0
C391 C 0.03065 0.0438 0.99204 0.0
C392 C 0.63755 0.84573 0.04771 0.0
C393 C 0.66645 0.76187 0.04511 0.0
H394 H 0.52977 0.9293 0.04936 0.0
C395 C 0.60622 0.69683 0.04249 0.0
H396 H 0.68204 0.89685 0.05037 0.0
C397 C 0.51936 0.71499 0.04222 0.0
C398 C 0.49015 0.79883 0.0446 0.0
H399 H 0.62623 0.63145 0.04055 0.0
H400 H 0.47511 0.66299 0.04007 0.0
C401 C 0.5502 0.86414 0.04734 0.0
C402 C 0.51765 0.23809 0.29956 0.0
C403 C 0.59726 0.26651 0.29428 0.0
H404 H 0.43626 0.13084 0.30342 0.0
C405 C 0.6572 0.2056 0.28916 0.0
H406 H 0.47102 0.28229 0.30423 0.0
C407 C 0.63815 0.11902 0.28914 0.0
C408 C 0.55829 0.09061 0.29413 0.0
H409 H 0.71925 0.22472 0.28504 0.0
H410 H 0.68605 0.07434 0.28501 0.0
C411 C 0.49801 0.15097 0.29931 0.0
C412 C 0.09972 0.20366 0.53895 0.0
C413 C 0.16125 0.26362 0.54418 0.0
H414 H 0.96819 0.17471 0.53525 0.0
C415 C 0.13335 0.3433 0.55016 0.0
H416 H 0.11822 0.14154 0.53429 0.0
C417 C 0.04625 0.36293 0.55048 0.0
C418 C 0.98537 0.30259 0.54519 0.0
H419 H 0.17783 0.39007 0.55495 0.0
H420 H 0.02658 0.42479 0.55509 0.0
C421 C 0.01324 0.22266 0.53951 0.0
C422 C 0.04564 0.74239 0.77858 0.0
C423 C 0.09415 0.77317 0.79191 0.0
H424 H -0.00464 0.63299 0.76579 0.0
C425 C 0.12617 0.71496 0.8032 0.0
H426 H 0.02204 0.7853 0.76944 0.0
C427 C 0.1113 0.62771 0.80109 0.0
C428 C 0.06496 0.59646 0.78751 0.0
H429 H 0.164 0.73686 0.81356 0.0
H430 H 0.13824 0.58464 0.8099 0.0
C431 C 0.03112 0.6549 0.77641 0.0
C432 C 0.68215 0.31612 0.96444 0.0
C433 C 0.74091 0.28088 0.95351 0.0
H434 H 0.55151 0.32699 0.97119 0.0
C435 C 0.71005 0.23392 0.93997 0.0
H436 H 0.70376 0.35238 0.97504 0.0
C437 C 0.62283 0.21998 0.93772 0.0
C438 C 0.56424 0.2534 0.94884 0.0
H439 H 0.75336 0.20599 0.93128 0.0
H440 H 0.60123 0.18173 0.92738 0.0
C441 C 0.59469 0.30239 0.96215 0.0
C442 C 0.03403 0.2018 0.2108 0.0
C443 C 0.08671 0.17057 0.19845 0.0
H444 H 0.98034 0.31166 0.22257 0.0
C445 C 0.12255 0.22842 0.18774 0.0
H446 H 0.00727 0.15918 0.21951 0.0
C447 C 0.10754 0.31576 0.18951 0.0
C448 C 0.05716 0.34747 0.20219 0.0
H449 H 0.16359 0.20617 0.17811 0.0
H450 H 0.13755 0.35855 0.1812 0.0
C451 C 0.01935 0.28939 0.21265 0.0
C452 C 0.13117 0.71081 0.43854 0.0
C453 C 0.07193 0.75882 0.44744 0.0
H454 H 0.26194 0.68896 0.43304 0.0
C455 C 0.10148 0.82664 0.45738 0.0
H456 H 0.11036 0.65809 0.43078 0.0
C457 C 0.18875 0.84427 0.45874 0.0
C458 C 0.2482 0.79427 0.45023 0.0
H459 H 0.05795 0.86349 0.46473 0.0
H460 H 0.20972 0.8953 0.46688 0.0
C461 C 0.21814 0.72853 0.43984 0.0
C462 C 0.49405 0.801 0.70752 0.0
C463 C 0.54493 0.8599 0.69945 0.0
H464 H 0.4745 0.67062 0.71362 0.0
C465 C 0.61198 0.82913 0.68992 0.0
H466 H 0.44198 0.82252 0.71499 0.0
C467 C 0.63019 0.7421 0.68908 0.0
C468 C 0.58134 0.68349 0.69759 0.0
H469 H 0.65228 0.87248 0.68349 0.0
H470 H 0.68394 0.72078 0.68202 0.0
C471 C 0.51212 0.71365 0.7066 0.0
loop_
_geom_bond_atom_site_label_1
_geom_bond_atom_site_label_2
_geom_bond_distance
_geom_bond_site_symmetry_2
_ccdc_geom_bond_type
Co0 O3 1.970 . S
Co0 N17 1.989 . S
Co0 O25 1.967 . S
Co0 O32 1.920 . S
Co1 O4 1.966 . S
Co1 N10 2.022 1_455 S
Co1 N18 1.993 . S
Co1 O26 1.941 . S
C2 O3 1.258 . S
C2 O4 1.263 . S
O3 Co0 1.970 . S
O3 C2 1.258 . S
O4 Co1 1.966 . S
O4 C2 1.263 . S
C5 O6 1.235 . S
C5 O32 1.289 . S
O6 C5 1.235 . S
C7 C9 1.400 . S
C7 N10 1.351 . S
C7 C12 1.501 . S
C8 C9 1.387 . S
C8 N11 1.341 . S
C9 C7 1.400 . S
C9 C8 1.387 . S
N10 Co1 2.022 1_655 S
N10 C7 1.351 . S
N10 N11 1.365 . S
N11 C8 1.341 . S
N11 N10 1.365 . S
N11 H31 0.862 . S
C12 C7 1.501 . S
C12 H13 0.961 . S
C12 H14 0.961 . S
C12 H15 0.960 . S
H13 C12 0.961 . S
H14 C12 0.961 . S
H15 C12 0.960 . S
C16 N17 1.342 . S
C16 C20 1.401 . S
C16 C21 1.499 . S
N17 Co0 1.989 . S
N17 C16 1.342 . S
N17 N18 1.388 . S
N18 Co1 1.993 . S
N18 N17 1.388 . S
N18 C19 1.346 . S
C19 N18 1.346 . S
C19 C20 1.396 . S
C19 C29 1.510 1_455 S
C20 C16 1.401 . S
C20 C19 1.396 . S
C21 C16 1.499 . S
C21 H22 0.959 . S
C21 H23 0.960 . S
C21 H24 0.961 . S
H22 C21 0.959 . S
H23 C21 0.960 . S
H24 C21 0.961 . S
O25 Co0 1.967 . S
O25 C33 1.258 . S
O26 Co1 1.941 . S
O26 C33 1.266 . S
H27 C29 0.959 . S
H28 C29 0.961 . S
C29 C19 1.510 1_655 S
C29 H27 0.959 . S
C29 H28 0.961 . S
C29 H30 0.960 . S
H30 C29 0.960 . S
H31 N11 0.862 . S
O32 Co0 1.920 . S
O32 C5 1.289 . S
C33 O25 1.258 . S
C33 O26 1.266 . S
Co34 O37 1.970 . S
Co34 N51 1.989 . S
Co34 O59 1.967 . S
Co34 O66 1.920 . S
Co35 O38 1.966 . S
Co35 N44 2.022 . S
Co35 N52 1.993 . S
Co35 O60 1.941 . S
C36 O37 1.258 . S
C36 O38 1.263 . S
O37 Co34 1.970 . S
O37 C36 1.258 . S
O38 Co35 1.966 . S
O38 C36 1.263 . S
C39 O40 1.235 . S
C39 O66 1.289 . S
O40 C39 1.235 . S
C41 C43 1.400 . S
C41 N44 1.351 . S
C41 C46 1.501 . S
C42 C43 1.387 . S
C42 N45 1.341 . S
C43 C41 1.400 . S
C43 C42 1.387 . S
N44 Co35 2.022 . S
N44 C41 1.351 . S
N44 N45 1.365 . S
N45 C42 1.341 . S
N45 N44 1.365 . S
N45 H65 0.862 . S
C46 C41 1.501 . S
C46 H47 0.961 . S
C46 H48 0.961 . S
C46 H49 0.960 . S
H47 C46 0.961 . S
H48 C46 0.961 . S
H49 C46 0.960 . S
C50 N51 1.342 . S
C50 C54 1.401 . S
C50 C55 1.499 . S
N51 Co34 1.989 . S
N51 C50 1.342 . S
N51 N52 1.388 . S
N52 Co35 1.993 . S
N52 N51 1.388 . S
N52 C53 1.346 . S
C53 N52 1.346 . S
C53 C54 1.396 . S
C53 C63 1.510 . S
C54 C50 1.401 . S
C54 C53 1.396 . S
C55 C50 1.499 . S
C55 H56 0.959 . S
C55 H57 0.960 . S
C55 H58 0.961 . S
H56 C55 0.959 . S
H57 C55 0.960 . S
H58 C55 0.961 . S
O59 Co34 1.967 . S
O59 C67 1.258 . S
O60 Co35 1.941 . S
O60 C67 1.266 . S
H61 C63 0.959 . S
H62 C63 0.961 . S
C63 C53 1.510 . S
C63 H61 0.959 . S
C63 H62 0.961 . S
C63 H64 0.960 . S
H64 C63 0.960 . S
H65 N45 0.862 . S
O66 Co34 1.920 . S
O66 C39 1.289 . S
C67 O59 1.258 . S
C67 O60 1.266 . S
Co68 O71 1.970 . S
Co68 N85 1.989 . S
Co68 O93 1.967 . S
Co68 O100 1.920 . S
Co69 O72 1.966 . S
Co69 N78 2.022 . S
Co69 N86 1.993 . S
Co69 O94 1.941 . S
C70 O71 1.258 . S
C70 O72 1.263 . S
O71 Co68 1.970 . S
O71 C70 1.258 . S
O72 Co69 1.966 . S
O72 C70 1.263 . S
C73 O74 1.235 . S
C73 O100 1.289 . S
O74 C73 1.235 . S
C75 C77 1.400 . S
C75 N78 1.351 . S
C75 C80 1.501 . S
C76 C77 1.387 . S
C76 N79 1.341 . S
C77 C75 1.400 . S
C77 C76 1.387 . S
N78 Co69 2.022 . S
N78 C75 1.351 . S
N78 N79 1.365 . S
N79 C76 1.341 . S
N79 N78 1.365 . S
N79 H99 0.862 . S
C80 C75 1.501 . S
C80 H81 0.961 . S
C80 H82 0.961 . S
C80 H83 0.960 . S
H81 C80 0.961 . S
H82 C80 0.961 . S
H83 C80 0.960 . S
C84 N85 1.342 . S
C84 C88 1.401 . S
C84 C89 1.499 . S
N85 Co68 1.989 . S
N85 C84 1.342 . S
N85 N86 1.388 . S
N86 Co69 1.993 . S
N86 N85 1.388 . S
N86 C87 1.346 . S
C87 N86 1.346 . S
C87 C88 1.396 . S
C87 C97 1.510 . S
C88 C84 1.401 . S
C88 C87 1.396 . S
C89 C84 1.499 . S
C89 H90 0.959 . S
C89 H91 0.960 . S
C89 H92 0.961 . S
H90 C89 0.959 . S
H91 C89 0.960 . S
H92 C89 0.961 . S
O93 Co68 1.967 . S
O93 C101 1.258 . S
O94 Co69 1.941 . S
O94 C101 1.266 . S
H95 C97 0.959 . S
H96 C97 0.961 . S
C97 C87 1.510 . S
C97 H95 0.959 . S
C97 H96 0.961 . S
C97 H98 0.960 . S
H98 C97 0.960 . S
H99 N79 0.862 . S
O100 Co68 1.920 . S
O100 C73 1.289 . S
C101 O93 1.258 . S
C101 O94 1.266 . S
Co102 O105 1.970 1_455 S
Co102 N119 1.989 . S
Co102 O127 1.967 . S
Co102 O134 1.920 . S
Co103 O106 1.966 . S
Co103 N112 2.022 1_545 S
Co103 N120 1.993 . S
Co103 O128 1.941 . S
C104 O105 1.258 . S
C104 O106 1.263 1_655 S
O105 Co102 1.970 1_655 S
O105 C104 1.258 . S
O106 Co103 1.966 . S
O106 C104 1.263 1_455 S
C107 O108 1.235 1_455 S
C107 O134 1.289 . S
O108 C107 1.235 1_655 S
C109 C111 1.400 . S
C109 N112 1.351 . S
C109 C114 1.501 1_455 S
C110 C111 1.387 . S
C110 N113 1.341 . S
C111 C109 1.400 . S
C111 C110 1.387 . S
N112 Co103 2.022 1_565 S
N112 C109 1.351 . S
N112 N113 1.365 . S
N113 C110 1.341 . S
N113 N112 1.365 . S
N113 H133 0.862 . S
C114 C109 1.501 1_655 S
C114 H115 0.961 1_565 S
C114 H116 0.961 . S
C114 H117 0.960 . S
H115 C114 0.961 1_545 S
H116 C114 0.961 . S
H117 C114 0.960 . S
C118 N119 1.342 . S
C118 C122 1.401 . S
C118 C123 1.499 . S
N119 Co102 1.989 . S
N119 C118 1.342 . S
N119 N120 1.388 . S
N120 Co103 1.993 . S
N120 N119 1.388 . S
N120 C121 1.346 . S
C121 N120 1.346 . S
C121 C122 1.396 . S
C121 C131 1.510 . S
C122 C118 1.401 . S
C122 C121 1.396 . S
C123 C118 1.499 . S
C123 H124 0.959 . S
C123 H125 0.960 . S
C123 H126 0.961 . S
H124 C123 0.959 . S
H125 C123 0.960 . S
H126 C123 0.961 . S
O127 Co102 1.967 . S
O127 C135 1.258 . S
O128 Co103 1.941 . S
O128 C135 1.266 . S
H129 C131 0.959 . S
H130 C131 0.961 . S
C131 C121 1.510 . S
C131 H129 0.959 . S
C131 H130 0.961 . S
C131 H132 0.960 . S
H132 C131 0.960 . S
H133 N113 0.862 . S
O134 Co102 1.920 . S
O134 C107 1.289 . S
C135 O127 1.258 . S
C135 O128 1.266 . S
Co136 O139 1.970 . S
Co136 N153 1.989 . S
Co136 O161 1.967 . S
Co136 O168 1.920 1_455 S
Co137 O140 1.966 . S
Co137 N146 2.022 . S
Co137 N154 1.993 . S
Co137 O162 1.941 . S
C138 O139 1.258 . S
C138 O140 1.263 . S
O139 Co136 1.970 . S
O139 C138 1.258 . S
O140 Co137 1.966 . S
O140 C138 1.263 . S
C141 O142 1.235 . S
C141 O168 1.289 . S
O142 C141 1.235 . S
C143 C145 1.400 . S
C143 N146 1.351 . S
C143 C148 1.501 . S
C144 C145 1.387 . S
C144 N147 1.341 . S
C145 C143 1.400 . S
C145 C144 1.387 . S
N146 Co137 2.022 . S
N146 C143 1.351 . S
N146 N147 1.365 . S
N147 C144 1.341 . S
N147 N146 1.365 . S
N147 H167 0.862 . S
C148 C143 1.501 . S
C148 H149 0.961 . S
C148 H150 0.961 . S
C148 H151 0.960 . S
H149 C148 0.961 . S
H150 C148 0.961 . S
H151 C148 0.960 . S
C152 N153 1.342 . S
C152 C156 1.401 . S
C152 C157 1.499 1_455 S
N153 Co136 1.989 . S
N153 C152 1.342 . S
N153 N154 1.388 . S
N154 Co137 1.993 . S
N154 N153 1.388 . S
N154 C155 1.346 . S
C155 N154 1.346 . S
C155 C156 1.396 . S
C155 C165 1.510 . S
C156 C152 1.401 . S
C156 C155 1.396 . S
C157 C152 1.499 1_655 S
C157 H158 0.959 . S
C157 H159 0.960 . S
C157 H160 0.961 . S
H158 C157 0.959 . S
H159 C157 0.960 . S
H160 C157 0.961 . S
O161 Co136 1.967 . S
O161 C169 1.258 . S
O162 Co137 1.941 . S
O162 C169 1.266 . S
H163 C165 0.959 . S
H164 C165 0.961 . S
C165 C155 1.510 . S
C165 H163 0.959 . S
C165 H164 0.961 . S
C165 H166 0.960 . S
H166 C165 0.960 . S
H167 N147 0.862 . S
O168 Co136 1.920 1_655 S
O168 C141 1.289 . S
C169 O161 1.258 . S
C169 O162 1.266 . S
Co170 O173 1.970 1_455 S
Co170 N187 1.989 . S
Co170 O195 1.967 . S
Co170 O202 1.920 . S
Co171 O174 1.966 . S
Co171 N180 2.022 . S
Co171 N188 1.993 . S
Co171 O196 1.941 . S
C172 O173 1.258 . S
C172 O174 1.263 1_655 S
O173 Co170 1.970 1_655 S
O173 C172 1.258 . S
O174 Co171 1.966 . S
O174 C172 1.263 1_455 S
C175 O176 1.235 1_455 S
C175 O202 1.289 . S
O176 C175 1.235 1_655 S
C177 C179 1.400 . S
C177 N180 1.351 1_545 S
C177 C182 1.501 1_455 S
C178 C179 1.387 . S
C178 N181 1.341 . S
C179 C177 1.400 . S
C179 C178 1.387 . S
N180 Co171 2.022 . S
N180 C177 1.351 1_565 S
N180 N181 1.365 1_565 S
N181 C178 1.341 . S
N181 N180 1.365 1_545 S
N181 H201 0.866 . S
C182 C177 1.501 1_655 S
C182 H183 0.961 1_545 S
C182 H184 0.961 . S
C182 H185 0.960 . S
H183 C182 0.961 1_565 S
H184 C182 0.961 . S
H185 C182 0.960 . S
C186 N187 1.342 . S
C186 C190 1.401 . S
C186 C191 1.499 . S
N187 Co170 1.989 . S
N187 C186 1.342 . S
N187 N188 1.388 . S
N188 Co171 1.993 . S
N188 N187 1.388 . S
N188 C189 1.346 . S
C189 N188 1.346 . S
C189 C190 1.396 . S
C189 C199 1.510 . S
C190 C186 1.401 . S
C190 C189 1.396 . S
C191 C186 1.499 . S
C191 H192 0.959 . S
C191 H193 0.960 . S
C191 H194 0.961 . S
H192 C191 0.959 . S
H193 C191 0.960 . S
H194 C191 0.961 . S
O195 Co170 1.967 . S
O195 C203 1.258 . S
O196 Co171 1.941 . S
O196 C203 1.266 . S
H197 C199 0.959 . S
H198 C199 0.961 . S
C199 C189 1.510 . S
C199 H197 0.959 . S
C199 H198 0.961 . S
C199 H200 0.960 . S
H200 C199 0.960 . S
H201 N181 0.866 . S
O202 Co170 1.920 . S
O202 C175 1.289 . S
C203 O195 1.258 . S
C203 O196 1.266 . S
Co204 O207 1.970 . S
Co204 N221 1.989 . S
Co204 O229 1.967 . S
Co204 O236 1.920 . S
Co205 O208 1.966 . S
Co205 N214 2.022 . S
Co205 N222 1.993 . S
Co205 O230 1.941 . S
C206 O207 1.258 . S
C206 O208 1.263 . S
O207 Co204 1.970 . S
O207 C206 1.258 . S
O208 Co205 1.966 . S
O208 C206 1.263 . S
C209 O210 1.235 . S
C209 O236 1.289 . S
O210 C209 1.235 . S
C211 C213 1.400 1_655 S
C211 N214 1.351 . S
C211 C216 1.501 . S
C212 C213 1.387 1_655 S
C212 N215 1.341 . S
C213 C211 1.400 1_455 S
C213 C212 1.387 1_455 S
N214 Co205 2.022 . S
N214 C211 1.351 . S
N214 N215 1.365 . S
N215 C212 1.341 . S
N215 N214 1.365 . S
N215 H235 0.862 . S
C216 C211 1.501 . S
C216 H217 0.961 . S
C216 H218 0.961 . S
C216 H219 0.960 . S
H217 C216 0.961 . S
H218 C216 0.961 . S
H219 C216 0.960 . S
C220 N221 1.342 . S
C220 C224 1.401 . S
C220 C225 1.499 . S
N221 Co204 1.989 . S
N221 C220 1.342 . S
N221 N222 1.388 . S
N222 Co205 1.993 . S
N222 N221 1.388 . S
N222 C223 1.346 . S
C223 N222 1.346 . S
C223 C224 1.396 . S
C223 C233 1.510 . S
C224 C220 1.401 . S
C224 C223 1.396 . S
C225 C220 1.499 . S
C225 H226 0.959 . S
C225 H227 0.960 . S
C225 H228 0.961 . S
H226 C225 0.959 . S
H227 C225 0.960 . S
H228 C225 0.961 . S
O229 Co204 1.967 . S
O229 C237 1.258 . S
O230 Co205 1.941 . S
O230 C237 1.266 . S
H231 C233 0.959 . S
H232 C233 0.961 . S
C233 C223 1.510 . S
C233 H231 0.959 . S
C233 H232 0.961 . S
C233 H234 0.960 . S
H234 C233 0.960 . S
H235 N215 0.862 . S
O236 Co204 1.920 . S
O236 C209 1.289 . S
C237 O229 1.258 . S
C237 O230 1.266 . S
Co238 O241 1.970 . S
Co238 N255 1.989 . S
Co238 O263 1.967 . S
Co238 O270 1.920 . S
Co239 O242 1.966 . S
Co239 N248 2.022 . S
Co239 N256 1.993 . S
Co239 O264 1.941 . S
C240 O241 1.258 . S
C240 O242 1.263 . S
O241 Co238 1.970 . S
O241 C240 1.258 . S
O242 Co239 1.966 . S
O242 C240 1.263 . S
C243 O244 1.232 1_565 S
C243 O270 1.289 1_565 S
O244 C243 1.232 1_545 S
C245 C247 1.400 . S
C245 N248 1.351 . S
C245 C250 1.501 . S
C246 C247 1.387 . S
C246 N249 1.341 . S
C247 C245 1.400 . S
C247 C246 1.387 . S
N248 Co239 2.022 . S
N248 C245 1.351 . S
N248 N249 1.365 . S
N249 C246 1.341 . S
N249 N248 1.365 . S
N249 H269 0.862 . S
C250 C245 1.501 . S
C250 H251 0.961 . S
C250 H252 0.961 . S
C250 H253 0.960 . S
H251 C250 0.961 . S
H252 C250 0.961 . S
H253 C250 0.960 . S
C254 N255 1.342 . S
C254 C258 1.401 . S
C254 C259 1.499 . S
N255 Co238 1.989 . S
N255 C254 1.342 . S
N255 N256 1.388 . S
N256 Co239 1.993 . S
N256 N255 1.388 . S
N256 C257 1.346 . S
C257 N256 1.346 . S
C257 C258 1.396 . S
C257 C267 1.510 . S
C258 C254 1.401 . S
C258 C257 1.396 . S
C259 C254 1.499 . S
C259 H260 0.959 . S
C259 H261 0.960 . S
C259 H262 0.961 . S
H260 C259 0.959 . S
H261 C259 0.960 . S
H262 C259 0.961 . S
O263 Co238 1.967 . S
O263 C271 1.258 . S
O264 Co239 1.941 . S
O264 C271 1.266 . S
H265 C267 0.959 . S
H266 C267 0.961 . S
C267 C257 1.510 . S
C267 H265 0.959 . S
C267 H266 0.961 . S
C267 H268 0.960 . S
H268 C267 0.960 . S
H269 N249 0.862 . S
O270 Co238 1.920 . S
O270 C243 1.289 1_545 S
C271 O263 1.258 . S
C271 O264 1.266 . S
C272 C273 1.387 . S
C272 H276 0.950 . S
C272 C281 1.390 . S
C273 C272 1.387 . S
C273 C275 1.387 . S
H274 C281 0.950 . S
C275 C273 1.387 . S
C275 C277 1.390 . S
C275 H279 0.950 . S
H276 C272 0.950 . S
C277 C275 1.390 . S
C277 C278 1.387 . S
C277 H280 0.950 . S
C278 C277 1.387 . S
C278 C281 1.387 . S
H279 C275 0.950 . S
H280 C277 0.950 . S
C281 C272 1.390 . S
C281 H274 0.950 . S
C281 C278 1.387 . S
C282 C283 1.387 . S
C282 H286 0.950 . S
C282 C291 1.390 . S
C283 C282 1.387 . S
C283 C285 1.387 . S
H284 C291 0.950 . S
C285 C283 1.387 . S
C285 C287 1.390 . S
C285 H289 0.950 . S
H286 C282 0.950 . S
C287 C285 1.390 . S
C287 C288 1.387 . S
C287 H290 0.950 . S
C288 C287 1.387 . S
C288 C291 1.387 . S
H289 C285 0.950 . S
H290 C287 0.950 . S
C291 C282 1.390 . S
C291 H284 0.950 . S
C291 C288 1.387 . S
C292 C293 1.387 . S
C292 H296 0.950 . S
C292 C301 1.390 . S
C293 C292 1.387 . S
C293 C295 1.387 . S
H294 C301 0.950 . S
C295 C293 1.387 . S
C295 C297 1.390 . S
C295 H299 0.950 . S
H296 C292 0.950 . S
C297 C295 1.390 . S
C297 C298 1.387 . S
C297 H300 0.950 . S
C298 C297 1.387 . S
C298 C301 1.387 . S
H299 C295 0.950 . S
H300 C297 0.950 . S
C301 C292 1.390 . S
C301 H294 0.950 . S
C301 C298 1.387 . S
C302 C303 1.387 . S
C302 H306 0.950 . S
C302 C311 1.390 . S
C303 C302 1.387 . S
C303 C305 1.387 . S
H304 C311 0.950 . S
C305 C303 1.387 . S
C305 C307 1.390 . S
C305 H309 0.950 . S
H306 C302 0.950 . S
C307 C305 1.390 . S
C307 C308 1.387 . S
C307 H310 0.950 . S
C308 C307 1.387 . S
C308 C311 1.387 . S
H309 C305 0.950 . S
H310 C307 0.950 . S
C311 C302 1.390 . S
C311 H304 0.950 . S
C311 C308 1.387 . S
C312 C313 1.387 . S
C312 H316 0.950 . S
C312 C321 1.390 1_554 S
C313 C312 1.387 . S
C313 C315 1.387 . S
H314 C321 0.950 . S
C315 C313 1.387 . S
C315 C317 1.390 1_554 S
C315 H319 0.950 . S
H316 C312 0.950 . S
C317 C315 1.390 1_556 S
C317 C318 1.387 . S
C317 H320 0.950 . S
C318 C317 1.387 . S
C318 C321 1.387 . S
H319 C315 0.950 . S
H320 C317 0.950 . S
C321 C312 1.390 1_556 S
C321 H314 0.950 . S
C321 C318 1.387 . S
C322 C323 1.387 . S
C322 H326 0.950 . S
C322 C331 1.390 . S
C323 C322 1.387 . S
C323 C325 1.387 . S
H324 C331 0.950 . S
C325 C323 1.387 . S
C325 C327 1.390 . S
C325 H329 0.950 . S
H326 C322 0.950 . S
C327 C325 1.390 . S
C327 C328 1.387 . S
C327 H330 0.950 . S
C328 C327 1.387 . S
C328 C331 1.387 . S
H329 C325 0.950 . S
H330 C327 0.950 . S
C331 C322 1.390 . S
C331 H324 0.950 . S
C331 C328 1.387 . S
C332 C333 1.387 . S
C332 H336 0.950 . S
C332 C341 1.390 . S
C333 C332 1.387 . S
C333 C335 1.387 . S
H334 C341 0.950 . S
C335 C333 1.387 . S
C335 C337 1.390 . S
C335 H339 0.950 . S
H336 C332 0.950 . S
C337 C335 1.390 . S
C337 C338 1.387 . S
C337 H340 0.950 . S
C338 C337 1.387 . S
C338 C341 1.387 . S
H339 C335 0.950 . S
H340 C337 0.950 . S
C341 C332 1.390 . S
C341 H334 0.950 . S
C341 C338 1.387 . S
C342 C343 1.387 . S
C342 H346 0.950 . S
C342 C351 1.390 . S
C343 C342 1.387 . S
C343 C345 1.387 . S
H344 C351 0.950 . S
C345 C343 1.387 . S
C345 C347 1.390 . S
C345 H349 0.950 . S
H346 C342 0.950 . S
C347 C345 1.390 . S
C347 C348 1.387 . S
C347 H350 0.950 . S
C348 C347 1.387 . S
C348 C351 1.387 . S
H349 C345 0.950 . S
H350 C347 0.950 . S
C351 C342 1.390 . S
C351 H344 0.950 . S
C351 C348 1.387 . S
C352 C353 1.387 . S
C352 H356 0.950 . S
C352 C361 1.390 . S
C353 C352 1.387 . S
C353 C355 1.387 . S
H354 C361 0.950 . S
C355 C353 1.387 . S
C355 C357 1.390 . S
C355 H359 0.950 . S
H356 C352 0.950 . S
C357 C355 1.390 . S
C357 C358 1.387 . S
C357 H360 0.950 . S
C358 C357 1.387 . S
C358 C361 1.387 . S
H359 C355 0.950 . S
H360 C357 0.950 . S
C361 C352 1.390 . S
C361 H354 0.950 . S
C361 C358 1.387 . S
C362 C363 1.387 . S
C362 H366 0.950 . S
C362 C371 1.390 . S
C363 C362 1.387 . S
C363 C365 1.387 . S
H364 C371 0.950 . S
C365 C363 1.387 . S
C365 C367 1.390 . S
C365 H369 0.950 . S
H366 C362 0.950 . S
C367 C365 1.390 . S
C367 C368 1.387 . S
C367 H370 0.950 . S
C368 C367 1.387 . S
C368 C371 1.387 . S
H369 C365 0.950 . S
H370 C367 0.950 . S
C371 C362 1.390 . S
C371 H364 0.950 . S
C371 C368 1.387 . S
C372 C373 1.387 . S
C372 H376 0.950 . S
C372 C381 1.390 1_565 S
C373 C372 1.387 . S
C373 C375 1.387 . S
H374 C381 0.950 . S
C375 C373 1.387 . S
C375 C377 1.390 1_565 S
C375 H379 0.950 . S
H376 C372 0.950 . S
C377 C375 1.390 1_545 S
C377 C378 1.387 . S
C377 H380 0.950 . S
C378 C377 1.387 . S
C378 C381 1.387 . S
H379 C375 0.950 . S
H380 C377 0.950 . S
C381 C372 1.390 1_545 S
C381 H374 0.950 . S
C381 C378 1.387 . S
C382 C383 1.387 . S
C382 H386 0.950 1_455 S
C382 C391 1.390 1_564 S
C383 C382 1.387 . S
C383 C385 1.387 . S
H384 C391 0.950 . S
C385 C383 1.387 . S
C385 C387 1.390 1_564 S
C385 H389 0.950 . S
H386 C382 0.950 1_655 S
C387 C385 1.390 1_546 S
C387 C388 1.387 . S
C387 H390 0.950 . S
C388 C387 1.387 . S
C388 C391 1.387 . S
H389 C385 0.950 . S
H390 C387 0.950 . S
C391 C382 1.390 1_546 S
C391 H384 0.950 . S
C391 C388 1.387 . S
C392 C393 1.387 . S
C392 H396 0.950 . S
C392 C401 1.390 . S
C393 C392 1.387 . S
C393 C395 1.387 . S
H394 C401 0.950 . S
C395 C393 1.387 . S
C395 C397 1.390 . S
C395 H399 0.950 . S
H396 C392 0.950 . S
C397 C395 1.390 . S
C397 C398 1.387 . S
C397 H400 0.950 . S
C398 C397 1.387 . S
C398 C401 1.387 . S
H399 C395 0.950 . S
H400 C397 0.950 . S
C401 C392 1.390 . S
C401 H394 0.950 . S
C401 C398 1.387 . S
C402 C403 1.387 . S
C402 H406 0.950 . S
C402 C411 1.390 . S
C403 C402 1.387 . S
C403 C405 1.387 . S
H404 C411 0.950 . S
C405 C403 1.387 . S
C405 C407 1.390 . S
C405 H409 0.950 . S
H406 C402 0.950 . S
C407 C405 1.390 . S
C407 C408 1.387 . S
C407 H410 0.950 . S
C408 C407 1.387 . S
C408 C411 1.387 . S
H409 C405 0.950 . S
H410 C407 0.950 . S
C411 C402 1.390 . S
C411 H404 0.950 . S
C411 C408 1.387 . S
C412 C413 1.387 . S
C412 H416 0.950 . S
C412 C421 1.390 . S
C413 C412 1.387 . S
C413 C415 1.387 . S
H414 C421 0.950 . S
C415 C413 1.387 . S
C415 C417 1.390 . S
C415 H419 0.950 . S
H416 C412 0.950 . S
C417 C415 1.390 . S
C417 C418 1.387 1_455 S
C417 H420 0.950 1_455 S
C418 C417 1.387 1_655 S
C418 C421 1.387 1_655 S
H419 C415 0.950 . S
H420 C417 0.950 1_655 S
C421 C412 1.390 . S
C421 H414 0.950 . S
C421 C418 1.387 1_455 S
C422 C423 1.387 1_655 S
C422 H426 0.950 . S
C422 C431 1.390 1_655 S
C423 C422 1.387 1_455 S
C423 C425 1.387 . S
H424 C431 0.950 1_655 S
C425 C423 1.387 . S
C425 C427 1.390 . S
C425 H429 0.950 . S
H426 C422 0.950 . S
C427 C425 1.390 . S
C427 C428 1.387 . S
C427 H430 0.950 . S
C428 C427 1.387 . S
C428 C431 1.387 . S
H429 C425 0.950 . S
H430 C427 0.950 . S
C431 C422 1.390 1_455 S
C431 H424 0.950 1_455 S
C431 C428 1.387 . S
C432 C433 1.387 . S
C432 H436 0.950 . S
C432 C441 1.390 . S
C433 C432 1.387 . S
C433 C435 1.387 . S
H434 C441 0.950 . S
C435 C433 1.387 . S
C435 C437 1.390 . S
C435 H439 0.950 . S
H436 C432 0.950 . S
C437 C435 1.390 . S
C437 C438 1.387 . S
C437 H440 0.950 . S
C438 C437 1.387 . S
C438 C441 1.387 . S
H439 C435 0.950 . S
H440 C437 0.950 . S
C441 C432 1.390 . S
C441 H434 0.950 . S
C441 C438 1.387 . S
C442 C443 1.387 1_655 S
C442 H446 0.950 . S
C442 C451 1.390 . S
C443 C442 1.387 1_455 S
C443 C445 1.387 . S
H444 C451 0.950 . S
C445 C443 1.387 . S
C445 C447 1.390 . S
C445 H449 0.950 . S
H446 C442 0.950 . S
C447 C445 1.390 . S
C447 C448 1.387 . S
C447 H450 0.950 . S
C448 C447 1.387 . S
C448 C451 1.387 1_455 S
H449 C445 0.950 . S
H450 C447 0.950 . S
C451 C442 1.390 . S
C451 H444 0.950 . S
C451 C448 1.387 1_655 S
C452 C453 1.387 . S
C452 H456 0.950 . S
C452 C461 1.390 . S
C453 C452 1.387 . S
C453 C455 1.387 . S
H454 C461 0.950 . S
C455 C453 1.387 . S
C455 C457 1.390 . S
C455 H459 0.950 . S
H456 C452 0.950 . S
C457 C455 1.390 . S
C457 C458 1.387 . S
C457 H460 0.950 . S
C458 C457 1.387 . S
C458 C461 1.387 . S
H459 C455 0.950 . S
H460 C457 0.950 . S
C461 C452 1.390 . S
C461 H454 0.950 . S
C461 C458 1.387 . S
C462 C463 1.387 . S
C462 H466 0.950 . S
C462 C471 1.390 . S
C463 C462 1.387 . S
C463 C465 1.387 . S
H464 C471 0.950 . S
C465 C463 1.387 . S
C465 C467 1.390 . S
C465 H469 0.950 . S
H466 C462 0.950 . S
C467 C465 1.390 . S
C467 C468 1.387 . S
C467 H470 0.950 . S
C468 C467 1.387 . S
C468 C471 1.387 . S
H469 C465 0.950 . S
H470 C467 0.950 . S
C471 C462 1.390 . S
C471 H464 0.950 . S
C471 C468 1.387 . S
C273 C20 1.506 . S
C278 C190 1.506 . S
C283 C224 1.519 . S
C288 C54 1.517 . S
C293 C88 1.504 . S
C298 C258 1.504 . S
C303 C156 1.518 . S
C308 C122 1.519 . S
C313 C33 1.382 . S
C318 C138 1.383 . S
C323 C67 1.379 . S
C328 C172 1.381 . S
C333 C237 1.378 . S
C338 C70 1.381 . S
C343 C104 1.383 . S
C348 C271 1.381 . S
C353 C135 1.377 . S
C358 C240 1.380 . S
C363 C203 1.381 . S
C368 C36 1.383 . S
C373 C206 1.383 . S
C378 C101 1.381 . S
C383 C2 1.381 . S
C388 C169 1.378 . S
C393 C9 1.424 . S
C398 C5 1.525 . S
C403 C43 1.423 . S
C408 C39 1.527 1_545 S
C413 C77 1.427 . S
C418 C73 1.526 . S
C423 C111 1.427 . S
C428 C107 1.528 . S
C433 C141 1.528 . S
C438 C145 1.427 . S
C443 C179 1.428 . S
C448 C175 1.526 . S
C453 C213 1.423 . S
C458 C209 1.527 . S
C463 C243 1.526 . S
C468 C247 1.428 . S
