# Generated by pormake.
# Topology ure, (4)-cn, num edge types: 1
# Building blocks:
#     Node 0, Type 0, BuildingBlock: NAHDIM_clean_sbu_0, # of connection points: 4
#     Node 1, Type 0, BuildingBlock: NAHDIM_clean_sbu_0, # of connection points: 4
#     Node 2, Type 0, BuildingBlock: NAHDIM_clean_sbu_0, # of connection points: 4
#     Node 3, Type 0, BuildingBlock: NAHDIM_clean_sbu_0, # of connection points: 4
#     Node 4, Type 0, BuildingBlock: NAHDIM_clean_sbu_0, # of connection points: 4
#     Node 5, Type 0, BuildingBlock: NAHDIM_clean_sbu_0, # of connection points: 4
#     Node 6, Type 0, BuildingBlock: NAHDIM_clean_sbu_0, # of connection points: 4
#     Node 7, Type 0, BuildingBlock: NAHDIM_clean_sbu_0, # of connection points: 4
#     Node 8, Type 0, BuildingBlock: NAHDIM_clean_sbu_0, # of connection points: 4
#     Node 9, Type 0, BuildingBlock: NAHDIM_clean_sbu_0, # of connection points: 4
#     Node 10, Type 0, BuildingBlock: NAHDIM_clean_sbu_0, # of connection points: 4
#     Node 11, Type 0, BuildingBlock: NAHDIM_clean_sbu_0, # of connection points: 4
#     Node 12, Type 0, BuildingBlock: NAHDIM_clean_sbu_0, # of connection points: 4
#     Node 13, Type 0, BuildingBlock: NAHDIM_clean_sbu_0, # of connection points: 4
#     Node 14, Type 0, BuildingBlock: NAHDIM_clean_sbu_0, # of connection points: 4
#     Node 15, Type 0, BuildingBlock: NAHDIM_clean_sbu_0, # of connection points: 4
#     Edge 16, Type (0, 0), BuildingBlock: EZIPEK_clean_linker_0, # of connection points: 2
#     Edge 17, Type (0, 0), BuildingBlock: EZIPEK_clean_linker_0, # of connection points: 2
#     Edge 18, Type (0, 0), BuildingBlock: EZIPEK_clean_linker_0, # of connection points: 2
#     Edge 19, Type (0, 0), BuildingBlock: EZIPEK_clean_linker_0, # of connection points: 2
#     Edge 20, Type (0, 0), BuildingBlock: EZIPEK_clean_linker_0, # of connection points: 2
#     Edge 21, Type (0, 0), BuildingBlock: EZIPEK_clean_linker_0, # of connection points: 2
#     Edge 22, Type (0, 0), BuildingBlock: EZIPEK_clean_linker_0, # of connection points: 2
#     Edge 23, Type (0, 0), BuildingBlock: EZIPEK_clean_linker_0, # of connection points: 2
#     Edge 24, Type (0, 0), BuildingBlock: EZIPEK_clean_linker_0, # of connection points: 2
#     Edge 25, Type (0, 0), BuildingBlock: EZIPEK_clean_linker_0, # of connection points: 2
#     Edge 26, Type (0, 0), BuildingBlock: EZIPEK_clean_linker_0, # of connection points: 2
#     Edge 27, Type (0, 0), BuildingBlock: EZIPEK_clean_linker_0, # of connection points: 2
#     Edge 28, Type (0, 0), BuildingBlock: EZIPEK_clean_linker_0, # of connection points: 2
#     Edge 29, Type (0, 0), BuildingBlock: EZIPEK_clean_linker_0, # of connection points: 2
#     Edge 30, Type (0, 0), BuildingBlock: EZIPEK_clean_linker_0, # of connection points: 2
#     Edge 31, Type (0, 0), BuildingBlock: EZIPEK_clean_linker_0, # of connection points: 2
#     Edge 32, Type (0, 0), BuildingBlock: EZIPEK_clean_linker_0, # of connection points: 2
#     Edge 33, Type (0, 0), BuildingBlock: EZIPEK_clean_linker_0, # of connection points: 2
#     Edge 34, Type (0, 0), BuildingBlock: EZIPEK_clean_linker_0, # of connection points: 2
#     Edge 35, Type (0, 0), BuildingBlock: EZIPEK_clean_linker_0, # of connection points: 2
#     Edge 36, Type (0, 0), BuildingBlock: EZIPEK_clean_linker_0, # of connection points: 2
#     Edge 37, Type (0, 0), BuildingBlock: EZIPEK_clean_linker_0, # of connection points: 2
#     Edge 38, Type (0, 0), BuildingBlock: EZIPEK_clean_linker_0, # of connection points: 2
#     Edge 39, Type (0, 0), BuildingBlock: EZIPEK_clean_linker_0, # of connection points: 2
#     Edge 40, Type (0, 0), BuildingBlock: EZIPEK_clean_linker_0, # of connection points: 2
#     Edge 41, Type (0, 0), BuildingBlock: EZIPEK_clean_linker_0, # of connection points: 2
#     Edge 42, Type (0, 0), BuildingBlock: EZIPEK_clean_linker_0, # of connection points: 2
#     Edge 43, Type (0, 0), BuildingBlock: EZIPEK_clean_linker_0, # of connection points: 2
#     Edge 44, Type (0, 0), BuildingBlock: EZIPEK_clean_linker_0, # of connection points: 2
#     Edge 45, Type (0, 0), BuildingBlock: EZIPEK_clean_linker_0, # of connection points: 2
#     Edge 46, Type (0, 0), BuildingBlock: EZIPEK_clean_linker_0, # of connection points: 2
#     Edge 47, Type (0, 0), BuildingBlock: EZIPEK_clean_linker_0, # of connection points: 2
# Relax obj value: 0.102
# Max RMSD: 0.078
# Mean RMSD: 0.070
data_MOF--net-ure--node1-NAHDIM_clean_sbu_0--edge1-EZIPEK_clean_linker_0
_symmetry_space_group_name_H-M    P1
_symmetry_Int_Tables_number       1
_symmetry_cell_setting            triclinic
loop_
_symmetry_equiv_pos_as_xyz
'x, y, z'
_cell_length_a     22.420343
_cell_length_b     23.377095
_cell_length_c     24.047604
_cell_angle_alpha  90.588763
_cell_angle_beta   91.221001
_cell_angle_gamma 93.143748
loop_
_atom_site_label
_atom_site_type_symbol
_atom_site_fract_x
_atom_site_fract_y
_atom_site_fract_z
_atom_type_partial_charge
C0 C 0.20671 0.19841 0.19786 0.0
O1 O 0.24576 0.23506 0.1759 0.0
O2 O 0.33431 0.24846 0.26955 0.0
Zn3 Zn 0.2495 0.25962 0.29075 0.0
O4 O 0.22545 0.33587 0.26244 0.0
C5 C 0.27053 0.22608 0.40667 0.0
O6 O 0.3137 0.19681 0.38665 0.0
O7 O 0.19878 0.19954 0.24998 0.0
C8 C 0.23655 0.38209 0.28977 0.0
O9 O 0.26317 0.38082 0.33881 0.0
C10 C 0.37884 0.27452 0.29372 0.0
O11 O 0.37012 0.3118 0.33353 0.0
O12 O 0.2384 0.25464 0.37404 0.0
C13 C 0.02133 0.91141 0.45005 0.0
O14 O 0.98419 0.88508 0.48409 0.0
O15 O 0.88456 -3e-05 0.47212 0.0
Zn16 Zn 0.97195 0.01528 0.49185 0.0
O17 O 0.98696 0.00499 0.57389 0.0
C18 C 0.9682 0.13581 0.4995 0.0
O19 O 0.92953 0.12211 0.53801 0.0
O20 O 0.02305 0.96561 0.44667 0.0
C21 C 0.03822 0.01388 0.59693 0.0
O22 O 0.0843 0.02966 0.56679 0.0
C23 C 0.84642 0.98102 0.5067 0.0
O24 O 0.86389 0.96774 0.55718 0.0
O25 O 0.99347 0.09683 0.47332 0.0
C26 C 0.27317 0.82686 0.68707 0.0
O27 O 0.2177 0.80696 0.67934 0.0
O28 O 0.17974 0.74821 0.76681 0.0
Zn29 Zn 0.26891 0.74457 0.77386 0.0
O30 O 0.29226 0.66689 0.74642 0.0
C31 C 0.26962 0.79065 0.88674 0.0
O32 O 0.23416 0.82803 0.86551 0.0
O33 O 0.30518 0.80705 0.72599 0.0
C34 C 0.29492 0.62711 0.78187 0.0
O35 O 0.28743 0.63901 0.83454 0.0
C36 C 0.1419 0.70675 0.77399 0.0
O37 O 0.1598 0.65688 0.78989 0.0
O38 O 0.29231 0.75421 0.85511 0.0
C39 C 0.50664 0.08517 0.93682 0.0
O40 O 0.56416 0.09529 0.94624 0.0
O41 O 0.61168 0.98246 0.97792 0.0
Zn42 Zn 0.52435 0.98202 0.99824 0.0
O43 O 0.51882 0.0025 0.07912 0.0
C44 C 0.51019 0.86216 0.01176 0.0
O45 O 0.55786 0.87433 0.04317 0.0
O46 O 0.48069 0.0392 0.95389 0.0
C47 C 0.47789 0.97971 0.10863 0.0
O48 O 0.43611 0.94552 0.08504 0.0
C49 C 0.65204 0.00844 0.00819 0.0
O50 O 0.63711 0.03653 0.05287 0.0
O51 O 0.48589 0.9024 0.98619 0.0
C52 C 0.19369 0.80136 0.31644 0.0
O53 O 0.25 0.81235 0.3308 0.0
O54 O 0.32483 0.7511 0.26925 0.0
Zn55 Zn 0.24472 0.72867 0.23455 0.0
O56 O 0.23338 0.64401 0.24519 0.0
C57 C 0.28783 0.76794 0.12594 0.0
O58 O 0.33778 0.78219 0.15315 0.0
O59 O 0.18022 0.76773 0.27563 0.0
C60 C 0.20034 0.60971 0.21528 0.0
O61 O 0.16768 0.62911 0.17437 0.0
C62 C 0.36888 0.72164 0.25783 0.0
O63 O 0.36077 0.67703 0.2243 0.0
O64 O 0.24326 0.74612 0.15183 0.0
C65 C 0.38196 0.99254 0.53959 0.0
O66 O 0.36724 0.04576 0.5336 0.0
O67 O 0.45878 0.10483 0.46538 0.0
Zn68 Zn 0.47567 0.02082 0.46117 0.0
O69 O 0.56252 0.01248 0.48051 0.0
C70 C 0.48604 0.02291 0.34545 0.0
O71 O 0.5175 0.06984 0.3601 0.0
O72 O 0.42514 0.97372 0.51288 0.0
C73 C 0.59211 0.97342 0.45879 0.0
O74 O 0.56522 0.9358 0.42443 0.0
C75 C 0.47977 0.13682 0.50502 0.0
O76 O 0.51004 0.11446 0.54597 0.0
O77 O 0.46138 0.99233 0.38268 0.0
C78 C 0.35622 0.23926 0.82132 0.0
O79 O 0.37609 0.29047 0.80645 0.0
O80 O 0.27032 0.25305 0.67833 0.0
Zn81 Zn 0.25325 0.26966 0.75893 0.0
O82 O 0.1657 0.25243 0.77121 0.0
C83 C 0.30958 0.38432 0.74927 0.0
O84 O 0.34383 0.36054 0.71304 0.0
O85 O 0.30374 0.22098 0.80692 0.0
C86 C 0.13583 0.28032 0.80548 0.0
O87 O 0.16296 0.31895 0.83862 0.0
C88 C 0.22815 0.24728 0.64219 0.0
O89 O 0.17272 0.25233 0.6571 0.0
O90 O 0.27035 0.35383 0.77457 0.0
C91 C 0.06717 0.04361 0.05224 0.0
O92 O 0.01562 0.02167 0.0691 0.0
O93 O 0.03752 0.90638 0.95548 0.0
Zn94 Zn 0.02611 0.99123 0.95063 0.0
O95 O 0.94251 0.00777 0.97261 0.0
C96 C 0.0339 0.97806 0.83328 0.0
O97 O 0.01961 0.92495 0.84653 0.0
O98 O 0.0829 0.03536 0.0025 0.0
C99 C 0.89703 0.98603 0.9463 0.0
O100 O 0.90395 0.95197 0.90346 0.0
C101 C 0.02814 0.87517 0.99762 0.0
O102 O 0.01108 0.89798 0.04437 0.0
O103 O 0.03989 0.01613 0.87141 0.0
C104 C 0.70567 0.28124 0.83623 0.0
O105 O 0.74793 0.25343 0.86098 0.0
O106 O 0.84244 0.26447 0.7638 0.0
Zn107 Zn 0.75865 0.23883 0.73679 0.0
O108 O 0.74273 0.15287 0.7462 0.0
C109 C 0.78499 0.2657 0.62044 0.0
O110 O 0.84087 0.25957 0.63546 0.0
O111 O 0.701 0.28044 0.78345 0.0
C112 C 0.75702 0.11578 0.7104 0.0
O113 O 0.78403 0.13252 0.665 0.0
C114 C 0.88629 0.23297 0.75769 0.0
O115 O 0.87742 0.18252 0.73371 0.0
O116 O 0.74414 0.25991 0.65615 0.0
C117 C 0.94452 0.48221 0.06677 0.0
O118 O 0.97897 0.52537 0.08634 0.0
O119 O 0.99748 0.59808 0.98012 0.0
Zn120 Zn -0.00032 0.5134 0.96535 0.0
O121 O 0.08355 0.49092 0.97755 0.0
C122 C 0.93905 0.52276 0.85787 0.0
O123 O 0.90532 0.55879 0.88297 0.0
O124 O 0.94532 0.46899 0.01548 0.0
C125 C 0.10432 0.4458 0.95759 0.0
O126 O 0.06945 0.40908 0.92862 0.0
C127 C 0.04374 0.63059 0.9719 0.0
O128 O 0.09237 0.60875 0.95351 0.0
O129 O 0.97866 0.49766 0.88544 0.0
C130 C 0.79014 0.68168 0.28975 0.0
O131 O 0.76445 0.65104 0.24892 0.0
O132 O 0.7453 0.74349 0.16135 0.0
Zn133 Zn 0.72815 0.77028 0.23819 0.0
O134 O 0.64321 0.74746 0.25242 0.0
C135 C 0.78691 0.88424 0.23807 0.0
O136 O 0.83553 0.85728 0.22819 0.0
O137 O 0.78132 0.73468 0.29397 0.0
C138 C 0.61889 0.75736 0.29839 0.0
O139 O 0.65046 0.78223 0.33938 0.0
C140 C 0.7204 0.76838 0.12113 0.0
O141 O 0.68568 0.81054 0.13148 0.0
O142 O 0.73738 0.85609 0.2434 0.0
C143 C 0.94446 0.5804 0.45119 0.0
O144 O 0.98259 0.61224 0.48196 0.0
O145 O 0.0819 0.51042 0.49067 0.0
Zn146 Zn 0.99666 0.49101 0.51026 0.0
O147 O 0.98027 0.51709 0.58848 0.0
C148 C 0.0051 0.37725 0.46539 0.0
O149 O 0.03399 0.40355 0.42527 0.0
O150 O 0.94188 0.5264 0.45605 0.0
C151 C 0.95434 0.48286 0.62215 0.0
O152 O 0.93701 0.43089 0.60551 0.0
C153 C 0.11716 0.54317 0.52002 0.0
O154 O 0.09796 0.5677 0.56507 0.0
O155 O 0.9849 0.4058 0.50525 0.0
C156 C 0.53964 0.41031 0.96148 0.0
O157 O 0.49647 0.38298 0.98824 0.0
O158 O 0.39792 0.47566 0.96971 0.0
Zn159 Zn 0.47818 0.50481 0.0009 0.0
O160 O 0.4834 0.48969 0.08328 0.0
C161 C 0.44387 0.62107 0.00946 0.0
O162 O 0.39683 0.59609 0.0324 0.0
O163 O 0.54242 0.46477 0.96102 0.0
C164 C 0.51549 0.52213 0.11601 0.0
O165 O 0.54926 0.56426 0.09572 0.0
C166 C 0.35557 0.46206 0.00209 0.0
O167 O 0.36578 0.4623 0.05601 0.0
O168 O 0.48484 0.59085 0.99099 0.0
C169 C 0.71413 0.71283 0.68521 0.0
O170 O 0.74309 0.75359 0.65788 0.0
O171 O 0.85971 0.74028 0.77927 0.0
Zn172 Zn 0.77577 0.76454 0.78143 0.0
O173 O 0.77429 0.84576 0.75484 0.0
C174 C 0.7543 0.71864 0.88975 0.0
O175 O 0.76652 0.67005 0.86577 0.0
O176 O 0.72099 0.70957 0.73757 0.0
C177 C 0.72672 0.87142 0.7452 0.0
O178 O 0.67448 0.84389 0.75003 0.0
C179 C 0.89257 0.74674 0.73725 0.0
O180 O 0.87114 0.76847 0.69135 0.0
O181 O 0.75339 0.76409 0.86141 0.0
C182 C 0.78969 0.33737 0.20002 0.0
O183 O 0.73212 0.33817 0.1892 0.0
O184 O 0.6683 0.25896 0.25022 0.0
Zn185 Zn 0.75336 0.24532 0.27237 0.0
O186 O 0.77234 0.16519 0.24876 0.0
C187 C 0.74911 0.29677 0.38456 0.0
O188 O 0.72787 0.34131 0.35965 0.0
O189 O 0.80916 0.30216 0.23502 0.0
C190 C 0.76928 0.12498 0.28392 0.0
O191 O 0.75618 0.13661 0.33557 0.0
C192 C 0.62688 0.23131 0.27512 0.0
O193 O 0.64101 0.19057 0.30939 0.0
O194 O 0.76239 0.25338 0.35601 0.0
C195 C 0.56042 0.54464 0.5666 0.0
O196 O 0.52976 0.50359 0.59203 0.0
O197 O 0.50224 0.41914 0.48562 0.0
Zn198 Zn 0.49088 0.50386 0.47113 0.0
O199 O 0.40938 0.52871 0.49374 0.0
C200 C 0.4869 0.48707 0.35137 0.0
O201 O 0.45862 0.43822 0.36315 0.0
O202 O 0.55191 0.55217 0.51494 0.0
C203 C 0.3618 0.51523 0.46587 0.0
O204 O 0.36439 0.48391 0.42058 0.0
C205 C 0.45877 0.38213 0.48944 0.0
O206 O 0.404 0.39888 0.48795 0.0
O207 O 0.50404 0.52161 0.39027 0.0
C208 C 0.17445 0.0984 0.1675 0.0
C209 C 0.17029 0.1584 0.16151 0.0
C210 C 0.1027 0.14275 0.08081 0.0
C211 C 0.10347 0.08282 0.0893 0.0
N212 N 0.1331 0.00287 0.14405 0.0
N213 N 0.12247 0.238 0.11984 0.0
C214 C 0.13709 0.0604 0.13385 0.0
C215 C 0.13243 0.18075 0.12 0.0
N216 N 0.21605 0.07783 0.20345 0.0
N217 N 0.07361 0.16338 0.03526 0.0
H218 H 0.14239 0.26717 0.14865 0.0
H219 H 0.0904 0.256 0.09455 0.0
H220 H 0.04833 0.13728 0.00716 0.0
H221 H 0.07772 0.20602 0.02312 0.0
H222 H 0.22564 0.03482 0.20553 0.0
H223 H 0.24476 0.10432 0.22833 0.0
H224 H 0.15092 0.98465 0.17961 0.0
H225 H 0.10848 0.9734 0.11861 0.0
C226 C 0.0583 0.88288 0.35689 0.0
C227 C 0.06181 0.87864 0.41568 0.0
C228 C 0.14485 0.8154 0.40788 0.0
C229 C 0.14637 0.82586 0.34983 0.0
N230 N 0.11005 0.87628 0.26988 0.0
N231 N 0.11371 0.84765 0.49814 0.0
C232 C 0.10432 0.86111 0.32436 0.0
C233 C 0.10629 0.84644 0.44154 0.0
N234 N 0.01015 0.90646 0.33206 0.0
N235 N 0.17889 0.77448 0.43064 0.0
H236 H 0.08639 0.86973 0.52444 0.0
H237 H 0.15002 0.83079 0.51874 0.0
H238 H 0.20706 0.75012 0.40726 0.0
H239 H 0.17491 0.76079 0.47155 0.0
H240 H 0.002 0.9054 0.28925 0.0
H241 H 0.97522 0.92223 0.35458 0.0
H242 H 0.08477 0.90701 0.25094 0.0
H243 H 0.14367 0.86205 0.24474 0.0
C244 C 0.31698 0.9045 0.55485 0.0
C245 C 0.34872 0.95376 0.57734 0.0
C246 C 0.32263 0.92398 0.67145 0.0
C247 C 0.29837 0.87097 0.64936 0.0
N248 N 0.28014 0.80698 0.5704 0.0
N249 N 0.38822 0.00804 0.65705 0.0
C250 C 0.29715 0.86027 0.59108 0.0
C251 C 0.35304 0.96316 0.63566 0.0
N252 N 0.30476 0.90058 0.49894 0.0
N253 N 0.31474 0.93783 0.72609 0.0
H254 H 0.4107 0.03823 0.63233 0.0
H255 H 0.39892 0.01267 0.69924 0.0
H256 H 0.29162 0.91073 0.75339 0.0
H257 H 0.32608 0.97827 0.74302 0.0
H258 H 0.27627 0.86857 0.48089 0.0
H259 H 0.31835 0.93255 0.47124 0.0
H260 H 0.28425 0.7953 0.5288 0.0
H261 H 0.26728 0.77256 0.59549 0.0
C262 C 0.46062 0.18024 0.9305 0.0
C263 C 0.47185 0.1266 0.90569 0.0
C264 C 0.41372 0.1508 0.82266 0.0
C265 C 0.39676 0.20116 0.85014 0.0
N266 N 0.39825 0.26183 0.93191 0.0
N267 N 0.45676 0.05834 0.83001 0.0
C268 C 0.41906 0.2157 0.90437 0.0
C269 C 0.4476 0.11112 0.85232 0.0
N270 N 0.48945 0.19722 0.97908 0.0
N271 N 0.39997 0.14232 0.76736 0.0
H272 H 0.48516 0.02966 0.84823 0.0
H273 H 0.43364 0.04162 0.79498 0.0
H274 H 0.37595 0.17082 0.74384 0.0
H275 H 0.41702 0.10996 0.74339 0.0
H276 H 0.48893 0.23861 0.99543 0.0
H277 H 0.51748 0.17119 0.00135 0.0
H278 H 0.40767 0.27118 0.9737 0.0
H279 H 0.36769 0.28875 0.91417 0.0
C280 C 0.68558 0.35744 0.90712 0.0
C281 C 0.66359 0.31357 0.8695 0.0
C282 C 0.56104 0.33823 0.8877 0.0
C283 C 0.58261 0.37758 0.9297 0.0
N284 N 0.66503 0.41714 0.98668 0.0
N285 N 0.58005 0.25389 0.83324 0.0
C286 C 0.64484 0.38515 0.94152 0.0
C287 C 0.60119 0.30157 0.86239 0.0
N288 N 0.7449 0.37452 0.90831 0.0
N289 N 0.50279 0.33768 0.86983 0.0
H290 H 0.60796 0.22492 0.81532 0.0
H291 H 0.53505 0.24006 0.8317 0.0
H292 H 0.47187 0.3646 0.88629 0.0
H293 H 0.48702 0.31477 0.83467 0.0
H294 H 0.76223 0.41031 0.93063 0.0
H295 H 0.77606 0.35641 0.88286 0.0
H296 H 0.7094 0.41904 0.00069 0.0
H297 H 0.63659 0.43753 0.01329 0.0
C298 C 0.8609 0.4705 0.1341 0.0
C299 C 0.9078 0.44648 0.1046 0.0
C300 C 0.87623 0.35073 0.13634 0.0
C301 C 0.83185 0.3751 0.16896 0.0
N302 N 0.78968 0.45895 0.20813 0.0
N303 N 0.96931 0.36669 0.08828 0.0
C304 C 0.82641 0.4353 0.17058 0.0
C305 C 0.91828 0.38744 0.10897 0.0
N306 N 0.84761 0.52616 0.12551 0.0
N307 N 0.87638 0.29264 0.12895 0.0
H308 H 0.00182 0.39252 0.06875 0.0
H309 H 0.98227 0.32523 0.09545 0.0
H310 H 0.84533 0.26395 0.14681 0.0
H311 H 0.90372 0.27315 0.10075 0.0
H312 H 0.80976 0.54408 0.14108 0.0
H313 H 0.87172 0.55334 0.09901 0.0
H314 H 0.78848 0.50291 0.21514 0.0
H315 H 0.76437 0.43456 0.2361 0.0
C316 C 0.85292 0.6321 0.42776 0.0
C317 C 0.90549 0.60697 0.40998 0.0
C318 C 0.8839 0.63316 0.31356 0.0
C319 C 0.82926 0.65481 0.3308 0.0
N320 N 0.75632 0.6667 0.40175 0.0
N321 N 0.96873 0.57699 0.33642 0.0
C322 C 0.81231 0.65228 0.38729 0.0
C323 C 0.92022 0.60538 0.35293 0.0
N324 N 0.84206 0.63695 0.48334 0.0
N325 N 0.90231 0.64152 0.26022 0.0
H326 H 0.99823 0.5587 0.36432 0.0
H327 H 0.97789 0.56838 0.295 0.0
H328 H 0.87705 0.66187 0.23019 0.0
H329 H 0.94456 0.63243 0.24661 0.0
H330 H 0.80813 0.66053 0.49929 0.0
H331 H 0.86958 0.62055 0.51414 0.0
H332 H 0.73881 0.65998 0.44103 0.0
H333 H 0.72503 0.68098 0.37309 0.0
C334 C 0.66258 0.58827 0.58967 0.0
C335 C 0.60011 0.58602 0.59871 0.0
C336 C 0.61237 0.66722 0.6643 0.0
C337 C 0.67481 0.66962 0.65503 0.0
N338 N 0.76137 0.62784 0.61714 0.0
N339 N 0.51359 0.62654 0.63814 0.0
C340 C 0.70049 0.62918 0.61955 0.0
C341 C 0.57449 0.62593 0.63485 0.0
N342 N 0.68537 0.55187 0.55163 0.0
N343 N 0.58952 0.70422 0.70177 0.0
H344 H 0.48425 0.59729 0.61705 0.0
H345 H 0.49124 0.65797 0.65878 0.0
H346 H 0.61495 0.73779 0.72099 0.0
H347 H 0.54608 0.70058 0.71613 0.0
H348 H 0.72892 0.55576 0.53749 0.0
H349 H 0.65969 0.51888 0.53169 0.0
H350 H 0.78349 0.59564 0.59738 0.0
H351 H 0.79062 0.65696 0.63851 0.0
C352 C 0.27275 0.28409 0.49492 0.0
C353 C 0.26266 0.23017 0.46767 0.0
C354 C 0.22995 0.18683 0.55543 0.0
C355 C 0.24162 0.24055 0.58263 0.0
N356 N 0.28104 0.33836 0.58111 0.0
N357 N 0.238 0.12858 0.47187 0.0
C358 C 0.26492 0.28857 0.55315 0.0
C359 C 0.24343 0.18091 0.49801 0.0
N360 N 0.28898 0.33152 0.46488 0.0
N361 N 0.20473 0.14193 0.58435 0.0
H362 H 0.2438 0.12308 0.42929 0.0
H363 H 0.23081 0.08997 0.49245 0.0
H364 H 0.19644 0.14425 0.62682 0.0
H365 H 0.18894 0.10332 0.56618 0.0
H366 H 0.28586 0.37328 0.47963 0.0
H367 H 0.30352 0.32926 0.42416 0.0
H368 H 0.30709 0.37139 0.56378 0.0
H369 H 0.27208 0.34532 0.62289 0.0
C370 C 0.08171 0.96277 0.74151 0.0
C371 C 0.04108 0.99273 0.77401 0.0
C372 C 0.01149 0.04617 0.69198 0.0
C373 C 0.04449 0.00994 0.65814 0.0
N374 N 0.10841 0.9307 0.64957 0.0
N375 N 0.96003 0.05657 0.77832 0.0
C376 C 0.07946 0.96768 0.68259 0.0
C377 C 0.00438 0.03319 0.74896 0.0
N378 N 0.1233 0.93073 0.76709 0.0
N379 N 0.98826 0.09399 0.66995 0.0
H380 H 0.95185 0.04735 0.81987 0.0
H381 H 0.9277 0.08092 0.75981 0.0
H382 H 0.99418 0.10563 0.62863 0.0
H383 H 0.96934 0.12519 0.6941 0.0
H384 H 0.15776 0.91232 0.74614 0.0
H385 H 0.1269 0.92703 0.81022 0.0
H386 H 0.12871 0.89479 0.66464 0.0
H387 H 0.10865 0.93355 0.60635 0.0
C388 C 0.29991 0.83162 0.98094 0.0
C389 C 0.27566 0.78506 0.94791 0.0
C390 C 0.26833 0.72533 0.0308 0.0
C391 C 0.28488 0.77388 0.06465 0.0
N392 N 0.30754 0.87592 0.07248 0.0
N393 N 0.22401 0.69154 0.94333 0.0
C394 C 0.29853 0.82783 0.03991 0.0
C395 C 0.25638 0.7329 0.97331 0.0
N396 N 0.32589 0.87873 0.95609 0.0
N397 N 0.26617 0.67167 0.05299 0.0
H398 H 0.21122 0.69645 0.90179 0.0
H399 H 0.20448 0.65496 0.96132 0.0
H400 H 0.27685 0.66405 0.09458 0.0
H401 H 0.26017 0.63442 0.02886 0.0
H402 H 0.35003 0.91124 0.97812 0.0
H403 H 0.32803 0.88278 0.913 0.0
H404 H 0.31123 0.91713 0.05636 0.0
H405 H 0.30577 0.87531 0.11576 0.0
C406 C 0.4273 0.0053 0.2565 0.0
C407 C 0.4826 0.00511 0.28628 0.0
C408 C 0.53352 0.98123 0.20054 0.0
C409 C 0.47958 0.98842 0.16979 0.0
N410 N 0.37809 0.01822 0.16738 0.0
N411 N 0.58931 0.99577 0.28739 0.0
C412 C 0.42701 0.00276 0.19747 0.0
C413 C 0.53604 0.99413 0.25842 0.0
N414 N 0.37515 0.00934 0.28437 0.0
N415 N 0.58118 0.95851 0.17535 0.0
H416 H 0.59261 0.99973 0.33056 0.0
H417 H 0.63066 0.99579 0.26856 0.0
H418 H 0.58043 0.94473 0.13403 0.0
H419 H 0.61924 0.94666 0.19685 0.0
H420 H 0.33313 0.00291 0.26528 0.0
H421 H 0.37346 0.01496 0.32733 0.0
H422 H 0.34099 0.03526 0.18528 0.0
H423 H 0.37685 0.02006 0.12409 0.0
C424 C 0.48143 0.30942 0.26718 0.0
C425 C 0.44044 0.26289 0.27758 0.0
C426 C 0.52007 0.19736 0.26259 0.0
C427 C 0.56311 0.244 0.26672 0.0
N428 N 0.58124 0.3483 0.27255 0.0
N429 N 0.42217 0.16071 0.28869 0.0
C430 C 0.54329 0.3009 0.26792 0.0
C431 C 0.45975 0.20617 0.27534 0.0
N432 N 0.46165 0.36242 0.25661 0.0
N433 N 0.5364 0.14497 0.24477 0.0
H434 H 0.378 0.1643 0.29999 0.0
H435 H 0.43681 0.11962 0.29336 0.0
H436 H 0.57993 0.13737 0.23332 0.0
H437 H 0.50515 0.11181 0.23436 0.0
H438 H 0.49084 0.39624 0.24522 0.0
H439 H 0.41641 0.37076 0.25407 0.0
H440 H 0.62755 0.34782 0.27664 0.0
H441 H 0.62755 0.34782 0.27664 0.0
C442 C 0.04076 0.28636 0.50416 0.0
C443 C 0.0012 0.31427 0.4679 0.0
C444 C 0.94364 0.22416 0.44858 0.0
C445 C 0.9817 0.19643 0.4863 0.0
N446 N 0.06678 0.19793 0.54914 0.0
N447 N 0.92487 0.30957 0.39586 0.0
C448 C 0.0309 0.22655 0.51343 0.0
C449 C 0.9556 0.28304 0.43705 0.0
N450 N 0.08823 0.31725 0.5285 0.0
N451 N 0.89481 0.19451 0.42547 0.0
H452 H 0.93258 0.35282 0.38665 0.0
H453 H 0.89499 0.28826 0.36803 0.0
H454 H 0.88591 0.1508 0.43144 0.0
H455 H 0.86124 0.21346 0.40293 0.0
H456 H 0.12072 0.30023 0.55384 0.0
H457 H 0.09699 0.36084 0.52142 0.0
H458 H 0.10128 0.21708 0.57333 0.0
H459 H 0.06152 0.15391 0.5556 0.0
C460 C 0.99191 0.77248 0.78203 0.0
C461 C 0.95699 0.73795 0.74344 0.0
C462 C 0.04492 0.68488 0.72141 0.0
C463 C 0.07772 0.71556 0.7645 0.0
N464 N 0.08134 0.78697 0.83815 0.0
N465 N 0.94769 0.65757 0.67976 0.0
C466 C 0.05084 0.75874 0.79536 0.0
C467 C 0.98282 0.69315 0.71382 0.0
N468 N 0.97003 0.81905 0.8073 0.0
N469 N 0.0737 0.65018 0.686 0.0
H470 H 0.90218 0.66263 0.67305 0.0
H471 H 0.96254 0.62096 0.66078 0.0
H472 H 0.11915 0.64361 0.68977 0.0
H473 H 0.05383 0.63165 0.65019 0.0
H474 H 0.92777 0.8341 0.79924 0.0
H475 H 0.92777 0.8341 0.79924 0.0
H476 H 0.06313 0.81961 0.86109 0.0
H477 H 0.12334 0.77589 0.85247 0.0
C478 C 0.45072 0.71459 0.95968 0.0
C479 C 0.45198 0.68424 0.01029 0.0
C480 C 0.47362 0.77421 0.0615 0.0
C481 C 0.48328 0.80276 0.01038 0.0
N482 N 0.48556 0.79893 0.90987 0.0
N483 N 0.46823 0.684 0.10989 0.0
C484 C 0.47207 0.77298 0.95906 0.0
C485 C 0.46356 0.7138 0.0615 0.0
N486 N 0.42814 0.68778 0.91245 0.0
N487 N 0.47299 0.80496 0.11009 0.0
H488 H 0.46077 0.63977 0.1119 0.0
H489 H 0.48414 0.7024 0.14735 0.0
H490 H 0.47911 0.84941 0.11199 0.0
H491 H 0.46049 0.78702 0.14776 0.0
H492 H 0.42015 0.70922 0.8755 0.0
H493 H 0.41177 0.64512 0.91197 0.0
H494 H 0.4847 0.77706 0.87189 0.0
H495 H 0.50265 0.84113 0.90724 0.0
C496 C 0.52165 0.79607 0.27146 0.0
C497 C 0.55322 0.75402 0.29982 0.0
C498 C 0.4604 0.69586 0.31143 0.0
C499 C 0.42935 0.73717 0.28094 0.0
N500 N 0.4268 0.83497 0.24896 0.0
N501 N 0.55338 0.67015 0.35671 0.0
C502 C 0.45862 0.79012 0.26676 0.0
C503 C 0.52262 0.706 0.3235 0.0
N504 N 0.55213 0.84033 0.24608 0.0
N505 N 0.43017 0.64694 0.32825 0.0
H506 H 0.59909 0.67664 0.36528 0.0
H507 H 0.53359 0.63646 0.37882 0.0
H508 H 0.38405 0.64015 0.32282 0.0
H509 H 0.45024 0.61277 0.34681 0.0
H510 H 0.5322 0.86464 0.21566 0.0
H511 H 0.59793 0.84953 0.25179 0.0
H512 H 0.44599 0.87611 0.24371 0.0
H513 H 0.38055 0.83326 0.24445 0.0
C514 C 0.50465 0.23019 0.45808 0.0
C515 C 0.47609 0.19989 0.50193 0.0
C516 C 0.44312 0.28996 0.54085 0.0
C517 C 0.46868 0.32008 0.49534 0.0
N518 N 0.53011 0.32083 0.41392 0.0
N519 N 0.41007 0.19859 0.57972 0.0
C520 C 0.50114 0.29073 0.45474 0.0
C521 C 0.44339 0.22916 0.54208 0.0
N522 N 0.53374 0.20056 0.41859 0.0
N523 N 0.42176 0.31987 0.58467 0.0
H524 H 0.40928 0.15403 0.58207 0.0
H525 H 0.37932 0.21672 0.60549 0.0
H526 H 0.42288 0.36452 0.58642 0.0
H527 H 0.40824 0.30101 0.62169 0.0
H528 H 0.5477 0.21761 0.38108 0.0
H529 H 0.54362 0.15781 0.42283 0.0
H530 H 0.56197 0.30411 0.38854 0.0
H531 H 0.52515 0.36408 0.40675 0.0
C532 C 0.04035 0.22335 0.82265 0.0
C533 C 0.06993 0.27379 0.80245 0.0
C534 C 0.97675 0.30225 0.75811 0.0
C535 C 0.94712 0.2516 0.7784 0.0
N536 N 0.9458 0.17407 0.84364 0.0
N537 N 0.0647 0.36751 0.76204 0.0
C538 C 0.97752 0.21515 0.81484 0.0
C539 C 0.03742 0.31553 0.7742 0.0
N540 N 0.07247 0.18276 0.84835 0.0
N541 N 0.94845 0.33573 0.72067 0.0
H542 H 0.10976 0.37801 0.77064 0.0
H543 H 0.04161 0.40198 0.74755 0.0
H544 H 0.90402 0.32826 0.70795 0.0
H545 H 0.97015 0.36883 0.69906 0.0
H546 H 0.05461 0.14199 0.85767 0.0
H547 H 0.11809 0.18875 0.85757 0.0
H548 H 0.96459 0.14967 0.87476 0.0
H549 H 0.89938 0.16844 0.84038 0.0
C550 C 0.99159 0.78108 0.95548 0.0
C551 C 0.03201 0.81242 0.99215 0.0
C552 C 0.07853 0.72371 0.01809 0.0
C553 C 0.04109 0.69333 0.97821 0.0
N554 N 0.97132 0.69441 0.90068 0.0
N555 N 0.11981 0.81602 0.052 0.0
C556 C 0.00011 0.72238 0.94461 0.0
C557 C 0.07714 0.78442 0.02182 0.0
N558 N 0.94442 0.80723 0.9318 0.0
N559 N 0.11378 0.69439 0.05368 0.0
H560 H 0.12008 0.86053 0.05583 0.0
H561 H 0.15747 0.79882 0.06978 0.0
H562 H 0.11626 0.64998 0.05201 0.0
H563 H 0.13708 0.71338 0.08757 0.0
H564 H 0.90982 0.78544 0.90945 0.0
H565 H 0.93741 0.85047 0.93769 0.0
H566 H 0.94348 0.71398 0.87242 0.0
H567 H 0.97919 0.65237 0.88941 0.0
C568 C 0.18096 0.47176 0.29605 0.0
C569 C 0.22009 0.43743 0.26635 0.0
C570 C 0.23009 0.51053 0.19427 0.0
C571 C 0.19879 0.54807 0.22823 0.0
N572 N 0.14179 0.56565 0.3098 0.0
N573 N 0.28698 0.42558 0.1901 0.0
C574 C 0.17317 0.52888 0.27862 0.0
C575 C 0.24518 0.45665 0.21563 0.0
N576 N 0.15024 0.44905 0.33995 0.0
N577 N 0.24599 0.52663 0.1419 0.0
H578 H 0.30077 0.38661 0.20497 0.0
H579 H 0.31212 0.44072 0.15691 0.0
H580 H 0.23717 0.56646 0.12551 0.0
H581 H 0.26308 0.49881 0.11293 0.0
H582 H 0.11744 0.46988 0.36089 0.0
H583 H 0.15401 0.40695 0.35296 0.0
H584 H 0.12653 0.55669 0.34946 0.0
H585 H 0.13215 0.60651 0.2964 0.0
C586 C 0.76967 0.02883 0.76929 0.0
C587 C 0.74575 0.05362 0.72063 0.0
C588 C 0.7101 0.95798 0.68664 0.0
C589 C 0.73056 0.93416 0.73705 0.0
N590 N 0.76554 0.94864 0.8319 0.0
N591 N 0.68283 0.04348 0.63799 0.0
C592 C 0.75617 0.97008 0.77999 0.0
C593 C 0.71296 0.01863 0.6806 0.0
N594 N 0.80805 0.0603 0.80399 0.0
N595 N 0.6897 0.92264 0.64395 0.0
H596 H 0.68228 0.08772 0.63341 0.0
H597 H 0.65376 0.0208 0.61034 0.0
H598 H 0.6869 0.87809 0.64692 0.0
H599 H 0.6797 0.93724 0.60434 0.0
H600 H 0.83309 0.04179 0.8353 0.0
H601 H 0.8197 0.1035 0.79813 0.0
H602 H 0.777 0.97472 0.86618 0.0
H603 H 0.75552 0.90596 0.84207 0.0
C604 C 0.2599 0.40171 0.99799 0.0
C605 C 0.29367 0.45118 0.98035 0.0
C606 C 0.20505 0.48412 0.93196 0.0
C607 C 0.16963 0.44121 0.95871 0.0
N608 N 0.16174 0.35894 0.01815 0.0
N609 N 0.29605 0.54353 0.93517 0.0
C610 C 0.1966 0.39928 0.9914 0.0
C611 C 0.26603 0.49305 0.94769 0.0
N612 N 0.28857 0.35686 0.02018 0.0
N613 N 0.18037 0.51614 0.89108 0.0
H614 H 0.34105 0.55282 0.94432 0.0
H615 H 0.27436 0.57859 0.92009 0.0
H616 H 0.13575 0.51004 0.87804 0.0
H617 H 0.20557 0.54428 0.86636 0.0
H618 H 0.267 0.31764 0.02944 0.0
H619 H 0.33503 0.35697 0.02416 0.0
H620 H 0.17838 0.33145 0.04778 0.0
H621 H 0.11535 0.35525 0.01309 0.0
C622 C 0.81974 0.03339 0.29967 0.0
C623 C 0.77957 0.06507 0.2674 0.0
C624 C 0.75723 0.9807 0.20767 0.0
C625 C 0.78944 0.94717 0.24539 0.0
N626 N 0.84615 0.93992 0.33123 0.0
N627 N 0.70303 0.06638 0.19495 0.0
C628 C 0.81968 0.97305 0.29234 0.0
C629 C 0.7468 0.03833 0.22206 0.0
N630 N 0.85939 0.06122 0.33599 0.0
N631 N 0.73744 0.95766 0.15772 0.0
H632 H 0.69163 0.10763 0.20556 0.0
H633 H 0.67387 0.04667 0.16545 0.0
H634 H 0.74524 0.91578 0.14565 0.0
H635 H 0.71869 0.98168 0.12628 0.0
H636 H 0.89334 0.04097 0.35694 0.0
H637 H 0.86259 0.1057 0.34041 0.0
H638 H 0.86274 0.95593 0.36939 0.0
H639 H 0.84744 0.89553 0.32742 0.0
C640 C 0.80413 0.94688 0.99033 0.0
C641 C 0.83654 0.9942 0.96724 0.0
C642 C 0.75056 0.05359 0.97864 0.0
C643 C 0.71596 0.00413 0.99519 0.0
N644 N 0.70844 0.90298 0.01498 0.0
N645 N 0.8423 0.09255 0.93802 0.0
C646 C 0.74236 0.95054 0.00034 0.0
C647 C 0.8105 0.04788 0.96168 0.0
N648 N 0.8334 0.89955 0.00572 0.0
N649 N 0.72602 0.10589 0.97897 0.0
H650 H 0.8866 0.09007 0.92632 0.0
H651 H 0.82414 0.13082 0.92657 0.0
H652 H 0.68143 0.11133 0.98807 0.0
H653 H 0.75035 0.1445 0.97336 0.0
H654 H 0.81382 0.86602 0.02826 0.0
H655 H 0.8793 0.89665 0.00146 0.0
H656 H 0.72267 0.86152 0.01119 0.0
H657 H 0.66475 0.90464 0.0283 0.0
C658 C 0.25986 0.53583 0.73235 0.0
C659 C 0.30409 0.56707 0.76513 0.0
C660 C 0.35583 0.47886 0.78301 0.0
C661 C 0.30925 0.44734 0.75346 0.0
N662 N 0.21378 0.44335 0.70519 0.0
N663 N 0.40054 0.57216 0.8111 0.0
C664 C 0.26063 0.47521 0.72923 0.0
C665 C 0.35392 0.53953 0.78765 0.0
N666 N 0.21807 0.56409 0.7028 0.0
N667 N 0.40013 0.4503 0.8088 0.0
H668 H 0.4014 0.61681 0.81217 0.0
H669 H 0.44038 0.55612 0.82526 0.0
H670 H 0.40323 0.40608 0.80527 0.0
H671 H 0.43206 0.46933 0.83613 0.0
H672 H 0.18985 0.54458 0.67246 0.0
H673 H 0.21503 0.60825 0.70438 0.0
H674 H 0.1732 0.45994 0.69421 0.0
H675 H 0.21388 0.39926 0.6983 0.0
C676 C 0.21683 0.50625 0.54234 0.0
C677 C 0.18175 0.54269 0.51023 0.0
C678 C 0.26685 0.56553 0.45083 0.0
C679 C 0.30278 0.53142 0.48519 0.0
N680 N 0.31555 0.48229 0.57235 0.0
N681 N 0.17482 0.61509 0.44041 0.0
C682 C 0.2791 0.50633 0.53395 0.0
C683 C 0.20728 0.57499 0.46642 0.0
N684 N 0.19017 0.46821 0.57806 0.0
N685 N 0.2895 0.58821 0.40305 0.0
H686 H 0.13098 0.62259 0.45094 0.0
H687 H 0.19245 0.64352 0.41122 0.0
H688 H 0.33413 0.58553 0.39257 0.0
H689 H 0.26365 0.60729 0.3727 0.0
H690 H 0.21258 0.43454 0.59523 0.0
H691 H 0.14459 0.46659 0.58611 0.0
H692 H 0.30075 0.46936 0.6113 0.0
H693 H 0.36126 0.47908 0.56747 0.0
C694 C 0.68622 0.73116 0.96947 0.0
C695 C 0.74408 0.72179 0.95008 0.0
C696 C 0.78698 0.74199 0.04296 0.0
C697 C 0.72871 0.74903 0.06313 0.0
N698 N 0.62211 0.73285 0.04895 0.0
N699 N 0.84651 0.70198 0.97109 0.0
C700 C 0.67797 0.73857 0.02738 0.0
C701 C 0.79343 0.72154 0.98781 0.0
N702 N 0.63918 0.73346 0.93263 0.0
N703 N 0.83637 0.75858 0.07472 0.0
H704 H 0.85308 0.68726 0.93077 0.0
H705 H 0.88189 0.69519 0.99861 0.0
H706 H 0.83413 0.7768 0.11429 0.0
H707 H 0.87956 0.76012 0.05941 0.0
H708 H 0.59764 0.74718 0.9438 0.0
H709 H 0.64273 0.72483 0.8902 0.0
H710 H 0.58466 0.71874 0.02529 0.0
H711 H 0.61416 0.73556 0.09144 0.0
C712 C 0.44534 0.51479 0.25883 0.0
C713 C 0.49571 0.50293 0.29267 0.0
C714 C 0.5595 0.50595 0.21105 0.0
C715 C 0.50909 0.51683 0.17695 0.0
N716 N 0.40656 0.54309 0.1691 0.0
N717 N 0.60241 0.49008 0.30069 0.0
C718 C 0.45258 0.52428 0.20103 0.0
C719 C 0.55307 0.50045 0.26913 0.0
N720 N 0.39026 0.51605 0.28199 0.0
N721 N 0.61394 0.49903 0.1881 0.0
H722 H 0.60229 0.48436 0.34368 0.0
H723 H 0.60229 0.48436 0.34368 0.0
H724 H 0.62095 0.50033 0.14538 0.0
H725 H 0.65189 0.49082 0.212 0.0
H726 H 0.3504 0.5174 0.25933 0.0
H727 H 0.38402 0.51421 0.32464 0.0
H728 H 0.36677 0.55645 0.18495 0.0
H729 H 0.40954 0.54982 0.12659 0.0
C730 C 0.79053 0.33336 0.47742 0.0
C731 C 0.75235 0.29412 0.44618 0.0
C732 C 0.73184 0.23821 0.53003 0.0
C733 C 0.76978 0.27757 0.56148 0.0
N734 N 0.82079 0.37081 0.56863 0.0
N735 N 0.67296 0.22063 0.44562 0.0
C736 C 0.79495 0.32761 0.53619 0.0
C737 C 0.71896 0.24987 0.47339 0.0
N738 N 0.82429 0.37476 0.45096 0.0
N739 N 0.70951 0.18879 0.55357 0.0
H740 H 0.66017 0.23065 0.40518 0.0
H741 H 0.64351 0.19129 0.4645 0.0
H742 H 0.71639 0.17909 0.59519 0.0
H743 H 0.68733 0.15543 0.53112 0.0
H744 H 0.85809 0.40016 0.47085 0.0
H745 H 0.8217 0.38096 0.40813 0.0
H746 H 0.83292 0.41115 0.55319 0.0
H747 H 0.82416 0.36838 0.61188 0.0
C748 C 0.00085 0.51463 0.71369 0.0
C749 C 0.94883 0.49899 0.68133 0.0
C750 C 0.88824 0.50062 0.76497 0.0
C751 C 0.93993 0.51945 0.79649 0.0
N752 N 0.04117 0.56025 0.79807 0.0
N753 N 0.84131 0.49025 0.67337 0.0
C754 C 0.99491 0.53156 0.76988 0.0
C755 C 0.89187 0.49597 0.70613 0.0
N756 N 0.05622 0.51029 0.69194 0.0
N757 N 0.83662 0.48462 0.79124 0.0
H758 H 0.84248 0.48813 0.63005 0.0
H759 H 0.79847 0.49334 0.68867 0.0
H760 H 0.83232 0.4873 0.83427 0.0
H761 H 0.79963 0.4645 0.77082 0.0
H762 H 0.09531 0.51564 0.7159 0.0
H763 H 0.0632 0.49566 0.65167 0.0
H764 H 0.08097 0.57352 0.77953 0.0
H765 H 0.03762 0.57614 0.83848 0.0
C766 C 0.74807 0.92519 0.49449 0.0
C767 C 0.78188 0.97813 0.49159 0.0
C768 C 0.69299 0.02484 0.45792 0.0
C769 C 0.65771 0.9739 0.46805 0.0
N770 N 0.65016 0.87731 0.50293 0.0
N771 N 0.78506 0.08057 0.47851 0.0
C772 C 0.68484 0.92428 0.48774 0.0
C773 C 0.754 0.02862 0.47527 0.0
N774 N 0.77653 0.87552 0.50208 0.0
N775 N 0.66868 0.06899 0.43011 0.0
H776 H 0.82901 0.08552 0.49322 0.0
H777 H 0.76603 0.1195 0.4714 0.0
H778 H 0.62494 0.06709 0.41442 0.0
H779 H 0.69327 0.10542 0.41773 0.0
H780 H 0.75492 0.835 0.49868 0.0
H781 H 0.82283 0.87445 0.50659 0.0
H782 H 0.66709 0.84246 0.52342 0.0
H783 H 0.60364 0.87529 0.49999 0.0
loop_
_geom_bond_atom_site_label_1
_geom_bond_atom_site_label_2
_geom_bond_distance
_geom_bond_site_symmetry_2
_ccdc_geom_bond_type
C0 O1 1.160 . S
C0 O7 1.185 . S
O1 C0 1.160 . S
O2 Zn3 1.899 . S
O2 C10 1.284 . S
Zn3 O2 1.899 . S
Zn3 O4 2.032 . S
Zn3 O7 2.086 . S
Zn3 O12 1.977 . S
O4 Zn3 2.032 . S
O4 C8 1.278 . S
C5 O6 1.203 . S
C5 O12 1.267 . S
O6 C5 1.203 . S
O7 C0 1.185 . S
O7 Zn3 2.086 . S
C8 O4 1.278 . S
C8 O9 1.211 . S
O9 C8 1.211 . S
C10 O2 1.284 . S
C10 O11 1.273 . S
O11 C10 1.273 . S
O12 Zn3 1.977 . S
O12 C5 1.267 . S
C13 O14 1.160 1_455 S
C13 O20 1.185 . S
O14 C13 1.160 1_655 S
O15 Zn16 1.899 . S
O15 C23 1.284 1_545 S
Zn16 O15 1.899 . S
Zn16 O17 2.032 1_545 S
Zn16 O20 2.086 1_645 S
Zn16 O25 1.977 1_655 S
O17 Zn16 2.032 1_565 S
O17 C21 1.278 . S
C18 O19 1.203 . S
C18 O25 1.267 1_655 S
O19 C18 1.203 . S
O20 C13 1.185 . S
O20 Zn16 2.086 1_465 S
C21 O17 1.278 . S
C21 O22 1.211 1_565 S
O22 C21 1.211 1_545 S
C23 O15 1.284 1_565 S
C23 O24 1.273 1_565 S
O24 C23 1.273 1_545 S
O25 Zn16 1.977 1_455 S
O25 C18 1.267 1_455 S
C26 O27 1.160 . S
C26 O33 1.185 . S
O27 C26 1.160 . S
O28 Zn29 1.899 . S
O28 C36 1.284 . S
Zn29 O28 1.899 . S
Zn29 O30 2.032 . S
Zn29 O33 2.086 . S
Zn29 O38 1.977 . S
O30 Zn29 2.032 . S
O30 C34 1.278 . S
C31 O32 1.203 . S
C31 O38 1.267 . S
O32 C31 1.203 . S
O33 C26 1.185 . S
O33 Zn29 2.086 . S
C34 O30 1.278 . S
C34 O35 1.211 . S
O35 C34 1.211 . S
C36 O28 1.284 . S
C36 O37 1.273 . S
O37 C36 1.273 . S
O38 Zn29 1.977 . S
O38 C31 1.267 . S
C39 O40 1.160 . S
C39 O46 1.185 . S
O40 C39 1.160 . S
O41 Zn42 1.899 1_556 S
O41 C49 1.287 . S
Zn42 O41 1.899 1_554 S
Zn42 O43 2.032 1_565 S
Zn42 O46 2.086 1_564 S
Zn42 O51 1.977 1_554 S
O43 Zn42 2.032 1_545 S
O43 C47 1.278 1_545 S
C44 O45 1.203 . S
C44 O51 1.265 1_554 S
O45 C44 1.203 . S
O46 C39 1.185 . S
O46 Zn42 2.086 1_546 S
C47 O43 1.278 1_565 S
C47 O48 1.211 . S
O48 C47 1.211 . S
C49 O41 1.287 . S
C49 O50 1.268 1_556 S
O50 C49 1.268 1_554 S
O51 Zn42 1.977 1_556 S
O51 C44 1.265 1_556 S
C52 O53 1.160 . S
C52 O59 1.185 . S
O53 C52 1.160 . S
O54 Zn55 1.899 . S
O54 C62 1.284 . S
Zn55 O54 1.899 . S
Zn55 O56 2.032 . S
Zn55 O59 2.086 . S
Zn55 O64 1.977 . S
O56 Zn55 2.032 . S
O56 C60 1.278 . S
C57 O58 1.203 . S
C57 O64 1.267 . S
O58 C57 1.203 . S
O59 C52 1.185 . S
O59 Zn55 2.086 . S
C60 O56 1.278 . S
C60 O61 1.211 . S
O61 C60 1.211 . S
C62 O54 1.284 . S
C62 O63 1.273 . S
O63 C62 1.273 . S
O64 Zn55 1.977 . S
O64 C57 1.267 . S
C65 O66 1.160 1_565 S
C65 O72 1.185 . S
O66 C65 1.160 1_545 S
O67 Zn68 1.899 . S
O67 C75 1.284 . S
Zn68 O67 1.899 . S
Zn68 O69 2.032 . S
Zn68 O72 2.086 1_545 S
Zn68 O77 1.977 1_545 S
O69 Zn68 2.032 . S
O69 C73 1.278 . S
C70 O71 1.203 . S
C70 O77 1.267 1_545 S
O71 C70 1.203 . S
O72 C65 1.185 . S
O72 Zn68 2.086 1_565 S
C73 O69 1.278 . S
C73 O74 1.211 . S
O74 C73 1.211 . S
C75 O67 1.284 . S
C75 O76 1.273 . S
O76 C75 1.273 . S
O77 Zn68 1.977 1_565 S
O77 C70 1.267 1_565 S
C78 O79 1.160 . S
C78 O85 1.185 . S
O79 C78 1.160 . S
O80 Zn81 1.899 . S
O80 C88 1.284 . S
Zn81 O80 1.899 . S
Zn81 O82 2.032 . S
Zn81 O85 2.086 . S
Zn81 O90 1.977 . S
O82 Zn81 2.032 . S
O82 C86 1.278 . S
C83 O84 1.203 . S
C83 O90 1.267 . S
O84 C83 1.203 . S
O85 C78 1.185 . S
O85 Zn81 2.086 . S
C86 O82 1.278 . S
C86 O87 1.211 . S
O87 C86 1.211 . S
C88 O80 1.284 . S
C88 O89 1.273 . S
O89 C88 1.273 . S
O90 Zn81 1.977 . S
O90 C83 1.267 . S
C91 O92 1.160 1_545 S
C91 O98 1.175 1_554 S
O92 C91 1.160 1_565 S
O93 Zn94 1.899 1_455 S
O93 C101 1.284 1_455 S
Zn94 O93 1.899 1_655 S
Zn94 O95 2.032 . S
Zn94 O98 2.091 1_665 S
Zn94 O103 1.977 1_665 S
O95 Zn94 2.032 . S
O95 C99 1.278 . S
C96 O97 1.203 . S
C96 O103 1.267 1_665 S
O97 C96 1.203 . S
O98 C91 1.175 1_556 S
O98 Zn94 2.091 1_445 S
C99 O95 1.278 . S
C99 O100 1.211 . S
O100 C99 1.211 . S
C101 O93 1.284 1_655 S
C101 O102 1.273 . S
O102 C101 1.273 . S
O103 Zn94 1.977 1_445 S
O103 C96 1.267 1_445 S
C104 O105 1.160 . S
C104 O111 1.185 . S
O105 C104 1.160 . S
O106 Zn107 1.899 . S
O106 C114 1.284 . S
Zn107 O106 1.899 . S
Zn107 O108 2.032 . S
Zn107 O111 2.086 . S
Zn107 O116 1.977 . S
O108 Zn107 2.032 . S
O108 C112 1.278 . S
C109 O110 1.203 . S
C109 O116 1.267 . S
O110 C109 1.203 . S
O111 C104 1.185 . S
O111 Zn107 2.086 . S
C112 O108 1.278 . S
C112 O113 1.211 . S
O113 C112 1.211 . S
C114 O106 1.284 . S
C114 O115 1.273 . S
O115 C114 1.273 . S
O116 Zn107 1.977 . S
O116 C109 1.267 . S
C117 O118 1.160 . S
C117 O124 1.185 1_554 S
O118 C117 1.160 . S
O119 Zn120 1.899 1_655 S
O119 C127 1.284 1_655 S
Zn120 O119 1.899 1_455 S
Zn120 O121 2.032 . S
Zn120 O124 2.086 1_455 S
Zn120 O129 1.977 1_455 S
O121 Zn120 2.032 . S
O121 C125 1.278 . S
C122 O123 1.203 . S
C122 O129 1.267 1_455 S
O123 C122 1.203 . S
O124 C117 1.185 1_556 S
O124 Zn120 2.086 1_655 S
C125 O121 1.278 . S
C125 O126 1.211 . S
O126 C125 1.211 . S
C127 O119 1.284 1_455 S
C127 O128 1.273 . S
O128 C127 1.273 . S
O129 Zn120 1.977 1_655 S
O129 C122 1.267 1_655 S
C130 O131 1.160 . S
C130 O137 1.185 . S
O131 C130 1.160 . S
O132 Zn133 1.899 . S
O132 C140 1.284 . S
Zn133 O132 1.899 . S
Zn133 O134 2.032 . S
Zn133 O137 2.086 . S
Zn133 O142 1.977 . S
O134 Zn133 2.032 . S
O134 C138 1.278 . S
C135 O136 1.203 . S
C135 O142 1.267 . S
O136 C135 1.203 . S
O137 C130 1.185 . S
O137 Zn133 2.086 . S
C138 O134 1.278 . S
C138 O139 1.211 . S
O139 C138 1.211 . S
C140 O132 1.284 . S
C140 O141 1.273 . S
O141 C140 1.273 . S
O142 Zn133 1.977 . S
O142 C135 1.267 . S
C143 O144 1.160 1_655 S
C143 O150 1.185 . S
O144 C143 1.160 1_455 S
O145 Zn146 1.899 . S
O145 C153 1.284 . S
Zn146 O145 1.899 . S
Zn146 O147 2.028 1_455 S
Zn146 O150 2.086 1_455 S
Zn146 O155 1.977 1_455 S
O147 Zn146 2.028 1_655 S
O147 C151 1.276 1_655 S
C148 O149 1.203 . S
C148 O155 1.267 1_455 S
O149 C148 1.203 . S
O150 C143 1.185 . S
O150 Zn146 2.086 1_655 S
C151 O147 1.276 1_455 S
C151 O152 1.211 . S
O152 C151 1.211 . S
C153 O145 1.284 . S
C153 O154 1.273 . S
O154 C153 1.273 . S
O155 Zn146 1.977 1_655 S
O155 C148 1.267 1_655 S
C156 O157 1.160 . S
C156 O163 1.185 . S
O157 C156 1.160 . S
O158 Zn159 1.899 1_556 S
O158 C166 1.284 1_556 S
Zn159 O158 1.899 1_554 S
Zn159 O160 2.032 . S
Zn159 O163 2.086 1_554 S
Zn159 O168 1.977 . S
O160 Zn159 2.032 . S
O160 C164 1.278 . S
C161 O162 1.203 . S
C161 O168 1.267 . S
O162 C161 1.203 . S
O163 C156 1.185 . S
O163 Zn159 2.086 1_556 S
C164 O160 1.278 . S
C164 O165 1.211 . S
O165 C164 1.211 . S
C166 O158 1.284 1_554 S
C166 O167 1.273 . S
O167 C166 1.273 . S
O168 Zn159 1.977 . S
O168 C161 1.267 . S
C169 O170 1.160 . S
C169 O176 1.185 . S
O170 C169 1.160 . S
O171 Zn172 1.899 . S
O171 C179 1.284 . S
Zn172 O171 1.899 . S
Zn172 O173 2.032 . S
Zn172 O176 2.086 . S
Zn172 O181 1.977 . S
O173 Zn172 2.032 . S
O173 C177 1.278 . S
C174 O175 1.203 . S
C174 O181 1.267 . S
O175 C174 1.203 . S
O176 C169 1.185 . S
O176 Zn172 2.086 . S
C177 O173 1.278 . S
C177 O178 1.211 . S
O178 C177 1.211 . S
C179 O171 1.284 . S
C179 O180 1.273 . S
O180 C179 1.273 . S
O181 Zn172 1.977 . S
O181 C174 1.267 . S
C182 O183 1.160 . S
C182 O189 1.185 . S
O183 C182 1.160 . S
O184 Zn185 1.899 . S
O184 C192 1.284 . S
Zn185 O184 1.899 . S
Zn185 O186 2.032 . S
Zn185 O189 2.086 . S
Zn185 O194 1.977 . S
O186 Zn185 2.032 . S
O186 C190 1.278 . S
C187 O188 1.203 . S
C187 O194 1.267 . S
O188 C187 1.203 . S
O189 C182 1.185 . S
O189 Zn185 2.086 . S
C190 O186 1.278 . S
C190 O191 1.211 . S
O191 C190 1.211 . S
C192 O184 1.284 . S
C192 O193 1.273 . S
O193 C192 1.273 . S
O194 Zn185 1.977 . S
O194 C187 1.267 . S
C195 O196 1.160 . S
C195 O202 1.185 . S
O196 C195 1.160 . S
O197 Zn198 1.899 . S
O197 C205 1.284 . S
Zn198 O197 1.899 . S
Zn198 O199 2.032 . S
Zn198 O202 2.086 . S
Zn198 O207 1.977 . S
O199 Zn198 2.032 . S
O199 C203 1.278 . S
C200 O201 1.203 . S
C200 O207 1.267 . S
O201 C200 1.203 . S
O202 C195 1.185 . S
O202 Zn198 2.086 . S
C203 O199 1.278 . S
C203 O204 1.211 . S
O204 C203 1.211 . S
C205 O197 1.284 . S
C205 O206 1.273 . S
O206 C205 1.273 . S
O207 Zn198 1.977 . S
O207 C200 1.267 . S
C208 C209 1.363 . S
C208 C214 1.379 . S
C208 N216 1.356 . S
C209 C208 1.363 . S
C209 C215 1.363 . S
C210 C211 1.363 . S
C210 C215 1.379 . S
C210 N217 1.356 . S
C211 C210 1.363 . S
C211 C214 1.363 . S
N212 C214 1.356 . S
N212 H224 0.984 1_545 S
N212 H225 0.983 1_545 S
N213 C215 1.356 . S
N213 H218 0.984 . S
N213 H219 0.985 . S
C214 C208 1.379 . S
C214 C211 1.363 . S
C214 N212 1.356 . S
C215 C209 1.363 . S
C215 C210 1.379 . S
C215 N213 1.356 . S
N216 C208 1.356 . S
N216 H222 0.984 . S
N216 H223 0.984 . S
N217 C210 1.356 . S
N217 H220 0.984 . S
N217 H221 0.985 . S
H218 N213 0.984 . S
H219 N213 0.985 . S
H220 N217 0.984 . S
H221 N217 0.985 . S
H222 N216 0.984 . S
H223 N216 0.984 . S
H224 N212 0.984 1_565 S
H225 N212 0.983 1_565 S
C226 C227 1.363 . S
C226 C232 1.379 . S
C226 N234 1.356 . S
C227 C226 1.363 . S
C227 C233 1.363 . S
C228 C229 1.363 . S
C228 C233 1.379 . S
C228 N235 1.356 . S
C229 C228 1.363 . S
C229 C232 1.363 . S
N230 C232 1.356 . S
N230 H242 0.984 . S
N230 H243 0.985 . S
N231 C233 1.356 . S
N231 H236 0.984 . S
N231 H237 0.985 . S
C232 C226 1.379 . S
C232 C229 1.363 . S
C232 N230 1.356 . S
C233 C227 1.363 . S
C233 C228 1.379 . S
C233 N231 1.356 . S
N234 C226 1.356 . S
N234 H240 0.984 . S
N234 H241 0.984 . S
N235 C228 1.356 . S
N235 H238 0.984 . S
N235 H239 0.985 . S
H236 N231 0.984 . S
H237 N231 0.985 . S
H238 N235 0.984 . S
H239 N235 0.985 . S
H240 N234 0.984 . S
H241 N234 0.984 . S
H242 N230 0.984 . S
H243 N230 0.985 . S
C244 C245 1.363 . S
C244 C250 1.379 . S
C244 N252 1.356 . S
C245 C244 1.363 . S
C245 C251 1.363 . S
C246 C247 1.363 . S
C246 C251 1.379 . S
C246 N253 1.356 . S
C247 C246 1.363 . S
C247 C250 1.363 . S
N248 C250 1.356 . S
N248 H260 0.984 . S
N248 H261 0.985 . S
N249 C251 1.356 . S
N249 H254 0.984 . S
N249 H255 0.985 1_565 S
C250 C244 1.379 . S
C250 C247 1.363 . S
C250 N248 1.356 . S
C251 C245 1.363 . S
C251 C246 1.379 . S
C251 N249 1.356 . S
N252 C244 1.356 . S
N252 H258 0.984 . S
N252 H259 0.984 . S
N253 C246 1.356 . S
N253 H256 0.984 . S
N253 H257 0.985 . S
H254 N249 0.984 . S
H255 N249 0.985 1_545 S
H256 N253 0.984 . S
H257 N253 0.985 . S
H258 N252 0.984 . S
H259 N252 0.984 . S
H260 N248 0.984 . S
H261 N248 0.985 . S
C262 C263 1.363 . S
C262 C268 1.379 . S
C262 N270 1.356 . S
C263 C262 1.363 . S
C263 C269 1.363 . S
C264 C265 1.363 . S
C264 C269 1.379 . S
C264 N271 1.356 . S
C265 C264 1.363 . S
C265 C268 1.363 . S
N266 C268 1.356 . S
N266 H278 0.984 . S
N266 H279 0.985 . S
N267 C269 1.356 . S
N267 H272 0.984 . S
N267 H273 0.985 1_545 S
C268 C262 1.379 . S
C268 C265 1.363 . S
C268 N266 1.356 . S
C269 C263 1.363 . S
C269 C264 1.379 . S
C269 N267 1.356 . S
N270 C262 1.356 . S
N270 H276 0.984 . S
N270 H277 0.984 . S
N271 C264 1.356 . S
N271 H274 0.984 . S
N271 H275 0.985 . S
H272 N267 0.984 . S
H273 N267 0.985 1_565 S
H274 N271 0.984 . S
H275 N271 0.985 . S
H276 N270 0.984 . S
H277 N270 0.984 . S
H278 N266 0.984 . S
H279 N266 0.985 . S
C280 C281 1.363 . S
C280 C286 1.379 . S
C280 N288 1.356 . S
C281 C280 1.363 . S
C281 C287 1.363 . S
C282 C283 1.363 . S
C282 C287 1.379 . S
C282 N289 1.356 . S
C283 C282 1.363 . S
C283 C286 1.363 . S
N284 C286 1.356 . S
N284 H296 0.984 . S
N284 H297 0.985 . S
N285 C287 1.356 . S
N285 H290 0.984 . S
N285 H291 0.985 . S
C286 C280 1.379 . S
C286 C283 1.363 . S
C286 N284 1.356 . S
C287 C281 1.363 . S
C287 C282 1.379 . S
C287 N285 1.356 . S
N288 C280 1.356 . S
N288 H294 0.984 . S
N288 H295 0.984 . S
N289 C282 1.356 . S
N289 H292 0.984 . S
N289 H293 0.985 . S
H290 N285 0.984 . S
H291 N285 0.985 . S
H292 N289 0.984 . S
H293 N289 0.985 . S
H294 N288 0.984 . S
H295 N288 0.984 . S
H296 N284 0.984 . S
H297 N284 0.985 . S
C298 C299 1.363 . S
C298 C304 1.379 . S
C298 N306 1.356 . S
C299 C298 1.363 . S
C299 C305 1.363 . S
C300 C301 1.363 . S
C300 C305 1.379 . S
C300 N307 1.356 . S
C301 C300 1.363 . S
C301 C304 1.363 . S
N302 C304 1.356 . S
N302 H314 0.984 . S
N302 H315 0.985 . S
N303 C305 1.356 . S
N303 H308 0.984 . S
N303 H309 0.985 . S
C304 C298 1.379 . S
C304 C301 1.363 . S
C304 N302 1.356 . S
C305 C299 1.363 . S
C305 C300 1.379 . S
C305 N303 1.356 . S
N306 C298 1.356 . S
N306 H312 0.984 . S
N306 H313 0.984 . S
N307 C300 1.356 . S
N307 H310 0.984 . S
N307 H311 0.985 . S
H308 N303 0.984 . S
H309 N303 0.985 . S
H310 N307 0.984 . S
H311 N307 0.985 . S
H312 N306 0.984 . S
H313 N306 0.984 . S
H314 N302 0.984 . S
H315 N302 0.985 . S
C316 C317 1.363 . S
C316 C322 1.379 . S
C316 N324 1.356 . S
C317 C316 1.363 . S
C317 C323 1.363 . S
C318 C319 1.363 . S
C318 C323 1.379 . S
C318 N325 1.356 . S
C319 C318 1.363 . S
C319 C322 1.363 . S
N320 C322 1.356 . S
N320 H332 0.984 . S
N320 H333 0.985 . S
N321 C323 1.356 . S
N321 H326 0.984 . S
N321 H327 0.985 . S
C322 C316 1.379 . S
C322 C319 1.363 . S
C322 N320 1.356 . S
C323 C317 1.363 . S
C323 C318 1.379 . S
C323 N321 1.356 . S
N324 C316 1.356 . S
N324 H330 0.984 . S
N324 H331 0.984 . S
N325 C318 1.356 . S
N325 H328 0.984 . S
N325 H329 0.985 . S
H326 N321 0.984 . S
H327 N321 0.985 . S
H328 N325 0.984 . S
H329 N325 0.985 . S
H330 N324 0.984 . S
H331 N324 0.984 . S
H332 N320 0.984 . S
H333 N320 0.985 . S
C334 C335 1.363 . S
C334 C340 1.379 . S
C334 N342 1.356 . S
C335 C334 1.363 . S
C335 C341 1.363 . S
C336 C337 1.363 . S
C336 C341 1.379 . S
C336 N343 1.356 . S
C337 C336 1.363 . S
C337 C340 1.363 . S
N338 C340 1.356 . S
N338 H350 0.984 . S
N338 H351 0.985 . S
N339 C341 1.356 . S
N339 H344 0.984 . S
N339 H345 0.985 . S
C340 C334 1.379 . S
C340 C337 1.363 . S
C340 N338 1.356 . S
C341 C335 1.363 . S
C341 C336 1.379 . S
C341 N339 1.356 . S
N342 C334 1.356 . S
N342 H348 0.984 . S
N342 H349 0.984 . S
N343 C336 1.356 . S
N343 H346 0.984 . S
N343 H347 0.985 . S
H344 N339 0.984 . S
H345 N339 0.985 . S
H346 N343 0.984 . S
H347 N343 0.985 . S
H348 N342 0.984 . S
H349 N342 0.984 . S
H350 N338 0.984 . S
H351 N338 0.985 . S
C352 C353 1.363 . S
C352 C358 1.379 . S
C352 N360 1.356 . S
C353 C352 1.363 . S
C353 C359 1.363 . S
C354 C355 1.363 . S
C354 C359 1.379 . S
C354 N361 1.356 . S
C355 C354 1.363 . S
C355 C358 1.363 . S
N356 C358 1.356 . S
N356 H368 0.984 . S
N356 H369 0.985 . S
N357 C359 1.356 . S
N357 H362 0.984 . S
N357 H363 0.985 . S
C358 C352 1.379 . S
C358 C355 1.363 . S
C358 N356 1.356 . S
C359 C353 1.363 . S
C359 C354 1.379 . S
C359 N357 1.356 . S
N360 C352 1.356 . S
N360 H366 0.984 . S
N360 H367 0.984 . S
N361 C354 1.356 . S
N361 H364 0.984 . S
N361 H365 0.985 . S
H362 N357 0.984 . S
H363 N357 0.985 . S
H364 N361 0.984 . S
H365 N361 0.985 . S
H366 N360 0.984 . S
H367 N360 0.984 . S
H368 N356 0.984 . S
H369 N356 0.985 . S
C370 C371 1.363 1_455 S
C370 C376 1.379 . S
C370 N378 1.356 . S
C371 C370 1.363 1_655 S
C371 C377 1.363 1_565 S
C372 C373 1.363 1_545 S
C372 C377 1.379 . S
C372 N379 1.356 . S
C373 C372 1.363 1_565 S
C373 C376 1.363 1_655 S
N374 C376 1.356 . S
N374 H386 0.984 . S
N374 H387 0.985 . S
N375 C377 1.356 . S
N375 H380 0.984 . S
N375 H381 0.985 . S
C376 C370 1.379 . S
C376 C373 1.363 1_455 S
C376 N374 1.356 . S
C377 C371 1.363 1_545 S
C377 C372 1.379 . S
C377 N375 1.356 . S
N378 C370 1.356 . S
N378 H384 0.984 . S
N378 H385 0.984 . S
N379 C372 1.356 . S
N379 H382 0.984 . S
N379 H383 0.985 . S
H380 N375 0.984 . S
H381 N375 0.985 . S
H382 N379 0.984 . S
H383 N379 0.985 . S
H384 N378 0.984 . S
H385 N378 0.984 . S
H386 N374 0.984 . S
H387 N374 0.985 . S
C388 C389 1.363 . S
C388 C394 1.379 1_556 S
C388 N396 1.356 . S
C389 C388 1.363 . S
C389 C395 1.363 . S
C390 C391 1.363 . S
C390 C395 1.379 1_554 S
C390 N397 1.356 . S
C391 C390 1.363 . S
C391 C394 1.363 . S
N392 C394 1.356 . S
N392 H404 0.984 . S
N392 H405 0.985 . S
N393 C395 1.356 . S
N393 H398 0.984 . S
N393 H399 0.985 . S
C394 C388 1.379 1_554 S
C394 C391 1.363 . S
C394 N392 1.356 . S
C395 C389 1.363 . S
C395 C390 1.379 1_556 S
C395 N393 1.356 . S
N396 C388 1.356 . S
N396 H402 0.984 . S
N396 H403 0.984 . S
N397 C390 1.356 . S
N397 H400 0.984 . S
N397 H401 0.985 . S
H398 N393 0.984 . S
H399 N393 0.985 . S
H400 N397 0.984 . S
H401 N397 0.985 . S
H402 N396 0.984 . S
H403 N396 0.984 . S
H404 N392 0.984 . S
H405 N392 0.985 . S
C406 C407 1.376 . S
C406 C412 1.379 . S
C406 N414 1.356 . S
C407 C406 1.376 . S
C407 C413 1.352 1_545 S
C408 C409 1.363 1_565 S
C408 C413 1.379 . S
C408 N415 1.356 . S
C409 C408 1.363 1_545 S
C409 C412 1.363 . S
N410 C412 1.356 . S
N410 H422 0.984 . S
N410 H423 0.985 . S
N411 C413 1.356 . S
N411 H416 0.984 . S
N411 H417 0.985 . S
C412 C406 1.379 . S
C412 C409 1.363 . S
C412 N410 1.356 . S
C413 C407 1.352 1_565 S
C413 C408 1.379 . S
C413 N411 1.356 . S
N414 C406 1.356 . S
N414 H420 0.984 . S
N414 H421 0.984 . S
N415 C408 1.356 . S
N415 H418 0.984 . S
N415 H419 0.985 . S
H416 N411 0.984 . S
H417 N411 0.985 . S
H418 N415 0.984 . S
H419 N415 0.985 . S
H420 N414 0.984 . S
H421 N414 0.984 . S
H422 N410 0.984 . S
H423 N410 0.985 . S
C424 C425 1.363 . S
C424 C430 1.379 . S
C424 N432 1.356 . S
C425 C424 1.363 . S
C425 C431 1.363 . S
C426 C427 1.363 . S
C426 C431 1.379 . S
C426 N433 1.356 . S
C427 C426 1.363 . S
C427 C430 1.363 . S
N428 C430 1.356 . S
N428 H440 0.984 . S
N428 H441 0.985 . S
N429 C431 1.356 . S
N429 H434 0.984 . S
N429 H435 0.985 . S
C430 C424 1.379 . S
C430 C427 1.363 . S
C430 N428 1.356 . S
C431 C425 1.363 . S
C431 C426 1.379 . S
C431 N429 1.356 . S
N432 C424 1.356 . S
N432 H438 0.984 . S
N432 H439 0.984 . S
N433 C426 1.356 . S
N433 H436 0.984 . S
N433 H437 0.985 . S
H434 N429 0.984 . S
H435 N429 0.985 . S
H436 N433 0.984 . S
H437 N433 0.985 . S
H438 N432 0.984 . S
H439 N432 0.984 . S
H440 N428 0.984 . S
H441 N428 0.985 . S
C442 C443 1.363 1_455 S
C442 C448 1.379 . S
C442 N450 1.356 . S
C443 C442 1.363 1_655 S
C443 C449 1.363 . S
C444 C445 1.363 1_655 S
C444 C449 1.379 . S
C444 N451 1.356 . S
C445 C444 1.363 1_455 S
C445 C448 1.363 . S
N446 C448 1.356 . S
N446 H458 0.984 . S
N446 H459 0.985 . S
N447 C449 1.356 . S
N447 H452 0.984 . S
N447 H453 0.985 . S
C448 C442 1.379 . S
C448 C445 1.363 . S
C448 N446 1.356 . S
C449 C443 1.363 . S
C449 C444 1.379 . S
C449 N447 1.356 . S
N450 C442 1.356 . S
N450 H456 0.984 . S
N450 H457 0.984 . S
N451 C444 1.356 . S
N451 H454 0.984 . S
N451 H455 0.985 . S
H452 N447 0.984 . S
H453 N447 0.985 . S
H454 N451 0.984 . S
H455 N451 0.985 . S
H456 N450 0.984 . S
H457 N450 0.984 . S
H458 N446 0.984 . S
H459 N446 0.985 . S
C460 C461 1.363 . S
C460 C466 1.379 1_655 S
C460 N468 1.356 . S
C461 C460 1.363 . S
C461 C467 1.363 . S
C462 C463 1.363 . S
C462 C467 1.379 1_455 S
C462 N469 1.356 . S
C463 C462 1.363 . S
C463 C466 1.363 . S
N464 C466 1.356 . S
N464 H476 0.984 . S
N464 H477 0.985 . S
N465 C467 1.356 . S
N465 H470 0.984 . S
N465 H471 0.985 . S
C466 C460 1.379 1_455 S
C466 C463 1.363 . S
C466 N464 1.356 . S
C467 C461 1.363 . S
C467 C462 1.379 1_655 S
C467 N465 1.356 . S
N468 C460 1.356 . S
N468 H474 0.984 . S
N468 H475 0.984 . S
N469 C462 1.356 . S
N469 H472 0.984 . S
N469 H473 0.985 . S
H470 N465 0.984 . S
H471 N465 0.985 . S
H472 N469 0.984 . S
H473 N469 0.985 . S
H474 N468 0.984 . S
H475 N468 0.984 . S
H476 N464 0.984 . S
H477 N464 0.985 . S
C478 C479 1.363 1_556 S
C478 C484 1.379 . S
C478 N486 1.356 . S
C479 C478 1.363 1_554 S
C479 C485 1.363 . S
C480 C481 1.363 . S
C480 C485 1.379 . S
C480 N487 1.356 . S
C481 C480 1.363 . S
C481 C484 1.363 1_554 S
N482 C484 1.356 . S
N482 H494 0.984 . S
N482 H495 0.985 . S
N483 C485 1.356 . S
N483 H488 0.984 . S
N483 H489 0.985 . S
C484 C478 1.379 . S
C484 C481 1.363 1_556 S
C484 N482 1.356 . S
C485 C479 1.363 . S
C485 C480 1.379 . S
C485 N483 1.356 . S
N486 C478 1.356 . S
N486 H492 0.984 . S
N486 H493 0.984 . S
N487 C480 1.356 . S
N487 H490 0.984 . S
N487 H491 0.985 . S
H488 N483 0.984 . S
H489 N483 0.985 . S
H490 N487 0.984 . S
H491 N487 0.985 . S
H492 N486 0.984 . S
H493 N486 0.984 . S
H494 N482 0.984 . S
H495 N482 0.985 . S
C496 C497 1.363 . S
C496 C502 1.379 . S
C496 N504 1.356 . S
C497 C496 1.363 . S
C497 C503 1.363 . S
C498 C499 1.363 . S
C498 C503 1.379 . S
C498 N505 1.356 . S
C499 C498 1.363 . S
C499 C502 1.363 . S
N500 C502 1.356 . S
N500 H512 0.984 . S
N500 H513 0.985 . S
N501 C503 1.356 . S
N501 H506 0.984 . S
N501 H507 0.985 . S
C502 C496 1.379 . S
C502 C499 1.363 . S
C502 N500 1.356 . S
C503 C497 1.363 . S
C503 C498 1.379 . S
C503 N501 1.356 . S
N504 C496 1.356 . S
N504 H510 0.984 . S
N504 H511 0.984 . S
N505 C498 1.356 . S
N505 H508 0.984 . S
N505 H509 0.985 . S
H506 N501 0.984 . S
H507 N501 0.985 . S
H508 N505 0.984 . S
H509 N505 0.985 . S
H510 N504 0.984 . S
H511 N504 0.984 . S
H512 N500 0.984 . S
H513 N500 0.985 . S
C514 C515 1.363 . S
C514 C520 1.379 . S
C514 N522 1.356 . S
C515 C514 1.363 . S
C515 C521 1.363 . S
C516 C517 1.363 . S
C516 C521 1.379 . S
C516 N523 1.356 . S
C517 C516 1.363 . S
C517 C520 1.363 . S
N518 C520 1.356 . S
N518 H530 0.984 . S
N518 H531 0.985 . S
N519 C521 1.356 . S
N519 H524 0.984 . S
N519 H525 0.985 . S
C520 C514 1.379 . S
C520 C517 1.363 . S
C520 N518 1.356 . S
C521 C515 1.363 . S
C521 C516 1.379 . S
C521 N519 1.356 . S
N522 C514 1.356 . S
N522 H528 0.984 . S
N522 H529 0.984 . S
N523 C516 1.356 . S
N523 H526 0.984 . S
N523 H527 0.985 . S
H524 N519 0.984 . S
H525 N519 0.985 . S
H526 N523 0.984 . S
H527 N523 0.985 . S
H528 N522 0.984 . S
H529 N522 0.984 . S
H530 N518 0.984 . S
H531 N518 0.985 . S
C532 C533 1.363 . S
C532 C538 1.379 1_455 S
C532 N540 1.356 . S
C533 C532 1.363 . S
C533 C539 1.363 . S
C534 C535 1.363 . S
C534 C539 1.379 1_655 S
C534 N541 1.356 . S
C535 C534 1.363 . S
C535 C538 1.363 . S
N536 C538 1.356 . S
N536 H548 0.984 . S
N536 H549 0.985 . S
N537 C539 1.356 . S
N537 H542 0.984 . S
N537 H543 0.985 . S
C538 C532 1.379 1_655 S
C538 C535 1.363 . S
C538 N536 1.356 . S
C539 C533 1.363 . S
C539 C534 1.379 1_455 S
C539 N537 1.356 . S
N540 C532 1.356 . S
N540 H546 0.984 . S
N540 H547 0.984 . S
N541 C534 1.356 . S
N541 H544 0.984 . S
N541 H545 0.985 . S
H542 N537 0.984 . S
H543 N537 0.985 . S
H544 N541 0.984 . S
H545 N541 0.985 . S
H546 N540 0.984 . S
H547 N540 0.984 . S
H548 N536 0.984 . S
H549 N536 0.985 . S
C550 C551 1.363 1_655 S
C550 C556 1.379 . S
C550 N558 1.356 . S
C551 C550 1.363 1_455 S
C551 C557 1.363 1_556 S
C552 C553 1.363 1_454 S
C552 C557 1.379 . S
C552 N559 1.356 . S
C553 C552 1.363 1_656 S
C553 C556 1.363 . S
N554 C556 1.356 . S
N554 H566 0.984 . S
N554 H567 0.985 . S
N555 C557 1.356 . S
N555 H560 0.984 . S
N555 H561 0.985 . S
C556 C550 1.379 . S
C556 C553 1.363 . S
C556 N554 1.356 . S
C557 C551 1.363 1_554 S
C557 C552 1.379 . S
C557 N555 1.356 . S
N558 C550 1.356 . S
N558 H564 0.984 . S
N558 H565 0.984 . S
N559 C552 1.356 . S
N559 H562 0.984 . S
N559 H563 0.985 . S
H560 N555 0.984 . S
H561 N555 0.985 . S
H562 N559 0.984 . S
H563 N559 0.985 . S
H564 N558 0.984 . S
H565 N558 0.984 . S
H566 N554 0.984 . S
H567 N554 0.985 . S
C568 C569 1.363 . S
C568 C574 1.379 . S
C568 N576 1.356 . S
C569 C568 1.363 . S
C569 C575 1.363 . S
C570 C571 1.363 . S
C570 C575 1.379 . S
C570 N577 1.356 . S
C571 C570 1.363 . S
C571 C574 1.363 . S
N572 C574 1.356 . S
N572 H584 0.984 . S
N572 H585 0.985 . S
N573 C575 1.356 . S
N573 H578 0.984 . S
N573 H579 0.985 . S
C574 C568 1.379 . S
C574 C571 1.363 . S
C574 N572 1.356 . S
C575 C569 1.363 . S
C575 C570 1.379 . S
C575 N573 1.356 . S
N576 C568 1.356 . S
N576 H582 0.984 . S
N576 H583 0.984 . S
N577 C570 1.356 . S
N577 H580 0.984 . S
N577 H581 0.985 . S
H578 N573 0.984 . S
H579 N573 0.985 . S
H580 N577 0.984 . S
H581 N577 0.985 . S
H582 N576 0.984 . S
H583 N576 0.984 . S
H584 N572 0.984 . S
H585 N572 0.985 . S
C586 C587 1.363 . S
C586 C592 1.379 1_545 S
C586 N594 1.356 . S
C587 C586 1.363 . S
C587 C593 1.363 . S
C588 C589 1.363 . S
C588 C593 1.379 1_565 S
C588 N595 1.356 . S
C589 C588 1.363 . S
C589 C592 1.363 . S
N590 C592 1.356 . S
N590 H602 0.984 . S
N590 H603 0.985 . S
N591 C593 1.356 . S
N591 H596 0.984 . S
N591 H597 0.985 . S
C592 C586 1.379 1_565 S
C592 C589 1.363 . S
C592 N590 1.356 . S
C593 C587 1.363 . S
C593 C588 1.379 1_545 S
C593 N591 1.356 . S
N594 C586 1.356 . S
N594 H600 0.984 . S
N594 H601 0.984 . S
N595 C588 1.356 . S
N595 H598 0.984 . S
N595 H599 0.985 . S
H596 N591 0.984 . S
H597 N591 0.985 . S
H598 N595 0.984 . S
H599 N595 0.985 . S
H600 N594 0.984 . S
H601 N594 0.984 . S
H602 N590 0.984 . S
H603 N590 0.985 . S
C604 C605 1.363 1_554 S
C604 C610 1.379 . S
C604 N612 1.356 . S
C605 C604 1.363 1_556 S
C605 C611 1.363 . S
C606 C607 1.363 . S
C606 C611 1.379 . S
C606 N613 1.356 . S
C607 C606 1.363 . S
C607 C610 1.363 1_556 S
N608 C610 1.356 . S
N608 H620 0.984 . S
N608 H621 0.985 . S
N609 C611 1.356 . S
N609 H614 0.984 . S
N609 H615 0.985 . S
C610 C604 1.379 . S
C610 C607 1.363 1_554 S
C610 N608 1.356 . S
C611 C605 1.363 . S
C611 C606 1.379 . S
C611 N609 1.356 . S
N612 C604 1.356 . S
N612 H618 0.984 . S
N612 H619 0.984 . S
N613 C606 1.356 . S
N613 H616 0.984 . S
N613 H617 0.985 . S
H614 N609 0.984 . S
H615 N609 0.985 . S
H616 N613 0.984 . S
H617 N613 0.985 . S
H618 N612 0.984 . S
H619 N612 0.984 . S
H620 N608 0.984 . S
H621 N608 0.985 . S
C622 C623 1.363 . S
C622 C628 1.379 1_545 S
C622 N630 1.356 . S
C623 C622 1.363 . S
C623 C629 1.363 . S
C624 C625 1.363 . S
C624 C629 1.379 1_565 S
C624 N631 1.356 . S
C625 C624 1.363 . S
C625 C628 1.363 . S
N626 C628 1.356 . S
N626 H638 0.984 . S
N626 H639 0.985 . S
N627 C629 1.356 . S
N627 H632 0.984 . S
N627 H633 0.985 . S
C628 C622 1.379 1_565 S
C628 C625 1.363 . S
C628 N626 1.356 . S
C629 C623 1.363 . S
C629 C624 1.379 1_545 S
C629 N627 1.356 . S
N630 C622 1.356 . S
N630 H636 0.984 . S
N630 H637 0.984 . S
N631 C624 1.356 . S
N631 H634 0.984 . S
N631 H635 0.985 . S
H632 N627 0.984 . S
H633 N627 0.985 . S
H634 N631 0.984 . S
H635 N631 0.985 . S
H636 N630 0.984 . S
H637 N630 0.984 . S
H638 N626 0.984 . S
H639 N626 0.985 . S
C640 C641 1.363 . S
C640 C646 1.379 . S
C640 N648 1.356 1_556 S
C641 C640 1.363 . S
C641 C647 1.363 1_565 S
C642 C643 1.363 1_545 S
C642 C647 1.379 . S
C642 N649 1.356 . S
C643 C642 1.363 1_565 S
C643 C646 1.363 . S
N644 C646 1.356 1_554 S
N644 H656 0.984 . S
N644 H657 0.985 1_554 S
N645 C647 1.356 . S
N645 H650 0.984 . S
N645 H651 0.985 . S
C646 C640 1.379 . S
C646 C643 1.363 . S
C646 N644 1.356 1_556 S
C647 C641 1.363 1_545 S
C647 C642 1.379 . S
C647 N645 1.356 . S
N648 C640 1.356 1_554 S
N648 H654 0.984 . S
N648 H655 0.984 . S
N649 C642 1.356 . S
N649 H652 0.984 . S
N649 H653 0.985 . S
H650 N645 0.984 . S
H651 N645 0.985 . S
H652 N649 0.984 . S
H653 N649 0.985 . S
H654 N648 0.984 . S
H655 N648 0.984 . S
H656 N644 0.984 . S
H657 N644 0.985 1_556 S
C658 C659 1.363 . S
C658 C664 1.379 . S
C658 N666 1.356 . S
C659 C658 1.363 . S
C659 C665 1.363 . S
C660 C661 1.363 . S
C660 C665 1.379 . S
C660 N667 1.356 . S
C661 C660 1.363 . S
C661 C664 1.363 . S
N662 C664 1.356 . S
N662 H674 0.984 . S
N662 H675 0.985 . S
N663 C665 1.356 . S
N663 H668 0.984 . S
N663 H669 0.985 . S
C664 C658 1.379 . S
C664 C661 1.363 . S
C664 N662 1.356 . S
C665 C659 1.363 . S
C665 C660 1.379 . S
C665 N663 1.356 . S
N666 C658 1.356 . S
N666 H672 0.984 . S
N666 H673 0.984 . S
N667 C660 1.356 . S
N667 H670 0.984 . S
N667 H671 0.985 . S
H668 N663 0.984 . S
H669 N663 0.985 . S
H670 N667 0.984 . S
H671 N667 0.985 . S
H672 N666 0.984 . S
H673 N666 0.984 . S
H674 N662 0.984 . S
H675 N662 0.985 . S
C676 C677 1.363 . S
C676 C682 1.379 . S
C676 N684 1.356 . S
C677 C676 1.363 . S
C677 C683 1.363 . S
C678 C679 1.363 . S
C678 C683 1.379 . S
C678 N685 1.356 . S
C679 C678 1.363 . S
C679 C682 1.363 . S
N680 C682 1.356 . S
N680 H692 0.984 . S
N680 H693 0.985 . S
N681 C683 1.356 . S
N681 H686 0.984 . S
N681 H687 0.985 . S
C682 C676 1.379 . S
C682 C679 1.363 . S
C682 N680 1.356 . S
C683 C677 1.363 . S
C683 C678 1.379 . S
C683 N681 1.356 . S
N684 C676 1.356 . S
N684 H690 0.984 . S
N684 H691 0.984 . S
N685 C678 1.356 . S
N685 H688 0.984 . S
N685 H689 0.985 . S
H686 N681 0.984 . S
H687 N681 0.985 . S
H688 N685 0.984 . S
H689 N685 0.985 . S
H690 N684 0.984 . S
H691 N684 0.984 . S
H692 N680 0.984 . S
H693 N680 0.985 . S
C694 C695 1.363 . S
C694 C700 1.379 1_556 S
C694 N702 1.356 . S
C695 C694 1.363 . S
C695 C701 1.363 . S
C696 C697 1.363 . S
C696 C701 1.379 1_554 S
C696 N703 1.356 . S
C697 C696 1.363 . S
C697 C700 1.363 . S
N698 C700 1.356 . S
N698 H710 0.984 . S
N698 H711 0.985 . S
N699 C701 1.356 . S
N699 H704 0.984 . S
N699 H705 0.985 . S
C700 C694 1.379 1_554 S
C700 C697 1.363 . S
C700 N698 1.356 . S
C701 C695 1.363 . S
C701 C696 1.379 1_556 S
C701 N699 1.356 . S
N702 C694 1.356 . S
N702 H708 0.984 . S
N702 H709 0.984 . S
N703 C696 1.356 . S
N703 H706 0.984 . S
N703 H707 0.985 . S
H704 N699 0.984 . S
H705 N699 0.985 . S
H706 N703 0.984 . S
H707 N703 0.985 . S
H708 N702 0.984 . S
H709 N702 0.984 . S
H710 N698 0.984 . S
H711 N698 0.985 . S
C712 C713 1.363 . S
C712 C718 1.379 . S
C712 N720 1.356 . S
C713 C712 1.363 . S
C713 C719 1.363 . S
C714 C715 1.363 . S
C714 C719 1.379 . S
C714 N721 1.356 . S
C715 C714 1.363 . S
C715 C718 1.363 . S
N716 C718 1.356 . S
N716 H728 0.984 . S
N716 H729 0.985 . S
N717 C719 1.356 . S
N717 H722 0.984 . S
N717 H723 0.985 . S
C718 C712 1.379 . S
C718 C715 1.363 . S
C718 N716 1.356 . S
C719 C713 1.363 . S
C719 C714 1.379 . S
C719 N717 1.356 . S
N720 C712 1.356 . S
N720 H726 0.984 . S
N720 H727 0.984 . S
N721 C714 1.356 . S
N721 H724 0.984 . S
N721 H725 0.985 . S
H722 N717 0.984 . S
H723 N717 0.985 . S
H724 N721 0.984 . S
H725 N721 0.985 . S
H726 N720 0.984 . S
H727 N720 0.984 . S
H728 N716 0.984 . S
H729 N716 0.985 . S
C730 C731 1.363 . S
C730 C736 1.379 . S
C730 N738 1.356 . S
C731 C730 1.363 . S
C731 C737 1.363 . S
C732 C733 1.363 . S
C732 C737 1.379 . S
C732 N739 1.356 . S
C733 C732 1.363 . S
C733 C736 1.363 . S
N734 C736 1.356 . S
N734 H746 0.984 . S
N734 H747 0.985 . S
N735 C737 1.356 . S
N735 H740 0.984 . S
N735 H741 0.985 . S
C736 C730 1.379 . S
C736 C733 1.363 . S
C736 N734 1.356 . S
C737 C731 1.363 . S
C737 C732 1.379 . S
C737 N735 1.356 . S
N738 C730 1.356 . S
N738 H744 0.984 . S
N738 H745 0.984 . S
N739 C732 1.356 . S
N739 H742 0.984 . S
N739 H743 0.985 . S
H740 N735 0.984 . S
H741 N735 0.985 . S
H742 N739 0.984 . S
H743 N739 0.985 . S
H744 N738 0.984 . S
H745 N738 0.984 . S
H746 N734 0.984 . S
H747 N734 0.985 . S
C748 C749 1.363 . S
C748 C754 1.379 . S
C748 N756 1.356 . S
C749 C748 1.363 . S
C749 C755 1.363 1_455 S
C750 C751 1.367 . S
C750 C755 1.379 . S
C750 N757 1.356 . S
C751 C750 1.367 . S
C751 C754 1.358 1_655 S
N752 C754 1.356 . S
N752 H764 0.984 . S
N752 H765 0.985 . S
N753 C755 1.356 . S
N753 H758 0.984 . S
N753 H759 0.985 . S
C754 C748 1.379 . S
C754 C751 1.358 1_455 S
C754 N752 1.356 . S
C755 C749 1.363 1_655 S
C755 C750 1.379 . S
C755 N753 1.356 . S
N756 C748 1.356 . S
N756 H762 0.984 . S
N756 H763 0.984 . S
N757 C750 1.356 . S
N757 H760 0.984 . S
N757 H761 0.985 . S
H758 N753 0.984 . S
H759 N753 0.985 . S
H760 N757 0.984 . S
H761 N757 0.985 . S
H762 N756 0.984 . S
H763 N756 0.984 . S
H764 N752 0.984 . S
H765 N752 0.985 . S
C766 C767 1.363 . S
C766 C772 1.379 . S
C766 N774 1.356 . S
C767 C766 1.363 . S
C767 C773 1.363 1_565 S
C768 C769 1.363 . S
C768 C773 1.379 . S
C768 N775 1.356 . S
C769 C768 1.363 . S
C769 C772 1.363 1_545 S
N770 C772 1.356 . S
N770 H782 0.984 . S
N770 H783 0.985 . S
N771 C773 1.356 . S
N771 H776 0.984 . S
N771 H777 0.985 . S
C772 C766 1.379 . S
C772 C769 1.363 1_565 S
C772 N770 1.356 . S
C773 C767 1.363 1_545 S
C773 C768 1.379 . S
C773 N771 1.356 . S
N774 C766 1.356 . S
N774 H780 0.984 . S
N774 H781 0.984 . S
N775 C768 1.356 . S
N775 H778 0.984 . S
N775 H779 0.985 . S
H776 N771 0.984 . S
H777 N771 0.985 . S
H778 N775 0.984 . S
H779 N775 0.985 . S
H780 N774 0.984 . S
H781 N774 0.984 . S
H782 N770 0.984 . S
H783 N770 0.985 . S
C209 C0 1.638 . S
C211 C91 1.671 . S
C227 C13 1.626 . S
C229 C52 1.624 . S
C245 C65 1.638 . S
C247 C26 1.621 . S
C263 C39 1.613 . S
C265 C78 1.629 . S
C281 C104 1.624 . S
C283 C156 1.626 . S
C299 C117 1.638 . S
C301 C182 1.621 . S
C317 C143 1.613 . S
C319 C130 1.629 . S
C335 C195 1.671 . S
C337 C169 1.638 . S
C353 C5 1.252 . S
C355 C88 1.272 . S
C371 C96 1.231 . S
C373 C21 1.212 . S
C389 C31 1.255 . S
C391 C57 1.275 . S
C407 C70 1.274 . S
C409 C47 1.255 1_545 S
C425 C10 1.313 . S
C427 C192 1.312 . S
C443 C148 1.241 1_655 S
C445 C18 1.247 1_455 S
C461 C179 1.313 . S
C463 C36 1.312 . S
C479 C161 1.247 . S
C481 C44 1.241 . S
C497 C138 1.287 . S
C499 C62 1.318 . S
C515 C75 1.319 . S
C517 C205 1.315 . S
C533 C86 1.287 . S
C535 C114 1.318 . S
C551 C101 1.315 1_455 S
C553 C127 1.319 1_655 S
C569 C8 1.260 . S
C571 C60 1.258 . S
C587 C112 1.258 . S
C589 C177 1.260 . S
C605 C166 1.264 1_556 S
C607 C125 1.242 . S
C623 C190 1.191 . S
C625 C135 1.205 . S
C641 C99 1.283 . S
C643 C49 1.309 . S
C659 C34 1.191 . S
C661 C83 1.205 . S
C677 C153 1.308 . S
C679 C203 1.283 . S
C695 C174 1.252 . S
C697 C140 1.272 . S
C713 C200 1.231 . S
C715 C164 1.212 . S
C731 C187 1.255 . S
C733 C109 1.275 . S
C749 C151 1.255 . S
C751 C122 1.269 1_655 S
C767 C23 1.264 . S
C769 C73 1.242 . S
