# Generated by pormake.
# Topology ske, (6)-cn, num edge types: 1
# Building blocks:
#     Node 0, Type 0, BuildingBlock: KUMJIN_clean_sbu_1, # of connection points: 6
#     Node 1, Type 0, BuildingBlock: KUMJIN_clean_sbu_1, # of connection points: 6
#     Node 2, Type 0, BuildingBlock: KUMJIN_clean_sbu_1, # of connection points: 6
#     Node 3, Type 0, BuildingBlock: KUMJIN_clean_sbu_1, # of connection points: 6
#     Node 4, Type 0, BuildingBlock: KUMJIN_clean_sbu_1, # of connection points: 6
#     Node 5, Type 0, BuildingBlock: KUMJIN_clean_sbu_1, # of connection points: 6
#     Node 6, Type 0, BuildingBlock: KUMJIN_clean_sbu_1, # of connection points: 6
#     Node 7, Type 0, BuildingBlock: KUMJIN_clean_sbu_1, # of connection points: 6
#     Edge 8, Type (0, 0), BuildingBlock: XIVTED_clean_linker_0, # of connection points: 2
#     Edge 9, Type (0, 0), BuildingBlock: XIVTED_clean_linker_0, # of connection points: 2
#     Edge 10, Type (0, 0), BuildingBlock: XIVTED_clean_linker_0, # of connection points: 2
#     Edge 11, Type (0, 0), BuildingBlock: XIVTED_clean_linker_0, # of connection points: 2
#     Edge 12, Type (0, 0), BuildingBlock: XIVTED_clean_linker_0, # of connection points: 2
#     Edge 13, Type (0, 0), BuildingBlock: XIVTED_clean_linker_0, # of connection points: 2
#     Edge 14, Type (0, 0), BuildingBlock: XIVTED_clean_linker_0, # of connection points: 2
#     Edge 15, Type (0, 0), BuildingBlock: XIVTED_clean_linker_0, # of connection points: 2
#     Edge 16, Type (0, 0), BuildingBlock: XIVTED_clean_linker_0, # of connection points: 2
#     Edge 17, Type (0, 0), BuildingBlock: XIVTED_clean_linker_0, # of connection points: 2
#     Edge 18, Type (0, 0), BuildingBlock: XIVTED_clean_linker_0, # of connection points: 2
#     Edge 19, Type (0, 0), BuildingBlock: XIVTED_clean_linker_0, # of connection points: 2
#     Edge 20, Type (0, 0), BuildingBlock: XIVTED_clean_linker_0, # of connection points: 2
#     Edge 21, Type (0, 0), BuildingBlock: XIVTED_clean_linker_0, # of connection points: 2
#     Edge 22, Type (0, 0), BuildingBlock: XIVTED_clean_linker_0, # of connection points: 2
#     Edge 23, Type (0, 0), BuildingBlock: XIVTED_clean_linker_0, # of connection points: 2
#     Edge 24, Type (0, 0), BuildingBlock: XIVTED_clean_linker_0, # of connection points: 2
#     Edge 25, Type (0, 0), BuildingBlock: XIVTED_clean_linker_0, # of connection points: 2
#     Edge 26, Type (0, 0), BuildingBlock: XIVTED_clean_linker_0, # of connection points: 2
#     Edge 27, Type (0, 0), BuildingBlock: XIVTED_clean_linker_0, # of connection points: 2
#     Edge 28, Type (0, 0), BuildingBlock: XIVTED_clean_linker_0, # of connection points: 2
#     Edge 29, Type (0, 0), BuildingBlock: XIVTED_clean_linker_0, # of connection points: 2
#     Edge 30, Type (0, 0), BuildingBlock: XIVTED_clean_linker_0, # of connection points: 2
#     Edge 31, Type (0, 0), BuildingBlock: XIVTED_clean_linker_0, # of connection points: 2
# Relax obj value: 0.218
# Max RMSD: 0.233
# Mean RMSD: 0.231
data_MOF--net-ske--node1-KUMJIN_clean_sbu_1--edge1-XIVTED_clean_linker_0
_symmetry_space_group_name_H-M    P1
_symmetry_Int_Tables_number       1
_symmetry_cell_setting            triclinic
loop_
_symmetry_equiv_pos_as_xyz
'x, y, z'
_cell_length_a     99.060765
_cell_length_b     29.968227
_cell_length_c     15.278649
_cell_angle_alpha  98.3045
_cell_angle_beta   89.905372
_cell_angle_gamma 89.995792
loop_
_atom_site_label
_atom_site_type_symbol
_atom_site_fract_x
_atom_site_fract_y
_atom_site_fract_z
_atom_type_partial_charge
Eu0 Eu 0.15147 0.26051 0.52067 0.0
C1 C 0.0982 0.22568 0.71016 0.0
N2 N 0.10246 0.20493 0.62969 0.0
C3 C 0.0959 0.133 0.66659 0.0
C4 C 0.09288 0.20028 0.77307 0.0
C5 C 0.10119 0.15945 0.60655 0.0
C6 C 0.09177 0.15345 0.7503 0.0
C7 C 0.09592 0.29418 0.8155 0.0
C8 C 0.09981 0.27225 0.73121 0.0
C9 C 0.09064 0.26891 0.8782 0.0
C10 C 0.08911 0.22215 0.85704 0.0
Eu11 Eu 0.11106 0.25229 0.53257 0.0
N12 N 0.10533 0.29592 0.67003 0.0
C13 C 0.09736 0.341 0.83428 0.0
C14 C 0.10583 0.3419 0.68625 0.0
C15 C 0.10215 0.36499 0.76893 0.0
H16 H 0.10406 0.14368 0.54118 0.0
H17 H 0.10278 0.4014 0.78168 0.0
H18 H 0.16014 0.36793 0.5164 0.0
H19 H 0.15983 0.11169 0.27084 0.0
H20 H 0.1086 0.36142 0.63537 0.0
H21 H 0.09448 0.35906 0.8982 0.0
H22 H 0.15413 0.15154 0.41748 0.0
H23 H 0.09497 0.09687 0.64816 0.0
H24 H 0.08767 0.28525 0.94332 0.0
H25 H 0.08507 0.20316 0.90633 0.0
H26 H 0.16973 0.41493 0.41136 0.0
H27 H 0.08775 0.1328 0.79687 0.0
H28 H 0.16828 0.15411 0.15481 0.0
N29 N 0.16098 0.30745 0.42569 0.0
C30 C 0.16508 0.28696 0.34472 0.0
C31 C 0.16839 0.37906 0.39153 0.0
C32 C 0.17071 0.31233 0.28283 0.0
C33 C 0.16278 0.35258 0.45046 0.0
C34 C 0.1723 0.35891 0.30715 0.0
N35 N 0.15745 0.21707 0.38322 0.0
C36 C 0.15689 0.1711 0.36667 0.0
C37 C 0.16703 0.21883 0.23821 0.0
C38 C 0.16315 0.24065 0.3226 0.0
C39 C 0.16541 0.1721 0.21881 0.0
C40 C 0.16054 0.14808 0.28386 0.0
H41 H 0.17659 0.37955 0.26145 0.0
H42 H 0.17866 0.30967 0.14994 0.0
H43 H 0.1755 0.22787 0.11102 0.0
O44 O 0.1678 0.2192 0.56199 0.0
O45 O 0.13927 0.27878 0.4037 0.0
O46 O 0.12022 0.2344 0.39448 0.0
O47 O 0.17046 0.2911 0.57207 0.0
O48 O 0.14197 0.19337 0.54206 0.0
O49 O 0.12181 0.18998 0.46561 0.0
O50 O 0.09412 0.29197 0.49394 0.0
O51 O 0.12363 0.23378 0.64786 0.0
O52 O 0.14206 0.2805 0.65718 0.0
O53 O 0.09214 0.21988 0.48541 0.0
O54 O 0.12023 0.31947 0.5092 0.0
O55 O 0.14071 0.32419 0.58249 0.0
C56 C 0.12962 0.25651 0.3572 0.0
C57 C 0.18298 0.25349 0.67052 0.0
C58 C 0.2044 0.25182 0.74963 0.0
C59 C 0.19713 0.2531 0.82923 0.0
C60 C 0.17594 0.25477 0.75044 0.0
C61 C 0.18301 0.25461 0.82942 0.0
C62 C 0.19716 0.25208 0.67034 0.0
C63 C 0.13178 0.17043 0.50225 0.0
C64 C 0.17579 0.25323 0.5864 0.0
C65 C 0.17439 0.29068 0.1985 0.0
C66 C 0.17254 0.2441 0.17625 0.0
C67 C 0.13299 0.25734 0.69472 0.0
C68 C 0.07843 0.2558 0.39067 0.0
C69 C 0.05632 0.25497 0.31911 0.0
C70 C 0.06289 0.25259 0.23672 0.0
C71 C 0.08477 0.25343 0.3081 0.0
C72 C 0.06426 0.25658 0.39596 0.0
C73 C 0.077 0.25184 0.23149 0.0
C74 C 0.13059 0.343 0.5454 0.0
C75 C 0.08632 0.25717 0.47228 0.0
H76 H 0.20234 0.25353 0.89158 0.0
H77 H 0.16501 0.25578 0.75163 0.0
H78 H 0.17753 0.25571 0.89108 0.0
H79 H 0.20253 0.25046 0.60805 0.0
H80 H 0.05715 0.25065 0.17607 0.0
H81 H 0.09568 0.25275 0.30301 0.0
H82 H 0.05946 0.25899 0.46027 0.0
H83 H 0.08192 0.24985 0.16773 0.0
Eu84 Eu 0.90013 0.25232 0.5633 0.0
C85 C 0.84189 0.23223 0.37969 0.0
N86 N 0.84886 0.26553 0.43037 0.0
C87 C 0.84244 0.31836 0.33426 0.0
C88 C 0.83532 0.2405 0.30185 0.0
C89 C 0.84885 0.30854 0.41068 0.0
C90 C 0.83576 0.28411 0.27914 0.0
C91 C 0.83453 0.15422 0.35361 0.0
C92 C 0.84153 0.18959 0.40531 0.0
C93 C 0.82816 0.16212 0.2752 0.0
C94 C 0.82854 0.20514 0.24945 0.0
Eu95 Eu 0.85914 0.24584 0.55869 0.0
N96 N 0.84777 0.18293 0.4816 0.0
C97 C 0.834 0.11207 0.38284 0.0
C98 C 0.84677 0.14253 0.51243 0.0
C99 C 0.84005 0.10633 0.46298 0.0
H100 H 0.85386 0.33513 0.45368 0.0
H101 H 0.83943 0.07417 0.48713 0.0
H102 H 0.9042 0.14267 0.59557 0.0
H103 H 0.91346 0.40735 0.77705 0.0
H104 H 0.85099 0.1383 0.57583 0.0
H105 H 0.82874 0.08403 0.34493 0.0
H106 H 0.90464 0.36129 0.64146 0.0
H107 H 0.84263 0.35233 0.31802 0.0
H108 H 0.82278 0.13529 0.23446 0.0
H109 H 0.82349 0.21077 0.18914 0.0
H110 H 0.91018 0.1011 0.71705 0.0
H111 H 0.83083 0.29181 0.21983 0.0
H112 H 0.92128 0.37012 0.90222 0.0
N113 N 0.90594 0.20738 0.67293 0.0
C114 C 0.91087 0.23084 0.74946 0.0
C115 C 0.91015 0.1376 0.72767 0.0
C116 C 0.91503 0.20822 0.81968 0.0
C117 C 0.90631 0.16138 0.6595 0.0
C118 C 0.91434 0.16112 0.80857 0.0
N119 N 0.90729 0.29925 0.69105 0.0
C120 C 0.90796 0.345 0.69632 0.0
C121 C 0.91691 0.30272 0.83638 0.0
C122 C 0.91185 0.27779 0.75794 0.0
C123 C 0.91748 0.34981 0.84296 0.0
C124 C 0.91301 0.37101 0.77259 0.0
H125 H 0.91743 0.14254 0.86098 0.0
H126 H 0.92311 0.2162 0.95278 0.0
H127 H 0.92474 0.29875 0.96736 0.0
O128 O 0.9176 0.28977 0.5247 0.0
O129 O 0.88674 0.27774 0.684 0.0
O130 O 0.87031 0.22462 0.67465 0.0
O131 O 0.91921 0.21817 0.52483 0.0
O132 O 0.89021 0.31222 0.51549 0.0
O133 O 0.8692 0.31527 0.58419 0.0
O134 O 0.83918 0.23233 0.61109 0.0
O135 O 0.86865 0.24379 0.4221 0.0
O136 O 0.89217 0.24923 0.42324 0.0
O137 O 0.84842 0.29758 0.6477 0.0
O138 O 0.87146 0.18588 0.58709 0.0
O139 O 0.89066 0.18545 0.5029 0.0
C140 C 0.87854 0.2521 0.72284 0.0
C141 C 0.93289 0.25 0.42346 0.0
C142 C 0.95457 0.24904 0.34596 0.0
C143 C 0.94758 0.24232 0.26492 0.0
C144 C 0.92617 0.24311 0.34195 0.0
C145 C 0.9335 0.23938 0.26315 0.0
C146 C 0.94707 0.25282 0.42529 0.0
C147 C 0.87893 0.33331 0.54156 0.0
C148 C 0.92525 0.25435 0.50696 0.0
C149 C 0.91995 0.23309 0.89815 0.0
C150 C 0.92093 0.28012 0.90634 0.0
C151 C 0.88041 0.2455 0.38235 0.0
C152 C 0.82451 0.2951 0.6326 0.0
C153 C 0.79982 0.29798 0.64469 0.0
C154 C 0.79982 0.33488 0.59719 0.0
C155 C 0.82417 0.332 0.58544 0.0
C156 C 0.8123 0.27827 0.66223 0.0
C157 C 0.8119 0.35162 0.56788 0.0
C158 C 0.88026 0.16443 0.53197 0.0
C159 C 0.83747 0.27349 0.64993 0.0
H160 H 0.953 0.23862 0.20269 0.0
H161 H 0.91529 0.24052 0.33922 0.0
H162 H 0.92826 0.23399 0.20041 0.0
H163 H 0.95221 0.2585 0.48848 0.0
H164 H 0.79048 0.35137 0.58375 0.0
H165 H 0.83338 0.34581 0.56226 0.0
H166 H 0.81253 0.24949 0.69777 0.0
H167 H 0.81174 0.38012 0.53167 0.0
Eu168 Eu 0.15684 0.75791 0.47308 0.0
C169 C 0.10289 0.85088 0.48123 0.0
N170 N 0.10657 0.82279 0.53918 0.0
C171 C 0.09984 0.87781 0.66122 0.0
C172 C 0.09815 0.89477 0.51157 0.0
C173 C 0.10457 0.83471 0.62802 0.0
C174 C 0.09682 0.90825 0.60283 0.0
C175 C 0.09901 0.86263 0.32969 0.0
C176 C 0.1034 0.83501 0.39143 0.0
C177 C 0.09508 0.90733 0.35927 0.0
C178 C 0.09464 0.92336 0.45005 0.0
Eu179 Eu 0.11549 0.75198 0.47741 0.0
N180 N 0.1071 0.79147 0.36497 0.0
C181 C 0.09811 0.84386 0.24055 0.0
C182 C 0.10475 0.77184 0.28007 0.0
C183 C 0.10066 0.79793 0.21602 0.0
H184 H 0.10719 0.81152 0.67323 0.0
H185 H 0.09927 0.78245 0.14813 0.0
H186 H 0.16834 0.69041 0.6112 0.0
H187 H 0.17432 0.92713 0.43384 0.0
H188 H 0.10594 0.73593 0.2616 0.0
H189 H 0.09479 0.86392 0.19104 0.0
H190 H 0.16385 0.85278 0.38648 0.0
H191 H 0.09862 0.88765 0.73177 0.0
H192 H 0.09189 0.92925 0.31266 0.0
H193 H 0.09121 0.95747 0.47204 0.0
H194 H 0.18156 0.69592 0.74998 0.0
H195 H 0.09322 0.94171 0.62875 0.0
H196 H 0.18537 0.94312 0.58018 0.0
N197 N 0.17009 0.76017 0.60183 0.0
C198 C 0.17581 0.80017 0.63438 0.0
C199 C 0.17995 0.72558 0.71846 0.0
C200 C 0.18346 0.80499 0.71283 0.0
C201 C 0.17249 0.72252 0.64015 0.0
C202 C 0.1853 0.76717 0.75573 0.0
N203 N 0.16803 0.82822 0.50757 0.0
C204 C 0.16836 0.85979 0.45142 0.0
C205 C 0.18107 0.877 0.61485 0.0
C206 C 0.17464 0.83551 0.58599 0.0
C207 C 0.18059 0.91072 0.56036 0.0
C208 C 0.17438 0.9018 0.47766 0.0
H209 H 0.19111 0.76945 0.81624 0.0
H210 H 0.19515 0.85146 0.80495 0.0
H211 H 0.19302 0.91465 0.71913 0.0
O212 O 0.17706 0.75458 0.41528 0.0
O213 O 0.1478 0.76012 0.61162 0.0
O214 O 0.12451 0.74532 0.61115 0.0
O215 O 0.16326 0.69897 0.38094 0.0
O216 O 0.14395 0.81442 0.4368 0.0
O217 O 0.12783 0.81268 0.54083 0.0
O218 O 0.10504 0.70144 0.5417 0.0
O219 O 0.1262 0.72657 0.34591 0.0
O220 O 0.14455 0.77367 0.35605 0.0
O221 O 0.09372 0.73943 0.45838 0.0
O222 O 0.12773 0.68981 0.42495 0.0
O223 O 0.14703 0.69434 0.5083 0.0
C224 C 0.1363 0.75215 0.65108 0.0
C225 C 0.18676 0.6819 0.39012 0.0
C226 C 0.21104 0.66559 0.39302 0.0
C227 C 0.20797 0.62357 0.41915 0.0
C228 C 0.18404 0.63991 0.41704 0.0
C229 C 0.1946 0.61098 0.43104 0.0
C230 C 0.20029 0.69444 0.37789 0.0
C231 C 0.13552 0.8357 0.49382 0.0
C232 C 0.17567 0.7133 0.37627 0.0
C233 C 0.18934 0.84689 0.74426 0.0
C234 C 0.18813 0.88287 0.6954 0.0
C235 C 0.13619 0.74615 0.30836 0.0
C236 C 0.08276 0.72157 0.58697 0.0
C237 C 0.05917 0.7245 0.63623 0.0
C238 C 0.06358 0.73868 0.72327 0.0
C239 C 0.0868 0.7357 0.67478 0.0
C240 C 0.06885 0.71644 0.56773 0.0
C241 C 0.07727 0.74435 0.74214 0.0
C242 C 0.13664 0.67137 0.47239 0.0
C243 C 0.09307 0.71185 0.51641 0.0
H244 H 0.21591 0.60011 0.42975 0.0
H245 H 0.17378 0.62938 0.4276 0.0
H246 H 0.19241 0.5786 0.45138 0.0
H247 H 0.20243 0.72711 0.3585 0.0
H248 H 0.05638 0.74574 0.77697 0.0
H249 H 0.09737 0.73992 0.69172 0.0
H250 H 0.06562 0.70536 0.50036 0.0
H251 H 0.08052 0.75531 0.80943 0.0
Eu252 Eu 0.90154 0.73863 0.42504 0.0
C253 C 0.84405 0.75946 0.62069 0.0
N254 N 0.85072 0.72586 0.56871 0.0
C255 C 0.84463 0.67342 0.66648 0.0
C256 C 0.8378 0.75155 0.69996 0.0
C257 C 0.85071 0.6829 0.58862 0.0
C258 C 0.83825 0.70797 0.72284 0.0
C259 C 0.83691 0.83769 0.64765 0.0
C260 C 0.84364 0.80201 0.59479 0.0
C261 C 0.83086 0.83016 0.7275 0.0
C262 C 0.8313 0.78721 0.75353 0.0
Eu263 Eu 0.8605 0.74491 0.43802 0.0
N264 N 0.84953 0.80827 0.51705 0.0
C265 C 0.83629 0.87974 0.61806 0.0
C266 C 0.8484 0.84854 0.48589 0.0
C267 C 0.84196 0.88505 0.53645 0.0
H268 H 0.85546 0.65608 0.54457 0.0
H269 H 0.84126 0.91713 0.51204 0.0
H270 H 0.90559 0.84908 0.39723 0.0
H271 H 0.91388 0.58551 0.2023 0.0
H272 H 0.85232 0.85243 0.42142 0.0
H273 H 0.83123 0.90802 0.65684 0.0
H274 H 0.90558 0.63023 0.34116 0.0
H275 H 0.84482 0.63947 0.68283 0.0
H276 H 0.8257 0.85723 0.76914 0.0
H277 H 0.8265 0.78185 0.81493 0.0
H278 H 0.91099 0.89205 0.2768 0.0
H279 H 0.83357 0.70053 0.78323 0.0
H280 H 0.92115 0.62424 0.07771 0.0
N281 N 0.90682 0.78501 0.3167 0.0
C282 C 0.91136 0.76228 0.23827 0.0
C283 C 0.91087 0.85557 0.2645 0.0
C284 C 0.91522 0.78573 0.16847 0.0
C285 C 0.90734 0.83099 0.33218 0.0
C286 C 0.91462 0.83287 0.18187 0.0
N287 N 0.90798 0.69297 0.29388 0.0
C288 C 0.90868 0.64714 0.28654 0.0
C289 C 0.91702 0.69111 0.14714 0.0
C290 C 0.91228 0.71526 0.2274 0.0
C291 C 0.91758 0.64395 0.13839 0.0
C292 C 0.91342 0.6219 0.20844 0.0
H293 H 0.91748 0.85206 0.12984 0.0
H294 H 0.92269 0.77918 0.03377 0.0
H295 H 0.92426 0.69653 0.01519 0.0
O296 O 0.91898 0.69962 0.45826 0.0
O297 O 0.88758 0.71315 0.30747 0.0
O298 O 0.87104 0.76601 0.31922 0.0
O299 O 0.92101 0.77113 0.45827 0.0
O300 O 0.89187 0.67904 0.47577 0.0
O301 O 0.87065 0.67564 0.4106 0.0
O302 O 0.84044 0.7589 0.38834 0.0
O303 O 0.87064 0.74643 0.57246 0.0
O304 O 0.89423 0.74342 0.56749 0.0
O305 O 0.84926 0.69286 0.35317 0.0
O306 O 0.87279 0.80444 0.40711 0.0
O307 O 0.89227 0.80549 0.48788 0.0
C308 C 0.87931 0.73904 0.26985 0.0
C309 C 0.93556 0.73737 0.55194 0.0
C310 C 0.95802 0.73389 0.61734 0.0
C311 C 0.95205 0.74206 0.70189 0.0
C312 C 0.92986 0.74544 0.63673 0.0
C313 C 0.93809 0.74779 0.71128 0.0
C314 C 0.94962 0.73178 0.54239 0.0
C315 C 0.88043 0.65814 0.45342 0.0
C316 C 0.92699 0.73426 0.4728 0.0
C317 C 0.91977 0.76164 0.0881 0.0
C318 C 0.92072 0.71455 0.07762 0.0
C319 C 0.88259 0.74603 0.61034 0.0
C320 C 0.82538 0.69721 0.37101 0.0
C321 C 0.80066 0.69577 0.36037 0.0
C322 C 0.80047 0.66005 0.41089 0.0
C323 C 0.82485 0.66144 0.42102 0.0
C324 C 0.81325 0.71419 0.34068 0.0
C325 C 0.81247 0.64313 0.44085 0.0
C326 C 0.88163 0.82613 0.46128 0.0
C327 C 0.83844 0.71759 0.35132 0.0
H328 H 0.95818 0.7446 0.76101 0.0
H329 H 0.91907 0.74992 0.6452 0.0
H330 H 0.93364 0.75413 0.77667 0.0
H331 H 0.95397 0.72506 0.47664 0.0
H332 H 0.79104 0.64457 0.42614 0.0
H333 H 0.834 0.64749 0.44465 0.0
H334 H 0.81363 0.74209 0.30283 0.0
H335 H 0.81217 0.61551 0.4793 0.0
Eu336 Eu 0.65222 0.75167 0.06028 0.0
C337 C 0.601 0.73363 0.25737 0.0
N338 N 0.60584 0.71048 0.18016 0.0
C339 C 0.60221 0.64043 0.23517 0.0
C340 C 0.59716 0.71072 0.328 0.0
C341 C 0.60572 0.66448 0.16664 0.0
C342 C 0.59811 0.66365 0.31662 0.0
C343 C 0.59485 0.80514 0.34549 0.0
C344 C 0.59981 0.78055 0.2663 0.0
C345 C 0.59114 0.78225 0.41578 0.0
C346 C 0.59235 0.73526 0.40721 0.0
Eu347 Eu 0.61105 0.75588 0.07014 0.0
N348 N 0.60411 0.80235 0.19911 0.0
C349 C 0.59408 0.85222 0.35247 0.0
C350 C 0.60324 0.84807 0.20478 0.0
C351 C 0.59827 0.87374 0.28178 0.0
H352 H 0.60779 0.64593 0.10244 0.0
H353 H 0.59767 0.91007 0.28657 0.0
H354 H 0.65714 0.84103 0.95528 0.0
H355 H 0.67225 0.58047 0.9868 0.0
H356 H 0.60637 0.86458 0.14969 0.0
H357 H 0.59034 0.87227 0.41229 0.0
H358 H 0.66073 0.64442 0.07668 0.0
H359 H 0.60238 0.60394 0.22445 0.0
H360 H 0.58742 0.80062 0.47739 0.0
H361 H 0.58944 0.71815 0.46215 0.0
H362 H 0.668 0.85854 0.81836 0.0
H363 H 0.59529 0.64486 0.36934 0.0
H364 H 0.68258 0.59046 0.84332 0.0
N365 N 0.66217 0.7715 0.93086 0.0
C366 C 0.66909 0.73834 0.87932 0.0
C367 C 0.66828 0.82453 0.83436 0.0
C368 C 0.67548 0.74678 0.80088 0.0
C369 C 0.66206 0.81454 0.91142 0.0
C370 C 0.67491 0.79042 0.7784 0.0
N371 N 0.66357 0.68898 0.98185 0.0
C372 C 0.66478 0.64866 0.01273 0.0
C373 C 0.6766 0.66051 0.85248 0.0
C374 C 0.66961 0.69573 0.90487 0.0
C375 C 0.67732 0.6184 0.88174 0.0
C376 C 0.67148 0.61259 0.96261 0.0
H377 H 0.6797 0.79826 0.71865 0.0
H378 H 0.68717 0.71732 0.68699 0.0
H379 H 0.68816 0.64183 0.73215 0.0
O380 O 0.67216 0.73843 0.11261 0.0
O381 O 0.64236 0.74956 0.92484 0.0
O382 O 0.61876 0.75209 0.92883 0.0
O383 O 0.66316 0.80433 0.14558 0.0
O384 O 0.64009 0.69164 0.08998 0.0
O385 O 0.62068 0.68965 1.00821 0.0
O386 O 0.59335 0.79283 0.03389 0.0
O387 O 0.62468 0.7819 0.18918 0.0
O388 O 0.6415 0.72998 0.17784 0.0
O389 O 0.59197 0.72122 0.03478 0.0
O390 O 0.62054 0.8157 0.01974 0.0
O391 O 0.64158 0.82004 0.08734 0.0
C392 C 0.63044 0.74975 0.88651 0.0
C393 C 0.68709 0.80047 0.13031 0.0
C394 C 0.7118 0.80192 0.14189 0.0
C395 C 0.71204 0.83786 0.09193 0.0
C396 C 0.68767 0.83644 0.08084 0.0
C397 C 0.70007 0.85488 0.06178 0.0
C398 C 0.6992 0.78341 0.16089 0.0
C399 C 0.63141 0.66961 0.03509 0.0
C400 C 0.67401 0.77991 0.14907 0.0
C401 C 0.68225 0.71156 0.74775 0.0
C402 C 0.68279 0.66854 0.77343 0.0
C403 C 0.63311 0.7566 0.22696 0.0
C404 C 0.57774 0.75262 0.936 0.0
C405 C 0.55571 0.75069 0.8631 0.0
C406 C 0.56235 0.74469 0.78066 0.0
C407 C 0.58411 0.74648 0.85316 0.0
C408 C 0.56356 0.75455 0.9408 0.0
C409 C 0.57643 0.74259 0.77595 0.0
C410 C 0.63193 0.83686 0.04243 0.0
C411 C 0.58574 0.75723 0.01786 0.0
H412 H 0.72148 0.85341 0.07723 0.0
H413 H 0.67855 0.85044 0.05697 0.0
H414 H 0.7004 0.88266 0.02373 0.0
H415 H 0.69878 0.75535 0.19833 0.0
H416 H 0.55665 0.74096 0.71959 0.0
H417 H 0.59499 0.74465 0.84821 0.0
H418 H 0.55867 0.75968 1.00503 0.0
H419 H 0.5814 0.73779 0.71214 0.0
Eu420 Eu 0.3987 0.75113 0.07412 0.0
C421 C 0.34464 0.74708 0.8671 0.0
N422 N 0.35049 0.77622 0.93287 0.0
C423 C 0.34584 0.83806 0.85399 0.0
C424 C 0.33981 0.76229 0.78976 0.0
C425 C 0.35045 0.82141 0.92945 0.0
C426 C 0.34069 0.80829 0.78321 0.0
C427 C 0.33784 0.6706 0.80902 0.0
C428 C 0.34359 0.7017 0.87679 0.0
C429 C 0.33319 0.68562 0.73149 0.0
C430 C 0.33418 0.7313 0.72188 0.0
Eu431 Eu 0.35814 0.74418 0.05665 0.0
N432 N 0.34848 0.68783 0.95159 0.0
C433 C 0.33702 0.62522 0.82093 0.0
C434 C 0.34741 0.64388 0.96453 0.0
C435 C 0.34176 0.61187 0.89923 0.0
H436 H 0.35353 0.84496 0.98559 0.0
H437 H 0.34101 0.57697 0.9095 0.0
H438 H 0.40199 0.64394 0.1215 0.0
H439 H 0.41239 0.91092 0.27124 0.0
H440 H 0.35071 0.6336 0.02588 0.0
H441 H 0.33268 0.6003 0.77037 0.0
H442 H 0.40378 0.86135 0.13959 0.0
H443 H 0.34606 0.87393 0.85107 0.0
H444 H 0.3288 0.66217 0.67857 0.0
H445 H 0.33049 0.74236 0.66181 0.0
H446 H 0.40757 0.60649 0.24936 0.0
H447 H 0.33709 0.8213 0.72489 0.0
H448 H 0.41983 0.87791 0.40249 0.0
N449 N 0.40414 0.71032 0.19103 0.0
C450 C 0.40919 0.73568 0.26512 0.0
C451 C 0.4078 0.64291 0.25533 0.0
C452 C 0.41309 0.71541 0.33903 0.0
C453 C 0.40419 0.66441 0.18349 0.0
C454 C 0.41207 0.66855 0.33393 0.0
N455 N 0.40614 0.80139 0.19702 0.0
C456 C 0.40689 0.84682 0.19706 0.0
C457 C 0.41539 0.80928 0.34405 0.0
C458 C 0.41044 0.78225 0.26763 0.0
C459 C 0.41609 0.85604 0.34497 0.0
C460 C 0.41184 0.87485 0.27114 0.0
H461 H 0.41494 0.65174 0.3893 0.0
H462 H 0.42095 0.72728 0.47268 0.0
H463 H 0.42293 0.80931 0.47712 0.0
O464 O 0.41776 0.78309 0.04596 0.0
O465 O 0.38534 0.77597 0.19501 0.0
O466 O 0.36766 0.72673 0.18257 0.0
O467 O 0.41609 0.7107 0.02213 0.0
O468 O 0.389 0.81048 0.0246 0.0
O469 O 0.3681 0.81332 0.09409 0.0
O470 O 0.33843 0.71982 0.09418 0.0
O471 O 0.36992 0.72504 0.92712 0.0
O472 O 0.39042 0.76253 0.93953 0.0
O473 O 0.34348 0.79017 0.1287 0.0
O474 O 0.36928 0.68469 0.09676 0.0
O475 O 0.38917 0.68382 0.01826 0.0
C476 C 0.3764 0.75195 0.2317 0.0
C477 C 0.43177 0.74451 0.93513 0.0
C478 C 0.45385 0.74614 0.86334 0.0
C479 C 0.44725 0.74342 0.7811 0.0
C480 C 0.42543 0.74194 0.85264 0.0
C481 C 0.43316 0.74138 0.77604 0.0
C482 C 0.44593 0.74663 0.9403 0.0
C483 C 0.37806 0.83219 0.05506 0.0
C484 C 0.4238 0.74539 0.01663 0.0
C485 C 0.41799 0.74232 0.41524 0.0
C486 C 0.41917 0.78905 0.41767 0.0
C487 C 0.38025 0.74376 0.89196 0.0
C488 C 0.32867 0.75798 0.22457 0.0
C489 C 0.30896 0.74611 0.31572 0.0
C490 C 0.31713 0.75546 0.39158 0.0
C491 C 0.33658 0.7668 0.30113 0.0
C492 C 0.31489 0.74759 0.23208 0.0
C493 C 0.33081 0.76558 0.38411 0.0
C494 C 0.37888 0.66297 0.04899 0.0
C495 C 0.33467 0.75859 0.13639 0.0
H496 H 0.45298 0.74225 0.72038 0.0
H497 H 0.41453 0.74031 0.84755 0.0
H498 H 0.42823 0.73923 0.71239 0.0
H499 H 0.45074 0.74929 1.00451 0.0
H500 H 0.31292 0.75544 0.45705 0.0
H501 H 0.34721 0.77469 0.29676 0.0
H502 H 0.30888 0.73993 0.17259 0.0
H503 H 0.33697 0.7726 0.44297 0.0
Eu504 Eu 0.65093 0.24621 0.95399 0.0
C505 C 0.6 0.28738 0.77506 0.0
N506 N 0.60373 0.3033 0.85955 0.0
C507 C 0.59886 0.3789 0.83462 0.0
C508 C 0.59628 0.31712 0.71557 0.0
C509 C 0.60231 0.34804 0.89135 0.0
C510 C 0.59611 0.36347 0.74585 0.0
C511 C 0.59496 0.22341 0.66299 0.0
C512 C 0.59928 0.24106 0.74889 0.0
C513 C 0.5918 0.25298 0.60259 0.0
C514 C 0.59248 0.2997 0.62876 0.0
Eu515 Eu 0.61033 0.24784 0.94746 0.0
N516 N 0.60293 0.21315 0.80744 0.0
C517 C 0.59393 0.17653 0.64051 0.0
C518 C 0.60133 0.16756 0.7877 0.0
C519 C 0.59697 0.14852 0.70352 0.0
H520 H 0.60359 0.36019 0.9608 0.0
H521 H 0.596 0.11231 0.68715 0.0
H522 H 0.6574 0.15063 0.03542 0.0
H523 H 0.66761 0.41796 0.07887 0.0
H524 H 0.60375 0.14605 0.83654 0.0
H525 H 0.59065 0.16166 0.57515 0.0
H526 H 0.65979 0.3563 0.96604 0.0
H527 H 0.59813 0.41448 0.85977 0.0
H528 H 0.58864 0.24006 0.53586 0.0
H529 H 0.58976 0.32208 0.58192 0.0
H530 H 0.66613 0.12679 0.17332 0.0
H531 H 0.59333 0.38742 0.70222 0.0
H532 H 0.67353 0.40235 0.22874 0.0
N533 N 0.6595 0.22052 0.08216 0.0
C534 C 0.66399 0.25254 0.14768 0.0
C535 C 0.66552 0.16225 0.16712 0.0
C536 C 0.66888 0.24061 0.22773 0.0
C537 C 0.66065 0.17574 0.08918 0.0
C538 C 0.66947 0.19484 0.23721 0.0
N539 N 0.6598 0.30716 0.05375 0.0
C540 C 0.66175 0.34938 0.03227 0.0
C541 C 0.66889 0.33115 0.19925 0.0
C542 C 0.66392 0.29722 0.13355 0.0
C543 C 0.66978 0.37533 0.18006 0.0
C544 C 0.66643 0.38429 0.0956 0.0
H545 H 0.67318 0.18431 0.29771 0.0
H546 H 0.67688 0.2661 0.35724 0.0
H547 H 0.67694 0.34539 0.33224 0.0
O548 O 0.67186 0.26123 0.9215 0.0
O549 O 0.63896 0.22877 0.07406 0.0
O550 O 0.61971 0.27195 0.08356 0.0
O551 O 0.66271 0.19921 0.86102 0.0
O552 O 0.64013 0.30949 0.92518 0.0
O553 O 0.62082 0.31229 1.00934 0.0
O554 O 0.59593 0.20548 1.0063 0.0
O555 O 0.62332 0.22218 0.82467 0.0
O556 O 0.6411 0.2703 0.83405 0.0
O557 O 0.58953 0.27013 0.97583 0.0
O558 O 0.61959 0.18306 0.98015 0.0
O559 O 0.64058 0.17846 0.91091 0.0
C560 C 0.62947 0.25173 0.12158 0.0
C561 C 0.68647 0.19894 0.88433 0.0
C562 C 0.71109 0.19353 0.86916 0.0
C563 C 0.71076 0.15411 0.90919 0.0
C564 C 0.68644 0.1592 0.92298 0.0
C565 C 0.69853 0.13715 0.93571 0.0
C566 C 0.69882 0.21587 0.85721 0.0
C567 C 0.63094 0.33233 0.9751 0.0
C568 C 0.67376 0.22297 0.87116 0.0
C569 C 0.67323 0.27453 0.29486 0.0
C570 C 0.67323 0.3197 0.28068 0.0
C571 C 0.63174 0.24731 0.78634 0.0
C572 C 0.57828 0.24247 0.09298 0.0
C573 C 0.55631 0.24805 0.16745 0.0
C574 C 0.56303 0.25673 0.24931 0.0
C575 C 0.58475 0.25135 0.17518 0.0
C576 C 0.5641 0.24103 0.08932 0.0
C577 C 0.57713 0.25841 0.25291 0.0
C578 C 0.6303 0.16017 0.94794 0.0
C579 C 0.58612 0.23461 1.01028 0.0
H580 H 0.71995 0.13575 0.91835 0.0
H581 H 0.67709 0.14492 0.94269 0.0
H582 H 0.6984 0.10652 0.96555 0.0
H583 H 0.69887 0.24656 0.82737 0.0
H584 H 0.55738 0.26286 0.31062 0.0
H585 H 0.59567 0.25277 0.17919 0.0
H586 H 0.55915 0.23378 0.0256 0.0
H587 H 0.58216 0.26531 0.31626 0.0
Eu588 Eu 0.39958 0.2387 0.96084 0.0
C589 C 0.34681 0.23676 0.1736 0.0
N590 N 0.3522 0.2091 0.10361 0.0
C591 C 0.34759 0.14469 0.17544 0.0
C592 C 0.34235 0.21938 0.24969 0.0
C593 C 0.35179 0.16348 0.10135 0.0
C594 C 0.34309 0.17282 0.25061 0.0
C595 C 0.34028 0.31221 0.24095 0.0
C596 C 0.34566 0.28272 0.16907 0.0
C597 C 0.33608 0.29501 0.31734 0.0
C598 C 0.33712 0.24877 0.32171 0.0
Eu599 Eu 0.35911 0.24479 0.98249 0.0
N600 N 0.35017 0.29874 0.09537 0.0
C601 C 0.33942 0.35824 0.23428 0.0
C602 C 0.34908 0.34336 0.08763 0.0
C603 C 0.34377 0.37382 0.1571 0.0
H604 H 0.35419 0.14129 0.04166 0.0
H605 H 0.34299 0.40925 0.15094 0.0
H606 H 0.4027 0.34519 0.90944 0.0
H607 H 0.41361 0.07782 0.7685 0.0
H608 H 0.35209 0.35539 0.02728 0.0
H609 H 0.33535 0.38197 0.2881 0.0
H610 H 0.40504 0.12831 0.89916 0.0
H611 H 0.34757 0.10846 0.17381 0.0
H612 H 0.33199 0.3172 0.37339 0.0
H613 H 0.33375 0.236 0.38088 0.0
H614 H 0.40814 0.38147 0.77974 0.0
H615 H 0.33977 0.15815 0.30777 0.0
H616 H 0.42084 0.10962 0.63525 0.0
N617 N 0.40498 0.27839 0.84204 0.0
C618 C 0.41004 0.25253 0.76846 0.0
C619 C 0.40845 0.3451 0.77504 0.0
C620 C 0.41384 0.27214 0.69346 0.0
C621 C 0.40493 0.32425 0.84797 0.0
C622 C 0.41273 0.3189 0.69697 0.0
N623 N 0.40718 0.18763 0.83929 0.0
C624 C 0.40804 0.14234 0.84084 0.0
C625 C 0.41631 0.17852 0.69162 0.0
C626 C 0.41137 0.2061 0.76754 0.0
C627 C 0.41711 0.13191 0.69233 0.0
C628 C 0.41297 0.11378 0.7673 0.0
H629 H 0.41552 0.3352 0.64074 0.0
H630 H 0.42162 0.25921 0.5595 0.0
H631 H 0.42374 0.17738 0.55783 0.0
O632 O 0.41891 0.20831 0.98844 0.0
O633 O 0.38622 0.21391 0.84029 0.0
O634 O 0.368 0.26123 0.85336 0.0
O635 O 0.41661 0.2805 0.01375 0.0
O636 O 0.39003 0.17913 0.01094 0.0
O637 O 0.36921 0.1762 0.94135 0.0
O638 O 0.33932 0.27089 0.95213 0.0
O639 O 0.37148 0.26668 0.10852 0.0
O640 O 0.3914 0.22639 0.09537 0.0
O641 O 0.34379 0.20032 0.91381 0.0
O642 O 0.3696 0.30476 0.93907 0.0
O643 O 0.38985 0.30619 0.01398 0.0
C644 C 0.37708 0.23736 0.80416 0.0
C645 C 0.43245 0.24763 0.1008 0.0
C646 C 0.45441 0.24669 0.17402 0.0
C647 C 0.44765 0.24969 0.25591 0.0
C648 C 0.42596 0.25043 0.183 0.0
C649 C 0.43356 0.25147 0.26012 0.0
C650 C 0.44663 0.24571 0.09649 0.0
C651 C 0.37918 0.15719 0.97974 0.0
C652 C 0.4246 0.24646 0.01887 0.0
C653 C 0.41873 0.24468 0.61776 0.0
C654 C 0.41999 0.19807 0.6169 0.0
C655 C 0.38147 0.24638 0.14366 0.0
C656 C 0.3277 0.23359 0.82839 0.0
C657 C 0.30622 0.23717 0.75062 0.0
C658 C 0.31345 0.23731 0.67117 0.0
C659 C 0.33469 0.23383 0.74862 0.0
C660 C 0.31352 0.2353 0.82917 0.0
C661 C 0.32756 0.23566 0.67041 0.0
C662 C 0.37956 0.32671 0.98252 0.0
C663 C 0.33496 0.23245 0.91192 0.0
H664 H 0.45326 0.25129 0.31707 0.0
H665 H 0.41505 0.25191 0.18748 0.0
H666 H 0.42851 0.25384 0.32352 0.0
H667 H 0.45155 0.24286 0.03252 0.0
H668 H 0.3082 0.23812 0.60932 0.0
H669 H 0.34561 0.23265 0.74688 0.0
H670 H 0.30821 0.2359 0.89141 0.0
H671 H 0.33299 0.23572 0.60888 0.0
H672 H 0.2221 0.29617 0.65328 0.0
H673 H 0.28851 0.19173 0.84502 0.0
H674 H 0.22113 0.20368 0.8451 0.0
H675 H 0.28948 0.28689 0.65828 0.0
H676 H 0.26387 0.19559 0.84584 0.0
H677 H 0.24675 0.29248 0.65292 0.0
C678 C 0.22705 0.27487 0.69501 0.0
C679 C 0.21947 0.25015 0.74923 0.0
C680 C 0.26946 0.21565 0.80467 0.0
C681 C 0.2478 0.24612 0.74977 0.0
C682 C 0.28357 0.21367 0.80455 0.0
C683 C 0.29116 0.23906 0.75156 0.0
C684 C 0.26282 0.24324 0.75144 0.0
C685 C 0.2841 0.26624 0.69934 0.0
C686 C 0.24115 0.27299 0.69515 0.0
C687 C 0.22651 0.22376 0.80299 0.0
N688 N 0.27037 0.26762 0.70067 0.0
N689 N 0.24025 0.2224 0.80177 0.0
H690 H 0.73561 0.19824 0.95378 0.0
H691 H 0.77558 0.28787 0.55702 0.0
H692 H 0.71652 0.227 0.71448 0.0
H693 H 0.79426 0.26877 0.80389 0.0
H694 H 0.75404 0.26373 0.6122 0.0
H695 H 0.75724 0.22222 0.89901 0.0
C696 C 0.73596 0.20954 0.88961 0.0
C697 C 0.72419 0.21044 0.83861 0.0
C698 C 0.76284 0.26478 0.65438 0.0
C699 C 0.74901 0.23817 0.77546 0.0
C700 C 0.77516 0.27874 0.62302 0.0
C701 C 0.7868 0.28072 0.67602 0.0
C702 C 0.76205 0.25251 0.73954 0.0
C703 C 0.78563 0.26746 0.76028 0.0
C704 C 0.74832 0.2234 0.85851 0.0
C705 C 0.72527 0.22613 0.75655 0.0
N706 N 0.77349 0.25408 0.78945 0.0
N707 N 0.73745 0.23916 0.72746 0.0
H708 H 0.28722 0.77071 0.22023 0.0
H709 H 0.23268 0.65088 0.49711 0.0
H710 H 0.2973 0.695 0.43103 0.0
H711 H 0.22232 0.71135 0.26631 0.0
H712 H 0.25626 0.67016 0.477 0.0
H713 H 0.26339 0.75205 0.2381 0.0
C714 C 0.28447 0.74996 0.2699 0.0
C715 C 0.29437 0.73459 0.32436 0.0
C716 C 0.24886 0.67923 0.43058 0.0
C717 C 0.267 0.71362 0.34596 0.0
C718 C 0.23535 0.66801 0.44178 0.0
C719 C 0.22542 0.67907 0.38288 0.0
C720 C 0.2526 0.70195 0.36006 0.0
C721 C 0.22955 0.70236 0.3138 0.0
C722 C 0.27083 0.73955 0.2804 0.0
C723 C 0.29008 0.70837 0.38844 0.0
N724 N 0.24281 0.71291 0.30418 0.0
N725 N 0.27678 0.69883 0.39744 0.0
H726 H 0.71709 0.77579 0.30393 0.0
H727 H 0.7953 0.72145 0.19807 0.0
H728 H 0.73601 0.78831 0.05401 0.0
H729 H 0.77645 0.70943 0.44845 0.0
H730 H 0.77374 0.7467 0.14466 0.0
H731 H 0.73864 0.7504 0.35737 0.0
C732 C 0.72573 0.77286 0.25996 0.0
C733 C 0.72469 0.78442 0.17434 0.0
C734 C 0.77432 0.73858 0.21134 0.0
C735 C 0.74952 0.75584 0.23564 0.0
C736 C 0.78668 0.72446 0.24215 0.0
C737 C 0.78774 0.7131 0.32792 0.0
C738 C 0.76289 0.74151 0.2666 0.0
C739 C 0.77611 0.71711 0.38141 0.0
C740 C 0.73808 0.75866 0.29078 0.0
C741 C 0.73634 0.78049 0.12095 0.0
N742 N 0.76421 0.73089 0.34992 0.0
N743 N 0.74823 0.76662 0.15244 0.0
H744 H 0.13172 0.89883 0.63997 0.0
H745 H 0.12165 0.10617 0.37355 0.0
H746 H 0.13557 0.88389 0.35625 0.0
H747 H 0.14101 0.12245 0.62872 0.0
H748 H 0.1216 0.02402 0.3727 0.0
H749 H 0.12999 0.98113 0.64376 0.0
C750 C 0.1321 0.91295 0.57863 0.0
C751 C 0.13386 0.88488 0.49779 0.0
C752 C 0.12582 0.0457 0.42882 0.0
C753 C 0.1317 0.97816 0.50137 0.0
C754 C 0.12582 0.09242 0.42947 0.0
C755 C 0.13145 0.12096 0.50096 0.0
C756 C 0.13118 0.02758 0.50114 0.0
C757 C 0.13673 0.1015 0.57185 0.0
C758 C 0.13117 0.9597 0.5808 0.0
C759 C 0.13434 0.90461 0.41997 0.0
N760 N 0.1364 0.05601 0.57048 0.0
N761 N 0.13318 0.95004 0.42355 0.0
H762 H 0.86853 0.4029 0.65813 0.0
H763 H 0.88728 0.62405 0.60267 0.0
H764 H 0.88704 0.37304 0.40074 0.0
H765 H 0.871 0.58511 0.34134 0.0
H766 H 0.88573 0.54515 0.62895 0.0
H767 H 0.86811 0.48336 0.64108 0.0
C768 C 0.8724 0.41328 0.59788 0.0
C769 C 0.87795 0.38151 0.53106 0.0
C770 C 0.88242 0.55404 0.56619 0.0
C771 C 0.87731 0.47282 0.51075 0.0
C772 C 0.88339 0.5988 0.55092 0.0
C773 C 0.87924 0.61089 0.46981 0.0
C774 C 0.87762 0.52099 0.49891 0.0
C775 C 0.87421 0.57706 0.40493 0.0
C776 C 0.87223 0.45905 0.58848 0.0
C777 C 0.88284 0.39666 0.4542 0.0
N778 N 0.87376 0.53339 0.4203 0.0
N779 N 0.8823 0.44124 0.44572 0.0
H780 H 0.88742 0.88453 0.6112 0.0
H781 H 0.88681 0.10641 0.38301 0.0
H782 H 0.87567 0.88077 0.33873 0.0
H783 H 0.87418 0.10931 0.65391 0.0
H784 H 0.88709 0.02342 0.36549 0.0
H785 H 0.88694 0.96759 0.62912 0.0
C786 C 0.88479 0.90126 0.55528 0.0
C787 C 0.88149 0.876 0.47366 0.0
C788 C 0.88424 0.04235 0.42862 0.0
C789 C 0.88122 0.97031 0.4929 0.0
C790 C 0.88412 0.08951 0.43865 0.0
C791 C 0.88036 0.11453 0.51968 0.0
C792 C 0.88098 0.02024 0.50095 0.0
C793 C 0.87698 0.09114 0.58998 0.0
C794 C 0.88446 0.94844 0.56555 0.0
C795 C 0.87814 0.89914 0.40304 0.0
N796 N 0.87749 0.0453 0.5793 0.0
N797 N 0.87821 0.94499 0.414 0.0
H798 H 0.11788 0.60947 0.39837 0.0
H799 H 0.14617 0.40849 0.642 0.0
H800 H 0.15237 0.6229 0.57254 0.0
H801 H 0.11579 0.38993 0.43792 0.0
H802 H 0.14749 0.48845 0.62535 0.0
H803 H 0.11595 0.53023 0.4192 0.0
C804 C 0.12506 0.59584 0.44089 0.0
C805 C 0.13534 0.62304 0.4834 0.0
C806 C 0.14052 0.46689 0.58428 0.0
C807 C 0.13312 0.5322 0.5081 0.0
C808 C 0.13977 0.4212 0.59376 0.0
C809 C 0.13098 0.39222 0.54059 0.0
C810 C 0.13232 0.48399 0.52179 0.0
C811 C 0.12275 0.41086 0.48024 0.0
C812 C 0.12395 0.55053 0.45279 0.0
C813 C 0.14431 0.60335 0.53801 0.0
N814 N 0.12366 0.45542 0.47232 0.0
N815 N 0.14298 0.55928 0.54881 0.0
H816 H 0.62536 0.61087 0.88636 0.0
H817 H 0.62477 0.39204 0.1217 0.0
H818 H 0.63771 0.61566 0.158 0.0
H819 H 0.6374 0.38508 0.84994 0.0
H820 H 0.62513 0.47485 0.13592 0.0
H821 H 0.62547 0.52784 0.87032 0.0
C822 C 0.62809 0.59436 0.9424 0.0
C823 C 0.63163 0.61985 0.0233 0.0
C824 C 0.62783 0.45508 0.07329 0.0
C825 C 0.63147 0.52576 1.00625 0.0
C826 C 0.62757 0.40806 0.06511 0.0
C827 C 0.63113 0.38202 0.98475 0.0
C828 C 0.63129 0.47601 0.99984 0.0
C829 C 0.63472 0.40417 0.91324 0.0
C830 C 0.62819 0.54723 0.93321 0.0
C831 C 0.63507 0.59708 0.0942 0.0
N832 N 0.63458 0.44999 0.92213 0.0
N833 N 0.63477 0.55129 0.08434 0.0
H834 H 0.36993 0.90257 0.17798 0.0
H835 H 0.37041 0.08765 0.85745 0.0
H836 H 0.38415 0.87009 0.90951 0.0
H837 H 0.38574 0.11821 0.1233 0.0
H838 H 0.36929 0.00735 0.87574 0.0
H839 H 0.3695 0.98297 0.15954 0.0
C840 C 0.37284 0.91245 0.11515 0.0
C841 C 0.37719 0.88017 0.04532 0.0
C842 C 0.37285 0.03184 0.92989 0.0
C843 C 0.3764 0.97079 0.02331 0.0
C844 C 0.37347 0.07736 0.9196 0.0
C845 C 0.3783 0.1091 0.98874 0.0
C846 C 0.37667 0.01859 1.01075 0.0
C847 C 0.38214 0.09443 0.06817 0.0
C848 C 0.37264 0.95803 0.10482 0.0
C849 C 0.3809 0.89431 0.96508 0.0
N850 N 0.38112 0.05016 0.07745 0.0
N851 N 0.38032 0.93866 0.95588 0.0
H852 H 0.38686 0.38519 0.12788 0.0
H853 H 0.38571 0.60515 0.90129 0.0
H854 H 0.37208 0.38014 0.86132 0.0
H855 H 0.37212 0.60884 0.17049 0.0
H856 H 0.38564 0.52218 0.88392 0.0
H857 H 0.38643 0.46807 0.14446 0.0
C858 C 0.3836 0.40166 0.07289 0.0
C859 C 0.37947 0.37624 0.9933 0.0
C860 C 0.38267 0.54133 0.9466 0.0
C861 C 0.37923 0.47004 0.01103 0.0
C862 C 0.38277 0.58837 0.95662 0.0
C863 C 0.37888 0.61342 0.03725 0.0
C864 C 0.37906 0.5196 0.01863 0.0
C865 C 0.37508 0.59045 0.1071 0.0
C866 C 0.3833 0.44866 0.08249 0.0
C867 C 0.37525 0.39884 0.92392 0.0
N868 N 0.37542 0.54467 0.09658 0.0
N869 N 0.37538 0.44463 0.93397 0.0
H870 H 0.62331 0.12433 0.09485 0.0
H871 H 0.62622 0.86988 0.89036 0.0
H872 H 0.63971 0.0882 0.83264 0.0
H873 H 0.63981 0.91064 0.15781 0.0
H874 H 0.62702 0.94912 0.86523 0.0
H875 H 0.62507 0.04521 0.11834 0.0
C876 C 0.62721 0.09961 0.0421 0.0
C877 C 0.63131 0.11254 0.96151 0.0
C878 C 0.62989 0.94056 0.92913 0.0
C879 C 0.63312 0.02234 0.98745 0.0
C880 C 0.62938 0.89562 0.94364 0.0
C881 C 0.63295 0.88405 0.02624 0.0
C882 C 0.63357 0.97415 0.99868 0.0
C883 C 0.63704 0.91838 0.09314 0.0
C884 C 0.6283 0.05471 0.05581 0.0
C885 C 0.63644 0.07941 0.89562 0.0
N886 N 0.63702 0.96211 0.0784 0.0
N887 N 0.63701 0.03554 0.90946 0.0
H888 H 0.11785 0.19553 0.22713 0.0
H889 H 0.14405 0.32 0.82485 0.0
H890 H 0.14096 0.31866 0.26387 0.0
H891 H 0.12254 0.19368 0.78797 0.0
H892 H 0.14304 0.32026 0.98557 0.0
H893 H 0.1189 0.19529 0.06645 0.0
C894 C 0.12312 0.22257 0.20155 0.0
C895 C 0.12948 0.25683 0.25946 0.0
C896 C 0.1385 0.29252 0.94235 0.0
C897 C 0.13081 0.2567 0.07489 0.0
C898 C 0.13913 0.29228 0.85043 0.0
C899 C 0.13319 0.25712 0.79248 0.0
C900 C 0.1319 0.25728 0.97706 0.0
C901 C 0.12698 0.22206 0.82986 0.0
C902 C 0.12379 0.22231 0.10964 0.0
C903 C 0.13616 0.291 0.22203 0.0
N904 N 0.12645 0.22312 0.9193 0.0
N905 N 0.13667 0.29001 0.1326 0.0
H906 H 0.86354 0.19902 0.25961 0.0
H907 H 0.88818 0.31808 0.85235 0.0
H908 H 0.89698 0.29194 0.28275 0.0
H909 H 0.869 0.18764 0.81725 0.0
H910 H 0.88933 0.31569 0.01227 0.0
H911 H 0.86295 0.20129 0.09986 0.0
C912 C 0.87072 0.22006 0.23115 0.0
C913 C 0.88031 0.24536 0.28481 0.0
C914 C 0.88491 0.28754 0.96943 0.0
C915 C 0.87968 0.24825 0.10153 0.0
C916 C 0.88434 0.28873 0.87804 0.0
C917 C 0.8788 0.25254 0.82069 0.0
C918 C 0.8795 0.25049 1.00441 0.0
C919 C 0.87344 0.21626 0.85853 0.0
C920 C 0.87045 0.2211 0.13981 0.0
C921 C 0.8895 0.27155 0.24384 0.0
N922 N 0.87388 0.21623 0.94769 0.0
N923 N 0.8889 0.27261 0.15492 0.0
H924 H 0.12272 0.68779 0.18164 0.0
H925 H 0.15449 0.79215 0.77294 0.0
H926 H 0.15099 0.79853 0.21105 0.0
H927 H 0.119 0.70787 0.74949 0.0
H928 H 0.15502 0.78825 0.93164 0.0
H929 H 0.1228 0.68834 0.0213 0.0
C930 C 0.1289 0.71231 0.15462 0.0
C931 C 0.13665 0.74372 0.21043 0.0
C932 C 0.14711 0.7706 0.89182 0.0
C933 C 0.13704 0.74379 0.02662 0.0
C934 C 0.14686 0.77257 0.801 0.0
C935 C 0.13671 0.75025 0.7476 0.0
C936 C 0.13719 0.74584 0.92982 0.0
C937 C 0.12695 0.72595 0.78814 0.0
C938 C 0.12897 0.71251 0.06301 0.0
C939 C 0.14476 0.77385 0.17107 0.0
N940 N 0.12745 0.72428 0.87666 0.0
N941 N 0.14473 0.77316 0.08189 0.0
H942 H 0.89955 0.6996 0.70729 0.0
H943 H 0.87099 0.80684 0.18015 0.0
H944 H 0.86613 0.79265 0.73603 0.0
H945 H 0.88808 0.67321 0.13656 0.0
H946 H 0.87204 0.80921 0.02059 0.0
H947 H 0.8988 0.69721 0.86769 0.0
C948 C 0.89212 0.71977 0.74737 0.0
C949 C 0.88282 0.74616 0.70796 0.0
C950 C 0.87562 0.77942 0.04597 0.0
C951 C 0.88196 0.74375 0.89154 0.0
C952 C 0.87499 0.77795 0.13712 0.0
C953 C 0.87967 0.74001 0.17235 0.0
C954 C 0.8811 0.74289 0.98903 0.0
C955 C 0.88472 0.70364 0.11282 0.0
C956 C 0.89163 0.71808 0.8387 0.0
C957 C 0.87335 0.77133 0.76322 0.0
N958 N 0.88543 0.70612 0.02438 0.0
N959 N 0.87322 0.76974 0.85197 0.0
H960 H 0.6423 0.69017 0.3172 0.0
H961 H 0.61324 0.79538 0.7899 0.0
H962 H 0.62362 0.82141 0.35983 0.0
H963 H 0.64726 0.70479 0.7608 0.0
H964 H 0.61381 0.79773 0.6296 0.0
H965 H 0.64147 0.68805 0.4768 0.0
C966 C 0.63799 0.71857 0.36001 0.0
C967 C 0.6328 0.75576 0.32448 0.0
C968 C 0.62115 0.7774 0.65845 0.0
C969 C 0.63165 0.75315 0.50793 0.0
C970 C 0.62076 0.77572 0.74976 0.0
C971 C 0.63025 0.74995 0.78901 0.0
C972 C 0.63093 0.75241 0.60549 0.0
C973 C 0.63987 0.72556 0.7337 0.0
C974 C 0.6375 0.71725 0.45121 0.0
C975 C 0.62737 0.79152 0.38377 0.0
N976 N 0.63991 0.72713 0.64494 0.0
N977 N 0.62681 0.78918 0.47231 0.0
H978 H 0.39379 0.80151 0.79772 0.0
H979 H 0.36657 0.6865 0.32287 0.0
H980 H 0.36691 0.68725 0.76239 0.0
H981 H 0.38634 0.81589 0.36389 0.0
H982 H 0.36767 0.68403 0.48225 0.0
H983 H 0.39276 0.80423 0.63807 0.0
C984 C 0.38768 0.77691 0.75653 0.0
C985 C 0.38029 0.74442 0.79424 0.0
C986 C 0.37183 0.71294 0.45652 0.0
C987 C 0.37905 0.74738 0.61057 0.0
C988 C 0.37116 0.71445 0.36534 0.0
C989 C 0.3766 0.75112 0.32931 0.0
C990 C 0.37801 0.74832 0.51287 0.0
C991 C 0.38237 0.78636 0.38814 0.0
C992 C 0.38704 0.77866 0.66528 0.0
C993 C 0.37257 0.71345 0.73699 0.0
N994 N 0.383 0.78398 0.47662 0.0
N995 N 0.37216 0.71568 0.64849 0.0
H996 H 0.63643 0.18216 0.21125 0.0
H997 H 0.63428 0.32061 0.69827 0.0
H998 H 0.62181 0.31889 0.25637 0.0
H999 H 0.62746 0.17728 0.65124 0.0
H1000 H 0.63296 0.32238 0.53765 0.0
H1001 H 0.63657 0.18111 0.37165 0.0
C1002 C 0.63329 0.21208 0.25485 0.0
C1003 C 0.62913 0.25072 0.21967 0.0
C1004 C 0.63176 0.29054 0.56243 0.0
C1005 C 0.6294 0.24988 0.40495 0.0
C1006 C 0.6326 0.28945 0.65411 0.0
C1007 C 0.63104 0.24869 0.68857 0.0
C1008 C 0.62973 0.25036 0.50382 0.0
C1009 C 0.62873 0.20945 0.6279 0.0
C1010 C 0.6333 0.21134 0.34663 0.0
C1011 C 0.62503 0.28828 0.28013 0.0
N1012 N 0.62831 0.21117 0.5389 0.0
N1013 N 0.62542 0.28712 0.36946 0.0
H1014 H 0.39383 0.18579 0.23681 0.0
H1015 H 0.36727 0.30304 0.71334 0.0
H1016 H 0.36932 0.30586 0.2745 0.0
H1017 H 0.38711 0.17376 0.67158 0.0
H1018 H 0.36855 0.30591 0.55397 0.0
H1019 H 0.39264 0.18296 0.39637 0.0
C1020 C 0.38819 0.21161 0.27852 0.0
C1021 C 0.38147 0.24571 0.24145 0.0
C1022 C 0.37267 0.27692 0.57952 0.0
C1023 C 0.38005 0.24267 0.42519 0.0
C1024 C 0.37189 0.27518 0.67069 0.0
C1025 C 0.37729 0.23839 0.70653 0.0
C1026 C 0.37889 0.24161 0.52296 0.0
C1027 C 0.38313 0.20331 0.6475 0.0
C1028 C 0.38746 0.20985 0.36977 0.0
C1029 C 0.37439 0.27831 0.2994 0.0
N1030 N 0.38384 0.20587 0.5591 0.0
N1031 N 0.37385 0.27597 0.38789 0.0
H1032 H 0.03837 0.29904 0.22435 0.0
H1033 H 0.97236 0.21199 0.45353 0.0
H1034 H 0.03984 0.21264 0.42705 0.0
H1035 H 0.97114 0.29214 0.24064 0.0
H1036 H 0.99705 0.21475 0.45008 0.0
H1037 H 0.01375 0.29887 0.23311 0.0
C1038 C 0.03354 0.27982 0.27044 0.0
C1039 C 0.04127 0.25569 0.32482 0.0
C1040 C 0.99138 0.23179 0.40421 0.0
C1041 C 0.01295 0.25583 0.33599 0.0
C1042 C 0.97726 0.23048 0.40653 0.0
C1043 C 0.96961 0.25172 0.34706 0.0
C1044 C 0.99794 0.25464 0.34215 0.0
C1045 C 0.97658 0.27467 0.28687 0.0
C1046 C 0.01945 0.27997 0.27578 0.0
C1047 C 0.03437 0.23217 0.38448 0.0
N1048 N 0.99031 0.27548 0.28594 0.0
N1049 N 0.02063 0.23276 0.38832 0.0
H1050 H 0.97542 0.76662 0.50041 0.0
H1051 H 0.04136 0.67851 0.72567 0.0
H1052 H 0.97471 0.68654 0.71348 0.0
H1053 H 0.04343 0.75653 0.51007 0.0
H1054 H 0.01685 0.67627 0.71233 0.0
H1055 H 1.00007 0.75889 0.49348 0.0
C1056 C 0.98041 0.74705 0.54515 0.0
C1057 C 0.97294 0.72757 0.60826 0.0
C1058 C 0.02261 0.69366 0.66731 0.0
C1059 C 1.00119 0.71884 0.60098 0.0
C1060 C 0.03663 0.69493 0.67495 0.0
C1061 C 0.04445 0.71812 0.61947 0.0
C1062 C 0.01622 0.71605 0.60405 0.0
C1063 C 0.03778 0.73824 0.5541 0.0
C1064 C 0.9945 0.74282 0.54138 0.0
C1065 C 0.98002 0.70293 0.66493 0.0
N1066 N 0.02403 0.7372 0.5488 0.0
N1067 N 0.99369 0.69947 0.66014 0.0
H1068 H 0.53848 0.79393 0.76264 0.0
H1069 H 0.47089 0.70516 0.96999 0.0
H1070 H 0.53856 0.7121 0.97297 0.0
H1071 H 0.47125 0.79226 0.76831 0.0
H1072 H 0.49556 0.7083 0.97461 0.0
H1073 H 0.51384 0.79417 0.76543 0.0
C1074 C 0.53332 0.77588 0.80934 0.0
C1075 C 0.54066 0.75272 0.8673 0.0
C1076 C 0.49024 0.7268 0.92947 0.0
C1077 C 0.5123 0.75313 0.87131 0.0
C1078 C 0.47612 0.72524 0.92711 0.0
C1079 C 0.4689 0.74837 0.86843 0.0
C1080 C 0.49726 0.75165 0.87273 0.0
C1081 C 0.47633 0.77325 0.8136 0.0
C1082 C 0.51922 0.77623 0.81121 0.0
C1083 C 0.53337 0.73069 0.92749 0.0
N1084 N 0.49005 0.77414 0.81701 0.0
N1085 N 0.51961 0.73125 0.92763 0.0
H1086 H 0.47168 0.20187 0.27206 0.0
H1087 H 0.53931 0.28267 0.05171 0.0
H1088 H 0.47164 0.28684 0.06671 0.0
H1089 H 0.53892 0.20961 0.27526 0.0
H1090 H 0.5146 0.2807 0.04959 0.0
H1091 H 0.4963 0.20112 0.26843 0.0
C1092 C 0.47682 0.22058 0.2264 0.0
C1093 C 0.46948 0.24471 0.17 0.0
C1094 C 0.51992 0.26507 0.09906 0.0
C1095 C 0.49785 0.24346 0.16472 0.0
C1096 C 0.53405 0.26594 0.09999 0.0
C1097 C 0.54126 0.24639 0.16395 0.0
C1098 C 0.51289 0.2443 0.16227 0.0
C1099 C 0.53383 0.2257 0.22551 0.0
C1100 C 0.49092 0.21992 0.22406 0.0
C1101 C 0.4768 0.2674 0.11089 0.0
N1102 N 0.52011 0.22519 0.22308 0.0
N1103 N 0.49055 0.26631 0.10997 0.0
loop_
_geom_bond_atom_site_label_1
_geom_bond_atom_site_label_2
_geom_bond_distance
_geom_bond_site_symmetry_2
_ccdc_geom_bond_type
Eu0 N29 2.600 . S
Eu0 N35 2.562 . S
Eu0 O44 2.462 . S
Eu0 O45 2.373 . S
Eu0 O47 2.432 . S
Eu0 O48 2.291 . S
Eu0 O52 2.335 . S
Eu0 O55 2.372 . S
Eu0 C64 2.787 . S
C1 N2 1.365 . S
C1 C4 1.405 . S
C1 C8 1.448 . S
N2 C1 1.365 . S
N2 C5 1.319 . S
N2 Eu11 2.600 . S
C3 C5 1.397 . S
C3 C6 1.367 . S
C3 H23 0.931 . S
C4 C1 1.405 . S
C4 C6 1.403 . S
C4 C10 1.439 . S
C5 N2 1.319 . S
C5 C3 1.397 . S
C5 H16 0.930 . S
C6 C3 1.367 . S
C6 C4 1.403 . S
C6 H27 0.929 . S
C7 C8 1.430 . S
C7 C9 1.387 . S
C7 C13 1.404 . S
C8 C1 1.448 . S
C8 C7 1.430 . S
C8 N12 1.351 . S
C9 C7 1.387 . S
C9 C10 1.374 . S
C9 H24 0.931 . S
C10 C4 1.439 . S
C10 C9 1.374 . S
C10 H25 0.931 . S
Eu11 N2 2.600 . S
Eu11 N12 2.562 . S
Eu11 O46 2.335 . S
Eu11 O49 2.372 . S
Eu11 O50 2.462 . S
Eu11 O51 2.373 . S
Eu11 O53 2.432 . S
Eu11 O54 2.291 . S
Eu11 C75 2.787 . S
N12 C8 1.351 . S
N12 Eu11 2.562 . S
N12 C14 1.325 . S
C13 C7 1.404 . S
C13 C15 1.366 . S
C13 H21 0.930 . S
C14 N12 1.325 . S
C14 C15 1.416 . S
C14 H20 0.929 . S
C15 C13 1.366 . S
C15 C14 1.416 . S
C15 H17 0.930 . S
H16 C5 0.930 . S
H17 C15 0.930 . S
H18 C33 0.930 . S
H19 C40 0.930 . S
H20 C14 0.929 . S
H21 C13 0.930 . S
H22 C36 0.929 . S
H23 C3 0.931 . S
H24 C9 0.931 . S
H25 C10 0.931 . S
H26 C31 0.931 . S
H27 C6 0.929 . S
H28 C39 0.930 . S
N29 Eu0 2.600 . S
N29 C30 1.365 . S
N29 C33 1.319 . S
C30 N29 1.365 . S
C30 C32 1.405 . S
C30 C38 1.448 . S
C31 H26 0.931 . S
C31 C33 1.397 . S
C31 C34 1.367 . S
C32 C30 1.405 . S
C32 C34 1.403 . S
C32 C65 1.439 . S
C33 H18 0.930 . S
C33 N29 1.319 . S
C33 C31 1.397 . S
C34 C31 1.367 . S
C34 C32 1.403 . S
C34 H41 0.929 . S
N35 Eu0 2.562 . S
N35 C36 1.325 . S
N35 C38 1.351 . S
C36 H22 0.929 . S
C36 N35 1.325 . S
C36 C40 1.416 . S
C37 C38 1.430 . S
C37 C39 1.404 . S
C37 C66 1.387 . S
C38 C30 1.448 . S
C38 N35 1.351 . S
C38 C37 1.430 . S
C39 H28 0.930 . S
C39 C37 1.404 . S
C39 C40 1.366 . S
C40 H19 0.930 . S
C40 C36 1.416 . S
C40 C39 1.366 . S
H41 C34 0.929 . S
H42 C65 0.931 . S
H43 C66 0.931 . S
O44 Eu0 2.462 . S
O44 C64 1.252 . S
O45 Eu0 2.373 . S
O45 C56 1.249 . S
O46 Eu11 2.335 . S
O46 C56 1.264 . S
O47 Eu0 2.432 . S
O47 C64 1.268 . S
O48 Eu0 2.291 . S
O48 C63 1.255 . S
O49 Eu11 2.372 . S
O49 C63 1.257 . S
O50 Eu11 2.462 . S
O50 C75 1.252 . S
O51 Eu11 2.373 . S
O51 C67 1.249 . S
O52 Eu0 2.335 . S
O52 C67 1.264 . S
O53 Eu11 2.432 . S
O53 C75 1.268 . S
O54 Eu11 2.291 . S
O54 C74 1.255 . S
O55 Eu0 2.372 . S
O55 C74 1.257 . S
C56 O45 1.249 . S
C56 O46 1.264 . S
C57 C60 1.382 . S
C57 C62 1.390 . S
C57 C64 1.506 . S
C58 C59 1.398 . S
C58 C62 1.392 . S
C59 C58 1.398 . S
C59 C61 1.372 . S
C59 H76 0.931 . S
C60 C57 1.382 . S
C60 C61 1.390 . S
C60 H77 0.931 . S
C61 C59 1.372 . S
C61 C60 1.390 . S
C61 H78 0.929 . S
C62 C57 1.390 . S
C62 C58 1.392 . S
C62 H79 0.930 . S
C63 O48 1.255 . S
C63 O49 1.257 . S
C64 Eu0 2.787 . S
C64 O44 1.252 . S
C64 O47 1.268 . S
C64 C57 1.506 . S
C65 C32 1.439 . S
C65 H42 0.931 . S
C65 C66 1.374 . S
C66 C37 1.387 . S
C66 H43 0.931 . S
C66 C65 1.374 . S
C67 O51 1.249 . S
C67 O52 1.264 . S
C68 C71 1.382 . S
C68 C72 1.390 . S
C68 C75 1.506 . S
C69 C70 1.398 . S
C69 C72 1.392 . S
C70 C69 1.398 . S
C70 C73 1.372 . S
C70 H80 0.931 . S
C71 C68 1.382 . S
C71 C73 1.390 . S
C71 H81 0.931 . S
C72 C68 1.390 . S
C72 C69 1.392 . S
C72 H82 0.930 . S
C73 C70 1.372 . S
C73 C71 1.390 . S
C73 H83 0.929 . S
C74 O54 1.255 . S
C74 O55 1.257 . S
C75 Eu11 2.787 . S
C75 O50 1.252 . S
C75 O53 1.268 . S
C75 C68 1.506 . S
H76 C59 0.931 . S
H77 C60 0.931 . S
H78 C61 0.929 . S
H79 C62 0.930 . S
H80 C70 0.931 . S
H81 C71 0.931 . S
H82 C72 0.930 . S
H83 C73 0.929 . S
Eu84 N113 2.600 . S
Eu84 N119 2.562 . S
Eu84 O128 2.462 . S
Eu84 O129 2.373 . S
Eu84 O131 2.432 . S
Eu84 O132 2.291 . S
Eu84 O136 2.335 . S
Eu84 O139 2.372 . S
Eu84 C148 2.787 . S
C85 N86 1.365 . S
C85 C88 1.405 . S
C85 C92 1.448 . S
N86 C85 1.365 . S
N86 C89 1.319 . S
N86 Eu95 2.600 . S
C87 C89 1.397 . S
C87 C90 1.367 . S
C87 H107 0.931 . S
C88 C85 1.405 . S
C88 C90 1.403 . S
C88 C94 1.439 . S
C89 N86 1.319 . S
C89 C87 1.397 . S
C89 H100 0.930 . S
C90 C87 1.367 . S
C90 C88 1.403 . S
C90 H111 0.929 . S
C91 C92 1.430 . S
C91 C93 1.387 . S
C91 C97 1.404 . S
C92 C85 1.448 . S
C92 C91 1.430 . S
C92 N96 1.351 . S
C93 C91 1.387 . S
C93 C94 1.374 . S
C93 H108 0.931 . S
C94 C88 1.439 . S
C94 C93 1.374 . S
C94 H109 0.931 . S
Eu95 N86 2.600 . S
Eu95 N96 2.562 . S
Eu95 O130 2.335 . S
Eu95 O133 2.372 . S
Eu95 O134 2.462 . S
Eu95 O135 2.373 . S
Eu95 O137 2.432 . S
Eu95 O138 2.291 . S
Eu95 C159 2.787 . S
N96 C92 1.351 . S
N96 Eu95 2.562 . S
N96 C98 1.325 . S
C97 C91 1.404 . S
C97 C99 1.366 . S
C97 H105 0.930 . S
C98 N96 1.325 . S
C98 C99 1.416 . S
C98 H104 0.929 . S
C99 C97 1.366 . S
C99 C98 1.416 . S
C99 H101 0.930 . S
H100 C89 0.930 . S
H101 C99 0.930 . S
H102 C117 0.930 . S
H103 C124 0.930 . S
H104 C98 0.929 . S
H105 C97 0.930 . S
H106 C120 0.929 . S
H107 C87 0.931 . S
H108 C93 0.931 . S
H109 C94 0.931 . S
H110 C115 0.931 . S
H111 C90 0.929 . S
H112 C123 0.930 . S
N113 Eu84 2.600 . S
N113 C114 1.365 . S
N113 C117 1.319 . S
C114 N113 1.365 . S
C114 C116 1.405 . S
C114 C122 1.448 . S
C115 H110 0.931 . S
C115 C117 1.397 . S
C115 C118 1.367 . S
C116 C114 1.405 . S
C116 C118 1.403 . S
C116 C149 1.439 . S
C117 H102 0.930 . S
C117 N113 1.319 . S
C117 C115 1.397 . S
C118 C115 1.367 . S
C118 C116 1.403 . S
C118 H125 0.929 . S
N119 Eu84 2.562 . S
N119 C120 1.325 . S
N119 C122 1.351 . S
C120 H106 0.929 . S
C120 N119 1.325 . S
C120 C124 1.416 . S
C121 C122 1.430 . S
C121 C123 1.404 . S
C121 C150 1.387 . S
C122 C114 1.448 . S
C122 N119 1.351 . S
C122 C121 1.430 . S
C123 H112 0.930 . S
C123 C121 1.404 . S
C123 C124 1.366 . S
C124 H103 0.930 . S
C124 C120 1.416 . S
C124 C123 1.366 . S
H125 C118 0.929 . S
H126 C149 0.931 . S
H127 C150 0.931 . S
O128 Eu84 2.462 . S
O128 C148 1.252 . S
O129 Eu84 2.373 . S
O129 C140 1.249 . S
O130 Eu95 2.335 . S
O130 C140 1.264 . S
O131 Eu84 2.432 . S
O131 C148 1.268 . S
O132 Eu84 2.291 . S
O132 C147 1.255 . S
O133 Eu95 2.372 . S
O133 C147 1.257 . S
O134 Eu95 2.462 . S
O134 C159 1.252 . S
O135 Eu95 2.373 . S
O135 C151 1.249 . S
O136 Eu84 2.335 . S
O136 C151 1.264 . S
O137 Eu95 2.432 . S
O137 C159 1.268 . S
O138 Eu95 2.291 . S
O138 C158 1.255 . S
O139 Eu84 2.372 . S
O139 C158 1.257 . S
C140 O129 1.249 . S
C140 O130 1.264 . S
C141 C144 1.382 . S
C141 C146 1.390 . S
C141 C148 1.506 . S
C142 C143 1.398 . S
C142 C146 1.392 . S
C143 C142 1.398 . S
C143 C145 1.372 . S
C143 H160 0.931 . S
C144 C141 1.382 . S
C144 C145 1.390 . S
C144 H161 0.931 . S
C145 C143 1.372 . S
C145 C144 1.390 . S
C145 H162 0.929 . S
C146 C141 1.390 . S
C146 C142 1.392 . S
C146 H163 0.930 . S
C147 O132 1.255 . S
C147 O133 1.257 . S
C148 Eu84 2.787 . S
C148 O128 1.252 . S
C148 O131 1.268 . S
C148 C141 1.506 . S
C149 C116 1.439 . S
C149 H126 0.931 . S
C149 C150 1.374 . S
C150 C121 1.387 . S
C150 H127 0.931 . S
C150 C149 1.374 . S
C151 O135 1.249 . S
C151 O136 1.264 . S
C152 C155 1.382 . S
C152 C156 1.390 . S
C152 C159 1.506 . S
C153 C154 1.398 . S
C153 C156 1.392 . S
C154 C153 1.398 . S
C154 C157 1.372 . S
C154 H164 0.931 . S
C155 C152 1.382 . S
C155 C157 1.390 . S
C155 H165 0.931 . S
C156 C152 1.390 . S
C156 C153 1.392 . S
C156 H166 0.930 . S
C157 C154 1.372 . S
C157 C155 1.390 . S
C157 H167 0.929 . S
C158 O138 1.255 . S
C158 O139 1.257 . S
C159 Eu95 2.787 . S
C159 O134 1.252 . S
C159 O137 1.268 . S
C159 C152 1.506 . S
H160 C143 0.931 . S
H161 C144 0.931 . S
H162 C145 0.929 . S
H163 C146 0.930 . S
H164 C154 0.931 . S
H165 C155 0.931 . S
H166 C156 0.930 . S
H167 C157 0.929 . S
Eu168 N197 2.600 . S
Eu168 N203 2.562 . S
Eu168 O212 2.462 . S
Eu168 O213 2.373 . S
Eu168 O215 2.432 . S
Eu168 O216 2.291 . S
Eu168 O220 2.335 . S
Eu168 O223 2.372 . S
Eu168 C232 2.787 . S
C169 N170 1.365 . S
C169 C172 1.405 . S
C169 C176 1.448 . S
N170 C169 1.365 . S
N170 C173 1.319 . S
N170 Eu179 2.600 . S
C171 C173 1.397 . S
C171 C174 1.367 . S
C171 H191 0.931 . S
C172 C169 1.405 . S
C172 C174 1.403 . S
C172 C178 1.439 . S
C173 N170 1.319 . S
C173 C171 1.397 . S
C173 H184 0.930 . S
C174 C171 1.367 . S
C174 C172 1.403 . S
C174 H195 0.929 . S
C175 C176 1.430 . S
C175 C177 1.387 . S
C175 C181 1.404 . S
C176 C169 1.448 . S
C176 C175 1.430 . S
C176 N180 1.351 . S
C177 C175 1.387 . S
C177 C178 1.374 . S
C177 H192 0.931 . S
C178 C172 1.439 . S
C178 C177 1.374 . S
C178 H193 0.931 . S
Eu179 N170 2.600 . S
Eu179 N180 2.562 . S
Eu179 O214 2.335 . S
Eu179 O217 2.372 . S
Eu179 O218 2.462 . S
Eu179 O219 2.373 . S
Eu179 O221 2.432 . S
Eu179 O222 2.291 . S
Eu179 C243 2.787 . S
N180 C176 1.351 . S
N180 Eu179 2.562 . S
N180 C182 1.325 . S
C181 C175 1.404 . S
C181 C183 1.366 . S
C181 H189 0.930 . S
C182 N180 1.325 . S
C182 C183 1.416 . S
C182 H188 0.929 . S
C183 C181 1.366 . S
C183 C182 1.416 . S
C183 H185 0.930 . S
H184 C173 0.930 . S
H185 C183 0.930 . S
H186 C201 0.930 . S
H187 C208 0.930 . S
H188 C182 0.929 . S
H189 C181 0.930 . S
H190 C204 0.929 . S
H191 C171 0.931 . S
H192 C177 0.931 . S
H193 C178 0.931 . S
H194 C199 0.931 . S
H195 C174 0.929 . S
H196 C207 0.930 . S
N197 Eu168 2.600 . S
N197 C198 1.365 . S
N197 C201 1.319 . S
C198 N197 1.365 . S
C198 C200 1.405 . S
C198 C206 1.448 . S
C199 H194 0.931 . S
C199 C201 1.397 . S
C199 C202 1.367 . S
C200 C198 1.405 . S
C200 C202 1.403 . S
C200 C233 1.439 . S
C201 H186 0.930 . S
C201 N197 1.319 . S
C201 C199 1.397 . S
C202 C199 1.367 . S
C202 C200 1.403 . S
C202 H209 0.929 . S
N203 Eu168 2.562 . S
N203 C204 1.325 . S
N203 C206 1.351 . S
C204 H190 0.929 . S
C204 N203 1.325 . S
C204 C208 1.416 . S
C205 C206 1.430 . S
C205 C207 1.404 . S
C205 C234 1.387 . S
C206 C198 1.448 . S
C206 N203 1.351 . S
C206 C205 1.430 . S
C207 H196 0.930 . S
C207 C205 1.404 . S
C207 C208 1.366 . S
C208 H187 0.930 . S
C208 C204 1.416 . S
C208 C207 1.366 . S
H209 C202 0.929 . S
H210 C233 0.931 . S
H211 C234 0.931 . S
O212 Eu168 2.462 . S
O212 C232 1.252 . S
O213 Eu168 2.373 . S
O213 C224 1.249 . S
O214 Eu179 2.335 . S
O214 C224 1.264 . S
O215 Eu168 2.432 . S
O215 C232 1.268 . S
O216 Eu168 2.291 . S
O216 C231 1.255 . S
O217 Eu179 2.372 . S
O217 C231 1.257 . S
O218 Eu179 2.462 . S
O218 C243 1.252 . S
O219 Eu179 2.373 . S
O219 C235 1.249 . S
O220 Eu168 2.335 . S
O220 C235 1.264 . S
O221 Eu179 2.432 . S
O221 C243 1.268 . S
O222 Eu179 2.291 . S
O222 C242 1.255 . S
O223 Eu168 2.372 . S
O223 C242 1.257 . S
C224 O213 1.249 . S
C224 O214 1.264 . S
C225 C228 1.382 . S
C225 C230 1.390 . S
C225 C232 1.506 . S
C226 C227 1.398 . S
C226 C230 1.392 . S
C227 C226 1.398 . S
C227 C229 1.372 . S
C227 H244 0.931 . S
C228 C225 1.382 . S
C228 C229 1.390 . S
C228 H245 0.931 . S
C229 C227 1.372 . S
C229 C228 1.390 . S
C229 H246 0.929 . S
C230 C225 1.390 . S
C230 C226 1.392 . S
C230 H247 0.930 . S
C231 O216 1.255 . S
C231 O217 1.257 . S
C232 Eu168 2.787 . S
C232 O212 1.252 . S
C232 O215 1.268 . S
C232 C225 1.506 . S
C233 C200 1.439 . S
C233 H210 0.931 . S
C233 C234 1.374 . S
C234 C205 1.387 . S
C234 H211 0.931 . S
C234 C233 1.374 . S
C235 O219 1.249 . S
C235 O220 1.264 . S
C236 C239 1.382 . S
C236 C240 1.390 . S
C236 C243 1.506 . S
C237 C238 1.398 . S
C237 C240 1.392 . S
C238 C237 1.398 . S
C238 C241 1.372 . S
C238 H248 0.931 . S
C239 C236 1.382 . S
C239 C241 1.390 . S
C239 H249 0.931 . S
C240 C236 1.390 . S
C240 C237 1.392 . S
C240 H250 0.930 . S
C241 C238 1.372 . S
C241 C239 1.390 . S
C241 H251 0.929 . S
C242 O222 1.255 . S
C242 O223 1.257 . S
C243 Eu179 2.787 . S
C243 O218 1.252 . S
C243 O221 1.268 . S
C243 C236 1.506 . S
H244 C227 0.931 . S
H245 C228 0.931 . S
H246 C229 0.929 . S
H247 C230 0.930 . S
H248 C238 0.931 . S
H249 C239 0.931 . S
H250 C240 0.930 . S
H251 C241 0.929 . S
Eu252 N281 2.600 . S
Eu252 N287 2.562 . S
Eu252 O296 2.462 . S
Eu252 O297 2.373 . S
Eu252 O299 2.432 . S
Eu252 O300 2.291 . S
Eu252 O304 2.335 . S
Eu252 O307 2.372 . S
Eu252 C316 2.787 . S
C253 N254 1.365 . S
C253 C256 1.405 . S
C253 C260 1.448 . S
N254 C253 1.365 . S
N254 C257 1.319 . S
N254 Eu263 2.600 . S
C255 C257 1.397 . S
C255 C258 1.367 . S
C255 H275 0.931 . S
C256 C253 1.405 . S
C256 C258 1.403 . S
C256 C262 1.439 . S
C257 N254 1.319 . S
C257 C255 1.397 . S
C257 H268 0.930 . S
C258 C255 1.367 . S
C258 C256 1.403 . S
C258 H279 0.929 . S
C259 C260 1.430 . S
C259 C261 1.387 . S
C259 C265 1.404 . S
C260 C253 1.448 . S
C260 C259 1.430 . S
C260 N264 1.351 . S
C261 C259 1.387 . S
C261 C262 1.374 . S
C261 H276 0.931 . S
C262 C256 1.439 . S
C262 C261 1.374 . S
C262 H277 0.931 . S
Eu263 N254 2.600 . S
Eu263 N264 2.562 . S
Eu263 O298 2.335 . S
Eu263 O301 2.372 . S
Eu263 O302 2.462 . S
Eu263 O303 2.373 . S
Eu263 O305 2.432 . S
Eu263 O306 2.291 . S
Eu263 C327 2.787 . S
N264 C260 1.351 . S
N264 Eu263 2.562 . S
N264 C266 1.325 . S
C265 C259 1.404 . S
C265 C267 1.366 . S
C265 H273 0.930 . S
C266 N264 1.325 . S
C266 C267 1.416 . S
C266 H272 0.929 . S
C267 C265 1.366 . S
C267 C266 1.416 . S
C267 H269 0.930 . S
H268 C257 0.930 . S
H269 C267 0.930 . S
H270 C285 0.930 . S
H271 C292 0.930 . S
H272 C266 0.929 . S
H273 C265 0.930 . S
H274 C288 0.929 . S
H275 C255 0.931 . S
H276 C261 0.931 . S
H277 C262 0.931 . S
H278 C283 0.931 . S
H279 C258 0.929 . S
H280 C291 0.930 . S
N281 Eu252 2.600 . S
N281 C282 1.365 . S
N281 C285 1.319 . S
C282 N281 1.365 . S
C282 C284 1.405 . S
C282 C290 1.448 . S
C283 H278 0.931 . S
C283 C285 1.397 . S
C283 C286 1.367 . S
C284 C282 1.405 . S
C284 C286 1.403 . S
C284 C317 1.439 . S
C285 H270 0.930 . S
C285 N281 1.319 . S
C285 C283 1.397 . S
C286 C283 1.367 . S
C286 C284 1.403 . S
C286 H293 0.929 . S
N287 Eu252 2.562 . S
N287 C288 1.325 . S
N287 C290 1.351 . S
C288 H274 0.929 . S
C288 N287 1.325 . S
C288 C292 1.416 . S
C289 C290 1.430 . S
C289 C291 1.404 . S
C289 C318 1.387 . S
C290 C282 1.448 . S
C290 N287 1.351 . S
C290 C289 1.430 . S
C291 H280 0.930 . S
C291 C289 1.404 . S
C291 C292 1.366 . S
C292 H271 0.930 . S
C292 C288 1.416 . S
C292 C291 1.366 . S
H293 C286 0.929 . S
H294 C317 0.931 . S
H295 C318 0.931 . S
O296 Eu252 2.462 . S
O296 C316 1.252 . S
O297 Eu252 2.373 . S
O297 C308 1.249 . S
O298 Eu263 2.335 . S
O298 C308 1.264 . S
O299 Eu252 2.432 . S
O299 C316 1.268 . S
O300 Eu252 2.291 . S
O300 C315 1.255 . S
O301 Eu263 2.372 . S
O301 C315 1.257 . S
O302 Eu263 2.462 . S
O302 C327 1.252 . S
O303 Eu263 2.373 . S
O303 C319 1.249 . S
O304 Eu252 2.335 . S
O304 C319 1.264 . S
O305 Eu263 2.432 . S
O305 C327 1.268 . S
O306 Eu263 2.291 . S
O306 C326 1.255 . S
O307 Eu252 2.372 . S
O307 C326 1.257 . S
C308 O297 1.249 . S
C308 O298 1.264 . S
C309 C312 1.382 . S
C309 C314 1.390 . S
C309 C316 1.506 . S
C310 C311 1.398 . S
C310 C314 1.392 . S
C311 C310 1.398 . S
C311 C313 1.372 . S
C311 H328 0.931 . S
C312 C309 1.382 . S
C312 C313 1.390 . S
C312 H329 0.931 . S
C313 C311 1.372 . S
C313 C312 1.390 . S
C313 H330 0.929 . S
C314 C309 1.390 . S
C314 C310 1.392 . S
C314 H331 0.930 . S
C315 O300 1.255 . S
C315 O301 1.257 . S
C316 Eu252 2.787 . S
C316 O296 1.252 . S
C316 O299 1.268 . S
C316 C309 1.506 . S
C317 C284 1.439 . S
C317 H294 0.931 . S
C317 C318 1.374 . S
C318 C289 1.387 . S
C318 H295 0.931 . S
C318 C317 1.374 . S
C319 O303 1.249 . S
C319 O304 1.264 . S
C320 C323 1.382 . S
C320 C324 1.390 . S
C320 C327 1.506 . S
C321 C322 1.398 . S
C321 C324 1.392 . S
C322 C321 1.398 . S
C322 C325 1.372 . S
C322 H332 0.931 . S
C323 C320 1.382 . S
C323 C325 1.390 . S
C323 H333 0.931 . S
C324 C320 1.390 . S
C324 C321 1.392 . S
C324 H334 0.930 . S
C325 C322 1.372 . S
C325 C323 1.390 . S
C325 H335 0.929 . S
C326 O306 1.255 . S
C326 O307 1.257 . S
C327 Eu263 2.787 . S
C327 O302 1.252 . S
C327 O305 1.268 . S
C327 C320 1.506 . S
H328 C311 0.931 . S
H329 C312 0.931 . S
H330 C313 0.929 . S
H331 C314 0.930 . S
H332 C322 0.931 . S
H333 C323 0.931 . S
H334 C324 0.930 . S
H335 C325 0.929 . S
Eu336 N365 2.600 . S
Eu336 N371 2.562 . S
Eu336 O380 2.462 1_556 S
Eu336 O381 2.373 . S
Eu336 O383 2.432 1_556 S
Eu336 O384 2.291 . S
Eu336 O388 2.335 1_556 S
Eu336 O391 2.372 1_556 S
Eu336 C400 2.787 1_556 S
C337 N338 1.365 . S
C337 C340 1.405 . S
C337 C344 1.448 . S
N338 C337 1.365 . S
N338 C341 1.319 . S
N338 Eu347 2.600 . S
C339 C341 1.397 . S
C339 C342 1.367 . S
C339 H359 0.931 . S
C340 C337 1.405 . S
C340 C342 1.403 . S
C340 C346 1.439 . S
C341 N338 1.319 . S
C341 C339 1.397 . S
C341 H352 0.930 . S
C342 C339 1.367 . S
C342 C340 1.403 . S
C342 H363 0.929 . S
C343 C344 1.430 . S
C343 C345 1.387 . S
C343 C349 1.404 . S
C344 C337 1.448 . S
C344 C343 1.430 . S
C344 N348 1.351 . S
C345 C343 1.387 . S
C345 C346 1.374 . S
C345 H360 0.931 . S
C346 C340 1.439 . S
C346 C345 1.374 . S
C346 H361 0.931 . S
Eu347 N338 2.600 . S
Eu347 N348 2.562 . S
Eu347 O382 2.335 1_554 S
Eu347 O385 2.372 1_554 S
Eu347 O386 2.462 1_554 S
Eu347 O387 2.373 . S
Eu347 O389 2.432 1_554 S
Eu347 O390 2.291 . S
Eu347 C411 2.787 1_554 S
N348 C344 1.351 . S
N348 Eu347 2.562 . S
N348 C350 1.325 . S
C349 C343 1.404 . S
C349 C351 1.366 . S
C349 H357 0.930 . S
C350 N348 1.325 . S
C350 C351 1.416 . S
C350 H356 0.929 . S
C351 C349 1.366 . S
C351 C350 1.416 . S
C351 H353 0.930 . S
H352 C341 0.930 . S
H353 C351 0.930 . S
H354 C369 0.930 . S
H355 C376 0.930 . S
H356 C350 0.929 . S
H357 C349 0.930 . S
H358 C372 0.929 . S
H359 C339 0.931 . S
H360 C345 0.931 . S
H361 C346 0.931 . S
H362 C367 0.931 . S
H363 C342 0.929 . S
H364 C375 0.930 . S
N365 Eu336 2.600 . S
N365 C366 1.365 . S
N365 C369 1.319 . S
C366 N365 1.365 . S
C366 C368 1.405 . S
C366 C374 1.448 . S
C367 H362 0.931 . S
C367 C369 1.397 . S
C367 C370 1.367 . S
C368 C366 1.405 . S
C368 C370 1.403 . S
C368 C401 1.439 . S
C369 H354 0.930 . S
C369 N365 1.319 . S
C369 C367 1.397 . S
C370 C367 1.367 . S
C370 C368 1.403 . S
C370 H377 0.929 . S
N371 Eu336 2.562 . S
N371 C372 1.325 . S
N371 C374 1.351 . S
C372 H358 0.929 . S
C372 N371 1.325 . S
C372 C376 1.416 . S
C373 C374 1.430 . S
C373 C375 1.404 . S
C373 C402 1.387 . S
C374 C366 1.448 . S
C374 N371 1.351 . S
C374 C373 1.430 . S
C375 H364 0.930 . S
C375 C373 1.404 . S
C375 C376 1.366 . S
C376 H355 0.930 . S
C376 C372 1.416 . S
C376 C375 1.366 . S
H377 C370 0.929 . S
H378 C401 0.931 . S
H379 C402 0.931 . S
O380 Eu336 2.462 1_554 S
O380 C400 1.252 . S
O381 Eu336 2.373 . S
O381 C392 1.249 . S
O382 Eu347 2.335 1_556 S
O382 C392 1.264 . S
O383 Eu336 2.432 1_554 S
O383 C400 1.268 . S
O384 Eu336 2.291 . S
O384 C399 1.255 . S
O385 Eu347 2.372 1_556 S
O385 C399 1.257 . S
O386 Eu347 2.462 1_556 S
O386 C411 1.252 . S
O387 Eu347 2.373 . S
O387 C403 1.249 . S
O388 Eu336 2.335 1_554 S
O388 C403 1.264 . S
O389 Eu347 2.432 1_556 S
O389 C411 1.268 . S
O390 Eu347 2.291 . S
O390 C410 1.255 . S
O391 Eu336 2.372 1_554 S
O391 C410 1.257 . S
C392 O381 1.249 . S
C392 O382 1.264 . S
C393 C396 1.382 . S
C393 C398 1.390 . S
C393 C400 1.506 . S
C394 C395 1.398 . S
C394 C398 1.392 . S
C395 C394 1.398 . S
C395 C397 1.372 . S
C395 H412 0.931 . S
C396 C393 1.382 . S
C396 C397 1.390 . S
C396 H413 0.931 . S
C397 C395 1.372 . S
C397 C396 1.390 . S
C397 H414 0.929 . S
C398 C393 1.390 . S
C398 C394 1.392 . S
C398 H415 0.930 . S
C399 O384 1.255 . S
C399 O385 1.257 . S
C400 Eu336 2.787 1_554 S
C400 O380 1.252 . S
C400 O383 1.268 . S
C400 C393 1.506 . S
C401 C368 1.439 . S
C401 H378 0.931 . S
C401 C402 1.374 . S
C402 C373 1.387 . S
C402 H379 0.931 . S
C402 C401 1.374 . S
C403 O387 1.249 . S
C403 O388 1.264 . S
C404 C407 1.382 . S
C404 C408 1.390 . S
C404 C411 1.506 . S
C405 C406 1.398 . S
C405 C408 1.392 . S
C406 C405 1.398 . S
C406 C409 1.372 . S
C406 H416 0.931 . S
C407 C404 1.382 . S
C407 C409 1.390 . S
C407 H417 0.931 . S
C408 C404 1.390 . S
C408 C405 1.392 . S
C408 H418 0.930 . S
C409 C406 1.372 . S
C409 C407 1.390 . S
C409 H419 0.929 . S
C410 O390 1.255 . S
C410 O391 1.257 . S
C411 Eu347 2.787 1_556 S
C411 O386 1.252 . S
C411 O389 1.268 . S
C411 C404 1.506 . S
H412 C395 0.931 . S
H413 C396 0.931 . S
H414 C397 0.929 . S
H415 C398 0.930 . S
H416 C406 0.931 . S
H417 C407 0.931 . S
H418 C408 0.930 . S
H419 C409 0.929 . S
Eu420 N449 2.600 . S
Eu420 N455 2.562 . S
Eu420 O464 2.462 1_554 S
Eu420 O465 2.373 . S
Eu420 O467 2.432 1_554 S
Eu420 O468 2.291 . S
Eu420 O472 2.335 1_554 S
Eu420 O475 2.372 1_554 S
Eu420 C484 2.787 1_554 S
C421 N422 1.365 . S
C421 C424 1.405 . S
C421 C428 1.448 . S
N422 C421 1.365 . S
N422 C425 1.319 . S
N422 Eu431 2.600 . S
C423 C425 1.397 . S
C423 C426 1.367 . S
C423 H443 0.931 . S
C424 C421 1.405 . S
C424 C426 1.403 . S
C424 C430 1.439 . S
C425 N422 1.319 . S
C425 C423 1.397 . S
C425 H436 0.930 . S
C426 C423 1.367 . S
C426 C424 1.403 . S
C426 H447 0.929 . S
C427 C428 1.430 . S
C427 C429 1.387 . S
C427 C433 1.404 . S
C428 C421 1.448 . S
C428 C427 1.430 . S
C428 N432 1.351 . S
C429 C427 1.387 . S
C429 C430 1.374 . S
C429 H444 0.931 . S
C430 C424 1.439 . S
C430 C429 1.374 . S
C430 H445 0.931 . S
Eu431 N422 2.600 . S
Eu431 N432 2.562 . S
Eu431 O466 2.335 1_556 S
Eu431 O469 2.372 1_556 S
Eu431 O470 2.462 1_556 S
Eu431 O471 2.373 . S
Eu431 O473 2.432 1_556 S
Eu431 O474 2.291 . S
Eu431 C495 2.787 1_556 S
N432 C428 1.351 . S
N432 Eu431 2.562 . S
N432 C434 1.325 . S
C433 C427 1.404 . S
C433 C435 1.366 . S
C433 H441 0.930 . S
C434 N432 1.325 . S
C434 C435 1.416 . S
C434 H440 0.929 . S
C435 C433 1.366 . S
C435 C434 1.416 . S
C435 H437 0.930 . S
H436 C425 0.930 . S
H437 C435 0.930 . S
H438 C453 0.930 . S
H439 C460 0.930 . S
H440 C434 0.929 . S
H441 C433 0.930 . S
H442 C456 0.929 . S
H443 C423 0.931 . S
H444 C429 0.931 . S
H445 C430 0.931 . S
H446 C451 0.931 . S
H447 C426 0.929 . S
H448 C459 0.930 . S
N449 Eu420 2.600 . S
N449 C450 1.365 . S
N449 C453 1.319 . S
C450 N449 1.365 . S
C450 C452 1.405 . S
C450 C458 1.448 . S
C451 H446 0.931 . S
C451 C453 1.397 . S
C451 C454 1.367 . S
C452 C450 1.405 . S
C452 C454 1.403 . S
C452 C485 1.439 . S
C453 H438 0.930 . S
C453 N449 1.319 . S
C453 C451 1.397 . S
C454 C451 1.367 . S
C454 C452 1.403 . S
C454 H461 0.929 . S
N455 Eu420 2.562 . S
N455 C456 1.325 . S
N455 C458 1.351 . S
C456 H442 0.929 . S
C456 N455 1.325 . S
C456 C460 1.416 . S
C457 C458 1.430 . S
C457 C459 1.404 . S
C457 C486 1.387 . S
C458 C450 1.448 . S
C458 N455 1.351 . S
C458 C457 1.430 . S
C459 H448 0.930 . S
C459 C457 1.404 . S
C459 C460 1.366 . S
C460 H439 0.930 . S
C460 C456 1.416 . S
C460 C459 1.366 . S
H461 C454 0.929 . S
H462 C485 0.931 . S
H463 C486 0.931 . S
O464 Eu420 2.462 1_556 S
O464 C484 1.252 . S
O465 Eu420 2.373 . S
O465 C476 1.249 . S
O466 Eu431 2.335 1_554 S
O466 C476 1.264 . S
O467 Eu420 2.432 1_556 S
O467 C484 1.268 . S
O468 Eu420 2.291 . S
O468 C483 1.255 . S
O469 Eu431 2.372 1_554 S
O469 C483 1.257 . S
O470 Eu431 2.462 1_554 S
O470 C495 1.252 . S
O471 Eu431 2.373 . S
O471 C487 1.249 . S
O472 Eu420 2.335 1_556 S
O472 C487 1.264 . S
O473 Eu431 2.432 1_554 S
O473 C495 1.268 . S
O474 Eu431 2.291 . S
O474 C494 1.255 . S
O475 Eu420 2.372 1_556 S
O475 C494 1.257 . S
C476 O465 1.249 . S
C476 O466 1.264 . S
C477 C480 1.382 . S
C477 C482 1.390 . S
C477 C484 1.506 . S
C478 C479 1.398 . S
C478 C482 1.392 . S
C479 C478 1.398 . S
C479 C481 1.372 . S
C479 H496 0.931 . S
C480 C477 1.382 . S
C480 C481 1.390 . S
C480 H497 0.931 . S
C481 C479 1.372 . S
C481 C480 1.390 . S
C481 H498 0.929 . S
C482 C477 1.390 . S
C482 C478 1.392 . S
C482 H499 0.930 . S
C483 O468 1.255 . S
C483 O469 1.257 . S
C484 Eu420 2.787 1_556 S
C484 O464 1.252 . S
C484 O467 1.268 . S
C484 C477 1.506 . S
C485 C452 1.439 . S
C485 H462 0.931 . S
C485 C486 1.374 . S
C486 C457 1.387 . S
C486 H463 0.931 . S
C486 C485 1.374 . S
C487 O471 1.249 . S
C487 O472 1.264 . S
C488 C491 1.382 . S
C488 C492 1.390 . S
C488 C495 1.506 . S
C489 C490 1.398 . S
C489 C492 1.392 . S
C490 C489 1.398 . S
C490 C493 1.372 . S
C490 H500 0.931 . S
C491 C488 1.382 . S
C491 C493 1.390 . S
C491 H501 0.931 . S
C492 C488 1.390 . S
C492 C489 1.392 . S
C492 H502 0.930 . S
C493 C490 1.372 . S
C493 C491 1.390 . S
C493 H503 0.929 . S
C494 O474 1.255 . S
C494 O475 1.257 . S
C495 Eu431 2.787 1_554 S
C495 O470 1.252 . S
C495 O473 1.268 . S
C495 C488 1.506 . S
H496 C479 0.931 . S
H497 C480 0.931 . S
H498 C481 0.929 . S
H499 C482 0.930 . S
H500 C490 0.931 . S
H501 C491 0.931 . S
H502 C492 0.930 . S
H503 C493 0.929 . S
Eu504 N533 2.600 . S
Eu504 N539 2.562 . S
Eu504 O548 2.462 1_554 S
Eu504 O549 2.373 . S
Eu504 O551 2.432 1_554 S
Eu504 O552 2.291 . S
Eu504 O556 2.335 1_554 S
Eu504 O559 2.372 1_554 S
Eu504 C568 2.787 1_554 S
C505 N506 1.365 . S
C505 C508 1.405 . S
C505 C512 1.448 . S
N506 C505 1.365 . S
N506 C509 1.319 . S
N506 Eu515 2.600 . S
C507 C509 1.397 . S
C507 C510 1.367 . S
C507 H527 0.931 . S
C508 C505 1.405 . S
C508 C510 1.403 . S
C508 C514 1.439 . S
C509 N506 1.319 . S
C509 C507 1.397 . S
C509 H520 0.930 . S
C510 C507 1.367 . S
C510 C508 1.403 . S
C510 H531 0.929 . S
C511 C512 1.430 . S
C511 C513 1.387 . S
C511 C517 1.404 . S
C512 C505 1.448 . S
C512 C511 1.430 . S
C512 N516 1.351 . S
C513 C511 1.387 . S
C513 C514 1.374 . S
C513 H528 0.931 . S
C514 C508 1.439 . S
C514 C513 1.374 . S
C514 H529 0.931 . S
Eu515 N506 2.600 . S
Eu515 N516 2.562 . S
Eu515 O550 2.335 1_556 S
Eu515 O553 2.372 1_556 S
Eu515 O554 2.462 1_556 S
Eu515 O555 2.373 . S
Eu515 O557 2.432 1_556 S
Eu515 O558 2.291 . S
Eu515 C579 2.787 1_556 S
N516 C512 1.351 . S
N516 Eu515 2.562 . S
N516 C518 1.325 . S
C517 C511 1.404 . S
C517 C519 1.366 . S
C517 H525 0.930 . S
C518 N516 1.325 . S
C518 C519 1.416 . S
C518 H524 0.929 . S
C519 C517 1.366 . S
C519 C518 1.416 . S
C519 H521 0.930 . S
H520 C509 0.930 . S
H521 C519 0.930 . S
H522 C537 0.930 . S
H523 C544 0.930 . S
H524 C518 0.929 . S
H525 C517 0.930 . S
H526 C540 0.929 . S
H527 C507 0.931 . S
H528 C513 0.931 . S
H529 C514 0.931 . S
H530 C535 0.931 . S
H531 C510 0.929 . S
H532 C543 0.930 . S
N533 Eu504 2.600 . S
N533 C534 1.365 . S
N533 C537 1.319 . S
C534 N533 1.365 . S
C534 C536 1.405 . S
C534 C542 1.448 . S
C535 H530 0.931 . S
C535 C537 1.397 . S
C535 C538 1.367 . S
C536 C534 1.405 . S
C536 C538 1.403 . S
C536 C569 1.439 . S
C537 H522 0.930 . S
C537 N533 1.319 . S
C537 C535 1.397 . S
C538 C535 1.367 . S
C538 C536 1.403 . S
C538 H545 0.929 . S
N539 Eu504 2.562 . S
N539 C540 1.325 . S
N539 C542 1.351 . S
C540 H526 0.929 . S
C540 N539 1.325 . S
C540 C544 1.416 . S
C541 C542 1.430 . S
C541 C543 1.404 . S
C541 C570 1.387 . S
C542 C534 1.448 . S
C542 N539 1.351 . S
C542 C541 1.430 . S
C543 H532 0.930 . S
C543 C541 1.404 . S
C543 C544 1.366 . S
C544 H523 0.930 . S
C544 C540 1.416 . S
C544 C543 1.366 . S
H545 C538 0.929 . S
H546 C569 0.931 . S
H547 C570 0.931 . S
O548 Eu504 2.462 1_556 S
O548 C568 1.252 . S
O549 Eu504 2.373 . S
O549 C560 1.249 . S
O550 Eu515 2.335 1_554 S
O550 C560 1.264 . S
O551 Eu504 2.432 1_556 S
O551 C568 1.268 . S
O552 Eu504 2.291 . S
O552 C567 1.255 . S
O553 Eu515 2.372 1_554 S
O553 C567 1.257 . S
O554 Eu515 2.462 1_554 S
O554 C579 1.252 . S
O555 Eu515 2.373 . S
O555 C571 1.249 . S
O556 Eu504 2.335 1_556 S
O556 C571 1.264 . S
O557 Eu515 2.432 1_554 S
O557 C579 1.268 . S
O558 Eu515 2.291 . S
O558 C578 1.255 . S
O559 Eu504 2.372 1_556 S
O559 C578 1.257 . S
C560 O549 1.249 . S
C560 O550 1.264 . S
C561 C564 1.382 . S
C561 C566 1.390 . S
C561 C568 1.506 . S
C562 C563 1.398 . S
C562 C566 1.392 . S
C563 C562 1.398 . S
C563 C565 1.372 . S
C563 H580 0.931 . S
C564 C561 1.382 . S
C564 C565 1.390 . S
C564 H581 0.931 . S
C565 C563 1.372 . S
C565 C564 1.390 . S
C565 H582 0.929 . S
C566 C561 1.390 . S
C566 C562 1.392 . S
C566 H583 0.930 . S
C567 O552 1.255 . S
C567 O553 1.257 . S
C568 Eu504 2.787 1_556 S
C568 O548 1.252 . S
C568 O551 1.268 . S
C568 C561 1.506 . S
C569 C536 1.439 . S
C569 H546 0.931 . S
C569 C570 1.374 . S
C570 C541 1.387 . S
C570 H547 0.931 . S
C570 C569 1.374 . S
C571 O555 1.249 . S
C571 O556 1.264 . S
C572 C575 1.382 . S
C572 C576 1.390 . S
C572 C579 1.506 . S
C573 C574 1.398 . S
C573 C576 1.392 . S
C574 C573 1.398 . S
C574 C577 1.372 . S
C574 H584 0.931 . S
C575 C572 1.382 . S
C575 C577 1.390 . S
C575 H585 0.931 . S
C576 C572 1.390 . S
C576 C573 1.392 . S
C576 H586 0.930 . S
C577 C574 1.372 . S
C577 C575 1.390 . S
C577 H587 0.929 . S
C578 O558 1.255 . S
C578 O559 1.257 . S
C579 Eu515 2.787 1_554 S
C579 O554 1.252 . S
C579 O557 1.268 . S
C579 C572 1.506 . S
H580 C563 0.931 . S
H581 C564 0.931 . S
H582 C565 0.929 . S
H583 C566 0.930 . S
H584 C574 0.931 . S
H585 C575 0.931 . S
H586 C576 0.930 . S
H587 C577 0.929 . S
Eu588 N617 2.600 . S
Eu588 N623 2.562 . S
Eu588 O632 2.462 1_556 S
Eu588 O633 2.373 . S
Eu588 O635 2.432 1_556 S
Eu588 O636 2.291 . S
Eu588 O640 2.335 1_556 S
Eu588 O643 2.372 1_556 S
Eu588 C652 2.787 1_556 S
C589 N590 1.365 . S
C589 C592 1.405 . S
C589 C596 1.448 . S
N590 C589 1.365 . S
N590 C593 1.319 . S
N590 Eu599 2.600 . S
C591 C593 1.397 . S
C591 C594 1.367 . S
C591 H611 0.931 . S
C592 C589 1.405 . S
C592 C594 1.403 . S
C592 C598 1.439 . S
C593 N590 1.319 . S
C593 C591 1.397 . S
C593 H604 0.930 . S
C594 C591 1.367 . S
C594 C592 1.403 . S
C594 H615 0.929 . S
C595 C596 1.430 . S
C595 C597 1.387 . S
C595 C601 1.404 . S
C596 C589 1.448 . S
C596 C595 1.430 . S
C596 N600 1.351 . S
C597 C595 1.387 . S
C597 C598 1.374 . S
C597 H612 0.931 . S
C598 C592 1.439 . S
C598 C597 1.374 . S
C598 H613 0.931 . S
Eu599 N590 2.600 . S
Eu599 N600 2.562 . S
Eu599 O634 2.335 1_554 S
Eu599 O637 2.372 1_554 S
Eu599 O638 2.462 1_554 S
Eu599 O639 2.373 . S
Eu599 O641 2.432 1_554 S
Eu599 O642 2.291 . S
Eu599 C663 2.787 1_554 S
N600 C596 1.351 . S
N600 Eu599 2.562 . S
N600 C602 1.325 . S
C601 C595 1.404 . S
C601 C603 1.366 . S
C601 H609 0.930 . S
C602 N600 1.325 . S
C602 C603 1.416 . S
C602 H608 0.929 . S
C603 C601 1.366 . S
C603 C602 1.416 . S
C603 H605 0.930 . S
H604 C593 0.930 . S
H605 C603 0.930 . S
H606 C621 0.930 . S
H607 C628 0.930 . S
H608 C602 0.929 . S
H609 C601 0.930 . S
H610 C624 0.929 . S
H611 C591 0.931 . S
H612 C597 0.931 . S
H613 C598 0.931 . S
H614 C619 0.931 . S
H615 C594 0.929 . S
H616 C627 0.930 . S
N617 Eu588 2.600 . S
N617 C618 1.365 . S
N617 C621 1.319 . S
C618 N617 1.365 . S
C618 C620 1.405 . S
C618 C626 1.448 . S
C619 H614 0.931 . S
C619 C621 1.397 . S
C619 C622 1.367 . S
C620 C618 1.405 . S
C620 C622 1.403 . S
C620 C653 1.439 . S
C621 H606 0.930 . S
C621 N617 1.319 . S
C621 C619 1.397 . S
C622 C619 1.367 . S
C622 C620 1.403 . S
C622 H629 0.929 . S
N623 Eu588 2.562 . S
N623 C624 1.325 . S
N623 C626 1.351 . S
C624 H610 0.929 . S
C624 N623 1.325 . S
C624 C628 1.416 . S
C625 C626 1.430 . S
C625 C627 1.404 . S
C625 C654 1.387 . S
C626 C618 1.448 . S
C626 N623 1.351 . S
C626 C625 1.430 . S
C627 H616 0.930 . S
C627 C625 1.404 . S
C627 C628 1.366 . S
C628 H607 0.930 . S
C628 C624 1.416 . S
C628 C627 1.366 . S
H629 C622 0.929 . S
H630 C653 0.931 . S
H631 C654 0.931 . S
O632 Eu588 2.462 1_554 S
O632 C652 1.252 . S
O633 Eu588 2.373 . S
O633 C644 1.249 . S
O634 Eu599 2.335 1_556 S
O634 C644 1.264 . S
O635 Eu588 2.432 1_554 S
O635 C652 1.268 . S
O636 Eu588 2.291 . S
O636 C651 1.255 . S
O637 Eu599 2.372 1_556 S
O637 C651 1.257 . S
O638 Eu599 2.462 1_556 S
O638 C663 1.252 . S
O639 Eu599 2.373 . S
O639 C655 1.249 . S
O640 Eu588 2.335 1_554 S
O640 C655 1.264 . S
O641 Eu599 2.432 1_556 S
O641 C663 1.268 . S
O642 Eu599 2.291 . S
O642 C662 1.255 . S
O643 Eu588 2.372 1_554 S
O643 C662 1.257 . S
C644 O633 1.249 . S
C644 O634 1.264 . S
C645 C648 1.382 . S
C645 C650 1.390 . S
C645 C652 1.506 . S
C646 C647 1.398 . S
C646 C650 1.392 . S
C647 C646 1.398 . S
C647 C649 1.372 . S
C647 H664 0.931 . S
C648 C645 1.382 . S
C648 C649 1.390 . S
C648 H665 0.931 . S
C649 C647 1.372 . S
C649 C648 1.390 . S
C649 H666 0.929 . S
C650 C645 1.390 . S
C650 C646 1.392 . S
C650 H667 0.930 . S
C651 O636 1.255 . S
C651 O637 1.257 . S
C652 Eu588 2.787 1_554 S
C652 O632 1.252 . S
C652 O635 1.268 . S
C652 C645 1.506 . S
C653 C620 1.439 . S
C653 H630 0.931 . S
C653 C654 1.374 . S
C654 C625 1.387 . S
C654 H631 0.931 . S
C654 C653 1.374 . S
C655 O639 1.249 . S
C655 O640 1.264 . S
C656 C659 1.382 . S
C656 C660 1.390 . S
C656 C663 1.506 . S
C657 C658 1.398 . S
C657 C660 1.392 . S
C658 C657 1.398 . S
C658 C661 1.372 . S
C658 H668 0.931 . S
C659 C656 1.382 . S
C659 C661 1.390 . S
C659 H669 0.931 . S
C660 C656 1.390 . S
C660 C657 1.392 . S
C660 H670 0.930 . S
C661 C658 1.372 . S
C661 C659 1.390 . S
C661 H671 0.929 . S
C662 O642 1.255 . S
C662 O643 1.257 . S
C663 Eu599 2.787 1_556 S
C663 O638 1.252 . S
C663 O641 1.268 . S
C663 C656 1.506 . S
H664 C647 0.931 . S
H665 C648 0.931 . S
H666 C649 0.929 . S
H667 C650 0.930 . S
H668 C658 0.931 . S
H669 C659 0.931 . S
H670 C660 0.930 . S
H671 C661 0.929 . S
H672 C678 0.930 . S
H673 C682 0.930 . S
H674 C687 0.929 . S
H675 C685 0.929 . S
H676 C680 0.929 . S
H677 C686 0.929 . S
C678 H672 0.930 . S
C678 C679 1.367 . S
C678 C686 1.378 . S
C679 C678 1.367 . S
C679 C687 1.433 . S
C680 H676 0.929 . S
C680 C682 1.378 . S
C680 C684 1.350 . S
C681 C684 1.463 . S
C681 C686 1.350 . S
C681 N689 1.427 . S
C682 H673 0.930 . S
C682 C680 1.378 . S
C682 C683 1.367 . S
C683 C682 1.367 . S
C683 C685 1.433 . S
C684 C680 1.350 . S
C684 C681 1.463 . S
C684 N688 1.427 . S
C685 H675 0.929 . S
C685 C683 1.433 . S
C685 N688 1.384 . S
C686 H677 0.929 . S
C686 C678 1.378 . S
C686 C681 1.350 . S
C687 H674 0.929 . S
C687 C679 1.433 . S
C687 N689 1.384 . S
N688 C684 1.427 . S
N688 C685 1.384 . S
N689 C681 1.427 . S
N689 C687 1.384 . S
H690 C696 0.930 . S
H691 C700 0.930 . S
H692 C705 0.929 . S
H693 C703 0.929 . S
H694 C698 0.929 . S
H695 C704 0.929 . S
C696 H690 0.930 . S
C696 C697 1.367 . S
C696 C704 1.378 . S
C697 C696 1.367 . S
C697 C705 1.433 . S
C698 H694 0.929 . S
C698 C700 1.378 . S
C698 C702 1.350 . S
C699 C702 1.463 . S
C699 C704 1.350 . S
C699 N707 1.427 . S
C700 H691 0.930 . S
C700 C698 1.378 . S
C700 C701 1.367 . S
C701 C700 1.367 . S
C701 C703 1.433 . S
C702 C698 1.350 . S
C702 C699 1.463 . S
C702 N706 1.427 . S
C703 H693 0.929 . S
C703 C701 1.433 . S
C703 N706 1.384 . S
C704 H695 0.929 . S
C704 C696 1.378 . S
C704 C699 1.350 . S
C705 H692 0.929 . S
C705 C697 1.433 . S
C705 N707 1.384 . S
N706 C702 1.427 . S
N706 C703 1.384 . S
N707 C699 1.427 . S
N707 C705 1.384 . S
H708 C714 0.930 . S
H709 C718 0.930 . S
H710 C723 0.929 . S
H711 C721 0.929 . S
H712 C716 0.929 . S
H713 C722 0.929 . S
C714 H708 0.930 . S
C714 C715 1.367 . S
C714 C722 1.378 . S
C715 C714 1.367 . S
C715 C723 1.433 . S
C716 H712 0.929 . S
C716 C718 1.378 . S
C716 C720 1.350 . S
C717 C720 1.463 . S
C717 C722 1.350 . S
C717 N725 1.427 . S
C718 H709 0.930 . S
C718 C716 1.378 . S
C718 C719 1.367 . S
C719 C718 1.367 . S
C719 C721 1.433 . S
C720 C716 1.350 . S
C720 C717 1.463 . S
C720 N724 1.427 . S
C721 H711 0.929 . S
C721 C719 1.433 . S
C721 N724 1.384 . S
C722 H713 0.929 . S
C722 C714 1.378 . S
C722 C717 1.350 . S
C723 H710 0.929 . S
C723 C715 1.433 . S
C723 N725 1.384 . S
N724 C720 1.427 . S
N724 C721 1.384 . S
N725 C717 1.427 . S
N725 C723 1.384 . S
H726 C732 0.930 . S
H727 C736 0.930 . S
H728 C741 0.929 . S
H729 C739 0.929 . S
H730 C734 0.929 . S
H731 C740 0.929 . S
C732 H726 0.930 . S
C732 C733 1.367 . S
C732 C740 1.378 . S
C733 C732 1.367 . S
C733 C741 1.433 . S
C734 H730 0.929 . S
C734 C736 1.378 . S
C734 C738 1.350 . S
C735 C738 1.463 . S
C735 C740 1.350 . S
C735 N743 1.427 . S
C736 H727 0.930 . S
C736 C734 1.378 . S
C736 C737 1.367 . S
C737 C736 1.367 . S
C737 C739 1.433 . S
C738 C734 1.350 . S
C738 C735 1.463 . S
C738 N742 1.427 . S
C739 H729 0.929 . S
C739 C737 1.433 . S
C739 N742 1.384 . S
C740 H731 0.929 . S
C740 C732 1.378 . S
C740 C735 1.350 . S
C741 H728 0.929 . S
C741 C733 1.433 . S
C741 N743 1.384 . S
N742 C738 1.427 . S
N742 C739 1.384 . S
N743 C735 1.427 . S
N743 C741 1.384 . S
H744 C750 0.930 . S
H745 C754 0.930 . S
H746 C759 0.929 . S
H747 C757 0.929 . S
H748 C752 0.929 . S
H749 C758 0.929 . S
C750 H744 0.930 . S
C750 C751 1.367 . S
C750 C758 1.378 . S
C751 C750 1.367 . S
C751 C759 1.433 . S
C752 H748 0.929 . S
C752 C754 1.378 . S
C752 C756 1.350 . S
C753 C756 1.463 1_565 S
C753 C758 1.350 . S
C753 N761 1.427 . S
C754 H745 0.930 . S
C754 C752 1.378 . S
C754 C755 1.367 . S
C755 C754 1.367 . S
C755 C757 1.433 . S
C756 C752 1.350 . S
C756 C753 1.463 1_545 S
C756 N760 1.427 . S
C757 H747 0.929 . S
C757 C755 1.433 . S
C757 N760 1.384 . S
C758 H749 0.929 . S
C758 C750 1.378 . S
C758 C753 1.350 . S
C759 H746 0.929 . S
C759 C751 1.433 . S
C759 N761 1.384 . S
N760 C756 1.427 . S
N760 C757 1.384 . S
N761 C753 1.427 . S
N761 C759 1.384 . S
H762 C768 0.930 . S
H763 C772 0.930 . S
H764 C777 0.929 . S
H765 C775 0.929 . S
H766 C770 0.929 . S
H767 C776 0.929 . S
C768 H762 0.930 . S
C768 C769 1.367 . S
C768 C776 1.378 . S
C769 C768 1.367 . S
C769 C777 1.433 . S
C770 H766 0.929 . S
C770 C772 1.378 . S
C770 C774 1.350 . S
C771 C774 1.463 . S
C771 C776 1.350 . S
C771 N779 1.427 . S
C772 H763 0.930 . S
C772 C770 1.378 . S
C772 C773 1.367 . S
C773 C772 1.367 . S
C773 C775 1.433 . S
C774 C770 1.350 . S
C774 C771 1.463 . S
C774 N778 1.427 . S
C775 H765 0.929 . S
C775 C773 1.433 . S
C775 N778 1.384 . S
C776 H767 0.929 . S
C776 C768 1.378 . S
C776 C771 1.350 . S
C777 H764 0.929 . S
C777 C769 1.433 . S
C777 N779 1.384 . S
N778 C774 1.427 . S
N778 C775 1.384 . S
N779 C771 1.427 . S
N779 C777 1.384 . S
H780 C786 0.930 . S
H781 C790 0.930 . S
H782 C795 0.929 . S
H783 C793 0.929 . S
H784 C788 0.929 . S
H785 C794 0.929 . S
C786 H780 0.930 . S
C786 C787 1.367 . S
C786 C794 1.378 . S
C787 C786 1.367 . S
C787 C795 1.433 . S
C788 H784 0.929 . S
C788 C790 1.378 . S
C788 C792 1.350 . S
C789 C792 1.463 1_565 S
C789 C794 1.350 . S
C789 N797 1.427 . S
C790 H781 0.930 . S
C790 C788 1.378 . S
C790 C791 1.367 . S
C791 C790 1.367 . S
C791 C793 1.433 . S
C792 C788 1.350 . S
C792 C789 1.463 1_545 S
C792 N796 1.427 . S
C793 H783 0.929 . S
C793 C791 1.433 . S
C793 N796 1.384 . S
C794 H785 0.929 . S
C794 C786 1.378 . S
C794 C789 1.350 . S
C795 H782 0.929 . S
C795 C787 1.433 . S
C795 N797 1.384 . S
N796 C792 1.427 . S
N796 C793 1.384 . S
N797 C789 1.427 . S
N797 C795 1.384 . S
H798 C804 0.930 . S
H799 C808 0.930 . S
H800 C813 0.929 . S
H801 C811 0.929 . S
H802 C806 0.929 . S
H803 C812 0.929 . S
C804 H798 0.930 . S
C804 C805 1.367 . S
C804 C812 1.378 . S
C805 C804 1.367 . S
C805 C813 1.433 . S
C806 H802 0.929 . S
C806 C808 1.378 . S
C806 C810 1.350 . S
C807 C810 1.463 . S
C807 C812 1.350 . S
C807 N815 1.427 . S
C808 H799 0.930 . S
C808 C806 1.378 . S
C808 C809 1.367 . S
C809 C808 1.367 . S
C809 C811 1.433 . S
C810 C806 1.350 . S
C810 C807 1.463 . S
C810 N814 1.427 . S
C811 H801 0.929 . S
C811 C809 1.433 . S
C811 N814 1.384 . S
C812 H803 0.929 . S
C812 C804 1.378 . S
C812 C807 1.350 . S
C813 H800 0.929 . S
C813 C805 1.433 . S
C813 N815 1.384 . S
N814 C810 1.427 . S
N814 C811 1.384 . S
N815 C807 1.427 . S
N815 C813 1.384 . S
H816 C822 0.930 . S
H817 C826 0.930 . S
H818 C831 0.929 . S
H819 C829 0.929 . S
H820 C824 0.929 . S
H821 C830 0.929 . S
C822 H816 0.930 . S
C822 C823 1.367 . S
C822 C830 1.378 . S
C823 C822 1.367 . S
C823 C831 1.433 1_556 S
C824 H820 0.929 . S
C824 C826 1.378 . S
C824 C828 1.350 . S
C825 C828 1.463 1_556 S
C825 C830 1.350 . S
C825 N833 1.427 1_556 S
C826 H817 0.930 . S
C826 C824 1.378 . S
C826 C827 1.367 . S
C827 C826 1.367 . S
C827 C829 1.433 1_554 S
C828 C824 1.350 . S
C828 C825 1.463 1_554 S
C828 N832 1.427 1_554 S
C829 H819 0.929 . S
C829 C827 1.433 1_556 S
C829 N832 1.384 . S
C830 H821 0.929 . S
C830 C822 1.378 . S
C830 C825 1.350 . S
C831 H818 0.929 . S
C831 C823 1.433 1_554 S
C831 N833 1.384 . S
N832 C828 1.427 1_556 S
N832 C829 1.384 . S
N833 C825 1.427 1_554 S
N833 C831 1.384 . S
H834 C840 0.930 . S
H835 C844 0.930 . S
H836 C849 0.929 . S
H837 C847 0.929 . S
H838 C842 0.929 . S
H839 C848 0.929 . S
C840 H834 0.930 . S
C840 C841 1.367 . S
C840 C848 1.378 . S
C841 C840 1.367 . S
C841 C849 1.433 1_554 S
C842 H838 0.929 . S
C842 C844 1.378 . S
C842 C846 1.350 . S
C843 C846 1.463 1_564 S
C843 C848 1.350 . S
C843 N851 1.427 1_554 S
C844 H835 0.930 . S
C844 C842 1.378 . S
C844 C845 1.367 . S
C845 C844 1.367 . S
C845 C847 1.433 1_556 S
C846 C842 1.350 . S
C846 C843 1.463 1_546 S
C846 N850 1.427 1_556 S
C847 H837 0.929 . S
C847 C845 1.433 1_554 S
C847 N850 1.384 . S
C848 H839 0.929 . S
C848 C840 1.378 . S
C848 C843 1.350 . S
C849 H836 0.929 . S
C849 C841 1.433 1_556 S
C849 N851 1.384 . S
N850 C846 1.427 1_554 S
N850 C847 1.384 . S
N851 C843 1.427 1_556 S
N851 C849 1.384 . S
H852 C858 0.930 . S
H853 C862 0.930 . S
H854 C867 0.929 . S
H855 C865 0.929 . S
H856 C860 0.929 . S
H857 C866 0.929 . S
C858 H852 0.930 . S
C858 C859 1.367 . S
C858 C866 1.378 . S
C859 C858 1.367 . S
C859 C867 1.433 1_554 S
C860 H856 0.929 . S
C860 C862 1.378 . S
C860 C864 1.350 . S
C861 C864 1.463 1_554 S
C861 C866 1.350 . S
C861 N869 1.427 1_554 S
C862 H853 0.930 . S
C862 C860 1.378 . S
C862 C863 1.367 . S
C863 C862 1.367 . S
C863 C865 1.433 1_556 S
C864 C860 1.350 . S
C864 C861 1.463 1_556 S
C864 N868 1.427 1_556 S
C865 H855 0.929 . S
C865 C863 1.433 1_554 S
C865 N868 1.384 . S
C866 H857 0.929 . S
C866 C858 1.378 . S
C866 C861 1.350 . S
C867 H854 0.929 . S
C867 C859 1.433 1_556 S
C867 N869 1.384 . S
N868 C864 1.427 1_554 S
N868 C865 1.384 . S
N869 C861 1.427 1_556 S
N869 C867 1.384 . S
H870 C876 0.930 . S
H871 C880 0.930 . S
H872 C885 0.929 . S
H873 C883 0.929 . S
H874 C878 0.929 . S
H875 C884 0.929 . S
C876 H870 0.930 . S
C876 C877 1.367 1_554 S
C876 C884 1.378 . S
C877 C876 1.367 1_556 S
C877 C885 1.433 . S
C878 H874 0.929 . S
C878 C880 1.378 . S
C878 C882 1.348 1_556 S
C879 C882 1.461 1_546 S
C879 C884 1.346 1_556 S
C879 N887 1.433 . S
C880 H871 0.930 . S
C880 C878 1.378 . S
C880 C881 1.367 1_556 S
C881 C880 1.367 1_554 S
C881 C883 1.433 . S
C882 C878 1.348 1_554 S
C882 C879 1.461 1_564 S
C882 N886 1.430 . S
C883 H873 0.929 . S
C883 C881 1.433 . S
C883 N886 1.384 . S
C884 H875 0.929 . S
C884 C876 1.378 . S
C884 C879 1.346 1_554 S
C885 H872 0.929 . S
C885 C877 1.433 . S
C885 N887 1.384 . S
N886 C882 1.430 . S
N886 C883 1.384 . S
N887 C879 1.433 . S
N887 C885 1.384 . S
H888 C894 0.930 . S
H889 C898 0.930 . S
H890 C903 0.929 . S
H891 C901 0.929 . S
H892 C896 0.929 . S
H893 C902 0.929 . S
C894 H888 0.930 . S
C894 C895 1.367 . S
C894 C902 1.378 . S
C895 C894 1.367 . S
C895 C903 1.433 . S
C896 H892 0.929 . S
C896 C898 1.378 . S
C896 C900 1.350 . S
C897 C900 1.463 1_554 S
C897 C902 1.350 . S
C897 N905 1.427 . S
C898 H889 0.930 . S
C898 C896 1.378 . S
C898 C899 1.367 . S
C899 C898 1.367 . S
C899 C901 1.433 . S
C900 C896 1.350 . S
C900 C897 1.463 1_556 S
C900 N904 1.427 . S
C901 H891 0.929 . S
C901 C899 1.433 . S
C901 N904 1.384 . S
C902 H893 0.929 . S
C902 C894 1.378 . S
C902 C897 1.350 . S
C903 H890 0.929 . S
C903 C895 1.433 . S
C903 N905 1.384 . S
N904 C900 1.427 . S
N904 C901 1.384 . S
N905 C897 1.427 . S
N905 C903 1.384 . S
H906 C912 0.930 . S
H907 C916 0.930 . S
H908 C921 0.929 . S
H909 C919 0.929 . S
H910 C914 0.929 . S
H911 C920 0.929 . S
C912 H906 0.930 . S
C912 C913 1.367 . S
C912 C920 1.378 . S
C913 C912 1.367 . S
C913 C921 1.433 . S
C914 H910 0.929 . S
C914 C916 1.378 . S
C914 C918 1.350 . S
C915 C918 1.463 1_554 S
C915 C920 1.350 . S
C915 N923 1.427 . S
C916 H907 0.930 . S
C916 C914 1.378 . S
C916 C917 1.367 . S
C917 C916 1.367 . S
C917 C919 1.433 . S
C918 C914 1.350 . S
C918 C915 1.463 1_556 S
C918 N922 1.427 . S
C919 H909 0.929 . S
C919 C917 1.433 . S
C919 N922 1.384 . S
C920 H911 0.929 . S
C920 C912 1.378 . S
C920 C915 1.350 . S
C921 H908 0.929 . S
C921 C913 1.433 . S
C921 N923 1.384 . S
N922 C918 1.427 . S
N922 C919 1.384 . S
N923 C915 1.427 . S
N923 C921 1.384 . S
H924 C930 0.930 . S
H925 C934 0.930 . S
H926 C939 0.929 . S
H927 C937 0.929 . S
H928 C932 0.929 . S
H929 C938 0.929 . S
C930 H924 0.930 . S
C930 C931 1.367 . S
C930 C938 1.378 . S
C931 C930 1.367 . S
C931 C939 1.433 . S
C932 H928 0.929 . S
C932 C934 1.378 . S
C932 C936 1.350 . S
C933 C936 1.463 1_554 S
C933 C938 1.350 . S
C933 N941 1.427 . S
C934 H925 0.930 . S
C934 C932 1.378 . S
C934 C935 1.367 . S
C935 C934 1.367 . S
C935 C937 1.433 . S
C936 C932 1.350 . S
C936 C933 1.463 1_556 S
C936 N940 1.427 . S
C937 H927 0.929 . S
C937 C935 1.433 . S
C937 N940 1.384 . S
C938 H929 0.929 . S
C938 C930 1.378 . S
C938 C933 1.350 . S
C939 H926 0.929 . S
C939 C931 1.433 . S
C939 N941 1.384 . S
N940 C936 1.427 . S
N940 C937 1.384 . S
N941 C933 1.427 . S
N941 C939 1.384 . S
H942 C948 0.930 . S
H943 C952 0.930 . S
H944 C957 0.929 . S
H945 C955 0.929 . S
H946 C950 0.929 . S
H947 C956 0.929 . S
C948 H942 0.930 . S
C948 C949 1.367 . S
C948 C956 1.378 . S
C949 C948 1.367 . S
C949 C957 1.433 . S
C950 H946 0.929 . S
C950 C952 1.378 . S
C950 C954 1.350 . S
C951 C954 1.463 1_556 S
C951 C956 1.350 . S
C951 N959 1.427 . S
C952 H943 0.930 . S
C952 C950 1.378 . S
C952 C953 1.367 . S
C953 C952 1.367 . S
C953 C955 1.433 . S
C954 C950 1.350 . S
C954 C951 1.463 1_554 S
C954 N958 1.427 . S
C955 H945 0.929 . S
C955 C953 1.433 . S
C955 N958 1.384 . S
C956 H947 0.929 . S
C956 C948 1.378 . S
C956 C951 1.350 . S
C957 H944 0.929 . S
C957 C949 1.433 . S
C957 N959 1.384 . S
N958 C954 1.427 . S
N958 C955 1.384 . S
N959 C951 1.427 . S
N959 C957 1.384 . S
H960 C966 0.930 . S
H961 C970 0.930 . S
H962 C975 0.929 . S
H963 C973 0.929 . S
H964 C968 0.929 . S
H965 C974 0.929 . S
C966 H960 0.930 . S
C966 C967 1.367 . S
C966 C974 1.378 . S
C967 C966 1.367 . S
C967 C975 1.433 . S
C968 H964 0.929 . S
C968 C970 1.378 . S
C968 C972 1.350 . S
C969 C972 1.463 . S
C969 C974 1.350 . S
C969 N977 1.427 . S
C970 H961 0.930 . S
C970 C968 1.378 . S
C970 C971 1.367 . S
C971 C970 1.367 . S
C971 C973 1.433 . S
C972 C968 1.350 . S
C972 C969 1.463 . S
C972 N976 1.427 . S
C973 H963 0.929 . S
C973 C971 1.433 . S
C973 N976 1.384 . S
C974 H965 0.929 . S
C974 C966 1.378 . S
C974 C969 1.350 . S
C975 H962 0.929 . S
C975 C967 1.433 . S
C975 N977 1.384 . S
N976 C972 1.427 . S
N976 C973 1.384 . S
N977 C969 1.427 . S
N977 C975 1.384 . S
H978 C984 0.930 . S
H979 C988 0.930 . S
H980 C993 0.929 . S
H981 C991 0.929 . S
H982 C986 0.929 . S
H983 C992 0.929 . S
C984 H978 0.930 . S
C984 C985 1.367 . S
C984 C992 1.378 . S
C985 C984 1.367 . S
C985 C993 1.433 . S
C986 H982 0.929 . S
C986 C988 1.378 . S
C986 C990 1.350 . S
C987 C990 1.463 . S
C987 C992 1.350 . S
C987 N995 1.427 . S
C988 H979 0.930 . S
C988 C986 1.378 . S
C988 C989 1.367 . S
C989 C988 1.367 . S
C989 C991 1.433 . S
C990 C986 1.350 . S
C990 C987 1.463 . S
C990 N994 1.427 . S
C991 H981 0.929 . S
C991 C989 1.433 . S
C991 N994 1.384 . S
C992 H983 0.929 . S
C992 C984 1.378 . S
C992 C987 1.350 . S
C993 H980 0.929 . S
C993 C985 1.433 . S
C993 N995 1.384 . S
N994 C990 1.427 . S
N994 C991 1.384 . S
N995 C987 1.427 . S
N995 C993 1.384 . S
H996 C1002 0.930 . S
H997 C1006 0.930 . S
H998 C1011 0.929 . S
H999 C1009 0.929 . S
H1000 C1004 0.929 . S
H1001 C1010 0.929 . S
C1002 H996 0.930 . S
C1002 C1003 1.367 . S
C1002 C1010 1.378 . S
C1003 C1002 1.367 . S
C1003 C1011 1.433 . S
C1004 H1000 0.929 . S
C1004 C1006 1.378 . S
C1004 C1008 1.350 . S
C1005 C1008 1.463 . S
C1005 C1010 1.350 . S
C1005 N1013 1.427 . S
C1006 H997 0.930 . S
C1006 C1004 1.378 . S
C1006 C1007 1.367 . S
C1007 C1006 1.367 . S
C1007 C1009 1.433 . S
C1008 C1004 1.350 . S
C1008 C1005 1.463 . S
C1008 N1012 1.427 . S
C1009 H999 0.929 . S
C1009 C1007 1.433 . S
C1009 N1012 1.384 . S
C1010 H1001 0.929 . S
C1010 C1002 1.378 . S
C1010 C1005 1.350 . S
C1011 H998 0.929 . S
C1011 C1003 1.433 . S
C1011 N1013 1.384 . S
N1012 C1008 1.427 . S
N1012 C1009 1.384 . S
N1013 C1005 1.427 . S
N1013 C1011 1.384 . S
H1014 C1020 0.930 . S
H1015 C1024 0.930 . S
H1016 C1029 0.929 . S
H1017 C1027 0.929 . S
H1018 C1022 0.929 . S
H1019 C1028 0.929 . S
C1020 H1014 0.930 . S
C1020 C1021 1.367 . S
C1020 C1028 1.378 . S
C1021 C1020 1.367 . S
C1021 C1029 1.433 . S
C1022 H1018 0.929 . S
C1022 C1024 1.378 . S
C1022 C1026 1.350 . S
C1023 C1026 1.463 . S
C1023 C1028 1.350 . S
C1023 N1031 1.427 . S
C1024 H1015 0.930 . S
C1024 C1022 1.378 . S
C1024 C1025 1.367 . S
C1025 C1024 1.367 . S
C1025 C1027 1.433 . S
C1026 C1022 1.350 . S
C1026 C1023 1.463 . S
C1026 N1030 1.427 . S
C1027 H1017 0.929 . S
C1027 C1025 1.433 . S
C1027 N1030 1.384 . S
C1028 H1019 0.929 . S
C1028 C1020 1.378 . S
C1028 C1023 1.350 . S
C1029 H1016 0.929 . S
C1029 C1021 1.433 . S
C1029 N1031 1.384 . S
N1030 C1026 1.427 . S
N1030 C1027 1.384 . S
N1031 C1023 1.427 . S
N1031 C1029 1.384 . S
H1032 C1038 0.930 . S
H1033 C1042 0.930 . S
H1034 C1047 0.929 . S
H1035 C1045 0.929 . S
H1036 C1040 0.929 . S
H1037 C1046 0.929 . S
C1038 H1032 0.930 . S
C1038 C1039 1.367 . S
C1038 C1046 1.378 . S
C1039 C1038 1.367 . S
C1039 C1047 1.433 . S
C1040 H1036 0.929 . S
C1040 C1042 1.378 . S
C1040 C1044 1.350 . S
C1041 C1044 1.463 1_455 S
C1041 C1046 1.350 . S
C1041 N1049 1.427 . S
C1042 H1033 0.930 . S
C1042 C1040 1.378 . S
C1042 C1043 1.367 . S
C1043 C1042 1.367 . S
C1043 C1045 1.433 . S
C1044 C1040 1.350 . S
C1044 C1041 1.463 1_655 S
C1044 N1048 1.427 . S
C1045 H1035 0.929 . S
C1045 C1043 1.433 . S
C1045 N1048 1.384 . S
C1046 H1037 0.929 . S
C1046 C1038 1.378 . S
C1046 C1041 1.350 . S
C1047 H1034 0.929 . S
C1047 C1039 1.433 . S
C1047 N1049 1.384 . S
N1048 C1044 1.427 . S
N1048 C1045 1.384 . S
N1049 C1041 1.427 . S
N1049 C1047 1.384 . S
H1050 C1056 0.930 . S
H1051 C1060 0.930 . S
H1052 C1065 0.929 . S
H1053 C1063 0.929 . S
H1054 C1058 0.929 . S
H1055 C1064 0.929 . S
C1056 H1050 0.930 . S
C1056 C1057 1.367 . S
C1056 C1064 1.378 . S
C1057 C1056 1.367 . S
C1057 C1065 1.433 . S
C1058 H1054 0.929 . S
C1058 C1060 1.378 . S
C1058 C1062 1.350 . S
C1059 C1062 1.463 1_655 S
C1059 C1064 1.350 . S
C1059 N1067 1.427 . S
C1060 H1051 0.930 . S
C1060 C1058 1.378 . S
C1060 C1061 1.367 . S
C1061 C1060 1.367 . S
C1061 C1063 1.433 . S
C1062 C1058 1.350 . S
C1062 C1059 1.463 1_455 S
C1062 N1066 1.427 . S
C1063 H1053 0.929 . S
C1063 C1061 1.433 . S
C1063 N1066 1.384 . S
C1064 H1055 0.929 . S
C1064 C1056 1.378 . S
C1064 C1059 1.350 . S
C1065 H1052 0.929 . S
C1065 C1057 1.433 . S
C1065 N1067 1.384 . S
N1066 C1062 1.427 . S
N1066 C1063 1.384 . S
N1067 C1059 1.427 . S
N1067 C1065 1.384 . S
H1068 C1074 0.930 . S
H1069 C1078 0.930 . S
H1070 C1083 0.929 . S
H1071 C1081 0.929 . S
H1072 C1076 0.929 . S
H1073 C1082 0.929 . S
C1074 H1068 0.930 . S
C1074 C1075 1.367 . S
C1074 C1082 1.378 . S
C1075 C1074 1.367 . S
C1075 C1083 1.433 . S
C1076 H1072 0.929 . S
C1076 C1078 1.378 . S
C1076 C1080 1.350 . S
C1077 C1080 1.463 . S
C1077 C1082 1.350 . S
C1077 N1085 1.427 . S
C1078 H1069 0.930 . S
C1078 C1076 1.378 . S
C1078 C1079 1.367 . S
C1079 C1078 1.367 . S
C1079 C1081 1.433 . S
C1080 C1076 1.350 . S
C1080 C1077 1.463 . S
C1080 N1084 1.427 . S
C1081 H1071 0.929 . S
C1081 C1079 1.433 . S
C1081 N1084 1.384 . S
C1082 H1073 0.929 . S
C1082 C1074 1.378 . S
C1082 C1077 1.350 . S
C1083 H1070 0.929 . S
C1083 C1075 1.433 . S
C1083 N1085 1.384 . S
N1084 C1080 1.427 . S
N1084 C1081 1.384 . S
N1085 C1077 1.427 . S
N1085 C1083 1.384 . S
H1086 C1092 0.930 . S
H1087 C1096 0.930 . S
H1088 C1101 0.929 . S
H1089 C1099 0.929 . S
H1090 C1094 0.929 . S
H1091 C1100 0.929 . S
C1092 H1086 0.930 . S
C1092 C1093 1.367 . S
C1092 C1100 1.378 . S
C1093 C1092 1.367 . S
C1093 C1101 1.433 . S
C1094 H1090 0.929 . S
C1094 C1096 1.378 . S
C1094 C1098 1.350 . S
C1095 C1098 1.463 . S
C1095 C1100 1.350 . S
C1095 N1103 1.427 . S
C1096 H1087 0.930 . S
C1096 C1094 1.378 . S
C1096 C1097 1.367 . S
C1097 C1096 1.367 . S
C1097 C1099 1.433 . S
C1098 C1094 1.350 . S
C1098 C1095 1.463 . S
C1098 N1102 1.427 . S
C1099 H1089 0.929 . S
C1099 C1097 1.433 . S
C1099 N1102 1.384 . S
C1100 H1091 0.929 . S
C1100 C1092 1.378 . S
C1100 C1095 1.350 . S
C1101 H1088 0.929 . S
C1101 C1093 1.433 . S
C1101 N1103 1.384 . S
N1102 C1098 1.427 . S
N1102 C1099 1.384 . S
N1103 C1095 1.427 . S
N1103 C1101 1.384 . S
C679 C58 1.537 . S
C683 C657 1.536 . S
C697 C562 1.560 . S
C701 C153 1.559 . S
C715 C489 1.539 . S
C719 C226 1.538 . S
C733 C394 1.536 . S
C737 C321 1.536 . S
C751 C231 2.451 . S
C755 C63 2.450 . S
C769 C147 0.623 . S
C773 C315 0.651 . S
C787 C326 2.447 . S
C791 C158 2.453 . S
C805 C242 0.626 . S
C809 C74 0.637 . S
C823 C399 2.460 . S
C827 C567 2.456 . S
C841 C483 0.615 . S
C845 C651 0.600 . S
C859 C662 2.456 . S
C863 C494 2.461 . S
C877 C578 0.618 . S
C881 C410 0.607 . S
C895 C56 1.768 . S
C899 C67 1.768 . S
C913 C151 1.764 . S
C917 C140 1.764 . S
C931 C235 1.766 . S
C935 C224 1.766 . S
C949 C319 1.764 . S
C953 C308 1.764 . S
C967 C403 1.761 . S
C971 C392 1.761 . S
C985 C487 1.760 . S
C989 C476 1.760 . S
C1003 C560 1.759 . S
C1007 C571 1.759 . S
C1021 C655 1.766 . S
C1025 C644 1.766 . S
C1039 C69 2.004 . S
C1043 C142 1.998 . S
C1057 C310 1.993 . S
C1061 C237 2.009 . S
C1075 C405 2.008 . S
C1079 C478 1.995 . S
C1093 C646 2.011 . S
C1097 C573 1.992 . S
