# Generated by pormake.
# Topology wfu, (7)-cn, num edge types: 1
# Building blocks:
#     Node 0, Type 0, BuildingBlock: HICVOG_clean_sbu_0, # of connection points: 7
#     Node 1, Type 0, BuildingBlock: HICVOG_clean_sbu_0, # of connection points: 7
#     Node 2, Type 0, BuildingBlock: HICVOG_clean_sbu_0, # of connection points: 7
#     Node 3, Type 0, BuildingBlock: HICVOG_clean_sbu_0, # of connection points: 7
#     Node 4, Type 0, BuildingBlock: HICVOG_clean_sbu_0, # of connection points: 7
#     Node 5, Type 0, BuildingBlock: HICVOG_clean_sbu_0, # of connection points: 7
#     Node 6, Type 0, BuildingBlock: HICVOG_clean_sbu_0, # of connection points: 7
#     Node 7, Type 0, BuildingBlock: HICVOG_clean_sbu_0, # of connection points: 7
#     Edge 8, Type (0, 0), BuildingBlock: AJUNOK_clean_linker_0, # of connection points: 2
#     Edge 9, Type (0, 0), BuildingBlock: AJUNOK_clean_linker_0, # of connection points: 2
#     Edge 10, Type (0, 0), BuildingBlock: AJUNOK_clean_linker_0, # of connection points: 2
#     Edge 11, Type (0, 0), BuildingBlock: AJUNOK_clean_linker_0, # of connection points: 2
#     Edge 12, Type (0, 0), BuildingBlock: AJUNOK_clean_linker_0, # of connection points: 2
#     Edge 13, Type (0, 0), BuildingBlock: AJUNOK_clean_linker_0, # of connection points: 2
#     Edge 14, Type (0, 0), BuildingBlock: AJUNOK_clean_linker_0, # of connection points: 2
#     Edge 15, Type (0, 0), BuildingBlock: AJUNOK_clean_linker_0, # of connection points: 2
#     Edge 16, Type (0, 0), BuildingBlock: AJUNOK_clean_linker_0, # of connection points: 2
#     Edge 17, Type (0, 0), BuildingBlock: AJUNOK_clean_linker_0, # of connection points: 2
#     Edge 18, Type (0, 0), BuildingBlock: AJUNOK_clean_linker_0, # of connection points: 2
#     Edge 19, Type (0, 0), BuildingBlock: AJUNOK_clean_linker_0, # of connection points: 2
#     Edge 20, Type (0, 0), BuildingBlock: AJUNOK_clean_linker_0, # of connection points: 2
#     Edge 21, Type (0, 0), BuildingBlock: AJUNOK_clean_linker_0, # of connection points: 2
#     Edge 22, Type (0, 0), BuildingBlock: AJUNOK_clean_linker_0, # of connection points: 2
#     Edge 23, Type (0, 0), BuildingBlock: AJUNOK_clean_linker_0, # of connection points: 2
#     Edge 24, Type (0, 0), BuildingBlock: AJUNOK_clean_linker_0, # of connection points: 2
#     Edge 25, Type (0, 0), BuildingBlock: AJUNOK_clean_linker_0, # of connection points: 2
#     Edge 26, Type (0, 0), BuildingBlock: AJUNOK_clean_linker_0, # of connection points: 2
#     Edge 27, Type (0, 0), BuildingBlock: AJUNOK_clean_linker_0, # of connection points: 2
#     Edge 28, Type (0, 0), BuildingBlock: AJUNOK_clean_linker_0, # of connection points: 2
#     Edge 29, Type (0, 0), BuildingBlock: AJUNOK_clean_linker_0, # of connection points: 2
#     Edge 30, Type (0, 0), BuildingBlock: AJUNOK_clean_linker_0, # of connection points: 2
#     Edge 31, Type (0, 0), BuildingBlock: AJUNOK_clean_linker_0, # of connection points: 2
#     Edge 32, Type (0, 0), BuildingBlock: AJUNOK_clean_linker_0, # of connection points: 2
#     Edge 33, Type (0, 0), BuildingBlock: AJUNOK_clean_linker_0, # of connection points: 2
#     Edge 34, Type (0, 0), BuildingBlock: AJUNOK_clean_linker_0, # of connection points: 2
#     Edge 35, Type (0, 0), BuildingBlock: AJUNOK_clean_linker_0, # of connection points: 2
# Relax obj value: 0.472
# Max RMSD: 0.289
# Mean RMSD: 0.289
data_MOF--net-wfu--node1-HICVOG_clean_sbu_0--edge1-AJUNOK_clean_linker_0
_symmetry_space_group_name_H-M    P1
_symmetry_Int_Tables_number       1
_symmetry_cell_setting            triclinic
loop_
_symmetry_equiv_pos_as_xyz
'x, y, z'
_cell_length_a     23.573491
_cell_length_b     23.397879
_cell_length_c     24.164895
_cell_angle_alpha  89.908977
_cell_angle_beta   90.789567
_cell_angle_gamma 91.424519
loop_
_atom_site_label
_atom_site_type_symbol
_atom_site_fract_x
_atom_site_fract_y
_atom_site_fract_z
_atom_type_partial_charge
Zn0 Zn 0.2742 0.36081 0.10492 0.0
C1 C 0.2387 0.3637 0.26669 0.0
N2 N 0.23267 0.30683 0.26096 0.0
C3 C 0.25169 0.29777 0.20961 0.0
N4 N 0.26874 0.34747 0.18488 0.0
N5 N 0.26083 0.38873 0.22152 0.0
C6 C 0.23809 0.56711 0.25972 0.0
O7 O 0.20986 0.56124 0.21272 0.0
O8 O 0.33964 0.32191 0.06547 0.0
Zn9 Zn 0.29304 0.4659 0.21996 0.0
N10 N 0.20161 0.33443 0.0752 0.0
C11 C 0.10125 0.3232 0.08397 0.0
C12 C 0.15458 0.33645 0.10717 0.0
C13 C 0.19736 0.3197 0.0211 0.0
N14 N 0.09686 0.30948 0.02945 0.0
C15 C 0.14379 0.30717 0.99759 0.0
O16 O 0.28996 0.50677 0.1465 0.0
C17 C 0.28572 0.49558 0.09522 0.0
O18 O 0.28043 0.44407 0.07854 0.0
H19 H 0.15812 0.34965 0.14993 0.0
H20 H 0.23518 0.31989 0.99612 0.0
C21 C 0.39446 0.50891 0.25778 0.0
C22 C 0.45109 0.51109 0.27542 0.0
C23 C 0.45555 0.41066 0.25956 0.0
C24 C 0.39969 0.40972 0.24007 0.0
N25 N 0.37075 0.45913 0.23957 0.0
N26 N 0.47995 0.46117 0.27598 0.0
H27 H 0.36822 0.54558 0.2582 0.0
C28 C 0.38902 0.34557 0.06671 0.0
O29 O 0.39849 0.38909 0.10015 0.0
O30 O 0.26617 0.52472 0.27706 0.0
H31 H 0.37939 0.37013 0.22654 0.0
H32 H 0.06353 0.32497 0.10885 0.0
H33 H 0.47967 0.37193 0.26082 0.0
Zn34 Zn 0.47245 0.77342 0.79811 0.0
C35 C 0.3059 0.7973 0.78768 0.0
N36 N 0.31721 0.80323 0.73373 0.0
C37 C 0.37406 0.80588 0.73265 0.0
N38 N 0.39724 0.8018 0.78361 0.0
N39 N 0.35445 0.7959 0.81871 0.0
C40 C 0.31385 0.678 0.9295 0.0
O41 O 0.31537 0.66385 0.8771 0.0
O42 O 0.53362 0.77585 0.73621 0.0
Zn43 Zn 0.36376 0.79641 0.9 0.0
N44 N 0.45551 0.69497 0.80869 0.0
C45 C 0.4291 0.61141 0.85861 0.0
C46 C 0.44455 0.66932 0.85795 0.0
C47 C 0.45106 0.66616 0.76044 0.0
N48 N 0.42706 0.58188 0.81024 0.0
C49 C 0.43801 0.60779 0.76078 0.0
O50 O 0.44569 0.80209 0.93032 0.0
C51 C 0.49763 0.80596 0.91647 0.0
O52 O 0.5118 0.80138 0.86628 0.0
H53 H 0.44684 0.69352 0.89596 0.0
H54 H 0.4598 0.68873 0.7224 0.0
C55 C 0.32939 0.8721 0.98166 0.0
C56 C 0.30955 0.92264 0.00437 0.0
C57 C 0.29274 0.95872 0.91435 0.0
C58 C 0.31334 0.90839 0.89172 0.0
N59 N 0.33065 0.86585 0.92601 0.0
N60 N 0.29116 0.96479 0.97029 0.0
H61 H 0.34413 0.83789 0.00804 0.0
C62 C 0.57311 0.81403 0.73234 0.0
O63 O 0.56956 0.86058 0.7623 0.0
O64 O 0.32877 0.72866 0.94362 0.0
H65 H 0.31601 0.90373 0.84736 0.0
H66 H 0.41983 0.58988 0.89721 0.0
H67 H 0.27841 0.99276 0.88765 0.0
Zn68 Zn 0.77455 0.60671 0.18693 0.0
C69 C 0.79712 0.77354 0.2066 0.0
N70 N 0.80338 0.75968 0.26018 0.0
C71 C 0.80756 0.7026 0.25943 0.0
N72 N 0.80367 0.68163 0.20765 0.0
N73 N 0.79761 0.72615 0.17412 0.0
C74 C 0.681 0.76832 0.07531 0.0
O75 O 0.67073 0.75436 0.12679 0.0
O76 O 0.76863 0.54485 0.24823 0.0
Zn77 Zn 0.79673 0.71981 0.09318 0.0
N78 N 0.69788 0.62244 0.16694 0.0
C79 C 0.61829 0.63533 0.10737 0.0
C80 C 0.67476 0.62093 0.11506 0.0
C81 C 0.66697 0.63708 0.21127 0.0
N82 N 0.5867 0.64701 0.15223 0.0
C83 C 0.60921 0.64742 0.20455 0.0
O84 O 0.79877 0.63819 0.05912 0.0
C85 C 0.80776 0.58597 0.0715 0.0
O86 O 0.81042 0.57025 0.12176 0.0
H87 H 0.69915 0.60879 0.07993 0.0
H88 H 0.68705 0.63729 0.2517 0.0
C89 C 0.87099 0.75801 0.01137 0.0
C90 C 0.92069 0.78077 0.98823 0.0
C91 C 0.95756 0.79994 0.078 0.0
C92 C 0.90795 0.77665 0.10106 0.0
N93 N 0.86554 0.7565 0.06707 0.0
N94 N 0.96289 0.80159 0.022 0.0
H95 H 0.83677 0.7412 0.98529 0.0
C96 C 0.80478 0.50594 0.25677 0.0
O97 O 0.85376 0.51009 0.2316 0.0
O98 O 0.72982 0.759 0.05585 0.0
H99 H 0.90365 0.77429 0.14548 0.0
H100 H 0.59914 0.63526 0.06643 0.0
H101 H 0.99158 0.8164 0.10444 0.0
Zn102 Zn 0.5892 0.30246 0.77679 0.0
C103 C 0.75187 0.25684 0.78742 0.0
N104 N 0.73967 0.22924 0.73981 0.0
C105 C 0.68307 0.23403 0.73465 0.0
N106 N 0.66142 0.26384 0.77686 0.0
N107 N 0.70458 0.27772 0.81049 0.0
C108 C 0.73863 0.40594 0.91643 0.0
O109 O 0.69736 0.41979 0.88222 0.0
O110 O 0.52436 0.26909 0.72747 0.0
Zn111 Zn 0.69698 0.28976 0.8897 0.0
N112 N 0.60482 0.37624 0.74445 0.0
C113 C 0.66473 0.43614 0.69002 0.0
C114 C 0.65795 0.39237 0.72857 0.0
C115 C 0.55848 0.40311 0.72502 0.0
N116 N 0.61817 0.46241 0.66971 0.0
C117 C 0.56462 0.44726 0.68583 0.0
O118 O 0.61704 0.3038 0.91872 0.0
C119 C 0.56578 0.30973 0.90267 0.0
O120 O 0.55264 0.30993 0.8515 0.0
H121 H 0.69427 0.36892 0.74242 0.0
H122 H 0.51788 0.38896 0.74048 0.0
C123 C 0.73059 0.21362 0.97526 0.0
C124 C 0.73697 0.16012 0.00054 0.0
C125 C 0.7148 0.11451 0.91551 0.0
C126 C 0.70741 0.16777 0.89068 0.0
N127 N 0.71548 0.21634 0.9211 0.0
N128 N 0.72846 0.11174 0.97019 0.0
H129 H 0.73457 0.25275 -0.00094 0.0
C130 C 0.48759 0.23243 0.74409 0.0
O131 O 0.49737 0.206 0.79114 0.0
O132 O 0.74907 0.35311 0.9231 0.0
H133 H 0.69365 0.17 0.84795 0.0
H134 H 0.70654 0.44881 0.67588 0.0
H135 H 0.70806 0.07563 0.89189 0.0
Zn136 Zn 0.76465 0.21145 0.39332 0.0
C137 C 0.73519 0.20693 0.22871 0.0
N138 N 0.73243 0.26394 0.23309 0.0
C139 C 0.74424 0.27333 0.28681 0.0
N140 N 0.75482 0.22375 0.31405 0.0
N141 N 0.7482 0.18203 0.27714 0.0
C142 C 0.72827 1.00187 0.2382 0.0
O143 O 0.7044 1.00358 0.28694 0.0
O144 O 0.83218 0.25437 0.43008 0.0
Zn145 Zn 0.78301 0.10792 0.27883 0.0
N146 N 0.69359 0.22999 0.42619 0.0
C147 C 0.59646 0.25556 0.42144 0.0
C148 C 0.64849 0.24831 0.39584 0.0
C149 C 0.68823 0.21675 0.48045 0.0
N150 N 0.59139 0.24324 0.47611 0.0
C151 C 0.63582 0.22288 0.50608 0.0
O152 O 0.78505 0.06565 0.35248 0.0
C153 C 0.78253 0.07839 0.40345 0.0
O154 O 0.77545 0.12967 0.41849 0.0
H155 H 0.65225 0.25612 0.35207 0.0
H156 H 0.72494 0.20217 0.50336 0.0
C157 C 0.8834 0.08261 0.23066 0.0
C158 C 0.94138 0.08478 0.22119 0.0
C159 C 0.94582 0.17921 0.25708 0.0
C160 C 0.88864 0.17431 0.27108 0.0
N161 N 0.85926 0.12519 0.25862 0.0
N162 N 0.97131 0.13371 0.23395 0.0
H163 H 0.85786 0.04599 0.21867 0.0
C164 C 0.87977 0.22962 0.42814 0.0
O165 O 0.88321 0.18298 0.3984 0.0
O166 O 0.75575 0.04625 0.22183 0.0
H167 H 0.86814 0.20898 0.29169 0.0
H168 H 0.56037 0.27069 0.39803 0.0
H169 H 0.97026 0.21777 0.26664 0.0
Zn170 Zn 0.08793 0.2558 0.71573 0.0
C171 C 0.25575 0.27774 0.71546 0.0
N172 N 0.24659 0.28916 0.76887 0.0
C173 C 0.19017 0.29469 0.77087 0.0
N174 N 0.1651 0.28704 0.72101 0.0
N175 N 0.2064 0.27596 0.68583 0.0
C176 C 0.25442 0.15873 0.58115 0.0
O177 O 0.25396 0.14605 0.63401 0.0
O178 O 1.02719 0.28082 0.77097 0.0
Zn179 Zn 0.19703 0.27192 0.60562 0.0
N180 N 0.10094 0.17878 0.73608 0.0
C181 C 0.15433 0.09496 0.72652 0.0
C182 C 0.13738 0.14767 0.70628 0.0
C183 C 0.08054 0.1598 0.78518 0.0
N184 N 0.13182 0.07475 0.77433 0.0
C185 C 0.09459 0.10544 0.80441 0.0
O186 O 0.11561 0.26626 0.57647 0.0
C187 C 0.06369 0.26218 0.59 0.0
O188 O 0.04953 0.2588 0.64047 0.0
H189 H 0.15399 0.16463 0.66804 0.0
H190 H 0.05333 0.18671 0.80871 0.0
C191 C 0.21816 0.35102 0.5216 0.0
C192 C 0.23453 0.40292 0.49685 0.0
C193 C 0.26531 0.43808 0.58437 0.0
C194 C 0.24757 0.3867 0.60902 0.0
N195 N 0.22518 0.3439 0.57683 0.0
N196 N 0.25876 0.44497 0.52878 0.0
H197 H 0.20043 0.31596 0.49721 0.0
C198 C 0.98606 0.31319 0.75893 0.0
O199 O 0.98893 0.34431 0.71374 0.0
O200 O 0.23626 0.20696 0.56526 0.0
H201 H 0.25159 0.38123 0.65329 0.0
H202 H 0.18397 0.06968 0.70387 0.0
H203 H 0.284 0.47223 0.60924 0.0
Zn204 Zn 0.30228 0.851 0.39512 0.0
C205 C 0.32695 0.87184 0.23105 0.0
N206 N 0.33098 0.81463 0.23106 0.0
C207 C 0.32034 0.79954 0.2837 0.0
N208 N 0.31126 0.84661 0.31475 0.0
N209 N 0.31327 0.89163 0.28122 0.0
C210 C 0.30035 0.06158 0.23222 0.0
O211 O 0.34734 0.05628 0.26144 0.0
O212 O 0.23176 0.80863 0.42744 0.0
Zn213 Zn 0.26056 0.95323 0.29017 0.0
N214 N 0.3721 0.82275 0.42647 0.0
C215 C 0.47186 0.80925 0.42087 0.0
C216 C 0.42006 0.82237 0.3957 0.0
C217 C 0.37405 0.81094 0.48134 0.0
N218 N 0.474 0.79859 0.47614 0.0
C219 C 0.42617 0.79891 0.50687 0.0
O220 O 0.26709 0.99279 0.36443 0.0
C221 C 0.28387 0.9816 0.41343 0.0
O222 O 0.29903 0.93152 0.4266 0.0
H223 H 0.41851 0.83346 0.35229 0.0
H224 H 0.33573 0.81365 0.50533 0.0
C225 C 0.14838 0.94123 0.24923 0.0
C226 C 0.09846 0.91172 0.23254 0.0
C227 C 0.13018 0.8289 0.27869 0.0
C228 C 0.17899 0.8588 0.29592 0.0
N229 N 0.1877 0.91419 0.28018 0.0
N230 N 0.09093 0.85605 0.24764 0.0
H231 H 0.15585 0.98568 0.23889 0.0
C232 C 0.18684 0.83731 0.43376 0.0
O233 O 0.18638 0.89049 0.41642 0.0
O234 O 0.26301 1.02106 0.23381 0.0
H235 H 0.20969 0.83712 0.32073 0.0
H236 H 0.51028 0.80898 0.39691 0.0
H237 H 0.1232 0.78468 0.29045 0.0
Zn238 Zn 0.97453 0.80104 0.70366 0.0
C239 C 0.80484 0.76956 0.70106 0.0
N240 N 0.81474 0.76301 0.75546 0.0
C241 C 0.87153 0.76512 0.75947 0.0
N242 N 0.89604 0.77299 0.70999 0.0
N243 N 0.85407 0.77671 0.6727 0.0
C244 C 0.82252 0.89701 0.567 0.0
O245 O 0.84005 0.9089 0.61751 0.0
O246 O 0.03415 0.77826 0.76268 0.0
Zn247 Zn 0.86375 0.77976 0.59186 0.0
N248 N 0.96795 0.88057 0.71494 0.0
C249 C 0.94641 0.97303 0.68227 0.0
C250 C 0.95531 0.91553 0.67199 0.0
C251 C 0.97343 0.90031 0.76759 0.0
N252 N 0.95227 0.99297 0.73476 0.0
C253 C 0.96589 0.9583 0.77821 0.0
O254 O 0.94582 0.78521 0.56428 0.0
C255 C 0.99785 0.78729 0.57944 0.0
O256 O 1.01203 0.79046 0.63023 0.0
H257 H 0.95151 0.89859 0.63046 0.0
H258 H 0.98405 0.87094 0.80039 0.0
C259 C 0.82499 0.70265 0.50834 0.0
C260 C 0.81075 0.64919 0.48522 0.0
C261 C 0.8168 0.60696 0.57399 0.0
C262 C 0.83166 0.66022 0.59686 0.0
N263 N 0.83545 0.70702 0.56349 0.0
N264 N 0.80713 0.60244 0.51854 0.0
H265 H 0.82956 0.74028 0.48245 0.0
C266 C 0.07334 0.74348 0.75202 0.0
O267 O 0.06804 0.71198 0.70722 0.0
O268 O 0.82389 0.84532 0.5506 0.0
H269 H 0.84128 0.66388 0.6406 0.0
H270 H 0.93625 1.00187 0.64881 0.0
H271 H 0.81387 0.56937 0.60001 0.0
C272 C 0.11957 0.33742 0.9018 0.0
C273 C 0.13894 0.295 0.93825 0.0
C274 C 0.13075 0.33437 0.84497 0.0
C275 C 0.16123 0.28874 0.82383 0.0
H276 H 0.10022 0.37537 0.91788 0.0
H277 H 0.11993 0.37003 0.81853 0.0
S278 S 0.21192 0.16257 0.90123 0.0
N279 N 0.18291 0.20292 0.94863 0.0
N280 N 0.20374 0.19691 0.84202 0.0
C281 C 0.17564 0.24355 0.85922 0.0
C282 C 0.16447 0.24673 0.91662 0.0
C283 C 0.35504 0.94418 0.09546 0.0
C284 C 0.30635 0.92763 0.06467 0.0
C285 C 0.35932 0.93158 0.15217 0.0
C286 C 0.31521 0.90176 0.17899 0.0
H287 H 0.3916 0.96272 0.07475 0.0
H288 H 0.39901 0.94081 0.17388 0.0
S289 S 0.17823 0.85206 0.11667 0.0
N290 N 0.21215 0.88383 0.06533 0.0
N291 N 0.2208 0.85845 0.17125 0.0
C292 C 0.2651 0.88839 0.14921 0.0
C293 C 0.26049 0.90184 0.092 0.0
C294 C 0.88327 0.82325 0.84373 0.0
C295 C 0.89959 0.77554 0.81308 0.0
C296 C 0.89611 0.82772 0.90018 0.0
C297 C 0.92482 0.78412 0.92781 0.0
H298 H 0.85754 0.85575 0.82454 0.0
H299 H 0.87963 0.86324 0.92321 0.0
S300 S 0.97945 0.65221 0.86558 0.0
N301 N 0.94875 0.68569 0.81331 0.0
N302 N 0.97228 0.69357 0.92034 0.0
C303 C 0.94439 0.73788 0.89708 0.0
C304 C 0.93176 0.73362 0.8393 0.0
C305 C 0.70127 0.146 0.15055 0.0
C306 C 0.74408 0.18052 0.175 0.0
C307 C 0.70226 0.13407 0.09374 0.0
C308 C 0.74578 0.15701 0.06055 0.0
H309 H 0.66495 0.13188 0.17442 0.0
H310 H 0.66644 0.11115 0.07497 0.0
S311 S 0.87214 0.24141 0.10759 0.0
N312 N 0.83443 0.23112 0.16398 0.0
N313 N 0.83626 0.20863 0.0572 0.0
C314 C 0.79131 0.18696 0.08573 0.0
C315 C 0.79037 0.19889 0.1432 0.0
C316 C 0.61238 0.26125 0.59755 0.0
C317 C 0.63149 0.21549 0.56624 0.0
C318 C 0.62391 0.26415 0.65424 0.0
C319 C 0.65397 0.22131 0.68162 0.0
H320 H 0.59341 0.2977 0.57744 0.0
H321 H 0.61353 0.30259 0.675 0.0
S322 S 0.69788 0.08457 0.62054 0.0
N323 N 0.67109 0.12051 0.56781 0.0
N324 N 0.69248 0.12628 0.67524 0.0
C325 C 0.66697 0.172 0.65188 0.0
C326 C 0.65559 0.16896 0.59392 0.0
C327 C 0.27865 0.42348 0.406 0.0
C328 C 0.22987 0.40942 0.43636 0.0
C329 C 0.27979 0.41403 0.34879 0.0
C330 C 0.23198 0.39121 0.32053 0.0
H331 H 0.31757 0.43683 0.42717 0.0
H332 H 0.31968 0.41968 0.32785 0.0
S333 S 0.09063 0.35907 0.37945 0.0
N334 N 0.13005 0.38051 0.43289 0.0
N335 N 0.13258 0.36248 0.32527 0.0
C336 C 0.18147 0.38252 0.34954 0.0
C337 C 0.18022 0.39198 0.40759 0.0
C338 C 0.45092 0.83568 0.60069 0.0
C339 C 0.42886 0.7912 0.56703 0.0
C340 C 0.43827 0.83753 0.65727 0.0
C341 C 0.40353 0.79484 0.68099 0.0
H342 H 0.47373 0.87156 0.58232 0.0
H343 H 0.45149 0.87476 0.68121 0.0
S344 S 0.34404 0.66482 0.61202 0.0
N345 N 0.37754 0.70017 0.56252 0.0
N346 N 0.35353 0.70355 0.6686 0.0
C347 C 0.38596 0.74763 0.64869 0.0
C348 C 0.39879 0.74577 0.59156 0.0
C349 C 0.75538 0.67232 0.40109 0.0
C350 C 0.80155 0.64446 0.42516 0.0
C351 C 0.75428 0.68459 0.34454 0.0
C352 C 0.79945 0.66965 0.31046 0.0
H353 H 0.72228 0.6888 0.42687 0.0
H354 H 0.72032 0.71045 0.32831 0.0
S355 S 0.92626 0.58957 0.35257 0.0
N356 N 0.89015 0.59635 0.41027 0.0
N357 N 0.88843 0.62052 0.30338 0.0
C358 C 0.84313 0.63705 0.33298 0.0
C359 C 0.84412 0.62419 0.39074 0.0
C360 C 0.53343 0.33546 0.99835 0.0
C361 C 0.52005 0.31559 0.94461 0.0
C362 C 0.491 0.34337 0.03786 0.0
C363 C 0.43337 0.33047 0.02599 0.0
H364 H 0.57696 0.34646 0.00968 0.0
H365 H 0.50349 0.36036 0.07802 0.0
S366 S 0.3755 0.27445 0.89239 0.0
N367 N 0.44446 0.28163 0.88226 0.0
N368 N 0.3654 0.29519 0.95674 0.0
C369 C 0.41948 0.30884 0.97302 0.0
C370 C 0.46254 0.30184 0.93235 0.0
C371 C 0.29006 0.53148 0.99671 0.0
C372 C 0.28917 0.54348 0.05387 0.0
C373 C 0.29633 0.57521 0.95706 0.0
C374 C 0.30205 0.63319 0.97249 0.0
H375 H 0.28691 0.48771 0.98225 0.0
H376 H 0.29796 0.56309 0.91388 0.0
S377 S 0.29841 0.68884 0.11641 0.0
N378 N 0.29183 0.61882 0.12353 0.0
N379 N 0.30336 0.70044 0.04924 0.0
C380 C 0.29961 0.64612 0.02938 0.0
C381 C 0.29327 0.60156 0.06987 0.0
C382 C 0.6008 0.80407 0.94279 0.0
C383 C 0.54381 0.80678 0.95949 0.0
C384 C 0.64486 0.79435 0.98087 0.0
C385 C 0.63429 0.78696 0.03763 0.0
H386 H 0.61158 0.80702 0.89943 0.0
H387 H 0.68738 0.79044 0.96507 0.0
S388 S 0.49408 0.79947 0.10458 0.0
N389 N 0.48024 0.80788 0.03796 0.0
N390 N 0.56313 0.78985 0.10966 0.0
C391 C 0.57813 0.79355 0.05564 0.0
C392 C 0.53299 0.80344 0.01664 0.0
C393 C 0.75887 0.50942 0.93944 0.0
C394 C 0.76661 0.45119 0.95193 0.0
C395 C 0.77642 0.55308 0.97634 0.0
C396 C 0.80212 0.54059 0.02782 0.0
H397 H 0.73698 0.52149 0.90165 0.0
H398 H 0.76667 0.59675 0.96563 0.0
S399 S 0.8387 0.3955 0.07786 0.0
N400 N 0.80703 0.3839 0.01742 0.0
N401 N 0.83966 0.46546 0.08666 0.0
C402 C 0.81358 0.48273 0.0392 0.0
C403 C 0.79599 0.43826 0.00139 0.0
C404 C 0.91801 0.26759 0.51892 0.0
C405 C 0.92805 0.24604 0.4657 0.0
C406 C 0.96221 0.27369 0.55843 0.0
C407 C 1.01848 0.25949 0.54604 0.0
H408 H 0.87523 0.27719 0.53111 0.0
H409 H 0.95195 0.28879 0.59936 0.0
S410 S 0.06769 0.20484 0.41108 0.0
N411 N 0.99883 0.2129 0.40183 0.0
N412 N 0.0818 0.22544 0.47523 0.0
C413 C 0.0294 0.24037 0.49204 0.0
C414 C 0.98427 0.23333 0.45219 0.0
C415 C 0.25737 0.12494 0.48253 0.0
C416 C 0.26815 0.11447 0.53913 0.0
C417 C 0.26403 0.08237 0.4424 0.0
C418 C 0.28196 1.02719 0.45676 0.0
H419 H 0.24206 0.16599 0.46898 0.0
H420 H 0.2538 0.09273 0.39977 0.0
S421 S 0.32057 0.97874 0.59877 0.0
N422 N 0.30117 0.04547 0.60704 0.0
N423 N 0.31379 0.96566 0.53187 0.0
C424 C 0.29505 1.01671 0.51302 0.0
C425 C 0.28812 0.06018 0.55401 0.0
C426 C 0.14477 0.78454 0.51475 0.0
C427 C 0.13713 0.81474 0.46495 0.0
C428 C 0.09902 0.77372 0.55056 0.0
C429 C 0.04362 0.79149 0.53735 0.0
H430 H 0.18692 0.77228 0.52779 0.0
H431 H 0.10749 0.75276 0.58971 0.0
S432 S 1.0006 0.86732 0.40904 0.0
N433 N 0.06954 0.85911 0.40259 0.0
N434 N 0.98364 0.83738 0.46867 0.0
C435 C 0.03501 0.81855 0.48596 0.0
C436 C 0.08171 0.83057 0.45016 0.0
C437 C 0.78089 0.97478 0.43335 0.0
C438 C 0.79019 0.03299 0.44646 0.0
C439 C 0.78968 0.93138 0.47286 0.0
C440 C 0.80846 0.94412 0.52726 0.0
H441 H 0.7669 0.96247 0.39208 0.0
H442 H 0.7825 0.88736 0.46024 0.0
S443 S 0.84263 0.08981 0.5818 0.0
N444 N 0.82127 0.1008 0.51745 0.0
N445 N 0.83736 1.02002 0.59131 0.0
C446 C 0.81769 1.00232 0.5409 0.0
C447 C 0.80871 0.04642 0.50071 0.0
C448 C 0.53791 0.56249 0.30862 0.0
C449 C 0.48314 0.56595 0.2852 0.0
C450 C 0.58115 0.60037 0.2922 0.0
C451 C 0.57011 0.64224 0.25174 0.0
H452 H 0.54961 0.52564 0.33308 0.0
H453 H 0.62405 0.58971 0.30395 0.0
S454 S 0.42913 0.69265 0.20864 0.0
N455 N 0.41639 0.63179 0.24123 0.0
N456 N 0.49848 0.70325 0.21267 0.0
C457 C 0.5136 0.65679 0.24278 0.0
C458 C 0.46938 0.61777 0.25822 0.0
C459 C 0.49768 0.5859 0.68001 0.0
C460 C 0.44968 0.57228 0.71207 0.0
C461 C 0.53082 0.54249 0.6594 0.0
C462 C 0.51683 0.48505 0.67119 0.0
H463 H 0.51529 0.62893 0.67808 0.0
H464 H 0.57182 0.55461 0.64276 0.0
S465 S 0.37536 0.4316 0.71657 0.0
N466 N 0.37577 0.50087 0.72952 0.0
N467 N 0.4368 0.41898 0.6874 0.0
C468 C 0.46052 0.47241 0.687 0.0
C469 C 0.42713 0.51655 0.70882 0.0
C470 C 1.02185 0.03718 0.17693 0.0
C471 C 0.97155 0.0324 0.2071 0.0
C472 C 0.06079 0.99318 0.1778 0.0
C473 C 0.05053 0.94358 0.20951 0.0
H474 H 0.03315 0.07683 0.15617 0.0
H475 H 0.10137 1.00047 0.15815 0.0
S476 S 0.91806 0.90286 0.28208 0.0
N477 N 0.90872 0.96875 0.26035 0.0
N478 N 0.98096 0.88574 0.25934 0.0
C479 C 0.99644 0.93423 0.23163 0.0
C480 C 0.95714 0.97915 0.23164 0.0
C481 C 1.00155 0.08625 0.84789 0.0
C482 C 0.06024 0.07566 0.84732 0.0
C483 C 0.96263 0.04071 0.84009 0.0
C484 C 0.98279 0.98536 0.83164 0.0
H485 H 0.98581 0.12895 0.84272 0.0
H486 H 0.91946 0.05066 0.82828 0.0
S487 S 0.12365 0.93682 0.87986 0.0
N488 N 0.13015 1.0072 0.87686 0.0
N489 N 0.0572 0.92091 0.86176 0.0
C490 C 0.03691 0.97414 0.85395 0.0
C491 C 0.07618 1.02048 0.8624 0.0
C492 C 0.33006 0.16064 0.19976 0.0
C493 C 0.28642 0.1192 0.20854 0.0
C494 C 0.31817 0.2189 0.19101 0.0
C495 C 0.26215 0.23829 0.19127 0.0
H496 H 0.37406 0.14869 0.20336 0.0
H497 H 0.3533 0.24962 0.18982 0.0
S498 S 0.13205 0.14757 0.2055 0.0
N499 N 0.18423 0.10195 0.21027 0.0
N500 N 0.16256 0.21096 0.19562 0.0
C501 C 0.21813 0.19685 0.19516 0.0
C502 C 0.23002 0.13751 0.2033 0.0
C503 C 0.20597 0.81606 0.81386 0.0
C504 C 0.24834 0.77638 0.80326 0.0
C505 C 0.14813 0.80289 0.80273 0.0
C506 C 0.13049 0.74995 0.77956 0.0
H507 H 0.21791 0.85943 0.82539 0.0
H508 H 0.1178 0.83642 0.807 0.0
S509 S 0.22442 0.62955 0.74845 0.0
N510 N 0.26799 0.68068 0.77157 0.0
N511 N 0.1601 0.65555 0.75206 0.0
C512 C 0.17201 0.70835 0.77325 0.0
C513 C 0.23062 0.7217 0.78467 0.0
C514 C 0.80456 0.87609 0.17508 0.0
C515 C 0.77106 0.82913 0.19284 0.0
C516 C 0.78733 0.93286 0.1838 0.0
C517 C 0.73678 0.94463 0.21206 0.0
H518 H 0.84644 0.86924 0.1589 0.0
H519 H 0.81634 0.96737 0.17269 0.0
S520 S 0.63061 0.8363 0.2598 0.0
N521 N 0.68238 0.79837 0.23465 0.0
N522 N 0.65 0.90386 0.25029 0.0
C523 C 0.70071 0.89786 0.22507 0.0
C524 C 0.71799 0.84053 0.21592 0.0
C525 C 0.91079 0.24507 0.79378 0.0
C526 C 0.92928 0.3019 0.78394 0.0
C527 C 0.85299 0.23108 0.80163 0.0
C528 C 0.81159 0.27343 0.80171 0.0
H529 H 0.94021 0.21049 0.79019 0.0
H530 H 0.84006 0.18635 0.8034 0.0
S531 S 0.83892 0.42936 0.78648 0.0
N532 N 0.90219 0.40129 0.7806 0.0
N533 N 0.79425 0.37513 0.79735 0.0
C534 C 0.83032 0.3308 0.79751 0.0
C535 C 0.88895 0.34498 0.78805 0.0
C536 C 0.81416 0.35179 0.30684 0.0
C537 C 0.75712 0.33266 0.30557 0.0
C538 C 0.8292 0.40941 0.29593 0.0
C539 C 0.78776 0.45037 0.28374 0.0
H540 H 0.84765 0.321 0.3101 0.0
H541 H 0.87385 0.4209 0.29293 0.0
S542 S 0.63182 0.42348 0.28501 0.0
N543 N 0.65892 0.36033 0.29779 0.0
N544 N 0.68655 0.46846 0.27949 0.0
C545 C 0.73039 0.43285 0.28872 0.0
C546 C 0.71528 0.37407 0.29902 0.0
C547 C 0.41114 0.27638 0.68451 0.0
C548 C 0.42874 0.23177 0.7198 0.0
C549 C 0.35307 0.28713 0.67531 0.0
C550 C 0.31068 0.25294 0.70011 0.0
H551 H 0.44225 0.30618 0.6677 0.0
H552 H 0.34167 0.3253 0.65295 0.0
S553 S 0.33359 0.12199 0.78333 0.0
N554 N 0.39828 0.14658 0.77017 0.0
N555 N 0.29013 0.1666 0.75251 0.0
C556 C 0.32783 0.20385 0.72892 0.0
C557 C 0.38656 0.19322 0.73882 0.0
C558 C 0.24397 0.72877 0.26114 0.0
C559 C 0.29253 0.74257 0.29341 0.0
C560 C 0.22351 0.67241 0.25526 0.0
C561 C 0.25113 0.62644 0.2807 0.0
H562 H 0.22375 0.76148 0.23672 0.0
H563 H 0.188 0.66466 0.22711 0.0
S564 S 0.37464 0.64036 0.3777 0.0
N565 N 0.36397 0.7065 0.35661 0.0
N566 N 0.32515 0.60003 0.34678 0.0
C567 C 0.29676 0.64007 0.31746 0.0
C568 C 0.31776 0.69814 0.32326 0.0
C569 C 0.66852 0.8465 0.69598 0.0
C570 C 0.62842 0.80167 0.70485 0.0
C571 C 0.72583 0.83566 0.68465 0.0
C572 C 0.74577 0.77955 0.68165 0.0
H573 H 0.65664 0.89045 0.70205 0.0
H574 H 0.75581 0.87148 0.68459 0.0
S575 S 0.65765 0.64684 0.69391 0.0
N576 N 0.61227 0.69859 0.70283 0.0
N577 N 0.71971 0.6788 0.68283 0.0
C578 C 0.70523 0.73458 0.68512 0.0
C579 C 0.64673 0.74543 0.69629 0.0
loop_
_geom_bond_atom_site_label_1
_geom_bond_atom_site_label_2
_geom_bond_distance
_geom_bond_site_symmetry_2
_ccdc_geom_bond_type
Zn0 N4 2.020 . S
Zn0 O8 2.019 . S
Zn0 N10 2.119 . S
Zn0 O18 1.975 . S
C1 N2 1.334 . S
C1 N5 1.336 . S
N2 C1 1.334 . S
N2 C3 1.334 . S
C3 N2 1.334 . S
C3 N4 1.336 . S
N4 Zn0 2.020 . S
N4 C3 1.336 . S
N4 N5 1.354 . S
N5 C1 1.336 . S
N5 N4 1.354 . S
N5 Zn9 2.020 . S
C6 O7 1.244 . S
C6 O30 1.257 . S
O7 C6 1.244 . S
O8 Zn0 2.019 . S
O8 C28 1.257 . S
Zn9 N5 2.020 . S
Zn9 O16 1.975 . S
Zn9 N25 2.119 . S
Zn9 O30 2.019 . S
N10 Zn0 2.119 . S
N10 C12 1.334 . S
N10 C13 1.328 . S
C11 C12 1.391 . S
C11 N14 1.329 . S
C11 H32 0.930 . S
C12 N10 1.334 . S
C12 C11 1.391 . S
C12 H19 0.930 . S
C13 N10 1.328 . S
C13 C15 1.392 1_554 S
C13 H20 0.930 . S
N14 C11 1.329 . S
N14 C15 1.331 1_554 S
C15 C13 1.392 1_556 S
C15 N14 1.331 1_556 S
O16 Zn9 1.975 . S
O16 C17 1.252 . S
C17 O16 1.252 . S
C17 O18 1.252 . S
O18 Zn0 1.975 . S
O18 C17 1.252 . S
H19 C12 0.930 . S
H20 C13 0.930 . S
C21 C22 1.392 . S
C21 N25 1.328 . S
C21 H27 0.930 . S
C22 C21 1.392 . S
C22 N26 1.331 . S
C23 C24 1.391 . S
C23 N26 1.329 . S
C23 H33 0.930 . S
C24 C23 1.391 . S
C24 N25 1.334 . S
C24 H31 0.930 . S
N25 Zn9 2.119 . S
N25 C21 1.328 . S
N25 C24 1.334 . S
N26 C22 1.331 . S
N26 C23 1.329 . S
H27 C21 0.930 . S
C28 O8 1.257 . S
C28 O29 1.244 . S
O29 C28 1.244 . S
O30 C6 1.257 . S
O30 Zn9 2.019 . S
H31 C24 0.930 . S
H32 C11 0.930 . S
H33 C23 0.930 . S
Zn34 N38 2.020 . S
Zn34 O42 2.019 . S
Zn34 N44 2.119 . S
Zn34 O52 1.975 . S
C35 N36 1.334 . S
C35 N39 1.336 . S
N36 C35 1.334 . S
N36 C37 1.334 . S
C37 N36 1.334 . S
C37 N38 1.336 . S
N38 Zn34 2.020 . S
N38 C37 1.336 . S
N38 N39 1.354 . S
N39 C35 1.336 . S
N39 N38 1.354 . S
N39 Zn43 2.020 . S
C40 O41 1.244 . S
C40 O64 1.257 . S
O41 C40 1.244 . S
O42 Zn34 2.019 . S
O42 C62 1.257 . S
Zn43 N39 2.020 . S
Zn43 O50 1.975 . S
Zn43 N59 2.119 . S
Zn43 O64 2.019 . S
N44 Zn34 2.119 . S
N44 C46 1.334 . S
N44 C47 1.328 . S
C45 C46 1.391 . S
C45 N48 1.329 . S
C45 H66 0.930 . S
C46 N44 1.334 . S
C46 C45 1.391 . S
C46 H53 0.930 . S
C47 N44 1.328 . S
C47 C49 1.392 . S
C47 H54 0.930 . S
N48 C45 1.329 . S
N48 C49 1.331 . S
C49 C47 1.392 . S
C49 N48 1.331 . S
O50 Zn43 1.975 . S
O50 C51 1.252 . S
C51 O50 1.252 . S
C51 O52 1.252 . S
O52 Zn34 1.975 . S
O52 C51 1.252 . S
H53 C46 0.930 . S
H54 C47 0.930 . S
C55 C56 1.392 1_556 S
C55 N59 1.328 . S
C55 H61 0.930 . S
C56 C55 1.392 1_554 S
C56 N60 1.331 1_554 S
C57 C58 1.391 . S
C57 N60 1.329 . S
C57 H67 0.930 . S
C58 C57 1.391 . S
C58 N59 1.334 . S
C58 H65 0.930 . S
N59 Zn43 2.119 . S
N59 C55 1.328 . S
N59 C58 1.334 . S
N60 C56 1.331 1_556 S
N60 C57 1.329 . S
H61 C55 0.930 . S
C62 O42 1.257 . S
C62 O63 1.244 . S
O63 C62 1.244 . S
O64 C40 1.257 . S
O64 Zn43 2.019 . S
H65 C58 0.930 . S
H66 C45 0.930 . S
H67 C57 0.930 . S
Zn68 N72 2.020 . S
Zn68 O76 2.019 . S
Zn68 N78 2.119 . S
Zn68 O86 1.975 . S
C69 N70 1.334 . S
C69 N73 1.336 . S
N70 C69 1.334 . S
N70 C71 1.334 . S
C71 N70 1.334 . S
C71 N72 1.336 . S
N72 Zn68 2.020 . S
N72 C71 1.336 . S
N72 N73 1.354 . S
N73 C69 1.336 . S
N73 N72 1.354 . S
N73 Zn77 2.020 . S
C74 O75 1.244 . S
C74 O98 1.257 . S
O75 C74 1.244 . S
O76 Zn68 2.019 . S
O76 C96 1.257 . S
Zn77 N73 2.020 . S
Zn77 O84 1.975 . S
Zn77 N93 2.119 . S
Zn77 O98 2.019 . S
N78 Zn68 2.119 . S
N78 C80 1.334 . S
N78 C81 1.328 . S
C79 C80 1.391 . S
C79 N82 1.329 . S
C79 H100 0.930 . S
C80 N78 1.334 . S
C80 C79 1.391 . S
C80 H87 0.930 . S
C81 N78 1.328 . S
C81 C83 1.392 . S
C81 H88 0.930 . S
N82 C79 1.329 . S
N82 C83 1.331 . S
C83 C81 1.392 . S
C83 N82 1.331 . S
O84 Zn77 1.975 . S
O84 C85 1.252 . S
C85 O84 1.252 . S
C85 O86 1.252 . S
O86 Zn68 1.975 . S
O86 C85 1.252 . S
H87 C80 0.930 . S
H88 C81 0.930 . S
C89 C90 1.392 1_554 S
C89 N93 1.328 . S
C89 H95 0.930 . S
C90 C89 1.392 1_556 S
C90 N94 1.331 1_556 S
C91 C92 1.391 . S
C91 N94 1.329 . S
C91 H101 0.930 . S
C92 C91 1.391 . S
C92 N93 1.334 . S
C92 H99 0.930 . S
N93 Zn77 2.119 . S
N93 C89 1.328 . S
N93 C92 1.334 . S
N94 C90 1.331 1_554 S
N94 C91 1.329 . S
H95 C89 0.930 . S
C96 O76 1.257 . S
C96 O97 1.244 . S
O97 C96 1.244 . S
O98 C74 1.257 . S
O98 Zn77 2.019 . S
H99 C92 0.930 . S
H100 C79 0.930 . S
H101 C91 0.930 . S
Zn102 N106 2.020 . S
Zn102 O110 2.019 . S
Zn102 N112 2.119 . S
Zn102 O120 1.975 . S
C103 N104 1.334 . S
C103 N107 1.336 . S
N104 C103 1.334 . S
N104 C105 1.334 . S
C105 N104 1.334 . S
C105 N106 1.336 . S
N106 Zn102 2.020 . S
N106 C105 1.336 . S
N106 N107 1.354 . S
N107 C103 1.336 . S
N107 N106 1.354 . S
N107 Zn111 2.020 . S
C108 O109 1.244 . S
C108 O132 1.257 . S
O109 C108 1.244 . S
O110 Zn102 2.019 . S
O110 C130 1.257 . S
Zn111 N107 2.020 . S
Zn111 O118 1.975 . S
Zn111 N127 2.119 . S
Zn111 O132 2.019 . S
N112 Zn102 2.119 . S
N112 C114 1.334 . S
N112 C115 1.328 . S
C113 C114 1.391 . S
C113 N116 1.329 . S
C113 H134 0.930 . S
C114 N112 1.334 . S
C114 C113 1.391 . S
C114 H121 0.930 . S
C115 N112 1.328 . S
C115 C117 1.392 . S
C115 H122 0.930 . S
N116 C113 1.329 . S
N116 C117 1.331 . S
C117 C115 1.392 . S
C117 N116 1.331 . S
O118 Zn111 1.975 . S
O118 C119 1.252 . S
C119 O118 1.252 . S
C119 O120 1.252 . S
O120 Zn102 1.975 . S
O120 C119 1.252 . S
H121 C114 0.930 . S
H122 C115 0.930 . S
C123 C124 1.392 1_556 S
C123 N127 1.328 . S
C123 H129 0.930 . S
C124 C123 1.392 1_554 S
C124 N128 1.331 1_554 S
C125 C126 1.391 . S
C125 N128 1.329 . S
C125 H135 0.930 . S
C126 C125 1.391 . S
C126 N127 1.334 . S
C126 H133 0.930 . S
N127 Zn111 2.119 . S
N127 C123 1.328 . S
N127 C126 1.334 . S
N128 C124 1.331 1_556 S
N128 C125 1.329 . S
H129 C123 0.930 . S
C130 O110 1.257 . S
C130 O131 1.244 . S
O131 C130 1.244 . S
O132 C108 1.257 . S
O132 Zn111 2.019 . S
H133 C126 0.930 . S
H134 C113 0.930 . S
H135 C125 0.930 . S
Zn136 N140 2.020 . S
Zn136 O144 2.019 . S
Zn136 N146 2.119 . S
Zn136 O154 1.975 . S
C137 N138 1.334 . S
C137 N141 1.336 . S
N138 C137 1.334 . S
N138 C139 1.334 . S
C139 N138 1.334 . S
C139 N140 1.336 . S
N140 Zn136 2.020 . S
N140 C139 1.336 . S
N140 N141 1.354 . S
N141 C137 1.336 . S
N141 N140 1.354 . S
N141 Zn145 2.020 . S
C142 O143 1.244 . S
C142 O166 1.257 . S
O143 C142 1.244 . S
O144 Zn136 2.019 . S
O144 C164 1.257 . S
Zn145 N141 2.020 . S
Zn145 O152 1.975 . S
Zn145 N161 2.119 . S
Zn145 O166 2.019 1_545 S
N146 Zn136 2.119 . S
N146 C148 1.334 . S
N146 C149 1.328 . S
C147 C148 1.391 . S
C147 N150 1.329 . S
C147 H168 0.930 . S
C148 N146 1.334 . S
C148 C147 1.391 . S
C148 H155 0.930 . S
C149 N146 1.328 . S
C149 C151 1.392 . S
C149 H156 0.930 . S
N150 C147 1.329 . S
N150 C151 1.331 . S
C151 C149 1.392 . S
C151 N150 1.331 . S
O152 Zn145 1.975 . S
O152 C153 1.252 . S
C153 O152 1.252 . S
C153 O154 1.252 . S
O154 Zn136 1.975 . S
O154 C153 1.252 . S
H155 C148 0.930 . S
H156 C149 0.930 . S
C157 C158 1.392 . S
C157 N161 1.328 1_565 S
C157 H163 0.930 . S
C158 C157 1.392 . S
C158 N162 1.331 1_565 S
C159 C160 1.391 . S
C159 N162 1.329 . S
C159 H169 0.930 . S
C160 C159 1.391 . S
C160 N161 1.334 . S
C160 H167 0.930 . S
N161 Zn145 2.119 . S
N161 C157 1.328 1_545 S
N161 C160 1.334 . S
N162 C158 1.331 1_545 S
N162 C159 1.329 . S
H163 C157 0.930 . S
C164 O144 1.257 . S
C164 O165 1.244 . S
O165 C164 1.244 . S
O166 C142 1.257 . S
O166 Zn145 2.019 1_565 S
H167 C160 0.930 . S
H168 C147 0.930 . S
H169 C159 0.930 . S
Zn170 N174 2.020 . S
Zn170 O178 2.019 1_455 S
Zn170 N180 2.119 . S
Zn170 O188 1.975 . S
C171 N172 1.334 . S
C171 N175 1.336 . S
N172 C171 1.334 . S
N172 C173 1.334 . S
C173 N172 1.334 . S
C173 N174 1.336 . S
N174 Zn170 2.020 . S
N174 C173 1.336 . S
N174 N175 1.354 . S
N175 C171 1.336 . S
N175 N174 1.354 . S
N175 Zn179 2.020 . S
C176 O177 1.244 . S
C176 O200 1.257 . S
O177 C176 1.244 . S
O178 Zn170 2.019 1_655 S
O178 C198 1.257 . S
Zn179 N175 2.020 . S
Zn179 O186 1.975 . S
Zn179 N195 2.119 . S
Zn179 O200 2.019 . S
N180 Zn170 2.119 . S
N180 C182 1.334 . S
N180 C183 1.328 1_455 S
C181 C182 1.391 . S
C181 N184 1.329 . S
C181 H202 0.930 . S
C182 N180 1.334 . S
C182 C181 1.391 . S
C182 H189 0.930 . S
C183 N180 1.328 1_655 S
C183 C185 1.392 . S
C183 H190 0.930 . S
N184 C181 1.329 . S
N184 C185 1.331 1_455 S
C185 C183 1.392 . S
C185 N184 1.331 1_655 S
O186 Zn179 1.975 . S
O186 C187 1.252 . S
C187 O186 1.252 . S
C187 O188 1.252 . S
O188 Zn170 1.975 . S
O188 C187 1.252 . S
H189 C182 0.930 . S
H190 C183 0.930 . S
C191 C192 1.392 . S
C191 N195 1.328 . S
C191 H197 0.930 . S
C192 C191 1.392 . S
C192 N196 1.331 . S
C193 C194 1.391 . S
C193 N196 1.329 . S
C193 H203 0.930 . S
C194 C193 1.391 . S
C194 N195 1.334 . S
C194 H201 0.930 . S
N195 Zn179 2.119 . S
N195 C191 1.328 . S
N195 C194 1.334 . S
N196 C192 1.331 . S
N196 C193 1.329 . S
H197 C191 0.930 . S
C198 O178 1.257 . S
C198 O199 1.244 . S
O199 C198 1.244 . S
O200 C176 1.257 . S
O200 Zn179 2.019 . S
H201 C194 0.930 . S
H202 C181 0.930 . S
H203 C193 0.930 . S
Zn204 N208 2.020 . S
Zn204 O212 2.019 . S
Zn204 N214 2.119 . S
Zn204 O222 1.975 . S
C205 N206 1.334 . S
C205 N209 1.336 . S
N206 C205 1.334 . S
N206 C207 1.334 . S
C207 N206 1.334 . S
C207 N208 1.336 . S
N208 Zn204 2.020 . S
N208 C207 1.336 . S
N208 N209 1.354 . S
N209 C205 1.336 . S
N209 N208 1.354 . S
N209 Zn213 2.020 . S
C210 O211 1.244 . S
C210 O234 1.257 . S
O211 C210 1.244 . S
O212 Zn204 2.019 . S
O212 C232 1.257 . S
Zn213 N209 2.020 . S
Zn213 O220 1.975 . S
Zn213 N229 2.119 . S
Zn213 O234 2.019 1_565 S
N214 Zn204 2.119 . S
N214 C216 1.334 . S
N214 C217 1.328 . S
C215 C216 1.391 . S
C215 N218 1.329 . S
C215 H236 0.930 . S
C216 N214 1.334 . S
C216 C215 1.391 . S
C216 H223 0.930 . S
C217 N214 1.328 . S
C217 C219 1.392 . S
C217 H224 0.930 . S
N218 C215 1.329 . S
N218 C219 1.331 . S
C219 C217 1.392 . S
C219 N218 1.331 . S
O220 Zn213 1.975 . S
O220 C221 1.252 . S
C221 O220 1.252 . S
C221 O222 1.252 . S
O222 Zn204 1.975 . S
O222 C221 1.252 . S
H223 C216 0.930 . S
H224 C217 0.930 . S
C225 C226 1.392 . S
C225 N229 1.328 1_545 S
C225 H231 0.930 . S
C226 C225 1.392 . S
C226 N230 1.331 1_545 S
C227 C228 1.391 . S
C227 N230 1.329 . S
C227 H237 0.930 . S
C228 C227 1.391 . S
C228 N229 1.334 . S
C228 H235 0.930 . S
N229 Zn213 2.119 . S
N229 C225 1.328 1_565 S
N229 C228 1.334 . S
N230 C226 1.331 1_565 S
N230 C227 1.329 . S
H231 C225 0.930 . S
C232 O212 1.257 . S
C232 O233 1.244 . S
O233 C232 1.244 . S
O234 C210 1.257 . S
O234 Zn213 2.019 1_545 S
H235 C228 0.930 . S
H236 C215 0.930 . S
H237 C227 0.930 . S
Zn238 N242 2.020 . S
Zn238 O246 2.019 1_655 S
Zn238 N248 2.119 . S
Zn238 O256 1.975 . S
C239 N240 1.334 . S
C239 N243 1.336 . S
N240 C239 1.334 . S
N240 C241 1.334 . S
C241 N240 1.334 . S
C241 N242 1.336 . S
N242 Zn238 2.020 . S
N242 C241 1.336 . S
N242 N243 1.354 . S
N243 C239 1.336 . S
N243 N242 1.354 . S
N243 Zn247 2.020 . S
C244 O245 1.244 . S
C244 O268 1.257 . S
O245 C244 1.244 . S
O246 Zn238 2.019 1_455 S
O246 C266 1.257 . S
Zn247 N243 2.020 . S
Zn247 O254 1.975 . S
Zn247 N263 2.119 . S
Zn247 O268 2.019 . S
N248 Zn238 2.119 . S
N248 C250 1.334 . S
N248 C251 1.328 1_655 S
C249 C250 1.391 . S
C249 N252 1.329 . S
C249 H270 0.930 . S
C250 N248 1.334 . S
C250 C249 1.391 . S
C250 H257 0.930 . S
C251 N248 1.328 1_455 S
C251 C253 1.392 . S
C251 H258 0.930 . S
N252 C249 1.329 . S
N252 C253 1.331 1_655 S
C253 C251 1.392 . S
C253 N252 1.331 1_455 S
O254 Zn247 1.975 . S
O254 C255 1.252 . S
C255 O254 1.252 . S
C255 O256 1.252 . S
O256 Zn238 1.975 . S
O256 C255 1.252 . S
H257 C250 0.930 . S
H258 C251 0.930 . S
C259 C260 1.392 . S
C259 N263 1.328 . S
C259 H265 0.930 . S
C260 C259 1.392 . S
C260 N264 1.331 . S
C261 C262 1.391 . S
C261 N264 1.329 . S
C261 H271 0.930 . S
C262 C261 1.391 . S
C262 N263 1.334 . S
C262 H269 0.930 . S
N263 Zn247 2.119 . S
N263 C259 1.328 . S
N263 C262 1.334 . S
N264 C260 1.331 . S
N264 C261 1.329 . S
H265 C259 0.930 . S
C266 O246 1.257 . S
C266 O267 1.244 . S
O267 C266 1.244 . S
O268 C244 1.257 . S
O268 Zn247 2.019 . S
H269 C262 0.930 . S
H270 C249 0.930 . S
H271 C261 0.930 . S
C272 C273 1.369 . S
C272 C274 1.419 . S
C272 H276 0.930 . S
C273 C272 1.369 . S
C273 C282 1.429 . S
C274 C272 1.419 . S
C274 C275 1.363 . S
C274 H277 0.929 . S
C275 C274 1.363 . S
C275 C281 1.428 . S
H276 C272 0.930 . S
H277 C274 0.929 . S
S278 N279 1.613 1_655 S
S278 N280 1.610 1_655 S
N279 S278 1.613 1_455 S
N279 C282 1.350 . S
N280 S278 1.610 1_455 S
N280 C281 1.351 . S
C281 C275 1.428 . S
C281 N280 1.351 . S
C281 C282 1.434 . S
C282 C273 1.429 . S
C282 N279 1.350 . S
C282 C281 1.434 . S
C283 C284 1.369 . S
C283 C285 1.419 . S
C283 H287 0.930 . S
C284 C283 1.369 . S
C284 C293 1.429 . S
C285 C283 1.419 . S
C285 C286 1.363 . S
C285 H288 0.929 . S
C286 C285 1.363 . S
C286 C292 1.428 . S
H287 C283 0.930 . S
H288 C285 0.929 . S
S289 N290 1.613 1_545 S
S289 N291 1.610 1_545 S
N290 S289 1.613 1_565 S
N290 C293 1.350 . S
N291 S289 1.610 1_565 S
N291 C292 1.351 . S
C292 C286 1.428 . S
C292 N291 1.351 . S
C292 C293 1.434 . S
C293 C284 1.429 . S
C293 N290 1.350 . S
C293 C292 1.434 . S
C294 C295 1.369 . S
C294 C296 1.419 . S
C294 H298 0.930 . S
C295 C294 1.369 . S
C295 C304 1.429 . S
C296 C294 1.419 . S
C296 C297 1.363 . S
C296 H299 0.929 . S
C297 C296 1.363 . S
C297 C303 1.428 . S
H298 C294 0.930 . S
H299 C296 0.929 . S
S300 N301 1.613 . S
S300 N302 1.610 . S
N301 S300 1.613 . S
N301 C304 1.350 . S
N302 S300 1.610 . S
N302 C303 1.351 . S
C303 C297 1.428 . S
C303 N302 1.351 . S
C303 C304 1.434 . S
C304 C295 1.429 . S
C304 N301 1.350 . S
C304 C303 1.434 . S
C305 C306 1.369 . S
C305 C307 1.419 . S
C305 H309 0.930 . S
C306 C305 1.369 . S
C306 C315 1.429 . S
C307 C305 1.419 . S
C307 C308 1.363 . S
C307 H310 0.929 . S
C308 C307 1.363 . S
C308 C314 1.428 . S
H309 C305 0.930 . S
H310 C307 0.929 . S
S311 N312 1.613 . S
S311 N313 1.610 . S
N312 S311 1.613 . S
N312 C315 1.350 . S
N313 S311 1.610 . S
N313 C314 1.351 . S
C314 C308 1.428 . S
C314 N313 1.351 . S
C314 C315 1.434 . S
C315 C306 1.429 . S
C315 N312 1.350 . S
C315 C314 1.434 . S
C316 C317 1.369 . S
C316 C318 1.419 . S
C316 H320 0.930 . S
C317 C316 1.369 . S
C317 C326 1.429 . S
C318 C316 1.419 . S
C318 C319 1.363 . S
C318 H321 0.929 . S
C319 C318 1.363 . S
C319 C325 1.428 . S
H320 C316 0.930 . S
H321 C318 0.929 . S
S322 N323 1.613 . S
S322 N324 1.610 . S
N323 S322 1.613 . S
N323 C326 1.350 . S
N324 S322 1.610 . S
N324 C325 1.351 . S
C325 C319 1.428 . S
C325 N324 1.351 . S
C325 C326 1.434 . S
C326 C317 1.429 . S
C326 N323 1.350 . S
C326 C325 1.434 . S
C327 C328 1.369 . S
C327 C329 1.419 . S
C327 H331 0.930 . S
C328 C327 1.369 . S
C328 C337 1.429 . S
C329 C327 1.419 . S
C329 C330 1.363 . S
C329 H332 0.929 . S
C330 C329 1.363 . S
C330 C336 1.428 . S
H331 C327 0.930 . S
H332 C329 0.929 . S
S333 N334 1.613 . S
S333 N335 1.610 . S
N334 S333 1.613 . S
N334 C337 1.350 . S
N335 S333 1.610 . S
N335 C336 1.351 . S
C336 C330 1.428 . S
C336 N335 1.351 . S
C336 C337 1.434 . S
C337 C328 1.429 . S
C337 N334 1.350 . S
C337 C336 1.434 . S
C338 C339 1.369 . S
C338 C340 1.419 . S
C338 H342 0.930 . S
C339 C338 1.369 . S
C339 C348 1.429 . S
C340 C338 1.419 . S
C340 C341 1.363 . S
C340 H343 0.929 . S
C341 C340 1.363 . S
C341 C347 1.428 . S
H342 C338 0.930 . S
H343 C340 0.929 . S
S344 N345 1.613 . S
S344 N346 1.610 . S
N345 S344 1.613 . S
N345 C348 1.350 . S
N346 S344 1.610 . S
N346 C347 1.351 . S
C347 C341 1.428 . S
C347 N346 1.351 . S
C347 C348 1.434 . S
C348 C339 1.429 . S
C348 N345 1.350 . S
C348 C347 1.434 . S
C349 C350 1.369 . S
C349 C351 1.419 . S
C349 H353 0.930 . S
C350 C349 1.369 . S
C350 C359 1.429 . S
C351 C349 1.419 . S
C351 C352 1.363 . S
C351 H354 0.929 . S
C352 C351 1.363 . S
C352 C358 1.428 . S
H353 C349 0.930 . S
H354 C351 0.929 . S
S355 N356 1.613 . S
S355 N357 1.610 . S
N356 S355 1.613 . S
N356 C359 1.350 . S
N357 S355 1.610 . S
N357 C358 1.351 . S
C358 C352 1.428 . S
C358 N357 1.351 . S
C358 C359 1.434 . S
C359 C350 1.429 . S
C359 N356 1.350 . S
C359 C358 1.434 . S
C360 C361 1.369 1_554 S
C360 C362 1.419 . S
C360 H364 0.930 . S
C361 C360 1.369 1_556 S
C361 C370 1.429 . S
C362 C360 1.419 . S
C362 C363 1.363 . S
C362 H365 0.929 . S
C363 C362 1.363 . S
C363 C369 1.428 1_554 S
H364 C360 0.930 . S
H365 C362 0.929 . S
S366 N367 1.613 . S
S366 N368 1.610 . S
N367 S366 1.613 . S
N367 C370 1.350 . S
N368 S366 1.610 . S
N368 C369 1.351 . S
C369 C363 1.428 1_556 S
C369 N368 1.351 . S
C369 C370 1.434 . S
C370 C361 1.429 . S
C370 N367 1.350 . S
C370 C369 1.434 . S
C371 C372 1.369 . S
C371 C373 1.419 1_554 S
C371 H375 0.930 1_554 S
C372 C371 1.369 . S
C372 C381 1.429 . S
C373 C371 1.419 1_556 S
C373 C374 1.363 . S
C373 H376 0.929 . S
C374 C373 1.363 . S
C374 C380 1.428 1_556 S
H375 C371 0.930 1_556 S
H376 C373 0.929 . S
S377 N378 1.613 . S
S377 N379 1.610 . S
N378 S377 1.613 . S
N378 C381 1.350 . S
N379 S377 1.610 . S
N379 C380 1.351 . S
C380 C374 1.428 1_554 S
C380 N379 1.351 . S
C380 C381 1.434 . S
C381 C372 1.429 . S
C381 N378 1.350 . S
C381 C380 1.434 . S
C382 C383 1.369 . S
C382 C384 1.419 . S
C382 H386 0.930 . S
C383 C382 1.369 . S
C383 C392 1.429 1_556 S
C384 C382 1.419 . S
C384 C385 1.363 1_556 S
C384 H387 0.929 . S
C385 C384 1.363 1_554 S
C385 C391 1.428 . S
H386 C382 0.930 . S
H387 C384 0.929 . S
S388 N389 1.613 . S
S388 N390 1.610 . S
N389 S388 1.613 . S
N389 C392 1.350 . S
N390 S388 1.610 . S
N390 C391 1.351 . S
C391 C385 1.428 . S
C391 N390 1.351 . S
C391 C392 1.434 . S
C392 C383 1.429 1_554 S
C392 N389 1.350 . S
C392 C391 1.434 . S
C393 C394 1.369 . S
C393 C395 1.419 . S
C393 H397 0.930 . S
C394 C393 1.369 . S
C394 C403 1.429 1_556 S
C395 C393 1.419 . S
C395 C396 1.363 1_556 S
C395 H398 0.929 . S
C396 C395 1.363 1_554 S
C396 C402 1.428 . S
H397 C393 0.930 . S
H398 C395 0.929 . S
S399 N400 1.613 . S
S399 N401 1.610 . S
N400 S399 1.613 . S
N400 C403 1.350 . S
N401 S399 1.610 . S
N401 C402 1.351 . S
C402 C396 1.428 . S
C402 N401 1.351 . S
C402 C403 1.434 . S
C403 C394 1.429 1_554 S
C403 N400 1.350 . S
C403 C402 1.434 . S
C404 C405 1.369 . S
C404 C406 1.419 . S
C404 H408 0.930 . S
C405 C404 1.369 . S
C405 C414 1.429 . S
C406 C404 1.419 . S
C406 C407 1.363 . S
C406 H409 0.929 . S
C407 C406 1.363 . S
C407 C413 1.428 . S
H408 C404 0.930 . S
H409 C406 0.929 . S
S410 N411 1.613 . S
S410 N412 1.610 1_655 S
N411 S410 1.613 . S
N411 C414 1.350 . S
N412 S410 1.610 1_455 S
N412 C413 1.351 1_455 S
C413 C407 1.428 . S
C413 N412 1.351 1_655 S
C413 C414 1.434 . S
C414 C405 1.429 . S
C414 N411 1.350 . S
C414 C413 1.434 . S
C415 C416 1.369 . S
C415 C417 1.419 . S
C415 H419 0.930 . S
C416 C415 1.369 . S
C416 C425 1.429 . S
C417 C415 1.419 . S
C417 C418 1.363 . S
C417 H420 0.929 . S
C418 C417 1.363 . S
C418 C424 1.428 . S
H419 C415 0.930 . S
H420 C417 0.929 . S
S421 N422 1.613 . S
S421 N423 1.610 . S
N422 S421 1.613 . S
N422 C425 1.350 . S
N423 S421 1.610 . S
N423 C424 1.351 . S
C424 C418 1.428 . S
C424 N423 1.351 . S
C424 C425 1.434 . S
C425 C416 1.429 . S
C425 N422 1.350 . S
C425 C424 1.434 . S
C426 C427 1.369 . S
C426 C428 1.419 . S
C426 H430 0.930 . S
C427 C426 1.369 . S
C427 C436 1.429 . S
C428 C426 1.419 . S
C428 C429 1.363 . S
C428 H431 0.929 . S
C429 C428 1.363 . S
C429 C435 1.428 . S
H430 C426 0.930 . S
H431 C428 0.929 . S
S432 N433 1.613 . S
S432 N434 1.610 1_455 S
N433 S432 1.613 . S
N433 C436 1.350 . S
N434 S432 1.610 1_655 S
N434 C435 1.351 1_655 S
C435 C429 1.428 . S
C435 N434 1.351 1_455 S
C435 C436 1.434 . S
C436 C427 1.429 . S
C436 N433 1.350 . S
C436 C435 1.434 . S
C437 C438 1.369 . S
C437 C439 1.419 . S
C437 H441 0.930 . S
C438 C437 1.369 . S
C438 C447 1.429 . S
C439 C437 1.419 . S
C439 C440 1.363 . S
C439 H442 0.929 . S
C440 C439 1.363 . S
C440 C446 1.428 . S
H441 C437 0.930 . S
H442 C439 0.929 . S
S443 N444 1.613 . S
S443 N445 1.610 . S
N444 S443 1.613 . S
N444 C447 1.350 . S
N445 S443 1.610 . S
N445 C446 1.351 . S
C446 C440 1.428 . S
C446 N445 1.351 . S
C446 C447 1.434 . S
C447 C438 1.429 . S
C447 N444 1.350 . S
C447 C446 1.434 . S
C448 C449 1.369 . S
C448 C450 1.419 . S
C448 H452 0.930 . S
C449 C448 1.369 . S
C449 C458 1.429 . S
C450 C448 1.419 . S
C450 C451 1.363 . S
C450 H453 0.929 . S
C451 C450 1.363 . S
C451 C457 1.428 . S
H452 C448 0.930 . S
H453 C450 0.929 . S
S454 N455 1.613 . S
S454 N456 1.610 . S
N455 S454 1.613 . S
N455 C458 1.350 . S
N456 S454 1.610 . S
N456 C457 1.351 . S
C457 C451 1.428 . S
C457 N456 1.351 . S
C457 C458 1.434 . S
C458 C449 1.429 . S
C458 N455 1.350 . S
C458 C457 1.434 . S
C459 C460 1.369 . S
C459 C461 1.419 . S
C459 H463 0.930 . S
C460 C459 1.369 . S
C460 C469 1.429 . S
C461 C459 1.419 . S
C461 C462 1.363 . S
C461 H464 0.929 . S
C462 C461 1.363 . S
C462 C468 1.428 . S
H463 C459 0.930 . S
H464 C461 0.929 . S
S465 N466 1.613 . S
S465 N467 1.610 . S
N466 S465 1.613 . S
N466 C469 1.350 . S
N467 S465 1.610 . S
N467 C468 1.351 . S
C468 C462 1.428 . S
C468 N467 1.351 . S
C468 C469 1.434 . S
C469 C460 1.429 . S
C469 N466 1.350 . S
C469 C468 1.434 . S
C470 C471 1.374 . S
C470 C472 1.414 1_665 S
C470 H474 0.930 . S
C471 C470 1.374 . S
C471 C480 1.429 . S
C472 C470 1.414 1_445 S
C472 C473 1.363 . S
C472 H475 0.929 . S
C473 C472 1.363 . S
C473 C479 1.431 . S
H474 C470 0.930 . S
H475 C472 0.929 . S
S476 N477 1.613 1_455 S
S476 N478 1.620 . S
N477 S476 1.613 1_655 S
N477 C480 1.350 . S
N478 S476 1.620 . S
N478 C479 1.351 1_565 S
C479 C473 1.431 . S
C479 N478 1.351 1_545 S
C479 C480 1.431 1_445 S
C480 C471 1.429 . S
C480 N477 1.350 . S
C480 C479 1.431 1_665 S
C481 C482 1.369 . S
C481 C483 1.419 1_545 S
C481 H485 0.930 . S
C482 C481 1.369 . S
C482 C491 1.429 1_655 S
C483 C481 1.419 1_565 S
C483 C484 1.363 1_655 S
C483 H486 0.929 . S
C484 C483 1.363 1_455 S
C484 C490 1.428 . S
H485 C481 0.930 . S
H486 C483 0.929 . S
S487 N488 1.613 . S
S487 N489 1.610 1_545 S
N488 S487 1.613 . S
N488 C491 1.350 . S
N489 S487 1.610 1_565 S
N489 C490 1.351 . S
C490 C484 1.428 . S
C490 N489 1.351 . S
C490 C491 1.434 1_565 S
C491 C482 1.429 1_455 S
C491 N488 1.350 . S
C491 C490 1.434 1_545 S
C492 C493 1.369 . S
C492 C494 1.419 . S
C492 H496 0.930 . S
C493 C492 1.369 . S
C493 C502 1.429 . S
C494 C492 1.419 . S
C494 C495 1.363 . S
C494 H497 0.929 . S
C495 C494 1.363 . S
C495 C501 1.428 . S
H496 C492 0.930 . S
H497 C494 0.929 . S
S498 N499 1.613 . S
S498 N500 1.610 . S
N499 S498 1.613 . S
N499 C502 1.350 . S
N500 S498 1.610 . S
N500 C501 1.351 . S
C501 C495 1.428 . S
C501 N500 1.351 . S
C501 C502 1.434 . S
C502 C493 1.429 . S
C502 N499 1.350 . S
C502 C501 1.434 . S
C503 C504 1.369 . S
C503 C505 1.419 . S
C503 H507 0.930 . S
C504 C503 1.369 . S
C504 C513 1.429 . S
C505 C503 1.419 . S
C505 C506 1.363 . S
C505 H508 0.929 . S
C506 C505 1.363 . S
C506 C512 1.428 . S
H507 C503 0.930 . S
H508 C505 0.929 . S
S509 N510 1.613 . S
S509 N511 1.610 . S
N510 S509 1.613 . S
N510 C513 1.350 . S
N511 S509 1.610 . S
N511 C512 1.351 . S
C512 C506 1.428 . S
C512 N511 1.351 . S
C512 C513 1.434 . S
C513 C504 1.429 . S
C513 N510 1.350 . S
C513 C512 1.434 . S
C514 C515 1.369 . S
C514 C516 1.419 . S
C514 H518 0.930 . S
C515 C514 1.369 . S
C515 C524 1.429 . S
C516 C514 1.419 . S
C516 C517 1.363 . S
C516 H519 0.929 . S
C517 C516 1.363 . S
C517 C523 1.428 . S
H518 C514 0.930 . S
H519 C516 0.929 . S
S520 N521 1.613 . S
S520 N522 1.610 . S
N521 S520 1.613 . S
N521 C524 1.350 . S
N522 S520 1.610 . S
N522 C523 1.351 . S
C523 C517 1.428 . S
C523 N522 1.351 . S
C523 C524 1.434 . S
C524 C515 1.429 . S
C524 N521 1.350 . S
C524 C523 1.434 . S
C525 C526 1.369 . S
C525 C527 1.419 . S
C525 H529 0.930 . S
C526 C525 1.369 . S
C526 C535 1.429 . S
C527 C525 1.419 . S
C527 C528 1.363 . S
C527 H530 0.929 . S
C528 C527 1.363 . S
C528 C534 1.428 . S
H529 C525 0.930 . S
H530 C527 0.929 . S
S531 N532 1.613 . S
S531 N533 1.610 . S
N532 S531 1.613 . S
N532 C535 1.350 . S
N533 S531 1.610 . S
N533 C534 1.351 . S
C534 C528 1.428 . S
C534 N533 1.351 . S
C534 C535 1.434 . S
C535 C526 1.429 . S
C535 N532 1.350 . S
C535 C534 1.434 . S
C536 C537 1.369 . S
C536 C538 1.419 . S
C536 H540 0.930 . S
C537 C536 1.369 . S
C537 C546 1.429 . S
C538 C536 1.419 . S
C538 C539 1.363 . S
C538 H541 0.929 . S
C539 C538 1.363 . S
C539 C545 1.428 . S
H540 C536 0.930 . S
H541 C538 0.929 . S
S542 N543 1.613 . S
S542 N544 1.610 . S
N543 S542 1.613 . S
N543 C546 1.350 . S
N544 S542 1.610 . S
N544 C545 1.351 . S
C545 C539 1.428 . S
C545 N544 1.351 . S
C545 C546 1.434 . S
C546 C537 1.429 . S
C546 N543 1.350 . S
C546 C545 1.434 . S
C547 C548 1.369 . S
C547 C549 1.419 . S
C547 H551 0.930 . S
C548 C547 1.369 . S
C548 C557 1.429 . S
C549 C547 1.419 . S
C549 C550 1.363 . S
C549 H552 0.929 . S
C550 C549 1.363 . S
C550 C556 1.428 . S
H551 C547 0.930 . S
H552 C549 0.929 . S
S553 N554 1.613 . S
S553 N555 1.610 . S
N554 S553 1.613 . S
N554 C557 1.350 . S
N555 S553 1.610 . S
N555 C556 1.351 . S
C556 C550 1.428 . S
C556 N555 1.351 . S
C556 C557 1.434 . S
C557 C548 1.429 . S
C557 N554 1.350 . S
C557 C556 1.434 . S
C558 C559 1.369 . S
C558 C560 1.419 . S
C558 H562 0.930 . S
C559 C558 1.369 . S
C559 C568 1.429 . S
C560 C558 1.419 . S
C560 C561 1.363 . S
C560 H563 0.929 . S
C561 C560 1.363 . S
C561 C567 1.428 . S
H562 C558 0.930 . S
H563 C560 0.929 . S
S564 N565 1.613 . S
S564 N566 1.610 . S
N565 S564 1.613 . S
N565 C568 1.350 . S
N566 S564 1.610 . S
N566 C567 1.351 . S
C567 C561 1.428 . S
C567 N566 1.351 . S
C567 C568 1.434 . S
C568 C559 1.429 . S
C568 N565 1.350 . S
C568 C567 1.434 . S
C569 C570 1.369 . S
C569 C571 1.419 . S
C569 H573 0.930 . S
C570 C569 1.369 . S
C570 C579 1.429 . S
C571 C569 1.419 . S
C571 C572 1.363 . S
C571 H574 0.929 . S
C572 C571 1.363 . S
C572 C578 1.428 . S
H573 C569 0.930 . S
H574 C571 0.929 . S
S575 N576 1.613 . S
S575 N577 1.610 . S
N576 S575 1.613 . S
N576 C579 1.350 . S
N577 S575 1.610 . S
N577 C578 1.351 . S
C578 C572 1.428 . S
C578 N577 1.351 . S
C578 C579 1.434 . S
C579 C570 1.429 . S
C579 N576 1.350 . S
C579 C578 1.434 . S
C273 C15 1.612 . S
C275 C173 1.618 . S
C284 C56 1.611 . S
C286 C205 1.618 . S
C295 C241 1.612 . S
C297 C90 1.606 . S
C306 C137 1.612 . S
C308 C124 1.607 . S
C317 C151 1.604 . S
C319 C105 1.612 . S
C328 C192 1.604 . S
C330 C1 1.612 . S
C339 C219 1.606 . S
C341 C37 1.613 . S
C350 C260 1.604 . S
C352 C71 1.612 . S
C361 C119 1.562 . S
C363 C28 1.467 . S
C372 C17 1.561 . S
C374 C40 1.467 . S
C383 C51 1.565 . S
C385 C74 1.466 . S
C394 C108 1.471 . S
C396 C85 1.561 . S
C405 C164 1.466 . S
C407 C187 1.564 1_655 S
C416 C176 1.471 . S
C418 C221 1.563 1_545 S
C427 C232 1.465 . S
C429 C255 1.565 1_455 S
C438 C153 1.564 1_565 S
C440 C244 1.464 . S
C449 C22 0.946 . S
C451 C83 0.930 . S
C460 C49 0.925 . S
C462 C117 0.939 . S
C471 C158 0.928 . S
C473 C226 0.931 . S
C482 C185 0.925 . S
C484 C253 0.938 . S
C493 C210 2.001 . S
C495 C3 2.016 . S
C504 C35 2.008 . S
C506 C266 2.006 . S
C515 C69 2.012 . S
C517 C142 2.008 . S
C526 C198 2.003 . S
C528 C103 2.010 . S
C537 C139 2.012 . S
C539 C96 2.001 . S
C548 C130 2.009 . S
C550 C171 2.012 . S
C559 C207 2.018 . S
C561 C6 2.004 . S
C570 C62 2.000 . S
C572 C239 2.016 . S
