# Generated by pormake.
# Topology ato, (4)-cn, num edge types: 1
# Building blocks:
#     Node 0, Type 0, BuildingBlock: GALJAG_clean_sbu_0, # of connection points: 4
#     Node 1, Type 0, BuildingBlock: GALJAG_clean_sbu_0, # of connection points: 4
#     Node 2, Type 0, BuildingBlock: GALJAG_clean_sbu_0, # of connection points: 4
#     Node 3, Type 0, BuildingBlock: GALJAG_clean_sbu_0, # of connection points: 4
#     Node 4, Type 0, BuildingBlock: GALJAG_clean_sbu_0, # of connection points: 4
#     Node 5, Type 0, BuildingBlock: GALJAG_clean_sbu_0, # of connection points: 4
#     Node 6, Type 0, BuildingBlock: GALJAG_clean_sbu_0, # of connection points: 4
#     Node 7, Type 0, BuildingBlock: GALJAG_clean_sbu_0, # of connection points: 4
#     Node 8, Type 0, BuildingBlock: GALJAG_clean_sbu_0, # of connection points: 4
#     Node 9, Type 0, BuildingBlock: GALJAG_clean_sbu_0, # of connection points: 4
#     Node 10, Type 0, BuildingBlock: GALJAG_clean_sbu_0, # of connection points: 4
#     Node 11, Type 0, BuildingBlock: GALJAG_clean_sbu_0, # of connection points: 4
#     Node 12, Type 0, BuildingBlock: GALJAG_clean_sbu_0, # of connection points: 4
#     Node 13, Type 0, BuildingBlock: GALJAG_clean_sbu_0, # of connection points: 4
#     Node 14, Type 0, BuildingBlock: GALJAG_clean_sbu_0, # of connection points: 4
#     Node 15, Type 0, BuildingBlock: GALJAG_clean_sbu_0, # of connection points: 4
#     Node 16, Type 0, BuildingBlock: GALJAG_clean_sbu_0, # of connection points: 4
#     Node 17, Type 0, BuildingBlock: GALJAG_clean_sbu_0, # of connection points: 4
#     Node 18, Type 0, BuildingBlock: GALJAG_clean_sbu_0, # of connection points: 4
#     Node 19, Type 0, BuildingBlock: GALJAG_clean_sbu_0, # of connection points: 4
#     Node 20, Type 0, BuildingBlock: GALJAG_clean_sbu_0, # of connection points: 4
#     Node 21, Type 0, BuildingBlock: GALJAG_clean_sbu_0, # of connection points: 4
#     Node 22, Type 0, BuildingBlock: GALJAG_clean_sbu_0, # of connection points: 4
#     Node 23, Type 0, BuildingBlock: GALJAG_clean_sbu_0, # of connection points: 4
#     Node 24, Type 0, BuildingBlock: GALJAG_clean_sbu_0, # of connection points: 4
#     Node 25, Type 0, BuildingBlock: GALJAG_clean_sbu_0, # of connection points: 4
#     Node 26, Type 0, BuildingBlock: GALJAG_clean_sbu_0, # of connection points: 4
#     Node 27, Type 0, BuildingBlock: GALJAG_clean_sbu_0, # of connection points: 4
#     Node 28, Type 0, BuildingBlock: GALJAG_clean_sbu_0, # of connection points: 4
#     Node 29, Type 0, BuildingBlock: GALJAG_clean_sbu_0, # of connection points: 4
#     Node 30, Type 0, BuildingBlock: GALJAG_clean_sbu_0, # of connection points: 4
#     Node 31, Type 0, BuildingBlock: GALJAG_clean_sbu_0, # of connection points: 4
#     Node 32, Type 0, BuildingBlock: GALJAG_clean_sbu_0, # of connection points: 4
#     Node 33, Type 0, BuildingBlock: GALJAG_clean_sbu_0, # of connection points: 4
#     Node 34, Type 0, BuildingBlock: GALJAG_clean_sbu_0, # of connection points: 4
#     Node 35, Type 0, BuildingBlock: GALJAG_clean_sbu_0, # of connection points: 4
#     Edge 36, Type (0, 0), BuildingBlock: XUDNAN_clean_linker_2, # of connection points: 2
#     Edge 37, Type (0, 0), BuildingBlock: XUDNAN_clean_linker_2, # of connection points: 2
#     Edge 38, Type (0, 0), BuildingBlock: XUDNAN_clean_linker_2, # of connection points: 2
#     Edge 39, Type (0, 0), BuildingBlock: XUDNAN_clean_linker_2, # of connection points: 2
#     Edge 40, Type (0, 0), BuildingBlock: XUDNAN_clean_linker_2, # of connection points: 2
#     Edge 41, Type (0, 0), BuildingBlock: XUDNAN_clean_linker_2, # of connection points: 2
#     Edge 42, Type (0, 0), BuildingBlock: XUDNAN_clean_linker_2, # of connection points: 2
#     Edge 43, Type (0, 0), BuildingBlock: XUDNAN_clean_linker_2, # of connection points: 2
#     Edge 44, Type (0, 0), BuildingBlock: XUDNAN_clean_linker_2, # of connection points: 2
#     Edge 45, Type (0, 0), BuildingBlock: XUDNAN_clean_linker_2, # of connection points: 2
#     Edge 46, Type (0, 0), BuildingBlock: XUDNAN_clean_linker_2, # of connection points: 2
#     Edge 47, Type (0, 0), BuildingBlock: XUDNAN_clean_linker_2, # of connection points: 2
#     Edge 48, Type (0, 0), BuildingBlock: XUDNAN_clean_linker_2, # of connection points: 2
#     Edge 49, Type (0, 0), BuildingBlock: XUDNAN_clean_linker_2, # of connection points: 2
#     Edge 50, Type (0, 0), BuildingBlock: XUDNAN_clean_linker_2, # of connection points: 2
#     Edge 51, Type (0, 0), BuildingBlock: XUDNAN_clean_linker_2, # of connection points: 2
#     Edge 52, Type (0, 0), BuildingBlock: XUDNAN_clean_linker_2, # of connection points: 2
#     Edge 53, Type (0, 0), BuildingBlock: XUDNAN_clean_linker_2, # of connection points: 2
#     Edge 54, Type (0, 0), BuildingBlock: XUDNAN_clean_linker_2, # of connection points: 2
#     Edge 55, Type (0, 0), BuildingBlock: XUDNAN_clean_linker_2, # of connection points: 2
#     Edge 56, Type (0, 0), BuildingBlock: XUDNAN_clean_linker_2, # of connection points: 2
#     Edge 57, Type (0, 0), BuildingBlock: XUDNAN_clean_linker_2, # of connection points: 2
#     Edge 58, Type (0, 0), BuildingBlock: XUDNAN_clean_linker_2, # of connection points: 2
#     Edge 59, Type (0, 0), BuildingBlock: XUDNAN_clean_linker_2, # of connection points: 2
#     Edge 60, Type (0, 0), BuildingBlock: XUDNAN_clean_linker_2, # of connection points: 2
#     Edge 61, Type (0, 0), BuildingBlock: XUDNAN_clean_linker_2, # of connection points: 2
#     Edge 62, Type (0, 0), BuildingBlock: XUDNAN_clean_linker_2, # of connection points: 2
#     Edge 63, Type (0, 0), BuildingBlock: XUDNAN_clean_linker_2, # of connection points: 2
#     Edge 64, Type (0, 0), BuildingBlock: XUDNAN_clean_linker_2, # of connection points: 2
#     Edge 65, Type (0, 0), BuildingBlock: XUDNAN_clean_linker_2, # of connection points: 2
#     Edge 66, Type (0, 0), BuildingBlock: XUDNAN_clean_linker_2, # of connection points: 2
#     Edge 67, Type (0, 0), BuildingBlock: XUDNAN_clean_linker_2, # of connection points: 2
#     Edge 68, Type (0, 0), BuildingBlock: XUDNAN_clean_linker_2, # of connection points: 2
#     Edge 69, Type (0, 0), BuildingBlock: XUDNAN_clean_linker_2, # of connection points: 2
#     Edge 70, Type (0, 0), BuildingBlock: XUDNAN_clean_linker_2, # of connection points: 2
#     Edge 71, Type (0, 0), BuildingBlock: XUDNAN_clean_linker_2, # of connection points: 2
#     Edge 72, Type (0, 0), BuildingBlock: XUDNAN_clean_linker_2, # of connection points: 2
#     Edge 73, Type (0, 0), BuildingBlock: XUDNAN_clean_linker_2, # of connection points: 2
#     Edge 74, Type (0, 0), BuildingBlock: XUDNAN_clean_linker_2, # of connection points: 2
#     Edge 75, Type (0, 0), BuildingBlock: XUDNAN_clean_linker_2, # of connection points: 2
#     Edge 76, Type (0, 0), BuildingBlock: XUDNAN_clean_linker_2, # of connection points: 2
#     Edge 77, Type (0, 0), BuildingBlock: XUDNAN_clean_linker_2, # of connection points: 2
#     Edge 78, Type (0, 0), BuildingBlock: XUDNAN_clean_linker_2, # of connection points: 2
#     Edge 79, Type (0, 0), BuildingBlock: XUDNAN_clean_linker_2, # of connection points: 2
#     Edge 80, Type (0, 0), BuildingBlock: XUDNAN_clean_linker_2, # of connection points: 2
#     Edge 81, Type (0, 0), BuildingBlock: XUDNAN_clean_linker_2, # of connection points: 2
#     Edge 82, Type (0, 0), BuildingBlock: XUDNAN_clean_linker_2, # of connection points: 2
#     Edge 83, Type (0, 0), BuildingBlock: XUDNAN_clean_linker_2, # of connection points: 2
#     Edge 84, Type (0, 0), BuildingBlock: XUDNAN_clean_linker_2, # of connection points: 2
#     Edge 85, Type (0, 0), BuildingBlock: XUDNAN_clean_linker_2, # of connection points: 2
#     Edge 86, Type (0, 0), BuildingBlock: XUDNAN_clean_linker_2, # of connection points: 2
#     Edge 87, Type (0, 0), BuildingBlock: XUDNAN_clean_linker_2, # of connection points: 2
#     Edge 88, Type (0, 0), BuildingBlock: XUDNAN_clean_linker_2, # of connection points: 2
#     Edge 89, Type (0, 0), BuildingBlock: XUDNAN_clean_linker_2, # of connection points: 2
#     Edge 90, Type (0, 0), BuildingBlock: XUDNAN_clean_linker_2, # of connection points: 2
#     Edge 91, Type (0, 0), BuildingBlock: XUDNAN_clean_linker_2, # of connection points: 2
#     Edge 92, Type (0, 0), BuildingBlock: XUDNAN_clean_linker_2, # of connection points: 2
#     Edge 93, Type (0, 0), BuildingBlock: XUDNAN_clean_linker_2, # of connection points: 2
#     Edge 94, Type (0, 0), BuildingBlock: XUDNAN_clean_linker_2, # of connection points: 2
#     Edge 95, Type (0, 0), BuildingBlock: XUDNAN_clean_linker_2, # of connection points: 2
#     Edge 96, Type (0, 0), BuildingBlock: XUDNAN_clean_linker_2, # of connection points: 2
#     Edge 97, Type (0, 0), BuildingBlock: XUDNAN_clean_linker_2, # of connection points: 2
#     Edge 98, Type (0, 0), BuildingBlock: XUDNAN_clean_linker_2, # of connection points: 2
#     Edge 99, Type (0, 0), BuildingBlock: XUDNAN_clean_linker_2, # of connection points: 2
#     Edge 100, Type (0, 0), BuildingBlock: XUDNAN_clean_linker_2, # of connection points: 2
#     Edge 101, Type (0, 0), BuildingBlock: XUDNAN_clean_linker_2, # of connection points: 2
#     Edge 102, Type (0, 0), BuildingBlock: XUDNAN_clean_linker_2, # of connection points: 2
#     Edge 103, Type (0, 0), BuildingBlock: XUDNAN_clean_linker_2, # of connection points: 2
#     Edge 104, Type (0, 0), BuildingBlock: XUDNAN_clean_linker_2, # of connection points: 2
#     Edge 105, Type (0, 0), BuildingBlock: XUDNAN_clean_linker_2, # of connection points: 2
#     Edge 106, Type (0, 0), BuildingBlock: XUDNAN_clean_linker_2, # of connection points: 2
#     Edge 107, Type (0, 0), BuildingBlock: XUDNAN_clean_linker_2, # of connection points: 2
# Relax obj value: 0.074
# Max RMSD: 0.099
# Mean RMSD: 0.099
data_MOF--net-ato--node1-GALJAG_clean_sbu_0--edge1-XUDNAN_clean_linker_2
_symmetry_space_group_name_H-M    P1
_symmetry_Int_Tables_number       1
_symmetry_cell_setting            triclinic
loop_
_symmetry_equiv_pos_as_xyz
'x, y, z'
_cell_length_a     107.75517
_cell_length_b     107.74857
_cell_length_c     21.340837
_cell_angle_alpha  90.013565
_cell_angle_beta   89.987601
_cell_angle_gamma 119.97563
loop_
_atom_site_label
_atom_site_type_symbol
_atom_site_fract_x
_atom_site_fract_y
_atom_site_fract_z
_atom_type_partial_charge
In0 In 0.25903 0.05867 0.24584 0.0
O1 O 0.26574 0.0476 0.31852 0.0
O2 O 0.24441 0.04378 0.32305 0.0
C3 C 0.28606 0.07157 0.19871 0.0
C4 C 0.24055 0.03899 0.16359 0.0
C5 C 0.25543 0.08134 0.27196 0.0
O6 O 0.27502 0.06465 0.16557 0.0
O7 O 0.28356 0.07193 0.25622 0.0
O8 O 0.25593 0.07739 0.2169 0.0
O9 O 0.25649 0.07372 0.31407 0.0
C10 C 0.25369 0.04111 0.34532 0.0
O11 O 0.25063 0.03813 0.18928 0.0
O12 O 0.23971 0.04985 0.17922 0.0
In13 In 0.94557 0.20172 0.26424 0.0
O14 O 0.95606 0.21405 0.35512 0.0
O15 O 0.95459 0.19385 0.34052 0.0
C16 C 0.93368 0.21676 0.21771 0.0
C17 C 0.96915 0.21159 0.1918 0.0
C18 C 0.92375 0.17425 0.26559 0.0
O19 O 0.93451 0.21526 0.2761 0.0
O20 O 0.93872 0.2107 0.18425 0.0
O21 O 0.93543 0.17815 0.2373 0.0
O22 O 0.92303 0.18423 0.29333 0.0
C23 C 0.95914 0.20483 0.37465 0.0
O24 O 0.95753 0.20046 0.17755 0.0
O25 O 0.96877 0.21764 0.2417 0.0
In26 In 0.80687 0.7525 0.22954 0.0
O27 O 0.80316 0.75936 0.1332 0.0
O28 O 0.80515 0.77244 0.21136 0.0
C29 C 0.83505 0.7602 0.23771 0.0
C30 C 0.79286 0.75458 0.33086 0.0
C31 C 0.79327 0.72522 0.18569 0.0
O32 O 0.83044 0.7662 0.20151 0.0
O33 O 0.82551 0.75046 0.27101 0.0
O34 O 0.79705 0.72818 0.24224 0.0
O35 O 0.79629 0.73594 0.15181 0.0
C36 C 0.80305 0.77033 0.15325 0.0
O37 O 0.78665 0.74564 0.28741 0.0
O38 O 0.80628 0.7621 0.3247 0.0
In39 In 0.05947 0.25619 0.76198 0.0
O40 O 0.05704 0.25413 0.86855 0.0
O41 O 0.03807 0.24524 0.81375 0.0
C42 C 0.08002 0.24858 0.7576 0.0
C43 C 0.03974 0.24309 0.67026 0.0
C44 C 0.07298 0.28521 0.76272 0.0
O45 O 0.06893 0.24218 0.79093 0.0
O46 O 0.08065 0.25865 0.72513 0.0
O47 O 0.07095 0.27808 0.71303 0.0
O48 O 0.06798 0.27771 0.81138 0.0
C49 C 0.04352 0.24746 0.8677 0.0
O50 O 0.04314 0.25538 0.69068 0.0
O51 O 0.04667 0.23769 0.69435 0.0
In52 In 0.74836 0.80614 0.73803 0.0
O53 O 0.74161 0.7886 0.6645 0.0
O54 O 0.76334 0.80534 0.66372 0.0
C55 C 0.72106 0.78851 0.77717 0.0
C56 C 0.7654 0.80701 0.83289 0.0
C57 C 0.75314 0.83281 0.7097 0.0
O58 O 0.73145 0.7869 0.7924 0.0
O59 O 0.72435 0.79907 0.74174 0.0
O60 O 0.75576 0.82952 0.76273 0.0
O61 O 0.74844 0.82276 0.67024 0.0
C62 C 0.75388 0.79363 0.64025 0.0
O63 O 0.76599 0.80271 0.77864 0.0
O64 O 0.75652 0.81132 0.83899 0.0
In65 In 0.199 0.94649 0.7597 0.0
O66 O 0.21911 0.95994 0.7007 0.0
O67 O 0.20073 0.96144 0.67915 0.0
C68 C 0.21571 0.93576 0.79794 0.0
C69 C 0.1977 0.96352 0.8497 0.0
C70 C 0.17289 0.92323 0.73529 0.0
O71 O 0.20779 0.93099 0.75009 0.0
O72 O 0.2153 0.94593 0.8251 0.0
O73 O 0.17658 0.92847 0.78944 0.0
O74 O 0.1822 0.92984 0.69373 0.0
C75 C 0.21369 0.96561 0.6671 0.0
O76 O 0.20086 0.95395 0.86063 0.0
O77 O 0.1944 0.96408 0.79345 0.0
In78 In 0.74962 0.94601 0.75631 0.0
O79 O 0.77052 0.95958 0.81112 0.0
O80 O 0.75218 0.96097 0.83632 0.0
C81 C 0.75394 0.92417 0.72201 0.0
C82 C 0.75524 0.96555 0.66468 0.0
C83 C 0.72274 0.93047 0.80229 0.0
O84 O 0.75756 0.93016 0.77488 0.0
O85 O 0.7485 0.92942 0.68589 0.0
O86 O 0.72517 0.93496 0.74642 0.0
O87 O 0.7338 0.93366 0.83412 0.0
C88 C 0.76521 0.96517 0.84628 0.0
O89 O 0.74338 0.95908 0.69296 0.0
O90 O 0.76415 0.96182 0.68105 0.0
In91 In 0.06142 0.80285 0.73856 0.0
O92 O 0.04895 0.79248 0.64895 0.0
O93 O 0.048 0.81036 0.68568 0.0
C94 C 0.07421 0.78682 0.75227 0.0
C95 C 0.03986 0.79226 0.82277 0.0
C96 C 0.08418 0.82962 0.72438 0.0
O97 O 0.0694 0.78828 0.70062 0.0
O98 O 0.07265 0.79351 0.7973 0.0
O99 O 0.07776 0.82529 0.77628 0.0
O100 O 0.07908 0.82053 0.68079 0.0
C101 C 0.0438 0.80072 0.64423 0.0
O102 O 0.05065 0.80466 0.829 0.0
O103 O 0.04041 0.7853 0.7765 0.0
In104 In 0.19758 0.25203 0.75801 0.0
O105 O 0.2134 0.25397 0.6806 0.0
O106 O 0.19151 0.23843 0.66938 0.0
C107 C 0.21019 0.27922 0.80135 0.0
C108 C 0.20494 0.23722 0.83747 0.0
C109 C 0.17022 0.24667 0.75874 0.0
O110 O 0.21065 0.27649 0.74401 0.0
O111 O 0.20345 0.26833 0.83569 0.0
O112 O 0.17463 0.24031 0.7942 0.0
O113 O 0.1796 0.25572 0.72216 0.0
C114 C 0.20405 0.24384 0.64804 0.0
O115 O 0.19259 0.23195 0.814 0.0
O116 O 0.21353 0.24994 0.82115 0.0
In117 In 0.94686 0.7532 0.2414 0.0
O118 O 0.95028 0.75476 0.13542 0.0
O119 O 0.96875 0.76503 0.19313 0.0
C120 C 0.92628 0.76075 0.24294 0.0
C121 C 0.96536 0.76537 0.33784 0.0
C122 C 0.93286 0.72415 0.24015 0.0
O123 O 0.93762 0.76742 0.21123 0.0
O124 O 0.92546 0.7505 0.27455 0.0
O125 O 0.93484 0.73127 0.28979 0.0
O126 O 0.93828 0.73166 0.19187 0.0
C127 C 0.96377 0.762 0.13833 0.0
O128 O 0.96294 0.75374 0.31289 0.0
O129 O 0.9582 0.77066 0.31515 0.0
In130 In 0.25903 0.19904 0.25644 0.0
O131 O 0.25769 0.21409 0.32929 0.0
O132 O 0.23889 0.19429 0.31039 0.0
C133 C 0.28794 0.21501 0.24939 0.0
C134 C 0.24646 0.20264 0.15396 0.0
C135 C 0.25622 0.17294 0.27836 0.0
O136 O 0.28119 0.21245 0.30048 0.0
O137 O 0.28011 0.20966 0.20178 0.0
O138 O 0.25711 0.17789 0.22398 0.0
O139 O 0.25665 0.1811 0.32174 0.0
C140 C 0.24452 0.20595 0.34019 0.0
O141 O 0.24262 0.19049 0.1773 0.0
O142 O 0.2569 0.21296 0.18138 0.0
In143 In 0.80621 0.06056 0.25353 0.0
O144 O 0.81404 0.05098 0.17821 0.0
O145 O 0.79174 0.04026 0.19799 0.0
C146 C 0.83366 0.08201 0.27131 0.0
C147 C 0.79457 0.0442 0.35781 0.0
C148 C 0.79355 0.07425 0.20037 0.0
O149 O 0.83046 0.07 0.24846 0.0
O150 O 0.82301 0.08314 0.28747 0.0
O151 O 0.79526 0.07413 0.25881 0.0
O152 O 0.79848 0.06777 0.16893 0.0
C153 C 0.80177 0.04054 0.16627 0.0
O154 O 0.78872 0.04996 0.32787 0.0
O155 O 0.80668 0.04716 0.33701 0.0
In156 In 0.92279 0.39743 0.57831 0.0
O157 O 0.9062 0.38694 0.50096 0.0
O158 O 0.91933 0.37792 0.52161 0.0
C159 C 0.91778 0.41959 0.5921 0.0
C160 C 0.9115 0.37984 0.67902 0.0
C161 C 0.95004 0.41128 0.53489 0.0
O162 O 0.91102 0.40937 0.55444 0.0
O163 O 0.92719 0.41871 0.62401 0.0
O164 O 0.94724 0.40789 0.59202 0.0
O165 O 0.93922 0.40779 0.50098 0.0
C166 C 0.90928 0.37733 0.48897 0.0
O167 O 0.9242 0.38428 0.66111 0.0
O168 O 0.90503 0.38489 0.64858 0.0
In169 In 0.61495 0.53319 0.5992 0.0
O170 O 0.62977 0.53277 0.52279 0.0
O171 O 0.63535 0.55271 0.56563 0.0
C172 C 0.5952 0.50482 0.60518 0.0
C173 C 0.62882 0.54063 0.71065 0.0
C174 C 0.59946 0.54415 0.54791 0.0
O175 O 0.6061 0.50978 0.57028 0.0
O176 O 0.59452 0.51408 0.63883 0.0
O177 O 0.60261 0.54543 0.6054 0.0
O178 O 0.60409 0.53738 0.51674 0.0
C179 C 0.63859 0.54605 0.52633 0.0
O180 O 0.62009 0.54456 0.69378 0.0
O181 O 0.63001 0.53229 0.67273 0.0
In182 In 0.47518 0.0824 0.58117 0.0
O183 O 0.45966 0.0752 0.66392 0.0
O184 O 0.47447 0.09746 0.65522 0.0
C185 C 0.46027 0.05529 0.53568 0.0
C186 C 0.47108 0.09947 0.50101 0.0
C187 C 0.50215 0.08668 0.59675 0.0
O188 O 0.4635 0.05785 0.59293 0.0
O189 O 0.46469 0.06631 0.50206 0.0
O190 O 0.49653 0.0854 0.54365 0.0
O191 O 0.49431 0.08605 0.64184 0.0
C192 C 0.46413 0.08765 0.6853 0.0
O193 O 0.48345 0.10237 0.51861 0.0
O194 O 0.46099 0.08811 0.52392 0.0
In195 In 0.72925 0.59273 0.10059 0.0
O196 O 0.7117 0.57568 0.1631 0.0
O197 O 0.72548 0.59614 0.20262 0.0
C198 C 0.74906 0.58417 0.08749 0.0
C199 C 0.70704 0.5836 0.01885 0.0
C200 C 0.74421 0.62174 0.09836 0.0
O201 O 0.73884 0.57855 0.12594 0.0
O202 O 0.74909 0.59383 0.05415 0.0
O203 O 0.73812 0.6143 0.05036 0.0
O204 O 0.74293 0.61455 0.14704 0.0
C205 C 0.71483 0.58378 0.21025 0.0
O206 O 0.70979 0.59287 0.06063 0.0
O207 O 0.71579 0.57903 0.01654 0.0
In208 In 0.41774 0.13909 0.08787 0.0
O209 O 0.41508 0.11872 0.04305 0.0
O210 O 0.43149 0.13845 0.00652 0.0
C211 C 0.38876 0.12503 0.09472 0.0
C212 C 0.4331 0.13759 0.18506 0.0
C213 C 0.42256 0.16605 0.06745 0.0
O214 O 0.39549 0.12768 0.04354 0.0
O215 O 0.39665 0.1296 0.14266 0.0
O216 O 0.42105 0.16078 0.12155 0.0
O217 O 0.42194 0.15787 0.0238 0.0
C218 C 0.42515 0.12494 0.00418 0.0
O219 O 0.43877 0.14668 0.14163 0.0
O220 O 0.41972 0.12965 0.18035 0.0
In221 In 0.86854 0.28206 0.07984 0.0
O222 O 0.86232 0.29597 0.13673 0.0
O223 O 0.88149 0.29629 0.16247 0.0
C224 C 0.84153 0.25918 0.07919 0.0
C225 C 0.87495 0.2999 0.9798 0.0
C226 C 0.88418 0.26897 0.09469 0.0
O227 O 0.84565 0.2694 0.1174 0.0
O228 O 0.85104 0.26034 0.04127 0.0
O229 O 0.88291 0.27383 0.04265 0.0
O230 O 0.87757 0.27076 0.13952 0.0
C231 C 0.87305 0.301 0.17247 0.0
O232 O 0.88445 0.30035 0.01573 0.0
O233 O 0.86243 0.29012 0.99264 0.0
In234 In 0.41758 0.2793 0.09707 0.0
O235 O 0.4107 0.28913 0.01932 0.0
O236 O 0.43281 0.29564 0.02517 0.0
C237 C 0.39057 0.26557 0.14409 0.0
C238 C 0.43385 0.29984 0.18099 0.0
C239 C 0.42231 0.25719 0.0724 0.0
O240 O 0.39302 0.26697 0.08593 0.0
O241 O 0.40164 0.27094 0.17778 0.0
O242 O 0.42249 0.26171 0.12701 0.0
O243 O 0.42003 0.26396 0.0301 0.0
C244 C 0.42317 0.297 0.99781 0.0
O245 O 0.43735 0.29101 0.16041 0.0
O246 O 0.42228 0.29827 0.15912 0.0
In247 In 0.72915 0.14008 0.06023 0.0
O248 O 0.72659 0.13693 0.95353 0.0
O249 O 0.70855 0.13385 0.00527 0.0
C250 C 0.7405 0.12296 0.07983 0.0
C251 C 0.7109 0.1344 0.15726 0.0
C252 C 0.75071 0.16786 0.05574 0.0
O253 O 0.73449 0.12309 0.02935 0.0
O254 O 0.74055 0.13128 0.12164 0.0
O255 O 0.7377 0.16435 0.05993 0.0
O256 O 0.75286 0.15742 0.0525 0.0
C257 C 0.71357 0.13348 0.95255 0.0
O258 O 0.72058 0.14693 0.14323 0.0
O259 O 0.71074 0.12467 0.12372 0.0
In260 In 0.869 0.59495 0.09425 0.0
O261 O 0.86897 0.57949 0.16951 0.0
O262 O 0.88812 0.59917 0.1528 0.0
C263 C 0.84053 0.58528 0.08166 0.0
C264 C 0.88008 0.58869 0.99272 0.0
C265 C 0.87766 0.6217 0.13633 0.0
O266 O 0.84548 0.57987 0.11963 0.0
O267 O 0.84988 0.59522 0.04822 0.0
O268 O 0.87966 0.61922 0.08039 0.0
O269 O 0.87087 0.61066 0.16994 0.0
C270 C 0.88197 0.58771 0.18375 0.0
O271 O 0.88394 0.60129 0.00991 0.0
O272 O 0.86992 0.5791 0.02432 0.0
In273 In 0.61487 0.08077 0.55642 0.0
O274 O 0.63522 0.08159 0.59193 0.0
O275 O 0.62758 0.09331 0.64319 0.0
C276 C 0.60041 0.05174 0.55223 0.0
C277 C 0.63159 0.09611 0.45911 0.0
C278 C 0.59302 0.08592 0.57902 0.0
O279 O 0.60553 0.05871 0.60218 0.0
O280 O 0.60255 0.05939 0.50431 0.0
O281 O 0.5965 0.08438 0.5243 0.0
O282 O 0.60071 0.08515 0.62166 0.0
C283 C 0.63716 0.08991 0.6371 0.0
O284 O 0.62594 0.08269 0.46305 0.0
O285 O 0.62815 0.10177 0.50259 0.0
In286 In 0.93006 0.54044 0.59665 0.0
O287 O 0.91436 0.53953 0.52081 0.0
O288 O 0.93233 0.55967 0.54436 0.0
C289 C 0.92104 0.51215 0.60858 0.0
C290 C 0.92343 0.55039 0.70089 0.0
C291 C 0.95651 0.54959 0.54937 0.0
O292 O 0.91481 0.51689 0.5741 0.0
O293 O 0.93156 0.52165 0.63891 0.0
O294 O 0.95451 0.55132 0.60635 0.0
O295 O 0.94521 0.54296 0.51731 0.0
C296 C 0.92129 0.55289 0.51108 0.0
O297 O 0.93609 0.55525 0.68157 0.0
O298 O 0.91413 0.53987 0.66998 0.0
In299 In 0.4753 0.39416 0.59271 0.0
O300 O 0.45517 0.3778 0.64357 0.0
O301 O 0.47494 0.38138 0.68045 0.0
C302 C 0.46291 0.41056 0.57956 0.0
C303 C 0.47142 0.37513 0.50175 0.0
C304 C 0.50345 0.41472 0.59566 0.0
O305 O 0.46679 0.40817 0.63178 0.0
O306 O 0.4654 0.4048 0.53341 0.0
O307 O 0.49748 0.40697 0.54855 0.0
O308 O 0.4953 0.41207 0.64229 0.0
C309 C 0.46144 0.37448 0.68437 0.0
O310 O 0.48008 0.37792 0.54651 0.0
O311 O 0.46485 0.3821 0.50232 0.0
In312 In 0.5905 0.72333 0.91227 0.0
O313 O 0.57111 0.7117 0.84671 0.0
O314 O 0.5882 0.70745 0.83628 0.0
C315 C 0.58602 0.74568 0.93237 0.0
C316 C 0.58277 0.70681 0.01622 0.0
C317 C 0.6189 0.73479 0.88905 0.0
O318 O 0.58838 0.74241 0.87873 0.0
O319 O 0.58572 0.73759 0.97572 0.0
O320 O 0.6118 0.72391 0.92288 0.0
O321 O 0.61168 0.74 0.86627 0.0
C322 C 0.57599 0.70479 0.81819 0.0
O323 O 0.59487 0.71793 0.00975 0.0
O324 O 0.57425 0.70427 0.97109 0.0
In325 In 0.28097 0.86925 0.90818 0.0
O326 O 0.30194 0.88806 0.94191 0.0
O327 O 0.2932 0.86904 0.99635 0.0
C328 C 0.26779 0.88499 0.89904 0.0
C329 C 0.29722 0.87005 0.81041 0.0
C330 C 0.25851 0.84289 0.93422 0.0
O331 O 0.27474 0.88512 0.94676 0.0
O332 O 0.26737 0.87684 0.85568 0.0
O333 O 0.26394 0.84636 0.8802 0.0
O334 O 0.26461 0.85256 0.97502 0.0
C335 C 0.30335 0.88171 0.98857 0.0
O336 O 0.2943 0.86147 0.85568 0.0
O337 O 0.29125 0.87756 0.81283 0.0
In338 In 0.14059 0.4147 0.91309 0.0
O339 O 0.12396 0.40725 0.99132 0.0
O340 O 0.13932 0.42945 0.98719 0.0
C341 C 0.12753 0.38782 0.86505 0.0
C342 C 0.13573 0.43099 0.83145 0.0
C343 C 0.16744 0.41933 0.93629 0.0
O344 O 0.12753 0.39021 0.92297 0.0
O345 O 0.1342 0.39892 0.83192 0.0
O346 O 0.16307 0.4198 0.8821 0.0
O347 O 0.15841 0.41684 0.97901 0.0
C348 C 0.12843 0.41958 0.0142 0.0
O349 O 0.14799 0.4351 0.85441 0.0
O350 O 0.12612 0.4188 0.84964 0.0
In351 In 0.39494 0.92412 0.414 0.0
O352 O 0.38636 0.90834 0.4958 0.0
O353 O 0.37675 0.92107 0.4787 0.0
C354 C 0.41648 0.91792 0.40905 0.0
C355 C 0.3792 0.91525 0.30703 0.0
C356 C 0.40622 0.95271 0.42969 0.0
O357 O 0.40349 0.90852 0.40245 0.0
O358 O 0.41861 0.93039 0.41754 0.0
O359 O 0.40069 0.9463 0.37898 0.0
O360 O 0.40586 0.94465 0.4735 0.0
C361 C 0.37681 0.91129 0.51097 0.0
O362 O 0.39236 0.92443 0.30732 0.0
O363 O 0.37408 0.91029 0.3602 0.0
In364 In 0.08138 0.47004 0.41824 0.0
O365 O 0.1019 0.47798 0.47624 0.0
O366 O 0.08335 0.45892 0.5054 0.0
C367 C 0.08747 0.49741 0.39949 0.0
C368 C 0.08813 0.45597 0.33112 0.0
C369 C 0.05255 0.45779 0.42778 0.0
O370 O 0.08482 0.49166 0.45299 0.0
O371 O 0.08728 0.48944 0.35569 0.0
O372 O 0.05908 0.46114 0.37597 0.0
O373 O 0.06056 0.4606 0.47505 0.0
C374 C 0.09642 0.46774 0.51475 0.0
O375 O 0.07739 0.44979 0.36669 0.0
O376 O 0.09541 0.46936 0.33844 0.0
In377 In 0.53336 0.60859 0.41529 0.0
O378 O 0.52793 0.62422 0.46306 0.0
O379 O 0.54419 0.62111 0.50403 0.0
C380 C 0.50534 0.58792 0.41272 0.0
C381 C 0.54681 0.62874 0.32548 0.0
C382 C 0.54604 0.59248 0.42815 0.0
O383 O 0.51132 0.59567 0.45985 0.0
O384 O 0.51343 0.59062 0.3658 0.0
O385 O 0.5425 0.59516 0.3757 0.0
O386 O 0.54308 0.59783 0.47442 0.0
C387 C 0.53715 0.62761 0.50593 0.0
O388 O 0.55325 0.62609 0.36795 0.0
O389 O 0.53335 0.62077 0.32614 0.0
In390 In 0.08732 0.61312 0.42156 0.0
O391 O 0.08814 0.6285 0.34546 0.0
O392 O 0.10718 0.62784 0.36449 0.0
C393 C 0.05832 0.60006 0.43028 0.0
C394 C 0.10027 0.63018 0.52139 0.0
C395 C 0.09143 0.59052 0.40177 0.0
O396 O 0.06476 0.60172 0.37901 0.0
O397 O 0.06647 0.60526 0.47692 0.0
O398 O 0.08948 0.59407 0.45559 0.0
O399 O 0.09157 0.59849 0.35821 0.0
C400 C 0.10126 0.63343 0.33334 0.0
O401 O 0.09991 0.61839 0.51355 0.0
O402 O 0.09393 0.63321 0.47966 0.0
In403 In 0.39318 0.46958 0.41556 0.0
O404 O 0.38299 0.45203 0.34125 0.0
O405 O 0.38056 0.47021 0.32981 0.0
C406 C 0.40902 0.45881 0.4649 0.0
C407 C 0.37092 0.4629 0.4936 0.0
C408 C 0.4139 0.49758 0.40934 0.0
O409 O 0.40712 0.45903 0.40662 0.0
O410 O 0.40299 0.46399 0.49778 0.0
O411 O 0.40438 0.4925 0.45106 0.0
O412 O 0.41292 0.48857 0.36893 0.0
C413 C 0.37761 0.45804 0.30964 0.0
O414 O 0.37767 0.4748 0.46597 0.0
O415 O 0.37538 0.45431 0.48184 0.0
In416 In 0.53411 0.92133 0.41501 0.0
O417 O 0.55057 0.92163 0.3451 0.0
O418 O 0.52885 0.91132 0.3173 0.0
C419 C 0.5479 0.94857 0.45759 0.0
C420 C 0.53991 0.90561 0.49622 0.0
C421 C 0.50685 0.91631 0.41609 0.0
O422 O 0.54803 0.94565 0.40022 0.0
O423 O 0.5408 0.93783 0.49244 0.0
O424 O 0.51038 0.90788 0.44081 0.0
O425 O 0.51703 0.92725 0.39086 0.0
C426 C 0.54144 0.91438 0.30383 0.0
O427 O 0.54815 0.91883 0.48778 0.0
O428 O 0.52856 0.90023 0.46414 0.0
In429 In 0.27863 0.41082 0.91303 0.0
O430 O 0.2941 0.40646 0.96862 0.0
O431 O 0.29479 0.42614 0.98624 0.0
C432 C 0.26212 0.38201 0.90416 0.0
C433 C 0.29544 0.42465 0.81342 0.0
C434 C 0.25739 0.41689 0.93467 0.0
O435 O 0.26535 0.38859 0.95582 0.0
O436 O 0.26714 0.38996 0.85662 0.0
O437 O 0.26045 0.41452 0.88055 0.0
O438 O 0.26523 0.4165 0.97769 0.0
C439 C 0.2999 0.41812 0.99834 0.0
O440 O 0.29021 0.43032 0.84836 0.0
O441 O 0.29194 0.41198 0.82796 0.0
In442 In 0.59122 0.86406 0.91354 0.0
O443 O 0.57583 0.85606 0.83035 0.0
O444 O 0.58919 0.87856 0.84176 0.0
C445 C 0.58669 0.83722 0.9333 0.0
C446 C 0.5777 0.87228 0.9967 0.0
C447 C 0.6202 0.87923 0.90818 0.0
O448 O 0.58978 0.84316 0.88026 0.0
O449 O 0.58572 0.84473 0.97625 0.0
O450 O 0.6134 0.87498 0.95911 0.0
O451 O 0.6124 0.87599 0.86008 0.0
C452 C 0.5794 0.86845 0.8106 0.0
O453 O 0.59117 0.87885 0.99122 0.0
O454 O 0.57122 0.8614 0.96208 0.0
In455 In 0.1426 0.72671 0.91791 0.0
O456 O 0.1289 0.71363 0.00127 0.0
O457 O 0.15017 0.71723 0.99362 0.0
C458 C 0.12525 0.73608 0.87157 0.0
C459 C 0.13827 0.70515 0.84022 0.0
C460 C 0.16795 0.75106 0.93781 0.0
O461 O 0.12669 0.73505 0.92972 0.0
O462 O 0.13233 0.73226 0.83789 0.0
O463 O 0.16618 0.74262 0.89321 0.0
O464 O 0.15704 0.74719 0.97171 0.0
C465 C 0.13848 0.71136 0.02352 0.0
O466 O 0.14785 0.71796 0.82944 0.0
O467 O 0.13103 0.70333 0.88913 0.0
H468 H 0.20448 0.97997 0.59081 0.0
H469 H 0.24185 0.97646 0.63659 0.0
H470 H 0.25621 0.99564 0.56063 0.0
H471 H 0.21187 0.98649 0.42497 0.0
H472 H 0.20546 0.99904 0.42017 0.0
H473 H 0.19811 0.98495 0.4778 0.0
H474 H 0.20466 0.00382 0.56565 0.0
H475 H 0.2121 0.01798 0.50831 0.0
H476 H 0.22291 0.0182 0.57323 0.0
H477 H 0.2666 0.01538 0.48062 0.0
H478 H 0.2721 0.03378 0.39956 0.0
H479 H 0.22802 0.02453 0.40551 0.0
C480 C 0.21567 0.9832 0.58462 0.0
C481 C 0.22205 0.97671 0.61958 0.0
C482 C 0.23673 0.98126 0.61025 0.0
C483 C 0.24498 0.99217 0.5673 0.0
C484 C 0.2384 0.99842 0.53395 0.0
C485 C 0.22407 0.99408 0.54185 0.0
C486 C 0.21962 1.00255 0.5 0.0
C487 C 0.20809 0.99267 0.45294 0.0
C488 C 0.21453 0.01115 0.53915 0.0
C489 C 0.2337 0.01236 0.46743 0.0
C490 C 0.2444 0.00981 0.48779 0.0
C491 C 0.2583 0.01747 0.46431 0.0
C492 C 0.26133 0.02792 0.41837 0.0
C493 C 0.25051 0.03062 0.39633 0.0
C494 C 0.23654 0.02276 0.42161 0.0
H495 H 0.02383 0.25271 0.60748 0.0
H496 H 0.02817 0.21514 0.63509 0.0
H497 H 0.00694 0.20098 0.56862 0.0
H498 H 0.98522 0.23452 0.60835 0.0
H499 H 0.984 0.24546 0.54746 0.0
H500 H 0.99946 0.25276 0.59797 0.0
H501 H 0.01615 0.25931 0.50134 0.0
H502 H 1.00076 0.25222 0.45057 0.0
H503 H 0.01314 0.24561 0.44502 0.0
H504 H 0.98527 0.19082 0.5003 0.0
H505 H 0.96587 0.18579 0.42558 0.0
H506 H 0.97555 0.22993 0.4399 0.0
C507 C 0.02033 0.24152 0.59929 0.0
C508 C 0.02765 0.23502 0.62653 0.0
C509 C 0.02277 0.22036 0.6146 0.0
C510 C 0.01066 0.2122 0.57721 0.0
C511 C 1.00357 0.21886 0.55183 0.0
C512 C 0.0083 0.23322 0.56165 0.0
C513 C 0.99897 0.23783 0.52696 0.0
C514 C 0.99147 0.24294 0.57295 0.0
C515 C 0.00778 0.24943 0.47807 0.0
C516 C 0.98831 0.22382 0.49596 0.0
C517 C 0.9911 0.21301 0.51155 0.0
C518 C 0.98296 0.19919 0.4878 0.0
C519 C 0.97192 0.19643 0.44555 0.0
C520 C 0.96914 0.20744 0.42714 0.0
C521 C 0.97729 0.22125 0.45374 0.0
H522 H 0.80303 0.77718 0.41308 0.0
H523 H 0.76443 0.7382 0.35863 0.0
H524 H 0.75034 0.74389 0.43262 0.0
H525 H 0.79381 0.77654 0.57908 0.0
H526 H 0.80151 0.79571 0.58301 0.0
H527 H 0.80868 0.788 0.52918 0.0
H528 H 0.80476 0.80143 0.43749 0.0
H529 H 0.79742 0.80903 0.49088 0.0
H530 H 0.78714 0.79893 0.42392 0.0
H531 H 0.74025 0.75438 0.50812 0.0
H532 H 0.73495 0.76844 0.5838 0.0
H533 H 0.78002 0.80086 0.58835 0.0
C534 C 0.79166 0.7697 0.41765 0.0
C535 C 0.78482 0.75719 0.38043 0.0
C536 C 0.76989 0.74781 0.38692 0.0
C537 C 0.7618 0.75096 0.42871 0.0
C538 C 0.76879 0.76356 0.46361 0.0
C539 C 0.7834 0.77274 0.45891 0.0
C540 C 0.78818 0.78582 0.50015 0.0
C541 C 0.79867 0.78655 0.55087 0.0
C542 C 0.79476 0.79962 0.46074 0.0
C543 C 0.77397 0.78261 0.52837 0.0
C544 C 0.76294 0.7697 0.50671 0.0
C545 C 0.74881 0.76448 0.52561 0.0
C546 C 0.7459 0.77257 0.56842 0.0
C547 C 0.75705 0.78577 0.59182 0.0
C548 C 0.77125 0.79085 0.57108 0.0
H549 H 0.78002 0.98102 0.59654 0.0
H550 H 0.73826 0.97654 0.63061 0.0
H551 H 0.74426 0.9968 0.55932 0.0
H552 H 0.79985 0.01952 0.58899 0.0
H553 H 0.81151 0.02024 0.52677 0.0
H554 H 0.80402 0.00535 0.58051 0.0
H555 H 0.79324 0.98762 0.48759 0.0
H556 H 0.80081 1.00244 0.43356 0.0
H557 H 0.78185 0.98978 0.43207 0.0
H558 H 0.75477 0.01761 0.48543 0.0
H559 H 0.76852 0.03669 0.40836 0.0
H560 H 0.8035 0.02774 0.42088 0.0
C561 C 0.77213 0.98427 0.58876 0.0
C562 C 0.75866 0.97719 0.61913 0.0
C563 C 0.74862 0.98177 0.60776 0.0
C564 C 0.75195 0.99331 0.56753 0.0
C565 C 0.76536 1.00015 0.53887 0.0
C566 C 0.77526 0.99576 0.5485 0.0
C567 C 0.78881 0.00484 0.51097 0.0
C568 C 0.80182 0.01297 0.55442 0.0
C569 C 0.79132 0.99562 0.46321 0.0
C570 C 0.78496 0.015 0.47868 0.0
C571 C 0.77141 0.01214 0.49579 0.0
C572 C 0.76539 0.01995 0.47169 0.0
C573 C 0.77331 0.0308 0.42806 0.0
C574 C 0.7871 0.03375 0.40876 0.0
C575 C 0.79304 0.02582 0.4351 0.0
H576 H 0.03036 0.7785 0.56096 0.0
H577 H 0.03192 0.81759 0.6234 0.0
H578 H 0.01199 0.8128 0.5518 0.0
H579 H 0.02185 0.78069 0.39762 0.0
H580 H 0.01004 0.76162 0.39065 0.0
H581 H 0.02485 0.76854 0.44467 0.0
H582 H 0.00731 0.75463 0.53516 0.0
H583 H 0.99243 0.74778 0.48156 0.0
H584 H 0.99244 0.75743 0.55059 0.0
H585 H 0.99138 0.80334 0.47592 0.0
H586 H 0.97209 0.7903 0.3985 0.0
H587 H 0.98376 0.75721 0.38661 0.0
C588 C 0.02663 0.78615 0.55894 0.0
C589 C 0.03273 0.79847 0.59748 0.0
C590 C 0.02744 0.80813 0.59406 0.0
C591 C 0.01611 0.80548 0.55365 0.0
C592 C 0.01017 0.79311 0.51706 0.0
C593 C 0.01529 0.78364 0.51906 0.0
C594 C 0.00682 0.77099 0.4759 0.0
C595 C 0.01647 0.77043 0.42414 0.0
C596 C 0.99931 0.75688 0.51304 0.0
C597 C 0.9961 0.7748 0.44948 0.0
C598 C 0.99822 0.7876 0.47379 0.0
C599 C 0.98963 0.79331 0.45647 0.0
C600 C 0.97868 0.78581 0.41261 0.0
C601 C 0.9764 0.77274 0.38668 0.0
C602 C 0.9852 0.76715 0.4058 0.0
H603 H 0.25442 0.22875 0.42213 0.0
H604 H 0.21551 0.19218 0.35188 0.0
H605 H 0.20105 0.19894 0.41797 0.0
H606 H 0.24213 0.22606 0.58087 0.0
H607 H 0.25094 0.24515 0.59307 0.0
H608 H 0.25827 0.2378 0.53826 0.0
H609 H 0.25744 0.25406 0.4509 0.0
H610 H 0.25 0.26138 0.50538 0.0
H611 H 0.24073 0.25334 0.43331 0.0
H612 H 0.19076 0.2094 0.49136 0.0
H613 H 0.18523 0.22185 0.57416 0.0
H614 H 0.23068 0.25145 0.59997 0.0
C615 C 0.24286 0.2222 0.42064 0.0
C616 C 0.23608 0.20995 0.38173 0.0
C617 C 0.22093 0.20158 0.38139 0.0
C618 C 0.21262 0.20538 0.41852 0.0
C619 C 0.2196 0.21753 0.45608 0.0
C620 C 0.23437 0.22576 0.45798 0.0
C621 C 0.23913 0.23795 0.5046 0.0
C622 C 0.24815 0.23665 0.55732 0.0
C623 C 0.24731 0.25255 0.47155 0.0
C624 C 0.22473 0.23522 0.52876 0.0
C625 C 0.21362 0.22346 0.49955 0.0
C626 C 0.19935 0.21863 0.51451 0.0
C627 C 0.19632 0.22581 0.56153 0.0
C628 C 0.20751 0.23765 0.59341 0.0
C629 C 0.22189 0.24252 0.57605 0.0
H630 H 0.92277 0.36732 0.75676 0.0
H631 H 0.88313 0.36614 0.70674 0.0
H632 H 0.8697 0.34539 0.77605 0.0
H633 H 0.90863 0.32954 0.7654 0.0
H634 H 0.91897 0.33012 0.83287 0.0
H635 H 0.9258 0.3452 0.78028 0.0
H636 H 0.92849 0.36195 0.87271 0.0
H637 H 0.92182 0.34695 0.92571 0.0
H638 H 0.91323 0.35762 0.92174 0.0
H639 H 0.86023 0.32393 0.84442 0.0
H640 H 0.85552 0.3046 0.91897 0.0
H641 H 0.90116 0.31998 0.93108 0.0
C642 C 0.91129 0.36278 0.76107 0.0
C643 C 0.904 0.36837 0.72621 0.0
C644 C 0.88897 0.36211 0.73302 0.0
C645 C 0.88121 0.35025 0.77209 0.0
C646 C 0.88863 0.34483 0.80479 0.0
C647 C 0.90335 0.351 0.80074 0.0
C648 C 0.9086 0.34309 0.84207 0.0
C649 C 0.91593 0.3366 0.80279 0.0
C650 C 0.91863 0.35299 0.89362 0.0
C651 C 0.89453 0.33147 0.86931 0.0
C652 C 0.88315 0.33263 0.84649 0.0
C653 C 0.86905 0.32298 0.86312 0.0
C654 C 0.86648 0.31198 0.90524 0.0
C655 C 0.87796 0.3108 0.93092 0.0
C656 C 0.89217 0.32065 0.91231 0.0
H657 H 0.65202 0.53798 0.74475 0.0
H658 H 0.62694 0.55747 0.80117 0.0
H659 H 0.64395 0.57002 0.88726 0.0
H660 H 0.66259 0.53347 0.9036 0.0
H661 H 0.68031 0.53775 0.87918 0.0
H662 H 0.66557 0.52944 0.8249 0.0
H663 H 0.67957 0.55018 0.74639 0.0
H664 H 0.69429 0.55864 0.80064 0.0
H665 H 0.68597 0.56838 0.77106 0.0
H666 H 0.66436 0.58169 0.96211 0.0
H667 H 0.68632 0.59092 0.0254 0.0
H668 H 0.69851 0.56397 0.9218 0.0
C669 C 0.64996 0.54466 0.77605 0.0
C670 C 0.63808 0.54668 0.76653 0.0
C671 C 0.6359 0.5557 0.80777 0.0
C672 C 0.64553 0.5629 0.85674 0.0
C673 C 0.65729 0.56095 0.86396 0.0
C674 C 0.65951 0.55196 0.82519 0.0
C675 C 0.67332 0.5522 0.84195 0.0
C676 C 0.67026 0.53733 0.86371 0.0
C677 C 0.68391 0.55768 0.78672 0.0
C678 C 0.6786 0.56285 0.89571 0.0
C679 C 0.66915 0.56772 0.9075 0.0
C680 C 0.67178 0.57787 0.95368 0.0
C681 C 0.68433 0.58309 0.98923 0.0
C682 C 0.69414 0.57817 0.97865 0.0
C683 C 0.69121 0.56791 0.93109 0.0
H684 H 0.46993 0.11382 0.73182 0.0
H685 H 0.4425 0.06804 0.75904 0.0
H686 H 0.42987 0.07269 0.84431 0.0
H687 H 0.47273 0.12391 0.89655 0.0
H688 H 0.47228 0.14011 0.88045 0.0
H689 H 0.47957 0.13319 0.82329 0.0
H690 H 0.46189 0.13284 0.74014 0.0
H691 H 0.45448 0.13967 0.79711 0.0
H692 H 0.44293 0.1232 0.7563 0.0
H693 H 0.41968 0.0822 0.92388 0.0
H694 H 0.41287 0.09594 0.99441 0.0
H695 H 0.44676 0.13567 0.91595 0.0
C696 C 0.46137 0.10478 0.75621 0.0
C697 C 0.45723 0.09055 0.73896 0.0
C698 C 0.44588 0.07902 0.77157 0.0
C699 C 0.43864 0.08155 0.82004 0.0
C700 C 0.44285 0.09569 0.83538 0.0
C701 C 0.45398 0.10713 0.80468 0.0
C702 C 0.45615 0.12127 0.82953 0.0
C703 C 0.47107 0.13014 0.85923 0.0
C704 C 0.45371 0.12974 0.77768 0.0
C705 C 0.44443 0.11599 0.87871 0.0
C706 C 0.43692 0.1012 0.88129 0.0
C707 C 0.42552 0.09379 0.92245 0.0
C708 C 0.42171 0.1017 0.96226 0.0
C709 C 0.42927 0.11688 0.96072 0.0
C710 C 0.44078 0.12409 0.91823 0.0
H711 H 0.472 0.36283 0.76995 0.0
H712 H 0.43258 0.35973 0.70201 0.0
H713 H 0.41864 0.33951 0.77367 0.0
H714 H 0.45836 0.32503 0.7852 0.0
H715 H 0.46813 0.32648 0.85595 0.0
H716 H 0.47521 0.34104 0.80055 0.0
H717 H 0.47668 0.35845 0.88781 0.0
H718 H 0.4697 0.34396 0.94356 0.0
H719 H 0.46086 0.35426 0.93257 0.0
H720 H 0.40885 0.31942 0.85086 0.0
H721 H 0.40386 0.30111 0.93158 0.0
H722 H 0.44946 0.31686 0.95007 0.0
C723 C 0.46045 0.35796 0.7706 0.0
C724 C 0.45338 0.36289 0.73044 0.0
C725 C 0.43824 0.35617 0.73236 0.0
C726 C 0.43021 0.34465 0.77286 0.0
C727 C 0.43746 0.33993 0.81127 0.0
C728 C 0.45223 0.34638 0.81081 0.0
C729 C 0.45729 0.33909 0.85672 0.0
C730 C 0.46522 0.33252 0.82255 0.0
C731 C 0.46669 0.34956 0.90822 0.0
C732 C 0.44306 0.32754 0.88285 0.0
C733 C 0.43177 0.32824 0.85587 0.0
C734 C 0.41759 0.31877 0.87239 0.0
C735 C 0.41487 0.30838 0.9182 0.0
C736 C 0.42625 0.30752 0.94701 0.0
C737 C 0.44053 0.3172 0.92867 0.0
H738 H 0.68624 0.12859 0.93602 0.0
H739 H 0.72045 0.12585 0.84144 0.0
H740 H 0.70459 0.11448 0.75036 0.0
H741 H 0.65757 0.09533 0.88502 0.0
H742 H 0.64507 0.10164 0.87421 0.0
H743 H 0.65923 0.11011 0.93107 0.0
H744 H 0.66798 0.13473 0.87798 0.0
H745 H 0.65375 0.12637 0.8213 0.0
H746 H 0.67208 0.13673 0.79543 0.0
H747 H 0.68448 0.1017 0.67351 0.0
H748 H 0.66225 0.09068 0.61075 0.0
H749 H 0.64141 0.10281 0.75245 0.0
C750 C 0.69044 0.12576 0.89579 0.0
C751 C 0.70457 0.12809 0.89571 0.0
C752 C 0.70968 0.12423 0.84231 0.0
C753 C 0.70074 0.11771 0.79051 0.0
C754 C 0.68677 0.1153 0.79255 0.0
C755 C 0.68171 0.11941 0.84333 0.0
C756 C 0.66626 0.1156 0.83357 0.0
C757 C 0.65646 0.10504 0.88396 0.0
C758 C 0.66494 0.12917 0.83196 0.0
C759 C 0.66337 0.10853 0.76973 0.0
C760 C 0.67532 0.10837 0.74718 0.0
C761 C 0.67511 0.10191 0.69035 0.0
C762 C 0.66241 0.0956 0.65522 0.0
C763 C 0.65015 0.09594 0.67667 0.0
C764 C 0.65066 0.10249 0.73473 0.0
H765 H 0.89775 0.54046 0.76328 0.0
H766 H 0.94053 0.57726 0.74651 0.0
H767 H 0.9337 0.59108 0.81645 0.0
H768 H 0.87859 0.55935 0.76603 0.0
H769 H 0.86576 0.54818 0.82445 0.0
H770 H 0.87393 0.54086 0.77411 0.0
H771 H 0.88285 0.53306 0.87094 0.0
H772 H 0.87453 0.54017 0.92159 0.0
H773 H 0.89333 0.54615 0.92981 0.0
H774 H 0.92183 0.60155 0.88045 0.0
H775 H 0.90678 0.60705 0.94886 0.0
H776 H 0.87203 0.56313 0.93177 0.0
C777 C 0.90572 0.55136 0.77511 0.0
C778 C 0.91968 0.5578 0.7494 0.0
C779 C 0.92981 0.57208 0.7659 0.0
C780 C 0.926 0.58005 0.80527 0.0
C781 C 0.91208 0.57353 0.82863 0.0
C782 C 0.90217 0.55942 0.81543 0.0
C783 C 0.88803 0.55495 0.84813 0.0
C784 C 0.87586 0.55058 0.80031 0.0
C785 C 0.88448 0.54287 0.89544 0.0
C786 C 0.89151 0.56882 0.88104 0.0
C787 C 0.9054 0.57943 0.8683 0.0
C788 C 0.911 0.5933 0.89138 0.0
C789 C 0.90231 0.59634 0.92984 0.0
C790 C 0.88824 0.58552 0.94574 0.0
C791 C 0.88275 0.5716 0.92051 0.0
H792 H 0.53616 0.63637 0.22371 0.0
H793 H 0.57491 0.64915 0.33126 0.0
H794 H 0.58785 0.67075 0.26612 0.0
H795 H 0.55404 0.64841 0.07301 0.0
H796 H 0.54217 0.65448 0.04539 0.0
H797 H 0.53581 0.63994 0.1007 0.0
H798 H 0.52818 0.65379 0.17607 0.0
H799 H 0.53464 0.66843 0.12123 0.0
H800 H 0.54124 0.67164 0.2006 0.0
H801 H 0.5965 0.69129 0.19291 0.0
H802 H 0.60103 0.70865 0.10848 0.0
H803 H 0.55715 0.68254 0.04432 0.0
C804 C 0.54738 0.64368 0.23318 0.0
C805 C 0.55452 0.64107 0.28263 0.0
C806 C 0.56922 0.65088 0.29357 0.0
C807 C 0.57667 0.66324 0.25701 0.0
C808 C 0.56932 0.66561 0.20924 0.0
C809 C 0.55507 0.65606 0.19655 0.0
C810 C 0.54989 0.66112 0.14128 0.0
C811 C 0.5452 0.65035 0.08687 0.0
C812 C 0.53777 0.66391 0.161 0.0
C813 C 0.56345 0.675 0.12524 0.0
C814 C 0.57446 0.6774 0.16555 0.0
C815 C 0.58799 0.68952 0.16082 0.0
C816 C 0.59044 0.69934 0.11284 0.0
C817 C 0.57946 0.69695 0.06984 0.0
C818 C 0.56574 0.68466 0.07657 0.0
H819 H 0.35154 0.89333 0.29233 0.0
H820 H 0.38651 0.92876 0.19364 0.0
H821 H 0.37089 0.9238 0.10127 0.0
H822 H 0.3371 0.86975 0.15584 0.0
H823 H 0.31877 0.86251 0.18054 0.0
H824 H 0.33284 0.86859 0.2381 0.0
H825 H 0.32468 0.88552 0.28506 0.0
H826 H 0.31066 0.87959 0.22737 0.0
H827 H 0.32353 0.8984 0.23506 0.0
H828 H 0.35109 0.91618 0.02309 0.0
H829 H 0.32899 0.90501 0.95973 0.0
H830 H 0.30705 0.87367 0.10654 0.0
C831 C 0.35594 0.89994 0.251 0.0
C832 C 0.37023 0.91144 0.25005 0.0
C833 C 0.37562 0.91986 0.19521 0.0
C834 C 0.36682 0.91715 0.14264 0.0
C835 C 0.35272 0.90588 0.14544 0.0
C836 C 0.34736 0.89727 0.19781 0.0
C837 C 0.3318 0.88585 0.18854 0.0
C838 C 0.33003 0.87078 0.19088 0.0
C839 C 0.3221 0.88745 0.23688 0.0
C840 C 0.3292 0.88952 0.12309 0.0
C841 C 0.34139 0.90117 0.09935 0.0
C842 C 0.34152 0.90695 0.04086 0.0
C843 C 0.32889 0.90057 0.00539 0.0
C844 C 0.31634 0.88845 0.02816 0.0
C845 C 0.31653 0.88285 0.08779 0.0
H846 H 0.11092 0.4668 0.24917 0.0
H847 H 0.07422 0.42708 0.31192 0.0
H848 H 0.0809 0.4135 0.23967 0.0
H849 H 0.10891 0.45675 0.08651 0.0
H850 H 0.12806 0.46563 0.0763 0.0
H851 H 0.12044 0.47224 0.13321 0.0
H852 H 0.13611 0.47013 0.2199 0.0
H853 H 0.14374 0.46344 0.16329 0.0
H854 H 0.13523 0.45317 0.23278 0.0
H855 H 0.09151 0.40417 0.16104 0.0
H856 H 0.10495 0.39977 0.07867 0.0
H857 H 0.13481 0.44548 0.06624 0.0
C858 C 0.10428 0.45525 0.24757 0.0
C859 C 0.09204 0.448 0.2862 0.0
C860 C 0.08363 0.43287 0.28275 0.0
C861 C 0.08735 0.42505 0.24194 0.0
C862 C 0.09952 0.4325 0.20477 0.0
C863 C 0.10784 0.44726 0.20695 0.0
C864 C 0.1203 0.45263 0.16152 0.0
C865 C 0.11937 0.46239 0.11141 0.0
C866 C 0.1347 0.4603 0.19648 0.0
C867 C 0.11767 0.43858 0.13346 0.0
C868 C 0.10564 0.42711 0.15924 0.0
C869 C 0.10095 0.41306 0.14054 0.0
C870 C 0.10867 0.41067 0.09378 0.0
C871 C 0.12095 0.42226 0.06615 0.0
C872 C 0.12552 0.43639 0.08671 0.0
H873 H 0.09103 0.64753 0.26107 0.0
H874 H 0.12976 0.64639 0.30568 0.0
H875 H 0.1436 0.66693 0.23513 0.0
H876 H 0.09907 0.65632 0.09775 0.0
H877 H 0.09151 0.66793 0.09546 0.0
H878 H 0.08469 0.65325 0.15015 0.0
H879 H 0.08961 0.67094 0.24165 0.0
H880 H 0.09657 0.68569 0.18725 0.0
H881 H 0.1074 0.686 0.25226 0.0
H882 H 0.15325 0.68743 0.15974 0.0
H883 H 0.1579 0.70586 0.08013 0.0
H884 H 0.11299 0.69385 0.0838 0.0
C885 C 0.10242 0.65159 0.25585 0.0
C886 C 0.10932 0.64536 0.28887 0.0
C887 C 0.12424 0.65097 0.2808 0.0
C888 C 0.1322 0.66267 0.24099 0.0
C889 C 0.12511 0.66864 0.20954 0.0
C890 C 0.11055 0.66326 0.21616 0.0
C891 C 0.10553 0.67152 0.17598 0.0
C892 C 0.09455 0.66167 0.12692 0.0
C893 C 0.09942 0.67898 0.21674 0.0
C894 C 0.11953 0.68232 0.14552 0.0
C895 C 0.1307 0.6805 0.16587 0.0
C896 C 0.14461 0.68899 0.14358 0.0
C897 C 0.14714 0.69945 0.09846 0.0
C898 C 0.13583 0.70135 0.07598 0.0
C899 C 0.12188 0.69276 0.10055 0.0
H900 H 0.36065 0.46651 0.24791 0.0
H901 H 0.37165 0.43289 0.2539 0.0
H902 H 0.35338 0.41942 0.17324 0.0
H903 H 0.32319 0.44359 0.23275 0.0
H904 H 0.32048 0.45509 0.18001 0.0
H905 H 0.33513 0.4627 0.23486 0.0
H906 H 0.35308 0.47503 0.14384 0.0
H907 H 0.33846 0.46755 0.08869 0.0
H908 H 0.35327 0.46439 0.07903 0.0
H909 H 0.33316 0.40897 0.0967 0.0
H910 H 0.31272 0.40249 0.02605 0.0
H911 H 0.31449 0.44273 0.06914 0.0
C912 C 0.35938 0.45643 0.23141 0.0
C913 C 0.36764 0.45078 0.25691 0.0
C914 C 0.3655 0.43745 0.23485 0.0
C915 C 0.35513 0.42971 0.18909 0.0
C916 C 0.34698 0.43544 0.16579 0.0
C917 C 0.34902 0.44852 0.18582 0.0
C918 C 0.33844 0.45197 0.15462 0.0
C919 C 0.32874 0.45342 0.20348 0.0
C920 C 0.34628 0.46554 0.11413 0.0
C921 C 0.33006 0.43871 0.11444 0.0
C922 C 0.33521 0.42935 0.1216 0.0
C923 C 0.32908 0.41625 0.09041 0.0
C924 C 0.31744 0.41265 0.0505 0.0
C925 C 0.312 0.4221 0.04203 0.0
C926 C 0.31842 0.4353 0.07459 0.0
H927 H 0.56752 0.91767 0.26881 0.0
H928 H 0.52277 0.89717 0.21412 0.0
H929 H 0.52741 0.88461 0.12869 0.0
H930 H 0.58208 0.92214 0.10863 0.0
H931 H 0.59599 0.91849 0.13241 0.0
H932 H 0.58937 0.92663 0.18676 0.0
H933 H 0.58359 0.9063 0.2664 0.0
H934 H 0.59003 0.89801 0.21207 0.0
H935 H 0.57212 0.88792 0.24311 0.0
H936 H 0.53625 0.87266 0.05572 0.0
H937 H 0.54931 0.86369 0.99265 0.0
H938 H 0.58861 0.8924 0.09119 0.0
C939 C 0.55877 0.91075 0.23806 0.0
C940 C 0.54478 0.90843 0.24802 0.0
C941 C 0.53358 0.89917 0.20724 0.0
C942 C 0.5361 0.89195 0.15867 0.0
C943 C 0.5499 0.89418 0.1511 0.0
C944 C 0.56111 0.9035 0.18899 0.0
C945 C 0.57486 0.90369 0.17144 0.0
C946 C 0.58625 0.91863 0.14843 0.0
C947 C 0.58047 0.89868 0.22654 0.0
C948 C 0.56955 0.89286 0.11845 0.0
C949 C 0.5551 0.88748 0.10778 0.0
C950 C 0.5476 0.87691 0.0631 0.0
C951 C 0.5551 0.87182 0.02777 0.0
C952 C 0.56997 0.87737 0.0369 0.0
C953 C 0.57727 0.88803 0.08292 0.0
H954 H 0.21107 0.96797 0.96224 0.0
H955 H 0.18985 0.98415 0.84231 0.0
H956 H 0.19654 0.00431 0.91597 0.0
H957 H 0.20318 0.97901 0.11456 0.0
H958 H 0.22059 0.98382 0.14529 0.0
H959 H 0.21217 0.96963 0.08841 0.0
H960 H 0.23454 0.98266 0.01703 0.0
H961 H 0.24297 0.99692 0.07327 0.0
H962 H 0.24069 1.00089 0.99347 0.0
H963 H 0.20747 0.02385 0.99901 0.0
H964 H 0.22225 0.04128 0.08112 0.0
H965 H 0.23717 0.01257 0.14187 0.0
C966 C 0.20745 0.97551 0.95232 0.0
C967 C 0.19977 0.97441 0.89705 0.0
C968 C 0.1956 0.98472 0.88482 0.0
C969 C 0.19935 0.99619 0.92639 0.0
C970 C 0.2073 0.99718 0.97971 0.0
C971 C 0.21127 0.98707 0.99268 0.0
C972 C 0.22095 0.99121 0.0494 0.0
C973 C 0.21379 0.98027 0.10256 0.0
C974 C 0.23565 0.99303 0.03223 0.0
C975 C 0.22211 0.00541 0.06565 0.0
C976 C 0.21398 0.00859 0.02573 0.0
C977 C 0.21377 0.0214 0.0308 0.0
C978 C 0.22219 0.03123 0.07749 0.0
C979 C 0.23085 0.02827 0.11764 0.0
C980 C 0.23065 0.01512 0.11182 0.0
H981 H 0.97123 0.20714 0.06657 0.0
H982 H 0.9965 0.22931 0.23024 0.0
H983 H 0.0185 0.23996 0.16597 0.0
H984 H 0.99749 0.20001 0.99128 0.0
H985 H 0.99333 0.20342 0.91359 0.0
H986 H 0.97971 0.19662 0.9734 0.0
H987 H 0.9755 0.21802 0.95519 0.0
H988 H 0.98913 0.2249 0.89547 0.0
H989 H 0.99041 0.23605 0.96093 0.0
H990 H 0.03766 0.24856 0.08391 0.0
H991 H 0.05254 0.2556 0.98806 0.0
H992 H 0.01468 0.2289 0.87676 0.0
C993 C 0.98144 0.21407 0.0889 0.0
C994 C 0.98224 0.21733 0.15334 0.0
C995 C 0.9957 0.22667 0.18086 0.0
C996 C 0.00825 0.23273 0.14484 0.0
C997 C 0.00711 0.22944 0.08126 0.0
C998 C 0.99405 0.22041 0.05336 0.0
C999 C 0.9957 0.21936 0.98338 0.0
C1000 C 0.9913 0.20394 0.96431 0.0
C1001 C 0.98718 0.22492 0.9466 0.0
C1002 C 0.0117 0.22927 0.97635 0.0
C1003 C 0.0181 0.23484 0.03348 0.0
C1004 C 0.03278 0.24427 0.03887 0.0
C1005 C 0.04114 0.2482 0.98428 0.0
C1006 C 0.03475 0.24283 0.92516 0.0
C1007 C 0.01985 0.23321 0.92137 0.0
H1008 H 0.77886 0.7913 0.83781 0.0
H1009 H 0.76924 0.81913 0.94913 0.0
H1010 H 0.78026 0.81465 0.0417 0.0
H1011 H 0.76943 0.76514 0.95155 0.0
H1012 H 0.78316 0.76085 0.9325 0.0
H1013 H 0.77656 0.76793 0.87313 0.0
H1014 H 0.80239 0.78862 0.85198 0.0
H1015 H 0.80909 0.78155 0.91118 0.0
H1016 H 0.81297 0.79985 0.91596 0.0
H1017 H 0.79048 0.80554 0.12376 0.0
H1018 H 0.79818 0.79182 0.18998 0.0
H1019 H 0.80015 0.76916 0.02557 0.0
C1020 C 0.77942 0.79676 0.88125 0.0
C1021 C 0.77337 0.8057 0.88629 0.0
C1022 C 0.77393 0.81234 0.94429 0.0
C1023 C 0.7802 0.80988 0.99699 0.0
C1024 C 0.78579 0.80074 0.99082 0.0
C1025 C 0.78546 0.79428 0.93438 0.0
C1026 C 0.79094 0.78386 0.94143 0.0
C1027 C 0.77933 0.76854 0.92362 0.0
C1028 C 0.80467 0.78877 0.90284 0.0
C1029 C 0.79406 0.78518 0.01098 0.0
C1030 C 0.79127 0.79515 0.03844 0.0
C1031 C 0.79284 0.79782 0.10266 0.0
C1032 C 0.79722 0.78997 0.13987 0.0
C1033 C 0.79978 0.77945 0.11283 0.0
C1034 C 0.79834 0.77719 0.04745 0.0
H1035 H 0.75485 0.97574 0.93532 0.0
H1036 H 0.79433 0.97949 0.86449 0.0
H1037 H 0.80815 0.99892 0.94084 0.0
H1038 H 0.76779 0.01266 0.95866 0.0
H1039 H 0.75777 0.01027 0.02964 0.0
H1040 H 0.75107 0.99632 0.9714 0.0
H1041 H 0.74976 0.97818 0.05461 0.0
H1042 H 0.7564 0.99207 0.11324 0.0
H1043 H 0.76555 0.98218 0.09911 0.0
H1044 H 0.81761 0.01894 0.02136 0.0
H1045 H 0.82188 0.03707 0.10249 0.0
H1046 H 0.77602 0.01951 0.12142 0.0
C1047 C 0.7664 0.98056 0.93614 0.0
C1048 C 0.77355 0.97614 0.89403 0.0
C1049 C 0.78866 0.9827 0.89657 0.0
C1050 C 0.79658 0.99375 0.93965 0.0
C1051 C 0.78919 0.99797 0.98008 0.0
C1052 C 0.77442 0.99148 0.97899 0.0
C1053 C 0.76901 0.99805 0.02671 0.0
C1054 C 0.76094 0.00472 0.99467 0.0
C1055 C 0.75963 0.98696 0.07636 0.0
C1056 C 0.78305 0.00942 0.05434 0.0
C1057 C 0.79458 0.00923 0.02689 0.0
C1058 C 0.80865 0.01909 0.04353 0.0
C1059 C 0.81098 0.02936 0.0895 0.0
C1060 C 0.79928 0.02964 0.11836 0.0
C1061 C 0.78517 0.01949 0.10054 0.0
H1062 H 0.03734 0.79949 0.9446 0.0
H1063 H 0.01307 0.77209 0.78919 0.0
H1064 H 0.99091 0.76242 0.85136 0.0
H1065 H 0.01808 0.77318 0.06417 0.0
H1066 H 0.01869 0.78596 0.12044 0.0
H1067 H 0.03265 0.79144 0.06265 0.0
H1068 H 0.02787 0.81159 0.02577 0.0
H1069 H 0.01385 0.80612 0.08331 0.0
H1070 H 0.01007 0.8071 0.00177 0.0
H1071 H 0.97137 0.75586 0.92853 0.0
H1072 H 0.9558 0.75102 0.02082 0.0
H1073 H 0.99258 0.78135 0.1297 0.0
C1074 C 0.02733 0.79151 0.9238 0.0
C1075 C 0.02688 0.78657 0.86208 0.0
C1076 C 0.01365 0.77598 0.83652 0.0
C1077 C 1.00099 0.77048 0.87129 0.0
C1078 C 1.00174 0.77553 0.93194 0.0
C1079 C 0.01456 0.78566 0.95848 0.0
C1080 C 0.01238 0.78858 0.02597 0.0
C1081 C 0.02096 0.78454 0.07095 0.0
C1082 C 0.01628 0.80428 0.03469 0.0
C1083 C 0.99638 0.7785 0.03294 0.0
C1084 C 0.99045 0.77125 0.97776 0.0
C1085 C 0.97587 0.76144 0.97215 0.0
C1086 C 0.96711 0.75879 0.02471 0.0
C1087 C 0.973 0.76578 0.0823 0.0
C1088 C 0.98781 0.77583 0.08623 0.0
H1089 H 0.25361 0.22763 0.09232 0.0
H1090 H 0.2218 0.18238 0.09777 0.0
H1091 H 0.20793 0.18615 0.01523 0.0
H1092 H 0.22951 0.24057 0.07184 0.0
H1093 H 0.24092 0.25483 0.01913 0.0
H1094 H 0.2487 0.24846 0.07633 0.0
H1095 H 0.2621 0.24333 0.98827 0.0
H1096 H 0.25442 0.24977 0.93079 0.0
H1097 H 0.2521 0.23207 0.92327 0.0
H1098 H 0.19678 0.19518 0.93701 0.0
H1099 H 0.18985 0.20859 0.86451 0.0
H1100 H 0.2293 0.24777 0.90826 0.0
C1101 C 0.24381 0.21849 0.07565 0.0
C1102 C 0.23877 0.20471 0.10134 0.0
C1103 C 0.22588 0.19302 0.07851 0.0
C1104 C 0.21792 0.19506 0.03175 0.0
C1105 C 0.22308 0.20883 0.00802 0.0
C1106 C 0.23579 0.22032 0.02875 0.0
C1107 C 0.23886 0.23405 0.99626 0.0
C1108 C 0.23953 0.24513 0.04373 0.0
C1109 C 0.25269 0.24016 0.95733 0.0
C1110 C 0.22578 0.22854 0.95464 0.0
C1111 C 0.21679 0.21397 0.96217 0.0
C1112 C 0.2038 0.20657 0.93027 0.0
C1113 C 0.19993 0.21427 0.88939 0.0
C1114 C 0.20907 0.22918 0.88061 0.0
C1115 C 0.22216 0.23635 0.91363 0.0
H1116 H 0.91625 0.35781 0.44271 0.0
H1117 H 0.88496 0.37181 0.4268 0.0
H1118 H 0.87186 0.3532 0.34689 0.0
H1119 H 0.91733 0.35091 0.27899 0.0
H1120 H 0.91927 0.33542 0.2913 0.0
H1121 H 0.92592 0.3495 0.34896 0.0
H1122 H 0.91063 0.33104 0.43435 0.0
H1123 H 0.90391 0.31691 0.37689 0.0
H1124 H 0.89159 0.31987 0.42287 0.0
H1125 H 0.86222 0.33326 0.26891 0.0
H1126 H 0.85722 0.31392 0.19374 0.0
H1127 H 0.89506 0.31314 0.2579 0.0
C1128 C 0.90661 0.35691 0.42255 0.0
C1129 C 0.90157 0.36621 0.44101 0.0
C1130 C 0.88899 0.36479 0.41327 0.0
C1131 C 0.88146 0.35423 0.36801 0.0
C1132 C 0.8867 0.34523 0.35083 0.0
C1133 C 0.89901 0.34649 0.37689 0.0
C1134 C 0.90256 0.33573 0.3486 0.0
C1135 C 0.91713 0.34335 0.31496 0.0
C1136 C 0.90214 0.32527 0.39867 0.0
C1137 C 0.89033 0.32826 0.30243 0.0
C1138 C 0.88126 0.33385 0.30487 0.0
C1139 C 0.86924 0.32878 0.26654 0.0
C1140 C 0.86648 0.31778 0.22407 0.0
C1141 C 0.87575 0.31203 0.22002 0.0
C1142 C 0.88778 0.31731 0.26005 0.0
H1143 H 0.69014 0.5584 0.23475 0.0
H1144 H 0.71944 0.59999 0.315 0.0
H1145 H 0.7036 0.59427 0.40686 0.0
H1146 H 0.6583 0.55742 0.28017 0.0
H1147 H 0.64854 0.53855 0.29804 0.0
H1148 H 0.6627 0.54532 0.24078 0.0
H1149 H 0.67545 0.53417 0.30245 0.0
H1150 H 0.66127 0.52727 0.35974 0.0
H1151 H 0.6796 0.5385 0.38418 0.0
H1152 H 0.68375 0.58508 0.48483 0.0
H1153 H 0.66167 0.57237 0.54775 0.0
H1154 H 0.64531 0.53635 0.41939 0.0
C1155 C 0.69334 0.56618 0.27222 0.0
C1156 C 0.70604 0.57963 0.26788 0.0
C1157 C 0.70979 0.58961 0.31747 0.0
C1158 C 0.70085 0.58646 0.36981 0.0
C1159 C 0.68827 0.57325 0.3721 0.0
C1160 C 0.68455 0.56319 0.32502 0.0
C1161 C 0.67014 0.55002 0.33812 0.0
C1162 C 0.65928 0.5477 0.28619 0.0
C1163 C 0.67171 0.5367 0.34664 0.0
C1164 C 0.66623 0.55436 0.39931 0.0
C1165 C 0.67686 0.56781 0.41796 0.0
C1166 C 0.67544 0.57447 0.47119 0.0
C1167 C 0.66283 0.56719 0.50644 0.0
C1168 C 0.65184 0.55336 0.48859 0.0
C1169 C 0.65362 0.54684 0.43451 0.0
H1170 H 0.42307 0.11709 0.27622 0.0
H1171 H 0.46213 0.15319 0.20468 0.0
H1172 H 0.47626 0.14827 0.28207 0.0
H1173 H 0.43379 0.12113 0.44124 0.0
H1174 H 0.42509 0.10206 0.45358 0.0
H1175 H 0.41813 0.10926 0.39621 0.0
H1176 H 0.41997 0.0931 0.31098 0.0
H1177 H 0.427 0.08592 0.36791 0.0
H1178 H 0.43694 0.09406 0.29729 0.0
H1179 H 0.48618 0.13825 0.36343 0.0
H1180 H 0.49092 0.12415 0.44181 0.0
H1181 H 0.44523 0.09467 0.4581 0.0
C1182 C 0.43458 0.12412 0.27748 0.0
C1183 C 0.44151 0.13557 0.23471 0.0
C1184 C 0.4566 0.1444 0.23731 0.0
C1185 C 0.4647 0.14169 0.28107 0.0
C1186 C 0.45754 0.13013 0.3219 0.0
C1187 C 0.44279 0.12154 0.32059 0.0
C1188 C 0.43769 0.10937 0.36716 0.0
C1189 C 0.42811 0.11053 0.41754 0.0
C1190 C 0.42995 0.09475 0.33382 0.0
C1191 C 0.45186 0.1123 0.39431 0.0
C1192 C 0.4632 0.12436 0.36803 0.0
C1193 C 0.47736 0.12886 0.38465 0.0
C1194 C 0.47995 0.12079 0.4291 0.0
C1195 C 0.46845 0.10835 0.45608 0.0
C1196 C 0.45425 0.10417 0.43855 0.0
H1197 H 0.42864 0.32052 0.22587 0.0
H1198 H 0.45808 0.30425 0.24254 0.0
H1199 H 0.47158 0.32243 0.32409 0.0
H1200 H 0.455 0.35812 0.24733 0.0
H1201 H 0.44291 0.36177 0.29145 0.0
H1202 H 0.43598 0.34784 0.23304 0.0
H1203 H 0.41939 0.32952 0.31624 0.0
H1204 H 0.42626 0.34338 0.37488 0.0
H1205 H 0.42707 0.32726 0.38735 0.0
H1206 H 0.48109 0.34171 0.40757 0.0
H1207 H 0.48613 0.36078 0.48479 0.0
H1208 H 0.45062 0.36457 0.41131 0.0
C1209 C 0.43798 0.32083 0.24633 0.0
C1210 C 0.44233 0.31098 0.22795 0.0
C1211 C 0.4546 0.31172 0.25591 0.0
C1212 C 0.46232 0.322 0.30221 0.0
C1213 C 0.45766 0.33149 0.31959 0.0
C1214 C 0.44582 0.33103 0.29225 0.0
C1215 C 0.44284 0.34222 0.31996 0.0
C1216 C 0.44427 0.35313 0.26996 0.0
C1217 C 0.42801 0.33517 0.35148 0.0
C1218 C 0.45476 0.34897 0.36779 0.0
C1219 C 0.46322 0.34265 0.36686 0.0
C1220 C 0.47461 0.3468 0.40834 0.0
C1221 C 0.47738 0.35762 0.45205 0.0
C1222 C 0.46881 0.36419 0.45378 0.0
C1223 C 0.45744 0.35984 0.41071 0.0
H1224 H 0.68899 0.10827 0.19548 0.0
H1225 H 0.70802 0.15396 0.22814 0.0
H1226 H 0.68897 0.14923 0.30485 0.0
H1227 H 0.65219 0.09952 0.20609 0.0
H1228 H 0.64639 0.08275 0.24595 0.0
H1229 H 0.66148 0.0897 0.19337 0.0
H1230 H 0.67735 0.08854 0.28183 0.0
H1231 H 0.66227 0.08144 0.33441 0.0
H1232 H 0.67872 0.09738 0.35538 0.0
H1233 H 0.66775 0.13947 0.37803 0.0
H1234 H 0.64696 0.12532 0.44735 0.0
H1235 H 0.64189 0.08607 0.36673 0.0
C1236 C 0.68918 0.11728 0.21895 0.0
C1237 C 0.69999 0.13149 0.20589 0.0
C1238 C 0.69986 0.14298 0.23756 0.0
C1239 C 0.68905 0.14041 0.28098 0.0
C1240 C 0.67845 0.12628 0.29223 0.0
C1241 C 0.67849 0.1149 0.2625 0.0
C1242 C 0.66605 0.10073 0.28392 0.0
C1243 C 0.65593 0.09271 0.22906 0.0
C1244 C 0.67142 0.09148 0.31579 0.0
C1245 C 0.65903 0.1059 0.33058 0.0
C1246 C 0.66628 0.12067 0.33441 0.0
C1247 C 0.66196 0.12789 0.3753 0.0
C1248 C 0.65011 0.11977 0.41429 0.0
C1249 C 0.64276 0.10461 0.41221 0.0
C1250 C 0.6472 0.09765 0.36902 0.0
H1251 H 0.89667 0.54173 0.43897 0.0
H1252 H 0.93688 0.58073 0.47641 0.0
H1253 H 0.93089 0.59351 0.39749 0.0
H1254 H 0.89615 0.54693 0.27219 0.0
H1255 H 0.8771 0.54006 0.2682 0.0
H1256 H 0.88437 0.53371 0.32798 0.0
H1257 H 0.87214 0.54095 0.41364 0.0
H1258 H 0.86483 0.54731 0.35411 0.0
H1259 H 0.87555 0.55911 0.4164 0.0
H1260 H 0.92126 0.60207 0.31452 0.0
H1261 H 0.90793 0.60637 0.23217 0.0
H1262 H 0.87333 0.5623 0.24769 0.0
C1263 C 0.90418 0.55296 0.43045 0.0
C1264 C 0.91725 0.56024 0.46378 0.0
C1265 C 0.9268 0.57493 0.45155 0.0
C1266 C 0.92351 0.5823 0.40675 0.0
C1267 C 0.9106 0.57487 0.3747 0.0
C1268 C 0.90101 0.56056 0.38591 0.0
C1269 C 0.88783 0.55528 0.34468 0.0
C1270 C 0.88628 0.54329 0.30065 0.0
C1271 C 0.87429 0.55038 0.3846 0.0
C1272 C 0.8916 0.56886 0.30855 0.0
C1273 C 0.90482 0.57996 0.32676 0.0
C1274 C 0.91087 0.5935 0.29992 0.0
C1275 C 0.90321 0.59582 0.25306 0.0
C1276 C 0.88959 0.58468 0.2336 0.0
C1277 C 0.88368 0.57102 0.26191 0.0
H1278 H 0.55978 0.64037 0.58687 0.0
H1279 H 0.52127 0.64053 0.52887 0.0
H1280 H 0.52685 0.66029 0.60314 0.0
H1281 H 0.55852 0.64821 0.75084 0.0
H1282 H 0.57767 0.65958 0.75696 0.0
H1283 H 0.57023 0.64509 0.70123 0.0
H1284 H 0.58413 0.66299 0.6118 0.0
H1285 H 0.59154 0.67755 0.66718 0.0
H1286 H 0.58181 0.67827 0.59991 0.0
H1287 H 0.53686 0.68023 0.68364 0.0
H1288 H 0.55065 0.69891 0.76295 0.0
H1289 H 0.58292 0.68605 0.7646 0.0
C1290 C 0.55244 0.64446 0.59027 0.0
C1291 C 0.54004 0.63888 0.55251 0.0
C1292 C 0.5308 0.64464 0.55762 0.0
C1293 C 0.53388 0.65585 0.59961 0.0
C1294 C 0.54629 0.66122 0.63575 0.0
C1295 C 0.55542 0.65572 0.63139 0.0
C1296 C 0.56827 0.66364 0.67397 0.0
C1297 C 0.56869 0.65353 0.7237 0.0
C1298 C 0.58226 0.67105 0.63593 0.0
C1299 C 0.56494 0.67446 0.70305 0.0
C1300 C 0.55219 0.67287 0.68069 0.0
C1301 C 0.54687 0.68159 0.70138 0.0
C1302 C 0.55477 0.69216 0.74633 0.0
C1303 C 0.56787 0.69396 0.76961 0.0
C1304 C 0.57299 0.685 0.74735 0.0
H1305 H 0.30742 0.89022 0.71762 0.0
H1306 H 0.31253 0.85613 0.79891 0.0
H1307 H 0.33336 0.86275 0.72987 0.0
H1308 H 0.318 0.8872 0.5573 0.0
H1309 H 0.32719 0.9063 0.54514 0.0
H1310 H 0.31202 0.89802 0.59725 0.0
H1311 H 0.32757 0.91507 0.68629 0.0
H1312 H 0.34284 0.92326 0.63481 0.0
H1313 H 0.34401 0.91565 0.70825 0.0
H1314 H 0.35467 0.87424 0.65705 0.0
H1315 H 0.37389 0.88874 0.58123 0.0
H1316 H 0.35483 0.91538 0.54873 0.0
C1317 C 0.31273 0.88394 0.71999 0.0
C1318 C 0.30831 0.8726 0.76331 0.0
C1319 C 0.31567 0.86479 0.76568 0.0
C1320 C 0.32754 0.86851 0.72684 0.0
C1321 C 0.33187 0.88003 0.68589 0.0
C1322 C 0.32459 0.88753 0.68176 0.0
C1323 C 0.33171 0.8998 0.6356 0.0
C1324 C 0.32163 0.8977 0.58055 0.0
C1325 C 0.33683 0.9143 0.66821 0.0
C1326 C 0.34422 0.89813 0.61486 0.0
C1327 C 0.34413 0.88666 0.64432 0.0
C1328 C 0.35479 0.88318 0.6334 0.0
C1329 C 0.36569 0.89152 0.59051 0.0
C1330 C 0.36586 0.90319 0.5592 0.0
C1331 C 0.35501 0.90654 0.57199 0.0
H1332 H 0.10997 0.4238 0.77863 0.0
H1333 H 0.15458 0.45739 0.78211 0.0
H1334 H 0.14925 0.47121 0.70454 0.0
H1335 H 0.10452 0.42518 0.61569 0.0
H1336 H 0.08644 0.42177 0.62396 0.0
H1337 H 0.09375 0.415 0.68151 0.0
H1338 H 0.08793 0.42795 0.76929 0.0
H1339 H 0.08061 0.43479 0.71194 0.0
H1340 H 0.09471 0.44696 0.76349 0.0
H1341 H 0.13897 0.48082 0.62296 0.0
H1342 H 0.12476 0.48528 0.54431 0.0
H1343 H 0.087 0.44532 0.59633 0.0
C1344 C 0.11862 0.43411 0.76344 0.0
C1345 C 0.13269 0.43955 0.78638 0.0
C1346 C 0.14372 0.45305 0.76514 0.0
C1347 C 0.14078 0.46096 0.72121 0.0
C1348 C 0.12677 0.45523 0.69931 0.0
C1349 C 0.11588 0.44212 0.71989 0.0
C1350 C 0.10182 0.4381 0.68812 0.0
C1351 C 0.09632 0.42419 0.65006 0.0
C1352 C 0.09061 0.43688 0.73608 0.0
C1353 C 0.10649 0.45093 0.64581 0.0
C1354 C 0.1209 0.46075 0.653 0.0
C1355 C 0.12767 0.47325 0.61732 0.0
C1356 C 0.11952 0.4757 0.57282 0.0
C1357 C 0.10478 0.46568 0.56446 0.0
C1358 C 0.09822 0.45323 0.60197 0.0
H1359 H 0.13426 0.7035 0.71348 0.0
H1360 H 0.13458 0.6794 0.8753 0.0
H1361 H 0.12683 0.65794 0.80881 0.0
H1362 H 0.10216 0.67575 0.65249 0.0
H1363 H 0.10714 0.67971 0.57123 0.0
H1364 H 0.11494 0.69377 0.62879 0.0
H1365 H 0.14039 0.69971 0.59431 0.0
H1366 H 0.13266 0.68571 0.53624 0.0
H1367 H 0.14494 0.68573 0.59358 0.0
H1368 H 0.11798 0.63887 0.72593 0.0
H1369 H 0.10682 0.62301 0.63441 0.0
H1370 H 0.11004 0.65892 0.52899 0.0
C1371 C 0.1331 0.6938 0.7342 0.0
C1372 C 0.13532 0.69308 0.79888 0.0
C1373 C 0.13313 0.68012 0.82545 0.0
C1374 C 0.12875 0.66792 0.7881 0.0
C1375 C 0.12636 0.66884 0.72454 0.0
C1376 C 0.12834 0.6814 0.69783 0.0
C1377 C 0.12348 0.67908 0.63008 0.0
C1378 C 0.1112 0.68227 0.6201 0.0
C1379 C 0.13612 0.68809 0.58595 0.0
C1380 C 0.11832 0.66324 0.62319 0.0
C1381 C 0.12034 0.6576 0.67781 0.0
C1382 C 0.11635 0.64317 0.68285 0.0
C1383 C 0.11003 0.63425 0.63076 0.0
C1384 C 0.1075 0.63974 0.57503 0.0
C1385 C 0.11177 0.65443 0.57127 0.0
H1386 H 0.3104 0.41545 0.74248 0.0
H1387 H 0.30345 0.45145 0.76877 0.0
H1388 H 0.32135 0.46487 0.68629 0.0
H1389 H 0.34794 0.43595 0.72187 0.0
H1390 H 0.34873 0.42424 0.66365 0.0
H1391 H 0.3347 0.41715 0.72149 0.0
H1392 H 0.31558 0.40709 0.63344 0.0
H1393 H 0.32957 0.4141 0.57526 0.0
H1394 H 0.31582 0.41897 0.5734 0.0
H1395 H 0.34075 0.47467 0.60384 0.0
H1396 H 0.36025 0.48018 0.52843 0.0
H1397 H 0.35468 0.43783 0.55769 0.0
C1398 C 0.31251 0.42609 0.73035 0.0
C1399 C 0.30549 0.4324 0.76172 0.0
C1400 C 0.30867 0.44641 0.7451 0.0
C1401 C 0.31881 0.4541 0.69833 0.0
C1402 C 0.32566 0.44762 0.66879 0.0
C1403 C 0.32263 0.43392 0.68412 0.0
C1404 C 0.33188 0.4296 0.64727 0.0
C1405 C 0.34138 0.42656 0.6912 0.0
C1406 C 0.32266 0.41667 0.60482 0.0
C1407 C 0.34071 0.44306 0.60919 0.0
C1408 C 0.33691 0.4533 0.62197 0.0
C1409 C 0.34377 0.4667 0.59327 0.0
C1410 C 0.35483 0.46974 0.55056 0.0
C1411 C 0.35896 0.45943 0.53721 0.0
C1412 C 0.35173 0.44591 0.56682 0.0
H1413 H 0.58475 0.89427 0.76383 0.0
H1414 H 0.55736 0.84841 0.73914 0.0
H1415 H 0.54414 0.85282 0.65541 0.0
H1416 H 0.55755 0.90346 0.74252 0.0
H1417 H 0.569 0.91989 0.70127 0.0
H1418 H 0.57655 0.91309 0.75767 0.0
H1419 H 0.59401 0.91335 0.67342 0.0
H1420 H 0.58658 0.92024 0.61687 0.0
H1421 H 0.58696 0.90402 0.60043 0.0
H1422 H 0.53332 0.8624 0.57711 0.0
H1423 H 0.52659 0.87639 0.5069 0.0
H1424 H 0.56141 0.91584 0.5827 0.0
C1425 C 0.57606 0.88514 0.74043 0.0
C1426 C 0.57209 0.87099 0.7578 0.0
C1427 C 0.5606 0.85934 0.72636 0.0
C1428 C 0.55302 0.86174 0.6789 0.0
C1429 C 0.5571 0.87584 0.66347 0.0
C1430 C 0.56841 0.88734 0.69307 0.0
C1431 C 0.57057 0.90145 0.66843 0.0
C1432 C 0.56828 0.90997 0.72058 0.0
C1433 C 0.58541 0.91028 0.63796 0.0
C1434 C 0.55873 0.89612 0.62015 0.0
C1435 C 0.551 0.88132 0.61818 0.0
C1436 C 0.53934 0.87399 0.57803 0.0
C1437 C 0.53557 0.882 0.53852 0.0
C1438 C 0.54352 0.89716 0.53929 0.0
C1439 C 0.5552 0.90425 0.58081 0.0
H1440 H 0.37175 0.11836 0.19953 0.0
H1441 H 0.37001 0.11313 0.99746 0.0
H1442 H 0.34361 0.09891 0.00244 0.0
H1443 H 0.34292 0.08315 0.23589 0.0
H1444 H 0.33604 0.089 0.29932 0.0
H1445 H 0.35481 0.09896 0.28005 0.0
H1446 H 0.35321 0.12201 0.26649 0.0
H1447 H 0.33444 0.11214 0.28589 0.0
H1448 H 0.34019 0.12195 0.21327 0.0
H1449 H 0.31752 0.08495 0.02918 0.0
H1450 H 0.29332 0.07261 0.07565 0.0
H1451 H 0.3118 0.08698 0.26052 0.0
C1452 C 0.3658 0.11426 0.15633 0.0
C1453 C 0.37293 0.11685 0.09805 0.0
C1454 C 0.36478 0.1113 0.04259 0.0
C1455 C 0.34978 0.10319 0.04495 0.0
C1456 C 0.34309 0.10076 0.10311 0.0
C1457 C 0.3508 0.10617 0.15781 0.0
C1458 C 0.34094 0.10198 0.21419 0.0
C1459 C 0.34385 0.09272 0.26006 0.0
C1460 C 0.34228 0.11532 0.24687 0.0
C1461 C 0.32648 0.09333 0.18263 0.0
C1462 C 0.32799 0.09276 0.11854 0.0
C1463 C 0.3162 0.08534 0.07928 0.0
C1464 C 0.3025 0.07835 0.10615 0.0
C1465 C 0.30067 0.07884 0.17167 0.0
C1466 C 0.31286 0.08642 0.21028 0.0
H1467 H 0.88947 0.2585 0.20303 0.0
H1468 H 0.89789 0.26283 0.00295 0.0
H1469 H 0.91167 0.2503 0.01377 0.0
H1470 H 0.92422 0.26402 0.25016 0.0
H1471 H 0.91713 0.25106 0.31268 0.0
H1472 H 0.908 0.2605 0.28969 0.0
H1473 H 0.88469 0.23633 0.27127 0.0
H1474 H 0.89375 0.22681 0.29417 0.0
H1475 H 0.88498 0.22331 0.21907 0.0
H1476 H 0.92394 0.23691 0.045 0.0
H1477 H 0.93447 0.22373 0.09498 0.0
H1478 H 0.91866 0.22819 0.27591 0.0
C1479 C 0.89425 0.25684 0.16156 0.0
C1480 C 0.89261 0.26164 0.10206 0.0
C1481 C 0.89902 0.25926 0.04894 0.0
C1482 C 0.90686 0.25215 0.05462 0.0
C1483 C 0.90825 0.24752 0.11379 0.0
C1484 C 0.90218 0.24978 0.16643 0.0
C1485 C 0.9053 0.24363 0.22443 0.0
C1486 C 0.91419 0.25552 0.27205 0.0
C1487 C 0.89135 0.23182 0.25396 0.0
C1488 C 0.91399 0.23749 0.196 0.0
C1489 C 0.91553 0.23987 0.13208 0.0
C1490 C 0.92286 0.23503 0.09503 0.0
C1491 C 0.92879 0.22753 0.12393 0.0
C1492 C 0.92742 0.22495 0.18938 0.0
C1493 C 0.91995 0.23007 0.22588 0.0
H1494 H 0.75696 0.63985 0.19787 0.0
H1495 H 0.74839 0.63944 0.99897 0.0
H1496 H 0.76025 0.66588 0.99957 0.0
H1497 H 0.75055 0.66833 0.23884 0.0
H1498 H 0.76465 0.67604 0.29647 0.0
H1499 H 0.75588 0.65713 0.28006 0.0
H1500 H 0.78041 0.65928 0.25504 0.0
H1501 H 0.78927 0.6782 0.27156 0.0
H1502 H 0.79189 0.67199 0.19696 0.0
H1503 H 0.77257 0.69229 0.02232 0.0
H1504 H 0.78472 0.71687 0.06515 0.0
H1505 H 0.78529 0.70014 0.24947 0.0
C1506 C 0.75766 0.64533 0.15435 0.0
C1507 C 0.75178 0.63759 0.09827 0.0
C1508 C 0.75284 0.64515 0.0424 0.0
C1509 C 0.75956 0.66016 0.04231 0.0
C1510 C 0.76515 0.66745 0.09846 0.0
C1511 C 0.76431 0.6603 0.15344 0.0
C1512 C 0.77102 0.67068 0.20759 0.0
C1513 C 0.75986 0.66787 0.25875 0.0
C1514 C 0.78391 0.66999 0.23435 0.0
C1515 C 0.77572 0.68479 0.17453 0.0
C1516 C 0.77224 0.68268 0.1116 0.0
C1517 C 0.77538 0.69407 0.07148 0.0
C1518 C 0.78227 0.70799 0.09628 0.0
C1519 C 0.78596 0.71042 0.16061 0.0
C1520 C 0.78262 0.69862 0.20009 0.0
H1521 H 0.07961 0.30245 0.86597 0.0
H1522 H 0.08486 0.30372 0.66402 0.0
H1523 H 0.09929 0.33017 0.66818 0.0
H1524 H 0.0766 0.33434 0.87931 0.0
H1525 H 0.08646 0.33994 0.95183 0.0
H1526 H 0.07627 0.32118 0.93248 0.0
H1527 H 0.09904 0.31905 0.94582 0.0
H1528 H 0.10932 0.33781 0.96493 0.0
H1529 H 0.1149 0.33069 0.90143 0.0
H1530 H 0.11356 0.35643 0.69487 0.0
H1531 H 0.12631 0.38062 0.74163 0.0
H1532 H 0.11182 0.36215 0.92637 0.0
C1533 C 0.08371 0.30829 0.82253 0.0
C1534 C 0.08109 0.30104 0.76458 0.0
C1535 C 0.08671 0.30907 0.70887 0.0
C1536 C 0.09493 0.32408 0.71081 0.0
C1537 C 0.09741 0.33088 0.76881 0.0
C1538 C 0.09193 0.32325 0.82364 0.0
C1539 C 0.09632 0.33312 0.87997 0.0
C1540 C 0.08313 0.33208 0.91281 0.0
C1541 C 0.10544 0.32998 0.92572 0.0
C1542 C 0.10517 0.34751 0.84832 0.0
C1543 C 0.10566 0.34598 0.78419 0.0
C1544 C 0.11323 0.35776 0.745 0.0
C1545 C 0.12046 0.37145 0.77203 0.0
C1546 C 0.12007 0.37327 0.83762 0.0
C1547 C 0.11233 0.3611 0.8761 0.0
H1548 H 0.69672 0.79004 0.75401 0.0
H1549 H 0.71212 0.76487 0.85045 0.0
H1550 H 0.68767 0.7484 0.88839 0.0
H1551 H 0.67142 0.78674 0.87243 0.0
H1552 H 0.65815 0.7854 0.81722 0.0
H1553 H 0.67686 0.7952 0.79674 0.0
H1554 H 0.67167 0.77947 0.69761 0.0
H1555 H 0.65294 0.76962 0.7178 0.0
H1556 H 0.66268 0.76025 0.70552 0.0
H1557 H 0.66179 0.73475 0.91642 0.0
H1558 H 0.63588 0.72472 0.93347 0.0
H1559 H 0.63694 0.7586 0.81941 0.0
C1560 C 0.69492 0.78105 0.78302 0.0
C1561 C 0.70631 0.77872 0.79926 0.0
C1562 C 0.70356 0.76686 0.83742 0.0
C1563 C 0.6897 0.75744 0.85919 0.0
C1564 C 0.67871 0.76002 0.84244 0.0
C1565 C 0.68112 0.77152 0.8053 0.0
C1566 C 0.66737 0.77186 0.79471 0.0
C1567 C 0.66852 0.78562 0.82191 0.0
C1568 C 0.66344 0.77019 0.72475 0.0
C1569 C 0.65689 0.75876 0.83176 0.0
C1570 C 0.66369 0.75211 0.85881 0.0
C1571 C 0.65633 0.73985 0.89546 0.0
C1572 C 0.64162 0.73424 0.90486 0.0
C1573 C 0.6344 0.74088 0.87776 0.0
C1574 C 0.64217 0.75329 0.84065 0.0
H1575 H 0.22 0.91483 0.74512 0.0
H1576 H 0.23139 0.94333 0.90532 0.0
H1577 H 0.2458 0.93336 0.94819 0.0
H1578 H 0.2169 0.88443 0.82861 0.0
H1579 H 0.22466 0.87906 0.76691 0.0
H1580 H 0.21523 0.88845 0.7481 0.0
H1581 H 0.23758 0.90785 0.68931 0.0
H1582 H 0.24707 0.8985 0.70781 0.0
H1583 H 0.25455 0.91705 0.72954 0.0
H1584 H 0.25854 0.92014 0.97516 0.0
H1585 H 0.26959 0.90492 0.9828 0.0
H1586 H 0.25051 0.88518 0.80454 0.0
C1587 C 0.22556 0.91898 0.78912 0.0
C1588 C 0.22457 0.92985 0.82192 0.0
C1589 C 0.23201 0.93502 0.87933 0.0
C1590 C 0.24021 0.92942 0.90415 0.0
C1591 C 0.24093 0.91868 0.87091 0.0
C1592 C 0.23389 0.91354 0.81452 0.0
C1593 C 0.23658 0.90201 0.78828 0.0
C1594 C 0.2225 0.88764 0.78267 0.0
C1595 C 0.24441 0.90663 0.72499 0.0
C1596 C 0.24616 0.90145 0.8389 0.0
C1597 C 0.24849 0.91114 0.88617 0.0
C1598 C 0.25684 0.91253 0.93837 0.0
C1599 C 0.26306 0.90383 0.94232 0.0
C1600 C 0.26093 0.8939 0.89426 0.0
C1601 C 0.25236 0.89271 0.84192 0.0
H1602 H 0.69694 0.92085 0.74217 0.0
H1603 H 0.71566 0.92224 0.92394 0.0
H1604 H 0.69152 0.90959 0.97093 0.0
H1605 H 0.66861 0.92648 0.79752 0.0
H1606 H 0.65559 0.91431 0.74211 0.0
H1607 H 0.67435 0.92349 0.72247 0.0
H1608 H 0.67291 0.89916 0.70014 0.0
H1609 H 0.65413 0.88991 0.71949 0.0
H1610 H 0.66611 0.88549 0.75982 0.0
H1611 H 0.66542 0.89716 0.99873 0.0
H1612 H 0.639 0.88486 0.00444 0.0
H1613 H 0.63713 0.89108 0.80446 0.0
C1614 C 0.69594 0.91846 0.79182 0.0
C1615 C 0.70818 0.92253 0.82944 0.0
C1616 C 0.70644 0.9192 0.89421 0.0
C1617 C 0.69277 0.91205 0.92138 0.0
C1618 C 0.68093 0.90824 0.88312 0.0
C1619 C 0.68236 0.91124 0.8197 0.0
C1620 C 0.66786 0.90582 0.78906 0.0
C1621 C 0.66653 0.91827 0.76116 0.0
C1622 C 0.6651 0.89442 0.73919 0.0
C1623 C 0.65809 0.89931 0.84518 0.0
C1624 C 0.66586 0.90089 0.89903 0.0
C1625 C 0.65921 0.89583 0.95685 0.0
C1626 C 0.64421 0.88889 0.95966 0.0
C1627 C 0.63603 0.88701 0.90494 0.0
C1628 C 0.6431 0.89234 0.84708 0.0
H1629 H 0.08449 0.78108 0.85997 0.0
H1630 H 0.07952 0.77259 0.65999 0.0
H1631 H 0.09117 0.75796 0.67012 0.0
H1632 H 0.11906 0.78431 0.87426 0.0
H1633 H 0.11551 0.77559 0.94951 0.0
H1634 H 0.10641 0.7851 0.92707 0.0
H1635 H 0.08192 0.76224 0.94665 0.0
H1636 H 0.09094 0.75265 0.96903 0.0
H1637 H 0.0778 0.74583 0.90715 0.0
H1638 H 0.10403 0.74505 0.70061 0.0
H1639 H 0.11732 0.73448 0.74968 0.0
H1640 H 0.1137 0.75076 0.93076 0.0
C1641 C 0.08582 0.7761 0.81839 0.0
C1642 C 0.0811 0.77797 0.75913 0.0
C1643 C 0.08303 0.77129 0.70582 0.0
C1644 C 0.08963 0.76295 0.71112 0.0
C1645 C 0.09417 0.76132 0.77009 0.0
C1646 C 0.09234 0.76767 0.82287 0.0
C1647 C 0.09842 0.76435 0.88051 0.0
C1648 C 0.11057 0.77816 0.90952 0.0
C1649 C 0.08656 0.75575 0.92867 0.0
C1650 C 0.10407 0.75527 0.85169 0.0
C1651 C 0.10147 0.75367 0.78794 0.0
C1652 C 0.10605 0.74614 0.75054 0.0
C1653 C 0.1136 0.74019 0.77887 0.0
C1654 C 0.11648 0.74174 0.84405 0.0
C1655 C 0.11151 0.74927 0.88097 0.0
H1656 H 0.22531 0.30496 0.73847 0.0
H1657 H 0.21045 0.28666 0.9233 0.0
H1658 H 0.22178 0.3109 0.96876 0.0
H1659 H 0.2595 0.33396 0.78782 0.0
H1660 H 0.25949 0.34672 0.73322 0.0
H1661 H 0.25004 0.3279 0.71448 0.0
H1662 H 0.2267 0.32882 0.69759 0.0
H1663 H 0.23609 0.34764 0.71632 0.0
H1664 H 0.2202 0.3355 0.75938 0.0
H1665 H 0.23492 0.33689 0.99504 0.0
H1666 H 0.24912 0.36326 0.00036 0.0
H1667 H 0.25546 0.36508 0.79893 0.0
C1668 C 0.22443 0.30608 0.78845 0.0
C1669 C 0.21699 0.29391 0.82734 0.0
C1670 C 0.21608 0.29581 0.89255 0.0
C1671 C 0.22248 0.30954 0.91888 0.0
C1672 C 0.22974 0.3213 0.87943 0.0
C1673 C 0.23076 0.31976 0.81564 0.0
C1674 C 0.2393 0.33425 0.78409 0.0
C1675 C 0.25289 0.33579 0.75309 0.0
C1676 C 0.23001 0.33669 0.73654 0.0
C1677 C 0.24295 0.34412 0.8402 0.0
C1678 C 0.23731 0.3364 0.89467 0.0
C1679 C 0.23937 0.34307 0.9527 0.0
C1680 C 0.24745 0.35806 0.95525 0.0
C1681 C 0.25336 0.36622 0.90011 0.0
C1682 C 0.25102 0.35912 0.84184 0.0
H1683 H 0.92748 0.70683 0.13791 0.0
H1684 H 0.91831 0.7058 0.33647 0.0
H1685 H 0.90255 0.67951 0.3307 0.0
H1686 H 0.89232 0.67992 0.09019 0.0
H1687 H 0.89859 0.67221 0.03199 0.0
H1688 H 0.90928 0.6909 0.05177 0.0
H1689 H 0.93079 0.68738 0.07824 0.0
H1690 H 0.92022 0.6687 0.05799 0.0
H1691 H 0.92848 0.67384 0.13415 0.0
H1692 H 0.88752 0.65339 0.30276 0.0
H1693 H 0.87537 0.62917 0.25623 0.0
H1694 H 0.89444 0.64726 0.07584 0.0
C1695 C 0.92222 0.70107 0.18028 0.0
C1696 C 0.92412 0.70835 0.23771 0.0
C1697 C 0.91703 0.70043 0.29205 0.0
C1698 C 0.90802 0.68551 0.28916 0.0
C1699 C 0.90625 0.67869 0.23162 0.0
C1700 C 0.91322 0.68619 0.17825 0.0
C1701 C 0.90959 0.67629 0.12235 0.0
C1702 C 0.90199 0.68006 0.07106 0.0
C1703 C 0.92307 0.67657 0.0967 0.0
C1704 C 0.89948 0.66203 0.15259 0.0
C1705 C 0.89764 0.66366 0.21558 0.0
C1706 C 0.88888 0.65199 0.2535 0.0
C1707 C 0.88199 0.63828 0.22658 0.0
C1708 C 0.88392 0.63633 0.16239 0.0
C1709 C 0.89268 0.64841 0.12494 0.0
H1710 H 0.36469 0.2519 0.08208 0.0
H1711 H 0.38352 0.26333 0.26779 0.0
H1712 H 0.35937 0.25194 0.31455 0.0
H1713 H 0.33507 0.25774 0.11196 0.0
H1714 H 0.3225 0.24269 0.06557 0.0
H1715 H 0.34129 0.2518 0.0463 0.0
H1716 H 0.34131 0.2278 0.05388 0.0
H1717 H 0.32251 0.21862 0.07303 0.0
H1718 H 0.33505 0.21732 0.12465 0.0
H1719 H 0.33327 0.2395 0.34146 0.0
H1720 H 0.30683 0.22619 0.34673 0.0
H1721 H 0.30479 0.2225 0.14396 0.0
C1722 C 0.36371 0.252 0.13256 0.0
C1723 C 0.37599 0.25851 0.17131 0.0
C1724 C 0.37427 0.25839 0.23718 0.0
C1725 C 0.3606 0.25197 0.26421 0.0
C1726 C 0.34872 0.24567 0.2248 0.0
C1727 C 0.35011 0.24557 0.16042 0.0
C1728 C 0.33556 0.23791 0.12887 0.0
C1729 C 0.33349 0.24815 0.08563 0.0
C1730 C 0.33349 0.22462 0.093 0.0
C1731 C 0.32581 0.23374 0.18557 0.0
C1732 C 0.33363 0.23836 0.2404 0.0
C1733 C 0.32702 0.23581 0.29884 0.0
C1734 C 0.31201 0.22826 0.30137 0.0
C1735 C 0.30376 0.22331 0.24583 0.0
C1736 C 0.3108 0.22615 0.18724 0.0
H1737 H 0.75302 0.11949 0.18598 0.0
H1738 H 0.74414 0.10701 0.99047 0.0
H1739 H 0.75695 0.09349 0.00013 0.0
H1740 H 0.78835 0.12414 0.19015 0.0
H1741 H 0.78652 0.1168 0.26773 0.0
H1742 H 0.77651 0.12543 0.24611 0.0
H1743 H 0.75284 0.10259 0.27657 0.0
H1744 H 0.76279 0.09392 0.29863 0.0
H1745 H 0.74855 0.08565 0.24186 0.0
H1746 H 0.77135 0.08204 0.02938 0.0
H1747 H 0.7852 0.07204 0.07842 0.0
H1748 H 0.78427 0.09122 0.256 0.0
C1749 C 0.75372 0.11385 0.14535 0.0
C1750 C 0.74759 0.11431 0.08743 0.0
C1751 C 0.74872 0.10678 0.03533 0.0
C1752 C 0.75601 0.0991 0.04028 0.0
C1753 C 0.76205 0.09897 0.09777 0.0
C1754 C 0.76089 0.10602 0.14959 0.0
C1755 C 0.76827 0.10401 0.206 0.0
C1756 C 0.78065 0.11846 0.22882 0.0
C1757 C 0.75746 0.09607 0.25888 0.0
C1758 C 0.7738 0.09478 0.17763 0.0
C1759 C 0.77015 0.09209 0.11504 0.0
C1760 C 0.77422 0.08402 0.07843 0.0
C1761 C 0.78212 0.07842 0.10666 0.0
C1762 C 0.78579 0.08084 0.17099 0.0
C1763 C 0.78159 0.08917 0.20676 0.0
H1764 H 0.03574 0.448 0.53361 0.0
H1765 H 0.03374 0.45248 0.33226 0.0
H1766 H 0.00746 0.44136 0.33871 0.0
H1767 H 1.00359 0.4136 0.54602 0.0
H1768 H 0.99814 0.41754 0.61975 0.0
H1769 H 0.01687 0.42608 0.59981 0.0
H1770 H 0.01924 0.45099 0.61657 0.0
H1771 H 1.00052 0.44253 0.63654 0.0
H1772 H 0.00759 0.45555 0.57424 0.0
H1773 H 0.98159 0.42985 0.36623 0.0
H1774 H 0.95746 0.41818 0.41278 0.0
H1775 H 0.97578 0.42072 0.59677 0.0
C1776 C 0.02976 0.44666 0.49093 0.0
C1777 C 0.03679 0.45113 0.43237 0.0
C1778 C 0.02859 0.44914 0.37758 0.0
C1779 C 0.01366 0.44285 0.38077 0.0
C1780 C 0.00705 0.43856 0.4391 0.0
C1781 C 0.0148 0.44033 0.49324 0.0
C1782 C 0.00497 0.4346 0.5498 0.0
C1783 C 0.00596 0.42222 0.58065 0.0
C1784 C 0.00828 0.44663 0.59707 0.0
C1785 C 0.99051 0.42931 0.51891 0.0
C1786 C 0.99201 0.43176 0.45504 0.0
C1787 C 0.98026 0.42787 0.41617 0.0
C1788 C 0.96659 0.42125 0.44314 0.0
C1789 C 0.96472 0.41853 0.50842 0.0
C1790 C 0.97687 0.42265 0.54675 0.0
H1791 H 0.58817 0.5592 0.60517 0.0
H1792 H 0.59197 0.54271 0.42493 0.0
H1793 H 0.57834 0.55289 0.37528 0.0
H1794 H 0.5521 0.55273 0.5826 0.0
H1795 H 0.55548 0.56892 0.62206 0.0
H1796 H 0.56538 0.56018 0.64379 0.0
H1797 H 0.58924 0.5837 0.62321 0.0
H1798 H 0.57942 0.59251 0.60145 0.0
H1799 H 0.59227 0.59233 0.54792 0.0
H1800 H 0.56475 0.56521 0.34467 0.0
H1801 H 0.55199 0.57882 0.33523 0.0
H1802 H 0.55678 0.58719 0.53529 0.0
C1803 C 0.58609 0.5577 0.5553 0.0
C1804 C 0.59112 0.55016 0.51888 0.0
C1805 C 0.58821 0.54844 0.45375 0.0
C1806 C 0.58048 0.55418 0.42511 0.0
C1807 C 0.57569 0.56157 0.46225 0.0
C1808 C 0.57836 0.56334 0.52592 0.0
C1809 C 0.57212 0.57188 0.55491 0.0
C1810 C 0.56058 0.56289 0.60372 0.0
C1811 C 0.58397 0.58594 0.58355 0.0
C1812 C 0.56559 0.57468 0.49753 0.0
C1813 C 0.56777 0.56863 0.4446 0.0
C1814 C 0.56293 0.56995 0.38581 0.0
C1815 C 0.5557 0.57771 0.38092 0.0
C1816 C 0.55336 0.58403 0.4345 0.0
C1817 C 0.55834 0.58242 0.49354 0.0
H1818 H 0.45098 0.02944 0.59571 0.0
H1819 H 0.45029 0.04813 0.41644 0.0
H1820 H 0.43586 0.02396 0.37149 0.0
H1821 H 0.45436 1.00026 0.53263 0.0
H1822 H 0.443 0.98751 0.59086 0.0
H1823 H 0.45302 0.0063 0.60981 0.0
H1824 H 0.42955 0.00563 0.64282 0.0
H1825 H 0.41945 0.98684 0.62376 0.0
H1826 H 0.41487 0.99919 0.58814 0.0
H1827 H 0.42161 0.99801 0.34547 0.0
H1828 H 0.4091 0.97166 0.33864 0.0
H1829 H 0.41915 0.96938 0.53383 0.0
C1830 C 0.44776 0.02842 0.54705 0.0
C1831 C 0.45174 0.04067 0.50957 0.0
C1832 C 0.44738 0.0389 0.44603 0.0
C1833 C 0.43915 0.02522 0.42008 0.0
C1834 C 0.43538 0.01337 0.45816 0.0
C1835 C 0.43957 0.01479 0.52017 0.0
C1836 C 0.43428 1.00022 0.55021 0.0
C1837 C 0.44692 0.99847 0.57215 0.0
C1838 C 0.42392 0.99783 0.60444 0.0
C1839 C 0.42653 0.99045 0.49528 0.0
C1840 C 0.42724 0.99829 0.44283 0.0
C1841 C 0.42096 0.99174 0.38621 0.0
C1842 C 0.41387 0.97676 0.38284 0.0
C1843 C 0.41314 0.96847 0.43567 0.0
C1844 C 0.4195 0.97544 0.49271 0.0
H1845 H 0.59074 0.03437 0.44836 0.0
H1846 H 0.59236 0.03334 0.65143 0.0
H1847 H 0.57912 0.00689 0.64877 0.0
H1848 H 0.5553 0.00395 0.4304 0.0
H1849 H 0.55963 0.99743 0.36076 0.0
H1850 H 0.56918 0.0163 0.37842 0.0
H1851 H 0.59327 0.01643 0.37295 0.0
H1852 H 0.5838 0.99756 0.35526 0.0
H1853 H 0.59585 0.00417 0.42117 0.0
H1854 H 0.56539 0.98072 0.62458 0.0
H1855 H 0.55265 0.95632 0.58038 0.0
H1856 H 0.56043 0.97409 0.39248 0.0
C1857 C 0.58829 0.02857 0.49225 0.0
C1858 C 0.59254 0.0359 0.55018 0.0
C1859 C 0.5892 0.02794 0.60656 0.0
C1860 C 0.58168 0.01292 0.60552 0.0
C1861 C 0.57764 0.00602 0.5477 0.0
C1862 C 0.58086 0.01355 0.49204 0.0
C1863 C 0.57538 0.00348 0.43628 0.0
C1864 C 0.56421 0.00541 0.3993 0.0
C1865 C 0.58782 0.00554 0.39393 0.0
C1866 C 0.56855 0.98911 0.46935 0.0
C1867 C 0.56993 0.99086 0.53363 0.0
C1868 C 0.56428 0.97921 0.57434 0.0
C1869 C 0.55704 0.96539 0.54874 0.0
C1870 C 0.55558 0.96331 0.48302 0.0
C1871 C 0.56145 0.97535 0.44288 0.0
H1872 H 0.98275 0.5653 0.60681 0.0
H1873 H 0.96278 0.54762 0.42729 0.0
H1874 H 0.9866 0.55872 0.37738 0.0
H1875 H 0.01049 0.59889 0.54848 0.0
H1876 H 0.02399 0.60001 0.60175 0.0
H1877 H 0.00539 0.59035 0.62415 0.0
H1878 H 0.0072 0.56762 0.64537 0.0
H1879 H 0.02583 0.57724 0.62347 0.0
H1880 H 0.01368 0.56072 0.58445 0.0
H1881 H 0.01248 0.57229 0.34612 0.0
H1882 H 0.03883 0.58658 0.33665 0.0
H1883 H 0.04212 0.59534 0.53633 0.0
C1884 C 0.98341 0.56367 0.55712 0.0
C1885 C 0.97091 0.55557 0.52094 0.0
C1886 C 0.97221 0.55375 0.45598 0.0
C1887 C 0.98569 0.56004 0.42714 0.0
C1888 C 0.99779 0.5681 0.4639 0.0
C1889 C 0.99681 0.56987 0.52753 0.0
C1890 C 0.01152 0.57912 0.55614 0.0
C1891 C 0.01292 0.59291 0.58428 0.0
C1892 C 0.01474 0.57067 0.60525 0.0
C1893 C 0.02089 0.58231 0.49861 0.0
C1894 C 0.01275 0.57588 0.44589 0.0
C1895 C 0.01898 0.57735 0.3871 0.0
C1896 C 0.03394 0.58551 0.38215 0.0
C1897 C 0.04251 0.59207 0.43568 0.0
C1898 C 0.03585 0.59047 0.49454 0.0
H1899 H 0.42122 0.44482 0.40535 0.0
H1900 H 0.41592 0.45927 0.58808 0.0
H1901 H 0.4297 0.44911 0.63636 0.0
H1902 H 0.41727 0.41142 0.45741 0.0
H1903 H 0.43049 0.41184 0.40437 0.0
H1904 H 0.42064 0.42068 0.38355 0.0
H1905 H 0.44448 0.44449 0.36733 0.0
H1906 H 0.4544 0.43571 0.38812 0.0
H1907 H 0.4574 0.4515 0.43005 0.0
H1908 H 0.44362 0.43709 0.66535 0.0
H1909 H 0.4565 0.42359 0.67351 0.0
H1910 H 0.4527 0.41663 0.47239 0.0
C1911 C 0.42303 0.44591 0.45545 0.0
C1912 C 0.41752 0.45287 0.49297 0.0
C1913 C 0.42004 0.45399 0.55842 0.0
C1914 C 0.42787 0.44827 0.58628 0.0
C1915 C 0.43311 0.44144 0.54811 0.0
C1916 C 0.4308 0.4402 0.48415 0.0
C1917 C 0.43734 0.43202 0.45417 0.0
C1918 C 0.42574 0.41817 0.42305 0.0
C1919 C 0.4491 0.4415 0.40714 0.0
C1920 C 0.44361 0.4288 0.51135 0.0
C1921 C 0.44109 0.43439 0.56497 0.0
C1922 C 0.44569 0.43269 0.62368 0.0
C1923 C 0.453 0.42501 0.62783 0.0
C1924 C 0.45562 0.41908 0.57363 0.0
C1925 C 0.4509 0.42108 0.51462 0.0
H1926 H 0.25534 0.10056 0.18819 0.0
H1927 H 0.2532 0.09129 0.38703 0.0
H1928 H 0.25239 0.11336 0.41035 0.0
H1929 H 0.27832 0.13823 0.20105 0.0
H1930 H 0.26976 0.14259 0.13917 0.0
H1931 H 0.26944 0.12572 0.13807 0.0
H1932 H 0.24171 0.1122 0.13183 0.0
H1933 H 0.24195 0.12904 0.13276 0.0
H1934 H 0.23164 0.11552 0.19034 0.0
H1935 H 0.25265 0.13692 0.41197 0.0
H1936 H 0.25394 0.16013 0.39179 0.0
H1937 H 0.25603 0.15402 0.19188 0.0
C1938 C 0.25456 0.1031 0.23662 0.0
C1939 C 0.25427 0.09419 0.28584 0.0
C1940 C 0.25339 0.09795 0.3486 0.0
C1941 C 0.25292 0.11046 0.36229 0.0
C1942 C 0.25334 0.11908 0.31268 0.0
C1943 C 0.25412 0.11555 0.25109 0.0
C1944 C 0.25485 0.12684 0.2065 0.0
C1945 C 0.26893 0.13375 0.16901 0.0
C1946 C 0.24176 0.12052 0.16279 0.0
C1947 C 0.25447 0.13733 0.25262 0.0
C1948 C 0.25355 0.13264 0.31362 0.0
C1949 C 0.25331 0.14066 0.36438 0.0
C1950 C 0.25405 0.15384 0.35246 0.0
C1951 C 0.25506 0.15887 0.29031 0.0
C1952 C 0.25521 0.15043 0.23989 0.0
H1953 H 0.8433 0.10978 0.30968 0.0
H1954 H 0.85779 0.08156 0.23679 0.0
H1955 H 0.88251 0.10193 0.23127 0.0
H1956 H 0.86535 0.1396 0.21431 0.0
H1957 H 0.86905 0.15289 0.2738 0.0
H1958 H 0.85261 0.13596 0.27632 0.0
H1959 H 0.85853 0.13158 0.38897 0.0
H1960 H 0.87496 0.14856 0.38696 0.0
H1961 H 0.87538 0.13239 0.40417 0.0
H1962 H 0.90525 0.12553 0.22616 0.0
H1963 H 0.92485 0.15071 0.22679 0.0
H1964 H 0.89596 0.16376 0.30506 0.0
C1965 C 0.85172 0.10785 0.29352 0.0
C1966 C 0.84862 0.09406 0.27385 0.0
C1967 C 0.85991 0.09201 0.25233 0.0
C1968 C 0.87399 0.10352 0.24895 0.0
C1969 C 0.87665 0.11702 0.2676 0.0
C1970 C 0.86588 0.11925 0.28999 0.0
C1971 C 0.8716 0.13494 0.30525 0.0
C1972 C 0.86421 0.14121 0.26501 0.0
C1973 C 0.87003 0.13698 0.37552 0.0
C1974 C 0.88721 0.1412 0.28704 0.0
C1975 C 0.88988 0.13066 0.26545 0.0
C1976 C 0.90334 0.13386 0.24359 0.0
C1977 C 0.91439 0.14819 0.24394 0.0
C1978 C 0.91195 0.15917 0.26624 0.0
C1979 C 0.89818 0.15558 0.2883 0.0
H1980 H 0.9 0.74614 0.29946 0.0
H1981 H 0.92603 0.78284 0.18082 0.0
H1982 H 0.90592 0.78763 0.17232 0.0
H1983 H 0.86766 0.73404 0.21657 0.0
H1984 H 0.85637 0.72835 0.2851 0.0
H1985 H 0.87315 0.72849 0.28591 0.0
H1986 H 0.88108 0.74482 0.38414 0.0
H1987 H 0.8643 0.74471 0.38369 0.0
H1988 H 0.88096 0.76149 0.38211 0.0
H1989 H 0.88251 0.78747 0.17118 0.0
H1990 H 0.85751 0.7824 0.1774 0.0
H1991 H 0.84674 0.74585 0.29722 0.0
C1992 C 0.90154 0.75531 0.27242 0.0
C1993 C 0.9146 0.76417 0.241 0.0
C1994 C 0.91613 0.77595 0.20545 0.0
C1995 C 0.90478 0.77876 0.20042 0.0
C1996 C 0.89199 0.76972 0.23138 0.0
C1997 C 0.89032 0.75825 0.26684 0.0
C1998 C 0.87526 0.74977 0.293 0.0
C1999 C 0.86767 0.73425 0.26867 0.0
C2000 C 0.87542 0.75023 0.36501 0.0
C2001 C 0.86864 0.75813 0.26595 0.0
C2002 C 0.8785 0.76964 0.23083 0.0
C2003 C 0.87474 0.77858 0.19906 0.0
C2004 C 0.86051 0.7756 0.20281 0.0
C2005 C 0.85021 0.76379 0.23807 0.0
C2006 C 0.85441 0.75506 0.27053 0.0
H2007 H 0.10621 0.26262 0.6988 0.0
H2008 H 0.08022 0.22679 0.82182 0.0
H2009 H 0.10012 0.22176 0.83127 0.0
H2010 H 0.12454 0.2462 0.6184 0.0
H2011 H 0.14136 0.26278 0.61447 0.0
H2012 H 0.12476 0.26303 0.61412 0.0
H2013 H 0.13336 0.28005 0.71002 0.0
H2014 H 0.14995 0.27982 0.71081 0.0
H2015 H 0.13892 0.27482 0.78009 0.0
H2016 H 0.12321 0.22148 0.83268 0.0
H2017 H 0.14787 0.22569 0.82442 0.0
H2018 H 0.15899 0.26158 0.69982 0.0
C2019 C 0.10465 0.25359 0.727 0.0
C2020 C 0.09164 0.24505 0.7594 0.0
C2021 C 0.09007 0.23344 0.79643 0.0
C2022 C 0.10131 0.2305 0.80208 0.0
C2023 C 0.11406 0.23923 0.77025 0.0
C2024 C 0.11578 0.25051 0.7332 0.0
C2025 C 0.13077 0.25855 0.70586 0.0
C2026 C 0.13033 0.25758 0.63394 0.0
C2027 C 0.13871 0.27424 0.72804 0.0
C2028 C 0.13725 0.25015 0.73402 0.0
C2029 C 0.1274 0.23903 0.77085 0.0
C2030 C 0.13098 0.23007 0.80353 0.0
C2031 C 0.14503 0.23257 0.79863 0.0
C2032 C 0.15532 0.24391 0.76127 0.0
C2033 C 0.15131 0.25274 0.72826 0.0
H2034 H 0.76082 0.85512 0.79138 0.0
H2035 H 0.74822 0.84227 0.5985 0.0
H2036 H 0.7487 0.86511 0.57855 0.0
H2037 H 0.73953 0.87097 0.81502 0.0
H2038 H 0.75236 0.88541 0.86344 0.0
H2039 H 0.75227 0.86867 0.861 0.0
H2040 H 0.77902 0.88202 0.82855 0.0
H2041 H 0.77921 0.89883 0.83104 0.0
H2042 H 0.7846 0.89352 0.76069 0.0
H2043 H 0.74879 0.88856 0.5819 0.0
H2044 H 0.74868 0.91085 0.60805 0.0
H2045 H 0.76138 0.90847 0.79858 0.0
C2046 C 0.7584 0.85721 0.74465 0.0
C2047 C 0.75455 0.84695 0.69635 0.0
C2048 C 0.75126 0.85001 0.6361 0.0
C2049 C 0.75151 0.86296 0.62433 0.0
C2050 C 0.75514 0.87276 0.67324 0.0
C2051 C 0.75858 0.87007 0.73215 0.0
C2052 C 0.76141 0.88204 0.77742 0.0
C2053 C 0.75076 0.87643 0.83245 0.0
C2054 C 0.77699 0.88955 0.80079 0.0
C2055 C 0.75876 0.89178 0.73512 0.0
C2056 C 0.75524 0.88627 0.67511 0.0
C2057 C 0.7517 0.89304 0.62855 0.0
C2058 C 0.75165 0.90569 0.64384 0.0
C2059 C 0.75511 0.91145 0.70519 0.0
C2060 C 0.75886 0.90444 0.75107 0.0
H2061 H 0.15234 0.90501 0.81901 0.0
H2062 H 0.16249 0.91153 0.62064 0.0
H2063 H 0.14036 0.8889 0.59681 0.0
H2064 H 0.13864 0.8674 0.81894 0.0
H2065 H 0.12457 0.86337 0.87479 0.0
H2066 H 0.14073 0.88056 0.87653 0.0
H2067 H 0.12577 0.89323 0.86639 0.0
H2068 H 0.10954 0.87606 0.86479 0.0
H2069 H 0.11338 0.88868 0.8021 0.0
H2070 H 0.11804 0.86514 0.59433 0.0
H2071 H 0.09658 0.84165 0.61301 0.0
H2072 H 0.10039 0.85012 0.81303 0.0
C2073 C 0.14979 0.90175 0.77053 0.0
C2074 C 0.15912 0.91007 0.7216 0.0
C2075 C 0.1555 0.90536 0.65884 0.0
C2076 C 0.14294 0.89253 0.64482 0.0
C2077 C 0.13407 0.88449 0.69406 0.0
C2078 C 0.13727 0.8889 0.75565 0.0
C2079 C 0.1261 0.87794 0.79974 0.0
C2080 C 0.13292 0.87196 0.84517 0.0
C2081 C 0.11823 0.88436 0.83535 0.0
C2082 C 0.11625 0.86661 0.75328 0.0
C2083 C 0.12106 0.87068 0.6926 0.0
C2084 C 0.1141 0.86188 0.64157 0.0
C2085 C 0.10192 0.84853 0.65272 0.0
C2086 C 0.09677 0.84406 0.71443 0.0
C2087 C 0.104 0.8533 0.76531 0.0
H2088 H 0.93419 0.44581 0.64968 0.0
H2089 H 0.89516 0.4208 0.54273 0.0
H2090 H 0.89084 0.4412 0.54302 0.0
H2091 H 0.92124 0.46561 0.74511 0.0
H2092 H 0.9382 0.48207 0.74232 0.0
H2093 H 0.93766 0.46509 0.73874 0.0
H2094 H 0.95198 0.47273 0.63476 0.0
H2095 H 0.95255 0.4897 0.63801 0.0
H2096 H 0.94531 0.47843 0.56991 0.0
H2097 H 0.89147 0.46461 0.54811 0.0
H2098 H 0.89727 0.48979 0.55651 0.0
H2099 H 0.9359 0.5 0.65992 0.0
C2100 C 0.92462 0.44457 0.62729 0.0
C2101 C 0.91496 0.43168 0.59648 0.0
C2102 C 0.90269 0.43056 0.56673 0.0
C2103 C 0.90011 0.44208 0.56678 0.0
C2104 C 0.90991 0.45469 0.59678 0.0
C2105 C 0.92192 0.45605 0.62655 0.0
C2106 C 0.93115 0.47111 0.65198 0.0
C2107 C 0.93212 0.47095 0.72381 0.0
C2108 C 0.94613 0.47842 0.62185 0.0
C2109 C 0.92257 0.47803 0.63087 0.0
C2110 C 0.9103 0.46831 0.59956 0.0
C2111 C 0.90097 0.47229 0.57312 0.0
C2112 C 0.90436 0.48662 0.57809 0.0
C2113 C 0.91697 0.49683 0.60922 0.0
C2114 C 0.92608 0.4924 0.63663 0.0
H2115 H 0.5166 0.43887 0.66941 0.0
H2116 H 0.52444 0.41675 0.51821 0.0
H2117 H 0.54947 0.43654 0.51092 0.0
H2118 H 0.53628 0.47333 0.60232 0.0
H2119 H 0.54317 0.48263 0.67548 0.0
H2120 H 0.52637 0.46605 0.67387 0.0
H2121 H 0.53594 0.45533 0.75666 0.0
H2122 H 0.5528 0.4719 0.75851 0.0
H2123 H 0.55241 0.45531 0.74185 0.0
H2124 H 0.57321 0.45917 0.51601 0.0
H2125 H 0.59361 0.48372 0.52891 0.0
H2126 H 0.57027 0.49179 0.67389 0.0
C2127 C 0.52369 0.43809 0.63569 0.0
C2128 C 0.51866 0.42621 0.59483 0.0
C2129 C 0.52812 0.42573 0.55015 0.0
C2130 C 0.54236 0.43689 0.54581 0.0
C2131 C 0.54697 0.44854 0.58615 0.0
C2132 C 0.53792 0.44928 0.63004 0.0
C2133 C 0.54526 0.46354 0.6642 0.0
C2134 C 0.53729 0.47188 0.65329 0.0
C2135 C 0.54669 0.46139 0.73448 0.0
C2136 C 0.55976 0.47075 0.6321 0.0
C2137 C 0.56058 0.46182 0.58784 0.0
C2138 C 0.57273 0.46622 0.55082 0.0
C2139 C 0.58428 0.48019 0.55854 0.0
C2140 C 0.58357 0.48966 0.60251 0.0
C2141 C 0.57118 0.48476 0.64024 0.0
H2142 H 0.57307 0.08531 0.49637 0.0
H2143 H 0.58467 0.0905 0.69328 0.0
H2144 H 0.56328 0.09231 0.7184 0.0
H2145 H 0.55871 0.10975 0.49443 0.0
H2146 H 0.5444 0.09874 0.44114 0.0
H2147 H 0.56106 0.09863 0.43803 0.0
H2148 H 0.54728 0.07107 0.45245 0.0
H2149 H 0.5306 0.0711 0.45573 0.0
H2150 H 0.53555 0.06334 0.51893 0.0
H2151 H 0.54006 0.0924 0.72313 0.0
H2152 H 0.51665 0.09089 0.70688 0.0
H2153 H 0.51998 0.08571 0.507 0.0
C2154 C 0.57119 0.087 0.54465 0.0
C2155 C 0.58058 0.08782 0.59286 0.0
C2156 C 0.57766 0.08988 0.65554 0.0
C2157 C 0.56553 0.09093 0.6703 0.0
C2158 C 0.55641 0.08993 0.62186 0.0
C2159 C 0.5591 0.08805 0.56026 0.0
C2160 C 0.54731 0.08684 0.51742 0.0
C2161 C 0.55322 0.09923 0.46995 0.0
C2162 C 0.53974 0.07222 0.48419 0.0
C2163 C 0.5375 0.08816 0.56466 0.0
C2164 C 0.543 0.08999 0.6246 0.0
C2165 C 0.5357 0.09107 0.67634 0.0
C2166 C 0.5224 0.09019 0.66666 0.0
C2167 C 0.51651 0.08825 0.60571 0.0
C2168 C 0.52425 0.08731 0.5541 0.0
H2169 H 0.77467 0.59822 0.02426 0.0
H2170 H 0.74975 0.56214 0.14756 0.0
H2171 H 0.7698 0.55721 0.15189 0.0
H2172 H 0.79325 0.58244 0.93841 0.0
H2173 H 0.80985 0.59925 0.93457 0.0
H2174 H 0.79302 0.59904 0.93594 0.0
H2175 H 0.80151 0.61579 0.03277 0.0
H2176 H 0.81833 0.61603 0.03177 0.0
H2177 H 0.80748 0.61058 0.10165 0.0
H2178 H 0.79324 0.55743 0.15005 0.0
H2179 H 0.81835 0.56286 0.14264 0.0
H2180 H 0.82815 0.59881 0.02055 0.0
C2181 C 0.77333 0.5891 0.05111 0.0
C2182 C 0.7606 0.58048 0.08521 0.0
C2183 C 0.75937 0.56883 0.12081 0.0
C2184 C 0.7707 0.56594 0.12346 0.0
C2185 C 0.7832 0.57478 0.09019 0.0
C2186 C 0.78457 0.5861 0.0545 0.0
C2187 C 0.79947 0.59453 0.02653 0.0
C2188 C 0.79886 0.59376 0.95458 0.0
C2189 C 0.80715 0.61015 0.04958 0.0
C2190 C 0.80635 0.58635 0.05304 0.0
C2191 C 0.79674 0.57492 0.08922 0.0
C2192 C 0.8008 0.56623 0.12121 0.0
C2193 C 0.8151 0.56941 0.11675 0.0
C2194 C 0.82518 0.58118 0.08063 0.0
C2195 C 0.82064 0.58961 0.04774 0.0
H2196 H 0.42308 0.18516 0.1542 0.0
H2197 H 0.42547 0.17918 0.95439 0.0
H2198 H 0.42679 0.20239 0.93416 0.0
H2199 H 0.40075 0.20054 0.14453 0.0
H2200 H 0.40939 0.2131 0.20756 0.0
H2201 H 0.40948 0.19644 0.2066 0.0
H2202 H 0.4372 0.21031 0.21316 0.0
H2203 H 0.43719 0.22703 0.21426 0.0
H2204 H 0.44742 0.22393 0.1558 0.0
H2205 H 0.42645 0.2256 0.9353 0.0
H2206 H 0.42492 0.2473 0.95794 0.0
H2207 H 0.42309 0.23839 0.15704 0.0
C2208 C 0.42405 0.18881 0.10624 0.0
C2209 C 0.42422 0.18037 0.05584 0.0
C2210 C 0.42537 0.18548 0.99373 0.0
C2211 C 0.42613 0.19865 0.98178 0.0
C2212 C 0.42578 0.20664 0.03244 0.0
C2213 C 0.42483 0.20196 0.09347 0.0
C2214 C 0.42422 0.21239 0.13936 0.0
C2215 C 0.41012 0.20519 0.17669 0.0
C2216 C 0.43729 0.2188 0.18323 0.0
C2217 C 0.42478 0.22358 0.09458 0.0
C2218 C 0.42571 0.22008 0.03312 0.0
C2219 C 0.42586 0.22852 0.98329 0.0
C2220 C 0.42496 0.24081 0.99659 0.0
C2221 C 0.42397 0.24459 0.05921 0.0
C2222 C 0.42399 0.23587 0.10871 0.0
H2223 H 0.77882 0.17851 0.02201 0.0
H2224 H 0.74929 0.19109 0.09696 0.0
H2225 H 0.7693 0.2159 0.10973 0.0
H2226 H 0.80836 0.20014 0.1206 0.0
H2227 H 0.82176 0.20483 0.06062 0.0
H2228 H 0.8051 0.18813 0.05585 0.0
H2229 H 0.8005 0.19493 0.94532 0.0
H2230 H 0.81719 0.21163 0.94957 0.0
H2231 H 0.80075 0.21165 0.93432 0.0
H2232 H 0.79276 0.23881 0.12225 0.0
H2233 H 0.81773 0.25891 0.1237 0.0
H2234 H 0.83185 0.23201 0.03361 0.0
C2235 C 0.77656 0.18653 0.04061 0.0
C2236 C 0.76252 0.18289 0.05868 0.0
C2237 C 0.75996 0.19367 0.08261 0.0
C2238 C 0.77126 0.20777 0.09023 0.0
C2239 C 0.78501 0.21097 0.07272 0.0
C2240 C 0.78768 0.20072 0.04746 0.0
C2241 C 0.80343 0.20703 0.03188 0.0
C2242 C 0.81005 0.19959 0.0695 0.0
C2243 C 0.80559 0.20627 0.96106 0.0
C2244 C 0.80925 0.22237 0.05332 0.0
C2245 C 0.79845 0.22437 0.07721 0.0
C2246 C 0.80127 0.23742 0.10286 0.0
C2247 C 0.81548 0.24875 0.10372 0.0
C2248 C 0.82666 0.24703 0.07828 0.0
C2249 C 0.82347 0.23367 0.05257 0.0
H2250 H 0.58912 0.76626 0.84802 0.0
H2251 H 0.57931 0.75373 0.04301 0.0
H2252 H 0.57747 0.77533 0.06362 0.0
H2253 H 0.61115 0.8036 0.876 0.0
H2254 H 0.60512 0.80902 0.80802 0.0
H2255 H 0.60488 0.7922 0.80785 0.0
H2256 H 0.57781 0.7789 0.78089 0.0
H2257 H 0.57797 0.7957 0.78089 0.0
H2258 H 0.56558 0.78124 0.83044 0.0
H2259 H 0.57758 0.79875 0.06382 0.0
H2260 H 0.57976 0.82235 0.04369 0.0
H2261 H 0.58963 0.81968 0.8487 0.0
C2262 C 0.58644 0.76798 0.89491 0.0
C2263 C 0.5843 0.75829 0.9439 0.0
C2264 C 0.58096 0.761 0.00475 0.0
C2265 C 0.57988 0.77323 0.01689 0.0
C2266 C 0.58217 0.78264 0.96768 0.0
C2267 C 0.58537 0.78016 0.90787 0.0
C2268 C 0.58781 0.7922 0.86377 0.0
C2269 C 0.60315 0.7997 0.83738 0.0
C2270 C 0.57663 0.78667 0.81088 0.0
C2271 C 0.5856 0.8019 0.9082 0.0
C2272 C 0.5823 0.79616 0.96786 0.0
C2273 C 0.58009 0.80331 0.01721 0.0
C2274 C 0.58135 0.81671 0.00534 0.0
C2275 C 0.58482 0.82283 0.94464 0.0
C2276 C 0.58689 0.81524 0.89552 0.0
H2277 H 0.19056 0.76611 0.85688 0.0
H2278 H 0.17597 0.76636 0.04615 0.0
H2279 H 0.19821 0.78911 0.06729 0.0
H2280 H 0.2287 0.78197 0.89284 0.0
H2281 H 0.23439 0.79264 0.82247 0.0
H2282 H 0.21779 0.77582 0.82324 0.0
H2283 H 0.20418 0.78868 0.78655 0.0
H2284 H 0.22073 0.80552 0.78564 0.0
H2285 H 0.20579 0.80362 0.83115 0.0
H2286 H 0.22158 0.81204 0.06753 0.0
H2287 H 0.24411 0.83441 0.04517 0.0
H2288 H 0.24343 0.82005 0.8545 0.0
C2289 C 0.19216 0.77088 0.90296 0.0
C2290 C 0.18159 0.76443 0.95008 0.0
C2291 C 0.18393 0.77112 0.00944 0.0
C2292 C 0.19655 0.78401 0.02196 0.0
C2293 C 0.20671 0.79017 0.97449 0.0
C2294 C 0.20465 0.78391 0.91604 0.0
C2295 C 0.21694 0.79324 0.8723 0.0
C2296 C 0.22493 0.78545 0.8515 0.0
C2297 C 0.21159 0.79805 0.81557 0.0
C2298 C 0.22614 0.80574 0.91522 0.0
C2299 C 0.22009 0.80366 0.97412 0.0
C2300 C 0.22645 0.81378 0.02164 0.0
C2301 C 0.23926 0.82646 0.00849 0.0
C2302 C 0.24554 0.82898 0.94816 0.0
C2303 C 0.23892 0.8184 0.90114 0.0
H2304 H 0.18641 0.4194 0.8503 0.0
H2305 H 0.1804 0.42219 0.04976 0.0
H2306 H 0.20351 0.4233 0.07064 0.0
H2307 H 0.20091 0.39639 0.86282 0.0
H2308 H 0.21346 0.40449 0.79931 0.0
H2309 H 0.19706 0.40508 0.79973 0.0
H2310 H 0.21153 0.43275 0.79075 0.0
H2311 H 0.22799 0.43225 0.79021 0.0
H2312 H 0.2253 0.44298 0.84749 0.0
H2313 H 0.22679 0.42307 0.07004 0.0
H2314 H 0.24814 0.42087 0.04828 0.0
H2315 H 0.23872 0.4177 0.8493 0.0
C2316 C 0.19006 0.42046 0.8983 0.0
C2317 C 0.18166 0.42082 0.94844 0.0
C2318 C 0.18669 0.42195 0.01065 0.0
C2319 C 0.19981 0.42262 0.02295 0.0
C2320 C 0.20776 0.42208 0.97252 0.0
C2321 C 0.20307 0.42101 0.91143 0.0
C2322 C 0.21327 0.41987 0.86595 0.0
C2323 C 0.20572 0.40561 0.82985 0.0
C2324 C 0.21992 0.43273 0.82095 0.0
C2325 C 0.22436 0.42032 0.91103 0.0
C2326 C 0.22104 0.42172 0.97224 0.0
C2327 C 0.22953 0.42205 0.02225 0.0
C2328 C 0.24164 0.4208 0.00943 0.0
C2329 C 0.24512 0.41915 0.94713 0.0
C2330 C 0.23639 0.41903 0.8974 0.0
H2331 H 0.44521 0.93676 0.39746 0.0
H2332 H 0.41427 0.89161 0.42059 0.0
H2333 H 0.43404 0.8862 0.42511 0.0
H2334 H 0.46942 0.93167 0.29702 0.0
H2335 H 0.48527 0.94653 0.33022 0.0
H2336 H 0.46868 0.94676 0.32918 0.0
H2337 H 0.47034 0.95064 0.44942 0.0
H2338 H 0.48691 0.95036 0.45087 0.0
H2339 H 0.47214 0.93815 0.49949 0.0
H2340 H 0.45735 0.88598 0.43272 0.0
H2341 H 0.48231 0.89068 0.4339 0.0
H2342 H 0.49785 0.93576 0.39933 0.0
C2343 C 0.4426 0.92573 0.4033 0.0
C2344 C 0.42823 0.91459 0.40894 0.0
C2345 C 0.42522 0.90029 0.41608 0.0
C2346 C 0.43637 0.89713 0.41888 0.0
C2347 C 0.45045 0.90838 0.41364 0.0
C2348 C 0.45358 0.92237 0.40524 0.0
C2349 C 0.46958 0.93246 0.39975 0.0
C2350 C 0.47346 0.93978 0.33519 0.0
C2351 C 0.47506 0.94356 0.45306 0.0
C2352 C 0.47498 0.92199 0.40684 0.0
C2353 C 0.4638 0.90817 0.41543 0.0
C2354 C 0.46619 0.89674 0.42541 0.0
C2355 C 0.48038 0.89951 0.42621 0.0
C2356 C 0.49196 0.91354 0.41623 0.0
C2357 C 0.48918 0.92489 0.40635 0.0
H2358 H 0.08855 0.57009 0.48667 0.0
H2359 H 0.09714 0.58186 0.29043 0.0
H2360 H 0.09821 0.55986 0.2695 0.0
H2361 H 0.11143 0.55414 0.5006 0.0
H2362 H 0.09914 0.54002 0.5518 0.0
H2363 H 0.09988 0.5571 0.55202 0.0
H2364 H 0.07264 0.54444 0.52905 0.0
H2365 H 0.07182 0.52734 0.52866 0.0
H2366 H 0.06558 0.53286 0.46172 0.0
H2367 H 0.09722 0.53604 0.26891 0.0
H2368 H 0.09419 0.51208 0.2887 0.0
H2369 H 0.08618 0.51574 0.48526 0.0
C2370 C 0.09083 0.56812 0.43944 0.0
C2371 C 0.09283 0.57772 0.39019 0.0
C2372 C 0.09562 0.57468 0.32891 0.0
C2373 C 0.09626 0.56222 0.31657 0.0
C2374 C 0.0941 0.5529 0.36602 0.0
C2375 C 0.09146 0.5557 0.42627 0.0
C2376 C 0.08897 0.54367 0.47054 0.0
C2377 C 0.10055 0.54906 0.52176 0.0
C2378 C 0.07386 0.53666 0.49916 0.0
C2379 C 0.09047 0.53359 0.42565 0.0
C2380 C 0.09349 0.53915 0.36565 0.0
C2381 C 0.09495 0.53162 0.31579 0.0
C2382 C 0.09321 0.51802 0.32748 0.0
C2383 C 0.09001 0.51207 0.38851 0.0
C2384 C 0.08873 0.52004 0.43818 0.0
H2385 H 0.49201 0.56395 0.33768 0.0
H2386 H 0.48466 0.58564 0.49232 0.0
H2387 H 0.45977 0.56572 0.50118 0.0
H2388 H 0.45562 0.54735 0.26914 0.0
H2389 H 0.45527 0.53086 0.2505 0.0
H2390 H 0.47206 0.54752 0.25126 0.0
H2391 H 0.48231 0.5368 0.33079 0.0
H2392 H 0.46557 0.52014 0.33035 0.0
H2393 H 0.47291 0.52936 0.40328 0.0
H2394 H 0.43646 0.54308 0.49862 0.0
H2395 H 0.41618 0.51852 0.48752 0.0
H2396 H 0.43834 0.51068 0.33628 0.0
C2397 C 0.48503 0.5646 0.37246 0.0
C2398 C 0.49018 0.57639 0.41397 0.0
C2399 C 0.48089 0.57673 0.45994 0.0
C2400 C 0.46673 0.56549 0.46518 0.0
C2401 C 0.46202 0.55393 0.42432 0.0
C2402 C 0.47086 0.55334 0.3789 0.0
C2403 C 0.46339 0.53911 0.34436 0.0
C2404 C 0.46147 0.54135 0.27468 0.0
C2405 C 0.47153 0.53087 0.35273 0.0
C2406 C 0.44909 0.53174 0.37826 0.0
C2407 C 0.44852 0.54059 0.42365 0.0
C2408 C 0.43672 0.53609 0.46289 0.0
C2409 C 0.42525 0.52209 0.45624 0.0
C2410 C 0.42564 0.51269 0.41091 0.0
C2411 C 0.43767 0.51767 0.37086 0.0
loop_
_geom_bond_atom_site_label_1
_geom_bond_atom_site_label_2
_geom_bond_distance
_geom_bond_site_symmetry_2
_ccdc_geom_bond_type
In0 O1 2.294 . S
In0 O2 2.326 . S
In0 O6 2.266 . S
In0 O7 2.326 . S
In0 O8 2.266 . S
In0 O9 2.326 . S
In0 O11 2.294 . S
In0 O12 2.326 . S
O1 In0 2.294 . S
O1 C10 1.240 . S
O2 In0 2.326 . S
O2 C10 1.252 . S
C3 O6 1.252 . S
C3 O7 1.260 . S
C4 O11 1.240 . S
C4 O12 1.252 . S
C5 O8 1.252 . S
C5 O9 1.260 . S
O6 In0 2.266 . S
O6 C3 1.252 . S
O7 In0 2.326 . S
O7 C3 1.260 . S
O8 In0 2.266 . S
O8 C5 1.252 . S
O9 In0 2.326 . S
O9 C5 1.260 . S
C10 O1 1.240 . S
C10 O2 1.252 . S
O11 In0 2.294 . S
O11 C4 1.240 . S
O12 In0 2.326 . S
O12 C4 1.252 . S
In13 O14 2.294 . S
In13 O15 2.326 . S
In13 O19 2.266 . S
In13 O20 2.326 . S
In13 O21 2.266 . S
In13 O22 2.326 . S
In13 O24 2.294 . S
In13 O25 2.326 . S
O14 In13 2.294 . S
O14 C23 1.240 . S
O15 In13 2.326 . S
O15 C23 1.252 . S
C16 O19 1.252 . S
C16 O20 1.260 . S
C17 O24 1.240 . S
C17 O25 1.252 . S
C18 O21 1.252 . S
C18 O22 1.260 . S
O19 In13 2.266 . S
O19 C16 1.252 . S
O20 In13 2.326 . S
O20 C16 1.260 . S
O21 In13 2.266 . S
O21 C18 1.252 . S
O22 In13 2.326 . S
O22 C18 1.260 . S
C23 O14 1.240 . S
C23 O15 1.252 . S
O24 In13 2.294 . S
O24 C17 1.240 . S
O25 In13 2.326 . S
O25 C17 1.252 . S
In26 O27 2.294 . S
In26 O28 2.326 . S
In26 O32 2.266 . S
In26 O33 2.326 . S
In26 O34 2.266 . S
In26 O35 2.326 . S
In26 O37 2.294 . S
In26 O38 2.326 . S
O27 In26 2.294 . S
O27 C36 1.240 . S
O28 In26 2.326 . S
O28 C36 1.252 . S
C29 O32 1.252 . S
C29 O33 1.260 . S
C30 O37 1.240 . S
C30 O38 1.252 . S
C31 O34 1.252 . S
C31 O35 1.260 . S
O32 In26 2.266 . S
O32 C29 1.252 . S
O33 In26 2.326 . S
O33 C29 1.260 . S
O34 In26 2.266 . S
O34 C31 1.252 . S
O35 In26 2.326 . S
O35 C31 1.260 . S
C36 O27 1.240 . S
C36 O28 1.252 . S
O37 In26 2.294 . S
O37 C30 1.240 . S
O38 In26 2.326 . S
O38 C30 1.252 . S
In39 O40 2.294 . S
In39 O41 2.326 . S
In39 O45 2.266 . S
In39 O46 2.326 . S
In39 O47 2.266 . S
In39 O48 2.326 . S
In39 O50 2.294 . S
In39 O51 2.326 . S
O40 In39 2.294 . S
O40 C49 1.240 . S
O41 In39 2.326 . S
O41 C49 1.252 . S
C42 O45 1.252 . S
C42 O46 1.260 . S
C43 O50 1.240 . S
C43 O51 1.252 . S
C44 O47 1.252 . S
C44 O48 1.260 . S
O45 In39 2.266 . S
O45 C42 1.252 . S
O46 In39 2.326 . S
O46 C42 1.260 . S
O47 In39 2.266 . S
O47 C44 1.252 . S
O48 In39 2.326 . S
O48 C44 1.260 . S
C49 O40 1.240 . S
C49 O41 1.252 . S
O50 In39 2.294 . S
O50 C43 1.240 . S
O51 In39 2.326 . S
O51 C43 1.252 . S
In52 O53 2.294 . S
In52 O54 2.326 . S
In52 O58 2.266 . S
In52 O59 2.326 . S
In52 O60 2.266 . S
In52 O61 2.326 . S
In52 O63 2.294 . S
In52 O64 2.326 . S
O53 In52 2.294 . S
O53 C62 1.240 . S
O54 In52 2.326 . S
O54 C62 1.252 . S
C55 O58 1.252 . S
C55 O59 1.260 . S
C56 O63 1.240 . S
C56 O64 1.252 . S
C57 O60 1.252 . S
C57 O61 1.260 . S
O58 In52 2.266 . S
O58 C55 1.252 . S
O59 In52 2.326 . S
O59 C55 1.260 . S
O60 In52 2.266 . S
O60 C57 1.252 . S
O61 In52 2.326 . S
O61 C57 1.260 . S
C62 O53 1.240 . S
C62 O54 1.252 . S
O63 In52 2.294 . S
O63 C56 1.240 . S
O64 In52 2.326 . S
O64 C56 1.252 . S
In65 O66 2.294 . S
In65 O67 2.326 . S
In65 O71 2.266 . S
In65 O72 2.326 . S
In65 O73 2.266 . S
In65 O74 2.326 . S
In65 O76 2.294 . S
In65 O77 2.326 . S
O66 In65 2.294 . S
O66 C75 1.240 . S
O67 In65 2.326 . S
O67 C75 1.252 . S
C68 O71 1.252 . S
C68 O72 1.260 . S
C69 O76 1.240 . S
C69 O77 1.252 . S
C70 O73 1.252 . S
C70 O74 1.260 . S
O71 In65 2.266 . S
O71 C68 1.252 . S
O72 In65 2.326 . S
O72 C68 1.260 . S
O73 In65 2.266 . S
O73 C70 1.252 . S
O74 In65 2.326 . S
O74 C70 1.260 . S
C75 O66 1.240 . S
C75 O67 1.252 . S
O76 In65 2.294 . S
O76 C69 1.240 . S
O77 In65 2.326 . S
O77 C69 1.252 . S
In78 O79 2.294 . S
In78 O80 2.326 . S
In78 O84 2.266 . S
In78 O85 2.326 . S
In78 O86 2.266 . S
In78 O87 2.326 . S
In78 O89 2.294 . S
In78 O90 2.326 . S
O79 In78 2.294 . S
O79 C88 1.240 . S
O80 In78 2.326 . S
O80 C88 1.252 . S
C81 O84 1.252 . S
C81 O85 1.260 . S
C82 O89 1.240 . S
C82 O90 1.252 . S
C83 O86 1.252 . S
C83 O87 1.260 . S
O84 In78 2.266 . S
O84 C81 1.252 . S
O85 In78 2.326 . S
O85 C81 1.260 . S
O86 In78 2.266 . S
O86 C83 1.252 . S
O87 In78 2.326 . S
O87 C83 1.260 . S
C88 O79 1.240 . S
C88 O80 1.252 . S
O89 In78 2.294 . S
O89 C82 1.240 . S
O90 In78 2.326 . S
O90 C82 1.252 . S
In91 O92 2.294 . S
In91 O93 2.326 . S
In91 O97 2.266 . S
In91 O98 2.326 . S
In91 O99 2.266 . S
In91 O100 2.326 . S
In91 O102 2.294 . S
In91 O103 2.326 . S
O92 In91 2.294 . S
O92 C101 1.240 . S
O93 In91 2.326 . S
O93 C101 1.252 . S
C94 O97 1.252 . S
C94 O98 1.260 . S
C95 O102 1.240 . S
C95 O103 1.252 . S
C96 O99 1.252 . S
C96 O100 1.260 . S
O97 In91 2.266 . S
O97 C94 1.252 . S
O98 In91 2.326 . S
O98 C94 1.260 . S
O99 In91 2.266 . S
O99 C96 1.252 . S
O100 In91 2.326 . S
O100 C96 1.260 . S
C101 O92 1.240 . S
C101 O93 1.252 . S
O102 In91 2.294 . S
O102 C95 1.240 . S
O103 In91 2.326 . S
O103 C95 1.252 . S
In104 O105 2.294 . S
In104 O106 2.326 . S
In104 O110 2.266 . S
In104 O111 2.326 . S
In104 O112 2.266 . S
In104 O113 2.326 . S
In104 O115 2.294 . S
In104 O116 2.326 . S
O105 In104 2.294 . S
O105 C114 1.240 . S
O106 In104 2.326 . S
O106 C114 1.252 . S
C107 O110 1.252 . S
C107 O111 1.260 . S
C108 O115 1.240 . S
C108 O116 1.252 . S
C109 O112 1.252 . S
C109 O113 1.260 . S
O110 In104 2.266 . S
O110 C107 1.252 . S
O111 In104 2.326 . S
O111 C107 1.260 . S
O112 In104 2.266 . S
O112 C109 1.252 . S
O113 In104 2.326 . S
O113 C109 1.260 . S
C114 O105 1.240 . S
C114 O106 1.252 . S
O115 In104 2.294 . S
O115 C108 1.240 . S
O116 In104 2.326 . S
O116 C108 1.252 . S
In117 O118 2.294 . S
In117 O119 2.326 . S
In117 O123 2.266 . S
In117 O124 2.326 . S
In117 O125 2.266 . S
In117 O126 2.326 . S
In117 O128 2.294 . S
In117 O129 2.326 . S
O118 In117 2.294 . S
O118 C127 1.240 . S
O119 In117 2.326 . S
O119 C127 1.252 . S
C120 O123 1.252 . S
C120 O124 1.260 . S
C121 O128 1.240 . S
C121 O129 1.252 . S
C122 O125 1.252 . S
C122 O126 1.260 . S
O123 In117 2.266 . S
O123 C120 1.252 . S
O124 In117 2.326 . S
O124 C120 1.260 . S
O125 In117 2.266 . S
O125 C122 1.252 . S
O126 In117 2.326 . S
O126 C122 1.260 . S
C127 O118 1.240 . S
C127 O119 1.252 . S
O128 In117 2.294 . S
O128 C121 1.240 . S
O129 In117 2.326 . S
O129 C121 1.252 . S
In130 O131 2.294 . S
In130 O132 2.326 . S
In130 O136 2.266 . S
In130 O137 2.326 . S
In130 O138 2.266 . S
In130 O139 2.326 . S
In130 O141 2.294 . S
In130 O142 2.326 . S
O131 In130 2.294 . S
O131 C140 1.240 . S
O132 In130 2.326 . S
O132 C140 1.252 . S
C133 O136 1.252 . S
C133 O137 1.260 . S
C134 O141 1.240 . S
C134 O142 1.252 . S
C135 O138 1.252 . S
C135 O139 1.260 . S
O136 In130 2.266 . S
O136 C133 1.252 . S
O137 In130 2.326 . S
O137 C133 1.260 . S
O138 In130 2.266 . S
O138 C135 1.252 . S
O139 In130 2.326 . S
O139 C135 1.260 . S
C140 O131 1.240 . S
C140 O132 1.252 . S
O141 In130 2.294 . S
O141 C134 1.240 . S
O142 In130 2.326 . S
O142 C134 1.252 . S
In143 O144 2.294 . S
In143 O145 2.326 . S
In143 O149 2.266 . S
In143 O150 2.326 . S
In143 O151 2.266 . S
In143 O152 2.326 . S
In143 O154 2.294 . S
In143 O155 2.326 . S
O144 In143 2.294 . S
O144 C153 1.240 . S
O145 In143 2.326 . S
O145 C153 1.252 . S
C146 O149 1.252 . S
C146 O150 1.260 . S
C147 O154 1.240 . S
C147 O155 1.252 . S
C148 O151 1.252 . S
C148 O152 1.260 . S
O149 In143 2.266 . S
O149 C146 1.252 . S
O150 In143 2.326 . S
O150 C146 1.260 . S
O151 In143 2.266 . S
O151 C148 1.252 . S
O152 In143 2.326 . S
O152 C148 1.260 . S
C153 O144 1.240 . S
C153 O145 1.252 . S
O154 In143 2.294 . S
O154 C147 1.240 . S
O155 In143 2.326 . S
O155 C147 1.252 . S
In156 O157 2.294 . S
In156 O158 2.326 . S
In156 O162 2.266 . S
In156 O163 2.326 . S
In156 O164 2.266 . S
In156 O165 2.326 . S
In156 O167 2.294 . S
In156 O168 2.326 . S
O157 In156 2.294 . S
O157 C166 1.240 . S
O158 In156 2.326 . S
O158 C166 1.252 . S
C159 O162 1.252 . S
C159 O163 1.260 . S
C160 O167 1.240 . S
C160 O168 1.252 . S
C161 O164 1.252 . S
C161 O165 1.260 . S
O162 In156 2.266 . S
O162 C159 1.252 . S
O163 In156 2.326 . S
O163 C159 1.260 . S
O164 In156 2.266 . S
O164 C161 1.252 . S
O165 In156 2.326 . S
O165 C161 1.260 . S
C166 O157 1.240 . S
C166 O158 1.252 . S
O167 In156 2.294 . S
O167 C160 1.240 . S
O168 In156 2.326 . S
O168 C160 1.252 . S
In169 O170 2.294 . S
In169 O171 2.326 . S
In169 O175 2.266 . S
In169 O176 2.326 . S
In169 O177 2.266 . S
In169 O178 2.326 . S
In169 O180 2.294 . S
In169 O181 2.326 . S
O170 In169 2.294 . S
O170 C179 1.240 . S
O171 In169 2.326 . S
O171 C179 1.252 . S
C172 O175 1.252 . S
C172 O176 1.260 . S
C173 O180 1.240 . S
C173 O181 1.252 . S
C174 O177 1.252 . S
C174 O178 1.260 . S
O175 In169 2.266 . S
O175 C172 1.252 . S
O176 In169 2.326 . S
O176 C172 1.260 . S
O177 In169 2.266 . S
O177 C174 1.252 . S
O178 In169 2.326 . S
O178 C174 1.260 . S
C179 O170 1.240 . S
C179 O171 1.252 . S
O180 In169 2.294 . S
O180 C173 1.240 . S
O181 In169 2.326 . S
O181 C173 1.252 . S
In182 O183 2.294 . S
In182 O184 2.326 . S
In182 O188 2.266 . S
In182 O189 2.326 . S
In182 O190 2.266 . S
In182 O191 2.326 . S
In182 O193 2.294 . S
In182 O194 2.326 . S
O183 In182 2.294 . S
O183 C192 1.240 . S
O184 In182 2.326 . S
O184 C192 1.252 . S
C185 O188 1.252 . S
C185 O189 1.260 . S
C186 O193 1.240 . S
C186 O194 1.252 . S
C187 O190 1.252 . S
C187 O191 1.260 . S
O188 In182 2.266 . S
O188 C185 1.252 . S
O189 In182 2.326 . S
O189 C185 1.260 . S
O190 In182 2.266 . S
O190 C187 1.252 . S
O191 In182 2.326 . S
O191 C187 1.260 . S
C192 O183 1.240 . S
C192 O184 1.252 . S
O193 In182 2.294 . S
O193 C186 1.240 . S
O194 In182 2.326 . S
O194 C186 1.252 . S
In195 O196 2.294 . S
In195 O197 2.326 . S
In195 O201 2.266 . S
In195 O202 2.326 . S
In195 O203 2.266 . S
In195 O204 2.326 . S
In195 O206 2.293 . S
In195 O207 2.326 . S
O196 In195 2.294 . S
O196 C205 1.240 . S
O197 In195 2.326 . S
O197 C205 1.252 . S
C198 O201 1.252 . S
C198 O202 1.260 . S
C199 O206 1.240 1_556 S
C199 O207 1.252 1_556 S
C200 O203 1.252 . S
C200 O204 1.260 . S
O201 In195 2.266 . S
O201 C198 1.252 . S
O202 In195 2.326 . S
O202 C198 1.260 . S
O203 In195 2.266 . S
O203 C200 1.252 . S
O204 In195 2.326 . S
O204 C200 1.260 . S
C205 O196 1.240 . S
C205 O197 1.252 . S
O206 In195 2.293 . S
O206 C199 1.240 1_554 S
O207 In195 2.326 . S
O207 C199 1.252 1_554 S
In208 O209 2.294 1_554 S
In208 O210 2.326 . S
In208 O214 2.266 . S
In208 O215 2.326 . S
In208 O216 2.266 . S
In208 O217 2.326 . S
In208 O219 2.294 . S
In208 O220 2.326 . S
O209 In208 2.294 1_556 S
O209 C218 1.240 . S
O210 In208 2.326 . S
O210 C218 1.252 1_554 S
C211 O214 1.252 . S
C211 O215 1.260 . S
C212 O219 1.240 . S
C212 O220 1.252 . S
C213 O216 1.252 . S
C213 O217 1.260 . S
O214 In208 2.266 . S
O214 C211 1.252 . S
O215 In208 2.326 . S
O215 C211 1.260 . S
O216 In208 2.266 . S
O216 C213 1.252 . S
O217 In208 2.326 . S
O217 C213 1.260 . S
C218 O209 1.240 . S
C218 O210 1.252 1_556 S
O219 In208 2.294 . S
O219 C212 1.240 . S
O220 In208 2.326 . S
O220 C212 1.252 . S
In221 O222 2.294 . S
In221 O223 2.326 . S
In221 O227 2.266 . S
In221 O228 2.326 . S
In221 O229 2.266 . S
In221 O230 2.326 . S
In221 O232 2.294 1_554 S
In221 O233 2.326 . S
O222 In221 2.294 . S
O222 C231 1.240 . S
O223 In221 2.326 . S
O223 C231 1.252 . S
C224 O227 1.252 . S
C224 O228 1.260 . S
C225 O232 1.240 . S
C225 O233 1.252 1_556 S
C226 O229 1.252 . S
C226 O230 1.260 . S
O227 In221 2.266 . S
O227 C224 1.252 . S
O228 In221 2.326 . S
O228 C224 1.260 . S
O229 In221 2.266 . S
O229 C226 1.252 . S
O230 In221 2.326 . S
O230 C226 1.260 . S
C231 O222 1.240 . S
C231 O223 1.252 . S
O232 In221 2.294 1_556 S
O232 C225 1.240 . S
O233 In221 2.326 . S
O233 C225 1.252 1_554 S
In234 O235 2.293 . S
In234 O236 2.326 . S
In234 O240 2.266 . S
In234 O241 2.326 . S
In234 O242 2.266 . S
In234 O243 2.326 . S
In234 O245 2.294 . S
In234 O246 2.326 . S
O235 In234 2.293 . S
O235 C244 1.240 1_554 S
O236 In234 2.326 . S
O236 C244 1.252 1_554 S
C237 O240 1.252 . S
C237 O241 1.260 . S
C238 O245 1.240 . S
C238 O246 1.252 . S
C239 O242 1.252 . S
C239 O243 1.260 . S
O240 In234 2.266 . S
O240 C237 1.252 . S
O241 In234 2.326 . S
O241 C237 1.260 . S
O242 In234 2.266 . S
O242 C239 1.252 . S
O243 In234 2.326 . S
O243 C239 1.260 . S
C244 O235 1.240 1_556 S
C244 O236 1.252 1_556 S
O245 In234 2.294 . S
O245 C238 1.240 . S
O246 In234 2.326 . S
O246 C238 1.252 . S
In247 O248 2.294 1_554 S
In247 O249 2.326 . S
In247 O253 2.266 . S
In247 O254 2.326 . S
In247 O255 2.266 . S
In247 O256 2.326 . S
In247 O258 2.294 . S
In247 O259 2.326 . S
O248 In247 2.294 1_556 S
O248 C257 1.240 . S
O249 In247 2.326 . S
O249 C257 1.252 1_554 S
C250 O253 1.252 . S
C250 O254 1.260 . S
C251 O258 1.240 . S
C251 O259 1.252 . S
C252 O255 1.252 . S
C252 O256 1.260 . S
O253 In247 2.266 . S
O253 C250 1.252 . S
O254 In247 2.326 . S
O254 C250 1.260 . S
O255 In247 2.266 . S
O255 C252 1.252 . S
O256 In247 2.326 . S
O256 C252 1.260 . S
C257 O248 1.240 . S
C257 O249 1.252 1_556 S
O258 In247 2.294 . S
O258 C251 1.240 . S
O259 In247 2.326 . S
O259 C251 1.252 . S
In260 O261 2.294 . S
In260 O262 2.326 . S
In260 O266 2.266 . S
In260 O267 2.326 . S
In260 O268 2.266 . S
In260 O269 2.326 . S
In260 O271 2.294 1_554 S
In260 O272 2.326 . S
O261 In260 2.294 . S
O261 C270 1.240 . S
O262 In260 2.326 . S
O262 C270 1.252 . S
C263 O266 1.252 . S
C263 O267 1.260 . S
C264 O271 1.240 . S
C264 O272 1.252 1_556 S
C265 O268 1.252 . S
C265 O269 1.260 . S
O266 In260 2.266 . S
O266 C263 1.252 . S
O267 In260 2.326 . S
O267 C263 1.260 . S
O268 In260 2.266 . S
O268 C265 1.252 . S
O269 In260 2.326 . S
O269 C265 1.260 . S
C270 O261 1.240 . S
C270 O262 1.252 . S
O271 In260 2.294 1_556 S
O271 C264 1.240 . S
O272 In260 2.326 . S
O272 C264 1.252 1_554 S
In273 O274 2.294 . S
In273 O275 2.326 . S
In273 O279 2.266 . S
In273 O280 2.326 . S
In273 O281 2.266 . S
In273 O282 2.326 . S
In273 O284 2.294 . S
In273 O285 2.326 . S
O274 In273 2.294 . S
O274 C283 1.240 . S
O275 In273 2.326 . S
O275 C283 1.252 . S
C276 O279 1.252 . S
C276 O280 1.260 . S
C277 O284 1.240 . S
C277 O285 1.252 . S
C278 O281 1.252 . S
C278 O282 1.260 . S
O279 In273 2.266 . S
O279 C276 1.252 . S
O280 In273 2.326 . S
O280 C276 1.260 . S
O281 In273 2.266 . S
O281 C278 1.252 . S
O282 In273 2.326 . S
O282 C278 1.260 . S
C283 O274 1.240 . S
C283 O275 1.252 . S
O284 In273 2.294 . S
O284 C277 1.240 . S
O285 In273 2.326 . S
O285 C277 1.252 . S
In286 O287 2.294 . S
In286 O288 2.326 . S
In286 O292 2.266 . S
In286 O293 2.326 . S
In286 O294 2.266 . S
In286 O295 2.326 . S
In286 O297 2.294 . S
In286 O298 2.326 . S
O287 In286 2.294 . S
O287 C296 1.240 . S
O288 In286 2.326 . S
O288 C296 1.252 . S
C289 O292 1.252 . S
C289 O293 1.260 . S
C290 O297 1.240 . S
C290 O298 1.252 . S
C291 O294 1.252 . S
C291 O295 1.260 . S
O292 In286 2.266 . S
O292 C289 1.252 . S
O293 In286 2.326 . S
O293 C289 1.260 . S
O294 In286 2.266 . S
O294 C291 1.252 . S
O295 In286 2.326 . S
O295 C291 1.260 . S
C296 O287 1.240 . S
C296 O288 1.252 . S
O297 In286 2.294 . S
O297 C290 1.240 . S
O298 In286 2.326 . S
O298 C290 1.252 . S
In299 O300 2.294 . S
In299 O301 2.326 . S
In299 O305 2.266 . S
In299 O306 2.326 . S
In299 O307 2.266 . S
In299 O308 2.326 . S
In299 O310 2.294 . S
In299 O311 2.326 . S
O300 In299 2.294 . S
O300 C309 1.240 . S
O301 In299 2.326 . S
O301 C309 1.252 . S
C302 O305 1.252 . S
C302 O306 1.260 . S
C303 O310 1.240 . S
C303 O311 1.252 . S
C304 O307 1.252 . S
C304 O308 1.260 . S
O305 In299 2.266 . S
O305 C302 1.252 . S
O306 In299 2.326 . S
O306 C302 1.260 . S
O307 In299 2.266 . S
O307 C304 1.252 . S
O308 In299 2.326 . S
O308 C304 1.260 . S
C309 O300 1.240 . S
C309 O301 1.252 . S
O310 In299 2.294 . S
O310 C303 1.240 . S
O311 In299 2.326 . S
O311 C303 1.252 . S
In312 O313 2.294 . S
In312 O314 2.326 . S
In312 O318 2.266 . S
In312 O319 2.326 . S
In312 O320 2.266 . S
In312 O321 2.326 . S
In312 O323 2.293 . S
In312 O324 2.326 . S
O313 In312 2.294 . S
O313 C322 1.240 . S
O314 In312 2.326 . S
O314 C322 1.252 . S
C315 O318 1.252 . S
C315 O319 1.260 . S
C316 O323 1.240 1_554 S
C316 O324 1.252 1_554 S
C317 O320 1.252 . S
C317 O321 1.260 . S
O318 In312 2.266 . S
O318 C315 1.252 . S
O319 In312 2.326 . S
O319 C315 1.260 . S
O320 In312 2.266 . S
O320 C317 1.252 . S
O321 In312 2.326 . S
O321 C317 1.260 . S
C322 O313 1.240 . S
C322 O314 1.252 . S
O323 In312 2.293 . S
O323 C316 1.240 1_556 S
O324 In312 2.326 . S
O324 C316 1.252 1_556 S
In325 O326 2.294 1_556 S
In325 O327 2.326 . S
In325 O331 2.266 . S
In325 O332 2.326 . S
In325 O333 2.266 . S
In325 O334 2.326 . S
In325 O336 2.294 . S
In325 O337 2.326 . S
O326 In325 2.294 1_554 S
O326 C335 1.240 . S
O327 In325 2.326 . S
O327 C335 1.252 1_556 S
C328 O331 1.252 . S
C328 O332 1.260 . S
C329 O336 1.240 . S
C329 O337 1.252 . S
C330 O333 1.252 . S
C330 O334 1.260 . S
O331 In325 2.266 . S
O331 C328 1.252 . S
O332 In325 2.326 . S
O332 C328 1.260 . S
O333 In325 2.266 . S
O333 C330 1.252 . S
O334 In325 2.326 . S
O334 C330 1.260 . S
C335 O326 1.240 . S
C335 O327 1.252 1_554 S
O336 In325 2.294 . S
O336 C329 1.240 . S
O337 In325 2.326 . S
O337 C329 1.252 . S
In338 O339 2.294 1_556 S
In338 O340 2.326 . S
In338 O344 2.266 . S
In338 O345 2.326 . S
In338 O346 2.266 . S
In338 O347 2.326 . S
In338 O349 2.294 . S
In338 O350 2.326 . S
O339 In338 2.294 1_554 S
O339 C348 1.240 . S
O340 In338 2.326 . S
O340 C348 1.252 1_556 S
C341 O344 1.252 . S
C341 O345 1.260 . S
C342 O349 1.240 . S
C342 O350 1.252 . S
C343 O346 1.252 . S
C343 O347 1.260 . S
O344 In338 2.266 . S
O344 C341 1.252 . S
O345 In338 2.326 . S
O345 C341 1.260 . S
O346 In338 2.266 . S
O346 C343 1.252 . S
O347 In338 2.326 . S
O347 C343 1.260 . S
C348 O339 1.240 . S
C348 O340 1.252 1_554 S
O349 In338 2.294 . S
O349 C342 1.240 . S
O350 In338 2.326 . S
O350 C342 1.252 . S
In351 O352 2.294 . S
In351 O353 2.326 . S
In351 O357 2.266 . S
In351 O358 2.326 . S
In351 O359 2.266 . S
In351 O360 2.326 . S
In351 O362 2.294 . S
In351 O363 2.326 . S
O352 In351 2.294 . S
O352 C361 1.240 . S
O353 In351 2.326 . S
O353 C361 1.252 . S
C354 O357 1.252 . S
C354 O358 1.260 . S
C355 O362 1.240 . S
C355 O363 1.252 . S
C356 O359 1.252 . S
C356 O360 1.260 . S
O357 In351 2.266 . S
O357 C354 1.252 . S
O358 In351 2.326 . S
O358 C354 1.260 . S
O359 In351 2.266 . S
O359 C356 1.252 . S
O360 In351 2.326 . S
O360 C356 1.260 . S
C361 O352 1.240 . S
C361 O353 1.252 . S
O362 In351 2.294 . S
O362 C355 1.240 . S
O363 In351 2.326 . S
O363 C355 1.252 . S
In364 O365 2.294 . S
In364 O366 2.326 . S
In364 O370 2.266 . S
In364 O371 2.326 . S
In364 O372 2.266 . S
In364 O373 2.326 . S
In364 O375 2.294 . S
In364 O376 2.326 . S
O365 In364 2.294 . S
O365 C374 1.240 . S
O366 In364 2.326 . S
O366 C374 1.252 . S
C367 O370 1.252 . S
C367 O371 1.260 . S
C368 O375 1.240 . S
C368 O376 1.252 . S
C369 O372 1.252 . S
C369 O373 1.260 . S
O370 In364 2.266 . S
O370 C367 1.252 . S
O371 In364 2.326 . S
O371 C367 1.260 . S
O372 In364 2.266 . S
O372 C369 1.252 . S
O373 In364 2.326 . S
O373 C369 1.260 . S
C374 O365 1.240 . S
C374 O366 1.252 . S
O375 In364 2.294 . S
O375 C368 1.240 . S
O376 In364 2.326 . S
O376 C368 1.252 . S
In377 O378 2.294 . S
In377 O379 2.326 . S
In377 O383 2.266 . S
In377 O384 2.326 . S
In377 O385 2.266 . S
In377 O386 2.326 . S
In377 O388 2.294 . S
In377 O389 2.326 . S
O378 In377 2.294 . S
O378 C387 1.240 . S
O379 In377 2.326 . S
O379 C387 1.252 . S
C380 O383 1.252 . S
C380 O384 1.260 . S
C381 O388 1.240 . S
C381 O389 1.252 . S
C382 O385 1.252 . S
C382 O386 1.260 . S
O383 In377 2.266 . S
O383 C380 1.252 . S
O384 In377 2.326 . S
O384 C380 1.260 . S
O385 In377 2.266 . S
O385 C382 1.252 . S
O386 In377 2.326 . S
O386 C382 1.260 . S
C387 O378 1.240 . S
C387 O379 1.252 . S
O388 In377 2.294 . S
O388 C381 1.240 . S
O389 In377 2.326 . S
O389 C381 1.252 . S
In390 O391 2.294 . S
In390 O392 2.326 . S
In390 O396 2.266 . S
In390 O397 2.326 . S
In390 O398 2.266 . S
In390 O399 2.326 . S
In390 O401 2.294 . S
In390 O402 2.326 . S
O391 In390 2.294 . S
O391 C400 1.240 . S
O392 In390 2.326 . S
O392 C400 1.252 . S
C393 O396 1.252 . S
C393 O397 1.260 . S
C394 O401 1.240 . S
C394 O402 1.252 . S
C395 O398 1.252 . S
C395 O399 1.260 . S
O396 In390 2.266 . S
O396 C393 1.252 . S
O397 In390 2.326 . S
O397 C393 1.260 . S
O398 In390 2.266 . S
O398 C395 1.252 . S
O399 In390 2.326 . S
O399 C395 1.260 . S
C400 O391 1.240 . S
C400 O392 1.252 . S
O401 In390 2.294 . S
O401 C394 1.240 . S
O402 In390 2.326 . S
O402 C394 1.252 . S
In403 O404 2.294 . S
In403 O405 2.326 . S
In403 O409 2.266 . S
In403 O410 2.326 . S
In403 O411 2.266 . S
In403 O412 2.326 . S
In403 O414 2.294 . S
In403 O415 2.326 . S
O404 In403 2.294 . S
O404 C413 1.240 . S
O405 In403 2.326 . S
O405 C413 1.252 . S
C406 O409 1.252 . S
C406 O410 1.260 . S
C407 O414 1.240 . S
C407 O415 1.252 . S
C408 O411 1.252 . S
C408 O412 1.260 . S
O409 In403 2.266 . S
O409 C406 1.252 . S
O410 In403 2.326 . S
O410 C406 1.260 . S
O411 In403 2.266 . S
O411 C408 1.252 . S
O412 In403 2.326 . S
O412 C408 1.260 . S
C413 O404 1.240 . S
C413 O405 1.252 . S
O414 In403 2.294 . S
O414 C407 1.240 . S
O415 In403 2.326 . S
O415 C407 1.252 . S
In416 O417 2.294 . S
In416 O418 2.326 . S
In416 O422 2.266 . S
In416 O423 2.326 . S
In416 O424 2.266 . S
In416 O425 2.326 . S
In416 O427 2.294 . S
In416 O428 2.326 . S
O417 In416 2.294 . S
O417 C426 1.240 . S
O418 In416 2.326 . S
O418 C426 1.252 . S
C419 O422 1.252 . S
C419 O423 1.260 . S
C420 O427 1.240 . S
C420 O428 1.252 . S
C421 O424 1.252 . S
C421 O425 1.260 . S
O422 In416 2.266 . S
O422 C419 1.252 . S
O423 In416 2.326 . S
O423 C419 1.260 . S
O424 In416 2.266 . S
O424 C421 1.252 . S
O425 In416 2.326 . S
O425 C421 1.260 . S
C426 O417 1.240 . S
C426 O418 1.252 . S
O427 In416 2.294 . S
O427 C420 1.240 . S
O428 In416 2.326 . S
O428 C420 1.252 . S
In429 O430 2.293 . S
In429 O431 2.326 . S
In429 O435 2.266 . S
In429 O436 2.326 . S
In429 O437 2.266 . S
In429 O438 2.326 . S
In429 O440 2.294 . S
In429 O441 2.326 . S
O430 In429 2.293 . S
O430 C439 1.240 1_556 S
O431 In429 2.326 . S
O431 C439 1.252 1_556 S
C432 O435 1.252 . S
C432 O436 1.260 . S
C433 O440 1.240 . S
C433 O441 1.252 . S
C434 O437 1.252 . S
C434 O438 1.260 . S
O435 In429 2.266 . S
O435 C432 1.252 . S
O436 In429 2.326 . S
O436 C432 1.260 . S
O437 In429 2.266 . S
O437 C434 1.252 . S
O438 In429 2.326 . S
O438 C434 1.260 . S
C439 O430 1.240 1_554 S
C439 O431 1.252 1_554 S
O440 In429 2.294 . S
O440 C433 1.240 . S
O441 In429 2.326 . S
O441 C433 1.252 . S
In442 O443 2.294 . S
In442 O444 2.326 . S
In442 O448 2.266 . S
In442 O449 2.326 . S
In442 O450 2.266 . S
In442 O451 2.326 . S
In442 O453 2.294 1_556 S
In442 O454 2.326 . S
O443 In442 2.294 . S
O443 C452 1.240 . S
O444 In442 2.326 . S
O444 C452 1.252 . S
C445 O448 1.252 . S
C445 O449 1.260 . S
C446 O453 1.240 . S
C446 O454 1.252 1_554 S
C447 O450 1.252 . S
C447 O451 1.260 . S
O448 In442 2.266 . S
O448 C445 1.252 . S
O449 In442 2.326 . S
O449 C445 1.260 . S
O450 In442 2.266 . S
O450 C447 1.252 . S
O451 In442 2.326 . S
O451 C447 1.260 . S
C452 O443 1.240 . S
C452 O444 1.252 . S
O453 In442 2.294 1_554 S
O453 C446 1.240 . S
O454 In442 2.326 . S
O454 C446 1.252 1_556 S
In455 O456 2.294 1_556 S
In455 O457 2.326 . S
In455 O461 2.266 . S
In455 O462 2.326 . S
In455 O463 2.266 . S
In455 O464 2.326 . S
In455 O466 2.294 . S
In455 O467 2.326 . S
O456 In455 2.294 1_554 S
O456 C465 1.240 . S
O457 In455 2.326 . S
O457 C465 1.252 1_556 S
C458 O461 1.252 . S
C458 O462 1.260 . S
C459 O466 1.240 . S
C459 O467 1.252 . S
C460 O463 1.252 . S
C460 O464 1.260 . S
O461 In455 2.266 . S
O461 C458 1.252 . S
O462 In455 2.326 . S
O462 C458 1.260 . S
O463 In455 2.266 . S
O463 C460 1.252 . S
O464 In455 2.326 . S
O464 C460 1.260 . S
C465 O456 1.240 . S
C465 O457 1.252 1_554 S
O466 In455 2.294 . S
O466 C459 1.240 . S
O467 In455 2.326 . S
O467 C459 1.252 . S
H468 C480 0.930 . S
H469 C482 0.930 . S
H470 C483 0.930 1_545 S
H471 C487 0.959 . S
H472 C487 0.959 . S
H473 C487 0.961 . S
H474 C488 0.960 . S
H475 C488 0.961 . S
H476 C488 0.959 . S
H477 C491 0.929 . S
H478 C492 0.931 . S
H479 C494 0.930 . S
C480 H468 0.930 . S
C480 C481 1.399 . S
C480 C485 1.399 . S
C481 C480 1.399 . S
C481 C482 1.376 . S
C482 H469 0.930 . S
C482 C481 1.376 . S
C482 C483 1.388 . S
C483 H470 0.930 1_565 S
C483 C482 1.388 . S
C483 C484 1.390 . S
C484 C483 1.390 . S
C484 C485 1.394 . S
C484 C490 1.465 1_565 S
C485 C480 1.399 . S
C485 C484 1.394 . S
C485 C486 1.516 . S
C486 C485 1.516 . S
C486 C487 1.502 . S
C486 C488 1.561 . S
C486 C489 1.526 1_565 S
C487 H471 0.959 . S
C487 H472 0.959 . S
C487 H473 0.961 . S
C487 C486 1.502 . S
C488 H474 0.960 . S
C488 H475 0.961 . S
C488 H476 0.959 . S
C488 C486 1.561 . S
C489 C486 1.526 1_545 S
C489 C490 1.396 . S
C489 C494 1.390 . S
C490 C484 1.465 1_545 S
C490 C489 1.396 . S
C490 C491 1.399 . S
C491 H477 0.929 . S
C491 C490 1.399 . S
C491 C492 1.385 . S
C492 H478 0.931 . S
C492 C491 1.385 . S
C492 C493 1.389 . S
C493 C492 1.389 . S
C493 C494 1.387 . S
C494 H479 0.930 . S
C494 C489 1.390 . S
C494 C493 1.387 . S
H495 C507 0.930 . S
H496 C509 0.930 . S
H497 C510 0.930 . S
H498 C514 0.959 . S
H499 C514 0.959 . S
H500 C514 0.961 1_455 S
H501 C515 0.960 . S
H502 C515 0.961 . S
H503 C515 0.959 . S
H504 C518 0.929 . S
H505 C519 0.931 . S
H506 C521 0.930 . S
C507 H495 0.930 . S
C507 C508 1.399 . S
C507 C512 1.399 . S
C508 C507 1.399 . S
C508 C509 1.376 . S
C509 H496 0.930 . S
C509 C508 1.376 . S
C509 C510 1.388 . S
C510 H497 0.930 . S
C510 C509 1.388 . S
C510 C511 1.390 . S
C511 C510 1.390 . S
C511 C512 1.394 . S
C511 C517 1.465 1_455 S
C512 C507 1.399 . S
C512 C511 1.394 . S
C512 C513 1.516 . S
C513 C512 1.516 . S
C513 C514 1.502 1_455 S
C513 C515 1.561 . S
C513 C516 1.526 1_455 S
C514 H498 0.959 . S
C514 H499 0.959 . S
C514 H500 0.961 1_655 S
C514 C513 1.502 1_655 S
C515 H501 0.960 . S
C515 H502 0.961 . S
C515 H503 0.959 . S
C515 C513 1.561 . S
C516 C513 1.526 1_655 S
C516 C517 1.396 . S
C516 C521 1.390 . S
C517 C511 1.465 1_655 S
C517 C516 1.396 . S
C517 C518 1.399 . S
C518 H504 0.929 . S
C518 C517 1.399 . S
C518 C519 1.385 . S
C519 H505 0.931 . S
C519 C518 1.385 . S
C519 C520 1.389 . S
C520 C519 1.389 . S
C520 C521 1.387 . S
C521 H506 0.930 . S
C521 C516 1.390 . S
C521 C520 1.387 . S
H522 C534 0.930 . S
H523 C536 0.930 . S
H524 C537 0.930 . S
H525 C541 0.959 . S
H526 C541 0.959 . S
H527 C541 0.961 . S
H528 C542 0.960 . S
H529 C542 0.961 . S
H530 C542 0.959 . S
H531 C545 0.929 . S
H532 C546 0.931 . S
H533 C548 0.930 . S
C534 H522 0.930 . S
C534 C535 1.399 . S
C534 C539 1.399 . S
C535 C534 1.399 . S
C535 C536 1.376 . S
C536 H523 0.930 . S
C536 C535 1.376 . S
C536 C537 1.388 . S
C537 H524 0.930 . S
C537 C536 1.388 . S
C537 C538 1.390 . S
C538 C537 1.390 . S
C538 C539 1.394 . S
C538 C544 1.465 . S
C539 C534 1.399 . S
C539 C538 1.394 . S
C539 C540 1.516 . S
C540 C539 1.516 . S
C540 C541 1.502 . S
C540 C542 1.561 . S
C540 C543 1.526 . S
C541 H525 0.959 . S
C541 H526 0.959 . S
C541 H527 0.961 . S
C541 C540 1.502 . S
C542 H528 0.960 . S
C542 H529 0.961 . S
C542 H530 0.959 . S
C542 C540 1.561 . S
C543 C540 1.526 . S
C543 C544 1.396 . S
C543 C548 1.390 . S
C544 C538 1.465 . S
C544 C543 1.396 . S
C544 C545 1.399 . S
C545 H531 0.929 . S
C545 C544 1.399 . S
C545 C546 1.385 . S
C546 H532 0.931 . S
C546 C545 1.385 . S
C546 C547 1.389 . S
C547 C546 1.389 . S
C547 C548 1.387 . S
C548 H533 0.930 . S
C548 C543 1.390 . S
C548 C547 1.387 . S
H549 C561 0.930 . S
H550 C563 0.930 . S
H551 C564 0.930 1_545 S
H552 C568 0.959 . S
H553 C568 0.959 . S
H554 C568 0.961 . S
H555 C569 0.960 . S
H556 C569 0.961 . S
H557 C569 0.959 . S
H558 C572 0.929 . S
H559 C573 0.931 . S
H560 C575 0.930 . S
C561 H549 0.930 . S
C561 C562 1.399 . S
C561 C566 1.399 . S
C562 C561 1.399 . S
C562 C563 1.376 . S
C563 H550 0.930 . S
C563 C562 1.376 . S
C563 C564 1.388 . S
C564 H551 0.930 1_565 S
C564 C563 1.388 . S
C564 C565 1.390 . S
C565 C564 1.390 . S
C565 C566 1.394 . S
C565 C571 1.465 1_565 S
C566 C561 1.399 . S
C566 C565 1.394 . S
C566 C567 1.516 . S
C567 C566 1.516 . S
C567 C568 1.502 . S
C567 C569 1.561 . S
C567 C570 1.526 1_565 S
C568 H552 0.959 . S
C568 H553 0.959 . S
C568 H554 0.961 . S
C568 C567 1.502 . S
C569 H555 0.960 . S
C569 H556 0.961 . S
C569 H557 0.959 . S
C569 C567 1.561 . S
C570 C567 1.526 1_545 S
C570 C571 1.396 . S
C570 C575 1.390 . S
C571 C565 1.465 1_545 S
C571 C570 1.396 . S
C571 C572 1.399 . S
C572 H558 0.929 . S
C572 C571 1.399 . S
C572 C573 1.385 . S
C573 H559 0.931 . S
C573 C572 1.385 . S
C573 C574 1.389 . S
C574 C573 1.389 . S
C574 C575 1.387 . S
C575 H560 0.930 . S
C575 C570 1.390 . S
C575 C574 1.387 . S
H576 C588 0.930 . S
H577 C590 0.930 . S
H578 C591 0.930 . S
H579 C595 0.959 . S
H580 C595 0.959 1_655 S
H581 C595 0.961 . S
H582 C596 0.960 . S
H583 C596 0.961 . S
H584 C596 0.959 . S
H585 C599 0.929 . S
H586 C600 0.931 . S
H587 C602 0.930 . S
C588 H576 0.930 . S
C588 C589 1.399 . S
C588 C593 1.399 . S
C589 C588 1.399 . S
C589 C590 1.376 . S
C590 H577 0.930 . S
C590 C589 1.376 . S
C590 C591 1.388 . S
C591 H578 0.930 . S
C591 C590 1.388 . S
C591 C592 1.390 . S
C592 C591 1.390 . S
C592 C593 1.394 . S
C592 C598 1.465 1_455 S
C593 C588 1.399 . S
C593 C592 1.394 . S
C593 C594 1.516 1_455 S
C594 C593 1.516 1_655 S
C594 C595 1.502 1_655 S
C594 C596 1.561 . S
C594 C597 1.526 . S
C595 H579 0.959 . S
C595 H580 0.959 1_455 S
C595 H581 0.961 . S
C595 C594 1.502 1_455 S
C596 H582 0.960 . S
C596 H583 0.961 . S
C596 H584 0.959 . S
C596 C594 1.561 . S
C597 C594 1.526 . S
C597 C598 1.396 . S
C597 C602 1.390 . S
C598 C592 1.465 1_655 S
C598 C597 1.396 . S
C598 C599 1.399 . S
C599 H585 0.929 . S
C599 C598 1.399 . S
C599 C600 1.385 . S
C600 H586 0.931 . S
C600 C599 1.385 . S
C600 C601 1.389 . S
C601 C600 1.389 . S
C601 C602 1.387 . S
C602 H587 0.930 . S
C602 C597 1.390 . S
C602 C601 1.387 . S
H603 C615 0.930 . S
H604 C617 0.930 . S
H605 C618 0.930 . S
H606 C622 0.959 . S
H607 C622 0.959 . S
H608 C622 0.961 . S
H609 C623 0.960 . S
H610 C623 0.961 . S
H611 C623 0.959 . S
H612 C626 0.929 . S
H613 C627 0.931 . S
H614 C629 0.930 . S
C615 H603 0.930 . S
C615 C616 1.399 . S
C615 C620 1.399 . S
C616 C615 1.399 . S
C616 C617 1.376 . S
C617 H604 0.930 . S
C617 C616 1.376 . S
C617 C618 1.388 . S
C618 H605 0.930 . S
C618 C617 1.388 . S
C618 C619 1.390 . S
C619 C618 1.390 . S
C619 C620 1.394 . S
C619 C625 1.465 . S
C620 C615 1.399 . S
C620 C619 1.394 . S
C620 C621 1.516 . S
C621 C620 1.516 . S
C621 C622 1.502 . S
C621 C623 1.561 . S
C621 C624 1.526 . S
C622 H606 0.959 . S
C622 H607 0.959 . S
C622 H608 0.961 . S
C622 C621 1.502 . S
C623 H609 0.960 . S
C623 H610 0.961 . S
C623 H611 0.959 . S
C623 C621 1.561 . S
C624 C621 1.526 . S
C624 C625 1.396 . S
C624 C629 1.390 . S
C625 C619 1.465 . S
C625 C624 1.396 . S
C625 C626 1.399 . S
C626 H612 0.929 . S
C626 C625 1.399 . S
C626 C627 1.385 . S
C627 H613 0.931 . S
C627 C626 1.385 . S
C627 C628 1.389 . S
C628 C627 1.389 . S
C628 C629 1.387 . S
C629 H614 0.930 . S
C629 C624 1.390 . S
C629 C628 1.387 . S
H630 C642 0.930 . S
H631 C644 0.930 . S
H632 C645 0.930 . S
H633 C649 0.959 . S
H634 C649 0.959 . S
H635 C649 0.961 . S
H636 C650 0.960 . S
H637 C650 0.961 . S
H638 C650 0.959 . S
H639 C653 0.929 . S
H640 C654 0.931 . S
H641 C656 0.930 . S
C642 H630 0.930 . S
C642 C643 1.399 . S
C642 C647 1.399 . S
C643 C642 1.399 . S
C643 C644 1.376 . S
C644 H631 0.930 . S
C644 C643 1.376 . S
C644 C645 1.388 . S
C645 H632 0.930 . S
C645 C644 1.388 . S
C645 C646 1.390 . S
C646 C645 1.390 . S
C646 C647 1.394 . S
C646 C652 1.465 . S
C647 C642 1.399 . S
C647 C646 1.394 . S
C647 C648 1.516 . S
C648 C647 1.516 . S
C648 C649 1.502 . S
C648 C650 1.561 . S
C648 C651 1.526 . S
C649 H633 0.959 . S
C649 H634 0.959 . S
C649 H635 0.961 . S
C649 C648 1.502 . S
C650 H636 0.960 . S
C650 H637 0.961 . S
C650 H638 0.959 . S
C650 C648 1.561 . S
C651 C648 1.526 . S
C651 C652 1.396 . S
C651 C656 1.390 . S
C652 C646 1.465 . S
C652 C651 1.396 . S
C652 C653 1.399 . S
C653 H639 0.929 . S
C653 C652 1.399 . S
C653 C654 1.385 . S
C654 H640 0.931 . S
C654 C653 1.385 . S
C654 C655 1.389 . S
C655 C654 1.389 . S
C655 C656 1.387 . S
C656 H641 0.930 . S
C656 C651 1.390 . S
C656 C655 1.387 . S
H657 C669 0.930 . S
H658 C671 0.930 . S
H659 C672 0.930 . S
H660 C676 0.959 . S
H661 C676 0.959 . S
H662 C676 0.961 . S
H663 C677 0.960 . S
H664 C677 0.961 . S
H665 C677 0.959 . S
H666 C680 0.929 . S
H667 C681 0.931 . S
H668 C683 0.930 . S
C669 H657 0.930 . S
C669 C670 1.399 . S
C669 C674 1.399 . S
C670 C669 1.399 . S
C670 C671 1.376 . S
C671 H658 0.930 . S
C671 C670 1.376 . S
C671 C672 1.388 . S
C672 H659 0.930 . S
C672 C671 1.388 . S
C672 C673 1.390 . S
C673 C672 1.390 . S
C673 C674 1.394 . S
C673 C679 1.465 . S
C674 C669 1.399 . S
C674 C673 1.394 . S
C674 C675 1.516 . S
C675 C674 1.516 . S
C675 C676 1.502 . S
C675 C677 1.561 . S
C675 C678 1.526 . S
C676 H660 0.959 . S
C676 H661 0.959 . S
C676 H662 0.961 . S
C676 C675 1.502 . S
C677 H663 0.960 . S
C677 H664 0.961 . S
C677 H665 0.959 . S
C677 C675 1.561 . S
C678 C675 1.526 . S
C678 C679 1.396 . S
C678 C683 1.390 . S
C679 C673 1.465 . S
C679 C678 1.396 . S
C679 C680 1.399 . S
C680 H666 0.929 . S
C680 C679 1.399 . S
C680 C681 1.385 . S
C681 H667 0.931 . S
C681 C680 1.385 . S
C681 C682 1.389 . S
C682 C681 1.389 . S
C682 C683 1.387 . S
C683 H668 0.930 . S
C683 C678 1.390 . S
C683 C682 1.387 . S
H684 C696 0.930 . S
H685 C698 0.930 . S
H686 C699 0.930 . S
H687 C703 0.959 . S
H688 C703 0.959 . S
H689 C703 0.961 . S
H690 C704 0.960 . S
H691 C704 0.961 . S
H692 C704 0.959 . S
H693 C707 0.929 . S
H694 C708 0.931 . S
H695 C710 0.930 . S
C696 H684 0.930 . S
C696 C697 1.399 . S
C696 C701 1.399 . S
C697 C696 1.399 . S
C697 C698 1.376 . S
C698 H685 0.930 . S
C698 C697 1.376 . S
C698 C699 1.388 . S
C699 H686 0.930 . S
C699 C698 1.388 . S
C699 C700 1.390 . S
C700 C699 1.390 . S
C700 C701 1.394 . S
C700 C706 1.465 . S
C701 C696 1.399 . S
C701 C700 1.394 . S
C701 C702 1.516 . S
C702 C701 1.516 . S
C702 C703 1.502 . S
C702 C704 1.561 . S
C702 C705 1.526 . S
C703 H687 0.959 . S
C703 H688 0.959 . S
C703 H689 0.961 . S
C703 C702 1.502 . S
C704 H690 0.960 . S
C704 H691 0.961 . S
C704 H692 0.959 . S
C704 C702 1.561 . S
C705 C702 1.526 . S
C705 C706 1.396 . S
C705 C710 1.390 . S
C706 C700 1.465 . S
C706 C705 1.396 . S
C706 C707 1.399 . S
C707 H693 0.929 . S
C707 C706 1.399 . S
C707 C708 1.385 . S
C708 H694 0.931 . S
C708 C707 1.385 . S
C708 C709 1.389 . S
C709 C708 1.389 . S
C709 C710 1.387 . S
C710 H695 0.930 . S
C710 C705 1.390 . S
C710 C709 1.387 . S
H711 C723 0.930 . S
H712 C725 0.930 . S
H713 C726 0.930 . S
H714 C730 0.959 . S
H715 C730 0.959 . S
H716 C730 0.961 . S
H717 C731 0.960 . S
H718 C731 0.961 . S
H719 C731 0.959 . S
H720 C734 0.929 . S
H721 C735 0.931 . S
H722 C737 0.930 . S
C723 H711 0.930 . S
C723 C724 1.399 . S
C723 C728 1.399 . S
C724 C723 1.399 . S
C724 C725 1.376 . S
C725 H712 0.930 . S
C725 C724 1.376 . S
C725 C726 1.388 . S
C726 H713 0.930 . S
C726 C725 1.388 . S
C726 C727 1.390 . S
C727 C726 1.390 . S
C727 C728 1.394 . S
C727 C733 1.465 . S
C728 C723 1.399 . S
C728 C727 1.394 . S
C728 C729 1.516 . S
C729 C728 1.516 . S
C729 C730 1.502 . S
C729 C731 1.561 . S
C729 C732 1.526 . S
C730 H714 0.959 . S
C730 H715 0.959 . S
C730 H716 0.961 . S
C730 C729 1.502 . S
C731 H717 0.960 . S
C731 H718 0.961 . S
C731 H719 0.959 . S
C731 C729 1.561 . S
C732 C729 1.526 . S
C732 C733 1.396 . S
C732 C737 1.390 . S
C733 C727 1.465 . S
C733 C732 1.396 . S
C733 C734 1.399 . S
C734 H720 0.929 . S
C734 C733 1.399 . S
C734 C735 1.385 . S
C735 H721 0.931 . S
C735 C734 1.385 . S
C735 C736 1.389 . S
C736 C735 1.389 . S
C736 C737 1.387 . S
C737 H722 0.930 . S
C737 C732 1.390 . S
C737 C736 1.387 . S
H738 C750 0.930 . S
H739 C752 0.930 . S
H740 C753 0.930 . S
H741 C757 0.959 . S
H742 C757 0.959 . S
H743 C757 0.961 . S
H744 C758 0.960 . S
H745 C758 0.961 . S
H746 C758 0.959 . S
H747 C761 0.929 . S
H748 C762 0.931 . S
H749 C764 0.930 . S
C750 H738 0.930 . S
C750 C751 1.399 . S
C750 C755 1.399 . S
C751 C750 1.399 . S
C751 C752 1.376 . S
C752 H739 0.930 . S
C752 C751 1.376 . S
C752 C753 1.388 . S
C753 H740 0.930 . S
C753 C752 1.388 . S
C753 C754 1.390 . S
C754 C753 1.390 . S
C754 C755 1.394 . S
C754 C760 1.465 . S
C755 C750 1.399 . S
C755 C754 1.394 . S
C755 C756 1.516 . S
C756 C755 1.516 . S
C756 C757 1.502 . S
C756 C758 1.561 . S
C756 C759 1.526 . S
C757 H741 0.959 . S
C757 H742 0.959 . S
C757 H743 0.961 . S
C757 C756 1.502 . S
C758 H744 0.960 . S
C758 H745 0.961 . S
C758 H746 0.959 . S
C758 C756 1.561 . S
C759 C756 1.526 . S
C759 C760 1.396 . S
C759 C764 1.390 . S
C760 C754 1.465 . S
C760 C759 1.396 . S
C760 C761 1.399 . S
C761 H747 0.929 . S
C761 C760 1.399 . S
C761 C762 1.385 . S
C762 H748 0.931 . S
C762 C761 1.385 . S
C762 C763 1.389 . S
C763 C762 1.389 . S
C763 C764 1.387 . S
C764 H749 0.930 . S
C764 C759 1.390 . S
C764 C763 1.387 . S
H765 C777 0.930 . S
H766 C779 0.930 . S
H767 C780 0.930 . S
H768 C784 0.959 . S
H769 C784 0.959 . S
H770 C784 0.961 . S
H771 C785 0.960 . S
H772 C785 0.961 . S
H773 C785 0.959 . S
H774 C788 0.929 . S
H775 C789 0.931 . S
H776 C791 0.930 . S
C777 H765 0.930 . S
C777 C778 1.399 . S
C777 C782 1.399 . S
C778 C777 1.399 . S
C778 C779 1.376 . S
C779 H766 0.930 . S
C779 C778 1.376 . S
C779 C780 1.388 . S
C780 H767 0.930 . S
C780 C779 1.388 . S
C780 C781 1.390 . S
C781 C780 1.390 . S
C781 C782 1.394 . S
C781 C787 1.465 . S
C782 C777 1.399 . S
C782 C781 1.394 . S
C782 C783 1.516 . S
C783 C782 1.516 . S
C783 C784 1.502 . S
C783 C785 1.561 . S
C783 C786 1.526 . S
C784 H768 0.959 . S
C784 H769 0.959 . S
C784 H770 0.961 . S
C784 C783 1.502 . S
C785 H771 0.960 . S
C785 H772 0.961 . S
C785 H773 0.959 . S
C785 C783 1.561 . S
C786 C783 1.526 . S
C786 C787 1.396 . S
C786 C791 1.390 . S
C787 C781 1.465 . S
C787 C786 1.396 . S
C787 C788 1.399 . S
C788 H774 0.929 . S
C788 C787 1.399 . S
C788 C789 1.385 . S
C789 H775 0.931 . S
C789 C788 1.385 . S
C789 C790 1.389 . S
C790 C789 1.389 . S
C790 C791 1.387 . S
C791 H776 0.930 . S
C791 C786 1.390 . S
C791 C790 1.387 . S
H792 C804 0.930 . S
H793 C806 0.930 . S
H794 C807 0.930 . S
H795 C811 0.959 . S
H796 C811 0.959 . S
H797 C811 0.961 . S
H798 C812 0.960 . S
H799 C812 0.961 . S
H800 C812 0.959 . S
H801 C815 0.929 . S
H802 C816 0.931 . S
H803 C818 0.930 . S
C804 H792 0.930 . S
C804 C805 1.399 . S
C804 C809 1.399 . S
C805 C804 1.399 . S
C805 C806 1.376 . S
C806 H793 0.930 . S
C806 C805 1.376 . S
C806 C807 1.388 . S
C807 H794 0.930 . S
C807 C806 1.388 . S
C807 C808 1.390 . S
C808 C807 1.390 . S
C808 C809 1.394 . S
C808 C814 1.465 . S
C809 C804 1.399 . S
C809 C808 1.394 . S
C809 C810 1.516 . S
C810 C809 1.516 . S
C810 C811 1.502 . S
C810 C812 1.561 . S
C810 C813 1.526 . S
C811 H795 0.959 . S
C811 H796 0.959 . S
C811 H797 0.961 . S
C811 C810 1.502 . S
C812 H798 0.960 . S
C812 H799 0.961 . S
C812 H800 0.959 . S
C812 C810 1.561 . S
C813 C810 1.526 . S
C813 C814 1.396 . S
C813 C818 1.390 . S
C814 C808 1.465 . S
C814 C813 1.396 . S
C814 C815 1.399 . S
C815 H801 0.929 . S
C815 C814 1.399 . S
C815 C816 1.385 . S
C816 H802 0.931 . S
C816 C815 1.385 . S
C816 C817 1.389 . S
C817 C816 1.389 . S
C817 C818 1.387 . S
C818 H803 0.930 . S
C818 C813 1.390 . S
C818 C817 1.387 . S
H819 C831 0.930 . S
H820 C833 0.930 . S
H821 C834 0.930 . S
H822 C838 0.959 . S
H823 C838 0.959 . S
H824 C838 0.961 . S
H825 C839 0.960 . S
H826 C839 0.961 . S
H827 C839 0.959 . S
H828 C842 0.929 . S
H829 C843 0.931 . S
H830 C845 0.930 . S
C831 H819 0.930 . S
C831 C832 1.399 . S
C831 C836 1.399 . S
C832 C831 1.399 . S
C832 C833 1.376 . S
C833 H820 0.930 . S
C833 C832 1.376 . S
C833 C834 1.388 . S
C834 H821 0.930 . S
C834 C833 1.388 . S
C834 C835 1.390 . S
C835 C834 1.390 . S
C835 C836 1.394 . S
C835 C841 1.465 . S
C836 C831 1.399 . S
C836 C835 1.394 . S
C836 C837 1.516 . S
C837 C836 1.516 . S
C837 C838 1.502 . S
C837 C839 1.561 . S
C837 C840 1.526 . S
C838 H822 0.959 . S
C838 H823 0.959 . S
C838 H824 0.961 . S
C838 C837 1.502 . S
C839 H825 0.960 . S
C839 H826 0.961 . S
C839 H827 0.959 . S
C839 C837 1.561 . S
C840 C837 1.526 . S
C840 C841 1.396 . S
C840 C845 1.390 . S
C841 C835 1.465 . S
C841 C840 1.396 . S
C841 C842 1.399 . S
C842 H828 0.929 . S
C842 C841 1.399 . S
C842 C843 1.385 . S
C843 H829 0.931 . S
C843 C842 1.385 . S
C843 C844 1.389 . S
C844 C843 1.389 . S
C844 C845 1.387 . S
C845 H830 0.930 . S
C845 C840 1.390 . S
C845 C844 1.387 . S
H846 C858 0.930 . S
H847 C860 0.930 . S
H848 C861 0.930 . S
H849 C865 0.959 . S
H850 C865 0.959 . S
H851 C865 0.961 . S
H852 C866 0.960 . S
H853 C866 0.961 . S
H854 C866 0.959 . S
H855 C869 0.929 . S
H856 C870 0.931 . S
H857 C872 0.930 . S
C858 H846 0.930 . S
C858 C859 1.399 . S
C858 C863 1.399 . S
C859 C858 1.399 . S
C859 C860 1.376 . S
C860 H847 0.930 . S
C860 C859 1.376 . S
C860 C861 1.388 . S
C861 H848 0.930 . S
C861 C860 1.388 . S
C861 C862 1.390 . S
C862 C861 1.390 . S
C862 C863 1.394 . S
C862 C868 1.465 . S
C863 C858 1.399 . S
C863 C862 1.394 . S
C863 C864 1.516 . S
C864 C863 1.516 . S
C864 C865 1.502 . S
C864 C866 1.561 . S
C864 C867 1.526 . S
C865 H849 0.959 . S
C865 H850 0.959 . S
C865 H851 0.961 . S
C865 C864 1.502 . S
C866 H852 0.960 . S
C866 H853 0.961 . S
C866 H854 0.959 . S
C866 C864 1.561 . S
C867 C864 1.526 . S
C867 C868 1.396 . S
C867 C872 1.390 . S
C868 C862 1.465 . S
C868 C867 1.396 . S
C868 C869 1.399 . S
C869 H855 0.929 . S
C869 C868 1.399 . S
C869 C870 1.385 . S
C870 H856 0.931 . S
C870 C869 1.385 . S
C870 C871 1.389 . S
C871 C870 1.389 . S
C871 C872 1.387 . S
C872 H857 0.930 . S
C872 C867 1.390 . S
C872 C871 1.387 . S
H873 C885 0.930 . S
H874 C887 0.930 . S
H875 C888 0.930 . S
H876 C892 0.959 . S
H877 C892 0.959 . S
H878 C892 0.961 . S
H879 C893 0.960 . S
H880 C893 0.961 . S
H881 C893 0.959 . S
H882 C896 0.929 . S
H883 C897 0.931 1_556 S
H884 C899 0.930 . S
C885 H873 0.930 . S
C885 C886 1.399 . S
C885 C890 1.399 . S
C886 C885 1.399 . S
C886 C887 1.376 . S
C887 H874 0.930 . S
C887 C886 1.376 . S
C887 C888 1.388 . S
C888 H875 0.930 . S
C888 C887 1.388 . S
C888 C889 1.390 . S
C889 C888 1.390 . S
C889 C890 1.394 . S
C889 C895 1.465 . S
C890 C885 1.399 . S
C890 C889 1.394 . S
C890 C891 1.516 . S
C891 C890 1.516 . S
C891 C892 1.502 . S
C891 C893 1.561 . S
C891 C894 1.526 . S
C892 H876 0.959 . S
C892 H877 0.959 . S
C892 H878 0.961 . S
C892 C891 1.502 . S
C893 H879 0.960 . S
C893 H880 0.961 . S
C893 H881 0.959 . S
C893 C891 1.561 . S
C894 C891 1.526 . S
C894 C895 1.396 . S
C894 C899 1.390 . S
C895 C889 1.465 . S
C895 C894 1.396 . S
C895 C896 1.399 . S
C896 H882 0.929 . S
C896 C895 1.399 . S
C896 C897 1.385 . S
C897 H883 0.931 1_554 S
C897 C896 1.385 . S
C897 C898 1.389 . S
C898 C897 1.389 . S
C898 C899 1.387 . S
C899 H884 0.930 . S
C899 C894 1.390 . S
C899 C898 1.387 . S
H900 C912 0.930 . S
H901 C914 0.930 . S
H902 C915 0.930 . S
H903 C919 0.959 . S
H904 C919 0.959 . S
H905 C919 0.961 . S
H906 C920 0.960 . S
H907 C920 0.961 . S
H908 C920 0.959 . S
H909 C923 0.929 . S
H910 C924 0.931 . S
H911 C926 0.930 . S
C912 H900 0.930 . S
C912 C913 1.399 . S
C912 C917 1.399 . S
C913 C912 1.399 . S
C913 C914 1.376 . S
C914 H901 0.930 . S
C914 C913 1.376 . S
C914 C915 1.388 . S
C915 H902 0.930 . S
C915 C914 1.388 . S
C915 C916 1.390 . S
C916 C915 1.390 . S
C916 C917 1.394 . S
C916 C922 1.465 . S
C917 C912 1.399 . S
C917 C916 1.394 . S
C917 C918 1.516 . S
C918 C917 1.516 . S
C918 C919 1.502 . S
C918 C920 1.561 . S
C918 C921 1.526 . S
C919 H903 0.959 . S
C919 H904 0.959 . S
C919 H905 0.961 . S
C919 C918 1.502 . S
C920 H906 0.960 . S
C920 H907 0.961 . S
C920 H908 0.959 . S
C920 C918 1.561 . S
C921 C918 1.526 . S
C921 C922 1.396 . S
C921 C926 1.390 . S
C922 C916 1.465 . S
C922 C921 1.396 . S
C922 C923 1.399 . S
C923 H909 0.929 . S
C923 C922 1.399 . S
C923 C924 1.385 . S
C924 H910 0.931 . S
C924 C923 1.385 . S
C924 C925 1.389 . S
C925 C924 1.389 . S
C925 C926 1.387 . S
C926 H911 0.930 . S
C926 C921 1.390 . S
C926 C925 1.387 . S
H927 C939 0.930 . S
H928 C941 0.930 . S
H929 C942 0.930 . S
H930 C946 0.959 . S
H931 C946 0.959 . S
H932 C946 0.961 . S
H933 C947 0.960 . S
H934 C947 0.961 . S
H935 C947 0.959 . S
H936 C950 0.929 . S
H937 C951 0.931 . S
H938 C953 0.930 . S
C939 H927 0.930 . S
C939 C940 1.399 . S
C939 C944 1.399 . S
C940 C939 1.399 . S
C940 C941 1.376 . S
C941 H928 0.930 . S
C941 C940 1.376 . S
C941 C942 1.388 . S
C942 H929 0.930 . S
C942 C941 1.388 . S
C942 C943 1.390 . S
C943 C942 1.390 . S
C943 C944 1.394 . S
C943 C949 1.465 . S
C944 C939 1.399 . S
C944 C943 1.394 . S
C944 C945 1.516 . S
C945 C944 1.516 . S
C945 C946 1.502 . S
C945 C947 1.561 . S
C945 C948 1.526 . S
C946 H930 0.959 . S
C946 H931 0.959 . S
C946 H932 0.961 . S
C946 C945 1.502 . S
C947 H933 0.960 . S
C947 H934 0.961 . S
C947 H935 0.959 . S
C947 C945 1.561 . S
C948 C945 1.526 . S
C948 C949 1.396 . S
C948 C953 1.390 . S
C949 C943 1.465 . S
C949 C948 1.396 . S
C949 C950 1.399 . S
C950 H936 0.929 . S
C950 C949 1.399 . S
C950 C951 1.385 . S
C951 H937 0.931 . S
C951 C950 1.385 . S
C951 C952 1.389 . S
C952 C951 1.389 . S
C952 C953 1.387 . S
C953 H938 0.930 . S
C953 C948 1.390 . S
C953 C952 1.387 . S
H954 C966 0.930 . S
H955 C968 0.930 . S
H956 C969 0.930 . S
H957 C973 0.959 1_546 S
H958 C973 0.957 1_545 S
H959 C973 0.961 1_556 S
H960 C974 0.960 . S
H961 C974 0.961 . S
H962 C974 0.959 . S
H963 C977 0.929 . S
H964 C978 0.931 . S
H965 C980 0.930 . S
C966 H954 0.930 . S
C966 C967 1.399 . S
C966 C971 1.399 . S
C967 C966 1.399 . S
C967 C968 1.376 . S
C968 H955 0.930 . S
C968 C967 1.376 . S
C968 C969 1.388 . S
C969 H956 0.930 . S
C969 C968 1.388 . S
C969 C970 1.390 . S
C970 C969 1.390 . S
C970 C971 1.394 . S
C970 C976 1.465 1_566 S
C971 C966 1.399 . S
C971 C970 1.394 . S
C971 C972 1.516 1_556 S
C972 C971 1.516 1_554 S
C972 C973 1.502 . S
C972 C974 1.561 . S
C972 C975 1.526 1_565 S
C973 H957 0.959 1_564 S
C973 H958 0.957 1_565 S
C973 H959 0.961 1_554 S
C973 C972 1.502 . S
C974 H960 0.960 . S
C974 H961 0.961 . S
C974 H962 0.959 . S
C974 C972 1.561 . S
C975 C972 1.526 1_545 S
C975 C976 1.396 . S
C975 C980 1.390 . S
C976 C970 1.465 1_544 S
C976 C975 1.396 . S
C976 C977 1.399 . S
C977 H963 0.929 . S
C977 C976 1.399 . S
C977 C978 1.385 . S
C978 H964 0.931 . S
C978 C977 1.385 . S
C978 C979 1.389 . S
C979 C978 1.389 . S
C979 C980 1.387 . S
C980 H965 0.930 . S
C980 C975 1.390 . S
C980 C979 1.387 . S
H981 C993 0.930 . S
H982 C995 0.930 . S
H983 C996 0.930 . S
H984 C1000 0.959 . S
H985 C1000 0.959 . S
H986 C1000 0.961 . S
H987 C1001 0.960 . S
H988 C1001 0.961 . S
H989 C1001 0.959 . S
H990 C1004 0.929 1_554 S
H991 C1005 0.931 . S
H992 C1007 0.930 . S
C993 H981 0.930 . S
C993 C994 1.399 . S
C993 C998 1.399 . S
C994 C993 1.399 . S
C994 C995 1.376 . S
C995 H982 0.930 . S
C995 C994 1.376 . S
C995 C996 1.388 1_655 S
C996 H983 0.930 . S
C996 C995 1.388 1_455 S
C996 C997 1.390 . S
C997 C996 1.390 . S
C997 C998 1.392 1_455 S
C997 C1003 1.466 1_554 S
C998 C993 1.399 . S
C998 C997 1.392 1_655 S
C998 C999 1.516 1_554 S
C999 C998 1.516 1_556 S
C999 C1000 1.502 . S
C999 C1001 1.561 . S
C999 C1002 1.526 1_655 S
C1000 H984 0.959 . S
C1000 H985 0.959 . S
C1000 H986 0.961 . S
C1000 C999 1.502 . S
C1001 H987 0.960 . S
C1001 H988 0.961 . S
C1001 H989 0.959 . S
C1001 C999 1.561 . S
C1002 C999 1.526 1_455 S
C1002 C1003 1.396 . S
C1002 C1007 1.390 . S
C1003 C997 1.466 1_556 S
C1003 C1002 1.396 . S
C1003 C1004 1.399 . S
C1004 H990 0.929 1_556 S
C1004 C1003 1.399 . S
C1004 C1005 1.385 . S
C1005 H991 0.931 . S
C1005 C1004 1.385 . S
C1005 C1006 1.389 . S
C1006 C1005 1.389 . S
C1006 C1007 1.387 . S
C1007 H992 0.930 . S
C1007 C1002 1.390 . S
C1007 C1006 1.387 . S
H1008 C1020 0.930 . S
H1009 C1022 0.930 . S
H1010 C1023 0.930 1_554 S
H1011 C1027 0.959 . S
H1012 C1027 0.959 . S
H1013 C1027 0.961 . S
H1014 C1028 0.960 . S
H1015 C1028 0.961 1_554 S
H1016 C1028 0.959 1_554 S
H1017 C1031 0.929 . S
H1018 C1032 0.931 . S
H1019 C1034 0.930 . S
C1020 H1008 0.930 . S
C1020 C1021 1.399 . S
C1020 C1025 1.399 . S
C1021 C1020 1.399 . S
C1021 C1022 1.376 . S
C1022 H1009 0.930 . S
C1022 C1021 1.376 . S
C1022 C1023 1.388 . S
C1023 H1010 0.930 1_556 S
C1023 C1022 1.388 . S
C1023 C1024 1.390 . S
C1024 C1023 1.390 . S
C1024 C1025 1.394 . S
C1024 C1030 1.465 1_556 S
C1025 C1020 1.399 . S
C1025 C1024 1.394 . S
C1025 C1026 1.516 . S
C1026 C1025 1.516 . S
C1026 C1027 1.502 . S
C1026 C1028 1.561 . S
C1026 C1029 1.526 1_556 S
C1027 H1011 0.959 . S
C1027 H1012 0.959 . S
C1027 H1013 0.961 . S
C1027 C1026 1.502 . S
C1028 H1014 0.960 . S
C1028 H1015 0.961 1_556 S
C1028 H1016 0.959 1_556 S
C1028 C1026 1.561 . S
C1029 C1026 1.526 1_554 S
C1029 C1030 1.396 . S
C1029 C1034 1.390 . S
C1030 C1024 1.465 1_554 S
C1030 C1029 1.396 . S
C1030 C1031 1.399 . S
C1031 H1017 0.929 . S
C1031 C1030 1.399 . S
C1031 C1032 1.385 . S
C1032 H1018 0.931 . S
C1032 C1031 1.385 . S
C1032 C1033 1.389 . S
C1033 C1032 1.389 . S
C1033 C1034 1.387 . S
C1034 H1019 0.930 . S
C1034 C1029 1.390 . S
C1034 C1033 1.387 . S
H1035 C1047 0.930 . S
H1036 C1049 0.930 . S
H1037 C1050 0.913 1_545 S
H1038 C1054 0.959 . S
H1039 C1054 0.959 . S
H1040 C1054 0.961 . S
H1041 C1055 0.960 . S
H1042 C1055 0.961 . S
H1043 C1055 0.959 . S
H1044 C1058 0.929 1_556 S
H1045 C1059 0.931 . S
H1046 C1061 0.930 . S
C1047 H1035 0.930 . S
C1047 C1048 1.399 . S
C1047 C1052 1.399 . S
C1048 C1047 1.399 . S
C1048 C1049 1.376 . S
C1049 H1036 0.930 . S
C1049 C1048 1.376 . S
C1049 C1050 1.412 . S
C1050 H1037 0.913 1_565 S
C1050 C1049 1.412 . S
C1050 C1051 1.385 . S
C1051 C1050 1.385 . S
C1051 C1052 1.394 . S
C1051 C1057 1.465 1_566 S
C1052 C1047 1.399 . S
C1052 C1051 1.394 . S
C1052 C1053 1.516 1_556 S
C1053 C1052 1.516 1_554 S
C1053 C1054 1.502 . S
C1053 C1055 1.561 . S
C1053 C1056 1.526 1_565 S
C1054 H1038 0.959 . S
C1054 H1039 0.959 . S
C1054 H1040 0.961 . S
C1054 C1053 1.502 . S
C1055 H1041 0.960 . S
C1055 H1042 0.961 . S
C1055 H1043 0.959 . S
C1055 C1053 1.561 . S
C1056 C1053 1.526 1_545 S
C1056 C1057 1.396 . S
C1056 C1061 1.390 . S
C1057 C1051 1.465 1_544 S
C1057 C1056 1.396 . S
C1057 C1058 1.399 . S
C1058 H1044 0.929 1_554 S
C1058 C1057 1.399 . S
C1058 C1059 1.385 . S
C1059 H1045 0.931 . S
C1059 C1058 1.385 . S
C1059 C1060 1.389 . S
C1060 C1059 1.389 . S
C1060 C1061 1.387 . S
C1061 H1046 0.930 . S
C1061 C1056 1.390 . S
C1061 C1060 1.387 . S
H1062 C1074 0.930 . S
H1063 C1076 0.930 . S
H1064 C1077 0.925 1_655 S
H1065 C1081 0.959 . S
H1066 C1081 0.959 . S
H1067 C1081 0.961 . S
H1068 C1082 0.960 . S
H1069 C1082 0.961 . S
H1070 C1082 0.943 1_655 S
H1071 C1085 0.929 1_556 S
H1072 C1086 0.931 . S
H1073 C1088 0.930 . S
C1074 H1062 0.930 . S
C1074 C1075 1.399 . S
C1074 C1079 1.399 . S
C1075 C1074 1.399 . S
C1075 C1076 1.376 . S
C1076 H1063 0.930 . S
C1076 C1075 1.376 . S
C1076 C1077 1.395 . S
C1077 H1064 0.925 1_455 S
C1077 C1076 1.395 . S
C1077 C1078 1.392 . S
C1078 C1077 1.392 . S
C1078 C1079 1.403 . S
C1078 C1084 1.452 1_456 S
C1079 C1074 1.399 . S
C1079 C1078 1.403 . S
C1079 C1080 1.516 1_556 S
C1080 C1079 1.516 1_554 S
C1080 C1081 1.502 . S
C1080 C1082 1.561 . S
C1080 C1083 1.526 1_455 S
C1081 H1065 0.959 . S
C1081 H1066 0.959 . S
C1081 H1067 0.961 . S
C1081 C1080 1.502 . S
C1082 H1068 0.960 . S
C1082 H1069 0.961 . S
C1082 H1070 0.943 1_455 S
C1082 C1080 1.561 . S
C1083 C1080 1.526 1_655 S
C1083 C1084 1.396 . S
C1083 C1088 1.390 . S
C1084 C1078 1.452 1_654 S
C1084 C1083 1.396 . S
C1084 C1085 1.399 . S
C1085 H1071 0.929 1_554 S
C1085 C1084 1.399 . S
C1085 C1086 1.385 . S
C1086 H1072 0.931 . S
C1086 C1085 1.385 . S
C1086 C1087 1.389 . S
C1087 C1086 1.389 . S
C1087 C1088 1.387 . S
C1088 H1073 0.930 . S
C1088 C1083 1.390 . S
C1088 C1087 1.387 . S
H1089 C1101 0.930 . S
H1090 C1103 0.930 . S
H1091 C1104 0.930 1_556 S
H1092 C1108 0.959 . S
H1093 C1108 0.959 . S
H1094 C1108 0.961 . S
H1095 C1109 0.960 . S
H1096 C1109 0.961 . S
H1097 C1109 0.959 . S
H1098 C1112 0.929 . S
H1099 C1113 0.931 . S
H1100 C1115 0.930 . S
C1101 H1089 0.930 . S
C1101 C1102 1.399 . S
C1101 C1106 1.399 . S
C1102 C1101 1.399 . S
C1102 C1103 1.376 . S
C1103 H1090 0.930 . S
C1103 C1102 1.376 . S
C1103 C1104 1.388 . S
C1104 H1091 0.930 1_554 S
C1104 C1103 1.388 . S
C1104 C1105 1.390 . S
C1105 C1104 1.390 . S
C1105 C1106 1.394 . S
C1105 C1111 1.465 1_554 S
C1106 C1101 1.399 . S
C1106 C1105 1.394 . S
C1106 C1107 1.516 . S
C1107 C1106 1.516 . S
C1107 C1108 1.502 . S
C1107 C1109 1.561 . S
C1107 C1110 1.526 1_554 S
C1108 H1092 0.959 . S
C1108 H1093 0.959 . S
C1108 H1094 0.961 . S
C1108 C1107 1.502 . S
C1109 H1095 0.960 . S
C1109 H1096 0.961 . S
C1109 H1097 0.959 . S
C1109 C1107 1.561 . S
C1110 C1107 1.526 1_556 S
C1110 C1111 1.396 . S
C1110 C1115 1.390 . S
C1111 C1105 1.465 1_556 S
C1111 C1110 1.396 . S
C1111 C1112 1.399 . S
C1112 H1098 0.929 . S
C1112 C1111 1.399 . S
C1112 C1113 1.385 . S
C1113 H1099 0.931 . S
C1113 C1112 1.385 . S
C1113 C1114 1.389 . S
C1114 C1113 1.389 . S
C1114 C1115 1.387 . S
C1115 H1100 0.930 . S
C1115 C1110 1.390 . S
C1115 C1114 1.387 . S
H1116 C1128 0.930 . S
H1117 C1130 0.930 . S
H1118 C1131 0.930 . S
H1119 C1135 0.959 . S
H1120 C1135 0.959 . S
H1121 C1135 0.961 . S
H1122 C1136 0.960 . S
H1123 C1136 0.961 . S
H1124 C1136 0.959 . S
H1125 C1139 0.929 . S
H1126 C1140 0.931 . S
H1127 C1142 0.930 . S
C1128 H1116 0.930 . S
C1128 C1129 1.399 . S
C1128 C1133 1.399 . S
C1129 C1128 1.399 . S
C1129 C1130 1.376 . S
C1130 H1117 0.930 . S
C1130 C1129 1.376 . S
C1130 C1131 1.388 . S
C1131 H1118 0.930 . S
C1131 C1130 1.388 . S
C1131 C1132 1.390 . S
C1132 C1131 1.390 . S
C1132 C1133 1.394 . S
C1132 C1138 1.465 . S
C1133 C1128 1.399 . S
C1133 C1132 1.394 . S
C1133 C1134 1.516 . S
C1134 C1133 1.516 . S
C1134 C1135 1.502 . S
C1134 C1136 1.561 . S
C1134 C1137 1.526 . S
C1135 H1119 0.959 . S
C1135 H1120 0.959 . S
C1135 H1121 0.961 . S
C1135 C1134 1.502 . S
C1136 H1122 0.960 . S
C1136 H1123 0.961 . S
C1136 H1124 0.959 . S
C1136 C1134 1.561 . S
C1137 C1134 1.526 . S
C1137 C1138 1.396 . S
C1137 C1142 1.390 . S
C1138 C1132 1.465 . S
C1138 C1137 1.396 . S
C1138 C1139 1.399 . S
C1139 H1125 0.929 . S
C1139 C1138 1.399 . S
C1139 C1140 1.385 . S
C1140 H1126 0.931 . S
C1140 C1139 1.385 . S
C1140 C1141 1.389 . S
C1141 C1140 1.389 . S
C1141 C1142 1.387 . S
C1142 H1127 0.930 . S
C1142 C1137 1.390 . S
C1142 C1141 1.387 . S
H1143 C1155 0.930 . S
H1144 C1157 0.930 . S
H1145 C1158 0.930 . S
H1146 C1162 0.959 . S
H1147 C1162 0.959 . S
H1148 C1162 0.961 . S
H1149 C1163 0.960 . S
H1150 C1163 0.961 . S
H1151 C1163 0.959 . S
H1152 C1166 0.929 . S
H1153 C1167 0.931 . S
H1154 C1169 0.930 . S
C1155 H1143 0.930 . S
C1155 C1156 1.399 . S
C1155 C1160 1.399 . S
C1156 C1155 1.399 . S
C1156 C1157 1.376 . S
C1157 H1144 0.930 . S
C1157 C1156 1.376 . S
C1157 C1158 1.388 . S
C1158 H1145 0.930 . S
C1158 C1157 1.388 . S
C1158 C1159 1.390 . S
C1159 C1158 1.390 . S
C1159 C1160 1.394 . S
C1159 C1165 1.465 . S
C1160 C1155 1.399 . S
C1160 C1159 1.394 . S
C1160 C1161 1.516 . S
C1161 C1160 1.516 . S
C1161 C1162 1.502 . S
C1161 C1163 1.561 . S
C1161 C1164 1.526 . S
C1162 H1146 0.959 . S
C1162 H1147 0.959 . S
C1162 H1148 0.961 . S
C1162 C1161 1.502 . S
C1163 H1149 0.960 . S
C1163 H1150 0.961 . S
C1163 H1151 0.959 . S
C1163 C1161 1.561 . S
C1164 C1161 1.526 . S
C1164 C1165 1.396 . S
C1164 C1169 1.390 . S
C1165 C1159 1.465 . S
C1165 C1164 1.396 . S
C1165 C1166 1.399 . S
C1166 H1152 0.929 . S
C1166 C1165 1.399 . S
C1166 C1167 1.385 . S
C1167 H1153 0.931 . S
C1167 C1166 1.385 . S
C1167 C1168 1.389 . S
C1168 C1167 1.389 . S
C1168 C1169 1.387 . S
C1169 H1154 0.930 . S
C1169 C1164 1.390 . S
C1169 C1168 1.387 . S
H1170 C1182 0.930 . S
H1171 C1184 0.930 . S
H1172 C1185 0.930 . S
H1173 C1189 0.959 . S
H1174 C1189 0.959 . S
H1175 C1189 0.961 . S
H1176 C1190 0.960 . S
H1177 C1190 0.961 . S
H1178 C1190 0.959 . S
H1179 C1193 0.929 . S
H1180 C1194 0.931 . S
H1181 C1196 0.930 . S
C1182 H1170 0.930 . S
C1182 C1183 1.399 . S
C1182 C1187 1.399 . S
C1183 C1182 1.399 . S
C1183 C1184 1.376 . S
C1184 H1171 0.930 . S
C1184 C1183 1.376 . S
C1184 C1185 1.388 . S
C1185 H1172 0.930 . S
C1185 C1184 1.388 . S
C1185 C1186 1.390 . S
C1186 C1185 1.390 . S
C1186 C1187 1.394 . S
C1186 C1192 1.465 . S
C1187 C1182 1.399 . S
C1187 C1186 1.394 . S
C1187 C1188 1.516 . S
C1188 C1187 1.516 . S
C1188 C1189 1.502 . S
C1188 C1190 1.561 . S
C1188 C1191 1.526 . S
C1189 H1173 0.959 . S
C1189 H1174 0.959 . S
C1189 H1175 0.961 . S
C1189 C1188 1.502 . S
C1190 H1176 0.960 . S
C1190 H1177 0.961 . S
C1190 H1178 0.959 . S
C1190 C1188 1.561 . S
C1191 C1188 1.526 . S
C1191 C1192 1.396 . S
C1191 C1196 1.390 . S
C1192 C1186 1.465 . S
C1192 C1191 1.396 . S
C1192 C1193 1.399 . S
C1193 H1179 0.929 . S
C1193 C1192 1.399 . S
C1193 C1194 1.385 . S
C1194 H1180 0.931 . S
C1194 C1193 1.385 . S
C1194 C1195 1.389 . S
C1195 C1194 1.389 . S
C1195 C1196 1.387 . S
C1196 H1181 0.930 . S
C1196 C1191 1.390 . S
C1196 C1195 1.387 . S
H1197 C1209 0.930 . S
H1198 C1211 0.930 . S
H1199 C1212 0.930 . S
H1200 C1216 0.959 . S
H1201 C1216 0.959 . S
H1202 C1216 0.961 . S
H1203 C1217 0.960 . S
H1204 C1217 0.961 . S
H1205 C1217 0.959 . S
H1206 C1220 0.929 . S
H1207 C1221 0.931 . S
H1208 C1223 0.930 . S
C1209 H1197 0.930 . S
C1209 C1210 1.399 . S
C1209 C1214 1.399 . S
C1210 C1209 1.399 . S
C1210 C1211 1.376 . S
C1211 H1198 0.930 . S
C1211 C1210 1.376 . S
C1211 C1212 1.388 . S
C1212 H1199 0.930 . S
C1212 C1211 1.388 . S
C1212 C1213 1.390 . S
C1213 C1212 1.390 . S
C1213 C1214 1.394 . S
C1213 C1219 1.465 . S
C1214 C1209 1.399 . S
C1214 C1213 1.394 . S
C1214 C1215 1.516 . S
C1215 C1214 1.516 . S
C1215 C1216 1.502 . S
C1215 C1217 1.561 . S
C1215 C1218 1.526 . S
C1216 H1200 0.959 . S
C1216 H1201 0.959 . S
C1216 H1202 0.961 . S
C1216 C1215 1.502 . S
C1217 H1203 0.960 . S
C1217 H1204 0.961 . S
C1217 H1205 0.959 . S
C1217 C1215 1.561 . S
C1218 C1215 1.526 . S
C1218 C1219 1.396 . S
C1218 C1223 1.390 . S
C1219 C1213 1.465 . S
C1219 C1218 1.396 . S
C1219 C1220 1.399 . S
C1220 H1206 0.929 . S
C1220 C1219 1.399 . S
C1220 C1221 1.385 . S
C1221 H1207 0.931 . S
C1221 C1220 1.385 . S
C1221 C1222 1.389 . S
C1222 C1221 1.389 . S
C1222 C1223 1.387 . S
C1223 H1208 0.930 . S
C1223 C1218 1.390 . S
C1223 C1222 1.387 . S
H1224 C1236 0.930 . S
H1225 C1238 0.930 . S
H1226 C1239 0.930 . S
H1227 C1243 0.959 . S
H1228 C1243 0.959 . S
H1229 C1243 0.961 . S
H1230 C1244 0.960 . S
H1231 C1244 0.961 . S
H1232 C1244 0.959 . S
H1233 C1247 0.929 . S
H1234 C1248 0.931 . S
H1235 C1250 0.930 . S
C1236 H1224 0.930 . S
C1236 C1237 1.399 . S
C1236 C1241 1.399 . S
C1237 C1236 1.399 . S
C1237 C1238 1.376 . S
C1238 H1225 0.930 . S
C1238 C1237 1.376 . S
C1238 C1239 1.388 . S
C1239 H1226 0.930 . S
C1239 C1238 1.388 . S
C1239 C1240 1.390 . S
C1240 C1239 1.390 . S
C1240 C1241 1.394 . S
C1240 C1246 1.465 . S
C1241 C1236 1.399 . S
C1241 C1240 1.394 . S
C1241 C1242 1.516 . S
C1242 C1241 1.516 . S
C1242 C1243 1.502 . S
C1242 C1244 1.561 . S
C1242 C1245 1.526 . S
C1243 H1227 0.959 . S
C1243 H1228 0.959 . S
C1243 H1229 0.961 . S
C1243 C1242 1.502 . S
C1244 H1230 0.960 . S
C1244 H1231 0.961 . S
C1244 H1232 0.959 . S
C1244 C1242 1.561 . S
C1245 C1242 1.526 . S
C1245 C1246 1.396 . S
C1245 C1250 1.390 . S
C1246 C1240 1.465 . S
C1246 C1245 1.396 . S
C1246 C1247 1.399 . S
C1247 H1233 0.929 . S
C1247 C1246 1.399 . S
C1247 C1248 1.385 . S
C1248 H1234 0.931 . S
C1248 C1247 1.385 . S
C1248 C1249 1.389 . S
C1249 C1248 1.389 . S
C1249 C1250 1.387 . S
C1250 H1235 0.930 . S
C1250 C1245 1.390 . S
C1250 C1249 1.387 . S
H1251 C1263 0.930 . S
H1252 C1265 0.930 . S
H1253 C1266 0.930 . S
H1254 C1270 0.959 . S
H1255 C1270 0.959 . S
H1256 C1270 0.961 . S
H1257 C1271 0.960 . S
H1258 C1271 0.961 . S
H1259 C1271 0.959 . S
H1260 C1274 0.929 . S
H1261 C1275 0.931 . S
H1262 C1277 0.930 . S
C1263 H1251 0.930 . S
C1263 C1264 1.399 . S
C1263 C1268 1.399 . S
C1264 C1263 1.399 . S
C1264 C1265 1.376 . S
C1265 H1252 0.930 . S
C1265 C1264 1.376 . S
C1265 C1266 1.388 . S
C1266 H1253 0.930 . S
C1266 C1265 1.388 . S
C1266 C1267 1.390 . S
C1267 C1266 1.390 . S
C1267 C1268 1.394 . S
C1267 C1273 1.465 . S
C1268 C1263 1.399 . S
C1268 C1267 1.394 . S
C1268 C1269 1.516 . S
C1269 C1268 1.516 . S
C1269 C1270 1.502 . S
C1269 C1271 1.561 . S
C1269 C1272 1.526 . S
C1270 H1254 0.959 . S
C1270 H1255 0.959 . S
C1270 H1256 0.961 . S
C1270 C1269 1.502 . S
C1271 H1257 0.960 . S
C1271 H1258 0.961 . S
C1271 H1259 0.959 . S
C1271 C1269 1.561 . S
C1272 C1269 1.526 . S
C1272 C1273 1.396 . S
C1272 C1277 1.390 . S
C1273 C1267 1.465 . S
C1273 C1272 1.396 . S
C1273 C1274 1.399 . S
C1274 H1260 0.929 . S
C1274 C1273 1.399 . S
C1274 C1275 1.385 . S
C1275 H1261 0.931 . S
C1275 C1274 1.385 . S
C1275 C1276 1.389 . S
C1276 C1275 1.389 . S
C1276 C1277 1.387 . S
C1277 H1262 0.930 . S
C1277 C1272 1.390 . S
C1277 C1276 1.387 . S
H1278 C1290 0.930 . S
H1279 C1292 0.930 . S
H1280 C1293 0.930 . S
H1281 C1297 0.959 . S
H1282 C1297 0.959 . S
H1283 C1297 0.961 . S
H1284 C1298 0.960 . S
H1285 C1298 0.961 . S
H1286 C1298 0.959 . S
H1287 C1301 0.929 . S
H1288 C1302 0.931 . S
H1289 C1304 0.930 . S
C1290 H1278 0.930 . S
C1290 C1291 1.399 . S
C1290 C1295 1.399 . S
C1291 C1290 1.399 . S
C1291 C1292 1.376 . S
C1292 H1279 0.930 . S
C1292 C1291 1.376 . S
C1292 C1293 1.388 . S
C1293 H1280 0.930 . S
C1293 C1292 1.388 . S
C1293 C1294 1.390 . S
C1294 C1293 1.390 . S
C1294 C1295 1.394 . S
C1294 C1300 1.465 . S
C1295 C1290 1.399 . S
C1295 C1294 1.394 . S
C1295 C1296 1.516 . S
C1296 C1295 1.516 . S
C1296 C1297 1.502 . S
C1296 C1298 1.561 . S
C1296 C1299 1.526 . S
C1297 H1281 0.959 . S
C1297 H1282 0.959 . S
C1297 H1283 0.961 . S
C1297 C1296 1.502 . S
C1298 H1284 0.960 . S
C1298 H1285 0.961 . S
C1298 H1286 0.959 . S
C1298 C1296 1.561 . S
C1299 C1296 1.526 . S
C1299 C1300 1.396 . S
C1299 C1304 1.390 . S
C1300 C1294 1.465 . S
C1300 C1299 1.396 . S
C1300 C1301 1.399 . S
C1301 H1287 0.929 . S
C1301 C1300 1.399 . S
C1301 C1302 1.385 . S
C1302 H1288 0.931 . S
C1302 C1301 1.385 . S
C1302 C1303 1.389 . S
C1303 C1302 1.389 . S
C1303 C1304 1.387 . S
C1304 H1289 0.930 . S
C1304 C1299 1.390 . S
C1304 C1303 1.387 . S
H1305 C1317 0.930 . S
H1306 C1319 0.930 . S
H1307 C1320 0.930 . S
H1308 C1324 0.959 . S
H1309 C1324 0.959 . S
H1310 C1324 0.961 . S
H1311 C1325 0.960 . S
H1312 C1325 0.961 . S
H1313 C1325 0.959 . S
H1314 C1328 0.929 . S
H1315 C1329 0.931 . S
H1316 C1331 0.930 . S
C1317 H1305 0.930 . S
C1317 C1318 1.399 . S
C1317 C1322 1.399 . S
C1318 C1317 1.399 . S
C1318 C1319 1.376 . S
C1319 H1306 0.930 . S
C1319 C1318 1.376 . S
C1319 C1320 1.388 . S
C1320 H1307 0.930 . S
C1320 C1319 1.388 . S
C1320 C1321 1.390 . S
C1321 C1320 1.390 . S
C1321 C1322 1.394 . S
C1321 C1327 1.465 . S
C1322 C1317 1.399 . S
C1322 C1321 1.394 . S
C1322 C1323 1.516 . S
C1323 C1322 1.516 . S
C1323 C1324 1.502 . S
C1323 C1325 1.561 . S
C1323 C1326 1.526 . S
C1324 H1308 0.959 . S
C1324 H1309 0.959 . S
C1324 H1310 0.961 . S
C1324 C1323 1.502 . S
C1325 H1311 0.960 . S
C1325 H1312 0.961 . S
C1325 H1313 0.959 . S
C1325 C1323 1.561 . S
C1326 C1323 1.526 . S
C1326 C1327 1.396 . S
C1326 C1331 1.390 . S
C1327 C1321 1.465 . S
C1327 C1326 1.396 . S
C1327 C1328 1.399 . S
C1328 H1314 0.929 . S
C1328 C1327 1.399 . S
C1328 C1329 1.385 . S
C1329 H1315 0.931 . S
C1329 C1328 1.385 . S
C1329 C1330 1.389 . S
C1330 C1329 1.389 . S
C1330 C1331 1.387 . S
C1331 H1316 0.930 . S
C1331 C1326 1.390 . S
C1331 C1330 1.387 . S
H1332 C1344 0.930 . S
H1333 C1346 0.930 . S
H1334 C1347 0.930 . S
H1335 C1351 0.959 . S
H1336 C1351 0.959 . S
H1337 C1351 0.961 . S
H1338 C1352 0.960 . S
H1339 C1352 0.961 . S
H1340 C1352 0.959 . S
H1341 C1355 0.929 . S
H1342 C1356 0.931 . S
H1343 C1358 0.930 . S
C1344 H1332 0.930 . S
C1344 C1345 1.399 . S
C1344 C1349 1.399 . S
C1345 C1344 1.399 . S
C1345 C1346 1.376 . S
C1346 H1333 0.930 . S
C1346 C1345 1.376 . S
C1346 C1347 1.388 . S
C1347 H1334 0.930 . S
C1347 C1346 1.388 . S
C1347 C1348 1.390 . S
C1348 C1347 1.390 . S
C1348 C1349 1.394 . S
C1348 C1354 1.465 . S
C1349 C1344 1.399 . S
C1349 C1348 1.394 . S
C1349 C1350 1.516 . S
C1350 C1349 1.516 . S
C1350 C1351 1.502 . S
C1350 C1352 1.561 . S
C1350 C1353 1.526 . S
C1351 H1335 0.959 . S
C1351 H1336 0.959 . S
C1351 H1337 0.961 . S
C1351 C1350 1.502 . S
C1352 H1338 0.960 . S
C1352 H1339 0.961 . S
C1352 H1340 0.959 . S
C1352 C1350 1.561 . S
C1353 C1350 1.526 . S
C1353 C1354 1.396 . S
C1353 C1358 1.390 . S
C1354 C1348 1.465 . S
C1354 C1353 1.396 . S
C1354 C1355 1.399 . S
C1355 H1341 0.929 . S
C1355 C1354 1.399 . S
C1355 C1356 1.385 . S
C1356 H1342 0.931 . S
C1356 C1355 1.385 . S
C1356 C1357 1.389 . S
C1357 C1356 1.389 . S
C1357 C1358 1.387 . S
C1358 H1343 0.930 . S
C1358 C1353 1.390 . S
C1358 C1357 1.387 . S
H1359 C1371 0.930 . S
H1360 C1373 0.930 . S
H1361 C1374 0.930 . S
H1362 C1378 0.959 . S
H1363 C1378 0.959 . S
H1364 C1378 0.961 . S
H1365 C1379 0.960 . S
H1366 C1379 0.961 . S
H1367 C1379 0.959 . S
H1368 C1382 0.929 . S
H1369 C1383 0.931 . S
H1370 C1385 0.930 . S
C1371 H1359 0.930 . S
C1371 C1372 1.399 . S
C1371 C1376 1.399 . S
C1372 C1371 1.399 . S
C1372 C1373 1.376 . S
C1373 H1360 0.930 . S
C1373 C1372 1.376 . S
C1373 C1374 1.388 . S
C1374 H1361 0.930 . S
C1374 C1373 1.388 . S
C1374 C1375 1.390 . S
C1375 C1374 1.390 . S
C1375 C1376 1.394 . S
C1375 C1381 1.465 . S
C1376 C1371 1.399 . S
C1376 C1375 1.394 . S
C1376 C1377 1.516 . S
C1377 C1376 1.516 . S
C1377 C1378 1.502 . S
C1377 C1379 1.561 . S
C1377 C1380 1.526 . S
C1378 H1362 0.959 . S
C1378 H1363 0.959 . S
C1378 H1364 0.961 . S
C1378 C1377 1.502 . S
C1379 H1365 0.960 . S
C1379 H1366 0.961 . S
C1379 H1367 0.959 . S
C1379 C1377 1.561 . S
C1380 C1377 1.526 . S
C1380 C1381 1.396 . S
C1380 C1385 1.390 . S
C1381 C1375 1.465 . S
C1381 C1380 1.396 . S
C1381 C1382 1.399 . S
C1382 H1368 0.929 . S
C1382 C1381 1.399 . S
C1382 C1383 1.385 . S
C1383 H1369 0.931 . S
C1383 C1382 1.385 . S
C1383 C1384 1.389 . S
C1384 C1383 1.389 . S
C1384 C1385 1.387 . S
C1385 H1370 0.930 . S
C1385 C1380 1.390 . S
C1385 C1384 1.387 . S
H1386 C1398 0.930 . S
H1387 C1400 0.930 . S
H1388 C1401 0.930 . S
H1389 C1405 0.959 . S
H1390 C1405 0.959 . S
H1391 C1405 0.961 . S
H1392 C1406 0.960 . S
H1393 C1406 0.961 . S
H1394 C1406 0.959 . S
H1395 C1409 0.929 . S
H1396 C1410 0.931 . S
H1397 C1412 0.930 . S
C1398 H1386 0.930 . S
C1398 C1399 1.399 . S
C1398 C1403 1.399 . S
C1399 C1398 1.399 . S
C1399 C1400 1.376 . S
C1400 H1387 0.930 . S
C1400 C1399 1.376 . S
C1400 C1401 1.388 . S
C1401 H1388 0.930 . S
C1401 C1400 1.388 . S
C1401 C1402 1.390 . S
C1402 C1401 1.390 . S
C1402 C1403 1.394 . S
C1402 C1408 1.465 . S
C1403 C1398 1.399 . S
C1403 C1402 1.394 . S
C1403 C1404 1.516 . S
C1404 C1403 1.516 . S
C1404 C1405 1.502 . S
C1404 C1406 1.561 . S
C1404 C1407 1.526 . S
C1405 H1389 0.959 . S
C1405 H1390 0.959 . S
C1405 H1391 0.961 . S
C1405 C1404 1.502 . S
C1406 H1392 0.960 . S
C1406 H1393 0.961 . S
C1406 H1394 0.959 . S
C1406 C1404 1.561 . S
C1407 C1404 1.526 . S
C1407 C1408 1.396 . S
C1407 C1412 1.390 . S
C1408 C1402 1.465 . S
C1408 C1407 1.396 . S
C1408 C1409 1.399 . S
C1409 H1395 0.929 . S
C1409 C1408 1.399 . S
C1409 C1410 1.385 . S
C1410 H1396 0.931 . S
C1410 C1409 1.385 . S
C1410 C1411 1.389 . S
C1411 C1410 1.389 . S
C1411 C1412 1.387 . S
C1412 H1397 0.930 . S
C1412 C1407 1.390 . S
C1412 C1411 1.387 . S
H1413 C1425 0.930 . S
H1414 C1427 0.930 . S
H1415 C1428 0.930 . S
H1416 C1432 0.959 . S
H1417 C1432 0.959 . S
H1418 C1432 0.961 . S
H1419 C1433 0.960 . S
H1420 C1433 0.961 . S
H1421 C1433 0.959 . S
H1422 C1436 0.929 . S
H1423 C1437 0.931 . S
H1424 C1439 0.930 . S
C1425 H1413 0.930 . S
C1425 C1426 1.399 . S
C1425 C1430 1.399 . S
C1426 C1425 1.399 . S
C1426 C1427 1.376 . S
C1427 H1414 0.930 . S
C1427 C1426 1.376 . S
C1427 C1428 1.388 . S
C1428 H1415 0.930 . S
C1428 C1427 1.388 . S
C1428 C1429 1.390 . S
C1429 C1428 1.390 . S
C1429 C1430 1.394 . S
C1429 C1435 1.465 . S
C1430 C1425 1.399 . S
C1430 C1429 1.394 . S
C1430 C1431 1.516 . S
C1431 C1430 1.516 . S
C1431 C1432 1.502 . S
C1431 C1433 1.561 . S
C1431 C1434 1.526 . S
C1432 H1416 0.959 . S
C1432 H1417 0.959 . S
C1432 H1418 0.961 . S
C1432 C1431 1.502 . S
C1433 H1419 0.960 . S
C1433 H1420 0.961 . S
C1433 H1421 0.959 . S
C1433 C1431 1.561 . S
C1434 C1431 1.526 . S
C1434 C1435 1.396 . S
C1434 C1439 1.390 . S
C1435 C1429 1.465 . S
C1435 C1434 1.396 . S
C1435 C1436 1.399 . S
C1436 H1422 0.929 . S
C1436 C1435 1.399 . S
C1436 C1437 1.385 . S
C1437 H1423 0.931 . S
C1437 C1436 1.385 . S
C1437 C1438 1.389 . S
C1438 C1437 1.389 . S
C1438 C1439 1.387 . S
C1439 H1424 0.930 . S
C1439 C1434 1.390 . S
C1439 C1438 1.387 . S
H1440 C1452 0.930 . S
H1441 C1454 0.930 . S
H1442 C1455 0.930 . S
H1443 C1459 0.959 . S
H1444 C1459 0.959 . S
H1445 C1459 0.961 . S
H1446 C1460 0.960 . S
H1447 C1460 0.961 . S
H1448 C1460 0.959 . S
H1449 C1463 0.929 . S
H1450 C1464 0.931 . S
H1451 C1466 0.930 . S
C1452 H1440 0.930 . S
C1452 C1453 1.399 . S
C1452 C1457 1.399 . S
C1453 C1452 1.399 . S
C1453 C1454 1.376 . S
C1454 H1441 0.930 . S
C1454 C1453 1.376 . S
C1454 C1455 1.388 . S
C1455 H1442 0.930 . S
C1455 C1454 1.388 . S
C1455 C1456 1.390 . S
C1456 C1455 1.390 . S
C1456 C1457 1.394 . S
C1456 C1462 1.465 . S
C1457 C1452 1.399 . S
C1457 C1456 1.394 . S
C1457 C1458 1.516 . S
C1458 C1457 1.516 . S
C1458 C1459 1.502 . S
C1458 C1460 1.561 . S
C1458 C1461 1.526 . S
C1459 H1443 0.959 . S
C1459 H1444 0.959 . S
C1459 H1445 0.961 . S
C1459 C1458 1.502 . S
C1460 H1446 0.960 . S
C1460 H1447 0.961 . S
C1460 H1448 0.959 . S
C1460 C1458 1.561 . S
C1461 C1458 1.526 . S
C1461 C1462 1.396 . S
C1461 C1466 1.390 . S
C1462 C1456 1.465 . S
C1462 C1461 1.396 . S
C1462 C1463 1.399 . S
C1463 H1449 0.929 . S
C1463 C1462 1.399 . S
C1463 C1464 1.385 . S
C1464 H1450 0.931 . S
C1464 C1463 1.385 . S
C1464 C1465 1.389 . S
C1465 C1464 1.389 . S
C1465 C1466 1.387 . S
C1466 H1451 0.930 . S
C1466 C1461 1.390 . S
C1466 C1465 1.387 . S
H1467 C1479 0.930 . S
H1468 C1481 0.930 . S
H1469 C1482 0.930 . S
H1470 C1486 0.959 . S
H1471 C1486 0.959 . S
H1472 C1486 0.961 . S
H1473 C1487 0.960 . S
H1474 C1487 0.961 . S
H1475 C1487 0.959 . S
H1476 C1490 0.929 . S
H1477 C1491 0.931 . S
H1478 C1493 0.930 . S
C1479 H1467 0.930 . S
C1479 C1480 1.399 . S
C1479 C1484 1.399 . S
C1480 C1479 1.399 . S
C1480 C1481 1.376 . S
C1481 H1468 0.930 . S
C1481 C1480 1.376 . S
C1481 C1482 1.388 . S
C1482 H1469 0.930 . S
C1482 C1481 1.388 . S
C1482 C1483 1.390 . S
C1483 C1482 1.390 . S
C1483 C1484 1.394 . S
C1483 C1489 1.465 . S
C1484 C1479 1.399 . S
C1484 C1483 1.394 . S
C1484 C1485 1.516 . S
C1485 C1484 1.516 . S
C1485 C1486 1.502 . S
C1485 C1487 1.561 . S
C1485 C1488 1.526 . S
C1486 H1470 0.959 . S
C1486 H1471 0.959 . S
C1486 H1472 0.961 . S
C1486 C1485 1.502 . S
C1487 H1473 0.960 . S
C1487 H1474 0.961 . S
C1487 H1475 0.959 . S
C1487 C1485 1.561 . S
C1488 C1485 1.526 . S
C1488 C1489 1.396 . S
C1488 C1493 1.390 . S
C1489 C1483 1.465 . S
C1489 C1488 1.396 . S
C1489 C1490 1.399 . S
C1490 H1476 0.929 . S
C1490 C1489 1.399 . S
C1490 C1491 1.385 . S
C1491 H1477 0.931 . S
C1491 C1490 1.385 . S
C1491 C1492 1.389 . S
C1492 C1491 1.389 . S
C1492 C1493 1.387 . S
C1493 H1478 0.930 . S
C1493 C1488 1.390 . S
C1493 C1492 1.387 . S
H1494 C1506 0.930 . S
H1495 C1508 0.930 . S
H1496 C1509 0.930 . S
H1497 C1513 0.959 . S
H1498 C1513 0.959 . S
H1499 C1513 0.961 . S
H1500 C1514 0.960 . S
H1501 C1514 0.961 . S
H1502 C1514 0.959 . S
H1503 C1517 0.929 . S
H1504 C1518 0.931 . S
H1505 C1520 0.930 . S
C1506 H1494 0.930 . S
C1506 C1507 1.399 . S
C1506 C1511 1.399 . S
C1507 C1506 1.399 . S
C1507 C1508 1.376 . S
C1508 H1495 0.930 . S
C1508 C1507 1.376 . S
C1508 C1509 1.388 . S
C1509 H1496 0.930 . S
C1509 C1508 1.388 . S
C1509 C1510 1.390 . S
C1510 C1509 1.390 . S
C1510 C1511 1.394 . S
C1510 C1516 1.465 . S
C1511 C1506 1.399 . S
C1511 C1510 1.394 . S
C1511 C1512 1.516 . S
C1512 C1511 1.516 . S
C1512 C1513 1.502 . S
C1512 C1514 1.561 . S
C1512 C1515 1.526 . S
C1513 H1497 0.959 . S
C1513 H1498 0.959 . S
C1513 H1499 0.961 . S
C1513 C1512 1.502 . S
C1514 H1500 0.960 . S
C1514 H1501 0.961 . S
C1514 H1502 0.959 . S
C1514 C1512 1.561 . S
C1515 C1512 1.526 . S
C1515 C1516 1.396 . S
C1515 C1520 1.390 . S
C1516 C1510 1.465 . S
C1516 C1515 1.396 . S
C1516 C1517 1.399 . S
C1517 H1503 0.929 . S
C1517 C1516 1.399 . S
C1517 C1518 1.385 . S
C1518 H1504 0.931 . S
C1518 C1517 1.385 . S
C1518 C1519 1.389 . S
C1519 C1518 1.389 . S
C1519 C1520 1.387 . S
C1520 H1505 0.930 . S
C1520 C1515 1.390 . S
C1520 C1519 1.387 . S
H1521 C1533 0.930 . S
H1522 C1535 0.930 . S
H1523 C1536 0.930 . S
H1524 C1540 0.959 . S
H1525 C1540 0.959 . S
H1526 C1540 0.961 . S
H1527 C1541 0.960 . S
H1528 C1541 0.961 . S
H1529 C1541 0.959 . S
H1530 C1544 0.929 . S
H1531 C1545 0.931 . S
H1532 C1547 0.930 . S
C1533 H1521 0.930 . S
C1533 C1534 1.399 . S
C1533 C1538 1.399 . S
C1534 C1533 1.399 . S
C1534 C1535 1.376 . S
C1535 H1522 0.930 . S
C1535 C1534 1.376 . S
C1535 C1536 1.388 . S
C1536 H1523 0.930 . S
C1536 C1535 1.388 . S
C1536 C1537 1.390 . S
C1537 C1536 1.390 . S
C1537 C1538 1.394 . S
C1537 C1543 1.465 . S
C1538 C1533 1.399 . S
C1538 C1537 1.394 . S
C1538 C1539 1.516 . S
C1539 C1538 1.516 . S
C1539 C1540 1.502 . S
C1539 C1541 1.561 . S
C1539 C1542 1.526 . S
C1540 H1524 0.959 . S
C1540 H1525 0.959 . S
C1540 H1526 0.961 . S
C1540 C1539 1.502 . S
C1541 H1527 0.960 . S
C1541 H1528 0.961 . S
C1541 H1529 0.959 . S
C1541 C1539 1.561 . S
C1542 C1539 1.526 . S
C1542 C1543 1.396 . S
C1542 C1547 1.390 . S
C1543 C1537 1.465 . S
C1543 C1542 1.396 . S
C1543 C1544 1.399 . S
C1544 H1530 0.929 . S
C1544 C1543 1.399 . S
C1544 C1545 1.385 . S
C1545 H1531 0.931 . S
C1545 C1544 1.385 . S
C1545 C1546 1.389 . S
C1546 C1545 1.389 . S
C1546 C1547 1.387 . S
C1547 H1532 0.930 . S
C1547 C1542 1.390 . S
C1547 C1546 1.387 . S
H1548 C1560 0.930 . S
H1549 C1562 0.930 . S
H1550 C1563 0.930 . S
H1551 C1567 0.959 . S
H1552 C1567 0.959 . S
H1553 C1567 0.961 . S
H1554 C1568 0.960 . S
H1555 C1568 0.961 . S
H1556 C1568 0.959 . S
H1557 C1571 0.929 . S
H1558 C1572 0.931 . S
H1559 C1574 0.930 . S
C1560 H1548 0.930 . S
C1560 C1561 1.399 . S
C1560 C1565 1.399 . S
C1561 C1560 1.399 . S
C1561 C1562 1.376 . S
C1562 H1549 0.930 . S
C1562 C1561 1.376 . S
C1562 C1563 1.388 . S
C1563 H1550 0.930 . S
C1563 C1562 1.388 . S
C1563 C1564 1.390 . S
C1564 C1563 1.390 . S
C1564 C1565 1.394 . S
C1564 C1570 1.465 . S
C1565 C1560 1.399 . S
C1565 C1564 1.394 . S
C1565 C1566 1.516 . S
C1566 C1565 1.516 . S
C1566 C1567 1.502 . S
C1566 C1568 1.561 . S
C1566 C1569 1.526 . S
C1567 H1551 0.959 . S
C1567 H1552 0.959 . S
C1567 H1553 0.961 . S
C1567 C1566 1.502 . S
C1568 H1554 0.960 . S
C1568 H1555 0.961 . S
C1568 H1556 0.959 . S
C1568 C1566 1.561 . S
C1569 C1566 1.526 . S
C1569 C1570 1.396 . S
C1569 C1574 1.390 . S
C1570 C1564 1.465 . S
C1570 C1569 1.396 . S
C1570 C1571 1.399 . S
C1571 H1557 0.929 . S
C1571 C1570 1.399 . S
C1571 C1572 1.385 . S
C1572 H1558 0.931 . S
C1572 C1571 1.385 . S
C1572 C1573 1.389 . S
C1573 C1572 1.389 . S
C1573 C1574 1.387 . S
C1574 H1559 0.930 . S
C1574 C1569 1.390 . S
C1574 C1573 1.387 . S
H1575 C1587 0.930 . S
H1576 C1589 0.930 . S
H1577 C1590 0.930 . S
H1578 C1594 0.959 . S
H1579 C1594 0.959 . S
H1580 C1594 0.961 . S
H1581 C1595 0.960 . S
H1582 C1595 0.961 . S
H1583 C1595 0.959 . S
H1584 C1598 0.929 . S
H1585 C1599 0.931 . S
H1586 C1601 0.930 . S
C1587 H1575 0.930 . S
C1587 C1588 1.399 . S
C1587 C1592 1.399 . S
C1588 C1587 1.399 . S
C1588 C1589 1.376 . S
C1589 H1576 0.930 . S
C1589 C1588 1.376 . S
C1589 C1590 1.388 . S
C1590 H1577 0.930 . S
C1590 C1589 1.388 . S
C1590 C1591 1.390 . S
C1591 C1590 1.390 . S
C1591 C1592 1.394 . S
C1591 C1597 1.465 . S
C1592 C1587 1.399 . S
C1592 C1591 1.394 . S
C1592 C1593 1.516 . S
C1593 C1592 1.516 . S
C1593 C1594 1.502 . S
C1593 C1595 1.561 . S
C1593 C1596 1.526 . S
C1594 H1578 0.959 . S
C1594 H1579 0.959 . S
C1594 H1580 0.961 . S
C1594 C1593 1.502 . S
C1595 H1581 0.960 . S
C1595 H1582 0.961 . S
C1595 H1583 0.959 . S
C1595 C1593 1.561 . S
C1596 C1593 1.526 . S
C1596 C1597 1.396 . S
C1596 C1601 1.390 . S
C1597 C1591 1.465 . S
C1597 C1596 1.396 . S
C1597 C1598 1.399 . S
C1598 H1584 0.929 . S
C1598 C1597 1.399 . S
C1598 C1599 1.385 . S
C1599 H1585 0.931 . S
C1599 C1598 1.385 . S
C1599 C1600 1.389 . S
C1600 C1599 1.389 . S
C1600 C1601 1.387 . S
C1601 H1586 0.930 . S
C1601 C1596 1.390 . S
C1601 C1600 1.387 . S
H1602 C1614 0.930 . S
H1603 C1616 0.930 . S
H1604 C1617 0.930 . S
H1605 C1621 0.959 . S
H1606 C1621 0.959 . S
H1607 C1621 0.961 . S
H1608 C1622 0.960 . S
H1609 C1622 0.961 . S
H1610 C1622 0.959 . S
H1611 C1625 0.929 . S
H1612 C1626 0.931 . S
H1613 C1628 0.930 . S
C1614 H1602 0.930 . S
C1614 C1615 1.399 . S
C1614 C1619 1.399 . S
C1615 C1614 1.399 . S
C1615 C1616 1.376 . S
C1616 H1603 0.930 . S
C1616 C1615 1.376 . S
C1616 C1617 1.388 . S
C1617 H1604 0.930 . S
C1617 C1616 1.388 . S
C1617 C1618 1.390 . S
C1618 C1617 1.390 . S
C1618 C1619 1.394 . S
C1618 C1624 1.465 . S
C1619 C1614 1.399 . S
C1619 C1618 1.394 . S
C1619 C1620 1.516 . S
C1620 C1619 1.516 . S
C1620 C1621 1.502 . S
C1620 C1622 1.561 . S
C1620 C1623 1.526 . S
C1621 H1605 0.959 . S
C1621 H1606 0.959 . S
C1621 H1607 0.961 . S
C1621 C1620 1.502 . S
C1622 H1608 0.960 . S
C1622 H1609 0.961 . S
C1622 H1610 0.959 . S
C1622 C1620 1.561 . S
C1623 C1620 1.526 . S
C1623 C1624 1.396 . S
C1623 C1628 1.390 . S
C1624 C1618 1.465 . S
C1624 C1623 1.396 . S
C1624 C1625 1.399 . S
C1625 H1611 0.929 . S
C1625 C1624 1.399 . S
C1625 C1626 1.385 . S
C1626 H1612 0.931 . S
C1626 C1625 1.385 . S
C1626 C1627 1.389 . S
C1627 C1626 1.389 . S
C1627 C1628 1.387 . S
C1628 H1613 0.930 . S
C1628 C1623 1.390 . S
C1628 C1627 1.387 . S
H1629 C1641 0.930 . S
H1630 C1643 0.930 . S
H1631 C1644 0.930 . S
H1632 C1648 0.959 . S
H1633 C1648 0.959 . S
H1634 C1648 0.961 . S
H1635 C1649 0.960 . S
H1636 C1649 0.961 . S
H1637 C1649 0.959 . S
H1638 C1652 0.929 . S
H1639 C1653 0.931 . S
H1640 C1655 0.930 . S
C1641 H1629 0.930 . S
C1641 C1642 1.399 . S
C1641 C1646 1.399 . S
C1642 C1641 1.399 . S
C1642 C1643 1.376 . S
C1643 H1630 0.930 . S
C1643 C1642 1.376 . S
C1643 C1644 1.388 . S
C1644 H1631 0.930 . S
C1644 C1643 1.388 . S
C1644 C1645 1.390 . S
C1645 C1644 1.390 . S
C1645 C1646 1.394 . S
C1645 C1651 1.465 . S
C1646 C1641 1.399 . S
C1646 C1645 1.394 . S
C1646 C1647 1.516 . S
C1647 C1646 1.516 . S
C1647 C1648 1.502 . S
C1647 C1649 1.561 . S
C1647 C1650 1.526 . S
C1648 H1632 0.959 . S
C1648 H1633 0.959 . S
C1648 H1634 0.961 . S
C1648 C1647 1.502 . S
C1649 H1635 0.960 . S
C1649 H1636 0.961 . S
C1649 H1637 0.959 . S
C1649 C1647 1.561 . S
C1650 C1647 1.526 . S
C1650 C1651 1.396 . S
C1650 C1655 1.390 . S
C1651 C1645 1.465 . S
C1651 C1650 1.396 . S
C1651 C1652 1.399 . S
C1652 H1638 0.929 . S
C1652 C1651 1.399 . S
C1652 C1653 1.385 . S
C1653 H1639 0.931 . S
C1653 C1652 1.385 . S
C1653 C1654 1.389 . S
C1654 C1653 1.389 . S
C1654 C1655 1.387 . S
C1655 H1640 0.930 . S
C1655 C1650 1.390 . S
C1655 C1654 1.387 . S
H1656 C1668 0.930 . S
H1657 C1670 0.930 . S
H1658 C1671 0.930 . S
H1659 C1675 0.959 . S
H1660 C1675 0.959 . S
H1661 C1675 0.961 . S
H1662 C1676 0.960 . S
H1663 C1676 0.961 . S
H1664 C1676 0.959 . S
H1665 C1679 0.929 . S
H1666 C1680 0.931 . S
H1667 C1682 0.930 . S
C1668 H1656 0.930 . S
C1668 C1669 1.399 . S
C1668 C1673 1.399 . S
C1669 C1668 1.399 . S
C1669 C1670 1.376 . S
C1670 H1657 0.930 . S
C1670 C1669 1.376 . S
C1670 C1671 1.388 . S
C1671 H1658 0.930 . S
C1671 C1670 1.388 . S
C1671 C1672 1.390 . S
C1672 C1671 1.390 . S
C1672 C1673 1.394 . S
C1672 C1678 1.465 . S
C1673 C1668 1.399 . S
C1673 C1672 1.394 . S
C1673 C1674 1.516 . S
C1674 C1673 1.516 . S
C1674 C1675 1.502 . S
C1674 C1676 1.561 . S
C1674 C1677 1.526 . S
C1675 H1659 0.959 . S
C1675 H1660 0.959 . S
C1675 H1661 0.961 . S
C1675 C1674 1.502 . S
C1676 H1662 0.960 . S
C1676 H1663 0.961 . S
C1676 H1664 0.959 . S
C1676 C1674 1.561 . S
C1677 C1674 1.526 . S
C1677 C1678 1.396 . S
C1677 C1682 1.390 . S
C1678 C1672 1.465 . S
C1678 C1677 1.396 . S
C1678 C1679 1.399 . S
C1679 H1665 0.929 . S
C1679 C1678 1.399 . S
C1679 C1680 1.385 . S
C1680 H1666 0.931 . S
C1680 C1679 1.385 . S
C1680 C1681 1.389 . S
C1681 C1680 1.389 . S
C1681 C1682 1.387 . S
C1682 H1667 0.930 . S
C1682 C1677 1.390 . S
C1682 C1681 1.387 . S
H1683 C1695 0.930 . S
H1684 C1697 0.930 . S
H1685 C1698 0.930 . S
H1686 C1702 0.959 . S
H1687 C1702 0.959 . S
H1688 C1702 0.961 . S
H1689 C1703 0.960 . S
H1690 C1703 0.961 . S
H1691 C1703 0.959 . S
H1692 C1706 0.929 . S
H1693 C1707 0.931 . S
H1694 C1709 0.930 . S
C1695 H1683 0.930 . S
C1695 C1696 1.399 . S
C1695 C1700 1.399 . S
C1696 C1695 1.399 . S
C1696 C1697 1.376 . S
C1697 H1684 0.930 . S
C1697 C1696 1.376 . S
C1697 C1698 1.388 . S
C1698 H1685 0.930 . S
C1698 C1697 1.388 . S
C1698 C1699 1.390 . S
C1699 C1698 1.390 . S
C1699 C1700 1.394 . S
C1699 C1705 1.465 . S
C1700 C1695 1.399 . S
C1700 C1699 1.394 . S
C1700 C1701 1.516 . S
C1701 C1700 1.516 . S
C1701 C1702 1.502 . S
C1701 C1703 1.561 . S
C1701 C1704 1.526 . S
C1702 H1686 0.959 . S
C1702 H1687 0.959 . S
C1702 H1688 0.961 . S
C1702 C1701 1.502 . S
C1703 H1689 0.960 . S
C1703 H1690 0.961 . S
C1703 H1691 0.959 . S
C1703 C1701 1.561 . S
C1704 C1701 1.526 . S
C1704 C1705 1.396 . S
C1704 C1709 1.390 . S
C1705 C1699 1.465 . S
C1705 C1704 1.396 . S
C1705 C1706 1.399 . S
C1706 H1692 0.929 . S
C1706 C1705 1.399 . S
C1706 C1707 1.385 . S
C1707 H1693 0.931 . S
C1707 C1706 1.385 . S
C1707 C1708 1.389 . S
C1708 C1707 1.389 . S
C1708 C1709 1.387 . S
C1709 H1694 0.930 . S
C1709 C1704 1.390 . S
C1709 C1708 1.387 . S
H1710 C1722 0.930 . S
H1711 C1724 0.930 . S
H1712 C1725 0.930 . S
H1713 C1729 0.959 . S
H1714 C1729 0.959 . S
H1715 C1729 0.961 . S
H1716 C1730 0.960 . S
H1717 C1730 0.961 . S
H1718 C1730 0.959 . S
H1719 C1733 0.929 . S
H1720 C1734 0.931 . S
H1721 C1736 0.930 . S
C1722 H1710 0.930 . S
C1722 C1723 1.399 . S
C1722 C1727 1.399 . S
C1723 C1722 1.399 . S
C1723 C1724 1.376 . S
C1724 H1711 0.930 . S
C1724 C1723 1.376 . S
C1724 C1725 1.388 . S
C1725 H1712 0.930 . S
C1725 C1724 1.388 . S
C1725 C1726 1.390 . S
C1726 C1725 1.390 . S
C1726 C1727 1.394 . S
C1726 C1732 1.465 . S
C1727 C1722 1.399 . S
C1727 C1726 1.394 . S
C1727 C1728 1.516 . S
C1728 C1727 1.516 . S
C1728 C1729 1.502 . S
C1728 C1730 1.561 . S
C1728 C1731 1.526 . S
C1729 H1713 0.959 . S
C1729 H1714 0.959 . S
C1729 H1715 0.961 . S
C1729 C1728 1.502 . S
C1730 H1716 0.960 . S
C1730 H1717 0.961 . S
C1730 H1718 0.959 . S
C1730 C1728 1.561 . S
C1731 C1728 1.526 . S
C1731 C1732 1.396 . S
C1731 C1736 1.390 . S
C1732 C1726 1.465 . S
C1732 C1731 1.396 . S
C1732 C1733 1.399 . S
C1733 H1719 0.929 . S
C1733 C1732 1.399 . S
C1733 C1734 1.385 . S
C1734 H1720 0.931 . S
C1734 C1733 1.385 . S
C1734 C1735 1.389 . S
C1735 C1734 1.389 . S
C1735 C1736 1.387 . S
C1736 H1721 0.930 . S
C1736 C1731 1.390 . S
C1736 C1735 1.387 . S
H1737 C1749 0.930 . S
H1738 C1751 0.930 . S
H1739 C1752 0.930 . S
H1740 C1756 0.959 . S
H1741 C1756 0.959 . S
H1742 C1756 0.961 . S
H1743 C1757 0.960 . S
H1744 C1757 0.961 . S
H1745 C1757 0.959 . S
H1746 C1760 0.929 . S
H1747 C1761 0.931 . S
H1748 C1763 0.930 . S
C1749 H1737 0.930 . S
C1749 C1750 1.399 . S
C1749 C1754 1.399 . S
C1750 C1749 1.399 . S
C1750 C1751 1.376 . S
C1751 H1738 0.930 . S
C1751 C1750 1.376 . S
C1751 C1752 1.388 . S
C1752 H1739 0.930 . S
C1752 C1751 1.388 . S
C1752 C1753 1.390 . S
C1753 C1752 1.390 . S
C1753 C1754 1.394 . S
C1753 C1759 1.465 . S
C1754 C1749 1.399 . S
C1754 C1753 1.394 . S
C1754 C1755 1.516 . S
C1755 C1754 1.516 . S
C1755 C1756 1.502 . S
C1755 C1757 1.561 . S
C1755 C1758 1.526 . S
C1756 H1740 0.959 . S
C1756 H1741 0.959 . S
C1756 H1742 0.961 . S
C1756 C1755 1.502 . S
C1757 H1743 0.960 . S
C1757 H1744 0.961 . S
C1757 H1745 0.959 . S
C1757 C1755 1.561 . S
C1758 C1755 1.526 . S
C1758 C1759 1.396 . S
C1758 C1763 1.390 . S
C1759 C1753 1.465 . S
C1759 C1758 1.396 . S
C1759 C1760 1.399 . S
C1760 H1746 0.929 . S
C1760 C1759 1.399 . S
C1760 C1761 1.385 . S
C1761 H1747 0.931 . S
C1761 C1760 1.385 . S
C1761 C1762 1.389 . S
C1762 C1761 1.389 . S
C1762 C1763 1.387 . S
C1763 H1748 0.930 . S
C1763 C1758 1.390 . S
C1763 C1762 1.387 . S
H1764 C1776 0.930 . S
H1765 C1778 0.930 . S
H1766 C1779 0.930 . S
H1767 C1783 0.959 . S
H1768 C1783 0.959 1_655 S
H1769 C1783 0.961 . S
H1770 C1784 0.960 . S
H1771 C1784 0.961 1_655 S
H1772 C1784 0.959 . S
H1773 C1787 0.929 . S
H1774 C1788 0.931 . S
H1775 C1790 0.930 . S
C1776 H1764 0.930 . S
C1776 C1777 1.399 . S
C1776 C1781 1.399 . S
C1777 C1776 1.399 . S
C1777 C1778 1.376 . S
C1778 H1765 0.930 . S
C1778 C1777 1.376 . S
C1778 C1779 1.388 . S
C1779 H1766 0.930 . S
C1779 C1778 1.388 . S
C1779 C1780 1.390 . S
C1780 C1779 1.390 . S
C1780 C1781 1.394 . S
C1780 C1786 1.465 1_455 S
C1781 C1776 1.399 . S
C1781 C1780 1.394 . S
C1781 C1782 1.516 . S
C1782 C1781 1.516 . S
C1782 C1783 1.502 . S
C1782 C1784 1.561 . S
C1782 C1785 1.526 1_455 S
C1783 H1767 0.959 . S
C1783 H1768 0.959 1_455 S
C1783 H1769 0.961 . S
C1783 C1782 1.502 . S
C1784 H1770 0.960 . S
C1784 H1771 0.961 1_455 S
C1784 H1772 0.959 . S
C1784 C1782 1.561 . S
C1785 C1782 1.526 1_655 S
C1785 C1786 1.396 . S
C1785 C1790 1.390 . S
C1786 C1780 1.465 1_655 S
C1786 C1785 1.396 . S
C1786 C1787 1.399 . S
C1787 H1773 0.929 . S
C1787 C1786 1.399 . S
C1787 C1788 1.385 . S
C1788 H1774 0.931 . S
C1788 C1787 1.385 . S
C1788 C1789 1.389 . S
C1789 C1788 1.389 . S
C1789 C1790 1.387 . S
C1790 H1775 0.930 . S
C1790 C1785 1.390 . S
C1790 C1789 1.387 . S
H1791 C1803 0.930 . S
H1792 C1805 0.930 . S
H1793 C1806 0.930 . S
H1794 C1810 0.959 . S
H1795 C1810 0.959 . S
H1796 C1810 0.961 . S
H1797 C1811 0.960 . S
H1798 C1811 0.961 . S
H1799 C1811 0.959 . S
H1800 C1814 0.929 . S
H1801 C1815 0.931 . S
H1802 C1817 0.930 . S
C1803 H1791 0.930 . S
C1803 C1804 1.399 . S
C1803 C1808 1.399 . S
C1804 C1803 1.399 . S
C1804 C1805 1.376 . S
C1805 H1792 0.930 . S
C1805 C1804 1.376 . S
C1805 C1806 1.388 . S
C1806 H1793 0.930 . S
C1806 C1805 1.388 . S
C1806 C1807 1.390 . S
C1807 C1806 1.390 . S
C1807 C1808 1.394 . S
C1807 C1813 1.465 . S
C1808 C1803 1.399 . S
C1808 C1807 1.394 . S
C1808 C1809 1.516 . S
C1809 C1808 1.516 . S
C1809 C1810 1.502 . S
C1809 C1811 1.561 . S
C1809 C1812 1.526 . S
C1810 H1794 0.959 . S
C1810 H1795 0.959 . S
C1810 H1796 0.961 . S
C1810 C1809 1.502 . S
C1811 H1797 0.960 . S
C1811 H1798 0.961 . S
C1811 H1799 0.959 . S
C1811 C1809 1.561 . S
C1812 C1809 1.526 . S
C1812 C1813 1.396 . S
C1812 C1817 1.390 . S
C1813 C1807 1.465 . S
C1813 C1812 1.396 . S
C1813 C1814 1.399 . S
C1814 H1800 0.929 . S
C1814 C1813 1.399 . S
C1814 C1815 1.385 . S
C1815 H1801 0.931 . S
C1815 C1814 1.385 . S
C1815 C1816 1.389 . S
C1816 C1815 1.389 . S
C1816 C1817 1.387 . S
C1817 H1802 0.930 . S
C1817 C1812 1.390 . S
C1817 C1816 1.387 . S
H1818 C1830 0.930 . S
H1819 C1832 0.930 . S
H1820 C1833 0.930 . S
H1821 C1837 0.959 . S
H1822 C1837 0.959 . S
H1823 C1837 0.961 1_545 S
H1824 C1838 0.960 1_545 S
H1825 C1838 0.961 . S
H1826 C1838 0.959 . S
H1827 C1841 0.929 . S
H1828 C1842 0.931 . S
H1829 C1844 0.930 . S
C1830 H1818 0.930 . S
C1830 C1831 1.399 . S
C1830 C1835 1.399 . S
C1831 C1830 1.399 . S
C1831 C1832 1.376 . S
C1832 H1819 0.930 . S
C1832 C1831 1.376 . S
C1832 C1833 1.388 . S
C1833 H1820 0.930 . S
C1833 C1832 1.388 . S
C1833 C1834 1.390 . S
C1834 C1833 1.390 . S
C1834 C1835 1.394 . S
C1834 C1840 1.465 1_545 S
C1835 C1830 1.399 . S
C1835 C1834 1.394 . S
C1835 C1836 1.516 1_545 S
C1836 C1835 1.516 1_565 S
C1836 C1837 1.502 . S
C1836 C1838 1.561 . S
C1836 C1839 1.526 . S
C1837 H1821 0.959 . S
C1837 H1822 0.959 . S
C1837 H1823 0.961 1_565 S
C1837 C1836 1.502 . S
C1838 H1824 0.960 1_565 S
C1838 H1825 0.961 . S
C1838 H1826 0.959 . S
C1838 C1836 1.561 . S
C1839 C1836 1.526 . S
C1839 C1840 1.396 . S
C1839 C1844 1.390 . S
C1840 C1834 1.465 1_565 S
C1840 C1839 1.396 . S
C1840 C1841 1.399 . S
C1841 H1827 0.929 . S
C1841 C1840 1.399 . S
C1841 C1842 1.385 . S
C1842 H1828 0.931 . S
C1842 C1841 1.385 . S
C1842 C1843 1.389 . S
C1843 C1842 1.389 . S
C1843 C1844 1.387 . S
C1844 H1829 0.930 . S
C1844 C1839 1.390 . S
C1844 C1843 1.387 . S
H1845 C1857 0.930 . S
H1846 C1859 0.930 . S
H1847 C1860 0.930 . S
H1848 C1864 0.961 . S
H1849 C1864 0.959 1_565 S
H1850 C1864 0.961 . S
H1851 C1865 0.960 . S
H1852 C1865 0.930 1_565 S
H1853 C1865 0.959 . S
H1854 C1868 0.929 . S
H1855 C1869 0.931 . S
H1856 C1871 0.930 . S
C1857 H1845 0.930 . S
C1857 C1858 1.399 . S
C1857 C1862 1.399 . S
C1858 C1857 1.399 . S
C1858 C1859 1.376 . S
C1859 H1846 0.930 . S
C1859 C1858 1.376 . S
C1859 C1860 1.388 . S
C1860 H1847 0.930 . S
C1860 C1859 1.388 . S
C1860 C1861 1.390 . S
C1861 C1860 1.390 . S
C1861 C1862 1.394 . S
C1861 C1867 1.465 1_545 S
C1862 C1857 1.399 . S
C1862 C1861 1.394 . S
C1862 C1863 1.516 . S
C1863 C1862 1.516 . S
C1863 C1864 1.502 . S
C1863 C1865 1.561 . S
C1863 C1866 1.526 1_545 S
C1864 H1848 0.961 . S
C1864 H1849 0.959 1_545 S
C1864 H1850 0.961 . S
C1864 C1863 1.502 . S
C1865 H1851 0.960 . S
C1865 H1852 0.930 1_545 S
C1865 H1853 0.959 . S
C1865 C1863 1.561 . S
C1866 C1863 1.526 1_565 S
C1866 C1867 1.396 . S
C1866 C1871 1.390 . S
C1867 C1861 1.465 1_565 S
C1867 C1866 1.396 . S
C1867 C1868 1.399 . S
C1868 H1854 0.929 . S
C1868 C1867 1.399 . S
C1868 C1869 1.385 . S
C1869 H1855 0.931 . S
C1869 C1868 1.385 . S
C1869 C1870 1.389 . S
C1870 C1869 1.389 . S
C1870 C1871 1.387 . S
C1871 H1856 0.930 . S
C1871 C1866 1.390 . S
C1871 C1870 1.387 . S
H1872 C1884 0.930 . S
H1873 C1886 0.930 . S
H1874 C1887 0.930 . S
H1875 C1891 0.959 . S
H1876 C1891 0.959 . S
H1877 C1891 0.961 1_655 S
H1878 C1892 0.960 1_655 S
H1879 C1892 0.961 . S
H1880 C1892 0.959 . S
H1881 C1895 0.929 . S
H1882 C1896 0.931 . S
H1883 C1898 0.930 . S
C1884 H1872 0.930 . S
C1884 C1885 1.399 . S
C1884 C1889 1.399 . S
C1885 C1884 1.399 . S
C1885 C1886 1.376 . S
C1886 H1873 0.930 . S
C1886 C1885 1.376 . S
C1886 C1887 1.388 . S
C1887 H1874 0.930 . S
C1887 C1886 1.388 . S
C1887 C1888 1.390 . S
C1888 C1887 1.390 . S
C1888 C1889 1.394 . S
C1888 C1894 1.465 1_655 S
C1889 C1884 1.399 . S
C1889 C1888 1.394 . S
C1889 C1890 1.516 1_655 S
C1890 C1889 1.516 1_455 S
C1890 C1891 1.502 . S
C1890 C1892 1.561 . S
C1890 C1893 1.526 . S
C1891 H1875 0.959 . S
C1891 H1876 0.959 . S
C1891 H1877 0.961 1_455 S
C1891 C1890 1.502 . S
C1892 H1878 0.960 1_455 S
C1892 H1879 0.961 . S
C1892 H1880 0.959 . S
C1892 C1890 1.561 . S
C1893 C1890 1.526 . S
C1893 C1894 1.396 . S
C1893 C1898 1.390 . S
C1894 C1888 1.465 1_455 S
C1894 C1893 1.396 . S
C1894 C1895 1.399 . S
C1895 H1881 0.929 . S
C1895 C1894 1.399 . S
C1895 C1896 1.385 . S
C1896 H1882 0.931 . S
C1896 C1895 1.385 . S
C1896 C1897 1.389 . S
C1897 C1896 1.389 . S
C1897 C1898 1.387 . S
C1898 H1883 0.930 . S
C1898 C1893 1.390 . S
C1898 C1897 1.387 . S
H1899 C1911 0.930 . S
H1900 C1913 0.930 . S
H1901 C1914 0.930 . S
H1902 C1918 0.959 . S
H1903 C1918 0.959 . S
H1904 C1918 0.961 . S
H1905 C1919 0.960 . S
H1906 C1919 0.961 . S
H1907 C1919 0.959 . S
H1908 C1922 0.929 . S
H1909 C1923 0.931 . S
H1910 C1925 0.930 . S
C1911 H1899 0.930 . S
C1911 C1912 1.399 . S
C1911 C1916 1.399 . S
C1912 C1911 1.399 . S
C1912 C1913 1.376 . S
C1913 H1900 0.930 . S
C1913 C1912 1.376 . S
C1913 C1914 1.388 . S
C1914 H1901 0.930 . S
C1914 C1913 1.388 . S
C1914 C1915 1.390 . S
C1915 C1914 1.390 . S
C1915 C1916 1.394 . S
C1915 C1921 1.465 . S
C1916 C1911 1.399 . S
C1916 C1915 1.394 . S
C1916 C1917 1.516 . S
C1917 C1916 1.516 . S
C1917 C1918 1.502 . S
C1917 C1919 1.561 . S
C1917 C1920 1.526 . S
C1918 H1902 0.959 . S
C1918 H1903 0.959 . S
C1918 H1904 0.961 . S
C1918 C1917 1.502 . S
C1919 H1905 0.960 . S
C1919 H1906 0.961 . S
C1919 H1907 0.959 . S
C1919 C1917 1.561 . S
C1920 C1917 1.526 . S
C1920 C1921 1.396 . S
C1920 C1925 1.390 . S
C1921 C1915 1.465 . S
C1921 C1920 1.396 . S
C1921 C1922 1.399 . S
C1922 H1908 0.929 . S
C1922 C1921 1.399 . S
C1922 C1923 1.385 . S
C1923 H1909 0.931 . S
C1923 C1922 1.385 . S
C1923 C1924 1.389 . S
C1924 C1923 1.389 . S
C1924 C1925 1.387 . S
C1925 H1910 0.930 . S
C1925 C1920 1.390 . S
C1925 C1924 1.387 . S
H1926 C1938 0.930 . S
H1927 C1940 0.930 . S
H1928 C1941 0.930 . S
H1929 C1945 0.959 . S
H1930 C1945 0.959 . S
H1931 C1945 0.961 . S
H1932 C1946 0.960 . S
H1933 C1946 0.961 . S
H1934 C1946 0.959 . S
H1935 C1949 0.929 . S
H1936 C1950 0.931 . S
H1937 C1952 0.930 . S
C1938 H1926 0.930 . S
C1938 C1939 1.399 . S
C1938 C1943 1.399 . S
C1939 C1938 1.399 . S
C1939 C1940 1.376 . S
C1940 H1927 0.930 . S
C1940 C1939 1.376 . S
C1940 C1941 1.388 . S
C1941 H1928 0.930 . S
C1941 C1940 1.388 . S
C1941 C1942 1.390 . S
C1942 C1941 1.390 . S
C1942 C1943 1.394 . S
C1942 C1948 1.465 . S
C1943 C1938 1.399 . S
C1943 C1942 1.394 . S
C1943 C1944 1.516 . S
C1944 C1943 1.516 . S
C1944 C1945 1.502 . S
C1944 C1946 1.561 . S
C1944 C1947 1.526 . S
C1945 H1929 0.959 . S
C1945 H1930 0.959 . S
C1945 H1931 0.961 . S
C1945 C1944 1.502 . S
C1946 H1932 0.960 . S
C1946 H1933 0.961 . S
C1946 H1934 0.959 . S
C1946 C1944 1.561 . S
C1947 C1944 1.526 . S
C1947 C1948 1.396 . S
C1947 C1952 1.390 . S
C1948 C1942 1.465 . S
C1948 C1947 1.396 . S
C1948 C1949 1.399 . S
C1949 H1935 0.929 . S
C1949 C1948 1.399 . S
C1949 C1950 1.385 . S
C1950 H1936 0.931 . S
C1950 C1949 1.385 . S
C1950 C1951 1.389 . S
C1951 C1950 1.389 . S
C1951 C1952 1.387 . S
C1952 H1937 0.930 . S
C1952 C1947 1.390 . S
C1952 C1951 1.387 . S
H1953 C1965 0.930 . S
H1954 C1967 0.930 . S
H1955 C1968 0.930 . S
H1956 C1972 0.959 . S
H1957 C1972 0.959 . S
H1958 C1972 0.961 . S
H1959 C1973 0.960 . S
H1960 C1973 0.961 . S
H1961 C1973 0.959 . S
H1962 C1976 0.929 . S
H1963 C1977 0.931 . S
H1964 C1979 0.930 . S
C1965 H1953 0.930 . S
C1965 C1966 1.399 . S
C1965 C1970 1.399 . S
C1966 C1965 1.399 . S
C1966 C1967 1.376 . S
C1967 H1954 0.930 . S
C1967 C1966 1.376 . S
C1967 C1968 1.388 . S
C1968 H1955 0.930 . S
C1968 C1967 1.388 . S
C1968 C1969 1.390 . S
C1969 C1968 1.390 . S
C1969 C1970 1.394 . S
C1969 C1975 1.465 . S
C1970 C1965 1.399 . S
C1970 C1969 1.394 . S
C1970 C1971 1.516 . S
C1971 C1970 1.516 . S
C1971 C1972 1.502 . S
C1971 C1973 1.561 . S
C1971 C1974 1.526 . S
C1972 H1956 0.959 . S
C1972 H1957 0.959 . S
C1972 H1958 0.961 . S
C1972 C1971 1.502 . S
C1973 H1959 0.960 . S
C1973 H1960 0.961 . S
C1973 H1961 0.959 . S
C1973 C1971 1.561 . S
C1974 C1971 1.526 . S
C1974 C1975 1.396 . S
C1974 C1979 1.390 . S
C1975 C1969 1.465 . S
C1975 C1974 1.396 . S
C1975 C1976 1.399 . S
C1976 H1962 0.929 . S
C1976 C1975 1.399 . S
C1976 C1977 1.385 . S
C1977 H1963 0.931 . S
C1977 C1976 1.385 . S
C1977 C1978 1.389 . S
C1978 C1977 1.389 . S
C1978 C1979 1.387 . S
C1979 H1964 0.930 . S
C1979 C1974 1.390 . S
C1979 C1978 1.387 . S
H1980 C1992 0.930 . S
H1981 C1994 0.930 . S
H1982 C1995 0.930 . S
H1983 C1999 0.959 . S
H1984 C1999 0.959 . S
H1985 C1999 0.961 . S
H1986 C2000 0.960 . S
H1987 C2000 0.961 . S
H1988 C2000 0.959 . S
H1989 C2003 0.929 . S
H1990 C2004 0.931 . S
H1991 C2006 0.930 . S
C1992 H1980 0.930 . S
C1992 C1993 1.399 . S
C1992 C1997 1.399 . S
C1993 C1992 1.399 . S
C1993 C1994 1.376 . S
C1994 H1981 0.930 . S
C1994 C1993 1.376 . S
C1994 C1995 1.388 . S
C1995 H1982 0.930 . S
C1995 C1994 1.388 . S
C1995 C1996 1.390 . S
C1996 C1995 1.390 . S
C1996 C1997 1.394 . S
C1996 C2002 1.465 . S
C1997 C1992 1.399 . S
C1997 C1996 1.394 . S
C1997 C1998 1.516 . S
C1998 C1997 1.516 . S
C1998 C1999 1.502 . S
C1998 C2000 1.561 . S
C1998 C2001 1.526 . S
C1999 H1983 0.959 . S
C1999 H1984 0.959 . S
C1999 H1985 0.961 . S
C1999 C1998 1.502 . S
C2000 H1986 0.960 . S
C2000 H1987 0.961 . S
C2000 H1988 0.959 . S
C2000 C1998 1.561 . S
C2001 C1998 1.526 . S
C2001 C2002 1.396 . S
C2001 C2006 1.390 . S
C2002 C1996 1.465 . S
C2002 C2001 1.396 . S
C2002 C2003 1.399 . S
C2003 H1989 0.929 . S
C2003 C2002 1.399 . S
C2003 C2004 1.385 . S
C2004 H1990 0.931 . S
C2004 C2003 1.385 . S
C2004 C2005 1.389 . S
C2005 C2004 1.389 . S
C2005 C2006 1.387 . S
C2006 H1991 0.930 . S
C2006 C2001 1.390 . S
C2006 C2005 1.387 . S
H2007 C2019 0.930 . S
H2008 C2021 0.930 . S
H2009 C2022 0.930 . S
H2010 C2026 0.959 . S
H2011 C2026 0.959 . S
H2012 C2026 0.961 . S
H2013 C2027 0.960 . S
H2014 C2027 0.961 . S
H2015 C2027 0.959 . S
H2016 C2030 0.929 . S
H2017 C2031 0.931 . S
H2018 C2033 0.930 . S
C2019 H2007 0.930 . S
C2019 C2020 1.399 . S
C2019 C2024 1.399 . S
C2020 C2019 1.399 . S
C2020 C2021 1.376 . S
C2021 H2008 0.930 . S
C2021 C2020 1.376 . S
C2021 C2022 1.388 . S
C2022 H2009 0.930 . S
C2022 C2021 1.388 . S
C2022 C2023 1.390 . S
C2023 C2022 1.390 . S
C2023 C2024 1.394 . S
C2023 C2029 1.465 . S
C2024 C2019 1.399 . S
C2024 C2023 1.394 . S
C2024 C2025 1.516 . S
C2025 C2024 1.516 . S
C2025 C2026 1.502 . S
C2025 C2027 1.561 . S
C2025 C2028 1.526 . S
C2026 H2010 0.959 . S
C2026 H2011 0.959 . S
C2026 H2012 0.961 . S
C2026 C2025 1.502 . S
C2027 H2013 0.960 . S
C2027 H2014 0.961 . S
C2027 H2015 0.959 . S
C2027 C2025 1.561 . S
C2028 C2025 1.526 . S
C2028 C2029 1.396 . S
C2028 C2033 1.390 . S
C2029 C2023 1.465 . S
C2029 C2028 1.396 . S
C2029 C2030 1.399 . S
C2030 H2016 0.929 . S
C2030 C2029 1.399 . S
C2030 C2031 1.385 . S
C2031 H2017 0.931 . S
C2031 C2030 1.385 . S
C2031 C2032 1.389 . S
C2032 C2031 1.389 . S
C2032 C2033 1.387 . S
C2033 H2018 0.930 . S
C2033 C2028 1.390 . S
C2033 C2032 1.387 . S
H2034 C2046 0.930 . S
H2035 C2048 0.930 . S
H2036 C2049 0.930 . S
H2037 C2053 0.959 . S
H2038 C2053 0.959 . S
H2039 C2053 0.961 . S
H2040 C2054 0.960 . S
H2041 C2054 0.961 . S
H2042 C2054 0.959 . S
H2043 C2057 0.929 . S
H2044 C2058 0.931 . S
H2045 C2060 0.930 . S
C2046 H2034 0.930 . S
C2046 C2047 1.399 . S
C2046 C2051 1.399 . S
C2047 C2046 1.399 . S
C2047 C2048 1.376 . S
C2048 H2035 0.930 . S
C2048 C2047 1.376 . S
C2048 C2049 1.388 . S
C2049 H2036 0.930 . S
C2049 C2048 1.388 . S
C2049 C2050 1.390 . S
C2050 C2049 1.390 . S
C2050 C2051 1.394 . S
C2050 C2056 1.465 . S
C2051 C2046 1.399 . S
C2051 C2050 1.394 . S
C2051 C2052 1.516 . S
C2052 C2051 1.516 . S
C2052 C2053 1.502 . S
C2052 C2054 1.561 . S
C2052 C2055 1.526 . S
C2053 H2037 0.959 . S
C2053 H2038 0.959 . S
C2053 H2039 0.961 . S
C2053 C2052 1.502 . S
C2054 H2040 0.960 . S
C2054 H2041 0.961 . S
C2054 H2042 0.959 . S
C2054 C2052 1.561 . S
C2055 C2052 1.526 . S
C2055 C2056 1.396 . S
C2055 C2060 1.390 . S
C2056 C2050 1.465 . S
C2056 C2055 1.396 . S
C2056 C2057 1.399 . S
C2057 H2043 0.929 . S
C2057 C2056 1.399 . S
C2057 C2058 1.385 . S
C2058 H2044 0.931 . S
C2058 C2057 1.385 . S
C2058 C2059 1.389 . S
C2059 C2058 1.389 . S
C2059 C2060 1.387 . S
C2060 H2045 0.930 . S
C2060 C2055 1.390 . S
C2060 C2059 1.387 . S
H2061 C2073 0.930 . S
H2062 C2075 0.930 . S
H2063 C2076 0.930 . S
H2064 C2080 0.959 . S
H2065 C2080 0.959 . S
H2066 C2080 0.961 . S
H2067 C2081 0.960 . S
H2068 C2081 0.961 . S
H2069 C2081 0.959 . S
H2070 C2084 0.929 . S
H2071 C2085 0.931 . S
H2072 C2087 0.930 . S
C2073 H2061 0.930 . S
C2073 C2074 1.399 . S
C2073 C2078 1.399 . S
C2074 C2073 1.399 . S
C2074 C2075 1.376 . S
C2075 H2062 0.930 . S
C2075 C2074 1.376 . S
C2075 C2076 1.388 . S
C2076 H2063 0.930 . S
C2076 C2075 1.388 . S
C2076 C2077 1.390 . S
C2077 C2076 1.390 . S
C2077 C2078 1.394 . S
C2077 C2083 1.465 . S
C2078 C2073 1.399 . S
C2078 C2077 1.394 . S
C2078 C2079 1.516 . S
C2079 C2078 1.516 . S
C2079 C2080 1.502 . S
C2079 C2081 1.561 . S
C2079 C2082 1.526 . S
C2080 H2064 0.959 . S
C2080 H2065 0.959 . S
C2080 H2066 0.961 . S
C2080 C2079 1.502 . S
C2081 H2067 0.960 . S
C2081 H2068 0.961 . S
C2081 H2069 0.959 . S
C2081 C2079 1.561 . S
C2082 C2079 1.526 . S
C2082 C2083 1.396 . S
C2082 C2087 1.390 . S
C2083 C2077 1.465 . S
C2083 C2082 1.396 . S
C2083 C2084 1.399 . S
C2084 H2070 0.929 . S
C2084 C2083 1.399 . S
C2084 C2085 1.385 . S
C2085 H2071 0.931 . S
C2085 C2084 1.385 . S
C2085 C2086 1.389 . S
C2086 C2085 1.389 . S
C2086 C2087 1.387 . S
C2087 H2072 0.930 . S
C2087 C2082 1.390 . S
C2087 C2086 1.387 . S
H2088 C2100 0.930 . S
H2089 C2102 0.930 . S
H2090 C2103 0.930 . S
H2091 C2107 0.959 . S
H2092 C2107 0.959 . S
H2093 C2107 0.961 . S
H2094 C2108 0.960 . S
H2095 C2108 0.961 . S
H2096 C2108 0.959 . S
H2097 C2111 0.929 . S
H2098 C2112 0.931 . S
H2099 C2114 0.930 . S
C2100 H2088 0.930 . S
C2100 C2101 1.399 . S
C2100 C2105 1.399 . S
C2101 C2100 1.399 . S
C2101 C2102 1.376 . S
C2102 H2089 0.930 . S
C2102 C2101 1.376 . S
C2102 C2103 1.388 . S
C2103 H2090 0.930 . S
C2103 C2102 1.388 . S
C2103 C2104 1.390 . S
C2104 C2103 1.390 . S
C2104 C2105 1.394 . S
C2104 C2110 1.465 . S
C2105 C2100 1.399 . S
C2105 C2104 1.394 . S
C2105 C2106 1.516 . S
C2106 C2105 1.516 . S
C2106 C2107 1.502 . S
C2106 C2108 1.561 . S
C2106 C2109 1.526 . S
C2107 H2091 0.959 . S
C2107 H2092 0.959 . S
C2107 H2093 0.961 . S
C2107 C2106 1.502 . S
C2108 H2094 0.960 . S
C2108 H2095 0.961 . S
C2108 H2096 0.959 . S
C2108 C2106 1.561 . S
C2109 C2106 1.526 . S
C2109 C2110 1.396 . S
C2109 C2114 1.390 . S
C2110 C2104 1.465 . S
C2110 C2109 1.396 . S
C2110 C2111 1.399 . S
C2111 H2097 0.929 . S
C2111 C2110 1.399 . S
C2111 C2112 1.385 . S
C2112 H2098 0.931 . S
C2112 C2111 1.385 . S
C2112 C2113 1.389 . S
C2113 C2112 1.389 . S
C2113 C2114 1.387 . S
C2114 H2099 0.930 . S
C2114 C2109 1.390 . S
C2114 C2113 1.387 . S
H2115 C2127 0.930 . S
H2116 C2129 0.930 . S
H2117 C2130 0.930 . S
H2118 C2134 0.959 . S
H2119 C2134 0.959 . S
H2120 C2134 0.961 . S
H2121 C2135 0.960 . S
H2122 C2135 0.961 . S
H2123 C2135 0.959 . S
H2124 C2138 0.929 . S
H2125 C2139 0.931 . S
H2126 C2141 0.930 . S
C2127 H2115 0.930 . S
C2127 C2128 1.399 . S
C2127 C2132 1.399 . S
C2128 C2127 1.399 . S
C2128 C2129 1.376 . S
C2129 H2116 0.930 . S
C2129 C2128 1.376 . S
C2129 C2130 1.388 . S
C2130 H2117 0.930 . S
C2130 C2129 1.388 . S
C2130 C2131 1.390 . S
C2131 C2130 1.390 . S
C2131 C2132 1.394 . S
C2131 C2137 1.465 . S
C2132 C2127 1.399 . S
C2132 C2131 1.394 . S
C2132 C2133 1.516 . S
C2133 C2132 1.516 . S
C2133 C2134 1.502 . S
C2133 C2135 1.561 . S
C2133 C2136 1.526 . S
C2134 H2118 0.959 . S
C2134 H2119 0.959 . S
C2134 H2120 0.961 . S
C2134 C2133 1.502 . S
C2135 H2121 0.960 . S
C2135 H2122 0.961 . S
C2135 H2123 0.959 . S
C2135 C2133 1.561 . S
C2136 C2133 1.526 . S
C2136 C2137 1.396 . S
C2136 C2141 1.390 . S
C2137 C2131 1.465 . S
C2137 C2136 1.396 . S
C2137 C2138 1.399 . S
C2138 H2124 0.929 . S
C2138 C2137 1.399 . S
C2138 C2139 1.385 . S
C2139 H2125 0.931 . S
C2139 C2138 1.385 . S
C2139 C2140 1.389 . S
C2140 C2139 1.389 . S
C2140 C2141 1.387 . S
C2141 H2126 0.930 . S
C2141 C2136 1.390 . S
C2141 C2140 1.387 . S
H2142 C2154 0.930 . S
H2143 C2156 0.930 . S
H2144 C2157 0.930 . S
H2145 C2161 0.959 . S
H2146 C2161 0.959 . S
H2147 C2161 0.961 . S
H2148 C2162 0.960 . S
H2149 C2162 0.961 . S
H2150 C2162 0.959 . S
H2151 C2165 0.929 . S
H2152 C2166 0.931 . S
H2153 C2168 0.930 . S
C2154 H2142 0.930 . S
C2154 C2155 1.399 . S
C2154 C2159 1.399 . S
C2155 C2154 1.399 . S
C2155 C2156 1.376 . S
C2156 H2143 0.930 . S
C2156 C2155 1.376 . S
C2156 C2157 1.388 . S
C2157 H2144 0.930 . S
C2157 C2156 1.388 . S
C2157 C2158 1.390 . S
C2158 C2157 1.390 . S
C2158 C2159 1.394 . S
C2158 C2164 1.465 . S
C2159 C2154 1.399 . S
C2159 C2158 1.394 . S
C2159 C2160 1.516 . S
C2160 C2159 1.516 . S
C2160 C2161 1.502 . S
C2160 C2162 1.561 . S
C2160 C2163 1.526 . S
C2161 H2145 0.959 . S
C2161 H2146 0.959 . S
C2161 H2147 0.961 . S
C2161 C2160 1.502 . S
C2162 H2148 0.960 . S
C2162 H2149 0.961 . S
C2162 H2150 0.959 . S
C2162 C2160 1.561 . S
C2163 C2160 1.526 . S
C2163 C2164 1.396 . S
C2163 C2168 1.390 . S
C2164 C2158 1.465 . S
C2164 C2163 1.396 . S
C2164 C2165 1.399 . S
C2165 H2151 0.929 . S
C2165 C2164 1.399 . S
C2165 C2166 1.385 . S
C2166 H2152 0.931 . S
C2166 C2165 1.385 . S
C2166 C2167 1.389 . S
C2167 C2166 1.389 . S
C2167 C2168 1.387 . S
C2168 H2153 0.930 . S
C2168 C2163 1.390 . S
C2168 C2167 1.387 . S
H2169 C2181 0.930 . S
H2170 C2183 0.930 . S
H2171 C2184 0.930 . S
H2172 C2188 0.959 . S
H2173 C2188 0.959 . S
H2174 C2188 0.961 . S
H2175 C2189 0.960 . S
H2176 C2189 0.961 . S
H2177 C2189 0.959 . S
H2178 C2192 0.929 . S
H2179 C2193 0.931 . S
H2180 C2195 0.930 . S
C2181 H2169 0.930 . S
C2181 C2182 1.399 . S
C2181 C2186 1.399 . S
C2182 C2181 1.399 . S
C2182 C2183 1.376 . S
C2183 H2170 0.930 . S
C2183 C2182 1.376 . S
C2183 C2184 1.388 . S
C2184 H2171 0.930 . S
C2184 C2183 1.388 . S
C2184 C2185 1.390 . S
C2185 C2184 1.390 . S
C2185 C2186 1.394 . S
C2185 C2191 1.465 . S
C2186 C2181 1.399 . S
C2186 C2185 1.394 . S
C2186 C2187 1.516 . S
C2187 C2186 1.516 . S
C2187 C2188 1.502 1_554 S
C2187 C2189 1.561 . S
C2187 C2190 1.526 . S
C2188 H2172 0.959 . S
C2188 H2173 0.959 . S
C2188 H2174 0.961 . S
C2188 C2187 1.502 1_556 S
C2189 H2175 0.960 . S
C2189 H2176 0.961 . S
C2189 H2177 0.959 . S
C2189 C2187 1.561 . S
C2190 C2187 1.526 . S
C2190 C2191 1.396 . S
C2190 C2195 1.390 . S
C2191 C2185 1.465 . S
C2191 C2190 1.396 . S
C2191 C2192 1.399 . S
C2192 H2178 0.929 . S
C2192 C2191 1.399 . S
C2192 C2193 1.385 . S
C2193 H2179 0.931 . S
C2193 C2192 1.385 . S
C2193 C2194 1.389 . S
C2194 C2193 1.389 . S
C2194 C2195 1.387 . S
C2195 H2180 0.930 . S
C2195 C2190 1.390 . S
C2195 C2194 1.387 . S
H2196 C2208 0.930 . S
H2197 C2210 0.930 1_556 S
H2198 C2211 0.932 . S
H2199 C2215 0.959 . S
H2200 C2215 0.959 . S
H2201 C2215 0.961 . S
H2202 C2216 0.960 . S
H2203 C2216 0.961 . S
H2204 C2216 0.959 . S
H2205 C2219 0.929 . S
H2206 C2220 0.931 1_556 S
H2207 C2222 0.930 . S
C2208 H2196 0.930 . S
C2208 C2209 1.399 . S
C2208 C2213 1.399 . S
C2209 C2208 1.399 . S
C2209 C2210 1.376 . S
C2210 H2197 0.930 1_554 S
C2210 C2209 1.376 . S
C2210 C2211 1.388 1_554 S
C2211 H2198 0.932 . S
C2211 C2210 1.388 1_556 S
C2211 C2212 1.388 1_556 S
C2212 C2211 1.388 1_554 S
C2212 C2213 1.394 . S
C2212 C2218 1.465 . S
C2213 C2208 1.399 . S
C2213 C2212 1.394 . S
C2213 C2214 1.516 . S
C2214 C2213 1.516 . S
C2214 C2215 1.502 . S
C2214 C2216 1.561 . S
C2214 C2217 1.526 . S
C2215 H2199 0.959 . S
C2215 H2200 0.959 . S
C2215 H2201 0.961 . S
C2215 C2214 1.502 . S
C2216 H2202 0.960 . S
C2216 H2203 0.961 . S
C2216 H2204 0.959 . S
C2216 C2214 1.561 . S
C2217 C2214 1.526 . S
C2217 C2218 1.396 . S
C2217 C2222 1.390 . S
C2218 C2212 1.465 . S
C2218 C2217 1.396 . S
C2218 C2219 1.399 1_554 S
C2219 H2205 0.929 . S
C2219 C2218 1.399 1_556 S
C2219 C2220 1.385 1_556 S
C2220 H2206 0.931 1_554 S
C2220 C2219 1.385 1_554 S
C2220 C2221 1.389 . S
C2221 C2220 1.389 . S
C2221 C2222 1.387 . S
C2222 H2207 0.930 . S
C2222 C2217 1.390 . S
C2222 C2221 1.387 . S
H2223 C2235 0.930 1_556 S
H2224 C2237 0.930 . S
H2225 C2238 0.930 . S
H2226 C2242 0.959 . S
H2227 C2242 0.959 . S
H2228 C2242 0.961 . S
H2229 C2243 0.960 . S
H2230 C2243 0.961 . S
H2231 C2243 0.959 . S
H2232 C2246 0.929 . S
H2233 C2247 0.931 . S
H2234 C2249 0.930 1_556 S
C2235 H2223 0.930 1_554 S
C2235 C2236 1.399 . S
C2235 C2240 1.399 . S
C2236 C2235 1.399 . S
C2236 C2237 1.376 . S
C2237 H2224 0.930 . S
C2237 C2236 1.376 . S
C2237 C2238 1.388 . S
C2238 H2225 0.930 . S
C2238 C2237 1.388 . S
C2238 C2239 1.390 . S
C2239 C2238 1.390 . S
C2239 C2240 1.394 . S
C2239 C2245 1.465 . S
C2240 C2235 1.399 . S
C2240 C2239 1.394 . S
C2240 C2241 1.516 1_554 S
C2241 C2240 1.516 1_556 S
C2241 C2242 1.502 . S
C2241 C2243 1.561 . S
C2241 C2244 1.526 1_556 S
C2242 H2226 0.959 . S
C2242 H2227 0.959 . S
C2242 H2228 0.961 . S
C2242 C2241 1.502 . S
C2243 H2229 0.960 . S
C2243 H2230 0.961 . S
C2243 H2231 0.959 . S
C2243 C2241 1.561 . S
C2244 C2241 1.526 1_554 S
C2244 C2245 1.396 . S
C2244 C2249 1.390 . S
C2245 C2239 1.465 . S
C2245 C2244 1.396 . S
C2245 C2246 1.399 . S
C2246 H2232 0.929 . S
C2246 C2245 1.399 . S
C2246 C2247 1.385 . S
C2247 H2233 0.931 . S
C2247 C2246 1.385 . S
C2247 C2248 1.389 . S
C2248 C2247 1.389 . S
C2248 C2249 1.387 . S
C2249 H2234 0.930 1_554 S
C2249 C2244 1.390 . S
C2249 C2248 1.387 . S
H2250 C2262 0.930 . S
H2251 C2264 0.930 . S
H2252 C2265 0.930 . S
H2253 C2269 0.959 . S
H2254 C2269 0.959 . S
H2255 C2269 0.961 . S
H2256 C2270 0.960 . S
H2257 C2270 0.961 . S
H2258 C2270 0.959 . S
H2259 C2273 0.929 . S
H2260 C2274 0.931 . S
H2261 C2276 0.930 . S
C2262 H2250 0.930 . S
C2262 C2263 1.399 . S
C2262 C2267 1.399 . S
C2263 C2262 1.399 . S
C2263 C2264 1.376 1_556 S
C2264 H2251 0.930 . S
C2264 C2263 1.376 1_554 S
C2264 C2265 1.388 . S
C2265 H2252 0.930 . S
C2265 C2264 1.388 . S
C2265 C2266 1.390 1_554 S
C2266 C2265 1.390 1_556 S
C2266 C2267 1.394 . S
C2266 C2272 1.465 . S
C2267 C2262 1.399 . S
C2267 C2266 1.394 . S
C2267 C2268 1.516 . S
C2268 C2267 1.516 . S
C2268 C2269 1.502 . S
C2268 C2270 1.561 . S
C2268 C2271 1.526 . S
C2269 H2253 0.959 . S
C2269 H2254 0.959 . S
C2269 H2255 0.961 . S
C2269 C2268 1.502 . S
C2270 H2256 0.960 . S
C2270 H2257 0.961 . S
C2270 H2258 0.959 . S
C2270 C2268 1.561 . S
C2271 C2268 1.526 . S
C2271 C2272 1.396 . S
C2271 C2276 1.390 . S
C2272 C2266 1.465 . S
C2272 C2271 1.396 . S
C2272 C2273 1.399 1_556 S
C2273 H2259 0.929 . S
C2273 C2272 1.399 1_554 S
C2273 C2274 1.385 . S
C2274 H2260 0.931 . S
C2274 C2273 1.385 . S
C2274 C2275 1.389 1_554 S
C2275 C2274 1.389 1_556 S
C2275 C2276 1.387 . S
C2276 H2261 0.930 . S
C2276 C2271 1.390 . S
C2276 C2275 1.387 . S
H2277 C2289 0.930 . S
H2278 C2291 0.930 . S
H2279 C2292 0.930 . S
H2280 C2296 0.959 . S
H2281 C2296 0.959 . S
H2282 C2296 0.961 . S
H2283 C2297 0.960 . S
H2284 C2297 0.961 . S
H2285 C2297 0.959 . S
H2286 C2300 0.929 . S
H2287 C2301 0.931 . S
H2288 C2303 0.930 . S
C2289 H2277 0.930 . S
C2289 C2290 1.399 . S
C2289 C2294 1.399 . S
C2290 C2289 1.399 . S
C2290 C2291 1.376 1_556 S
C2291 H2278 0.930 . S
C2291 C2290 1.376 1_554 S
C2291 C2292 1.388 . S
C2292 H2279 0.930 . S
C2292 C2291 1.388 . S
C2292 C2293 1.390 1_554 S
C2293 C2292 1.390 1_556 S
C2293 C2294 1.394 . S
C2293 C2299 1.465 . S
C2294 C2289 1.399 . S
C2294 C2293 1.394 . S
C2294 C2295 1.516 . S
C2295 C2294 1.516 . S
C2295 C2296 1.502 . S
C2295 C2297 1.561 . S
C2295 C2298 1.526 . S
C2296 H2280 0.959 . S
C2296 H2281 0.959 . S
C2296 H2282 0.961 . S
C2296 C2295 1.502 . S
C2297 H2283 0.960 . S
C2297 H2284 0.961 . S
C2297 H2285 0.959 . S
C2297 C2295 1.561 . S
C2298 C2295 1.526 . S
C2298 C2299 1.396 . S
C2298 C2303 1.390 . S
C2299 C2293 1.465 . S
C2299 C2298 1.396 . S
C2299 C2300 1.399 1_556 S
C2300 H2286 0.929 . S
C2300 C2299 1.399 1_554 S
C2300 C2301 1.385 . S
C2301 H2287 0.931 . S
C2301 C2300 1.385 . S
C2301 C2302 1.389 1_554 S
C2302 C2301 1.389 1_556 S
C2302 C2303 1.387 . S
C2303 H2288 0.930 . S
C2303 C2298 1.390 . S
C2303 C2302 1.387 . S
H2304 C2316 0.930 . S
H2305 C2318 0.930 . S
H2306 C2319 0.930 1_554 S
H2307 C2323 0.959 . S
H2308 C2323 0.959 . S
H2309 C2323 0.961 . S
H2310 C2324 0.960 . S
H2311 C2324 0.961 . S
H2312 C2324 0.959 . S
H2313 C2327 0.929 1_554 S
H2314 C2328 0.931 1_554 S
H2315 C2330 0.930 . S
C2316 H2304 0.930 . S
C2316 C2317 1.399 . S
C2316 C2321 1.399 . S
C2317 C2316 1.399 . S
C2317 C2318 1.376 . S
C2318 H2305 0.930 . S
C2318 C2317 1.376 . S
C2318 C2319 1.388 . S
C2319 H2306 0.930 1_556 S
C2319 C2318 1.388 . S
C2319 C2320 1.390 . S
C2320 C2319 1.390 . S
C2320 C2321 1.394 . S
C2320 C2326 1.465 . S
C2321 C2316 1.399 . S
C2321 C2320 1.394 . S
C2321 C2322 1.516 . S
C2322 C2321 1.516 . S
C2322 C2323 1.502 . S
C2322 C2324 1.561 . S
C2322 C2325 1.526 . S
C2323 H2307 0.959 . S
C2323 H2308 0.959 . S
C2323 H2309 0.961 . S
C2323 C2322 1.502 . S
C2324 H2310 0.960 . S
C2324 H2311 0.961 . S
C2324 H2312 0.959 . S
C2324 C2322 1.561 . S
C2325 C2322 1.526 . S
C2325 C2326 1.396 . S
C2325 C2330 1.390 . S
C2326 C2320 1.465 . S
C2326 C2325 1.396 . S
C2326 C2327 1.399 . S
C2327 H2313 0.929 1_556 S
C2327 C2326 1.399 . S
C2327 C2328 1.385 . S
C2328 H2314 0.931 1_556 S
C2328 C2327 1.385 . S
C2328 C2329 1.389 . S
C2329 C2328 1.389 . S
C2329 C2330 1.387 . S
C2330 H2315 0.930 . S
C2330 C2325 1.390 . S
C2330 C2329 1.387 . S
H2331 C2343 0.930 . S
H2332 C2345 0.930 . S
H2333 C2346 0.930 . S
H2334 C2350 0.959 . S
H2335 C2350 0.959 . S
H2336 C2350 0.961 . S
H2337 C2351 0.960 . S
H2338 C2351 0.961 . S
H2339 C2351 0.959 . S
H2340 C2354 0.929 . S
H2341 C2355 0.931 . S
H2342 C2357 0.930 . S
C2343 H2331 0.930 . S
C2343 C2344 1.399 . S
C2343 C2348 1.399 . S
C2344 C2343 1.399 . S
C2344 C2345 1.376 . S
C2345 H2332 0.930 . S
C2345 C2344 1.376 . S
C2345 C2346 1.388 . S
C2346 H2333 0.930 . S
C2346 C2345 1.388 . S
C2346 C2347 1.390 . S
C2347 C2346 1.390 . S
C2347 C2348 1.394 . S
C2347 C2353 1.465 . S
C2348 C2343 1.399 . S
C2348 C2347 1.394 . S
C2348 C2349 1.516 . S
C2349 C2348 1.516 . S
C2349 C2350 1.502 . S
C2349 C2351 1.561 . S
C2349 C2352 1.526 . S
C2350 H2334 0.959 . S
C2350 H2335 0.959 . S
C2350 H2336 0.961 . S
C2350 C2349 1.502 . S
C2351 H2337 0.960 . S
C2351 H2338 0.961 . S
C2351 H2339 0.959 . S
C2351 C2349 1.561 . S
C2352 C2349 1.526 . S
C2352 C2353 1.396 . S
C2352 C2357 1.390 . S
C2353 C2347 1.465 . S
C2353 C2352 1.396 . S
C2353 C2354 1.399 . S
C2354 H2340 0.929 . S
C2354 C2353 1.399 . S
C2354 C2355 1.385 . S
C2355 H2341 0.931 . S
C2355 C2354 1.385 . S
C2355 C2356 1.389 . S
C2356 C2355 1.389 . S
C2356 C2357 1.387 . S
C2357 H2342 0.930 . S
C2357 C2352 1.390 . S
C2357 C2356 1.387 . S
H2358 C2370 0.930 . S
H2359 C2372 0.930 . S
H2360 C2373 0.930 . S
H2361 C2377 0.959 . S
H2362 C2377 0.959 . S
H2363 C2377 0.961 . S
H2364 C2378 0.960 . S
H2365 C2378 0.961 . S
H2366 C2378 0.959 . S
H2367 C2381 0.929 . S
H2368 C2382 0.931 . S
H2369 C2384 0.930 . S
C2370 H2358 0.930 . S
C2370 C2371 1.399 . S
C2370 C2375 1.399 . S
C2371 C2370 1.399 . S
C2371 C2372 1.376 . S
C2372 H2359 0.930 . S
C2372 C2371 1.376 . S
C2372 C2373 1.388 . S
C2373 H2360 0.930 . S
C2373 C2372 1.388 . S
C2373 C2374 1.390 . S
C2374 C2373 1.390 . S
C2374 C2375 1.394 . S
C2374 C2380 1.465 . S
C2375 C2370 1.399 . S
C2375 C2374 1.394 . S
C2375 C2376 1.516 . S
C2376 C2375 1.516 . S
C2376 C2377 1.502 . S
C2376 C2378 1.561 . S
C2376 C2379 1.526 . S
C2377 H2361 0.959 . S
C2377 H2362 0.959 . S
C2377 H2363 0.961 . S
C2377 C2376 1.502 . S
C2378 H2364 0.960 . S
C2378 H2365 0.961 . S
C2378 H2366 0.959 . S
C2378 C2376 1.561 . S
C2379 C2376 1.526 . S
C2379 C2380 1.396 . S
C2379 C2384 1.390 . S
C2380 C2374 1.465 . S
C2380 C2379 1.396 . S
C2380 C2381 1.399 . S
C2381 H2367 0.929 . S
C2381 C2380 1.399 . S
C2381 C2382 1.385 . S
C2382 H2368 0.931 . S
C2382 C2381 1.385 . S
C2382 C2383 1.389 . S
C2383 C2382 1.389 . S
C2383 C2384 1.387 . S
C2384 H2369 0.930 . S
C2384 C2379 1.390 . S
C2384 C2383 1.387 . S
H2385 C2397 0.930 . S
H2386 C2399 0.930 . S
H2387 C2400 0.930 . S
H2388 C2404 0.959 . S
H2389 C2404 0.959 . S
H2390 C2404 0.961 . S
H2391 C2405 0.960 . S
H2392 C2405 0.961 . S
H2393 C2405 0.959 . S
H2394 C2408 0.929 . S
H2395 C2409 0.931 . S
H2396 C2411 0.930 . S
C2397 H2385 0.930 . S
C2397 C2398 1.399 . S
C2397 C2402 1.399 . S
C2398 C2397 1.399 . S
C2398 C2399 1.376 . S
C2399 H2386 0.930 . S
C2399 C2398 1.376 . S
C2399 C2400 1.388 . S
C2400 H2387 0.930 . S
C2400 C2399 1.388 . S
C2400 C2401 1.390 . S
C2401 C2400 1.390 . S
C2401 C2402 1.394 . S
C2401 C2407 1.465 . S
C2402 C2397 1.399 . S
C2402 C2401 1.394 . S
C2402 C2403 1.516 . S
C2403 C2402 1.516 . S
C2403 C2404 1.502 . S
C2403 C2405 1.561 . S
C2403 C2406 1.526 . S
C2404 H2388 0.959 . S
C2404 H2389 0.959 . S
C2404 H2390 0.961 . S
C2404 C2403 1.502 . S
C2405 H2391 0.960 . S
C2405 H2392 0.961 . S
C2405 H2393 0.959 . S
C2405 C2403 1.561 . S
C2406 C2403 1.526 . S
C2406 C2407 1.396 . S
C2406 C2411 1.390 . S
C2407 C2401 1.465 . S
C2407 C2406 1.396 . S
C2407 C2408 1.399 . S
C2408 H2394 0.929 . S
C2408 C2407 1.399 . S
C2408 C2409 1.385 . S
C2409 H2395 0.931 . S
C2409 C2408 1.385 . S
C2409 C2410 1.389 . S
C2410 C2409 1.389 . S
C2410 C2411 1.387 . S
C2411 H2396 0.930 . S
C2411 C2406 1.390 . S
C2411 C2410 1.387 . S
C481 C75 1.623 . S
C493 C10 1.641 . S
C508 C43 1.652 . S
C520 C23 1.648 . S
C535 C30 1.620 . S
C547 C62 1.619 . S
C562 C82 1.618 . S
C574 C147 1.632 . S
C589 C101 1.646 . S
C601 C121 1.648 . S
C616 C140 1.647 . S
C628 C114 1.647 . S
C643 C160 1.653 . S
C655 C225 1.642 . S
C670 C173 1.617 . S
C682 C199 1.630 . S
C697 C192 1.620 . S
C709 C218 1.619 . S
C724 C309 1.617 . S
C736 C244 1.640 . S
C751 C257 1.637 . S
C763 C283 1.618 . S
C778 C290 1.625 . S
C790 C264 1.621 . S
C805 C381 1.624 . S
C817 C316 1.618 . S
C832 C355 1.622 . S
C844 C335 1.619 . S
C859 C368 1.623 . S
C871 C348 1.642 . S
C886 C400 1.653 . S
C898 C465 1.637 . S
C913 C413 1.631 . S
C925 C439 1.619 . S
C940 C426 1.623 . S
C952 C446 1.650 . S
C967 C69 1.493 . S
C979 C4 1.492 . S
C994 C17 1.499 . S
C1006 C49 1.491 . S
C1021 C56 1.490 . S
C1033 C36 1.498 . S
C1048 C88 1.499 . S
C1060 C153 1.492 . S
C1075 C95 1.499 . S
C1087 C127 1.490 . S
C1102 C134 1.490 . S
C1114 C108 1.500 . S
C1129 C166 1.495 . S
C1141 C231 1.499 . S
C1156 C205 1.490 . S
C1168 C179 1.499 . S
C1183 C212 1.497 . S
C1195 C186 1.497 . S
C1210 C238 1.498 . S
C1222 C303 1.493 . S
C1237 C251 1.490 . S
C1249 C277 1.500 . S
C1264 C296 1.497 . S
C1276 C270 1.493 . S
C1291 C387 1.492 . S
C1303 C322 1.500 . S
C1318 C329 1.498 . S
C1330 C361 1.497 . S
C1345 C342 1.499 . S
C1357 C374 1.494 . S
C1372 C459 1.500 . S
C1384 C394 1.490 . S
C1399 C433 1.497 . S
C1411 C407 1.495 . S
C1426 C452 1.490 . S
C1438 C420 1.500 . S
C1453 C211 1.725 . S
C1465 C3 1.727 . S
C1480 C226 1.730 . S
C1492 C16 1.732 . S
C1507 C200 1.733 . S
C1519 C31 1.735 . S
C1534 C44 1.731 . S
C1546 C341 1.733 . S
C1561 C55 1.724 . S
C1573 C317 1.725 . S
C1588 C68 1.730 . S
C1600 C328 1.729 . S
C1615 C83 1.730 . S
C1627 C447 1.725 . S
C1642 C94 1.733 . S
C1654 C458 1.736 . S
C1669 C107 1.735 . S
C1681 C432 1.731 . S
C1696 C122 1.724 . S
C1708 C265 1.729 . S
C1723 C237 1.735 . S
C1735 C133 1.733 . S
C1750 C250 1.724 . S
C1762 C148 1.727 . S
C1777 C369 1.732 . S
C1789 C161 1.734 . S
C1804 C174 1.728 . S
C1816 C382 1.726 . S
C1831 C185 1.726 . S
C1843 C356 1.725 . S
C1858 C276 1.724 . S
C1870 C419 1.728 . S
C1885 C291 1.735 . S
C1897 C393 1.731 . S
C1912 C406 1.734 . S
C1924 C302 1.729 . S
C1939 C5 1.336 . S
C1951 C135 1.334 . S
C1966 C146 1.319 . S
C1978 C18 1.316 . S
C1993 C120 1.336 . S
C2005 C29 1.334 . S
C2020 C42 1.317 . S
C2032 C109 1.321 . S
C2047 C57 1.336 . S
C2059 C81 1.335 . S
C2074 C70 1.333 . S
C2086 C96 1.335 . S
C2101 C159 1.316 . S
C2113 C289 1.320 . S
C2128 C304 1.321 . S
C2140 C172 1.318 . S
C2155 C278 1.310 . S
C2167 C187 1.312 . S
C2182 C198 1.320 . S
C2194 C263 1.324 . S
C2209 C213 1.334 . S
C2221 C239 1.336 . S
C2236 C252 1.320 . S
C2248 C224 1.317 . S
C2263 C315 1.336 . S
C2275 C445 1.335 . S
C2290 C460 1.327 . S
C2302 C330 1.331 . S
C2317 C343 1.332 . S
C2329 C434 1.335 . S
C2344 C354 1.325 . S
C2356 C421 1.329 . S
C2371 C395 1.327 . S
C2383 C367 1.330 . S
C2398 C380 1.310 . S
C2410 C408 1.311 . S
