# Generated by pormake.
# Topology umx, (4)-cn, num edge types: 1
# Building blocks:
#     Node 0, Type 0, BuildingBlock: KUFVIS_clean_sbu_0, # of connection points: 4
#     Node 1, Type 0, BuildingBlock: KUFVIS_clean_sbu_0, # of connection points: 4
#     Node 2, Type 0, BuildingBlock: KUFVIS_clean_sbu_0, # of connection points: 4
#     Node 3, Type 0, BuildingBlock: KUFVIS_clean_sbu_0, # of connection points: 4
#     Node 4, Type 0, BuildingBlock: KUFVIS_clean_sbu_0, # of connection points: 4
#     Node 5, Type 0, BuildingBlock: KUFVIS_clean_sbu_0, # of connection points: 4
#     Node 6, Type 0, BuildingBlock: KUFVIS_clean_sbu_0, # of connection points: 4
#     Node 7, Type 0, BuildingBlock: KUFVIS_clean_sbu_0, # of connection points: 4
#     Edge 8, Type (0, 0), BuildingBlock: AJUNOK_clean_linker_0, # of connection points: 2
#     Edge 9, Type (0, 0), BuildingBlock: AJUNOK_clean_linker_0, # of connection points: 2
#     Edge 10, Type (0, 0), BuildingBlock: AJUNOK_clean_linker_0, # of connection points: 2
#     Edge 11, Type (0, 0), BuildingBlock: AJUNOK_clean_linker_0, # of connection points: 2
#     Edge 12, Type (0, 0), BuildingBlock: AJUNOK_clean_linker_0, # of connection points: 2
#     Edge 13, Type (0, 0), BuildingBlock: AJUNOK_clean_linker_0, # of connection points: 2
#     Edge 14, Type (0, 0), BuildingBlock: AJUNOK_clean_linker_0, # of connection points: 2
#     Edge 15, Type (0, 0), BuildingBlock: AJUNOK_clean_linker_0, # of connection points: 2
#     Edge 16, Type (0, 0), BuildingBlock: AJUNOK_clean_linker_0, # of connection points: 2
#     Edge 17, Type (0, 0), BuildingBlock: AJUNOK_clean_linker_0, # of connection points: 2
#     Edge 18, Type (0, 0), BuildingBlock: AJUNOK_clean_linker_0, # of connection points: 2
#     Edge 19, Type (0, 0), BuildingBlock: AJUNOK_clean_linker_0, # of connection points: 2
#     Edge 20, Type (0, 0), BuildingBlock: AJUNOK_clean_linker_0, # of connection points: 2
#     Edge 21, Type (0, 0), BuildingBlock: AJUNOK_clean_linker_0, # of connection points: 2
#     Edge 22, Type (0, 0), BuildingBlock: AJUNOK_clean_linker_0, # of connection points: 2
#     Edge 23, Type (0, 0), BuildingBlock: AJUNOK_clean_linker_0, # of connection points: 2
# Relax obj value: 0.126
# Max RMSD: 0.262
# Mean RMSD: 0.232
data_MOF--net-umx--node1-KUFVIS_clean_sbu_0--edge1-AJUNOK_clean_linker_0
_symmetry_space_group_name_H-M    P1
_symmetry_Int_Tables_number       1
_symmetry_cell_setting            triclinic
loop_
_symmetry_equiv_pos_as_xyz
'x, y, z'
_cell_length_a     25.617386
_cell_length_b     31.129135
_cell_length_c     20.494407
_cell_angle_alpha  90.011631
_cell_angle_beta   89.993795
_cell_angle_gamma 89.968716
loop_
_atom_site_label
_atom_site_type_symbol
_atom_site_fract_x
_atom_site_fract_y
_atom_site_fract_z
_atom_type_partial_charge
Mn0 Mn 0.19188 0.4486 0.04379 0.0
Mn1 Mn 0.1178 0.38079 0.95432 0.0
C2 C 0.10568 0.46716 0.03077 0.0
C3 C 0.22897 0.46699 0.14293 0.0
C4 C 0.18827 0.44767 0.89434 0.0
O5 O 0.23574 0.39578 0.03982 0.0
O6 O 0.18572 0.35318 0.97881 0.0
C7 C 0.09939 0.31788 0.06003 0.0
N8 N 0.08061 0.34298 0.01093 0.0
C9 C 0.99423 0.31404 0.02383 0.0
C10 C 0.01274 0.28747 0.07404 0.0
C11 C 0.06551 0.28958 0.09243 0.0
C12 C 0.02995 0.34135 0.99297 0.0
H13 H 0.13995 0.31939 0.0742 0.0
C14 C 0.22726 0.36043 0.0115 0.0
O15 O 0.24962 0.48004 0.08854 0.0
O16 O 0.18775 0.44304 0.13954 0.0
N17 N 0.05036 0.39851 0.92416 0.0
C18 C 0.03725 0.43027 0.88145 0.0
C19 C 0.98486 0.43455 0.8617 0.0
C20 C 0.94698 0.40575 0.88447 0.0
C21 C 0.9614 0.37316 0.9279 0.0
C22 C 0.01406 0.37015 0.9458 0.0
H23 H 0.06646 0.45221 0.86313 0.0
O24 O 0.14156 0.49461 0.04549 0.0
O25 O 0.12125 0.42674 0.02371 0.0
O26 O 0.20713 0.4622 0.94765 0.0
O27 O 0.15393 0.41804 0.89138 0.0
C28 C 0.92509 0.34488 0.95651 0.0
C29 C 0.94151 0.31532 1.00446 0.0
H30 H 0.98664 0.2658 0.09943 0.0
H31 H 0.08002 0.26943 0.13145 0.0
H32 H 0.9731 0.45993 0.82906 0.0
H33 H 0.90669 0.40961 0.86945 0.0
H34 H 0.88418 0.34641 0.94334 0.0
H35 H 0.91302 0.29444 0.02723 0.0
Mn36 Mn 0.52809 0.16264 0.54489 0.0
Mn37 Mn 0.47682 0.26201 0.5379 0.0
C38 C 0.50818 0.19701 0.64153 0.0
C39 C 0.51317 0.08885 0.53585 0.0
C40 C 0.59264 0.2458 0.5368 0.0
O41 O 0.51304 0.16953 0.44822 0.0
O42 O 0.48341 0.23679 0.44904 0.0
C43 C 0.37299 0.22984 0.49751 0.0
N44 N 0.40293 0.25353 0.53899 0.0
C45 C 0.32738 0.27617 0.5996 0.0
C46 C 0.29566 0.2522 0.55738 0.0
C47 C 0.31863 0.22874 0.50631 0.0
C48 C 0.3814 0.27525 0.5892 0.0
H49 H 0.39045 0.21191 0.45805 0.0
C50 C 0.49732 0.20289 0.41869 0.0
O51 O 0.55937 0.105 0.52615 0.0
O52 O 0.47639 0.11554 0.55105 0.0
N53 N 0.46678 0.29342 0.61684 0.0
C54 C 0.50211 0.31914 0.64734 0.0
C55 C 0.48487 0.34843 0.6946 0.0
C56 C 0.43184 0.3501 0.71177 0.0
C57 C 0.396 0.32408 0.67879 0.0
C58 C 0.4151 0.29717 0.62954 0.0
H59 H 0.54277 0.31878 0.63338 0.0
O60 O 0.53694 0.16285 0.64033 0.0
O61 O 0.48658 0.20786 0.58575 0.0
O62 O 0.59049 0.20456 0.53679 0.0
O63 O 0.5528 0.27072 0.5383 0.0
C64 C 0.34178 0.32565 0.69026 0.0
C65 C 0.30752 0.30123 0.65119 0.0
H66 H 0.25367 0.25168 0.5636 0.0
H67 H 0.29446 0.21007 0.47358 0.0
H68 H 0.51215 0.37071 0.71607 0.0
H69 H 0.41869 0.37283 0.74827 0.0
H70 H 0.32597 0.34595 0.7284 0.0
H71 H 0.26591 0.30266 0.66038 0.0
Mn72 Mn 0.80438 0.54394 0.05847 0.0
Mn73 Mn 0.87517 0.60922 0.96051 0.0
C74 C 0.89091 0.52833 0.04369 0.0
C75 C 0.76876 0.52973 0.16021 0.0
C76 C 0.80534 0.53845 0.90944 0.0
O77 O 0.7581 0.5953 0.04742 0.0
O78 O 0.80792 0.63763 0.98496 0.0
C79 C 0.89629 0.67889 0.05511 0.0
N80 N 0.91405 0.64947 0.01119 0.0
C81 C 0.00089 0.67864 0.01585 0.0
C82 C 0.98353 0.70938 0.06095 0.0
C83 C 0.93108 0.70928 0.08102 0.0
C84 C 0.96452 0.64888 0.99223 0.0
H85 H 0.85581 0.67938 0.0698 0.0
C86 C 0.76623 0.63028 0.01744 0.0
O87 O 0.74861 0.51324 0.1077 0.0
O88 O 0.8086 0.55498 0.15332 0.0
N89 N 0.94169 0.58843 0.9316 0.0
C90 C 0.95275 0.55556 0.88986 0.0
C91 C 0.00429 0.54998 0.86771 0.0
C92 C 0.0436 0.5784 0.88771 0.0
C93 C 0.03113 0.61245 0.92953 0.0
C94 C 0.97925 0.61644 0.95026 0.0
H95 H 0.92241 0.53411 0.87318 0.0
O96 O 0.85836 0.50002 0.06571 0.0
O97 O 0.87246 0.56729 0.03379 0.0
O98 O 0.78921 0.52444 0.96446 0.0
O99 O 0.83733 0.56955 0.90308 0.0
C100 C 0.06819 0.64263 0.95142 0.0
C101 C 0.05307 0.67576 0.99447 0.0
H102 H 0.01022 0.73294 0.08092 0.0
H103 H 0.91741 0.73282 0.11594 0.0
H104 H 0.01391 0.52442 0.83427 0.0
H105 H 0.08316 0.57394 0.87022 0.0
H106 H 0.10854 0.64041 0.93596 0.0
H107 H 0.08205 0.6984 0.0117 0.0
Mn108 Mn 0.46502 0.83001 0.54239 0.0
Mn109 Mn 0.52103 0.73231 0.53564 0.0
C110 C 0.48632 0.79641 0.63914 0.0
C111 C 0.47569 0.90433 0.53408 0.0
C112 C 0.40459 0.74488 0.5333 0.0
O113 O 0.48083 0.8236 0.44587 0.0
O114 O 0.51411 0.75747 0.44673 0.0
C115 C 0.624 0.76695 0.49656 0.0
N116 N 0.59456 0.74258 0.53767 0.0
C117 C 0.67046 0.72111 0.59855 0.0
C118 C 0.70168 0.74581 0.55672 0.0
C119 C 0.67828 0.76903 0.50571 0.0
C120 C 0.61648 0.72102 0.58777 0.0
H121 H 0.60618 0.78464 0.45709 0.0
C122 C 0.49847 0.79087 0.41638 0.0
O123 O 0.43065 0.88633 0.52357 0.0
O124 O 0.51404 0.87908 0.54905 0.0
N125 N 0.53153 0.70113 0.61466 0.0
C126 C 0.49672 0.67493 0.64513 0.0
C127 C 0.51447 0.64612 0.69275 0.0
C128 C 0.56746 0.64541 0.71027 0.0
C129 C 0.60279 0.67188 0.67724 0.0
C130 C 0.58323 0.69834 0.62773 0.0
H131 H 0.45611 0.67458 0.63101 0.0
O132 O 0.45573 0.82949 0.63766 0.0
O133 O 0.5087 0.78623 0.58351 0.0
O134 O 0.40476 0.78614 0.53377 0.0
O135 O 0.44559 0.72134 0.53494 0.0
C136 C 0.65699 0.67132 0.68906 0.0
C137 C 0.69077 0.69631 0.65017 0.0
H138 H 0.74361 0.74712 0.56323 0.0
H139 H 0.70206 0.78824 0.47328 0.0
H140 H 0.4876 0.62351 0.71426 0.0
H141 H 0.58097 0.62311 0.74716 0.0
H142 H 0.67314 0.65138 0.72739 0.0
H143 H 0.73237 0.6956 0.65963 0.0
Mn144 Mn 0.19074 0.54365 0.50252 0.0
Mn145 Mn 0.11871 0.60911 0.59899 0.0
C146 C 0.10413 0.52792 0.51636 0.0
C147 C 0.22747 0.52842 0.40179 0.0
C148 C 0.1878 0.53829 0.65164 0.0
O149 O 0.23654 0.59525 0.51321 0.0
O150 O 0.18633 0.63741 0.57566 0.0
C151 C 0.09891 0.67829 0.50307 0.0
N152 N 0.08057 0.64923 0.54711 0.0
C153 C 0.99376 0.67834 0.53993 0.0
C154 C 0.01174 0.70874 0.49473 0.0
C155 C 0.06447 0.70849 0.47585 0.0
C156 C 0.02981 0.64875 0.56485 0.0
H157 H 0.13958 0.67864 0.48921 0.0
C158 C 0.22808 0.63017 0.54322 0.0
O159 O 0.24726 0.51274 0.45506 0.0
O160 O 0.1875 0.55373 0.40735 0.0
N161 N 0.05175 0.58862 0.62674 0.0
C162 C 0.04007 0.55606 0.66873 0.0
C163 C 0.98823 0.5507 0.68987 0.0
C164 C 0.94923 0.57905 0.66864 0.0
C165 C 0.9623 0.61281 0.62662 0.0
C166 C 0.01448 0.61659 0.60694 0.0
H167 H 0.07015 0.53466 0.68636 0.0
O168 O 0.13703 0.49952 0.49528 0.0
O169 O 0.1223 0.56698 0.52597 0.0
O170 O 0.20521 0.52486 0.59692 0.0
O171 O 0.15566 0.5694 0.65744 0.0
C172 C 0.92556 0.64287 0.60347 0.0
C173 C 0.94129 0.67566 0.5602 0.0
H174 H 0.98532 0.73215 0.47376 0.0
H175 H 0.07862 0.73175 0.44084 0.0
H176 H 0.97811 0.52537 0.72343 0.0
H177 H 0.90943 0.57474 0.68531 0.0
H178 H 0.88499 0.64078 0.61807 0.0
H179 H 0.91255 0.69818 0.54196 0.0
Mn180 Mn 0.46724 0.16245 1.00837 0.0
Mn181 Mn 0.52232 0.26018 0.01209 0.0
C182 C 0.48511 0.19604 0.91056 0.0
C183 C 0.48094 0.08871 0.01783 0.0
C184 C 0.40592 0.24726 0.0188 0.0
O185 O 0.48501 0.1694 0.10419 0.0
O186 O 0.51716 0.23579 0.10171 0.0
C187 C 0.62572 0.22492 0.04826 0.0
N188 N 0.59561 0.24896 1.0074 0.0
C189 C 0.66966 0.26594 0.94004 0.0
C190 C 0.70154 0.24158 0.98157 0.0
C191 C 0.6794 0.22082 0.03578 0.0
C192 C 0.61627 0.26817 0.95436 0.0
H193 H 0.60889 0.20893 0.08998 0.0
C194 C 0.50268 0.20238 0.13285 0.0
O195 O 0.43521 0.10541 0.0291 0.0
O196 O 0.51774 0.11475 1.00058 0.0
N197 N 0.53134 0.29039 0.93204 0.0
C198 C 0.49643 0.31683 0.90223 0.0
C199 C 0.51333 0.34362 0.85154 0.0
C200 C 0.56562 0.34228 0.83085 0.0
C201 C 0.60107 0.31546 0.86306 0.0
C202 C 0.58247 0.29101 0.91539 0.0
H203 H 0.45647 0.31868 0.91884 0.0
O204 O 0.45577 0.16227 0.9133 0.0
O205 O 0.50862 0.20648 0.96525 0.0
O206 O 0.40648 0.20593 0.01889 0.0
O207 O 0.44675 0.27104 0.01509 0.0
C208 C 0.65461 0.31366 0.84739 0.0
C209 C 0.68881 0.28848 0.88544 0.0
H210 H 0.74305 0.23869 0.97243 0.0
H211 H 0.70369 0.20187 0.068 0.0
H212 H 0.48638 0.3662 0.83007 0.0
H213 H 0.57879 0.36322 0.79206 0.0
H214 H 0.66999 0.33193 0.80672 0.0
H215 H 0.72991 0.28741 0.87311 0.0
Mn216 Mn 0.80398 0.44693 0.51802 0.0
Mn217 Mn 0.87846 0.38058 0.60943 0.0
C218 C 0.88981 0.46629 0.53216 0.0
C219 C 0.76786 0.46615 0.41861 0.0
C220 C 0.80684 0.44714 0.66765 0.0
O221 O 0.76136 0.39333 0.52037 0.0
O222 O 0.81081 0.35248 0.58514 0.0
C223 C 0.89792 0.31666 0.50527 0.0
N224 N 0.91623 0.34236 0.55393 0.0
C225 C 0.00296 0.31382 0.54226 0.0
C226 C 0.98495 0.28664 0.49255 0.0
C227 C 0.93224 0.28824 0.47375 0.0
C228 C 0.96684 0.34121 0.57226 0.0
H229 H 0.85743 0.31777 0.49077 0.0
C230 C 0.76993 0.35867 0.55066 0.0
O231 O 0.74622 0.4781 0.47299 0.0
O232 O 0.80923 0.44233 0.42209 0.0
N233 N 0.9456 0.39898 0.63952 0.0
C234 C 0.95819 0.43133 0.68143 0.0
C235 C 0.01043 0.43617 0.70141 0.0
C236 C 0.04868 0.40733 0.67966 0.0
C237 C 0.03481 0.37417 0.63696 0.0
C238 C 0.98225 0.37062 0.61882 0.0
H239 H 0.92867 0.45329 0.69898 0.0
O240 O 0.85354 0.49356 0.51795 0.0
O241 O 0.87484 0.42574 0.5389 0.0
O242 O 0.7871 0.46003 0.61391 0.0
O243 O 0.84205 0.41826 0.6714 0.0
C244 C 0.07151 0.3458 0.60927 0.0
C245 C 0.0556 0.31564 0.56193 0.0
H246 H 0.01139 0.26488 0.46782 0.0
H247 H 0.91812 0.26761 0.43509 0.0
H248 H 0.02173 0.46199 0.73355 0.0
H249 H 0.08879 0.41162 0.69493 0.0
H250 H 0.11234 0.34771 0.62263 0.0
H251 H 0.0844 0.2947 0.53984 0.0
Mn252 Mn 0.52954 0.8305 1.00719 0.0
Mn253 Mn 0.47207 0.73359 1.00964 0.0
C254 C 0.51211 0.79734 0.90894 0.0
C255 C 0.51877 0.90461 0.01633 0.0
C256 C 0.58845 0.74462 0.01916 0.0
O257 O 0.51005 0.82391 0.10241 0.0
O258 O 0.47645 0.75795 0.09947 0.0
C259 C 0.36867 0.76989 0.04334 0.0
N260 N 0.39904 0.74553 1.00323 0.0
C261 C 0.32567 0.72864 0.93468 0.0
C262 C 0.2935 0.75336 0.9754 0.0
C263 C 0.31517 0.77422 0.02984 0.0
C264 C 0.37884 0.72613 0.95005 0.0
H265 H 0.38516 0.78593 0.08524 0.0
C266 C 0.49138 0.7912 0.13075 0.0
O267 O 0.56339 0.88646 0.02905 0.0
O268 O 0.48106 0.87966 0.99824 0.0
N269 N 0.46384 0.70343 0.9294 0.0
C270 C 0.49905 0.67706 0.89996 0.0
C271 C 0.48269 0.65047 0.84876 0.0
C272 C 0.43062 0.65192 0.82721 0.0
C273 C 0.39484 0.67866 0.85908 0.0
C274 C 0.41291 0.70295 0.91187 0.0
H275 H 0.53885 0.67516 0.91712 0.0
O276 O 0.54249 0.83045 0.91257 0.0
O277 O 0.48743 0.78726 0.96305 0.0
O278 O 0.58884 0.78592 0.01914 0.0
O279 O 0.54718 0.72152 0.01452 0.0
C280 C 0.34152 0.68071 0.84241 0.0
C281 C 0.30703 0.70608 0.8798 0.0
H282 H 0.25214 0.75645 0.96546 0.0
H283 H 0.29065 0.79343 0.06145 0.0
H284 H 0.50991 0.62801 0.82749 0.0
H285 H 0.41794 0.63121 0.78785 0.0
H286 H 0.32653 0.66254 0.80141 0.0
H287 H 0.2661 0.70736 0.86667 0.0
C288 C 0.24281 0.5272 0.2194 0.0
C289 C 0.24608 0.48299 0.20662 0.0
C290 C 0.24116 0.54239 0.28372 0.0
C291 C 0.24418 0.51387 0.3368 0.0
H292 H 0.23648 0.54971 0.17984 0.0
H293 H 0.23417 0.57629 0.29198 0.0
S294 S 0.261 0.39577 0.32793 0.0
N295 N 0.25741 0.41136 0.25101 0.0
N296 N 0.25673 0.44002 0.37214 0.0
C297 C 0.25283 0.47009 0.32431 0.0
C298 C 0.25306 0.45456 0.25893 0.0
C299 C 0.54439 0.22096 0.74739 0.0
C300 C 0.50033 0.21753 0.70619 0.0
C301 C 0.5397 0.21956 0.81579 0.0
C302 C 0.49055 0.21705 0.84574 0.0
H303 H 0.58322 0.21917 0.72659 0.0
H304 H 0.57478 0.21543 0.84455 0.0
S305 S 0.36273 0.21295 0.76099 0.0
N306 N 0.40603 0.21319 0.70133 0.0
N307 N 0.3967 0.21704 0.82915 0.0
C308 C 0.4461 0.21935 0.80516 0.0
C309 C 0.45097 0.21815 0.73559 0.0
C310 C 0.74631 0.45572 0.30179 0.0
C311 C 0.75181 0.48357 0.35528 0.0
C312 C 0.74589 0.47165 0.23784 0.0
C313 C 0.75293 0.5157 0.22575 0.0
H314 H 0.74551 0.42127 0.3093 0.0
H315 H 0.7449 0.44898 0.19774 0.0
S316 S 0.76402 0.60201 0.3495 0.0
N317 N 0.75914 0.55734 0.3926 0.0
N318 N 0.76074 0.58723 0.27217 0.0
C319 C 0.75494 0.54406 0.27897 0.0
C320 C 0.75379 0.52796 0.344 0.0
C321 C 0.45696 0.77426 0.81424 0.0
C322 C 0.50632 0.77709 0.84355 0.0
C323 C 0.45169 0.77266 0.74593 0.0
C324 C 0.49531 0.77661 0.70408 0.0
H325 H 0.42209 0.77817 0.84342 0.0
H326 H 0.41263 0.77386 0.72569 0.0
S327 S 0.63326 0.78338 0.75698 0.0
N328 N 0.60003 0.7784 0.82556 0.0
N329 N 0.58942 0.78273 0.69797 0.0
C330 C 0.54492 0.77684 0.7328 0.0
C331 C 0.55046 0.77548 0.80229 0.0
C332 C 0.79654 0.44776 0.78868 0.0
C333 C 0.79323 0.46972 0.72872 0.0
C334 C 0.79534 0.47002 0.84811 0.0
C335 C 0.79174 0.51502 0.84936 0.0
H336 H 0.8028 0.41334 0.78962 0.0
H337 H 0.80139 0.45219 0.89288 0.0
S338 S 0.77655 0.58723 0.70668 0.0
N339 N 0.78127 0.53867 0.67479 0.0
N340 N 0.77988 0.5805 0.7865 0.0
C341 C 0.78482 0.53707 0.79012 0.0
C342 C 0.78526 0.5144 0.72971 0.0
C343 C 0.49113 0.82897 0.23943 0.0
C344 C 0.49096 0.79037 0.20349 0.0
C345 C 0.4939 0.82892 0.30797 0.0
C346 C 0.49768 0.79029 0.34354 0.0
H347 H 0.48897 0.85958 0.21443 0.0
H348 H 0.49346 0.8595 0.3332 0.0
S349 S 0.49965 0.68029 0.27276 0.0
N350 N 0.49521 0.71237 0.20893 0.0
N351 N 0.50086 0.71221 0.33702 0.0
C352 C 0.49782 0.75144 0.3081 0.0
C353 C 0.49426 0.75149 0.23843 0.0
C354 C 0.20166 0.51484 0.83133 0.0
C355 C 0.20118 0.46975 0.83287 0.0
C356 C 0.20106 0.53694 0.7719 0.0
C357 C 0.20088 0.51474 0.71201 0.0
H358 H 0.19855 0.53316 0.87613 0.0
H359 H 0.19807 0.57166 0.77289 0.0
S360 S 0.20804 0.39658 0.69035 0.0
N361 N 0.2064 0.4036 0.77021 0.0
N362 N 0.20628 0.4452 0.65816 0.0
C363 C 0.20498 0.46971 0.71302 0.0
C364 C 0.20474 0.44718 0.77362 0.0
C365 C 0.49884 0.16472 0.31019 0.0
C366 C 0.49791 0.20343 0.34586 0.0
C367 C 0.50098 0.1646 0.24161 0.0
C368 C 0.50322 0.20317 0.20567 0.0
H369 H 0.4975 0.13415 0.3354 0.0
H370 H 0.50101 0.13394 0.21659 0.0
S371 S 0.50277 0.31342 0.27543 0.0
N372 N 0.49997 0.28151 0.33959 0.0
N373 N 0.50433 0.28127 0.21146 0.0
C374 C 0.50282 0.24211 0.24079 0.0
C375 C 0.5 0.24225 0.3105 0.0
C376 C 0.95715 0.47123 0.02805 0.0
C377 C 0.94606 0.51501 0.03882 0.0
C378 C 0.00821 0.45548 0.03182 0.0
C379 C 0.05076 0.48304 0.03632 0.0
H380 H 0.92582 0.44836 0.02072 0.0
H381 H 0.01425 0.42169 0.03587 0.0
S382 S 0.04022 0.59312 0.10638 0.0
N383 N 0.9795 0.57967 0.089 0.0
N384 N 0.07662 0.55315 0.07964 0.0
C385 C 0.03974 0.52598 0.0557 0.0
C386 C 0.98714 0.54111 0.05952 0.0
C387 C 0.53487 0.9682 0.5326 0.0
C388 C 0.48376 0.95148 0.53056 0.0
C389 C 0.54412 0.01259 0.53262 0.0
C390 C 0.50262 0.04209 0.53133 0.0
H391 H 0.56822 0.94685 0.53474 0.0
H392 H 0.58409 0.02379 0.53517 0.0
S393 S 0.36145 0.01515 0.52239 0.0
N394 N 0.39115 0.9681 0.52449 0.0
N395 N 0.40834 0.05146 0.52505 0.0
C396 C 0.4513 0.02587 0.52788 0.0
C397 C 0.44192 0.98061 0.5273 0.0
C398 C 0.03827 0.47077 0.53332 0.0
C399 C 0.04906 0.51444 0.52128 0.0
C400 C 0.98729 0.45485 0.53028 0.0
C401 C 0.94457 0.48225 0.52529 0.0
H402 H 0.06974 0.4481 0.54126 0.0
H403 H 0.98143 0.42101 0.52731 0.0
S404 S 0.95424 0.59129 0.45161 0.0
N405 N 0.0151 0.57833 0.46926 0.0
N406 N 0.91814 0.55156 0.47969 0.0
C407 C 0.95526 0.52489 0.50439 0.0
C408 C 0.00777 0.54014 0.49989 0.0
C409 C 0.45929 0.96826 0.01659 0.0
C410 C 0.51036 0.9516 0.02127 0.0
C411 C 0.44984 0.01261 0.01767 0.0
C412 C 0.49114 0.04203 0.02265 0.0
H413 H 0.42617 0.94692 0.01136 0.0
H414 H 0.41002 0.02388 0.01267 0.0
S415 S 0.63176 0.01521 0.04081 0.0
N416 N 0.60247 0.96817 0.03469 0.0
N417 N 0.58488 0.05148 0.03614 0.0
C418 C 0.54229 0.02586 0.02918 0.0
C419 C 0.55185 0.98067 0.02869 0.0
C420 C 0.31023 0.33423 0.06075 0.0
C421 C 0.26851 0.32705 0.01721 0.0
C422 C 0.35304 0.30664 0.06323 0.0
C423 C 0.35583 0.27024 0.02313 0.0
H424 H 0.31092 0.36223 0.09214 0.0
H425 H 0.38509 0.31462 0.09557 0.0
S426 S 0.25581 0.23405 0.90475 0.0
N427 N 0.23152 0.27881 0.93575 0.0
N428 N 0.3124 0.22636 0.94164 0.0
C429 C 0.3134 0.26087 0.98216 0.0
C430 C 0.26963 0.28942 0.97892 0.0
C431 C 0.69531 0.3259 0.49108 0.0
C432 C 0.73001 0.32446 0.54441 0.0
C433 C 0.65275 0.29807 0.48697 0.0
C434 C 0.6436 0.26723 0.5354 0.0
H435 H 0.6999 0.34977 0.45303 0.0
H436 H 0.62557 0.3018 0.44682 0.0
S437 S 0.72311 0.24831 0.6835 0.0
N438 N 0.75311 0.28816 0.64566 0.0
N439 N 0.6728 0.23532 0.63706 0.0
C440 C 0.6791 0.26363 0.58725 0.0
C441 C 0.72251 0.29234 0.59189 0.0
C442 C 0.68215 0.6567 0.06362 0.0
C443 C 0.7246 0.66344 0.02105 0.0
C444 C 0.63963 0.68465 0.06488 0.0
C445 C 0.6379 0.72092 0.02442 0.0
H446 H 0.68079 0.62889 0.09535 0.0
H447 H 0.60706 0.67715 0.09668 0.0
S448 S 0.73947 0.75543 0.90701 0.0
N449 N 0.76297 0.7108 0.93932 0.0
N450 N 0.68258 0.76378 0.94279 0.0
C451 C 0.68081 0.72962 0.98396 0.0
C452 C 0.72427 0.70077 0.98201 0.0
C453 C 0.34901 0.68851 0.48556 0.0
C454 C 0.35472 0.72177 0.53105 0.0
C455 C 0.30685 0.66028 0.48884 0.0
C456 C 0.26895 0.66376 0.53844 0.0
H457 H 0.37835 0.68346 0.44819 0.0
H458 H 0.30486 0.63479 0.45292 0.0
S459 S 0.26638 0.74642 0.66909 0.0
N460 N 0.31913 0.7579 0.6261 0.0
N461 N 0.2394 0.7044 0.63315 0.0
C462 C 0.27325 0.69805 0.58303 0.0
C463 C 0.31632 0.72716 0.57918 0.0
loop_
_geom_bond_atom_site_label_1
_geom_bond_atom_site_label_2
_geom_bond_distance
_geom_bond_site_symmetry_2
_ccdc_geom_bond_type
Mn0 O5 2.095 . S
Mn0 O15 2.162 . S
Mn0 O16 2.297 . S
Mn0 O24 2.385 . S
Mn0 O25 2.209 . S
Mn0 O26 2.094 1_554 S
Mn1 O6 2.121 . S
Mn1 N8 2.257 . S
Mn1 N17 2.282 . S
Mn1 O25 2.215 1_556 S
Mn1 O27 2.117 . S
C2 O24 1.234 . S
C2 O25 1.283 . S
C3 O15 1.281 . S
C3 O16 1.236 . S
C4 O26 1.240 . S
C4 O27 1.264 . S
O5 Mn0 2.095 . S
O5 C14 1.250 1_554 S
O6 Mn1 2.121 . S
O6 C14 1.258 . S
C7 N8 1.326 . S
C7 C11 1.460 . S
C7 H13 0.929 . S
N8 Mn1 2.257 . S
N8 C7 1.326 . S
N8 C12 1.362 . S
C9 C10 1.258 . S
C9 C12 1.431 . S
C9 C29 1.449 1_455 S
C10 C9 1.258 . S
C10 C11 1.477 . S
C10 H30 0.931 1_455 S
C11 C7 1.460 . S
C11 C10 1.477 . S
C11 H31 0.930 . S
C12 N8 1.362 . S
C12 C9 1.431 . S
C12 C22 1.476 . S
H13 C7 0.929 . S
C14 O5 1.250 1_556 S
C14 O6 1.258 . S
O15 Mn0 2.162 . S
O15 C3 1.281 . S
O16 Mn0 2.297 . S
O16 C3 1.236 . S
N17 Mn1 2.282 . S
N17 C18 1.328 . S
N17 C22 1.318 . S
C18 N17 1.328 . S
C18 C19 1.457 . S
C18 H23 0.929 . S
C19 C18 1.457 . S
C19 C20 1.291 1_455 S
C19 H32 0.931 . S
C20 C19 1.291 1_655 S
C20 C21 1.373 . S
C20 H33 0.929 . S
C21 C20 1.373 . S
C21 C22 1.396 1_655 S
C21 C28 1.403 . S
C22 C12 1.476 . S
C22 N17 1.318 . S
C22 C21 1.396 1_455 S
H23 C18 0.929 . S
O24 Mn0 2.385 . S
O24 C2 1.234 . S
O25 Mn0 2.209 . S
O25 Mn1 2.215 1_554 S
O25 C2 1.283 . S
O26 Mn0 2.094 1_556 S
O26 C4 1.240 . S
O27 Mn1 2.117 . S
O27 C4 1.264 . S
C28 C21 1.403 . S
C28 C29 1.399 . S
C28 H34 0.929 . S
C29 C9 1.449 1_655 S
C29 C28 1.399 . S
C29 H35 0.930 . S
H30 C10 0.931 1_655 S
H31 C11 0.930 . S
H32 C19 0.931 . S
H33 C20 0.929 . S
H34 C28 0.929 . S
H35 C29 0.930 . S
Mn36 O41 2.095 . S
Mn36 O51 2.162 . S
Mn36 O52 2.297 . S
Mn36 O60 2.385 . S
Mn36 O61 2.209 . S
Mn36 O62 2.094 . S
Mn37 O42 2.121 . S
Mn37 N44 2.257 . S
Mn37 N53 2.282 . S
Mn37 O61 2.215 . S
Mn37 O63 2.117 . S
C38 O60 1.234 . S
C38 O61 1.283 . S
C39 O51 1.281 . S
C39 O52 1.236 . S
C40 O62 1.240 . S
C40 O63 1.264 . S
O41 Mn36 2.095 . S
O41 C50 1.250 . S
O42 Mn37 2.121 . S
O42 C50 1.258 . S
C43 N44 1.326 . S
C43 C47 1.460 . S
C43 H49 0.929 . S
N44 Mn37 2.257 . S
N44 C43 1.326 . S
N44 C48 1.362 . S
C45 C46 1.258 . S
C45 C48 1.431 . S
C45 C65 1.449 . S
C46 C45 1.258 . S
C46 C47 1.477 . S
C46 H66 0.931 . S
C47 C43 1.460 . S
C47 C46 1.477 . S
C47 H67 0.930 . S
C48 N44 1.362 . S
C48 C45 1.431 . S
C48 C58 1.476 . S
H49 C43 0.929 . S
C50 O41 1.250 . S
C50 O42 1.258 . S
O51 Mn36 2.162 . S
O51 C39 1.281 . S
O52 Mn36 2.297 . S
O52 C39 1.236 . S
N53 Mn37 2.282 . S
N53 C54 1.328 . S
N53 C58 1.318 . S
C54 N53 1.328 . S
C54 C55 1.457 . S
C54 H59 0.929 . S
C55 C54 1.457 . S
C55 C56 1.291 . S
C55 H68 0.931 . S
C56 C55 1.291 . S
C56 C57 1.373 . S
C56 H69 0.929 . S
C57 C56 1.373 . S
C57 C58 1.396 . S
C57 C64 1.403 . S
C58 C48 1.476 . S
C58 N53 1.318 . S
C58 C57 1.396 . S
H59 C54 0.929 . S
O60 Mn36 2.385 . S
O60 C38 1.234 . S
O61 Mn36 2.209 . S
O61 Mn37 2.215 . S
O61 C38 1.283 . S
O62 Mn36 2.094 . S
O62 C40 1.240 . S
O63 Mn37 2.117 . S
O63 C40 1.264 . S
C64 C57 1.403 . S
C64 C65 1.399 . S
C64 H70 0.929 . S
C65 C45 1.449 . S
C65 C64 1.399 . S
C65 H71 0.930 . S
H66 C46 0.931 . S
H67 C47 0.930 . S
H68 C55 0.931 . S
H69 C56 0.929 . S
H70 C64 0.929 . S
H71 C65 0.930 . S
Mn72 O77 2.095 . S
Mn72 O87 2.162 . S
Mn72 O88 2.297 . S
Mn72 O96 2.385 . S
Mn72 O97 2.209 . S
Mn72 O98 2.094 1_554 S
Mn73 O78 2.121 . S
Mn73 N80 2.257 . S
Mn73 N89 2.282 . S
Mn73 O97 2.215 1_556 S
Mn73 O99 2.117 . S
C74 O96 1.234 . S
C74 O97 1.283 . S
C75 O87 1.281 . S
C75 O88 1.236 . S
C76 O98 1.240 . S
C76 O99 1.264 . S
O77 Mn72 2.095 . S
O77 C86 1.250 1_554 S
O78 Mn73 2.121 . S
O78 C86 1.258 . S
C79 N80 1.326 . S
C79 C83 1.460 . S
C79 H85 0.929 . S
N80 Mn73 2.257 . S
N80 C79 1.326 . S
N80 C84 1.362 . S
C81 C82 1.258 . S
C81 C84 1.431 . S
C81 C101 1.449 1_655 S
C82 C81 1.258 . S
C82 C83 1.477 . S
C82 H102 0.931 1_655 S
C83 C79 1.460 . S
C83 C82 1.477 . S
C83 H103 0.930 . S
C84 N80 1.362 . S
C84 C81 1.431 . S
C84 C94 1.476 . S
H85 C79 0.929 . S
C86 O77 1.250 1_556 S
C86 O78 1.258 . S
O87 Mn72 2.162 . S
O87 C75 1.281 . S
O88 Mn72 2.297 . S
O88 C75 1.236 . S
N89 Mn73 2.282 . S
N89 C90 1.328 . S
N89 C94 1.318 . S
C90 N89 1.328 . S
C90 C91 1.457 . S
C90 H95 0.929 . S
C91 C90 1.457 . S
C91 C92 1.291 1_655 S
C91 H104 0.931 . S
C92 C91 1.291 1_455 S
C92 C93 1.373 . S
C92 H105 0.929 . S
C93 C92 1.373 . S
C93 C94 1.396 1_455 S
C93 C100 1.403 . S
C94 C84 1.476 . S
C94 N89 1.318 . S
C94 C93 1.396 1_655 S
H95 C90 0.929 . S
O96 Mn72 2.385 . S
O96 C74 1.234 . S
O97 Mn72 2.209 . S
O97 Mn73 2.215 1_554 S
O97 C74 1.283 . S
O98 Mn72 2.094 1_556 S
O98 C76 1.240 . S
O99 Mn73 2.117 . S
O99 C76 1.264 . S
C100 C93 1.403 . S
C100 C101 1.399 . S
C100 H106 0.929 . S
C101 C81 1.449 1_455 S
C101 C100 1.399 . S
C101 H107 0.930 . S
H102 C82 0.931 1_455 S
H103 C83 0.930 . S
H104 C91 0.931 . S
H105 C92 0.929 . S
H106 C100 0.929 . S
H107 C101 0.930 . S
Mn108 O113 2.095 . S
Mn108 O123 2.162 . S
Mn108 O124 2.297 . S
Mn108 O132 2.385 . S
Mn108 O133 2.209 . S
Mn108 O134 2.094 . S
Mn109 O114 2.121 . S
Mn109 N116 2.257 . S
Mn109 N125 2.282 . S
Mn109 O133 2.215 . S
Mn109 O135 2.117 . S
C110 O132 1.234 . S
C110 O133 1.283 . S
C111 O123 1.281 . S
C111 O124 1.236 . S
C112 O134 1.240 . S
C112 O135 1.264 . S
O113 Mn108 2.095 . S
O113 C122 1.250 . S
O114 Mn109 2.121 . S
O114 C122 1.258 . S
C115 N116 1.326 . S
C115 C119 1.460 . S
C115 H121 0.929 . S
N116 Mn109 2.257 . S
N116 C115 1.326 . S
N116 C120 1.362 . S
C117 C118 1.258 . S
C117 C120 1.431 . S
C117 C137 1.449 . S
C118 C117 1.258 . S
C118 C119 1.477 . S
C118 H138 0.931 . S
C119 C115 1.460 . S
C119 C118 1.477 . S
C119 H139 0.930 . S
C120 N116 1.362 . S
C120 C117 1.431 . S
C120 C130 1.476 . S
H121 C115 0.929 . S
C122 O113 1.250 . S
C122 O114 1.258 . S
O123 Mn108 2.162 . S
O123 C111 1.281 . S
O124 Mn108 2.297 . S
O124 C111 1.236 . S
N125 Mn109 2.282 . S
N125 C126 1.328 . S
N125 C130 1.318 . S
C126 N125 1.328 . S
C126 C127 1.457 . S
C126 H131 0.929 . S
C127 C126 1.457 . S
C127 C128 1.291 . S
C127 H140 0.931 . S
C128 C127 1.291 . S
C128 C129 1.373 . S
C128 H141 0.929 . S
C129 C128 1.373 . S
C129 C130 1.396 . S
C129 C136 1.403 . S
C130 C120 1.476 . S
C130 N125 1.318 . S
C130 C129 1.396 . S
H131 C126 0.929 . S
O132 Mn108 2.385 . S
O132 C110 1.234 . S
O133 Mn108 2.209 . S
O133 Mn109 2.215 . S
O133 C110 1.283 . S
O134 Mn108 2.094 . S
O134 C112 1.240 . S
O135 Mn109 2.117 . S
O135 C112 1.264 . S
C136 C129 1.403 . S
C136 C137 1.399 . S
C136 H142 0.929 . S
C137 C117 1.449 . S
C137 C136 1.399 . S
C137 H143 0.930 . S
H138 C118 0.931 . S
H139 C119 0.930 . S
H140 C127 0.931 . S
H141 C128 0.929 . S
H142 C136 0.929 . S
H143 C137 0.930 . S
Mn144 O149 2.095 . S
Mn144 O159 2.162 . S
Mn144 O160 2.297 . S
Mn144 O168 2.385 . S
Mn144 O169 2.209 . S
Mn144 O170 2.094 . S
Mn145 O150 2.121 . S
Mn145 N152 2.257 . S
Mn145 N161 2.282 . S
Mn145 O169 2.215 . S
Mn145 O171 2.117 . S
C146 O168 1.234 . S
C146 O169 1.283 . S
C147 O159 1.281 . S
C147 O160 1.236 . S
C148 O170 1.240 . S
C148 O171 1.264 . S
O149 Mn144 2.095 . S
O149 C158 1.250 . S
O150 Mn145 2.121 . S
O150 C158 1.258 . S
C151 N152 1.326 . S
C151 C155 1.460 . S
C151 H157 0.929 . S
N152 Mn145 2.257 . S
N152 C151 1.326 . S
N152 C156 1.362 . S
C153 C154 1.258 . S
C153 C156 1.431 . S
C153 C173 1.449 1_455 S
C154 C153 1.258 . S
C154 C155 1.477 . S
C154 H174 0.931 1_455 S
C155 C151 1.460 . S
C155 C154 1.477 . S
C155 H175 0.930 . S
C156 N152 1.362 . S
C156 C153 1.431 . S
C156 C166 1.476 . S
H157 C151 0.929 . S
C158 O149 1.250 . S
C158 O150 1.258 . S
O159 Mn144 2.162 . S
O159 C147 1.281 . S
O160 Mn144 2.297 . S
O160 C147 1.236 . S
N161 Mn145 2.282 . S
N161 C162 1.328 . S
N161 C166 1.318 . S
C162 N161 1.328 . S
C162 C163 1.457 . S
C162 H167 0.929 . S
C163 C162 1.457 . S
C163 C164 1.291 1_455 S
C163 H176 0.931 . S
C164 C163 1.291 1_655 S
C164 C165 1.373 . S
C164 H177 0.929 . S
C165 C164 1.373 . S
C165 C166 1.396 1_655 S
C165 C172 1.403 . S
C166 C156 1.476 . S
C166 N161 1.318 . S
C166 C165 1.396 1_455 S
H167 C162 0.929 . S
O168 Mn144 2.385 . S
O168 C146 1.234 . S
O169 Mn144 2.209 . S
O169 Mn145 2.215 . S
O169 C146 1.283 . S
O170 Mn144 2.094 . S
O170 C148 1.240 . S
O171 Mn145 2.117 . S
O171 C148 1.264 . S
C172 C165 1.403 . S
C172 C173 1.399 . S
C172 H178 0.929 . S
C173 C153 1.449 1_655 S
C173 C172 1.399 . S
C173 H179 0.930 . S
H174 C154 0.931 1_655 S
H175 C155 0.930 . S
H176 C163 0.931 . S
H177 C164 0.929 . S
H178 C172 0.929 . S
H179 C173 0.930 . S
Mn180 O185 2.095 . S
Mn180 O195 2.162 . S
Mn180 O196 2.297 . S
Mn180 O204 2.385 1_554 S
Mn180 O205 2.209 1_554 S
Mn180 O206 2.094 . S
Mn181 O186 2.121 . S
Mn181 N188 2.257 1_554 S
Mn181 N197 2.282 1_554 S
Mn181 O205 2.215 1_554 S
Mn181 O207 2.117 . S
C182 O204 1.234 . S
C182 O205 1.283 . S
C183 O195 1.281 . S
C183 O196 1.236 . S
C184 O206 1.240 . S
C184 O207 1.264 . S
O185 Mn180 2.095 . S
O185 C194 1.250 . S
O186 Mn181 2.121 . S
O186 C194 1.258 . S
C187 N188 1.326 1_554 S
C187 C191 1.460 1_554 S
C187 H193 0.929 . S
N188 Mn181 2.257 1_556 S
N188 C187 1.326 1_556 S
N188 C192 1.362 . S
C189 C190 1.258 . S
C189 C192 1.431 . S
C189 C209 1.449 . S
C190 C189 1.258 . S
C190 C191 1.477 . S
C190 H210 0.931 . S
C191 C187 1.460 1_556 S
C191 C190 1.477 . S
C191 H211 0.930 1_556 S
C192 N188 1.362 . S
C192 C189 1.431 . S
C192 C202 1.476 . S
H193 C187 0.929 . S
C194 O185 1.250 . S
C194 O186 1.258 . S
O195 Mn180 2.162 . S
O195 C183 1.281 . S
O196 Mn180 2.297 . S
O196 C183 1.236 . S
N197 Mn181 2.282 1_556 S
N197 C198 1.328 . S
N197 C202 1.318 . S
C198 N197 1.328 . S
C198 C199 1.457 . S
C198 H203 0.929 . S
C199 C198 1.457 . S
C199 C200 1.291 . S
C199 H212 0.931 . S
C200 C199 1.291 . S
C200 C201 1.373 . S
C200 H213 0.929 . S
C201 C200 1.373 . S
C201 C202 1.396 . S
C201 C208 1.403 . S
C202 C192 1.476 . S
C202 N197 1.318 . S
C202 C201 1.396 . S
H203 C198 0.929 . S
O204 Mn180 2.385 1_556 S
O204 C182 1.234 . S
O205 Mn180 2.209 1_556 S
O205 Mn181 2.215 1_556 S
O205 C182 1.283 . S
O206 Mn180 2.094 . S
O206 C184 1.240 . S
O207 Mn181 2.117 . S
O207 C184 1.264 . S
C208 C201 1.403 . S
C208 C209 1.399 . S
C208 H214 0.929 . S
C209 C189 1.449 . S
C209 C208 1.399 . S
C209 H215 0.930 . S
H210 C190 0.931 . S
H211 C191 0.930 1_554 S
H212 C199 0.931 . S
H213 C200 0.929 . S
H214 C208 0.929 . S
H215 C209 0.930 . S
Mn216 O221 2.095 . S
Mn216 O231 2.162 . S
Mn216 O232 2.297 . S
Mn216 O240 2.385 . S
Mn216 O241 2.209 . S
Mn216 O242 2.094 . S
Mn217 O222 2.121 . S
Mn217 N224 2.257 . S
Mn217 N233 2.282 . S
Mn217 O241 2.215 . S
Mn217 O243 2.117 . S
C218 O240 1.234 . S
C218 O241 1.283 . S
C219 O231 1.281 . S
C219 O232 1.236 . S
C220 O242 1.240 . S
C220 O243 1.264 . S
O221 Mn216 2.095 . S
O221 C230 1.250 . S
O222 Mn217 2.121 . S
O222 C230 1.258 . S
C223 N224 1.326 . S
C223 C227 1.460 . S
C223 H229 0.929 . S
N224 Mn217 2.257 . S
N224 C223 1.326 . S
N224 C228 1.362 . S
C225 C226 1.258 . S
C225 C228 1.431 . S
C225 C245 1.449 1_655 S
C226 C225 1.258 . S
C226 C227 1.477 . S
C226 H246 0.931 1_655 S
C227 C223 1.460 . S
C227 C226 1.477 . S
C227 H247 0.930 . S
C228 N224 1.362 . S
C228 C225 1.431 . S
C228 C238 1.476 . S
H229 C223 0.929 . S
C230 O221 1.250 . S
C230 O222 1.258 . S
O231 Mn216 2.162 . S
O231 C219 1.281 . S
O232 Mn216 2.297 . S
O232 C219 1.236 . S
N233 Mn217 2.282 . S
N233 C234 1.328 . S
N233 C238 1.318 . S
C234 N233 1.328 . S
C234 C235 1.457 . S
C234 H239 0.929 . S
C235 C234 1.457 . S
C235 C236 1.291 1_655 S
C235 H248 0.931 . S
C236 C235 1.291 1_455 S
C236 C237 1.373 . S
C236 H249 0.929 . S
C237 C236 1.373 . S
C237 C238 1.396 1_455 S
C237 C244 1.403 . S
C238 C228 1.476 . S
C238 N233 1.318 . S
C238 C237 1.396 1_655 S
H239 C234 0.929 . S
O240 Mn216 2.385 . S
O240 C218 1.234 . S
O241 Mn216 2.209 . S
O241 Mn217 2.215 . S
O241 C218 1.283 . S
O242 Mn216 2.094 . S
O242 C220 1.240 . S
O243 Mn217 2.117 . S
O243 C220 1.264 . S
C244 C237 1.403 . S
C244 C245 1.399 . S
C244 H250 0.929 . S
C245 C225 1.449 1_455 S
C245 C244 1.399 . S
C245 H251 0.930 . S
H246 C226 0.931 1_455 S
H247 C227 0.930 . S
H248 C235 0.931 . S
H249 C236 0.929 . S
H250 C244 0.929 . S
H251 C245 0.930 . S
Mn252 O257 2.095 . S
Mn252 O267 2.162 . S
Mn252 O268 2.297 . S
Mn252 O276 2.385 1_554 S
Mn252 O277 2.209 1_554 S
Mn252 O278 2.094 . S
Mn253 O258 2.121 . S
Mn253 N260 2.257 1_554 S
Mn253 N269 2.282 1_554 S
Mn253 O277 2.215 1_554 S
Mn253 O279 2.117 . S
C254 O276 1.234 . S
C254 O277 1.283 . S
C255 O267 1.281 . S
C255 O268 1.236 . S
C256 O278 1.240 . S
C256 O279 1.264 . S
O257 Mn252 2.095 . S
O257 C266 1.250 . S
O258 Mn253 2.121 . S
O258 C266 1.258 . S
C259 N260 1.326 1_554 S
C259 C263 1.460 1_554 S
C259 H265 0.929 . S
N260 Mn253 2.257 1_556 S
N260 C259 1.326 1_556 S
N260 C264 1.362 . S
C261 C262 1.258 . S
C261 C264 1.431 . S
C261 C281 1.449 . S
C262 C261 1.258 . S
C262 C263 1.477 . S
C262 H282 0.931 . S
C263 C259 1.460 1_556 S
C263 C262 1.477 . S
C263 H283 0.930 1_556 S
C264 N260 1.362 . S
C264 C261 1.431 . S
C264 C274 1.476 . S
H265 C259 0.929 . S
C266 O257 1.250 . S
C266 O258 1.258 . S
O267 Mn252 2.162 . S
O267 C255 1.281 . S
O268 Mn252 2.297 . S
O268 C255 1.236 . S
N269 Mn253 2.282 1_556 S
N269 C270 1.328 . S
N269 C274 1.318 . S
C270 N269 1.328 . S
C270 C271 1.457 . S
C270 H275 0.929 . S
C271 C270 1.457 . S
C271 C272 1.291 . S
C271 H284 0.931 . S
C272 C271 1.291 . S
C272 C273 1.373 . S
C272 H285 0.929 . S
C273 C272 1.373 . S
C273 C274 1.396 . S
C273 C280 1.403 . S
C274 C264 1.476 . S
C274 N269 1.318 . S
C274 C273 1.396 . S
H275 C270 0.929 . S
O276 Mn252 2.385 1_556 S
O276 C254 1.234 . S
O277 Mn252 2.209 1_556 S
O277 Mn253 2.215 1_556 S
O277 C254 1.283 . S
O278 Mn252 2.094 . S
O278 C256 1.240 . S
O279 Mn253 2.117 . S
O279 C256 1.264 . S
C280 C273 1.403 . S
C280 C281 1.399 . S
C280 H286 0.929 . S
C281 C261 1.449 . S
C281 C280 1.399 . S
C281 H287 0.930 . S
H282 C262 0.931 . S
H283 C263 0.930 1_554 S
H284 C271 0.931 . S
H285 C272 0.929 . S
H286 C280 0.929 . S
H287 C281 0.930 . S
C288 C289 1.369 . S
C288 C290 1.419 . S
C288 H292 0.930 . S
C289 C288 1.369 . S
C289 C298 1.429 . S
C290 C288 1.419 . S
C290 C291 1.363 . S
C290 H293 0.929 . S
C291 C290 1.363 . S
C291 C297 1.428 . S
H292 C288 0.930 . S
H293 C290 0.929 . S
S294 N295 1.613 . S
S294 N296 1.610 . S
N295 S294 1.613 . S
N295 C298 1.350 . S
N296 S294 1.610 . S
N296 C297 1.351 . S
C297 C291 1.428 . S
C297 N296 1.351 . S
C297 C298 1.434 . S
C298 C289 1.429 . S
C298 N295 1.350 . S
C298 C297 1.434 . S
C299 C300 1.369 . S
C299 C301 1.419 . S
C299 H303 0.930 . S
C300 C299 1.369 . S
C300 C309 1.429 . S
C301 C299 1.419 . S
C301 C302 1.363 . S
C301 H304 0.929 . S
C302 C301 1.363 . S
C302 C308 1.428 . S
H303 C299 0.930 . S
H304 C301 0.929 . S
S305 N306 1.613 . S
S305 N307 1.610 . S
N306 S305 1.613 . S
N306 C309 1.350 . S
N307 S305 1.610 . S
N307 C308 1.351 . S
C308 C302 1.428 . S
C308 N307 1.351 . S
C308 C309 1.434 . S
C309 C300 1.429 . S
C309 N306 1.350 . S
C309 C308 1.434 . S
C310 C311 1.369 . S
C310 C312 1.419 . S
C310 H314 0.930 . S
C311 C310 1.369 . S
C311 C320 1.429 . S
C312 C310 1.419 . S
C312 C313 1.363 . S
C312 H315 0.929 . S
C313 C312 1.363 . S
C313 C319 1.428 . S
H314 C310 0.930 . S
H315 C312 0.929 . S
S316 N317 1.613 . S
S316 N318 1.610 . S
N317 S316 1.613 . S
N317 C320 1.350 . S
N318 S316 1.610 . S
N318 C319 1.351 . S
C319 C313 1.428 . S
C319 N318 1.351 . S
C319 C320 1.434 . S
C320 C311 1.429 . S
C320 N317 1.350 . S
C320 C319 1.434 . S
C321 C322 1.369 . S
C321 C323 1.419 . S
C321 H325 0.930 . S
C322 C321 1.369 . S
C322 C331 1.429 . S
C323 C321 1.419 . S
C323 C324 1.363 . S
C323 H326 0.929 . S
C324 C323 1.363 . S
C324 C330 1.428 . S
H325 C321 0.930 . S
H326 C323 0.929 . S
S327 N328 1.613 . S
S327 N329 1.610 . S
N328 S327 1.613 . S
N328 C331 1.350 . S
N329 S327 1.610 . S
N329 C330 1.351 . S
C330 C324 1.428 . S
C330 N329 1.351 . S
C330 C331 1.434 . S
C331 C322 1.429 . S
C331 N328 1.350 . S
C331 C330 1.434 . S
C332 C333 1.369 . S
C332 C334 1.419 . S
C332 H336 0.930 . S
C333 C332 1.369 . S
C333 C342 1.429 . S
C334 C332 1.419 . S
C334 C335 1.363 . S
C334 H337 0.929 . S
C335 C334 1.363 . S
C335 C341 1.428 . S
H336 C332 0.930 . S
H337 C334 0.929 . S
S338 N339 1.613 . S
S338 N340 1.610 . S
N339 S338 1.613 . S
N339 C342 1.350 . S
N340 S338 1.610 . S
N340 C341 1.351 . S
C341 C335 1.428 . S
C341 N340 1.351 . S
C341 C342 1.434 . S
C342 C333 1.429 . S
C342 N339 1.350 . S
C342 C341 1.434 . S
C343 C344 1.369 . S
C343 C345 1.419 . S
C343 H347 0.930 . S
C344 C343 1.369 . S
C344 C353 1.429 . S
C345 C343 1.419 . S
C345 C346 1.363 . S
C345 H348 0.929 . S
C346 C345 1.363 . S
C346 C352 1.428 . S
H347 C343 0.930 . S
H348 C345 0.929 . S
S349 N350 1.613 . S
S349 N351 1.610 . S
N350 S349 1.613 . S
N350 C353 1.350 . S
N351 S349 1.610 . S
N351 C352 1.351 . S
C352 C346 1.428 . S
C352 N351 1.351 . S
C352 C353 1.434 . S
C353 C344 1.429 . S
C353 N350 1.350 . S
C353 C352 1.434 . S
C354 C355 1.369 . S
C354 C356 1.419 . S
C354 H358 0.930 . S
C355 C354 1.369 . S
C355 C364 1.429 . S
C356 C354 1.419 . S
C356 C357 1.363 . S
C356 H359 0.929 . S
C357 C356 1.363 . S
C357 C363 1.428 . S
H358 C354 0.930 . S
H359 C356 0.929 . S
S360 N361 1.613 . S
S360 N362 1.610 . S
N361 S360 1.613 . S
N361 C364 1.350 . S
N362 S360 1.610 . S
N362 C363 1.351 . S
C363 C357 1.428 . S
C363 N362 1.351 . S
C363 C364 1.434 . S
C364 C355 1.429 . S
C364 N361 1.350 . S
C364 C363 1.434 . S
C365 C366 1.369 . S
C365 C367 1.419 . S
C365 H369 0.930 . S
C366 C365 1.369 . S
C366 C375 1.429 . S
C367 C365 1.419 . S
C367 C368 1.363 . S
C367 H370 0.929 . S
C368 C367 1.363 . S
C368 C374 1.428 . S
H369 C365 0.930 . S
H370 C367 0.929 . S
S371 N372 1.613 . S
S371 N373 1.610 . S
N372 S371 1.613 . S
N372 C375 1.350 . S
N373 S371 1.610 . S
N373 C374 1.351 . S
C374 C368 1.428 . S
C374 N373 1.351 . S
C374 C375 1.434 . S
C375 C366 1.429 . S
C375 N372 1.350 . S
C375 C374 1.434 . S
C376 C377 1.369 1_556 S
C376 C378 1.419 1_655 S
C376 H380 0.930 . S
C377 C376 1.369 1_554 S
C377 C386 1.429 . S
C378 C376 1.419 1_455 S
C378 C379 1.363 1_556 S
C378 H381 0.929 . S
C379 C378 1.363 1_554 S
C379 C385 1.428 . S
H380 C376 0.930 . S
H381 C378 0.929 . S
S382 N383 1.613 1_455 S
S382 N384 1.610 . S
N383 S382 1.613 1_655 S
N383 C386 1.350 . S
N384 S382 1.610 . S
N384 C385 1.351 . S
C385 C379 1.428 . S
C385 N384 1.351 . S
C385 C386 1.434 1_455 S
C386 C377 1.429 . S
C386 N383 1.350 . S
C386 C385 1.434 1_655 S
C387 C388 1.369 . S
C387 C389 1.419 1_565 S
C387 H391 0.930 . S
C388 C387 1.369 . S
C388 C397 1.429 . S
C389 C387 1.419 1_545 S
C389 C390 1.363 . S
C389 H392 0.929 . S
C390 C389 1.363 . S
C390 C396 1.428 . S
H391 C387 0.930 . S
H392 C389 0.929 . S
S393 N394 1.613 1_545 S
S393 N395 1.610 . S
N394 S393 1.613 1_565 S
N394 C397 1.350 . S
N395 S393 1.610 . S
N395 C396 1.351 . S
C396 C390 1.428 . S
C396 N395 1.351 . S
C396 C397 1.434 1_545 S
C397 C388 1.429 . S
C397 N394 1.350 . S
C397 C396 1.434 1_565 S
C398 C399 1.369 . S
C398 C400 1.419 1_455 S
C398 H402 0.930 . S
C399 C398 1.369 . S
C399 C408 1.429 . S
C400 C398 1.419 1_655 S
C400 C401 1.363 . S
C400 H403 0.929 . S
C401 C400 1.363 . S
C401 C407 1.428 . S
H402 C398 0.930 . S
H403 C400 0.929 . S
S404 N405 1.613 . S
S404 N406 1.610 . S
N405 S404 1.613 . S
N405 C408 1.350 1_655 S
N406 S404 1.610 . S
N406 C407 1.351 . S
C407 C401 1.428 . S
C407 N406 1.351 . S
C407 C408 1.434 1_655 S
C408 C399 1.429 . S
C408 N405 1.350 1_455 S
C408 C407 1.434 1_455 S
C409 C410 1.369 1_556 S
C409 C411 1.419 1_565 S
C409 H413 0.930 . S
C410 C409 1.369 1_554 S
C410 C419 1.429 . S
C411 C409 1.419 1_545 S
C411 C412 1.363 1_556 S
C411 H414 0.929 . S
C412 C411 1.363 1_554 S
C412 C418 1.428 . S
H413 C409 0.930 . S
H414 C411 0.929 . S
S415 N416 1.613 1_545 S
S415 N417 1.610 . S
N416 S415 1.613 1_565 S
N416 C419 1.350 . S
N417 S415 1.610 . S
N417 C418 1.351 . S
C418 C412 1.428 . S
C418 N417 1.351 . S
C418 C419 1.434 1_545 S
C419 C410 1.429 . S
C419 N416 1.350 . S
C419 C418 1.434 1_565 S
C420 C421 1.369 1_556 S
C420 C422 1.419 . S
C420 H424 0.930 . S
C421 C420 1.369 1_554 S
C421 C430 1.429 . S
C422 C420 1.419 . S
C422 C423 1.363 1_556 S
C422 H425 0.929 . S
C423 C422 1.363 1_554 S
C423 C429 1.428 . S
H424 C420 0.930 . S
H425 C422 0.929 . S
S426 N427 1.613 . S
S426 N428 1.610 . S
N427 S426 1.613 . S
N427 C430 1.350 . S
N428 S426 1.610 . S
N428 C429 1.351 . S
C429 C423 1.428 . S
C429 N428 1.351 . S
C429 C430 1.434 . S
C430 C421 1.429 . S
C430 N427 1.350 . S
C430 C429 1.434 . S
C431 C432 1.369 . S
C431 C433 1.419 . S
C431 H435 0.930 . S
C432 C431 1.369 . S
C432 C441 1.429 . S
C433 C431 1.419 . S
C433 C434 1.363 . S
C433 H436 0.929 . S
C434 C433 1.363 . S
C434 C440 1.428 . S
H435 C431 0.930 . S
H436 C433 0.929 . S
S437 N438 1.613 . S
S437 N439 1.610 . S
N438 S437 1.613 . S
N438 C441 1.350 . S
N439 S437 1.610 . S
N439 C440 1.351 . S
C440 C434 1.428 . S
C440 N439 1.351 . S
C440 C441 1.434 . S
C441 C432 1.429 . S
C441 N438 1.350 . S
C441 C440 1.434 . S
C442 C443 1.369 . S
C442 C444 1.419 . S
C442 H446 0.930 . S
C443 C442 1.369 . S
C443 C452 1.429 1_554 S
C444 C442 1.419 . S
C444 C445 1.363 . S
C444 H447 0.929 . S
C445 C444 1.363 . S
C445 C451 1.428 1_554 S
H446 C442 0.930 . S
H447 C444 0.929 . S
S448 N449 1.613 . S
S448 N450 1.610 . S
N449 S448 1.613 . S
N449 C452 1.350 . S
N450 S448 1.610 . S
N450 C451 1.351 . S
C451 C445 1.428 1_556 S
C451 N450 1.351 . S
C451 C452 1.434 . S
C452 C443 1.429 1_556 S
C452 N449 1.350 . S
C452 C451 1.434 . S
C453 C454 1.369 . S
C453 C455 1.419 . S
C453 H457 0.930 . S
C454 C453 1.369 . S
C454 C463 1.429 . S
C455 C453 1.419 . S
C455 C456 1.363 . S
C455 H458 0.929 . S
C456 C455 1.363 . S
C456 C462 1.428 . S
H457 C453 0.930 . S
H458 C455 0.929 . S
S459 N460 1.613 . S
S459 N461 1.610 . S
N460 S459 1.613 . S
N460 C463 1.350 . S
N461 S459 1.610 . S
N461 C462 1.351 . S
C462 C456 1.428 . S
C462 N461 1.351 . S
C462 C463 1.434 . S
C463 C454 1.429 . S
C463 N460 1.350 . S
C463 C462 1.434 . S
C289 C3 1.179 . S
C291 C147 1.188 . S
C300 C38 1.515 . S
C302 C182 1.504 . S
C311 C219 1.186 . S
C313 C75 1.182 . S
C322 C254 1.503 . S
C324 C110 1.514 . S
C333 C220 1.168 . S
C335 C76 1.158 . S
C344 C266 1.636 . S
C346 C122 1.640 . S
C355 C4 1.156 . S
C357 C148 1.166 . S
C366 C50 1.639 . S
C368 C194 1.638 . S
C377 C74 1.387 . S
C379 C2 1.377 . S
C388 C111 1.471 . S
C390 C39 1.465 . S
C399 C146 1.387 . S
C401 C218 1.377 . S
C410 C255 1.467 . S
C412 C183 1.466 . S
C421 C14 1.322 1_554 S
C423 C184 1.331 . S
C432 C230 1.319 . S
C434 C40 1.332 . S
C443 C86 1.315 1_554 S
C445 C256 1.327 . S
C454 C112 1.330 . S
C456 C158 1.316 . S
