# Generated by pormake.
# Topology pcl, (4)-cn, num edge types: 1
# Building blocks:
#     Node 0, Type 0, BuildingBlock: GALJAG_clean_sbu_0, # of connection points: 4
#     Node 1, Type 0, BuildingBlock: GALJAG_clean_sbu_0, # of connection points: 4
#     Node 2, Type 0, BuildingBlock: GALJAG_clean_sbu_0, # of connection points: 4
#     Node 3, Type 0, BuildingBlock: GALJAG_clean_sbu_0, # of connection points: 4
#     Node 4, Type 0, BuildingBlock: GALJAG_clean_sbu_0, # of connection points: 4
#     Node 5, Type 0, BuildingBlock: GALJAG_clean_sbu_0, # of connection points: 4
#     Node 6, Type 0, BuildingBlock: GALJAG_clean_sbu_0, # of connection points: 4
#     Node 7, Type 0, BuildingBlock: GALJAG_clean_sbu_0, # of connection points: 4
#     Node 8, Type 0, BuildingBlock: GALJAG_clean_sbu_0, # of connection points: 4
#     Node 9, Type 0, BuildingBlock: GALJAG_clean_sbu_0, # of connection points: 4
#     Node 10, Type 0, BuildingBlock: GALJAG_clean_sbu_0, # of connection points: 4
#     Node 11, Type 0, BuildingBlock: GALJAG_clean_sbu_0, # of connection points: 4
#     Node 12, Type 0, BuildingBlock: GALJAG_clean_sbu_0, # of connection points: 4
#     Node 13, Type 0, BuildingBlock: GALJAG_clean_sbu_0, # of connection points: 4
#     Node 14, Type 0, BuildingBlock: GALJAG_clean_sbu_0, # of connection points: 4
#     Node 15, Type 0, BuildingBlock: GALJAG_clean_sbu_0, # of connection points: 4
#     Edge 16, Type (0, 0), BuildingBlock: EYOCIG_clean_linker_4, # of connection points: 2
#     Edge 17, Type (0, 0), BuildingBlock: EYOCIG_clean_linker_4, # of connection points: 2
#     Edge 18, Type (0, 0), BuildingBlock: EYOCIG_clean_linker_4, # of connection points: 2
#     Edge 19, Type (0, 0), BuildingBlock: EYOCIG_clean_linker_4, # of connection points: 2
#     Edge 20, Type (0, 0), BuildingBlock: EYOCIG_clean_linker_4, # of connection points: 2
#     Edge 21, Type (0, 0), BuildingBlock: EYOCIG_clean_linker_4, # of connection points: 2
#     Edge 22, Type (0, 0), BuildingBlock: EYOCIG_clean_linker_4, # of connection points: 2
#     Edge 23, Type (0, 0), BuildingBlock: EYOCIG_clean_linker_4, # of connection points: 2
#     Edge 24, Type (0, 0), BuildingBlock: EYOCIG_clean_linker_4, # of connection points: 2
#     Edge 25, Type (0, 0), BuildingBlock: EYOCIG_clean_linker_4, # of connection points: 2
#     Edge 26, Type (0, 0), BuildingBlock: EYOCIG_clean_linker_4, # of connection points: 2
#     Edge 27, Type (0, 0), BuildingBlock: EYOCIG_clean_linker_4, # of connection points: 2
#     Edge 28, Type (0, 0), BuildingBlock: EYOCIG_clean_linker_4, # of connection points: 2
#     Edge 29, Type (0, 0), BuildingBlock: EYOCIG_clean_linker_4, # of connection points: 2
#     Edge 30, Type (0, 0), BuildingBlock: EYOCIG_clean_linker_4, # of connection points: 2
#     Edge 31, Type (0, 0), BuildingBlock: EYOCIG_clean_linker_4, # of connection points: 2
#     Edge 32, Type (0, 0), BuildingBlock: EYOCIG_clean_linker_4, # of connection points: 2
#     Edge 33, Type (0, 0), BuildingBlock: EYOCIG_clean_linker_4, # of connection points: 2
#     Edge 34, Type (0, 0), BuildingBlock: EYOCIG_clean_linker_4, # of connection points: 2
#     Edge 35, Type (0, 0), BuildingBlock: EYOCIG_clean_linker_4, # of connection points: 2
#     Edge 36, Type (0, 0), BuildingBlock: EYOCIG_clean_linker_4, # of connection points: 2
#     Edge 37, Type (0, 0), BuildingBlock: EYOCIG_clean_linker_4, # of connection points: 2
#     Edge 38, Type (0, 0), BuildingBlock: EYOCIG_clean_linker_4, # of connection points: 2
#     Edge 39, Type (0, 0), BuildingBlock: EYOCIG_clean_linker_4, # of connection points: 2
#     Edge 40, Type (0, 0), BuildingBlock: EYOCIG_clean_linker_4, # of connection points: 2
#     Edge 41, Type (0, 0), BuildingBlock: EYOCIG_clean_linker_4, # of connection points: 2
#     Edge 42, Type (0, 0), BuildingBlock: EYOCIG_clean_linker_4, # of connection points: 2
#     Edge 43, Type (0, 0), BuildingBlock: EYOCIG_clean_linker_4, # of connection points: 2
#     Edge 44, Type (0, 0), BuildingBlock: EYOCIG_clean_linker_4, # of connection points: 2
#     Edge 45, Type (0, 0), BuildingBlock: EYOCIG_clean_linker_4, # of connection points: 2
#     Edge 46, Type (0, 0), BuildingBlock: EYOCIG_clean_linker_4, # of connection points: 2
#     Edge 47, Type (0, 0), BuildingBlock: EYOCIG_clean_linker_4, # of connection points: 2
# Relax obj value: 0.122
# Max RMSD: 0.108
# Mean RMSD: 0.092
data_MOF--net-pcl--node1-GALJAG_clean_sbu_0--edge1-EYOCIG_clean_linker_4
_symmetry_space_group_name_H-M    P1
_symmetry_Int_Tables_number       1
_symmetry_cell_setting            triclinic
loop_
_symmetry_equiv_pos_as_xyz
'x, y, z'
_cell_length_a     42.165907
_cell_length_b     31.637162
_cell_length_c     34.517605
_cell_angle_alpha  89.997771
_cell_angle_beta   89.992744
_cell_angle_gamma 89.99555
loop_
_atom_site_label
_atom_site_type_symbol
_atom_site_fract_x
_atom_site_fract_y
_atom_site_fract_z
_atom_type_partial_charge
In0 In 0.10946 0.32857 0.07928 0.0
O1 O 0.12648 0.26996 0.04626 0.0
O2 O 0.1605 0.31708 0.06133 0.0
C3 C 0.04611 0.31959 0.08031 0.0
C4 C 0.12751 0.31549 0.15321 0.0
C5 C 0.1092 0.40303 0.04005 0.0
O6 O 0.06353 0.29606 0.0598 0.0
O7 O 0.06048 0.34596 0.1012 0.0
O8 O 0.11624 0.39999 0.07541 0.0
O9 O 0.10349 0.36832 0.02339 0.0
C10 C 0.15506 0.28183 0.04579 0.0
O11 O 0.13104 0.35036 0.13612 0.0
O12 O 0.11407 0.28696 0.13366 0.0
In13 In 0.88865 0.67184 0.57951 0.0
O14 O 0.87054 0.72907 0.54552 0.0
O15 O 0.83722 0.68184 0.56266 0.0
C16 C 0.95187 0.68218 0.58093 0.0
C17 C 0.8717 0.68616 0.65362 0.0
C18 C 0.88889 0.59762 0.5399 0.0
O19 O 0.93422 0.70546 0.56045 0.0
O20 O 0.93777 0.65493 0.60118 0.0
O21 O 0.88208 0.60036 0.57537 0.0
O22 O 0.89464 0.63243 0.52345 0.0
C23 C 0.84211 0.71656 0.54588 0.0
O24 O 0.868 0.65095 0.63714 0.0
O25 O 0.88452 0.7145 0.63324 0.0
In26 In 0.10949 0.67196 0.92258 0.0
O27 O 0.13075 0.65142 0.86505 0.0
O28 O 0.11352 0.71464 0.86882 0.0
C29 C 0.10921 0.59811 0.96286 0.0
C30 C 0.15518 0.71844 0.95599 0.0
C31 C 0.04618 0.68024 0.92086 0.0
O32 O 0.11643 0.60053 0.92748 0.0
O33 O 0.10333 0.63309 0.97895 0.0
O34 O 0.06332 0.70408 0.94145 0.0
O35 O 0.06082 0.65374 0.90038 0.0
C36 C 0.12684 0.68661 0.84856 0.0
O37 O 0.12657 0.73026 0.95585 0.0
O38 O 0.16062 0.68334 0.94012 0.0
In39 In 0.88855 0.32861 0.4227 0.0
O40 O 0.86727 0.34997 0.36561 0.0
O41 O 0.88447 0.28666 0.36853 0.0
C42 C 0.88864 0.40263 0.46258 0.0
C43 C 0.84296 0.28232 0.45656 0.0
C44 C 0.95182 0.31982 0.42049 0.0
O45 O 0.8815 0.39995 0.42721 0.0
O46 O 0.89468 0.3678 0.47887 0.0
O47 O 0.93469 0.29606 0.44116 0.0
O48 O 0.9372 0.34663 0.40035 0.0
C49 C 0.87126 0.3151 0.34864 0.0
O50 O 0.87155 0.27043 0.45624 0.0
O51 O 0.83746 0.31722 0.44037 0.0
In52 In 0.82521 0.6614 0.9142 0.0
O53 O 0.80385 0.712 0.95281 0.0
O54 O 0.77225 0.67221 0.92082 0.0
C55 C 0.88803 0.66977 0.92164 0.0
C56 C 0.81517 0.59166 0.95542 0.0
C57 C 0.8263 0.67643 0.83782 0.0
O58 O 0.8691 0.69802 0.93333 0.0
O59 O 0.8754 0.63706 0.90769 0.0
O60 O 0.8211 0.63997 0.85133 0.0
O61 O 0.82835 0.70566 0.86253 0.0
C62 C 0.77565 0.70072 0.94603 0.0
O63 O 0.81005 0.59317 0.9194 0.0
O64 O 0.82621 0.62475 0.97067 0.0
In65 In 0.17278 0.33889 0.414 0.0
O66 O 0.18793 0.40715 0.41844 0.0
O67 O 0.1717 0.37642 0.47007 0.0
C68 C 0.17277 0.32424 0.3375 0.0
C69 C 0.22218 0.29964 0.44627 0.0
C70 C 0.10992 0.32994 0.42093 0.0
O71 O 0.17718 0.36071 0.35134 0.0
O72 O 0.17071 0.29479 0.362 0.0
O73 O 0.12891 0.30186 0.43278 0.0
O74 O 0.12248 0.36275 0.40713 0.0
C75 C 0.18274 0.40928 0.4544 0.0
O76 O 0.19396 0.28845 0.45301 0.0
O77 O 0.22567 0.32808 0.42102 0.0
In78 In 0.82516 0.33898 0.08773 0.0
O79 O 0.81009 0.40725 0.08339 0.0
O80 O 0.82609 0.37641 0.03168 0.0
C81 C 0.8262 0.32463 0.16422 0.0
C82 C 0.7754 0.29999 0.05591 0.0
C83 C 0.88795 0.33019 0.07956 0.0
O84 O 0.82107 0.36096 0.15042 0.0
O85 O 0.82829 0.29517 0.13975 0.0
O86 O 0.86884 0.30203 0.06815 0.0
O87 O 0.87551 0.36291 0.09374 0.0
C88 C 0.81515 0.40931 0.04741 0.0
O89 O 0.80354 0.28856 0.049 0.0
O90 O 0.77217 0.32842 0.08121 0.0
In91 In 0.17263 0.66171 0.58782 0.0
O92 O 0.18737 0.59318 0.58261 0.0
O93 O 0.17187 0.62503 0.53124 0.0
C94 C 0.17171 0.67696 0.66426 0.0
C95 C 0.22263 0.70123 0.55731 0.0
C96 C 0.10992 0.67193 0.58024 0.0
O97 O 0.17637 0.64038 0.65074 0.0
O98 O 0.16986 0.70618 0.63951 0.0
O99 O 0.12936 0.69942 0.56831 0.0
O100 O 0.12197 0.63889 0.59433 0.0
C101 C 0.18257 0.59177 0.54653 0.0
O102 O 0.19453 0.71228 0.54975 0.0
O103 O 0.2257 0.67243 0.58231 0.0
In104 In 0.60945 0.82836 0.07957 0.0
O105 O 0.63035 0.84893 0.13713 0.0
O106 O 0.61343 0.78556 0.13321 0.0
C107 C 0.6092 0.9028 0.04017 0.0
C108 C 0.65584 0.78262 0.04662 0.0
C109 C 0.54616 0.81885 0.08158 0.0
O110 O 0.61626 0.89984 0.07555 0.0
O111 O 0.60335 0.86806 0.02362 0.0
O112 O 0.56348 0.7955 0.06073 0.0
O113 O 0.56061 0.8457 0.10188 0.0
C114 C 0.62652 0.81371 0.15355 0.0
O115 O 0.62729 0.77054 0.04607 0.0
O116 O 0.66084 0.81763 0.06283 0.0
In117 In 0.38852 0.17186 0.57928 0.0
O118 O 0.37053 0.22991 0.5463 0.0
O119 O 0.33716 0.18229 0.56235 0.0
C120 C 0.45177 0.18241 0.58114 0.0
C121 C 0.3703 0.18528 0.65314 0.0
C122 C 0.38933 0.09813 0.53881 0.0
O123 O 0.43415 0.20563 0.56056 0.0
O124 O 0.43762 0.15527 0.60146 0.0
O125 O 0.38241 0.10033 0.57428 0.0
O126 O 0.39478 0.13324 0.52274 0.0
C127 C 0.34205 0.21755 0.54656 0.0
O128 O 0.36723 0.15009 0.63641 0.0
O129 O 0.38345 0.21383 0.63331 0.0
In130 In 0.60934 0.17205 0.92265 0.0
O131 O 0.63014 0.15105 0.86504 0.0
O132 O 0.61331 0.21447 0.86877 0.0
C133 C 0.60906 0.09798 0.96274 0.0
C134 C 0.65566 0.21809 0.95533 0.0
C135 C 0.54611 0.18217 0.92103 0.0
O136 O 0.61599 0.10052 0.92729 0.0
O137 O 0.60333 0.13294 0.97897 0.0
O138 O 0.56367 0.20542 0.94165 0.0
O139 O 0.56029 0.15507 0.90072 0.0
C140 C 0.62632 0.1862 0.84848 0.0
O141 O 0.62711 0.23009 0.95577 0.0
O142 O 0.66075 0.18299 0.93931 0.0
In143 In 0.38851 0.82875 0.42243 0.0
O144 O 0.37081 0.77109 0.45626 0.0
O145 O 0.33735 0.81863 0.4403 0.0
C146 C 0.45183 0.81953 0.42149 0.0
C147 C 0.37032 0.81511 0.34864 0.0
C148 C 0.38912 0.9032 0.46154 0.0
O149 O 0.43434 0.79593 0.44186 0.0
O150 O 0.43752 0.84602 0.40065 0.0
O151 O 0.38207 0.90021 0.42617 0.0
O152 O 0.39471 0.86848 0.47824 0.0
C153 C 0.34239 0.78367 0.45657 0.0
O154 O 0.3671 0.8502 0.36543 0.0
O155 O 0.38358 0.78658 0.36841 0.0
In156 In 0.32524 0.16182 0.91388 0.0
O157 O 0.31116 0.09319 0.9183 0.0
O158 O 0.32686 0.1244 0.96995 0.0
C159 C 0.32529 0.17713 0.83745 0.0
C160 C 0.2749 0.19963 0.94555 0.0
C161 C 0.38798 0.17237 0.92144 0.0
O162 O 0.32125 0.14041 0.85092 0.0
O163 O 0.32711 0.20629 0.86226 0.0
O164 O 0.3685 0.19989 0.93323 0.0
O165 O 0.37596 0.13933 0.90734 0.0
C166 C 0.31642 0.09121 0.95425 0.0
O167 O 0.30289 0.21148 0.95277 0.0
O168 O 0.27209 0.17115 0.92022 0.0
In169 In 0.6727 0.83865 0.41409 0.0
O170 O 0.68736 0.90702 0.41987 0.0
O171 O 0.67148 0.87463 0.47086 0.0
C172 C 0.67152 0.82313 0.33779 0.0
C173 C 0.7225 0.79886 0.4448 0.0
C174 C 0.60995 0.83022 0.42215 0.0
O175 O 0.67654 0.85977 0.35101 0.0
O176 O 0.66951 0.79414 0.36273 0.0
O177 O 0.62898 0.80207 0.43381 0.0
O178 O 0.62245 0.86275 0.40768 0.0
C179 C 0.68205 0.90813 0.45587 0.0
O180 O 0.69434 0.78765 0.45191 0.0
O181 O 0.72574 0.82793 0.42009 0.0
In182 In 0.32517 0.83865 0.08792 0.0
O183 O 0.31113 0.9072 0.08215 0.0
O184 O 0.32689 0.87469 0.03117 0.0
C185 C 0.32513 0.8238 0.16436 0.0
C186 C 0.2749 0.8006 0.05645 0.0
C187 C 0.38798 0.82872 0.08122 0.0
O188 O 0.32096 0.86042 0.1507 0.0
O189 O 0.327 0.79446 0.13973 0.0
O190 O 0.36877 0.80088 0.06938 0.0
O191 O 0.37566 0.86178 0.0949 0.0
C192 C 0.31642 0.90826 0.04615 0.0
O193 O 0.30291 0.78864 0.04941 0.0
O194 O 0.27204 0.82926 0.08163 0.0
In195 In 0.67263 0.16181 0.58789 0.0
O196 O 0.68687 0.09321 0.58359 0.0
O197 O 0.67118 0.12429 0.53186 0.0
C198 C 0.67137 0.17686 0.66423 0.0
C199 C 0.72317 0.20014 0.5572 0.0
C200 C 0.60993 0.1723 0.58008 0.0
O201 O 0.6762 0.14032 0.65072 0.0
O202 O 0.66963 0.20614 0.63954 0.0
O203 O 0.62944 0.19978 0.56827 0.0
O204 O 0.62192 0.13924 0.59419 0.0
C205 C 0.68165 0.09115 0.54764 0.0
O206 O 0.6952 0.21168 0.54948 0.0
O207 O 0.72584 0.17156 0.58246 0.0
C208 C 0.98358 0.31979 0.07785 0.0
C209 C 0.01215 0.31882 0.07825 0.0
C210 C 0.95018 0.32232 0.07759 0.0
C211 C 0.92169 0.32502 0.07811 0.0
C212 C 0.0144 0.68434 0.58003 0.0
C213 C 0.98583 0.68432 0.57968 0.0
C214 C 0.04782 0.68185 0.57977 0.0
C215 C 0.07627 0.67828 0.57957 0.0
C216 C 0.95026 0.67762 0.92259 0.0
C217 C 0.92178 0.67487 0.92251 0.0
C218 C 0.98365 0.6801 0.92231 0.0
C219 C 0.01221 0.68098 0.9223 0.0
C220 C 0.04772 0.32163 0.42126 0.0
C221 C 0.07619 0.32456 0.42147 0.0
C222 C 0.01433 0.31921 0.42104 0.0
C223 C 0.98578 0.31865 0.42145 0.0
C224 C 0.45017 0.81966 0.08112 0.0
C225 C 0.4217 0.82285 0.08077 0.0
C226 C 0.4836 0.81733 0.0813 0.0
C227 C 0.51217 0.81715 0.08073 0.0
C228 C 0.54778 0.18203 0.57953 0.0
C229 C 0.57626 0.17864 0.57933 0.0
C230 C 0.51435 0.1844 0.57994 0.0
C231 C 0.48576 0.1844 0.57977 0.0
C232 C 0.48355 0.18427 0.92193 0.0
C233 C 0.51213 0.18422 0.92224 0.0
C234 C 0.45013 0.18197 0.92218 0.0
C235 C 0.42166 0.17862 0.92228 0.0
C236 C 0.51434 0.8198 0.42406 0.0
C237 C 0.48578 0.81873 0.42365 0.0
C238 C 0.54773 0.82246 0.42426 0.0
C239 C 0.57621 0.82519 0.42366 0.0
C240 C 0.14826 0.30846 0.22503 0.0
C241 C 0.13823 0.30933 0.19231 0.0
C242 C 0.15884 0.31207 0.26372 0.0
C243 C 0.1652 0.31767 0.2974 0.0
C244 C 0.85241 0.69356 0.72597 0.0
C245 C 0.86183 0.69284 0.69298 0.0
C246 C 0.84175 0.68936 0.76459 0.0
C247 C 0.83466 0.6832 0.79797 0.0
C248 C 0.14652 0.6949 0.77635 0.0
C249 C 0.13693 0.69363 0.80928 0.0
C250 C 0.15707 0.69082 0.73764 0.0
C251 C 0.16379 0.68406 0.70422 0.0
C252 C 0.84136 0.31258 0.23763 0.0
C253 C 0.83442 0.31829 0.20415 0.0
C254 C 0.85195 0.30847 0.27627 0.0
C255 C 0.86139 0.30894 0.30924 0.0
C256 C 0.65658 0.81006 0.26444 0.0
C257 C 0.66338 0.81588 0.29795 0.0
C258 C 0.64602 0.80606 0.22576 0.0
C259 C 0.63648 0.80685 0.19283 0.0
C260 C 0.3387 0.1896 0.76355 0.0
C261 C 0.33261 0.18438 0.79736 0.0
C262 C 0.34923 0.19297 0.72479 0.0
C263 C 0.35938 0.19184 0.69212 0.0
C264 C 0.64567 0.19397 0.77618 0.0
C265 C 0.63623 0.19297 0.80915 0.0
C266 C 0.65622 0.18997 0.7375 0.0
C267 C 0.66316 0.18376 0.70409 0.0
C268 C 0.33873 0.81156 0.23824 0.0
C269 C 0.33254 0.81687 0.20447 0.0
C270 C 0.34928 0.80799 0.27697 0.0
C271 C 0.35945 0.80876 0.30963 0.0
C272 C 0.22655 0.22605 0.98741 0.0
C273 C 0.24845 0.21375 0.9681 0.0
C274 C 0.20112 0.24203 0.00943 0.0
C275 C 0.17939 0.25911 0.0257 0.0
C276 C 0.79563 0.75413 0.50838 0.0
C277 C 0.8174 0.7378 0.52522 0.0
C278 C 0.77039 0.77018 0.48613 0.0
C279 C 0.74869 0.7835 0.46707 0.0
C280 C 0.22667 0.77421 0.01438 0.0
C281 C 0.24852 0.78649 0.03378 0.0
C282 C 0.20128 0.75821 0.9923 0.0
C283 C 0.17956 0.74108 0.97604 0.0
C284 C 0.77178 0.22739 0.51626 0.0
C285 C 0.74979 0.21467 0.53518 0.0
C286 C 0.79713 0.24338 0.49411 0.0
C287 C 0.81873 0.26015 0.47729 0.0
C288 C 0.70265 0.74352 0.01103 0.0
C289 C 0.68065 0.76041 0.02696 0.0
C290 C 0.72807 0.72764 0.98893 0.0
C291 C 0.74966 0.71517 0.96919 0.0
C292 C 0.29518 0.25659 0.51107 0.0
C293 C 0.31721 0.23976 0.52696 0.0
C294 C 0.26974 0.27249 0.48905 0.0
C295 C 0.24815 0.28505 0.46938 0.0
C296 C 0.72771 0.2734 0.01304 0.0
C297 C 0.74929 0.28579 0.03282 0.0
C298 C 0.70232 0.25749 0.99092 0.0
C299 C 0.68038 0.24048 0.97499 0.0
C300 C 0.27081 0.72981 0.51641 0.0
C301 C 0.249 0.71651 0.5353 0.0
C302 C 0.29612 0.74585 0.49425 0.0
C303 C 0.31786 0.76216 0.47735 0.0
C304 C 0.10535 0.52217 0.9954 0.0
C305 C 0.10665 0.55779 0.98248 0.0
C306 C 0.10536 0.4795 0.00862 0.0
C307 C 0.10667 0.4437 0.0211 0.0
C308 C 0.89212 0.52143 0.50783 0.0
C309 C 0.89108 0.55714 0.52057 0.0
C310 C 0.89208 0.47878 0.49465 0.0
C311 C 0.89097 0.44308 0.48193 0.0
C312 C 0.80661 0.48078 0.01055 0.0
C313 C 0.81077 0.4476 0.02648 0.0
C314 C 0.80661 0.52077 0.99321 0.0
C315 C 0.81079 0.55372 0.9769 0.0
C316 C 0.19121 0.48083 0.49127 0.0
C317 C 0.18708 0.44763 0.47532 0.0
C318 C 0.19118 0.52084 0.50866 0.0
C319 C 0.18698 0.55381 0.52499 0.0
C320 C 0.60557 0.02191 0.99518 0.0
C321 C 0.60671 0.05758 0.9823 0.0
C322 C 0.6056 0.97923 0.00845 0.0
C323 C 0.6068 0.94345 0.02107 0.0
C324 C 0.39316 0.97963 0.49297 0.0
C325 C 0.39176 0.94384 0.48049 0.0
C326 C 0.39322 0.02228 0.50615 0.0
C327 C 0.39191 0.0579 0.51907 0.0
C328 C 0.30927 0.97927 0.00812 0.0
C329 C 0.31284 0.94617 0.02442 0.0
C330 C 0.30927 0.01934 0.99093 0.0
C331 C 0.31281 0.05273 0.97513 0.0
C332 C 0.68896 0.01922 0.51111 0.0
C333 C 0.68535 0.05264 0.52683 0.0
C334 C 0.68907 0.97914 0.49394 0.0
C335 C 0.68557 0.94607 0.47759 0.0
loop_
_geom_bond_atom_site_label_1
_geom_bond_atom_site_label_2
_geom_bond_distance
_geom_bond_site_symmetry_2
_ccdc_geom_bond_type
In0 O1 2.294 . S
In0 O2 2.326 . S
In0 O6 2.266 . S
In0 O7 2.326 . S
In0 O8 2.266 . S
In0 O9 2.326 . S
In0 O11 2.294 . S
In0 O12 2.326 . S
O1 In0 2.294 . S
O1 C10 1.240 . S
O2 In0 2.326 . S
O2 C10 1.252 . S
C3 O6 1.252 . S
C3 O7 1.260 . S
C4 O11 1.240 . S
C4 O12 1.252 . S
C5 O8 1.252 . S
C5 O9 1.260 . S
O6 In0 2.266 . S
O6 C3 1.252 . S
O7 In0 2.326 . S
O7 C3 1.260 . S
O8 In0 2.266 . S
O8 C5 1.252 . S
O9 In0 2.326 . S
O9 C5 1.260 . S
C10 O1 1.240 . S
C10 O2 1.252 . S
O11 In0 2.294 . S
O11 C4 1.240 . S
O12 In0 2.326 . S
O12 C4 1.252 . S
In13 O14 2.294 . S
In13 O15 2.326 . S
In13 O19 2.266 . S
In13 O20 2.326 . S
In13 O21 2.266 . S
In13 O22 2.326 . S
In13 O24 2.294 . S
In13 O25 2.326 . S
O14 In13 2.294 . S
O14 C23 1.240 . S
O15 In13 2.326 . S
O15 C23 1.252 . S
C16 O19 1.252 . S
C16 O20 1.260 . S
C17 O24 1.240 . S
C17 O25 1.252 . S
C18 O21 1.252 . S
C18 O22 1.260 . S
O19 In13 2.266 . S
O19 C16 1.252 . S
O20 In13 2.326 . S
O20 C16 1.260 . S
O21 In13 2.266 . S
O21 C18 1.252 . S
O22 In13 2.326 . S
O22 C18 1.260 . S
C23 O14 1.240 . S
C23 O15 1.252 . S
O24 In13 2.294 . S
O24 C17 1.240 . S
O25 In13 2.326 . S
O25 C17 1.252 . S
In26 O27 2.294 . S
In26 O28 2.326 . S
In26 O32 2.266 . S
In26 O33 2.326 . S
In26 O34 2.266 . S
In26 O35 2.326 . S
In26 O37 2.294 . S
In26 O38 2.326 . S
O27 In26 2.294 . S
O27 C36 1.240 . S
O28 In26 2.326 . S
O28 C36 1.252 . S
C29 O32 1.252 . S
C29 O33 1.260 . S
C30 O37 1.240 . S
C30 O38 1.252 . S
C31 O34 1.252 . S
C31 O35 1.260 . S
O32 In26 2.266 . S
O32 C29 1.252 . S
O33 In26 2.326 . S
O33 C29 1.260 . S
O34 In26 2.266 . S
O34 C31 1.252 . S
O35 In26 2.326 . S
O35 C31 1.260 . S
C36 O27 1.240 . S
C36 O28 1.252 . S
O37 In26 2.294 . S
O37 C30 1.240 . S
O38 In26 2.326 . S
O38 C30 1.252 . S
In39 O40 2.294 . S
In39 O41 2.326 . S
In39 O45 2.266 . S
In39 O46 2.326 . S
In39 O47 2.266 . S
In39 O48 2.326 . S
In39 O50 2.294 . S
In39 O51 2.326 . S
O40 In39 2.294 . S
O40 C49 1.240 . S
O41 In39 2.326 . S
O41 C49 1.252 . S
C42 O45 1.252 . S
C42 O46 1.260 . S
C43 O50 1.240 . S
C43 O51 1.252 . S
C44 O47 1.252 . S
C44 O48 1.260 . S
O45 In39 2.266 . S
O45 C42 1.252 . S
O46 In39 2.326 . S
O46 C42 1.260 . S
O47 In39 2.266 . S
O47 C44 1.252 . S
O48 In39 2.326 . S
O48 C44 1.260 . S
C49 O40 1.240 . S
C49 O41 1.252 . S
O50 In39 2.294 . S
O50 C43 1.240 . S
O51 In39 2.326 . S
O51 C43 1.252 . S
In52 O53 2.294 . S
In52 O54 2.326 . S
In52 O58 2.266 . S
In52 O59 2.326 . S
In52 O60 2.266 . S
In52 O61 2.326 . S
In52 O63 2.294 . S
In52 O64 2.326 . S
O53 In52 2.294 . S
O53 C62 1.240 . S
O54 In52 2.326 . S
O54 C62 1.252 . S
C55 O58 1.252 . S
C55 O59 1.260 . S
C56 O63 1.240 . S
C56 O64 1.252 . S
C57 O60 1.252 . S
C57 O61 1.260 . S
O58 In52 2.266 . S
O58 C55 1.252 . S
O59 In52 2.326 . S
O59 C55 1.260 . S
O60 In52 2.266 . S
O60 C57 1.252 . S
O61 In52 2.326 . S
O61 C57 1.260 . S
C62 O53 1.240 . S
C62 O54 1.252 . S
O63 In52 2.294 . S
O63 C56 1.240 . S
O64 In52 2.326 . S
O64 C56 1.252 . S
In65 O66 2.294 . S
In65 O67 2.326 . S
In65 O71 2.266 . S
In65 O72 2.326 . S
In65 O73 2.266 . S
In65 O74 2.326 . S
In65 O76 2.294 . S
In65 O77 2.326 . S
O66 In65 2.294 . S
O66 C75 1.240 . S
O67 In65 2.326 . S
O67 C75 1.252 . S
C68 O71 1.252 . S
C68 O72 1.260 . S
C69 O76 1.240 . S
C69 O77 1.252 . S
C70 O73 1.252 . S
C70 O74 1.260 . S
O71 In65 2.266 . S
O71 C68 1.252 . S
O72 In65 2.326 . S
O72 C68 1.260 . S
O73 In65 2.266 . S
O73 C70 1.252 . S
O74 In65 2.326 . S
O74 C70 1.260 . S
C75 O66 1.240 . S
C75 O67 1.252 . S
O76 In65 2.294 . S
O76 C69 1.240 . S
O77 In65 2.326 . S
O77 C69 1.252 . S
In78 O79 2.294 . S
In78 O80 2.326 . S
In78 O84 2.266 . S
In78 O85 2.326 . S
In78 O86 2.266 . S
In78 O87 2.326 . S
In78 O89 2.294 . S
In78 O90 2.326 . S
O79 In78 2.294 . S
O79 C88 1.240 . S
O80 In78 2.326 . S
O80 C88 1.252 . S
C81 O84 1.252 . S
C81 O85 1.260 . S
C82 O89 1.240 . S
C82 O90 1.252 . S
C83 O86 1.252 . S
C83 O87 1.260 . S
O84 In78 2.266 . S
O84 C81 1.252 . S
O85 In78 2.326 . S
O85 C81 1.260 . S
O86 In78 2.266 . S
O86 C83 1.252 . S
O87 In78 2.326 . S
O87 C83 1.260 . S
C88 O79 1.240 . S
C88 O80 1.252 . S
O89 In78 2.294 . S
O89 C82 1.240 . S
O90 In78 2.326 . S
O90 C82 1.252 . S
In91 O92 2.294 . S
In91 O93 2.326 . S
In91 O97 2.266 . S
In91 O98 2.326 . S
In91 O99 2.266 . S
In91 O100 2.326 . S
In91 O102 2.294 . S
In91 O103 2.326 . S
O92 In91 2.294 . S
O92 C101 1.240 . S
O93 In91 2.326 . S
O93 C101 1.252 . S
C94 O97 1.252 . S
C94 O98 1.260 . S
C95 O102 1.240 . S
C95 O103 1.252 . S
C96 O99 1.252 . S
C96 O100 1.260 . S
O97 In91 2.266 . S
O97 C94 1.252 . S
O98 In91 2.326 . S
O98 C94 1.260 . S
O99 In91 2.266 . S
O99 C96 1.252 . S
O100 In91 2.326 . S
O100 C96 1.260 . S
C101 O92 1.240 . S
C101 O93 1.252 . S
O102 In91 2.294 . S
O102 C95 1.240 . S
O103 In91 2.326 . S
O103 C95 1.252 . S
In104 O105 2.294 . S
In104 O106 2.326 . S
In104 O110 2.266 . S
In104 O111 2.326 . S
In104 O112 2.266 . S
In104 O113 2.326 . S
In104 O115 2.294 . S
In104 O116 2.326 . S
O105 In104 2.294 . S
O105 C114 1.240 . S
O106 In104 2.326 . S
O106 C114 1.252 . S
C107 O110 1.252 . S
C107 O111 1.260 . S
C108 O115 1.240 . S
C108 O116 1.252 . S
C109 O112 1.252 . S
C109 O113 1.260 . S
O110 In104 2.266 . S
O110 C107 1.252 . S
O111 In104 2.326 . S
O111 C107 1.260 . S
O112 In104 2.266 . S
O112 C109 1.252 . S
O113 In104 2.326 . S
O113 C109 1.260 . S
C114 O105 1.240 . S
C114 O106 1.252 . S
O115 In104 2.294 . S
O115 C108 1.240 . S
O116 In104 2.326 . S
O116 C108 1.252 . S
In117 O118 2.294 . S
In117 O119 2.326 . S
In117 O123 2.266 . S
In117 O124 2.326 . S
In117 O125 2.266 . S
In117 O126 2.326 . S
In117 O128 2.294 . S
In117 O129 2.326 . S
O118 In117 2.294 . S
O118 C127 1.240 . S
O119 In117 2.326 . S
O119 C127 1.252 . S
C120 O123 1.252 . S
C120 O124 1.260 . S
C121 O128 1.240 . S
C121 O129 1.252 . S
C122 O125 1.252 . S
C122 O126 1.260 . S
O123 In117 2.266 . S
O123 C120 1.252 . S
O124 In117 2.326 . S
O124 C120 1.260 . S
O125 In117 2.266 . S
O125 C122 1.252 . S
O126 In117 2.326 . S
O126 C122 1.260 . S
C127 O118 1.240 . S
C127 O119 1.252 . S
O128 In117 2.294 . S
O128 C121 1.240 . S
O129 In117 2.326 . S
O129 C121 1.252 . S
In130 O131 2.294 . S
In130 O132 2.326 . S
In130 O136 2.266 . S
In130 O137 2.326 . S
In130 O138 2.266 . S
In130 O139 2.326 . S
In130 O141 2.294 . S
In130 O142 2.326 . S
O131 In130 2.294 . S
O131 C140 1.240 . S
O132 In130 2.326 . S
O132 C140 1.252 . S
C133 O136 1.252 . S
C133 O137 1.260 . S
C134 O141 1.240 . S
C134 O142 1.252 . S
C135 O138 1.252 . S
C135 O139 1.260 . S
O136 In130 2.266 . S
O136 C133 1.252 . S
O137 In130 2.326 . S
O137 C133 1.260 . S
O138 In130 2.266 . S
O138 C135 1.252 . S
O139 In130 2.326 . S
O139 C135 1.260 . S
C140 O131 1.240 . S
C140 O132 1.252 . S
O141 In130 2.294 . S
O141 C134 1.240 . S
O142 In130 2.326 . S
O142 C134 1.252 . S
In143 O144 2.294 . S
In143 O145 2.326 . S
In143 O149 2.266 . S
In143 O150 2.326 . S
In143 O151 2.266 . S
In143 O152 2.326 . S
In143 O154 2.294 . S
In143 O155 2.326 . S
O144 In143 2.294 . S
O144 C153 1.240 . S
O145 In143 2.326 . S
O145 C153 1.252 . S
C146 O149 1.252 . S
C146 O150 1.260 . S
C147 O154 1.240 . S
C147 O155 1.252 . S
C148 O151 1.252 . S
C148 O152 1.260 . S
O149 In143 2.266 . S
O149 C146 1.252 . S
O150 In143 2.326 . S
O150 C146 1.260 . S
O151 In143 2.266 . S
O151 C148 1.252 . S
O152 In143 2.326 . S
O152 C148 1.260 . S
C153 O144 1.240 . S
C153 O145 1.252 . S
O154 In143 2.294 . S
O154 C147 1.240 . S
O155 In143 2.326 . S
O155 C147 1.252 . S
In156 O157 2.294 . S
In156 O158 2.326 . S
In156 O162 2.266 . S
In156 O163 2.326 . S
In156 O164 2.266 . S
In156 O165 2.326 . S
In156 O167 2.294 . S
In156 O168 2.326 . S
O157 In156 2.294 . S
O157 C166 1.240 . S
O158 In156 2.326 . S
O158 C166 1.252 . S
C159 O162 1.252 . S
C159 O163 1.260 . S
C160 O167 1.240 . S
C160 O168 1.252 . S
C161 O164 1.252 . S
C161 O165 1.260 . S
O162 In156 2.266 . S
O162 C159 1.252 . S
O163 In156 2.326 . S
O163 C159 1.260 . S
O164 In156 2.266 . S
O164 C161 1.252 . S
O165 In156 2.326 . S
O165 C161 1.260 . S
C166 O157 1.240 . S
C166 O158 1.252 . S
O167 In156 2.294 . S
O167 C160 1.240 . S
O168 In156 2.326 . S
O168 C160 1.252 . S
In169 O170 2.294 . S
In169 O171 2.326 . S
In169 O175 2.266 . S
In169 O176 2.326 . S
In169 O177 2.266 . S
In169 O178 2.326 . S
In169 O180 2.294 . S
In169 O181 2.326 . S
O170 In169 2.294 . S
O170 C179 1.240 . S
O171 In169 2.326 . S
O171 C179 1.252 . S
C172 O175 1.252 . S
C172 O176 1.260 . S
C173 O180 1.240 . S
C173 O181 1.252 . S
C174 O177 1.252 . S
C174 O178 1.260 . S
O175 In169 2.266 . S
O175 C172 1.252 . S
O176 In169 2.326 . S
O176 C172 1.260 . S
O177 In169 2.266 . S
O177 C174 1.252 . S
O178 In169 2.326 . S
O178 C174 1.260 . S
C179 O170 1.240 . S
C179 O171 1.252 . S
O180 In169 2.294 . S
O180 C173 1.240 . S
O181 In169 2.326 . S
O181 C173 1.252 . S
In182 O183 2.294 . S
In182 O184 2.326 . S
In182 O188 2.266 . S
In182 O189 2.326 . S
In182 O190 2.266 . S
In182 O191 2.326 . S
In182 O193 2.294 . S
In182 O194 2.326 . S
O183 In182 2.294 . S
O183 C192 1.240 . S
O184 In182 2.326 . S
O184 C192 1.252 . S
C185 O188 1.252 . S
C185 O189 1.260 . S
C186 O193 1.240 . S
C186 O194 1.252 . S
C187 O190 1.252 . S
C187 O191 1.260 . S
O188 In182 2.266 . S
O188 C185 1.252 . S
O189 In182 2.326 . S
O189 C185 1.260 . S
O190 In182 2.266 . S
O190 C187 1.252 . S
O191 In182 2.326 . S
O191 C187 1.260 . S
C192 O183 1.240 . S
C192 O184 1.252 . S
O193 In182 2.294 . S
O193 C186 1.240 . S
O194 In182 2.326 . S
O194 C186 1.252 . S
In195 O196 2.294 . S
In195 O197 2.326 . S
In195 O201 2.266 . S
In195 O202 2.326 . S
In195 O203 2.266 . S
In195 O204 2.326 . S
In195 O206 2.294 . S
In195 O207 2.326 . S
O196 In195 2.294 . S
O196 C205 1.240 . S
O197 In195 2.326 . S
O197 C205 1.252 . S
C198 O201 1.252 . S
C198 O202 1.260 . S
C199 O206 1.240 . S
C199 O207 1.252 . S
C200 O203 1.252 . S
C200 O204 1.260 . S
O201 In195 2.266 . S
O201 C198 1.252 . S
O202 In195 2.326 . S
O202 C198 1.260 . S
O203 In195 2.266 . S
O203 C200 1.252 . S
O204 In195 2.326 . S
O204 C200 1.260 . S
C205 O196 1.240 . S
C205 O197 1.252 . S
O206 In195 2.294 . S
O206 C199 1.240 . S
O207 In195 2.326 . S
O207 C199 1.252 . S
C208 C209 1.170 1_655 S
C208 C210 1.380 . S
C209 C208 1.170 1_455 S
C210 C208 1.380 . S
C210 C211 1.170 . S
C211 C210 1.170 . S
C212 C213 1.170 1_455 S
C212 C214 1.380 . S
C213 C212 1.170 1_655 S
C214 C212 1.380 . S
C214 C215 1.170 . S
C215 C214 1.170 . S
C216 C217 1.170 . S
C216 C218 1.380 . S
C217 C216 1.170 . S
C218 C216 1.380 . S
C218 C219 1.170 1_655 S
C219 C218 1.170 1_455 S
C220 C221 1.170 . S
C220 C222 1.380 . S
C221 C220 1.170 . S
C222 C220 1.380 . S
C222 C223 1.170 1_455 S
C223 C222 1.170 1_655 S
C224 C225 1.170 . S
C224 C226 1.380 . S
C225 C224 1.170 . S
C226 C224 1.380 . S
C226 C227 1.170 . S
C227 C226 1.170 . S
C228 C229 1.170 . S
C228 C230 1.380 . S
C229 C228 1.170 . S
C230 C228 1.380 . S
C230 C231 1.170 . S
C231 C230 1.170 . S
C232 C233 1.170 . S
C232 C234 1.380 . S
C233 C232 1.170 . S
C234 C232 1.380 . S
C234 C235 1.170 . S
C235 C234 1.170 . S
C236 C237 1.170 . S
C236 C238 1.380 . S
C237 C236 1.170 . S
C238 C236 1.380 . S
C238 C239 1.170 . S
C239 C238 1.170 . S
C240 C241 1.170 . S
C240 C242 1.380 . S
C241 C240 1.170 . S
C242 C240 1.380 . S
C242 C243 1.170 . S
C243 C242 1.170 . S
C244 C245 1.170 . S
C244 C246 1.380 . S
C245 C244 1.170 . S
C246 C244 1.380 . S
C246 C247 1.170 . S
C247 C246 1.170 . S
C248 C249 1.170 . S
C248 C250 1.380 . S
C249 C248 1.170 . S
C250 C248 1.380 . S
C250 C251 1.170 . S
C251 C250 1.170 . S
C252 C253 1.170 . S
C252 C254 1.380 . S
C253 C252 1.170 . S
C254 C252 1.380 . S
C254 C255 1.170 . S
C255 C254 1.170 . S
C256 C257 1.170 . S
C256 C258 1.380 . S
C257 C256 1.170 . S
C258 C256 1.380 . S
C258 C259 1.170 . S
C259 C258 1.170 . S
C260 C261 1.170 . S
C260 C262 1.380 . S
C261 C260 1.170 . S
C262 C260 1.380 . S
C262 C263 1.170 . S
C263 C262 1.170 . S
C264 C265 1.170 . S
C264 C266 1.380 . S
C265 C264 1.170 . S
C266 C264 1.380 . S
C266 C267 1.170 . S
C267 C266 1.170 . S
C268 C269 1.170 . S
C268 C270 1.380 . S
C269 C268 1.170 . S
C270 C268 1.380 . S
C270 C271 1.170 . S
C271 C270 1.170 . S
C272 C273 1.170 . S
C272 C274 1.380 1_556 S
C273 C272 1.170 . S
C274 C272 1.380 1_554 S
C274 C275 1.170 . S
C275 C274 1.170 . S
C276 C277 1.170 . S
C276 C278 1.380 . S
C277 C276 1.170 . S
C278 C276 1.380 . S
C278 C279 1.170 . S
C279 C278 1.170 . S
C280 C281 1.170 . S
C280 C282 1.380 1_554 S
C281 C280 1.170 . S
C282 C280 1.380 1_556 S
C282 C283 1.170 . S
C283 C282 1.170 . S
C284 C285 1.170 . S
C284 C286 1.380 . S
C285 C284 1.170 . S
C286 C284 1.380 . S
C286 C287 1.170 . S
C287 C286 1.170 . S
C288 C289 1.170 . S
C288 C290 1.380 1_554 S
C289 C288 1.170 . S
C290 C288 1.380 1_556 S
C290 C291 1.170 . S
C291 C290 1.170 . S
C292 C293 1.170 . S
C292 C294 1.380 . S
C293 C292 1.170 . S
C294 C292 1.380 . S
C294 C295 1.170 . S
C295 C294 1.170 . S
C296 C297 1.170 . S
C296 C298 1.380 1_554 S
C297 C296 1.170 . S
C298 C296 1.380 1_556 S
C298 C299 1.170 . S
C299 C298 1.170 . S
C300 C301 1.170 . S
C300 C302 1.380 . S
C301 C300 1.170 . S
C302 C300 1.380 . S
C302 C303 1.170 . S
C303 C302 1.170 . S
C304 C305 1.170 . S
C304 C306 1.380 1_556 S
C305 C304 1.170 . S
C306 C304 1.380 1_554 S
C306 C307 1.170 . S
C307 C306 1.170 . S
C308 C309 1.170 . S
C308 C310 1.380 . S
C309 C308 1.170 . S
C310 C308 1.380 . S
C310 C311 1.170 . S
C311 C310 1.170 . S
C312 C313 1.170 . S
C312 C314 1.380 1_554 S
C313 C312 1.170 . S
C314 C312 1.380 1_556 S
C314 C315 1.170 . S
C315 C314 1.170 . S
C316 C317 1.170 . S
C316 C318 1.380 . S
C317 C316 1.170 . S
C318 C316 1.380 . S
C318 C319 1.170 . S
C319 C318 1.170 . S
C320 C321 1.170 . S
C320 C322 1.380 1_546 S
C321 C320 1.170 . S
C322 C320 1.380 1_564 S
C322 C323 1.170 . S
C323 C322 1.170 . S
C324 C325 1.170 . S
C324 C326 1.380 1_565 S
C325 C324 1.170 . S
C326 C324 1.380 1_545 S
C326 C327 1.170 . S
C327 C326 1.170 . S
C328 C329 1.170 . S
C328 C330 1.380 1_564 S
C329 C328 1.170 . S
C330 C328 1.380 1_546 S
C330 C331 1.170 . S
C331 C330 1.170 . S
C332 C333 1.170 . S
C332 C334 1.380 1_545 S
C333 C332 1.170 . S
C334 C332 1.380 1_565 S
C334 C335 1.170 . S
C335 C334 1.170 . S
C209 C3 1.474 . S
C211 C83 1.466 . S
C213 C16 1.476 . S
C215 C96 1.479 . S
C217 C55 1.466 . S
C219 C31 1.470 . S
C221 C70 1.470 . S
C223 C44 1.469 . S
C225 C187 1.475 . S
C227 C109 1.471 . S
C229 C200 1.479 . S
C231 C120 1.476 . S
C233 C135 1.476 . S
C235 C161 1.479 . S
C237 C146 1.474 . S
C239 C174 1.466 . S
C241 C4 1.564 . S
C243 C68 1.584 . S
C245 C17 1.579 . S
C247 C57 1.566 . S
C249 C36 1.584 . S
C251 C94 1.571 . S
C253 C81 1.570 . S
C255 C49 1.569 . S
C257 C172 1.568 . S
C259 C114 1.584 . S
C261 C159 1.585 . S
C263 C121 1.572 . S
C265 C140 1.582 . S
C267 C198 1.566 . S
C269 C185 1.585 . S
C271 C147 1.567 . S
C273 C160 1.491 . S
C275 C10 1.505 . S
C277 C23 1.494 . S
C279 C173 1.508 . S
C281 C186 1.490 . S
C283 C30 1.506 . S
C285 C199 1.502 . S
C287 C43 1.495 . S
C289 C108 1.511 . S
C291 C62 1.489 . S
C293 C127 1.510 . S
C295 C69 1.489 . S
C297 C82 1.487 . S
C299 C134 1.511 . S
C301 C95 1.509 . S
C303 C153 1.492 . S
C305 C29 1.712 . S
C307 C5 1.698 . S
C309 C18 1.705 . S
C311 C42 1.707 . S
C313 C88 1.417 . S
C315 C56 1.428 . S
C317 C75 1.416 . S
C319 C101 1.428 . S
C321 C133 1.711 . S
C323 C107 1.700 . S
C325 C148 1.696 . S
C327 C122 1.713 . S
C329 C192 1.425 . S
C331 C166 1.410 . S
C333 C205 1.409 . S
C335 C179 1.427 . S
