# Generated by pormake.
# Topology upc, (4)-cn, num edge types: 1
# Building blocks:
#     Node 0, Type 0, BuildingBlock: KOZSID_clean_sbu_0, # of connection points: 4
#     Node 1, Type 0, BuildingBlock: KOZSID_clean_sbu_0, # of connection points: 4
#     Node 2, Type 0, BuildingBlock: KOZSID_clean_sbu_0, # of connection points: 4
#     Node 3, Type 0, BuildingBlock: KOZSID_clean_sbu_0, # of connection points: 4
#     Node 4, Type 0, BuildingBlock: KOZSID_clean_sbu_0, # of connection points: 4
#     Node 5, Type 0, BuildingBlock: KOZSID_clean_sbu_0, # of connection points: 4
#     Node 6, Type 0, BuildingBlock: KOZSID_clean_sbu_0, # of connection points: 4
#     Node 7, Type 0, BuildingBlock: KOZSID_clean_sbu_0, # of connection points: 4
#     Node 8, Type 0, BuildingBlock: KOZSID_clean_sbu_0, # of connection points: 4
#     Node 9, Type 0, BuildingBlock: KOZSID_clean_sbu_0, # of connection points: 4
#     Node 10, Type 0, BuildingBlock: KOZSID_clean_sbu_0, # of connection points: 4
#     Node 11, Type 0, BuildingBlock: KOZSID_clean_sbu_0, # of connection points: 4
#     Node 12, Type 0, BuildingBlock: KOZSID_clean_sbu_0, # of connection points: 4
#     Node 13, Type 0, BuildingBlock: KOZSID_clean_sbu_0, # of connection points: 4
#     Node 14, Type 0, BuildingBlock: KOZSID_clean_sbu_0, # of connection points: 4
#     Node 15, Type 0, BuildingBlock: KOZSID_clean_sbu_0, # of connection points: 4
#     Edge 16, Type (0, 0), BuildingBlock: OJICUG_clean_linker_0, # of connection points: 2
#     Edge 17, Type (0, 0), BuildingBlock: OJICUG_clean_linker_0, # of connection points: 2
#     Edge 18, Type (0, 0), BuildingBlock: OJICUG_clean_linker_0, # of connection points: 2
#     Edge 19, Type (0, 0), BuildingBlock: OJICUG_clean_linker_0, # of connection points: 2
#     Edge 20, Type (0, 0), BuildingBlock: OJICUG_clean_linker_0, # of connection points: 2
#     Edge 21, Type (0, 0), BuildingBlock: OJICUG_clean_linker_0, # of connection points: 2
#     Edge 22, Type (0, 0), BuildingBlock: OJICUG_clean_linker_0, # of connection points: 2
#     Edge 23, Type (0, 0), BuildingBlock: OJICUG_clean_linker_0, # of connection points: 2
#     Edge 24, Type (0, 0), BuildingBlock: OJICUG_clean_linker_0, # of connection points: 2
#     Edge 25, Type (0, 0), BuildingBlock: OJICUG_clean_linker_0, # of connection points: 2
#     Edge 26, Type (0, 0), BuildingBlock: OJICUG_clean_linker_0, # of connection points: 2
#     Edge 27, Type (0, 0), BuildingBlock: OJICUG_clean_linker_0, # of connection points: 2
#     Edge 28, Type (0, 0), BuildingBlock: OJICUG_clean_linker_0, # of connection points: 2
#     Edge 29, Type (0, 0), BuildingBlock: OJICUG_clean_linker_0, # of connection points: 2
#     Edge 30, Type (0, 0), BuildingBlock: OJICUG_clean_linker_0, # of connection points: 2
#     Edge 31, Type (0, 0), BuildingBlock: OJICUG_clean_linker_0, # of connection points: 2
#     Edge 32, Type (0, 0), BuildingBlock: OJICUG_clean_linker_0, # of connection points: 2
#     Edge 33, Type (0, 0), BuildingBlock: OJICUG_clean_linker_0, # of connection points: 2
#     Edge 34, Type (0, 0), BuildingBlock: OJICUG_clean_linker_0, # of connection points: 2
#     Edge 35, Type (0, 0), BuildingBlock: OJICUG_clean_linker_0, # of connection points: 2
#     Edge 36, Type (0, 0), BuildingBlock: OJICUG_clean_linker_0, # of connection points: 2
#     Edge 37, Type (0, 0), BuildingBlock: OJICUG_clean_linker_0, # of connection points: 2
#     Edge 38, Type (0, 0), BuildingBlock: OJICUG_clean_linker_0, # of connection points: 2
#     Edge 39, Type (0, 0), BuildingBlock: OJICUG_clean_linker_0, # of connection points: 2
#     Edge 40, Type (0, 0), BuildingBlock: OJICUG_clean_linker_0, # of connection points: 2
#     Edge 41, Type (0, 0), BuildingBlock: OJICUG_clean_linker_0, # of connection points: 2
#     Edge 42, Type (0, 0), BuildingBlock: OJICUG_clean_linker_0, # of connection points: 2
#     Edge 43, Type (0, 0), BuildingBlock: OJICUG_clean_linker_0, # of connection points: 2
#     Edge 44, Type (0, 0), BuildingBlock: OJICUG_clean_linker_0, # of connection points: 2
#     Edge 45, Type (0, 0), BuildingBlock: OJICUG_clean_linker_0, # of connection points: 2
#     Edge 46, Type (0, 0), BuildingBlock: OJICUG_clean_linker_0, # of connection points: 2
#     Edge 47, Type (0, 0), BuildingBlock: OJICUG_clean_linker_0, # of connection points: 2
# Relax obj value: 0.200
# Max RMSD: 0.236
# Mean RMSD: 0.229
data_MOF--net-upc--node1-KOZSID_clean_sbu_0--edge1-OJICUG_clean_linker_0
_symmetry_space_group_name_H-M    P1
_symmetry_Int_Tables_number       1
_symmetry_cell_setting            triclinic
loop_
_symmetry_equiv_pos_as_xyz
'x, y, z'
_cell_length_a     34.751262
_cell_length_b     34.784352
_cell_length_c     35.540055
_cell_angle_alpha  90.096243
_cell_angle_beta   90.027911
_cell_angle_gamma 90.015354
loop_
_atom_site_label
_atom_site_type_symbol
_atom_site_fract_x
_atom_site_fract_y
_atom_site_fract_z
_atom_type_partial_charge
C0 C 0.22999 0.66664 0.13418 0.0
C1 C 0.26769 0.65578 0.12724 0.0
C2 C 0.26871 0.61636 0.12774 0.0
C3 C 0.23174 0.60464 0.13513 0.0
N4 N 0.20683 0.63424 0.13864 0.0
Co5 Co 0.15146 0.62787 0.15603 0.0
N6 N 0.15637 0.57195 0.16951 0.0
C7 C 0.18776 0.55041 0.16223 0.0
C8 C 0.18473 0.5136 0.17587 0.0
C9 C 0.14942 0.51174 0.19313 0.0
C10 C 0.13246 0.54756 0.18914 0.0
N11 N 0.09674 0.62337 0.17443 0.0
C12 C 0.07786 0.59492 0.19375 0.0
C13 C 0.04009 0.60545 0.20108 0.0
C14 C 0.03516 0.64163 0.18675 0.0
C15 C 0.06997 0.65132 0.17123 0.0
N16 N 0.14758 0.68481 0.14411 0.0
C17 C 0.11428 0.70481 0.14445 0.0
C18 C 0.11924 0.74346 0.13839 0.0
C19 C 0.15808 0.74884 0.13484 0.0
C20 C 0.17527 0.71319 0.13922 0.0
N21 N 0.13302 0.61145 0.10399 0.0
C22 C 0.0917 0.56396 0.05128 0.0
C23 C 0.07594 0.59809 0.06584 0.0
C24 C 0.09718 0.62159 0.09091 0.0
C25 C 0.13063 0.55739 0.05993 0.0
C26 C 0.15062 0.58162 0.08528 0.0
N27 N 0.16785 0.64065 0.20701 0.0
C28 C 0.15744 0.67584 0.26378 0.0
C29 C 0.19418 0.66556 0.2764 0.0
C30 C 0.21434 0.63726 0.25707 0.0
C31 C 0.2005 0.62502 0.22233 0.0
C32 C 0.14561 0.6643 0.22849 0.0
H33 H 0.21773 0.6047 0.20747 0.0
H34 H 0.11965 0.67676 0.21809 0.0
H35 H 0.0834 0.64725 0.10012 0.0
H36 H 0.17997 0.57459 0.09035 0.0
C37 C 0.22104 0.56721 0.14648 0.0
C38 C 0.21818 0.70831 0.1378 0.0
C39 C 0.09404 0.55732 0.20527 0.0
C40 C 0.08004 0.68776 0.15726 0.0
H41 H 0.2924 0.67434 0.12395 0.0
H42 H 0.2941 0.59846 0.12574 0.0
H43 H 0.20628 0.49117 0.17476 0.0
H44 H 0.13786 0.48704 0.20773 0.0
H45 H 0.01839 0.58884 0.21564 0.0
H46 H 1.00957 0.65927 0.18855 0.0
H47 H 0.09733 0.76557 0.13871 0.0
H48 H 0.17223 0.77616 0.1304 0.0
H49 H 0.04699 0.60664 0.05833 0.0
H50 H 0.14549 0.5326 0.04862 0.0
H51 H 0.14059 0.69771 0.27798 0.0
H52 H 0.24234 0.62791 0.26672 0.0
C53 C 0.86495 0.1999 0.12312 0.0
C54 C 0.87526 0.23588 0.10979 0.0
C55 C 0.91471 0.23673 0.10786 0.0
C56 C 0.92692 0.20119 0.11969 0.0
N57 N 0.8976 0.17717 0.12798 0.0
Co58 Co 0.90508 0.12443 0.15134 0.0
N59 N 0.9618 0.13044 0.16073 0.0
C60 C 0.98299 0.15999 0.1476 0.0
C61 C 0.02108 0.1575 0.15771 0.0
C62 C 0.02428 0.12434 0.17846 0.0
C63 C 0.98791 0.10807 0.18002 0.0
N64 N 0.9105 0.07277 0.17659 0.0
C65 C 0.94047 0.05557 0.19518 0.0
C66 C 0.9301 0.01931 0.20793 0.0
C67 C 0.89263 1.01359 0.19761 0.0
C68 C 0.88209 0.04646 0.17906 0.0
N69 N 0.84749 0.1193 0.14252 0.0
C70 C 0.82771 0.08637 0.14811 0.0
C71 C 0.78864 0.09093 0.14598 0.0
C72 C 0.78273 0.12912 0.1394 0.0
C73 C 0.81864 0.14642 0.13693 0.0
N74 N 0.919 0.09939 0.10115 0.0
C75 C 0.9668 0.05646 0.04955 0.0
C76 C 0.93713 0.03897 0.07038 0.0
C77 C 0.91351 0.06069 0.095 0.0
C78 C 0.96806 0.09686 0.05179 0.0
C79 C 0.94359 0.11738 0.07651 0.0
N80 N 0.89479 0.14798 0.20026 0.0
C81 C 0.85533 0.15181 0.25513 0.0
C82 C 0.86599 0.19036 0.2598 0.0
C83 C 0.89623 0.20494 0.23864 0.0
C84 C 0.91101 0.18266 0.20955 0.0
C85 C 0.86945 0.13141 0.22461 0.0
H86 H 0.9332 0.19535 0.19301 0.0
H87 H 0.85724 0.1037 0.21931 0.0
H88 H 0.89163 0.04515 0.10948 0.0
H89 H 0.94624 0.14786 0.07598 0.0
C90 C 0.96521 0.19124 0.12912 0.0
C91 C 0.82346 0.18897 0.13039 0.0
C92 C 0.97959 0.07149 0.20039 0.0
C93 C 0.84545 0.0545 0.16475 0.0
H94 H 0.85628 0.25952 0.10302 0.0
H95 H 0.93245 0.26122 0.10066 0.0
H96 H 0.04373 0.17792 0.1516 0.0
H97 H 0.05034 0.11356 0.19132 0.0
H98 H 0.94785 0.9989 0.22297 0.0
H99 H 0.87506 0.98858 0.20329 0.0
H100 H 0.76678 0.06969 0.15221 0.0
H101 H 0.75479 0.14258 0.13905 0.0
H102 H 0.93213 1.00834 0.06824 0.0
H103 H 0.98886 0.11308 0.0357 0.0
H104 H 0.83185 0.13946 0.27114 0.0
H105 H 0.90533 0.23457 0.24178 0.0
C106 C 0.31414 0.8905 0.13935 0.0
C107 C 0.27548 0.89982 0.13703 0.0
C108 C 0.27249 0.93844 0.14455 0.0
C109 C 0.30941 0.95121 0.15077 0.0
N110 N 0.33586 0.92323 0.1466 0.0
Co111 Co 0.39249 0.93067 0.15781 0.0
N112 N 0.38553 0.9796 0.18706 0.0
C113 C 0.35163 0.99804 0.1905 0.0
C114 C 0.35407 0.03064 0.21225 0.0
C115 C 0.39186 0.03294 0.22339 0.0
C116 C 0.41073 1.00168 0.20769 0.0
N117 N 0.44898 0.93753 0.16741 0.0
C118 C 0.46939 0.96434 0.18761 0.0
C119 C 0.50863 0.9582 0.18377 0.0
C120 C 0.51302 0.92712 0.16034 0.0
C121 C 0.47637 0.91583 0.15102 0.0
N122 N 0.39761 0.87887 0.13203 0.0
C123 C 0.43174 0.86305 0.12285 0.0
C124 C 0.42856 0.82605 0.10988 0.0
C125 C 0.39017 0.81717 0.11193 0.0
C126 C 0.37132 0.84924 0.12615 0.0
N127 N 0.4017 0.96074 0.10957 0.0
C128 C 0.4454 1.0072 0.05839 0.0
C129 C 0.44256 0.96712 0.05379 0.0
C130 C 0.42036 0.94469 0.07916 0.0
C131 C 0.42169 0.02352 0.08591 0.0
C132 C 0.39962 1.00029 0.11004 0.0
N133 N 0.38613 0.90298 0.20482 0.0
C134 C 0.40297 0.84215 0.22986 0.0
C135 C 0.3638 0.83483 0.23452 0.0
C136 C 0.33788 0.86541 0.23487 0.0
C137 C 0.35057 0.90061 0.22111 0.0
C138 C 0.41374 0.87712 0.21493 0.0
H139 H 0.32981 0.92332 0.21804 0.0
H140 H 0.44318 0.8801 0.20642 0.0
H141 H 0.4199 0.91427 0.07439 0.0
H142 H 0.3824 1.01556 0.12989 0.0
C143 C 0.31879 0.98444 0.17147 0.0
C144 C 0.32857 0.84995 0.13457 0.0
C145 C 0.45305 0.996 0.21066 0.0
C146 C 0.4663 0.8822 0.13139 0.0
H147 H 0.25169 0.8804 0.13199 0.0
H148 H 0.24609 0.95444 0.14851 0.0
H149 H 0.33123 0.05071 0.2188 0.0
H150 H 0.40439 0.05563 0.24031 0.0
H151 H 0.53172 0.97431 0.19679 0.0
H152 H 0.53979 0.91367 0.15203 0.0
H153 H 0.45172 0.80682 0.10211 0.0
H154 H 0.37826 0.78922 0.10582 0.0
H155 H 0.45881 0.95283 0.03186 0.0
H156 H 0.42063 0.05444 0.08943 0.0
H157 H 0.42412 0.81936 0.23211 0.0
H158 H 0.30762 0.86106 0.2408 0.0
C159 C 0.64243 0.28483 0.14408 0.0
C160 C 0.63408 0.2461 0.14838 0.0
C161 C 0.59725 0.24368 0.1618 0.0
C162 C 0.58461 0.28088 0.16546 0.0
N163 N 0.61079 0.30701 0.15426 0.0
Co164 Co 0.60306 0.36461 0.16069 0.0
N165 N 0.5579 0.36041 0.19564 0.0
C166 C 0.54326 0.32652 0.20686 0.0
C167 C 0.51895 0.32979 0.23698 0.0
C168 C 0.51745 0.36831 0.2449 0.0
C169 C 0.53949 0.38714 0.21797 0.0
N170 N 0.59451 0.42155 0.16427 0.0
C171 C 0.56674 0.44336 0.18201 0.0
C172 C 0.56701 0.48047 0.16747 0.0
C173 C 0.59675 0.48259 0.1422 0.0
C174 C 0.61249 0.44652 0.14128 0.0
N175 N 0.65199 0.36764 0.12992 0.0
C176 C 0.66592 0.40076 0.11599 0.0
C177 C 0.70198 0.3969 0.10058 0.0
C178 C 0.7121 0.35907 0.10578 0.0
C179 C 0.68174 0.34146 0.12421 0.0
N180 N 0.56817 0.36752 0.11518 0.0
C181 C 0.51975 0.40847 0.06369 0.0
C182 C 0.55862 0.40075 0.05539 0.0
C183 C 0.5819 0.37973 0.08091 0.0
C184 C 0.50485 0.39024 0.09573 0.0
C185 C 0.52896 0.36953 0.12029 0.0
N186 N 0.63627 0.36503 0.20496 0.0
C187 C 0.69567 0.39406 0.22253 0.0
C188 C 0.71124 0.35738 0.22653 0.0
C189 C 0.68649 0.32589 0.22923 0.0
C190 C 0.64787 0.33108 0.22049 0.0
C191 C 0.65751 0.39735 0.21202 0.0
H192 H 0.62934 0.30632 0.22092 0.0
H193 H 0.64762 0.42568 0.20511 0.0
H194 H 0.61152 0.37554 0.07331 0.0
H195 H 0.51518 0.35718 0.14438 0.0
C196 C 0.55538 0.29211 0.19022 0.0
C197 C 0.68192 0.29911 0.13358 0.0
C198 C 0.53975 0.43009 0.21247 0.0
C199 C 0.64533 0.4352 0.12091 0.0
H200 H 0.65329 0.22196 0.14509 0.0
H201 H 0.5831 0.21794 0.17186 0.0
H202 H 0.50513 0.30678 0.25237 0.0
H203 H 0.50238 0.38049 0.26863 0.0
H204 H 0.54735 0.5037 0.17346 0.0
H205 H 0.60558 0.5075 0.12617 0.0
H206 H 0.71948 0.41923 0.0881 0.0
H207 H 0.7389 0.34594 0.09712 0.0
H208 H 0.57174 0.41244 0.03028 0.0
H209 H 0.47459 0.39265 0.10257 0.0
H210 H 0.71367 0.41951 0.22327 0.0
H211 H 0.6974 0.29718 0.23352 0.0
C212 C 0.21914 0.87559 0.38165 0.0
C213 C 0.25692 0.88649 0.38802 0.0
C214 C 0.25917 0.92526 0.38073 0.0
C215 C 0.22263 0.93655 0.37067 0.0
N216 N 0.19723 0.90745 0.37208 0.0
Co217 Co 0.14216 0.91228 0.3551 0.0
N218 N 0.151 0.95909 0.3235 0.0
C219 C 0.18314 0.98056 0.32569 0.0
C220 C 0.18211 1.01204 0.30245 0.0
C221 C 0.14681 1.01079 0.28498 0.0
C222 C 0.12785 0.97846 0.29837 0.0
N223 N 0.08709 0.91627 0.33943 0.0
C224 C 0.06823 0.9402 0.31489 0.0
C225 C 0.029 0.93252 0.31536 0.0
C226 C 0.02301 0.90448 0.34184 0.0
C227 C 0.05875 0.89601 0.35595 0.0
N228 N 0.13591 0.86297 0.38419 0.0
C229 C 0.10149 0.84876 0.39432 0.0
C230 C 0.10401 0.81234 0.40882 0.0
C231 C 0.14226 0.80255 0.40719 0.0
C232 C 0.16196 0.8336 0.39193 0.0
N233 N 0.12699 0.94561 0.39987 0.0
C234 C 0.08401 0.98897 0.45498 0.0
C235 C 0.10029 0.95269 0.46348 0.0
C236 C 0.12161 0.93167 0.43576 0.0
C237 C 0.09273 1.00371 0.41949 0.0
C238 C 0.11362 0.98227 0.3931 0.0
N239 N 0.15426 0.88092 0.31138 0.0
C240 C 0.1451 0.81607 0.29253 0.0
C241 C 0.18504 0.81224 0.28998 0.0
C242 C 0.20775 0.84532 0.28781 0.0
C243 C 0.19099 0.88038 0.2976 0.0
C244 C 0.13003 0.8513 0.30296 0.0
H245 H 0.20935 0.90523 0.30022 0.0
H246 H 0.10005 0.85221 0.31026 0.0
H247 H 0.1323 0.90358 0.44323 0.0
H248 H 0.11639 0.99599 0.36651 0.0
C249 C 0.21391 0.96931 0.34906 0.0
C250 C 0.20531 0.83463 0.38548 0.0
C251 C 0.08582 0.97165 0.29209 0.0
C252 C 0.06756 0.86612 0.38112 0.0
H253 H 0.28071 0.8681 0.39583 0.0
H254 H 0.28517 0.94236 0.37961 0.0
H255 H 0.20413 0.03377 0.29903 0.0
H256 H 0.13558 0.03244 0.26613 0.0
H257 H 1.00678 0.94578 0.29849 0.0
H258 H 0.99587 0.89124 0.34923 0.0
H259 H 0.08042 0.79364 0.41658 0.0
H260 H 0.1532 0.77464 0.41454 0.0
H261 H 0.09535 0.93984 0.49077 0.0
H262 H 0.08258 0.03196 0.41136 0.0
H263 H 0.12636 0.79117 0.29158 0.0
H264 H 0.23854 0.8436 0.28342 0.0
C265 C 0.6599 0.23716 0.3779 0.0
C266 C 0.64959 0.27534 0.38228 0.0
C267 C 0.61083 0.27768 0.3751 0.0
C268 C 0.59899 0.24084 0.36703 0.0
N269 N 0.6277 0.21501 0.36986 0.0
Co270 Co 0.62215 0.15906 0.35544 0.0
N271 N 0.57356 0.16641 0.32568 0.0
C272 C 0.55415 0.19991 0.32399 0.0
C273 C 0.52173 0.1978 0.30197 0.0
C274 C 0.52039 0.16061 0.28899 0.0
C275 C 0.55207 0.14172 0.3039 0.0
N276 N 0.61723 0.10316 0.34239 0.0
C277 C 0.59085 0.08309 0.32129 0.0
C278 C 0.59813 0.04392 0.32309 0.0
C279 C 0.62921 0.03916 0.34642 0.0
C280 C 0.63945 0.07553 0.35763 0.0
N281 N 0.67355 0.15392 0.38185 0.0
C282 C 0.69018 0.11983 0.38957 0.0
C283 C 0.72756 0.12328 0.40144 0.0
C284 C 0.73578 0.1618 0.40019 0.0
C285 C 0.70286 0.18054 0.38782 0.0
N286 N 0.59104 0.14614 0.4026 0.0
C287 C 0.54433 0.10197 0.45388 0.0
C288 C 0.58447 0.10518 0.45849 0.0
C289 C 0.607 0.12739 0.43301 0.0
C290 C 0.52815 0.12493 0.42572 0.0
C291 C 0.55137 0.14704 0.40153 0.0
N292 N 0.65113 0.16925 0.30958 0.0
C293 C 0.71393 0.15829 0.28522 0.0
C294 C 0.71796 0.19789 0.28021 0.0
C295 C 0.6854 0.2212 0.28135 0.0
C296 C 0.65115 0.20544 0.29459 0.0
C297 C 0.67969 0.14431 0.29967 0.0
H298 H 0.62698 0.22437 0.29819 0.0
H299 H 0.67896 0.11463 0.30779 0.0
H300 H 0.63744 0.12797 0.43787 0.0
H301 H 0.53587 0.16351 0.38134 0.0
C302 C 0.56635 0.23182 0.34529 0.0
C303 C 0.70088 0.22354 0.38111 0.0
C304 C 0.55828 0.09962 0.29956 0.0
C305 C 0.67221 0.08535 0.37874 0.0
H306 H 0.66847 0.29932 0.38826 0.0
H307 H 0.59417 0.30381 0.37234 0.0
H308 H 0.50098 0.22035 0.29667 0.0
H309 H 0.4979 0.14839 0.27163 0.0
H310 H 0.58265 0.02108 0.30899 0.0
H311 H 0.6432 1.01237 0.35365 0.0
H312 H 0.74756 0.10024 0.40743 0.0
H313 H 0.7638 0.17389 0.40565 0.0
H314 H 0.59877 0.08933 0.48064 0.0
H315 H 0.49723 0.12554 0.42186 0.0
H316 H 0.73841 0.13916 0.28257 0.0
H317 H 0.68733 0.25175 0.27659 0.0
C318 C 0.2983 0.65069 0.37337 0.0
C319 C 0.25956 0.64169 0.37614 0.0
C320 C 0.25601 0.60313 0.36888 0.0
C321 C 0.29262 0.59 0.36202 0.0
N322 N 0.31945 0.61781 0.365 0.0
Co323 Co 0.37584 0.60902 0.3531 0.0
N324 N 0.36829 0.55824 0.32689 0.0
C325 C 0.33356 0.54139 0.32313 0.0
C326 C 0.33342 0.51219 0.29727 0.0
C327 C 0.37042 0.51005 0.2841 0.0
C328 C 0.39217 0.53692 0.30388 0.0
N329 N 0.4321 0.60069 0.34303 0.0
C330 C 0.45204 0.57103 0.32627 0.0
C331 C 0.4909 0.57373 0.33533 0.0
C332 C 0.49579 0.60681 0.35573 0.0
C333 C 0.45971 0.62211 0.35954 0.0
N334 N 0.38215 0.66237 0.3754 0.0
C335 C 0.41662 0.67848 0.3826 0.0
C336 C 0.41414 0.71627 0.39357 0.0
C337 C 0.37571 0.72525 0.39242 0.0
C338 C 0.35638 0.69248 0.38075 0.0
N339 N 0.38513 0.58195 0.40277 0.0
C340 C 0.42892 0.53519 0.4531 0.0
C341 C 0.42953 0.57551 0.45574 0.0
C342 C 0.40712 0.59819 0.43085 0.0
C343 C 0.40171 0.51926 0.42862 0.0
C344 C 0.37945 0.54287 0.40504 0.0
N345 N 0.36894 0.63315 0.3043 0.0
C346 C 0.39152 0.67769 0.25831 0.0
C347 C 0.35474 0.6787 0.24256 0.0
C348 C 0.32761 0.65164 0.25343 0.0
C349 C 0.3354 0.6288 0.28447 0.0
C350 C 0.39773 0.65535 0.28988 0.0
H351 H 0.31291 0.6101 0.29365 0.0
H352 H 0.42474 0.65878 0.30408 0.0
H353 H 0.40935 0.62877 0.43375 0.0
H354 H 0.35915 0.5283 0.38752 0.0
C355 C 0.30116 0.55621 0.34195 0.0
C356 C 0.31321 0.69124 0.37728 0.0
C357 C 0.43547 0.53989 0.30179 0.0
C358 C 0.45068 0.65766 0.37623 0.0
H359 H 0.2359 0.66116 0.38101 0.0
H360 H 0.22937 0.58736 0.36549 0.0
H361 H 0.30892 0.49564 0.28769 0.0
H362 H 0.37939 0.49155 0.26137 0.0
H363 H 0.51364 0.55368 0.32874 0.0
H364 H 0.52255 0.61822 0.36664 0.0
H365 H 0.43762 0.73544 0.40057 0.0
H366 H 0.36328 0.75289 0.39934 0.0
H367 H 0.44865 0.58957 0.47552 0.0
H368 H 0.39812 0.48836 0.427 0.0
H369 H 0.41324 0.69855 0.25037 0.0
H370 H 0.29915 0.65167 0.24109 0.0
C371 C 0.88369 0.32029 0.37383 0.0
C372 C 0.89394 0.28215 0.37889 0.0
C373 C 0.93316 0.28007 0.37524 0.0
C374 C 0.94537 0.31687 0.36794 0.0
N375 N 0.91627 0.34258 0.36735 0.0
Co376 Co 0.92318 0.39849 0.35234 0.0
N377 N 0.97707 0.39206 0.33252 0.0
C378 C 0.99719 0.35897 0.33446 0.0
C379 C 0.03256 0.36124 0.31743 0.0
C380 C 0.03486 0.39784 0.30324 0.0
C381 C 1.00064 0.4162 0.31225 0.0
N382 N 0.92905 0.45427 0.33815 0.0
C383 C 0.95696 0.47375 0.31847 0.0
C384 C 0.94704 0.51224 0.31475 0.0
C385 C 0.91268 0.51726 0.3329 0.0
C386 C 0.90296 0.48173 0.34655 0.0
N387 N 0.86753 0.40344 0.36907 0.0
C388 C 0.84855 0.4372 0.37126 0.0
C389 C 0.81015 0.43314 0.37933 0.0
C390 C 0.80376 0.39436 0.38144 0.0
C391 C 0.8386 0.3764 0.37432 0.0
N392 N 0.94453 0.41294 0.40369 0.0
C393 C 0.99031 0.45586 0.45589 0.0
C394 C 0.95125 0.4643 0.45036 0.0
C395 C 0.92894 0.44235 0.42472 0.0
C396 C 1.00428 0.42256 0.43858 0.0
C397 C 0.98078 0.40107 0.41402 0.0
N398 N 0.90485 0.38627 0.30185 0.0
C399 C 0.86543 0.40273 0.24921 0.0
C400 C 0.86815 0.36497 0.23605 0.0
C401 C 0.89546 0.34058 0.25196 0.0
C402 C 0.91386 0.35206 0.28485 0.0
C403 C 0.88284 0.41228 0.28286 0.0
H404 H 0.93298 0.33181 0.29746 0.0
H405 H 0.87571 0.43972 0.29436 0.0
H406 H 0.89958 0.45068 0.42134 0.0
H407 H 0.99342 0.3758 0.40254 0.0
C408 C 0.98128 0.32629 0.35198 0.0
C409 C 0.84232 0.33339 0.37378 0.0
C410 C 0.99259 0.45698 0.30196 0.0
C411 C 0.86677 0.47171 0.36111 0.0
H412 H 0.87498 0.25784 0.3828 0.0
H413 H 0.95033 0.25411 0.37467 0.0
H414 H 0.05403 0.33882 0.31522 0.0
H415 H 0.05907 0.40968 0.28805 0.0
H416 H 0.96221 0.53438 0.29948 0.0
H417 H 0.89572 0.54333 0.3341 0.0
H418 H 0.78885 0.45571 0.38173 0.0
H419 H 0.77631 0.38081 0.38695 0.0
H420 H 0.93838 0.48881 0.46434 0.0
H421 H 0.0337 0.41348 0.44335 0.0
H422 H 0.84483 0.42283 0.2375 0.0
H423 H 0.89865 0.31126 0.2421 0.0
C424 C 0.9259 0.34604 0.8354 0.0
C425 C 0.89782 0.3574 0.80988 0.0
C426 C 0.88089 0.38974 0.82426 0.0
C427 C 0.8998 0.39703 0.85735 0.0
N428 N 0.92794 0.37136 0.8647 0.0
Co429 Co 0.96385 0.37365 0.90854 0.0
N430 N 0.94769 0.42727 0.92299 0.0
C431 C 0.91846 0.44726 0.90743 0.0
C432 C 0.91663 0.48469 0.91952 0.0
C433 C 0.94707 0.4891 0.94364 0.0
C434 C 0.96572 0.45388 0.94531 0.0
N435 N 0.99946 0.37602 0.95279 0.0
C436 C 1.01202 0.40661 0.9735 0.0
C437 C 0.03739 0.39506 1.0014 0.0
C438 C 0.04186 0.35621 0.99746 0.0
C439 C 0.01887 0.34612 0.96763 0.0
N440 N 0.98254 0.32135 0.89348 0.0
C441 C 1.00689 0.29902 0.9135 0.0
C442 C 1.01336 0.26374 0.89758 0.0
C443 C 0.99239 0.26382 0.86509 0.0
C444 C 0.97453 0.29953 0.86272 0.0
N445 N 1.00399 0.39648 0.87579 0.0
C446 C 0.05669 0.42515 0.82242 0.0
C447 C 0.06747 0.39591 0.8474 0.0
C448 C 0.04083 0.38234 0.87424 0.0
C449 C 0.01964 0.44016 0.82527 0.0
C450 C 0.99395 0.42541 0.85161 0.0
N451 N 0.9211 0.34955 0.94005 0.0
C452 C 0.88629 0.29098 0.95712 0.0
C453 C 0.85114 0.31049 0.96044 0.0
C454 C 0.85307 0.35074 0.95779 0.0
C455 C 0.88795 0.36942 0.94862 0.0
C456 C 0.92031 0.31069 0.94746 0.0
H457 H 0.88676 0.4 0.94786 0.0
H458 H 0.94526 0.29314 0.94542 0.0
H459 H 0.04999 0.36007 0.89321 0.0
H460 H 0.96564 0.4373 0.85142 0.0
C461 C 0.89662 0.43114 0.87822 0.0
C462 C 0.94981 0.3111 0.83108 0.0
C463 C 1.00098 0.44699 0.96762 0.0
C464 C 0.02133 0.3114 0.94813 0.0
H465 H 0.89068 0.34457 0.78308 0.0
H466 H 0.85888 0.40711 0.81103 0.0
H467 H 0.89682 0.50677 0.91031 0.0
H468 H 0.95519 0.51562 0.95744 0.0
H469 H 0.052 0.41301 0.0218 0.0
H470 H 0.06153 0.33797 0.0129 0.0
H471 H 0.03074 0.24051 0.90857 0.0
H472 H 0.99017 0.23992 0.84572 0.0
H473 H 0.09618 0.38384 0.84635 0.0
H474 H 1.01018 0.46284 0.80655 0.0
H475 H 0.88776 0.2602 0.96127 0.0
H476 H 0.8275 0.36813 0.96125 0.0
C477 C 0.1828 0.92056 0.82422 0.0
C478 C 0.17141 0.89656 0.79494 0.0
C479 C 0.14253 0.87347 0.80862 0.0
C480 C 0.13711 0.88489 0.84522 0.0
N481 N 0.16046 0.91412 0.85504 0.0
Co482 Co 0.15948 0.94073 0.90429 0.0
N483 N 0.10806 0.91992 0.91796 0.0
C484 C 0.09138 0.88892 0.90235 0.0
C485 C 0.05464 0.88311 0.91569 0.0
C486 C 0.04795 0.91242 0.941 0.0
C487 C 0.08101 0.93468 0.94179 0.0
N488 N 0.15784 0.96768 0.95345 0.0
C489 C 0.12693 0.97902 0.97418 0.0
C490 C 0.13861 0.99883 0.00606 0.0
C491 C 0.17813 1.00021 1.00489 0.0
C492 C 0.18842 0.98114 0.97248 0.0
N493 N 0.21078 0.96242 0.89198 0.0
C494 C 0.23591 0.97623 0.91753 0.0
C495 C 0.27037 0.98681 0.9019 0.0
C496 C 0.26683 0.97879 0.86428 0.0
C497 C 0.23001 0.96405 0.85877 0.0
N498 N 0.13455 0.98484 0.87958 0.0
C499 C 0.10707 0.04098 0.82958 0.0
C500 C 0.13849 0.04879 0.85319 0.0
C501 C 0.15129 0.02052 0.87867 0.0
C502 C 0.08863 1.00551 0.83301 0.0
C503 C 0.1029 0.97795 0.85764 0.0
N504 N 0.18537 0.89456 0.92646 0.0
C505 C 0.23287 0.84454 0.91608 0.0
C506 C 0.21729 0.82116 0.94416 0.0
C507 C 0.18652 0.83678 0.96525 0.0
C508 C 0.17103 0.87355 0.95599 0.0
C509 C 0.21661 0.8801 0.90756 0.0
H510 H 0.1466 0.88417 0.97168 0.0
H511 H 0.22866 0.89463 0.8838 0.0
H512 H 0.17574 0.02692 0.89633 0.0
H513 H 0.08934 0.95023 0.85707 0.0
C514 C 0.10665 0.87347 0.86891 0.0
C515 C 0.21647 0.94699 0.82298 0.0
C516 C 0.08657 0.96934 0.96553 0.0
C517 C 0.22437 0.98324 0.95476 0.0
H518 H 0.18248 0.89569 0.76654 0.0
H519 H 0.12635 0.85206 0.79315 0.0
H520 H 0.03404 0.86192 0.90609 0.0
H521 H 0.0215 0.91738 0.95628 0.0
H522 H 0.12045 1.01121 0.02765 0.0
H523 H 0.19689 1.01541 0.02416 0.0
H524 H 0.29501 0.99924 0.91604 0.0
H525 H 0.28947 0.98221 0.84369 0.0
H526 H 0.15323 0.07617 0.85165 0.0
H527 H 0.06432 0.99829 0.81523 0.0
H528 H 0.25723 0.83495 0.89953 0.0
H529 H 0.17349 0.8202 0.98762 0.0
C530 C 0.6166 0.1894 0.82883 0.0
C531 C 0.64399 0.1742 0.80452 0.0
C532 C 0.66364 0.14642 0.82419 0.0
C533 C 0.64698 0.14558 0.8592 0.0
N534 N 0.61779 0.17081 0.86239 0.0
Co535 Co 0.58497 0.17707 0.90744 0.0
N536 N 0.60054 0.12673 0.9288 0.0
C537 C 0.63232 0.10695 0.91937 0.0
C538 C 0.63424 0.07196 0.93732 0.0
C539 C 0.60153 0.06972 0.95911 0.0
C540 C 0.58122 0.10343 0.95316 0.0
N541 N 0.55203 0.18275 0.9527 0.0
C542 C 0.53639 0.15524 0.97524 0.0
C543 C 0.51238 0.17193 1.0019 0.0
C544 C 0.51368 0.2109 0.9961 0.0
C545 C 0.53792 0.21608 0.96604 0.0
N546 N 0.56826 0.22736 0.88706 0.0
C547 C 0.55291 0.25613 0.9075 0.0
C548 C 0.54614 0.28858 0.88668 0.0
C549 C 0.55834 0.27974 0.85102 0.0
C550 C 0.57163 0.24201 0.85192 0.0
N551 N 0.54281 0.15169 0.87988 0.0
C552 C 0.49519 0.1267 0.82077 0.0
C553 C 0.48438 0.15804 0.84339 0.0
C554 C 0.50855 0.16994 0.8731 0.0
C555 C 0.5279 0.10585 0.83118 0.0
C556 C 0.55107 0.11863 0.86063 0.0
N557 N 0.62942 0.20333 0.93241 0.0
C558 C 0.68259 0.24786 0.92413 0.0
C559 C 0.70024 0.23562 0.95713 0.0
C560 C 0.68101 0.20745 0.97862 0.0
C561 C 0.64536 0.19192 0.96593 0.0
C562 C 0.64801 0.23146 0.91229 0.0
H563 H 0.6315 0.16983 0.98244 0.0
H564 H 0.63775 0.24066 0.88536 0.0
H565 H 0.5009 0.19543 0.88878 0.0
H566 H 0.57741 0.10326 0.86551 0.0
C567 C 0.65331 0.11759 0.88716 0.0
C568 C 0.59176 0.22298 0.82046 0.0
C569 C 0.54484 0.11358 0.97249 0.0
C570 C 0.54039 0.24961 0.94441 0.0
H571 H 0.64936 0.18209 0.77559 0.0
H572 H 0.68624 0.12794 0.81361 0.0
H573 H 0.65547 0.04959 0.93317 0.0
H574 H 0.59329 0.04587 0.97689 0.0
H575 H 0.49492 0.15775 0.02284 0.0
H576 H 0.49672 0.23256 0.01038 0.0
H577 H 0.53325 0.31524 0.89606 0.0
H578 H 0.55842 0.29937 0.82745 0.0
H579 H 0.45886 0.17458 0.8368 0.0
H580 H 0.53676 0.08073 0.81534 0.0
H581 H 0.69641 0.26913 0.90643 0.0
H582 H 0.69374 0.19695 1.00445 0.0
C583 C 0.34625 0.60472 0.83532 0.0
C584 C 0.36519 0.63004 0.81148 0.0
C585 C 0.39936 0.63916 0.82835 0.0
C586 C 0.39987 0.61862 0.8612 0.0
N587 N 0.36798 0.59699 0.86636 0.0
Co588 Co 0.35933 0.55958 0.9084 0.0
N589 N 0.41233 0.56798 0.93001 0.0
C590 C 0.43808 0.59467 0.9186 0.0
C591 C 0.47299 0.5919 0.93648 0.0
C592 C 0.46968 0.56105 0.96008 0.0
C593 C 0.43289 0.54648 0.95516 0.0
N594 N 0.35148 0.5212 0.94998 0.0
C595 C 0.3775 0.50382 0.97327 0.0
C596 C 0.36005 0.47581 0.9952 0.0
C597 C 0.32213 0.47515 0.98532 0.0
C598 C 0.31843 0.50242 0.95778 0.0
N599 N 0.30654 0.55057 0.88743 0.0
C600 C 0.27863 0.52884 0.90315 0.0
C601 C 0.24428 0.53016 0.88434 0.0
C602 C 0.25076 0.55382 0.85445 0.0
C603 C 0.2891 0.56513 0.8564 0.0
N604 N 0.3801 0.51818 0.87535 0.0
C605 C 0.4029 0.47105 0.81456 0.0
C606 C 0.36948 0.46268 0.83505 0.0
C607 C 0.35869 0.48651 0.86549 0.0
C608 C 0.42613 0.50107 0.82719 0.0
C609 C 0.41455 0.52376 0.85744 0.0
N610 N 0.33732 0.60328 0.93963 0.0
C611 C 0.2791 0.63538 0.96212 0.0
C612 C 0.29514 0.67176 0.95582 0.0
C613 C 0.334 0.67299 0.94594 0.0
C614 C 0.35453 0.63886 0.9391 0.0
C615 C 0.30081 0.60177 0.95463 0.0
H616 H 0.38382 0.64241 0.93153 0.0
H617 H 0.28682 0.57498 0.95963 0.0
H618 H 0.33225 0.48001 0.87977 0.0
H619 H 0.4332 0.54692 0.86454 0.0
C620 C 0.43099 0.61675 0.88631 0.0
C621 C 0.30788 0.58848 0.82741 0.0
C622 C 0.41918 0.51153 0.97428 0.0
C623 C 0.28592 0.50706 0.93527 0.0
H624 H 0.35589 0.64048 0.78435 0.0
H625 H 0.42174 0.65764 0.81734 0.0
H626 H 0.49864 0.6087 0.93119 0.0
H627 H 0.49223 0.54966 0.97786 0.0
H628 H 0.37344 0.45665 0.01523 0.0
H629 H 0.30032 0.45547 0.9954 0.0
H630 H 0.21776 0.51553 0.89139 0.0
H631 H 0.22962 0.56156 0.83343 0.0
H632 H 0.35094 0.43918 0.82658 0.0
H633 H 0.45273 0.50798 0.81279 0.0
H634 H 0.24938 0.63278 0.9709 0.0
H635 H 0.3482 0.7004 0.94187 0.0
C636 C 0.92183 0.17923 0.68997 0.0
C637 C 0.8952 0.16519 0.71569 0.0
C638 C 0.87461 0.13682 0.6977 0.0
C639 C 0.89006 0.13426 0.66225 0.0
N640 N 0.91944 0.15896 0.65723 0.0
Co641 Co 0.95171 0.16161 0.61144 0.0
N642 N 0.93455 0.11056 0.59262 0.0
C643 C 0.90241 0.0922 0.60346 0.0
C644 C 0.89933 0.05633 0.58727 0.0
C645 C 0.93164 0.052 0.56516 0.0
C646 C 0.95292 0.08543 0.56914 0.0
N647 N 0.98428 0.16365 0.56566 0.0
C648 C 0.99875 0.13451 0.54428 0.0
C649 C 0.02168 0.1489 0.51564 0.0
C650 C 0.02152 0.18823 0.5194 0.0
C651 C 0.99862 0.19576 0.55007 0.0
N652 N 0.97004 0.21256 0.62901 0.0
C653 C 0.98551 0.23966 0.6066 0.0
C654 C 0.99251 0.27354 0.6251 0.0
C655 C 0.9804 0.26749 0.6613 0.0
C656 C 0.96703 0.22979 0.66318 0.0
N657 N 0.99339 0.1365 0.63984 0.0
C658 C 0.04057 0.11179 0.69927 0.0
C659 C 0.05204 0.14242 0.67611 0.0
C660 C 0.02804 0.1542 0.64624 0.0
C661 C 1.00737 0.09151 0.68937 0.0
C662 C 0.98441 0.10416 0.65986 0.0
N663 N 0.90754 0.18763 0.58561 0.0
C664 C 0.8564 0.23493 0.59149 0.0
C665 C 0.83774 0.22135 0.55942 0.0
C666 C 0.85526 0.19059 0.53991 0.0
C667 C 0.89047 0.1745 0.55316 0.0
C668 C 0.89021 0.21764 0.60421 0.0
H669 H 0.90319 0.15083 0.53784 0.0
H670 H 0.90102 0.22805 0.63054 0.0
H671 H 0.03625 0.1791 0.63 0.0
H672 H 0.95773 0.08925 0.65556 0.0
C673 C 0.88256 0.10502 0.63567 0.0
C674 C 0.94708 0.21326 0.69619 0.0
C675 C 0.9897 0.09334 0.5494 0.0
C676 C 0.99719 0.23062 0.56985 0.0
H677 H 0.89105 0.174 0.74457 0.0
H678 H 0.85229 0.11896 0.70974 0.0
H679 H 0.87768 0.03473 0.59293 0.0
H680 H 0.93911 0.02692 0.54866 0.0
H681 H 0.03723 0.13273 0.49453 0.0
H682 H 0.03807 0.20864 0.50311 0.0
H683 H 1.00522 0.29947 0.61377 0.0
H684 H 0.98025 0.28903 0.68326 0.0
H685 H 0.078 0.15844 0.68232 0.0
H686 H 0.99799 0.06692 0.70567 0.0
H687 H 0.84398 0.25814 0.60784 0.0
H688 H 0.84192 0.17905 0.51478 0.0
C689 C 0.35281 0.93712 0.68508 0.0
C690 C 0.36716 0.91003 0.71012 0.0
C691 C 0.39591 0.89044 0.69174 0.0
C692 C 0.39824 0.90688 0.65674 0.0
N693 N 0.37314 0.936 0.65234 0.0
Co694 Co 0.36905 0.96829 0.60665 0.0
N695 N 0.41991 0.95164 0.58671 0.0
C696 C 0.4389 0.91978 0.59727 0.0
C697 C 0.47438 0.91688 0.58031 0.0
C698 C 0.47784 0.94901 0.55794 0.0
C699 C 0.44432 0.97004 0.56257 0.0
N700 N 0.3656 1.00079 0.56079 0.0
C701 C 0.39407 1.01554 0.53867 0.0
C702 C 0.3786 0.0396 0.51142 0.0
C703 C 0.33947 0.03927 0.51633 0.0
C704 C 0.33299 1.01555 0.54648 0.0
N705 N 0.31824 0.98614 0.62549 0.0
C706 C 0.29067 1.00203 0.60389 0.0
C707 C 0.25722 1.00902 0.62307 0.0
C708 C 0.26393 0.99633 0.65891 0.0
C709 C 0.30156 0.98257 0.65988 0.0
N710 N 0.39458 1.01028 0.63439 0.0
C711 C 0.42505 0.0618 0.68783 0.0
C712 C 0.39143 0.0709 0.66779 0.0
C713 C 0.37707 0.04503 0.64058 0.0
C714 C 0.44382 0.0274 0.67917 0.0
C715 C 0.42812 1.00216 0.65293 0.0
N716 N 0.34285 0.9239 0.58132 0.0
C717 C 0.29698 0.87162 0.58835 0.0
C718 C 0.31079 0.85292 0.55646 0.0
C719 C 0.34051 0.87115 0.53616 0.0
C720 C 0.3558 0.90691 0.54879 0.0
C721 C 0.31337 0.90617 0.60036 0.0
H722 H 0.37892 0.92002 0.53303 0.0
H723 H 0.30293 0.9171 0.62659 0.0
H724 H 0.35097 0.0524 0.62578 0.0
H725 H 0.44236 0.97501 0.64944 0.0
C726 C 0.427 0.8998 0.62964 0.0
C727 C 0.3181 0.96115 0.69195 0.0
C728 C 0.43555 1.0062 0.54219 0.0
C729 C 0.29884 1.01405 0.56721 0.0
H730 H 0.35791 0.9047 0.73868 0.0
H731 H 0.41384 0.86782 0.7031 0.0
H732 H 0.49628 0.89541 0.58549 0.0
H733 H 0.50238 0.95645 0.54068 0.0
H734 H 0.3937 0.05648 0.49065 0.0
H735 H 0.31855 0.05652 0.50138 0.0
H736 H 0.23112 0.02202 0.6124 0.0
H737 H 0.24273 0.99595 0.68115 0.0
H738 H 0.37622 0.09747 0.67336 0.0
H739 H 0.46966 0.01894 0.69411 0.0
H740 H 0.27443 0.85864 0.60515 0.0
H741 H 0.35218 0.85771 0.51116 0.0
C742 C 0.6115 0.34742 0.67533 0.0
C743 C 0.63418 0.36506 0.70254 0.0
C744 C 0.64553 0.39967 0.6881 0.0
C745 C 0.62884 0.40167 0.65321 0.0
N746 N 0.6078 0.37022 0.64441 0.0
Co747 Co 0.57453 0.36385 0.5988 0.0
N748 N 0.5852 0.41762 0.58068 0.0
C749 C 0.61134 0.44231 0.59528 0.0
C750 C 0.6103 0.47804 0.57897 0.0
C751 C 0.58109 0.47641 0.5532 0.0
C752 C 0.56562 0.43974 0.55538 0.0
N753 N 0.53974 0.35851 0.5539 0.0
C754 C 0.52338 0.38614 0.53174 0.0
C755 C 0.4964 0.37025 0.50741 0.0
C756 C 0.49559 0.33173 0.51438 0.0
C757 C 0.52155 0.32608 0.54283 0.0
N758 N 0.56365 0.31017 0.61597 0.0
C759 C 0.54396 0.28304 0.59672 0.0
C760 C 0.54305 0.24801 0.61421 0.0
C761 C 0.56293 0.25325 0.64692 0.0
C762 C 0.57436 0.29156 0.64774 0.0
N763 N 0.53032 0.38331 0.6291 0.0
C764 C 0.47512 0.40729 0.68281 0.0
C765 C 0.47123 0.37204 0.66397 0.0
C766 C 0.49866 0.36098 0.63672 0.0
C767 C 0.50618 0.43067 0.67306 0.0
C768 C 0.53313 0.41826 0.64674 0.0
N769 N 0.62085 0.34311 0.5702 0.0
C770 C 0.65416 0.28782 0.54256 0.0
C771 C 0.69062 0.30292 0.55135 0.0
C772 C 0.69096 0.34019 0.56644 0.0
C773 C 0.65649 0.35953 0.57491 0.0
C774 C 0.62015 0.30845 0.55142 0.0
H775 H 0.65987 0.38732 0.58667 0.0
H776 H 0.59365 0.29528 0.54351 0.0
H777 H 0.49442 0.33391 0.62275 0.0
H778 H 0.55685 0.43707 0.64224 0.0
C779 C 0.62985 0.43378 0.62937 0.0
C780 C 0.59351 0.30938 0.68003 0.0
C781 C 0.53122 0.4278 0.53413 0.0
C782 C 0.52466 0.29221 0.56355 0.0
H783 H 0.64125 0.35464 0.73032 0.0
H784 H 0.66275 0.4214 0.70199 0.0
H785 H 0.62678 0.50319 0.5869 0.0
H786 H 0.57112 0.50005 0.53601 0.0
H787 H 0.47773 0.38486 0.48778 0.0
H788 H 0.47632 0.31076 0.50201 0.0
H789 H 0.52892 0.222 0.60472 0.0
H790 H 0.56779 0.23148 0.66811 0.0
H791 H 0.44731 0.35315 0.67023 0.0
H792 H 0.51071 0.45807 0.68695 0.0
H793 H 0.65164 0.25994 0.52919 0.0
H794 H 0.7178 0.35419 0.57357 0.0
C795 C 0.19164 0.63013 0.67773 0.0
C796 C 0.17765 0.65757 0.70261 0.0
C797 C 0.14529 0.67286 0.68654 0.0
C798 C 0.14083 0.65377 0.65303 0.0
N799 N 0.16864 0.62741 0.64676 0.0
Co800 Co 0.17067 0.59069 0.60344 0.0
N801 N 0.11697 0.60366 0.58642 0.0
C802 C 0.09452 0.63191 0.60059 0.0
C803 C 0.05811 0.63236 0.58565 0.0
C804 C 0.05693 0.60196 0.56116 0.0
C805 C 0.09277 0.58447 0.56256 0.0
N806 N 0.17243 0.55373 0.56003 0.0
C807 C 0.14351 0.53906 0.53822 0.0
C808 C 0.15746 0.51109 0.51383 0.0
C809 C 0.19606 0.50822 0.5202 0.0
C810 C 0.20372 0.53401 0.54838 0.0
N811 N 0.22343 0.57593 0.62082 0.0
C812 C 0.24829 0.55251 0.60273 0.0
C813 C 0.28276 0.5481 0.62092 0.0
C814 C 0.27927 0.56924 0.65313 0.0
C815 C 0.24252 0.58503 0.65287 0.0
N816 N 0.14889 0.55014 0.63651 0.0
C817 C 0.12644 0.50141 0.69614 0.0
C818 C 0.15561 0.49033 0.67102 0.0
C819 C 0.16632 0.51508 0.64133 0.0
C820 C 0.10693 0.53565 0.68875 0.0
C821 C 0.11834 0.55918 0.65916 0.0
N822 N 0.19383 0.63385 0.57187 0.0
C823 C 0.25213 0.6672 0.55123 0.0
C824 C 0.23385 0.7032 0.5515 0.0
C825 C 0.194 0.70266 0.55788 0.0
C826 C 0.17483 0.66819 0.56706 0.0
C827 C 0.23176 0.63338 0.56066 0.0
H828 H 0.14468 0.67073 0.57104 0.0
H829 H 0.24785 0.60741 0.55929 0.0
H830 H 0.18963 0.50632 0.62337 0.0
H831 H 0.10311 0.58559 0.65625 0.0
C832 C 0.10746 0.65461 0.63078 0.0
C833 C 0.22631 0.60666 0.6845 0.0
C834 C 0.10243 0.54967 0.54071 0.0
C835 C 0.23777 0.53458 0.56915 0.0
H836 H 0.18863 0.66511 0.73008 0.0
H837 H 0.12594 0.69367 0.699 0.0
H838 H 0.03466 0.65146 0.59291 0.0
H839 H 0.03223 0.59316 0.5447 0.0
H840 H 0.14148 0.49318 0.4945 0.0
H841 H 0.21566 0.48766 0.50771 0.0
H842 H 0.30719 0.53098 0.61219 0.0
H843 H 0.30103 0.57203 0.67476 0.0
H844 H 0.17106 0.46364 0.67516 0.0
H845 H 0.08328 0.54491 0.70644 0.0
H846 H 0.28236 0.66492 0.54424 0.0
H847 H 0.17745 0.72899 0.55749 0.0
C848 C 0.27483 0.75065 0.10775 0.0
C849 C 0.24723 0.74422 0.1368 0.0
H850 H 0.31851 0.78685 0.0824 0.0
C851 C 0.24675 0.7741 0.16434 0.0
H852 H 0.27638 0.73031 0.08474 0.0
C853 C 0.27242 0.80688 0.16367 0.0
C854 C 0.30055 0.81308 0.13499 0.0
H855 H 0.22597 0.77219 0.18687 0.0
H856 H 0.27008 0.82772 0.18619 0.0
C857 C 0.30005 0.7838 0.10667 0.0
C858 C 0.78793 0.25513 0.14677 0.0
C859 C 0.78792 0.21859 0.1285 0.0
H860 H 0.75754 0.30704 0.16243 0.0
C861 C 0.75288 0.21124 0.10858 0.0
H862 H 0.81373 0.26454 0.16104 0.0
C863 C 0.71985 0.23656 0.10958 0.0
C864 C 0.71904 0.27181 0.13017 0.0
H865 H 0.7508 0.18569 0.09133 0.0
H866 H 0.69476 0.2284 0.09339 0.0
C867 C 0.75493 0.28041 0.14757 0.0
C868 C 0.26606 0.7952 0.3603 0.0
C869 C 0.23421 0.79832 0.38559 0.0
H870 H 0.31477 0.7626 0.33877 0.0
C871 C 0.23146 0.76602 0.41039 0.0
H872 H 0.27156 0.81855 0.34099 0.0
C873 C 0.25592 0.73241 0.40776 0.0
C874 C 0.28631 0.72859 0.38103 0.0
H875 H 0.21115 0.76676 0.43328 0.0
H876 H 0.25138 0.70946 0.4278 0.0
C877 C 0.29116 0.76204 0.35845 0.0
C878 C 0.77432 0.30711 0.35086 0.0
C879 C 0.80594 0.30519 0.37634 0.0
H880 H 0.71916 0.28507 0.33164 0.0
C881 C 0.8011 0.27675 0.40483 0.0
H882 H 0.77506 0.32858 0.32892 0.0
C883 C 0.76793 0.25171 0.407 0.0
C884 C 0.73705 0.25235 0.38041 0.0
H885 H 0.82285 0.27425 0.42649 0.0
H886 H 0.76626 0.23238 0.43071 0.0
C887 C 0.74138 0.28175 0.35271 0.0
C888 C 0.80821 0.25184 0.94941 0.0
C889 C 0.81319 0.28901 0.96492 0.0
H890 H 0.76924 0.20576 0.93576 0.0
C891 C 0.78074 0.30592 0.98239 0.0
H892 H 0.83165 0.23764 0.93499 0.0
C893 C 0.74458 0.28733 0.98254 0.0
C894 C 0.7397 0.25092 0.96585 0.0
H895 H 0.78286 0.33403 0.9953 0.0
H896 H 0.71999 0.30216 0.99437 0.0
C897 C 0.77219 0.23324 0.94988 0.0
C898 C 0.2627 0.72403 0.91929 0.0
C899 C 0.27125 0.70782 0.95443 0.0
H900 H 0.23794 0.77062 0.88861 0.0
C901 C 0.25899 0.72766 0.98697 0.0
H902 H 0.27144 0.70946 0.89371 0.0
C903 C 0.24001 0.76368 0.98418 0.0
C904 C 0.23288 0.78066 0.94875 0.0
H905 H 0.26518 0.71593 0.01451 0.0
H906 H 0.23234 0.77886 0.00972 0.0
C907 C 0.24363 0.75945 0.91648 0.0
C908 C 0.76311 0.29911 0.53953 0.0
C909 C 0.72781 0.28024 0.54653 0.0
H910 H 0.82485 0.29544 0.53756 0.0
C911 C 0.72929 0.23999 0.55208 0.0
H912 H 0.76377 0.32969 0.53402 0.0
C913 C 0.76479 0.22004 0.55309 0.0
C914 C 0.79997 0.23964 0.54861 0.0
H915 H 0.70319 0.22407 0.55782 0.0
H916 H 0.76483 0.18967 0.55975 0.0
C917 C 0.79841 0.2793 0.54094 0.0
C918 C 0.29425 0.74451 0.55993 0.0
C919 C 0.25597 0.74073 0.54688 0.0
H920 H 0.34169 0.78241 0.57239 0.0
C921 C 0.23834 0.77411 0.53211 0.0
H922 H 0.30908 0.72013 0.57204 0.0
C923 C 0.25723 0.81004 0.53265 0.0
C924 C 0.29472 0.81385 0.54718 0.0
H925 H 0.20941 0.7729 0.52091 0.0
H926 H 0.24185 0.83526 0.52302 0.0
C927 C 0.31323 0.7804 0.56009 0.0
C928 C 0.03133 0.47071 0.24062 0.0
C929 C 0.02079 0.48142 0.27772 0.0
H930 H 0.0619 0.48498 0.18932 0.0
C931 C 0.03676 0.51639 0.29102 0.0
H932 H 0.02007 0.44428 0.22882 0.0
C933 C 0.0606 0.54006 0.26808 0.0
C934 C 0.07057 0.52973 0.23081 0.0
H935 H 0.03042 0.52587 0.31938 0.0
H936 H 0.07113 0.56692 0.27959 0.0
C937 C 0.0556 0.49423 0.21776 0.0
C938 C 0.04191 0.0306 0.20816 0.0
C939 C 1.00962 0.04926 0.22427 0.0
H940 H 0.09044 0.99222 0.21585 0.0
C941 C 1.00399 0.04325 0.26324 0.0
H942 H 0.0474 0.03375 0.17834 0.0
C943 C 0.02889 0.01949 0.28491 0.0
C944 C 0.06046 0.99972 0.2687 0.0
H945 H 0.97964 0.05662 0.27706 0.0
H946 H 0.02297 1.01611 0.31463 0.0
C947 C 0.06671 1.00646 0.22984 0.0
C948 C 0.50598 0.04658 0.29435 0.0
C949 C 0.53031 0.07381 0.27672 0.0
H950 H 0.46304 1.00182 0.28828 0.0
C951 C 0.52803 0.07564 0.237 0.0
H952 H 0.5064 0.04402 0.32471 0.0
C953 C 0.50328 0.05095 0.21593 0.0
C954 C 0.47915 0.02356 0.23357 0.0
H955 H 0.54596 0.09596 0.22202 0.0
H956 H 0.50308 0.05325 0.18555 0.0
C957 C 0.48087 0.02223 0.27332 0.0
C958 C 0.52317 0.49692 0.24396 0.0
C959 C 0.5126 0.45848 0.23499 0.0
H960 H 0.50694 0.55272 0.26486 0.0
C961 C 0.47542 0.44799 0.24814 0.0
H962 H 0.55145 0.50739 0.23661 0.0
C963 C 0.45252 0.47248 0.27139 0.0
C964 C 0.46188 0.51164 0.27827 0.0
H965 H 0.46324 0.42048 0.24068 0.0
H966 H 0.42744 0.4598 0.28421 0.0
C967 C 0.49774 0.52313 0.26254 0.0
C968 C 0.10998 0.49869 0.76475 0.0
C969 C 0.11613 0.47901 0.7306 0.0
H970 H 0.08685 0.49673 0.82061 0.0
C971 C 0.10823 0.43933 0.72922 0.0
H972 H 0.11636 0.52909 0.76704 0.0
C973 C 0.09166 0.42061 0.7604 0.0
C974 C 0.08296 0.44125 0.79342 0.0
H975 H 0.11254 0.42339 0.70336 0.0
H976 H 0.08334 0.3907 0.75785 0.0
C977 C 0.09341 0.48013 0.7956 0.0
C978 C 0.05468 0.07909 0.79972 0.0
C979 C 0.09348 0.06798 0.80005 0.0
H980 H 1.00806 0.10255 0.76794 0.0
C981 C 0.11653 0.07659 0.7686 0.0
H982 H 0.03629 0.07274 0.82353 0.0
C983 C 0.1002 0.09338 0.73627 0.0
C984 C 0.06058 0.10162 0.73504 0.0
H985 H 0.14644 0.06784 0.768 0.0
H986 H 0.11789 0.09749 0.71153 0.0
C987 C 0.03852 0.09586 0.76776 0.0
C988 C 0.43497 0.11122 0.78308 0.0
C989 C 0.47507 0.11666 0.78491 0.0
H990 H 0.38733 0.08967 0.7504 0.0
C991 C 0.49708 0.10949 0.75244 0.0
H992 H 0.41724 0.11661 0.80757 0.0
C993 C 0.48012 0.09441 0.71999 0.0
C994 C 0.44057 0.08615 0.71892 0.0
H995 H 0.5279 0.11423 0.75258 0.0
H996 H 0.49832 0.0875 0.69618 0.0
C997 C 0.41785 0.096 0.75031 0.0
C998 C 0.441 0.39677 0.74497 0.0
C999 C 0.44862 0.42015 0.71348 0.0
H1000 H 0.42011 0.3945 0.8021 0.0
C1001 C 0.43557 0.45841 0.71401 0.0
H1002 H 0.45096 0.36728 0.74553 0.0
C1003 C 0.41823 0.47383 0.74613 0.0
C1004 C 0.41323 0.45144 0.77863 0.0
H1005 H 0.44059 0.47708 0.69014 0.0
H1006 H 0.41044 0.50399 0.74625 0.0
C1007 C 0.42342 0.41232 0.77735 0.0
C1008 C 0.23625 0.71981 0.27178 0.0
C1009 C 0.21521 0.69584 0.29612 0.0
H1010 H 0.24213 0.77703 0.25012 0.0
C1011 C 0.19654 0.7123 0.32699 0.0
H1012 H 0.25135 0.7077 0.24788 0.0
C1013 C 0.18785 0.7512 0.32567 0.0
C1014 C 0.20206 0.77427 0.29631 0.0
H1015 H 0.18087 0.69434 0.3466 0.0
H1016 H 0.16742 0.76249 0.3457 0.0
C1017 C 0.22954 0.75928 0.27181 0.0
C1018 C 0.81254 0.2318 0.2452 0.0
C1019 C 0.83599 0.21615 0.27356 0.0
H1020 H 0.75475 0.23691 0.22447 0.0
C1021 C 0.82006 0.20807 0.3087 0.0
H1022 H 0.82477 0.23854 0.21808 0.0
C1023 C 0.78034 0.20593 0.31193 0.0
C1024 C 0.7567 0.21415 0.28089 0.0
H1025 H 0.83771 0.19606 0.33092 0.0
H1026 H 0.76841 0.19323 0.33699 0.0
C1027 C 0.77264 0.23014 0.24853 0.0
C1028 C 0.32404 0.73893 0.25851 0.0
C1029 C 0.34163 0.7163 0.23059 0.0
H1030 H 0.31636 0.79565 0.28096 0.0
C1031 C 0.35945 0.73371 0.19995 0.0
H1032 H 0.31208 0.72557 0.28337 0.0
C1033 C 0.36433 0.77322 0.20021 0.0
C1034 C 0.35038 0.79543 0.23036 0.0
H1035 H 0.37407 0.71661 0.17884 0.0
H1036 H 0.38214 0.78595 0.17879 0.0
C1037 C 0.32761 0.77864 0.25793 0.0
C1038 C 0.77309 0.37237 0.19502 0.0
C1039 C 0.75275 0.35194 0.22278 0.0
H1040 H 0.82834 0.38869 0.17421 0.0
C1041 C 0.77218 0.32598 0.24586 0.0
H1042 H 0.7583 0.39111 0.17546 0.0
C1043 C 0.81204 0.32441 0.24485 0.0
C1044 C 0.83267 0.34883 0.22065 0.0
H1045 H 0.75684 0.30927 0.26667 0.0
H1046 H 0.82653 0.30837 0.26679 0.0
C1047 C 0.81291 0.36984 0.1932 0.0
C1048 C 0.98204 0.24905 0.74782 0.0
C1049 C 0.94704 0.23599 0.73246 0.0
H1050 H 1.01012 0.28498 0.78856 0.0
C1051 C 0.91264 0.2483 0.74965 0.0
H1052 H 1.00911 0.24052 0.7352 0.0
C1053 C 0.91335 0.27165 0.78198 0.0
C1054 C 0.94831 0.28606 0.79628 0.0
H1055 H 0.88501 0.24045 0.73788 0.0
H1056 H 0.88638 0.27864 0.7956 0.0
C1057 C 0.98261 0.27457 0.77843 0.0
C1058 C 0.28056 0.98975 0.7462 0.0
C1059 C 0.29413 0.95695 0.72711 0.0
H1060 H 0.24376 1.01236 0.78948 0.0
C1061 C 0.28138 0.92068 0.73948 0.0
H1062 H 0.2895 0.01814 0.73726 0.0
C1063 C 0.25678 0.9173 0.77065 0.0
C1064 C 0.24195 0.95016 0.78874 0.0
H1065 H 0.2901 0.89479 0.72487 0.0
H1066 H 0.24942 0.88883 0.78055 0.0
C1067 C 0.25419 0.98645 0.77596 0.0
C1068 C 0.62795 0.25688 0.76824 0.0
C1069 C 0.59307 0.24325 0.78331 0.0
H1070 H 0.65572 0.28689 0.72298 0.0
C1071 C 0.55857 0.25272 0.76492 0.0
H1072 H 0.65493 0.25138 0.78248 0.0
C1073 C 0.55885 0.27553 0.73251 0.0
C1074 C 0.59374 0.28835 0.71684 0.0
H1075 H 0.53124 0.24317 0.77621 0.0
H1076 H 0.53172 0.28272 0.71925 0.0
C1077 C 0.62834 0.27826 0.73479 0.0
C1078 C 0.27959 0.63102 0.77607 0.0
C1079 C 0.28779 0.59415 0.79029 0.0
H1080 H 0.2558 0.6641 0.73064 0.0
C1081 C 0.27431 0.56201 0.77015 0.0
H1082 H 0.28875 0.65643 0.79127 0.0
C1083 C 0.25261 0.56652 0.73728 0.0
C1084 C 0.24527 0.60325 0.7224 0.0
H1085 H 0.28006 0.53322 0.78027 0.0
H1086 H 0.24231 0.54106 0.72282 0.0
C1087 C 0.25958 0.63547 0.74194 0.0
C1088 C 0.08453 0.51248 0.99966 0.0
C1089 C 0.06786 0.53554 0.02813 0.0
H1090 H 0.07683 0.46751 0.95846 0.0
C1091 C 0.02821 0.52985 0.03536 0.0
H1092 H 0.11462 0.51573 0.99256 0.0
C1093 C 1.00645 0.50206 0.01547 0.0
C1094 C 0.02327 0.47907 0.98724 0.0
H1095 H 1.01404 0.54607 0.05736 0.0
H1096 H 0.97653 0.49791 0.0229 0.0
C1097 C 0.06269 0.48482 0.97972 0.0
C1098 C 0.03349 0.97361 0.01543 0.0
C1099 C 0.05381 0.99026 0.98529 0.0
H1100 H 0.99155 0.98062 0.05922 0.0
C1101 C 0.04473 0.0285 0.97587 0.0
H1102 H 0.04017 0.94454 0.02412 0.0
C1103 C 1.01624 0.04937 0.99568 0.0
C1104 C 0.99596 0.03314 0.02639 0.0
H1105 H 0.05992 0.04244 0.95304 0.0
H1106 H 1.01028 0.07841 0.9866 0.0
C1107 C 1.00525 0.99458 0.03559 0.0
C1108 C 0.49481 0.06093 0.05427 0.0
C1109 C 0.47294 0.03222 0.03599 0.0
H1110 H 0.5354 0.10736 0.04939 0.0
C1111 C 0.47732 0.02877 0.99661 0.0
H1112 H 0.49316 0.06413 0.08455 0.0
C1113 C 0.50121 0.05439 0.97622 0.0
C1114 C 0.52177 0.084 0.99454 0.0
H1115 H 0.46129 1.00705 0.98138 0.0
H1116 H 0.50287 0.05166 0.9459 0.0
C1117 C 0.5191 0.08591 0.03404 0.0
C1118 C 0.44324 0.48404 0.03655 0.0
C1119 C 0.44634 0.4863 0.99712 0.0
H1120 H 0.46331 0.45867 0.08791 0.0
C1121 C 0.47492 0.46372 0.97964 0.0
H1122 H 0.4221 0.50141 0.05114 0.0
C1123 C 0.49886 0.43886 1.00082 0.0
C1124 C 0.49496 0.43562 0.04029 0.0
H1125 H 0.47833 0.46481 0.94937 0.0
H1126 H 0.51986 0.42154 0.98604 0.0
C1127 C 0.46689 0.45914 0.05766 0.0
C1128 C 0.02575 0.03237 0.46607 0.0
C1129 C 0.05749 1.01189 0.48106 0.0
H1130 H 0.9799 0.07304 0.4753 0.0
C1131 C 0.06448 0.01624 0.52001 0.0
H1132 H 0.01857 0.02967 0.43653 0.0
C1133 C 0.04183 0.04147 0.54243 0.0
C1134 C 1.01113 0.06281 0.52682 0.0
H1135 H 0.08845 1.00138 0.53291 0.0
H1136 H 0.04902 0.04512 0.57187 0.0
C1137 C 1.00315 0.05722 0.48841 0.0
C1138 C 0.49003 0.0529 0.45922 0.0
C1139 C 0.519 0.07498 0.47696 0.0
H1140 H 0.44289 1.01319 0.46498 0.0
C1141 C 0.52209 0.07162 0.51649 0.0
H1142 H 0.48695 0.05374 0.42891 0.0
C1143 C 0.49593 0.04865 0.53745 0.0
C1144 C 0.46606 0.02793 0.51962 0.0
H1145 H 0.54389 0.08782 0.53143 0.0
H1146 H 0.49844 0.04794 0.56782 0.0
C1147 C 0.46454 0.02952 0.48002 0.0
C1148 C 0.48697 0.48661 0.53261 0.0
C1149 C 0.50658 0.45704 0.51325 0.0
H1150 H 0.44757 0.53452 0.52927 0.0
C1151 C 0.50218 0.45535 0.47388 0.0
H1152 H 0.48997 0.48917 0.56284 0.0
C1153 C 0.47725 0.48065 0.45482 0.0
C1154 C 0.45672 0.50952 0.47418 0.0
H1155 H 0.51767 0.43393 0.45776 0.0
H1156 H 0.47414 0.4777 0.42462 0.0
C1157 C 0.46264 0.51265 0.51334 0.0
C1158 C 0.04735 0.50096 0.45929 0.0
C1159 C 0.01701 0.4819 0.47778 0.0
H1160 H 0.09648 0.53834 0.46389 0.0
C1161 C 1.01364 0.48708 0.51699 0.0
H1162 H 0.05065 0.49801 0.42912 0.0
C1163 C 0.04078 0.50941 0.53722 0.0
C1164 C 0.07178 0.52765 0.51878 0.0
H1165 H 0.99064 0.47295 0.53217 0.0
H1166 H 0.03796 0.51183 0.56748 0.0
C1167 C 0.0738 0.52397 0.47931 0.0
loop_
_geom_bond_atom_site_label_1
_geom_bond_atom_site_label_2
_geom_bond_distance
_geom_bond_site_symmetry_2
_ccdc_geom_bond_type
C0 C1 1.443 . S
C0 N4 1.376 . S
C0 C38 1.389 . S
C1 C0 1.443 . S
C1 C2 1.340 . S
C1 H41 0.951 . S
C2 C1 1.340 . S
C2 C3 1.439 . S
C2 H42 0.950 . S
C3 C2 1.439 . S
C3 N4 1.374 . S
C3 C37 1.395 . S
N4 C0 1.376 . S
N4 C3 1.374 . S
N4 Co5 2.008 . S
Co5 N4 2.008 . S
Co5 N6 1.995 . S
Co5 N11 2.008 . S
Co5 N16 1.995 . S
Co5 N21 2.282 . S
Co5 N27 2.282 . S
N6 Co5 1.995 . S
N6 C7 1.376 . S
N6 C10 1.383 . S
C7 N6 1.376 . S
C7 C8 1.446 . S
C7 C37 1.391 . S
C8 C7 1.446 . S
C8 C9 1.339 . S
C8 H43 0.949 . S
C9 C8 1.339 . S
C9 C10 1.439 . S
C9 H44 0.950 . S
C10 N6 1.383 . S
C10 C9 1.439 . S
C10 C39 1.392 . S
N11 Co5 2.008 . S
N11 C12 1.376 . S
N11 C15 1.374 . S
C12 N11 1.376 . S
C12 C13 1.443 . S
C12 C39 1.389 . S
C13 C12 1.443 . S
C13 C14 1.340 . S
C13 H45 0.951 1_455 S
C14 C13 1.340 . S
C14 C15 1.439 . S
C14 H46 0.950 1_455 S
C15 N11 1.374 . S
C15 C14 1.439 . S
C15 C40 1.395 . S
N16 Co5 1.995 . S
N16 C17 1.376 . S
N16 C20 1.383 . S
C17 N16 1.376 . S
C17 C18 1.446 . S
C17 C40 1.391 . S
C18 C17 1.446 . S
C18 C19 1.339 . S
C18 H47 0.949 . S
C19 C18 1.339 . S
C19 C20 1.439 . S
C19 H48 0.950 . S
C20 N16 1.383 . S
C20 C19 1.439 . S
C20 C38 1.392 . S
N21 Co5 2.282 . S
N21 C24 1.332 . S
N21 C26 1.332 . S
C22 C23 1.386 . S
C22 C25 1.388 . S
C23 C22 1.386 . S
C23 C24 1.382 . S
C23 H49 0.950 . S
C24 N21 1.332 . S
C24 C23 1.382 . S
C24 H35 0.952 . S
C25 C22 1.388 . S
C25 C26 1.382 . S
C25 H50 0.950 . S
C26 N21 1.332 . S
C26 C25 1.382 . S
C26 H36 0.948 . S
N27 Co5 2.282 . S
N27 C31 1.332 . S
N27 C32 1.332 . S
C28 C29 1.388 . S
C28 C32 1.382 . S
C28 H51 0.950 . S
C29 C28 1.388 . S
C29 C30 1.386 . S
C30 C29 1.386 . S
C30 C31 1.382 . S
C30 H52 0.950 . S
C31 N27 1.332 . S
C31 C30 1.382 . S
C31 H33 0.952 . S
C32 N27 1.332 . S
C32 C28 1.382 . S
C32 H34 0.948 . S
H33 C31 0.952 . S
H34 C32 0.948 . S
H35 C24 0.952 . S
H36 C26 0.948 . S
C37 C3 1.395 . S
C37 C7 1.391 . S
C38 C0 1.389 . S
C38 C20 1.392 . S
C39 C10 1.392 . S
C39 C12 1.389 . S
C40 C15 1.395 . S
C40 C17 1.391 . S
H41 C1 0.951 . S
H42 C2 0.950 . S
H43 C8 0.949 . S
H44 C9 0.950 . S
H45 C13 0.951 1_655 S
H46 C14 0.950 1_655 S
H47 C18 0.949 . S
H48 C19 0.950 . S
H49 C23 0.950 . S
H50 C25 0.950 . S
H51 C28 0.950 . S
H52 C30 0.950 . S
C53 C54 1.443 . S
C53 N57 1.376 . S
C53 C91 1.389 . S
C54 C53 1.443 . S
C54 C55 1.340 . S
C54 H94 0.951 . S
C55 C54 1.340 . S
C55 C56 1.439 . S
C55 H95 0.950 . S
C56 C55 1.439 . S
C56 N57 1.374 . S
C56 C90 1.395 . S
N57 C53 1.376 . S
N57 C56 1.374 . S
N57 Co58 2.008 . S
Co58 N57 2.008 . S
Co58 N59 1.995 . S
Co58 N64 2.008 . S
Co58 N69 1.995 . S
Co58 N74 2.282 . S
Co58 N80 2.282 . S
N59 Co58 1.995 . S
N59 C60 1.376 . S
N59 C63 1.383 . S
C60 N59 1.376 . S
C60 C61 1.446 . S
C60 C90 1.391 . S
C61 C60 1.446 . S
C61 C62 1.339 1_655 S
C61 H96 0.949 1_655 S
C62 C61 1.339 1_455 S
C62 C63 1.439 1_455 S
C62 H97 0.950 . S
C63 N59 1.383 . S
C63 C62 1.439 1_655 S
C63 C92 1.392 . S
N64 Co58 2.008 . S
N64 C65 1.376 . S
N64 C68 1.374 . S
C65 N64 1.376 . S
C65 C66 1.443 . S
C65 C92 1.389 . S
C66 C65 1.443 . S
C66 C67 1.340 . S
C66 H98 0.951 1_545 S
C67 C66 1.340 . S
C67 C68 1.439 . S
C67 H99 0.950 1_545 S
C68 N64 1.374 . S
C68 C67 1.439 . S
C68 C93 1.395 . S
N69 Co58 1.995 . S
N69 C70 1.376 . S
N69 C73 1.383 . S
C70 N69 1.376 . S
C70 C71 1.446 . S
C70 C93 1.391 . S
C71 C70 1.446 . S
C71 C72 1.339 . S
C71 H100 0.949 . S
C72 C71 1.339 . S
C72 C73 1.439 . S
C72 H101 0.950 . S
C73 N69 1.383 . S
C73 C72 1.439 . S
C73 C91 1.392 . S
N74 Co58 2.282 . S
N74 C77 1.332 . S
N74 C79 1.332 . S
C75 C76 1.409 . S
C75 C78 1.383 1_655 S
C76 C75 1.409 . S
C76 C77 1.382 . S
C76 H102 0.950 . S
C77 N74 1.332 . S
C77 C76 1.382 . S
C77 H88 0.952 . S
C78 C75 1.383 1_455 S
C78 C79 1.382 1_455 S
C78 H103 0.950 . S
C79 N74 1.332 . S
C79 C78 1.382 1_655 S
C79 H89 0.948 . S
N80 Co58 2.282 . S
N80 C84 1.332 . S
N80 C85 1.332 . S
C81 C82 1.388 . S
C81 C85 1.382 . S
C81 H104 0.950 . S
C82 C81 1.388 . S
C82 C83 1.386 . S
C83 C82 1.386 . S
C83 C84 1.382 . S
C83 H105 0.950 . S
C84 N80 1.332 . S
C84 C83 1.382 . S
C84 H86 0.952 . S
C85 N80 1.332 . S
C85 C81 1.382 . S
C85 H87 0.948 . S
H86 C84 0.952 . S
H87 C85 0.948 . S
H88 C77 0.952 . S
H89 C79 0.948 . S
C90 C56 1.395 . S
C90 C60 1.391 . S
C91 C53 1.389 . S
C91 C73 1.392 . S
C92 C63 1.392 . S
C92 C65 1.389 . S
C93 C68 1.395 . S
C93 C70 1.391 . S
H94 C54 0.951 . S
H95 C55 0.950 . S
H96 C61 0.949 1_455 S
H97 C62 0.950 . S
H98 C66 0.951 1_565 S
H99 C67 0.950 1_565 S
H100 C71 0.949 . S
H101 C72 0.950 . S
H102 C76 0.950 . S
H103 C78 0.950 . S
H104 C81 0.950 . S
H105 C83 0.950 . S
C106 C107 1.443 . S
C106 N110 1.376 . S
C106 C144 1.389 . S
C107 C106 1.443 . S
C107 C108 1.340 . S
C107 H147 0.951 . S
C108 C107 1.340 . S
C108 C109 1.439 . S
C108 H148 0.950 . S
C109 C108 1.439 . S
C109 N110 1.374 . S
C109 C143 1.395 . S
N110 C106 1.376 . S
N110 C109 1.374 . S
N110 Co111 2.008 . S
Co111 N110 2.008 . S
Co111 N112 1.995 . S
Co111 N117 2.008 . S
Co111 N122 1.995 . S
Co111 N127 2.282 . S
Co111 N133 2.282 . S
N112 Co111 1.995 . S
N112 C113 1.376 . S
N112 C116 1.383 . S
C113 N112 1.376 . S
C113 C114 1.446 . S
C113 C143 1.391 . S
C114 C113 1.446 . S
C114 C115 1.339 1_565 S
C114 H149 0.949 1_565 S
C115 C114 1.339 1_545 S
C115 C116 1.439 1_545 S
C115 H150 0.950 . S
C116 N112 1.383 . S
C116 C115 1.439 1_565 S
C116 C145 1.392 . S
N117 Co111 2.008 . S
N117 C118 1.376 . S
N117 C121 1.374 . S
C118 N117 1.376 . S
C118 C119 1.443 . S
C118 C145 1.389 . S
C119 C118 1.443 . S
C119 C120 1.340 . S
C119 H151 0.951 . S
C120 C119 1.340 . S
C120 C121 1.439 . S
C120 H152 0.950 . S
C121 N117 1.374 . S
C121 C120 1.439 . S
C121 C146 1.395 . S
N122 Co111 1.995 . S
N122 C123 1.376 . S
N122 C126 1.383 . S
C123 N122 1.376 . S
C123 C124 1.446 . S
C123 C146 1.391 . S
C124 C123 1.446 . S
C124 C125 1.339 . S
C124 H153 0.949 . S
C125 C124 1.339 . S
C125 C126 1.439 . S
C125 H154 0.950 . S
C126 N122 1.383 . S
C126 C125 1.439 . S
C126 C144 1.392 . S
N127 Co111 2.282 . S
N127 C130 1.332 . S
N127 C132 1.332 . S
C128 C129 1.409 . S
C128 C131 1.383 1_565 S
C129 C128 1.409 . S
C129 C130 1.382 . S
C129 H155 0.950 . S
C130 N127 1.332 . S
C130 C129 1.382 . S
C130 H141 0.952 . S
C131 C128 1.383 1_545 S
C131 C132 1.382 1_545 S
C131 H156 0.950 . S
C132 N127 1.332 . S
C132 C131 1.382 1_565 S
C132 H142 0.948 . S
N133 Co111 2.282 . S
N133 C137 1.332 . S
N133 C138 1.332 . S
C134 C135 1.388 . S
C134 C138 1.382 . S
C134 H157 0.950 . S
C135 C134 1.388 . S
C135 C136 1.386 . S
C136 C135 1.386 . S
C136 C137 1.382 . S
C136 H158 0.950 . S
C137 N133 1.332 . S
C137 C136 1.382 . S
C137 H139 0.952 . S
C138 N133 1.332 . S
C138 C134 1.382 . S
C138 H140 0.948 . S
H139 C137 0.952 . S
H140 C138 0.948 . S
H141 C130 0.952 . S
H142 C132 0.948 . S
C143 C109 1.395 . S
C143 C113 1.391 . S
C144 C106 1.389 . S
C144 C126 1.392 . S
C145 C116 1.392 . S
C145 C118 1.389 . S
C146 C121 1.395 . S
C146 C123 1.391 . S
H147 C107 0.951 . S
H148 C108 0.950 . S
H149 C114 0.949 1_545 S
H150 C115 0.950 . S
H151 C119 0.951 . S
H152 C120 0.950 . S
H153 C124 0.949 . S
H154 C125 0.950 . S
H155 C129 0.950 . S
H156 C131 0.950 . S
H157 C134 0.950 . S
H158 C136 0.950 . S
C159 C160 1.443 . S
C159 N163 1.376 . S
C159 C197 1.389 . S
C160 C159 1.443 . S
C160 C161 1.340 . S
C160 H200 0.951 . S
C161 C160 1.340 . S
C161 C162 1.439 . S
C161 H201 0.950 . S
C162 C161 1.439 . S
C162 N163 1.374 . S
C162 C196 1.395 . S
N163 C159 1.376 . S
N163 C162 1.374 . S
N163 Co164 2.008 . S
Co164 N163 2.008 . S
Co164 N165 1.995 . S
Co164 N170 2.008 . S
Co164 N175 1.995 . S
Co164 N180 2.282 . S
Co164 N186 2.282 . S
N165 Co164 1.995 . S
N165 C166 1.376 . S
N165 C169 1.383 . S
C166 N165 1.376 . S
C166 C167 1.446 . S
C166 C196 1.391 . S
C167 C166 1.446 . S
C167 C168 1.339 . S
C167 H202 0.949 . S
C168 C167 1.339 . S
C168 C169 1.439 . S
C168 H203 0.950 . S
C169 N165 1.383 . S
C169 C168 1.439 . S
C169 C198 1.392 . S
N170 Co164 2.008 . S
N170 C171 1.376 . S
N170 C174 1.374 . S
C171 N170 1.376 . S
C171 C172 1.443 . S
C171 C198 1.389 . S
C172 C171 1.443 . S
C172 C173 1.340 . S
C172 H204 0.951 . S
C173 C172 1.340 . S
C173 C174 1.439 . S
C173 H205 0.950 . S
C174 N170 1.374 . S
C174 C173 1.439 . S
C174 C199 1.395 . S
N175 Co164 1.995 . S
N175 C176 1.376 . S
N175 C179 1.383 . S
C176 N175 1.376 . S
C176 C177 1.446 . S
C176 C199 1.391 . S
C177 C176 1.446 . S
C177 C178 1.339 . S
C177 H206 0.949 . S
C178 C177 1.339 . S
C178 C179 1.439 . S
C178 H207 0.950 . S
C179 N175 1.383 . S
C179 C178 1.439 . S
C179 C197 1.392 . S
N180 Co164 2.282 . S
N180 C183 1.332 . S
N180 C185 1.332 . S
C181 C182 1.386 . S
C181 C184 1.388 . S
C182 C181 1.386 . S
C182 C183 1.382 . S
C182 H208 0.950 . S
C183 N180 1.332 . S
C183 C182 1.382 . S
C183 H194 0.952 . S
C184 C181 1.388 . S
C184 C185 1.382 . S
C184 H209 0.950 . S
C185 N180 1.332 . S
C185 C184 1.382 . S
C185 H195 0.948 . S
N186 Co164 2.282 . S
N186 C190 1.332 . S
N186 C191 1.332 . S
C187 C188 1.388 . S
C187 C191 1.382 . S
C187 H210 0.950 . S
C188 C187 1.388 . S
C188 C189 1.386 . S
C189 C188 1.386 . S
C189 C190 1.382 . S
C189 H211 0.950 . S
C190 N186 1.332 . S
C190 C189 1.382 . S
C190 H192 0.952 . S
C191 N186 1.332 . S
C191 C187 1.382 . S
C191 H193 0.948 . S
H192 C190 0.952 . S
H193 C191 0.948 . S
H194 C183 0.952 . S
H195 C185 0.948 . S
C196 C162 1.395 . S
C196 C166 1.391 . S
C197 C159 1.389 . S
C197 C179 1.392 . S
C198 C169 1.392 . S
C198 C171 1.389 . S
C199 C174 1.395 . S
C199 C176 1.391 . S
H200 C160 0.951 . S
H201 C161 0.950 . S
H202 C167 0.949 . S
H203 C168 0.950 . S
H204 C172 0.951 . S
H205 C173 0.950 . S
H206 C177 0.949 . S
H207 C178 0.950 . S
H208 C182 0.950 . S
H209 C184 0.950 . S
H210 C187 0.950 . S
H211 C189 0.950 . S
C212 C213 1.443 . S
C212 N216 1.376 . S
C212 C250 1.389 . S
C213 C212 1.443 . S
C213 C214 1.340 . S
C213 H253 0.951 . S
C214 C213 1.340 . S
C214 C215 1.439 . S
C214 H254 0.950 . S
C215 C214 1.439 . S
C215 N216 1.374 . S
C215 C249 1.395 . S
N216 C212 1.376 . S
N216 C215 1.374 . S
N216 Co217 2.008 . S
Co217 N216 2.008 . S
Co217 N218 1.995 . S
Co217 N223 2.008 . S
Co217 N228 1.995 . S
Co217 N233 2.282 . S
Co217 N239 2.282 . S
N218 Co217 1.995 . S
N218 C219 1.376 . S
N218 C222 1.383 . S
C219 N218 1.376 . S
C219 C220 1.446 . S
C219 C249 1.391 . S
C220 C219 1.446 . S
C220 C221 1.339 1_565 S
C220 H255 0.949 1_565 S
C221 C220 1.339 1_545 S
C221 C222 1.439 1_545 S
C221 H256 0.950 . S
C222 N218 1.383 . S
C222 C221 1.439 1_565 S
C222 C251 1.392 . S
N223 Co217 2.008 . S
N223 C224 1.376 . S
N223 C227 1.374 . S
C224 N223 1.376 . S
C224 C225 1.443 . S
C224 C251 1.389 . S
C225 C224 1.443 . S
C225 C226 1.340 . S
C225 H257 0.951 1_455 S
C226 C225 1.340 . S
C226 C227 1.439 . S
C226 H258 0.950 1_455 S
C227 N223 1.374 . S
C227 C226 1.439 . S
C227 C252 1.395 . S
N228 Co217 1.995 . S
N228 C229 1.376 . S
N228 C232 1.383 . S
C229 N228 1.376 . S
C229 C230 1.446 . S
C229 C252 1.391 . S
C230 C229 1.446 . S
C230 C231 1.339 . S
C230 H259 0.949 . S
C231 C230 1.339 . S
C231 C232 1.439 . S
C231 H260 0.950 . S
C232 N228 1.383 . S
C232 C231 1.439 . S
C232 C250 1.392 . S
N233 Co217 2.282 . S
N233 C236 1.332 . S
N233 C238 1.332 . S
C234 C235 1.409 . S
C234 C237 1.383 1_565 S
C235 C234 1.409 . S
C235 C236 1.382 . S
C235 H261 0.950 . S
C236 N233 1.332 . S
C236 C235 1.382 . S
C236 H247 0.952 . S
C237 C234 1.383 1_545 S
C237 C238 1.382 1_545 S
C237 H262 0.950 . S
C238 N233 1.332 . S
C238 C237 1.382 1_565 S
C238 H248 0.948 . S
N239 Co217 2.282 . S
N239 C243 1.332 . S
N239 C244 1.332 . S
C240 C241 1.388 . S
C240 C244 1.382 . S
C240 H263 0.950 . S
C241 C240 1.388 . S
C241 C242 1.386 . S
C242 C241 1.386 . S
C242 C243 1.382 . S
C242 H264 0.950 . S
C243 N239 1.332 . S
C243 C242 1.382 . S
C243 H245 0.952 . S
C244 N239 1.332 . S
C244 C240 1.382 . S
C244 H246 0.948 . S
H245 C243 0.952 . S
H246 C244 0.948 . S
H247 C236 0.952 . S
H248 C238 0.948 . S
C249 C215 1.395 . S
C249 C219 1.391 . S
C250 C212 1.389 . S
C250 C232 1.392 . S
C251 C222 1.392 . S
C251 C224 1.389 . S
C252 C227 1.395 . S
C252 C229 1.391 . S
H253 C213 0.951 . S
H254 C214 0.950 . S
H255 C220 0.949 1_545 S
H256 C221 0.950 . S
H257 C225 0.951 1_655 S
H258 C226 0.950 1_655 S
H259 C230 0.949 . S
H260 C231 0.950 . S
H261 C235 0.950 . S
H262 C237 0.950 . S
H263 C240 0.950 . S
H264 C242 0.950 . S
C265 C266 1.443 . S
C265 N269 1.376 . S
C265 C303 1.389 . S
C266 C265 1.443 . S
C266 C267 1.340 . S
C266 H306 0.951 . S
C267 C266 1.340 . S
C267 C268 1.439 . S
C267 H307 0.950 . S
C268 C267 1.439 . S
C268 N269 1.374 . S
C268 C302 1.395 . S
N269 C265 1.376 . S
N269 C268 1.374 . S
N269 Co270 2.008 . S
Co270 N269 2.008 . S
Co270 N271 1.995 . S
Co270 N276 2.008 . S
Co270 N281 1.995 . S
Co270 N286 2.282 . S
Co270 N292 2.282 . S
N271 Co270 1.995 . S
N271 C272 1.376 . S
N271 C275 1.383 . S
C272 N271 1.376 . S
C272 C273 1.446 . S
C272 C302 1.391 . S
C273 C272 1.446 . S
C273 C274 1.339 . S
C273 H308 0.949 . S
C274 C273 1.339 . S
C274 C275 1.439 . S
C274 H309 0.950 . S
C275 N271 1.383 . S
C275 C274 1.439 . S
C275 C304 1.392 . S
N276 Co270 2.008 . S
N276 C277 1.376 . S
N276 C280 1.374 . S
C277 N276 1.376 . S
C277 C278 1.443 . S
C277 C304 1.389 . S
C278 C277 1.443 . S
C278 C279 1.340 . S
C278 H310 0.951 1_545 S
C279 C278 1.340 . S
C279 C280 1.439 . S
C279 H311 0.950 1_545 S
C280 N276 1.374 . S
C280 C279 1.439 . S
C280 C305 1.395 . S
N281 Co270 1.995 . S
N281 C282 1.376 . S
N281 C285 1.383 . S
C282 N281 1.376 . S
C282 C283 1.446 . S
C282 C305 1.391 . S
C283 C282 1.446 . S
C283 C284 1.339 . S
C283 H312 0.949 . S
C284 C283 1.339 . S
C284 C285 1.439 . S
C284 H313 0.950 . S
C285 N281 1.383 . S
C285 C284 1.439 . S
C285 C303 1.392 . S
N286 Co270 2.282 . S
N286 C289 1.332 . S
N286 C291 1.332 . S
C287 C288 1.386 . S
C287 C290 1.388 . S
C288 C287 1.386 . S
C288 C289 1.382 . S
C288 H314 0.950 . S
C289 N286 1.332 . S
C289 C288 1.382 . S
C289 H300 0.952 . S
C290 C287 1.388 . S
C290 C291 1.382 . S
C290 H315 0.950 . S
C291 N286 1.332 . S
C291 C290 1.382 . S
C291 H301 0.948 . S
N292 Co270 2.282 . S
N292 C296 1.332 . S
N292 C297 1.332 . S
C293 C294 1.388 . S
C293 C297 1.382 . S
C293 H316 0.950 . S
C294 C293 1.388 . S
C294 C295 1.386 . S
C295 C294 1.386 . S
C295 C296 1.382 . S
C295 H317 0.950 . S
C296 N292 1.332 . S
C296 C295 1.382 . S
C296 H298 0.952 . S
C297 N292 1.332 . S
C297 C293 1.382 . S
C297 H299 0.948 . S
H298 C296 0.952 . S
H299 C297 0.948 . S
H300 C289 0.952 . S
H301 C291 0.948 . S
C302 C268 1.395 . S
C302 C272 1.391 . S
C303 C265 1.389 . S
C303 C285 1.392 . S
C304 C275 1.392 . S
C304 C277 1.389 . S
C305 C280 1.395 . S
C305 C282 1.391 . S
H306 C266 0.951 . S
H307 C267 0.950 . S
H308 C273 0.949 . S
H309 C274 0.950 . S
H310 C278 0.951 1_565 S
H311 C279 0.950 1_565 S
H312 C283 0.949 . S
H313 C284 0.950 . S
H314 C288 0.950 . S
H315 C290 0.950 . S
H316 C293 0.950 . S
H317 C295 0.950 . S
C318 C319 1.443 . S
C318 N322 1.376 . S
C318 C356 1.389 . S
C319 C318 1.443 . S
C319 C320 1.340 . S
C319 H359 0.951 . S
C320 C319 1.340 . S
C320 C321 1.439 . S
C320 H360 0.950 . S
C321 C320 1.439 . S
C321 N322 1.374 . S
C321 C355 1.395 . S
N322 C318 1.376 . S
N322 C321 1.374 . S
N322 Co323 2.008 . S
Co323 N322 2.008 . S
Co323 N324 1.995 . S
Co323 N329 2.008 . S
Co323 N334 1.995 . S
Co323 N339 2.282 . S
Co323 N345 2.282 . S
N324 Co323 1.995 . S
N324 C325 1.376 . S
N324 C328 1.383 . S
C325 N324 1.376 . S
C325 C326 1.446 . S
C325 C355 1.391 . S
C326 C325 1.446 . S
C326 C327 1.339 . S
C326 H361 0.949 . S
C327 C326 1.339 . S
C327 C328 1.439 . S
C327 H362 0.950 . S
C328 N324 1.383 . S
C328 C327 1.439 . S
C328 C357 1.392 . S
N329 Co323 2.008 . S
N329 C330 1.376 . S
N329 C333 1.374 . S
C330 N329 1.376 . S
C330 C331 1.443 . S
C330 C357 1.389 . S
C331 C330 1.443 . S
C331 C332 1.340 . S
C331 H363 0.951 . S
C332 C331 1.340 . S
C332 C333 1.439 . S
C332 H364 0.950 . S
C333 N329 1.374 . S
C333 C332 1.439 . S
C333 C358 1.395 . S
N334 Co323 1.995 . S
N334 C335 1.376 . S
N334 C338 1.383 . S
C335 N334 1.376 . S
C335 C336 1.446 . S
C335 C358 1.391 . S
C336 C335 1.446 . S
C336 C337 1.339 . S
C336 H365 0.949 . S
C337 C336 1.339 . S
C337 C338 1.439 . S
C337 H366 0.950 . S
C338 N334 1.383 . S
C338 C337 1.439 . S
C338 C356 1.392 . S
N339 Co323 2.282 . S
N339 C342 1.332 . S
N339 C344 1.332 . S
C340 C341 1.386 . S
C340 C343 1.388 . S
C341 C340 1.386 . S
C341 C342 1.382 . S
C341 H367 0.950 . S
C342 N339 1.332 . S
C342 C341 1.382 . S
C342 H353 0.952 . S
C343 C340 1.388 . S
C343 C344 1.382 . S
C343 H368 0.950 . S
C344 N339 1.332 . S
C344 C343 1.382 . S
C344 H354 0.948 . S
N345 Co323 2.282 . S
N345 C349 1.332 . S
N345 C350 1.332 . S
C346 C347 1.388 . S
C346 C350 1.382 . S
C346 H369 0.950 . S
C347 C346 1.388 . S
C347 C348 1.386 . S
C348 C347 1.386 . S
C348 C349 1.382 . S
C348 H370 0.950 . S
C349 N345 1.332 . S
C349 C348 1.382 . S
C349 H351 0.952 . S
C350 N345 1.332 . S
C350 C346 1.382 . S
C350 H352 0.948 . S
H351 C349 0.952 . S
H352 C350 0.948 . S
H353 C342 0.952 . S
H354 C344 0.948 . S
C355 C321 1.395 . S
C355 C325 1.391 . S
C356 C318 1.389 . S
C356 C338 1.392 . S
C357 C328 1.392 . S
C357 C330 1.389 . S
C358 C333 1.395 . S
C358 C335 1.391 . S
H359 C319 0.951 . S
H360 C320 0.950 . S
H361 C326 0.949 . S
H362 C327 0.950 . S
H363 C331 0.951 . S
H364 C332 0.950 . S
H365 C336 0.949 . S
H366 C337 0.950 . S
H367 C341 0.950 . S
H368 C343 0.950 . S
H369 C346 0.950 . S
H370 C348 0.950 . S
C371 C372 1.443 . S
C371 N375 1.376 . S
C371 C409 1.389 . S
C372 C371 1.443 . S
C372 C373 1.340 . S
C372 H412 0.951 . S
C373 C372 1.340 . S
C373 C374 1.439 . S
C373 H413 0.950 . S
C374 C373 1.439 . S
C374 N375 1.374 . S
C374 C408 1.395 . S
N375 C371 1.376 . S
N375 C374 1.374 . S
N375 Co376 2.008 . S
Co376 N375 2.008 . S
Co376 N377 1.995 . S
Co376 N382 2.008 . S
Co376 N387 1.995 . S
Co376 N392 2.282 . S
Co376 N398 2.282 . S
N377 Co376 1.995 . S
N377 C378 1.376 . S
N377 C381 1.383 . S
C378 N377 1.376 . S
C378 C379 1.446 . S
C378 C408 1.391 . S
C379 C378 1.446 . S
C379 C380 1.339 1_655 S
C379 H414 0.949 1_655 S
C380 C379 1.339 1_455 S
C380 C381 1.439 1_455 S
C380 H415 0.950 . S
C381 N377 1.383 . S
C381 C380 1.439 1_655 S
C381 C410 1.392 . S
N382 Co376 2.008 . S
N382 C383 1.376 . S
N382 C386 1.374 . S
C383 N382 1.376 . S
C383 C384 1.443 . S
C383 C410 1.389 . S
C384 C383 1.443 . S
C384 C385 1.340 . S
C384 H416 0.951 . S
C385 C384 1.340 . S
C385 C386 1.439 . S
C385 H417 0.950 . S
C386 N382 1.374 . S
C386 C385 1.439 . S
C386 C411 1.395 . S
N387 Co376 1.995 . S
N387 C388 1.376 . S
N387 C391 1.383 . S
C388 N387 1.376 . S
C388 C389 1.446 . S
C388 C411 1.391 . S
C389 C388 1.446 . S
C389 C390 1.339 . S
C389 H418 0.949 . S
C390 C389 1.339 . S
C390 C391 1.439 . S
C390 H419 0.950 . S
C391 N387 1.383 . S
C391 C390 1.439 . S
C391 C409 1.392 . S
N392 Co376 2.282 . S
N392 C395 1.332 . S
N392 C397 1.332 . S
C393 C394 1.409 . S
C393 C396 1.383 1_655 S
C394 C393 1.409 . S
C394 C395 1.382 . S
C394 H420 0.950 . S
C395 N392 1.332 . S
C395 C394 1.382 . S
C395 H406 0.952 . S
C396 C393 1.383 1_455 S
C396 C397 1.382 1_455 S
C396 H421 0.950 . S
C397 N392 1.332 . S
C397 C396 1.382 1_655 S
C397 H407 0.948 . S
N398 Co376 2.282 . S
N398 C402 1.332 . S
N398 C403 1.332 . S
C399 C400 1.388 . S
C399 C403 1.382 . S
C399 H422 0.950 . S
C400 C399 1.388 . S
C400 C401 1.386 . S
C401 C400 1.386 . S
C401 C402 1.382 . S
C401 H423 0.950 . S
C402 N398 1.332 . S
C402 C401 1.382 . S
C402 H404 0.952 . S
C403 N398 1.332 . S
C403 C399 1.382 . S
C403 H405 0.948 . S
H404 C402 0.952 . S
H405 C403 0.948 . S
H406 C395 0.952 . S
H407 C397 0.948 . S
C408 C374 1.395 . S
C408 C378 1.391 . S
C409 C371 1.389 . S
C409 C391 1.392 . S
C410 C381 1.392 . S
C410 C383 1.389 . S
C411 C386 1.395 . S
C411 C388 1.391 . S
H412 C372 0.951 . S
H413 C373 0.950 . S
H414 C379 0.949 1_455 S
H415 C380 0.950 . S
H416 C384 0.951 . S
H417 C385 0.950 . S
H418 C389 0.949 . S
H419 C390 0.950 . S
H420 C394 0.950 . S
H421 C396 0.950 . S
H422 C399 0.950 . S
H423 C401 0.950 . S
C424 C425 1.443 . S
C424 N428 1.376 . S
C424 C462 1.389 . S
C425 C424 1.443 . S
C425 C426 1.340 . S
C425 H465 0.951 . S
C426 C425 1.340 . S
C426 C427 1.439 . S
C426 H466 0.950 . S
C427 C426 1.439 . S
C427 N428 1.374 . S
C427 C461 1.395 . S
N428 C424 1.376 . S
N428 C427 1.374 . S
N428 Co429 2.008 . S
Co429 N428 2.008 . S
Co429 N430 1.995 . S
Co429 N435 2.008 . S
Co429 N440 1.995 . S
Co429 N445 2.282 . S
Co429 N451 2.282 . S
N430 Co429 1.995 . S
N430 C431 1.376 . S
N430 C434 1.383 . S
C431 N430 1.376 . S
C431 C432 1.446 . S
C431 C461 1.391 . S
C432 C431 1.446 . S
C432 C433 1.339 . S
C432 H467 0.949 . S
C433 C432 1.339 . S
C433 C434 1.439 . S
C433 H468 0.950 . S
C434 N430 1.383 . S
C434 C433 1.439 . S
C434 C463 1.392 . S
N435 Co429 2.008 . S
N435 C436 1.376 . S
N435 C439 1.374 . S
C436 N435 1.376 . S
C436 C437 1.443 . S
C436 C463 1.389 . S
C437 C436 1.443 . S
C437 C438 1.340 1_655 S
C437 H469 0.955 . S
C438 C437 1.340 1_455 S
C438 C439 1.439 1_455 S
C438 H470 0.950 . S
C439 N435 1.374 . S
C439 C438 1.439 1_655 S
C439 C464 1.395 . S
N440 Co429 1.995 . S
N440 C441 1.376 . S
N440 C444 1.383 . S
C441 N440 1.376 . S
C441 C442 1.446 . S
C441 C464 1.391 . S
C442 C441 1.446 . S
C442 C443 1.339 . S
C442 H471 0.949 . S
C443 C442 1.339 . S
C443 C444 1.439 . S
C443 H472 0.950 . S
C444 N440 1.383 . S
C444 C443 1.439 . S
C444 C462 1.392 . S
N445 Co429 2.282 . S
N445 C448 1.332 . S
N445 C450 1.332 . S
C446 C447 1.386 . S
C446 C449 1.388 1_455 S
C447 C446 1.386 . S
C447 C448 1.382 1_455 S
C447 H473 0.950 . S
C448 N445 1.332 . S
C448 C447 1.382 1_655 S
C448 H459 0.952 . S
C449 C446 1.388 1_655 S
C449 C450 1.382 . S
C449 H474 0.950 . S
C450 N445 1.332 . S
C450 C449 1.382 . S
C450 H460 0.948 . S
N451 Co429 2.282 . S
N451 C455 1.332 . S
N451 C456 1.332 . S
C452 C453 1.388 . S
C452 C456 1.382 . S
C452 H475 0.950 . S
C453 C452 1.388 . S
C453 C454 1.386 . S
C454 C453 1.386 . S
C454 C455 1.382 . S
C454 H476 0.950 . S
C455 N451 1.332 . S
C455 C454 1.382 . S
C455 H457 0.952 . S
C456 N451 1.332 . S
C456 C452 1.382 . S
C456 H458 0.948 . S
H457 C455 0.952 . S
H458 C456 0.948 . S
H459 C448 0.952 . S
H460 C450 0.948 . S
C461 C427 1.395 . S
C461 C431 1.391 . S
C462 C424 1.389 . S
C462 C444 1.392 . S
C463 C434 1.392 . S
C463 C436 1.389 . S
C464 C439 1.395 . S
C464 C441 1.391 . S
H465 C425 0.951 . S
H466 C426 0.950 . S
H467 C432 0.949 . S
H468 C433 0.950 . S
H469 C437 0.955 . S
H470 C438 0.950 . S
H471 C442 0.949 . S
H472 C443 0.950 . S
H473 C447 0.950 . S
H474 C449 0.950 . S
H475 C452 0.950 . S
H476 C454 0.950 . S
C477 C478 1.443 . S
C477 N481 1.376 . S
C477 C515 1.389 . S
C478 C477 1.443 . S
C478 C479 1.340 . S
C478 H518 0.951 . S
C479 C478 1.340 . S
C479 C480 1.439 . S
C479 H519 0.950 . S
C480 C479 1.439 . S
C480 N481 1.374 . S
C480 C514 1.395 . S
N481 C477 1.376 . S
N481 C480 1.374 . S
N481 Co482 2.008 . S
Co482 N481 2.008 . S
Co482 N483 1.995 . S
Co482 N488 2.008 . S
Co482 N493 1.995 . S
Co482 N498 2.282 . S
Co482 N504 2.282 . S
N483 Co482 1.995 . S
N483 C484 1.376 . S
N483 C487 1.383 . S
C484 N483 1.376 . S
C484 C485 1.446 . S
C484 C514 1.391 . S
C485 C484 1.446 . S
C485 C486 1.339 . S
C485 H520 0.949 . S
C486 C485 1.339 . S
C486 C487 1.439 . S
C486 H521 0.950 . S
C487 N483 1.383 . S
C487 C486 1.439 . S
C487 C516 1.392 . S
N488 Co482 2.008 . S
N488 C489 1.376 . S
N488 C492 1.374 . S
C489 N488 1.376 . S
C489 C490 1.443 . S
C489 C516 1.389 . S
C490 C489 1.443 . S
C490 C491 1.340 1_565 S
C490 H522 0.955 . S
C491 C490 1.340 1_545 S
C491 C492 1.439 1_545 S
C491 H523 0.950 . S
C492 N488 1.374 . S
C492 C491 1.439 1_565 S
C492 C517 1.395 . S
N493 Co482 1.995 . S
N493 C494 1.376 . S
N493 C497 1.383 . S
C494 N493 1.376 . S
C494 C495 1.446 . S
C494 C517 1.391 . S
C495 C494 1.446 . S
C495 C496 1.339 . S
C495 H524 0.949 . S
C496 C495 1.339 . S
C496 C497 1.439 . S
C496 H525 0.950 . S
C497 N493 1.383 . S
C497 C496 1.439 . S
C497 C515 1.392 . S
N498 Co482 2.282 . S
N498 C501 1.332 . S
N498 C503 1.332 . S
C499 C500 1.386 . S
C499 C502 1.388 1_545 S
C500 C499 1.386 . S
C500 C501 1.382 1_545 S
C500 H526 0.950 . S
C501 N498 1.332 . S
C501 C500 1.382 1_565 S
C501 H512 0.952 . S
C502 C499 1.388 1_565 S
C502 C503 1.382 . S
C502 H527 0.950 . S
C503 N498 1.332 . S
C503 C502 1.382 . S
C503 H513 0.948 . S
N504 Co482 2.282 . S
N504 C508 1.332 . S
N504 C509 1.332 . S
C505 C506 1.388 . S
C505 C509 1.382 . S
C505 H528 0.950 . S
C506 C505 1.388 . S
C506 C507 1.386 . S
C507 C506 1.386 . S
C507 C508 1.382 . S
C507 H529 0.950 . S
C508 N504 1.332 . S
C508 C507 1.382 . S
C508 H510 0.952 . S
C509 N504 1.332 . S
C509 C505 1.382 . S
C509 H511 0.948 . S
H510 C508 0.952 . S
H511 C509 0.948 . S
H512 C501 0.952 . S
H513 C503 0.948 . S
C514 C480 1.395 . S
C514 C484 1.391 . S
C515 C477 1.389 . S
C515 C497 1.392 . S
C516 C487 1.392 . S
C516 C489 1.389 . S
C517 C492 1.395 . S
C517 C494 1.391 . S
H518 C478 0.951 . S
H519 C479 0.950 . S
H520 C485 0.949 . S
H521 C486 0.950 . S
H522 C490 0.955 . S
H523 C491 0.950 . S
H524 C495 0.949 . S
H525 C496 0.950 . S
H526 C500 0.950 . S
H527 C502 0.950 . S
H528 C505 0.950 . S
H529 C507 0.950 . S
C530 C531 1.443 . S
C530 N534 1.376 . S
C530 C568 1.389 . S
C531 C530 1.443 . S
C531 C532 1.340 . S
C531 H571 0.951 . S
C532 C531 1.340 . S
C532 C533 1.439 . S
C532 H572 0.950 . S
C533 C532 1.439 . S
C533 N534 1.374 . S
C533 C567 1.395 . S
N534 C530 1.376 . S
N534 C533 1.374 . S
N534 Co535 2.008 . S
Co535 N534 2.008 . S
Co535 N536 1.995 . S
Co535 N541 2.008 . S
Co535 N546 1.995 . S
Co535 N551 2.282 . S
Co535 N557 2.282 . S
N536 Co535 1.995 . S
N536 C537 1.376 . S
N536 C540 1.383 . S
C537 N536 1.376 . S
C537 C538 1.446 . S
C537 C567 1.391 . S
C538 C537 1.446 . S
C538 C539 1.339 . S
C538 H573 0.949 . S
C539 C538 1.339 . S
C539 C540 1.439 . S
C539 H574 0.950 . S
C540 N536 1.383 . S
C540 C539 1.439 . S
C540 C569 1.392 . S
N541 Co535 2.008 . S
N541 C542 1.376 . S
N541 C545 1.374 . S
C542 N541 1.376 . S
C542 C543 1.443 . S
C542 C569 1.389 . S
C543 C542 1.443 . S
C543 C544 1.340 . S
C543 H575 0.951 . S
C544 C543 1.340 . S
C544 C545 1.439 . S
C544 H576 0.950 . S
C545 N541 1.374 . S
C545 C544 1.439 . S
C545 C570 1.395 . S
N546 Co535 1.995 . S
N546 C547 1.376 . S
N546 C550 1.383 . S
C547 N546 1.376 . S
C547 C548 1.446 . S
C547 C570 1.391 . S
C548 C547 1.446 . S
C548 C549 1.339 . S
C548 H577 0.949 . S
C549 C548 1.339 . S
C549 C550 1.439 . S
C549 H578 0.950 . S
C550 N546 1.383 . S
C550 C549 1.439 . S
C550 C568 1.392 . S
N551 Co535 2.282 . S
N551 C554 1.332 . S
N551 C556 1.332 . S
C552 C553 1.386 . S
C552 C555 1.388 . S
C553 C552 1.386 . S
C553 C554 1.382 . S
C553 H579 0.950 . S
C554 N551 1.332 . S
C554 C553 1.382 . S
C554 H565 0.952 . S
C555 C552 1.388 . S
C555 C556 1.382 . S
C555 H580 0.950 . S
C556 N551 1.332 . S
C556 C555 1.382 . S
C556 H566 0.948 . S
N557 Co535 2.282 . S
N557 C561 1.332 . S
N557 C562 1.332 . S
C558 C559 1.388 . S
C558 C562 1.382 . S
C558 H581 0.950 . S
C559 C558 1.388 . S
C559 C560 1.386 . S
C560 C559 1.386 . S
C560 C561 1.382 . S
C560 H582 0.950 . S
C561 N557 1.332 . S
C561 C560 1.382 . S
C561 H563 0.952 . S
C562 N557 1.332 . S
C562 C558 1.382 . S
C562 H564 0.948 . S
H563 C561 0.952 . S
H564 C562 0.948 . S
H565 C554 0.952 . S
H566 C556 0.948 . S
C567 C533 1.395 . S
C567 C537 1.391 . S
C568 C530 1.389 . S
C568 C550 1.392 . S
C569 C540 1.392 . S
C569 C542 1.389 . S
C570 C545 1.395 . S
C570 C547 1.391 . S
H571 C531 0.951 . S
H572 C532 0.950 . S
H573 C538 0.949 . S
H574 C539 0.950 . S
H575 C543 0.951 . S
H576 C544 0.950 . S
H577 C548 0.949 . S
H578 C549 0.950 . S
H579 C553 0.950 . S
H580 C555 0.950 . S
H581 C558 0.950 . S
H582 C560 0.950 . S
C583 C584 1.443 . S
C583 N587 1.376 . S
C583 C621 1.389 . S
C584 C583 1.443 . S
C584 C585 1.340 . S
C584 H624 0.951 . S
C585 C584 1.340 . S
C585 C586 1.439 . S
C585 H625 0.950 . S
C586 C585 1.439 . S
C586 N587 1.374 . S
C586 C620 1.395 . S
N587 C583 1.376 . S
N587 C586 1.374 . S
N587 Co588 2.008 . S
Co588 N587 2.008 . S
Co588 N589 1.995 . S
Co588 N594 2.008 . S
Co588 N599 1.995 . S
Co588 N604 2.282 . S
Co588 N610 2.282 . S
N589 Co588 1.995 . S
N589 C590 1.376 . S
N589 C593 1.383 . S
C590 N589 1.376 . S
C590 C591 1.446 . S
C590 C620 1.391 . S
C591 C590 1.446 . S
C591 C592 1.339 . S
C591 H626 0.949 . S
C592 C591 1.339 . S
C592 C593 1.439 . S
C592 H627 0.950 . S
C593 N589 1.383 . S
C593 C592 1.439 . S
C593 C622 1.392 . S
N594 Co588 2.008 . S
N594 C595 1.376 . S
N594 C598 1.374 . S
C595 N594 1.376 . S
C595 C596 1.443 . S
C595 C622 1.389 . S
C596 C595 1.443 . S
C596 C597 1.340 . S
C596 H628 0.951 . S
C597 C596 1.340 . S
C597 C598 1.439 . S
C597 H629 0.950 . S
C598 N594 1.374 . S
C598 C597 1.439 . S
C598 C623 1.395 . S
N599 Co588 1.995 . S
N599 C600 1.376 . S
N599 C603 1.383 . S
C600 N599 1.376 . S
C600 C601 1.446 . S
C600 C623 1.391 . S
C601 C600 1.446 . S
C601 C602 1.339 . S
C601 H630 0.949 . S
C602 C601 1.339 . S
C602 C603 1.439 . S
C602 H631 0.950 . S
C603 N599 1.383 . S
C603 C602 1.439 . S
C603 C621 1.392 . S
N604 Co588 2.282 . S
N604 C607 1.332 . S
N604 C609 1.332 . S
C605 C606 1.386 . S
C605 C608 1.388 . S
C606 C605 1.386 . S
C606 C607 1.382 . S
C606 H632 0.950 . S
C607 N604 1.332 . S
C607 C606 1.382 . S
C607 H618 0.952 . S
C608 C605 1.388 . S
C608 C609 1.382 . S
C608 H633 0.950 . S
C609 N604 1.332 . S
C609 C608 1.382 . S
C609 H619 0.948 . S
N610 Co588 2.282 . S
N610 C614 1.332 . S
N610 C615 1.332 . S
C611 C612 1.388 . S
C611 C615 1.382 . S
C611 H634 0.950 . S
C612 C611 1.388 . S
C612 C613 1.386 . S
C613 C612 1.386 . S
C613 C614 1.382 . S
C613 H635 0.950 . S
C614 N610 1.332 . S
C614 C613 1.382 . S
C614 H616 0.952 . S
C615 N610 1.332 . S
C615 C611 1.382 . S
C615 H617 0.948 . S
H616 C614 0.952 . S
H617 C615 0.948 . S
H618 C607 0.952 . S
H619 C609 0.948 . S
C620 C586 1.395 . S
C620 C590 1.391 . S
C621 C583 1.389 . S
C621 C603 1.392 . S
C622 C593 1.392 . S
C622 C595 1.389 . S
C623 C598 1.395 . S
C623 C600 1.391 . S
H624 C584 0.951 . S
H625 C585 0.950 . S
H626 C591 0.949 . S
H627 C592 0.950 . S
H628 C596 0.951 . S
H629 C597 0.950 . S
H630 C601 0.949 . S
H631 C602 0.950 . S
H632 C606 0.950 . S
H633 C608 0.950 . S
H634 C611 0.950 . S
H635 C613 0.950 . S
C636 C637 1.443 . S
C636 N640 1.376 . S
C636 C674 1.389 . S
C637 C636 1.443 . S
C637 C638 1.340 . S
C637 H677 0.951 . S
C638 C637 1.340 . S
C638 C639 1.439 . S
C638 H678 0.950 . S
C639 C638 1.439 . S
C639 N640 1.374 . S
C639 C673 1.395 . S
N640 C636 1.376 . S
N640 C639 1.374 . S
N640 Co641 2.008 . S
Co641 N640 2.008 . S
Co641 N642 1.995 . S
Co641 N647 2.008 . S
Co641 N652 1.995 . S
Co641 N657 2.282 . S
Co641 N663 2.282 . S
N642 Co641 1.995 . S
N642 C643 1.376 . S
N642 C646 1.383 . S
C643 N642 1.376 . S
C643 C644 1.446 . S
C643 C673 1.391 . S
C644 C643 1.446 . S
C644 C645 1.339 . S
C644 H679 0.949 . S
C645 C644 1.339 . S
C645 C646 1.439 . S
C645 H680 0.950 . S
C646 N642 1.383 . S
C646 C645 1.439 . S
C646 C675 1.392 . S
N647 Co641 2.008 . S
N647 C648 1.376 . S
N647 C651 1.374 . S
C648 N647 1.376 . S
C648 C649 1.443 . S
C648 C675 1.389 . S
C649 C648 1.443 . S
C649 C650 1.340 1_655 S
C649 H681 0.955 . S
C650 C649 1.340 1_455 S
C650 C651 1.439 1_455 S
C650 H682 0.950 . S
C651 N647 1.374 . S
C651 C650 1.439 1_655 S
C651 C676 1.395 . S
N652 Co641 1.995 . S
N652 C653 1.376 . S
N652 C656 1.383 . S
C653 N652 1.376 . S
C653 C654 1.446 . S
C653 C676 1.391 . S
C654 C653 1.446 . S
C654 C655 1.339 . S
C654 H683 0.949 . S
C655 C654 1.339 . S
C655 C656 1.439 . S
C655 H684 0.950 . S
C656 N652 1.383 . S
C656 C655 1.439 . S
C656 C674 1.392 . S
N657 Co641 2.282 . S
N657 C660 1.332 . S
N657 C662 1.332 . S
C658 C659 1.386 . S
C658 C661 1.388 1_455 S
C659 C658 1.386 . S
C659 C660 1.382 1_455 S
C659 H685 0.950 . S
C660 N657 1.332 . S
C660 C659 1.382 1_655 S
C660 H671 0.952 . S
C661 C658 1.388 1_655 S
C661 C662 1.382 . S
C661 H686 0.950 . S
C662 N657 1.332 . S
C662 C661 1.382 . S
C662 H672 0.948 . S
N663 Co641 2.282 . S
N663 C667 1.332 . S
N663 C668 1.332 . S
C664 C665 1.388 . S
C664 C668 1.382 . S
C664 H687 0.950 . S
C665 C664 1.388 . S
C665 C666 1.386 . S
C666 C665 1.386 . S
C666 C667 1.382 . S
C666 H688 0.950 . S
C667 N663 1.332 . S
C667 C666 1.382 . S
C667 H669 0.952 . S
C668 N663 1.332 . S
C668 C664 1.382 . S
C668 H670 0.948 . S
H669 C667 0.952 . S
H670 C668 0.948 . S
H671 C660 0.952 . S
H672 C662 0.948 . S
C673 C639 1.395 . S
C673 C643 1.391 . S
C674 C636 1.389 . S
C674 C656 1.392 . S
C675 C646 1.392 . S
C675 C648 1.389 . S
C676 C651 1.395 . S
C676 C653 1.391 . S
H677 C637 0.951 . S
H678 C638 0.950 . S
H679 C644 0.949 . S
H680 C645 0.950 . S
H681 C649 0.955 . S
H682 C650 0.950 . S
H683 C654 0.949 . S
H684 C655 0.950 . S
H685 C659 0.950 . S
H686 C661 0.950 . S
H687 C664 0.950 . S
H688 C666 0.950 . S
C689 C690 1.443 . S
C689 N693 1.376 . S
C689 C727 1.389 . S
C690 C689 1.443 . S
C690 C691 1.340 . S
C690 H730 0.951 . S
C691 C690 1.340 . S
C691 C692 1.439 . S
C691 H731 0.950 . S
C692 C691 1.439 . S
C692 N693 1.374 . S
C692 C726 1.395 . S
N693 C689 1.376 . S
N693 C692 1.374 . S
N693 Co694 2.008 . S
Co694 N693 2.008 . S
Co694 N695 1.995 . S
Co694 N700 2.008 . S
Co694 N705 1.995 . S
Co694 N710 2.282 . S
Co694 N716 2.282 . S
N695 Co694 1.995 . S
N695 C696 1.376 . S
N695 C699 1.383 . S
C696 N695 1.376 . S
C696 C697 1.446 . S
C696 C726 1.391 . S
C697 C696 1.446 . S
C697 C698 1.339 . S
C697 H732 0.949 . S
C698 C697 1.339 . S
C698 C699 1.439 . S
C698 H733 0.950 . S
C699 N695 1.383 . S
C699 C698 1.439 . S
C699 C728 1.392 . S
N700 Co694 2.008 . S
N700 C701 1.376 . S
N700 C704 1.374 . S
C701 N700 1.376 . S
C701 C702 1.443 . S
C701 C728 1.389 . S
C702 C701 1.443 . S
C702 C703 1.340 1_565 S
C702 H734 0.955 . S
C703 C702 1.340 1_545 S
C703 C704 1.439 1_545 S
C703 H735 0.950 . S
C704 N700 1.374 . S
C704 C703 1.439 1_565 S
C704 C729 1.395 . S
N705 Co694 1.995 . S
N705 C706 1.376 . S
N705 C709 1.383 . S
C706 N705 1.376 . S
C706 C707 1.446 . S
C706 C729 1.391 . S
C707 C706 1.446 . S
C707 C708 1.339 . S
C707 H736 0.949 . S
C708 C707 1.339 . S
C708 C709 1.439 . S
C708 H737 0.950 . S
C709 N705 1.383 . S
C709 C708 1.439 . S
C709 C727 1.392 . S
N710 Co694 2.282 . S
N710 C713 1.332 . S
N710 C715 1.332 . S
C711 C712 1.386 . S
C711 C714 1.388 1_545 S
C712 C711 1.386 . S
C712 C713 1.382 1_545 S
C712 H738 0.950 . S
C713 N710 1.332 . S
C713 C712 1.382 1_565 S
C713 H724 0.952 . S
C714 C711 1.388 1_565 S
C714 C715 1.382 . S
C714 H739 0.950 . S
C715 N710 1.332 . S
C715 C714 1.382 . S
C715 H725 0.948 . S
N716 Co694 2.282 . S
N716 C720 1.332 . S
N716 C721 1.332 . S
C717 C718 1.388 . S
C717 C721 1.382 . S
C717 H740 0.950 . S
C718 C717 1.388 . S
C718 C719 1.386 . S
C719 C718 1.386 . S
C719 C720 1.382 . S
C719 H741 0.950 . S
C720 N716 1.332 . S
C720 C719 1.382 . S
C720 H722 0.952 . S
C721 N716 1.332 . S
C721 C717 1.382 . S
C721 H723 0.948 . S
H722 C720 0.952 . S
H723 C721 0.948 . S
H724 C713 0.952 . S
H725 C715 0.948 . S
C726 C692 1.395 . S
C726 C696 1.391 . S
C727 C689 1.389 . S
C727 C709 1.392 . S
C728 C699 1.392 . S
C728 C701 1.389 . S
C729 C704 1.395 . S
C729 C706 1.391 . S
H730 C690 0.951 . S
H731 C691 0.950 . S
H732 C697 0.949 . S
H733 C698 0.950 . S
H734 C702 0.955 . S
H735 C703 0.950 . S
H736 C707 0.949 . S
H737 C708 0.950 . S
H738 C712 0.950 . S
H739 C714 0.950 . S
H740 C717 0.950 . S
H741 C719 0.950 . S
C742 C743 1.443 . S
C742 N746 1.376 . S
C742 C780 1.389 . S
C743 C742 1.443 . S
C743 C744 1.340 . S
C743 H783 0.951 . S
C744 C743 1.340 . S
C744 C745 1.439 . S
C744 H784 0.950 . S
C745 C744 1.439 . S
C745 N746 1.374 . S
C745 C779 1.395 . S
N746 C742 1.376 . S
N746 C745 1.374 . S
N746 Co747 2.008 . S
Co747 N746 2.008 . S
Co747 N748 1.995 . S
Co747 N753 2.008 . S
Co747 N758 1.995 . S
Co747 N763 2.282 . S
Co747 N769 2.282 . S
N748 Co747 1.995 . S
N748 C749 1.376 . S
N748 C752 1.383 . S
C749 N748 1.376 . S
C749 C750 1.446 . S
C749 C779 1.391 . S
C750 C749 1.446 . S
C750 C751 1.339 . S
C750 H785 0.949 . S
C751 C750 1.339 . S
C751 C752 1.439 . S
C751 H786 0.950 . S
C752 N748 1.383 . S
C752 C751 1.439 . S
C752 C781 1.392 . S
N753 Co747 2.008 . S
N753 C754 1.376 . S
N753 C757 1.374 . S
C754 N753 1.376 . S
C754 C755 1.443 . S
C754 C781 1.389 . S
C755 C754 1.443 . S
C755 C756 1.340 . S
C755 H787 0.951 . S
C756 C755 1.340 . S
C756 C757 1.439 . S
C756 H788 0.950 . S
C757 N753 1.374 . S
C757 C756 1.439 . S
C757 C782 1.395 . S
N758 Co747 1.995 . S
N758 C759 1.376 . S
N758 C762 1.383 . S
C759 N758 1.376 . S
C759 C760 1.446 . S
C759 C782 1.391 . S
C760 C759 1.446 . S
C760 C761 1.339 . S
C760 H789 0.949 . S
C761 C760 1.339 . S
C761 C762 1.439 . S
C761 H790 0.950 . S
C762 N758 1.383 . S
C762 C761 1.439 . S
C762 C780 1.392 . S
N763 Co747 2.282 . S
N763 C766 1.332 . S
N763 C768 1.332 . S
C764 C765 1.386 . S
C764 C767 1.388 . S
C765 C764 1.386 . S
C765 C766 1.382 . S
C765 H791 0.950 . S
C766 N763 1.332 . S
C766 C765 1.382 . S
C766 H777 0.952 . S
C767 C764 1.388 . S
C767 C768 1.382 . S
C767 H792 0.950 . S
C768 N763 1.332 . S
C768 C767 1.382 . S
C768 H778 0.948 . S
N769 Co747 2.282 . S
N769 C773 1.332 . S
N769 C774 1.332 . S
C770 C771 1.388 . S
C770 C774 1.382 . S
C770 H793 0.950 . S
C771 C770 1.388 . S
C771 C772 1.386 . S
C772 C771 1.386 . S
C772 C773 1.382 . S
C772 H794 0.950 . S
C773 N769 1.332 . S
C773 C772 1.382 . S
C773 H775 0.952 . S
C774 N769 1.332 . S
C774 C770 1.382 . S
C774 H776 0.948 . S
H775 C773 0.952 . S
H776 C774 0.948 . S
H777 C766 0.952 . S
H778 C768 0.948 . S
C779 C745 1.395 . S
C779 C749 1.391 . S
C780 C742 1.389 . S
C780 C762 1.392 . S
C781 C752 1.392 . S
C781 C754 1.389 . S
C782 C757 1.395 . S
C782 C759 1.391 . S
H783 C743 0.951 . S
H784 C744 0.950 . S
H785 C750 0.949 . S
H786 C751 0.950 . S
H787 C755 0.951 . S
H788 C756 0.950 . S
H789 C760 0.949 . S
H790 C761 0.950 . S
H791 C765 0.950 . S
H792 C767 0.950 . S
H793 C770 0.950 . S
H794 C772 0.950 . S
C795 C796 1.443 . S
C795 N799 1.376 . S
C795 C833 1.389 . S
C796 C795 1.443 . S
C796 C797 1.340 . S
C796 H836 0.951 . S
C797 C796 1.340 . S
C797 C798 1.439 . S
C797 H837 0.950 . S
C798 C797 1.439 . S
C798 N799 1.374 . S
C798 C832 1.395 . S
N799 C795 1.376 . S
N799 C798 1.374 . S
N799 Co800 2.008 . S
Co800 N799 2.008 . S
Co800 N801 1.995 . S
Co800 N806 2.008 . S
Co800 N811 1.995 . S
Co800 N816 2.282 . S
Co800 N822 2.282 . S
N801 Co800 1.995 . S
N801 C802 1.376 . S
N801 C805 1.383 . S
C802 N801 1.376 . S
C802 C803 1.446 . S
C802 C832 1.391 . S
C803 C802 1.446 . S
C803 C804 1.339 . S
C803 H838 0.949 . S
C804 C803 1.339 . S
C804 C805 1.439 . S
C804 H839 0.950 . S
C805 N801 1.383 . S
C805 C804 1.439 . S
C805 C834 1.392 . S
N806 Co800 2.008 . S
N806 C807 1.376 . S
N806 C810 1.374 . S
C807 N806 1.376 . S
C807 C808 1.443 . S
C807 C834 1.389 . S
C808 C807 1.443 . S
C808 C809 1.340 . S
C808 H840 0.951 . S
C809 C808 1.340 . S
C809 C810 1.439 . S
C809 H841 0.950 . S
C810 N806 1.374 . S
C810 C809 1.439 . S
C810 C835 1.395 . S
N811 Co800 1.995 . S
N811 C812 1.376 . S
N811 C815 1.383 . S
C812 N811 1.376 . S
C812 C813 1.446 . S
C812 C835 1.391 . S
C813 C812 1.446 . S
C813 C814 1.339 . S
C813 H842 0.949 . S
C814 C813 1.339 . S
C814 C815 1.439 . S
C814 H843 0.950 . S
C815 N811 1.383 . S
C815 C814 1.439 . S
C815 C833 1.392 . S
N816 Co800 2.282 . S
N816 C819 1.332 . S
N816 C821 1.332 . S
C817 C818 1.386 . S
C817 C820 1.388 . S
C818 C817 1.386 . S
C818 C819 1.382 . S
C818 H844 0.950 . S
C819 N816 1.332 . S
C819 C818 1.382 . S
C819 H830 0.952 . S
C820 C817 1.388 . S
C820 C821 1.382 . S
C820 H845 0.950 . S
C821 N816 1.332 . S
C821 C820 1.382 . S
C821 H831 0.948 . S
N822 Co800 2.282 . S
N822 C826 1.332 . S
N822 C827 1.332 . S
C823 C824 1.388 . S
C823 C827 1.382 . S
C823 H846 0.950 . S
C824 C823 1.388 . S
C824 C825 1.386 . S
C825 C824 1.386 . S
C825 C826 1.382 . S
C825 H847 0.950 . S
C826 N822 1.332 . S
C826 C825 1.382 . S
C826 H828 0.952 . S
C827 N822 1.332 . S
C827 C823 1.382 . S
C827 H829 0.948 . S
H828 C826 0.952 . S
H829 C827 0.948 . S
H830 C819 0.952 . S
H831 C821 0.948 . S
C832 C798 1.395 . S
C832 C802 1.391 . S
C833 C795 1.389 . S
C833 C815 1.392 . S
C834 C805 1.392 . S
C834 C807 1.389 . S
C835 C810 1.395 . S
C835 C812 1.391 . S
H836 C796 0.951 . S
H837 C797 0.950 . S
H838 C803 0.949 . S
H839 C804 0.950 . S
H840 C808 0.951 . S
H841 C809 0.950 . S
H842 C813 0.949 . S
H843 C814 0.950 . S
H844 C818 0.950 . S
H845 C820 0.950 . S
H846 C823 0.950 . S
H847 C825 0.950 . S
C848 C849 1.387 . S
C848 H852 0.950 . S
C848 C857 1.390 . S
C849 C848 1.387 . S
C849 C851 1.387 . S
H850 C857 0.950 . S
C851 C849 1.387 . S
C851 C853 1.390 . S
C851 H855 0.950 . S
H852 C848 0.950 . S
C853 C851 1.390 . S
C853 C854 1.387 . S
C853 H856 0.950 . S
C854 C853 1.387 . S
C854 C857 1.387 . S
H855 C851 0.950 . S
H856 C853 0.950 . S
C857 C848 1.390 . S
C857 H850 0.950 . S
C857 C854 1.387 . S
C858 C859 1.387 . S
C858 H862 0.950 . S
C858 C867 1.390 . S
C859 C858 1.387 . S
C859 C861 1.387 . S
H860 C867 0.950 . S
C861 C859 1.387 . S
C861 C863 1.390 . S
C861 H865 0.950 . S
H862 C858 0.950 . S
C863 C861 1.390 . S
C863 C864 1.387 . S
C863 H866 0.950 . S
C864 C863 1.387 . S
C864 C867 1.387 . S
H865 C861 0.950 . S
H866 C863 0.950 . S
C867 C858 1.390 . S
C867 H860 0.950 . S
C867 C864 1.387 . S
C868 C869 1.387 . S
C868 H872 0.950 . S
C868 C877 1.390 . S
C869 C868 1.387 . S
C869 C871 1.387 . S
H870 C877 0.950 . S
C871 C869 1.387 . S
C871 C873 1.390 . S
C871 H875 0.950 . S
H872 C868 0.950 . S
C873 C871 1.390 . S
C873 C874 1.387 . S
C873 H876 0.950 . S
C874 C873 1.387 . S
C874 C877 1.387 . S
H875 C871 0.950 . S
H876 C873 0.950 . S
C877 C868 1.390 . S
C877 H870 0.950 . S
C877 C874 1.387 . S
C878 C879 1.387 . S
C878 H882 0.950 . S
C878 C887 1.390 . S
C879 C878 1.387 . S
C879 C881 1.387 . S
H880 C887 0.950 . S
C881 C879 1.387 . S
C881 C883 1.390 . S
C881 H885 0.950 . S
H882 C878 0.950 . S
C883 C881 1.390 . S
C883 C884 1.387 . S
C883 H886 0.950 . S
C884 C883 1.387 . S
C884 C887 1.387 . S
H885 C881 0.950 . S
H886 C883 0.950 . S
C887 C878 1.390 . S
C887 H880 0.950 . S
C887 C884 1.387 . S
C888 C889 1.387 . S
C888 H892 0.950 . S
C888 C897 1.390 . S
C889 C888 1.387 . S
C889 C891 1.387 . S
H890 C897 0.950 . S
C891 C889 1.387 . S
C891 C893 1.390 . S
C891 H895 0.950 . S
H892 C888 0.950 . S
C893 C891 1.390 . S
C893 C894 1.387 . S
C893 H896 0.950 . S
C894 C893 1.387 . S
C894 C897 1.387 . S
H895 C891 0.950 . S
H896 C893 0.950 . S
C897 C888 1.390 . S
C897 H890 0.950 . S
C897 C894 1.387 . S
C898 C899 1.387 . S
C898 H902 0.950 . S
C898 C907 1.390 . S
C899 C898 1.387 . S
C899 C901 1.387 . S
H900 C907 0.950 . S
C901 C899 1.387 . S
C901 C903 1.390 . S
C901 H905 0.950 . S
H902 C898 0.950 . S
C903 C901 1.390 . S
C903 C904 1.387 . S
C903 H906 0.950 . S
C904 C903 1.387 . S
C904 C907 1.387 . S
H905 C901 0.950 . S
H906 C903 0.950 . S
C907 C898 1.390 . S
C907 H900 0.950 . S
C907 C904 1.387 . S
C908 C909 1.387 . S
C908 H912 0.950 . S
C908 C917 1.390 . S
C909 C908 1.387 . S
C909 C911 1.387 . S
H910 C917 0.950 . S
C911 C909 1.387 . S
C911 C913 1.390 . S
C911 H915 0.950 . S
H912 C908 0.950 . S
C913 C911 1.390 . S
C913 C914 1.387 . S
C913 H916 0.950 . S
C914 C913 1.387 . S
C914 C917 1.387 . S
H915 C911 0.950 . S
H916 C913 0.950 . S
C917 C908 1.390 . S
C917 H910 0.950 . S
C917 C914 1.387 . S
C918 C919 1.387 . S
C918 H922 0.950 . S
C918 C927 1.390 . S
C919 C918 1.387 . S
C919 C921 1.387 . S
H920 C927 0.950 . S
C921 C919 1.387 . S
C921 C923 1.390 . S
C921 H925 0.950 . S
H922 C918 0.950 . S
C923 C921 1.390 . S
C923 C924 1.387 . S
C923 H926 0.950 . S
C924 C923 1.387 . S
C924 C927 1.387 . S
H925 C921 0.950 . S
H926 C923 0.950 . S
C927 C918 1.390 . S
C927 H920 0.950 . S
C927 C924 1.387 . S
C928 C929 1.387 . S
C928 H932 0.950 . S
C928 C937 1.390 . S
C929 C928 1.387 . S
C929 C931 1.387 . S
H930 C937 0.950 . S
C931 C929 1.387 . S
C931 C933 1.390 . S
C931 H935 0.950 . S
H932 C928 0.950 . S
C933 C931 1.390 . S
C933 C934 1.387 . S
C933 H936 0.950 . S
C934 C933 1.387 . S
C934 C937 1.387 . S
H935 C931 0.950 . S
H936 C933 0.950 . S
C937 C928 1.390 . S
C937 H930 0.950 . S
C937 C934 1.387 . S
C938 C939 1.387 . S
C938 H942 0.950 . S
C938 C947 1.390 1_545 S
C939 C938 1.387 . S
C939 C941 1.387 1_455 S
H940 C947 0.950 . S
C941 C939 1.387 1_655 S
C941 C943 1.390 1_655 S
C941 H945 0.950 . S
H942 C938 0.950 . S
C943 C941 1.390 1_455 S
C943 C944 1.387 . S
C943 H946 0.950 1_455 S
C944 C943 1.387 . S
C944 C947 1.387 1_545 S
H945 C941 0.950 . S
H946 C943 0.950 1_655 S
C947 C938 1.390 1_565 S
C947 H940 0.950 . S
C947 C944 1.387 1_565 S
C948 C949 1.387 . S
C948 H952 0.950 1_545 S
C948 C957 1.390 1_545 S
C949 C948 1.387 . S
C949 C951 1.387 . S
H950 C957 0.950 . S
C951 C949 1.387 . S
C951 C953 1.390 . S
C951 H955 0.950 . S
H952 C948 0.950 1_565 S
C953 C951 1.390 . S
C953 C954 1.387 . S
C953 H956 0.950 . S
C954 C953 1.387 . S
C954 C957 1.387 1_545 S
H955 C951 0.950 . S
H956 C953 0.950 . S
C957 C948 1.390 1_565 S
C957 H950 0.950 . S
C957 C954 1.387 1_565 S
C958 C959 1.387 . S
C958 H962 0.950 . S
C958 C967 1.390 . S
C959 C958 1.387 . S
C959 C961 1.387 . S
H960 C967 0.950 . S
C961 C959 1.387 . S
C961 C963 1.390 . S
C961 H965 0.950 . S
H962 C958 0.950 . S
C963 C961 1.390 . S
C963 C964 1.387 . S
C963 H966 0.950 . S
C964 C963 1.387 . S
C964 C967 1.387 . S
H965 C961 0.950 . S
H966 C963 0.950 . S
C967 C958 1.390 . S
C967 H960 0.950 . S
C967 C964 1.387 . S
C968 C969 1.387 . S
C968 H972 0.950 . S
C968 C977 1.390 . S
C969 C968 1.387 . S
C969 C971 1.387 . S
H970 C977 0.950 1_655 S
C971 C969 1.387 . S
C971 C973 1.390 . S
C971 H975 0.950 . S
H972 C968 0.950 . S
C973 C971 1.390 . S
C973 C974 1.387 . S
C973 H976 0.950 . S
C974 C973 1.387 . S
C974 C977 1.387 . S
H975 C971 0.950 . S
H976 C973 0.950 . S
C977 C968 1.390 . S
C977 H970 0.950 1_455 S
C977 C974 1.387 . S
C978 C979 1.387 . S
C978 H982 0.950 1_445 S
C978 C987 1.390 . S
C979 C978 1.387 . S
C979 C981 1.387 . S
H980 C987 0.963 1_655 S
C981 C979 1.387 . S
C981 C983 1.390 . S
C981 H985 0.950 . S
H982 C978 0.950 1_665 S
C983 C981 1.390 . S
C983 C984 1.387 . S
C983 H986 0.950 . S
C984 C983 1.387 . S
C984 C987 1.387 . S
H985 C981 0.950 . S
H986 C983 0.950 . S
C987 C978 1.390 . S
C987 H980 0.963 1_455 S
C987 C984 1.387 . S
C988 C989 1.387 . S
C988 H992 0.950 . S
C988 C997 1.390 . S
C989 C988 1.387 . S
C989 C991 1.387 . S
H990 C997 0.950 . S
C991 C989 1.387 . S
C991 C993 1.390 . S
C991 H995 0.950 . S
H992 C988 0.950 . S
C993 C991 1.390 . S
C993 C994 1.387 . S
C993 H996 0.950 . S
C994 C993 1.387 . S
C994 C997 1.387 . S
H995 C991 0.950 . S
H996 C993 0.950 . S
C997 C988 1.390 . S
C997 H990 0.950 . S
C997 C994 1.387 . S
C998 C999 1.387 . S
C998 H1002 0.950 . S
C998 C1007 1.390 . S
C999 C998 1.387 . S
C999 C1001 1.387 . S
H1000 C1007 0.950 . S
C1001 C999 1.387 . S
C1001 C1003 1.390 . S
C1001 H1005 0.950 . S
H1002 C998 0.950 . S
C1003 C1001 1.390 . S
C1003 C1004 1.387 . S
C1003 H1006 0.950 . S
C1004 C1003 1.387 . S
C1004 C1007 1.387 . S
H1005 C1001 0.950 . S
H1006 C1003 0.950 . S
C1007 C998 1.390 . S
C1007 H1000 0.950 . S
C1007 C1004 1.387 . S
C1008 C1009 1.387 . S
C1008 H1012 0.950 . S
C1008 C1017 1.390 . S
C1009 C1008 1.387 . S
C1009 C1011 1.387 . S
H1010 C1017 0.950 . S
C1011 C1009 1.387 . S
C1011 C1013 1.390 . S
C1011 H1015 0.950 . S
H1012 C1008 0.950 . S
C1013 C1011 1.390 . S
C1013 C1014 1.387 . S
C1013 H1016 0.950 . S
C1014 C1013 1.387 . S
C1014 C1017 1.387 . S
H1015 C1011 0.950 . S
H1016 C1013 0.950 . S
C1017 C1008 1.390 . S
C1017 H1010 0.950 . S
C1017 C1014 1.387 . S
C1018 C1019 1.387 . S
C1018 H1022 0.950 . S
C1018 C1027 1.390 . S
C1019 C1018 1.387 . S
C1019 C1021 1.387 . S
H1020 C1027 0.950 . S
C1021 C1019 1.387 . S
C1021 C1023 1.390 . S
C1021 H1025 0.950 . S
H1022 C1018 0.950 . S
C1023 C1021 1.390 . S
C1023 C1024 1.387 . S
C1023 H1026 0.950 . S
C1024 C1023 1.387 . S
C1024 C1027 1.387 . S
H1025 C1021 0.950 . S
H1026 C1023 0.950 . S
C1027 C1018 1.390 . S
C1027 H1020 0.950 . S
C1027 C1024 1.387 . S
C1028 C1029 1.387 . S
C1028 H1032 0.950 . S
C1028 C1037 1.390 . S
C1029 C1028 1.387 . S
C1029 C1031 1.387 . S
H1030 C1037 0.950 . S
C1031 C1029 1.387 . S
C1031 C1033 1.390 . S
C1031 H1035 0.950 . S
H1032 C1028 0.950 . S
C1033 C1031 1.390 . S
C1033 C1034 1.387 . S
C1033 H1036 0.950 . S
C1034 C1033 1.387 . S
C1034 C1037 1.387 . S
H1035 C1031 0.950 . S
H1036 C1033 0.950 . S
C1037 C1028 1.390 . S
C1037 H1030 0.950 . S
C1037 C1034 1.387 . S
C1038 C1039 1.387 . S
C1038 H1042 0.950 . S
C1038 C1047 1.390 . S
C1039 C1038 1.387 . S
C1039 C1041 1.387 . S
H1040 C1047 0.950 . S
C1041 C1039 1.387 . S
C1041 C1043 1.390 . S
C1041 H1045 0.950 . S
H1042 C1038 0.950 . S
C1043 C1041 1.390 . S
C1043 C1044 1.387 . S
C1043 H1046 0.950 . S
C1044 C1043 1.387 . S
C1044 C1047 1.387 . S
H1045 C1041 0.950 . S
H1046 C1043 0.950 . S
C1047 C1038 1.390 . S
C1047 H1040 0.950 . S
C1047 C1044 1.387 . S
C1048 C1049 1.387 . S
C1048 H1052 0.950 . S
C1048 C1057 1.390 . S
C1049 C1048 1.387 . S
C1049 C1051 1.387 . S
H1050 C1057 0.950 . S
C1051 C1049 1.387 . S
C1051 C1053 1.390 . S
C1051 H1055 0.950 . S
H1052 C1048 0.950 . S
C1053 C1051 1.390 . S
C1053 C1054 1.387 . S
C1053 H1056 0.950 . S
C1054 C1053 1.387 . S
C1054 C1057 1.387 . S
H1055 C1051 0.950 . S
H1056 C1053 0.950 . S
C1057 C1048 1.390 . S
C1057 H1050 0.950 . S
C1057 C1054 1.387 . S
C1058 C1059 1.387 . S
C1058 H1062 0.950 . S
C1058 C1067 1.390 . S
C1059 C1058 1.387 . S
C1059 C1061 1.387 . S
H1060 C1067 0.950 . S
C1061 C1059 1.387 . S
C1061 C1063 1.390 . S
C1061 H1065 0.950 . S
H1062 C1058 0.950 . S
C1063 C1061 1.390 . S
C1063 C1064 1.387 . S
C1063 H1066 0.950 . S
C1064 C1063 1.387 . S
C1064 C1067 1.387 . S
H1065 C1061 0.950 . S
H1066 C1063 0.950 . S
C1067 C1058 1.390 . S
C1067 H1060 0.950 . S
C1067 C1064 1.387 . S
C1068 C1069 1.387 . S
C1068 H1072 0.950 . S
C1068 C1077 1.390 . S
C1069 C1068 1.387 . S
C1069 C1071 1.387 . S
H1070 C1077 0.950 . S
C1071 C1069 1.387 . S
C1071 C1073 1.390 . S
C1071 H1075 0.950 . S
H1072 C1068 0.950 . S
C1073 C1071 1.390 . S
C1073 C1074 1.387 . S
C1073 H1076 0.950 . S
C1074 C1073 1.387 . S
C1074 C1077 1.387 . S
H1075 C1071 0.950 . S
H1076 C1073 0.950 . S
C1077 C1068 1.390 . S
C1077 H1070 0.950 . S
C1077 C1074 1.387 . S
C1078 C1079 1.387 . S
C1078 H1082 0.950 . S
C1078 C1087 1.390 . S
C1079 C1078 1.387 . S
C1079 C1081 1.387 . S
H1080 C1087 0.950 . S
C1081 C1079 1.387 . S
C1081 C1083 1.390 . S
C1081 H1085 0.950 . S
H1082 C1078 0.950 . S
C1083 C1081 1.390 . S
C1083 C1084 1.387 . S
C1083 H1086 0.950 . S
C1084 C1083 1.387 . S
C1084 C1087 1.387 . S
H1085 C1081 0.950 . S
H1086 C1083 0.950 . S
C1087 C1078 1.390 . S
C1087 H1080 0.950 . S
C1087 C1084 1.387 . S
C1088 C1089 1.387 1_556 S
C1088 H1092 0.950 . S
C1088 C1097 1.390 1_455 S
C1089 C1088 1.387 1_554 S
C1089 C1091 1.387 . S
H1090 C1097 0.950 . S
C1091 C1089 1.387 . S
C1091 C1093 1.390 1_554 S
C1091 H1095 0.950 . S
H1092 C1088 0.950 . S
C1093 C1091 1.390 1_556 S
C1093 C1094 1.387 1_455 S
C1093 H1096 0.950 1_455 S
C1094 C1093 1.387 1_655 S
C1094 C1097 1.387 . S
H1095 C1091 0.950 . S
H1096 C1093 0.950 1_655 S
C1097 C1088 1.390 1_655 S
C1097 H1090 0.950 . S
C1097 C1094 1.387 . S
C1098 C1099 1.387 1_554 S
C1098 H1102 0.950 . S
C1098 C1107 1.390 1_565 S
C1099 C1098 1.387 1_556 S
C1099 C1101 1.387 1_565 S
H1100 C1107 0.950 . S
C1101 C1099 1.387 1_545 S
C1101 C1103 1.390 . S
C1101 H1105 0.950 . S
H1102 C1098 0.950 . S
C1103 C1101 1.390 . S
C1103 C1104 1.391 1_556 S
C1103 H1106 0.950 . S
C1104 C1103 1.391 1_554 S
C1104 C1107 1.386 . S
H1105 C1101 0.950 . S
H1106 C1103 0.950 . S
C1107 C1098 1.390 1_545 S
C1107 H1100 0.950 . S
C1107 C1104 1.386 . S
C1108 C1109 1.387 1_554 S
C1108 H1112 0.950 . S
C1108 C1117 1.390 1_554 S
C1109 C1108 1.387 1_556 S
C1109 C1111 1.389 . S
H1110 C1117 0.950 1_554 S
C1111 C1109 1.389 . S
C1111 C1113 1.390 . S
C1111 H1115 0.950 1_545 S
H1112 C1108 0.950 . S
C1113 C1111 1.390 . S
C1113 C1114 1.387 . S
C1113 H1116 0.950 1_545 S
C1114 C1113 1.387 . S
C1114 C1117 1.387 . S
H1115 C1111 0.950 1_565 S
H1116 C1113 0.950 1_565 S
C1117 C1108 1.390 1_556 S
C1117 H1110 0.950 1_556 S
C1117 C1114 1.387 . S
C1118 C1119 1.387 1_554 S
C1118 H1122 0.950 . S
C1118 C1127 1.390 . S
C1119 C1118 1.387 1_556 S
C1119 C1121 1.387 . S
H1120 C1127 0.950 . S
C1121 C1119 1.387 . S
C1121 C1123 1.390 . S
C1121 H1125 0.950 . S
H1122 C1118 0.950 . S
C1123 C1121 1.390 . S
C1123 C1124 1.386 . S
C1123 H1126 0.950 . S
C1124 C1123 1.386 . S
C1124 C1127 1.388 1_556 S
H1125 C1121 0.950 . S
H1126 C1123 0.950 . S
C1127 C1118 1.390 . S
C1127 H1120 0.950 . S
C1127 C1124 1.388 1_554 S
C1128 C1129 1.387 . S
C1128 H1132 0.950 . S
C1128 C1137 1.390 1_455 S
C1129 C1128 1.387 . S
C1129 C1131 1.387 . S
H1130 C1137 0.950 . S
C1131 C1129 1.387 . S
C1131 C1133 1.390 . S
C1131 H1135 0.950 1_545 S
H1132 C1128 0.950 . S
C1133 C1131 1.390 . S
C1133 C1134 1.387 1_455 S
C1133 H1136 0.950 1_455 S
C1134 C1133 1.387 1_655 S
C1134 C1137 1.387 . S
H1135 C1131 0.950 1_565 S
H1136 C1133 0.950 1_655 S
C1137 C1128 1.390 1_655 S
C1137 H1130 0.950 . S
C1137 C1134 1.387 . S
C1138 C1139 1.387 . S
C1138 H1142 0.950 . S
C1138 C1147 1.390 . S
C1139 C1138 1.387 . S
C1139 C1141 1.387 . S
H1140 C1147 0.944 1_565 S
C1141 C1139 1.387 . S
C1141 C1143 1.390 1_545 S
C1141 H1145 0.950 . S
H1142 C1138 0.950 . S
C1143 C1141 1.390 1_565 S
C1143 C1144 1.387 . S
C1143 H1146 0.950 . S
C1144 C1143 1.387 . S
C1144 C1147 1.387 1_565 S
H1145 C1141 0.950 . S
H1146 C1143 0.950 . S
C1147 C1138 1.390 . S
C1147 H1140 0.944 1_545 S
C1147 C1144 1.387 1_545 S
C1148 C1149 1.387 . S
C1148 H1152 0.950 . S
C1148 C1157 1.390 . S
C1149 C1148 1.387 . S
C1149 C1151 1.387 . S
H1150 C1157 0.950 . S
C1151 C1149 1.387 . S
C1151 C1153 1.390 . S
C1151 H1155 0.950 . S
H1152 C1148 0.950 . S
C1153 C1151 1.390 . S
C1153 C1154 1.387 . S
C1153 H1156 0.950 . S
C1154 C1153 1.387 . S
C1154 C1157 1.387 . S
H1155 C1151 0.950 . S
H1156 C1153 0.950 . S
C1157 C1148 1.390 . S
C1157 H1150 0.950 . S
C1157 C1154 1.387 . S
C1158 C1159 1.387 . S
C1158 H1162 0.950 . S
C1158 C1167 1.390 . S
C1159 C1158 1.387 . S
C1159 C1161 1.387 . S
H1160 C1167 0.950 . S
C1161 C1159 1.387 . S
C1161 C1163 1.390 . S
C1161 H1165 0.950 . S
H1162 C1158 0.950 . S
C1163 C1161 1.390 . S
C1163 C1164 1.387 . S
C1163 H1166 0.950 . S
C1164 C1163 1.387 . S
C1164 C1167 1.387 . S
H1165 C1161 0.950 . S
H1166 C1163 0.950 . S
C1167 C1158 1.390 . S
C1167 H1160 0.950 . S
C1167 C1164 1.387 . S
C849 C38 2.616 . S
C854 C144 2.616 . S
C859 C91 2.616 . S
C864 C197 2.616 . S
C869 C250 2.616 . S
C874 C356 2.616 . S
C879 C409 2.616 . S
C884 C303 2.616 . S
C889 C453 1.178 . S
C894 C559 1.178 . S
C899 C612 1.178 . S
C904 C506 1.178 . S
C909 C771 1.180 . S
C914 C665 1.180 . S
C919 C824 1.178 . S
C924 C718 1.178 . S
C929 C410 2.470 1_455 S
C934 C39 2.470 . S
C939 C92 2.469 1_455 S
C944 C251 2.470 1_545 S
C949 C304 2.469 . S
C954 C145 2.469 1_545 S
C959 C198 2.468 . S
C964 C357 2.468 . S
C969 C817 1.302 . S
C974 C446 1.302 . S
C979 C499 1.302 . S
C984 C658 1.302 . S
C989 C552 1.306 . S
C994 C711 1.306 . S
C999 C764 1.308 . S
C1004 C605 1.308 . S
C1009 C29 0.926 . S
C1014 C241 0.926 . S
C1019 C82 0.926 . S
C1024 C294 0.926 . S
C1029 C347 0.926 . S
C1034 C135 0.926 . S
C1039 C188 0.920 . S
C1044 C400 0.920 . S
C1049 C674 1.366 . S
C1054 C462 1.366 . S
C1059 C727 1.366 . S
C1064 C515 1.366 . S
C1069 C568 1.366 . S
C1074 C780 1.366 . S
C1079 C621 1.366 . S
C1084 C833 1.366 . S
C1089 C22 2.262 . S
C1094 C463 2.269 . S
C1099 C516 2.271 . S
C1104 C75 2.252 1_455 S
C1109 C128 2.253 1_546 S
C1114 C569 2.272 . S
C1119 C622 2.272 . S
C1124 C181 2.266 1_556 S
C1129 C234 2.255 1_545 S
C1134 C675 2.272 . S
C1139 C287 2.265 . S
C1144 C728 2.272 . S
C1149 C781 2.269 . S
C1154 C340 2.262 . S
C1159 C393 2.254 1_455 S
C1164 C834 2.271 . S
