# Generated by pormake.
# Topology irl, (4)-cn, num edge types: 1
# Building blocks:
#     Node 0, Type 0, BuildingBlock: GALJAG_clean_sbu_0, # of connection points: 4
#     Node 1, Type 0, BuildingBlock: GALJAG_clean_sbu_0, # of connection points: 4
#     Node 2, Type 0, BuildingBlock: GALJAG_clean_sbu_0, # of connection points: 4
#     Node 3, Type 0, BuildingBlock: GALJAG_clean_sbu_0, # of connection points: 4
#     Node 4, Type 0, BuildingBlock: GALJAG_clean_sbu_0, # of connection points: 4
#     Node 5, Type 0, BuildingBlock: GALJAG_clean_sbu_0, # of connection points: 4
#     Node 6, Type 0, BuildingBlock: GALJAG_clean_sbu_0, # of connection points: 4
#     Node 7, Type 0, BuildingBlock: GALJAG_clean_sbu_0, # of connection points: 4
#     Edge 8, Type (0, 0), BuildingBlock: KIFKEQ_clean_linker_1, # of connection points: 2
#     Edge 9, Type (0, 0), BuildingBlock: KIFKEQ_clean_linker_1, # of connection points: 2
#     Edge 10, Type (0, 0), BuildingBlock: KIFKEQ_clean_linker_1, # of connection points: 2
#     Edge 11, Type (0, 0), BuildingBlock: KIFKEQ_clean_linker_1, # of connection points: 2
#     Edge 12, Type (0, 0), BuildingBlock: KIFKEQ_clean_linker_1, # of connection points: 2
#     Edge 13, Type (0, 0), BuildingBlock: KIFKEQ_clean_linker_1, # of connection points: 2
#     Edge 14, Type (0, 0), BuildingBlock: KIFKEQ_clean_linker_1, # of connection points: 2
#     Edge 15, Type (0, 0), BuildingBlock: KIFKEQ_clean_linker_1, # of connection points: 2
#     Edge 16, Type (0, 0), BuildingBlock: KIFKEQ_clean_linker_1, # of connection points: 2
#     Edge 17, Type (0, 0), BuildingBlock: KIFKEQ_clean_linker_1, # of connection points: 2
#     Edge 18, Type (0, 0), BuildingBlock: KIFKEQ_clean_linker_1, # of connection points: 2
#     Edge 19, Type (0, 0), BuildingBlock: KIFKEQ_clean_linker_1, # of connection points: 2
#     Edge 20, Type (0, 0), BuildingBlock: KIFKEQ_clean_linker_1, # of connection points: 2
#     Edge 21, Type (0, 0), BuildingBlock: KIFKEQ_clean_linker_1, # of connection points: 2
#     Edge 22, Type (0, 0), BuildingBlock: KIFKEQ_clean_linker_1, # of connection points: 2
#     Edge 23, Type (0, 0), BuildingBlock: KIFKEQ_clean_linker_1, # of connection points: 2
# Relax obj value: 0.098
# Max RMSD: 0.151
# Mean RMSD: 0.151
data_MOF--net-irl--node1-GALJAG_clean_sbu_0--edge1-KIFKEQ_clean_linker_1
_symmetry_space_group_name_H-M    P1
_symmetry_Int_Tables_number       1
_symmetry_cell_setting            triclinic
loop_
_symmetry_equiv_pos_as_xyz
'x, y, z'
_cell_length_a     31.903985
_cell_length_b     48.366336
_cell_length_c     29.530164
_cell_angle_alpha  90.049811
_cell_angle_beta   89.907077
_cell_angle_gamma 89.979327
loop_
_atom_site_label
_atom_site_type_symbol
_atom_site_fract_x
_atom_site_fract_y
_atom_site_fract_z
_atom_type_partial_charge
In0 In 0.02785 0.15592 0.02596 0.0
O1 O -0.01667 0.17402 0.07966 0.0
O2 O 0.03685 0.15093 0.10082 0.0
C3 C 0.00715 0.17226 0.94238 0.0
C4 C 0.09565 0.18798 0.02989 0.0
C5 C 0.01108 0.10174 0.01755 0.0
O6 O -0.01804 0.17517 0.97536 0.0
O7 O 0.04171 0.16096 0.95183 0.0
O8 O 0.04817 0.11061 0.02227 0.0
O9 O -0.01693 0.12017 0.01701 0.0
C10 C 0.00506 0.16478 0.11226 0.0
O11 O 0.09856 0.16183 0.02831 0.0
O12 O 0.05876 0.19753 0.02969 0.0
In13 In 0.91885 0.84501 0.01959 0.0
O14 O 0.84829 0.8387 0.0201 0.0
O15 O 0.88835 0.80314 0.02259 0.0
C16 C 0.93485 0.89936 0.01257 0.0
C17 C 0.94066 0.83657 0.10626 0.0
C18 C 0.94136 0.82967 0.93587 0.0
O19 O 0.89785 0.89023 0.01686 0.0
O20 O 0.9631 0.88111 0.01167 0.0
O21 O 0.96596 0.8265 0.96921 0.0
O22 O 0.90641 0.84055 0.9451 0.0
C23 C 0.85136 0.81255 0.02179 0.0
O24 O 0.96331 0.82773 0.07398 0.0
O25 O 0.90824 0.84956 0.09434 0.0
In26 In 0.03055 0.8515 0.52448 0.0
O27 O -0.01241 0.83283 0.47016 0.0
O28 O 0.03806 0.85898 0.44974 0.0
C29 C 0.00735 0.83285 0.60633 0.0
C30 C 0.1001 0.82101 0.51902 0.0
C31 C 0.01371 0.90562 0.53481 0.0
O32 O -0.01755 0.83211 0.57292 0.0
O33 O 0.04304 0.84285 0.5981 0.0
O34 O 0.05064 0.89689 0.52823 0.0
O35 O -0.01408 0.8871 0.53628 0.0
C36 C 0.00778 0.84387 0.43785 0.0
O37 O 0.10143 0.84654 0.52881 0.0
O38 O 0.06392 0.8113 0.51194 0.0
In39 In 0.91871 0.1618 0.53156 0.0
O40 O 0.96114 0.17964 0.4759 0.0
O41 O 0.90855 0.15485 0.45721 0.0
C42 C 0.94342 0.17948 0.61328 0.0
C43 C 0.84987 0.19302 0.52878 0.0
C44 C 0.93522 0.10756 0.54036 0.0
O45 O 0.96775 0.18064 0.57933 0.0
O46 O 0.90758 0.16959 0.60561 0.0
O47 O 0.89821 0.11648 0.53519 0.0
O48 O 0.96321 0.12596 0.54135 0.0
C49 C 0.93942 0.16911 0.44431 0.0
O50 O 0.84817 0.16735 0.53742 0.0
O51 O 0.88615 0.20256 0.52142 0.0
In52 In 0.53025 0.65641 0.02506 0.0
O53 O 0.60109 0.66122 0.02974 0.0
O54 O 0.56379 0.69668 0.01366 0.0
C55 C 0.51348 0.60221 0.03395 0.0
C56 C 0.50644 0.67425 0.10727 0.0
C57 C 0.50761 0.66446 0.93849 0.0
O58 O 0.55044 0.61099 0.02777 0.0
O59 O 0.48568 0.62073 0.03579 0.0
O60 O 0.48731 0.67533 0.97091 0.0
O61 O 0.53801 0.64941 0.95021 0.0
C62 C 0.59991 0.68682 0.02057 0.0
O63 O 0.48179 0.67532 0.07367 0.0
O64 O 0.54225 0.66443 0.09902 0.0
In65 In 0.41395 0.34656 0.03509 0.0
O66 O 0.45783 0.32574 0.08633 0.0
O67 O 0.40226 0.3459 0.10989 0.0
C68 C 0.43611 0.3372 0.94891 0.0
C69 C 0.3455 0.315 0.03283 0.0
C70 C 0.43279 0.40056 0.03888 0.0
O71 O 0.45825 0.32832 0.98152 0.0
O72 O 0.40403 0.35082 0.96031 0.0
O73 O 0.39541 0.39216 0.03437 0.0
O74 O 0.46011 0.38173 0.04152 0.0
C75 C 0.43475 0.3323 0.11974 0.0
O76 O 0.34321 0.34096 0.03858 0.0
O77 O 0.3821 0.30538 0.0282 0.0
In78 In 0.52875 0.34942 0.53239 0.0
O79 O 0.59974 0.34433 0.53339 0.0
O80 O 0.56103 0.30818 0.53211 0.0
C81 C 0.50933 0.40333 0.5279 0.0
C82 C 0.50789 0.3356 0.44758 0.0
C83 C 0.50681 0.33898 0.6184 0.0
O84 O 0.54688 0.39507 0.53136 0.0
O85 O 0.48207 0.38441 0.52698 0.0
O86 O 0.48453 0.33062 0.58556 0.0
O87 O 0.53891 0.35263 0.60734 0.0
C88 C 0.59763 0.31814 0.53269 0.0
O89 O 0.48541 0.32833 0.48105 0.0
O90 O 0.53976 0.34985 0.45741 0.0
In91 In 0.41572 0.65987 0.52105 0.0
O92 O 0.34526 0.66686 0.52107 0.0
O93 O 0.38608 0.70201 0.52351 0.0
C94 C 0.43094 0.60534 0.51568 0.0
C95 C 0.4384 0.6743 0.43697 0.0
C96 C 0.43796 0.66899 0.60744 0.0
O97 O 0.39409 0.61472 0.5201 0.0
O98 O 0.45938 0.62342 0.51368 0.0
O99 O 0.46059 0.67737 0.57484 0.0
O100 O 0.40531 0.6561 0.59596 0.0
C101 C 0.3489 0.69298 0.52253 0.0
O102 O 0.46299 0.67766 0.47027 0.0
O103 O 0.40337 0.66362 0.44639 0.0
H104 H 0.00877 0.92244 0.98687 0.0
H105 H 0.88413 0.94326 0.03277 0.0
H106 H 0.02719 0.97123 0.98505 0.0
H107 H 0.90298 0.99215 0.03299 0.0
H108 H 0.93695 0.07927 0.99114 0.0
H109 H 0.91833 0.03056 0.98682 0.0
H110 H 0.04235 0.00857 0.03355 0.0
H111 H 0.06138 0.05739 0.03585 0.0
C112 C -0.01467 0.93751 -0.00325 0.0
C113 C 0.94502 0.92909 0.01001 0.0
C114 C -0.00401 0.9655 -0.00394 0.0
C115 C 0.96674 0.98574 0.00918 0.0
C116 C 0.92618 0.97723 0.02202 0.0
C117 C 0.91537 0.94921 0.02214 0.0
C118 C 0.96028 0.06399 0.00025 0.0
C119 C 0.00062 0.07209 0.01386 0.0
C120 C 0.94951 0.03604 -0.00189 0.0
C121 C -0.02132 0.01551 0.01007 0.0
C122 C 0.01922 0.02372 0.0234 0.0
C123 C 0.03014 0.05171 0.02498 0.0
H124 H 0.06333 0.95024 0.51599 0.0
H125 H 0.93989 0.92771 0.56336 0.0
H126 H 0.04377 0.99898 0.51903 0.0
H127 H 0.92076 0.97633 0.56827 0.0
H128 H 0.88493 0.06331 0.52135 0.0
H129 H 0.90441 0.01452 0.52158 0.0
H130 H 0.02854 0.03627 0.56819 0.0
H131 H 0.00946 0.08496 0.56607 0.0
C132 C 0.03221 0.95576 0.52762 0.0
C133 C 0.0031 0.93522 0.53923 0.0
C134 C 0.021 0.9837 0.52962 0.0
C135 C -0.01944 0.99168 0.54379 0.0
C136 C 0.95185 0.97101 0.55634 0.0
C137 C 0.96291 0.94312 0.55385 0.0
C138 C 0.91627 0.05758 0.53184 0.0
C139 C 0.94571 0.0779 0.54348 0.0
C140 C 0.92745 0.02961 0.53221 0.0
C141 C 0.96819 0.02137 0.54474 0.0
C142 C -0.00279 0.04181 0.55745 0.0
C143 C -0.01383 0.06974 0.55658 0.0
H144 H 0.4397 0.57999 0.062 0.0
H145 H 0.56298 0.55768 0.01373 0.0
H146 H 0.42042 0.5314 0.06558 0.0
H147 H 0.54324 0.50893 0.01543 0.0
H148 H 0.50805 0.42269 0.06237 0.0
H149 H 0.52794 0.47126 0.06379 0.0
H150 H 0.40381 0.49369 0.018 0.0
H151 H 0.38356 0.44507 0.01848 0.0
C152 C 0.46265 0.56464 0.05198 0.0
C153 C 0.50284 0.57259 0.03753 0.0
C154 C 0.45149 0.53676 0.05369 0.0
C155 C 0.4801 0.51615 0.04047 0.0
C156 C 0.52054 0.52417 0.02645 0.0
C157 C 0.53186 0.55211 0.02525 0.0
C158 C 0.48498 0.43804 0.05279 0.0
C159 C 0.44424 0.43012 0.04033 0.0
C160 C 0.49647 0.46589 0.05328 0.0
C161 C 0.46759 0.48649 0.04085 0.0
C162 C 0.42672 0.47848 0.0285 0.0
C163 C 0.41511 0.4506 0.0285 0.0
H164 H 0.43358 0.42487 0.5046 0.0
H165 H 0.55879 0.44829 0.54443 0.0
H166 H 0.41398 0.47339 0.49905 0.0
H167 H 0.53884 0.49691 0.54092 0.0
H168 H 0.50403 0.58151 0.48914 0.0
H169 H 0.52243 0.53273 0.4901 0.0
H170 H 0.39939 0.51314 0.54273 0.0
H171 H 0.3805 0.56202 0.53973 0.0
C172 C 0.45684 0.44045 0.51251 0.0
C173 C 0.49774 0.43283 0.5249 0.0
C174 C 0.44553 0.46829 0.50963 0.0
C175 C 0.47474 0.48919 0.51958 0.0
C176 C 0.51567 0.48146 0.53219 0.0
C177 C 0.52711 0.45358 0.53452 0.0
C178 C 0.48083 0.56673 0.50064 0.0
C179 C 0.44085 0.57553 0.51443 0.0
C180 C 0.49149 0.53876 0.50157 0.0
C181 C 0.46261 0.5189 0.51693 0.0
C182 C 0.42231 0.52775 0.53016 0.0
C183 C 0.41147 0.55577 0.52865 0.0
H184 H 0.9331 0.18646 0.14922 0.0
H185 H 0.05517 0.1543 0.1842 0.0
H186 H 0.91695 0.1921 0.22998 0.0
H187 H 0.0391 0.15981 0.26417 0.0
H188 H 0.00966 0.19156 0.40511 0.0
H189 H 0.02512 0.19505 0.32394 0.0
H190 H 0.90479 0.15876 0.2932 0.0
H191 H 0.88937 0.15538 0.37368 0.0
C192 C 0.9565 0.18081 0.17408 0.0
C193 C -0.00481 0.16973 0.16047 0.0
C194 C 0.94729 0.18398 0.22021 0.0
C195 C -0.02317 0.17643 0.25336 0.0
C196 C 0.01593 0.16615 0.2395 0.0
C197 C 0.02493 0.16275 0.19363 0.0
C198 C -0.01353 0.18458 0.38091 0.0
C199 C 0.94854 0.17297 0.39568 0.0
C200 C -0.00471 0.18652 0.33455 0.0
C201 C 0.96612 0.17717 0.30225 0.0
C202 C 0.92766 0.16645 0.31718 0.0
C203 C 0.91904 0.16428 0.36334 0.0
H204 H 0.05412 0.86004 0.36544 0.0
H205 H 0.94023 0.81688 0.40105 0.0
H206 H 0.03861 0.85374 0.28549 0.0
H207 H 0.92469 0.81046 0.32044 0.0
H208 H 0.88855 0.8446 0.17756 0.0
H209 H 0.90514 0.84239 0.2578 0.0
H210 H 0.03178 0.81769 0.22527 0.0
H211 H 0.01508 0.82 0.14428 0.0
C212 C 0.02581 0.84906 0.35617 0.0
C213 C -0.00184 0.83914 0.38952 0.0
C214 C 0.01719 0.84521 0.3103 0.0
C215 C -0.01946 0.83153 0.29666 0.0
C216 C 0.9531 0.82122 0.33001 0.0
C217 C 0.96195 0.82487 0.37607 0.0
C218 C 0.91987 0.83844 0.18745 0.0
C219 C 0.95067 0.8327 0.15466 0.0
C220 C 0.92924 0.83695 0.23349 0.0
C221 C 0.96975 0.82992 0.24786 0.0
C222 C 0.00034 0.82338 0.2151 0.0
C223 C -0.0092 0.8246 0.16884 0.0
H224 H 0.05811 0.81083 0.67016 0.0
H225 H 0.93082 0.83712 0.64686 0.0
H226 H 0.04233 0.80315 0.74981 0.0
H227 H 0.91535 0.83154 0.72709 0.0
H228 H 0.88891 0.81148 0.87046 0.0
H229 H 0.90411 0.80523 0.79034 0.0
H230 H 0.03322 0.82835 0.81483 0.0
H231 H 0.01815 0.83248 0.89544 0.0
C232 C 0.0266 0.8148 0.68226 0.0
C233 C -0.00435 0.8246 0.65262 0.0
C234 C 0.0176 0.81073 0.72805 0.0
C235 C -0.02228 0.81716 0.74557 0.0
C236 C 0.94629 0.82592 0.71517 0.0
C237 C 0.95507 0.82927 0.66906 0.0
C238 C 0.9207 0.81466 0.8586 0.0
C239 C 0.95238 0.82255 0.88886 0.0
C240 C 0.9294 0.81137 0.81257 0.0
C241 C 0.96978 0.81673 0.79546 0.0
C242 C 0.00185 0.8236 0.8264 0.0
C243 C -0.0067 0.82614 0.87272 0.0
H244 H 0.06188 0.18994 0.87863 0.0
H245 H 0.93083 0.17285 0.90094 0.0
H246 H 0.04812 0.19906 0.79903 0.0
H247 H 0.91704 0.1799 0.82068 0.0
H248 H 0.89469 0.20251 0.67811 0.0
H249 H 0.91079 0.2077 0.7582 0.0
H250 H 0.03524 0.1752 0.73342 0.0
H251 H 0.01962 0.17213 0.65289 0.0
C252 C 0.03002 0.18818 0.86629 0.0
C253 C -0.00261 0.18057 0.89565 0.0
C254 C 0.02213 0.19316 0.82054 0.0
C255 C -0.01845 0.18985 0.80278 0.0
C256 C 0.94863 0.18314 0.83285 0.0
C257 C 0.95643 0.17889 0.87893 0.0
C258 C 0.92581 0.19718 0.68989 0.0
C259 C 0.95595 0.18689 0.65962 0.0
C260 C 0.93494 0.1998 0.73589 0.0
C261 C -0.02593 0.19134 0.75292 0.0
C262 C 0.00491 0.18229 0.72191 0.0
C263 C -0.00395 0.18041 0.67562 0.0
H264 H 0.55637 0.6958 0.17236 0.0
H265 H 0.42973 0.66893 0.14698 0.0
H266 H 0.53988 0.70231 0.25215 0.0
H267 H 0.41359 0.6733 0.22727 0.0
H268 H 0.38582 0.69189 0.37124 0.0
H269 H 0.40133 0.69864 0.29134 0.0
H270 H 0.53077 0.67647 0.31629 0.0
H271 H 0.51534 0.67186 0.39674 0.0
C272 C 0.52484 0.69144 0.18404 0.0
C273 C 0.49428 0.68184 0.15376 0.0
C274 C 0.51545 0.69483 0.22991 0.0
C275 C 0.47556 0.68789 0.24685 0.0
C276 C 0.44451 0.67931 0.21584 0.0
C277 C 0.45367 0.67665 0.16968 0.0
C278 C 0.41773 0.68897 0.35953 0.0
C279 C 0.44941 0.68127 0.3899 0.0
C280 C 0.42661 0.69256 0.3136 0.0
C281 C 0.46722 0.6877 0.29668 0.0
C282 C 0.49922 0.68087 0.32772 0.0
C283 C 0.49047 0.67804 0.37394 0.0
H284 H 0.55652 0.34514 0.37388 0.0
H285 H 0.43728 0.31053 0.41387 0.0
H286 H 0.53901 0.33806 0.29477 0.0
H287 H 0.41986 0.30294 0.33404 0.0
H288 H 0.38454 0.33951 0.19289 0.0
H289 H 0.40256 0.33427 0.27221 0.0
H290 H 0.52562 0.30484 0.23425 0.0
H291 H 0.50762 0.3106 0.15415 0.0
C292 C 0.5267 0.33566 0.36575 0.0
C293 C 0.498 0.32871 0.40005 0.0
C294 C 0.51687 0.33132 0.32032 0.0
C295 C 0.47802 0.31997 0.30804 0.0
C296 C 0.4499 0.31199 0.34246 0.0
C297 C 0.45986 0.31626 0.3881 0.0
C298 C 0.41533 0.33161 0.20136 0.0
C299 C 0.44491 0.32581 0.16733 0.0
C300 C 0.4255 0.32834 0.24692 0.0
C301 C 0.46557 0.31924 0.25961 0.0
C302 C 0.49461 0.3122 0.2255 0.0
C303 C 0.48432 0.31539 0.1797 0.0
H304 H 0.38656 0.3482 0.87666 0.0
H305 H 0.50812 0.31546 0.91224 0.0
H306 H 0.40362 0.34379 0.79678 0.0
H307 H 0.5252 0.31077 0.83161 0.0
H308 H 0.55608 0.34977 0.69098 0.0
H309 H 0.53908 0.3445 0.77071 0.0
H310 H 0.41821 0.31078 0.73492 0.0
H311 H 0.4352 0.31635 0.65444 0.0
C312 C 0.41686 0.33979 0.86737 0.0
C313 C 0.44622 0.33243 0.90071 0.0
C314 C 0.42644 0.33701 0.82153 0.0
C315 C 0.46573 0.32694 0.80785 0.0
C316 C 0.49475 0.31881 0.84119 0.0
C317 C 0.485 0.32142 0.88726 0.0
C318 C 0.52596 0.34102 0.70002 0.0
C319 C 0.49676 0.33372 0.66647 0.0
C320 C 0.51641 0.33775 0.74578 0.0
C321 C 0.47733 0.32722 0.75915 0.0
C322 C 0.44849 0.31916 0.72559 0.0
C323 C 0.45819 0.32228 0.67959 0.0
H324 H 0.55431 0.64894 0.86593 0.0
H325 H 0.43912 0.69054 0.90194 0.0
H326 H 0.53808 0.65458 0.78604 0.0
H327 H 0.42287 0.69633 0.82137 0.0
H328 H 0.38671 0.66077 0.67943 0.0
H329 H 0.4039 0.66382 0.75944 0.0
H330 H 0.52952 0.68981 0.72523 0.0
H331 H 0.51224 0.68662 0.64447 0.0
C332 C 0.52558 0.65947 0.85675 0.0
C333 C 0.49777 0.6691 0.8902 0.0
C334 C 0.51652 0.66294 0.81091 0.0
C335 C 0.47928 0.67595 0.79739 0.0
C336 C 0.45173 0.68606 0.83084 0.0
C337 C 0.461 0.68279 0.87687 0.0
C338 C 0.41794 0.66739 0.68889 0.0
C339 C 0.44829 0.67323 0.65569 0.0
C340 C 0.42763 0.66936 0.7348 0.0
C341 C 0.46804 0.67702 0.74866 0.0
C342 C 0.49817 0.68364 0.71548 0.0
C343 C 0.4883 0.68192 0.66935 0.0
H344 H 0.34178 0.26206 0.00277 0.0
H345 H 0.26611 0.32694 0.06142 0.0
H346 H 0.28141 0.23143 0.00204 0.0
H347 H 0.20585 0.29589 0.06274 0.0
H348 H 0.09677 0.24325 0.01455 0.0
H349 H 0.15693 0.27403 0.0148 0.0
H350 H 0.23733 0.2053 0.04994 0.0
H351 H 0.17706 0.17427 0.04756 0.0
C352 C 0.3122 0.26968 0.01582 0.0
C353 C 0.3085 0.29686 0.03208 0.0
C354 C 0.27765 0.25205 0.01577 0.0
C355 C 0.23875 0.26109 0.03256 0.0
C356 C 0.23515 0.28835 0.04891 0.0
C357 C 0.26966 0.30613 0.04836 0.0
C358 C 0.12733 0.23474 0.02233 0.0
C359 C 0.13236 0.20639 0.03096 0.0
C360 C 0.1618 0.25242 0.0228 0.0
C361 C 0.20203 0.24221 0.03251 0.0
C362 C 0.20692 0.21381 0.04157 0.0
C363 C 0.17243 0.19603 0.04049 0.0
H364 H 0.60627 0.73856 0.98581 0.0
H365 H 0.67807 0.6749 0.05272 0.0
H366 H 0.66729 0.76865 0.98553 0.0
H367 H 0.73893 0.70545 0.05428 0.0
H368 H 0.85087 0.75692 0.00911 0.0
H369 H 0.79056 0.72618 0.00754 0.0
H370 H 0.70889 0.79562 0.03503 0.0
H371 H 0.76929 0.82651 0.03463 0.0
C372 C 0.63515 0.73107 0.00067 0.0
C373 C 0.63753 0.70443 0.0193 0.0
C374 C 0.67005 0.7484 0.00086 0.0
C375 C 0.70799 0.7396 0.02021 0.0
C376 C 0.71038 0.71279 0.03857 0.0
C377 C 0.67553 0.6953 0.03786 0.0
C378 C 0.81999 0.76559 0.01482 0.0
C379 C 0.81467 0.79409 0.0219 0.0
C380 C 0.78543 0.74794 0.01421 0.0
C381 C 0.74481 0.75838 0.02118 0.0
C382 C 0.73963 0.78693 0.02873 0.0
C383 C 0.77421 0.80463 0.0288 0.0
H384 H 0.10616 0.7696 0.48288 0.0
H385 H 0.17815 0.83223 0.5522 0.0
H386 H 0.16662 0.73899 0.483 0.0
H387 H 0.23844 0.80115 0.55411 0.0
H388 H 0.34991 0.74864 0.51035 0.0
H389 H 0.29038 0.78003 0.50794 0.0
H390 H 0.20664 0.71143 0.53326 0.0
H391 H 0.2663 0.67988 0.53377 0.0
C392 C 0.13498 0.77676 0.49831 0.0
C393 C 0.13755 0.80325 0.51757 0.0
C394 C 0.16954 0.75913 0.49873 0.0
C395 C 0.20733 0.76747 0.51893 0.0
C396 C 0.20999 0.79417 0.53777 0.0
C397 C 0.17547 0.81196 0.53685 0.0
C398 C 0.31875 0.74029 0.5154 0.0
C399 C 0.31264 0.71183 0.52216 0.0
C400 C 0.28464 0.75831 0.51431 0.0
C401 C 0.24368 0.7483 0.52041 0.0
C402 C 0.23769 0.7198 0.52763 0.0
C403 C 0.27184 0.70172 0.52822 0.0
H404 H 0.59972 0.26297 0.51633 0.0
H405 H 0.6793 0.33264 0.54754 0.0
H406 H 0.66055 0.23277 0.51451 0.0
H407 H 0.74035 0.30215 0.54755 0.0
H408 H 0.84456 0.24564 0.49722 0.0
H409 H 0.78369 0.27597 0.49779 0.0
H410 H 0.71081 0.21171 0.56241 0.0
H411 H 0.77146 0.18102 0.56007 0.0
C412 C 0.63028 0.27178 0.52319 0.0
C413 C 0.63486 0.30014 0.53207 0.0
C414 C 0.66513 0.25442 0.52245 0.0
C415 C 0.70536 0.26497 0.53107 0.0
C416 C 0.70989 0.2934 0.54012 0.0
C417 C 0.67496 0.31086 0.54037 0.0
C418 C 0.81545 0.23799 0.51138 0.0
C419 C 0.81261 0.21098 0.5285 0.0
C420 C 0.78065 0.25545 0.51205 0.0
C421 C 0.74237 0.24635 0.53031 0.0
C422 C 0.73963 0.21926 0.54746 0.0
C423 C 0.77436 0.20169 0.54632 0.0
loop_
_geom_bond_atom_site_label_1
_geom_bond_atom_site_label_2
_geom_bond_distance
_geom_bond_site_symmetry_2
_ccdc_geom_bond_type
In0 O1 2.294 1_455 S
In0 O2 2.326 . S
In0 O6 2.266 1_454 S
In0 O7 2.326 1_554 S
In0 O8 2.266 . S
In0 O9 2.326 1_455 S
In0 O11 2.294 . S
In0 O12 2.326 . S
O1 In0 2.294 1_655 S
O1 C10 1.240 1_655 S
O2 In0 2.326 . S
O2 C10 1.252 . S
C3 O6 1.252 1_455 S
C3 O7 1.260 . S
C4 O11 1.240 . S
C4 O12 1.252 . S
C5 O8 1.252 . S
C5 O9 1.260 1_455 S
O6 In0 2.266 1_656 S
O6 C3 1.252 1_655 S
O7 In0 2.326 1_556 S
O7 C3 1.260 . S
O8 In0 2.266 . S
O8 C5 1.252 . S
O9 In0 2.326 1_655 S
O9 C5 1.260 1_655 S
C10 O1 1.240 1_455 S
C10 O2 1.252 . S
O11 In0 2.294 . S
O11 C4 1.240 . S
O12 In0 2.326 . S
O12 C4 1.252 . S
In13 O14 2.294 . S
In13 O15 2.326 . S
In13 O19 2.266 . S
In13 O20 2.326 1_655 S
In13 O21 2.266 1_654 S
In13 O22 2.326 1_554 S
In13 O24 2.294 1_655 S
In13 O25 2.326 . S
O14 In13 2.294 . S
O14 C23 1.240 . S
O15 In13 2.326 . S
O15 C23 1.252 . S
C16 O19 1.252 . S
C16 O20 1.260 1_655 S
C17 O24 1.240 1_655 S
C17 O25 1.252 . S
C18 O21 1.252 1_655 S
C18 O22 1.260 . S
O19 In13 2.266 . S
O19 C16 1.252 . S
O20 In13 2.326 1_455 S
O20 C16 1.260 1_455 S
O21 In13 2.266 1_456 S
O21 C18 1.252 1_455 S
O22 In13 2.326 1_556 S
O22 C18 1.260 . S
C23 O14 1.240 . S
C23 O15 1.252 . S
O24 In13 2.294 1_455 S
O24 C17 1.240 1_455 S
O25 In13 2.326 . S
O25 C17 1.252 . S
In26 O27 2.294 1_455 S
In26 O28 2.326 . S
In26 O32 2.266 1_455 S
In26 O33 2.326 . S
In26 O34 2.266 . S
In26 O35 2.326 1_455 S
In26 O37 2.294 . S
In26 O38 2.326 . S
O27 In26 2.294 1_655 S
O27 C36 1.240 1_655 S
O28 In26 2.326 . S
O28 C36 1.252 . S
C29 O32 1.252 1_455 S
C29 O33 1.260 . S
C30 O37 1.240 . S
C30 O38 1.252 . S
C31 O34 1.252 . S
C31 O35 1.260 1_455 S
O32 In26 2.266 1_655 S
O32 C29 1.252 1_655 S
O33 In26 2.326 . S
O33 C29 1.260 . S
O34 In26 2.266 . S
O34 C31 1.252 . S
O35 In26 2.326 1_655 S
O35 C31 1.260 1_655 S
C36 O27 1.240 1_455 S
C36 O28 1.252 . S
O37 In26 2.294 . S
O37 C30 1.240 . S
O38 In26 2.326 . S
O38 C30 1.252 . S
In39 O40 2.294 1_655 S
In39 O41 2.326 . S
In39 O45 2.266 1_655 S
In39 O46 2.326 . S
In39 O47 2.266 . S
In39 O48 2.326 1_655 S
In39 O50 2.294 . S
In39 O51 2.326 . S
O40 In39 2.294 1_455 S
O40 C49 1.240 1_455 S
O41 In39 2.326 . S
O41 C49 1.252 . S
C42 O45 1.252 1_655 S
C42 O46 1.260 . S
C43 O50 1.240 . S
C43 O51 1.252 . S
C44 O47 1.252 . S
C44 O48 1.260 1_655 S
O45 In39 2.266 1_455 S
O45 C42 1.252 1_455 S
O46 In39 2.326 . S
O46 C42 1.260 . S
O47 In39 2.266 . S
O47 C44 1.252 . S
O48 In39 2.326 1_455 S
O48 C44 1.260 1_455 S
C49 O40 1.240 1_655 S
C49 O41 1.252 . S
O50 In39 2.294 . S
O50 C43 1.240 . S
O51 In39 2.326 . S
O51 C43 1.252 . S
In52 O53 2.294 . S
In52 O54 2.326 . S
In52 O58 2.266 . S
In52 O59 2.326 . S
In52 O60 2.266 1_554 S
In52 O61 2.326 1_554 S
In52 O63 2.294 . S
In52 O64 2.326 . S
O53 In52 2.294 . S
O53 C62 1.240 . S
O54 In52 2.326 . S
O54 C62 1.252 . S
C55 O58 1.252 . S
C55 O59 1.260 . S
C56 O63 1.240 . S
C56 O64 1.252 . S
C57 O60 1.252 . S
C57 O61 1.260 . S
O58 In52 2.266 . S
O58 C55 1.252 . S
O59 In52 2.326 . S
O59 C55 1.260 . S
O60 In52 2.266 1_556 S
O60 C57 1.252 . S
O61 In52 2.326 1_556 S
O61 C57 1.260 . S
C62 O53 1.240 . S
C62 O54 1.252 . S
O63 In52 2.294 . S
O63 C56 1.240 . S
O64 In52 2.326 . S
O64 C56 1.252 . S
In65 O66 2.294 . S
In65 O67 2.326 . S
In65 O71 2.266 1_554 S
In65 O72 2.326 1_554 S
In65 O73 2.266 . S
In65 O74 2.326 . S
In65 O76 2.294 . S
In65 O77 2.326 . S
O66 In65 2.294 . S
O66 C75 1.240 . S
O67 In65 2.326 . S
O67 C75 1.252 . S
C68 O71 1.252 . S
C68 O72 1.260 . S
C69 O76 1.240 . S
C69 O77 1.252 . S
C70 O73 1.252 . S
C70 O74 1.260 . S
O71 In65 2.266 1_556 S
O71 C68 1.252 . S
O72 In65 2.326 1_556 S
O72 C68 1.260 . S
O73 In65 2.266 . S
O73 C70 1.252 . S
O74 In65 2.326 . S
O74 C70 1.260 . S
C75 O66 1.240 . S
C75 O67 1.252 . S
O76 In65 2.294 . S
O76 C69 1.240 . S
O77 In65 2.326 . S
O77 C69 1.252 . S
In78 O79 2.294 . S
In78 O80 2.326 . S
In78 O84 2.266 . S
In78 O85 2.326 . S
In78 O86 2.266 . S
In78 O87 2.326 . S
In78 O89 2.294 . S
In78 O90 2.326 . S
O79 In78 2.294 . S
O79 C88 1.240 . S
O80 In78 2.326 . S
O80 C88 1.252 . S
C81 O84 1.252 . S
C81 O85 1.260 . S
C82 O89 1.240 . S
C82 O90 1.252 . S
C83 O86 1.252 . S
C83 O87 1.260 . S
O84 In78 2.266 . S
O84 C81 1.252 . S
O85 In78 2.326 . S
O85 C81 1.260 . S
O86 In78 2.266 . S
O86 C83 1.252 . S
O87 In78 2.326 . S
O87 C83 1.260 . S
C88 O79 1.240 . S
C88 O80 1.252 . S
O89 In78 2.294 . S
O89 C82 1.240 . S
O90 In78 2.326 . S
O90 C82 1.252 . S
In91 O92 2.294 . S
In91 O93 2.326 . S
In91 O97 2.266 . S
In91 O98 2.326 . S
In91 O99 2.266 . S
In91 O100 2.326 . S
In91 O102 2.294 . S
In91 O103 2.326 . S
O92 In91 2.294 . S
O92 C101 1.240 . S
O93 In91 2.326 . S
O93 C101 1.252 . S
C94 O97 1.252 . S
C94 O98 1.260 . S
C95 O102 1.240 . S
C95 O103 1.252 . S
C96 O99 1.252 . S
C96 O100 1.260 . S
O97 In91 2.266 . S
O97 C94 1.252 . S
O98 In91 2.326 . S
O98 C94 1.260 . S
O99 In91 2.266 . S
O99 C96 1.252 . S
O100 In91 2.326 . S
O100 C96 1.260 . S
C101 O92 1.240 . S
C101 O93 1.252 . S
O102 In91 2.294 . S
O102 C95 1.240 . S
O103 In91 2.326 . S
O103 C95 1.252 . S
H104 C112 0.955 . S
H105 C117 0.950 . S
H106 C114 0.950 . S
H107 C116 0.950 . S
H108 C118 0.955 . S
H109 C120 0.950 . S
H110 C122 0.950 . S
H111 C123 0.950 . S
C112 H104 0.955 . S
C112 C113 1.377 1_455 S
C112 C114 1.395 . S
C113 C112 1.377 1_655 S
C113 C117 1.393 1_554 S
C114 H106 0.950 . S
C114 C112 1.395 . S
C114 C115 1.400 1_455 S
C115 C114 1.400 1_655 S
C115 C116 1.398 1_554 S
C115 C121 1.491 1_665 S
C116 H107 0.950 . S
C116 C115 1.398 1_556 S
C116 C117 1.391 . S
C117 H105 0.950 . S
C117 C113 1.393 1_556 S
C117 C116 1.391 . S
C118 H108 0.955 . S
C118 C119 1.377 1_656 S
C118 C120 1.395 . S
C119 C118 1.377 1_454 S
C119 C123 1.393 . S
C120 H109 0.950 . S
C120 C118 1.395 . S
C120 C121 1.400 1_656 S
C121 C115 1.491 1_445 S
C121 C120 1.400 1_454 S
C121 C122 1.398 . S
C122 H110 0.950 . S
C122 C121 1.398 . S
C122 C123 1.391 . S
C123 H111 0.950 . S
C123 C119 1.393 . S
C123 C122 1.391 . S
H124 C132 0.950 . S
H125 C137 0.950 . S
H126 C134 0.950 . S
H127 C136 0.950 . S
H128 C138 0.950 . S
H129 C140 0.950 . S
H130 C142 0.950 . S
H131 C143 0.950 . S
C132 H124 0.950 . S
C132 C133 1.386 . S
C132 C134 1.391 . S
C133 C132 1.386 . S
C133 C137 1.393 1_455 S
C134 H126 0.950 . S
C134 C132 1.391 . S
C134 C135 1.400 . S
C135 C134 1.400 . S
C135 C136 1.398 1_455 S
C135 C141 1.491 1_465 S
C136 H127 0.950 . S
C136 C135 1.398 1_655 S
C136 C137 1.391 . S
C137 H125 0.950 . S
C137 C133 1.393 1_655 S
C137 C136 1.391 . S
C138 H128 0.950 . S
C138 C139 1.386 . S
C138 C140 1.391 . S
C139 C138 1.386 . S
C139 C143 1.393 1_655 S
C140 H129 0.950 . S
C140 C138 1.391 . S
C140 C141 1.400 . S
C141 C135 1.491 1_645 S
C141 C140 1.400 . S
C141 C142 1.398 1_655 S
C142 H130 0.950 . S
C142 C141 1.398 1_455 S
C142 C143 1.391 . S
C143 H131 0.950 . S
C143 C139 1.393 1_455 S
C143 C142 1.391 . S
H144 C152 0.950 . S
H145 C157 0.950 . S
H146 C154 0.950 . S
H147 C156 0.950 . S
H148 C158 0.950 . S
H149 C160 0.950 . S
H150 C162 0.950 . S
H151 C163 0.950 . S
C152 H144 0.950 . S
C152 C153 1.386 1_556 S
C152 C154 1.391 . S
C153 C152 1.386 1_554 S
C153 C157 1.393 . S
C154 H146 0.950 . S
C154 C152 1.391 . S
C154 C155 1.400 1_556 S
C155 C154 1.400 1_554 S
C155 C156 1.398 . S
C155 C161 1.491 . S
C156 H147 0.950 . S
C156 C155 1.398 . S
C156 C157 1.391 . S
C157 H145 0.950 . S
C157 C153 1.393 . S
C157 C156 1.391 . S
C158 H148 0.950 . S
C158 C159 1.386 . S
C158 C160 1.391 . S
C159 C158 1.386 . S
C159 C163 1.393 1_554 S
C160 H149 0.950 . S
C160 C158 1.391 . S
C160 C161 1.400 . S
C161 C155 1.491 . S
C161 C160 1.400 . S
C161 C162 1.398 1_554 S
C162 H150 0.950 . S
C162 C161 1.398 1_556 S
C162 C163 1.391 . S
C163 H151 0.950 . S
C163 C159 1.393 1_556 S
C163 C162 1.391 . S
H164 C172 0.950 . S
H165 C177 0.950 . S
H166 C174 0.950 . S
H167 C176 0.950 . S
H168 C178 0.950 . S
H169 C180 0.950 . S
H170 C182 0.950 . S
H171 C183 0.950 . S
C172 H164 0.950 . S
C172 C173 1.386 . S
C172 C174 1.391 . S
C173 C172 1.386 . S
C173 C177 1.393 . S
C174 H166 0.950 . S
C174 C172 1.391 . S
C174 C175 1.400 . S
C175 C174 1.400 . S
C175 C176 1.398 . S
C175 C181 1.491 . S
C176 H167 0.950 . S
C176 C175 1.398 . S
C176 C177 1.391 . S
C177 H165 0.950 . S
C177 C173 1.393 . S
C177 C176 1.391 . S
C178 H168 0.950 . S
C178 C179 1.386 . S
C178 C180 1.391 . S
C179 C178 1.386 . S
C179 C183 1.393 . S
C180 H169 0.950 . S
C180 C178 1.391 . S
C180 C181 1.400 . S
C181 C175 1.491 . S
C181 C180 1.400 . S
C181 C182 1.398 . S
C182 H170 0.950 . S
C182 C181 1.398 . S
C182 C183 1.391 . S
C183 H171 0.950 . S
C183 C179 1.393 . S
C183 C182 1.391 . S
H184 C192 0.950 . S
H185 C197 0.950 . S
H186 C194 0.950 . S
H187 C196 0.950 . S
H188 C198 0.950 . S
H189 C200 0.950 . S
H190 C202 0.950 . S
H191 C203 0.950 . S
C192 H184 0.950 . S
C192 C193 1.386 1_655 S
C192 C194 1.391 . S
C193 C192 1.386 1_455 S
C193 C197 1.393 . S
C194 H186 0.950 . S
C194 C192 1.391 . S
C194 C195 1.400 1_655 S
C195 C194 1.400 1_455 S
C195 C196 1.398 . S
C195 C201 1.491 1_455 S
C196 H187 0.950 . S
C196 C195 1.398 . S
C196 C197 1.391 . S
C197 H185 0.950 . S
C197 C193 1.393 . S
C197 C196 1.391 . S
C198 H188 0.950 . S
C198 C199 1.386 1_455 S
C198 C200 1.391 . S
C199 C198 1.386 1_655 S
C199 C203 1.393 . S
C200 H189 0.950 . S
C200 C198 1.391 . S
C200 C201 1.400 1_455 S
C201 C195 1.491 1_655 S
C201 C200 1.400 1_655 S
C201 C202 1.398 . S
C202 H190 0.950 . S
C202 C201 1.398 . S
C202 C203 1.391 . S
C203 H191 0.950 . S
C203 C199 1.393 . S
C203 C202 1.391 . S
H204 C212 0.950 . S
H205 C217 0.950 . S
H206 C214 0.950 . S
H207 C216 0.950 . S
H208 C218 0.950 . S
H209 C220 0.950 . S
H210 C222 0.950 . S
H211 C223 0.950 . S
C212 H204 0.950 . S
C212 C213 1.386 . S
C212 C214 1.391 . S
C213 C212 1.386 . S
C213 C217 1.393 1_455 S
C214 H206 0.950 . S
C214 C212 1.391 . S
C214 C215 1.400 . S
C215 C214 1.400 . S
C215 C216 1.398 1_455 S
C215 C221 1.491 1_455 S
C216 H207 0.950 . S
C216 C215 1.398 1_655 S
C216 C217 1.391 . S
C217 H205 0.950 . S
C217 C213 1.393 1_655 S
C217 C216 1.391 . S
C218 H208 0.950 . S
C218 C219 1.386 . S
C218 C220 1.391 . S
C219 C218 1.386 . S
C219 C223 1.393 1_655 S
C220 H209 0.950 . S
C220 C218 1.391 . S
C220 C221 1.400 . S
C221 C215 1.491 1_655 S
C221 C220 1.400 . S
C221 C222 1.398 1_655 S
C222 H210 0.950 . S
C222 C221 1.398 1_455 S
C222 C223 1.391 . S
C223 H211 0.950 . S
C223 C219 1.393 1_455 S
C223 C222 1.391 . S
H224 C232 0.950 . S
H225 C237 0.950 . S
H226 C234 0.950 . S
H227 C236 0.950 . S
H228 C238 0.950 . S
H229 C240 0.950 . S
H230 C242 0.950 . S
H231 C243 0.950 . S
C232 H224 0.950 . S
C232 C233 1.392 . S
C232 C234 1.391 . S
C233 C232 1.392 . S
C233 C237 1.386 1_455 S
C234 H226 0.950 . S
C234 C232 1.391 . S
C234 C235 1.400 1_455 S
C235 C234 1.400 1_655 S
C235 C236 1.398 . S
C235 C241 1.491 1_655 S
C236 H227 0.950 . S
C236 C235 1.398 . S
C236 C237 1.391 . S
C237 H225 0.950 . S
C237 C233 1.386 1_655 S
C237 C236 1.391 . S
C238 H228 0.950 . S
C238 C239 1.392 . S
C238 C240 1.391 . S
C239 C238 1.392 . S
C239 C243 1.386 1_655 S
C240 H229 0.950 . S
C240 C238 1.391 . S
C240 C241 1.400 1_655 S
C241 C235 1.491 1_455 S
C241 C240 1.400 1_455 S
C241 C242 1.398 . S
C242 H230 0.950 . S
C242 C241 1.398 . S
C242 C243 1.391 . S
C243 H231 0.950 . S
C243 C239 1.386 1_455 S
C243 C242 1.391 . S
H244 C252 0.950 . S
H245 C257 0.950 . S
H246 C254 0.950 . S
H247 C256 0.950 . S
H248 C258 0.950 . S
H249 C260 0.950 . S
H250 C262 0.950 . S
H251 C263 0.950 . S
C252 H244 0.950 . S
C252 C253 1.386 . S
C252 C254 1.391 . S
C253 C252 1.386 . S
C253 C257 1.393 1_455 S
C254 H246 0.950 . S
C254 C252 1.391 . S
C254 C255 1.404 . S
C255 C254 1.404 . S
C255 C256 1.395 1_455 S
C255 C261 1.491 1_455 S
C256 H247 0.950 . S
C256 C255 1.395 1_655 S
C256 C257 1.391 . S
C257 H245 0.950 . S
C257 C253 1.393 1_655 S
C257 C256 1.391 . S
C258 H248 0.950 . S
C258 C259 1.386 . S
C258 C260 1.391 . S
C259 C258 1.386 . S
C259 C263 1.393 1_655 S
C260 H249 0.950 . S
C260 C258 1.391 . S
C260 C261 1.404 . S
C261 C255 1.491 1_655 S
C261 C260 1.404 . S
C261 C262 1.395 1_655 S
C262 H250 0.950 . S
C262 C261 1.395 1_455 S
C262 C263 1.391 . S
C263 H251 0.950 . S
C263 C259 1.393 1_455 S
C263 C262 1.391 . S
H264 C272 0.950 . S
H265 C277 0.950 . S
H266 C274 0.950 . S
H267 C276 0.950 . S
H268 C278 0.950 . S
H269 C280 0.950 . S
H270 C282 0.950 . S
H271 C283 0.950 . S
C272 H264 0.950 . S
C272 C273 1.386 . S
C272 C274 1.391 . S
C273 C272 1.386 . S
C273 C277 1.393 . S
C274 H266 0.950 . S
C274 C272 1.391 . S
C274 C275 1.400 . S
C275 C274 1.400 . S
C275 C276 1.398 . S
C275 C281 1.491 . S
C276 H267 0.950 . S
C276 C275 1.398 . S
C276 C277 1.391 . S
C277 H265 0.950 . S
C277 C273 1.393 . S
C277 C276 1.391 . S
C278 H268 0.950 . S
C278 C279 1.386 . S
C278 C280 1.391 . S
C279 C278 1.386 . S
C279 C283 1.393 . S
C280 H269 0.950 . S
C280 C278 1.391 . S
C280 C281 1.400 . S
C281 C275 1.491 . S
C281 C280 1.400 . S
C281 C282 1.398 . S
C282 H270 0.950 . S
C282 C281 1.398 . S
C282 C283 1.391 . S
C283 H271 0.950 . S
C283 C279 1.393 . S
C283 C282 1.391 . S
H284 C292 0.950 . S
H285 C297 0.950 . S
H286 C294 0.950 . S
H287 C296 0.950 . S
H288 C298 0.950 . S
H289 C300 0.950 . S
H290 C302 0.950 . S
H291 C303 0.950 . S
C292 H284 0.950 . S
C292 C293 1.386 . S
C292 C294 1.391 . S
C293 C292 1.386 . S
C293 C297 1.393 . S
C294 H286 0.950 . S
C294 C292 1.391 . S
C294 C295 1.400 . S
C295 C294 1.400 . S
C295 C296 1.398 . S
C295 C301 1.491 . S
C296 H287 0.950 . S
C296 C295 1.398 . S
C296 C297 1.391 . S
C297 H285 0.950 . S
C297 C293 1.393 . S
C297 C296 1.391 . S
C298 H288 0.950 . S
C298 C299 1.386 . S
C298 C300 1.391 . S
C299 C298 1.386 . S
C299 C303 1.393 . S
C300 H289 0.950 . S
C300 C298 1.391 . S
C300 C301 1.400 . S
C301 C295 1.491 . S
C301 C300 1.400 . S
C301 C302 1.398 . S
C302 H290 0.950 . S
C302 C301 1.398 . S
C302 C303 1.391 . S
C303 H291 0.950 . S
C303 C299 1.393 . S
C303 C302 1.391 . S
H304 C312 0.950 . S
H305 C317 0.950 . S
H306 C314 0.950 . S
H307 C316 0.950 . S
H308 C318 0.950 . S
H309 C320 0.950 . S
H310 C322 0.950 . S
H311 C323 0.950 . S
C312 H304 0.950 . S
C312 C313 1.386 . S
C312 C314 1.391 . S
C313 C312 1.386 . S
C313 C317 1.393 . S
C314 H306 0.950 . S
C314 C312 1.391 . S
C314 C315 1.400 . S
C315 C314 1.400 . S
C315 C316 1.398 . S
C315 C321 1.491 . S
C316 H307 0.950 . S
C316 C315 1.398 . S
C316 C317 1.391 . S
C317 H305 0.950 . S
C317 C313 1.393 . S
C317 C316 1.391 . S
C318 H308 0.950 . S
C318 C319 1.386 . S
C318 C320 1.391 . S
C319 C318 1.386 . S
C319 C323 1.393 . S
C320 H309 0.950 . S
C320 C318 1.391 . S
C320 C321 1.400 . S
C321 C315 1.491 . S
C321 C320 1.400 . S
C321 C322 1.398 . S
C322 H310 0.950 . S
C322 C321 1.398 . S
C322 C323 1.391 . S
C323 H311 0.950 . S
C323 C319 1.393 . S
C323 C322 1.391 . S
H324 C332 0.950 . S
H325 C337 0.950 . S
H326 C334 0.950 . S
H327 C336 0.950 . S
H328 C338 0.950 . S
H329 C340 0.950 . S
H330 C342 0.950 . S
H331 C343 0.950 . S
C332 H324 0.950 . S
C332 C333 1.386 . S
C332 C334 1.391 . S
C333 C332 1.386 . S
C333 C337 1.393 . S
C334 H326 0.950 . S
C334 C332 1.391 . S
C334 C335 1.400 . S
C335 C334 1.400 . S
C335 C336 1.398 . S
C335 C341 1.491 . S
C336 H327 0.950 . S
C336 C335 1.398 . S
C336 C337 1.391 . S
C337 H325 0.950 . S
C337 C333 1.393 . S
C337 C336 1.391 . S
C338 H328 0.950 . S
C338 C339 1.386 . S
C338 C340 1.391 . S
C339 C338 1.386 . S
C339 C343 1.393 . S
C340 H329 0.950 . S
C340 C338 1.391 . S
C340 C341 1.400 . S
C341 C335 1.491 . S
C341 C340 1.400 . S
C341 C342 1.398 . S
C342 H330 0.950 . S
C342 C341 1.398 . S
C342 C343 1.391 . S
C343 H331 0.950 . S
C343 C339 1.393 . S
C343 C342 1.391 . S
H344 C352 0.950 . S
H345 C357 0.950 . S
H346 C354 0.950 . S
H347 C356 0.950 . S
H348 C358 0.950 1_556 S
H349 C360 0.945 1_556 S
H350 C362 0.950 . S
H351 C363 0.950 . S
C352 H344 0.950 . S
C352 C353 1.386 . S
C352 C354 1.391 . S
C353 C352 1.386 . S
C353 C357 1.393 . S
C354 H346 0.950 . S
C354 C352 1.391 . S
C354 C355 1.400 . S
C355 C354 1.400 . S
C355 C356 1.398 . S
C355 C361 1.491 . S
C356 H347 0.950 . S
C356 C355 1.398 . S
C356 C357 1.391 . S
C357 H345 0.950 . S
C357 C353 1.393 . S
C357 C356 1.391 . S
C358 H348 0.950 1_554 S
C358 C359 1.386 . S
C358 C360 1.391 . S
C359 C358 1.386 . S
C359 C363 1.393 . S
C360 H349 0.945 1_554 S
C360 C358 1.391 . S
C360 C361 1.400 . S
C361 C355 1.491 . S
C361 C360 1.400 . S
C361 C362 1.398 . S
C362 H350 0.950 . S
C362 C361 1.398 . S
C362 C363 1.391 . S
C363 H351 0.950 . S
C363 C359 1.393 . S
C363 C362 1.391 . S
H364 C372 0.950 . S
H365 C377 0.950 1_556 S
H366 C374 0.950 . S
H367 C376 0.950 1_556 S
H368 C378 0.950 1_556 S
H369 C380 0.950 1_556 S
H370 C382 0.950 . S
H371 C383 0.950 . S
C372 H364 0.950 . S
C372 C373 1.386 . S
C372 C374 1.391 . S
C373 C372 1.386 . S
C373 C377 1.393 . S
C374 H366 0.950 . S
C374 C372 1.391 . S
C374 C375 1.400 . S
C375 C374 1.400 . S
C375 C376 1.398 . S
C375 C381 1.491 . S
C376 H367 0.950 1_554 S
C376 C375 1.398 . S
C376 C377 1.391 . S
C377 H365 0.950 1_554 S
C377 C373 1.393 . S
C377 C376 1.391 . S
C378 H368 0.950 1_554 S
C378 C379 1.386 . S
C378 C380 1.391 . S
C379 C378 1.386 . S
C379 C383 1.393 . S
C380 H369 0.950 1_554 S
C380 C378 1.391 . S
C380 C381 1.400 . S
C381 C375 1.491 . S
C381 C380 1.400 . S
C381 C382 1.398 . S
C382 H370 0.950 . S
C382 C381 1.398 . S
C382 C383 1.391 . S
C383 H371 0.950 . S
C383 C379 1.393 . S
C383 C382 1.391 . S
H384 C392 0.950 . S
H385 C397 0.950 . S
H386 C394 0.950 . S
H387 C396 0.950 . S
H388 C398 0.950 . S
H389 C400 0.950 . S
H390 C402 0.950 . S
H391 C403 0.950 . S
C392 H384 0.950 . S
C392 C393 1.386 . S
C392 C394 1.391 . S
C393 C392 1.386 . S
C393 C397 1.393 . S
C394 H386 0.950 . S
C394 C392 1.391 . S
C394 C395 1.400 . S
C395 C394 1.400 . S
C395 C396 1.398 . S
C395 C401 1.491 . S
C396 H387 0.950 . S
C396 C395 1.398 . S
C396 C397 1.391 . S
C397 H385 0.950 . S
C397 C393 1.393 . S
C397 C396 1.391 . S
C398 H388 0.950 . S
C398 C399 1.386 . S
C398 C400 1.391 . S
C399 C398 1.386 . S
C399 C403 1.393 . S
C400 H389 0.950 . S
C400 C398 1.391 . S
C400 C401 1.400 . S
C401 C395 1.491 . S
C401 C400 1.400 . S
C401 C402 1.398 . S
C402 H390 0.950 . S
C402 C401 1.398 . S
C402 C403 1.391 . S
C403 H391 0.950 . S
C403 C399 1.393 . S
C403 C402 1.391 . S
H404 C412 0.950 . S
H405 C417 0.950 . S
H406 C414 0.950 . S
H407 C416 0.950 . S
H408 C418 0.950 . S
H409 C420 0.950 . S
H410 C422 0.950 . S
H411 C423 0.950 . S
C412 H404 0.950 . S
C412 C413 1.386 . S
C412 C414 1.391 . S
C413 C412 1.386 . S
C413 C417 1.393 . S
C414 H406 0.950 . S
C414 C412 1.391 . S
C414 C415 1.400 . S
C415 C414 1.400 . S
C415 C416 1.398 . S
C415 C421 1.491 . S
C416 H407 0.950 . S
C416 C415 1.398 . S
C416 C417 1.391 . S
C417 H405 0.950 . S
C417 C413 1.393 . S
C417 C416 1.391 . S
C418 H408 0.950 . S
C418 C419 1.386 . S
C418 C420 1.391 . S
C419 C418 1.386 . S
C419 C423 1.393 . S
C420 H409 0.950 . S
C420 C418 1.391 . S
C420 C421 1.400 . S
C421 C415 1.491 . S
C421 C420 1.400 . S
C421 C422 1.398 . S
C422 H410 0.950 . S
C422 C421 1.398 . S
C422 C423 1.391 . S
C423 H411 0.950 . S
C423 C419 1.393 . S
C423 C422 1.391 . S
C113 C16 1.517 . S
C119 C5 1.515 . S
C133 C31 1.514 . S
C139 C44 1.517 . S
C153 C55 1.520 . S
C159 C70 1.519 . S
C173 C81 1.520 . S
C179 C94 1.517 . S
C193 C10 1.353 . S
C199 C49 1.362 . S
C213 C36 1.353 . S
C219 C17 1.344 . S
C233 C29 1.329 . S
C239 C18 1.336 . S
C253 C3 1.322 . S
C259 C42 1.330 . S
C273 C56 1.360 . S
C279 C95 1.348 . S
C293 C82 1.362 . S
C299 C75 1.352 . S
C313 C68 1.315 . S
C319 C83 1.317 . S
C333 C57 1.329 . S
C339 C96 1.335 . S
C353 C69 1.521 . S
C359 C4 1.520 . S
C373 C62 1.521 . S
C379 C23 1.520 . S
C393 C30 1.521 . S
C399 C101 1.520 . S
C413 C88 1.522 . S
C419 C43 1.521 . S
