# Generated by pormake.
# Topology utk, (3)-cn, num edge types: 1
# Building blocks:
#     Node 0, Type 0, BuildingBlock: OLANEW_clean_sbu_2, # of connection points: 3
#     Node 1, Type 0, BuildingBlock: OLANEW_clean_sbu_2, # of connection points: 3
#     Node 2, Type 0, BuildingBlock: OLANEW_clean_sbu_2, # of connection points: 3
#     Node 3, Type 0, BuildingBlock: OLANEW_clean_sbu_2, # of connection points: 3
#     Node 4, Type 0, BuildingBlock: OLANEW_clean_sbu_2, # of connection points: 3
#     Node 5, Type 0, BuildingBlock: OLANEW_clean_sbu_2, # of connection points: 3
#     Node 6, Type 0, BuildingBlock: OLANEW_clean_sbu_2, # of connection points: 3
#     Node 7, Type 0, BuildingBlock: OLANEW_clean_sbu_2, # of connection points: 3
#     Edge 8, Type (0, 0), BuildingBlock: XUDNAN_clean_linker_2, # of connection points: 2
#     Edge 9, Type (0, 0), BuildingBlock: XUDNAN_clean_linker_2, # of connection points: 2
#     Edge 10, Type (0, 0), BuildingBlock: XUDNAN_clean_linker_2, # of connection points: 2
#     Edge 11, Type (0, 0), BuildingBlock: XUDNAN_clean_linker_2, # of connection points: 2
#     Edge 12, Type (0, 0), BuildingBlock: XUDNAN_clean_linker_2, # of connection points: 2
#     Edge 13, Type (0, 0), BuildingBlock: XUDNAN_clean_linker_2, # of connection points: 2
#     Edge 14, Type (0, 0), BuildingBlock: XUDNAN_clean_linker_2, # of connection points: 2
#     Edge 15, Type (0, 0), BuildingBlock: XUDNAN_clean_linker_2, # of connection points: 2
#     Edge 16, Type (0, 0), BuildingBlock: XUDNAN_clean_linker_2, # of connection points: 2
#     Edge 17, Type (0, 0), BuildingBlock: XUDNAN_clean_linker_2, # of connection points: 2
#     Edge 18, Type (0, 0), BuildingBlock: XUDNAN_clean_linker_2, # of connection points: 2
#     Edge 19, Type (0, 0), BuildingBlock: XUDNAN_clean_linker_2, # of connection points: 2
# Relax obj value: 0.000
# Max RMSD: 0.042
# Mean RMSD: 0.042
data_MOF--net-utk--node1-OLANEW_clean_sbu_2--edge1-XUDNAN_clean_linker_2
_symmetry_space_group_name_H-M    P1
_symmetry_Int_Tables_number       1
_symmetry_cell_setting            triclinic
loop_
_symmetry_equiv_pos_as_xyz
'x, y, z'
_cell_length_a     43.539846
_cell_length_b     43.55145
_cell_length_c     31.252077
_cell_angle_alpha  90.016129
_cell_angle_beta   90.010436
_cell_angle_gamma 89.975163
loop_
_atom_site_label
_atom_site_type_symbol
_atom_site_fract_x
_atom_site_fract_y
_atom_site_fract_z
_atom_type_partial_charge
O0 O 0.15262 0.37055 0.20087 0.0
Cd1 Cd 0.13758 0.31719 0.18878 0.0
O2 O 0.10432 0.3851 0.20506 0.0
Cd3 Cd 0.08494 0.34229 0.18065 0.0
O4 O 0.05639 0.31729 0.13495 0.0
C5 C 0.03134 0.30442 0.14562 0.0
O6 O 0.02319 0.30427 0.1861 0.0
C7 C 0.13278 0.39135 0.20812 0.0
C8 C 0.17062 0.27838 0.24278 0.0
O9 O 0.17873 0.2821 0.2037 0.0
O10 O 0.14676 0.29269 0.25614 0.0
O11 O 0.63058 0.14835 0.48825 0.0
Cd12 Cd 0.6841 0.13169 0.48369 0.0
O13 O 0.6148 0.10049 0.48376 0.0
Cd14 Cd 0.65896 0.08117 0.46452 0.0
O15 O 0.68468 0.05368 0.41844 0.0
C16 C 0.7011 0.06604 0.38958 0.0
O17 O 0.70472 0.09599 0.38977 0.0
C18 C 0.60889 0.12882 0.48925 0.0
C19 C 0.72193 0.16688 0.53631 0.0
O20 O 0.72045 0.17208 0.496 0.0
O21 O 0.70564 0.14504 0.55172 0.0
O22 O 0.86753 0.61902 0.72344 0.0
Cd23 Cd 0.87943 0.67383 0.72662 0.0
O24 O 0.88617 0.61417 0.65836 0.0
Cd25 Cd 0.90052 0.66169 0.64853 0.0
O26 O 0.93023 0.69069 0.6094 0.0
C27 C 0.95483 0.70252 0.6238 0.0
O28 O 0.96134 0.69957 0.66465 0.0
C29 C 0.87365 0.60233 0.69117 0.0
C30 C 0.8491 0.70226 0.79453 0.0
O31 O 0.83789 0.70297 0.75661 0.0
O32 O 0.87465 0.68824 0.80026 0.0
O33 O 0.36924 0.85672 0.95454 0.0
Cd34 Cd 0.31474 0.86784 0.94354 0.0
O35 O 0.37745 0.90348 0.97859 0.0
Cd36 Cd 0.33284 0.92087 0.95789 0.0
O37 O 0.30568 0.94534 0.9101 0.0
C38 C 0.30865 0.93611 0.87175 0.0
O39 O 0.32561 0.91171 0.86434 0.0
C40 C 0.38724 0.8765 0.97092 0.0
C41 C 0.27806 0.83233 0.99728 0.0
O42 O 0.28215 0.8247 0.95808 0.0
O43 O 0.29115 0.85676 0.01101 0.0
O44 O 0.17364 0.62719 0.28932 0.0
Cd45 Cd 0.16651 0.68202 0.30285 0.0
O46 O 0.12363 0.6204 0.28639 0.0
Cd47 Cd 0.11127 0.66545 0.31182 0.0
O48 O 0.08624 0.69242 0.35927 0.0
C49 C 0.09967 0.7047 0.39107 0.0
O50 O 0.12976 0.70321 0.39362 0.0
C51 C 0.15071 0.60981 0.2824 0.0
C52 C 0.18222 0.71517 0.22975 0.0
O53 O 0.20132 0.71212 0.26067 0.0
O54 O 0.15558 0.703 0.23368 0.0
O55 O 0.36928 0.17063 0.54292 0.0
Cd56 Cd 0.31399 0.16382 0.55267 0.0
O57 O 0.3755 0.12075 0.53598 0.0
Cd58 Cd 0.32975 0.10853 0.55892 0.0
O59 O 0.30273 0.08576 0.60847 0.0
C60 C 0.30682 0.05703 0.61264 0.0
O61 O 0.32471 0.04282 0.58514 0.0
C62 C 0.38656 0.14778 0.53495 0.0
C63 C 0.28287 0.18022 0.47811 0.0
O64 O 0.28533 0.19911 0.50938 0.0
O65 O 0.29479 0.15348 0.48228 0.0
O66 O 0.84066 0.38 0.80125 0.0
Cd67 Cd 0.83843 0.32743 0.82845 0.0
O68 O 0.88242 0.3679 0.76524 0.0
Cd69 Cd 0.89371 0.3294 0.80733 0.0
O70 O 0.91619 0.3089 0.86295 0.0
C71 C 0.90174 0.29535 0.89282 0.0
O72 O 0.87188 0.2917 0.88951 0.0
C73 C 0.86063 0.38656 0.773 0.0
C74 C 0.82138 0.28906 0.76083 0.0
O75 O 0.8014 0.29833 0.78803 0.0
O76 O 0.84936 0.29719 0.76624 0.0
O77 O 0.62966 0.85343 0.02255 0.0
Cd78 Cd 0.68399 0.86436 0.03522 0.0
O79 O 0.61697 0.90104 0.03811 0.0
Cd80 Cd 0.6623 0.91566 0.05996 0.0
O81 O 0.69173 0.94089 0.10427 0.0
C82 C 0.6903 0.93317 0.14342 0.0
O83 O 0.6733 0.90943 0.15404 0.0
C84 C 0.60933 0.87427 0.02581 0.0
C85 C 0.72266 0.82343 0.99274 0.0
O86 O 0.71536 0.81918 0.03203 0.0
O87 O 0.7116 0.84696 0.97353 0.0
H88 H 0.09574 0.44041 0.22607 0.0
H89 H 0.1916 0.4139 0.21561 0.0
H90 H 0.20708 0.46709 0.23323 0.0
H91 H 0.10327 0.51469 0.17898 0.0
H92 H 0.07572 0.53235 0.21432 0.0
H93 H 0.07247 0.49219 0.2014 0.0
H94 H 0.07341 0.47855 0.28215 0.0
H95 H 0.07658 0.51867 0.29533 0.0
H96 H 0.10478 0.49183 0.31494 0.0
H97 H 0.21174 0.52387 0.25173 0.0
H98 H 0.20513 0.57874 0.27023 0.0
H99 H 0.10613 0.56685 0.26796 0.0
C100 C 0.12003 0.44566 0.22752 0.0
C101 C 0.14246 0.42294 0.21943 0.0
C102 C 0.17398 0.43091 0.22171 0.0
C103 C 0.183 0.46106 0.23165 0.0
C104 C 0.16022 0.48291 0.23925 0.0
C105 C 0.12939 0.47549 0.23736 0.0
C106 C 0.10932 0.50301 0.24677 0.0
C107 C 0.08901 0.51103 0.20805 0.0
C108 C 0.08989 0.49769 0.2872 0.0
C109 C 0.13364 0.52718 0.25417 0.0
C110 C 0.16287 0.51525 0.24975 0.0
C111 C 0.18894 0.53343 0.25528 0.0
C112 C 0.18496 0.56457 0.26574 0.0
C113 C 0.15512 0.57716 0.27053 0.0
C114 C 0.12926 0.55806 0.2645 0.0
H115 H 0.55796 0.09229 0.49357 0.0
H116 H 0.58685 0.18758 0.50035 0.0
H117 H 0.53276 0.20338 0.51092 0.0
H118 H 0.48777 0.10519 0.4361 0.0
H119 H 0.46702 0.07588 0.46473 0.0
H120 H 0.50789 0.07238 0.45737 0.0
H121 H 0.5153 0.06737 0.5394 0.0
H122 H 0.47446 0.07074 0.54701 0.0
H123 H 0.50012 0.0967 0.5742 0.0
H124 H 0.47496 0.20837 0.52145 0.0
H125 H 0.41904 0.20199 0.53248 0.0
H126 H 0.42928 0.10332 0.51832 0.0
C127 C 0.55304 0.11653 0.49723 0.0
C128 C 0.5767 0.1387 0.49611 0.0
C129 C 0.56912 0.17016 0.50111 0.0
C130 C 0.53847 0.17935 0.50706 0.0
C131 C 0.51573 0.15682 0.50787 0.0
C132 C 0.52273 0.12605 0.50315 0.0
C133 C 0.4943 0.10623 0.50572 0.0
C134 C 0.48894 0.08891 0.46346 0.0
C135 C 0.49617 0.08396 0.54385 0.0
C136 C 0.47012 0.13059 0.51281 0.0
C137 C 0.48281 0.15966 0.51386 0.0
C138 C 0.4648 0.18571 0.52059 0.0
C139 C 0.43306 0.18185 0.52677 0.0
C140 C 0.41971 0.15217 0.52623 0.0
C141 C 0.43864 0.12636 0.51882 0.0
H142 H 0.84734 0.56826 0.75586 0.0
H143 H 0.88871 0.56019 0.62986 0.0
H144 H 0.88528 0.50391 0.63465 0.0
H145 H 0.88561 0.5069 0.8028 0.0
H146 H 0.85369 0.49356 0.83445 0.0
H147 H 0.85608 0.53336 0.81949 0.0
H148 H 0.80216 0.53017 0.78469 0.0
H149 H 0.79953 0.49031 0.79974 0.0
H150 H 0.79468 0.50137 0.74458 0.0
H151 H 0.88387 0.44905 0.65651 0.0
H152 H 0.88146 0.39869 0.69266 0.0
H153 H 0.83864 0.44148 0.80291 0.0
C154 C 0.8551 0.55469 0.72891 0.0
C155 C 0.86831 0.56873 0.69249 0.0
C156 C 0.87844 0.55007 0.65809 0.0
C157 C 0.87656 0.51802 0.66044 0.0
C158 C 0.86411 0.50491 0.69714 0.0
C159 C 0.85316 0.52259 0.73056 0.0
C160 C 0.84233 0.50261 0.76729 0.0
C161 C 0.86052 0.50952 0.80842 0.0
C162 C 0.80761 0.50634 0.77448 0.0
C163 C 0.84991 0.47103 0.74984 0.0
C164 C 0.86235 0.47292 0.70924 0.0
C165 C 0.87357 0.44716 0.68791 0.0
C166 C 0.87223 0.41871 0.70873 0.0
C167 C 0.85953 0.41622 0.75026 0.0
C168 C 0.8478 0.44266 0.77074 0.0
H169 H 0.56067 0.91377 0.03153 0.0
H170 H 0.58404 0.81987 0.99794 0.0
H171 H 0.52933 0.80941 0.98216 0.0
H172 H 0.4887 0.897 0.08283 0.0
H173 H 0.47023 0.93118 0.06294 0.0
H174 H 0.51108 0.93094 0.07197 0.0
H175 H 0.52032 0.94758 0.99337 0.0
H176 H 0.47952 0.94798 0.98414 0.0
H177 H 0.50415 0.92506 0.95052 0.0
H178 H 0.47168 0.8098 0.96897 0.0
H179 H 0.41652 0.8212 0.95853 0.0
H180 H 0.43198 0.91474 0.00156 0.0
C181 C 0.5544 0.89095 0.0209 0.0
C182 C 0.5767 0.86764 0.01597 0.0
C183 C 0.56738 0.83812 0.00196 0.0
C184 C 0.53636 0.83195 0.99298 0.0
C185 C 0.515 0.85551 0.99828 0.0
C186 C 0.52368 0.88441 0.01191 0.0
C187 C 0.49649 0.90594 0.0146 0.0
C188 C 0.49133 0.9169 0.06084 0.0
C189 C 0.50036 0.93324 0.98381 0.0
C190 C 0.47108 0.88472 0.0001 0.0
C191 C 0.4821 0.8557 0.99091 0.0
C192 C 0.46281 0.83242 0.97621 0.0
C193 C 0.43151 0.83912 0.97042 0.0
C194 C 0.41986 0.86885 0.9793 0.0
C195 C 0.44003 0.89174 0.99465 0.0
H196 H 0.17429 0.28245 0.32985 0.0
H197 H 0.20806 0.23037 0.22126 0.0
H198 H 0.23884 0.19792 0.27014 0.0
H199 H 0.24566 0.28397 0.38578 0.0
H200 H 0.22846 0.2811 0.43809 0.0
H201 H 0.2075 0.29867 0.39489 0.0
H202 H 0.16258 0.26058 0.40682 0.0
H203 H 0.18342 0.24287 0.45008 0.0
H204 H 0.17003 0.21986 0.40591 0.0
H205 H 0.26554 0.17098 0.3312 0.0
H206 H 0.28967 0.15436 0.39898 0.0
H207 H 0.24112 0.22654 0.46676 0.0
C208 C 0.1879 0.26399 0.31643 0.0
C209 C 0.1886 0.25864 0.27188 0.0
C210 C 0.20718 0.23474 0.25536 0.0
C211 C 0.22463 0.21616 0.28286 0.0
C212 C 0.22352 0.22211 0.32666 0.0
C213 C 0.20589 0.24566 0.3433 0.0
C214 C 0.21013 0.24846 0.39123 0.0
C215 C 0.22375 0.27991 0.40318 0.0
C216 C 0.17973 0.24258 0.4149 0.0
C217 C 0.23292 0.22282 0.399 0.0
C218 C 0.24002 0.20761 0.36146 0.0
C219 C 0.26023 0.18279 0.36076 0.0
C220 C 0.27375 0.17348 0.39939 0.0
C221 C 0.26736 0.18927 0.438 0.0
C222 C 0.2466 0.21418 0.43767 0.0
H223 H 0.71346 0.17977 0.62111 0.0
H224 H 0.77479 0.19658 0.51431 0.0
H225 H 0.80824 0.22782 0.56123 0.0
H226 H 0.71828 0.25592 0.66393 0.0
H227 H 0.7162 0.24368 0.71894 0.0
H228 H 0.69827 0.22105 0.67769 0.0
H229 H 0.72944 0.17342 0.70195 0.0
H230 H 0.74753 0.19593 0.74323 0.0
H231 H 0.77074 0.1757 0.70467 0.0
H232 H 0.83543 0.2562 0.62016 0.0
H233 H 0.85177 0.28438 0.68488 0.0
H234 H 0.77049 0.25247 0.75175 0.0
C235 C 0.73408 0.18983 0.60776 0.0
C236 C 0.74181 0.18557 0.56427 0.0
C237 C 0.76858 0.19957 0.54761 0.0
C238 C 0.78774 0.21721 0.57402 0.0
C239 C 0.77948 0.22099 0.61679 0.0
C240 C 0.75307 0.20806 0.63342 0.0
C241 C 0.74845 0.21719 0.67976 0.0
C242 C 0.71853 0.23556 0.68539 0.0
C243 C 0.74909 0.18887 0.70913 0.0
C244 C 0.77642 0.23724 0.68663 0.0
C245 C 0.79426 0.23873 0.65011 0.0
C246 C 0.82157 0.25534 0.64888 0.0
C247 C 0.83071 0.27117 0.68582 0.0
C248 C 0.81231 0.27069 0.72318 0.0
C249 C 0.78488 0.2534 0.72352 0.0
H250 H 0.80402 0.74611 0.79074 0.0
H251 H 0.85797 0.69202 0.87994 0.0
H252 H 0.83077 0.71641 0.94047 0.0
H253 H 0.80437 0.81532 0.85338 0.0
H254 H 0.76579 0.82607 0.83873 0.0
H255 H 0.78878 0.80359 0.80249 0.0
H256 H 0.74634 0.7619 0.8002 0.0
H257 H 0.72324 0.78424 0.83648 0.0
H258 H 0.73295 0.74511 0.84951 0.0
H259 H 0.79682 0.74587 0.99116 0.0
H260 H 0.76105 0.78086 0.02855 0.0
H261 H 0.73127 0.81756 0.90627 0.0
C262 C 0.81001 0.7393 0.823 0.0
C263 C 0.83297 0.71705 0.83068 0.0
C264 C 0.84045 0.70904 0.87336 0.0
C265 C 0.82508 0.72269 0.90792 0.0
C266 C 0.80254 0.74454 0.89924 0.0
C267 C 0.79522 0.75302 0.85786 0.0
C268 C 0.77084 0.77783 0.85729 0.0
C269 C 0.7832 0.80745 0.83677 0.0
C270 C 0.74161 0.76658 0.83453 0.0
C271 C 0.76552 0.78191 0.90482 0.0
C272 C 0.78381 0.7623 0.92846 0.0
C273 C 0.7825 0.76145 0.973 0.0
C274 C 0.76207 0.78134 0.99393 0.0
C275 C 0.74353 0.80201 0.97033 0.0
C276 C 0.74534 0.80219 0.9252 0.0
H277 H 0.28242 0.82757 0.08428 0.0
H278 H 0.23119 0.79385 0.97489 0.0
H279 H 0.19942 0.76184 0.02301 0.0
H280 H 0.2854 0.7555 0.13878 0.0
H281 H 0.2821 0.77209 0.19143 0.0
H282 H 0.29932 0.79383 0.14872 0.0
H283 H 0.26031 0.83786 0.16149 0.0
H284 H 0.24293 0.81623 0.20423 0.0
H285 H 0.21974 0.82964 0.16026 0.0
H286 H 0.17284 0.73415 0.08333 0.0
H287 H 0.15654 0.70899 0.15049 0.0
H288 H 0.22773 0.75799 0.21963 0.0
C289 C 0.26431 0.81366 0.07055 0.0
C290 C 0.25899 0.81335 0.02598 0.0
C291 C 0.23555 0.79441 0.009 0.0
C292 C 0.21734 0.77627 0.03607 0.0
C293 C 0.22322 0.77704 0.0799 0.0
C294 C 0.24638 0.79496 0.09698 0.0
C295 C 0.24918 0.79027 0.14484 0.0
C296 C 0.28088 0.77713 0.15661 0.0
C297 C 0.24264 0.82029 0.16913 0.0
C298 C 0.22397 0.76692 0.15204 0.0
C299 C 0.20897 0.75993 0.1143 0.0
C300 C 0.1845 0.73933 0.11305 0.0
C301 C 0.17536 0.72524 0.15134 0.0
C302 C 0.19098 0.73145 0.19014 0.0
C303 C 0.21552 0.75264 0.19037 0.0
H304 H 0.03836 0.30854 0.0588 0.0
H305 H 0.97524 0.27675 0.1567 0.0
H306 H 0.93687 0.26483 0.10085 0.0
H307 H 0.98492 0.34712 0.99851 0.0
H308 H 0.00129 0.33774 0.94717 0.0
H309 H 0.0254 0.33906 0.99381 0.0
H310 H 0.04329 0.28322 0.9795 0.0
H311 H 0.01928 0.28175 0.93255 0.0
H312 H 0.01509 0.25318 0.97385 0.0
H313 H 0.90324 0.26238 0.03517 0.0
H314 H 0.87729 0.26986 0.96562 0.0
H315 H 0.96264 0.30354 0.91134 0.0
C316 C 0.01679 0.29833 0.06851 0.0
C317 C 0.00987 0.29346 0.11216 0.0
C318 C 0.98114 0.28055 0.12346 0.0
C319 C 0.95921 0.27363 0.09194 0.0
C320 C 0.96647 0.27955 0.04928 0.0
C321 C 0.99469 0.29141 0.03755 0.0
C322 C 0.99591 0.29828 0.99013 0.0
C323 C 0.00223 0.33258 0.98196 0.0
C324 C 0.01981 0.27788 0.96769 0.0
C325 C 0.9636 0.28953 0.97721 0.0
C326 C 0.94708 0.27832 0.01157 0.0
C327 C 0.9161 0.27067 0.0079 0.0
C328 C 0.90154 0.27504 0.96825 0.0
C329 C 0.91792 0.28722 0.93295 0.0
C330 C 0.9495 0.29392 0.93751 0.0
H331 H 0.69023 0.00512 0.37457 0.0
H332 H 0.73412 0.08548 0.31985 0.0
H333 H 0.74358 0.0567 0.25305 0.0
H334 H 0.73886 0.94581 0.31869 0.0
H335 H 0.70623 0.92081 0.31186 0.0
H336 H 0.70852 0.94564 0.35793 0.0
H337 H 0.65543 0.96878 0.33867 0.0
H338 H 0.65307 0.94428 0.29257 0.0
H339 H 0.64966 0.98529 0.28638 0.0
H340 H 0.74053 0.02221 0.18872 0.0
H341 H 0.72552 0.98496 0.13289 0.0
H342 H 0.68371 0.92728 0.22996 0.0
C343 C 0.70273 0.01642 0.34909 0.0
C344 C 0.71151 0.04754 0.35253 0.0
C345 C 0.72729 0.0616 0.31808 0.0
C346 C 0.73285 0.0454 0.28001 0.0
C347 C 0.72279 0.01508 0.27709 0.0
C348 C 0.70835 0.00062 0.31094 0.0
C349 C 0.69669 0.96918 0.29827 0.0
C350 C 0.71359 0.94386 0.32317 0.0
C351 C 0.66165 0.96678 0.30431 0.0
C352 C 0.70544 0.96878 0.25144 0.0
C353 C 0.72099 0.99519 0.23995 0.0
C354 C 0.72895 0.00115 0.19753 0.0
C355 C 0.72025 0.97989 0.16601 0.0
C356 C 0.70353 0.95313 0.17705 0.0
C357 C 0.69683 0.94727 0.2205 0.0
H358 H 0.95205 0.7028 0.53638 0.0
H359 H 0.01085 0.72803 0.64286 0.0
H360 H 0.05281 0.73968 0.59224 0.0
H361 H 0.00561 0.66258 0.48157 0.0
H362 H 0.9935 0.67379 0.42867 0.0
H363 H 0.96634 0.67377 0.47189 0.0
H364 H 0.95375 0.731 0.45735 0.0
H365 H 0.98083 0.73116 0.4137 0.0
H366 H 0.98437 0.75884 0.4563 0.0
H367 H 0.0906 0.74027 0.53148 0.0
H368 H 0.12077 0.72962 0.46623 0.0
H369 H 0.03715 0.70379 0.39977 0.0
C370 C 0.97339 0.71175 0.54905 0.0
C371 C 0.9781 0.71462 0.59361 0.0
C372 C 0.00662 0.7258 0.60885 0.0
C373 C 0.03058 0.73258 0.5803 0.0
C374 C 0.02555 0.72832 0.53663 0.0
C375 C 0.99751 0.71845 0.52106 0.0
C376 C 0.99895 0.71222 0.47346 0.0
C377 C 0.99063 0.67861 0.46334 0.0
C378 C 0.97825 0.73465 0.44875 0.0
C379 C 0.03254 0.71865 0.465 0.0
C380 C 0.04741 0.7285 0.5016 0.0
C381 C 0.07908 0.73319 0.50243 0.0
C382 C 0.09605 0.727 0.4652 0.0
C383 C 0.08134 0.71595 0.42781 0.0
C384 C 0.04906 0.7126 0.4276 0.0
H385 H 0.31851 0.92645 0.78652 0.0
H386 H 0.27404 0.98884 0.87534 0.0
H387 H 0.26169 0.02375 0.81543 0.0
H388 H 0.35531 0.98129 0.72825 0.0
H389 H 0.35141 0.96272 0.67699 0.0
H390 H 0.35154 0.94012 0.72506 0.0
H391 H 0.29899 0.91648 0.70428 0.0
H392 H 0.29875 0.93896 0.65585 0.0
H393 H 0.26698 0.94139 0.69267 0.0
H394 H 0.26099 0.05515 0.7478 0.0
H395 H 0.27236 0.08034 0.67878 0.0
H396 H 0.31746 0.99726 0.6347 0.0
C397 C 0.30537 0.947 0.79329 0.0
C398 C 0.29714 0.95484 0.83561 0.0
C399 C 0.28047 0.98227 0.84315 0.0
C400 C 0.27326 0.0022 0.80928 0.0
C401 C 0.28266 0.99424 0.76808 0.0
C402 C 0.29814 0.96713 0.75997 0.0
C403 C 0.30861 0.96534 0.71386 0.0
C404 C 0.34379 0.9622 0.71091 0.0
C405 C 0.29235 0.93898 0.69027 0.0
C406 C 0.29781 0.99625 0.69772 0.0
C407 C 0.28239 0.01239 0.72918 0.0
C408 C 0.27251 0.04249 0.72269 0.0
C409 C 0.27912 0.05664 0.68338 0.0
C410 C 0.29572 0.04076 0.65125 0.0
C411 C 0.30441 0.00993 0.65834 0.0
loop_
_geom_bond_atom_site_label_1
_geom_bond_atom_site_label_2
_geom_bond_distance
_geom_bond_site_symmetry_2
_ccdc_geom_bond_type
O0 Cd1 2.300 . S
O0 C7 1.275 . S
Cd1 O0 2.300 . S
Cd1 O9 2.381 . S
Cd1 O10 2.378 . S
O2 Cd3 2.385 . S
O2 C7 1.255 . S
Cd3 O2 2.385 . S
Cd3 O4 2.317 . S
O4 Cd3 2.317 . S
O4 C5 1.232 . S
C5 O4 1.232 . S
C5 O6 1.218 . S
O6 C5 1.218 . S
C7 O0 1.275 . S
C7 O2 1.255 . S
C8 O9 1.258 . S
C8 O10 1.256 . S
O9 Cd1 2.381 . S
O9 C8 1.258 . S
O10 Cd1 2.378 . S
O10 C8 1.256 . S
O11 Cd12 2.300 . S
O11 C18 1.275 . S
Cd12 O11 2.300 . S
Cd12 O20 2.381 . S
Cd12 O21 2.378 . S
O13 Cd14 2.385 . S
O13 C18 1.255 . S
Cd14 O13 2.385 . S
Cd14 O15 2.317 . S
O15 Cd14 2.317 . S
O15 C16 1.232 . S
C16 O15 1.232 . S
C16 O17 1.218 . S
O17 C16 1.218 . S
C18 O11 1.275 . S
C18 O13 1.255 . S
C19 O20 1.258 . S
C19 O21 1.256 . S
O20 Cd12 2.381 . S
O20 C19 1.258 . S
O21 Cd12 2.378 . S
O21 C19 1.256 . S
O22 Cd23 2.300 . S
O22 C29 1.275 . S
Cd23 O22 2.300 . S
Cd23 O31 2.381 . S
Cd23 O32 2.378 . S
O24 Cd25 2.385 . S
O24 C29 1.255 . S
Cd25 O24 2.385 . S
Cd25 O26 2.317 . S
O26 Cd25 2.317 . S
O26 C27 1.232 . S
C27 O26 1.232 . S
C27 O28 1.218 . S
O28 C27 1.218 . S
C29 O22 1.275 . S
C29 O24 1.255 . S
C30 O31 1.258 . S
C30 O32 1.256 . S
O31 Cd23 2.381 . S
O31 C30 1.258 . S
O32 Cd23 2.378 . S
O32 C30 1.256 . S
O33 Cd34 2.300 . S
O33 C40 1.275 1_554 S
Cd34 O33 2.300 . S
Cd34 O42 2.381 . S
Cd34 O43 2.378 . S
O35 Cd36 2.385 . S
O35 C40 1.255 . S
Cd36 O35 2.385 . S
Cd36 O37 2.317 . S
O37 Cd36 2.317 . S
O37 C38 1.232 . S
C38 O37 1.232 . S
C38 O39 1.218 . S
O39 C38 1.218 . S
C40 O33 1.275 1_556 S
C40 O35 1.255 . S
C41 O42 1.258 . S
C41 O43 1.256 . S
O42 Cd34 2.381 . S
O42 C41 1.258 . S
O43 Cd34 2.378 . S
O43 C41 1.256 . S
O44 Cd45 2.300 . S
O44 C51 1.275 . S
Cd45 O44 2.300 . S
Cd45 O53 2.381 . S
Cd45 O54 2.378 . S
O46 Cd47 2.385 . S
O46 C51 1.255 . S
Cd47 O46 2.385 . S
Cd47 O48 2.317 . S
O48 Cd47 2.317 . S
O48 C49 1.232 . S
C49 O48 1.232 . S
C49 O50 1.218 . S
O50 C49 1.218 . S
C51 O44 1.275 . S
C51 O46 1.255 . S
C52 O53 1.258 . S
C52 O54 1.256 . S
O53 Cd45 2.381 . S
O53 C52 1.258 . S
O54 Cd45 2.378 . S
O54 C52 1.256 . S
O55 Cd56 2.300 . S
O55 C62 1.275 . S
Cd56 O55 2.300 . S
Cd56 O64 2.381 . S
Cd56 O65 2.378 . S
O57 Cd58 2.385 . S
O57 C62 1.255 . S
Cd58 O57 2.385 . S
Cd58 O59 2.317 . S
O59 Cd58 2.317 . S
O59 C60 1.232 . S
C60 O59 1.232 . S
C60 O61 1.218 . S
O61 C60 1.218 . S
C62 O55 1.275 . S
C62 O57 1.255 . S
C63 O64 1.258 . S
C63 O65 1.256 . S
O64 Cd56 2.381 . S
O64 C63 1.258 . S
O65 Cd56 2.378 . S
O65 C63 1.256 . S
O66 Cd67 2.300 . S
O66 C73 1.275 . S
Cd67 O66 2.300 . S
Cd67 O75 2.381 . S
Cd67 O76 2.378 . S
O68 Cd69 2.385 . S
O68 C73 1.255 . S
Cd69 O68 2.385 . S
Cd69 O70 2.317 . S
O70 Cd69 2.317 . S
O70 C71 1.232 . S
C71 O70 1.232 . S
C71 O72 1.218 . S
O72 C71 1.218 . S
C73 O66 1.275 . S
C73 O68 1.255 . S
C74 O75 1.258 . S
C74 O76 1.256 . S
O75 Cd67 2.381 . S
O75 C74 1.258 . S
O76 Cd67 2.378 . S
O76 C74 1.256 . S
O77 Cd78 2.300 . S
O77 C84 1.275 1_556 S
Cd78 O77 2.300 . S
Cd78 O86 2.381 . S
Cd78 O87 2.378 . S
O79 Cd80 2.385 . S
O79 C84 1.255 . S
Cd80 O79 2.385 . S
Cd80 O81 2.317 . S
O81 Cd80 2.317 . S
O81 C82 1.232 . S
C82 O81 1.232 . S
C82 O83 1.218 . S
O83 C82 1.218 . S
C84 O77 1.275 1_554 S
C84 O79 1.255 . S
C85 O86 1.258 . S
C85 O87 1.256 . S
O86 Cd78 2.381 . S
O86 C85 1.258 . S
O87 Cd78 2.378 . S
O87 C85 1.256 . S
H88 C100 0.930 . S
H89 C102 0.930 . S
H90 C103 0.930 . S
H91 C107 0.959 . S
H92 C107 0.959 . S
H93 C107 0.961 . S
H94 C108 0.960 . S
H95 C108 0.961 . S
H96 C108 0.959 . S
H97 C111 0.929 . S
H98 C112 0.931 . S
H99 C114 0.930 . S
C100 H88 0.930 . S
C100 C101 1.399 . S
C100 C105 1.399 . S
C101 C100 1.399 . S
C101 C102 1.376 . S
C102 H89 0.930 . S
C102 C101 1.376 . S
C102 C103 1.388 . S
C103 H90 0.930 . S
C103 C102 1.388 . S
C103 C104 1.390 . S
C104 C103 1.390 . S
C104 C105 1.394 . S
C104 C110 1.465 . S
C105 C100 1.399 . S
C105 C104 1.394 . S
C105 C106 1.516 . S
C106 C105 1.516 . S
C106 C107 1.502 . S
C106 C108 1.561 . S
C106 C109 1.526 . S
C107 H91 0.959 . S
C107 H92 0.959 . S
C107 H93 0.961 . S
C107 C106 1.502 . S
C108 H94 0.960 . S
C108 H95 0.961 . S
C108 H96 0.959 . S
C108 C106 1.561 . S
C109 C106 1.526 . S
C109 C110 1.396 . S
C109 C114 1.390 . S
C110 C104 1.465 . S
C110 C109 1.396 . S
C110 C111 1.399 . S
C111 H97 0.929 . S
C111 C110 1.399 . S
C111 C112 1.385 . S
C112 H98 0.931 . S
C112 C111 1.385 . S
C112 C113 1.389 . S
C113 C112 1.389 . S
C113 C114 1.387 . S
C114 H99 0.930 . S
C114 C109 1.390 . S
C114 C113 1.387 . S
H115 C127 0.930 . S
H116 C129 0.930 . S
H117 C130 0.930 . S
H118 C134 0.959 . S
H119 C134 0.959 . S
H120 C134 0.961 . S
H121 C135 0.960 . S
H122 C135 0.961 . S
H123 C135 0.959 . S
H124 C138 0.929 . S
H125 C139 0.931 . S
H126 C141 0.930 . S
C127 H115 0.930 . S
C127 C128 1.399 . S
C127 C132 1.399 . S
C128 C127 1.399 . S
C128 C129 1.376 . S
C129 H116 0.930 . S
C129 C128 1.376 . S
C129 C130 1.388 . S
C130 H117 0.930 . S
C130 C129 1.388 . S
C130 C131 1.390 . S
C131 C130 1.390 . S
C131 C132 1.394 . S
C131 C137 1.465 . S
C132 C127 1.399 . S
C132 C131 1.394 . S
C132 C133 1.516 . S
C133 C132 1.516 . S
C133 C134 1.502 . S
C133 C135 1.561 . S
C133 C136 1.526 . S
C134 H118 0.959 . S
C134 H119 0.959 . S
C134 H120 0.961 . S
C134 C133 1.502 . S
C135 H121 0.960 . S
C135 H122 0.961 . S
C135 H123 0.959 . S
C135 C133 1.561 . S
C136 C133 1.526 . S
C136 C137 1.396 . S
C136 C141 1.390 . S
C137 C131 1.465 . S
C137 C136 1.396 . S
C137 C138 1.399 . S
C138 H124 0.929 . S
C138 C137 1.399 . S
C138 C139 1.385 . S
C139 H125 0.931 . S
C139 C138 1.385 . S
C139 C140 1.389 . S
C140 C139 1.389 . S
C140 C141 1.387 . S
C141 H126 0.930 . S
C141 C136 1.390 . S
C141 C140 1.387 . S
H142 C154 0.930 . S
H143 C156 0.930 . S
H144 C157 0.930 . S
H145 C161 0.959 . S
H146 C161 0.959 . S
H147 C161 0.961 . S
H148 C162 0.960 . S
H149 C162 0.961 . S
H150 C162 0.959 . S
H151 C165 0.929 . S
H152 C166 0.931 . S
H153 C168 0.930 . S
C154 H142 0.930 . S
C154 C155 1.399 . S
C154 C159 1.399 . S
C155 C154 1.399 . S
C155 C156 1.376 . S
C156 H143 0.930 . S
C156 C155 1.376 . S
C156 C157 1.388 . S
C157 H144 0.930 . S
C157 C156 1.388 . S
C157 C158 1.390 . S
C158 C157 1.390 . S
C158 C159 1.394 . S
C158 C164 1.465 . S
C159 C154 1.399 . S
C159 C158 1.394 . S
C159 C160 1.516 . S
C160 C159 1.516 . S
C160 C161 1.502 . S
C160 C162 1.561 . S
C160 C163 1.526 . S
C161 H145 0.959 . S
C161 H146 0.959 . S
C161 H147 0.961 . S
C161 C160 1.502 . S
C162 H148 0.960 . S
C162 H149 0.961 . S
C162 H150 0.959 . S
C162 C160 1.561 . S
C163 C160 1.526 . S
C163 C164 1.396 . S
C163 C168 1.390 . S
C164 C158 1.465 . S
C164 C163 1.396 . S
C164 C165 1.399 . S
C165 H151 0.929 . S
C165 C164 1.399 . S
C165 C166 1.385 . S
C166 H152 0.931 . S
C166 C165 1.385 . S
C166 C167 1.389 . S
C167 C166 1.389 . S
C167 C168 1.387 . S
C168 H153 0.930 . S
C168 C163 1.390 . S
C168 C167 1.387 . S
H169 C181 0.930 . S
H170 C183 0.930 . S
H171 C184 0.930 . S
H172 C188 0.959 . S
H173 C188 0.959 . S
H174 C188 0.961 . S
H175 C189 0.960 1_554 S
H176 C189 0.961 1_554 S
H177 C189 0.959 . S
H178 C192 0.929 . S
H179 C193 0.931 . S
H180 C195 0.930 . S
C181 H169 0.930 . S
C181 C182 1.399 . S
C181 C186 1.399 . S
C182 C181 1.399 . S
C182 C183 1.376 1_554 S
C183 H170 0.930 . S
C183 C182 1.376 1_556 S
C183 C184 1.388 . S
C184 H171 0.930 . S
C184 C183 1.388 . S
C184 C185 1.390 . S
C185 C184 1.390 . S
C185 C186 1.394 1_556 S
C185 C191 1.465 . S
C186 C181 1.399 . S
C186 C185 1.394 1_554 S
C186 C187 1.516 . S
C187 C186 1.516 . S
C187 C188 1.502 . S
C187 C189 1.561 1_554 S
C187 C190 1.526 . S
C188 H172 0.959 . S
C188 H173 0.959 . S
C188 H174 0.961 . S
C188 C187 1.502 . S
C189 H175 0.960 1_556 S
C189 H176 0.961 1_556 S
C189 H177 0.959 . S
C189 C187 1.561 1_556 S
C190 C187 1.526 . S
C190 C191 1.396 1_554 S
C190 C195 1.390 . S
C191 C185 1.465 . S
C191 C190 1.396 1_556 S
C191 C192 1.399 . S
C192 H178 0.929 . S
C192 C191 1.399 . S
C192 C193 1.385 . S
C193 H179 0.931 . S
C193 C192 1.385 . S
C193 C194 1.389 . S
C194 C193 1.389 . S
C194 C195 1.387 1_556 S
C195 H180 0.930 . S
C195 C190 1.390 . S
C195 C194 1.387 1_554 S
H196 C208 0.930 . S
H197 C210 0.930 . S
H198 C211 0.930 . S
H199 C215 0.959 . S
H200 C215 0.959 . S
H201 C215 0.961 . S
H202 C216 0.960 . S
H203 C216 0.961 . S
H204 C216 0.959 . S
H205 C219 0.929 . S
H206 C220 0.931 . S
H207 C222 0.930 . S
C208 H196 0.930 . S
C208 C209 1.399 . S
C208 C213 1.399 . S
C209 C208 1.399 . S
C209 C210 1.376 . S
C210 H197 0.930 . S
C210 C209 1.376 . S
C210 C211 1.388 . S
C211 H198 0.930 . S
C211 C210 1.388 . S
C211 C212 1.390 . S
C212 C211 1.390 . S
C212 C213 1.394 . S
C212 C218 1.465 . S
C213 C208 1.399 . S
C213 C212 1.394 . S
C213 C214 1.516 . S
C214 C213 1.516 . S
C214 C215 1.502 . S
C214 C216 1.561 . S
C214 C217 1.526 . S
C215 H199 0.959 . S
C215 H200 0.959 . S
C215 H201 0.961 . S
C215 C214 1.502 . S
C216 H202 0.960 . S
C216 H203 0.961 . S
C216 H204 0.959 . S
C216 C214 1.561 . S
C217 C214 1.526 . S
C217 C218 1.396 . S
C217 C222 1.390 . S
C218 C212 1.465 . S
C218 C217 1.396 . S
C218 C219 1.399 . S
C219 H205 0.929 . S
C219 C218 1.399 . S
C219 C220 1.385 . S
C220 H206 0.931 . S
C220 C219 1.385 . S
C220 C221 1.389 . S
C221 C220 1.389 . S
C221 C222 1.387 . S
C222 H207 0.930 . S
C222 C217 1.390 . S
C222 C221 1.387 . S
H223 C235 0.930 . S
H224 C237 0.930 . S
H225 C238 0.930 . S
H226 C242 0.959 . S
H227 C242 0.959 . S
H228 C242 0.961 . S
H229 C243 0.960 . S
H230 C243 0.961 . S
H231 C243 0.959 . S
H232 C246 0.929 . S
H233 C247 0.931 . S
H234 C249 0.930 . S
C235 H223 0.930 . S
C235 C236 1.399 . S
C235 C240 1.399 . S
C236 C235 1.399 . S
C236 C237 1.376 . S
C237 H224 0.930 . S
C237 C236 1.376 . S
C237 C238 1.388 . S
C238 H225 0.930 . S
C238 C237 1.388 . S
C238 C239 1.390 . S
C239 C238 1.390 . S
C239 C240 1.394 . S
C239 C245 1.465 . S
C240 C235 1.399 . S
C240 C239 1.394 . S
C240 C241 1.516 . S
C241 C240 1.516 . S
C241 C242 1.502 . S
C241 C243 1.561 . S
C241 C244 1.526 . S
C242 H226 0.959 . S
C242 H227 0.959 . S
C242 H228 0.961 . S
C242 C241 1.502 . S
C243 H229 0.960 . S
C243 H230 0.961 . S
C243 H231 0.959 . S
C243 C241 1.561 . S
C244 C241 1.526 . S
C244 C245 1.396 . S
C244 C249 1.390 . S
C245 C239 1.465 . S
C245 C244 1.396 . S
C245 C246 1.399 . S
C246 H232 0.929 . S
C246 C245 1.399 . S
C246 C247 1.385 . S
C247 H233 0.931 . S
C247 C246 1.385 . S
C247 C248 1.389 . S
C248 C247 1.389 . S
C248 C249 1.387 . S
C249 H234 0.930 . S
C249 C244 1.390 . S
C249 C248 1.387 . S
H250 C262 0.930 . S
H251 C264 0.930 . S
H252 C265 0.930 . S
H253 C269 0.959 . S
H254 C269 0.959 . S
H255 C269 0.961 . S
H256 C270 0.960 . S
H257 C270 0.961 . S
H258 C270 0.959 . S
H259 C273 0.929 . S
H260 C274 0.931 . S
H261 C276 0.930 . S
C262 H250 0.930 . S
C262 C263 1.399 . S
C262 C267 1.399 . S
C263 C262 1.399 . S
C263 C264 1.376 . S
C264 H251 0.930 . S
C264 C263 1.376 . S
C264 C265 1.388 . S
C265 H252 0.930 . S
C265 C264 1.388 . S
C265 C266 1.390 . S
C266 C265 1.390 . S
C266 C267 1.394 . S
C266 C272 1.465 . S
C267 C262 1.399 . S
C267 C266 1.394 . S
C267 C268 1.516 . S
C268 C267 1.516 . S
C268 C269 1.502 . S
C268 C270 1.561 . S
C268 C271 1.526 . S
C269 H253 0.959 . S
C269 H254 0.959 . S
C269 H255 0.961 . S
C269 C268 1.502 . S
C270 H256 0.960 . S
C270 H257 0.961 . S
C270 H258 0.959 . S
C270 C268 1.561 . S
C271 C268 1.526 . S
C271 C272 1.396 . S
C271 C276 1.390 . S
C272 C266 1.465 . S
C272 C271 1.396 . S
C272 C273 1.399 . S
C273 H259 0.929 . S
C273 C272 1.399 . S
C273 C274 1.385 . S
C274 H260 0.931 . S
C274 C273 1.385 . S
C274 C275 1.389 . S
C275 C274 1.389 . S
C275 C276 1.387 . S
C276 H261 0.930 . S
C276 C271 1.390 . S
C276 C275 1.387 . S
H277 C289 0.930 . S
H278 C291 0.930 . S
H279 C292 0.930 . S
H280 C296 0.959 . S
H281 C296 0.959 . S
H282 C296 0.961 . S
H283 C297 0.960 . S
H284 C297 0.961 . S
H285 C297 0.959 . S
H286 C300 0.929 . S
H287 C301 0.931 . S
H288 C303 0.930 . S
C289 H277 0.930 . S
C289 C290 1.399 . S
C289 C294 1.399 . S
C290 C289 1.399 . S
C290 C291 1.376 . S
C291 H278 0.930 . S
C291 C290 1.376 . S
C291 C292 1.388 . S
C292 H279 0.930 . S
C292 C291 1.388 . S
C292 C293 1.390 . S
C293 C292 1.390 . S
C293 C294 1.394 . S
C293 C299 1.465 . S
C294 C289 1.399 . S
C294 C293 1.394 . S
C294 C295 1.516 . S
C295 C294 1.516 . S
C295 C296 1.502 . S
C295 C297 1.561 . S
C295 C298 1.526 . S
C296 H280 0.959 . S
C296 H281 0.959 . S
C296 H282 0.961 . S
C296 C295 1.502 . S
C297 H283 0.960 . S
C297 H284 0.961 . S
C297 H285 0.959 . S
C297 C295 1.561 . S
C298 C295 1.526 . S
C298 C299 1.396 . S
C298 C303 1.390 . S
C299 C293 1.465 . S
C299 C298 1.396 . S
C299 C300 1.399 . S
C300 H286 0.929 . S
C300 C299 1.399 . S
C300 C301 1.385 . S
C301 H287 0.931 . S
C301 C300 1.385 . S
C301 C302 1.389 . S
C302 C301 1.389 . S
C302 C303 1.387 . S
C303 H288 0.930 . S
C303 C298 1.390 . S
C303 C302 1.387 . S
H304 C316 0.930 . S
H305 C318 0.930 . S
H306 C319 0.930 1_655 S
H307 C323 0.959 . S
H308 C323 0.959 . S
H309 C323 0.961 . S
H310 C324 0.960 . S
H311 C324 0.961 1_556 S
H312 C324 0.959 . S
H313 C327 0.929 . S
H314 C328 0.931 . S
H315 C330 0.930 . S
C316 H304 0.930 . S
C316 C317 1.399 . S
C316 C321 1.399 . S
C317 C316 1.399 . S
C317 C318 1.376 . S
C318 H305 0.930 . S
C318 C317 1.376 . S
C318 C319 1.388 . S
C319 H306 0.930 1_455 S
C319 C318 1.388 . S
C319 C320 1.390 . S
C320 C319 1.390 . S
C320 C321 1.394 . S
C320 C326 1.465 1_454 S
C321 C316 1.399 . S
C321 C320 1.394 . S
C321 C322 1.516 1_554 S
C322 C321 1.516 1_556 S
C322 C323 1.502 . S
C322 C324 1.561 1_456 S
C322 C325 1.526 1_455 S
C323 H307 0.959 . S
C323 H308 0.959 . S
C323 H309 0.961 . S
C323 C322 1.502 . S
C324 H310 0.960 . S
C324 H311 0.961 1_554 S
C324 H312 0.959 . S
C324 C322 1.561 1_654 S
C325 C322 1.526 1_655 S
C325 C326 1.396 . S
C325 C330 1.390 . S
C326 C320 1.465 1_656 S
C326 C325 1.396 . S
C326 C327 1.399 . S
C327 H313 0.929 . S
C327 C326 1.399 . S
C327 C328 1.385 . S
C328 H314 0.931 . S
C328 C327 1.385 . S
C328 C329 1.389 . S
C329 C328 1.389 . S
C329 C330 1.387 . S
C330 H315 0.930 . S
C330 C325 1.390 . S
C330 C329 1.387 . S
H331 C343 0.930 . S
H332 C345 0.930 . S
H333 C346 0.930 . S
H334 C350 0.959 . S
H335 C350 0.959 . S
H336 C350 0.961 . S
H337 C351 0.960 . S
H338 C351 0.961 . S
H339 C351 0.959 . S
H340 C354 0.929 . S
H341 C355 0.931 . S
H342 C357 0.930 . S
C343 H331 0.930 . S
C343 C344 1.399 . S
C343 C348 1.399 . S
C344 C343 1.399 . S
C344 C345 1.376 . S
C345 H332 0.930 . S
C345 C344 1.376 . S
C345 C346 1.388 . S
C346 H333 0.930 . S
C346 C345 1.388 . S
C346 C347 1.390 . S
C347 C346 1.390 . S
C347 C348 1.394 . S
C347 C353 1.478 . S
C348 C343 1.399 . S
C348 C347 1.394 . S
C348 C349 1.516 1_545 S
C349 C348 1.516 1_565 S
C349 C350 1.502 . S
C349 C351 1.561 . S
C349 C352 1.526 . S
C350 H334 0.959 . S
C350 H335 0.959 . S
C350 H336 0.961 . S
C350 C349 1.502 . S
C351 H337 0.960 . S
C351 H338 0.961 . S
C351 H339 0.959 . S
C351 C349 1.561 . S
C352 C349 1.526 . S
C352 C353 1.376 1_565 S
C352 C357 1.390 . S
C353 C347 1.478 . S
C353 C352 1.376 1_545 S
C353 C354 1.404 . S
C354 H340 0.929 . S
C354 C353 1.404 . S
C354 C355 1.385 1_545 S
C355 H341 0.931 . S
C355 C354 1.385 1_565 S
C355 C356 1.389 . S
C356 C355 1.389 . S
C356 C357 1.387 . S
C357 H342 0.930 . S
C357 C352 1.390 . S
C357 C356 1.387 . S
H358 C370 0.930 . S
H359 C372 0.930 . S
H360 C373 0.930 1_455 S
H361 C377 0.959 . S
H362 C377 0.959 . S
H363 C377 0.961 . S
H364 C378 0.960 . S
H365 C378 0.961 . S
H366 C378 0.959 . S
H367 C381 0.929 . S
H368 C382 0.931 . S
H369 C384 0.930 . S
C370 H358 0.930 . S
C370 C371 1.399 . S
C370 C375 1.399 . S
C371 C370 1.399 . S
C371 C372 1.376 . S
C372 H359 0.930 . S
C372 C371 1.376 . S
C372 C373 1.388 . S
C373 H360 0.930 1_655 S
C373 C372 1.388 . S
C373 C374 1.390 . S
C374 C373 1.390 . S
C374 C375 1.394 . S
C374 C380 1.465 1_655 S
C375 C370 1.399 . S
C375 C374 1.394 . S
C375 C376 1.516 . S
C376 C375 1.516 . S
C376 C377 1.502 . S
C376 C378 1.561 1_655 S
C376 C379 1.526 1_655 S
C377 H361 0.959 . S
C377 H362 0.959 . S
C377 H363 0.961 . S
C377 C376 1.502 . S
C378 H364 0.960 . S
C378 H365 0.961 . S
C378 H366 0.959 . S
C378 C376 1.561 1_455 S
C379 C376 1.526 1_455 S
C379 C380 1.396 . S
C379 C384 1.390 . S
C380 C374 1.465 1_455 S
C380 C379 1.396 . S
C380 C381 1.399 . S
C381 H367 0.929 . S
C381 C380 1.399 . S
C381 C382 1.385 . S
C382 H368 0.931 . S
C382 C381 1.385 . S
C382 C383 1.389 . S
C383 C382 1.389 . S
C383 C384 1.387 . S
C384 H369 0.930 . S
C384 C379 1.390 . S
C384 C383 1.387 . S
H385 C397 0.930 . S
H386 C399 0.930 . S
H387 C400 0.930 . S
H388 C404 0.959 . S
H389 C404 0.959 . S
H390 C404 0.961 . S
H391 C405 0.960 . S
H392 C405 0.961 . S
H393 C405 0.959 . S
H394 C408 0.929 . S
H395 C409 0.931 . S
H396 C411 0.933 . S
C397 H385 0.930 . S
C397 C398 1.399 . S
C397 C402 1.399 . S
C398 C397 1.399 . S
C398 C399 1.376 . S
C399 H386 0.930 . S
C399 C398 1.376 . S
C399 C400 1.388 1_565 S
C400 H387 0.930 . S
C400 C399 1.388 1_545 S
C400 C401 1.390 . S
C401 C400 1.390 . S
C401 C402 1.394 1_545 S
C401 C407 1.465 . S
C402 C397 1.399 . S
C402 C401 1.394 1_565 S
C402 C403 1.516 . S
C403 C402 1.516 . S
C403 C404 1.502 . S
C403 C405 1.561 . S
C403 C406 1.526 1_565 S
C404 H388 0.959 . S
C404 H389 0.959 . S
C404 H390 0.961 . S
C404 C403 1.502 . S
C405 H391 0.960 . S
C405 H392 0.961 . S
C405 H393 0.959 . S
C405 C403 1.561 . S
C406 C403 1.526 1_545 S
C406 C407 1.396 . S
C406 C411 1.390 . S
C407 C401 1.465 . S
C407 C406 1.396 . S
C407 C408 1.399 . S
C408 H394 0.929 . S
C408 C407 1.399 . S
C408 C409 1.385 . S
C409 H395 0.931 . S
C409 C408 1.385 . S
C409 C410 1.389 . S
C410 C409 1.389 . S
C410 C411 1.387 . S
C411 H396 0.933 . S
C411 C406 1.390 . S
C411 C410 1.387 . S
C101 C7 1.506 . S
C113 C51 1.463 . S
C128 C18 1.483 . S
C140 C62 1.484 . S
C155 C29 1.514 . S
C167 C73 1.460 . S
C182 C84 1.463 . S
C194 C40 1.504 . S
C209 C8 1.509 . S
C221 C63 1.501 . S
C236 C19 1.516 . S
C248 C74 1.499 . S
C263 C30 1.504 . S
C275 C85 1.518 . S
C290 C41 1.516 . S
C302 C52 1.499 . S
C317 C5 1.288 . S
C329 C71 1.352 . S
C344 C16 1.355 . S
C356 C82 1.288 . S
C371 C27 1.287 . S
C383 C49 1.355 . S
C398 C38 1.318 . S
C410 C60 1.401 . S
