# Generated by pormake.
# Topology qtz-a, (4)-cn, num edge types: 1
# Building blocks:
#     Node 0, Type 0, BuildingBlock: NAHDIM_clean_sbu_0, # of connection points: 4
#     Node 1, Type 0, BuildingBlock: NAHDIM_clean_sbu_0, # of connection points: 4
#     Node 2, Type 0, BuildingBlock: NAHDIM_clean_sbu_0, # of connection points: 4
#     Node 3, Type 0, BuildingBlock: NAHDIM_clean_sbu_0, # of connection points: 4
#     Node 4, Type 0, BuildingBlock: NAHDIM_clean_sbu_0, # of connection points: 4
#     Node 5, Type 0, BuildingBlock: NAHDIM_clean_sbu_0, # of connection points: 4
#     Node 6, Type 0, BuildingBlock: NAHDIM_clean_sbu_0, # of connection points: 4
#     Node 7, Type 0, BuildingBlock: NAHDIM_clean_sbu_0, # of connection points: 4
#     Node 8, Type 0, BuildingBlock: NAHDIM_clean_sbu_0, # of connection points: 4
#     Node 9, Type 0, BuildingBlock: NAHDIM_clean_sbu_0, # of connection points: 4
#     Node 10, Type 0, BuildingBlock: NAHDIM_clean_sbu_0, # of connection points: 4
#     Node 11, Type 0, BuildingBlock: NAHDIM_clean_sbu_0, # of connection points: 4
#     Edge 12, Type (0, 0), BuildingBlock: MIFKUJ_clean_linker_0, # of connection points: 2
#     Edge 13, Type (0, 0), BuildingBlock: MIFKUJ_clean_linker_0, # of connection points: 2
#     Edge 14, Type (0, 0), BuildingBlock: MIFKUJ_clean_linker_0, # of connection points: 2
#     Edge 15, Type (0, 0), BuildingBlock: MIFKUJ_clean_linker_0, # of connection points: 2
#     Edge 16, Type (0, 0), BuildingBlock: MIFKUJ_clean_linker_0, # of connection points: 2
#     Edge 17, Type (0, 0), BuildingBlock: MIFKUJ_clean_linker_0, # of connection points: 2
#     Edge 18, Type (0, 0), BuildingBlock: MIFKUJ_clean_linker_0, # of connection points: 2
#     Edge 19, Type (0, 0), BuildingBlock: MIFKUJ_clean_linker_0, # of connection points: 2
#     Edge 20, Type (0, 0), BuildingBlock: MIFKUJ_clean_linker_0, # of connection points: 2
#     Edge 21, Type (0, 0), BuildingBlock: MIFKUJ_clean_linker_0, # of connection points: 2
#     Edge 22, Type (0, 0), BuildingBlock: MIFKUJ_clean_linker_0, # of connection points: 2
#     Edge 23, Type (0, 0), BuildingBlock: MIFKUJ_clean_linker_0, # of connection points: 2
#     Edge 24, Type (0, 0), BuildingBlock: MIFKUJ_clean_linker_0, # of connection points: 2
#     Edge 25, Type (0, 0), BuildingBlock: MIFKUJ_clean_linker_0, # of connection points: 2
#     Edge 26, Type (0, 0), BuildingBlock: MIFKUJ_clean_linker_0, # of connection points: 2
#     Edge 27, Type (0, 0), BuildingBlock: MIFKUJ_clean_linker_0, # of connection points: 2
#     Edge 28, Type (0, 0), BuildingBlock: MIFKUJ_clean_linker_0, # of connection points: 2
#     Edge 29, Type (0, 0), BuildingBlock: MIFKUJ_clean_linker_0, # of connection points: 2
#     Edge 30, Type (0, 0), BuildingBlock: MIFKUJ_clean_linker_0, # of connection points: 2
#     Edge 31, Type (0, 0), BuildingBlock: MIFKUJ_clean_linker_0, # of connection points: 2
#     Edge 32, Type (0, 0), BuildingBlock: MIFKUJ_clean_linker_0, # of connection points: 2
#     Edge 33, Type (0, 0), BuildingBlock: MIFKUJ_clean_linker_0, # of connection points: 2
#     Edge 34, Type (0, 0), BuildingBlock: MIFKUJ_clean_linker_0, # of connection points: 2
#     Edge 35, Type (0, 0), BuildingBlock: MIFKUJ_clean_linker_0, # of connection points: 2
# Relax obj value: 0.802
# Max RMSD: 0.425
# Mean RMSD: 0.305
data_MOF--net-qtz-a--node1-NAHDIM_clean_sbu_0--edge1-MIFKUJ_clean_linker_0
_symmetry_space_group_name_H-M    P1
_symmetry_Int_Tables_number       1
_symmetry_cell_setting            triclinic
loop_
_symmetry_equiv_pos_as_xyz
'x, y, z'
_cell_length_a     50.152436
_cell_length_b     64.10499
_cell_length_c     53.225897
_cell_angle_alpha  77.28433
_cell_angle_beta   89.967652
_cell_angle_gamma 113.03116
loop_
_atom_site_label
_atom_site_type_symbol
_atom_site_fract_x
_atom_site_fract_y
_atom_site_fract_z
_atom_type_partial_charge
C0 C 0.43656 0.06178 0.21958 0.0
O1 O 0.43793 0.0433 0.23513 0.0
O2 O 0.44276 0.01262 0.2007 0.0
Zn3 Zn 0.43627 0.03892 0.17716 0.0
O4 O 0.46954 0.05447 0.14894 0.0
C5 C 0.38931 0.00766 0.15405 0.0
O6 O 0.39858 0.99171 0.1654 0.0
O7 O 0.43527 0.06282 0.19551 0.0
C8 C 0.474 0.04187 0.13541 0.0
O9 O 0.4578 0.01936 0.14115 0.0
C10 C 0.46748 0.01759 0.20949 0.0
O11 O 0.48608 0.03953 0.20438 0.0
O12 O 0.4006 0.02792 0.15833 0.0
C13 C 0.16463 0.39719 0.41585 0.0
O14 O 0.17336 0.38276 0.43159 0.0
O15 O 0.23142 0.39162 0.41237 0.0
Zn16 Zn 0.21261 0.4023 0.38184 0.0
O17 O 0.24126 0.43368 0.36196 0.0
C18 C 0.21478 0.36382 0.3643 0.0
O19 O 0.21583 0.35589 0.38906 0.0
O20 O 0.17635 0.40563 0.39269 0.0
C21 C 0.23251 0.4452 0.34379 0.0
O22 O 0.2046 0.4373 0.34062 0.0
C23 C 0.24858 0.40493 0.42513 0.0
O24 O 0.25299 0.4271 0.41976 0.0
O25 O 0.20876 0.38164 0.35719 0.0
C26 C 0.89534 0.39156 0.86491 0.0
O27 O 0.89166 0.39232 0.88908 0.0
O28 O 0.97606 0.41016 0.87975 0.0
Zn29 Zn 0.95182 0.42843 0.86547 0.0
O30 O 0.93687 0.43883 0.89415 0.0
C31 C 0.98719 0.47668 0.83433 0.0
O32 O 0.9848 0.48403 0.85503 0.0
O33 O 0.91893 0.40554 0.85133 0.0
C34 C 0.92403 0.45225 0.89561 0.0
O35 O 0.91904 0.45528 0.91851 0.0
C36 C 0.00123 0.41763 0.88769 0.0
O37 O 0.01461 0.40348 0.89362 0.0
O38 O 0.97536 0.45498 0.83515 0.0
C39 C 0.55321 0.80784 0.13019 0.0
O40 O 0.56674 0.81581 0.14939 0.0
O41 O 0.56919 0.86539 0.13966 0.0
Zn42 Zn 0.56696 0.85673 0.1055 0.0
O43 O 0.53836 0.86794 0.08676 0.0
C44 C 0.62633 0.89002 0.08907 0.0
O45 O 0.62454 0.89459 0.11174 0.0
O46 O 0.55173 0.82211 0.11003 0.0
C47 C 0.54385 0.88962 0.08191 0.0
O48 O 0.56781 0.90378 0.08929 0.0
C49 C 0.54583 0.85699 0.15461 0.0
O50 O 0.52234 0.84152 0.14812 0.0
O51 O 0.6051 0.87355 0.08315 0.0
C52 C 0.61506 0.44104 0.45008 0.0
O53 O 0.61749 0.4214 0.44993 0.0
O54 O 0.52371 0.40543 0.45546 0.0
Zn55 Zn 0.55943 0.41926 0.43023 0.0
O56 O 0.57058 0.39497 0.4205 0.0
C57 C 0.52954 0.4191 0.38571 0.0
O58 O 0.5188 0.39683 0.39748 0.0
O59 O 0.59227 0.44378 0.44283 0.0
C60 C 0.59084 0.40284 0.40221 0.0
O61 O 0.6065 0.42546 0.39542 0.0
C62 C 0.50629 0.38405 0.46073 0.0
O63 O 0.51317 0.36919 0.45156 0.0
O64 O 0.54792 0.43365 0.39661 0.0
C65 C 0.22211 0.73029 0.79687 0.0
O66 O 0.23768 0.72223 0.78508 0.0
O67 O 0.15047 0.66305 0.8355 0.0
Zn68 Zn 0.18588 0.68228 0.81076 0.0
O69 O 0.21795 0.67313 0.82627 0.0
C70 C 0.16183 0.6879 0.76252 0.0
O71 O 0.15967 0.70507 0.77083 0.0
O72 O 0.19791 0.7161 0.80937 0.0
C73 C 0.2373 0.66718 0.81855 0.0
O74 O 0.25614 0.66417 0.83454 0.0
C75 C 0.15239 0.65687 0.85957 0.0
O76 O 0.17756 0.66611 0.86874 0.0
O77 O 0.17422 0.6759 0.77584 0.0
C78 C 0.8596 0.57401 0.55617 0.0
O79 O 0.88421 0.5744 0.54711 0.0
O80 O 0.90381 0.54907 0.58902 0.0
Zn81 Zn 0.8843 0.56643 0.60375 0.0
O82 O 0.86463 0.54722 0.63871 0.0
C83 C 0.94184 0.60347 0.59767 0.0
O84 O 0.94543 0.59538 0.57786 0.0
O85 O 0.85533 0.57225 0.58022 0.0
C86 C 0.85981 0.55694 0.65555 0.0
O87 O 0.86475 0.57921 0.64872 0.0
C88 C 0.91484 0.53661 0.60354 0.0
O89 O 0.91001 0.53264 0.62875 0.0
O90 O 0.91667 0.59537 0.6098 0.0
C91 C 0.3317 0.95106 0.8611 0.0
O92 O 0.35962 0.96198 0.86303 0.0
O93 O 0.36569 0.00873 0.85822 0.0
Zn94 Zn 0.33156 0.98665 0.88357 0.0
O95 O 0.34732 0.97622 0.91687 0.0
C96 C 0.29323 0.00876 0.90174 0.0
O97 O 0.27517 0.01894 0.8954 0.0
O98 O 0.31394 0.95841 0.86915 0.0
C99 C 0.37132 0.98873 0.92403 0.0
O100 O 0.3855 0.01036 0.91076 0.0
C101 C 0.37613 0.03088 0.85199 0.0
O102 O 0.36387 0.04201 0.86258 0.0
O103 O 0.30197 0.00092 0.88491 0.0
C104 C 0.48269 0.2852 0.20475 0.0
O105 O 0.50039 0.29677 0.18355 0.0
O106 O 0.42977 0.29763 0.15688 0.0
Zn107 Zn 0.45123 0.31377 0.18384 0.0
O108 O 0.48633 0.3415 0.16369 0.0
C109 C 0.42788 0.34063 0.20959 0.0
O110 O 0.45423 0.35712 0.20577 0.0
O111 O 0.46125 0.2902 0.20899 0.0
C112 C 0.51227 0.35423 0.16684 0.0
O113 O 0.52861 0.37018 0.1467 0.0
C114 C 0.42716 0.30938 0.13513 0.0
O115 O 0.41568 0.29867 0.11696 0.0
O116 O 0.42298 0.32202 0.20225 0.0
C117 C 0.21618 0.58291 0.52028 0.0
O118 O 0.2446 0.59427 0.51795 0.0
O119 O 0.22682 0.64157 0.54145 0.0
Zn120 Zn 0.2194 0.60818 0.5595 0.0
O121 O 0.25908 0.60721 0.56528 0.0
C122 C 0.19313 0.58734 0.61433 0.0
O123 O 0.21625 0.58282 0.61909 0.0
O124 O 0.20082 0.58636 0.53657 0.0
C125 C 0.27992 0.61516 0.57889 0.0
O126 O 0.30315 0.61087 0.57598 0.0
C127 C 0.20643 0.64851 0.5369 0.0
O128 O 0.21266 0.67079 0.52758 0.0
O129 O 0.19055 0.59732 0.59159 0.0
C130 C 0.74822 0.16525 0.83665 0.0
O131 O 0.74141 0.15592 0.81667 0.0
O132 O 0.68266 0.11256 0.84005 0.0
Zn133 Zn 0.70846 0.11979 0.86854 0.0
O134 O 0.68215 0.11778 0.89839 0.0
C135 C 0.71535 0.07596 0.87757 0.0
O136 O 0.69518 0.07082 0.86152 0.0
O137 O 0.73807 0.1527 0.85931 0.0
C138 C 0.68802 0.11336 0.92168 0.0
O139 O 0.71198 0.11011 0.92651 0.0
C140 C 0.67082 0.12678 0.8321 0.0
O141 O 0.6786 0.14572 0.84092 0.0
O142 O 0.72576 0.0964 0.88141 0.0
C143 C 0.42259 0.57257 0.11402 0.0
O144 O 0.41048 0.56991 0.09242 0.0
O145 O 0.47025 0.55798 0.07444 0.0
Zn146 Zn 0.4394 0.5374 0.10415 0.0
O147 O 0.40113 0.52021 0.09059 0.0
C148 C 0.47623 0.52338 0.13878 0.0
O149 O 0.49138 0.54608 0.13321 0.0
O150 O 0.43535 0.55949 0.12375 0.0
C151 C 0.37507 0.51264 0.10076 0.0
O152 O 0.35364 0.50345 0.08709 0.0
C153 C 0.48827 0.55173 0.06479 0.0
O154 O 0.50958 0.56715 0.04769 0.0
O155 O 0.45328 0.5152 0.12772 0.0
H156 H 0.51199 0.08762 0.11839 0.0
H157 H 0.54757 0.1049 0.08026 0.0
H158 H 0.52175 0.03721 0.06345 0.0
H159 H 0.48581 0.01996 0.10106 0.0
H160 H 0.59366 0.09884 0.0684 0.0
H161 H 0.52811 0.0434 0.99696 0.0
H162 H 0.47789 0.02672 0.98539 0.0
H163 H 0.45591 0.07294 0.02022 0.0
H164 H 0.50639 0.09065 0.03115 0.0
H165 H 0.68872 0.09643 0.97334 0.0
H166 H 0.6526 0.0894 0.00829 0.0
H167 H 0.60544 0.11881 0.95382 0.0
H168 H 0.64069 0.12464 0.91854 0.0
H169 H 0.56874 0.08308 0.98241 0.0
H170 H 0.64616 0.14719 0.00115 0.0
H171 H 0.69622 0.17111 0.00875 0.0
H172 H 0.69216 0.11775 0.07538 0.0
H173 H 0.64221 0.09335 0.06799 0.0
C174 C 0.51386 0.07643 0.10653 0.0
C175 C 0.4961 0.05241 0.11279 0.0
C176 C 0.53423 0.08633 0.08477 0.0
C177 C 0.53711 0.07242 0.06881 0.0
C178 C 0.51958 0.04839 0.07518 0.0
C179 C 0.49919 0.03851 0.09686 0.0
C180 C 0.55908 0.08276 0.04597 0.0
C181 C 0.5882 0.09549 0.04955 0.0
C182 C 0.55181 0.07911 0.02113 0.0
C183 C 0.5211 0.06819 0.01517 0.0
C184 C 0.51266 0.05012 0.00208 0.0
C185 C 0.48414 0.04055 0.99551 0.0
C186 C 0.46368 0.0487 0.00213 0.0
C187 C 0.47177 0.06659 0.01518 0.0
C188 C 0.50038 0.07643 0.02154 0.0
C189 C 0.67078 0.10157 0.96882 0.0
C190 C 0.66745 0.11093 0.94314 0.0
C191 C 0.65021 0.09773 0.9889 0.0
C192 C 0.62635 0.10382 0.98387 0.0
C193 C 0.62351 0.11383 0.95827 0.0
C194 C 0.64375 0.11723 0.9381 0.0
C195 C 0.60352 0.09845 0.00504 0.0
C196 C 0.57421 0.08663 0.00117 0.0
C197 C 0.61044 0.10377 0.02931 0.0
C198 C 0.64049 0.11837 0.0339 0.0
C199 C 0.65601 0.14049 0.01733 0.0
C200 C 0.68436 0.15414 0.02161 0.0
C201 C 0.69738 0.14594 0.0425 0.0
C202 C 0.68205 0.12408 0.05919 0.0
C203 C 0.6537 0.11034 0.05499 0.0
H204 H 0.71933 0.15654 0.04579 0.0
H205 H 0.44154 0.04105 0.9973 0.0
H206 H 0.32759 0.51744 0.11876 0.0
H207 H 0.31374 0.51648 0.16306 0.0
H208 H 0.39331 0.51056 0.18677 0.0
H209 H 0.40579 0.50971 0.14285 0.0
H210 H 0.35292 0.48102 0.21918 0.0
H211 H 0.37953 0.56189 0.18726 0.0
H212 H 0.38296 0.59885 0.15839 0.0
H213 H 0.29029 0.57631 0.1695 0.0
H214 H 0.28621 0.53928 0.19866 0.0
H215 H 0.29183 0.46583 0.34379 0.0
H216 H 0.32699 0.48943 0.30613 0.0
H217 H 0.25655 0.48938 0.25962 0.0
H218 H 0.22149 0.46661 0.2972 0.0
H219 H 0.30501 0.52953 0.24296 0.0
H220 H 0.2825 0.44445 0.26893 0.0
H221 H 0.28249 0.41081 0.30207 0.0
H222 H 0.37476 0.44581 0.30383 0.0
H223 H 0.37522 0.47984 0.27101 0.0
C224 C 0.34227 0.51619 0.13337 0.0
C225 C 0.36829 0.51426 0.12715 0.0
C226 C 0.33454 0.51597 0.15868 0.0
C227 C 0.35281 0.51407 0.17831 0.0
C228 C 0.37898 0.5124 0.17201 0.0
C229 C 0.38643 0.51227 0.14675 0.0
C230 C 0.34295 0.51125 0.2057 0.0
C231 C 0.34317 0.49207 0.22441 0.0
C232 C 0.33034 0.52564 0.21289 0.0
C233 C 0.33256 0.54773 0.19506 0.0
C234 C 0.35985 0.56473 0.18342 0.0
C235 C 0.36192 0.58571 0.16703 0.0
C236 C 0.33688 0.58985 0.16197 0.0
C237 C 0.30968 0.57307 0.17342 0.0
C238 C 0.30748 0.55213 0.18999 0.0
C239 C 0.28389 0.47143 0.32571 0.0
C240 C 0.25384 0.46385 0.32329 0.0
C241 C 0.30402 0.48489 0.3042 0.0
C242 C 0.29433 0.49056 0.2799 0.0
C243 C 0.26453 0.48504 0.27812 0.0
C244 C 0.24445 0.47188 0.29965 0.0
C245 C 0.31408 0.49894 0.25573 0.0
C246 C 0.31561 0.51904 0.23768 0.0
C247 C 0.32895 0.48577 0.24929 0.0
C248 C 0.32885 0.46471 0.26771 0.0
C249 C 0.30278 0.44492 0.27636 0.0
C250 C 0.30268 0.42583 0.29514 0.0
C251 C 0.32857 0.42617 0.3051 0.0
C252 C 0.35468 0.4456 0.29622 0.0
C253 C 0.35489 0.46478 0.27749 0.0
H254 H 0.32846 0.41133 0.31955 0.0
H255 H 0.33857 0.6061 0.14924 0.0
H256 H 0.85535 0.51269 0.67615 0.0
H257 H 0.85744 0.49549 0.72117 0.0
H258 H 0.85523 0.55586 0.7429 0.0
H259 H 0.85398 0.57361 0.69748 0.0
H260 H 0.89893 0.5476 0.76155 0.0
H261 H 0.79874 0.50088 0.76365 0.0
H262 H 0.7536 0.47525 0.74912 0.0
H263 H 0.78731 0.42247 0.75469 0.0
H264 H 0.83287 0.4479 0.76887 0.0
H265 H 0.90729 0.48845 0.89199 0.0
H266 H 0.88933 0.50728 0.85476 0.0
H267 H 0.90096 0.46219 0.81041 0.0
H268 H 0.91888 0.44358 0.84729 0.0
H269 H 0.84571 0.46484 0.80857 0.0
H270 H 0.94912 0.51612 0.79996 0.0
H271 H 0.99314 0.54239 0.81539 0.0
H272 H 0.95031 0.5871 0.82376 0.0
H273 H 0.90586 0.56099 0.80866 0.0
C274 C 0.85463 0.52214 0.69051 0.0
C275 C 0.85482 0.54464 0.68319 0.0
C276 C 0.85563 0.51218 0.71636 0.0
C277 C 0.85636 0.52432 0.73549 0.0
C278 C 0.85473 0.5462 0.72844 0.0
C279 C 0.85391 0.55627 0.7025 0.0
C280 C 0.86234 0.5153 0.76203 0.0
C281 C 0.88678 0.52966 0.77213 0.0
C282 C 0.84673 0.49184 0.77576 0.0
C283 C 0.81933 0.4764 0.76722 0.0
C284 C 0.79664 0.48388 0.7616 0.0
C285 C 0.77095 0.46937 0.75345 0.0
C286 C 0.7676 0.44726 0.75095 0.0
C287 C 0.78993 0.4396 0.75664 0.0
C288 C 0.81568 0.45405 0.76478 0.0
C289 C 0.9061 0.48257 0.87428 0.0
C290 C 0.91454 0.46434 0.87264 0.0
C291 C 0.89587 0.49338 0.85306 0.0
C292 C 0.89375 0.48603 0.82994 0.0
C293 C 0.90227 0.468 0.82819 0.0
C294 C 0.91269 0.45738 0.8493 0.0
C295 C 0.88264 0.49695 0.80738 0.0
C296 C 0.85731 0.48291 0.79815 0.0
C297 C 0.89721 0.52075 0.7946 0.0
C298 C 0.92403 0.53644 0.80352 0.0
C299 C 0.94898 0.53143 0.80531 0.0
C300 C 0.97402 0.5463 0.81396 0.0
C301 C 0.97445 0.56629 0.8207 0.0
C302 C 0.94991 0.57156 0.81863 0.0
C303 C 0.92479 0.55675 0.81002 0.0
H304 H 0.99384 0.57774 0.82745 0.0
H305 H 0.74769 0.43605 0.74464 0.0
H306 H 0.49065 0.86504 0.06689 0.0
H307 H 0.45817 0.88068 0.04313 0.0
H308 H 0.51951 0.95076 0.04093 0.0
H309 H 0.55178 0.93527 0.06513 0.0
H310 H 0.46591 0.94647 0.0519 0.0
H311 H 0.51357 0.92708 0.98795 0.0
H312 H 0.52954 0.9016 0.96896 0.0
H313 H 0.44047 0.85517 0.96856 0.0
H314 H 0.42397 0.88023 0.98789 0.0
H315 H 0.42211 0.01022 0.94449 0.0
H316 H 0.4475 0.99182 0.97477 0.0
H317 H 0.37749 0.92461 0.98077 0.0
H318 H 0.35183 0.94284 0.95032 0.0
H319 H 0.43235 0.92559 0.96968 0.0
H320 H 0.38566 0.94955 0.02847 0.0
H321 H 0.37134 0.97603 0.04663 0.0
H322 H 0.46049 0.01538 0.05689 0.0
H323 H 0.47564 0.98968 0.03761 0.0
C324 C 0.49722 0.88378 0.06138 0.0
C325 C 0.52388 0.89892 0.0678 0.0
C326 C 0.47866 0.8927 0.04771 0.0
C327 C 0.48656 0.91691 0.03995 0.0
C328 C 0.51295 0.93202 0.0467 0.0
C329 C 0.53143 0.92313 0.06048 0.0
C330 C 0.46748 0.92659 0.02462 0.0
C331 C 0.45885 0.94216 0.03375 0.0
C332 C 0.45769 0.92047 0.00127 0.0
C333 C 0.46755 0.90539 0.98964 0.0
C334 C 0.4974 0.91133 0.98401 0.0
C335 C 0.50655 0.89699 0.97315 0.0
C336 C 0.48604 0.87674 0.96763 0.0
C337 C 0.45633 0.87084 0.97289 0.0
C338 C 0.44707 0.88511 0.98379 0.0
C339 C 0.41186 0.99159 0.95246 0.0
C340 C 0.38498 0.97804 0.94483 0.0
C341 C 0.42638 0.98113 0.96989 0.0
C342 C 0.41433 0.95692 0.9801 0.0
C343 C 0.38715 0.94335 0.9731 0.0
C344 C 0.37249 0.95383 0.95577 0.0
C345 C 0.43102 0.94569 0.99681 0.0
C346 C 0.43926 0.92984 0.98789 0.0
C347 C 0.44076 0.95184 0.02017 0.0
C348 C 0.43184 0.96778 0.03121 0.0
C349 C 0.40234 0.96408 0.03412 0.0
C350 C 0.39406 0.97899 0.04469 0.0
C351 C 0.41499 0.99745 0.05294 0.0
C352 C 0.44429 0.00106 0.05054 0.0
C353 C 0.45275 0.98639 0.03963 0.0
H354 H 0.40857 0.00892 0.06127 0.0
H355 H 0.49317 0.86566 0.95921 0.0
H356 H 0.63416 0.4109 0.36576 0.0
H357 H 0.62803 0.39526 0.32719 0.0
H358 H 0.53974 0.34861 0.35709 0.0
H359 H 0.54612 0.36343 0.39606 0.0
H360 H 0.5614 0.3296 0.32721 0.0
H361 H 0.55924 0.40537 0.32226 0.0
H362 H 0.57955 0.44672 0.32413 0.0
H363 H 0.64551 0.463 0.26312 0.0
H364 H 0.62671 0.42154 0.26175 0.0
H365 H 0.48298 0.33155 0.21513 0.0
H366 H 0.50315 0.33254 0.25676 0.0
H367 H 0.58918 0.37348 0.21741 0.0
H368 H 0.56915 0.37244 0.17576 0.0
H369 H 0.57421 0.3942 0.25077 0.0
H370 H 0.57377 0.31941 0.25249 0.0
H371 H 0.55324 0.27822 0.2499 0.0
H372 H 0.49044 0.26081 0.31416 0.0
H373 H 0.5103 0.30194 0.31697 0.0
C374 C 0.61383 0.39668 0.36453 0.0
C375 C 0.59044 0.3887 0.38366 0.0
C376 C 0.6103 0.38784 0.34243 0.0
C377 C 0.58311 0.37136 0.3389 0.0
C378 C 0.56083 0.3615 0.35929 0.0
C379 C 0.56452 0.37001 0.38161 0.0
C380 C 0.57639 0.36687 0.31299 0.0
C381 C 0.56418 0.34371 0.31047 0.0
C382 C 0.5804 0.38534 0.29104 0.0
C383 C 0.59183 0.41024 0.2922 0.0
C384 C 0.5783 0.41768 0.30947 0.0
C385 C 0.58949 0.44115 0.31041 0.0
C386 C 0.61363 0.45747 0.29369 0.0
C387 C 0.62683 0.45033 0.2761 0.0
C388 C 0.61605 0.42682 0.27535 0.0
C389 C 0.5062 0.34023 0.2153 0.0
C390 C 0.52435 0.35195 0.19212 0.0
C391 C 0.51776 0.34074 0.23914 0.0
C392 C 0.54769 0.353 0.24013 0.0
C393 C 0.56603 0.36388 0.21703 0.0
C394 C 0.55449 0.36331 0.19326 0.0
C395 C 0.55928 0.35699 0.26497 0.0
C396 C 0.57207 0.3801 0.26734 0.0
C397 C 0.55566 0.33852 0.28666 0.0
C398 C 0.54344 0.31381 0.28485 0.0
C399 C 0.55542 0.30685 0.26594 0.0
C400 C 0.54397 0.28351 0.26447 0.0
C401 C 0.52064 0.26696 0.28191 0.0
C402 C 0.50859 0.27368 0.30075 0.0
C403 C 0.51995 0.29699 0.3023 0.0
H404 H 0.51188 0.24894 0.28081 0.0
H405 H 0.6221 0.47565 0.29438 0.0
H406 H 0.31796 0.62761 0.61486 0.0
H407 H 0.31072 0.64101 0.65257 0.0
H408 H 0.22926 0.64198 0.62745 0.0
H409 H 0.23884 0.63199 0.58792 0.0
H410 H 0.24533 0.67041 0.65287 0.0
H411 H 0.23931 0.59204 0.67354 0.0
H412 H 0.2549 0.55987 0.67525 0.0
H413 H 0.3266 0.59212 0.71727 0.0
H414 H 0.31158 0.6247 0.71552 0.0
H415 H 0.19374 0.64581 0.79077 0.0
H416 H 0.19864 0.64041 0.74683 0.0
H417 H 0.29202 0.67426 0.74491 0.0
H418 H 0.28699 0.68079 0.78796 0.0
H419 H 0.26406 0.62576 0.73454 0.0
H420 H 0.26394 0.70391 0.71336 0.0
H421 H 0.24143 0.73188 0.71326 0.0
H422 H 0.17155 0.69323 0.67347 0.0
H423 H 0.19294 0.66443 0.67434 0.0
C424 C 0.29875 0.63111 0.61707 0.0
C425 C 0.27782 0.62716 0.59915 0.0
C426 C 0.29439 0.63843 0.63894 0.0
C427 C 0.26836 0.64083 0.64399 0.0
C428 C 0.24907 0.63944 0.62467 0.0
C429 C 0.25423 0.63325 0.60215 0.0
C430 C 0.26082 0.64383 0.66964 0.0
C431 C 0.24906 0.66031 0.67067 0.0
C432 C 0.26528 0.63057 0.69316 0.0
C433 C 0.27437 0.61094 0.69422 0.0
C434 C 0.25844 0.59237 0.68304 0.0
C435 C 0.2672 0.57404 0.68402 0.0
C436 C 0.29176 0.57396 0.69633 0.0
C437 C 0.30759 0.59221 0.70772 0.0
C438 C 0.29894 0.6106 0.70676 0.0
C439 C 0.2151 0.65294 0.78037 0.0
C440 C 0.23986 0.66451 0.79209 0.0
C441 C 0.21793 0.64956 0.75559 0.0
C442 C 0.24568 0.65726 0.74267 0.0
C443 C 0.27045 0.66845 0.75458 0.0
C444 C 0.26756 0.67212 0.77909 0.0
C445 C 0.24937 0.6525 0.71736 0.0
C446 C 0.26016 0.63554 0.71657 0.0
C447 C 0.2429 0.6646 0.6943 0.0
C448 C 0.22988 0.6818 0.69423 0.0
C449 C 0.2435 0.7011 0.70502 0.0
C450 C 0.23095 0.71715 0.70479 0.0
C451 C 0.20505 0.71431 0.69342 0.0
C452 C 0.19158 0.69538 0.68233 0.0
C453 C 0.20383 0.67913 0.6828 0.0
H454 H 0.19543 0.7268 0.69317 0.0
H455 H 0.29851 0.55975 0.69707 0.0
H456 H 0.36987 0.03834 0.12435 0.0
H457 H 0.34923 0.03587 0.08311 0.0
H458 H 0.34799 0.96693 0.09222 0.0
H459 H 0.36874 0.96926 0.13353 0.0
H460 H 0.37828 0.03263 0.04249 0.0
H461 H 0.29674 0.93741 0.05563 0.0
H462 H 0.26157 0.90535 0.08933 0.0
H463 H 0.25014 0.95513 0.1258 0.0
H464 H 0.28494 0.98747 0.09215 0.0
H465 H 0.2972 0.97129 0.93468 0.0
H466 H 0.31316 0.96918 0.97845 0.0
H467 H 0.3239 0.04042 0.97197 0.0
H468 H 0.30979 0.04286 0.92781 0.0
H469 H 0.29014 0.97205 0.02046 0.0
H470 H 0.37872 0.06738 0.00899 0.0
H471 H 0.41631 0.0981 0.97612 0.0
H472 H 0.4168 0.04712 0.93594 0.0
H473 H 0.37988 0.01587 0.96911 0.0
C474 C 0.36464 0.02242 0.1179 0.0
C475 C 0.37127 0.00409 0.13211 0.0
C476 C 0.3529 0.02108 0.09427 0.0
C477 C 0.34728 0.00132 0.08449 0.0
C478 C 0.35202 0.98232 0.09943 0.0
C479 C 0.36391 0.98369 0.12307 0.0
C480 C 0.33952 0.00174 0.05757 0.0
C481 C 0.35871 0.01967 0.03763 0.0
C482 C 0.31482 0.98411 0.05128 0.0
C483 C 0.29364 0.96484 0.0715 0.0
C484 C 0.28663 0.9415 0.07079 0.0
C485 C 0.26678 0.92328 0.08989 0.0
C486 C 0.2537 0.9282 0.10973 0.0
C487 C 0.26038 0.95135 0.11048 0.0
C488 C 0.2802 0.96963 0.09142 0.0
C489 C 0.30403 0.98668 0.94239 0.0
C490 C 0.30352 0.0075 0.92766 0.0
C491 C 0.31261 0.98537 0.96749 0.0
C492 C 0.32026 0.00478 0.97837 0.0
C493 C 0.3189 0.02541 0.9638 0.0
C494 C 0.31068 0.02677 0.93865 0.0
C495 C 0.32858 0.00333 0.00527 0.0
C496 C 0.30967 0.98513 0.02521 0.0
C497 C 0.35388 0.02057 0.01155 0.0
C498 C 0.37618 0.03924 0.99143 0.0
C499 C 0.38692 0.06264 0.99324 0.0
C500 C 0.40818 0.08015 0.97459 0.0
C501 C 0.41888 0.07453 0.95394 0.0
C502 C 0.40842 0.05138 0.95196 0.0
C503 C 0.38735 0.03376 0.97069 0.0
H504 H 0.43529 0.08812 0.93949 0.0
H505 H 0.23835 0.91407 0.12451 0.0
H506 H 0.37016 0.31875 0.20492 0.0
H507 H 0.32961 0.32259 0.22596 0.0
H508 H 0.39 0.37242 0.26348 0.0
H509 H 0.43079 0.36903 0.24197 0.0
H510 H 0.31177 0.31159 0.27425 0.0
H511 H 0.36127 0.40961 0.27614 0.0
H512 H 0.39568 0.4475 0.24956 0.0
H513 H 0.37993 0.42017 0.18174 0.0
H514 H 0.34505 0.38225 0.20792 0.0
H515 H 0.24421 0.33546 0.37369 0.0
H516 H 0.27545 0.33036 0.34276 0.0
H517 H 0.24879 0.37117 0.28024 0.0
H518 H 0.21794 0.37699 0.31134 0.0
H519 H 0.30556 0.38652 0.27624 0.0
H520 H 0.2284 0.31151 0.28754 0.0
H521 H 0.19124 0.27369 0.31154 0.0
H522 H 0.25802 0.2547 0.34694 0.0
H523 H 0.29557 0.29254 0.32342 0.0
C524 C 0.37481 0.33065 0.21753 0.0
C525 C 0.40363 0.34367 0.22175 0.0
C526 C 0.35162 0.33284 0.22953 0.0
C527 C 0.35674 0.34796 0.24612 0.0
C528 C 0.38555 0.36106 0.2503 0.0
C529 C 0.40883 0.35908 0.23805 0.0
C530 C 0.33185 0.349 0.26013 0.0
C531 C 0.31037 0.32799 0.27457 0.0
C532 C 0.32966 0.37035 0.26017 0.0
C533 C 0.35064 0.39306 0.2441 0.0
C534 C 0.36502 0.41176 0.25555 0.0
C535 C 0.38461 0.43322 0.24056 0.0
C536 C 0.38992 0.43626 0.21397 0.0
C537 C 0.37578 0.41778 0.20236 0.0
C538 C 0.35612 0.39628 0.2173 0.0
C539 C 0.24434 0.34289 0.35332 0.0
C540 C 0.22854 0.35666 0.34502 0.0
C541 C 0.26227 0.33993 0.33559 0.0
C542 C 0.26444 0.35031 0.30912 0.0
C543 C 0.24752 0.36305 0.30058 0.0
C544 C 0.22973 0.36622 0.31837 0.0
C545 C 0.28592 0.34917 0.2908 0.0
C546 C 0.30683 0.37014 0.27568 0.0
C547 C 0.2873 0.32776 0.28968 0.0
C548 C 0.26479 0.30493 0.30382 0.0
C549 C 0.23515 0.29933 0.30057 0.0
C550 C 0.21402 0.27788 0.31407 0.0
C551 C 0.22226 0.26182 0.33078 0.0
C552 C 0.25166 0.26716 0.33399 0.0
C553 C 0.27289 0.28859 0.32055 0.0
H554 H 0.20586 0.24522 0.34122 0.0
H555 H 0.40489 0.45294 0.20235 0.0
H556 H 0.13507 0.56149 0.6164 0.0
H557 H 0.09862 0.54915 0.65323 0.0
H558 H 0.16426 0.58975 0.69594 0.0
H559 H 0.20078 0.6009 0.65956 0.0
H560 H 0.13673 0.55202 0.72643 0.0
H561 H 0.10512 0.60426 0.67246 0.0
H562 H 0.0922 0.62359 0.63183 0.0
H563 H 0.01827 0.56039 0.63211 0.0
H564 H 0.03124 0.54029 0.6722 0.0
H565 H 0.02803 0.52112 0.8292 0.0
H566 H 0.06069 0.54665 0.79045 0.0
H567 H 0.01876 0.49543 0.74702 0.0
H568 H 0.98611 0.46967 0.7855 0.0
H569 H 0.03496 0.54458 0.719 0.0
H570 H 0.07563 0.49454 0.77555 0.0
H571 H 0.0903 0.48118 0.81829 0.0
H572 H 0.15011 0.55134 0.81587 0.0
H573 H 0.13528 0.5652 0.77337 0.0
C574 C 0.14153 0.56779 0.63368 0.0
C575 C 0.17074 0.58166 0.63553 0.0
C576 C 0.12068 0.56096 0.65466 0.0
C577 C 0.12848 0.56861 0.67751 0.0
C578 C 0.1576 0.58334 0.67877 0.0
C579 C 0.17854 0.58964 0.65805 0.0
C580 C 0.10682 0.55982 0.70066 0.0
C581 C 0.1147 0.55094 0.72473 0.0
C582 C 0.07802 0.55854 0.6989 0.0
C583 C 0.06948 0.57063 0.67515 0.0
C584 C 0.08629 0.59436 0.6637 0.0
C585 C 0.079 0.60543 0.64072 0.0
C586 C 0.05474 0.59302 0.62917 0.0
C587 C 0.03735 0.56974 0.64086 0.0
C588 C 0.04465 0.55851 0.66372 0.0
C589 C 0.02551 0.51541 0.81133 0.0
C590 C 0.0048 0.49324 0.81049 0.0
C591 C 0.04409 0.53005 0.78929 0.0
C592 C 0.04223 0.52288 0.76606 0.0
C593 C 0.0205 0.50133 0.76476 0.0
C594 C 0.00206 0.48656 0.78683 0.0
C595 C 0.06496 0.53648 0.74409 0.0
C596 C 0.05721 0.54618 0.72043 0.0
C597 C 0.09427 0.53958 0.74649 0.0
C598 C 0.1041 0.53095 0.77143 0.0
C599 C 0.09179 0.50713 0.78419 0.0
C600 C 0.1001 0.49948 0.80839 0.0
C601 C 0.12103 0.51543 0.81983 0.0
C602 C 0.1338 0.53904 0.80704 0.0
C603 C 0.12544 0.5468 0.78291 0.0
H604 H 0.12744 0.50949 0.83856 0.0
H605 H 0.04937 0.60139 0.61116 0.0
H606 H 0.63604 0.88641 0.03989 0.0
H607 H 0.66578 0.91802 0.00364 0.0
H608 H 0.69782 0.96368 0.05534 0.0
H609 H 0.6682 0.93221 0.09173 0.0
H610 H 0.66814 0.97873 0.01709 0.0
H611 H 0.74484 0.9519 0.02312 0.0
H612 H 0.7668 0.92323 0.02599 0.0
H613 H 0.7388 0.91188 0.9521 0.0
H614 H 0.71627 0.94024 0.94894 0.0
H615 H 0.74381 0.07878 0.92122 0.0
H616 H 0.74129 0.04623 0.95635 0.0
H617 H 0.6959 0.99772 0.91063 0.0
H618 H 0.69774 0.03024 0.87535 0.0
H619 H 0.73749 0.9852 0.94631 0.0
H620 H 0.65417 0.00465 0.94333 0.0
H621 H 0.62713 0.02984 0.94025 0.0
H622 H 0.66269 0.05134 0.0082 0.0
H623 H 0.69057 0.02668 0.01129 0.0
C624 C 0.65006 0.90297 0.04371 0.0
C625 C 0.64934 0.90693 0.06863 0.0
C626 C 0.6672 0.92098 0.02296 0.0
C627 C 0.68388 0.94321 0.0268 0.0
C628 C 0.68506 0.94663 0.052 0.0
C629 C 0.66808 0.92861 0.07277 0.0
C630 C 0.69561 0.96357 0.00433 0.0
C631 C 0.68391 0.98043 0.00198 0.0
C632 C 0.71515 0.96517 0.98408 0.0
C633 C 0.72865 0.94808 0.9859 0.0
C634 C 0.74312 0.94314 0.00758 0.0
C635 C 0.75573 0.92697 0.00924 0.0
C636 C 0.75414 0.9157 0.98926 0.0
C637 C 0.73999 0.92061 0.96757 0.0
C638 C 0.72733 0.93676 0.96582 0.0
C639 C 0.73402 0.06127 0.91823 0.0
C640 C 0.72047 0.05706 0.89564 0.0
C641 C 0.73268 0.0427 0.93836 0.0
C642 C 0.71819 0.01965 0.9361 0.0
C643 C 0.70724 0.01545 0.91264 0.0
C644 C 0.70818 0.03403 0.89258 0.0
C645 C 0.71019 0.00027 0.95948 0.0
C646 C 0.72225 0.98362 0.96181 0.0
C647 C 0.69051 0.99847 0.97967 0.0
C648 C 0.67485 0.01414 0.97728 0.0
C649 C 0.65668 0.0151 0.95732 0.0
C650 C 0.64111 0.0292 0.95563 0.0
C651 C 0.64321 0.0422 0.97399 0.0
C652 C 0.66112 0.04129 0.99395 0.0
C653 C 0.67687 0.02729 0.99565 0.0
H654 H 0.63079 0.05283 0.97281 0.0
H655 H 0.76392 0.90319 0.99058 0.0
H656 H 0.52244 0.53557 0.16753 0.0
H657 H 0.53098 0.5114 0.20613 0.0
H658 H 0.4553 0.45219 0.19692 0.0
H659 H 0.44648 0.47632 0.15823 0.0
H660 H 0.45244 0.45424 0.24345 0.0
H661 H 0.52529 0.45598 0.18844 0.0
H662 H 0.56698 0.46968 0.15586 0.0
H663 H 0.62308 0.50839 0.20536 0.0
H664 H 0.58161 0.49516 0.23821 0.0
H665 H 0.49639 0.39134 0.35557 0.0
H666 H 0.48623 0.40339 0.31102 0.0
H667 H 0.53572 0.47547 0.31137 0.0
H668 H 0.54573 0.46367 0.35613 0.0
H669 H 0.54951 0.45769 0.26702 0.0
H670 H 0.46623 0.45929 0.31646 0.0
H671 H 0.42296 0.4395 0.3484 0.0
H672 H 0.38642 0.3863 0.30647 0.0
H673 H 0.42944 0.40594 0.27418 0.0
C674 C 0.50791 0.51729 0.17339 0.0
C675 C 0.48369 0.50793 0.1599 0.0
C676 C 0.51292 0.5034 0.19543 0.0
C677 C 0.494 0.4798 0.2043 0.0
C678 C 0.47036 0.47023 0.19031 0.0
C679 C 0.46533 0.4841 0.16822 0.0
C680 C 0.49757 0.46595 0.22941 0.0
C681 C 0.47362 0.45469 0.24831 0.0
C682 C 0.52504 0.46603 0.23584 0.0
C683 C 0.55014 0.47454 0.21589 0.0
C684 C 0.54642 0.46749 0.19241 0.0
C685 C 0.57007 0.47519 0.17385 0.0
C686 C 0.59767 0.48992 0.17852 0.0
C687 C 0.60167 0.49697 0.20177 0.0
C688 C 0.57808 0.48933 0.2204 0.0
C689 C 0.50488 0.4098 0.34631 0.0
C690 C 0.52194 0.42659 0.35938 0.0
C691 C 0.49911 0.41659 0.32084 0.0
C692 C 0.51034 0.44026 0.308 0.0
C693 C 0.52699 0.45709 0.32104 0.0
C694 C 0.53257 0.45034 0.3466 0.0
C695 C 0.50495 0.44763 0.28087 0.0
C696 C 0.52846 0.45728 0.2617 0.0
C697 C 0.47697 0.44537 0.27392 0.0
C698 C 0.45106 0.43392 0.29309 0.0
C699 C 0.44899 0.44334 0.31413 0.0
C700 C 0.4245 0.4322 0.33223 0.0
C701 C 0.40199 0.41164 0.32948 0.0
C702 C 0.40388 0.40222 0.30858 0.0
C703 C 0.42822 0.41339 0.29032 0.0
H704 H 0.38306 0.40304 0.34351 0.0
H705 H 0.61597 0.49586 0.16413 0.0
H706 H 0.13855 0.71234 0.72786 0.0
H707 H 0.1066 0.69867 0.69522 0.0
H708 H 0.11717 0.63353 0.71395 0.0
H709 H 0.14943 0.64721 0.74689 0.0
H710 H 0.1108 0.68378 0.65212 0.0
H711 H 0.04309 0.58956 0.71128 0.0
H712 H 0.03041 0.56622 0.75638 0.0
H713 H 0.04951 0.62837 0.78341 0.0
H714 H 0.06102 0.652 0.73844 0.0
H715 H 0.9992 0.61986 0.57981 0.0
H716 H 0.04148 0.6365 0.60309 0.0
H717 H 0.98512 0.63536 0.66501 0.0
H718 H 0.94283 0.61857 0.64206 0.0
H719 H 0.01786 0.61552 0.68464 0.0
H720 H 0.03691 0.68733 0.61993 0.0
H721 H 0.04651 0.71274 0.57588 0.0
H722 H 0.1215 0.69872 0.56191 0.0
H723 H 0.11203 0.67289 0.60571 0.0
C724 C 0.13443 0.69522 0.72487 0.0
C725 C 0.1462 0.68074 0.74023 0.0
C726 C 0.11626 0.68746 0.70607 0.0
C727 C 0.10919 0.66498 0.70238 0.0
C728 C 0.12211 0.65086 0.7167 0.0
C729 C 0.14057 0.65872 0.73546 0.0
C730 C 0.08655 0.65606 0.68496 0.0
C731 C 0.09053 0.66871 0.65913 0.0
C732 C 0.06006 0.63649 0.69419 0.0
C733 C 0.05372 0.62262 0.72145 0.0
C734 C 0.04472 0.59826 0.72684 0.0
C735 C 0.03758 0.58496 0.75238 0.0
C736 C 0.03949 0.59583 0.77274 0.0
C737 C 0.04823 0.62 0.7676 0.0
C738 C 0.05503 0.63336 0.74207 0.0
C739 C 0.99588 0.62353 0.59819 0.0
C740 C 0.96761 0.61761 0.60921 0.0
C741 C 0.02009 0.63302 0.61148 0.0
C742 C 0.01656 0.63682 0.63601 0.0
C743 C 0.98846 0.63226 0.64628 0.0
C744 C 0.96426 0.62279 0.63304 0.0
C745 C 0.04154 0.64377 0.65196 0.0
C746 C 0.03817 0.63047 0.67746 0.0
C747 C 0.06837 0.66296 0.64254 0.0
C748 C 0.07363 0.67805 0.61602 0.0
C749 C 0.05528 0.6895 0.60738 0.0
C750 C 0.06075 0.70401 0.58247 0.0
C751 C 0.08464 0.70738 0.56613 0.0
C752 C 0.10308 0.69618 0.57462 0.0
C753 C 0.09763 0.68156 0.59946 0.0
H754 H 0.08882 0.71861 0.54685 0.0
H755 H 0.03429 0.58552 0.79249 0.0
H756 H 0.58941 0.89105 0.17154 0.0
H757 H 0.58335 0.91552 0.19845 0.0
H758 H 0.49103 0.87309 0.21117 0.0
H759 H 0.497 0.8483 0.18493 0.0
H760 H 0.55397 0.94053 0.18141 0.0
H761 H 0.45915 0.88027 0.26174 0.0
H762 H 0.44438 0.84248 0.29357 0.0
H763 H 0.5331 0.84945 0.29228 0.0
H764 H 0.54851 0.88745 0.26074 0.0
H765 H 0.43597 0.9704 0.21937 0.0
H766 H 0.45556 0.94041 0.22735 0.0
H767 H 0.54038 0.99223 0.23287 0.0
H768 H 0.52106 0.02237 0.22489 0.0
H769 H 0.49056 0.92252 0.26166 0.0
H770 H 0.58477 0.98825 0.1877 0.0
H771 H 0.59665 0.02482 0.15411 0.0
H772 H 0.50641 0.00387 0.14096 0.0
H773 H 0.49416 0.96713 0.17404 0.0
C774 C 0.56797 0.88647 0.18078 0.0
C775 C 0.54358 0.86803 0.17568 0.0
C776 C 0.56456 0.90046 0.1962 0.0
C777 C 0.53674 0.89623 0.20676 0.0
C778 C 0.51279 0.87655 0.20358 0.0
C779 C 0.51621 0.86248 0.18832 0.0
C780 C 0.53176 0.91455 0.21638 0.0
C781 C 0.54099 0.93675 0.19946 0.0
C782 C 0.51403 0.90948 0.23951 0.0
C783 C 0.50497 0.88671 0.25873 0.0
C784 C 0.47556 0.87384 0.26836 0.0
C785 C 0.46706 0.85235 0.28633 0.0
C786 C 0.48778 0.84355 0.29491 0.0
C787 C 0.51706 0.85625 0.28556 0.0
C788 C 0.52568 0.87776 0.2676 0.0
C789 C 0.45858 0.97532 0.2231 0.0
C790 C 0.47716 -0.00116 0.22081 0.0
C791 C 0.46968 0.9581 0.22789 0.0
C792 C 0.49946 0.96423 0.23031 0.0
C793 C 0.51734 0.98724 0.23091 0.0
C794 C 0.50627 0.00445 0.22618 0.0
C795 C 0.51258 0.94801 0.22653 0.0
C796 C 0.50458 0.92635 0.24426 0.0
C797 C 0.53122 0.95333 0.20399 0.0
C798 C 0.53854 0.97515 0.18359 0.0
C799 C 0.56753 0.99147 0.17755 0.0
C800 C 0.57431 0.01222 0.15859 0.0
C801 C 0.55228 0.01674 0.14546 0.0
C802 C 0.52345 0.00044 0.15116 0.0
C803 C 0.51658 0.97966 0.17001 0.0
H804 H 0.55755 0.03282 0.13083 0.0
H805 H 0.48115 0.82691 0.30881 0.0
H806 H 0.48548 0.41018 0.48238 0.0
H807 H 0.43473 0.40393 0.48947 0.0
H808 H 0.40773 0.33716 0.47015 0.0
H809 H 0.45871 0.34346 0.46259 0.0
H810 H 0.3871 0.3646 0.43956 0.0
H811 H 0.38757 0.34095 0.53033 0.0
H812 H 0.40587 0.34243 0.57314 0.0
H813 H 0.39975 0.40821 0.56767 0.0
H814 H 0.38181 0.40732 0.52464 0.0
H815 H 0.24607 0.36053 0.43831 0.0
H816 H 0.28354 0.34838 0.45713 0.0
H817 H 0.33172 0.41752 0.46813 0.0
H818 H 0.29429 0.42995 0.44926 0.0
H819 H 0.33595 0.3808 0.5079 0.0
H820 H 0.34719 0.40817 0.41429 0.0
H821 H 0.33061 0.40838 0.37065 0.0
H822 H 0.31627 0.33628 0.38155 0.0
H823 H 0.33248 0.33559 0.42545 0.0
C824 C 0.46878 0.39384 0.48035 0.0
C825 C 0.47614 0.3775 0.47147 0.0
C826 C 0.43968 0.39021 0.48461 0.0
C827 C 0.41739 0.37008 0.48029 0.0
C828 C 0.42462 0.35283 0.47355 0.0
C829 C 0.45378 0.35645 0.4693 0.0
C830 C 0.38743 0.36912 0.47856 0.0
C831 C 0.37553 0.3674 0.45486 0.0
C832 C 0.37271 0.37347 0.49821 0.0
C833 C 0.38346 0.37411 0.52414 0.0
C834 C 0.39032 0.35582 0.53815 0.0
C835 C 0.4006 0.35654 0.56249 0.0
C836 C 0.404 0.37541 0.57311 0.0
C837 C 0.39709 0.39359 0.55942 0.0
C838 C 0.38681 0.39297 0.53507 0.0
C839 C 0.26425 0.37305 0.4453 0.0
C840 C 0.26753 0.39637 0.44179 0.0
C841 C 0.28559 0.36602 0.45611 0.0
C842 C 0.31053 0.38216 0.4636 0.0
C843 C 0.31259 0.40484 0.46239 0.0
C844 C 0.29124 0.41193 0.4515 0.0
C845 C 0.33617 0.37653 0.46894 0.0
C846 C 0.34725 0.37724 0.49307 0.0
C847 C 0.35035 0.37137 0.44966 0.0
C848 C 0.34067 0.37174 0.42326 0.0
C849 C 0.34025 0.39231 0.40747 0.0
C850 C 0.33096 0.39252 0.38269 0.0
C851 C 0.32229 0.37233 0.37338 0.0
C852 C 0.32294 0.35189 0.38882 0.0
C853 C 0.33218 0.35158 0.41365 0.0
H854 H 0.31523 0.37257 0.35415 0.0
H855 H 0.41197 0.37593 0.59195 0.0
H856 H 0.15797 0.62712 0.90263 0.0
H857 H 0.12718 0.58546 0.9164 0.0
H858 H 0.06518 0.59471 0.86378 0.0
H859 H 0.09602 0.63627 0.84953 0.0
H860 H 0.06807 0.55175 0.93239 0.0
H861 H 0.06438 0.56727 0.82354 0.0
H862 H 0.09397 0.59452 0.78339 0.0
H863 H 0.17188 0.60547 0.82166 0.0
H864 H 0.14291 0.57786 0.86159 0.0
H865 H 0.98064 0.44063 0.91391 0.0
H866 H 0.003 0.48186 0.91446 0.0
H867 H 0.08007 0.489 0.8708 0.0
H868 H 0.05577 0.44843 0.86755 0.0
H869 H 0.07268 0.52447 0.85273 0.0
H870 H 0.07324 0.48652 0.93988 0.0
H871 H 0.05372 0.45903 0.98242 0.0
H872 H 0.99654 0.49226 0.99349 0.0
H873 H 0.01547 0.51978 0.95085 0.0
C874 C 0.13718 0.6205 0.8948 0.0
C875 C 0.12973 0.63478 0.87449 0.0
C876 C 0.11958 0.59668 0.90277 0.0
C877 C 0.09434 0.58707 0.89065 0.0
C878 C 0.08482 0.60187 0.8731 0.0
C879 C 0.10248 0.6256 0.86495 0.0
C880 C 0.08184 0.56186 0.89171 0.0
C881 C 0.06867 0.5456 0.91506 0.0
C882 C 0.0842 0.55402 0.86935 0.0
C883 C 0.10156 0.57038 0.84529 0.0
C884 C 0.08786 0.57531 0.82316 0.0
C885 C 0.10446 0.59089 0.80055 0.0
C886 C 0.1347 0.60177 0.80002 0.0
C887 C 0.14845 0.59709 0.82208 0.0
C888 C 0.13198 0.58142 0.84465 0.0
C889 C 0.00171 0.45143 0.90342 0.0
C890 C 0.01583 0.44196 0.88947 0.0
C891 C 0.01505 0.47475 0.90456 0.0
C892 C 0.04346 0.48869 0.89284 0.0
C893 C 0.05804 0.47879 0.87973 0.0
C894 C 0.04429 0.45561 0.87801 0.0
C895 C 0.05756 0.51371 0.89345 0.0
C896 C 0.07144 0.53018 0.87025 0.0
C897 C 0.05698 0.52153 0.91637 0.0
C898 C 0.04561 0.50509 0.94207 0.0
C899 C 0.05638 0.48787 0.95132 0.0
C900 C 0.04543 0.4723 0.97545 0.0
C901 C 0.02386 0.47387 0.99062 0.0
C902 C 0.01324 0.49106 0.98171 0.0
C903 C 0.02409 0.50667 0.95757 0.0
H904 H 0.01541 0.46179 0.0093 0.0
H905 H 0.14748 0.6137 0.78247 0.0
H906 H 0.93226 0.54454 0.55242 0.0
H907 H 0.98098 0.55215 0.53503 0.0
H908 H 0.00172 0.52849 0.61184 0.0
H909 H 0.95309 0.52085 0.6294 0.0
H910 H 0.01991 0.58658 0.54908 0.0
H911 H 0.0665 0.52398 0.61107 0.0
H912 H 0.05326 0.48175 0.6273 0.0
H913 H 0.99783 0.46772 0.56625 0.0
H914 H 0.01094 0.50987 0.54947 0.0
H915 H 0.16552 0.64604 0.57215 0.0
H916 H 0.11425 0.61816 0.58019 0.0
H917 H 0.12829 0.58588 0.52123 0.0
H918 H 0.17917 0.61423 0.51265 0.0
H919 H 0.09391 0.55339 0.56845 0.0
H920 H 0.10173 0.62212 0.50447 0.0
H921 H 0.11485 0.66418 0.4869 0.0
H922 H 0.05897 0.66443 0.5479 0.0
H923 H 0.0467 0.62268 0.56636 0.0
C924 C 0.94681 0.54012 0.56552 0.0
C925 C 0.93925 0.53298 0.5924 0.0
C926 C 0.97467 0.54442 0.55552 0.0
C927 C 0.99534 0.54166 0.57223 0.0
C928 C 0.98634 0.53111 0.59857 0.0
C929 C 0.95844 0.52681 0.60863 0.0
C930 C 0.02679 0.55507 0.56368 0.0
C931 C 0.03597 0.57913 0.55298 0.0
C932 C 0.04786 0.54551 0.56896 0.0
C933 C 0.03955 0.5201 0.57912 0.0
C934 C 0.05153 0.5119 0.60106 0.0
C935 C 0.04402 0.48796 0.61038 0.0
C936 C 0.02465 0.47206 0.59786 0.0
C937 C 0.01273 0.48005 0.576 0.0
C938 C 0.02012 0.50396 0.56662 0.0
C939 C 0.15754 0.63288 0.56108 0.0
C940 C 0.17607 0.63175 0.5422 0.0
C941 C 0.12849 0.61695 0.56575 0.0
C942 C 0.11774 0.5999 0.55142 0.0
C943 C 0.13641 0.59866 0.53275 0.0
C944 C 0.16534 0.61472 0.52795 0.0
C945 C 0.08648 0.58463 0.55442 0.0
C946 C 0.07756 0.5605 0.56421 0.0
C947 C 0.06548 0.59401 0.54815 0.0
C948 C 0.07359 0.61933 0.5371 0.0
C949 C 0.0927 0.63124 0.51442 0.0
C950 C 0.10002 0.65507 0.50428 0.0
C951 C 0.08801 0.66708 0.51641 0.0
C952 C 0.06862 0.65527 0.53867 0.0
C953 C 0.06155 0.63156 0.54903 0.0
H954 H 0.09358 0.68549 0.50847 0.0
H955 H 0.01893 0.45354 0.60506 0.0
H956 H 0.40414 0.01288 0.82475 0.0
H957 H 0.45467 0.03132 0.80617 0.0
H958 H 0.46295 0.09572 0.82442 0.0
H959 H 0.41215 0.07737 0.84324 0.0
H960 H 0.49778 0.10026 0.776 0.0
H961 H 0.47945 0.06431 0.86826 0.0
H962 H 0.45374 0.03211 0.90603 0.0
H963 H 0.48142 0.98647 0.87527 0.0
H964 H 0.5071 0.01851 0.83704 0.0
H965 H 0.63762 0.1514 0.81662 0.0
H966 H 0.58824 0.13605 0.8043 0.0
H967 H 0.59469 0.07103 0.80341 0.0
H968 H 0.64407 0.08612 0.81644 0.0
H969 H 0.55173 0.06408 0.83628 0.0
H970 H 0.58105 0.10495 0.74846 0.0
H971 H 0.6067 0.13828 0.71157 0.0
H972 H 0.55962 0.17576 0.73378 0.0
H973 H 0.53396 0.14281 0.77104 0.0
C974 C 0.41642 0.03115 0.82428 0.0
C975 C 0.40436 0.04355 0.83599 0.0
C976 C 0.44523 0.04168 0.81346 0.0
C977 C 0.46249 0.06476 0.81417 0.0
C978 C 0.44983 0.07789 0.82362 0.0
C979 C 0.42089 0.06733 0.83453 0.0
C980 C 0.49446 0.07347 0.80977 0.0
C981 C 0.50977 0.09251 0.7891 0.0
C982 C 0.5098 0.06288 0.82661 0.0
C983 C 0.49485 0.04368 0.8497 0.0
C984 C 0.47986 0.04736 0.86947 0.0
C985 C 0.46531 0.02913 0.89098 0.0
C986 C 0.4658 0.00717 0.89305 0.0
C987 C 0.48099 0.00346 0.87362 0.0
C988 C 0.49557 0.02166 0.85203 0.0
C989 C 0.6289 0.13407 0.8131 0.0
C990 C 0.64451 0.11978 0.81808 0.0
C991 C 0.60066 0.12537 0.80579 0.0
C992 C 0.58767 0.10234 0.80301 0.0
C993 C 0.60427 0.08883 0.80555 0.0
C994 C 0.63249 0.09749 0.813 0.0
C995 C 0.55568 0.09122 0.80245 0.0
C996 C 0.54009 0.07165 0.82254 0.0
C997 C 0.54033 0.1015 0.7851 0.0
C998 C 0.55568 0.12141 0.76267 0.0
C999 C 0.57631 0.12037 0.74561 0.0
C1000 C 0.59083 0.13919 0.7246 0.0
C1001 C 0.58482 0.15914 0.72035 0.0
C1002 C 0.56424 0.16029 0.73709 0.0
C1003 C 0.54966 0.14152 0.75814 0.0
H1004 H 0.59609 0.17369 0.70407 0.0
H1005 H 0.4545 0.99306 0.90971 0.0
H1006 H 0.47096 0.34105 0.09949 0.0
H1007 H 0.48969 0.38378 0.091 0.0
H1008 H 0.4264 0.37758 0.15027 0.0
H1009 H 0.40737 0.33494 0.15819 0.0
H1010 H 0.45944 0.40822 0.07322 0.0
H1011 H 0.44589 0.4205 0.1744 0.0
H1012 H 0.45858 0.41172 0.21922 0.0
H1013 H 0.53148 0.4008 0.19179 0.0
H1014 H 0.51931 0.40982 0.14679 0.0
H1015 H 0.44037 0.51242 0.06648 0.0
H1016 H 0.43564 0.47198 0.08075 0.0
H1017 H 0.52601 0.4965 0.09564 0.0
H1018 H 0.53072 0.5371 0.08132 0.0
H1019 H 0.48707 0.45862 0.13563 0.0
H1020 H 0.51171 0.47938 0.04383 0.0
H1021 H 0.50677 0.49521 0.99829 0.0
H1022 H 0.41954 0.44314 0.00547 0.0
H1023 H 0.42381 0.4272 0.05119 0.0
C1024 C 0.46128 0.34893 0.11074 0.0
C1025 C 0.43824 0.33493 0.12988 0.0
C1026 C 0.47213 0.37324 0.10612 0.0
C1027 C 0.45994 0.38391 0.12045 0.0
C1028 C 0.43685 0.36981 0.13961 0.0
C1029 C 0.42598 0.3455 0.14413 0.0
C1030 C 0.46823 0.40946 0.11267 0.0
C1031 C 0.46571 0.41921 0.08689 0.0
C1032 C 0.4764 0.42392 0.13039 0.0
C1033 C 0.48146 0.41547 0.15739 0.0
C1034 C 0.46439 0.41592 0.17804 0.0
C1035 C 0.47156 0.411 0.20342 0.0
C1036 C 0.49573 0.40554 0.20837 0.0
C1037 C 0.51261 0.40479 0.18795 0.0
C1038 C 0.5055 0.4097 0.16252 0.0
C1039 C 0.45906 0.50909 0.07307 0.0
C1040 C 0.48578 0.52763 0.07312 0.0
C1041 C 0.45642 0.4861 0.08106 0.0
C1042 C 0.4805 0.48136 0.08917 0.0
C1043 C 0.50721 0.49989 0.08947 0.0
C1044 C 0.50993 0.52295 0.08115 0.0
C1045 C 0.47783 0.457 0.09646 0.0
C1046 C 0.48109 0.44754 0.12203 0.0
C1047 C 0.47059 0.44281 0.07853 0.0
C1048 C 0.46801 0.45222 0.05098 0.0
C1049 C 0.4914 0.47141 0.03575 0.0
C1050 C 0.48873 0.48039 0.0099 0.0
C1051 C 0.46284 0.47022 0.99901 0.0
C1052 C 0.43958 0.45101 0.01394 0.0
C1053 C 0.44212 0.44198 0.03981 0.0
H1054 H 0.46081 0.4772 0.97899 0.0
H1055 H 0.5014 0.40194 0.22801 0.0
H1056 H 0.45028 0.25805 0.25028 0.0
H1057 H 0.44456 0.21842 0.27114 0.0
H1058 H 0.51137 0.22391 0.21578 0.0
H1059 H 0.51778 0.26363 0.19547 0.0
H1060 H 0.42336 0.18551 0.24917 0.0
H1061 H 0.53915 0.18683 0.23119 0.0
H1062 H 0.58974 0.21059 0.23765 0.0
H1063 H 0.55901 0.23282 0.29796 0.0
H1064 H 0.50826 0.20877 0.29223 0.0
H1065 H 0.42586 0.099 0.19432 0.0
H1066 H 0.43292 0.13417 0.20855 0.0
H1067 H 0.4591 0.10627 0.28104 0.0
H1068 H 0.45217 0.07071 0.26678 0.0
H1069 H 0.49699 0.15118 0.25865 0.0
H1070 H 0.39625 0.11187 0.28298 0.0
H1071 H 0.34489 0.0879 0.27919 0.0
H1072 H 0.34394 0.14029 0.21359 0.0
H1073 H 0.39541 0.16444 0.21672 0.0
C1074 C 0.46433 0.25103 0.24302 0.0
C1075 C 0.48405 0.26377 0.22086 0.0
C1076 C 0.46104 0.22836 0.255 0.0
C1077 C 0.47742 0.21804 0.24506 0.0
C1078 C 0.49881 0.2315 0.22424 0.0
C1079 C 0.50228 0.25423 0.2124 0.0
C1080 C 0.46869 0.19237 0.25291 0.0
C1081 C 0.43942 0.17798 0.2518 0.0
C1082 C 0.48934 0.18227 0.25715 0.0
C1083 C 0.51989 0.19618 0.26111 0.0
C1084 C 0.54319 0.19664 0.24597 0.0
C1085 C 0.5719 0.21018 0.24948 0.0
C1086 C 0.57759 0.22326 0.26815 0.0
C1087 C 0.55459 0.22274 0.28345 0.0
C1088 C 0.52585 0.20919 0.28005 0.0
C1089 C 0.43284 0.10016 0.21341 0.0
C1090 C 0.43851 0.08209 0.22941 0.0
C1091 C 0.4367 0.12024 0.22159 0.0
C1092 C 0.44623 0.1227 0.24596 0.0
C1093 C 0.45158 0.1046 0.26222 0.0
C1094 C 0.44751 0.08432 0.25408 0.0
C1095 C 0.4522 0.14498 0.25322 0.0
C1096 C 0.48085 0.15865 0.25706 0.0
C1097 C 0.43086 0.15435 0.25208 0.0
C1098 C 0.39977 0.13998 0.2501 0.0
C1099 C 0.38515 0.11824 0.26766 0.0
C1100 C 0.356 0.10462 0.26563 0.0
C1101 C 0.34117 0.11257 0.24616 0.0
C1102 C 0.35545 0.13417 0.22869 0.0
C1103 C 0.38461 0.14786 0.23062 0.0
H1104 H 0.3186 0.10199 0.24462 0.0
H1105 H 0.59983 0.23377 0.2708 0.0
H1106 H 0.15895 0.56363 0.51096 0.0
H1107 H 0.13621 0.53195 0.48911 0.0
H1108 H 0.21961 0.5289 0.47681 0.0
H1109 H 0.24247 0.56116 0.49726 0.0
H1110 H 0.19355 0.52333 0.43653 0.0
H1111 H 0.16355 0.49052 0.52931 0.0
H1112 H 0.13939 0.48843 0.57076 0.0
H1113 H 0.05865 0.4756 0.53661 0.0
H1114 H 0.08244 0.47779 0.49489 0.0
H1115 H 0.15593 0.39723 0.46645 0.0
H1116 H 0.14772 0.42756 0.48157 0.0
H1117 H 0.12989 0.45501 0.40494 0.0
H1118 H 0.13925 0.42515 0.38936 0.0
H1119 H 0.11323 0.45031 0.48451 0.0
H1120 H 0.17175 0.51244 0.3882 0.0
H1121 H 0.20069 0.51367 0.3499 0.0
H1122 H 0.23217 0.46612 0.39681 0.0
H1123 H 0.20378 0.46491 0.43541 0.0
C1124 C 0.1724 0.55631 0.50331 0.0
C1125 C 0.20246 0.5648 0.50587 0.0
C1126 C 0.15937 0.53813 0.49096 0.0
C1127 C 0.17607 0.52774 0.48162 0.0
C1128 C 0.20621 0.53664 0.48372 0.0
C1129 C 0.21929 0.55507 0.4955 0.0
C1130 C 0.16263 0.50711 0.47041 0.0
C1131 C 0.17569 0.5075 0.44689 0.0
C1132 C 0.13922 0.48639 0.48377 0.0
C1133 C 0.12482 0.48455 0.50896 0.0
C1134 C 0.14067 0.48731 0.53065 0.0
C1135 C 0.12705 0.48611 0.55417 0.0
C1136 C 0.09753 0.48195 0.55629 0.0
C1137 C 0.08152 0.47886 0.53492 0.0
C1138 C 0.09505 0.48005 0.51135 0.0
C1139 C 0.1492 0.40914 0.45296 0.0
C1140 C 0.14921 0.4093 0.42651 0.0
C1141 C 0.14436 0.42648 0.46171 0.0
C1142 C 0.13915 0.44401 0.44419 0.0
C1143 C 0.13458 0.44195 0.41865 0.0
C1144 C 0.13993 0.42486 0.40977 0.0
C1145 C 0.14495 0.46642 0.45123 0.0
C1146 C 0.13044 0.4664 0.47381 0.0
C1147 C 0.16771 0.48737 0.43749 0.0
C1148 C 0.18538 0.48838 0.41455 0.0
C1149 C 0.18494 0.50233 0.39031 0.0
C1150 C 0.20124 0.50302 0.36858 0.0
C1151 C 0.21818 0.48993 0.37091 0.0
C1152 C 0.21899 0.47621 0.39502 0.0
C1153 C 0.20283 0.47553 0.41683 0.0
H1154 H 0.23075 0.49049 0.35406 0.0
H1155 H 0.08705 0.48108 0.5745 0.0
H1156 H 0.77273 0.19857 0.79133 0.0
H1157 H 0.79419 0.24115 0.78578 0.0
H1158 H 0.77871 0.23188 0.868 0.0
H1159 H 0.75775 0.18975 0.87381 0.0
H1160 H 0.75928 0.26457 0.83681 0.0
H1161 H 0.84417 0.24398 0.84387 0.0
H1162 H 0.87702 0.22794 0.82893 0.0
H1163 H 0.89396 0.27622 0.75476 0.0
H1164 H 0.86091 0.29234 0.76921 0.0
H1165 H 0.84851 0.35345 0.89124 0.0
H1166 H 0.81877 0.31946 0.87556 0.0
H1167 H 0.86423 0.35313 0.79925 0.0
H1168 H 0.89464 0.38707 0.81502 0.0
H1169 H 0.86495 0.31216 0.81378 0.0
H1170 H 0.79039 0.33953 0.81008 0.0
H1171 H 0.75775 0.35625 0.82375 0.0
H1172 H 0.72009 0.29689 0.88819 0.0
H1173 H 0.7528 0.27995 0.87517 0.0
C1174 C 0.77416 0.20564 0.80821 0.0
C1175 C 0.76354 0.19078 0.833 0.0
C1176 C 0.78627 0.22991 0.80499 0.0
C1177 C 0.78767 0.23953 0.82647 0.0
C1178 C 0.77748 0.22473 0.85117 0.0
C1179 C 0.76572 0.20063 0.85444 0.0
C1180 C 0.80019 0.265 0.82387 0.0
C1181 C 0.78236 0.27512 0.83171 0.0
C1182 C 0.82998 0.27883 0.81607 0.0
C1183 C 0.8498 0.26913 0.80748 0.0
C1184 C 0.8547 0.25102 0.8243 0.0
C1185 C 0.8734 0.24195 0.81595 0.0
C1186 C 0.88749 0.251 0.79088 0.0
C1187 C 0.88298 0.26919 0.77415 0.0
C1188 C 0.86428 0.2783 0.78241 0.0
C1189 C 0.85179 0.35385 0.871 0.0
C1190 C 0.87416 0.3728 0.85447 0.0
C1191 C 0.83461 0.33445 0.86197 0.0
C1192 C 0.83915 0.33378 0.83615 0.0
C1193 C 0.86038 0.35326 0.81923 0.0
C1194 C 0.87773 0.37262 0.8283 0.0
C1195 C 0.82433 0.31165 0.82803 0.0
C1196 C 0.84168 0.30207 0.81811 0.0
C1197 C 0.79399 0.29842 0.83363 0.0
C1198 C 0.77418 0.30849 0.84166 0.0
C1199 C 0.7753 0.3301 0.82727 0.0
C1200 C 0.75675 0.33961 0.8349 0.0
C1201 C 0.73687 0.32765 0.85684 0.0
C1202 C 0.73549 0.30613 0.87119 0.0
C1203 C 0.754 0.29654 0.86366 0.0
H1204 H 0.72253 0.33504 0.86271 0.0
H1205 H 0.90196 0.24396 0.78445 0.0
H1206 H 0.4087 0.60907 0.09158 0.0
H1207 H 0.42652 0.6473 0.10158 0.0
H1208 H 0.46417 0.62191 0.16797 0.0
H1209 H 0.44653 0.58346 0.15809 0.0
H1210 H 0.44007 0.658 0.17221 0.0
H1211 H 0.50747 0.64327 0.1208 0.0
H1212 H 0.52071 0.62919 0.08515 0.0
H1213 H 0.49931 0.67874 0.02993 0.0
H1214 H 0.4854 0.69281 0.06535 0.0
H1215 H 0.55036 0.77188 0.1707 0.0
H1216 H 0.5247 0.72992 0.17388 0.0
H1217 H 0.49627 0.74474 0.09802 0.0
H1218 H 0.52205 0.78641 0.09449 0.0
H1219 H 0.51739 0.71225 0.10246 0.0
H1220 H 0.45028 0.72742 0.15326 0.0
H1221 H 0.43536 0.74099 0.18859 0.0
H1222 H 0.45545 0.6912 0.24467 0.0
H1223 H 0.47089 0.67754 0.20962 0.0
C1224 C 0.42006 0.61136 0.10873 0.0
C1225 C 0.42685 0.59344 0.12369 0.0
C1226 C 0.43013 0.6332 0.11445 0.0
C1227 C 0.44697 0.63739 0.13525 0.0
C1228 C 0.45123 0.61893 0.15181 0.0
C1229 C 0.44132 0.59705 0.14601 0.0
C1230 C 0.46403 0.66167 0.13681 0.0
C1231 C 0.45726 0.66987 0.15722 0.0
C1232 C 0.48625 0.67702 0.1171 0.0
C1233 C 0.49513 0.66892 0.09573 0.0
C1234 C 0.50536 0.65103 0.10107 0.0
C1235 C 0.51301 0.64306 0.08091 0.0
C1236 C 0.51079 0.65302 0.05529 0.0
C1237 C 0.50099 0.67102 0.04979 0.0
C1238 C 0.49323 0.679 0.0699 0.0
C1239 C 0.53868 0.76617 0.1547 0.0
C1240 C 0.53831 0.78247 0.13232 0.0
C1241 C 0.52388 0.74221 0.15662 0.0
C1242 C 0.50839 0.73425 0.13627 0.0
C1243 C 0.50811 0.75052 0.11395 0.0
C1244 C 0.52288 0.77436 0.11198 0.0
C1245 C 0.4931 0.70901 0.13757 0.0
C1246 C 0.50036 0.70049 0.11764 0.0
C1247 C 0.47139 0.6935 0.15774 0.0
C1248 C 0.46206 0.70165 0.17881 0.0
C1249 C 0.45176 0.7195 0.17311 0.0
C1250 C 0.44316 0.72718 0.19309 0.0
C1251 C 0.44455 0.71701 0.21885 0.0
C1252 C 0.45445 0.69909 0.2247 0.0
C1253 C 0.46311 0.69137 0.20479 0.0
H1254 H 0.43787 0.72298 0.23429 0.0
H1255 H 0.51672 0.64684 0.0397 0.0
H1256 H 0.85508 0.56174 0.51005 0.0
H1257 H 0.81138 0.54808 0.48807 0.0
H1258 H 0.76471 0.56517 0.54303 0.0
H1259 H 0.80831 0.57782 0.56601 0.0
H1260 H 0.73489 0.52404 0.54079 0.0
H1261 H 0.77775 0.59297 0.47524 0.0
H1262 H 0.81542 0.62503 0.44353 0.0
H1263 H 0.81998 0.57635 0.40149 0.0
H1264 H 0.78264 0.54391 0.43314 0.0
H1265 H 0.61169 0.47655 0.46859 0.0
H1266 H 0.65141 0.50724 0.48304 0.0
H1267 H 0.71188 0.47934 0.46317 0.0
H1268 H 0.67228 0.44829 0.4494 0.0
H1269 H 0.72918 0.5325 0.44627 0.0
H1270 H 0.69204 0.46382 0.52027 0.0
H1271 H 0.65251 0.43349 0.55192 0.0
H1272 H 0.63494 0.48646 0.57709 0.0
H1273 H 0.67414 0.51709 0.54529 0.0
C1274 C 0.83575 0.56315 0.51713 0.0
C1275 C 0.83506 0.57063 0.53993 0.0
C1276 C 0.8107 0.55547 0.50437 0.0
C1277 C 0.78462 0.55569 0.51371 0.0
C1278 C 0.78448 0.56472 0.53548 0.0
C1279 C 0.80944 0.57201 0.54856 0.0
C1280 C 0.75697 0.54361 0.50286 0.0
C1281 C 0.7335 0.52647 0.52008 0.0
C1282 C 0.75488 0.54652 0.47585 0.0
C1283 C 0.77744 0.56596 0.45669 0.0
C1284 C 0.78692 0.58905 0.45934 0.0
C1285 C 0.8082 0.60731 0.44135 0.0
C1286 C 0.82011 0.60273 0.42053 0.0
C1287 C 0.81073 0.57987 0.41763 0.0
C1288 C 0.78945 0.56154 0.43557 0.0
C1289 C 0.63349 0.47705 0.4672 0.0
C1290 C 0.63893 0.45998 0.45804 0.0
C1291 C 0.65608 0.49458 0.47539 0.0
C1292 C 0.68446 0.49551 0.474 0.0
C1293 C 0.69008 0.4789 0.4642 0.0
C1294 C 0.66744 0.46111 0.45655 0.0
C1295 C 0.70815 0.51285 0.48423 0.0
C1296 C 0.73064 0.53079 0.4669 0.0
C1297 C 0.70913 0.5111 0.51107 0.0
C1298 C 0.6857 0.49269 0.5302 0.0
C1299 C 0.67954 0.46897 0.53237 0.0
C1300 C 0.65725 0.45174 0.55037 0.0
C1301 C 0.64115 0.45804 0.56644 0.0
C1302 C 0.64737 0.4816 0.56459 0.0
C1303 C 0.66962 0.4989 0.54659 0.0
H1304 H 0.62391 0.44468 0.58037 0.0
H1305 H 0.83659 0.61689 0.40662 0.0
H1306 H 0.27688 0.76357 0.78016 0.0
H1307 H 0.29701 0.80376 0.7851 0.0
H1308 H 0.21354 0.79336 0.81958 0.0
H1309 H 0.19322 0.75319 0.81476 0.0
H1310 H 0.24211 0.83728 0.78473 0.0
H1311 H 0.26188 0.787 0.85795 0.0
H1312 H 0.2814 0.7582 0.87841 0.0
H1313 H 0.36712 0.80508 0.8431 0.0
H1314 H 0.348 0.83404 0.82213 0.0
H1315 H 0.27539 0.92134 0.85938 0.0
H1316 H 0.25854 0.88633 0.84248 0.0
H1317 H 0.34748 0.89937 0.82033 0.0
H1318 H 0.36452 0.93408 0.83774 0.0
H1319 H 0.31924 0.85568 0.84466 0.0
H1320 H 0.30139 0.90774 0.77477 0.0
H1321 H 0.28267 0.93679 0.75342 0.0
H1322 H 0.19511 0.88776 0.78046 0.0
H1323 H 0.21333 0.8585 0.8023 0.0
C1324 C 0.26271 0.76993 0.78849 0.0
C1325 C 0.23355 0.75517 0.79735 0.0
C1326 C 0.27425 0.79285 0.79131 0.0
C1327 C 0.25678 0.80136 0.80291 0.0
C1328 C 0.22733 0.78705 0.81058 0.0
C1329 C 0.21582 0.76409 0.80795 0.0
C1330 C 0.26958 0.82454 0.80882 0.0
C1331 C 0.25885 0.84135 0.79794 0.0
C1332 C 0.29194 0.8299 0.82551 0.0
C1333 C 0.30346 0.81256 0.83824 0.0
C1334 C 0.28485 0.79109 0.85438 0.0
C1335 C 0.29584 0.77475 0.8661 0.0
C1336 C 0.32547 0.77978 0.86199 0.0
C1337 C 0.34417 0.80119 0.84622 0.0
C1338 C 0.33327 0.81758 0.83443 0.0
C1339 C 0.29135 0.91684 0.85076 0.0
C1340 C 0.32128 0.93043 0.84996 0.0
C1341 C 0.28168 0.89691 0.84095 0.0
C1342 C 0.30175 0.8904 0.82986 0.0
C1343 C 0.33163 0.9041 0.82878 0.0
C1344 C 0.34131 0.92393 0.83874 0.0
C1345 C 0.29163 0.86856 0.82077 0.0
C1346 C 0.3028 0.85189 0.83114 0.0
C1347 C 0.26984 0.86345 0.80345 0.0
C1348 C 0.25876 0.88099 0.79037 0.0
C1349 C 0.27816 0.90321 0.77635 0.0
C1350 C 0.26763 0.9197 0.76412 0.0
C1351 C 0.23773 0.91414 0.76563 0.0
C1352 C 0.21828 0.89205 0.77933 0.0
C1353 C 0.22869 0.87549 0.79161 0.0
H1354 H 0.22962 0.92693 0.75614 0.0
H1355 H 0.33394 0.76711 0.87109 0.0
loop_
_geom_bond_atom_site_label_1
_geom_bond_atom_site_label_2
_geom_bond_distance
_geom_bond_site_symmetry_2
_ccdc_geom_bond_type
C0 O1 1.160 . S
C0 O7 1.185 . S
O1 C0 1.160 . S
O2 Zn3 1.899 . S
O2 C10 1.284 . S
Zn3 O2 1.899 . S
Zn3 O4 2.032 . S
Zn3 O7 2.086 . S
Zn3 O12 1.977 . S
O4 Zn3 2.032 . S
O4 C8 1.278 . S
C5 O6 1.203 . S
C5 O12 1.267 . S
O6 C5 1.203 . S
O7 C0 1.185 . S
O7 Zn3 2.086 . S
C8 O4 1.278 . S
C8 O9 1.211 . S
O9 C8 1.211 . S
C10 O2 1.284 . S
C10 O11 1.273 . S
O11 C10 1.273 . S
O12 Zn3 1.977 . S
O12 C5 1.267 . S
C13 O14 1.160 . S
C13 O20 1.185 . S
O14 C13 1.160 . S
O15 Zn16 1.899 . S
O15 C23 1.284 . S
Zn16 O15 1.899 . S
Zn16 O17 2.032 . S
Zn16 O20 2.086 . S
Zn16 O25 1.977 . S
O17 Zn16 2.032 . S
O17 C21 1.278 . S
C18 O19 1.203 . S
C18 O25 1.267 . S
O19 C18 1.203 . S
O20 C13 1.185 . S
O20 Zn16 2.086 . S
C21 O17 1.278 . S
C21 O22 1.211 . S
O22 C21 1.211 . S
C23 O15 1.284 . S
C23 O24 1.273 . S
O24 C23 1.273 . S
O25 Zn16 1.977 . S
O25 C18 1.267 . S
C26 O27 1.160 . S
C26 O33 1.185 . S
O27 C26 1.160 . S
O28 Zn29 1.899 . S
O28 C36 1.284 . S
Zn29 O28 1.899 . S
Zn29 O30 2.032 . S
Zn29 O33 2.086 . S
Zn29 O38 1.977 . S
O30 Zn29 2.032 . S
O30 C34 1.278 . S
C31 O32 1.203 . S
C31 O38 1.267 . S
O32 C31 1.203 . S
O33 C26 1.185 . S
O33 Zn29 2.086 . S
C34 O30 1.278 . S
C34 O35 1.211 . S
O35 C34 1.211 . S
C36 O28 1.284 . S
C36 O37 1.273 . S
O37 C36 1.273 . S
O38 Zn29 1.977 . S
O38 C31 1.267 . S
C39 O40 1.160 . S
C39 O46 1.185 . S
O40 C39 1.160 . S
O41 Zn42 1.899 . S
O41 C49 1.284 . S
Zn42 O41 1.899 . S
Zn42 O43 2.032 . S
Zn42 O46 2.086 . S
Zn42 O51 1.977 . S
O43 Zn42 2.032 . S
O43 C47 1.278 . S
C44 O45 1.203 . S
C44 O51 1.267 . S
O45 C44 1.203 . S
O46 C39 1.185 . S
O46 Zn42 2.086 . S
C47 O43 1.278 . S
C47 O48 1.211 . S
O48 C47 1.211 . S
C49 O41 1.284 . S
C49 O50 1.273 . S
O50 C49 1.273 . S
O51 Zn42 1.977 . S
O51 C44 1.267 . S
C52 O53 1.160 . S
C52 O59 1.185 . S
O53 C52 1.160 . S
O54 Zn55 1.899 . S
O54 C62 1.284 . S
Zn55 O54 1.899 . S
Zn55 O56 2.032 . S
Zn55 O59 2.086 . S
Zn55 O64 1.977 . S
O56 Zn55 2.032 . S
O56 C60 1.278 . S
C57 O58 1.203 . S
C57 O64 1.267 . S
O58 C57 1.203 . S
O59 C52 1.185 . S
O59 Zn55 2.086 . S
C60 O56 1.278 . S
C60 O61 1.211 . S
O61 C60 1.211 . S
C62 O54 1.284 . S
C62 O63 1.273 . S
O63 C62 1.273 . S
O64 Zn55 1.977 . S
O64 C57 1.267 . S
C65 O66 1.160 . S
C65 O72 1.185 . S
O66 C65 1.160 . S
O67 Zn68 1.899 . S
O67 C75 1.284 . S
Zn68 O67 1.899 . S
Zn68 O69 2.032 . S
Zn68 O72 2.086 . S
Zn68 O77 1.977 . S
O69 Zn68 2.032 . S
O69 C73 1.278 . S
C70 O71 1.203 . S
C70 O77 1.267 . S
O71 C70 1.203 . S
O72 C65 1.185 . S
O72 Zn68 2.086 . S
C73 O69 1.278 . S
C73 O74 1.211 . S
O74 C73 1.211 . S
C75 O67 1.284 . S
C75 O76 1.273 . S
O76 C75 1.273 . S
O77 Zn68 1.977 . S
O77 C70 1.267 . S
C78 O79 1.160 . S
C78 O85 1.185 . S
O79 C78 1.160 . S
O80 Zn81 1.899 . S
O80 C88 1.284 . S
Zn81 O80 1.899 . S
Zn81 O82 2.032 . S
Zn81 O85 2.086 . S
Zn81 O90 1.977 . S
O82 Zn81 2.032 . S
O82 C86 1.278 . S
C83 O84 1.203 . S
C83 O90 1.267 . S
O84 C83 1.203 . S
O85 C78 1.185 . S
O85 Zn81 2.086 . S
C86 O82 1.278 . S
C86 O87 1.211 . S
O87 C86 1.211 . S
C88 O80 1.284 . S
C88 O89 1.273 . S
O89 C88 1.273 . S
O90 Zn81 1.977 . S
O90 C83 1.267 . S
C91 O92 1.160 . S
C91 O98 1.185 . S
O92 C91 1.160 . S
O93 Zn94 1.899 . S
O93 C101 1.284 . S
Zn94 O93 1.899 . S
Zn94 O95 2.032 . S
Zn94 O98 2.086 . S
Zn94 O103 1.977 . S
O95 Zn94 2.032 . S
O95 C99 1.278 . S
C96 O97 1.203 . S
C96 O103 1.267 . S
O97 C96 1.203 . S
O98 C91 1.185 . S
O98 Zn94 2.086 . S
C99 O95 1.278 . S
C99 O100 1.211 . S
O100 C99 1.211 . S
C101 O93 1.284 . S
C101 O102 1.273 . S
O102 C101 1.273 . S
O103 Zn94 1.977 . S
O103 C96 1.267 . S
C104 O105 1.160 . S
C104 O111 1.185 . S
O105 C104 1.160 . S
O106 Zn107 1.899 . S
O106 C114 1.284 . S
Zn107 O106 1.899 . S
Zn107 O108 2.032 . S
Zn107 O111 2.086 . S
Zn107 O116 1.977 . S
O108 Zn107 2.032 . S
O108 C112 1.278 . S
C109 O110 1.203 . S
C109 O116 1.267 . S
O110 C109 1.203 . S
O111 C104 1.185 . S
O111 Zn107 2.086 . S
C112 O108 1.278 . S
C112 O113 1.211 . S
O113 C112 1.211 . S
C114 O106 1.284 . S
C114 O115 1.273 . S
O115 C114 1.273 . S
O116 Zn107 1.977 . S
O116 C109 1.267 . S
C117 O118 1.160 . S
C117 O124 1.185 . S
O118 C117 1.160 . S
O119 Zn120 1.899 . S
O119 C127 1.284 . S
Zn120 O119 1.899 . S
Zn120 O121 2.032 . S
Zn120 O124 2.086 . S
Zn120 O129 1.977 . S
O121 Zn120 2.032 . S
O121 C125 1.278 . S
C122 O123 1.203 . S
C122 O129 1.267 . S
O123 C122 1.203 . S
O124 C117 1.185 . S
O124 Zn120 2.086 . S
C125 O121 1.278 . S
C125 O126 1.211 . S
O126 C125 1.211 . S
C127 O119 1.284 . S
C127 O128 1.273 . S
O128 C127 1.273 . S
O129 Zn120 1.977 . S
O129 C122 1.267 . S
C130 O131 1.160 . S
C130 O137 1.185 . S
O131 C130 1.160 . S
O132 Zn133 1.899 . S
O132 C140 1.284 . S
Zn133 O132 1.899 . S
Zn133 O134 2.032 . S
Zn133 O137 2.086 . S
Zn133 O142 1.977 . S
O134 Zn133 2.032 . S
O134 C138 1.278 . S
C135 O136 1.203 . S
C135 O142 1.267 . S
O136 C135 1.203 . S
O137 C130 1.185 . S
O137 Zn133 2.086 . S
C138 O134 1.278 . S
C138 O139 1.211 . S
O139 C138 1.211 . S
C140 O132 1.284 . S
C140 O141 1.273 . S
O141 C140 1.273 . S
O142 Zn133 1.977 . S
O142 C135 1.267 . S
C143 O144 1.160 . S
C143 O150 1.185 . S
O144 C143 1.160 . S
O145 Zn146 1.899 . S
O145 C153 1.284 . S
Zn146 O145 1.899 . S
Zn146 O147 2.032 . S
Zn146 O150 2.086 . S
Zn146 O155 1.977 . S
O147 Zn146 2.032 . S
O147 C151 1.278 . S
C148 O149 1.203 . S
C148 O155 1.267 . S
O149 C148 1.203 . S
O150 C143 1.185 . S
O150 Zn146 2.086 . S
C151 O147 1.278 . S
C151 O152 1.211 . S
O152 C151 1.211 . S
C153 O145 1.284 . S
C153 O154 1.273 . S
O154 C153 1.273 . S
O155 Zn146 1.977 . S
O155 C148 1.267 . S
H156 C174 0.951 . S
H157 C176 0.951 . S
H158 C178 0.950 . S
H159 C179 0.950 . S
H160 C181 0.950 . S
H161 C184 0.949 . S
H162 C185 0.952 . S
H163 C187 0.950 . S
H164 C188 0.950 . S
H165 C189 0.951 . S
H166 C191 0.951 . S
H167 C193 0.950 . S
H168 C194 0.950 . S
H169 C196 0.950 . S
H170 C199 0.950 . S
H171 C200 0.950 . S
H172 C202 0.950 . S
H173 C203 0.950 . S
C174 H156 0.951 . S
C174 C175 1.366 . S
C174 C176 1.388 . S
C175 C174 1.366 . S
C175 C179 1.385 . S
C176 H157 0.951 . S
C176 C174 1.388 . S
C176 C177 1.366 . S
C177 C176 1.366 . S
C177 C178 1.414 . S
C177 C180 1.499 . S
C178 H158 0.950 . S
C178 C177 1.414 . S
C178 C179 1.374 . S
C179 H159 0.950 . S
C179 C175 1.385 . S
C179 C178 1.374 . S
C180 C177 1.499 . S
C180 C181 1.373 . S
C180 C182 1.390 . S
C181 H160 0.950 . S
C181 C180 1.373 . S
C181 C197 1.377 . S
C182 C180 1.390 . S
C182 C183 1.524 1_554 S
C182 C196 1.376 1_554 S
C183 C182 1.524 1_556 S
C183 C184 1.397 1_556 S
C183 C188 1.363 . S
C184 H161 0.949 . S
C184 C183 1.397 1_554 S
C184 C185 1.335 1_554 S
C185 H162 0.952 . S
C185 C184 1.335 1_556 S
C185 C186 1.287 . S
C186 C185 1.287 . S
C186 C187 1.524 . S
C186 H205 0.913 . S
C187 H163 0.950 . S
C187 C186 1.524 . S
C187 C188 1.415 . S
C188 H164 0.950 . S
C188 C183 1.363 . S
C188 C187 1.415 . S
C189 H165 0.951 . S
C189 C190 1.366 . S
C189 C191 1.388 . S
C190 C189 1.366 . S
C190 C194 1.385 . S
C191 H166 0.951 . S
C191 C189 1.388 . S
C191 C192 1.366 . S
C192 C191 1.366 . S
C192 C193 1.414 . S
C192 C195 1.499 . S
C193 H167 0.950 . S
C193 C192 1.414 . S
C193 C194 1.374 . S
C194 H168 0.950 . S
C194 C190 1.385 . S
C194 C193 1.374 . S
C195 C192 1.499 . S
C195 C196 1.373 . S
C195 C197 1.389 1_556 S
C196 H169 0.950 . S
C196 C182 1.376 1_556 S
C196 C195 1.373 . S
C197 C181 1.377 . S
C197 C195 1.389 1_554 S
C197 C198 1.524 . S
C198 C197 1.524 . S
C198 C199 1.397 . S
C198 C203 1.363 . S
C199 H170 0.950 . S
C199 C198 1.397 . S
C199 C200 1.334 . S
C200 H171 0.950 . S
C200 C199 1.334 . S
C200 C201 1.287 . S
C201 C200 1.287 . S
C201 C202 1.524 . S
C201 H204 0.999 . S
C202 H172 0.950 . S
C202 C201 1.524 . S
C202 C203 1.415 . S
C203 H173 0.950 . S
C203 C198 1.363 . S
C203 C202 1.415 . S
H204 C201 0.999 . S
H205 C186 0.913 . S
H206 C224 0.951 . S
H207 C226 0.951 . S
H208 C228 0.950 . S
H209 C229 0.950 . S
H210 C231 0.950 . S
H211 C234 0.950 . S
H212 C235 0.950 . S
H213 C237 0.950 . S
H214 C238 0.950 . S
H215 C239 0.951 . S
H216 C241 0.951 . S
H217 C243 0.950 . S
H218 C244 0.950 . S
H219 C246 0.950 . S
H220 C249 0.950 . S
H221 C250 0.950 . S
H222 C252 0.950 . S
H223 C253 0.950 . S
C224 H206 0.951 . S
C224 C225 1.366 . S
C224 C226 1.388 . S
C225 C224 1.366 . S
C225 C229 1.385 . S
C226 H207 0.951 . S
C226 C224 1.388 . S
C226 C227 1.366 . S
C227 C226 1.366 . S
C227 C228 1.414 . S
C227 C230 1.499 . S
C228 H208 0.950 . S
C228 C227 1.414 . S
C228 C229 1.374 . S
C229 H209 0.950 . S
C229 C225 1.385 . S
C229 C228 1.374 . S
C230 C227 1.499 . S
C230 C231 1.373 . S
C230 C232 1.389 . S
C231 H210 0.950 . S
C231 C230 1.373 . S
C231 C247 1.377 . S
C232 C230 1.389 . S
C232 C233 1.524 . S
C232 C246 1.377 . S
C233 C232 1.524 . S
C233 C234 1.397 . S
C233 C238 1.363 . S
C234 H211 0.950 . S
C234 C233 1.397 . S
C234 C235 1.334 . S
C235 H212 0.950 . S
C235 C234 1.334 . S
C235 C236 1.287 . S
C236 C235 1.287 . S
C236 C237 1.524 . S
C236 H255 0.913 . S
C237 H213 0.950 . S
C237 C236 1.524 . S
C237 C238 1.415 . S
C238 H214 0.950 . S
C238 C233 1.363 . S
C238 C237 1.415 . S
C239 H215 0.951 . S
C239 C240 1.366 . S
C239 C241 1.388 . S
C240 C239 1.366 . S
C240 C244 1.385 . S
C241 H216 0.951 . S
C241 C239 1.388 . S
C241 C242 1.366 . S
C242 C241 1.366 . S
C242 C243 1.414 . S
C242 C245 1.499 . S
C243 H217 0.950 . S
C243 C242 1.414 . S
C243 C244 1.374 . S
C244 H218 0.950 . S
C244 C240 1.385 . S
C244 C243 1.374 . S
C245 C242 1.499 . S
C245 C246 1.373 . S
C245 C247 1.389 . S
C246 H219 0.950 . S
C246 C232 1.377 . S
C246 C245 1.373 . S
C247 C231 1.377 . S
C247 C245 1.389 . S
C247 C248 1.524 . S
C248 C247 1.524 . S
C248 C249 1.397 . S
C248 C253 1.363 . S
C249 H220 0.950 . S
C249 C248 1.397 . S
C249 C250 1.334 . S
C250 H221 0.950 . S
C250 C249 1.334 . S
C250 C251 1.287 . S
C251 C250 1.287 . S
C251 C252 1.524 . S
C251 H254 0.999 . S
C252 H222 0.950 . S
C252 C251 1.524 . S
C252 C253 1.415 . S
C253 H223 0.950 . S
C253 C248 1.363 . S
C253 C252 1.415 . S
H254 C251 0.999 . S
H255 C236 0.913 . S
H256 C274 0.951 . S
H257 C276 0.951 . S
H258 C278 0.950 . S
H259 C279 0.950 . S
H260 C281 0.950 . S
H261 C284 0.950 . S
H262 C285 0.950 . S
H263 C287 0.950 . S
H264 C288 0.950 . S
H265 C289 0.951 . S
H266 C291 0.951 . S
H267 C293 0.950 . S
H268 C294 0.950 . S
H269 C296 0.950 . S
H270 C299 0.950 . S
H271 C300 0.950 . S
H272 C302 0.950 . S
H273 C303 0.950 . S
C274 H256 0.951 . S
C274 C275 1.366 . S
C274 C276 1.388 . S
C275 C274 1.366 . S
C275 C279 1.385 . S
C276 H257 0.951 . S
C276 C274 1.388 . S
C276 C277 1.366 . S
C277 C276 1.366 . S
C277 C278 1.414 . S
C277 C280 1.499 . S
C278 H258 0.950 . S
C278 C277 1.414 . S
C278 C279 1.374 . S
C279 H259 0.950 . S
C279 C275 1.385 . S
C279 C278 1.374 . S
C280 C277 1.499 . S
C280 C281 1.373 . S
C280 C282 1.389 . S
C281 H260 0.950 . S
C281 C280 1.373 . S
C281 C297 1.377 . S
C282 C280 1.389 . S
C282 C283 1.524 . S
C282 C296 1.377 . S
C283 C282 1.524 . S
C283 C284 1.397 . S
C283 C288 1.363 . S
C284 H261 0.950 . S
C284 C283 1.397 . S
C284 C285 1.334 . S
C285 H262 0.950 . S
C285 C284 1.334 . S
C285 C286 1.287 . S
C286 C285 1.287 . S
C286 C287 1.524 . S
C286 H305 0.913 . S
C287 H263 0.950 . S
C287 C286 1.524 . S
C287 C288 1.415 . S
C288 H264 0.950 . S
C288 C283 1.363 . S
C288 C287 1.415 . S
C289 H265 0.951 . S
C289 C290 1.366 . S
C289 C291 1.388 . S
C290 C289 1.366 . S
C290 C294 1.385 . S
C291 H266 0.951 . S
C291 C289 1.388 . S
C291 C292 1.366 . S
C292 C291 1.366 . S
C292 C293 1.414 . S
C292 C295 1.499 . S
C293 H267 0.950 . S
C293 C292 1.414 . S
C293 C294 1.374 . S
C294 H268 0.950 . S
C294 C290 1.385 . S
C294 C293 1.374 . S
C295 C292 1.499 . S
C295 C296 1.373 . S
C295 C297 1.389 . S
C296 H269 0.950 . S
C296 C282 1.377 . S
C296 C295 1.373 . S
C297 C281 1.377 . S
C297 C295 1.389 . S
C297 C298 1.524 . S
C298 C297 1.524 . S
C298 C299 1.397 . S
C298 C303 1.363 . S
C299 H270 0.950 . S
C299 C298 1.397 . S
C299 C300 1.334 . S
C300 H271 0.950 . S
C300 C299 1.334 . S
C300 C301 1.287 . S
C301 C300 1.287 . S
C301 C302 1.524 . S
C301 H304 0.999 . S
C302 H272 0.950 . S
C302 C301 1.524 . S
C302 C303 1.415 . S
C303 H273 0.950 . S
C303 C298 1.363 . S
C303 C302 1.415 . S
H304 C301 0.999 . S
H305 C286 0.913 . S
H306 C324 0.951 . S
H307 C326 0.951 . S
H308 C328 0.950 . S
H309 C329 0.950 . S
H310 C331 0.950 . S
H311 C334 0.950 . S
H312 C335 0.950 . S
H313 C337 0.950 . S
H314 C338 0.950 . S
H315 C339 0.951 . S
H316 C341 0.951 . S
H317 C343 0.950 . S
H318 C344 0.950 . S
H319 C346 0.950 . S
H320 C349 0.950 1_556 S
H321 C350 0.950 . S
H322 C352 0.950 . S
H323 C353 0.950 . S
C324 H306 0.951 . S
C324 C325 1.366 . S
C324 C326 1.388 . S
C325 C324 1.366 . S
C325 C329 1.385 . S
C326 H307 0.951 . S
C326 C324 1.388 . S
C326 C327 1.366 . S
C327 C326 1.366 . S
C327 C328 1.414 . S
C327 C330 1.499 . S
C328 H308 0.950 . S
C328 C327 1.414 . S
C328 C329 1.374 . S
C329 H309 0.950 . S
C329 C325 1.385 . S
C329 C328 1.374 . S
C330 C327 1.499 . S
C330 C331 1.373 . S
C330 C332 1.389 1_554 S
C331 H310 0.950 . S
C331 C330 1.373 . S
C331 C347 1.376 . S
C332 C330 1.389 1_556 S
C332 C333 1.524 . S
C332 C346 1.377 . S
C333 C332 1.524 . S
C333 C334 1.397 . S
C333 C338 1.363 . S
C334 H311 0.950 . S
C334 C333 1.397 . S
C334 C335 1.334 . S
C335 H312 0.950 . S
C335 C334 1.334 . S
C335 C336 1.287 . S
C336 C335 1.287 . S
C336 C337 1.524 . S
C336 H355 0.913 . S
C337 H313 0.950 . S
C337 C336 1.524 . S
C337 C338 1.415 . S
C338 H314 0.950 . S
C338 C333 1.363 . S
C338 C337 1.415 . S
C339 H315 0.951 . S
C339 C340 1.366 . S
C339 C341 1.388 . S
C340 C339 1.366 . S
C340 C344 1.385 . S
C341 H316 0.951 . S
C341 C339 1.388 . S
C341 C342 1.366 . S
C342 C341 1.366 . S
C342 C343 1.414 . S
C342 C345 1.499 . S
C343 H317 0.950 . S
C343 C342 1.414 . S
C343 C344 1.374 . S
C344 H318 0.950 . S
C344 C340 1.385 . S
C344 C343 1.374 . S
C345 C342 1.499 . S
C345 C346 1.373 . S
C345 C347 1.390 1_556 S
C346 H319 0.950 . S
C346 C332 1.377 . S
C346 C345 1.373 . S
C347 C331 1.376 . S
C347 C345 1.390 1_554 S
C347 C348 1.524 . S
C348 C347 1.524 . S
C348 C349 1.397 . S
C348 C353 1.363 . S
C349 H320 0.950 1_554 S
C349 C348 1.397 . S
C349 C350 1.334 . S
C350 H321 0.950 . S
C350 C349 1.334 . S
C350 C351 1.287 . S
C351 C350 1.287 . S
C351 C352 1.524 . S
C351 H354 0.999 . S
C352 H322 0.950 . S
C352 C351 1.524 . S
C352 C353 1.415 . S
C353 H323 0.950 . S
C353 C348 1.363 . S
C353 C352 1.415 . S
H354 C351 0.999 . S
H355 C336 0.913 . S
H356 C374 0.951 . S
H357 C376 0.951 . S
H358 C378 0.950 . S
H359 C379 0.950 . S
H360 C381 0.950 . S
H361 C384 0.950 . S
H362 C385 0.950 . S
H363 C387 0.950 . S
H364 C388 0.950 . S
H365 C389 0.951 . S
H366 C391 0.951 . S
H367 C393 0.950 . S
H368 C394 0.950 . S
H369 C396 0.950 . S
H370 C399 0.950 . S
H371 C400 0.950 . S
H372 C402 0.950 . S
H373 C403 0.950 . S
C374 H356 0.951 . S
C374 C375 1.366 . S
C374 C376 1.388 . S
C375 C374 1.366 . S
C375 C379 1.385 . S
C376 H357 0.951 . S
C376 C374 1.388 . S
C376 C377 1.366 . S
C377 C376 1.366 . S
C377 C378 1.414 . S
C377 C380 1.499 . S
C378 H358 0.950 . S
C378 C377 1.414 . S
C378 C379 1.374 . S
C379 H359 0.950 . S
C379 C375 1.385 . S
C379 C378 1.374 . S
C380 C377 1.499 . S
C380 C381 1.373 . S
C380 C382 1.389 . S
C381 H360 0.950 . S
C381 C380 1.373 . S
C381 C397 1.377 . S
C382 C380 1.389 . S
C382 C383 1.524 . S
C382 C396 1.377 . S
C383 C382 1.524 . S
C383 C384 1.397 . S
C383 C388 1.363 . S
C384 H361 0.950 . S
C384 C383 1.397 . S
C384 C385 1.334 . S
C385 H362 0.950 . S
C385 C384 1.334 . S
C385 C386 1.287 . S
C386 C385 1.287 . S
C386 C387 1.524 . S
C386 H405 0.913 . S
C387 H363 0.950 . S
C387 C386 1.524 . S
C387 C388 1.415 . S
C388 H364 0.950 . S
C388 C383 1.363 . S
C388 C387 1.415 . S
C389 H365 0.951 . S
C389 C390 1.366 . S
C389 C391 1.388 . S
C390 C389 1.366 . S
C390 C394 1.385 . S
C391 H366 0.951 . S
C391 C389 1.388 . S
C391 C392 1.366 . S
C392 C391 1.366 . S
C392 C393 1.414 . S
C392 C395 1.499 . S
C393 H367 0.950 . S
C393 C392 1.414 . S
C393 C394 1.374 . S
C394 H368 0.950 . S
C394 C390 1.385 . S
C394 C393 1.374 . S
C395 C392 1.499 . S
C395 C396 1.373 . S
C395 C397 1.389 . S
C396 H369 0.950 . S
C396 C382 1.377 . S
C396 C395 1.373 . S
C397 C381 1.377 . S
C397 C395 1.389 . S
C397 C398 1.524 . S
C398 C397 1.524 . S
C398 C399 1.397 . S
C398 C403 1.363 . S
C399 H370 0.950 . S
C399 C398 1.397 . S
C399 C400 1.334 . S
C400 H371 0.950 . S
C400 C399 1.334 . S
C400 C401 1.287 . S
C401 C400 1.287 . S
C401 C402 1.524 . S
C401 H404 0.999 . S
C402 H372 0.950 . S
C402 C401 1.524 . S
C402 C403 1.415 . S
C403 H373 0.950 . S
C403 C398 1.363 . S
C403 C402 1.415 . S
H404 C401 0.999 . S
H405 C386 0.913 . S
H406 C424 0.951 . S
H407 C426 0.951 . S
H408 C428 0.950 . S
H409 C429 0.950 . S
H410 C431 0.950 . S
H411 C434 0.950 . S
H412 C435 0.950 . S
H413 C437 0.950 . S
H414 C438 0.950 . S
H415 C439 0.951 . S
H416 C441 0.951 . S
H417 C443 0.950 . S
H418 C444 0.950 . S
H419 C446 0.950 . S
H420 C449 0.950 . S
H421 C450 0.950 . S
H422 C452 0.950 . S
H423 C453 0.950 . S
C424 H406 0.951 . S
C424 C425 1.366 . S
C424 C426 1.388 . S
C425 C424 1.366 . S
C425 C429 1.385 . S
C426 H407 0.951 . S
C426 C424 1.388 . S
C426 C427 1.366 . S
C427 C426 1.366 . S
C427 C428 1.414 . S
C427 C430 1.499 . S
C428 H408 0.950 . S
C428 C427 1.414 . S
C428 C429 1.374 . S
C429 H409 0.950 . S
C429 C425 1.385 . S
C429 C428 1.374 . S
C430 C427 1.499 . S
C430 C431 1.373 . S
C430 C432 1.389 . S
C431 H410 0.950 . S
C431 C430 1.373 . S
C431 C447 1.377 . S
C432 C430 1.389 . S
C432 C433 1.524 . S
C432 C446 1.377 . S
C433 C432 1.524 . S
C433 C434 1.397 . S
C433 C438 1.363 . S
C434 H411 0.950 . S
C434 C433 1.397 . S
C434 C435 1.334 . S
C435 H412 0.950 . S
C435 C434 1.334 . S
C435 C436 1.287 . S
C436 C435 1.287 . S
C436 C437 1.524 . S
C436 H455 0.913 . S
C437 H413 0.950 . S
C437 C436 1.524 . S
C437 C438 1.415 . S
C438 H414 0.950 . S
C438 C433 1.363 . S
C438 C437 1.415 . S
C439 H415 0.951 . S
C439 C440 1.366 . S
C439 C441 1.388 . S
C440 C439 1.366 . S
C440 C444 1.385 . S
C441 H416 0.951 . S
C441 C439 1.388 . S
C441 C442 1.366 . S
C442 C441 1.366 . S
C442 C443 1.414 . S
C442 C445 1.499 . S
C443 H417 0.950 . S
C443 C442 1.414 . S
C443 C444 1.374 . S
C444 H418 0.950 . S
C444 C440 1.385 . S
C444 C443 1.374 . S
C445 C442 1.499 . S
C445 C446 1.373 . S
C445 C447 1.389 . S
C446 H419 0.950 . S
C446 C432 1.377 . S
C446 C445 1.373 . S
C447 C431 1.377 . S
C447 C445 1.389 . S
C447 C448 1.524 . S
C448 C447 1.524 . S
C448 C449 1.397 . S
C448 C453 1.363 . S
C449 H420 0.950 . S
C449 C448 1.397 . S
C449 C450 1.334 . S
C450 H421 0.950 . S
C450 C449 1.334 . S
C450 C451 1.287 . S
C451 C450 1.287 . S
C451 C452 1.524 . S
C451 H454 0.999 . S
C452 H422 0.950 . S
C452 C451 1.524 . S
C452 C453 1.415 . S
C453 H423 0.950 . S
C453 C448 1.363 . S
C453 C452 1.415 . S
H454 C451 0.999 . S
H455 C436 0.913 . S
H456 C474 0.951 . S
H457 C476 0.951 . S
H458 C478 0.950 1_565 S
H459 C479 0.950 . S
H460 C481 0.950 . S
H461 C484 0.950 . S
H462 C485 0.950 . S
H463 C487 0.950 . S
H464 C488 0.950 1_545 S
H465 C489 0.951 . S
H466 C491 0.951 . S
H467 C493 0.950 1_545 S
H468 C494 0.950 . S
H469 C496 0.950 . S
H470 C499 0.950 . S
H471 C500 0.950 . S
H472 C502 0.950 . S
H473 C503 0.950 1_565 S
C474 H456 0.951 . S
C474 C475 1.366 . S
C474 C476 1.388 . S
C475 C474 1.366 . S
C475 C479 1.385 . S
C476 H457 0.951 . S
C476 C474 1.388 . S
C476 C477 1.366 . S
C477 C476 1.366 . S
C477 C478 1.414 . S
C477 C480 1.499 . S
C478 H458 0.950 1_545 S
C478 C477 1.414 . S
C478 C479 1.374 . S
C479 H459 0.950 . S
C479 C475 1.385 . S
C479 C478 1.374 . S
C480 C477 1.499 . S
C480 C481 1.373 . S
C480 C482 1.389 1_545 S
C481 H460 0.950 . S
C481 C480 1.373 . S
C481 C497 1.377 1_554 S
C482 C480 1.389 1_565 S
C482 C483 1.524 . S
C482 C496 1.377 1_554 S
C483 C482 1.524 . S
C483 C484 1.397 . S
C483 C488 1.363 . S
C484 H461 0.950 . S
C484 C483 1.397 . S
C484 C485 1.334 . S
C485 H462 0.950 . S
C485 C484 1.334 . S
C485 C486 1.287 . S
C486 C485 1.287 . S
C486 C487 1.524 . S
C486 H505 0.913 . S
C487 H463 0.950 . S
C487 C486 1.524 . S
C487 C488 1.415 . S
C488 H464 0.950 1_565 S
C488 C483 1.363 . S
C488 C487 1.415 . S
C489 H465 0.951 . S
C489 C490 1.366 . S
C489 C491 1.388 . S
C490 C489 1.366 . S
C490 C494 1.385 . S
C491 H466 0.951 . S
C491 C489 1.388 . S
C491 C492 1.366 . S
C492 C491 1.366 . S
C492 C493 1.414 . S
C492 C495 1.499 . S
C493 H467 0.950 1_565 S
C493 C492 1.414 . S
C493 C494 1.374 . S
C494 H468 0.950 . S
C494 C490 1.385 . S
C494 C493 1.374 . S
C495 C492 1.499 . S
C495 C496 1.373 . S
C495 C497 1.389 1_565 S
C496 H469 0.950 . S
C496 C482 1.377 1_556 S
C496 C495 1.373 . S
C497 C481 1.377 1_556 S
C497 C495 1.389 1_545 S
C497 C498 1.524 . S
C498 C497 1.524 . S
C498 C499 1.397 . S
C498 C503 1.363 . S
C499 H470 0.950 . S
C499 C498 1.397 . S
C499 C500 1.334 . S
C500 H471 0.950 . S
C500 C499 1.334 . S
C500 C501 1.287 . S
C501 C500 1.287 . S
C501 C502 1.524 . S
C501 H504 0.999 . S
C502 H472 0.950 . S
C502 C501 1.524 . S
C502 C503 1.415 . S
C503 H473 0.950 1_545 S
C503 C498 1.363 . S
C503 C502 1.415 . S
H504 C501 0.999 . S
H505 C486 0.913 . S
H506 C524 0.951 . S
H507 C526 0.951 . S
H508 C528 0.950 . S
H509 C529 0.950 . S
H510 C531 0.950 . S
H511 C534 0.950 . S
H512 C535 0.950 . S
H513 C537 0.950 . S
H514 C538 0.950 . S
H515 C539 0.951 . S
H516 C541 0.951 . S
H517 C543 0.950 . S
H518 C544 0.950 . S
H519 C546 0.950 . S
H520 C549 0.950 . S
H521 C550 0.950 . S
H522 C552 0.950 . S
H523 C553 0.950 . S
C524 H506 0.951 . S
C524 C525 1.366 . S
C524 C526 1.388 . S
C525 C524 1.366 . S
C525 C529 1.385 . S
C526 H507 0.951 . S
C526 C524 1.388 . S
C526 C527 1.366 . S
C527 C526 1.366 . S
C527 C528 1.414 . S
C527 C530 1.499 . S
C528 H508 0.950 . S
C528 C527 1.414 . S
C528 C529 1.374 . S
C529 H509 0.950 . S
C529 C525 1.385 . S
C529 C528 1.374 . S
C530 C527 1.499 . S
C530 C531 1.373 . S
C530 C532 1.389 . S
C531 H510 0.950 . S
C531 C530 1.373 . S
C531 C547 1.377 . S
C532 C530 1.389 . S
C532 C533 1.524 . S
C532 C546 1.377 . S
C533 C532 1.524 . S
C533 C534 1.397 . S
C533 C538 1.363 . S
C534 H511 0.950 . S
C534 C533 1.397 . S
C534 C535 1.334 . S
C535 H512 0.950 . S
C535 C534 1.334 . S
C535 C536 1.287 . S
C536 C535 1.287 . S
C536 C537 1.524 . S
C536 H555 0.913 . S
C537 H513 0.950 . S
C537 C536 1.524 . S
C537 C538 1.415 . S
C538 H514 0.950 . S
C538 C533 1.363 . S
C538 C537 1.415 . S
C539 H515 0.951 . S
C539 C540 1.366 . S
C539 C541 1.388 . S
C540 C539 1.366 . S
C540 C544 1.385 . S
C541 H516 0.951 . S
C541 C539 1.388 . S
C541 C542 1.366 . S
C542 C541 1.366 . S
C542 C543 1.414 . S
C542 C545 1.499 . S
C543 H517 0.950 . S
C543 C542 1.414 . S
C543 C544 1.374 . S
C544 H518 0.950 . S
C544 C540 1.385 . S
C544 C543 1.374 . S
C545 C542 1.499 . S
C545 C546 1.373 . S
C545 C547 1.389 . S
C546 H519 0.950 . S
C546 C532 1.377 . S
C546 C545 1.373 . S
C547 C531 1.377 . S
C547 C545 1.389 . S
C547 C548 1.524 . S
C548 C547 1.524 . S
C548 C549 1.397 . S
C548 C553 1.363 . S
C549 H520 0.950 . S
C549 C548 1.397 . S
C549 C550 1.334 . S
C550 H521 0.950 . S
C550 C549 1.334 . S
C550 C551 1.287 . S
C551 C550 1.287 . S
C551 C552 1.524 . S
C551 H554 0.999 . S
C552 H522 0.950 . S
C552 C551 1.524 . S
C552 C553 1.415 . S
C553 H523 0.950 . S
C553 C548 1.363 . S
C553 C552 1.415 . S
H554 C551 0.999 . S
H555 C536 0.913 . S
H556 C574 0.951 . S
H557 C576 0.951 . S
H558 C578 0.950 . S
H559 C579 0.950 . S
H560 C581 0.950 . S
H561 C584 0.950 . S
H562 C585 0.950 . S
H563 C587 0.950 . S
H564 C588 0.950 . S
H565 C589 0.951 . S
H566 C591 0.951 1_455 S
H567 C593 0.950 . S
H568 C594 0.950 . S
H569 C596 0.950 1_655 S
H570 C599 0.950 . S
H571 C600 0.950 . S
H572 C602 0.950 . S
H573 C603 0.950 . S
C574 H556 0.951 . S
C574 C575 1.366 . S
C574 C576 1.388 . S
C575 C574 1.366 . S
C575 C579 1.385 . S
C576 H557 0.951 . S
C576 C574 1.388 . S
C576 C577 1.366 . S
C577 C576 1.366 . S
C577 C578 1.414 . S
C577 C580 1.499 . S
C578 H558 0.950 . S
C578 C577 1.414 . S
C578 C579 1.374 . S
C579 H559 0.950 . S
C579 C575 1.385 . S
C579 C578 1.374 . S
C580 C577 1.499 . S
C580 C581 1.373 . S
C580 C582 1.389 . S
C581 H560 0.950 . S
C581 C580 1.373 . S
C581 C597 1.377 . S
C582 C580 1.389 . S
C582 C583 1.524 . S
C582 C596 1.377 . S
C583 C582 1.524 . S
C583 C584 1.397 . S
C583 C588 1.363 1_455 S
C584 H561 0.950 . S
C584 C583 1.397 . S
C584 C585 1.334 . S
C585 H562 0.950 . S
C585 C584 1.334 . S
C585 C586 1.287 1_455 S
C586 C585 1.287 1_655 S
C586 C587 1.524 . S
C586 H605 0.913 . S
C587 H563 0.950 . S
C587 C586 1.524 . S
C587 C588 1.415 . S
C588 H564 0.950 . S
C588 C583 1.363 1_655 S
C588 C587 1.415 . S
C589 H565 0.951 . S
C589 C590 1.366 . S
C589 C591 1.388 . S
C590 C589 1.366 . S
C590 C594 1.385 . S
C591 H566 0.951 1_655 S
C591 C589 1.388 . S
C591 C592 1.366 . S
C592 C591 1.366 . S
C592 C593 1.414 . S
C592 C595 1.499 1_655 S
C593 H567 0.950 . S
C593 C592 1.414 . S
C593 C594 1.374 . S
C594 H568 0.950 . S
C594 C590 1.385 . S
C594 C593 1.374 . S
C595 C592 1.499 1_455 S
C595 C596 1.373 . S
C595 C597 1.389 . S
C596 H569 0.950 1_455 S
C596 C582 1.377 . S
C596 C595 1.373 . S
C597 C581 1.377 . S
C597 C595 1.389 . S
C597 C598 1.524 . S
C598 C597 1.524 . S
C598 C599 1.397 . S
C598 C603 1.363 . S
C599 H570 0.950 . S
C599 C598 1.397 . S
C599 C600 1.334 . S
C600 H571 0.950 . S
C600 C599 1.334 . S
C600 C601 1.287 . S
C601 C600 1.287 . S
C601 C602 1.524 . S
C601 H604 0.999 . S
C602 H572 0.950 . S
C602 C601 1.524 . S
C602 C603 1.415 . S
C603 H573 0.950 . S
C603 C598 1.363 . S
C603 C602 1.415 . S
H604 C601 0.999 . S
H605 C586 0.913 . S
H606 C624 0.951 . S
H607 C626 0.951 . S
H608 C628 0.950 . S
H609 C629 0.950 . S
H610 C631 0.952 . S
H611 C634 0.950 . S
H612 C635 0.950 . S
H613 C637 0.950 . S
H614 C638 0.950 . S
H615 C639 0.951 . S
H616 C641 0.951 . S
H617 C643 0.950 . S
H618 C644 0.950 . S
H619 C646 0.952 . S
H620 C649 0.950 . S
H621 C650 0.950 . S
H622 C652 0.950 . S
H623 C653 0.950 . S
C624 H606 0.951 . S
C624 C625 1.366 . S
C624 C626 1.388 . S
C625 C624 1.366 . S
C625 C629 1.385 . S
C626 H607 0.951 . S
C626 C624 1.388 . S
C626 C627 1.366 . S
C627 C626 1.366 . S
C627 C628 1.414 . S
C627 C630 1.499 . S
C628 H608 0.950 . S
C628 C627 1.414 . S
C628 C629 1.374 . S
C629 H609 0.950 . S
C629 C625 1.385 . S
C629 C628 1.374 . S
C630 C627 1.499 . S
C630 C631 1.396 . S
C630 C632 1.400 . S
C631 H610 0.952 . S
C631 C630 1.396 . S
C631 C647 1.347 1_564 S
C632 C630 1.400 . S
C632 C633 1.522 1_554 S
C632 C646 1.354 1_564 S
C633 C632 1.522 1_556 S
C633 C634 1.395 1_556 S
C633 C638 1.365 . S
C634 H611 0.950 . S
C634 C633 1.395 1_554 S
C634 C635 1.334 . S
C635 H612 0.950 . S
C635 C634 1.334 . S
C635 C636 1.287 . S
C636 C635 1.287 . S
C636 C637 1.524 1_554 S
C636 H655 0.913 . S
C637 H613 0.950 . S
C637 C636 1.524 1_556 S
C637 C638 1.415 . S
C638 H614 0.950 . S
C638 C633 1.365 . S
C638 C637 1.415 . S
C639 H615 0.951 . S
C639 C640 1.366 . S
C639 C641 1.388 . S
C640 C639 1.366 . S
C640 C644 1.385 . S
C641 H616 0.951 . S
C641 C639 1.388 . S
C641 C642 1.366 . S
C642 C641 1.366 . S
C642 C643 1.414 . S
C642 C645 1.499 . S
C643 H617 0.950 . S
C643 C642 1.414 . S
C643 C644 1.374 . S
C644 H618 0.950 . S
C644 C640 1.385 . S
C644 C643 1.374 . S
C645 C642 1.499 . S
C645 C646 1.397 . S
C645 C647 1.410 . S
C646 H619 0.952 . S
C646 C632 1.354 1_546 S
C646 C645 1.397 . S
C647 C631 1.347 1_546 S
C647 C645 1.410 . S
C647 C648 1.520 . S
C648 C647 1.520 . S
C648 C649 1.396 . S
C648 C653 1.364 1_556 S
C649 H620 0.950 . S
C649 C648 1.396 . S
C649 C650 1.334 . S
C650 H621 0.950 . S
C650 C649 1.334 . S
C650 C651 1.287 . S
C651 C650 1.287 . S
C651 C652 1.524 1_556 S
C651 H654 0.999 . S
C652 H622 0.950 . S
C652 C651 1.524 1_554 S
C652 C653 1.415 . S
C653 H623 0.950 . S
C653 C648 1.364 1_554 S
C653 C652 1.415 . S
H654 C651 0.999 . S
H655 C636 0.913 . S
H656 C674 0.951 . S
H657 C676 0.951 . S
H658 C678 0.950 . S
H659 C679 0.950 . S
H660 C681 0.950 . S
H661 C684 0.950 . S
H662 C685 0.950 . S
H663 C687 0.950 . S
H664 C688 0.950 . S
H665 C689 0.951 . S
H666 C691 0.951 . S
H667 C693 0.950 . S
H668 C694 0.950 . S
H669 C696 0.950 . S
H670 C699 0.950 . S
H671 C700 0.950 . S
H672 C702 0.950 . S
H673 C703 0.950 . S
C674 H656 0.951 . S
C674 C675 1.366 . S
C674 C676 1.388 . S
C675 C674 1.366 . S
C675 C679 1.385 . S
C676 H657 0.951 . S
C676 C674 1.388 . S
C676 C677 1.366 . S
C677 C676 1.366 . S
C677 C678 1.414 . S
C677 C680 1.499 . S
C678 H658 0.950 . S
C678 C677 1.414 . S
C678 C679 1.374 . S
C679 H659 0.950 . S
C679 C675 1.385 . S
C679 C678 1.374 . S
C680 C677 1.499 . S
C680 C681 1.373 . S
C680 C682 1.389 . S
C681 H660 0.950 . S
C681 C680 1.373 . S
C681 C697 1.377 . S
C682 C680 1.389 . S
C682 C683 1.524 . S
C682 C696 1.377 . S
C683 C682 1.524 . S
C683 C684 1.397 . S
C683 C688 1.363 . S
C684 H661 0.950 . S
C684 C683 1.397 . S
C684 C685 1.334 . S
C685 H662 0.950 . S
C685 C684 1.334 . S
C685 C686 1.287 . S
C686 C685 1.287 . S
C686 C687 1.524 . S
C686 H705 0.913 . S
C687 H663 0.950 . S
C687 C686 1.524 . S
C687 C688 1.415 . S
C688 H664 0.950 . S
C688 C683 1.363 . S
C688 C687 1.415 . S
C689 H665 0.951 . S
C689 C690 1.366 . S
C689 C691 1.388 . S
C690 C689 1.366 . S
C690 C694 1.385 . S
C691 H666 0.951 . S
C691 C689 1.388 . S
C691 C692 1.366 . S
C692 C691 1.366 . S
C692 C693 1.414 . S
C692 C695 1.499 . S
C693 H667 0.950 . S
C693 C692 1.414 . S
C693 C694 1.374 . S
C694 H668 0.950 . S
C694 C690 1.385 . S
C694 C693 1.374 . S
C695 C692 1.499 . S
C695 C696 1.373 . S
C695 C697 1.389 . S
C696 H669 0.950 . S
C696 C682 1.377 . S
C696 C695 1.373 . S
C697 C681 1.377 . S
C697 C695 1.389 . S
C697 C698 1.524 . S
C698 C697 1.524 . S
C698 C699 1.397 . S
C698 C703 1.363 . S
C699 H670 0.950 . S
C699 C698 1.397 . S
C699 C700 1.334 . S
C700 H671 0.950 . S
C700 C699 1.334 . S
C700 C701 1.287 . S
C701 C700 1.287 . S
C701 C702 1.524 . S
C701 H704 0.999 . S
C702 H672 0.950 . S
C702 C701 1.524 . S
C702 C703 1.415 . S
C703 H673 0.950 . S
C703 C698 1.363 . S
C703 C702 1.415 . S
H704 C701 0.999 . S
H705 C686 0.913 . S
H706 C724 0.951 . S
H707 C726 0.951 . S
H708 C728 0.950 . S
H709 C729 0.950 . S
H710 C731 0.950 . S
H711 C734 0.950 . S
H712 C735 0.973 . S
H713 C737 0.950 . S
H714 C738 0.950 . S
H715 C739 0.951 . S
H716 C741 0.951 . S
H717 C743 0.950 . S
H718 C744 0.950 . S
H719 C746 0.950 . S
H720 C749 0.950 . S
H721 C750 0.950 . S
H722 C752 0.950 . S
H723 C753 0.950 . S
C724 H706 0.951 . S
C724 C725 1.366 . S
C724 C726 1.388 . S
C725 C724 1.366 . S
C725 C729 1.385 . S
C726 H707 0.951 . S
C726 C724 1.388 . S
C726 C727 1.366 . S
C727 C726 1.366 . S
C727 C728 1.414 . S
C727 C730 1.499 . S
C728 H708 0.950 . S
C728 C727 1.414 . S
C728 C729 1.374 . S
C729 H709 0.950 . S
C729 C725 1.385 . S
C729 C728 1.374 . S
C730 C727 1.499 . S
C730 C731 1.373 . S
C730 C732 1.389 . S
C731 H710 0.950 . S
C731 C730 1.373 . S
C731 C747 1.377 . S
C732 C730 1.389 . S
C732 C733 1.524 1_455 S
C732 C746 1.377 1_455 S
C733 C732 1.524 1_655 S
C733 C734 1.397 1_655 S
C733 C738 1.363 . S
C734 H711 0.950 . S
C734 C733 1.397 1_455 S
C734 C735 1.333 . S
C735 H712 0.973 . S
C735 C734 1.333 . S
C735 C736 1.265 1_455 S
C736 C735 1.265 1_655 S
C736 C737 1.524 . S
C736 H755 0.913 . S
C737 H713 0.950 . S
C737 C736 1.524 . S
C737 C738 1.415 . S
C738 H714 0.950 . S
C738 C733 1.363 . S
C738 C737 1.415 . S
C739 H715 0.951 . S
C739 C740 1.366 . S
C739 C741 1.388 . S
C740 C739 1.366 . S
C740 C744 1.385 . S
C741 H716 0.951 . S
C741 C739 1.388 . S
C741 C742 1.366 . S
C742 C741 1.366 . S
C742 C743 1.414 . S
C742 C745 1.499 . S
C743 H717 0.950 . S
C743 C742 1.414 . S
C743 C744 1.374 . S
C744 H718 0.950 . S
C744 C740 1.385 . S
C744 C743 1.374 . S
C745 C742 1.499 . S
C745 C746 1.373 . S
C745 C747 1.389 1_655 S
C746 H719 0.950 . S
C746 C732 1.377 1_655 S
C746 C745 1.373 . S
C747 C731 1.377 . S
C747 C745 1.389 1_455 S
C747 C748 1.524 . S
C748 C747 1.524 . S
C748 C749 1.397 . S
C748 C753 1.363 . S
C749 H720 0.950 . S
C749 C748 1.397 . S
C749 C750 1.334 . S
C750 H721 0.950 . S
C750 C749 1.334 . S
C750 C751 1.287 . S
C751 C750 1.287 . S
C751 C752 1.524 . S
C751 H754 0.999 . S
C752 H722 0.950 . S
C752 C751 1.524 . S
C752 C753 1.415 . S
C753 H723 0.950 . S
C753 C748 1.363 . S
C753 C752 1.415 . S
H754 C751 0.999 . S
H755 C736 0.913 . S
H756 C774 0.951 . S
H757 C776 0.951 . S
H758 C778 0.950 . S
H759 C779 0.950 . S
H760 C781 0.950 . S
H761 C784 0.950 . S
H762 C785 0.950 . S
H763 C787 0.950 . S
H764 C788 0.950 . S
H765 C789 0.951 . S
H766 C791 0.951 . S
H767 C793 0.950 . S
H768 C794 0.950 . S
H769 C796 0.950 . S
H770 C799 0.950 . S
H771 C800 0.950 . S
H772 C802 0.950 . S
H773 C803 0.950 1_565 S
C774 H756 0.951 . S
C774 C775 1.366 . S
C774 C776 1.388 . S
C775 C774 1.366 . S
C775 C779 1.385 . S
C776 H757 0.951 . S
C776 C774 1.388 . S
C776 C777 1.366 . S
C777 C776 1.366 . S
C777 C778 1.414 . S
C777 C780 1.499 . S
C778 H758 0.950 . S
C778 C777 1.414 . S
C778 C779 1.374 . S
C779 H759 0.950 . S
C779 C775 1.385 . S
C779 C778 1.374 . S
C780 C777 1.499 . S
C780 C781 1.373 . S
C780 C782 1.389 . S
C781 H760 0.950 . S
C781 C780 1.373 . S
C781 C797 1.377 . S
C782 C780 1.389 . S
C782 C783 1.524 . S
C782 C796 1.377 . S
C783 C782 1.524 . S
C783 C784 1.397 . S
C783 C788 1.363 . S
C784 H761 0.950 . S
C784 C783 1.397 . S
C784 C785 1.334 . S
C785 H762 0.950 . S
C785 C784 1.334 . S
C785 C786 1.287 . S
C786 C785 1.287 . S
C786 C787 1.524 . S
C786 H805 0.913 . S
C787 H763 0.950 . S
C787 C786 1.524 . S
C787 C788 1.415 . S
C788 H764 0.950 . S
C788 C783 1.363 . S
C788 C787 1.415 . S
C789 H765 0.951 . S
C789 C790 1.366 . S
C789 C791 1.388 1_545 S
C790 C789 1.366 . S
C790 C794 1.385 . S
C791 H766 0.951 . S
C791 C789 1.388 1_565 S
C791 C792 1.366 . S
C792 C791 1.366 . S
C792 C793 1.414 . S
C792 C795 1.499 . S
C793 H767 0.950 . S
C793 C792 1.414 . S
C793 C794 1.374 1_565 S
C794 H768 0.950 . S
C794 C790 1.385 . S
C794 C793 1.374 1_545 S
C795 C792 1.499 . S
C795 C796 1.373 . S
C795 C797 1.389 . S
C796 H769 0.950 . S
C796 C782 1.377 . S
C796 C795 1.373 . S
C797 C781 1.377 . S
C797 C795 1.389 . S
C797 C798 1.524 1_565 S
C798 C797 1.524 1_545 S
C798 C799 1.397 . S
C798 C803 1.363 . S
C799 H770 0.950 . S
C799 C798 1.397 . S
C799 C800 1.334 . S
C800 H771 0.950 . S
C800 C799 1.334 . S
C800 C801 1.287 . S
C801 C800 1.287 . S
C801 C802 1.524 . S
C801 H804 0.999 . S
C802 H772 0.950 . S
C802 C801 1.524 . S
C802 C803 1.415 . S
C803 H773 0.950 1_545 S
C803 C798 1.363 . S
C803 C802 1.415 . S
H804 C801 0.999 . S
H805 C786 0.913 . S
H806 C824 0.951 . S
H807 C826 0.951 . S
H808 C828 0.950 . S
H809 C829 0.950 . S
H810 C831 0.950 . S
H811 C834 0.950 . S
H812 C835 0.950 . S
H813 C837 0.950 . S
H814 C838 0.950 . S
H815 C839 0.951 . S
H816 C841 0.951 . S
H817 C843 0.950 . S
H818 C844 0.950 . S
H819 C846 0.950 . S
H820 C849 0.950 . S
H821 C850 0.950 . S
H822 C852 0.950 . S
H823 C853 0.950 . S
C824 H806 0.951 . S
C824 C825 1.366 . S
C824 C826 1.388 . S
C825 C824 1.366 . S
C825 C829 1.385 . S
C826 H807 0.951 . S
C826 C824 1.388 . S
C826 C827 1.366 . S
C827 C826 1.366 . S
C827 C828 1.414 . S
C827 C830 1.499 . S
C828 H808 0.950 . S
C828 C827 1.414 . S
C828 C829 1.374 . S
C829 H809 0.950 . S
C829 C825 1.385 . S
C829 C828 1.374 . S
C830 C827 1.499 . S
C830 C831 1.373 . S
C830 C832 1.389 . S
C831 H810 0.950 . S
C831 C830 1.373 . S
C831 C847 1.377 . S
C832 C830 1.389 . S
C832 C833 1.524 . S
C832 C846 1.377 . S
C833 C832 1.524 . S
C833 C834 1.397 . S
C833 C838 1.363 . S
C834 H811 0.950 . S
C834 C833 1.397 . S
C834 C835 1.334 . S
C835 H812 0.950 . S
C835 C834 1.334 . S
C835 C836 1.287 . S
C836 C835 1.287 . S
C836 C837 1.524 . S
C836 H855 0.913 . S
C837 H813 0.950 . S
C837 C836 1.524 . S
C837 C838 1.415 . S
C838 H814 0.950 . S
C838 C833 1.363 . S
C838 C837 1.415 . S
C839 H815 0.951 . S
C839 C840 1.366 . S
C839 C841 1.388 . S
C840 C839 1.366 . S
C840 C844 1.385 . S
C841 H816 0.951 . S
C841 C839 1.388 . S
C841 C842 1.366 . S
C842 C841 1.366 . S
C842 C843 1.414 . S
C842 C845 1.499 . S
C843 H817 0.950 . S
C843 C842 1.414 . S
C843 C844 1.374 . S
C844 H818 0.950 . S
C844 C840 1.385 . S
C844 C843 1.374 . S
C845 C842 1.499 . S
C845 C846 1.373 . S
C845 C847 1.389 . S
C846 H819 0.950 . S
C846 C832 1.377 . S
C846 C845 1.373 . S
C847 C831 1.377 . S
C847 C845 1.389 . S
C847 C848 1.524 . S
C848 C847 1.524 . S
C848 C849 1.397 . S
C848 C853 1.363 . S
C849 H820 0.950 . S
C849 C848 1.397 . S
C849 C850 1.334 . S
C850 H821 0.950 . S
C850 C849 1.334 . S
C850 C851 1.287 . S
C851 C850 1.287 . S
C851 C852 1.524 . S
C851 H854 0.999 . S
C852 H822 0.950 . S
C852 C851 1.524 . S
C852 C853 1.415 . S
C853 H823 0.950 . S
C853 C848 1.363 . S
C853 C852 1.415 . S
H854 C851 0.999 . S
H855 C836 0.913 . S
H856 C874 0.951 . S
H857 C876 0.951 . S
H858 C878 0.950 . S
H859 C879 0.950 . S
H860 C881 0.950 . S
H861 C884 0.950 . S
H862 C885 0.950 . S
H863 C887 0.950 . S
H864 C888 0.950 . S
H865 C889 0.951 . S
H866 C891 0.951 . S
H867 C893 0.950 . S
H868 C894 0.950 . S
H869 C896 0.950 . S
H870 C899 0.950 . S
H871 C900 0.950 . S
H872 C902 0.950 . S
H873 C903 0.950 . S
C874 H856 0.951 . S
C874 C875 1.366 . S
C874 C876 1.388 . S
C875 C874 1.366 . S
C875 C879 1.385 . S
C876 H857 0.951 . S
C876 C874 1.388 . S
C876 C877 1.366 . S
C877 C876 1.366 . S
C877 C878 1.414 . S
C877 C880 1.499 . S
C878 H858 0.950 . S
C878 C877 1.414 . S
C878 C879 1.374 . S
C879 H859 0.950 . S
C879 C875 1.385 . S
C879 C878 1.374 . S
C880 C877 1.499 . S
C880 C881 1.373 . S
C880 C882 1.389 . S
C881 H860 0.950 . S
C881 C880 1.373 . S
C881 C897 1.377 . S
C882 C880 1.389 . S
C882 C883 1.524 . S
C882 C896 1.377 . S
C883 C882 1.524 . S
C883 C884 1.397 . S
C883 C888 1.363 . S
C884 H861 0.950 . S
C884 C883 1.397 . S
C884 C885 1.334 . S
C885 H862 0.950 . S
C885 C884 1.334 . S
C885 C886 1.287 . S
C886 C885 1.287 . S
C886 C887 1.524 . S
C886 H905 0.913 . S
C887 H863 0.950 . S
C887 C886 1.524 . S
C887 C888 1.415 . S
C888 H864 0.950 . S
C888 C883 1.363 . S
C888 C887 1.415 . S
C889 H865 0.951 . S
C889 C890 1.366 . S
C889 C891 1.388 . S
C890 C889 1.366 . S
C890 C894 1.385 . S
C891 H866 0.951 . S
C891 C889 1.388 . S
C891 C892 1.366 . S
C892 C891 1.366 . S
C892 C893 1.414 . S
C892 C895 1.499 1_655 S
C893 H867 0.950 . S
C893 C892 1.414 . S
C893 C894 1.374 . S
C894 H868 0.950 . S
C894 C890 1.385 . S
C894 C893 1.374 . S
C895 C892 1.499 1_455 S
C895 C896 1.373 . S
C895 C897 1.389 . S
C896 H869 0.950 . S
C896 C882 1.377 . S
C896 C895 1.373 . S
C897 C881 1.377 . S
C897 C895 1.389 . S
C897 C898 1.524 . S
C898 C897 1.524 . S
C898 C899 1.397 . S
C898 C903 1.363 . S
C899 H870 0.950 . S
C899 C898 1.397 . S
C899 C900 1.334 1_455 S
C900 H871 0.950 . S
C900 C899 1.334 1_655 S
C900 C901 1.287 . S
C901 C900 1.287 . S
C901 C902 1.524 . S
C901 H904 0.999 . S
C902 H872 0.950 . S
C902 C901 1.524 . S
C902 C903 1.415 1_655 S
C903 H873 0.950 . S
C903 C898 1.363 . S
C903 C902 1.415 1_455 S
H904 C901 0.999 . S
H905 C886 0.913 . S
H906 C924 0.951 . S
H907 C926 0.951 . S
H908 C928 0.950 . S
H909 C929 0.950 . S
H910 C931 0.950 . S
H911 C934 0.950 . S
H912 C935 0.950 . S
H913 C937 0.950 . S
H914 C938 0.958 . S
H915 C939 0.951 . S
H916 C941 0.951 . S
H917 C943 0.950 . S
H918 C944 0.950 . S
H919 C946 0.950 . S
H920 C949 0.950 . S
H921 C950 0.950 . S
H922 C952 0.950 . S
H923 C953 0.950 . S
C924 H906 0.951 . S
C924 C925 1.366 . S
C924 C926 1.388 . S
C925 C924 1.366 . S
C925 C929 1.385 . S
C926 H907 0.951 . S
C926 C924 1.388 . S
C926 C927 1.366 . S
C927 C926 1.366 . S
C927 C928 1.414 . S
C927 C930 1.499 . S
C928 H908 0.950 . S
C928 C927 1.414 . S
C928 C929 1.374 . S
C929 H909 0.950 . S
C929 C925 1.385 . S
C929 C928 1.374 . S
C930 C927 1.499 . S
C930 C931 1.373 1_655 S
C930 C932 1.389 1_655 S
C931 H910 0.950 . S
C931 C930 1.373 1_455 S
C931 C947 1.377 . S
C932 C930 1.389 1_455 S
C932 C933 1.524 1_455 S
C932 C946 1.377 . S
C933 C932 1.524 1_655 S
C933 C934 1.397 . S
C933 C938 1.363 . S
C934 H911 0.950 . S
C934 C933 1.397 . S
C934 C935 1.334 . S
C935 H912 0.950 . S
C935 C934 1.334 . S
C935 C936 1.287 . S
C936 C935 1.287 . S
C936 C937 1.524 . S
C936 H955 0.913 . S
C937 H913 0.950 . S
C937 C936 1.524 . S
C937 C938 1.415 . S
C938 H914 0.958 . S
C938 C933 1.363 . S
C938 C937 1.415 . S
C939 H915 0.951 . S
C939 C940 1.366 . S
C939 C941 1.388 . S
C940 C939 1.366 . S
C940 C944 1.385 . S
C941 H916 0.951 . S
C941 C939 1.388 . S
C941 C942 1.366 . S
C942 C941 1.366 . S
C942 C943 1.414 . S
C942 C945 1.499 . S
C943 H917 0.950 . S
C943 C942 1.414 . S
C943 C944 1.374 . S
C944 H918 0.950 . S
C944 C940 1.385 . S
C944 C943 1.374 . S
C945 C942 1.499 . S
C945 C946 1.373 . S
C945 C947 1.389 . S
C946 H919 0.950 . S
C946 C932 1.377 . S
C946 C945 1.373 . S
C947 C931 1.377 . S
C947 C945 1.389 . S
C947 C948 1.524 . S
C948 C947 1.524 . S
C948 C949 1.397 . S
C948 C953 1.363 . S
C949 H920 0.950 . S
C949 C948 1.397 . S
C949 C950 1.334 . S
C950 H921 0.950 . S
C950 C949 1.334 . S
C950 C951 1.287 . S
C951 C950 1.287 . S
C951 C952 1.524 . S
C951 H954 0.999 . S
C952 H922 0.950 . S
C952 C951 1.524 . S
C952 C953 1.415 . S
C953 H923 0.950 . S
C953 C948 1.363 . S
C953 C952 1.415 . S
H954 C951 0.999 . S
H955 C936 0.913 . S
H956 C974 0.951 . S
H957 C976 0.951 . S
H958 C978 0.950 . S
H959 C979 0.950 . S
H960 C981 0.950 . S
H961 C984 0.950 . S
H962 C985 0.950 . S
H963 C987 0.950 . S
H964 C988 0.950 . S
H965 C989 0.951 . S
H966 C991 0.951 . S
H967 C993 0.950 . S
H968 C994 0.950 . S
H969 C996 0.950 . S
H970 C999 0.950 . S
H971 C1000 0.950 . S
H972 C1002 0.950 . S
H973 C1003 0.950 . S
C974 H956 0.951 . S
C974 C975 1.366 . S
C974 C976 1.388 . S
C975 C974 1.366 . S
C975 C979 1.385 1_565 S
C976 H957 0.951 . S
C976 C974 1.388 . S
C976 C977 1.366 1_565 S
C977 C976 1.366 1_545 S
C977 C978 1.414 . S
C977 C980 1.499 . S
C978 H958 0.950 . S
C978 C977 1.414 . S
C978 C979 1.374 . S
C979 H959 0.950 . S
C979 C975 1.385 1_545 S
C979 C978 1.374 . S
C980 C977 1.499 . S
C980 C981 1.373 . S
C980 C982 1.389 . S
C981 H960 0.950 . S
C981 C980 1.373 . S
C981 C997 1.377 . S
C982 C980 1.389 . S
C982 C983 1.524 . S
C982 C996 1.377 . S
C983 C982 1.524 . S
C983 C984 1.397 . S
C983 C988 1.363 1_545 S
C984 H961 0.950 . S
C984 C983 1.397 . S
C984 C985 1.334 . S
C985 H962 0.950 . S
C985 C984 1.334 . S
C985 C986 1.287 1_545 S
C986 C985 1.287 1_565 S
C986 C987 1.524 . S
C986 H1005 0.913 . S
C987 H963 0.950 . S
C987 C986 1.524 . S
C987 C988 1.415 . S
C988 H964 0.950 . S
C988 C983 1.363 1_565 S
C988 C987 1.415 . S
C989 H965 0.951 . S
C989 C990 1.366 . S
C989 C991 1.388 . S
C990 C989 1.366 . S
C990 C994 1.385 . S
C991 H966 0.951 . S
C991 C989 1.388 . S
C991 C992 1.366 . S
C992 C991 1.366 . S
C992 C993 1.414 . S
C992 C995 1.499 . S
C993 H967 0.950 . S
C993 C992 1.414 . S
C993 C994 1.374 . S
C994 H968 0.950 . S
C994 C990 1.385 . S
C994 C993 1.374 . S
C995 C992 1.499 . S
C995 C996 1.373 . S
C995 C997 1.389 . S
C996 H969 0.950 . S
C996 C982 1.377 . S
C996 C995 1.373 . S
C997 C981 1.377 . S
C997 C995 1.389 . S
C997 C998 1.524 . S
C998 C997 1.524 . S
C998 C999 1.397 . S
C998 C1003 1.363 . S
C999 H970 0.950 . S
C999 C998 1.397 . S
C999 C1000 1.334 . S
C1000 H971 0.950 . S
C1000 C999 1.334 . S
C1000 C1001 1.287 . S
C1001 C1000 1.287 . S
C1001 C1002 1.524 . S
C1001 H1004 0.999 . S
C1002 H972 0.950 . S
C1002 C1001 1.524 . S
C1002 C1003 1.415 . S
C1003 H973 0.950 . S
C1003 C998 1.363 . S
C1003 C1002 1.415 . S
H1004 C1001 0.999 . S
H1005 C986 0.913 . S
H1006 C1024 0.951 . S
H1007 C1026 0.951 . S
H1008 C1028 0.950 . S
H1009 C1029 0.950 . S
H1010 C1031 0.950 . S
H1011 C1034 0.950 . S
H1012 C1035 0.950 . S
H1013 C1037 0.950 . S
H1014 C1038 0.950 . S
H1015 C1039 0.951 . S
H1016 C1041 0.951 . S
H1017 C1043 0.950 . S
H1018 C1044 0.950 . S
H1019 C1046 0.950 . S
H1020 C1049 0.950 . S
H1021 C1050 0.950 . S
H1022 C1052 0.950 . S
H1023 C1053 0.950 . S
C1024 H1006 0.951 . S
C1024 C1025 1.366 . S
C1024 C1026 1.388 . S
C1025 C1024 1.366 . S
C1025 C1029 1.385 . S
C1026 H1007 0.951 . S
C1026 C1024 1.388 . S
C1026 C1027 1.366 . S
C1027 C1026 1.366 . S
C1027 C1028 1.414 . S
C1027 C1030 1.499 . S
C1028 H1008 0.950 . S
C1028 C1027 1.414 . S
C1028 C1029 1.374 . S
C1029 H1009 0.950 . S
C1029 C1025 1.385 . S
C1029 C1028 1.374 . S
C1030 C1027 1.499 . S
C1030 C1031 1.373 . S
C1030 C1032 1.389 . S
C1031 H1010 0.950 . S
C1031 C1030 1.373 . S
C1031 C1047 1.377 . S
C1032 C1030 1.389 . S
C1032 C1033 1.524 . S
C1032 C1046 1.377 . S
C1033 C1032 1.524 . S
C1033 C1034 1.397 . S
C1033 C1038 1.363 . S
C1034 H1011 0.950 . S
C1034 C1033 1.397 . S
C1034 C1035 1.334 . S
C1035 H1012 0.950 . S
C1035 C1034 1.334 . S
C1035 C1036 1.287 . S
C1036 C1035 1.287 . S
C1036 C1037 1.524 . S
C1036 H1055 0.913 . S
C1037 H1013 0.950 . S
C1037 C1036 1.524 . S
C1037 C1038 1.415 . S
C1038 H1014 0.950 . S
C1038 C1033 1.363 . S
C1038 C1037 1.415 . S
C1039 H1015 0.951 . S
C1039 C1040 1.366 . S
C1039 C1041 1.388 . S
C1040 C1039 1.366 . S
C1040 C1044 1.385 . S
C1041 H1016 0.951 . S
C1041 C1039 1.388 . S
C1041 C1042 1.366 . S
C1042 C1041 1.366 . S
C1042 C1043 1.414 . S
C1042 C1045 1.499 . S
C1043 H1017 0.950 . S
C1043 C1042 1.414 . S
C1043 C1044 1.374 . S
C1044 H1018 0.950 . S
C1044 C1040 1.385 . S
C1044 C1043 1.374 . S
C1045 C1042 1.499 . S
C1045 C1046 1.373 . S
C1045 C1047 1.389 . S
C1046 H1019 0.950 . S
C1046 C1032 1.377 . S
C1046 C1045 1.373 . S
C1047 C1031 1.377 . S
C1047 C1045 1.389 . S
C1047 C1048 1.524 . S
C1048 C1047 1.524 . S
C1048 C1049 1.397 . S
C1048 C1053 1.363 . S
C1049 H1020 0.950 . S
C1049 C1048 1.397 . S
C1049 C1050 1.334 . S
C1050 H1021 0.950 . S
C1050 C1049 1.334 . S
C1050 C1051 1.287 . S
C1051 C1050 1.287 . S
C1051 C1052 1.524 . S
C1051 H1054 0.999 . S
C1052 H1022 0.950 . S
C1052 C1051 1.524 . S
C1052 C1053 1.415 . S
C1053 H1023 0.950 . S
C1053 C1048 1.363 . S
C1053 C1052 1.415 . S
H1054 C1051 0.999 . S
H1055 C1036 0.913 . S
H1056 C1074 0.951 . S
H1057 C1076 0.951 . S
H1058 C1078 0.950 . S
H1059 C1079 0.950 . S
H1060 C1081 0.950 . S
H1061 C1084 0.950 . S
H1062 C1085 0.950 . S
H1063 C1087 0.950 . S
H1064 C1088 0.950 . S
H1065 C1089 0.951 . S
H1066 C1091 0.951 . S
H1067 C1093 0.950 . S
H1068 C1094 0.950 . S
H1069 C1096 0.950 . S
H1070 C1099 0.950 . S
H1071 C1100 0.950 . S
H1072 C1102 0.950 . S
H1073 C1103 0.950 . S
C1074 H1056 0.951 . S
C1074 C1075 1.366 . S
C1074 C1076 1.388 . S
C1075 C1074 1.366 . S
C1075 C1079 1.385 . S
C1076 H1057 0.951 . S
C1076 C1074 1.388 . S
C1076 C1077 1.366 . S
C1077 C1076 1.366 . S
C1077 C1078 1.414 . S
C1077 C1080 1.499 . S
C1078 H1058 0.950 . S
C1078 C1077 1.414 . S
C1078 C1079 1.374 . S
C1079 H1059 0.950 . S
C1079 C1075 1.385 . S
C1079 C1078 1.374 . S
C1080 C1077 1.499 . S
C1080 C1081 1.373 . S
C1080 C1082 1.389 . S
C1081 H1060 0.950 . S
C1081 C1080 1.373 . S
C1081 C1097 1.377 . S
C1082 C1080 1.389 . S
C1082 C1083 1.524 . S
C1082 C1096 1.377 . S
C1083 C1082 1.524 . S
C1083 C1084 1.397 . S
C1083 C1088 1.363 . S
C1084 H1061 0.950 . S
C1084 C1083 1.397 . S
C1084 C1085 1.334 . S
C1085 H1062 0.950 . S
C1085 C1084 1.334 . S
C1085 C1086 1.287 . S
C1086 C1085 1.287 . S
C1086 C1087 1.524 . S
C1086 H1105 0.913 . S
C1087 H1063 0.950 . S
C1087 C1086 1.524 . S
C1087 C1088 1.415 . S
C1088 H1064 0.950 . S
C1088 C1083 1.363 . S
C1088 C1087 1.415 . S
C1089 H1065 0.951 . S
C1089 C1090 1.366 . S
C1089 C1091 1.388 . S
C1090 C1089 1.366 . S
C1090 C1094 1.385 . S
C1091 H1066 0.951 . S
C1091 C1089 1.388 . S
C1091 C1092 1.366 . S
C1092 C1091 1.366 . S
C1092 C1093 1.414 . S
C1092 C1095 1.499 . S
C1093 H1067 0.950 . S
C1093 C1092 1.414 . S
C1093 C1094 1.374 . S
C1094 H1068 0.950 . S
C1094 C1090 1.385 . S
C1094 C1093 1.374 . S
C1095 C1092 1.499 . S
C1095 C1096 1.373 . S
C1095 C1097 1.389 . S
C1096 H1069 0.950 . S
C1096 C1082 1.377 . S
C1096 C1095 1.373 . S
C1097 C1081 1.377 . S
C1097 C1095 1.389 . S
C1097 C1098 1.524 . S
C1098 C1097 1.524 . S
C1098 C1099 1.397 . S
C1098 C1103 1.363 . S
C1099 H1070 0.950 . S
C1099 C1098 1.397 . S
C1099 C1100 1.334 . S
C1100 H1071 0.950 . S
C1100 C1099 1.334 . S
C1100 C1101 1.287 . S
C1101 C1100 1.287 . S
C1101 C1102 1.524 . S
C1101 H1104 0.999 . S
C1102 H1072 0.950 . S
C1102 C1101 1.524 . S
C1102 C1103 1.415 . S
C1103 H1073 0.950 . S
C1103 C1098 1.363 . S
C1103 C1102 1.415 . S
H1104 C1101 0.999 . S
H1105 C1086 0.913 . S
H1106 C1124 0.951 . S
H1107 C1126 0.951 . S
H1108 C1128 0.950 . S
H1109 C1129 0.950 . S
H1110 C1131 0.950 . S
H1111 C1134 0.950 . S
H1112 C1135 0.950 . S
H1113 C1137 0.950 . S
H1114 C1138 0.950 . S
H1115 C1139 0.951 . S
H1116 C1141 0.951 . S
H1117 C1143 0.950 . S
H1118 C1144 0.950 . S
H1119 C1146 0.950 . S
H1120 C1149 0.950 . S
H1121 C1150 0.950 . S
H1122 C1152 0.950 . S
H1123 C1153 0.950 . S
C1124 H1106 0.951 . S
C1124 C1125 1.366 . S
C1124 C1126 1.388 . S
C1125 C1124 1.366 . S
C1125 C1129 1.385 . S
C1126 H1107 0.951 . S
C1126 C1124 1.388 . S
C1126 C1127 1.366 . S
C1127 C1126 1.366 . S
C1127 C1128 1.414 . S
C1127 C1130 1.499 . S
C1128 H1108 0.950 . S
C1128 C1127 1.414 . S
C1128 C1129 1.374 . S
C1129 H1109 0.950 . S
C1129 C1125 1.385 . S
C1129 C1128 1.374 . S
C1130 C1127 1.499 . S
C1130 C1131 1.373 . S
C1130 C1132 1.389 . S
C1131 H1110 0.950 . S
C1131 C1130 1.373 . S
C1131 C1147 1.377 . S
C1132 C1130 1.389 . S
C1132 C1133 1.524 . S
C1132 C1146 1.377 . S
C1133 C1132 1.524 . S
C1133 C1134 1.397 . S
C1133 C1138 1.363 . S
C1134 H1111 0.950 . S
C1134 C1133 1.397 . S
C1134 C1135 1.334 . S
C1135 H1112 0.950 . S
C1135 C1134 1.334 . S
C1135 C1136 1.287 . S
C1136 C1135 1.287 . S
C1136 C1137 1.524 . S
C1136 H1155 0.913 . S
C1137 H1113 0.950 . S
C1137 C1136 1.524 . S
C1137 C1138 1.415 . S
C1138 H1114 0.950 . S
C1138 C1133 1.363 . S
C1138 C1137 1.415 . S
C1139 H1115 0.951 . S
C1139 C1140 1.366 . S
C1139 C1141 1.388 . S
C1140 C1139 1.366 . S
C1140 C1144 1.385 . S
C1141 H1116 0.951 . S
C1141 C1139 1.388 . S
C1141 C1142 1.366 . S
C1142 C1141 1.366 . S
C1142 C1143 1.414 . S
C1142 C1145 1.499 . S
C1143 H1117 0.950 . S
C1143 C1142 1.414 . S
C1143 C1144 1.374 . S
C1144 H1118 0.950 . S
C1144 C1140 1.385 . S
C1144 C1143 1.374 . S
C1145 C1142 1.499 . S
C1145 C1146 1.373 . S
C1145 C1147 1.389 . S
C1146 H1119 0.950 . S
C1146 C1132 1.377 . S
C1146 C1145 1.373 . S
C1147 C1131 1.377 . S
C1147 C1145 1.389 . S
C1147 C1148 1.524 . S
C1148 C1147 1.524 . S
C1148 C1149 1.397 . S
C1148 C1153 1.363 . S
C1149 H1120 0.950 . S
C1149 C1148 1.397 . S
C1149 C1150 1.334 . S
C1150 H1121 0.950 . S
C1150 C1149 1.334 . S
C1150 C1151 1.287 . S
C1151 C1150 1.287 . S
C1151 C1152 1.524 . S
C1151 H1154 0.999 . S
C1152 H1122 0.950 . S
C1152 C1151 1.524 . S
C1152 C1153 1.415 . S
C1153 H1123 0.950 . S
C1153 C1148 1.363 . S
C1153 C1152 1.415 . S
H1154 C1151 0.999 . S
H1155 C1136 0.913 . S
H1156 C1174 0.951 . S
H1157 C1176 0.951 . S
H1158 C1178 0.950 . S
H1159 C1179 0.950 . S
H1160 C1181 0.950 . S
H1161 C1184 0.950 . S
H1162 C1185 0.950 . S
H1163 C1187 0.950 . S
H1164 C1188 0.950 . S
H1165 C1189 0.951 . S
H1166 C1191 0.951 . S
H1167 C1193 0.950 . S
H1168 C1194 0.950 . S
H1169 C1196 0.950 . S
H1170 C1199 0.950 . S
H1171 C1200 0.950 . S
H1172 C1202 0.950 . S
H1173 C1203 0.950 . S
C1174 H1156 0.951 . S
C1174 C1175 1.366 . S
C1174 C1176 1.388 . S
C1175 C1174 1.366 . S
C1175 C1179 1.385 . S
C1176 H1157 0.951 . S
C1176 C1174 1.388 . S
C1176 C1177 1.366 . S
C1177 C1176 1.366 . S
C1177 C1178 1.414 . S
C1177 C1180 1.499 . S
C1178 H1158 0.950 . S
C1178 C1177 1.414 . S
C1178 C1179 1.374 . S
C1179 H1159 0.950 . S
C1179 C1175 1.385 . S
C1179 C1178 1.374 . S
C1180 C1177 1.499 . S
C1180 C1181 1.373 . S
C1180 C1182 1.389 . S
C1181 H1160 0.950 . S
C1181 C1180 1.373 . S
C1181 C1197 1.377 . S
C1182 C1180 1.389 . S
C1182 C1183 1.524 . S
C1182 C1196 1.377 . S
C1183 C1182 1.524 . S
C1183 C1184 1.397 . S
C1183 C1188 1.363 . S
C1184 H1161 0.950 . S
C1184 C1183 1.397 . S
C1184 C1185 1.334 . S
C1185 H1162 0.950 . S
C1185 C1184 1.334 . S
C1185 C1186 1.287 . S
C1186 C1185 1.287 . S
C1186 C1187 1.524 . S
C1186 H1205 0.913 . S
C1187 H1163 0.950 . S
C1187 C1186 1.524 . S
C1187 C1188 1.415 . S
C1188 H1164 0.950 . S
C1188 C1183 1.363 . S
C1188 C1187 1.415 . S
C1189 H1165 0.951 . S
C1189 C1190 1.366 . S
C1189 C1191 1.388 . S
C1190 C1189 1.366 . S
C1190 C1194 1.385 . S
C1191 H1166 0.951 . S
C1191 C1189 1.388 . S
C1191 C1192 1.366 . S
C1192 C1191 1.366 . S
C1192 C1193 1.414 . S
C1192 C1195 1.499 . S
C1193 H1167 0.950 . S
C1193 C1192 1.414 . S
C1193 C1194 1.374 . S
C1194 H1168 0.950 . S
C1194 C1190 1.385 . S
C1194 C1193 1.374 . S
C1195 C1192 1.499 . S
C1195 C1196 1.373 . S
C1195 C1197 1.389 . S
C1196 H1169 0.950 . S
C1196 C1182 1.377 . S
C1196 C1195 1.373 . S
C1197 C1181 1.377 . S
C1197 C1195 1.389 . S
C1197 C1198 1.524 . S
C1198 C1197 1.524 . S
C1198 C1199 1.397 . S
C1198 C1203 1.363 . S
C1199 H1170 0.950 . S
C1199 C1198 1.397 . S
C1199 C1200 1.334 . S
C1200 H1171 0.950 . S
C1200 C1199 1.334 . S
C1200 C1201 1.287 . S
C1201 C1200 1.287 . S
C1201 C1202 1.524 . S
C1201 H1204 0.999 . S
C1202 H1172 0.950 . S
C1202 C1201 1.524 . S
C1202 C1203 1.415 . S
C1203 H1173 0.950 . S
C1203 C1198 1.363 . S
C1203 C1202 1.415 . S
H1204 C1201 0.999 . S
H1205 C1186 0.913 . S
H1206 C1224 0.951 . S
H1207 C1226 0.951 . S
H1208 C1228 0.950 . S
H1209 C1229 0.950 . S
H1210 C1231 0.950 . S
H1211 C1234 0.950 . S
H1212 C1235 0.950 . S
H1213 C1237 0.950 . S
H1214 C1238 0.950 . S
H1215 C1239 0.951 . S
H1216 C1241 0.951 . S
H1217 C1243 0.950 . S
H1218 C1244 0.950 . S
H1219 C1246 0.950 . S
H1220 C1249 0.950 . S
H1221 C1250 0.950 . S
H1222 C1252 0.950 . S
H1223 C1253 0.950 . S
C1224 H1206 0.951 . S
C1224 C1225 1.366 . S
C1224 C1226 1.388 . S
C1225 C1224 1.366 . S
C1225 C1229 1.385 . S
C1226 H1207 0.951 . S
C1226 C1224 1.388 . S
C1226 C1227 1.366 . S
C1227 C1226 1.366 . S
C1227 C1228 1.414 . S
C1227 C1230 1.499 . S
C1228 H1208 0.950 . S
C1228 C1227 1.414 . S
C1228 C1229 1.374 . S
C1229 H1209 0.950 . S
C1229 C1225 1.385 . S
C1229 C1228 1.374 . S
C1230 C1227 1.499 . S
C1230 C1231 1.373 . S
C1230 C1232 1.389 . S
C1231 H1210 0.950 . S
C1231 C1230 1.373 . S
C1231 C1247 1.377 . S
C1232 C1230 1.389 . S
C1232 C1233 1.524 . S
C1232 C1246 1.377 . S
C1233 C1232 1.524 . S
C1233 C1234 1.397 . S
C1233 C1238 1.363 . S
C1234 H1211 0.950 . S
C1234 C1233 1.397 . S
C1234 C1235 1.334 . S
C1235 H1212 0.950 . S
C1235 C1234 1.334 . S
C1235 C1236 1.287 . S
C1236 C1235 1.287 . S
C1236 C1237 1.524 . S
C1236 H1255 0.913 . S
C1237 H1213 0.950 . S
C1237 C1236 1.524 . S
C1237 C1238 1.415 . S
C1238 H1214 0.950 . S
C1238 C1233 1.363 . S
C1238 C1237 1.415 . S
C1239 H1215 0.951 . S
C1239 C1240 1.366 . S
C1239 C1241 1.388 . S
C1240 C1239 1.366 . S
C1240 C1244 1.385 . S
C1241 H1216 0.951 . S
C1241 C1239 1.388 . S
C1241 C1242 1.366 . S
C1242 C1241 1.366 . S
C1242 C1243 1.414 . S
C1242 C1245 1.499 . S
C1243 H1217 0.950 . S
C1243 C1242 1.414 . S
C1243 C1244 1.374 . S
C1244 H1218 0.950 . S
C1244 C1240 1.385 . S
C1244 C1243 1.374 . S
C1245 C1242 1.499 . S
C1245 C1246 1.373 . S
C1245 C1247 1.389 . S
C1246 H1219 0.950 . S
C1246 C1232 1.377 . S
C1246 C1245 1.373 . S
C1247 C1231 1.377 . S
C1247 C1245 1.389 . S
C1247 C1248 1.524 . S
C1248 C1247 1.524 . S
C1248 C1249 1.397 . S
C1248 C1253 1.363 . S
C1249 H1220 0.950 . S
C1249 C1248 1.397 . S
C1249 C1250 1.334 . S
C1250 H1221 0.950 . S
C1250 C1249 1.334 . S
C1250 C1251 1.287 . S
C1251 C1250 1.287 . S
C1251 C1252 1.524 . S
C1251 H1254 0.999 . S
C1252 H1222 0.950 . S
C1252 C1251 1.524 . S
C1252 C1253 1.415 . S
C1253 H1223 0.950 . S
C1253 C1248 1.363 . S
C1253 C1252 1.415 . S
H1254 C1251 0.999 . S
H1255 C1236 0.913 . S
H1256 C1274 0.951 . S
H1257 C1276 0.951 . S
H1258 C1278 0.950 . S
H1259 C1279 0.950 . S
H1260 C1281 0.950 . S
H1261 C1284 0.950 . S
H1262 C1285 0.950 . S
H1263 C1287 0.950 . S
H1264 C1288 0.950 . S
H1265 C1289 0.951 . S
H1266 C1291 0.951 . S
H1267 C1293 0.950 . S
H1268 C1294 0.950 . S
H1269 C1296 0.950 . S
H1270 C1299 0.950 . S
H1271 C1300 0.950 . S
H1272 C1302 0.950 . S
H1273 C1303 0.950 . S
C1274 H1256 0.951 . S
C1274 C1275 1.366 . S
C1274 C1276 1.388 . S
C1275 C1274 1.366 . S
C1275 C1279 1.385 . S
C1276 H1257 0.951 . S
C1276 C1274 1.388 . S
C1276 C1277 1.366 . S
C1277 C1276 1.366 . S
C1277 C1278 1.414 . S
C1277 C1280 1.499 . S
C1278 H1258 0.950 . S
C1278 C1277 1.414 . S
C1278 C1279 1.374 . S
C1279 H1259 0.950 . S
C1279 C1275 1.385 . S
C1279 C1278 1.374 . S
C1280 C1277 1.499 . S
C1280 C1281 1.373 . S
C1280 C1282 1.389 . S
C1281 H1260 0.950 . S
C1281 C1280 1.373 . S
C1281 C1297 1.377 . S
C1282 C1280 1.389 . S
C1282 C1283 1.524 . S
C1282 C1296 1.377 . S
C1283 C1282 1.524 . S
C1283 C1284 1.397 . S
C1283 C1288 1.363 . S
C1284 H1261 0.950 . S
C1284 C1283 1.397 . S
C1284 C1285 1.334 . S
C1285 H1262 0.950 . S
C1285 C1284 1.334 . S
C1285 C1286 1.287 . S
C1286 C1285 1.287 . S
C1286 C1287 1.524 . S
C1286 H1305 0.913 . S
C1287 H1263 0.950 . S
C1287 C1286 1.524 . S
C1287 C1288 1.415 . S
C1288 H1264 0.950 . S
C1288 C1283 1.363 . S
C1288 C1287 1.415 . S
C1289 H1265 0.951 . S
C1289 C1290 1.366 . S
C1289 C1291 1.388 . S
C1290 C1289 1.366 . S
C1290 C1294 1.385 . S
C1291 H1266 0.951 . S
C1291 C1289 1.388 . S
C1291 C1292 1.366 . S
C1292 C1291 1.366 . S
C1292 C1293 1.414 . S
C1292 C1295 1.499 . S
C1293 H1267 0.950 . S
C1293 C1292 1.414 . S
C1293 C1294 1.374 . S
C1294 H1268 0.950 . S
C1294 C1290 1.385 . S
C1294 C1293 1.374 . S
C1295 C1292 1.499 . S
C1295 C1296 1.373 . S
C1295 C1297 1.389 . S
C1296 H1269 0.950 . S
C1296 C1282 1.377 . S
C1296 C1295 1.373 . S
C1297 C1281 1.377 . S
C1297 C1295 1.389 . S
C1297 C1298 1.524 . S
C1298 C1297 1.524 . S
C1298 C1299 1.397 . S
C1298 C1303 1.363 . S
C1299 H1270 0.950 . S
C1299 C1298 1.397 . S
C1299 C1300 1.334 . S
C1300 H1271 0.950 . S
C1300 C1299 1.334 . S
C1300 C1301 1.287 . S
C1301 C1300 1.287 . S
C1301 C1302 1.524 . S
C1301 H1304 0.999 . S
C1302 H1272 0.950 . S
C1302 C1301 1.524 . S
C1302 C1303 1.415 . S
C1303 H1273 0.950 . S
C1303 C1298 1.363 . S
C1303 C1302 1.415 . S
H1304 C1301 0.999 . S
H1305 C1286 0.913 . S
H1306 C1324 0.951 . S
H1307 C1326 0.951 . S
H1308 C1328 0.950 . S
H1309 C1329 0.950 . S
H1310 C1331 0.950 . S
H1311 C1334 0.950 . S
H1312 C1335 0.950 . S
H1313 C1337 0.950 . S
H1314 C1338 0.950 . S
H1315 C1339 0.951 . S
H1316 C1341 0.951 . S
H1317 C1343 0.950 . S
H1318 C1344 0.950 . S
H1319 C1346 0.950 . S
H1320 C1349 0.950 . S
H1321 C1350 0.950 . S
H1322 C1352 0.950 . S
H1323 C1353 0.950 . S
C1324 H1306 0.951 . S
C1324 C1325 1.366 . S
C1324 C1326 1.388 . S
C1325 C1324 1.366 . S
C1325 C1329 1.385 . S
C1326 H1307 0.951 . S
C1326 C1324 1.388 . S
C1326 C1327 1.366 . S
C1327 C1326 1.366 . S
C1327 C1328 1.414 . S
C1327 C1330 1.499 . S
C1328 H1308 0.950 . S
C1328 C1327 1.414 . S
C1328 C1329 1.374 . S
C1329 H1309 0.950 . S
C1329 C1325 1.385 . S
C1329 C1328 1.374 . S
C1330 C1327 1.499 . S
C1330 C1331 1.373 . S
C1330 C1332 1.389 . S
C1331 H1310 0.950 . S
C1331 C1330 1.373 . S
C1331 C1347 1.377 . S
C1332 C1330 1.389 . S
C1332 C1333 1.524 . S
C1332 C1346 1.377 . S
C1333 C1332 1.524 . S
C1333 C1334 1.397 . S
C1333 C1338 1.363 . S
C1334 H1311 0.950 . S
C1334 C1333 1.397 . S
C1334 C1335 1.334 . S
C1335 H1312 0.950 . S
C1335 C1334 1.334 . S
C1335 C1336 1.287 . S
C1336 C1335 1.287 . S
C1336 C1337 1.524 . S
C1336 H1355 0.913 . S
C1337 H1313 0.950 . S
C1337 C1336 1.524 . S
C1337 C1338 1.415 . S
C1338 H1314 0.950 . S
C1338 C1333 1.363 . S
C1338 C1337 1.415 . S
C1339 H1315 0.951 . S
C1339 C1340 1.366 . S
C1339 C1341 1.388 . S
C1340 C1339 1.366 . S
C1340 C1344 1.385 . S
C1341 H1316 0.951 . S
C1341 C1339 1.388 . S
C1341 C1342 1.366 . S
C1342 C1341 1.366 . S
C1342 C1343 1.414 . S
C1342 C1345 1.499 . S
C1343 H1317 0.950 . S
C1343 C1342 1.414 . S
C1343 C1344 1.374 . S
C1344 H1318 0.950 . S
C1344 C1340 1.385 . S
C1344 C1343 1.374 . S
C1345 C1342 1.499 . S
C1345 C1346 1.373 . S
C1345 C1347 1.389 . S
C1346 H1319 0.950 . S
C1346 C1332 1.377 . S
C1346 C1345 1.373 . S
C1347 C1331 1.377 . S
C1347 C1345 1.389 . S
C1347 C1348 1.524 . S
C1348 C1347 1.524 . S
C1348 C1349 1.397 . S
C1348 C1353 1.363 . S
C1349 H1320 0.950 . S
C1349 C1348 1.397 . S
C1349 C1350 1.334 . S
C1350 H1321 0.950 . S
C1350 C1349 1.334 . S
C1350 C1351 1.287 . S
C1351 C1350 1.287 . S
C1351 C1352 1.524 . S
C1351 H1354 0.999 . S
C1352 H1322 0.950 . S
C1352 C1351 1.524 . S
C1352 C1353 1.415 . S
C1353 H1323 0.950 . S
C1353 C1348 1.363 . S
C1353 C1352 1.415 . S
H1354 C1351 0.999 . S
H1355 C1336 0.913 . S
C175 C8 0.463 . S
C190 C138 0.456 . S
C225 C151 1.044 . S
C240 C21 0.660 . S
C275 C86 0.657 . S
C290 C34 1.045 . S
C325 C47 0.458 . S
C340 C99 0.461 . S
C375 C60 1.252 . S
C390 C112 1.118 . S
C425 C125 1.252 . S
C440 C73 1.119 . S
C475 C5 0.617 . S
C490 C96 0.620 . S
C525 C109 1.251 . S
C540 C18 0.910 . S
C575 C122 0.510 . S
C590 C31 0.507 . S
C625 C44 0.622 . S
C640 C135 0.626 . S
C675 C148 0.509 . S
C690 C57 0.508 . S
C725 C70 1.252 . S
C740 C83 0.910 . S
C775 C49 0.649 . S
C790 C10 0.659 . S
C825 C62 0.645 . S
C840 C23 0.444 . S
C875 C75 0.622 . S
C890 C36 0.777 . S
C925 C88 0.441 . S
C940 C127 0.648 . S
C975 C101 0.659 . S
C990 C140 0.647 . S
C1025 C114 0.621 . S
C1040 C153 0.777 . S
C1075 C104 1.366 . S
C1090 C0 1.353 . S
C1125 C117 1.635 . S
C1140 C13 1.499 . S
C1175 C130 1.397 . S
C1190 C26 1.410 . S
C1225 C143 1.411 . S
C1240 C39 1.397 . S
C1275 C78 1.498 . S
C1290 C52 1.634 . S
C1325 C65 1.366 . S
C1340 C91 1.353 . S
