# Generated by pormake.
# Topology npo, (4)-cn, num edge types: 1
# Building blocks:
#     Node 0, Type 0, BuildingBlock: ICAMEG_clean_sbu_1, # of connection points: 4
#     Node 1, Type 0, BuildingBlock: ICAMEG_clean_sbu_1, # of connection points: 4
#     Node 2, Type 0, BuildingBlock: ICAMEG_clean_sbu_1, # of connection points: 4
#     Node 3, Type 0, BuildingBlock: ICAMEG_clean_sbu_1, # of connection points: 4
#     Node 4, Type 0, BuildingBlock: ICAMEG_clean_sbu_1, # of connection points: 4
#     Node 5, Type 0, BuildingBlock: ICAMEG_clean_sbu_1, # of connection points: 4
#     Edge 6, Type (0, 0), BuildingBlock: ZUJKAS_clean_linker_0, # of connection points: 2
#     Edge 7, Type (0, 0), BuildingBlock: ZUJKAS_clean_linker_0, # of connection points: 2
#     Edge 8, Type (0, 0), BuildingBlock: ZUJKAS_clean_linker_0, # of connection points: 2
#     Edge 9, Type (0, 0), BuildingBlock: ZUJKAS_clean_linker_0, # of connection points: 2
#     Edge 10, Type (0, 0), BuildingBlock: ZUJKAS_clean_linker_0, # of connection points: 2
#     Edge 11, Type (0, 0), BuildingBlock: ZUJKAS_clean_linker_0, # of connection points: 2
#     Edge 12, Type (0, 0), BuildingBlock: ZUJKAS_clean_linker_0, # of connection points: 2
#     Edge 13, Type (0, 0), BuildingBlock: ZUJKAS_clean_linker_0, # of connection points: 2
#     Edge 14, Type (0, 0), BuildingBlock: ZUJKAS_clean_linker_0, # of connection points: 2
#     Edge 15, Type (0, 0), BuildingBlock: ZUJKAS_clean_linker_0, # of connection points: 2
#     Edge 16, Type (0, 0), BuildingBlock: ZUJKAS_clean_linker_0, # of connection points: 2
#     Edge 17, Type (0, 0), BuildingBlock: ZUJKAS_clean_linker_0, # of connection points: 2
# Relax obj value: 0.245
# Max RMSD: 0.244
# Mean RMSD: 0.244
data_MOF--net-npo--node1-ICAMEG_clean_sbu_1--edge1-ZUJKAS_clean_linker_0
_symmetry_space_group_name_H-M    P1
_symmetry_Int_Tables_number       1
_symmetry_cell_setting            triclinic
loop_
_symmetry_equiv_pos_as_xyz
'x, y, z'
_cell_length_a     59.195456
_cell_length_b     59.227657
_cell_length_c     33.24465
_cell_angle_alpha  90.091061
_cell_angle_beta   90.071972
_cell_angle_gamma 119.97625
loop_
_atom_site_label
_atom_site_type_symbol
_atom_site_fract_x
_atom_site_fract_y
_atom_site_fract_z
_atom_type_partial_charge
Co0 Co 0.56238 0.11756 0.21007 0.0
Co1 Co 0.56011 0.11758 0.31393 0.0
O2 O 0.55137 0.09973 0.26184 0.0
C3 C 0.51298 0.09695 0.16447 0.0
O4 O 0.5183 0.1212 0.16071 0.0
C5 C 0.58369 0.09114 0.35851 0.0
O6 O 0.60457 0.11417 0.36313 0.0
O7 O 0.59795 0.13809 0.29919 0.0
O8 O 0.59717 0.14302 0.23231 0.0
H9 H 0.60425 0.1952 0.40599 0.0
H10 H 0.54085 0.06044 0.21478 0.0
O11 O 0.52754 0.0918 0.18642 0.0
H12 H 0.62916 0.09552 0.15863 0.0
H13 H 0.57175 0.12195 0.05901 0.0
H14 H 0.59023 0.17283 0.18444 0.0
H15 H 0.61221 0.12483 0.17547 0.0
H16 H 0.55812 0.09977 0.12455 0.0
O17 O 0.56479 0.08878 0.3369 0.0
H18 H 0.59294 0.17238 0.34061 0.0
H19 H 0.54514 0.10011 0.39908 0.0
H20 H 0.60434 0.1958 0.11955 0.0
H21 H 0.55688 0.03036 0.19781 0.0
H22 H 0.59508 0.17032 0.05623 0.0
H23 H 0.60136 0.04787 0.16959 0.0
O24 O 0.5492 0.14167 0.22525 0.0
H25 H 0.47239 0.03643 0.32473 0.0
H26 H 0.5219 0.13126 0.34862 0.0
H27 H 0.47506 0.10663 0.36497 0.0
H28 H 0.45 0.05882 0.35322 0.0
H29 H 0.5192 0.06189 0.30828 0.0
H30 H 0.55601 0.12213 0.46508 0.0
H31 H 0.58575 0.17003 0.46883 0.0
O32 O 0.55512 0.14607 0.2922 0.0
C33 C 0.60914 0.14833 0.26591 0.0
C34 C 0.59127 0.17432 0.40475 0.0
C35 C 0.5642 0.13332 0.43792 0.0
N36 N 0.56846 0.13494 0.36599 0.0
C37 C 0.5848 0.16129 0.36782 0.0
C38 C 0.55814 0.12095 0.40045 0.0
C39 C 0.58089 0.16019 0.44 0.0
C40 C 0.56017 0.06821 0.20227 0.0
N41 N 0.57554 0.09439 0.19603 0.0
C42 C 0.56917 0.05108 0.19283 0.0
C43 C 0.59413 0.06092 0.17705 0.0
C44 C 0.60975 0.08765 0.17093 0.0
C45 C 0.6001 0.10419 0.18073 0.0
C46 C 0.57591 0.13328 0.08639 0.0
C47 C 0.58615 0.1616 0.15703 0.0
C48 C 0.56821 0.12083 0.1236 0.0
N49 N 0.57332 0.13499 0.15834 0.0
C50 C 0.59419 0.17472 0.12037 0.0
C51 C 0.58899 0.16041 0.08485 0.0
C52 C 0.54968 0.15263 0.25865 0.0
C53 C 0.48311 0.05724 0.33007 0.0
C54 C 0.5111 0.11053 0.34307 0.0
C55 C 0.4846 0.09665 0.35257 0.0
C56 C 0.47055 0.06982 0.34601 0.0
N57 N 0.52333 0.09804 0.32762 0.0
C58 C 0.50965 0.07176 0.32093 0.0
Co59 Co 0.4544 0.57457 0.70417 0.0
Co60 Co 0.42917 0.55067 0.79906 0.0
O61 O 0.45169 0.55463 0.75298 0.0
C62 C 0.43751 0.52155 0.67016 0.0
O63 O 0.42107 0.51072 0.70001 0.0
C64 C 0.48229 0.571 0.83701 0.0
O65 O 0.49414 0.58291 0.80375 0.0
O66 O 0.43998 0.58867 0.79869 0.0
O67 O 0.45705 0.60346 0.73748 0.0
H68 H 0.36133 0.56197 0.87262 0.0
H69 H 0.48964 0.55298 0.71477 0.0
O70 O 0.45209 0.54619 0.66858 0.0
H71 H 0.54753 0.64814 0.70514 0.0
H72 H 0.48724 0.61016 0.56562 0.0
H73 H 0.43222 0.60748 0.67883 0.0
H74 H 0.49981 0.6287 0.70001 0.0
H75 H 0.48339 0.58486 0.62663 0.0
O76 O 0.45752 0.55789 0.83872 0.0
H77 H 0.39022 0.56702 0.81582 0.0
H78 H 0.41962 0.52495 0.87944 0.0
H79 H 0.43579 0.6333 0.61863 0.0
H80 H 0.53729 0.57155 0.71955 0.0
H81 H 0.46342 0.63471 0.56141 0.0
H82 H 0.56656 0.61947 0.71487 0.0
O83 O 0.41556 0.55925 0.70066 0.0
H84 H 0.4442 0.47438 0.79501 0.0
H85 H 0.37789 0.50135 0.80333 0.0
H86 H 0.36395 0.45454 0.80229 0.0
H87 H 0.39725 0.4408 0.79819 0.0
H88 H 0.45723 0.52097 0.79572 0.0
H89 H 0.39123 0.51968 0.93708 0.0
H90 H 0.36174 0.53817 0.93383 0.0
O91 O 0.40011 0.54315 0.76203 0.0
C92 C 0.45057 0.60676 0.77249 0.0
C93 C 0.37408 0.5538 0.87438 0.0
C94 C 0.39088 0.53009 0.91058 0.0
N95 N 0.40658 0.54627 0.84424 0.0
C96 C 0.39046 0.55656 0.84228 0.0
C97 C 0.40698 0.53323 0.87789 0.0
C98 C 0.37433 0.54046 0.90873 0.0
C99 C 0.50228 0.57383 0.71237 0.0
N100 N 0.49196 0.58974 0.70712 0.0
C101 C 0.52923 0.58424 0.71525 0.0
C102 C 0.54564 0.61113 0.71268 0.0
C103 C 0.53497 0.62723 0.70727 0.0
C104 C 0.50793 0.61613 0.70458 0.0
C105 C 0.47511 0.60966 0.59032 0.0
C106 C 0.44434 0.60804 0.65412 0.0
C107 C 0.47275 0.59526 0.62487 0.0
N108 N 0.45756 0.59464 0.65626 0.0
C109 C 0.44626 0.62267 0.62008 0.0
C110 C 0.46175 0.62345 0.58799 0.0
C111 C 0.3969 0.54764 0.72573 0.0
C112 C 0.42951 0.48012 0.79688 0.0
C113 C 0.39247 0.49552 0.80133 0.0
C114 C 0.38447 0.46899 0.80088 0.0
C115 C 0.40316 0.46129 0.79862 0.0
N116 N 0.41835 0.51388 0.79969 0.0
C117 C 0.43678 0.50648 0.79744 0.0
Co118 Co 0.88155 0.43827 0.29332 0.0
Co119 Co 0.87616 0.43842 0.19027 0.0
O120 O 0.89747 0.44803 0.23957 0.0
C121 C 0.90826 0.48777 0.33921 0.0
O122 O 0.88521 0.48548 0.34436 0.0
C123 C 0.92091 0.42944 0.16845 0.0
O124 O 0.92606 0.42745 0.20624 0.0
O125 O 0.85776 0.401 0.20637 0.0
O126 O 0.85256 0.40445 0.27248 0.0
H127 H 0.7922 0.39175 0.1124 0.0
H128 H 0.93753 0.45461 0.28505 0.0
O129 O 0.91065 0.47183 0.31609 0.0
H130 H 0.89563 0.36472 0.33686 0.0
H131 H 0.88205 0.42833 0.44399 0.0
H132 H 0.82765 0.41583 0.32434 0.0
H133 H 0.86971 0.38605 0.32414 0.0
H134 H 0.90187 0.44009 0.3766 0.0
O135 O 0.90229 0.43335 0.15915 0.0
H136 H 0.81971 0.40472 0.1733 0.0
H137 H 0.88716 0.45115 0.1029 0.0
H138 H 0.80704 0.40374 0.39117 0.0
H139 H 0.9643 0.43419 0.29813 0.0
H140 H 0.8343 0.41 0.45161 0.0
H141 H 0.94333 0.38887 0.32406 0.0
O142 O 0.86017 0.45512 0.28197 0.0
H143 H 0.95501 0.5268 0.16976 0.0
H144 H 0.85917 0.47511 0.15988 0.0
H145 H 0.88177 0.52159 0.1414 0.0
H146 H 0.93007 0.54776 0.14608 0.0
H147 H 0.93157 0.48034 0.18845 0.0
H148 H 0.86039 0.43849 0.04124 0.0
H149 H 0.81253 0.40867 0.04576 0.0
O150 O 0.84907 0.44334 0.2178 0.0
C151 C 0.84703 0.39117 0.24006 0.0
C152 C 0.81303 0.4048 0.11005 0.0
C153 C 0.8513 0.43101 0.0701 0.0
N154 N 0.85501 0.42877 0.14175 0.0
C155 C 0.82871 0.41225 0.14445 0.0
C156 C 0.86637 0.43804 0.10514 0.0
C157 C 0.82445 0.41428 0.07266 0.0
C158 C 0.9283 0.43498 0.29672 0.0
N159 N 0.90206 0.42157 0.30379 0.0
C160 C 0.94354 0.42347 0.3039 0.0
C161 C 0.93176 0.39803 0.31837 0.0
C162 C 0.90499 0.38446 0.3255 0.0
C163 C 0.89037 0.39659 0.31798 0.0
C164 C 0.86996 0.42551 0.41789 0.0
C165 C 0.83966 0.4186 0.35047 0.0
C166 C 0.88107 0.43214 0.37963 0.0
N167 N 0.86594 0.42869 0.3465 0.0
C168 C 0.82787 0.41171 0.38825 0.0
C169 C 0.84317 0.41523 0.42214 0.0
C170 C 0.84623 0.45232 0.25102 0.0
C171 C 0.93396 0.51559 0.16747 0.0
C172 C 0.88016 0.48637 0.16227 0.0
C173 C 0.89286 0.51268 0.15162 0.0
C174 C 0.91996 0.52734 0.15423 0.0
N175 N 0.89403 0.47493 0.17501 0.0
C176 C 0.92059 0.48923 0.17787 0.0
Co177 Co 0.45079 0.88259 0.80772 0.0
Co178 Co 0.42494 0.87839 0.71239 0.0
O179 O 0.44736 0.89821 0.75775 0.0
C180 C 0.43309 0.91816 0.84123 0.0
O181 O 0.41278 0.90779 0.81709 0.0
C182 C 0.47748 0.90911 0.67458 0.0
O183 O 0.48799 0.90447 0.706 0.0
O184 O 0.4373 0.85241 0.714 0.0
O185 O 0.45254 0.85489 0.77684 0.0
H186 H 0.35816 0.79719 0.64147 0.0
H187 H 0.48625 0.9387 0.7912 0.0
O188 O 0.44965 0.91043 0.84029 0.0
H189 H 0.54356 0.901 0.80639 0.0
H190 H 0.48554 0.88494 0.94703 0.0
H191 H 0.42896 0.82853 0.83779 0.0
H192 H 0.49593 0.87355 0.81427 0.0
H193 H 0.48073 0.90409 0.88405 0.0
O194 O 0.45297 0.90015 0.67296 0.0
H195 H 0.38732 0.82247 0.69738 0.0
H196 H 0.4142 0.89259 0.63124 0.0
H197 H 0.43346 0.80856 0.90006 0.0
H198 H 0.5338 0.96695 0.7835 0.0
H199 H 0.4619 0.83683 0.95526 0.0
H200 H 0.56279 0.94809 0.79094 0.0
O201 O 0.41197 0.85945 0.81268 0.0
H202 H 0.43564 0.96806 0.71326 0.0
H203 H 0.37245 0.87381 0.70807 0.0
H204 H 0.35647 0.9051 0.70798 0.0
H205 H 0.38818 0.95262 0.7105 0.0
H206 H 0.45076 0.93606 0.71369 0.0
H207 H 0.38559 0.868 0.57438 0.0
H208 H 0.35719 0.81996 0.57937 0.0
O209 O 0.39649 0.85655 0.74988 0.0
C210 C 0.44708 0.84498 0.74175 0.0
C211 C 0.37045 0.81811 0.63892 0.0
C212 C 0.38587 0.85785 0.60125 0.0
N213 N 0.40248 0.85898 0.6676 0.0
C214 C 0.38699 0.83255 0.6705 0.0
C215 C 0.40213 0.87166 0.63347 0.0
C216 C 0.36992 0.8309 0.60409 0.0
C217 C 0.49876 0.93039 0.79477 0.0
N218 N 0.48833 0.90448 0.80309 0.0
C219 C 0.52566 0.94647 0.79025 0.0
C220 C 0.54191 0.93586 0.79438 0.0
C221 C 0.53113 0.90944 0.803 0.0
C222 C 0.50414 0.89396 0.80725 0.0
C223 C 0.47308 0.87241 0.9232 0.0
C224 C 0.44144 0.84097 0.8616 0.0
C225 C 0.47019 0.88315 0.88753 0.0
N226 N 0.4546 0.86745 0.85721 0.0
C227 C 0.44388 0.82955 0.89683 0.0
C228 C 0.45982 0.84542 0.92779 0.0
C229 C 0.39341 0.8507 0.78699 0.0
C230 C 0.42164 0.94741 0.71207 0.0
C231 C 0.38636 0.89445 0.70936 0.0
C232 C 0.3772 0.91208 0.70917 0.0
C233 C 0.395 0.93873 0.71056 0.0
N234 N 0.41251 0.90311 0.71077 0.0
C235 C 0.43008 0.92921 0.71218 0.0
Co236 Co 0.55562 0.43086 0.19512 0.0
Co237 Co 0.56193 0.44511 0.29742 0.0
O238 O 0.54878 0.44582 0.24331 0.0
C239 C 0.57027 0.48536 0.16896 0.0
O240 O 0.5772 0.4945 0.20562 0.0
C241 C 0.51428 0.41967 0.34733 0.0
O242 O 0.52053 0.40178 0.35544 0.0
O243 O 0.54965 0.40694 0.29255 0.0
O244 O 0.54912 0.39954 0.22614 0.0
H245 H 0.60969 0.42197 0.39959 0.0
H246 H 0.51669 0.44839 0.19362 0.0
O247 O 0.56185 0.46139 0.16135 0.0
H248 H 0.46822 0.35576 0.15387 0.0
H249 H 0.54977 0.40827 0.04777 0.0
H250 H 0.58482 0.40311 0.17994 0.0
H251 H 0.51528 0.37738 0.1689 0.0
H252 H 0.54084 0.42671 0.10818 0.0
O253 O 0.52757 0.43739 0.32156 0.0
H254 H 0.59265 0.42282 0.33223 0.0
H255 H 0.55982 0.46718 0.37755 0.0
H256 H 0.59399 0.38419 0.12034 0.0
H257 H 0.46972 0.42771 0.17827 0.0
H258 H 0.57643 0.38672 0.05365 0.0
H259 H 0.44514 0.38103 0.15835 0.0
O260 O 0.59376 0.44811 0.20792 0.0
H261 H 0.55284 0.52488 0.28802 0.0
H262 H 0.61248 0.49198 0.32062 0.0
H263 H 0.62835 0.53911 0.32513 0.0
H264 H 0.5984 0.55584 0.30893 0.0
H265 H 0.5379 0.47793 0.28326 0.0
H266 H 0.57643 0.46673 0.44542 0.0
H267 H 0.60157 0.44401 0.45678 0.0
O268 O 0.59617 0.45299 0.27506 0.0
C269 C 0.54653 0.39213 0.2626 0.0
C270 C 0.59872 0.4319 0.39503 0.0
C271 C 0.58006 0.45702 0.42075 0.0
N272 N 0.57514 0.44492 0.35094 0.0
C273 C 0.58901 0.43243 0.35696 0.0
C274 C 0.57068 0.45718 0.38226 0.0
C275 C 0.59417 0.44428 0.42711 0.0
C276 C 0.50615 0.42809 0.18486 0.0
N277 N 0.5187 0.41405 0.18241 0.0
C278 C 0.47955 0.41648 0.17626 0.0
C279 C 0.46576 0.39029 0.16512 0.0
C280 C 0.47868 0.37609 0.16266 0.0
C281 C 0.5053 0.38836 0.17149 0.0
C282 C 0.55752 0.40703 0.07667 0.0
C283 C 0.57698 0.40417 0.15107 0.0
C284 C 0.55261 0.41752 0.11098 0.0
N285 N 0.56222 0.41591 0.14763 0.0
C286 C 0.5823 0.39348 0.11741 0.0
C287 C 0.57246 0.39493 0.07999 0.0
C288 C 0.60651 0.45427 0.24099 0.0
C289 C 0.56605 0.51782 0.29527 0.0
C290 C 0.5994 0.49911 0.31316 0.0
C291 C 0.60846 0.52582 0.31596 0.0
C292 C 0.59163 0.53519 0.30693 0.0
N293 N 0.57426 0.48218 0.30178 0.0
C294 C 0.55767 0.49124 0.29283 0.0
Co295 Co 0.12182 0.56122 0.70523 0.0
Co296 Co 0.13451 0.57419 0.80657 0.0
O297 O 0.11 0.55955 0.76104 0.0
C298 C 0.09384 0.58293 0.66043 0.0
O299 O 0.11686 0.60288 0.65198 0.0
C300 C 0.09467 0.52097 0.83695 0.0
O301 O 0.09215 0.51063 0.80111 0.0
O302 O 0.15206 0.55422 0.79051 0.0
O303 O 0.15136 0.55657 0.72324 0.0
H304 H 0.22311 0.61656 0.87143 0.0
H305 H 0.06657 0.52433 0.72505 0.0
O306 O 0.09204 0.56554 0.68503 0.0
H307 H 0.10149 0.46956 0.67451 0.0
H308 H 0.1099 0.53956 0.55712 0.0
H309 H 0.17326 0.58819 0.6648 0.0
H310 H 0.12945 0.51732 0.67797 0.0
H311 H 0.09524 0.53737 0.62709 0.0
O312 O 0.11028 0.54515 0.84271 0.0
H313 H 0.19182 0.59805 0.81524 0.0
H314 H 0.1291 0.58128 0.89441 0.0
H315 H 0.18878 0.59079 0.59525 0.0
H316 H 0.03779 0.47665 0.72148 0.0
H317 H 0.15699 0.56639 0.54081 0.0
H318 H 0.05525 0.44891 0.6962 0.0
O319 O 0.14498 0.59984 0.70976 0.0
H320 H 0.05738 0.58546 0.83517 0.0
H321 H 0.15337 0.62965 0.82924 0.0
H322 H 0.13205 0.65486 0.84758 0.0
H323 H 0.0837 0.63273 0.8508 0.0
H324 H 0.07953 0.56104 0.81649 0.0
H325 H 0.15969 0.59936 0.95152 0.0
H326 H 0.20709 0.61728 0.94018 0.0
O327 O 0.15951 0.60416 0.77334 0.0
C328 C 0.15985 0.55201 0.75568 0.0
C329 C 0.20251 0.60883 0.87675 0.0
C330 C 0.16691 0.59915 0.92171 0.0
N331 N 0.15865 0.58862 0.85148 0.0
C332 C 0.18469 0.59836 0.84504 0.0
C333 C 0.14966 0.58883 0.88927 0.0
C334 C 0.1935 0.60922 0.91532 0.0
C335 C 0.07424 0.51242 0.7136 0.0
N336 N 0.09965 0.52364 0.7016 0.0
C337 C 0.05788 0.48542 0.71183 0.0
C338 C 0.0677 0.46986 0.69772 0.0
C339 C 0.09365 0.48143 0.68559 0.0
C340 C 0.10944 0.5085 0.68781 0.0
C341 C 0.12395 0.55029 0.58056 0.0
C342 C 0.1593 0.5775 0.6413 0.0
C343 C 0.11576 0.54916 0.62025 0.0
N344 N 0.13337 0.5627 0.65006 0.0
C345 C 0.16821 0.57904 0.60196 0.0
C346 C 0.15037 0.56535 0.57144 0.0
C347 C 0.16029 0.61309 0.73833 0.0
C348 C 0.07846 0.5953 0.83396 0.0
C349 C 0.13232 0.61989 0.83035 0.0
C350 C 0.12036 0.63426 0.84088 0.0
C351 C 0.09324 0.62183 0.84269 0.0
N352 N 0.11769 0.59386 0.82192 0.0
C353 C 0.0911 0.58156 0.8235 0.0
H354 H 0.54801 0.18133 0.19466 0.0
H355 H 0.54422 0.22077 0.19777 0.0
H356 H 0.5371 0.21398 0.32675 0.0
H357 H 0.54122 0.17516 0.32428 0.0
H358 H 0.49879 0.22498 0.2782 0.0
H359 H 0.60519 0.29167 0.25424 0.0
H360 H 0.58835 0.26376 0.22157 0.0
H361 H 0.59241 0.25908 0.27376 0.0
C362 C 0.54533 0.18805 0.22362 0.0
C363 C 0.54491 0.17498 0.25918 0.0
C364 C 0.54326 0.21061 0.22534 0.0
C365 C 0.54049 0.22024 0.26253 0.0
C366 C 0.53921 0.20681 0.2978 0.0
H367 H 0.56244 0.37343 0.32565 0.0
H368 H 0.55933 0.33049 0.3298 0.0
C369 C 0.54155 0.18455 0.29621 0.0
C370 C 0.53988 0.24486 0.26527 0.0
H371 H 0.57897 0.311 0.26172 0.0
C372 C 0.51626 0.24381 0.27451 0.0
C373 C 0.56284 0.2693 0.26116 0.0
C374 C 0.58876 0.27128 0.25233 0.0
C375 C 0.51492 0.26671 0.27891 0.0
C376 C 0.53779 0.29115 0.2741 0.0
C377 C 0.5615 0.29219 0.26561 0.0
C378 C 0.53721 0.31584 0.27465 0.0
C379 C 0.48911 0.2647 0.28871 0.0
C380 C 0.52549 0.32155 0.24269 0.0
C381 C 0.52744 0.34595 0.24009 0.0
C382 C 0.54103 0.36516 0.26952 0.0
C383 C 0.5517 0.35899 0.30267 0.0
C384 C 0.55005 0.33456 0.30497 0.0
H385 H 0.47465 0.24498 0.29971 0.0
H386 H 0.49166 0.27935 0.31184 0.0
H387 H 0.48112 0.26877 0.2612 0.0
H388 H 0.5157 0.30747 0.21884 0.0
H389 H 0.51889 0.34998 0.21433 0.0
H390 H 0.38226 0.57484 0.67564 0.0
H391 H 0.33928 0.57167 0.67427 0.0
H392 H 0.30886 0.50476 0.75235 0.0
H393 H 0.35136 0.50756 0.75331 0.0
H394 H 0.27283 0.5011 0.69434 0.0
H395 H 0.31783 0.59532 0.77727 0.0
H396 H 0.33241 0.59617 0.72951 0.0
H397 H 0.33442 0.57707 0.76981 0.0
C398 C 0.36616 0.55892 0.6913 0.0
C399 C 0.37023 0.54162 0.71494 0.0
C400 C 0.34172 0.55733 0.69094 0.0
C401 C 0.3211 0.53838 0.71409 0.0
C402 C 0.32455 0.51968 0.73461 0.0
H403 H 0.19083 0.54923 0.81529 0.0
H404 H 0.22888 0.54359 0.8063 0.0
C405 C 0.34887 0.52131 0.7351 0.0
C406 C 0.2967 0.53921 0.72017 0.0
H407 H 0.27302 0.57599 0.76181 0.0
C408 C 0.27284 0.51751 0.7089 0.0
C409 C 0.29674 0.56033 0.74025 0.0
C410 C 0.32165 0.58347 0.7553 0.0
C411 C 0.24904 0.51656 0.71652 0.0
C412 C 0.24915 0.53805 0.73544 0.0
C413 C 0.27298 0.55957 0.74725 0.0
C414 C 0.22491 0.53918 0.7416 0.0
C415 C 0.22397 0.49237 0.70489 0.0
C416 C 0.21004 0.53846 0.70831 0.0
C417 C 0.1884 0.54161 0.71331 0.0
C418 C 0.18112 0.54574 0.75178 0.0
C419 C 0.19572 0.5459 0.78531 0.0
C420 C 0.21753 0.54279 0.7802 0.0
H421 H 0.22666 0.47516 0.7022 0.0
H422 H 0.20836 0.48797 0.72719 0.0
H423 H 0.21738 0.49549 0.67521 0.0
H424 H 0.21567 0.53629 0.67819 0.0
H425 H 0.17783 0.54153 0.68665 0.0
H426 H 0.64002 0.17717 0.32968 0.0
H427 H 0.68355 0.2161 0.32571 0.0
H428 H 0.68469 0.20502 0.19771 0.0
H429 H 0.64142 0.16689 0.20103 0.0
H430 H 0.73334 0.22618 0.29365 0.0
H431 H 0.6916 0.27743 0.20848 0.0
H432 H 0.67156 0.24746 0.2353 0.0
H433 H 0.68472 0.24684 0.18686 0.0
C434 C 0.64972 0.18279 0.30081 0.0
C435 C 0.63701 0.16902 0.26563 0.0
C436 C 0.67457 0.20505 0.29859 0.0
C437 C 0.68703 0.21373 0.26125 0.0
C438 C 0.67516 0.19898 0.22668 0.0
H439 H 0.82345 0.35634 0.17772 0.0
H440 H 0.7863 0.3118 0.18211 0.0
C441 C 0.6504 0.17702 0.22876 0.0
C442 C 0.71165 0.23897 0.2576 0.0
H443 H 0.73758 0.29893 0.21375 0.0
C444 C 0.73431 0.24214 0.27632 0.0
C445 C 0.71282 0.25972 0.23484 0.0
C446 C 0.68885 0.25788 0.2155 0.0
C447 C 0.75825 0.26545 0.27238 0.0
C448 C 0.75939 0.28618 0.2496 0.0
C449 C 0.73673 0.28292 0.23082 0.0
C450 C 0.7834 0.31205 0.24699 0.0
C451 C 0.78218 0.26758 0.29219 0.0
C452 C 0.79401 0.32692 0.28192 0.0
C453 C 0.81508 0.35226 0.27955 0.0
C454 C 0.82603 0.36345 0.24207 0.0
C455 C 0.81565 0.34833 0.20706 0.0
C456 C 0.79441 0.32289 0.20951 0.0
H457 H 0.77987 0.24807 0.29804 0.0
H458 H 0.79977 0.27896 0.27335 0.0
H459 H 0.78542 0.27774 0.32152 0.0
H460 H 0.78545 0.31923 0.31104 0.0
H461 H 0.82231 0.36327 0.30721 0.0
H462 H 0.41426 0.7997 0.7018 0.0
H463 H 0.41395 0.75817 0.70758 0.0
H464 H 0.48604 0.79676 0.77449 0.0
H465 H 0.4862 0.83792 0.76937 0.0
H466 H 0.44804 0.74018 0.68817 0.0
H467 H 0.43641 0.7414 0.85329 0.0
H468 H 0.43256 0.7633 0.81999 0.0
H469 H 0.46459 0.77022 0.83519 0.0
C470 C 0.43037 0.7994 0.71675 0.0
C471 C 0.45013 0.82196 0.73549 0.0
C472 C 0.43006 0.77565 0.72037 0.0
C473 C 0.44953 0.77425 0.74262 0.0
C474 C 0.47039 0.79723 0.75831 0.0
H475 H 0.48971 0.65386 0.7484 0.0
H476 H 0.48835 0.69429 0.74389 0.0
C477 C 0.47058 0.82079 0.75504 0.0
C478 C 0.44776 0.7488 0.75101 0.0
H479 H 0.44743 0.71032 0.82786 0.0
C480 C 0.44772 0.73355 0.71867 0.0
C481 C 0.44671 0.73985 0.79086 0.0
C482 C 0.44478 0.7544 0.82681 0.0
C483 C 0.44781 0.71017 0.72515 0.0
C484 C 0.44852 0.70213 0.76505 0.0
C485 C 0.44738 0.71676 0.79735 0.0
C486 C 0.45102 0.67887 0.77351 0.0
C487 C 0.44707 0.69423 0.68916 0.0
C488 C 0.43142 0.65739 0.79441 0.0
C489 C 0.4324 0.63429 0.7977 0.0
C490 C 0.45297 0.63244 0.78001 0.0
C491 C 0.47352 0.65467 0.76201 0.0
C492 C 0.47264 0.6777 0.75904 0.0
H493 H 0.43894 0.69877 0.66222 0.0
H494 H 0.46721 0.69881 0.68187 0.0
H495 H 0.4352 0.67303 0.69538 0.0
H496 H 0.41469 0.65802 0.80622 0.0
H497 H 0.41617 0.61739 0.81136 0.0
H498 H 0.63531 0.45024 0.17916 0.0
H499 H 0.67932 0.4561 0.18376 0.0
H500 H 0.68458 0.4798 0.30765 0.0
H501 H 0.64092 0.47388 0.3037 0.0
H502 H 0.72965 0.50069 0.20933 0.0
H503 H 0.69411 0.4149 0.31055 0.0
H504 H 0.67231 0.42111 0.28066 0.0
H505 H 0.6865 0.43945 0.32587 0.0
C506 C 0.64599 0.4571 0.20718 0.0
C507 C 0.63439 0.46135 0.24111 0.0
C508 C 0.6711 0.46039 0.20978 0.0
C509 C 0.68495 0.46791 0.24628 0.0
C510 C 0.67403 0.47353 0.27944 0.0
H511 H 0.82784 0.4667 0.31705 0.0
H512 H 0.79063 0.47433 0.3188 0.0
C513 C 0.64903 0.47023 0.27696 0.0
C514 C 0.71023 0.46864 0.25051 0.0
H515 H 0.73919 0.43824 0.29716 0.0
C516 C 0.73179 0.4871 0.22859 0.0
C517 C 0.713 0.45104 0.276 0.0
C518 C 0.69025 0.43034 0.29944 0.0
C519 C 0.75606 0.4883 0.23124 0.0
C520 C 0.75863 0.47021 0.25585 0.0
C521 C 0.73723 0.4522 0.27855 0.0
C522 C 0.78237 0.46773 0.25506 0.0
C523 C 0.77872 0.50891 0.20762 0.0
C524 C 0.78984 0.46128 0.21886 0.0
C525 C 0.81081 0.45685 0.21778 0.0
C526 C 0.82492 0.45865 0.25298 0.0
C527 C 0.81758 0.46535 0.28935 0.0
C528 C 0.79633 0.46969 0.2904 0.0
H529 H 0.77626 0.526 0.20157 0.0
H530 H 0.79746 0.51565 0.22377 0.0
H531 H 0.77982 0.50064 0.17819 0.0
H532 H 0.77895 0.45894 0.19145 0.0
H533 H 0.81555 0.45148 0.1892 0.0
H534 H 0.37927 0.80512 0.8258 0.0
H535 H 0.33631 0.76558 0.82025 0.0
H536 H 0.30539 0.81026 0.76483 0.0
H537 H 0.34822 0.8496 0.76996 0.0
H538 H 0.28212 0.74923 0.84031 0.0
H539 H 0.30236 0.75893 0.67616 0.0
H540 H 0.32715 0.77726 0.71331 0.0
H541 H 0.30396 0.78706 0.69957 0.0
C542 C 0.36299 0.80667 0.81422 0.0
C543 C 0.36696 0.83031 0.79823 0.0
C544 C 0.33855 0.78405 0.81065 0.0
C545 C 0.31792 0.78496 0.79119 0.0
C546 C 0.32121 0.8091 0.77925 0.0
H547 H 0.15922 0.65648 0.75998 0.0
H548 H 0.19749 0.69981 0.77016 0.0
C549 C 0.34558 0.83158 0.78254 0.0
C550 C 0.29413 0.76057 0.77913 0.0
H551 H 0.26083 0.72502 0.69648 0.0
C552 C 0.27738 0.74393 0.80892 0.0
C553 C 0.28835 0.7535 0.73809 0.0
C554 C 0.30647 0.76995 0.70487 0.0
C555 C 0.25467 0.72057 0.79871 0.0
C556 C 0.24843 0.71395 0.75761 0.0
C557 C 0.26545 0.73037 0.72788 0.0
C558 C 0.22484 0.68945 0.74515 0.0
C559 C 0.23787 0.70285 0.83201 0.0
C560 C 0.22736 0.66987 0.7253 0.0
C561 C 0.20546 0.64528 0.71891 0.0
C562 C 0.18081 0.64013 0.73188 0.0
C563 C 0.17803 0.66025 0.74908 0.0
C564 C 0.19989 0.68482 0.75543 0.0
H565 H 0.24842 0.70768 0.86122 0.0
H566 H 0.22043 0.70503 0.8357 0.0
H567 H 0.23109 0.68213 0.82467 0.0
H568 H 0.24644 0.67309 0.71703 0.0
H569 H 0.20807 0.62978 0.70661 0.0
H570 H 0.47576 0.94687 0.88821 0.0
H571 H 0.48137 0.9776 0.94124 0.0
H572 H 0.40478 0.96605 0.91653 0.0
H573 H 0.39877 0.93475 0.86307 0.0
H574 H 0.47931 0.0242 0.93649 0.0
H575 H 0.40394 0.95134 0.03917 0.0
H576 H 0.41684 0.94189 0.9973 0.0
H577 H 0.39404 0.95295 0.98853 0.0
C578 C 0.46002 0.95079 0.89383 0.0
C579 C 0.4367 0.93815 0.8715 0.0
C580 C 0.46332 0.96846 0.92419 0.0
C581 C 0.4434 0.97389 0.93318 0.0
C582 C 0.42026 0.96183 0.91044 0.0
H583 H 0.48497 0.10277 0.10363 0.0
H584 H 0.46313 0.07274 0.04762 0.0
C585 C 0.41693 0.9441 0.87976 0.0
C586 C 0.4473 0.99209 0.9667 0.0
H587 H 0.42929 0.99413 0.06371 0.0
C588 C 0.4681 0.0178 0.96409 0.0
C589 C 0.43282 0.98353 1.00279 0.0
C590 C 0.41073 0.9559 0.00753 0.0
C591 C 0.47541 0.03493 0.997 0.0
C592 C 0.46125 0.02624 0.03339 0.0
C593 C 0.43993 1.00078 0.03566 0.0
C594 C 0.47008 0.04254 0.07035 0.0
C595 C 0.49913 0.06174 0.99324 0.0
C596 C 0.47992 0.03492 0.10279 0.0
C597 C 0.49227 0.05194 0.13498 0.0
C598 C 0.49501 0.07696 0.13537 0.0
C599 C 0.48336 0.08374 0.10426 0.0
C600 C 0.47099 0.06666 0.07205 0.0
H601 H 0.51058 0.06365 0.96572 0.0
H602 H 0.49284 0.0765 0.99176 0.0
H603 H 0.51208 0.06628 0.01984 0.0
H604 H 0.47932 0.01633 0.10216 0.0
H605 H 0.50089 0.04599 0.15846 0.0
H606 H 0.48344 0.38668 0.40668 0.0
H607 H 0.46099 0.39617 0.46006 0.0
H608 H 0.48416 0.47074 0.40599 0.0
H609 H 0.50607 0.4612 0.35217 0.0
H610 H 0.48463 0.43464 0.51352 0.0
H611 H 0.41 0.44791 0.43453 0.0
H612 H 0.4264 0.43263 0.41084 0.0
H613 H 0.44155 0.46763 0.41257 0.0
C614 C 0.48317 0.40481 0.40552 0.0
C615 C 0.49659 0.42316 0.37505 0.0
C616 C 0.47037 0.41024 0.43618 0.0
C617 C 0.47062 0.43407 0.43697 0.0
C618 C 0.48308 0.45195 0.40564 0.0
H619 H 0.46229 0.53884 0.5984 0.0
H620 H 0.46638 0.51359 0.54403 0.0
C621 C 0.49574 0.44648 0.37485 0.0
C622 C 0.4605 0.44154 0.47255 0.0
H623 H 0.42362 0.46868 0.49982 0.0
C624 C 0.47082 0.44152 0.51066 0.0
C625 C 0.44243 0.45048 0.46894 0.0
C626 C 0.42926 0.44941 0.42955 0.0
C627 C 0.46479 0.45163 0.54467 0.0
C628 C 0.44789 0.46188 0.54052 0.0
C629 C 0.43664 0.46085 0.50287 0.0
C630 C 0.44407 0.47641 0.57371 0.0
C631 C 0.47764 0.45263 0.58437 0.0
C632 C 0.42994 0.46382 0.60851 0.0
C633 C 0.42745 0.47829 0.63996 0.0
C634 C 0.43924 0.50558 0.63711 0.0
C635 C 0.45312 0.51792 0.60192 0.0
C636 C 0.45539 0.5035 0.5706 0.0
H637 H 0.49226 0.44617 0.58167 0.0
H638 H 0.48743 0.47278 0.59668 0.0
H639 H 0.46257 0.43981 0.60632 0.0
H640 H 0.42093 0.44286 0.61135 0.0
H641 H 0.41661 0.4682 0.66659 0.0
H642 H 0.10398 0.53297 0.91633 0.0
H643 H 0.07536 0.51104 0.97295 0.0
H644 H 0.01948 0.45217 0.89294 0.0
H645 H 0.04844 0.47406 0.83559 0.0
H646 H 0.0265 0.50498 0.9794 0.0
H647 H 0.02152 0.40892 0.98827 0.0
H648 H 0.04675 0.43612 0.96077 0.0
H649 H 0.01467 0.41726 0.93956 0.0
C650 C 0.08577 0.51517 0.91065 0.0
C651 C 0.0784 0.50538 0.87131 0.0
C652 C 0.06944 0.5026 0.94318 0.0
C653 C 0.04531 0.47991 0.93733 0.0
C654 C 0.03821 0.46943 0.8983 0.0
H655 H 0.9101 0.4227 0.08836 0.0
H656 H 0.94062 0.43207 0.03313 0.0
C657 C 0.05472 0.482 0.86553 0.0
C658 C 0.02684 0.46904 0.97163 0.0
H659 H 0.99261 0.41511 0.03062 0.0
C660 C 0.01922 0.48537 0.99065 0.0
C661 C 0.01739 0.44347 0.9864 0.0
C662 C 0.02562 0.42542 0.96799 0.0
C663 C 0.00228 0.47679 0.02369 0.0
C664 C 0.99257 0.45118 0.03811 0.0
C665 C 1.0002 0.43478 0.01943 0.0
C666 C 0.97356 0.44119 0.07157 0.0
C667 C 0.99465 0.4951 0.04298 0.0
C668 C 0.98189 0.44253 0.11153 0.0
C669 C 0.96442 0.43719 0.14345 0.0
C670 C 0.93848 0.43066 0.13569 0.0
C671 C 0.93 0.42794 0.09546 0.0
C672 C 0.94736 0.43315 0.06377 0.0
H673 H 0.00589 0.51518 0.03077 0.0
H674 H 0.97358 0.48773 0.03771 0.0
H675 H 0.99778 0.49584 0.07601 0.0
H676 H 0.00213 0.44888 0.11805 0.0
H677 H 0.97157 0.43953 0.17405 0.0
H678 H 0.53976 0.04324 0.36512 0.0
H679 H 0.52959 0.01106 0.41795 0.0
H680 H 0.60712 0.0573 0.46661 0.0
H681 H 0.61738 0.09002 0.41423 0.0
H682 H 0.55059 0.9809 0.44392 0.0
H683 H 0.56125 0.05288 0.56103 0.0
H684 H 0.56053 0.05895 0.50804 0.0
H685 H 0.58956 0.06203 0.53057 0.0
C686 C 0.55486 0.04645 0.38661 0.0
C687 C 0.57931 0.06944 0.38567 0.0
C688 C 0.54897 0.02799 0.41687 0.0
C689 C 0.56738 0.03205 0.4468 0.0
C690 C 0.5924 0.05407 0.44439 0.0
H691 H 0.53066 0.94207 0.67287 0.0
H692 H 0.55647 0.97109 0.61762 0.0
C693 C 0.5983 0.07266 0.4142 0.0
C694 C 0.55958 0.01396 0.4816 0.0
H695 H 0.54762 0.01029 0.58266 0.0
C696 C 0.55023 0.98738 0.47432 0.0
C697 C 0.55912 0.02242 0.52134 0.0
C698 C 0.56794 0.05057 0.53088 0.0
C699 C 0.5398 0.96896 0.50546 0.0
C700 C 0.53842 0.9773 0.54481 0.0
C701 C 0.54882 0.00398 0.55248 0.0
C702 C 0.5236 0.95851 0.57727 0.0
C703 C 0.52988 0.94064 0.49585 0.0
C704 C 0.49664 0.942 0.57294 0.0
C705 C 0.48192 0.92568 0.60431 0.0
C706 C 0.49381 0.92545 0.64086 0.0
C707 C 0.52095 0.94168 0.64502 0.0
C708 C 0.5357 0.95827 0.61355 0.0
H709 H 0.53929 0.93838 0.46842 0.0
H710 H 0.53338 0.93063 0.5213 0.0
H711 H 0.50856 0.93079 0.49022 0.0
H712 H 0.48681 0.94223 0.54556 0.0
H713 H 0.46108 0.91343 0.59999 0.0
H714 H 0.46601 0.56329 0.91452 0.0
H715 H 0.48714 0.55688 0.97277 0.0
H716 H 0.55272 0.57058 0.89912 0.0
H717 H 0.53179 0.57775 0.84045 0.0
H718 H 0.4969 0.51771 0.97784 0.0
H719 H 0.5892 0.61105 1.00052 0.0
H720 H 0.56293 0.60845 0.96947 0.0
H721 H 0.5848 0.59822 0.95033 0.0
C722 C 0.48516 0.56543 0.91077 0.0
C723 C 0.49717 0.57086 0.8728 0.0
C724 C 0.49725 0.56179 0.94418 0.0
C725 C 0.52159 0.56333 0.94052 0.0
C726 C 0.53418 0.56979 0.90295 0.0
H727 H 0.57054 0.47702 0.08871 0.0
H728 H 0.56169 0.49897 0.03417 0.0
C729 C 0.52216 0.57376 0.86938 0.0
C730 C 0.53197 0.55518 0.97495 0.0
H731 H 0.58435 0.57435 0.03774 0.0
C732 C 0.51597 0.53023 0.99102 0.0
C733 C 0.55678 0.57152 0.99241 0.0
C734 C 0.57437 0.5989 0.9776 0.0
C735 C 0.52413 0.52103 0.02355 0.0
C736 C 0.54923 0.53698 0.04017 0.0
C737 C 0.56518 0.56212 0.02473 0.0
C738 C 0.55912 0.52705 0.07268 0.0
C739 C 0.50574 0.49423 0.03999 0.0
C740 C 0.56179 0.53633 0.11233 0.0
C741 C 0.56699 0.5238 0.14386 0.0
C742 C 0.56943 0.50177 0.13602 0.0
C743 C 0.56839 0.49369 0.09589 0.0
C744 C 0.56338 0.50625 0.0646 0.0
H745 H 0.48528 0.48706 0.03035 0.0
H746 H 0.51168 0.4803 0.02876 0.0
H747 H 0.50646 0.49423 0.07337 0.0
H748 H 0.55856 0.55239 0.11913 0.0
H749 H 0.56767 0.53045 0.17444 0.0
H750 H 0.04883 0.53622 0.64944 0.0
H751 H 0.01709 0.52476 0.59511 0.0
H752 H 0.05639 0.60479 0.55578 0.0
H753 H 0.08876 0.61627 0.60927 0.0
H754 H 0.98258 0.53881 0.57093 0.0
H755 H 0.05988 0.56838 0.45559 0.0
H756 H 0.06584 0.56638 0.50829 0.0
H757 H 0.06499 0.59433 0.48902 0.0
C758 C 0.05049 0.55152 0.62973 0.0
C759 C 0.07156 0.57714 0.63346 0.0
C760 C 0.03234 0.5449 0.59851 0.0
C761 C 0.03476 0.56375 0.57056 0.0
C762 C 0.05458 0.58973 0.57614 0.0
H763 H 0.91169 0.52567 0.39046 0.0
H764 H 0.9431 0.54684 0.44516 0.0
C765 C 0.07293 0.59632 0.60704 0.0
C766 C 0.01729 0.55589 0.53471 0.0
H767 H 0.01738 0.55499 0.43185 0.0
C768 C 0.99018 0.54244 0.54051 0.0
C769 C 0.0272 0.56018 0.49494 0.0
C770 C 0.05605 0.57286 0.48645 0.0
C771 C 0.97273 0.53309 0.50782 0.0
C772 C 0.98264 0.53799 0.46803 0.0
C773 C 0.00976 0.55155 0.46225 0.0
C774 C 0.96528 0.52768 0.43212 0.0
C775 C 0.94388 0.51714 0.51636 0.0
C776 C 0.96824 0.51118 0.4049 0.0
C777 C 0.95068 0.49952 0.37305 0.0
C778 C 0.92962 0.50397 0.36783 0.0
C779 C 0.92754 0.52164 0.39378 0.0
C780 C 0.94533 0.53355 0.42538 0.0
H781 H 0.94003 0.50938 0.54753 0.0
H782 H 0.93496 0.52964 0.5129 0.0
H783 H 0.93408 0.5005 0.49509 0.0
H784 H 0.98358 0.50649 0.4092 0.0
H785 H 0.95289 0.48599 0.35378 0.0
loop_
_geom_bond_atom_site_label_1
_geom_bond_atom_site_label_2
_geom_bond_distance
_geom_bond_site_symmetry_2
_ccdc_geom_bond_type
Co0 O2 2.143 . S
Co0 O8 2.074 . S
Co0 O11 2.093 . S
Co0 O24 2.097 . S
Co0 N41 2.151 . S
Co0 N49 2.214 . S
Co1 O2 2.160 . S
Co1 O7 2.058 . S
Co1 O17 2.057 . S
Co1 O32 2.037 . S
Co1 N36 2.145 . S
Co1 N57 2.257 . S
O2 Co0 2.143 . S
O2 Co1 2.160 . S
C3 O4 1.278 . S
C3 O11 1.224 . S
O4 C3 1.278 . S
C5 O6 1.245 . S
C5 O17 1.232 . S
O6 C5 1.245 . S
O7 Co1 2.058 . S
O7 C33 1.269 . S
O8 Co0 2.074 . S
O8 C33 1.257 . S
H9 C34 0.930 . S
H10 C40 0.930 . S
O11 Co0 2.093 . S
O11 C3 1.224 . S
H12 C44 0.929 . S
H13 C46 0.930 . S
H14 C47 0.930 . S
H15 C45 0.929 . S
H16 C48 0.928 . S
O17 Co1 2.057 . S
O17 C5 1.232 . S
H18 C37 0.929 . S
H19 C38 0.929 . S
H20 C50 0.931 . S
H21 C42 0.929 . S
H22 C51 0.930 . S
H23 C43 0.931 . S
O24 Co0 2.097 . S
O24 C52 1.214 . S
H25 C53 0.929 . S
H26 C54 0.929 . S
H27 C55 0.930 . S
H28 C56 0.929 . S
H29 C58 0.930 . S
H30 C35 0.930 . S
H31 C39 0.930 . S
O32 Co1 2.037 . S
O32 C52 1.234 . S
C33 O7 1.269 . S
C33 O8 1.257 . S
C34 H9 0.930 . S
C34 C37 1.388 . S
C34 C39 1.418 . S
C35 H30 0.930 . S
C35 C38 1.404 . S
C35 C39 1.353 . S
N36 Co1 2.145 . S
N36 C37 1.397 . S
N36 C38 1.334 . S
C37 H18 0.929 . S
C37 C34 1.388 . S
C37 N36 1.397 . S
C38 H19 0.929 . S
C38 C35 1.404 . S
C38 N36 1.334 . S
C39 H31 0.930 . S
C39 C34 1.418 . S
C39 C35 1.353 . S
C40 H10 0.930 . S
C40 N41 1.330 . S
C40 C42 1.446 . S
N41 Co0 2.151 . S
N41 C40 1.330 . S
N41 C45 1.418 . S
C42 H21 0.929 . S
C42 C40 1.446 . S
C42 C43 1.332 . S
C43 H23 0.931 . S
C43 C42 1.332 . S
C43 C44 1.267 . S
C44 H12 0.929 . S
C44 C43 1.267 . S
C44 C45 1.251 . S
C45 H15 0.929 . S
C45 N41 1.418 . S
C45 C44 1.251 . S
C46 H13 0.930 . S
C46 C48 1.406 . S
C46 C51 1.261 . S
C47 H14 0.930 . S
C47 N49 1.325 . S
C47 C50 1.357 . S
C48 H16 0.928 . S
C48 C46 1.406 . S
C48 N49 1.261 . S
N49 Co0 2.214 . S
N49 C47 1.325 . S
N49 C48 1.261 . S
C50 H20 0.931 . S
C50 C47 1.357 . S
C50 C51 1.312 . S
C51 H22 0.930 . S
C51 C46 1.261 . S
C51 C50 1.312 . S
C52 O24 1.214 . S
C52 O32 1.234 . S
C53 H25 0.929 . S
C53 C56 1.391 . S
C53 C58 1.391 . S
C54 H26 0.929 . S
C54 C55 1.390 . S
C54 N57 1.391 . S
C55 H27 0.930 . S
C55 C54 1.390 . S
C55 C56 1.392 . S
C56 H28 0.929 . S
C56 C53 1.391 . S
C56 C55 1.392 . S
N57 Co1 2.257 . S
N57 C54 1.391 . S
N57 C58 1.388 . S
C58 H29 0.930 . S
C58 C53 1.391 . S
C58 N57 1.388 . S
Co59 O61 2.143 . S
Co59 O67 2.074 . S
Co59 O70 2.093 . S
Co59 O83 2.097 . S
Co59 N100 2.151 . S
Co59 N108 2.214 . S
Co60 O61 2.160 . S
Co60 O66 2.058 . S
Co60 O76 2.057 . S
Co60 O91 2.037 . S
Co60 N95 2.145 . S
Co60 N116 2.257 . S
O61 Co59 2.143 . S
O61 Co60 2.160 . S
C62 O63 1.278 . S
C62 O70 1.224 . S
O63 C62 1.278 . S
C64 O65 1.245 . S
C64 O76 1.232 . S
O65 C64 1.245 . S
O66 Co60 2.058 . S
O66 C92 1.269 . S
O67 Co59 2.074 . S
O67 C92 1.257 . S
H68 C93 0.930 . S
H69 C99 0.930 . S
O70 Co59 2.093 . S
O70 C62 1.224 . S
H71 C103 0.929 . S
H72 C105 0.930 . S
H73 C106 0.930 . S
H74 C104 0.929 . S
H75 C107 0.928 . S
O76 Co60 2.057 . S
O76 C64 1.232 . S
H77 C96 0.929 . S
H78 C97 0.929 . S
H79 C109 0.931 . S
H80 C101 0.929 . S
H81 C110 0.930 . S
H82 C102 0.931 . S
O83 Co59 2.097 . S
O83 C111 1.214 . S
H84 C112 0.929 . S
H85 C113 0.929 . S
H86 C114 0.930 . S
H87 C115 0.929 . S
H88 C117 0.930 . S
H89 C94 0.930 . S
H90 C98 0.930 . S
O91 Co60 2.037 . S
O91 C111 1.234 . S
C92 O66 1.269 . S
C92 O67 1.257 . S
C93 H68 0.930 . S
C93 C96 1.388 . S
C93 C98 1.418 . S
C94 H89 0.930 . S
C94 C97 1.404 . S
C94 C98 1.353 . S
N95 Co60 2.145 . S
N95 C96 1.397 . S
N95 C97 1.334 . S
C96 H77 0.929 . S
C96 C93 1.388 . S
C96 N95 1.397 . S
C97 H78 0.929 . S
C97 C94 1.404 . S
C97 N95 1.334 . S
C98 H90 0.930 . S
C98 C93 1.418 . S
C98 C94 1.353 . S
C99 H69 0.930 . S
C99 N100 1.330 . S
C99 C101 1.446 . S
N100 Co59 2.151 . S
N100 C99 1.330 . S
N100 C104 1.418 . S
C101 H80 0.929 . S
C101 C99 1.446 . S
C101 C102 1.332 . S
C102 H82 0.931 . S
C102 C101 1.332 . S
C102 C103 1.267 . S
C103 H71 0.929 . S
C103 C102 1.267 . S
C103 C104 1.251 . S
C104 H74 0.929 . S
C104 N100 1.418 . S
C104 C103 1.251 . S
C105 H72 0.930 . S
C105 C107 1.406 . S
C105 C110 1.261 . S
C106 H73 0.930 . S
C106 N108 1.325 . S
C106 C109 1.357 . S
C107 H75 0.928 . S
C107 C105 1.406 . S
C107 N108 1.261 . S
N108 Co59 2.214 . S
N108 C106 1.325 . S
N108 C107 1.261 . S
C109 H79 0.931 . S
C109 C106 1.357 . S
C109 C110 1.312 . S
C110 H81 0.930 . S
C110 C105 1.261 . S
C110 C109 1.312 . S
C111 O83 1.214 . S
C111 O91 1.234 . S
C112 H84 0.929 . S
C112 C115 1.391 . S
C112 C117 1.391 . S
C113 H85 0.929 . S
C113 C114 1.390 . S
C113 N116 1.391 . S
C114 H86 0.930 . S
C114 C113 1.390 . S
C114 C115 1.392 . S
C115 H87 0.929 . S
C115 C112 1.391 . S
C115 C114 1.392 . S
N116 Co60 2.257 . S
N116 C113 1.391 . S
N116 C117 1.388 . S
C117 H88 0.930 . S
C117 C112 1.391 . S
C117 N116 1.388 . S
Co118 O120 2.143 . S
Co118 O126 2.074 . S
Co118 O129 2.093 . S
Co118 O142 2.097 . S
Co118 N159 2.151 . S
Co118 N167 2.214 . S
Co119 O120 2.160 . S
Co119 O125 2.058 . S
Co119 O135 2.057 . S
Co119 O150 2.037 . S
Co119 N154 2.145 . S
Co119 N175 2.257 . S
O120 Co118 2.143 . S
O120 Co119 2.160 . S
C121 O122 1.278 . S
C121 O129 1.224 . S
O122 C121 1.278 . S
C123 O124 1.245 . S
C123 O135 1.232 . S
O124 C123 1.245 . S
O125 Co119 2.058 . S
O125 C151 1.269 . S
O126 Co118 2.074 . S
O126 C151 1.257 . S
H127 C152 0.930 . S
H128 C158 0.930 . S
O129 Co118 2.093 . S
O129 C121 1.224 . S
H130 C162 0.929 . S
H131 C164 0.930 . S
H132 C165 0.930 . S
H133 C163 0.929 . S
H134 C166 0.928 . S
O135 Co119 2.057 . S
O135 C123 1.232 . S
H136 C155 0.929 . S
H137 C156 0.929 . S
H138 C168 0.931 . S
H139 C160 0.929 . S
H140 C169 0.930 . S
H141 C161 0.931 . S
O142 Co118 2.097 . S
O142 C170 1.214 . S
H143 C171 0.929 . S
H144 C172 0.929 . S
H145 C173 0.930 . S
H146 C174 0.929 . S
H147 C176 0.930 . S
H148 C153 0.930 . S
H149 C157 0.930 . S
O150 Co119 2.037 . S
O150 C170 1.234 . S
C151 O125 1.269 . S
C151 O126 1.257 . S
C152 H127 0.930 . S
C152 C155 1.388 . S
C152 C157 1.418 . S
C153 H148 0.930 . S
C153 C156 1.404 . S
C153 C157 1.353 . S
N154 Co119 2.145 . S
N154 C155 1.397 . S
N154 C156 1.334 . S
C155 H136 0.929 . S
C155 C152 1.388 . S
C155 N154 1.397 . S
C156 H137 0.929 . S
C156 C153 1.404 . S
C156 N154 1.334 . S
C157 H149 0.930 . S
C157 C152 1.418 . S
C157 C153 1.353 . S
C158 H128 0.930 . S
C158 N159 1.330 . S
C158 C160 1.446 . S
N159 Co118 2.151 . S
N159 C158 1.330 . S
N159 C163 1.418 . S
C160 H139 0.929 . S
C160 C158 1.446 . S
C160 C161 1.332 . S
C161 H141 0.931 . S
C161 C160 1.332 . S
C161 C162 1.267 . S
C162 H130 0.929 . S
C162 C161 1.267 . S
C162 C163 1.251 . S
C163 H133 0.929 . S
C163 N159 1.418 . S
C163 C162 1.251 . S
C164 H131 0.930 . S
C164 C166 1.406 . S
C164 C169 1.261 . S
C165 H132 0.930 . S
C165 N167 1.325 . S
C165 C168 1.357 . S
C166 H134 0.928 . S
C166 C164 1.406 . S
C166 N167 1.261 . S
N167 Co118 2.214 . S
N167 C165 1.325 . S
N167 C166 1.261 . S
C168 H138 0.931 . S
C168 C165 1.357 . S
C168 C169 1.312 . S
C169 H140 0.930 . S
C169 C164 1.261 . S
C169 C168 1.312 . S
C170 O142 1.214 . S
C170 O150 1.234 . S
C171 H143 0.929 . S
C171 C174 1.391 . S
C171 C176 1.391 . S
C172 H144 0.929 . S
C172 C173 1.390 . S
C172 N175 1.391 . S
C173 H145 0.930 . S
C173 C172 1.390 . S
C173 C174 1.392 . S
C174 H146 0.929 . S
C174 C171 1.391 . S
C174 C173 1.392 . S
N175 Co119 2.257 . S
N175 C172 1.391 . S
N175 C176 1.388 . S
C176 H147 0.930 . S
C176 C171 1.391 . S
C176 N175 1.388 . S
Co177 O179 2.143 . S
Co177 O185 2.074 . S
Co177 O188 2.093 . S
Co177 O201 2.097 . S
Co177 N218 2.151 . S
Co177 N226 2.214 . S
Co178 O179 2.160 . S
Co178 O184 2.058 . S
Co178 O194 2.057 . S
Co178 O209 2.037 . S
Co178 N213 2.145 . S
Co178 N234 2.257 . S
O179 Co177 2.143 . S
O179 Co178 2.160 . S
C180 O181 1.278 . S
C180 O188 1.224 . S
O181 C180 1.278 . S
C182 O183 1.245 . S
C182 O194 1.232 . S
O183 C182 1.245 . S
O184 Co178 2.058 . S
O184 C210 1.269 . S
O185 Co177 2.074 . S
O185 C210 1.257 . S
H186 C211 0.930 . S
H187 C217 0.930 . S
O188 Co177 2.093 . S
O188 C180 1.224 . S
H189 C221 0.929 . S
H190 C223 0.930 . S
H191 C224 0.930 . S
H192 C222 0.929 . S
H193 C225 0.928 . S
O194 Co178 2.057 . S
O194 C182 1.232 . S
H195 C214 0.929 . S
H196 C215 0.929 . S
H197 C227 0.931 . S
H198 C219 0.929 . S
H199 C228 0.930 . S
H200 C220 0.931 . S
O201 Co177 2.097 . S
O201 C229 1.214 . S
H202 C230 0.929 . S
H203 C231 0.929 . S
H204 C232 0.930 . S
H205 C233 0.929 . S
H206 C235 0.930 . S
H207 C212 0.930 . S
H208 C216 0.930 . S
O209 Co178 2.037 . S
O209 C229 1.234 . S
C210 O184 1.269 . S
C210 O185 1.257 . S
C211 H186 0.930 . S
C211 C214 1.388 . S
C211 C216 1.418 . S
C212 H207 0.930 . S
C212 C215 1.404 . S
C212 C216 1.353 . S
N213 Co178 2.145 . S
N213 C214 1.397 . S
N213 C215 1.334 . S
C214 H195 0.929 . S
C214 C211 1.388 . S
C214 N213 1.397 . S
C215 H196 0.929 . S
C215 C212 1.404 . S
C215 N213 1.334 . S
C216 H208 0.930 . S
C216 C211 1.418 . S
C216 C212 1.353 . S
C217 H187 0.930 . S
C217 N218 1.330 . S
C217 C219 1.446 . S
N218 Co177 2.151 . S
N218 C217 1.330 . S
N218 C222 1.418 . S
C219 H198 0.929 . S
C219 C217 1.446 . S
C219 C220 1.332 . S
C220 H200 0.931 . S
C220 C219 1.332 . S
C220 C221 1.267 . S
C221 H189 0.929 . S
C221 C220 1.267 . S
C221 C222 1.251 . S
C222 H192 0.929 . S
C222 N218 1.418 . S
C222 C221 1.251 . S
C223 H190 0.930 . S
C223 C225 1.406 . S
C223 C228 1.261 . S
C224 H191 0.930 . S
C224 N226 1.325 . S
C224 C227 1.357 . S
C225 H193 0.928 . S
C225 C223 1.406 . S
C225 N226 1.261 . S
N226 Co177 2.214 . S
N226 C224 1.325 . S
N226 C225 1.261 . S
C227 H197 0.931 . S
C227 C224 1.357 . S
C227 C228 1.312 . S
C228 H199 0.930 . S
C228 C223 1.261 . S
C228 C227 1.312 . S
C229 O201 1.214 . S
C229 O209 1.234 . S
C230 H202 0.929 . S
C230 C233 1.391 . S
C230 C235 1.391 . S
C231 H203 0.929 . S
C231 C232 1.390 . S
C231 N234 1.391 . S
C232 H204 0.930 . S
C232 C231 1.390 . S
C232 C233 1.392 . S
C233 H205 0.929 . S
C233 C230 1.391 . S
C233 C232 1.392 . S
N234 Co178 2.257 . S
N234 C231 1.391 . S
N234 C235 1.388 . S
C235 H206 0.930 . S
C235 C230 1.391 . S
C235 N234 1.388 . S
Co236 O238 2.143 . S
Co236 O244 2.074 . S
Co236 O247 2.093 . S
Co236 O260 2.097 . S
Co236 N277 2.151 . S
Co236 N285 2.214 . S
Co237 O238 2.160 . S
Co237 O243 2.058 . S
Co237 O253 2.057 . S
Co237 O268 2.037 . S
Co237 N272 2.145 . S
Co237 N293 2.257 . S
O238 Co236 2.143 . S
O238 Co237 2.160 . S
C239 O240 1.278 . S
C239 O247 1.224 . S
O240 C239 1.278 . S
C241 O242 1.245 . S
C241 O253 1.232 . S
O242 C241 1.245 . S
O243 Co237 2.058 . S
O243 C269 1.269 . S
O244 Co236 2.074 . S
O244 C269 1.257 . S
H245 C270 0.930 . S
H246 C276 0.930 . S
O247 Co236 2.093 . S
O247 C239 1.224 . S
H248 C280 0.929 . S
H249 C282 0.930 . S
H250 C283 0.930 . S
H251 C281 0.929 . S
H252 C284 0.928 . S
O253 Co237 2.057 . S
O253 C241 1.232 . S
H254 C273 0.929 . S
H255 C274 0.929 . S
H256 C286 0.931 . S
H257 C278 0.929 . S
H258 C287 0.930 . S
H259 C279 0.931 . S
O260 Co236 2.097 . S
O260 C288 1.214 . S
H261 C289 0.929 . S
H262 C290 0.929 . S
H263 C291 0.930 . S
H264 C292 0.929 . S
H265 C294 0.930 . S
H266 C271 0.930 . S
H267 C275 0.930 . S
O268 Co237 2.037 . S
O268 C288 1.234 . S
C269 O243 1.269 . S
C269 O244 1.257 . S
C270 H245 0.930 . S
C270 C273 1.388 . S
C270 C275 1.418 . S
C271 H266 0.930 . S
C271 C274 1.404 . S
C271 C275 1.353 . S
N272 Co237 2.145 . S
N272 C273 1.397 . S
N272 C274 1.334 . S
C273 H254 0.929 . S
C273 C270 1.388 . S
C273 N272 1.397 . S
C274 H255 0.929 . S
C274 C271 1.404 . S
C274 N272 1.334 . S
C275 H267 0.930 . S
C275 C270 1.418 . S
C275 C271 1.353 . S
C276 H246 0.930 . S
C276 N277 1.330 . S
C276 C278 1.446 . S
N277 Co236 2.151 . S
N277 C276 1.330 . S
N277 C281 1.418 . S
C278 H257 0.929 . S
C278 C276 1.446 . S
C278 C279 1.332 . S
C279 H259 0.931 . S
C279 C278 1.332 . S
C279 C280 1.267 . S
C280 H248 0.929 . S
C280 C279 1.267 . S
C280 C281 1.251 . S
C281 H251 0.929 . S
C281 N277 1.418 . S
C281 C280 1.251 . S
C282 H249 0.930 . S
C282 C284 1.406 . S
C282 C287 1.261 . S
C283 H250 0.930 . S
C283 N285 1.325 . S
C283 C286 1.357 . S
C284 H252 0.928 . S
C284 C282 1.406 . S
C284 N285 1.261 . S
N285 Co236 2.214 . S
N285 C283 1.325 . S
N285 C284 1.261 . S
C286 H256 0.931 . S
C286 C283 1.357 . S
C286 C287 1.312 . S
C287 H258 0.930 . S
C287 C282 1.261 . S
C287 C286 1.312 . S
C288 O260 1.214 . S
C288 O268 1.234 . S
C289 H261 0.929 . S
C289 C292 1.391 . S
C289 C294 1.391 . S
C290 H262 0.929 . S
C290 C291 1.390 . S
C290 N293 1.391 . S
C291 H263 0.930 . S
C291 C290 1.390 . S
C291 C292 1.392 . S
C292 H264 0.929 . S
C292 C289 1.391 . S
C292 C291 1.392 . S
N293 Co237 2.257 . S
N293 C290 1.391 . S
N293 C294 1.388 . S
C294 H265 0.930 . S
C294 C289 1.391 . S
C294 N293 1.388 . S
Co295 O297 2.143 . S
Co295 O303 2.074 . S
Co295 O306 2.093 . S
Co295 O319 2.097 . S
Co295 N336 2.151 . S
Co295 N344 2.214 . S
Co296 O297 2.160 . S
Co296 O302 2.058 . S
Co296 O312 2.057 . S
Co296 O327 2.037 . S
Co296 N331 2.145 . S
Co296 N352 2.257 . S
O297 Co295 2.143 . S
O297 Co296 2.160 . S
C298 O299 1.278 . S
C298 O306 1.224 . S
O299 C298 1.278 . S
C300 O301 1.245 . S
C300 O312 1.232 . S
O301 C300 1.245 . S
O302 Co296 2.058 . S
O302 C328 1.269 . S
O303 Co295 2.074 . S
O303 C328 1.257 . S
H304 C329 0.930 . S
H305 C335 0.930 . S
O306 Co295 2.093 . S
O306 C298 1.224 . S
H307 C339 0.929 . S
H308 C341 0.930 . S
H309 C342 0.930 . S
H310 C340 0.929 . S
H311 C343 0.928 . S
O312 Co296 2.057 . S
O312 C300 1.232 . S
H313 C332 0.929 . S
H314 C333 0.929 . S
H315 C345 0.931 . S
H316 C337 0.929 . S
H317 C346 0.930 . S
H318 C338 0.931 . S
O319 Co295 2.097 . S
O319 C347 1.214 . S
H320 C348 0.929 . S
H321 C349 0.929 . S
H322 C350 0.930 . S
H323 C351 0.929 . S
H324 C353 0.930 . S
H325 C330 0.930 . S
H326 C334 0.930 . S
O327 Co296 2.037 . S
O327 C347 1.234 . S
C328 O302 1.269 . S
C328 O303 1.257 . S
C329 H304 0.930 . S
C329 C332 1.388 . S
C329 C334 1.418 . S
C330 H325 0.930 . S
C330 C333 1.404 . S
C330 C334 1.353 . S
N331 Co296 2.145 . S
N331 C332 1.397 . S
N331 C333 1.334 . S
C332 H313 0.929 . S
C332 C329 1.388 . S
C332 N331 1.397 . S
C333 H314 0.929 . S
C333 C330 1.404 . S
C333 N331 1.334 . S
C334 H326 0.930 . S
C334 C329 1.418 . S
C334 C330 1.353 . S
C335 H305 0.930 . S
C335 N336 1.330 . S
C335 C337 1.446 . S
N336 Co295 2.151 . S
N336 C335 1.330 . S
N336 C340 1.418 . S
C337 H316 0.929 . S
C337 C335 1.446 . S
C337 C338 1.332 . S
C338 H318 0.931 . S
C338 C337 1.332 . S
C338 C339 1.267 . S
C339 H307 0.929 . S
C339 C338 1.267 . S
C339 C340 1.251 . S
C340 H310 0.929 . S
C340 N336 1.418 . S
C340 C339 1.251 . S
C341 H308 0.930 . S
C341 C343 1.406 . S
C341 C346 1.261 . S
C342 H309 0.930 . S
C342 N344 1.325 . S
C342 C345 1.357 . S
C343 H311 0.928 . S
C343 C341 1.406 . S
C343 N344 1.261 . S
N344 Co295 2.214 . S
N344 C342 1.325 . S
N344 C343 1.261 . S
C345 H315 0.931 . S
C345 C342 1.357 . S
C345 C346 1.312 . S
C346 H317 0.930 . S
C346 C341 1.261 . S
C346 C345 1.312 . S
C347 O319 1.214 . S
C347 O327 1.234 . S
C348 H320 0.929 . S
C348 C351 1.391 . S
C348 C353 1.391 . S
C349 H321 0.929 . S
C349 C350 1.390 . S
C349 N352 1.391 . S
C350 H322 0.930 . S
C350 C349 1.390 . S
C350 C351 1.392 . S
C351 H323 0.929 . S
C351 C348 1.391 . S
C351 C350 1.392 . S
N352 Co296 2.257 . S
N352 C349 1.391 . S
N352 C353 1.388 . S
C353 H324 0.930 . S
C353 C348 1.391 . S
C353 N352 1.388 . S
H354 C362 0.929 . S
H355 C364 0.930 . S
H356 C366 0.930 . S
H357 C369 0.929 . S
H358 C372 0.930 . S
H359 C374 0.960 . S
H360 C374 0.960 . S
H361 C374 0.960 . S
C362 H354 0.929 . S
C362 C363 1.377 . S
C362 C364 1.384 . S
C363 C362 1.377 . S
C363 C369 1.390 . S
C364 H355 0.930 . S
C364 C362 1.384 . S
C364 C365 1.372 . S
C365 C364 1.372 . S
C365 C366 1.400 . S
C365 C370 1.490 . S
C366 H356 0.930 . S
C366 C365 1.400 . S
C366 C369 1.386 . S
H367 C383 0.930 . S
H368 C384 0.931 . S
C369 H357 0.929 . S
C369 C363 1.390 . S
C369 C366 1.386 . S
C370 C365 1.490 . S
C370 C372 1.395 . S
C370 C373 1.403 . S
H371 C377 0.930 . S
C372 H358 0.930 . S
C372 C370 1.395 . S
C372 C375 1.403 . S
C373 C370 1.403 . S
C373 C374 1.524 . S
C373 C377 1.400 . S
C374 H359 0.960 . S
C374 H360 0.960 . S
C374 H361 0.960 . S
C374 C373 1.524 . S
C375 C372 1.403 . S
C375 C376 1.392 . S
C375 C379 1.495 . S
C376 C375 1.392 . S
C376 C377 1.385 . S
C376 C378 1.478 . S
C377 H371 0.930 . S
C377 C373 1.400 . S
C377 C376 1.385 . S
C378 C376 1.478 . S
C378 C380 1.381 . S
C378 C384 1.383 . S
C379 C375 1.495 . S
C379 H385 0.959 . S
C379 H386 0.961 . S
C379 H387 0.960 . S
C380 C378 1.381 . S
C380 C381 1.394 . S
C380 H388 0.930 . S
C381 C380 1.394 . S
C381 C382 1.383 . S
C381 H389 0.929 . S
C382 C381 1.383 . S
C382 C383 1.377 . S
C383 H367 0.930 . S
C383 C382 1.377 . S
C383 C384 1.379 . S
C384 H368 0.931 . S
C384 C378 1.383 . S
C384 C383 1.379 . S
H385 C379 0.959 . S
H386 C379 0.961 . S
H387 C379 0.960 . S
H388 C380 0.930 . S
H389 C381 0.929 . S
H390 C398 0.929 . S
H391 C400 0.930 . S
H392 C402 0.930 . S
H393 C405 0.929 . S
H394 C408 0.930 . S
H395 C410 0.960 . S
H396 C410 0.960 . S
H397 C410 0.960 . S
C398 H390 0.929 . S
C398 C399 1.377 . S
C398 C400 1.384 . S
C399 C398 1.377 . S
C399 C405 1.390 . S
C400 H391 0.930 . S
C400 C398 1.384 . S
C400 C401 1.372 . S
C401 C400 1.372 . S
C401 C402 1.400 . S
C401 C406 1.490 . S
C402 H392 0.930 . S
C402 C401 1.400 . S
C402 C405 1.386 . S
H403 C419 0.930 . S
H404 C420 0.931 . S
C405 H393 0.929 . S
C405 C399 1.390 . S
C405 C402 1.386 . S
C406 C401 1.490 . S
C406 C408 1.395 . S
C406 C409 1.403 . S
H407 C413 0.930 . S
C408 H394 0.930 . S
C408 C406 1.395 . S
C408 C411 1.403 . S
C409 C406 1.403 . S
C409 C410 1.524 . S
C409 C413 1.400 . S
C410 H395 0.960 . S
C410 H396 0.960 . S
C410 H397 0.960 . S
C410 C409 1.524 . S
C411 C408 1.403 . S
C411 C412 1.392 . S
C411 C415 1.495 . S
C412 C411 1.392 . S
C412 C413 1.385 . S
C412 C414 1.478 . S
C413 H407 0.930 . S
C413 C409 1.400 . S
C413 C412 1.385 . S
C414 C412 1.478 . S
C414 C416 1.381 . S
C414 C420 1.383 . S
C415 C411 1.495 . S
C415 H421 0.959 . S
C415 H422 0.961 . S
C415 H423 0.960 . S
C416 C414 1.381 . S
C416 C417 1.394 . S
C416 H424 0.930 . S
C417 C416 1.394 . S
C417 C418 1.383 . S
C417 H425 0.929 . S
C418 C417 1.383 . S
C418 C419 1.377 . S
C419 H403 0.930 . S
C419 C418 1.377 . S
C419 C420 1.379 . S
C420 H404 0.931 . S
C420 C414 1.383 . S
C420 C419 1.379 . S
H421 C415 0.959 . S
H422 C415 0.961 . S
H423 C415 0.960 . S
H424 C416 0.930 . S
H425 C417 0.929 . S
H426 C434 0.929 . S
H427 C436 0.930 . S
H428 C438 0.930 . S
H429 C441 0.929 . S
H430 C444 0.930 . S
H431 C446 0.960 . S
H432 C446 0.960 . S
H433 C446 0.960 . S
C434 H426 0.929 . S
C434 C435 1.377 . S
C434 C436 1.384 . S
C435 C434 1.377 . S
C435 C441 1.390 . S
C436 H427 0.930 . S
C436 C434 1.384 . S
C436 C437 1.372 . S
C437 C436 1.372 . S
C437 C438 1.400 . S
C437 C442 1.490 . S
C438 H428 0.930 . S
C438 C437 1.400 . S
C438 C441 1.386 . S
H439 C455 0.930 . S
H440 C456 0.931 . S
C441 H429 0.929 . S
C441 C435 1.390 . S
C441 C438 1.386 . S
C442 C437 1.490 . S
C442 C444 1.395 . S
C442 C445 1.403 . S
H443 C449 0.930 . S
C444 H430 0.930 . S
C444 C442 1.395 . S
C444 C447 1.403 . S
C445 C442 1.403 . S
C445 C446 1.524 . S
C445 C449 1.400 . S
C446 H431 0.960 . S
C446 H432 0.960 . S
C446 H433 0.960 . S
C446 C445 1.524 . S
C447 C444 1.403 . S
C447 C448 1.392 . S
C447 C451 1.495 . S
C448 C447 1.392 . S
C448 C449 1.385 . S
C448 C450 1.478 . S
C449 H443 0.930 . S
C449 C445 1.400 . S
C449 C448 1.385 . S
C450 C448 1.478 . S
C450 C452 1.381 . S
C450 C456 1.383 . S
C451 C447 1.495 . S
C451 H457 0.959 . S
C451 H458 0.961 . S
C451 H459 0.960 . S
C452 C450 1.381 . S
C452 C453 1.394 . S
C452 H460 0.930 . S
C453 C452 1.394 . S
C453 C454 1.383 . S
C453 H461 0.929 . S
C454 C453 1.383 . S
C454 C455 1.377 . S
C455 H439 0.930 . S
C455 C454 1.377 . S
C455 C456 1.379 . S
C456 H440 0.931 . S
C456 C450 1.383 . S
C456 C455 1.379 . S
H457 C451 0.959 . S
H458 C451 0.961 . S
H459 C451 0.960 . S
H460 C452 0.930 . S
H461 C453 0.929 . S
H462 C470 0.929 . S
H463 C472 0.930 . S
H464 C474 0.930 . S
H465 C477 0.929 . S
H466 C480 0.930 . S
H467 C482 0.960 . S
H468 C482 0.960 . S
H469 C482 0.960 . S
C470 H462 0.929 . S
C470 C471 1.377 . S
C470 C472 1.384 . S
C471 C470 1.377 . S
C471 C477 1.390 . S
C472 H463 0.930 . S
C472 C470 1.384 . S
C472 C473 1.372 . S
C473 C472 1.372 . S
C473 C474 1.400 . S
C473 C478 1.490 . S
C474 H464 0.930 . S
C474 C473 1.400 . S
C474 C477 1.386 . S
H475 C491 0.930 . S
H476 C492 0.931 . S
C477 H465 0.929 . S
C477 C471 1.390 . S
C477 C474 1.386 . S
C478 C473 1.490 . S
C478 C480 1.395 . S
C478 C481 1.403 . S
H479 C485 0.930 . S
C480 H466 0.930 . S
C480 C478 1.395 . S
C480 C483 1.403 . S
C481 C478 1.403 . S
C481 C482 1.524 . S
C481 C485 1.400 . S
C482 H467 0.960 . S
C482 H468 0.960 . S
C482 H469 0.960 . S
C482 C481 1.524 . S
C483 C480 1.403 . S
C483 C484 1.392 . S
C483 C487 1.495 . S
C484 C483 1.392 . S
C484 C485 1.385 . S
C484 C486 1.478 . S
C485 H479 0.930 . S
C485 C481 1.400 . S
C485 C484 1.385 . S
C486 C484 1.478 . S
C486 C488 1.381 . S
C486 C492 1.383 . S
C487 C483 1.495 . S
C487 H493 0.959 . S
C487 H494 0.961 . S
C487 H495 0.960 . S
C488 C486 1.381 . S
C488 C489 1.394 . S
C488 H496 0.930 . S
C489 C488 1.394 . S
C489 C490 1.383 . S
C489 H497 0.929 . S
C490 C489 1.383 . S
C490 C491 1.377 . S
C491 H475 0.930 . S
C491 C490 1.377 . S
C491 C492 1.379 . S
C492 H476 0.931 . S
C492 C486 1.383 . S
C492 C491 1.379 . S
H493 C487 0.959 . S
H494 C487 0.961 . S
H495 C487 0.960 . S
H496 C488 0.930 . S
H497 C489 0.929 . S
H498 C506 0.929 . S
H499 C508 0.930 . S
H500 C510 0.930 . S
H501 C513 0.929 . S
H502 C516 0.930 . S
H503 C518 0.960 . S
H504 C518 0.960 . S
H505 C518 0.960 . S
C506 H498 0.929 . S
C506 C507 1.377 . S
C506 C508 1.384 . S
C507 C506 1.377 . S
C507 C513 1.390 . S
C508 H499 0.930 . S
C508 C506 1.384 . S
C508 C509 1.372 . S
C509 C508 1.372 . S
C509 C510 1.400 . S
C509 C514 1.490 . S
C510 H500 0.930 . S
C510 C509 1.400 . S
C510 C513 1.386 . S
H511 C527 0.930 . S
H512 C528 0.931 . S
C513 H501 0.929 . S
C513 C507 1.390 . S
C513 C510 1.386 . S
C514 C509 1.490 . S
C514 C516 1.395 . S
C514 C517 1.403 . S
H515 C521 0.930 . S
C516 H502 0.930 . S
C516 C514 1.395 . S
C516 C519 1.403 . S
C517 C514 1.403 . S
C517 C518 1.524 . S
C517 C521 1.400 . S
C518 H503 0.960 . S
C518 H504 0.960 . S
C518 H505 0.960 . S
C518 C517 1.524 . S
C519 C516 1.403 . S
C519 C520 1.392 . S
C519 C523 1.495 . S
C520 C519 1.392 . S
C520 C521 1.385 . S
C520 C522 1.478 . S
C521 H515 0.930 . S
C521 C517 1.400 . S
C521 C520 1.385 . S
C522 C520 1.478 . S
C522 C524 1.381 . S
C522 C528 1.383 . S
C523 C519 1.495 . S
C523 H529 0.959 . S
C523 H530 0.961 . S
C523 H531 0.960 . S
C524 C522 1.381 . S
C524 C525 1.394 . S
C524 H532 0.930 . S
C525 C524 1.394 . S
C525 C526 1.383 . S
C525 H533 0.929 . S
C526 C525 1.383 . S
C526 C527 1.377 . S
C527 H511 0.930 . S
C527 C526 1.377 . S
C527 C528 1.379 . S
C528 H512 0.931 . S
C528 C522 1.383 . S
C528 C527 1.379 . S
H529 C523 0.959 . S
H530 C523 0.961 . S
H531 C523 0.960 . S
H532 C524 0.930 . S
H533 C525 0.929 . S
H534 C542 0.929 . S
H535 C544 0.930 . S
H536 C546 0.930 . S
H537 C549 0.929 . S
H538 C552 0.930 . S
H539 C554 0.960 . S
H540 C554 0.960 . S
H541 C554 0.960 . S
C542 H534 0.929 . S
C542 C543 1.377 . S
C542 C544 1.384 . S
C543 C542 1.377 . S
C543 C549 1.390 . S
C544 H535 0.930 . S
C544 C542 1.384 . S
C544 C545 1.372 . S
C545 C544 1.372 . S
C545 C546 1.400 . S
C545 C550 1.490 . S
C546 H536 0.930 . S
C546 C545 1.400 . S
C546 C549 1.386 . S
H547 C563 0.930 . S
H548 C564 0.931 . S
C549 H537 0.929 . S
C549 C543 1.390 . S
C549 C546 1.386 . S
C550 C545 1.490 . S
C550 C552 1.395 . S
C550 C553 1.403 . S
H551 C557 0.930 . S
C552 H538 0.930 . S
C552 C550 1.395 . S
C552 C555 1.403 . S
C553 C550 1.403 . S
C553 C554 1.524 . S
C553 C557 1.400 . S
C554 H539 0.960 . S
C554 H540 0.960 . S
C554 H541 0.960 . S
C554 C553 1.524 . S
C555 C552 1.403 . S
C555 C556 1.392 . S
C555 C559 1.495 . S
C556 C555 1.392 . S
C556 C557 1.385 . S
C556 C558 1.478 . S
C557 H551 0.930 . S
C557 C553 1.400 . S
C557 C556 1.385 . S
C558 C556 1.478 . S
C558 C560 1.381 . S
C558 C564 1.383 . S
C559 C555 1.495 . S
C559 H565 0.959 . S
C559 H566 0.961 . S
C559 H567 0.960 . S
C560 C558 1.381 . S
C560 C561 1.394 . S
C560 H568 0.930 . S
C561 C560 1.394 . S
C561 C562 1.383 . S
C561 H569 0.929 . S
C562 C561 1.383 . S
C562 C563 1.377 . S
C563 H547 0.930 . S
C563 C562 1.377 . S
C563 C564 1.379 . S
C564 H548 0.931 . S
C564 C558 1.383 . S
C564 C563 1.379 . S
H565 C559 0.959 . S
H566 C559 0.961 . S
H567 C559 0.960 . S
H568 C560 0.930 . S
H569 C561 0.929 . S
H570 C578 0.929 . S
H571 C580 0.930 . S
H572 C582 0.930 . S
H573 C585 0.929 . S
H574 C588 0.916 . S
H575 C590 0.960 1_554 S
H576 C590 0.960 . S
H577 C590 0.960 . S
C578 H570 0.929 . S
C578 C579 1.377 . S
C578 C580 1.384 . S
C579 C578 1.377 . S
C579 C585 1.390 . S
C580 H571 0.930 . S
C580 C578 1.384 . S
C580 C581 1.372 . S
C581 C580 1.372 . S
C581 C582 1.400 . S
C581 C586 1.490 . S
C582 H572 0.930 . S
C582 C581 1.400 . S
C582 C585 1.386 . S
H583 C599 0.930 . S
H584 C600 0.931 . S
C585 H573 0.929 . S
C585 C579 1.390 . S
C585 C582 1.386 . S
C586 C581 1.490 . S
C586 C588 1.394 . S
C586 C589 1.403 . S
H587 C593 0.930 . S
C588 H574 0.916 . S
C588 C586 1.394 . S
C588 C591 1.405 1_566 S
C589 C586 1.403 . S
C589 C590 1.524 . S
C589 C593 1.400 1_566 S
C590 H575 0.960 1_556 S
C590 H576 0.960 . S
C590 H577 0.960 . S
C590 C589 1.524 . S
C591 C588 1.405 1_544 S
C591 C592 1.392 . S
C591 C595 1.495 . S
C592 C591 1.392 . S
C592 C593 1.385 . S
C592 C594 1.478 . S
C593 H587 0.930 . S
C593 C589 1.400 1_544 S
C593 C592 1.385 . S
C594 C592 1.478 . S
C594 C596 1.381 . S
C594 C600 1.383 . S
C595 C591 1.495 . S
C595 H601 0.959 1_554 S
C595 H602 0.961 . S
C595 H603 0.960 . S
C596 C594 1.381 . S
C596 C597 1.394 . S
C596 H604 0.930 . S
C597 C596 1.394 . S
C597 C598 1.383 . S
C597 H605 0.929 . S
C598 C597 1.383 . S
C598 C599 1.377 . S
C599 H583 0.930 . S
C599 C598 1.377 . S
C599 C600 1.379 . S
C600 H584 0.931 . S
C600 C594 1.383 . S
C600 C599 1.379 . S
H601 C595 0.959 1_556 S
H602 C595 0.961 . S
H603 C595 0.960 . S
H604 C596 0.930 . S
H605 C597 0.929 . S
H606 C614 0.929 . S
H607 C616 0.930 . S
H608 C618 0.930 . S
H609 C621 0.929 . S
H610 C624 0.930 . S
H611 C626 0.960 . S
H612 C626 0.960 . S
H613 C626 0.960 . S
C614 H606 0.929 . S
C614 C615 1.377 . S
C614 C616 1.384 . S
C615 C614 1.377 . S
C615 C621 1.390 . S
C616 H607 0.930 . S
C616 C614 1.384 . S
C616 C617 1.372 . S
C617 C616 1.372 . S
C617 C618 1.400 . S
C617 C622 1.490 . S
C618 H608 0.930 . S
C618 C617 1.400 . S
C618 C621 1.386 . S
H619 C635 0.930 . S
H620 C636 0.931 . S
C621 H609 0.929 . S
C621 C615 1.390 . S
C621 C618 1.386 . S
C622 C617 1.490 . S
C622 C624 1.395 . S
C622 C625 1.403 . S
H623 C629 0.930 . S
C624 H610 0.930 . S
C624 C622 1.395 . S
C624 C627 1.403 . S
C625 C622 1.403 . S
C625 C626 1.524 . S
C625 C629 1.400 . S
C626 H611 0.960 . S
C626 H612 0.960 . S
C626 H613 0.960 . S
C626 C625 1.524 . S
C627 C624 1.403 . S
C627 C628 1.392 . S
C627 C631 1.495 . S
C628 C627 1.392 . S
C628 C629 1.385 . S
C628 C630 1.478 . S
C629 H623 0.930 . S
C629 C625 1.400 . S
C629 C628 1.385 . S
C630 C628 1.478 . S
C630 C632 1.381 . S
C630 C636 1.383 . S
C631 C627 1.495 . S
C631 H637 0.959 . S
C631 H638 0.961 . S
C631 H639 0.960 . S
C632 C630 1.381 . S
C632 C633 1.394 . S
C632 H640 0.930 . S
C633 C632 1.394 . S
C633 C634 1.383 . S
C633 H641 0.929 . S
C634 C633 1.383 . S
C634 C635 1.377 . S
C635 H619 0.930 . S
C635 C634 1.377 . S
C635 C636 1.379 . S
C636 H620 0.931 . S
C636 C630 1.383 . S
C636 C635 1.379 . S
H637 C631 0.959 . S
H638 C631 0.961 . S
H639 C631 0.960 . S
H640 C632 0.930 . S
H641 C633 0.929 . S
H642 C650 0.929 . S
H643 C652 0.930 . S
H644 C654 0.930 . S
H645 C657 0.929 . S
H646 C660 0.930 . S
H647 C662 0.960 . S
H648 C662 0.960 . S
H649 C662 0.960 . S
C650 H642 0.929 . S
C650 C651 1.377 . S
C650 C652 1.384 . S
C651 C650 1.377 . S
C651 C657 1.390 . S
C652 H643 0.930 . S
C652 C650 1.384 . S
C652 C653 1.372 . S
C653 C652 1.372 . S
C653 C654 1.400 . S
C653 C658 1.490 . S
C654 H644 0.930 . S
C654 C653 1.400 . S
C654 C657 1.386 . S
H655 C671 0.930 . S
H656 C672 0.931 . S
C657 H645 0.929 . S
C657 C651 1.390 . S
C657 C654 1.386 . S
C658 C653 1.490 . S
C658 C660 1.395 . S
C658 C661 1.403 . S
H659 C665 0.930 . S
C660 H646 0.930 . S
C660 C658 1.395 . S
C660 C663 1.403 1_456 S
C661 C658 1.403 . S
C661 C662 1.524 . S
C661 C665 1.400 1_456 S
C662 H647 0.960 . S
C662 H648 0.960 . S
C662 H649 0.960 . S
C662 C661 1.524 . S
C663 C660 1.403 1_654 S
C663 C664 1.392 . S
C663 C667 1.495 . S
C664 C663 1.392 . S
C664 C665 1.385 . S
C664 C666 1.478 . S
C665 H659 0.930 . S
C665 C661 1.400 1_654 S
C665 C664 1.385 . S
C666 C664 1.478 . S
C666 C668 1.381 . S
C666 C672 1.383 . S
C667 C663 1.495 . S
C667 H673 0.959 . S
C667 H674 0.961 . S
C667 H675 0.960 . S
C668 C666 1.381 . S
C668 C669 1.394 . S
C668 H676 0.930 . S
C669 C668 1.394 . S
C669 C670 1.383 . S
C669 H677 0.929 . S
C670 C669 1.383 . S
C670 C671 1.377 . S
C671 H655 0.930 . S
C671 C670 1.377 . S
C671 C672 1.379 . S
C672 H656 0.931 . S
C672 C666 1.383 . S
C672 C671 1.379 . S
H673 C667 0.959 . S
H674 C667 0.961 . S
H675 C667 0.960 . S
H676 C668 0.930 . S
H677 C669 0.929 . S
H678 C686 0.929 . S
H679 C688 0.930 . S
H680 C690 0.930 . S
H681 C693 0.929 . S
H682 C696 0.930 . S
H683 C698 0.960 . S
H684 C698 0.960 . S
H685 C698 0.960 . S
C686 H678 0.929 . S
C686 C687 1.377 . S
C686 C688 1.384 . S
C687 C686 1.377 . S
C687 C693 1.390 . S
C688 H679 0.930 . S
C688 C686 1.384 . S
C688 C689 1.372 . S
C689 C688 1.372 . S
C689 C690 1.400 . S
C689 C694 1.490 . S
C690 H680 0.930 . S
C690 C689 1.400 . S
C690 C693 1.386 . S
H691 C707 0.930 . S
H692 C708 0.931 . S
C693 H681 0.929 . S
C693 C687 1.390 . S
C693 C690 1.386 . S
C694 C689 1.490 . S
C694 C696 1.395 1_545 S
C694 C697 1.403 . S
H695 C701 0.930 . S
C696 H682 0.930 . S
C696 C694 1.395 1_565 S
C696 C699 1.403 . S
C697 C694 1.403 . S
C697 C698 1.524 . S
C697 C701 1.400 . S
C698 H683 0.960 . S
C698 H684 0.960 . S
C698 H685 0.960 . S
C698 C697 1.524 . S
C699 C696 1.403 . S
C699 C700 1.392 . S
C699 C703 1.495 . S
C700 C699 1.392 . S
C700 C701 1.385 1_565 S
C700 C702 1.478 . S
C701 H695 0.930 . S
C701 C697 1.400 . S
C701 C700 1.385 1_545 S
C702 C700 1.478 . S
C702 C704 1.381 . S
C702 C708 1.383 . S
C703 C699 1.495 . S
C703 H709 0.959 . S
C703 H710 0.961 . S
C703 H711 0.960 . S
C704 C702 1.381 . S
C704 C705 1.394 . S
C704 H712 0.930 . S
C705 C704 1.394 . S
C705 C706 1.383 . S
C705 H713 0.929 . S
C706 C705 1.383 . S
C706 C707 1.377 . S
C707 H691 0.930 . S
C707 C706 1.377 . S
C707 C708 1.379 . S
C708 H692 0.931 . S
C708 C702 1.383 . S
C708 C707 1.379 . S
H709 C703 0.959 . S
H710 C703 0.961 . S
H711 C703 0.960 . S
H712 C704 0.930 . S
H713 C705 0.929 . S
H714 C722 0.929 . S
H715 C724 0.930 . S
H716 C726 0.930 . S
H717 C729 0.929 . S
H718 C732 0.930 . S
H719 C734 0.960 . S
H720 C734 0.960 . S
H721 C734 0.960 . S
C722 H714 0.929 . S
C722 C723 1.377 . S
C722 C724 1.384 . S
C723 C722 1.377 . S
C723 C729 1.390 . S
C724 H715 0.930 . S
C724 C722 1.384 . S
C724 C725 1.372 . S
C725 C724 1.372 . S
C725 C726 1.400 . S
C725 C730 1.490 . S
C726 H716 0.930 . S
C726 C725 1.400 . S
C726 C729 1.386 . S
H727 C743 0.930 . S
H728 C744 0.931 . S
C729 H717 0.929 . S
C729 C723 1.390 . S
C729 C726 1.386 . S
C730 C725 1.490 . S
C730 C732 1.395 . S
C730 C733 1.403 . S
H731 C737 0.930 . S
C732 H718 0.930 . S
C732 C730 1.395 . S
C732 C735 1.403 1_556 S
C733 C730 1.403 . S
C733 C734 1.524 . S
C733 C737 1.400 1_556 S
C734 H719 0.960 . S
C734 H720 0.960 . S
C734 H721 0.960 . S
C734 C733 1.524 . S
C735 C732 1.403 1_554 S
C735 C736 1.392 . S
C735 C739 1.495 . S
C736 C735 1.392 . S
C736 C737 1.385 . S
C736 C738 1.478 . S
C737 H731 0.930 . S
C737 C733 1.400 1_554 S
C737 C736 1.385 . S
C738 C736 1.478 . S
C738 C740 1.381 . S
C738 C744 1.383 . S
C739 C735 1.495 . S
C739 H745 0.959 . S
C739 H746 0.961 . S
C739 H747 0.960 . S
C740 C738 1.381 . S
C740 C741 1.394 . S
C740 H748 0.930 . S
C741 C740 1.394 . S
C741 C742 1.383 . S
C741 H749 0.929 . S
C742 C741 1.383 . S
C742 C743 1.377 . S
C743 H727 0.930 . S
C743 C742 1.377 . S
C743 C744 1.379 . S
C744 H728 0.931 . S
C744 C738 1.383 . S
C744 C743 1.379 . S
H745 C739 0.959 . S
H746 C739 0.961 . S
H747 C739 0.960 . S
H748 C740 0.930 . S
H749 C741 0.929 . S
H750 C758 0.929 . S
H751 C760 0.930 . S
H752 C762 0.930 . S
H753 C765 0.929 . S
H754 C768 0.930 . S
H755 C770 0.960 . S
H756 C770 0.960 . S
H757 C770 0.960 . S
C758 H750 0.929 . S
C758 C759 1.377 . S
C758 C760 1.384 . S
C759 C758 1.377 . S
C759 C765 1.390 . S
C760 H751 0.930 . S
C760 C758 1.384 . S
C760 C761 1.372 . S
C761 C760 1.372 . S
C761 C762 1.400 . S
C761 C766 1.490 . S
C762 H752 0.930 . S
C762 C761 1.400 . S
C762 C765 1.386 . S
H763 C779 0.930 . S
H764 C780 0.931 . S
C765 H753 0.929 . S
C765 C759 1.390 . S
C765 C762 1.386 . S
C766 C761 1.490 . S
C766 C768 1.395 1_455 S
C766 C769 1.403 . S
H767 C773 0.930 . S
C768 H754 0.930 . S
C768 C766 1.395 1_655 S
C768 C771 1.403 . S
C769 C766 1.403 . S
C769 C770 1.524 . S
C769 C773 1.400 . S
C770 H755 0.960 . S
C770 H756 0.960 . S
C770 H757 0.960 . S
C770 C769 1.524 . S
C771 C768 1.403 . S
C771 C772 1.392 . S
C771 C775 1.495 . S
C772 C771 1.392 . S
C772 C773 1.385 1_655 S
C772 C774 1.478 . S
C773 H767 0.930 . S
C773 C769 1.400 . S
C773 C772 1.385 1_455 S
C774 C772 1.478 . S
C774 C776 1.381 . S
C774 C780 1.383 . S
C775 C771 1.495 . S
C775 H781 0.959 . S
C775 H782 0.961 . S
C775 H783 0.960 . S
C776 C774 1.381 . S
C776 C777 1.394 . S
C776 H784 0.930 . S
C777 C776 1.394 . S
C777 C778 1.383 . S
C777 H785 0.929 . S
C778 C777 1.383 . S
C778 C779 1.377 . S
C779 H763 0.930 . S
C779 C778 1.377 . S
C779 C780 1.379 . S
C780 H764 0.931 . S
C780 C774 1.383 . S
C780 C779 1.379 . S
H781 C775 0.959 . S
H782 C775 0.961 . S
H783 C775 0.960 . S
H784 C776 0.930 . S
H785 C777 0.929 . S
C363 C52 1.166 . S
C382 C269 1.169 . S
C399 C111 1.161 . S
C418 C328 1.141 . S
C435 C33 1.152 . S
C454 C151 1.134 . S
C471 C210 1.152 . S
C490 C92 1.127 . S
C507 C288 1.161 . S
C526 C170 1.145 . S
C543 C229 1.159 . S
C562 C347 1.138 . S
C579 C180 1.462 . S
C598 C3 1.452 . S
C615 C241 1.474 . S
C634 C62 1.474 . S
C651 C300 1.472 . S
C670 C123 1.463 . S
C687 C5 1.472 . S
C706 C182 1.464 . S
C723 C64 1.473 . S
C742 C239 1.467 . S
C759 C298 1.463 . S
C778 C121 1.448 . S
