# Generated by pormake.
# Topology ukf, (4)-cn, num edge types: 1
# Building blocks:
#     Node 0, Type 0, BuildingBlock: QUQFOY_clean_sbu_1, # of connection points: 4
#     Node 1, Type 0, BuildingBlock: QUQFOY_clean_sbu_1, # of connection points: 4
#     Node 2, Type 0, BuildingBlock: QUQFOY_clean_sbu_1, # of connection points: 4
#     Node 3, Type 0, BuildingBlock: QUQFOY_clean_sbu_1, # of connection points: 4
#     Node 4, Type 0, BuildingBlock: QUQFOY_clean_sbu_1, # of connection points: 4
#     Node 5, Type 0, BuildingBlock: QUQFOY_clean_sbu_1, # of connection points: 4
#     Node 6, Type 0, BuildingBlock: QUQFOY_clean_sbu_1, # of connection points: 4
#     Node 7, Type 0, BuildingBlock: QUQFOY_clean_sbu_1, # of connection points: 4
#     Node 8, Type 0, BuildingBlock: QUQFOY_clean_sbu_1, # of connection points: 4
#     Node 9, Type 0, BuildingBlock: QUQFOY_clean_sbu_1, # of connection points: 4
#     Node 10, Type 0, BuildingBlock: QUQFOY_clean_sbu_1, # of connection points: 4
#     Node 11, Type 0, BuildingBlock: QUQFOY_clean_sbu_1, # of connection points: 4
#     Edge 12, Type (0, 0), BuildingBlock: EYOCIG_clean_linker_4, # of connection points: 2
#     Edge 13, Type (0, 0), BuildingBlock: EYOCIG_clean_linker_4, # of connection points: 2
#     Edge 14, Type (0, 0), BuildingBlock: EYOCIG_clean_linker_4, # of connection points: 2
#     Edge 15, Type (0, 0), BuildingBlock: EYOCIG_clean_linker_4, # of connection points: 2
#     Edge 16, Type (0, 0), BuildingBlock: EYOCIG_clean_linker_4, # of connection points: 2
#     Edge 17, Type (0, 0), BuildingBlock: EYOCIG_clean_linker_4, # of connection points: 2
#     Edge 18, Type (0, 0), BuildingBlock: EYOCIG_clean_linker_4, # of connection points: 2
#     Edge 19, Type (0, 0), BuildingBlock: EYOCIG_clean_linker_4, # of connection points: 2
#     Edge 20, Type (0, 0), BuildingBlock: EYOCIG_clean_linker_4, # of connection points: 2
#     Edge 21, Type (0, 0), BuildingBlock: EYOCIG_clean_linker_4, # of connection points: 2
#     Edge 22, Type (0, 0), BuildingBlock: EYOCIG_clean_linker_4, # of connection points: 2
#     Edge 23, Type (0, 0), BuildingBlock: EYOCIG_clean_linker_4, # of connection points: 2
#     Edge 24, Type (0, 0), BuildingBlock: EYOCIG_clean_linker_4, # of connection points: 2
#     Edge 25, Type (0, 0), BuildingBlock: EYOCIG_clean_linker_4, # of connection points: 2
#     Edge 26, Type (0, 0), BuildingBlock: EYOCIG_clean_linker_4, # of connection points: 2
#     Edge 27, Type (0, 0), BuildingBlock: EYOCIG_clean_linker_4, # of connection points: 2
#     Edge 28, Type (0, 0), BuildingBlock: EYOCIG_clean_linker_4, # of connection points: 2
#     Edge 29, Type (0, 0), BuildingBlock: EYOCIG_clean_linker_4, # of connection points: 2
#     Edge 30, Type (0, 0), BuildingBlock: EYOCIG_clean_linker_4, # of connection points: 2
#     Edge 31, Type (0, 0), BuildingBlock: EYOCIG_clean_linker_4, # of connection points: 2
#     Edge 32, Type (0, 0), BuildingBlock: EYOCIG_clean_linker_4, # of connection points: 2
#     Edge 33, Type (0, 0), BuildingBlock: EYOCIG_clean_linker_4, # of connection points: 2
#     Edge 34, Type (0, 0), BuildingBlock: EYOCIG_clean_linker_4, # of connection points: 2
#     Edge 35, Type (0, 0), BuildingBlock: EYOCIG_clean_linker_4, # of connection points: 2
# Relax obj value: 0.114
# Max RMSD: 0.129
# Mean RMSD: 0.129
data_MOF--net-ukf--node1-QUQFOY_clean_sbu_1--edge1-EYOCIG_clean_linker_4
_symmetry_space_group_name_H-M    P1
_symmetry_Int_Tables_number       1
_symmetry_cell_setting            triclinic
loop_
_symmetry_equiv_pos_as_xyz
'x, y, z'
_cell_length_a     25.985447
_cell_length_b     25.984166
_cell_length_c     57.006807
_cell_angle_alpha  89.967599
_cell_angle_beta   89.980811
_cell_angle_gamma 119.97405
loop_
_atom_site_label
_atom_site_type_symbol
_atom_site_fract_x
_atom_site_fract_y
_atom_site_fract_z
_atom_type_partial_charge
O0 O 0.45692 0.33102 0.09099 0.0
Cd1 Cd 0.441 0.24767 0.10061 0.0
Cd2 Cd 0.37995 0.22226 0.05868 0.0
O3 O 0.3922 0.30754 0.062 0.0
O4 O 0.46992 0.25857 0.13371 0.0
O5 O 0.37617 0.1977 0.12385 0.0
C6 C 0.41633 0.22129 0.13992 0.0
C7 C 0.2944 0.13298 0.0495 0.0
C8 C 0.43149 0.34598 0.07561 0.0
C9 C 0.49053 0.21395 0.06054 0.0
O10 O 0.45414 0.2204 0.04785 0.0
O11 O 0.48945 0.21694 0.08274 0.0
O12 O 0.31996 0.17441 0.03402 0.0
O13 O 0.31353 0.14433 0.07086 0.0
O14 O 0.11953 0.4605 0.42441 0.0
Cd15 Cd 0.1871 0.44467 0.43392 0.0
Cd16 Cd 0.15159 0.3839 0.39194 0.0
O17 O 0.07853 0.39607 0.39533 0.0
O18 O 0.2051 0.4733 0.46705 0.0
O19 O 0.17246 0.37966 0.45704 0.0
C20 C 0.18897 0.41968 0.47317 0.0
C21 C 0.15529 0.29832 0.38271 0.0
C22 C 0.07922 0.43518 0.40902 0.0
C23 C 0.27034 0.49454 0.39383 0.0
O24 O 0.2276 0.45814 0.38113 0.0
O25 O 0.26621 0.49338 0.41604 0.0
O26 O 0.13947 0.32397 0.36725 0.0
O27 O 0.16308 0.31742 0.40408 0.0
O28 O 0.65291 0.12238 0.75764 0.0
Cd29 Cd 0.7362 0.18982 0.76727 0.0
Cd30 Cd 0.76176 0.15474 0.72517 0.0
O31 O 0.67645 0.08177 0.72842 0.0
O32 O 0.72523 0.20757 0.80041 0.0
O33 O 0.78635 0.17501 0.79043 0.0
C34 C 0.76271 0.19144 0.80655 0.0
C35 C 0.85096 0.15832 0.71588 0.0
C36 C 0.63799 0.08231 0.74215 0.0
C37 C 0.76997 0.27358 0.72732 0.0
O38 O 0.76376 0.231 0.71454 0.0
O39 O 0.76674 0.26914 0.74952 0.0
O40 O 0.80961 0.14281 0.70041 0.0
O41 O 0.83957 0.16585 0.73728 0.0
O42 O 0.52325 0.65592 0.09091 0.0
Cd43 Cd 0.539 0.73926 0.10043 0.0
Cd44 Cd 0.60024 0.76472 0.05854 0.0
O45 O 0.58807 0.67947 0.06192 0.0
O46 O 0.51011 0.72852 0.13354 0.0
O47 O 0.60383 0.78946 0.12359 0.0
C48 C 0.5637 0.76593 0.13969 0.0
C49 C 0.68582 0.85408 0.04942 0.0
C50 C 0.54877 0.641 0.07556 0.0
C51 C 0.48953 0.7728 0.06028 0.0
O52 O 0.52608 0.76649 0.04763 0.0
O53 O 0.49047 0.76978 0.08248 0.0
O54 O 0.66045 0.81271 0.03393 0.0
O55 O 0.66647 0.84262 0.07076 0.0
O56 O 0.86089 0.52692 0.4245 0.0
Cd57 Cd 0.79348 0.54292 0.4341 0.0
Cd58 Cd 0.82903 0.60383 0.39209 0.0
O59 O 0.90199 0.59147 0.39542 0.0
O60 O 0.77552 0.51415 0.46724 0.0
O61 O 0.80839 0.60788 0.45725 0.0
C62 C 0.79183 0.56778 0.47337 0.0
C63 C 0.82549 0.68947 0.38279 0.0
C64 C 0.90121 0.55225 0.40909 0.0
C65 C 0.71014 0.49336 0.39409 0.0
O66 O 0.75292 0.52968 0.38136 0.0
O67 O 0.71429 0.49447 0.41629 0.0
O68 O 0.84121 0.66373 0.36734 0.0
O69 O 0.81773 0.67043 0.40417 0.0
O70 O 0.32794 0.86434 0.75742 0.0
Cd71 Cd 0.24454 0.79692 0.76699 0.0
Cd72 Cd 0.21934 0.83255 0.72497 0.0
O73 O 0.30462 0.90548 0.72832 0.0
O74 O 0.25522 0.77881 0.80012 0.0
O75 O 0.19437 0.81171 0.79016 0.0
C76 C 0.21784 0.79507 0.80626 0.0
C77 C 0.13013 0.82902 0.71577 0.0
C78 C 0.34299 0.90467 0.74201 0.0
C79 C 0.21093 0.71364 0.72695 0.0
O80 O 0.21739 0.75643 0.71422 0.0
O81 O 0.21392 0.71777 0.74915 0.0
O82 O 0.17154 0.84478 0.70029 0.0
O83 O 0.14147 0.82122 0.73714 0.0
O84 O 0.65321 0.52685 0.63757 0.0
Cd85 Cd 0.73674 0.54291 0.62816 0.0
Cd86 Cd 0.76164 0.60409 0.66992 0.0
O87 O 0.67642 0.59189 0.66641 0.0
O88 O 0.72641 0.51408 0.59507 0.0
O89 O 0.78693 0.60786 0.605 0.0
C90 C 0.76366 0.56774 0.58891 0.0
C91 C 0.85103 0.68973 0.67885 0.0
C92 C 0.63809 0.55243 0.65281 0.0
C93 C 0.7701 0.49364 0.66844 0.0
O94 O 0.76339 0.53003 0.68102 0.0
O95 O 0.76741 0.49465 0.64622 0.0
O96 O 0.80965 0.66462 0.69438 0.0
O97 O 0.83956 0.67009 0.65756 0.0
O98 O 0.11928 0.65615 0.97058 0.0
Cd99 Cd 0.1869 0.7395 0.96106 0.0
Cd100 Cd 0.15112 0.76476 1.00303 0.0
O101 O 0.07806 0.67957 0.99962 0.0
O102 O 0.20511 0.72884 0.92795 0.0
O103 O 0.17237 0.78984 0.93789 0.0
C104 C 0.18899 0.76632 0.92179 0.0
C105 C 0.15492 0.85409 1.01225 0.0
C106 C 0.07886 0.64116 0.98595 0.0
C107 C 0.26988 0.77279 1.0012 0.0
O108 O 0.22704 0.76641 1.01387 0.0
O109 O 0.2659 0.76989 0.97899 0.0
O110 O 0.13892 0.81258 1.02771 0.0
O111 O 0.1628 0.8428 0.99089 0.0
O112 O 0.45782 0.12406 0.30411 0.0
Cd113 Cd 0.44163 0.19147 0.29471 0.0
Cd114 Cd 0.38042 0.15509 0.3365 0.0
O115 O 0.39275 0.08215 0.33297 0.0
O116 O 0.47041 0.20998 0.26159 0.0
O117 O 0.37661 0.17663 0.2716 0.0
C118 C 0.41673 0.19351 0.25548 0.0
C119 C 0.29473 0.15873 0.34555 0.0
C120 C 0.43225 0.08334 0.31936 0.0
C121 C 0.49074 0.27402 0.33496 0.0
O122 O 0.45441 0.2309 0.34755 0.0
O123 O 0.48976 0.27037 0.31274 0.0
O124 O 0.31995 0.14249 0.36104 0.0
O125 O 0.31429 0.16692 0.32424 0.0
O126 O 0.32796 0.46049 0.63735 0.0
Cd127 Cd 0.24447 0.44443 0.62789 0.0
Cd128 Cd 0.21936 0.38333 0.66974 0.0
O129 O 0.30463 0.39563 0.66631 0.0
O130 O 0.25493 0.4732 0.59477 0.0
O131 O 0.19432 0.37945 0.60478 0.0
C132 C 0.21764 0.41955 0.58866 0.0
C133 C 0.13002 0.29767 0.67877 0.0
C134 C 0.34301 0.43501 0.65267 0.0
C135 C 0.21088 0.49378 0.66806 0.0
O136 O 0.21746 0.45739 0.6807 0.0
O137 O 0.21376 0.49277 0.64585 0.0
O138 O 0.17135 0.32294 0.69429 0.0
O139 O 0.14152 0.31717 0.65745 0.0
O140 O 0.86058 0.33102 0.97066 0.0
Cd141 Cd 0.79317 0.24751 0.96124 0.0
Cd142 Cd 0.82911 0.2225 1.00314 0.0
O143 O 0.90204 0.30777 0.99965 0.0
O144 O 0.77491 0.25783 0.9281 0.0
O145 O 0.808 0.1972 0.93818 0.0
C146 C 0.79125 0.22047 0.92203 0.0
C147 C 0.82544 0.13319 1.01229 0.0
C148 C 0.90106 0.34611 0.98599 0.0
C149 C 0.71022 0.21408 1.00142 0.0
O150 O 0.75315 0.22067 1.01406 0.0
O151 O 0.71413 0.21689 0.9792 0.0
O152 O 0.84146 0.17462 1.02776 0.0
O153 O 0.81748 0.14457 0.99095 0.0
O154 O 0.52376 0.86477 0.30396 0.0
Cd155 Cd 0.53946 0.79709 0.2945 0.0
Cd156 Cd 0.60073 0.83303 0.33635 0.0
O157 O 0.58863 0.90614 0.33288 0.0
O158 O 0.51043 0.77874 0.26143 0.0
O159 O 0.60418 0.81151 0.27128 0.0
C160 C 0.56398 0.79484 0.25522 0.0
C161 C 0.68629 0.82921 0.34547 0.0
C162 C 0.54933 0.90528 0.31925 0.0
C163 C 0.49005 0.71432 0.33476 0.0
O164 O 0.52657 0.75722 0.34736 0.0
O165 O 0.49099 0.71817 0.31254 0.0
O166 O 0.66094 0.84534 0.36094 0.0
O167 O 0.66692 0.82121 0.32414 0.0
C168 C 0.18923 0.96393 1.02654 0.0
C169 C 0.17382 0.9142 1.01962 0.0
C170 C 0.21885 0.02314 0.03526 0.0
C171 C 0.25318 0.07286 0.04217 0.0
C172 C 0.18946 0.22265 0.36844 0.0
C173 C 0.17411 0.25704 0.37535 0.0
C174 C 0.21907 0.193 0.35974 0.0
C175 C 0.25346 0.17762 0.35287 0.0
C176 C 0.96079 0.19242 0.70161 0.0
C177 C 0.91106 0.1771 0.70852 0.0
C178 C 0.02006 0.22202 0.69292 0.0
C179 C 0.06984 0.25641 0.68606 0.0
C180 C 0.76147 0.964 0.03522 0.0
C181 C 0.72709 0.91423 0.0421 0.0
C182 C 0.79113 0.02327 1.02653 0.0
C183 C 0.80653 0.07305 1.01964 0.0
C184 C 0.76184 0.79485 0.35971 0.0
C185 C 0.7275 0.81027 0.35281 0.0
C186 C 0.7914 0.76518 0.36845 0.0
C187 C 0.80671 0.73078 0.3754 0.0
C188 C 0.96101 0.76533 0.69291 0.0
C189 C 0.91121 0.73096 0.6861 0.0
C190 C 0.02029 0.79492 0.70156 0.0
C191 C 0.07003 0.81024 0.70843 0.0
C192 C 0.61656 0.20164 1.02404 0.0
C193 C 0.6581 0.20712 1.01277 0.0
C194 C 0.57188 0.20161 0.03797 0.0
C195 C 0.53577 0.20706 0.04922 0.0
C196 C 0.36404 0.57606 0.37132 0.0
C197 C 0.32246 0.53986 0.38254 0.0
C198 C 0.40875 0.62079 0.35743 0.0
C199 C 0.44487 0.66231 0.34616 0.0
C200 C 0.78238 0.36759 0.70497 0.0
C201 C 0.77689 0.32587 0.71613 0.0
C202 C 0.78242 0.41239 0.69112 0.0
C203 C 0.77698 0.44851 0.67986 0.0
C204 C 0.36349 0.78501 1.02376 0.0
C205 C 0.32196 0.77961 1.01252 0.0
C206 C 0.40817 0.78501 0.03766 0.0
C207 C 0.4443 0.77962 0.04892 0.0
C208 C 0.57176 0.36748 0.35768 0.0
C209 C 0.53578 0.32602 0.34638 0.0
C210 C 0.61638 0.41208 0.3716 0.0
C211 C 0.65796 0.44815 0.38283 0.0
C212 C 0.19847 0.57504 0.69065 0.0
C213 C 0.20395 0.53894 0.67941 0.0
C214 C 0.19848 0.61979 0.7045 0.0
C215 C 0.20398 0.66143 0.71569 0.0
C216 C 0.39683 0.20013 0.18535 0.0
C217 C 0.40235 0.20756 0.16437 0.0
C218 C 0.39692 0.19527 0.21009 0.0
C219 C 0.40258 0.1933 0.23105 0.0
C220 C 0.19091 0.39986 0.51855 0.0
C221 C 0.18887 0.40551 0.49759 0.0
C222 C 0.19596 0.39984 0.54328 0.0
C223 C 0.20363 0.40544 0.56424 0.0
C224 C 0.78929 0.19852 0.87667 0.0
C225 C 0.79134 0.20631 0.89762 0.0
C226 C 0.78426 0.19337 0.85194 0.0
C227 C 0.77667 0.19134 0.83097 0.0
C228 C 0.5833 0.78752 0.18508 0.0
C229 C 0.5777 0.77987 0.16412 0.0
C230 C 0.58337 0.79262 0.20981 0.0
C231 C 0.57788 0.79477 0.23078 0.0
C232 C 0.78523 0.58745 0.54351 0.0
C233 C 0.77761 0.58184 0.56448 0.0
C234 C 0.79018 0.58746 0.51877 0.0
C235 C 0.79209 0.58187 0.4978 0.0
C236 C 0.19112 0.78803 0.8764 0.0
C237 C 0.189 0.78035 0.89736 0.0
C238 C 0.19621 0.79311 0.85166 0.0
C239 C 0.20386 0.79515 0.83069 0.0
C240 C 0.50496 0.52501 0.07169 0.0
C241 C 0.52748 0.57852 0.07234 0.0
C242 C 0.47539 0.462 0.0717 0.0
C243 C 0.45282 0.40848 0.07237 0.0
C244 C 0.97338 0.50839 0.40521 0.0
C245 C 0.94237 0.5309 0.40587 0.0
C246 C 0.00693 0.47891 0.4052 0.0
C247 C 0.038 0.45646 0.40583 0.0
C248 C 0.52201 0.01023 0.7382 0.0
C249 C 0.57551 0.04122 0.73888 0.0
C250 C 0.459 0.97676 0.73817 0.0
C251 C 0.4055 0.9458 0.7388 0.0
C252 C 0.52205 0.50855 0.65654 0.0
C253 C 0.57557 0.5311 0.65594 0.0
C254 C 0.45904 0.47898 0.65651 0.0
C255 C 0.40553 0.45641 0.65586 0.0
C256 C 0.00661 0.52516 0.98977 0.0
C257 C 0.03764 0.57867 0.98914 0.0
C258 C 0.97312 0.46215 0.98976 0.0
C259 C 0.94216 0.40864 0.98914 0.0
C260 C 0.50567 0.97764 0.32306 0.0
C261 C 0.5281 0.94656 0.32243 0.0
C262 C 0.47617 0.01117 0.32307 0.0
C263 C 0.45363 0.04217 0.32247 0.0
loop_
_geom_bond_atom_site_label_1
_geom_bond_atom_site_label_2
_geom_bond_distance
_geom_bond_site_symmetry_2
_ccdc_geom_bond_type
O0 Cd1 2.223 . S
O0 C8 1.315 . S
Cd1 O0 2.223 . S
Cd1 O4 2.297 . S
Cd1 O5 2.439 . S
Cd1 O11 2.240 . S
Cd2 O3 2.240 . S
Cd2 O10 2.223 . S
Cd2 O12 2.297 . S
Cd2 O13 2.439 . S
O3 Cd2 2.240 . S
O3 C8 1.279 . S
O4 Cd1 2.297 . S
O4 C6 1.247 . S
O5 Cd1 2.439 . S
O5 C6 1.208 . S
C6 O4 1.247 . S
C6 O5 1.208 . S
C7 O12 1.247 . S
C7 O13 1.208 . S
C8 O0 1.315 . S
C8 O3 1.279 . S
C9 O10 1.315 . S
C9 O11 1.279 . S
O10 Cd2 2.223 . S
O10 C9 1.315 . S
O11 Cd1 2.240 . S
O11 C9 1.279 . S
O12 Cd2 2.297 . S
O12 C7 1.247 . S
O13 Cd2 2.439 . S
O13 C7 1.208 . S
O14 Cd15 2.223 . S
O14 C22 1.315 . S
Cd15 O14 2.223 . S
Cd15 O18 2.297 . S
Cd15 O19 2.439 . S
Cd15 O25 2.240 . S
Cd16 O17 2.240 . S
Cd16 O24 2.223 . S
Cd16 O26 2.297 . S
Cd16 O27 2.439 . S
O17 Cd16 2.240 . S
O17 C22 1.279 . S
O18 Cd15 2.297 . S
O18 C20 1.247 . S
O19 Cd15 2.439 . S
O19 C20 1.208 . S
C20 O18 1.247 . S
C20 O19 1.208 . S
C21 O26 1.247 . S
C21 O27 1.208 . S
C22 O14 1.315 . S
C22 O17 1.279 . S
C23 O24 1.315 . S
C23 O25 1.279 . S
O24 Cd16 2.223 . S
O24 C23 1.315 . S
O25 Cd15 2.240 . S
O25 C23 1.279 . S
O26 Cd16 2.297 . S
O26 C21 1.247 . S
O27 Cd16 2.439 . S
O27 C21 1.208 . S
O28 Cd29 2.223 . S
O28 C36 1.315 . S
Cd29 O28 2.223 . S
Cd29 O32 2.297 . S
Cd29 O33 2.439 . S
Cd29 O39 2.240 . S
Cd30 O31 2.240 . S
Cd30 O38 2.223 . S
Cd30 O40 2.297 . S
Cd30 O41 2.439 . S
O31 Cd30 2.240 . S
O31 C36 1.279 . S
O32 Cd29 2.297 . S
O32 C34 1.247 . S
O33 Cd29 2.439 . S
O33 C34 1.208 . S
C34 O32 1.247 . S
C34 O33 1.208 . S
C35 O40 1.247 . S
C35 O41 1.208 . S
C36 O28 1.315 . S
C36 O31 1.279 . S
C37 O38 1.315 . S
C37 O39 1.279 . S
O38 Cd30 2.223 . S
O38 C37 1.315 . S
O39 Cd29 2.240 . S
O39 C37 1.279 . S
O40 Cd30 2.297 . S
O40 C35 1.247 . S
O41 Cd30 2.439 . S
O41 C35 1.208 . S
O42 Cd43 2.223 . S
O42 C50 1.315 . S
Cd43 O42 2.223 . S
Cd43 O46 2.297 . S
Cd43 O47 2.439 . S
Cd43 O53 2.240 . S
Cd44 O45 2.240 . S
Cd44 O52 2.223 . S
Cd44 O54 2.297 . S
Cd44 O55 2.439 . S
O45 Cd44 2.240 . S
O45 C50 1.279 . S
O46 Cd43 2.297 . S
O46 C48 1.247 . S
O47 Cd43 2.439 . S
O47 C48 1.208 . S
C48 O46 1.247 . S
C48 O47 1.208 . S
C49 O54 1.247 . S
C49 O55 1.208 . S
C50 O42 1.315 . S
C50 O45 1.279 . S
C51 O52 1.315 . S
C51 O53 1.279 . S
O52 Cd44 2.223 . S
O52 C51 1.315 . S
O53 Cd43 2.240 . S
O53 C51 1.279 . S
O54 Cd44 2.297 . S
O54 C49 1.247 . S
O55 Cd44 2.439 . S
O55 C49 1.208 . S
O56 Cd57 2.223 . S
O56 C64 1.315 . S
Cd57 O56 2.223 . S
Cd57 O60 2.297 . S
Cd57 O61 2.439 . S
Cd57 O67 2.240 . S
Cd58 O59 2.240 . S
Cd58 O66 2.223 . S
Cd58 O68 2.297 . S
Cd58 O69 2.439 . S
O59 Cd58 2.240 . S
O59 C64 1.279 . S
O60 Cd57 2.297 . S
O60 C62 1.247 . S
O61 Cd57 2.439 . S
O61 C62 1.208 . S
C62 O60 1.247 . S
C62 O61 1.208 . S
C63 O68 1.247 . S
C63 O69 1.208 . S
C64 O56 1.315 . S
C64 O59 1.279 . S
C65 O66 1.315 . S
C65 O67 1.279 . S
O66 Cd58 2.223 . S
O66 C65 1.315 . S
O67 Cd57 2.240 . S
O67 C65 1.279 . S
O68 Cd58 2.297 . S
O68 C63 1.247 . S
O69 Cd58 2.439 . S
O69 C63 1.208 . S
O70 Cd71 2.223 . S
O70 C78 1.315 . S
Cd71 O70 2.223 . S
Cd71 O74 2.297 . S
Cd71 O75 2.439 . S
Cd71 O81 2.240 . S
Cd72 O73 2.240 . S
Cd72 O80 2.223 . S
Cd72 O82 2.297 . S
Cd72 O83 2.439 . S
O73 Cd72 2.240 . S
O73 C78 1.279 . S
O74 Cd71 2.297 . S
O74 C76 1.247 . S
O75 Cd71 2.439 . S
O75 C76 1.208 . S
C76 O74 1.247 . S
C76 O75 1.208 . S
C77 O82 1.247 . S
C77 O83 1.208 . S
C78 O70 1.315 . S
C78 O73 1.279 . S
C79 O80 1.315 . S
C79 O81 1.279 . S
O80 Cd72 2.223 . S
O80 C79 1.315 . S
O81 Cd71 2.240 . S
O81 C79 1.279 . S
O82 Cd72 2.297 . S
O82 C77 1.247 . S
O83 Cd72 2.439 . S
O83 C77 1.208 . S
O84 Cd85 2.223 . S
O84 C92 1.315 . S
Cd85 O84 2.223 . S
Cd85 O88 2.297 . S
Cd85 O89 2.439 . S
Cd85 O95 2.240 . S
Cd86 O87 2.240 . S
Cd86 O94 2.223 . S
Cd86 O96 2.297 . S
Cd86 O97 2.439 . S
O87 Cd86 2.240 . S
O87 C92 1.279 . S
O88 Cd85 2.297 . S
O88 C90 1.247 . S
O89 Cd85 2.439 . S
O89 C90 1.208 . S
C90 O88 1.247 . S
C90 O89 1.208 . S
C91 O96 1.247 . S
C91 O97 1.208 . S
C92 O84 1.315 . S
C92 O87 1.279 . S
C93 O94 1.315 . S
C93 O95 1.279 . S
O94 Cd86 2.223 . S
O94 C93 1.315 . S
O95 Cd85 2.240 . S
O95 C93 1.279 . S
O96 Cd86 2.297 . S
O96 C91 1.247 . S
O97 Cd86 2.439 . S
O97 C91 1.208 . S
O98 Cd99 2.223 . S
O98 C106 1.315 . S
Cd99 O98 2.223 . S
Cd99 O102 2.297 . S
Cd99 O103 2.439 . S
Cd99 O109 2.240 . S
Cd100 O101 2.240 . S
Cd100 O108 2.223 . S
Cd100 O110 2.297 . S
Cd100 O111 2.439 . S
O101 Cd100 2.240 . S
O101 C106 1.279 . S
O102 Cd99 2.297 . S
O102 C104 1.247 . S
O103 Cd99 2.439 . S
O103 C104 1.208 . S
C104 O102 1.247 . S
C104 O103 1.208 . S
C105 O110 1.247 . S
C105 O111 1.208 . S
C106 O98 1.315 . S
C106 O101 1.279 . S
C107 O108 1.315 . S
C107 O109 1.279 . S
O108 Cd100 2.223 . S
O108 C107 1.315 . S
O109 Cd99 2.240 . S
O109 C107 1.279 . S
O110 Cd100 2.297 . S
O110 C105 1.247 . S
O111 Cd100 2.439 . S
O111 C105 1.208 . S
O112 Cd113 2.223 . S
O112 C120 1.315 . S
Cd113 O112 2.223 . S
Cd113 O116 2.297 . S
Cd113 O117 2.439 . S
Cd113 O123 2.240 . S
Cd114 O115 2.240 . S
Cd114 O122 2.223 . S
Cd114 O124 2.297 . S
Cd114 O125 2.439 . S
O115 Cd114 2.240 . S
O115 C120 1.279 . S
O116 Cd113 2.297 . S
O116 C118 1.247 . S
O117 Cd113 2.439 . S
O117 C118 1.208 . S
C118 O116 1.247 . S
C118 O117 1.208 . S
C119 O124 1.247 . S
C119 O125 1.208 . S
C120 O112 1.315 . S
C120 O115 1.279 . S
C121 O122 1.315 . S
C121 O123 1.279 . S
O122 Cd114 2.223 . S
O122 C121 1.315 . S
O123 Cd113 2.240 . S
O123 C121 1.279 . S
O124 Cd114 2.297 . S
O124 C119 1.247 . S
O125 Cd114 2.439 . S
O125 C119 1.208 . S
O126 Cd127 2.223 . S
O126 C134 1.315 . S
Cd127 O126 2.223 . S
Cd127 O130 2.297 . S
Cd127 O131 2.439 . S
Cd127 O137 2.240 . S
Cd128 O129 2.240 . S
Cd128 O136 2.223 . S
Cd128 O138 2.297 . S
Cd128 O139 2.439 . S
O129 Cd128 2.240 . S
O129 C134 1.279 . S
O130 Cd127 2.297 . S
O130 C132 1.247 . S
O131 Cd127 2.439 . S
O131 C132 1.208 . S
C132 O130 1.247 . S
C132 O131 1.208 . S
C133 O138 1.247 . S
C133 O139 1.208 . S
C134 O126 1.315 . S
C134 O129 1.279 . S
C135 O136 1.315 . S
C135 O137 1.279 . S
O136 Cd128 2.223 . S
O136 C135 1.315 . S
O137 Cd127 2.240 . S
O137 C135 1.279 . S
O138 Cd128 2.297 . S
O138 C133 1.247 . S
O139 Cd128 2.439 . S
O139 C133 1.208 . S
O140 Cd141 2.223 . S
O140 C148 1.315 . S
Cd141 O140 2.223 . S
Cd141 O144 2.297 . S
Cd141 O145 2.439 . S
Cd141 O151 2.240 . S
Cd142 O143 2.240 . S
Cd142 O150 2.223 . S
Cd142 O152 2.297 . S
Cd142 O153 2.439 . S
O143 Cd142 2.240 . S
O143 C148 1.279 . S
O144 Cd141 2.297 . S
O144 C146 1.247 . S
O145 Cd141 2.439 . S
O145 C146 1.208 . S
C146 O144 1.247 . S
C146 O145 1.208 . S
C147 O152 1.247 . S
C147 O153 1.208 . S
C148 O140 1.315 . S
C148 O143 1.279 . S
C149 O150 1.315 . S
C149 O151 1.279 . S
O150 Cd142 2.223 . S
O150 C149 1.315 . S
O151 Cd141 2.240 . S
O151 C149 1.279 . S
O152 Cd142 2.297 . S
O152 C147 1.247 . S
O153 Cd142 2.439 . S
O153 C147 1.208 . S
O154 Cd155 2.223 . S
O154 C162 1.315 . S
Cd155 O154 2.223 . S
Cd155 O158 2.297 . S
Cd155 O159 2.439 . S
Cd155 O165 2.240 . S
Cd156 O157 2.240 . S
Cd156 O164 2.223 . S
Cd156 O166 2.297 . S
Cd156 O167 2.439 . S
O157 Cd156 2.240 . S
O157 C162 1.279 . S
O158 Cd155 2.297 . S
O158 C160 1.247 . S
O159 Cd155 2.439 . S
O159 C160 1.208 . S
C160 O158 1.247 . S
C160 O159 1.208 . S
C161 O166 1.247 . S
C161 O167 1.208 . S
C162 O154 1.315 . S
C162 O157 1.279 . S
C163 O164 1.315 . S
C163 O165 1.279 . S
O164 Cd156 2.223 . S
O164 C163 1.315 . S
O165 Cd155 2.240 . S
O165 C163 1.279 . S
O166 Cd156 2.297 . S
O166 C161 1.247 . S
O167 Cd156 2.439 . S
O167 C161 1.208 . S
C168 C169 1.170 . S
C168 C170 1.380 1_566 S
C169 C168 1.170 . S
C170 C168 1.380 1_544 S
C170 C171 1.170 . S
C171 C170 1.170 . S
C172 C173 1.170 . S
C172 C174 1.380 . S
C173 C172 1.170 . S
C174 C172 1.380 . S
C174 C175 1.170 . S
C175 C174 1.170 . S
C176 C177 1.170 . S
C176 C178 1.380 1_655 S
C177 C176 1.170 . S
C178 C176 1.380 1_455 S
C178 C179 1.170 . S
C179 C178 1.170 . S
C180 C181 1.170 . S
C180 C182 1.380 1_564 S
C181 C180 1.170 . S
C182 C180 1.380 1_546 S
C182 C183 1.170 . S
C183 C182 1.170 . S
C184 C185 1.170 . S
C184 C186 1.380 . S
C185 C184 1.170 . S
C186 C184 1.380 . S
C186 C187 1.170 . S
C187 C186 1.170 . S
C188 C189 1.170 . S
C188 C190 1.380 1_655 S
C189 C188 1.170 . S
C190 C188 1.380 1_455 S
C190 C191 1.170 . S
C191 C190 1.170 . S
C192 C193 1.170 . S
C192 C194 1.380 1_556 S
C193 C192 1.170 . S
C194 C192 1.380 1_554 S
C194 C195 1.170 . S
C195 C194 1.170 . S
C196 C197 1.170 . S
C196 C198 1.380 . S
C197 C196 1.170 . S
C198 C196 1.380 . S
C198 C199 1.170 . S
C199 C198 1.170 . S
C200 C201 1.170 . S
C200 C202 1.380 . S
C201 C200 1.170 . S
C202 C200 1.380 . S
C202 C203 1.170 . S
C203 C202 1.170 . S
C204 C205 1.170 . S
C204 C206 1.380 1_556 S
C205 C204 1.170 . S
C206 C204 1.380 1_554 S
C206 C207 1.170 . S
C207 C206 1.170 . S
C208 C209 1.170 . S
C208 C210 1.380 . S
C209 C208 1.170 . S
C210 C208 1.380 . S
C210 C211 1.170 . S
C211 C210 1.170 . S
C212 C213 1.170 . S
C212 C214 1.380 . S
C213 C212 1.170 . S
C214 C212 1.380 . S
C214 C215 1.170 . S
C215 C214 1.170 . S
C216 C217 1.170 . S
C216 C218 1.380 . S
C217 C216 1.170 . S
C218 C216 1.380 . S
C218 C219 1.170 . S
C219 C218 1.170 . S
C220 C221 1.170 . S
C220 C222 1.380 . S
C221 C220 1.170 . S
C222 C220 1.380 . S
C222 C223 1.170 . S
C223 C222 1.170 . S
C224 C225 1.170 . S
C224 C226 1.380 . S
C225 C224 1.170 . S
C226 C224 1.380 . S
C226 C227 1.170 . S
C227 C226 1.170 . S
C228 C229 1.170 . S
C228 C230 1.380 . S
C229 C228 1.170 . S
C230 C228 1.380 . S
C230 C231 1.170 . S
C231 C230 1.170 . S
C232 C233 1.170 . S
C232 C234 1.380 . S
C233 C232 1.170 . S
C234 C232 1.380 . S
C234 C235 1.170 . S
C235 C234 1.170 . S
C236 C237 1.170 . S
C236 C238 1.380 . S
C237 C236 1.170 . S
C238 C236 1.380 . S
C238 C239 1.170 . S
C239 C238 1.170 . S
C240 C241 1.170 . S
C240 C242 1.380 . S
C241 C240 1.170 . S
C242 C240 1.380 . S
C242 C243 1.170 . S
C243 C242 1.170 . S
C244 C245 1.170 . S
C244 C246 1.380 1_655 S
C245 C244 1.170 . S
C246 C244 1.380 1_455 S
C246 C247 1.170 . S
C247 C246 1.170 . S
C248 C249 1.170 . S
C248 C250 1.380 1_545 S
C249 C248 1.170 . S
C250 C248 1.380 1_565 S
C250 C251 1.170 . S
C251 C250 1.170 . S
C252 C253 1.170 . S
C252 C254 1.380 . S
C253 C252 1.170 . S
C254 C252 1.380 . S
C254 C255 1.170 . S
C255 C254 1.170 . S
C256 C257 1.170 . S
C256 C258 1.380 1_455 S
C257 C256 1.170 . S
C258 C256 1.380 1_655 S
C258 C259 1.170 . S
C259 C258 1.170 . S
C260 C261 1.170 . S
C260 C262 1.380 1_565 S
C261 C260 1.170 . S
C262 C260 1.380 1_545 S
C262 C263 1.170 . S
C263 C262 1.170 . S
C169 C105 1.243 . S
C171 C7 1.269 . S
C173 C21 1.242 . S
C175 C119 1.277 . S
C177 C35 1.242 . S
C179 C133 1.271 . S
C181 C49 1.273 . S
C183 C147 1.250 . S
C185 C161 1.274 . S
C187 C63 1.249 . S
C189 C91 1.271 . S
C191 C77 1.242 . S
C193 C149 1.702 . S
C195 C9 1.702 . S
C197 C23 1.694 . S
C199 C163 1.696 . S
C201 C37 1.690 . S
C203 C93 1.692 . S
C205 C107 1.700 . S
C207 C51 1.701 . S
C209 C121 1.684 . S
C211 C65 1.682 . S
C213 C135 1.681 . S
C215 C79 1.682 . S
C217 C6 1.733 . S
C219 C118 1.707 . S
C221 C20 1.706 . S
C223 C132 1.703 . S
C225 C146 1.731 . S
C227 C34 1.729 . S
C229 C48 1.699 . S
C231 C160 1.715 . S
C233 C90 1.735 . S
C235 C62 1.714 . S
C237 C104 1.705 . S
C239 C76 1.704 . S
C241 C50 1.358 . S
C243 C8 1.362 . S
C245 C64 1.328 . S
C247 C22 1.325 . S
C249 C36 1.360 . S
C251 C78 1.350 . S
C253 C92 1.325 . S
C255 C134 1.326 . S
C257 C106 1.339 . S
C259 C148 1.327 . S
C261 C162 1.353 . S
C263 C120 1.338 . S
