# Generated by pormake.
# Topology bcs, (6)-cn, num edge types: 1
# Building blocks:
#     Node 0, Type 0, BuildingBlock: JUFBIX_clean_sbu_0, # of connection points: 6
#     Node 1, Type 0, BuildingBlock: JUFBIX_clean_sbu_0, # of connection points: 6
#     Node 2, Type 0, BuildingBlock: JUFBIX_clean_sbu_0, # of connection points: 6
#     Node 3, Type 0, BuildingBlock: JUFBIX_clean_sbu_0, # of connection points: 6
#     Node 4, Type 0, BuildingBlock: JUFBIX_clean_sbu_0, # of connection points: 6
#     Node 5, Type 0, BuildingBlock: JUFBIX_clean_sbu_0, # of connection points: 6
#     Node 6, Type 0, BuildingBlock: JUFBIX_clean_sbu_0, # of connection points: 6
#     Node 7, Type 0, BuildingBlock: JUFBIX_clean_sbu_0, # of connection points: 6
#     Node 8, Type 0, BuildingBlock: JUFBIX_clean_sbu_0, # of connection points: 6
#     Node 9, Type 0, BuildingBlock: JUFBIX_clean_sbu_0, # of connection points: 6
#     Node 10, Type 0, BuildingBlock: JUFBIX_clean_sbu_0, # of connection points: 6
#     Node 11, Type 0, BuildingBlock: JUFBIX_clean_sbu_0, # of connection points: 6
#     Node 12, Type 0, BuildingBlock: JUFBIX_clean_sbu_0, # of connection points: 6
#     Node 13, Type 0, BuildingBlock: JUFBIX_clean_sbu_0, # of connection points: 6
#     Node 14, Type 0, BuildingBlock: JUFBIX_clean_sbu_0, # of connection points: 6
#     Node 15, Type 0, BuildingBlock: JUFBIX_clean_sbu_0, # of connection points: 6
#     Edge 16, Type (0, 0), BuildingBlock: XIVTED_clean_linker_0, # of connection points: 2
#     Edge 17, Type (0, 0), BuildingBlock: XIVTED_clean_linker_0, # of connection points: 2
#     Edge 18, Type (0, 0), BuildingBlock: XIVTED_clean_linker_0, # of connection points: 2
#     Edge 19, Type (0, 0), BuildingBlock: XIVTED_clean_linker_0, # of connection points: 2
#     Edge 20, Type (0, 0), BuildingBlock: XIVTED_clean_linker_0, # of connection points: 2
#     Edge 21, Type (0, 0), BuildingBlock: XIVTED_clean_linker_0, # of connection points: 2
#     Edge 22, Type (0, 0), BuildingBlock: XIVTED_clean_linker_0, # of connection points: 2
#     Edge 23, Type (0, 0), BuildingBlock: XIVTED_clean_linker_0, # of connection points: 2
#     Edge 24, Type (0, 0), BuildingBlock: XIVTED_clean_linker_0, # of connection points: 2
#     Edge 25, Type (0, 0), BuildingBlock: XIVTED_clean_linker_0, # of connection points: 2
#     Edge 26, Type (0, 0), BuildingBlock: XIVTED_clean_linker_0, # of connection points: 2
#     Edge 27, Type (0, 0), BuildingBlock: XIVTED_clean_linker_0, # of connection points: 2
#     Edge 28, Type (0, 0), BuildingBlock: XIVTED_clean_linker_0, # of connection points: 2
#     Edge 29, Type (0, 0), BuildingBlock: XIVTED_clean_linker_0, # of connection points: 2
#     Edge 30, Type (0, 0), BuildingBlock: XIVTED_clean_linker_0, # of connection points: 2
#     Edge 31, Type (0, 0), BuildingBlock: XIVTED_clean_linker_0, # of connection points: 2
#     Edge 32, Type (0, 0), BuildingBlock: XIVTED_clean_linker_0, # of connection points: 2
#     Edge 33, Type (0, 0), BuildingBlock: XIVTED_clean_linker_0, # of connection points: 2
#     Edge 34, Type (0, 0), BuildingBlock: XIVTED_clean_linker_0, # of connection points: 2
#     Edge 35, Type (0, 0), BuildingBlock: XIVTED_clean_linker_0, # of connection points: 2
#     Edge 36, Type (0, 0), BuildingBlock: XIVTED_clean_linker_0, # of connection points: 2
#     Edge 37, Type (0, 0), BuildingBlock: XIVTED_clean_linker_0, # of connection points: 2
#     Edge 38, Type (0, 0), BuildingBlock: XIVTED_clean_linker_0, # of connection points: 2
#     Edge 39, Type (0, 0), BuildingBlock: XIVTED_clean_linker_0, # of connection points: 2
#     Edge 40, Type (0, 0), BuildingBlock: XIVTED_clean_linker_0, # of connection points: 2
#     Edge 41, Type (0, 0), BuildingBlock: XIVTED_clean_linker_0, # of connection points: 2
#     Edge 42, Type (0, 0), BuildingBlock: XIVTED_clean_linker_0, # of connection points: 2
#     Edge 43, Type (0, 0), BuildingBlock: XIVTED_clean_linker_0, # of connection points: 2
#     Edge 44, Type (0, 0), BuildingBlock: XIVTED_clean_linker_0, # of connection points: 2
#     Edge 45, Type (0, 0), BuildingBlock: XIVTED_clean_linker_0, # of connection points: 2
#     Edge 46, Type (0, 0), BuildingBlock: XIVTED_clean_linker_0, # of connection points: 2
#     Edge 47, Type (0, 0), BuildingBlock: XIVTED_clean_linker_0, # of connection points: 2
#     Edge 48, Type (0, 0), BuildingBlock: XIVTED_clean_linker_0, # of connection points: 2
#     Edge 49, Type (0, 0), BuildingBlock: XIVTED_clean_linker_0, # of connection points: 2
#     Edge 50, Type (0, 0), BuildingBlock: XIVTED_clean_linker_0, # of connection points: 2
#     Edge 51, Type (0, 0), BuildingBlock: XIVTED_clean_linker_0, # of connection points: 2
#     Edge 52, Type (0, 0), BuildingBlock: XIVTED_clean_linker_0, # of connection points: 2
#     Edge 53, Type (0, 0), BuildingBlock: XIVTED_clean_linker_0, # of connection points: 2
#     Edge 54, Type (0, 0), BuildingBlock: XIVTED_clean_linker_0, # of connection points: 2
#     Edge 55, Type (0, 0), BuildingBlock: XIVTED_clean_linker_0, # of connection points: 2
#     Edge 56, Type (0, 0), BuildingBlock: XIVTED_clean_linker_0, # of connection points: 2
#     Edge 57, Type (0, 0), BuildingBlock: XIVTED_clean_linker_0, # of connection points: 2
#     Edge 58, Type (0, 0), BuildingBlock: XIVTED_clean_linker_0, # of connection points: 2
#     Edge 59, Type (0, 0), BuildingBlock: XIVTED_clean_linker_0, # of connection points: 2
#     Edge 60, Type (0, 0), BuildingBlock: XIVTED_clean_linker_0, # of connection points: 2
#     Edge 61, Type (0, 0), BuildingBlock: XIVTED_clean_linker_0, # of connection points: 2
#     Edge 62, Type (0, 0), BuildingBlock: XIVTED_clean_linker_0, # of connection points: 2
#     Edge 63, Type (0, 0), BuildingBlock: XIVTED_clean_linker_0, # of connection points: 2
# Relax obj value: 0.393
# Max RMSD: 0.295
# Mean RMSD: 0.241
data_MOF--net-bcs--node1-JUFBIX_clean_sbu_0--edge1-XIVTED_clean_linker_0
_symmetry_space_group_name_H-M    P1
_symmetry_Int_Tables_number       1
_symmetry_cell_setting            triclinic
loop_
_symmetry_equiv_pos_as_xyz
'x, y, z'
_cell_length_a     35.675679
_cell_length_b     37.298888
_cell_length_c     36.601151
_cell_angle_alpha  98.282347
_cell_angle_beta   97.409881
_cell_angle_gamma 88.963272
loop_
_atom_site_label
_atom_site_type_symbol
_atom_site_fract_x
_atom_site_fract_y
_atom_site_fract_z
_atom_type_partial_charge
Co0 Co 0.98829 0.99175 1.00464 0.0
C1 C 0.97867 0.05471 0.05804 0.0
Co2 Co 0.03343 0.03264 0.00854 0.0
C3 C 0.94335 0.94265 0.03583 0.0
C4 C 0.92367 0.94301 0.97817 0.0
N5 N 0.95056 0.95718 1.00547 0.0
N6 N 0.91316 0.92012 0.02869 0.0
C7 C 0.90061 0.92044 0.99235 0.0
H8 H 0.95923 0.94942 0.06316 0.0
H9 H 0.92063 0.94908 0.94992 0.0
C10 C 0.04288 0.96975 0.95493 0.0
N11 N 0.07105 0.06727 0.0077 0.0
C12 C 0.07805 0.08188 0.97732 0.0
C13 C 0.09796 0.08149 0.03494 0.0
N14 N 0.10816 0.10452 0.98439 0.0
C15 C 0.12084 0.10419 0.02071 0.0
C16 C 0.0548 0.97812 0.05632 0.0
O17 O 0.01246 0.95946 0.96575 0.0
O18 O 0.05531 1.00138 0.9687 0.0
O19 O 0.06689 1.00691 0.04598 0.0
O20 O 0.02101 0.96832 0.043 0.0
O21 O 1.01041 0.06411 0.04914 0.0
H22 H 0.10113 0.07537 0.06318 0.0
H23 H 0.06206 0.0751 0.95005 0.0
O24 O 0.96517 0.02393 0.04268 0.0
O25 O 0.95558 0.01646 0.96586 0.0
O26 O 1.00002 0.05704 0.97154 0.0
C27 C 0.96694 0.0462 0.95686 0.0
H28 H 0.8765 0.90537 0.97704 0.0
H29 H 0.14492 0.11933 0.03597 0.0
Co30 Co 0.28236 0.76344 0.23962 0.0
C31 C 0.28605 0.81731 0.30137 0.0
Co32 Co 0.237 0.75988 0.27446 0.0
C33 C 0.33065 0.79837 0.19819 0.0
C34 C 0.34432 0.74218 0.19726 0.0
N35 N 0.32066 0.76792 0.2106 0.0
N36 N 0.35962 0.79278 0.1776 0.0
C37 C 0.36833 0.75736 0.17705 0.0
H38 H 0.31713 0.82432 0.20461 0.0
H39 H 0.34401 0.71417 0.20177 0.0
C40 C 0.23337 0.70594 0.21274 0.0
N41 N 0.19869 0.75555 0.30346 0.0
C42 C 0.18844 0.72527 0.31601 0.0
C43 C 0.17515 0.78152 0.3166 0.0
N44 N 0.1594 0.73121 0.33647 0.0
C45 C 0.15095 0.76665 0.33682 0.0
C46 C 0.21616 0.80561 0.2169 0.0
O47 O 0.26251 0.72181 0.20603 0.0
O48 O 0.21765 0.71861 0.24111 0.0
O49 O 0.20428 0.79265 0.244 0.0
O50 O 0.24949 0.7961 0.20989 0.0
O51 O 0.25692 0.80146 0.30811 0.0
H52 H 0.17568 0.80948 0.31193 0.0
H53 H 0.2018 0.69921 0.30978 0.0
O54 O 0.30167 0.80469 0.27294 0.0
O55 O 0.31514 0.7306 0.27016 0.0
O56 O 0.26974 0.72724 0.3041 0.0
C57 C 0.30308 0.71765 0.2972 0.0
H58 H 0.39005 0.7432 0.16256 0.0
H59 H 0.12925 0.78104 0.35116 0.0
Co60 Co 0.50865 0.98857 0.51963 0.0
C61 C 0.57496 0.0269 0.53911 0.0
Co62 Co 0.50693 0.03823 0.49431 0.0
C63 C 0.5354 0.92084 0.5388 0.0
C64 C 0.47749 0.92914 0.54718 0.0
N65 N 0.50722 0.94503 0.53668 0.0
N66 N 0.52473 0.89029 0.55035 0.0
C67 C 0.48817 0.89544 0.55561 0.0
H68 H 0.56354 0.92624 0.53298 0.0
H69 H 0.44987 0.94129 0.54867 0.0
C70 C 0.44065 0.99995 0.4749 0.0
N71 N 0.50851 0.08174 0.47726 0.0
C72 C 0.48131 0.10704 0.47696 0.0
C73 C 0.5383 0.0969 0.4661 0.0
N74 N 0.49276 0.1377 0.46613 0.0
C75 C 0.52873 0.13132 0.45926 0.0
C76 C 0.52973 0.98121 0.4483 0.0
O77 O 0.45856 0.98003 0.49641 0.0
O78 O 0.45608 0.02903 0.46986 0.0
O79 O 0.52442 0.01509 0.45114 0.0
O80 O 0.52602 0.9648 0.4757 0.0
O81 O 0.55699 0.04692 0.51775 0.0
H82 H 0.56536 0.08389 0.4635 0.0
H83 H 0.45346 0.10251 0.48404 0.0
O84 O 0.55959 0.99771 0.54389 0.0
O85 O 0.49146 1.0117 0.56289 0.0
O86 O 0.48934 0.06195 0.53824 0.0
C87 C 0.48602 0.04556 0.56574 0.0
H88 H 0.47051 0.87667 0.56559 0.0
H89 H 0.54688 0.14986 0.44958 0.0
Co90 Co 0.24146 0.28177 0.75671 0.0
C91 C 0.30199 0.29697 0.81215 0.0
Co92 Co 0.28393 0.23888 0.75671 0.0
C93 C 0.16981 0.31678 0.7556 0.0
C94 C 0.21401 0.35348 0.75158 0.0
N95 N 0.20717 0.31861 0.75414 0.0
N96 N 0.15295 0.34939 0.75518 0.0
C97 C 0.18076 0.37248 0.75225 0.0
H98 H 0.15566 0.29222 0.75875 0.0
H99 H 0.24166 0.3647 0.75112 0.0
C100 C 0.22333 0.22378 0.70122 0.0
N101 N 0.31802 0.20189 0.75939 0.0
C102 C 0.35564 0.20341 0.75941 0.0
C103 C 0.31052 0.1671 0.76162 0.0
N104 N 0.37211 0.17067 0.76068 0.0
C105 C 0.34363 0.14785 0.7624 0.0
C106 C 0.22689 0.23175 0.80247 0.0
O107 O 0.21227 0.2544 0.71583 0.0
O108 O 0.25444 0.21105 0.71502 0.0
O109 O 0.25674 0.21823 0.79068 0.0
O110 O 0.21385 0.26065 0.79091 0.0
O111 O 0.31314 0.26631 0.79772 0.0
H112 H 0.28257 0.15614 0.7612 0.0
H113 H 0.37031 0.22792 0.75698 0.0
O114 O 0.27088 0.30959 0.79823 0.0
O115 O 0.26865 0.30243 0.7227 0.0
O116 O 0.31163 0.26001 0.72265 0.0
C117 C 0.29861 0.28892 0.71106 0.0
H118 H 0.17807 0.4016 0.7539 0.0
H119 H 0.34588 0.11874 0.76113 0.0
Co120 Co 0.03342 0.99866 0.48178 0.0
C121 C 0.05086 0.06832 0.51487 0.0
Co122 Co 0.99991 0.01715 0.52741 0.0
C123 C 0.06585 0.99552 0.41377 0.0
C124 C 0.08314 0.95049 0.44206 0.0
N125 N 0.06158 0.98069 0.44436 0.0
N126 N 0.08934 0.97601 0.39261 0.0
C127 C 0.10068 0.94779 0.41038 0.0
H128 H 0.05319 0.02102 0.40789 0.0
H129 H 0.08646 0.93201 0.46247 0.0
C130 C 0.98223 0.94757 0.4943 0.0
N131 N 0.97181 0.035 0.56491 0.0
C132 C 0.96895 0.02061 0.59607 0.0
C133 C 0.94971 0.06483 0.56732 0.0
N134 N 0.94595 0.04009 0.6178 0.0
C135 C 0.93335 0.06778 0.59975 0.0
C136 C 0.96508 0.02741 0.45793 0.0
O137 O 1.00806 0.95371 0.47516 0.0
O138 O 0.97488 0.97149 0.52088 0.0
O139 O 0.96236 0.03184 0.49244 0.0
O140 O 0.99537 0.01467 0.44645 0.0
O141 O 0.02441 0.06242 0.53336 0.0
H142 H 0.94542 0.08301 0.54664 0.0
H143 H 0.98251 0.99555 0.60214 0.0
O144 O 0.05922 0.04405 0.48903 0.0
O145 O 0.07067 0.98318 0.51675 0.0
O146 O 0.0383 1.00218 0.56274 0.0
C147 C 0.06832 0.98875 0.55134 0.0
H148 H 0.12059 0.92717 0.40139 0.0
H149 H 0.91358 0.08836 0.60916 0.0
Co150 Co 0.26324 0.74477 0.77763 0.0
C151 C 0.31985 0.79507 0.79228 0.0
Co152 Co 0.25998 0.7809 0.73562 0.0
C153 C 0.26667 0.67694 0.80445 0.0
C154 C 0.26117 0.72066 0.84823 0.0
N155 N 0.26353 0.71319 0.81147 0.0
N156 N 0.2672 0.66136 0.83543 0.0
C157 C 0.26348 0.68878 0.86307 0.0
H158 H 0.27006 0.66227 0.77733 0.0
H159 H 0.25952 0.7476 0.8635 0.0
C160 C 0.20353 0.73048 0.7207 0.0
N161 N 0.25982 0.81242 0.70175 0.0
C162 C 0.25743 0.84873 0.70878 0.0
C163 C 0.26215 0.8048 0.66501 0.0
N164 N 0.25748 0.86423 0.6778 0.0
C165 C 0.26067 0.83666 0.65017 0.0
C166 C 0.30665 0.71911 0.7179 0.0
O167 O 0.22047 0.72075 0.75029 0.0
O168 O 0.21638 0.75705 0.708 0.0
O169 O 0.2933 0.74816 0.70674 0.0
O170 O 0.29707 0.71185 0.74851 0.0
O171 O 0.303 0.8045 0.76254 0.0
H172 H 0.26337 0.77781 0.64975 0.0
H173 H 0.2543 0.86352 0.7359 0.0
O174 O 0.30666 0.769 0.80554 0.0
O175 O 0.22953 0.77727 0.80626 0.0
O176 O 0.22651 0.81409 0.76501 0.0
C177 C 0.21654 0.80656 0.79537 0.0
H178 H 0.26542 0.68629 0.89236 0.0
H179 H 0.25897 0.83909 0.62088 0.0
Co180 Co 0.48613 0.02341 1.00244 0.0
C181 C 0.52871 0.05542 0.06564 0.0
Co182 Co 0.54019 0.99549 0.01371 0.0
C183 C 0.41423 0.05179 0.01579 0.0
C184 C 0.42428 0.0565 0.96032 0.0
N185 N 0.43975 0.04424 0.99183 0.0
N186 N 0.38355 0.06853 1.00083 0.0
C187 C 0.38974 0.07201 0.966 0.0
H188 H 0.41908 0.04706 0.04453 0.0
H189 H 0.43777 0.0553 0.93534 0.0
C190 C 0.49747 0.96335 0.95066 0.0
N191 N 0.58658 0.97477 0.02465 0.0
C192 C 0.61275 0.96745 1.00135 0.0
C193 C 0.60193 0.9636 0.05678 0.0
N194 N 0.6438 0.95202 0.0174 0.0
C195 C 0.63711 0.9491 0.05221 0.0
C196 C 0.48356 0.96757 0.04609 0.0
O197 O 0.47528 0.98912 0.95968 0.0
O198 O 0.52887 0.96035 0.9707 0.0
O199 O 0.51833 0.96447 0.04207 0.0
O200 O 0.46418 0.99182 0.03117 0.0
O201 O 0.55102 0.02981 0.05648 0.0
H202 H 0.58815 0.9653 0.08162 0.0
H203 H 0.60841 0.97189 0.97251 0.0
O204 O 0.49741 0.05843 0.04551 0.0
O205 O 0.50794 0.05443 0.97415 0.0
O206 O 0.56221 0.02717 0.98479 0.0
C207 C 0.54268 0.05144 0.96997 0.0
H208 H 0.37131 0.08584 0.94667 0.0
H209 H 0.65589 0.93671 0.07247 0.0
Co210 Co 0.2385 0.2402 0.26194 0.0
C211 C 0.23228 0.30643 0.30625 0.0
Co212 Co 0.27567 0.28294 0.25133 0.0
C213 C 0.20625 0.17124 0.26819 0.0
C214 C 0.16579 0.21441 0.26877 0.0
N215 N 0.20287 0.20726 0.26784 0.0
N216 N 0.17256 0.15564 0.26875 0.0
C217 C 0.14709 0.18274 0.2693 0.0
H218 H 0.23271 0.15668 0.26713 0.0
H219 H 0.15306 0.24092 0.26837 0.0
C220 C 0.28201 0.21673 0.20705 0.0
N221 N 0.3114 0.31582 0.24543 0.0
C222 C 0.30811 0.35166 0.24386 0.0
C223 C 0.34857 0.30857 0.2454 0.0
N224 N 0.34196 0.36705 0.24341 0.0
C225 C 0.36741 0.33998 0.24421 0.0
C226 C 0.30345 0.24233 0.3078 0.0
O227 O 0.25739 0.20631 0.22532 0.0
O228 O 0.29466 0.24885 0.2151 0.0
O229 O 0.30954 0.26731 0.28928 0.0
O230 O 0.27298 0.22425 0.2996 0.0
O231 O 0.25645 0.31697 0.28753 0.0
H232 H 0.36125 0.28215 0.24675 0.0
H233 H 0.28161 0.36626 0.24386 0.0
O234 O 0.21992 0.27418 0.29857 0.0
O235 O 0.20429 0.25624 0.22447 0.0
O236 O 0.24144 0.2985 0.21333 0.0
C237 C 0.21056 0.281 0.20574 0.0
H238 H 0.11716 0.17996 0.27061 0.0
H239 H 0.39743 0.34259 0.24329 0.0
Co240 Co 0.52505 0.50666 0.98513 0.0
C241 C 0.54028 0.57644 0.01885 0.0
Co242 Co 0.49054 0.52359 0.03036 0.0
C243 C 0.55886 0.50511 0.91811 0.0
C244 C 0.57697 0.46026 0.94639 0.0
N245 N 0.55442 0.48979 0.94837 0.0
N246 N 0.58342 0.48656 0.89748 0.0
C247 C 0.59527 0.45848 0.91526 0.0
H248 H 0.54557 0.53032 0.91215 0.0
H249 H 0.58049 0.44169 0.96671 0.0
C250 C 0.47505 0.4539 0.99653 0.0
N251 N 0.46105 0.54059 0.06697 0.0
C252 C 0.45568 0.52517 0.09691 0.0
C253 C 0.43905 0.5705 0.06884 0.0
N254 N 0.43101 0.54401 0.11721 0.0
C255 C 0.42013 0.57243 0.09957 0.0
C256 C 0.45637 0.5334 0.96021 0.0
O257 O 0.5012 0.46086 0.97811 0.0
O258 O 0.46649 0.47745 0.0229 0.0
O259 O 0.45326 0.53783 0.99465 0.0
O260 O 0.4871 0.52141 0.94918 0.0
O261 O 0.51415 0.56938 0.03721 0.0
H262 H 0.4363 0.58925 0.04869 0.0
H263 H 0.46839 0.49971 0.10286 0.0
O264 O 0.54928 0.55283 0.99274 0.0
O265 O 0.56223 0.49233 0.02075 0.0
O266 O 0.52858 0.5089 0.06642 0.0
C267 C 0.55922 0.49684 0.05521 0.0
H268 H 0.61607 0.4386 0.90668 0.0
H269 H 0.39961 0.59267 0.10798 0.0
Co270 Co 0.76459 0.24501 0.27812 0.0
C271 C 0.81878 0.29738 0.29016 0.0
Co272 Co 0.75794 0.27997 0.23504 0.0
C273 C 0.77316 0.1782 0.30674 0.0
C274 C 0.76607 0.22219 0.34981 0.0
N275 N 0.76782 0.21423 0.31297 0.0
N276 N 0.77552 0.16328 0.33826 0.0
C277 C 0.77085 0.19081 0.36548 0.0
H278 H 0.77661 0.16329 0.27975 0.0
H279 H 0.76304 0.24917 0.36452 0.0
C280 C 0.70377 0.22759 0.22299 0.0
N281 N 0.7547 0.31068 0.20012 0.0
C282 C 0.75071 0.34688 0.20649 0.0
C283 C 0.75438 0.30243 0.16301 0.0
N284 N 0.74706 0.36165 0.17482 0.0
C285 C 0.74965 0.3338 0.14734 0.0
C286 C 0.8065 0.21968 0.21717 0.0
O287 O 0.72277 0.2182 0.25181 0.0
O288 O 0.7142 0.25501 0.21002 0.0
O289 O 0.79007 0.24703 0.20489 0.0
O290 O 0.80004 0.21369 0.24931 0.0
O291 O 0.80148 0.30507 0.25979 0.0
H292 H 0.75575 0.27528 0.14817 0.0
H293 H 0.74895 0.36204 0.23374 0.0
O294 O 0.80661 0.27171 0.30472 0.0
O295 O 0.72956 0.27623 0.30671 0.0
O296 O 0.72534 0.31298 0.26535 0.0
C297 C 0.71593 0.30535 0.29586 0.0
H298 H 0.77357 0.18886 0.39493 0.0
H299 H 0.74537 0.3356 0.11783 0.0
Co300 Co 0.9815 0.52841 0.50143 0.0
C301 C 0.02394 0.5612 0.56458 0.0
Co302 Co 0.03538 0.50051 0.51383 0.0
C303 C 0.90918 0.55674 0.51361 0.0
C304 C 0.92004 0.56091 0.45827 0.0
N305 N 0.93519 0.54918 0.49018 0.0
N306 N 0.87847 0.57292 0.49792 0.0
C307 C 0.88519 0.57609 0.46318 0.0
H308 H 0.9136 0.55232 0.54246 0.0
H309 H 0.93388 0.55945 0.43349 0.0
C310 C 0.99307 0.46783 0.45056 0.0
N311 N 0.08167 0.47964 0.52489 0.0
C312 C 0.10731 0.472 0.50108 0.0
C313 C 0.09684 0.46716 0.55638 0.0
N314 N 0.13777 0.45499 0.51608 0.0
C315 C 0.1313 0.45139 0.5508 0.0
C316 C 0.97846 0.47323 0.54604 0.0
O317 O 0.97073 0.49363 0.45904 0.0
O318 O 0.02421 0.46508 0.47106 0.0
O319 O 0.01329 0.46998 0.54235 0.0
O320 O 0.95925 0.49732 0.53064 0.0
O321 O 0.04612 0.53521 0.55629 0.0
H322 H 0.08314 0.46826 0.58122 0.0
H323 H 0.10264 0.47672 0.47233 0.0
O324 O 0.99279 0.56402 0.54407 0.0
O325 O 1.00362 0.55886 0.47273 0.0
O326 O 0.05764 0.53163 0.48482 0.0
C327 C 0.03849 0.55561 0.46923 0.0
H328 H 0.86685 0.58943 0.44336 0.0
H329 H 0.14941 0.4372 0.57005 0.0
Co330 Co 0.73813 0.78755 0.25811 0.0
C331 C 0.80052 0.79889 0.31195 0.0
Co332 Co 0.77843 0.74286 0.25526 0.0
C333 C 0.66827 0.826 0.25741 0.0
C334 C 0.7151 0.86093 0.257 0.0
N335 N 0.70598 0.82618 0.25767 0.0
N336 N 0.65331 0.85947 0.25733 0.0
C337 C 0.68282 0.88147 0.25686 0.0
H338 H 0.6524 0.80184 0.25853 0.0
H339 H 0.74354 0.87086 0.25783 0.0
C340 C 0.71587 0.73172 0.20142 0.0
N341 N 0.81069 0.70432 0.25565 0.0
C342 C 0.8482 0.70456 0.25457 0.0
C343 C 0.80195 0.66961 0.25703 0.0
N344 N 0.86335 0.67117 0.25444 0.0
C345 C 0.83425 0.64915 0.25624 0.0
C346 C 0.72259 0.73692 0.30273 0.0
O347 O 0.7069 0.76262 0.21721 0.0
O348 O 0.74643 0.71709 0.21395 0.0
O349 O 0.75154 0.72268 0.28967 0.0
O350 O 0.71025 0.76658 0.29234 0.0
O351 O 0.81011 0.76824 0.29601 0.0
H352 H 0.7737 0.65962 0.25719 0.0
H353 H 0.86377 0.72866 0.25251 0.0
O354 O 0.7696 0.81295 0.2996 0.0
O355 O 0.76544 0.80802 0.22405 0.0
O356 O 0.8059 0.76345 0.2207 0.0
C357 C 0.79406 0.79338 0.21067 0.0
H358 H 0.68173 0.91072 0.25917 0.0
H359 H 0.83556 0.61992 0.25414 0.0
Co360 Co 0.78314 0.26421 0.73941 0.0
C361 C 0.78662 0.31718 0.80191 0.0
Co362 Co 0.73793 0.25957 0.77424 0.0
C363 C 0.83105 0.30012 0.69823 0.0
C364 C 0.84514 0.24398 0.69697 0.0
N365 N 0.8213 0.26947 0.71044 0.0
N366 N 0.86007 0.29486 0.67765 0.0
C367 C 0.86902 0.25948 0.6769 0.0
H368 H 0.81735 0.32595 0.70476 0.0
H369 H 0.84504 0.2159 0.7013 0.0
C370 C 0.73446 0.20665 0.71166 0.0
N371 N 0.69981 0.25407 0.80331 0.0
C372 C 0.69067 0.22333 0.81576 0.0
C373 C 0.67574 0.27926 0.81691 0.0
N374 N 0.66187 0.22823 0.83665 0.0
C375 C 0.65237 0.26349 0.83731 0.0
C376 C 0.7166 0.3061 0.71739 0.0
O377 O 0.76346 0.22292 0.7052 0.0
O378 O 0.71888 0.21856 0.74033 0.0
O379 O 0.70477 0.29261 0.74425 0.0
O380 O 0.75002 0.29702 0.71036 0.0
O381 O 0.7576 0.30096 0.80844 0.0
H382 H 0.6754 0.30734 0.81251 0.0
H383 H 0.70472 0.19768 0.80924 0.0
O384 O 0.8022 0.30514 0.77328 0.0
O385 O 0.81628 0.23121 0.76933 0.0
O386 O 0.77115 0.2268 0.80331 0.0
C387 C 0.80456 0.21776 0.79624 0.0
H388 H 0.89084 0.24556 0.66237 0.0
H389 H 0.63057 0.27718 0.85205 0.0
Co390 Co 0.74805 0.74554 0.76584 0.0
C391 C 0.74974 0.81028 0.81374 0.0
Co392 Co 0.78767 0.78593 0.75461 0.0
C393 C 0.71185 0.67857 0.77263 0.0
C394 C 0.67454 0.72425 0.77591 0.0
N395 N 0.71072 0.71473 0.77263 0.0
N396 N 0.6776 0.66517 0.77536 0.0
C397 C 0.65413 0.69388 0.77756 0.0
H398 H 0.73713 0.66238 0.77009 0.0
H399 H 0.66363 0.75157 0.77671 0.0
C400 C 0.78595 0.72127 0.70664 0.0
N401 N 0.82494 0.81688 0.74806 0.0
C402 C 0.82321 0.85295 0.74758 0.0
C403 C 0.86167 0.80812 0.74685 0.0
N404 N 0.85758 0.86702 0.74682 0.0
C405 C 0.88182 0.83894 0.74622 0.0
C406 C 0.81519 0.74042 0.80664 0.0
O407 O 0.76193 0.71189 0.72619 0.0
O408 O 0.80159 0.75216 0.71528 0.0
O409 O 0.82229 0.76589 0.78913 0.0
O410 O 0.78294 0.72542 0.80004 0.0
O411 O 0.77345 0.81976 0.79394 0.0
H412 H 0.87314 0.7811 0.7471 0.0
H413 H 0.79747 0.86868 0.74867 0.0
O414 O 0.7345 0.77921 0.80545 0.0
O415 O 0.71335 0.76577 0.73175 0.0
O416 O 0.75275 0.80577 0.71998 0.0
C417 C 0.72039 0.79094 0.71383 0.0
H418 H 0.62447 0.6931 0.78097 0.0
H419 H 0.91186 0.84055 0.74476 0.0
Co420 Co 0.48852 0.49168 0.50551 0.0
C421 C 0.47929 0.55477 0.55847 0.0
Co422 Co 0.53341 0.53262 0.50795 0.0
C423 C 0.44363 0.44244 0.53677 0.0
C424 C 0.42439 0.44259 0.47896 0.0
N425 N 0.45092 0.45704 0.50647 0.0
N426 N 0.41367 0.41961 0.52937 0.0
C427 C 0.40143 0.41979 0.49294 0.0
H428 H 0.45933 0.4493 0.56417 0.0
H429 H 0.42159 0.44857 0.45069 0.0
C430 C 0.54271 0.46948 0.45503 0.0
N431 N 0.57095 0.56735 0.50685 0.0
C432 C 0.57756 0.58235 0.47657 0.0
C433 C 0.59785 0.58167 0.53406 0.0
N434 N 0.60737 0.60536 0.48368 0.0
C435 C 0.62031 0.60483 0.51991 0.0
C436 C 0.55517 0.47828 0.55645 0.0
O437 O 0.51209 0.45962 0.46585 0.0
O438 O 0.55557 0.50096 0.46877 0.0
O439 O 0.56681 0.50734 0.54618 0.0
O440 O 0.52161 0.46795 0.543 0.0
O441 O 0.50987 0.56466 0.54761 0.0
H442 H 0.60122 0.57544 0.56226 0.0
H443 H 0.56144 0.57571 0.44935 0.0
O444 O 0.4664 0.52332 0.5447 0.0
O445 O 0.45505 0.51702 0.46726 0.0
O446 O 0.50034 0.55627 0.47052 0.0
C447 C 0.46677 0.54607 0.45704 0.0
H448 H 0.37762 0.40445 0.47741 0.0
H449 H 0.6442 0.62022 0.5352 0.0
Co450 Co 0.01158 0.48455 0.02222 0.0
C451 C 0.07904 0.52061 0.04289 0.0
Co452 Co 0.01338 0.53287 0.9952 0.0
C453 C 0.03199 0.41497 0.04012 0.0
C454 C 0.97677 0.42981 0.0538 0.0
N455 N 1.00699 0.44225 0.04078 0.0
N456 N 0.01871 0.38572 0.05202 0.0
C457 C 0.98401 0.395 0.06098 0.0
H458 H 0.05978 0.41695 0.0317 0.0
H459 H 0.95101 0.44492 0.05737 0.0
C460 C 0.94586 0.49687 0.97458 0.0
N461 N 0.0181 0.57506 0.97652 0.0
C462 C 0.99278 0.60201 0.97571 0.0
C463 C 0.04859 0.58728 0.96376 0.0
N464 N 1.00607 0.63077 0.96295 0.0
C465 C 0.04118 0.62159 0.95519 0.0
C466 C 0.03558 0.47337 0.95206 0.0
O467 O 0.96196 0.47713 0.99733 0.0
O468 O 0.96292 0.525 0.9693 0.0
O469 O 0.03155 0.50729 0.95364 0.0
O470 O 0.03001 0.45827 0.97981 0.0
O471 O 0.06295 0.54024 0.02005 0.0
H472 H 0.07454 0.57225 0.96102 0.0
H473 H 0.96467 0.60002 0.98339 0.0
O474 O 0.06201 0.49248 0.04823 0.0
O475 O 0.99329 0.51018 0.0638 0.0
O476 O 0.99499 0.55916 0.03751 0.0
C477 C 0.98927 0.54411 0.06526 0.0
H478 H 0.96538 0.37805 0.07222 0.0
H479 H 0.0599 0.63815 0.9436 0.0
H480 H 0.25879 0.18378 0.84719 0.0
H481 H 0.0708 0.13328 0.92559 0.0
H482 H 0.15363 0.23884 0.82049 0.0
H483 H 0.18219 0.12011 0.98336 0.0
H484 H 0.09878 0.1657 0.88162 0.0
H485 H 0.22961 0.15398 0.89172 0.0
C486 C 0.22948 0.18961 0.8506 0.0
C487 C 0.20872 0.214 0.82991 0.0
C488 C 0.11704 0.15579 0.904 0.0
C489 C 0.1748 0.17926 0.88096 0.0
C490 C 0.10112 0.13708 0.92897 0.0
C491 C 0.12413 0.1239 0.95833 0.0
C492 C 0.15642 0.16072 0.90778 0.0
C493 C 0.16328 0.12998 0.96145 0.0
C494 C 0.21287 0.17261 0.87622 0.0
C495 C 0.17081 0.22039 0.83584 0.0
N496 N 0.17813 0.14756 0.9364 0.0
N497 N 0.15499 0.20292 0.86052 0.0
H498 H 0.13387 0.97722 0.07674 0.0
H499 H 0.13852 0.82166 0.21288 0.0
H500 H 0.03339 0.92367 0.09469 0.0
H501 H 0.23739 0.85039 0.16748 0.0
H502 H 0.10067 0.86288 0.17563 0.0
H503 H 0.1722 0.93662 0.11459 0.0
C504 C 0.11955 0.95732 0.08878 0.0
C505 C 0.07961 0.95471 0.08193 0.0
C506 C 0.13065 0.86032 0.17371 0.0
C507 C 0.12451 0.90703 0.12666 0.0
C508 C 0.15258 0.83655 0.19527 0.0
C509 C 0.19188 0.83166 0.1939 0.0
C510 C 0.14757 0.88072 0.15042 0.0
C511 C 0.20749 0.85248 0.16993 0.0
C512 C 0.14175 0.93374 0.11047 0.0
C513 C 0.06373 0.92745 0.09868 0.0
N514 N 0.18573 0.87579 0.14977 0.0
N515 N 0.0858 0.90534 0.11999 0.0
H516 H 0.38704 0.95754 0.49377 0.0
H517 H 0.33511 0.86667 0.28567 0.0
H518 H 0.41833 1.00495 0.4014 0.0
H519 H 0.27342 0.84275 0.3732 0.0
H520 H 0.36427 0.91854 0.3274 0.0
H521 H 0.34245 0.91783 0.45064 0.0
C522 C 0.38359 0.96038 0.46448 0.0
C523 C 0.4063 0.98468 0.45115 0.0
C524 C 0.34405 0.90223 0.3374 0.0
C525 C 0.3564 0.93823 0.40137 0.0
C526 C 0.32756 0.87241 0.31366 0.0
C527 C 0.30203 0.85005 0.32606 0.0
C528 C 0.33556 0.90954 0.37415 0.0
C529 C 0.29306 0.85912 0.36251 0.0
C530 C 0.35832 0.9375 0.43981 0.0
C531 C 0.40108 0.9869 0.41288 0.0
N532 N 0.3102 0.88785 0.38543 0.0
N533 N 0.37726 0.9634 0.38923 0.0
H534 H 0.41795 0.20814 0.72512 0.0
H535 H 0.48254 0.01931 0.63112 0.0
H536 H 0.41065 0.10856 0.77116 0.0
H537 H 0.47963 0.11883 0.58327 0.0
H538 H 0.47476 0.05426 0.6913 0.0
H539 H 0.4629 0.1798 0.68597 0.0
C540 C 0.42641 0.18061 0.72793 0.0
C541 C 0.40839 0.15987 0.7497 0.0
C542 C 0.47624 0.06846 0.66772 0.0
C543 C 0.45918 0.12709 0.704 0.0
C544 C 0.48015 0.04852 0.63325 0.0
C545 C 0.48052 0.06617 0.60195 0.0
C546 C 0.47241 0.10624 0.67077 0.0
C547 C 0.47844 0.10406 0.60649 0.0
C548 C 0.45207 0.16431 0.70519 0.0
C549 C 0.42203 0.1248 0.75297 0.0
N550 N 0.47399 0.12281 0.64021 0.0
N551 N 0.44566 0.10896 0.72926 0.0
H552 H 0.0732 0.98878 0.62682 0.0
H553 H 0.27625 0.90471 0.62738 0.0
H554 H 0.14024 0.97858 0.53567 0.0
H555 H 0.2078 0.90486 0.71628 0.0
H556 H 0.2369 0.95299 0.60451 0.0
H557 H 0.12999 0.97682 0.66861 0.0
C558 C 0.09985 0.98416 0.6157 0.0
C559 C 0.10186 0.98319 0.57759 0.0
C560 C 0.23106 0.94314 0.62964 0.0
C561 C 0.16665 0.97042 0.62498 0.0
C562 C 0.25359 0.91569 0.64265 0.0
C563 C 0.2442 0.89985 0.67267 0.0
C564 C 0.19855 0.95391 0.64634 0.0
C565 C 0.21542 0.91569 0.69238 0.0
C566 C 0.13227 0.97776 0.63955 0.0
C567 C 0.13717 0.97821 0.56467 0.0
N568 N 0.19272 0.94114 0.67812 0.0
N569 N 0.16806 0.97154 0.58824 0.0
H570 H 0.36083 0.84209 0.76323 0.0
H571 H 0.45911 0.97415 0.8847 0.0
H572 H 0.35804 0.79213 0.8622 0.0
H573 H 0.50305 0.88995 0.94751 0.0
H574 H 0.42292 0.92899 0.84004 0.0
H575 H 0.41436 0.87875 0.79464 0.0
C576 C 0.37143 0.83888 0.79167 0.0
C577 C 0.35429 0.81473 0.81054 0.0
C578 C 0.4415 0.91999 0.86271 0.0
C579 C 0.41516 0.85725 0.84684 0.0
C580 C 0.46205 0.94584 0.88826 0.0
C581 C 0.4841 0.93553 0.91947 0.0
C582 C 0.44249 0.88365 0.86889 0.0
C583 C 0.48662 0.8987 0.92338 0.0
C584 C 0.40195 0.85992 0.80957 0.0
C585 C 0.37001 0.81093 0.84693 0.0
N586 N 0.4652 0.87402 0.89878 0.0
N587 N 0.3994 0.83239 0.86416 0.0
H588 H 0.34856 0.04118 0.05152 0.0
H589 H 0.31756 0.23725 0.15208 0.0
H590 H 0.35657 0.13632 0.99879 0.0
H591 H 0.2688 0.14406 0.18595 0.0
H592 H 0.33137 0.19988 0.09527 0.0
H593 H 0.31565 0.07686 0.09916 0.0
C594 C 0.34232 0.06942 0.04953 0.0
C595 C 0.35553 0.08613 0.02172 0.0
C596 C 0.31741 0.18761 0.11498 0.0
C597 C 0.31913 0.1271 0.07618 0.0
C598 C 0.31 0.2088 0.14768 0.0
C599 C 0.29246 0.19355 0.17395 0.0
C600 C 0.30779 0.15076 0.10873 0.0
C601 C 0.2827 0.15673 0.1665 0.0
C602 C 0.32372 0.08974 0.07665 0.0
C603 C 0.3468 0.1226 0.0199 0.0
N604 N 0.29088 0.1364 0.13464 0.0
N605 N 0.32985 0.14217 0.04737 0.0
H606 H 0.16163 0.97362 0.37752 0.0
H607 H 0.10912 0.11776 0.24012 0.0
H608 H 0.04865 1.00384 0.33631 0.0
H609 H 0.21885 0.10875 0.30301 0.0
H610 H 0.09119 0.05983 0.2565 0.0
H611 H 0.18635 1.00633 0.33214 0.0
C612 C 0.14203 0.98619 0.35805 0.0
C613 C 0.10322 0.9869 0.36091 0.0
C614 C 0.11947 0.07015 0.26612 0.0
C615 C 0.13098 0.02422 0.30954 0.0
C616 C 0.12961 0.10325 0.25694 0.0
C617 C 0.16502 0.11848 0.27129 0.0
C618 C 0.14479 0.05247 0.29021 0.0
C619 C 0.19105 0.09812 0.29187 0.0
C620 C 0.15608 1.00495 0.33237 0.0
C621 C 0.07884 1.00349 0.33528 0.0
N622 N 0.18011 0.06644 0.3015 0.0
N623 N 0.09316 0.022 0.31099 0.0
H624 H 0.80198 0.20234 0.14049 0.0
H625 H 1.00144 0.10444 0.12233 0.0
H626 H 0.87116 0.18111 0.2404 0.0
H627 H 0.90137 0.06336 0.05117 0.0
H628 H 0.96086 0.14349 0.16177 0.0
H629 H 0.84363 0.16297 0.10331 0.0
C630 C 0.82598 0.18963 0.15478 0.0
C631 C 0.83246 0.19531 0.19406 0.0
C632 C 0.94781 0.12593 0.13749 0.0
C633 C 0.88183 0.15042 0.15079 0.0
C634 C 0.97108 0.10362 0.11475 0.0
C635 C 0.9552 0.07998 0.08308 0.0
C636 C 0.90811 0.126 0.12805 0.0
C637 C 0.91531 0.08062 0.07521 0.0
C638 C 0.84985 0.16697 0.13336 0.0
C639 C 0.86448 0.17764 0.2104 0.0
N640 N 0.89355 0.10328 0.09692 0.0
N641 N 0.88796 0.15663 0.18892 0.0
H642 H 0.11189 0.55475 0.45364 0.0
H643 H 0.08745 0.73302 0.3537 0.0
H644 H 1.00659 0.61256 0.43681 0.0
H645 H 0.19007 0.66998 0.36047 0.0
H646 H 0.05788 0.68964 0.3851 0.0
H647 H 0.1414 0.5968 0.42029 0.0
C648 C 0.09493 0.57621 0.44288 0.0
C649 C 0.05667 0.58011 0.44812 0.0
C650 C 0.08686 0.68521 0.37967 0.0
C651 C 0.09037 0.62848 0.40999 0.0
C652 C 0.10386 0.71015 0.3619 0.0
C653 C 0.1414 0.70531 0.35443 0.0
C654 C 0.10751 0.65515 0.39035 0.0
C655 C 0.16099 0.67471 0.36526 0.0
C656 C 0.11181 0.60021 0.42381 0.0
C657 C 0.03614 0.60845 0.43348 0.0
N658 N 0.14388 0.65092 0.38277 0.0
N659 N 0.05326 0.63155 0.41525 0.0
H660 H 0.51229 0.84246 0.59717 0.0
H661 H 0.72891 0.83178 0.65897 0.0
H662 H 0.59445 0.87303 0.53018 0.0
H663 H 0.64722 0.76907 0.70044 0.0
H664 H 0.68042 0.84406 0.60865 0.0
H665 H 0.56081 0.80868 0.63 0.0
C666 C 0.54026 0.8416 0.58871 0.0
C667 C 0.54966 0.86231 0.56212 0.0
C668 C 0.67334 0.82726 0.62856 0.0
C669 C 0.60562 0.82436 0.6004 0.0
C670 C 0.70078 0.82075 0.65753 0.0
C671 C 0.69177 0.80001 0.68418 0.0
C672 C 0.63673 0.81325 0.62673 0.0
C673 C 0.65521 0.78565 0.68071 0.0
C674 C 0.56813 0.82233 0.6077 0.0
C675 C 0.58638 0.85921 0.55197 0.0
N676 N 0.62889 0.79286 0.6527 0.0
N677 N 0.61341 0.84151 0.57192 0.0
H678 H 0.40136 0.44517 0.00729 0.0
H679 H 0.2833 0.35899 0.85622 0.0
H680 H 0.49016 0.39339 0.94918 0.0
H681 H 0.37335 0.28125 0.84263 0.0
H682 H 0.32294 0.39273 0.90896 0.0
H683 H 0.35556 0.40375 0.96783 0.0
C684 C 0.41138 0.4245 0.98687 0.0
C685 C 0.44959 0.42304 0.98118 0.0
C686 C 0.33375 0.36785 0.89506 0.0
C687 C 0.39716 0.37659 0.93494 0.0
C688 C 0.31126 0.34883 0.86456 0.0
C689 C 0.32504 0.31732 0.84487 0.0
C690 C 0.37039 0.35534 0.90583 0.0
C691 C 0.36154 0.30542 0.85694 0.0
C692 C 0.38507 0.40134 0.96381 0.0
C693 C 0.46091 0.39574 0.95424 0.0
N694 N 0.38307 0.32467 0.88632 0.0
N695 N 0.43476 0.37384 0.93188 0.0
H696 H 0.78507 0.86032 0.35848 0.0
H697 H 0.90902 0.9405 0.50752 0.0
H698 H 0.87189 0.7801 0.33987 0.0
H699 H 0.99442 0.88687 0.44591 0.0
H700 H 0.86123 0.90065 0.46891 0.0
H701 H 0.82689 0.8916 0.41098 0.0
C702 C 0.8128 0.84908 0.36568 0.0
C703 C 0.82502 0.81762 0.34462 0.0
C704 C 0.89043 0.89749 0.46392 0.0
C705 C 0.8729 0.85284 0.40538 0.0
C706 C 0.91788 0.91975 0.4865 0.0
C707 C 0.95571 0.91737 0.47955 0.0
C708 C 0.90098 0.87276 0.43422 0.0
C709 C 0.96551 0.88996 0.45191 0.0
C710 C 0.83654 0.8667 0.39607 0.0
C711 C 0.86128 0.8043 0.35527 0.0
N712 N 0.93825 0.86901 0.42998 0.0
N713 N 0.88407 0.82222 0.38458 0.0
H714 H 0.48026 0.63041 0.57524 0.0
H715 H 0.32688 0.647 0.72209 0.0
H716 H 0.42536 0.53714 0.60133 0.0
H717 H 0.34781 0.73438 0.66227 0.0
H718 H 0.36908 0.60797 0.6852 0.0
H719 H 0.43944 0.66985 0.61352 0.0
C720 C 0.46009 0.61803 0.58932 0.0
C721 C 0.45687 0.5799 0.58472 0.0
C722 C 0.36455 0.63569 0.68011 0.0
C723 C 0.40937 0.6257 0.62953 0.0
C724 C 0.34034 0.65821 0.70137 0.0
C725 C 0.33314 0.69448 0.69563 0.0
C726 C 0.38295 0.64929 0.65301 0.0
C727 C 0.35193 0.70681 0.66796 0.0
C728 C 0.43643 0.64075 0.61111 0.0
C729 C 0.42938 0.56612 0.60372 0.0
N730 N 0.37584 0.68463 0.6482 0.0
N731 N 0.40724 0.58869 0.62516 0.0
H732 H 0.50908 0.10809 0.93841 0.0
H733 H 0.69471 0.16728 0.85949 0.0
H734 H 0.61587 0.05242 0.95339 0.0
H735 H 0.5906 0.2281 0.85561 0.0
H736 H 0.66585 0.12313 0.8908 0.0
H737 H 0.53794 0.15031 0.90519 0.0
C738 C 0.53862 0.10464 0.93466 0.0
C739 C 0.56005 0.07659 0.94886 0.0
C740 C 0.64932 0.14614 0.88308 0.0
C741 C 0.59346 0.12518 0.91062 0.0
C742 C 0.66572 0.1713 0.86496 0.0
C743 C 0.64513 0.20163 0.85483 0.0
C744 C 0.61192 0.15111 0.89102 0.0
C745 C 0.60779 0.20551 0.86323 0.0
C746 C 0.55513 0.12888 0.91569 0.0
C747 C 0.59824 0.07363 0.94302 0.0
N748 N 0.59245 0.1806 0.88071 0.0
N749 N 0.6137 0.0976 0.92438 0.0
H750 H 0.07768 0.35663 0.01793 0.0
H751 H 0.21881 0.32106 0.15029 0.0
H752 H 1.00983 0.34324 0.10453 0.0
H753 H 0.13908 0.25441 0.18953 0.0
H754 H 0.17053 0.33224 0.09958 0.0
H755 H 0.1265 0.31851 0.04586 0.0
C756 C 0.07281 0.34522 0.04247 0.0
C757 C 0.04067 0.35466 0.06021 0.0
C758 C 0.16399 0.31427 0.11863 0.0
C759 C 0.09594 0.31153 0.09196 0.0
C760 C 0.19128 0.30855 0.14799 0.0
C761 C 0.18259 0.28744 0.17442 0.0
C762 C 0.12785 0.29898 0.11614 0.0
C763 C 0.14674 0.27132 0.16997 0.0
C764 C 0.10065 0.3236 0.05834 0.0
C765 C 0.03467 0.33755 0.0906 0.0
N766 N 0.12037 0.27804 0.14175 0.0
N767 N 0.06259 0.31738 0.10612 0.0
H768 H 0.54322 0.5139 0.8406 0.0
H769 H 0.72288 0.61541 0.80632 0.0
H770 H 0.65631 0.48669 0.88451 0.0
H771 H 0.61054 0.63162 0.75197 0.0
H772 H 0.70186 0.55872 0.82332 0.0
H773 H 0.56897 0.54667 0.79633 0.0
C774 C 0.57352 0.51431 0.84024 0.0
C775 C 0.59781 0.49834 0.86644 0.0
C776 C 0.68198 0.57426 0.80698 0.0
C777 C 0.62767 0.53642 0.81685 0.0
C778 C 0.69403 0.60657 0.79719 0.0
C779 C 0.66805 0.62867 0.77873 0.0
C780 C 0.64369 0.56432 0.79841 0.0
C781 C 0.63107 0.61592 0.76737 0.0
C782 C 0.58829 0.53294 0.81504 0.0
C783 C 0.6368 0.49898 0.86477 0.0
N784 N 0.6198 0.58492 0.77798 0.0
N785 N 0.65066 0.51859 0.84098 0.0
H786 H 0.69923 0.40132 0.21646 0.0
H787 H 0.6322 0.49917 0.0432 0.0
H788 H 0.75975 0.40168 0.12182 0.0
H789 H 0.5622 0.4827 0.12715 0.0
H790 H 0.68761 0.48306 0.08347 0.0
H791 H 0.65976 0.45066 0.19658 0.0
C792 C 0.70513 0.41263 0.19219 0.0
C793 C 0.73199 0.39675 0.16996 0.0
C794 C 0.66025 0.48335 0.09335 0.0
C795 C 0.68655 0.45254 0.14686 0.0
C796 C 0.62855 0.49217 0.07025 0.0
C797 C 0.59254 0.49077 0.08144 0.0
C798 C 0.65581 0.47232 0.12755 0.0
C799 C 0.58949 0.48308 0.11724 0.0
C800 C 0.68237 0.44065 0.18073 0.0
C801 C 0.7385 0.41255 0.13896 0.0
N802 N 0.62078 0.47326 0.13884 0.0
N803 N 0.71532 0.43914 0.12782 0.0
H804 H 1.00373 0.39476 0.44635 0.0
H805 H 0.84759 0.35692 0.26844 0.0
H806 H 0.95181 0.47723 0.38528 0.0
H807 H 0.86653 0.28608 0.35257 0.0
H808 H 0.9001 0.39466 0.3008 0.0
H809 H 0.96822 0.34837 0.40116 0.0
C810 C 0.98581 0.40292 0.42275 0.0
C811 C 0.98023 0.43966 0.41947 0.0
C812 C 0.89299 0.37065 0.31195 0.0
C813 C 0.93984 0.38735 0.36834 0.0
C814 C 0.86297 0.34911 0.29358 0.0
C815 C 0.85224 0.31867 0.30825 0.0
C816 C 0.91252 0.36167 0.34516 0.0
C817 C 0.87352 0.30966 0.34066 0.0
C818 C 0.96537 0.37658 0.39728 0.0
C819 C 0.95649 0.44909 0.3888 0.0
N820 N 0.90254 0.33131 0.35829 0.0
N821 N 0.93689 0.42308 0.36453 0.0
H822 H 0.56902 0.63462 0.42563 0.0
H823 H 0.75513 0.68851 0.34643 0.0
H824 H 0.68102 0.62217 0.48238 0.0
H825 H 0.64967 0.74384 0.32203 0.0
H826 H 0.72675 0.65781 0.39077 0.0
H827 H 0.59604 0.6684 0.38211 0.0
C828 C 0.59928 0.63886 0.42888 0.0
C829 C 0.62275 0.62546 0.45782 0.0
C830 C 0.70976 0.67671 0.37583 0.0
C831 C 0.65392 0.66386 0.40778 0.0
C832 C 0.72591 0.69424 0.35033 0.0
C833 C 0.70485 0.71896 0.33032 0.0
C834 C 0.6718 0.68312 0.38114 0.0
C835 C 0.66708 0.72518 0.33687 0.0
C836 C 0.61464 0.65836 0.40417 0.0
C837 C 0.66177 0.63216 0.46079 0.0
N838 N 0.65167 0.70715 0.3614 0.0
N839 N 0.67607 0.65048 0.43599 0.0
H840 H 0.7736 0.34162 0.87382 0.0
H841 H 0.92483 0.50315 0.90107 0.0
H842 H 0.83622 0.36673 0.78742 0.0
H843 H 0.8907 0.45515 0.99193 0.0
H844 H 0.87927 0.46414 0.85774 0.0
H845 H 0.80438 0.39296 0.9159 0.0
C846 C 0.79351 0.3581 0.86358 0.0
C847 C 0.80269 0.34955 0.82718 0.0
C848 C 0.88118 0.46276 0.88727 0.0
C849 C 0.8376 0.40856 0.87498 0.0
C850 C 0.90679 0.48539 0.91205 0.0
C851 C 0.91157 0.48235 0.95013 0.0
C852 C 0.86 0.4372 0.90076 0.0
C853 C 0.88794 0.45829 0.96274 0.0
C854 C 0.81107 0.38737 0.8876 0.0
C855 C 0.82863 0.37199 0.8154 0.0
N856 N 0.86347 0.43643 0.93814 0.0
N857 N 0.84521 0.40032 0.83921 0.0
H858 H 0.76288 0.84304 0.16763 0.0
H859 H 0.95038 0.89056 0.08698 0.0
H860 H 0.86648 0.78442 0.19082 0.0
H861 H 0.83896 0.90549 0.03009 0.0
H862 H 0.9222 0.8582 0.13088 0.0
H863 H 0.79205 0.87272 0.12295 0.0
C864 C 0.79184 0.83641 0.16342 0.0
C865 C 0.81217 0.81105 0.18314 0.0
C866 C 0.90397 0.86848 0.10871 0.0
C867 C 0.8461 0.84564 0.13202 0.0
C868 C 0.92 0.88715 0.08379 0.0
C869 C 0.89704 0.9008 0.0547 0.0
C870 C 0.86454 0.8641 0.10518 0.0
C871 C 0.85781 0.89524 0.0518 0.0
C872 C 0.80844 0.85333 0.13773 0.0
C873 C 0.84964 0.80363 0.17622 0.0
N874 N 0.84286 0.87772 0.07683 0.0
N875 N 0.86549 0.82106 0.15154 0.0
H876 H 0.88255 0.20307 0.80103 0.0
H877 H 0.88813 0.0453 0.93462 0.0
H878 H 0.78349 0.17184 0.84453 0.0
H879 H 0.98794 0.10199 0.92009 0.0
H880 H 0.84957 0.08566 0.89665 0.0
H881 H 0.9207 0.16203 0.83829 0.0
C882 C 0.86851 0.18765 0.8182 0.0
C883 C 0.82907 0.19177 0.81906 0.0
C884 C 0.87993 0.08927 0.90154 0.0
C885 C 0.87372 0.14296 0.86251 0.0
C886 C 0.90225 0.06585 0.9233 0.0
C887 C 0.94206 0.06943 0.93114 0.0
C888 C 0.89693 0.11679 0.88628 0.0
C889 C 0.95771 0.09747 0.91531 0.0
C890 C 0.89061 0.16399 0.83977 0.0
C891 C 0.81349 0.17032 0.84249 0.0
N892 N 0.93554 0.11941 0.8939 0.0
N893 N 0.83542 0.14715 0.86264 0.0
H894 H 0.74637 0.18368 0.6392 0.0
H895 H 0.5991 0.01885 0.61162 0.0
H896 H 0.68595 0.15607 0.72611 0.0
H897 H 0.62731 0.07151 0.52134 0.0
H898 H 0.64472 0.05809 0.65466 0.0
H899 H 0.71553 0.13266 0.59669 0.0
C900 C 0.72695 0.1667 0.64946 0.0
C901 C 0.71839 0.17445 0.68615 0.0
C902 C 0.64151 0.06045 0.62528 0.0
C903 C 0.68346 0.11579 0.63786 0.0
C904 C 0.61588 0.03772 0.60064 0.0
C905 C 0.60943 0.04195 0.56287 0.0
C906 C 0.66107 0.08727 0.61193 0.0
C907 C 0.63142 0.0674 0.55028 0.0
C908 C 0.70935 0.13762 0.62519 0.0
C909 C 0.69305 0.15142 0.69793 0.0
N910 N 0.656 0.08928 0.57475 0.0
N911 N 0.67645 0.12325 0.67388 0.0
H912 H 0.52852 0.90789 0.42871 0.0
H913 H 0.61672 0.92225 0.24607 0.0
H914 H 0.54325 1.00789 0.3856 0.0
H915 H 0.60603 0.82324 0.29217 0.0
H916 H 0.57004 0.95043 0.28424 0.0
H917 H 0.53941 0.87421 0.36892 0.0
C918 C 0.53419 0.92275 0.40667 0.0
C919 C 0.53626 0.96066 0.41241 0.0
C920 C 0.57727 0.92224 0.28528 0.0
C921 C 0.5483 0.92237 0.34387 0.0
C922 C 0.60396 0.90617 0.26354 0.0
C923 C 0.61703 0.87109 0.26765 0.0
C924 C 0.56397 0.90298 0.31126 0.0
C925 C 0.59807 0.85082 0.28908 0.0
C926 C 0.53989 0.90353 0.37238 0.0
C927 C 0.54241 0.9786 0.38259 0.0
N928 N 0.57329 0.86745 0.31102 0.0
N929 N 0.54885 0.95924 0.34972 0.0
H930 H 0.75977 0.12199 0.3891 0.0
H931 H 0.96177 0.0354 0.38409 0.0
H932 H 0.82718 0.12563 0.30003 0.0
H933 H 0.89267 0.0341 0.47247 0.0
H934 H 0.90599 0.05294 0.34403 0.0
H935 H 0.79949 0.07289 0.40968 0.0
C936 C 0.78241 0.11177 0.37342 0.0
C937 C 0.79102 0.12848 0.34368 0.0
C938 C 0.903 0.04823 0.37203 0.0
C939 C 0.83712 0.07337 0.36736 0.0
C940 C 0.93483 0.03852 0.39489 0.0
C941 C 0.93197 0.03475 0.43194 0.0
C942 C 0.8684 0.05409 0.38656 0.0
C943 C 0.89637 0.0381 0.44443 0.0
C944 C 0.80511 0.08382 0.38507 0.0
C945 C 0.81997 0.11382 0.32352 0.0
N946 N 0.8661 0.04807 0.42194 0.0
N947 N 0.84275 0.08772 0.33639 0.0
H948 H 0.65397 0.24106 0.1628 0.0
H949 H 0.56936 0.0447 0.13073 0.0
H950 H 0.67705 0.16595 0.24237 0.0
H951 H 0.51946 0.12866 0.07066 0.0
H952 H 0.60462 0.0906 0.17553 0.0
H953 H 0.6013 0.20254 0.13109 0.0
C954 C 0.64779 0.21665 0.17375 0.0
C955 C 0.67031 0.20634 0.20486 0.0
C956 C 0.58536 0.09922 0.15308 0.0
C957 C 0.61024 0.16241 0.16892 0.0
C958 C 0.5652 0.07301 0.12762 0.0
C959 C 0.54182 0.0831 0.09706 0.0
C960 C 0.58293 0.13562 0.14725 0.0
C961 C 0.53725 0.11999 0.09405 0.0
C962 C 0.61758 0.19484 0.15581 0.0
C963 C 0.66078 0.1747 0.21816 0.0
N964 N 0.55841 0.14502 0.11842 0.0
N965 N 0.63178 0.15364 0.19984 0.0
H966 H 0.76358 0.88298 0.83324 0.0
H967 H 0.67738 0.88747 0.02437 0.0
H968 H 0.72084 0.78993 0.87265 0.0
H969 H 0.67725 0.97977 0.9658 0.0
H970 H 0.71496 0.85393 0.97934 0.0
H971 H 0.75073 0.92059 0.89108 0.0
C972 C 0.75162 0.87051 0.85409 0.0
C973 C 0.74244 0.83356 0.84796 0.0
C974 C 0.70742 0.88183 0.97689 0.0
C975 C 0.72888 0.87585 0.91403 0.0
C976 C 0.68636 0.901 1.00272 0.0
C977 C 0.67371 0.936 0.99807 0.0
C978 C 0.7158 0.89799 0.94653 0.0
C979 C 0.68593 0.95245 0.96959 0.0
C980 C 0.74457 0.89185 0.88704 0.0
C981 C 0.72754 0.81851 0.87596 0.0
N982 N 0.70585 0.93307 0.94439 0.0
N983 N 0.72109 0.83977 0.90776 0.0
H984 H 0.98952 1.01198 0.67211 0.0
H985 H 0.91954 0.90459 0.78028 0.0
H986 H 0.87537 0.04404 0.63768 0.0
H987 H 0.81632 0.91267 0.70666 0.0
H988 H 0.94114 0.96148 0.76445 0.0
H989 H 0.96712 0.98082 0.71887 0.0
C990 C 0.95975 0.01323 0.67533 0.0
C991 C 0.93411 0.02986 0.65078 0.0
C992 C 0.91381 0.95091 0.75158 0.0
C993 C 0.90778 0.99448 0.70446 0.0
C994 C 0.90141 0.91864 0.76091 0.0
C995 C 0.86675 0.9036 0.74377 0.0
C996 C 0.89183 0.96743 0.72393 0.0
C997 C 0.84354 0.92324 0.71993 0.0
C998 C 0.94683 0.99574 0.70236 0.0
C999 C 0.8959 0.03125 0.65609 0.0
N1000 N 0.8569 0.9538 0.70999 0.0
N1001 N 0.88369 0.01287 0.68178 0.0
H1002 H 0.19663 0.8789 0.79182 0.0
H1003 H 0.04223 0.89417 0.93765 0.0
H1004 H 0.17485 0.79087 0.85044 0.0
H1005 H 0.09717 0.98789 0.9126 0.0
H1006 H 0.0833 0.85508 0.89936 0.0
H1007 H 0.15429 0.91772 0.82877 0.0
C1008 C 0.18296 0.8675 0.81229 0.0
C1009 C 0.18997 0.8311 0.81767 0.0
C1010 C 0.08627 0.88421 0.90201 0.0
C1011 C 0.13998 0.87606 0.86035 0.0
C1012 C 0.06247 0.90673 0.92381 0.0
C1013 C 0.06561 0.94488 0.92871 0.0
C1014 C 0.11342 0.89947 0.88386 0.0
C1015 C 0.0932 0.95889 0.90999 0.0
C1016 C 0.15866 0.88989 0.83358 0.0
C1017 C 0.1709 0.81854 0.84502 0.0
N1018 N 0.11549 0.9365 0.88853 0.0
N1019 N 0.14692 0.84061 0.86482 0.0
H1020 H 0.905 0.4733 0.5617 0.0
H1021 H 0.93193 0.29426 0.66033 0.0
H1022 H 1.01092 0.41643 0.57824 0.0
H1023 H 0.82849 0.35609 0.65435 0.0
H1024 H 0.96074 0.33839 0.62929 0.0
H1025 H 0.87602 0.43066 0.59486 0.0
C1026 C 0.92221 0.45194 0.57236 0.0
C1027 C 0.96049 0.44848 0.56708 0.0
C1028 C 0.93175 0.3424 0.63481 0.0
C1029 C 0.9274 0.39943 0.60496 0.0
C1030 C 0.91517 0.31702 0.65238 0.0
C1031 C 0.87762 0.32128 0.65996 0.0
C1032 C 0.91066 0.37234 0.62442 0.0
C1033 C 0.85759 0.35179 0.64946 0.0
C1034 C 0.90562 0.4276 0.59131 0.0
C1035 C 0.98133 0.42023 0.58158 0.0
N1036 N 0.87428 0.37602 0.63212 0.0
N1037 N 0.96452 0.39682 0.59968 0.0
H1038 H 0.50758 0.18975 0.42474 0.0
H1039 H 0.36722 0.28135 0.33465 0.0
H1040 H 0.42354 0.15551 0.48771 0.0
H1041 H 0.30133 0.1918 0.35492 0.0
H1042 H 0.41411 0.27072 0.38639 0.0
H1043 H 0.46096 0.22794 0.39583 0.0
C1044 C 0.47969 0.19081 0.43336 0.0
C1045 C 0.46912 0.16771 0.45733 0.0
C1046 C 0.38945 0.25338 0.37942 0.0
C1047 C 0.41538 0.21178 0.4242 0.0
C1048 C 0.36269 0.25929 0.34987 0.0
C1049 C 0.33097 0.23654 0.33975 0.0
C1050 C 0.38462 0.22429 0.39862 0.0
C1051 C 0.3259 0.20927 0.36121 0.0
C1052 C 0.45294 0.21301 0.41687 0.0
C1053 C 0.43253 0.1712 0.46778 0.0
N1054 N 0.35282 0.2036 0.3895 0.0
N1055 N 0.40652 0.19185 0.45014 0.0
H1056 H 0.52057 0.64024 0.05764 0.0
H1057 H 0.65052 0.75787 0.16748 0.0
H1058 H 0.61625 0.58248 0.01727 0.0
H1059 H 0.72422 0.6647 0.16049 0.0
H1060 H 0.60807 0.72751 0.11525 0.0
H1061 H 0.56353 0.68328 0.09787 0.0
C1062 C 0.55067 0.63746 0.05625 0.0
C1063 C 0.56485 0.60791 0.03394 0.0
C1064 C 0.63325 0.71346 0.12532 0.0
C1065 C 0.61456 0.65691 0.0804 0.0
C1066 C 0.65771 0.73088 0.15509 0.0
C1067 C 0.69072 0.71354 0.1689 0.0
C1068 C 0.64157 0.6782 0.10927 0.0
C1069 C 0.69884 0.67888 0.15112 0.0
C1070 C 0.57531 0.6621 0.07929 0.0
C1071 C 0.60413 0.60519 0.0337 0.0
N1072 N 0.67431 0.66226 0.12232 0.0
N1073 N 0.62768 0.62892 0.05726 0.0
H1074 H 0.24094 0.16128 0.65693 0.0
H1075 H 0.03314 0.13409 0.55125 0.0
H1076 H 0.15272 0.24104 0.67041 0.0
H1077 H 0.12735 0.07058 0.51535 0.0
H1078 H 0.07733 0.17598 0.59201 0.0
H1079 H 0.20075 0.12862 0.60352 0.0
C1080 C 0.21321 0.17197 0.64863 0.0
C1081 C 0.20007 0.20377 0.66841 0.0
C1082 C 0.08847 0.15337 0.57462 0.0
C1083 C 0.15405 0.16667 0.60732 0.0
C1084 C 0.06322 0.12964 0.55112 0.0
C1085 C 0.07662 0.09891 0.52989 0.0
C1086 C 0.1274 0.14584 0.57761 0.0
C1087 C 0.11587 0.09415 0.53103 0.0
C1088 C 0.19039 0.15347 0.61799 0.0
C1089 C 0.16399 0.21653 0.65619 0.0
N1090 N 0.13991 0.11695 0.55515 0.0
N1091 N 0.14218 0.1978 0.62672 0.0
H1092 H 0.69533 0.37729 0.29175 0.0
H1093 H 0.54198 0.39379 0.43857 0.0
H1094 H 0.67502 0.28988 0.35178 0.0
H1095 H 0.59666 0.48702 0.41214 0.0
H1096 H 0.58299 0.3543 0.40052 0.0
H1097 H 0.65306 0.41616 0.32861 0.0
C1098 C 0.682 0.36604 0.31253 0.0
C1099 C 0.68941 0.3298 0.31831 0.0
C1100 C 0.5859 0.3834 0.40281 0.0
C1101 C 0.63945 0.37485 0.36092 0.0
C1102 C 0.56213 0.40615 0.42447 0.0
C1103 C 0.56523 0.44429 0.4289 0.0
C1104 C 0.61295 0.39843 0.38435 0.0
C1105 C 0.59272 0.45804 0.40988 0.0
C1106 C 0.65773 0.38847 0.33377 0.0
C1107 C 0.67074 0.31743 0.34604 0.0
N1108 N 0.61495 0.43544 0.38857 0.0
N1109 N 0.64675 0.33955 0.36581 0.0
H1110 H 0.51627 0.91045 0.07765 0.0
H1111 H 0.32836 0.85418 0.15454 0.0
H1112 H 0.41038 0.96758 0.06232 0.0
H1113 H 0.43128 0.79151 0.15945 0.0
H1114 H 0.35865 0.89779 0.12383 0.0
H1115 H 0.48636 0.86854 0.11054 0.0
C1116 C 0.48673 0.91428 0.08127 0.0
C1117 C 0.46582 0.94262 0.06707 0.0
C1118 C 0.37461 0.87451 0.13164 0.0
C1119 C 0.43128 0.89449 0.10485 0.0
C1120 C 0.35739 0.84965 0.14942 0.0
C1121 C 0.37723 0.81898 0.15967 0.0
C1122 C 0.41209 0.86887 0.12413 0.0
C1123 C 0.41467 0.81442 0.15171 0.0
C1124 C 0.46963 0.89024 0.10003 0.0
C1125 C 0.42762 0.94613 0.07269 0.0
N1126 N 0.43083 0.83905 0.13452 0.0
N1127 N 0.4116 0.92237 0.09111 0.0
H1128 H 0.94581 0.66062 0.99422 0.0
H1129 H 0.80557 0.69969 0.86107 0.0
H1130 H 0.01561 0.67024 0.90814 0.0
H1131 H 0.88897 0.76069 0.82 0.0
H1132 H 0.85366 0.68533 0.91054 0.0
H1133 H 0.89765 0.69775 0.96388 0.0
C1134 C 0.9512 0.67095 0.96923 0.0
C1135 C 0.98385 0.66093 0.95258 0.0
C1136 C 0.86115 0.70268 0.89131 0.0
C1137 C 0.92924 0.70276 0.91793 0.0
C1138 C 0.83394 0.71018 0.86263 0.0
C1139 C 0.84356 0.7309 0.83623 0.0
C1140 C 0.89812 0.71585 0.89322 0.0
C1141 C 0.88053 0.74429 0.83967 0.0
C1142 C 0.9237 0.69193 0.95193 0.0
C1143 C 0.99044 0.67653 0.9214 0.0
N1144 N 0.90669 0.73602 0.86736 0.0
N1145 N 0.96288 0.69615 0.90454 0.0
H1146 H 0.35788 0.54599 0.12973 0.0
H1147 H 0.40482 0.40547 0.27259 0.0
H1148 H 0.4697 0.51535 0.17406 0.0
H1149 H 0.297 0.41242 0.20565 0.0
H1150 H 0.4239 0.46215 0.25427 0.0
H1151 H 0.33137 0.51368 0.17441 0.0
C1152 C 0.37683 0.53335 0.14967 0.0
C1153 C 0.41587 0.53253 0.14799 0.0
C1154 C 0.39577 0.45167 0.24415 0.0
C1155 C 0.38607 0.49578 0.19866 0.0
C1156 C 0.38497 0.41931 0.25447 0.0
C1157 C 0.34979 0.40383 0.23962 0.0
C1158 C 0.37135 0.46837 0.21847 0.0
C1159 C 0.32458 0.42331 0.21725 0.0
C1160 C 0.36175 0.51484 0.17496 0.0
C1161 C 0.43937 0.51582 0.17419 0.0
N1162 N 0.33618 0.45428 0.20661 0.0
N1163 N 0.42408 0.49766 0.19817 0.0
H1164 H 0.45293 0.53745 0.88549 0.0
H1165 H 0.24937 0.62009 0.88554 0.0
H1166 H 0.38377 0.54032 0.97441 0.0
H1167 H 0.31794 0.62222 0.79708 0.0
H1168 H 0.28898 0.57153 0.90747 0.0
H1169 H 0.39672 0.55114 0.84381 0.0
C1170 C 0.42592 0.54075 0.89612 0.0
C1171 C 0.42313 0.53923 0.93369 0.0
C1172 C 0.29483 0.58196 0.88266 0.0
C1173 C 0.35903 0.5541 0.88641 0.0
C1174 C 0.27216 0.60958 0.87019 0.0
C1175 C 0.28135 0.62599 0.84047 0.0
C1176 C 0.32733 0.57159 0.86575 0.0
C1177 C 0.31038 0.61083 0.82069 0.0
C1178 C 0.39383 0.54819 0.87232 0.0
C1179 C 0.38741 0.54264 0.94593 0.0
N1180 N 0.33318 0.58518 0.83441 0.0
N1181 N 0.35687 0.55041 0.92248 0.0
H1182 H 0.06093 0.5523 0.63184 0.0
H1183 H 0.15848 0.74284 0.65678 0.0
H1184 H 0.01931 0.63429 0.56511 0.0
H1185 H 0.17081 0.67276 0.7418 0.0
H1186 H 0.10474 0.7059 0.62434 0.0
H1187 H 0.09755 0.59831 0.6753 0.0
C1188 C 0.0588 0.5803 0.62701 0.0
C1189 C 0.03728 0.58972 0.59508 0.0
C1190 C 0.11894 0.69902 0.65039 0.0
C1191 C 0.08015 0.64225 0.64363 0.0
C1192 C 0.14973 0.71992 0.66874 0.0
C1193 C 0.16954 0.71049 0.70167 0.0
C1194 C 0.1083 0.66843 0.66499 0.0
C1195 C 0.15677 0.68077 0.7162 0.0
C1196 C 0.07979 0.60656 0.65166 0.0
C1197 C 0.0355 0.6262 0.58971 0.0
N1198 N 0.12729 0.66059 0.69754 0.0
N1199 N 0.05747 0.65116 0.61335 0.0
H1200 H 0.37204 0.28182 0.69377 0.0
H1201 H 0.33957 0.40385 0.52931 0.0
H1202 H 0.26723 0.33711 0.66622 0.0
H1203 H 0.4503 0.39059 0.58845 0.0
H1204 H 0.31229 0.37119 0.57315 0.0
H1205 H 0.40102 0.31333 0.64959 0.0
C1206 C 0.35507 0.3004 0.67838 0.0
C1207 C 0.31709 0.30681 0.68391 0.0
C1208 C 0.34258 0.37538 0.57656 0.0
C1209 C 0.34997 0.34257 0.63289 0.0
C1210 C 0.3582 0.39388 0.55138 0.0
C1211 C 0.39734 0.40012 0.55514 0.0
C1212 C 0.36618 0.3622 0.60551 0.0
C1213 C 0.41998 0.38674 0.58466 0.0
C1214 C 0.37168 0.31849 0.65329 0.0
C1215 C 0.2966 0.33134 0.66314 0.0
N1216 N 0.40417 0.36823 0.60848 0.0
N1217 N 0.31314 0.34801 0.63852 0.0
H1218 H 0.24829 0.67905 0.14202 0.0
H1219 H 0.09812 0.51689 0.11716 0.0
H1220 H 0.18282 0.65744 0.22769 0.0
H1221 H 0.13513 0.5609 0.0252 0.0
H1222 H 0.14234 0.55757 0.16023 0.0
H1223 H 0.21891 0.62627 0.1012 0.0
C1224 C 0.22799 0.66308 0.15236 0.0
C1225 C 0.21765 0.67301 0.18817 0.0
C1226 C 0.1414 0.55768 0.13055 0.0
C1227 C 0.18437 0.6123 0.14182 0.0
C1228 C 0.11659 0.53407 0.10595 0.0
C1229 C 0.11299 0.53553 0.06757 0.0
C1230 C 0.16294 0.58262 0.11659 0.0
C1231 C 0.13705 0.55895 0.05462 0.0
C1232 C 0.21126 0.63296 0.12906 0.0
C1233 C 0.1913 0.65113 0.20012 0.0
N1234 N 0.1607 0.58179 0.07905 0.0
N1235 N 0.17553 0.62195 0.17702 0.0
H1236 H 0.63876 0.32177 0.71301 0.0
H1237 H 0.63432 0.47787 0.57732 0.0
H1238 H 0.73791 0.35144 0.66864 0.0
H1239 H 0.53393 0.42386 0.59479 0.0
H1240 H 0.67265 0.43741 0.61539 0.0
H1241 H 0.60096 0.36303 0.67573 0.0
C1242 C 0.65289 0.33688 0.69564 0.0
C1243 C 0.69225 0.33225 0.69456 0.0
C1244 C 0.64222 0.43442 0.61112 0.0
C1245 C 0.64801 0.38133 0.65105 0.0
C1246 C 0.62002 0.45791 0.5893 0.0
C1247 C 0.58011 0.45512 0.58224 0.0
C1248 C 0.62499 0.4076 0.62721 0.0
C1249 C 0.56425 0.42778 0.59893 0.0
C1250 C 0.631 0.36068 0.67406 0.0
C1251 C 0.70796 0.35334 0.67088 0.0
N1252 N 0.5863 0.40576 0.62033 0.0
N1253 N 0.68622 0.37664 0.65069 0.0
H1254 H 0.90169 0.60974 0.26696 0.0
H1255 H 0.98752 0.61787 0.08096 0.0
H1256 H 0.90717 0.70603 0.21504 0.0
H1257 H 0.9759 0.5203 0.12941 0.0
H1258 H 0.9748 0.65372 0.13919 0.0
H1259 H 0.94794 0.58105 0.2285 0.0
C1260 C 0.91326 0.62514 0.24813 0.0
C1261 C 0.89908 0.65956 0.2428 0.0
C1262 C 0.97541 0.62447 0.13721 0.0
C1263 C 0.9515 0.62706 0.19873 0.0
C1264 C 0.9822 0.604 0.10384 0.0
C1265 C 0.9816 0.56609 0.10007 0.0
C1266 C 0.96755 0.60684 0.16678 0.0
C1267 C 0.97568 0.5495 0.13087 0.0
C1268 C 0.93966 0.60879 0.2262 0.0
C1269 C 0.91628 0.67901 0.21934 0.0
N1270 N 0.96834 0.57 0.16281 0.0
N1271 N 0.94082 0.66206 0.19732 0.0
H1272 H 0.84272 0.5457 0.54817 0.0
H1273 H 0.81714 0.74168 0.64897 0.0
H1274 H 0.8508 0.64032 0.49466 0.0
H1275 H 0.76874 0.64942 0.68487 0.0
H1276 H 0.82669 0.70443 0.59068 0.0
H1277 H 0.80973 0.58168 0.5955 0.0
C1278 C 0.83641 0.57387 0.5459 0.0
C1279 C 0.84985 0.5904 0.51809 0.0
C1280 C 0.81365 0.69235 0.61111 0.0
C1281 C 0.81336 0.63174 0.57221 0.0
C1282 C 0.80869 0.71347 0.64463 0.0
C1283 C 0.79275 0.69837 0.67199 0.0
C1284 C 0.80323 0.65569 0.60514 0.0
C1285 C 0.78157 0.66192 0.6646 0.0
C1286 C 0.81774 0.59438 0.57285 0.0
C1287 C 0.84095 0.62676 0.51586 0.0
N1288 N 0.78752 0.64159 0.63197 0.0
N1289 N 0.82403 0.64656 0.54323 0.0
H1290 H 0.48905 0.59928 0.41816 0.0
H1291 H 0.28078 0.67362 0.34644 0.0
H1292 H 0.3873 0.54824 0.43669 0.0
H1293 H 0.3808 0.70039 0.30172 0.0
H1294 H 0.31857 0.63175 0.38279 0.0
H1295 H 0.45066 0.63889 0.37984 0.0
C1296 C 0.45862 0.59603 0.41422 0.0
C1297 C 0.44213 0.56938 0.43117 0.0
C1298 C 0.33245 0.64669 0.36509 0.0
C1299 C 0.39662 0.61676 0.38661 0.0
C1300 C 0.31069 0.671 0.34411 0.0
C1301 C 0.32693 0.69137 0.32026 0.0
C1302 C 0.37169 0.64236 0.36346 0.0
C1303 C 0.36628 0.68579 0.31921 0.0
C1304 C 0.43649 0.61903 0.39205 0.0
C1305 C 0.40205 0.56764 0.4244 0.0
N1306 N 0.38688 0.66249 0.34033 0.0
N1307 N 0.38111 0.59081 0.4033 0.0
H1308 H 0.11154 0.40953 0.74402 0.0
H1309 H 0.03868 0.39958 0.93636 0.0
H1310 H 0.11283 0.31314 0.79687 0.0
H1311 H 0.04566 0.49744 0.88717 0.0
H1312 H 0.04888 0.36402 0.8771 0.0
H1313 H 0.06744 0.43718 0.78548 0.0
C1314 C 0.10188 0.39385 0.76369 0.0
C1315 C 0.11756 0.35982 0.76837 0.0
C1316 C 0.0478 0.39327 0.87919 0.0
C1317 C 0.06761 0.39115 0.81586 0.0
C1318 C 0.04248 0.41357 0.91312 0.0
C1319 C 0.04245 0.4515 0.91691 0.0
C1320 C 0.05345 0.41109 0.84904 0.0
C1321 C 0.04643 0.46824 0.88569 0.0
C1322 C 0.07673 0.40963 0.78736 0.0
C1323 C 0.10267 0.33996 0.793 0.0
N1324 N 0.05225 0.44791 0.85316 0.0
N1325 N 0.07936 0.35638 0.81667 0.0
H1326 H 0.19654 0.28615 0.36127 0.0
H1327 H 0.17416 0.48219 0.46634 0.0
H1328 H 0.24715 0.37872 0.32806 0.0
H1329 H 0.16222 0.38624 0.51669 0.0
H1330 H 0.2052 0.4461 0.41756 0.0
H1331 H 0.1847 0.32316 0.41897 0.0
C1332 C 0.20489 0.31439 0.36599 0.0
C1333 C 0.22244 0.32955 0.33966 0.0
C1334 C 0.19672 0.43307 0.4398 0.0
C1335 C 0.20942 0.37192 0.40594 0.0
C1336 C 0.17924 0.45365 0.46761 0.0
C1337 C 0.1654 0.43689 0.49504 0.0
C1338 C 0.19953 0.39545 0.43923 0.0
C1339 C 0.17255 0.4 0.49589 0.0
C1340 C 0.19862 0.33536 0.3992 0.0
C1341 C 0.23322 0.36611 0.34752 0.0
N1342 N 0.18839 0.38023 0.46775 0.0
N1343 N 0.2262 0.38623 0.37991 0.0
loop_
_geom_bond_atom_site_label_1
_geom_bond_atom_site_label_2
_geom_bond_distance
_geom_bond_site_symmetry_2
_ccdc_geom_bond_type
Co0 N5 2.057 . S
Co0 O17 2.021 1_554 S
Co0 O20 2.062 1_655 S
Co0 O24 2.117 1_565 S
Co0 O25 2.020 1_554 S
C1 O21 1.259 1_655 S
C1 O24 1.258 . S
Co2 N11 2.057 . S
Co2 O18 2.117 1_545 S
Co2 O19 2.020 1_556 S
Co2 O21 2.021 1_556 S
Co2 O26 2.062 1_455 S
C3 N5 1.316 . S
C3 N6 1.347 . S
C3 H8 0.932 . S
C4 N5 1.375 . S
C4 C7 1.350 . S
C4 H9 0.930 . S
N5 Co0 2.057 . S
N5 C3 1.316 . S
N5 C4 1.375 . S
N6 C3 1.347 . S
N6 C7 1.373 . S
C7 C4 1.350 . S
C7 N6 1.373 . S
C7 H28 0.931 . S
H8 C3 0.932 . S
H9 C4 0.930 . S
C10 O17 1.259 1_455 S
C10 O18 1.258 . S
N11 Co2 2.057 . S
N11 C12 1.316 . S
N11 C13 1.375 . S
C12 N11 1.316 . S
C12 N14 1.347 . S
C12 H23 0.932 1_556 S
C13 N11 1.375 . S
C13 C15 1.350 . S
C13 H22 0.930 . S
N14 C12 1.347 . S
N14 C15 1.373 . S
C15 C13 1.350 . S
C15 N14 1.373 . S
C15 H29 0.931 . S
C16 O19 1.256 1_565 S
C16 O20 1.255 . S
O17 Co0 2.021 1_556 S
O17 C10 1.259 1_655 S
O18 Co2 2.117 1_565 S
O18 C10 1.258 . S
O19 Co2 2.020 1_554 S
O19 C16 1.256 1_545 S
O20 Co0 2.062 1_455 S
O20 C16 1.255 . S
O21 C1 1.259 1_455 S
O21 Co2 2.021 1_554 S
H22 C13 0.930 . S
H23 C12 0.932 1_554 S
O24 Co0 2.117 1_545 S
O24 C1 1.258 . S
O25 Co0 2.020 1_556 S
O25 C27 1.256 1_565 S
O26 Co2 2.062 1_655 S
O26 C27 1.255 . S
C27 O25 1.256 1_545 S
C27 O26 1.255 . S
H28 C7 0.931 . S
H29 C15 0.931 . S
Co30 N35 2.057 . S
Co30 O47 2.021 . S
Co30 O50 2.062 . S
Co30 O54 2.117 . S
Co30 O55 2.020 . S
C31 O51 1.259 . S
C31 O54 1.258 . S
Co32 N41 2.057 . S
Co32 O48 2.117 . S
Co32 O49 2.020 . S
Co32 O51 2.021 . S
Co32 O56 2.062 . S
C33 N35 1.316 . S
C33 N36 1.347 . S
C33 H38 0.931 . S
C34 N35 1.375 . S
C34 C37 1.350 . S
C34 H39 0.930 . S
N35 Co30 2.057 . S
N35 C33 1.316 . S
N35 C34 1.375 . S
N36 C33 1.347 . S
N36 C37 1.373 . S
C37 C34 1.350 . S
C37 N36 1.373 . S
C37 H58 0.931 . S
H38 C33 0.931 . S
H39 C34 0.930 . S
C40 O47 1.259 . S
C40 O48 1.258 . S
N41 Co32 2.057 . S
N41 C42 1.316 . S
N41 C43 1.375 . S
C42 N41 1.316 . S
C42 N44 1.347 . S
C42 H53 0.931 . S
C43 N41 1.375 . S
C43 C45 1.350 . S
C43 H52 0.930 . S
N44 C42 1.347 . S
N44 C45 1.373 . S
C45 C43 1.350 . S
C45 N44 1.373 . S
C45 H59 0.931 . S
C46 O49 1.256 . S
C46 O50 1.255 . S
O47 Co30 2.021 . S
O47 C40 1.259 . S
O48 Co32 2.117 . S
O48 C40 1.258 . S
O49 Co32 2.020 . S
O49 C46 1.256 . S
O50 Co30 2.062 . S
O50 C46 1.255 . S
O51 C31 1.259 . S
O51 Co32 2.021 . S
H52 C43 0.930 . S
H53 C42 0.931 . S
O54 Co30 2.117 . S
O54 C31 1.258 . S
O55 Co30 2.020 . S
O55 C57 1.256 . S
O56 Co32 2.062 . S
O56 C57 1.255 . S
C57 O55 1.256 . S
C57 O56 1.255 . S
H58 C37 0.931 . S
H59 C45 0.931 . S
Co60 N65 2.057 . S
Co60 O77 2.021 . S
Co60 O80 2.062 . S
Co60 O84 2.117 1_565 S
Co60 O85 2.020 1_565 S
C61 O81 1.259 . S
C61 O84 1.258 . S
Co62 N71 2.057 . S
Co62 O78 2.117 1_545 S
Co62 O79 2.020 1_545 S
Co62 O81 2.021 . S
Co62 O86 2.062 . S
C63 N65 1.316 . S
C63 N66 1.347 . S
C63 H68 0.931 . S
C64 N65 1.375 . S
C64 C67 1.350 . S
C64 H69 0.930 . S
N65 Co60 2.057 . S
N65 C63 1.316 . S
N65 C64 1.375 . S
N66 C63 1.347 . S
N66 C67 1.373 . S
C67 C64 1.350 . S
C67 N66 1.373 . S
C67 H88 0.931 . S
H68 C63 0.931 . S
H69 C64 0.930 . S
C70 O77 1.259 . S
C70 O78 1.258 . S
N71 Co62 2.057 . S
N71 C72 1.316 . S
N71 C73 1.375 . S
C72 N71 1.316 . S
C72 N74 1.347 . S
C72 H83 0.931 . S
C73 N71 1.375 . S
C73 C75 1.350 . S
C73 H82 0.930 . S
N74 C72 1.347 . S
N74 C75 1.373 . S
C75 C73 1.350 . S
C75 N74 1.373 . S
C75 H89 0.931 . S
C76 O79 1.256 . S
C76 O80 1.255 . S
O77 Co60 2.021 . S
O77 C70 1.259 . S
O78 Co62 2.117 1_565 S
O78 C70 1.258 . S
O79 Co62 2.020 1_565 S
O79 C76 1.256 . S
O80 Co60 2.062 . S
O80 C76 1.255 . S
O81 C61 1.259 . S
O81 Co62 2.021 . S
H82 C73 0.930 . S
H83 C72 0.931 . S
O84 Co60 2.117 1_545 S
O84 C61 1.258 . S
O85 Co60 2.020 1_545 S
O85 C87 1.256 . S
O86 Co62 2.062 . S
O86 C87 1.255 . S
C87 O85 1.256 . S
C87 O86 1.255 . S
H88 C67 0.931 . S
H89 C75 0.931 . S
Co90 N95 2.057 . S
Co90 O107 2.021 . S
Co90 O110 2.062 . S
Co90 O114 2.117 . S
Co90 O115 2.020 . S
C91 O111 1.259 . S
C91 O114 1.258 . S
Co92 N101 2.057 . S
Co92 O108 2.117 . S
Co92 O109 2.020 . S
Co92 O111 2.021 . S
Co92 O116 2.062 . S
C93 N95 1.316 . S
C93 N96 1.347 . S
C93 H98 0.931 . S
C94 N95 1.375 . S
C94 C97 1.350 . S
C94 H99 0.930 . S
N95 Co90 2.057 . S
N95 C93 1.316 . S
N95 C94 1.375 . S
N96 C93 1.347 . S
N96 C97 1.373 . S
C97 C94 1.350 . S
C97 N96 1.373 . S
C97 H118 0.931 . S
H98 C93 0.931 . S
H99 C94 0.930 . S
C100 O107 1.259 . S
C100 O108 1.258 . S
N101 Co92 2.057 . S
N101 C102 1.316 . S
N101 C103 1.375 . S
C102 N101 1.316 . S
C102 N104 1.347 . S
C102 H113 0.931 . S
C103 N101 1.375 . S
C103 C105 1.350 . S
C103 H112 0.930 . S
N104 C102 1.347 . S
N104 C105 1.373 . S
C105 C103 1.350 . S
C105 N104 1.373 . S
C105 H119 0.931 . S
C106 O109 1.256 . S
C106 O110 1.255 . S
O107 Co90 2.021 . S
O107 C100 1.259 . S
O108 Co92 2.117 . S
O108 C100 1.258 . S
O109 Co92 2.020 . S
O109 C106 1.256 . S
O110 Co90 2.062 . S
O110 C106 1.255 . S
O111 C91 1.259 . S
O111 Co92 2.021 . S
H112 C103 0.930 . S
H113 C102 0.931 . S
O114 Co90 2.117 . S
O114 C91 1.258 . S
O115 Co90 2.020 . S
O115 C117 1.256 . S
O116 Co92 2.062 . S
O116 C117 1.255 . S
C117 O115 1.256 . S
C117 O116 1.255 . S
H118 C97 0.931 . S
H119 C105 0.931 . S
Co120 N125 2.057 . S
Co120 O137 2.021 1_445 S
Co120 O140 2.062 1_455 S
Co120 O144 2.117 . S
Co120 O145 2.020 1_545 S
C121 O141 1.259 . S
C121 O144 1.258 . S
Co122 N131 2.057 . S
Co122 O138 2.117 . S
Co122 O139 2.020 1_565 S
Co122 O141 2.021 1_665 S
Co122 O146 2.062 1_655 S
C123 N125 1.316 . S
C123 N126 1.347 . S
C123 H128 0.931 . S
C124 N125 1.375 . S
C124 C127 1.350 . S
C124 H129 0.930 . S
N125 Co120 2.057 . S
N125 C123 1.316 . S
N125 C124 1.375 . S
N126 C123 1.347 . S
N126 C127 1.373 . S
C127 C124 1.350 . S
C127 N126 1.373 . S
C127 H148 0.931 . S
H128 C123 0.931 . S
H129 C124 0.930 . S
C130 O137 1.259 . S
C130 O138 1.258 . S
N131 Co122 2.057 . S
N131 C132 1.316 . S
N131 C133 1.375 . S
C132 N131 1.316 . S
C132 N134 1.347 . S
C132 H143 0.931 . S
C133 N131 1.375 . S
C133 C135 1.350 . S
C133 H142 0.930 . S
N134 C132 1.347 . S
N134 C135 1.373 . S
C135 C133 1.350 . S
C135 N134 1.373 . S
C135 H149 0.931 . S
C136 O139 1.256 . S
C136 O140 1.255 . S
O137 Co120 2.021 1_665 S
O137 C130 1.259 . S
O138 Co122 2.117 . S
O138 C130 1.258 . S
O139 Co122 2.020 1_545 S
O139 C136 1.256 . S
O140 Co120 2.062 1_655 S
O140 C136 1.255 . S
O141 C121 1.259 . S
O141 Co122 2.021 1_445 S
H142 C133 0.930 . S
H143 C132 0.931 . S
O144 Co120 2.117 . S
O144 C121 1.258 . S
O145 Co120 2.020 1_565 S
O145 C147 1.256 . S
O146 Co122 2.062 1_455 S
O146 C147 1.255 . S
C147 O145 1.256 . S
C147 O146 1.255 . S
H148 C127 0.931 . S
H149 C135 0.931 . S
Co150 N155 2.057 . S
Co150 O167 2.021 . S
Co150 O170 2.062 . S
Co150 O174 2.117 . S
Co150 O175 2.020 . S
C151 O171 1.259 . S
C151 O174 1.258 . S
Co152 N161 2.057 . S
Co152 O168 2.117 . S
Co152 O169 2.020 . S
Co152 O171 2.021 . S
Co152 O176 2.062 . S
C153 N155 1.316 . S
C153 N156 1.347 . S
C153 H158 0.931 . S
C154 N155 1.375 . S
C154 C157 1.350 . S
C154 H159 0.930 . S
N155 Co150 2.057 . S
N155 C153 1.316 . S
N155 C154 1.375 . S
N156 C153 1.347 . S
N156 C157 1.373 . S
C157 C154 1.350 . S
C157 N156 1.373 . S
C157 H178 0.931 . S
H158 C153 0.931 . S
H159 C154 0.930 . S
C160 O167 1.259 . S
C160 O168 1.258 . S
N161 Co152 2.057 . S
N161 C162 1.316 . S
N161 C163 1.375 . S
C162 N161 1.316 . S
C162 N164 1.347 . S
C162 H173 0.931 . S
C163 N161 1.375 . S
C163 C165 1.350 . S
C163 H172 0.930 . S
N164 C162 1.347 . S
N164 C165 1.373 . S
C165 C163 1.350 . S
C165 N164 1.373 . S
C165 H179 0.931 . S
C166 O169 1.256 . S
C166 O170 1.255 . S
O167 Co150 2.021 . S
O167 C160 1.259 . S
O168 Co152 2.117 . S
O168 C160 1.258 . S
O169 Co152 2.020 . S
O169 C166 1.256 . S
O170 Co150 2.062 . S
O170 C166 1.255 . S
O171 C151 1.259 . S
O171 Co152 2.021 . S
H172 C163 0.930 . S
H173 C162 0.931 . S
O174 Co150 2.117 . S
O174 C151 1.258 . S
O175 Co150 2.020 . S
O175 C177 1.256 . S
O176 Co152 2.062 . S
O176 C177 1.255 . S
C177 O175 1.256 . S
C177 O176 1.255 . S
H178 C157 0.931 . S
H179 C165 0.931 . S
Co180 N185 2.057 . S
Co180 O197 2.021 1_544 S
Co180 O200 2.062 1_545 S
Co180 O204 2.117 . S
Co180 O205 2.020 1_554 S
C181 O201 1.259 . S
C181 O204 1.258 . S
Co182 N191 2.057 . S
Co182 O198 2.117 . S
Co182 O199 2.020 1_556 S
Co182 O201 2.021 1_566 S
Co182 O206 2.062 1_565 S
C183 N185 1.316 . S
C183 N186 1.347 . S
C183 H188 0.931 . S
C184 N185 1.375 . S
C184 C187 1.350 . S
C184 H189 0.930 . S
N185 Co180 2.057 . S
N185 C183 1.316 . S
N185 C184 1.375 . S
N186 C183 1.347 . S
N186 C187 1.373 . S
C187 C184 1.350 . S
C187 N186 1.373 . S
C187 H208 0.931 . S
H188 C183 0.931 . S
H189 C184 0.930 . S
C190 O197 1.259 . S
C190 O198 1.258 . S
N191 Co182 2.057 . S
N191 C192 1.316 . S
N191 C193 1.375 . S
C192 N191 1.316 . S
C192 N194 1.347 . S
C192 H203 0.931 . S
C193 N191 1.375 . S
C193 C195 1.350 . S
C193 H202 0.930 . S
N194 C192 1.347 . S
N194 C195 1.373 . S
C195 C193 1.350 . S
C195 N194 1.373 . S
C195 H209 0.931 . S
C196 O199 1.256 . S
C196 O200 1.255 . S
O197 Co180 2.021 1_566 S
O197 C190 1.259 . S
O198 Co182 2.117 . S
O198 C190 1.258 . S
O199 Co182 2.020 1_554 S
O199 C196 1.256 . S
O200 Co180 2.062 1_565 S
O200 C196 1.255 . S
O201 C181 1.259 . S
O201 Co182 2.021 1_544 S
H202 C193 0.930 . S
H203 C192 0.931 . S
O204 Co180 2.117 . S
O204 C181 1.258 . S
O205 Co180 2.020 1_556 S
O205 C207 1.256 . S
O206 Co182 2.062 1_545 S
O206 C207 1.255 . S
C207 O205 1.256 . S
C207 O206 1.255 . S
H208 C187 0.931 . S
H209 C195 0.931 . S
Co210 N215 2.057 . S
Co210 O227 2.021 . S
Co210 O230 2.062 . S
Co210 O234 2.117 . S
Co210 O235 2.020 . S
C211 O231 1.259 . S
C211 O234 1.258 . S
Co212 N221 2.057 . S
Co212 O228 2.117 . S
Co212 O229 2.020 . S
Co212 O231 2.021 . S
Co212 O236 2.062 . S
C213 N215 1.316 . S
C213 N216 1.347 . S
C213 H218 0.931 . S
C214 N215 1.375 . S
C214 C217 1.350 . S
C214 H219 0.930 . S
N215 Co210 2.057 . S
N215 C213 1.316 . S
N215 C214 1.375 . S
N216 C213 1.347 . S
N216 C217 1.373 . S
C217 C214 1.350 . S
C217 N216 1.373 . S
C217 H238 0.931 . S
H218 C213 0.931 . S
H219 C214 0.930 . S
C220 O227 1.259 . S
C220 O228 1.258 . S
N221 Co212 2.057 . S
N221 C222 1.316 . S
N221 C223 1.375 . S
C222 N221 1.316 . S
C222 N224 1.347 . S
C222 H233 0.931 . S
C223 N221 1.375 . S
C223 C225 1.350 . S
C223 H232 0.930 . S
N224 C222 1.347 . S
N224 C225 1.373 . S
C225 C223 1.350 . S
C225 N224 1.373 . S
C225 H239 0.931 . S
C226 O229 1.256 . S
C226 O230 1.255 . S
O227 Co210 2.021 . S
O227 C220 1.259 . S
O228 Co212 2.117 . S
O228 C220 1.258 . S
O229 Co212 2.020 . S
O229 C226 1.256 . S
O230 Co210 2.062 . S
O230 C226 1.255 . S
O231 C211 1.259 . S
O231 Co212 2.021 . S
H232 C223 0.930 . S
H233 C222 0.931 . S
O234 Co210 2.117 . S
O234 C211 1.258 . S
O235 Co210 2.020 . S
O235 C237 1.256 . S
O236 Co212 2.062 . S
O236 C237 1.255 . S
C237 O235 1.256 . S
C237 O236 1.255 . S
H238 C217 0.931 . S
H239 C225 0.931 . S
Co240 N245 2.057 . S
Co240 O257 2.021 . S
Co240 O260 2.062 . S
Co240 O264 2.117 1_556 S
Co240 O265 2.008 1_556 S
C241 O261 1.259 . S
C241 O264 1.258 . S
Co242 N251 2.057 . S
Co242 O258 2.117 1_554 S
Co242 O259 2.012 1_554 S
Co242 O261 2.021 . S
Co242 O266 2.062 . S
C243 N245 1.316 . S
C243 N246 1.347 . S
C243 H248 0.931 . S
C244 N245 1.375 . S
C244 C247 1.350 . S
C244 H249 0.930 . S
N245 Co240 2.057 . S
N245 C243 1.316 . S
N245 C244 1.375 . S
N246 C243 1.347 . S
N246 C247 1.373 . S
C247 C244 1.350 . S
C247 N246 1.373 . S
C247 H268 0.931 . S
H248 C243 0.931 . S
H249 C244 0.930 . S
C250 O257 1.259 . S
C250 O258 1.258 . S
N251 Co242 2.057 . S
N251 C252 1.316 . S
N251 C253 1.375 . S
C252 N251 1.316 . S
C252 N254 1.347 . S
C252 H263 0.931 . S
C253 N251 1.375 . S
C253 C255 1.350 . S
C253 H262 0.930 . S
N254 C252 1.347 . S
N254 C255 1.373 . S
C255 C253 1.350 . S
C255 N254 1.373 . S
C255 H269 0.931 . S
C256 O259 1.269 . S
C256 O260 1.255 . S
O257 Co240 2.021 . S
O257 C250 1.259 . S
O258 Co242 2.117 1_556 S
O258 C250 1.258 . S
O259 Co242 2.012 1_556 S
O259 C256 1.269 . S
O260 Co240 2.062 . S
O260 C256 1.255 . S
O261 C241 1.259 . S
O261 Co242 2.021 . S
H262 C253 0.930 . S
H263 C252 0.931 . S
O264 Co240 2.117 1_554 S
O264 C241 1.258 . S
O265 Co240 2.008 1_554 S
O265 C267 1.276 . S
O266 Co242 2.062 . S
O266 C267 1.255 . S
C267 O265 1.276 . S
C267 O266 1.255 . S
H268 C247 0.931 . S
H269 C255 0.931 . S
Co270 N275 2.057 . S
Co270 O287 2.021 . S
Co270 O290 2.062 . S
Co270 O294 2.117 . S
Co270 O295 2.020 . S
C271 O291 1.259 . S
C271 O294 1.258 . S
Co272 N281 2.057 . S
Co272 O288 2.117 . S
Co272 O289 2.020 . S
Co272 O291 2.021 . S
Co272 O296 2.062 . S
C273 N275 1.316 . S
C273 N276 1.347 . S
C273 H278 0.931 . S
C274 N275 1.375 . S
C274 C277 1.350 . S
C274 H279 0.930 . S
N275 Co270 2.057 . S
N275 C273 1.316 . S
N275 C274 1.375 . S
N276 C273 1.347 . S
N276 C277 1.373 . S
C277 C274 1.350 . S
C277 N276 1.373 . S
C277 H298 0.931 . S
H278 C273 0.931 . S
H279 C274 0.930 . S
C280 O287 1.259 . S
C280 O288 1.258 . S
N281 Co272 2.057 . S
N281 C282 1.316 . S
N281 C283 1.375 . S
C282 N281 1.316 . S
C282 N284 1.347 . S
C282 H293 0.931 . S
C283 N281 1.375 . S
C283 C285 1.350 . S
C283 H292 0.930 . S
N284 C282 1.347 . S
N284 C285 1.373 . S
C285 C283 1.350 . S
C285 N284 1.373 . S
C285 H299 0.931 . S
C286 O289 1.256 . S
C286 O290 1.255 . S
O287 Co270 2.021 . S
O287 C280 1.259 . S
O288 Co272 2.117 . S
O288 C280 1.258 . S
O289 Co272 2.020 . S
O289 C286 1.256 . S
O290 Co270 2.062 . S
O290 C286 1.255 . S
O291 C271 1.259 . S
O291 Co272 2.021 . S
H292 C283 0.930 . S
H293 C282 0.931 . S
O294 Co270 2.117 . S
O294 C271 1.258 . S
O295 Co270 2.020 . S
O295 C297 1.256 . S
O296 Co272 2.062 . S
O296 C297 1.255 . S
C297 O295 1.256 . S
C297 O296 1.255 . S
H298 C277 0.931 . S
H299 C285 0.931 . S
Co300 N305 2.057 . S
Co300 O317 2.021 . S
Co300 O320 2.062 . S
Co300 O324 2.117 1_655 S
Co300 O325 2.020 . S
C301 O321 1.259 . S
C301 O324 1.258 . S
Co302 N311 2.057 . S
Co302 O318 2.117 1_455 S
Co302 O319 2.020 . S
Co302 O321 2.021 . S
Co302 O326 2.062 . S
C303 N305 1.316 . S
C303 N306 1.347 . S
C303 H308 0.931 . S
C304 N305 1.375 . S
C304 C307 1.350 . S
C304 H309 0.930 . S
N305 Co300 2.057 . S
N305 C303 1.316 . S
N305 C304 1.375 . S
N306 C303 1.347 . S
N306 C307 1.373 . S
C307 C304 1.350 . S
C307 N306 1.373 . S
C307 H328 0.931 . S
H308 C303 0.931 . S
H309 C304 0.930 . S
C310 O317 1.259 . S
C310 O318 1.258 . S
N311 Co302 2.057 . S
N311 C312 1.316 . S
N311 C313 1.375 . S
C312 N311 1.316 . S
C312 N314 1.347 . S
C312 H323 0.931 . S
C313 N311 1.375 . S
C313 C315 1.350 . S
C313 H322 0.930 . S
N314 C312 1.347 . S
N314 C315 1.373 . S
C315 C313 1.350 . S
C315 N314 1.373 . S
C315 H329 0.931 . S
C316 O319 1.256 1_655 S
C316 O320 1.255 . S
O317 Co300 2.021 . S
O317 C310 1.259 . S
O318 Co302 2.117 1_655 S
O318 C310 1.258 . S
O319 Co302 2.020 . S
O319 C316 1.256 1_455 S
O320 Co300 2.062 . S
O320 C316 1.255 . S
O321 C301 1.259 . S
O321 Co302 2.021 . S
H322 C313 0.930 . S
H323 C312 0.931 . S
O324 Co300 2.117 1_455 S
O324 C301 1.258 . S
O325 Co300 2.020 . S
O325 C327 1.256 1_655 S
O326 Co302 2.062 . S
O326 C327 1.255 . S
C327 O325 1.256 1_455 S
C327 O326 1.255 . S
H328 C307 0.931 . S
H329 C315 0.931 . S
Co330 N335 2.057 . S
Co330 O347 2.021 . S
Co330 O350 2.062 . S
Co330 O354 2.117 . S
Co330 O355 2.020 . S
C331 O351 1.259 . S
C331 O354 1.258 . S
Co332 N341 2.057 . S
Co332 O348 2.117 . S
Co332 O349 2.020 . S
Co332 O351 2.021 . S
Co332 O356 2.062 . S
C333 N335 1.316 . S
C333 N336 1.347 . S
C333 H338 0.931 . S
C334 N335 1.375 . S
C334 C337 1.350 . S
C334 H339 0.930 . S
N335 Co330 2.057 . S
N335 C333 1.316 . S
N335 C334 1.375 . S
N336 C333 1.347 . S
N336 C337 1.373 . S
C337 C334 1.350 . S
C337 N336 1.373 . S
C337 H358 0.931 . S
H338 C333 0.931 . S
H339 C334 0.930 . S
C340 O347 1.259 . S
C340 O348 1.258 . S
N341 Co332 2.057 . S
N341 C342 1.316 . S
N341 C343 1.375 . S
C342 N341 1.316 . S
C342 N344 1.347 . S
C342 H353 0.931 . S
C343 N341 1.375 . S
C343 C345 1.350 . S
C343 H352 0.930 . S
N344 C342 1.347 . S
N344 C345 1.373 . S
C345 C343 1.350 . S
C345 N344 1.373 . S
C345 H359 0.931 . S
C346 O349 1.256 . S
C346 O350 1.255 . S
O347 Co330 2.021 . S
O347 C340 1.259 . S
O348 Co332 2.117 . S
O348 C340 1.258 . S
O349 Co332 2.020 . S
O349 C346 1.256 . S
O350 Co330 2.062 . S
O350 C346 1.255 . S
O351 C331 1.259 . S
O351 Co332 2.021 . S
H352 C343 0.930 . S
H353 C342 0.931 . S
O354 Co330 2.117 . S
O354 C331 1.258 . S
O355 Co330 2.020 . S
O355 C357 1.256 . S
O356 Co332 2.062 . S
O356 C357 1.255 . S
C357 O355 1.256 . S
C357 O356 1.255 . S
H358 C337 0.931 . S
H359 C345 0.931 . S
Co360 N365 2.057 . S
Co360 O377 2.021 . S
Co360 O380 2.062 . S
Co360 O384 2.117 . S
Co360 O385 2.020 . S
C361 O381 1.259 . S
C361 O384 1.258 . S
Co362 N371 2.057 . S
Co362 O378 2.117 . S
Co362 O379 2.020 . S
Co362 O381 2.021 . S
Co362 O386 2.062 . S
C363 N365 1.316 . S
C363 N366 1.347 . S
C363 H368 0.931 . S
C364 N365 1.375 . S
C364 C367 1.350 . S
C364 H369 0.930 . S
N365 Co360 2.057 . S
N365 C363 1.316 . S
N365 C364 1.375 . S
N366 C363 1.347 . S
N366 C367 1.373 . S
C367 C364 1.350 . S
C367 N366 1.373 . S
C367 H388 0.931 . S
H368 C363 0.931 . S
H369 C364 0.930 . S
C370 O377 1.259 . S
C370 O378 1.258 . S
N371 Co362 2.057 . S
N371 C372 1.316 . S
N371 C373 1.375 . S
C372 N371 1.316 . S
C372 N374 1.347 . S
C372 H383 0.931 . S
C373 N371 1.375 . S
C373 C375 1.350 . S
C373 H382 0.930 . S
N374 C372 1.347 . S
N374 C375 1.373 . S
C375 C373 1.350 . S
C375 N374 1.373 . S
C375 H389 0.931 . S
C376 O379 1.256 . S
C376 O380 1.255 . S
O377 Co360 2.021 . S
O377 C370 1.259 . S
O378 Co362 2.117 . S
O378 C370 1.258 . S
O379 Co362 2.020 . S
O379 C376 1.256 . S
O380 Co360 2.062 . S
O380 C376 1.255 . S
O381 C361 1.259 . S
O381 Co362 2.021 . S
H382 C373 0.930 . S
H383 C372 0.931 . S
O384 Co360 2.117 . S
O384 C361 1.258 . S
O385 Co360 2.020 . S
O385 C387 1.256 . S
O386 Co362 2.062 . S
O386 C387 1.255 . S
C387 O385 1.256 . S
C387 O386 1.255 . S
H388 C367 0.931 . S
H389 C375 0.931 . S
Co390 N395 2.057 . S
Co390 O407 2.021 . S
Co390 O410 2.062 . S
Co390 O414 2.117 . S
Co390 O415 2.020 . S
C391 O411 1.259 . S
C391 O414 1.258 . S
Co392 N401 2.057 . S
Co392 O408 2.117 . S
Co392 O409 2.020 . S
Co392 O411 2.021 . S
Co392 O416 2.062 . S
C393 N395 1.316 . S
C393 N396 1.347 . S
C393 H398 0.931 . S
C394 N395 1.375 . S
C394 C397 1.350 . S
C394 H399 0.930 . S
N395 Co390 2.057 . S
N395 C393 1.316 . S
N395 C394 1.375 . S
N396 C393 1.347 . S
N396 C397 1.373 . S
C397 C394 1.350 . S
C397 N396 1.373 . S
C397 H418 0.931 . S
H398 C393 0.931 . S
H399 C394 0.930 . S
C400 O407 1.259 . S
C400 O408 1.258 . S
N401 Co392 2.057 . S
N401 C402 1.316 . S
N401 C403 1.375 . S
C402 N401 1.316 . S
C402 N404 1.347 . S
C402 H413 0.931 . S
C403 N401 1.375 . S
C403 C405 1.350 . S
C403 H412 0.930 . S
N404 C402 1.347 . S
N404 C405 1.373 . S
C405 C403 1.350 . S
C405 N404 1.373 . S
C405 H419 0.931 . S
C406 O409 1.256 . S
C406 O410 1.255 . S
O407 Co390 2.021 . S
O407 C400 1.259 . S
O408 Co392 2.117 . S
O408 C400 1.258 . S
O409 Co392 2.020 . S
O409 C406 1.256 . S
O410 Co390 2.062 . S
O410 C406 1.255 . S
O411 C391 1.259 . S
O411 Co392 2.021 . S
H412 C403 0.930 . S
H413 C402 0.931 . S
O414 Co390 2.117 . S
O414 C391 1.258 . S
O415 Co390 2.020 . S
O415 C417 1.256 . S
O416 Co392 2.062 . S
O416 C417 1.255 . S
C417 O415 1.256 . S
C417 O416 1.255 . S
H418 C397 0.931 . S
H419 C405 0.931 . S
Co420 N425 2.057 . S
Co420 O437 2.021 . S
Co420 O440 2.062 . S
Co420 O444 2.117 . S
Co420 O445 2.020 . S
C421 O441 1.259 . S
C421 O444 1.258 . S
Co422 N431 2.057 . S
Co422 O438 2.117 . S
Co422 O439 2.020 . S
Co422 O441 2.021 . S
Co422 O446 2.062 . S
C423 N425 1.316 . S
C423 N426 1.347 . S
C423 H428 0.931 . S
C424 N425 1.375 . S
C424 C427 1.350 . S
C424 H429 0.930 . S
N425 Co420 2.057 . S
N425 C423 1.316 . S
N425 C424 1.375 . S
N426 C423 1.347 . S
N426 C427 1.373 . S
C427 C424 1.350 . S
C427 N426 1.373 . S
C427 H448 0.931 . S
H428 C423 0.931 . S
H429 C424 0.930 . S
C430 O437 1.259 . S
C430 O438 1.258 . S
N431 Co422 2.057 . S
N431 C432 1.316 . S
N431 C433 1.375 . S
C432 N431 1.316 . S
C432 N434 1.347 . S
C432 H443 0.931 . S
C433 N431 1.375 . S
C433 C435 1.350 . S
C433 H442 0.930 . S
N434 C432 1.347 . S
N434 C435 1.373 . S
C435 C433 1.350 . S
C435 N434 1.373 . S
C435 H449 0.931 . S
C436 O439 1.256 . S
C436 O440 1.255 . S
O437 Co420 2.021 . S
O437 C430 1.259 . S
O438 Co422 2.117 . S
O438 C430 1.258 . S
O439 Co422 2.020 . S
O439 C436 1.256 . S
O440 Co420 2.062 . S
O440 C436 1.255 . S
O441 C421 1.259 . S
O441 Co422 2.021 . S
H442 C433 0.930 . S
H443 C432 0.931 . S
O444 Co420 2.117 . S
O444 C421 1.258 . S
O445 Co420 2.020 . S
O445 C447 1.256 . S
O446 Co422 2.062 . S
O446 C447 1.255 . S
C447 O445 1.256 . S
C447 O446 1.255 . S
H448 C427 0.931 . S
H449 C435 0.931 . S
Co450 N455 2.057 . S
Co450 O467 2.021 1_454 S
Co450 O470 2.062 1_554 S
Co450 O474 2.117 . S
Co450 O475 2.020 1_455 S
C451 O471 1.259 . S
C451 O474 1.258 . S
Co452 N461 2.057 . S
Co452 O468 2.117 . S
Co452 O469 2.020 1_655 S
Co452 O471 2.021 1_656 S
Co452 O476 2.062 1_556 S
C453 N455 1.316 . S
C453 N456 1.347 . S
C453 H458 0.931 . S
C454 N455 1.375 . S
C454 C457 1.350 . S
C454 H459 0.930 . S
N455 Co450 2.057 . S
N455 C453 1.316 . S
N455 C454 1.375 . S
N456 C453 1.347 . S
N456 C457 1.373 . S
C457 C454 1.350 . S
C457 N456 1.373 . S
C457 H478 0.931 . S
H458 C453 0.931 . S
H459 C454 0.930 . S
C460 O467 1.259 . S
C460 O468 1.258 . S
N461 Co452 2.057 . S
N461 C462 1.316 . S
N461 C463 1.375 . S
C462 N461 1.316 . S
C462 N464 1.347 . S
C462 H473 0.931 . S
C463 N461 1.375 . S
C463 C465 1.350 . S
C463 H472 0.930 . S
N464 C462 1.347 . S
N464 C465 1.373 . S
C465 C463 1.350 . S
C465 N464 1.373 . S
C465 H479 0.931 . S
C466 O469 1.256 . S
C466 O470 1.255 . S
O467 Co450 2.021 1_656 S
O467 C460 1.259 . S
O468 Co452 2.117 . S
O468 C460 1.258 . S
O469 Co452 2.020 1_455 S
O469 C466 1.256 . S
O470 Co450 2.062 1_556 S
O470 C466 1.255 . S
O471 C451 1.259 . S
O471 Co452 2.021 1_454 S
H472 C463 0.930 . S
H473 C462 0.931 . S
O474 Co450 2.117 . S
O474 C451 1.258 . S
O475 Co450 2.020 1_655 S
O475 C477 1.256 . S
O476 Co452 2.062 1_554 S
O476 C477 1.255 . S
C477 O475 1.256 . S
C477 O476 1.255 . S
H478 C457 0.931 . S
H479 C465 0.931 . S
H480 C486 0.930 . S
H481 C490 0.930 . S
H482 C495 0.929 . S
H483 C493 0.929 . S
H484 C488 0.929 . S
H485 C494 0.929 . S
C486 H480 0.930 . S
C486 C487 1.367 . S
C486 C494 1.378 . S
C487 C486 1.367 . S
C487 C495 1.433 . S
C488 H484 0.929 . S
C488 C490 1.378 . S
C488 C492 1.350 . S
C489 C492 1.463 . S
C489 C494 1.350 . S
C489 N497 1.427 . S
C490 H481 0.930 . S
C490 C488 1.378 . S
C490 C491 1.367 . S
C491 C490 1.367 . S
C491 C493 1.433 . S
C492 C488 1.350 . S
C492 C489 1.463 . S
C492 N496 1.427 . S
C493 H483 0.929 . S
C493 C491 1.433 . S
C493 N496 1.384 . S
C494 H485 0.929 . S
C494 C486 1.378 . S
C494 C489 1.350 . S
C495 H482 0.929 . S
C495 C487 1.433 . S
C495 N497 1.384 . S
N496 C492 1.427 . S
N496 C493 1.384 . S
N497 C489 1.427 . S
N497 C495 1.384 . S
H498 C504 0.930 . S
H499 C508 0.930 . S
H500 C513 0.929 . S
H501 C511 0.929 . S
H502 C506 0.929 . S
H503 C512 0.929 . S
C504 H498 0.930 . S
C504 C505 1.367 . S
C504 C512 1.378 . S
C505 C504 1.367 . S
C505 C513 1.433 . S
C506 H502 0.929 . S
C506 C508 1.378 . S
C506 C510 1.350 . S
C507 C510 1.463 . S
C507 C512 1.350 . S
C507 N515 1.427 . S
C508 H499 0.930 . S
C508 C506 1.378 . S
C508 C509 1.367 . S
C509 C508 1.367 . S
C509 C511 1.433 . S
C510 C506 1.350 . S
C510 C507 1.463 . S
C510 N514 1.427 . S
C511 H501 0.929 . S
C511 C509 1.433 . S
C511 N514 1.384 . S
C512 H503 0.929 . S
C512 C504 1.378 . S
C512 C507 1.350 . S
C513 H500 0.929 . S
C513 C505 1.433 . S
C513 N515 1.384 . S
N514 C510 1.427 . S
N514 C511 1.384 . S
N515 C507 1.427 . S
N515 C513 1.384 . S
H516 C522 0.930 . S
H517 C526 0.930 . S
H518 C531 0.929 . S
H519 C529 0.929 . S
H520 C524 0.929 . S
H521 C530 0.929 . S
C522 H516 0.930 . S
C522 C523 1.367 . S
C522 C530 1.378 . S
C523 C522 1.367 . S
C523 C531 1.433 . S
C524 H520 0.929 . S
C524 C526 1.378 . S
C524 C528 1.350 . S
C525 C528 1.463 . S
C525 C530 1.350 . S
C525 N533 1.427 . S
C526 H517 0.930 . S
C526 C524 1.378 . S
C526 C527 1.367 . S
C527 C526 1.367 . S
C527 C529 1.433 . S
C528 C524 1.350 . S
C528 C525 1.463 . S
C528 N532 1.427 . S
C529 H519 0.929 . S
C529 C527 1.433 . S
C529 N532 1.384 . S
C530 H521 0.929 . S
C530 C522 1.378 . S
C530 C525 1.350 . S
C531 H518 0.929 . S
C531 C523 1.433 . S
C531 N533 1.384 . S
N532 C528 1.427 . S
N532 C529 1.384 . S
N533 C525 1.427 . S
N533 C531 1.384 . S
H534 C540 0.930 . S
H535 C544 0.930 . S
H536 C549 0.929 . S
H537 C547 0.929 . S
H538 C542 0.929 . S
H539 C548 0.929 . S
C540 H534 0.930 . S
C540 C541 1.367 . S
C540 C548 1.378 . S
C541 C540 1.367 . S
C541 C549 1.433 . S
C542 H538 0.929 . S
C542 C544 1.378 . S
C542 C546 1.350 . S
C543 C546 1.463 . S
C543 C548 1.350 . S
C543 N551 1.427 . S
C544 H535 0.930 . S
C544 C542 1.378 . S
C544 C545 1.367 . S
C545 C544 1.367 . S
C545 C547 1.433 . S
C546 C542 1.350 . S
C546 C543 1.463 . S
C546 N550 1.427 . S
C547 H537 0.929 . S
C547 C545 1.433 . S
C547 N550 1.384 . S
C548 H539 0.929 . S
C548 C540 1.378 . S
C548 C543 1.350 . S
C549 H536 0.929 . S
C549 C541 1.433 . S
C549 N551 1.384 . S
N550 C546 1.427 . S
N550 C547 1.384 . S
N551 C543 1.427 . S
N551 C549 1.384 . S
H552 C558 0.930 . S
H553 C562 0.930 . S
H554 C567 0.929 . S
H555 C565 0.929 . S
H556 C560 0.929 . S
H557 C566 0.929 . S
C558 H552 0.930 . S
C558 C559 1.367 . S
C558 C566 1.378 . S
C559 C558 1.367 . S
C559 C567 1.433 . S
C560 H556 0.929 . S
C560 C562 1.378 . S
C560 C564 1.350 . S
C561 C564 1.463 . S
C561 C566 1.350 . S
C561 N569 1.427 . S
C562 H553 0.930 . S
C562 C560 1.378 . S
C562 C563 1.367 . S
C563 C562 1.367 . S
C563 C565 1.433 . S
C564 C560 1.350 . S
C564 C561 1.463 . S
C564 N568 1.427 . S
C565 H555 0.929 . S
C565 C563 1.433 . S
C565 N568 1.384 . S
C566 H557 0.929 . S
C566 C558 1.378 . S
C566 C561 1.350 . S
C567 H554 0.929 . S
C567 C559 1.433 . S
C567 N569 1.384 . S
N568 C564 1.427 . S
N568 C565 1.384 . S
N569 C561 1.427 . S
N569 C567 1.384 . S
H570 C576 0.930 . S
H571 C580 0.930 . S
H572 C585 0.929 . S
H573 C583 0.929 . S
H574 C578 0.929 . S
H575 C584 0.929 . S
C576 H570 0.930 . S
C576 C577 1.367 . S
C576 C584 1.378 . S
C577 C576 1.367 . S
C577 C585 1.433 . S
C578 H574 0.929 . S
C578 C580 1.378 . S
C578 C582 1.350 . S
C579 C582 1.463 . S
C579 C584 1.350 . S
C579 N587 1.427 . S
C580 H571 0.930 . S
C580 C578 1.378 . S
C580 C581 1.367 . S
C581 C580 1.367 . S
C581 C583 1.433 . S
C582 C578 1.350 . S
C582 C579 1.463 . S
C582 N586 1.427 . S
C583 H573 0.929 . S
C583 C581 1.433 . S
C583 N586 1.384 . S
C584 H575 0.929 . S
C584 C576 1.378 . S
C584 C579 1.350 . S
C585 H572 0.929 . S
C585 C577 1.433 . S
C585 N587 1.384 . S
N586 C582 1.427 . S
N586 C583 1.384 . S
N587 C579 1.427 . S
N587 C585 1.384 . S
H588 C594 0.930 . S
H589 C598 0.930 . S
H590 C603 0.929 . S
H591 C601 0.929 . S
H592 C596 0.929 . S
H593 C602 0.929 . S
C594 H588 0.930 . S
C594 C595 1.367 . S
C594 C602 1.378 . S
C595 C594 1.367 . S
C595 C603 1.433 . S
C596 H592 0.929 . S
C596 C598 1.378 . S
C596 C600 1.350 . S
C597 C600 1.463 . S
C597 C602 1.350 . S
C597 N605 1.427 . S
C598 H589 0.930 . S
C598 C596 1.378 . S
C598 C599 1.367 . S
C599 C598 1.367 . S
C599 C601 1.433 . S
C600 C596 1.350 . S
C600 C597 1.463 . S
C600 N604 1.427 . S
C601 H591 0.929 . S
C601 C599 1.433 . S
C601 N604 1.384 . S
C602 H593 0.929 . S
C602 C594 1.378 . S
C602 C597 1.350 . S
C603 H590 0.929 . S
C603 C595 1.433 . S
C603 N605 1.384 . S
N604 C600 1.427 . S
N604 C601 1.384 . S
N605 C597 1.427 . S
N605 C603 1.384 . S
H606 C612 0.930 . S
H607 C616 0.930 . S
H608 C621 0.929 . S
H609 C619 0.929 . S
H610 C614 0.929 . S
H611 C620 0.929 . S
C612 H606 0.930 . S
C612 C613 1.367 . S
C612 C620 1.378 . S
C613 C612 1.367 . S
C613 C621 1.433 . S
C614 H610 0.929 . S
C614 C616 1.378 . S
C614 C618 1.350 . S
C615 C618 1.463 . S
C615 C620 1.350 . S
C615 N623 1.427 . S
C616 H607 0.930 . S
C616 C614 1.378 . S
C616 C617 1.367 . S
C617 C616 1.367 . S
C617 C619 1.433 . S
C618 C614 1.350 . S
C618 C615 1.463 . S
C618 N622 1.427 . S
C619 H609 0.929 . S
C619 C617 1.433 . S
C619 N622 1.384 . S
C620 H611 0.929 . S
C620 C612 1.378 . S
C620 C615 1.350 . S
C621 H608 0.929 . S
C621 C613 1.433 . S
C621 N623 1.384 . S
N622 C618 1.427 . S
N622 C619 1.384 . S
N623 C615 1.427 . S
N623 C621 1.384 . S
H624 C630 0.930 . S
H625 C634 0.930 . S
H626 C639 0.929 . S
H627 C637 0.929 . S
H628 C632 0.929 . S
H629 C638 0.929 . S
C630 H624 0.930 . S
C630 C631 1.367 . S
C630 C638 1.378 . S
C631 C630 1.367 . S
C631 C639 1.433 . S
C632 H628 0.929 . S
C632 C634 1.378 . S
C632 C636 1.350 . S
C633 C636 1.463 . S
C633 C638 1.350 . S
C633 N641 1.427 . S
C634 H625 0.930 . S
C634 C632 1.378 . S
C634 C635 1.367 . S
C635 C634 1.367 . S
C635 C637 1.433 . S
C636 C632 1.350 . S
C636 C633 1.463 . S
C636 N640 1.427 . S
C637 H627 0.929 . S
C637 C635 1.433 . S
C637 N640 1.384 . S
C638 H629 0.929 . S
C638 C630 1.378 . S
C638 C633 1.350 . S
C639 H626 0.929 . S
C639 C631 1.433 . S
C639 N641 1.384 . S
N640 C636 1.427 . S
N640 C637 1.384 . S
N641 C633 1.427 . S
N641 C639 1.384 . S
H642 C648 0.930 . S
H643 C652 0.930 . S
H644 C657 0.929 . S
H645 C655 0.929 . S
H646 C650 0.929 . S
H647 C656 0.929 . S
C648 H642 0.930 . S
C648 C649 1.367 . S
C648 C656 1.378 . S
C649 C648 1.367 . S
C649 C657 1.433 . S
C650 H646 0.929 . S
C650 C652 1.378 . S
C650 C654 1.350 . S
C651 C654 1.463 . S
C651 C656 1.350 . S
C651 N659 1.427 . S
C652 H643 0.930 . S
C652 C650 1.378 . S
C652 C653 1.367 . S
C653 C652 1.367 . S
C653 C655 1.433 . S
C654 C650 1.350 . S
C654 C651 1.463 . S
C654 N658 1.427 . S
C655 H645 0.929 . S
C655 C653 1.433 . S
C655 N658 1.384 . S
C656 H647 0.929 . S
C656 C648 1.378 . S
C656 C651 1.350 . S
C657 H644 0.929 . S
C657 C649 1.433 . S
C657 N659 1.384 . S
N658 C654 1.427 . S
N658 C655 1.384 . S
N659 C651 1.427 . S
N659 C657 1.384 . S
H660 C666 0.930 . S
H661 C670 0.930 . S
H662 C675 0.929 . S
H663 C673 0.929 . S
H664 C668 0.929 . S
H665 C674 0.929 . S
C666 H660 0.930 . S
C666 C667 1.367 . S
C666 C674 1.378 . S
C667 C666 1.367 . S
C667 C675 1.433 . S
C668 H664 0.929 . S
C668 C670 1.378 . S
C668 C672 1.350 . S
C669 C672 1.463 . S
C669 C674 1.350 . S
C669 N677 1.427 . S
C670 H661 0.930 . S
C670 C668 1.378 . S
C670 C671 1.367 . S
C671 C670 1.367 . S
C671 C673 1.433 . S
C672 C668 1.350 . S
C672 C669 1.463 . S
C672 N676 1.427 . S
C673 H663 0.929 . S
C673 C671 1.433 . S
C673 N676 1.384 . S
C674 H665 0.929 . S
C674 C666 1.378 . S
C674 C669 1.350 . S
C675 H662 0.929 . S
C675 C667 1.433 . S
C675 N677 1.384 . S
N676 C672 1.427 . S
N676 C673 1.384 . S
N677 C669 1.427 . S
N677 C675 1.384 . S
H678 C684 0.930 . S
H679 C688 0.930 . S
H680 C693 0.929 . S
H681 C691 0.929 . S
H682 C686 0.929 . S
H683 C692 0.929 . S
C684 H678 0.930 . S
C684 C685 1.367 . S
C684 C692 1.378 . S
C685 C684 1.367 . S
C685 C693 1.433 . S
C686 H682 0.929 . S
C686 C688 1.378 . S
C686 C690 1.350 . S
C687 C690 1.463 . S
C687 C692 1.350 . S
C687 N695 1.427 . S
C688 H679 0.930 . S
C688 C686 1.378 . S
C688 C689 1.367 . S
C689 C688 1.367 . S
C689 C691 1.433 . S
C690 C686 1.350 . S
C690 C687 1.463 . S
C690 N694 1.427 . S
C691 H681 0.929 . S
C691 C689 1.433 . S
C691 N694 1.384 . S
C692 H683 0.929 . S
C692 C684 1.378 . S
C692 C687 1.350 . S
C693 H680 0.929 . S
C693 C685 1.433 . S
C693 N695 1.384 . S
N694 C690 1.427 . S
N694 C691 1.384 . S
N695 C687 1.427 . S
N695 C693 1.384 . S
H696 C702 0.930 . S
H697 C706 0.930 . S
H698 C711 0.929 . S
H699 C709 0.929 . S
H700 C704 0.929 . S
H701 C710 0.929 . S
C702 H696 0.930 . S
C702 C703 1.367 . S
C702 C710 1.378 . S
C703 C702 1.367 . S
C703 C711 1.433 . S
C704 H700 0.929 . S
C704 C706 1.378 . S
C704 C708 1.350 . S
C705 C708 1.463 . S
C705 C710 1.350 . S
C705 N713 1.427 . S
C706 H697 0.930 . S
C706 C704 1.378 . S
C706 C707 1.367 . S
C707 C706 1.367 . S
C707 C709 1.433 . S
C708 C704 1.350 . S
C708 C705 1.463 . S
C708 N712 1.427 . S
C709 H699 0.929 . S
C709 C707 1.433 . S
C709 N712 1.384 . S
C710 H701 0.929 . S
C710 C702 1.378 . S
C710 C705 1.350 . S
C711 H698 0.929 . S
C711 C703 1.433 . S
C711 N713 1.384 . S
N712 C708 1.427 . S
N712 C709 1.384 . S
N713 C705 1.427 . S
N713 C711 1.384 . S
H714 C720 0.930 . S
H715 C724 0.930 . S
H716 C729 0.929 . S
H717 C727 0.929 . S
H718 C722 0.929 . S
H719 C728 0.929 . S
C720 H714 0.930 . S
C720 C721 1.367 . S
C720 C728 1.378 . S
C721 C720 1.367 . S
C721 C729 1.433 . S
C722 H718 0.929 . S
C722 C724 1.378 . S
C722 C726 1.350 . S
C723 C726 1.463 . S
C723 C728 1.350 . S
C723 N731 1.427 . S
C724 H715 0.930 . S
C724 C722 1.378 . S
C724 C725 1.367 . S
C725 C724 1.367 . S
C725 C727 1.433 . S
C726 C722 1.350 . S
C726 C723 1.463 . S
C726 N730 1.427 . S
C727 H717 0.929 . S
C727 C725 1.433 . S
C727 N730 1.384 . S
C728 H719 0.929 . S
C728 C720 1.378 . S
C728 C723 1.350 . S
C729 H716 0.929 . S
C729 C721 1.433 . S
C729 N731 1.384 . S
N730 C726 1.427 . S
N730 C727 1.384 . S
N731 C723 1.427 . S
N731 C729 1.384 . S
H732 C738 0.930 . S
H733 C742 0.930 . S
H734 C747 0.929 . S
H735 C745 0.929 . S
H736 C740 0.929 . S
H737 C746 0.929 . S
C738 H732 0.930 . S
C738 C739 1.367 . S
C738 C746 1.378 . S
C739 C738 1.367 . S
C739 C747 1.433 . S
C740 H736 0.929 . S
C740 C742 1.378 . S
C740 C744 1.350 . S
C741 C744 1.463 . S
C741 C746 1.350 . S
C741 N749 1.427 . S
C742 H733 0.930 . S
C742 C740 1.378 . S
C742 C743 1.367 . S
C743 C742 1.367 . S
C743 C745 1.433 . S
C744 C740 1.350 . S
C744 C741 1.463 . S
C744 N748 1.427 . S
C745 H735 0.929 . S
C745 C743 1.433 . S
C745 N748 1.384 . S
C746 H737 0.929 . S
C746 C738 1.378 . S
C746 C741 1.350 . S
C747 H734 0.929 . S
C747 C739 1.433 . S
C747 N749 1.384 . S
N748 C744 1.427 . S
N748 C745 1.384 . S
N749 C741 1.427 . S
N749 C747 1.384 . S
H750 C756 0.930 . S
H751 C760 0.930 . S
H752 C765 0.929 . S
H753 C763 0.929 . S
H754 C758 0.929 . S
H755 C764 0.929 . S
C756 H750 0.930 . S
C756 C757 1.367 . S
C756 C764 1.378 . S
C757 C756 1.367 . S
C757 C765 1.433 . S
C758 H754 0.929 . S
C758 C760 1.378 . S
C758 C762 1.350 . S
C759 C762 1.463 . S
C759 C764 1.350 . S
C759 N767 1.427 . S
C760 H751 0.930 . S
C760 C758 1.378 . S
C760 C761 1.367 . S
C761 C760 1.367 . S
C761 C763 1.433 . S
C762 C758 1.350 . S
C762 C759 1.463 . S
C762 N766 1.427 . S
C763 H753 0.929 . S
C763 C761 1.433 . S
C763 N766 1.384 . S
C764 H755 0.929 . S
C764 C756 1.378 . S
C764 C759 1.350 . S
C765 H752 0.929 . S
C765 C757 1.433 . S
C765 N767 1.384 . S
N766 C762 1.427 . S
N766 C763 1.384 . S
N767 C759 1.427 . S
N767 C765 1.384 . S
H768 C774 0.930 . S
H769 C778 0.930 . S
H770 C783 0.929 . S
H771 C781 0.929 . S
H772 C776 0.929 . S
H773 C782 0.929 . S
C774 H768 0.930 . S
C774 C775 1.367 . S
C774 C782 1.378 . S
C775 C774 1.367 . S
C775 C783 1.433 . S
C776 H772 0.929 . S
C776 C778 1.378 . S
C776 C780 1.350 . S
C777 C780 1.463 . S
C777 C782 1.350 . S
C777 N785 1.427 . S
C778 H769 0.930 . S
C778 C776 1.378 . S
C778 C779 1.367 . S
C779 C778 1.367 . S
C779 C781 1.433 . S
C780 C776 1.350 . S
C780 C777 1.463 . S
C780 N784 1.427 . S
C781 H771 0.929 . S
C781 C779 1.433 . S
C781 N784 1.384 . S
C782 H773 0.929 . S
C782 C774 1.378 . S
C782 C777 1.350 . S
C783 H770 0.929 . S
C783 C775 1.433 . S
C783 N785 1.384 . S
N784 C780 1.427 . S
N784 C781 1.384 . S
N785 C777 1.427 . S
N785 C783 1.384 . S
H786 C792 0.930 . S
H787 C796 0.930 . S
H788 C801 0.929 . S
H789 C799 0.929 . S
H790 C794 0.929 . S
H791 C800 0.929 . S
C792 H786 0.930 . S
C792 C793 1.367 . S
C792 C800 1.378 . S
C793 C792 1.367 . S
C793 C801 1.433 . S
C794 H790 0.929 . S
C794 C796 1.378 . S
C794 C798 1.350 . S
C795 C798 1.463 . S
C795 C800 1.350 . S
C795 N803 1.427 . S
C796 H787 0.930 . S
C796 C794 1.378 . S
C796 C797 1.367 . S
C797 C796 1.367 . S
C797 C799 1.433 . S
C798 C794 1.350 . S
C798 C795 1.463 . S
C798 N802 1.427 . S
C799 H789 0.929 . S
C799 C797 1.433 . S
C799 N802 1.384 . S
C800 H791 0.929 . S
C800 C792 1.378 . S
C800 C795 1.350 . S
C801 H788 0.929 . S
C801 C793 1.433 . S
C801 N803 1.384 . S
N802 C798 1.427 . S
N802 C799 1.384 . S
N803 C795 1.427 . S
N803 C801 1.384 . S
H804 C810 0.930 . S
H805 C814 0.930 . S
H806 C819 0.929 . S
H807 C817 0.929 . S
H808 C812 0.929 . S
H809 C818 0.929 . S
C810 H804 0.930 . S
C810 C811 1.367 . S
C810 C818 1.378 . S
C811 C810 1.367 . S
C811 C819 1.433 . S
C812 H808 0.929 . S
C812 C814 1.378 . S
C812 C816 1.350 . S
C813 C816 1.463 . S
C813 C818 1.350 . S
C813 N821 1.427 . S
C814 H805 0.930 . S
C814 C812 1.378 . S
C814 C815 1.367 . S
C815 C814 1.367 . S
C815 C817 1.433 . S
C816 C812 1.350 . S
C816 C813 1.463 . S
C816 N820 1.427 . S
C817 H807 0.929 . S
C817 C815 1.433 . S
C817 N820 1.384 . S
C818 H809 0.929 . S
C818 C810 1.378 . S
C818 C813 1.350 . S
C819 H806 0.929 . S
C819 C811 1.433 . S
C819 N821 1.384 . S
N820 C816 1.427 . S
N820 C817 1.384 . S
N821 C813 1.427 . S
N821 C819 1.384 . S
H822 C828 0.930 . S
H823 C832 0.930 . S
H824 C837 0.929 . S
H825 C835 0.929 . S
H826 C830 0.929 . S
H827 C836 0.929 . S
C828 H822 0.930 . S
C828 C829 1.367 . S
C828 C836 1.378 . S
C829 C828 1.367 . S
C829 C837 1.433 . S
C830 H826 0.929 . S
C830 C832 1.378 . S
C830 C834 1.350 . S
C831 C834 1.463 . S
C831 C836 1.350 . S
C831 N839 1.427 . S
C832 H823 0.930 . S
C832 C830 1.378 . S
C832 C833 1.367 . S
C833 C832 1.367 . S
C833 C835 1.433 . S
C834 C830 1.350 . S
C834 C831 1.463 . S
C834 N838 1.427 . S
C835 H825 0.929 . S
C835 C833 1.433 . S
C835 N838 1.384 . S
C836 H827 0.929 . S
C836 C828 1.378 . S
C836 C831 1.350 . S
C837 H824 0.929 . S
C837 C829 1.433 . S
C837 N839 1.384 . S
N838 C834 1.427 . S
N838 C835 1.384 . S
N839 C831 1.427 . S
N839 C837 1.384 . S
H840 C846 0.930 . S
H841 C850 0.930 . S
H842 C855 0.929 . S
H843 C853 0.929 . S
H844 C848 0.929 . S
H845 C854 0.929 . S
C846 H840 0.930 . S
C846 C847 1.367 . S
C846 C854 1.378 . S
C847 C846 1.367 . S
C847 C855 1.433 . S
C848 H844 0.929 . S
C848 C850 1.378 . S
C848 C852 1.350 . S
C849 C852 1.463 . S
C849 C854 1.350 . S
C849 N857 1.427 . S
C850 H841 0.930 . S
C850 C848 1.378 . S
C850 C851 1.367 . S
C851 C850 1.367 . S
C851 C853 1.433 . S
C852 C848 1.350 . S
C852 C849 1.463 . S
C852 N856 1.427 . S
C853 H843 0.929 . S
C853 C851 1.433 . S
C853 N856 1.384 . S
C854 H845 0.929 . S
C854 C846 1.378 . S
C854 C849 1.350 . S
C855 H842 0.929 . S
C855 C847 1.433 . S
C855 N857 1.384 . S
N856 C852 1.427 . S
N856 C853 1.384 . S
N857 C849 1.427 . S
N857 C855 1.384 . S
H858 C864 0.930 . S
H859 C868 0.930 . S
H860 C873 0.929 . S
H861 C871 0.929 . S
H862 C866 0.929 . S
H863 C872 0.929 . S
C864 H858 0.930 . S
C864 C865 1.367 . S
C864 C872 1.378 . S
C865 C864 1.367 . S
C865 C873 1.433 . S
C866 H862 0.929 . S
C866 C868 1.378 . S
C866 C870 1.350 . S
C867 C870 1.463 . S
C867 C872 1.350 . S
C867 N875 1.427 . S
C868 H859 0.930 . S
C868 C866 1.378 . S
C868 C869 1.367 . S
C869 C868 1.367 . S
C869 C871 1.433 . S
C870 C866 1.350 . S
C870 C867 1.463 . S
C870 N874 1.427 . S
C871 H861 0.929 . S
C871 C869 1.433 . S
C871 N874 1.384 . S
C872 H863 0.929 . S
C872 C864 1.378 . S
C872 C867 1.350 . S
C873 H860 0.929 . S
C873 C865 1.433 . S
C873 N875 1.384 . S
N874 C870 1.427 . S
N874 C871 1.384 . S
N875 C867 1.427 . S
N875 C873 1.384 . S
H876 C882 0.930 . S
H877 C886 0.930 . S
H878 C891 0.929 . S
H879 C889 0.929 . S
H880 C884 0.929 . S
H881 C890 0.929 . S
C882 H876 0.930 . S
C882 C883 1.367 . S
C882 C890 1.378 . S
C883 C882 1.367 . S
C883 C891 1.433 . S
C884 H880 0.929 . S
C884 C886 1.378 . S
C884 C888 1.350 . S
C885 C888 1.463 . S
C885 C890 1.350 . S
C885 N893 1.427 . S
C886 H877 0.930 . S
C886 C884 1.378 . S
C886 C887 1.367 . S
C887 C886 1.367 . S
C887 C889 1.433 . S
C888 C884 1.350 . S
C888 C885 1.463 . S
C888 N892 1.427 . S
C889 H879 0.929 . S
C889 C887 1.433 . S
C889 N892 1.384 . S
C890 H881 0.929 . S
C890 C882 1.378 . S
C890 C885 1.350 . S
C891 H878 0.929 . S
C891 C883 1.433 . S
C891 N893 1.384 . S
N892 C888 1.427 . S
N892 C889 1.384 . S
N893 C885 1.427 . S
N893 C891 1.384 . S
H894 C900 0.930 . S
H895 C904 0.930 . S
H896 C909 0.929 . S
H897 C907 0.929 . S
H898 C902 0.929 . S
H899 C908 0.929 . S
C900 H894 0.930 . S
C900 C901 1.367 . S
C900 C908 1.378 . S
C901 C900 1.367 . S
C901 C909 1.433 . S
C902 H898 0.929 . S
C902 C904 1.378 . S
C902 C906 1.350 . S
C903 C906 1.463 . S
C903 C908 1.350 . S
C903 N911 1.427 . S
C904 H895 0.930 . S
C904 C902 1.378 . S
C904 C905 1.367 . S
C905 C904 1.367 . S
C905 C907 1.433 . S
C906 C902 1.350 . S
C906 C903 1.463 . S
C906 N910 1.427 . S
C907 H897 0.929 . S
C907 C905 1.433 . S
C907 N910 1.384 . S
C908 H899 0.929 . S
C908 C900 1.378 . S
C908 C903 1.350 . S
C909 H896 0.929 . S
C909 C901 1.433 . S
C909 N911 1.384 . S
N910 C906 1.427 . S
N910 C907 1.384 . S
N911 C903 1.427 . S
N911 C909 1.384 . S
H912 C918 0.930 . S
H913 C922 0.930 . S
H914 C927 0.929 1_545 S
H915 C925 0.929 . S
H916 C920 0.929 . S
H917 C926 0.929 . S
C918 H912 0.930 . S
C918 C919 1.367 . S
C918 C926 1.378 . S
C919 C918 1.367 . S
C919 C927 1.433 . S
C920 H916 0.929 . S
C920 C922 1.378 . S
C920 C924 1.350 . S
C921 C924 1.463 . S
C921 C926 1.350 . S
C921 N929 1.427 . S
C922 H913 0.930 . S
C922 C920 1.378 . S
C922 C923 1.367 . S
C923 C922 1.367 . S
C923 C925 1.433 . S
C924 C920 1.350 . S
C924 C921 1.463 . S
C924 N928 1.427 . S
C925 H915 0.929 . S
C925 C923 1.433 . S
C925 N928 1.384 . S
C926 H917 0.929 . S
C926 C918 1.378 . S
C926 C921 1.350 . S
C927 H914 0.929 1_565 S
C927 C919 1.433 . S
C927 N929 1.384 . S
N928 C924 1.427 . S
N928 C925 1.384 . S
N929 C921 1.427 . S
N929 C927 1.384 . S
H930 C936 0.930 . S
H931 C940 0.930 . S
H932 C945 0.929 . S
H933 C943 0.929 . S
H934 C938 0.929 . S
H935 C944 0.929 . S
C936 H930 0.930 . S
C936 C937 1.367 . S
C936 C944 1.378 . S
C937 C936 1.367 . S
C937 C945 1.433 . S
C938 H934 0.929 . S
C938 C940 1.378 . S
C938 C942 1.350 . S
C939 C942 1.463 . S
C939 C944 1.350 . S
C939 N947 1.427 . S
C940 H931 0.930 . S
C940 C938 1.378 . S
C940 C941 1.367 . S
C941 C940 1.367 . S
C941 C943 1.433 . S
C942 C938 1.350 . S
C942 C939 1.463 . S
C942 N946 1.427 . S
C943 H933 0.929 . S
C943 C941 1.433 . S
C943 N946 1.384 . S
C944 H935 0.929 . S
C944 C936 1.378 . S
C944 C939 1.350 . S
C945 H932 0.929 . S
C945 C937 1.433 . S
C945 N947 1.384 . S
N946 C942 1.427 . S
N946 C943 1.384 . S
N947 C939 1.427 . S
N947 C945 1.384 . S
H948 C954 0.930 . S
H949 C958 0.930 . S
H950 C963 0.929 . S
H951 C961 0.929 . S
H952 C956 0.929 . S
H953 C962 0.929 . S
C954 H948 0.930 . S
C954 C955 1.367 . S
C954 C962 1.378 . S
C955 C954 1.367 . S
C955 C963 1.433 . S
C956 H952 0.929 . S
C956 C958 1.378 . S
C956 C960 1.350 . S
C957 C960 1.463 . S
C957 C962 1.350 . S
C957 N965 1.427 . S
C958 H949 0.930 . S
C958 C956 1.378 . S
C958 C959 1.367 . S
C959 C958 1.367 . S
C959 C961 1.433 . S
C960 C956 1.350 . S
C960 C957 1.463 . S
C960 N964 1.427 . S
C961 H951 0.929 . S
C961 C959 1.433 . S
C961 N964 1.384 . S
C962 H953 0.929 . S
C962 C954 1.378 . S
C962 C957 1.350 . S
C963 H950 0.929 . S
C963 C955 1.433 . S
C963 N965 1.384 . S
N964 C960 1.427 . S
N964 C961 1.384 . S
N965 C957 1.427 . S
N965 C963 1.384 . S
H966 C972 0.930 . S
H967 C976 0.930 . S
H968 C981 0.929 . S
H969 C979 0.929 . S
H970 C974 0.929 . S
H971 C980 0.929 . S
C972 H966 0.930 . S
C972 C973 1.367 . S
C972 C980 1.378 . S
C973 C972 1.367 . S
C973 C981 1.433 . S
C974 H970 0.929 . S
C974 C976 1.378 . S
C974 C978 1.350 . S
C975 C978 1.463 . S
C975 C980 1.350 . S
C975 N983 1.427 . S
C976 H967 0.930 . S
C976 C974 1.378 . S
C976 C977 1.367 . S
C977 C976 1.367 . S
C977 C979 1.433 . S
C978 C974 1.350 . S
C978 C975 1.463 . S
C978 N982 1.427 . S
C979 H969 0.929 . S
C979 C977 1.433 . S
C979 N982 1.384 . S
C980 H971 0.929 . S
C980 C972 1.378 . S
C980 C975 1.350 . S
C981 H968 0.929 . S
C981 C973 1.433 . S
C981 N983 1.384 . S
N982 C978 1.427 . S
N982 C979 1.384 . S
N983 C975 1.427 . S
N983 C981 1.384 . S
H984 C990 0.930 . S
H985 C994 0.930 . S
H986 C999 0.911 1_545 S
H987 C997 0.929 . S
H988 C992 0.929 . S
H989 C998 0.929 . S
C990 H984 0.930 . S
C990 C991 1.367 . S
C990 C998 1.378 . S
C991 C990 1.367 . S
C991 C999 1.433 . S
C992 H988 0.929 . S
C992 C994 1.378 . S
C992 C996 1.350 . S
C993 C996 1.463 . S
C993 C998 1.350 . S
C993 N1001 1.427 . S
C994 H985 0.930 . S
C994 C992 1.378 . S
C994 C995 1.367 . S
C995 C994 1.367 . S
C995 C997 1.433 . S
C996 C992 1.350 . S
C996 C993 1.463 . S
C996 N1000 1.427 . S
C997 H987 0.929 . S
C997 C995 1.433 . S
C997 N1000 1.384 . S
C998 H989 0.929 . S
C998 C990 1.378 . S
C998 C993 1.350 . S
C999 H986 0.911 1_565 S
C999 C991 1.433 . S
C999 N1001 1.384 . S
N1000 C996 1.427 . S
N1000 C997 1.384 . S
N1001 C993 1.427 . S
N1001 C999 1.384 . S
H1002 C1008 0.930 . S
H1003 C1012 0.930 . S
H1004 C1017 0.929 . S
H1005 C1015 0.929 . S
H1006 C1010 0.929 . S
H1007 C1016 0.929 . S
C1008 H1002 0.930 . S
C1008 C1009 1.367 . S
C1008 C1016 1.378 . S
C1009 C1008 1.367 . S
C1009 C1017 1.433 . S
C1010 H1006 0.929 . S
C1010 C1012 1.378 . S
C1010 C1014 1.350 . S
C1011 C1014 1.463 . S
C1011 C1016 1.350 . S
C1011 N1019 1.427 . S
C1012 H1003 0.930 . S
C1012 C1010 1.378 . S
C1012 C1013 1.367 . S
C1013 C1012 1.367 . S
C1013 C1015 1.433 . S
C1014 C1010 1.350 . S
C1014 C1011 1.463 . S
C1014 N1018 1.427 . S
C1015 H1005 0.929 . S
C1015 C1013 1.433 . S
C1015 N1018 1.384 . S
C1016 H1007 0.929 . S
C1016 C1008 1.378 . S
C1016 C1011 1.350 . S
C1017 H1004 0.929 . S
C1017 C1009 1.433 . S
C1017 N1019 1.384 . S
N1018 C1014 1.427 . S
N1018 C1015 1.384 . S
N1019 C1011 1.427 . S
N1019 C1017 1.384 . S
H1020 C1026 0.930 . S
H1021 C1030 0.930 . S
H1022 C1035 0.929 . S
H1023 C1033 0.929 . S
H1024 C1028 0.929 . S
H1025 C1034 0.929 . S
C1026 H1020 0.930 . S
C1026 C1027 1.367 . S
C1026 C1034 1.378 . S
C1027 C1026 1.367 . S
C1027 C1035 1.433 . S
C1028 H1024 0.929 . S
C1028 C1030 1.378 . S
C1028 C1032 1.350 . S
C1029 C1032 1.463 . S
C1029 C1034 1.350 . S
C1029 N1037 1.427 . S
C1030 H1021 0.930 . S
C1030 C1028 1.378 . S
C1030 C1031 1.367 . S
C1031 C1030 1.367 . S
C1031 C1033 1.433 . S
C1032 C1028 1.350 . S
C1032 C1029 1.463 . S
C1032 N1036 1.427 . S
C1033 H1023 0.929 . S
C1033 C1031 1.433 . S
C1033 N1036 1.384 . S
C1034 H1025 0.929 . S
C1034 C1026 1.378 . S
C1034 C1029 1.350 . S
C1035 H1022 0.929 . S
C1035 C1027 1.433 . S
C1035 N1037 1.384 . S
N1036 C1032 1.427 . S
N1036 C1033 1.384 . S
N1037 C1029 1.427 . S
N1037 C1035 1.384 . S
H1038 C1044 0.930 . S
H1039 C1048 0.930 . S
H1040 C1053 0.929 . S
H1041 C1051 0.929 . S
H1042 C1046 0.929 . S
H1043 C1052 0.929 . S
C1044 H1038 0.930 . S
C1044 C1045 1.367 . S
C1044 C1052 1.378 . S
C1045 C1044 1.367 . S
C1045 C1053 1.433 . S
C1046 H1042 0.929 . S
C1046 C1048 1.378 . S
C1046 C1050 1.350 . S
C1047 C1050 1.463 . S
C1047 C1052 1.350 . S
C1047 N1055 1.427 . S
C1048 H1039 0.930 . S
C1048 C1046 1.378 . S
C1048 C1049 1.367 . S
C1049 C1048 1.367 . S
C1049 C1051 1.433 . S
C1050 C1046 1.350 . S
C1050 C1047 1.463 . S
C1050 N1054 1.427 . S
C1051 H1041 0.929 . S
C1051 C1049 1.433 . S
C1051 N1054 1.384 . S
C1052 H1043 0.929 . S
C1052 C1044 1.378 . S
C1052 C1047 1.350 . S
C1053 H1040 0.929 . S
C1053 C1045 1.433 . S
C1053 N1055 1.384 . S
N1054 C1050 1.427 . S
N1054 C1051 1.384 . S
N1055 C1047 1.427 . S
N1055 C1053 1.384 . S
H1056 C1062 0.930 . S
H1057 C1066 0.930 . S
H1058 C1071 0.929 . S
H1059 C1069 0.929 . S
H1060 C1064 0.929 . S
H1061 C1070 0.929 . S
C1062 H1056 0.930 . S
C1062 C1063 1.367 . S
C1062 C1070 1.378 . S
C1063 C1062 1.367 . S
C1063 C1071 1.433 . S
C1064 H1060 0.929 . S
C1064 C1066 1.378 . S
C1064 C1068 1.350 . S
C1065 C1068 1.463 . S
C1065 C1070 1.350 . S
C1065 N1073 1.427 . S
C1066 H1057 0.930 . S
C1066 C1064 1.378 . S
C1066 C1067 1.367 . S
C1067 C1066 1.367 . S
C1067 C1069 1.433 . S
C1068 C1064 1.350 . S
C1068 C1065 1.463 . S
C1068 N1072 1.427 . S
C1069 H1059 0.929 . S
C1069 C1067 1.433 . S
C1069 N1072 1.384 . S
C1070 H1061 0.929 . S
C1070 C1062 1.378 . S
C1070 C1065 1.350 . S
C1071 H1058 0.929 . S
C1071 C1063 1.433 . S
C1071 N1073 1.384 . S
N1072 C1068 1.427 . S
N1072 C1069 1.384 . S
N1073 C1065 1.427 . S
N1073 C1071 1.384 . S
H1074 C1080 0.930 . S
H1075 C1084 0.930 . S
H1076 C1089 0.929 . S
H1077 C1087 0.929 . S
H1078 C1082 0.929 . S
H1079 C1088 0.929 . S
C1080 H1074 0.930 . S
C1080 C1081 1.367 . S
C1080 C1088 1.378 . S
C1081 C1080 1.367 . S
C1081 C1089 1.433 . S
C1082 H1078 0.929 . S
C1082 C1084 1.378 . S
C1082 C1086 1.350 . S
C1083 C1086 1.463 . S
C1083 C1088 1.350 . S
C1083 N1091 1.427 . S
C1084 H1075 0.930 . S
C1084 C1082 1.378 . S
C1084 C1085 1.367 . S
C1085 C1084 1.367 . S
C1085 C1087 1.433 . S
C1086 C1082 1.350 . S
C1086 C1083 1.463 . S
C1086 N1090 1.427 . S
C1087 H1077 0.929 . S
C1087 C1085 1.433 . S
C1087 N1090 1.384 . S
C1088 H1079 0.929 . S
C1088 C1080 1.378 . S
C1088 C1083 1.350 . S
C1089 H1076 0.929 . S
C1089 C1081 1.433 . S
C1089 N1091 1.384 . S
N1090 C1086 1.427 . S
N1090 C1087 1.384 . S
N1091 C1083 1.427 . S
N1091 C1089 1.384 . S
H1092 C1098 0.930 . S
H1093 C1102 0.930 . S
H1094 C1107 0.929 . S
H1095 C1105 0.929 . S
H1096 C1100 0.929 . S
H1097 C1106 0.929 . S
C1098 H1092 0.930 . S
C1098 C1099 1.367 . S
C1098 C1106 1.378 . S
C1099 C1098 1.367 . S
C1099 C1107 1.433 . S
C1100 H1096 0.929 . S
C1100 C1102 1.378 . S
C1100 C1104 1.350 . S
C1101 C1104 1.463 . S
C1101 C1106 1.350 . S
C1101 N1109 1.427 . S
C1102 H1093 0.930 . S
C1102 C1100 1.378 . S
C1102 C1103 1.367 . S
C1103 C1102 1.367 . S
C1103 C1105 1.433 . S
C1104 C1100 1.350 . S
C1104 C1101 1.463 . S
C1104 N1108 1.427 . S
C1105 H1095 0.929 . S
C1105 C1103 1.433 . S
C1105 N1108 1.384 . S
C1106 H1097 0.929 . S
C1106 C1098 1.378 . S
C1106 C1101 1.350 . S
C1107 H1094 0.929 . S
C1107 C1099 1.433 . S
C1107 N1109 1.384 . S
N1108 C1104 1.427 . S
N1108 C1105 1.384 . S
N1109 C1101 1.427 . S
N1109 C1107 1.384 . S
H1110 C1116 0.930 . S
H1111 C1120 0.930 . S
H1112 C1125 0.929 . S
H1113 C1123 0.929 . S
H1114 C1118 0.929 . S
H1115 C1124 0.929 . S
C1116 H1110 0.930 . S
C1116 C1117 1.367 . S
C1116 C1124 1.378 . S
C1117 C1116 1.367 . S
C1117 C1125 1.433 . S
C1118 H1114 0.929 . S
C1118 C1120 1.378 . S
C1118 C1122 1.350 . S
C1119 C1122 1.463 . S
C1119 C1124 1.350 . S
C1119 N1127 1.427 . S
C1120 H1111 0.930 . S
C1120 C1118 1.378 . S
C1120 C1121 1.367 . S
C1121 C1120 1.367 . S
C1121 C1123 1.433 . S
C1122 C1118 1.350 . S
C1122 C1119 1.463 . S
C1122 N1126 1.427 . S
C1123 H1113 0.929 . S
C1123 C1121 1.433 . S
C1123 N1126 1.384 . S
C1124 H1115 0.929 . S
C1124 C1116 1.378 . S
C1124 C1119 1.350 . S
C1125 H1112 0.929 . S
C1125 C1117 1.433 . S
C1125 N1127 1.384 . S
N1126 C1122 1.427 . S
N1126 C1123 1.384 . S
N1127 C1119 1.427 . S
N1127 C1125 1.384 . S
H1128 C1134 0.930 . S
H1129 C1138 0.930 . S
H1130 C1143 0.929 . S
H1131 C1141 0.929 . S
H1132 C1136 0.929 . S
H1133 C1142 0.929 . S
C1134 H1128 0.930 . S
C1134 C1135 1.367 . S
C1134 C1142 1.378 . S
C1135 C1134 1.367 . S
C1135 C1143 1.433 . S
C1136 H1132 0.929 . S
C1136 C1138 1.378 . S
C1136 C1140 1.350 . S
C1137 C1140 1.463 . S
C1137 C1142 1.350 . S
C1137 N1145 1.427 . S
C1138 H1129 0.930 . S
C1138 C1136 1.378 . S
C1138 C1139 1.367 . S
C1139 C1138 1.367 . S
C1139 C1141 1.433 . S
C1140 C1136 1.350 . S
C1140 C1137 1.463 . S
C1140 N1144 1.427 . S
C1141 H1131 0.929 . S
C1141 C1139 1.433 . S
C1141 N1144 1.384 . S
C1142 H1133 0.929 . S
C1142 C1134 1.378 . S
C1142 C1137 1.350 . S
C1143 H1130 0.929 . S
C1143 C1135 1.433 . S
C1143 N1145 1.384 . S
N1144 C1140 1.427 . S
N1144 C1141 1.384 . S
N1145 C1137 1.427 . S
N1145 C1143 1.384 . S
H1146 C1152 0.930 . S
H1147 C1156 0.930 . S
H1148 C1161 0.929 . S
H1149 C1159 0.929 . S
H1150 C1154 0.929 . S
H1151 C1160 0.929 . S
C1152 H1146 0.930 . S
C1152 C1153 1.367 . S
C1152 C1160 1.378 . S
C1153 C1152 1.367 . S
C1153 C1161 1.433 . S
C1154 H1150 0.929 . S
C1154 C1156 1.378 . S
C1154 C1158 1.350 . S
C1155 C1158 1.463 . S
C1155 C1160 1.350 . S
C1155 N1163 1.427 . S
C1156 H1147 0.930 . S
C1156 C1154 1.378 . S
C1156 C1157 1.367 . S
C1157 C1156 1.367 . S
C1157 C1159 1.433 . S
C1158 C1154 1.350 . S
C1158 C1155 1.463 . S
C1158 N1162 1.427 . S
C1159 H1149 0.929 . S
C1159 C1157 1.433 . S
C1159 N1162 1.384 . S
C1160 H1151 0.929 . S
C1160 C1152 1.378 . S
C1160 C1155 1.350 . S
C1161 H1148 0.929 . S
C1161 C1153 1.433 . S
C1161 N1163 1.384 . S
N1162 C1158 1.427 . S
N1162 C1159 1.384 . S
N1163 C1155 1.427 . S
N1163 C1161 1.384 . S
H1164 C1170 0.930 . S
H1165 C1174 0.930 . S
H1166 C1179 0.929 . S
H1167 C1177 0.929 . S
H1168 C1172 0.929 . S
H1169 C1178 0.929 . S
C1170 H1164 0.930 . S
C1170 C1171 1.367 . S
C1170 C1178 1.378 . S
C1171 C1170 1.367 . S
C1171 C1179 1.433 . S
C1172 H1168 0.929 . S
C1172 C1174 1.378 . S
C1172 C1176 1.350 . S
C1173 C1176 1.463 . S
C1173 C1178 1.350 . S
C1173 N1181 1.427 . S
C1174 H1165 0.930 . S
C1174 C1172 1.378 . S
C1174 C1175 1.367 . S
C1175 C1174 1.367 . S
C1175 C1177 1.433 . S
C1176 C1172 1.350 . S
C1176 C1173 1.463 . S
C1176 N1180 1.427 . S
C1177 H1167 0.929 . S
C1177 C1175 1.433 . S
C1177 N1180 1.384 . S
C1178 H1169 0.929 . S
C1178 C1170 1.378 . S
C1178 C1173 1.350 . S
C1179 H1166 0.929 . S
C1179 C1171 1.433 . S
C1179 N1181 1.384 . S
N1180 C1176 1.427 . S
N1180 C1177 1.384 . S
N1181 C1173 1.427 . S
N1181 C1179 1.384 . S
H1182 C1188 0.930 . S
H1183 C1192 0.930 . S
H1184 C1197 0.929 . S
H1185 C1195 0.929 . S
H1186 C1190 0.929 . S
H1187 C1196 0.929 . S
C1188 H1182 0.930 . S
C1188 C1189 1.367 . S
C1188 C1196 1.378 . S
C1189 C1188 1.367 . S
C1189 C1197 1.433 . S
C1190 H1186 0.929 . S
C1190 C1192 1.378 . S
C1190 C1194 1.350 . S
C1191 C1194 1.463 . S
C1191 C1196 1.350 . S
C1191 N1199 1.427 . S
C1192 H1183 0.930 . S
C1192 C1190 1.378 . S
C1192 C1193 1.367 . S
C1193 C1192 1.367 . S
C1193 C1195 1.433 . S
C1194 C1190 1.350 . S
C1194 C1191 1.463 . S
C1194 N1198 1.427 . S
C1195 H1185 0.929 . S
C1195 C1193 1.433 . S
C1195 N1198 1.384 . S
C1196 H1187 0.929 . S
C1196 C1188 1.378 . S
C1196 C1191 1.350 . S
C1197 H1184 0.929 . S
C1197 C1189 1.433 . S
C1197 N1199 1.384 . S
N1198 C1194 1.427 . S
N1198 C1195 1.384 . S
N1199 C1191 1.427 . S
N1199 C1197 1.384 . S
H1200 C1206 0.930 . S
H1201 C1210 0.930 . S
H1202 C1215 0.929 . S
H1203 C1213 0.929 . S
H1204 C1208 0.929 . S
H1205 C1214 0.929 . S
C1206 H1200 0.930 . S
C1206 C1207 1.367 . S
C1206 C1214 1.378 . S
C1207 C1206 1.367 . S
C1207 C1215 1.433 . S
C1208 H1204 0.929 . S
C1208 C1210 1.378 . S
C1208 C1212 1.350 . S
C1209 C1212 1.463 . S
C1209 C1214 1.350 . S
C1209 N1217 1.427 . S
C1210 H1201 0.930 . S
C1210 C1208 1.378 . S
C1210 C1211 1.367 . S
C1211 C1210 1.367 . S
C1211 C1213 1.433 . S
C1212 C1208 1.350 . S
C1212 C1209 1.463 . S
C1212 N1216 1.427 . S
C1213 H1203 0.929 . S
C1213 C1211 1.433 . S
C1213 N1216 1.384 . S
C1214 H1205 0.929 . S
C1214 C1206 1.378 . S
C1214 C1209 1.350 . S
C1215 H1202 0.929 . S
C1215 C1207 1.433 . S
C1215 N1217 1.384 . S
N1216 C1212 1.427 . S
N1216 C1213 1.384 . S
N1217 C1209 1.427 . S
N1217 C1215 1.384 . S
H1218 C1224 0.930 . S
H1219 C1228 0.930 . S
H1220 C1233 0.929 . S
H1221 C1231 0.929 . S
H1222 C1226 0.929 . S
H1223 C1232 0.929 . S
C1224 H1218 0.930 . S
C1224 C1225 1.367 . S
C1224 C1232 1.378 . S
C1225 C1224 1.367 . S
C1225 C1233 1.433 . S
C1226 H1222 0.929 . S
C1226 C1228 1.378 . S
C1226 C1230 1.350 . S
C1227 C1230 1.463 . S
C1227 C1232 1.350 . S
C1227 N1235 1.427 . S
C1228 H1219 0.930 . S
C1228 C1226 1.378 . S
C1228 C1229 1.367 . S
C1229 C1228 1.367 . S
C1229 C1231 1.433 . S
C1230 C1226 1.350 . S
C1230 C1227 1.463 . S
C1230 N1234 1.427 . S
C1231 H1221 0.929 . S
C1231 C1229 1.433 . S
C1231 N1234 1.384 . S
C1232 H1223 0.929 . S
C1232 C1224 1.378 . S
C1232 C1227 1.350 . S
C1233 H1220 0.929 . S
C1233 C1225 1.433 . S
C1233 N1235 1.384 . S
N1234 C1230 1.427 . S
N1234 C1231 1.384 . S
N1235 C1227 1.427 . S
N1235 C1233 1.384 . S
H1236 C1242 0.930 . S
H1237 C1246 0.930 . S
H1238 C1251 0.929 . S
H1239 C1249 0.929 . S
H1240 C1244 0.929 . S
H1241 C1250 0.929 . S
C1242 H1236 0.930 . S
C1242 C1243 1.367 . S
C1242 C1250 1.378 . S
C1243 C1242 1.367 . S
C1243 C1251 1.433 . S
C1244 H1240 0.929 . S
C1244 C1246 1.378 . S
C1244 C1248 1.350 . S
C1245 C1248 1.463 . S
C1245 C1250 1.350 . S
C1245 N1253 1.427 . S
C1246 H1237 0.930 . S
C1246 C1244 1.378 . S
C1246 C1247 1.367 . S
C1247 C1246 1.367 . S
C1247 C1249 1.433 . S
C1248 C1244 1.350 . S
C1248 C1245 1.463 . S
C1248 N1252 1.427 . S
C1249 H1239 0.929 . S
C1249 C1247 1.433 . S
C1249 N1252 1.384 . S
C1250 H1241 0.929 . S
C1250 C1242 1.378 . S
C1250 C1245 1.350 . S
C1251 H1238 0.929 . S
C1251 C1243 1.433 . S
C1251 N1253 1.384 . S
N1252 C1248 1.427 . S
N1252 C1249 1.384 . S
N1253 C1245 1.427 . S
N1253 C1251 1.384 . S
H1254 C1260 0.930 . S
H1255 C1264 0.930 . S
H1256 C1269 0.929 . S
H1257 C1267 0.929 . S
H1258 C1262 0.929 . S
H1259 C1268 0.929 . S
C1260 H1254 0.930 . S
C1260 C1261 1.367 . S
C1260 C1268 1.378 . S
C1261 C1260 1.367 . S
C1261 C1269 1.433 . S
C1262 H1258 0.929 . S
C1262 C1264 1.378 . S
C1262 C1266 1.350 . S
C1263 C1266 1.463 . S
C1263 C1268 1.350 . S
C1263 N1271 1.427 . S
C1264 H1255 0.930 . S
C1264 C1262 1.378 . S
C1264 C1265 1.367 . S
C1265 C1264 1.367 . S
C1265 C1267 1.433 . S
C1266 C1262 1.350 . S
C1266 C1263 1.463 . S
C1266 N1270 1.427 . S
C1267 H1257 0.929 . S
C1267 C1265 1.433 . S
C1267 N1270 1.384 . S
C1268 H1259 0.929 . S
C1268 C1260 1.378 . S
C1268 C1263 1.350 . S
C1269 H1256 0.929 . S
C1269 C1261 1.433 . S
C1269 N1271 1.384 . S
N1270 C1266 1.427 . S
N1270 C1267 1.384 . S
N1271 C1263 1.427 . S
N1271 C1269 1.384 . S
H1272 C1278 0.930 . S
H1273 C1282 0.930 . S
H1274 C1287 0.929 . S
H1275 C1285 0.929 . S
H1276 C1280 0.929 . S
H1277 C1286 0.929 . S
C1278 H1272 0.930 . S
C1278 C1279 1.367 . S
C1278 C1286 1.378 . S
C1279 C1278 1.367 . S
C1279 C1287 1.433 . S
C1280 H1276 0.929 . S
C1280 C1282 1.378 . S
C1280 C1284 1.350 . S
C1281 C1284 1.463 . S
C1281 C1286 1.350 . S
C1281 N1289 1.427 . S
C1282 H1273 0.930 . S
C1282 C1280 1.378 . S
C1282 C1283 1.367 . S
C1283 C1282 1.367 . S
C1283 C1285 1.433 . S
C1284 C1280 1.350 . S
C1284 C1281 1.463 . S
C1284 N1288 1.427 . S
C1285 H1275 0.929 . S
C1285 C1283 1.433 . S
C1285 N1288 1.384 . S
C1286 H1277 0.929 . S
C1286 C1278 1.378 . S
C1286 C1281 1.350 . S
C1287 H1274 0.929 . S
C1287 C1279 1.433 . S
C1287 N1289 1.384 . S
N1288 C1284 1.427 . S
N1288 C1285 1.384 . S
N1289 C1281 1.427 . S
N1289 C1287 1.384 . S
H1290 C1296 0.930 . S
H1291 C1300 0.930 . S
H1292 C1305 0.929 . S
H1293 C1303 0.929 . S
H1294 C1298 0.929 . S
H1295 C1304 0.929 . S
C1296 H1290 0.930 . S
C1296 C1297 1.367 . S
C1296 C1304 1.378 . S
C1297 C1296 1.367 . S
C1297 C1305 1.433 . S
C1298 H1294 0.929 . S
C1298 C1300 1.378 . S
C1298 C1302 1.350 . S
C1299 C1302 1.463 . S
C1299 C1304 1.350 . S
C1299 N1307 1.427 . S
C1300 H1291 0.930 . S
C1300 C1298 1.378 . S
C1300 C1301 1.367 . S
C1301 C1300 1.367 . S
C1301 C1303 1.433 . S
C1302 C1298 1.350 . S
C1302 C1299 1.463 . S
C1302 N1306 1.427 . S
C1303 H1293 0.929 . S
C1303 C1301 1.433 . S
C1303 N1306 1.384 . S
C1304 H1295 0.929 . S
C1304 C1296 1.378 . S
C1304 C1299 1.350 . S
C1305 H1292 0.929 . S
C1305 C1297 1.433 . S
C1305 N1307 1.384 . S
N1306 C1302 1.427 . S
N1306 C1303 1.384 . S
N1307 C1299 1.427 . S
N1307 C1305 1.384 . S
H1308 C1314 0.930 . S
H1309 C1318 0.930 . S
H1310 C1323 0.929 . S
H1311 C1321 0.929 . S
H1312 C1316 0.929 . S
H1313 C1322 0.929 . S
C1314 H1308 0.930 . S
C1314 C1315 1.367 . S
C1314 C1322 1.378 . S
C1315 C1314 1.367 . S
C1315 C1323 1.433 . S
C1316 H1312 0.929 . S
C1316 C1318 1.378 . S
C1316 C1320 1.350 . S
C1317 C1320 1.463 . S
C1317 C1322 1.350 . S
C1317 N1325 1.427 . S
C1318 H1309 0.930 . S
C1318 C1316 1.378 . S
C1318 C1319 1.367 . S
C1319 C1318 1.367 . S
C1319 C1321 1.433 . S
C1320 C1316 1.350 . S
C1320 C1317 1.463 . S
C1320 N1324 1.427 . S
C1321 H1311 0.929 . S
C1321 C1319 1.433 . S
C1321 N1324 1.384 . S
C1322 H1313 0.929 . S
C1322 C1314 1.378 . S
C1322 C1317 1.350 . S
C1323 H1310 0.929 . S
C1323 C1315 1.433 . S
C1323 N1325 1.384 . S
N1324 C1320 1.427 . S
N1324 C1321 1.384 . S
N1325 C1317 1.427 . S
N1325 C1323 1.384 . S
H1326 C1332 0.930 . S
H1327 C1336 0.930 . S
H1328 C1341 0.929 . S
H1329 C1339 0.929 . S
H1330 C1334 0.929 . S
H1331 C1340 0.929 . S
C1332 H1326 0.930 . S
C1332 C1333 1.367 . S
C1332 C1340 1.378 . S
C1333 C1332 1.367 . S
C1333 C1341 1.433 . S
C1334 H1330 0.929 . S
C1334 C1336 1.378 . S
C1334 C1338 1.350 . S
C1335 C1338 1.463 . S
C1335 C1340 1.350 . S
C1335 N1343 1.427 . S
C1336 H1327 0.930 . S
C1336 C1334 1.378 . S
C1336 C1337 1.367 . S
C1337 C1336 1.367 . S
C1337 C1339 1.433 . S
C1338 C1334 1.350 . S
C1338 C1335 1.463 . S
C1338 N1342 1.427 . S
C1339 H1329 0.929 . S
C1339 C1337 1.433 . S
C1339 N1342 1.384 . S
C1340 H1331 0.929 . S
C1340 C1332 1.378 . S
C1340 C1335 1.350 . S
C1341 H1328 0.929 . S
C1341 C1333 1.433 . S
C1341 N1343 1.384 . S
N1342 C1338 1.427 . S
N1342 C1339 1.384 . S
N1343 C1335 1.427 . S
N1343 C1341 1.384 . S
C487 C106 1.639 . S
C491 N14 1.526 . S
C505 C16 2.281 . S
C509 C46 2.292 . S
C523 C70 1.142 . S
C527 C31 1.143 . S
C541 N104 0.777 . S
C545 C87 0.772 . S
C559 C147 0.850 . S
C563 N164 0.837 . S
C577 C151 1.149 . S
C581 C190 1.150 . S
C595 N186 0.771 . S
C599 C220 0.759 . S
C613 N126 0.359 . S
C617 N216 0.458 . S
C631 C286 2.135 . S
C635 C1 2.133 . S
C649 C327 1.593 . S
C653 N44 1.503 . S
C667 N66 0.849 . S
C671 C417 0.870 . S
C685 C250 1.166 . S
C689 C91 1.164 . S
C703 C331 1.163 . S
C707 C130 1.170 . S
C721 C421 2.134 . S
C725 C166 2.134 . S
C739 C207 1.587 . S
C743 N374 1.489 . S
C757 N456 0.863 . S
C761 C237 0.848 . S
C775 N246 0.374 . S
C779 N396 0.453 . S
C793 N284 0.821 . S
C797 C267 0.848 . S
C811 C310 1.146 . S
C815 C271 1.147 . S
C829 N434 1.518 . S
C833 C346 1.638 . S
C847 C361 1.138 . S
C851 C460 1.143 . S
C865 C357 1.638 . S
C869 N6 1.531 . S
C883 C387 2.293 . S
C887 C27 2.281 . S
C901 C370 1.139 . S
C905 C61 1.137 . S
C919 C76 0.757 . S
C923 N336 0.751 . S
C937 N276 0.821 . S
C941 C136 0.847 . S
C955 C280 1.150 . S
C959 C181 1.147 . S
C973 C391 0.774 . S
C977 N194 0.773 . S
C991 N134 0.355 . S
C995 N404 0.471 . S
C1009 C177 2.134 . S
C1013 C10 2.134 . S
C1027 C316 1.586 . S
C1031 N366 1.491 . S
C1045 N74 0.843 . S
C1049 C226 0.868 . S
C1063 C241 1.171 . S
C1067 C340 1.169 . S
C1081 C100 1.169 . S
C1085 C121 1.168 . S
C1099 C297 2.135 . S
C1103 C430 2.131 . S
C1117 C196 1.588 . S
C1121 N36 1.487 . S
C1135 N464 0.861 . S
C1139 C406 0.857 . S
C1153 N254 0.403 . S
C1157 N224 0.416 . S
C1171 C256 0.847 . S
C1175 N156 0.823 . S
C1189 C301 1.151 . S
C1193 C160 1.147 . S
C1207 C117 1.634 . S
C1211 N426 1.520 . S
C1225 C40 1.139 . S
C1229 C451 1.136 . S
C1243 C376 2.291 . S
C1247 C436 2.281 . S
C1261 N344 0.771 . S
C1265 C477 0.767 . S
C1279 N306 0.763 . S
C1283 C400 0.767 . S
C1297 C447 2.275 . S
C1301 C57 2.292 . S
C1315 N96 0.772 . S
C1319 C466 0.767 . S
C1333 C211 0.767 . S
C1337 N314 0.754 . S
