# Generated by pormake.
# Topology vbj, (5)-cn, num edge types: 1
# Building blocks:
#     Node 0, Type 0, BuildingBlock: XOMCOT_clean_sbu_1, # of connection points: 5
#     Node 1, Type 0, BuildingBlock: XOMCOT_clean_sbu_1, # of connection points: 5
#     Node 2, Type 0, BuildingBlock: XOMCOT_clean_sbu_1, # of connection points: 5
#     Node 3, Type 0, BuildingBlock: XOMCOT_clean_sbu_1, # of connection points: 5
#     Node 4, Type 0, BuildingBlock: XOMCOT_clean_sbu_1, # of connection points: 5
#     Node 5, Type 0, BuildingBlock: XOMCOT_clean_sbu_1, # of connection points: 5
#     Node 6, Type 0, BuildingBlock: XOMCOT_clean_sbu_1, # of connection points: 5
#     Node 7, Type 0, BuildingBlock: XOMCOT_clean_sbu_1, # of connection points: 5
#     Node 8, Type 0, BuildingBlock: XOMCOT_clean_sbu_1, # of connection points: 5
#     Node 9, Type 0, BuildingBlock: XOMCOT_clean_sbu_1, # of connection points: 5
#     Node 10, Type 0, BuildingBlock: XOMCOT_clean_sbu_1, # of connection points: 5
#     Node 11, Type 0, BuildingBlock: XOMCOT_clean_sbu_1, # of connection points: 5
#     Node 12, Type 0, BuildingBlock: XOMCOT_clean_sbu_1, # of connection points: 5
#     Node 13, Type 0, BuildingBlock: XOMCOT_clean_sbu_1, # of connection points: 5
#     Node 14, Type 0, BuildingBlock: XOMCOT_clean_sbu_1, # of connection points: 5
#     Node 15, Type 0, BuildingBlock: XOMCOT_clean_sbu_1, # of connection points: 5
#     Edge 16, Type (0, 0), BuildingBlock: ZUJKAS_clean_linker_0, # of connection points: 2
#     Edge 17, Type (0, 0), BuildingBlock: ZUJKAS_clean_linker_0, # of connection points: 2
#     Edge 18, Type (0, 0), BuildingBlock: ZUJKAS_clean_linker_0, # of connection points: 2
#     Edge 19, Type (0, 0), BuildingBlock: ZUJKAS_clean_linker_0, # of connection points: 2
#     Edge 20, Type (0, 0), BuildingBlock: ZUJKAS_clean_linker_0, # of connection points: 2
#     Edge 21, Type (0, 0), BuildingBlock: ZUJKAS_clean_linker_0, # of connection points: 2
#     Edge 22, Type (0, 0), BuildingBlock: ZUJKAS_clean_linker_0, # of connection points: 2
#     Edge 23, Type (0, 0), BuildingBlock: ZUJKAS_clean_linker_0, # of connection points: 2
#     Edge 24, Type (0, 0), BuildingBlock: ZUJKAS_clean_linker_0, # of connection points: 2
#     Edge 25, Type (0, 0), BuildingBlock: ZUJKAS_clean_linker_0, # of connection points: 2
#     Edge 26, Type (0, 0), BuildingBlock: ZUJKAS_clean_linker_0, # of connection points: 2
#     Edge 27, Type (0, 0), BuildingBlock: ZUJKAS_clean_linker_0, # of connection points: 2
#     Edge 28, Type (0, 0), BuildingBlock: ZUJKAS_clean_linker_0, # of connection points: 2
#     Edge 29, Type (0, 0), BuildingBlock: ZUJKAS_clean_linker_0, # of connection points: 2
#     Edge 30, Type (0, 0), BuildingBlock: ZUJKAS_clean_linker_0, # of connection points: 2
#     Edge 31, Type (0, 0), BuildingBlock: ZUJKAS_clean_linker_0, # of connection points: 2
#     Edge 32, Type (0, 0), BuildingBlock: ZUJKAS_clean_linker_0, # of connection points: 2
#     Edge 33, Type (0, 0), BuildingBlock: ZUJKAS_clean_linker_0, # of connection points: 2
#     Edge 34, Type (0, 0), BuildingBlock: ZUJKAS_clean_linker_0, # of connection points: 2
#     Edge 35, Type (0, 0), BuildingBlock: ZUJKAS_clean_linker_0, # of connection points: 2
#     Edge 36, Type (0, 0), BuildingBlock: ZUJKAS_clean_linker_0, # of connection points: 2
#     Edge 37, Type (0, 0), BuildingBlock: ZUJKAS_clean_linker_0, # of connection points: 2
#     Edge 38, Type (0, 0), BuildingBlock: ZUJKAS_clean_linker_0, # of connection points: 2
#     Edge 39, Type (0, 0), BuildingBlock: ZUJKAS_clean_linker_0, # of connection points: 2
#     Edge 40, Type (0, 0), BuildingBlock: ZUJKAS_clean_linker_0, # of connection points: 2
#     Edge 41, Type (0, 0), BuildingBlock: ZUJKAS_clean_linker_0, # of connection points: 2
#     Edge 42, Type (0, 0), BuildingBlock: ZUJKAS_clean_linker_0, # of connection points: 2
#     Edge 43, Type (0, 0), BuildingBlock: ZUJKAS_clean_linker_0, # of connection points: 2
#     Edge 44, Type (0, 0), BuildingBlock: ZUJKAS_clean_linker_0, # of connection points: 2
#     Edge 45, Type (0, 0), BuildingBlock: ZUJKAS_clean_linker_0, # of connection points: 2
#     Edge 46, Type (0, 0), BuildingBlock: ZUJKAS_clean_linker_0, # of connection points: 2
#     Edge 47, Type (0, 0), BuildingBlock: ZUJKAS_clean_linker_0, # of connection points: 2
#     Edge 48, Type (0, 0), BuildingBlock: ZUJKAS_clean_linker_0, # of connection points: 2
#     Edge 49, Type (0, 0), BuildingBlock: ZUJKAS_clean_linker_0, # of connection points: 2
#     Edge 50, Type (0, 0), BuildingBlock: ZUJKAS_clean_linker_0, # of connection points: 2
#     Edge 51, Type (0, 0), BuildingBlock: ZUJKAS_clean_linker_0, # of connection points: 2
#     Edge 52, Type (0, 0), BuildingBlock: ZUJKAS_clean_linker_0, # of connection points: 2
#     Edge 53, Type (0, 0), BuildingBlock: ZUJKAS_clean_linker_0, # of connection points: 2
#     Edge 54, Type (0, 0), BuildingBlock: ZUJKAS_clean_linker_0, # of connection points: 2
#     Edge 55, Type (0, 0), BuildingBlock: ZUJKAS_clean_linker_0, # of connection points: 2
# Relax obj value: 0.102
# Max RMSD: 0.146
# Mean RMSD: 0.146
data_MOF--net-vbj--node1-XOMCOT_clean_sbu_1--edge1-ZUJKAS_clean_linker_0
_symmetry_space_group_name_H-M    P1
_symmetry_Int_Tables_number       1
_symmetry_cell_setting            triclinic
loop_
_symmetry_equiv_pos_as_xyz
'x, y, z'
_cell_length_a     33.627431
_cell_length_b     80.661807
_cell_length_c     61.265327
_cell_angle_alpha  90.012971
_cell_angle_beta   90.085949
_cell_angle_gamma 89.93841
loop_
_atom_site_label
_atom_site_type_symbol
_atom_site_fract_x
_atom_site_fract_y
_atom_site_fract_z
_atom_type_partial_charge
C0 C 0.06217 0.16584 0.07424 0.0
C1 C 0.0549 0.18253 0.07243 0.0
N2 N 0.05742 0.18939 0.09244 0.0
N3 N 0.06941 0.16206 0.0953 0.0
C4 C 0.06627 0.17667 0.10606 0.0
H5 H 0.06131 0.1569 0.06109 0.0
Co6 Co 0.07861 0.14038 0.10514 0.0
C7 C 0.08247 0.14569 0.15228 0.0
O8 O 0.11911 0.14003 0.15186 0.0
N9 N 0.08784 0.11856 0.11478 0.0
C10 C 0.08177 0.09447 0.13201 0.0
C11 C 0.06518 0.10987 0.12884 0.0
C12 C 0.11783 0.1081 0.10945 0.0
N13 N 0.11501 0.09329 0.11979 0.0
O14 O 0.13301 0.1458 0.1104 0.0
H15 H 0.03835 0.11449 0.13644 0.0
H16 H 0.14105 0.11126 0.09801 0.0
O17 O 0.06256 0.14664 0.13456 0.0
C18 C 0.15076 0.14577 0.09208 0.0
O19 O 0.13051 0.14202 0.07442 0.0
N20 N 0.02674 0.13497 0.09746 0.0
C21 C 0.95955 0.13438 0.07095 0.0
C22 C 0.96006 0.14389 0.09019 0.0
C23 C 0.99414 0.144 0.10336 0.0
C24 C 0.02546 0.12457 0.07998 0.0
C25 C 0.99204 0.12398 0.06658 0.0
H26 H -0.00421 0.15262 0.11683 0.0
H27 H 0.05203 0.11799 0.07507 0.0
H28 H 0.07018 0.17796 0.12351 0.0
H29 H 0.04707 0.189 0.05756 0.0
H30 H 0.07037 0.08503 0.14284 0.0
H31 H 0.93545 0.152 0.09424 0.0
H32 H 0.99332 0.11663 0.0518 0.0
C33 C 0.38375 0.87441 0.07782 0.0
C34 C 0.39082 0.85766 0.07707 0.0
N35 N 0.4131 0.85342 0.09451 0.0
N36 N 0.40115 0.88086 0.09571 0.0
C37 C 0.41863 0.86773 0.10571 0.0
H38 H 0.36781 0.88154 0.06569 0.0
Co39 Co 0.40208 0.90369 0.10108 0.0
C40 C 0.44198 0.90784 0.14358 0.0
O41 O 0.46203 0.92019 0.13509 0.0
N42 N 0.40207 0.9275 0.10595 0.0
C43 C 0.41623 0.95457 0.10423 0.0
C44 C 0.43005 0.93882 0.10034 0.0
C45 C 0.37165 0.93703 0.11354 0.0
N46 N 0.37921 0.95347 0.11228 0.0
O47 O 0.34678 0.9026 0.10814 0.0
H48 H 0.45895 0.93608 0.09363 0.0
H49 H 0.34385 0.93212 0.11952 0.0
O50 O 0.41736 0.89976 0.13171 0.0
C51 C 0.32839 0.90756 0.09112 0.0
O52 O 0.34917 0.91331 0.07464 0.0
N53 N 0.45431 0.90399 0.0909 0.0
C54 C 0.52141 0.90005 0.06486 0.0
C55 C 0.52122 0.89415 0.08641 0.0
C56 C 0.48708 0.8962 0.09926 0.0
C57 C 0.45403 0.90944 0.06987 0.0
C58 C 0.48745 0.90796 0.05675 0.0
H59 H 0.4864 0.89065 0.11528 0.0
H60 H 0.42707 0.91462 0.06306 0.0
H61 H 0.43652 0.86876 0.12033 0.0
H62 H 0.38065 0.84931 0.06443 0.0
H63 H 0.43163 0.96598 0.1004 0.0
H64 H 0.54671 0.88763 0.09302 0.0
H65 H 0.48599 0.91223 0.04 0.0
C66 C 0.56915 0.87534 0.43893 0.0
C67 C 0.55931 0.85887 0.4398 0.0
N68 N 0.5517 0.85357 0.41937 0.0
N69 N 0.56798 0.88057 0.41804 0.0
C70 C 0.55758 0.86694 0.40638 0.0
H71 H 0.57506 0.88324 0.45282 0.0
Co72 Co 0.57397 0.90308 0.41094 0.0
C73 C 0.52596 0.90533 0.36996 0.0
O74 O 0.50243 0.91623 0.37918 0.0
N75 N 0.58091 0.9263 0.40431 0.0
C76 C 0.5706 0.9534 0.39878 0.0
C77 C 0.55294 0.93837 0.40279 0.0
C78 C 0.61563 0.9347 0.40165 0.0
N79 N 0.61007 0.95109 0.39818 0.0
O80 O 0.62742 0.8986 0.40205 0.0
H81 H 0.52149 0.93677 0.4055 0.0
H82 H 0.64474 0.92911 0.40245 0.0
O83 O 0.5546 0.89895 0.38091 0.0
C84 C 0.64756 0.89876 0.41969 0.0
O85 O 0.6298 0.90306 0.43791 0.0
N86 N 0.52334 0.90684 0.42265 0.0
C87 C 0.46149 0.90537 0.45278 0.0
C88 C 0.45939 0.89638 0.43319 0.0
C89 C 0.49082 0.89721 0.41833 0.0
C90 C 0.52514 0.91601 0.44131 0.0
C91 C 0.49422 0.91572 0.45638 0.0
H92 H 0.49053 0.88902 0.40437 0.0
H93 H 0.55214 0.92262 0.44536 0.0
H94 H 0.55222 0.86702 0.38897 0.0
H95 H 0.5571 0.85145 0.45446 0.0
H96 H 0.55572 0.96527 0.39748 0.0
H97 H 0.43473 0.88811 0.42997 0.0
H98 H 0.4975 0.92251 0.47154 0.0
C99 C 0.91558 0.16506 0.44091 0.0
C100 C 0.92378 0.18168 0.44186 0.0
N101 N 0.93251 0.18703 0.42159 0.0
N102 N 0.91863 0.15978 0.42013 0.0
C103 C 0.92879 0.17349 0.40861 0.0
H104 H 0.90917 0.15717 0.45472 0.0
Co105 Co 0.91377 0.13722 0.41304 0.0
C106 C 0.95919 0.13516 0.37134 0.0
O107 O 0.98354 0.12431 0.38002 0.0
N108 N 0.90796 0.11393 0.40643 0.0
C109 C 0.91953 0.08691 0.40095 0.0
C110 C 0.93648 0.10207 0.40508 0.0
C111 C 0.87366 0.10527 0.40352 0.0
N112 N 0.87998 0.08893 0.4001 0.0
O113 O 0.85992 0.14118 0.40458 0.0
H114 H 0.96787 0.10396 0.40779 0.0
H115 H 0.8443 0.11065 0.40403 0.0
O116 O 0.93144 0.14153 0.3829 0.0
C117 C 0.83989 0.14058 0.4222 0.0
O118 O 0.85789 0.13613 0.44031 0.0
N119 N 0.96502 0.134 0.4242 0.0
C120 C 0.02858 0.13579 0.45336 0.0
C121 C 0.02945 0.14464 0.43364 0.0
C122 C -0.00285 0.14366 0.41927 0.0
C123 C 0.96428 0.12504 0.44305 0.0
C124 C -0.00399 0.12549 0.45763 0.0
H125 H -0.0034 0.15169 0.40517 0.0
H126 H 0.93759 0.1184 0.44755 0.0
H127 H 0.93521 0.1734 0.39131 0.0
H128 H 0.92382 0.18917 0.45651 0.0
H129 H 0.93495 0.07516 0.39967 0.0
H130 H 0.05392 0.15288 0.42988 0.0
H131 H 0.9936 0.11882 0.47292 0.0
C132 C 0.91626 0.87801 0.93918 0.0
C133 C 0.9258 0.86166 0.94259 0.0
N134 N 0.93094 0.85427 0.92305 0.0
N135 N 0.91512 0.88103 0.91758 0.0
C136 C 0.92396 0.86631 0.90811 0.0
H137 H 0.91139 0.88725 0.95168 0.0
Co138 Co 0.90661 0.90217 0.90609 0.0
C139 C 0.89962 0.8958 0.85953 0.0
O140 O 0.864 0.90247 0.86057 0.0
N141 N 0.89808 0.92371 0.89484 0.0
C142 C 0.90632 0.94732 0.87661 0.0
C143 C 0.92148 0.93173 0.88041 0.0
C144 C 0.86907 0.93477 0.89966 0.0
N145 N 0.87325 0.94923 0.88874 0.0
O146 O 0.85193 0.89668 0.90221 0.0
H147 H 0.94805 0.92657 0.87314 0.0
H148 H 0.84571 0.93249 0.91132 0.0
O149 O 0.92052 0.89454 0.87688 0.0
C150 C 0.83377 0.90009 0.91985 0.0
O151 O 0.85356 0.90704 0.93592 0.0
N152 N 0.95903 0.90745 0.91251 0.0
C153 C 0.0276 0.90856 0.93779 0.0
C154 C 0.02566 0.89828 0.91929 0.0
C155 C 0.99091 0.89796 0.90668 0.0
C156 C 0.96169 0.91851 0.92922 0.0
C157 C -0.00411 0.91939 0.94196 0.0
H158 H 0.98823 0.88889 0.89377 0.0
H159 H 0.93567 0.92548 0.93409 0.0
H160 H 0.92676 0.8646 0.89067 0.0
H161 H 0.92888 0.85574 0.95835 0.0
H162 H 0.91856 0.95645 0.86556 0.0
H163 H 0.04965 0.88979 0.91548 0.0
H164 H -0.00418 0.92734 0.95621 0.0
C165 C 0.59278 0.16755 0.93964 0.0
C166 C 0.58684 0.18439 0.94039 0.0
N167 N 0.57516 0.18957 0.92047 0.0
N168 N 0.5851 0.16201 0.91933 0.0
C169 C 0.57448 0.17573 0.90795 0.0
H170 H 0.60091 0.15973 0.95327 0.0
Co171 Co 0.58687 0.13949 0.91175 0.0
C172 C 0.53236 0.14054 0.8728 0.0
O173 O 0.50503 0.13196 0.883 0.0
N174 N 0.58938 0.11631 0.90414 0.0
C175 C 0.57322 0.08986 0.89788 0.0
C176 C 0.55886 0.10554 0.9016 0.0
C177 C 0.6221 0.10658 0.90168 0.0
N178 N 0.61317 0.09045 0.89808 0.0
O179 O 0.63975 0.14281 0.90122 0.0
H180 H 0.5278 0.10848 0.90356 0.0
H181 H 0.65216 0.11098 0.90326 0.0
O182 O 0.56482 0.14433 0.88253 0.0
C183 C 0.66092 0.14052 0.91826 0.0
O184 O 0.64352 0.1353 0.93617 0.0
N185 N 0.53752 0.13667 0.92553 0.0
C186 C 0.47875 0.13643 0.95765 0.0
C187 C 0.47564 0.14706 0.93957 0.0
C188 C 0.50579 0.14721 0.92384 0.0
C189 C 0.54058 0.12619 0.94292 0.0
C190 C 0.51125 0.12562 0.95886 0.0
H191 H 0.50479 0.15645 0.91109 0.0
H192 H 0.56717 0.11882 0.94512 0.0
H193 H 0.56562 0.17554 0.89098 0.0
H194 H 0.58925 0.1921 0.9548 0.0
H195 H 0.55537 0.07883 0.89568 0.0
H196 H 0.45151 0.15591 0.93831 0.0
H197 H 0.51489 0.11723 0.97253 0.0
C198 C 0.39193 0.16555 0.58046 0.0
C199 C 0.39843 0.18236 0.58033 0.0
N200 N 0.41945 0.1864 0.5983 0.0
N201 N 0.40847 0.15891 0.59849 0.0
C202 C 0.42517 0.17193 0.60906 0.0
H203 H 0.37671 0.15854 0.56796 0.0
Co204 Co 0.40748 0.13618 0.60445 0.0
C205 C 0.45939 0.13299 0.64346 0.0
O206 O 0.48027 0.12152 0.63352 0.0
N207 N 0.4056 0.11255 0.61027 0.0
C208 C 0.419 0.08536 0.61071 0.0
C209 C 0.43362 0.10087 0.60614 0.0
C210 C 0.37427 0.1035 0.61768 0.0
N211 N 0.38143 0.08699 0.61778 0.0
O212 O 0.35507 0.13898 0.61576 0.0
H213 H 0.46298 0.1032 0.59973 0.0
H214 H 0.34624 0.10874 0.62275 0.0
O215 O 0.43048 0.14001 0.63349 0.0
C216 C 0.33197 0.13553 0.59988 0.0
O217 O 0.34736 0.12953 0.58183 0.0
N218 N 0.45626 0.13427 0.5902 0.0
C219 C 0.51488 0.13631 0.55818 0.0
C220 C 0.52078 0.14357 0.5788 0.0
C221 C 0.49066 0.14265 0.59456 0.0
C222 C 0.45042 0.12708 0.57034 0.0
C223 C 0.47952 0.12765 0.55431 0.0
H224 H 0.49402 0.14953 0.60958 0.0
H225 H 0.42214 0.12135 0.56665 0.0
H226 H 0.44148 0.17084 0.62423 0.0
H227 H 0.38948 0.19087 0.56757 0.0
H228 H 0.43432 0.07372 0.60805 0.0
H229 H 0.54732 0.1507 0.58226 0.0
H230 H 0.47376 0.12178 0.53872 0.0
C231 C 0.09941 0.87324 0.57704 0.0
C232 C 0.0925 0.85648 0.57606 0.0
N233 N 0.07151 0.85198 0.59383 0.0
N234 N 0.08316 0.87942 0.59539 0.0
C235 C 0.0665 0.86615 0.6054 0.0
H236 H 0.11459 0.88054 0.56484 0.0
Co237 Co 0.08311 0.90208 0.60182 0.0
C238 C 0.03142 0.90418 0.64102 0.0
O239 O 0.00943 0.91555 0.63157 0.0
N240 N 0.08385 0.92566 0.60805 0.0
C241 C 0.06866 0.95265 0.60885 0.0
C242 C 0.05478 0.93699 0.60453 0.0
C243 C 0.11503 0.93508 0.61489 0.0
N244 N 0.10691 0.95153 0.61512 0.0
O245 O 0.13547 0.89962 0.6133 0.0
H246 H 0.02515 0.9343 0.59872 0.0
H247 H 0.14388 0.93013 0.61894 0.0
O248 O 0.06057 0.89772 0.63071 0.0
C249 C 0.15881 0.90321 0.59765 0.0
O250 O 0.14368 0.90907 0.57943 0.0
N251 N 0.03414 0.90375 0.58754 0.0
C252 C 0.97486 0.90187 0.55572 0.0
C253 C 0.96963 0.8943 0.57619 0.0
C254 C 6e-05 0.89515 0.59183 0.0
C255 C 0.03936 0.91124 0.56782 0.0
C256 C 0.00994 0.91073 0.55189 0.0
H257 H -0.00286 0.88808 0.60671 0.0
H258 H 0.06737 0.9172 0.56418 0.0
H259 H 0.0496 0.86695 0.62037 0.0
H260 H 0.10201 0.84829 0.56308 0.0
H261 H 0.05176 0.96398 0.60707 0.0
H262 H 0.94335 0.88701 0.57961 0.0
H263 H 0.0152 0.91684 0.53642 0.0
C264 C 0.60498 0.67137 0.07694 0.0
C265 C 0.5987 0.68818 0.07775 0.0
N266 N 0.57945 0.69181 0.09643 0.0
N267 N 0.5901 0.66427 0.09507 0.0
C268 C 0.5746 0.67706 0.10666 0.0
H269 H 0.61831 0.66469 0.06352 0.0
Co270 Co 0.58915 0.64127 0.09939 0.0
C271 C 0.54197 0.63726 0.13986 0.0
O272 O 0.5195 0.62634 0.12987 0.0
N273 N 0.58887 0.61744 0.10349 0.0
C274 C 0.57322 0.59053 0.10235 0.0
C275 C 0.55987 0.60638 0.09869 0.0
C276 C 0.61939 0.60768 0.11041 0.0
N277 N 0.61104 0.59126 0.1095 0.0
O278 O 0.64349 0.64223 0.10869 0.0
H279 H 0.53046 0.6094 0.09282 0.0
H280 H 0.6478 0.61244 0.11558 0.0
O281 O 0.5703 0.64431 0.12949 0.0
C282 C 0.66305 0.63927 0.09128 0.0
O283 O 0.64349 0.63546 0.07341 0.0
N284 N 0.53845 0.64102 0.08693 0.0
C285 C 0.4761 0.64524 0.05741 0.0
C286 C 0.47309 0.6514 0.07882 0.0
C287 C 0.50512 0.64943 0.09331 0.0
C288 C 0.54147 0.63495 0.06626 0.0
C289 C 0.51053 0.63665 0.05141 0.0
H290 H 0.50394 0.65548 0.10901 0.0
H291 H 0.56883 0.62914 0.06103 0.0
H292 H 0.55927 0.67556 0.12204 0.0
H293 H 0.60615 0.69693 0.06502 0.0
H294 H 0.55613 0.57936 0.09973 0.0
H295 H 0.44725 0.65843 0.08389 0.0
H296 H 0.51404 0.63163 0.03512 0.0
C297 C 0.90157 0.3775 0.07746 0.0
C298 C 0.90971 0.36086 0.07603 0.0
N299 N 0.92649 0.35592 0.09492 0.0
N300 N 0.91303 0.38315 0.09717 0.0
C301 C 0.92777 0.36966 0.10761 0.0
H302 H 0.88937 0.38516 0.06462 0.0
Co303 Co 0.91155 0.40571 0.10406 0.0
C304 C 0.96142 0.4077 0.14398 0.0
O305 O 0.98441 0.41852 0.13423 0.0
N306 N 0.90908 0.42921 0.11068 0.0
C307 C 0.92287 0.45632 0.11289 0.0
C308 C 0.93797 0.44082 0.10862 0.0
C309 C 0.87667 0.4383 0.11654 0.0
N310 N 0.88411 0.45476 0.11768 0.0
O311 O 0.85834 0.4027 0.11395 0.0
H312 H 0.96824 0.43849 0.10363 0.0
H313 H 0.84769 0.43314 0.11973 0.0
O314 O 0.93203 0.40134 0.13366 0.0
C315 C 0.83617 0.40606 0.09764 0.0
O316 O 0.85245 0.41232 0.07999 0.0
N317 N 0.96178 0.40781 0.09117 0.0
C318 C 0.02349 0.40562 0.06095 0.0
C319 C 0.02574 0.3971 0.08088 0.0
C320 C 0.99434 0.39825 0.09577 0.0
C321 C 0.95926 0.41609 0.07182 0.0
C322 C 0.9901 0.41549 0.05673 0.0
H323 H 0.99513 0.39063 0.11025 0.0
H324 H 0.93215 0.42258 0.06764 0.0
H325 H 0.94122 0.37006 0.12366 0.0
H326 H 0.90437 0.35307 0.06194 0.0
H327 H 0.93884 0.46791 0.11149 0.0
H328 H 0.05083 0.38913 0.08455 0.0
H329 H 0.98665 0.42186 0.04127 0.0
C330 C 0.11443 0.37017 0.42916 0.0
C331 C 0.10861 0.35338 0.42726 0.0
N332 N 0.08046 0.35069 0.41199 0.0
N333 N 0.09035 0.37817 0.41507 0.0
C334 C 0.06984 0.36596 0.40485 0.0
H335 H 0.13426 0.37618 0.44058 0.0
Co336 Co 0.08648 0.40125 0.41332 0.0
C337 C 0.03751 0.40774 0.37404 0.0
O338 O 0.01763 0.4191 0.38483 0.0
N339 N 0.08325 0.42521 0.41188 0.0
C340 C 0.06758 0.45168 0.41852 0.0
C341 C 0.05601 0.43546 0.42102 0.0
C342 C 0.11057 0.43584 0.40341 0.0
N343 N 0.10232 0.45194 0.40768 0.0
O344 O 0.1397 0.40193 0.40224 0.0
H345 H 0.0292 0.43165 0.42926 0.0
H346 H 0.13715 0.4319 0.39503 0.0
O347 O 0.06494 0.39952 0.38367 0.0
C348 C 0.16125 0.40587 0.41858 0.0
O349 O 0.14381 0.40894 0.43733 0.0
N350 N 0.03722 0.39987 0.42717 0.0
C351 C 0.97507 0.39707 0.45695 0.0
C352 C 0.96944 0.39266 0.43495 0.0
C353 C 0.00126 0.39401 0.42022 0.0
C354 C 0.04346 0.40325 0.44868 0.0
C355 C 0.0128 0.40222 0.46372 0.0
H356 H -0.00288 0.38998 0.40358 0.0
H357 H 0.07268 0.40696 0.45415 0.0
H358 H 0.04721 0.36822 0.39264 0.0
H359 H 0.12292 0.34393 0.43705 0.0
H360 H 0.05176 0.46241 0.42458 0.0
H361 H 0.94087 0.38822 0.42924 0.0
H362 H 0.01883 0.40519 0.48066 0.0
C363 C 0.41279 0.6636 0.4375 0.0
C364 C 0.42175 0.68015 0.43926 0.0
N365 N 0.42958 0.6861 0.41917 0.0
N366 N 0.41499 0.65899 0.41639 0.0
C367 C 0.4248 0.67304 0.40552 0.0
H368 H 0.4062 0.65528 0.45085 0.0
Co369 Co 0.40808 0.637 0.40707 0.0
C370 C 0.46545 0.63981 0.36889 0.0
O371 O 0.49437 0.63212 0.37911 0.0
N372 N 0.39996 0.61467 0.39769 0.0
C373 C 0.40904 0.58902 0.38501 0.0
C374 C 0.42646 0.6042 0.38847 0.0
C375 C 0.36666 0.60532 0.39983 0.0
N376 N 0.37126 0.58969 0.39217 0.0
O377 O 0.35656 0.64299 0.39635 0.0
H378 H 0.45715 0.60701 0.38523 0.0
H379 H 0.33946 0.60976 0.40701 0.0
O380 O 0.43191 0.64219 0.37831 0.0
C381 C 0.33415 0.64197 0.41307 0.0
O382 O 0.34933 0.63647 0.43147 0.0
N383 N 0.4566 0.63125 0.42084 0.0
C384 C 0.51348 0.6271 0.45376 0.0
C385 C 0.51804 0.63947 0.43788 0.0
C386 C 0.48893 0.64153 0.42179 0.0
C387 C 0.45258 0.61883 0.43583 0.0
C388 C 0.48084 0.61641 0.45218 0.0
H389 H 0.49109 0.65211 0.41104 0.0
H390 H 0.42571 0.61151 0.43631 0.0
H391 H 0.42995 0.67354 0.38811 0.0
H392 H 0.42274 0.68721 0.45427 0.0
H393 H 0.42366 0.57816 0.37844 0.0
H394 H 0.54233 0.64825 0.4388 0.0
H395 H 0.47608 0.60675 0.46418 0.0
C396 C 0.39393 0.37537 0.93693 0.0
C397 C 0.40002 0.35857 0.93821 0.0
N398 N 0.4212 0.35371 0.92066 0.0
N399 N 0.41079 0.38124 0.91858 0.0
C400 C 0.42693 0.36772 0.90886 0.0
H401 H 0.37902 0.38292 0.94899 0.0
Co402 Co 0.41257 0.40388 0.91206 0.0
C403 C 0.46075 0.40498 0.87143 0.0
O404 O 0.48495 0.41572 0.88046 0.0
N405 N 0.41358 0.42746 0.90578 0.0
C406 C 0.43126 0.45418 0.90469 0.0
C407 C 0.44407 0.43826 0.90837 0.0
C408 C 0.38266 0.43747 0.90003 0.0
N409 N 0.39233 0.45375 0.89969 0.0
O410 O 0.35872 0.40237 0.90237 0.0
H411 H 0.47399 0.43503 0.91319 0.0
H412 H 0.35294 0.43308 0.89691 0.0
O413 O 0.43164 0.39911 0.8824 0.0
C414 C 0.3371 0.40654 0.91854 0.0
O415 O 0.35432 0.41251 0.93613 0.0
N416 N 0.46318 0.40461 0.92471 0.0
C417 C 0.5256 0.40156 0.95443 0.0
C418 C 0.52727 0.39353 0.93411 0.0
C419 C 0.49549 0.39514 0.91944 0.0
C420 C 0.46117 0.41234 0.94446 0.0
C421 C 0.49231 0.41129 0.95933 0.0
H422 H 0.49599 0.388 0.90455 0.0
H423 H 0.43432 0.41887 0.94902 0.0
H424 H 0.44412 0.36825 0.89397 0.0
H425 H 0.38997 0.35064 0.95132 0.0
H426 H 0.44932 0.46522 0.90603 0.0
H427 H 0.55227 0.38568 0.92991 0.0
H428 H 0.4893 0.41728 0.97507 0.0
C429 C 0.05564 0.6601 0.93718 0.0
C430 C 0.04611 0.67644 0.94056 0.0
N431 N 0.04821 0.68448 0.92131 0.0
N432 N 0.06386 0.65772 0.91589 0.0
C433 C 0.05901 0.67281 0.90656 0.0
H434 H 0.05597 0.65044 0.94941 0.0
Co435 Co 0.07748 0.63702 0.90428 0.0
C436 C 0.08223 0.64484 0.8577 0.0
O437 O 0.12005 0.64078 0.85841 0.0
N438 N 0.09118 0.61614 0.89291 0.0
C439 C 0.08961 0.59265 0.87399 0.0
C440 C 0.07099 0.60758 0.87758 0.0
C441 C 0.12177 0.60608 0.89854 0.0
N442 N 0.12161 0.59164 0.88722 0.0
O443 O 0.13087 0.64457 0.9006 0.0
H444 H 0.04421 0.61189 0.86957 0.0
H445 H 0.14324 0.60914 0.91105 0.0
O446 O 0.06144 0.64423 0.87512 0.0
C447 C 0.14748 0.64367 0.91925 0.0
O448 O 0.12729 0.63754 0.93572 0.0
N449 N 0.02654 0.62953 0.91058 0.0
C450 C 0.95878 0.62534 0.93596 0.0
C451 C 0.95811 0.63582 0.9176 0.0
C452 C 0.99252 0.63775 0.905 0.0
C453 C 0.02665 0.61823 0.92707 0.0
C454 C 0.99301 0.61585 0.93988 0.0
H455 H 0.99299 0.64709 0.89236 0.0
H456 H 0.05422 0.61231 0.93179 0.0
H457 H 0.06336 0.67521 0.88936 0.0
H458 H 0.03724 0.68188 0.95596 0.0
H459 H 0.0803 0.58334 0.86235 0.0
H460 H 0.93217 0.64328 0.9139 0.0
H461 H 0.99526 0.60782 0.954 0.0
C462 C 0.89653 0.66847 0.57335 0.0
C463 C 0.90225 0.68527 0.57453 0.0
N464 N 0.91602 0.68901 0.59459 0.0
N465 N 0.90615 0.66147 0.59262 0.0
C466 C 0.91824 0.67432 0.60527 0.0
H467 H 0.88757 0.6617 0.55894 0.0
Co468 Co 0.90577 0.6384 0.59664 0.0
C469 C 0.95367 0.63395 0.63727 0.0
O470 O 0.97669 0.62318 0.62742 0.0
N471 N 0.9047 0.61456 0.60007 0.0
C472 C 0.92062 0.58765 0.59926 0.0
C473 C 0.93462 0.60354 0.59712 0.0
C474 C 0.87268 0.60471 0.60397 0.0
N475 N 0.88137 0.58831 0.60339 0.0
O476 O 0.8521 0.63989 0.60691 0.0
H477 H 0.96502 0.60662 0.5932 0.0
H478 H 0.84309 0.60938 0.60652 0.0
O479 O 0.92561 0.64104 0.62667 0.0
C480 C 0.83009 0.63951 0.58997 0.0
O481 O 0.84675 0.637 0.57088 0.0
N482 N 0.95613 0.63769 0.58385 0.0
C483 C 0.01926 0.64125 0.55472 0.0
C484 C 0.02124 0.6482 0.57574 0.0
C485 C 0.98905 0.64641 0.59007 0.0
C486 C 0.95372 0.63104 0.56345 0.0
C487 C 0.98509 0.63239 0.54882 0.0
H488 H 0.98968 0.65283 0.60555 0.0
H489 H 0.9264 0.62518 0.55821 0.0
H490 H 0.92941 0.67293 0.62174 0.0
H491 H 0.89849 0.69395 0.56122 0.0
H492 H 0.93826 0.5765 0.59762 0.0
H493 H 0.04686 0.65537 0.58081 0.0
H494 H 0.98162 0.6273 0.53257 0.0
C495 C 0.58094 0.37384 0.57355 0.0
C496 C 0.57343 0.3572 0.57168 0.0
N497 N 0.56408 0.35117 0.59156 0.0
N498 N 0.57676 0.37849 0.59454 0.0
C499 C 0.56677 0.36437 0.60521 0.0
H500 H 0.58809 0.38217 0.5603 0.0
Co501 Co 0.58227 0.40065 0.60367 0.0
C502 C 0.52451 0.39715 0.6417 0.0
O503 O 0.49484 0.40427 0.6314 0.0
N504 N 0.58916 0.4231 0.61265 0.0
C505 C 0.58067 0.4483 0.62682 0.0
C506 C 0.56439 0.43279 0.62439 0.0
C507 C 0.62024 0.43323 0.60798 0.0
N508 N 0.61593 0.44865 0.61644 0.0
O509 O 0.63378 0.39535 0.61488 0.0
H510 H 0.53582 0.42916 0.63058 0.0
H511 H 0.64518 0.42951 0.59805 0.0
O512 O 0.55831 0.39539 0.63234 0.0
C513 C 0.65647 0.39604 0.59827 0.0
O514 O 0.64146 0.40077 0.57947 0.0
N515 N 0.53373 0.40581 0.58961 0.0
C516 C 0.47793 0.40867 0.556 0.0
C517 C 0.4734 0.39662 0.57226 0.0
C518 C 0.50209 0.39516 0.58867 0.0
C519 C 0.53744 0.41803 0.57433 0.0
C520 C 0.50979 0.41975 0.5575 0.0
H521 H 0.50028 0.38471 0.59964 0.0
H522 H 0.56382 0.42564 0.57387 0.0
H523 H 0.56016 0.36393 0.62247 0.0
H524 H 0.57461 0.35017 0.55666 0.0
H525 H 0.56733 0.45847 0.6357 0.0
H526 H 0.44963 0.38759 0.57136 0.0
H527 H 0.51446 0.42912 0.5451 0.0
H528 H 0.39761 0.13914 0.95573 0.0
H529 H 0.35115 0.14111 0.98643 0.0
H530 H 0.44906 0.13788 0.03176 0.0
H531 H 0.4957 0.13627 1.00126 0.0
H532 H 0.34277 0.11722 0.02204 0.0
H533 H 0.38615 0.18037 0.05012 0.0
H534 H 0.39763 0.17285 0.02308 0.0
H535 H 0.42525 0.16542 0.04616 0.0
C536 C 0.40922 0.13896 0.97223 0.0
C537 C 0.45026 0.13748 0.97606 0.0
C538 C 0.38271 0.14001 0.98972 0.0
C539 C 0.39682 0.13975 0.0113 0.0
C540 C 0.43769 0.13824 0.01521 0.0
H541 H 0.21159 0.12913 0.11183 0.0
H542 H 0.28026 0.1279 0.09798 0.0
C543 C 0.4642 0.13715 0.99776 0.0
C544 C 0.36847 0.14092 0.02964 0.0
H545 H 0.33359 0.16736 0.0687 0.0
C546 C 0.34106 0.12804 0.03251 0.0
C547 C 0.36666 0.15506 0.04324 0.0
C548 C 0.39527 0.1693 0.04055 0.0
C549 C 0.31055 0.12924 0.04801 0.0
C550 C 0.30775 0.14367 0.06108 0.0
C551 C 0.33626 0.15624 0.05886 0.0
C552 C 0.27139 0.14715 0.07382 0.0
C553 C 0.28005 0.11555 0.04928 0.0
C554 C 0.24483 0.15908 0.06578 0.0
C555 C 0.20605 0.15977 0.07361 0.0
C556 C 0.19347 0.14874 0.08985 0.0
C557 C 0.22105 0.13794 0.09955 0.0
C558 C 0.26 0.13713 0.0915 0.0
H559 H 0.28413 0.1061 0.03627 0.0
H560 H 0.28246 0.10923 0.06532 0.0
H561 H 0.24954 0.12074 0.04789 0.0
H562 H 0.25304 0.16691 0.05213 0.0
H563 H 0.185 0.16807 0.06581 0.0
H564 H 0.05726 0.87947 0.95381 0.0
H565 H 0.10036 0.87578 0.98568 0.0
H566 H 0.11072 0.92883 0.99219 0.0
H567 H 0.06768 0.93264 0.96033 0.0
H568 H 0.17696 0.8861 0.99448 0.0
H569 H 0.07138 0.91477 0.05253 0.0
H570 H 0.0571 0.90862 0.02527 0.0
H571 H 0.08235 0.92799 0.02977 0.0
C572 C 0.06943 0.89036 0.96173 0.0
C573 C 0.05903 0.90637 0.95458 0.0
C574 C 0.09366 0.88821 0.98009 0.0
C575 C 0.10772 0.90203 0.99166 0.0
C576 C 0.09912 0.91801 0.98389 0.0
H577 H 0.27806 0.93179 0.07944 0.0
H578 H 0.21573 0.92765 0.05982 0.0
C579 C 0.07486 0.92016 0.96558 0.0
C580 C 0.13198 0.89983 0.01167 0.0
H581 H 0.13905 0.91202 0.06493 0.0
C582 C 0.16839 0.89145 0.01002 0.0
C583 C 0.12042 0.90667 0.03197 0.0
C584 C 0.08048 0.91486 0.0351 0.0
C585 C 0.1949 0.89078 0.02771 0.0
C586 C 0.18431 0.89847 0.04767 0.0
C587 C 0.14697 0.90607 0.04966 0.0
C588 C 0.21425 0.90114 0.06505 0.0
C589 C 0.23513 0.88282 0.02444 0.0
C590 C 0.2324 0.88776 0.07591 0.0
C591 C 0.26792 0.89019 0.08749 0.0
C592 C 0.28535 0.90598 0.08817 0.0
C593 C 0.26477 0.91956 0.07937 0.0
C594 C 0.2293 0.91718 0.06804 0.0
H595 H 0.24047 0.87935 0.00714 0.0
H596 H 0.25916 0.89136 0.02976 0.0
H597 H 0.23716 0.87142 0.0345 0.0
H598 H 0.22094 0.87531 0.07395 0.0
H599 H 0.28376 0.87951 0.0938 0.0
H600 H 0.71088 0.91561 0.40298 0.0
H601 H 0.77874 0.91408 0.41773 0.0
H602 H 0.74529 0.8715 0.45617 0.0
H603 H 0.67815 0.873 0.44138 0.0
H604 H 0.78739 0.9195 0.4606 0.0
H605 H 0.85811 0.85954 0.44145 0.0
H606 H 0.81665 0.86755 0.42589 0.0
H607 H 0.80833 0.85647 0.45102 0.0
C608 C 0.71882 0.9054 0.4136 0.0
C609 C 0.68971 0.89427 0.42089 0.0
C610 C 0.75744 0.9046 0.42218 0.0
C611 C 0.76724 0.89261 0.43799 0.0
C612 C 0.73892 0.88061 0.44365 0.0
H613 H 0.89348 0.90357 0.55829 0.0
H614 H 0.84555 0.90142 0.52821 0.0
C615 C 0.70048 0.88146 0.43519 0.0
C616 C 0.80329 0.89448 0.45177 0.0
H617 H 0.87817 0.87238 0.47577 0.0
C618 C 0.80777 0.90931 0.46354 0.0
C619 C 0.82999 0.88123 0.45563 0.0
C620 C 0.82825 0.86538 0.44263 0.0
C621 C 0.83677 0.91092 0.47987 0.0
C622 C 0.86145 0.89724 0.48486 0.0
C623 C 0.8586 0.88274 0.47225 0.0
C624 C 0.89017 0.89774 0.50322 0.0
C625 C 0.84036 0.92722 0.49182 0.0
C626 C 0.9309 0.89578 0.49923 0.0
C627 C 0.9582 0.89685 0.51636 0.0
C628 C 0.9453 0.89987 0.53786 0.0
C629 C 0.90433 0.90128 0.54193 0.0
C630 C 0.87699 0.90021 0.52474 0.0
H631 H 0.82757 0.9376 0.48218 0.0
H632 H 0.82379 0.92644 0.50744 0.0
H633 H 0.87191 0.93011 0.4956 0.0
H634 H 0.94164 0.89368 0.48279 0.0
H635 H 0.98951 0.89533 0.51274 0.0
H636 H 0.77684 0.1239 0.40482 0.0
H637 H 0.70867 0.12531 0.41906 0.0
H638 H 0.74165 0.16729 0.45883 0.0
H639 H 0.80906 0.16593 0.44452 0.0
H640 H 0.69935 0.11924 0.46162 0.0
H641 H 0.62915 0.17954 0.44388 0.0
H642 H 0.67074 0.17176 0.42828 0.0
H643 H 0.67885 0.18252 0.45369 0.0
C644 C 0.76873 0.13396 0.41564 0.0
C645 C 0.79773 0.14494 0.42346 0.0
C646 C 0.72995 0.13469 0.42392 0.0
C647 C 0.71992 0.14648 0.43994 0.0
C648 C 0.74821 0.15836 0.44613 0.0
H649 H 0.59625 0.13419 0.56012 0.0
H650 H 0.64329 0.13653 0.52972 0.0
C651 C 0.7868 0.15757 0.43798 0.0
C652 C 0.68373 0.14443 0.45346 0.0
H653 H 0.60959 0.16641 0.47817 0.0
C654 C 0.67914 0.12944 0.46484 0.0
C655 C 0.65725 0.15768 0.45766 0.0
C656 C 0.65903 0.17371 0.44502 0.0
C657 C 0.65038 0.12769 0.48121 0.0
C658 C 0.6261 0.1414 0.48663 0.0
C659 C 0.62891 0.15604 0.47433 0.0
C660 C 0.59798 0.14079 0.50519 0.0
C661 C 0.64668 0.11124 0.49276 0.0
C662 C 0.55721 0.14305 0.50157 0.0
C663 C 0.53045 0.14188 0.51888 0.0
C664 C 0.54394 0.13847 0.54019 0.0
C665 C 0.58497 0.13679 0.54391 0.0
C666 C 0.61178 0.13795 0.52653 0.0
H667 H 0.65884 0.10094 0.48273 0.0
H668 H 0.66381 0.1117 0.50825 0.0
H669 H 0.61518 0.10845 0.49673 0.0
H670 H 0.54602 0.14544 0.48528 0.0
H671 H 0.49908 0.14364 0.51556 0.0
H672 H 0.80189 0.86943 0.92398 0.0
H673 H 0.73962 0.8632 0.94328 0.0
H674 H 0.71188 0.91542 0.94525 0.0
H675 H 0.77394 0.92157 0.92631 0.0
H676 H 0.73272 0.87671 0.98533 0.0
H677 H 0.60246 0.8943 0.93529 0.0
H678 H 0.65026 0.88933 0.92348 0.0
H679 H 0.64097 0.90966 0.93447 0.0
C680 C 0.78131 0.87942 0.92753 0.0
C681 C 0.79202 0.89593 0.92345 0.0
C682 C 0.74602 0.87589 0.93869 0.0
C683 C 0.721 0.88883 0.94553 0.0
C684 C 0.73025 0.90521 0.93972 0.0
H685 H 0.55869 0.92244 0.03893 0.0
H686 H 0.60693 0.91678 0.01005 0.0
C687 C 0.76565 0.90874 0.92888 0.0
C688 C 0.6899 0.88594 0.96215 0.0
H689 H 0.59409 0.89603 0.97449 0.0
C690 C 0.70208 0.88049 0.98288 0.0
C691 C 0.65012 0.89097 0.95888 0.0
C692 C 0.63506 0.89624 0.93675 0.0
C693 C 0.67632 0.88119 1.00087 0.0
C694 C 0.63718 0.88719 0.99785 0.0
C695 C 0.62427 0.89159 0.9768 0.0
C696 C 0.61023 0.89042 0.01646 0.0
C697 C 0.69199 0.87657 0.02315 0.0
C698 C 0.59684 0.87753 0.02998 0.0
C699 C 0.56963 0.8808 0.04672 0.0
C700 C 0.55511 0.89696 0.04992 0.0
C701 C 0.56946 0.90988 0.03677 0.0
C702 C 0.59678 0.90664 0.02022 0.0
H703 H 0.72489 0.87529 0.0233 0.0
H704 H 0.68333 0.88601 0.03546 0.0
H705 H 0.679 0.86453 0.02817 0.0
H706 H 0.6064 0.86489 0.02715 0.0
H707 H 0.55846 0.87059 0.05641 0.0
H708 H 0.71706 0.11689 0.92106 0.0
H709 H 0.77887 0.12042 0.94136 0.0
H710 H 0.76232 0.17344 0.94057 0.0
H711 H 0.69976 0.16984 0.92045 0.0
H712 H 0.85133 0.13824 0.94236 0.0
H713 H 0.74236 0.16028 1.00442 0.0
H714 H 0.72693 0.15123 0.97888 0.0
H715 H 0.74522 0.17215 0.97968 0.0
C716 C 0.72785 0.12934 0.92404 0.0
C717 C 0.70395 0.14311 0.91911 0.0
C718 C 0.76302 0.13135 0.93585 0.0
C719 C 0.77453 0.14715 0.943 0.0
C720 C 0.75352 0.16111 0.9355 0.0
H721 H 0.92663 0.16369 0.05755 0.0
H722 H 0.88351 0.16836 0.02594 0.0
C723 C 0.71818 0.15908 0.92367 0.0
C724 C 0.8033 0.14844 0.96129 0.0
H725 H 0.80753 0.15567 0.01623 0.0
C726 C 0.84199 0.14229 0.95845 0.0
C727 C 0.79086 0.15356 0.98235 0.0
C728 C 0.74904 0.15957 0.98669 0.0
C729 C 0.86832 0.14082 0.97618 0.0
C730 C 0.85532 0.14537 0.99731 0.0
C731 C 0.81727 0.15214 1.00001 0.0
C732 C 0.88001 0.14247 0.017 0.0
C733 C 0.90969 0.13425 0.97219 0.0
C734 C 0.89089 0.12629 0.02296 0.0
C735 C 0.91503 0.12354 0.0412 0.0
C736 C 0.92866 0.13693 0.05388 0.0
C737 C 0.91621 0.15307 0.04837 0.0
C738 C 0.89198 0.1558 0.03015 0.0
H739 H 0.91863 0.13573 0.95485 0.0
H740 H 0.93178 0.14066 0.9827 0.0
H741 H 0.91048 0.12083 0.97616 0.0
H742 H 0.881 0.11578 0.01338 0.0
H743 H 0.92366 0.11095 0.04514 0.0
H744 H 0.05828 0.16541 0.46752 0.0
H745 H 0.10176 0.17029 0.49897 0.0
H746 H 0.10912 0.11758 0.5102 0.0
H747 H 0.06545 0.11263 0.47889 0.0
H748 H 0.09175 0.13598 0.54801 0.0
H749 H 0.22134 0.16219 0.50334 0.0
H750 H 0.17439 0.17221 0.49857 0.0
H751 H 0.18184 0.15123 0.4896 0.0
C752 C 0.06989 0.15485 0.47641 0.0
C753 C 0.05874 0.13862 0.47065 0.0
C754 C 0.09453 0.15766 0.49444 0.0
C755 C 0.10878 0.14429 0.50685 0.0
C756 C 0.09827 0.12808 0.50089 0.0
H757 H 0.27296 0.11331 0.59674 0.0
H758 H 0.20899 0.11889 0.57964 0.0
C759 C 0.0735 0.12526 0.48297 0.0
C760 C 0.1344 0.14704 0.52621 0.0
H761 H 0.22722 0.1596 0.54127 0.0
C762 C 0.12123 0.14133 0.54662 0.0
C763 C 0.17258 0.15422 0.52441 0.0
C764 C 0.18866 0.16022 0.50281 0.0
C765 C 0.14594 0.14194 0.56509 0.0
C766 C 0.18491 0.14826 0.56301 0.0
C767 C 0.19718 0.15487 0.5429 0.0
C768 C 0.21578 0.14559 0.57995 0.0
C769 C 0.13047 0.13542 0.58652 0.0
C770 C 0.24007 0.15875 0.58691 0.0
C771 C 0.27664 0.15551 0.59701 0.0
C772 C 0.28932 0.13909 0.59997 0.0
C773 C 0.26324 0.12606 0.59512 0.0
C774 C 0.22666 0.12927 0.58526 0.0
H775 H 0.0977 0.13697 0.58765 0.0
H776 H 0.13706 0.12196 0.58766 0.0
H777 H 0.14465 0.14178 0.60059 0.0
H778 H 0.23241 0.17142 0.58278 0.0
H779 H 0.29683 0.16571 0.60008 0.0
H780 H 0.19723 0.87378 0.59964 0.0
H781 H 0.26308 0.86898 0.58366 0.0
H782 H 0.2808 0.92183 0.57888 0.0
H783 H 0.21543 0.92652 0.59477 0.0
H784 H 0.2672 0.88019 0.54186 0.0
H785 H 0.39393 0.90596 0.58797 0.0
H786 H 0.34744 0.90051 0.60089 0.0
H787 H 0.35297 0.9202 0.58736 0.0
C788 C 0.21642 0.8843 0.59651 0.0
C789 C 0.20176 0.9005 0.59853 0.0
C790 C 0.25384 0.88157 0.5872 0.0
C791 C 0.27691 0.89504 0.58007 0.0
C792 C 0.26404 0.91124 0.58462 0.0
H793 H 0.42499 0.92854 0.47839 0.0
H794 H 0.38255 0.92358 0.51017 0.0
C795 C 0.22663 0.91394 0.59373 0.0
C796 C 0.30822 0.89261 0.56339 0.0
H797 H 0.40016 0.90623 0.54832 0.0
C798 C 0.29673 0.88546 0.54344 0.0
C799 C 0.34647 0.89966 0.5654 0.0
C800 C 0.36103 0.90687 0.58666 0.0
C801 C 0.3213 0.88624 0.52501 0.0
C802 C 0.35877 0.89407 0.52673 0.0
C803 C 0.37124 0.90037 0.547 0.0
C804 C 0.38423 0.89684 0.50737 0.0
C805 C 0.30578 0.87966 0.50355 0.0
C806 C 0.39895 0.88345 0.49518 0.0
C807 C 0.42272 0.88626 0.47686 0.0
C808 C 0.4326 0.90252 0.47061 0.0
C809 C 0.41775 0.9159 0.48282 0.0
C810 C 0.39373 0.91308 0.50102 0.0
H811 H 0.27319 0.87743 0.50399 0.0
H812 H 0.31229 0.88842 0.49004 0.0
H813 H 0.32061 0.8677 0.49982 0.0
H814 H 0.3926 0.87082 0.50003 0.0
H815 H 0.43455 0.87571 0.46806 0.0
H816 H 0.71196 0.61295 0.09547 0.0
H817 H 0.77379 0.61006 0.07491 0.0
H818 H 0.77093 0.66229 0.05996 0.0
H819 H 0.70946 0.66518 0.0808 0.0
H820 H 0.76333 0.6169 0.03134 0.0
H821 H 0.89038 0.65336 0.06315 0.0
H822 H 0.84927 0.64702 0.08018 0.0
H823 H 0.84446 0.66472 0.06254 0.0
C824 C 0.72609 0.624 0.08912 0.0
C825 C 0.70648 0.63935 0.09002 0.0
C826 C 0.76116 0.62231 0.07711 0.0
C827 C 0.77697 0.63594 0.06582 0.0
C828 C 0.7598 0.65166 0.06883 0.0
H829 H 0.91993 0.65278 0.95122 0.0
H830 H 0.87524 0.65456 0.98255 0.0
C831 C 0.72476 0.65334 0.0809 0.0
C832 C 0.80487 0.63317 0.04743 0.0
H833 H 0.89271 0.64593 0.02524 0.0
C834 C 0.79195 0.62303 0.03017 0.0
C835 C 0.84177 0.64142 0.04575 0.0
C836 C 0.85751 0.65213 0.06398 0.0
C837 C 0.81435 0.62127 0.01103 0.0
C838 C 0.85116 0.6296 0.00924 0.0
C839 C 0.86442 0.63957 0.02662 0.0
C840 C 0.87615 0.62825 0.98937 0.0
C841 C 0.7976 0.61101 0.99257 0.0
C842 C 0.89091 0.61282 0.98254 0.0
C843 C 0.91588 0.61171 0.96437 0.0
C844 C 0.92701 0.62604 0.95282 0.0
C845 C 0.91136 0.64144 0.95942 0.0
C846 C 0.88626 0.64252 0.97753 0.0
H847 H 0.76495 0.60929 0.99415 0.0
H848 H 0.80384 0.61683 0.97651 0.0
H849 H 0.81165 0.59856 0.99278 0.0
H850 H 0.88396 0.60167 0.99159 0.0
H851 H 0.92734 0.59966 0.95972 0.0
H852 H 0.77658 0.42783 0.09212 0.0
H853 H 0.71246 0.42134 0.07566 0.0
H854 H 0.7375 0.36909 0.08205 0.0
H855 H 0.80195 0.3757 0.09883 0.0
H856 H 0.72987 0.3799 0.0394 0.0
H857 H 0.60211 0.40252 0.08749 0.0
H858 H 0.64131 0.41756 0.08637 0.0
H859 H 0.64988 0.39798 0.0997 0.0
C860 C 0.76728 0.41499 0.09124 0.0
C861 C 0.79366 0.40226 0.09699 0.0
C862 C 0.73063 0.41126 0.08179 0.0
C863 C 0.72005 0.39472 0.07771 0.0
C864 C 0.74492 0.38193 0.08528 0.0
H865 H 0.55782 0.37215 0.96789 0.0
H866 H 0.60296 0.36762 0.99881 0.0
C867 C 0.7815 0.38569 0.09504 0.0
C868 C 0.6883 0.39128 0.06155 0.0
H869 H 0.59343 0.40226 0.04809 0.0
C870 C 0.69965 0.38435 0.04146 0.0
C871 C 0.64909 0.39721 0.06423 0.0
C872 C 0.63477 0.40409 0.08571 0.0
C873 C 0.67382 0.38439 0.02345 0.0
C874 C 0.63531 0.39122 0.02578 0.0
C875 C 0.62311 0.39717 0.04628 0.0
C876 C 0.60852 0.39366 0.00681 0.0
C877 C 0.68894 0.37818 1.00174 0.0
C878 C 0.59656 0.40977 1.00113 0.0
C879 C 0.57076 0.41236 0.9836 0.0
C880 C 0.55645 0.39889 0.97136 0.0
C881 C 0.56901 0.38277 0.97679 0.0
C882 C 0.59464 0.38017 0.99449 0.0
H883 H 0.72175 0.37654 1.00171 0.0
H884 H 0.67519 0.36599 0.9981 0.0
H885 H 0.68077 0.38688 0.98841 0.0
H886 H 0.60709 0.42036 0.01035 0.0
H887 H 0.56162 0.4249 0.97974 0.0
H888 H 0.21626 0.38356 0.40358 0.0
H889 H 0.28607 0.38276 0.41568 0.0
H890 H 0.27154 0.4309 0.44547 0.0
H891 H 0.2031 0.43192 0.43274 0.0
H892 H 0.34702 0.42637 0.43383 0.0
H893 H 0.29188 0.37116 0.4794 0.0
H894 H 0.29338 0.36938 0.45021 0.0
H895 H 0.25935 0.38368 0.46284 0.0
C896 C 0.22884 0.39428 0.41169 0.0
C897 C 0.20455 0.40772 0.41752 0.0
C898 C 0.26844 0.39373 0.41891 0.0
C899 C 0.28353 0.40649 0.43222 0.0
C900 C 0.26056 0.42081 0.43545 0.0
H901 H 0.39685 0.40761 0.55434 0.0
H902 H 0.35472 0.40629 0.52174 0.0
C903 C 0.2214 0.4214 0.42817 0.0
C904 C 0.31942 0.40418 0.44605 0.0
H905 H 0.35118 0.38294 0.49105 0.0
C906 C 0.34847 0.41669 0.4461 0.0
C907 C 0.32088 0.39166 0.46227 0.0
C908 C 0.28966 0.37826 0.4639 0.0
C909 C 0.37723 0.41767 0.46271 0.0
C910 C 0.37774 0.40547 0.47931 0.0
C911 C 0.35048 0.39233 0.47839 0.0
C912 C 0.40377 0.40674 0.49883 0.0
C913 C 0.40493 0.43239 0.46312 0.0
C914 C 0.44529 0.40743 0.49683 0.0
C915 C 0.46926 0.40848 0.51543 0.0
C916 C 0.45218 0.40852 0.53638 0.0
C917 C 0.4107 0.40763 0.53839 0.0
C918 C 0.38671 0.40684 0.51978 0.0
H919 H 0.39437 0.44255 0.45231 0.0
H920 H 0.40813 0.43736 0.47993 0.0
H921 H 0.43473 0.42848 0.45733 0.0
H922 H 0.45921 0.4069 0.48092 0.0
H923 H 0.50126 0.40879 0.51346 0.0
H924 H 0.30289 0.67277 0.41633 0.0
H925 H 0.23932 0.67865 0.4344 0.0
H926 H 0.20913 0.62675 0.43118 0.0
H927 H 0.27202 0.62098 0.41289 0.0
H928 H 0.14171 0.64815 0.42994 0.0
H929 H 0.246 0.66269 0.4981 0.0
H930 H 0.25014 0.67527 0.47402 0.0
H931 H 0.26276 0.65365 0.47283 0.0
C932 C 0.28148 0.66284 0.41825 0.0
C933 C 0.29197 0.64647 0.41306 0.0
C934 C 0.24551 0.66615 0.4289 0.0
C935 C 0.22007 0.65305 0.43465 0.0
C936 C 0.22839 0.63703 0.42699 0.0
H937 H 0.05048 0.61886 0.52601 0.0
H938 H 0.09671 0.62418 0.49612 0.0
C939 C 0.26421 0.63375 0.41634 0.0
C940 C 0.18914 0.65519 0.45166 0.0
H941 H 0.1786 0.66052 0.5067 0.0
C942 C 0.1496 0.65113 0.44665 0.0
C943 C 0.19959 0.65897 0.47353 0.0
C944 C 0.24192 0.66279 0.4801 0.0
C945 C 0.12047 0.65032 0.46303 0.0
C946 C 0.13138 0.65334 0.485 0.0
C947 C 0.17041 0.65818 0.48985 0.0
C948 C 0.10365 0.65027 0.50336 0.0
C949 C 0.07838 0.64596 0.45671 0.0
C950 C 0.09365 0.66301 0.51799 0.0
C951 C 0.06734 0.65998 0.53523 0.0
C952 C 0.0508 0.64412 0.53818 0.0
C953 C 0.06217 0.63127 0.52396 0.0
C954 C 0.08838 0.63431 0.50678 0.0
H955 H 0.07225 0.64909 0.43937 0.0
H956 H 0.07392 0.63242 0.45875 0.0
H957 H 0.05652 0.65253 0.46719 0.0
H958 H 0.10556 0.67537 0.51579 0.0
H959 H 0.0589 0.67017 0.54576 0.0
H960 H 0.2977 0.37731 0.91671 0.0
H961 H 0.23223 0.37247 0.93321 0.0
H962 H 0.21617 0.42525 0.94059 0.0
H963 H 0.28135 0.43 0.92436 0.0
H964 H 0.22678 0.38333 0.97621 0.0
H965 H 0.10275 0.40959 0.92802 0.0
H966 H 0.14969 0.40374 0.91589 0.0
H967 H 0.14451 0.42338 0.92954 0.0
C968 C 0.27902 0.38785 0.92066 0.0
C969 C 0.29403 0.40402 0.9191 0.0
C970 C 0.24185 0.38509 0.93026 0.0
C971 C 0.21923 0.3985 0.93805 0.0
C972 C 0.23263 0.41473 0.93432 0.0
H973 H 0.05938 0.42935 0.03616 0.0
H974 H 0.10501 0.42522 1.00555 0.0
C975 C 0.26987 0.41746 0.92502 0.0
C976 C 0.18695 0.3958 0.95408 0.0
H977 H 0.09314 0.40843 0.96716 0.0
C978 C 0.19716 0.38842 0.97408 0.0
C979 C 0.1486 0.40263 0.95132 0.0
C980 C 0.13558 0.41014 0.92994 0.0
C981 C 0.17103 0.38871 0.99191 0.0
C982 C 0.13325 0.39622 0.98946 0.0
C983 C 0.12223 0.40279 0.96907 0.0
C984 C 0.10589 0.39846 0.0082 0.0
C985 C 0.18516 0.38193 0.01355 0.0
C986 C 0.09143 0.38479 0.01995 0.0
C987 C 0.06582 0.38715 0.03765 0.0
C988 C 0.05374 0.4032 0.04367 0.0
C989 C 0.06824 0.41685 0.03188 0.0
C990 C 0.09412 0.41449 0.01435 0.0
H991 H 0.21794 0.38019 0.01393 0.0
H992 H 0.17664 0.3903 0.02715 0.0
H993 H 0.17116 0.36968 0.01644 0.0
H994 H 0.09943 0.37229 0.01522 0.0
H995 H 0.05441 0.3764 0.04617 0.0
H996 H 0.16789 0.66796 0.94679 0.0
H997 H 0.23303 0.67176 0.96358 0.0
H998 H 0.28273 0.63528 0.91987 0.0
H999 H 0.21691 0.63146 0.903 0.0
H1000 H 0.29057 0.62707 0.96293 0.0
H1001 H 0.34152 0.69156 0.95129 0.0
H1002 H 0.29062 0.69076 0.95992 0.0
H1003 H 0.30447 0.68208 0.93393 0.0
C1004 C 0.19319 0.66137 0.94008 0.0
C1005 C 0.18784 0.64962 0.92348 0.0
C1006 C 0.23043 0.66356 0.94965 0.0
C1007 C 0.26287 0.65392 0.94287 0.0
C1008 C 0.25814 0.64297 0.92517 0.0
H1009 H 0.48641 0.65575 0.01557 0.0
H1010 H 0.43623 0.65807 0.98683 0.0
C1011 C 0.22076 0.64089 0.91542 0.0
C1012 C 0.29877 0.65316 0.95688 0.0
H1013 H 0.36645 0.67743 0.98345 0.0
C1014 C 0.30767 0.63802 0.9671 0.0
C1015 C 0.32104 0.66744 0.96233 0.0
C1016 C 0.31418 0.68383 0.95111 0.0
C1017 C 0.33697 0.63694 0.98333 0.0
C1018 C 0.35746 0.65143 0.98976 0.0
C1019 C 0.35004 0.66641 0.97881 0.0
C1020 C 0.3871 0.65116 0.00764 0.0
C1021 C 0.34554 0.6203 0.99358 0.0
C1022 C 0.37585 0.64697 0.02903 0.0
C1023 C 0.40452 0.64558 0.04552 0.0
C1024 C 0.44483 0.64832 0.0408 0.0
C1025 C 0.45564 0.65324 0.01958 0.0
C1026 C 0.42703 0.65467 1.00317 0.0
H1027 H 0.33474 0.60992 0.98323 0.0
H1028 H 0.37791 0.61865 0.99647 0.0
H1029 H 0.33015 0.61953 0.00956 0.0
H1030 H 0.34498 0.6445 0.03286 0.0
H1031 H 0.39536 0.64182 0.06172 0.0
H1032 H 0.59467 0.62958 0.45471 0.0
H1033 H 0.63786 0.63015 0.48696 0.0
H1034 H 0.5357 0.62409 0.52864 0.0
H1035 H 0.49228 0.62371 0.49653 0.0
H1036 H 0.58854 0.65046 0.54094 0.0
H1037 H 0.66745 0.59091 0.52802 0.0
H1038 H 0.66642 0.60392 0.50422 0.0
H1039 H 0.62067 0.59576 0.51492 0.0
C1040 C 0.58147 0.62828 0.47073 0.0
C1041 C 0.54016 0.62645 0.47306 0.0
C1042 C 0.60614 0.62849 0.48911 0.0
C1043 C 0.58994 0.62694 0.51013 0.0
C1044 C 0.54875 0.62515 0.51254 0.0
H1045 H 0.77631 0.6183 0.60833 0.0
H1046 H 0.7075 0.6152 0.59565 0.0
C1047 C 0.52408 0.62481 0.49417 0.0
C1048 C 0.61609 0.62793 0.52954 0.0
H1049 H 0.69891 0.61047 0.55192 0.0
C1050 C 0.61226 0.64156 0.54364 0.0
C1051 C 0.64634 0.61612 0.53333 0.0
C1052 C 0.65032 0.60075 0.51947 0.0
C1053 C 0.63992 0.64435 0.56044 0.0
C1054 C 0.67227 0.6333 0.563 0.0
C1055 C 0.67418 0.61899 0.54996 0.0
C1056 C 0.70783 0.63759 0.57616 0.0
C1057 C 0.63505 0.6594 0.5748 0.0
C1058 C 0.73008 0.6516 0.5703 0.0
C1059 C 0.76923 0.6533 0.57742 0.0
C1060 C 0.7867 0.64111 0.59063 0.0
C1061 C 0.76329 0.62799 0.59841 0.0
C1062 C 0.72406 0.62617 0.59107 0.0
H1063 H 0.60316 0.66275 0.57658 0.0
H1064 H 0.64801 0.65733 0.59126 0.0
H1065 H 0.65041 0.67008 0.56715 0.0
H1066 H 0.71866 0.66037 0.55846 0.0
H1067 H 0.78706 0.66334 0.57091 0.0
H1068 H 0.95487 0.42042 0.48691 0.0
H1069 H 0.90697 0.41796 0.51666 0.0
H1070 H 0.87405 0.36928 0.49386 0.0
H1071 H 0.92275 0.37155 0.4641 0.0
H1072 H 0.82495 0.41272 0.51375 0.0
H1073 H 0.90005 0.362 0.55939 0.0
H1074 H 0.92492 0.374 0.5386 0.0
H1075 H 0.89061 0.35797 0.53098 0.0
C1076 C 0.93743 0.40917 0.48823 0.0
C1077 C 0.94269 0.39612 0.47329 0.0
C1078 C 0.91013 0.40779 0.50523 0.0
C1079 C 0.88765 0.3933 0.50773 0.0
C1080 C 0.89181 0.38042 0.49247 0.0
H1081 H 0.68804 0.36736 0.58457 0.0
H1082 H 0.75255 0.36571 0.56641 0.0
C1083 C 0.91915 0.38182 0.47532 0.0
C1084 C 0.85892 0.3921 0.52596 0.0
H1085 H 0.83678 0.37058 0.57244 0.0
C1086 C 0.82767 0.40359 0.52667 0.0
C1087 C 0.86266 0.38016 0.54276 0.0
C1088 C 0.89652 0.36789 0.5431 0.0
C1089 C 0.79942 0.40325 0.54344 0.0
C1090 C 0.80311 0.39134 0.56033 0.0
C1091 C 0.83444 0.37984 0.55968 0.0
C1092 C 0.77219 0.38984 0.57741 0.0
C1093 C 0.765 0.41529 0.54246 0.0
C1094 C 0.7635 0.40328 0.5912 0.0
C1095 C 0.72661 0.40418 0.60167 0.0
C1096 C 0.69856 0.39154 0.59866 0.0
C1097 C 0.70964 0.37708 0.58747 0.0
C1098 C 0.74635 0.37622 0.5769 0.0
H1099 H 0.76222 0.42123 0.52617 0.0
H1100 H 0.73654 0.40896 0.54628 0.0
H1101 H 0.76963 0.42524 0.55472 0.0
H1102 H 0.78337 0.41382 0.592 0.0
H1103 H 0.71831 0.41559 0.60983 0.0
H1104 H 0.19206 0.09298 0.10558 0.0
H1105 H 0.23722 0.06919 0.10438 0.0
H1106 H 0.14515 0.03783 0.13037 0.0
H1107 H 0.09949 0.06127 0.13112 0.0
H1108 H 0.22281 0.03562 0.15211 0.0
H1109 H 0.23069 0.02826 0.0619 0.0
H1110 H 0.23893 0.04878 0.07249 0.0
H1111 H 0.19084 0.0394 0.07517 0.0
C1112 C 0.18107 0.08102 0.11077 0.0
C1113 C 0.14184 0.07921 0.1185 0.0
C1114 C 0.20708 0.06741 0.11013 0.0
C1115 C 0.19451 0.05171 0.11721 0.0
C1116 C 0.15553 0.04984 0.12488 0.0
H1117 H 0.299 0.95328 0.10683 0.0
H1118 H 0.25391 0.97714 0.10895 0.0
C1119 C 0.12946 0.06336 0.1254 0.0
C1120 C 0.222 0.03724 0.11704 0.0
H1121 H 0.27167 1.01067 0.08312 0.0
C1122 C 0.23357 0.03019 0.13704 0.0
C1123 C 0.23573 0.03008 0.09735 0.0
C1124 C 0.22331 0.03688 0.07545 0.0
C1125 C 0.25886 1.01629 0.13784 0.0
C1126 C 0.27276 1.00922 0.11818 0.0
C1127 C 0.26098 1.01616 0.09818 0.0
C1128 C 0.29971 0.99461 0.11807 0.0
C1129 C 0.27041 1.00909 0.15966 0.0
C1130 C 0.34031 0.99651 0.12272 0.0
C1131 C 0.36616 0.98291 0.12145 0.0
C1132 C 0.3519 0.96711 0.11563 0.0
C1133 C 0.31093 0.96519 0.11158 0.0
C1134 C 0.28516 0.97884 0.11263 0.0
H1135 H 0.25396 1.01495 0.17336 0.0
H1136 H 0.26468 0.99553 0.15983 0.0
H1137 H 0.30276 1.01093 0.16237 0.0
H1138 H 0.35211 1.00859 0.12694 0.0
H1139 H 0.39743 0.9848 0.12483 0.0
H1140 H 0.60975 0.97658 0.36985 0.0
H1141 H 0.65723 0.99955 0.36807 0.0
H1142 H 0.72244 0.97835 0.42206 0.0
H1143 H 0.67628 0.95485 0.42275 0.0
H1144 H 0.6722 0.02266 0.39429 0.0
H1145 H 0.81359 0.9886 0.38469 0.0
H1146 H 0.7661 0.97841 0.38259 0.0
H1147 H 0.78838 0.98214 0.40895 0.0
C1148 C 0.63473 0.97674 0.38102 0.0
C1149 C 0.63968 0.9639 0.39627 0.0
C1150 C 0.66179 0.98989 0.3801 0.0
C1151 C 0.69406 0.9907 0.39471 0.0
C1152 C 0.69882 0.97785 0.41007 0.0
H1153 H 0.81303 0.08489 0.42386 0.0
H1154 H 0.76732 0.06126 0.42254 0.0
C1155 C 0.67231 0.96444 0.41058 0.0
C1156 C 0.7212 1.0054 0.39451 0.0
H1157 H 0.81891 1.01701 0.39542 0.0
C1158 C 0.70431 0.02137 0.3943 0.0
C1159 C 0.76321 1.00391 0.39419 0.0
C1160 C 0.78383 0.98734 0.39237 0.0
C1161 C 0.72794 0.03576 0.39395 0.0
C1162 C 0.76991 0.03427 0.39493 0.0
C1163 C 0.78681 1.0183 0.39494 0.0
C1164 C 0.797 0.04898 0.39559 0.0
C1165 C 0.70739 0.05233 0.39183 0.0
C1166 C 0.82989 0.04986 0.38147 0.0
C1167 C 0.8567 0.06309 0.38276 0.0
C1168 C 0.85088 0.07593 0.3979 0.0
C1169 C 0.8177 0.07529 0.41177 0.0
C1170 C 0.79144 0.06181 0.41089 0.0
H1171 H 0.678 0.05107 0.38368 0.0
H1172 H 0.70205 0.05752 0.40835 0.0
H1173 H 0.72556 0.06127 0.38236 0.0
H1174 H 0.83508 0.04021 0.36951 0.0
H1175 H 0.88209 0.06332 0.37192 0.0
H1176 H 0.59726 0.058 0.90645 0.0
H1177 H 0.64316 0.03467 0.90445 0.0
H1178 H 0.73736 0.06763 0.88484 0.0
H1179 H 0.69145 0.09113 0.88653 0.0
H1180 H 0.68675 0.02303 0.86874 0.0
H1181 H 0.78657 0.04235 0.93644 0.0
H1182 H 0.73811 0.05146 0.93221 0.0
H1183 H 0.77934 0.05762 0.91546 0.0
C1184 C 0.62756 0.06037 0.9015 0.0
C1185 C 0.64044 0.07658 0.89665 0.0
C1186 C 0.6539 0.04697 0.9005 0.0
C1187 C 0.69384 0.0494 0.89479 0.0
C1188 C 0.70686 0.06549 0.88974 0.0
H1189 H 0.89351 0.98123 0.88049 0.0
H1190 H 0.84993 1.00551 0.8814 0.0
C1191 C 0.68049 0.07894 0.8907 0.0
C1192 C 0.72142 0.03499 0.89374 0.0
H1193 H 0.80586 1.01864 0.91626 0.0
C1194 C 0.71276 0.02206 0.87915 0.0
C1195 C 0.75539 0.03374 0.90732 0.0
C1196 C 0.76537 0.04694 0.92389 0.0
C1197 C 0.7373 1.00799 0.87761 0.0
C1198 C 0.77107 1.00666 0.89132 0.0
C1199 C 0.77995 1.01966 0.90578 0.0
C1200 C 0.79746 0.99185 0.89093 0.0
C1201 C 0.72724 0.9948 0.86104 0.0
C1202 C 0.78263 0.9761 0.89628 0.0
C1203 C 0.80744 0.96216 0.89567 0.0
C1204 C 0.84773 0.96367 0.88977 0.0
C1205 C 0.86258 0.97953 0.88475 0.0
C1206 C 0.83775 0.99346 0.88541 0.0
H1207 H 0.70706 0.9996 0.84812 0.0
H1208 H 0.75455 0.98986 0.85319 0.0
H1209 H 0.71196 0.98439 0.86935 0.0
H1210 H 0.7518 0.97458 0.90096 0.0
H1211 H 0.79484 0.95017 0.8995 0.0
H1212 H 0.09825 0.9838 0.60262 0.0
H1213 H 0.14582 1.00624 0.60707 0.0
H1214 H 0.22678 0.97306 0.63974 0.0
H1215 H 0.17899 0.95045 0.63585 0.0
H1216 H 0.18237 1.01931 0.6465 0.0
H1217 H 0.29213 0.99288 0.58815 0.0
H1218 H 0.24105 0.98603 0.58911 0.0
H1219 H 0.27562 0.9794 0.60969 0.0
C1220 C 0.12577 0.98117 0.61106 0.0
C1221 C 0.13447 0.96509 0.61877 0.0
C1222 C 0.15313 0.9941 0.61348 0.0
C1223 C 0.19004 0.9913 0.62348 0.0
C1224 C 0.1987 0.97544 0.63164 0.0
H1225 H 0.39784 0.05612 0.63288 0.0
H1226 H 0.3514 0.03293 0.63655 0.0
C1227 C 0.17124 0.96248 0.62934 0.0
C1228 C 0.2195 1.005 0.62499 0.0
H1229 H 0.30915 1.01801 0.60526 0.0
C1230 C 0.21019 1.01902 0.63756 0.0
C1231 C 0.25581 1.00457 0.61338 0.0
C1232 C 0.26685 0.98999 0.59917 0.0
C1233 C 0.23623 0.03263 0.63887 0.0
C1234 C 0.27215 0.0324 0.6268 0.0
C1235 C 0.28169 1.01823 0.61451 0.0
C1236 C 0.29974 0.04686 0.6261 0.0
C1237 C 0.2252 0.047 0.65343 0.0
C1238 C 0.28632 0.06248 0.61906 0.0
C1239 C 0.3128 0.07579 0.61709 0.0
C1240 C 0.35348 0.07372 0.62177 0.0
C1241 C 0.36678 0.05811 0.62901 0.0
C1242 C 0.34023 0.04485 0.63115 0.0
H1243 H 0.2045 0.04309 0.66658 0.0
H1244 H 0.25193 0.05264 0.66105 0.0
H1245 H 0.20991 0.05662 0.64356 0.0
H1246 H 0.25553 0.06429 0.61444 0.0
H1247 H 0.30167 0.0875 0.61105 0.0
H1248 H 0.80569 0.45478 0.10687 0.0
H1249 H 0.75968 0.47825 0.10853 0.0
H1250 H 0.85206 0.50862 0.13653 0.0
H1251 H 0.8983 0.48521 0.13472 0.0
H1252 H 0.73172 0.49757 0.14192 0.0
H1253 H 0.81905 0.53615 0.08437 0.0
H1254 H 0.82915 0.51441 0.08854 0.0
H1255 H 0.84671 0.52952 0.10787 0.0
C1256 C 0.81611 0.46637 0.11365 0.0
C1257 C 0.85585 0.46812 0.12051 0.0
C1258 C 0.78979 0.47983 0.11448 0.0
C1259 C 0.80259 0.49535 0.12219 0.0
C1260 C 0.84175 0.49694 0.12992 0.0
H1261 H 0.68271 0.59163 0.13083 0.0
H1262 H 0.72899 0.56853 0.13533 0.0
C1263 C 0.86814 0.48352 0.12895 0.0
C1264 C 0.7751 0.50987 0.12183 0.0
H1265 H 0.76359 0.54897 0.10112 0.0
C1266 C 0.73871 0.50879 0.13299 0.0
C1267 C 0.78413 0.52456 0.11016 0.0
C1268 C 0.82169 0.52623 0.09688 0.0
C1269 C 0.71132 0.522 0.13289 0.0
C1270 C 0.72031 0.53662 0.12115 0.0
C1271 C 0.75685 0.53779 0.11022 0.0
C1272 C 0.69149 0.55056 0.11916 0.0
C1273 C 0.67309 0.52025 0.14553 0.0
C1274 C 0.65511 0.54821 0.1084 0.0
C1275 C 0.62866 0.56143 0.10554 0.0
C1276 C 0.63785 0.57743 0.11338 0.0
C1277 C 0.67439 0.57967 0.12433 0.0
C1278 C 0.70096 0.56641 0.12705 0.0
H1279 H 0.67513 0.51032 0.15804 0.0
H1280 H 0.6651 0.53208 0.15371 0.0
H1281 H 0.6487 0.51699 0.13409 0.0
H1282 H 0.64749 0.53618 0.10175 0.0
H1283 H 0.60145 0.55908 0.09667 0.0
H1284 H 0.37006 0.56254 0.36588 0.0
H1285 H 0.32305 0.5395 0.3669 0.0
H1286 H 0.26006 0.5631 0.41968 0.0
H1287 H 0.30711 0.58615 0.41894 0.0
H1288 H 0.30676 0.51805 0.40118 0.0
H1289 H 0.17067 0.5523 0.37676 0.0
H1290 H 0.21995 0.56077 0.37337 0.0
H1291 H 0.1963 0.56119 0.39967 0.0
C1292 C 0.34634 0.56286 0.37778 0.0
C1293 C 0.34257 0.5763 0.39233 0.0
C1294 C 0.31932 0.54968 0.37826 0.0
C1295 C 0.28767 0.54964 0.39315 0.0
C1296 C 0.2837 0.56301 0.40769 0.0
H1297 H 0.10248 0.48104 0.43016 0.0
H1298 H 0.14745 0.50441 0.42542 0.0
C1299 C 0.31073 0.57622 0.40724 0.0
C1300 C 0.25973 0.53533 0.39397 0.0
H1301 H 0.16162 0.52475 0.3896 0.0
C1302 C 0.27506 0.51949 0.39849 0.0
C1303 C 0.21835 0.53721 0.39047 0.0
C1304 C 0.20029 0.55375 0.38459 0.0
C1305 C 0.25007 0.50557 0.40018 0.0
C1306 C 0.20864 0.50747 0.39685 0.0
C1307 C 0.19336 0.52329 0.39214 0.0
C1308 C 0.1805 0.49331 0.39892 0.0
C1309 C 0.26812 0.48905 0.40621 0.0
C1310 C 0.18347 0.47935 0.3853 0.0
C1311 C 0.1575 0.4659 0.38788 0.0
C1312 C 0.1278 0.46616 0.40407 0.0
C1313 C 0.12445 0.48038 0.41732 0.0
C1314 C 0.15039 0.49378 0.41473 0.0
H1315 H 0.29833 0.49046 0.41334 0.0
H1316 H 0.24909 0.48236 0.41809 0.0
H1317 H 0.27072 0.48129 0.39132 0.0
H1318 H 0.20589 0.47884 0.37265 0.0
H1319 H 0.16067 0.45534 0.37713 0.0
H1320 H 0.40417 0.48543 0.91377 0.0
H1321 H 0.35829 0.50872 0.91105 0.0
H1322 H 0.27338 0.4777 0.87777 0.0
H1323 H 0.31939 0.45428 0.88004 0.0
H1324 H 0.32327 0.52367 0.8737 0.0
H1325 H 0.20952 0.49719 0.92932 0.0
H1326 H 0.25955 0.48913 0.92772 0.0
H1327 H 0.2238 0.48406 0.90695 0.0
C1328 C 0.37606 0.48349 0.90558 0.0
C1329 C 0.36571 0.46779 0.89718 0.0
C1330 C 0.34968 0.49688 0.90418 0.0
C1331 C 0.31216 0.49492 0.89451 0.0
C1332 C 0.30188 0.47942 0.88571 0.0
H1333 H 0.10873 0.55952 0.8757 0.0
H1334 H 0.15592 0.53662 0.87716 0.0
C1335 C 0.32832 0.46601 0.88704 0.0
C1336 C 0.28395 0.50914 0.89368 0.0
H1337 H 0.19316 0.52237 0.91169 0.0
C1338 C 0.29485 0.52342 0.88204 0.0
C1339 C 0.2469 0.5088 0.90459 0.0
C1340 C 0.23422 0.49405 0.91802 0.0
C1341 C 0.26939 0.53724 0.88064 0.0
C1342 C 0.23235 0.53693 0.89162 0.0
C1343 C 0.22153 0.52264 0.90329 0.0
C1344 C 0.20394 0.55113 0.89081 0.0
C1345 C 0.28198 0.55185 0.86691 0.0
C1346 C 0.21489 0.56696 0.89828 0.0
C1347 C 0.18797 0.58023 0.89724 0.0
C1348 C 0.14933 0.57793 0.88886 0.0
C1349 C 0.13832 0.56194 0.88185 0.0
C1350 C 0.16525 0.54873 0.88283 0.0
H1351 H 0.30546 0.54838 0.85501 0.0
H1352 H 0.25633 0.55713 0.85783 0.0
H1353 H 0.29423 0.56164 0.87771 0.0
H1354 H 0.24427 0.56907 0.90498 0.0
H1355 H 0.19769 0.59231 0.90273 0.0
H1356 H 0.8941 0.55634 0.59048 0.0
H1357 H 0.84849 0.53306 0.59323 0.0
H1358 H 0.76035 0.56479 0.6225 0.0
H1359 H 0.80613 0.58824 0.62038 0.0
H1360 H 0.81043 0.51995 0.63213 0.0
H1361 H 0.70218 0.54223 0.56997 0.0
H1362 H 0.75217 0.55028 0.5719 0.0
H1363 H 0.71509 0.55668 0.59119 0.0
C1364 C 0.86531 0.5585 0.59776 0.0
C1365 C 0.85418 0.57439 0.6052 0.0
C1366 C 0.83909 0.54508 0.59919 0.0
C1367 C 0.80087 0.54719 0.60784 0.0
C1368 C 0.78951 0.56293 0.61543 0.0
H1369 H 0.59869 0.48132 0.62299 0.0
H1370 H 0.64421 0.50469 0.62151 0.0
C1371 C 0.81584 0.57637 0.61415 0.0
C1372 C 0.77323 0.53282 0.60909 0.0
H1373 H 0.68607 0.51754 0.58862 0.0
C1374 C 0.78324 0.51939 0.62261 0.0
C1375 C 0.73775 0.53214 0.5967 0.0
C1376 C 0.72609 0.54602 0.58147 0.0
C1377 C 0.75843 0.50542 0.62436 0.0
C1378 C 0.72311 0.50461 0.61175 0.0
C1379 C 0.71313 0.51809 0.59825 0.0
C1380 C 0.69567 0.49008 0.61263 0.0
C1381 C 0.76982 0.49188 0.64018 0.0
C1382 C 0.70908 0.47397 0.60784 0.0
C1383 C 0.68309 0.46041 0.609 0.0
C1384 C 0.64286 0.46265 0.61472 0.0
C1385 C 0.62944 0.4789 0.61897 0.0
C1386 C 0.65547 0.4924 0.61795 0.0
H1387 H 0.79066 0.49647 0.65291 0.0
H1388 H 0.74321 0.48664 0.64836 0.0
H1389 H 0.78498 0.48176 0.63117 0.0
H1390 H 0.73969 0.47186 0.60314 0.0
H1391 H 0.69479 0.44818 0.60565 0.0
H1392 H 0.95905 0.33478 0.06572 0.0
H1393 H 0.98485 0.307 0.07262 0.0
H1394 H 0.95837 0.31231 0.14108 0.0
H1395 H 0.93198 0.34034 0.13421 0.0
H1396 H 0.04884 0.29761 0.10459 0.0
H1397 H 0.90164 0.26794 0.11937 0.0
H1398 H 0.90598 0.28717 0.10446 0.0
H1399 H 0.91358 0.28693 0.13342 0.0
C1400 C 0.95836 0.33005 0.08224 0.0
C1401 C 0.94298 0.33972 0.09939 0.0
C1402 C 0.97342 0.31419 0.08617 0.0
C1403 C 0.97322 0.30754 0.1073 0.0
C1404 C 0.95849 0.31718 0.12461 0.0
H1405 H 0.0289 0.20193 0.13064 0.0
H1406 H 0.01199 0.23099 0.13828 0.0
C1407 C 0.94365 0.3332 0.12069 0.0
C1408 C 0.98829 0.29043 0.11076 0.0
H1409 H 0.95716 0.25039 0.11684 0.0
C1410 C 0.02892 0.2873 0.10761 0.0
C1411 C 0.96231 0.27702 0.11486 0.0
C1412 C 0.91836 0.27977 0.11817 0.0
C1413 C 0.04406 0.27105 0.10767 0.0
C1414 C 0.01769 0.25753 0.11038 0.0
C1415 C 0.97736 0.26073 0.11468 0.0
C1416 C 0.03056 0.24008 0.10667 0.0
C1417 C 0.08815 0.26854 0.10452 0.0
C1418 C 0.04657 0.2355 0.08641 0.0
C1419 C 0.05637 0.219 0.08207 0.0
C1420 C 0.05006 0.20658 0.0978 0.0
C1421 C 0.03456 0.21119 0.11826 0.0
C1422 C 0.02466 0.22778 0.12259 0.0
H1423 H 0.10525 0.27946 0.11037 0.0
H1424 H 0.09889 0.25734 0.11327 0.0
H1425 H 0.09445 0.26701 0.08686 0.0
H1426 H 0.05063 0.24465 0.07367 0.0
H1427 H 0.06859 0.21595 0.06624 0.0
H1428 H 0.42991 0.82936 0.06502 0.0
H1429 H 0.45594 0.80176 0.07214 0.0
H1430 H 0.46173 0.81267 0.14095 0.0
H1431 H 0.43519 0.84059 0.13392 0.0
H1432 H 0.52982 0.79681 0.12546 0.0
H1433 H 0.39565 0.76291 0.09858 0.0
H1434 H 0.41242 0.77732 0.0783 0.0
H1435 H 0.39519 0.78487 0.10428 0.0
C1436 C 0.43606 0.82591 0.08175 0.0
C1437 C 0.42971 0.83719 0.09894 0.0
C1438 C 0.45103 0.81005 0.08579 0.0
C1439 C 0.45989 0.80495 0.10713 0.0
C1440 C 0.4547 0.81627 0.12435 0.0
H1441 H 0.51476 0.69866 0.12164 0.0
H1442 H 0.48606 0.72607 0.12894 0.0
C1443 C 0.43967 0.83224 0.12031 0.0
C1444 C 0.47546 0.7879 0.11104 0.0
H1445 H 0.45653 0.74723 0.09943 0.0
C1446 C 0.51356 0.78594 0.12009 0.0
C1447 C 0.45401 0.77364 0.10448 0.0
C1448 C 0.41188 0.77475 0.09609 0.0
C1449 C 0.53165 0.77022 0.12152 0.0
C1450 C 0.51141 0.75613 0.1133 0.0
C1451 C 0.47238 0.758 0.10549 0.0
C1452 C 0.53102 0.73962 0.11108 0.0
C1453 C 0.57244 0.76893 0.13165 0.0
C1454 C 0.56597 0.73804 0.09875 0.0
C1455 C 0.58253 0.72244 0.0947 0.0
C1456 C 0.56434 0.70794 0.10264 0.0
C1457 C 0.52983 0.70954 0.11546 0.0
C1458 C 0.51324 0.72521 0.11953 0.0
H1459 H 0.57743 0.77899 0.14374 0.0
H1460 H 0.5768 0.7568 0.13988 0.0
H1461 H 0.59526 0.77024 0.1187 0.0
H1462 H 0.57984 0.74886 0.09159 0.0
H1463 H 0.60931 0.72173 0.08499 0.0
H1464 H 0.50376 0.83401 0.44349 0.0
H1465 H 0.48308 0.80571 0.43545 0.0
H1466 H 0.54431 0.80782 0.37373 0.0
H1467 H 0.56576 0.83637 0.38193 0.0
H1468 H 0.43911 0.79241 0.39924 0.0
H1469 H 0.59257 0.76676 0.40589 0.0
H1470 H 0.57984 0.78706 0.41617 0.0
H1471 H 0.58459 0.78374 0.38734 0.0
C1472 C 0.51301 0.82848 0.42822 0.0
C1473 C 0.53699 0.83735 0.4135 0.0
C1474 C 0.50085 0.81233 0.42356 0.0
C1475 C 0.5125 0.80456 0.40412 0.0
C1476 C 0.53535 0.81352 0.38896 0.0
H1477 H 0.41801 0.70312 0.38128 0.0
H1478 H 0.43885 0.73172 0.3734 0.0
C1479 C 0.54738 0.82983 0.39358 0.0
C1480 C 0.50166 0.78689 0.40057 0.0
H1481 H 0.54031 0.74771 0.40244 0.0
C1482 C 0.46122 0.78262 0.39948 0.0
C1483 C 0.53059 0.77415 0.40113 0.0
C1484 C 0.57437 0.77803 0.40282 0.0
C1485 C 0.44887 0.76596 0.39979 0.0
C1486 C 0.47776 0.75323 0.40109 0.0
C1487 C 0.51825 0.75749 0.40131 0.0
C1488 C 0.46651 0.73564 0.4049 0.0
C1489 C 0.40498 0.7621 0.39997 0.0
C1490 C 0.47586 0.72824 0.42497 0.0
C1491 C 0.46408 0.71201 0.42947 0.0
C1492 C 0.44281 0.70268 0.41395 0.0
C1493 C 0.43436 0.70995 0.39357 0.0
C1494 C 0.44601 0.72631 0.3891 0.0
H1495 H 0.38649 0.77344 0.40184 0.0
H1496 H 0.39665 0.75598 0.38441 0.0
H1497 H 0.39788 0.75342 0.41348 0.0
H1498 H 0.4918 0.73516 0.43736 0.0
H1499 H 0.47184 0.70673 0.44515 0.0
H1500 H 0.11687 0.32077 0.41375 0.0
H1501 H 0.08665 0.29366 0.40815 0.0
H1502 H 0.97554 0.31708 0.39108 0.0
H1503 H 0.00545 0.34439 0.39738 0.0
H1504 H 0.96543 0.29328 0.42141 0.0
H1505 H 0.05642 0.26749 0.35457 0.0
H1506 H 0.08707 0.27493 0.37643 0.0
H1507 H 0.05653 0.28929 0.36133 0.0
C1508 C 0.08607 0.3202 0.40867 0.0
C1509 C 0.06357 0.3348 0.40617 0.0
C1510 C 0.06894 0.30465 0.40516 0.0
C1511 C 0.02894 0.30326 0.39883 0.0
C1512 C 0.00658 0.31782 0.39575 0.0
H1513 H 0.92601 0.2026 0.38217 0.0
H1514 H 0.94589 0.23125 0.37363 0.0
C1515 C 0.02377 0.33344 0.39925 0.0
C1516 C 0.00984 0.28662 0.39766 0.0
H1517 H 0.02259 0.24743 0.37744 0.0
C1518 C 0.97749 0.28335 0.41146 0.0
C1519 C 0.02507 0.27364 0.38448 0.0
C1520 C 0.05791 0.27656 0.3682 0.0
C1521 C 0.96169 0.26731 0.41347 0.0
C1522 C 0.97902 0.25409 0.40162 0.0
C1523 C 0.00965 0.25751 0.38675 0.0
C1524 C 0.96808 0.23655 0.40605 0.0
C1525 C 0.92711 0.26457 0.42871 0.0
C1526 C 0.97504 0.2299 0.42683 0.0
C1527 C 0.96402 0.21365 0.43168 0.0
C1528 C 0.9457 0.20354 0.41586 0.0
C1529 C 0.93996 0.21002 0.39474 0.0
C1530 C 0.95115 0.2264 0.38986 0.0
H1531 H 0.90992 0.27618 0.4313 0.0
H1532 H 0.90673 0.25489 0.42231 0.0
H1533 H 0.93853 0.26041 0.4448 0.0
H1534 H 0.98904 0.23734 0.43941 0.0
H1535 H 0.97012 0.20901 0.4479 0.0
H1536 H 0.97192 0.83438 0.95084 0.0
H1537 H 0.99013 0.80547 0.94544 0.0
H1538 H 0.93761 0.8064 0.88125 0.0
H1539 H 0.91846 0.83549 0.88665 0.0
H1540 H 0.93442 0.7791 0.93601 0.0
H1541 H 0.05114 0.78587 0.8722 0.0
H1542 H 0.03608 0.80296 0.88939 0.0
H1543 H 0.00421 0.79609 0.86772 0.0
C1544 C 0.96388 0.82851 0.9356 0.0
C1545 C 0.94327 0.83732 0.91928 0.0
C1546 C 0.97464 0.81196 0.93248 0.0
C1547 C 0.96545 0.8038 0.91292 0.0
C1548 C 0.94548 0.81254 0.89637 0.0
H1549 H 0.01823 0.6986 0.8844 0.0
H1550 H -0.00327 0.72756 0.87996 0.0
C1551 C 0.93455 0.82917 0.8995 0.0
C1552 C 0.97535 0.78594 0.9106 0.0
H1553 H 0.03854 0.75888 0.88521 0.0
C1554 C 0.95694 0.77466 0.92477 0.0
C1555 C 0.00449 0.78015 0.89579 0.0
C1556 C 0.02543 0.79184 0.88043 0.0
C1557 C 0.96755 0.75783 0.92494 0.0
C1558 C -0.00198 0.75216 0.91088 0.0
C1559 C 0.01535 0.76328 0.89605 0.0
C1560 C 0.01384 0.735 0.91257 0.0
C1561 C 0.94625 0.74628 0.94037 0.0
C1562 C 0.03178 0.72975 0.93206 0.0
C1563 C 0.04407 0.71333 0.93461 0.0
C1564 C 0.03893 0.70175 0.91767 0.0
C1565 C 0.02268 0.70721 0.89773 0.0
C1566 C 0.01025 0.72372 0.8952 0.0
H1567 H 0.91675 0.75129 0.9452 0.0
H1568 H 0.94195 0.73387 0.93289 0.0
H1569 H 0.96431 0.74475 0.9554 0.0
H1570 H 0.03572 0.73833 0.9455 0.0
H1571 H 0.05732 0.70966 0.94997 0.0
H1572 H 0.60061 0.21829 0.93853 0.0
H1573 H 0.574 0.24606 0.93224 0.0
H1574 H 0.49515 0.22666 0.88294 0.0
H1575 H 0.52092 0.19865 0.88962 0.0
H1576 H 0.56882 0.26636 0.8951 0.0
H1577 H 0.41928 0.24903 0.92644 0.0
H1578 H 0.4623 0.23594 0.93011 0.0
H1579 H 0.43776 0.23685 0.90408 0.0
C1580 C 0.57759 0.21989 0.92635 0.0
C1581 C 0.56254 0.20617 0.91482 0.0
C1582 C 0.56262 0.23582 0.92264 0.0
C1583 C 0.53213 0.23843 0.90737 0.0
C1584 C 0.51823 0.2249 0.89506 0.0
H1585 H 0.44438 0.34041 0.8817 0.0
H1586 H 0.47099 0.31246 0.87542 0.0
C1587 C 0.53327 0.20891 0.89876 0.0
C1588 C 0.51386 0.25518 0.90535 0.0
H1589 H 0.42873 0.27681 0.91628 0.0
C1590 C 0.53805 0.26865 0.89945 0.0
C1591 C 0.47379 0.25815 0.91125 0.0
C1592 C 0.44671 0.24429 0.9185 0.0
C1593 C 0.52352 0.28502 0.89978 0.0
C1594 C 0.48365 0.28799 0.90603 0.0
C1595 C 0.4592 0.27449 0.91136 0.0
C1596 C 0.46783 0.30503 0.90931 0.0
C1597 C 0.55138 0.29909 0.89446 0.0
C1598 C 0.45689 0.3101 0.93035 0.0
C1599 C 0.44186 0.326 0.93399 0.0
C1600 C 0.437 0.33728 0.91663 0.0
C1601 C 0.44801 0.33217 0.89549 0.0
C1602 C 0.46322 0.31618 0.89186 0.0
H1603 H 0.5828 0.29491 0.8933 0.0
H1604 H 0.54273 0.30462 0.87856 0.0
H1605 H 0.54932 0.30895 0.90706 0.0
H1606 H 0.46037 0.30175 0.94408 0.0
H1607 H 0.4346 0.32946 0.95056 0.0
H1608 H 0.48744 0.19393 0.62025 0.0
H1609 H 0.51516 0.22169 0.62644 0.0
H1610 H 0.41372 0.24343 0.59417 0.0
H1611 H 0.38568 0.21589 0.58835 0.0
H1612 H 0.53581 0.24406 0.59399 0.0
H1613 H 0.42378 0.27221 0.64868 0.0
H1614 H 0.42733 0.2501 0.6444 0.0
H1615 H 0.40174 0.26298 0.62492 0.0
C1616 C 0.47067 0.20465 0.61492 0.0
C1617 C 0.43437 0.20268 0.60376 0.0
C1618 C 0.48663 0.2205 0.61837 0.0
C1619 C 0.46629 0.23469 0.61103 0.0
C1620 C 0.42963 0.23274 0.60037 0.0
H1621 H 0.5355 0.32817 0.5631 0.0
H1622 H 0.51614 0.29982 0.57088 0.0
C1623 C 0.41383 0.21695 0.59682 0.0
C1624 C 0.48461 0.25144 0.61271 0.0
H1625 H 0.46557 0.29126 0.62884 0.0
C1626 C 0.52079 0.25431 0.60195 0.0
C1627 C 0.46532 0.26482 0.6233 0.0
C1628 C 0.42759 0.26236 0.63617 0.0
C1629 C 0.5369 0.27034 0.60039 0.0
C1630 C 0.51617 0.28388 0.60967 0.0
C1631 C 0.48125 0.2809 0.62155 0.0
C1632 C 0.52845 0.30128 0.60546 0.0
C1633 C 0.57556 0.27273 0.58834 0.0
C1634 C 0.54111 0.31174 0.62243 0.0
C1635 C 0.55281 0.32812 0.61799 0.0
C1636 C 0.55166 0.33437 0.59651 0.0
C1637 C 0.538 0.32384 0.57974 0.0
C1638 C 0.52666 0.30755 0.58416 0.0
H1639 H 0.59295 0.26102 0.58748 0.0
H1640 H 0.5691 0.2768 0.5714 0.0
H1641 H 0.59406 0.2824 0.5963 0.0
H1642 H 0.54244 0.30717 0.63903 0.0
H1643 H 0.5632 0.33575 0.63134 0.0
H1644 H 0.88661 0.7186 0.58174 0.0
H1645 H 0.91471 0.74592 0.58895 0.0
H1646 H 0.00307 0.72386 0.63098 0.0
H1647 H 0.97564 0.69626 0.62322 0.0
H1648 H 0.9282 0.76462 0.62607 0.0
H1649 H 0.07041 0.74774 0.58531 0.0
H1650 H 0.02674 0.73484 0.58361 0.0
H1651 H 0.05624 0.73503 0.60808 0.0
C1652 C 0.91198 0.71954 0.59257 0.0
C1653 C 0.92928 0.7052 0.60159 0.0
C1654 C 0.92785 0.7352 0.59681 0.0
C1655 C 0.96148 0.73696 0.61018 0.0
C1656 C 0.97755 0.72279 0.62027 0.0
H1657 H 0.05274 0.83885 0.63351 0.0
H1658 H 0.02724 0.81087 0.64081 0.0
C1659 C 0.9616 0.70703 0.61601 0.0
C1660 C 0.98063 0.75354 0.61218 0.0
H1661 H 0.06331 0.77525 0.59698 0.0
C1662 C 0.95797 0.76693 0.62001 0.0
C1663 C 0.01933 0.75657 0.60403 0.0
C1664 C 0.04462 0.74286 0.59461 0.0
C1665 C 0.97244 0.7833 0.61928 0.0
C1666 C 0.01081 0.78634 0.61073 0.0
C1667 C 0.03397 0.77289 0.60361 0.0
C1668 C 0.02599 0.80343 0.60687 0.0
C1669 C 0.94577 0.79728 0.6266 0.0
C1670 C 0.03417 0.80852 0.58546 0.0
C1671 C 0.04873 0.8244 0.58127 0.0
C1672 C 0.05574 0.83566 0.59841 0.0
C1673 C 0.04735 0.83059 0.61991 0.0
C1674 C 0.03275 0.81459 0.62411 0.0
H1675 H 0.91459 0.79314 0.62904 0.0
H1676 H 0.95693 0.80229 0.64232 0.0
H1677 H 0.94595 0.80751 0.61447 0.0
H1678 H 0.029 0.80019 0.57187 0.0
H1679 H 0.05404 0.82789 0.56448 0.0
H1680 H 0.00364 0.15201 0.16062 0.0
H1681 H 0.97211 0.15565 0.19639 0.0
H1682 H 0.08653 0.15103 0.22767 0.0
H1683 H 0.11817 0.14749 0.1922 0.0
H1684 H 0.97364 0.13225 0.22972 0.0
H1685 H 0.03864 0.19125 0.25867 0.0
H1686 H 0.03916 0.18516 0.23028 0.0
H1687 H 0.07583 0.17712 0.24892 0.0
C1688 C 0.02216 0.15205 0.17509 0.0
C1689 C 0.06345 0.14943 0.17354 0.0
C1690 C 0.00408 0.15413 0.19551 0.0
C1691 C 0.02702 0.15386 0.21469 0.0
C1692 C 0.06831 0.15166 0.2131 0.0
H1693 H 0.00503 0.11923 0.34153 0.0
H1694 H 0.01388 0.12571 0.30308 0.0
C1695 C 0.08634 0.14949 0.19277 0.0
C1696 C 0.00789 0.15422 0.23652 0.0
H1697 H 0.01424 0.17264 0.28664 0.0
C1698 C 0.98179 0.14131 0.24202 0.0
C1699 C 0.01814 0.16613 0.25254 0.0
C1700 C 0.04417 0.1808 0.24726 0.0
C1701 C 0.96805 0.13932 0.26349 0.0
C1702 C 0.9809 0.15046 0.27985 0.0
C1703 C 0.00466 0.16405 0.27407 0.0
C1704 C 0.97438 0.14687 0.30329 0.0
C1705 C 0.94123 0.1249 0.26874 0.0
C1706 C 0.94955 0.1568 0.31628 0.0
C1707 C 0.94416 0.15306 0.33848 0.0
C1708 C 0.96408 0.1395 0.34798 0.0
C1709 C 0.98925 0.12978 0.33484 0.0
C1710 C 0.99424 0.13341 0.31278 0.0
H1711 H 0.92584 0.12018 0.25393 0.0
H1712 H 0.95934 0.11465 0.27565 0.0
H1713 H 0.91859 0.12847 0.28106 0.0
H1714 H 0.93418 0.16733 0.30923 0.0
H1715 H 0.92471 0.16082 0.34819 0.0
H1716 H 0.42181 0.87902 0.16524 0.0
H1717 H 0.43771 0.87173 0.20326 0.0
H1718 H 0.4953 0.91907 0.21171 0.0
H1719 H 0.4806 0.92618 0.17403 0.0
H1720 H 0.53963 0.8942 0.22855 0.0
H1721 H 0.38331 0.88922 0.25756 0.0
H1722 H 0.39709 0.87582 0.23539 0.0
H1723 H 0.39564 0.89787 0.23129 0.0
C1724 C 0.4377 0.88786 0.17529 0.0
C1725 C 0.44984 0.90319 0.16661 0.0
C1726 C 0.4467 0.88371 0.19702 0.0
C1727 C 0.46746 0.89492 0.21045 0.0
C1728 C 0.47946 0.91017 0.2017 0.0
H1729 H 0.47526 0.92049 0.34183 0.0
H1730 H 0.46302 0.91418 0.30371 0.0
C1731 C 0.47087 0.91424 0.1801 0.0
C1732 C 0.47675 0.89123 0.23372 0.0
H1733 H 0.43365 0.88699 0.28384 0.0
C1734 C 0.51653 0.89237 0.24065 0.0
C1735 C 0.44657 0.88884 0.24947 0.0
C1736 C 0.40321 0.88797 0.24319 0.0
C1737 C 0.52674 0.89226 0.26291 0.0
C1738 C 0.49638 0.89052 0.27872 0.0
C1739 C 0.45689 0.8883 0.27171 0.0
C1740 C 0.50383 0.89345 0.30237 0.0
C1741 C 0.56954 0.89515 0.2693 0.0
C1742 C 0.53087 0.88383 0.31455 0.0
C1743 C 0.53841 0.88757 0.33658 0.0
C1744 C 0.51861 0.90085 0.34681 0.0
C1745 C 0.49106 0.91016 0.33459 0.0
C1746 C 0.48387 0.90653 0.31271 0.0
H1747 H 0.58793 0.89925 0.25526 0.0
H1748 H 0.57163 0.90466 0.28236 0.0
H1749 H 0.58241 0.88344 0.27568 0.0
H1750 H 0.54613 0.87348 0.30705 0.0
H1751 H 0.55953 0.88007 0.34559 0.0
H1752 H 0.86329 0.89806 0.81987 0.0
H1753 H 0.89252 0.89385 0.78401 0.0
H1754 H 0.0039 0.87996 0.81386 0.0
H1755 H 0.9749 0.88449 0.85012 0.0
H1756 H 0.01371 0.90294 0.78191 0.0
H1757 H 0.9191 0.8525 0.75018 0.0
H1758 H 0.88937 0.86928 0.76027 0.0
H1759 H 0.92071 0.85783 0.7788 0.0
C1760 C 0.89386 0.89389 0.81892 0.0
C1761 C 0.91672 0.89161 0.83792 0.0
C1762 C 0.91047 0.89134 0.79833 0.0
C1763 C 0.95021 0.88627 0.79619 0.0
C1764 C 0.97306 0.88372 0.81512 0.0
H1765 H 0.0763 0.88503 0.66892 0.0
H1766 H 0.06129 0.87817 0.70715 0.0
C1767 C 0.95642 0.88629 0.83583 0.0
C1768 C 0.96828 0.88507 0.77412 0.0
H1769 H 0.95096 0.86984 0.72294 0.0
C1770 C 0.00066 0.89538 0.76913 0.0
C1771 C 0.9514 0.87515 0.75744 0.0
C1772 C 0.9185 0.86294 0.76202 0.0
C1773 C 0.01471 0.8969 0.74762 0.0
C1774 C -0.00404 0.88784 0.73077 0.0
C1775 C 0.9651 0.87684 0.73592 0.0
C1776 C 0.00489 0.89108 0.7075 0.0
C1777 C 0.04791 0.9089 0.74276 0.0
C1778 C 0.97789 0.90037 0.69508 0.0
C1779 C 0.9864 0.90438 0.67343 0.0
C1780 C 0.02202 0.89905 0.66366 0.0
C1781 C 0.04864 0.88933 0.67598 0.0
C1782 C 0.04019 0.88543 0.6978 0.0
H1783 H 0.05798 0.91567 0.75756 0.0
H1784 H 0.07363 0.90206 0.73585 0.0
H1785 H 0.038 0.91805 0.73036 0.0
H1786 H 0.95047 0.90481 0.7023 0.0
H1787 H 0.96511 0.91179 0.66443 0.0
H1788 H 0.58755 0.14941 0.84174 0.0
H1789 H 0.57618 0.15221 0.80229 0.0
H1790 H 0.45079 0.1439 0.81201 0.0
H1791 H 0.4619 0.14084 0.85109 0.0
H1792 H 0.48319 0.12273 0.78224 0.0
H1793 H 0.52548 0.18762 0.76292 0.0
H1794 H 0.56223 0.17606 0.77787 0.0
H1795 H 0.51527 0.18072 0.7904 0.0
C1796 C 0.55749 0.14852 0.83548 0.0
C1797 C 0.5257 0.14474 0.84952 0.0
C1798 C 0.55099 0.1502 0.81294 0.0
C1799 C 0.51257 0.14833 0.80418 0.0
C1800 C 0.48067 0.14536 0.81837 0.0
H1801 H 0.42204 0.15542 0.67048 0.0
H1802 H 0.43589 0.16047 0.70933 0.0
C1803 C 0.48714 0.14358 0.84074 0.0
C1804 C 0.50574 0.14766 0.78022 0.0
H1805 H 0.51322 0.1697 0.7327 0.0
C1806 C 0.48963 0.13304 0.77146 0.0
C1807 C 0.51391 0.16115 0.76615 0.0
C1808 C 0.52986 0.17735 0.77477 0.0
C1809 C 0.48186 0.13146 0.74907 0.0
C1810 C 0.49091 0.14476 0.73493 0.0
C1811 C 0.50651 0.1595 0.74361 0.0
C1812 C 0.48506 0.14321 0.71102 0.0
C1813 C 0.46381 0.11555 0.74069 0.0
C1814 C 0.50866 0.13213 0.69909 0.0
C1815 C 0.50083 0.1292 0.67704 0.0
C1816 C 0.46917 0.1373 0.66641 0.0
C1817 C 0.44648 0.14891 0.6782 0.0
C1818 C 0.45443 0.15186 0.70035 0.0
H1819 H 0.45085 0.108 0.75406 0.0
H1820 H 0.44021 0.11818 0.72846 0.0
H1821 H 0.48722 0.10806 0.73257 0.0
H1822 H 0.53262 0.12543 0.707 0.0
H1823 H 0.51916 0.12027 0.66849 0.0
H1824 H 0.53565 0.64662 0.34909 0.0
H1825 H 0.54807 0.6508 0.31027 0.0
H1826 H 0.42234 0.64663 0.29722 0.0
H1827 H 0.40963 0.64306 0.33636 0.0
H1828 H 0.53572 0.62887 0.27972 0.0
H1829 H 0.44894 0.685 0.25856 0.0
H1830 H 0.45873 0.67905 0.28646 0.0
H1831 H 0.41905 0.66938 0.27135 0.0
C1832 C 0.51053 0.64692 0.33801 0.0
C1833 C 0.47165 0.64448 0.34576 0.0
C1834 C 0.51768 0.6493 0.31579 0.0
C1835 C 0.4862 0.64915 0.30071 0.0
C1836 C 0.44711 0.64721 0.30849 0.0
H1837 H 0.47613 0.62909 0.16336 0.0
H1838 H 0.46374 0.63383 0.20213 0.0
C1839 C 0.43985 0.64508 0.33087 0.0
C1840 C 0.49501 0.64943 0.27687 0.0
H1841 H 0.47166 0.66838 0.22854 0.0
C1842 C 0.52206 0.63768 0.26863 0.0
C1843 C 0.47722 0.66089 0.26228 0.0
C1844 C 0.44968 0.6744 0.27013 0.0
C1845 C 0.53109 0.63686 0.2463 0.0
C1846 C 0.51259 0.64801 0.23173 0.0
C1847 C 0.48584 0.65987 0.23983 0.0
C1848 C 0.51905 0.64672 0.20787 0.0
C1849 C 0.55962 0.62378 0.23823 0.0
C1850 C 0.55412 0.65264 0.19821 0.0
C1851 C 0.56132 0.65002 0.17592 0.0
C1852 C 0.53371 0.64128 0.16305 0.0
C1853 C 0.4982 0.63576 0.17279 0.0
C1854 C 0.49091 0.63851 0.19494 0.0
H1855 H 0.56964 0.61535 0.25149 0.0
H1856 H 0.54533 0.61627 0.22521 0.0
H1857 H 0.58614 0.62984 0.23101 0.0
H1858 H 0.57622 0.65898 0.20801 0.0
H1859 H 0.58891 0.65443 0.16893 0.0
H1860 H 0.07671 0.38773 0.3447 0.0
H1861 H 0.06275 0.38467 0.30555 0.0
H1862 H 0.96198 0.4174 0.3118 0.0
H1863 H 0.97592 0.42073 0.35062 0.0
H1864 H 0.99372 0.37426 0.28152 0.0
H1865 H 0.03194 0.44008 0.26578 0.0
H1866 H 0.0442 0.42979 0.29105 0.0
H1867 H 0.99456 0.4373 0.28634 0.0
C1868 C 0.05146 0.39419 0.33775 0.0
C1869 C 0.02779 0.40466 0.35075 0.0
C1870 C 0.04346 0.3924 0.3154 0.0
C1871 C 0.01172 0.40103 0.3057 0.0
C1872 C 0.98707 0.41087 0.31885 0.0
H1873 H 0.91145 0.39326 0.17406 0.0
H1874 H 0.92378 0.38984 0.21334 0.0
C1875 C 0.9951 0.41274 0.34108 0.0
C1876 C 0.00534 0.4005 0.28171 0.0
H1877 H 0.00263 0.42525 0.23657 0.0
C1878 C -0.00421 0.38537 0.27163 0.0
C1879 C 0.00852 0.41498 0.26882 0.0
C1880 C 0.02073 0.43144 0.27847 0.0
C1881 C 0.98872 0.38442 0.24899 0.0
C1882 C 0.99078 0.39902 0.23623 0.0
C1883 C 0.00076 0.41407 0.24636 0.0
C1884 C 0.98416 0.39912 0.21221 0.0
C1885 C 0.97985 0.36778 0.23889 0.0
C1886 C 0.01389 0.40542 0.19849 0.0
C1887 C 0.00674 0.40759 0.17624 0.0
C1888 C 0.96967 0.40346 0.16709 0.0
C1889 C 0.94037 0.39648 0.18061 0.0
C1890 C 0.94746 0.39444 0.20304 0.0
H1891 H 0.98928 0.35741 0.24966 0.0
H1892 H 0.94733 0.36668 0.23616 0.0
H1893 H 0.99495 0.36644 0.22287 0.0
H1894 H 0.04243 0.40909 0.20514 0.0
H1895 H 0.03012 0.41286 0.16629 0.0
H1896 H 0.52696 0.41039 0.84687 0.0
H1897 H 0.53655 0.40457 0.80812 0.0
H1898 H 0.41968 0.38284 0.80472 0.0
H1899 H 0.40977 0.38852 0.84376 0.0
H1900 H 0.5257 0.37153 0.78296 0.0
H1901 H 0.4258 0.42382 0.75965 0.0
H1902 H 0.44951 0.42279 0.78609 0.0
H1903 H 0.40866 0.40931 0.77992 0.0
C1904 C 0.50334 0.40423 0.838 0.0
C1905 C 0.46742 0.40004 0.84839 0.0
C1906 C 0.509 0.40085 0.81585 0.0
C1907 C 0.47879 0.39336 0.80358 0.0
C1908 C 0.44332 0.38868 0.81396 0.0
H1909 H 0.45523 0.39022 0.66249 0.0
H1910 H 0.44442 0.38672 0.70159 0.0
C1911 C 0.43773 0.39192 0.83624 0.0
C1912 C 0.48372 0.39152 0.77967 0.0
H1913 H 0.45697 0.4093 0.73132 0.0
C1914 C 0.51049 0.37967 0.77158 0.0
C1915 C 0.46388 0.40219 0.76496 0.0
C1916 C 0.43544 0.41534 0.77294 0.0
C1917 C 0.51783 0.37815 0.74905 0.0
C1918 C 0.49874 0.38913 0.73432 0.0
C1919 C 0.47162 0.40085 0.74253 0.0
C1920 C 0.50654 0.38901 0.71038 0.0
C1921 C 0.54549 0.36466 0.74129 0.0
C1922 C 0.54522 0.39111 0.7021 0.0
C1923 C 0.55157 0.39285 0.67959 0.0
C1924 C 0.51922 0.3929 0.66504 0.0
C1925 C 0.48075 0.39033 0.6733 0.0
C1926 C 0.47451 0.38834 0.69568 0.0
H1927 H 0.54709 0.35429 0.7532 0.0
H1928 H 0.53592 0.35963 0.72525 0.0
H1929 H 0.57588 0.36982 0.73951 0.0
H1930 H 0.57037 0.39211 0.71307 0.0
H1931 H 0.5815 0.395 0.67372 0.0
H1932 H 0.1187 0.64917 0.81836 0.0
H1933 H 0.08767 0.65154 0.78249 0.0
H1934 H 0.97159 0.65008 0.81221 0.0
H1935 H 0.00251 0.64756 0.84835 0.0
H1936 H 0.98049 0.62744 0.77859 0.0
H1937 H 0.0303 0.68942 0.75141 0.0
H1938 H 0.07066 0.67684 0.76112 0.0
H1939 H 0.03192 0.68302 0.77966 0.0
C1940 C 0.08655 0.6496 0.81737 0.0
C1941 C 0.06312 0.64814 0.83627 0.0
C1942 C 0.06884 0.65109 0.79681 0.0
C1943 C 0.02729 0.65123 0.79464 0.0
C1944 C 0.00372 0.65014 0.81351 0.0
H1945 H 0.91994 0.65847 0.66267 0.0
H1946 H 0.93233 0.66391 0.70162 0.0
C1947 C 0.02145 0.64873 0.83415 0.0
C1948 C 0.00892 0.65091 0.77254 0.0
H1949 H 0.00984 0.67047 0.72304 0.0
C1950 C 0.9863 0.63701 0.76657 0.0
C1951 C 0.01609 0.66346 0.75688 0.0
C1952 C 0.03823 0.67911 0.76264 0.0
C1953 C 0.97274 0.63485 0.74506 0.0
C1954 C 0.98232 0.64683 0.72906 0.0
C1955 C 0.00285 0.66121 0.73528 0.0
C1956 C 0.97445 0.64383 0.70553 0.0
C1957 C 0.94911 0.61954 0.73946 0.0
C1958 C 0.99447 0.63095 0.69481 0.0
C1959 C 0.98772 0.6279 0.67269 0.0
C1960 C 0.96069 0.63765 0.66072 0.0
C1961 C 0.9408 0.65068 0.67143 0.0
C1962 C 0.94787 0.65382 0.69365 0.0
H1963 H 0.93516 0.61401 0.75419 0.0
H1964 H 0.92549 0.6224 0.72734 0.0
H1965 H 0.96928 0.61013 0.73222 0.0
H1966 H 0.01554 0.62325 0.70358 0.0
H1967 H 0.00363 0.61777 0.66503 0.0
loop_
_geom_bond_atom_site_label_1
_geom_bond_atom_site_label_2
_geom_bond_distance
_geom_bond_site_symmetry_2
_ccdc_geom_bond_type
C0 C1 1.351 . S
C0 N3 1.368 . S
C0 H5 0.931 . S
C1 C0 1.351 . S
C1 N2 1.373 . S
C1 H29 0.930 . S
N2 C1 1.373 . S
N2 C4 1.340 . S
N3 C0 1.368 . S
N3 C4 1.321 . S
N3 Co6 2.135 . S
C4 N2 1.340 . S
C4 N3 1.321 . S
C4 H28 0.930 . S
H5 C0 0.931 . S
Co6 N3 2.135 . S
Co6 N9 2.121 . S
Co6 O14 2.055 . S
Co6 O17 2.039 . S
Co6 N20 2.140 . S
C7 O8 1.227 . S
C7 O17 1.265 . S
O8 C7 1.227 . S
N9 Co6 2.121 . S
N9 C11 1.375 . S
N9 C12 1.313 . S
C10 C11 1.338 . S
C10 N13 1.377 . S
C10 H30 0.930 . S
C11 N9 1.375 . S
C11 C10 1.338 . S
C11 H15 0.931 . S
C12 N9 1.313 . S
C12 N13 1.344 . S
C12 H16 0.930 . S
N13 C10 1.377 . S
N13 C12 1.344 . S
O14 Co6 2.055 . S
O14 C18 1.253 . S
H15 C11 0.931 . S
H16 C12 0.930 . S
O17 Co6 2.039 . S
O17 C7 1.265 . S
C18 O14 1.253 . S
C18 O19 1.227 . S
O19 C18 1.227 . S
N20 Co6 2.140 . S
N20 C23 1.346 1_455 S
N20 C24 1.345 . S
C21 C22 1.387 . S
C21 C25 1.391 . S
C22 C21 1.387 . S
C22 C23 1.369 . S
C22 H31 0.929 . S
C23 N20 1.346 1_655 S
C23 C22 1.369 . S
C23 H26 0.928 . S
C24 N20 1.345 . S
C24 C25 1.371 1_455 S
C24 H27 0.931 . S
C25 C21 1.391 . S
C25 C24 1.371 1_655 S
C25 H32 0.930 . S
H26 C23 0.928 . S
H27 C24 0.931 . S
H28 C4 0.930 . S
H29 C1 0.930 . S
H30 C10 0.930 . S
H31 C22 0.929 . S
H32 C25 0.930 . S
C33 C34 1.351 . S
C33 N36 1.368 . S
C33 H38 0.931 . S
C34 C33 1.351 . S
C34 N35 1.373 . S
C34 H62 0.930 . S
N35 C34 1.373 . S
N35 C37 1.340 . S
N36 C33 1.368 . S
N36 C37 1.321 . S
N36 Co39 2.135 . S
C37 N35 1.340 . S
C37 N36 1.321 . S
C37 H61 0.930 . S
H38 C33 0.931 . S
Co39 N36 2.135 . S
Co39 N42 2.121 . S
Co39 O47 2.055 . S
Co39 O50 2.039 . S
Co39 N53 2.140 . S
C40 O41 1.227 . S
C40 O50 1.265 . S
O41 C40 1.227 . S
N42 Co39 2.121 . S
N42 C44 1.375 . S
N42 C45 1.313 . S
C43 C44 1.338 . S
C43 N46 1.377 . S
C43 H63 0.930 . S
C44 N42 1.375 . S
C44 C43 1.338 . S
C44 H48 0.931 . S
C45 N42 1.313 . S
C45 N46 1.344 . S
C45 H49 0.930 . S
N46 C43 1.377 . S
N46 C45 1.344 . S
O47 Co39 2.055 . S
O47 C51 1.253 . S
H48 C44 0.931 . S
H49 C45 0.930 . S
O50 Co39 2.039 . S
O50 C40 1.265 . S
C51 O47 1.253 . S
C51 O52 1.227 . S
O52 C51 1.227 . S
N53 Co39 2.140 . S
N53 C56 1.346 . S
N53 C57 1.345 . S
C54 C55 1.387 . S
C54 C58 1.391 . S
C55 C54 1.387 . S
C55 C56 1.369 . S
C55 H64 0.929 . S
C56 N53 1.346 . S
C56 C55 1.369 . S
C56 H59 0.928 . S
C57 N53 1.345 . S
C57 C58 1.371 . S
C57 H60 0.931 . S
C58 C54 1.391 . S
C58 C57 1.371 . S
C58 H65 0.930 . S
H59 C56 0.928 . S
H60 C57 0.931 . S
H61 C37 0.930 . S
H62 C34 0.930 . S
H63 C43 0.930 . S
H64 C55 0.929 . S
H65 C58 0.930 . S
C66 C67 1.351 . S
C66 N69 1.368 . S
C66 H71 0.931 . S
C67 C66 1.351 . S
C67 N68 1.373 . S
C67 H95 0.930 . S
N68 C67 1.373 . S
N68 C70 1.340 . S
N69 C66 1.368 . S
N69 C70 1.321 . S
N69 Co72 2.135 . S
C70 N68 1.340 . S
C70 N69 1.321 . S
C70 H94 0.930 . S
H71 C66 0.931 . S
Co72 N69 2.135 . S
Co72 N75 2.121 . S
Co72 O80 2.055 . S
Co72 O83 2.039 . S
Co72 N86 2.140 . S
C73 O74 1.227 . S
C73 O83 1.265 . S
O74 C73 1.227 . S
N75 Co72 2.121 . S
N75 C77 1.375 . S
N75 C78 1.313 . S
C76 C77 1.338 . S
C76 N79 1.377 . S
C76 H96 0.930 . S
C77 N75 1.375 . S
C77 C76 1.338 . S
C77 H81 0.931 . S
C78 N75 1.313 . S
C78 N79 1.344 . S
C78 H82 0.930 . S
N79 C76 1.377 . S
N79 C78 1.344 . S
O80 Co72 2.055 . S
O80 C84 1.253 . S
H81 C77 0.931 . S
H82 C78 0.930 . S
O83 Co72 2.039 . S
O83 C73 1.265 . S
C84 O80 1.253 . S
C84 O85 1.227 . S
O85 C84 1.227 . S
N86 Co72 2.140 . S
N86 C89 1.346 . S
N86 C90 1.345 . S
C87 C88 1.387 . S
C87 C91 1.391 . S
C88 C87 1.387 . S
C88 C89 1.369 . S
C88 H97 0.929 . S
C89 N86 1.346 . S
C89 C88 1.369 . S
C89 H92 0.928 . S
C90 N86 1.345 . S
C90 C91 1.371 . S
C90 H93 0.931 . S
C91 C87 1.391 . S
C91 C90 1.371 . S
C91 H98 0.930 . S
H92 C89 0.928 . S
H93 C90 0.931 . S
H94 C70 0.930 . S
H95 C67 0.930 . S
H96 C76 0.930 . S
H97 C88 0.929 . S
H98 C91 0.930 . S
C99 C100 1.351 . S
C99 N102 1.368 . S
C99 H104 0.931 . S
C100 C99 1.351 . S
C100 N101 1.373 . S
C100 H128 0.930 . S
N101 C100 1.373 . S
N101 C103 1.340 . S
N102 C99 1.368 . S
N102 C103 1.321 . S
N102 Co105 2.135 . S
C103 N101 1.340 . S
C103 N102 1.321 . S
C103 H127 0.930 . S
H104 C99 0.931 . S
Co105 N102 2.135 . S
Co105 N108 2.121 . S
Co105 O113 2.055 . S
Co105 O116 2.039 . S
Co105 N119 2.140 . S
C106 O107 1.227 . S
C106 O116 1.265 . S
O107 C106 1.227 . S
N108 Co105 2.121 . S
N108 C110 1.375 . S
N108 C111 1.313 . S
C109 C110 1.338 . S
C109 N112 1.377 . S
C109 H129 0.930 . S
C110 N108 1.375 . S
C110 C109 1.338 . S
C110 H114 0.931 . S
C111 N108 1.313 . S
C111 N112 1.344 . S
C111 H115 0.930 . S
N112 C109 1.377 . S
N112 C111 1.344 . S
O113 Co105 2.055 . S
O113 C117 1.253 . S
H114 C110 0.931 . S
H115 C111 0.930 . S
O116 Co105 2.039 . S
O116 C106 1.265 . S
C117 O113 1.253 . S
C117 O118 1.227 . S
O118 C117 1.227 . S
N119 Co105 2.140 . S
N119 C122 1.346 1_655 S
N119 C123 1.345 . S
C120 C121 1.387 . S
C120 C124 1.391 . S
C121 C120 1.387 . S
C121 C122 1.369 . S
C121 H130 0.929 . S
C122 N119 1.346 1_455 S
C122 C121 1.369 . S
C122 H125 0.928 . S
C123 N119 1.345 . S
C123 C124 1.371 1_655 S
C123 H126 0.931 . S
C124 C120 1.391 . S
C124 C123 1.371 1_455 S
C124 H131 0.930 . S
H125 C122 0.928 . S
H126 C123 0.931 . S
H127 C103 0.930 . S
H128 C100 0.930 . S
H129 C109 0.930 . S
H130 C121 0.929 . S
H131 C124 0.930 . S
C132 C133 1.351 . S
C132 N135 1.368 . S
C132 H137 0.931 . S
C133 C132 1.351 . S
C133 N134 1.373 . S
C133 H161 0.930 . S
N134 C133 1.373 . S
N134 C136 1.340 . S
N135 C132 1.368 . S
N135 C136 1.321 . S
N135 Co138 2.135 . S
C136 N134 1.340 . S
C136 N135 1.321 . S
C136 H160 0.930 . S
H137 C132 0.931 . S
Co138 N135 2.135 . S
Co138 N141 2.121 . S
Co138 O146 2.055 . S
Co138 O149 2.039 . S
Co138 N152 2.140 . S
C139 O140 1.227 . S
C139 O149 1.265 . S
O140 C139 1.227 . S
N141 Co138 2.121 . S
N141 C143 1.375 . S
N141 C144 1.313 . S
C142 C143 1.338 . S
C142 N145 1.377 . S
C142 H162 0.930 . S
C143 N141 1.375 . S
C143 C142 1.338 . S
C143 H147 0.931 . S
C144 N141 1.313 . S
C144 N145 1.344 . S
C144 H148 0.930 . S
N145 C142 1.377 . S
N145 C144 1.344 . S
O146 Co138 2.055 . S
O146 C150 1.253 . S
H147 C143 0.931 . S
H148 C144 0.930 . S
O149 Co138 2.039 . S
O149 C139 1.265 . S
C150 O146 1.253 . S
C150 O151 1.227 . S
O151 C150 1.227 . S
N152 Co138 2.140 . S
N152 C155 1.346 1_655 S
N152 C156 1.345 . S
C153 C154 1.387 . S
C153 C157 1.391 . S
C154 C153 1.387 . S
C154 C155 1.369 . S
C154 H163 0.929 . S
C155 N152 1.346 1_455 S
C155 C154 1.369 . S
C155 H158 0.928 . S
C156 N152 1.345 . S
C156 C157 1.371 1_655 S
C156 H159 0.931 . S
C157 C153 1.391 . S
C157 C156 1.371 1_455 S
C157 H164 0.930 . S
H158 C155 0.928 . S
H159 C156 0.931 . S
H160 C136 0.930 . S
H161 C133 0.930 . S
H162 C142 0.930 . S
H163 C154 0.929 . S
H164 C157 0.930 . S
C165 C166 1.351 . S
C165 N168 1.368 . S
C165 H170 0.931 . S
C166 C165 1.351 . S
C166 N167 1.373 . S
C166 H194 0.930 . S
N167 C166 1.373 . S
N167 C169 1.340 . S
N168 C165 1.368 . S
N168 C169 1.321 . S
N168 Co171 2.135 . S
C169 N167 1.340 . S
C169 N168 1.321 . S
C169 H193 0.930 . S
H170 C165 0.931 . S
Co171 N168 2.135 . S
Co171 N174 2.121 . S
Co171 O179 2.055 . S
Co171 O182 2.039 . S
Co171 N185 2.140 . S
C172 O173 1.227 . S
C172 O182 1.265 . S
O173 C172 1.227 . S
N174 Co171 2.121 . S
N174 C176 1.375 . S
N174 C177 1.313 . S
C175 C176 1.338 . S
C175 N178 1.377 . S
C175 H195 0.930 . S
C176 N174 1.375 . S
C176 C175 1.338 . S
C176 H180 0.931 . S
C177 N174 1.313 . S
C177 N178 1.344 . S
C177 H181 0.930 . S
N178 C175 1.377 . S
N178 C177 1.344 . S
O179 Co171 2.055 . S
O179 C183 1.253 . S
H180 C176 0.931 . S
H181 C177 0.930 . S
O182 Co171 2.039 . S
O182 C172 1.265 . S
C183 O179 1.253 . S
C183 O184 1.227 . S
O184 C183 1.227 . S
N185 Co171 2.140 . S
N185 C188 1.346 . S
N185 C189 1.345 . S
C186 C187 1.387 . S
C186 C190 1.391 . S
C187 C186 1.387 . S
C187 C188 1.369 . S
C187 H196 0.929 . S
C188 N185 1.346 . S
C188 C187 1.369 . S
C188 H191 0.928 . S
C189 N185 1.345 . S
C189 C190 1.371 . S
C189 H192 0.931 . S
C190 C186 1.391 . S
C190 C189 1.371 . S
C190 H197 0.930 . S
H191 C188 0.928 . S
H192 C189 0.931 . S
H193 C169 0.930 . S
H194 C166 0.930 . S
H195 C175 0.930 . S
H196 C187 0.929 . S
H197 C190 0.930 . S
C198 C199 1.351 . S
C198 N201 1.368 . S
C198 H203 0.931 . S
C199 C198 1.351 . S
C199 N200 1.373 . S
C199 H227 0.930 . S
N200 C199 1.373 . S
N200 C202 1.340 . S
N201 C198 1.368 . S
N201 C202 1.321 . S
N201 Co204 2.135 . S
C202 N200 1.340 . S
C202 N201 1.321 . S
C202 H226 0.930 . S
H203 C198 0.931 . S
Co204 N201 2.135 . S
Co204 N207 2.121 . S
Co204 O212 2.055 . S
Co204 O215 2.039 . S
Co204 N218 2.140 . S
C205 O206 1.227 . S
C205 O215 1.265 . S
O206 C205 1.227 . S
N207 Co204 2.121 . S
N207 C209 1.375 . S
N207 C210 1.313 . S
C208 C209 1.338 . S
C208 N211 1.377 . S
C208 H228 0.930 . S
C209 N207 1.375 . S
C209 C208 1.338 . S
C209 H213 0.931 . S
C210 N207 1.313 . S
C210 N211 1.344 . S
C210 H214 0.930 . S
N211 C208 1.377 . S
N211 C210 1.344 . S
O212 Co204 2.055 . S
O212 C216 1.253 . S
H213 C209 0.931 . S
H214 C210 0.930 . S
O215 Co204 2.039 . S
O215 C205 1.265 . S
C216 O212 1.253 . S
C216 O217 1.227 . S
O217 C216 1.227 . S
N218 Co204 2.140 . S
N218 C221 1.346 . S
N218 C222 1.345 . S
C219 C220 1.387 . S
C219 C223 1.391 . S
C220 C219 1.387 . S
C220 C221 1.369 . S
C220 H229 0.929 . S
C221 N218 1.346 . S
C221 C220 1.369 . S
C221 H224 0.928 . S
C222 N218 1.345 . S
C222 C223 1.371 . S
C222 H225 0.931 . S
C223 C219 1.391 . S
C223 C222 1.371 . S
C223 H230 0.930 . S
H224 C221 0.928 . S
H225 C222 0.931 . S
H226 C202 0.930 . S
H227 C199 0.930 . S
H228 C208 0.930 . S
H229 C220 0.929 . S
H230 C223 0.930 . S
C231 C232 1.351 . S
C231 N234 1.368 . S
C231 H236 0.931 . S
C232 C231 1.351 . S
C232 N233 1.373 . S
C232 H260 0.930 . S
N233 C232 1.373 . S
N233 C235 1.340 . S
N234 C231 1.368 . S
N234 C235 1.321 . S
N234 Co237 2.135 . S
C235 N233 1.340 . S
C235 N234 1.321 . S
C235 H259 0.930 . S
H236 C231 0.931 . S
Co237 N234 2.135 . S
Co237 N240 2.121 . S
Co237 O245 2.055 . S
Co237 O248 2.039 . S
Co237 N251 2.140 . S
C238 O239 1.227 . S
C238 O248 1.265 . S
O239 C238 1.227 . S
N240 Co237 2.121 . S
N240 C242 1.375 . S
N240 C243 1.313 . S
C241 C242 1.338 . S
C241 N244 1.377 . S
C241 H261 0.930 . S
C242 N240 1.375 . S
C242 C241 1.338 . S
C242 H246 0.931 . S
C243 N240 1.313 . S
C243 N244 1.344 . S
C243 H247 0.930 . S
N244 C241 1.377 . S
N244 C243 1.344 . S
O245 Co237 2.055 . S
O245 C249 1.253 . S
H246 C242 0.931 . S
H247 C243 0.930 . S
O248 Co237 2.039 . S
O248 C238 1.265 . S
C249 O245 1.253 . S
C249 O250 1.227 . S
O250 C249 1.227 . S
N251 Co237 2.140 . S
N251 C254 1.346 1_455 S
N251 C255 1.345 . S
C252 C253 1.387 . S
C252 C256 1.391 . S
C253 C252 1.387 . S
C253 C254 1.369 . S
C253 H262 0.929 . S
C254 N251 1.346 1_655 S
C254 C253 1.369 . S
C254 H257 0.928 . S
C255 N251 1.345 . S
C255 C256 1.371 1_455 S
C255 H258 0.931 . S
C256 C252 1.391 . S
C256 C255 1.371 1_655 S
C256 H263 0.930 . S
H257 C254 0.928 . S
H258 C255 0.931 . S
H259 C235 0.930 . S
H260 C232 0.930 . S
H261 C241 0.930 . S
H262 C253 0.929 . S
H263 C256 0.930 . S
C264 C265 1.351 . S
C264 N267 1.368 . S
C264 H269 0.931 . S
C265 C264 1.351 . S
C265 N266 1.373 . S
C265 H293 0.930 . S
N266 C265 1.373 . S
N266 C268 1.340 . S
N267 C264 1.368 . S
N267 C268 1.321 . S
N267 Co270 2.135 . S
C268 N266 1.340 . S
C268 N267 1.321 . S
C268 H292 0.930 . S
H269 C264 0.931 . S
Co270 N267 2.135 . S
Co270 N273 2.121 . S
Co270 O278 2.055 . S
Co270 O281 2.039 . S
Co270 N284 2.140 . S
C271 O272 1.227 . S
C271 O281 1.265 . S
O272 C271 1.227 . S
N273 Co270 2.121 . S
N273 C275 1.375 . S
N273 C276 1.313 . S
C274 C275 1.338 . S
C274 N277 1.377 . S
C274 H294 0.930 . S
C275 N273 1.375 . S
C275 C274 1.338 . S
C275 H279 0.931 . S
C276 N273 1.313 . S
C276 N277 1.344 . S
C276 H280 0.930 . S
N277 C274 1.377 . S
N277 C276 1.344 . S
O278 Co270 2.055 . S
O278 C282 1.253 . S
H279 C275 0.931 . S
H280 C276 0.930 . S
O281 Co270 2.039 . S
O281 C271 1.265 . S
C282 O278 1.253 . S
C282 O283 1.227 . S
O283 C282 1.227 . S
N284 Co270 2.140 . S
N284 C287 1.346 . S
N284 C288 1.345 . S
C285 C286 1.387 . S
C285 C289 1.391 . S
C286 C285 1.387 . S
C286 C287 1.369 . S
C286 H295 0.929 . S
C287 N284 1.346 . S
C287 C286 1.369 . S
C287 H290 0.928 . S
C288 N284 1.345 . S
C288 C289 1.371 . S
C288 H291 0.931 . S
C289 C285 1.391 . S
C289 C288 1.371 . S
C289 H296 0.930 . S
H290 C287 0.928 . S
H291 C288 0.931 . S
H292 C268 0.930 . S
H293 C265 0.930 . S
H294 C274 0.930 . S
H295 C286 0.929 . S
H296 C289 0.930 . S
C297 C298 1.351 . S
C297 N300 1.368 . S
C297 H302 0.931 . S
C298 C297 1.351 . S
C298 N299 1.373 . S
C298 H326 0.930 . S
N299 C298 1.373 . S
N299 C301 1.340 . S
N300 C297 1.368 . S
N300 C301 1.321 . S
N300 Co303 2.135 . S
C301 N299 1.340 . S
C301 N300 1.321 . S
C301 H325 0.930 . S
H302 C297 0.931 . S
Co303 N300 2.135 . S
Co303 N306 2.121 . S
Co303 O311 2.055 . S
Co303 O314 2.039 . S
Co303 N317 2.140 . S
C304 O305 1.227 . S
C304 O314 1.265 . S
O305 C304 1.227 . S
N306 Co303 2.121 . S
N306 C308 1.375 . S
N306 C309 1.313 . S
C307 C308 1.338 . S
C307 N310 1.377 . S
C307 H327 0.930 . S
C308 N306 1.375 . S
C308 C307 1.338 . S
C308 H312 0.931 . S
C309 N306 1.313 . S
C309 N310 1.344 . S
C309 H313 0.930 . S
N310 C307 1.377 . S
N310 C309 1.344 . S
O311 Co303 2.055 . S
O311 C315 1.253 . S
H312 C308 0.931 . S
H313 C309 0.930 . S
O314 Co303 2.039 . S
O314 C304 1.265 . S
C315 O311 1.253 . S
C315 O316 1.227 . S
O316 C315 1.227 . S
N317 Co303 2.140 . S
N317 C320 1.346 1_655 S
N317 C321 1.345 . S
C318 C319 1.387 . S
C318 C322 1.391 . S
C319 C318 1.387 . S
C319 C320 1.369 . S
C319 H328 0.929 . S
C320 N317 1.346 1_455 S
C320 C319 1.369 . S
C320 H323 0.928 . S
C321 N317 1.345 . S
C321 C322 1.371 1_655 S
C321 H324 0.931 . S
C322 C318 1.391 . S
C322 C321 1.371 1_455 S
C322 H329 0.930 . S
H323 C320 0.928 . S
H324 C321 0.931 . S
H325 C301 0.930 . S
H326 C298 0.930 . S
H327 C307 0.930 . S
H328 C319 0.929 . S
H329 C322 0.930 . S
C330 C331 1.351 . S
C330 N333 1.368 . S
C330 H335 0.931 . S
C331 C330 1.351 . S
C331 N332 1.373 . S
C331 H359 0.930 . S
N332 C331 1.373 . S
N332 C334 1.340 . S
N333 C330 1.368 . S
N333 C334 1.321 . S
N333 Co336 2.135 . S
C334 N332 1.340 . S
C334 N333 1.321 . S
C334 H358 0.930 . S
H335 C330 0.931 . S
Co336 N333 2.135 . S
Co336 N339 2.121 . S
Co336 O344 2.055 . S
Co336 O347 2.039 . S
Co336 N350 2.140 . S
C337 O338 1.227 . S
C337 O347 1.265 . S
O338 C337 1.227 . S
N339 Co336 2.121 . S
N339 C341 1.375 . S
N339 C342 1.313 . S
C340 C341 1.338 . S
C340 N343 1.377 . S
C340 H360 0.930 . S
C341 N339 1.375 . S
C341 C340 1.338 . S
C341 H345 0.931 . S
C342 N339 1.313 . S
C342 N343 1.344 . S
C342 H346 0.930 . S
N343 C340 1.377 . S
N343 C342 1.344 . S
O344 Co336 2.055 . S
O344 C348 1.253 . S
H345 C341 0.931 . S
H346 C342 0.930 . S
O347 Co336 2.039 . S
O347 C337 1.265 . S
C348 O344 1.253 . S
C348 O349 1.227 . S
O349 C348 1.227 . S
N350 Co336 2.140 . S
N350 C353 1.346 1_455 S
N350 C354 1.345 . S
C351 C352 1.387 . S
C351 C355 1.391 . S
C352 C351 1.387 . S
C352 C353 1.369 . S
C352 H361 0.929 . S
C353 N350 1.346 1_655 S
C353 C352 1.369 . S
C353 H356 0.928 . S
C354 N350 1.345 . S
C354 C355 1.371 1_455 S
C354 H357 0.931 . S
C355 C351 1.391 . S
C355 C354 1.371 1_655 S
C355 H362 0.930 . S
H356 C353 0.928 . S
H357 C354 0.931 . S
H358 C334 0.930 . S
H359 C331 0.930 . S
H360 C340 0.930 . S
H361 C352 0.929 . S
H362 C355 0.930 . S
C363 C364 1.351 . S
C363 N366 1.368 . S
C363 H368 0.931 . S
C364 C363 1.351 . S
C364 N365 1.373 . S
C364 H392 0.930 . S
N365 C364 1.373 . S
N365 C367 1.340 . S
N366 C363 1.368 . S
N366 C367 1.321 . S
N366 Co369 2.135 . S
C367 N365 1.340 . S
C367 N366 1.321 . S
C367 H391 0.930 . S
H368 C363 0.931 . S
Co369 N366 2.135 . S
Co369 N372 2.121 . S
Co369 O377 2.055 . S
Co369 O380 2.039 . S
Co369 N383 2.140 . S
C370 O371 1.227 . S
C370 O380 1.265 . S
O371 C370 1.227 . S
N372 Co369 2.121 . S
N372 C374 1.375 . S
N372 C375 1.313 . S
C373 C374 1.338 . S
C373 N376 1.377 . S
C373 H393 0.930 . S
C374 N372 1.375 . S
C374 C373 1.338 . S
C374 H378 0.931 . S
C375 N372 1.313 . S
C375 N376 1.344 . S
C375 H379 0.930 . S
N376 C373 1.377 . S
N376 C375 1.344 . S
O377 Co369 2.055 . S
O377 C381 1.253 . S
H378 C374 0.931 . S
H379 C375 0.930 . S
O380 Co369 2.039 . S
O380 C370 1.265 . S
C381 O377 1.253 . S
C381 O382 1.227 . S
O382 C381 1.227 . S
N383 Co369 2.140 . S
N383 C386 1.346 . S
N383 C387 1.345 . S
C384 C385 1.387 . S
C384 C388 1.391 . S
C385 C384 1.387 . S
C385 C386 1.369 . S
C385 H394 0.929 . S
C386 N383 1.346 . S
C386 C385 1.369 . S
C386 H389 0.928 . S
C387 N383 1.345 . S
C387 C388 1.371 . S
C387 H390 0.931 . S
C388 C384 1.391 . S
C388 C387 1.371 . S
C388 H395 0.930 . S
H389 C386 0.928 . S
H390 C387 0.931 . S
H391 C367 0.930 . S
H392 C364 0.930 . S
H393 C373 0.930 . S
H394 C385 0.929 . S
H395 C388 0.930 . S
C396 C397 1.351 . S
C396 N399 1.368 . S
C396 H401 0.931 . S
C397 C396 1.351 . S
C397 N398 1.373 . S
C397 H425 0.930 . S
N398 C397 1.373 . S
N398 C400 1.340 . S
N399 C396 1.368 . S
N399 C400 1.321 . S
N399 Co402 2.135 . S
C400 N398 1.340 . S
C400 N399 1.321 . S
C400 H424 0.930 . S
H401 C396 0.931 . S
Co402 N399 2.135 . S
Co402 N405 2.121 . S
Co402 O410 2.055 . S
Co402 O413 2.039 . S
Co402 N416 2.140 . S
C403 O404 1.227 . S
C403 O413 1.265 . S
O404 C403 1.227 . S
N405 Co402 2.121 . S
N405 C407 1.375 . S
N405 C408 1.313 . S
C406 C407 1.338 . S
C406 N409 1.377 . S
C406 H426 0.930 . S
C407 N405 1.375 . S
C407 C406 1.338 . S
C407 H411 0.931 . S
C408 N405 1.313 . S
C408 N409 1.344 . S
C408 H412 0.930 . S
N409 C406 1.377 . S
N409 C408 1.344 . S
O410 Co402 2.055 . S
O410 C414 1.253 . S
H411 C407 0.931 . S
H412 C408 0.930 . S
O413 Co402 2.039 . S
O413 C403 1.265 . S
C414 O410 1.253 . S
C414 O415 1.227 . S
O415 C414 1.227 . S
N416 Co402 2.140 . S
N416 C419 1.346 . S
N416 C420 1.345 . S
C417 C418 1.387 . S
C417 C421 1.391 . S
C418 C417 1.387 . S
C418 C419 1.369 . S
C418 H427 0.929 . S
C419 N416 1.346 . S
C419 C418 1.369 . S
C419 H422 0.928 . S
C420 N416 1.345 . S
C420 C421 1.371 . S
C420 H423 0.931 . S
C421 C417 1.391 . S
C421 C420 1.371 . S
C421 H428 0.930 . S
H422 C419 0.928 . S
H423 C420 0.931 . S
H424 C400 0.930 . S
H425 C397 0.930 . S
H426 C406 0.930 . S
H427 C418 0.929 . S
H428 C421 0.930 . S
C429 C430 1.351 . S
C429 N432 1.368 . S
C429 H434 0.931 . S
C430 C429 1.351 . S
C430 N431 1.373 . S
C430 H458 0.930 . S
N431 C430 1.373 . S
N431 C433 1.340 . S
N432 C429 1.368 . S
N432 C433 1.321 . S
N432 Co435 2.135 . S
C433 N431 1.340 . S
C433 N432 1.321 . S
C433 H457 0.930 . S
H434 C429 0.931 . S
Co435 N432 2.135 . S
Co435 N438 2.121 . S
Co435 O443 2.055 . S
Co435 O446 2.039 . S
Co435 N449 2.140 . S
C436 O437 1.227 . S
C436 O446 1.265 . S
O437 C436 1.227 . S
N438 Co435 2.121 . S
N438 C440 1.375 . S
N438 C441 1.313 . S
C439 C440 1.338 . S
C439 N442 1.377 . S
C439 H459 0.930 . S
C440 N438 1.375 . S
C440 C439 1.338 . S
C440 H444 0.931 . S
C441 N438 1.313 . S
C441 N442 1.344 . S
C441 H445 0.930 . S
N442 C439 1.377 . S
N442 C441 1.344 . S
O443 Co435 2.055 . S
O443 C447 1.253 . S
H444 C440 0.931 . S
H445 C441 0.930 . S
O446 Co435 2.039 . S
O446 C436 1.265 . S
C447 O443 1.253 . S
C447 O448 1.227 . S
O448 C447 1.227 . S
N449 Co435 2.140 . S
N449 C452 1.346 1_455 S
N449 C453 1.345 . S
C450 C451 1.387 . S
C450 C454 1.391 . S
C451 C450 1.387 . S
C451 C452 1.369 . S
C451 H460 0.929 . S
C452 N449 1.346 1_655 S
C452 C451 1.369 . S
C452 H455 0.928 . S
C453 N449 1.345 . S
C453 C454 1.371 1_455 S
C453 H456 0.931 . S
C454 C450 1.391 . S
C454 C453 1.371 1_655 S
C454 H461 0.930 . S
H455 C452 0.928 . S
H456 C453 0.931 . S
H457 C433 0.930 . S
H458 C430 0.930 . S
H459 C439 0.930 . S
H460 C451 0.929 . S
H461 C454 0.930 . S
C462 C463 1.351 . S
C462 N465 1.368 . S
C462 H467 0.931 . S
C463 C462 1.351 . S
C463 N464 1.373 . S
C463 H491 0.930 . S
N464 C463 1.373 . S
N464 C466 1.340 . S
N465 C462 1.368 . S
N465 C466 1.321 . S
N465 Co468 2.135 . S
C466 N464 1.340 . S
C466 N465 1.321 . S
C466 H490 0.930 . S
H467 C462 0.931 . S
Co468 N465 2.135 . S
Co468 N471 2.121 . S
Co468 O476 2.055 . S
Co468 O479 2.039 . S
Co468 N482 2.140 . S
C469 O470 1.227 . S
C469 O479 1.265 . S
O470 C469 1.227 . S
N471 Co468 2.121 . S
N471 C473 1.375 . S
N471 C474 1.313 . S
C472 C473 1.338 . S
C472 N475 1.377 . S
C472 H492 0.930 . S
C473 N471 1.375 . S
C473 C472 1.338 . S
C473 H477 0.931 . S
C474 N471 1.313 . S
C474 N475 1.344 . S
C474 H478 0.930 . S
N475 C472 1.377 . S
N475 C474 1.344 . S
O476 Co468 2.055 . S
O476 C480 1.253 . S
H477 C473 0.931 . S
H478 C474 0.930 . S
O479 Co468 2.039 . S
O479 C469 1.265 . S
C480 O476 1.253 . S
C480 O481 1.227 . S
O481 C480 1.227 . S
N482 Co468 2.140 . S
N482 C485 1.346 1_655 S
N482 C486 1.345 . S
C483 C484 1.387 . S
C483 C487 1.391 . S
C484 C483 1.387 . S
C484 C485 1.369 . S
C484 H493 0.929 . S
C485 N482 1.346 1_455 S
C485 C484 1.369 . S
C485 H488 0.928 . S
C486 N482 1.345 . S
C486 C487 1.371 1_655 S
C486 H489 0.931 . S
C487 C483 1.391 . S
C487 C486 1.371 1_455 S
C487 H494 0.930 . S
H488 C485 0.928 . S
H489 C486 0.931 . S
H490 C466 0.930 . S
H491 C463 0.930 . S
H492 C472 0.930 . S
H493 C484 0.929 . S
H494 C487 0.930 . S
C495 C496 1.351 . S
C495 N498 1.368 . S
C495 H500 0.931 . S
C496 C495 1.351 . S
C496 N497 1.373 . S
C496 H524 0.930 . S
N497 C496 1.373 . S
N497 C499 1.340 . S
N498 C495 1.368 . S
N498 C499 1.321 . S
N498 Co501 2.135 . S
C499 N497 1.340 . S
C499 N498 1.321 . S
C499 H523 0.930 . S
H500 C495 0.931 . S
Co501 N498 2.135 . S
Co501 N504 2.121 . S
Co501 O509 2.055 . S
Co501 O512 2.039 . S
Co501 N515 2.140 . S
C502 O503 1.227 . S
C502 O512 1.265 . S
O503 C502 1.227 . S
N504 Co501 2.121 . S
N504 C506 1.375 . S
N504 C507 1.313 . S
C505 C506 1.338 . S
C505 N508 1.377 . S
C505 H525 0.930 . S
C506 N504 1.375 . S
C506 C505 1.338 . S
C506 H510 0.931 . S
C507 N504 1.313 . S
C507 N508 1.344 . S
C507 H511 0.930 . S
N508 C505 1.377 . S
N508 C507 1.344 . S
O509 Co501 2.055 . S
O509 C513 1.253 . S
H510 C506 0.931 . S
H511 C507 0.930 . S
O512 Co501 2.039 . S
O512 C502 1.265 . S
C513 O509 1.253 . S
C513 O514 1.227 . S
O514 C513 1.227 . S
N515 Co501 2.140 . S
N515 C518 1.346 . S
N515 C519 1.345 . S
C516 C517 1.387 . S
C516 C520 1.391 . S
C517 C516 1.387 . S
C517 C518 1.369 . S
C517 H526 0.929 . S
C518 N515 1.346 . S
C518 C517 1.369 . S
C518 H521 0.928 . S
C519 N515 1.345 . S
C519 C520 1.371 . S
C519 H522 0.931 . S
C520 C516 1.391 . S
C520 C519 1.371 . S
C520 H527 0.930 . S
H521 C518 0.928 . S
H522 C519 0.931 . S
H523 C499 0.930 . S
H524 C496 0.930 . S
H525 C505 0.930 . S
H526 C517 0.929 . S
H527 C520 0.930 . S
H528 C536 0.929 . S
H529 C538 0.930 . S
H530 C540 0.930 1_554 S
H531 C543 0.929 . S
H532 C546 0.930 . S
H533 C548 0.960 . S
H534 C548 0.960 1_556 S
H535 C548 0.960 . S
C536 H528 0.929 . S
C536 C537 1.377 . S
C536 C538 1.384 . S
C537 C536 1.377 . S
C537 C543 1.390 . S
C538 H529 0.930 . S
C538 C536 1.384 . S
C538 C539 1.372 . S
C539 C538 1.372 . S
C539 C540 1.400 . S
C539 C544 1.490 . S
C540 H530 0.930 1_556 S
C540 C539 1.400 . S
C540 C543 1.386 . S
H541 C557 0.930 . S
H542 C558 0.931 . S
C543 H531 0.929 . S
C543 C537 1.390 . S
C543 C540 1.386 . S
C544 C539 1.490 . S
C544 C546 1.395 . S
C544 C547 1.403 1_556 S
H545 C551 0.930 . S
C546 H532 0.930 . S
C546 C544 1.395 . S
C546 C549 1.403 1_556 S
C547 C544 1.403 1_554 S
C547 C548 1.524 . S
C547 C551 1.400 . S
C548 H533 0.960 . S
C548 H534 0.960 1_554 S
C548 H535 0.960 . S
C548 C547 1.524 . S
C549 C546 1.403 1_554 S
C549 C550 1.392 . S
C549 C553 1.495 . S
C550 C549 1.392 . S
C550 C551 1.385 . S
C550 C552 1.478 . S
C551 H545 0.930 . S
C551 C547 1.400 . S
C551 C550 1.385 . S
C552 C550 1.478 . S
C552 C554 1.381 . S
C552 C558 1.383 . S
C553 C549 1.495 . S
C553 H559 0.959 1_554 S
C553 H560 0.961 . S
C553 H561 0.960 1_554 S
C554 C552 1.381 . S
C554 C555 1.394 . S
C554 H562 0.930 . S
C555 C554 1.394 . S
C555 C556 1.383 . S
C555 H563 0.929 . S
C556 C555 1.383 . S
C556 C557 1.377 . S
C557 H541 0.930 . S
C557 C556 1.377 . S
C557 C558 1.379 . S
C558 H542 0.931 . S
C558 C552 1.383 . S
C558 C557 1.379 . S
H559 C553 0.959 1_556 S
H560 C553 0.961 . S
H561 C553 0.960 1_556 S
H562 C554 0.930 . S
H563 C555 0.929 . S
H564 C572 0.929 . S
H565 C574 0.930 . S
H566 C576 0.930 . S
H567 C579 0.929 . S
H568 C582 0.930 . S
H569 C584 0.960 . S
H570 C584 0.960 . S
H571 C584 0.960 . S
C572 H564 0.929 . S
C572 C573 1.377 . S
C572 C574 1.384 . S
C573 C572 1.377 . S
C573 C579 1.390 . S
C574 H565 0.930 . S
C574 C572 1.384 . S
C574 C575 1.372 . S
C575 C574 1.372 . S
C575 C576 1.400 . S
C575 C580 1.490 . S
C576 H566 0.930 . S
C576 C575 1.400 . S
C576 C579 1.386 . S
H577 C593 0.930 . S
H578 C594 0.931 . S
C579 H567 0.929 . S
C579 C573 1.390 . S
C579 C576 1.386 . S
C580 C575 1.490 . S
C580 C582 1.395 . S
C580 C583 1.403 1_556 S
H581 C587 0.930 . S
C582 H568 0.930 . S
C582 C580 1.395 . S
C582 C585 1.403 . S
C583 C580 1.403 1_554 S
C583 C584 1.524 . S
C583 C587 1.400 . S
C584 H569 0.960 . S
C584 H570 0.960 . S
C584 H571 0.960 . S
C584 C583 1.524 . S
C585 C582 1.403 . S
C585 C586 1.392 1_556 S
C585 C589 1.495 . S
C586 C585 1.392 1_554 S
C586 C587 1.385 . S
C586 C588 1.478 . S
C587 H581 0.930 . S
C587 C583 1.400 . S
C587 C586 1.385 . S
C588 C586 1.478 . S
C588 C590 1.381 . S
C588 C594 1.383 . S
C589 C585 1.495 . S
C589 H595 0.959 . S
C589 H596 0.961 . S
C589 H597 0.960 . S
C590 C588 1.381 . S
C590 C591 1.394 . S
C590 H598 0.930 . S
C591 C590 1.394 . S
C591 C592 1.383 . S
C591 H599 0.929 . S
C592 C591 1.383 . S
C592 C593 1.377 . S
C593 H577 0.930 . S
C593 C592 1.377 . S
C593 C594 1.379 . S
C594 H578 0.931 . S
C594 C588 1.383 . S
C594 C593 1.379 . S
H595 C589 0.959 . S
H596 C589 0.961 . S
H597 C589 0.960 . S
H598 C590 0.930 . S
H599 C591 0.929 . S
H600 C608 0.929 . S
H601 C610 0.930 . S
H602 C612 0.930 . S
H603 C615 0.929 . S
H604 C618 0.930 . S
H605 C620 0.960 . S
H606 C620 0.960 . S
H607 C620 0.960 . S
C608 H600 0.929 . S
C608 C609 1.377 . S
C608 C610 1.384 . S
C609 C608 1.377 . S
C609 C615 1.390 . S
C610 H601 0.930 . S
C610 C608 1.384 . S
C610 C611 1.372 . S
C611 C610 1.372 . S
C611 C612 1.400 . S
C611 C616 1.490 . S
C612 H602 0.930 . S
C612 C611 1.400 . S
C612 C615 1.386 . S
H613 C629 0.930 . S
H614 C630 0.931 . S
C615 H603 0.929 . S
C615 C609 1.390 . S
C615 C612 1.386 . S
C616 C611 1.490 . S
C616 C618 1.395 . S
C616 C619 1.403 . S
H617 C623 0.930 . S
C618 H604 0.930 . S
C618 C616 1.395 . S
C618 C621 1.403 . S
C619 C616 1.403 . S
C619 C620 1.524 . S
C619 C623 1.400 . S
C620 H605 0.960 . S
C620 H606 0.960 . S
C620 H607 0.960 . S
C620 C619 1.524 . S
C621 C618 1.403 . S
C621 C622 1.392 . S
C621 C625 1.495 . S
C622 C621 1.392 . S
C622 C623 1.385 . S
C622 C624 1.478 . S
C623 H617 0.930 . S
C623 C619 1.400 . S
C623 C622 1.385 . S
C624 C622 1.478 . S
C624 C626 1.381 . S
C624 C630 1.383 . S
C625 C621 1.495 . S
C625 H631 0.959 . S
C625 H632 0.961 . S
C625 H633 0.960 . S
C626 C624 1.381 . S
C626 C627 1.394 . S
C626 H634 0.930 . S
C627 C626 1.394 . S
C627 C628 1.383 . S
C627 H635 0.929 . S
C628 C627 1.383 . S
C628 C629 1.377 . S
C629 H613 0.930 . S
C629 C628 1.377 . S
C629 C630 1.379 . S
C630 H614 0.931 . S
C630 C624 1.383 . S
C630 C629 1.379 . S
H631 C625 0.959 . S
H632 C625 0.961 . S
H633 C625 0.960 . S
H634 C626 0.930 . S
H635 C627 0.929 . S
H636 C644 0.929 . S
H637 C646 0.930 . S
H638 C648 0.930 . S
H639 C651 0.929 . S
H640 C654 0.930 . S
H641 C656 0.960 . S
H642 C656 0.960 . S
H643 C656 0.960 . S
C644 H636 0.929 . S
C644 C645 1.377 . S
C644 C646 1.384 . S
C645 C644 1.377 . S
C645 C651 1.390 . S
C646 H637 0.930 . S
C646 C644 1.384 . S
C646 C647 1.372 . S
C647 C646 1.372 . S
C647 C648 1.400 . S
C647 C652 1.490 . S
C648 H638 0.930 . S
C648 C647 1.400 . S
C648 C651 1.386 . S
H649 C665 0.930 . S
H650 C666 0.931 . S
C651 H639 0.929 . S
C651 C645 1.390 . S
C651 C648 1.386 . S
C652 C647 1.490 . S
C652 C654 1.395 . S
C652 C655 1.403 . S
H653 C659 0.930 . S
C654 H640 0.930 . S
C654 C652 1.395 . S
C654 C657 1.403 . S
C655 C652 1.403 . S
C655 C656 1.524 . S
C655 C659 1.400 . S
C656 H641 0.960 . S
C656 H642 0.960 . S
C656 H643 0.960 . S
C656 C655 1.524 . S
C657 C654 1.403 . S
C657 C658 1.392 . S
C657 C661 1.495 . S
C658 C657 1.392 . S
C658 C659 1.385 . S
C658 C660 1.478 . S
C659 H653 0.930 . S
C659 C655 1.400 . S
C659 C658 1.385 . S
C660 C658 1.478 . S
C660 C662 1.381 . S
C660 C666 1.383 . S
C661 C657 1.495 . S
C661 H667 0.959 . S
C661 H668 0.961 . S
C661 H669 0.960 . S
C662 C660 1.381 . S
C662 C663 1.394 . S
C662 H670 0.930 . S
C663 C662 1.394 . S
C663 C664 1.383 . S
C663 H671 0.929 . S
C664 C663 1.383 . S
C664 C665 1.377 . S
C665 H649 0.930 . S
C665 C664 1.377 . S
C665 C666 1.379 . S
C666 H650 0.931 . S
C666 C660 1.383 . S
C666 C665 1.379 . S
H667 C661 0.959 . S
H668 C661 0.961 . S
H669 C661 0.960 . S
H670 C662 0.930 . S
H671 C663 0.929 . S
H672 C680 0.929 . S
H673 C682 0.930 . S
H674 C684 0.930 . S
H675 C687 0.929 . S
H676 C690 0.930 . S
H677 C692 0.960 . S
H678 C692 0.960 . S
H679 C692 0.960 . S
C680 H672 0.929 . S
C680 C681 1.377 . S
C680 C682 1.384 . S
C681 C680 1.377 . S
C681 C687 1.390 . S
C682 H673 0.930 . S
C682 C680 1.384 . S
C682 C683 1.372 . S
C683 C682 1.372 . S
C683 C684 1.400 . S
C683 C688 1.490 . S
C684 H674 0.930 . S
C684 C683 1.400 . S
C684 C687 1.386 . S
H685 C701 0.930 . S
H686 C702 0.931 . S
C687 H675 0.929 . S
C687 C681 1.390 . S
C687 C684 1.386 . S
C688 C683 1.490 . S
C688 C690 1.395 . S
C688 C691 1.403 . S
H689 C695 0.930 . S
C690 H676 0.930 . S
C690 C688 1.395 . S
C690 C693 1.403 1_556 S
C691 C688 1.403 . S
C691 C692 1.524 . S
C691 C695 1.400 . S
C692 H677 0.960 . S
C692 H678 0.960 . S
C692 H679 0.960 . S
C692 C691 1.524 . S
C693 C690 1.403 1_554 S
C693 C694 1.392 . S
C693 C697 1.495 . S
C694 C693 1.392 . S
C694 C695 1.385 1_554 S
C694 C696 1.478 . S
C695 H689 0.930 . S
C695 C691 1.400 . S
C695 C694 1.385 1_556 S
C696 C694 1.478 . S
C696 C698 1.381 . S
C696 C702 1.383 . S
C697 C693 1.495 . S
C697 H703 0.959 . S
C697 H704 0.961 . S
C697 H705 0.960 . S
C698 C696 1.381 . S
C698 C699 1.394 . S
C698 H706 0.930 . S
C699 C698 1.394 . S
C699 C700 1.383 . S
C699 H707 0.929 . S
C700 C699 1.383 . S
C700 C701 1.377 . S
C701 H685 0.930 . S
C701 C700 1.377 . S
C701 C702 1.379 . S
C702 H686 0.931 . S
C702 C696 1.383 . S
C702 C701 1.379 . S
H703 C697 0.959 . S
H704 C697 0.961 . S
H705 C697 0.960 . S
H706 C698 0.930 . S
H707 C699 0.929 . S
H708 C716 0.929 . S
H709 C718 0.930 . S
H710 C720 0.930 . S
H711 C723 0.929 . S
H712 C726 0.930 . S
H713 C728 0.960 . S
H714 C728 0.960 . S
H715 C728 0.960 . S
C716 H708 0.929 . S
C716 C717 1.377 . S
C716 C718 1.384 . S
C717 C716 1.377 . S
C717 C723 1.390 . S
C718 H709 0.930 . S
C718 C716 1.384 . S
C718 C719 1.372 . S
C719 C718 1.372 . S
C719 C720 1.400 . S
C719 C724 1.490 . S
C720 H710 0.930 . S
C720 C719 1.400 . S
C720 C723 1.386 . S
H721 C737 0.930 . S
H722 C738 0.931 . S
C723 H711 0.929 . S
C723 C717 1.390 . S
C723 C720 1.386 . S
C724 C719 1.490 . S
C724 C726 1.395 . S
C724 C727 1.383 1_556 S
H725 C731 0.930 . S
C726 H712 0.930 . S
C726 C724 1.395 . S
C726 C729 1.403 . S
C727 C724 1.383 1_554 S
C727 C728 1.533 . S
C727 C731 1.411 . S
C728 H713 0.960 . S
C728 H714 0.960 . S
C728 H715 0.960 . S
C728 C727 1.533 . S
C729 C726 1.403 . S
C729 C730 1.392 1_556 S
C729 C733 1.495 . S
C730 C729 1.392 1_554 S
C730 C731 1.385 . S
C730 C732 1.478 . S
C731 H725 0.930 . S
C731 C727 1.411 . S
C731 C730 1.385 . S
C732 C730 1.478 . S
C732 C734 1.381 . S
C732 C738 1.383 . S
C733 C729 1.495 . S
C733 H739 0.959 . S
C733 H740 0.961 . S
C733 H741 0.960 . S
C734 C732 1.381 . S
C734 C735 1.394 . S
C734 H742 0.930 . S
C735 C734 1.394 . S
C735 C736 1.383 . S
C735 H743 0.929 . S
C736 C735 1.383 . S
C736 C737 1.377 . S
C737 H721 0.930 . S
C737 C736 1.377 . S
C737 C738 1.379 . S
C738 H722 0.931 . S
C738 C732 1.383 . S
C738 C737 1.379 . S
H739 C733 0.959 . S
H740 C733 0.961 . S
H741 C733 0.960 . S
H742 C734 0.930 . S
H743 C735 0.929 . S
H744 C752 0.929 . S
H745 C754 0.930 . S
H746 C756 0.930 . S
H747 C759 0.929 . S
H748 C762 0.930 . S
H749 C764 0.960 . S
H750 C764 0.960 . S
H751 C764 0.960 . S
C752 H744 0.929 . S
C752 C753 1.377 . S
C752 C754 1.384 . S
C753 C752 1.377 . S
C753 C759 1.390 . S
C754 H745 0.930 . S
C754 C752 1.384 . S
C754 C755 1.372 . S
C755 C754 1.372 . S
C755 C756 1.400 . S
C755 C760 1.490 . S
C756 H746 0.930 . S
C756 C755 1.400 . S
C756 C759 1.386 . S
H757 C773 0.930 . S
H758 C774 0.931 . S
C759 H747 0.929 . S
C759 C753 1.390 . S
C759 C756 1.386 . S
C760 C755 1.490 . S
C760 C762 1.395 . S
C760 C763 1.403 . S
H761 C767 0.930 . S
C762 H748 0.930 . S
C762 C760 1.395 . S
C762 C765 1.403 . S
C763 C760 1.403 . S
C763 C764 1.524 . S
C763 C767 1.400 . S
C764 H749 0.960 . S
C764 H750 0.960 . S
C764 H751 0.960 . S
C764 C763 1.524 . S
C765 C762 1.403 . S
C765 C766 1.392 . S
C765 C769 1.495 . S
C766 C765 1.392 . S
C766 C767 1.385 . S
C766 C768 1.478 . S
C767 H761 0.930 . S
C767 C763 1.400 . S
C767 C766 1.385 . S
C768 C766 1.478 . S
C768 C770 1.381 . S
C768 C774 1.383 . S
C769 C765 1.495 . S
C769 H775 0.959 . S
C769 H776 0.961 . S
C769 H777 0.960 . S
C770 C768 1.381 . S
C770 C771 1.394 . S
C770 H778 0.930 . S
C771 C770 1.394 . S
C771 C772 1.383 . S
C771 H779 0.929 . S
C772 C771 1.383 . S
C772 C773 1.377 . S
C773 H757 0.930 . S
C773 C772 1.377 . S
C773 C774 1.379 . S
C774 H758 0.931 . S
C774 C768 1.383 . S
C774 C773 1.379 . S
H775 C769 0.959 . S
H776 C769 0.961 . S
H777 C769 0.960 . S
H778 C770 0.930 . S
H779 C771 0.929 . S
H780 C788 0.929 . S
H781 C790 0.930 . S
H782 C792 0.930 . S
H783 C795 0.929 . S
H784 C798 0.930 . S
H785 C800 0.960 . S
H786 C800 0.960 . S
H787 C800 0.960 . S
C788 H780 0.929 . S
C788 C789 1.377 . S
C788 C790 1.384 . S
C789 C788 1.377 . S
C789 C795 1.390 . S
C790 H781 0.930 . S
C790 C788 1.384 . S
C790 C791 1.372 . S
C791 C790 1.372 . S
C791 C792 1.400 . S
C791 C796 1.490 . S
C792 H782 0.930 . S
C792 C791 1.400 . S
C792 C795 1.386 . S
H793 C809 0.930 . S
H794 C810 0.931 . S
C795 H783 0.929 . S
C795 C789 1.390 . S
C795 C792 1.386 . S
C796 C791 1.490 . S
C796 C798 1.395 . S
C796 C799 1.403 . S
H797 C803 0.930 . S
C798 H784 0.930 . S
C798 C796 1.395 . S
C798 C801 1.403 . S
C799 C796 1.403 . S
C799 C800 1.524 . S
C799 C803 1.400 . S
C800 H785 0.960 . S
C800 H786 0.960 . S
C800 H787 0.960 . S
C800 C799 1.524 . S
C801 C798 1.403 . S
C801 C802 1.392 . S
C801 C805 1.495 . S
C802 C801 1.392 . S
C802 C803 1.385 . S
C802 C804 1.478 . S
C803 H797 0.930 . S
C803 C799 1.400 . S
C803 C802 1.385 . S
C804 C802 1.478 . S
C804 C806 1.381 . S
C804 C810 1.383 . S
C805 C801 1.495 . S
C805 H811 0.959 . S
C805 H812 0.961 . S
C805 H813 0.960 . S
C806 C804 1.381 . S
C806 C807 1.394 . S
C806 H814 0.930 . S
C807 C806 1.394 . S
C807 C808 1.383 . S
C807 H815 0.929 . S
C808 C807 1.383 . S
C808 C809 1.377 . S
C809 H793 0.930 . S
C809 C808 1.377 . S
C809 C810 1.379 . S
C810 H794 0.931 . S
C810 C804 1.383 . S
C810 C809 1.379 . S
H811 C805 0.959 . S
H812 C805 0.961 . S
H813 C805 0.960 . S
H814 C806 0.930 . S
H815 C807 0.929 . S
H816 C824 0.929 . S
H817 C826 0.930 . S
H818 C828 0.930 . S
H819 C831 0.929 . S
H820 C834 0.937 . S
H821 C836 0.960 . S
H822 C836 0.960 . S
H823 C836 0.960 . S
C824 H816 0.929 . S
C824 C825 1.377 . S
C824 C826 1.384 . S
C825 C824 1.377 . S
C825 C831 1.390 . S
C826 H817 0.930 . S
C826 C824 1.384 . S
C826 C827 1.372 . S
C827 C826 1.372 . S
C827 C828 1.400 . S
C827 C832 1.490 . S
C828 H818 0.930 . S
C828 C827 1.400 . S
C828 C831 1.386 . S
H829 C845 0.930 . S
H830 C846 0.931 . S
C831 H819 0.929 . S
C831 C825 1.390 . S
C831 C828 1.386 . S
C832 C827 1.490 . S
C832 C834 1.372 1_554 S
C832 C835 1.403 . S
H833 C839 0.930 . S
C834 H820 0.937 . S
C834 C832 1.372 1_556 S
C834 C837 1.420 . S
C835 C832 1.403 . S
C835 C836 1.524 . S
C835 C839 1.400 . S
C836 H821 0.960 . S
C836 H822 0.960 . S
C836 H823 0.960 . S
C836 C835 1.524 . S
C837 C834 1.420 . S
C837 C838 1.392 . S
C837 C841 1.495 . S
C838 C837 1.392 . S
C838 C839 1.385 1_556 S
C838 C840 1.478 . S
C839 H833 0.930 . S
C839 C835 1.400 . S
C839 C838 1.385 1_554 S
C840 C838 1.478 . S
C840 C842 1.381 . S
C840 C846 1.383 . S
C841 C837 1.495 . S
C841 H847 0.959 . S
C841 H848 0.961 . S
C841 H849 0.960 . S
C842 C840 1.381 . S
C842 C843 1.394 . S
C842 H850 0.930 . S
C843 C842 1.394 . S
C843 C844 1.383 . S
C843 H851 0.929 . S
C844 C843 1.383 . S
C844 C845 1.377 . S
C845 H829 0.930 . S
C845 C844 1.377 . S
C845 C846 1.379 . S
C846 H830 0.931 . S
C846 C840 1.383 . S
C846 C845 1.379 . S
H847 C841 0.959 . S
H848 C841 0.961 . S
H849 C841 0.960 . S
H850 C842 0.930 . S
H851 C843 0.929 . S
H852 C860 0.929 . S
H853 C862 0.930 . S
H854 C864 0.930 . S
H855 C867 0.929 . S
H856 C870 0.930 . S
H857 C872 0.960 . S
H858 C872 0.960 . S
H859 C872 0.960 . S
C860 H852 0.929 . S
C860 C861 1.377 . S
C860 C862 1.384 . S
C861 C860 1.377 . S
C861 C867 1.390 . S
C862 H853 0.930 . S
C862 C860 1.384 . S
C862 C863 1.372 . S
C863 C862 1.372 . S
C863 C864 1.400 . S
C863 C868 1.490 . S
C864 H854 0.930 . S
C864 C863 1.400 . S
C864 C867 1.386 . S
H865 C881 0.930 . S
H866 C882 0.931 . S
C867 H855 0.929 . S
C867 C861 1.390 . S
C867 C864 1.386 . S
C868 C863 1.490 . S
C868 C870 1.395 1_554 S
C868 C871 1.403 . S
H869 C875 0.930 . S
C870 H856 0.930 . S
C870 C868 1.395 1_556 S
C870 C873 1.403 . S
C871 C868 1.403 . S
C871 C872 1.524 . S
C871 C875 1.400 . S
C872 H857 0.960 . S
C872 H858 0.960 . S
C872 H859 0.960 . S
C872 C871 1.524 . S
C873 C870 1.403 . S
C873 C874 1.392 . S
C873 C877 1.495 . S
C874 C873 1.392 . S
C874 C875 1.385 1_556 S
C874 C876 1.478 . S
C875 H869 0.930 . S
C875 C871 1.400 . S
C875 C874 1.385 1_554 S
C876 C874 1.478 . S
C876 C878 1.381 . S
C876 C882 1.383 . S
C877 C873 1.495 . S
C877 H883 0.959 . S
C877 H884 0.961 . S
C877 H885 0.960 . S
C878 C876 1.381 . S
C878 C879 1.394 . S
C878 H886 0.930 . S
C879 C878 1.394 . S
C879 C880 1.383 . S
C879 H887 0.929 . S
C880 C879 1.383 . S
C880 C881 1.377 . S
C881 H865 0.930 . S
C881 C880 1.377 . S
C881 C882 1.379 . S
C882 H866 0.931 . S
C882 C876 1.383 . S
C882 C881 1.379 . S
H883 C877 0.959 . S
H884 C877 0.961 . S
H885 C877 0.960 . S
H886 C878 0.930 . S
H887 C879 0.929 . S
H888 C896 0.929 . S
H889 C898 0.930 . S
H890 C900 0.930 . S
H891 C903 0.929 . S
H892 C906 0.930 . S
H893 C908 0.960 . S
H894 C908 0.960 . S
H895 C908 0.960 . S
C896 H888 0.929 . S
C896 C897 1.377 . S
C896 C898 1.384 . S
C897 C896 1.377 . S
C897 C903 1.390 . S
C898 H889 0.930 . S
C898 C896 1.384 . S
C898 C899 1.372 . S
C899 C898 1.372 . S
C899 C900 1.400 . S
C899 C904 1.490 . S
C900 H890 0.930 . S
C900 C899 1.400 . S
C900 C903 1.386 . S
H901 C917 0.930 . S
H902 C918 0.931 . S
C903 H891 0.929 . S
C903 C897 1.390 . S
C903 C900 1.386 . S
C904 C899 1.490 . S
C904 C906 1.395 . S
C904 C907 1.403 . S
H905 C911 0.930 . S
C906 H892 0.930 . S
C906 C904 1.395 . S
C906 C909 1.403 . S
C907 C904 1.403 . S
C907 C908 1.524 . S
C907 C911 1.400 . S
C908 H893 0.960 . S
C908 H894 0.960 . S
C908 H895 0.960 . S
C908 C907 1.524 . S
C909 C906 1.403 . S
C909 C910 1.392 . S
C909 C913 1.495 . S
C910 C909 1.392 . S
C910 C911 1.385 . S
C910 C912 1.478 . S
C911 H905 0.930 . S
C911 C907 1.400 . S
C911 C910 1.385 . S
C912 C910 1.478 . S
C912 C914 1.381 . S
C912 C918 1.383 . S
C913 C909 1.495 . S
C913 H919 0.959 . S
C913 H920 0.961 . S
C913 H921 0.960 . S
C914 C912 1.381 . S
C914 C915 1.394 . S
C914 H922 0.930 . S
C915 C914 1.394 . S
C915 C916 1.383 . S
C915 H923 0.929 . S
C916 C915 1.383 . S
C916 C917 1.377 . S
C917 H901 0.930 . S
C917 C916 1.377 . S
C917 C918 1.379 . S
C918 H902 0.931 . S
C918 C912 1.383 . S
C918 C917 1.379 . S
H919 C913 0.959 . S
H920 C913 0.961 . S
H921 C913 0.960 . S
H922 C914 0.930 . S
H923 C915 0.929 . S
H924 C932 0.929 . S
H925 C934 0.930 . S
H926 C936 0.930 . S
H927 C939 0.929 . S
H928 C942 0.930 . S
H929 C944 0.960 . S
H930 C944 0.960 . S
H931 C944 0.960 . S
C932 H924 0.929 . S
C932 C933 1.377 . S
C932 C934 1.384 . S
C933 C932 1.377 . S
C933 C939 1.390 . S
C934 H925 0.930 . S
C934 C932 1.384 . S
C934 C935 1.372 . S
C935 C934 1.372 . S
C935 C936 1.400 . S
C935 C940 1.490 . S
C936 H926 0.930 . S
C936 C935 1.400 . S
C936 C939 1.386 . S
H937 C953 0.930 . S
H938 C954 0.931 . S
C939 H927 0.929 . S
C939 C933 1.390 . S
C939 C936 1.386 . S
C940 C935 1.490 . S
C940 C942 1.395 . S
C940 C943 1.403 . S
H941 C947 0.930 . S
C942 H928 0.930 . S
C942 C940 1.395 . S
C942 C945 1.403 . S
C943 C940 1.403 . S
C943 C944 1.524 . S
C943 C947 1.400 . S
C944 H929 0.960 . S
C944 H930 0.960 . S
C944 H931 0.960 . S
C944 C943 1.524 . S
C945 C942 1.403 . S
C945 C946 1.392 . S
C945 C949 1.495 . S
C946 C945 1.392 . S
C946 C947 1.385 . S
C946 C948 1.478 . S
C947 H941 0.930 . S
C947 C943 1.400 . S
C947 C946 1.385 . S
C948 C946 1.478 . S
C948 C950 1.381 . S
C948 C954 1.383 . S
C949 C945 1.495 . S
C949 H955 0.959 . S
C949 H956 0.961 . S
C949 H957 0.960 . S
C950 C948 1.381 . S
C950 C951 1.394 . S
C950 H958 0.930 . S
C951 C950 1.394 . S
C951 C952 1.383 . S
C951 H959 0.929 . S
C952 C951 1.383 . S
C952 C953 1.377 . S
C953 H937 0.930 . S
C953 C952 1.377 . S
C953 C954 1.379 . S
C954 H938 0.931 . S
C954 C948 1.383 . S
C954 C953 1.379 . S
H955 C949 0.959 . S
H956 C949 0.961 . S
H957 C949 0.960 . S
H958 C950 0.930 . S
H959 C951 0.929 . S
H960 C968 0.929 . S
H961 C970 0.930 . S
H962 C972 0.930 . S
H963 C975 0.929 . S
H964 C978 0.930 . S
H965 C980 0.960 . S
H966 C980 0.960 . S
H967 C980 0.960 . S
C968 H960 0.929 . S
C968 C969 1.377 . S
C968 C970 1.384 . S
C969 C968 1.377 . S
C969 C975 1.390 . S
C970 H961 0.930 . S
C970 C968 1.384 . S
C970 C971 1.372 . S
C971 C970 1.372 . S
C971 C972 1.400 . S
C971 C976 1.490 . S
C972 H962 0.930 . S
C972 C971 1.400 . S
C972 C975 1.386 . S
H973 C989 0.930 . S
H974 C990 0.931 . S
C975 H963 0.929 . S
C975 C969 1.390 . S
C975 C972 1.386 . S
C976 C971 1.490 . S
C976 C978 1.395 1_556 S
C976 C979 1.403 . S
H977 C983 0.930 . S
C978 H964 0.930 . S
C978 C976 1.395 1_554 S
C978 C981 1.403 . S
C979 C976 1.403 . S
C979 C980 1.524 . S
C979 C983 1.400 . S
C980 H965 0.960 . S
C980 H966 0.960 . S
C980 H967 0.960 . S
C980 C979 1.524 . S
C981 C978 1.403 . S
C981 C982 1.392 . S
C981 C985 1.495 . S
C982 C981 1.392 . S
C982 C983 1.385 1_554 S
C982 C984 1.478 . S
C983 H977 0.930 . S
C983 C979 1.400 . S
C983 C982 1.385 1_556 S
C984 C982 1.478 . S
C984 C986 1.381 . S
C984 C990 1.383 . S
C985 C981 1.495 . S
C985 H991 0.959 . S
C985 H992 0.961 . S
C985 H993 0.960 . S
C986 C984 1.381 . S
C986 C987 1.394 . S
C986 H994 0.930 . S
C987 C986 1.394 . S
C987 C988 1.383 . S
C987 H995 0.929 . S
C988 C987 1.383 . S
C988 C989 1.377 . S
C989 H973 0.930 . S
C989 C988 1.377 . S
C989 C990 1.379 . S
C990 H974 0.931 . S
C990 C984 1.383 . S
C990 C989 1.379 . S
H991 C985 0.959 . S
H992 C985 0.961 . S
H993 C985 0.960 . S
H994 C986 0.930 . S
H995 C987 0.929 . S
H996 C1004 0.929 . S
H997 C1006 0.930 . S
H998 C1008 0.930 . S
H999 C1011 0.929 . S
H1000 C1014 0.930 . S
H1001 C1016 0.960 . S
H1002 C1016 0.960 . S
H1003 C1016 0.960 . S
C1004 H996 0.929 . S
C1004 C1005 1.377 . S
C1004 C1006 1.384 . S
C1005 C1004 1.377 . S
C1005 C1011 1.390 . S
C1006 H997 0.930 . S
C1006 C1004 1.384 . S
C1006 C1007 1.372 . S
C1007 C1006 1.372 . S
C1007 C1008 1.400 . S
C1007 C1012 1.490 . S
C1008 H998 0.930 . S
C1008 C1007 1.400 . S
C1008 C1011 1.386 . S
H1009 C1025 0.930 . S
H1010 C1026 0.923 1_556 S
C1011 H999 0.929 . S
C1011 C1005 1.390 . S
C1011 C1008 1.386 . S
C1012 C1007 1.490 . S
C1012 C1014 1.395 . S
C1012 C1015 1.403 . S
H1013 C1019 0.930 . S
C1014 H1000 0.930 . S
C1014 C1012 1.395 . S
C1014 C1017 1.403 1_556 S
C1015 C1012 1.403 . S
C1015 C1016 1.524 . S
C1015 C1019 1.400 . S
C1016 H1001 0.960 . S
C1016 H1002 0.960 . S
C1016 H1003 0.960 . S
C1016 C1015 1.524 . S
C1017 C1014 1.403 1_554 S
C1017 C1018 1.392 . S
C1017 C1021 1.495 . S
C1018 C1017 1.392 . S
C1018 C1019 1.385 1_554 S
C1018 C1020 1.478 . S
C1019 H1013 0.930 . S
C1019 C1015 1.400 . S
C1019 C1018 1.385 1_556 S
C1020 C1018 1.478 . S
C1020 C1022 1.381 . S
C1020 C1026 1.383 . S
C1021 C1017 1.495 . S
C1021 H1027 0.959 . S
C1021 H1028 0.961 . S
C1021 H1029 0.960 . S
C1022 C1020 1.381 . S
C1022 C1023 1.394 . S
C1022 H1030 0.930 . S
C1023 C1022 1.394 . S
C1023 C1024 1.383 . S
C1023 H1031 0.929 . S
C1024 C1023 1.383 . S
C1024 C1025 1.377 . S
C1025 H1009 0.930 . S
C1025 C1024 1.377 . S
C1025 C1026 1.379 . S
C1026 H1010 0.923 1_554 S
C1026 C1020 1.383 . S
C1026 C1025 1.379 . S
H1027 C1021 0.959 . S
H1028 C1021 0.961 . S
H1029 C1021 0.960 . S
H1030 C1022 0.930 . S
H1031 C1023 0.929 . S
H1032 C1040 0.929 . S
H1033 C1042 0.930 . S
H1034 C1044 0.930 . S
H1035 C1047 0.929 . S
H1036 C1050 0.930 . S
H1037 C1052 0.960 . S
H1038 C1052 0.960 . S
H1039 C1052 0.960 . S
C1040 H1032 0.929 . S
C1040 C1041 1.377 . S
C1040 C1042 1.384 . S
C1041 C1040 1.377 . S
C1041 C1047 1.390 . S
C1042 H1033 0.930 . S
C1042 C1040 1.384 . S
C1042 C1043 1.372 . S
C1043 C1042 1.372 . S
C1043 C1044 1.400 . S
C1043 C1048 1.490 . S
C1044 H1034 0.930 . S
C1044 C1043 1.400 . S
C1044 C1047 1.386 . S
H1045 C1061 0.930 . S
H1046 C1062 0.931 . S
C1047 H1035 0.929 . S
C1047 C1041 1.390 . S
C1047 C1044 1.386 . S
C1048 C1043 1.490 . S
C1048 C1050 1.395 . S
C1048 C1051 1.403 . S
H1049 C1055 0.930 . S
C1050 H1036 0.930 . S
C1050 C1048 1.395 . S
C1050 C1053 1.403 . S
C1051 C1048 1.403 . S
C1051 C1052 1.524 . S
C1051 C1055 1.400 . S
C1052 H1037 0.960 . S
C1052 H1038 0.960 . S
C1052 H1039 0.960 . S
C1052 C1051 1.524 . S
C1053 C1050 1.403 . S
C1053 C1054 1.392 . S
C1053 C1057 1.495 . S
C1054 C1053 1.392 . S
C1054 C1055 1.385 . S
C1054 C1056 1.478 . S
C1055 H1049 0.930 . S
C1055 C1051 1.400 . S
C1055 C1054 1.385 . S
C1056 C1054 1.478 . S
C1056 C1058 1.381 . S
C1056 C1062 1.383 . S
C1057 C1053 1.495 . S
C1057 H1063 0.959 . S
C1057 H1064 0.961 . S
C1057 H1065 0.960 . S
C1058 C1056 1.381 . S
C1058 C1059 1.394 . S
C1058 H1066 0.930 . S
C1059 C1058 1.394 . S
C1059 C1060 1.383 . S
C1059 H1067 0.929 . S
C1060 C1059 1.383 . S
C1060 C1061 1.377 . S
C1061 H1045 0.930 . S
C1061 C1060 1.377 . S
C1061 C1062 1.379 . S
C1062 H1046 0.931 . S
C1062 C1056 1.383 . S
C1062 C1061 1.379 . S
H1063 C1057 0.959 . S
H1064 C1057 0.961 . S
H1065 C1057 0.960 . S
H1066 C1058 0.930 . S
H1067 C1059 0.929 . S
H1068 C1076 0.929 . S
H1069 C1078 0.930 . S
H1070 C1080 0.930 . S
H1071 C1083 0.929 . S
H1072 C1086 0.930 . S
H1073 C1088 0.960 . S
H1074 C1088 0.960 . S
H1075 C1088 0.960 . S
C1076 H1068 0.929 . S
C1076 C1077 1.377 . S
C1076 C1078 1.384 . S
C1077 C1076 1.377 . S
C1077 C1083 1.390 . S
C1078 H1069 0.930 . S
C1078 C1076 1.384 . S
C1078 C1079 1.372 . S
C1079 C1078 1.372 . S
C1079 C1080 1.400 . S
C1079 C1084 1.490 . S
C1080 H1070 0.930 . S
C1080 C1079 1.400 . S
C1080 C1083 1.386 . S
H1081 C1097 0.930 . S
H1082 C1098 0.931 . S
C1083 H1071 0.929 . S
C1083 C1077 1.390 . S
C1083 C1080 1.386 . S
C1084 C1079 1.490 . S
C1084 C1086 1.395 . S
C1084 C1087 1.403 . S
H1085 C1091 0.930 . S
C1086 H1072 0.930 . S
C1086 C1084 1.395 . S
C1086 C1089 1.403 . S
C1087 C1084 1.403 . S
C1087 C1088 1.524 . S
C1087 C1091 1.400 . S
C1088 H1073 0.960 . S
C1088 H1074 0.960 . S
C1088 H1075 0.960 . S
C1088 C1087 1.524 . S
C1089 C1086 1.403 . S
C1089 C1090 1.392 . S
C1089 C1093 1.495 . S
C1090 C1089 1.392 . S
C1090 C1091 1.385 . S
C1090 C1092 1.478 . S
C1091 H1085 0.930 . S
C1091 C1087 1.400 . S
C1091 C1090 1.385 . S
C1092 C1090 1.478 . S
C1092 C1094 1.381 . S
C1092 C1098 1.383 . S
C1093 C1089 1.495 . S
C1093 H1099 0.959 . S
C1093 H1100 0.961 . S
C1093 H1101 0.960 . S
C1094 C1092 1.381 . S
C1094 C1095 1.394 . S
C1094 H1102 0.930 . S
C1095 C1094 1.394 . S
C1095 C1096 1.383 . S
C1095 H1103 0.929 . S
C1096 C1095 1.383 . S
C1096 C1097 1.377 . S
C1097 H1081 0.930 . S
C1097 C1096 1.377 . S
C1097 C1098 1.379 . S
C1098 H1082 0.931 . S
C1098 C1092 1.383 . S
C1098 C1097 1.379 . S
H1099 C1093 0.959 . S
H1100 C1093 0.961 . S
H1101 C1093 0.960 . S
H1102 C1094 0.930 . S
H1103 C1095 0.929 . S
H1104 C1112 0.929 . S
H1105 C1114 0.930 . S
H1106 C1116 0.930 . S
H1107 C1119 0.929 . S
H1108 C1122 0.930 . S
H1109 C1124 0.960 . S
H1110 C1124 0.960 . S
H1111 C1124 0.960 . S
C1112 H1104 0.929 . S
C1112 C1113 1.377 . S
C1112 C1114 1.384 . S
C1113 C1112 1.377 . S
C1113 C1119 1.390 . S
C1114 H1105 0.930 . S
C1114 C1112 1.384 . S
C1114 C1115 1.372 . S
C1115 C1114 1.372 . S
C1115 C1116 1.400 . S
C1115 C1120 1.490 . S
C1116 H1106 0.930 . S
C1116 C1115 1.400 . S
C1116 C1119 1.386 . S
H1117 C1133 0.930 . S
H1118 C1134 0.931 . S
C1119 H1107 0.929 . S
C1119 C1113 1.390 . S
C1119 C1116 1.386 . S
C1120 C1115 1.490 . S
C1120 C1122 1.395 . S
C1120 C1123 1.403 . S
H1121 C1127 0.930 . S
C1122 H1108 0.930 . S
C1122 C1120 1.395 . S
C1122 C1125 1.403 1_545 S
C1123 C1120 1.403 . S
C1123 C1124 1.524 . S
C1123 C1127 1.400 1_545 S
C1124 H1109 0.960 . S
C1124 H1110 0.960 . S
C1124 H1111 0.960 . S
C1124 C1123 1.524 . S
C1125 C1122 1.403 1_565 S
C1125 C1126 1.392 . S
C1125 C1129 1.495 . S
C1126 C1125 1.392 . S
C1126 C1127 1.385 . S
C1126 C1128 1.478 . S
C1127 H1121 0.930 . S
C1127 C1123 1.400 1_565 S
C1127 C1126 1.385 . S
C1128 C1126 1.478 . S
C1128 C1130 1.381 . S
C1128 C1134 1.383 . S
C1129 C1125 1.495 . S
C1129 H1135 0.959 . S
C1129 H1136 0.961 . S
C1129 H1137 0.960 . S
C1130 C1128 1.381 . S
C1130 C1131 1.394 . S
C1130 H1138 0.930 . S
C1131 C1130 1.394 . S
C1131 C1132 1.383 . S
C1131 H1139 0.929 . S
C1132 C1131 1.383 . S
C1132 C1133 1.377 . S
C1133 H1117 0.930 . S
C1133 C1132 1.377 . S
C1133 C1134 1.379 . S
C1134 H1118 0.931 . S
C1134 C1128 1.383 . S
C1134 C1133 1.379 . S
H1135 C1129 0.959 . S
H1136 C1129 0.961 . S
H1137 C1129 0.960 . S
H1138 C1130 0.930 . S
H1139 C1131 0.929 . S
H1140 C1148 0.929 . S
H1141 C1150 0.930 . S
H1142 C1152 0.930 . S
H1143 C1155 0.929 . S
H1144 C1158 0.930 . S
H1145 C1160 0.960 . S
H1146 C1160 0.960 . S
H1147 C1160 0.960 . S
C1148 H1140 0.929 . S
C1148 C1149 1.377 . S
C1148 C1150 1.384 . S
C1149 C1148 1.377 . S
C1149 C1155 1.390 . S
C1150 H1141 0.930 . S
C1150 C1148 1.384 . S
C1150 C1151 1.372 . S
C1151 C1150 1.372 . S
C1151 C1152 1.400 . S
C1151 C1156 1.490 . S
C1152 H1142 0.930 . S
C1152 C1151 1.400 . S
C1152 C1155 1.386 . S
H1153 C1169 0.930 . S
H1154 C1170 0.931 . S
C1155 H1143 0.929 . S
C1155 C1149 1.390 . S
C1155 C1152 1.386 . S
C1156 C1151 1.490 . S
C1156 C1158 1.395 1_565 S
C1156 C1159 1.403 . S
H1157 C1163 0.929 1_565 S
C1158 H1144 0.930 . S
C1158 C1156 1.395 1_545 S
C1158 C1161 1.403 . S
C1159 C1156 1.403 . S
C1159 C1160 1.524 . S
C1159 C1163 1.394 1_565 S
C1160 H1145 0.960 . S
C1160 H1146 0.960 . S
C1160 H1147 0.960 . S
C1160 C1159 1.524 . S
C1161 C1158 1.403 . S
C1161 C1162 1.392 . S
C1161 C1165 1.495 . S
C1162 C1161 1.392 . S
C1162 C1163 1.391 . S
C1162 C1164 1.478 . S
C1163 H1157 0.929 1_545 S
C1163 C1159 1.394 1_545 S
C1163 C1162 1.391 . S
C1164 C1162 1.478 . S
C1164 C1166 1.381 . S
C1164 C1170 1.383 . S
C1165 C1161 1.495 . S
C1165 H1171 0.959 . S
C1165 H1172 0.961 . S
C1165 H1173 0.960 . S
C1166 C1164 1.381 . S
C1166 C1167 1.394 . S
C1166 H1174 0.930 . S
C1167 C1166 1.394 . S
C1167 C1168 1.383 . S
C1167 H1175 0.929 . S
C1168 C1167 1.383 . S
C1168 C1169 1.377 . S
C1169 H1153 0.930 . S
C1169 C1168 1.377 . S
C1169 C1170 1.379 . S
C1170 H1154 0.931 . S
C1170 C1164 1.383 . S
C1170 C1169 1.379 . S
H1171 C1165 0.959 . S
H1172 C1165 0.961 . S
H1173 C1165 0.960 . S
H1174 C1166 0.930 . S
H1175 C1167 0.929 . S
H1176 C1184 0.929 . S
H1177 C1186 0.930 . S
H1178 C1188 0.930 . S
H1179 C1191 0.929 . S
H1180 C1194 0.930 . S
H1181 C1196 0.960 . S
H1182 C1196 0.960 . S
H1183 C1196 0.960 . S
C1184 H1176 0.929 . S
C1184 C1185 1.377 . S
C1184 C1186 1.384 . S
C1185 C1184 1.377 . S
C1185 C1191 1.390 . S
C1186 H1177 0.930 . S
C1186 C1184 1.384 . S
C1186 C1187 1.372 . S
C1187 C1186 1.372 . S
C1187 C1188 1.400 . S
C1187 C1192 1.490 . S
C1188 H1178 0.930 . S
C1188 C1187 1.400 . S
C1188 C1191 1.386 . S
H1189 C1205 0.930 . S
H1190 C1206 0.931 . S
C1191 H1179 0.929 . S
C1191 C1185 1.390 . S
C1191 C1188 1.386 . S
C1192 C1187 1.490 . S
C1192 C1194 1.395 1_545 S
C1192 C1195 1.403 . S
H1193 C1199 0.934 . S
C1194 H1180 0.930 . S
C1194 C1192 1.395 1_565 S
C1194 C1197 1.403 . S
C1195 C1192 1.403 . S
C1195 C1196 1.524 . S
C1195 C1199 1.400 1_545 S
C1196 H1181 0.960 . S
C1196 H1182 0.960 . S
C1196 H1183 0.960 . S
C1196 C1195 1.524 . S
C1197 C1194 1.403 . S
C1197 C1198 1.392 . S
C1197 C1201 1.495 . S
C1198 C1197 1.392 . S
C1198 C1199 1.385 . S
C1198 C1200 1.478 . S
C1199 H1193 0.934 . S
C1199 C1195 1.400 1_565 S
C1199 C1198 1.385 . S
C1200 C1198 1.478 . S
C1200 C1202 1.381 . S
C1200 C1206 1.383 . S
C1201 C1197 1.495 . S
C1201 H1207 0.959 . S
C1201 H1208 0.961 . S
C1201 H1209 0.960 . S
C1202 C1200 1.381 . S
C1202 C1203 1.394 . S
C1202 H1210 0.930 . S
C1203 C1202 1.394 . S
C1203 C1204 1.383 . S
C1203 H1211 0.929 . S
C1204 C1203 1.383 . S
C1204 C1205 1.377 . S
C1205 H1189 0.930 . S
C1205 C1204 1.377 . S
C1205 C1206 1.379 . S
C1206 H1190 0.931 . S
C1206 C1200 1.383 . S
C1206 C1205 1.379 . S
H1207 C1201 0.959 . S
H1208 C1201 0.961 . S
H1209 C1201 0.960 . S
H1210 C1202 0.930 . S
H1211 C1203 0.929 . S
H1212 C1220 0.929 . S
H1213 C1222 0.930 . S
H1214 C1224 0.930 . S
H1215 C1227 0.929 . S
H1216 C1230 0.930 . S
H1217 C1232 0.960 . S
H1218 C1232 0.960 . S
H1219 C1232 0.960 . S
C1220 H1212 0.929 . S
C1220 C1221 1.377 . S
C1220 C1222 1.384 . S
C1221 C1220 1.377 . S
C1221 C1227 1.390 . S
C1222 H1213 0.930 . S
C1222 C1220 1.384 . S
C1222 C1223 1.372 . S
C1223 C1222 1.372 . S
C1223 C1224 1.400 . S
C1223 C1228 1.490 . S
C1224 H1214 0.930 . S
C1224 C1223 1.400 . S
C1224 C1227 1.386 . S
H1225 C1241 0.930 . S
H1226 C1242 0.931 . S
C1227 H1215 0.929 . S
C1227 C1221 1.390 . S
C1227 C1224 1.386 . S
C1228 C1223 1.490 . S
C1228 C1230 1.395 1_565 S
C1228 C1231 1.403 . S
H1229 C1235 0.929 . S
C1230 H1216 0.930 . S
C1230 C1228 1.395 1_545 S
C1230 C1233 1.403 . S
C1231 C1228 1.403 . S
C1231 C1232 1.524 . S
C1231 C1235 1.360 1_565 S
C1232 H1217 0.960 . S
C1232 H1218 0.960 . S
C1232 H1219 0.960 . S
C1232 C1231 1.524 . S
C1233 C1230 1.403 . S
C1233 C1234 1.392 . S
C1233 C1237 1.495 . S
C1234 C1233 1.392 . S
C1234 C1235 1.428 . S
C1234 C1236 1.478 . S
C1235 H1229 0.929 . S
C1235 C1231 1.360 1_545 S
C1235 C1234 1.428 . S
C1236 C1234 1.478 . S
C1236 C1238 1.381 . S
C1236 C1242 1.383 . S
C1237 C1233 1.495 . S
C1237 H1243 0.959 . S
C1237 H1244 0.961 . S
C1237 H1245 0.960 . S
C1238 C1236 1.381 . S
C1238 C1239 1.394 . S
C1238 H1246 0.930 . S
C1239 C1238 1.394 . S
C1239 C1240 1.383 . S
C1239 H1247 0.929 . S
C1240 C1239 1.383 . S
C1240 C1241 1.377 . S
C1241 H1225 0.930 . S
C1241 C1240 1.377 . S
C1241 C1242 1.379 . S
C1242 H1226 0.931 . S
C1242 C1236 1.383 . S
C1242 C1241 1.379 . S
H1243 C1237 0.959 . S
H1244 C1237 0.961 . S
H1245 C1237 0.960 . S
H1246 C1238 0.930 . S
H1247 C1239 0.929 . S
H1248 C1256 0.929 . S
H1249 C1258 0.930 . S
H1250 C1260 0.930 . S
H1251 C1263 0.929 . S
H1252 C1266 0.930 . S
H1253 C1268 0.960 . S
H1254 C1268 0.960 . S
H1255 C1268 0.960 . S
C1256 H1248 0.929 . S
C1256 C1257 1.377 . S
C1256 C1258 1.384 . S
C1257 C1256 1.377 . S
C1257 C1263 1.390 . S
C1258 H1249 0.930 . S
C1258 C1256 1.384 . S
C1258 C1259 1.372 . S
C1259 C1258 1.372 . S
C1259 C1260 1.400 . S
C1259 C1264 1.490 . S
C1260 H1250 0.930 . S
C1260 C1259 1.400 . S
C1260 C1263 1.386 . S
H1261 C1277 0.930 . S
H1262 C1278 0.931 . S
C1263 H1251 0.929 . S
C1263 C1257 1.390 . S
C1263 C1260 1.386 . S
C1264 C1259 1.490 . S
C1264 C1266 1.395 . S
C1264 C1267 1.403 . S
H1265 C1271 0.930 . S
C1266 H1252 0.930 . S
C1266 C1264 1.395 . S
C1266 C1269 1.403 . S
C1267 C1264 1.403 . S
C1267 C1268 1.524 . S
C1267 C1271 1.400 . S
C1268 H1253 0.960 . S
C1268 H1254 0.960 . S
C1268 H1255 0.960 . S
C1268 C1267 1.524 . S
C1269 C1266 1.403 . S
C1269 C1270 1.392 . S
C1269 C1273 1.495 . S
C1270 C1269 1.392 . S
C1270 C1271 1.385 . S
C1270 C1272 1.478 . S
C1271 H1265 0.930 . S
C1271 C1267 1.400 . S
C1271 C1270 1.385 . S
C1272 C1270 1.478 . S
C1272 C1274 1.381 . S
C1272 C1278 1.383 . S
C1273 C1269 1.495 . S
C1273 H1279 0.959 . S
C1273 H1280 0.961 . S
C1273 H1281 0.960 . S
C1274 C1272 1.381 . S
C1274 C1275 1.394 . S
C1274 H1282 0.930 . S
C1275 C1274 1.394 . S
C1275 C1276 1.383 . S
C1275 H1283 0.929 . S
C1276 C1275 1.383 . S
C1276 C1277 1.377 . S
C1277 H1261 0.930 . S
C1277 C1276 1.377 . S
C1277 C1278 1.379 . S
C1278 H1262 0.931 . S
C1278 C1272 1.383 . S
C1278 C1277 1.379 . S
H1279 C1273 0.959 . S
H1280 C1273 0.961 . S
H1281 C1273 0.960 . S
H1282 C1274 0.930 . S
H1283 C1275 0.929 . S
H1284 C1292 0.929 . S
H1285 C1294 0.930 . S
H1286 C1296 0.930 . S
H1287 C1299 0.929 . S
H1288 C1302 0.930 . S
H1289 C1304 0.960 . S
H1290 C1304 0.960 . S
H1291 C1304 0.960 . S
C1292 H1284 0.929 . S
C1292 C1293 1.377 . S
C1292 C1294 1.384 . S
C1293 C1292 1.377 . S
C1293 C1299 1.390 . S
C1294 H1285 0.930 . S
C1294 C1292 1.384 . S
C1294 C1295 1.372 . S
C1295 C1294 1.372 . S
C1295 C1296 1.400 . S
C1295 C1300 1.490 . S
C1296 H1286 0.930 . S
C1296 C1295 1.400 . S
C1296 C1299 1.386 . S
H1297 C1313 0.930 . S
H1298 C1314 0.931 . S
C1299 H1287 0.929 . S
C1299 C1293 1.390 . S
C1299 C1296 1.386 . S
C1300 C1295 1.490 . S
C1300 C1302 1.395 . S
C1300 C1303 1.403 . S
H1301 C1307 0.930 . S
C1302 H1288 0.930 . S
C1302 C1300 1.395 . S
C1302 C1305 1.403 . S
C1303 C1300 1.403 . S
C1303 C1304 1.524 . S
C1303 C1307 1.400 . S
C1304 H1289 0.960 . S
C1304 H1290 0.960 . S
C1304 H1291 0.960 . S
C1304 C1303 1.524 . S
C1305 C1302 1.403 . S
C1305 C1306 1.392 . S
C1305 C1309 1.495 . S
C1306 C1305 1.392 . S
C1306 C1307 1.385 . S
C1306 C1308 1.478 . S
C1307 H1301 0.930 . S
C1307 C1303 1.400 . S
C1307 C1306 1.385 . S
C1308 C1306 1.478 . S
C1308 C1310 1.381 . S
C1308 C1314 1.383 . S
C1309 C1305 1.495 . S
C1309 H1315 0.959 . S
C1309 H1316 0.961 . S
C1309 H1317 0.960 . S
C1310 C1308 1.381 . S
C1310 C1311 1.394 . S
C1310 H1318 0.930 . S
C1311 C1310 1.394 . S
C1311 C1312 1.383 . S
C1311 H1319 0.929 . S
C1312 C1311 1.383 . S
C1312 C1313 1.377 . S
C1313 H1297 0.930 . S
C1313 C1312 1.377 . S
C1313 C1314 1.379 . S
C1314 H1298 0.931 . S
C1314 C1308 1.383 . S
C1314 C1313 1.379 . S
H1315 C1309 0.959 . S
H1316 C1309 0.961 . S
H1317 C1309 0.960 . S
H1318 C1310 0.930 . S
H1319 C1311 0.929 . S
H1320 C1328 0.929 . S
H1321 C1330 0.930 . S
H1322 C1332 0.930 . S
H1323 C1335 0.929 . S
H1324 C1338 0.930 . S
H1325 C1340 0.960 . S
H1326 C1340 0.960 . S
H1327 C1340 0.960 . S
C1328 H1320 0.929 . S
C1328 C1329 1.377 . S
C1328 C1330 1.384 . S
C1329 C1328 1.377 . S
C1329 C1335 1.390 . S
C1330 H1321 0.930 . S
C1330 C1328 1.384 . S
C1330 C1331 1.372 . S
C1331 C1330 1.372 . S
C1331 C1332 1.400 . S
C1331 C1336 1.490 . S
C1332 H1322 0.930 . S
C1332 C1331 1.400 . S
C1332 C1335 1.386 . S
H1333 C1349 0.930 . S
H1334 C1350 0.931 . S
C1335 H1323 0.929 . S
C1335 C1329 1.390 . S
C1335 C1332 1.386 . S
C1336 C1331 1.490 . S
C1336 C1338 1.395 . S
C1336 C1339 1.403 . S
H1337 C1343 0.930 . S
C1338 H1324 0.930 . S
C1338 C1336 1.395 . S
C1338 C1341 1.403 . S
C1339 C1336 1.403 . S
C1339 C1340 1.524 . S
C1339 C1343 1.400 . S
C1340 H1325 0.960 . S
C1340 H1326 0.960 . S
C1340 H1327 0.960 . S
C1340 C1339 1.524 . S
C1341 C1338 1.403 . S
C1341 C1342 1.392 . S
C1341 C1345 1.495 . S
C1342 C1341 1.392 . S
C1342 C1343 1.385 . S
C1342 C1344 1.478 . S
C1343 H1337 0.930 . S
C1343 C1339 1.400 . S
C1343 C1342 1.385 . S
C1344 C1342 1.478 . S
C1344 C1346 1.381 . S
C1344 C1350 1.383 . S
C1345 C1341 1.495 . S
C1345 H1351 0.959 . S
C1345 H1352 0.961 . S
C1345 H1353 0.960 . S
C1346 C1344 1.381 . S
C1346 C1347 1.394 . S
C1346 H1354 0.930 . S
C1347 C1346 1.394 . S
C1347 C1348 1.383 . S
C1347 H1355 0.929 . S
C1348 C1347 1.383 . S
C1348 C1349 1.377 . S
C1349 H1333 0.930 . S
C1349 C1348 1.377 . S
C1349 C1350 1.379 . S
C1350 H1334 0.931 . S
C1350 C1344 1.383 . S
C1350 C1349 1.379 . S
H1351 C1345 0.959 . S
H1352 C1345 0.961 . S
H1353 C1345 0.960 . S
H1354 C1346 0.930 . S
H1355 C1347 0.929 . S
H1356 C1364 0.929 . S
H1357 C1366 0.930 . S
H1358 C1368 0.930 . S
H1359 C1371 0.929 . S
H1360 C1374 0.930 . S
H1361 C1376 0.960 . S
H1362 C1376 0.960 . S
H1363 C1376 0.960 . S
C1364 H1356 0.929 . S
C1364 C1365 1.377 . S
C1364 C1366 1.384 . S
C1365 C1364 1.377 . S
C1365 C1371 1.390 . S
C1366 H1357 0.930 . S
C1366 C1364 1.384 . S
C1366 C1367 1.372 . S
C1367 C1366 1.372 . S
C1367 C1368 1.400 . S
C1367 C1372 1.490 . S
C1368 H1358 0.930 . S
C1368 C1367 1.400 . S
C1368 C1371 1.386 . S
H1369 C1385 0.930 . S
H1370 C1386 0.931 . S
C1371 H1359 0.929 . S
C1371 C1365 1.390 . S
C1371 C1368 1.386 . S
C1372 C1367 1.490 . S
C1372 C1374 1.395 . S
C1372 C1375 1.403 . S
H1373 C1379 0.930 . S
C1374 H1360 0.930 . S
C1374 C1372 1.395 . S
C1374 C1377 1.403 . S
C1375 C1372 1.403 . S
C1375 C1376 1.524 . S
C1375 C1379 1.400 . S
C1376 H1361 0.960 . S
C1376 H1362 0.960 . S
C1376 H1363 0.960 . S
C1376 C1375 1.524 . S
C1377 C1374 1.403 . S
C1377 C1378 1.392 . S
C1377 C1381 1.495 . S
C1378 C1377 1.392 . S
C1378 C1379 1.385 . S
C1378 C1380 1.478 . S
C1379 H1373 0.930 . S
C1379 C1375 1.400 . S
C1379 C1378 1.385 . S
C1380 C1378 1.478 . S
C1380 C1382 1.381 . S
C1380 C1386 1.383 . S
C1381 C1377 1.495 . S
C1381 H1387 0.959 . S
C1381 H1388 0.961 . S
C1381 H1389 0.960 . S
C1382 C1380 1.381 . S
C1382 C1383 1.394 . S
C1382 H1390 0.930 . S
C1383 C1382 1.394 . S
C1383 C1384 1.383 . S
C1383 H1391 0.929 . S
C1384 C1383 1.383 . S
C1384 C1385 1.377 . S
C1385 H1369 0.930 . S
C1385 C1384 1.377 . S
C1385 C1386 1.379 . S
C1386 H1370 0.931 . S
C1386 C1380 1.383 . S
C1386 C1385 1.379 . S
H1387 C1381 0.959 . S
H1388 C1381 0.961 . S
H1389 C1381 0.960 . S
H1390 C1382 0.930 . S
H1391 C1383 0.929 . S
H1392 C1400 0.929 1_455 S
H1393 C1402 0.930 . S
H1394 C1404 0.930 . S
H1395 C1407 0.929 . S
H1396 C1410 0.930 . S
H1397 C1412 0.960 . S
H1398 C1412 0.960 . S
H1399 C1412 0.960 . S
C1400 H1392 0.929 1_655 S
C1400 C1401 1.377 . S
C1400 C1402 1.384 1_655 S
C1401 C1400 1.377 . S
C1401 C1407 1.390 . S
C1402 H1393 0.930 . S
C1402 C1400 1.384 1_455 S
C1402 C1403 1.372 1_455 S
C1403 C1402 1.372 1_655 S
C1403 C1404 1.400 . S
C1403 C1408 1.490 . S
C1404 H1394 0.930 . S
C1404 C1403 1.400 . S
C1404 C1407 1.386 . S
H1405 C1421 0.930 1_655 S
H1406 C1422 0.931 1_655 S
C1407 H1395 0.929 . S
C1407 C1401 1.390 . S
C1407 C1404 1.386 . S
C1408 C1403 1.490 . S
C1408 C1410 1.395 1_655 S
C1408 C1411 1.403 . S
H1409 C1415 0.930 . S
C1410 H1396 0.930 . S
C1410 C1408 1.395 1_455 S
C1410 C1413 1.403 . S
C1411 C1408 1.403 . S
C1411 C1412 1.524 . S
C1411 C1415 1.400 . S
C1412 H1397 0.960 . S
C1412 H1398 0.960 . S
C1412 H1399 0.960 . S
C1412 C1411 1.524 . S
C1413 C1410 1.403 . S
C1413 C1414 1.392 . S
C1413 C1417 1.495 . S
C1414 C1413 1.392 . S
C1414 C1415 1.385 1_455 S
C1414 C1416 1.478 . S
C1415 H1409 0.930 . S
C1415 C1411 1.400 . S
C1415 C1414 1.385 1_655 S
C1416 C1414 1.478 . S
C1416 C1418 1.381 . S
C1416 C1422 1.383 . S
C1417 C1413 1.495 . S
C1417 H1423 0.959 . S
C1417 H1424 0.961 . S
C1417 H1425 0.960 . S
C1418 C1416 1.381 . S
C1418 C1419 1.394 . S
C1418 H1426 0.930 . S
C1419 C1418 1.394 . S
C1419 C1420 1.383 . S
C1419 H1427 0.929 . S
C1420 C1419 1.383 . S
C1420 C1421 1.377 . S
C1421 H1405 0.930 1_455 S
C1421 C1420 1.377 . S
C1421 C1422 1.379 . S
C1422 H1406 0.931 1_455 S
C1422 C1416 1.383 . S
C1422 C1421 1.379 . S
H1423 C1417 0.959 . S
H1424 C1417 0.961 . S
H1425 C1417 0.960 . S
H1426 C1418 0.930 . S
H1427 C1419 0.929 . S
H1428 C1436 0.929 . S
H1429 C1438 0.930 . S
H1430 C1440 0.930 . S
H1431 C1443 0.929 . S
H1432 C1446 0.930 . S
H1433 C1448 0.960 . S
H1434 C1448 0.960 . S
H1435 C1448 0.960 . S
C1436 H1428 0.929 . S
C1436 C1437 1.377 . S
C1436 C1438 1.384 . S
C1437 C1436 1.377 . S
C1437 C1443 1.390 . S
C1438 H1429 0.930 . S
C1438 C1436 1.384 . S
C1438 C1439 1.372 . S
C1439 C1438 1.372 . S
C1439 C1440 1.400 . S
C1439 C1444 1.490 . S
C1440 H1430 0.930 . S
C1440 C1439 1.400 . S
C1440 C1443 1.386 . S
H1441 C1457 0.930 . S
H1442 C1458 0.931 . S
C1443 H1431 0.929 . S
C1443 C1437 1.390 . S
C1443 C1440 1.386 . S
C1444 C1439 1.490 . S
C1444 C1446 1.395 . S
C1444 C1447 1.403 . S
H1445 C1451 0.930 . S
C1446 H1432 0.930 . S
C1446 C1444 1.395 . S
C1446 C1449 1.403 . S
C1447 C1444 1.403 . S
C1447 C1448 1.524 . S
C1447 C1451 1.400 . S
C1448 H1433 0.960 . S
C1448 H1434 0.960 . S
C1448 H1435 0.960 . S
C1448 C1447 1.524 . S
C1449 C1446 1.403 . S
C1449 C1450 1.392 . S
C1449 C1453 1.495 . S
C1450 C1449 1.392 . S
C1450 C1451 1.385 . S
C1450 C1452 1.478 . S
C1451 H1445 0.930 . S
C1451 C1447 1.400 . S
C1451 C1450 1.385 . S
C1452 C1450 1.478 . S
C1452 C1454 1.381 . S
C1452 C1458 1.383 . S
C1453 C1449 1.495 . S
C1453 H1459 0.959 . S
C1453 H1460 0.961 . S
C1453 H1461 0.960 . S
C1454 C1452 1.381 . S
C1454 C1455 1.394 . S
C1454 H1462 0.930 . S
C1455 C1454 1.394 . S
C1455 C1456 1.383 . S
C1455 H1463 0.929 . S
C1456 C1455 1.383 . S
C1456 C1457 1.377 . S
C1457 H1441 0.930 . S
C1457 C1456 1.377 . S
C1457 C1458 1.379 . S
C1458 H1442 0.931 . S
C1458 C1452 1.383 . S
C1458 C1457 1.379 . S
H1459 C1453 0.959 . S
H1460 C1453 0.961 . S
H1461 C1453 0.960 . S
H1462 C1454 0.930 . S
H1463 C1455 0.929 . S
H1464 C1472 0.929 . S
H1465 C1474 0.930 . S
H1466 C1476 0.930 . S
H1467 C1479 0.929 . S
H1468 C1482 0.930 . S
H1469 C1484 0.960 . S
H1470 C1484 0.960 . S
H1471 C1484 0.960 . S
C1472 H1464 0.929 . S
C1472 C1473 1.377 . S
C1472 C1474 1.384 . S
C1473 C1472 1.377 . S
C1473 C1479 1.390 . S
C1474 H1465 0.930 . S
C1474 C1472 1.384 . S
C1474 C1475 1.372 . S
C1475 C1474 1.372 . S
C1475 C1476 1.400 . S
C1475 C1480 1.490 . S
C1476 H1466 0.930 . S
C1476 C1475 1.400 . S
C1476 C1479 1.386 . S
H1477 C1493 0.930 . S
H1478 C1494 0.931 . S
C1479 H1467 0.929 . S
C1479 C1473 1.390 . S
C1479 C1476 1.386 . S
C1480 C1475 1.490 . S
C1480 C1482 1.395 . S
C1480 C1483 1.403 . S
H1481 C1487 0.930 . S
C1482 H1468 0.930 . S
C1482 C1480 1.395 . S
C1482 C1485 1.403 . S
C1483 C1480 1.403 . S
C1483 C1484 1.524 . S
C1483 C1487 1.400 . S
C1484 H1469 0.960 . S
C1484 H1470 0.960 . S
C1484 H1471 0.960 . S
C1484 C1483 1.524 . S
C1485 C1482 1.403 . S
C1485 C1486 1.392 . S
C1485 C1489 1.495 . S
C1486 C1485 1.392 . S
C1486 C1487 1.385 . S
C1486 C1488 1.478 . S
C1487 H1481 0.930 . S
C1487 C1483 1.400 . S
C1487 C1486 1.385 . S
C1488 C1486 1.478 . S
C1488 C1490 1.381 . S
C1488 C1494 1.383 . S
C1489 C1485 1.495 . S
C1489 H1495 0.959 . S
C1489 H1496 0.961 . S
C1489 H1497 0.960 . S
C1490 C1488 1.381 . S
C1490 C1491 1.394 . S
C1490 H1498 0.930 . S
C1491 C1490 1.394 . S
C1491 C1492 1.383 . S
C1491 H1499 0.929 . S
C1492 C1491 1.383 . S
C1492 C1493 1.377 . S
C1493 H1477 0.930 . S
C1493 C1492 1.377 . S
C1493 C1494 1.379 . S
C1494 H1478 0.931 . S
C1494 C1488 1.383 . S
C1494 C1493 1.379 . S
H1495 C1489 0.959 . S
H1496 C1489 0.961 . S
H1497 C1489 0.960 . S
H1498 C1490 0.930 . S
H1499 C1491 0.929 . S
H1500 C1508 0.929 . S
H1501 C1510 0.930 . S
H1502 C1512 0.930 . S
H1503 C1515 0.948 . S
H1504 C1518 0.930 . S
H1505 C1520 0.960 . S
H1506 C1520 0.960 1_455 S
H1507 C1520 0.960 . S
C1508 H1500 0.929 . S
C1508 C1509 1.377 . S
C1508 C1510 1.384 . S
C1509 C1508 1.377 . S
C1509 C1515 1.366 1_455 S
C1510 H1501 0.930 . S
C1510 C1508 1.384 . S
C1510 C1511 1.372 . S
C1511 C1510 1.372 . S
C1511 C1512 1.400 1_455 S
C1511 C1516 1.490 . S
C1512 H1502 0.930 . S
C1512 C1511 1.400 1_655 S
C1512 C1515 1.391 . S
H1513 C1529 0.930 . S
H1514 C1530 0.931 . S
C1515 H1503 0.948 . S
C1515 C1509 1.366 1_655 S
C1515 C1512 1.391 . S
C1516 C1511 1.490 . S
C1516 C1518 1.395 . S
C1516 C1519 1.403 1_455 S
H1517 C1523 0.930 . S
C1518 H1504 0.930 . S
C1518 C1516 1.395 . S
C1518 C1521 1.403 . S
C1519 C1516 1.403 1_655 S
C1519 C1520 1.524 . S
C1519 C1523 1.400 . S
C1520 H1505 0.960 . S
C1520 H1506 0.960 1_655 S
C1520 H1507 0.960 . S
C1520 C1519 1.524 . S
C1521 C1518 1.403 . S
C1521 C1522 1.392 1_455 S
C1521 C1525 1.495 . S
C1522 C1521 1.392 1_655 S
C1522 C1523 1.385 . S
C1522 C1524 1.478 . S
C1523 H1517 0.930 . S
C1523 C1519 1.400 . S
C1523 C1522 1.385 . S
C1524 C1522 1.478 . S
C1524 C1526 1.381 1_655 S
C1524 C1530 1.383 . S
C1525 C1521 1.495 . S
C1525 H1531 0.959 . S
C1525 H1532 0.961 1_455 S
C1525 H1533 0.960 . S
C1526 C1524 1.381 1_455 S
C1526 C1527 1.394 . S
C1526 H1534 0.930 . S
C1527 C1526 1.394 . S
C1527 C1528 1.383 1_455 S
C1527 H1535 0.929 . S
C1528 C1527 1.383 1_655 S
C1528 C1529 1.377 . S
C1529 H1513 0.930 . S
C1529 C1528 1.377 . S
C1529 C1530 1.379 . S
C1530 H1514 0.931 . S
C1530 C1524 1.383 . S
C1530 C1529 1.379 . S
H1531 C1525 0.959 . S
H1532 C1525 0.961 1_655 S
H1533 C1525 0.960 . S
H1534 C1526 0.930 . S
H1535 C1527 0.929 . S
H1536 C1544 0.929 . S
H1537 C1546 0.930 . S
H1538 C1548 0.930 . S
H1539 C1551 0.929 . S
H1540 C1554 0.930 . S
H1541 C1556 0.960 . S
H1542 C1556 0.960 . S
H1543 C1556 0.960 . S
C1544 H1536 0.929 . S
C1544 C1545 1.377 . S
C1544 C1546 1.384 . S
C1545 C1544 1.377 . S
C1545 C1551 1.390 . S
C1546 H1537 0.930 . S
C1546 C1544 1.384 . S
C1546 C1547 1.372 . S
C1547 C1546 1.372 . S
C1547 C1548 1.400 . S
C1547 C1552 1.490 . S
C1548 H1538 0.930 . S
C1548 C1547 1.400 . S
C1548 C1551 1.386 . S
H1549 C1565 0.930 . S
H1550 C1566 0.931 1_655 S
C1551 H1539 0.929 . S
C1551 C1545 1.390 . S
C1551 C1548 1.386 . S
C1552 C1547 1.490 . S
C1552 C1554 1.395 . S
C1552 C1555 1.403 1_655 S
H1553 C1559 0.930 . S
C1554 H1540 0.930 . S
C1554 C1552 1.395 . S
C1554 C1557 1.403 . S
C1555 C1552 1.403 1_455 S
C1555 C1556 1.524 . S
C1555 C1559 1.400 . S
C1556 H1541 0.960 . S
C1556 H1542 0.960 . S
C1556 H1543 0.960 . S
C1556 C1555 1.524 . S
C1557 C1554 1.403 . S
C1557 C1558 1.392 1_655 S
C1557 C1561 1.495 . S
C1558 C1557 1.392 1_455 S
C1558 C1559 1.385 . S
C1558 C1560 1.478 . S
C1559 H1553 0.930 . S
C1559 C1555 1.400 . S
C1559 C1558 1.385 . S
C1560 C1558 1.478 . S
C1560 C1562 1.381 . S
C1560 C1566 1.383 . S
C1561 C1557 1.495 . S
C1561 H1567 0.959 . S
C1561 H1568 0.961 . S
C1561 H1569 0.960 . S
C1562 C1560 1.381 . S
C1562 C1563 1.394 . S
C1562 H1570 0.930 . S
C1563 C1562 1.394 . S
C1563 C1564 1.383 . S
C1563 H1571 0.929 . S
C1564 C1563 1.383 . S
C1564 C1565 1.377 . S
C1565 H1549 0.930 . S
C1565 C1564 1.377 . S
C1565 C1566 1.379 . S
C1566 H1550 0.931 1_455 S
C1566 C1560 1.383 . S
C1566 C1565 1.379 . S
H1567 C1561 0.959 . S
H1568 C1561 0.961 . S
H1569 C1561 0.960 . S
H1570 C1562 0.930 . S
H1571 C1563 0.929 . S
H1572 C1580 0.929 . S
H1573 C1582 0.930 . S
H1574 C1584 0.930 . S
H1575 C1587 0.929 . S
H1576 C1590 0.930 . S
H1577 C1592 0.960 . S
H1578 C1592 0.960 . S
H1579 C1592 0.960 . S
C1580 H1572 0.929 . S
C1580 C1581 1.377 . S
C1580 C1582 1.384 . S
C1581 C1580 1.377 . S
C1581 C1587 1.390 . S
C1582 H1573 0.930 . S
C1582 C1580 1.384 . S
C1582 C1583 1.372 . S
C1583 C1582 1.372 . S
C1583 C1584 1.400 . S
C1583 C1588 1.490 . S
C1584 H1574 0.930 . S
C1584 C1583 1.400 . S
C1584 C1587 1.386 . S
H1585 C1601 0.930 . S
H1586 C1602 0.931 . S
C1587 H1575 0.929 . S
C1587 C1581 1.390 . S
C1587 C1584 1.386 . S
C1588 C1583 1.490 . S
C1588 C1590 1.395 . S
C1588 C1591 1.403 . S
H1589 C1595 0.930 . S
C1590 H1576 0.930 . S
C1590 C1588 1.395 . S
C1590 C1593 1.403 . S
C1591 C1588 1.403 . S
C1591 C1592 1.524 . S
C1591 C1595 1.400 . S
C1592 H1577 0.960 . S
C1592 H1578 0.960 . S
C1592 H1579 0.960 . S
C1592 C1591 1.524 . S
C1593 C1590 1.403 . S
C1593 C1594 1.392 . S
C1593 C1597 1.495 . S
C1594 C1593 1.392 . S
C1594 C1595 1.385 . S
C1594 C1596 1.478 . S
C1595 H1589 0.930 . S
C1595 C1591 1.400 . S
C1595 C1594 1.385 . S
C1596 C1594 1.478 . S
C1596 C1598 1.381 . S
C1596 C1602 1.383 . S
C1597 C1593 1.495 . S
C1597 H1603 0.959 . S
C1597 H1604 0.961 . S
C1597 H1605 0.960 . S
C1598 C1596 1.381 . S
C1598 C1599 1.394 . S
C1598 H1606 0.930 . S
C1599 C1598 1.394 . S
C1599 C1600 1.383 . S
C1599 H1607 0.929 . S
C1600 C1599 1.383 . S
C1600 C1601 1.377 . S
C1601 H1585 0.930 . S
C1601 C1600 1.377 . S
C1601 C1602 1.379 . S
C1602 H1586 0.931 . S
C1602 C1596 1.383 . S
C1602 C1601 1.379 . S
H1603 C1597 0.959 . S
H1604 C1597 0.961 . S
H1605 C1597 0.960 . S
H1606 C1598 0.930 . S
H1607 C1599 0.929 . S
H1608 C1616 0.929 . S
H1609 C1618 0.930 . S
H1610 C1620 0.930 . S
H1611 C1623 0.929 . S
H1612 C1626 0.930 . S
H1613 C1628 0.960 . S
H1614 C1628 0.960 . S
H1615 C1628 0.960 . S
C1616 H1608 0.929 . S
C1616 C1617 1.377 . S
C1616 C1618 1.384 . S
C1617 C1616 1.377 . S
C1617 C1623 1.390 . S
C1618 H1609 0.930 . S
C1618 C1616 1.384 . S
C1618 C1619 1.372 . S
C1619 C1618 1.372 . S
C1619 C1620 1.400 . S
C1619 C1624 1.490 . S
C1620 H1610 0.930 . S
C1620 C1619 1.400 . S
C1620 C1623 1.386 . S
H1621 C1637 0.930 . S
H1622 C1638 0.931 . S
C1623 H1611 0.929 . S
C1623 C1617 1.390 . S
C1623 C1620 1.386 . S
C1624 C1619 1.490 . S
C1624 C1626 1.395 . S
C1624 C1627 1.403 . S
H1625 C1631 0.930 . S
C1626 H1612 0.930 . S
C1626 C1624 1.395 . S
C1626 C1629 1.403 . S
C1627 C1624 1.403 . S
C1627 C1628 1.524 . S
C1627 C1631 1.400 . S
C1628 H1613 0.960 . S
C1628 H1614 0.960 . S
C1628 H1615 0.960 . S
C1628 C1627 1.524 . S
C1629 C1626 1.403 . S
C1629 C1630 1.392 . S
C1629 C1633 1.495 . S
C1630 C1629 1.392 . S
C1630 C1631 1.385 . S
C1630 C1632 1.478 . S
C1631 H1625 0.930 . S
C1631 C1627 1.400 . S
C1631 C1630 1.385 . S
C1632 C1630 1.478 . S
C1632 C1634 1.381 . S
C1632 C1638 1.383 . S
C1633 C1629 1.495 . S
C1633 H1639 0.959 . S
C1633 H1640 0.961 . S
C1633 H1641 0.960 . S
C1634 C1632 1.381 . S
C1634 C1635 1.394 . S
C1634 H1642 0.930 . S
C1635 C1634 1.394 . S
C1635 C1636 1.383 . S
C1635 H1643 0.929 . S
C1636 C1635 1.383 . S
C1636 C1637 1.377 . S
C1637 H1621 0.930 . S
C1637 C1636 1.377 . S
C1637 C1638 1.379 . S
C1638 H1622 0.931 . S
C1638 C1632 1.383 . S
C1638 C1637 1.379 . S
H1639 C1633 0.959 . S
H1640 C1633 0.961 . S
H1641 C1633 0.960 . S
H1642 C1634 0.930 . S
H1643 C1635 0.929 . S
H1644 C1652 0.929 . S
H1645 C1654 0.930 . S
H1646 C1656 0.930 . S
H1647 C1659 0.929 . S
H1648 C1662 0.930 . S
H1649 C1664 0.960 . S
H1650 C1664 0.960 . S
H1651 C1664 0.960 . S
C1652 H1644 0.929 . S
C1652 C1653 1.377 . S
C1652 C1654 1.384 . S
C1653 C1652 1.377 . S
C1653 C1659 1.390 . S
C1654 H1645 0.930 . S
C1654 C1652 1.384 . S
C1654 C1655 1.372 . S
C1655 C1654 1.372 . S
C1655 C1656 1.400 . S
C1655 C1660 1.490 . S
C1656 H1646 0.930 . S
C1656 C1655 1.400 . S
C1656 C1659 1.386 . S
H1657 C1673 0.930 . S
H1658 C1674 0.931 . S
C1659 H1647 0.929 . S
C1659 C1653 1.390 . S
C1659 C1656 1.386 . S
C1660 C1655 1.490 . S
C1660 C1662 1.395 . S
C1660 C1663 1.403 1_655 S
H1661 C1667 0.930 . S
C1662 H1648 0.930 . S
C1662 C1660 1.395 . S
C1662 C1665 1.403 . S
C1663 C1660 1.403 1_455 S
C1663 C1664 1.524 . S
C1663 C1667 1.400 . S
C1664 H1649 0.960 . S
C1664 H1650 0.960 . S
C1664 H1651 0.960 . S
C1664 C1663 1.524 . S
C1665 C1662 1.403 . S
C1665 C1666 1.392 1_655 S
C1665 C1669 1.495 . S
C1666 C1665 1.392 1_455 S
C1666 C1667 1.385 . S
C1666 C1668 1.478 . S
C1667 H1661 0.930 . S
C1667 C1663 1.400 . S
C1667 C1666 1.385 . S
C1668 C1666 1.478 . S
C1668 C1670 1.381 . S
C1668 C1674 1.383 . S
C1669 C1665 1.495 . S
C1669 H1675 0.959 . S
C1669 H1676 0.961 . S
C1669 H1677 0.960 . S
C1670 C1668 1.381 . S
C1670 C1671 1.394 . S
C1670 H1678 0.930 . S
C1671 C1670 1.394 . S
C1671 C1672 1.383 . S
C1671 H1679 0.929 . S
C1672 C1671 1.383 . S
C1672 C1673 1.377 . S
C1673 H1657 0.930 . S
C1673 C1672 1.377 . S
C1673 C1674 1.379 . S
C1674 H1658 0.931 . S
C1674 C1668 1.383 . S
C1674 C1673 1.379 . S
H1675 C1669 0.959 . S
H1676 C1669 0.961 . S
H1677 C1669 0.960 . S
H1678 C1670 0.930 . S
H1679 C1671 0.929 . S
H1680 C1688 0.929 . S
H1681 C1690 0.930 1_655 S
H1682 C1692 0.930 . S
H1683 C1695 0.929 . S
H1684 C1698 0.930 . S
H1685 C1700 0.960 . S
H1686 C1700 0.960 . S
H1687 C1700 0.960 . S
C1688 H1680 0.929 . S
C1688 C1689 1.377 . S
C1688 C1690 1.384 . S
C1689 C1688 1.377 . S
C1689 C1695 1.390 . S
C1690 H1681 0.930 1_455 S
C1690 C1688 1.384 . S
C1690 C1691 1.372 . S
C1691 C1690 1.372 . S
C1691 C1692 1.400 . S
C1691 C1696 1.490 . S
C1692 H1682 0.930 . S
C1692 C1691 1.400 . S
C1692 C1695 1.386 . S
H1693 C1709 0.930 . S
H1694 C1710 0.931 1_455 S
C1695 H1683 0.929 . S
C1695 C1689 1.390 . S
C1695 C1692 1.386 . S
C1696 C1691 1.490 . S
C1696 C1698 1.395 1_455 S
C1696 C1699 1.403 . S
H1697 C1703 0.930 . S
C1698 H1684 0.930 . S
C1698 C1696 1.395 1_655 S
C1698 C1701 1.403 . S
C1699 C1696 1.403 . S
C1699 C1700 1.524 . S
C1699 C1703 1.400 . S
C1700 H1685 0.960 . S
C1700 H1686 0.960 . S
C1700 H1687 0.960 . S
C1700 C1699 1.524 . S
C1701 C1698 1.403 . S
C1701 C1702 1.392 . S
C1701 C1705 1.495 . S
C1702 C1701 1.392 . S
C1702 C1703 1.385 1_655 S
C1702 C1704 1.478 . S
C1703 H1697 0.930 . S
C1703 C1699 1.400 . S
C1703 C1702 1.385 1_455 S
C1704 C1702 1.478 . S
C1704 C1706 1.381 . S
C1704 C1710 1.383 . S
C1705 C1701 1.495 . S
C1705 H1711 0.959 . S
C1705 H1712 0.961 . S
C1705 H1713 0.960 . S
C1706 C1704 1.381 . S
C1706 C1707 1.394 . S
C1706 H1714 0.930 . S
C1707 C1706 1.394 . S
C1707 C1708 1.383 . S
C1707 H1715 0.929 . S
C1708 C1707 1.383 . S
C1708 C1709 1.377 . S
C1709 H1693 0.930 . S
C1709 C1708 1.377 . S
C1709 C1710 1.379 . S
C1710 H1694 0.931 1_655 S
C1710 C1704 1.383 . S
C1710 C1709 1.379 . S
H1711 C1705 0.959 . S
H1712 C1705 0.961 . S
H1713 C1705 0.960 . S
H1714 C1706 0.930 . S
H1715 C1707 0.929 . S
H1716 C1724 0.929 . S
H1717 C1726 0.930 . S
H1718 C1728 0.930 . S
H1719 C1731 0.929 . S
H1720 C1734 0.930 . S
H1721 C1736 0.960 . S
H1722 C1736 0.960 . S
H1723 C1736 0.960 . S
C1724 H1716 0.929 . S
C1724 C1725 1.377 . S
C1724 C1726 1.384 . S
C1725 C1724 1.377 . S
C1725 C1731 1.390 . S
C1726 H1717 0.930 . S
C1726 C1724 1.384 . S
C1726 C1727 1.372 . S
C1727 C1726 1.372 . S
C1727 C1728 1.400 . S
C1727 C1732 1.490 . S
C1728 H1718 0.930 . S
C1728 C1727 1.400 . S
C1728 C1731 1.386 . S
H1729 C1745 0.930 . S
H1730 C1746 0.931 . S
C1731 H1719 0.929 . S
C1731 C1725 1.390 . S
C1731 C1728 1.386 . S
C1732 C1727 1.490 . S
C1732 C1734 1.395 . S
C1732 C1735 1.403 . S
H1733 C1739 0.930 . S
C1734 H1720 0.930 . S
C1734 C1732 1.395 . S
C1734 C1737 1.403 . S
C1735 C1732 1.403 . S
C1735 C1736 1.524 . S
C1735 C1739 1.400 . S
C1736 H1721 0.960 . S
C1736 H1722 0.960 . S
C1736 H1723 0.960 . S
C1736 C1735 1.524 . S
C1737 C1734 1.403 . S
C1737 C1738 1.392 . S
C1737 C1741 1.495 . S
C1738 C1737 1.392 . S
C1738 C1739 1.385 . S
C1738 C1740 1.478 . S
C1739 H1733 0.930 . S
C1739 C1735 1.400 . S
C1739 C1738 1.385 . S
C1740 C1738 1.478 . S
C1740 C1742 1.381 . S
C1740 C1746 1.383 . S
C1741 C1737 1.495 . S
C1741 H1747 0.959 . S
C1741 H1748 0.961 . S
C1741 H1749 0.960 . S
C1742 C1740 1.381 . S
C1742 C1743 1.394 . S
C1742 H1750 0.930 . S
C1743 C1742 1.394 . S
C1743 C1744 1.383 . S
C1743 H1751 0.929 . S
C1744 C1743 1.383 . S
C1744 C1745 1.377 . S
C1745 H1729 0.930 . S
C1745 C1744 1.377 . S
C1745 C1746 1.379 . S
C1746 H1730 0.931 . S
C1746 C1740 1.383 . S
C1746 C1745 1.379 . S
H1747 C1741 0.959 . S
H1748 C1741 0.961 . S
H1749 C1741 0.960 . S
H1750 C1742 0.930 . S
H1751 C1743 0.929 . S
H1752 C1760 0.929 . S
H1753 C1762 0.930 . S
H1754 C1764 0.930 1_455 S
H1755 C1767 0.929 . S
H1756 C1770 0.930 . S
H1757 C1772 0.960 . S
H1758 C1772 0.960 . S
H1759 C1772 0.960 . S
C1760 H1752 0.929 . S
C1760 C1761 1.377 . S
C1760 C1762 1.384 . S
C1761 C1760 1.377 . S
C1761 C1767 1.390 . S
C1762 H1753 0.930 . S
C1762 C1760 1.384 . S
C1762 C1763 1.372 . S
C1763 C1762 1.372 . S
C1763 C1764 1.400 . S
C1763 C1768 1.490 . S
C1764 H1754 0.930 1_655 S
C1764 C1763 1.400 . S
C1764 C1767 1.386 . S
H1765 C1781 0.930 . S
H1766 C1782 0.931 . S
C1767 H1755 0.929 . S
C1767 C1761 1.390 . S
C1767 C1764 1.386 . S
C1768 C1763 1.490 . S
C1768 C1770 1.395 1_655 S
C1768 C1771 1.403 . S
H1769 C1775 0.930 . S
C1770 H1756 0.930 . S
C1770 C1768 1.395 1_455 S
C1770 C1773 1.403 . S
C1771 C1768 1.403 . S
C1771 C1772 1.524 . S
C1771 C1775 1.400 . S
C1772 H1757 0.960 . S
C1772 H1758 0.960 . S
C1772 H1759 0.960 . S
C1772 C1771 1.524 . S
C1773 C1770 1.403 . S
C1773 C1774 1.392 . S
C1773 C1777 1.495 . S
C1774 C1773 1.392 . S
C1774 C1775 1.385 1_455 S
C1774 C1776 1.478 . S
C1775 H1769 0.930 . S
C1775 C1771 1.400 . S
C1775 C1774 1.385 1_655 S
C1776 C1774 1.478 . S
C1776 C1778 1.381 . S
C1776 C1782 1.383 . S
C1777 C1773 1.495 . S
C1777 H1783 0.959 . S
C1777 H1784 0.961 . S
C1777 H1785 0.960 . S
C1778 C1776 1.381 . S
C1778 C1779 1.394 . S
C1778 H1786 0.930 1_455 S
C1779 C1778 1.394 . S
C1779 C1780 1.383 . S
C1779 H1787 0.929 . S
C1780 C1779 1.383 . S
C1780 C1781 1.377 . S
C1781 H1765 0.930 . S
C1781 C1780 1.377 . S
C1781 C1782 1.379 . S
C1782 H1766 0.931 . S
C1782 C1776 1.383 . S
C1782 C1781 1.379 . S
H1783 C1777 0.959 . S
H1784 C1777 0.961 . S
H1785 C1777 0.960 . S
H1786 C1778 0.930 1_655 S
H1787 C1779 0.929 . S
H1788 C1796 0.929 . S
H1789 C1798 0.930 . S
H1790 C1800 0.930 . S
H1791 C1803 0.929 . S
H1792 C1806 0.930 . S
H1793 C1808 0.960 . S
H1794 C1808 0.960 . S
H1795 C1808 0.960 . S
C1796 H1788 0.929 . S
C1796 C1797 1.377 . S
C1796 C1798 1.384 . S
C1797 C1796 1.377 . S
C1797 C1803 1.390 . S
C1798 H1789 0.930 . S
C1798 C1796 1.384 . S
C1798 C1799 1.372 . S
C1799 C1798 1.372 . S
C1799 C1800 1.400 . S
C1799 C1804 1.490 . S
C1800 H1790 0.930 . S
C1800 C1799 1.400 . S
C1800 C1803 1.386 . S
H1801 C1817 0.930 . S
H1802 C1818 0.931 . S
C1803 H1791 0.929 . S
C1803 C1797 1.390 . S
C1803 C1800 1.386 . S
C1804 C1799 1.490 . S
C1804 C1806 1.395 . S
C1804 C1807 1.403 . S
H1805 C1811 0.930 . S
C1806 H1792 0.930 . S
C1806 C1804 1.395 . S
C1806 C1809 1.403 . S
C1807 C1804 1.403 . S
C1807 C1808 1.524 . S
C1807 C1811 1.400 . S
C1808 H1793 0.960 . S
C1808 H1794 0.960 . S
C1808 H1795 0.960 . S
C1808 C1807 1.524 . S
C1809 C1806 1.403 . S
C1809 C1810 1.392 . S
C1809 C1813 1.495 . S
C1810 C1809 1.392 . S
C1810 C1811 1.385 . S
C1810 C1812 1.478 . S
C1811 H1805 0.930 . S
C1811 C1807 1.400 . S
C1811 C1810 1.385 . S
C1812 C1810 1.478 . S
C1812 C1814 1.381 . S
C1812 C1818 1.383 . S
C1813 C1809 1.495 . S
C1813 H1819 0.959 . S
C1813 H1820 0.961 . S
C1813 H1821 0.960 . S
C1814 C1812 1.381 . S
C1814 C1815 1.394 . S
C1814 H1822 0.930 . S
C1815 C1814 1.394 . S
C1815 C1816 1.383 . S
C1815 H1823 0.929 . S
C1816 C1815 1.383 . S
C1816 C1817 1.377 . S
C1817 H1801 0.930 . S
C1817 C1816 1.377 . S
C1817 C1818 1.379 . S
C1818 H1802 0.931 . S
C1818 C1812 1.383 . S
C1818 C1817 1.379 . S
H1819 C1813 0.959 . S
H1820 C1813 0.961 . S
H1821 C1813 0.960 . S
H1822 C1814 0.930 . S
H1823 C1815 0.929 . S
H1824 C1832 0.929 . S
H1825 C1834 0.930 . S
H1826 C1836 0.930 . S
H1827 C1839 0.929 . S
H1828 C1842 0.930 . S
H1829 C1844 0.960 . S
H1830 C1844 0.960 . S
H1831 C1844 0.960 . S
C1832 H1824 0.929 . S
C1832 C1833 1.377 . S
C1832 C1834 1.384 . S
C1833 C1832 1.377 . S
C1833 C1839 1.390 . S
C1834 H1825 0.930 . S
C1834 C1832 1.384 . S
C1834 C1835 1.372 . S
C1835 C1834 1.372 . S
C1835 C1836 1.400 . S
C1835 C1840 1.490 . S
C1836 H1826 0.930 . S
C1836 C1835 1.400 . S
C1836 C1839 1.386 . S
H1837 C1853 0.930 . S
H1838 C1854 0.931 . S
C1839 H1827 0.929 . S
C1839 C1833 1.390 . S
C1839 C1836 1.386 . S
C1840 C1835 1.490 . S
C1840 C1842 1.395 . S
C1840 C1843 1.403 . S
H1841 C1847 0.930 . S
C1842 H1828 0.930 . S
C1842 C1840 1.395 . S
C1842 C1845 1.403 . S
C1843 C1840 1.403 . S
C1843 C1844 1.524 . S
C1843 C1847 1.400 . S
C1844 H1829 0.960 . S
C1844 H1830 0.960 . S
C1844 H1831 0.960 . S
C1844 C1843 1.524 . S
C1845 C1842 1.403 . S
C1845 C1846 1.392 . S
C1845 C1849 1.495 . S
C1846 C1845 1.392 . S
C1846 C1847 1.385 . S
C1846 C1848 1.478 . S
C1847 H1841 0.930 . S
C1847 C1843 1.400 . S
C1847 C1846 1.385 . S
C1848 C1846 1.478 . S
C1848 C1850 1.381 . S
C1848 C1854 1.383 . S
C1849 C1845 1.495 . S
C1849 H1855 0.959 . S
C1849 H1856 0.961 . S
C1849 H1857 0.960 . S
C1850 C1848 1.381 . S
C1850 C1851 1.394 . S
C1850 H1858 0.930 . S
C1851 C1850 1.394 . S
C1851 C1852 1.383 . S
C1851 H1859 0.929 . S
C1852 C1851 1.383 . S
C1852 C1853 1.377 . S
C1853 H1837 0.930 . S
C1853 C1852 1.377 . S
C1853 C1854 1.379 . S
C1854 H1838 0.931 . S
C1854 C1848 1.383 . S
C1854 C1853 1.379 . S
H1855 C1849 0.959 . S
H1856 C1849 0.961 . S
H1857 C1849 0.960 . S
H1858 C1850 0.930 . S
H1859 C1851 0.929 . S
H1860 C1868 0.929 . S
H1861 C1870 0.930 . S
H1862 C1872 0.930 1_655 S
H1863 C1875 0.929 1_655 S
H1864 C1878 0.930 . S
H1865 C1880 0.960 . S
H1866 C1880 0.960 . S
H1867 C1880 0.960 . S
C1868 H1860 0.929 . S
C1868 C1869 1.377 . S
C1868 C1870 1.384 . S
C1869 C1868 1.377 . S
C1869 C1875 1.390 . S
C1870 H1861 0.930 . S
C1870 C1868 1.384 . S
C1870 C1871 1.372 . S
C1871 C1870 1.372 . S
C1871 C1872 1.400 . S
C1871 C1876 1.490 . S
C1872 H1862 0.930 1_455 S
C1872 C1871 1.400 . S
C1872 C1875 1.386 . S
H1873 C1889 0.930 . S
H1874 C1890 0.931 . S
C1875 H1863 0.929 1_455 S
C1875 C1869 1.390 . S
C1875 C1872 1.386 . S
C1876 C1871 1.490 . S
C1876 C1878 1.395 . S
C1876 C1879 1.403 . S
H1877 C1883 0.930 . S
C1878 H1864 0.930 . S
C1878 C1876 1.395 . S
C1878 C1881 1.403 1_455 S
C1879 C1876 1.403 . S
C1879 C1880 1.524 . S
C1879 C1883 1.400 1_455 S
C1880 H1865 0.960 . S
C1880 H1866 0.960 . S
C1880 H1867 0.960 . S
C1880 C1879 1.524 . S
C1881 C1878 1.403 1_655 S
C1881 C1882 1.392 . S
C1881 C1885 1.495 . S
C1882 C1881 1.392 . S
C1882 C1883 1.385 . S
C1882 C1884 1.478 . S
C1883 H1877 0.930 . S
C1883 C1879 1.400 1_655 S
C1883 C1882 1.385 . S
C1884 C1882 1.478 . S
C1884 C1886 1.368 1_655 S
C1884 C1890 1.383 . S
C1885 C1881 1.495 . S
C1885 H1891 0.959 . S
C1885 H1892 0.961 . S
C1885 H1893 0.960 1_655 S
C1886 C1884 1.368 1_455 S
C1886 C1887 1.389 1_455 S
C1886 H1894 0.949 . S
C1887 C1886 1.389 1_655 S
C1887 C1888 1.383 . S
C1887 H1895 0.929 1_655 S
C1888 C1887 1.383 . S
C1888 C1889 1.377 . S
C1889 H1873 0.930 . S
C1889 C1888 1.377 . S
C1889 C1890 1.379 . S
C1890 H1874 0.931 . S
C1890 C1884 1.383 . S
C1890 C1889 1.379 . S
H1891 C1885 0.959 . S
H1892 C1885 0.961 . S
H1893 C1885 0.960 1_455 S
H1894 C1886 0.949 . S
H1895 C1887 0.929 1_455 S
H1896 C1904 0.929 . S
H1897 C1906 0.930 . S
H1898 C1908 0.930 . S
H1899 C1911 0.929 . S
H1900 C1914 0.930 . S
H1901 C1916 0.960 . S
H1902 C1916 0.960 . S
H1903 C1916 0.960 . S
C1904 H1896 0.929 . S
C1904 C1905 1.377 . S
C1904 C1906 1.384 . S
C1905 C1904 1.377 . S
C1905 C1911 1.390 . S
C1906 H1897 0.930 . S
C1906 C1904 1.384 . S
C1906 C1907 1.372 . S
C1907 C1906 1.372 . S
C1907 C1908 1.400 . S
C1907 C1912 1.490 . S
C1908 H1898 0.930 . S
C1908 C1907 1.400 . S
C1908 C1911 1.386 . S
H1909 C1925 0.930 . S
H1910 C1926 0.931 . S
C1911 H1899 0.929 . S
C1911 C1905 1.390 . S
C1911 C1908 1.386 . S
C1912 C1907 1.490 . S
C1912 C1914 1.395 . S
C1912 C1915 1.403 . S
H1913 C1919 0.930 . S
C1914 H1900 0.930 . S
C1914 C1912 1.395 . S
C1914 C1917 1.403 . S
C1915 C1912 1.403 . S
C1915 C1916 1.524 . S
C1915 C1919 1.400 . S
C1916 H1901 0.960 . S
C1916 H1902 0.960 . S
C1916 H1903 0.960 . S
C1916 C1915 1.524 . S
C1917 C1914 1.403 . S
C1917 C1918 1.392 . S
C1917 C1921 1.495 . S
C1918 C1917 1.392 . S
C1918 C1919 1.385 . S
C1918 C1920 1.478 . S
C1919 H1913 0.930 . S
C1919 C1915 1.400 . S
C1919 C1918 1.385 . S
C1920 C1918 1.478 . S
C1920 C1922 1.381 . S
C1920 C1926 1.383 . S
C1921 C1917 1.495 . S
C1921 H1927 0.959 . S
C1921 H1928 0.961 . S
C1921 H1929 0.960 . S
C1922 C1920 1.381 . S
C1922 C1923 1.394 . S
C1922 H1930 0.930 . S
C1923 C1922 1.394 . S
C1923 C1924 1.383 . S
C1923 H1931 0.929 . S
C1924 C1923 1.383 . S
C1924 C1925 1.377 . S
C1925 H1909 0.930 . S
C1925 C1924 1.377 . S
C1925 C1926 1.379 . S
C1926 H1910 0.931 . S
C1926 C1920 1.383 . S
C1926 C1925 1.379 . S
H1927 C1921 0.959 . S
H1928 C1921 0.961 . S
H1929 C1921 0.960 . S
H1930 C1922 0.930 . S
H1931 C1923 0.929 . S
H1932 C1940 0.929 . S
H1933 C1942 0.930 . S
H1934 C1944 0.930 1_655 S
H1935 C1947 0.929 . S
H1936 C1950 0.931 . S
H1937 C1952 0.960 . S
H1938 C1952 0.960 . S
H1939 C1952 0.960 . S
C1940 H1932 0.929 . S
C1940 C1941 1.377 . S
C1940 C1942 1.384 . S
C1941 C1940 1.377 . S
C1941 C1947 1.390 . S
C1942 H1933 0.930 . S
C1942 C1940 1.384 . S
C1942 C1943 1.372 . S
C1943 C1942 1.372 . S
C1943 C1944 1.400 . S
C1943 C1948 1.490 . S
C1944 H1934 0.930 1_455 S
C1944 C1943 1.400 . S
C1944 C1947 1.386 . S
H1945 C1961 0.930 . S
H1946 C1962 0.931 . S
C1947 H1935 0.929 . S
C1947 C1941 1.390 . S
C1947 C1944 1.386 . S
C1948 C1943 1.490 . S
C1948 C1950 1.387 1_455 S
C1948 C1951 1.403 . S
H1949 C1955 0.930 . S
C1950 H1936 0.931 . S
C1950 C1948 1.387 1_655 S
C1950 C1953 1.411 . S
C1951 C1948 1.403 . S
C1951 C1952 1.524 . S
C1951 C1955 1.400 . S
C1952 H1937 0.960 . S
C1952 H1938 0.960 . S
C1952 H1939 0.960 . S
C1952 C1951 1.524 . S
C1953 C1950 1.411 . S
C1953 C1954 1.392 . S
C1953 C1957 1.495 . S
C1954 C1953 1.392 . S
C1954 C1955 1.385 1_655 S
C1954 C1956 1.478 . S
C1955 H1949 0.930 . S
C1955 C1951 1.400 . S
C1955 C1954 1.385 1_455 S
C1956 C1954 1.478 . S
C1956 C1958 1.381 . S
C1956 C1962 1.383 . S
C1957 C1953 1.495 . S
C1957 H1963 0.959 . S
C1957 H1964 0.961 . S
C1957 H1965 0.960 . S
C1958 C1956 1.381 . S
C1958 C1959 1.394 . S
C1958 H1966 0.930 1_655 S
C1959 C1958 1.394 . S
C1959 C1960 1.383 . S
C1959 H1967 0.919 1_655 S
C1960 C1959 1.383 . S
C1960 C1961 1.377 . S
C1961 H1945 0.930 . S
C1961 C1960 1.377 . S
C1961 C1962 1.379 . S
C1962 H1946 0.931 . S
C1962 C1956 1.383 . S
C1962 C1961 1.379 . S
H1963 C1957 0.959 . S
H1964 C1957 0.961 . S
H1965 C1957 0.960 . S
H1966 C1958 0.930 1_455 S
H1967 C1959 0.919 1_455 S
C537 C186 0.895 . S
C556 C18 0.870 . S
C573 C153 0.893 . S
C592 C51 0.879 . S
C609 C84 0.902 . S
C628 C252 0.908 . S
C645 C117 0.902 . S
C664 C219 0.914 . S
C681 C150 0.900 . S
C700 C54 0.880 . S
C717 C183 0.891 . S
C736 C21 0.889 . S
C753 C120 0.893 . S
C772 C216 0.906 . S
C789 C249 0.902 . S
C808 C87 0.898 . S
C825 C282 0.896 . S
C844 C450 0.908 . S
C861 C315 0.894 . S
C880 C417 0.901 . S
C897 C348 0.902 . S
C916 C516 0.905 . S
C933 C381 0.898 . S
C952 C483 0.888 . S
C969 C414 0.902 . S
C988 C318 0.906 . S
C1005 C447 0.899 . S
C1024 C285 0.920 . S
C1041 C384 0.903 . S
C1060 C480 0.906 . S
C1077 C351 0.900 . S
C1096 C513 0.872 . S
C1113 N13 1.675 . S
C1132 N46 1.657 . S
C1149 N79 1.673 . S
C1168 N112 1.663 . S
C1185 N178 1.680 . S
C1204 N145 1.659 . S
C1221 N244 1.680 . S
C1240 N211 1.660 . S
C1257 N310 1.680 . S
C1276 N277 1.672 . S
C1293 N376 1.673 . S
C1312 N343 1.669 . S
C1329 N409 1.679 . S
C1348 N442 1.664 . S
C1365 N475 1.679 . S
C1384 N508 1.656 . S
C1401 N299 1.538 . S
C1420 N2 1.534 . S
C1437 N35 1.538 . S
C1456 N266 1.530 . S
C1473 N68 1.537 . S
C1492 N365 1.516 . S
C1509 N332 1.541 . S
C1528 N101 1.525 . S
C1545 N134 1.543 . S
C1564 N431 1.541 . S
C1581 N167 1.540 . S
C1600 N398 1.556 . S
C1617 N200 1.542 . S
C1636 N497 1.524 . S
C1653 N464 1.541 . S
C1672 N233 1.552 . S
C1689 C7 1.439 . S
C1708 C106 1.450 . S
C1725 C40 1.440 . S
C1744 C73 1.448 . S
C1761 C139 1.442 . S
C1780 C238 1.446 . S
C1797 C172 1.441 . S
C1816 C205 1.442 . S
C1833 C370 1.439 . S
C1852 C271 1.450 . S
C1869 C337 1.442 . S
C1888 C304 1.434 . S
C1905 C403 1.439 . S
C1924 C502 1.445 . S
C1941 C436 1.442 . S
C1960 C469 1.444 . S
