# Generated by pormake.
# Topology ict, (4)-cn, num edge types: 1
# Building blocks:
#     Node 0, Type 0, BuildingBlock: QUQFOY_clean_sbu_3, # of connection points: 4
#     Node 1, Type 0, BuildingBlock: QUQFOY_clean_sbu_3, # of connection points: 4
#     Node 2, Type 0, BuildingBlock: QUQFOY_clean_sbu_3, # of connection points: 4
#     Node 3, Type 0, BuildingBlock: QUQFOY_clean_sbu_3, # of connection points: 4
#     Node 4, Type 0, BuildingBlock: QUQFOY_clean_sbu_3, # of connection points: 4
#     Node 5, Type 0, BuildingBlock: QUQFOY_clean_sbu_3, # of connection points: 4
#     Node 6, Type 0, BuildingBlock: QUQFOY_clean_sbu_3, # of connection points: 4
#     Node 7, Type 0, BuildingBlock: QUQFOY_clean_sbu_3, # of connection points: 4
#     Node 8, Type 0, BuildingBlock: QUQFOY_clean_sbu_3, # of connection points: 4
#     Node 9, Type 0, BuildingBlock: QUQFOY_clean_sbu_3, # of connection points: 4
#     Node 10, Type 0, BuildingBlock: QUQFOY_clean_sbu_3, # of connection points: 4
#     Node 11, Type 0, BuildingBlock: QUQFOY_clean_sbu_3, # of connection points: 4
#     Node 12, Type 0, BuildingBlock: QUQFOY_clean_sbu_3, # of connection points: 4
#     Node 13, Type 0, BuildingBlock: QUQFOY_clean_sbu_3, # of connection points: 4
#     Node 14, Type 0, BuildingBlock: QUQFOY_clean_sbu_3, # of connection points: 4
#     Node 15, Type 0, BuildingBlock: QUQFOY_clean_sbu_3, # of connection points: 4
#     Node 16, Type 0, BuildingBlock: QUQFOY_clean_sbu_3, # of connection points: 4
#     Node 17, Type 0, BuildingBlock: QUQFOY_clean_sbu_3, # of connection points: 4
#     Node 18, Type 0, BuildingBlock: QUQFOY_clean_sbu_3, # of connection points: 4
#     Node 19, Type 0, BuildingBlock: QUQFOY_clean_sbu_3, # of connection points: 4
#     Node 20, Type 0, BuildingBlock: QUQFOY_clean_sbu_3, # of connection points: 4
#     Node 21, Type 0, BuildingBlock: QUQFOY_clean_sbu_3, # of connection points: 4
#     Node 22, Type 0, BuildingBlock: QUQFOY_clean_sbu_3, # of connection points: 4
#     Node 23, Type 0, BuildingBlock: QUQFOY_clean_sbu_3, # of connection points: 4
#     Node 24, Type 0, BuildingBlock: QUQFOY_clean_sbu_3, # of connection points: 4
#     Node 25, Type 0, BuildingBlock: QUQFOY_clean_sbu_3, # of connection points: 4
#     Node 26, Type 0, BuildingBlock: QUQFOY_clean_sbu_3, # of connection points: 4
#     Node 27, Type 0, BuildingBlock: QUQFOY_clean_sbu_3, # of connection points: 4
#     Node 28, Type 0, BuildingBlock: QUQFOY_clean_sbu_3, # of connection points: 4
#     Node 29, Type 0, BuildingBlock: QUQFOY_clean_sbu_3, # of connection points: 4
#     Node 30, Type 0, BuildingBlock: QUQFOY_clean_sbu_3, # of connection points: 4
#     Node 31, Type 0, BuildingBlock: QUQFOY_clean_sbu_3, # of connection points: 4
#     Node 32, Type 0, BuildingBlock: QUQFOY_clean_sbu_3, # of connection points: 4
#     Node 33, Type 0, BuildingBlock: QUQFOY_clean_sbu_3, # of connection points: 4
#     Node 34, Type 0, BuildingBlock: QUQFOY_clean_sbu_3, # of connection points: 4
#     Node 35, Type 0, BuildingBlock: QUQFOY_clean_sbu_3, # of connection points: 4
#     Edge 36, Type (0, 0), BuildingBlock: XUDNAN_clean_linker_2, # of connection points: 2
#     Edge 37, Type (0, 0), BuildingBlock: XUDNAN_clean_linker_2, # of connection points: 2
#     Edge 38, Type (0, 0), BuildingBlock: XUDNAN_clean_linker_2, # of connection points: 2
#     Edge 39, Type (0, 0), BuildingBlock: XUDNAN_clean_linker_2, # of connection points: 2
#     Edge 40, Type (0, 0), BuildingBlock: XUDNAN_clean_linker_2, # of connection points: 2
#     Edge 41, Type (0, 0), BuildingBlock: XUDNAN_clean_linker_2, # of connection points: 2
#     Edge 42, Type (0, 0), BuildingBlock: XUDNAN_clean_linker_2, # of connection points: 2
#     Edge 43, Type (0, 0), BuildingBlock: XUDNAN_clean_linker_2, # of connection points: 2
#     Edge 44, Type (0, 0), BuildingBlock: XUDNAN_clean_linker_2, # of connection points: 2
#     Edge 45, Type (0, 0), BuildingBlock: XUDNAN_clean_linker_2, # of connection points: 2
#     Edge 46, Type (0, 0), BuildingBlock: XUDNAN_clean_linker_2, # of connection points: 2
#     Edge 47, Type (0, 0), BuildingBlock: XUDNAN_clean_linker_2, # of connection points: 2
#     Edge 48, Type (0, 0), BuildingBlock: XUDNAN_clean_linker_2, # of connection points: 2
#     Edge 49, Type (0, 0), BuildingBlock: XUDNAN_clean_linker_2, # of connection points: 2
#     Edge 50, Type (0, 0), BuildingBlock: XUDNAN_clean_linker_2, # of connection points: 2
#     Edge 51, Type (0, 0), BuildingBlock: XUDNAN_clean_linker_2, # of connection points: 2
#     Edge 52, Type (0, 0), BuildingBlock: XUDNAN_clean_linker_2, # of connection points: 2
#     Edge 53, Type (0, 0), BuildingBlock: XUDNAN_clean_linker_2, # of connection points: 2
#     Edge 54, Type (0, 0), BuildingBlock: XUDNAN_clean_linker_2, # of connection points: 2
#     Edge 55, Type (0, 0), BuildingBlock: XUDNAN_clean_linker_2, # of connection points: 2
#     Edge 56, Type (0, 0), BuildingBlock: XUDNAN_clean_linker_2, # of connection points: 2
#     Edge 57, Type (0, 0), BuildingBlock: XUDNAN_clean_linker_2, # of connection points: 2
#     Edge 58, Type (0, 0), BuildingBlock: XUDNAN_clean_linker_2, # of connection points: 2
#     Edge 59, Type (0, 0), BuildingBlock: XUDNAN_clean_linker_2, # of connection points: 2
#     Edge 60, Type (0, 0), BuildingBlock: XUDNAN_clean_linker_2, # of connection points: 2
#     Edge 61, Type (0, 0), BuildingBlock: XUDNAN_clean_linker_2, # of connection points: 2
#     Edge 62, Type (0, 0), BuildingBlock: XUDNAN_clean_linker_2, # of connection points: 2
#     Edge 63, Type (0, 0), BuildingBlock: XUDNAN_clean_linker_2, # of connection points: 2
#     Edge 64, Type (0, 0), BuildingBlock: XUDNAN_clean_linker_2, # of connection points: 2
#     Edge 65, Type (0, 0), BuildingBlock: XUDNAN_clean_linker_2, # of connection points: 2
#     Edge 66, Type (0, 0), BuildingBlock: XUDNAN_clean_linker_2, # of connection points: 2
#     Edge 67, Type (0, 0), BuildingBlock: XUDNAN_clean_linker_2, # of connection points: 2
#     Edge 68, Type (0, 0), BuildingBlock: XUDNAN_clean_linker_2, # of connection points: 2
#     Edge 69, Type (0, 0), BuildingBlock: XUDNAN_clean_linker_2, # of connection points: 2
#     Edge 70, Type (0, 0), BuildingBlock: XUDNAN_clean_linker_2, # of connection points: 2
#     Edge 71, Type (0, 0), BuildingBlock: XUDNAN_clean_linker_2, # of connection points: 2
#     Edge 72, Type (0, 0), BuildingBlock: XUDNAN_clean_linker_2, # of connection points: 2
#     Edge 73, Type (0, 0), BuildingBlock: XUDNAN_clean_linker_2, # of connection points: 2
#     Edge 74, Type (0, 0), BuildingBlock: XUDNAN_clean_linker_2, # of connection points: 2
#     Edge 75, Type (0, 0), BuildingBlock: XUDNAN_clean_linker_2, # of connection points: 2
#     Edge 76, Type (0, 0), BuildingBlock: XUDNAN_clean_linker_2, # of connection points: 2
#     Edge 77, Type (0, 0), BuildingBlock: XUDNAN_clean_linker_2, # of connection points: 2
#     Edge 78, Type (0, 0), BuildingBlock: XUDNAN_clean_linker_2, # of connection points: 2
#     Edge 79, Type (0, 0), BuildingBlock: XUDNAN_clean_linker_2, # of connection points: 2
#     Edge 80, Type (0, 0), BuildingBlock: XUDNAN_clean_linker_2, # of connection points: 2
#     Edge 81, Type (0, 0), BuildingBlock: XUDNAN_clean_linker_2, # of connection points: 2
#     Edge 82, Type (0, 0), BuildingBlock: XUDNAN_clean_linker_2, # of connection points: 2
#     Edge 83, Type (0, 0), BuildingBlock: XUDNAN_clean_linker_2, # of connection points: 2
#     Edge 84, Type (0, 0), BuildingBlock: XUDNAN_clean_linker_2, # of connection points: 2
#     Edge 85, Type (0, 0), BuildingBlock: XUDNAN_clean_linker_2, # of connection points: 2
#     Edge 86, Type (0, 0), BuildingBlock: XUDNAN_clean_linker_2, # of connection points: 2
#     Edge 87, Type (0, 0), BuildingBlock: XUDNAN_clean_linker_2, # of connection points: 2
#     Edge 88, Type (0, 0), BuildingBlock: XUDNAN_clean_linker_2, # of connection points: 2
#     Edge 89, Type (0, 0), BuildingBlock: XUDNAN_clean_linker_2, # of connection points: 2
#     Edge 90, Type (0, 0), BuildingBlock: XUDNAN_clean_linker_2, # of connection points: 2
#     Edge 91, Type (0, 0), BuildingBlock: XUDNAN_clean_linker_2, # of connection points: 2
#     Edge 92, Type (0, 0), BuildingBlock: XUDNAN_clean_linker_2, # of connection points: 2
#     Edge 93, Type (0, 0), BuildingBlock: XUDNAN_clean_linker_2, # of connection points: 2
#     Edge 94, Type (0, 0), BuildingBlock: XUDNAN_clean_linker_2, # of connection points: 2
#     Edge 95, Type (0, 0), BuildingBlock: XUDNAN_clean_linker_2, # of connection points: 2
#     Edge 96, Type (0, 0), BuildingBlock: XUDNAN_clean_linker_2, # of connection points: 2
#     Edge 97, Type (0, 0), BuildingBlock: XUDNAN_clean_linker_2, # of connection points: 2
#     Edge 98, Type (0, 0), BuildingBlock: XUDNAN_clean_linker_2, # of connection points: 2
#     Edge 99, Type (0, 0), BuildingBlock: XUDNAN_clean_linker_2, # of connection points: 2
#     Edge 100, Type (0, 0), BuildingBlock: XUDNAN_clean_linker_2, # of connection points: 2
#     Edge 101, Type (0, 0), BuildingBlock: XUDNAN_clean_linker_2, # of connection points: 2
#     Edge 102, Type (0, 0), BuildingBlock: XUDNAN_clean_linker_2, # of connection points: 2
#     Edge 103, Type (0, 0), BuildingBlock: XUDNAN_clean_linker_2, # of connection points: 2
#     Edge 104, Type (0, 0), BuildingBlock: XUDNAN_clean_linker_2, # of connection points: 2
#     Edge 105, Type (0, 0), BuildingBlock: XUDNAN_clean_linker_2, # of connection points: 2
#     Edge 106, Type (0, 0), BuildingBlock: XUDNAN_clean_linker_2, # of connection points: 2
#     Edge 107, Type (0, 0), BuildingBlock: XUDNAN_clean_linker_2, # of connection points: 2
# Relax obj value: 0.101
# Max RMSD: 0.125
# Mean RMSD: 0.125
data_MOF--net-ict--node1-QUQFOY_clean_sbu_3--edge1-XUDNAN_clean_linker_2
_symmetry_space_group_name_H-M    P1
_symmetry_Int_Tables_number       1
_symmetry_cell_setting            triclinic
loop_
_symmetry_equiv_pos_as_xyz
'x, y, z'
_cell_length_a     67.406134
_cell_length_b     67.035397
_cell_length_c     37.829701
_cell_angle_alpha  89.942856
_cell_angle_beta   89.948007
_cell_angle_gamma 120.24009
loop_
_atom_site_label
_atom_site_type_symbol
_atom_site_fract_x
_atom_site_fract_y
_atom_site_fract_z
_atom_type_partial_charge
C0 C 0.15494 0.20583 0.01825 0.0
O1 O 0.14629 0.1842 0.02222 0.0
Cd2 Cd 0.16703 0.1669 0.0451 0.0
O3 O 0.17633 0.21957 0.02345 0.0
Cd4 Cd 0.21148 0.21773 0.03889 0.0
C5 C 0.18847 0.20115 0.1201 0.0
O6 O 0.20121 0.18097 0.01108 0.0
O7 O 0.22991 0.19442 0.04702 0.0
O8 O 0.23003 0.24236 0.98817 0.0
C9 C 0.21733 0.17906 0.02482 0.0
O10 O 0.17464 0.18219 0.10494 0.0
C11 C 0.24777 0.2573 0.00447 0.0
O12 O 0.20416 0.21804 0.1027 0.0
O13 O 0.24838 0.25439 0.0376 0.0
C14 C 0.75174 0.95334 0.02525 0.0
O15 O 0.7727 0.96579 0.03382 0.0
Cd16 Cd 0.79235 0.00626 0.04247 0.0
O17 O 0.73918 0.96238 0.02048 0.0
Cd18 Cd 0.74514 0.00258 0.02397 0.0
C19 C 0.7596 0.00808 0.11048 0.0
O20 O 0.78138 0.02068 -0.00681 0.0
O21 O 0.77419 0.04476 0.01951 0.0
O22 O 0.72077 -0.00439 0.97228 0.0
C23 C 0.78672 0.04143 -0.00187 0.0
O24 O 0.7788 0.01109 0.09968 0.0
C25 C 0.70759 0.00154 0.98694 0.0
O26 O 0.74346 0.00349 0.0887 0.0
O27 O 0.71132 0.00715 0.01933 0.0
C28 C 0.02001 0.81355 0.02547 0.0
O29 O 0.00907 0.82312 0.03672 0.0
Cd30 Cd 0.96916 0.80401 0.0488 0.0
O31 O 0.00965 0.79176 0.02024 0.0
Cd32 Cd 0.96896 0.75889 0.02704 0.0
C33 C 0.96664 0.76833 0.11512 0.0
O34 O 0.95301 0.77965 -0.00174 0.0
O35 O 0.92735 0.74772 0.02146 0.0
O36 O 0.9734 0.73905 0.97575 0.0
C37 C 0.93199 0.76489 0.00185 0.0
O38 O 0.9648 0.78562 0.1061 0.0
C39 C 0.96739 0.72025 -0.00807 0.0
O40 O 0.96928 0.75621 0.09178 0.0
O41 O 0.9626 0.7196 0.02451 0.0
C42 C 0.2079 0.16987 0.46463 0.0
O43 O 0.18618 0.16026 0.46333 0.0
Cd44 Cd 0.16496 0.17971 0.45791 0.0
O45 O 0.22045 0.19181 0.46287 0.0
Cd46 Cd 0.21389 0.22532 0.45662 0.0
C47 C 0.18669 0.20731 0.37834 0.0
O48 O 0.18187 0.21138 0.49758 0.0
O49 O 0.18656 0.2396 0.46463 0.0
O50 O 0.24409 0.24669 0.49972 0.0
C51 C 0.17607 0.22617 0.49027 0.0
O52 O 0.16978 0.19284 0.397 0.0
C53 C 0.25534 0.26466 0.48093 0.0
O54 O 0.20617 0.22053 0.39246 0.0
O55 O 0.24783 0.26408 0.44992 0.0
C56 C 0.80845 0.03984 0.4636 0.0
O57 O 0.81601 0.02731 0.45131 0.0
Cd58 Cd 0.79259 0.98873 0.43028 0.0
O59 O 0.78689 0.03176 0.46706 0.0
Cd60 Cd 0.75053 0.99423 0.4569 0.0
C61 C 0.76045 -0.00175 0.36879 0.0
O62 O 0.76413 0.96804 0.47427 0.0
O63 O 0.73125 0.95213 0.44822 0.0
O64 O 0.73524 -0.00242 0.51368 0.0
C65 C 0.74649 0.9497 0.46394 0.0
O66 O 0.77585 0.99318 0.37596 0.0
C67 C 0.7171 -0.00384 0.50115 0.0
O68 O 0.74893 0.00073 0.39335 0.0
O69 O 0.71479 0.9945 0.46778 0.0
C70 C 0.94818 0.77994 0.47124 0.0
O71 O 0.96072 0.8005 0.46024 0.0
Cd72 Cd -0.00135 0.81484 0.43732 0.0
O73 O 0.956 0.76613 0.47221 0.0
Cd74 Cd -0.00747 0.76639 0.45931 0.0
C75 C 0.98625 0.77389 0.37256 0.0
O76 O 0.01973 0.80585 0.47896 0.0
O77 O 0.03421 0.78845 0.45015 0.0
O78 O 0.98429 0.74533 0.51481 0.0
C79 C 0.03751 0.80598 0.4676 0.0
O80 O -0.00775 0.79449 0.38145 0.0
C81 C -0.01094 0.7303 0.50408 0.0
O82 O 0.98391 0.75906 0.39578 0.0
O83 O -0.00513 0.73151 0.47182 0.0
C84 C 0.8043 0.79011 0.94576 0.0
O85 O 0.80749 0.80999 0.93827 0.0
Cd86 Cd 0.77969 0.82197 0.93427 0.0
O87 O 0.78413 0.77321 0.95158 0.0
Cd88 Cd 0.74487 0.76869 0.94926 0.0
C89 C 0.74939 0.78732 0.86487 0.0
O90 O 0.75308 0.80375 0.98079 0.0
O91 O 0.72085 0.78676 0.95318 0.0
O92 O 0.73139 0.74286 0.0001 0.0
C93 C 0.73416 0.80267 0.97405 0.0
O94 O 0.76078 0.80752 0.87788 0.0
C95 C 0.71381 0.72682 0.98489 0.0
O96 O 0.74324 0.76946 0.884 0.0
O97 O 0.71154 0.72954 0.9522 0.0
C98 C 0.20217 0.02988 0.96219 0.0
O99 O 0.1822 0.01734 0.94951 0.0
Cd100 Cd 0.16778 0.97851 0.93046 0.0
O101 O 0.21558 0.02178 0.96627 0.0
Cd102 Cd 0.21509 0.9845 0.95767 0.0
C103 C 0.20949 0.98701 0.86931 0.0
O104 O 0.17563 0.95963 0.97742 0.0
O105 O 0.19167 0.94205 0.95378 0.0
O106 O 0.23492 0.99427 0.01413 0.0
C107 C 0.17453 0.94069 0.96983 0.0
O108 O 0.18903 0.98198 0.87654 0.0
C109 C 0.24963 0.98858 0.00585 0.0
O110 O 0.22365 0.99007 0.89392 0.0
O111 O 0.24892 0.98166 0.97435 0.0
C112 C 0.94231 0.16949 0.95599 0.0
O113 O 0.95795 0.16535 0.94647 0.0
Cd114 Cd -0.0023 0.19158 0.93883 0.0
O115 O 0.94706 0.18993 0.96414 0.0
Cd116 Cd 0.9833 0.22893 0.96517 0.0
C117 C -0.00975 0.2253 0.8771 0.0
O118 O 0.00889 0.21658 0.98789 0.0
O119 O 0.02604 0.25094 0.96657 0.0
O120 O 0.97446 0.24113 0.02092 0.0
C121 C 0.02761 0.23506 0.98221 0.0
O122 O -0.00315 0.21114 0.88539 0.0
C123 C 0.9755 0.25923 0.00844 0.0
O124 O 0.98348 0.23413 0.90066 0.0
O125 O 0.97891 0.26256 0.97538 0.0
C126 C 0.76664 0.81667 0.50918 0.0
O127 O 0.78683 0.82474 0.52124 0.0
Cd128 Cd 0.80171 0.80266 0.54722 0.0
O129 O 0.75266 0.79489 0.50874 0.0
Cd130 Cd 0.7535 0.75907 0.5263 0.0
C131 C 0.76073 0.77642 0.61179 0.0
O132 O 0.79253 0.77203 0.50658 0.0
O133 O 0.77737 0.74113 0.53808 0.0
O134 O 0.73103 0.7386 0.47392 0.0
C135 C 0.79414 0.75546 0.51934 0.0
O136 O 0.78134 0.79112 0.60357 0.0
C137 C 0.71596 0.72109 0.49081 0.0
O138 O 0.7465 0.76314 0.58873 0.0
O139 O 0.71797 0.72163 0.52422 0.0
C140 C 0.17597 0.95548 0.5153 0.0
O141 O 0.16911 0.96896 0.52587 0.0
Cd142 Cd 0.19283 0.00818 0.54308 0.0
O143 O 0.19743 0.96259 0.51268 0.0
Cd144 Cd 0.23436 -7e-05 0.52354 0.0
C145 C 0.22243 0.00071 0.61084 0.0
O146 O 0.22163 0.02503 0.4985 0.0
O147 O 0.25398 0.04276 0.5256 0.0
O148 O 0.25248 0.99403 0.47145 0.0
C149 C 0.23902 0.04403 0.50701 0.0
O150 O 0.20785 0.00625 0.60062 0.0
C151 C 0.27014 -0.00329 0.48766 0.0
O152 O 0.23386 -0.00366 0.58844 0.0
O153 O 0.27064 -0.00021 0.52083 0.0
C154 C 0.02562 0.20807 0.54061 0.0
O155 O 0.0092 0.18864 0.55059 0.0
Cd156 Cd 0.96991 0.17737 0.55688 0.0
O157 O 0.02208 0.22445 0.53195 0.0
Cd158 Cd 0.98725 0.22922 0.53117 0.0
C159 C 0.97857 0.21833 0.61907 0.0
O160 O 0.9602 0.19173 0.50646 0.0
O161 O 0.94466 0.21009 0.52844 0.0
O162 O -0.00126 0.25268 0.47713 0.0
C163 C 0.94212 0.19258 0.5117 0.0
O164 O 0.97058 0.19723 0.61085 0.0
C165 C -0.00178 0.26968 0.49095 0.0
O166 O 0.98684 0.23406 0.59554 0.0
O167 O -0.00639 0.2682 0.52373 0.0
C168 C 0.83832 0.54927 0.34985 0.0
O169 O 0.83099 0.52847 0.35898 0.0
Cd170 Cd 0.85454 0.51335 0.3783 0.0
O171 O 0.85985 0.56376 0.34902 0.0
Cd172 Cd 0.89625 0.56342 0.36091 0.0
C173 C 0.88188 0.55077 0.44719 0.0
O174 O 0.88513 0.52529 0.33665 0.0
O175 O 0.91617 0.5414 0.36756 0.0
O176 O 0.91454 0.58713 0.30859 0.0
C177 C 0.90263 0.52484 0.34781 0.0
O178 O 0.8677 0.53046 0.43648 0.0
C179 C 0.93198 0.60268 0.32478 0.0
O180 O 0.89402 0.56678 0.42524 0.0
O181 O 0.93233 0.60049 0.35809 0.0
C182 C 0.42685 0.28388 0.36559 0.0
O183 O 0.4471 0.29645 0.37724 0.0
Cd184 Cd 0.46489 0.33669 0.38667 0.0
O185 O 0.41435 0.2927 0.35837 0.0
Cd186 Cd 0.41893 0.33252 0.36037 0.0
C187 C 0.42766 0.33695 0.44859 0.0
O188 O 0.45634 0.34988 0.33323 0.0
O189 O 0.44833 0.37482 0.35364 0.0
O190 O 0.39356 0.31923 0.30888 0.0
C191 C 0.46167 0.37076 0.3354 0.0
O192 O 0.44752 0.34037 0.4409 0.0
C193 C 0.38245 0.32921 0.31709 0.0
O194 O 0.41289 0.33249 0.4244 0.0
O195 O 0.38787 0.3403 0.34601 0.0
C196 C 0.71054 0.16043 0.34492 0.0
O197 O 0.69892 0.16964 0.35442 0.0
Cd198 Cd 0.65911 0.14869 0.36722 0.0
O199 O 0.70083 0.13856 0.34096 0.0
Cd200 Cd 0.66072 0.10414 0.34584 0.0
C201 C 0.65942 0.11358 0.43343 0.0
O202 O 0.64278 0.12342 0.31779 0.0
O203 O 0.61866 0.09121 0.34205 0.0
O204 O 0.67133 0.08934 0.29444 0.0
C205 C 0.62205 0.1081 0.3227 0.0
O206 O 0.65702 0.13046 0.42392 0.0
C207 C 0.66246 0.06874 0.30561 0.0
O208 O 0.66196 0.10116 0.41048 0.0
O209 O 0.65317 0.06462 0.336 0.0
C210 C 0.87502 0.49789 0.78764 0.0
O211 O 0.85438 0.48799 0.77692 0.0
Cd212 Cd 0.83253 0.50628 0.76724 0.0
O213 O 0.88578 0.51947 0.7947 0.0
Cd214 Cd 0.87657 0.5516 0.79382 0.0
C215 C 0.86765 0.54626 0.70552 0.0
O216 O 0.83863 0.52867 0.81925 0.0
O217 O 0.84554 0.56143 0.79846 0.0
O218 O 0.89952 0.56576 0.84755 0.0
C219 C 0.83232 0.54343 0.81603 0.0
O220 O 0.84864 0.52828 0.71312 0.0
C221 C 0.91 0.5869 0.83867 0.0
O222 O 0.88199 0.55783 0.72972 0.0
O223 O 0.90571 0.5916 0.80809 0.0
C224 C 0.46236 0.36358 0.79802 0.0
O225 O 0.46935 0.35004 0.78828 0.0
Cd226 Cd 0.4446 0.31126 0.76986 0.0
O227 O 0.44091 0.35634 0.80061 0.0
Cd228 Cd 0.40356 0.31927 0.79372 0.0
C229 C 0.41381 0.32175 0.70629 0.0
O230 O 0.41643 0.29339 0.81513 0.0
O231 O 0.38352 0.27665 0.78936 0.0
O232 O 0.3937 0.33002 0.8496 0.0
C233 C 0.39865 0.27471 0.80636 0.0
O234 O 0.42857 0.31613 0.71518 0.0
C235 C 0.3734 0.32459 0.84104 0.0
O236 O 0.40204 0.32495 0.72963 0.0
O237 O 0.36723 0.31746 0.80961 0.0
C238 C 0.61564 0.12275 0.76892 0.0
O239 O 0.63091 0.14297 0.75981 0.0
Cd240 Cd 0.67075 0.15654 0.75632 0.0
O241 O 0.62109 0.10768 0.77736 0.0
Cd242 Cd 0.65833 0.10729 0.77982 0.0
C243 C 0.66726 0.11867 0.69246 0.0
O244 O 0.68023 0.14405 0.80962 0.0
O245 O 0.70093 0.13144 0.78632 0.0
O246 O 0.64253 0.08248 0.83172 0.0
C247 C 0.69969 0.14571 0.80682 0.0
O248 O 0.67374 0.13936 0.70145 0.0
C249 C 0.64956 0.06874 0.82349 0.0
O250 O 0.65956 0.10262 0.71551 0.0
O251 O 0.6597 0.07219 0.79389 0.0
C252 C 0.48805 0.1262 0.28052 0.0
O253 O 0.48999 0.14527 0.27107 0.0
Cd254 Cd 0.46033 0.15384 0.26228 0.0
O255 O 0.46837 0.10886 0.28792 0.0
Cd256 Cd 0.42781 0.10224 0.28777 0.0
C257 C 0.43147 0.11196 0.19947 0.0
O258 O 0.43623 0.13919 0.31284 0.0
O259 O 0.4031 0.11988 0.28838 0.0
O260 O 0.41899 0.07895 0.34167 0.0
C261 C 0.41679 0.13707 0.30694 0.0
O262 O 0.44328 0.13325 0.20756 0.0
C263 C 0.39934 0.06316 0.33146 0.0
O264 O 0.42421 0.09642 0.22336 0.0
O265 O 0.39365 0.06475 0.30004 0.0
C266 C 0.89177 0.37686 0.28934 0.0
O267 O 0.8716 0.36361 0.27786 0.0
Cd268 Cd 0.8575 0.32477 0.25956 0.0
O269 O 0.90588 0.36953 0.2927 0.0
Cd270 Cd 0.90647 0.33261 0.28409 0.0
C271 C 0.89841 0.33376 0.19629 0.0
O272 O 0.86752 0.30743 0.30606 0.0
O273 O 0.88359 0.28998 0.28233 0.0
O274 O 0.92953 0.34414 0.33791 0.0
C275 C 0.86649 0.28852 0.29862 0.0
O276 O 0.87805 0.32853 0.2047 0.0
C277 C 0.9436 0.33804 0.32756 0.0
O278 O 0.91322 0.3372 0.21997 0.0
O279 O 0.9409 0.33006 0.2964 0.0
C280 C 0.61767 0.4982 0.28897 0.0
O281 O 0.63356 0.49443 0.27947 0.0
Cd282 Cd 0.67262 0.52192 0.26891 0.0
O283 O 0.62205 0.51868 0.2959 0.0
Cd284 Cd 0.65812 0.55811 0.29511 0.0
C285 C 0.66187 0.55302 0.20686 0.0
O286 O 0.68531 0.54732 0.31792 0.0
O287 O 0.70065 0.5808 0.29366 0.0
O288 O 0.64601 0.56839 0.34986 0.0
C289 C 0.70341 0.5661 0.31068 0.0
O290 O 0.66947 0.53963 0.21482 0.0
C291 C 0.6506 0.58828 0.33937 0.0
O292 O 0.65547 0.56193 0.23081 0.0
O293 O 0.6574 0.59356 0.30762 0.0
C294 C 0.4252 0.14592 0.85081 0.0
O295 O 0.44613 0.15541 0.85994 0.0
Cd296 Cd 0.46699 0.13639 0.87128 0.0
O297 O 0.41318 0.12401 0.84705 0.0
Cd298 Cd 0.42093 0.09099 0.85411 0.0
C299 C 0.43537 0.10284 0.94081 0.0
O300 O 0.45694 0.1103 0.82257 0.0
O301 O 0.45097 0.0795 0.84947 0.0
O302 O 0.39555 0.06932 0.8047 0.0
C303 C 0.46286 0.09539 0.82746 0.0
O304 O 0.45427 0.11978 0.93004 0.0
C305 C 0.38348 0.05091 0.82224 0.0
O306 O 0.41985 0.09004 0.91889 0.0
O307 O 0.38826 0.05146 0.85479 0.0
C308 C 0.83948 0.28968 0.86225 0.0
O309 O 0.83706 0.30644 0.87206 0.0
Cd310 Cd 0.86533 0.34605 0.87566 0.0
O311 O 0.8591 0.29295 0.85274 0.0
Cd312 Cd 0.89894 0.32813 0.85051 0.0
C313 C 0.89865 0.33959 0.93796 0.0
O314 O 0.88817 0.35422 0.82409 0.0
O315 O 0.92221 0.37113 0.84553 0.0
O316 O 0.91027 0.31625 0.79646 0.0
C317 C 0.90703 0.37279 0.82818 0.0
O318 O 0.8857 0.34754 0.92932 0.0
C319 C 0.92788 0.31696 0.80983 0.0
O320 O 0.90523 0.33028 0.91494 0.0
O321 O 0.93136 0.32174 0.84251 0.0
C322 C 0.68056 0.5237 0.86878 0.0
O323 O 0.66338 0.50492 0.87922 0.0
Cd324 Cd 0.6256 0.49729 0.8893 0.0
O325 O 0.67849 0.54117 0.86127 0.0
Cd326 Cd 0.64555 0.54921 0.86184 0.0
C327 C 0.63984 0.54064 0.95029 0.0
O328 O 0.61701 0.51207 0.8383 0.0
O329 O 0.60298 0.53193 0.85969 0.0
O330 O 0.66098 0.57221 0.80782 0.0
C331 C 0.59953 0.51401 0.84325 0.0
O332 O 0.63041 0.51925 0.94287 0.0
C333 C 0.65796 0.58856 0.81784 0.0
O334 O 0.64788 0.55588 0.92599 0.0
O335 O 0.65035 0.58718 0.849 0.0
C336 C 0.51685 0.89558 0.70572 0.0
O337 O 0.52627 0.89466 0.6774 0.0
Cd338 Cd 0.55612 0.89113 0.71068 0.0
O339 O 0.52706 0.89635 0.73411 0.0
Cd340 Cd 0.56564 0.89747 0.71951 0.0
C341 C 0.55526 0.8876 0.79431 0.0
O342 O 0.55571 0.85989 0.68639 0.0
O343 O 0.58047 0.87026 0.72829 0.0
O344 O 0.57544 0.92287 0.66675 0.0
C345 C 0.56938 0.85596 0.70387 0.0
O346 O 0.54176 0.87422 0.77083 0.0
C347 C 0.59649 0.93548 0.67458 0.0
O348 O 0.57309 0.90566 0.78363 0.0
O349 O 0.60293 0.93125 0.70381 0.0
C350 C 0.09183 0.60663 0.68777 0.0
O351 O 0.11233 0.61854 0.69875 0.0
Cd352 Cd 0.13174 0.65845 0.71196 0.0
O353 O 0.07946 0.61594 0.68339 0.0
Cd354 Cd 0.08574 0.65612 0.69228 0.0
C355 C 0.0979 0.65792 0.7797 0.0
O356 O 0.12263 0.67516 0.66323 0.0
O357 O 0.11509 0.69837 0.6915 0.0
O358 O 0.06218 0.65256 0.64057 0.0
C359 C 0.12781 0.69571 0.66959 0.0
O360 O 0.11731 0.66105 0.76979 0.0
C361 C 0.0491 0.65798 0.65682 0.0
O362 O 0.08256 0.65453 0.75706 0.0
O363 O 0.05245 0.66159 0.68979 0.0
C364 C 0.36976 0.48648 0.67459 0.0
O365 O 0.35711 0.4943 0.68519 0.0
Cd366 Cd 0.31795 0.47014 0.70327 0.0
O367 O 0.36153 0.4648 0.67118 0.0
Cd368 Cd 0.3241 0.42814 0.67766 0.0
C369 C 0.32529 0.43644 0.7656 0.0
O370 O 0.29808 0.44177 0.65885 0.0
O371 O 0.28238 0.40828 0.68387 0.0
O372 O 0.33215 0.41754 0.62023 0.0
C373 C 0.27986 0.42361 0.66834 0.0
O374 O 0.32048 0.45194 0.75731 0.0
C375 C 0.32801 0.39755 0.62919 0.0
O376 O 0.32885 0.42516 0.74174 0.0
O377 O 0.32282 0.39193 0.66143 0.0
C378 C 0.52758 0.83831 0.15326 0.0
O379 O 0.50796 0.83608 0.14809 0.0
Cd380 Cd 0.49904 0.86372 0.12756 0.0
O381 O 0.54587 0.85792 0.1491 0.0
Cd382 Cd 0.55352 0.89829 0.13411 0.0
C383 C 0.53293 0.88028 0.05197 0.0
O384 O 0.52097 0.89539 0.16489 0.0
O385 O 0.53581 0.92332 0.1278 0.0
O386 O 0.58033 0.91533 0.18308 0.0
C387 C 0.52129 0.91297 0.15223 0.0
O388 O 0.5134 0.87029 0.06718 0.0
C389 C 0.59608 0.93177 0.16534 0.0
O390 O 0.55135 0.89161 0.06979 0.0
O391 O 0.59284 0.93162 0.13222 0.0
C392 C 0.15008 0.69503 0.12019 0.0
O393 O 0.15322 0.67872 0.11039 0.0
Cd394 Cd 0.12501 0.63945 0.10244 0.0
O395 O 0.12996 0.69121 0.12766 0.0
Cd396 Cd 0.09028 0.65582 0.12699 0.0
C397 C 0.09434 0.64894 0.03884 0.0
O398 O 0.10104 0.62947 0.15319 0.0
O399 O 0.06709 0.61302 0.1313 0.0
O400 O 0.08104 0.67072 0.17972 0.0
C401 C 0.08203 0.61109 0.14885 0.0
O402 O 0.10718 0.64088 0.04751 0.0
C403 C 0.06117 0.66581 0.16938 0.0
O404 O 0.08631 0.65664 0.06225 0.0
O405 O 0.05542 0.65755 0.13843 0.0
C406 C 0.28386 0.44672 0.10495 0.0
O407 O 0.29984 0.46656 0.09553 0.0
Cd408 Cd 0.33938 0.47922 0.08823 0.0
O409 O 0.28816 0.43071 0.11264 0.0
Cd410 Cd 0.32428 0.42797 0.11229 0.0
C411 C 0.33212 0.43954 0.02451 0.0
O412 O 0.35061 0.46552 0.13786 0.0
O413 O 0.36678 0.44846 0.11315 0.0
O414 O 0.31522 0.40572 0.16717 0.0
C415 C 0.36888 0.46511 0.13178 0.0
O416 O 0.33922 0.46039 0.03337 0.0
C417 C 0.3166 0.38907 0.15392 0.0
O418 O 0.32464 0.42355 0.04767 0.0
O419 O 0.32007 0.38981 0.12082 0.0
C420 C 0.14396 0.43886 0.62949 0.0
O421 O 0.15074 0.45995 0.62325 0.0
Cd422 Cd 0.12561 0.47188 0.60004 0.0
O423 O 0.12276 0.42356 0.62646 0.0
Cd424 Cd 0.08472 0.42026 0.61273 0.0
C425 C 0.10437 0.4334 0.52967 0.0
O426 O 0.09348 0.4568 0.6393 0.0
O427 O 0.06327 0.44122 0.60669 0.0
O428 O 0.07196 0.39433 0.66343 0.0
C429 C 0.0761 0.45728 0.62775 0.0
O430 O 0.11762 0.45342 0.54223 0.0
C431 C 0.05249 0.37987 0.65087 0.0
O432 O 0.08999 0.417 0.54924 0.0
O433 O 0.04808 0.38373 0.61979 0.0
C434 C 0.55383 0.70693 0.63931 0.0
O435 O 0.53359 0.69457 0.62745 0.0
Cd436 Cd 0.51697 0.65588 0.60656 0.0
O437 O 0.56747 0.69895 0.64114 0.0
Cd438 Cd 0.56609 0.66178 0.62621 0.0
C439 C 0.55513 0.66471 0.5394 0.0
O440 O 0.5272 0.63598 0.64826 0.0
O441 O 0.54251 0.61961 0.61904 0.0
O442 O 0.58873 0.66509 0.67873 0.0
C443 C 0.52572 0.61747 0.63714 0.0
O444 O 0.53503 0.65939 0.54952 0.0
C445 C 0.60385 0.66267 0.66238 0.0
O446 O 0.57057 0.66793 0.56181 0.0
O447 O 0.60193 0.66081 0.62899 0.0
C448 C 0.28267 0.8236 0.62597 0.0
O449 O 0.29768 0.81856 0.61653 0.0
Cd450 Cd 0.33755 0.84478 0.61171 0.0
O451 O 0.28848 0.84423 0.63469 0.0
Cd452 Cd 0.32652 0.88156 0.63633 0.0
C453 C 0.33277 0.87852 0.54846 0.0
O454 O 0.34947 0.86737 0.66472 0.0
O455 O 0.36904 0.89946 0.63668 0.0
O456 O 0.3143 0.89351 0.68933 0.0
C457 C 0.3688 0.88503 0.6586 0.0
O458 O 0.33963 0.86453 0.55643 0.0
C459 C 0.32114 0.91394 0.67873 0.0
O460 O 0.32571 0.88679 0.57239 0.0
O461 O 0.3295 0.91896 0.64774 0.0
C462 C 0.10269 0.47929 0.19562 0.0
O463 O 0.12417 0.48775 0.19937 0.0
Cd464 Cd 0.14274 0.46555 0.20151 0.0
O465 O 0.08938 0.4575 0.19302 0.0
Cd466 Cd 0.09306 0.4221 0.19267 0.0
C467 C 0.11547 0.43167 0.2743 0.0
O468 O 0.12654 0.43861 0.1544 0.0
O469 O 0.11952 0.40706 0.17991 0.0
O470 O 0.06234 0.40826 0.14909 0.0
C471 C 0.1313 0.42269 0.1575 0.0
O472 O 0.13382 0.44679 0.25912 0.0
C473 C 0.05111 0.38775 0.16075 0.0
O474 O 0.09668 0.42094 0.25723 0.0
O475 O 0.05906 0.38319 0.18806 0.0
C476 C 0.49911 0.61613 0.19485 0.0
O477 O 0.49026 0.6274 0.20767 0.0
Cd478 Cd 0.50932 0.66731 0.22201 0.0
O479 O 0.52061 0.62611 0.18805 0.0
Cd480 Cd 0.55557 0.66596 0.19149 0.0
C481 C 0.54952 0.66841 0.28068 0.0
O482 O 0.53408 0.68347 0.17319 0.0
O483 O 0.5691 0.70843 0.18456 0.0
O484 O 0.56684 0.65477 0.13715 0.0
C485 C 0.54937 0.70448 0.17536 0.0
O486 O 0.53194 0.67009 0.27361 0.0
C487 C 0.58774 0.663 0.14566 0.0
O488 O 0.56094 0.6657 0.25612 0.0
O489 O 0.59369 0.67229 0.17599 0.0
C490 C 0.3692 0.88868 0.20019 0.0
O491 O 0.35855 0.86764 0.2097 0.0
Cd492 Cd 0.31866 0.84487 0.22127 0.0
O493 O 0.35854 0.89976 0.19605 0.0
Cd494 Cd 0.31765 0.89039 0.20362 0.0
C495 C 0.31705 0.87685 0.29044 0.0
O496 O 0.30129 0.8538 0.1735 0.0
O497 O 0.2763 0.85954 0.19984 0.0
O498 O 0.32237 0.91486 0.15276 0.0
C499 C 0.28039 0.84735 0.17875 0.0
O500 O 0.31519 0.85803 0.27957 0.0
C501 C 0.31525 0.92685 0.16827 0.0
O502 O 0.31911 0.89223 0.26857 0.0
O503 O 0.30992 0.9224 0.2007 0.0
H504 H 0.32663 0.30313 0.83607 0.0
H505 H 0.38341 0.34363 0.90709 0.0
H506 H 0.35603 0.33624 0.95556 0.0
H507 H 0.28415 0.31769 0.87825 0.0
H508 H 0.26082 0.28868 0.87114 0.0
H509 H 0.28443 0.3016 0.84029 0.0
H510 H 0.29105 0.26703 0.84884 0.0
H511 H 0.2677 0.25413 0.8798 0.0
H512 H 0.29579 0.25977 0.89274 0.0
H513 H 0.32341 0.31844 -0.00155 0.0
H514 H 0.28821 0.29207 0.03176 0.0
H515 H 0.25259 0.26322 0.93298 0.0
C516 C 0.33326 0.31122 0.86144 0.0
C517 C 0.35712 0.32408 0.86776 0.0
C518 C 0.36517 0.33382 0.9016 0.0
C519 C 0.34974 0.32979 0.92929 0.0
C520 C 0.3263 0.31613 0.92265 0.0
C521 C 0.31806 0.30721 0.88941 0.0
C522 C 0.29239 0.29065 0.89022 0.0
C523 C 0.2797 0.30024 0.8687 0.0
C524 C 0.28641 0.26648 0.87715 0.0
C525 C 0.28772 0.29058 0.92938 0.0
C526 C 0.30737 0.30577 0.94758 0.0
C527 C 0.30778 0.30691 0.98442 0.0
C528 C 0.28772 0.29182 0.00314 0.0
C529 C 0.26762 0.2757 0.98498 0.0
C530 C 0.26756 0.27562 0.94763 0.0
H531 H 0.67028 0.04272 0.81819 0.0
H532 H 0.62771 0.05707 0.88753 0.0
H533 H 0.63259 0.03471 0.93505 0.0
H534 H 0.65279 0.98326 0.85583 0.0
H535 H 0.68164 0.98857 0.85075 0.0
H536 H 0.67049 0.00099 0.81989 0.0
H537 H 0.70508 0.04166 0.83298 0.0
H538 H 0.71619 0.02946 0.86398 0.0
H539 H 0.71072 0.05196 0.87793 0.0
H540 H 0.64837 0.01809 0.97803 0.0
H541 H 0.67279 0.00738 0.01233 0.0
H542 H 0.70458 0.00302 0.91515 0.0
C543 C 0.66124 0.04037 0.8429 0.0
C544 C 0.64852 0.05154 0.8491 0.0
C545 C 0.63743 0.04856 0.88211 0.0
C546 C 0.64005 0.03582 0.90925 0.0
C547 C 0.65358 0.02591 0.90286 0.0
C548 C 0.66373 0.02773 0.87029 0.0
C549 C 0.67969 0.01799 0.87151 0.0
C550 C 0.6706 -0.00358 0.84811 0.0
C551 C 0.70437 0.03637 0.861 0.0
C552 C 0.67806 0.01175 0.9103 0.0
C553 C 0.66256 0.01601 0.92781 0.0
C554 C 0.66007 0.01407 0.96447 0.0
C555 C 0.67408 0.00807 0.98377 0.0
C556 C 0.69039 0.00414 0.96636 0.0
C557 C 0.69188 0.00539 0.9291 0.0
H558 H 0.96319 0.71207 0.92074 0.0
H559 H 0.96413 0.68145 0.02133 0.0
H560 H 0.95505 0.64525 0.99087 0.0
H561 H 0.9153 0.66419 0.88821 0.0
H562 H 0.92476 0.66783 0.84286 0.0
H563 H 0.9354 0.69252 0.8714 0.0
H564 H 0.97722 0.70286 0.85784 0.0
H565 H 0.96667 0.67814 0.82912 0.0
H566 H 0.98568 0.6816 0.86507 0.0
H567 H 0.94136 0.6112 0.95093 0.0
H568 H 0.92246 0.58132 0.90508 0.0
H569 H 0.9295 0.63373 0.83045 0.0
C570 C 0.96216 0.69798 0.9362 0.0
C571 C 0.96459 0.69961 0.97334 0.0
C572 C 0.96245 0.68058 -0.00718 0.0
C573 C 0.95742 0.66 0.97573 0.0
C574 C 0.95456 0.65874 0.93915 0.0
C575 C 0.95687 0.67723 0.91958 0.0
C576 C 0.95037 0.67057 0.88128 0.0
C577 C 0.93026 0.67397 0.87032 0.0
C578 C 0.97123 0.6841 0.85689 0.0
C579 C 0.9432 0.64524 0.88264 0.0
C580 C 0.9462 0.63888 0.9161 0.0
C581 C 0.93927 0.61604 0.92449 0.0
C582 C 0.92852 0.59918 0.89826 0.0
C583 C 0.9246 0.6052 0.86413 0.0
C584 C 0.93257 0.62864 0.85611 0.0
H585 H 0.31203 0.35134 0.638 0.0
H586 H 0.33994 0.40596 0.55943 0.0
H587 H 0.33067 0.37712 0.51251 0.0
H588 H 0.32836 0.31133 0.58975 0.0
H589 H 0.30203 0.2863 0.6039 0.0
H590 H 0.31591 0.31143 0.63189 0.0
H591 H 0.27824 0.31294 0.63405 0.0
H592 H 0.26437 0.28807 0.60594 0.0
H593 H 0.26522 0.31442 0.59323 0.0
H594 H 0.31126 0.3426 0.47367 0.0
H595 H 0.28404 0.30516 0.44642 0.0
H596 H 0.26916 0.27271 0.54981 0.0
C597 C 0.31702 0.35729 0.61109 0.0
C598 C 0.32676 0.38089 0.6024 0.0
C599 C 0.33255 0.38798 0.56675 0.0
C600 C 0.32743 0.37171 0.53989 0.0
C601 C 0.31682 0.34844 0.5491 0.0
C602 C 0.312 0.34124 0.58394 0.0
C603 C 0.29794 0.31516 0.58644 0.0
C604 C 0.3119 0.30549 0.60403 0.0
C605 C 0.2751 0.30721 0.60604 0.0
C606 C 0.29414 0.30894 0.54758 0.0
C607 C 0.30566 0.32832 0.52644 0.0
C608 C 0.30266 0.32721 0.48987 0.0
C609 C 0.28709 0.30589 0.47461 0.0
C610 C 0.27461 0.28601 0.49595 0.0
C611 C 0.27878 0.28751 0.53272 0.0
H612 H 0.64328 0.95597 0.67582 0.0
H613 H 0.58693 0.95132 0.61407 0.0
H614 H 0.6138 0.97273 0.56549 0.0
H615 H 0.68958 0.01404 0.64043 0.0
H616 H 0.71037 0.00466 0.64061 0.0
H617 H 0.68783 0.99375 0.67334 0.0
H618 H 0.67557 0.95189 0.65485 0.0
H619 H 0.69781 0.9626 0.62195 0.0
H620 H 0.6684 0.94341 0.60931 0.0
H621 H 0.64492 0.98792 0.52007 0.0
H622 H 0.67799 -0.00371 0.48192 0.0
H623 H 0.7142 0.99108 0.57299 0.0
C624 C 0.63676 0.96028 0.65266 0.0
C625 C 0.61306 0.95216 0.64882 0.0
C626 C 0.60506 0.95752 0.61766 0.0
C627 C 0.62021 0.96974 0.58995 0.0
C628 C 0.64334 0.97661 0.5939 0.0
C629 C 0.65165 0.97231 0.62467 0.0
C630 C 0.67657 0.97887 0.62062 0.0
C631 C 0.692 -0.00097 0.64521 0.0
C632 C 0.67975 0.95795 0.62704 0.0
C633 C 0.68061 0.98635 0.58226 0.0
C634 C 0.66139 0.98536 0.56749 0.0
C635 C 0.66026 0.98929 0.53153 0.0
C636 C 0.67909 0.99394 0.51003 0.0
C637 C 0.69872 0.9945 0.52453 0.0
C638 C 0.69962 0.9912 0.56125 0.0
H639 H 0.01062 0.70521 0.49516 0.0
H640 H 0.97004 0.71879 0.56995 0.0
H641 H 0.97614 0.69588 0.61514 0.0
H642 H -0.00606 0.6456 0.52864 0.0
H643 H 0.02258 0.6507 0.52163 0.0
H644 H 0.01127 0.66416 0.4931 0.0
H645 H 0.04629 0.70429 0.5075 0.0
H646 H 0.05761 0.69103 0.5361 0.0
H647 H 0.05269 0.71332 0.55297 0.0
H648 H -0.0084 0.67722 0.65464 0.0
H649 H 0.01535 0.66421 0.68548 0.0
H650 H 0.04599 0.66253 0.58543 0.0
C651 C 0.00235 0.70266 0.52065 0.0
C652 C -0.01031 0.71361 0.52898 0.0
C653 C 0.9797 0.71045 0.56296 0.0
C654 C 0.98299 0.69738 0.58877 0.0
C655 C -0.00377 0.68747 0.58016 0.0
C656 C 0.00562 0.68979 0.54683 0.0
C657 C 0.02135 0.67974 0.54563 0.0
C658 C 0.0117 0.6588 0.52078 0.0
C659 C 0.04593 0.6982 0.53494 0.0
C660 C 0.0202 0.67246 0.58386 0.0
C661 C 0.00527 0.67667 0.60317 0.0
C662 C 0.00295 0.67337 0.63967 0.0
C663 C 0.01656 0.66604 0.65698 0.0
C664 C 0.03236 0.66217 0.63782 0.0
C665 C 0.03372 0.66488 0.60068 0.0
H666 H 0.63456 0.68644 0.15162 0.0
H667 H 0.57901 0.64131 0.0816 0.0
H668 H 0.60718 0.64684 0.03539 0.0
H669 H 0.66567 0.72698 0.09089 0.0
H670 H 0.69369 0.73389 0.10645 0.0
H671 H 0.66984 0.7222 0.13653 0.0
H672 H 0.67723 0.68886 0.15237 0.0
H673 H 0.70122 0.70051 0.12217 0.0
H674 H 0.67832 0.671 0.1177 0.0
H675 H 0.64021 0.66294 -0.00645 0.0
H676 H 0.67516 0.68887 0.95952 0.0
H677 H 0.70952 0.72318 0.05661 0.0
C678 C 0.62838 0.67706 0.12702 0.0
C679 C 0.60462 0.66335 0.12027 0.0
C680 C 0.59715 0.65182 0.08742 0.0
C681 C 0.61305 0.65475 0.06106 0.0
C682 C 0.63636 0.66908 0.06805 0.0
C683 C 0.64403 0.67989 0.10039 0.0
C684 C 0.66963 0.69678 0.09968 0.0
C685 C 0.675 0.7214 0.1089 0.0
C686 C 0.68235 0.6888 0.12445 0.0
C687 C 0.67489 0.69488 0.06131 0.0
C688 C 0.6556 0.67839 0.04371 0.0
C689 C 0.65559 0.67547 0.0072 0.0
C690 C 0.67552 0.6903 0.98806 0.0
C691 C 0.69511 0.70791 0.00545 0.0
C692 C 0.69499 0.70955 0.04267 0.0
H693 H 0.3144 0.93162 0.09667 0.0
H694 H 0.3062 0.95921 0.19576 0.0
H695 H 0.2944 0.9834 0.16296 0.0
H696 H 0.3333 0.98508 0.04149 0.0
H697 H 0.31708 0.96818 0.00399 0.0
H698 H 0.32929 0.95667 0.03458 0.0
H699 H 0.28907 0.92065 0.04426 0.0
H700 H 0.27676 0.93205 0.01393 0.0
H701 H 0.26561 0.92446 0.05828 0.0
H702 H 0.27807 -0.00014 0.12068 0.0
H703 H 0.25753 0.0066 0.07247 0.0
H704 H 0.27578 0.96795 0.00064 0.0
C705 C 0.31087 0.94333 0.1114 0.0
C706 C 0.31142 0.94372 0.14874 0.0
C707 C 0.30603 0.95877 0.16714 0.0
C708 C 0.29942 0.97264 0.14871 0.0
C709 C 0.29835 0.97132 0.11192 0.0
C710 C 0.30404 0.95712 0.09342 0.0
C711 C 0.29877 0.95669 0.0544 0.0
C712 C 0.32094 0.96729 0.03232 0.0
C713 C 0.28153 0.93201 0.04203 0.0
C714 C 0.28823 0.97199 0.05408 0.0
C715 C 0.28861 0.98065 0.08739 0.0
C716 C 0.27808 0.99356 0.09435 0.0
C717 C 0.2664 -0.00276 0.0668 0.0
C718 C 0.26518 0.98791 0.03276 0.0
C719 C 0.27679 0.97567 0.0262 0.0
H720 H 0.03034 0.34099 0.16946 0.0
H721 H 0.02785 0.39375 0.10648 0.0
H722 H -5e-05 0.36377 0.06641 0.0
H723 H 0.0335 0.31087 0.10241 0.0
H724 H 0.01601 0.28236 0.12073 0.0
H725 H 0.03046 0.30672 0.14964 0.0
H726 H -0.00828 0.29629 0.17922 0.0
H727 H 0.97706 0.27169 0.15033 0.0
H728 H 0.96816 0.29292 0.15233 0.0
H729 H 0.98021 0.33016 0.02624 0.0
H730 H 0.97011 0.29573 0.98998 0.0
H731 H 0.98441 0.26421 0.07903 0.0
C732 C 0.02318 0.34611 0.14809 0.0
C733 C 0.03117 0.36966 0.14116 0.0
C734 C 0.0219 0.37579 0.11237 0.0
C735 C 0.00592 0.35885 0.08955 0.0
C736 C -0.00078 0.33583 0.09606 0.0
C737 C 0.00732 0.3294 0.12495 0.0
C738 C 0.00022 0.30409 0.12318 0.0
C739 C 0.0213 0.30085 0.12401 0.0
C740 C 0.98327 0.29044 0.15304 0.0
C741 C -0.01157 0.29775 0.08754 0.0
C742 C 0.98746 0.31612 0.07272 0.0
C743 C 0.98022 0.31543 0.03797 0.0
C744 C 0.97458 0.29584 0.0175 0.0
C745 C 0.97625 0.27723 0.03185 0.0
C746 C 0.98238 0.2779 0.06769 0.0
H747 H 0.67142 0.63492 0.32986 0.0
H748 H 0.63196 0.58057 0.4058 0.0
H749 H 0.63914 0.60994 0.45111 0.0
H750 H 0.7147 0.66844 0.38486 0.0
H751 H 0.72004 0.69602 0.36868 0.0
H752 H 0.70733 0.67132 0.34007 0.0
H753 H 0.67268 0.67718 0.32879 0.0
H754 H 0.68542 0.70214 0.35723 0.0
H755 H 0.65667 0.67882 0.36576 0.0
H756 H 0.65609 0.64455 0.49043 0.0
H757 H 0.68165 0.68136 0.52061 0.0
H758 H 0.71085 0.71328 0.41944 0.0
C759 C 0.66351 0.6292 0.35561 0.0
C760 C 0.65092 0.60547 0.36422 0.0
C761 C 0.64148 0.59867 0.39854 0.0
C762 C 0.64541 0.61524 0.42443 0.0
C763 C 0.65875 0.63854 0.41553 0.0
C764 C 0.66749 0.64553 0.38181 0.0
C765 C 0.68381 0.67139 0.38022 0.0
C766 C 0.70788 0.6771 0.36774 0.0
C767 C 0.67405 0.68307 0.3566 0.0
C768 C 0.6839 0.67766 0.41868 0.0
C769 C 0.6689 0.65858 0.43846 0.0
C770 C 0.66752 0.6597 0.47511 0.0
C771 C 0.68218 0.68068 0.49204 0.0
C772 C 0.69819 0.70023 0.47237 0.0
C773 C 0.69857 0.69875 0.43515 0.0
H774 H 0.27644 -0.00201 0.41605 0.0
H775 H 0.30973 0.00148 0.51578 0.0
H776 H 0.3457 0.01207 0.48398 0.0
H777 H 0.30978 0.97761 0.36022 0.0
H778 H 0.31072 -0.00471 0.32358 0.0
H779 H 0.28641 0.98297 0.35317 0.0
H780 H 0.29252 0.02377 0.36494 0.0
H781 H 0.31679 0.03617 0.33563 0.0
H782 H 0.32004 0.04626 0.38057 0.0
H783 H 0.37948 0.02951 0.44327 0.0
H784 H 0.40803 0.052 0.39705 0.0
H785 H 0.3529 0.03665 0.32341 0.0
C786 C 0.29105 0.00013 0.43109 0.0
C787 C 0.29023 -0.00123 0.46838 0.0
C788 C 0.3099 0.00227 0.48718 0.0
C789 C 0.3304 0.00822 0.4693 0.0
C790 C 0.33092 0.01036 0.4326 0.0
C791 C 0.31165 0.00614 0.41363 0.0
C792 C 0.31739 0.0124 0.375 0.0
C793 C 0.30536 0.99077 0.35161 0.0
C794 C 0.31134 0.03074 0.36339 0.0
C795 C 0.34312 0.02209 0.37558 0.0
C796 C 0.35053 0.02032 0.40889 0.0
C797 C 0.37383 0.03044 0.41686 0.0
C798 C 0.38994 0.04323 0.39046 0.0
C799 C 0.38269 0.04584 0.35653 0.0
C800 C 0.35897 0.03446 0.34881 0.0
H801 H 0.96523 0.31305 0.32151 0.0
H802 H 0.95885 0.36133 0.38999 0.0
H803 H 0.98085 0.35492 0.43621 0.0
H804 H 0.95287 0.27285 0.38248 0.0
H805 H 0.97237 0.26346 0.36814 0.0
H806 H 0.96226 0.27655 0.33707 0.0
H807 H 0.0042 0.30743 0.32164 0.0
H808 H 0.01452 0.2943 0.35267 0.0
H809 H 0.02361 0.32452 0.3564 0.0
H810 H -0.0044 0.33738 0.47872 0.0
H811 H 0.00113 0.30969 0.5142 0.0
H812 H -0.00231 0.2722 0.41887 0.0
C813 C 0.96937 0.32303 0.34565 0.0
C814 C 0.96055 0.33784 0.3521 0.0
C815 C 0.96559 0.35001 0.38445 0.0
C816 C 0.9782 0.34658 0.41078 0.0
C817 C 0.98573 0.33099 0.40431 0.0
C818 C 0.98169 0.31955 0.37235 0.0
C819 C -0.01173 0.30103 0.374 0.0
C820 C 0.96772 0.27708 0.36492 0.0
C821 C 0.00888 0.3072 0.34974 0.0
C822 C -0.00504 0.30264 0.41254 0.0
C823 C -0.00591 0.32052 0.42928 0.0
C824 C -0.00307 0.32372 0.46574 0.0
C825 C -2e-05 0.30784 0.48572 0.0
C826 C -4e-05 0.28887 0.46926 0.0
C827 C -0.00174 0.2868 0.43208 0.0
H828 H 0.01476 0.64522 0.16093 0.0
H829 H 0.06974 0.68662 0.23423 0.0
H830 H 0.04112 0.68073 0.27994 0.0
H831 H 0.97137 0.66096 0.19639 0.0
H832 H 0.94818 0.63183 0.1896 0.0
H833 H 0.9726 0.64412 0.16022 0.0
H834 H 0.97879 0.60967 0.17308 0.0
H835 H 0.95464 0.59742 0.20261 0.0
H836 H 0.98233 0.60326 0.21816 0.0
H837 H 0.00734 0.66422 0.32057 0.0
H838 H 0.97142 0.63843 0.35258 0.0
H839 H 0.93829 0.60728 0.25319 0.0
C840 C 0.02077 0.65388 0.1861 0.0
C841 C 0.04446 0.66657 0.19393 0.0
C842 C 0.05166 0.677 0.22756 0.0
C843 C 0.03551 0.6738 0.25367 0.0
C844 C 0.01223 0.66024 0.24566 0.0
C845 C 0.00486 0.65064 0.21252 0.0
C846 C 0.97916 0.63412 0.21207 0.0
C847 C 0.96712 0.64332 0.18815 0.0
C848 C 0.97342 0.60969 0.20085 0.0
C849 C 0.97344 0.63483 0.25059 0.0
C850 C -0.00737 0.65044 0.26937 0.0
C851 C -0.00792 0.65236 0.30601 0.0
C852 C 0.9716 0.63758 0.324 0.0
C853 C 0.95201 0.62093 0.30537 0.0
C854 C 0.95284 0.6201 0.26811 0.0
H855 H 0.3625 0.35599 0.32147 0.0
H856 H 0.36506 0.30402 0.25658 0.0
H857 H 0.34155 0.30891 0.21124 0.0
H858 H 0.30314 0.34289 0.29376 0.0
H859 H 0.31191 0.37312 0.29416 0.0
H860 H 0.32468 0.3621 0.32459 0.0
H861 H 0.36515 0.39226 0.30167 0.0
H862 H 0.35256 0.40329 0.27126 0.0
H863 H 0.37134 0.39347 0.25508 0.0
H864 H 0.32406 0.32419 0.16893 0.0
H865 H 0.31438 0.3489 0.13304 0.0
H866 H 0.32262 0.39065 0.22541 0.0
C867 C 0.35744 0.34507 0.29827 0.0
C868 C 0.36548 0.32953 0.29265 0.0
C869 C 0.35899 0.31596 0.26154 0.0
C870 C 0.34554 0.31854 0.23569 0.0
C871 C 0.33854 0.33461 0.24147 0.0
C872 C 0.3441 0.34752 0.27216 0.0
C873 C 0.33695 0.36559 0.27008 0.0
C874 C 0.31804 0.36062 0.29726 0.0
C875 C 0.35774 0.39008 0.27478 0.0
C876 C 0.32766 0.36168 0.23274 0.0
C877 C 0.32828 0.34342 0.21691 0.0
C878 C 0.32295 0.33815 0.18128 0.0
C879 C 0.3175 0.3523 0.16107 0.0
C880 C 0.31751 0.37153 0.17652 0.0
C881 C 0.32192 0.37574 0.21306 0.0
H882 H 0.60094 0.94095 0.23598 0.0
H883 H 0.63325 0.96892 0.13468 0.0
H884 H 0.65944 0.00623 0.16321 0.0
H885 H 0.59722 0.98645 0.2614 0.0
H886 H 0.60283 0.98568 0.30781 0.0
H887 H 0.59106 0.95969 0.28214 0.0
H888 H 0.62475 0.95374 0.3005 0.0
H889 H 0.63654 0.97965 0.3268 0.0
H890 H 0.65392 0.97662 0.2934 0.0
H891 H 0.67624 0.04213 0.1997 0.0
H892 H 0.68269 0.0733 0.24102 0.0
H893 H 0.63895 0.02219 0.31852 0.0
C894 C 0.6142 0.95459 0.22006 0.0
C895 C 0.61519 0.95196 0.18315 0.0
C896 C 0.63232 0.97047 0.16305 0.0
C897 C 0.6473 0.99173 0.17907 0.0
C898 C 0.64502 0.99415 0.21524 0.0
C899 C 0.62907 0.97595 0.2356 0.0
C900 C 0.62775 0.98378 0.27266 0.0
C901 C 0.60327 0.9786 0.28147 0.0
C902 C 0.63626 0.97279 0.29995 0.0
C903 C 0.64434 0.00946 0.26934 0.0
C904 C 0.65456 0.01504 0.23632 0.0
C905 C 0.66876 0.03792 0.2259 0.0
C906 C 0.67225 0.05552 0.24952 0.0
C907 C 0.66141 0.05017 0.28307 0.0
C908 C 0.64777 0.02682 0.29331 0.0
H909 H 0.34163 0.96046 0.66686 0.0
H910 H 0.30307 0.90761 0.74539 0.0
H911 H 0.30985 0.93782 0.78885 0.0
H912 H 0.38472 -0.00327 0.72113 0.0
H913 H 0.38889 0.0234 0.70276 0.0
H914 H 0.37709 -0.00208 0.67582 0.0
H915 H 0.34141 0.00169 0.66249 0.0
H916 H 0.35321 0.02738 0.6893 0.0
H917 H 0.32489 0.00349 0.69855 0.0
H918 H 0.32637 0.97328 0.82624 0.0
H919 H 0.3508 0.01124 0.85427 0.0
H920 H 0.37833 0.04123 0.7515 0.0
C921 C 0.33393 0.95521 0.69282 0.0
C922 C 0.3217 0.93167 0.70267 0.0
C923 C 0.31237 0.92553 0.73717 0.0
C924 C 0.31608 0.94258 0.76203 0.0
C925 C 0.32897 0.96569 0.75189 0.0
C926 C 0.33753 0.97203 0.71795 0.0
C927 C 0.35298 -0.00204 0.71485 0.0
C928 C 0.37735 0.00436 0.70296 0.0
C929 C 0.34249 0.00823 0.68981 0.0
C930 C 0.35273 0.00511 0.75274 0.0
C931 C 0.33845 0.98629 0.77356 0.0
C932 C 0.33718 0.98823 0.81008 0.0
C933 C 0.35117 0.00984 0.82579 0.0
C934 C 0.36629 0.02921 0.80502 0.0
C935 C 0.36657 0.02685 0.76795 0.0
H936 H 0.00595 0.3573 0.64271 0.0
H937 H 0.05967 0.36153 0.71061 0.0
H938 H 0.03057 0.33663 0.75448 0.0
H939 H 0.97703 0.36603 0.7052 0.0
H940 H 0.94834 0.34677 0.68942 0.0
H941 H 0.97197 0.35856 0.65899 0.0
H942 H 0.96127 0.31732 0.63928 0.0
H943 H 0.93738 0.30531 0.66968 0.0
H944 H 0.95855 0.29645 0.67188 0.0
H945 H -0.00226 0.31962 0.79599 0.0
H946 H 0.96432 0.31283 0.83184 0.0
H947 H 0.93137 0.31961 0.73789 0.0
C948 C 0.01144 0.35205 0.66607 0.0
C949 C 0.035 0.36112 0.67315 0.0
C950 C 0.04167 0.35462 0.70457 0.0
C951 C 0.02523 0.34036 0.72956 0.0
C952 C 0.00216 0.33265 0.7227 0.0
C953 C -0.00479 0.33808 0.6915 0.0
C954 C 0.97005 0.33104 0.69303 0.0
C955 C 0.96668 0.35184 0.6863 0.0
C956 C 0.95598 0.31135 0.66692 0.0
C957 C 0.96445 0.32261 0.73089 0.0
C958 C 0.98297 0.32293 0.74718 0.0
C959 C 0.98293 0.3187 0.7833 0.0
C960 C 0.96388 0.31494 0.80351 0.0
C961 C 0.94521 0.31557 0.78759 0.0
C962 C 0.94517 0.31852 0.75062 0.0
H963 H 0.64147 0.618 0.8262 0.0
H964 H 0.67808 0.59866 0.75234 0.0
H965 H 0.67465 0.62295 0.70645 0.0
H966 H 0.60064 0.61186 0.77019 0.0
H967 H 0.59765 0.63569 0.78543 0.0
H968 H 0.60823 0.6222 0.81493 0.0
H969 H 0.64499 0.66164 0.82621 0.0
H970 H 0.63439 0.67537 0.79685 0.0
H971 H 0.66224 0.67852 0.7893 0.0
H972 H 0.66079 0.6427 0.66593 0.0
H973 H 0.63716 0.65545 0.63416 0.0
H974 H 0.6088 0.66137 0.73395 0.0
C975 C 0.64963 0.61967 0.80083 0.0
C976 C 0.66023 0.60663 0.79292 0.0
C977 C 0.67005 0.60866 0.75906 0.0
C978 C 0.66826 0.6225 0.73287 0.0
C979 C 0.65672 0.63431 0.741 0.0
C980 C 0.64776 0.63321 0.77433 0.0
C981 C 0.63323 0.64461 0.77493 0.0
C982 C 0.60849 0.62756 0.78706 0.0
C983 C 0.64439 0.66633 0.7982 0.0
C984 C 0.63414 0.65088 0.73628 0.0
C985 C 0.64832 0.64544 0.71732 0.0
C986 C 0.65007 0.64753 0.68062 0.0
C987 C 0.63651 0.65473 0.66276 0.0
C988 C 0.62118 0.65947 0.68159 0.0
C989 C 0.62061 0.65821 0.71888 0.0
H990 H 0.17953 0.05369 0.95126 0.0
H991 H 0.24145 0.06036 -0.00219 0.0
H992 H 0.25275 0.09981 0.01771 0.0
H993 H 0.20501 0.11274 0.92039 0.0
H994 H 0.17974 0.11448 0.93015 0.0
H995 H 0.17701 0.08712 0.91882 0.0
H996 H 0.15482 0.06945 0.97719 0.0
H997 H 0.15752 0.09675 0.98874 0.0
H998 H 0.16771 0.08295 0.01868 0.0
H999 H 0.25628 0.13802 0.03479 0.0
H1000 H 0.2523 0.17217 0.04612 0.0
H1001 H 0.18839 0.1403 0.98724 0.0
C1002 C 0.19554 0.06343 0.96548 0.0
C1003 C 0.20959 0.05388 0.973 0.0
C1004 C 0.23042 0.0673 0.99166 0.0
C1005 C 0.23697 0.08972 0.0031 0.0
C1006 C 0.22259 0.0985 -0.00454 0.0
C1007 C 0.20238 0.08579 0.9769 0.0
C1008 C 0.18979 0.099 0.97241 0.0
C1009 C 0.18778 0.10361 0.93311 0.0
C1010 C 0.16606 0.08628 0.99033 0.0
C1011 C 0.20594 0.12107 0.99169 0.0
C1012 C 0.22477 0.12048 0.00482 0.0
C1013 C 0.24169 0.13871 0.02442 0.0
C1014 C 0.23926 0.15801 0.03077 0.0
C1015 C 0.22009 0.15893 0.01746 0.0
C1016 C 0.20333 0.14021 -0.00245 0.0
H1017 H 0.90532 0.16197 -0.0022 0.0
H1018 H 0.92528 0.13347 0.91093 0.0
H1019 H 0.88628 0.09987 0.90881 0.0
H1020 H 0.87161 0.10897 0.04183 0.0
H1021 H 0.8496 0.11482 0.05654 0.0
H1022 H 0.87832 0.13832 0.04886 0.0
H1023 H 0.86262 0.15686 0.00525 0.0
H1024 H 0.83381 0.13336 0.0128 0.0
H1025 H 0.84515 0.1402 0.96847 0.0
H1026 H 0.84716 0.06822 0.91844 0.0
H1027 H 0.80927 0.03886 0.94084 0.0
H1028 H 0.81315 0.08629 0.02231 0.0
C1029 C 0.90126 0.14883 0.97798 0.0
C1030 C 0.91829 0.15032 0.95448 0.0
C1031 C 0.91254 0.13261 0.92931 0.0
C1032 C 0.89038 0.11352 0.9277 0.0
C1033 C 0.87409 0.11228 0.95151 0.0
C1034 C 0.87911 0.12932 0.97628 0.0
C1035 C 0.85869 0.12249 0.00057 0.0
C1036 C 0.86494 0.12106 0.03923 0.0
C1037 C 0.84953 0.13923 -0.00348 0.0
C1038 C 0.84177 0.09877 0.98601 0.0
C1039 C 0.85104 0.09349 0.95741 0.0
C1040 C 0.83953 0.0722 0.94054 0.0
C1041 C 0.81806 0.05562 0.95354 0.0
C1042 C 0.80827 0.06034 0.98318 0.0
C1043 C 0.8201 0.08237 -0.00075 0.0
H1044 H 0.81008 0.75802 0.98361 0.0
H1045 H 0.84433 0.81549 0.91036 0.0
H1046 H 0.87927 0.81271 0.91355 0.0
H1047 H 0.85809 0.77504 0.03912 0.0
H1048 H 0.85262 0.74629 0.04815 0.0
H1049 H 0.82916 0.75085 0.03757 0.0
H1050 H 0.81721 0.72155 0.98614 0.0
H1051 H 0.84064 0.71686 -0.00337 0.0
H1052 H 0.83797 0.72561 0.95265 0.0
H1053 H 0.91099 0.80607 0.92704 0.0
H1054 H 0.93883 0.79633 0.95132 0.0
H1055 H 0.88542 0.74328 0.01712 0.0
C1056 C 0.82483 0.7697 0.9678 0.0
C1057 C 0.82448 0.78694 0.94663 0.0
C1058 C 0.84423 0.80222 0.92683 0.0
C1059 C 0.86414 0.8007 0.92831 0.0
C1060 C 0.86412 0.78386 0.9498 0.0
C1061 C 0.84509 0.7686 0.96927 0.0
C1062 C 0.85046 0.75325 -0.00789 0.0
C1063 C 0.8474 0.75657 0.03157 0.0
C1064 C 0.83569 0.7278 0.98122 0.0
C1065 C 0.87557 0.76265 0.98285 0.0
C1066 C 0.88288 0.78013 0.95808 0.0
C1067 C 0.90547 0.79229 0.94622 0.0
C1068 C 0.92118 0.78665 0.96031 0.0
C1069 C 0.91431 0.76904 0.9861 0.0
C1070 C 0.8911 0.75666 -0.00282 0.0
H1071 H 0.15123 0.24625 0.46754 0.0
H1072 H 0.15401 0.20223 0.54937 0.0
H1073 H 0.11748 0.196 0.57389 0.0
H1074 H 0.12382 0.27182 0.52287 0.0
H1075 H 0.10623 0.2717 0.48692 0.0
H1076 H 0.13404 0.27507 0.47798 0.0
H1077 H 0.11525 0.24006 0.43554 0.0
H1078 H 0.08742 0.23649 0.44448 0.0
H1079 H 0.09235 0.21274 0.45155 0.0
H1080 H 0.07931 0.1908 0.58558 0.0
H1081 H 0.04142 0.18781 0.58536 0.0
H1082 H 0.06249 0.23568 0.49709 0.0
C1083 C 0.14437 0.23573 0.49114 0.0
C1084 C 0.15548 0.22474 0.50666 0.0
C1085 C 0.14581 0.2108 0.53707 0.0
C1086 C 0.1251 0.20722 0.55125 0.0
C1087 C 0.11429 0.21779 0.53488 0.0
C1088 C 0.12358 0.23191 0.50567 0.0
C1089 C 0.10751 0.23984 0.4919 0.0
C1090 C 0.11856 0.26618 0.49512 0.0
C1091 C 0.10021 0.2318 0.4536 0.0
C1092 C 0.08751 0.22741 0.51735 0.0
C1093 C 0.09197 0.21494 0.54201 0.0
C1094 C 0.07571 0.20075 0.5668 0.0
C1095 C 0.05419 0.19907 0.56631 0.0
C1096 C 0.04908 0.21158 0.54131 0.0
C1097 C 0.0661 0.22623 0.51684 0.0
H1098 H 0.79135 0.86378 0.51238 0.0
H1099 H 0.72512 0.80677 0.48014 0.0
H1100 H 0.7127 0.83461 0.46389 0.0
H1101 H 0.77041 0.89738 0.55192 0.0
H1102 H 0.79429 0.9246 0.53768 0.0
H1103 H 0.7982 0.90026 0.5449 0.0
H1104 H 0.81367 0.90409 0.481 0.0
H1105 H 0.80993 0.92854 0.47363 0.0
H1106 H 0.79656 0.90404 0.44437 0.0
H1107 H 0.70746 0.86921 0.45255 0.0
H1108 H 0.70988 0.90718 0.44715 0.0
H1109 H 0.77939 0.94071 0.48823 0.0
C1110 C 0.77428 0.85703 0.50159 0.0
C1111 C 0.75924 0.83303 0.49742 0.0
C1112 C 0.73698 0.82507 0.48348 0.0
C1113 C 0.72978 0.84076 0.4742 0.0
C1114 C 0.74502 0.8643 0.47909 0.0
C1115 C 0.76682 0.87235 0.49242 0.0
C1116 C 0.77979 0.89835 0.49611 0.0
C1117 C 0.78603 0.90556 0.53496 0.0
C1118 C 0.80125 0.9094 0.47235 0.0
C1119 C 0.76186 0.90377 0.48297 0.0
C1120 C 0.74194 0.88397 0.47309 0.0
C1121 C 0.723 0.8848 0.46017 0.0
C1122 C 0.72453 0.90644 0.45723 0.0
C1123 C 0.7448 0.92689 0.46733 0.0
C1124 C 0.76363 0.9254 0.48039 0.0
H1125 H 0.04913 0.84782 0.49695 0.0
H1126 H 0.07861 0.80965 0.44955 0.0
H1127 H 0.11751 0.84344 0.45734 0.0
H1128 H 0.08791 0.90226 0.45739 0.0
H1129 H 0.08915 0.91881 0.49571 0.0
H1130 H 0.0638 0.89138 0.48725 0.0
H1131 H 0.067 0.87702 0.54948 0.0
H1132 H 0.09237 0.90442 0.55814 0.0
H1133 H 0.09331 0.87811 0.56217 0.0
H1134 H 0.15343 0.88192 0.47017 0.0
H1135 H 0.183 0.92189 0.48596 0.0
H1136 H 0.12942 0.93441 0.52396 0.0
C1137 C 0.06376 0.84651 0.48835 0.0
C1138 C 0.06083 0.82608 0.47271 0.0
C1139 C 0.08044 0.82514 0.46161 0.0
C1140 C 0.10261 0.84423 0.46596 0.0
C1141 C 0.10488 0.86415 0.48137 0.0
C1142 C 0.08595 0.86539 0.49233 0.0
C1143 C 0.09294 0.88889 0.5075 0.0
C1144 C 0.08285 0.90105 0.48565 0.0
C1145 C 0.08599 0.88698 0.54665 0.0
C1146 C 0.11874 0.90071 0.5033 0.0
C1147 C 0.12537 0.88619 0.48833 0.0
C1148 C 0.14842 0.89344 0.48192 0.0
C1149 C 0.1651 0.91616 0.49099 0.0
C1150 C 0.1586 0.93135 0.50614 0.0
C1151 C 0.13506 0.92334 0.51235 0.0
H1152 H 0.77295 0.92889 0.04054 0.0
H1153 H 0.70991 0.92122 -0.00302 0.0
H1154 H 0.69663 0.88019 0.98367 0.0
H1155 H 0.78132 0.89644 0.97722 0.0
H1156 H 0.79264 0.8839 0.00752 0.0
H1157 H 0.79582 0.91165 0.01691 0.0
H1158 H 0.77586 0.89656 0.07761 0.0
H1159 H 0.77267 0.86872 0.06844 0.0
H1160 H 0.74784 0.87097 0.07945 0.0
H1161 H 0.69215 0.84086 0.97028 0.0
H1162 H 0.69678 0.80712 0.95836 0.0
H1163 H 0.76279 0.84147 0.01136 0.0
C1164 C 0.75618 0.91859 0.02865 0.0
C1165 C 0.74247 0.9283 0.01979 0.0
C1166 C 0.72068 0.91413 0.00415 0.0
C1167 C 0.713 0.89082 -0.00348 0.0
C1168 C 0.72723 0.88196 0.00504 0.0
C1169 C 0.74829 0.89545 0.02101 0.0
C1170 C 0.76104 0.88244 0.02574 0.0
C1171 C 0.78405 0.89432 0.00564 0.0
C1172 C 0.76455 0.8795 0.06515 0.0
C1173 C 0.74415 0.85964 0.00907 0.0
C1174 C 0.72464 0.85954 -0.00245 0.0
C1175 C 0.70723 0.84068 0.97961 0.0
C1176 C 0.71002 0.82161 0.97293 0.0
C1177 C 0.73012 0.82165 0.98402 0.0
C1178 C 0.74714 0.84081 0.0028 0.0
H1179 H 0.13555 0.93363 0.00297 0.0
H1180 H 0.16615 0.89719 0.9533 0.0
H1181 H 0.13049 0.85999 0.96451 0.0
H1182 H 0.10435 0.89125 0.07139 0.0
H1183 H 0.08006 0.89557 0.06927 0.0
H1184 H 0.10836 0.91896 0.05862 0.0
H1185 H 0.09372 0.92356 -0.00253 0.0
H1186 H 0.06541 0.90021 0.00794 0.0
H1187 H 0.07974 0.89896 0.96847 0.0
H1188 H 0.09029 0.82673 0.9794 0.0
H1189 H 0.04955 0.80086 -0.00398 0.0
H1190 H 0.0465 0.85998 0.03588 0.0
C1191 C 0.13487 0.91784 -0.00537 0.0
C1192 C 0.15362 0.91829 0.97727 0.0
C1193 C 0.15197 0.89723 0.96669 0.0
C1194 C 0.13181 0.87603 0.97299 0.0
C1195 C 0.11355 0.87624 0.99001 0.0
C1196 C 0.11499 0.89665 0.00073 0.0
C1197 C 0.09288 0.89243 0.01757 0.0
C1198 C 0.09665 0.9 0.05652 0.0
C1199 C 0.08232 0.9045 -0.0034 0.0
C1200 C 0.0786 0.86649 0.01427 0.0
C1201 C 0.09074 0.85734 -0.00149 0.0
C1202 C 0.08068 0.83371 -0.00804 0.0
C1203 C 0.05754 0.81915 0.0015 0.0
C1204 C 0.04478 0.82834 0.01728 0.0
C1205 C 0.05569 0.8523 0.02396 0.0
H1206 H 0.10803 0.18222 0.01771 0.0
H1207 H 0.16714 0.2504 0.00019 0.0
H1208 H 0.1411 0.26573 0.98903 0.0
H1209 H 0.07122 0.18531 0.95165 0.0
H1210 H 0.04575 0.16979 0.97839 0.0
H1211 H 0.06917 0.16436 0.98356 0.0
H1212 H 0.07098 0.17356 0.05044 0.0
H1213 H 0.04768 0.17918 0.04544 0.0
H1214 H 0.07452 0.20091 0.06421 0.0
H1215 H 0.10799 0.2734 0.98008 0.0
H1216 H 0.07099 0.27265 0.97443 0.0
H1217 H 0.03446 0.19958 6e-05 0.0
C1218 C 0.11559 0.20034 0.01119 0.0
C1219 C 0.13965 0.21508 0.00963 0.0
C1220 C 0.14875 0.23876 0.00144 0.0
C1221 C 0.1341 0.24762 -0.00492 0.0
C1222 C 0.11044 0.2326 -0.00276 0.0
C1223 C 0.10131 0.20947 0.00512 0.0
C1224 C 0.07538 0.19696 0.00674 0.0
C1225 C 0.06476 0.17799 0.97839 0.0
C1226 C 0.06664 0.18708 0.04392 0.0
C1227 C 0.07127 0.21665 -0.00147 0.0
C1228 C 0.09164 0.23707 -0.00704 0.0
C1229 C 0.09196 0.25749 0.98447 0.0
C1230 C 0.07089 0.25692 0.98136 0.0
C1231 C 0.04988 0.2361 0.98696 0.0
C1232 C 0.05022 0.21582 -0.00413 0.0
H1233 H 0.92414 0.80257 0.46293 0.0
H1234 H 0.9178 0.73909 0.50396 0.0
H1235 H 0.87759 0.72573 0.52113 0.0
H1236 H 0.89007 0.80962 0.52944 0.0
H1237 H 0.87732 0.82048 0.49873 0.0
H1238 H 0.90562 0.82504 0.49041 0.0
H1239 H 0.89232 0.80565 0.42902 0.0
H1240 H 0.86397 0.80099 0.43719 0.0
H1241 H 0.86773 0.77695 0.42612 0.0
H1242 H 0.83782 0.71951 0.53402 0.0
H1243 H 0.80189 0.72075 0.54045 0.0
H1244 H 0.83462 0.78794 0.48952 0.0
C1245 C 0.91439 0.78589 0.47569 0.0
C1246 C 0.92419 0.77192 0.48222 0.0
C1247 C 0.91069 0.75012 0.4987 0.0
C1248 C 0.88784 0.74239 0.50857 0.0
C1249 C 0.87872 0.7566 0.50161 0.0
C1250 C 0.89159 0.77787 0.48546 0.0
C1251 C 0.87774 0.78972 0.48031 0.0
C1252 C 0.88832 0.81256 0.50096 0.0
C1253 C 0.87529 0.79354 0.44082 0.0
C1254 C 0.85504 0.77184 0.49615 0.0
C1255 C 0.8559 0.75288 0.50842 0.0
C1256 C 0.83696 0.73427 0.52443 0.0
C1257 C 0.81664 0.73512 0.52798 0.0
C1258 C 0.81543 0.75439 0.51541 0.0
C1259 C 0.83493 0.7729 0.49926 0.0
H1260 H 0.18693 0.12319 0.45619 0.0
H1261 H 0.25234 0.18317 0.48358 0.0
H1262 H 0.26842 0.15769 0.4949 0.0
H1263 H 0.18694 0.08587 0.52121 0.0
H1264 H 0.17389 0.06058 0.49351 0.0
H1265 H 0.16822 0.08371 0.48556 0.0
H1266 H 0.18219 0.08698 0.4208 0.0
H1267 H 0.18783 0.06377 0.42851 0.0
H1268 H 0.21035 0.09117 0.41217 0.0
H1269 H 0.27617 0.12481 0.50752 0.0
H1270 H 0.27534 0.08788 0.51775 0.0
H1271 H 0.205 0.0503 0.48026 0.0
C1272 C 0.20471 0.13107 0.46427 0.0
C1273 C 0.21837 0.15519 0.4691 0.0
C1274 C 0.24158 0.16474 0.4796 0.0
C1275 C 0.25083 0.1504 0.48613 0.0
C1276 C 0.23672 0.12663 0.48162 0.0
C1277 C 0.21422 0.11711 0.47058 0.0
C1278 C 0.20237 0.09109 0.46843 0.0
C1279 C 0.18164 0.07965 0.49369 0.0
C1280 C 0.19527 0.08277 0.4302 0.0
C1281 C 0.22156 0.08731 0.48065 0.0
C1282 C 0.24128 0.10796 0.48812 0.0
C1283 C 0.26089 0.10858 0.50136 0.0
C1284 C 0.26025 0.08754 0.50716 0.0
C1285 C 0.24016 0.06625 0.49962 0.0
C1286 C 0.22071 0.06628 0.48593 0.0
H1287 H 0.93255 0.15119 0.48355 0.0
H1288 H 0.89988 0.18796 0.52487 0.0
H1289 H 0.86176 0.15298 0.51657 0.0
H1290 H 0.88976 0.11812 0.4172 0.0
H1291 H 0.89215 0.09279 0.4238 0.0
H1292 H 0.91655 0.12102 0.43175 0.0
H1293 H 0.91979 0.10861 0.49543 0.0
H1294 H 0.89533 0.0804 0.48776 0.0
H1295 H 0.89527 0.09746 0.52452 0.0
H1296 H 0.82713 0.11313 0.50524 0.0
H1297 H 0.79918 0.07241 0.49078 0.0
H1298 H 0.85528 0.06244 0.45762 0.0
C1299 C 0.91739 0.15201 0.49057 0.0
C1300 C 0.91918 0.17231 0.50481 0.0
C1301 C 0.89891 0.17259 0.51384 0.0
C1302 C 0.8772 0.15281 0.50926 0.0
C1303 C 0.8761 0.13295 0.49559 0.0
C1304 C 0.89569 0.13249 0.48627 0.0
C1305 C 0.89002 0.10896 0.47284 0.0
C1306 C 0.89756 0.11031 0.4341 0.0
C1307 C 0.90073 0.09823 0.49656 0.0
C1308 C 0.86415 0.09615 0.47621 0.0
C1309 C 0.85637 0.11022 0.48931 0.0
C1310 C 0.83305 0.102 0.49487 0.0
C1311 C 0.81731 0.07883 0.48664 0.0
C1312 C 0.82498 0.06416 0.47307 0.0
C1313 C 0.84876 0.0731 0.46795 0.0
H1314 H 0.87312 0.48438 0.31424 0.0
H1315 H 0.9397 0.5205 0.36545 0.0
H1316 H 0.94491 0.48705 0.3546 0.0
H1317 H 0.85639 0.42871 0.34896 0.0
H1318 H 0.84188 0.41356 0.30926 0.0
H1319 H 0.84394 0.44072 0.31978 0.0
H1320 H 0.86295 0.45716 0.25894 0.0
H1321 H 0.86094 0.43002 0.24822 0.0
H1322 H 0.88836 0.45635 0.24651 0.0
H1323 H 0.9424 0.44905 0.3389 0.0
H1324 H 0.93198 0.4095 0.32076 0.0
H1325 H 0.86687 0.39856 0.28074 0.0
C1326 C 0.88888 0.48535 0.32297 0.0
C1327 C 0.90604 0.50507 0.34061 0.0
C1328 C 0.92633 0.50556 0.35186 0.0
C1329 C 0.92946 0.48666 0.34577 0.0
C1330 C 0.91213 0.46741 0.32846 0.0
C1331 C 0.89223 0.46664 0.31727 0.0
C1332 C 0.87595 0.44372 0.30015 0.0
C1333 C 0.8532 0.43093 0.32078 0.0
C1334 C 0.87182 0.44702 0.26114 0.0
C1335 C 0.88971 0.43165 0.30362 0.0
C1336 C 0.91059 0.4456 0.31983 0.0
C1337 C 0.9261 0.438 0.32611 0.0
C1338 C 0.92004 0.41551 0.3157 0.0
C1339 C 0.8986 0.40087 0.29935 0.0
C1340 C 0.88339 0.40924 0.29319 0.0
H1341 H 0.58005 0.492 0.32831 0.0
H1342 H 0.60152 0.45953 0.2496 0.0
H1343 H 0.56291 0.4254 0.24961 0.0
H1344 H 0.54606 0.44111 0.37832 0.0
H1345 H 0.52366 0.44734 0.38891 0.0
H1346 H 0.55241 0.47062 0.38058 0.0
H1347 H 0.53713 0.48643 0.33167 0.0
H1348 H 0.5083 0.46315 0.33984 0.0
H1349 H 0.52032 0.46776 0.29598 0.0
H1350 H 0.52385 0.394 0.26017 0.0
H1351 H 0.48557 0.36566 0.28246 0.0
H1352 H 0.4876 0.41677 0.35512 0.0
C1353 C 0.57643 0.47782 0.31076 0.0
C1354 C 0.59383 0.47845 0.28896 0.0
C1355 C 0.58857 0.45942 0.26672 0.0
C1356 C 0.56661 0.43997 0.26632 0.0
C1357 C 0.54997 0.43966 0.28836 0.0
C1358 C 0.55446 0.45795 0.31029 0.0
C1359 C 0.5336 0.45213 0.33303 0.0
C1360 C 0.53928 0.45284 0.37255 0.0
C1361 C 0.52429 0.46834 0.32462 0.0
C1362 C 0.51703 0.42762 0.32087 0.0
C1363 C 0.52691 0.42103 0.29478 0.0
C1364 C 0.51578 0.39897 0.28034 0.0
C1365 C 0.49407 0.38297 0.29326 0.0
C1366 C 0.48361 0.38903 0.3204 0.0
C1367 C 0.49508 0.41179 0.33398 0.0
H1368 H 0.497 0.09568 0.31766 0.0
H1369 H 0.5269 0.15295 0.24332 0.0
H1370 H 0.56291 0.15226 0.24355 0.0
H1371 H 0.54755 0.11503 0.36939 0.0
H1372 H 0.54358 0.08674 0.37749 0.0
H1373 H 0.51905 0.09008 0.36975 0.0
H1374 H 0.50633 0.06076 0.31826 0.0
H1375 H 0.53084 0.05732 0.32586 0.0
H1376 H 0.52611 0.0656 0.28273 0.0
H1377 H 0.59608 0.1475 0.25335 0.0
H1378 H 0.62578 0.13916 0.27352 0.0
H1379 H 0.57609 0.08506 0.3423 0.0
C1380 C 0.51106 0.10783 0.30114 0.0
C1381 C 0.50908 0.12438 0.28051 0.0
C1382 C 0.52797 0.14021 0.25956 0.0
C1383 C 0.54852 0.1399 0.25931 0.0
C1384 C 0.55008 0.1237 0.28019 0.0
C1385 C 0.53199 0.10793 0.30081 0.0
C1386 C 0.53904 0.09327 0.32218 0.0
C1387 C 0.5372 0.09648 0.36207 0.0
C1388 C 0.52472 0.06772 0.31162 0.0
C1389 C 0.56394 0.1036 0.31065 0.0
C1390 C 0.56973 0.12099 0.28616 0.0
C1391 C 0.59178 0.13382 0.27232 0.0
C1392 C 0.60855 0.12897 0.28404 0.0
C1393 C 0.60328 0.11146 0.30944 0.0
C1394 C 0.58056 0.0984 0.32261 0.0
H1395 H 0.80948 0.56733 0.80292 0.0
H1396 H 0.80399 0.50833 0.85956 0.0
H1397 H 0.76569 0.49853 0.88096 0.0
H1398 H 0.77913 0.58244 0.86873 0.0
H1399 H 0.76471 0.59014 0.83601 0.0
H1400 H 0.79248 0.59362 0.8264 0.0
H1401 H 0.77586 0.56826 0.77052 0.0
H1402 H 0.74805 0.56467 0.77998 0.0
H1403 H 0.75119 0.53967 0.77465 0.0
H1404 H 0.72792 0.49369 0.89401 0.0
H1405 H 0.69171 0.49381 0.89854 0.0
H1406 H 0.72027 0.55587 0.83389 0.0
C1407 C 0.80028 0.55251 0.82012 0.0
C1408 C 0.80974 0.53859 0.8296 0.0
C1409 C 0.7971 0.51922 0.85189 0.0
C1410 C 0.77534 0.51353 0.86429 0.0
C1411 C 0.7664 0.52738 0.85422 0.0
C1412 C 0.77836 0.54648 0.83273 0.0
C1413 C 0.76415 0.55781 0.82503 0.0
C1414 C 0.77581 0.58247 0.83994 0.0
C1415 C 0.75954 0.55758 0.78518 0.0
C1416 C 0.74228 0.54184 0.84519 0.0
C1417 C 0.74416 0.52452 0.86189 0.0
C1418 C 0.72622 0.50721 0.88125 0.0
C1419 C 0.70566 0.50742 0.88351 0.0
C1420 C 0.70306 0.52484 0.86652 0.0
C1421 C 0.72177 0.54243 0.84736 0.0
H1422 H 0.44556 0.19214 0.86307 0.0
H1423 H 0.38272 0.13396 0.82287 0.0
H1424 H 0.36797 0.16032 0.80907 0.0
H1425 H 0.41965 0.22267 0.90288 0.0
H1426 H 0.44342 0.25059 0.891 0.0
H1427 H 0.44815 0.22682 0.89911 0.0
H1428 H 0.46684 0.23271 0.83718 0.0
H1429 H 0.46212 0.25642 0.82882 0.0
H1430 H 0.45102 0.23242 0.79858 0.0
H1431 H 0.36128 0.19414 0.79704 0.0
H1432 H 0.36306 0.23167 0.78868 0.0
H1433 H 0.43048 0.26666 0.83736 0.0
C1434 C 0.4286 0.18477 0.85159 0.0
C1435 C 0.41531 0.16093 0.84401 0.0
C1436 C 0.3932 0.15215 0.829 0.0
C1437 C 0.3847 0.167 0.82107 0.0
C1438 C 0.39848 0.19049 0.82853 0.0
C1439 C 0.41992 0.19923 0.84364 0.0
C1440 C 0.43176 0.22511 0.84832 0.0
C1441 C 0.43598 0.23167 0.88767 0.0
C1442 C 0.45426 0.23738 0.82694 0.0
C1443 C 0.4138 0.22976 0.83304 0.0
C1444 C 0.39466 0.20965 0.82185 0.0
C1445 C 0.37614 0.20993 0.80595 0.0
C1446 C 0.37732 0.23132 0.80129 0.0
C1447 C 0.39691 0.25208 0.81244 0.0
C1448 C 0.41523 0.25113 0.82871 0.0
H1449 H 0.74489 0.16749 0.78474 0.0
H1450 H 0.69998 0.16762 0.86689 0.0
H1451 H 0.73264 0.20177 0.89387 0.0
H1452 H 0.79779 0.1895 0.84031 0.0
H1453 H 0.81633 0.20733 0.80515 0.0
H1454 H 0.79033 0.18076 0.79493 0.0
H1455 H 0.77715 0.20317 0.75466 0.0
H1456 H 0.80303 0.22975 0.76478 0.0
H1457 H 0.77545 0.22717 0.77261 0.0
H1458 H 0.76798 0.23754 0.90831 0.0
H1459 H 0.80455 0.27434 0.90898 0.0
H1460 H 0.82787 0.25271 0.81752 0.0
C1461 C 0.74216 0.17442 0.80891 0.0
C1462 C 0.71999 0.16486 0.82399 0.0
C1463 C 0.71685 0.17469 0.85503 0.0
C1464 C 0.7353 0.19399 0.87065 0.0
C1465 C 0.75683 0.20335 0.85485 0.0
C1466 C 0.76046 0.194 0.82468 0.0
C1467 C 0.7849 0.20897 0.81128 0.0
C1468 C 0.79812 0.19585 0.81303 0.0
C1469 C 0.78513 0.21779 0.77361 0.0
C1470 C 0.79412 0.22851 0.83801 0.0
C1471 C 0.77762 0.22459 0.86313 0.0
C1472 C 0.78118 0.24069 0.88914 0.0
C1473 C 0.80197 0.26158 0.88918 0.0
C1474 C 0.81904 0.2663 0.8634 0.0
C1475 C 0.81527 0.24933 0.83791 0.0
H1476 H 0.44397 0.17586 0.34523 0.0
H1477 H 0.37888 0.14037 0.28979 0.0
H1478 H 0.37249 0.17293 0.30268 0.0
H1479 H 0.42597 0.20177 0.41422 0.0
H1480 H 0.45344 0.22808 0.41454 0.0
H1481 H 0.45169 0.20112 0.40337 0.0
H1482 H 0.47252 0.21869 0.344 0.0
H1483 H 0.47431 0.24565 0.35496 0.0
H1484 H 0.46094 0.23126 0.31421 0.0
H1485 H 0.37499 0.21128 0.3181 0.0
H1486 H 0.3862 0.2514 0.33443 0.0
H1487 H 0.44936 0.26054 0.37995 0.0
C1488 C 0.42821 0.17475 0.33616 0.0
C1489 C 0.41193 0.15559 0.3165 0.0
C1490 C 0.39158 0.15488 0.30498 0.0
C1491 C 0.38779 0.17327 0.31222 0.0
C1492 C 0.40442 0.19211 0.33125 0.0
C1493 C 0.42416 0.19283 0.34321 0.0
C1494 C 0.43995 0.21537 0.36157 0.0
C1495 C 0.44293 0.21134 0.40075 0.0
C1496 C 0.4633 0.22851 0.34253 0.0
C1497 C 0.42632 0.2275 0.35741 0.0
C1498 C 0.40578 0.21384 0.34014 0.0
C1499 C 0.39093 0.22201 0.33199 0.0
C1500 C 0.39742 0.24481 0.34138 0.0
C1501 C 0.41864 0.25916 0.35854 0.0
C1502 C 0.43296 0.25009 0.36702 0.0
H1503 H 0.82625 0.28129 0.32755 0.0
H1504 H 0.85896 0.24507 0.28429 0.0
H1505 H 0.82301 0.2078 0.29341 0.0
H1506 H 0.7923 0.2389 0.39453 0.0
H1507 H 0.76806 0.24303 0.38884 0.0
H1508 H 0.79669 0.26652 0.38035 0.0
H1509 H 0.78455 0.2709 0.31711 0.0
H1510 H 0.75591 0.24743 0.32538 0.0
H1511 H 0.77193 0.24627 0.28803 0.0
H1512 H 0.78251 0.17441 0.30564 0.0
H1513 H 0.74135 0.14824 0.31938 0.0
H1514 H 0.73608 0.20713 0.3541 0.0
C1515 C 0.82596 0.26553 0.32026 0.0
C1516 C 0.84542 0.26608 0.30528 0.0
C1517 C 0.84425 0.24505 0.29588 0.0
C1518 C 0.82392 0.22381 0.30099 0.0
C1519 C 0.80497 0.22392 0.31557 0.0
C1520 C 0.80589 0.24428 0.3251 0.0
C1521 C 0.78306 0.23992 0.33923 0.0
C1522 C 0.78516 0.24754 0.37804 0.0
C1523 C 0.77329 0.25183 0.31605 0.0
C1524 C 0.76903 0.21395 0.33586 0.0
C1525 C 0.78191 0.20493 0.32235 0.0
C1526 C 0.77231 0.1813 0.31638 0.0
C1527 C 0.74892 0.16656 0.32427 0.0
C1528 C 0.73543 0.17557 0.33782 0.0
C1529 C 0.74582 0.19959 0.34381 0.0
H1530 H 0.79152 0.52366 0.35551 0.0
H1531 H 0.84697 0.59169 0.32562 0.0
H1532 H 0.81858 0.60389 0.31332 0.0
H1533 H 0.75109 0.51936 0.29025 0.0
H1534 H 0.72673 0.50463 0.31941 0.0
H1535 H 0.7515 0.50147 0.32554 0.0
H1536 H 0.75486 0.51527 0.3904 0.0
H1537 H 0.73017 0.51858 0.38442 0.0
H1538 H 0.75691 0.54265 0.39943 0.0
H1539 H 0.78365 0.60834 0.30387 0.0
H1540 H 0.74534 0.60456 0.29773 0.0
H1541 H 0.71346 0.5338 0.3351 0.0
C1542 C 0.79779 0.54113 0.34625 0.0
C1543 C 0.82152 0.5567 0.34144 0.0
C1544 C 0.82889 0.57943 0.32946 0.0
C1545 C 0.81289 0.58652 0.32245 0.0
C1546 C 0.78963 0.57071 0.32769 0.0
C1547 C 0.78214 0.54849 0.33933 0.0
C1548 C 0.75628 0.53478 0.34301 0.0
C1549 C 0.74579 0.51383 0.31806 0.0
C1550 C 0.74914 0.52739 0.38161 0.0
C1551 C 0.7503 0.55272 0.33148 0.0
C1552 C 0.76972 0.57334 0.32273 0.0
C1553 C 0.76834 0.59229 0.31076 0.0
C1554 C 0.74653 0.58999 0.30738 0.0
C1555 C 0.72643 0.56892 0.31603 0.0
C1556 C 0.72848 0.55018 0.32849 0.0
H1557 H 0.58024 0.09318 0.8132 0.0
H1558 H 0.59678 0.14024 0.72469 0.0
H1559 H 0.55783 0.13466 0.72666 0.0
H1560 H 0.51837 0.05391 0.79032 0.0
H1561 H 0.50936 0.05033 0.83589 0.0
H1562 H 0.53749 0.05526 0.82473 0.0
H1563 H 0.55588 0.09048 0.8668 0.0
H1564 H 0.52787 0.08574 0.87795 0.0
H1565 H 0.54951 0.11337 0.86091 0.0
H1566 H 0.51958 0.12786 0.74139 0.0
H1567 H 0.48318 0.12006 0.76843 0.0
H1568 H 0.49003 0.07734 0.84827 0.0
C1569 C 0.57537 0.10178 0.79373 0.0
C1570 C 0.59143 0.11704 0.76864 0.0
C1571 C 0.58472 0.1285 0.74412 0.0
C1572 C 0.56261 0.12535 0.7449 0.0
C1573 C 0.54735 0.11071 0.77043 0.0
C1574 C 0.55328 0.09903 0.79441 0.0
C1575 C 0.53407 0.08598 0.82103 0.0
C1576 C 0.52424 0.05981 0.81778 0.0
C1577 C 0.54233 0.09441 0.85891 0.0
C1578 C 0.51682 0.09277 0.80877 0.0
C1579 C 0.52484 0.10682 0.77926 0.0
C1580 C 0.51291 0.11661 0.76418 0.0
C1581 C 0.4923 0.11216 0.77985 0.0
C1582 C 0.48375 0.09804 0.81032 0.0
C1583 C 0.496 0.08791 0.82465 0.0
H1584 H 0.85703 0.45239 0.77143 0.0
H1585 H 0.91777 0.51111 0.8156 0.0
H1586 H 0.93447 0.48613 0.8267 0.0
H1587 H 0.85302 0.41158 0.8327 0.0
H1588 H 0.84321 0.38838 0.80116 0.0
H1589 H 0.83731 0.41141 0.79404 0.0
H1590 H 0.85693 0.41949 0.73254 0.0
H1591 H 0.86291 0.39644 0.73948 0.0
H1592 H 0.88598 0.42509 0.72914 0.0
H1593 H 0.94305 0.45337 0.83661 0.0
H1594 H 0.94233 0.41633 0.84506 0.0
H1595 H 0.87573 0.38009 0.794 0.0
C1596 C 0.87398 0.46019 0.78307 0.0
C1597 C 0.88609 0.48376 0.79262 0.0
C1598 C 0.90819 0.49312 0.80794 0.0
C1599 C 0.91781 0.47906 0.8143 0.0
C1600 C 0.90518 0.45577 0.80494 0.0
C1601 C 0.88376 0.44651 0.78952 0.0
C1602 C 0.87301 0.42084 0.78347 0.0
C1603 C 0.85031 0.40726 0.80408 0.0
C1604 C 0.86951 0.41514 0.7438 0.0
C1605 C 0.89147 0.41689 0.79858 0.0
C1606 C 0.91003 0.43719 0.81058 0.0
C1607 C 0.92869 0.43743 0.82698 0.0
C1608 C 0.92814 0.41633 0.83164 0.0
C1609 C 0.90899 0.39533 0.82015 0.0
C1610 C 0.89068 0.39583 0.80293 0.0
H1611 H 0.58825 0.47207 0.81567 0.0
H1612 H 0.55811 0.51154 0.85561 0.0
H1613 H 0.51926 0.4776 0.84704 0.0
H1614 H 0.54514 0.43985 0.74911 0.0
H1615 H 0.54631 0.4139 0.75647 0.0
H1616 H 0.5714 0.4417 0.76409 0.0
H1617 H 0.57391 0.42942 0.82818 0.0
H1618 H 0.54878 0.40164 0.82085 0.0
H1619 H 0.54943 0.41938 0.85711 0.0
H1620 H 0.48359 0.43832 0.8359 0.0
H1621 H 0.45455 0.39769 0.82279 0.0
H1622 H 0.50901 0.38477 0.79113 0.0
C1623 C 0.57351 0.47372 0.82231 0.0
C1624 C 0.57619 0.49446 0.83625 0.0
C1625 C 0.55643 0.49581 0.8448 0.0
C1626 C 0.53432 0.47663 0.84004 0.0
C1627 C 0.53234 0.45631 0.82669 0.0
C1628 C 0.55145 0.45482 0.81785 0.0
C1629 C 0.54489 0.43094 0.805 0.0
C1630 C 0.55238 0.43165 0.76637 0.0
C1631 C 0.55484 0.41969 0.82924 0.0
C1632 C 0.51907 0.41907 0.80824 0.0
C1633 C 0.51206 0.43393 0.82063 0.0
C1634 C 0.48891 0.42658 0.82607 0.0
C1635 C 0.47254 0.40347 0.81859 0.0
C1636 C 0.47946 0.38799 0.80596 0.0
C1637 C 0.50307 0.39607 0.80077 0.0
H1638 H 0.53284 0.73195 0.6259 0.0
H1639 H 0.59158 0.73577 0.67948 0.0
H1640 H 0.60267 0.77492 0.70093 0.0
H1641 H 0.5612 0.79182 0.59817 0.0
H1642 H 0.5359 0.79408 0.60461 0.0
H1643 H 0.53309 0.76671 0.59305 0.0
H1644 H 0.50765 0.74798 0.64839 0.0
H1645 H 0.51042 0.77528 0.66017 0.0
H1646 H 0.51842 0.76023 0.69138 0.0
H1647 H 0.60592 0.81293 0.71905 0.0
H1648 H 0.60221 0.8473 0.72992 0.0
H1649 H 0.54202 0.81858 0.66252 0.0
C1650 C 0.5481 0.74099 0.64206 0.0
C1651 C 0.5613 0.73074 0.65115 0.0
C1652 C 0.58123 0.74329 0.67214 0.0
C1653 C 0.58763 0.7655 0.68448 0.0
C1654 C 0.57406 0.77498 0.67525 0.0
C1655 C 0.55483 0.76316 0.65424 0.0
C1656 C 0.54306 0.77703 0.64808 0.0
C1657 C 0.54334 0.78275 0.60864 0.0
C1658 C 0.51843 0.76437 0.6629 0.0
C1659 C 0.55848 0.79843 0.66932 0.0
C1660 C 0.57624 0.79694 0.68487 0.0
C1661 C 0.5922 0.81435 0.70674 0.0
C1662 C 0.58992 0.83377 0.71282 0.0
C1663 C 0.57191 0.83565 0.6969 0.0
C1664 C 0.5561 0.81775 0.67477 0.0
H1665 H 0.15503 0.73966 0.69661 0.0
H1666 H 0.14848 0.69509 0.60884 0.0
H1667 H 0.18556 0.72528 0.58513 0.0
H1668 H 0.18578 0.79561 0.64666 0.0
H1669 H 0.20426 0.81073 0.68344 0.0
H1670 H 0.17558 0.78705 0.69128 0.0
H1671 H 0.19207 0.7667 0.72942 0.0
H1672 H 0.22075 0.79021 0.7216 0.0
H1673 H 0.21341 0.76111 0.71072 0.0
H1674 H 0.22441 0.75714 0.57454 0.0
H1675 H 0.26387 0.79006 0.57692 0.0
H1676 H 0.24685 0.81555 0.67083 0.0
C1677 C 0.1612 0.7366 0.67193 0.0
C1678 C 0.14888 0.71512 0.65439 0.0
C1679 C 0.15767 0.71142 0.62265 0.0
C1680 C 0.17866 0.7285 0.60887 0.0
C1681 C 0.19071 0.74924 0.62713 0.0
C1682 C 0.18239 0.75351 0.65787 0.0
C1683 C 0.19996 0.7766 0.67368 0.0
C1684 C 0.19084 0.7935 0.67376 0.0
C1685 C 0.20696 0.77345 0.71106 0.0
C1686 C 0.21963 0.78415 0.64759 0.0
C1687 C 0.21366 0.76811 0.62081 0.0
C1688 C 0.22922 0.77004 0.59498 0.0
C1689 C 0.25161 0.78873 0.59669 0.0
C1690 C 0.25832 0.80534 0.62394 0.0
C1691 C 0.242 0.80328 0.64938 0.0
H1692 H 0.26981 0.45672 0.64743 0.0
H1693 H 0.2381 0.38507 0.6804 0.0
H1694 H 0.19976 0.38112 0.67487 0.0
H1695 H 0.23093 0.46938 0.69381 0.0
H1696 H 0.23076 0.48805 0.65964 0.0
H1697 H 0.25566 0.4851 0.66563 0.0
H1698 H 0.25346 0.47299 0.60005 0.0
H1699 H 0.22862 0.476 0.59382 0.0
H1700 H 0.22718 0.44908 0.58335 0.0
H1701 H 0.16476 0.38495 0.66503 0.0
H1702 H 0.13592 0.39643 0.65206 0.0
H1703 H 0.19083 0.4658 0.62715 0.0
C1704 C 0.2548 0.44017 0.65334 0.0
C1705 C 0.25692 0.42118 0.66425 0.0
C1706 C 0.23687 0.39986 0.672 0.0
C1707 C 0.21502 0.39744 0.66894 0.0
C1708 C 0.21354 0.41655 0.6583 0.0
C1709 C 0.23289 0.43751 0.65069 0.0
C1710 C 0.22663 0.45542 0.64013 0.0
C1711 C 0.23658 0.47568 0.66638 0.0
C1712 C 0.23443 0.46386 0.60208 0.0
C1713 C 0.20072 0.44124 0.64284 0.0
C1714 C 0.19347 0.41885 0.65329 0.0
C1715 C 0.17024 0.40247 0.65695 0.0
C1716 C 0.15399 0.40915 0.64954 0.0
C1717 C 0.16107 0.43203 0.63875 0.0
C1718 C 0.1848 0.44822 0.63563 0.0
H1719 H 0.39818 0.87535 0.22626 0.0
H1720 H 0.39648 0.92681 0.15879 0.0
H1721 H 0.43743 0.94203 0.14329 0.0
H1722 H 0.45782 0.91172 0.25757 0.0
H1723 H 0.46263 0.8876 0.25752 0.0
H1724 H 0.43431 0.88297 0.26609 0.0
H1725 H 0.41805 0.85323 0.21496 0.0
H1726 H 0.44624 0.85781 0.20617 0.0
H1727 H 0.43031 0.86178 0.17136 0.0
H1728 H 0.47746 0.94806 0.12984 0.0
H1729 H 0.51228 0.94492 0.12128 0.0
H1730 H 0.48673 0.89002 0.19934 0.0
C1731 C 0.40647 0.89007 0.20864 0.0
C1732 C 0.39418 0.89986 0.1936 0.0
C1733 C 0.40567 0.91914 0.17075 0.0
C1734 C 0.42889 0.92787 0.16181 0.0
C1735 C 0.44035 0.91735 0.1765 0.0
C1736 C 0.42949 0.89904 0.19982 0.0
C1737 C 0.44484 0.88971 0.21053 0.0
C1738 C 0.45022 0.89322 0.25029 0.0
C1739 C 0.43423 0.86413 0.20011 0.0
C1740 C 0.46584 0.90503 0.18865 0.0
C1741 C 0.46316 0.92104 0.16936 0.0
C1742 C 0.47985 0.93585 0.14531 0.0
C1743 C 0.49956 0.93395 0.14059 0.0
C1744 C 0.50223 0.91727 0.15971 0.0
C1745 C 0.48532 0.90308 0.18452 0.0
H1746 H 0.11405 0.60253 0.17778 0.0
H1747 H 0.04348 0.56831 0.14125 0.0
H1748 H 0.03978 0.53034 0.154 0.0
H1749 H 0.12834 0.56405 0.13955 0.0
H1750 H 0.14667 0.56533 0.17519 0.0
H1751 H 0.14281 0.58956 0.16665 0.0
H1752 H 0.1294 0.5881 0.23135 0.0
H1753 H 0.13326 0.56385 0.24013 0.0
H1754 H 0.10588 0.56161 0.24853 0.0
H1755 H 0.04497 0.496 0.16708 0.0
H1756 H 0.05879 0.46862 0.17788 0.0
H1757 H 0.12601 0.52606 0.20501 0.0
C1758 C 0.09767 0.58708 0.17296 0.0
C1759 C 0.07902 0.58836 0.15864 0.0
C1760 C 0.05798 0.56772 0.15232 0.0
C1761 C 0.05571 0.5461 0.15956 0.0
C1762 C 0.07461 0.54547 0.17319 0.0
C1763 C 0.09516 0.56547 0.17988 0.0
C1764 C 0.11336 0.56025 0.19241 0.0
C1765 C 0.134 0.57039 0.16692 0.0
C1766 C 0.12091 0.56897 0.23036 0.0
C1767 C 0.10004 0.53418 0.19104 0.0
C1768 C 0.07764 0.52589 0.1803 0.0
C1769 C 0.06242 0.50231 0.17582 0.0
C1770 C 0.07042 0.48689 0.18203 0.0
C1771 C 0.09349 0.49516 0.1923 0.0
C1772 C 0.10826 0.51911 0.1973 0.0
H1773 H 0.45294 0.59041 0.20659 0.0
H1774 H 0.5102 0.58592 0.16307 0.0
H1775 H 0.48336 0.5455 0.14524 0.0
H1776 H 0.42013 0.53128 0.23944 0.0
H1777 H 0.39305 0.52882 0.22784 0.0
H1778 H 0.41712 0.55652 0.23956 0.0
H1779 H 0.41329 0.57351 0.18005 0.0
H1780 H 0.38931 0.54588 0.16808 0.0
H1781 H 0.41389 0.55997 0.13922 0.0
H1782 H 0.44931 0.50607 0.12884 0.0
H1783 H 0.41156 0.47174 0.11537 0.0
H1784 H 0.3775 0.50324 0.16962 0.0
C1785 C 0.46002 0.58093 0.19373 0.0
C1786 C 0.48374 0.59138 0.1863 0.0
C1787 C 0.49211 0.57828 0.16918 0.0
C1788 C 0.477 0.55531 0.15898 0.0
C1789 C 0.45363 0.54572 0.16624 0.0
C1790 C 0.44526 0.55816 0.18338 0.0
C1791 C 0.4194 0.54452 0.18668 0.0
C1792 C 0.412 0.54002 0.2257 0.0
C1793 C 0.40833 0.5567 0.16735 0.0
C1794 C 0.41436 0.52253 0.16814 0.0
C1795 C 0.43426 0.52337 0.15674 0.0
C1796 C 0.43366 0.50519 0.13791 0.0
C1797 C 0.41215 0.48578 0.13036 0.0
C1798 C 0.3916 0.48482 0.14145 0.0
C1799 C 0.39288 0.50339 0.16087 0.0
H1800 H 0.11205 0.58126 0.70298 0.0
H1801 H 0.05207 0.57642 0.65213 0.0
H1802 H 0.03996 0.5364 0.63358 0.0
H1803 H 0.12462 0.55233 0.63799 0.0
H1804 H 0.1339 0.53807 0.66862 0.0
H1805 H 0.13653 0.56532 0.68018 0.0
H1806 H 0.1128 0.54721 0.73722 0.0
H1807 H 0.11018 0.51988 0.72595 0.0
H1808 H 0.08479 0.52171 0.73409 0.0
H1809 H 0.03631 0.49761 0.61699 0.0
H1810 H 0.04094 0.4638 0.60534 0.0
H1811 H 0.10339 0.49519 0.66774 0.0
C1812 C 0.09619 0.57179 0.68828 0.0
C1813 C 0.08302 0.58202 0.67897 0.0
C1814 C 0.0624 0.56891 0.6597 0.0
C1815 C 0.05542 0.5462 0.64903 0.0
C1816 C 0.06915 0.53685 0.65812 0.0
C1817 C 0.08901 0.54926 0.67758 0.0
C1818 C 0.10134 0.53591 0.68296 0.0
C1819 C 0.12552 0.54867 0.66644 0.0
C1820 C 0.10232 0.53088 0.7224 0.0
C1821 C 0.08559 0.51411 0.6629 0.0
C1822 C 0.06703 0.51482 0.64885 0.0
C1823 C 0.05067 0.49683 0.62817 0.0
C1824 C 0.05346 0.47773 0.62164 0.0
C1825 C 0.07249 0.47684 0.63569 0.0
C1826 C 0.08858 0.49525 0.65677 0.0
H1827 H 0.394 0.5333 0.68547 0.0
H1828 H 0.40117 0.47647 0.64581 0.0
H1829 H 0.44211 0.50365 0.63291 0.0
H1830 H 0.43073 0.57542 0.62204 0.0
H1831 H 0.44261 0.59886 0.65332 0.0
H1832 H 0.41397 0.57486 0.65959 0.0
H1833 H 0.42503 0.56812 0.72225 0.0
H1834 H 0.45373 0.59207 0.71614 0.0
H1835 H 0.44931 0.564 0.72752 0.0
H1836 H 0.48223 0.53734 0.62334 0.0
H1837 H 0.51836 0.57482 0.6182 0.0
H1838 H 0.48478 0.6092 0.66515 0.0
C1839 C 0.40412 0.52651 0.67403 0.0
C1840 C 0.39431 0.50272 0.66659 0.0
C1841 C 0.40827 0.49461 0.65176 0.0
C1842 C 0.43155 0.50991 0.64434 0.0
C1843 C 0.44064 0.53324 0.65206 0.0
C1844 C 0.42736 0.54149 0.66664 0.0
C1845 C 0.44123 0.56732 0.67243 0.0
C1846 C 0.43156 0.57985 0.65053 0.0
C1847 C 0.44239 0.57322 0.71193 0.0
C1848 C 0.46438 0.57238 0.6586 0.0
C1849 C 0.46372 0.55252 0.64697 0.0
C1850 C 0.48297 0.55299 0.63249 0.0
C1851 C 0.5034 0.57435 0.62967 0.0
C1852 C 0.5044 0.59491 0.64136 0.0
C1853 C 0.48461 0.59378 0.65618 0.0
H1854 H 0.41046 0.90216 0.62542 0.0
H1855 H 0.37456 0.87148 0.72346 0.0
H1856 H 0.40953 0.87324 0.74747 0.0
H1857 H 0.4393 0.86999 0.62193 0.0
H1858 H 0.46536 0.893 0.60291 0.0
H1859 H 0.43838 0.89159 0.59471 0.0
H1860 H 0.45506 0.93317 0.61881 0.0
H1861 H 0.48213 0.93471 0.62707 0.0
H1862 H 0.46745 0.94002 0.66245 0.0
H1863 H 0.44808 0.8782 0.7607 0.0
H1864 H 0.48656 0.88226 0.76041 0.0
H1865 H 0.49654 0.90649 0.65185 0.0
C1866 C 0.41016 0.89618 0.65213 0.0
C1867 C 0.39003 0.88699 0.67291 0.0
C1868 C 0.38993 0.87869 0.70733 0.0
C1869 C 0.4097 0.87971 0.72118 0.0
C1870 C 0.42926 0.88869 0.69999 0.0
C1871 C 0.42959 0.89651 0.66604 0.0
C1872 C 0.45224 0.90355 0.64783 0.0
C1873 C 0.44859 0.88864 0.61491 0.0
C1874 C 0.46497 0.9294 0.6385 0.0
C1875 C 0.46453 0.89839 0.67681 0.0
C1876 C 0.45109 0.89023 0.70687 0.0
C1877 C 0.45875 0.88451 0.7373 0.0
C1878 C 0.48064 0.88693 0.73691 0.0
C1879 C 0.49445 0.89459 0.70608 0.0
C1880 C 0.48628 0.90047 0.67571 0.0
H1881 H 0.15665 0.40255 0.17747 0.0
H1882 H 0.15341 0.44874 0.10019 0.0
H1883 H 0.19042 0.45665 0.07525 0.0
H1884 H 0.21522 0.43673 0.19517 0.0
H1885 H 0.22097 0.41336 0.19997 0.0
H1886 H 0.19271 0.40861 0.20916 0.0
H1887 H 0.17521 0.37507 0.16399 0.0
H1888 H 0.20345 0.37962 0.1548 0.0
H1889 H 0.18591 0.38013 0.11925 0.0
H1890 H 0.22894 0.46314 0.06289 0.0
H1891 H 0.26731 0.46735 0.06242 0.0
H1892 H 0.24689 0.41687 0.14697 0.0
C1893 C 0.16349 0.41384 0.15472 0.0
C1894 C 0.15211 0.42495 0.14058 0.0
C1895 C 0.16182 0.44003 0.11136 0.0
C1896 C 0.1828 0.44458 0.09694 0.0
C1897 C 0.19389 0.43388 0.11197 0.0
C1898 C 0.18462 0.41871 0.14004 0.0
C1899 C 0.20112 0.411 0.15273 0.0
C1900 C 0.2079 0.41785 0.19155 0.0
C1901 C 0.1908 0.3849 0.14736 0.0
C1902 C 0.2213 0.42474 0.12802 0.0
C1903 C 0.21654 0.43763 0.1046 0.0
C1904 C 0.23279 0.4529 0.0807 0.0
C1905 C 0.25459 0.45526 0.08081 0.0
C1906 C 0.26006 0.44239 0.10459 0.0
C1907 C 0.24305 0.42664 0.12816 0.0
H1908 H 0.56481 0.83095 0.15259 0.0
H1909 H 0.49174 0.79768 0.1756 0.0
H1910 H 0.49042 0.76099 0.18538 0.0
H1911 H 0.56288 0.78453 0.10568 0.0
H1912 H 0.58914 0.78762 0.12322 0.0
H1913 H 0.58544 0.81238 0.12037 0.0
H1914 H 0.59363 0.81989 0.18735 0.0
H1915 H 0.59758 0.79527 0.19036 0.0
H1916 H 0.57694 0.79708 0.21846 0.0
H1917 H 0.4951 0.72735 0.18616 0.0
H1918 H 0.50675 0.69814 0.18464 0.0
H1919 H 0.57741 0.75167 0.16512 0.0
C1920 C 0.54868 0.81603 0.16035 0.0
C1921 C 0.52835 0.81728 0.16303 0.0
C1922 C 0.50753 0.79727 0.173 0.0
C1923 C 0.50655 0.77625 0.17872 0.0
C1924 C 0.52658 0.77539 0.17484 0.0
C1925 C 0.54737 0.79468 0.16647 0.0
C1926 C 0.56607 0.78839 0.16329 0.0
C1927 C 0.57649 0.79354 0.12591 0.0
C1928 C 0.58465 0.8009 0.19156 0.0
C1929 C 0.55227 0.76254 0.17036 0.0
C1930 C 0.52953 0.75559 0.17678 0.0
C1931 C 0.51294 0.73256 0.18184 0.0
C1932 C 0.51975 0.71606 0.18075 0.0
C1933 C 0.54303 0.72262 0.17516 0.0
C1934 C 0.55955 0.74622 0.16995 0.0
H1935 H 0.15732 0.73194 0.16235 0.0
H1936 H 0.18865 0.71117 0.08085 0.0
H1937 H 0.22389 0.74902 0.08427 0.0
H1938 H 0.18492 0.79365 0.13594 0.0
H1939 H 0.18911 0.80373 0.18097 0.0
H1940 H 0.16512 0.77579 0.16991 0.0
H1941 H 0.1783 0.75679 0.21688 0.0
H1942 H 0.20234 0.78462 0.22798 0.0
H1943 H 0.20708 0.76151 0.21486 0.0
H1944 H 0.25641 0.78697 0.09888 0.0
H1945 H 0.28538 0.82401 0.12439 0.0
H1946 H 0.2344 0.82166 0.19727 0.0
C1947 C 0.17147 0.73561 0.14482 0.0
C1948 C 0.17024 0.71862 0.12129 0.0
C1949 C 0.18924 0.72386 0.09919 0.0
C1950 C 0.20931 0.74536 0.10078 0.0
C1951 C 0.21022 0.76154 0.12466 0.0
C1952 C 0.19191 0.75709 0.14631 0.0
C1953 C 0.19828 0.7772 0.17122 0.0
C1954 C 0.18348 0.78825 0.16407 0.0
C1955 C 0.19639 0.76956 0.21003 0.0
C1956 C 0.22313 0.7933 0.16056 0.0
C1957 C 0.22945 0.78387 0.1334 0.0
C1958 C 0.25167 0.7947 0.11991 0.0
C1959 C 0.26802 0.81571 0.1347 0.0
C1960 C 0.26215 0.82574 0.16276 0.0
C1961 C 0.2393 0.8145 0.17559 0.0
H1962 H 0.22064 0.22368 0.17273 0.0
H1963 H 0.1474 0.18351 0.15244 0.0
H1964 H 0.1395 0.18451 0.2157 0.0
H1965 H 0.21887 0.19468 0.25128 0.0
H1966 H 0.24064 0.21966 0.27433 0.0
H1967 H 0.24095 0.21874 0.2268 0.0
H1968 H 0.24033 0.25701 0.22374 0.0
H1969 H 0.24006 0.25807 0.27135 0.0
H1970 H 0.21792 0.25921 0.24626 0.0
H1971 H 0.13902 0.18677 0.28009 0.0
H1972 H 0.14586 0.18898 0.34402 0.0
H1973 H 0.21952 0.22681 0.32538 0.0
C1974 C 0.203 0.21558 0.18168 0.0
C1975 C 0.18459 0.20363 0.1578 0.0
C1976 C 0.16171 0.19271 0.17039 0.0
C1977 C 0.15704 0.1933 0.20621 0.0
C1978 C 0.17545 0.20476 0.22925 0.0
C1979 C 0.19799 0.21567 0.21774 0.0
C1980 C 0.21442 0.2249 0.24888 0.0
C1981 C 0.22961 0.21382 0.2504 0.0
C1982 C 0.22904 0.25137 0.24747 0.0
C1983 C 0.19752 0.21693 0.27951 0.0
C1984 C 0.17517 0.20567 0.26731 0.0
C1985 C 0.15642 0.19573 0.29007 0.0
C1986 C 0.16053 0.197 0.3264 0.0
C1987 C 0.18323 0.20804 0.3398 0.0
C1988 C 0.20198 0.21847 0.31597 0.0
H1989 H 0.78799 0.01052 0.16362 0.0
H1990 H 0.72255 0.00645 0.14452 0.0
H1991 H 0.71605 0.00536 0.20916 0.0
H1992 H 0.76929 0.97099 0.23408 0.0
H1993 H 0.79588 0.98617 0.25819 0.0
H1994 H 0.79594 0.98846 0.2108 0.0
H1995 H 0.81636 0.03307 0.21558 0.0
H1996 H 0.81645 0.03094 0.26304 0.0
H1997 H 0.80377 0.04608 0.24233 0.0
H1998 H 0.71658 0.00346 0.27686 0.0
H1999 H 0.72355 -0.0003 0.34023 0.0
H2000 H 0.78805 0.0039 0.31256 0.0
C2001 C 0.77239 0.00971 0.17286 0.0
C2002 C 0.75585 0.00871 0.14895 0.0
C2003 C 0.73553 0.00731 0.16234 0.0
C2004 C 0.7317 0.00672 0.199 0.0
C2005 C 0.74834 0.00747 0.22178 0.0
C2006 C 0.76826 0.00892 0.20908 0.0
C2007 C 0.78301 0.00833 0.23861 0.0
C2008 C 0.7862 0.98723 0.23521 0.0
C2009 C 0.80627 0.03095 0.23996 0.0
C2010 C 0.76823 0.00609 0.27006 0.0
C2011 C 0.74839 0.00585 0.26006 0.0
C2012 C 0.7321 0.00369 0.28492 0.0
C2013 C 0.7362 0.00159 0.32082 0.0
C2014 C 0.75629 0.0014 0.33133 0.0
C2015 C 0.77246 0.00384 0.30546 0.0
H2016 H 0.98132 0.79868 0.31963 0.0
H2017 H 0.98066 0.7346 0.33982 0.0
H2018 H 0.97394 0.72503 0.27606 0.0
H2019 H 0.93663 0.77614 0.25347 0.0
H2020 H 0.95026 0.80234 0.22769 0.0
H2021 H 0.95438 0.80354 0.27484 0.0
H2022 H -0.00149 0.82493 0.26572 0.0
H2023 H -0.00546 0.82383 0.21858 0.0
H2024 H 0.01091 0.81213 0.23808 0.0
H2025 H 0.9692 0.72381 0.2088 0.0
H2026 H 0.96607 0.73059 0.14522 0.0
H2027 H 0.96885 0.79502 0.17122 0.0
C2028 C 0.97973 0.78258 0.31082 0.0
C2029 C 0.98162 0.76743 0.33474 0.0
C2030 C 0.97925 0.74647 0.32198 0.0
C2031 C 0.97544 0.7409 0.28583 0.0
C2032 C 0.97381 0.75637 0.26296 0.0
C2033 C 0.97575 0.77671 0.27512 0.0
C2034 C 0.97364 0.79063 0.24544 0.0
C2035 C 0.95247 0.79331 0.25068 0.0
C2036 C -0.00429 0.81427 0.24174 0.0
C2037 C 0.97053 0.77515 0.21442 0.0
C2038 C 0.97064 0.75545 0.22489 0.0
C2039 C 0.96889 0.73909 0.20041 0.0
C2040 C 0.96713 0.7431 0.16436 0.0
C2041 C 0.96707 0.76327 0.15318 0.0
C2042 C 0.96858 0.7793 0.17878 0.0
H2043 H 0.74584 0.75391 0.81875 0.0
H2044 H 0.74223 0.81663 0.82487 0.0
H2045 H 0.73897 0.81692 0.76011 0.0
H2046 H 0.78184 0.77028 0.74727 0.0
H2047 H 0.76918 0.74248 0.72602 0.0
H2048 H 0.76655 0.74418 0.77306 0.0
H2049 H 0.72224 0.7196 0.76818 0.0
H2050 H 0.72473 0.71766 0.721 0.0
H2051 H 0.70725 0.72863 0.73868 0.0
H2052 H 0.74213 0.8143 0.69593 0.0
H2053 H 0.75135 0.80858 0.63491 0.0
H2054 H 0.75328 0.74776 0.66832 0.0
C2055 C 0.74355 0.7672 0.80642 0.0
C2056 C 0.7441 0.78515 0.82674 0.0
C2057 C 0.7418 0.8027 0.80974 0.0
C2058 C 0.73981 0.80295 0.773 0.0
C2059 C 0.74011 0.7855 0.75354 0.0
C2060 C 0.74178 0.76783 0.76952 0.0
C2061 C 0.74435 0.75277 0.74206 0.0
C2062 C 0.76681 0.75243 0.74743 0.0
C2063 C 0.72339 0.72821 0.74251 0.0
C2064 C 0.74505 0.76546 0.70842 0.0
C2065 C 0.74208 0.78401 0.71575 0.0
C2066 C 0.74394 0.79955 0.68968 0.0
C2067 C 0.74923 0.79624 0.65522 0.0
C2068 C 0.7526 0.77759 0.64723 0.0
C2069 C 0.75019 0.76181 0.67392 0.0
H2070 H 0.19473 -5e-05 0.66398 0.0
H2071 H 0.25672 -0.00295 0.64474 0.0
H2072 H 0.26108 0.99402 0.70928 0.0
H2073 H 0.21323 0.03366 0.74326 0.0
H2074 H 0.18531 0.01813 0.76374 0.0
H2075 H 0.18771 0.02063 0.71634 0.0
H2076 H 0.16392 0.97604 0.71066 0.0
H2077 H 0.16143 0.9734 0.75803 0.0
H2078 H 0.17319 0.95861 0.73372 0.0
H2079 H 0.25838 0.99169 0.77714 0.0
H2080 H 0.24784 0.98835 0.84061 0.0
H2081 H 0.1871 0.99167 0.81287 0.0
C2082 C 0.20934 -0.00119 0.67319 0.0
C2083 C 0.22546 -0.00112 0.64928 0.0
C2084 C 0.24415 -0.00294 0.66258 0.0
C2085 C 0.24679 -0.00462 0.69918 0.0
C2086 C 0.2305 -0.00461 0.722 0.0
C2087 C 0.21209 -0.00307 0.70934 0.0
C2088 C 0.19654 -0.00404 0.73889 0.0
C2089 C 0.19566 0.01843 0.74065 0.0
C2090 C 0.17234 0.97473 0.73509 0.0
C2091 C 0.20902 0.99362 0.7703 0.0
C2092 C 0.22867 0.99349 0.76028 0.0
C2093 C 0.24298 0.99171 0.78519 0.0
C2094 C 0.23689 0.98987 0.82116 0.0
C2095 C 0.21658 0.98961 0.83172 0.0
C2096 C 0.20264 0.99161 0.80577 0.0
H2097 H 0.97774 0.19248 0.67467 0.0
H2098 H 0.98283 0.25798 0.64889 0.0
H2099 H 0.98575 0.26742 0.71289 0.0
H2100 H 0.94456 0.18023 0.75401 0.0
H2101 H 0.95971 0.16796 0.77588 0.0
H2102 H 0.95691 0.16646 0.72851 0.0
H2103 H 0.0012 0.18647 0.72218 0.0
H2104 H 0.00414 0.18812 0.76952 0.0
H2105 H 0.01908 0.21398 0.74317 0.0
H2106 H 0.98739 0.26864 0.7815 0.0
H2107 H -0.00987 0.26261 0.8458 0.0
H2108 H 0.98633 0.19739 0.82278 0.0
C2109 C 0.9792 0.20873 0.68234 0.0
C2110 C 0.97977 0.22438 0.65688 0.0
C2111 C 0.98224 0.24569 0.66808 0.0
C2112 C 0.98387 0.25116 0.70431 0.0
C2113 C 0.98332 0.23524 0.72874 0.0
C2114 C 0.98122 0.21455 0.71796 0.0
C2115 C 0.98207 0.20067 0.74868 0.0
C2116 C 0.95947 0.17747 0.75196 0.0
C2117 C 0.00286 0.19712 0.7457 0.0
C2118 C 0.9849 0.21665 0.77869 0.0
C2119 C 0.98535 0.23643 0.76705 0.0
C2120 C 0.98723 0.25327 0.79076 0.0
C2121 C -0.01125 0.24972 0.82716 0.0
C2122 C -0.01125 0.22969 0.83918 0.0
C2123 C 0.98679 0.21309 0.81445 0.0
H2124 H 0.85274 0.52327 0.49896 0.0
H2125 H 0.91507 0.58912 0.48238 0.0
H2126 H 0.91794 0.59617 0.54698 0.0
H2127 H 0.82976 0.5421 0.56909 0.0
H2128 H 0.81787 0.51504 0.59252 0.0
H2129 H 0.82078 0.51567 0.54514 0.0
H2130 H 0.84461 0.49518 0.55026 0.0
H2131 H 0.84175 0.49446 0.59761 0.0
H2132 H 0.86987 0.50762 0.57775 0.0
H2133 H 0.91449 0.59479 0.6145 0.0
H2134 H 0.90454 0.58558 0.6778 0.0
H2135 H 0.84394 0.5212 0.64789 0.0
C2136 C 0.86703 0.53922 0.50877 0.0
C2137 C 0.88374 0.5556 0.48561 0.0
C2138 C 0.90204 0.57632 0.49964 0.0
C2139 C 0.90382 0.58046 0.53627 0.0
C2140 C 0.88703 0.56382 0.55835 0.0
C2141 C 0.86893 0.54368 0.54497 0.0
C2142 C 0.85314 0.52841 0.57395 0.0
C2143 C 0.82896 0.52512 0.56993 0.0
C2144 C 0.85231 0.50504 0.57494 0.0
C2145 C 0.86528 0.5429 0.60591 0.0
C2146 C 0.88481 0.56327 0.59657 0.0
C2147 C 0.89913 0.57897 0.62204 0.0
C2148 C 0.89335 0.57359 0.65791 0.0
C2149 C 0.87339 0.55273 0.66786 0.0
C2150 C 0.8592 0.5374 0.64131 0.0
H2151 H 0.45298 0.33899 0.50594 0.0
H2152 H 0.38828 0.33377 0.4767 0.0
H2153 H 0.37783 0.33108 0.54011 0.0
H2154 H 0.43086 0.29786 0.574 0.0
H2155 H 0.45584 0.3129 0.60174 0.0
H2156 H 0.45869 0.31631 0.55452 0.0
H2157 H 0.47785 0.36073 0.56138 0.0
H2158 H 0.47516 0.35746 0.6087 0.0
H2159 H 0.46322 0.3726 0.58581 0.0
H2160 H 0.37442 0.32776 0.60814 0.0
H2161 H 0.37798 0.32287 0.67251 0.0
H2162 H 0.44437 0.32899 0.6541 0.0
C2163 C 0.43672 0.33761 0.51268 0.0
C2164 C 0.42153 0.33675 0.48629 0.0
C2165 C 0.40026 0.33457 0.49647 0.0
C2166 C 0.39419 0.33305 0.53242 0.0
C2167 C 0.40955 0.33366 0.55773 0.0
C2168 C 0.43036 0.33587 0.54812 0.0
C2169 C 0.44347 0.33493 0.57977 0.0
C2170 C 0.44743 0.31427 0.57735 0.0
C2171 C 0.46627 0.35779 0.58417 0.0
C2172 C 0.42674 0.3316 0.60886 0.0
C2173 C 0.40735 0.33114 0.59596 0.0
C2174 C 0.38957 0.32812 0.61844 0.0
C2175 C 0.39173 0.32538 0.65492 0.0
C2176 C 0.41136 0.32537 0.66829 0.0
C2177 C 0.42903 0.32867 0.64478 0.0
H2178 H 0.67256 0.1467 0.63674 0.0
H2179 H 0.66081 0.0784 0.662 0.0
H2180 H 0.65839 0.06949 0.598 0.0
H2181 H 0.63284 0.12922 0.56659 0.0
H2182 H 0.65 0.15482 0.54054 0.0
H2183 H 0.65237 0.15611 0.58796 0.0
H2184 H 0.69625 0.17228 0.58307 0.0
H2185 H 0.69405 0.17119 0.5356 0.0
H2186 H 0.70671 0.15658 0.55804 0.0
H2187 H 0.65683 0.06835 0.53009 0.0
H2188 H 0.65508 0.07466 0.46581 0.0
H2189 H 0.66612 0.14308 0.48755 0.0
C2190 C 0.66979 0.12994 0.62898 0.0
C2191 C 0.66708 0.11332 0.65442 0.0
C2192 C 0.66305 0.09146 0.64296 0.0
C2193 C 0.66166 0.08625 0.60669 0.0
C2194 C 0.66416 0.10304 0.58234 0.0
C2195 C 0.66809 0.12441 0.59317 0.0
C2196 C 0.66916 0.13918 0.56223 0.0
C2197 C 0.64995 0.14517 0.56448 0.0
C2198 C 0.69296 0.1611 0.55958 0.0
C2199 C 0.66516 0.12282 0.53212 0.0
C2200 C 0.6625 0.10211 0.54401 0.0
C2201 C 0.65884 0.0845 0.52058 0.0
C2202 C 0.65787 0.08823 0.48415 0.0
C2203 C 0.66028 0.10929 0.47166 0.0
C2204 C 0.66396 0.12668 0.49617 0.0
H2205 H 0.45485 0.13906 0.14322 0.0
H2206 H 0.39976 0.07026 0.17015 0.0
H2207 H 0.39444 0.05998 0.10653 0.0
H2208 H 0.43058 0.14619 0.06331 0.0
H2209 H 0.45787 0.16131 0.04089 0.0
H2210 H 0.45658 0.16308 0.08825 0.0
H2211 H 0.48548 0.14852 0.09482 0.0
H2212 H 0.48679 0.1466 0.04749 0.0
H2213 H 0.47915 0.12161 0.07457 0.0
H2214 H 0.39501 0.05791 0.039 0.0
H2215 H 0.4024 0.06367 0.97457 0.0
H2216 H 0.45843 0.13327 -0.00601 0.0
C2217 C 0.4415 0.12186 0.13585 0.0
C2218 C 0.42756 0.10551 0.16163 0.0
C2219 C 0.41058 0.08308 0.15081 0.0
C2220 C 0.40745 0.07711 0.11477 0.0
C2221 C 0.42161 0.09369 0.09006 0.0
C2222 C 0.43839 0.11556 0.10028 0.0
C2223 C 0.45185 0.13013 0.06896 0.0
C2224 C 0.44904 0.15143 0.06513 0.0
C2225 C 0.47732 0.13711 0.07163 0.0
C2226 C 0.44 0.11313 0.03933 0.0
C2227 C 0.42249 0.09224 0.05184 0.0
C2228 C 0.40878 0.07416 0.02899 0.0
C2229 C 0.41309 0.07759 -0.00753 0.0
C2230 C 0.43112 0.09885 0.97927 0.0
C2231 C 0.44472 0.11671 0.00321 0.0
H2232 H 0.87785 0.34355 0.14296 0.0
H2233 H 0.93276 0.32931 0.16405 0.0
H2234 H 0.94059 0.33087 0.0996 0.0
H2235 H 0.85625 0.30998 0.06665 0.0
H2236 H 0.84993 0.32996 0.04452 0.0
H2237 H 0.84982 0.3288 0.09202 0.0
H2238 H 0.87961 0.37262 0.09442 0.0
H2239 H 0.87976 0.37394 0.04686 0.0
H2240 H 0.90628 0.38376 0.07053 0.0
H2241 H 0.93954 0.33075 0.03134 0.0
H2242 H 0.93158 0.33161 0.96745 0.0
H2243 H 0.87861 0.34779 -0.00592 0.0
C2244 C 0.89162 0.34087 0.13414 0.0
C2245 C 0.90459 0.33613 0.1584 0.0
C2246 C 0.92264 0.33299 0.1458 0.0
C2247 C 0.92715 0.33381 0.1093 0.0
C2248 C 0.91369 0.33816 0.08602 0.0
C2249 C 0.89651 0.34195 0.09818 0.0
C2250 C 0.88422 0.34608 0.06827 0.0
C2251 C 0.85855 0.3276 0.06785 0.0
C2252 C 0.88769 0.37056 0.07014 0.0
C2253 C 0.89676 0.34354 0.03713 0.0
C2254 C 0.91369 0.33893 0.04761 0.0
C2255 C 0.92654 0.33468 0.02293 0.0
C2256 C 0.92188 0.33515 0.98674 0.0
C2257 C 0.90463 0.33999 0.97573 0.0
C2258 C 0.89216 0.3444 0.00145 0.0
H2259 H 0.65567 0.52374 0.15327 0.0
H2260 H 0.66074 0.58963 0.17528 0.0
H2261 H 0.6557 0.59434 0.1113 0.0
H2262 H 0.68534 0.53841 0.07093 0.0
H2263 H 0.6666 0.51052 0.05163 0.0
H2264 H 0.67119 0.51312 0.09866 0.0
H2265 H 0.62725 0.49351 0.109 0.0
H2266 H 0.62252 0.49089 0.06199 0.0
H2267 H 0.6114 0.50544 0.0884 0.0
H2268 H 0.65164 0.59183 0.04321 0.0
H2269 H 0.64605 0.58111 0.97963 0.0
H2270 H 0.64119 0.51578 0.00578 0.0
C2271 C 0.65591 0.53929 0.14471 0.0
C2272 C 0.6589 0.55648 0.16908 0.0
C2273 C 0.65857 0.57631 0.15691 0.0
C2274 C 0.65577 0.57911 0.12068 0.0
C2275 C 0.65292 0.56174 0.09731 0.0
C2276 C 0.65272 0.54211 0.1091 0.0
C2277 C 0.64861 0.52549 0.07938 0.0
C2278 C 0.66916 0.52168 0.07489 0.0
C2279 C 0.62611 0.50248 0.08504 0.0
C2280 C 0.64674 0.53883 0.04873 0.0
C2281 C 0.64946 0.55981 0.05926 0.0
C2282 C 0.64925 0.57534 0.03482 0.0
C2283 C 0.64611 0.56915 -0.00117 0.0
C2284 C 0.64289 0.5475 0.98789 0.0
C2285 C 0.64318 0.53227 0.01334 0.0
H2286 H 0.56713 0.90817 0.00441 0.0
H2287 H 0.50029 0.84583 0.01213 0.0
H2288 H 0.5001 0.84047 0.94791 0.0
H2289 H 0.55539 0.92836 0.92378 0.0
H2290 H 0.58384 0.9398 0.90566 0.0
H2291 H 0.57975 0.93831 0.95284 0.0
H2292 H 0.60022 0.91453 0.95852 0.0
H2293 H 0.60435 0.91595 0.91132 0.0
H2294 H 0.58989 0.88833 0.93333 0.0
H2295 H 0.50609 0.84176 0.8839 0.0
H2296 H 0.51736 0.85053 0.82159 0.0
H2297 H 0.58 0.91274 0.85274 0.0
C2298 C 0.5526 0.8933 -0.00747 0.0
C2299 C 0.53373 0.87739 0.01332 0.0
C2300 C 0.51488 0.85831 -0.00321 0.0
C2301 C 0.51463 0.85503 0.96031 0.0
C2302 C 0.5333 0.87104 0.94054 0.0
C2303 C 0.55192 0.88988 0.95581 0.0
C2304 C 0.56917 0.90497 0.92778 0.0
C2305 C 0.5722 0.9293 0.92751 0.0
C2306 C 0.59228 0.90599 0.93306 0.0
C2307 C 0.55716 0.89167 0.89454 0.0
C2308 C 0.53661 0.87206 0.9028 0.0
C2309 C 0.52216 0.85702 0.877 0.0
C2310 C 0.52875 0.86219 0.84163 0.0
C2311 C 0.54957 0.88233 0.83221 0.0
C2312 C 0.56403 0.89719 0.85912 0.0
H2313 H 0.11938 0.64757 0.98348 0.0
H2314 H 0.06022 0.65441 0.00821 0.0
H2315 H 0.0542 0.65743 0.94415 0.0
H2316 H 0.14044 0.68869 0.91296 0.0
H2317 H 0.1504 0.67281 0.88728 0.0
H2318 H 0.14933 0.67055 0.93475 0.0
H2319 H 0.1238 0.62603 0.93014 0.0
H2320 H 0.12483 0.62814 0.88266 0.0
H2321 H 0.09751 0.61377 0.90511 0.0
H2322 H 0.0546 0.65876 0.87628 0.0
H2323 H 0.06238 0.66014 0.812 0.0
H2324 H 0.12237 0.65418 0.8341 0.0
C2325 C 0.10501 0.64952 0.97555 0.0
C2326 C 0.09011 0.65052 0.00082 0.0
C2327 C 0.0718 0.65353 0.98926 0.0
C2328 C 0.06825 0.65523 0.95297 0.0
C2329 C 0.08335 0.65418 0.92877 0.0
C2330 C 0.10146 0.65156 0.93975 0.0
C2331 C 0.11573 0.65157 0.90892 0.0
C2332 C 0.14043 0.67213 0.91112 0.0
C2333 C 0.11543 0.62851 0.90658 0.0
C2334 C 0.10275 0.65438 0.87866 0.0
C2335 C 0.08405 0.65574 0.89043 0.0
C2336 C 0.06929 0.65785 0.86687 0.0
C2337 C 0.07382 0.65858 0.83043 0.0
C2338 C 0.09307 0.65742 0.81801 0.0
C2339 C 0.10765 0.65536 0.84265 0.0
H2340 H 0.33061 0.46478 0.96971 0.0
H2341 H 0.33142 0.40188 -0.00655 0.0
H2342 H 0.33031 0.39383 0.92915 0.0
H2343 H 0.29082 0.44135 0.89799 0.0
H2344 H 0.30446 0.46799 0.8733 0.0
H2345 H 0.30589 0.46859 0.92084 0.0
H2346 H 0.35037 0.4925 0.91768 0.0
H2347 H 0.34908 0.49195 0.87015 0.0
H2348 H 0.36567 0.48156 0.89274 0.0
H2349 H 0.33 0.39379 0.86069 0.0
H2350 H 0.3282 0.40052 0.7965 0.0
H2351 H 0.32613 0.46271 0.82087 0.0
C2352 C 0.33074 0.44937 0.96151 0.0
C2353 C 0.33138 0.43409 0.9865 0.0
C2354 C 0.33101 0.41386 0.97464 0.0
C2355 C 0.33043 0.40919 0.93823 0.0
C2356 C 0.32989 0.42478 0.91426 0.0
C2357 C 0.3298 0.44433 0.92564 0.0
C2358 C 0.32838 0.45808 0.89518 0.0
C2359 C 0.30606 0.45904 0.89694 0.0
C2360 C 0.34964 0.48246 0.89387 0.0
C2361 C 0.32806 0.44351 0.86461 0.0
C2362 C 0.32899 0.42437 0.87583 0.0
C2363 C 0.32915 0.40868 0.85173 0.0
C2364 C 0.32818 0.41266 0.81535 0.0
C2365 C 0.32692 0.43208 0.80361 0.0
C2366 C 0.32692 0.44759 0.8288 0.0
H2367 H 0.07324 0.41491 0.4749 0.0
H2368 H 0.14485 0.44281 0.5023 0.0
H2369 H 0.1539 0.43949 0.44026 0.0
H2370 H 0.07087 0.37546 0.40154 0.0
H2371 H 0.05283 0.3819 0.37445 0.0
H2372 H 0.05078 0.3822 0.42195 0.0
H2373 H 0.05837 0.42408 0.41934 0.0
H2374 H 0.06048 0.42394 0.37196 0.0
H2375 H 0.08379 0.44607 0.39734 0.0
H2376 H 0.15658 0.43816 0.37624 0.0
H2377 H 0.15319 0.4403 0.3119 0.0
H2378 H 0.08004 0.41423 0.32305 0.0
C2379 C 0.09062 0.41961 0.46775 0.0
C2380 C 0.10838 0.42886 0.49314 0.0
C2381 C 0.13109 0.43559 0.48305 0.0
C2382 C 0.13635 0.43362 0.44799 0.0
C2383 C 0.11869 0.425 0.42326 0.0
C2384 C 0.09627 0.4181 0.43246 0.0
C2385 C 0.08127 0.41217 0.39973 0.0
C2386 C 0.06285 0.3864 0.39941 0.0
C2387 C 0.07035 0.42749 0.39694 0.0
C2388 C 0.09904 0.41781 0.37087 0.0
C2389 C 0.12036 0.42469 0.38529 0.0
C2390 C 0.13994 0.43248 0.36451 0.0
C2391 C 0.13785 0.43375 0.32798 0.0
C2392 C 0.11636 0.4274 0.31246 0.0
C2393 C 0.0966 0.41882 0.33416 0.0
H2394 H 0.52603 0.66986 0.3382 0.0
H2395 H 0.58741 0.66819 0.3085 0.0
H2396 H 0.59691 0.6686 0.37197 0.0
H2397 H 0.54972 0.70748 0.41321 0.0
H2398 H 0.52347 0.6923 0.43831 0.0
H2399 H 0.52245 0.69285 0.39078 0.0
H2400 H 0.49936 0.64807 0.38958 0.0
H2401 H 0.5003 0.64737 0.43707 0.0
H2402 H 0.51089 0.63212 0.41118 0.0
H2403 H 0.59885 0.6686 0.44014 0.0
H2404 H 0.59228 0.66674 0.50492 0.0
H2405 H 0.52919 0.66772 0.48697 0.0
C2406 C 0.5416 0.66974 0.34478 0.0
C2407 C 0.55602 0.66907 0.31828 0.0
C2408 C 0.5761 0.66874 0.32835 0.0
C2409 C 0.58165 0.66901 0.36431 0.0
C2410 C 0.5669 0.66959 0.38972 0.0
C2411 C 0.54727 0.6699 0.3802 0.0
C2412 C 0.5337 0.66974 0.41205 0.0
C2413 C 0.53227 0.69191 0.41367 0.0
C2414 C 0.50965 0.64803 0.41249 0.0
C2415 C 0.5486 0.6691 0.44123 0.0
C2416 C 0.5678 0.66921 0.42811 0.0
C2417 C 0.58387 0.66854 0.4506 0.0
C2418 C 0.58002 0.66753 0.48732 0.0
C2419 C 0.56017 0.66699 0.50102 0.0
C2420 C 0.54447 0.66797 0.47746 0.0
H2421 H 0.32383 0.85278 0.34255 0.0
H2422 H 0.31374 0.91111 0.32548 0.0
H2423 H 0.31733 0.9187 0.38994 0.0
H2424 H 0.29275 0.83308 0.42397 0.0
H2425 H 0.31246 0.82523 0.44269 0.0
H2426 H 0.30855 0.82442 0.39554 0.0
H2427 H 0.35237 0.85173 0.38724 0.0
H2428 H 0.3564 0.85277 0.43439 0.0
H2429 H 0.36646 0.87916 0.40971 0.0
H2430 H 0.32137 0.91909 0.45724 0.0
H2431 H 0.32616 0.91268 0.52042 0.0
H2432 H 0.3353 0.85521 0.49118 0.0
C2433 C 0.32217 0.86707 0.35225 0.0
C2434 C 0.31832 0.88125 0.32897 0.0
C2435 C 0.31662 0.89997 0.34285 0.0
C2436 C 0.31865 0.90441 0.3794 0.0
C2437 C 0.32261 0.89012 0.40155 0.0
C2438 C 0.32443 0.87189 0.38837 0.0
C2439 C 0.32911 0.85928 0.41734 0.0
C2440 C 0.30955 0.83401 0.42004 0.0
C2441 C 0.35247 0.86084 0.41183 0.0
C2442 C 0.32952 0.87314 0.44907 0.0
C2443 C 0.32565 0.89081 0.43961 0.0
C2444 C 0.32457 0.90539 0.46486 0.0
C2445 C 0.32732 0.90164 0.50065 0.0
C2446 C 0.3313 0.88358 0.51075 0.0
C2447 C 0.3326 0.86937 0.4844 0.0
loop_
_geom_bond_atom_site_label_1
_geom_bond_atom_site_label_2
_geom_bond_distance
_geom_bond_site_symmetry_2
_ccdc_geom_bond_type
C0 O1 1.306 . S
C0 O3 1.160 . S
O1 C0 1.306 . S
O1 Cd2 2.228 . S
Cd2 O1 2.228 . S
Cd2 O6 2.273 . S
Cd2 O10 2.277 . S
O3 C0 1.160 . S
O3 Cd4 2.203 . S
Cd4 O3 2.203 . S
Cd4 O6 2.411 . S
Cd4 O7 2.333 . S
Cd4 O8 2.352 1_554 S
Cd4 O12 2.277 . S
Cd4 O13 2.356 . S
C5 O10 1.209 . S
C5 O12 1.226 . S
O6 Cd2 2.273 . S
O6 Cd4 2.411 . S
O6 C9 1.320 . S
O7 Cd4 2.333 . S
O7 C9 1.214 . S
O8 Cd4 2.352 1_556 S
O8 C11 1.258 . S
C9 O6 1.320 . S
C9 O7 1.214 . S
O10 Cd2 2.277 . S
O10 C5 1.209 . S
C11 O8 1.258 . S
C11 O13 1.282 1_556 S
O12 Cd4 2.277 . S
O12 C5 1.226 . S
O13 Cd4 2.356 . S
O13 C11 1.282 1_554 S
C14 O15 1.306 . S
C14 O17 1.160 . S
O15 C14 1.306 . S
O15 Cd16 2.228 1_565 S
Cd16 O15 2.228 1_545 S
Cd16 O20 2.273 . S
Cd16 O24 2.277 . S
O17 C14 1.160 . S
O17 Cd18 2.203 1_565 S
Cd18 O17 2.203 1_545 S
Cd18 O20 2.411 . S
Cd18 O21 2.333 . S
Cd18 O22 2.352 1_554 S
Cd18 O26 2.277 . S
Cd18 O27 2.356 . S
C19 O24 1.209 . S
C19 O26 1.226 . S
O20 Cd16 2.273 . S
O20 Cd18 2.411 . S
O20 C23 1.320 . S
O21 Cd18 2.333 . S
O21 C23 1.214 . S
O22 Cd18 2.352 1_556 S
O22 C25 1.258 . S
C23 O20 1.320 . S
C23 O21 1.214 . S
O24 Cd16 2.277 . S
O24 C19 1.209 . S
C25 O22 1.258 . S
C25 O27 1.282 1_556 S
O26 Cd18 2.277 . S
O26 C19 1.226 . S
O27 Cd18 2.356 . S
O27 C25 1.282 1_554 S
C28 O29 1.306 . S
C28 O31 1.160 . S
O29 C28 1.306 . S
O29 Cd30 2.228 1_455 S
Cd30 O29 2.228 1_655 S
Cd30 O34 2.273 . S
Cd30 O38 2.277 . S
O31 C28 1.160 . S
O31 Cd32 2.203 1_455 S
Cd32 O31 2.203 1_655 S
Cd32 O34 2.411 . S
Cd32 O35 2.333 . S
Cd32 O36 2.352 1_554 S
Cd32 O40 2.277 . S
Cd32 O41 2.356 . S
C33 O38 1.209 . S
C33 O40 1.226 . S
O34 Cd30 2.273 . S
O34 Cd32 2.411 . S
O34 C37 1.320 . S
O35 Cd32 2.333 . S
O35 C37 1.214 . S
O36 Cd32 2.352 1_556 S
O36 C39 1.258 . S
C37 O34 1.320 . S
C37 O35 1.214 . S
O38 Cd30 2.277 . S
O38 C33 1.209 . S
C39 O36 1.258 . S
C39 O41 1.282 1_556 S
O40 Cd32 2.277 . S
O40 C33 1.226 . S
O41 Cd32 2.356 . S
O41 C39 1.282 1_554 S
C42 O43 1.306 . S
C42 O45 1.160 . S
O43 C42 1.306 . S
O43 Cd44 2.228 . S
Cd44 O43 2.228 . S
Cd44 O48 2.273 . S
Cd44 O52 2.277 . S
O45 C42 1.160 . S
O45 Cd46 2.203 . S
Cd46 O45 2.203 . S
Cd46 O48 2.411 . S
Cd46 O49 2.333 . S
Cd46 O50 2.352 . S
Cd46 O54 2.277 . S
Cd46 O55 2.356 . S
C47 O52 1.209 . S
C47 O54 1.226 . S
O48 Cd44 2.273 . S
O48 Cd46 2.411 . S
O48 C51 1.320 . S
O49 Cd46 2.333 . S
O49 C51 1.214 . S
O50 Cd46 2.352 . S
O50 C53 1.258 . S
C51 O48 1.320 . S
C51 O49 1.214 . S
O52 Cd44 2.277 . S
O52 C47 1.209 . S
C53 O50 1.258 . S
C53 O55 1.282 . S
O54 Cd46 2.277 . S
O54 C47 1.226 . S
O55 Cd46 2.356 . S
O55 C53 1.282 . S
C56 O57 1.306 . S
C56 O59 1.160 . S
O57 C56 1.306 . S
O57 Cd58 2.228 1_545 S
Cd58 O57 2.228 1_565 S
Cd58 O62 2.273 . S
Cd58 O66 2.277 . S
O59 C56 1.160 . S
O59 Cd60 2.203 1_545 S
Cd60 O59 2.203 1_565 S
Cd60 O62 2.411 . S
Cd60 O63 2.333 . S
Cd60 O64 2.352 . S
Cd60 O68 2.277 . S
Cd60 O69 2.356 . S
C61 O66 1.209 . S
C61 O68 1.226 . S
O62 Cd58 2.273 . S
O62 Cd60 2.411 . S
O62 C65 1.320 . S
O63 Cd60 2.333 . S
O63 C65 1.214 . S
O64 Cd60 2.352 . S
O64 C67 1.258 . S
C65 O62 1.320 . S
C65 O63 1.214 . S
O66 Cd58 2.277 . S
O66 C61 1.209 . S
C67 O64 1.258 . S
C67 O69 1.282 . S
O68 Cd60 2.277 . S
O68 C61 1.226 . S
O69 Cd60 2.356 . S
O69 C67 1.282 . S
C70 O71 1.306 . S
C70 O73 1.160 . S
O71 C70 1.306 . S
O71 Cd72 2.228 1_655 S
Cd72 O71 2.228 1_455 S
Cd72 O76 2.273 . S
Cd72 O80 2.277 . S
O73 C70 1.160 . S
O73 Cd74 2.203 1_655 S
Cd74 O73 2.203 1_455 S
Cd74 O76 2.411 . S
Cd74 O77 2.333 . S
Cd74 O78 2.352 . S
Cd74 O82 2.277 . S
Cd74 O83 2.356 . S
C75 O80 1.209 . S
C75 O82 1.226 . S
O76 Cd72 2.273 . S
O76 Cd74 2.411 . S
O76 C79 1.320 . S
O77 Cd74 2.333 . S
O77 C79 1.214 . S
O78 Cd74 2.352 . S
O78 C81 1.258 . S
C79 O76 1.320 . S
C79 O77 1.214 . S
O80 Cd72 2.277 . S
O80 C75 1.209 . S
C81 O78 1.258 . S
C81 O83 1.282 . S
O82 Cd74 2.277 . S
O82 C75 1.226 . S
O83 Cd74 2.356 . S
O83 C81 1.282 . S
C84 O85 1.306 . S
C84 O87 1.160 . S
O85 C84 1.306 . S
O85 Cd86 2.228 . S
Cd86 O85 2.228 . S
Cd86 O90 2.273 . S
Cd86 O94 2.277 . S
O87 C84 1.160 . S
O87 Cd88 2.203 . S
Cd88 O87 2.203 . S
Cd88 O90 2.411 . S
Cd88 O91 2.333 . S
Cd88 O92 2.352 1_556 S
Cd88 O96 2.277 . S
Cd88 O97 2.356 . S
C89 O94 1.209 . S
C89 O96 1.226 . S
O90 Cd86 2.273 . S
O90 Cd88 2.411 . S
O90 C93 1.320 . S
O91 Cd88 2.333 . S
O91 C93 1.214 . S
O92 Cd88 2.352 1_554 S
O92 C95 1.258 . S
C93 O90 1.320 . S
C93 O91 1.214 . S
O94 Cd86 2.277 . S
O94 C89 1.209 . S
C95 O92 1.258 . S
C95 O97 1.282 1_554 S
O96 Cd88 2.277 . S
O96 C89 1.226 . S
O97 Cd88 2.356 . S
O97 C95 1.282 1_556 S
C98 O99 1.306 . S
C98 O101 1.160 . S
O99 C98 1.306 . S
O99 Cd100 2.228 1_545 S
Cd100 O99 2.228 1_565 S
Cd100 O104 2.273 . S
Cd100 O108 2.277 . S
O101 C98 1.160 . S
O101 Cd102 2.203 1_545 S
Cd102 O101 2.203 1_565 S
Cd102 O104 2.411 . S
Cd102 O105 2.333 . S
Cd102 O106 2.352 1_556 S
Cd102 O110 2.277 . S
Cd102 O111 2.356 . S
C103 O108 1.209 . S
C103 O110 1.226 . S
O104 Cd100 2.273 . S
O104 Cd102 2.411 . S
O104 C107 1.320 . S
O105 Cd102 2.333 . S
O105 C107 1.214 . S
O106 Cd102 2.352 1_554 S
O106 C109 1.258 . S
C107 O104 1.320 . S
C107 O105 1.214 . S
O108 Cd100 2.277 . S
O108 C103 1.209 . S
C109 O106 1.258 . S
C109 O111 1.282 1_554 S
O110 Cd102 2.277 . S
O110 C103 1.226 . S
O111 Cd102 2.356 . S
O111 C109 1.282 1_556 S
C112 O113 1.306 . S
C112 O115 1.160 . S
O113 C112 1.306 . S
O113 Cd114 2.228 1_655 S
Cd114 O113 2.228 1_455 S
Cd114 O118 2.273 . S
Cd114 O122 2.277 . S
O115 C112 1.160 . S
O115 Cd116 2.203 1_655 S
Cd116 O115 2.203 1_455 S
Cd116 O118 2.411 . S
Cd116 O119 2.333 . S
Cd116 O120 2.352 1_556 S
Cd116 O124 2.277 . S
Cd116 O125 2.356 . S
C117 O122 1.209 . S
C117 O124 1.226 . S
O118 Cd114 2.273 . S
O118 Cd116 2.411 . S
O118 C121 1.320 . S
O119 Cd116 2.333 . S
O119 C121 1.214 . S
O120 Cd116 2.352 1_554 S
O120 C123 1.258 . S
C121 O118 1.320 . S
C121 O119 1.214 . S
O122 Cd114 2.277 . S
O122 C117 1.209 . S
C123 O120 1.258 . S
C123 O125 1.282 1_554 S
O124 Cd116 2.277 . S
O124 C117 1.226 . S
O125 Cd116 2.356 . S
O125 C123 1.282 1_556 S
C126 O127 1.306 . S
C126 O129 1.160 . S
O127 C126 1.306 . S
O127 Cd128 2.228 . S
Cd128 O127 2.228 . S
Cd128 O132 2.273 . S
Cd128 O136 2.277 . S
O129 C126 1.160 . S
O129 Cd130 2.203 . S
Cd130 O129 2.203 . S
Cd130 O132 2.411 . S
Cd130 O133 2.333 . S
Cd130 O134 2.352 . S
Cd130 O138 2.277 . S
Cd130 O139 2.356 . S
C131 O136 1.209 . S
C131 O138 1.226 . S
O132 Cd128 2.273 . S
O132 Cd130 2.411 . S
O132 C135 1.320 . S
O133 Cd130 2.333 . S
O133 C135 1.214 . S
O134 Cd130 2.352 . S
O134 C137 1.258 . S
C135 O132 1.320 . S
C135 O133 1.214 . S
O136 Cd128 2.277 . S
O136 C131 1.209 . S
C137 O134 1.258 . S
C137 O139 1.282 . S
O138 Cd130 2.277 . S
O138 C131 1.226 . S
O139 Cd130 2.356 . S
O139 C137 1.282 . S
C140 O141 1.306 . S
C140 O143 1.160 . S
O141 C140 1.306 . S
O141 Cd142 2.228 1_565 S
Cd142 O141 2.228 1_545 S
Cd142 O146 2.273 . S
Cd142 O150 2.277 . S
O143 C140 1.160 . S
O143 Cd144 2.203 1_565 S
Cd144 O143 2.203 1_545 S
Cd144 O146 2.411 . S
Cd144 O147 2.333 . S
Cd144 O148 2.352 . S
Cd144 O152 2.277 . S
Cd144 O153 2.356 . S
C145 O150 1.209 . S
C145 O152 1.226 . S
O146 Cd142 2.273 . S
O146 Cd144 2.411 . S
O146 C149 1.320 . S
O147 Cd144 2.333 . S
O147 C149 1.214 . S
O148 Cd144 2.352 . S
O148 C151 1.258 . S
C149 O146 1.320 . S
C149 O147 1.214 . S
O150 Cd142 2.277 . S
O150 C145 1.209 . S
C151 O148 1.258 . S
C151 O153 1.282 . S
O152 Cd144 2.277 . S
O152 C145 1.226 . S
O153 Cd144 2.356 . S
O153 C151 1.282 . S
C154 O155 1.306 . S
C154 O157 1.160 . S
O155 C154 1.306 . S
O155 Cd156 2.228 1_455 S
Cd156 O155 2.228 1_655 S
Cd156 O160 2.273 . S
Cd156 O164 2.277 . S
O157 C154 1.160 . S
O157 Cd158 2.203 1_455 S
Cd158 O157 2.203 1_655 S
Cd158 O160 2.411 . S
Cd158 O161 2.333 . S
Cd158 O162 2.352 . S
Cd158 O166 2.277 . S
Cd158 O167 2.356 . S
C159 O164 1.209 . S
C159 O166 1.226 . S
O160 Cd156 2.273 . S
O160 Cd158 2.411 . S
O160 C163 1.320 . S
O161 Cd158 2.333 . S
O161 C163 1.214 . S
O162 Cd158 2.352 . S
O162 C165 1.258 . S
C163 O160 1.320 . S
C163 O161 1.214 . S
O164 Cd156 2.277 . S
O164 C159 1.209 . S
C165 O162 1.258 . S
C165 O167 1.282 . S
O166 Cd158 2.277 . S
O166 C159 1.226 . S
O167 Cd158 2.356 . S
O167 C165 1.282 . S
C168 O169 1.306 . S
C168 O171 1.160 . S
O169 C168 1.306 . S
O169 Cd170 2.228 . S
Cd170 O169 2.228 . S
Cd170 O174 2.273 . S
Cd170 O178 2.277 . S
O171 C168 1.160 . S
O171 Cd172 2.203 . S
Cd172 O171 2.203 . S
Cd172 O174 2.411 . S
Cd172 O175 2.333 . S
Cd172 O176 2.352 . S
Cd172 O180 2.277 . S
Cd172 O181 2.356 . S
C173 O178 1.209 . S
C173 O180 1.226 . S
O174 Cd170 2.273 . S
O174 Cd172 2.411 . S
O174 C177 1.320 . S
O175 Cd172 2.333 . S
O175 C177 1.214 . S
O176 Cd172 2.352 . S
O176 C179 1.258 . S
C177 O174 1.320 . S
C177 O175 1.214 . S
O178 Cd170 2.277 . S
O178 C173 1.209 . S
C179 O176 1.258 . S
C179 O181 1.282 . S
O180 Cd172 2.277 . S
O180 C173 1.226 . S
O181 Cd172 2.356 . S
O181 C179 1.282 . S
C182 O183 1.306 . S
C182 O185 1.160 . S
O183 C182 1.306 . S
O183 Cd184 2.228 . S
Cd184 O183 2.228 . S
Cd184 O188 2.273 . S
Cd184 O192 2.277 . S
O185 C182 1.160 . S
O185 Cd186 2.203 . S
Cd186 O185 2.203 . S
Cd186 O188 2.411 . S
Cd186 O189 2.333 . S
Cd186 O190 2.352 . S
Cd186 O194 2.277 . S
Cd186 O195 2.356 . S
C187 O192 1.209 . S
C187 O194 1.226 . S
O188 Cd184 2.273 . S
O188 Cd186 2.411 . S
O188 C191 1.320 . S
O189 Cd186 2.333 . S
O189 C191 1.214 . S
O190 Cd186 2.352 . S
O190 C193 1.258 . S
C191 O188 1.320 . S
C191 O189 1.214 . S
O192 Cd184 2.277 . S
O192 C187 1.209 . S
C193 O190 1.258 . S
C193 O195 1.282 . S
O194 Cd186 2.277 . S
O194 C187 1.226 . S
O195 Cd186 2.356 . S
O195 C193 1.282 . S
C196 O197 1.306 . S
C196 O199 1.160 . S
O197 C196 1.306 . S
O197 Cd198 2.228 . S
Cd198 O197 2.228 . S
Cd198 O202 2.273 . S
Cd198 O206 2.277 . S
O199 C196 1.160 . S
O199 Cd200 2.203 . S
Cd200 O199 2.203 . S
Cd200 O202 2.411 . S
Cd200 O203 2.333 . S
Cd200 O204 2.352 . S
Cd200 O208 2.277 . S
Cd200 O209 2.356 . S
C201 O206 1.209 . S
C201 O208 1.226 . S
O202 Cd198 2.273 . S
O202 Cd200 2.411 . S
O202 C205 1.320 . S
O203 Cd200 2.333 . S
O203 C205 1.214 . S
O204 Cd200 2.352 . S
O204 C207 1.258 . S
C205 O202 1.320 . S
C205 O203 1.214 . S
O206 Cd198 2.277 . S
O206 C201 1.209 . S
C207 O204 1.258 . S
C207 O209 1.282 . S
O208 Cd200 2.277 . S
O208 C201 1.226 . S
O209 Cd200 2.356 . S
O209 C207 1.282 . S
C210 O211 1.306 . S
C210 O213 1.160 . S
O211 C210 1.306 . S
O211 Cd212 2.228 . S
Cd212 O211 2.228 . S
Cd212 O216 2.273 . S
Cd212 O220 2.277 . S
O213 C210 1.160 . S
O213 Cd214 2.203 . S
Cd214 O213 2.203 . S
Cd214 O216 2.411 . S
Cd214 O217 2.333 . S
Cd214 O218 2.352 . S
Cd214 O222 2.277 . S
Cd214 O223 2.356 . S
C215 O220 1.209 . S
C215 O222 1.226 . S
O216 Cd212 2.273 . S
O216 Cd214 2.411 . S
O216 C219 1.320 . S
O217 Cd214 2.333 . S
O217 C219 1.214 . S
O218 Cd214 2.352 . S
O218 C221 1.258 . S
C219 O216 1.320 . S
C219 O217 1.214 . S
O220 Cd212 2.277 . S
O220 C215 1.209 . S
C221 O218 1.258 . S
C221 O223 1.282 . S
O222 Cd214 2.277 . S
O222 C215 1.226 . S
O223 Cd214 2.356 . S
O223 C221 1.282 . S
C224 O225 1.306 . S
C224 O227 1.160 . S
O225 C224 1.306 . S
O225 Cd226 2.228 . S
Cd226 O225 2.228 . S
Cd226 O230 2.273 . S
Cd226 O234 2.277 . S
O227 C224 1.160 . S
O227 Cd228 2.203 . S
Cd228 O227 2.203 . S
Cd228 O230 2.411 . S
Cd228 O231 2.333 . S
Cd228 O232 2.352 . S
Cd228 O236 2.277 . S
Cd228 O237 2.356 . S
C229 O234 1.209 . S
C229 O236 1.226 . S
O230 Cd226 2.273 . S
O230 Cd228 2.411 . S
O230 C233 1.320 . S
O231 Cd228 2.333 . S
O231 C233 1.214 . S
O232 Cd228 2.352 . S
O232 C235 1.258 . S
C233 O230 1.320 . S
C233 O231 1.214 . S
O234 Cd226 2.277 . S
O234 C229 1.209 . S
C235 O232 1.258 . S
C235 O237 1.282 . S
O236 Cd228 2.277 . S
O236 C229 1.226 . S
O237 Cd228 2.356 . S
O237 C235 1.282 . S
C238 O239 1.306 . S
C238 O241 1.160 . S
O239 C238 1.306 . S
O239 Cd240 2.228 . S
Cd240 O239 2.228 . S
Cd240 O244 2.273 . S
Cd240 O248 2.277 . S
O241 C238 1.160 . S
O241 Cd242 2.203 . S
Cd242 O241 2.203 . S
Cd242 O244 2.411 . S
Cd242 O245 2.333 . S
Cd242 O246 2.352 . S
Cd242 O250 2.277 . S
Cd242 O251 2.356 . S
C243 O248 1.209 . S
C243 O250 1.226 . S
O244 Cd240 2.273 . S
O244 Cd242 2.411 . S
O244 C247 1.320 . S
O245 Cd242 2.333 . S
O245 C247 1.214 . S
O246 Cd242 2.352 . S
O246 C249 1.258 . S
C247 O244 1.320 . S
C247 O245 1.214 . S
O248 Cd240 2.277 . S
O248 C243 1.209 . S
C249 O246 1.258 . S
C249 O251 1.282 . S
O250 Cd242 2.277 . S
O250 C243 1.226 . S
O251 Cd242 2.356 . S
O251 C249 1.282 . S
C252 O253 1.306 . S
C252 O255 1.160 . S
O253 C252 1.306 . S
O253 Cd254 2.228 . S
Cd254 O253 2.228 . S
Cd254 O258 2.273 . S
Cd254 O262 2.277 . S
O255 C252 1.160 . S
O255 Cd256 2.203 . S
Cd256 O255 2.203 . S
Cd256 O258 2.411 . S
Cd256 O259 2.333 . S
Cd256 O260 2.352 . S
Cd256 O264 2.277 . S
Cd256 O265 2.356 . S
C257 O262 1.209 . S
C257 O264 1.226 . S
O258 Cd254 2.273 . S
O258 Cd256 2.411 . S
O258 C261 1.320 . S
O259 Cd256 2.333 . S
O259 C261 1.214 . S
O260 Cd256 2.352 . S
O260 C263 1.258 . S
C261 O258 1.320 . S
C261 O259 1.214 . S
O262 Cd254 2.277 . S
O262 C257 1.209 . S
C263 O260 1.258 . S
C263 O265 1.282 . S
O264 Cd256 2.277 . S
O264 C257 1.226 . S
O265 Cd256 2.356 . S
O265 C263 1.282 . S
C266 O267 1.306 . S
C266 O269 1.160 . S
O267 C266 1.306 . S
O267 Cd268 2.228 . S
Cd268 O267 2.228 . S
Cd268 O272 2.273 . S
Cd268 O276 2.277 . S
O269 C266 1.160 . S
O269 Cd270 2.203 . S
Cd270 O269 2.203 . S
Cd270 O272 2.411 . S
Cd270 O273 2.333 . S
Cd270 O274 2.352 . S
Cd270 O278 2.277 . S
Cd270 O279 2.356 . S
C271 O276 1.209 . S
C271 O278 1.226 . S
O272 Cd268 2.273 . S
O272 Cd270 2.411 . S
O272 C275 1.320 . S
O273 Cd270 2.333 . S
O273 C275 1.214 . S
O274 Cd270 2.352 . S
O274 C277 1.258 . S
C275 O272 1.320 . S
C275 O273 1.214 . S
O276 Cd268 2.277 . S
O276 C271 1.209 . S
C277 O274 1.258 . S
C277 O279 1.282 . S
O278 Cd270 2.277 . S
O278 C271 1.226 . S
O279 Cd270 2.356 . S
O279 C277 1.282 . S
C280 O281 1.306 . S
C280 O283 1.160 . S
O281 C280 1.306 . S
O281 Cd282 2.228 . S
Cd282 O281 2.228 . S
Cd282 O286 2.273 . S
Cd282 O290 2.277 . S
O283 C280 1.160 . S
O283 Cd284 2.203 . S
Cd284 O283 2.203 . S
Cd284 O286 2.411 . S
Cd284 O287 2.333 . S
Cd284 O288 2.352 . S
Cd284 O292 2.277 . S
Cd284 O293 2.356 . S
C285 O290 1.209 . S
C285 O292 1.226 . S
O286 Cd282 2.273 . S
O286 Cd284 2.411 . S
O286 C289 1.320 . S
O287 Cd284 2.333 . S
O287 C289 1.214 . S
O288 Cd284 2.352 . S
O288 C291 1.258 . S
C289 O286 1.320 . S
C289 O287 1.214 . S
O290 Cd282 2.277 . S
O290 C285 1.209 . S
C291 O288 1.258 . S
C291 O293 1.282 . S
O292 Cd284 2.277 . S
O292 C285 1.226 . S
O293 Cd284 2.356 . S
O293 C291 1.282 . S
C294 O295 1.306 . S
C294 O297 1.160 . S
O295 C294 1.306 . S
O295 Cd296 2.228 . S
Cd296 O295 2.228 . S
Cd296 O300 2.273 . S
Cd296 O304 2.277 . S
O297 C294 1.160 . S
O297 Cd298 2.203 . S
Cd298 O297 2.203 . S
Cd298 O300 2.411 . S
Cd298 O301 2.333 . S
Cd298 O302 2.352 . S
Cd298 O306 2.277 . S
Cd298 O307 2.356 . S
C299 O304 1.209 . S
C299 O306 1.226 . S
O300 Cd296 2.273 . S
O300 Cd298 2.411 . S
O300 C303 1.320 . S
O301 Cd298 2.333 . S
O301 C303 1.214 . S
O302 Cd298 2.352 . S
O302 C305 1.258 . S
C303 O300 1.320 . S
C303 O301 1.214 . S
O304 Cd296 2.277 . S
O304 C299 1.209 . S
C305 O302 1.258 . S
C305 O307 1.282 . S
O306 Cd298 2.277 . S
O306 C299 1.226 . S
O307 Cd298 2.356 . S
O307 C305 1.282 . S
C308 O309 1.306 . S
C308 O311 1.160 . S
O309 C308 1.306 . S
O309 Cd310 2.228 . S
Cd310 O309 2.228 . S
Cd310 O314 2.273 . S
Cd310 O318 2.277 . S
O311 C308 1.160 . S
O311 Cd312 2.203 . S
Cd312 O311 2.203 . S
Cd312 O314 2.411 . S
Cd312 O315 2.333 . S
Cd312 O316 2.352 . S
Cd312 O320 2.277 . S
Cd312 O321 2.356 . S
C313 O318 1.209 . S
C313 O320 1.226 . S
O314 Cd310 2.273 . S
O314 Cd312 2.411 . S
O314 C317 1.320 . S
O315 Cd312 2.333 . S
O315 C317 1.214 . S
O316 Cd312 2.352 . S
O316 C319 1.258 . S
C317 O314 1.320 . S
C317 O315 1.214 . S
O318 Cd310 2.277 . S
O318 C313 1.209 . S
C319 O316 1.258 . S
C319 O321 1.282 . S
O320 Cd312 2.277 . S
O320 C313 1.226 . S
O321 Cd312 2.356 . S
O321 C319 1.282 . S
C322 O323 1.306 . S
C322 O325 1.160 . S
O323 C322 1.306 . S
O323 Cd324 2.228 . S
Cd324 O323 2.228 . S
Cd324 O328 2.273 . S
Cd324 O332 2.277 . S
O325 C322 1.160 . S
O325 Cd326 2.203 . S
Cd326 O325 2.203 . S
Cd326 O328 2.411 . S
Cd326 O329 2.333 . S
Cd326 O330 2.352 . S
Cd326 O334 2.277 . S
Cd326 O335 2.356 . S
C327 O332 1.209 . S
C327 O334 1.226 . S
O328 Cd324 2.273 . S
O328 Cd326 2.411 . S
O328 C331 1.320 . S
O329 Cd326 2.333 . S
O329 C331 1.214 . S
O330 Cd326 2.352 . S
O330 C333 1.258 . S
C331 O328 1.320 . S
C331 O329 1.214 . S
O332 Cd324 2.277 . S
O332 C327 1.209 . S
C333 O330 1.258 . S
C333 O335 1.282 . S
O334 Cd326 2.277 . S
O334 C327 1.226 . S
O335 Cd326 2.356 . S
O335 C333 1.282 . S
C336 O337 1.306 . S
C336 O339 1.160 . S
O337 C336 1.306 . S
O337 Cd338 2.228 . S
Cd338 O337 2.228 . S
Cd338 O342 2.273 . S
Cd338 O346 2.277 . S
O339 C336 1.160 . S
O339 Cd340 2.203 . S
Cd340 O339 2.203 . S
Cd340 O342 2.411 . S
Cd340 O343 2.333 . S
Cd340 O344 2.352 . S
Cd340 O348 2.277 . S
Cd340 O349 2.356 . S
C341 O346 1.209 . S
C341 O348 1.226 . S
O342 Cd338 2.273 . S
O342 Cd340 2.411 . S
O342 C345 1.320 . S
O343 Cd340 2.333 . S
O343 C345 1.214 . S
O344 Cd340 2.352 . S
O344 C347 1.258 . S
C345 O342 1.320 . S
C345 O343 1.214 . S
O346 Cd338 2.277 . S
O346 C341 1.209 . S
C347 O344 1.258 . S
C347 O349 1.282 . S
O348 Cd340 2.277 . S
O348 C341 1.226 . S
O349 Cd340 2.356 . S
O349 C347 1.282 . S
C350 O351 1.306 . S
C350 O353 1.160 . S
O351 C350 1.306 . S
O351 Cd352 2.228 . S
Cd352 O351 2.228 . S
Cd352 O356 2.273 . S
Cd352 O360 2.277 . S
O353 C350 1.160 . S
O353 Cd354 2.203 . S
Cd354 O353 2.203 . S
Cd354 O356 2.411 . S
Cd354 O357 2.333 . S
Cd354 O358 2.352 . S
Cd354 O362 2.277 . S
Cd354 O363 2.356 . S
C355 O360 1.209 . S
C355 O362 1.226 . S
O356 Cd352 2.273 . S
O356 Cd354 2.411 . S
O356 C359 1.320 . S
O357 Cd354 2.333 . S
O357 C359 1.214 . S
O358 Cd354 2.352 . S
O358 C361 1.258 . S
C359 O356 1.320 . S
C359 O357 1.214 . S
O360 Cd352 2.277 . S
O360 C355 1.209 . S
C361 O358 1.258 . S
C361 O363 1.282 . S
O362 Cd354 2.277 . S
O362 C355 1.226 . S
O363 Cd354 2.356 . S
O363 C361 1.282 . S
C364 O365 1.306 . S
C364 O367 1.160 . S
O365 C364 1.306 . S
O365 Cd366 2.228 . S
Cd366 O365 2.228 . S
Cd366 O370 2.273 . S
Cd366 O374 2.277 . S
O367 C364 1.160 . S
O367 Cd368 2.203 . S
Cd368 O367 2.203 . S
Cd368 O370 2.411 . S
Cd368 O371 2.333 . S
Cd368 O372 2.352 . S
Cd368 O376 2.277 . S
Cd368 O377 2.356 . S
C369 O374 1.209 . S
C369 O376 1.226 . S
O370 Cd366 2.273 . S
O370 Cd368 2.411 . S
O370 C373 1.320 . S
O371 Cd368 2.333 . S
O371 C373 1.214 . S
O372 Cd368 2.352 . S
O372 C375 1.258 . S
C373 O370 1.320 . S
C373 O371 1.214 . S
O374 Cd366 2.277 . S
O374 C369 1.209 . S
C375 O372 1.258 . S
C375 O377 1.282 . S
O376 Cd368 2.277 . S
O376 C369 1.226 . S
O377 Cd368 2.356 . S
O377 C375 1.282 . S
C378 O379 1.306 . S
C378 O381 1.160 . S
O379 C378 1.306 . S
O379 Cd380 2.228 . S
Cd380 O379 2.228 . S
Cd380 O384 2.273 . S
Cd380 O388 2.277 . S
O381 C378 1.160 . S
O381 Cd382 2.203 . S
Cd382 O381 2.203 . S
Cd382 O384 2.411 . S
Cd382 O385 2.333 . S
Cd382 O386 2.352 . S
Cd382 O390 2.277 . S
Cd382 O391 2.356 . S
C383 O388 1.209 . S
C383 O390 1.226 . S
O384 Cd380 2.273 . S
O384 Cd382 2.411 . S
O384 C387 1.320 . S
O385 Cd382 2.333 . S
O385 C387 1.214 . S
O386 Cd382 2.352 . S
O386 C389 1.258 . S
C387 O384 1.320 . S
C387 O385 1.214 . S
O388 Cd380 2.277 . S
O388 C383 1.209 . S
C389 O386 1.258 . S
C389 O391 1.282 . S
O390 Cd382 2.277 . S
O390 C383 1.226 . S
O391 Cd382 2.356 . S
O391 C389 1.282 . S
C392 O393 1.306 . S
C392 O395 1.160 . S
O393 C392 1.306 . S
O393 Cd394 2.228 . S
Cd394 O393 2.228 . S
Cd394 O398 2.273 . S
Cd394 O402 2.277 . S
O395 C392 1.160 . S
O395 Cd396 2.203 . S
Cd396 O395 2.203 . S
Cd396 O398 2.411 . S
Cd396 O399 2.333 . S
Cd396 O400 2.352 . S
Cd396 O404 2.277 . S
Cd396 O405 2.356 . S
C397 O402 1.209 . S
C397 O404 1.226 . S
O398 Cd394 2.273 . S
O398 Cd396 2.411 . S
O398 C401 1.320 . S
O399 Cd396 2.333 . S
O399 C401 1.214 . S
O400 Cd396 2.352 . S
O400 C403 1.258 . S
C401 O398 1.320 . S
C401 O399 1.214 . S
O402 Cd394 2.277 . S
O402 C397 1.209 . S
C403 O400 1.258 . S
C403 O405 1.282 . S
O404 Cd396 2.277 . S
O404 C397 1.226 . S
O405 Cd396 2.356 . S
O405 C403 1.282 . S
C406 O407 1.306 . S
C406 O409 1.160 . S
O407 C406 1.306 . S
O407 Cd408 2.228 . S
Cd408 O407 2.228 . S
Cd408 O412 2.273 . S
Cd408 O416 2.277 . S
O409 C406 1.160 . S
O409 Cd410 2.203 . S
Cd410 O409 2.203 . S
Cd410 O412 2.411 . S
Cd410 O413 2.333 . S
Cd410 O414 2.352 . S
Cd410 O418 2.277 . S
Cd410 O419 2.356 . S
C411 O416 1.209 . S
C411 O418 1.226 . S
O412 Cd408 2.273 . S
O412 Cd410 2.411 . S
O412 C415 1.320 . S
O413 Cd410 2.333 . S
O413 C415 1.214 . S
O414 Cd410 2.352 . S
O414 C417 1.258 . S
C415 O412 1.320 . S
C415 O413 1.214 . S
O416 Cd408 2.277 . S
O416 C411 1.209 . S
C417 O414 1.258 . S
C417 O419 1.282 . S
O418 Cd410 2.277 . S
O418 C411 1.226 . S
O419 Cd410 2.356 . S
O419 C417 1.282 . S
C420 O421 1.306 . S
C420 O423 1.160 . S
O421 C420 1.306 . S
O421 Cd422 2.228 . S
Cd422 O421 2.228 . S
Cd422 O426 2.273 . S
Cd422 O430 2.277 . S
O423 C420 1.160 . S
O423 Cd424 2.203 . S
Cd424 O423 2.203 . S
Cd424 O426 2.411 . S
Cd424 O427 2.333 . S
Cd424 O428 2.352 . S
Cd424 O432 2.277 . S
Cd424 O433 2.356 . S
C425 O430 1.209 . S
C425 O432 1.226 . S
O426 Cd422 2.273 . S
O426 Cd424 2.411 . S
O426 C429 1.320 . S
O427 Cd424 2.333 . S
O427 C429 1.214 . S
O428 Cd424 2.352 . S
O428 C431 1.258 . S
C429 O426 1.320 . S
C429 O427 1.214 . S
O430 Cd422 2.277 . S
O430 C425 1.209 . S
C431 O428 1.258 . S
C431 O433 1.282 . S
O432 Cd424 2.277 . S
O432 C425 1.226 . S
O433 Cd424 2.356 . S
O433 C431 1.282 . S
C434 O435 1.306 . S
C434 O437 1.160 . S
O435 C434 1.306 . S
O435 Cd436 2.228 . S
Cd436 O435 2.228 . S
Cd436 O440 2.273 . S
Cd436 O444 2.277 . S
O437 C434 1.160 . S
O437 Cd438 2.203 . S
Cd438 O437 2.203 . S
Cd438 O440 2.411 . S
Cd438 O441 2.333 . S
Cd438 O442 2.352 . S
Cd438 O446 2.277 . S
Cd438 O447 2.356 . S
C439 O444 1.209 . S
C439 O446 1.226 . S
O440 Cd436 2.273 . S
O440 Cd438 2.411 . S
O440 C443 1.320 . S
O441 Cd438 2.333 . S
O441 C443 1.214 . S
O442 Cd438 2.352 . S
O442 C445 1.258 . S
C443 O440 1.320 . S
C443 O441 1.214 . S
O444 Cd436 2.277 . S
O444 C439 1.209 . S
C445 O442 1.258 . S
C445 O447 1.282 . S
O446 Cd438 2.277 . S
O446 C439 1.226 . S
O447 Cd438 2.356 . S
O447 C445 1.282 . S
C448 O449 1.306 . S
C448 O451 1.160 . S
O449 C448 1.306 . S
O449 Cd450 2.228 . S
Cd450 O449 2.228 . S
Cd450 O454 2.273 . S
Cd450 O458 2.277 . S
O451 C448 1.160 . S
O451 Cd452 2.203 . S
Cd452 O451 2.203 . S
Cd452 O454 2.411 . S
Cd452 O455 2.333 . S
Cd452 O456 2.352 . S
Cd452 O460 2.277 . S
Cd452 O461 2.356 . S
C453 O458 1.209 . S
C453 O460 1.226 . S
O454 Cd450 2.273 . S
O454 Cd452 2.411 . S
O454 C457 1.320 . S
O455 Cd452 2.333 . S
O455 C457 1.214 . S
O456 Cd452 2.352 . S
O456 C459 1.258 . S
C457 O454 1.320 . S
C457 O455 1.214 . S
O458 Cd450 2.277 . S
O458 C453 1.209 . S
C459 O456 1.258 . S
C459 O461 1.282 . S
O460 Cd452 2.277 . S
O460 C453 1.226 . S
O461 Cd452 2.356 . S
O461 C459 1.282 . S
C462 O463 1.306 . S
C462 O465 1.160 . S
O463 C462 1.306 . S
O463 Cd464 2.228 . S
Cd464 O463 2.228 . S
Cd464 O468 2.273 . S
Cd464 O472 2.277 . S
O465 C462 1.160 . S
O465 Cd466 2.203 . S
Cd466 O465 2.203 . S
Cd466 O468 2.411 . S
Cd466 O469 2.333 . S
Cd466 O470 2.352 . S
Cd466 O474 2.277 . S
Cd466 O475 2.356 . S
C467 O472 1.209 . S
C467 O474 1.226 . S
O468 Cd464 2.273 . S
O468 Cd466 2.411 . S
O468 C471 1.320 . S
O469 Cd466 2.333 . S
O469 C471 1.214 . S
O470 Cd466 2.352 . S
O470 C473 1.258 . S
C471 O468 1.320 . S
C471 O469 1.214 . S
O472 Cd464 2.277 . S
O472 C467 1.209 . S
C473 O470 1.258 . S
C473 O475 1.282 . S
O474 Cd466 2.277 . S
O474 C467 1.226 . S
O475 Cd466 2.356 . S
O475 C473 1.282 . S
C476 O477 1.306 . S
C476 O479 1.160 . S
O477 C476 1.306 . S
O477 Cd478 2.228 . S
Cd478 O477 2.228 . S
Cd478 O482 2.273 . S
Cd478 O486 2.277 . S
O479 C476 1.160 . S
O479 Cd480 2.203 . S
Cd480 O479 2.203 . S
Cd480 O482 2.411 . S
Cd480 O483 2.333 . S
Cd480 O484 2.352 . S
Cd480 O488 2.277 . S
Cd480 O489 2.356 . S
C481 O486 1.209 . S
C481 O488 1.226 . S
O482 Cd478 2.273 . S
O482 Cd480 2.411 . S
O482 C485 1.320 . S
O483 Cd480 2.333 . S
O483 C485 1.214 . S
O484 Cd480 2.352 . S
O484 C487 1.258 . S
C485 O482 1.320 . S
C485 O483 1.214 . S
O486 Cd478 2.277 . S
O486 C481 1.209 . S
C487 O484 1.258 . S
C487 O489 1.282 . S
O488 Cd480 2.277 . S
O488 C481 1.226 . S
O489 Cd480 2.356 . S
O489 C487 1.282 . S
C490 O491 1.306 . S
C490 O493 1.160 . S
O491 C490 1.306 . S
O491 Cd492 2.228 . S
Cd492 O491 2.228 . S
Cd492 O496 2.273 . S
Cd492 O500 2.277 . S
O493 C490 1.160 . S
O493 Cd494 2.203 . S
Cd494 O493 2.203 . S
Cd494 O496 2.411 . S
Cd494 O497 2.333 . S
Cd494 O498 2.352 . S
Cd494 O502 2.277 . S
Cd494 O503 2.356 . S
C495 O500 1.209 . S
C495 O502 1.226 . S
O496 Cd492 2.273 . S
O496 Cd494 2.411 . S
O496 C499 1.320 . S
O497 Cd494 2.333 . S
O497 C499 1.214 . S
O498 Cd494 2.352 . S
O498 C501 1.258 . S
C499 O496 1.320 . S
C499 O497 1.214 . S
O500 Cd492 2.277 . S
O500 C495 1.209 . S
C501 O498 1.258 . S
C501 O503 1.282 . S
O502 Cd494 2.277 . S
O502 C495 1.226 . S
O503 Cd494 2.356 . S
O503 C501 1.282 . S
H504 C516 0.930 . S
H505 C518 0.930 . S
H506 C519 0.930 . S
H507 C523 0.959 . S
H508 C523 0.959 . S
H509 C523 0.961 . S
H510 C524 0.960 . S
H511 C524 0.961 . S
H512 C524 0.959 . S
H513 C527 0.929 . S
H514 C528 0.931 . S
H515 C530 0.930 . S
C516 H504 0.930 . S
C516 C517 1.399 . S
C516 C521 1.399 . S
C517 C516 1.399 . S
C517 C518 1.376 . S
C518 H505 0.930 . S
C518 C517 1.376 . S
C518 C519 1.388 . S
C519 H506 0.930 . S
C519 C518 1.388 . S
C519 C520 1.390 . S
C520 C519 1.390 . S
C520 C521 1.394 . S
C520 C526 1.465 . S
C521 C516 1.399 . S
C521 C520 1.394 . S
C521 C522 1.516 . S
C522 C521 1.516 . S
C522 C523 1.502 . S
C522 C524 1.561 . S
C522 C525 1.526 . S
C523 H507 0.959 . S
C523 H508 0.959 . S
C523 H509 0.961 . S
C523 C522 1.502 . S
C524 H510 0.960 . S
C524 H511 0.961 . S
C524 H512 0.959 . S
C524 C522 1.561 . S
C525 C522 1.526 . S
C525 C526 1.396 . S
C525 C530 1.390 . S
C526 C520 1.465 . S
C526 C525 1.396 . S
C526 C527 1.399 . S
C527 H513 0.929 . S
C527 C526 1.399 . S
C527 C528 1.385 . S
C528 H514 0.931 . S
C528 C527 1.385 . S
C528 C529 1.389 . S
C529 C528 1.389 . S
C529 C530 1.387 . S
C530 H515 0.930 . S
C530 C525 1.390 . S
C530 C529 1.387 . S
H531 C543 0.930 . S
H532 C545 0.930 . S
H533 C546 0.930 . S
H534 C550 0.959 . S
H535 C550 0.918 1_565 S
H536 C550 0.961 . S
H537 C551 0.960 . S
H538 C551 0.961 . S
H539 C551 0.959 . S
H540 C554 0.929 . S
H541 C555 0.931 . S
H542 C557 0.930 . S
C543 H531 0.930 . S
C543 C544 1.399 . S
C543 C548 1.399 . S
C544 C543 1.399 . S
C544 C545 1.376 . S
C545 H532 0.930 . S
C545 C544 1.376 . S
C545 C546 1.388 . S
C546 H533 0.930 . S
C546 C545 1.388 . S
C546 C547 1.390 . S
C547 C546 1.390 . S
C547 C548 1.394 . S
C547 C553 1.465 . S
C548 C543 1.399 . S
C548 C547 1.394 . S
C548 C549 1.516 . S
C549 C548 1.516 . S
C549 C550 1.502 . S
C549 C551 1.561 . S
C549 C552 1.526 . S
C550 H534 0.959 . S
C550 H535 0.918 1_545 S
C550 H536 0.961 . S
C550 C549 1.502 . S
C551 H537 0.960 . S
C551 H538 0.961 . S
C551 H539 0.959 . S
C551 C549 1.561 . S
C552 C549 1.526 . S
C552 C553 1.396 . S
C552 C557 1.390 . S
C553 C547 1.465 . S
C553 C552 1.396 . S
C553 C554 1.399 . S
C554 H540 0.929 . S
C554 C553 1.399 . S
C554 C555 1.385 . S
C555 H541 0.931 . S
C555 C554 1.385 . S
C555 C556 1.389 . S
C556 C555 1.389 . S
C556 C557 1.387 . S
C557 H542 0.930 . S
C557 C552 1.390 . S
C557 C556 1.387 . S
H558 C570 0.930 . S
H559 C572 0.930 1_554 S
H560 C573 0.930 . S
H561 C577 0.959 . S
H562 C577 0.959 . S
H563 C577 0.961 . S
H564 C578 0.960 . S
H565 C578 0.961 . S
H566 C578 0.959 . S
H567 C581 0.929 . S
H568 C582 0.931 . S
H569 C584 0.930 . S
C570 H558 0.930 . S
C570 C571 1.399 . S
C570 C575 1.399 . S
C571 C570 1.399 . S
C571 C572 1.376 . S
C572 H559 0.930 1_556 S
C572 C571 1.376 . S
C572 C573 1.388 . S
C573 H560 0.930 . S
C573 C572 1.388 . S
C573 C574 1.390 . S
C574 C573 1.390 . S
C574 C575 1.394 . S
C574 C580 1.465 . S
C575 C570 1.399 . S
C575 C574 1.394 . S
C575 C576 1.516 . S
C576 C575 1.516 . S
C576 C577 1.502 . S
C576 C578 1.561 . S
C576 C579 1.526 . S
C577 H561 0.959 . S
C577 H562 0.959 . S
C577 H563 0.961 . S
C577 C576 1.502 . S
C578 H564 0.960 . S
C578 H565 0.961 . S
C578 H566 0.959 . S
C578 C576 1.561 . S
C579 C576 1.526 . S
C579 C580 1.396 . S
C579 C584 1.390 . S
C580 C574 1.465 . S
C580 C579 1.396 . S
C580 C581 1.399 . S
C581 H567 0.929 . S
C581 C580 1.399 . S
C581 C582 1.385 . S
C582 H568 0.931 . S
C582 C581 1.385 . S
C582 C583 1.389 . S
C583 C582 1.389 . S
C583 C584 1.387 . S
C584 H569 0.930 . S
C584 C579 1.390 . S
C584 C583 1.387 . S
H585 C597 0.930 . S
H586 C599 0.930 . S
H587 C600 0.930 . S
H588 C604 0.959 . S
H589 C604 0.959 . S
H590 C604 0.961 . S
H591 C605 0.960 . S
H592 C605 0.961 . S
H593 C605 0.959 . S
H594 C608 0.929 . S
H595 C609 0.931 . S
H596 C611 0.930 . S
C597 H585 0.930 . S
C597 C598 1.399 . S
C597 C602 1.399 . S
C598 C597 1.399 . S
C598 C599 1.376 . S
C599 H586 0.930 . S
C599 C598 1.376 . S
C599 C600 1.388 . S
C600 H587 0.930 . S
C600 C599 1.388 . S
C600 C601 1.390 . S
C601 C600 1.390 . S
C601 C602 1.394 . S
C601 C607 1.465 . S
C602 C597 1.399 . S
C602 C601 1.394 . S
C602 C603 1.516 . S
C603 C602 1.516 . S
C603 C604 1.502 . S
C603 C605 1.561 . S
C603 C606 1.526 . S
C604 H588 0.959 . S
C604 H589 0.959 . S
C604 H590 0.961 . S
C604 C603 1.502 . S
C605 H591 0.960 . S
C605 H592 0.961 . S
C605 H593 0.959 . S
C605 C603 1.561 . S
C606 C603 1.526 . S
C606 C607 1.396 . S
C606 C611 1.390 . S
C607 C601 1.465 . S
C607 C606 1.396 . S
C607 C608 1.399 . S
C608 H594 0.929 . S
C608 C607 1.399 . S
C608 C609 1.385 . S
C609 H595 0.931 . S
C609 C608 1.385 . S
C609 C610 1.389 . S
C610 C609 1.389 . S
C610 C611 1.387 . S
C611 H596 0.930 . S
C611 C606 1.390 . S
C611 C610 1.387 . S
H612 C624 0.930 . S
H613 C626 0.930 . S
H614 C627 0.930 . S
H615 C631 0.959 . S
H616 C631 0.959 . S
H617 C631 0.961 . S
H618 C632 0.960 . S
H619 C632 0.961 . S
H620 C632 0.959 . S
H621 C635 0.929 . S
H622 C636 0.931 . S
H623 C638 0.930 . S
C624 H612 0.930 . S
C624 C625 1.399 . S
C624 C629 1.399 . S
C625 C624 1.399 . S
C625 C626 1.376 . S
C626 H613 0.930 . S
C626 C625 1.376 . S
C626 C627 1.388 . S
C627 H614 0.930 . S
C627 C626 1.388 . S
C627 C628 1.390 . S
C628 C627 1.390 . S
C628 C629 1.394 . S
C628 C634 1.465 . S
C629 C624 1.399 . S
C629 C628 1.394 . S
C629 C630 1.516 . S
C630 C629 1.516 . S
C630 C631 1.502 . S
C630 C632 1.561 . S
C630 C633 1.526 . S
C631 H615 0.959 . S
C631 H616 0.959 . S
C631 H617 0.961 . S
C631 C630 1.502 . S
C632 H618 0.960 . S
C632 H619 0.961 . S
C632 H620 0.959 . S
C632 C630 1.561 . S
C633 C630 1.526 . S
C633 C634 1.396 . S
C633 C638 1.390 . S
C634 C628 1.465 . S
C634 C633 1.396 . S
C634 C635 1.399 . S
C635 H621 0.929 . S
C635 C634 1.399 . S
C635 C636 1.385 . S
C636 H622 0.931 . S
C636 C635 1.385 . S
C636 C637 1.389 . S
C637 C636 1.389 . S
C637 C638 1.387 . S
C638 H623 0.930 . S
C638 C633 1.390 . S
C638 C637 1.387 . S
H639 C651 0.930 . S
H640 C653 0.930 . S
H641 C654 0.930 . S
H642 C658 0.959 . S
H643 C658 0.959 . S
H644 C658 0.935 1_655 S
H645 C659 0.960 . S
H646 C659 0.961 . S
H647 C659 0.959 . S
H648 C662 0.929 . S
H649 C663 0.931 . S
H650 C665 0.930 . S
C651 H639 0.930 . S
C651 C652 1.399 . S
C651 C656 1.399 . S
C652 C651 1.399 . S
C652 C653 1.376 . S
C653 H640 0.930 . S
C653 C652 1.376 . S
C653 C654 1.388 . S
C654 H641 0.930 . S
C654 C653 1.388 . S
C654 C655 1.390 . S
C655 C654 1.390 . S
C655 C656 1.394 . S
C655 C661 1.465 . S
C656 C651 1.399 . S
C656 C655 1.394 . S
C656 C657 1.516 . S
C657 C656 1.516 . S
C657 C658 1.502 . S
C657 C659 1.561 . S
C657 C660 1.526 . S
C658 H642 0.959 . S
C658 H643 0.959 . S
C658 H644 0.935 1_455 S
C658 C657 1.502 . S
C659 H645 0.960 . S
C659 H646 0.961 . S
C659 H647 0.959 . S
C659 C657 1.561 . S
C660 C657 1.526 . S
C660 C661 1.396 . S
C660 C665 1.390 . S
C661 C655 1.465 . S
C661 C660 1.396 . S
C661 C662 1.399 . S
C662 H648 0.929 . S
C662 C661 1.399 . S
C662 C663 1.385 . S
C663 H649 0.931 . S
C663 C662 1.385 . S
C663 C664 1.389 . S
C664 C663 1.389 . S
C664 C665 1.387 . S
C665 H650 0.930 . S
C665 C660 1.390 . S
C665 C664 1.387 . S
H666 C678 0.930 . S
H667 C680 0.930 . S
H668 C681 0.930 . S
H669 C685 0.959 . S
H670 C685 0.959 . S
H671 C685 0.961 . S
H672 C686 0.960 . S
H673 C686 0.961 . S
H674 C686 0.959 . S
H675 C689 0.929 . S
H676 C690 0.931 1_556 S
H677 C692 0.930 . S
C678 H666 0.930 . S
C678 C679 1.399 . S
C678 C683 1.399 . S
C679 C678 1.399 . S
C679 C680 1.376 . S
C680 H667 0.930 . S
C680 C679 1.376 . S
C680 C681 1.388 . S
C681 H668 0.930 . S
C681 C680 1.388 . S
C681 C682 1.390 . S
C682 C681 1.390 . S
C682 C683 1.394 . S
C682 C688 1.465 . S
C683 C678 1.399 . S
C683 C682 1.394 . S
C683 C684 1.516 . S
C684 C683 1.516 . S
C684 C685 1.502 . S
C684 C686 1.561 . S
C684 C687 1.526 . S
C685 H669 0.959 . S
C685 H670 0.959 . S
C685 H671 0.961 . S
C685 C684 1.502 . S
C686 H672 0.960 . S
C686 H673 0.961 . S
C686 H674 0.959 . S
C686 C684 1.561 . S
C687 C684 1.526 . S
C687 C688 1.396 . S
C687 C692 1.390 . S
C688 C682 1.465 . S
C688 C687 1.396 . S
C688 C689 1.399 . S
C689 H675 0.929 . S
C689 C688 1.399 . S
C689 C690 1.385 . S
C690 H676 0.931 1_554 S
C690 C689 1.385 . S
C690 C691 1.389 . S
C691 C690 1.389 . S
C691 C692 1.387 . S
C692 H677 0.930 . S
C692 C687 1.390 . S
C692 C691 1.387 . S
H693 C705 0.930 . S
H694 C707 0.930 . S
H695 C708 0.930 . S
H696 C712 0.959 . S
H697 C712 0.959 . S
H698 C712 0.961 . S
H699 C713 0.960 . S
H700 C713 0.961 . S
H701 C713 0.959 . S
H702 C716 0.929 . S
H703 C717 0.931 1_545 S
H704 C719 0.930 . S
C705 H693 0.930 . S
C705 C706 1.399 . S
C705 C710 1.399 . S
C706 C705 1.399 . S
C706 C707 1.376 . S
C707 H694 0.930 . S
C707 C706 1.376 . S
C707 C708 1.388 . S
C708 H695 0.930 . S
C708 C707 1.388 . S
C708 C709 1.390 . S
C709 C708 1.390 . S
C709 C710 1.394 . S
C709 C715 1.465 . S
C710 C705 1.399 . S
C710 C709 1.394 . S
C710 C711 1.516 . S
C711 C710 1.516 . S
C711 C712 1.502 . S
C711 C713 1.561 . S
C711 C714 1.526 . S
C712 H696 0.959 . S
C712 H697 0.959 . S
C712 H698 0.961 . S
C712 C711 1.502 . S
C713 H699 0.960 . S
C713 H700 0.961 . S
C713 H701 0.959 . S
C713 C711 1.561 . S
C714 C711 1.526 . S
C714 C715 1.396 . S
C714 C719 1.390 . S
C715 C709 1.465 . S
C715 C714 1.396 . S
C715 C716 1.399 . S
C716 H702 0.929 . S
C716 C715 1.399 . S
C716 C717 1.385 . S
C717 H703 0.931 1_565 S
C717 C716 1.385 . S
C717 C718 1.389 . S
C718 C717 1.389 . S
C718 C719 1.387 . S
C719 H704 0.930 . S
C719 C714 1.390 . S
C719 C718 1.387 . S
H720 C732 0.930 . S
H721 C734 0.930 . S
H722 C735 0.930 . S
H723 C739 0.959 . S
H724 C739 0.959 . S
H725 C739 0.961 . S
H726 C740 0.960 . S
H727 C740 0.961 . S
H728 C740 0.959 . S
H729 C743 0.929 . S
H730 C744 0.931 1_556 S
H731 C746 0.930 . S
C732 H720 0.930 . S
C732 C733 1.399 . S
C732 C737 1.399 . S
C733 C732 1.399 . S
C733 C734 1.376 . S
C734 H721 0.930 . S
C734 C733 1.376 . S
C734 C735 1.388 . S
C735 H722 0.930 . S
C735 C734 1.388 . S
C735 C736 1.390 . S
C736 C735 1.390 . S
C736 C737 1.394 . S
C736 C742 1.465 . S
C737 C732 1.399 . S
C737 C736 1.394 . S
C737 C738 1.516 . S
C738 C737 1.516 . S
C738 C739 1.502 . S
C738 C740 1.561 . S
C738 C741 1.526 . S
C739 H723 0.959 . S
C739 H724 0.959 . S
C739 H725 0.961 . S
C739 C738 1.502 . S
C740 H726 0.960 . S
C740 H727 0.961 . S
C740 H728 0.959 . S
C740 C738 1.561 . S
C741 C738 1.526 . S
C741 C742 1.396 . S
C741 C746 1.390 . S
C742 C736 1.465 . S
C742 C741 1.396 . S
C742 C743 1.399 . S
C743 H729 0.929 . S
C743 C742 1.399 . S
C743 C744 1.385 . S
C744 H730 0.931 1_554 S
C744 C743 1.385 . S
C744 C745 1.389 . S
C745 C744 1.389 . S
C745 C746 1.387 . S
C746 H731 0.930 . S
C746 C741 1.390 . S
C746 C745 1.387 . S
H747 C759 0.930 . S
H748 C761 0.930 . S
H749 C762 0.930 . S
H750 C766 0.959 . S
H751 C766 0.959 . S
H752 C766 0.961 . S
H753 C767 0.960 . S
H754 C767 0.961 . S
H755 C767 0.959 . S
H756 C770 0.929 . S
H757 C771 0.931 . S
H758 C773 0.930 . S
C759 H747 0.930 . S
C759 C760 1.399 . S
C759 C764 1.399 . S
C760 C759 1.399 . S
C760 C761 1.376 . S
C761 H748 0.930 . S
C761 C760 1.376 . S
C761 C762 1.388 . S
C762 H749 0.930 . S
C762 C761 1.388 . S
C762 C763 1.390 . S
C763 C762 1.390 . S
C763 C764 1.394 . S
C763 C769 1.465 . S
C764 C759 1.399 . S
C764 C763 1.394 . S
C764 C765 1.516 . S
C765 C764 1.516 . S
C765 C766 1.502 . S
C765 C767 1.561 . S
C765 C768 1.526 . S
C766 H750 0.959 . S
C766 H751 0.959 . S
C766 H752 0.961 . S
C766 C765 1.502 . S
C767 H753 0.960 . S
C767 H754 0.961 . S
C767 H755 0.959 . S
C767 C765 1.561 . S
C768 C765 1.526 . S
C768 C769 1.396 . S
C768 C773 1.390 . S
C769 C763 1.465 . S
C769 C768 1.396 . S
C769 C770 1.399 . S
C770 H756 0.929 . S
C770 C769 1.399 . S
C770 C771 1.385 . S
C771 H757 0.931 . S
C771 C770 1.385 . S
C771 C772 1.389 . S
C772 C771 1.389 . S
C772 C773 1.387 . S
C773 H758 0.930 . S
C773 C768 1.390 . S
C773 C772 1.387 . S
H774 C786 0.930 . S
H775 C788 0.930 . S
H776 C789 0.930 . S
H777 C793 0.959 . S
H778 C793 0.959 . S
H779 C793 0.961 . S
H780 C794 0.960 . S
H781 C794 0.961 . S
H782 C794 0.959 . S
H783 C797 0.929 . S
H784 C798 0.931 . S
H785 C800 0.930 . S
C786 H774 0.930 . S
C786 C787 1.399 . S
C786 C791 1.399 . S
C787 C786 1.399 . S
C787 C788 1.376 . S
C788 H775 0.930 . S
C788 C787 1.376 . S
C788 C789 1.388 . S
C789 H776 0.930 . S
C789 C788 1.388 . S
C789 C790 1.390 . S
C790 C789 1.390 . S
C790 C791 1.394 . S
C790 C796 1.465 . S
C791 C786 1.399 . S
C791 C790 1.394 . S
C791 C792 1.516 . S
C792 C791 1.516 . S
C792 C793 1.502 . S
C792 C794 1.561 . S
C792 C795 1.526 . S
C793 H777 0.959 . S
C793 H778 0.959 . S
C793 H779 0.961 . S
C793 C792 1.502 . S
C794 H780 0.960 . S
C794 H781 0.961 . S
C794 H782 0.959 . S
C794 C792 1.561 . S
C795 C792 1.526 . S
C795 C796 1.396 . S
C795 C800 1.390 . S
C796 C790 1.465 . S
C796 C795 1.396 . S
C796 C797 1.399 . S
C797 H783 0.929 . S
C797 C796 1.399 . S
C797 C798 1.385 . S
C798 H784 0.931 . S
C798 C797 1.385 . S
C798 C799 1.389 . S
C799 C798 1.389 . S
C799 C800 1.387 . S
C800 H785 0.930 . S
C800 C795 1.390 . S
C800 C799 1.387 . S
H801 C813 0.930 . S
H802 C815 0.930 . S
H803 C816 0.930 . S
H804 C820 0.959 . S
H805 C820 0.959 . S
H806 C820 0.961 . S
H807 C821 0.960 . S
H808 C821 0.920 1_455 S
H809 C821 0.959 . S
H810 C824 0.929 . S
H811 C825 0.931 . S
H812 C827 0.930 . S
C813 H801 0.930 . S
C813 C814 1.399 . S
C813 C818 1.399 . S
C814 C813 1.399 . S
C814 C815 1.376 . S
C815 H802 0.930 . S
C815 C814 1.376 . S
C815 C816 1.388 . S
C816 H803 0.930 . S
C816 C815 1.388 . S
C816 C817 1.390 . S
C817 C816 1.390 . S
C817 C818 1.394 . S
C817 C823 1.465 . S
C818 C813 1.399 . S
C818 C817 1.394 . S
C818 C819 1.516 . S
C819 C818 1.516 . S
C819 C820 1.502 . S
C819 C821 1.561 . S
C819 C822 1.526 . S
C820 H804 0.959 . S
C820 H805 0.959 . S
C820 H806 0.961 . S
C820 C819 1.502 . S
C821 H807 0.960 . S
C821 H808 0.920 1_655 S
C821 H809 0.959 . S
C821 C819 1.561 . S
C822 C819 1.526 . S
C822 C823 1.396 . S
C822 C827 1.390 . S
C823 C817 1.465 . S
C823 C822 1.396 . S
C823 C824 1.399 . S
C824 H810 0.929 . S
C824 C823 1.399 . S
C824 C825 1.385 . S
C825 H811 0.931 . S
C825 C824 1.385 . S
C825 C826 1.389 . S
C826 C825 1.389 . S
C826 C827 1.387 . S
C827 H812 0.930 . S
C827 C822 1.390 . S
C827 C826 1.387 . S
H828 C840 0.930 . S
H829 C842 0.930 . S
H830 C843 0.930 . S
H831 C847 0.959 . S
H832 C847 0.959 . S
H833 C847 0.961 . S
H834 C848 0.960 . S
H835 C848 0.961 . S
H836 C848 0.959 . S
H837 C851 0.929 1_455 S
H838 C852 0.931 . S
H839 C854 0.930 . S
C840 H828 0.930 . S
C840 C841 1.399 . S
C840 C845 1.399 . S
C841 C840 1.399 . S
C841 C842 1.376 . S
C842 H829 0.930 . S
C842 C841 1.376 . S
C842 C843 1.388 . S
C843 H830 0.930 . S
C843 C842 1.388 . S
C843 C844 1.390 . S
C844 C843 1.390 . S
C844 C845 1.394 . S
C844 C850 1.465 1_455 S
C845 C840 1.399 . S
C845 C844 1.394 . S
C845 C846 1.516 1_455 S
C846 C845 1.516 1_655 S
C846 C847 1.502 . S
C846 C848 1.561 . S
C846 C849 1.526 . S
C847 H831 0.959 . S
C847 H832 0.959 . S
C847 H833 0.961 . S
C847 C846 1.502 . S
C848 H834 0.960 . S
C848 H835 0.961 . S
C848 H836 0.959 . S
C848 C846 1.561 . S
C849 C846 1.526 . S
C849 C850 1.396 . S
C849 C854 1.390 . S
C850 C844 1.465 1_655 S
C850 C849 1.396 . S
C850 C851 1.399 . S
C851 H837 0.929 1_655 S
C851 C850 1.399 . S
C851 C852 1.385 . S
C852 H838 0.931 . S
C852 C851 1.385 . S
C852 C853 1.389 . S
C853 C852 1.389 . S
C853 C854 1.387 . S
C854 H839 0.930 . S
C854 C849 1.390 . S
C854 C853 1.387 . S
H855 C867 0.930 . S
H856 C869 0.930 . S
H857 C870 0.930 . S
H858 C874 0.959 . S
H859 C874 0.959 . S
H860 C874 0.961 . S
H861 C875 0.960 . S
H862 C875 0.961 . S
H863 C875 0.959 . S
H864 C878 0.929 . S
H865 C879 0.931 . S
H866 C881 0.930 . S
C867 H855 0.930 . S
C867 C868 1.399 . S
C867 C872 1.399 . S
C868 C867 1.399 . S
C868 C869 1.376 . S
C869 H856 0.930 . S
C869 C868 1.376 . S
C869 C870 1.388 . S
C870 H857 0.930 . S
C870 C869 1.388 . S
C870 C871 1.390 . S
C871 C870 1.390 . S
C871 C872 1.394 . S
C871 C877 1.465 . S
C872 C867 1.399 . S
C872 C871 1.394 . S
C872 C873 1.516 . S
C873 C872 1.516 . S
C873 C874 1.502 . S
C873 C875 1.561 . S
C873 C876 1.526 . S
C874 H858 0.959 . S
C874 H859 0.959 . S
C874 H860 0.961 . S
C874 C873 1.502 . S
C875 H861 0.960 . S
C875 H862 0.961 . S
C875 H863 0.959 . S
C875 C873 1.561 . S
C876 C873 1.526 . S
C876 C877 1.396 . S
C876 C881 1.390 . S
C877 C871 1.465 . S
C877 C876 1.396 . S
C877 C878 1.399 . S
C878 H864 0.929 . S
C878 C877 1.399 . S
C878 C879 1.385 . S
C879 H865 0.931 . S
C879 C878 1.385 . S
C879 C880 1.389 . S
C880 C879 1.389 . S
C880 C881 1.387 . S
C881 H866 0.930 . S
C881 C876 1.390 . S
C881 C880 1.387 . S
H882 C894 0.930 . S
H883 C896 0.930 . S
H884 C897 0.930 1_545 S
H885 C901 0.959 . S
H886 C901 0.959 . S
H887 C901 0.961 . S
H888 C902 0.960 . S
H889 C902 0.961 . S
H890 C902 0.959 . S
H891 C905 0.929 . S
H892 C906 0.931 . S
H893 C908 0.930 . S
C894 H882 0.930 . S
C894 C895 1.399 . S
C894 C899 1.399 . S
C895 C894 1.399 . S
C895 C896 1.376 . S
C896 H883 0.930 . S
C896 C895 1.376 . S
C896 C897 1.388 . S
C897 H884 0.930 1_565 S
C897 C896 1.388 . S
C897 C898 1.390 . S
C898 C897 1.390 . S
C898 C899 1.394 . S
C898 C904 1.465 1_565 S
C899 C894 1.399 . S
C899 C898 1.394 . S
C899 C900 1.516 . S
C900 C899 1.516 . S
C900 C901 1.502 . S
C900 C902 1.561 . S
C900 C903 1.526 1_565 S
C901 H885 0.959 . S
C901 H886 0.959 . S
C901 H887 0.961 . S
C901 C900 1.502 . S
C902 H888 0.960 . S
C902 H889 0.961 . S
C902 H890 0.959 . S
C902 C900 1.561 . S
C903 C900 1.526 1_545 S
C903 C904 1.396 . S
C903 C908 1.390 . S
C904 C898 1.465 1_545 S
C904 C903 1.396 . S
C904 C905 1.399 . S
C905 H891 0.929 . S
C905 C904 1.399 . S
C905 C906 1.385 . S
C906 H892 0.931 . S
C906 C905 1.385 . S
C906 C907 1.389 . S
C907 C906 1.389 . S
C907 C908 1.387 . S
C908 H893 0.930 . S
C908 C903 1.390 . S
C908 C907 1.387 . S
H909 C921 0.930 . S
H910 C923 0.930 . S
H911 C924 0.930 . S
H912 C928 0.959 . S
H913 C928 0.959 . S
H914 C928 0.961 . S
H915 C929 0.960 . S
H916 C929 0.961 . S
H917 C929 0.959 . S
H918 C932 0.929 . S
H919 C933 0.931 . S
H920 C935 0.930 . S
C921 H909 0.930 . S
C921 C922 1.399 . S
C921 C926 1.399 . S
C922 C921 1.399 . S
C922 C923 1.376 . S
C923 H910 0.930 . S
C923 C922 1.376 . S
C923 C924 1.388 . S
C924 H911 0.930 . S
C924 C923 1.388 . S
C924 C925 1.390 . S
C925 C924 1.390 . S
C925 C926 1.394 . S
C925 C931 1.465 1_565 S
C926 C921 1.399 . S
C926 C925 1.394 . S
C926 C927 1.516 1_565 S
C927 C926 1.516 1_545 S
C927 C928 1.502 . S
C927 C929 1.561 . S
C927 C930 1.526 . S
C928 H912 0.959 . S
C928 H913 0.959 . S
C928 H914 0.961 . S
C928 C927 1.502 . S
C929 H915 0.960 . S
C929 H916 0.961 . S
C929 H917 0.959 . S
C929 C927 1.561 . S
C930 C927 1.526 . S
C930 C931 1.396 . S
C930 C935 1.390 . S
C931 C925 1.465 1_545 S
C931 C930 1.396 . S
C931 C932 1.399 . S
C932 H918 0.929 . S
C932 C931 1.399 . S
C932 C933 1.385 . S
C933 H919 0.931 . S
C933 C932 1.385 . S
C933 C934 1.389 . S
C934 C933 1.389 . S
C934 C935 1.387 . S
C935 H920 0.930 . S
C935 C930 1.390 . S
C935 C934 1.387 . S
H936 C948 0.930 . S
H937 C950 0.930 . S
H938 C951 0.930 . S
H939 C955 0.959 . S
H940 C955 0.959 . S
H941 C955 0.961 . S
H942 C956 0.960 . S
H943 C956 0.961 . S
H944 C956 0.959 . S
H945 C959 0.929 1_455 S
H946 C960 0.931 . S
H947 C962 0.930 . S
C948 H936 0.930 . S
C948 C949 1.399 . S
C948 C953 1.399 . S
C949 C948 1.399 . S
C949 C950 1.376 . S
C950 H937 0.930 . S
C950 C949 1.376 . S
C950 C951 1.388 . S
C951 H938 0.930 . S
C951 C950 1.388 . S
C951 C952 1.390 . S
C952 C951 1.390 . S
C952 C953 1.394 . S
C952 C958 1.465 1_455 S
C953 C948 1.399 . S
C953 C952 1.394 . S
C953 C954 1.516 1_455 S
C954 C953 1.516 1_655 S
C954 C955 1.502 . S
C954 C956 1.561 . S
C954 C957 1.526 . S
C955 H939 0.959 . S
C955 H940 0.959 . S
C955 H941 0.961 . S
C955 C954 1.502 . S
C956 H942 0.960 . S
C956 H943 0.961 . S
C956 H944 0.959 . S
C956 C954 1.561 . S
C957 C954 1.526 . S
C957 C958 1.396 . S
C957 C962 1.390 . S
C958 C952 1.465 1_655 S
C958 C957 1.396 . S
C958 C959 1.399 . S
C959 H945 0.929 1_655 S
C959 C958 1.399 . S
C959 C960 1.385 . S
C960 H946 0.931 . S
C960 C959 1.385 . S
C960 C961 1.389 . S
C961 C960 1.389 . S
C961 C962 1.387 . S
C962 H947 0.930 . S
C962 C957 1.390 . S
C962 C961 1.387 . S
H963 C975 0.930 . S
H964 C977 0.930 . S
H965 C978 0.930 . S
H966 C982 0.959 . S
H967 C982 0.959 . S
H968 C982 0.961 . S
H969 C983 0.960 . S
H970 C983 0.961 . S
H971 C983 0.959 . S
H972 C986 0.929 . S
H973 C987 0.931 . S
H974 C989 0.930 . S
C975 H963 0.930 . S
C975 C976 1.399 . S
C975 C980 1.399 . S
C976 C975 1.399 . S
C976 C977 1.376 . S
C977 H964 0.930 . S
C977 C976 1.376 . S
C977 C978 1.388 . S
C978 H965 0.930 . S
C978 C977 1.388 . S
C978 C979 1.390 . S
C979 C978 1.390 . S
C979 C980 1.394 . S
C979 C985 1.465 . S
C980 C975 1.399 . S
C980 C979 1.394 . S
C980 C981 1.516 . S
C981 C980 1.516 . S
C981 C982 1.502 . S
C981 C983 1.561 . S
C981 C984 1.526 . S
C982 H966 0.959 . S
C982 H967 0.959 . S
C982 H968 0.961 . S
C982 C981 1.502 . S
C983 H969 0.960 . S
C983 H970 0.961 . S
C983 H971 0.959 . S
C983 C981 1.561 . S
C984 C981 1.526 . S
C984 C985 1.396 . S
C984 C989 1.390 . S
C985 C979 1.465 . S
C985 C984 1.396 . S
C985 C986 1.399 . S
C986 H972 0.929 . S
C986 C985 1.399 . S
C986 C987 1.385 . S
C987 H973 0.931 . S
C987 C986 1.385 . S
C987 C988 1.389 . S
C988 C987 1.389 . S
C988 C989 1.387 . S
C989 H974 0.930 . S
C989 C984 1.390 . S
C989 C988 1.387 . S
H990 C1002 0.930 . S
H991 C1004 0.930 . S
H992 C1005 0.930 . S
H993 C1009 0.959 . S
H994 C1009 0.959 . S
H995 C1009 0.961 . S
H996 C1010 0.960 . S
H997 C1010 0.961 . S
H998 C1010 0.959 . S
H999 C1013 0.929 . S
H1000 C1014 0.931 . S
H1001 C1016 0.930 1_556 S
C1002 H990 0.930 . S
C1002 C1003 1.399 . S
C1002 C1007 1.399 . S
C1003 C1002 1.399 . S
C1003 C1004 1.376 1_556 S
C1004 H991 0.930 . S
C1004 C1003 1.376 1_554 S
C1004 C1005 1.388 . S
C1005 H992 0.930 . S
C1005 C1004 1.388 . S
C1005 C1006 1.390 . S
C1006 C1005 1.390 . S
C1006 C1007 1.394 1_554 S
C1006 C1012 1.465 . S
C1007 C1002 1.399 . S
C1007 C1006 1.394 1_556 S
C1007 C1008 1.516 . S
C1008 C1007 1.516 . S
C1008 C1009 1.502 . S
C1008 C1010 1.561 . S
C1008 C1011 1.510 1_556 S
C1009 H993 0.959 . S
C1009 H994 0.959 . S
C1009 H995 0.961 . S
C1009 C1008 1.502 . S
C1010 H996 0.960 . S
C1010 H997 0.961 . S
C1010 H998 0.959 . S
C1010 C1008 1.561 . S
C1011 C1008 1.510 1_554 S
C1011 C1012 1.410 . S
C1011 C1016 1.392 . S
C1012 C1006 1.465 . S
C1012 C1011 1.410 . S
C1012 C1013 1.399 . S
C1013 H999 0.929 . S
C1013 C1012 1.399 . S
C1013 C1014 1.385 . S
C1014 H1000 0.931 . S
C1014 C1013 1.385 . S
C1014 C1015 1.389 . S
C1015 C1014 1.389 . S
C1015 C1016 1.387 . S
C1016 H1001 0.930 1_554 S
C1016 C1011 1.392 . S
C1016 C1015 1.387 . S
H1017 C1029 0.930 . S
H1018 C1031 0.930 . S
H1019 C1032 0.930 . S
H1020 C1036 0.959 . S
H1021 C1036 0.959 . S
H1022 C1036 0.961 . S
H1023 C1037 0.960 . S
H1024 C1037 0.961 . S
H1025 C1037 0.959 . S
H1026 C1040 0.929 . S
H1027 C1041 0.931 . S
H1028 C1043 0.930 . S
C1029 H1017 0.930 . S
C1029 C1030 1.399 1_554 S
C1029 C1034 1.399 . S
C1030 C1029 1.399 1_556 S
C1030 C1031 1.376 . S
C1031 H1018 0.930 . S
C1031 C1030 1.376 . S
C1031 C1032 1.388 . S
C1032 H1019 0.930 . S
C1032 C1031 1.388 . S
C1032 C1033 1.390 . S
C1033 C1032 1.390 . S
C1033 C1034 1.394 1_556 S
C1033 C1039 1.465 . S
C1034 C1029 1.399 . S
C1034 C1033 1.394 1_554 S
C1034 C1035 1.516 . S
C1035 C1034 1.516 . S
C1035 C1036 1.502 . S
C1035 C1037 1.561 . S
C1035 C1038 1.526 . S
C1036 H1020 0.959 . S
C1036 H1021 0.959 . S
C1036 H1022 0.961 . S
C1036 C1035 1.502 . S
C1037 H1023 0.960 . S
C1037 H1024 0.961 . S
C1037 H1025 0.959 . S
C1037 C1035 1.561 . S
C1038 C1035 1.526 . S
C1038 C1039 1.396 1_554 S
C1038 C1043 1.390 . S
C1039 C1033 1.465 . S
C1039 C1038 1.396 1_556 S
C1039 C1040 1.399 . S
C1040 H1026 0.929 . S
C1040 C1039 1.399 . S
C1040 C1041 1.385 . S
C1041 H1027 0.931 . S
C1041 C1040 1.385 . S
C1041 C1042 1.389 1_556 S
C1042 C1041 1.389 1_554 S
C1042 C1043 1.387 . S
C1043 H1028 0.930 . S
C1043 C1038 1.390 . S
C1043 C1042 1.387 . S
H1044 C1056 0.941 . S
H1045 C1058 0.930 . S
H1046 C1059 0.930 . S
H1047 C1063 0.959 . S
H1048 C1063 0.959 . S
H1049 C1063 0.961 . S
H1050 C1064 0.959 1_556 S
H1051 C1064 0.961 . S
H1052 C1064 0.959 1_556 S
H1053 C1067 0.929 . S
H1054 C1068 0.931 . S
H1055 C1070 0.930 . S
C1056 H1044 0.941 . S
C1056 C1057 1.385 1_554 S
C1056 C1061 1.402 . S
C1057 C1056 1.385 1_556 S
C1057 C1058 1.376 . S
C1058 H1045 0.930 . S
C1058 C1057 1.376 . S
C1058 C1059 1.388 . S
C1059 H1046 0.930 . S
C1059 C1058 1.388 . S
C1059 C1060 1.390 . S
C1060 C1059 1.390 . S
C1060 C1061 1.394 1_556 S
C1060 C1066 1.465 1_556 S
C1061 C1056 1.402 . S
C1061 C1060 1.394 1_554 S
C1061 C1062 1.516 . S
C1062 C1061 1.516 . S
C1062 C1063 1.502 . S
C1062 C1064 1.561 . S
C1062 C1065 1.526 . S
C1063 H1047 0.959 . S
C1063 H1048 0.959 . S
C1063 H1049 0.961 . S
C1063 C1062 1.502 . S
C1064 H1050 0.959 1_554 S
C1064 H1051 0.961 . S
C1064 H1052 0.959 1_554 S
C1064 C1062 1.561 . S
C1065 C1062 1.526 . S
C1065 C1066 1.396 . S
C1065 C1070 1.390 . S
C1066 C1060 1.465 1_554 S
C1066 C1065 1.396 . S
C1066 C1067 1.399 1_554 S
C1067 H1053 0.929 . S
C1067 C1066 1.399 1_556 S
C1067 C1068 1.385 1_556 S
C1068 H1054 0.931 . S
C1068 C1067 1.385 1_554 S
C1068 C1069 1.389 . S
C1069 C1068 1.389 . S
C1069 C1070 1.387 . S
C1070 H1055 0.930 . S
C1070 C1065 1.390 . S
C1070 C1069 1.387 . S
H1071 C1083 0.930 . S
H1072 C1085 0.930 . S
H1073 C1086 0.930 . S
H1074 C1090 0.959 . S
H1075 C1090 0.959 . S
H1076 C1090 0.961 . S
H1077 C1091 0.960 . S
H1078 C1091 0.961 . S
H1079 C1091 0.959 . S
H1080 C1094 0.929 . S
H1081 C1095 0.931 . S
H1082 C1097 0.930 . S
C1083 H1071 0.930 . S
C1083 C1084 1.399 . S
C1083 C1088 1.399 . S
C1084 C1083 1.399 . S
C1084 C1085 1.376 . S
C1085 H1072 0.930 . S
C1085 C1084 1.376 . S
C1085 C1086 1.388 . S
C1086 H1073 0.930 . S
C1086 C1085 1.388 . S
C1086 C1087 1.390 . S
C1087 C1086 1.390 . S
C1087 C1088 1.394 . S
C1087 C1093 1.465 . S
C1088 C1083 1.399 . S
C1088 C1087 1.394 . S
C1088 C1089 1.516 . S
C1089 C1088 1.516 . S
C1089 C1090 1.502 . S
C1089 C1091 1.561 . S
C1089 C1092 1.526 . S
C1090 H1074 0.959 . S
C1090 H1075 0.959 . S
C1090 H1076 0.961 . S
C1090 C1089 1.502 . S
C1091 H1077 0.960 . S
C1091 H1078 0.961 . S
C1091 H1079 0.959 . S
C1091 C1089 1.561 . S
C1092 C1089 1.526 . S
C1092 C1093 1.396 . S
C1092 C1097 1.390 . S
C1093 C1087 1.465 . S
C1093 C1092 1.396 . S
C1093 C1094 1.399 . S
C1094 H1080 0.929 . S
C1094 C1093 1.399 . S
C1094 C1095 1.385 . S
C1095 H1081 0.931 . S
C1095 C1094 1.385 . S
C1095 C1096 1.389 . S
C1096 C1095 1.389 . S
C1096 C1097 1.387 . S
C1097 H1082 0.930 . S
C1097 C1092 1.390 . S
C1097 C1096 1.387 . S
H1098 C1110 0.930 . S
H1099 C1112 0.930 . S
H1100 C1113 0.930 . S
H1101 C1117 0.959 . S
H1102 C1117 0.959 . S
H1103 C1117 0.961 . S
H1104 C1118 0.960 . S
H1105 C1118 0.961 . S
H1106 C1118 0.959 . S
H1107 C1121 0.929 . S
H1108 C1122 0.931 . S
H1109 C1124 0.930 . S
C1110 H1098 0.930 . S
C1110 C1111 1.399 . S
C1110 C1115 1.399 . S
C1111 C1110 1.399 . S
C1111 C1112 1.376 . S
C1112 H1099 0.930 . S
C1112 C1111 1.376 . S
C1112 C1113 1.388 . S
C1113 H1100 0.930 . S
C1113 C1112 1.388 . S
C1113 C1114 1.390 . S
C1114 C1113 1.390 . S
C1114 C1115 1.394 . S
C1114 C1120 1.465 . S
C1115 C1110 1.399 . S
C1115 C1114 1.394 . S
C1115 C1116 1.516 . S
C1116 C1115 1.516 . S
C1116 C1117 1.502 . S
C1116 C1118 1.561 . S
C1116 C1119 1.526 . S
C1117 H1101 0.959 . S
C1117 H1102 0.959 . S
C1117 H1103 0.961 . S
C1117 C1116 1.502 . S
C1118 H1104 0.960 . S
C1118 H1105 0.961 . S
C1118 H1106 0.959 . S
C1118 C1116 1.561 . S
C1119 C1116 1.526 . S
C1119 C1120 1.396 . S
C1119 C1124 1.390 . S
C1120 C1114 1.465 . S
C1120 C1119 1.396 . S
C1120 C1121 1.399 . S
C1121 H1107 0.929 . S
C1121 C1120 1.399 . S
C1121 C1122 1.385 . S
C1122 H1108 0.931 . S
C1122 C1121 1.385 . S
C1122 C1123 1.389 . S
C1123 C1122 1.389 . S
C1123 C1124 1.387 . S
C1124 H1109 0.930 . S
C1124 C1119 1.390 . S
C1124 C1123 1.387 . S
H1125 C1137 0.930 . S
H1126 C1139 0.930 . S
H1127 C1140 0.930 . S
H1128 C1144 0.959 . S
H1129 C1144 0.959 . S
H1130 C1144 0.961 . S
H1131 C1145 0.960 . S
H1132 C1145 0.961 . S
H1133 C1145 0.959 . S
H1134 C1148 0.929 . S
H1135 C1149 0.931 . S
H1136 C1151 0.930 . S
C1137 H1125 0.930 . S
C1137 C1138 1.399 . S
C1137 C1142 1.399 . S
C1138 C1137 1.399 . S
C1138 C1139 1.376 . S
C1139 H1126 0.930 . S
C1139 C1138 1.376 . S
C1139 C1140 1.388 . S
C1140 H1127 0.930 . S
C1140 C1139 1.388 . S
C1140 C1141 1.390 . S
C1141 C1140 1.390 . S
C1141 C1142 1.394 . S
C1141 C1147 1.465 . S
C1142 C1137 1.399 . S
C1142 C1141 1.394 . S
C1142 C1143 1.516 . S
C1143 C1142 1.516 . S
C1143 C1144 1.502 . S
C1143 C1145 1.561 . S
C1143 C1146 1.526 . S
C1144 H1128 0.959 . S
C1144 H1129 0.959 . S
C1144 H1130 0.961 . S
C1144 C1143 1.502 . S
C1145 H1131 0.960 . S
C1145 H1132 0.961 . S
C1145 H1133 0.959 . S
C1145 C1143 1.561 . S
C1146 C1143 1.526 . S
C1146 C1147 1.396 . S
C1146 C1151 1.390 . S
C1147 C1141 1.465 . S
C1147 C1146 1.396 . S
C1147 C1148 1.399 . S
C1148 H1134 0.929 . S
C1148 C1147 1.399 . S
C1148 C1149 1.385 . S
C1149 H1135 0.931 . S
C1149 C1148 1.385 . S
C1149 C1150 1.389 . S
C1150 C1149 1.389 . S
C1150 C1151 1.387 . S
C1151 H1136 0.930 . S
C1151 C1146 1.390 . S
C1151 C1150 1.387 . S
H1152 C1164 0.930 . S
H1153 C1166 0.930 . S
H1154 C1167 0.930 . S
H1155 C1171 0.959 . S
H1156 C1171 0.959 . S
H1157 C1171 0.961 . S
H1158 C1172 0.960 . S
H1159 C1172 0.961 . S
H1160 C1172 0.959 . S
H1161 C1175 0.929 . S
H1162 C1176 0.931 . S
H1163 C1178 0.930 1_554 S
C1164 H1152 0.930 . S
C1164 C1165 1.399 . S
C1164 C1169 1.399 . S
C1165 C1164 1.399 . S
C1165 C1166 1.376 1_554 S
C1166 H1153 0.930 . S
C1166 C1165 1.376 1_556 S
C1166 C1167 1.388 . S
C1167 H1154 0.930 . S
C1167 C1166 1.388 . S
C1167 C1168 1.390 . S
C1168 C1167 1.390 . S
C1168 C1169 1.394 1_556 S
C1168 C1174 1.465 . S
C1169 C1164 1.399 . S
C1169 C1168 1.394 1_554 S
C1169 C1170 1.516 . S
C1170 C1169 1.516 . S
C1170 C1171 1.502 . S
C1170 C1172 1.561 . S
C1170 C1173 1.531 . S
C1171 H1155 0.959 . S
C1171 H1156 0.959 . S
C1171 H1157 0.961 . S
C1171 C1170 1.502 . S
C1172 H1158 0.960 . S
C1172 H1159 0.961 . S
C1172 H1160 0.959 . S
C1172 C1170 1.561 . S
C1173 C1170 1.531 . S
C1173 C1174 1.391 1_554 S
C1173 C1178 1.389 1_554 S
C1174 C1168 1.465 . S
C1174 C1173 1.391 1_556 S
C1174 C1175 1.399 . S
C1175 H1161 0.929 . S
C1175 C1174 1.399 . S
C1175 C1176 1.385 . S
C1176 H1162 0.931 . S
C1176 C1175 1.385 . S
C1176 C1177 1.389 . S
C1177 C1176 1.389 . S
C1177 C1178 1.387 . S
C1178 H1163 0.930 1_556 S
C1178 C1173 1.389 1_556 S
C1178 C1177 1.387 . S
H1179 C1191 0.930 1_554 S
H1180 C1193 0.930 . S
H1181 C1194 0.930 . S
H1182 C1198 0.959 . S
H1183 C1198 0.959 . S
H1184 C1198 0.961 . S
H1185 C1199 0.960 . S
H1186 C1199 0.961 . S
H1187 C1199 0.959 . S
H1188 C1202 0.929 . S
H1189 C1203 0.931 . S
H1190 C1205 0.930 . S
C1191 H1179 0.930 1_556 S
C1191 C1192 1.399 . S
C1191 C1196 1.398 1_556 S
C1192 C1191 1.399 . S
C1192 C1193 1.376 . S
C1193 H1180 0.930 . S
C1193 C1192 1.376 . S
C1193 C1194 1.388 . S
C1194 H1181 0.930 . S
C1194 C1193 1.388 . S
C1194 C1195 1.390 . S
C1195 C1194 1.390 . S
C1195 C1196 1.373 1_556 S
C1195 C1201 1.465 . S
C1196 C1191 1.398 1_554 S
C1196 C1195 1.373 1_554 S
C1196 C1197 1.537 . S
C1197 C1196 1.537 . S
C1197 C1198 1.502 . S
C1197 C1199 1.561 . S
C1197 C1200 1.526 . S
C1198 H1182 0.959 . S
C1198 H1183 0.959 . S
C1198 H1184 0.961 . S
C1198 C1197 1.502 . S
C1199 H1185 0.960 . S
C1199 H1186 0.961 . S
C1199 H1187 0.959 . S
C1199 C1197 1.561 . S
C1200 C1197 1.526 . S
C1200 C1201 1.396 1_554 S
C1200 C1205 1.390 . S
C1201 C1195 1.465 . S
C1201 C1200 1.396 1_556 S
C1201 C1202 1.399 . S
C1202 H1188 0.929 . S
C1202 C1201 1.399 . S
C1202 C1203 1.385 . S
C1203 H1189 0.931 . S
C1203 C1202 1.385 . S
C1203 C1204 1.389 1_556 S
C1204 C1203 1.389 1_554 S
C1204 C1205 1.387 . S
C1205 H1190 0.930 . S
C1205 C1200 1.390 . S
C1205 C1204 1.387 . S
H1206 C1218 0.930 1_556 S
H1207 C1220 0.930 . S
H1208 C1221 0.930 . S
H1209 C1225 0.959 . S
H1210 C1225 0.959 . S
H1211 C1225 0.961 . S
H1212 C1226 0.960 . S
H1213 C1226 0.961 . S
H1214 C1226 0.959 . S
H1215 C1229 0.929 1_554 S
H1216 C1230 0.931 . S
H1217 C1232 0.930 . S
C1218 H1206 0.930 1_554 S
C1218 C1219 1.399 . S
C1218 C1223 1.399 1_554 S
C1219 C1218 1.399 . S
C1219 C1220 1.376 . S
C1220 H1207 0.930 . S
C1220 C1219 1.376 . S
C1220 C1221 1.388 . S
C1221 H1208 0.930 . S
C1221 C1220 1.388 . S
C1221 C1222 1.390 . S
C1222 C1221 1.390 . S
C1222 C1223 1.394 1_554 S
C1222 C1228 1.465 1_554 S
C1223 C1218 1.399 1_556 S
C1223 C1222 1.394 1_556 S
C1223 C1224 1.516 . S
C1224 C1223 1.516 . S
C1224 C1225 1.502 . S
C1224 C1226 1.561 1_556 S
C1224 C1227 1.526 . S
C1225 H1209 0.959 . S
C1225 H1210 0.959 . S
C1225 H1211 0.961 . S
C1225 C1224 1.502 . S
C1226 H1212 0.960 . S
C1226 H1213 0.961 . S
C1226 H1214 0.959 . S
C1226 C1224 1.561 1_554 S
C1227 C1224 1.526 . S
C1227 C1228 1.396 . S
C1227 C1232 1.390 . S
C1228 C1222 1.465 1_556 S
C1228 C1227 1.396 . S
C1228 C1229 1.399 . S
C1229 H1215 0.929 1_556 S
C1229 C1228 1.399 . S
C1229 C1230 1.385 . S
C1230 H1216 0.931 . S
C1230 C1229 1.385 . S
C1230 C1231 1.389 . S
C1231 C1230 1.389 . S
C1231 C1232 1.387 . S
C1232 H1217 0.930 . S
C1232 C1227 1.390 . S
C1232 C1231 1.387 . S
H1233 C1245 0.930 . S
H1234 C1247 0.930 . S
H1235 C1248 0.930 . S
H1236 C1252 0.959 . S
H1237 C1252 0.959 . S
H1238 C1252 0.961 . S
H1239 C1253 0.960 . S
H1240 C1253 0.961 . S
H1241 C1253 0.959 . S
H1242 C1256 0.929 . S
H1243 C1257 0.931 . S
H1244 C1259 0.930 . S
C1245 H1233 0.930 . S
C1245 C1246 1.399 . S
C1245 C1250 1.399 . S
C1246 C1245 1.399 . S
C1246 C1247 1.376 . S
C1247 H1234 0.930 . S
C1247 C1246 1.376 . S
C1247 C1248 1.388 . S
C1248 H1235 0.930 . S
C1248 C1247 1.388 . S
C1248 C1249 1.390 . S
C1249 C1248 1.390 . S
C1249 C1250 1.394 . S
C1249 C1255 1.465 . S
C1250 C1245 1.399 . S
C1250 C1249 1.394 . S
C1250 C1251 1.516 . S
C1251 C1250 1.516 . S
C1251 C1252 1.502 . S
C1251 C1253 1.561 . S
C1251 C1254 1.526 . S
C1252 H1236 0.959 . S
C1252 H1237 0.959 . S
C1252 H1238 0.961 . S
C1252 C1251 1.502 . S
C1253 H1239 0.960 . S
C1253 H1240 0.961 . S
C1253 H1241 0.959 . S
C1253 C1251 1.561 . S
C1254 C1251 1.526 . S
C1254 C1255 1.396 . S
C1254 C1259 1.390 . S
C1255 C1249 1.465 . S
C1255 C1254 1.396 . S
C1255 C1256 1.399 . S
C1256 H1242 0.929 . S
C1256 C1255 1.399 . S
C1256 C1257 1.385 . S
C1257 H1243 0.931 . S
C1257 C1256 1.385 . S
C1257 C1258 1.389 . S
C1258 C1257 1.389 . S
C1258 C1259 1.387 . S
C1259 H1244 0.930 . S
C1259 C1254 1.390 . S
C1259 C1258 1.387 . S
H1260 C1272 0.930 . S
H1261 C1274 0.930 . S
H1262 C1275 0.930 . S
H1263 C1279 0.959 . S
H1264 C1279 0.959 . S
H1265 C1279 0.961 . S
H1266 C1280 0.960 . S
H1267 C1280 0.961 . S
H1268 C1280 0.959 . S
H1269 C1283 0.929 . S
H1270 C1284 0.931 . S
H1271 C1286 0.930 . S
C1272 H1260 0.930 . S
C1272 C1273 1.399 . S
C1272 C1277 1.399 . S
C1273 C1272 1.399 . S
C1273 C1274 1.376 . S
C1274 H1261 0.930 . S
C1274 C1273 1.376 . S
C1274 C1275 1.388 . S
C1275 H1262 0.930 . S
C1275 C1274 1.388 . S
C1275 C1276 1.390 . S
C1276 C1275 1.390 . S
C1276 C1277 1.394 . S
C1276 C1282 1.465 . S
C1277 C1272 1.399 . S
C1277 C1276 1.394 . S
C1277 C1278 1.516 . S
C1278 C1277 1.516 . S
C1278 C1279 1.502 . S
C1278 C1280 1.561 . S
C1278 C1281 1.526 . S
C1279 H1263 0.959 . S
C1279 H1264 0.959 . S
C1279 H1265 0.961 . S
C1279 C1278 1.502 . S
C1280 H1266 0.960 . S
C1280 H1267 0.961 . S
C1280 H1268 0.959 . S
C1280 C1278 1.561 . S
C1281 C1278 1.526 . S
C1281 C1282 1.396 . S
C1281 C1286 1.390 . S
C1282 C1276 1.465 . S
C1282 C1281 1.396 . S
C1282 C1283 1.399 . S
C1283 H1269 0.929 . S
C1283 C1282 1.399 . S
C1283 C1284 1.385 . S
C1284 H1270 0.931 . S
C1284 C1283 1.385 . S
C1284 C1285 1.389 . S
C1285 C1284 1.389 . S
C1285 C1286 1.387 . S
C1286 H1271 0.930 . S
C1286 C1281 1.390 . S
C1286 C1285 1.387 . S
H1287 C1299 0.930 . S
H1288 C1301 0.930 . S
H1289 C1302 0.930 . S
H1290 C1306 0.959 . S
H1291 C1306 0.959 . S
H1292 C1306 0.961 . S
H1293 C1307 0.960 . S
H1294 C1307 0.961 . S
H1295 C1307 0.959 . S
H1296 C1310 0.929 . S
H1297 C1311 0.931 . S
H1298 C1313 0.930 . S
C1299 H1287 0.930 . S
C1299 C1300 1.399 . S
C1299 C1304 1.399 . S
C1300 C1299 1.399 . S
C1300 C1301 1.376 . S
C1301 H1288 0.930 . S
C1301 C1300 1.376 . S
C1301 C1302 1.388 . S
C1302 H1289 0.930 . S
C1302 C1301 1.388 . S
C1302 C1303 1.390 . S
C1303 C1302 1.390 . S
C1303 C1304 1.394 . S
C1303 C1309 1.465 . S
C1304 C1299 1.399 . S
C1304 C1303 1.394 . S
C1304 C1305 1.516 . S
C1305 C1304 1.516 . S
C1305 C1306 1.502 . S
C1305 C1307 1.561 . S
C1305 C1308 1.526 . S
C1306 H1290 0.959 . S
C1306 H1291 0.959 . S
C1306 H1292 0.961 . S
C1306 C1305 1.502 . S
C1307 H1293 0.960 . S
C1307 H1294 0.961 . S
C1307 H1295 0.959 . S
C1307 C1305 1.561 . S
C1308 C1305 1.526 . S
C1308 C1309 1.396 . S
C1308 C1313 1.390 . S
C1309 C1303 1.465 . S
C1309 C1308 1.396 . S
C1309 C1310 1.399 . S
C1310 H1296 0.929 . S
C1310 C1309 1.399 . S
C1310 C1311 1.385 . S
C1311 H1297 0.931 . S
C1311 C1310 1.385 . S
C1311 C1312 1.389 . S
C1312 C1311 1.389 . S
C1312 C1313 1.387 . S
C1313 H1298 0.930 . S
C1313 C1308 1.390 . S
C1313 C1312 1.387 . S
H1314 C1326 0.930 . S
H1315 C1328 0.930 . S
H1316 C1329 0.930 . S
H1317 C1333 0.959 . S
H1318 C1333 0.959 . S
H1319 C1333 0.961 . S
H1320 C1334 0.960 . S
H1321 C1334 0.961 . S
H1322 C1334 0.959 . S
H1323 C1337 0.929 . S
H1324 C1338 0.931 . S
H1325 C1340 0.930 . S
C1326 H1314 0.930 . S
C1326 C1327 1.399 . S
C1326 C1331 1.399 . S
C1327 C1326 1.399 . S
C1327 C1328 1.376 . S
C1328 H1315 0.930 . S
C1328 C1327 1.376 . S
C1328 C1329 1.388 . S
C1329 H1316 0.930 . S
C1329 C1328 1.388 . S
C1329 C1330 1.390 . S
C1330 C1329 1.390 . S
C1330 C1331 1.394 . S
C1330 C1336 1.465 . S
C1331 C1326 1.399 . S
C1331 C1330 1.394 . S
C1331 C1332 1.516 . S
C1332 C1331 1.516 . S
C1332 C1333 1.502 . S
C1332 C1334 1.561 . S
C1332 C1335 1.526 . S
C1333 H1317 0.959 . S
C1333 H1318 0.959 . S
C1333 H1319 0.961 . S
C1333 C1332 1.502 . S
C1334 H1320 0.960 . S
C1334 H1321 0.961 . S
C1334 H1322 0.959 . S
C1334 C1332 1.561 . S
C1335 C1332 1.526 . S
C1335 C1336 1.396 . S
C1335 C1340 1.390 . S
C1336 C1330 1.465 . S
C1336 C1335 1.396 . S
C1336 C1337 1.399 . S
C1337 H1323 0.929 . S
C1337 C1336 1.399 . S
C1337 C1338 1.385 . S
C1338 H1324 0.931 . S
C1338 C1337 1.385 . S
C1338 C1339 1.389 . S
C1339 C1338 1.389 . S
C1339 C1340 1.387 . S
C1340 H1325 0.930 . S
C1340 C1335 1.390 . S
C1340 C1339 1.387 . S
H1341 C1353 0.930 . S
H1342 C1355 0.930 . S
H1343 C1356 0.930 . S
H1344 C1360 0.959 . S
H1345 C1360 0.959 . S
H1346 C1360 0.961 . S
H1347 C1361 0.960 . S
H1348 C1361 0.961 . S
H1349 C1361 0.959 . S
H1350 C1364 0.929 . S
H1351 C1365 0.931 . S
H1352 C1367 0.930 . S
C1353 H1341 0.930 . S
C1353 C1354 1.399 . S
C1353 C1358 1.399 . S
C1354 C1353 1.399 . S
C1354 C1355 1.376 . S
C1355 H1342 0.930 . S
C1355 C1354 1.376 . S
C1355 C1356 1.388 . S
C1356 H1343 0.930 . S
C1356 C1355 1.388 . S
C1356 C1357 1.390 . S
C1357 C1356 1.390 . S
C1357 C1358 1.394 . S
C1357 C1363 1.465 . S
C1358 C1353 1.399 . S
C1358 C1357 1.394 . S
C1358 C1359 1.516 . S
C1359 C1358 1.516 . S
C1359 C1360 1.502 . S
C1359 C1361 1.561 . S
C1359 C1362 1.526 . S
C1360 H1344 0.959 . S
C1360 H1345 0.959 . S
C1360 H1346 0.961 . S
C1360 C1359 1.502 . S
C1361 H1347 0.960 . S
C1361 H1348 0.961 . S
C1361 H1349 0.959 . S
C1361 C1359 1.561 . S
C1362 C1359 1.526 . S
C1362 C1363 1.396 . S
C1362 C1367 1.390 . S
C1363 C1357 1.465 . S
C1363 C1362 1.396 . S
C1363 C1364 1.399 . S
C1364 H1350 0.929 . S
C1364 C1363 1.399 . S
C1364 C1365 1.385 . S
C1365 H1351 0.931 . S
C1365 C1364 1.385 . S
C1365 C1366 1.389 . S
C1366 C1365 1.389 . S
C1366 C1367 1.387 . S
C1367 H1352 0.930 . S
C1367 C1362 1.390 . S
C1367 C1366 1.387 . S
H1368 C1380 0.930 . S
H1369 C1382 0.930 . S
H1370 C1383 0.930 . S
H1371 C1387 0.959 . S
H1372 C1387 0.959 . S
H1373 C1387 0.961 . S
H1374 C1388 0.960 . S
H1375 C1388 0.961 . S
H1376 C1388 0.959 . S
H1377 C1391 0.929 . S
H1378 C1392 0.931 . S
H1379 C1394 0.930 . S
C1380 H1368 0.930 . S
C1380 C1381 1.399 . S
C1380 C1385 1.399 . S
C1381 C1380 1.399 . S
C1381 C1382 1.376 . S
C1382 H1369 0.930 . S
C1382 C1381 1.376 . S
C1382 C1383 1.388 . S
C1383 H1370 0.930 . S
C1383 C1382 1.388 . S
C1383 C1384 1.390 . S
C1384 C1383 1.390 . S
C1384 C1385 1.394 . S
C1384 C1390 1.465 . S
C1385 C1380 1.399 . S
C1385 C1384 1.394 . S
C1385 C1386 1.516 . S
C1386 C1385 1.516 . S
C1386 C1387 1.502 . S
C1386 C1388 1.561 . S
C1386 C1389 1.526 . S
C1387 H1371 0.959 . S
C1387 H1372 0.959 . S
C1387 H1373 0.961 . S
C1387 C1386 1.502 . S
C1388 H1374 0.960 . S
C1388 H1375 0.961 . S
C1388 H1376 0.959 . S
C1388 C1386 1.561 . S
C1389 C1386 1.526 . S
C1389 C1390 1.396 . S
C1389 C1394 1.390 . S
C1390 C1384 1.465 . S
C1390 C1389 1.396 . S
C1390 C1391 1.399 . S
C1391 H1377 0.929 . S
C1391 C1390 1.399 . S
C1391 C1392 1.385 . S
C1392 H1378 0.931 . S
C1392 C1391 1.385 . S
C1392 C1393 1.389 . S
C1393 C1392 1.389 . S
C1393 C1394 1.387 . S
C1394 H1379 0.930 . S
C1394 C1389 1.390 . S
C1394 C1393 1.387 . S
H1395 C1407 0.930 . S
H1396 C1409 0.930 . S
H1397 C1410 0.930 . S
H1398 C1414 0.959 . S
H1399 C1414 0.959 . S
H1400 C1414 0.961 . S
H1401 C1415 0.960 . S
H1402 C1415 0.961 . S
H1403 C1415 0.959 . S
H1404 C1418 0.929 . S
H1405 C1419 0.931 . S
H1406 C1421 0.930 . S
C1407 H1395 0.930 . S
C1407 C1408 1.399 . S
C1407 C1412 1.399 . S
C1408 C1407 1.399 . S
C1408 C1409 1.376 . S
C1409 H1396 0.930 . S
C1409 C1408 1.376 . S
C1409 C1410 1.388 . S
C1410 H1397 0.930 . S
C1410 C1409 1.388 . S
C1410 C1411 1.390 . S
C1411 C1410 1.390 . S
C1411 C1412 1.394 . S
C1411 C1417 1.465 . S
C1412 C1407 1.399 . S
C1412 C1411 1.394 . S
C1412 C1413 1.516 . S
C1413 C1412 1.516 . S
C1413 C1414 1.502 . S
C1413 C1415 1.561 . S
C1413 C1416 1.526 . S
C1414 H1398 0.959 . S
C1414 H1399 0.959 . S
C1414 H1400 0.961 . S
C1414 C1413 1.502 . S
C1415 H1401 0.960 . S
C1415 H1402 0.961 . S
C1415 H1403 0.959 . S
C1415 C1413 1.561 . S
C1416 C1413 1.526 . S
C1416 C1417 1.396 . S
C1416 C1421 1.390 . S
C1417 C1411 1.465 . S
C1417 C1416 1.396 . S
C1417 C1418 1.399 . S
C1418 H1404 0.929 . S
C1418 C1417 1.399 . S
C1418 C1419 1.385 . S
C1419 H1405 0.931 . S
C1419 C1418 1.385 . S
C1419 C1420 1.389 . S
C1420 C1419 1.389 . S
C1420 C1421 1.387 . S
C1421 H1406 0.930 . S
C1421 C1416 1.390 . S
C1421 C1420 1.387 . S
H1422 C1434 0.930 . S
H1423 C1436 0.930 . S
H1424 C1437 0.930 . S
H1425 C1441 0.959 . S
H1426 C1441 0.959 . S
H1427 C1441 0.961 . S
H1428 C1442 0.960 . S
H1429 C1442 0.961 . S
H1430 C1442 0.959 . S
H1431 C1445 0.929 . S
H1432 C1446 0.931 . S
H1433 C1448 0.930 . S
C1434 H1422 0.930 . S
C1434 C1435 1.399 . S
C1434 C1439 1.399 . S
C1435 C1434 1.399 . S
C1435 C1436 1.376 . S
C1436 H1423 0.930 . S
C1436 C1435 1.376 . S
C1436 C1437 1.388 . S
C1437 H1424 0.930 . S
C1437 C1436 1.388 . S
C1437 C1438 1.390 . S
C1438 C1437 1.390 . S
C1438 C1439 1.394 . S
C1438 C1444 1.465 . S
C1439 C1434 1.399 . S
C1439 C1438 1.394 . S
C1439 C1440 1.516 . S
C1440 C1439 1.516 . S
C1440 C1441 1.502 . S
C1440 C1442 1.561 . S
C1440 C1443 1.526 . S
C1441 H1425 0.959 . S
C1441 H1426 0.959 . S
C1441 H1427 0.961 . S
C1441 C1440 1.502 . S
C1442 H1428 0.960 . S
C1442 H1429 0.961 . S
C1442 H1430 0.959 . S
C1442 C1440 1.561 . S
C1443 C1440 1.526 . S
C1443 C1444 1.396 . S
C1443 C1448 1.390 . S
C1444 C1438 1.465 . S
C1444 C1443 1.396 . S
C1444 C1445 1.399 . S
C1445 H1431 0.929 . S
C1445 C1444 1.399 . S
C1445 C1446 1.385 . S
C1446 H1432 0.931 . S
C1446 C1445 1.385 . S
C1446 C1447 1.389 . S
C1447 C1446 1.389 . S
C1447 C1448 1.387 . S
C1448 H1433 0.930 . S
C1448 C1443 1.390 . S
C1448 C1447 1.387 . S
H1449 C1461 0.930 . S
H1450 C1463 0.930 . S
H1451 C1464 0.930 . S
H1452 C1468 0.959 . S
H1453 C1468 0.959 . S
H1454 C1468 0.961 . S
H1455 C1469 0.960 . S
H1456 C1469 0.961 . S
H1457 C1469 0.959 . S
H1458 C1472 0.929 . S
H1459 C1473 0.931 . S
H1460 C1475 0.930 . S
C1461 H1449 0.930 . S
C1461 C1462 1.399 . S
C1461 C1466 1.399 . S
C1462 C1461 1.399 . S
C1462 C1463 1.376 . S
C1463 H1450 0.930 . S
C1463 C1462 1.376 . S
C1463 C1464 1.388 . S
C1464 H1451 0.930 . S
C1464 C1463 1.388 . S
C1464 C1465 1.390 . S
C1465 C1464 1.390 . S
C1465 C1466 1.394 . S
C1465 C1471 1.465 . S
C1466 C1461 1.399 . S
C1466 C1465 1.394 . S
C1466 C1467 1.516 . S
C1467 C1466 1.516 . S
C1467 C1468 1.502 . S
C1467 C1469 1.561 . S
C1467 C1470 1.526 . S
C1468 H1452 0.959 . S
C1468 H1453 0.959 . S
C1468 H1454 0.961 . S
C1468 C1467 1.502 . S
C1469 H1455 0.960 . S
C1469 H1456 0.961 . S
C1469 H1457 0.959 . S
C1469 C1467 1.561 . S
C1470 C1467 1.526 . S
C1470 C1471 1.396 . S
C1470 C1475 1.390 . S
C1471 C1465 1.465 . S
C1471 C1470 1.396 . S
C1471 C1472 1.399 . S
C1472 H1458 0.929 . S
C1472 C1471 1.399 . S
C1472 C1473 1.385 . S
C1473 H1459 0.931 . S
C1473 C1472 1.385 . S
C1473 C1474 1.389 . S
C1474 C1473 1.389 . S
C1474 C1475 1.387 . S
C1475 H1460 0.930 . S
C1475 C1470 1.390 . S
C1475 C1474 1.387 . S
H1476 C1488 0.930 . S
H1477 C1490 0.930 . S
H1478 C1491 0.930 . S
H1479 C1495 0.959 . S
H1480 C1495 0.959 . S
H1481 C1495 0.961 . S
H1482 C1496 0.960 . S
H1483 C1496 0.961 . S
H1484 C1496 0.959 . S
H1485 C1499 0.929 . S
H1486 C1500 0.931 . S
H1487 C1502 0.930 . S
C1488 H1476 0.930 . S
C1488 C1489 1.399 . S
C1488 C1493 1.399 . S
C1489 C1488 1.399 . S
C1489 C1490 1.376 . S
C1490 H1477 0.930 . S
C1490 C1489 1.376 . S
C1490 C1491 1.388 . S
C1491 H1478 0.930 . S
C1491 C1490 1.388 . S
C1491 C1492 1.390 . S
C1492 C1491 1.390 . S
C1492 C1493 1.394 . S
C1492 C1498 1.465 . S
C1493 C1488 1.399 . S
C1493 C1492 1.394 . S
C1493 C1494 1.516 . S
C1494 C1493 1.516 . S
C1494 C1495 1.502 . S
C1494 C1496 1.561 . S
C1494 C1497 1.526 . S
C1495 H1479 0.959 . S
C1495 H1480 0.959 . S
C1495 H1481 0.961 . S
C1495 C1494 1.502 . S
C1496 H1482 0.960 . S
C1496 H1483 0.961 . S
C1496 H1484 0.959 . S
C1496 C1494 1.561 . S
C1497 C1494 1.526 . S
C1497 C1498 1.396 . S
C1497 C1502 1.390 . S
C1498 C1492 1.465 . S
C1498 C1497 1.396 . S
C1498 C1499 1.399 . S
C1499 H1485 0.929 . S
C1499 C1498 1.399 . S
C1499 C1500 1.385 . S
C1500 H1486 0.931 . S
C1500 C1499 1.385 . S
C1500 C1501 1.389 . S
C1501 C1500 1.389 . S
C1501 C1502 1.387 . S
C1502 H1487 0.930 . S
C1502 C1497 1.390 . S
C1502 C1501 1.387 . S
H1503 C1515 0.930 . S
H1504 C1517 0.930 . S
H1505 C1518 0.930 . S
H1506 C1522 0.959 . S
H1507 C1522 0.959 . S
H1508 C1522 0.961 . S
H1509 C1523 0.960 . S
H1510 C1523 0.961 . S
H1511 C1523 0.959 . S
H1512 C1526 0.929 . S
H1513 C1527 0.931 . S
H1514 C1529 0.930 . S
C1515 H1503 0.930 . S
C1515 C1516 1.399 . S
C1515 C1520 1.399 . S
C1516 C1515 1.399 . S
C1516 C1517 1.376 . S
C1517 H1504 0.930 . S
C1517 C1516 1.376 . S
C1517 C1518 1.388 . S
C1518 H1505 0.930 . S
C1518 C1517 1.388 . S
C1518 C1519 1.390 . S
C1519 C1518 1.390 . S
C1519 C1520 1.394 . S
C1519 C1525 1.465 . S
C1520 C1515 1.399 . S
C1520 C1519 1.394 . S
C1520 C1521 1.516 . S
C1521 C1520 1.516 . S
C1521 C1522 1.502 . S
C1521 C1523 1.561 . S
C1521 C1524 1.526 . S
C1522 H1506 0.959 . S
C1522 H1507 0.959 . S
C1522 H1508 0.961 . S
C1522 C1521 1.502 . S
C1523 H1509 0.960 . S
C1523 H1510 0.961 . S
C1523 H1511 0.959 . S
C1523 C1521 1.561 . S
C1524 C1521 1.526 . S
C1524 C1525 1.396 . S
C1524 C1529 1.390 . S
C1525 C1519 1.465 . S
C1525 C1524 1.396 . S
C1525 C1526 1.399 . S
C1526 H1512 0.929 . S
C1526 C1525 1.399 . S
C1526 C1527 1.385 . S
C1527 H1513 0.931 . S
C1527 C1526 1.385 . S
C1527 C1528 1.389 . S
C1528 C1527 1.389 . S
C1528 C1529 1.387 . S
C1529 H1514 0.930 . S
C1529 C1524 1.390 . S
C1529 C1528 1.387 . S
H1530 C1542 0.930 . S
H1531 C1544 0.930 . S
H1532 C1545 0.930 . S
H1533 C1549 0.959 . S
H1534 C1549 0.959 . S
H1535 C1549 0.961 . S
H1536 C1550 0.960 . S
H1537 C1550 0.961 . S
H1538 C1550 0.959 . S
H1539 C1553 0.929 . S
H1540 C1554 0.931 . S
H1541 C1556 0.930 . S
C1542 H1530 0.930 . S
C1542 C1543 1.399 . S
C1542 C1547 1.399 . S
C1543 C1542 1.399 . S
C1543 C1544 1.376 . S
C1544 H1531 0.930 . S
C1544 C1543 1.376 . S
C1544 C1545 1.388 . S
C1545 H1532 0.930 . S
C1545 C1544 1.388 . S
C1545 C1546 1.390 . S
C1546 C1545 1.390 . S
C1546 C1547 1.394 . S
C1546 C1552 1.465 . S
C1547 C1542 1.399 . S
C1547 C1546 1.394 . S
C1547 C1548 1.516 . S
C1548 C1547 1.516 . S
C1548 C1549 1.502 . S
C1548 C1550 1.561 . S
C1548 C1551 1.526 . S
C1549 H1533 0.959 . S
C1549 H1534 0.959 . S
C1549 H1535 0.961 . S
C1549 C1548 1.502 . S
C1550 H1536 0.960 . S
C1550 H1537 0.961 . S
C1550 H1538 0.959 . S
C1550 C1548 1.561 . S
C1551 C1548 1.526 . S
C1551 C1552 1.396 . S
C1551 C1556 1.390 . S
C1552 C1546 1.465 . S
C1552 C1551 1.396 . S
C1552 C1553 1.399 . S
C1553 H1539 0.929 . S
C1553 C1552 1.399 . S
C1553 C1554 1.385 . S
C1554 H1540 0.931 . S
C1554 C1553 1.385 . S
C1554 C1555 1.389 . S
C1555 C1554 1.389 . S
C1555 C1556 1.387 . S
C1556 H1541 0.930 . S
C1556 C1551 1.390 . S
C1556 C1555 1.387 . S
H1557 C1569 0.930 . S
H1558 C1571 0.930 . S
H1559 C1572 0.930 . S
H1560 C1576 0.959 . S
H1561 C1576 0.959 . S
H1562 C1576 0.961 . S
H1563 C1577 0.960 . S
H1564 C1577 0.961 . S
H1565 C1577 0.959 . S
H1566 C1580 0.929 . S
H1567 C1581 0.931 . S
H1568 C1583 0.930 . S
C1569 H1557 0.930 . S
C1569 C1570 1.399 . S
C1569 C1574 1.399 . S
C1570 C1569 1.399 . S
C1570 C1571 1.376 . S
C1571 H1558 0.930 . S
C1571 C1570 1.376 . S
C1571 C1572 1.388 . S
C1572 H1559 0.930 . S
C1572 C1571 1.388 . S
C1572 C1573 1.390 . S
C1573 C1572 1.390 . S
C1573 C1574 1.394 . S
C1573 C1579 1.465 . S
C1574 C1569 1.399 . S
C1574 C1573 1.394 . S
C1574 C1575 1.516 . S
C1575 C1574 1.516 . S
C1575 C1576 1.502 . S
C1575 C1577 1.561 . S
C1575 C1578 1.526 . S
C1576 H1560 0.959 . S
C1576 H1561 0.959 . S
C1576 H1562 0.961 . S
C1576 C1575 1.502 . S
C1577 H1563 0.960 . S
C1577 H1564 0.961 . S
C1577 H1565 0.959 . S
C1577 C1575 1.561 . S
C1578 C1575 1.526 . S
C1578 C1579 1.396 . S
C1578 C1583 1.390 . S
C1579 C1573 1.465 . S
C1579 C1578 1.396 . S
C1579 C1580 1.399 . S
C1580 H1566 0.929 . S
C1580 C1579 1.399 . S
C1580 C1581 1.385 . S
C1581 H1567 0.931 . S
C1581 C1580 1.385 . S
C1581 C1582 1.389 . S
C1582 C1581 1.389 . S
C1582 C1583 1.387 . S
C1583 H1568 0.930 . S
C1583 C1578 1.390 . S
C1583 C1582 1.387 . S
H1584 C1596 0.930 . S
H1585 C1598 0.930 . S
H1586 C1599 0.930 . S
H1587 C1603 0.959 . S
H1588 C1603 0.959 . S
H1589 C1603 0.961 . S
H1590 C1604 0.960 . S
H1591 C1604 0.961 . S
H1592 C1604 0.959 . S
H1593 C1607 0.929 . S
H1594 C1608 0.931 . S
H1595 C1610 0.930 . S
C1596 H1584 0.930 . S
C1596 C1597 1.399 . S
C1596 C1601 1.399 . S
C1597 C1596 1.399 . S
C1597 C1598 1.376 . S
C1598 H1585 0.930 . S
C1598 C1597 1.376 . S
C1598 C1599 1.388 . S
C1599 H1586 0.930 . S
C1599 C1598 1.388 . S
C1599 C1600 1.390 . S
C1600 C1599 1.390 . S
C1600 C1601 1.394 . S
C1600 C1606 1.465 . S
C1601 C1596 1.399 . S
C1601 C1600 1.394 . S
C1601 C1602 1.516 . S
C1602 C1601 1.516 . S
C1602 C1603 1.502 . S
C1602 C1604 1.561 . S
C1602 C1605 1.526 . S
C1603 H1587 0.959 . S
C1603 H1588 0.959 . S
C1603 H1589 0.961 . S
C1603 C1602 1.502 . S
C1604 H1590 0.960 . S
C1604 H1591 0.961 . S
C1604 H1592 0.959 . S
C1604 C1602 1.561 . S
C1605 C1602 1.526 . S
C1605 C1606 1.396 . S
C1605 C1610 1.390 . S
C1606 C1600 1.465 . S
C1606 C1605 1.396 . S
C1606 C1607 1.399 . S
C1607 H1593 0.929 . S
C1607 C1606 1.399 . S
C1607 C1608 1.385 . S
C1608 H1594 0.931 . S
C1608 C1607 1.385 . S
C1608 C1609 1.389 . S
C1609 C1608 1.389 . S
C1609 C1610 1.387 . S
C1610 H1595 0.930 . S
C1610 C1605 1.390 . S
C1610 C1609 1.387 . S
H1611 C1623 0.930 . S
H1612 C1625 0.930 . S
H1613 C1626 0.930 . S
H1614 C1630 0.959 . S
H1615 C1630 0.959 . S
H1616 C1630 0.961 . S
H1617 C1631 0.960 . S
H1618 C1631 0.961 . S
H1619 C1631 0.959 . S
H1620 C1634 0.929 . S
H1621 C1635 0.931 . S
H1622 C1637 0.930 . S
C1623 H1611 0.930 . S
C1623 C1624 1.399 . S
C1623 C1628 1.399 . S
C1624 C1623 1.399 . S
C1624 C1625 1.376 . S
C1625 H1612 0.930 . S
C1625 C1624 1.376 . S
C1625 C1626 1.388 . S
C1626 H1613 0.930 . S
C1626 C1625 1.388 . S
C1626 C1627 1.390 . S
C1627 C1626 1.390 . S
C1627 C1628 1.394 . S
C1627 C1633 1.465 . S
C1628 C1623 1.399 . S
C1628 C1627 1.394 . S
C1628 C1629 1.516 . S
C1629 C1628 1.516 . S
C1629 C1630 1.502 . S
C1629 C1631 1.561 . S
C1629 C1632 1.526 . S
C1630 H1614 0.959 . S
C1630 H1615 0.959 . S
C1630 H1616 0.961 . S
C1630 C1629 1.502 . S
C1631 H1617 0.960 . S
C1631 H1618 0.961 . S
C1631 H1619 0.959 . S
C1631 C1629 1.561 . S
C1632 C1629 1.526 . S
C1632 C1633 1.396 . S
C1632 C1637 1.390 . S
C1633 C1627 1.465 . S
C1633 C1632 1.396 . S
C1633 C1634 1.399 . S
C1634 H1620 0.929 . S
C1634 C1633 1.399 . S
C1634 C1635 1.385 . S
C1635 H1621 0.931 . S
C1635 C1634 1.385 . S
C1635 C1636 1.389 . S
C1636 C1635 1.389 . S
C1636 C1637 1.387 . S
C1637 H1622 0.930 . S
C1637 C1632 1.390 . S
C1637 C1636 1.387 . S
H1638 C1650 0.930 . S
H1639 C1652 0.930 . S
H1640 C1653 0.930 . S
H1641 C1657 0.959 . S
H1642 C1657 0.959 . S
H1643 C1657 0.961 . S
H1644 C1658 0.960 . S
H1645 C1658 0.961 . S
H1646 C1658 0.959 . S
H1647 C1661 0.929 . S
H1648 C1662 0.931 . S
H1649 C1664 0.930 . S
C1650 H1638 0.930 . S
C1650 C1651 1.399 . S
C1650 C1655 1.399 . S
C1651 C1650 1.399 . S
C1651 C1652 1.376 . S
C1652 H1639 0.930 . S
C1652 C1651 1.376 . S
C1652 C1653 1.388 . S
C1653 H1640 0.930 . S
C1653 C1652 1.388 . S
C1653 C1654 1.390 . S
C1654 C1653 1.390 . S
C1654 C1655 1.394 . S
C1654 C1660 1.465 . S
C1655 C1650 1.399 . S
C1655 C1654 1.394 . S
C1655 C1656 1.516 . S
C1656 C1655 1.516 . S
C1656 C1657 1.502 . S
C1656 C1658 1.561 . S
C1656 C1659 1.526 . S
C1657 H1641 0.959 . S
C1657 H1642 0.959 . S
C1657 H1643 0.961 . S
C1657 C1656 1.502 . S
C1658 H1644 0.960 . S
C1658 H1645 0.961 . S
C1658 H1646 0.959 . S
C1658 C1656 1.561 . S
C1659 C1656 1.526 . S
C1659 C1660 1.396 . S
C1659 C1664 1.390 . S
C1660 C1654 1.465 . S
C1660 C1659 1.396 . S
C1660 C1661 1.399 . S
C1661 H1647 0.929 . S
C1661 C1660 1.399 . S
C1661 C1662 1.385 . S
C1662 H1648 0.931 . S
C1662 C1661 1.385 . S
C1662 C1663 1.389 . S
C1663 C1662 1.389 . S
C1663 C1664 1.387 . S
C1664 H1649 0.930 . S
C1664 C1659 1.390 . S
C1664 C1663 1.387 . S
H1665 C1677 0.930 . S
H1666 C1679 0.930 . S
H1667 C1680 0.930 . S
H1668 C1684 0.959 . S
H1669 C1684 0.959 . S
H1670 C1684 0.961 . S
H1671 C1685 0.960 . S
H1672 C1685 0.961 . S
H1673 C1685 0.959 . S
H1674 C1688 0.929 . S
H1675 C1689 0.931 . S
H1676 C1691 0.930 . S
C1677 H1665 0.930 . S
C1677 C1678 1.399 . S
C1677 C1682 1.399 . S
C1678 C1677 1.399 . S
C1678 C1679 1.376 . S
C1679 H1666 0.930 . S
C1679 C1678 1.376 . S
C1679 C1680 1.388 . S
C1680 H1667 0.930 . S
C1680 C1679 1.388 . S
C1680 C1681 1.390 . S
C1681 C1680 1.390 . S
C1681 C1682 1.394 . S
C1681 C1687 1.465 . S
C1682 C1677 1.399 . S
C1682 C1681 1.394 . S
C1682 C1683 1.516 . S
C1683 C1682 1.516 . S
C1683 C1684 1.502 . S
C1683 C1685 1.561 . S
C1683 C1686 1.526 . S
C1684 H1668 0.959 . S
C1684 H1669 0.959 . S
C1684 H1670 0.961 . S
C1684 C1683 1.502 . S
C1685 H1671 0.960 . S
C1685 H1672 0.961 . S
C1685 H1673 0.959 . S
C1685 C1683 1.561 . S
C1686 C1683 1.526 . S
C1686 C1687 1.396 . S
C1686 C1691 1.390 . S
C1687 C1681 1.465 . S
C1687 C1686 1.396 . S
C1687 C1688 1.399 . S
C1688 H1674 0.929 . S
C1688 C1687 1.399 . S
C1688 C1689 1.385 . S
C1689 H1675 0.931 . S
C1689 C1688 1.385 . S
C1689 C1690 1.389 . S
C1690 C1689 1.389 . S
C1690 C1691 1.387 . S
C1691 H1676 0.930 . S
C1691 C1686 1.390 . S
C1691 C1690 1.387 . S
H1692 C1704 0.930 . S
H1693 C1706 0.930 . S
H1694 C1707 0.930 . S
H1695 C1711 0.959 . S
H1696 C1711 0.959 . S
H1697 C1711 0.961 . S
H1698 C1712 0.960 . S
H1699 C1712 0.961 . S
H1700 C1712 0.959 . S
H1701 C1715 0.929 . S
H1702 C1716 0.931 . S
H1703 C1718 0.930 . S
C1704 H1692 0.930 . S
C1704 C1705 1.399 . S
C1704 C1709 1.399 . S
C1705 C1704 1.399 . S
C1705 C1706 1.376 . S
C1706 H1693 0.930 . S
C1706 C1705 1.376 . S
C1706 C1707 1.388 . S
C1707 H1694 0.930 . S
C1707 C1706 1.388 . S
C1707 C1708 1.390 . S
C1708 C1707 1.390 . S
C1708 C1709 1.394 . S
C1708 C1714 1.465 . S
C1709 C1704 1.399 . S
C1709 C1708 1.394 . S
C1709 C1710 1.516 . S
C1710 C1709 1.516 . S
C1710 C1711 1.502 . S
C1710 C1712 1.561 . S
C1710 C1713 1.526 . S
C1711 H1695 0.959 . S
C1711 H1696 0.959 . S
C1711 H1697 0.961 . S
C1711 C1710 1.502 . S
C1712 H1698 0.960 . S
C1712 H1699 0.961 . S
C1712 H1700 0.959 . S
C1712 C1710 1.561 . S
C1713 C1710 1.526 . S
C1713 C1714 1.396 . S
C1713 C1718 1.390 . S
C1714 C1708 1.465 . S
C1714 C1713 1.396 . S
C1714 C1715 1.399 . S
C1715 H1701 0.929 . S
C1715 C1714 1.399 . S
C1715 C1716 1.385 . S
C1716 H1702 0.931 . S
C1716 C1715 1.385 . S
C1716 C1717 1.389 . S
C1717 C1716 1.389 . S
C1717 C1718 1.387 . S
C1718 H1703 0.930 . S
C1718 C1713 1.390 . S
C1718 C1717 1.387 . S
H1719 C1731 0.930 . S
H1720 C1733 0.930 . S
H1721 C1734 0.930 . S
H1722 C1738 0.959 . S
H1723 C1738 0.959 . S
H1724 C1738 0.961 . S
H1725 C1739 0.960 . S
H1726 C1739 0.961 . S
H1727 C1739 0.959 . S
H1728 C1742 0.929 . S
H1729 C1743 0.931 . S
H1730 C1745 0.930 . S
C1731 H1719 0.930 . S
C1731 C1732 1.399 . S
C1731 C1736 1.399 . S
C1732 C1731 1.399 . S
C1732 C1733 1.376 . S
C1733 H1720 0.930 . S
C1733 C1732 1.376 . S
C1733 C1734 1.388 . S
C1734 H1721 0.930 . S
C1734 C1733 1.388 . S
C1734 C1735 1.390 . S
C1735 C1734 1.390 . S
C1735 C1736 1.394 . S
C1735 C1741 1.465 . S
C1736 C1731 1.399 . S
C1736 C1735 1.394 . S
C1736 C1737 1.516 . S
C1737 C1736 1.516 . S
C1737 C1738 1.502 . S
C1737 C1739 1.561 . S
C1737 C1740 1.526 . S
C1738 H1722 0.959 . S
C1738 H1723 0.959 . S
C1738 H1724 0.961 . S
C1738 C1737 1.502 . S
C1739 H1725 0.960 . S
C1739 H1726 0.961 . S
C1739 H1727 0.959 . S
C1739 C1737 1.561 . S
C1740 C1737 1.526 . S
C1740 C1741 1.396 . S
C1740 C1745 1.390 . S
C1741 C1735 1.465 . S
C1741 C1740 1.396 . S
C1741 C1742 1.399 . S
C1742 H1728 0.929 . S
C1742 C1741 1.399 . S
C1742 C1743 1.385 . S
C1743 H1729 0.931 . S
C1743 C1742 1.385 . S
C1743 C1744 1.389 . S
C1744 C1743 1.389 . S
C1744 C1745 1.387 . S
C1745 H1730 0.930 . S
C1745 C1740 1.390 . S
C1745 C1744 1.387 . S
H1746 C1758 0.930 . S
H1747 C1760 0.930 . S
H1748 C1761 0.930 . S
H1749 C1765 0.959 . S
H1750 C1765 0.959 . S
H1751 C1765 0.961 . S
H1752 C1766 0.960 . S
H1753 C1766 0.961 . S
H1754 C1766 0.959 . S
H1755 C1769 0.929 . S
H1756 C1770 0.931 . S
H1757 C1772 0.930 . S
C1758 H1746 0.930 . S
C1758 C1759 1.399 . S
C1758 C1763 1.399 . S
C1759 C1758 1.399 . S
C1759 C1760 1.376 . S
C1760 H1747 0.930 . S
C1760 C1759 1.376 . S
C1760 C1761 1.388 . S
C1761 H1748 0.930 . S
C1761 C1760 1.388 . S
C1761 C1762 1.390 . S
C1762 C1761 1.390 . S
C1762 C1763 1.394 . S
C1762 C1768 1.465 . S
C1763 C1758 1.399 . S
C1763 C1762 1.394 . S
C1763 C1764 1.516 . S
C1764 C1763 1.516 . S
C1764 C1765 1.502 . S
C1764 C1766 1.561 . S
C1764 C1767 1.526 . S
C1765 H1749 0.959 . S
C1765 H1750 0.959 . S
C1765 H1751 0.961 . S
C1765 C1764 1.502 . S
C1766 H1752 0.960 . S
C1766 H1753 0.961 . S
C1766 H1754 0.959 . S
C1766 C1764 1.561 . S
C1767 C1764 1.526 . S
C1767 C1768 1.396 . S
C1767 C1772 1.390 . S
C1768 C1762 1.465 . S
C1768 C1767 1.396 . S
C1768 C1769 1.399 . S
C1769 H1755 0.929 . S
C1769 C1768 1.399 . S
C1769 C1770 1.385 . S
C1770 H1756 0.931 . S
C1770 C1769 1.385 . S
C1770 C1771 1.389 . S
C1771 C1770 1.389 . S
C1771 C1772 1.387 . S
C1772 H1757 0.930 . S
C1772 C1767 1.390 . S
C1772 C1771 1.387 . S
H1773 C1785 0.930 . S
H1774 C1787 0.930 . S
H1775 C1788 0.930 . S
H1776 C1792 0.959 . S
H1777 C1792 0.959 . S
H1778 C1792 0.961 . S
H1779 C1793 0.960 . S
H1780 C1793 0.961 . S
H1781 C1793 0.959 . S
H1782 C1796 0.929 . S
H1783 C1797 0.931 . S
H1784 C1799 0.930 . S
C1785 H1773 0.930 . S
C1785 C1786 1.399 . S
C1785 C1790 1.399 . S
C1786 C1785 1.399 . S
C1786 C1787 1.376 . S
C1787 H1774 0.930 . S
C1787 C1786 1.376 . S
C1787 C1788 1.388 . S
C1788 H1775 0.930 . S
C1788 C1787 1.388 . S
C1788 C1789 1.390 . S
C1789 C1788 1.390 . S
C1789 C1790 1.394 . S
C1789 C1795 1.465 . S
C1790 C1785 1.399 . S
C1790 C1789 1.394 . S
C1790 C1791 1.516 . S
C1791 C1790 1.516 . S
C1791 C1792 1.502 . S
C1791 C1793 1.561 . S
C1791 C1794 1.526 . S
C1792 H1776 0.959 . S
C1792 H1777 0.959 . S
C1792 H1778 0.961 . S
C1792 C1791 1.502 . S
C1793 H1779 0.960 . S
C1793 H1780 0.961 . S
C1793 H1781 0.959 . S
C1793 C1791 1.561 . S
C1794 C1791 1.526 . S
C1794 C1795 1.396 . S
C1794 C1799 1.390 . S
C1795 C1789 1.465 . S
C1795 C1794 1.396 . S
C1795 C1796 1.399 . S
C1796 H1782 0.929 . S
C1796 C1795 1.399 . S
C1796 C1797 1.385 . S
C1797 H1783 0.931 . S
C1797 C1796 1.385 . S
C1797 C1798 1.389 . S
C1798 C1797 1.389 . S
C1798 C1799 1.387 . S
C1799 H1784 0.930 . S
C1799 C1794 1.390 . S
C1799 C1798 1.387 . S
H1800 C1812 0.930 . S
H1801 C1814 0.930 . S
H1802 C1815 0.930 . S
H1803 C1819 0.959 . S
H1804 C1819 0.959 . S
H1805 C1819 0.961 . S
H1806 C1820 0.960 . S
H1807 C1820 0.961 . S
H1808 C1820 0.959 . S
H1809 C1823 0.929 . S
H1810 C1824 0.931 . S
H1811 C1826 0.930 . S
C1812 H1800 0.930 . S
C1812 C1813 1.399 . S
C1812 C1817 1.399 . S
C1813 C1812 1.399 . S
C1813 C1814 1.376 . S
C1814 H1801 0.930 . S
C1814 C1813 1.376 . S
C1814 C1815 1.388 . S
C1815 H1802 0.930 . S
C1815 C1814 1.388 . S
C1815 C1816 1.390 . S
C1816 C1815 1.390 . S
C1816 C1817 1.394 . S
C1816 C1822 1.465 . S
C1817 C1812 1.399 . S
C1817 C1816 1.394 . S
C1817 C1818 1.516 . S
C1818 C1817 1.516 . S
C1818 C1819 1.502 . S
C1818 C1820 1.561 . S
C1818 C1821 1.526 . S
C1819 H1803 0.959 . S
C1819 H1804 0.959 . S
C1819 H1805 0.961 . S
C1819 C1818 1.502 . S
C1820 H1806 0.960 . S
C1820 H1807 0.961 . S
C1820 H1808 0.959 . S
C1820 C1818 1.561 . S
C1821 C1818 1.526 . S
C1821 C1822 1.396 . S
C1821 C1826 1.390 . S
C1822 C1816 1.465 . S
C1822 C1821 1.396 . S
C1822 C1823 1.399 . S
C1823 H1809 0.929 . S
C1823 C1822 1.399 . S
C1823 C1824 1.385 . S
C1824 H1810 0.931 . S
C1824 C1823 1.385 . S
C1824 C1825 1.389 . S
C1825 C1824 1.389 . S
C1825 C1826 1.387 . S
C1826 H1811 0.930 . S
C1826 C1821 1.390 . S
C1826 C1825 1.387 . S
H1827 C1839 0.930 . S
H1828 C1841 0.930 . S
H1829 C1842 0.930 . S
H1830 C1846 0.959 . S
H1831 C1846 0.959 . S
H1832 C1846 0.961 . S
H1833 C1847 0.960 . S
H1834 C1847 0.961 . S
H1835 C1847 0.959 . S
H1836 C1850 0.929 . S
H1837 C1851 0.931 . S
H1838 C1853 0.930 . S
C1839 H1827 0.930 . S
C1839 C1840 1.399 . S
C1839 C1844 1.399 . S
C1840 C1839 1.399 . S
C1840 C1841 1.376 . S
C1841 H1828 0.930 . S
C1841 C1840 1.376 . S
C1841 C1842 1.388 . S
C1842 H1829 0.930 . S
C1842 C1841 1.388 . S
C1842 C1843 1.390 . S
C1843 C1842 1.390 . S
C1843 C1844 1.394 . S
C1843 C1849 1.465 . S
C1844 C1839 1.399 . S
C1844 C1843 1.394 . S
C1844 C1845 1.516 . S
C1845 C1844 1.516 . S
C1845 C1846 1.502 . S
C1845 C1847 1.561 . S
C1845 C1848 1.526 . S
C1846 H1830 0.959 . S
C1846 H1831 0.959 . S
C1846 H1832 0.961 . S
C1846 C1845 1.502 . S
C1847 H1833 0.960 . S
C1847 H1834 0.961 . S
C1847 H1835 0.959 . S
C1847 C1845 1.561 . S
C1848 C1845 1.526 . S
C1848 C1849 1.396 . S
C1848 C1853 1.390 . S
C1849 C1843 1.465 . S
C1849 C1848 1.396 . S
C1849 C1850 1.399 . S
C1850 H1836 0.929 . S
C1850 C1849 1.399 . S
C1850 C1851 1.385 . S
C1851 H1837 0.931 . S
C1851 C1850 1.385 . S
C1851 C1852 1.389 . S
C1852 C1851 1.389 . S
C1852 C1853 1.387 . S
C1853 H1838 0.930 . S
C1853 C1848 1.390 . S
C1853 C1852 1.387 . S
H1854 C1866 0.930 . S
H1855 C1868 0.930 . S
H1856 C1869 0.930 . S
H1857 C1873 0.959 . S
H1858 C1873 0.959 . S
H1859 C1873 0.961 . S
H1860 C1874 0.960 . S
H1861 C1874 0.961 . S
H1862 C1874 0.959 . S
H1863 C1877 0.929 . S
H1864 C1878 0.931 . S
H1865 C1880 0.930 . S
C1866 H1854 0.930 . S
C1866 C1867 1.399 . S
C1866 C1871 1.399 . S
C1867 C1866 1.399 . S
C1867 C1868 1.376 . S
C1868 H1855 0.930 . S
C1868 C1867 1.376 . S
C1868 C1869 1.388 . S
C1869 H1856 0.930 . S
C1869 C1868 1.388 . S
C1869 C1870 1.390 . S
C1870 C1869 1.390 . S
C1870 C1871 1.394 . S
C1870 C1876 1.465 . S
C1871 C1866 1.399 . S
C1871 C1870 1.394 . S
C1871 C1872 1.516 . S
C1872 C1871 1.516 . S
C1872 C1873 1.502 . S
C1872 C1874 1.561 . S
C1872 C1875 1.526 . S
C1873 H1857 0.959 . S
C1873 H1858 0.959 . S
C1873 H1859 0.961 . S
C1873 C1872 1.502 . S
C1874 H1860 0.960 . S
C1874 H1861 0.961 . S
C1874 H1862 0.959 . S
C1874 C1872 1.561 . S
C1875 C1872 1.526 . S
C1875 C1876 1.396 . S
C1875 C1880 1.390 . S
C1876 C1870 1.465 . S
C1876 C1875 1.396 . S
C1876 C1877 1.399 . S
C1877 H1863 0.929 . S
C1877 C1876 1.399 . S
C1877 C1878 1.385 . S
C1878 H1864 0.931 . S
C1878 C1877 1.385 . S
C1878 C1879 1.389 . S
C1879 C1878 1.389 . S
C1879 C1880 1.387 . S
C1880 H1865 0.930 . S
C1880 C1875 1.390 . S
C1880 C1879 1.387 . S
H1881 C1893 0.930 . S
H1882 C1895 0.930 . S
H1883 C1896 0.930 . S
H1884 C1900 0.959 . S
H1885 C1900 0.959 . S
H1886 C1900 0.961 . S
H1887 C1901 0.960 . S
H1888 C1901 0.961 . S
H1889 C1901 0.959 . S
H1890 C1904 0.929 . S
H1891 C1905 0.931 . S
H1892 C1907 0.930 . S
C1893 H1881 0.930 . S
C1893 C1894 1.399 . S
C1893 C1898 1.399 . S
C1894 C1893 1.399 . S
C1894 C1895 1.376 . S
C1895 H1882 0.930 . S
C1895 C1894 1.376 . S
C1895 C1896 1.388 . S
C1896 H1883 0.930 . S
C1896 C1895 1.388 . S
C1896 C1897 1.390 . S
C1897 C1896 1.390 . S
C1897 C1898 1.394 . S
C1897 C1903 1.465 . S
C1898 C1893 1.399 . S
C1898 C1897 1.394 . S
C1898 C1899 1.516 . S
C1899 C1898 1.516 . S
C1899 C1900 1.502 . S
C1899 C1901 1.561 . S
C1899 C1902 1.526 . S
C1900 H1884 0.959 . S
C1900 H1885 0.959 . S
C1900 H1886 0.961 . S
C1900 C1899 1.502 . S
C1901 H1887 0.960 . S
C1901 H1888 0.961 . S
C1901 H1889 0.959 . S
C1901 C1899 1.561 . S
C1902 C1899 1.526 . S
C1902 C1903 1.396 . S
C1902 C1907 1.390 . S
C1903 C1897 1.465 . S
C1903 C1902 1.396 . S
C1903 C1904 1.399 . S
C1904 H1890 0.929 . S
C1904 C1903 1.399 . S
C1904 C1905 1.385 . S
C1905 H1891 0.931 . S
C1905 C1904 1.385 . S
C1905 C1906 1.389 . S
C1906 C1905 1.389 . S
C1906 C1907 1.387 . S
C1907 H1892 0.930 . S
C1907 C1902 1.390 . S
C1907 C1906 1.387 . S
H1908 C1920 0.930 . S
H1909 C1922 0.930 . S
H1910 C1923 0.930 . S
H1911 C1927 0.959 . S
H1912 C1927 0.959 . S
H1913 C1927 0.961 . S
H1914 C1928 0.960 . S
H1915 C1928 0.961 . S
H1916 C1928 0.959 . S
H1917 C1931 0.929 . S
H1918 C1932 0.931 . S
H1919 C1934 0.930 . S
C1920 H1908 0.930 . S
C1920 C1921 1.399 . S
C1920 C1925 1.399 . S
C1921 C1920 1.399 . S
C1921 C1922 1.376 . S
C1922 H1909 0.930 . S
C1922 C1921 1.376 . S
C1922 C1923 1.388 . S
C1923 H1910 0.930 . S
C1923 C1922 1.388 . S
C1923 C1924 1.390 . S
C1924 C1923 1.390 . S
C1924 C1925 1.394 . S
C1924 C1930 1.465 . S
C1925 C1920 1.399 . S
C1925 C1924 1.394 . S
C1925 C1926 1.516 . S
C1926 C1925 1.516 . S
C1926 C1927 1.502 . S
C1926 C1928 1.561 . S
C1926 C1929 1.526 . S
C1927 H1911 0.959 . S
C1927 H1912 0.959 . S
C1927 H1913 0.961 . S
C1927 C1926 1.502 . S
C1928 H1914 0.960 . S
C1928 H1915 0.961 . S
C1928 H1916 0.959 . S
C1928 C1926 1.561 . S
C1929 C1926 1.526 . S
C1929 C1930 1.396 . S
C1929 C1934 1.390 . S
C1930 C1924 1.465 . S
C1930 C1929 1.396 . S
C1930 C1931 1.399 . S
C1931 H1917 0.929 . S
C1931 C1930 1.399 . S
C1931 C1932 1.385 . S
C1932 H1918 0.931 . S
C1932 C1931 1.385 . S
C1932 C1933 1.389 . S
C1933 C1932 1.389 . S
C1933 C1934 1.387 . S
C1934 H1919 0.930 . S
C1934 C1929 1.390 . S
C1934 C1933 1.387 . S
H1935 C1947 0.930 . S
H1936 C1949 0.930 . S
H1937 C1950 0.930 . S
H1938 C1954 0.959 . S
H1939 C1954 0.959 . S
H1940 C1954 0.961 . S
H1941 C1955 0.960 . S
H1942 C1955 0.961 . S
H1943 C1955 0.959 . S
H1944 C1958 0.929 . S
H1945 C1959 0.931 . S
H1946 C1961 0.930 . S
C1947 H1935 0.930 . S
C1947 C1948 1.399 . S
C1947 C1952 1.399 . S
C1948 C1947 1.399 . S
C1948 C1949 1.376 . S
C1949 H1936 0.930 . S
C1949 C1948 1.376 . S
C1949 C1950 1.388 . S
C1950 H1937 0.930 . S
C1950 C1949 1.388 . S
C1950 C1951 1.390 . S
C1951 C1950 1.390 . S
C1951 C1952 1.394 . S
C1951 C1957 1.465 . S
C1952 C1947 1.399 . S
C1952 C1951 1.394 . S
C1952 C1953 1.516 . S
C1953 C1952 1.516 . S
C1953 C1954 1.502 . S
C1953 C1955 1.561 . S
C1953 C1956 1.526 . S
C1954 H1938 0.959 . S
C1954 H1939 0.959 . S
C1954 H1940 0.961 . S
C1954 C1953 1.502 . S
C1955 H1941 0.960 . S
C1955 H1942 0.961 . S
C1955 H1943 0.959 . S
C1955 C1953 1.561 . S
C1956 C1953 1.526 . S
C1956 C1957 1.396 . S
C1956 C1961 1.390 . S
C1957 C1951 1.465 . S
C1957 C1956 1.396 . S
C1957 C1958 1.399 . S
C1958 H1944 0.929 . S
C1958 C1957 1.399 . S
C1958 C1959 1.385 . S
C1959 H1945 0.931 . S
C1959 C1958 1.385 . S
C1959 C1960 1.389 . S
C1960 C1959 1.389 . S
C1960 C1961 1.387 . S
C1961 H1946 0.930 . S
C1961 C1956 1.390 . S
C1961 C1960 1.387 . S
H1962 C1974 0.930 . S
H1963 C1976 0.930 . S
H1964 C1977 0.930 . S
H1965 C1981 0.959 . S
H1966 C1981 0.959 . S
H1967 C1981 0.961 . S
H1968 C1982 0.960 . S
H1969 C1982 0.961 . S
H1970 C1982 0.959 . S
H1971 C1985 0.929 . S
H1972 C1986 0.931 . S
H1973 C1988 0.930 . S
C1974 H1962 0.930 . S
C1974 C1975 1.399 . S
C1974 C1979 1.399 . S
C1975 C1974 1.399 . S
C1975 C1976 1.376 . S
C1976 H1963 0.930 . S
C1976 C1975 1.376 . S
C1976 C1977 1.388 . S
C1977 H1964 0.930 . S
C1977 C1976 1.388 . S
C1977 C1978 1.390 . S
C1978 C1977 1.390 . S
C1978 C1979 1.394 . S
C1978 C1984 1.465 . S
C1979 C1974 1.399 . S
C1979 C1978 1.394 . S
C1979 C1980 1.516 . S
C1980 C1979 1.516 . S
C1980 C1981 1.502 . S
C1980 C1982 1.561 . S
C1980 C1983 1.526 . S
C1981 H1965 0.959 . S
C1981 H1966 0.959 . S
C1981 H1967 0.961 . S
C1981 C1980 1.502 . S
C1982 H1968 0.960 . S
C1982 H1969 0.961 . S
C1982 H1970 0.959 . S
C1982 C1980 1.561 . S
C1983 C1980 1.526 . S
C1983 C1984 1.396 . S
C1983 C1988 1.390 . S
C1984 C1978 1.465 . S
C1984 C1983 1.396 . S
C1984 C1985 1.399 . S
C1985 H1971 0.929 . S
C1985 C1984 1.399 . S
C1985 C1986 1.385 . S
C1986 H1972 0.931 . S
C1986 C1985 1.385 . S
C1986 C1987 1.389 . S
C1987 C1986 1.389 . S
C1987 C1988 1.387 . S
C1988 H1973 0.930 . S
C1988 C1983 1.390 . S
C1988 C1987 1.387 . S
H1989 C2001 0.930 . S
H1990 C2003 0.930 . S
H1991 C2004 0.930 . S
H1992 C2008 0.959 . S
H1993 C2008 0.959 . S
H1994 C2008 0.961 . S
H1995 C2009 0.960 . S
H1996 C2009 0.961 . S
H1997 C2009 0.959 . S
H1998 C2012 0.929 . S
H1999 C2013 0.931 . S
H2000 C2015 0.930 . S
C2001 H1989 0.930 . S
C2001 C2002 1.399 . S
C2001 C2006 1.399 . S
C2002 C2001 1.399 . S
C2002 C2003 1.376 1_545 S
C2003 H1990 0.930 . S
C2003 C2002 1.376 1_565 S
C2003 C2004 1.388 . S
C2004 H1991 0.930 . S
C2004 C2003 1.388 . S
C2004 C2005 1.390 . S
C2005 C2004 1.390 . S
C2005 C2006 1.394 1_565 S
C2005 C2011 1.465 . S
C2006 C2001 1.399 . S
C2006 C2005 1.394 1_545 S
C2006 C2007 1.516 . S
C2007 C2006 1.516 . S
C2007 C2008 1.502 . S
C2007 C2009 1.561 . S
C2007 C2010 1.526 . S
C2008 H1992 0.959 . S
C2008 H1993 0.959 . S
C2008 H1994 0.961 . S
C2008 C2007 1.502 . S
C2009 H1995 0.960 . S
C2009 H1996 0.961 . S
C2009 H1997 0.959 . S
C2009 C2007 1.561 . S
C2010 C2007 1.526 . S
C2010 C2011 1.396 1_545 S
C2010 C2015 1.390 . S
C2011 C2005 1.465 . S
C2011 C2010 1.396 1_565 S
C2011 C2012 1.399 . S
C2012 H1998 0.929 . S
C2012 C2011 1.399 . S
C2012 C2013 1.385 . S
C2013 H1999 0.931 . S
C2013 C2012 1.385 . S
C2013 C2014 1.389 . S
C2014 C2013 1.389 . S
C2014 C2015 1.387 1_565 S
C2015 H2000 0.930 . S
C2015 C2010 1.390 . S
C2015 C2014 1.387 1_545 S
H2016 C2028 0.930 . S
H2017 C2030 0.930 . S
H2018 C2031 0.930 . S
H2019 C2035 0.959 . S
H2020 C2035 0.959 . S
H2021 C2035 0.961 . S
H2022 C2036 0.960 . S
H2023 C2036 0.961 . S
H2024 C2036 0.959 . S
H2025 C2039 0.929 . S
H2026 C2040 0.931 . S
H2027 C2042 0.930 . S
C2028 H2016 0.930 . S
C2028 C2029 1.399 1_655 S
C2028 C2033 1.399 . S
C2029 C2028 1.399 1_455 S
C2029 C2030 1.376 . S
C2030 H2017 0.930 . S
C2030 C2029 1.376 . S
C2030 C2031 1.388 . S
C2031 H2018 0.930 . S
C2031 C2030 1.388 . S
C2031 C2032 1.390 . S
C2032 C2031 1.390 . S
C2032 C2033 1.394 1_455 S
C2032 C2038 1.465 . S
C2033 C2028 1.399 . S
C2033 C2032 1.394 1_655 S
C2033 C2034 1.516 . S
C2034 C2033 1.516 . S
C2034 C2035 1.502 . S
C2034 C2036 1.561 . S
C2034 C2037 1.526 . S
C2035 H2019 0.959 . S
C2035 H2020 0.959 . S
C2035 H2021 0.961 . S
C2035 C2034 1.502 . S
C2036 H2022 0.960 . S
C2036 H2023 0.961 . S
C2036 H2024 0.959 . S
C2036 C2034 1.561 . S
C2037 C2034 1.526 . S
C2037 C2038 1.396 1_655 S
C2037 C2042 1.390 . S
C2038 C2032 1.465 . S
C2038 C2037 1.396 1_455 S
C2038 C2039 1.399 . S
C2039 H2025 0.929 . S
C2039 C2038 1.399 . S
C2039 C2040 1.385 . S
C2040 H2026 0.931 . S
C2040 C2039 1.385 . S
C2040 C2041 1.389 1_455 S
C2041 C2040 1.389 1_655 S
C2041 C2042 1.387 . S
C2042 H2027 0.930 . S
C2042 C2037 1.390 . S
C2042 C2041 1.387 . S
H2043 C2055 0.930 . S
H2044 C2057 0.930 . S
H2045 C2058 0.930 . S
H2046 C2062 0.959 . S
H2047 C2062 0.959 . S
H2048 C2062 0.961 . S
H2049 C2063 0.960 . S
H2050 C2063 0.961 . S
H2051 C2063 0.959 . S
H2052 C2066 0.929 . S
H2053 C2067 0.931 . S
H2054 C2069 0.930 . S
C2055 H2043 0.930 . S
C2055 C2056 1.399 . S
C2055 C2060 1.399 . S
C2056 C2055 1.399 . S
C2056 C2057 1.376 . S
C2057 H2044 0.930 . S
C2057 C2056 1.376 . S
C2057 C2058 1.388 . S
C2058 H2045 0.930 . S
C2058 C2057 1.388 . S
C2058 C2059 1.390 . S
C2059 C2058 1.390 . S
C2059 C2060 1.394 . S
C2059 C2065 1.465 . S
C2060 C2055 1.399 . S
C2060 C2059 1.394 . S
C2060 C2061 1.516 . S
C2061 C2060 1.516 . S
C2061 C2062 1.502 . S
C2061 C2063 1.561 . S
C2061 C2064 1.526 . S
C2062 H2046 0.959 . S
C2062 H2047 0.959 . S
C2062 H2048 0.961 . S
C2062 C2061 1.502 . S
C2063 H2049 0.960 . S
C2063 H2050 0.961 . S
C2063 H2051 0.959 . S
C2063 C2061 1.561 . S
C2064 C2061 1.526 . S
C2064 C2065 1.396 . S
C2064 C2069 1.390 . S
C2065 C2059 1.465 . S
C2065 C2064 1.396 . S
C2065 C2066 1.399 . S
C2066 H2052 0.929 . S
C2066 C2065 1.399 . S
C2066 C2067 1.385 . S
C2067 H2053 0.931 . S
C2067 C2066 1.385 . S
C2067 C2068 1.389 . S
C2068 C2067 1.389 . S
C2068 C2069 1.387 . S
C2069 H2054 0.930 . S
C2069 C2064 1.390 . S
C2069 C2068 1.387 . S
H2070 C2082 0.930 . S
H2071 C2084 0.930 . S
H2072 C2085 0.930 . S
H2073 C2089 0.959 . S
H2074 C2089 0.959 . S
H2075 C2089 0.961 . S
H2076 C2090 0.960 . S
H2077 C2090 0.961 . S
H2078 C2090 0.959 . S
H2079 C2093 0.929 . S
H2080 C2094 0.931 . S
H2081 C2096 0.930 . S
C2082 H2070 0.930 . S
C2082 C2083 1.399 1_565 S
C2082 C2087 1.399 . S
C2083 C2082 1.399 1_545 S
C2083 C2084 1.376 . S
C2084 H2071 0.930 . S
C2084 C2083 1.376 . S
C2084 C2085 1.388 . S
C2085 H2072 0.930 . S
C2085 C2084 1.388 . S
C2085 C2086 1.390 . S
C2086 C2085 1.390 . S
C2086 C2087 1.394 1_545 S
C2086 C2092 1.465 . S
C2087 C2082 1.399 . S
C2087 C2086 1.394 1_565 S
C2087 C2088 1.516 . S
C2088 C2087 1.516 . S
C2088 C2089 1.502 . S
C2088 C2090 1.561 . S
C2088 C2091 1.526 . S
C2089 H2073 0.959 . S
C2089 H2074 0.959 . S
C2089 H2075 0.961 . S
C2089 C2088 1.502 . S
C2090 H2076 0.960 . S
C2090 H2077 0.961 . S
C2090 H2078 0.959 . S
C2090 C2088 1.561 . S
C2091 C2088 1.526 . S
C2091 C2092 1.396 1_565 S
C2091 C2096 1.390 . S
C2092 C2086 1.465 . S
C2092 C2091 1.396 1_545 S
C2092 C2093 1.399 . S
C2093 H2079 0.929 . S
C2093 C2092 1.399 . S
C2093 C2094 1.385 . S
C2094 H2080 0.931 . S
C2094 C2093 1.385 . S
C2094 C2095 1.389 1_545 S
C2095 C2094 1.389 1_565 S
C2095 C2096 1.387 . S
C2096 H2081 0.930 . S
C2096 C2091 1.390 . S
C2096 C2095 1.387 . S
H2097 C2109 0.930 . S
H2098 C2111 0.930 . S
H2099 C2112 0.930 . S
H2100 C2116 0.959 . S
H2101 C2116 0.959 . S
H2102 C2116 0.961 . S
H2103 C2117 0.960 . S
H2104 C2117 0.961 . S
H2105 C2117 0.927 1_455 S
H2106 C2120 0.929 . S
H2107 C2121 0.931 . S
H2108 C2123 0.930 . S
C2109 H2097 0.930 . S
C2109 C2110 1.399 . S
C2109 C2114 1.399 . S
C2110 C2109 1.399 . S
C2110 C2111 1.376 1_655 S
C2111 H2098 0.930 . S
C2111 C2110 1.376 1_455 S
C2111 C2112 1.388 . S
C2112 H2099 0.930 . S
C2112 C2111 1.388 . S
C2112 C2113 1.390 . S
C2113 C2112 1.390 . S
C2113 C2114 1.394 1_455 S
C2113 C2119 1.465 . S
C2114 C2109 1.399 . S
C2114 C2113 1.394 1_655 S
C2114 C2115 1.516 . S
C2115 C2114 1.516 . S
C2115 C2116 1.502 . S
C2115 C2117 1.561 . S
C2115 C2118 1.526 . S
C2116 H2100 0.959 . S
C2116 H2101 0.959 . S
C2116 H2102 0.961 . S
C2116 C2115 1.502 . S
C2117 H2103 0.960 . S
C2117 H2104 0.961 . S
C2117 H2105 0.927 1_655 S
C2117 C2115 1.561 . S
C2118 C2115 1.526 . S
C2118 C2119 1.396 1_655 S
C2118 C2123 1.390 . S
C2119 C2113 1.465 . S
C2119 C2118 1.396 1_455 S
C2119 C2120 1.399 . S
C2120 H2106 0.929 . S
C2120 C2119 1.399 . S
C2120 C2121 1.385 . S
C2121 H2107 0.931 . S
C2121 C2120 1.385 . S
C2121 C2122 1.389 . S
C2122 C2121 1.389 . S
C2122 C2123 1.387 1_455 S
C2123 H2108 0.930 . S
C2123 C2118 1.390 . S
C2123 C2122 1.387 1_655 S
H2124 C2136 0.930 . S
H2125 C2138 0.930 . S
H2126 C2139 0.930 . S
H2127 C2143 0.959 . S
H2128 C2143 0.959 . S
H2129 C2143 0.961 . S
H2130 C2144 0.960 . S
H2131 C2144 0.961 . S
H2132 C2144 0.959 . S
H2133 C2147 0.929 . S
H2134 C2148 0.931 . S
H2135 C2150 0.930 . S
C2136 H2124 0.930 . S
C2136 C2137 1.399 . S
C2136 C2141 1.399 . S
C2137 C2136 1.399 . S
C2137 C2138 1.376 . S
C2138 H2125 0.930 . S
C2138 C2137 1.376 . S
C2138 C2139 1.388 . S
C2139 H2126 0.930 . S
C2139 C2138 1.388 . S
C2139 C2140 1.390 . S
C2140 C2139 1.390 . S
C2140 C2141 1.394 . S
C2140 C2146 1.465 . S
C2141 C2136 1.399 . S
C2141 C2140 1.394 . S
C2141 C2142 1.516 . S
C2142 C2141 1.516 . S
C2142 C2143 1.502 . S
C2142 C2144 1.561 . S
C2142 C2145 1.526 . S
C2143 H2127 0.959 . S
C2143 H2128 0.959 . S
C2143 H2129 0.961 . S
C2143 C2142 1.502 . S
C2144 H2130 0.960 . S
C2144 H2131 0.961 . S
C2144 H2132 0.959 . S
C2144 C2142 1.561 . S
C2145 C2142 1.526 . S
C2145 C2146 1.396 . S
C2145 C2150 1.390 . S
C2146 C2140 1.465 . S
C2146 C2145 1.396 . S
C2146 C2147 1.399 . S
C2147 H2133 0.929 . S
C2147 C2146 1.399 . S
C2147 C2148 1.385 . S
C2148 H2134 0.931 . S
C2148 C2147 1.385 . S
C2148 C2149 1.389 . S
C2149 C2148 1.389 . S
C2149 C2150 1.387 . S
C2150 H2135 0.930 . S
C2150 C2145 1.390 . S
C2150 C2149 1.387 . S
H2151 C2163 0.930 . S
H2152 C2165 0.930 . S
H2153 C2166 0.930 . S
H2154 C2170 0.959 . S
H2155 C2170 0.959 . S
H2156 C2170 0.961 . S
H2157 C2171 0.960 . S
H2158 C2171 0.961 . S
H2159 C2171 0.959 . S
H2160 C2174 0.929 . S
H2161 C2175 0.931 . S
H2162 C2177 0.930 . S
C2163 H2151 0.930 . S
C2163 C2164 1.399 . S
C2163 C2168 1.399 . S
C2164 C2163 1.399 . S
C2164 C2165 1.376 . S
C2165 H2152 0.930 . S
C2165 C2164 1.376 . S
C2165 C2166 1.388 . S
C2166 H2153 0.930 . S
C2166 C2165 1.388 . S
C2166 C2167 1.390 . S
C2167 C2166 1.390 . S
C2167 C2168 1.394 . S
C2167 C2173 1.465 . S
C2168 C2163 1.399 . S
C2168 C2167 1.394 . S
C2168 C2169 1.516 . S
C2169 C2168 1.516 . S
C2169 C2170 1.502 . S
C2169 C2171 1.561 . S
C2169 C2172 1.526 . S
C2170 H2154 0.959 . S
C2170 H2155 0.959 . S
C2170 H2156 0.961 . S
C2170 C2169 1.502 . S
C2171 H2157 0.960 . S
C2171 H2158 0.961 . S
C2171 H2159 0.959 . S
C2171 C2169 1.561 . S
C2172 C2169 1.526 . S
C2172 C2173 1.396 . S
C2172 C2177 1.390 . S
C2173 C2167 1.465 . S
C2173 C2172 1.396 . S
C2173 C2174 1.399 . S
C2174 H2160 0.929 . S
C2174 C2173 1.399 . S
C2174 C2175 1.385 . S
C2175 H2161 0.931 . S
C2175 C2174 1.385 . S
C2175 C2176 1.389 . S
C2176 C2175 1.389 . S
C2176 C2177 1.387 . S
C2177 H2162 0.930 . S
C2177 C2172 1.390 . S
C2177 C2176 1.387 . S
H2178 C2190 0.930 . S
H2179 C2192 0.930 . S
H2180 C2193 0.930 . S
H2181 C2197 0.959 . S
H2182 C2197 0.959 . S
H2183 C2197 0.961 . S
H2184 C2198 0.960 . S
H2185 C2198 0.961 . S
H2186 C2198 0.959 . S
H2187 C2201 0.929 . S
H2188 C2202 0.931 . S
H2189 C2204 0.930 . S
C2190 H2178 0.930 . S
C2190 C2191 1.399 . S
C2190 C2195 1.399 . S
C2191 C2190 1.399 . S
C2191 C2192 1.376 . S
C2192 H2179 0.930 . S
C2192 C2191 1.376 . S
C2192 C2193 1.388 . S
C2193 H2180 0.930 . S
C2193 C2192 1.388 . S
C2193 C2194 1.390 . S
C2194 C2193 1.390 . S
C2194 C2195 1.394 . S
C2194 C2200 1.465 . S
C2195 C2190 1.399 . S
C2195 C2194 1.394 . S
C2195 C2196 1.516 . S
C2196 C2195 1.516 . S
C2196 C2197 1.502 . S
C2196 C2198 1.561 . S
C2196 C2199 1.526 . S
C2197 H2181 0.959 . S
C2197 H2182 0.959 . S
C2197 H2183 0.961 . S
C2197 C2196 1.502 . S
C2198 H2184 0.960 . S
C2198 H2185 0.961 . S
C2198 H2186 0.959 . S
C2198 C2196 1.561 . S
C2199 C2196 1.526 . S
C2199 C2200 1.396 . S
C2199 C2204 1.390 . S
C2200 C2194 1.465 . S
C2200 C2199 1.396 . S
C2200 C2201 1.399 . S
C2201 H2187 0.929 . S
C2201 C2200 1.399 . S
C2201 C2202 1.385 . S
C2202 H2188 0.931 . S
C2202 C2201 1.385 . S
C2202 C2203 1.389 . S
C2203 C2202 1.389 . S
C2203 C2204 1.387 . S
C2204 H2189 0.930 . S
C2204 C2199 1.390 . S
C2204 C2203 1.387 . S
H2205 C2217 0.930 . S
H2206 C2219 0.930 . S
H2207 C2220 0.930 . S
H2208 C2224 0.959 . S
H2209 C2224 0.959 . S
H2210 C2224 0.961 . S
H2211 C2225 0.960 . S
H2212 C2225 0.961 . S
H2213 C2225 0.959 . S
H2214 C2228 0.929 . S
H2215 C2229 0.948 . S
H2216 C2231 0.930 . S
C2217 H2205 0.930 . S
C2217 C2218 1.399 . S
C2217 C2222 1.399 . S
C2218 C2217 1.399 . S
C2218 C2219 1.376 . S
C2219 H2206 0.930 . S
C2219 C2218 1.376 . S
C2219 C2220 1.388 . S
C2220 H2207 0.930 . S
C2220 C2219 1.388 . S
C2220 C2221 1.390 . S
C2221 C2220 1.390 . S
C2221 C2222 1.394 . S
C2221 C2227 1.465 . S
C2222 C2217 1.399 . S
C2222 C2221 1.394 . S
C2222 C2223 1.516 . S
C2223 C2222 1.516 . S
C2223 C2224 1.502 . S
C2223 C2225 1.561 . S
C2223 C2226 1.526 . S
C2224 H2208 0.959 . S
C2224 H2209 0.959 . S
C2224 H2210 0.961 . S
C2224 C2223 1.502 . S
C2225 H2211 0.960 . S
C2225 H2212 0.961 . S
C2225 H2213 0.959 . S
C2225 C2223 1.561 . S
C2226 C2223 1.526 . S
C2226 C2227 1.396 . S
C2226 C2231 1.390 . S
C2227 C2221 1.465 . S
C2227 C2226 1.396 . S
C2227 C2228 1.399 . S
C2228 H2214 0.929 . S
C2228 C2227 1.399 . S
C2228 C2229 1.363 1_554 S
C2229 H2215 0.948 . S
C2229 C2228 1.363 1_556 S
C2229 C2230 1.395 . S
C2230 C2229 1.395 . S
C2230 C2231 1.387 1_556 S
C2231 H2216 0.930 . S
C2231 C2226 1.390 . S
C2231 C2230 1.387 1_554 S
H2232 C2244 0.930 . S
H2233 C2246 0.930 . S
H2234 C2247 0.930 . S
H2235 C2251 0.959 . S
H2236 C2251 0.959 . S
H2237 C2251 0.961 . S
H2238 C2252 0.960 . S
H2239 C2252 0.961 . S
H2240 C2252 0.959 . S
H2241 C2255 0.929 . S
H2242 C2256 0.931 1_556 S
H2243 C2258 0.930 . S
C2244 H2232 0.930 . S
C2244 C2245 1.399 . S
C2244 C2249 1.399 . S
C2245 C2244 1.399 . S
C2245 C2246 1.376 . S
C2246 H2233 0.930 . S
C2246 C2245 1.376 . S
C2246 C2247 1.388 . S
C2247 H2234 0.930 . S
C2247 C2246 1.388 . S
C2247 C2248 1.390 . S
C2248 C2247 1.390 . S
C2248 C2249 1.394 . S
C2248 C2254 1.465 . S
C2249 C2244 1.399 . S
C2249 C2248 1.394 . S
C2249 C2250 1.516 . S
C2250 C2249 1.516 . S
C2250 C2251 1.502 . S
C2250 C2252 1.561 . S
C2250 C2253 1.526 . S
C2251 H2235 0.959 . S
C2251 H2236 0.959 . S
C2251 H2237 0.961 . S
C2251 C2250 1.502 . S
C2252 H2238 0.960 . S
C2252 H2239 0.961 . S
C2252 H2240 0.959 . S
C2252 C2250 1.561 . S
C2253 C2250 1.526 . S
C2253 C2254 1.396 . S
C2253 C2258 1.390 . S
C2254 C2248 1.465 . S
C2254 C2253 1.396 . S
C2254 C2255 1.399 . S
C2255 H2241 0.929 . S
C2255 C2254 1.399 . S
C2255 C2256 1.385 . S
C2256 H2242 0.931 1_554 S
C2256 C2255 1.385 . S
C2256 C2257 1.389 1_554 S
C2257 C2256 1.389 1_556 S
C2257 C2258 1.387 1_556 S
C2258 H2243 0.930 . S
C2258 C2253 1.390 . S
C2258 C2257 1.387 1_554 S
H2259 C2271 0.930 . S
H2260 C2273 0.930 . S
H2261 C2274 0.930 . S
H2262 C2278 0.959 . S
H2263 C2278 0.959 . S
H2264 C2278 0.961 . S
H2265 C2279 0.960 . S
H2266 C2279 0.961 . S
H2267 C2279 0.959 . S
H2268 C2282 0.929 . S
H2269 C2283 0.931 1_556 S
H2270 C2285 0.930 . S
C2271 H2259 0.930 . S
C2271 C2272 1.399 . S
C2271 C2276 1.399 . S
C2272 C2271 1.399 . S
C2272 C2273 1.376 . S
C2273 H2260 0.930 . S
C2273 C2272 1.376 . S
C2273 C2274 1.388 . S
C2274 H2261 0.930 . S
C2274 C2273 1.388 . S
C2274 C2275 1.390 . S
C2275 C2274 1.390 . S
C2275 C2276 1.394 . S
C2275 C2281 1.465 . S
C2276 C2271 1.399 . S
C2276 C2275 1.394 . S
C2276 C2277 1.516 . S
C2277 C2276 1.516 . S
C2277 C2278 1.502 . S
C2277 C2279 1.561 . S
C2277 C2280 1.526 . S
C2278 H2262 0.959 . S
C2278 H2263 0.959 . S
C2278 H2264 0.961 . S
C2278 C2277 1.502 . S
C2279 H2265 0.960 . S
C2279 H2266 0.961 . S
C2279 H2267 0.959 . S
C2279 C2277 1.561 . S
C2280 C2277 1.526 . S
C2280 C2281 1.396 . S
C2280 C2285 1.390 . S
C2281 C2275 1.465 . S
C2281 C2280 1.396 . S
C2281 C2282 1.399 . S
C2282 H2268 0.929 . S
C2282 C2281 1.399 . S
C2282 C2283 1.385 . S
C2283 H2269 0.931 1_554 S
C2283 C2282 1.385 . S
C2283 C2284 1.389 1_554 S
C2284 C2283 1.389 1_556 S
C2284 C2285 1.387 1_556 S
C2285 H2270 0.930 . S
C2285 C2280 1.390 . S
C2285 C2284 1.387 1_554 S
H2286 C2298 0.930 . S
H2287 C2300 0.930 . S
H2288 C2301 0.930 . S
H2289 C2305 0.959 . S
H2290 C2305 0.959 . S
H2291 C2305 0.961 . S
H2292 C2306 0.960 . S
H2293 C2306 0.961 . S
H2294 C2306 0.959 . S
H2295 C2309 0.929 . S
H2296 C2310 0.931 . S
H2297 C2312 0.930 . S
C2298 H2286 0.930 . S
C2298 C2299 1.399 1_556 S
C2298 C2303 1.399 . S
C2299 C2298 1.399 1_554 S
C2299 C2300 1.376 . S
C2300 H2287 0.930 . S
C2300 C2299 1.376 . S
C2300 C2301 1.388 1_554 S
C2301 H2288 0.930 . S
C2301 C2300 1.388 1_556 S
C2301 C2302 1.390 . S
C2302 C2301 1.390 . S
C2302 C2303 1.394 . S
C2302 C2308 1.465 . S
C2303 C2298 1.399 . S
C2303 C2302 1.394 . S
C2303 C2304 1.516 . S
C2304 C2303 1.516 . S
C2304 C2305 1.502 . S
C2304 C2306 1.561 . S
C2304 C2307 1.526 . S
C2305 H2289 0.959 . S
C2305 H2290 0.959 . S
C2305 H2291 0.961 . S
C2305 C2304 1.502 . S
C2306 H2292 0.960 . S
C2306 H2293 0.961 . S
C2306 H2294 0.959 . S
C2306 C2304 1.561 . S
C2307 C2304 1.526 . S
C2307 C2308 1.396 . S
C2307 C2312 1.390 . S
C2308 C2302 1.465 . S
C2308 C2307 1.396 . S
C2308 C2309 1.399 . S
C2309 H2295 0.929 . S
C2309 C2308 1.399 . S
C2309 C2310 1.385 . S
C2310 H2296 0.931 . S
C2310 C2309 1.385 . S
C2310 C2311 1.389 . S
C2311 C2310 1.389 . S
C2311 C2312 1.387 . S
C2312 H2297 0.930 . S
C2312 C2307 1.390 . S
C2312 C2311 1.387 . S
H2313 C2325 0.930 . S
H2314 C2327 0.930 1_554 S
H2315 C2328 0.930 . S
H2316 C2332 0.959 . S
H2317 C2332 0.959 . S
H2318 C2332 0.961 . S
H2319 C2333 0.960 . S
H2320 C2333 0.961 . S
H2321 C2333 0.959 . S
H2322 C2336 0.929 . S
H2323 C2337 0.931 . S
H2324 C2339 0.930 . S
C2325 H2313 0.930 . S
C2325 C2326 1.399 1_556 S
C2325 C2330 1.399 . S
C2326 C2325 1.399 1_554 S
C2326 C2327 1.376 1_554 S
C2327 H2314 0.930 1_556 S
C2327 C2326 1.376 1_556 S
C2327 C2328 1.388 . S
C2328 H2315 0.930 . S
C2328 C2327 1.388 . S
C2328 C2329 1.390 . S
C2329 C2328 1.390 . S
C2329 C2330 1.394 . S
C2329 C2335 1.465 . S
C2330 C2325 1.399 . S
C2330 C2329 1.394 . S
C2330 C2331 1.516 . S
C2331 C2330 1.516 . S
C2331 C2332 1.502 . S
C2331 C2333 1.561 . S
C2331 C2334 1.526 . S
C2332 H2316 0.959 . S
C2332 H2317 0.959 . S
C2332 H2318 0.961 . S
C2332 C2331 1.502 . S
C2333 H2319 0.960 . S
C2333 H2320 0.961 . S
C2333 H2321 0.959 . S
C2333 C2331 1.561 . S
C2334 C2331 1.526 . S
C2334 C2335 1.396 . S
C2334 C2339 1.390 . S
C2335 C2329 1.465 . S
C2335 C2334 1.396 . S
C2335 C2336 1.399 . S
C2336 H2322 0.929 . S
C2336 C2335 1.399 . S
C2336 C2337 1.385 . S
C2337 H2323 0.931 . S
C2337 C2336 1.385 . S
C2337 C2338 1.389 . S
C2338 C2337 1.389 . S
C2338 C2339 1.387 . S
C2339 H2324 0.930 . S
C2339 C2334 1.390 . S
C2339 C2338 1.387 . S
H2340 C2352 0.930 . S
H2341 C2354 0.930 1_554 S
H2342 C2355 0.930 . S
H2343 C2359 0.959 . S
H2344 C2359 0.959 . S
H2345 C2359 0.961 . S
H2346 C2360 0.960 . S
H2347 C2360 0.961 . S
H2348 C2360 0.959 . S
H2349 C2363 0.929 . S
H2350 C2364 0.931 . S
H2351 C2366 0.930 . S
C2352 H2340 0.930 . S
C2352 C2353 1.399 1_556 S
C2352 C2357 1.399 . S
C2353 C2352 1.399 1_554 S
C2353 C2354 1.376 1_554 S
C2354 H2341 0.930 1_556 S
C2354 C2353 1.376 1_556 S
C2354 C2355 1.388 . S
C2355 H2342 0.930 . S
C2355 C2354 1.388 . S
C2355 C2356 1.390 . S
C2356 C2355 1.390 . S
C2356 C2357 1.394 . S
C2356 C2362 1.465 . S
C2357 C2352 1.399 . S
C2357 C2356 1.394 . S
C2357 C2358 1.516 . S
C2358 C2357 1.516 . S
C2358 C2359 1.502 . S
C2358 C2360 1.561 . S
C2358 C2361 1.526 . S
C2359 H2343 0.959 . S
C2359 H2344 0.959 . S
C2359 H2345 0.961 . S
C2359 C2358 1.502 . S
C2360 H2346 0.960 . S
C2360 H2347 0.961 . S
C2360 H2348 0.959 . S
C2360 C2358 1.561 . S
C2361 C2358 1.526 . S
C2361 C2362 1.396 . S
C2361 C2366 1.390 . S
C2362 C2356 1.465 . S
C2362 C2361 1.396 . S
C2362 C2363 1.399 . S
C2363 H2349 0.929 . S
C2363 C2362 1.399 . S
C2363 C2364 1.385 . S
C2364 H2350 0.931 . S
C2364 C2363 1.385 . S
C2364 C2365 1.389 . S
C2365 C2364 1.389 . S
C2365 C2366 1.387 . S
C2366 H2351 0.930 . S
C2366 C2361 1.390 . S
C2366 C2365 1.387 . S
H2367 C2379 0.930 . S
H2368 C2381 0.930 . S
H2369 C2382 0.930 . S
H2370 C2386 0.959 . S
H2371 C2386 0.959 . S
H2372 C2386 0.961 . S
H2373 C2387 0.960 . S
H2374 C2387 0.961 . S
H2375 C2387 0.959 . S
H2376 C2390 0.929 . S
H2377 C2391 0.931 . S
H2378 C2393 0.930 . S
C2379 H2367 0.930 . S
C2379 C2380 1.399 . S
C2379 C2384 1.399 . S
C2380 C2379 1.399 . S
C2380 C2381 1.376 . S
C2381 H2368 0.930 . S
C2381 C2380 1.376 . S
C2381 C2382 1.388 . S
C2382 H2369 0.930 . S
C2382 C2381 1.388 . S
C2382 C2383 1.390 . S
C2383 C2382 1.390 . S
C2383 C2384 1.394 . S
C2383 C2389 1.465 . S
C2384 C2379 1.399 . S
C2384 C2383 1.394 . S
C2384 C2385 1.516 . S
C2385 C2384 1.516 . S
C2385 C2386 1.502 . S
C2385 C2387 1.561 . S
C2385 C2388 1.526 . S
C2386 H2370 0.959 . S
C2386 H2371 0.959 . S
C2386 H2372 0.961 . S
C2386 C2385 1.502 . S
C2387 H2373 0.960 . S
C2387 H2374 0.961 . S
C2387 H2375 0.959 . S
C2387 C2385 1.561 . S
C2388 C2385 1.526 . S
C2388 C2389 1.396 . S
C2388 C2393 1.390 . S
C2389 C2383 1.465 . S
C2389 C2388 1.396 . S
C2389 C2390 1.399 . S
C2390 H2376 0.929 . S
C2390 C2389 1.399 . S
C2390 C2391 1.385 . S
C2391 H2377 0.931 . S
C2391 C2390 1.385 . S
C2391 C2392 1.389 . S
C2392 C2391 1.389 . S
C2392 C2393 1.387 . S
C2393 H2378 0.930 . S
C2393 C2388 1.390 . S
C2393 C2392 1.387 . S
H2394 C2406 0.930 . S
H2395 C2408 0.930 . S
H2396 C2409 0.930 . S
H2397 C2413 0.959 . S
H2398 C2413 0.959 . S
H2399 C2413 0.961 . S
H2400 C2414 0.960 . S
H2401 C2414 0.961 . S
H2402 C2414 0.959 . S
H2403 C2417 0.929 . S
H2404 C2418 0.931 . S
H2405 C2420 0.930 . S
C2406 H2394 0.930 . S
C2406 C2407 1.399 . S
C2406 C2411 1.399 . S
C2407 C2406 1.399 . S
C2407 C2408 1.376 . S
C2408 H2395 0.930 . S
C2408 C2407 1.376 . S
C2408 C2409 1.388 . S
C2409 H2396 0.930 . S
C2409 C2408 1.388 . S
C2409 C2410 1.390 . S
C2410 C2409 1.390 . S
C2410 C2411 1.394 . S
C2410 C2416 1.465 . S
C2411 C2406 1.399 . S
C2411 C2410 1.394 . S
C2411 C2412 1.516 . S
C2412 C2411 1.516 . S
C2412 C2413 1.502 . S
C2412 C2414 1.561 . S
C2412 C2415 1.526 . S
C2413 H2397 0.959 . S
C2413 H2398 0.959 . S
C2413 H2399 0.961 . S
C2413 C2412 1.502 . S
C2414 H2400 0.960 . S
C2414 H2401 0.961 . S
C2414 H2402 0.959 . S
C2414 C2412 1.561 . S
C2415 C2412 1.526 . S
C2415 C2416 1.396 . S
C2415 C2420 1.390 . S
C2416 C2410 1.465 . S
C2416 C2415 1.396 . S
C2416 C2417 1.399 . S
C2417 H2403 0.929 . S
C2417 C2416 1.399 . S
C2417 C2418 1.385 . S
C2418 H2404 0.931 . S
C2418 C2417 1.385 . S
C2418 C2419 1.389 . S
C2419 C2418 1.389 . S
C2419 C2420 1.387 . S
C2420 H2405 0.930 . S
C2420 C2415 1.390 . S
C2420 C2419 1.387 . S
H2421 C2433 0.930 . S
H2422 C2435 0.930 . S
H2423 C2436 0.930 . S
H2424 C2440 0.959 . S
H2425 C2440 0.959 . S
H2426 C2440 0.961 . S
H2427 C2441 0.960 . S
H2428 C2441 0.961 . S
H2429 C2441 0.959 . S
H2430 C2444 0.929 . S
H2431 C2445 0.931 . S
H2432 C2447 0.930 . S
C2433 H2421 0.930 . S
C2433 C2434 1.399 . S
C2433 C2438 1.399 . S
C2434 C2433 1.399 . S
C2434 C2435 1.376 . S
C2435 H2422 0.930 . S
C2435 C2434 1.376 . S
C2435 C2436 1.388 . S
C2436 H2423 0.930 . S
C2436 C2435 1.388 . S
C2436 C2437 1.390 . S
C2437 C2436 1.390 . S
C2437 C2438 1.394 . S
C2437 C2443 1.465 . S
C2438 C2433 1.399 . S
C2438 C2437 1.394 . S
C2438 C2439 1.516 . S
C2439 C2438 1.516 . S
C2439 C2440 1.502 . S
C2439 C2441 1.561 . S
C2439 C2442 1.526 . S
C2440 H2424 0.959 . S
C2440 H2425 0.959 . S
C2440 H2426 0.961 . S
C2440 C2439 1.502 . S
C2441 H2427 0.960 . S
C2441 H2428 0.961 . S
C2441 H2429 0.959 . S
C2441 C2439 1.561 . S
C2442 C2439 1.526 . S
C2442 C2443 1.396 . S
C2442 C2447 1.390 . S
C2443 C2437 1.465 . S
C2443 C2442 1.396 . S
C2443 C2444 1.399 . S
C2444 H2430 0.929 . S
C2444 C2443 1.399 . S
C2444 C2445 1.385 . S
C2445 H2431 0.931 . S
C2445 C2444 1.385 . S
C2445 C2446 1.389 . S
C2446 C2445 1.389 . S
C2446 C2447 1.387 . S
C2447 H2432 0.930 . S
C2447 C2442 1.390 . S
C2447 C2446 1.387 . S
C517 C235 1.103 . S
C529 C11 1.097 . S
C544 C249 1.101 . S
C556 C25 1.098 . S
C571 C39 1.110 . S
C583 C221 1.138 . S
C598 C375 1.119 . S
C610 C53 1.098 . S
C625 C347 1.150 . S
C637 C67 1.140 . S
C652 C81 1.095 . S
C664 C361 1.105 . S
C679 C487 1.145 . S
C691 C95 1.105 . S
C706 C501 1.128 . S
C718 C109 1.149 . S
C733 C473 1.148 . S
C745 C123 1.109 . S
C760 C291 1.150 . S
C772 C137 1.118 . S
C787 C151 1.122 . S
C799 C263 1.150 . S
C814 C277 1.129 . S
C826 C165 1.096 . S
C841 C403 1.144 . S
C853 C179 1.118 . S
C868 C193 1.108 . S
C880 C417 1.096 . S
C895 C389 1.116 . S
C907 C207 1.142 . S
C922 C459 1.148 . S
C934 C305 1.132 . S
C949 C431 1.146 . S
C961 C319 1.107 . S
C976 C333 1.149 . S
C988 C445 1.113 . S
C1003 C98 1.497 . S
C1015 C9 1.548 . S
C1030 C112 1.523 . S
C1042 C23 1.510 . S
C1057 C84 1.493 . S
C1069 C37 1.530 . S
C1084 C51 1.548 . S
C1096 C154 1.494 . S
C1111 C126 1.513 . S
C1123 C65 1.514 . S
C1138 C79 1.540 . S
C1150 C140 1.520 . S
C1165 C14 1.540 . S
C1177 C93 1.533 . S
C1192 C107 1.547 . S
C1204 C28 1.521 . S
C1219 C0 1.528 . S
C1231 C121 1.509 . S
C1246 C70 1.529 . S
C1258 C135 1.509 . S
C1273 C42 1.540 . S
C1285 C149 1.533 . S
C1300 C163 1.548 . S
C1312 C56 1.515 . S
C1327 C177 1.538 . S
C1339 C266 1.523 . S
C1354 C280 1.491 . S
C1366 C191 1.533 . S
C1381 C252 1.488 . S
C1393 C205 1.542 . S
C1408 C219 1.548 . S
C1420 C322 1.495 . S
C1435 C294 1.510 . S
C1447 C233 1.544 . S
C1462 C247 1.526 . S
C1474 C308 1.498 . S
C1489 C261 1.507 . S
C1501 C182 1.522 . S
C1516 C275 1.532 . S
C1528 C196 1.540 . S
C1543 C168 1.528 . S
C1555 C289 1.509 . S
C1570 C238 1.503 . S
C1582 C303 1.547 . S
C1597 C210 1.536 . S
C1609 C317 1.538 . S
C1624 C331 1.507 . S
C1636 C224 1.524 . S
C1651 C434 1.499 . S
C1663 C345 1.548 . S
C1678 C359 1.531 . S
C1690 C448 1.494 . S
C1705 C373 1.510 . S
C1717 C420 1.541 . S
C1732 C490 1.542 . S
C1744 C387 1.516 . S
C1759 C401 1.528 . S
C1771 C462 1.495 . S
C1786 C476 1.529 . S
C1798 C415 1.534 . S
C1813 C350 1.541 . S
C1825 C429 1.530 . S
C1840 C364 1.540 . S
C1852 C443 1.534 . S
C1867 C457 1.523 . S
C1879 C336 1.490 . S
C1894 C471 1.531 . S
C1906 C406 1.489 . S
C1921 C378 1.493 . S
C1933 C485 1.542 . S
C1948 C392 1.489 . S
C1960 C499 1.525 . S
C1975 C5 1.574 . S
C1987 C47 1.578 . S
C2002 C19 1.579 . S
C2014 C61 1.582 . S
C2029 C75 1.579 . S
C2041 C33 1.575 . S
C2056 C89 1.580 . S
C2068 C131 1.575 . S
C2083 C145 1.582 . S
C2095 C103 1.577 . S
C2110 C159 1.576 . S
C2122 C117 1.582 . S
C2137 C173 1.578 . S
C2149 C215 1.582 . S
C2164 C187 1.579 . S
C2176 C229 1.582 . S
C2191 C243 1.581 . S
C2203 C201 1.582 . S
C2218 C257 1.580 . S
C2230 C299 1.575 . S
C2245 C271 1.574 . S
C2257 C313 1.579 . S
C2272 C285 1.580 . S
C2284 C327 1.581 . S
C2299 C383 1.575 . S
C2311 C341 1.580 . S
C2326 C397 1.578 . S
C2338 C355 1.575 . S
C2353 C411 1.575 . S
C2365 C369 1.576 . S
C2380 C425 1.580 . S
C2392 C467 1.575 . S
C2407 C481 1.574 . S
C2419 C439 1.579 . S
C2434 C495 1.576 . S
C2446 C453 1.582 . S
