# Generated by pormake.
# Topology fob, (5)-cn, num edge types: 1
# Building blocks:
#     Node 0, Type 0, BuildingBlock: XOMCOT_clean_sbu_1, # of connection points: 5
#     Node 1, Type 0, BuildingBlock: XOMCOT_clean_sbu_1, # of connection points: 5
#     Node 2, Type 0, BuildingBlock: XOMCOT_clean_sbu_1, # of connection points: 5
#     Node 3, Type 0, BuildingBlock: XOMCOT_clean_sbu_1, # of connection points: 5
#     Node 4, Type 0, BuildingBlock: XOMCOT_clean_sbu_1, # of connection points: 5
#     Node 5, Type 0, BuildingBlock: XOMCOT_clean_sbu_1, # of connection points: 5
#     Node 6, Type 0, BuildingBlock: XOMCOT_clean_sbu_1, # of connection points: 5
#     Node 7, Type 0, BuildingBlock: XOMCOT_clean_sbu_1, # of connection points: 5
#     Node 8, Type 0, BuildingBlock: XOMCOT_clean_sbu_1, # of connection points: 5
#     Node 9, Type 0, BuildingBlock: XOMCOT_clean_sbu_1, # of connection points: 5
#     Node 10, Type 0, BuildingBlock: XOMCOT_clean_sbu_1, # of connection points: 5
#     Node 11, Type 0, BuildingBlock: XOMCOT_clean_sbu_1, # of connection points: 5
#     Node 12, Type 0, BuildingBlock: XOMCOT_clean_sbu_1, # of connection points: 5
#     Node 13, Type 0, BuildingBlock: XOMCOT_clean_sbu_1, # of connection points: 5
#     Node 14, Type 0, BuildingBlock: XOMCOT_clean_sbu_1, # of connection points: 5
#     Node 15, Type 0, BuildingBlock: XOMCOT_clean_sbu_1, # of connection points: 5
#     Edge 16, Type (0, 0), BuildingBlock: CIFDUS_clean_linker_0, # of connection points: 2
#     Edge 17, Type (0, 0), BuildingBlock: CIFDUS_clean_linker_0, # of connection points: 2
#     Edge 18, Type (0, 0), BuildingBlock: CIFDUS_clean_linker_0, # of connection points: 2
#     Edge 19, Type (0, 0), BuildingBlock: CIFDUS_clean_linker_0, # of connection points: 2
#     Edge 20, Type (0, 0), BuildingBlock: CIFDUS_clean_linker_0, # of connection points: 2
#     Edge 21, Type (0, 0), BuildingBlock: CIFDUS_clean_linker_0, # of connection points: 2
#     Edge 22, Type (0, 0), BuildingBlock: CIFDUS_clean_linker_0, # of connection points: 2
#     Edge 23, Type (0, 0), BuildingBlock: CIFDUS_clean_linker_0, # of connection points: 2
#     Edge 24, Type (0, 0), BuildingBlock: CIFDUS_clean_linker_0, # of connection points: 2
#     Edge 25, Type (0, 0), BuildingBlock: CIFDUS_clean_linker_0, # of connection points: 2
#     Edge 26, Type (0, 0), BuildingBlock: CIFDUS_clean_linker_0, # of connection points: 2
#     Edge 27, Type (0, 0), BuildingBlock: CIFDUS_clean_linker_0, # of connection points: 2
#     Edge 28, Type (0, 0), BuildingBlock: CIFDUS_clean_linker_0, # of connection points: 2
#     Edge 29, Type (0, 0), BuildingBlock: CIFDUS_clean_linker_0, # of connection points: 2
#     Edge 30, Type (0, 0), BuildingBlock: CIFDUS_clean_linker_0, # of connection points: 2
#     Edge 31, Type (0, 0), BuildingBlock: CIFDUS_clean_linker_0, # of connection points: 2
#     Edge 32, Type (0, 0), BuildingBlock: CIFDUS_clean_linker_0, # of connection points: 2
#     Edge 33, Type (0, 0), BuildingBlock: CIFDUS_clean_linker_0, # of connection points: 2
#     Edge 34, Type (0, 0), BuildingBlock: CIFDUS_clean_linker_0, # of connection points: 2
#     Edge 35, Type (0, 0), BuildingBlock: CIFDUS_clean_linker_0, # of connection points: 2
#     Edge 36, Type (0, 0), BuildingBlock: CIFDUS_clean_linker_0, # of connection points: 2
#     Edge 37, Type (0, 0), BuildingBlock: CIFDUS_clean_linker_0, # of connection points: 2
#     Edge 38, Type (0, 0), BuildingBlock: CIFDUS_clean_linker_0, # of connection points: 2
#     Edge 39, Type (0, 0), BuildingBlock: CIFDUS_clean_linker_0, # of connection points: 2
#     Edge 40, Type (0, 0), BuildingBlock: CIFDUS_clean_linker_0, # of connection points: 2
#     Edge 41, Type (0, 0), BuildingBlock: CIFDUS_clean_linker_0, # of connection points: 2
#     Edge 42, Type (0, 0), BuildingBlock: CIFDUS_clean_linker_0, # of connection points: 2
#     Edge 43, Type (0, 0), BuildingBlock: CIFDUS_clean_linker_0, # of connection points: 2
#     Edge 44, Type (0, 0), BuildingBlock: CIFDUS_clean_linker_0, # of connection points: 2
#     Edge 45, Type (0, 0), BuildingBlock: CIFDUS_clean_linker_0, # of connection points: 2
#     Edge 46, Type (0, 0), BuildingBlock: CIFDUS_clean_linker_0, # of connection points: 2
#     Edge 47, Type (0, 0), BuildingBlock: CIFDUS_clean_linker_0, # of connection points: 2
#     Edge 48, Type (0, 0), BuildingBlock: CIFDUS_clean_linker_0, # of connection points: 2
#     Edge 49, Type (0, 0), BuildingBlock: CIFDUS_clean_linker_0, # of connection points: 2
#     Edge 50, Type (0, 0), BuildingBlock: CIFDUS_clean_linker_0, # of connection points: 2
#     Edge 51, Type (0, 0), BuildingBlock: CIFDUS_clean_linker_0, # of connection points: 2
#     Edge 52, Type (0, 0), BuildingBlock: CIFDUS_clean_linker_0, # of connection points: 2
#     Edge 53, Type (0, 0), BuildingBlock: CIFDUS_clean_linker_0, # of connection points: 2
#     Edge 54, Type (0, 0), BuildingBlock: CIFDUS_clean_linker_0, # of connection points: 2
#     Edge 55, Type (0, 0), BuildingBlock: CIFDUS_clean_linker_0, # of connection points: 2
# Relax obj value: 0.097
# Max RMSD: 0.146
# Mean RMSD: 0.146
data_MOF--net-fob--node1-XOMCOT_clean_sbu_1--edge1-CIFDUS_clean_linker_0
_symmetry_space_group_name_H-M    P1
_symmetry_Int_Tables_number       1
_symmetry_cell_setting            triclinic
loop_
_symmetry_equiv_pos_as_xyz
'x, y, z'
_cell_length_a     22.489533
_cell_length_b     58.82464
_cell_length_c     45.415959
_cell_angle_alpha  100.15598
_cell_angle_beta   90.053792
_cell_angle_gamma 89.747063
loop_
_atom_site_label
_atom_site_type_symbol
_atom_site_fract_x
_atom_site_fract_y
_atom_site_fract_z
_atom_type_partial_charge
C0 C 0.10592 0.18421 0.51037 0.0
C1 C 0.1308 0.20584 0.5141 0.0
N2 N 0.16685 0.2068 0.49064 0.0
N3 N 0.12635 0.17148 0.48479 0.0
C4 C 0.16305 0.18574 0.47314 0.0
H5 H 0.07492 0.17816 0.52541 0.0
Co6 Co 0.10552 0.14103 0.47002 0.0
C7 C 0.21069 0.12103 0.43286 0.0
O8 O 0.18615 0.10079 0.42384 0.0
N9 N 0.08213 0.10976 0.45546 0.0
C10 C 0.02748 0.0795 0.43485 0.0
C11 C 0.03862 0.10248 0.43542 0.0
C12 C 0.09657 0.09048 0.46659 0.0
N13 N 0.06343 0.07194 0.45476 0.0
O14 O 0.13857 0.13227 0.50533 0.0
H15 H 0.01293 0.11328 0.42324 0.0
H16 H 0.12929 0.09018 0.48396 0.0
O17 O 0.18238 0.1368 0.45024 0.0
C18 C 0.09789 0.12938 0.52377 0.0
O19 O 0.0421 0.13167 0.51611 0.0
N20 N 0.06943 0.15071 0.43721 0.0
C21 C 0.99172 0.16029 0.39311 0.0
C22 C 0.04903 0.15157 0.38556 0.0
C23 C 0.08761 0.14698 0.40805 0.0
C24 C 0.01547 0.16046 0.44507 0.0
C25 C 0.97592 0.16539 0.42343 0.0
H26 H 0.13027 0.13931 0.40165 0.0
H27 H 0.00173 0.16314 0.46826 0.0
H28 H 0.18572 0.18087 0.45195 0.0
H29 H 0.12347 0.21965 0.53291 0.0
H30 H 0.99205 0.06969 0.42251 0.0
H31 H 0.0632 0.14763 0.36242 0.0
H32 H 0.93202 0.17183 0.43036 0.0
C33 C 0.07363 0.09413 0.74767 0.0
C34 C 0.09351 0.07175 0.74442 0.0
N35 N 0.15339 0.07189 0.74537 0.0
N36 N 0.12051 0.10856 0.75102 0.0
C37 C 0.1687 0.09449 0.74953 0.0
H38 H 0.02774 0.09945 0.7467 0.0
Co39 Co 0.11433 0.14059 0.7526 0.0
C40 C 0.1934 0.16105 0.80185 0.0
O41 O 0.15168 0.1766 0.81002 0.0
N42 N 0.10786 0.17297 0.75277 0.0
C43 C 0.13486 0.2085 0.74734 0.0
C44 C 0.15466 0.18676 0.74979 0.0
C45 C 0.05988 0.18676 0.75092 0.0
N46 N 0.07509 0.20848 0.74792 0.0
O47 O 0.16221 0.13803 0.71734 0.0
H48 H 0.20058 0.18113 0.74848 0.0
H49 H 0.01444 0.18104 0.75072 0.0
O50 O 0.18501 0.14534 0.77884 0.0
C51 C 0.12681 0.1315 0.69561 0.0
O52 O 0.07079 0.12805 0.70172 0.0
N53 N 0.06171 0.14198 0.78519 0.0
C54 C 0.96963 0.13452 0.82346 0.0
C55 C 0.02901 0.13286 0.83217 0.0
C56 C 0.07457 0.13598 0.81229 0.0
C57 C 0.004 0.14343 0.77652 0.0
C58 C 0.95735 0.14007 0.79538 0.0
H59 H 0.11946 0.13193 0.81801 0.0
H60 H 0.99397 0.14516 0.75377 0.0
H61 H 0.21403 0.10066 0.75015 0.0
H62 H 0.06579 0.05652 0.74123 0.0
H63 H 0.16229 0.22284 0.74376 0.0
H64 H 0.03999 0.12767 0.85326 0.0
H65 H 0.91199 0.14079 0.78753 0.0
C66 C 0.95056 0.83999 0.49431 0.0
C67 C 0.92569 0.81849 0.49297 0.0
N68 N 0.86618 0.82104 0.4951 0.0
N69 N 0.90696 0.85604 0.49728 0.0
C70 C 0.8561 0.84396 0.49751 0.0
H71 H 0.9975 0.84371 0.49342 0.0
Co72 Co 0.91664 0.88792 0.50106 0.0
C73 C 0.79458 0.90074 0.52161 0.0
O74 O 0.78392 0.90835 0.49662 0.0
N75 N 0.92663 0.91972 0.50526 0.0
C76 C 0.93448 0.95671 0.5258 0.0
C77 C 0.91669 0.93531 0.53035 0.0
C78 C 0.95033 0.93201 0.48569 0.0
N79 N 0.95585 0.95463 0.49775 0.0
O80 O 0.87091 0.88801 0.46526 0.0
H81 H 0.89904 0.93128 0.55096 0.0
H82 H 0.96506 0.92437 0.46344 0.0
O83 O 0.8458 0.89265 0.5264 0.0
C84 C 0.89131 0.87668 0.44082 0.0
O85 O 0.94049 0.86463 0.44121 0.0
N86 N 0.96632 0.88759 0.53374 0.0
C87 C 0.05683 0.8835 0.5742 0.0
C88 C 0.99708 0.88223 0.58268 0.0
C89 C 0.95198 0.88409 0.56182 0.0
C90 C 0.02403 0.88956 0.52564 0.0
C91 C 0.07 0.88748 0.54546 0.0
H92 H 0.90614 0.88208 0.56794 0.0
H93 H 0.0343 0.89203 0.50315 0.0
H94 H 0.8124 0.85182 0.49921 0.0
H95 H 0.94973 0.80234 0.49131 0.0
H96 H 0.93194 0.9726 0.54194 0.0
H97 H 0.98562 0.87895 0.60471 0.0
H98 H 0.11564 0.88853 0.53821 0.0
C99 C 0.94803 0.95114 0.23153 0.0
C100 C 0.92516 0.97323 0.23495 0.0
N101 N 0.8654 0.97193 0.23614 0.0
N102 N 0.90285 0.93604 0.23057 0.0
C103 C 0.85327 0.94923 0.2337 0.0
H104 H 0.99455 0.9464 0.22959 0.0
Co105 Co 0.90688 0.90392 0.22522 0.0
C106 C 0.78406 0.89281 0.20395 0.0
O107 O 0.77461 0.87953 0.22388 0.0
N108 N 0.91104 0.8719 0.2195 0.0
C109 C 0.91049 0.83486 0.19848 0.0
C110 C 0.89669 0.85688 0.19451 0.0
C111 C 0.93363 0.85869 0.23831 0.0
N112 N 0.93391 0.83601 0.22602 0.0
O113 O 0.8639 0.90422 0.26192 0.0
H114 H 0.87843 0.86166 0.17441 0.0
H115 H 0.95133 0.86568 0.26019 0.0
O116 O 0.83417 0.90255 0.20277 0.0
C117 C 0.88829 0.91437 0.28599 0.0
O118 O 0.93942 0.92482 0.28458 0.0
N119 N 0.95221 0.90343 0.19076 0.0
C120 C 0.03307 0.90138 0.14416 0.0
C121 C 0.97235 0.90446 0.13913 0.0
C122 C 0.93237 0.90573 0.16297 0.0
C123 C 0.01101 0.90019 0.19583 0.0
C124 C 0.05235 0.89927 0.17287 0.0
H125 H 0.88591 0.9086 0.15889 0.0
H126 H 0.02574 0.89845 0.21802 0.0
H127 H 0.80896 0.94225 0.23435 0.0
H128 H 0.95051 0.98891 0.2357 0.0
H129 H 0.90391 0.81923 0.18228 0.0
H130 H 0.95628 0.90641 0.11722 0.0
H131 H 0.09904 0.89691 0.17748 0.0
C132 C 0.05336 0.69489 0.9896 0.0
C133 C 0.0711 0.71711 0.98904 0.0
N134 N 0.13063 0.71714 0.98593 0.0
N135 N 0.10134 0.68082 0.98651 0.0
C136 C 0.14797 0.69491 0.98452 0.0
H137 H 0.00831 0.68938 -0.0074 0.0
Co138 Co 0.09847 0.64909 0.98686 0.0
C139 C 0.17111 0.62752 0.93586 0.0
O140 O 0.12911 0.61203 0.92888 0.0
N141 N 0.09593 0.61685 0.98816 0.0
C142 C 0.12966 0.58193 -0.00692 0.0
C143 C 0.14515 0.60426 0.99158 0.0
C144 C 0.05085 0.6016 0.98833 0.0
N145 N 0.07015 0.58023 0.99099 0.0
O146 O 0.15412 0.65236 0.01907 0.0
H147 H 0.19002 0.61091 -0.00716 0.0
H148 H 0.00445 0.60589 0.98744 0.0
O149 O 0.16439 0.64375 0.9584 0.0
C150 C 0.14466 0.66547 0.04404 0.0
O151 O 0.09871 0.67955 0.04687 0.0
N152 N 0.04118 0.64653 0.95624 0.0
C153 C 0.94721 0.64826 0.91633 0.0
C154 C 0.00541 0.65377 0.90894 0.0
C155 C 0.05153 0.65303 0.92927 0.0
C156 C 0.98442 0.64297 0.96471 0.0
C157 C 0.93718 0.64281 0.94479 0.0
H158 H 0.09485 0.65895 0.92384 0.0
H159 H 0.97528 0.64119 0.98754 0.0
H160 H 0.19366 0.689 0.98227 0.0
H161 H 0.04259 0.7322 0.99169 0.0
H162 H 0.16009 0.56802 -0.00477 0.0
H163 H 0.01522 0.65954 0.88814 0.0
H164 H 0.89318 0.63889 0.95204 0.0
C165 C 0.06138 0.60531 0.24997 0.0
C166 C 0.08525 0.58339 0.2456 0.0
N167 N 0.14477 0.58518 0.24866 0.0
N168 N 0.1056 0.62085 0.25585 0.0
C169 C 0.15586 0.60808 0.25471 0.0
H170 H 0.01473 0.60968 0.2491 0.0
Co171 Co 0.09666 0.65281 0.26495 0.0
C172 C 0.21334 0.6653 0.29213 0.0
O173 O 0.22325 0.68074 0.27505 0.0
N174 N 0.08704 0.68463 0.27435 0.0
C175 C 0.08041 0.72086 0.29824 0.0
C176 C 0.0953 0.69862 0.30092 0.0
C177 C 0.06664 0.6986 0.25599 0.0
N178 N 0.06225 0.72084 0.26992 0.0
O179 O 0.14596 0.65671 0.23196 0.0
H180 H 0.1106 0.69297 0.32105 0.0
H181 H 0.05389 0.69234 0.23302 0.0
O182 O 0.16482 0.65418 0.29006 0.0
C183 C 0.13629 0.64637 0.2054 0.0
O184 O 0.09278 0.6314 0.20009 0.0
N185 N 0.04674 0.64936 0.29628 0.0
C186 C 0.96196 0.64464 0.33895 0.0
C187 C 0.02195 0.64041 0.3442 0.0
C188 C 0.06388 0.64257 0.32229 0.0
C189 C 0.98858 0.65358 0.2909 0.0
C190 C 0.94522 0.65125 0.31196 0.0
H191 H 0.10965 0.63847 0.32623 0.0
H192 H 0.97598 0.65863 0.26997 0.0
H193 H 0.19968 0.61545 0.25887 0.0
H194 H 0.06064 0.56742 0.24042 0.0
H195 H 0.08308 0.73585 0.31581 0.0
H196 H 0.036 0.63492 0.36468 0.0
H197 H 0.89909 0.65462 0.30727 0.0
C198 C 0.92756 0.3451 0.00145 0.0
C199 C 0.90475 0.32317 -0.00073 0.0
N200 N 0.84488 0.32467 -0.00034 0.0
N201 N 0.88228 0.36038 0.00334 0.0
C202 C 0.83262 0.34743 0.00207 0.0
H203 H 0.97413 0.3496 0.00151 0.0
Co204 Co 0.88666 0.39233 0.00587 0.0
C205 C 0.80573 0.41017 0.05608 0.0
O206 O 0.84288 0.42698 0.06599 0.0
N207 N 0.88966 0.4249 0.00764 0.0
C208 C 0.85653 0.46022 0.00446 0.0
C209 C 0.84063 0.43781 0.00505 0.0
C210 C 0.9351 0.44004 0.00778 0.0
N211 N 0.91613 0.46165 0.00617 0.0
O212 O 0.83485 0.39083 0.97228 0.0
H213 H 0.79569 0.43123 0.00323 0.0
H214 H 0.98146 0.43543 0.00765 0.0
O215 O 0.81831 0.39567 0.03251 0.0
C216 C 0.84909 0.37935 0.94684 0.0
O217 O 0.89687 0.36623 0.94439 0.0
N218 N 0.94045 0.39343 0.03779 0.0
C219 C 0.02966 0.39469 0.08094 0.0
C220 C 0.9718 0.38754 0.08645 0.0
C221 C 0.92802 0.38676 0.06446 0.0
C222 C 0.99755 0.39788 0.03091 0.0
C223 C 0.04224 0.39958 0.05239 0.0
H224 H 0.88476 0.38015 0.06868 0.0
H225 H 0.00865 0.39992 0.00839 0.0
H226 H 0.78825 0.35459 0.00204 0.0
H227 H 0.93043 0.30741 -0.00222 0.0
H228 H 0.82639 0.47433 0.00282 0.0
H229 H 0.96043 0.38217 0.10733 0.0
H230 H 0.086 0.40482 0.04645 0.0
C231 C 0.89724 0.437 0.73246 0.0
C232 C 0.87416 0.45897 0.73629 0.0
N233 N 0.81437 0.45756 0.73473 0.0
N234 N 0.8525 0.42161 0.72843 0.0
C235 C 0.80241 0.43462 0.7299 0.0
H236 H 0.9439 0.43246 0.73236 0.0
Co237 Co 0.8648 0.3896 0.72132 0.0
C238 C 0.7454 0.3733 0.70191 0.0
O239 O 0.74419 0.36037 0.72273 0.0
N240 N 0.87866 0.35765 0.71407 0.0
C241 C 0.88588 0.32087 0.69212 0.0
C242 C 0.86465 0.34234 0.6893 0.0
C243 C 0.9093 0.34518 0.7314 0.0
N244 N 0.91417 0.32263 0.7186 0.0
O245 O 0.8237 0.38669 0.75727 0.0
H246 H 0.842 0.34662 0.66997 0.0
H247 H 0.92838 0.35261 0.75281 0.0
O248 O 0.79118 0.38544 0.699 0.0
C249 C 0.83814 0.39789 0.78281 0.0
O250 O 0.88039 0.41342 0.78496 0.0
N251 N 0.90796 0.39233 0.68726 0.0
C252 C 0.98526 0.39863 0.64155 0.0
C253 C 0.92391 0.40245 0.63902 0.0
C254 C 0.88587 0.39935 0.66231 0.0
C255 C 0.96722 0.38861 0.69017 0.0
C256 C 0.00667 0.39165 0.66762 0.0
H257 H 0.83914 0.40312 0.66052 0.0
H258 H 0.98402 0.38375 0.71051 0.0
H259 H 0.75815 0.4274 0.72761 0.0
H260 H 0.89978 0.47473 0.73928 0.0
H261 H 0.88295 0.30535 0.67537 0.0
H262 H 0.90545 0.40784 0.61931 0.0
H263 H 0.05373 0.38911 0.671 0.0
C264 C 0.57047 0.18967 0.97497 0.0
C265 C 0.59311 0.21143 0.97524 0.0
N266 N 0.65289 0.21016 0.9765 0.0
N267 N 0.61582 0.17476 0.97604 0.0
C268 C 0.66536 0.18776 0.97697 0.0
H269 H 0.52392 0.18513 0.97466 0.0
Co270 Co 0.61172 0.14347 0.97848 0.0
C271 C 0.70469 0.12213 0.93565 0.0
O272 O 0.67112 0.10409 0.92615 0.0
N273 N 0.60895 0.11183 0.98166 0.0
C274 C 0.64008 0.07835 -0.00712 0.0
C275 C 0.6562 0.10039 0.99042 0.0
C276 C 0.56416 0.09627 0.97946 0.0
N277 N 0.58204 0.0757 0.98598 0.0
O278 O 0.65693 0.14892 0.01501 0.0
H279 H 0.69986 0.10777 -0.00476 0.0
H280 H 0.51907 0.09985 0.97357 0.0
O281 O 0.68524 0.13841 0.95571 0.0
C282 C 0.63773 0.16259 0.03797 0.0
O283 O 0.58875 0.17445 0.03596 0.0
N284 N 0.56342 0.13879 0.94387 0.0
C285 C 0.47713 0.13853 0.89942 0.0
C286 C 0.53764 0.14012 0.89273 0.0
C287 C 0.5801 0.14087 0.91549 0.0
C288 C 0.50465 0.13761 0.95069 0.0
C289 C 0.46088 0.13721 0.92883 0.0
H290 H 0.62556 0.14439 0.91041 0.0
H291 H 0.4915 0.13793 0.97366 0.0
H292 H 0.70972 0.18105 0.97912 0.0
H293 H 0.56749 0.22696 0.97462 0.0
H294 H 0.66858 0.06556 0.00019 0.0
H295 H 0.55171 0.14208 0.87051 0.0
H296 H 0.41454 0.13645 0.93505 0.0
C297 C 0.58441 0.1048 0.25829 0.0
C298 C 0.60936 0.08352 0.25873 0.0
N299 N 0.66898 0.08572 0.25876 0.0
N300 N 0.62803 0.12046 0.25826 0.0
C301 C 0.67909 0.10832 0.2586 0.0
H302 H 0.53741 0.10842 0.25715 0.0
Co303 Co 0.61821 0.15142 0.25504 0.0
C304 C 0.69811 0.17695 0.30084 0.0
O305 O 0.65697 0.19294 0.30774 0.0
N306 N 0.60928 0.18277 0.25105 0.0
C307 C 0.63474 0.21676 0.2397 0.0
C308 C 0.65428 0.19505 0.24199 0.0
C309 C 0.56249 0.19762 0.25398 0.0
N310 N 0.57686 0.21847 0.24731 0.0
O311 O 0.66813 0.14704 0.22008 0.0
H312 H 0.69896 0.1886 0.23718 0.0
H313 H 0.51867 0.19344 0.26089 0.0
O314 O 0.68768 0.15933 0.28067 0.0
C315 C 0.65214 0.13299 0.19681 0.0
O316 O 0.60521 0.12 0.1981 0.0
N317 N 0.56513 0.15464 0.28755 0.0
C318 C 0.47412 0.14591 0.3257 0.0
C319 C 0.53318 0.14762 0.33569 0.0
C320 C 0.57843 0.1515 0.31598 0.0
C321 C 0.5076 0.15364 0.27797 0.0
C322 C 0.46142 0.1495 0.29671 0.0
H323 H 0.62392 0.14997 0.32292 0.0
H324 H 0.49798 0.15418 0.25477 0.0
H325 H 0.72276 0.11575 0.25736 0.0
H326 H 0.5853 0.06762 0.25865 0.0
H327 H 0.66107 0.23 0.23224 0.0
H328 H 0.54468 0.14421 0.35767 0.0
H329 H 0.41644 0.14788 0.28806 0.0
C330 C 0.44177 0.84143 0.00144 0.0
C331 C 0.42328 0.8194 0.00248 0.0
N332 N 0.36341 0.81933 0.00335 0.0
N333 N 0.39395 0.85538 0.00187 0.0
C334 C 0.34663 0.84142 0.00285 0.0
H335 H 0.48732 0.84689 -0.00014 0.0
Co336 Co 0.39992 0.88661 -0.00056 0.0
C337 C 0.31808 0.91148 0.04384 0.0
O338 O 0.36093 0.92663 0.05064 0.0
N339 N 0.40618 0.91822 -0.00448 0.0
C340 C 0.37622 0.95175 0.9839 0.0
C341 C 0.35934 0.92991 0.98676 0.0
C342 C 0.45161 0.93352 -0.0027 0.0
N343 N 0.43436 0.95412 0.99059 0.0
O344 O 0.35421 0.88183 0.96312 0.0
H345 H 0.31517 0.9229 0.98244 0.0
H346 H 0.49657 0.92986 0.0032 0.0
O347 O 0.32665 0.89379 0.0233 0.0
C348 C 0.37084 0.86834 0.93946 0.0
O349 O 0.41655 0.85457 0.94064 0.0
N350 N 0.44777 0.89046 0.03441 0.0
C351 C 0.52625 0.88888 0.0819 0.0
C352 C 0.4655 0.88469 0.08483 0.0
C353 C 0.4274 0.88498 0.06068 0.0
C354 C 0.50717 0.89355 0.03074 0.0
C355 C 0.54703 0.89336 0.05436 0.0
H356 H 0.38207 0.87959 0.06284 0.0
H357 H 0.52434 0.89481 0.00888 0.0
H358 H 0.30096 0.84731 0.00304 0.0
H359 H 0.4518 0.80444 0.00168 0.0
H360 H 0.34801 0.96465 0.97663 0.0
H361 H 0.44757 0.88064 0.10541 0.0
H362 H 0.59403 0.89557 0.05061 0.0
C363 C 0.46943 0.94776 0.73809 0.0
C364 C 0.45208 0.97053 0.74148 0.0
N365 N 0.39224 0.97139 0.74025 0.0
N366 N 0.42086 0.9342 0.73463 0.0
C367 C 0.37446 0.94908 0.73601 0.0
H368 H 0.51461 0.9415 0.73868 0.0
Co369 Co 0.42109 0.90201 0.73159 0.0
C370 C 0.3374 0.88601 0.68192 0.0
O371 O 0.37517 0.86961 0.6708 0.0
N372 N 0.42055 0.86936 0.7296 0.0
C373 C 0.38404 0.8346 0.73269 0.0
C374 C 0.37019 0.85702 0.73065 0.0
C375 C 0.46452 0.85395 0.73227 0.0
N376 N 0.44352 0.83264 0.7338 0.0
O377 O 0.37016 0.90432 0.76586 0.0
H378 H 0.32568 0.86412 0.73131 0.0
H379 H 0.51099 0.85822 0.73439 0.0
O380 O 0.35094 0.90019 0.70564 0.0
C381 C 0.38636 0.91537 0.79123 0.0
O382 O 0.43584 0.92731 0.79336 0.0
N383 N 0.47478 0.90002 0.69913 0.0
C384 C 0.56666 0.90103 0.65751 0.0
C385 C 0.50854 0.90809 0.65177 0.0
C386 C 0.46347 0.90771 0.67297 0.0
C387 C 0.53152 0.8946 0.70586 0.0
C388 C 0.57743 0.89415 0.68514 0.0
H389 H 0.42037 0.91465 0.66883 0.0
H390 H 0.54204 0.89169 0.72807 0.0
H391 H 0.32847 0.94367 0.73501 0.0
H392 H 0.48141 0.98529 0.74465 0.0
H393 H 0.35258 0.82115 0.73502 0.0
H394 H 0.49813 0.91473 0.6316 0.0
H395 H 0.62119 0.88882 0.69119 0.0
C396 C 0.57803 0.69241 0.49105 0.0
C397 C 0.60408 0.71356 0.49167 0.0
N398 N 0.66312 0.71035 0.48752 0.0
N399 N 0.62026 0.67585 0.48637 0.0
C400 C 0.67168 0.68727 0.48439 0.0
H401 H 0.53118 0.68923 0.4937 0.0
Co402 Co 0.6062 0.64434 0.48362 0.0
C403 C 0.67682 0.62233 0.43222 0.0
O404 O 0.631 0.60909 0.42319 0.0
N405 N 0.59285 0.61228 0.48201 0.0
C406 C 0.61729 0.57584 0.4843 0.0
C407 C 0.63855 0.59733 0.48272 0.0
C408 C 0.54387 0.59937 0.48466 0.0
N409 N 0.55771 0.57708 0.48554 0.0
O410 O 0.65738 0.64322 0.51669 0.0
H411 H 0.68508 0.60193 0.48316 0.0
H412 H 0.49912 0.60606 0.48705 0.0
O413 O 0.67325 0.63727 0.45631 0.0
C414 C 0.64615 0.65501 0.5423 0.0
O415 O 0.60276 0.67025 0.5452 0.0
N416 N 0.55375 0.64621 0.45172 0.0
C417 C 0.47124 0.6559 0.40973 0.0
C418 C 0.53194 0.65919 0.40559 0.0
C419 C 0.57224 0.65477 0.42712 0.0
C420 C 0.49453 0.644 0.45678 0.0
C421 C 0.45248 0.64824 0.43574 0.0
H422 H 0.61806 0.65941 0.42455 0.0
H423 H 0.47945 0.64043 0.47801 0.0
H424 H 0.71456 0.6788 0.48114 0.0
H425 H 0.58098 0.72997 0.49449 0.0
H426 H 0.64379 0.56072 0.48604 0.0
H427 H 0.5482 0.66557 0.38614 0.0
H428 H 0.40565 0.64653 0.44041 0.0
C429 C 0.55285 0.59757 0.75649 0.0
C430 C 0.57343 0.57519 0.75353 0.0
N431 N 0.63331 0.57563 0.75504 0.0
N432 N 0.59941 0.61215 0.75987 0.0
C433 C 0.6478 0.59828 0.7588 0.0
H434 H 0.50678 0.60289 0.75633 0.0
Co435 Co 0.59462 0.64443 0.76533 0.0
C436 C 0.71934 0.65322 0.78296 0.0
O437 O 0.73043 0.6611 0.75823 0.0
N438 N 0.58953 0.67665 0.77114 0.0
C439 C 0.59463 0.71376 0.79164 0.0
C440 C 0.60853 0.69165 0.79522 0.0
C441 C 0.5636 0.69002 0.75335 0.0
N442 N 0.56628 0.71279 0.7653 0.0
O443 O 0.63834 0.64473 0.72957 0.0
H444 H 0.62975 0.68683 0.81461 0.0
H445 H 0.54279 0.6831 0.73219 0.0
O446 O 0.66727 0.64654 0.78848 0.0
C447 C 0.62978 0.63245 0.70399 0.0
O448 O 0.58912 0.61625 0.70052 0.0
N449 N 0.54822 0.6445 0.79905 0.0
C450 C 0.46382 0.64334 0.84331 0.0
C451 C 0.52405 0.63944 0.84888 0.0
C452 C 0.56589 0.63985 0.82615 0.0
C453 C 0.49016 0.64879 0.79359 0.0
C454 C 0.44715 0.64826 0.81539 0.0
H455 H 0.61184 0.63595 0.83019 0.0
H456 H 0.4772 0.6522 0.77183 0.0
H457 H 0.6929 0.60468 0.76039 0.0
H458 H 0.54619 0.55986 0.75109 0.0
H459 H 0.60275 0.7293 0.80779 0.0
H460 H 0.53824 0.63538 0.87016 0.0
H461 H 0.40109 0.65148 0.81037 0.0
C462 C 0.38171 0.34971 0.46188 0.0
C463 C 0.36098 0.32736 0.45828 0.0
N464 N 0.32645 0.32544 0.48197 0.0
N465 N 0.36016 0.36182 0.48764 0.0
C466 C 0.32753 0.3465 0.49955 0.0
H467 H 0.40905 0.35693 0.44627 0.0
Co468 Co 0.37073 0.39323 0.50124 0.0
C469 C 0.2539 0.40627 0.52892 0.0
O470 O 0.24769 0.42322 0.51379 0.0
N471 N 0.3828 0.42457 0.51425 0.0
C472 C 0.3909 0.46019 0.54002 0.0
C473 C 0.37286 0.43799 0.5411 0.0
C474 C 0.40742 0.43877 0.49743 0.0
N475 N 0.41278 0.4606 0.5125 0.0
O476 O 0.32398 0.40043 0.46904 0.0
H477 H 0.35462 0.43198 0.56037 0.0
H478 H 0.42138 0.43305 0.4745 0.0
O479 O 0.30081 0.39386 0.52588 0.0
C480 C 0.27985 0.39255 0.45291 0.0
O481 O 0.2529 0.37365 0.45723 0.0
N482 N 0.42023 0.38674 0.53149 0.0
C483 C 0.50902 0.38387 0.57343 0.0
C484 C 0.4488 0.3827 0.58119 0.0
C485 C 0.40478 0.3842 0.5598 0.0
C486 C 0.4783 0.38672 0.5232 0.0
C487 C 0.52347 0.38531 0.54379 0.0
H488 H 0.35876 0.38416 0.56646 0.0
H489 H 0.48945 0.3887 0.50062 0.0
H490 H 0.30444 0.35075 0.52062 0.0
H491 H 0.36879 0.3139 0.43912 0.0
H492 H 0.38996 0.47469 0.55838 0.0
H493 H 0.43577 0.38166 0.60386 0.0
H494 H 0.56933 0.38581 0.53668 0.0
C495 C 0.42333 0.45303 0.24891 0.0
C496 C 0.39895 0.4748 0.25228 0.0
N497 N 0.3397 0.47273 0.24886 0.0
N498 N 0.37986 0.43707 0.24281 0.0
C499 C 0.32933 0.44978 0.24366 0.0
H500 H 0.46982 0.44956 0.25175 0.0
Co501 Co 0.38246 0.40429 0.23728 0.0
C502 C 0.3174 0.41421 0.18446 0.0
O503 O 0.35736 0.42962 0.18051 0.0
N504 N 0.38393 0.37236 0.2326 0.0
C505 C 0.3603 0.33524 0.22246 0.0
C506 C 0.34117 0.35731 0.22137 0.0
C507 C 0.42816 0.35919 0.24071 0.0
N508 N 0.41516 0.33639 0.23467 0.0
O509 O 0.3208 0.40475 0.26614 0.0
H510 H 0.29867 0.36198 0.21297 0.0
H511 H 0.46883 0.36633 0.25112 0.0
O512 O 0.32274 0.40275 0.20574 0.0
C513 C 0.33482 0.41329 0.2929 0.0
O514 O 0.3877 0.42251 0.29831 0.0
N515 N 0.44625 0.40277 0.21019 0.0
C516 C 0.54657 0.40426 0.17469 0.0
C517 C 0.49319 0.39481 0.16206 0.0
C518 C 0.44405 0.39347 0.18044 0.0
C519 C 0.49967 0.40888 0.22326 0.0
C520 C 0.55017 0.41029 0.20593 0.0
H521 H 0.40427 0.38523 0.17053 0.0
H522 H 0.50279 0.41309 0.24737 0.0
H523 H 0.28556 0.44222 0.24017 0.0
H524 H 0.423 0.49089 0.25763 0.0
H525 H 0.33581 0.3196 0.21438 0.0
H526 H 0.48871 0.38902 0.13819 0.0
H527 H 0.59146 0.41621 0.2169 0.0
H528 H 0.14573 0.25184 0.51204 0.0
H529 H 0.26822 0.20564 0.45786 0.0
H530 H 0.32873 0.23846 0.45014 0.0
H531 H 0.34794 0.28037 0.45967 0.0
H532 H 0.22461 0.32616 0.51402 0.0
H533 H 0.16456 0.29338 0.52144 0.0
C534 C 0.18592 0.24886 0.49878 0.0
C535 C 0.20224 0.22621 0.48564 0.0
C536 C 0.22082 0.26778 0.49465 0.0
C537 C 0.25402 0.22284 0.46799 0.0
C538 C 0.28895 0.24162 0.46372 0.0
C539 C 0.30777 0.2832 0.47298 0.0
C540 C 0.29134 0.3058 0.4864 0.0
C541 C 0.27284 0.26419 0.477 0.0
C542 C 0.23928 0.30903 0.50385 0.0
C543 C 0.20446 0.29026 0.50794 0.0
H544 H 0.01711 0.99142 0.52536 0.0
H545 H 0.94918 0.95903 0.43947 0.0
H546 H 0.98214 0.99202 0.4175 0.0
H547 H 0.02335 0.03139 0.42386 0.0
H548 H 0.08882 0.06378 0.51044 0.0
H549 H 0.06463 0.02939 0.53085 0.0
C550 C 0.00952 0.99159 0.50183 0.0
C551 C 0.97998 0.97297 0.48416 0.0
C552 C 0.02826 1.01062 0.48949 0.0
C553 C 0.97186 0.97314 0.45352 0.0
C554 C 0.99044 0.99205 0.44102 0.0
C555 C 0.03258 0.03089 0.44716 0.0
C556 C 0.05727 0.05038 0.46559 0.0
C557 C 0.01765 1.01109 0.45894 0.0
C558 C 0.07014 0.04916 0.4956 0.0
C559 C 0.05582 0.0295 0.50741 0.0
H560 H 0.26433 0.06839 0.76748 0.0
H561 H 0.12909 0.02982 0.71288 0.0
H562 H 0.19062 0.99518 0.70692 0.0
H563 H 0.28288 0.97552 0.71714 0.0
H564 H 0.41875 1.0138 0.77153 0.0
H565 H 0.35771 0.0487 0.7772 0.0
C566 C 0.24861 0.05246 0.75408 0.0
C567 C 0.19177 0.05177 0.74094 0.0
C568 C 0.28448 0.03244 0.75063 0.0
C569 C 0.17202 0.03086 0.72379 0.0
C570 C 0.20738 1.01099 0.7202 0.0
C571 C 0.29896 0.99144 0.73042 0.0
C572 C 0.35548 0.99193 0.74381 0.0
C573 C 0.26351 1.01151 0.73366 0.0
C574 C 0.37585 1.01289 0.76061 0.0
C575 C 0.34078 0.03289 0.764 0.0
H576 H 0.88899 0.27716 0.70807 0.0
H577 H 0.01363 0.32706 0.75293 0.0
H578 H 0.07382 0.29596 0.76714 0.0
H579 H 0.09379 0.25429 0.76448 0.0
H580 H 0.96868 0.20458 0.71952 0.0
H581 H 0.90599 0.23578 0.70777 0.0
C582 C 0.92932 0.28123 0.72096 0.0
C583 C 0.94695 0.30445 0.72919 0.0
C584 C 0.96376 0.26324 0.72897 0.0
C585 C 0.99876 0.30942 0.74644 0.0
C586 C 0.03343 0.2916 0.7544 0.0
C587 C 0.05277 0.25031 0.75213 0.0
C588 C 0.03621 0.22706 0.7428 0.0
C589 C 0.01683 0.26841 0.74542 0.0
C590 C 0.98236 0.22224 0.72724 0.0
C591 C 0.94662 0.2401 0.72033 0.0
H592 H 0.87554 0.77591 0.47029 0.0
H593 H 0.75865 0.82587 0.52232 0.0
H594 H 0.68542 0.79582 0.52458 0.0
H595 H 0.65523 0.75538 0.51265 0.0
H596 H 0.77099 0.70522 0.46015 0.0
H597 H 0.84476 0.73521 0.45803 0.0
C598 C 0.83426 0.7802 0.4823 0.0
C599 C 0.82273 0.80319 0.49604 0.0
C600 C 0.79233 0.76277 0.48367 0.0
C601 C 0.76849 0.80846 0.51115 0.0
C602 C 0.72668 0.79123 0.51265 0.0
C603 C 0.69622 0.75097 0.50044 0.0
C604 C 0.70721 0.72799 0.48655 0.0
C605 C 0.73814 0.76834 0.499 0.0
C606 C 0.76141 0.72264 0.47139 0.0
C607 C 0.80354 0.73984 0.46998 0.0
H608 H 0.88238 1.01668 0.26108 0.0
H609 H 0.75251 0.96933 0.21523 0.0
H610 H 0.68 1.0005 0.21867 0.0
H611 H 0.65363 0.04115 0.23388 0.0
H612 H 0.78243 0.08903 0.27936 0.0
H613 H 0.85574 0.05782 0.27619 0.0
C614 C 0.83839 1.01322 0.25166 0.0
C615 C 0.82296 0.9906 0.23813 0.0
C616 C 0.79681 0.03134 0.25348 0.0
C617 C 0.76542 0.98641 0.2263 0.0
C618 C 0.72395 1.00429 0.22804 0.0
C619 C 0.69745 0.04476 0.24345 0.0
C620 C 0.71232 0.06739 0.257 0.0
C621 C 0.73911 0.02677 0.24163 0.0
C622 C 0.76993 0.07181 0.26861 0.0
C623 C 0.81176 0.05394 0.26693 0.0
H624 H 0.9822 0.7966 0.19641 0.0
H625 H 0.93673 0.83257 0.2847 0.0
H626 H 0.97318 0.79989 0.30636 0.0
H627 H 0.01554 0.76076 0.29991 0.0
H628 H 0.06236 0.72521 0.21145 0.0
H629 H 0.02628 0.75788 0.19007 0.0
C630 C 0.97977 0.79723 0.22036 0.0
C631 C 0.95646 0.81696 0.23889 0.0
C632 C 0.00065 0.77839 0.23259 0.0
C633 C 0.95488 0.81768 0.26997 0.0
C634 C 0.97542 0.79894 0.28233 0.0
C635 C 0.01854 0.76019 0.276 0.0
C636 C 0.04156 0.74038 0.25739 0.0
C637 C 0.99825 0.77918 0.26383 0.0
C638 C 0.04407 0.73997 0.22635 0.0
C639 C 0.02378 0.75874 0.21408 0.0
H640 H 0.253 0.81206 0.98009 0.0
H641 H 0.39071 0.78134 0.02659 0.0
H642 H 0.33184 0.74637 0.0241 0.0
H643 H 0.2408 0.72438 0.00889 0.0
H644 H 0.10221 0.7552 0.96323 0.0
H645 H 0.16135 0.79021 0.96537 0.0
C646 C 0.26979 0.79783 0.98997 0.0
C647 C 0.32639 0.79935 0.00336 0.0
C648 C 0.23556 0.77769 0.9885 0.0
C649 C 0.34773 0.78056 0.01574 0.0
C650 C 0.31399 0.76054 0.01442 0.0
C651 C 0.22394 0.73866 -0.00087 0.0
C652 C 0.16727 0.73718 0.98589 0.0
C653 C 0.258 0.75883 0.00069 0.0
C654 C 0.14552 0.756 0.97377 0.0
C655 C 0.17935 0.77601 0.97494 0.0
H656 H 0.88777 0.49855 0.98086 0.0
H657 H 0.02578 0.47056 0.03023 0.0
H658 H 0.08614 0.5049 0.02975 0.0
H659 H 0.09891 0.54322 0.01617 0.0
H660 H 0.96087 0.57101 0.96654 0.0
H661 H 0.90075 0.53671 0.96705 0.0
C662 C 0.93078 0.5 0.99177 0.0
C663 C 0.95201 0.4819 0.00559 0.0
C664 C 0.96514 0.51988 0.99158 0.0
C665 C 0.00849 0.48402 0.01911 0.0
C666 C 0.04293 0.50375 0.01901 0.0
C667 C 0.05595 0.54174 0.00522 0.0
C668 C 0.03461 0.55985 0.99142 0.0
C669 C 0.02168 0.52181 0.00534 0.0
C670 C 0.97825 0.55763 0.97776 0.0
C671 C 0.94391 0.53789 0.97784 0.0
H672 H 0.12514 0.54237 0.26016 0.0
H673 H 0.26101 0.5861 0.23333 0.0
H674 H 0.3339 0.55504 0.23141 0.0
H675 H 0.35881 0.51536 0.2368 0.0
H676 H 0.2231 0.47163 0.26377 0.0
H677 H 0.15004 0.50262 0.26542 0.0
C678 C 0.17049 0.54505 0.25357 0.0
C679 C 0.18743 0.5666 0.24692 0.0
C680 C 0.21218 0.52707 0.2524 0.0
C681 C 0.2468 0.56984 0.23894 0.0
C682 C 0.2885 0.55203 0.23767 0.0
C683 C 0.31345 0.51265 0.24335 0.0
C684 C 0.29666 0.49115 0.25017 0.0
C685 C 0.27171 0.5306 0.24443 0.0
C686 C 0.23725 0.48786 0.25806 0.0
C687 C 0.19544 0.50564 0.25917 0.0
H688 H 0.63425 0.25491 0.00057 0.0
H689 H 0.76634 0.2075 0.95633 0.0
H690 H 0.83808 0.2389 0.95978 0.0
H691 H 0.86293 0.2799 0.97488 0.0
H692 H 0.73121 0.32717 0.01998 0.0
H693 H 0.65941 0.29588 0.01606 0.0
C694 C 0.67852 0.25149 0.99142 0.0
C695 C 0.69479 0.22886 0.97819 0.0
C696 C 0.7196 0.26964 -0.00649 0.0
C697 C 0.75279 0.22468 0.96692 0.0
C698 C 0.79378 0.24266 0.96876 0.0
C699 C 0.81877 0.28337 0.98412 0.0
C700 C 0.80272 0.30599 -0.00239 0.0
C701 C 0.77772 0.26521 0.98207 0.0
C702 C 0.74476 0.31009 0.00905 0.0
C703 C 0.70366 0.29214 0.00699 0.0
H704 H 0.61287 0.53129 0.7288 0.0
H705 H 0.74399 0.57566 0.77884 0.0
H706 H 0.81113 0.54285 0.77729 0.0
H707 H 0.8325 0.50159 0.76232 0.0
H708 H 0.70242 0.45701 0.71186 0.0
H709 H 0.63432 0.48973 0.71392 0.0
C710 C 0.65588 0.5338 0.7396 0.0
C711 C 0.67312 0.55608 0.75385 0.0
C712 C 0.69436 0.51474 0.7388 0.0
C713 C 0.72961 0.55891 0.76731 0.0
C714 C 0.76799 0.54007 0.76664 0.0
C715 C 0.78954 0.49897 0.75149 0.0
C716 C 0.77302 0.47673 0.73683 0.0
C717 C 0.75088 0.51793 0.75242 0.0
C718 C 0.71636 0.47376 0.72357 0.0
C719 C 0.67747 0.49255 0.72455 0.0
H720 H 0.62062 0.03152 0.9796 0.0
H721 H 0.46286 0.07401 -0.00506 0.0
H722 H 0.4033 0.03995 -0.0021 0.0
H723 H 0.39623 0.99832 -0.00278 0.0
H724 H 0.55372 0.9557 0.98181 0.0
H725 H 0.61348 0.98978 0.97892 0.0
C726 C 0.57333 0.03342 0.98386 0.0
C727 C 0.54649 0.05544 0.98704 0.0
C728 C 0.53934 1.01376 0.98586 0.0
C729 C 0.4848 0.05737 0.99198 0.0
C730 C 0.45069 0.03788 -0.00608 0.0
C731 C 0.4435 0.99637 -0.00707 0.0
C732 C 0.47019 0.97433 0.98967 0.0
C733 C 0.47751 1.01601 0.99095 0.0
C734 C 0.53189 0.97237 0.98477 0.0
C735 C 0.5661 0.99187 0.98288 0.0
H736 H 0.37998 0.29298 0.23827 0.0
H737 H 0.53523 0.33634 0.24162 0.0
H738 H 0.59844 0.30384 0.24781 0.0
H739 H 0.61029 0.26294 0.25049 0.0
H740 H 0.45602 0.21885 0.24348 0.0
H741 H 0.39196 0.25191 0.2407 0.0
C742 C 0.42762 0.29538 0.24008 0.0
C743 C 0.45244 0.31725 0.23933 0.0
C744 C 0.46407 0.27645 0.24303 0.0
C745 C 0.51441 0.31993 0.24243 0.0
C746 C 0.55082 0.30125 0.24577 0.0
C747 C 0.56278 0.26039 0.24806 0.0
C748 C 0.53845 0.23822 0.247 0.0
C749 C 0.52619 0.2794 0.2458 0.0
C750 C 0.47635 0.23561 0.24464 0.0
C751 C 0.43956 0.25453 0.24283 0.0
H752 H 0.41336 0.78789 0.7166 0.0
H753 H 0.54824 0.83216 0.76342 0.0
H754 H 0.60037 0.79856 0.77563 0.0
H755 H 0.6049 0.75681 0.77543 0.0
H756 H 0.46909 0.71244 0.72974 0.0
H757 H 0.42045 0.74577 0.71445 0.0
C758 C 0.45414 0.79018 0.72949 0.0
C759 C 0.47655 0.81261 0.73917 0.0
C760 C 0.48374 0.77074 0.73667 0.0
C761 C 0.53013 0.81519 0.75539 0.0
C762 C 0.55981 0.79595 0.76258 0.0
C763 C 0.5646 0.75441 0.76217 0.0
C764 C 0.54045 0.73212 0.75402 0.0
C765 C 0.53659 0.77369 0.75371 0.0
C766 C 0.48892 0.72931 0.73621 0.0
C767 C 0.46083 0.74842 0.72764 0.0
H768 H 0.57101 0.53234 0.46214 0.0
H769 H 0.45786 0.5802 0.5195 0.0
H770 H 0.40022 0.54796 0.53215 0.0
H771 H 0.38692 0.5059 0.52946 0.0
H772 H 0.502 0.45848 0.47231 0.0
H773 H 0.55391 0.49074 0.45694 0.0
C774 C 0.53353 0.53568 0.4773 0.0
C775 C 0.51901 0.55856 0.4901 0.0
C776 C 0.50123 0.51711 0.48462 0.0
C777 C 0.46966 0.56274 0.50925 0.0
C778 C 0.43708 0.5443 0.51666 0.0
C779 C 0.42335 0.50268 0.51366 0.0
C780 C 0.44075 0.47979 0.50221 0.0
C781 C 0.45326 0.52139 0.50495 0.0
C782 C 0.48733 0.47587 0.48129 0.0
C783 C 0.51731 0.49432 0.47261 0.0
H784 H 0.25919 0.09938 0.38072 0.0
H785 H 0.28594 0.15686 0.45276 0.0
H786 H 0.37223 0.1691 0.42684 0.0
H787 H 0.43734 0.16451 0.38212 0.0
H788 H 0.40534 0.10831 0.30917 0.0
H789 H 0.32423 0.09446 0.33697 0.0
C790 C 0.28435 0.1144 0.39097 0.0
C791 C 0.26624 0.12713 0.41866 0.0
C792 C 0.33287 0.12167 0.37561 0.0
C793 C 0.29892 0.14676 0.43141 0.0
C794 C 0.34824 0.15379 0.41659 0.0
C795 C 0.41269 0.14917 0.37255 0.0
C796 C 0.42682 0.13749 0.34366 0.0
C797 C 0.36517 0.14157 0.38845 0.0
C798 C 0.39464 0.11768 0.33129 0.0
C799 C 0.34845 0.10973 0.34718 0.0
H800 H 0.79099 0.14638 0.29457 0.0
H801 H 0.73128 0.21114 0.3464 0.0
H802 H 0.81982 0.21279 0.37761 0.0
H803 H 0.9109 0.19476 0.39234 0.0
H804 H 0.9695 0.12944 0.34183 0.0
H805 H 0.88574 0.12946 0.30754 0.0
C806 C 0.79752 0.16094 0.31255 0.0
C807 C 0.75412 0.17848 0.31827 0.0
C808 C 0.84858 0.16176 0.33061 0.0
C809 C 0.76361 0.19729 0.34157 0.0
C810 C 0.81433 0.19828 0.35947 0.0
C811 C 0.90553 0.18058 0.37373 0.0
C812 C 0.94626 0.16208 0.36981 0.0
C813 C 0.85657 0.18044 0.35451 0.0
C814 C 0.93923 0.14404 0.34524 0.0
C815 C 0.89094 0.14391 0.32578 0.0
H816 H 0.29096 0.13218 0.7933 0.0
H817 H 0.21274 0.18825 0.85574 0.0
H818 H 0.29322 0.18621 0.89081 0.0
H819 H 0.38427 0.16808 0.90486 0.0
H820 H 0.46645 0.11303 0.84298 0.0
H821 H 0.38652 0.11516 0.80661 0.0
C822 C 0.29179 0.14402 0.8145 0.0
C823 C 0.24546 0.16026 0.82181 0.0
C824 C 0.33888 0.14291 0.83478 0.0
C825 C 0.2475 0.17554 0.84938 0.0
C826 C 0.29356 0.17439 0.8696 0.0
C827 C 0.38455 0.15651 0.88342 0.0
C828 C 0.4306 0.14024 0.87669 0.0
C829 C 0.33909 0.15804 0.86268 0.0
C830 C 0.43125 0.12567 0.84862 0.0
C831 C 0.38554 0.12687 0.8279 0.0
H832 H 0.94382 0.1528 0.88133 0.0
H833 H 0.88555 0.10205 0.80668 0.0
H834 H 0.80074 0.09243 0.83567 0.0
H835 H 0.74044 0.0998 0.88116 0.0
H836 H 0.79452 0.15217 0.95507 0.0
H837 H 0.88369 0.15973 0.92765 0.0
C838 C 0.91268 0.13952 0.87165 0.0
C839 C 0.92046 0.1282 0.84199 0.0
C840 C 0.86327 0.13442 0.88826 0.0
C841 C 0.87988 0.11112 0.82944 0.0
C842 C 0.83155 0.10558 0.846 0.0
C843 C 0.77207 0.11267 0.89143 0.0
C844 C 0.76092 0.12537 0.9201 0.0
C845 C 0.82239 0.11731 0.87528 0.0
C846 C 0.80203 0.14219 0.93296 0.0
C847 C 0.85302 0.14654 0.9173 0.0
H848 H 0.56057 0.89445 0.59615 0.0
H849 H 0.68554 0.90987 0.66929 0.0
H850 H 0.76658 0.90966 0.63399 0.0
H851 H 0.80289 0.90573 0.58216 0.0
H852 H 0.67685 0.8948 0.50951 0.0
H853 H 0.59558 0.89323 0.54479 0.0
C854 C 0.60523 0.89813 0.60458 0.0
C855 C 0.61621 0.90178 0.63564 0.0
C856 C 0.65184 0.89892 0.58413 0.0
C857 C 0.67513 0.90621 0.64568 0.0
C858 C 0.72183 0.90638 0.62544 0.0
C859 C 0.75759 0.90298 0.57413 0.0
C860 C 0.74585 0.90029 0.54332 0.0
C861 C 0.7108 0.90271 0.59462 0.0
C862 C 0.68693 0.89703 0.53317 0.0
C863 C 0.64047 0.89606 0.55333 0.0
H864 H 0.29414 0.85747 0.63331 0.0
H865 H 0.25061 0.91904 0.69655 0.0
H866 H 0.15682 0.92266 0.67039 0.0
H867 H 0.08925 0.9093 0.62762 0.0
H868 H 0.13605 0.84853 0.56401 0.0
H869 H 0.226 0.84342 0.59239 0.0
C870 C 0.26417 0.87168 0.64149 0.0
C871 C 0.27969 0.88802 0.66675 0.0
C872 C 0.21063 0.87372 0.62629 0.0
C873 C 0.23997 0.90623 0.67708 0.0
C874 C 0.18624 0.90831 0.66214 0.0
C875 C 0.11882 0.89478 0.62042 0.0
C876 C 0.10631 0.87923 0.59395 0.0
C877 C 0.17131 0.89227 0.63653 0.0
C878 C 0.14505 0.86062 0.58442 0.0
C879 C 0.19649 0.85777 0.60054 0.0
H880 H 0.68518 0.86671 0.18847 0.0
H881 H 0.77995 0.92609 0.16933 0.0
H882 H 0.70834 0.93034 0.13036 0.0
H883 H 0.6201 0.91673 0.10075 0.0
H884 H 0.52652 0.85681 0.11884 0.0
H885 H 0.5957 0.85346 0.15928 0.0
C886 C 0.68986 0.88067 0.17591 0.0
C887 C 0.73808 0.89592 0.18167 0.0
C888 C 0.6487 0.88295 0.15328 0.0
C889 C 0.74362 0.91391 0.16513 0.0
C890 C 0.70262 0.91641 0.14285 0.0
C891 C 0.61504 0.90287 0.11344 0.0
C892 C 0.56808 0.88711 0.10678 0.0
C893 C 0.65536 0.90088 0.13649 0.0
C894 C 0.56171 0.86942 0.12374 0.0
C895 C 0.6015 0.86738 0.14678 0.0
H896 H 0.12326 0.93095 0.14443 0.0
H897 H 0.04124 0.87181 0.09061 0.0
H898 H 0.12146 0.86993 0.05349 0.0
H899 H 0.21871 0.88402 0.03829 0.0
H900 H 0.29691 0.94419 0.0927 0.0
H901 H 0.21443 0.94681 0.12745 0.0
C902 C 0.12289 0.91779 0.12441 0.0
C903 C 0.07722 0.90143 0.12019 0.0
C904 C 0.16859 0.91694 0.10336 0.0
C905 C 0.07632 0.88457 0.09414 0.0
C906 C 0.12219 0.88346 0.07306 0.0
C907 C 0.21733 0.89779 0.05761 0.0
C908 C 0.2644 0.9137 0.06296 0.0
C909 C 0.16918 0.89937 0.07769 0.0
C910 C 0.26168 0.93157 0.08801 0.0
C911 C 0.21447 0.93313 0.10802 0.0
H912 H 0.27513 0.65119 0.94745 0.0
H913 H 0.1846 0.60257 0.87999 0.0
H914 H 0.26845 0.60248 0.84617 0.0
H915 H 0.36555 0.6172 0.83481 0.0
H916 H 0.45854 0.66509 0.90171 0.0
H917 H 0.37608 0.66426 0.93693 0.0
C918 C 0.27392 0.64055 0.92537 0.0
C919 C 0.2235 0.62704 0.91619 0.0
C920 C 0.3227 0.64041 0.906 0.0
C921 C 0.22278 0.61315 0.88765 0.0
C922 C 0.27069 0.61309 0.86823 0.0
C923 C 0.36772 0.62739 0.85717 0.0
C924 C 0.4174 0.64136 0.8657 0.0
C925 C 0.32051 0.62679 0.87706 0.0
C926 C 0.42052 0.6542 0.8948 0.0
C927 C 0.37334 0.65381 0.91479 0.0
H928 H 0.71235 0.65944 0.84319 0.0
H929 H 0.83466 0.64253 0.76945 0.0
H930 H 0.91536 0.63814 0.80419 0.0
H931 H 0.9504 0.63888 0.85525 0.0
H932 H 0.83058 0.66067 0.9294 0.0
H933 H 0.74926 0.66259 0.89468 0.0
C934 C 0.75673 0.65476 0.83483 0.0
C935 C 0.76786 0.65122 0.80398 0.0
C936 C 0.80309 0.6529 0.85493 0.0
C937 C 0.82543 0.64546 0.79323 0.0
C938 C 0.8714 0.64286 0.81304 0.0
C939 C 0.90689 0.64444 0.864 0.0
C940 C 0.89716 0.64943 0.89511 0.0
C941 C 0.86072 0.64661 0.84394 0.0
C942 C 0.83967 0.65608 0.9057 0.0
C943 C 0.793 0.65749 0.88583 0.0
H944 H 0.30962 0.69113 0.31315 0.0
H945 H 0.21699 0.62811 0.32 0.0
H946 H 0.28788 0.61991 0.3572 0.0
H947 H 0.37623 0.63041 0.38781 0.0
H948 H 0.46916 0.69342 0.38178 0.0
H949 H 0.39854 0.70171 0.3441 0.0
C950 C 0.30517 0.67559 0.32273 0.0
C951 C 0.25791 0.66039 0.31399 0.0
C952 C 0.34615 0.67092 0.34425 0.0
C953 C 0.25255 0.6403 0.32661 0.0
C954 C 0.29318 0.63551 0.34785 0.0
C955 C 0.38065 0.64605 0.37843 0.0
C956 C 0.42773 0.66123 0.38747 0.0
C957 C 0.33994 0.65074 0.35693 0.0
C958 C 0.43356 0.6813 0.37486 0.0
C959 C 0.39311 0.68611 0.35343 0.0
H960 H 0.78056 0.64561 0.44444 0.0
H961 H 0.68916 0.59863 0.37544 0.0
H962 H 0.77052 0.60099 0.3408 0.0
H963 H 0.86498 0.61791 0.32923 0.0
H964 H 0.95796 0.66424 0.39789 0.0
H965 H 0.87856 0.66061 0.43374 0.0
C966 C 0.77868 0.63576 0.4219 0.0
C967 C 0.72873 0.62213 0.41245 0.0
C968 C 0.82563 0.63717 0.40205 0.0
C969 C 0.72708 0.6093 0.38327 0.0
C970 C 0.77346 0.61068 0.36338 0.0
C971 C 0.86768 0.62714 0.35209 0.0
C972 C 0.91638 0.64148 0.36104 0.0
C973 C 0.82241 0.62482 0.3724 0.0
C974 C 0.92048 0.65311 0.39072 0.0
C975 C 0.87519 0.65108 0.41109 0.0
H976 H 0.58538 0.37711 0.12303 0.0
H977 H 0.6222 0.44098 0.18312 0.0
H978 H 0.70492 0.4485 0.15169 0.0
H979 H 0.76645 0.43721 0.10708 0.0
H980 H 0.72782 0.37405 0.04598 0.0
H981 H 0.64522 0.36637 0.0775 0.0
C982 C 0.61105 0.3928 0.12913 0.0
C983 C 0.59761 0.40836 0.15555 0.0
C984 C 0.658 0.39727 0.11065 0.0
C985 C 0.63214 0.42843 0.16327 0.0
C986 C 0.67918 0.43288 0.14515 0.0
C987 C 0.73984 0.42181 0.10055 0.0
C988 C 0.75344 0.40625 0.07421 0.0
C989 C 0.69246 0.41745 0.11879 0.0
C990 C 0.71837 0.38638 0.0661 0.0
C991 C 0.67117 0.38191 0.08418 0.0
H992 H 0.14983 0.38812 0.07358 0.0
H993 H 0.01584 0.4065 0.14199 0.0
H994 H 0.09281 0.41188 0.18025 0.0
H995 H 0.1991 0.41391 0.19421 0.0
H996 H 0.33207 0.40137 0.12497 0.0
H997 H 0.25459 0.3919 0.08693 0.0
C998 C 0.13699 0.39374 0.09671 0.0
C999 C 0.07656 0.39699 0.10455 0.0
C1000 C 0.18157 0.39806 0.11851 0.0
C1001 C 0.06161 0.40343 0.13502 0.0
C1002 C 0.10574 0.40679 0.15702 0.0
C1003 C 0.21068 0.40898 0.17076 0.0
C1004 C 0.27058 0.4082 0.16212 0.0
C1005 C 0.16588 0.40446 0.14899 0.0
C1006 C 0.28585 0.40211 0.13184 0.0
C1007 C 0.24171 0.39667 0.1102 0.0
H1008 H 0.73077 0.40004 0.65948 0.0
H1009 H 0.64671 0.34576 0.6969 0.0
H1010 H 0.56552 0.34443 0.66083 0.0
H1011 H 0.51974 0.35805 0.61765 0.0
H1012 H 0.60502 0.4123 0.58068 0.0
H1013 H 0.6848 0.414 0.61733 0.0
C1014 C 0.69488 0.38784 0.65975 0.0
C1015 C 0.69515 0.37292 0.68075 0.0
C1016 C 0.64865 0.38706 0.63887 0.0
C1017 C 0.64773 0.35745 0.68096 0.0
C1018 C 0.6013 0.35663 0.66029 0.0
C1019 C 0.55559 0.37034 0.61778 0.0
C1020 C 0.55666 0.38486 0.59627 0.0
C1021 C 0.60145 0.37128 0.63902 0.0
C1022 C 0.60366 0.40061 0.59661 0.0
C1023 C 0.64914 0.40171 0.61768 0.0
H1024 H 0.08196 0.37271 0.6217 0.0
H1025 H 0.98332 0.43302 0.60775 0.0
H1026 H 0.05639 0.44024 0.57071 0.0
H1027 H 0.15104 0.43036 0.54401 0.0
H1028 H 0.2515 0.37127 0.56107 0.0
H1029 H 0.17554 0.36297 0.59549 0.0
C1030 C 0.07657 0.38757 0.61077 0.0
C1031 C 0.02737 0.40235 0.61768 0.0
C1032 C 0.11937 0.39195 0.59014 0.0
C1033 C 0.02041 0.42118 0.60268 0.0
C1034 C 0.06248 0.42545 0.58167 0.0
C1035 C 0.15625 0.41565 0.55521 0.0
C1036 C 0.207 0.40146 0.54978 0.0
C1037 C 0.11253 0.41108 0.57547 0.0
C1038 C 0.21299 0.38248 0.56458 0.0
C1039 C 0.1695 0.37769 0.58439 0.0
H1040 H 0.079 0.1027 0.6499 0.0
H1041 H 0.21278 0.15531 0.67039 0.0
H1042 H 0.22305 0.1568 0.61684 0.0
H1043 H 0.18137 0.14727 0.56516 0.0
H1044 H 0.04134 0.09685 0.54742 0.0
H1045 H 0.04648 0.09007 0.59874 0.0
C1046 C 0.11126 0.11421 0.6426 0.0
C1047 C 0.14451 0.12908 0.66393 0.0
C1048 C 0.11529 0.11544 0.61221 0.0
C1049 C 0.18675 0.14367 0.65427 0.0
C1050 C 0.19214 0.14466 0.62371 0.0
C1051 C 0.15331 0.1344 0.5725 0.0
C1052 C 0.11092 0.12257 0.55275 0.0
C1053 C 0.1549 0.13125 0.60258 0.0
C1054 C 0.07409 0.10615 0.56237 0.0
C1055 C 0.07687 0.10233 0.5917 0.0
H1056 H 0.86548 0.91705 0.42315 0.0
H1057 H 0.86852 0.84342 0.39301 0.0
H1058 H 0.85427 0.84882 0.34125 0.0
H1059 H 0.85948 0.87457 0.30415 0.0
H1060 H 0.87205 0.94803 0.33414 0.0
H1061 H 0.86058 0.9429 0.38616 0.0
C1062 C 0.86082 0.90225 0.40529 0.0
C1063 C 0.86743 0.87989 0.41167 0.0
C1064 C 0.85621 0.90557 0.37546 0.0
C1065 C 0.8631 0.86077 0.38843 0.0
C1066 C 0.85536 0.86387 0.35887 0.0
C1067 C 0.85748 0.88943 0.32208 0.0
C1068 C 0.86594 0.91164 0.31556 0.0
C1069 C 0.85446 0.8862 0.35198 0.0
C1070 C 0.86511 0.93081 0.33885 0.0
C1071 C 0.85898 0.92785 0.36854 0.0
H1072 H 0.16127 0.69461 0.09647 0.0
H1073 H 0.18925 0.6241 0.05281 0.0
H1074 H 0.20094 0.61212 0.10116 0.0
H1075 H 0.17875 0.62043 0.15505 0.0
H1076 H 0.15252 0.69086 0.19901 0.0
H1077 H 0.1656 0.70429 0.15146 0.0
C1078 C 0.17203 0.67678 0.09761 0.0
C1079 C 0.1727 0.66016 0.07131 0.0
C1080 C 0.17796 0.66996 0.12552 0.0
C1081 C 0.18785 0.63719 0.07282 0.0
C1082 C 0.194 0.63026 0.10049 0.0
C1083 C 0.17814 0.63876 0.15426 0.0
C1084 C 0.1636 0.65465 0.18003 0.0
C1085 C 0.1854 0.64628 0.1269 0.0
C1086 C 0.16346 0.67838 0.17921 0.0
C1087 C 0.17043 0.68603 0.15202 0.0
H1088 H 0.83095 0.35063 0.89433 0.0
H1089 H 0.81019 0.42142 0.93823 0.0
H1090 H 0.79547 0.43346 0.88997 0.0
H1091 H 0.80843 0.42459 0.83527 0.0
H1092 H 0.82537 0.35371 0.79125 0.0
H1093 H 0.82056 0.34081 0.83952 0.0
C1094 C 0.82129 0.36856 0.89327 0.0
C1095 C 0.82262 0.38518 0.91953 0.0
C1096 C 0.813 0.37534 0.86546 0.0
C1097 C 0.80942 0.40834 0.9182 0.0
C1098 C 0.80157 0.41526 0.8906 0.0
C1099 C 0.80916 0.4063 0.83632 0.0
C1100 C 0.81814 0.3901 0.81009 0.0
C1101 C 0.80625 0.39906 0.86407 0.0
C1102 C 0.81848 0.36643 0.81133 0.0
C1103 C 0.81624 0.35908 0.83891 0.0
H1104 H 0.67067 0.17239 0.17573 0.0
H1105 H 0.67996 0.09832 0.15119 0.0
H1106 H 0.68991 0.10152 0.0984 0.0
H1107 H 0.67603 0.12496 0.05915 0.0
H1108 H 0.65083 0.19851 0.08388 0.0
H1109 H 0.66796 0.1962 0.13648 0.0
C1110 C 0.67716 0.15705 0.15886 0.0
C1111 C 0.67507 0.13517 0.16713 0.0
C1112 C 0.67889 0.15901 0.1285 0.0
C1113 C 0.68185 0.11532 0.14516 0.0
C1114 C 0.68703 0.11716 0.11502 0.0
C1115 C 0.6763 0.14053 0.07601 0.0
C1116 C 0.66231 0.16188 0.06785 0.0
C1117 C 0.68269 0.13885 0.10633 0.0
C1118 C 0.66151 0.18191 0.08982 0.0
C1119 C 0.671 0.18057 0.11986 0.0
H1120 H 0.35958 0.87354 0.80377 0.0
H1121 H 0.35736 0.94618 0.84086 0.0
H1122 H 0.33788 0.93747 0.89072 0.0
H1123 H 0.34094 0.90931 0.92442 0.0
H1124 H 0.35963 0.83684 0.88818 0.0
H1125 H 0.35203 0.84511 0.83733 0.0
C1126 C 0.35266 0.8874 0.82266 0.0
C1127 C 0.35933 0.91044 0.81886 0.0
C1128 C 0.34535 0.88219 0.85146 0.0
C1129 C 0.35197 0.92834 0.84345 0.0
C1130 C 0.34128 0.92334 0.87191 0.0
C1131 C 0.34133 0.89528 0.90543 0.0
C1132 C 0.35078 0.87251 0.90994 0.0
C1133 C 0.34067 0.90034 0.87637 0.0
C1134 C 0.35238 0.8545 0.88514 0.0
C1135 C 0.34841 0.85925 0.8561 0.0
H1136 H 0.66954 0.68154 0.59566 0.0
H1137 H 0.67058 0.61099 0.54918 0.0
H1138 H 0.67494 0.59718 0.59676 0.0
H1139 H 0.6573 0.60545 0.65114 0.0
H1140 H 0.65863 0.67605 0.69759 0.0
H1141 H 0.67563 0.6896 0.65055 0.0
C1142 C 0.67278 0.66318 0.59605 0.0
C1143 C 0.66861 0.64729 0.56924 0.0
C1144 C 0.67469 0.65539 0.62344 0.0
C1145 C 0.67359 0.62354 0.56968 0.0
C1146 C 0.67543 0.61562 0.59688 0.0
C1147 C 0.66293 0.62374 0.65095 0.0
C1148 C 0.65536 0.63977 0.67745 0.0
C1149 C 0.67269 0.63141 0.62385 0.0
C1150 C 0.66384 0.6634 0.67729 0.0
C1151 C 0.6732 0.67118 0.65041 0.0
H1152 H 0.32291 0.44174 0.3456 0.0
H1153 H 0.26648 0.37576 0.29707 0.0
H1154 H 0.23155 0.36471 0.34363 0.0
H1155 H 0.23753 0.37102 0.39888 0.0
H1156 H 0.29808 0.43682 0.44666 0.0
H1157 H 0.30948 0.45099 0.39976 0.0
C1158 C 0.30129 0.42523 0.34519 0.0
C1159 C 0.29808 0.40941 0.31829 0.0
C1160 C 0.2827 0.41888 0.37198 0.0
C1161 C 0.26941 0.38818 0.31769 0.0
C1162 C 0.24999 0.38179 0.34433 0.0
C1163 C 0.25113 0.3887 0.39901 0.0
C1164 C 0.26823 0.4027 0.42602 0.0
C1165 C 0.25931 0.39655 0.37179 0.0
C1166 C 0.28567 0.42561 0.426 0.0
C1167 C 0.29246 0.43371 0.39921 0.0
loop_
_geom_bond_atom_site_label_1
_geom_bond_atom_site_label_2
_geom_bond_distance
_geom_bond_site_symmetry_2
_ccdc_geom_bond_type
C0 C1 1.351 . S
C0 N3 1.368 . S
C0 H5 0.931 . S
C1 C0 1.351 . S
C1 N2 1.373 . S
C1 H29 0.930 . S
N2 C1 1.373 . S
N2 C4 1.340 . S
N3 C0 1.368 . S
N3 C4 1.321 . S
N3 Co6 2.135 . S
C4 N2 1.340 . S
C4 N3 1.321 . S
C4 H28 0.930 . S
H5 C0 0.931 . S
Co6 N3 2.135 . S
Co6 N9 2.121 . S
Co6 O14 2.055 . S
Co6 O17 2.039 . S
Co6 N20 2.140 . S
C7 O8 1.227 . S
C7 O17 1.265 . S
O8 C7 1.227 . S
N9 Co6 2.121 . S
N9 C11 1.375 . S
N9 C12 1.313 . S
C10 C11 1.338 . S
C10 N13 1.377 . S
C10 H30 0.930 . S
C11 N9 1.375 . S
C11 C10 1.338 . S
C11 H15 0.931 . S
C12 N9 1.313 . S
C12 N13 1.344 . S
C12 H16 0.930 . S
N13 C10 1.377 . S
N13 C12 1.344 . S
O14 Co6 2.055 . S
O14 C18 1.253 . S
H15 C11 0.931 . S
H16 C12 0.930 . S
O17 Co6 2.039 . S
O17 C7 1.265 . S
C18 O14 1.253 . S
C18 O19 1.227 . S
O19 C18 1.227 . S
N20 Co6 2.140 . S
N20 C23 1.346 . S
N20 C24 1.345 1_455 S
C21 C22 1.387 . S
C21 C25 1.391 . S
C22 C21 1.387 . S
C22 C23 1.369 1_655 S
C22 H31 0.929 . S
C23 N20 1.346 . S
C23 C22 1.369 1_455 S
C23 H26 0.928 . S
C24 N20 1.345 1_655 S
C24 C25 1.371 . S
C24 H27 0.931 . S
C25 C21 1.391 . S
C25 C24 1.371 . S
C25 H32 0.930 . S
H26 C23 0.928 . S
H27 C24 0.931 . S
H28 C4 0.930 . S
H29 C1 0.930 . S
H30 C10 0.930 . S
H31 C22 0.929 . S
H32 C25 0.930 . S
C33 C34 1.351 . S
C33 N36 1.368 . S
C33 H38 0.931 . S
C34 C33 1.351 . S
C34 N35 1.373 . S
C34 H62 0.930 . S
N35 C34 1.373 . S
N35 C37 1.340 . S
N36 C33 1.368 . S
N36 C37 1.321 . S
N36 Co39 2.135 . S
C37 N35 1.340 . S
C37 N36 1.321 . S
C37 H61 0.930 . S
H38 C33 0.931 . S
Co39 N36 2.135 . S
Co39 N42 2.121 . S
Co39 O47 2.055 . S
Co39 O50 2.039 . S
Co39 N53 2.140 . S
C40 O41 1.227 . S
C40 O50 1.265 . S
O41 C40 1.227 . S
N42 Co39 2.121 . S
N42 C44 1.375 . S
N42 C45 1.313 . S
C43 C44 1.338 . S
C43 N46 1.377 . S
C43 H63 0.930 . S
C44 N42 1.375 . S
C44 C43 1.338 . S
C44 H48 0.931 . S
C45 N42 1.313 . S
C45 N46 1.344 . S
C45 H49 0.930 . S
N46 C43 1.377 . S
N46 C45 1.344 . S
O47 Co39 2.055 . S
O47 C51 1.253 . S
H48 C44 0.931 . S
H49 C45 0.930 . S
O50 Co39 2.039 . S
O50 C40 1.265 . S
C51 O47 1.253 . S
C51 O52 1.227 . S
O52 C51 1.227 . S
N53 Co39 2.140 . S
N53 C56 1.346 . S
N53 C57 1.345 1_455 S
C54 C55 1.387 . S
C54 C58 1.391 . S
C55 C54 1.387 . S
C55 C56 1.369 1_655 S
C55 H64 0.929 . S
C56 N53 1.346 . S
C56 C55 1.369 1_455 S
C56 H59 0.928 . S
C57 N53 1.345 1_655 S
C57 C58 1.371 . S
C57 H60 0.931 . S
C58 C54 1.391 . S
C58 C57 1.371 . S
C58 H65 0.930 . S
H59 C56 0.928 . S
H60 C57 0.931 . S
H61 C37 0.930 . S
H62 C34 0.930 . S
H63 C43 0.930 . S
H64 C55 0.929 . S
H65 C58 0.930 . S
C66 C67 1.351 . S
C66 N69 1.368 . S
C66 H71 0.931 . S
C67 C66 1.351 . S
C67 N68 1.373 . S
C67 H95 0.930 . S
N68 C67 1.373 . S
N68 C70 1.340 . S
N69 C66 1.368 . S
N69 C70 1.321 . S
N69 Co72 2.135 . S
C70 N68 1.340 . S
C70 N69 1.321 . S
C70 H94 0.930 . S
H71 C66 0.931 . S
Co72 N69 2.135 . S
Co72 N75 2.121 . S
Co72 O80 2.055 . S
Co72 O83 2.039 . S
Co72 N86 2.140 . S
C73 O74 1.227 . S
C73 O83 1.265 . S
O74 C73 1.227 . S
N75 Co72 2.121 . S
N75 C77 1.375 . S
N75 C78 1.313 . S
C76 C77 1.338 . S
C76 N79 1.377 . S
C76 H96 0.930 . S
C77 N75 1.375 . S
C77 C76 1.338 . S
C77 H81 0.931 . S
C78 N75 1.313 . S
C78 N79 1.344 . S
C78 H82 0.930 . S
N79 C76 1.377 . S
N79 C78 1.344 . S
O80 Co72 2.055 . S
O80 C84 1.253 . S
H81 C77 0.931 . S
H82 C78 0.930 . S
O83 Co72 2.039 . S
O83 C73 1.265 . S
C84 O80 1.253 . S
C84 O85 1.227 . S
O85 C84 1.227 . S
N86 Co72 2.140 . S
N86 C89 1.346 . S
N86 C90 1.345 1_655 S
C87 C88 1.387 . S
C87 C91 1.391 . S
C88 C87 1.387 . S
C88 C89 1.369 1_455 S
C88 H97 0.929 . S
C89 N86 1.346 . S
C89 C88 1.369 1_655 S
C89 H92 0.928 . S
C90 N86 1.345 1_455 S
C90 C91 1.371 . S
C90 H93 0.931 . S
C91 C87 1.391 . S
C91 C90 1.371 . S
C91 H98 0.930 . S
H92 C89 0.928 . S
H93 C90 0.931 . S
H94 C70 0.930 . S
H95 C67 0.930 . S
H96 C76 0.930 . S
H97 C88 0.929 . S
H98 C91 0.930 . S
C99 C100 1.351 . S
C99 N102 1.368 . S
C99 H104 0.931 . S
C100 C99 1.351 . S
C100 N101 1.373 . S
C100 H128 0.930 . S
N101 C100 1.373 . S
N101 C103 1.340 . S
N102 C99 1.368 . S
N102 C103 1.321 . S
N102 Co105 2.135 . S
C103 N101 1.340 . S
C103 N102 1.321 . S
C103 H127 0.930 . S
H104 C99 0.931 . S
Co105 N102 2.135 . S
Co105 N108 2.121 . S
Co105 O113 2.055 . S
Co105 O116 2.039 . S
Co105 N119 2.140 . S
C106 O107 1.227 . S
C106 O116 1.265 . S
O107 C106 1.227 . S
N108 Co105 2.121 . S
N108 C110 1.375 . S
N108 C111 1.313 . S
C109 C110 1.338 . S
C109 N112 1.377 . S
C109 H129 0.930 . S
C110 N108 1.375 . S
C110 C109 1.338 . S
C110 H114 0.931 . S
C111 N108 1.313 . S
C111 N112 1.344 . S
C111 H115 0.930 . S
N112 C109 1.377 . S
N112 C111 1.344 . S
O113 Co105 2.055 . S
O113 C117 1.253 . S
H114 C110 0.931 . S
H115 C111 0.930 . S
O116 Co105 2.039 . S
O116 C106 1.265 . S
C117 O113 1.253 . S
C117 O118 1.227 . S
O118 C117 1.227 . S
N119 Co105 2.140 . S
N119 C122 1.346 . S
N119 C123 1.345 1_655 S
C120 C121 1.387 . S
C120 C124 1.391 . S
C121 C120 1.387 . S
C121 C122 1.369 1_455 S
C121 H130 0.929 . S
C122 N119 1.346 . S
C122 C121 1.369 1_655 S
C122 H125 0.928 . S
C123 N119 1.345 1_455 S
C123 C124 1.371 . S
C123 H126 0.931 . S
C124 C120 1.391 . S
C124 C123 1.371 . S
C124 H131 0.930 . S
H125 C122 0.928 . S
H126 C123 0.931 . S
H127 C103 0.930 . S
H128 C100 0.930 . S
H129 C109 0.930 . S
H130 C121 0.929 . S
H131 C124 0.930 . S
C132 C133 1.351 . S
C132 N135 1.368 1_554 S
C132 H137 0.931 . S
C133 C132 1.351 . S
C133 N134 1.373 1_554 S
C133 H161 0.930 . S
N134 C133 1.373 1_556 S
N134 C136 1.340 . S
N135 C132 1.368 1_556 S
N135 C136 1.321 . S
N135 Co138 2.135 . S
C136 N134 1.340 . S
C136 N135 1.321 . S
C136 H160 0.930 . S
H137 C132 0.931 . S
Co138 N135 2.135 . S
Co138 N141 2.121 . S
Co138 O146 2.055 1_556 S
Co138 O149 2.039 . S
Co138 N152 2.140 . S
C139 O140 1.227 . S
C139 O149 1.265 . S
O140 C139 1.227 . S
N141 Co138 2.121 . S
N141 C143 1.375 . S
N141 C144 1.313 . S
C142 C143 1.338 . S
C142 N145 1.377 . S
C142 H162 0.930 . S
C143 N141 1.375 . S
C143 C142 1.338 . S
C143 H147 0.931 . S
C144 N141 1.313 . S
C144 N145 1.344 . S
C144 H148 0.930 1_556 S
N145 C142 1.377 . S
N145 C144 1.344 . S
O146 Co138 2.055 1_554 S
O146 C150 1.253 . S
H147 C143 0.931 . S
H148 C144 0.930 1_554 S
O149 Co138 2.039 . S
O149 C139 1.265 . S
C150 O146 1.253 . S
C150 O151 1.227 . S
O151 C150 1.227 . S
N152 Co138 2.140 . S
N152 C155 1.346 . S
N152 C156 1.345 1_455 S
C153 C154 1.387 . S
C153 C157 1.391 . S
C154 C153 1.387 . S
C154 C155 1.369 1_655 S
C154 H163 0.929 . S
C155 N152 1.346 . S
C155 C154 1.369 1_455 S
C155 H158 0.928 . S
C156 N152 1.345 1_655 S
C156 C157 1.371 . S
C156 H159 0.931 . S
C157 C153 1.391 . S
C157 C156 1.371 . S
C157 H164 0.930 . S
H158 C155 0.928 . S
H159 C156 0.931 . S
H160 C136 0.930 . S
H161 C133 0.930 . S
H162 C142 0.930 . S
H163 C154 0.929 . S
H164 C157 0.930 . S
C165 C166 1.351 . S
C165 N168 1.368 . S
C165 H170 0.931 . S
C166 C165 1.351 . S
C166 N167 1.373 . S
C166 H194 0.930 . S
N167 C166 1.373 . S
N167 C169 1.340 . S
N168 C165 1.368 . S
N168 C169 1.321 . S
N168 Co171 2.135 . S
C169 N167 1.340 . S
C169 N168 1.321 . S
C169 H193 0.930 . S
H170 C165 0.931 . S
Co171 N168 2.135 . S
Co171 N174 2.121 . S
Co171 O179 2.055 . S
Co171 O182 2.039 . S
Co171 N185 2.140 . S
C172 O173 1.227 . S
C172 O182 1.265 . S
O173 C172 1.227 . S
N174 Co171 2.121 . S
N174 C176 1.375 . S
N174 C177 1.313 . S
C175 C176 1.338 . S
C175 N178 1.377 . S
C175 H195 0.930 . S
C176 N174 1.375 . S
C176 C175 1.338 . S
C176 H180 0.931 . S
C177 N174 1.313 . S
C177 N178 1.344 . S
C177 H181 0.930 . S
N178 C175 1.377 . S
N178 C177 1.344 . S
O179 Co171 2.055 . S
O179 C183 1.253 . S
H180 C176 0.931 . S
H181 C177 0.930 . S
O182 Co171 2.039 . S
O182 C172 1.265 . S
C183 O179 1.253 . S
C183 O184 1.227 . S
O184 C183 1.227 . S
N185 Co171 2.140 . S
N185 C188 1.346 . S
N185 C189 1.345 1_455 S
C186 C187 1.387 . S
C186 C190 1.391 . S
C187 C186 1.387 . S
C187 C188 1.369 1_655 S
C187 H196 0.929 . S
C188 N185 1.346 . S
C188 C187 1.369 1_455 S
C188 H191 0.928 . S
C189 N185 1.345 1_655 S
C189 C190 1.371 . S
C189 H192 0.931 . S
C190 C186 1.391 . S
C190 C189 1.371 . S
C190 H197 0.930 . S
H191 C188 0.928 . S
H192 C189 0.931 . S
H193 C169 0.930 . S
H194 C166 0.930 . S
H195 C175 0.930 . S
H196 C187 0.929 . S
H197 C190 0.930 . S
C198 C199 1.351 . S
C198 N201 1.368 1_556 S
C198 H203 0.931 . S
C199 C198 1.351 . S
C199 N200 1.373 1_556 S
C199 H227 0.930 . S
N200 C199 1.373 1_554 S
N200 C202 1.340 . S
N201 C198 1.368 1_554 S
N201 C202 1.321 . S
N201 Co204 2.135 . S
C202 N200 1.340 . S
C202 N201 1.321 . S
C202 H226 0.930 . S
H203 C198 0.931 . S
Co204 N201 2.135 . S
Co204 N207 2.121 . S
Co204 O212 2.055 1_554 S
Co204 O215 2.039 . S
Co204 N218 2.140 . S
C205 O206 1.227 . S
C205 O215 1.265 . S
O206 C205 1.227 . S
N207 Co204 2.121 . S
N207 C209 1.375 . S
N207 C210 1.313 . S
C208 C209 1.338 . S
C208 N211 1.377 . S
C208 H228 0.930 . S
C209 N207 1.375 . S
C209 C208 1.338 . S
C209 H213 0.931 . S
C210 N207 1.313 . S
C210 N211 1.344 . S
C210 H214 0.930 1_554 S
N211 C208 1.377 . S
N211 C210 1.344 . S
O212 Co204 2.055 1_556 S
O212 C216 1.253 . S
H213 C209 0.931 . S
H214 C210 0.930 1_556 S
O215 Co204 2.039 . S
O215 C205 1.265 . S
C216 O212 1.253 . S
C216 O217 1.227 . S
O217 C216 1.227 . S
N218 Co204 2.140 . S
N218 C221 1.346 . S
N218 C222 1.345 1_655 S
C219 C220 1.387 . S
C219 C223 1.391 . S
C220 C219 1.387 . S
C220 C221 1.369 1_455 S
C220 H229 0.929 . S
C221 N218 1.346 . S
C221 C220 1.369 1_655 S
C221 H224 0.928 . S
C222 N218 1.345 1_455 S
C222 C223 1.371 . S
C222 H225 0.931 . S
C223 C219 1.391 . S
C223 C222 1.371 . S
C223 H230 0.930 . S
H224 C221 0.928 . S
H225 C222 0.931 . S
H226 C202 0.930 . S
H227 C199 0.930 . S
H228 C208 0.930 . S
H229 C220 0.929 . S
H230 C223 0.930 . S
C231 C232 1.351 . S
C231 N234 1.368 . S
C231 H236 0.931 . S
C232 C231 1.351 . S
C232 N233 1.373 . S
C232 H260 0.930 . S
N233 C232 1.373 . S
N233 C235 1.340 . S
N234 C231 1.368 . S
N234 C235 1.321 . S
N234 Co237 2.135 . S
C235 N233 1.340 . S
C235 N234 1.321 . S
C235 H259 0.930 . S
H236 C231 0.931 . S
Co237 N234 2.135 . S
Co237 N240 2.121 . S
Co237 O245 2.055 . S
Co237 O248 2.039 . S
Co237 N251 2.140 . S
C238 O239 1.227 . S
C238 O248 1.265 . S
O239 C238 1.227 . S
N240 Co237 2.121 . S
N240 C242 1.375 . S
N240 C243 1.313 . S
C241 C242 1.338 . S
C241 N244 1.377 . S
C241 H261 0.930 . S
C242 N240 1.375 . S
C242 C241 1.338 . S
C242 H246 0.931 . S
C243 N240 1.313 . S
C243 N244 1.344 . S
C243 H247 0.930 . S
N244 C241 1.377 . S
N244 C243 1.344 . S
O245 Co237 2.055 . S
O245 C249 1.253 . S
H246 C242 0.931 . S
H247 C243 0.930 . S
O248 Co237 2.039 . S
O248 C238 1.265 . S
C249 O245 1.253 . S
C249 O250 1.227 . S
O250 C249 1.227 . S
N251 Co237 2.140 . S
N251 C254 1.346 . S
N251 C255 1.345 1_655 S
C252 C253 1.387 . S
C252 C256 1.391 . S
C253 C252 1.387 . S
C253 C254 1.369 1_455 S
C253 H262 0.929 . S
C254 N251 1.346 . S
C254 C253 1.369 1_655 S
C254 H257 0.928 . S
C255 N251 1.345 1_455 S
C255 C256 1.371 . S
C255 H258 0.931 . S
C256 C252 1.391 . S
C256 C255 1.371 . S
C256 H263 0.930 . S
H257 C254 0.928 . S
H258 C255 0.931 . S
H259 C235 0.930 . S
H260 C232 0.930 . S
H261 C241 0.930 . S
H262 C253 0.929 . S
H263 C256 0.930 . S
C264 C265 1.351 . S
C264 N267 1.368 1_554 S
C264 H269 0.931 . S
C265 C264 1.351 . S
C265 N266 1.373 1_554 S
C265 H293 0.930 . S
N266 C265 1.373 1_556 S
N266 C268 1.340 . S
N267 C264 1.368 1_556 S
N267 C268 1.321 . S
N267 Co270 2.135 . S
C268 N266 1.340 . S
C268 N267 1.321 . S
C268 H292 0.930 . S
H269 C264 0.931 . S
Co270 N267 2.135 . S
Co270 N273 2.121 . S
Co270 O278 2.055 1_556 S
Co270 O281 2.039 . S
Co270 N284 2.140 . S
C271 O272 1.227 . S
C271 O281 1.265 . S
O272 C271 1.227 . S
N273 Co270 2.121 . S
N273 C275 1.375 . S
N273 C276 1.313 . S
C274 C275 1.338 . S
C274 N277 1.377 . S
C274 H294 0.930 . S
C275 N273 1.375 . S
C275 C274 1.338 . S
C275 H279 0.931 . S
C276 N273 1.313 . S
C276 N277 1.344 . S
C276 H280 0.930 1_556 S
N277 C274 1.377 . S
N277 C276 1.344 . S
O278 Co270 2.055 1_554 S
O278 C282 1.253 . S
H279 C275 0.931 . S
H280 C276 0.930 1_554 S
O281 Co270 2.039 . S
O281 C271 1.265 . S
C282 O278 1.253 . S
C282 O283 1.227 . S
O283 C282 1.227 . S
N284 Co270 2.140 . S
N284 C287 1.346 . S
N284 C288 1.345 . S
C285 C286 1.387 . S
C285 C289 1.391 . S
C286 C285 1.387 . S
C286 C287 1.369 . S
C286 H295 0.929 . S
C287 N284 1.346 . S
C287 C286 1.369 . S
C287 H290 0.928 . S
C288 N284 1.345 . S
C288 C289 1.371 . S
C288 H291 0.931 . S
C289 C285 1.391 . S
C289 C288 1.371 . S
C289 H296 0.930 . S
H290 C287 0.928 . S
H291 C288 0.931 . S
H292 C268 0.930 . S
H293 C265 0.930 . S
H294 C274 0.930 . S
H295 C286 0.929 . S
H296 C289 0.930 . S
C297 C298 1.351 . S
C297 N300 1.368 . S
C297 H302 0.931 . S
C298 C297 1.351 . S
C298 N299 1.373 . S
C298 H326 0.930 . S
N299 C298 1.373 . S
N299 C301 1.340 . S
N300 C297 1.368 . S
N300 C301 1.321 . S
N300 Co303 2.135 . S
C301 N299 1.340 . S
C301 N300 1.321 . S
C301 H325 0.930 . S
H302 C297 0.931 . S
Co303 N300 2.135 . S
Co303 N306 2.121 . S
Co303 O311 2.055 . S
Co303 O314 2.039 . S
Co303 N317 2.140 . S
C304 O305 1.227 . S
C304 O314 1.265 . S
O305 C304 1.227 . S
N306 Co303 2.121 . S
N306 C308 1.375 . S
N306 C309 1.313 . S
C307 C308 1.338 . S
C307 N310 1.377 . S
C307 H327 0.930 . S
C308 N306 1.375 . S
C308 C307 1.338 . S
C308 H312 0.931 . S
C309 N306 1.313 . S
C309 N310 1.344 . S
C309 H313 0.930 . S
N310 C307 1.377 . S
N310 C309 1.344 . S
O311 Co303 2.055 . S
O311 C315 1.253 . S
H312 C308 0.931 . S
H313 C309 0.930 . S
O314 Co303 2.039 . S
O314 C304 1.265 . S
C315 O311 1.253 . S
C315 O316 1.227 . S
O316 C315 1.227 . S
N317 Co303 2.140 . S
N317 C320 1.346 . S
N317 C321 1.345 . S
C318 C319 1.387 . S
C318 C322 1.391 . S
C319 C318 1.387 . S
C319 C320 1.369 . S
C319 H328 0.929 . S
C320 N317 1.346 . S
C320 C319 1.369 . S
C320 H323 0.928 . S
C321 N317 1.345 . S
C321 C322 1.371 . S
C321 H324 0.931 . S
C322 C318 1.391 . S
C322 C321 1.371 . S
C322 H329 0.930 . S
H323 C320 0.928 . S
H324 C321 0.931 . S
H325 C301 0.930 . S
H326 C298 0.930 . S
H327 C307 0.930 . S
H328 C319 0.929 . S
H329 C322 0.930 . S
C330 C331 1.351 . S
C330 N333 1.368 1_556 S
C330 H335 0.931 . S
C331 C330 1.351 . S
C331 N332 1.373 1_556 S
C331 H359 0.930 . S
N332 C331 1.373 1_554 S
N332 C334 1.340 . S
N333 C330 1.368 1_554 S
N333 C334 1.321 . S
N333 Co336 2.135 . S
C334 N332 1.340 . S
C334 N333 1.321 . S
C334 H358 0.930 . S
H335 C330 0.931 . S
Co336 N333 2.135 . S
Co336 N339 2.121 . S
Co336 O344 2.055 1_554 S
Co336 O347 2.039 . S
Co336 N350 2.140 . S
C337 O338 1.227 . S
C337 O347 1.265 . S
O338 C337 1.227 . S
N339 Co336 2.121 . S
N339 C341 1.375 . S
N339 C342 1.313 . S
C340 C341 1.338 . S
C340 N343 1.377 . S
C340 H360 0.930 . S
C341 N339 1.375 . S
C341 C340 1.338 . S
C341 H345 0.931 . S
C342 N339 1.313 . S
C342 N343 1.344 . S
C342 H346 0.930 1_554 S
N343 C340 1.377 . S
N343 C342 1.344 . S
O344 Co336 2.055 1_556 S
O344 C348 1.253 . S
H345 C341 0.931 . S
H346 C342 0.930 1_556 S
O347 Co336 2.039 . S
O347 C337 1.265 . S
C348 O344 1.253 . S
C348 O349 1.227 . S
O349 C348 1.227 . S
N350 Co336 2.140 . S
N350 C353 1.346 . S
N350 C354 1.345 . S
C351 C352 1.387 . S
C351 C355 1.391 . S
C352 C351 1.387 . S
C352 C353 1.369 . S
C352 H361 0.929 . S
C353 N350 1.346 . S
C353 C352 1.369 . S
C353 H356 0.928 . S
C354 N350 1.345 . S
C354 C355 1.371 . S
C354 H357 0.931 . S
C355 C351 1.391 . S
C355 C354 1.371 . S
C355 H362 0.930 . S
H356 C353 0.928 . S
H357 C354 0.931 . S
H358 C334 0.930 . S
H359 C331 0.930 . S
H360 C340 0.930 . S
H361 C352 0.929 . S
H362 C355 0.930 . S
C363 C364 1.351 . S
C363 N366 1.368 . S
C363 H368 0.931 . S
C364 C363 1.351 . S
C364 N365 1.373 . S
C364 H392 0.930 . S
N365 C364 1.373 . S
N365 C367 1.340 . S
N366 C363 1.368 . S
N366 C367 1.321 . S
N366 Co369 2.135 . S
C367 N365 1.340 . S
C367 N366 1.321 . S
C367 H391 0.930 . S
H368 C363 0.931 . S
Co369 N366 2.135 . S
Co369 N372 2.121 . S
Co369 O377 2.055 . S
Co369 O380 2.039 . S
Co369 N383 2.140 . S
C370 O371 1.227 . S
C370 O380 1.265 . S
O371 C370 1.227 . S
N372 Co369 2.121 . S
N372 C374 1.375 . S
N372 C375 1.313 . S
C373 C374 1.338 . S
C373 N376 1.377 . S
C373 H393 0.930 . S
C374 N372 1.375 . S
C374 C373 1.338 . S
C374 H378 0.931 . S
C375 N372 1.313 . S
C375 N376 1.344 . S
C375 H379 0.930 . S
N376 C373 1.377 . S
N376 C375 1.344 . S
O377 Co369 2.055 . S
O377 C381 1.253 . S
H378 C374 0.931 . S
H379 C375 0.930 . S
O380 Co369 2.039 . S
O380 C370 1.265 . S
C381 O377 1.253 . S
C381 O382 1.227 . S
O382 C381 1.227 . S
N383 Co369 2.140 . S
N383 C386 1.346 . S
N383 C387 1.345 . S
C384 C385 1.387 . S
C384 C388 1.391 . S
C385 C384 1.387 . S
C385 C386 1.369 . S
C385 H394 0.929 . S
C386 N383 1.346 . S
C386 C385 1.369 . S
C386 H389 0.928 . S
C387 N383 1.345 . S
C387 C388 1.371 . S
C387 H390 0.931 . S
C388 C384 1.391 . S
C388 C387 1.371 . S
C388 H395 0.930 . S
H389 C386 0.928 . S
H390 C387 0.931 . S
H391 C367 0.930 . S
H392 C364 0.930 . S
H393 C373 0.930 . S
H394 C385 0.929 . S
H395 C388 0.930 . S
C396 C397 1.351 . S
C396 N399 1.368 . S
C396 H401 0.931 . S
C397 C396 1.351 . S
C397 N398 1.373 . S
C397 H425 0.930 . S
N398 C397 1.373 . S
N398 C400 1.340 . S
N399 C396 1.368 . S
N399 C400 1.321 . S
N399 Co402 2.135 . S
C400 N398 1.340 . S
C400 N399 1.321 . S
C400 H424 0.930 . S
H401 C396 0.931 . S
Co402 N399 2.135 . S
Co402 N405 2.121 . S
Co402 O410 2.055 . S
Co402 O413 2.039 . S
Co402 N416 2.140 . S
C403 O404 1.227 . S
C403 O413 1.265 . S
O404 C403 1.227 . S
N405 Co402 2.121 . S
N405 C407 1.375 . S
N405 C408 1.313 . S
C406 C407 1.338 . S
C406 N409 1.377 . S
C406 H426 0.930 . S
C407 N405 1.375 . S
C407 C406 1.338 . S
C407 H411 0.931 . S
C408 N405 1.313 . S
C408 N409 1.344 . S
C408 H412 0.930 . S
N409 C406 1.377 . S
N409 C408 1.344 . S
O410 Co402 2.055 . S
O410 C414 1.253 . S
H411 C407 0.931 . S
H412 C408 0.930 . S
O413 Co402 2.039 . S
O413 C403 1.265 . S
C414 O410 1.253 . S
C414 O415 1.227 . S
O415 C414 1.227 . S
N416 Co402 2.140 . S
N416 C419 1.346 . S
N416 C420 1.345 . S
C417 C418 1.387 . S
C417 C421 1.391 . S
C418 C417 1.387 . S
C418 C419 1.369 . S
C418 H427 0.929 . S
C419 N416 1.346 . S
C419 C418 1.369 . S
C419 H422 0.928 . S
C420 N416 1.345 . S
C420 C421 1.371 . S
C420 H423 0.931 . S
C421 C417 1.391 . S
C421 C420 1.371 . S
C421 H428 0.930 . S
H422 C419 0.928 . S
H423 C420 0.931 . S
H424 C400 0.930 . S
H425 C397 0.930 . S
H426 C406 0.930 . S
H427 C418 0.929 . S
H428 C421 0.930 . S
C429 C430 1.351 . S
C429 N432 1.368 . S
C429 H434 0.931 . S
C430 C429 1.351 . S
C430 N431 1.373 . S
C430 H458 0.930 . S
N431 C430 1.373 . S
N431 C433 1.340 . S
N432 C429 1.368 . S
N432 C433 1.321 . S
N432 Co435 2.135 . S
C433 N431 1.340 . S
C433 N432 1.321 . S
C433 H457 0.930 . S
H434 C429 0.931 . S
Co435 N432 2.135 . S
Co435 N438 2.121 . S
Co435 O443 2.055 . S
Co435 O446 2.039 . S
Co435 N449 2.140 . S
C436 O437 1.227 . S
C436 O446 1.265 . S
O437 C436 1.227 . S
N438 Co435 2.121 . S
N438 C440 1.375 . S
N438 C441 1.313 . S
C439 C440 1.338 . S
C439 N442 1.377 . S
C439 H459 0.930 . S
C440 N438 1.375 . S
C440 C439 1.338 . S
C440 H444 0.931 . S
C441 N438 1.313 . S
C441 N442 1.344 . S
C441 H445 0.930 . S
N442 C439 1.377 . S
N442 C441 1.344 . S
O443 Co435 2.055 . S
O443 C447 1.253 . S
H444 C440 0.931 . S
H445 C441 0.930 . S
O446 Co435 2.039 . S
O446 C436 1.265 . S
C447 O443 1.253 . S
C447 O448 1.227 . S
O448 C447 1.227 . S
N449 Co435 2.140 . S
N449 C452 1.346 . S
N449 C453 1.345 . S
C450 C451 1.387 . S
C450 C454 1.391 . S
C451 C450 1.387 . S
C451 C452 1.369 . S
C451 H460 0.929 . S
C452 N449 1.346 . S
C452 C451 1.369 . S
C452 H455 0.928 . S
C453 N449 1.345 . S
C453 C454 1.371 . S
C453 H456 0.931 . S
C454 C450 1.391 . S
C454 C453 1.371 . S
C454 H461 0.930 . S
H455 C452 0.928 . S
H456 C453 0.931 . S
H457 C433 0.930 . S
H458 C430 0.930 . S
H459 C439 0.930 . S
H460 C451 0.929 . S
H461 C454 0.930 . S
C462 C463 1.351 . S
C462 N465 1.368 . S
C462 H467 0.931 . S
C463 C462 1.351 . S
C463 N464 1.373 . S
C463 H491 0.930 . S
N464 C463 1.373 . S
N464 C466 1.340 . S
N465 C462 1.368 . S
N465 C466 1.321 . S
N465 Co468 2.135 . S
C466 N464 1.340 . S
C466 N465 1.321 . S
C466 H490 0.930 . S
H467 C462 0.931 . S
Co468 N465 2.135 . S
Co468 N471 2.121 . S
Co468 O476 2.055 . S
Co468 O479 2.039 . S
Co468 N482 2.140 . S
C469 O470 1.227 . S
C469 O479 1.265 . S
O470 C469 1.227 . S
N471 Co468 2.121 . S
N471 C473 1.375 . S
N471 C474 1.313 . S
C472 C473 1.338 . S
C472 N475 1.377 . S
C472 H492 0.930 . S
C473 N471 1.375 . S
C473 C472 1.338 . S
C473 H477 0.931 . S
C474 N471 1.313 . S
C474 N475 1.344 . S
C474 H478 0.930 . S
N475 C472 1.377 . S
N475 C474 1.344 . S
O476 Co468 2.055 . S
O476 C480 1.253 . S
H477 C473 0.931 . S
H478 C474 0.930 . S
O479 Co468 2.039 . S
O479 C469 1.265 . S
C480 O476 1.253 . S
C480 O481 1.227 . S
O481 C480 1.227 . S
N482 Co468 2.140 . S
N482 C485 1.346 . S
N482 C486 1.345 . S
C483 C484 1.387 . S
C483 C487 1.391 . S
C484 C483 1.387 . S
C484 C485 1.369 . S
C484 H493 0.929 . S
C485 N482 1.346 . S
C485 C484 1.369 . S
C485 H488 0.928 . S
C486 N482 1.345 . S
C486 C487 1.371 . S
C486 H489 0.931 . S
C487 C483 1.391 . S
C487 C486 1.371 . S
C487 H494 0.930 . S
H488 C485 0.928 . S
H489 C486 0.931 . S
H490 C466 0.930 . S
H491 C463 0.930 . S
H492 C472 0.930 . S
H493 C484 0.929 . S
H494 C487 0.930 . S
C495 C496 1.351 . S
C495 N498 1.368 . S
C495 H500 0.931 . S
C496 C495 1.351 . S
C496 N497 1.373 . S
C496 H524 0.930 . S
N497 C496 1.373 . S
N497 C499 1.340 . S
N498 C495 1.368 . S
N498 C499 1.321 . S
N498 Co501 2.135 . S
C499 N497 1.340 . S
C499 N498 1.321 . S
C499 H523 0.930 . S
H500 C495 0.931 . S
Co501 N498 2.135 . S
Co501 N504 2.121 . S
Co501 O509 2.055 . S
Co501 O512 2.039 . S
Co501 N515 2.140 . S
C502 O503 1.227 . S
C502 O512 1.265 . S
O503 C502 1.227 . S
N504 Co501 2.121 . S
N504 C506 1.375 . S
N504 C507 1.313 . S
C505 C506 1.338 . S
C505 N508 1.377 . S
C505 H525 0.930 . S
C506 N504 1.375 . S
C506 C505 1.338 . S
C506 H510 0.931 . S
C507 N504 1.313 . S
C507 N508 1.344 . S
C507 H511 0.930 . S
N508 C505 1.377 . S
N508 C507 1.344 . S
O509 Co501 2.055 . S
O509 C513 1.253 . S
H510 C506 0.931 . S
H511 C507 0.930 . S
O512 Co501 2.039 . S
O512 C502 1.265 . S
C513 O509 1.253 . S
C513 O514 1.227 . S
O514 C513 1.227 . S
N515 Co501 2.140 . S
N515 C518 1.346 . S
N515 C519 1.345 . S
C516 C517 1.387 . S
C516 C520 1.391 . S
C517 C516 1.387 . S
C517 C518 1.369 . S
C517 H526 0.929 . S
C518 N515 1.346 . S
C518 C517 1.369 . S
C518 H521 0.928 . S
C519 N515 1.345 . S
C519 C520 1.371 . S
C519 H522 0.931 . S
C520 C516 1.391 . S
C520 C519 1.371 . S
C520 H527 0.930 . S
H521 C518 0.928 . S
H522 C519 0.931 . S
H523 C499 0.930 . S
H524 C496 0.930 . S
H525 C505 0.930 . S
H526 C517 0.929 . S
H527 C520 0.930 . S
H528 C534 0.930 . S
H529 C537 0.930 . S
H530 C538 0.930 . S
H531 C539 0.930 . S
H532 C542 0.930 . S
H533 C543 0.930 . S
C534 H528 0.930 . S
C534 C535 1.355 . S
C534 C536 1.415 . S
C535 C534 1.355 . S
C535 C537 1.419 . S
C536 C534 1.415 . S
C536 C541 1.425 . S
C536 C543 1.409 . S
C537 H529 0.930 . S
C537 C535 1.419 . S
C537 C538 1.362 . S
C538 H530 0.930 . S
C538 C537 1.362 . S
C538 C541 1.409 . S
C539 H531 0.930 . S
C539 C540 1.355 . S
C539 C541 1.415 . S
C540 C539 1.355 . S
C540 C542 1.419 . S
C541 C536 1.425 . S
C541 C538 1.409 . S
C541 C539 1.415 . S
C542 H532 0.930 . S
C542 C540 1.419 . S
C542 C543 1.362 . S
C543 H533 0.930 . S
C543 C536 1.409 . S
C543 C542 1.362 . S
H544 C550 0.930 1_455 S
H545 C553 0.930 . S
H546 C554 0.930 . S
H547 C555 0.930 1_655 S
H548 C558 0.930 . S
H549 C559 0.930 . S
C550 H544 0.930 1_655 S
C550 C551 1.355 . S
C550 C552 1.415 1_655 S
C551 C550 1.355 . S
C551 C553 1.419 . S
C552 C550 1.415 1_455 S
C552 C557 1.425 1_465 S
C552 C559 1.409 . S
C553 H545 0.930 . S
C553 C551 1.419 . S
C553 C554 1.362 1_565 S
C554 H546 0.930 . S
C554 C553 1.362 1_545 S
C554 C557 1.409 . S
C555 H547 0.930 1_455 S
C555 C556 1.355 . S
C555 C557 1.415 1_455 S
C556 C555 1.355 . S
C556 C558 1.419 . S
C557 C552 1.425 1_645 S
C557 C554 1.409 . S
C557 C555 1.415 1_655 S
C558 H548 0.930 . S
C558 C556 1.419 . S
C558 C559 1.362 1_545 S
C559 H549 0.930 . S
C559 C552 1.409 . S
C559 C558 1.362 1_565 S
H560 C566 0.930 . S
H561 C569 0.930 . S
H562 C570 0.930 . S
H563 C571 0.930 . S
H564 C574 0.930 . S
H565 C575 0.930 . S
C566 H560 0.930 . S
C566 C567 1.355 . S
C566 C568 1.415 . S
C567 C566 1.355 . S
C567 C569 1.419 . S
C568 C566 1.415 . S
C568 C573 1.425 1_545 S
C568 C575 1.409 . S
C569 H561 0.930 . S
C569 C567 1.419 . S
C569 C570 1.362 1_545 S
C570 H562 0.930 . S
C570 C569 1.362 1_565 S
C570 C573 1.409 . S
C571 H563 0.930 . S
C571 C572 1.355 . S
C571 C573 1.415 . S
C572 C571 1.355 . S
C572 C574 1.419 . S
C573 C568 1.425 1_565 S
C573 C570 1.409 . S
C573 C571 1.415 . S
C574 H564 0.930 . S
C574 C572 1.419 . S
C574 C575 1.362 1_565 S
C575 H565 0.930 . S
C575 C568 1.409 . S
C575 C574 1.362 1_545 S
H576 C582 0.930 . S
H577 C585 0.930 . S
H578 C586 0.930 . S
H579 C587 0.930 . S
H580 C590 0.930 . S
H581 C591 0.930 . S
C582 H576 0.930 . S
C582 C583 1.355 1_455 S
C582 C584 1.415 . S
C583 C582 1.355 1_655 S
C583 C585 1.419 . S
C584 C582 1.415 . S
C584 C589 1.425 1_455 S
C584 C591 1.409 . S
C585 H577 0.930 . S
C585 C583 1.419 . S
C585 C586 1.362 . S
C586 H578 0.930 . S
C586 C585 1.362 . S
C586 C589 1.409 . S
C587 H579 0.930 . S
C587 C588 1.355 1_655 S
C587 C589 1.415 . S
C588 C587 1.355 1_455 S
C588 C590 1.419 . S
C589 C584 1.425 1_655 S
C589 C586 1.409 . S
C589 C587 1.415 . S
C590 H580 0.930 . S
C590 C588 1.419 . S
C590 C591 1.362 . S
C591 H581 0.930 . S
C591 C584 1.409 . S
C591 C590 1.362 . S
H592 C598 0.930 . S
H593 C601 0.930 . S
H594 C602 0.930 . S
H595 C603 0.930 . S
H596 C606 0.930 . S
H597 C607 0.930 . S
C598 H592 0.930 . S
C598 C599 1.355 . S
C598 C600 1.415 . S
C599 C598 1.355 . S
C599 C601 1.419 . S
C600 C598 1.415 . S
C600 C605 1.425 . S
C600 C607 1.409 . S
C601 H593 0.930 . S
C601 C599 1.419 . S
C601 C602 1.362 . S
C602 H594 0.930 . S
C602 C601 1.362 . S
C602 C605 1.409 . S
C603 H595 0.930 . S
C603 C604 1.355 . S
C603 C605 1.415 . S
C604 C603 1.355 . S
C604 C606 1.419 . S
C605 C600 1.425 . S
C605 C602 1.409 . S
C605 C603 1.415 . S
C606 H596 0.930 . S
C606 C604 1.419 . S
C606 C607 1.362 . S
C607 H597 0.930 . S
C607 C600 1.409 . S
C607 C606 1.362 . S
H608 C614 0.930 . S
H609 C617 0.930 . S
H610 C618 0.930 . S
H611 C619 0.930 . S
H612 C622 0.930 . S
H613 C623 0.930 . S
C614 H608 0.930 . S
C614 C615 1.355 . S
C614 C616 1.415 1_565 S
C615 C614 1.355 . S
C615 C617 1.419 . S
C616 C614 1.415 1_545 S
C616 C621 1.425 1_545 S
C616 C623 1.409 . S
C617 H609 0.930 . S
C617 C615 1.419 . S
C617 C618 1.362 . S
C618 H610 0.930 . S
C618 C617 1.362 . S
C618 C621 1.409 . S
C619 H611 0.930 . S
C619 C620 1.355 . S
C619 C621 1.415 1_545 S
C620 C619 1.355 . S
C620 C622 1.419 . S
C621 C616 1.425 1_565 S
C621 C618 1.409 . S
C621 C619 1.415 1_565 S
C622 H612 0.930 . S
C622 C620 1.419 . S
C622 C623 1.362 . S
C623 H613 0.930 . S
C623 C616 1.409 . S
C623 C622 1.362 . S
H624 C630 0.930 1_455 S
H625 C633 0.930 . S
H626 C634 0.930 . S
H627 C635 0.930 1_655 S
H628 C638 0.930 . S
H629 C639 0.930 . S
C630 H624 0.930 1_655 S
C630 C631 1.355 . S
C630 C632 1.415 1_655 S
C631 C630 1.355 . S
C631 C633 1.419 . S
C632 C630 1.415 1_455 S
C632 C637 1.425 1_455 S
C632 C639 1.409 . S
C633 H625 0.930 . S
C633 C631 1.419 . S
C633 C634 1.362 . S
C634 H626 0.930 . S
C634 C633 1.362 . S
C634 C637 1.409 . S
C635 H627 0.930 1_455 S
C635 C636 1.355 . S
C635 C637 1.415 1_455 S
C636 C635 1.355 . S
C636 C638 1.419 . S
C637 C632 1.425 1_655 S
C637 C634 1.409 . S
C637 C635 1.415 1_655 S
C638 H628 0.930 . S
C638 C636 1.419 . S
C638 C639 1.362 . S
C639 H629 0.930 . S
C639 C632 1.409 . S
C639 C638 1.362 . S
H640 C646 0.930 . S
H641 C649 0.930 . S
H642 C650 0.930 . S
H643 C651 0.930 . S
H644 C654 0.930 . S
H645 C655 0.930 . S
C646 H640 0.930 . S
C646 C647 1.355 . S
C646 C648 1.415 . S
C647 C646 1.355 . S
C647 C649 1.419 . S
C648 C646 1.415 . S
C648 C653 1.425 1_554 S
C648 C655 1.409 1_554 S
C649 H641 0.930 . S
C649 C647 1.419 . S
C649 C650 1.362 . S
C650 H642 0.930 . S
C650 C649 1.362 . S
C650 C653 1.409 1_554 S
C651 H643 0.930 . S
C651 C652 1.355 . S
C651 C653 1.415 . S
C652 C651 1.355 . S
C652 C654 1.419 . S
C653 C648 1.425 1_556 S
C653 C650 1.409 1_556 S
C653 C651 1.415 . S
C654 H644 0.930 . S
C654 C652 1.419 . S
C654 C655 1.362 . S
C655 H645 0.930 . S
C655 C648 1.409 1_556 S
C655 C654 1.362 . S
H656 C662 0.930 . S
H657 C665 0.930 . S
H658 C666 0.930 . S
H659 C667 0.930 . S
H660 C670 0.930 . S
H661 C671 0.930 . S
C662 H656 0.930 . S
C662 C663 1.355 1_556 S
C662 C664 1.415 . S
C663 C662 1.355 1_554 S
C663 C665 1.419 1_655 S
C664 C662 1.415 . S
C664 C669 1.425 1_656 S
C664 C671 1.409 . S
C665 H657 0.930 . S
C665 C663 1.419 1_455 S
C665 C666 1.362 . S
C666 H658 0.930 . S
C666 C665 1.362 . S
C666 C669 1.409 . S
C667 H659 0.930 . S
C667 C668 1.355 1_554 S
C667 C669 1.415 . S
C668 C667 1.355 1_556 S
C668 C670 1.419 1_455 S
C669 C664 1.425 1_454 S
C669 C666 1.409 . S
C669 C667 1.415 . S
C670 H660 0.930 . S
C670 C668 1.419 1_655 S
C670 C671 1.362 . S
C671 H661 0.930 . S
C671 C664 1.409 . S
C671 C670 1.362 . S
H672 C678 0.930 . S
H673 C681 0.930 . S
H674 C682 0.930 . S
H675 C683 0.930 . S
H676 C686 0.930 . S
H677 C687 0.930 . S
C678 H672 0.930 . S
C678 C679 1.355 . S
C678 C680 1.415 . S
C679 C678 1.355 . S
C679 C681 1.419 . S
C680 C678 1.415 . S
C680 C685 1.425 . S
C680 C687 1.409 . S
C681 H673 0.930 . S
C681 C679 1.419 . S
C681 C682 1.362 . S
C682 H674 0.930 . S
C682 C681 1.362 . S
C682 C685 1.409 . S
C683 H675 0.930 . S
C683 C684 1.355 . S
C683 C685 1.415 . S
C684 C683 1.355 . S
C684 C686 1.419 . S
C685 C680 1.425 . S
C685 C682 1.409 . S
C685 C683 1.415 . S
C686 H676 0.930 . S
C686 C684 1.419 . S
C686 C687 1.362 . S
C687 H677 0.930 . S
C687 C680 1.409 . S
C687 C686 1.362 . S
H688 C694 0.930 . S
H689 C697 0.930 . S
H690 C698 0.930 . S
H691 C699 0.930 . S
H692 C702 0.930 . S
H693 C703 0.940 . S
C694 H688 0.930 . S
C694 C695 1.355 . S
C694 C696 1.415 . S
C695 C694 1.355 . S
C695 C697 1.419 . S
C696 C694 1.415 . S
C696 C701 1.425 1_556 S
C696 C703 1.405 . S
C697 H689 0.930 . S
C697 C695 1.419 . S
C697 C698 1.362 1_556 S
C698 H690 0.930 . S
C698 C697 1.362 1_554 S
C698 C701 1.409 . S
C699 H691 0.930 . S
C699 C700 1.355 . S
C699 C701 1.415 . S
C700 C699 1.355 . S
C700 C702 1.419 . S
C701 C696 1.425 1_554 S
C701 C698 1.409 . S
C701 C699 1.415 . S
C702 H692 0.930 . S
C702 C700 1.419 . S
C702 C703 1.359 1_554 S
C703 H693 0.940 . S
C703 C696 1.405 . S
C703 C702 1.359 1_556 S
H704 C710 0.930 . S
H705 C713 0.930 . S
H706 C714 0.930 . S
H707 C715 0.930 . S
H708 C718 0.930 . S
H709 C719 0.930 . S
C710 H704 0.930 . S
C710 C711 1.355 . S
C710 C712 1.415 . S
C711 C710 1.355 . S
C711 C713 1.419 . S
C712 C710 1.415 . S
C712 C717 1.425 . S
C712 C719 1.409 . S
C713 H705 0.930 . S
C713 C711 1.419 . S
C713 C714 1.362 . S
C714 H706 0.930 . S
C714 C713 1.362 . S
C714 C717 1.409 . S
C715 H707 0.930 . S
C715 C716 1.355 . S
C715 C717 1.415 . S
C716 C715 1.355 . S
C716 C718 1.419 . S
C717 C712 1.425 . S
C717 C714 1.409 . S
C717 C715 1.415 . S
C718 H708 0.930 . S
C718 C716 1.419 . S
C718 C719 1.362 . S
C719 H709 0.930 . S
C719 C712 1.409 . S
C719 C718 1.362 . S
H720 C726 0.930 . S
H721 C729 0.930 . S
H722 C730 0.930 . S
H723 C731 0.930 . S
H724 C734 0.930 . S
H725 C735 0.930 . S
C726 H720 0.930 . S
C726 C727 1.355 . S
C726 C728 1.415 1_545 S
C727 C726 1.355 . S
C727 C729 1.419 1_556 S
C728 C726 1.415 1_565 S
C728 C733 1.425 1_566 S
C728 C735 1.409 . S
C729 H721 0.930 . S
C729 C727 1.419 1_554 S
C729 C730 1.362 . S
C730 H722 0.930 . S
C730 C729 1.362 . S
C730 C733 1.409 . S
C731 H723 0.930 . S
C731 C732 1.355 . S
C731 C733 1.415 1_565 S
C732 C731 1.355 . S
C732 C734 1.419 1_554 S
C733 C728 1.425 1_544 S
C733 C730 1.409 . S
C733 C731 1.415 1_545 S
C734 H724 0.930 . S
C734 C732 1.419 1_556 S
C734 C735 1.362 . S
C735 H725 0.930 . S
C735 C728 1.409 . S
C735 C734 1.362 . S
H736 C742 0.930 . S
H737 C745 0.930 . S
H738 C746 0.930 . S
H739 C747 0.930 . S
H740 C750 0.930 . S
H741 C751 0.930 . S
C742 H736 0.930 . S
C742 C743 1.355 . S
C742 C744 1.415 . S
C743 C742 1.355 . S
C743 C745 1.419 . S
C744 C742 1.415 . S
C744 C749 1.425 . S
C744 C751 1.409 . S
C745 H737 0.930 . S
C745 C743 1.419 . S
C745 C746 1.362 . S
C746 H738 0.930 . S
C746 C745 1.362 . S
C746 C749 1.409 . S
C747 H739 0.930 . S
C747 C748 1.355 . S
C747 C749 1.415 . S
C748 C747 1.355 . S
C748 C750 1.419 . S
C749 C744 1.425 . S
C749 C746 1.409 . S
C749 C747 1.415 . S
C750 H740 0.930 . S
C750 C748 1.419 . S
C750 C751 1.362 . S
C751 H741 0.930 . S
C751 C744 1.409 . S
C751 C750 1.362 . S
H752 C758 0.930 . S
H753 C761 0.930 . S
H754 C762 0.930 . S
H755 C763 0.930 . S
H756 C766 0.930 . S
H757 C767 0.930 . S
C758 H752 0.930 . S
C758 C759 1.355 . S
C758 C760 1.415 . S
C759 C758 1.355 . S
C759 C761 1.419 . S
C760 C758 1.415 . S
C760 C765 1.425 . S
C760 C767 1.409 . S
C761 H753 0.930 . S
C761 C759 1.419 . S
C761 C762 1.362 . S
C762 H754 0.930 . S
C762 C761 1.362 . S
C762 C765 1.409 . S
C763 H755 0.930 . S
C763 C764 1.355 . S
C763 C765 1.415 . S
C764 C763 1.355 . S
C764 C766 1.419 . S
C765 C760 1.425 . S
C765 C762 1.409 . S
C765 C763 1.415 . S
C766 H756 0.930 . S
C766 C764 1.419 . S
C766 C767 1.362 . S
C767 H757 0.930 . S
C767 C760 1.409 . S
C767 C766 1.362 . S
H768 C774 0.930 . S
H769 C777 0.930 . S
H770 C778 0.930 . S
H771 C779 0.930 . S
H772 C782 0.930 . S
H773 C783 0.930 . S
C774 H768 0.930 . S
C774 C775 1.355 . S
C774 C776 1.415 . S
C775 C774 1.355 . S
C775 C777 1.419 . S
C776 C774 1.415 . S
C776 C781 1.425 . S
C776 C783 1.409 . S
C777 H769 0.930 . S
C777 C775 1.419 . S
C777 C778 1.362 . S
C778 H770 0.930 . S
C778 C777 1.362 . S
C778 C781 1.409 . S
C779 H771 0.930 . S
C779 C780 1.355 . S
C779 C781 1.415 . S
C780 C779 1.355 . S
C780 C782 1.419 . S
C781 C776 1.425 . S
C781 C778 1.409 . S
C781 C779 1.415 . S
C782 H772 0.930 . S
C782 C780 1.419 . S
C782 C783 1.362 . S
C783 H773 0.930 . S
C783 C776 1.409 . S
C783 C782 1.362 . S
H784 C790 0.930 . S
H785 C793 0.930 . S
H786 C794 0.930 . S
H787 C795 0.930 . S
H788 C798 0.930 . S
H789 C799 0.930 . S
C790 H784 0.930 . S
C790 C791 1.355 . S
C790 C792 1.415 . S
C791 C790 1.355 . S
C791 C793 1.419 . S
C792 C790 1.415 . S
C792 C797 1.425 . S
C792 C799 1.409 . S
C793 H785 0.930 . S
C793 C791 1.419 . S
C793 C794 1.362 . S
C794 H786 0.930 . S
C794 C793 1.362 . S
C794 C797 1.409 . S
C795 H787 0.930 . S
C795 C796 1.355 . S
C795 C797 1.415 . S
C796 C795 1.355 . S
C796 C798 1.419 . S
C797 C792 1.425 . S
C797 C794 1.409 . S
C797 C795 1.415 . S
C798 H788 0.930 . S
C798 C796 1.419 . S
C798 C799 1.362 . S
C799 H789 0.930 . S
C799 C792 1.409 . S
C799 C798 1.362 . S
H800 C806 0.930 . S
H801 C809 0.930 . S
H802 C810 0.930 . S
H803 C811 0.930 . S
H804 C814 0.930 . S
H805 C815 0.930 . S
C806 H800 0.930 . S
C806 C807 1.355 . S
C806 C808 1.415 . S
C807 C806 1.355 . S
C807 C809 1.419 . S
C808 C806 1.415 . S
C808 C813 1.425 . S
C808 C815 1.409 . S
C809 H801 0.930 . S
C809 C807 1.419 . S
C809 C810 1.362 . S
C810 H802 0.930 . S
C810 C809 1.362 . S
C810 C813 1.409 . S
C811 H803 0.930 . S
C811 C812 1.355 . S
C811 C813 1.415 . S
C812 C811 1.355 . S
C812 C814 1.419 . S
C813 C808 1.425 . S
C813 C810 1.409 . S
C813 C811 1.415 . S
C814 H804 0.930 . S
C814 C812 1.419 . S
C814 C815 1.362 . S
C815 H805 0.930 . S
C815 C808 1.409 . S
C815 C814 1.362 . S
H816 C822 0.930 . S
H817 C825 0.930 . S
H818 C826 0.930 . S
H819 C827 0.930 . S
H820 C830 0.930 . S
H821 C831 0.930 . S
C822 H816 0.930 . S
C822 C823 1.355 . S
C822 C824 1.415 . S
C823 C822 1.355 . S
C823 C825 1.419 . S
C824 C822 1.415 . S
C824 C829 1.425 . S
C824 C831 1.409 . S
C825 H817 0.930 . S
C825 C823 1.419 . S
C825 C826 1.362 . S
C826 H818 0.930 . S
C826 C825 1.362 . S
C826 C829 1.409 . S
C827 H819 0.930 . S
C827 C828 1.355 . S
C827 C829 1.415 . S
C828 C827 1.355 . S
C828 C830 1.419 . S
C829 C824 1.425 . S
C829 C826 1.409 . S
C829 C827 1.415 . S
C830 H820 0.930 . S
C830 C828 1.419 . S
C830 C831 1.362 . S
C831 H821 0.930 . S
C831 C824 1.409 . S
C831 C830 1.362 . S
H832 C838 0.930 . S
H833 C841 0.930 . S
H834 C842 0.930 . S
H835 C843 0.930 . S
H836 C846 0.930 . S
H837 C847 0.930 . S
C838 H832 0.930 . S
C838 C839 1.355 . S
C838 C840 1.415 . S
C839 C838 1.355 . S
C839 C841 1.419 . S
C840 C838 1.415 . S
C840 C845 1.425 . S
C840 C847 1.409 . S
C841 H833 0.930 . S
C841 C839 1.419 . S
C841 C842 1.362 . S
C842 H834 0.930 . S
C842 C841 1.362 . S
C842 C845 1.409 . S
C843 H835 0.930 . S
C843 C844 1.355 . S
C843 C845 1.415 . S
C844 C843 1.355 . S
C844 C846 1.419 . S
C845 C840 1.425 . S
C845 C842 1.409 . S
C845 C843 1.415 . S
C846 H836 0.930 . S
C846 C844 1.419 . S
C846 C847 1.362 . S
C847 H837 0.930 . S
C847 C840 1.409 . S
C847 C846 1.362 . S
H848 C854 0.930 . S
H849 C857 0.930 . S
H850 C858 0.930 . S
H851 C859 0.930 . S
H852 C862 0.930 . S
H853 C863 0.930 . S
C854 H848 0.930 . S
C854 C855 1.355 . S
C854 C856 1.415 . S
C855 C854 1.355 . S
C855 C857 1.419 . S
C856 C854 1.415 . S
C856 C861 1.425 . S
C856 C863 1.409 . S
C857 H849 0.930 . S
C857 C855 1.419 . S
C857 C858 1.362 . S
C858 H850 0.930 . S
C858 C857 1.362 . S
C858 C861 1.409 . S
C859 H851 0.930 . S
C859 C860 1.355 . S
C859 C861 1.415 . S
C860 C859 1.355 . S
C860 C862 1.419 . S
C861 C856 1.425 . S
C861 C858 1.409 . S
C861 C859 1.415 . S
C862 H852 0.930 . S
C862 C860 1.419 . S
C862 C863 1.362 . S
C863 H853 0.930 . S
C863 C856 1.409 . S
C863 C862 1.362 . S
H864 C870 0.930 . S
H865 C873 0.930 . S
H866 C874 0.930 . S
H867 C875 0.930 . S
H868 C878 0.930 . S
H869 C879 0.930 . S
C870 H864 0.930 . S
C870 C871 1.355 . S
C870 C872 1.415 . S
C871 C870 1.355 . S
C871 C873 1.419 . S
C872 C870 1.415 . S
C872 C877 1.425 . S
C872 C879 1.409 . S
C873 H865 0.930 . S
C873 C871 1.419 . S
C873 C874 1.362 . S
C874 H866 0.930 . S
C874 C873 1.362 . S
C874 C877 1.409 . S
C875 H867 0.930 . S
C875 C876 1.355 . S
C875 C877 1.415 . S
C876 C875 1.355 . S
C876 C878 1.419 . S
C877 C872 1.425 . S
C877 C874 1.409 . S
C877 C875 1.415 . S
C878 H868 0.930 . S
C878 C876 1.419 . S
C878 C879 1.362 . S
C879 H869 0.930 . S
C879 C872 1.409 . S
C879 C878 1.362 . S
H880 C886 0.930 . S
H881 C889 0.930 . S
H882 C890 0.930 . S
H883 C891 0.930 . S
H884 C894 0.930 . S
H885 C895 0.930 . S
C886 H880 0.930 . S
C886 C887 1.355 . S
C886 C888 1.415 . S
C887 C886 1.355 . S
C887 C889 1.419 . S
C888 C886 1.415 . S
C888 C893 1.425 . S
C888 C895 1.409 . S
C889 H881 0.930 . S
C889 C887 1.419 . S
C889 C890 1.362 . S
C890 H882 0.930 . S
C890 C889 1.362 . S
C890 C893 1.409 . S
C891 H883 0.930 . S
C891 C892 1.355 . S
C891 C893 1.415 . S
C892 C891 1.355 . S
C892 C894 1.419 . S
C893 C888 1.425 . S
C893 C890 1.409 . S
C893 C891 1.415 . S
C894 H884 0.930 . S
C894 C892 1.419 . S
C894 C895 1.362 . S
C895 H885 0.930 . S
C895 C888 1.409 . S
C895 C894 1.362 . S
H896 C902 0.930 . S
H897 C905 0.930 . S
H898 C906 0.930 . S
H899 C907 0.930 . S
H900 C910 0.930 . S
H901 C911 0.930 . S
C902 H896 0.930 . S
C902 C903 1.355 . S
C902 C904 1.415 . S
C903 C902 1.355 . S
C903 C905 1.419 . S
C904 C902 1.415 . S
C904 C909 1.425 . S
C904 C911 1.409 . S
C905 H897 0.930 . S
C905 C903 1.419 . S
C905 C906 1.362 . S
C906 H898 0.930 . S
C906 C905 1.362 . S
C906 C909 1.409 . S
C907 H899 0.930 . S
C907 C908 1.355 . S
C907 C909 1.415 . S
C908 C907 1.355 . S
C908 C910 1.419 . S
C909 C904 1.425 . S
C909 C906 1.409 . S
C909 C907 1.415 . S
C910 H900 0.930 . S
C910 C908 1.419 . S
C910 C911 1.362 . S
C911 H901 0.930 . S
C911 C904 1.409 . S
C911 C910 1.362 . S
H912 C918 0.930 . S
H913 C921 0.930 . S
H914 C922 0.930 . S
H915 C923 0.930 . S
H916 C926 0.930 . S
H917 C927 0.930 . S
C918 H912 0.930 . S
C918 C919 1.355 . S
C918 C920 1.415 . S
C919 C918 1.355 . S
C919 C921 1.419 . S
C920 C918 1.415 . S
C920 C925 1.425 . S
C920 C927 1.409 . S
C921 H913 0.930 . S
C921 C919 1.419 . S
C921 C922 1.362 . S
C922 H914 0.930 . S
C922 C921 1.362 . S
C922 C925 1.409 . S
C923 H915 0.930 . S
C923 C924 1.355 . S
C923 C925 1.415 . S
C924 C923 1.355 . S
C924 C926 1.419 . S
C925 C920 1.425 . S
C925 C922 1.409 . S
C925 C923 1.415 . S
C926 H916 0.930 . S
C926 C924 1.419 . S
C926 C927 1.362 . S
C927 H917 0.930 . S
C927 C920 1.409 . S
C927 C926 1.362 . S
H928 C934 0.930 . S
H929 C937 0.930 . S
H930 C938 0.930 . S
H931 C939 0.930 . S
H932 C942 0.930 . S
H933 C943 0.930 . S
C934 H928 0.930 . S
C934 C935 1.355 . S
C934 C936 1.415 . S
C935 C934 1.355 . S
C935 C937 1.419 . S
C936 C934 1.415 . S
C936 C941 1.425 . S
C936 C943 1.409 . S
C937 H929 0.930 . S
C937 C935 1.419 . S
C937 C938 1.362 . S
C938 H930 0.930 . S
C938 C937 1.362 . S
C938 C941 1.409 . S
C939 H931 0.930 . S
C939 C940 1.355 . S
C939 C941 1.415 . S
C940 C939 1.355 . S
C940 C942 1.419 . S
C941 C936 1.425 . S
C941 C938 1.409 . S
C941 C939 1.415 . S
C942 H932 0.930 . S
C942 C940 1.419 . S
C942 C943 1.362 . S
C943 H933 0.930 . S
C943 C936 1.409 . S
C943 C942 1.362 . S
H944 C950 0.930 . S
H945 C953 0.930 . S
H946 C954 0.930 . S
H947 C955 0.930 . S
H948 C958 0.930 . S
H949 C959 0.930 . S
C950 H944 0.930 . S
C950 C951 1.355 . S
C950 C952 1.415 . S
C951 C950 1.355 . S
C951 C953 1.419 . S
C952 C950 1.415 . S
C952 C957 1.425 . S
C952 C959 1.409 . S
C953 H945 0.930 . S
C953 C951 1.419 . S
C953 C954 1.362 . S
C954 H946 0.930 . S
C954 C953 1.362 . S
C954 C957 1.409 . S
C955 H947 0.930 . S
C955 C956 1.355 . S
C955 C957 1.415 . S
C956 C955 1.355 . S
C956 C958 1.419 . S
C957 C952 1.425 . S
C957 C954 1.409 . S
C957 C955 1.415 . S
C958 H948 0.930 . S
C958 C956 1.419 . S
C958 C959 1.362 . S
C959 H949 0.930 . S
C959 C952 1.409 . S
C959 C958 1.362 . S
H960 C966 0.930 . S
H961 C969 0.930 . S
H962 C970 0.930 . S
H963 C971 0.930 . S
H964 C974 0.930 . S
H965 C975 0.930 . S
C966 H960 0.930 . S
C966 C967 1.355 . S
C966 C968 1.415 . S
C967 C966 1.355 . S
C967 C969 1.419 . S
C968 C966 1.415 . S
C968 C973 1.425 . S
C968 C975 1.409 . S
C969 H961 0.930 . S
C969 C967 1.419 . S
C969 C970 1.362 . S
C970 H962 0.930 . S
C970 C969 1.362 . S
C970 C973 1.409 . S
C971 H963 0.930 . S
C971 C972 1.355 . S
C971 C973 1.415 . S
C972 C971 1.355 . S
C972 C974 1.419 . S
C973 C968 1.425 . S
C973 C970 1.409 . S
C973 C971 1.415 . S
C974 H964 0.930 . S
C974 C972 1.419 . S
C974 C975 1.362 . S
C975 H965 0.930 . S
C975 C968 1.409 . S
C975 C974 1.362 . S
H976 C982 0.930 . S
H977 C985 0.930 . S
H978 C986 0.930 . S
H979 C987 0.930 . S
H980 C990 0.930 . S
H981 C991 0.930 . S
C982 H976 0.930 . S
C982 C983 1.355 . S
C982 C984 1.415 . S
C983 C982 1.355 . S
C983 C985 1.419 . S
C984 C982 1.415 . S
C984 C989 1.425 . S
C984 C991 1.409 . S
C985 H977 0.930 . S
C985 C983 1.419 . S
C985 C986 1.362 . S
C986 H978 0.930 . S
C986 C985 1.362 . S
C986 C989 1.409 . S
C987 H979 0.930 . S
C987 C988 1.355 . S
C987 C989 1.415 . S
C988 C987 1.355 . S
C988 C990 1.419 . S
C989 C984 1.425 . S
C989 C986 1.409 . S
C989 C987 1.415 . S
C990 H980 0.930 . S
C990 C988 1.419 . S
C990 C991 1.362 . S
C991 H981 0.930 . S
C991 C984 1.409 . S
C991 C990 1.362 . S
H992 C998 0.930 . S
H993 C1001 0.930 . S
H994 C1002 0.930 . S
H995 C1003 0.930 . S
H996 C1006 0.930 . S
H997 C1007 0.930 . S
C998 H992 0.930 . S
C998 C999 1.355 . S
C998 C1000 1.415 . S
C999 C998 1.355 . S
C999 C1001 1.419 . S
C1000 C998 1.415 . S
C1000 C1005 1.425 . S
C1000 C1007 1.409 . S
C1001 H993 0.930 . S
C1001 C999 1.419 . S
C1001 C1002 1.362 . S
C1002 H994 0.930 . S
C1002 C1001 1.362 . S
C1002 C1005 1.409 . S
C1003 H995 0.930 . S
C1003 C1004 1.355 . S
C1003 C1005 1.415 . S
C1004 C1003 1.355 . S
C1004 C1006 1.419 . S
C1005 C1000 1.425 . S
C1005 C1002 1.409 . S
C1005 C1003 1.415 . S
C1006 H996 0.930 . S
C1006 C1004 1.419 . S
C1006 C1007 1.362 . S
C1007 H997 0.930 . S
C1007 C1000 1.409 . S
C1007 C1006 1.362 . S
H1008 C1014 0.930 . S
H1009 C1017 0.930 . S
H1010 C1018 0.930 . S
H1011 C1019 0.930 . S
H1012 C1022 0.930 . S
H1013 C1023 0.930 . S
C1014 H1008 0.930 . S
C1014 C1015 1.355 . S
C1014 C1016 1.415 . S
C1015 C1014 1.355 . S
C1015 C1017 1.419 . S
C1016 C1014 1.415 . S
C1016 C1021 1.425 . S
C1016 C1023 1.409 . S
C1017 H1009 0.930 . S
C1017 C1015 1.419 . S
C1017 C1018 1.362 . S
C1018 H1010 0.930 . S
C1018 C1017 1.362 . S
C1018 C1021 1.409 . S
C1019 H1011 0.930 . S
C1019 C1020 1.355 . S
C1019 C1021 1.415 . S
C1020 C1019 1.355 . S
C1020 C1022 1.419 . S
C1021 C1016 1.425 . S
C1021 C1018 1.409 . S
C1021 C1019 1.415 . S
C1022 H1012 0.930 . S
C1022 C1020 1.419 . S
C1022 C1023 1.362 . S
C1023 H1013 0.930 . S
C1023 C1016 1.409 . S
C1023 C1022 1.362 . S
H1024 C1030 0.930 . S
H1025 C1033 0.930 . S
H1026 C1034 0.930 . S
H1027 C1035 0.930 . S
H1028 C1038 0.930 . S
H1029 C1039 0.930 . S
C1030 H1024 0.930 . S
C1030 C1031 1.355 . S
C1030 C1032 1.415 . S
C1031 C1030 1.355 . S
C1031 C1033 1.419 . S
C1032 C1030 1.415 . S
C1032 C1037 1.425 . S
C1032 C1039 1.409 . S
C1033 H1025 0.930 . S
C1033 C1031 1.419 . S
C1033 C1034 1.362 . S
C1034 H1026 0.930 . S
C1034 C1033 1.362 . S
C1034 C1037 1.409 . S
C1035 H1027 0.930 . S
C1035 C1036 1.355 . S
C1035 C1037 1.415 . S
C1036 C1035 1.355 . S
C1036 C1038 1.419 . S
C1037 C1032 1.425 . S
C1037 C1034 1.409 . S
C1037 C1035 1.415 . S
C1038 H1028 0.930 . S
C1038 C1036 1.419 . S
C1038 C1039 1.362 . S
C1039 H1029 0.930 . S
C1039 C1032 1.409 . S
C1039 C1038 1.362 . S
H1040 C1046 0.930 . S
H1041 C1049 0.930 . S
H1042 C1050 0.930 . S
H1043 C1051 0.930 . S
H1044 C1054 0.930 1_655 S
H1045 C1055 0.930 1_655 S
C1046 H1040 0.930 . S
C1046 C1047 1.355 . S
C1046 C1048 1.415 . S
C1047 C1046 1.355 . S
C1047 C1049 1.419 . S
C1048 C1046 1.415 . S
C1048 C1053 1.425 . S
C1048 C1055 1.409 . S
C1049 H1041 0.930 . S
C1049 C1047 1.419 . S
C1049 C1050 1.362 . S
C1050 H1042 0.930 . S
C1050 C1049 1.362 . S
C1050 C1053 1.409 . S
C1051 H1043 0.930 . S
C1051 C1052 1.355 . S
C1051 C1053 1.415 . S
C1052 C1051 1.355 . S
C1052 C1054 1.419 . S
C1053 C1048 1.425 . S
C1053 C1050 1.409 . S
C1053 C1051 1.415 . S
C1054 H1044 0.930 1_455 S
C1054 C1052 1.419 . S
C1054 C1055 1.362 . S
C1055 H1045 0.930 1_455 S
C1055 C1048 1.409 . S
C1055 C1054 1.362 . S
H1056 C1062 0.930 . S
H1057 C1065 0.930 . S
H1058 C1066 0.930 . S
H1059 C1067 0.930 . S
H1060 C1070 0.930 . S
H1061 C1071 0.930 . S
C1062 H1056 0.930 . S
C1062 C1063 1.355 . S
C1062 C1064 1.415 . S
C1063 C1062 1.355 . S
C1063 C1065 1.419 . S
C1064 C1062 1.415 . S
C1064 C1069 1.425 . S
C1064 C1071 1.409 . S
C1065 H1057 0.930 . S
C1065 C1063 1.419 . S
C1065 C1066 1.362 . S
C1066 H1058 0.930 . S
C1066 C1065 1.362 . S
C1066 C1069 1.409 . S
C1067 H1059 0.930 . S
C1067 C1068 1.355 . S
C1067 C1069 1.415 . S
C1068 C1067 1.355 . S
C1068 C1070 1.419 . S
C1069 C1064 1.425 . S
C1069 C1066 1.409 . S
C1069 C1067 1.415 . S
C1070 H1060 0.930 . S
C1070 C1068 1.419 . S
C1070 C1071 1.362 . S
C1071 H1061 0.930 . S
C1071 C1064 1.409 . S
C1071 C1070 1.362 . S
H1072 C1078 0.930 . S
H1073 C1081 0.930 . S
H1074 C1082 0.930 . S
H1075 C1083 0.930 . S
H1076 C1086 0.930 . S
H1077 C1087 0.930 . S
C1078 H1072 0.930 . S
C1078 C1079 1.355 . S
C1078 C1080 1.415 . S
C1079 C1078 1.355 . S
C1079 C1081 1.419 . S
C1080 C1078 1.415 . S
C1080 C1085 1.425 . S
C1080 C1087 1.409 . S
C1081 H1073 0.930 . S
C1081 C1079 1.419 . S
C1081 C1082 1.362 . S
C1082 H1074 0.930 . S
C1082 C1081 1.362 . S
C1082 C1085 1.409 . S
C1083 H1075 0.930 . S
C1083 C1084 1.355 . S
C1083 C1085 1.415 . S
C1084 C1083 1.355 . S
C1084 C1086 1.419 . S
C1085 C1080 1.425 . S
C1085 C1082 1.409 . S
C1085 C1083 1.415 . S
C1086 H1076 0.930 . S
C1086 C1084 1.419 . S
C1086 C1087 1.362 . S
C1087 H1077 0.930 . S
C1087 C1080 1.409 . S
C1087 C1086 1.362 . S
H1088 C1094 0.930 . S
H1089 C1097 0.930 . S
H1090 C1098 0.930 . S
H1091 C1099 0.930 . S
H1092 C1102 0.930 . S
H1093 C1103 0.930 . S
C1094 H1088 0.930 . S
C1094 C1095 1.355 . S
C1094 C1096 1.415 . S
C1095 C1094 1.355 . S
C1095 C1097 1.419 . S
C1096 C1094 1.415 . S
C1096 C1101 1.425 . S
C1096 C1103 1.409 . S
C1097 H1089 0.930 . S
C1097 C1095 1.419 . S
C1097 C1098 1.362 . S
C1098 H1090 0.930 . S
C1098 C1097 1.362 . S
C1098 C1101 1.409 . S
C1099 H1091 0.930 . S
C1099 C1100 1.355 . S
C1099 C1101 1.415 . S
C1100 C1099 1.355 . S
C1100 C1102 1.419 . S
C1101 C1096 1.425 . S
C1101 C1098 1.409 . S
C1101 C1099 1.415 . S
C1102 H1092 0.930 . S
C1102 C1100 1.419 . S
C1102 C1103 1.362 . S
C1103 H1093 0.930 . S
C1103 C1096 1.409 . S
C1103 C1102 1.362 . S
H1104 C1110 0.930 . S
H1105 C1113 0.930 . S
H1106 C1114 0.930 . S
H1107 C1115 0.930 . S
H1108 C1118 0.930 . S
H1109 C1119 0.930 . S
C1110 H1104 0.930 . S
C1110 C1111 1.355 . S
C1110 C1112 1.415 . S
C1111 C1110 1.355 . S
C1111 C1113 1.419 . S
C1112 C1110 1.415 . S
C1112 C1117 1.425 . S
C1112 C1119 1.409 . S
C1113 H1105 0.930 . S
C1113 C1111 1.419 . S
C1113 C1114 1.362 . S
C1114 H1106 0.930 . S
C1114 C1113 1.362 . S
C1114 C1117 1.409 . S
C1115 H1107 0.930 . S
C1115 C1116 1.355 . S
C1115 C1117 1.415 . S
C1116 C1115 1.355 . S
C1116 C1118 1.419 . S
C1117 C1112 1.425 . S
C1117 C1114 1.409 . S
C1117 C1115 1.415 . S
C1118 H1108 0.930 . S
C1118 C1116 1.419 . S
C1118 C1119 1.362 . S
C1119 H1109 0.930 . S
C1119 C1112 1.409 . S
C1119 C1118 1.362 . S
H1120 C1126 0.930 . S
H1121 C1129 0.930 . S
H1122 C1130 0.930 . S
H1123 C1131 0.930 . S
H1124 C1134 0.930 . S
H1125 C1135 0.930 . S
C1126 H1120 0.930 . S
C1126 C1127 1.355 . S
C1126 C1128 1.415 . S
C1127 C1126 1.355 . S
C1127 C1129 1.419 . S
C1128 C1126 1.415 . S
C1128 C1133 1.425 . S
C1128 C1135 1.409 . S
C1129 H1121 0.930 . S
C1129 C1127 1.419 . S
C1129 C1130 1.362 . S
C1130 H1122 0.930 . S
C1130 C1129 1.362 . S
C1130 C1133 1.409 . S
C1131 H1123 0.930 . S
C1131 C1132 1.355 . S
C1131 C1133 1.415 . S
C1132 C1131 1.355 . S
C1132 C1134 1.419 . S
C1133 C1128 1.425 . S
C1133 C1130 1.409 . S
C1133 C1131 1.415 . S
C1134 H1124 0.930 . S
C1134 C1132 1.419 . S
C1134 C1135 1.362 . S
C1135 H1125 0.930 . S
C1135 C1128 1.409 . S
C1135 C1134 1.362 . S
H1136 C1142 0.930 . S
H1137 C1145 0.930 . S
H1138 C1146 0.930 . S
H1139 C1147 0.930 . S
H1140 C1150 0.930 . S
H1141 C1151 0.930 . S
C1142 H1136 0.930 . S
C1142 C1143 1.355 . S
C1142 C1144 1.415 . S
C1143 C1142 1.355 . S
C1143 C1145 1.419 . S
C1144 C1142 1.415 . S
C1144 C1149 1.425 . S
C1144 C1151 1.409 . S
C1145 H1137 0.930 . S
C1145 C1143 1.419 . S
C1145 C1146 1.362 . S
C1146 H1138 0.930 . S
C1146 C1145 1.362 . S
C1146 C1149 1.409 . S
C1147 H1139 0.930 . S
C1147 C1148 1.355 . S
C1147 C1149 1.415 . S
C1148 C1147 1.355 . S
C1148 C1150 1.419 . S
C1149 C1144 1.425 . S
C1149 C1146 1.409 . S
C1149 C1147 1.415 . S
C1150 H1140 0.930 . S
C1150 C1148 1.419 . S
C1150 C1151 1.362 . S
C1151 H1141 0.930 . S
C1151 C1144 1.409 . S
C1151 C1150 1.362 . S
H1152 C1158 0.930 . S
H1153 C1161 0.930 . S
H1154 C1162 0.930 . S
H1155 C1163 0.930 . S
H1156 C1166 0.930 . S
H1157 C1167 0.930 . S
C1158 H1152 0.930 . S
C1158 C1159 1.355 . S
C1158 C1160 1.415 . S
C1159 C1158 1.355 . S
C1159 C1161 1.419 . S
C1160 C1158 1.415 . S
C1160 C1165 1.425 . S
C1160 C1167 1.409 . S
C1161 H1153 0.930 . S
C1161 C1159 1.419 . S
C1161 C1162 1.362 . S
C1162 H1154 0.930 . S
C1162 C1161 1.362 . S
C1162 C1165 1.409 . S
C1163 H1155 0.930 . S
C1163 C1164 1.355 . S
C1163 C1165 1.415 . S
C1164 C1163 1.355 . S
C1164 C1166 1.419 . S
C1165 C1160 1.425 . S
C1165 C1162 1.409 . S
C1165 C1163 1.415 . S
C1166 H1156 0.930 . S
C1166 C1164 1.419 . S
C1166 C1167 1.362 . S
C1167 H1157 0.930 . S
C1167 C1160 1.409 . S
C1167 C1166 1.362 . S
C535 N2 1.613 . S
C540 N464 1.613 . S
C551 N79 1.589 . S
C556 N13 1.589 . S
C567 N35 1.551 . S
C572 N365 1.551 . S
C583 N244 1.600 . S
C588 N46 1.600 . S
C599 N68 1.619 . S
C604 N398 1.619 . S
C615 N101 1.568 . S
C620 N299 1.568 . S
C631 N112 1.604 . S
C636 N178 1.604 . S
C647 N332 1.607 . S
C652 N134 1.607 . S
C663 N211 1.593 . S
C668 N145 1.593 . S
C679 N167 1.563 . S
C684 N497 1.563 . S
C695 N266 1.572 . S
C700 N200 1.572 . S
C711 N431 1.594 . S
C716 N233 1.594 . S
C727 N277 1.600 . S
C732 N343 1.600 . S
C743 N508 1.598 . S
C748 N310 1.598 . S
C759 N376 1.609 . S
C764 N442 1.609 . S
C775 N409 1.608 . S
C780 N475 1.608 . S
C791 C7 1.209 . S
C796 C318 1.183 . S
C807 C304 1.161 . S
C812 C21 1.159 . S
C823 C40 1.141 . S
C828 C285 1.181 . S
C839 C54 1.211 . S
C844 C271 1.176 . S
C855 C384 1.198 . S
C860 C73 1.209 . S
C871 C370 1.192 . S
C876 C87 1.211 . S
C887 C106 1.162 . S
C892 C351 1.207 . S
C903 C120 1.163 . S
C908 C337 1.188 . S
C919 C139 1.188 . S
C924 C450 1.162 . S
C935 C436 1.203 . S
C940 C153 1.206 . S
C951 C172 1.146 . S
C956 C417 1.195 . S
C967 C403 1.141 . S
C972 C186 1.180 . S
C983 C516 1.200 . S
C988 C205 1.208 . S
C999 C219 1.170 . S
C1004 C502 1.143 . S
C1015 C238 1.210 . S
C1020 C483 1.192 . S
C1031 C252 1.195 . S
C1036 C469 1.210 . S
C1047 C51 1.153 . S
C1052 C18 1.154 . S
C1063 C84 1.161 . S
C1068 C117 1.162 . S
C1079 C150 1.149 . S
C1084 C183 1.150 . S
C1095 C216 1.146 . S
C1100 C249 1.146 . S
C1111 C315 1.160 . S
C1116 C282 1.161 . S
C1127 C381 1.153 . S
C1132 C348 1.154 . S
C1143 C414 1.147 . S
C1148 C447 1.148 . S
C1159 C513 1.156 . S
C1164 C480 1.155 . S
