# Generated by pormake.
# Topology uon, (4)-cn, num edge types: 1
# Building blocks:
#     Node 0, Type 0, BuildingBlock: ESEHIV_clean_sbu_0, # of connection points: 4
#     Node 1, Type 0, BuildingBlock: ESEHIV_clean_sbu_0, # of connection points: 4
#     Node 2, Type 0, BuildingBlock: ESEHIV_clean_sbu_0, # of connection points: 4
#     Node 3, Type 0, BuildingBlock: ESEHIV_clean_sbu_0, # of connection points: 4
#     Node 4, Type 0, BuildingBlock: ESEHIV_clean_sbu_0, # of connection points: 4
#     Node 5, Type 0, BuildingBlock: ESEHIV_clean_sbu_0, # of connection points: 4
#     Edge 6, Type (0, 0), BuildingBlock: FUNLAD_clean_linker_0, # of connection points: 2
#     Edge 7, Type (0, 0), BuildingBlock: FUNLAD_clean_linker_0, # of connection points: 2
#     Edge 8, Type (0, 0), BuildingBlock: FUNLAD_clean_linker_0, # of connection points: 2
#     Edge 9, Type (0, 0), BuildingBlock: FUNLAD_clean_linker_0, # of connection points: 2
#     Edge 10, Type (0, 0), BuildingBlock: FUNLAD_clean_linker_0, # of connection points: 2
#     Edge 11, Type (0, 0), BuildingBlock: FUNLAD_clean_linker_0, # of connection points: 2
#     Edge 12, Type (0, 0), BuildingBlock: FUNLAD_clean_linker_0, # of connection points: 2
#     Edge 13, Type (0, 0), BuildingBlock: FUNLAD_clean_linker_0, # of connection points: 2
#     Edge 14, Type (0, 0), BuildingBlock: FUNLAD_clean_linker_0, # of connection points: 2
#     Edge 15, Type (0, 0), BuildingBlock: FUNLAD_clean_linker_0, # of connection points: 2
#     Edge 16, Type (0, 0), BuildingBlock: FUNLAD_clean_linker_0, # of connection points: 2
#     Edge 17, Type (0, 0), BuildingBlock: FUNLAD_clean_linker_0, # of connection points: 2
# Relax obj value: 0.074
# Max RMSD: 0.073
# Mean RMSD: 0.073
data_MOF--net-uon--node1-ESEHIV_clean_sbu_0--edge1-FUNLAD_clean_linker_0
_symmetry_space_group_name_H-M    P1
_symmetry_Int_Tables_number       1
_symmetry_cell_setting            triclinic
loop_
_symmetry_equiv_pos_as_xyz
'x, y, z'
_cell_length_a     40.180035
_cell_length_b     40.060313
_cell_length_c     31.97505
_cell_angle_alpha  90.029008
_cell_angle_beta   90.174885
_cell_angle_gamma 119.68614
loop_
_atom_site_label
_atom_site_type_symbol
_atom_site_fract_x
_atom_site_fract_y
_atom_site_fract_z
_atom_type_partial_charge
Cu0 Cu 0.21444 0.43259 0.97907 0.0
N1 N 0.22409 0.46152 0.93009 0.0
N2 N 0.25507 0.49788 0.87476 0.0
C3 C 0.25616 0.47633 0.90675 0.0
C4 C 0.22074 0.49618 0.87814 0.0
C5 C 0.2018 0.47384 0.91225 0.0
O6 O 0.24391 0.40571 0.97547 0.0
C7 C 0.25444 0.50184 0.02719 0.0
O8 O 0.27754 0.51462 0.9949 0.0
H9 H 0.28039 0.47257 0.9142 0.0
H10 H 0.174 0.46757 0.92372 0.0
N11 N 0.16191 0.3968 0.98298 0.0
N12 N 0.10406 0.35716 1.01016 0.0
C13 C 0.14169 0.38134 0.01821 0.0
C14 C 0.13629 0.38203 0.95156 0.0
C15 C 0.10073 0.3576 0.96813 0.0
C16 C 0.23373 0.37957 0.94764 0.0
O17 O 0.20356 0.3713 0.92447 0.0
H18 H 0.15436 0.38833 0.04913 0.0
H19 H 0.143 0.38858 0.91881 0.0
O20 O 0.22745 0.467 0.02731 0.0
H21 H 0.21007 0.5103 0.85769 0.0
H22 H 0.07459 0.34115 0.95037 0.0
Cu23 Cu 0.81163 0.22128 0.3299 0.0
N24 N 0.84151 0.27451 0.32182 0.0
N25 N 0.86448 0.32883 0.28452 0.0
C26 C 0.8412 0.29039 0.28485 0.0
C27 C 0.88007 0.33767 0.32324 0.0
C28 C 0.86604 0.304 0.34616 0.0
O29 O 0.81887 0.20198 0.27662 0.0
C30 C 0.75674 0.22914 0.3726 0.0
O31 O 0.78839 0.25797 0.38765 0.0
H32 H 0.8234 0.27383 0.2588 0.0
H33 H 0.87296 0.3014 0.37825 0.0
N34 N 0.82609 0.20078 0.37456 0.0
N35 N 0.81973 0.15699 0.42238 0.0
C36 C 0.80407 0.16468 0.38884 0.0
C37 C 0.85692 0.21678 0.39988 0.0
C38 C 0.85313 0.18985 0.42931 0.0
C39 C 0.84968 0.20048 0.27233 0.0
O40 O 0.86939 0.20235 0.30594 0.0
H41 H 0.77699 0.14451 0.37461 0.0
H42 H 0.88032 0.24595 0.39737 0.0
O43 O 0.7593 0.20873 0.34349 0.0
H44 H 0.90028 0.36628 0.33417 0.0
H45 H 0.87316 0.19454 0.45435 0.0
Cu46 Cu 0.59429 0.81013 0.68474 0.0
N47 N 0.56123 0.82989 0.69189 0.0
N48 N 0.513 0.83912 0.67157 0.0
C49 C 0.54202 0.83359 0.65933 0.0
C50 C 0.51413 0.83914 0.7138 0.0
C51 C 0.544 0.83344 0.72629 0.0
O52 O 0.62199 0.83463 0.63308 0.0
C53 C 0.54513 0.73952 0.71792 0.0
O54 O 0.55531 0.76146 0.75135 0.0
H55 H 0.54718 0.82887 0.62724 0.0
H56 H 0.55085 0.82949 0.75799 0.0
N57 N 0.62868 0.82031 0.72946 0.0
N58 N 0.66517 0.81067 0.77562 0.0
C59 C 0.64026 0.79589 0.74335 0.0
C60 C 0.64709 0.85183 0.7537 0.0
C61 C 0.66977 0.84602 0.78212 0.0
C62 C 0.65807 0.85769 0.63194 0.0
O63 O 0.67915 0.85991 0.66441 0.0
H64 H 0.63042 0.76765 0.73007 0.0
H65 H 0.64413 0.87715 0.75096 0.0
O66 O 0.55964 0.75453 0.68265 0.0
H67 H 0.49386 0.84138 0.73418 0.0
H68 H 0.68742 0.86578 0.8064 0.0
Cu69 Cu 0.79993 0.59626 0.04026 0.0
N70 N 0.74767 0.56174 0.03172 0.0
N71 N 0.69702 0.51801 0.99543 0.0
C72 C 0.73526 0.53526 1.00102 0.0
C73 C 0.68468 0.53443 0.02374 0.0
C74 C 0.71607 0.56147 0.04617 0.0
O75 O 0.81108 0.6377 1.00052 0.0
C76 C 0.81203 0.53613 0.0555 0.0
O77 O 0.77934 0.5254 0.07447 0.0
H78 H 0.75439 0.53029 0.98154 0.0
H79 H 0.71599 0.58071 0.06983 0.0
N80 N 0.81453 0.61607 0.09448 0.0
N81 N 0.85461 0.63585 0.14946 0.0
C82 C 0.85056 0.62862 0.10799 0.0
C83 C 0.79475 0.61553 0.12862 0.0
C84 C 0.81957 0.62808 0.16262 0.0
C85 C 0.79435 0.65684 1.00937 0.0
O86 O 0.77717 0.65071 0.04573 0.0
H87 H 0.8731 0.63083 0.08774 0.0
H88 H 0.76423 0.60495 0.12927 0.0
O89 O 0.82706 0.56721 0.03428 0.0
H90 H 0.65531 0.52793 0.02739 0.0
H91 H 0.8119 0.62921 0.1948 0.0
Cu92 Cu 0.24211 0.81114 0.34353 0.0
N93 N 0.26042 0.79838 0.29548 0.0
N94 N 0.27448 0.76573 0.24833 0.0
C95 C 0.25782 0.76435 0.28553 0.0
C96 C 0.28814 0.80205 0.23458 0.0
C97 C 0.2795 0.822 0.26359 0.0
O98 O 0.1863 0.78657 0.34028 0.0
C99 C 0.2552 0.80268 0.4301 0.0
O100 O 0.22977 0.81349 0.43745 0.0
H101 H 0.24463 0.73933 0.30549 0.0
H102 H 0.28677 0.85176 0.2615 0.0
N103 N 0.26037 0.86431 0.34481 0.0
N104 N 0.28409 0.92487 0.36759 0.0
C105 C 0.27826 0.88933 0.37642 0.0
C106 C 0.25457 0.88472 0.31514 0.0
C107 C 0.26936 0.92203 0.32891 0.0
C108 C 0.16356 0.7511 0.33294 0.0
O109 O 0.17725 0.72741 0.33125 0.0
H110 H 0.28643 0.88158 0.40552 0.0
H111 H 0.23956 0.87293 0.28599 0.0
O112 O 0.26216 0.79783 0.39244 0.0
H113 H 0.3029 0.81337 0.2053 0.0
H114 H 0.26792 0.94488 0.31242 0.0
Cu115 Cu 0.45295 0.21829 0.69048 0.0
N116 N 0.48081 0.19293 0.68132 0.0
N117 N 0.52055 0.18036 0.64418 0.0
C118 C 0.51195 0.20741 0.6566 0.0
C119 C 0.49367 0.14739 0.66188 0.0
C120 C 0.46907 0.1552 0.68461 0.0
O121 O 0.41998 0.20359 0.64103 0.0
C122 C 0.51553 0.28029 0.72448 0.0
O123 O 0.51888 0.25162 0.73964 0.0
H124 H 0.5258 0.23652 0.64476 0.0
H125 H 0.44274 0.13429 0.69934 0.0
N126 N 0.42421 0.20492 0.73986 0.0
N127 N 0.39222 0.21246 0.79294 0.0
C128 C 0.41121 0.22707 0.75682 0.0
C129 C 0.41336 0.1752 0.76631 0.0
C130 C 0.39331 0.17963 0.79895 0.0
C131 C 0.38733 0.17311 0.64241 0.0
O132 O 0.37322 0.15789 0.67898 0.0
H133 H 0.41537 0.25333 0.74251 0.0
H134 H 0.41965 0.1521 0.76232 0.0
O135 O 0.48872 0.27298 0.69833 0.0
H136 H 0.4908 0.11934 0.65704 0.0
H137 H 0.38101 0.16047 0.82531 0.0
C138 C 0.24046 0.3271 0.91339 0.0
C139 C 0.25635 0.3602 0.93872 0.0
C140 C 0.2622 0.31027 0.90125 0.0
C141 C 0.30062 0.3261 0.9141 0.0
C142 C 0.3164 0.35887 0.93998 0.0
C143 C 0.29442 0.37557 0.95251 0.0
C144 C 0.32553 0.31096 0.89813 0.0
C145 C 0.31177 0.27424 0.88539 0.0
C146 C 0.33529 0.25957 0.86464 0.0
C147 C 0.32186 0.21981 0.8644 0.0
C148 C 0.34111 0.20445 0.842 0.0
C149 C 0.37399 0.22846 0.81867 0.0
H150 H 0.37973 0.31441 0.84069 0.0
C151 C 0.38786 0.26834 0.81949 0.0
C152 C 0.36881 0.28374 0.84217 0.0
H153 H 0.41333 0.28771 0.80222 0.0
H154 H 0.21125 0.31452 0.90206 0.0
H155 H 0.24913 0.28577 0.88039 0.0
H156 H 0.346 0.37194 0.95007 0.0
H157 H 0.30764 0.4012 0.97177 0.0
H158 H 0.35614 0.33086 0.89697 0.0
H159 H 0.28171 0.25361 0.89036 0.0
H160 H 0.29596 0.2004 0.88106 0.0
H161 H 0.32946 0.17362 0.84177 0.0
C162 C 0.9006 0.20185 0.22661 0.0
C163 C 0.86917 0.20786 0.23124 0.0
C164 C 0.92498 0.21667 0.19218 0.0
C165 C 0.91885 0.23841 0.16168 0.0
C166 C 0.88578 0.24191 0.16468 0.0
C167 C 0.86119 0.22686 0.19912 0.0
C168 C 0.94675 0.25851 0.12717 0.0
C169 C 0.98459 0.27033 0.13062 0.0
C170 C 1.01438 0.29264 0.09836 0.0
C171 C 0.05306 0.30642 0.1088 0.0
C172 C 0.08231 0.3275 0.08013 0.0
C173 C 0.07379 0.33549 0.03995 0.0
H174 H 0.97656 0.29028 0.04808 0.0
C175 C 0.03505 0.32163 0.02935 0.0
C176 C 1.00573 0.30043 0.05803 0.0
H177 H 0.02721 0.32741 0.99893 0.0
H178 H 0.9073 0.18696 0.25057 0.0
H179 H 0.94902 0.21165 0.19016 0.0
H180 H 0.8799 0.25795 0.14136 0.0
H181 H 0.83735 0.23219 0.20178 0.0
H182 H 0.93593 0.26589 0.09969 0.0
H183 H 0.99504 0.26481 0.15967 0.0
H184 H 0.06083 0.30082 0.13943 0.0
H185 H 0.11157 0.33705 0.08943 0.0
C186 C 0.76427 0.09454 0.44431 0.0
C187 C 0.80375 0.1215 0.44607 0.0
C188 C 0.74878 0.06037 0.46746 0.0
C189 C 0.7724 0.05214 0.49306 0.0
C190 C 0.81173 0.07913 0.49494 0.0
C191 C 0.82722 0.11318 0.47171 0.0
C192 C 0.75724 0.01699 0.51986 0.0
C193 C 0.72322 0.98453 0.51385 0.0
C194 C 0.70776 0.95023 0.54209 0.0
C195 C 0.66821 0.92373 0.54145 0.0
C196 C 0.65213 0.89252 0.56915 0.0
C197 C 0.67528 0.8869 0.59814 0.0
H198 H 0.76188 0.96188 0.57028 0.0
C199 C 0.71508 0.91226 0.59735 0.0
C200 C 0.73115 0.94336 0.56964 0.0
H201 H 0.73389 0.90864 0.61891 0.0
H202 H 0.74499 0.10005 0.42573 0.0
H203 H 0.71819 0.04116 0.46591 0.0
H204 H 0.8307 0.07384 0.51449 0.0
H205 H 0.85772 0.13281 0.47374 0.0
H206 H 0.7753 0.01847 0.54587 0.0
H207 H 0.7051 0.98309 0.4879 0.0
H208 H 0.64943 0.92781 0.52028 0.0
H209 H 0.62137 0.87366 0.56883 0.0
C210 C 0.76202 0.69344 0.98684 0.0
C211 C 0.78832 0.68081 0.97796 0.0
C212 C 0.75281 0.71297 0.95695 0.0
C213 C 0.76987 0.72087 0.91727 0.0
C214 C 0.79742 0.70983 0.90872 0.0
C215 C 0.80623 0.68952 0.9386 0.0
C216 C 0.75925 0.74098 0.8851 0.0
C217 C 0.72273 0.73333 0.88028 0.0
C218 C 0.71019 0.75346 0.85034 0.0
C219 C 0.673 0.73331 0.83356 0.0
C220 C 0.65872 0.75187 0.80825 0.0
C221 C 0.68095 0.79137 0.79995 0.0
H222 H 0.76141 0.8094 0.85443 0.0
C223 C 0.71826 0.81168 0.81664 0.0
C224 C 0.73291 0.79284 0.84129 0.0
H225 H 0.73602 0.84211 0.81066 0.0
H226 H 0.74767 0.68752 0.01677 0.0
H227 H 0.73231 0.72199 0.96506 0.0
H228 H 0.81134 0.71598 0.87852 0.0
H229 H 0.82665 0.68032 0.93075 0.0
H230 H 0.7814 0.76122 0.86432 0.0
H231 H 0.70038 0.71021 0.89847 0.0
H232 H 0.65471 0.70307 0.8404 0.0
H233 H 0.62975 0.73555 0.79627 0.0
C234 C 0.89619 0.66649 0.21169 0.0
C235 C 0.88827 0.64519 0.17438 0.0
C236 C 0.92956 0.67614 0.23492 0.0
C237 C 0.95559 0.66443 0.22133 0.0
C238 C 0.94697 0.64236 0.18466 0.0
C239 C 0.914 0.63303 0.16148 0.0
C240 C 0.99173 0.67376 0.24414 0.0
C241 C 1.00972 0.70276 0.27193 0.0
C242 C 0.04794 0.71355 0.29067 0.0
C243 C 0.07183 0.75156 0.30414 0.0
C244 C 0.10888 0.76351 0.31913 0.0
C245 C 0.12291 0.73758 0.32137 0.0
H246 H 0.04345 0.65726 0.28636 0.0
C247 C 0.09837 0.69909 0.30979 0.0
C248 C 0.06133 0.68716 0.29479 0.0
H249 H 0.10799 0.6782 0.31152 0.0
H250 H 0.87687 0.67614 0.22258 0.0
H251 H 0.93453 0.69238 0.26352 0.0
H252 H 0.96606 0.63246 0.17354 0.0
H253 H 0.90854 0.61586 0.13355 0.0
H254 H 1.00552 0.65744 0.23502 0.0
H255 H 0.99785 0.7213 0.27868 0.0
H256 H 0.06225 0.77247 0.3019 0.0
H257 H 0.12684 0.79334 0.32797 0.0
C258 C 0.39254 0.15297 0.56921 0.0
C259 C 0.37007 0.14929 0.60442 0.0
C260 C 0.37846 0.12483 0.53765 0.0
C261 C 0.34138 0.09258 0.54051 0.0
C262 C 0.31831 0.09039 0.5745 0.0
C263 C 0.33242 0.11829 0.606 0.0
C264 C 0.32652 0.05903 0.51128 0.0
C265 C 0.34244 0.05868 0.47429 0.0
C266 C 0.32744 0.02363 0.44742 0.0
C267 C 0.33212 0.02777 0.40389 0.0
C268 C 0.31818 0.99547 0.37781 0.0
C269 C 0.2998 0.95818 0.39469 0.0
H270 H 0.30658 0.98192 0.49791 0.0
C271 C 0.29608 0.95403 0.43837 0.0
C272 C 0.30967 0.98632 0.46444 0.0
H273 H 0.28201 0.92577 0.45244 0.0
H274 H 0.42187 0.17623 0.56729 0.0
H275 H 0.39751 0.12768 0.51241 0.0
H276 H 0.28963 0.06612 0.57764 0.0
H277 H 0.31432 0.11456 0.63266 0.0
H278 H 0.30077 0.03314 0.52093 0.0
H279 H 0.3662 0.08496 0.46221 0.0
H280 H 0.34616 0.05611 0.38992 0.0
H281 H 0.322 0.99971 0.34436 0.0
C282 C 0.24931 0.6964 0.23294 0.0
C283 C 0.27713 0.7352 0.22708 0.0
C284 C 0.2511 0.66714 0.21053 0.0
C285 C 0.2809 0.67608 0.18176 0.0
C286 C 0.30917 0.71478 0.17699 0.0
C287 C 0.30726 0.74389 0.19912 0.0
C288 C 0.28408 0.6466 0.15593 0.0
C289 C 0.2551 0.61056 0.14852 0.0
C290 C 0.25783 0.58278 0.11925 0.0
C291 C 0.23014 0.54359 0.12161 0.0
C292 C 0.22979 0.51701 0.09279 0.0
C293 C 0.25704 0.529 0.06055 0.0
H294 H 0.30692 0.62446 0.08336 0.0
C295 C 0.28525 0.56804 0.05865 0.0
C296 C 0.28561 0.59459 0.08743 0.0
H297 H 0.30654 0.57843 0.03411 0.0
H298 H 0.2257 0.68866 0.25419 0.0
H299 H 0.22915 0.63776 0.21612 0.0
H300 H 0.33272 0.72272 0.1555 0.0
H301 H 0.32959 0.7733 0.19435 0.0
H302 H 0.31156 0.65593 0.1412 0.0
H303 H 0.2277 0.60081 0.16364 0.0
H304 H 0.20823 0.53352 0.1455 0.0
H305 H 0.20752 0.48723 0.09518 0.0
C306 C 0.54273 0.1558 0.5853 0.0
C307 C 0.54898 0.18538 0.61349 0.0
C308 C 0.56936 0.16198 0.5537 0.0
C309 C 0.60296 0.19792 0.54981 0.0
C310 C 0.60947 0.22697 0.57876 0.0
C311 C 0.58282 0.22089 0.60997 0.0
C312 C 0.63249 0.20675 0.51695 0.0
C313 C 0.62728 0.18643 0.48137 0.0
C314 C 0.65818 0.19804 0.44946 0.0
C315 C 0.6599 0.16998 0.42449 0.0
C316 C 0.69072 0.18008 0.39708 0.0
C317 C 0.72023 0.21848 0.39415 0.0
H318 H 0.6851 0.25955 0.46081 0.0
C319 C 0.71703 0.24674 0.41694 0.0
C320 C 0.6863 0.23676 0.44392 0.0
H321 H 0.739 0.27668 0.41482 0.0
H322 H 0.51682 0.12817 0.58701 0.0
H323 H 0.56349 0.1385 0.53273 0.0
H324 H 0.63517 0.25483 0.57694 0.0
H325 H 0.58871 0.24409 0.63145 0.0
H326 H 0.66015 0.23211 0.52248 0.0
H327 H 0.60039 0.16028 0.47563 0.0
H328 H 0.63826 0.14001 0.42749 0.0
H329 H 0.69247 0.15765 0.37999 0.0
C330 C 0.4809 0.68398 0.69919 0.0
C331 C 0.51493 0.69909 0.72262 0.0
C332 C 0.4484 0.64986 0.71188 0.0
C333 C 0.44974 0.63029 0.74796 0.0
C334 C 0.48484 0.64388 0.76893 0.0
C335 C 0.51691 0.67819 0.7568 0.0
C336 C 0.41502 0.59743 0.76663 0.0
C337 C 0.38003 0.59435 0.76494 0.0
C338 C 0.34691 0.56712 0.79119 0.0
C339 C 0.31757 0.57568 0.79907 0.0
C340 C 0.2873 0.55276 0.82584 0.0
C341 C 0.28533 0.52036 0.84535 0.0
H342 H 0.36551 0.52541 0.80328 0.0
C343 C 0.31397 0.51095 0.83634 0.0
C344 C 0.34432 0.53392 0.8095 0.0
H345 H 0.31296 0.48574 0.84996 0.0
H346 H 0.4786 0.69987 0.673 0.0
H347 H 0.42206 0.63962 0.69427 0.0
H348 H 0.48688 0.62926 0.7965 0.0
H349 H 0.54282 0.68944 0.77548 0.0
H350 H 0.41973 0.57858 0.78711 0.0
H351 H 0.37648 0.61547 0.74712 0.0
H352 H 0.31858 0.6009 0.78538 0.0
H353 H 0.26606 0.5612 0.8321 0.0
C354 C 0.81186 0.4759 0.07305 0.0
C355 C 0.83296 0.51579 0.06699 0.0
C356 C 0.82708 0.45698 0.09612 0.0
C357 C 0.86387 0.47763 0.1141 0.0
C358 C 0.88593 0.51724 0.10577 0.0
C359 C 0.87078 0.53612 0.08197 0.0
C360 C 0.87738 0.45952 0.1458 0.0
C361 C 0.86452 0.42136 0.14696 0.0
C362 C 0.87068 0.40078 0.18245 0.0
C363 C 0.8641 0.36338 0.17545 0.0
C364 C 0.86376 0.34056 0.20866 0.0
C365 C 0.86962 0.35432 0.25005 0.0
H366 H 0.88287 0.44374 0.23059 0.0
C367 C 0.878 0.3924 0.25703 0.0
C368 C 0.87842 0.41538 0.22363 0.0
H369 H 0.88241 0.40382 0.28849 0.0
H370 H 0.7824 0.45966 0.06237 0.0
H371 H 0.80863 0.42673 0.10239 0.0
H372 H 0.91424 0.53397 0.11938 0.0
H373 H 0.88742 0.56699 0.0783 0.0
H374 H 0.8973 0.47807 0.1696 0.0
H375 H 0.84754 0.40368 0.12088 0.0
H376 H 0.85808 0.35128 0.14419 0.0
H377 H 0.8581 0.31173 0.20192 0.0
C378 C 0.31003 0.7948 0.45603 0.0
C379 C 0.27973 0.80185 0.46459 0.0
C380 C 0.33568 0.79797 0.48758 0.0
C381 C 0.3318 0.80845 0.52857 0.0
C382 C 0.30051 0.81376 0.53753 0.0
C383 C 0.27491 0.81074 0.50591 0.0
C384 C 0.35961 0.81373 0.56258 0.0
C385 C 0.39677 0.825 0.55504 0.0
C386 C 0.42605 0.83086 0.58755 0.0
C387 C 0.46463 0.84841 0.57528 0.0
C388 C 0.49312 0.85232 0.60326 0.0
C389 C 0.48394 0.83876 0.64448 0.0
H390 H 0.38761 0.80397 0.64015 0.0
C391 C 0.44557 0.82226 0.65741 0.0
C392 C 0.41687 0.81816 0.62925 0.0
H393 H 0.43745 0.81105 0.68878 0.0
H394 H 0.31446 0.78752 0.42468 0.0
H395 H 0.35846 0.79212 0.47964 0.0
H396 H 0.29642 0.8213 0.5689 0.0
H397 H 0.25183 0.81621 0.51373 0.0
H398 H 0.3494 0.81017 0.5945 0.0
H399 H 0.40692 0.83133 0.52301 0.0
H400 H 0.4728 0.85865 0.54355 0.0
H401 H 0.52242 0.86555 0.59243 0.0
C402 C 0.57542 0.32904 0.75893 0.0
C403 C 0.53864 0.3185 0.74398 0.0
C404 C 0.59455 0.36017 0.78609 0.0
C405 C 0.57694 0.38106 0.79982 0.0
C406 C 0.54141 0.37245 0.78222 0.0
C407 C 0.52232 0.34134 0.75451 0.0
C408 C 0.59456 0.41089 0.83331 0.0
C409 C 0.6169 0.40873 0.86366 0.0
C410 C 0.63617 0.43739 0.8978 0.0
C411 C 0.66727 0.43767 0.9183 0.0
C412 C 0.68668 0.46368 0.95054 0.0
C413 C 0.67525 0.48992 0.96365 0.0
H414 H 0.59983 0.46342 0.89697 0.0
C415 C 0.64349 0.48918 0.94402 0.0
C416 C 0.62419 0.46327 0.91124 0.0
H417 H 0.63413 0.50917 0.95339 0.0
H418 H 0.58882 0.31215 0.75092 0.0
H419 H 0.62276 0.36707 0.79708 0.0
H420 H 0.52748 0.38848 0.79162 0.0
H421 H 0.49382 0.33362 0.7437 0.0
H422 H 0.58793 0.43405 0.83349 0.0
H423 H 0.62216 0.38463 0.86348 0.0
H424 H 0.67696 0.41787 0.90903 0.0
H425 H 0.71068 0.46319 0.96539 0.0
loop_
_geom_bond_atom_site_label_1
_geom_bond_atom_site_label_2
_geom_bond_distance
_geom_bond_site_symmetry_2
_ccdc_geom_bond_type
Cu0 N1 1.999 . S
Cu0 O6 1.974 . S
Cu0 N11 1.985 1_556 S
Cu0 O20 1.959 1_556 S
N1 Cu0 1.999 . S
N1 C3 1.263 . S
N1 C5 1.389 . S
N2 C3 1.358 . S
N2 C4 1.400 . S
C3 N1 1.263 . S
C3 N2 1.358 . S
C3 H9 0.930 . S
C4 N2 1.400 . S
C4 C5 1.351 . S
C4 H21 0.930 . S
C5 N1 1.389 . S
C5 C4 1.351 . S
C5 H10 0.930 . S
O6 Cu0 1.974 . S
O6 C16 1.282 . S
C7 O8 1.261 . S
C7 O20 1.251 . S
O8 C7 1.261 . S
H9 C3 0.930 . S
H10 C5 0.930 . S
N11 Cu0 1.985 1_554 S
N11 C13 1.335 . S
N11 C14 1.390 . S
N12 C13 1.345 . S
N12 C15 1.336 . S
C13 N11 1.335 . S
C13 N12 1.345 . S
C13 H18 0.930 . S
C14 N11 1.390 . S
C14 C15 1.346 . S
C14 H19 0.930 . S
C15 N12 1.336 . S
C15 C14 1.346 . S
C15 H22 0.929 . S
C16 O6 1.282 . S
C16 O17 1.216 . S
O17 C16 1.216 . S
H18 C13 0.930 . S
H19 C14 0.930 . S
O20 Cu0 1.959 1_554 S
O20 C7 1.251 . S
H21 C4 0.930 . S
H22 C15 0.929 . S
Cu23 N24 1.999 . S
Cu23 O29 1.974 . S
Cu23 N34 1.985 . S
Cu23 O43 1.959 . S
N24 Cu23 1.999 . S
N24 C26 1.263 . S
N24 C28 1.389 . S
N25 C26 1.358 . S
N25 C27 1.400 . S
C26 N24 1.263 . S
C26 N25 1.358 . S
C26 H32 0.930 . S
C27 N25 1.400 . S
C27 C28 1.351 . S
C27 H44 0.930 . S
C28 N24 1.389 . S
C28 C27 1.351 . S
C28 H33 0.930 . S
O29 Cu23 1.974 . S
O29 C39 1.282 . S
C30 O31 1.261 . S
C30 O43 1.251 . S
O31 C30 1.261 . S
H32 C26 0.930 . S
H33 C28 0.930 . S
N34 Cu23 1.985 . S
N34 C36 1.335 . S
N34 C37 1.390 . S
N35 C36 1.345 . S
N35 C38 1.336 . S
C36 N34 1.335 . S
C36 N35 1.345 . S
C36 H41 0.930 . S
C37 N34 1.390 . S
C37 C38 1.346 . S
C37 H42 0.930 . S
C38 N35 1.336 . S
C38 C37 1.346 . S
C38 H45 0.929 . S
C39 O29 1.282 . S
C39 O40 1.216 . S
O40 C39 1.216 . S
H41 C36 0.930 . S
H42 C37 0.930 . S
O43 Cu23 1.959 . S
O43 C30 1.251 . S
H44 C27 0.930 . S
H45 C38 0.929 . S
Cu46 N47 1.999 . S
Cu46 O52 1.974 . S
Cu46 N57 1.985 . S
Cu46 O66 1.959 . S
N47 Cu46 1.999 . S
N47 C49 1.263 . S
N47 C51 1.389 . S
N48 C49 1.358 . S
N48 C50 1.400 . S
C49 N47 1.263 . S
C49 N48 1.358 . S
C49 H55 0.930 . S
C50 N48 1.400 . S
C50 C51 1.351 . S
C50 H67 0.930 . S
C51 N47 1.389 . S
C51 C50 1.351 . S
C51 H56 0.930 . S
O52 Cu46 1.974 . S
O52 C62 1.282 . S
C53 O54 1.261 . S
C53 O66 1.251 . S
O54 C53 1.261 . S
H55 C49 0.930 . S
H56 C51 0.930 . S
N57 Cu46 1.985 . S
N57 C59 1.335 . S
N57 C60 1.390 . S
N58 C59 1.345 . S
N58 C61 1.336 . S
C59 N57 1.335 . S
C59 N58 1.345 . S
C59 H64 0.930 . S
C60 N57 1.390 . S
C60 C61 1.346 . S
C60 H65 0.930 . S
C61 N58 1.336 . S
C61 C60 1.346 . S
C61 H68 0.929 . S
C62 O52 1.282 . S
C62 O63 1.216 . S
O63 C62 1.216 . S
H64 C59 0.930 . S
H65 C60 0.930 . S
O66 Cu46 1.959 . S
O66 C53 1.251 . S
H67 C50 0.930 . S
H68 C61 0.929 . S
Cu69 N70 1.999 . S
Cu69 O75 1.974 . S
Cu69 N80 1.985 1_556 S
Cu69 O89 1.959 1_556 S
N70 Cu69 1.999 . S
N70 C72 1.263 . S
N70 C74 1.389 . S
N71 C72 1.358 . S
N71 C73 1.400 . S
C72 N70 1.263 . S
C72 N71 1.358 . S
C72 H78 0.930 . S
C73 N71 1.400 . S
C73 C74 1.351 . S
C73 H90 0.930 . S
C74 N70 1.389 . S
C74 C73 1.351 . S
C74 H79 0.930 . S
O75 Cu69 1.974 . S
O75 C85 1.282 . S
C76 O77 1.261 . S
C76 O89 1.251 . S
O77 C76 1.261 . S
H78 C72 0.930 . S
H79 C74 0.930 . S
N80 Cu69 1.985 1_554 S
N80 C82 1.335 . S
N80 C83 1.390 . S
N81 C82 1.345 . S
N81 C84 1.336 . S
C82 N80 1.335 . S
C82 N81 1.345 . S
C82 H87 0.930 . S
C83 N80 1.390 . S
C83 C84 1.346 . S
C83 H88 0.930 . S
C84 N81 1.336 . S
C84 C83 1.346 . S
C84 H91 0.929 . S
C85 O75 1.282 . S
C85 O86 1.216 . S
O86 C85 1.216 . S
H87 C82 0.930 . S
H88 C83 0.930 . S
O89 Cu69 1.959 1_554 S
O89 C76 1.251 . S
H90 C73 0.930 . S
H91 C84 0.929 . S
Cu92 N93 1.999 . S
Cu92 O98 1.974 . S
Cu92 N103 1.985 . S
Cu92 O112 1.959 . S
N93 Cu92 1.999 . S
N93 C95 1.263 . S
N93 C97 1.389 . S
N94 C95 1.358 . S
N94 C96 1.400 . S
C95 N93 1.263 . S
C95 N94 1.358 . S
C95 H101 0.930 . S
C96 N94 1.400 . S
C96 C97 1.351 . S
C96 H113 0.930 . S
C97 N93 1.389 . S
C97 C96 1.351 . S
C97 H102 0.930 . S
O98 Cu92 1.974 . S
O98 C108 1.282 . S
C99 O100 1.261 . S
C99 O112 1.251 . S
O100 C99 1.261 . S
H101 C95 0.930 . S
H102 C97 0.930 . S
N103 Cu92 1.985 . S
N103 C105 1.335 . S
N103 C106 1.390 . S
N104 C105 1.345 . S
N104 C107 1.336 . S
C105 N103 1.335 . S
C105 N104 1.345 . S
C105 H110 0.930 . S
C106 N103 1.390 . S
C106 C107 1.346 . S
C106 H111 0.930 . S
C107 N104 1.336 . S
C107 C106 1.346 . S
C107 H114 0.929 . S
C108 O98 1.282 . S
C108 O109 1.216 . S
O109 C108 1.216 . S
H110 C105 0.930 . S
H111 C106 0.930 . S
O112 Cu92 1.959 . S
O112 C99 1.251 . S
H113 C96 0.930 . S
H114 C107 0.929 . S
Cu115 N116 1.999 . S
Cu115 O121 1.974 . S
Cu115 N126 1.985 . S
Cu115 O135 1.959 . S
N116 Cu115 1.999 . S
N116 C118 1.263 . S
N116 C120 1.389 . S
N117 C118 1.358 . S
N117 C119 1.400 . S
C118 N116 1.263 . S
C118 N117 1.358 . S
C118 H124 0.930 . S
C119 N117 1.400 . S
C119 C120 1.351 . S
C119 H136 0.930 . S
C120 N116 1.389 . S
C120 C119 1.351 . S
C120 H125 0.930 . S
O121 Cu115 1.974 . S
O121 C131 1.282 . S
C122 O123 1.261 . S
C122 O135 1.251 . S
O123 C122 1.261 . S
H124 C118 0.930 . S
H125 C120 0.930 . S
N126 Cu115 1.985 . S
N126 C128 1.335 . S
N126 C129 1.390 . S
N127 C128 1.345 . S
N127 C130 1.336 . S
C128 N126 1.335 . S
C128 N127 1.345 . S
C128 H133 0.930 . S
C129 N126 1.390 . S
C129 C130 1.346 . S
C129 H134 0.930 . S
C130 N127 1.336 . S
C130 C129 1.346 . S
C130 H137 0.929 . S
C131 O121 1.282 . S
C131 O132 1.216 . S
O132 C131 1.216 . S
H133 C128 0.930 . S
H134 C129 0.930 . S
O135 Cu115 1.959 . S
O135 C122 1.251 . S
H136 C119 0.930 . S
H137 C130 0.929 . S
C138 C139 1.386 . S
C138 C140 1.383 . S
C138 H154 0.951 . S
C139 C138 1.386 . S
C139 C143 1.383 . S
C140 C138 1.383 . S
C140 C141 1.402 . S
C140 H155 0.951 . S
C141 C140 1.402 . S
C141 C142 1.375 . S
C141 C144 1.481 . S
C142 C141 1.375 . S
C142 C143 1.367 . S
C142 H156 0.951 . S
C143 C139 1.383 . S
C143 C142 1.367 . S
C143 H157 0.950 . S
C144 C141 1.481 . S
C144 C145 1.297 . S
C144 H158 0.950 . S
C145 C144 1.297 . S
C145 C146 1.479 . S
C145 H159 0.950 . S
C146 C145 1.479 . S
C146 C147 1.375 . S
C146 C152 1.404 . S
C147 C146 1.375 . S
C147 C148 1.369 . S
C147 H160 0.950 . S
C148 C147 1.369 . S
C148 C149 1.392 . S
C148 H161 0.951 . S
C149 C148 1.392 . S
C149 C151 1.384 . S
H150 C152 0.949 . S
C151 C149 1.384 . S
C151 C152 1.385 . S
C151 H153 0.950 . S
C152 C146 1.404 . S
C152 H150 0.949 . S
C152 C151 1.385 . S
H153 C151 0.950 . S
H154 C138 0.951 . S
H155 C140 0.951 . S
H156 C142 0.951 . S
H157 C143 0.950 . S
H158 C144 0.950 . S
H159 C145 0.950 . S
H160 C147 0.950 . S
H161 C148 0.951 . S
C162 C163 1.386 . S
C162 C164 1.383 . S
C162 H178 0.951 . S
C163 C162 1.386 . S
C163 C167 1.383 . S
C164 C162 1.383 . S
C164 C165 1.402 . S
C164 H179 0.951 . S
C165 C164 1.402 . S
C165 C166 1.375 . S
C165 C168 1.481 . S
C166 C165 1.375 . S
C166 C167 1.367 . S
C166 H180 0.951 . S
C167 C163 1.383 . S
C167 C166 1.367 . S
C167 H181 0.950 . S
C168 C165 1.481 . S
C168 C169 1.297 . S
C168 H182 0.950 . S
C169 C168 1.297 . S
C169 C170 1.479 1_655 S
C169 H183 0.950 1_655 S
C170 C169 1.479 1_455 S
C170 C171 1.375 . S
C170 C176 1.404 . S
C171 C170 1.375 . S
C171 C172 1.369 . S
C171 H184 0.950 . S
C172 C171 1.369 . S
C172 C173 1.392 . S
C172 H185 0.951 . S
C173 C172 1.392 . S
C173 C175 1.384 . S
H174 C176 0.949 1_655 S
C175 C173 1.384 . S
C175 C176 1.385 . S
C175 H177 0.950 . S
C176 C170 1.404 . S
C176 H174 0.949 1_455 S
C176 C175 1.385 . S
H177 C175 0.950 . S
H178 C162 0.951 . S
H179 C164 0.951 . S
H180 C166 0.951 . S
H181 C167 0.950 . S
H182 C168 0.950 . S
H183 C169 0.950 1_455 S
H184 C171 0.950 . S
H185 C172 0.951 . S
C186 C187 1.386 . S
C186 C188 1.383 . S
C186 H202 0.951 . S
C187 C186 1.386 . S
C187 C191 1.383 . S
C188 C186 1.383 . S
C188 C189 1.402 . S
C188 H203 0.951 . S
C189 C188 1.402 . S
C189 C190 1.375 . S
C189 C192 1.481 1_545 S
C190 C189 1.375 . S
C190 C191 1.367 . S
C190 H204 0.951 1_545 S
C191 C187 1.383 . S
C191 C190 1.367 . S
C191 H205 0.950 . S
C192 C189 1.481 1_565 S
C192 C193 1.297 . S
C192 H206 0.950 . S
C193 C192 1.297 . S
C193 C194 1.479 . S
C193 H207 0.950 . S
C194 C193 1.479 . S
C194 C195 1.375 . S
C194 C200 1.404 . S
C195 C194 1.375 . S
C195 C196 1.369 . S
C195 H208 0.950 . S
C196 C195 1.369 . S
C196 C197 1.392 . S
C196 H209 0.951 . S
C197 C196 1.392 . S
C197 C199 1.384 . S
H198 C200 0.949 . S
C199 C197 1.384 . S
C199 C200 1.385 . S
C199 H201 0.950 . S
C200 C194 1.404 . S
C200 H198 0.949 . S
C200 C199 1.385 . S
H201 C199 0.950 . S
H202 C186 0.951 . S
H203 C188 0.951 . S
H204 C190 0.951 1_565 S
H205 C191 0.950 . S
H206 C192 0.950 . S
H207 C193 0.950 . S
H208 C195 0.950 . S
H209 C196 0.951 . S
C210 C211 1.386 . S
C210 C212 1.383 . S
C210 H226 0.951 . S
C211 C210 1.386 . S
C211 C215 1.383 . S
C212 C210 1.383 . S
C212 C213 1.402 . S
C212 H227 0.951 . S
C213 C212 1.402 . S
C213 C214 1.375 . S
C213 C216 1.481 . S
C214 C213 1.375 . S
C214 C215 1.367 . S
C214 H228 0.951 . S
C215 C211 1.383 . S
C215 C214 1.367 . S
C215 H229 0.950 . S
C216 C213 1.481 . S
C216 C217 1.297 . S
C216 H230 0.950 . S
C217 C216 1.297 . S
C217 C218 1.479 . S
C217 H231 0.950 . S
C218 C217 1.479 . S
C218 C219 1.375 . S
C218 C224 1.404 . S
C219 C218 1.375 . S
C219 C220 1.369 . S
C219 H232 0.950 . S
C220 C219 1.369 . S
C220 C221 1.392 . S
C220 H233 0.951 . S
C221 C220 1.392 . S
C221 C223 1.384 . S
H222 C224 0.949 . S
C223 C221 1.384 . S
C223 C224 1.385 . S
C223 H225 0.950 . S
C224 C218 1.404 . S
C224 H222 0.949 . S
C224 C223 1.385 . S
H225 C223 0.950 . S
H226 C210 0.951 . S
H227 C212 0.951 . S
H228 C214 0.951 . S
H229 C215 0.950 . S
H230 C216 0.950 . S
H231 C217 0.950 . S
H232 C219 0.950 . S
H233 C220 0.951 . S
C234 C235 1.386 . S
C234 C236 1.383 . S
C234 H250 0.951 . S
C235 C234 1.386 . S
C235 C239 1.383 . S
C236 C234 1.383 . S
C236 C237 1.402 . S
C236 H251 0.951 . S
C237 C236 1.402 . S
C237 C238 1.375 . S
C237 C240 1.481 . S
C238 C237 1.375 . S
C238 C239 1.367 . S
C238 H252 0.951 . S
C239 C235 1.383 . S
C239 C238 1.367 . S
C239 H253 0.950 . S
C240 C237 1.481 . S
C240 C241 1.297 1_655 S
C240 H254 0.950 . S
C241 C240 1.297 1_455 S
C241 C242 1.479 . S
C241 H255 0.950 . S
C242 C241 1.479 . S
C242 C243 1.375 . S
C242 C248 1.404 . S
C243 C242 1.375 . S
C243 C244 1.369 . S
C243 H256 0.950 . S
C244 C243 1.369 . S
C244 C245 1.392 . S
C244 H257 0.951 . S
C245 C244 1.392 . S
C245 C247 1.384 . S
H246 C248 0.949 . S
C247 C245 1.384 . S
C247 C248 1.385 . S
C247 H249 0.950 . S
C248 C242 1.404 . S
C248 H246 0.949 . S
C248 C247 1.385 . S
H249 C247 0.950 . S
H250 C234 0.951 . S
H251 C236 0.951 . S
H252 C238 0.951 . S
H253 C239 0.950 . S
H254 C240 0.950 . S
H255 C241 0.950 . S
H256 C243 0.950 . S
H257 C244 0.951 . S
C258 C259 1.386 . S
C258 C260 1.383 . S
C258 H274 0.951 . S
C259 C258 1.386 . S
C259 C263 1.383 . S
C260 C258 1.383 . S
C260 C261 1.402 . S
C260 H275 0.951 . S
C261 C260 1.402 . S
C261 C262 1.375 . S
C261 C264 1.481 . S
C262 C261 1.375 . S
C262 C263 1.367 . S
C262 H276 0.951 . S
C263 C259 1.383 . S
C263 C262 1.367 . S
C263 H277 0.950 . S
C264 C261 1.481 . S
C264 C265 1.297 . S
C264 H278 0.950 1_545 S
C265 C264 1.297 . S
C265 C266 1.479 1_545 S
C265 H279 0.950 . S
C266 C265 1.479 1_565 S
C266 C267 1.375 . S
C266 C272 1.404 . S
C267 C266 1.375 . S
C267 C268 1.369 . S
C267 H280 0.950 1_565 S
C268 C267 1.369 . S
C268 C269 1.392 . S
C268 H281 0.951 . S
C269 C268 1.392 . S
C269 C271 1.384 . S
H270 C272 0.949 . S
C271 C269 1.384 . S
C271 C272 1.385 . S
C271 H273 0.950 . S
C272 C266 1.404 . S
C272 H270 0.949 . S
C272 C271 1.385 . S
H273 C271 0.950 . S
H274 C258 0.951 . S
H275 C260 0.951 . S
H276 C262 0.951 . S
H277 C263 0.950 . S
H278 C264 0.950 1_565 S
H279 C265 0.950 . S
H280 C267 0.950 1_545 S
H281 C268 0.951 . S
C282 C283 1.386 . S
C282 C284 1.383 . S
C282 H298 0.951 . S
C283 C282 1.386 . S
C283 C287 1.383 . S
C284 C282 1.383 . S
C284 C285 1.402 . S
C284 H299 0.951 . S
C285 C284 1.402 . S
C285 C286 1.375 . S
C285 C288 1.481 . S
C286 C285 1.375 . S
C286 C287 1.367 . S
C286 H300 0.951 . S
C287 C283 1.383 . S
C287 C286 1.367 . S
C287 H301 0.950 . S
C288 C285 1.481 . S
C288 C289 1.297 . S
C288 H302 0.950 . S
C289 C288 1.297 . S
C289 C290 1.479 . S
C289 H303 0.950 . S
C290 C289 1.479 . S
C290 C291 1.375 . S
C290 C296 1.404 . S
C291 C290 1.375 . S
C291 C292 1.369 . S
C291 H304 0.950 . S
C292 C291 1.369 . S
C292 C293 1.392 . S
C292 H305 0.951 . S
C293 C292 1.392 . S
C293 C295 1.384 . S
H294 C296 0.949 . S
C295 C293 1.384 . S
C295 C296 1.385 . S
C295 H297 0.950 . S
C296 C290 1.404 . S
C296 H294 0.949 . S
C296 C295 1.385 . S
H297 C295 0.950 . S
H298 C282 0.951 . S
H299 C284 0.951 . S
H300 C286 0.951 . S
H301 C287 0.950 . S
H302 C288 0.950 . S
H303 C289 0.950 . S
H304 C291 0.950 . S
H305 C292 0.951 . S
C306 C307 1.386 . S
C306 C308 1.383 . S
C306 H322 0.951 . S
C307 C306 1.386 . S
C307 C311 1.383 . S
C308 C306 1.383 . S
C308 C309 1.402 . S
C308 H323 0.951 . S
C309 C308 1.402 . S
C309 C310 1.375 . S
C309 C312 1.481 . S
C310 C309 1.375 . S
C310 C311 1.367 . S
C310 H324 0.951 . S
C311 C307 1.383 . S
C311 C310 1.367 . S
C311 H325 0.950 . S
C312 C309 1.481 . S
C312 C313 1.297 . S
C312 H326 0.950 . S
C313 C312 1.297 . S
C313 C314 1.479 . S
C313 H327 0.950 . S
C314 C313 1.479 . S
C314 C315 1.375 . S
C314 C320 1.404 . S
C315 C314 1.375 . S
C315 C316 1.369 . S
C315 H328 0.950 . S
C316 C315 1.369 . S
C316 C317 1.392 . S
C316 H329 0.951 . S
C317 C316 1.392 . S
C317 C319 1.384 . S
H318 C320 0.949 . S
C319 C317 1.384 . S
C319 C320 1.385 . S
C319 H321 0.950 . S
C320 C314 1.404 . S
C320 H318 0.949 . S
C320 C319 1.385 . S
H321 C319 0.950 . S
H322 C306 0.951 . S
H323 C308 0.951 . S
H324 C310 0.951 . S
H325 C311 0.950 . S
H326 C312 0.950 . S
H327 C313 0.950 . S
H328 C315 0.950 . S
H329 C316 0.951 . S
C330 C331 1.386 . S
C330 C332 1.383 . S
C330 H346 0.951 . S
C331 C330 1.386 . S
C331 C335 1.383 . S
C332 C330 1.383 . S
C332 C333 1.402 . S
C332 H347 0.951 . S
C333 C332 1.402 . S
C333 C334 1.375 . S
C333 C336 1.481 . S
C334 C333 1.375 . S
C334 C335 1.367 . S
C334 H348 0.951 . S
C335 C331 1.383 . S
C335 C334 1.367 . S
C335 H349 0.950 . S
C336 C333 1.481 . S
C336 C337 1.297 . S
C336 H350 0.950 . S
C337 C336 1.297 . S
C337 C338 1.479 . S
C337 H351 0.950 . S
C338 C337 1.479 . S
C338 C339 1.375 . S
C338 C344 1.404 . S
C339 C338 1.375 . S
C339 C340 1.369 . S
C339 H352 0.950 . S
C340 C339 1.369 . S
C340 C341 1.392 . S
C340 H353 0.951 . S
C341 C340 1.392 . S
C341 C343 1.384 . S
H342 C344 0.949 . S
C343 C341 1.384 . S
C343 C344 1.385 . S
C343 H345 0.950 . S
C344 C338 1.404 . S
C344 H342 0.949 . S
C344 C343 1.385 . S
H345 C343 0.950 . S
H346 C330 0.951 . S
H347 C332 0.951 . S
H348 C334 0.951 . S
H349 C335 0.950 . S
H350 C336 0.950 . S
H351 C337 0.950 . S
H352 C339 0.950 . S
H353 C340 0.951 . S
C354 C355 1.386 . S
C354 C356 1.383 . S
C354 H370 0.951 . S
C355 C354 1.386 . S
C355 C359 1.383 . S
C356 C354 1.383 . S
C356 C357 1.402 . S
C356 H371 0.951 . S
C357 C356 1.402 . S
C357 C358 1.375 . S
C357 C360 1.481 . S
C358 C357 1.375 . S
C358 C359 1.367 . S
C358 H372 0.951 . S
C359 C355 1.383 . S
C359 C358 1.367 . S
C359 H373 0.950 . S
C360 C357 1.481 . S
C360 C361 1.297 . S
C360 H374 0.950 . S
C361 C360 1.297 . S
C361 C362 1.479 . S
C361 H375 0.950 . S
C362 C361 1.479 . S
C362 C363 1.375 . S
C362 C368 1.404 . S
C363 C362 1.375 . S
C363 C364 1.369 . S
C363 H376 0.950 . S
C364 C363 1.369 . S
C364 C365 1.392 . S
C364 H377 0.951 . S
C365 C364 1.392 . S
C365 C367 1.384 . S
H366 C368 0.949 . S
C367 C365 1.384 . S
C367 C368 1.385 . S
C367 H369 0.950 . S
C368 C362 1.404 . S
C368 H366 0.949 . S
C368 C367 1.385 . S
H369 C367 0.950 . S
H370 C354 0.951 . S
H371 C356 0.951 . S
H372 C358 0.951 . S
H373 C359 0.950 . S
H374 C360 0.950 . S
H375 C361 0.950 . S
H376 C363 0.950 . S
H377 C364 0.951 . S
C378 C379 1.386 . S
C378 C380 1.383 . S
C378 H394 0.951 . S
C379 C378 1.386 . S
C379 C383 1.383 . S
C380 C378 1.383 . S
C380 C381 1.402 . S
C380 H395 0.951 . S
C381 C380 1.402 . S
C381 C382 1.375 . S
C381 C384 1.481 . S
C382 C381 1.375 . S
C382 C383 1.367 . S
C382 H396 0.951 . S
C383 C379 1.383 . S
C383 C382 1.367 . S
C383 H397 0.950 . S
C384 C381 1.481 . S
C384 C385 1.297 . S
C384 H398 0.950 . S
C385 C384 1.297 . S
C385 C386 1.479 . S
C385 H399 0.950 . S
C386 C385 1.479 . S
C386 C387 1.375 . S
C386 C392 1.404 . S
C387 C386 1.375 . S
C387 C388 1.369 . S
C387 H400 0.950 . S
C388 C387 1.369 . S
C388 C389 1.392 . S
C388 H401 0.951 . S
C389 C388 1.392 . S
C389 C391 1.384 . S
H390 C392 0.949 . S
C391 C389 1.384 . S
C391 C392 1.385 . S
C391 H393 0.950 . S
C392 C386 1.404 . S
C392 H390 0.949 . S
C392 C391 1.385 . S
H393 C391 0.950 . S
H394 C378 0.951 . S
H395 C380 0.951 . S
H396 C382 0.951 . S
H397 C383 0.950 . S
H398 C384 0.950 . S
H399 C385 0.950 . S
H400 C387 0.950 . S
H401 C388 0.951 . S
C402 C403 1.386 . S
C402 C404 1.383 . S
C402 H418 0.951 . S
C403 C402 1.386 . S
C403 C407 1.383 . S
C404 C402 1.383 . S
C404 C405 1.402 . S
C404 H419 0.951 . S
C405 C404 1.402 . S
C405 C406 1.375 . S
C405 C408 1.481 . S
C406 C405 1.375 . S
C406 C407 1.367 . S
C406 H420 0.951 . S
C407 C403 1.383 . S
C407 C406 1.367 . S
C407 H421 0.950 . S
C408 C405 1.481 . S
C408 C409 1.297 . S
C408 H422 0.950 . S
C409 C408 1.297 . S
C409 C410 1.479 . S
C409 H423 0.950 . S
C410 C409 1.479 . S
C410 C411 1.375 . S
C410 C416 1.404 . S
C411 C410 1.375 . S
C411 C412 1.369 . S
C411 H424 0.950 . S
C412 C411 1.369 . S
C412 C413 1.392 . S
C412 H425 0.951 . S
C413 C412 1.392 . S
C413 C415 1.384 . S
H414 C416 0.949 . S
C415 C413 1.384 . S
C415 C416 1.385 . S
C415 H417 0.950 . S
C416 C410 1.404 . S
C416 H414 0.949 . S
C416 C415 1.385 . S
H417 C415 0.950 . S
H418 C402 0.951 . S
H419 C404 0.951 . S
H420 C406 0.951 . S
H421 C407 0.950 . S
H422 C408 0.950 . S
H423 C409 0.950 . S
H424 C411 0.950 . S
H425 C412 0.951 . S
C139 C16 1.379 . S
C149 N127 1.360 . S
C163 C39 1.384 . S
C173 N12 1.357 . S
C187 N35 1.380 . S
C197 C62 1.348 . S
C211 C85 1.385 . S
C221 N58 1.358 . S
C235 N81 1.383 . S
C245 C108 1.353 . S
C259 C131 1.353 . S
C269 N104 1.383 . S
C283 N94 1.359 . S
C293 C7 1.428 . S
C307 N117 1.391 . S
C317 C30 1.454 . S
C331 C53 1.458 . S
C341 N2 1.380 . S
C355 C76 1.467 . S
C365 N25 1.444 . S
C379 C99 1.464 . S
C389 N48 1.443 . S
C403 C122 1.466 . S
C413 N71 1.426 . S
