# Generated by pormake.
# Topology ume, (4)-cn, num edge types: 1
# Building blocks:
#     Node 0, Type 0, BuildingBlock: NAWXER_clean_sbu_0, # of connection points: 4
#     Node 1, Type 0, BuildingBlock: NAWXER_clean_sbu_0, # of connection points: 4
#     Node 2, Type 0, BuildingBlock: NAWXER_clean_sbu_0, # of connection points: 4
#     Node 3, Type 0, BuildingBlock: NAWXER_clean_sbu_0, # of connection points: 4
#     Node 4, Type 0, BuildingBlock: NAWXER_clean_sbu_0, # of connection points: 4
#     Node 5, Type 0, BuildingBlock: NAWXER_clean_sbu_0, # of connection points: 4
#     Node 6, Type 0, BuildingBlock: NAWXER_clean_sbu_0, # of connection points: 4
#     Node 7, Type 0, BuildingBlock: NAWXER_clean_sbu_0, # of connection points: 4
#     Node 8, Type 0, BuildingBlock: NAWXER_clean_sbu_0, # of connection points: 4
#     Node 9, Type 0, BuildingBlock: NAWXER_clean_sbu_0, # of connection points: 4
#     Node 10, Type 0, BuildingBlock: NAWXER_clean_sbu_0, # of connection points: 4
#     Node 11, Type 0, BuildingBlock: NAWXER_clean_sbu_0, # of connection points: 4
#     Node 12, Type 0, BuildingBlock: NAWXER_clean_sbu_0, # of connection points: 4
#     Node 13, Type 0, BuildingBlock: NAWXER_clean_sbu_0, # of connection points: 4
#     Node 14, Type 0, BuildingBlock: NAWXER_clean_sbu_0, # of connection points: 4
#     Node 15, Type 0, BuildingBlock: NAWXER_clean_sbu_0, # of connection points: 4
#     Edge 16, Type (0, 0), BuildingBlock: TEMPAE_clean_linker_10, # of connection points: 2
#     Edge 17, Type (0, 0), BuildingBlock: TEMPAE_clean_linker_10, # of connection points: 2
#     Edge 18, Type (0, 0), BuildingBlock: TEMPAE_clean_linker_10, # of connection points: 2
#     Edge 19, Type (0, 0), BuildingBlock: TEMPAE_clean_linker_10, # of connection points: 2
#     Edge 20, Type (0, 0), BuildingBlock: TEMPAE_clean_linker_10, # of connection points: 2
#     Edge 21, Type (0, 0), BuildingBlock: TEMPAE_clean_linker_10, # of connection points: 2
#     Edge 22, Type (0, 0), BuildingBlock: TEMPAE_clean_linker_10, # of connection points: 2
#     Edge 23, Type (0, 0), BuildingBlock: TEMPAE_clean_linker_10, # of connection points: 2
#     Edge 24, Type (0, 0), BuildingBlock: TEMPAE_clean_linker_10, # of connection points: 2
#     Edge 25, Type (0, 0), BuildingBlock: TEMPAE_clean_linker_10, # of connection points: 2
#     Edge 26, Type (0, 0), BuildingBlock: TEMPAE_clean_linker_10, # of connection points: 2
#     Edge 27, Type (0, 0), BuildingBlock: TEMPAE_clean_linker_10, # of connection points: 2
#     Edge 28, Type (0, 0), BuildingBlock: TEMPAE_clean_linker_10, # of connection points: 2
#     Edge 29, Type (0, 0), BuildingBlock: TEMPAE_clean_linker_10, # of connection points: 2
#     Edge 30, Type (0, 0), BuildingBlock: TEMPAE_clean_linker_10, # of connection points: 2
#     Edge 31, Type (0, 0), BuildingBlock: TEMPAE_clean_linker_10, # of connection points: 2
#     Edge 32, Type (0, 0), BuildingBlock: TEMPAE_clean_linker_10, # of connection points: 2
#     Edge 33, Type (0, 0), BuildingBlock: TEMPAE_clean_linker_10, # of connection points: 2
#     Edge 34, Type (0, 0), BuildingBlock: TEMPAE_clean_linker_10, # of connection points: 2
#     Edge 35, Type (0, 0), BuildingBlock: TEMPAE_clean_linker_10, # of connection points: 2
#     Edge 36, Type (0, 0), BuildingBlock: TEMPAE_clean_linker_10, # of connection points: 2
#     Edge 37, Type (0, 0), BuildingBlock: TEMPAE_clean_linker_10, # of connection points: 2
#     Edge 38, Type (0, 0), BuildingBlock: TEMPAE_clean_linker_10, # of connection points: 2
#     Edge 39, Type (0, 0), BuildingBlock: TEMPAE_clean_linker_10, # of connection points: 2
#     Edge 40, Type (0, 0), BuildingBlock: TEMPAE_clean_linker_10, # of connection points: 2
#     Edge 41, Type (0, 0), BuildingBlock: TEMPAE_clean_linker_10, # of connection points: 2
#     Edge 42, Type (0, 0), BuildingBlock: TEMPAE_clean_linker_10, # of connection points: 2
#     Edge 43, Type (0, 0), BuildingBlock: TEMPAE_clean_linker_10, # of connection points: 2
#     Edge 44, Type (0, 0), BuildingBlock: TEMPAE_clean_linker_10, # of connection points: 2
#     Edge 45, Type (0, 0), BuildingBlock: TEMPAE_clean_linker_10, # of connection points: 2
#     Edge 46, Type (0, 0), BuildingBlock: TEMPAE_clean_linker_10, # of connection points: 2
#     Edge 47, Type (0, 0), BuildingBlock: TEMPAE_clean_linker_10, # of connection points: 2
# Relax obj value: 0.054
# Max RMSD: 0.243
# Mean RMSD: 0.243
data_MOF--net-ume--node1-NAWXER_clean_sbu_0--edge1-TEMPAE_clean_linker_10
_symmetry_space_group_name_H-M    P1
_symmetry_Int_Tables_number       1
_symmetry_cell_setting            triclinic
loop_
_symmetry_equiv_pos_as_xyz
'x, y, z'
_cell_length_a     29.091697
_cell_length_b     29.133438
_cell_length_c     114.34452
_cell_angle_alpha  90.007584
_cell_angle_beta   89.980215
_cell_angle_gamma 90.000538
loop_
_atom_site_label
_atom_site_type_symbol
_atom_site_fract_x
_atom_site_fract_y
_atom_site_fract_z
_atom_type_partial_charge
C0 C 0.24166 0.09013 0.34287 0.0
C1 C 0.25471 0.12569 0.3014 0.0
O2 O 0.24386 0.12894 0.33787 0.0
Zn3 Zn 0.24476 0.10668 0.32215 0.0
O4 O 0.24067 0.05328 0.33669 0.0
Zn5 Zn 0.24438 0.03736 0.318 0.0
O6 O 0.29773 0.00071 0.31702 0.0
O7 O 0.3115 0.07288 0.32185 0.0
O8 O 0.25309 0.08223 0.30314 0.0
O9 O 0.24993 0.15259 0.31003 0.0
O10 O 0.17674 0.07663 0.31992 0.0
O11 O 0.18993 0.0049 0.31472 0.0
C12 C 0.32598 0.03209 0.31971 0.0
C13 C 0.16176 0.03684 0.3169 0.0
C14 C 0.96191 0.83117 0.57018 0.0
C15 C 0.95987 0.6671 0.56643 0.0
O16 O 0.9936 0.8038 0.56713 0.0
Zn17 Zn 0.95827 0.74987 0.5681 0.0
O18 O 0.92148 0.81572 0.5725 0.0
Zn19 Zn 0.8889 0.74786 0.57243 0.0
O20 O 0.86768 0.74206 0.58824 0.0
O21 O 0.9433 0.7465 0.58679 0.0
O22 O 0.91987 0.68139 0.56946 0.0
O23 O 0.99172 0.69574 0.56458 0.0
O24 O 0.91246 0.75876 0.55345 0.0
O25 O 0.84228 0.75351 0.56046 0.0
C26 C 0.90686 0.7435 0.59311 0.0
C27 C 0.86886 0.75961 0.5518 0.0
C28 C 0.16901 0.46444 0.81995 0.0
C29 C 0.33333 0.44916 0.81692 0.0
O30 O 0.19934 0.49493 0.81823 0.0
Zn31 Zn 0.25059 0.45447 0.81834 0.0
O32 O 0.18091 0.4223 0.82127 0.0
Zn33 Zn 0.24564 0.38478 0.82184 0.0
O34 O 0.24458 0.36095 0.83744 0.0
O35 O 0.25414 0.43607 0.8368 0.0
O36 O 0.31559 0.41027 0.81971 0.0
O37 O 0.30746 0.48332 0.81507 0.0
O38 O 0.23861 0.41156 0.80307 0.0
O39 O 0.23836 0.34043 0.80955 0.0
C40 C 0.25028 0.39881 0.84273 0.0
C41 C 0.2348 0.36832 0.80108 0.0
C42 C 0.53559 0.66715 0.07005 0.0
C43 C 0.53903 0.83109 0.06571 0.0
O44 O 0.50427 0.69442 0.0667 0.0
Zn45 Zn 0.53995 0.74828 0.06754 0.0
O46 O 0.57595 0.68256 0.07243 0.0
Zn47 Zn 0.6091 0.75006 0.07214 0.0
O48 O 0.62956 0.7565 0.08799 0.0
O49 O 0.55398 0.75261 0.08629 0.0
O50 O 0.57871 0.81661 0.06894 0.0
O51 O 0.50718 0.80259 0.06372 0.0
O52 O 0.58643 0.73796 0.0531 0.0
O53 O 0.65625 0.74312 0.06033 0.0
C54 C 0.59008 0.75562 0.09272 0.0
C55 C 0.6301 0.73654 0.05161 0.0
C56 C 0.24812 0.39966 0.931 0.0
C57 C 0.26376 0.37053 0.97271 0.0
O58 O 0.2529 0.36189 0.93638 0.0
Zn59 Zn 0.25291 0.38634 0.95194 0.0
O60 O 0.24537 0.43722 0.93684 0.0
Zn61 Zn 0.24965 0.4563 0.95523 0.0
O62 O 0.30169 0.4956 0.95513 0.0
O63 O 0.31852 0.42235 0.95236 0.0
O64 O 0.26093 0.41376 0.97062 0.0
O65 O 0.2594 0.34236 0.96433 0.0
O66 O 0.18369 0.41354 0.95414 0.0
O67 O 0.1936 0.48667 0.95848 0.0
C68 C 0.33127 0.46432 0.95351 0.0
C69 C 0.16692 0.45298 0.95682 0.0
C70 C 0.58718 0.74343 0.1808 0.0
C71 C 0.62456 0.75879 0.22216 0.0
O72 O 0.62626 0.74161 0.18572 0.0
Zn73 Zn 0.60482 0.74744 0.2015 0.0
O74 O 0.55067 0.74668 0.18707 0.0
Zn75 Zn 0.53538 0.75001 0.20575 0.0
O76 O 0.50056 0.80425 0.20673 0.0
O77 O 0.57288 0.8156 0.20147 0.0
O78 O 0.58099 0.75829 0.22046 0.0
O79 O 0.65127 0.75257 0.21353 0.0
O80 O 0.57319 0.68122 0.20441 0.0
O81 O 0.50134 0.69617 0.20917 0.0
C82 C 0.53256 0.83139 0.20376 0.0
C83 C 0.53299 0.66725 0.20737 0.0
C84 C 0.23715 0.12593 0.47252 0.0
C85 C 0.24869 0.09013 0.43102 0.0
O86 O 0.24213 0.15276 0.46388 0.0
Zn87 Zn 0.24627 0.10677 0.45175 0.0
O88 O 0.23802 0.08245 0.47076 0.0
Zn89 Zn 0.24554 0.03744 0.45589 0.0
O90 O 0.29947 0.00398 0.45908 0.0
O91 O 0.31379 0.07553 0.45392 0.0
O92 O 0.24914 0.05328 0.43721 0.0
O93 O 0.24727 0.12898 0.43603 0.0
O94 O 0.17895 0.07418 0.45215 0.0
O95 O 0.19155 0.00179 0.45697 0.0
C96 C 0.32815 0.03546 0.45689 0.0
C97 C 0.1638 0.03366 0.45433 0.0
C98 C 0.95431 0.83152 0.70827 0.0
C99 C 0.96088 0.66773 0.70377 0.0
O100 O 0.98668 0.80356 0.71022 0.0
Zn101 Zn 0.95495 0.74873 0.70634 0.0
O102 O 0.91491 0.81638 0.70501 0.0
Zn103 Zn 0.8858 0.74929 0.70175 0.0
O104 O 0.83877 0.74132 0.71355 0.0
O105 O 0.90867 0.73734 0.72078 0.0
O106 O 0.92021 0.68241 0.70142 0.0
O107 O 0.9917 0.69556 0.70712 0.0
O108 O 0.94084 0.75303 0.6876 0.0
O109 O 0.8652 0.75551 0.68591 0.0
C110 C 0.86503 0.73512 0.72227 0.0
C111 C 0.90468 0.75543 0.68118 0.0
C112 C 0.83382 0.54156 0.82064 0.0
C113 C 0.66919 0.52959 0.81758 0.0
O114 O 0.80916 0.50646 0.81875 0.0
Zn115 Zn 0.75225 0.53779 0.81881 0.0
O116 O 0.81529 0.5813 0.82191 0.0
Zn117 Zn 0.74482 0.60779 0.82199 0.0
O118 O 0.7388 0.63223 0.83754 0.0
O119 O 0.74827 0.55705 0.83714 0.0
O120 O 0.68079 0.57112 0.81989 0.0
O121 O 0.70007 0.49961 0.81603 0.0
O122 O 0.75793 0.58077 0.80338 0.0
O123 O 0.74579 0.65155 0.80937 0.0
C124 C 0.74319 0.59443 0.84295 0.0
C125 C 0.75482 0.62384 0.80112 0.0
C126 C 0.4083 0.24241 0.09334 0.0
C127 C 0.37168 0.26265 0.0521 0.0
O128 O 0.36921 0.24203 0.08841 0.0
Zn129 Zn 0.39094 0.2484 0.07267 0.0
O130 O 0.44494 0.24503 0.08709 0.0
Zn131 Zn 0.46045 0.24929 0.06845 0.0
O132 O 0.49704 0.30253 0.06784 0.0
O133 O 0.42497 0.31553 0.07309 0.0
O134 O 0.41521 0.26065 0.0538 0.0
O135 O 0.34475 0.25615 0.06067 0.0
O136 O 0.42048 0.18147 0.06944 0.0
O137 O 0.49268 0.19464 0.06468 0.0
C138 C 0.46578 0.33034 0.07094 0.0
C139 C 0.4602 0.16655 0.06637 0.0
C140 C 0.66253 0.95907 0.31984 0.0
C141 C 0.82673 0.95401 0.31696 0.0
O142 O 0.69085 0.99043 0.31718 0.0
Zn143 Zn 0.74414 0.95367 0.31812 0.0
O144 O 0.67693 0.91823 0.32195 0.0
Zn145 Zn 0.74359 0.88428 0.32221 0.0
O146 O 0.74458 0.8619 0.33791 0.0
O147 O 0.748 0.93754 0.33678 0.0
O148 O 0.81168 0.91421 0.31995 0.0
O149 O 0.79862 0.98606 0.31483 0.0
O150 O 0.73539 0.90899 0.30323 0.0
O151 O 0.73822 0.83852 0.31005 0.0
C152 C 0.74697 0.90065 0.34295 0.0
C153 C 0.73361 0.86556 0.30144 0.0
C154 C 0.08932 0.25474 0.59264 0.0
C155 C 0.12836 0.23695 0.55144 0.0
O156 O 0.12872 0.25525 0.58786 0.0
Zn157 Zn 0.10792 0.24964 0.57203 0.0
O158 O 0.05307 0.25243 0.58624 0.0
Zn159 Zn 0.03866 0.24892 0.56752 0.0
O160 O 0.00224 0.19563 0.5666 0.0
O161 O 0.0739 0.18253 0.57216 0.0
O162 O 0.08474 0.23871 0.553 0.0
O163 O 0.15478 0.24278 0.56014 0.0
O164 O 0.07835 0.31667 0.569 0.0
O165 O 0.00651 0.30368 0.56386 0.0
C166 C 0.03326 0.16778 0.5698 0.0
C167 C 0.03879 0.33171 0.56584 0.0
C168 C 0.75807 0.86599 0.47263 0.0
C169 C 0.74357 0.90077 0.43113 0.0
O170 O 0.75374 0.83887 0.46402 0.0
Zn171 Zn 0.74746 0.88452 0.45186 0.0
O172 O 0.75557 0.90938 0.47084 0.0
Zn173 Zn 0.74578 0.95388 0.45596 0.0
O174 O 0.69078 0.98527 0.45931 0.0
O175 O 0.67889 0.91326 0.45415 0.0
O176 O 0.74196 0.93765 0.43729 0.0
O177 O 0.74671 0.86207 0.43616 0.0
O178 O 0.8135 0.91963 0.45206 0.0
O179 O 0.79844 0.9916 0.45683 0.0
C180 C 0.6632 0.95277 0.45717 0.0
C181 C 0.82724 0.96073 0.45415 0.0
C182 C 0.03333 0.16696 0.70759 0.0
C183 C 0.03091 0.33093 0.70328 0.0
O184 O 0.00142 0.19563 0.70935 0.0
Zn185 Zn 0.03469 0.24975 0.70565 0.0
O186 O 0.0733 0.1812 0.70452 0.0
Zn187 Zn 0.1041 0.24761 0.70135 0.0
O188 O 0.15061 0.2542 0.71332 0.0
O189 O 0.08036 0.25993 0.72027 0.0
O190 O 0.07137 0.3154 0.70105 0.0
O191 O -0.00081 0.30367 0.70639 0.0
O192 O 0.04985 0.24557 0.68698 0.0
O193 O 0.12549 0.24113 0.68559 0.0
C194 C 0.12395 0.26106 0.72192 0.0
C195 C 0.08635 0.24236 0.68069 0.0
C196 C 0.66652 0.5412 0.95331 0.0
C197 C 0.83112 0.53376 0.95677 0.0
O198 O 0.69215 0.50687 0.95528 0.0
Zn199 Zn 0.74804 0.53982 0.95536 0.0
O200 O 0.68396 0.58145 0.95206 0.0
Zn201 Zn 0.7537 0.60986 0.95206 0.0
O202 O 0.75949 0.634 0.93646 0.0
O203 O 0.75221 0.5586 0.937 0.0
O204 O 0.81864 0.57491 0.95433 0.0
O205 O 0.80094 0.50311 0.95835 0.0
O206 O 0.74072 0.58308 0.97069 0.0
O207 O 0.75124 0.65396 0.96458 0.0
C208 C 0.75639 0.59592 0.93112 0.0
C209 C 0.74268 0.62629 0.97287 0.0
C210 C 0.46112 0.16797 0.20425 0.0
C211 C 0.45406 0.33186 0.20821 0.0
O212 O 0.49184 0.19608 0.2075 0.0
Zn213 Zn 0.45493 0.24904 0.20656 0.0
O214 O 0.42037 0.18237 0.20187 0.0
Zn215 Zn 0.38574 0.24918 0.20199 0.0
O216 O 0.36504 0.25457 0.18614 0.0
O217 O 0.4407 0.25239 0.18782 0.0
O218 O 0.41469 0.31647 0.20501 0.0
O219 O 0.48652 0.30412 0.21025 0.0
O220 O 0.40877 0.23839 0.22104 0.0
O221 O 0.3388 0.24196 0.21384 0.0
C222 C 0.4045 0.25438 0.1814 0.0
C223 C 0.36515 0.2363 0.22256 0.0
C224 C 0.89205 -0.00098 0.309 0.0
C225 C 0.87629 0.96375 0.31631 0.0
C226 C 0.9385 0.01141 0.3088 0.0
C227 C 0.96971 0.98858 0.31627 0.0
C228 C 0.9541 0.95266 0.32362 0.0
C229 C 0.90748 0.94026 0.32346 0.0
C230 C 0.95411 0.04906 0.30062 0.0
C231 C 0.98644 0.92803 0.33182 0.0
C232 C 0.09648 0.99171 0.30897 0.0
C233 C 0.11221 0.02699 0.31629 0.0
C234 C 0.05004 0.97927 0.30878 0.0
C235 C 0.01882 0.00204 0.31627 0.0
C236 C 0.03442 0.03795 0.32363 0.0
C237 C 0.08102 0.0504 0.32345 0.0
C238 C 0.03444 0.94163 0.3006 0.0
C239 C 0.00207 0.06252 0.33185 0.0
H240 H 0.86793 0.01702 0.30342 0.0
H241 H 0.89517 0.9133 0.32919 0.0
H242 H 0.96864 0.078 0.30573 0.0
H243 H 0.98179 0.03613 0.29481 0.0
H244 H 0.92564 0.06236 0.29511 0.0
H245 H 0.96871 0.90127 0.33707 0.0
H246 H 0.01456 0.91158 0.32679 0.0
H247 H 0.00256 0.95307 0.33788 0.0
H248 H 0.1206 0.97377 0.30337 0.0
H249 H 0.09331 0.07737 0.32919 0.0
H250 H 0.00679 0.95458 0.29479 0.0
H251 H 0.01989 0.91269 0.3057 0.0
H252 H 0.06293 0.92834 0.29508 0.0
H253 H 0.97397 0.07902 0.32682 0.0
H254 H 0.01979 0.08923 0.33711 0.0
H255 H 0.98592 0.03744 0.33789 0.0
C256 C 0.00518 0.60247 0.55813 0.0
C257 C 0.96973 0.6177 0.56547 0.0
C258 C 0.01698 0.55592 0.55758 0.0
C259 C 0.99347 0.52415 0.56477 0.0
C260 C 0.95742 0.5393 0.57215 0.0
C261 C 0.94556 0.58595 0.5723 0.0
C262 C 0.05476 0.5408 0.54937 0.0
C263 C 0.93218 0.50642 0.58009 0.0
C264 C 0.99521 0.39739 0.55749 0.0
C265 C 0.02979 0.38129 0.56497 0.0
C266 C 0.98383 0.44407 0.55712 0.0
C267 C 0.00683 0.47506 0.56463 0.0
C268 C 0.04213 0.45906 0.57212 0.0
C269 C 0.05363 0.4123 0.57209 0.0
C270 C 0.94689 0.46012 0.54879 0.0
C271 C 0.06679 0.49107 0.5804 0.0
H272 H 0.02369 0.62704 0.55278 0.0
H273 H 0.91841 0.59782 0.57805 0.0
H274 H 0.08369 0.52603 0.55444 0.0
H275 H 0.0419 0.51348 0.54345 0.0
H276 H 0.06812 0.56956 0.54397 0.0
H277 H 0.90524 0.5238 0.58536 0.0
H278 H 0.91577 0.47889 0.57485 0.0
H279 H 0.95688 0.48966 0.58613 0.0
H280 H 0.97698 0.37338 0.55192 0.0
H281 H 0.08008 0.39974 0.57795 0.0
H282 H 0.96028 0.48818 0.54318 0.0
H283 H 0.91741 0.47421 0.55379 0.0
H284 H 0.93416 0.43201 0.54308 0.0
H285 H 0.08344 0.51924 0.57544 0.0
H286 H 0.09345 0.47314 0.58564 0.0
H287 H 0.04167 0.50706 0.58646 0.0
C288 C 0.58727 0.54088 0.82339 0.0
C289 C 0.62032 0.51618 0.81708 0.0
C290 C 0.54103 0.5272 0.82339 0.0
C291 C 0.52744 0.48866 0.81667 0.0
C292 C 0.56062 0.46396 0.81016 0.0
C293 C 0.60681 0.47769 0.81057 0.0
C294 C 0.50674 0.55387 0.83062 0.0
C295 C 0.54723 0.42348 0.80265 0.0
C296 C 0.41294 0.43245 0.82389 0.0
C297 C 0.38349 0.45531 0.81616 0.0
C298 C 0.46017 0.44257 0.82409 0.0
C299 C 0.4782 0.4753 0.81614 0.0
C300 C 0.44878 0.49677 0.80796 0.0
C301 C 0.40165 0.48699 0.80818 0.0
C302 C 0.49037 0.41971 0.8331 0.0
C303 C 0.46687 0.53086 0.79913 0.0
H304 H 0.59774 0.57034 0.82853 0.0
H305 H 0.63232 0.45865 0.80564 0.0
H306 H 0.48054 0.56962 0.82483 0.0
H307 H 0.48841 0.53039 0.83667 0.0
H308 H 0.52329 0.5815 0.83582 0.0
H309 H 0.57722 0.40802 0.7981 0.0
H310 H 0.53059 0.39668 0.80808 0.0
H311 H 0.52177 0.43442 0.79598 0.0
H312 H 0.39874 0.40827 0.83012 0.0
H313 H 0.37883 0.50442 0.80214 0.0
H314 H 0.50468 0.44606 0.8391 0.0
H315 H 0.51987 0.40252 0.8288 0.0
H316 H 0.47135 0.39392 0.83838 0.0
H317 H 0.47981 0.56185 0.80371 0.0
H318 H 0.4401 0.54165 0.79277 0.0
H319 H 0.49618 0.51585 0.79424 0.0
C320 C 0.44482 0.0854 0.07208 0.0
C321 C 0.46913 0.11701 0.06524 0.0
C322 C 0.45626 0.03862 0.07188 0.0
C323 C 0.49199 0.02323 0.06442 0.0
C324 C 0.51542 0.05485 0.05717 0.0
C325 C 0.50409 0.10151 0.05779 0.0
C326 C 0.43111 0.00593 0.07989 0.0
C327 C 0.55283 0.03949 0.04889 0.0
C328 C 0.55308 0.91197 0.07185 0.0
C329 C 0.52938 0.88057 0.06481 0.0
C330 C 0.54114 0.95861 0.07184 0.0
C331 C 0.50551 0.97415 0.06438 0.0
C332 C 0.48255 0.94277 0.05697 0.0
C333 C 0.49438 0.89619 0.05739 0.0
C334 C 0.5658 0.99103 0.08001 0.0
C335 C 0.44524 0.95832 0.04869 0.0
H336 H 0.41806 0.09748 0.07792 0.0
H337 H 0.52267 0.12597 0.05242 0.0
H338 H 0.41491 0.97808 0.07472 0.0
H339 H 0.45586 0.98958 0.08598 0.0
H340 H 0.40403 0.02339 0.0851 0.0
H341 H 0.56574 0.06803 0.04335 0.0
H342 H 0.58211 0.02518 0.05392 0.0
H343 H 0.53985 0.01176 0.04311 0.0
H344 H 0.57985 0.8998 0.07767 0.0
H345 H 0.47622 0.8719 0.05188 0.0
H346 H 0.5407 0.00727 0.08604 0.0
H347 H 0.5824 0.01898 0.07496 0.0
H348 H 0.59251 0.97339 0.0853 0.0
H349 H 0.4159 0.97254 0.05371 0.0
H350 H 0.4324 0.92991 0.04309 0.0
H351 H 0.45834 0.98616 0.04296 0.0
C352 C 0.08666 0.43675 0.95029 0.0
C353 C 0.11695 0.46023 0.95768 0.0
C354 C 0.03957 0.44743 0.95022 0.0
C355 C 0.02253 0.48142 0.95796 0.0
C356 C 0.05282 0.50372 0.9658 0.0
C357 C 0.0998 0.49331 0.96544 0.0
C358 C 0.00839 0.42364 0.94159 0.0
C359 C 0.03578 0.53919 0.9744 0.0
C360 C 0.91265 0.5456 0.95072 0.0
C361 C 0.88021 0.52141 0.95735 0.0
C362 C 0.95901 0.53233 0.95066 0.0
C363 C 0.97331 0.49482 0.95766 0.0
C364 C 0.94079 0.47087 0.96454 0.0
C365 C 0.89446 0.48408 0.96418 0.0
C366 C 0.9926 0.55813 0.94303 0.0
C367 C 0.95498 0.43156 0.97236 0.0
H368 H 0.10007 0.41148 0.94422 0.0
H369 H 0.12326 0.51123 0.97122 0.0
H370 H 0.97948 0.4068 0.94623 0.0
H371 H 0.99329 0.44934 0.93554 0.0
H372 H 0.02685 0.39737 0.93633 0.0
H373 H 0.06325 0.55086 0.98046 0.0
H374 H 0.02236 0.56949 0.96963 0.0
H375 H 0.007 0.52499 0.97965 0.0
H376 H 0.90156 0.57415 0.94533 0.0
H377 H 0.8694 0.46548 0.96936 0.0
H378 H 0.01018 0.53396 0.93701 0.0
H379 H 0.01948 0.57437 0.94852 0.0
H380 H 0.97559 0.58528 0.93776 0.0
H381 H 0.9707 0.4038 0.96706 0.0
H382 H 0.92553 0.41704 0.97732 0.0
H383 H 0.98139 0.44337 0.97868 0.0
C384 C 0.43935 0.41215 0.20171 0.0
C385 C 0.46266 0.38151 0.20904 0.0
C386 C 0.4507 0.45894 0.20163 0.0
C387 C 0.48526 0.47536 0.20929 0.0
C388 C 0.50764 0.44476 0.21702 0.0
C389 C 0.49648 0.39802 0.21669 0.0
C390 C 0.42674 0.49052 0.19312 0.0
C391 C 0.54374 0.46127 0.22552 0.0
C392 C 0.54738 0.58587 0.2017 0.0
C393 C 0.52271 0.61792 0.20832 0.0
C394 C 0.53536 0.53925 0.20188 0.0
C395 C 0.4986 0.52445 0.20908 0.0
C396 C 0.47449 0.55655 0.21604 0.0
C397 C 0.4865 0.60304 0.21547 0.0
C398 C 0.56128 0.50602 0.19418 0.0
C399 C 0.4359 0.54182 0.22405 0.0
H400 H 0.41351 0.39925 0.19573 0.0
H401 H 0.51429 0.37429 0.22242 0.0
H402 H 0.40971 0.51897 0.19789 0.0
H403 H 0.45238 0.50617 0.18714 0.0
H404 H 0.40052 0.47233 0.18779 0.0
H405 H 0.55591 0.43347 0.23141 0.0
H406 H 0.5737 0.47509 0.22066 0.0
H407 H 0.52981 0.48961 0.23095 0.0
H408 H 0.57512 0.59745 0.19609 0.0
H409 H 0.4676 0.62782 0.22066 0.0
H410 H 0.53711 0.48889 0.18807 0.0
H411 H 0.57731 0.4788 0.19959 0.0
H412 H 0.58862 0.52318 0.18899 0.0
H413 H 0.40753 0.5267 0.21884 0.0
H414 H 0.42195 0.57084 0.22925 0.0
H415 H 0.44821 0.51485 0.23014 0.0
C416 C 0.40921 0.04861 0.45053 0.0
C417 C 0.37757 0.02484 0.45749 0.0
C418 C 0.45573 0.03585 0.4504 0.0
C419 C 0.47078 -0.00077 0.4576 0.0
C420 C 0.43908 0.97593 0.46485 0.0
C421 C 0.39274 0.98873 0.46461 0.0
C422 C 0.48861 0.06101 0.44244 0.0
C423 C 0.4541 0.93748 0.47285 0.0
C424 C 0.58282 0.93858 0.45046 0.0
C425 C 0.6135 0.96172 0.45782 0.0
C426 C 0.53611 0.95062 0.45023 0.0
C427 C 0.5199 0.98579 0.45774 0.0
C428 C 0.55059 0.00812 0.46545 0.0
C429 C 0.59715 0.99614 0.4653 0.0
C430 C 0.50435 0.92657 0.44178 0.0
C431 C 0.53433 0.04493 0.4738 0.0
H432 H 0.39737 0.07624 0.44494 0.0
H433 H 0.36829 0.97048 0.47005 0.0
H434 H 0.51626 0.07728 0.44768 0.0
H435 H 0.5053 0.03637 0.43638 0.0
H436 H 0.4712 0.08801 0.43721 0.0
H437 H 0.4252 0.92357 0.47812 0.0
H438 H 0.46916 0.9091 0.46764 0.0
H439 H 0.48122 0.9499 0.47889 0.0
H440 H 0.59562 0.91229 0.44459 0.0
H441 H 0.6209 0.01385 0.47105 0.0
H442 H 0.48875 0.95203 0.43575 0.0
H443 H 0.47581 0.90987 0.44661 0.0
H444 H 0.52243 0.90011 0.43651 0.0
H445 H 0.52024 0.07439 0.46881 0.0
H446 H 0.56236 0.05763 0.47954 0.0
H447 H 0.50619 0.03145 0.47938 0.0
C448 C 0.98792 0.10251 0.71597 0.0
C449 C 0.02352 0.11755 0.70865 0.0
C450 C 0.97607 0.05597 0.71658 0.0
C451 C -0.00033 0.02399 0.70946 0.0
C452 C 0.03591 0.03894 0.70211 0.0
C453 C 0.04782 0.0856 0.70191 0.0
C454 C 0.93809 0.04108 0.72475 0.0
C455 C 0.06128 0.00587 0.69425 0.0
C456 C -0.00251 0.89722 0.71676 0.0
C457 C 0.96313 0.88113 0.70921 0.0
C458 C 0.00888 0.94391 0.71717 0.0
C459 C 0.98613 0.97493 0.70961 0.0
C460 C 0.951 0.95894 0.70207 0.0
C461 C 0.93948 0.91218 0.70207 0.0
C462 C 0.04562 0.95993 0.72556 0.0
C463 C 0.9266 0.99096 0.69374 0.0
H464 H 0.9693 0.12722 0.72125 0.0
H465 H 0.07508 0.0973 0.69617 0.0
H466 H 0.90918 0.0264 0.71965 0.0
H467 H 0.95072 0.01375 0.73069 0.0
H468 H 0.92476 0.06995 0.73012 0.0
H469 H 0.08844 0.02308 0.68901 0.0
H470 H 0.07743 0.97835 0.69954 0.0
H471 H 0.0367 0.98911 0.68818 0.0
H472 H 0.01559 0.87319 0.72235 0.0
H473 H 0.9132 0.89964 0.69615 0.0
H474 H 0.0322 0.98814 0.73111 0.0
H475 H 0.07533 0.97378 0.7206 0.0
H476 H 0.05803 0.93184 0.73132 0.0
H477 H 0.90998 0.01926 0.69867 0.0
H478 H 0.89997 0.97309 0.68848 0.0
H479 H 0.9519 0.00678 0.6877 0.0
C480 C 0.58403 0.94498 0.32773 0.0
C481 C 0.61327 0.96973 0.32033 0.0
C482 C 0.5371 0.95553 0.32834 0.0
C483 C 0.51918 0.99071 0.32112 0.0
C484 C 0.5486 0.01556 0.31358 0.0
C485 C 0.59551 0.00512 0.31339 0.0
C486 C 0.50672 0.9291 0.33667 0.0
C487 C 0.53041 0.0525 0.30554 0.0
C488 C 0.39315 0.98614 0.31328 0.0
C489 C 0.37525 0.02149 0.32022 0.0
C490 C 0.44006 0.97571 0.31352 0.0
C491 C 0.46934 0.00053 0.3211 0.0
C492 C 0.45128 0.03567 0.32831 0.0
C493 C 0.40436 0.04622 0.32766 0.0
C494 C 0.45839 0.93879 0.30549 0.0
C495 C 0.48151 0.06207 0.33667 0.0
H496 H 0.598 0.9179 0.33318 0.0
H497 H 0.61818 0.02403 0.30761 0.0
H498 H 0.48813 0.95321 0.34251 0.0
H499 H 0.48044 0.90965 0.33169 0.0
H500 H 0.52654 0.90458 0.34213 0.0
H501 H 0.55798 0.06848 0.30019 0.0
H502 H 0.50423 0.03775 0.29957 0.0
H503 H 0.51325 0.07978 0.31072 0.0
H504 H 0.37058 0.96724 0.30747 0.0
H505 H 0.39029 0.07327 0.3331 0.0
H506 H 0.47544 0.91149 0.31067 0.0
H507 H 0.48469 0.95356 0.29955 0.0
H508 H 0.43092 0.92284 0.3001 0.0
H509 H 0.49998 0.03795 0.34253 0.0
H510 H 0.46159 0.08659 0.34213 0.0
H511 H 0.50789 0.08153 0.33173 0.0
C512 C 0.00692 0.89911 0.56391 0.0
C513 C 0.97182 0.88056 0.57084 0.0
C514 C 0.01693 0.94602 0.56425 0.0
C515 C 0.9919 0.97477 0.57192 0.0
C516 C 0.95701 0.9561 0.57912 0.0
C517 C 0.94692 0.9091 0.57838 0.0
C518 C 0.05362 0.96494 0.55623 0.0
C519 C 0.93035 0.98575 0.58757 0.0
C520 C 0.04707 0.08996 0.57819 0.0
C521 C 0.02234 0.11863 0.57064 0.0
C522 C 0.03639 0.04313 0.57903 0.0
C523 C 0.00104 0.02472 0.57194 0.0
C524 C 0.97598 0.05362 0.56432 0.0
C525 C 0.98662 0.10039 0.56387 0.0
C526 C 0.06313 0.01332 0.58742 0.0
C527 C 0.93879 0.03495 0.55642 0.0
H528 H 0.02599 0.87703 0.55801 0.0
H529 H 0.92009 0.89457 0.58382 0.0
H530 H 0.03843 0.99104 0.55031 0.0
H531 H 0.08073 0.98231 0.56141 0.0
H532 H 0.06997 0.93781 0.55081 0.0
H533 H 0.90625 0.96541 0.59304 0.0
H534 H 0.95438 0.00448 0.5934 0.0
H535 H 0.91035 0.01187 0.58268 0.0
H536 H 0.07436 0.10423 0.58352 0.0
H537 H 0.96764 0.12256 0.55798 0.0
H538 H 0.08323 0.98744 0.58247 0.0
H539 H 0.03919 0.99434 0.59323 0.0
H540 H 0.08718 0.03359 0.59292 0.0
H541 H 0.95366 0.00914 0.55036 0.0
H542 H 0.92205 0.06227 0.55114 0.0
H543 H 0.91205 0.01731 0.56167 0.0
C544 C 0.10743 0.51951 0.82543 0.0
C545 C 0.12031 0.47757 0.82042 0.0
C546 C 0.06109 0.53251 0.826 0.0
C547 C 0.02727 0.50351 0.82105 0.0
C548 C 0.04029 0.46141 0.81581 0.0
C549 C 0.08671 0.44855 0.81574 0.0
C550 C 0.04829 0.57686 0.83201 0.0
C551 C 0.00526 0.43021 0.81017 0.0
C552 C 0.90253 0.50959 0.83035 0.0
C553 C 0.88364 0.53613 0.82138 0.0
C554 C 0.94977 0.50038 0.83063 0.0
C555 C 0.97811 0.5168 0.82147 0.0
C556 C 0.95902 0.5442 0.81246 0.0
C557 C 0.91184 0.55413 0.81262 0.0
C558 C 0.96913 0.47227 0.84057 0.0
C559 C 0.98797 0.56131 0.8024 0.0
H560 H 0.13357 0.54172 0.82913 0.0
H561 H 0.09691 0.4163 0.81178 0.0
H562 H 0.03077 0.60013 0.82576 0.0
H563 H 0.02375 0.56985 0.83922 0.0
H564 H 0.07871 0.59492 0.83566 0.0
H565 H 0.02137 0.39979 0.80597 0.0
H566 H 0.98027 0.41809 0.81681 0.0
H567 H 0.98561 0.44939 0.80344 0.0
H568 H 0.88022 0.49581 0.83709 0.0
H569 H 0.89663 0.57423 0.80564 0.0
H570 H -0.00087 0.49002 0.8445 0.0
H571 H 0.98139 0.4387 0.83722 0.0
H572 H 0.94326 0.46585 0.84753 0.0
H573 H 0.01759 0.5814 0.80572 0.0
H574 H 0.96804 0.58315 0.79626 0.0
H575 H 0.00212 0.53165 0.79748 0.0
C576 C 0.49118 0.59858 0.06393 0.0
C577 C 0.5254 0.61791 0.071 0.0
C578 C 0.48124 0.55167 0.06451 0.0
C579 C 0.50537 0.5238 0.07256 0.0
C580 C 0.5392 0.54334 0.07994 0.0
C581 C 0.54931 0.59025 0.07895 0.0
C582 C 0.44574 0.53178 0.0563 0.0
C583 C 0.56483 0.51467 0.08879 0.0
C584 C 0.45048 0.40855 0.07894 0.0
C585 C 0.47647 0.37956 0.07175 0.0
C586 C 0.4606 0.45554 0.07965 0.0
C587 C 0.4967 0.47377 0.07277 0.0
C588 C 0.52311 0.44453 0.06553 0.0
C589 C 0.51297 0.39764 0.06522 0.0
C590 C 0.43241 0.48572 0.08764 0.0
C591 C 0.5612 0.46296 0.05787 0.0
H592 H 0.47288 0.61999 0.05773 0.0
H593 H 0.57543 0.60541 0.0845 0.0
H594 H 0.46192 0.50541 0.05064 0.0
H595 H 0.41816 0.51453 0.06136 0.0
H596 H 0.42982 0.55834 0.05063 0.0
H597 H 0.58781 0.53573 0.0944 0.0
H598 H 0.54012 0.49608 0.09447 0.0
H599 H 0.58591 0.48845 0.08424 0.0
H600 H 0.42254 0.39443 0.08409 0.0
H601 H 0.53294 0.37525 0.05959 0.0
H602 H 0.41266 0.5109 0.08238 0.0
H603 H 0.45534 0.50552 0.09353 0.0
H604 H 0.4079 0.46563 0.09305 0.0
H605 H 0.54693 0.48812 0.05155 0.0
H606 H 0.57894 0.4354 0.05289 0.0
H607 H 0.58701 0.4813 0.06326 0.0
C608 C 0.41239 0.45069 0.95922 0.0
C609 C 0.3801 0.4764 0.95298 0.0
C610 C 0.45888 0.46331 0.95922 0.0
C611 C 0.4733 0.50136 0.95243 0.0
C612 C 0.44079 0.52668 0.94587 0.0
C613 C 0.39427 0.51441 0.94642 0.0
C614 C 0.4924 0.43638 0.96661 0.0
C615 C 0.45519 0.56628 0.93818 0.0
C616 C 0.58702 0.55796 0.95985 0.0
C617 C 0.61688 0.53426 0.95242 0.0
C618 C 0.53991 0.54769 0.95994 0.0
C619 C 0.52256 0.51422 0.9521 0.0
C620 C 0.55258 0.49182 0.94421 0.0
C621 C 0.59969 0.50147 0.94464 0.0
C622 C 0.50911 0.57123 0.96872 0.0
C623 C 0.53509 0.45719 0.93544 0.0
H624 H 0.40102 0.42154 0.96436 0.0
H625 H 0.36901 0.53396 0.94154 0.0
H626 H 0.5186 0.41992 0.96095 0.0
H627 H 0.51084 0.45984 0.97265 0.0
H628 H 0.47515 0.40928 0.97185 0.0
H629 H 0.42577 0.58131 0.93331 0.0
H630 H 0.47124 0.59363 0.94354 0.0
H631 H 0.4814 0.55458 0.93178 0.0
H632 H 0.60084 0.58297 0.96593 0.0
H633 H 0.62321 0.48343 0.93888 0.0
H634 H 0.49349 0.54524 0.9746 0.0
H635 H 0.48054 0.58903 0.96418 0.0
H636 H 0.528 0.59666 0.97413 0.0
H637 H 0.52188 0.42646 0.94007 0.0
H638 H 0.56231 0.44608 0.92924 0.0
H639 H 0.5061 0.47191 0.93037 0.0
C640 C 0.48829 0.89961 0.21015 0.0
C641 C 0.52313 0.88088 0.20317 0.0
C642 C 0.47856 0.94658 0.20984 0.0
C643 C 0.5036 0.97521 0.20215 0.0
C644 C 0.53833 0.95639 0.19491 0.0
C645 C 0.54815 0.90932 0.19563 0.0
C646 C 0.44205 0.96566 0.21789 0.0
C647 C 0.565 0.98592 0.18645 0.0
C648 C 0.44791 0.09008 0.19585 0.0
C649 C 0.47249 0.11892 0.20338 0.0
C650 C 0.45888 0.04333 0.19499 0.0
C651 C 0.4944 0.02515 0.20207 0.0
C652 C 0.5194 0.05425 0.20966 0.0
C653 C 0.50844 0.10095 0.21012 0.0
C654 C 0.43219 0.01332 0.18664 0.0
C655 C 0.55678 0.03583 0.21754 0.0
H656 H 0.46915 0.87761 0.21605 0.0
H657 H 0.5748 0.89465 0.19015 0.0
H658 H 0.45733 0.99196 0.22374 0.0
H659 H 0.41478 0.98282 0.21272 0.0
H660 H 0.42589 0.93865 0.22338 0.0
H661 H 0.58923 0.96553 0.18102 0.0
H662 H 0.54096 0.00442 0.18057 0.0
H663 H 0.58485 0.01224 0.19131 0.0
H664 H 0.42044 0.10415 0.19054 0.0
H665 H 0.52734 0.12325 0.216 0.0
H666 H 0.41209 0.98755 0.19162 0.0
H667 H 0.45615 0.99422 0.18086 0.0
H668 H 0.40814 0.03346 0.18111 0.0
H669 H 0.54203 0.0102 0.22367 0.0
H670 H 0.57362 0.06331 0.22274 0.0
H671 H 0.5834 0.01802 0.21229 0.0
C672 C 0.90593 0.94746 0.44629 0.0
C673 C 0.87633 0.97218 0.4536 0.0
C674 C 0.95276 0.95846 0.4457 0.0
C675 C 0.97023 0.99407 0.45285 0.0
C676 C 0.94041 0.01904 0.46027 0.0
C677 C 0.8936 0.00814 0.46044 0.0
C678 C 0.98356 0.93186 0.43751 0.0
C679 C 0.95811 0.05648 0.46823 0.0
C680 C 0.09598 0.98916 0.46094 0.0
C681 C 0.11435 0.02391 0.45389 0.0
C682 C 0.04897 0.97924 0.46071 0.0
C683 C 0.02006 0.00392 0.45301 0.0
C684 C 0.03854 0.0386 0.44573 0.0
C685 C 0.08558 0.04868 0.44638 0.0
C686 C 0.03018 0.94282 0.46882 0.0
C687 C 0.00871 0.06483 0.43724 0.0
H688 H 0.89236 0.91995 0.44091 0.0
H689 H 0.87066 0.02705 0.46615 0.0
H690 H 0.00254 0.95583 0.43171 0.0
H691 H 0.0095 0.91242 0.44261 0.0
H692 H 0.96401 0.90729 0.43199 0.0
H693 H 0.9302 0.07283 0.47339 0.0
H694 H 0.98383 0.04205 0.47438 0.0
H695 H 0.97569 0.0834 0.46303 0.0
H696 H 0.1183 0.97026 0.46681 0.0
H697 H 0.10002 0.07527 0.44085 0.0
H698 H 0.01355 0.91515 0.46367 0.0
H699 H 0.00345 0.9579 0.47458 0.0
H700 H 0.05732 0.92729 0.47439 0.0
H701 H 0.99069 0.04056 0.43133 0.0
H702 H 0.02885 0.08936 0.43185 0.0
H703 H 0.98195 0.08423 0.44207 0.0
C704 C 0.98596 0.39915 0.7094 0.0
C705 C 0.02109 0.38032 0.70253 0.0
C706 C 0.9763 0.44613 0.70903 0.0
C707 C 0.0017 0.47467 0.70139 0.0
C708 C 0.03655 0.4557 0.69422 0.0
C709 C 0.04629 0.40864 0.69499 0.0
C710 C 0.93963 0.46536 0.71701 0.0
C711 C 0.06358 0.48512 0.68581 0.0
C712 C 0.94728 0.59023 0.69517 0.0
C713 C 0.97196 0.61865 0.70279 0.0
C714 C 0.95782 0.54339 0.69426 0.0
C715 C 0.99298 0.5247 0.70137 0.0
C716 C 0.0181 0.55338 0.70903 0.0
C717 C 0.00761 0.60018 0.70955 0.0
C718 C 0.93105 0.51384 0.68582 0.0
C719 C 0.0551 0.53441 0.71695 0.0
H720 H 0.96666 0.37725 0.71529 0.0
H721 H 0.07316 0.3939 0.6896 0.0
H722 H 0.95495 0.49131 0.72296 0.0
H723 H 0.91277 0.48297 0.7118 0.0
H724 H 0.92294 0.43836 0.7224 0.0
H725 H 0.08752 0.46455 0.68034 0.0
H726 H 0.03981 0.50414 0.67997 0.0
H727 H 0.08383 0.51099 0.69072 0.0
H728 H 0.92005 0.60468 0.68985 0.0
H729 H 0.02657 0.62215 0.71549 0.0
H730 H 0.91051 0.48819 0.69073 0.0
H731 H 0.95496 0.49458 0.68007 0.0
H732 H 0.90738 0.53435 0.68027 0.0
H733 H 0.03996 0.50877 0.723 0.0
H734 H 0.07206 0.56161 0.72222 0.0
H735 H 0.0817 0.5165 0.71171 0.0
C736 C 0.27149 0.11713 0.36206 0.0
C737 C 0.24273 0.08755 0.35576 0.0
C738 C 0.27369 0.11512 0.37431 0.0
C739 C 0.24508 0.08397 0.38043 0.0
C740 C 0.21565 0.05421 0.37409 0.0
C741 C 0.21552 0.05573 0.36179 0.0
C742 C 0.30664 0.14638 0.38069 0.0
C743 C 0.18347 0.02168 0.3803 0.0
C744 C 0.2738 0.05504 0.4121 0.0
C745 C 0.24743 0.08754 0.41813 0.0
C746 C 0.27356 0.05349 0.3998 0.0
C747 C 0.24485 0.08396 0.39347 0.0
C748 C 0.21705 0.11582 0.39959 0.0
C749 C 0.21937 0.11781 0.41184 0.0
C750 C 0.30488 0.02015 0.39358 0.0
C751 C 0.18487 0.14789 0.39322 0.0
H752 H 0.29299 0.14135 0.35737 0.0
H753 H 0.19315 0.033 0.35689 0.0
H754 H 0.28719 0.17113 0.38615 0.0
H755 H 0.32878 0.12602 0.38666 0.0
H756 H 0.329 0.16601 0.37461 0.0
H757 H 0.16263 0.00097 0.3741 0.0
H758 H 0.20322 -0.00198 0.38599 0.0
H759 H 0.15984 0.04139 0.38603 0.0
H760 H 0.29563 0.03177 0.41699 0.0
H761 H 0.19852 0.14257 0.41654 0.0
H762 H 0.32901 0.03926 0.38785 0.0
H763 H 0.28453 -0.00298 0.38789 0.0
H764 H 0.32518 -0.00111 0.39978 0.0
H765 H 0.20492 0.17217 0.38776 0.0
H766 H 0.16301 0.16804 0.39931 0.0
H767 H 0.16224 0.12809 0.38725 0.0
C768 C 0.88048 0.71657 0.6127 0.0
C769 C 0.9102 0.74371 0.60599 0.0
C770 C 0.88206 0.71773 0.62497 0.0
C771 C 0.91284 0.74814 0.63065 0.0
C772 C 0.94284 0.77576 0.62388 0.0
C773 C 0.94174 0.77256 0.61161 0.0
C774 C 0.85059 0.68659 0.63185 0.0
C775 C 0.97501 0.80974 0.62957 0.0
C776 C 0.87844 0.78209 0.66155 0.0
C777 C 0.90872 0.7558 0.66831 0.0
C778 C 0.88059 0.78121 0.64928 0.0
C779 C 0.91258 0.7519 0.64365 0.0
C780 C 0.94322 0.72521 0.65047 0.0
C781 C 0.94147 0.72814 0.66273 0.0
C782 C 0.84837 0.81137 0.64234 0.0
C783 C 0.97673 0.69239 0.64483 0.0
H784 H 0.85626 0.69408 0.60833 0.0
H785 H 0.96435 0.79395 0.6064 0.0
H786 H 0.87077 0.66638 0.63828 0.0
H787 H 0.82545 0.70742 0.63686 0.0
H788 H 0.83135 0.66247 0.62614 0.0
H789 H 0.99608 0.82872 0.62306 0.0
H790 H 0.9549 0.8349 0.63476 0.0
H791 H -0.00159 0.79183 0.63571 0.0
H792 H 0.85327 0.80367 0.66588 0.0
H793 H 0.96453 0.70738 0.66798 0.0
H794 H 0.82402 0.78977 0.6373 0.0
H795 H 0.86809 0.83219 0.63595 0.0
H796 H 0.82824 0.83488 0.64803 0.0
H797 H 0.95765 0.66653 0.63961 0.0
H798 H -0.00172 0.67417 0.65137 0.0
H799 H -0.00036 0.7111 0.63872 0.0
C800 C 0.27941 0.42991 0.86172 0.0
C801 C 0.2502 0.40009 0.85563 0.0
C802 C 0.2798 0.43069 0.87402 0.0
C803 C 0.24895 0.40228 0.88032 0.0
C804 C 0.21857 0.37298 0.87416 0.0
C805 C 0.2202 0.37162 0.8619 0.0
C806 C 0.3138 0.46121 0.88026 0.0
C807 C 0.18413 0.34326 0.88052 0.0
C808 C 0.27392 0.36835 0.91179 0.0
C809 C 0.24789 0.40048 0.91807 0.0
C810 C 0.27547 0.36933 0.89952 0.0
C811 C 0.24908 0.40226 0.89336 0.0
C812 C 0.22218 0.4344 0.89967 0.0
C813 C 0.22256 0.43364 0.91197 0.0
C814 C 0.30565 0.33533 0.89315 0.0
C815 C 0.19242 0.46907 0.89343 0.0
H816 H 0.30275 0.45177 0.85686 0.0
H817 H 0.19719 0.34895 0.85718 0.0
H818 H 0.29536 0.48619 0.88588 0.0
H819 H 0.33593 0.44019 0.88607 0.0
H820 H 0.33611 0.48046 0.87409 0.0
H821 H 0.1611 0.32453 0.87442 0.0
H822 H 0.20232 0.31781 0.88605 0.0
H823 H 0.16275 0.3647 0.88642 0.0
H824 H 0.29399 0.34301 0.9165 0.0
H825 H 0.20226 0.45838 0.91682 0.0
H826 H 0.32971 0.35377 0.88727 0.0
H827 H 0.28425 0.31256 0.88761 0.0
H828 H 0.32597 0.31365 0.89925 0.0
H829 H 0.21397 0.49151 0.88784 0.0
H830 H 0.17274 0.49098 0.89961 0.0
H831 H 0.1678 0.4511 0.8876 0.0
C832 C 0.61594 0.78248 0.11237 0.0
C833 C 0.586 0.75586 0.10559 0.0
C834 C 0.61373 0.78154 0.12463 0.0
C835 C 0.58204 0.75187 0.13024 0.0
C836 C 0.55176 0.72483 0.12341 0.0
C837 C 0.55355 0.7278 0.11115 0.0
C838 C 0.64556 0.81205 0.13159 0.0
C839 C 0.51857 0.69164 0.12903 0.0
C840 C 0.61414 0.71687 0.16122 0.0
C841 C 0.58407 0.7437 0.16791 0.0
C842 C 0.61272 0.71803 0.14895 0.0
C843 C 0.58169 0.74813 0.14325 0.0
C844 C 0.55134 0.77544 0.15 0.0
C845 C 0.55232 0.77225 0.16226 0.0
C846 C 0.6446 0.68724 0.14208 0.0
C847 C 0.51886 0.80906 0.14428 0.0
H848 H 0.64088 0.80436 0.10805 0.0
H849 H 0.53076 0.70679 0.10589 0.0
H850 H 0.62556 0.8327 0.13797 0.0
H851 H 0.67007 0.79072 0.13665 0.0
H852 H 0.66553 0.83574 0.12592 0.0
H853 H 0.49731 0.67314 0.12248 0.0
H854 H 0.53789 0.66602 0.13426 0.0
H855 H 0.49537 0.71011 0.13511 0.0
H856 H 0.63852 0.69459 0.1656 0.0
H857 H 0.52942 0.7934 0.16746 0.0
H858 H 0.66952 0.70834 0.13709 0.0
H859 H 0.6247 0.66676 0.13565 0.0
H860 H 0.66409 0.66337 0.14781 0.0
H861 H 0.53876 0.83441 0.1391 0.0
H862 H 0.49755 0.82785 0.15077 0.0
H863 H 0.49569 0.79089 0.13813 0.0
C864 C 0.77374 0.56318 0.86169 0.0
C865 C 0.74438 0.59363 0.85585 0.0
C866 C 0.77694 0.56336 0.87395 0.0
C867 C 0.74885 0.59356 0.88052 0.0
C868 C 0.71834 0.62367 0.87465 0.0
C869 C 0.71711 0.62394 0.86236 0.0
C870 C 0.81097 0.53181 0.87985 0.0
C871 C 0.68675 0.65533 0.88134 0.0
C872 C 0.7276 0.56282 0.9124 0.0
C873 C 0.75555 0.59466 0.91821 0.0
C874 C 0.72457 0.56251 0.90014 0.0
C875 C 0.75142 0.59373 0.89354 0.0
C876 C 0.78056 0.62524 0.89939 0.0
C877 C 0.78161 0.6259 0.91167 0.0
C878 C 0.69199 0.5294 0.89427 0.0
C879 C 0.81083 0.65807 0.89267 0.0
H880 H 0.79524 0.5401 0.85664 0.0
H881 H 0.69422 0.64732 0.85784 0.0
H882 H 0.83491 0.55216 0.88535 0.0
H883 H 0.7927 0.50765 0.88573 0.0
H884 H 0.83142 0.51159 0.87346 0.0
H885 H 0.66355 0.67502 0.87548 0.0
H886 H 0.66547 0.6352 0.88755 0.0
H887 H 0.70725 0.67998 0.88657 0.0
H888 H 0.70702 0.53899 0.91747 0.0
H889 H 0.80342 0.65036 0.91618 0.0
H890 H 0.71132 0.506 0.88841 0.0
H891 H 0.66717 0.54859 0.88876 0.0
H892 H 0.67247 0.50837 0.90068 0.0
H893 H 0.83292 0.63873 0.88647 0.0
H894 H 0.83319 0.67878 0.89851 0.0
H895 H 0.78934 0.68178 0.88741 0.0
C896 C 0.44098 0.22612 0.16301 0.0
C897 C 0.40851 0.25429 0.16853 0.0
C898 C 0.44282 0.22296 0.15076 0.0
C899 C 0.41263 0.24995 0.14389 0.0
C900 C 0.38087 0.27968 0.14946 0.0
C901 C 0.37857 0.28077 0.16172 0.0
C902 C 0.47603 0.18968 0.14518 0.0
C903 C 0.34915 0.31015 0.14247 0.0
C904 C 0.44308 0.27056 0.11194 0.0
C905 C 0.41134 0.2422 0.10622 0.0
C906 C 0.44383 0.27358 0.1242 0.0
C907 C 0.41327 0.24626 0.13089 0.0
C908 C 0.3823 0.21629 0.12512 0.0
C909 C 0.38108 0.21533 0.11285 0.0
C910 C 0.47623 0.30711 0.12999 0.0
C911 C 0.35024 0.18546 0.13192 0.0
H912 H 0.46376 0.20522 0.1683 0.0
H913 H 0.35363 0.30273 0.16601 0.0
H914 H 0.45677 0.16418 0.13989 0.0
H915 H 0.49948 0.20812 0.13915 0.0
H916 H 0.49704 0.17106 0.15176 0.0
H917 H 0.32904 0.33382 0.14811 0.0
H918 H 0.36927 0.33084 0.13612 0.0
H919 H 0.32478 0.28882 0.13736 0.0
H920 H 0.4661 0.29175 0.10679 0.0
H921 H 0.35669 0.19323 0.1084 0.0
H922 H 0.4992 0.28887 0.13617 0.0
H923 H 0.45624 0.33247 0.13515 0.0
H924 H 0.49774 0.3259 0.12354 0.0
H925 H 0.36995 0.165 0.13839 0.0
H926 H 0.33096 0.16158 0.12615 0.0
H927 H 0.32514 0.20653 0.13687 0.0
C928 C 0.71854 0.87282 0.36221 0.0
C929 C 0.7463 0.90313 0.35584 0.0
C930 C 0.71676 0.87475 0.37447 0.0
C931 C 0.74478 0.90663 0.38052 0.0
C932 C 0.77319 0.93714 0.37411 0.0
C933 C 0.77293 0.93562 0.36181 0.0
C934 C 0.68488 0.84263 0.38093 0.0
C935 C 0.80473 0.97051 0.38024 0.0
C936 C 0.71659 0.93493 0.41227 0.0
C937 C 0.74412 0.90323 0.41824 0.0
C938 C 0.71624 0.93638 0.39997 0.0
C939 C 0.74548 0.90665 0.39356 0.0
C940 C 0.7744 0.8756 0.39961 0.0
C941 C 0.7727 0.87367 0.41187 0.0
C942 C 0.68377 0.96883 0.39384 0.0
C943 C 0.80715 0.84436 0.39315 0.0
H944 H 0.69748 0.84808 0.35758 0.0
H945 H 0.79454 0.95892 0.35687 0.0
H946 H 0.70519 0.81844 0.38635 0.0
H947 H 0.66241 0.86241 0.38695 0.0
H948 H 0.66286 0.82239 0.3749 0.0
H949 H 0.82479 0.99176 0.37399 0.0
H950 H 0.78455 0.99365 0.38598 0.0
H951 H 0.82906 0.95143 0.38592 0.0
H952 H 0.69435 0.95764 0.41721 0.0
H953 H 0.79445 0.84954 0.41651 0.0
H954 H 0.65998 0.94906 0.38816 0.0
H955 H 0.70327 0.99252 0.38809 0.0
H956 H 0.66311 0.98952 0.40008 0.0
H957 H 0.78753 0.8196 0.38774 0.0
H958 H 0.82973 0.82475 0.39918 0.0
H959 H 0.82906 0.86474 0.38714 0.0
C960 C 0.05173 0.27116 0.66214 0.0
C961 C 0.08315 0.24233 0.66781 0.0
C962 C 0.05086 0.2743 0.64988 0.0
C963 C 0.08097 0.24663 0.64316 0.0
C964 C 0.11161 0.21621 0.64888 0.0
C965 C 0.11297 0.21512 0.66115 0.0
C966 C 0.01882 0.30828 0.64414 0.0
C967 C 0.14319 0.18503 0.64204 0.0
C968 C 0.05269 0.2269 0.61104 0.0
C969 C 0.08543 0.25468 0.60551 0.0
C970 C 0.0509 0.22376 0.6233 0.0
C971 C 0.08149 0.25038 0.63016 0.0
C972 C 0.11354 0.27973 0.62457 0.0
C973 C 0.11573 0.28082 0.6123 0.0
C974 C 0.01733 0.1909 0.6289 0.0
C975 C 0.14572 0.30979 0.63155 0.0
H976 H 0.02905 0.29262 0.66732 0.0
H977 H 0.13711 0.19265 0.66556 0.0
H978 H 0.03907 0.33342 0.63898 0.0
H979 H 0.99554 0.29037 0.63797 0.0
H980 H -0.00236 0.32729 0.65062 0.0
H981 H 0.16228 0.16089 0.64778 0.0
H982 H 0.12313 0.16483 0.63558 0.0
H983 H 0.16847 0.20582 0.63707 0.0
H984 H 0.02961 0.20626 0.60577 0.0
H985 H 0.14089 0.30249 0.608 0.0
H986 H 0.99422 0.20961 0.63496 0.0
H987 H 0.03632 0.16511 0.63416 0.0
H988 H 0.99598 0.17259 0.62233 0.0
H989 H 0.12593 0.3307 0.63791 0.0
H990 H 0.16606 0.33322 0.62589 0.0
H991 H 0.16988 0.28814 0.63663 0.0
C992 C 0.26842 0.19153 0.28765 0.0
C993 C 0.26513 0.14403 0.28956 0.0
C994 C 0.28195 0.20909 0.27672 0.0
C995 C 0.29257 0.17847 0.26749 0.0
C996 C 0.28805 0.13058 0.26927 0.0
C997 C 0.27434 0.11396 0.28026 0.0
C998 C 0.28614 0.26038 0.27516 0.0
C999 C 0.29904 0.09675 0.25966 0.0
C1000 C 0.2985 0.22039 0.23596 0.0
C1001 C 0.3461 0.2247 0.23426 0.0
C1002 C 0.28046 0.20633 0.2468 0.0
C1003 C 0.31071 0.19622 0.25615 0.0
C1004 C 0.3587 0.2015 0.25456 0.0
C1005 C 0.37577 0.2157 0.24366 0.0
C1006 C 0.22909 0.2013 0.24817 0.0
C1007 C 0.39216 0.19109 0.26431 0.0
H1008 H 0.2613 0.21508 0.29476 0.0
H1009 H 0.27189 0.07723 0.28163 0.0
H1010 H 0.3226 0.26961 0.27355 0.0
H1011 H 0.26619 0.27166 0.26741 0.0
H1012 H 0.27382 0.27964 0.28294 0.0
H1013 H 0.29162 0.06076 0.26225 0.0
H1014 H 0.27888 0.10494 0.25169 0.0
H1015 H 0.33595 0.09936 0.25729 0.0
H1016 H 0.27526 0.22729 0.22877 0.0
H1017 H 0.41259 0.21892 0.24246 0.0
H1018 H 0.21694 0.22155 0.25578 0.0
H1019 H 0.22038 0.16485 0.2499 0.0
H1020 H 0.21009 0.21272 0.24026 0.0
H1021 H 0.38352 0.21164 0.27218 0.0
H1022 H 0.4283 0.19847 0.26179 0.0
H1023 H 0.38952 0.15437 0.26679 0.0
C1024 C 0.777 0.87842 0.49377 0.0
C1025 C 0.76887 0.84803 0.48448 0.0
C1026 C 0.79087 0.8623 0.5048 0.0
C1027 C 0.79669 0.81456 0.50661 0.0
C1028 C 0.78725 0.78358 0.49738 0.0
C1029 C 0.7735 0.80067 0.48642 0.0
C1030 C 0.80057 0.8965 0.51441 0.0
C1031 C 0.79287 0.73245 0.49898 0.0
C1032 C 0.87986 0.78003 0.5307 0.0
C1033 C 0.85004 0.77037 0.54004 0.0
C1034 C 0.86288 0.79353 0.51973 0.0
C1035 C 0.81484 0.79742 0.51801 0.0
C1036 C 0.78447 0.7866 0.52729 0.0
C1037 C 0.80241 0.77326 0.53819 0.0
C1038 C 0.89647 0.80474 0.51007 0.0
C1039 C 0.73304 0.79014 0.52578 0.0
H1040 H 0.77351 0.91506 0.49239 0.0
H1041 H 0.76724 0.77687 0.47931 0.0
H1042 H 0.78029 0.88786 0.52233 0.0
H1043 H 0.83743 0.89487 0.51687 0.0
H1044 H 0.79232 0.93225 0.51177 0.0
H1045 H 0.78149 0.71278 0.49117 0.0
H1046 H 0.82951 0.7243 0.50069 0.0
H1047 H 0.77289 0.72064 0.50667 0.0
H1048 H 0.9167 0.77791 0.53201 0.0
H1049 H 0.77906 0.76583 0.54533 0.0
H1050 H 0.89297 0.84137 0.50756 0.0
H1051 H 0.88871 0.78392 0.50219 0.0
H1052 H 0.93268 0.79834 0.51268 0.0
H1053 H 0.72337 0.82631 0.524 0.0
H1054 H 0.71402 0.77823 0.53364 0.0
H1055 H 0.72182 0.76949 0.51814 0.0
C1056 C 0.11275 0.2831 0.74291 0.0
C1057 C 0.14266 0.27307 0.73362 0.0
C1058 C 0.12961 0.29748 0.75382 0.0
C1059 C 0.17761 0.30193 0.75552 0.0
C1060 C 0.20808 0.29104 0.74627 0.0
C1061 C 0.19026 0.27677 0.73543 0.0
C1062 C 0.09594 0.30868 0.76347 0.0
C1063 C 0.25947 0.29519 0.74776 0.0
C1064 C 0.21529 0.38208 0.77999 0.0
C1065 C 0.22364 0.35122 0.78917 0.0
C1066 C 0.20134 0.36643 0.76892 0.0
C1067 C 0.19566 0.31876 0.76695 0.0
C1068 C 0.20526 0.28736 0.77608 0.0
C1069 C 0.21908 0.30395 0.78707 0.0
C1070 C 0.19148 0.40103 0.75941 0.0
C1071 C 0.19976 0.23628 0.77433 0.0
H1072 H 0.07594 0.28041 0.74162 0.0
H1073 H 0.21368 0.26914 0.72832 0.0
H1074 H 0.10351 0.28763 0.77132 0.0
H1075 H 0.09957 0.34522 0.76604 0.0
H1076 H 0.05973 0.30249 0.76082 0.0
H1077 H 0.27858 0.28403 0.73984 0.0
H1078 H 0.2687 0.33136 0.74969 0.0
H1079 H 0.271 0.27418 0.7553 0.0
H1080 H 0.2187 0.41864 0.78151 0.0
H1081 H 0.22554 0.27978 0.79408 0.0
H1082 H 0.15461 0.39941 0.75697 0.0
H1083 H 0.21172 0.39278 0.75146 0.0
H1084 H 0.19967 0.43668 0.76216 0.0
H1085 H 0.16319 0.22813 0.77253 0.0
H1086 H 0.21099 0.21629 0.78209 0.0
H1087 H 0.21996 0.22483 0.76664 0.0
C1088 C 0.73037 0.6913 0.98694 0.0
C1089 C 0.73186 0.64389 0.98476 0.0
C1090 C 0.71638 0.7085 0.99787 0.0
C1091 C 0.70361 0.67759 1.00685 0.0
C1092 C 0.70633 0.6297 1.00482 0.0
C1093 C 0.72037 0.61344 0.99381 0.0
C1094 C 0.71397 0.75978 0.99968 0.0
C1095 C 0.69317 0.59558 0.01418 0.0
C1096 C 0.69698 0.7184 0.03847 0.0
C1097 C 0.64947 0.72453 0.03997 0.0
C1098 C 0.71522 0.70382 0.0277 0.0
C1099 C 0.68527 0.69522 0.01818 0.0
C1100 C 0.63742 0.70233 0.01957 0.0
C1101 C 0.62013 0.71684 0.03043 0.0
C1102 C 0.76643 0.69667 0.02657 0.0
C1103 C 0.60432 0.69373 1.00963 0.0
H1104 H 0.73918 0.71516 0.98002 0.0
H1105 H 0.72142 0.57677 0.99224 0.0
H1106 H 0.67777 0.77022 1.00118 0.0
H1107 H 0.7338 0.76972 1.00756 0.0
H1108 H 0.72752 0.77918 0.99205 0.0
H1109 H 0.69949 0.55954 1.01144 0.0
H1110 H 0.71286 0.6024 0.02231 0.0
H1111 H 0.65618 0.5994 0.01634 0.0
H1112 H 0.71996 0.72418 0.04578 0.0
H1113 H 0.5834 0.72149 0.03147 0.0
H1114 H 0.78006 0.71705 0.01914 0.0
H1115 H 0.7737 0.66004 0.02466 0.0
H1116 H 0.78524 0.70658 0.03464 0.0
H1117 H 0.6143 0.7144 1.00189 0.0
H1118 H 0.5683 0.70232 0.01201 0.0
H1119 H 0.60575 0.65709 1.00701 0.0
C1120 C 0.38362 0.28419 0.0311 0.0
C1121 C 0.35338 0.27512 0.04039 0.0
C1122 C 0.36722 0.2988 0.02017 0.0
C1123 C 0.31937 0.3045 0.01844 0.0
C1124 C 0.28857 0.29467 0.0277 0.0
C1125 C 0.30592 0.28011 0.03856 0.0
C1126 C 0.40124 0.30881 1.01052 0.0
C1127 C 0.23732 0.30021 0.02618 0.0
C1128 C 0.28384 0.38465 0.99376 0.0
C1129 C 0.27463 0.35365 0.98466 0.0
C1130 C 0.29741 0.36908 1.00487 0.0
C1131 C 0.30183 0.32136 1.00696 0.0
C1132 C 0.29141 0.28986 0.99791 0.0
C1133 C 0.27798 0.30636 0.98688 0.0
C1134 C 0.30817 0.40379 0.01429 0.0
C1135 C 0.29558 0.23872 0.99979 0.0
H1136 H 0.42033 0.28049 0.03241 0.0
H1137 H 0.28226 0.27326 0.04567 0.0
H1138 H 0.39321 0.28767 1.00271 0.0
H1139 H 0.39853 0.34534 1.00786 0.0
H1140 H 0.43726 0.30182 0.0132 0.0
H1141 H 0.21787 0.28997 0.03413 0.0
H1142 H 0.22912 0.33653 0.02413 0.0
H1143 H 0.22522 0.27917 0.0187 0.0
H1144 H 0.28136 0.42122 0.99214 0.0
H1145 H 0.27086 0.28207 0.97994 0.0
H1146 H 0.34498 0.40128 0.01675 0.0
H1147 H 0.28769 0.39641 0.02225 0.0
H1148 H 0.30095 0.43953 1.01145 0.0
H1149 H 0.33191 0.22971 1.00164 0.0
H1150 H 0.28393 0.21872 0.99207 0.0
H1151 H 0.27499 0.2281 1.0075 0.0
C1152 C 0.71511 0.87773 0.28026 0.0
C1153 C 0.72325 0.84745 0.28958 0.0
C1154 C 0.70156 0.86144 0.26922 0.0
C1155 C 0.69604 0.81366 0.26742 0.0
C1156 C 0.70553 0.7828 0.27668 0.0
C1157 C 0.71898 0.80004 0.28764 0.0
C1158 C 0.69182 0.89552 0.25959 0.0
C1159 C 0.70022 0.73162 0.27509 0.0
C1160 C 0.61327 0.77883 0.24328 0.0
C1161 C 0.64323 0.76936 0.23396 0.0
C1162 C 0.63009 0.7923 0.25426 0.0
C1163 C 0.6781 0.79636 0.25602 0.0
C1164 C 0.70861 0.78567 0.24676 0.0
C1165 C 0.69083 0.77234 0.23584 0.0
C1166 C 0.59636 0.80334 0.26391 0.0
C1167 C 0.76001 0.78941 0.2483 0.0
H1168 H 0.71834 0.91439 0.28164 0.0
H1169 H 0.72524 0.77633 0.29477 0.0
H1170 H 0.71223 0.88691 0.25169 0.0
H1171 H 0.655 0.89372 0.2571 0.0
H1172 H 0.69989 0.93133 0.26222 0.0
H1173 H 0.71169 0.71207 0.28291 0.0
H1174 H 0.66364 0.72325 0.27337 0.0
H1175 H 0.7203 0.71988 0.26741 0.0
H1176 H 0.57645 0.77661 0.24194 0.0
H1177 H 0.71428 0.76506 0.22871 0.0
H1178 H 0.5996 0.84 0.2664 0.0
H1179 H 0.60419 0.78261 0.2718 0.0
H1180 H 0.5602 0.79668 0.26128 0.0
H1181 H 0.76952 0.82564 0.25005 0.0
H1182 H 0.77915 0.77745 0.24047 0.0
H1183 H 0.77121 0.76891 0.25597 0.0
C1184 C 0.22432 0.19192 0.48628 0.0
C1185 C 0.22725 0.1444 0.48437 0.0
C1186 C 0.21112 0.20962 0.49722 0.0
C1187 C 0.20048 0.1791 0.50647 0.0
C1188 C 0.20473 0.13118 0.5047 0.0
C1189 C 0.21809 0.11443 0.49369 0.0
C1190 C 0.20722 0.26094 0.49877 0.0
C1191 C 0.19373 0.09746 0.51434 0.0
C1192 C 0.1949 0.22108 0.538 0.0
C1193 C 0.14731 0.22547 0.53973 0.0
C1194 C 0.21283 0.20701 0.52715 0.0
C1195 C 0.18249 0.19699 0.51781 0.0
C1196 C 0.13453 0.20241 0.51942 0.0
C1197 C 0.11756 0.2166 0.53033 0.0
C1198 C 0.26418 0.20181 0.52576 0.0
C1199 C 0.10098 0.19212 0.50969 0.0
H1200 H 0.2314 0.2154 0.47915 0.0
H1201 H 0.22028 0.07768 0.49233 0.0
H1202 H 0.1708 0.27037 0.50037 0.0
H1203 H 0.22722 0.27215 0.50652 0.0
H1204 H 0.21965 0.28009 0.49099 0.0
H1205 H 0.20105 0.06143 0.51175 0.0
H1206 H 0.21397 0.10566 0.52229 0.0
H1207 H 0.15685 0.10018 0.51671 0.0
H1208 H 0.2182 0.22787 0.54519 0.0
H1209 H 0.08076 0.2199 0.53155 0.0
H1210 H 0.27633 0.22193 0.51813 0.0
H1211 H 0.27276 0.16532 0.52406 0.0
H1212 H 0.28326 0.21329 0.53365 0.0
H1213 H 0.10968 0.21259 0.50181 0.0
H1214 H 0.06488 0.19969 0.51221 0.0
H1215 H 0.10342 0.15537 0.50721 0.0
C1216 C 0.87528 0.71586 0.74347 0.0
C1217 C 0.84586 0.72269 0.7339 0.0
C1218 C 0.85823 0.70111 0.75433 0.0
C1219 C 0.81055 0.69285 0.75569 0.0
C1220 C 0.78051 0.70051 0.74614 0.0
C1221 C 0.7985 0.71538 0.73537 0.0
C1222 C 0.89143 0.69355 0.7643 0.0
C1223 C 0.72949 0.69209 0.74724 0.0
C1224 C 0.77732 0.61093 0.78019 0.0
C1225 C 0.76505 0.64134 0.78919 0.0
C1226 C 0.79099 0.6272 0.76916 0.0
C1227 C 0.79252 0.67509 0.76704 0.0
C1228 C 0.77891 0.70593 0.77596 0.0
C1229 C 0.76531 0.68871 0.78692 0.0
C1230 C 0.80506 0.59315 0.75986 0.0
C1231 C 0.78004 0.7572 0.77406 0.0
H1232 H 0.91189 0.72143 0.74245 0.0
H1233 H 0.77547 0.72047 0.72804 0.0
H1234 H 0.88088 0.71419 0.772 0.0
H1235 H 0.89082 0.65696 0.76698 0.0
H1236 H 0.92726 0.70292 0.76193 0.0
H1237 H 0.71054 0.70126 0.73914 0.0
H1238 H 0.72313 0.65535 0.74922 0.0
H1239 H 0.71524 0.71234 0.75462 0.0
H1240 H 0.77722 0.57429 0.78184 0.0
H1241 H 0.75589 0.71254 0.79379 0.0
H1242 H 0.84199 0.59775 0.75774 0.0
H1243 H 0.78535 0.5993 0.75171 0.0
H1244 H 0.79952 0.55706 0.76266 0.0
H1245 H 0.81599 0.76851 0.77257 0.0
H1246 H 0.7659 0.77647 0.78163 0.0
H1247 H 0.76008 0.76641 0.76614 0.0
loop_
_geom_bond_atom_site_label_1
_geom_bond_atom_site_label_2
_geom_bond_distance
_geom_bond_site_symmetry_2
_ccdc_geom_bond_type
C0 O2 1.247 . S
C0 O4 1.258 . S
C1 O8 1.247 . S
C1 O9 1.258 . S
O2 C0 1.247 . S
O2 Zn3 2.028 . S
Zn3 O2 2.028 . S
Zn3 O7 2.035 . S
Zn3 O9 2.035 . S
Zn3 O10 2.028 . S
O4 C0 1.258 . S
O4 Zn5 2.035 . S
Zn5 O4 2.035 . S
Zn5 O6 2.028 . S
Zn5 O8 2.028 . S
Zn5 O11 2.035 . S
O6 Zn5 2.028 . S
O6 C12 1.247 . S
O7 Zn3 2.035 . S
O7 C12 1.258 . S
O8 C1 1.247 . S
O8 Zn5 2.028 . S
O9 C1 1.258 . S
O9 Zn3 2.035 . S
O10 Zn3 2.028 . S
O10 C13 1.247 . S
O11 Zn5 2.035 . S
O11 C13 1.258 . S
C12 O6 1.247 . S
C12 O7 1.258 . S
C13 O10 1.247 . S
C13 O11 1.258 . S
C14 O16 1.247 . S
C14 O18 1.258 . S
C15 O22 1.247 . S
C15 O23 1.258 . S
O16 C14 1.247 . S
O16 Zn17 2.028 . S
Zn17 O16 2.028 . S
Zn17 O21 2.035 . S
Zn17 O23 2.035 . S
Zn17 O24 2.028 . S
O18 C14 1.258 . S
O18 Zn19 2.035 . S
Zn19 O18 2.035 . S
Zn19 O20 2.028 . S
Zn19 O22 2.028 . S
Zn19 O25 2.035 . S
O20 Zn19 2.028 . S
O20 C26 1.247 . S
O21 Zn17 2.035 . S
O21 C26 1.258 . S
O22 C15 1.247 . S
O22 Zn19 2.028 . S
O23 C15 1.258 . S
O23 Zn17 2.035 . S
O24 Zn17 2.028 . S
O24 C27 1.247 . S
O25 Zn19 2.035 . S
O25 C27 1.258 . S
C26 O20 1.247 . S
C26 O21 1.258 . S
C27 O24 1.247 . S
C27 O25 1.258 . S
C28 O30 1.247 . S
C28 O32 1.258 . S
C29 O36 1.247 . S
C29 O37 1.258 . S
O30 C28 1.247 . S
O30 Zn31 2.028 . S
Zn31 O30 2.028 . S
Zn31 O35 2.035 . S
Zn31 O37 2.035 . S
Zn31 O38 2.028 . S
O32 C28 1.258 . S
O32 Zn33 2.035 . S
Zn33 O32 2.035 . S
Zn33 O34 2.028 . S
Zn33 O36 2.028 . S
Zn33 O39 2.035 . S
O34 Zn33 2.028 . S
O34 C40 1.247 . S
O35 Zn31 2.035 . S
O35 C40 1.258 . S
O36 C29 1.247 . S
O36 Zn33 2.028 . S
O37 C29 1.258 . S
O37 Zn31 2.035 . S
O38 Zn31 2.028 . S
O38 C41 1.247 . S
O39 Zn33 2.035 . S
O39 C41 1.258 . S
C40 O34 1.247 . S
C40 O35 1.258 . S
C41 O38 1.247 . S
C41 O39 1.258 . S
C42 O44 1.247 . S
C42 O46 1.258 . S
C43 O50 1.247 . S
C43 O51 1.258 . S
O44 C42 1.247 . S
O44 Zn45 2.028 . S
Zn45 O44 2.028 . S
Zn45 O49 2.035 . S
Zn45 O51 2.035 . S
Zn45 O52 2.028 . S
O46 C42 1.258 . S
O46 Zn47 2.035 . S
Zn47 O46 2.035 . S
Zn47 O48 2.028 . S
Zn47 O50 2.028 . S
Zn47 O53 2.035 . S
O48 Zn47 2.028 . S
O48 C54 1.247 . S
O49 Zn45 2.035 . S
O49 C54 1.258 . S
O50 C43 1.247 . S
O50 Zn47 2.028 . S
O51 C43 1.258 . S
O51 Zn45 2.035 . S
O52 Zn45 2.028 . S
O52 C55 1.247 . S
O53 Zn47 2.035 . S
O53 C55 1.258 . S
C54 O48 1.247 . S
C54 O49 1.258 . S
C55 O52 1.247 . S
C55 O53 1.258 . S
C56 O58 1.247 . S
C56 O60 1.258 . S
C57 O64 1.247 . S
C57 O65 1.258 . S
O58 C56 1.247 . S
O58 Zn59 2.028 . S
Zn59 O58 2.028 . S
Zn59 O63 2.035 . S
Zn59 O65 2.035 . S
Zn59 O66 2.028 . S
O60 C56 1.258 . S
O60 Zn61 2.035 . S
Zn61 O60 2.035 . S
Zn61 O62 2.028 . S
Zn61 O64 2.028 . S
Zn61 O67 2.035 . S
O62 Zn61 2.028 . S
O62 C68 1.247 . S
O63 Zn59 2.035 . S
O63 C68 1.258 . S
O64 C57 1.247 . S
O64 Zn61 2.028 . S
O65 C57 1.258 . S
O65 Zn59 2.035 . S
O66 Zn59 2.028 . S
O66 C69 1.247 . S
O67 Zn61 2.035 . S
O67 C69 1.258 . S
C68 O62 1.247 . S
C68 O63 1.258 . S
C69 O66 1.247 . S
C69 O67 1.258 . S
C70 O72 1.247 . S
C70 O74 1.258 . S
C71 O78 1.247 . S
C71 O79 1.258 . S
O72 C70 1.247 . S
O72 Zn73 2.028 . S
Zn73 O72 2.028 . S
Zn73 O77 2.035 . S
Zn73 O79 2.035 . S
Zn73 O80 2.028 . S
O74 C70 1.258 . S
O74 Zn75 2.035 . S
Zn75 O74 2.035 . S
Zn75 O76 2.028 . S
Zn75 O78 2.028 . S
Zn75 O81 2.035 . S
O76 Zn75 2.028 . S
O76 C82 1.247 . S
O77 Zn73 2.035 . S
O77 C82 1.258 . S
O78 C71 1.247 . S
O78 Zn75 2.028 . S
O79 C71 1.258 . S
O79 Zn73 2.035 . S
O80 Zn73 2.028 . S
O80 C83 1.247 . S
O81 Zn75 2.035 . S
O81 C83 1.258 . S
C82 O76 1.247 . S
C82 O77 1.258 . S
C83 O80 1.247 . S
C83 O81 1.258 . S
C84 O86 1.247 . S
C84 O88 1.258 . S
C85 O92 1.247 . S
C85 O93 1.258 . S
O86 C84 1.247 . S
O86 Zn87 2.028 . S
Zn87 O86 2.028 . S
Zn87 O91 2.035 . S
Zn87 O93 2.035 . S
Zn87 O94 2.028 . S
O88 C84 1.258 . S
O88 Zn89 2.035 . S
Zn89 O88 2.035 . S
Zn89 O90 2.028 . S
Zn89 O92 2.028 . S
Zn89 O95 2.035 . S
O90 Zn89 2.028 . S
O90 C96 1.247 . S
O91 Zn87 2.035 . S
O91 C96 1.258 . S
O92 C85 1.247 . S
O92 Zn89 2.028 . S
O93 C85 1.258 . S
O93 Zn87 2.035 . S
O94 Zn87 2.028 . S
O94 C97 1.247 . S
O95 Zn89 2.035 . S
O95 C97 1.258 . S
C96 O90 1.247 . S
C96 O91 1.258 . S
C97 O94 1.247 . S
C97 O95 1.258 . S
C98 O100 1.247 . S
C98 O102 1.258 . S
C99 O106 1.247 . S
C99 O107 1.258 . S
O100 C98 1.247 . S
O100 Zn101 2.028 . S
Zn101 O100 2.028 . S
Zn101 O105 2.035 . S
Zn101 O107 2.035 . S
Zn101 O108 2.028 . S
O102 C98 1.258 . S
O102 Zn103 2.035 . S
Zn103 O102 2.035 . S
Zn103 O104 2.028 . S
Zn103 O106 2.028 . S
Zn103 O109 2.035 . S
O104 Zn103 2.028 . S
O104 C110 1.247 . S
O105 Zn101 2.035 . S
O105 C110 1.258 . S
O106 C99 1.247 . S
O106 Zn103 2.028 . S
O107 C99 1.258 . S
O107 Zn101 2.035 . S
O108 Zn101 2.028 . S
O108 C111 1.247 . S
O109 Zn103 2.035 . S
O109 C111 1.258 . S
C110 O104 1.247 . S
C110 O105 1.258 . S
C111 O108 1.247 . S
C111 O109 1.258 . S
C112 O114 1.247 . S
C112 O116 1.258 . S
C113 O120 1.247 . S
C113 O121 1.258 . S
O114 C112 1.247 . S
O114 Zn115 2.028 . S
Zn115 O114 2.028 . S
Zn115 O119 2.035 . S
Zn115 O121 2.035 . S
Zn115 O122 2.028 . S
O116 C112 1.258 . S
O116 Zn117 2.035 . S
Zn117 O116 2.035 . S
Zn117 O118 2.028 . S
Zn117 O120 2.028 . S
Zn117 O123 2.035 . S
O118 Zn117 2.028 . S
O118 C124 1.247 . S
O119 Zn115 2.035 . S
O119 C124 1.258 . S
O120 C113 1.247 . S
O120 Zn117 2.028 . S
O121 C113 1.258 . S
O121 Zn115 2.035 . S
O122 Zn115 2.028 . S
O122 C125 1.247 . S
O123 Zn117 2.035 . S
O123 C125 1.258 . S
C124 O118 1.247 . S
C124 O119 1.258 . S
C125 O122 1.247 . S
C125 O123 1.258 . S
C126 O128 1.247 . S
C126 O130 1.258 . S
C127 O134 1.247 . S
C127 O135 1.258 . S
O128 C126 1.247 . S
O128 Zn129 2.028 . S
Zn129 O128 2.028 . S
Zn129 O133 2.035 . S
Zn129 O135 2.035 . S
Zn129 O136 2.028 . S
O130 C126 1.258 . S
O130 Zn131 2.035 . S
Zn131 O130 2.035 . S
Zn131 O132 2.028 . S
Zn131 O134 2.028 . S
Zn131 O137 2.035 . S
O132 Zn131 2.028 . S
O132 C138 1.247 . S
O133 Zn129 2.035 . S
O133 C138 1.258 . S
O134 C127 1.247 . S
O134 Zn131 2.028 . S
O135 C127 1.258 . S
O135 Zn129 2.035 . S
O136 Zn129 2.028 . S
O136 C139 1.247 . S
O137 Zn131 2.035 . S
O137 C139 1.258 . S
C138 O132 1.247 . S
C138 O133 1.258 . S
C139 O136 1.247 . S
C139 O137 1.258 . S
C140 O142 1.247 . S
C140 O144 1.258 . S
C141 O148 1.247 . S
C141 O149 1.258 . S
O142 C140 1.247 . S
O142 Zn143 2.028 . S
Zn143 O142 2.028 . S
Zn143 O147 2.035 . S
Zn143 O149 2.035 . S
Zn143 O150 2.028 . S
O144 C140 1.258 . S
O144 Zn145 2.035 . S
Zn145 O144 2.035 . S
Zn145 O146 2.028 . S
Zn145 O148 2.028 . S
Zn145 O151 2.035 . S
O146 Zn145 2.028 . S
O146 C152 1.247 . S
O147 Zn143 2.035 . S
O147 C152 1.258 . S
O148 C141 1.247 . S
O148 Zn145 2.028 . S
O149 C141 1.258 . S
O149 Zn143 2.035 . S
O150 Zn143 2.028 . S
O150 C153 1.247 . S
O151 Zn145 2.035 . S
O151 C153 1.258 . S
C152 O146 1.247 . S
C152 O147 1.258 . S
C153 O150 1.247 . S
C153 O151 1.258 . S
C154 O156 1.247 . S
C154 O158 1.258 . S
C155 O162 1.247 . S
C155 O163 1.258 . S
O156 C154 1.247 . S
O156 Zn157 2.028 . S
Zn157 O156 2.028 . S
Zn157 O161 2.035 . S
Zn157 O163 2.035 . S
Zn157 O164 2.028 . S
O158 C154 1.258 . S
O158 Zn159 2.035 . S
Zn159 O158 2.035 . S
Zn159 O160 2.028 . S
Zn159 O162 2.028 . S
Zn159 O165 2.035 . S
O160 Zn159 2.028 . S
O160 C166 1.247 . S
O161 Zn157 2.035 . S
O161 C166 1.258 . S
O162 C155 1.247 . S
O162 Zn159 2.028 . S
O163 C155 1.258 . S
O163 Zn157 2.035 . S
O164 Zn157 2.028 . S
O164 C167 1.247 . S
O165 Zn159 2.035 . S
O165 C167 1.258 . S
C166 O160 1.247 . S
C166 O161 1.258 . S
C167 O164 1.247 . S
C167 O165 1.258 . S
C168 O170 1.247 . S
C168 O172 1.258 . S
C169 O176 1.247 . S
C169 O177 1.258 . S
O170 C168 1.247 . S
O170 Zn171 2.028 . S
Zn171 O170 2.028 . S
Zn171 O175 2.035 . S
Zn171 O177 2.035 . S
Zn171 O178 2.028 . S
O172 C168 1.258 . S
O172 Zn173 2.035 . S
Zn173 O172 2.035 . S
Zn173 O174 2.028 . S
Zn173 O176 2.028 . S
Zn173 O179 2.035 . S
O174 Zn173 2.028 . S
O174 C180 1.247 . S
O175 Zn171 2.035 . S
O175 C180 1.258 . S
O176 C169 1.247 . S
O176 Zn173 2.028 . S
O177 C169 1.258 . S
O177 Zn171 2.035 . S
O178 Zn171 2.028 . S
O178 C181 1.247 . S
O179 Zn173 2.035 . S
O179 C181 1.258 . S
C180 O174 1.247 . S
C180 O175 1.258 . S
C181 O178 1.247 . S
C181 O179 1.258 . S
C182 O184 1.247 . S
C182 O186 1.258 . S
C183 O190 1.247 . S
C183 O191 1.258 . S
O184 C182 1.247 . S
O184 Zn185 2.028 . S
Zn185 O184 2.028 . S
Zn185 O189 2.035 . S
Zn185 O191 2.035 . S
Zn185 O192 2.028 . S
O186 C182 1.258 . S
O186 Zn187 2.035 . S
Zn187 O186 2.035 . S
Zn187 O188 2.028 . S
Zn187 O190 2.028 . S
Zn187 O193 2.035 . S
O188 Zn187 2.028 . S
O188 C194 1.247 . S
O189 Zn185 2.035 . S
O189 C194 1.258 . S
O190 C183 1.247 . S
O190 Zn187 2.028 . S
O191 C183 1.258 . S
O191 Zn185 2.035 . S
O192 Zn185 2.028 . S
O192 C195 1.247 . S
O193 Zn187 2.035 . S
O193 C195 1.258 . S
C194 O188 1.247 . S
C194 O189 1.258 . S
C195 O192 1.247 . S
C195 O193 1.258 . S
C196 O198 1.247 . S
C196 O200 1.258 . S
C197 O204 1.247 . S
C197 O205 1.258 . S
O198 C196 1.247 . S
O198 Zn199 2.028 . S
Zn199 O198 2.028 . S
Zn199 O203 2.035 . S
Zn199 O205 2.035 . S
Zn199 O206 2.028 . S
O200 C196 1.258 . S
O200 Zn201 2.035 . S
Zn201 O200 2.035 . S
Zn201 O202 2.028 . S
Zn201 O204 2.028 . S
Zn201 O207 2.035 . S
O202 Zn201 2.028 . S
O202 C208 1.247 . S
O203 Zn199 2.035 . S
O203 C208 1.258 . S
O204 C197 1.247 . S
O204 Zn201 2.028 . S
O205 C197 1.258 . S
O205 Zn199 2.035 . S
O206 Zn199 2.028 . S
O206 C209 1.247 . S
O207 Zn201 2.035 . S
O207 C209 1.258 . S
C208 O202 1.247 . S
C208 O203 1.258 . S
C209 O206 1.247 . S
C209 O207 1.258 . S
C210 O212 1.247 . S
C210 O214 1.258 . S
C211 O218 1.247 . S
C211 O219 1.258 . S
O212 C210 1.247 . S
O212 Zn213 2.028 . S
Zn213 O212 2.028 . S
Zn213 O217 2.035 . S
Zn213 O219 2.035 . S
Zn213 O220 2.028 . S
O214 C210 1.258 . S
O214 Zn215 2.035 . S
Zn215 O214 2.035 . S
Zn215 O216 2.028 . S
Zn215 O218 2.028 . S
Zn215 O221 2.035 . S
O216 Zn215 2.028 . S
O216 C222 1.247 . S
O217 Zn213 2.035 . S
O217 C222 1.258 . S
O218 C211 1.247 . S
O218 Zn215 2.028 . S
O219 C211 1.258 . S
O219 Zn213 2.035 . S
O220 Zn213 2.028 . S
O220 C223 1.247 . S
O221 Zn215 2.035 . S
O221 C223 1.258 . S
C222 O216 1.247 . S
C222 O217 1.258 . S
C223 O220 1.247 . S
C223 O221 1.258 . S
C224 C225 1.391 . S
C224 C226 1.394 1_565 S
C224 H240 0.931 1_565 S
C225 C224 1.391 . S
C225 C229 1.376 . S
C226 C224 1.394 1_545 S
C226 C227 1.369 1_545 S
C226 C230 1.531 . S
C227 C226 1.369 1_565 S
C227 C228 1.410 . S
C227 C235 1.503 1_665 S
C228 C227 1.410 . S
C228 C229 1.392 . S
C228 C231 1.511 1_655 S
C229 C225 1.376 . S
C229 C228 1.392 . S
C229 H241 0.929 . S
C230 C226 1.531 . S
C230 H242 0.960 . S
C230 H243 0.962 . S
C230 H244 0.960 . S
C231 C228 1.511 1_455 S
C231 H245 0.961 . S
C231 H246 0.961 . S
C231 H247 0.961 . S
C232 C233 1.370 . S
C232 C234 1.363 . S
C232 H248 0.931 . S
C233 C232 1.370 . S
C233 C237 1.408 . S
C234 C232 1.363 . S
C234 C235 1.370 . S
C234 C238 1.524 1_545 S
C235 C227 1.503 1_445 S
C235 C234 1.370 . S
C235 C236 1.403 . S
C236 C235 1.403 . S
C236 C237 1.404 . S
C236 C239 1.539 . S
C237 C233 1.408 . S
C237 C236 1.404 . S
C237 H249 0.930 . S
C238 C234 1.524 1_565 S
C238 H250 0.974 1_565 S
C238 H251 0.961 . S
C238 H252 0.961 . S
C239 C236 1.539 . S
C239 H253 0.958 1_455 S
C239 H254 0.961 . S
C239 H255 0.960 1_455 S
H240 C224 0.931 1_545 S
H241 C229 0.929 . S
H242 C230 0.960 . S
H243 C230 0.962 . S
H244 C230 0.960 . S
H245 C231 0.961 . S
H246 C231 0.961 . S
H247 C231 0.961 . S
H248 C232 0.931 . S
H249 C237 0.930 . S
H250 C238 0.974 1_545 S
H251 C238 0.961 . S
H252 C238 0.961 . S
H253 C239 0.958 1_655 S
H254 C239 0.961 . S
H255 C239 0.960 1_655 S
C256 C257 1.391 . S
C256 C258 1.394 . S
C256 H272 0.931 . S
C257 C256 1.391 . S
C257 C261 1.376 . S
C258 C256 1.394 . S
C258 C259 1.369 . S
C258 C262 1.531 1_655 S
C259 C258 1.369 . S
C259 C260 1.410 . S
C259 C267 1.503 1_655 S
C260 C259 1.410 . S
C260 C261 1.392 . S
C260 C263 1.511 . S
C261 C257 1.376 . S
C261 C260 1.392 . S
C261 H273 0.929 . S
C262 C258 1.531 1_455 S
C262 H274 0.960 . S
C262 H275 0.962 . S
C262 H276 0.960 . S
C263 C260 1.511 . S
C263 H277 0.961 . S
C263 H278 0.961 . S
C263 H279 0.961 . S
C264 C265 1.370 . S
C264 C266 1.363 1_455 S
C264 H280 0.931 . S
C265 C264 1.370 . S
C265 C269 1.408 . S
C266 C264 1.363 1_655 S
C266 C267 1.370 1_655 S
C266 C270 1.524 . S
C267 C259 1.503 1_455 S
C267 C266 1.370 1_455 S
C267 C268 1.403 . S
C268 C267 1.403 . S
C268 C269 1.404 . S
C268 C271 1.539 . S
C269 C265 1.408 . S
C269 C268 1.404 . S
C269 H281 0.930 . S
C270 C266 1.524 . S
C270 H282 0.956 . S
C270 H283 0.961 . S
C270 H284 0.961 . S
C271 C268 1.539 . S
C271 H285 0.958 . S
C271 H286 0.961 . S
C271 H287 0.960 . S
H272 C256 0.931 . S
H273 C261 0.929 . S
H274 C262 0.960 . S
H275 C262 0.962 . S
H276 C262 0.960 . S
H277 C263 0.961 . S
H278 C263 0.961 . S
H279 C263 0.961 . S
H280 C264 0.931 . S
H281 C269 0.930 . S
H282 C270 0.956 . S
H283 C270 0.961 . S
H284 C270 0.961 . S
H285 C271 0.958 . S
H286 C271 0.961 . S
H287 C271 0.960 . S
C288 C289 1.391 . S
C288 C290 1.394 . S
C288 H304 0.931 . S
C289 C288 1.391 . S
C289 C293 1.376 . S
C290 C288 1.394 . S
C290 C291 1.369 . S
C290 C294 1.531 . S
C291 C290 1.369 . S
C291 C292 1.410 . S
C291 C299 1.503 . S
C292 C291 1.410 . S
C292 C293 1.392 . S
C292 C295 1.511 . S
C293 C289 1.376 . S
C293 C292 1.392 . S
C293 H305 0.929 . S
C294 C290 1.531 . S
C294 H306 0.960 . S
C294 H307 0.962 . S
C294 H308 0.960 . S
C295 C292 1.511 . S
C295 H309 0.961 . S
C295 H310 0.961 . S
C295 H311 0.961 . S
C296 C297 1.370 . S
C296 C298 1.363 . S
C296 H312 0.931 . S
C297 C296 1.370 . S
C297 C301 1.408 . S
C298 C296 1.363 . S
C298 C299 1.370 . S
C298 C302 1.524 . S
C299 C291 1.503 . S
C299 C298 1.370 . S
C299 C300 1.403 . S
C300 C299 1.403 . S
C300 C301 1.404 . S
C300 C303 1.539 . S
C301 C297 1.408 . S
C301 C300 1.404 . S
C301 H313 0.930 . S
C302 C298 1.524 . S
C302 H314 0.956 . S
C302 H315 0.961 . S
C302 H316 0.961 . S
C303 C300 1.539 . S
C303 H317 0.958 . S
C303 H318 0.961 . S
C303 H319 0.960 . S
H304 C288 0.931 . S
H305 C293 0.929 . S
H306 C294 0.960 . S
H307 C294 0.962 . S
H308 C294 0.960 . S
H309 C295 0.961 . S
H310 C295 0.961 . S
H311 C295 0.961 . S
H312 C296 0.931 . S
H313 C301 0.930 . S
H314 C302 0.956 . S
H315 C302 0.961 . S
H316 C302 0.961 . S
H317 C303 0.958 . S
H318 C303 0.961 . S
H319 C303 0.960 . S
C320 C321 1.391 . S
C320 C322 1.394 . S
C320 H336 0.931 . S
C321 C320 1.391 . S
C321 C325 1.376 . S
C322 C320 1.394 . S
C322 C323 1.369 . S
C322 C326 1.531 1_545 S
C323 C322 1.369 . S
C323 C324 1.410 . S
C323 C331 1.503 1_545 S
C324 C323 1.410 . S
C324 C325 1.392 . S
C324 C327 1.511 . S
C325 C321 1.376 . S
C325 C324 1.392 . S
C325 H337 0.929 . S
C326 C322 1.531 1_565 S
C326 H338 0.960 . S
C326 H339 0.962 . S
C326 H340 0.960 . S
C327 C324 1.511 . S
C327 H341 0.961 . S
C327 H342 0.961 . S
C327 H343 0.961 . S
C328 C329 1.370 . S
C328 C330 1.363 . S
C328 H344 0.931 . S
C329 C328 1.370 . S
C329 C333 1.408 . S
C330 C328 1.363 . S
C330 C331 1.370 . S
C330 C334 1.524 . S
C331 C323 1.503 1_565 S
C331 C330 1.370 . S
C331 C332 1.403 . S
C332 C331 1.403 . S
C332 C333 1.404 . S
C332 C335 1.539 . S
C333 C329 1.408 . S
C333 C332 1.404 . S
C333 H345 0.930 . S
C334 C330 1.524 . S
C334 H346 0.956 . S
C334 H347 0.961 1_565 S
C334 H348 0.961 . S
C335 C332 1.539 . S
C335 H349 0.958 . S
C335 H350 0.961 . S
C335 H351 0.960 1_565 S
H336 C320 0.931 . S
H337 C325 0.929 . S
H338 C326 0.960 . S
H339 C326 0.962 . S
H340 C326 0.960 . S
H341 C327 0.961 . S
H342 C327 0.961 . S
H343 C327 0.961 . S
H344 C328 0.931 . S
H345 C333 0.930 . S
H346 C334 0.956 . S
H347 C334 0.961 1_545 S
H348 C334 0.961 . S
H349 C335 0.958 . S
H350 C335 0.961 . S
H351 C335 0.960 1_545 S
C352 C353 1.391 . S
C352 C354 1.394 . S
C352 H368 0.931 . S
C353 C352 1.391 . S
C353 C357 1.376 . S
C354 C352 1.394 . S
C354 C355 1.369 . S
C354 C358 1.531 1_455 S
C355 C354 1.369 . S
C355 C356 1.410 . S
C355 C363 1.503 1_455 S
C356 C355 1.410 . S
C356 C357 1.392 . S
C356 C359 1.511 . S
C357 C353 1.376 . S
C357 C356 1.392 . S
C357 H369 0.929 . S
C358 C354 1.531 1_655 S
C358 H370 0.960 . S
C358 H371 0.962 . S
C358 H372 0.960 . S
C359 C356 1.511 . S
C359 H373 0.961 . S
C359 H374 0.961 . S
C359 H375 0.961 . S
C360 C361 1.370 . S
C360 C362 1.363 . S
C360 H376 0.931 . S
C361 C360 1.370 . S
C361 C365 1.408 . S
C362 C360 1.363 . S
C362 C363 1.370 . S
C362 C366 1.524 1_655 S
C363 C355 1.503 1_655 S
C363 C362 1.370 . S
C363 C364 1.403 . S
C364 C363 1.403 . S
C364 C365 1.404 . S
C364 C367 1.539 . S
C365 C361 1.408 . S
C365 C364 1.404 . S
C365 H377 0.930 . S
C366 C362 1.524 1_455 S
C366 H378 0.956 . S
C366 H379 0.961 . S
C366 H380 0.961 . S
C367 C364 1.539 . S
C367 H381 0.958 . S
C367 H382 0.961 . S
C367 H383 0.960 . S
H368 C352 0.931 . S
H369 C357 0.929 . S
H370 C358 0.960 . S
H371 C358 0.962 . S
H372 C358 0.960 . S
H373 C359 0.961 . S
H374 C359 0.961 . S
H375 C359 0.961 . S
H376 C360 0.931 . S
H377 C365 0.930 . S
H378 C366 0.956 . S
H379 C366 0.961 . S
H380 C366 0.961 . S
H381 C367 0.958 . S
H382 C367 0.961 . S
H383 C367 0.960 . S
C384 C385 1.391 . S
C384 C386 1.394 . S
C384 H400 0.931 . S
C385 C384 1.391 . S
C385 C389 1.376 . S
C386 C384 1.394 . S
C386 C387 1.369 . S
C386 C390 1.531 . S
C387 C386 1.369 . S
C387 C388 1.410 . S
C387 C395 1.503 . S
C388 C387 1.410 . S
C388 C389 1.392 . S
C388 C391 1.511 . S
C389 C385 1.376 . S
C389 C388 1.392 . S
C389 H401 0.929 . S
C390 C386 1.531 . S
C390 H402 0.960 . S
C390 H403 0.962 . S
C390 H404 0.960 . S
C391 C388 1.511 . S
C391 H405 0.961 . S
C391 H406 0.961 . S
C391 H407 0.961 . S
C392 C393 1.370 . S
C392 C394 1.363 . S
C392 H408 0.931 . S
C393 C392 1.370 . S
C393 C397 1.408 . S
C394 C392 1.363 . S
C394 C395 1.370 . S
C394 C398 1.524 . S
C395 C387 1.503 . S
C395 C394 1.370 . S
C395 C396 1.403 . S
C396 C395 1.403 . S
C396 C397 1.404 . S
C396 C399 1.539 . S
C397 C393 1.408 . S
C397 C396 1.404 . S
C397 H409 0.930 . S
C398 C394 1.524 . S
C398 H410 0.956 . S
C398 H411 0.961 . S
C398 H412 0.961 . S
C399 C396 1.539 . S
C399 H413 0.958 . S
C399 H414 0.961 . S
C399 H415 0.960 . S
H400 C384 0.931 . S
H401 C389 0.929 . S
H402 C390 0.960 . S
H403 C390 0.962 . S
H404 C390 0.960 . S
H405 C391 0.961 . S
H406 C391 0.961 . S
H407 C391 0.961 . S
H408 C392 0.931 . S
H409 C397 0.930 . S
H410 C398 0.956 . S
H411 C398 0.961 . S
H412 C398 0.961 . S
H413 C399 0.958 . S
H414 C399 0.961 . S
H415 C399 0.960 . S
C416 C417 1.391 . S
C416 C418 1.394 . S
C416 H432 0.931 . S
C417 C416 1.391 . S
C417 C421 1.376 . S
C418 C416 1.394 . S
C418 C419 1.369 . S
C418 C422 1.531 . S
C419 C418 1.369 . S
C419 C420 1.410 1_545 S
C419 C427 1.503 1_545 S
C420 C419 1.410 1_565 S
C420 C421 1.392 1_565 S
C420 C423 1.511 . S
C421 C417 1.376 . S
C421 C420 1.392 1_545 S
C421 H433 0.929 1_545 S
C422 C418 1.531 . S
C422 H434 0.960 . S
C422 H435 0.962 . S
C422 H436 0.960 . S
C423 C420 1.511 . S
C423 H437 0.961 . S
C423 H438 0.961 . S
C423 H439 0.961 . S
C424 C425 1.370 . S
C424 C426 1.363 . S
C424 H440 0.931 . S
C425 C424 1.370 . S
C425 C429 1.408 . S
C426 C424 1.363 . S
C426 C427 1.370 . S
C426 C430 1.524 1_565 S
C427 C419 1.503 1_565 S
C427 C426 1.370 . S
C427 C428 1.403 . S
C428 C427 1.403 . S
C428 C429 1.404 . S
C428 C431 1.539 . S
C429 C425 1.408 . S
C429 C428 1.404 . S
C429 H441 0.930 . S
C430 C426 1.524 1_545 S
C430 H442 0.956 . S
C430 H443 0.961 1_545 S
C430 H444 0.961 1_545 S
C431 C428 1.539 . S
C431 H445 0.958 . S
C431 H446 0.961 . S
C431 H447 0.960 . S
H432 C416 0.931 . S
H433 C421 0.929 1_565 S
H434 C422 0.960 . S
H435 C422 0.962 . S
H436 C422 0.960 . S
H437 C423 0.961 . S
H438 C423 0.961 . S
H439 C423 0.961 . S
H440 C424 0.931 . S
H441 C429 0.930 . S
H442 C430 0.956 . S
H443 C430 0.961 1_565 S
H444 C430 0.961 1_565 S
H445 C431 0.958 . S
H446 C431 0.961 . S
H447 C431 0.960 . S
C448 C449 1.391 . S
C448 C450 1.394 1_455 S
C448 H464 0.928 1_455 S
C449 C448 1.391 . S
C449 C453 1.376 . S
C450 C448 1.394 1_655 S
C450 C451 1.369 1_655 S
C450 C454 1.531 . S
C451 C450 1.369 1_455 S
C451 C452 1.410 . S
C451 C459 1.503 1_445 S
C452 C451 1.410 . S
C452 C453 1.392 . S
C452 C455 1.511 1_545 S
C453 C449 1.376 . S
C453 C452 1.392 . S
C453 H465 0.929 . S
C454 C450 1.531 . S
C454 H466 0.960 . S
C454 H467 0.962 . S
C454 H468 0.960 . S
C455 C452 1.511 1_565 S
C455 H469 0.961 . S
C455 H470 0.961 . S
C455 H471 0.961 . S
C456 C457 1.370 . S
C456 C458 1.363 . S
C456 H472 0.931 . S
C457 C456 1.370 . S
C457 C461 1.408 . S
C458 C456 1.363 . S
C458 C459 1.370 . S
C458 C462 1.524 . S
C459 C451 1.503 1_665 S
C459 C458 1.370 . S
C459 C460 1.403 . S
C460 C459 1.403 . S
C460 C461 1.404 . S
C460 C463 1.539 1_655 S
C461 C457 1.408 . S
C461 C460 1.404 . S
C461 H473 0.930 . S
C462 C458 1.524 . S
C462 H474 0.956 1_565 S
C462 H475 0.961 1_655 S
C462 H476 0.961 . S
C463 C460 1.539 1_455 S
C463 H477 0.958 1_455 S
C463 H478 0.961 . S
C463 H479 0.960 . S
H464 C448 0.928 1_655 S
H465 C453 0.929 . S
H466 C454 0.960 . S
H467 C454 0.962 . S
H468 C454 0.960 . S
H469 C455 0.961 . S
H470 C455 0.961 . S
H471 C455 0.961 . S
H472 C456 0.931 . S
H473 C461 0.930 . S
H474 C462 0.956 1_545 S
H475 C462 0.961 1_455 S
H476 C462 0.961 . S
H477 C463 0.958 1_655 S
H478 C463 0.961 . S
H479 C463 0.960 . S
C480 C481 1.391 . S
C480 C482 1.394 . S
C480 H496 0.931 . S
C481 C480 1.391 . S
C481 C485 1.376 . S
C482 C480 1.394 . S
C482 C483 1.369 . S
C482 C486 1.531 . S
C483 C482 1.369 . S
C483 C484 1.410 1_565 S
C483 C491 1.503 1_565 S
C484 C483 1.410 1_545 S
C484 C485 1.392 1_545 S
C484 C487 1.511 . S
C485 C481 1.376 . S
C485 C484 1.392 1_565 S
C485 H497 0.929 . S
C486 C482 1.531 . S
C486 H498 0.960 . S
C486 H499 0.962 . S
C486 H500 0.960 . S
C487 C484 1.511 . S
C487 H501 0.961 . S
C487 H502 0.961 . S
C487 H503 0.961 . S
C488 C489 1.370 . S
C488 C490 1.363 . S
C488 H504 0.931 . S
C489 C488 1.370 . S
C489 C493 1.408 . S
C490 C488 1.363 . S
C490 C491 1.370 . S
C490 C494 1.524 1_545 S
C491 C483 1.503 1_545 S
C491 C490 1.370 . S
C491 C492 1.403 . S
C492 C491 1.403 . S
C492 C493 1.404 . S
C492 C495 1.539 . S
C493 C489 1.408 . S
C493 C492 1.404 . S
C493 H505 0.930 . S
C494 C490 1.524 1_565 S
C494 H506 0.956 . S
C494 H507 0.961 . S
C494 H508 0.961 . S
C495 C492 1.539 . S
C495 H509 0.958 . S
C495 H510 0.961 . S
C495 H511 0.960 . S
H496 C480 0.931 . S
H497 C485 0.929 . S
H498 C486 0.960 . S
H499 C486 0.962 . S
H500 C486 0.960 . S
H501 C487 0.961 . S
H502 C487 0.961 . S
H503 C487 0.961 . S
H504 C488 0.931 . S
H505 C493 0.930 . S
H506 C494 0.956 . S
H507 C494 0.961 . S
H508 C494 0.961 . S
H509 C495 0.958 . S
H510 C495 0.961 . S
H511 C495 0.960 . S
C512 C513 1.391 . S
C512 C514 1.394 . S
C512 H528 0.931 . S
C513 C512 1.391 . S
C513 C517 1.376 . S
C514 C512 1.394 . S
C514 C515 1.369 . S
C514 C518 1.531 . S
C515 C514 1.369 . S
C515 C516 1.410 . S
C515 C523 1.503 1_665 S
C516 C515 1.410 . S
C516 C517 1.392 . S
C516 C519 1.511 . S
C517 C513 1.376 . S
C517 C516 1.392 . S
C517 H529 0.929 . S
C518 C514 1.531 . S
C518 H530 0.960 1_565 S
C518 H531 0.962 1_655 S
C518 H532 0.960 . S
C519 C516 1.511 . S
C519 H533 0.961 . S
C519 H534 0.959 1_565 S
C519 H535 0.961 1_565 S
C520 C521 1.370 . S
C520 C522 1.363 . S
C520 H536 0.931 . S
C521 C520 1.370 . S
C521 C525 1.408 . S
C522 C520 1.363 . S
C522 C523 1.370 . S
C522 C526 1.524 1_545 S
C523 C515 1.503 1_445 S
C523 C522 1.370 . S
C523 C524 1.403 1_455 S
C524 C523 1.403 1_655 S
C524 C525 1.404 1_655 S
C524 C527 1.539 . S
C525 C521 1.408 . S
C525 C524 1.404 1_455 S
C525 H537 0.930 . S
C526 C522 1.524 1_565 S
C526 H538 0.956 . S
C526 H539 0.961 . S
C526 H540 0.961 . S
C527 C524 1.539 . S
C527 H541 0.958 . S
C527 H542 0.961 . S
C527 H543 0.960 . S
H528 C512 0.931 . S
H529 C517 0.929 . S
H530 C518 0.960 1_545 S
H531 C518 0.962 1_455 S
H532 C518 0.960 . S
H533 C519 0.961 . S
H534 C519 0.959 1_545 S
H535 C519 0.961 1_545 S
H536 C520 0.931 . S
H537 C525 0.930 . S
H538 C526 0.956 . S
H539 C526 0.961 . S
H540 C526 0.961 . S
H541 C527 0.958 . S
H542 C527 0.961 . S
H543 C527 0.960 . S
C544 C545 1.391 . S
C544 C546 1.394 . S
C544 H560 0.931 . S
C545 C544 1.391 . S
C545 C549 1.376 . S
C546 C544 1.394 . S
C546 C547 1.369 . S
C546 C550 1.531 . S
C547 C546 1.369 . S
C547 C548 1.410 . S
C547 C555 1.503 1_455 S
C548 C547 1.410 . S
C548 C549 1.392 . S
C548 C551 1.511 1_455 S
C549 C545 1.376 . S
C549 C548 1.392 . S
C549 H561 0.929 . S
C550 C546 1.531 . S
C550 H562 0.960 . S
C550 H563 0.962 . S
C550 H564 0.960 . S
C551 C548 1.511 1_655 S
C551 H565 0.961 . S
C551 H566 0.961 . S
C551 H567 0.961 1_655 S
C552 C553 1.370 . S
C552 C554 1.363 . S
C552 H568 0.931 . S
C553 C552 1.370 . S
C553 C557 1.408 . S
C554 C552 1.363 . S
C554 C555 1.370 . S
C554 C558 1.524 . S
C555 C547 1.503 1_655 S
C555 C554 1.370 . S
C555 C556 1.403 . S
C556 C555 1.403 . S
C556 C557 1.404 . S
C556 C559 1.539 1_655 S
C557 C553 1.408 . S
C557 C556 1.404 . S
C557 H569 0.930 . S
C558 C554 1.524 . S
C558 H570 0.956 . S
C558 H571 0.961 . S
C558 H572 0.961 . S
C559 C556 1.539 1_455 S
C559 H573 0.958 . S
C559 H574 0.961 . S
C559 H575 0.960 . S
H560 C544 0.931 . S
H561 C549 0.929 . S
H562 C550 0.960 . S
H563 C550 0.962 . S
H564 C550 0.960 . S
H565 C551 0.961 . S
H566 C551 0.961 . S
H567 C551 0.961 1_455 S
H568 C552 0.931 . S
H569 C557 0.930 . S
H570 C558 0.956 . S
H571 C558 0.961 . S
H572 C558 0.961 . S
H573 C559 0.958 . S
H574 C559 0.961 . S
H575 C559 0.960 . S
C576 C577 1.391 . S
C576 C578 1.394 . S
C576 H592 0.931 . S
C577 C576 1.391 . S
C577 C581 1.376 . S
C578 C576 1.394 . S
C578 C579 1.369 . S
C578 C582 1.531 . S
C579 C578 1.369 . S
C579 C580 1.410 . S
C579 C587 1.503 . S
C580 C579 1.410 . S
C580 C581 1.392 . S
C580 C583 1.511 . S
C581 C577 1.376 . S
C581 C580 1.392 . S
C581 H593 0.929 . S
C582 C578 1.531 . S
C582 H594 0.960 . S
C582 H595 0.962 . S
C582 H596 0.960 . S
C583 C580 1.511 . S
C583 H597 0.961 . S
C583 H598 0.961 . S
C583 H599 0.961 . S
C584 C585 1.370 . S
C584 C586 1.363 . S
C584 H600 0.931 . S
C585 C584 1.370 . S
C585 C589 1.408 . S
C586 C584 1.363 . S
C586 C587 1.370 . S
C586 C590 1.524 . S
C587 C579 1.503 . S
C587 C586 1.370 . S
C587 C588 1.403 . S
C588 C587 1.403 . S
C588 C589 1.404 . S
C588 C591 1.539 . S
C589 C585 1.408 . S
C589 C588 1.404 . S
C589 H601 0.930 . S
C590 C586 1.524 . S
C590 H602 0.956 . S
C590 H603 0.961 . S
C590 H604 0.961 . S
C591 C588 1.539 . S
C591 H605 0.958 . S
C591 H606 0.961 . S
C591 H607 0.960 . S
H592 C576 0.931 . S
H593 C581 0.929 . S
H594 C582 0.960 . S
H595 C582 0.962 . S
H596 C582 0.960 . S
H597 C583 0.961 . S
H598 C583 0.961 . S
H599 C583 0.961 . S
H600 C584 0.931 . S
H601 C589 0.930 . S
H602 C590 0.956 . S
H603 C590 0.961 . S
H604 C590 0.961 . S
H605 C591 0.958 . S
H606 C591 0.961 . S
H607 C591 0.960 . S
C608 C609 1.391 . S
C608 C610 1.394 . S
C608 H624 0.931 . S
C609 C608 1.391 . S
C609 C613 1.376 . S
C610 C608 1.394 . S
C610 C611 1.369 . S
C610 C614 1.531 . S
C611 C610 1.369 . S
C611 C612 1.410 . S
C611 C619 1.503 . S
C612 C611 1.410 . S
C612 C613 1.392 . S
C612 C615 1.511 . S
C613 C609 1.376 . S
C613 C612 1.392 . S
C613 H625 0.929 . S
C614 C610 1.531 . S
C614 H626 0.960 . S
C614 H627 0.962 . S
C614 H628 0.960 . S
C615 C612 1.511 . S
C615 H629 0.961 . S
C615 H630 0.961 . S
C615 H631 0.961 . S
C616 C617 1.370 . S
C616 C618 1.363 . S
C616 H632 0.931 . S
C617 C616 1.370 . S
C617 C621 1.408 . S
C618 C616 1.363 . S
C618 C619 1.370 . S
C618 C622 1.524 . S
C619 C611 1.503 . S
C619 C618 1.370 . S
C619 C620 1.403 . S
C620 C619 1.403 . S
C620 C621 1.404 . S
C620 C623 1.539 . S
C621 C617 1.408 . S
C621 C620 1.404 . S
C621 H633 0.930 . S
C622 C618 1.524 . S
C622 H634 0.956 . S
C622 H635 0.961 . S
C622 H636 0.961 . S
C623 C620 1.539 . S
C623 H637 0.958 . S
C623 H638 0.961 . S
C623 H639 0.960 . S
H624 C608 0.931 . S
H625 C613 0.929 . S
H626 C614 0.960 . S
H627 C614 0.962 . S
H628 C614 0.960 . S
H629 C615 0.961 . S
H630 C615 0.961 . S
H631 C615 0.961 . S
H632 C616 0.931 . S
H633 C621 0.930 . S
H634 C622 0.956 . S
H635 C622 0.961 . S
H636 C622 0.961 . S
H637 C623 0.958 . S
H638 C623 0.961 . S
H639 C623 0.960 . S
C640 C641 1.391 . S
C640 C642 1.394 . S
C640 H656 0.931 . S
C641 C640 1.391 . S
C641 C645 1.376 . S
C642 C640 1.394 . S
C642 C643 1.369 . S
C642 C646 1.531 . S
C643 C642 1.369 . S
C643 C644 1.410 . S
C643 C651 1.503 1_565 S
C644 C643 1.410 . S
C644 C645 1.392 . S
C644 C647 1.511 1_565 S
C645 C641 1.376 . S
C645 C644 1.392 . S
C645 H657 0.929 . S
C646 C642 1.531 . S
C646 H658 0.960 . S
C646 H659 0.962 . S
C646 H660 0.960 . S
C647 C644 1.511 1_545 S
C647 H661 0.961 . S
C647 H662 0.961 . S
C647 H663 0.961 . S
C648 C649 1.370 . S
C648 C650 1.363 . S
C648 H664 0.931 . S
C649 C648 1.370 . S
C649 C653 1.408 . S
C650 C648 1.363 . S
C650 C651 1.370 . S
C650 C654 1.524 1_545 S
C651 C643 1.503 1_545 S
C651 C650 1.370 . S
C651 C652 1.403 . S
C652 C651 1.403 . S
C652 C653 1.404 . S
C652 C655 1.539 . S
C653 C649 1.408 . S
C653 C652 1.404 . S
C653 H665 0.930 . S
C654 C650 1.524 1_565 S
C654 H666 0.956 . S
C654 H667 0.961 . S
C654 H668 0.961 1_565 S
C655 C652 1.539 . S
C655 H669 0.958 . S
C655 H670 0.961 . S
C655 H671 0.960 . S
H656 C640 0.931 . S
H657 C645 0.929 . S
H658 C646 0.960 . S
H659 C646 0.962 . S
H660 C646 0.960 . S
H661 C647 0.961 . S
H662 C647 0.961 . S
H663 C647 0.961 . S
H664 C648 0.931 . S
H665 C653 0.930 . S
H666 C654 0.956 . S
H667 C654 0.961 . S
H668 C654 0.961 1_545 S
H669 C655 0.958 . S
H670 C655 0.961 . S
H671 C655 0.960 . S
C672 C673 1.391 . S
C672 C674 1.394 . S
C672 H688 0.931 . S
C673 C672 1.391 . S
C673 C677 1.376 . S
C674 C672 1.394 . S
C674 C675 1.369 . S
C674 C678 1.531 1_655 S
C675 C674 1.369 . S
C675 C676 1.410 1_565 S
C675 C683 1.503 1_665 S
C676 C675 1.410 1_545 S
C676 C677 1.392 1_545 S
C676 C679 1.511 . S
C677 C673 1.376 . S
C677 C676 1.392 1_565 S
C677 H689 0.929 . S
C678 C674 1.531 1_455 S
C678 H690 0.960 . S
C678 H691 0.962 . S
C678 H692 0.960 . S
C679 C676 1.511 . S
C679 H693 0.961 . S
C679 H694 0.961 . S
C679 H695 0.961 . S
C680 C681 1.370 . S
C680 C682 1.363 . S
C680 H696 0.931 . S
C681 C680 1.370 . S
C681 C685 1.408 . S
C682 C680 1.363 . S
C682 C683 1.370 . S
C682 C686 1.524 1_545 S
C683 C675 1.503 1_445 S
C683 C682 1.370 . S
C683 C684 1.403 . S
C684 C683 1.403 . S
C684 C685 1.404 . S
C684 C687 1.539 1_455 S
C685 C681 1.408 . S
C685 C684 1.404 . S
C685 H697 0.930 . S
C686 C682 1.524 1_565 S
C686 H698 0.956 . S
C686 H699 0.961 . S
C686 H700 0.961 . S
C687 C684 1.539 1_655 S
C687 H701 0.958 . S
C687 H702 0.961 . S
C687 H703 0.960 . S
H688 C672 0.931 . S
H689 C677 0.929 . S
H690 C678 0.960 . S
H691 C678 0.962 . S
H692 C678 0.960 . S
H693 C679 0.961 . S
H694 C679 0.961 . S
H695 C679 0.961 . S
H696 C680 0.931 . S
H697 C685 0.930 . S
H698 C686 0.956 . S
H699 C686 0.961 . S
H700 C686 0.961 . S
H701 C687 0.958 . S
H702 C687 0.961 . S
H703 C687 0.960 . S
C704 C705 1.391 . S
C704 C706 1.394 . S
C704 H720 0.931 . S
C705 C704 1.391 . S
C705 C709 1.376 . S
C706 C704 1.394 . S
C706 C707 1.369 . S
C706 C710 1.531 1_455 S
C707 C706 1.369 . S
C707 C708 1.410 . S
C707 C715 1.503 1_455 S
C708 C707 1.410 . S
C708 C709 1.392 . S
C708 C711 1.511 . S
C709 C705 1.376 . S
C709 C708 1.392 . S
C709 H721 0.929 . S
C710 C706 1.531 1_655 S
C710 H722 0.960 . S
C710 H723 0.962 . S
C710 H724 0.960 . S
C711 C708 1.511 . S
C711 H725 0.961 . S
C711 H726 0.961 . S
C711 H727 0.961 . S
C712 C713 1.370 . S
C712 C714 1.363 . S
C712 H728 0.931 . S
C713 C712 1.370 . S
C713 C717 1.408 . S
C714 C712 1.363 . S
C714 C715 1.370 . S
C714 C718 1.524 . S
C715 C707 1.503 1_655 S
C715 C714 1.370 . S
C715 C716 1.403 1_655 S
C716 C715 1.403 1_455 S
C716 C717 1.404 1_455 S
C716 C719 1.539 . S
C717 C713 1.408 . S
C717 C716 1.404 1_655 S
C717 H729 0.930 . S
C718 C714 1.524 . S
C718 H730 0.956 . S
C718 H731 0.961 . S
C718 H732 0.961 . S
C719 C716 1.539 . S
C719 H733 0.958 . S
C719 H734 0.961 . S
C719 H735 0.960 . S
H720 C704 0.931 . S
H721 C709 0.929 . S
H722 C710 0.960 . S
H723 C710 0.962 . S
H724 C710 0.960 . S
H725 C711 0.961 . S
H726 C711 0.961 . S
H727 C711 0.961 . S
H728 C712 0.931 . S
H729 C717 0.930 . S
H730 C718 0.956 . S
H731 C718 0.961 . S
H732 C718 0.961 . S
H733 C719 0.958 . S
H734 C719 0.961 . S
H735 C719 0.960 . S
C736 C737 1.391 . S
C736 C738 1.394 . S
C736 H752 0.931 . S
C737 C736 1.391 . S
C737 C741 1.376 . S
C738 C736 1.394 . S
C738 C739 1.369 . S
C738 C742 1.531 . S
C739 C738 1.369 . S
C739 C740 1.410 . S
C739 C747 1.503 . S
C740 C739 1.410 . S
C740 C741 1.392 . S
C740 C743 1.526 . S
C741 C737 1.376 . S
C741 C740 1.392 . S
C741 H753 0.929 . S
C742 C738 1.531 . S
C742 H754 0.960 . S
C742 H755 0.962 . S
C742 H756 0.960 . S
C743 C740 1.526 . S
C743 H757 0.943 1_545 S
C743 H758 0.957 1_545 S
C743 H759 0.968 . S
C744 C745 1.370 . S
C744 C746 1.363 . S
C744 H760 0.931 . S
C745 C744 1.370 . S
C745 C749 1.408 . S
C746 C744 1.363 . S
C746 C747 1.370 . S
C746 C750 1.524 . S
C747 C739 1.503 . S
C747 C746 1.370 . S
C747 C748 1.403 . S
C748 C747 1.403 . S
C748 C749 1.404 . S
C748 C751 1.539 . S
C749 C745 1.408 . S
C749 C748 1.404 . S
C749 H761 0.930 . S
C750 C746 1.524 . S
C750 H762 0.956 . S
C750 H763 0.969 . S
C750 H764 0.961 . S
C751 C748 1.539 . S
C751 H765 0.958 . S
C751 H766 0.961 . S
C751 H767 0.960 . S
H752 C736 0.931 . S
H753 C741 0.929 . S
H754 C742 0.960 . S
H755 C742 0.962 . S
H756 C742 0.960 . S
H757 C743 0.943 1_565 S
H758 C743 0.957 1_565 S
H759 C743 0.968 . S
H760 C744 0.931 . S
H761 C749 0.930 . S
H762 C750 0.956 . S
H763 C750 0.969 . S
H764 C750 0.961 . S
H765 C751 0.958 . S
H766 C751 0.961 . S
H767 C751 0.960 . S
C768 C769 1.391 . S
C768 C770 1.394 . S
C768 H784 0.931 . S
C769 C768 1.391 . S
C769 C773 1.376 . S
C770 C768 1.394 . S
C770 C771 1.369 . S
C770 C774 1.531 . S
C771 C770 1.369 . S
C771 C772 1.410 . S
C771 C779 1.503 . S
C772 C771 1.410 . S
C772 C773 1.392 . S
C772 C775 1.511 1_655 S
C773 C769 1.376 . S
C773 C772 1.392 . S
C773 H785 0.929 . S
C774 C770 1.531 . S
C774 H786 0.960 . S
C774 H787 0.962 . S
C774 H788 0.960 . S
C775 C772 1.511 1_455 S
C775 H789 0.961 . S
C775 H790 0.961 . S
C775 H791 0.961 . S
C776 C777 1.370 . S
C776 C778 1.363 . S
C776 H792 0.931 . S
C777 C776 1.370 . S
C777 C781 1.408 . S
C778 C776 1.363 . S
C778 C779 1.370 . S
C778 C782 1.524 . S
C779 C771 1.503 . S
C779 C778 1.370 . S
C779 C780 1.403 . S
C780 C779 1.403 . S
C780 C781 1.404 . S
C780 C783 1.539 . S
C781 C777 1.408 . S
C781 C780 1.404 . S
C781 H793 0.930 . S
C782 C778 1.524 . S
C782 H794 0.956 . S
C782 H795 0.961 . S
C782 H796 0.961 . S
C783 C780 1.539 . S
C783 H797 0.958 . S
C783 H798 0.961 1_655 S
C783 H799 0.960 . S
H784 C768 0.931 . S
H785 C773 0.929 . S
H786 C774 0.960 . S
H787 C774 0.962 . S
H788 C774 0.960 . S
H789 C775 0.961 . S
H790 C775 0.961 . S
H791 C775 0.961 . S
H792 C776 0.931 . S
H793 C781 0.930 . S
H794 C782 0.956 . S
H795 C782 0.961 . S
H796 C782 0.961 . S
H797 C783 0.958 . S
H798 C783 0.961 1_455 S
H799 C783 0.960 . S
C800 C801 1.391 . S
C800 C802 1.394 . S
C800 H816 0.931 . S
C801 C800 1.391 . S
C801 C805 1.376 . S
C802 C800 1.394 . S
C802 C803 1.369 . S
C802 C806 1.531 . S
C803 C802 1.369 . S
C803 C804 1.410 . S
C803 C811 1.503 . S
C804 C803 1.410 . S
C804 C805 1.392 . S
C804 C807 1.511 . S
C805 C801 1.376 . S
C805 C804 1.392 . S
C805 H817 0.929 . S
C806 C802 1.531 . S
C806 H818 0.960 . S
C806 H819 0.962 . S
C806 H820 0.960 . S
C807 C804 1.511 . S
C807 H821 0.961 . S
C807 H822 0.961 . S
C807 H823 0.961 . S
C808 C809 1.370 . S
C808 C810 1.363 . S
C808 H824 0.931 . S
C809 C808 1.370 . S
C809 C813 1.408 . S
C810 C808 1.363 . S
C810 C811 1.370 . S
C810 C814 1.524 . S
C811 C803 1.503 . S
C811 C810 1.370 . S
C811 C812 1.403 . S
C812 C811 1.403 . S
C812 C813 1.404 . S
C812 C815 1.539 . S
C813 C809 1.408 . S
C813 C812 1.404 . S
C813 H825 0.930 . S
C814 C810 1.524 . S
C814 H826 0.956 . S
C814 H827 0.961 . S
C814 H828 0.961 . S
C815 C812 1.539 . S
C815 H829 0.958 . S
C815 H830 0.961 . S
C815 H831 0.960 . S
H816 C800 0.931 . S
H817 C805 0.929 . S
H818 C806 0.960 . S
H819 C806 0.962 . S
H820 C806 0.960 . S
H821 C807 0.961 . S
H822 C807 0.961 . S
H823 C807 0.961 . S
H824 C808 0.931 . S
H825 C813 0.930 . S
H826 C814 0.956 . S
H827 C814 0.961 . S
H828 C814 0.961 . S
H829 C815 0.958 . S
H830 C815 0.961 . S
H831 C815 0.960 . S
C832 C833 1.391 . S
C832 C834 1.394 . S
C832 H848 0.931 . S
C833 C832 1.391 . S
C833 C837 1.376 . S
C834 C832 1.394 . S
C834 C835 1.369 . S
C834 C838 1.531 . S
C835 C834 1.369 . S
C835 C836 1.410 . S
C835 C843 1.503 . S
C836 C835 1.410 . S
C836 C837 1.392 . S
C836 C839 1.511 . S
C837 C833 1.376 . S
C837 C836 1.392 . S
C837 H849 0.929 . S
C838 C834 1.531 . S
C838 H850 0.960 . S
C838 H851 0.962 . S
C838 H852 0.960 . S
C839 C836 1.511 . S
C839 H853 0.961 . S
C839 H854 0.961 . S
C839 H855 0.961 . S
C840 C841 1.370 . S
C840 C842 1.363 . S
C840 H856 0.931 . S
C841 C840 1.370 . S
C841 C845 1.408 . S
C842 C840 1.363 . S
C842 C843 1.370 . S
C842 C846 1.524 . S
C843 C835 1.503 . S
C843 C842 1.370 . S
C843 C844 1.403 . S
C844 C843 1.403 . S
C844 C845 1.404 . S
C844 C847 1.539 . S
C845 C841 1.408 . S
C845 C844 1.404 . S
C845 H857 0.930 . S
C846 C842 1.524 . S
C846 H858 0.956 . S
C846 H859 0.961 . S
C846 H860 0.961 . S
C847 C844 1.539 . S
C847 H861 0.958 . S
C847 H862 0.961 . S
C847 H863 0.960 . S
H848 C832 0.931 . S
H849 C837 0.929 . S
H850 C838 0.960 . S
H851 C838 0.962 . S
H852 C838 0.960 . S
H853 C839 0.961 . S
H854 C839 0.961 . S
H855 C839 0.961 . S
H856 C840 0.931 . S
H857 C845 0.930 . S
H858 C846 0.956 . S
H859 C846 0.961 . S
H860 C846 0.961 . S
H861 C847 0.958 . S
H862 C847 0.961 . S
H863 C847 0.960 . S
C864 C865 1.391 . S
C864 C866 1.394 . S
C864 H880 0.931 . S
C865 C864 1.391 . S
C865 C869 1.376 . S
C866 C864 1.394 . S
C866 C867 1.369 . S
C866 C870 1.531 . S
C867 C866 1.369 . S
C867 C868 1.410 . S
C867 C875 1.503 . S
C868 C867 1.410 . S
C868 C869 1.392 . S
C868 C871 1.511 . S
C869 C865 1.376 . S
C869 C868 1.392 . S
C869 H881 0.929 . S
C870 C866 1.531 . S
C870 H882 0.960 . S
C870 H883 0.962 . S
C870 H884 0.960 . S
C871 C868 1.511 . S
C871 H885 0.961 . S
C871 H886 0.961 . S
C871 H887 0.961 . S
C872 C873 1.370 . S
C872 C874 1.363 . S
C872 H888 0.931 . S
C873 C872 1.370 . S
C873 C877 1.408 . S
C874 C872 1.363 . S
C874 C875 1.370 . S
C874 C878 1.524 . S
C875 C867 1.503 . S
C875 C874 1.370 . S
C875 C876 1.403 . S
C876 C875 1.403 . S
C876 C877 1.404 . S
C876 C879 1.539 . S
C877 C873 1.408 . S
C877 C876 1.404 . S
C877 H889 0.930 . S
C878 C874 1.524 . S
C878 H890 0.956 . S
C878 H891 0.961 . S
C878 H892 0.961 . S
C879 C876 1.539 . S
C879 H893 0.958 . S
C879 H894 0.961 . S
C879 H895 0.960 . S
H880 C864 0.931 . S
H881 C869 0.929 . S
H882 C870 0.960 . S
H883 C870 0.962 . S
H884 C870 0.960 . S
H885 C871 0.961 . S
H886 C871 0.961 . S
H887 C871 0.961 . S
H888 C872 0.931 . S
H889 C877 0.930 . S
H890 C878 0.956 . S
H891 C878 0.961 . S
H892 C878 0.961 . S
H893 C879 0.958 . S
H894 C879 0.961 . S
H895 C879 0.960 . S
C896 C897 1.391 . S
C896 C898 1.394 . S
C896 H912 0.931 . S
C897 C896 1.391 . S
C897 C901 1.376 . S
C898 C896 1.394 . S
C898 C899 1.369 . S
C898 C902 1.531 . S
C899 C898 1.369 . S
C899 C900 1.410 . S
C899 C907 1.503 . S
C900 C899 1.410 . S
C900 C901 1.392 . S
C900 C903 1.511 . S
C901 C897 1.376 . S
C901 C900 1.392 . S
C901 H913 0.929 . S
C902 C898 1.531 . S
C902 H914 0.960 . S
C902 H915 0.962 . S
C902 H916 0.960 . S
C903 C900 1.511 . S
C903 H917 0.961 . S
C903 H918 0.961 . S
C903 H919 0.961 . S
C904 C905 1.370 . S
C904 C906 1.363 . S
C904 H920 0.931 . S
C905 C904 1.370 . S
C905 C909 1.408 . S
C906 C904 1.363 . S
C906 C907 1.370 . S
C906 C910 1.524 . S
C907 C899 1.503 . S
C907 C906 1.370 . S
C907 C908 1.403 . S
C908 C907 1.403 . S
C908 C909 1.404 . S
C908 C911 1.539 . S
C909 C905 1.408 . S
C909 C908 1.404 . S
C909 H921 0.930 . S
C910 C906 1.524 . S
C910 H922 0.956 . S
C910 H923 0.961 . S
C910 H924 0.961 . S
C911 C908 1.539 . S
C911 H925 0.958 . S
C911 H926 0.961 . S
C911 H927 0.960 . S
H912 C896 0.931 . S
H913 C901 0.929 . S
H914 C902 0.960 . S
H915 C902 0.962 . S
H916 C902 0.960 . S
H917 C903 0.961 . S
H918 C903 0.961 . S
H919 C903 0.961 . S
H920 C904 0.931 . S
H921 C909 0.930 . S
H922 C910 0.956 . S
H923 C910 0.961 . S
H924 C910 0.961 . S
H925 C911 0.958 . S
H926 C911 0.961 . S
H927 C911 0.960 . S
C928 C929 1.391 . S
C928 C930 1.394 . S
C928 H944 0.931 . S
C929 C928 1.391 . S
C929 C933 1.376 . S
C930 C928 1.394 . S
C930 C931 1.369 . S
C930 C934 1.531 . S
C931 C930 1.369 . S
C931 C932 1.410 . S
C931 C939 1.503 . S
C932 C931 1.410 . S
C932 C933 1.392 . S
C932 C935 1.511 . S
C933 C929 1.376 . S
C933 C932 1.392 . S
C933 H945 0.929 . S
C934 C930 1.531 . S
C934 H946 0.960 . S
C934 H947 0.962 . S
C934 H948 0.960 . S
C935 C932 1.511 . S
C935 H949 0.961 1_565 S
C935 H950 0.961 . S
C935 H951 0.961 . S
C936 C937 1.370 . S
C936 C938 1.363 . S
C936 H952 0.931 . S
C937 C936 1.370 . S
C937 C941 1.408 . S
C938 C936 1.363 . S
C938 C939 1.370 . S
C938 C942 1.524 . S
C939 C931 1.503 . S
C939 C938 1.370 . S
C939 C940 1.403 . S
C940 C939 1.403 . S
C940 C941 1.404 . S
C940 C943 1.539 . S
C941 C937 1.408 . S
C941 C940 1.404 . S
C941 H953 0.930 . S
C942 C938 1.524 . S
C942 H954 0.956 . S
C942 H955 0.961 1_565 S
C942 H956 0.961 1_565 S
C943 C940 1.539 . S
C943 H957 0.958 . S
C943 H958 0.961 . S
C943 H959 0.960 . S
H944 C928 0.931 . S
H945 C933 0.929 . S
H946 C934 0.960 . S
H947 C934 0.962 . S
H948 C934 0.960 . S
H949 C935 0.961 1_545 S
H950 C935 0.961 . S
H951 C935 0.961 . S
H952 C936 0.931 . S
H953 C941 0.930 . S
H954 C942 0.956 . S
H955 C942 0.961 1_545 S
H956 C942 0.961 1_545 S
H957 C943 0.958 . S
H958 C943 0.961 . S
H959 C943 0.960 . S
C960 C961 1.391 . S
C960 C962 1.394 . S
C960 H976 0.931 . S
C961 C960 1.391 . S
C961 C965 1.376 . S
C962 C960 1.394 . S
C962 C963 1.369 . S
C962 C966 1.531 . S
C963 C962 1.369 . S
C963 C964 1.410 . S
C963 C971 1.503 . S
C964 C963 1.410 . S
C964 C965 1.392 . S
C964 C967 1.511 . S
C965 C961 1.376 . S
C965 C964 1.392 . S
C965 H977 0.929 . S
C966 C962 1.531 . S
C966 H978 0.960 . S
C966 H979 0.962 . S
C966 H980 0.960 . S
C967 C964 1.511 . S
C967 H981 0.961 . S
C967 H982 0.961 . S
C967 H983 0.961 . S
C968 C969 1.370 . S
C968 C970 1.363 . S
C968 H984 0.931 . S
C969 C968 1.370 . S
C969 C973 1.408 . S
C970 C968 1.363 . S
C970 C971 1.370 . S
C970 C974 1.524 1_455 S
C971 C963 1.503 . S
C971 C970 1.370 . S
C971 C972 1.403 . S
C972 C971 1.403 . S
C972 C973 1.404 . S
C972 C975 1.539 . S
C973 C969 1.408 . S
C973 C972 1.404 . S
C973 H985 0.930 . S
C974 C970 1.524 1_655 S
C974 H986 0.956 . S
C974 H987 0.961 1_655 S
C974 H988 0.961 . S
C975 C972 1.539 . S
C975 H989 0.958 . S
C975 H990 0.961 . S
C975 H991 0.960 . S
H976 C960 0.931 . S
H977 C965 0.929 . S
H978 C966 0.960 . S
H979 C966 0.962 . S
H980 C966 0.960 . S
H981 C967 0.961 . S
H982 C967 0.961 . S
H983 C967 0.961 . S
H984 C968 0.931 . S
H985 C973 0.930 . S
H986 C974 0.956 . S
H987 C974 0.961 1_455 S
H988 C974 0.961 . S
H989 C975 0.958 . S
H990 C975 0.961 . S
H991 C975 0.960 . S
C992 C993 1.391 . S
C992 C994 1.394 . S
C992 H1008 0.931 . S
C993 C992 1.391 . S
C993 C997 1.376 . S
C994 C992 1.394 . S
C994 C995 1.369 . S
C994 C998 1.531 . S
C995 C994 1.369 . S
C995 C996 1.410 . S
C995 C1003 1.503 . S
C996 C995 1.410 . S
C996 C997 1.392 . S
C996 C999 1.511 . S
C997 C993 1.376 . S
C997 C996 1.392 . S
C997 H1009 0.929 . S
C998 C994 1.531 . S
C998 H1010 0.960 . S
C998 H1011 0.962 . S
C998 H1012 0.960 . S
C999 C996 1.511 . S
C999 H1013 0.961 . S
C999 H1014 0.961 . S
C999 H1015 0.961 . S
C1000 C1001 1.370 . S
C1000 C1002 1.363 . S
C1000 H1016 0.931 . S
C1001 C1000 1.370 . S
C1001 C1005 1.408 . S
C1002 C1000 1.363 . S
C1002 C1003 1.370 . S
C1002 C1006 1.524 . S
C1003 C995 1.503 . S
C1003 C1002 1.370 . S
C1003 C1004 1.403 . S
C1004 C1003 1.403 . S
C1004 C1005 1.404 . S
C1004 C1007 1.539 . S
C1005 C1001 1.408 . S
C1005 C1004 1.404 . S
C1005 H1017 0.930 . S
C1006 C1002 1.524 . S
C1006 H1018 0.956 . S
C1006 H1019 0.961 . S
C1006 H1020 0.961 . S
C1007 C1004 1.539 . S
C1007 H1021 0.958 . S
C1007 H1022 0.961 . S
C1007 H1023 0.960 . S
H1008 C992 0.931 . S
H1009 C997 0.929 . S
H1010 C998 0.960 . S
H1011 C998 0.962 . S
H1012 C998 0.960 . S
H1013 C999 0.961 . S
H1014 C999 0.961 . S
H1015 C999 0.961 . S
H1016 C1000 0.931 . S
H1017 C1005 0.930 . S
H1018 C1006 0.956 . S
H1019 C1006 0.961 . S
H1020 C1006 0.961 . S
H1021 C1007 0.958 . S
H1022 C1007 0.961 . S
H1023 C1007 0.960 . S
C1024 C1025 1.391 . S
C1024 C1026 1.394 . S
C1024 H1040 0.931 . S
C1025 C1024 1.391 . S
C1025 C1029 1.376 . S
C1026 C1024 1.394 . S
C1026 C1027 1.369 . S
C1026 C1030 1.531 . S
C1027 C1026 1.369 . S
C1027 C1028 1.410 . S
C1027 C1035 1.503 . S
C1028 C1027 1.410 . S
C1028 C1029 1.392 . S
C1028 C1031 1.511 . S
C1029 C1025 1.376 . S
C1029 C1028 1.392 . S
C1029 H1041 0.929 . S
C1030 C1026 1.531 . S
C1030 H1042 0.960 . S
C1030 H1043 0.962 . S
C1030 H1044 0.960 . S
C1031 C1028 1.511 . S
C1031 H1045 0.961 . S
C1031 H1046 0.961 . S
C1031 H1047 0.961 . S
C1032 C1033 1.370 . S
C1032 C1034 1.363 . S
C1032 H1048 0.931 . S
C1033 C1032 1.370 . S
C1033 C1037 1.408 . S
C1034 C1032 1.363 . S
C1034 C1035 1.370 . S
C1034 C1038 1.524 . S
C1035 C1027 1.503 . S
C1035 C1034 1.370 . S
C1035 C1036 1.403 . S
C1036 C1035 1.403 . S
C1036 C1037 1.404 . S
C1036 C1039 1.539 . S
C1037 C1033 1.408 . S
C1037 C1036 1.404 . S
C1037 H1049 0.930 . S
C1038 C1034 1.524 . S
C1038 H1050 0.956 . S
C1038 H1051 0.961 . S
C1038 H1052 0.961 . S
C1039 C1036 1.539 . S
C1039 H1053 0.958 . S
C1039 H1054 0.961 . S
C1039 H1055 0.960 . S
H1040 C1024 0.931 . S
H1041 C1029 0.929 . S
H1042 C1030 0.960 . S
H1043 C1030 0.962 . S
H1044 C1030 0.960 . S
H1045 C1031 0.961 . S
H1046 C1031 0.961 . S
H1047 C1031 0.961 . S
H1048 C1032 0.931 . S
H1049 C1037 0.930 . S
H1050 C1038 0.956 . S
H1051 C1038 0.961 . S
H1052 C1038 0.961 . S
H1053 C1039 0.958 . S
H1054 C1039 0.961 . S
H1055 C1039 0.960 . S
C1056 C1057 1.391 . S
C1056 C1058 1.394 . S
C1056 H1072 0.931 . S
C1057 C1056 1.391 . S
C1057 C1061 1.376 . S
C1058 C1056 1.394 . S
C1058 C1059 1.369 . S
C1058 C1062 1.531 . S
C1059 C1058 1.369 . S
C1059 C1060 1.410 . S
C1059 C1067 1.503 . S
C1060 C1059 1.410 . S
C1060 C1061 1.392 . S
C1060 C1063 1.511 . S
C1061 C1057 1.376 . S
C1061 C1060 1.392 . S
C1061 H1073 0.929 . S
C1062 C1058 1.531 . S
C1062 H1074 0.960 . S
C1062 H1075 0.962 . S
C1062 H1076 0.960 . S
C1063 C1060 1.511 . S
C1063 H1077 0.961 . S
C1063 H1078 0.961 . S
C1063 H1079 0.961 . S
C1064 C1065 1.370 . S
C1064 C1066 1.363 . S
C1064 H1080 0.931 . S
C1065 C1064 1.370 . S
C1065 C1069 1.408 . S
C1066 C1064 1.363 . S
C1066 C1067 1.370 . S
C1066 C1070 1.524 . S
C1067 C1059 1.503 . S
C1067 C1066 1.370 . S
C1067 C1068 1.403 . S
C1068 C1067 1.403 . S
C1068 C1069 1.404 . S
C1068 C1071 1.539 . S
C1069 C1065 1.408 . S
C1069 C1068 1.404 . S
C1069 H1081 0.930 . S
C1070 C1066 1.524 . S
C1070 H1082 0.956 . S
C1070 H1083 0.961 . S
C1070 H1084 0.961 . S
C1071 C1068 1.539 . S
C1071 H1085 0.958 . S
C1071 H1086 0.961 . S
C1071 H1087 0.960 . S
H1072 C1056 0.931 . S
H1073 C1061 0.929 . S
H1074 C1062 0.960 . S
H1075 C1062 0.962 . S
H1076 C1062 0.960 . S
H1077 C1063 0.961 . S
H1078 C1063 0.961 . S
H1079 C1063 0.961 . S
H1080 C1064 0.931 . S
H1081 C1069 0.930 . S
H1082 C1070 0.956 . S
H1083 C1070 0.961 . S
H1084 C1070 0.961 . S
H1085 C1071 0.958 . S
H1086 C1071 0.961 . S
H1087 C1071 0.960 . S
C1088 C1089 1.391 . S
C1088 C1090 1.394 . S
C1088 H1104 0.931 . S
C1089 C1088 1.391 . S
C1089 C1093 1.376 . S
C1090 C1088 1.394 . S
C1090 C1091 1.369 . S
C1090 C1094 1.531 . S
C1091 C1090 1.369 . S
C1091 C1092 1.410 . S
C1091 C1099 1.503 1_556 S
C1092 C1091 1.410 . S
C1092 C1093 1.392 . S
C1092 C1095 1.511 . S
C1093 C1089 1.376 . S
C1093 C1092 1.392 . S
C1093 H1105 0.929 . S
C1094 C1090 1.531 . S
C1094 H1106 0.960 . S
C1094 H1107 0.962 . S
C1094 H1108 0.960 . S
C1095 C1092 1.511 . S
C1095 H1109 0.961 . S
C1095 H1110 0.961 1_556 S
C1095 H1111 0.961 . S
C1096 C1097 1.370 . S
C1096 C1098 1.363 . S
C1096 H1112 0.931 . S
C1097 C1096 1.370 . S
C1097 C1101 1.408 . S
C1098 C1096 1.363 . S
C1098 C1099 1.370 . S
C1098 C1102 1.524 . S
C1099 C1091 1.503 1_554 S
C1099 C1098 1.370 . S
C1099 C1100 1.403 . S
C1100 C1099 1.403 . S
C1100 C1101 1.404 . S
C1100 C1103 1.539 1_554 S
C1101 C1097 1.408 . S
C1101 C1100 1.404 . S
C1101 H1113 0.930 . S
C1102 C1098 1.524 . S
C1102 H1114 0.956 . S
C1102 H1115 0.961 . S
C1102 H1116 0.961 . S
C1103 C1100 1.539 1_556 S
C1103 H1117 0.958 . S
C1103 H1118 0.961 . S
C1103 H1119 0.960 . S
H1104 C1088 0.931 . S
H1105 C1093 0.929 . S
H1106 C1094 0.960 . S
H1107 C1094 0.962 . S
H1108 C1094 0.960 . S
H1109 C1095 0.961 . S
H1110 C1095 0.961 1_554 S
H1111 C1095 0.961 . S
H1112 C1096 0.931 . S
H1113 C1101 0.930 . S
H1114 C1102 0.956 . S
H1115 C1102 0.961 . S
H1116 C1102 0.961 . S
H1117 C1103 0.958 . S
H1118 C1103 0.961 . S
H1119 C1103 0.960 . S
C1120 C1121 1.391 . S
C1120 C1122 1.394 . S
C1120 H1136 0.931 . S
C1121 C1120 1.391 . S
C1121 C1125 1.376 . S
C1122 C1120 1.394 . S
C1122 C1123 1.369 . S
C1122 C1126 1.531 1_554 S
C1123 C1122 1.369 . S
C1123 C1124 1.410 . S
C1123 C1131 1.503 1_554 S
C1124 C1123 1.410 . S
C1124 C1125 1.392 . S
C1124 C1127 1.511 . S
C1125 C1121 1.376 . S
C1125 C1124 1.392 . S
C1125 H1137 0.929 . S
C1126 C1122 1.531 1_556 S
C1126 H1138 0.960 . S
C1126 H1139 0.962 . S
C1126 H1140 0.960 . S
C1127 C1124 1.511 . S
C1127 H1141 0.961 . S
C1127 H1142 0.961 . S
C1127 H1143 0.961 . S
C1128 C1129 1.370 . S
C1128 C1130 1.363 . S
C1128 H1144 0.931 . S
C1129 C1128 1.370 . S
C1129 C1133 1.408 . S
C1130 C1128 1.363 . S
C1130 C1131 1.370 . S
C1130 C1134 1.524 . S
C1131 C1123 1.503 1_556 S
C1131 C1130 1.370 . S
C1131 C1132 1.403 . S
C1132 C1131 1.403 . S
C1132 C1133 1.404 . S
C1132 C1135 1.539 . S
C1133 C1129 1.408 . S
C1133 C1132 1.404 . S
C1133 H1145 0.930 . S
C1134 C1130 1.524 . S
C1134 H1146 0.956 . S
C1134 H1147 0.961 1_556 S
C1134 H1148 0.961 . S
C1135 C1132 1.539 . S
C1135 H1149 0.958 . S
C1135 H1150 0.961 . S
C1135 H1151 1.018 . S
H1136 C1120 0.931 . S
H1137 C1125 0.929 . S
H1138 C1126 0.960 . S
H1139 C1126 0.962 . S
H1140 C1126 0.960 . S
H1141 C1127 0.961 . S
H1142 C1127 0.961 . S
H1143 C1127 0.961 . S
H1144 C1128 0.931 . S
H1145 C1133 0.930 . S
H1146 C1134 0.956 . S
H1147 C1134 0.961 1_554 S
H1148 C1134 0.961 . S
H1149 C1135 0.958 . S
H1150 C1135 0.961 . S
H1151 C1135 1.018 . S
C1152 C1153 1.391 . S
C1152 C1154 1.394 . S
C1152 H1168 0.931 . S
C1153 C1152 1.391 . S
C1153 C1157 1.376 . S
C1154 C1152 1.394 . S
C1154 C1155 1.369 . S
C1154 C1158 1.531 . S
C1155 C1154 1.369 . S
C1155 C1156 1.410 . S
C1155 C1163 1.503 . S
C1156 C1155 1.410 . S
C1156 C1157 1.392 . S
C1156 C1159 1.511 . S
C1157 C1153 1.376 . S
C1157 C1156 1.392 . S
C1157 H1169 0.929 . S
C1158 C1154 1.531 . S
C1158 H1170 0.960 . S
C1158 H1171 0.962 . S
C1158 H1172 0.960 . S
C1159 C1156 1.511 . S
C1159 H1173 0.961 . S
C1159 H1174 0.961 . S
C1159 H1175 0.961 . S
C1160 C1161 1.370 . S
C1160 C1162 1.363 . S
C1160 H1176 0.931 . S
C1161 C1160 1.370 . S
C1161 C1165 1.408 . S
C1162 C1160 1.363 . S
C1162 C1163 1.370 . S
C1162 C1166 1.524 . S
C1163 C1155 1.503 . S
C1163 C1162 1.370 . S
C1163 C1164 1.403 . S
C1164 C1163 1.403 . S
C1164 C1165 1.404 . S
C1164 C1167 1.539 . S
C1165 C1161 1.408 . S
C1165 C1164 1.404 . S
C1165 H1177 0.930 . S
C1166 C1162 1.524 . S
C1166 H1178 0.956 . S
C1166 H1179 0.961 . S
C1166 H1180 0.961 . S
C1167 C1164 1.539 . S
C1167 H1181 0.958 . S
C1167 H1182 0.961 . S
C1167 H1183 0.960 . S
H1168 C1152 0.931 . S
H1169 C1157 0.929 . S
H1170 C1158 0.960 . S
H1171 C1158 0.962 . S
H1172 C1158 0.960 . S
H1173 C1159 0.961 . S
H1174 C1159 0.961 . S
H1175 C1159 0.961 . S
H1176 C1160 0.931 . S
H1177 C1165 0.930 . S
H1178 C1166 0.956 . S
H1179 C1166 0.961 . S
H1180 C1166 0.961 . S
H1181 C1167 0.958 . S
H1182 C1167 0.961 . S
H1183 C1167 0.960 . S
C1184 C1185 1.391 . S
C1184 C1186 1.394 . S
C1184 H1200 0.931 . S
C1185 C1184 1.391 . S
C1185 C1189 1.376 . S
C1186 C1184 1.394 . S
C1186 C1187 1.369 . S
C1186 C1190 1.531 . S
C1187 C1186 1.369 . S
C1187 C1188 1.410 . S
C1187 C1195 1.503 . S
C1188 C1187 1.410 . S
C1188 C1189 1.392 . S
C1188 C1191 1.511 . S
C1189 C1185 1.376 . S
C1189 C1188 1.392 . S
C1189 H1201 0.929 . S
C1190 C1186 1.531 . S
C1190 H1202 0.960 . S
C1190 H1203 0.962 . S
C1190 H1204 0.960 . S
C1191 C1188 1.511 . S
C1191 H1205 0.961 . S
C1191 H1206 0.961 . S
C1191 H1207 0.961 . S
C1192 C1193 1.370 . S
C1192 C1194 1.363 . S
C1192 H1208 0.931 . S
C1193 C1192 1.370 . S
C1193 C1197 1.408 . S
C1194 C1192 1.363 . S
C1194 C1195 1.370 . S
C1194 C1198 1.524 . S
C1195 C1187 1.503 . S
C1195 C1194 1.370 . S
C1195 C1196 1.403 . S
C1196 C1195 1.403 . S
C1196 C1197 1.404 . S
C1196 C1199 1.539 . S
C1197 C1193 1.408 . S
C1197 C1196 1.404 . S
C1197 H1209 0.930 . S
C1198 C1194 1.524 . S
C1198 H1210 0.956 . S
C1198 H1211 0.961 . S
C1198 H1212 0.961 . S
C1199 C1196 1.539 . S
C1199 H1213 0.958 . S
C1199 H1214 0.961 . S
C1199 H1215 0.960 . S
H1200 C1184 0.931 . S
H1201 C1189 0.929 . S
H1202 C1190 0.960 . S
H1203 C1190 0.962 . S
H1204 C1190 0.960 . S
H1205 C1191 0.961 . S
H1206 C1191 0.961 . S
H1207 C1191 0.961 . S
H1208 C1192 0.931 . S
H1209 C1197 0.930 . S
H1210 C1198 0.956 . S
H1211 C1198 0.961 . S
H1212 C1198 0.961 . S
H1213 C1199 0.958 . S
H1214 C1199 0.961 . S
H1215 C1199 0.960 . S
C1216 C1217 1.391 . S
C1216 C1218 1.394 . S
C1216 H1232 0.931 . S
C1217 C1216 1.391 . S
C1217 C1221 1.376 . S
C1218 C1216 1.394 . S
C1218 C1219 1.369 . S
C1218 C1222 1.531 . S
C1219 C1218 1.369 . S
C1219 C1220 1.410 . S
C1219 C1227 1.503 . S
C1220 C1219 1.410 . S
C1220 C1221 1.392 . S
C1220 C1223 1.511 . S
C1221 C1217 1.376 . S
C1221 C1220 1.392 . S
C1221 H1233 0.929 . S
C1222 C1218 1.531 . S
C1222 H1234 0.960 . S
C1222 H1235 0.962 . S
C1222 H1236 0.960 . S
C1223 C1220 1.511 . S
C1223 H1237 0.961 . S
C1223 H1238 0.961 . S
C1223 H1239 0.961 . S
C1224 C1225 1.370 . S
C1224 C1226 1.363 . S
C1224 H1240 0.931 . S
C1225 C1224 1.370 . S
C1225 C1229 1.408 . S
C1226 C1224 1.363 . S
C1226 C1227 1.370 . S
C1226 C1230 1.524 . S
C1227 C1219 1.503 . S
C1227 C1226 1.370 . S
C1227 C1228 1.403 . S
C1228 C1227 1.403 . S
C1228 C1229 1.404 . S
C1228 C1231 1.539 . S
C1229 C1225 1.408 . S
C1229 C1228 1.404 . S
C1229 H1241 0.930 . S
C1230 C1226 1.524 . S
C1230 H1242 0.956 . S
C1230 H1243 0.961 . S
C1230 H1244 0.961 . S
C1231 C1228 1.539 . S
C1231 H1245 0.958 . S
C1231 H1246 0.961 . S
C1231 H1247 0.960 . S
H1232 C1216 0.931 . S
H1233 C1221 0.929 . S
H1234 C1222 0.960 . S
H1235 C1222 0.962 . S
H1236 C1222 0.960 . S
H1237 C1223 0.961 . S
H1238 C1223 0.961 . S
H1239 C1223 0.961 . S
H1240 C1224 0.931 . S
H1241 C1229 0.930 . S
H1242 C1230 0.956 . S
H1243 C1230 0.961 . S
H1244 C1230 0.961 . S
H1245 C1231 0.958 . S
H1246 C1231 0.961 . S
H1247 C1231 0.960 . S
C225 C141 2.074 . S
C233 C13 2.085 . S
C257 C15 2.059 . S
C265 C167 2.090 . S
C289 C113 2.081 . S
C297 C29 2.080 . S
C321 C139 2.068 . S
C329 C43 2.086 . S
C353 C69 2.093 . S
C361 C197 2.076 . S
C385 C211 2.098 . S
C393 C83 2.075 . S
C417 C96 2.066 . S
C425 C180 2.081 . S
C449 C182 2.082 . S
C457 C98 2.076 . S
C481 C140 1.435 . S
C489 C12 1.471 . S
C513 C14 1.491 . S
C521 C166 1.448 . S
C545 C28 1.436 . S
C553 C112 1.473 . S
C577 C42 1.489 . S
C585 C138 1.449 . S
C609 C68 1.485 . S
C617 C196 1.451 . S
C641 C82 1.477 . S
C649 C210 1.456 . S
C673 C181 1.438 . S
C681 C97 1.473 . S
C705 C183 1.490 . S
C713 C99 1.453 . S
C737 C0 1.646 . S
C745 C85 1.636 . S
C769 C26 1.655 . S
C777 C111 1.640 . S
C801 C40 1.647 . S
C809 C56 1.646 . S
C833 C54 1.650 . S
C841 C70 1.644 . S
C865 C124 1.629 . S
C873 C208 1.638 . S
C897 C222 1.621 . S
C905 C126 1.644 . S
C929 C152 1.644 . S
C937 C169 1.636 . S
C961 C195 1.627 . S
C969 C154 1.640 . S
C993 C1 1.705 . S
C1001 C223 1.732 . S
C1025 C168 1.733 . S
C1033 C27 1.719 . S
C1057 C194 1.735 . S
C1065 C41 1.719 . S
C1089 C209 1.707 . S
C1097 C55 1.732 . S
C1121 C127 1.721 . S
C1129 C57 1.724 . S
C1153 C153 1.734 . S
C1161 C71 1.719 . S
C1185 C84 1.703 . S
C1193 C155 1.731 . S
C1217 C110 1.720 . S
C1225 C125 1.724 . S
