# Generated by pormake.
# Topology pcl, (4)-cn, num edge types: 1
# Building blocks:
#     Node 0, Type 0, BuildingBlock: AZAVOO_clean_sbu_0, # of connection points: 4
#     Node 1, Type 0, BuildingBlock: AZAVOO_clean_sbu_0, # of connection points: 4
#     Node 2, Type 0, BuildingBlock: AZAVOO_clean_sbu_0, # of connection points: 4
#     Node 3, Type 0, BuildingBlock: AZAVOO_clean_sbu_0, # of connection points: 4
#     Node 4, Type 0, BuildingBlock: AZAVOO_clean_sbu_0, # of connection points: 4
#     Node 5, Type 0, BuildingBlock: AZAVOO_clean_sbu_0, # of connection points: 4
#     Node 6, Type 0, BuildingBlock: AZAVOO_clean_sbu_0, # of connection points: 4
#     Node 7, Type 0, BuildingBlock: AZAVOO_clean_sbu_0, # of connection points: 4
#     Node 8, Type 0, BuildingBlock: AZAVOO_clean_sbu_0, # of connection points: 4
#     Node 9, Type 0, BuildingBlock: AZAVOO_clean_sbu_0, # of connection points: 4
#     Node 10, Type 0, BuildingBlock: AZAVOO_clean_sbu_0, # of connection points: 4
#     Node 11, Type 0, BuildingBlock: AZAVOO_clean_sbu_0, # of connection points: 4
#     Node 12, Type 0, BuildingBlock: AZAVOO_clean_sbu_0, # of connection points: 4
#     Node 13, Type 0, BuildingBlock: AZAVOO_clean_sbu_0, # of connection points: 4
#     Node 14, Type 0, BuildingBlock: AZAVOO_clean_sbu_0, # of connection points: 4
#     Node 15, Type 0, BuildingBlock: AZAVOO_clean_sbu_0, # of connection points: 4
#     Edge 16, Type (0, 0), BuildingBlock: TEMPAE_clean_linker_10, # of connection points: 2
#     Edge 17, Type (0, 0), BuildingBlock: TEMPAE_clean_linker_10, # of connection points: 2
#     Edge 18, Type (0, 0), BuildingBlock: TEMPAE_clean_linker_10, # of connection points: 2
#     Edge 19, Type (0, 0), BuildingBlock: TEMPAE_clean_linker_10, # of connection points: 2
#     Edge 20, Type (0, 0), BuildingBlock: TEMPAE_clean_linker_10, # of connection points: 2
#     Edge 21, Type (0, 0), BuildingBlock: TEMPAE_clean_linker_10, # of connection points: 2
#     Edge 22, Type (0, 0), BuildingBlock: TEMPAE_clean_linker_10, # of connection points: 2
#     Edge 23, Type (0, 0), BuildingBlock: TEMPAE_clean_linker_10, # of connection points: 2
#     Edge 24, Type (0, 0), BuildingBlock: TEMPAE_clean_linker_10, # of connection points: 2
#     Edge 25, Type (0, 0), BuildingBlock: TEMPAE_clean_linker_10, # of connection points: 2
#     Edge 26, Type (0, 0), BuildingBlock: TEMPAE_clean_linker_10, # of connection points: 2
#     Edge 27, Type (0, 0), BuildingBlock: TEMPAE_clean_linker_10, # of connection points: 2
#     Edge 28, Type (0, 0), BuildingBlock: TEMPAE_clean_linker_10, # of connection points: 2
#     Edge 29, Type (0, 0), BuildingBlock: TEMPAE_clean_linker_10, # of connection points: 2
#     Edge 30, Type (0, 0), BuildingBlock: TEMPAE_clean_linker_10, # of connection points: 2
#     Edge 31, Type (0, 0), BuildingBlock: TEMPAE_clean_linker_10, # of connection points: 2
#     Edge 32, Type (0, 0), BuildingBlock: TEMPAE_clean_linker_10, # of connection points: 2
#     Edge 33, Type (0, 0), BuildingBlock: TEMPAE_clean_linker_10, # of connection points: 2
#     Edge 34, Type (0, 0), BuildingBlock: TEMPAE_clean_linker_10, # of connection points: 2
#     Edge 35, Type (0, 0), BuildingBlock: TEMPAE_clean_linker_10, # of connection points: 2
#     Edge 36, Type (0, 0), BuildingBlock: TEMPAE_clean_linker_10, # of connection points: 2
#     Edge 37, Type (0, 0), BuildingBlock: TEMPAE_clean_linker_10, # of connection points: 2
#     Edge 38, Type (0, 0), BuildingBlock: TEMPAE_clean_linker_10, # of connection points: 2
#     Edge 39, Type (0, 0), BuildingBlock: TEMPAE_clean_linker_10, # of connection points: 2
#     Edge 40, Type (0, 0), BuildingBlock: TEMPAE_clean_linker_10, # of connection points: 2
#     Edge 41, Type (0, 0), BuildingBlock: TEMPAE_clean_linker_10, # of connection points: 2
#     Edge 42, Type (0, 0), BuildingBlock: TEMPAE_clean_linker_10, # of connection points: 2
#     Edge 43, Type (0, 0), BuildingBlock: TEMPAE_clean_linker_10, # of connection points: 2
#     Edge 44, Type (0, 0), BuildingBlock: TEMPAE_clean_linker_10, # of connection points: 2
#     Edge 45, Type (0, 0), BuildingBlock: TEMPAE_clean_linker_10, # of connection points: 2
#     Edge 46, Type (0, 0), BuildingBlock: TEMPAE_clean_linker_10, # of connection points: 2
#     Edge 47, Type (0, 0), BuildingBlock: TEMPAE_clean_linker_10, # of connection points: 2
# Relax obj value: 0.076
# Max RMSD: 0.072
# Mean RMSD: 0.071
data_MOF--net-pcl--node1-AZAVOO_clean_sbu_0--edge1-TEMPAE_clean_linker_10
_symmetry_space_group_name_H-M    P1
_symmetry_Int_Tables_number       1
_symmetry_cell_setting            triclinic
loop_
_symmetry_equiv_pos_as_xyz
'x, y, z'
_cell_length_a     39.493323
_cell_length_b     52.282349
_cell_length_c     46.505154
_cell_angle_alpha  90.019277
_cell_angle_beta   90.010567
_cell_angle_gamma 89.911319
loop_
_atom_site_label
_atom_site_type_symbol
_atom_site_fract_x
_atom_site_fract_y
_atom_site_fract_z
_atom_type_partial_charge
Mg0 Mg 0.20484 0.36312 0.08074 0.0
O1 O 0.14806 0.36368 0.07106 0.0
O2 O 0.13991 0.37388 0.02493 0.0
Mg3 Mg 0.19233 0.37817 0.00478 0.0
C4 C 0.12851 0.36825 0.04981 0.0
C5 C 0.21858 0.34348 0.14116 0.0
O6 O 0.24899 0.34954 0.13194 0.0
O7 O 0.21001 0.32441 0.05908 0.0
O8 O 0.20178 0.33541 0.01311 0.0
O9 O 0.20166 0.40457 0.08984 0.0
O10 O 0.21359 0.38815 0.047 0.0
C11 C 0.20753 0.31863 0.0325 0.0
C12 C 0.20685 0.40786 0.06261 0.0
O13 O 0.19381 0.34536 0.12393 0.0
Mg14 Mg 0.82826 0.62409 0.56313 0.0
O15 O 0.88593 0.62692 0.56254 0.0
O16 O 0.90291 0.63006 0.51689 0.0
Mg17 Mg 0.85571 0.62866 0.4884 0.0
C18 C 0.90931 0.629 0.54377 0.0
C19 C 0.80062 0.62562 0.62359 0.0
O20 O 0.77487 0.61771 0.60807 0.0
O21 O 0.8229 0.66642 0.55333 0.0
O22 O 0.83761 0.66712 0.50694 0.0
O23 O 0.83227 0.582 0.55946 0.0
O24 O 0.82784 0.60823 0.52225 0.0
C25 C 0.82717 0.67838 0.5297 0.0
C26 C 0.83149 0.58531 0.53188 0.0
O27 O 0.82817 0.63108 0.61099 0.0
Mg28 Mg 0.18101 0.60951 0.92194 0.0
O29 O 0.12328 0.61302 0.92345 0.0
O30 O 0.1075 0.61487 0.96952 0.0
Mg31 Mg 0.15517 0.6123 -0.00276 0.0
C32 C 0.10041 0.61483 0.94274 0.0
C33 C 0.2081 0.61108 0.86174 0.0
O34 O 0.23304 0.60172 0.87725 0.0
O35 O 0.18653 0.65163 0.93289 0.0
O36 O 0.17211 0.6512 0.97937 0.0
O37 O 0.17676 0.56732 0.92438 0.0
O38 O 0.18198 0.59271 0.96225 0.0
C39 C 0.18207 0.66304 0.95685 0.0
C40 C 0.17801 0.57004 0.95204 0.0
O41 O 0.18086 0.61751 0.87429 0.0
Mg42 Mg 0.79251 0.3789 0.40605 0.0
O43 O 0.84914 0.37741 0.41637 0.0
O44 O 0.85727 0.38864 0.46222 0.0
Mg45 Mg 0.80491 0.39565 0.48156 0.0
C46 C 0.86865 0.38176 0.43771 0.0
C47 C 0.77739 0.3559 0.34734 0.0
O48 O 0.74705 0.36178 0.35691 0.0
O49 O 0.78479 0.34113 0.42904 0.0
O50 O 0.79321 0.35303 0.47469 0.0
O51 O 0.79854 0.41987 0.39544 0.0
O52 O 0.78507 0.40521 0.43873 0.0
C53 C 0.78672 0.33596 0.45579 0.0
C54 C 0.79331 0.42416 0.42249 0.0
O55 O 0.80265 0.3593 0.36373 0.0
Mg56 Mg 0.77643 0.62021 0.89283 0.0
O57 O 0.83412 0.62454 0.89417 0.0
O58 O 0.84876 0.65926 0.86914 0.0
Mg59 Mg 0.80011 0.67723 0.85191 0.0
C60 C 0.85652 0.63984 0.88442 0.0
C61 C 0.76038 0.5711 0.92582 0.0
O62 O 0.73843 0.57028 0.9046 0.0
O63 O 0.77063 0.65241 0.92531 0.0
O64 O 0.78448 0.68628 0.89839 0.0
O65 O 0.78074 0.59791 0.85238 0.0
O66 O 0.77455 0.63993 0.85413 0.0
C67 C 0.775 0.67644 0.92223 0.0
C68 C 0.77939 0.61962 0.83902 0.0
O69 O 0.77997 0.59024 0.92781 0.0
Mg70 Mg 0.19737 0.36612 0.40654 0.0
O71 O 0.13964 0.36339 0.41114 0.0
O72 O 0.12364 0.32551 0.39351 0.0
Mg73 Mg 0.17034 0.30464 0.3767 0.0
C74 C 0.11676 0.34693 0.40533 0.0
C75 C 0.21546 0.41959 0.4274 0.0
O76 O 0.23083 0.41802 0.4024 0.0
O77 O 0.20507 0.33844 0.44377 0.0
O78 O 0.1905 0.30159 0.42281 0.0
O79 O 0.19161 0.3828 0.36286 0.0
O80 O 0.19635 0.34141 0.3715 0.0
C81 C 0.20143 0.31419 0.44445 0.0
C82 C 0.19202 0.35957 0.35319 0.0
O83 O 0.19843 0.40054 0.43621 0.0
Mg84 Mg 0.79892 0.36584 0.0806 0.0
O85 O 0.85676 0.36176 0.07786 0.0
O86 O 0.87062 0.32444 0.0982 0.0
Mg87 Mg 0.82266 0.30529 0.1147 0.0
C88 C 0.87876 0.34508 0.0853 0.0
C89 C 0.78248 0.41831 0.0566 0.0
O90 O 0.76585 0.41754 0.08105 0.0
O91 O 0.79219 0.33672 0.04469 0.0
O92 O 0.80504 0.3006 0.06803 0.0
O93 O 0.80341 0.3844 0.12339 0.0
O94 O 0.7978 0.34277 0.11698 0.0
C95 C 0.79552 0.31245 0.04538 0.0
C96 C 0.802 0.36167 0.13434 0.0
O97 O 0.79991 0.39896 0.04917 0.0
Mg98 Mg 0.23273 0.61968 0.59277 0.0
O99 O 0.17502 0.62479 0.59393 0.0
O100 O 0.16244 0.65755 0.62292 0.0
Mg101 Mg 0.21218 0.6738 0.63971 0.0
C102 C 0.1535 0.63957 0.60599 0.0
C103 C 0.2468 0.57265 0.55625 0.0
O104 O 0.26947 0.57104 0.57687 0.0
O105 O 0.23674 0.65398 0.56291 0.0
O106 O 0.22395 0.68577 0.59334 0.0
O107 O 0.23015 0.59469 0.63129 0.0
O108 O 0.23688 0.63666 0.63294 0.0
C109 C 0.23192 0.67765 0.56831 0.0
C110 C 0.23237 0.61542 0.64641 0.0
O111 O 0.22717 0.5919 0.55569 0.0
Mg112 Mg 0.68742 0.8703 0.0786 0.0
O113 O 0.63033 0.8689 0.07087 0.0
O114 O 0.61966 0.87741 0.02469 0.0
Mg115 Mg 0.67087 0.88328 0.00274 0.0
C116 C 0.60965 0.87215 0.0501 0.0
C117 C 0.70546 0.85107 0.1384 0.0
O118 O 0.73517 0.85703 0.12762 0.0
O119 O 0.69409 0.83138 0.05766 0.0
O120 O 0.68405 0.84117 0.01161 0.0
O121 O 0.68268 0.91191 0.08665 0.0
O122 O 0.6935 0.89475 0.04398 0.0
C123 C 0.69152 0.82502 0.03125 0.0
C124 C 0.68696 0.9147 0.05923 0.0
O125 O 0.67948 0.85301 0.1225 0.0
Mg126 Mg 0.32858 0.12221 0.56209 0.0
O127 O 0.38624 0.12564 0.56227 0.0
O128 O 0.4036 0.12957 0.5168 0.0
Mg129 Mg 0.35691 0.1281 0.48775 0.0
C130 C 0.40976 0.12822 0.5437 0.0
C131 C 0.30022 0.12034 0.62185 0.0
O132 O 0.27628 0.11071 0.6055 0.0
O133 O 0.32273 0.16463 0.55307 0.0
O134 O 0.33793 0.16612 0.50683 0.0
O135 O 0.33333 0.08025 0.55781 0.0
O136 O 0.32905 0.10688 0.52094 0.0
C137 C 0.32708 0.17697 0.5297 0.0
C138 C 0.33292 0.08388 0.53027 0.0
O139 O 0.32718 0.12834 0.61006 0.0
Mg140 Mg 0.67983 0.11766 0.91999 0.0
O141 O 0.62228 0.12225 0.91946 0.0
O142 O 0.60423 0.12448 0.96489 0.0
Mg143 Mg 0.65045 0.12131 -0.00573 0.0
C144 C 0.5985 0.12443 0.93788 0.0
C145 C 0.70994 0.12036 0.8605 0.0
O146 O 0.73497 0.11191 0.87653 0.0
O147 O 0.68653 0.15959 0.93107 0.0
O148 O 0.66998 0.15977 0.97701 0.0
O149 O 0.67349 0.07568 0.92219 0.0
O150 O 0.67814 0.10085 0.96034 0.0
C151 C 0.68154 0.17124 0.9548 0.0
C152 C 0.67333 0.07835 0.94987 0.0
O153 O 0.68191 0.12573 0.87242 0.0
Mg154 Mg 0.29122 0.87666 0.40791 0.0
O155 O 0.34822 0.8752 0.41703 0.0
O156 O 0.3573 0.88712 0.46255 0.0
Mg157 Mg 0.30558 0.89462 0.4828 0.0
C158 C 0.36816 0.87987 0.43801 0.0
C159 C 0.27303 0.85053 0.35164 0.0
O160 O 0.24328 0.85466 0.36342 0.0
O161 O 0.28404 0.83934 0.43188 0.0
O162 O 0.29357 0.85189 0.47715 0.0
O163 O 0.29704 0.91742 0.39621 0.0
O164 O 0.28486 0.90354 0.44011 0.0
C165 C 0.28659 0.83456 0.45868 0.0
C166 C 0.29265 0.92219 0.42328 0.0
O167 O 0.29944 0.85624 0.36577 0.0
Mg168 Mg 0.27676 0.11138 0.89073 0.0
O169 O 0.3337 0.11927 0.88858 0.0
O170 O 0.34321 0.15411 0.86204 0.0
Mg171 Mg 0.29152 0.16905 0.84786 0.0
C172 C 0.35386 0.13548 0.87731 0.0
C173 C 0.26487 0.07525 0.94358 0.0
O174 O 0.23513 0.08655 0.94343 0.0
O175 O 0.27075 0.1435 0.92337 0.0
O176 O 0.28007 0.17754 0.89528 0.0
O177 O 0.2802 0.08901 0.85031 0.0
O178 O 0.26972 0.13056 0.85209 0.0
C179 C 0.27344 0.16762 0.91975 0.0
C180 C 0.27572 0.11046 0.83691 0.0
O181 O 0.28702 0.08196 0.92533 0.0
Mg182 Mg 0.69693 0.86822 0.40544 0.0
O183 O 0.63926 0.86466 0.41013 0.0
O184 O 0.62409 0.82694 0.39154 0.0
Mg185 Mg 0.67121 0.80704 0.37408 0.0
C186 C 0.61676 0.84802 0.40393 0.0
C187 C 0.71573 0.92075 0.42808 0.0
O188 O 0.7323 0.91906 0.40365 0.0
O189 O 0.70545 0.83989 0.44187 0.0
O190 O 0.69164 0.80326 0.42006 0.0
O191 O 0.69046 0.88584 0.36235 0.0
O192 O 0.69619 0.84431 0.36972 0.0
C193 C 0.70238 0.81559 0.44197 0.0
C194 C 0.69119 0.86285 0.352 0.0
O195 O 0.69752 0.90201 0.43598 0.0
Mg196 Mg 0.28144 0.86176 0.08393 0.0
O197 O 0.33949 0.8591 0.08318 0.0
O198 O 0.35451 0.82215 0.10372 0.0
Mg199 Mg 0.30671 0.80158 0.11827 0.0
C200 C 0.36206 0.8431 0.0912 0.0
C201 C 0.29765 0.91572 0.06156 0.0
O202 O 0.31226 0.91598 0.08694 0.0
O203 O 0.27807 0.83285 0.04742 0.0
O204 O 0.29194 0.79699 0.07089 0.0
O205 O 0.2828 0.87994 0.12705 0.0
O206 O 0.27967 0.83824 0.12006 0.0
C207 C 0.28293 0.80871 0.048 0.0
C208 C 0.28228 0.85709 0.13772 0.0
O209 O 0.28324 0.89535 0.05307 0.0
Mg210 Mg 0.73325 0.12253 0.59137 0.0
O211 O 0.67546 0.12698 0.59329 0.0
O212 O 0.66277 0.16037 0.62131 0.0
Mg213 Mg 0.7125 0.17771 0.63666 0.0
C214 C 0.65386 0.14181 0.60518 0.0
C215 C 0.74583 0.07381 0.55726 0.0
O216 O 0.76754 0.0721 0.5786 0.0
O217 O 0.73594 0.156 0.56022 0.0
O218 O 0.72311 0.18847 0.58971 0.0
O219 O 0.73208 0.09866 0.63082 0.0
O220 O 0.73795 0.14072 0.63083 0.0
C221 C 0.73073 0.17975 0.56485 0.0
C222 C 0.73424 0.11984 0.64514 0.0
O223 O 0.7274 0.09367 0.55537 0.0
C224 C 0.0779 0.36768 0.08208 0.0
C225 C 0.09145 0.36679 0.05421 0.0
C226 C 0.04293 0.36565 0.08671 0.0
C227 C 0.02102 0.36225 0.06293 0.0
C228 C 0.03445 0.36167 0.03471 0.0
C229 C 0.06951 0.36414 0.03068 0.0
C230 C 0.02948 0.36672 0.11709 0.0
C231 C 0.0119 0.35772 0.00887 0.0
C232 C 0.93777 0.32905 0.07844 0.0
C233 C 0.91493 0.34962 0.07879 0.0
C234 C 0.97223 0.33288 0.07276 0.0
C235 C 0.98428 0.35796 0.06775 0.0
C236 C 0.96139 0.37883 0.06796 0.0
C237 C 0.92689 0.37438 0.07325 0.0
C238 C 0.99579 0.31009 0.07227 0.0
C239 C 0.97346 0.40588 0.0631 0.0
H240 H 0.09466 0.36999 0.10036 0.0
H241 H 0.0798 0.36337 0.00909 0.0
H242 H 0.00944 0.38153 0.11882 0.0
H243 H 0.0178 0.34812 0.12279 0.0
H244 H 0.04963 0.37104 0.13303 0.0
H245 H 0.02616 0.35868 0.98831 0.0
H246 H -0.00058 0.33876 0.01031 0.0
H247 H 0.99158 0.37238 0.00846 0.0
H248 H 0.92868 0.30982 0.08243 0.0
H249 H 0.90939 0.39038 0.07361 0.0
H250 H 0.01514 0.31205 0.08942 0.0
H251 H 0.00943 0.30925 0.05143 0.0
H252 H 0.98216 0.29174 0.07548 0.0
H253 H 0.99213 0.41116 0.07992 0.0
H254 H 0.95236 0.41995 0.06357 0.0
H255 H 0.98651 0.40733 0.04205 0.0
C256 C 0.97046 0.63884 0.5351 0.0
C257 C 0.94498 0.62987 0.55351 0.0
C258 C 0.00431 0.63991 0.54416 0.0
C259 C 0.01296 0.63143 0.57213 0.0
C260 C 0.98745 0.62207 0.59069 0.0
C261 C 0.95372 0.62158 0.58124 0.0
C262 C 0.03078 0.65036 0.5239 0.0
C263 C 0.9958 0.61255 0.62053 0.0
C264 C 0.10531 0.61462 0.58501 0.0
C265 C 0.11714 0.63672 0.59885 0.0
C266 C 0.07125 0.61238 0.57676 0.0
C267 C 0.04864 0.63288 0.58211 0.0
C268 C 0.06031 0.65508 0.59639 0.0
C269 C 0.09435 0.65666 0.60477 0.0
C270 C 0.05956 0.58824 0.56196 0.0
C271 C 0.03703 0.67745 0.60219 0.0
H272 H 0.96389 0.64538 0.5137 0.0
H273 H 0.93422 0.61443 0.59552 0.0
H274 H 0.04334 0.66718 0.53377 0.0
H275 H 0.05065 0.63575 0.51999 0.0
H276 H 0.01988 0.65621 0.50288 0.0
H277 H 0.97315 0.60518 0.632 0.0
H278 H 0.01496 0.59705 0.61928 0.0
H279 H 0.007 0.62824 0.63344 0.0
H280 H 0.1227 0.59907 0.5805 0.0
H281 H 0.10328 0.67388 0.6153 0.0
H282 H 0.05086 0.59276 0.53986 0.0
H283 H 0.03769 0.57994 0.57365 0.0
H284 H 0.07991 0.5736 0.56062 0.0
H285 H 0.0272 0.68512 0.58156 0.0
H286 H 0.04994 0.69316 0.61394 0.0
H287 H 0.01489 0.67113 0.615 0.0
C288 C 0.91664 0.65465 0.88766 0.0
C289 C 0.89256 0.63526 0.89167 0.0
C290 C 0.95061 0.65096 0.89547 0.0
C291 C 0.96084 0.62721 0.90723 0.0
C292 C 0.93684 0.60739 0.91082 0.0
C293 C 0.90294 0.6117 0.90316 0.0
C294 C 0.97542 0.67265 0.89163 0.0
C295 C 0.94694 0.5817 0.92296 0.0
C296 C 0.05478 0.61163 0.90549 0.0
C297 C 0.06457 0.61739 0.93377 0.0
C298 C 0.02098 0.61435 0.89666 0.0
C299 C 0.99651 0.62338 0.91646 0.0
C300 C 0.0062 0.62918 0.94503 0.0
C301 C 0.04006 0.62596 0.95339 0.0
C302 C 0.01147 0.60767 0.86612 0.0
C303 C 0.98088 0.63915 0.96666 0.0
H304 H 0.90885 0.67295 0.87893 0.0
H305 H 0.88456 0.59656 0.90617 0.0
H306 H 0.98626 0.6781 0.91278 0.0
H307 H 0.99677 0.66646 0.87777 0.0
H308 H 0.96349 0.68983 0.88185 0.0
H309 H 0.92549 0.56798 0.92334 0.0
H310 H 0.96779 0.57333 0.91001 0.0
H311 H 0.95655 0.58407 0.94521 0.0
H312 H 0.07351 0.60485 0.89024 0.0
H313 H 0.04742 0.63059 0.97523 0.0
H314 H 0.00144 0.62484 0.85499 0.0
H315 H 0.99107 0.59309 0.86607 0.0
H316 H 0.03331 0.60015 0.85364 0.0
H317 H 0.96961 0.65729 0.95878 0.0
H318 H 0.9925 0.64268 0.98806 0.0
H319 H 0.9599 0.62526 0.96929 0.0
C320 C 0.07049 0.37828 0.41631 0.0
C321 C 0.08097 0.35291 0.41203 0.0
C322 C 0.03629 0.38419 0.42127 0.0
C323 C 0.01217 0.36422 0.42241 0.0
C324 C 0.02274 0.33854 0.41883 0.0
C325 C 0.05695 0.33322 0.41347 0.0
C326 C 0.02585 0.41183 0.42465 0.0
C327 C 0.99782 0.31668 0.42033 0.0
C328 C 0.9269 0.3757 0.45789 0.0
C329 C 0.9056 0.37838 0.43392 0.0
C330 C 0.96175 0.37139 0.45449 0.0
C331 C 0.97567 0.37011 0.42648 0.0
C332 C 0.95446 0.37345 0.40223 0.0
C333 C 0.91964 0.37736 0.40624 0.0
C334 C 0.98354 0.36758 0.48084 0.0
C335 C 0.96846 0.37254 0.37203 0.0
H336 H 0.08889 0.39361 0.4151 0.0
H337 H 0.0649 0.31354 0.41044 0.0
H338 H 0.00795 0.41715 0.40725 0.0
H339 H 0.01241 0.41459 0.44536 0.0
H340 H 0.04783 0.42505 0.42391 0.0
H341 H 0.01039 0.29773 0.41843 0.0
H342 H 0.98376 0.31735 0.44097 0.0
H343 H 0.97894 0.31851 0.40279 0.0
H344 H 0.91622 0.37637 0.47934 0.0
H345 H 0.90341 0.37965 0.38761 0.0
H346 H 0.00479 0.38142 0.48083 0.0
H347 H 0.99477 0.34812 0.48052 0.0
H348 H 0.969 0.36993 0.50112 0.0
H349 H 0.98943 0.38649 0.36972 0.0
H350 H 0.94888 0.37683 0.35556 0.0
H351 H 0.97907 0.35328 0.3676 0.0
C352 C 0.40882 0.87347 0.07858 0.0
C353 C 0.39813 0.84857 0.08517 0.0
C354 C 0.44301 0.8787 0.07278 0.0
C355 C 0.4669 0.85848 0.07313 0.0
C356 C 0.45621 0.8333 0.07952 0.0
C357 C 0.42202 0.82869 0.08568 0.0
C358 C 0.45363 0.90586 0.06647 0.0
C359 C 0.48085 0.81117 0.0797 0.0
C360 C 0.55015 0.86549 0.03312 0.0
C361 C 0.57292 0.8697 0.05577 0.0
C362 C 0.51545 0.86218 0.0384 0.0
C363 C 0.5032 0.86352 0.06697 0.0
C364 C 0.52591 0.86844 0.08984 0.0
C365 C 0.56054 0.87127 0.084 0.0
C366 C 0.49204 0.85659 0.01351 0.0
C367 C 0.51371 0.87036 0.12055 0.0
H368 H 0.39052 0.88894 0.07827 0.0
H369 H 0.41394 0.80936 0.0905 0.0
H370 H 0.473 0.91208 0.08226 0.0
H371 H 0.46538 0.90695 0.04485 0.0
H372 H 0.43198 0.91944 0.06728 0.0
H373 H 0.46831 0.79265 0.0845 0.0
H374 H 0.49359 0.80965 0.0585 0.0
H375 H 0.50084 0.8145 0.09603 0.0
H376 H 0.55955 0.86418 0.01127 0.0
H377 H 0.57793 0.87477 0.1016 0.0
H378 H 0.47112 0.87076 0.01293 0.0
H379 H 0.48042 0.83745 0.01636 0.0
H380 H 0.5054 0.85697 0.99249 0.0
H381 H 0.49307 0.88471 0.12219 0.0
H382 H 0.5343 0.87581 0.13562 0.0
H383 H 0.50314 0.85172 0.12751 0.0
C384 C 0.60589 0.11597 0.58522 0.0
C385 C 0.61743 0.13834 0.59868 0.0
C386 C 0.57178 0.11323 0.57731 0.0
C387 C 0.5488 0.13349 0.58266 0.0
C388 C 0.56013 0.15591 0.5967 0.0
C389 C 0.59424 0.158 0.60471 0.0
C390 C 0.56048 0.08888 0.56275 0.0
C391 C 0.53643 0.17802 0.6025 0.0
C392 C 0.47079 0.13862 0.53536 0.0
C393 C 0.44534 0.12945 0.55366 0.0
C394 C 0.50457 0.14002 0.54455 0.0
C395 C 0.51318 0.13169 0.57258 0.0
C396 C 0.48771 0.12214 0.59106 0.0
C397 C 0.45404 0.1213 0.58146 0.0
C398 C 0.53098 0.15064 0.52435 0.0
C399 C 0.49604 0.1128 0.62097 0.0
H400 H 0.62358 0.10062 0.58063 0.0
H401 H 0.60291 0.17541 0.61498 0.0
H402 H 0.53862 0.08053 0.57441 0.0
H403 H 0.5519 0.09314 0.54055 0.0
H404 H 0.58102 0.07436 0.56168 0.0
H405 H 0.549 0.19382 0.61437 0.0
H406 H 0.52661 0.18567 0.58186 0.0
H407 H 0.51431 0.17145 0.61518 0.0
H408 H 0.46427 0.14506 0.5139 0.0
H409 H 0.43457 0.114 0.59567 0.0
H410 H 0.55108 0.13619 0.52056 0.0
H411 H 0.54325 0.1676 0.53421 0.0
H412 H 0.5201 0.15635 0.50327 0.0
H413 H 0.51542 0.09744 0.61986 0.0
H414 H 0.47344 0.10529 0.63239 0.0
H415 H 0.50697 0.12862 0.63385 0.0
C416 C 0.53739 0.13463 0.9463 0.0
C417 C 0.56311 0.12649 0.9276 0.0
C418 C 0.50367 0.13628 0.93702 0.0
C419 C 0.4954 0.12929 0.90846 0.0
C420 C 0.52119 0.1211 0.88945 0.0
C421 C 0.55479 0.11995 0.89919 0.0
C422 C 0.47687 0.14541 0.95781 0.0
C423 C 0.51324 0.11324 0.85894 0.0
C424 C 0.40383 0.11078 0.89542 0.0
C425 C 0.39056 0.13328 0.88339 0.0
C426 C 0.43814 0.10899 0.90296 0.0
C427 C 0.45961 0.13031 0.89868 0.0
C428 C 0.44656 0.1529 0.88607 0.0
C429 C 0.41223 0.15406 0.8784 0.0
C430 C 0.45127 0.08446 0.91601 0.0
C431 C 0.46864 0.1761 0.88144 0.0
H432 H 0.54361 0.13987 0.96822 0.0
H433 H 0.57448 0.11351 0.88464 0.0
H434 H 0.46344 0.16224 0.94876 0.0
H435 H 0.45775 0.13018 0.96115 0.0
H436 H 0.48764 0.15079 0.97904 0.0
H437 H 0.53625 0.10747 0.84681 0.0
H438 H 0.49522 0.09697 0.85902 0.0
H439 H 0.50079 0.12924 0.84736 0.0
H440 H 0.38733 0.09457 0.89917 0.0
H441 H 0.40219 0.17155 0.86924 0.0
H442 H 0.45991 0.08804 0.93835 0.0
H443 H 0.47347 0.07742 0.90369 0.0
H444 H 0.43174 0.06919 0.91645 0.0
H445 H 0.47801 0.18322 0.90246 0.0
H446 H 0.4549 0.19187 0.87046 0.0
H447 H 0.49113 0.17092 0.86839 0.0
C448 C 0.42672 0.87399 0.45753 0.0
C449 C 0.40505 0.87653 0.43378 0.0
C450 C 0.46158 0.86999 0.45379 0.0
C451 C 0.47515 0.8689 0.42566 0.0
C452 C 0.45354 0.87201 0.40161 0.0
C453 C 0.41871 0.87558 0.40596 0.0
C454 C 0.48378 0.86638 0.47993 0.0
C455 C 0.46717 0.87131 0.37128 0.0
C456 C 0.56966 0.8786 0.41511 0.0
C457 C 0.58084 0.85341 0.41073 0.0
C458 C 0.53532 0.88396 0.42012 0.0
C459 C 0.51176 0.8636 0.42126 0.0
C460 C 0.52302 0.8381 0.41757 0.0
C461 C 0.55737 0.83334 0.41212 0.0
C462 C 0.52412 0.91141 0.42359 0.0
C463 C 0.49873 0.81585 0.41912 0.0
H464 H 0.41633 0.87459 0.47909 0.0
H465 H 0.40217 0.87775 0.38751 0.0
H466 H 0.49566 0.84714 0.47933 0.0
H467 H 0.50456 0.88062 0.47989 0.0
H468 H 0.4694 0.86831 0.50035 0.0
H469 H 0.44725 0.87527 0.355 0.0
H470 H 0.48769 0.88561 0.36878 0.0
H471 H 0.4783 0.85224 0.36676 0.0
H472 H 0.58764 0.89421 0.41391 0.0
H473 H 0.56586 0.8138 0.40901 0.0
H474 H 0.51092 0.91396 0.44444 0.0
H475 H 0.50581 0.91643 0.40638 0.0
H476 H 0.54569 0.925 0.42262 0.0
H477 H 0.48486 0.81621 0.43986 0.0
H478 H 0.5118 0.79711 0.41702 0.0
H479 H 0.47963 0.81745 0.40172 0.0
C480 C 0.17934 0.33619 0.18255 0.0
C481 C 0.21244 0.33927 0.17214 0.0
C482 C 0.17265 0.33646 0.21217 0.0
C483 C 0.19971 0.33995 0.2317 0.0
C484 C 0.23337 0.34143 0.22138 0.0
C485 C 0.23934 0.34099 0.1917 0.0
C486 C 0.13649 0.33443 0.22245 0.0
C487 C 0.26294 0.345 0.2416 0.0
C488 C 0.18641 0.37426 0.30242 0.0
C489 C 0.18922 0.35411 0.32213 0.0
C490 C 0.18827 0.36972 0.27277 0.0
C491 C 0.19288 0.3444 0.26265 0.0
C492 C 0.19383 0.32383 0.28235 0.0
C493 C 0.19215 0.32894 0.31191 0.0
C494 C 0.18707 0.39217 0.25235 0.0
C495 C 0.19831 0.29656 0.27231 0.0
H496 H 0.15842 0.33464 0.16756 0.0
H497 H 0.26501 0.34316 0.18384 0.0
H498 H 0.13453 0.32055 0.2404 0.0
H499 H 0.12798 0.35328 0.23073 0.0
H500 H 0.11902 0.32845 0.20498 0.0
H501 H 0.28768 0.34384 0.23032 0.0
H502 H 0.26102 0.36398 0.25217 0.0
H503 H 0.26243 0.33031 0.25879 0.0
H504 H 0.184 0.39374 0.31015 0.0
H505 H 0.19437 0.31325 0.32699 0.0
H506 H 0.16784 0.38887 0.23537 0.0
H507 H 0.21195 0.39426 0.24153 0.0
H508 H 0.18101 0.4104 0.26352 0.0
H509 H 0.1806 0.29222 0.25445 0.0
H510 H 0.19408 0.28257 0.28992 0.0
H511 H 0.2244 0.29391 0.26397 0.0
C512 C 0.82673 0.63207 0.67205 0.0
C513 C 0.79817 0.62645 0.65527 0.0
C514 C 0.82506 0.63155 0.70216 0.0
C515 C 0.79407 0.62536 0.71572 0.0
C516 C 0.76503 0.62008 0.69892 0.0
C517 C 0.76745 0.62067 0.66888 0.0
C518 C 0.85651 0.63729 0.71946 0.0
C519 C 0.73151 0.61353 0.71269 0.0
C520 C 0.79405 0.59955 0.79188 0.0
C521 C 0.78453 0.62125 0.80764 0.0
C522 C 0.7979 0.60074 0.76193 0.0
C523 C 0.79195 0.62415 0.74751 0.0
C524 C 0.78279 0.6462 0.76335 0.0
C525 C 0.77917 0.64447 0.79325 0.0
C526 C 0.8078 0.57685 0.74568 0.0
C527 C 0.77617 0.67148 0.74865 0.0
H528 H 0.85057 0.63653 0.66166 0.0
H529 H 0.74525 0.61636 0.65606 0.0
H530 H 0.85166 0.65347 0.73436 0.0
H531 H 0.86332 0.62047 0.73281 0.0
H532 H 0.87848 0.6422 0.70561 0.0
H533 H 0.71119 0.61039 0.69655 0.0
H534 H 0.73418 0.59595 0.72586 0.0
H535 H 0.7235 0.62915 0.72736 0.0
H536 H 0.7983 0.58156 0.8029 0.0
H537 H 0.77153 0.66127 0.80526 0.0
H538 H 0.83086 0.58047 0.73269 0.0
H539 H 0.7873 0.57149 0.73053 0.0
H540 H 0.81275 0.56041 0.76023 0.0
H541 H 0.79842 0.67711 0.73556 0.0
H542 H 0.77059 0.68705 0.76422 0.0
H543 H 0.75436 0.66959 0.73376 0.0
C544 C 0.24188 0.60625 0.81676 0.0
C545 C 0.21126 0.61277 0.83016 0.0
C546 C 0.24506 0.60683 0.78677 0.0
C547 C 0.21689 0.61405 0.76981 0.0
C548 C 0.18597 0.62084 0.78316 0.0
C549 C 0.18353 0.62017 0.81323 0.0
C550 C 0.2785 0.5996 0.77324 0.0
C551 C 0.15542 0.62862 0.76567 0.0
C552 C 0.23459 0.6371 0.69412 0.0
C553 C 0.22784 0.61508 0.67789 0.0
C554 C 0.23076 0.63711 0.72406 0.0
C555 C 0.21993 0.61455 0.73805 0.0
C556 C 0.21285 0.59229 0.7218 0.0
C557 C 0.21698 0.5928 0.69186 0.0
C558 C 0.23871 0.66116 0.74074 0.0
C559 C 0.20117 0.56791 0.73607 0.0
H560 H 0.26344 0.60055 0.8297 0.0
H561 H 0.15976 0.62519 0.82346 0.0
H562 H 0.27503 0.58297 0.75872 0.0
H563 H 0.28807 0.61565 0.75994 0.0
H564 H 0.29803 0.59465 0.78951 0.0
H565 H 0.13326 0.63341 0.77938 0.0
H566 H 0.16161 0.64548 0.75219 0.0
H567 H 0.1482 0.61289 0.75088 0.0
H568 H 0.24332 0.6543 0.68349 0.0
H569 H 0.21167 0.57575 0.6794 0.0
H570 H 0.25972 0.65743 0.75603 0.0
H571 H 0.21639 0.66707 0.75363 0.0
H572 H 0.24606 0.67728 0.72651 0.0
H573 H 0.22081 0.56105 0.7513 0.0
H574 H 0.19591 0.55247 0.72026 0.0
H575 H 0.17785 0.57157 0.74872 0.0
C576 C 0.80713 0.37857 0.18427 0.0
C577 C 0.80406 0.3576 0.16571 0.0
C578 C 0.80516 0.3754 0.21412 0.0
C579 C 0.80021 0.35062 0.22565 0.0
C580 C 0.79875 0.32921 0.20712 0.0
C581 C 0.80051 0.33297 0.17731 0.0
C582 C 0.80684 0.39872 0.23326 0.0
C583 C 0.79389 0.30248 0.21869 0.0
C584 C 0.81549 0.3461 0.30584 0.0
C585 C 0.78269 0.35003 0.31659 0.0
C586 C 0.82146 0.34479 0.27615 0.0
C587 C 0.79399 0.3476 0.25689 0.0
C588 C 0.7606 0.34992 0.26765 0.0
C589 C 0.75534 0.35101 0.29741 0.0
C590 C 0.85734 0.34187 0.26542 0.0
C591 C 0.73062 0.35284 0.24774 0.0
H592 H 0.80997 0.39764 0.17546 0.0
H593 H 0.79802 0.31665 0.16313 0.0
H594 H 0.78221 0.40138 0.24437 0.0
H595 H 0.82644 0.39607 0.25009 0.0
H596 H 0.81269 0.41642 0.22103 0.0
H597 H 0.79735 0.28768 0.20179 0.0
H598 H 0.81195 0.29864 0.23644 0.0
H599 H 0.76797 0.3006 0.22763 0.0
H600 H 0.83674 0.34508 0.32055 0.0
H601 H 0.72989 0.35385 0.30555 0.0
H602 H 0.86593 0.3602 0.25588 0.0
H603 H 0.85869 0.32713 0.24829 0.0
H604 H 0.87513 0.33654 0.28293 0.0
H605 H 0.73243 0.37135 0.23617 0.0
H606 H 0.70612 0.35233 0.25946 0.0
H607 H 0.73063 0.33746 0.23132 0.0
C608 C 0.69069 0.83322 0.30981 0.0
C609 C 0.68751 0.85809 0.32086 0.0
C610 C 0.69097 0.82881 0.28007 0.0
C611 C 0.68832 0.8498 0.26104 0.0
C612 C 0.68368 0.8748 0.27206 0.0
C613 C 0.68324 0.87864 0.30187 0.0
C614 C 0.69559 0.80185 0.26906 0.0
C615 C 0.68072 0.89768 0.25238 0.0
C616 C 0.72977 0.84837 0.18779 0.0
C617 C 0.70159 0.84655 0.16959 0.0
C618 C 0.7259 0.84826 0.21772 0.0
C619 C 0.69307 0.8461 0.22969 0.0
C620 C 0.66476 0.84259 0.21149 0.0
C621 C 0.66935 0.8429 0.18159 0.0
C622 C 0.75675 0.85191 0.23649 0.0
C623 C 0.62945 0.83987 0.22354 0.0
H624 H 0.69407 0.81723 0.32432 0.0
H625 H 0.68065 0.89789 0.31027 0.0
H626 H 0.67666 0.79753 0.25212 0.0
H627 H 0.72103 0.7999 0.25918 0.0
H628 H 0.69323 0.78742 0.28646 0.0
H629 H 0.67513 0.9156 0.26433 0.0
H630 H 0.70477 0.90027 0.24041 0.0
H631 H 0.66042 0.89454 0.23629 0.0
H632 H 0.75478 0.85101 0.17869 0.0
H633 H 0.64745 0.84126 0.16765 0.0
H634 H 0.75782 0.8369 0.25332 0.0
H635 H 0.75511 0.87066 0.2476 0.0
H636 H 0.78067 0.85133 0.22395 0.0
H637 H 0.62905 0.82549 0.24106 0.0
H638 H 0.61085 0.83417 0.20681 0.0
H639 H 0.62121 0.85838 0.23292 0.0
C640 C 0.29233 0.09154 0.78965 0.0
C641 C 0.27972 0.1123 0.80544 0.0
C642 C 0.29628 0.09316 0.75974 0.0
C643 C 0.28724 0.11605 0.7454 0.0
C644 C 0.27454 0.13707 0.76123 0.0
C645 C 0.27091 0.13493 0.79109 0.0
C646 C 0.30998 0.07038 0.74348 0.0
C647 C 0.2645 0.16174 0.7466 0.0
C648 C 0.32348 0.12798 0.67112 0.0
C649 C 0.29656 0.1203 0.65345 0.0
C650 C 0.32076 0.1268 0.70116 0.0
C651 C 0.29039 0.11782 0.71371 0.0
C652 C 0.26298 0.1104 0.69601 0.0
C653 C 0.26641 0.11171 0.66607 0.0
C654 C 0.35049 0.13488 0.71944 0.0
C655 C 0.23013 0.10085 0.7087 0.0
H656 H 0.29924 0.07401 0.80065 0.0
H657 H 0.26082 0.15096 0.80314 0.0
H658 H 0.29101 0.06374 0.72755 0.0
H659 H 0.33302 0.07591 0.73136 0.0
H660 H 0.31641 0.05417 0.75793 0.0
H661 H 0.25566 0.17646 0.76212 0.0
H662 H 0.28629 0.16957 0.73441 0.0
H663 H 0.24393 0.15805 0.73089 0.0
H664 H 0.34687 0.13461 0.6615 0.0
H665 H 0.24548 0.10579 0.65255 0.0
H666 H 0.35912 0.11857 0.73284 0.0
H667 H 0.34275 0.15041 0.73433 0.0
H668 H 0.37217 0.1417 0.70632 0.0
H669 H 0.23491 0.08344 0.72173 0.0
H670 H 0.21107 0.0962 0.69193 0.0
H671 H 0.21927 0.11549 0.72331 0.0
C672 C 0.74479 0.11593 0.81603 0.0
C673 C 0.71369 0.12188 0.82895 0.0
C674 C 0.74835 0.11597 0.78606 0.0
C675 C 0.7201 0.12207 0.76865 0.0
C676 C 0.68875 0.12846 0.78153 0.0
C677 C 0.68592 0.12833 0.81158 0.0
C678 C 0.78223 0.1092 0.77301 0.0
C679 C 0.65811 0.13509 0.76357 0.0
C680 C 0.73663 0.14298 0.69198 0.0
C681 C 0.73041 0.12035 0.67669 0.0
C682 C 0.73317 0.14386 0.72194 0.0
C683 C 0.72331 0.12154 0.73691 0.0
C684 C 0.71696 0.09863 0.72162 0.0
C685 C 0.72066 0.09829 0.69164 0.0
C686 C 0.74027 0.1686 0.73758 0.0
C687 C 0.70636 0.07447 0.73695 0.0
H688 H 0.76637 0.11098 0.82932 0.0
H689 H 0.6618 0.13293 0.82142 0.0
H690 H 0.77966 0.09193 0.75931 0.0
H691 H 0.7911 0.12498 0.75898 0.0
H692 H 0.80186 0.10542 0.78959 0.0
H693 H 0.63573 0.14002 0.77695 0.0
H694 H 0.66389 0.15153 0.74931 0.0
H695 H 0.65144 0.11869 0.74952 0.0
H696 H 0.74455 0.16002 0.68059 0.0
H697 H 0.71579 0.08076 0.67992 0.0
H698 H 0.76127 0.1658 0.75312 0.0
H699 H 0.71768 0.17456 0.75009 0.0
H700 H 0.74723 0.18434 0.72268 0.0
H701 H 0.72615 0.06873 0.75261 0.0
H702 H 0.70199 0.05834 0.72186 0.0
H703 H 0.68275 0.07795 0.74929 0.0
C704 C 0.28718 0.87372 0.18776 0.0
C705 C 0.28471 0.85282 0.16904 0.0
C706 C 0.28688 0.87023 0.21761 0.0
C707 C 0.2843 0.84518 0.22898 0.0
C708 C 0.28294 0.82392 0.21024 0.0
C709 C 0.28293 0.828 0.18043 0.0
C710 C 0.28828 0.89341 0.23698 0.0
C711 C 0.28054 0.79694 0.22165 0.0
C712 C 0.30751 0.84137 0.30776 0.0
C713 C 0.27566 0.8442 0.32075 0.0
C714 C 0.31064 0.84 0.27777 0.0
C715 C 0.28124 0.84165 0.2605 0.0
C716 C 0.2489 0.84269 0.27356 0.0
C717 C 0.24649 0.84383 0.30358 0.0
C718 C 0.34551 0.83841 0.26458 0.0
C719 C 0.21694 0.84441 0.25581 0.0
H720 H 0.28858 0.89294 0.17912 0.0
H721 H 0.2808 0.81174 0.16613 0.0
H722 H 0.26465 0.8947 0.24982 0.0
H723 H 0.30965 0.89163 0.25232 0.0
H724 H 0.29133 0.91149 0.22471 0.0
H725 H 0.28289 0.78242 0.20431 0.0
H726 H 0.30061 0.79344 0.23787 0.0
H727 H 0.25582 0.79425 0.23255 0.0
H728 H 0.33017 0.84135 0.32093 0.0
H729 H 0.22178 0.84581 0.31346 0.0
H730 H 0.352 0.85707 0.25465 0.0
H731 H 0.34614 0.8238 0.24728 0.0
H732 H 0.36523 0.83367 0.28077 0.0
H733 H 0.21609 0.86315 0.24463 0.0
H734 H 0.19375 0.84254 0.26916 0.0
H735 H 0.21664 0.82932 0.23906 0.0
C736 C 0.24314 0.17937 0.96513 0.0
C737 C 0.26729 0.18513 0.94403 0.0
C738 C 0.23288 0.19803 0.98508 0.0
C739 C 0.24754 0.22272 0.98395 0.0
C740 C 0.27405 0.22777 0.96428 0.0
C741 C 0.28339 0.20897 0.94441 0.0
C742 C 0.20461 0.19194 0.00578 0.0
C743 C 0.29086 0.25367 0.96273 0.0
C744 C 0.19871 0.28343 -0.00253 0.0
C745 C 0.2132 0.29199 0.0232 0.0
C746 C 0.20769 0.25975 0.9857 0.0
C747 C 0.23219 0.24445 -0.00019 0.0
C748 C 0.24515 0.25216 0.02684 0.0
C749 C 0.2353 0.27588 0.03836 0.0
C750 C 0.19274 0.25202 0.95708 0.0
C751 C 0.27128 0.23636 0.04251 0.0
H752 H 0.23073 0.16089 0.96489 0.0
H753 H 0.30252 0.21327 0.9284 0.0
H754 H 0.20994 0.19997 0.02739 0.0
H755 H 0.18079 0.2008 -0.00206 0.0
H756 H 0.20051 0.171 0.0078 0.0
H757 H 0.31374 0.25345 0.94883 0.0
H758 H 0.27273 0.26787 0.95387 0.0
H759 H 0.29828 0.26026 0.98451 0.0
H760 H 0.18114 0.29567 0.98597 0.0
H761 H 0.24649 0.28245 0.05834 0.0
H762 H 0.18396 0.23189 0.95778 0.0
H763 H 0.21246 0.25337 0.94015 0.0
H764 H 0.17111 0.26441 0.95077 0.0
H765 H 0.26477 0.21574 0.04175 0.0
H766 H 0.27388 0.24231 0.06534 0.0
H767 H 0.29621 0.23871 0.03185 0.0
C768 C 0.79245 0.71547 0.54717 0.0
C769 C 0.81521 0.70513 0.52707 0.0
C770 C 0.77431 0.73795 0.54098 0.0
C771 C 0.779 0.75006 0.51408 0.0
C772 C 0.80475 0.74132 0.49529 0.0
C773 C 0.82262 0.719 0.50208 0.0
C774 C 0.74801 0.74725 0.56208 0.0
C775 C 0.81106 0.75391 0.46655 0.0
C776 C 0.70739 0.77461 0.4687 0.0
C777 C 0.71565 0.80059 0.46648 0.0
C778 C 0.72594 0.75826 0.48656 0.0
C779 C 0.75331 0.7682 0.50273 0.0
C780 C 0.75914 0.7949 0.50324 0.0
C781 C 0.74023 0.81087 0.48496 0.0
C782 C 0.71838 0.72994 0.48574 0.0
C783 C 0.78723 0.80635 0.52102 0.0
H784 H 0.78691 0.70511 0.5668 0.0
H785 H 0.84079 0.71149 0.48677 0.0
H786 H 0.746 0.76842 0.56183 0.0
H787 H 0.72294 0.73934 0.55605 0.0
H788 H 0.75392 0.74084 0.5843 0.0
H789 H 0.83435 0.74655 0.45598 0.0
H790 H 0.78924 0.75025 0.45208 0.0
H791 H 0.81345 0.77491 0.4691 0.0
H792 H 0.68784 0.76666 0.455 0.0
H793 H 0.74646 0.83102 0.48368 0.0
H794 H 0.71706 0.72205 0.50783 0.0
H795 H 0.73908 0.71981 0.47427 0.0
H796 H 0.69415 0.72572 0.47458 0.0
H797 H 0.7903 0.79606 0.54172 0.0
H798 H 0.78248 0.82692 0.52551 0.0
H799 H 0.81144 0.8048 0.50905 0.0
C800 C 0.24971 0.80115 0.00289 0.0
C801 C 0.27425 0.79296 0.02269 0.0
C802 C 0.2348 0.7837 0.98372 0.0
C803 C 0.24466 0.75768 0.98469 0.0
C804 C 0.27237 0.75018 0.00209 0.0
C805 C 0.28684 0.76795 0.02087 0.0
C806 C 0.20632 0.79263 0.96458 0.0
C807 C 0.28426 0.72272 0.00338 0.0
C808 C 0.18213 0.70371 0.98453 0.0
C809 C 0.19193 0.69018 0.95988 0.0
C810 C 0.19697 0.72717 0.99142 0.0
C811 C 0.22215 0.73745 0.9731 0.0
C812 C 0.22941 0.72534 0.94658 0.0
C813 C 0.21424 0.70169 0.94028 0.0
C814 C 0.188 0.73963 0.01975 0.0
C815 C 0.2552 0.73612 0.92599 0.0
H816 H 0.24022 0.8206 0.00388 0.0
H817 H 0.30648 0.76173 0.0356 0.0
H818 H 0.20638 0.78221 0.94378 0.0
H819 H 0.18176 0.78884 0.97532 0.0
H820 H 0.20801 0.8135 0.9603 0.0
H821 H 0.30854 0.72071 0.01525 0.0
H822 H 0.26485 0.71092 0.0144 0.0
H823 H 0.28766 0.71488 0.98142 0.0
H824 H 0.16424 0.69524 -0.00059 0.0
H825 H 0.2216 0.69152 0.92094 0.0
H826 H 0.18255 0.76025 0.01666 0.0
H827 H 0.2098 0.73807 0.03473 0.0
H828 H 0.16565 0.73058 0.03006 0.0
H829 H 0.25516 0.75734 0.92632 0.0
H830 H 0.25044 0.72947 0.90366 0.0
H831 H 0.28083 0.72952 0.93238 0.0
C832 C 0.71607 0.22101 0.54168 0.0
C833 C 0.73497 0.19833 0.54133 0.0
C834 C 0.72334 0.24092 0.52261 0.0
C835 C 0.75062 0.23824 0.50312 0.0
C836 C 0.7682 0.21466 0.50122 0.0
C837 C 0.75995 0.1948 0.52031 0.0
C838 C 0.70348 0.26556 0.52491 0.0
C839 C 0.79745 0.21112 0.48073 0.0
C840 C 0.75988 0.29287 0.45003 0.0
C841 C 0.78066 0.30956 0.46571 0.0
C842 C 0.75106 0.26882 0.4612 0.0
C843 C 0.76375 0.26134 0.4884 0.0
C844 C 0.78645 0.2775 0.50337 0.0
C845 C 0.79441 0.30148 0.49194 0.0
C846 C 0.72667 0.25215 0.44472 0.0
C847 C 0.80101 0.27006 0.53224 0.0
H848 H 0.69632 0.22355 0.55764 0.0
H849 H 0.77453 0.17722 0.52 0.0
H850 H 0.71958 0.28051 0.53489 0.0
H851 H 0.69601 0.27248 0.50327 0.0
H852 H 0.6803 0.26332 0.5382 0.0
H853 H 0.8044 0.19064 0.47822 0.0
H854 H 0.79136 0.21915 0.45927 0.0
H855 H 0.81984 0.22156 0.48906 0.0
H856 H 0.74925 0.29907 0.42969 0.0
H857 H 0.81096 0.31415 0.50388 0.0
H858 H 0.70159 0.25256 0.45547 0.0
H859 H 0.73541 0.23198 0.44454 0.0
H860 H 0.72338 0.25873 0.42218 0.0
H861 H 0.78052 0.26969 0.54856 0.0
H862 H 0.82086 0.28359 0.53963 0.0
H863 H 0.81213 0.25058 0.53122 0.0
C864 C 0.68722 0.78923 -0.00373 0.0
C865 C 0.69979 0.79863 0.02237 0.0
C866 C 0.69894 0.76609 0.98488 0.0
C867 C 0.72418 0.75216 -0.00018 0.0
C868 C 0.73524 0.7606 0.02717 0.0
C869 C 0.72274 0.78377 0.03825 0.0
C870 C 0.68601 0.75752 0.95586 0.0
C871 C 0.76203 0.74622 0.04375 0.0
C872 C 0.74182 0.6874 0.96642 0.0
C873 C 0.76652 0.69397 0.94606 0.0
C874 C 0.72921 0.70576 0.98574 0.0
C875 C 0.74193 0.73104 0.9847 0.0
C876 C 0.76891 0.73707 0.96586 0.0
C877 C 0.78072 0.7185 0.94665 0.0
C878 C 0.70057 0.69859 0.00562 0.0
C879 C 0.78365 0.76369 0.96445 0.0
H880 H 0.66904 0.80046 0.98417 0.0
H881 H 0.73248 0.79095 0.05849 0.0
H882 H 0.70638 0.75966 0.9396 0.0
H883 H 0.67883 0.73703 0.95647 0.0
H884 H 0.66374 0.76885 0.94869 0.0
H885 H 0.76321 0.75244 0.06658 0.0
H886 H 0.75732 0.72532 0.04304 0.0
H887 H 0.78712 0.7497 0.03376 0.0
H888 H 0.73083 0.66841 0.96609 0.0
H889 H 0.80026 0.72351 0.93128 0.0
H890 H 0.67648 0.70639 -0.00301 0.0
H891 H 0.70438 0.70696 0.0273 0.0
H892 H 0.69793 0.67752 0.00772 0.0
H893 H 0.76478 0.77694 0.95486 0.0
H894 H 0.80707 0.76441 0.95125 0.0
H895 H 0.78958 0.77081 0.98634 0.0
C896 C 0.29281 0.21393 0.54826 0.0
C897 C 0.31487 0.2037 0.52753 0.0
C898 C 0.27455 0.23649 0.54273 0.0
C899 C 0.27833 0.24877 0.51583 0.0
C900 C 0.30338 0.2401 0.49632 0.0
C901 C 0.32145 0.21774 0.50249 0.0
C902 C 0.24913 0.24573 0.56461 0.0
C903 C 0.30871 0.25286 0.46751 0.0
C904 C 0.20572 0.27361 0.47198 0.0
C905 C 0.21447 0.29946 0.46924 0.0
C906 C 0.22439 0.25724 0.48971 0.0
C907 C 0.25234 0.26704 0.50525 0.0
C908 C 0.25851 0.2937 0.5055 0.0
C909 C 0.23951 0.30969 0.48731 0.0
C910 C 0.21642 0.22898 0.48922 0.0
C911 C 0.28712 0.30503 0.52276 0.0
H912 H 0.28796 0.20345 0.56795 0.0
H913 H 0.3391 0.21034 0.48668 0.0
H914 H 0.24679 0.26688 0.56429 0.0
H915 H 0.22393 0.23755 0.55954 0.0
H916 H 0.25619 0.23951 0.58666 0.0
H917 H 0.33142 0.24538 0.45618 0.0
H918 H 0.28624 0.24952 0.45367 0.0
H919 H 0.31156 0.27381 0.47019 0.0
H920 H 0.18578 0.26572 0.45864 0.0
H921 H 0.24609 0.32976 0.48568 0.0
H922 H 0.21568 0.22119 0.51138 0.0
H923 H 0.23663 0.21864 0.47735 0.0
H924 H 0.1918 0.2249 0.47862 0.0
H925 H 0.29065 0.29471 0.5434 0.0
H926 H 0.2826 0.32561 0.52734 0.0
H927 H 0.31101 0.30341 0.51035 0.0
C928 C 0.76 0.30615 0.00129 0.0
C929 C 0.7844 0.29688 0.02061 0.0
C930 C 0.74305 0.2894 0.98256 0.0
C931 C 0.75072 0.26296 0.98347 0.0
C932 C 0.77808 0.25416 0.00049 0.0
C933 C 0.7946 0.27125 0.01883 0.0
C934 C 0.7149 0.29966 0.9639 0.0
C935 C 0.78761 0.22617 0.00172 0.0
C936 C 0.68434 0.21165 0.98294 0.0
C937 C 0.69306 0.19799 0.95809 0.0
C938 C 0.70088 0.23442 0.99006 0.0
C939 C 0.72666 0.24383 0.97176 0.0
C940 C 0.73288 0.23174 0.94506 0.0
C941 C 0.71603 0.20881 0.93853 0.0
C942 C 0.69301 0.24693 0.01859 0.0
C943 C 0.75932 0.24167 0.92451 0.0
H944 H 0.7523 0.32605 0.00227 0.0
H945 H 0.81408 0.26413 0.03321 0.0
H946 H 0.71361 0.28928 0.94311 0.0
H947 H 0.69033 0.297 0.97507 0.0
H948 H 0.71817 0.32041 0.95959 0.0
H949 H 0.81178 0.22297 0.01342 0.0
H950 H 0.76733 0.21535 0.01288 0.0
H951 H 0.79011 0.21818 0.97974 0.0
H952 H 0.666 0.20375 -0.00217 0.0
H953 H 0.72257 0.19858 0.91902 0.0
H954 H 0.68931 0.26781 0.01583 0.0
H955 H 0.71467 0.24414 0.03349 0.0
H956 H 0.66997 0.23884 0.0288 0.0
H957 H 0.76027 0.26288 0.92472 0.0
H958 H 0.75442 0.23506 0.90219 0.0
H959 H 0.78457 0.23444 0.9311 0.0
C960 C 0.21794 0.71957 0.54634 0.0
C961 C 0.23659 0.69678 0.54541 0.0
C962 C 0.22514 0.7397 0.52753 0.0
C963 C 0.2521 0.73712 0.5077 0.0
C964 C 0.26963 0.71355 0.50541 0.0
C965 C 0.26144 0.69348 0.52423 0.0
C966 C 0.20535 0.76433 0.53026 0.0
C967 C 0.29862 0.71016 0.48461 0.0
C968 C 0.2597 0.79141 0.454 0.0
C969 C 0.28075 0.8083 0.46914 0.0
C970 C 0.25127 0.76744 0.46559 0.0
C971 C 0.26466 0.76023 0.49263 0.0
C972 C 0.28756 0.7766 0.50708 0.0
C973 C 0.29509 0.80051 0.49526 0.0
C974 C 0.22659 0.75055 0.44971 0.0
C975 C 0.30284 0.76943 0.53576 0.0
H976 H 0.19831 0.72196 0.56242 0.0
H977 H 0.27585 0.67582 0.52349 0.0
H978 H 0.22172 0.77929 0.5399 0.0
H979 H 0.19728 0.77126 0.50878 0.0
H980 H 0.18255 0.7621 0.54402 0.0
H981 H 0.30592 0.68975 0.48218 0.0
H982 H 0.29202 0.71799 0.46316 0.0
H983 H 0.32094 0.72092 0.49257 0.0
H984 H 0.24861 0.79738 0.43376 0.0
H985 H 0.31183 0.81335 0.50678 0.0
H986 H 0.20193 0.75063 0.46114 0.0
H987 H 0.23573 0.73048 0.44921 0.0
H988 H 0.22233 0.75714 0.42729 0.0
H989 H 0.28275 0.76911 0.55243 0.0
H990 H 0.32278 0.78308 0.54267 0.0
H991 H 0.31405 0.74998 0.53473 0.0
C992 C 0.16056 0.52525 0.96256 0.0
C993 C 0.17668 0.54777 0.97127 0.0
C994 C 0.16237 0.50311 0.97949 0.0
C995 C 0.18175 0.50343 0.0051 0.0
C996 C 0.19716 0.52639 0.01442 0.0
C997 C 0.19396 0.54845 -0.00244 0.0
C998 C 0.14467 0.47915 0.9694 0.0
C999 C 0.21878 0.52729 0.0412 0.0
C1000 C 0.17508 0.44881 0.05847 0.0
C1001 C 0.2013 0.43282 0.04905 0.0
C1002 C 0.16806 0.47183 0.04417 0.0
C1003 C 0.18856 0.47924 0.02064 0.0
C1004 C 0.21568 0.4634 0.01165 0.0
C1005 C 0.22131 0.4401 0.02566 0.0
C1006 C 0.13828 0.48786 0.0537 0.0
C1007 C 0.23872 0.47103 0.98718 0.0
H1008 H 0.14692 0.52485 0.94232 0.0
H1009 H 0.20661 0.56588 0.00419 0.0
H1010 H 0.16373 0.46489 0.96227 0.0
H1011 H 0.13013 0.47044 0.9873 0.0
H1012 H 0.12713 0.48298 0.95122 0.0
H1013 H 0.22704 0.54704 0.04652 0.0
H1014 H 0.2048 0.51937 0.05984 0.0
H1015 H 0.24164 0.51523 0.03804 0.0
H1016 H 0.15934 0.44287 0.07636 0.0
H1017 H 0.24162 0.42764 0.01852 0.0
H1018 H 0.12004 0.48989 0.03568 0.0
H1019 H 0.14679 0.50738 0.05956 0.0
H1020 H 0.12489 0.47938 0.07241 0.0
H1021 H 0.22404 0.47221 0.9669 0.0
H1022 H 0.25985 0.45725 0.98405 0.0
H1023 H 0.24957 0.49025 0.9913 0.0
C1024 C 0.81569 0.56485 0.48564 0.0
C1025 C 0.83253 0.56339 0.5121 0.0
C1026 C 0.81148 0.54303 0.46854 0.0
C1027 C 0.82538 0.51949 0.47783 0.0
C1028 C 0.84463 0.51839 0.50349 0.0
C1029 C 0.8475 0.54033 0.52062 0.0
C1030 C 0.79011 0.54482 0.44168 0.0
C1031 C 0.86075 0.49376 0.51356 0.0
C1032 C 0.78104 0.45781 0.45844 0.0
C1033 C 0.80047 0.44922 0.43525 0.0
C1034 C 0.78837 0.48108 0.47191 0.0
C1035 C 0.81659 0.49554 0.46255 0.0
C1036 C 0.8364 0.48687 0.43913 0.0
C1037 C 0.82772 0.4639 0.42539 0.0
C1038 C 0.76606 0.49008 0.49631 0.0
C1039 C 0.86726 0.5014 0.42921 0.0
H1040 H 0.80397 0.58271 0.47913 0.0
H1041 H 0.86083 0.53931 0.54098 0.0
H1042 H 0.80328 0.53585 0.42319 0.0
H1043 H 0.76611 0.5342 0.44501 0.0
H1044 H 0.78384 0.56492 0.43603 0.0
H1045 H 0.87878 0.49695 0.53154 0.0
H1046 H 0.8408 0.4804 0.52101 0.0
H1047 H 0.87439 0.48431 0.4956 0.0
H1048 H 0.75993 0.44636 0.46592 0.0
H1049 H 0.84299 0.45694 0.40765 0.0
H1050 H 0.75682 0.50976 0.49199 0.0
H1051 H 0.78086 0.49071 0.51656 0.0
H1052 H 0.74384 0.47741 0.49962 0.0
H1053 H 0.86032 0.52134 0.42357 0.0
H1054 H 0.87952 0.49233 0.41028 0.0
H1055 H 0.88599 0.50241 0.44697 0.0
C1056 C 0.7612 0.46244 0.04675 0.0
C1057 C 0.78036 0.4412 0.038 0.0
C1058 C 0.75824 0.48412 0.02919 0.0
C1059 C 0.77482 0.48455 0.00224 0.0
C1060 C 0.79452 0.46332 -0.0066 0.0
C1061 C 0.79707 0.44187 0.01141 0.0
C1062 C 0.73705 0.50644 0.03934 0.0
C1063 C 0.8126 0.46315 0.96479 0.0
C1064 C 0.74072 0.52888 0.94454 0.0
C1065 C 0.76348 0.54939 0.94604 0.0
C1066 C 0.74405 0.50771 0.96282 0.0
C1067 C 0.77086 0.507 0.98299 0.0
C1068 C 0.79379 0.52771 0.98478 0.0
C1069 C 0.78978 0.54871 0.96632 0.0
C1070 C 0.71898 0.48602 0.96043 0.0
C1071 C 0.82272 0.52758 0.00603 0.0
H1072 H 0.74829 0.46212 0.0673 0.0
H1073 H 0.81197 0.42555 0.00453 0.0
H1074 H 0.75252 0.52413 0.03968 0.0
H1075 H 0.71581 0.50974 0.02417 0.0
H1076 H 0.72642 0.50331 0.06118 0.0
H1077 H 0.82759 0.4454 0.96142 0.0
H1078 H 0.79391 0.46492 0.94708 0.0
H1079 H 0.82985 0.47982 0.96327 0.0
H1080 H 0.7203 0.52928 0.92897 0.0
H1081 H 0.80754 0.56446 0.96755 0.0
H1082 H 0.70619 0.48299 0.98139 0.0
H1083 H 0.73244 0.46801 0.95499 0.0
H1084 H 0.69937 0.48964 0.94378 0.0
H1085 H 0.8128 0.52564 0.02823 0.0
H1086 H 0.83823 0.54526 0.0048 0.0
H1087 H 0.8394 0.51087 0.00195 0.0
C1088 C 0.20275 0.4446 0.47203 0.0
C1089 C 0.2187 0.44294 0.44515 0.0
C1090 C 0.20656 0.46637 0.48937 0.0
C1091 C 0.22681 0.48692 0.47959 0.0
C1092 C 0.24251 0.48555 0.4523 0.0
C1093 C 0.23826 0.46357 0.4354 0.0
C1094 C 0.18937 0.46721 0.51837 0.0
C1095 C 0.26429 0.5071 0.44116 0.0
C1096 C 0.21586 0.55157 0.51567 0.0
C1097 C 0.24264 0.55144 0.53549 0.0
C1098 C 0.21054 0.53078 0.49711 0.0
C1099 C 0.2326 0.50945 0.49839 0.0
C1100 C 0.26004 0.50943 0.51796 0.0
C1101 C 0.26471 0.53041 0.53629 0.0
C1102 C 0.18102 0.53145 0.47648 0.0
C1103 C 0.28419 0.48705 0.51984 0.0
H1104 H 0.18752 0.42878 0.47968 0.0
H1105 H 0.2506 0.46248 0.41462 0.0
H1106 H 0.2087 0.46852 0.53562 0.0
H1107 H 0.17314 0.48448 0.52 0.0
H1108 H 0.17349 0.45005 0.52235 0.0
H1109 H 0.27371 0.50344 0.41903 0.0
H1110 H 0.24972 0.52526 0.44114 0.0
H1111 H 0.28638 0.50986 0.45557 0.0
H1112 H 0.19866 0.56774 0.51495 0.0
H1113 H 0.28552 0.53018 0.55149 0.0
H1114 H 0.16341 0.51551 0.48131 0.0
H1115 H 0.1901 0.52872 0.45411 0.0
H1116 H 0.16674 0.54975 0.47765 0.0
H1117 H 0.27017 0.46953 0.52602 0.0
H1118 H 0.30472 0.49029 0.53576 0.0
H1119 H 0.29584 0.4834 0.49852 0.0
C1120 C 0.6858 0.05563 -0.00455 0.0
C1121 C 0.66911 0.05618 0.96889 0.0
C1122 C 0.68625 0.03332 0.0121 0.0
C1123 C 0.66862 0.01144 0.0023 0.0
C1124 C 0.6497 0.01255 0.97647 0.0
C1125 C 0.6507 0.03483 0.95974 0.0
C1126 C 0.70751 0.03264 0.0391 0.0
C1127 C 0.62964 0.98986 0.96587 0.0
C1128 C 0.7027 0.94612 0.02185 0.0
C1129 C 0.68233 0.93962 0.04531 0.0
C1130 C 0.69883 0.9697 0.00804 0.0
C1131 C 0.67308 0.98668 0.0173 0.0
C1132 C 0.65201 0.97999 0.04073 0.0
C1133 C 0.65733 0.95661 0.05487 0.0
C1134 C 0.72248 0.9765 0.98368 0.0
C1135 C 0.62358 -0.00274 0.05048 0.0
H1136 H 0.70018 0.07216 0.00241 0.0
H1137 H 0.63749 0.03543 0.9393 0.0
H1138 H 0.69259 0.02517 0.05744 0.0
H1139 H 0.72927 0.01948 0.03587 0.0
H1140 H 0.71748 0.05182 0.04491 0.0
H1141 H 0.61248 -0.00496 0.94785 0.0
H1142 H 0.64722 0.97473 0.9583 0.0
H1143 H 0.61433 0.98163 0.98359 0.0
H1144 H 0.72212 0.93291 0.01465 0.0
H1145 H 0.64135 0.9513 0.07285 0.0
H1146 H 0.73512 -0.00498 0.98821 0.0
H1147 H 0.70792 0.97883 0.96346 0.0
H1148 H 0.74227 0.96169 0.98018 0.0
H1149 H 0.63378 0.0161 0.05716 0.0
H1150 H 0.6091 0.98899 0.06871 0.0
H1151 H 0.60591 0.00077 0.03234 0.0
C1152 C 0.28134 0.95652 0.45861 0.0
C1153 C 0.30018 0.94747 0.43529 0.0
C1154 C 0.28909 0.97998 0.47145 0.0
C1155 C 0.31717 0.99419 0.46131 0.0
C1156 C 0.33633 0.98509 0.4377 0.0
C1157 C 0.32722 0.96191 0.42462 0.0
C1158 C 0.26745 0.98942 0.49607 0.0
C1159 C 0.36703 -0.00065 0.42696 0.0
C1160 C 0.31706 0.0636 0.48395 0.0
C1161 C 0.33422 0.06215 0.51026 0.0
C1162 C 0.31263 0.04176 0.46692 0.0
C1163 C 0.32662 0.01822 0.47613 0.0
C1164 C 0.34637 0.01718 0.50151 0.0
C1165 C 0.34945 0.03913 0.51859 0.0
C1166 C 0.29076 0.04349 0.44034 0.0
C1167 C 0.36261 0.99257 0.51149 0.0
H1168 H 0.26037 0.94525 0.46672 0.0
H1169 H 0.34203 0.95461 0.40677 0.0
H1170 H 0.28272 0.99014 0.51607 0.0
H1171 H 0.25839 0.00913 0.49164 0.0
H1172 H 0.24514 0.97697 0.49991 0.0
H1173 H 0.3785 0.99012 0.40777 0.0
H1174 H 0.36021 0.01933 0.42143 0.0
H1175 H 0.38638 0.00023 0.44424 0.0
H1176 H 0.30514 0.08142 0.47759 0.0
H1177 H 0.36304 0.03813 0.53883 0.0
H1178 H 0.26657 0.03327 0.44423 0.0
H1179 H 0.3033 0.03409 0.42181 0.0
H1180 H 0.28486 0.06361 0.43447 0.0
H1181 H 0.34279 0.97936 0.51952 0.0
H1182 H 0.38119 -0.00417 0.52904 0.0
H1183 H 0.37565 0.9829 0.49334 0.0
C1184 C 0.30721 0.96267 0.05559 0.0
C1185 C 0.29561 0.9394 0.04425 0.0
C1186 C 0.30347 0.98558 0.04023 0.0
C1187 C 0.28796 0.98516 0.01281 0.0
C1188 C 0.27686 0.96167 0.00097 0.0
C1189 C 0.28075 0.93907 0.01687 0.0
C1190 C 0.31557 0.01029 0.05353 0.0
C1191 C 0.26049 0.96047 0.97165 0.0
C1192 C 0.24716 0.04519 0.98265 0.0
C1193 C 0.2717 0.05338 0.96293 0.0
C1194 C 0.25247 0.02331 -0.00045 0.0
C1195 C 0.28297 0.0093 -0.00346 0.0
C1196 C 0.3082 0.01784 0.97724 0.0
C1197 C 0.3023 0.03982 0.96073 0.0
C1198 C 0.22512 0.01486 0.02014 0.0
C1199 C 0.34104 0.00338 0.97345 0.0
H1200 H 0.3187 0.9631 0.07675 0.0
H1201 H 0.27182 0.92116 0.00792 0.0
H1202 H 0.334 0.01979 0.03907 0.0
H1203 H 0.2939 0.02358 0.05631 0.0
H1204 H 0.32775 0.00726 0.0748 0.0
H1205 H 0.25402 0.9406 0.96522 0.0
H1206 H 0.23698 0.97212 0.97154 0.0
H1207 H 0.2777 0.96869 0.95523 0.0
H1208 H 0.22352 0.05561 0.98457 0.0
H1209 H 0.32146 0.04604 0.94559 0.0
H1210 H 0.2357 0.01272 0.04211 0.0
H1211 H 0.2153 -0.00412 0.01352 0.0
H1212 H 0.20362 0.02856 0.02097 0.0
H1213 H 0.35386 0.00095 -0.0055 0.0
H1214 H 0.35868 0.0132 0.95849 0.0
H1215 H 0.33576 0.98397 0.96493 0.0
C1216 C 0.76243 0.03062 0.53915 0.0
C1217 C 0.74156 0.05226 0.53698 0.0
C1218 C 0.75785 0.00951 0.52099 0.0
C1219 C 0.73172 0.01004 0.50017 0.0
C1220 C 0.71076 0.03191 0.49763 0.0
C1221 C 0.71597 0.0528 0.51606 0.0
C1222 C 0.7808 0.98655 0.52424 0.0
C1223 C 0.68264 0.03311 0.47566 0.0
C1224 C 0.73989 0.96407 0.43749 0.0
C1225 C 0.71884 0.94391 0.44617 0.0
C1226 C 0.7439 0.9859 0.45466 0.0
C1227 C 0.72639 0.98761 0.48112 0.0
C1228 C 0.70469 0.96753 0.48983 0.0
C1229 C 0.70119 0.94588 0.47224 0.0
C1230 C 0.76728 0.00694 0.44469 0.0
C1231 C 0.68556 0.96875 0.51791 0.0
H1232 H 0.78229 0.03006 0.55523 0.0
H1233 H 0.69968 0.06944 0.51429 0.0
H1234 H 0.76557 0.96939 0.52961 0.0
H1235 H 0.79392 0.98257 0.50362 0.0
H1236 H 0.80017 0.98931 0.54128 0.0
H1237 H 0.66883 0.05163 0.47625 0.0
H1238 H 0.69311 0.03031 0.45375 0.0
H1239 H 0.6643 0.01744 0.47955 0.0
H1240 H 0.75357 0.96273 0.41734 0.0
H1241 H 0.68479 0.93042 0.47905 0.0
H1242 H 0.78834 0.00926 0.46026 0.0
H1243 H 0.75344 0.0254 0.44385 0.0
H1244 H 0.77821 0.00301 0.42312 0.0
H1245 H 0.70369 0.96969 0.53611 0.0
H1246 H 0.6688 0.95194 0.52108 0.0
H1247 H 0.66989 0.98637 0.51873 0.0
loop_
_geom_bond_atom_site_label_1
_geom_bond_atom_site_label_2
_geom_bond_distance
_geom_bond_site_symmetry_2
_ccdc_geom_bond_type
Mg0 O1 2.028 . S
Mg0 O7 1.986 . S
Mg0 O9 2.114 . S
Mg0 O10 2.251 . S
Mg0 O13 2.010 . S
O1 Mg0 2.028 . S
O1 C4 1.250 . S
O2 Mg3 2.028 . S
O2 C4 1.248 . S
Mg3 O2 2.028 . S
Mg3 O8 2.032 . S
Mg3 O10 2.079 . S
C4 O1 1.250 . S
C4 O2 1.248 . S
C5 O6 1.264 . S
C5 O13 1.249 . S
O6 C5 1.264 . S
O7 Mg0 1.986 . S
O7 C11 1.246 . S
O8 Mg3 2.032 . S
O8 C11 1.259 . S
O9 Mg0 2.114 . S
O9 C12 1.252 . S
O10 Mg0 2.251 . S
O10 Mg3 2.079 . S
O10 C12 1.273 . S
C11 O7 1.246 . S
C11 O8 1.259 . S
C12 O9 1.252 . S
C12 O10 1.273 . S
O13 Mg0 2.010 . S
O13 C5 1.249 . S
Mg14 O15 2.028 . S
Mg14 O21 1.986 . S
Mg14 O23 2.114 . S
Mg14 O24 2.251 . S
Mg14 O27 2.010 . S
O15 Mg14 2.028 . S
O15 C18 1.250 . S
O16 Mg17 2.028 . S
O16 C18 1.248 . S
Mg17 O16 2.028 . S
Mg17 O22 2.032 . S
Mg17 O24 2.079 . S
C18 O15 1.250 . S
C18 O16 1.248 . S
C19 O20 1.264 . S
C19 O27 1.249 . S
O20 C19 1.264 . S
O21 Mg14 1.986 . S
O21 C25 1.246 . S
O22 Mg17 2.032 . S
O22 C25 1.259 . S
O23 Mg14 2.114 . S
O23 C26 1.252 . S
O24 Mg14 2.251 . S
O24 Mg17 2.079 . S
O24 C26 1.273 . S
C25 O21 1.246 . S
C25 O22 1.259 . S
C26 O23 1.252 . S
C26 O24 1.273 . S
O27 Mg14 2.010 . S
O27 C19 1.249 . S
Mg28 O29 2.028 . S
Mg28 O35 1.986 . S
Mg28 O37 2.114 . S
Mg28 O38 2.251 . S
Mg28 O41 2.010 . S
O29 Mg28 2.028 . S
O29 C32 1.250 . S
O30 Mg31 2.028 . S
O30 C32 1.248 . S
Mg31 O30 2.028 . S
Mg31 O36 2.032 . S
Mg31 O38 2.079 . S
C32 O29 1.250 . S
C32 O30 1.248 . S
C33 O34 1.264 . S
C33 O41 1.249 . S
O34 C33 1.264 . S
O35 Mg28 1.986 . S
O35 C39 1.246 . S
O36 Mg31 2.032 . S
O36 C39 1.259 . S
O37 Mg28 2.114 . S
O37 C40 1.252 . S
O38 Mg28 2.251 . S
O38 Mg31 2.079 . S
O38 C40 1.273 . S
C39 O35 1.246 . S
C39 O36 1.259 . S
C40 O37 1.252 . S
C40 O38 1.273 . S
O41 Mg28 2.010 . S
O41 C33 1.249 . S
Mg42 O43 2.028 . S
Mg42 O49 1.986 . S
Mg42 O51 2.114 . S
Mg42 O52 2.251 . S
Mg42 O55 2.010 . S
O43 Mg42 2.028 . S
O43 C46 1.250 . S
O44 Mg45 2.028 . S
O44 C46 1.248 . S
Mg45 O44 2.028 . S
Mg45 O50 2.032 . S
Mg45 O52 2.079 . S
C46 O43 1.250 . S
C46 O44 1.248 . S
C47 O48 1.264 . S
C47 O55 1.249 . S
O48 C47 1.264 . S
O49 Mg42 1.986 . S
O49 C53 1.246 . S
O50 Mg45 2.032 . S
O50 C53 1.259 . S
O51 Mg42 2.114 . S
O51 C54 1.252 . S
O52 Mg42 2.251 . S
O52 Mg45 2.079 . S
O52 C54 1.273 . S
C53 O49 1.246 . S
C53 O50 1.259 . S
C54 O51 1.252 . S
C54 O52 1.273 . S
O55 Mg42 2.010 . S
O55 C47 1.249 . S
Mg56 O57 2.028 . S
Mg56 O63 1.986 . S
Mg56 O65 2.114 . S
Mg56 O66 2.251 . S
Mg56 O69 2.010 . S
O57 Mg56 2.028 . S
O57 C60 1.250 . S
O58 Mg59 2.028 . S
O58 C60 1.248 . S
Mg59 O58 2.028 . S
Mg59 O64 2.032 . S
Mg59 O66 2.079 . S
C60 O57 1.250 . S
C60 O58 1.248 . S
C61 O62 1.264 . S
C61 O69 1.249 . S
O62 C61 1.264 . S
O63 Mg56 1.986 . S
O63 C67 1.246 . S
O64 Mg59 2.032 . S
O64 C67 1.259 . S
O65 Mg56 2.114 . S
O65 C68 1.252 . S
O66 Mg56 2.251 . S
O66 Mg59 2.079 . S
O66 C68 1.273 . S
C67 O63 1.246 . S
C67 O64 1.259 . S
C68 O65 1.252 . S
C68 O66 1.273 . S
O69 Mg56 2.010 . S
O69 C61 1.249 . S
Mg70 O71 2.028 . S
Mg70 O77 1.986 . S
Mg70 O79 2.114 . S
Mg70 O80 2.251 . S
Mg70 O83 2.010 . S
O71 Mg70 2.028 . S
O71 C74 1.250 . S
O72 Mg73 2.028 . S
O72 C74 1.248 . S
Mg73 O72 2.028 . S
Mg73 O78 2.032 . S
Mg73 O80 2.079 . S
C74 O71 1.250 . S
C74 O72 1.248 . S
C75 O76 1.264 . S
C75 O83 1.249 . S
O76 C75 1.264 . S
O77 Mg70 1.986 . S
O77 C81 1.246 . S
O78 Mg73 2.032 . S
O78 C81 1.259 . S
O79 Mg70 2.114 . S
O79 C82 1.252 . S
O80 Mg70 2.251 . S
O80 Mg73 2.079 . S
O80 C82 1.273 . S
C81 O77 1.246 . S
C81 O78 1.259 . S
C82 O79 1.252 . S
C82 O80 1.273 . S
O83 Mg70 2.010 . S
O83 C75 1.249 . S
Mg84 O85 2.028 . S
Mg84 O91 1.986 . S
Mg84 O93 2.114 . S
Mg84 O94 2.251 . S
Mg84 O97 2.010 . S
O85 Mg84 2.028 . S
O85 C88 1.250 . S
O86 Mg87 2.028 . S
O86 C88 1.248 . S
Mg87 O86 2.028 . S
Mg87 O92 2.032 . S
Mg87 O94 2.079 . S
C88 O85 1.250 . S
C88 O86 1.248 . S
C89 O90 1.264 . S
C89 O97 1.249 . S
O90 C89 1.264 . S
O91 Mg84 1.986 . S
O91 C95 1.246 . S
O92 Mg87 2.032 . S
O92 C95 1.259 . S
O93 Mg84 2.114 . S
O93 C96 1.252 . S
O94 Mg84 2.251 . S
O94 Mg87 2.079 . S
O94 C96 1.273 . S
C95 O91 1.246 . S
C95 O92 1.259 . S
C96 O93 1.252 . S
C96 O94 1.273 . S
O97 Mg84 2.010 . S
O97 C89 1.249 . S
Mg98 O99 2.028 . S
Mg98 O105 1.986 . S
Mg98 O107 2.114 . S
Mg98 O108 2.251 . S
Mg98 O111 2.010 . S
O99 Mg98 2.028 . S
O99 C102 1.250 . S
O100 Mg101 2.028 . S
O100 C102 1.248 . S
Mg101 O100 2.028 . S
Mg101 O106 2.032 . S
Mg101 O108 2.079 . S
C102 O99 1.250 . S
C102 O100 1.248 . S
C103 O104 1.264 . S
C103 O111 1.249 . S
O104 C103 1.264 . S
O105 Mg98 1.986 . S
O105 C109 1.246 . S
O106 Mg101 2.032 . S
O106 C109 1.259 . S
O107 Mg98 2.114 . S
O107 C110 1.252 . S
O108 Mg98 2.251 . S
O108 Mg101 2.079 . S
O108 C110 1.273 . S
C109 O105 1.246 . S
C109 O106 1.259 . S
C110 O107 1.252 . S
C110 O108 1.273 . S
O111 Mg98 2.010 . S
O111 C103 1.249 . S
Mg112 O113 2.028 . S
Mg112 O119 1.986 . S
Mg112 O121 2.114 . S
Mg112 O122 2.251 . S
Mg112 O125 2.010 . S
O113 Mg112 2.028 . S
O113 C116 1.250 . S
O114 Mg115 2.028 . S
O114 C116 1.248 . S
Mg115 O114 2.028 . S
Mg115 O120 2.032 . S
Mg115 O122 2.079 . S
C116 O113 1.250 . S
C116 O114 1.248 . S
C117 O118 1.264 . S
C117 O125 1.249 . S
O118 C117 1.264 . S
O119 Mg112 1.986 . S
O119 C123 1.246 . S
O120 Mg115 2.032 . S
O120 C123 1.259 . S
O121 Mg112 2.114 . S
O121 C124 1.252 . S
O122 Mg112 2.251 . S
O122 Mg115 2.079 . S
O122 C124 1.273 . S
C123 O119 1.246 . S
C123 O120 1.259 . S
C124 O121 1.252 . S
C124 O122 1.273 . S
O125 Mg112 2.010 . S
O125 C117 1.249 . S
Mg126 O127 2.028 . S
Mg126 O133 1.986 . S
Mg126 O135 2.114 . S
Mg126 O136 2.251 . S
Mg126 O139 2.010 . S
O127 Mg126 2.028 . S
O127 C130 1.250 . S
O128 Mg129 2.028 . S
O128 C130 1.248 . S
Mg129 O128 2.028 . S
Mg129 O134 2.032 . S
Mg129 O136 2.079 . S
C130 O127 1.250 . S
C130 O128 1.248 . S
C131 O132 1.264 . S
C131 O139 1.249 . S
O132 C131 1.264 . S
O133 Mg126 1.986 . S
O133 C137 1.246 . S
O134 Mg129 2.032 . S
O134 C137 1.259 . S
O135 Mg126 2.114 . S
O135 C138 1.252 . S
O136 Mg126 2.251 . S
O136 Mg129 2.079 . S
O136 C138 1.273 . S
C137 O133 1.246 . S
C137 O134 1.259 . S
C138 O135 1.252 . S
C138 O136 1.273 . S
O139 Mg126 2.010 . S
O139 C131 1.249 . S
Mg140 O141 2.028 . S
Mg140 O147 1.986 . S
Mg140 O149 2.114 . S
Mg140 O150 2.251 . S
Mg140 O153 2.010 . S
O141 Mg140 2.028 . S
O141 C144 1.250 . S
O142 Mg143 2.028 . S
O142 C144 1.248 . S
Mg143 O142 2.028 . S
Mg143 O148 2.032 . S
Mg143 O150 2.079 . S
C144 O141 1.250 . S
C144 O142 1.248 . S
C145 O146 1.264 . S
C145 O153 1.249 . S
O146 C145 1.264 . S
O147 Mg140 1.986 . S
O147 C151 1.246 . S
O148 Mg143 2.032 . S
O148 C151 1.259 . S
O149 Mg140 2.114 . S
O149 C152 1.252 . S
O150 Mg140 2.251 . S
O150 Mg143 2.079 . S
O150 C152 1.273 . S
C151 O147 1.246 . S
C151 O148 1.259 . S
C152 O149 1.252 . S
C152 O150 1.273 . S
O153 Mg140 2.010 . S
O153 C145 1.249 . S
Mg154 O155 2.028 . S
Mg154 O161 1.986 . S
Mg154 O163 2.114 . S
Mg154 O164 2.251 . S
Mg154 O167 2.010 . S
O155 Mg154 2.028 . S
O155 C158 1.250 . S
O156 Mg157 2.028 . S
O156 C158 1.248 . S
Mg157 O156 2.028 . S
Mg157 O162 2.032 . S
Mg157 O164 2.079 . S
C158 O155 1.250 . S
C158 O156 1.248 . S
C159 O160 1.264 . S
C159 O167 1.249 . S
O160 C159 1.264 . S
O161 Mg154 1.986 . S
O161 C165 1.246 . S
O162 Mg157 2.032 . S
O162 C165 1.259 . S
O163 Mg154 2.114 . S
O163 C166 1.252 . S
O164 Mg154 2.251 . S
O164 Mg157 2.079 . S
O164 C166 1.273 . S
C165 O161 1.246 . S
C165 O162 1.259 . S
C166 O163 1.252 . S
C166 O164 1.273 . S
O167 Mg154 2.010 . S
O167 C159 1.249 . S
Mg168 O169 2.028 . S
Mg168 O175 1.986 . S
Mg168 O177 2.114 . S
Mg168 O178 2.251 . S
Mg168 O181 2.010 . S
O169 Mg168 2.028 . S
O169 C172 1.250 . S
O170 Mg171 2.028 . S
O170 C172 1.248 . S
Mg171 O170 2.028 . S
Mg171 O176 2.032 . S
Mg171 O178 2.079 . S
C172 O169 1.250 . S
C172 O170 1.248 . S
C173 O174 1.264 . S
C173 O181 1.249 . S
O174 C173 1.264 . S
O175 Mg168 1.986 . S
O175 C179 1.246 . S
O176 Mg171 2.032 . S
O176 C179 1.259 . S
O177 Mg168 2.114 . S
O177 C180 1.252 . S
O178 Mg168 2.251 . S
O178 Mg171 2.079 . S
O178 C180 1.273 . S
C179 O175 1.246 . S
C179 O176 1.259 . S
C180 O177 1.252 . S
C180 O178 1.273 . S
O181 Mg168 2.010 . S
O181 C173 1.249 . S
Mg182 O183 2.028 . S
Mg182 O189 1.986 . S
Mg182 O191 2.114 . S
Mg182 O192 2.251 . S
Mg182 O195 2.010 . S
O183 Mg182 2.028 . S
O183 C186 1.250 . S
O184 Mg185 2.028 . S
O184 C186 1.248 . S
Mg185 O184 2.028 . S
Mg185 O190 2.032 . S
Mg185 O192 2.079 . S
C186 O183 1.250 . S
C186 O184 1.248 . S
C187 O188 1.264 . S
C187 O195 1.249 . S
O188 C187 1.264 . S
O189 Mg182 1.986 . S
O189 C193 1.246 . S
O190 Mg185 2.032 . S
O190 C193 1.259 . S
O191 Mg182 2.114 . S
O191 C194 1.252 . S
O192 Mg182 2.251 . S
O192 Mg185 2.079 . S
O192 C194 1.273 . S
C193 O189 1.246 . S
C193 O190 1.259 . S
C194 O191 1.252 . S
C194 O192 1.273 . S
O195 Mg182 2.010 . S
O195 C187 1.249 . S
Mg196 O197 2.028 . S
Mg196 O203 1.986 . S
Mg196 O205 2.114 . S
Mg196 O206 2.251 . S
Mg196 O209 2.010 . S
O197 Mg196 2.028 . S
O197 C200 1.250 . S
O198 Mg199 2.028 . S
O198 C200 1.248 . S
Mg199 O198 2.028 . S
Mg199 O204 2.032 . S
Mg199 O206 2.079 . S
C200 O197 1.250 . S
C200 O198 1.248 . S
C201 O202 1.264 . S
C201 O209 1.249 . S
O202 C201 1.264 . S
O203 Mg196 1.986 . S
O203 C207 1.246 . S
O204 Mg199 2.032 . S
O204 C207 1.259 . S
O205 Mg196 2.114 . S
O205 C208 1.252 . S
O206 Mg196 2.251 . S
O206 Mg199 2.079 . S
O206 C208 1.273 . S
C207 O203 1.246 . S
C207 O204 1.259 . S
C208 O205 1.252 . S
C208 O206 1.273 . S
O209 Mg196 2.010 . S
O209 C201 1.249 . S
Mg210 O211 2.028 . S
Mg210 O217 1.986 . S
Mg210 O219 2.114 . S
Mg210 O220 2.251 . S
Mg210 O223 2.010 . S
O211 Mg210 2.028 . S
O211 C214 1.250 . S
O212 Mg213 2.028 . S
O212 C214 1.248 . S
Mg213 O212 2.028 . S
Mg213 O218 2.032 . S
Mg213 O220 2.079 . S
C214 O211 1.250 . S
C214 O212 1.248 . S
C215 O216 1.264 . S
C215 O223 1.249 . S
O216 C215 1.264 . S
O217 Mg210 1.986 . S
O217 C221 1.246 . S
O218 Mg213 2.032 . S
O218 C221 1.259 . S
O219 Mg210 2.114 . S
O219 C222 1.252 . S
O220 Mg210 2.251 . S
O220 Mg213 2.079 . S
O220 C222 1.273 . S
C221 O217 1.246 . S
C221 O218 1.259 . S
C222 O219 1.252 . S
C222 O220 1.273 . S
O223 Mg210 2.010 . S
O223 C215 1.249 . S
C224 C225 1.391 . S
C224 C226 1.394 . S
C224 H240 0.931 . S
C225 C224 1.391 . S
C225 C229 1.376 . S
C226 C224 1.394 . S
C226 C227 1.369 . S
C226 C230 1.531 . S
C227 C226 1.369 . S
C227 C228 1.410 . S
C227 C235 1.503 1_455 S
C228 C227 1.410 . S
C228 C229 1.392 . S
C228 C231 1.511 . S
C229 C225 1.376 . S
C229 C228 1.392 . S
C229 H241 0.929 . S
C230 C226 1.531 . S
C230 H242 0.956 1_455 S
C230 H243 0.962 . S
C230 H244 0.960 . S
C231 C228 1.511 . S
C231 H245 0.961 . S
C231 H246 0.987 . S
C231 H247 0.961 . S
C232 C233 1.370 . S
C232 C234 1.363 . S
C232 H248 0.931 . S
C233 C232 1.370 . S
C233 C237 1.408 . S
C234 C232 1.363 . S
C234 C235 1.370 . S
C234 C238 1.524 . S
C235 C227 1.503 1_655 S
C235 C234 1.370 . S
C235 C236 1.403 . S
C236 C235 1.403 . S
C236 C237 1.404 . S
C236 C239 1.539 . S
C237 C233 1.408 . S
C237 C236 1.404 . S
C237 H249 0.930 . S
C238 C234 1.524 . S
C238 H250 0.956 1_655 S
C238 H251 0.961 1_655 S
C238 H252 0.961 . S
C239 C236 1.539 . S
C239 H253 0.958 . S
C239 H254 0.961 . S
C239 H255 0.960 1_655 S
H240 C224 0.931 . S
H241 C229 0.929 . S
H242 C230 0.956 1_655 S
H243 C230 0.962 . S
H244 C230 0.960 . S
H245 C231 0.961 . S
H246 C231 0.987 . S
H247 C231 0.961 . S
H248 C232 0.931 . S
H249 C237 0.930 . S
H250 C238 0.956 1_455 S
H251 C238 0.961 1_455 S
H252 C238 0.961 . S
H253 C239 0.958 . S
H254 C239 0.961 . S
H255 C239 0.960 1_455 S
C256 C257 1.391 . S
C256 C258 1.394 . S
C256 H272 0.931 . S
C257 C256 1.391 . S
C257 C261 1.376 . S
C258 C256 1.394 . S
C258 C259 1.369 . S
C258 C262 1.531 . S
C259 C258 1.369 . S
C259 C260 1.410 . S
C259 C267 1.503 1_655 S
C260 C259 1.410 . S
C260 C261 1.392 . S
C260 C263 1.511 . S
C261 C257 1.376 . S
C261 C260 1.392 . S
C261 H273 0.929 . S
C262 C258 1.531 . S
C262 H274 0.960 . S
C262 H275 0.962 . S
C262 H276 0.960 . S
C263 C260 1.511 . S
C263 H277 0.961 . S
C263 H278 0.935 1_655 S
C263 H279 0.961 . S
C264 C265 1.370 . S
C264 C266 1.363 . S
C264 H280 0.931 . S
C265 C264 1.370 . S
C265 C269 1.408 . S
C266 C264 1.363 . S
C266 C267 1.370 . S
C266 C270 1.524 . S
C267 C259 1.503 1_455 S
C267 C266 1.370 . S
C267 C268 1.403 . S
C268 C267 1.403 . S
C268 C269 1.404 . S
C268 C271 1.539 . S
C269 C265 1.408 . S
C269 C268 1.404 . S
C269 H281 0.930 . S
C270 C266 1.524 . S
C270 H282 0.956 1_455 S
C270 H283 0.961 1_455 S
C270 H284 0.961 . S
C271 C268 1.539 . S
C271 H285 0.958 . S
C271 H286 0.961 . S
C271 H287 0.960 1_455 S
H272 C256 0.931 . S
H273 C261 0.929 . S
H274 C262 0.960 . S
H275 C262 0.962 . S
H276 C262 0.960 . S
H277 C263 0.961 . S
H278 C263 0.935 1_455 S
H279 C263 0.961 . S
H280 C264 0.931 . S
H281 C269 0.930 . S
H282 C270 0.956 1_655 S
H283 C270 0.961 1_655 S
H284 C270 0.961 . S
H285 C271 0.958 . S
H286 C271 0.961 . S
H287 C271 0.960 1_655 S
C288 C289 1.391 . S
C288 C290 1.394 . S
C288 H304 0.931 . S
C289 C288 1.391 . S
C289 C293 1.376 . S
C290 C288 1.394 . S
C290 C291 1.369 . S
C290 C294 1.531 . S
C291 C290 1.369 . S
C291 C292 1.410 . S
C291 C299 1.503 1_655 S
C292 C291 1.410 . S
C292 C293 1.392 . S
C292 C295 1.511 . S
C293 C289 1.376 . S
C293 C292 1.392 . S
C293 H305 0.929 . S
C294 C290 1.531 . S
C294 H306 0.960 1_655 S
C294 H307 0.962 . S
C294 H308 0.960 . S
C295 C292 1.511 . S
C295 H309 0.961 . S
C295 H310 0.961 1_655 S
C295 H311 0.961 . S
C296 C297 1.370 . S
C296 C298 1.363 . S
C296 H312 0.931 . S
C297 C296 1.370 . S
C297 C301 1.408 . S
C298 C296 1.363 . S
C298 C299 1.370 . S
C298 C302 1.524 . S
C299 C291 1.503 1_455 S
C299 C298 1.370 . S
C299 C300 1.403 . S
C300 C299 1.403 . S
C300 C301 1.404 . S
C300 C303 1.539 . S
C301 C297 1.408 . S
C301 C300 1.404 . S
C301 H313 0.930 . S
C302 C298 1.524 . S
C302 H314 0.956 . S
C302 H315 0.961 . S
C302 H316 0.961 . S
C303 C300 1.539 . S
C303 H317 0.958 . S
C303 H318 0.961 . S
C303 H319 0.960 . S
H304 C288 0.931 . S
H305 C293 0.929 . S
H306 C294 0.960 1_455 S
H307 C294 0.962 . S
H308 C294 0.960 . S
H309 C295 0.961 . S
H310 C295 0.961 1_455 S
H311 C295 0.961 . S
H312 C296 0.931 . S
H313 C301 0.930 . S
H314 C302 0.956 . S
H315 C302 0.961 . S
H316 C302 0.961 . S
H317 C303 0.958 . S
H318 C303 0.961 . S
H319 C303 0.960 . S
C320 C321 1.391 . S
C320 C322 1.394 . S
C320 H336 0.931 . S
C321 C320 1.391 . S
C321 C325 1.376 . S
C322 C320 1.394 . S
C322 C323 1.369 . S
C322 C326 1.531 . S
C323 C322 1.369 . S
C323 C324 1.410 . S
C323 C331 1.503 1_455 S
C324 C323 1.410 . S
C324 C325 1.392 . S
C324 C327 1.511 . S
C325 C321 1.376 . S
C325 C324 1.392 . S
C325 H337 0.929 . S
C326 C322 1.531 . S
C326 H338 0.960 1_455 S
C326 H339 0.962 . S
C326 H340 0.960 . S
C327 C324 1.511 . S
C327 H341 0.961 . S
C327 H342 0.961 1_455 S
C327 H343 0.961 . S
C328 C329 1.370 . S
C328 C330 1.363 . S
C328 H344 0.931 . S
C329 C328 1.370 . S
C329 C333 1.408 . S
C330 C328 1.363 . S
C330 C331 1.370 . S
C330 C334 1.524 . S
C331 C323 1.503 1_655 S
C331 C330 1.370 . S
C331 C332 1.403 . S
C332 C331 1.403 . S
C332 C333 1.404 . S
C332 C335 1.539 . S
C333 C329 1.408 . S
C333 C332 1.404 . S
C333 H345 0.930 . S
C334 C330 1.524 . S
C334 H346 0.956 . S
C334 H347 0.961 . S
C334 H348 0.961 . S
C335 C332 1.539 . S
C335 H349 0.958 . S
C335 H350 0.961 . S
C335 H351 0.960 . S
H336 C320 0.931 . S
H337 C325 0.929 . S
H338 C326 0.960 1_655 S
H339 C326 0.962 . S
H340 C326 0.960 . S
H341 C327 0.961 . S
H342 C327 0.961 1_655 S
H343 C327 0.961 . S
H344 C328 0.931 . S
H345 C333 0.930 . S
H346 C334 0.956 . S
H347 C334 0.961 . S
H348 C334 0.961 . S
H349 C335 0.958 . S
H350 C335 0.961 . S
H351 C335 0.960 . S
C352 C353 1.391 . S
C352 C354 1.394 . S
C352 H368 0.931 . S
C353 C352 1.391 . S
C353 C357 1.376 . S
C354 C352 1.394 . S
C354 C355 1.369 . S
C354 C358 1.531 . S
C355 C354 1.369 . S
C355 C356 1.410 . S
C355 C363 1.503 . S
C356 C355 1.410 . S
C356 C357 1.392 . S
C356 C359 1.511 . S
C357 C353 1.376 . S
C357 C356 1.392 . S
C357 H369 0.929 . S
C358 C354 1.531 . S
C358 H370 0.960 . S
C358 H371 0.962 . S
C358 H372 0.960 . S
C359 C356 1.511 . S
C359 H373 0.961 . S
C359 H374 0.961 . S
C359 H375 0.961 . S
C360 C361 1.370 . S
C360 C362 1.363 . S
C360 H376 0.931 . S
C361 C360 1.370 . S
C361 C365 1.408 . S
C362 C360 1.363 . S
C362 C363 1.370 . S
C362 C366 1.524 . S
C363 C355 1.503 . S
C363 C362 1.370 . S
C363 C364 1.403 . S
C364 C363 1.403 . S
C364 C365 1.404 . S
C364 C367 1.539 . S
C365 C361 1.408 . S
C365 C364 1.404 . S
C365 H377 0.930 . S
C366 C362 1.524 . S
C366 H378 0.956 . S
C366 H379 0.961 . S
C366 H380 0.961 . S
C367 C364 1.539 . S
C367 H381 0.958 . S
C367 H382 0.961 . S
C367 H383 0.960 . S
H368 C352 0.931 . S
H369 C357 0.929 . S
H370 C358 0.960 . S
H371 C358 0.962 . S
H372 C358 0.960 . S
H373 C359 0.961 . S
H374 C359 0.961 . S
H375 C359 0.961 . S
H376 C360 0.931 . S
H377 C365 0.930 . S
H378 C366 0.956 . S
H379 C366 0.961 . S
H380 C366 0.961 . S
H381 C367 0.958 . S
H382 C367 0.961 . S
H383 C367 0.960 . S
C384 C385 1.391 . S
C384 C386 1.394 . S
C384 H400 0.931 . S
C385 C384 1.391 . S
C385 C389 1.376 . S
C386 C384 1.394 . S
C386 C387 1.369 . S
C386 C390 1.531 . S
C387 C386 1.369 . S
C387 C388 1.410 . S
C387 C395 1.503 . S
C388 C387 1.410 . S
C388 C389 1.392 . S
C388 C391 1.511 . S
C389 C385 1.376 . S
C389 C388 1.392 . S
C389 H401 0.929 . S
C390 C386 1.531 . S
C390 H402 0.960 . S
C390 H403 0.962 . S
C390 H404 0.960 . S
C391 C388 1.511 . S
C391 H405 0.961 . S
C391 H406 0.961 . S
C391 H407 0.961 . S
C392 C393 1.370 . S
C392 C394 1.363 . S
C392 H408 0.931 . S
C393 C392 1.370 . S
C393 C397 1.408 . S
C394 C392 1.363 . S
C394 C395 1.370 . S
C394 C398 1.524 . S
C395 C387 1.503 . S
C395 C394 1.370 . S
C395 C396 1.403 . S
C396 C395 1.403 . S
C396 C397 1.404 . S
C396 C399 1.539 . S
C397 C393 1.408 . S
C397 C396 1.404 . S
C397 H409 0.930 . S
C398 C394 1.524 . S
C398 H410 0.956 . S
C398 H411 0.961 . S
C398 H412 0.961 . S
C399 C396 1.539 . S
C399 H413 0.958 . S
C399 H414 0.961 . S
C399 H415 0.960 . S
H400 C384 0.931 . S
H401 C389 0.929 . S
H402 C390 0.960 . S
H403 C390 0.962 . S
H404 C390 0.960 . S
H405 C391 0.961 . S
H406 C391 0.961 . S
H407 C391 0.961 . S
H408 C392 0.931 . S
H409 C397 0.930 . S
H410 C398 0.956 . S
H411 C398 0.961 . S
H412 C398 0.961 . S
H413 C399 0.958 . S
H414 C399 0.961 . S
H415 C399 0.960 . S
C416 C417 1.391 . S
C416 C418 1.394 . S
C416 H432 0.931 . S
C417 C416 1.391 . S
C417 C421 1.376 . S
C418 C416 1.394 . S
C418 C419 1.369 . S
C418 C422 1.531 . S
C419 C418 1.369 . S
C419 C420 1.410 . S
C419 C427 1.503 . S
C420 C419 1.410 . S
C420 C421 1.392 . S
C420 C423 1.511 . S
C421 C417 1.376 . S
C421 C420 1.392 . S
C421 H433 0.929 . S
C422 C418 1.531 . S
C422 H434 0.960 . S
C422 H435 0.962 . S
C422 H436 0.960 . S
C423 C420 1.511 . S
C423 H437 0.961 . S
C423 H438 0.961 . S
C423 H439 0.961 . S
C424 C425 1.370 . S
C424 C426 1.363 . S
C424 H440 0.931 . S
C425 C424 1.370 . S
C425 C429 1.408 . S
C426 C424 1.363 . S
C426 C427 1.370 . S
C426 C430 1.524 . S
C427 C419 1.503 . S
C427 C426 1.370 . S
C427 C428 1.403 . S
C428 C427 1.403 . S
C428 C429 1.404 . S
C428 C431 1.539 . S
C429 C425 1.408 . S
C429 C428 1.404 . S
C429 H441 0.930 . S
C430 C426 1.524 . S
C430 H442 0.956 . S
C430 H443 0.961 . S
C430 H444 0.961 . S
C431 C428 1.539 . S
C431 H445 0.958 . S
C431 H446 0.961 . S
C431 H447 0.960 . S
H432 C416 0.931 . S
H433 C421 0.929 . S
H434 C422 0.960 . S
H435 C422 0.962 . S
H436 C422 0.960 . S
H437 C423 0.961 . S
H438 C423 0.961 . S
H439 C423 0.961 . S
H440 C424 0.931 . S
H441 C429 0.930 . S
H442 C430 0.956 . S
H443 C430 0.961 . S
H444 C430 0.961 . S
H445 C431 0.958 . S
H446 C431 0.961 . S
H447 C431 0.960 . S
C448 C449 1.391 . S
C448 C450 1.394 . S
C448 H464 0.931 . S
C449 C448 1.391 . S
C449 C453 1.376 . S
C450 C448 1.394 . S
C450 C451 1.369 . S
C450 C454 1.531 . S
C451 C450 1.369 . S
C451 C452 1.410 . S
C451 C459 1.503 . S
C452 C451 1.410 . S
C452 C453 1.392 . S
C452 C455 1.511 . S
C453 C449 1.376 . S
C453 C452 1.392 . S
C453 H465 0.929 . S
C454 C450 1.531 . S
C454 H466 0.960 . S
C454 H467 0.962 . S
C454 H468 0.960 . S
C455 C452 1.511 . S
C455 H469 0.961 . S
C455 H470 0.961 . S
C455 H471 0.961 . S
C456 C457 1.370 . S
C456 C458 1.363 . S
C456 H472 0.931 . S
C457 C456 1.370 . S
C457 C461 1.408 . S
C458 C456 1.363 . S
C458 C459 1.370 . S
C458 C462 1.524 . S
C459 C451 1.503 . S
C459 C458 1.370 . S
C459 C460 1.403 . S
C460 C459 1.403 . S
C460 C461 1.404 . S
C460 C463 1.539 . S
C461 C457 1.408 . S
C461 C460 1.404 . S
C461 H473 0.930 . S
C462 C458 1.524 . S
C462 H474 0.956 . S
C462 H475 0.961 . S
C462 H476 0.961 . S
C463 C460 1.539 . S
C463 H477 0.958 . S
C463 H478 0.961 . S
C463 H479 0.960 . S
H464 C448 0.931 . S
H465 C453 0.929 . S
H466 C454 0.960 . S
H467 C454 0.962 . S
H468 C454 0.960 . S
H469 C455 0.961 . S
H470 C455 0.961 . S
H471 C455 0.961 . S
H472 C456 0.931 . S
H473 C461 0.930 . S
H474 C462 0.956 . S
H475 C462 0.961 . S
H476 C462 0.961 . S
H477 C463 0.958 . S
H478 C463 0.961 . S
H479 C463 0.960 . S
C480 C481 1.391 . S
C480 C482 1.394 . S
C480 H496 0.931 . S
C481 C480 1.391 . S
C481 C485 1.376 . S
C482 C480 1.394 . S
C482 C483 1.369 . S
C482 C486 1.531 . S
C483 C482 1.369 . S
C483 C484 1.410 . S
C483 C491 1.503 . S
C484 C483 1.410 . S
C484 C485 1.392 . S
C484 C487 1.511 . S
C485 C481 1.376 . S
C485 C484 1.392 . S
C485 H497 0.929 . S
C486 C482 1.531 . S
C486 H498 0.960 . S
C486 H499 0.962 . S
C486 H500 0.960 . S
C487 C484 1.511 . S
C487 H501 0.961 . S
C487 H502 0.961 . S
C487 H503 0.961 . S
C488 C489 1.370 . S
C488 C490 1.363 . S
C488 H504 0.931 . S
C489 C488 1.370 . S
C489 C493 1.408 . S
C490 C488 1.363 . S
C490 C491 1.370 . S
C490 C494 1.524 . S
C491 C483 1.503 . S
C491 C490 1.370 . S
C491 C492 1.403 . S
C492 C491 1.403 . S
C492 C493 1.404 . S
C492 C495 1.539 . S
C493 C489 1.408 . S
C493 C492 1.404 . S
C493 H505 0.930 . S
C494 C490 1.524 . S
C494 H506 0.956 . S
C494 H507 0.961 . S
C494 H508 0.961 . S
C495 C492 1.539 . S
C495 H509 0.958 . S
C495 H510 0.961 . S
C495 H511 0.960 . S
H496 C480 0.931 . S
H497 C485 0.929 . S
H498 C486 0.960 . S
H499 C486 0.962 . S
H500 C486 0.960 . S
H501 C487 0.961 . S
H502 C487 0.961 . S
H503 C487 0.961 . S
H504 C488 0.931 . S
H505 C493 0.930 . S
H506 C494 0.956 . S
H507 C494 0.961 . S
H508 C494 0.961 . S
H509 C495 0.958 . S
H510 C495 0.961 . S
H511 C495 0.960 . S
C512 C513 1.391 . S
C512 C514 1.394 . S
C512 H528 0.931 . S
C513 C512 1.391 . S
C513 C517 1.376 . S
C514 C512 1.394 . S
C514 C515 1.369 . S
C514 C518 1.531 . S
C515 C514 1.369 . S
C515 C516 1.410 . S
C515 C523 1.503 . S
C516 C515 1.410 . S
C516 C517 1.392 . S
C516 C519 1.511 . S
C517 C513 1.376 . S
C517 C516 1.392 . S
C517 H529 0.929 . S
C518 C514 1.531 . S
C518 H530 0.960 . S
C518 H531 0.962 . S
C518 H532 0.960 . S
C519 C516 1.511 . S
C519 H533 0.961 . S
C519 H534 0.961 . S
C519 H535 0.961 . S
C520 C521 1.370 . S
C520 C522 1.363 . S
C520 H536 0.931 . S
C521 C520 1.370 . S
C521 C525 1.408 . S
C522 C520 1.363 . S
C522 C523 1.370 . S
C522 C526 1.524 . S
C523 C515 1.503 . S
C523 C522 1.370 . S
C523 C524 1.403 . S
C524 C523 1.403 . S
C524 C525 1.404 . S
C524 C527 1.539 . S
C525 C521 1.408 . S
C525 C524 1.404 . S
C525 H537 0.930 . S
C526 C522 1.524 . S
C526 H538 0.956 . S
C526 H539 0.961 . S
C526 H540 0.961 . S
C527 C524 1.539 . S
C527 H541 0.958 . S
C527 H542 0.961 . S
C527 H543 0.960 . S
H528 C512 0.931 . S
H529 C517 0.929 . S
H530 C518 0.960 . S
H531 C518 0.962 . S
H532 C518 0.960 . S
H533 C519 0.961 . S
H534 C519 0.961 . S
H535 C519 0.961 . S
H536 C520 0.931 . S
H537 C525 0.930 . S
H538 C526 0.956 . S
H539 C526 0.961 . S
H540 C526 0.961 . S
H541 C527 0.958 . S
H542 C527 0.961 . S
H543 C527 0.960 . S
C544 C545 1.391 . S
C544 C546 1.394 . S
C544 H560 0.931 . S
C545 C544 1.391 . S
C545 C549 1.376 . S
C546 C544 1.394 . S
C546 C547 1.369 . S
C546 C550 1.531 . S
C547 C546 1.369 . S
C547 C548 1.410 . S
C547 C555 1.503 . S
C548 C547 1.410 . S
C548 C549 1.392 . S
C548 C551 1.511 . S
C549 C545 1.376 . S
C549 C548 1.392 . S
C549 H561 0.929 . S
C550 C546 1.531 . S
C550 H562 0.960 . S
C550 H563 0.962 . S
C550 H564 0.960 . S
C551 C548 1.511 . S
C551 H565 0.961 . S
C551 H566 0.961 . S
C551 H567 0.961 . S
C552 C553 1.370 . S
C552 C554 1.363 . S
C552 H568 0.931 . S
C553 C552 1.370 . S
C553 C557 1.408 . S
C554 C552 1.363 . S
C554 C555 1.370 . S
C554 C558 1.524 . S
C555 C547 1.503 . S
C555 C554 1.370 . S
C555 C556 1.403 . S
C556 C555 1.403 . S
C556 C557 1.404 . S
C556 C559 1.539 . S
C557 C553 1.408 . S
C557 C556 1.404 . S
C557 H569 0.930 . S
C558 C554 1.524 . S
C558 H570 0.956 . S
C558 H571 0.961 . S
C558 H572 0.961 . S
C559 C556 1.539 . S
C559 H573 0.958 . S
C559 H574 0.961 . S
C559 H575 0.960 . S
H560 C544 0.931 . S
H561 C549 0.929 . S
H562 C550 0.960 . S
H563 C550 0.962 . S
H564 C550 0.960 . S
H565 C551 0.961 . S
H566 C551 0.961 . S
H567 C551 0.961 . S
H568 C552 0.931 . S
H569 C557 0.930 . S
H570 C558 0.956 . S
H571 C558 0.961 . S
H572 C558 0.961 . S
H573 C559 0.958 . S
H574 C559 0.961 . S
H575 C559 0.960 . S
C576 C577 1.391 . S
C576 C578 1.394 . S
C576 H592 0.931 . S
C577 C576 1.391 . S
C577 C581 1.376 . S
C578 C576 1.394 . S
C578 C579 1.369 . S
C578 C582 1.531 . S
C579 C578 1.369 . S
C579 C580 1.410 . S
C579 C587 1.503 . S
C580 C579 1.410 . S
C580 C581 1.392 . S
C580 C583 1.511 . S
C581 C577 1.376 . S
C581 C580 1.392 . S
C581 H593 0.929 . S
C582 C578 1.531 . S
C582 H594 0.960 . S
C582 H595 0.962 . S
C582 H596 0.960 . S
C583 C580 1.511 . S
C583 H597 0.961 . S
C583 H598 0.961 . S
C583 H599 0.961 . S
C584 C585 1.370 . S
C584 C586 1.363 . S
C584 H600 0.931 . S
C585 C584 1.370 . S
C585 C589 1.408 . S
C586 C584 1.363 . S
C586 C587 1.370 . S
C586 C590 1.524 . S
C587 C579 1.503 . S
C587 C586 1.370 . S
C587 C588 1.403 . S
C588 C587 1.403 . S
C588 C589 1.404 . S
C588 C591 1.539 . S
C589 C585 1.408 . S
C589 C588 1.404 . S
C589 H601 0.930 . S
C590 C586 1.524 . S
C590 H602 0.956 . S
C590 H603 0.961 . S
C590 H604 0.961 . S
C591 C588 1.539 . S
C591 H605 0.958 . S
C591 H606 0.961 . S
C591 H607 0.960 . S
H592 C576 0.931 . S
H593 C581 0.929 . S
H594 C582 0.960 . S
H595 C582 0.962 . S
H596 C582 0.960 . S
H597 C583 0.961 . S
H598 C583 0.961 . S
H599 C583 0.961 . S
H600 C584 0.931 . S
H601 C589 0.930 . S
H602 C590 0.956 . S
H603 C590 0.961 . S
H604 C590 0.961 . S
H605 C591 0.958 . S
H606 C591 0.961 . S
H607 C591 0.960 . S
C608 C609 1.391 . S
C608 C610 1.394 . S
C608 H624 0.931 . S
C609 C608 1.391 . S
C609 C613 1.376 . S
C610 C608 1.394 . S
C610 C611 1.369 . S
C610 C614 1.531 . S
C611 C610 1.369 . S
C611 C612 1.410 . S
C611 C619 1.503 . S
C612 C611 1.410 . S
C612 C613 1.392 . S
C612 C615 1.511 . S
C613 C609 1.376 . S
C613 C612 1.392 . S
C613 H625 0.929 . S
C614 C610 1.531 . S
C614 H626 0.960 . S
C614 H627 0.962 . S
C614 H628 0.960 . S
C615 C612 1.511 . S
C615 H629 0.961 . S
C615 H630 0.961 . S
C615 H631 0.961 . S
C616 C617 1.370 . S
C616 C618 1.363 . S
C616 H632 0.931 . S
C617 C616 1.370 . S
C617 C621 1.408 . S
C618 C616 1.363 . S
C618 C619 1.370 . S
C618 C622 1.524 . S
C619 C611 1.503 . S
C619 C618 1.370 . S
C619 C620 1.403 . S
C620 C619 1.403 . S
C620 C621 1.404 . S
C620 C623 1.539 . S
C621 C617 1.408 . S
C621 C620 1.404 . S
C621 H633 0.930 . S
C622 C618 1.524 . S
C622 H634 0.956 . S
C622 H635 0.961 . S
C622 H636 0.961 . S
C623 C620 1.539 . S
C623 H637 0.958 . S
C623 H638 0.961 . S
C623 H639 0.960 . S
H624 C608 0.931 . S
H625 C613 0.929 . S
H626 C614 0.960 . S
H627 C614 0.962 . S
H628 C614 0.960 . S
H629 C615 0.961 . S
H630 C615 0.961 . S
H631 C615 0.961 . S
H632 C616 0.931 . S
H633 C621 0.930 . S
H634 C622 0.956 . S
H635 C622 0.961 . S
H636 C622 0.961 . S
H637 C623 0.958 . S
H638 C623 0.961 . S
H639 C623 0.960 . S
C640 C641 1.391 . S
C640 C642 1.394 . S
C640 H656 0.931 . S
C641 C640 1.391 . S
C641 C645 1.376 . S
C642 C640 1.394 . S
C642 C643 1.369 . S
C642 C646 1.531 . S
C643 C642 1.369 . S
C643 C644 1.410 . S
C643 C651 1.503 . S
C644 C643 1.410 . S
C644 C645 1.392 . S
C644 C647 1.511 . S
C645 C641 1.376 . S
C645 C644 1.392 . S
C645 H657 0.929 . S
C646 C642 1.531 . S
C646 H658 0.960 . S
C646 H659 0.962 . S
C646 H660 0.960 . S
C647 C644 1.511 . S
C647 H661 0.961 . S
C647 H662 0.961 . S
C647 H663 0.961 . S
C648 C649 1.370 . S
C648 C650 1.363 . S
C648 H664 0.931 . S
C649 C648 1.370 . S
C649 C653 1.408 . S
C650 C648 1.363 . S
C650 C651 1.370 . S
C650 C654 1.524 . S
C651 C643 1.503 . S
C651 C650 1.370 . S
C651 C652 1.403 . S
C652 C651 1.403 . S
C652 C653 1.404 . S
C652 C655 1.539 . S
C653 C649 1.408 . S
C653 C652 1.404 . S
C653 H665 0.930 . S
C654 C650 1.524 . S
C654 H666 0.956 . S
C654 H667 0.961 . S
C654 H668 0.961 . S
C655 C652 1.539 . S
C655 H669 0.958 . S
C655 H670 0.961 . S
C655 H671 0.960 . S
H656 C640 0.931 . S
H657 C645 0.929 . S
H658 C646 0.960 . S
H659 C646 0.962 . S
H660 C646 0.960 . S
H661 C647 0.961 . S
H662 C647 0.961 . S
H663 C647 0.961 . S
H664 C648 0.931 . S
H665 C653 0.930 . S
H666 C654 0.956 . S
H667 C654 0.961 . S
H668 C654 0.961 . S
H669 C655 0.958 . S
H670 C655 0.961 . S
H671 C655 0.960 . S
C672 C673 1.391 . S
C672 C674 1.394 . S
C672 H688 0.931 . S
C673 C672 1.391 . S
C673 C677 1.376 . S
C674 C672 1.394 . S
C674 C675 1.369 . S
C674 C678 1.531 . S
C675 C674 1.369 . S
C675 C676 1.410 . S
C675 C683 1.503 . S
C676 C675 1.410 . S
C676 C677 1.392 . S
C676 C679 1.511 . S
C677 C673 1.376 . S
C677 C676 1.392 . S
C677 H689 0.929 . S
C678 C674 1.531 . S
C678 H690 0.960 . S
C678 H691 0.962 . S
C678 H692 0.960 . S
C679 C676 1.511 . S
C679 H693 0.961 . S
C679 H694 0.961 . S
C679 H695 0.961 . S
C680 C681 1.370 . S
C680 C682 1.363 . S
C680 H696 0.931 . S
C681 C680 1.370 . S
C681 C685 1.408 . S
C682 C680 1.363 . S
C682 C683 1.370 . S
C682 C686 1.524 . S
C683 C675 1.503 . S
C683 C682 1.370 . S
C683 C684 1.403 . S
C684 C683 1.403 . S
C684 C685 1.404 . S
C684 C687 1.539 . S
C685 C681 1.408 . S
C685 C684 1.404 . S
C685 H697 0.930 . S
C686 C682 1.524 . S
C686 H698 0.956 . S
C686 H699 0.961 . S
C686 H700 0.961 . S
C687 C684 1.539 . S
C687 H701 0.958 . S
C687 H702 0.961 . S
C687 H703 0.960 . S
H688 C672 0.931 . S
H689 C677 0.929 . S
H690 C678 0.960 . S
H691 C678 0.962 . S
H692 C678 0.960 . S
H693 C679 0.961 . S
H694 C679 0.961 . S
H695 C679 0.961 . S
H696 C680 0.931 . S
H697 C685 0.930 . S
H698 C686 0.956 . S
H699 C686 0.961 . S
H700 C686 0.961 . S
H701 C687 0.958 . S
H702 C687 0.961 . S
H703 C687 0.960 . S
C704 C705 1.391 . S
C704 C706 1.394 . S
C704 H720 0.931 . S
C705 C704 1.391 . S
C705 C709 1.376 . S
C706 C704 1.394 . S
C706 C707 1.369 . S
C706 C710 1.531 . S
C707 C706 1.369 . S
C707 C708 1.410 . S
C707 C715 1.503 . S
C708 C707 1.410 . S
C708 C709 1.392 . S
C708 C711 1.511 . S
C709 C705 1.376 . S
C709 C708 1.392 . S
C709 H721 0.929 . S
C710 C706 1.531 . S
C710 H722 0.960 . S
C710 H723 0.962 . S
C710 H724 0.960 . S
C711 C708 1.511 . S
C711 H725 0.961 . S
C711 H726 0.961 . S
C711 H727 0.961 . S
C712 C713 1.370 . S
C712 C714 1.363 . S
C712 H728 0.931 . S
C713 C712 1.370 . S
C713 C717 1.408 . S
C714 C712 1.363 . S
C714 C715 1.370 . S
C714 C718 1.524 . S
C715 C707 1.503 . S
C715 C714 1.370 . S
C715 C716 1.403 . S
C716 C715 1.403 . S
C716 C717 1.404 . S
C716 C719 1.539 . S
C717 C713 1.408 . S
C717 C716 1.404 . S
C717 H729 0.930 . S
C718 C714 1.524 . S
C718 H730 0.956 . S
C718 H731 0.961 . S
C718 H732 0.961 . S
C719 C716 1.539 . S
C719 H733 0.958 . S
C719 H734 0.961 . S
C719 H735 0.960 . S
H720 C704 0.931 . S
H721 C709 0.929 . S
H722 C710 0.960 . S
H723 C710 0.962 . S
H724 C710 0.960 . S
H725 C711 0.961 . S
H726 C711 0.961 . S
H727 C711 0.961 . S
H728 C712 0.931 . S
H729 C717 0.930 . S
H730 C718 0.956 . S
H731 C718 0.961 . S
H732 C718 0.961 . S
H733 C719 0.958 . S
H734 C719 0.961 . S
H735 C719 0.960 . S
C736 C737 1.391 . S
C736 C738 1.394 . S
C736 H752 0.931 . S
C737 C736 1.391 . S
C737 C741 1.376 . S
C738 C736 1.394 . S
C738 C739 1.369 . S
C738 C742 1.531 . S
C739 C738 1.369 . S
C739 C740 1.411 . S
C739 C747 1.503 1_556 S
C740 C739 1.411 . S
C740 C741 1.398 . S
C740 C743 1.504 1_556 S
C741 C737 1.376 . S
C741 C740 1.398 . S
C741 H753 0.929 . S
C742 C738 1.531 . S
C742 H754 0.960 . S
C742 H755 0.962 . S
C742 H756 0.960 . S
C743 C740 1.504 1_554 S
C743 H757 0.961 . S
C743 H758 0.961 . S
C743 H759 0.961 . S
C744 C745 1.370 . S
C744 C746 1.363 1_554 S
C744 H760 0.931 . S
C745 C744 1.370 . S
C745 C749 1.408 . S
C746 C744 1.363 1_556 S
C746 C747 1.370 1_556 S
C746 C750 1.524 . S
C747 C739 1.503 1_554 S
C747 C746 1.370 1_554 S
C747 C748 1.403 . S
C748 C747 1.403 . S
C748 C749 1.404 . S
C748 C751 1.539 . S
C749 C745 1.408 . S
C749 C748 1.404 . S
C749 H761 0.930 . S
C750 C746 1.524 . S
C750 H762 0.956 . S
C750 H763 0.961 . S
C750 H764 0.961 . S
C751 C748 1.539 . S
C751 H765 0.958 . S
C751 H766 0.961 . S
C751 H767 0.960 . S
H752 C736 0.931 . S
H753 C741 0.929 . S
H754 C742 0.960 . S
H755 C742 0.962 . S
H756 C742 0.960 . S
H757 C743 0.961 . S
H758 C743 0.961 . S
H759 C743 0.961 . S
H760 C744 0.931 . S
H761 C749 0.930 . S
H762 C750 0.956 . S
H763 C750 0.961 . S
H764 C750 0.961 . S
H765 C751 0.958 . S
H766 C751 0.961 . S
H767 C751 0.960 . S
C768 C769 1.391 . S
C768 C770 1.394 . S
C768 H784 0.931 . S
C769 C768 1.391 . S
C769 C773 1.376 . S
C770 C768 1.394 . S
C770 C771 1.369 . S
C770 C774 1.531 . S
C771 C770 1.369 . S
C771 C772 1.410 . S
C771 C779 1.503 . S
C772 C771 1.410 . S
C772 C773 1.392 . S
C772 C775 1.511 . S
C773 C769 1.376 . S
C773 C772 1.392 . S
C773 H785 0.929 . S
C774 C770 1.531 . S
C774 H786 0.960 . S
C774 H787 0.962 . S
C774 H788 0.960 . S
C775 C772 1.511 . S
C775 H789 0.961 . S
C775 H790 0.961 . S
C775 H791 0.961 . S
C776 C777 1.370 . S
C776 C778 1.363 . S
C776 H792 0.931 . S
C777 C776 1.370 . S
C777 C781 1.408 . S
C778 C776 1.363 . S
C778 C779 1.370 . S
C778 C782 1.524 . S
C779 C771 1.503 . S
C779 C778 1.370 . S
C779 C780 1.403 . S
C780 C779 1.403 . S
C780 C781 1.404 . S
C780 C783 1.539 . S
C781 C777 1.408 . S
C781 C780 1.404 . S
C781 H793 0.930 . S
C782 C778 1.524 . S
C782 H794 0.956 . S
C782 H795 0.961 . S
C782 H796 0.961 . S
C783 C780 1.539 . S
C783 H797 0.958 . S
C783 H798 0.961 . S
C783 H799 0.960 . S
H784 C768 0.931 . S
H785 C773 0.929 . S
H786 C774 0.960 . S
H787 C774 0.962 . S
H788 C774 0.960 . S
H789 C775 0.961 . S
H790 C775 0.961 . S
H791 C775 0.961 . S
H792 C776 0.931 . S
H793 C781 0.930 . S
H794 C782 0.956 . S
H795 C782 0.961 . S
H796 C782 0.961 . S
H797 C783 0.958 . S
H798 C783 0.961 . S
H799 C783 0.960 . S
C800 C801 1.391 . S
C800 C802 1.394 . S
C800 H816 0.931 . S
C801 C800 1.391 . S
C801 C805 1.376 . S
C802 C800 1.394 . S
C802 C803 1.369 . S
C802 C806 1.531 1_554 S
C803 C802 1.369 . S
C803 C804 1.410 . S
C803 C811 1.503 1_554 S
C804 C803 1.410 . S
C804 C805 1.392 . S
C804 C807 1.511 . S
C805 C801 1.376 . S
C805 C804 1.392 . S
C805 H817 0.929 . S
C806 C802 1.531 1_556 S
C806 H818 0.960 . S
C806 H819 0.962 1_556 S
C806 H820 0.960 . S
C807 C804 1.511 . S
C807 H821 0.961 . S
C807 H822 0.961 . S
C807 H823 0.961 1_554 S
C808 C809 1.370 . S
C808 C810 1.363 1_556 S
C808 H824 0.931 1_556 S
C809 C808 1.370 . S
C809 C813 1.408 . S
C810 C808 1.363 1_554 S
C810 C811 1.370 1_554 S
C810 C814 1.524 . S
C811 C803 1.503 1_556 S
C811 C810 1.370 1_556 S
C811 C812 1.403 . S
C812 C811 1.403 . S
C812 C813 1.404 . S
C812 C815 1.539 . S
C813 C809 1.408 . S
C813 C812 1.404 . S
C813 H825 0.930 . S
C814 C810 1.524 . S
C814 H826 0.956 . S
C814 H827 0.961 . S
C814 H828 0.961 . S
C815 C812 1.539 . S
C815 H829 0.958 . S
C815 H830 0.961 . S
C815 H831 0.960 . S
H816 C800 0.931 . S
H817 C805 0.929 . S
H818 C806 0.960 . S
H819 C806 0.962 1_554 S
H820 C806 0.960 . S
H821 C807 0.961 . S
H822 C807 0.961 . S
H823 C807 0.961 1_556 S
H824 C808 0.931 1_554 S
H825 C813 0.930 . S
H826 C814 0.956 . S
H827 C814 0.961 . S
H828 C814 0.961 . S
H829 C815 0.958 . S
H830 C815 0.961 . S
H831 C815 0.960 . S
C832 C833 1.391 . S
C832 C834 1.394 . S
C832 H848 0.931 . S
C833 C832 1.391 . S
C833 C837 1.376 . S
C834 C832 1.394 . S
C834 C835 1.369 . S
C834 C838 1.531 . S
C835 C834 1.369 . S
C835 C836 1.410 . S
C835 C843 1.503 . S
C836 C835 1.410 . S
C836 C837 1.392 . S
C836 C839 1.511 . S
C837 C833 1.376 . S
C837 C836 1.392 . S
C837 H849 0.929 . S
C838 C834 1.531 . S
C838 H850 0.960 . S
C838 H851 0.962 . S
C838 H852 0.960 . S
C839 C836 1.511 . S
C839 H853 0.961 . S
C839 H854 0.961 . S
C839 H855 0.961 . S
C840 C841 1.370 . S
C840 C842 1.363 . S
C840 H856 0.931 . S
C841 C840 1.370 . S
C841 C845 1.408 . S
C842 C840 1.363 . S
C842 C843 1.370 . S
C842 C846 1.524 . S
C843 C835 1.503 . S
C843 C842 1.370 . S
C843 C844 1.403 . S
C844 C843 1.403 . S
C844 C845 1.404 . S
C844 C847 1.539 . S
C845 C841 1.408 . S
C845 C844 1.404 . S
C845 H857 0.930 . S
C846 C842 1.524 . S
C846 H858 0.956 . S
C846 H859 0.961 . S
C846 H860 0.961 . S
C847 C844 1.539 . S
C847 H861 0.958 . S
C847 H862 0.961 . S
C847 H863 0.960 . S
H848 C832 0.931 . S
H849 C837 0.929 . S
H850 C838 0.960 . S
H851 C838 0.962 . S
H852 C838 0.960 . S
H853 C839 0.961 . S
H854 C839 0.961 . S
H855 C839 0.961 . S
H856 C840 0.931 . S
H857 C845 0.930 . S
H858 C846 0.956 . S
H859 C846 0.961 . S
H860 C846 0.961 . S
H861 C847 0.958 . S
H862 C847 0.961 . S
H863 C847 0.960 . S
C864 C865 1.391 . S
C864 C866 1.394 1_554 S
C864 H880 0.931 1_554 S
C865 C864 1.391 . S
C865 C869 1.376 . S
C866 C864 1.394 1_556 S
C866 C867 1.369 1_556 S
C866 C870 1.531 . S
C867 C866 1.369 1_554 S
C867 C868 1.410 . S
C867 C875 1.503 1_554 S
C868 C867 1.410 . S
C868 C869 1.392 . S
C868 C871 1.511 . S
C869 C865 1.376 . S
C869 C868 1.392 . S
C869 H881 0.929 . S
C870 C866 1.531 . S
C870 H882 0.960 . S
C870 H883 0.962 . S
C870 H884 0.960 . S
C871 C868 1.511 . S
C871 H885 0.961 . S
C871 H886 0.961 . S
C871 H887 0.961 . S
C872 C873 1.370 . S
C872 C874 1.363 . S
C872 H888 0.931 . S
C873 C872 1.370 . S
C873 C877 1.408 . S
C874 C872 1.363 . S
C874 C875 1.370 . S
C874 C878 1.524 . S
C875 C867 1.503 1_556 S
C875 C874 1.370 . S
C875 C876 1.403 . S
C876 C875 1.403 . S
C876 C877 1.404 . S
C876 C879 1.539 . S
C877 C873 1.408 . S
C877 C876 1.404 . S
C877 H889 0.930 . S
C878 C874 1.524 . S
C878 H890 0.956 . S
C878 H891 0.961 1_556 S
C878 H892 0.961 . S
C879 C876 1.539 . S
C879 H893 0.958 . S
C879 H894 0.961 . S
C879 H895 0.960 1_556 S
H880 C864 0.931 1_556 S
H881 C869 0.929 . S
H882 C870 0.960 . S
H883 C870 0.962 . S
H884 C870 0.960 . S
H885 C871 0.961 . S
H886 C871 0.961 . S
H887 C871 0.961 . S
H888 C872 0.931 . S
H889 C877 0.930 . S
H890 C878 0.956 . S
H891 C878 0.961 1_554 S
H892 C878 0.961 . S
H893 C879 0.958 . S
H894 C879 0.961 . S
H895 C879 0.960 1_554 S
C896 C897 1.391 . S
C896 C898 1.394 . S
C896 H912 0.931 . S
C897 C896 1.391 . S
C897 C901 1.376 . S
C898 C896 1.394 . S
C898 C899 1.369 . S
C898 C902 1.531 . S
C899 C898 1.369 . S
C899 C900 1.410 . S
C899 C907 1.503 . S
C900 C899 1.410 . S
C900 C901 1.392 . S
C900 C903 1.511 . S
C901 C897 1.376 . S
C901 C900 1.392 . S
C901 H913 0.929 . S
C902 C898 1.531 . S
C902 H914 0.960 . S
C902 H915 0.962 . S
C902 H916 0.960 . S
C903 C900 1.511 . S
C903 H917 0.961 . S
C903 H918 0.961 . S
C903 H919 0.961 . S
C904 C905 1.370 . S
C904 C906 1.363 . S
C904 H920 0.931 . S
C905 C904 1.370 . S
C905 C909 1.408 . S
C906 C904 1.363 . S
C906 C907 1.370 . S
C906 C910 1.524 . S
C907 C899 1.503 . S
C907 C906 1.370 . S
C907 C908 1.403 . S
C908 C907 1.403 . S
C908 C909 1.404 . S
C908 C911 1.539 . S
C909 C905 1.408 . S
C909 C908 1.404 . S
C909 H921 0.930 . S
C910 C906 1.524 . S
C910 H922 0.956 . S
C910 H923 0.961 . S
C910 H924 0.961 . S
C911 C908 1.539 . S
C911 H925 0.958 . S
C911 H926 0.961 . S
C911 H927 0.960 . S
H912 C896 0.931 . S
H913 C901 0.929 . S
H914 C902 0.960 . S
H915 C902 0.962 . S
H916 C902 0.960 . S
H917 C903 0.961 . S
H918 C903 0.961 . S
H919 C903 0.961 . S
H920 C904 0.931 . S
H921 C909 0.930 . S
H922 C910 0.956 . S
H923 C910 0.961 . S
H924 C910 0.961 . S
H925 C911 0.958 . S
H926 C911 0.961 . S
H927 C911 0.960 . S
C928 C929 1.391 . S
C928 C930 1.394 . S
C928 H944 0.931 . S
C929 C928 1.391 . S
C929 C933 1.376 . S
C930 C928 1.394 . S
C930 C931 1.369 . S
C930 C934 1.531 . S
C931 C930 1.369 . S
C931 C932 1.410 1_554 S
C931 C939 1.503 1_554 S
C932 C931 1.410 1_556 S
C932 C933 1.392 1_556 S
C932 C935 1.511 . S
C933 C929 1.376 . S
C933 C932 1.392 1_554 S
C933 H945 0.929 . S
C934 C930 1.531 . S
C934 H946 0.960 . S
C934 H947 0.962 . S
C934 H948 0.960 . S
C935 C932 1.511 . S
C935 H949 0.961 . S
C935 H950 0.961 . S
C935 H951 0.961 . S
C936 C937 1.370 . S
C936 C938 1.376 . S
C936 H952 0.931 . S
C937 C936 1.370 . S
C937 C941 1.408 . S
C938 C936 1.376 . S
C938 C939 1.379 . S
C938 C942 1.504 1_556 S
C939 C931 1.503 1_556 S
C939 C938 1.379 . S
C939 C940 1.403 . S
C940 C939 1.403 . S
C940 C941 1.404 . S
C940 C943 1.539 . S
C941 C937 1.408 . S
C941 C940 1.404 . S
C941 H953 0.930 . S
C942 C938 1.504 1_554 S
C942 H954 0.956 . S
C942 H955 0.961 . S
C942 H956 0.961 . S
C943 C940 1.539 . S
C943 H957 0.958 . S
C943 H958 0.961 . S
C943 H959 0.960 . S
H944 C928 0.931 . S
H945 C933 0.929 . S
H946 C934 0.960 . S
H947 C934 0.962 . S
H948 C934 0.960 . S
H949 C935 0.961 . S
H950 C935 0.961 . S
H951 C935 0.961 . S
H952 C936 0.931 . S
H953 C941 0.930 . S
H954 C942 0.956 . S
H955 C942 0.961 . S
H956 C942 0.961 . S
H957 C943 0.958 . S
H958 C943 0.961 . S
H959 C943 0.960 . S
C960 C961 1.391 . S
C960 C962 1.394 . S
C960 H976 0.931 . S
C961 C960 1.391 . S
C961 C965 1.376 . S
C962 C960 1.394 . S
C962 C963 1.369 . S
C962 C966 1.531 . S
C963 C962 1.369 . S
C963 C964 1.410 . S
C963 C971 1.503 . S
C964 C963 1.410 . S
C964 C965 1.392 . S
C964 C967 1.511 . S
C965 C961 1.376 . S
C965 C964 1.392 . S
C965 H977 0.929 . S
C966 C962 1.531 . S
C966 H978 0.960 . S
C966 H979 0.962 . S
C966 H980 0.960 . S
C967 C964 1.511 . S
C967 H981 0.961 . S
C967 H982 0.961 . S
C967 H983 0.961 . S
C968 C969 1.370 . S
C968 C970 1.363 . S
C968 H984 0.931 . S
C969 C968 1.370 . S
C969 C973 1.408 . S
C970 C968 1.363 . S
C970 C971 1.370 . S
C970 C974 1.524 . S
C971 C963 1.503 . S
C971 C970 1.370 . S
C971 C972 1.403 . S
C972 C971 1.403 . S
C972 C973 1.404 . S
C972 C975 1.539 . S
C973 C969 1.408 . S
C973 C972 1.404 . S
C973 H985 0.930 . S
C974 C970 1.524 . S
C974 H986 0.956 . S
C974 H987 0.961 . S
C974 H988 0.961 . S
C975 C972 1.539 . S
C975 H989 0.958 . S
C975 H990 0.961 . S
C975 H991 0.960 . S
H976 C960 0.931 . S
H977 C965 0.929 . S
H978 C966 0.960 . S
H979 C966 0.962 . S
H980 C966 0.960 . S
H981 C967 0.961 . S
H982 C967 0.961 . S
H983 C967 0.961 . S
H984 C968 0.931 . S
H985 C973 0.930 . S
H986 C974 0.956 . S
H987 C974 0.961 . S
H988 C974 0.961 . S
H989 C975 0.958 . S
H990 C975 0.961 . S
H991 C975 0.960 . S
C992 C993 1.391 . S
C992 C994 1.394 . S
C992 H1008 0.931 . S
C993 C992 1.391 . S
C993 C997 1.376 . S
C994 C992 1.394 . S
C994 C995 1.369 . S
C994 C998 1.531 . S
C995 C994 1.369 . S
C995 C996 1.410 1_556 S
C995 C1003 1.503 1_556 S
C996 C995 1.410 1_554 S
C996 C997 1.392 1_554 S
C996 C999 1.511 . S
C997 C993 1.376 . S
C997 C996 1.392 1_556 S
C997 H1009 0.923 1_556 S
C998 C994 1.531 . S
C998 H1010 0.960 . S
C998 H1011 0.962 . S
C998 H1012 0.960 . S
C999 C996 1.511 . S
C999 H1013 0.961 . S
C999 H1014 0.961 . S
C999 H1015 0.961 . S
C1000 C1001 1.370 . S
C1000 C1002 1.363 . S
C1000 H1016 0.931 . S
C1001 C1000 1.370 . S
C1001 C1005 1.408 . S
C1002 C1000 1.363 . S
C1002 C1003 1.370 . S
C1002 C1006 1.524 . S
C1003 C995 1.503 1_554 S
C1003 C1002 1.370 . S
C1003 C1004 1.403 . S
C1004 C1003 1.403 . S
C1004 C1005 1.404 . S
C1004 C1007 1.539 1_554 S
C1005 C1001 1.408 . S
C1005 C1004 1.404 . S
C1005 H1017 0.930 . S
C1006 C1002 1.524 . S
C1006 H1018 0.956 1_554 S
C1006 H1019 0.961 . S
C1006 H1020 0.961 . S
C1007 C1004 1.539 1_556 S
C1007 H1021 0.958 . S
C1007 H1022 0.961 1_556 S
C1007 H1023 0.960 . S
H1008 C992 0.931 . S
H1009 C997 0.923 1_554 S
H1010 C998 0.960 . S
H1011 C998 0.962 . S
H1012 C998 0.960 . S
H1013 C999 0.961 . S
H1014 C999 0.961 . S
H1015 C999 0.961 . S
H1016 C1000 0.931 . S
H1017 C1005 0.930 . S
H1018 C1006 0.956 1_556 S
H1019 C1006 0.961 . S
H1020 C1006 0.961 . S
H1021 C1007 0.958 . S
H1022 C1007 0.961 1_554 S
H1023 C1007 0.960 . S
C1024 C1025 1.391 . S
C1024 C1026 1.394 . S
C1024 H1040 0.931 . S
C1025 C1024 1.391 . S
C1025 C1029 1.376 . S
C1026 C1024 1.394 . S
C1026 C1027 1.369 . S
C1026 C1030 1.531 . S
C1027 C1026 1.369 . S
C1027 C1028 1.410 . S
C1027 C1035 1.503 . S
C1028 C1027 1.410 . S
C1028 C1029 1.392 . S
C1028 C1031 1.511 . S
C1029 C1025 1.376 . S
C1029 C1028 1.392 . S
C1029 H1041 0.929 . S
C1030 C1026 1.531 . S
C1030 H1042 0.960 . S
C1030 H1043 0.962 . S
C1030 H1044 0.960 . S
C1031 C1028 1.511 . S
C1031 H1045 0.961 . S
C1031 H1046 0.961 . S
C1031 H1047 0.961 . S
C1032 C1033 1.370 . S
C1032 C1034 1.363 . S
C1032 H1048 0.931 . S
C1033 C1032 1.370 . S
C1033 C1037 1.408 . S
C1034 C1032 1.363 . S
C1034 C1035 1.370 . S
C1034 C1038 1.524 . S
C1035 C1027 1.503 . S
C1035 C1034 1.370 . S
C1035 C1036 1.403 . S
C1036 C1035 1.403 . S
C1036 C1037 1.404 . S
C1036 C1039 1.539 . S
C1037 C1033 1.408 . S
C1037 C1036 1.404 . S
C1037 H1049 0.930 . S
C1038 C1034 1.524 . S
C1038 H1050 0.956 . S
C1038 H1051 0.961 . S
C1038 H1052 0.961 . S
C1039 C1036 1.539 . S
C1039 H1053 0.958 . S
C1039 H1054 0.961 . S
C1039 H1055 0.960 . S
H1040 C1024 0.931 . S
H1041 C1029 0.929 . S
H1042 C1030 0.960 . S
H1043 C1030 0.962 . S
H1044 C1030 0.960 . S
H1045 C1031 0.961 . S
H1046 C1031 0.961 . S
H1047 C1031 0.961 . S
H1048 C1032 0.931 . S
H1049 C1037 0.930 . S
H1050 C1038 0.956 . S
H1051 C1038 0.961 . S
H1052 C1038 0.961 . S
H1053 C1039 0.958 . S
H1054 C1039 0.961 . S
H1055 C1039 0.960 . S
C1056 C1057 1.391 . S
C1056 C1058 1.394 . S
C1056 H1072 0.931 . S
C1057 C1056 1.391 . S
C1057 C1061 1.376 . S
C1058 C1056 1.394 . S
C1058 C1059 1.369 . S
C1058 C1062 1.531 . S
C1059 C1058 1.369 . S
C1059 C1060 1.410 1_554 S
C1059 C1067 1.503 1_554 S
C1060 C1059 1.410 1_556 S
C1060 C1061 1.392 1_556 S
C1060 C1063 1.511 . S
C1061 C1057 1.376 . S
C1061 C1060 1.392 1_554 S
C1061 H1073 0.929 1_554 S
C1062 C1058 1.531 . S
C1062 H1074 0.960 . S
C1062 H1075 0.962 . S
C1062 H1076 0.960 . S
C1063 C1060 1.511 . S
C1063 H1077 0.961 . S
C1063 H1078 0.961 . S
C1063 H1079 0.961 . S
C1064 C1065 1.370 . S
C1064 C1066 1.363 . S
C1064 H1080 0.931 . S
C1065 C1064 1.370 . S
C1065 C1069 1.408 . S
C1066 C1064 1.363 . S
C1066 C1067 1.370 . S
C1066 C1070 1.524 1_556 S
C1067 C1059 1.503 1_556 S
C1067 C1066 1.370 . S
C1067 C1068 1.403 . S
C1068 C1067 1.403 . S
C1068 C1069 1.404 . S
C1068 C1071 1.539 . S
C1069 C1065 1.408 . S
C1069 C1068 1.404 . S
C1069 H1081 0.930 . S
C1070 C1066 1.524 1_554 S
C1070 H1082 0.956 . S
C1070 H1083 0.962 . S
C1070 H1084 0.961 . S
C1071 C1068 1.539 . S
C1071 H1085 0.958 . S
C1071 H1086 0.961 . S
C1071 H1087 0.960 . S
H1072 C1056 0.931 . S
H1073 C1061 0.929 1_556 S
H1074 C1062 0.960 . S
H1075 C1062 0.962 . S
H1076 C1062 0.960 . S
H1077 C1063 0.961 . S
H1078 C1063 0.961 . S
H1079 C1063 0.961 . S
H1080 C1064 0.931 . S
H1081 C1069 0.930 . S
H1082 C1070 0.956 . S
H1083 C1070 0.962 . S
H1084 C1070 0.961 . S
H1085 C1071 0.958 . S
H1086 C1071 0.961 . S
H1087 C1071 0.960 . S
C1088 C1089 1.391 . S
C1088 C1090 1.394 . S
C1088 H1104 0.931 . S
C1089 C1088 1.391 . S
C1089 C1093 1.376 . S
C1090 C1088 1.394 . S
C1090 C1091 1.369 . S
C1090 C1094 1.531 . S
C1091 C1090 1.369 . S
C1091 C1092 1.410 . S
C1091 C1099 1.503 . S
C1092 C1091 1.410 . S
C1092 C1093 1.392 . S
C1092 C1095 1.511 . S
C1093 C1089 1.376 . S
C1093 C1092 1.392 . S
C1093 H1105 0.929 . S
C1094 C1090 1.531 . S
C1094 H1106 0.960 . S
C1094 H1107 0.962 . S
C1094 H1108 0.960 . S
C1095 C1092 1.511 . S
C1095 H1109 0.961 . S
C1095 H1110 0.961 . S
C1095 H1111 0.961 . S
C1096 C1097 1.370 . S
C1096 C1098 1.363 . S
C1096 H1112 0.931 . S
C1097 C1096 1.370 . S
C1097 C1101 1.408 . S
C1098 C1096 1.363 . S
C1098 C1099 1.370 . S
C1098 C1102 1.524 . S
C1099 C1091 1.503 . S
C1099 C1098 1.370 . S
C1099 C1100 1.403 . S
C1100 C1099 1.403 . S
C1100 C1101 1.404 . S
C1100 C1103 1.539 . S
C1101 C1097 1.408 . S
C1101 C1100 1.404 . S
C1101 H1113 0.930 . S
C1102 C1098 1.524 . S
C1102 H1114 0.956 . S
C1102 H1115 0.961 . S
C1102 H1116 0.961 . S
C1103 C1100 1.539 . S
C1103 H1117 0.958 . S
C1103 H1118 0.961 . S
C1103 H1119 0.960 . S
H1104 C1088 0.931 . S
H1105 C1093 0.929 . S
H1106 C1094 0.960 . S
H1107 C1094 0.962 . S
H1108 C1094 0.960 . S
H1109 C1095 0.961 . S
H1110 C1095 0.961 . S
H1111 C1095 0.961 . S
H1112 C1096 0.931 . S
H1113 C1101 0.930 . S
H1114 C1102 0.956 . S
H1115 C1102 0.961 . S
H1116 C1102 0.961 . S
H1117 C1103 0.958 . S
H1118 C1103 0.961 . S
H1119 C1103 0.960 . S
C1120 C1121 1.391 . S
C1120 C1122 1.394 . S
C1120 H1136 0.931 . S
C1121 C1120 1.391 . S
C1121 C1125 1.376 . S
C1122 C1120 1.394 . S
C1122 C1123 1.369 . S
C1122 C1126 1.530 . S
C1123 C1122 1.369 . S
C1123 C1124 1.410 . S
C1123 C1131 1.503 1_546 S
C1124 C1123 1.410 . S
C1124 C1125 1.392 . S
C1124 C1127 1.511 . S
C1125 C1121 1.376 . S
C1125 C1124 1.392 . S
C1125 H1137 0.929 . S
C1126 C1122 1.530 . S
C1126 H1138 0.961 1_556 S
C1126 H1139 0.961 . S
C1126 H1140 0.961 1_556 S
C1127 C1124 1.511 . S
C1127 H1141 0.961 . S
C1127 H1142 0.962 1_545 S
C1127 H1143 0.961 1_556 S
C1128 C1129 1.370 . S
C1128 C1130 1.363 1_554 S
C1128 H1144 0.931 1_554 S
C1129 C1128 1.370 . S
C1129 C1133 1.408 . S
C1130 C1128 1.363 1_556 S
C1130 C1131 1.370 1_556 S
C1130 C1134 1.524 . S
C1131 C1123 1.503 1_564 S
C1131 C1130 1.370 1_554 S
C1131 C1132 1.403 . S
C1132 C1131 1.403 . S
C1132 C1133 1.404 . S
C1132 C1135 1.539 1_565 S
C1133 C1129 1.408 . S
C1133 C1132 1.404 . S
C1133 H1145 0.930 . S
C1134 C1130 1.524 . S
C1134 H1146 0.956 . S
C1134 H1147 0.961 . S
C1134 H1148 0.961 . S
C1135 C1132 1.539 1_545 S
C1135 H1149 0.958 . S
C1135 H1150 0.961 . S
C1135 H1151 0.960 . S
H1136 C1120 0.931 . S
H1137 C1125 0.929 . S
H1138 C1126 0.961 1_554 S
H1139 C1126 0.961 . S
H1140 C1126 0.961 1_554 S
H1141 C1127 0.961 . S
H1142 C1127 0.962 1_565 S
H1143 C1127 0.961 1_554 S
H1144 C1128 0.931 1_556 S
H1145 C1133 0.930 . S
H1146 C1134 0.956 . S
H1147 C1134 0.961 . S
H1148 C1134 0.961 . S
H1149 C1135 0.958 . S
H1150 C1135 0.961 . S
H1151 C1135 0.960 . S
C1152 C1153 1.391 . S
C1152 C1154 1.394 . S
C1152 H1168 0.931 . S
C1153 C1152 1.391 . S
C1153 C1157 1.376 . S
C1154 C1152 1.394 . S
C1154 C1155 1.369 . S
C1154 C1158 1.531 . S
C1155 C1154 1.369 . S
C1155 C1156 1.410 . S
C1155 C1163 1.503 1_565 S
C1156 C1155 1.410 . S
C1156 C1157 1.392 . S
C1156 C1159 1.511 . S
C1157 C1153 1.376 . S
C1157 C1156 1.392 . S
C1157 H1169 0.929 . S
C1158 C1154 1.531 . S
C1158 H1170 0.960 . S
C1158 H1171 0.962 . S
C1158 H1172 0.960 . S
C1159 C1156 1.511 . S
C1159 H1173 0.961 . S
C1159 H1174 0.961 1_565 S
C1159 H1175 0.961 . S
C1160 C1161 1.370 . S
C1160 C1162 1.363 . S
C1160 H1176 0.931 . S
C1161 C1160 1.370 . S
C1161 C1165 1.408 . S
C1162 C1160 1.363 . S
C1162 C1163 1.370 . S
C1162 C1166 1.524 . S
C1163 C1155 1.503 1_545 S
C1163 C1162 1.370 . S
C1163 C1164 1.403 . S
C1164 C1163 1.403 . S
C1164 C1165 1.404 . S
C1164 C1167 1.539 1_545 S
C1165 C1161 1.408 . S
C1165 C1164 1.404 . S
C1165 H1177 0.930 . S
C1166 C1162 1.524 . S
C1166 H1178 0.956 . S
C1166 H1179 0.961 . S
C1166 H1180 0.961 . S
C1167 C1164 1.539 1_565 S
C1167 H1181 0.958 . S
C1167 H1182 0.961 . S
C1167 H1183 0.960 . S
H1168 C1152 0.931 . S
H1169 C1157 0.929 . S
H1170 C1158 0.960 . S
H1171 C1158 0.962 . S
H1172 C1158 0.960 . S
H1173 C1159 0.961 . S
H1174 C1159 0.961 1_545 S
H1175 C1159 0.961 . S
H1176 C1160 0.931 . S
H1177 C1165 0.930 . S
H1178 C1166 0.956 . S
H1179 C1166 0.961 . S
H1180 C1166 0.961 . S
H1181 C1167 0.958 . S
H1182 C1167 0.961 . S
H1183 C1167 0.960 . S
C1184 C1185 1.391 . S
C1184 C1186 1.394 . S
C1184 H1200 0.931 . S
C1185 C1184 1.391 . S
C1185 C1189 1.376 . S
C1186 C1184 1.394 . S
C1186 C1187 1.369 . S
C1186 C1190 1.531 1_565 S
C1187 C1186 1.369 . S
C1187 C1188 1.410 1_554 S
C1187 C1195 1.503 1_564 S
C1188 C1187 1.410 1_556 S
C1188 C1189 1.392 1_556 S
C1188 C1191 1.511 . S
C1189 C1185 1.376 . S
C1189 C1188 1.392 1_554 S
C1189 H1201 0.929 1_554 S
C1190 C1186 1.531 1_545 S
C1190 H1202 0.960 . S
C1190 H1203 0.962 . S
C1190 H1204 0.960 . S
C1191 C1188 1.511 . S
C1191 H1205 0.961 . S
C1191 H1206 0.961 . S
C1191 H1207 0.961 . S
C1192 C1193 1.370 . S
C1192 C1194 1.363 . S
C1192 H1208 0.931 . S
C1193 C1192 1.370 . S
C1193 C1197 1.408 . S
C1194 C1192 1.363 . S
C1194 C1195 1.370 . S
C1194 C1198 1.524 . S
C1195 C1187 1.503 1_546 S
C1195 C1194 1.370 . S
C1195 C1196 1.403 . S
C1196 C1195 1.403 . S
C1196 C1197 1.404 . S
C1196 C1199 1.539 . S
C1197 C1193 1.408 . S
C1197 C1196 1.404 . S
C1197 H1209 0.930 . S
C1198 C1194 1.524 . S
C1198 H1210 0.956 1_556 S
C1198 H1211 0.961 1_545 S
C1198 H1212 0.961 . S
C1199 C1196 1.539 . S
C1199 H1213 0.958 1_556 S
C1199 H1214 0.961 . S
C1199 H1215 0.960 1_545 S
H1200 C1184 0.931 . S
H1201 C1189 0.929 1_556 S
H1202 C1190 0.960 . S
H1203 C1190 0.962 . S
H1204 C1190 0.960 . S
H1205 C1191 0.961 . S
H1206 C1191 0.961 . S
H1207 C1191 0.961 . S
H1208 C1192 0.931 . S
H1209 C1197 0.930 . S
H1210 C1198 0.956 1_554 S
H1211 C1198 0.961 1_565 S
H1212 C1198 0.961 . S
H1213 C1199 0.958 1_554 S
H1214 C1199 0.961 . S
H1215 C1199 0.960 1_565 S
C1216 C1217 1.391 . S
C1216 C1218 1.394 . S
C1216 H1232 0.931 . S
C1217 C1216 1.391 . S
C1217 C1221 1.376 . S
C1218 C1216 1.394 . S
C1218 C1219 1.369 . S
C1218 C1222 1.531 . S
C1219 C1218 1.369 . S
C1219 C1220 1.410 . S
C1219 C1227 1.503 1_545 S
C1220 C1219 1.410 . S
C1220 C1221 1.392 . S
C1220 C1223 1.511 . S
C1221 C1217 1.376 . S
C1221 C1220 1.392 . S
C1221 H1233 0.929 . S
C1222 C1218 1.531 . S
C1222 H1234 0.960 1_545 S
C1222 H1235 0.962 . S
C1222 H1236 0.960 . S
C1223 C1220 1.511 . S
C1223 H1237 0.961 . S
C1223 H1238 0.961 . S
C1223 H1239 0.961 . S
C1224 C1225 1.370 . S
C1224 C1226 1.363 . S
C1224 H1240 0.931 . S
C1225 C1224 1.370 . S
C1225 C1229 1.408 . S
C1226 C1224 1.363 . S
C1226 C1227 1.370 . S
C1226 C1230 1.524 1_565 S
C1227 C1219 1.503 1_565 S
C1227 C1226 1.370 . S
C1227 C1228 1.403 . S
C1228 C1227 1.403 . S
C1228 C1229 1.404 . S
C1228 C1231 1.539 . S
C1229 C1225 1.408 . S
C1229 C1228 1.404 . S
C1229 H1241 0.930 . S
C1230 C1226 1.524 1_545 S
C1230 H1242 0.956 . S
C1230 H1243 0.961 . S
C1230 H1244 0.961 . S
C1231 C1228 1.539 . S
C1231 H1245 0.958 . S
C1231 H1246 0.961 . S
C1231 H1247 0.960 . S
H1232 C1216 0.931 . S
H1233 C1221 0.929 . S
H1234 C1222 0.960 1_565 S
H1235 C1222 0.962 . S
H1236 C1222 0.960 . S
H1237 C1223 0.961 . S
H1238 C1223 0.961 . S
H1239 C1223 0.961 . S
H1240 C1224 0.931 . S
H1241 C1229 0.930 . S
H1242 C1230 0.956 . S
H1243 C1230 0.961 . S
H1244 C1230 0.961 . S
H1245 C1231 0.958 . S
H1246 C1231 0.961 . S
H1247 C1231 0.960 . S
C225 C4 1.444 . S
C233 C88 1.478 . S
C257 C18 1.486 . S
C265 C102 1.461 . S
C289 C60 1.487 . S
C297 C32 1.459 . S
C321 C74 1.454 . S
C329 C46 1.476 . S
C353 C200 1.459 . S
C361 C116 1.475 . S
C385 C214 1.449 . S
C393 C130 1.477 . S
C417 C144 1.485 . S
C425 C172 1.460 . S
C449 C158 1.486 . S
C457 C186 1.461 . S
C481 C5 1.273 . S
C489 C82 1.434 . S
C513 C19 1.264 . S
C521 C68 1.434 . S
C545 C33 1.334 . S
C553 C110 1.426 . S
C577 C96 1.430 . S
C585 C47 1.270 . S
C609 C194 1.428 . S
C617 C117 1.302 . S
C641 C180 1.428 . S
C649 C131 1.273 . S
C673 C145 1.318 . S
C681 C222 1.426 . S
C705 C208 1.436 . S
C713 C159 1.267 . S
C737 C179 1.351 . S
C745 C11 1.332 . S
C769 C25 1.338 . S
C777 C193 1.340 . S
C801 C207 1.337 . S
C809 C39 1.337 . S
C833 C221 1.323 . S
C841 C53 1.314 . S
C865 C123 1.338 . S
C873 C67 1.321 . S
C897 C137 1.317 . S
C905 C81 1.341 . S
C929 C95 1.353 . S
C937 C151 1.329 . S
C961 C109 1.313 . S
C969 C165 1.315 . S
C993 C40 1.550 . S
C1001 C12 1.548 . S
C1025 C26 1.534 . S
C1033 C54 1.540 . S
C1057 C89 1.239 . S
C1065 C61 1.202 . S
C1089 C75 1.141 . S
C1097 C103 1.158 . S
C1121 C152 1.540 . S
C1129 C124 1.542 . S
C1153 C166 1.540 . S
C1161 C138 1.542 . S
C1185 C201 1.239 . S
C1193 C173 1.205 . S
C1217 C215 1.182 . S
C1225 C187 1.193 . S
