# Generated by pormake.
# Topology mok, (4)-cn, num edge types: 1
# Building blocks:
#     Node 0, Type 0, BuildingBlock: GALJAG_clean_sbu_0, # of connection points: 4
#     Node 1, Type 0, BuildingBlock: GALJAG_clean_sbu_0, # of connection points: 4
#     Node 2, Type 0, BuildingBlock: GALJAG_clean_sbu_0, # of connection points: 4
#     Node 3, Type 0, BuildingBlock: GALJAG_clean_sbu_0, # of connection points: 4
#     Node 4, Type 0, BuildingBlock: GALJAG_clean_sbu_0, # of connection points: 4
#     Node 5, Type 0, BuildingBlock: GALJAG_clean_sbu_0, # of connection points: 4
#     Node 6, Type 0, BuildingBlock: GALJAG_clean_sbu_0, # of connection points: 4
#     Node 7, Type 0, BuildingBlock: GALJAG_clean_sbu_0, # of connection points: 4
#     Edge 8, Type (0, 0), BuildingBlock: OJICUG_clean_linker_0, # of connection points: 2
#     Edge 9, Type (0, 0), BuildingBlock: OJICUG_clean_linker_0, # of connection points: 2
#     Edge 10, Type (0, 0), BuildingBlock: OJICUG_clean_linker_0, # of connection points: 2
#     Edge 11, Type (0, 0), BuildingBlock: OJICUG_clean_linker_0, # of connection points: 2
#     Edge 12, Type (0, 0), BuildingBlock: OJICUG_clean_linker_0, # of connection points: 2
#     Edge 13, Type (0, 0), BuildingBlock: OJICUG_clean_linker_0, # of connection points: 2
#     Edge 14, Type (0, 0), BuildingBlock: OJICUG_clean_linker_0, # of connection points: 2
#     Edge 15, Type (0, 0), BuildingBlock: OJICUG_clean_linker_0, # of connection points: 2
#     Edge 16, Type (0, 0), BuildingBlock: OJICUG_clean_linker_0, # of connection points: 2
#     Edge 17, Type (0, 0), BuildingBlock: OJICUG_clean_linker_0, # of connection points: 2
#     Edge 18, Type (0, 0), BuildingBlock: OJICUG_clean_linker_0, # of connection points: 2
#     Edge 19, Type (0, 0), BuildingBlock: OJICUG_clean_linker_0, # of connection points: 2
#     Edge 20, Type (0, 0), BuildingBlock: OJICUG_clean_linker_0, # of connection points: 2
#     Edge 21, Type (0, 0), BuildingBlock: OJICUG_clean_linker_0, # of connection points: 2
#     Edge 22, Type (0, 0), BuildingBlock: OJICUG_clean_linker_0, # of connection points: 2
#     Edge 23, Type (0, 0), BuildingBlock: OJICUG_clean_linker_0, # of connection points: 2
# Relax obj value: 0.070
# Max RMSD: 0.103
# Mean RMSD: 0.103
data_MOF--net-mok--node1-GALJAG_clean_sbu_0--edge1-OJICUG_clean_linker_0
_symmetry_space_group_name_H-M    P1
_symmetry_Int_Tables_number       1
_symmetry_cell_setting            triclinic
loop_
_symmetry_equiv_pos_as_xyz
'x, y, z'
_cell_length_a     40.263505
_cell_length_b     10.187421
_cell_length_c     20.886831
_cell_angle_alpha  89.999718
_cell_angle_beta   90.086512
_cell_angle_gamma 89.995091
loop_
_atom_site_label
_atom_site_type_symbol
_atom_site_fract_x
_atom_site_fract_y
_atom_site_fract_z
_atom_type_partial_charge
In0 In 0.60798 0.31223 0.01352 0.0
O1 O 0.59807 0.47755 0.94205 0.0
O2 O 0.60757 0.28485 0.90631 0.0
C3 C 0.6013 0.40523 0.13294 0.0
C4 C 0.55423 0.15799 0.01432 0.0
C5 C 0.6741 0.277 0.01421 0.0
O6 O 0.59848 0.4791 0.08438 0.0
O7 O 0.60736 0.28634 0.1207 0.0
O8 O 0.65406 0.18113 0.01392 0.0
O9 O 0.66064 0.38883 0.01399 0.0
C10 C 0.60116 0.40333 0.89371 0.0
O11 O 0.58339 0.11106 0.01426 0.0
O12 O 0.55251 0.2818 0.01377 0.0
In13 In 0.3828 0.68155 0.0191 0.0
O14 O 0.40736 0.88278 0.01852 0.0
O15 O 0.43826 0.71208 0.01916 0.0
C16 C 0.31668 0.71674 0.01802 0.0
C17 C 0.38972 0.58858 0.89972 0.0
C18 C 0.38947 0.59038 0.13893 0.0
O19 O 0.33671 0.81261 0.01844 0.0
O20 O 0.33013 0.60491 0.0183 0.0
O21 O 0.3926 0.51617 0.09059 0.0
O22 O 0.38309 0.70886 0.12631 0.0
C23 C 0.43653 0.83588 0.01862 0.0
O24 O 0.39246 0.51471 0.94829 0.0
O25 O 0.3836 0.70744 0.91193 0.0
In26 In 0.60815 0.68141 0.51357 0.0
O27 O 0.5985 0.51454 0.58437 0.0
O28 O 0.60732 0.70729 0.62074 0.0
C29 C 0.60149 0.59025 0.39374 0.0
C30 C 0.55443 0.8358 0.51404 0.0
C31 C 0.67428 0.7166 0.51468 0.0
O32 O 0.59835 0.51605 0.44207 0.0
O33 O 0.60789 0.70872 0.40636 0.0
O34 O 0.65424 0.81247 0.51425 0.0
O35 O 0.66082 0.60477 0.5144 0.0
C36 C 0.60123 0.58841 0.63294 0.0
O37 O 0.5836 0.88266 0.51415 0.0
O38 O 0.5527 0.712 0.51349 0.0
In39 In 0.383 0.31236 0.51915 0.0
O40 O 0.40758 0.11117 0.5184 0.0
O41 O 0.43846 0.28188 0.51889 0.0
C42 C 0.31688 0.27714 0.51848 0.0
C43 C 0.38982 0.4035 0.63896 0.0
C44 C 0.38968 0.40535 0.39973 0.0
O45 O 0.33692 0.18127 0.51878 0.0
O46 O 0.33033 0.38897 0.51868 0.0
O47 O 0.39251 0.47922 0.44828 0.0
O48 O 0.3836 0.28648 0.41197 0.0
C49 C 0.43674 0.15807 0.51834 0.0
O50 O 0.39289 0.47772 0.59061 0.0
O51 O 0.38343 0.28501 0.62636 0.0
In52 In 0.10796 0.81241 0.0135 0.0
O53 O 0.08339 0.61123 0.01426 0.0
O54 O 0.0525 0.78195 0.01379 0.0
C55 C 0.17409 0.77715 0.01416 0.0
C56 C 0.10115 0.90356 0.8937 0.0
C57 C 0.1013 0.90539 0.13293 0.0
O58 O 0.15405 0.68129 0.01388 0.0
O59 O 0.16063 0.88899 0.01396 0.0
O60 O 0.09845 0.97926 0.08438 0.0
O61 O 0.10738 0.78653 0.12069 0.0
C62 C 0.05422 0.65814 0.01433 0.0
O63 O 0.09808 0.97778 0.94205 0.0
O64 O 0.10753 0.78505 0.9063 0.0
In65 In 0.88282 0.18155 0.0192 0.0
O66 O 0.89249 0.01472 0.94839 0.0
O67 O 0.8836 0.20743 0.91202 0.0
C68 C 0.88949 0.09037 0.13902 0.0
C69 C 0.93654 0.33593 0.01869 0.0
C70 C 0.81669 0.21668 0.01812 0.0
O71 O 0.89262 0.01617 0.09069 0.0
O72 O 0.8831 0.20886 0.12641 0.0
O73 O 0.83672 0.31258 0.01854 0.0
O74 O 0.83015 0.10488 0.0184 0.0
C75 C 0.88973 0.08858 0.89981 0.0
O76 O 0.90737 0.38279 0.01861 0.0
O77 O 0.93827 0.21212 0.01924 0.0
In78 In 0.10817 0.18161 0.51356 0.0
O79 O 0.0985 0.01478 0.58437 0.0
O80 O 0.10737 0.2075 0.62073 0.0
C81 C 0.1015 0.09043 0.39373 0.0
C82 C 0.05444 0.33596 0.51405 0.0
C83 C 0.17429 0.21678 0.51463 0.0
O84 O 0.09838 0.01623 0.44207 0.0
O85 O 0.10787 0.20892 0.40634 0.0
O86 O 0.15426 0.31266 0.5142 0.0
O87 O 0.16084 0.10496 0.51436 0.0
C88 C 0.10125 0.08865 0.63294 0.0
O89 O 0.0836 0.38285 0.51414 0.0
O90 O 0.05271 0.21216 0.51351 0.0
In91 In 0.88298 0.81234 0.51925 0.0
O92 O 0.90757 0.61118 0.51849 0.0
O93 O 0.93844 0.78191 0.51897 0.0
C94 C 0.81686 0.77706 0.51859 0.0
C95 C 0.8898 0.90349 0.63905 0.0
C96 C 0.88965 0.90533 0.39982 0.0
O97 O 0.83691 0.68121 0.51888 0.0
O98 O 0.8303 0.8889 0.51878 0.0
O99 O 0.89249 0.9792 0.44837 0.0
O100 O 0.88357 0.78646 0.41207 0.0
C101 C 0.93673 0.6581 0.51842 0.0
O102 O 0.89286 0.97772 0.5907 0.0
O103 O 0.88343 0.78498 0.62645 0.0
C104 C 0.75947 0.12157 0.01653 0.0
C105 C 0.78024 0.23261 0.01715 0.0
H106 H 0.70958 0.04841 0.01508 0.0
C107 C 0.76584 0.358 0.01668 0.0
H108 H 0.76987 0.02351 0.01685 0.0
C109 C 0.73132 0.3721 0.01564 0.0
C110 C 0.71055 0.26107 0.01505 0.0
H111 H 0.78121 0.44526 0.01711 0.0
H112 H 0.72092 0.47016 0.01533 0.0
C113 C 0.72495 0.13567 0.0155 0.0
C114 C 0.23131 0.87221 0.01556 0.0
C115 C 0.21054 0.76119 0.01499 0.0
H116 H 0.28121 0.94534 0.01702 0.0
C117 C 0.22493 0.63578 0.01542 0.0
H118 H 0.22091 0.97028 0.01526 0.0
C119 C 0.25945 0.62166 0.01645 0.0
C120 C 0.28023 0.73268 0.01706 0.0
H121 H 0.20955 0.54854 0.01501 0.0
H122 H 0.26985 0.52359 0.01676 0.0
C123 C 0.26583 0.8581 0.01659 0.0
C124 C 0.76602 0.63567 0.51734 0.0
C125 C 0.78041 0.76108 0.51776 0.0
H126 H 0.72111 0.52346 0.516 0.0
C127 C 0.75963 0.8721 0.51716 0.0
H128 H 0.78141 0.54843 0.51777 0.0
C129 C 0.72511 0.85797 0.51612 0.0
C130 C 0.71073 0.73255 0.51567 0.0
H131 H 0.77002 0.97017 0.51745 0.0
H132 H 0.70973 0.9452 0.51568 0.0
C133 C 0.73151 0.62154 0.5163 0.0
C134 C 0.22513 0.35812 0.51604 0.0
C135 C 0.21074 0.23271 0.51559 0.0
H136 H 0.27005 0.47029 0.51735 0.0
C137 C 0.23152 0.12169 0.51622 0.0
H138 H 0.20976 0.44537 0.5156 0.0
C139 C 0.26604 0.13579 0.51724 0.0
C140 C 0.28043 0.2612 0.51766 0.0
H141 H 0.22112 0.02362 0.51592 0.0
H142 H 0.28142 0.04854 0.51767 0.0
C143 C 0.25965 0.37222 0.51706 0.0
C144 C 0.59816 0.36353 0.25057 0.0
C145 C 0.59897 0.45331 0.19942 0.0
H146 H 0.59796 0.33647 0.35231 0.0
C147 C 0.59891 0.58827 0.21267 0.0
H148 H 0.59803 0.25876 0.24174 0.0
C149 C 0.59915 0.63259 0.27598 0.0
C150 C 0.5991 0.54273 0.32714 0.0
H151 H 0.5995 0.65957 0.1742 0.0
H152 H 0.59978 0.73732 0.28484 0.0
C153 C 0.59806 0.40786 0.31386 0.0
C154 C 0.39287 0.40797 0.2188 0.0
C155 C 0.39187 0.54285 0.20552 0.0
H156 H 0.39288 0.25886 0.29092 0.0
C157 C 0.39186 0.6327 0.25668 0.0
H158 H 0.39294 0.33658 0.18035 0.0
C159 C 0.3921 0.58838 0.32 0.0
C160 C 0.39201 0.45342 0.33325 0.0
H161 H 0.39125 0.73744 0.24782 0.0
H162 H 0.39154 0.65968 0.35846 0.0
C163 C 0.39278 0.36364 0.28209 0.0
C164 C 0.39299 0.63028 0.78211 0.0
C165 C 0.39218 0.54051 0.83326 0.0
H166 H 0.39325 0.65731 0.68036 0.0
C167 C 0.39235 0.40555 0.82002 0.0
H168 H 0.39306 0.73506 0.79093 0.0
C169 C 0.39219 0.36121 0.75671 0.0
C170 C 0.39221 0.45105 0.70554 0.0
H171 H 0.39176 0.33425 0.85849 0.0
H172 H 0.39162 0.25646 0.74786 0.0
C173 C 0.39317 0.58594 0.71882 0.0
C174 C 0.59882 0.36102 0.77596 0.0
C175 C 0.59876 0.45086 0.82712 0.0
H176 H 0.59927 0.33407 0.67417 0.0
C177 C 0.59775 0.58575 0.81384 0.0
H178 H 0.59943 0.25628 0.7848 0.0
C179 C 0.59792 0.63009 0.75055 0.0
C180 C 0.59877 0.54033 0.6994 0.0
H181 H 0.59764 0.65712 0.8523 0.0
H182 H 0.59782 0.73487 0.74173 0.0
C183 C 0.59865 0.40536 0.71264 0.0
C184 C 0.09822 0.86369 0.25057 0.0
C185 C 0.09897 0.95347 0.19941 0.0
H186 H 0.09806 0.83663 0.35231 0.0
C187 C 0.09886 0.08842 0.21266 0.0
H188 H 0.09812 0.75891 0.24174 0.0
C189 C 0.0991 0.13275 0.27598 0.0
C190 C 0.09911 0.0429 0.32714 0.0
H191 H 0.09941 0.15973 0.1742 0.0
H192 H 0.09969 0.23749 0.28483 0.0
C193 C 0.09812 0.90801 0.31386 0.0
C194 C 0.89276 0.86362 0.28219 0.0
C195 C 0.89199 0.9534 0.33334 0.0
H196 H 0.89294 0.83657 0.18044 0.0
C197 C 0.89209 0.08836 0.32009 0.0
H198 H 0.89286 0.75885 0.29102 0.0
C199 C 0.89187 0.13269 0.25677 0.0
C200 C 0.89187 0.04283 0.20561 0.0
H201 H 0.89153 0.15966 0.35856 0.0
H202 H 0.89126 0.23743 0.24792 0.0
C203 C 0.89287 0.90795 0.21889 0.0
C204 C 0.8922 0.8612 0.7568 0.0
C205 C 0.8922 0.95104 0.70563 0.0
H206 H 0.8918 0.83425 0.85858 0.0
C207 C 0.89315 0.08593 0.71891 0.0
H208 H 0.89164 0.75646 0.74795 0.0
C209 C 0.89298 0.13028 0.78219 0.0
C210 C 0.89219 0.04051 0.83335 0.0
H211 H 0.89321 0.1573 0.68045 0.0
H212 H 0.89303 0.23506 0.79102 0.0
C213 C 0.89237 0.90555 0.82011 0.0
C214 C 0.09876 0.86127 0.77595 0.0
C215 C 0.09876 0.95111 0.82712 0.0
H216 H 0.09919 0.83432 0.67417 0.0
C217 C 0.0978 0.086 0.81384 0.0
H218 H 0.09933 0.75653 0.7848 0.0
C219 C 0.09799 0.13035 0.75056 0.0
C220 C 0.09879 0.04058 0.6994 0.0
H221 H 0.09773 0.15738 0.8523 0.0
H222 H 0.09793 0.23513 0.74173 0.0
C223 C 0.09861 0.90562 0.71264 0.0
C224 C 0.46397 0.05591 0.0165 0.0
C225 C 0.46656 0.91861 0.01771 0.0
H226 H 0.48978 0.23933 0.0144 0.0
C227 C 0.49823 0.86033 0.01775 0.0
H228 H 0.4399 0.10343 0.0164 0.0
C229 C 0.52679 0.93799 0.01657 0.0
C230 C 0.52419 0.07529 0.01533 0.0
H231 H 0.50098 0.75457 0.01866 0.0
H232 H 0.55086 0.89047 0.01666 0.0
C233 C 0.49253 0.13357 0.01532 0.0
C234 C 0.527 0.05587 0.51617 0.0
C235 C 0.5244 0.91857 0.51494 0.0
H236 H 0.5012 0.23933 0.51828 0.0
C237 C 0.49273 0.86033 0.51488 0.0
H238 H 0.55108 0.10335 0.51628 0.0
C239 C 0.46417 0.93803 0.51607 0.0
C240 C 0.46678 0.07533 0.51733 0.0
H241 H 0.48998 0.75458 0.51396 0.0
H242 H 0.4401 0.89055 0.51597 0.0
C243 C 0.49844 0.13357 0.51735 0.0
C244 C 0.02679 0.43811 0.01658 0.0
C245 C 0.02419 0.57541 0.01536 0.0
H246 H 0.00099 0.25467 0.01868 0.0
C247 C 0.99253 0.63367 0.01538 0.0
H248 H 0.05087 0.39061 0.01665 0.0
C249 C 0.96397 0.55599 0.01658 0.0
C250 C 0.96657 0.41868 0.01778 0.0
H251 H 0.98977 0.73943 0.01447 0.0
H252 H 0.93989 0.60348 0.0165 0.0
C253 C -0.00177 0.36043 0.01779 0.0
C254 C 0.027 0.556 0.51619 0.0
C255 C 0.0244 0.4187 0.51497 0.0
H256 H 0.00118 0.73943 0.51831 0.0
C257 C 0.99274 0.36043 0.51495 0.0
H258 H 0.05107 0.60351 0.51628 0.0
C259 C 0.96418 0.43809 0.51615 0.0
C260 C 0.96677 0.5754 0.51739 0.0
H261 H 0.98999 0.25467 0.51404 0.0
H262 H 0.94011 0.39058 0.51607 0.0
C263 C -0.00157 0.63367 0.51739 0.0
loop_
_geom_bond_atom_site_label_1
_geom_bond_atom_site_label_2
_geom_bond_distance
_geom_bond_site_symmetry_2
_ccdc_geom_bond_type
In0 O1 2.294 1_554 S
In0 O2 2.326 1_554 S
In0 O6 2.266 . S
In0 O7 2.326 . S
In0 O8 2.266 . S
In0 O9 2.326 . S
In0 O11 2.294 . S
In0 O12 2.326 . S
O1 In0 2.294 1_556 S
O1 C10 1.240 . S
O2 In0 2.326 1_556 S
O2 C10 1.252 . S
C3 O6 1.252 . S
C3 O7 1.260 . S
C4 O11 1.240 . S
C4 O12 1.252 . S
C5 O8 1.252 . S
C5 O9 1.260 . S
O6 In0 2.266 . S
O6 C3 1.252 . S
O7 In0 2.326 . S
O7 C3 1.260 . S
O8 In0 2.266 . S
O8 C5 1.252 . S
O9 In0 2.326 . S
O9 C5 1.260 . S
C10 O1 1.240 . S
C10 O2 1.252 . S
O11 In0 2.294 . S
O11 C4 1.240 . S
O12 In0 2.326 . S
O12 C4 1.252 . S
In13 O14 2.294 . S
In13 O15 2.326 . S
In13 O19 2.266 . S
In13 O20 2.326 . S
In13 O21 2.266 . S
In13 O22 2.326 . S
In13 O24 2.294 1_554 S
In13 O25 2.326 1_554 S
O14 In13 2.294 . S
O14 C23 1.240 . S
O15 In13 2.326 . S
O15 C23 1.252 . S
C16 O19 1.252 . S
C16 O20 1.260 . S
C17 O24 1.240 . S
C17 O25 1.252 . S
C18 O21 1.252 . S
C18 O22 1.260 . S
O19 In13 2.266 . S
O19 C16 1.252 . S
O20 In13 2.326 . S
O20 C16 1.260 . S
O21 In13 2.266 . S
O21 C18 1.252 . S
O22 In13 2.326 . S
O22 C18 1.260 . S
C23 O14 1.240 . S
C23 O15 1.252 . S
O24 In13 2.294 1_556 S
O24 C17 1.240 . S
O25 In13 2.326 1_556 S
O25 C17 1.252 . S
In26 O27 2.294 . S
In26 O28 2.326 . S
In26 O32 2.266 . S
In26 O33 2.326 . S
In26 O34 2.266 . S
In26 O35 2.326 . S
In26 O37 2.294 . S
In26 O38 2.326 . S
O27 In26 2.294 . S
O27 C36 1.240 . S
O28 In26 2.326 . S
O28 C36 1.252 . S
C29 O32 1.252 . S
C29 O33 1.260 . S
C30 O37 1.240 . S
C30 O38 1.252 . S
C31 O34 1.252 . S
C31 O35 1.260 . S
O32 In26 2.266 . S
O32 C29 1.252 . S
O33 In26 2.326 . S
O33 C29 1.260 . S
O34 In26 2.266 . S
O34 C31 1.252 . S
O35 In26 2.326 . S
O35 C31 1.260 . S
C36 O27 1.240 . S
C36 O28 1.252 . S
O37 In26 2.294 . S
O37 C30 1.240 . S
O38 In26 2.326 . S
O38 C30 1.252 . S
In39 O40 2.294 . S
In39 O41 2.326 . S
In39 O45 2.266 . S
In39 O46 2.326 . S
In39 O47 2.266 . S
In39 O48 2.326 . S
In39 O50 2.294 . S
In39 O51 2.326 . S
O40 In39 2.294 . S
O40 C49 1.240 . S
O41 In39 2.326 . S
O41 C49 1.252 . S
C42 O45 1.252 . S
C42 O46 1.260 . S
C43 O50 1.240 . S
C43 O51 1.252 . S
C44 O47 1.252 . S
C44 O48 1.260 . S
O45 In39 2.266 . S
O45 C42 1.252 . S
O46 In39 2.326 . S
O46 C42 1.260 . S
O47 In39 2.266 . S
O47 C44 1.252 . S
O48 In39 2.326 . S
O48 C44 1.260 . S
C49 O40 1.240 . S
C49 O41 1.252 . S
O50 In39 2.294 . S
O50 C43 1.240 . S
O51 In39 2.326 . S
O51 C43 1.252 . S
In52 O53 2.294 . S
In52 O54 2.326 . S
In52 O58 2.266 . S
In52 O59 2.326 . S
In52 O60 2.266 . S
In52 O61 2.326 . S
In52 O63 2.294 1_554 S
In52 O64 2.326 1_554 S
O53 In52 2.294 . S
O53 C62 1.240 . S
O54 In52 2.326 . S
O54 C62 1.252 . S
C55 O58 1.252 . S
C55 O59 1.260 . S
C56 O63 1.240 . S
C56 O64 1.252 . S
C57 O60 1.252 . S
C57 O61 1.260 . S
O58 In52 2.266 . S
O58 C55 1.252 . S
O59 In52 2.326 . S
O59 C55 1.260 . S
O60 In52 2.266 . S
O60 C57 1.252 . S
O61 In52 2.326 . S
O61 C57 1.260 . S
C62 O53 1.240 . S
C62 O54 1.252 . S
O63 In52 2.294 1_556 S
O63 C56 1.240 . S
O64 In52 2.326 1_556 S
O64 C56 1.252 . S
In65 O66 2.294 1_554 S
In65 O67 2.326 1_554 S
In65 O71 2.266 . S
In65 O72 2.326 . S
In65 O73 2.266 . S
In65 O74 2.326 . S
In65 O76 2.294 . S
In65 O77 2.326 . S
O66 In65 2.294 1_556 S
O66 C75 1.240 . S
O67 In65 2.326 1_556 S
O67 C75 1.252 . S
C68 O71 1.252 . S
C68 O72 1.260 . S
C69 O76 1.240 . S
C69 O77 1.252 . S
C70 O73 1.252 . S
C70 O74 1.260 . S
O71 In65 2.266 . S
O71 C68 1.252 . S
O72 In65 2.326 . S
O72 C68 1.260 . S
O73 In65 2.266 . S
O73 C70 1.252 . S
O74 In65 2.326 . S
O74 C70 1.260 . S
C75 O66 1.240 . S
C75 O67 1.252 . S
O76 In65 2.294 . S
O76 C69 1.240 . S
O77 In65 2.326 . S
O77 C69 1.252 . S
In78 O79 2.294 . S
In78 O80 2.326 . S
In78 O84 2.266 . S
In78 O85 2.326 . S
In78 O86 2.266 . S
In78 O87 2.326 . S
In78 O89 2.294 . S
In78 O90 2.326 . S
O79 In78 2.294 . S
O79 C88 1.240 . S
O80 In78 2.326 . S
O80 C88 1.252 . S
C81 O84 1.252 . S
C81 O85 1.260 . S
C82 O89 1.240 . S
C82 O90 1.252 . S
C83 O86 1.252 . S
C83 O87 1.260 . S
O84 In78 2.266 . S
O84 C81 1.252 . S
O85 In78 2.326 . S
O85 C81 1.260 . S
O86 In78 2.266 . S
O86 C83 1.252 . S
O87 In78 2.326 . S
O87 C83 1.260 . S
C88 O79 1.240 . S
C88 O80 1.252 . S
O89 In78 2.294 . S
O89 C82 1.240 . S
O90 In78 2.326 . S
O90 C82 1.252 . S
In91 O92 2.294 . S
In91 O93 2.326 . S
In91 O97 2.266 . S
In91 O98 2.326 . S
In91 O99 2.266 . S
In91 O100 2.326 . S
In91 O102 2.294 . S
In91 O103 2.326 . S
O92 In91 2.294 . S
O92 C101 1.240 . S
O93 In91 2.326 . S
O93 C101 1.252 . S
C94 O97 1.252 . S
C94 O98 1.260 . S
C95 O102 1.240 . S
C95 O103 1.252 . S
C96 O99 1.252 . S
C96 O100 1.260 . S
O97 In91 2.266 . S
O97 C94 1.252 . S
O98 In91 2.326 . S
O98 C94 1.260 . S
O99 In91 2.266 . S
O99 C96 1.252 . S
O100 In91 2.326 . S
O100 C96 1.260 . S
C101 O92 1.240 . S
C101 O93 1.252 . S
O102 In91 2.294 . S
O102 C95 1.240 . S
O103 In91 2.326 . S
O103 C95 1.252 . S
C104 C105 1.387 1_556 S
C104 H108 0.950 . S
C104 C113 1.390 . S
C105 C104 1.387 1_554 S
C105 C107 1.387 . S
H106 C113 0.950 . S
C107 C105 1.387 . S
C107 C109 1.390 . S
C107 H111 0.950 . S
H108 C104 0.950 . S
C109 C107 1.390 . S
C109 C110 1.387 . S
C109 H112 0.950 . S
C110 C109 1.387 . S
C110 C113 1.387 1_554 S
H111 C107 0.950 . S
H112 C109 0.950 . S
C113 C104 1.390 . S
C113 H106 0.950 . S
C113 C110 1.387 1_556 S
C114 C115 1.387 . S
C114 H118 0.950 . S
C114 C123 1.390 . S
C115 C114 1.387 . S
C115 C117 1.387 1_554 S
H116 C123 0.950 . S
C117 C115 1.387 1_556 S
C117 C119 1.390 . S
C117 H121 0.950 . S
H118 C114 0.950 . S
C119 C117 1.390 . S
C119 C120 1.387 1_556 S
C119 H122 0.950 . S
C120 C119 1.387 1_554 S
C120 C123 1.387 . S
H121 C117 0.950 . S
H122 C119 0.950 . S
C123 C114 1.390 . S
C123 H116 0.950 . S
C123 C120 1.387 . S
C124 C125 1.387 . S
C124 H128 0.950 . S
C124 C133 1.390 . S
C125 C124 1.387 . S
C125 C127 1.387 . S
H126 C133 0.950 . S
C127 C125 1.387 . S
C127 C129 1.390 . S
C127 H131 0.950 . S
H128 C124 0.950 . S
C129 C127 1.390 . S
C129 C130 1.387 . S
C129 H132 0.950 . S
C130 C129 1.387 . S
C130 C133 1.387 . S
H131 C127 0.950 . S
H132 C129 0.950 . S
C133 C124 1.390 . S
C133 H126 0.950 . S
C133 C130 1.387 . S
C134 C135 1.387 . S
C134 H138 0.950 . S
C134 C143 1.390 . S
C135 C134 1.387 . S
C135 C137 1.387 . S
H136 C143 0.950 . S
C137 C135 1.387 . S
C137 C139 1.390 . S
C137 H141 0.950 . S
H138 C134 0.950 . S
C139 C137 1.390 . S
C139 C140 1.387 . S
C139 H142 0.950 . S
C140 C139 1.387 . S
C140 C143 1.387 . S
H141 C137 0.950 . S
H142 C139 0.950 . S
C143 C134 1.390 . S
C143 H136 0.950 . S
C143 C140 1.387 . S
C144 C145 1.387 . S
C144 H148 0.950 . S
C144 C153 1.390 . S
C145 C144 1.387 . S
C145 C147 1.387 . S
H146 C153 0.950 . S
C147 C145 1.387 . S
C147 C149 1.390 . S
C147 H151 0.950 . S
H148 C144 0.950 . S
C149 C147 1.390 . S
C149 C150 1.387 . S
C149 H152 0.950 . S
C150 C149 1.387 . S
C150 C153 1.387 . S
H151 C147 0.950 . S
H152 C149 0.950 . S
C153 C144 1.390 . S
C153 H146 0.950 . S
C153 C150 1.387 . S
C154 C155 1.387 . S
C154 H158 0.950 . S
C154 C163 1.390 . S
C155 C154 1.387 . S
C155 C157 1.387 . S
H156 C163 0.950 . S
C157 C155 1.387 . S
C157 C159 1.390 . S
C157 H161 0.950 . S
H158 C154 0.950 . S
C159 C157 1.390 . S
C159 C160 1.387 . S
C159 H162 0.950 . S
C160 C159 1.387 . S
C160 C163 1.387 . S
H161 C157 0.950 . S
H162 C159 0.950 . S
C163 C154 1.390 . S
C163 H156 0.950 . S
C163 C160 1.387 . S
C164 C165 1.387 . S
C164 H168 0.950 . S
C164 C173 1.390 . S
C165 C164 1.387 . S
C165 C167 1.387 . S
H166 C173 0.950 . S
C167 C165 1.387 . S
C167 C169 1.390 . S
C167 H171 0.950 . S
H168 C164 0.950 . S
C169 C167 1.390 . S
C169 C170 1.387 . S
C169 H172 0.950 . S
C170 C169 1.387 . S
C170 C173 1.387 . S
H171 C167 0.950 . S
H172 C169 0.950 . S
C173 C164 1.390 . S
C173 H166 0.950 . S
C173 C170 1.387 . S
C174 C175 1.387 . S
C174 H178 0.950 . S
C174 C183 1.390 . S
C175 C174 1.387 . S
C175 C177 1.387 . S
H176 C183 0.950 . S
C177 C175 1.387 . S
C177 C179 1.390 . S
C177 H181 0.950 . S
H178 C174 0.950 . S
C179 C177 1.390 . S
C179 C180 1.387 . S
C179 H182 0.950 . S
C180 C179 1.387 . S
C180 C183 1.387 . S
H181 C177 0.950 . S
H182 C179 0.950 . S
C183 C174 1.390 . S
C183 H176 0.950 . S
C183 C180 1.387 . S
C184 C185 1.387 . S
C184 H188 0.950 . S
C184 C193 1.390 1_565 S
C185 C184 1.387 . S
C185 C187 1.387 . S
H186 C193 0.950 . S
C187 C185 1.387 . S
C187 C189 1.390 1_565 S
C187 H191 0.950 . S
H188 C184 0.950 . S
C189 C187 1.390 1_545 S
C189 C190 1.387 . S
C189 H192 0.950 . S
C190 C189 1.387 . S
C190 C193 1.387 . S
H191 C187 0.950 . S
H192 C189 0.950 . S
C193 C184 1.390 1_545 S
C193 H186 0.950 . S
C193 C190 1.387 . S
C194 C195 1.387 . S
C194 H198 0.950 . S
C194 C203 1.390 1_565 S
C195 C194 1.387 . S
C195 C197 1.387 . S
H196 C203 0.950 . S
C197 C195 1.387 . S
C197 C199 1.390 1_565 S
C197 H201 0.950 . S
H198 C194 0.950 . S
C199 C197 1.390 1_545 S
C199 C200 1.387 . S
C199 H202 0.950 . S
C200 C199 1.387 . S
C200 C203 1.387 . S
H201 C197 0.950 . S
H202 C199 0.950 . S
C203 C194 1.390 1_545 S
C203 H196 0.950 . S
C203 C200 1.387 . S
C204 C205 1.387 . S
C204 H208 0.950 . S
C204 C213 1.390 1_565 S
C205 C204 1.387 . S
C205 C207 1.387 . S
H206 C213 0.950 . S
C207 C205 1.387 . S
C207 C209 1.390 1_565 S
C207 H211 0.950 . S
H208 C204 0.950 . S
C209 C207 1.390 1_545 S
C209 C210 1.387 . S
C209 H212 0.950 . S
C210 C209 1.387 . S
C210 C213 1.387 . S
H211 C207 0.950 . S
H212 C209 0.950 . S
C213 C204 1.390 1_545 S
C213 H206 0.950 . S
C213 C210 1.387 . S
C214 C215 1.387 . S
C214 H218 0.950 . S
C214 C223 1.390 1_565 S
C215 C214 1.387 . S
C215 C217 1.387 . S
H216 C223 0.950 . S
C217 C215 1.387 . S
C217 C219 1.390 1_565 S
C217 H221 0.950 . S
H218 C214 0.950 . S
C219 C217 1.390 1_545 S
C219 C220 1.387 . S
C219 H222 0.950 . S
C220 C219 1.387 . S
C220 C223 1.387 . S
H221 C217 0.950 . S
H222 C219 0.950 . S
C223 C214 1.390 1_545 S
C223 H216 0.950 . S
C223 C220 1.387 . S
C224 C225 1.387 1_556 S
C224 H228 0.950 . S
C224 C233 1.390 1_565 S
C225 C224 1.387 1_554 S
C225 C227 1.387 . S
H226 C233 0.950 . S
C227 C225 1.387 . S
C227 C229 1.390 1_565 S
C227 H231 0.950 . S
H228 C224 0.950 . S
C229 C227 1.390 1_545 S
C229 C230 1.387 . S
C229 H232 0.950 . S
C230 C229 1.387 . S
C230 C233 1.387 1_554 S
H231 C227 0.950 . S
H232 C229 0.950 . S
C233 C224 1.390 1_545 S
C233 H226 0.950 . S
C233 C230 1.387 1_556 S
C234 C235 1.387 . S
C234 H238 0.950 . S
C234 C243 1.390 1_565 S
C235 C234 1.387 . S
C235 C237 1.387 . S
H236 C243 0.950 . S
C237 C235 1.387 . S
C237 C239 1.390 1_565 S
C237 H241 0.950 . S
H238 C234 0.950 . S
C239 C237 1.390 1_545 S
C239 C240 1.387 . S
C239 H242 0.950 . S
C240 C239 1.387 . S
C240 C243 1.387 . S
H241 C237 0.950 . S
H242 C239 0.950 . S
C243 C234 1.390 1_545 S
C243 H236 0.950 . S
C243 C240 1.387 . S
C244 C245 1.387 . S
C244 H248 0.950 . S
C244 C253 1.390 1_455 S
C245 C244 1.387 . S
C245 C247 1.387 1_554 S
H246 C253 0.950 . S
C247 C245 1.387 1_556 S
C247 C249 1.390 1_455 S
C247 H251 0.950 . S
H248 C244 0.950 . S
C249 C247 1.390 1_655 S
C249 C250 1.387 1_556 S
C249 H252 0.950 . S
C250 C249 1.387 1_554 S
C250 C253 1.387 . S
H251 C247 0.950 . S
H252 C249 0.950 . S
C253 C244 1.390 1_655 S
C253 H246 0.950 . S
C253 C250 1.387 . S
C254 C255 1.387 . S
C254 H258 0.950 . S
C254 C263 1.390 1_455 S
C255 C254 1.387 . S
C255 C257 1.387 . S
H256 C263 0.950 . S
C257 C255 1.387 . S
C257 C259 1.390 1_455 S
C257 H261 0.950 . S
H258 C254 0.950 . S
C259 C257 1.390 1_655 S
C259 C260 1.387 . S
C259 H262 0.950 . S
C260 C259 1.387 . S
C260 C263 1.387 . S
H261 C257 0.950 . S
H262 C259 0.950 . S
C263 C254 1.390 1_655 S
C263 H256 0.950 . S
C263 C260 1.387 . S
C105 C70 1.516 . S
C110 C5 1.516 . S
C115 C55 1.515 . S
C120 C16 1.515 . S
C125 C94 1.516 . S
C130 C31 1.516 . S
C135 C83 1.515 . S
C140 C42 1.515 . S
C145 C3 1.445 . S
C150 C29 1.445 . S
C155 C18 1.445 . S
C160 C44 1.445 . S
C165 C17 1.483 . S
C170 C43 1.483 . S
C175 C10 1.484 . S
C180 C36 1.484 . S
C185 C57 1.445 . S
C190 C81 1.445 . S
C195 C96 1.445 . S
C200 C68 1.445 . S
C205 C95 1.484 . S
C210 C75 1.484 . S
C215 C56 1.484 . S
C220 C88 1.484 . S
C225 C23 1.515 . S
C230 C4 1.515 . S
C235 C30 1.515 . S
C240 C49 1.515 . S
C245 C62 1.515 . S
C250 C69 1.515 . S
C255 C82 1.515 . S
C260 C101 1.515 . S
