# Generated by pormake.
# Topology sml, (6)-cn, num edge types: 1
# Building blocks:
#     Node 0, Type 0, BuildingBlock: BETDAH_clean_sbu_0, # of connection points: 6
#     Node 1, Type 0, BuildingBlock: BETDAH_clean_sbu_0, # of connection points: 6
#     Node 2, Type 0, BuildingBlock: BETDAH_clean_sbu_0, # of connection points: 6
#     Node 3, Type 0, BuildingBlock: BETDAH_clean_sbu_0, # of connection points: 6
#     Node 4, Type 0, BuildingBlock: BETDAH_clean_sbu_0, # of connection points: 6
#     Node 5, Type 0, BuildingBlock: BETDAH_clean_sbu_0, # of connection points: 6
#     Edge 6, Type (0, 0), BuildingBlock: AJUNOK_clean_linker_0, # of connection points: 2
#     Edge 7, Type (0, 0), BuildingBlock: AJUNOK_clean_linker_0, # of connection points: 2
#     Edge 8, Type (0, 0), BuildingBlock: AJUNOK_clean_linker_0, # of connection points: 2
#     Edge 9, Type (0, 0), BuildingBlock: AJUNOK_clean_linker_0, # of connection points: 2
#     Edge 10, Type (0, 0), BuildingBlock: AJUNOK_clean_linker_0, # of connection points: 2
#     Edge 11, Type (0, 0), BuildingBlock: AJUNOK_clean_linker_0, # of connection points: 2
#     Edge 12, Type (0, 0), BuildingBlock: AJUNOK_clean_linker_0, # of connection points: 2
#     Edge 13, Type (0, 0), BuildingBlock: AJUNOK_clean_linker_0, # of connection points: 2
#     Edge 14, Type (0, 0), BuildingBlock: AJUNOK_clean_linker_0, # of connection points: 2
#     Edge 15, Type (0, 0), BuildingBlock: AJUNOK_clean_linker_0, # of connection points: 2
#     Edge 16, Type (0, 0), BuildingBlock: AJUNOK_clean_linker_0, # of connection points: 2
#     Edge 17, Type (0, 0), BuildingBlock: AJUNOK_clean_linker_0, # of connection points: 2
#     Edge 18, Type (0, 0), BuildingBlock: AJUNOK_clean_linker_0, # of connection points: 2
#     Edge 19, Type (0, 0), BuildingBlock: AJUNOK_clean_linker_0, # of connection points: 2
#     Edge 20, Type (0, 0), BuildingBlock: AJUNOK_clean_linker_0, # of connection points: 2
#     Edge 21, Type (0, 0), BuildingBlock: AJUNOK_clean_linker_0, # of connection points: 2
#     Edge 22, Type (0, 0), BuildingBlock: AJUNOK_clean_linker_0, # of connection points: 2
#     Edge 23, Type (0, 0), BuildingBlock: AJUNOK_clean_linker_0, # of connection points: 2
# Relax obj value: 0.248
# Max RMSD: 0.266
# Mean RMSD: 0.266
data_MOF--net-sml--node1-BETDAH_clean_sbu_0--edge1-AJUNOK_clean_linker_0
_symmetry_space_group_name_H-M    P1
_symmetry_Int_Tables_number       1
_symmetry_cell_setting            triclinic
loop_
_symmetry_equiv_pos_as_xyz
'x, y, z'
_cell_length_a     21.910881
_cell_length_b     21.654819
_cell_length_c     20.350335
_cell_angle_alpha  90.098815
_cell_angle_beta   90.363364
_cell_angle_gamma 120.50306
loop_
_atom_site_label
_atom_site_type_symbol
_atom_site_fract_x
_atom_site_fract_y
_atom_site_fract_z
_atom_type_partial_charge
Ho0 Ho 0.15009 0.4378 0.15833 0.0
Ho1 Ho 0.22374 0.39684 0.26737 0.0
C2 C 0.1951 0.31597 0.13324 0.0
C3 C 0.12102 0.4732 0.04624 0.0
C4 C 0.13489 0.4636 0.97667 0.0
C5 C 0.19982 0.51158 0.94701 0.0
C6 C 0.21385 0.50014 0.88256 0.0
C7 C 0.16316 0.44065 0.84612 0.0
C8 C 0.09729 0.39414 0.87483 0.0
C9 C 0.0833 0.40551 0.93932 0.0
C10 C 0.06175 0.35289 0.25071 0.0
C11 C 0.17714 0.51579 0.29559 0.0
C12 C 0.26627 0.36876 0.37609 0.0
C13 C 0.25449 0.37554 0.44682 0.0
C14 C 0.19241 0.32375 0.47805 0.0
C15 C 0.17944 0.33291 0.54343 0.0
C16 C 0.22903 0.39313 0.57979 0.0
C17 C 0.29215 0.44388 0.54923 0.0
C18 C 0.3048 0.43512 0.48353 0.0
C19 C 0.30665 0.48981 0.17403 0.0
O20 O 0.18147 0.36469 0.10968 0.0
O21 O 0.20357 0.31 0.19667 0.0
O22 O 0.0766 0.41495 0.07785 0.0
O23 O 0.17585 0.51706 0.08251 0.0
O24 O 0.05254 0.39793 0.21628 0.0
O25 O 0.11402 0.34875 0.22964 0.0
O26 O 0.19014 0.46659 0.31926 0.0
O27 O 0.16779 0.52198 0.2321 0.0
O28 O 0.30308 0.42881 0.344 0.0
O29 O 0.21207 0.32039 0.34181 0.0
O30 O 0.31807 0.44117 0.19827 0.0
O31 O 0.2549 0.48726 0.20202 0.0
H32 H 0.24022 0.5576 0.97378 0.0
H33 H 0.26502 0.53706 0.86168 0.0
H34 H 0.05646 0.34895 0.84737 0.0
H35 H 0.03218 0.36832 0.96012 0.0
H36 H 0.15296 0.27664 0.45173 0.0
H37 H 0.12963 0.29354 0.56494 0.0
H38 H 0.3317 0.49053 0.5761 0.0
H39 H 0.35366 0.47553 0.46123 0.0
Ho40 Ho 0.82728 0.27543 0.5938 0.0
Ho41 Ho 0.74421 0.15577 0.48727 0.0
C42 C 0.78871 0.10827 0.6163 0.0
C43 C 0.86208 0.34264 0.70523 0.0
C44 C 0.84895 0.3204 0.77495 0.0
C45 C 0.85739 0.26411 0.79837 0.0
C46 C 0.83913 0.23975 0.86295 0.0
C47 C 0.81333 0.27209 0.90556 0.0
C48 C 0.80728 0.33001 0.8831 0.0
C49 C 0.82441 0.35361 0.81812 0.0
C50 C 0.90459 0.2779 0.49029 0.0
C51 C 0.77227 0.31983 0.46857 0.0
C52 C 0.71246 0.09137 0.37413 0.0
C53 C 0.72033 0.11322 0.30391 0.0
C54 C 0.77572 0.11606 0.26689 0.0
C55 C 0.78689 0.14012 0.20195 0.0
C56 C 0.74232 0.16091 0.17186 0.0
C57 C 0.68526 0.15576 0.20777 0.0
C58 C 0.67442 0.13228 0.27323 0.0
C59 C 0.66953 0.15488 0.59133 0.0
O60 O 0.8055 0.1717 0.64136 0.0
O61 O 0.77067 0.09158 0.55398 0.0
O62 O 0.90399 0.32719 0.67231 0.0
O63 O 0.80611 0.33059 0.67114 0.0
O64 O 0.91885 0.33457 0.52433 0.0
O65 O 0.85524 0.22277 0.51713 0.0
O66 O 0.74644 0.25339 0.44693 0.0
O67 O 0.80409 0.34237 0.52629 0.0
O68 O 0.66677 0.09845 0.40988 0.0
O69 O 0.77151 0.11036 0.40614 0.0
O70 O 0.65568 0.09653 0.55991 0.0
O71 O 0.71681 0.20941 0.56226 0.0
H72 H 0.87749 0.23852 0.76658 0.0
H73 H 0.8449 0.19547 0.87963 0.0
H74 H 0.7888 0.35661 0.91555 0.0
H75 H 0.81783 0.39739 0.80138 0.0
H76 H 0.81155 0.10102 0.28862 0.0
H77 H 0.83095 0.1431 0.17529 0.0
H78 H 0.65027 0.17179 0.18583 0.0
H79 H 0.63088 0.13026 0.29999 0.0
Ho80 Ho 0.54018 0.71154 0.82303 0.0
Ho81 Ho 0.57867 0.83271 0.9286 0.0
C82 C 0.66924 0.87807 0.80008 0.0
C83 C 0.50577 0.64485 0.71118 0.0
C84 C 0.50969 0.66887 0.64255 0.0
C85 C 0.51999 0.73709 0.62924 0.0
C86 C 0.52361 0.76012 0.56441 0.0
C87 C 0.51726 0.71551 0.51125 0.0
C88 C 0.50656 0.6469 0.52481 0.0
C89 C 0.50275 0.62381 0.58987 0.0
C90 C 0.61771 0.71253 0.92659 0.0
C91 C 0.44627 0.66704 0.95044 0.0
C92 C 0.61063 0.89776 0.0412 0.0
C93 C 0.59378 0.87494 0.11082 0.0
C94 C 0.64737 0.87975 0.15258 0.0
C95 C 0.63236 0.85496 0.21725 0.0
C96 C 0.5633 0.82478 0.242 0.0
C97 C 0.50998 0.82192 0.20094 0.0
C98 C 0.52502 0.84668 0.13601 0.0
C99 C 0.50107 0.83017 0.82515 0.0
O100 O 0.62037 0.81557 0.77492 0.0
O101 O 0.66981 0.89482 0.86259 0.0
O102 O 0.56646 0.66544 0.74093 0.0
O103 O 0.46101 0.65161 0.74861 0.0
O104 O 0.57581 0.65479 0.89316 0.0
O105 O 0.62256 0.76653 0.89841 0.0
O106 O 0.48808 0.73345 0.97182 0.0
O107 O 0.45239 0.6444 0.89188 0.0
O108 O 0.55945 0.89231 1.00331 0.0
O109 O 0.65054 0.87767 1.01132 0.0
O110 O 0.54622 0.88931 0.85533 0.0
O111 O 0.49561 0.77672 0.85489 0.0
H112 H 0.52565 0.77276 0.66911 0.0
H113 H 0.53165 0.81311 0.55589 0.0
H114 H 0.50261 0.61158 0.48522 0.0
H115 H 0.49489 0.57099 0.59902 0.0
H116 H 0.70092 0.9016 0.13479 0.0
H117 H 0.67461 0.85789 0.2475 0.0
H118 H 0.45667 0.80072 0.21906 0.0
H119 H 0.48265 0.84305 0.10551 0.0
Ho120 Ho 0.70399 0.56082 0.25111 0.0
Ho121 Ho 0.81455 0.58056 0.14289 0.0
C122 C 0.86896 0.6763 0.27098 0.0
C123 C 0.62825 0.52061 0.35622 0.0
C124 C 0.64823 0.52551 0.42685 0.0
C125 C 0.68965 0.49704 0.44952 0.0
C126 C 0.71103 0.50443 0.51536 0.0
C127 C 0.69169 0.54059 0.56052 0.0
C128 C 0.65011 0.56904 0.538 0.0
C129 C 0.62852 0.56141 0.4719 0.0
C130 C 0.73487 0.66522 0.16064 0.0
C131 C 0.64409 0.46598 0.12028 0.0
C132 C 0.87516 0.59792 1.0306 0.0
C133 C 0.84883 0.58725 0.96172 0.0
C134 C 0.88451 0.64205 0.91562 0.0
C135 C 0.85842 0.63449 0.85123 0.0
C136 C 0.79565 0.57212 0.83163 0.0
C137 C 0.76045 0.51683 0.87763 0.0
C138 C 0.78663 0.52439 0.94194 0.0
C139 C 0.80607 0.50219 0.2491 0.0
O140 O 0.81041 0.62626 0.29912 0.0
O141 O 0.87807 0.6775 0.20665 0.0
O142 O 0.64654 0.58115 0.32668 0.0
O143 O 0.63894 0.47728 0.31957 0.0
O144 O 0.71675 0.66718 0.22099 0.0
O145 O 0.73058 0.60588 0.15204 0.0
O146 O 0.71057 0.49544 0.10023 0.0
O147 O 0.62597 0.48455 0.17588 0.0
O148 O 0.85366 0.54029 0.06648 0.0
O149 O 0.87489 0.65026 0.06286 0.0
O150 O 0.86531 0.542 0.2184 0.0
O151 O 0.75679 0.50384 0.21956 0.0
H152 H 0.70627 0.46954 0.41629 0.0
H153 H 0.74273 0.48162 0.53099 0.0
H154 H 0.63553 0.59856 0.57109 0.0
H155 H 0.59734 0.58455 0.45568 0.0
H156 H 0.9322 0.69124 0.92968 0.0
H157 H 0.88675 0.67805 0.817 0.0
H158 H 0.71286 0.46744 0.8638 0.0
H159 H 0.75783 0.48119 0.97623 0.0
Ho160 Ho 0.27022 0.84807 0.47631 0.0
Ho161 Ho 0.15483 0.78412 0.58552 0.0
C162 C 0.10681 0.81209 0.44937 0.0
C163 C 0.3341 0.86878 0.36542 0.0
C164 C 0.30844 0.85233 0.29692 0.0
C165 C 0.24104 0.79366 0.28206 0.0
C166 C 0.21495 0.78131 0.21757 0.0
C167 C 0.25539 0.82809 0.16703 0.0
C168 C 0.3233 0.88612 0.18183 0.0
C169 C 0.34963 0.89803 0.24628 0.0
C170 C 0.27966 0.9432 0.56713 0.0
C171 C 0.31543 0.81713 0.61525 0.0
C172 C 0.0866 0.75305 0.69497 0.0
C173 C 0.10926 0.76356 0.76432 0.0
C174 C 0.17774 0.81788 0.7824 0.0
C175 C 0.1993 0.82784 0.84816 0.0
C176 C 0.1531 0.78281 0.89685 0.0
C177 C 0.08528 0.72707 0.87855 0.0
C178 C 0.06332 0.71783 0.81269 0.0
C179 C 0.15307 0.69211 0.49537 0.0
O180 O 0.16627 0.81897 0.42568 0.0
O181 O 0.09501 0.80949 0.51306 0.0
O182 O 0.32512 0.91753 0.39452 0.0
O183 O 0.31797 0.81364 0.40319 0.0
O184 O 0.33301 0.94948 0.53396 0.0
O185 O 0.22305 0.891 0.54424 0.0
O186 O 0.25539 0.80929 0.63763 0.0
O187 O 0.33251 0.82706 0.55217 0.0
O188 O 0.09734 0.70748 0.66218 0.0
O189 O 0.10419 0.81139 0.66167 0.0
O190 O 0.0957 0.68592 0.51998 0.0
O191 O 0.20661 0.74353 0.52181 0.0
H192 H 0.20808 0.75818 0.3205 0.0
H193 H 0.16245 0.73628 0.20746 0.0
H194 H 0.35595 0.92228 0.1435 0.0
H195 H 0.40173 0.94345 0.25678 0.0
H196 H 0.21463 0.85242 0.74562 0.0
H197 H 0.25235 0.8702 0.86098 0.0
H198 H 0.04912 0.69135 0.91532 0.0
H199 H 0.01065 0.67493 0.79949 0.0
Ho200 Ho 0.41161 0.12951 0.93268 0.0
Ho201 Ho 0.3643 0.19693 0.82035 0.0
C202 C 0.28977 0.17322 0.95536 0.0
C203 C 0.45232 0.10332 0.04341 0.0
C204 C 0.4463 0.12158 0.11162 0.0
C205 C 0.4217 0.16875 0.12488 0.0
C206 C 0.41066 0.1822 0.18942 0.0
C207 C 0.42587 0.15023 0.24215 0.0
C208 C 0.45263 0.10461 0.22876 0.0
C209 C 0.46247 0.09013 0.16386 0.0
C210 C 0.32667 0.03742 0.83871 0.0
C211 C 0.49265 0.16417 0.79632 0.0
C212 C 0.32327 0.22355 0.71014 0.0
C213 C 0.33317 0.21005 0.64144 0.0
C214 C 0.3608 0.16579 0.62659 0.0
C215 C 0.37392 0.15579 0.56164 0.0
C216 C 0.35931 0.18967 0.5102 0.0
C217 C 0.32945 0.23227 0.5251 0.0
C218 C 0.31689 0.24273 0.59037 0.0
C219 C 0.45406 0.28788 0.91274 0.0
O220 O 0.34019 0.16373 0.98101 0.0
O221 O 0.27959 0.17315 0.89152 0.0
O222 O 0.39244 0.05831 1.01436 0.0
O223 O 0.49345 0.15754 1.00598 0.0
O224 O 0.37213 0.02915 0.87307 0.0
O225 O 0.32349 0.08987 0.86181 0.0
O226 O 0.44255 0.17447 0.77167 0.0
O227 O 0.49684 0.15201 0.8596 0.0
O228 O 0.38082 0.27048 0.74137 0.0
O229 O 0.28393 0.16636 0.74515 0.0
O230 O 0.40622 0.29711 0.88383 0.0
O231 O 0.45405 0.23476 0.88792 0.0
H232 H 0.41006 0.19453 0.08538 0.0
H233 H 0.38861 0.21634 0.19782 0.0
H234 H 0.46555 0.07988 0.26849 0.0
H235 H 0.48196 0.05393 0.15447 0.0
H236 H 0.3729 0.1394 0.6652 0.0
H237 H 0.39688 0.12268 0.5518 0.0
H238 H 0.31588 0.25756 0.48637 0.0
H239 H 0.29498 0.27663 0.60096 0.0
C240 C 0.24028 0.18076 0.06382 0.0
C241 C 0.25596 0.20223 0.998 0.0
C242 C 0.2175 0.21565 0.1069 0.0
C243 C 0.21076 0.27391 0.08577 0.0
H244 H 0.24718 0.13783 0.08248 0.0
H245 H 0.20704 0.19811 0.1575 0.0
S246 S 0.25403 0.356 0.91977 0.0
N247 N 0.26717 0.2877 0.91468 0.0
N248 N 0.22587 0.35372 0.99504 0.0
C249 C 0.22635 0.29563 1.01977 0.0
C250 C 0.24865 0.25973 0.97606 0.0
C251 C 0.04428 0.30514 0.36598 0.0
C252 C 0.01662 0.31622 0.30765 0.0
C253 C 0.00559 0.28786 0.42489 0.0
C254 C 0.93792 0.28035 0.42664 0.0
H255 H 0.09777 0.31528 0.36725 0.0
H256 H 0.03016 0.28411 0.46989 0.0
S257 S 0.84241 0.30301 0.28612 0.0
N258 N 0.9171 0.31615 0.25472 0.0
N259 N 0.84543 0.28391 0.36393 0.0
C260 C 0.90894 0.28787 0.36767 0.0
C261 C 0.94797 0.30554 0.3084 0.0
C262 C 0.7807 0.06347 0.7307 0.0
C263 C 0.77696 0.05032 0.66261 0.0
C264 C 0.75131 0.00726 0.77574 0.0
C265 C 0.71688 0.93548 0.75448 0.0
H266 H 0.80106 0.11709 0.74952 0.0
H267 H 0.75081 0.02052 0.82702 0.0
S268 S 0.71291 0.87277 0.58379 0.0
N269 N 0.75065 0.96064 0.57758 0.0
N270 N 0.69542 0.85475 0.66251 0.0
C271 C 0.721 0.92177 0.68751 0.0
C272 C 0.75109 0.97924 0.64148 0.0
C273 C 0.7191 0.7174 0.98756 0.0
C274 C 0.65334 0.71381 0.98886 0.0
C275 C 0.74909 0.70816 0.04526 0.0
C276 C 0.71465 0.69598 0.10609 0.0
H277 H 0.74586 0.72394 0.94127 0.0
H278 H 0.79769 0.707 0.04166 0.0
S279 S 0.54112 0.68122 0.13551 0.0
N280 N 0.5552 0.69722 0.05625 0.0
N281 N 0.61188 0.68173 0.16416 0.0
C282 C 0.65062 0.69575 0.10841 0.0
C283 C 0.61971 0.70393 0.04974 0.0
C284 C 0.05692 0.7905 0.33493 0.0
C285 C 0.04701 0.79323 0.40305 0.0
C286 C -0.00091 0.75704 0.29138 0.0
C287 C 0.92915 0.72492 0.31431 0.0
H288 H 0.10947 0.81045 0.31533 0.0
H289 H 0.00938 0.75233 0.24017 0.0
S290 S 0.87433 0.72922 0.48585 0.0
N291 N 0.96153 0.76979 0.48962 0.0
N292 N 0.85343 0.70729 0.40788 0.0
C293 C 0.91869 0.73307 0.38122 0.0
C294 C 0.97745 0.76725 0.42555 0.0
C295 C 0.36033 0.002 0.73585 0.0
C296 C 0.31107 0.01311 0.76978 0.0
C297 C 0.35046 0.98233 0.66977 0.0
C298 C 0.28926 0.96959 0.63543 0.0
H299 H 0.40786 0.00972 0.76013 0.0
H300 H 0.39064 0.97535 0.64596 0.0
S301 S 0.14317 0.98944 0.70201 0.0
N302 N 0.19881 0.01012 0.76462 0.0
N303 N 0.17872 0.97003 0.6397 0.0
C304 C 0.23903 0.97981 0.6686 0.0
C305 C 0.2502 0.00212 0.73602 0.0
C306 C 0.20901 0.483 0.73248 0.0
C307 C 0.17944 0.42706 0.77854 0.0
C308 C 0.22549 0.47178 0.6687 0.0
C309 C 0.21371 0.40428 0.64859 0.0
H310 H 0.21841 0.53564 0.74549 0.0
H311 H 0.24652 0.51608 0.63453 0.0
S312 S 0.14354 0.24177 0.75234 0.0
N313 N 0.14165 0.30232 0.8003 0.0
N314 N 0.17547 0.2821 0.68155 0.0
C315 C 0.18575 0.34832 0.69467 0.0
C316 C 0.16787 0.35945 0.75925 0.0
C317 C 0.82567 0.24793 0.08886 0.0
C318 C 0.75772 0.19042 0.10402 0.0
C319 C 0.84287 0.27511 1.02477 0.0
C320 C 0.79298 0.24519 0.97343 0.0
H321 H 0.86597 0.27201 0.12684 0.0
H322 H 0.89582 0.31911 1.01507 0.0
S323 S 0.60878 0.0931 0.98608 0.0
N324 N 0.6406 0.10434 0.06179 0.0
N325 N 0.67352 0.15482 0.94112 0.0
C326 C 0.72501 0.18788 0.98762 0.0
C327 C 0.70715 0.16073 0.05302 0.0
C328 C 0.58176 0.81139 0.42694 0.0
C329 C 0.52557 0.74238 0.4423 0.0
C330 C 0.59282 0.83767 0.3625 0.0
C331 C 0.54783 0.79642 0.31046 0.0
H332 H 0.61849 0.84516 0.46486 0.0
H333 H 0.63716 0.89093 0.35335 0.0
S334 S 0.39108 0.61335 0.32418 0.0
N335 N 0.42263 0.63419 0.40001 0.0
N336 N 0.44404 0.68322 0.27875 0.0
C337 C 0.49061 0.72777 0.32509 0.0
C338 C 0.47947 0.70081 0.39086 0.0
C339 C 0.8132 0.58001 0.7093 0.0
C340 C 0.76772 0.56466 0.76312 0.0
C341 C 0.7882 0.57241 0.64433 0.0
C342 C 0.71674 0.54972 0.6303 0.0
H343 H 0.86849 0.59712 0.71742 0.0
H344 H 0.82536 0.58482 0.60467 0.0
S345 S 0.57617 0.50454 0.75361 0.0
N346 N 0.64801 0.52748 0.79803 0.0
N347 N 0.60087 0.51229 0.6761 0.0
C348 C 0.67082 0.53497 0.68369 0.0
C349 C 0.69625 0.54243 0.74993 0.0
C350 C 0.17557 0.73857 1.00269 0.0
C351 C 0.17615 0.79416 0.96657 0.0
C352 C 0.20015 0.74954 0.06795 0.0
C353 C 0.22669 0.81662 0.09901 0.0
H354 H 0.15718 0.6867 0.97997 0.0
H355 H 0.19943 0.70557 0.0939 0.0
S356 S 0.22773 0.97522 1.02906 0.0
N357 N 0.19762 0.91573 0.96865 0.0
N358 N 0.24415 0.93656 0.09116 0.0
C359 C 0.22483 0.87165 0.06415 0.0
C360 C 0.19957 0.86038 0.99792 0.0
C361 C 0.35792 0.11271 0.41735 0.0
C362 C 0.37638 0.18104 0.4415 0.0
C363 C 0.37489 0.10345 0.3532 0.0
C364 C 0.41101 0.16212 0.31071 0.0
H365 H 0.32935 0.06584 0.44802 0.0
H366 H 0.35838 0.04969 0.33632 0.0
S367 S 0.47488 0.35258 0.35142 0.0
N368 N 0.43544 0.3087 0.4189 0.0
N369 N 0.46715 0.29132 0.29826 0.0
C370 C 0.43044 0.23083 0.33447 0.0
C371 C 0.41316 0.24026 0.3998 0.0
C372 C 0.21413 0.58414 0.40054 0.0
C373 C 0.17156 0.5637 0.34351 0.0
C374 C 0.20783 0.62623 0.4491 0.0
C375 C 0.15686 0.64694 0.44358 0.0
H376 H 0.2529 0.56772 0.40765 0.0
H377 H 0.24229 0.64161 0.4919 0.0
S378 S 0.03462 0.61012 0.30307 0.0
N379 N 0.07921 0.57032 0.28274 0.0
N380 N 0.06457 0.64631 0.37637 0.0
C381 C 0.11375 0.62688 0.38713 0.0
C382 C 0.12197 0.58615 0.33634 0.0
C383 C 0.60121 0.20482 0.64194 0.0
C384 C 0.62796 0.15831 0.64614 0.0
C385 C 0.55909 0.20752 0.69189 0.0
C386 C 0.544 0.16542 0.74885 0.0
H387 H 0.61115 0.23782 0.59881 0.0
H388 H 0.53758 0.24249 0.68546 0.0
S389 S 0.61011 0.04247 0.78692 0.0
N390 N 0.6411 0.073 0.71288 0.0
N391 N 0.5643 0.08048 0.80873 0.0
C392 C 0.57369 0.12154 0.75513 0.0
C393 C 0.61495 0.11721 0.70315 0.0
C394 C 0.36545 0.50844 0.06463 0.0
C395 C 0.33882 0.53273 0.11479 0.0
C396 C 0.39449 0.54924 1.00755 0.0
C397 C 0.3985 0.6158 0.9997 0.0
H398 H 0.36425 0.45803 0.06969 0.0
H399 H 0.41759 0.5306 0.97132 0.0
S400 S 0.33326 0.70097 0.11603 0.0
N401 N 0.31606 0.62573 0.15214 0.0
N402 N 0.37029 0.70207 0.04534 0.0
C403 C 0.36983 0.63912 0.04874 0.0
C404 C 0.34027 0.59775 0.1063 0.0
C405 C 0.83477 0.4399 0.41478 0.0
C406 C 0.77383 0.37153 0.42037 0.0
C407 C 0.84529 0.48253 0.35916 0.0
C408 C 0.79508 0.45822 0.30788 0.0
H409 H 0.87632 0.45896 0.45173 0.0
H410 H 0.89281 0.5346 0.35628 0.0
S411 S 0.62408 0.28614 0.30137 0.0
N412 N 0.66054 0.28392 0.37189 0.0
N413 N 0.68045 0.36378 0.26784 0.0
C414 C 0.73246 0.39167 0.31447 0.0
C415 C 0.7218 0.34839 0.37066 0.0
C416 C 0.43748 0.8639 0.66238 0.0
C417 C 0.36405 0.81556 0.66493 0.0
C418 C 0.48207 0.86898 0.71475 0.0
C419 C 0.45464 0.8248 0.77022 0.0
H420 H 0.46014 0.89964 0.62097 0.0
H421 H 0.53834 0.90677 0.71137 0.0
S422 S 0.2671 0.68725 0.7992 0.0
N423 N 0.26657 0.72128 0.7268 0.0
N424 N 0.35065 0.7299 0.82373 0.0
C425 C 0.38198 0.77467 0.77215 0.0
C426 C 0.33657 0.77033 0.71984 0.0
C427 C 0.5273 0.41387 0.06042 0.0
C428 C 0.58979 0.41307 0.07488 0.0
C429 C 0.48292 0.37299 1.00779 0.0
C430 C 0.50002 0.33045 0.96831 0.0
H431 H 0.51427 0.44844 0.08796 0.0
H432 H 0.43557 0.37535 0.9975 0.0
S433 S 0.6557 0.30754 0.98873 0.0
N434 N 0.6633 0.36212 0.04893 0.0
N435 N 0.58343 0.2901 0.94782 0.0
C436 C 0.56152 0.32835 0.98346 0.0
C437 C 0.60541 0.36832 0.03745 0.0
loop_
_geom_bond_atom_site_label_1
_geom_bond_atom_site_label_2
_geom_bond_distance
_geom_bond_site_symmetry_2
_ccdc_geom_bond_type
Ho0 C3 2.811 . S
Ho0 O20 2.322 . S
Ho0 O22 2.378 . S
Ho0 O23 2.524 . S
Ho0 O24 2.381 . S
Ho0 O25 2.669 . S
Ho0 O27 2.346 . S
Ho0 O31 2.305 . S
Ho1 C12 2.811 . S
Ho1 O21 2.346 . S
Ho1 O25 2.305 . S
Ho1 O26 2.322 . S
Ho1 O28 2.378 . S
Ho1 O29 2.524 . S
Ho1 O30 2.381 . S
Ho1 O31 2.669 . S
C2 O20 1.259 . S
C2 O21 1.268 . S
C3 Ho0 2.811 . S
C3 C4 1.488 1_554 S
C3 O22 1.215 . S
C3 O23 1.289 . S
C4 C3 1.488 1_556 S
C4 C5 1.348 . S
C4 C9 1.413 . S
C5 C4 1.348 . S
C5 C6 1.442 . S
C5 H32 0.930 . S
C6 C5 1.442 . S
C6 C7 1.381 . S
C6 H33 0.931 . S
C7 C6 1.381 . S
C7 C8 1.321 . S
C8 C7 1.321 . S
C8 C9 1.403 . S
C8 H34 0.934 . S
C9 C4 1.413 . S
C9 C8 1.403 . S
C9 H35 0.930 . S
C10 O24 1.275 . S
C10 O25 1.256 . S
C11 O26 1.259 . S
C11 O27 1.268 . S
C12 Ho1 2.811 . S
C12 C13 1.488 . S
C12 O28 1.215 . S
C12 O29 1.289 . S
C13 C12 1.488 . S
C13 C14 1.348 . S
C13 C18 1.413 . S
C14 C13 1.348 . S
C14 C15 1.442 . S
C14 H36 0.930 . S
C15 C14 1.442 . S
C15 C16 1.381 . S
C15 H37 0.931 . S
C16 C15 1.381 . S
C16 C17 1.321 . S
C17 C16 1.321 . S
C17 C18 1.403 . S
C17 H38 0.934 . S
C18 C13 1.413 . S
C18 C17 1.403 . S
C18 H39 0.930 . S
C19 O30 1.275 . S
C19 O31 1.256 . S
O20 Ho0 2.322 . S
O20 C2 1.259 . S
O21 Ho1 2.346 . S
O21 C2 1.268 . S
O22 Ho0 2.378 . S
O22 C3 1.215 . S
O23 Ho0 2.524 . S
O23 C3 1.289 . S
O24 Ho0 2.381 . S
O24 C10 1.275 . S
O25 Ho0 2.669 . S
O25 Ho1 2.305 . S
O25 C10 1.256 . S
O26 Ho1 2.322 . S
O26 C11 1.259 . S
O27 Ho0 2.346 . S
O27 C11 1.268 . S
O28 Ho1 2.378 . S
O28 C12 1.215 . S
O29 Ho1 2.524 . S
O29 C12 1.289 . S
O30 Ho1 2.381 . S
O30 C19 1.275 . S
O31 Ho0 2.305 . S
O31 Ho1 2.669 . S
O31 C19 1.256 . S
H32 C5 0.930 . S
H33 C6 0.931 . S
H34 C8 0.934 . S
H35 C9 0.930 . S
H36 C14 0.930 . S
H37 C15 0.931 . S
H38 C17 0.934 . S
H39 C18 0.930 . S
Ho40 C43 2.811 . S
Ho40 O60 2.322 . S
Ho40 O62 2.378 . S
Ho40 O63 2.524 . S
Ho40 O64 2.381 . S
Ho40 O65 2.669 . S
Ho40 O67 2.346 . S
Ho40 O71 2.305 . S
Ho41 C52 2.811 . S
Ho41 O61 2.346 . S
Ho41 O65 2.305 . S
Ho41 O66 2.322 . S
Ho41 O68 2.378 . S
Ho41 O69 2.524 . S
Ho41 O70 2.381 . S
Ho41 O71 2.669 . S
C42 O60 1.259 . S
C42 O61 1.268 . S
C43 Ho40 2.811 . S
C43 C44 1.488 . S
C43 O62 1.215 . S
C43 O63 1.289 . S
C44 C43 1.488 . S
C44 C45 1.348 . S
C44 C49 1.413 . S
C45 C44 1.348 . S
C45 C46 1.442 . S
C45 H72 0.930 . S
C46 C45 1.442 . S
C46 C47 1.381 . S
C46 H73 0.931 . S
C47 C46 1.381 . S
C47 C48 1.321 . S
C48 C47 1.321 . S
C48 C49 1.403 . S
C48 H74 0.934 . S
C49 C44 1.413 . S
C49 C48 1.403 . S
C49 H75 0.930 . S
C50 O64 1.275 . S
C50 O65 1.256 . S
C51 O66 1.259 . S
C51 O67 1.268 . S
C52 Ho41 2.811 . S
C52 C53 1.488 . S
C52 O68 1.215 . S
C52 O69 1.289 . S
C53 C52 1.488 . S
C53 C54 1.348 . S
C53 C58 1.413 . S
C54 C53 1.348 . S
C54 C55 1.442 . S
C54 H76 0.930 . S
C55 C54 1.442 . S
C55 C56 1.381 . S
C55 H77 0.931 . S
C56 C55 1.381 . S
C56 C57 1.321 . S
C57 C56 1.321 . S
C57 C58 1.403 . S
C57 H78 0.934 . S
C58 C53 1.413 . S
C58 C57 1.403 . S
C58 H79 0.930 . S
C59 O70 1.275 . S
C59 O71 1.256 . S
O60 Ho40 2.322 . S
O60 C42 1.259 . S
O61 Ho41 2.346 . S
O61 C42 1.268 . S
O62 Ho40 2.378 . S
O62 C43 1.215 . S
O63 Ho40 2.524 . S
O63 C43 1.289 . S
O64 Ho40 2.381 . S
O64 C50 1.275 . S
O65 Ho40 2.669 . S
O65 Ho41 2.305 . S
O65 C50 1.256 . S
O66 Ho41 2.322 . S
O66 C51 1.259 . S
O67 Ho40 2.346 . S
O67 C51 1.268 . S
O68 Ho41 2.378 . S
O68 C52 1.215 . S
O69 Ho41 2.524 . S
O69 C52 1.289 . S
O70 Ho41 2.381 . S
O70 C59 1.275 . S
O71 Ho40 2.305 . S
O71 Ho41 2.669 . S
O71 C59 1.256 . S
H72 C45 0.930 . S
H73 C46 0.931 . S
H74 C48 0.934 . S
H75 C49 0.930 . S
H76 C54 0.930 . S
H77 C55 0.931 . S
H78 C57 0.934 . S
H79 C58 0.930 . S
Ho80 C83 2.811 . S
Ho80 O100 2.322 . S
Ho80 O102 2.378 . S
Ho80 O103 2.524 . S
Ho80 O104 2.381 . S
Ho80 O105 2.669 . S
Ho80 O107 2.346 . S
Ho80 O111 2.305 . S
Ho81 C92 2.811 1_556 S
Ho81 O101 2.346 . S
Ho81 O105 2.305 . S
Ho81 O106 2.322 . S
Ho81 O108 2.378 1_556 S
Ho81 O109 2.524 1_556 S
Ho81 O110 2.381 . S
Ho81 O111 2.669 . S
C82 O100 1.259 . S
C82 O101 1.268 . S
C83 Ho80 2.811 . S
C83 C84 1.488 . S
C83 O102 1.215 . S
C83 O103 1.289 . S
C84 C83 1.488 . S
C84 C85 1.348 . S
C84 C89 1.413 . S
C85 C84 1.348 . S
C85 C86 1.442 . S
C85 H112 0.930 . S
C86 C85 1.442 . S
C86 C87 1.381 . S
C86 H113 0.931 . S
C87 C86 1.381 . S
C87 C88 1.321 . S
C88 C87 1.321 . S
C88 C89 1.403 . S
C88 H114 0.934 . S
C89 C84 1.413 . S
C89 C88 1.403 . S
C89 H115 0.930 . S
C90 O104 1.275 . S
C90 O105 1.256 . S
C91 O106 1.259 . S
C91 O107 1.268 . S
C92 Ho81 2.811 1_554 S
C92 C93 1.488 . S
C92 O108 1.215 . S
C92 O109 1.289 . S
C93 C92 1.488 . S
C93 C94 1.348 . S
C93 C98 1.413 . S
C94 C93 1.348 . S
C94 C95 1.442 . S
C94 H116 0.930 . S
C95 C94 1.442 . S
C95 C96 1.381 . S
C95 H117 0.931 . S
C96 C95 1.381 . S
C96 C97 1.321 . S
C97 C96 1.321 . S
C97 C98 1.403 . S
C97 H118 0.934 . S
C98 C93 1.413 . S
C98 C97 1.403 . S
C98 H119 0.930 . S
C99 O110 1.275 . S
C99 O111 1.256 . S
O100 Ho80 2.322 . S
O100 C82 1.259 . S
O101 Ho81 2.346 . S
O101 C82 1.268 . S
O102 Ho80 2.378 . S
O102 C83 1.215 . S
O103 Ho80 2.524 . S
O103 C83 1.289 . S
O104 Ho80 2.381 . S
O104 C90 1.275 . S
O105 Ho80 2.669 . S
O105 Ho81 2.305 . S
O105 C90 1.256 . S
O106 Ho81 2.322 . S
O106 C91 1.259 . S
O107 Ho80 2.346 . S
O107 C91 1.268 . S
O108 Ho81 2.378 1_554 S
O108 C92 1.215 . S
O109 Ho81 2.524 1_554 S
O109 C92 1.289 . S
O110 Ho81 2.381 . S
O110 C99 1.275 . S
O111 Ho80 2.305 . S
O111 Ho81 2.669 . S
O111 C99 1.256 . S
H112 C85 0.930 . S
H113 C86 0.931 . S
H114 C88 0.934 . S
H115 C89 0.930 . S
H116 C94 0.930 . S
H117 C95 0.931 . S
H118 C97 0.934 . S
H119 C98 0.930 . S
Ho120 C123 2.811 . S
Ho120 O140 2.322 . S
Ho120 O142 2.378 . S
Ho120 O143 2.524 . S
Ho120 O144 2.381 . S
Ho120 O145 2.669 . S
Ho120 O147 2.346 . S
Ho120 O151 2.305 . S
Ho121 C132 2.811 1_554 S
Ho121 O141 2.346 . S
Ho121 O145 2.305 . S
Ho121 O146 2.322 . S
Ho121 O148 2.378 1_554 S
Ho121 O149 2.524 1_554 S
Ho121 O150 2.381 . S
Ho121 O151 2.669 . S
C122 O140 1.259 . S
C122 O141 1.268 . S
C123 Ho120 2.811 . S
C123 C124 1.488 . S
C123 O142 1.215 . S
C123 O143 1.289 . S
C124 C123 1.488 . S
C124 C125 1.348 . S
C124 C129 1.413 . S
C125 C124 1.348 . S
C125 C126 1.442 . S
C125 H152 0.930 . S
C126 C125 1.442 . S
C126 C127 1.381 . S
C126 H153 0.931 . S
C127 C126 1.381 . S
C127 C128 1.321 . S
C128 C127 1.321 . S
C128 C129 1.403 . S
C128 H154 0.934 . S
C129 C124 1.413 . S
C129 C128 1.403 . S
C129 H155 0.930 . S
C130 O144 1.275 . S
C130 O145 1.256 . S
C131 O146 1.259 . S
C131 O147 1.268 . S
C132 Ho121 2.811 1_556 S
C132 C133 1.488 . S
C132 O148 1.215 . S
C132 O149 1.289 . S
C133 C132 1.488 . S
C133 C134 1.348 . S
C133 C138 1.413 . S
C134 C133 1.348 . S
C134 C135 1.442 . S
C134 H156 0.930 . S
C135 C134 1.442 . S
C135 C136 1.381 . S
C135 H157 0.931 . S
C136 C135 1.381 . S
C136 C137 1.321 . S
C137 C136 1.321 . S
C137 C138 1.403 . S
C137 H158 0.934 . S
C138 C133 1.413 . S
C138 C137 1.403 . S
C138 H159 0.930 . S
C139 O150 1.275 . S
C139 O151 1.256 . S
O140 Ho120 2.322 . S
O140 C122 1.259 . S
O141 Ho121 2.346 . S
O141 C122 1.268 . S
O142 Ho120 2.378 . S
O142 C123 1.215 . S
O143 Ho120 2.524 . S
O143 C123 1.289 . S
O144 Ho120 2.381 . S
O144 C130 1.275 . S
O145 Ho120 2.669 . S
O145 Ho121 2.305 . S
O145 C130 1.256 . S
O146 Ho121 2.322 . S
O146 C131 1.259 . S
O147 Ho120 2.346 . S
O147 C131 1.268 . S
O148 Ho121 2.378 1_556 S
O148 C132 1.215 . S
O149 Ho121 2.524 1_556 S
O149 C132 1.289 . S
O150 Ho121 2.381 . S
O150 C139 1.275 . S
O151 Ho120 2.305 . S
O151 Ho121 2.669 . S
O151 C139 1.256 . S
H152 C125 0.930 . S
H153 C126 0.931 . S
H154 C128 0.934 . S
H155 C129 0.930 . S
H156 C134 0.930 . S
H157 C135 0.931 . S
H158 C137 0.934 . S
H159 C138 0.930 . S
Ho160 C163 2.811 . S
Ho160 O180 2.322 . S
Ho160 O182 2.378 . S
Ho160 O183 2.524 . S
Ho160 O184 2.381 . S
Ho160 O185 2.669 . S
Ho160 O187 2.346 . S
Ho160 O191 2.305 . S
Ho161 C172 2.811 . S
Ho161 O181 2.346 . S
Ho161 O185 2.305 . S
Ho161 O186 2.322 . S
Ho161 O188 2.378 . S
Ho161 O189 2.524 . S
Ho161 O190 2.381 . S
Ho161 O191 2.669 . S
C162 O180 1.259 . S
C162 O181 1.268 . S
C163 Ho160 2.811 . S
C163 C164 1.488 . S
C163 O182 1.215 . S
C163 O183 1.289 . S
C164 C163 1.488 . S
C164 C165 1.348 . S
C164 C169 1.413 . S
C165 C164 1.348 . S
C165 C166 1.442 . S
C165 H192 0.930 . S
C166 C165 1.442 . S
C166 C167 1.381 . S
C166 H193 0.931 . S
C167 C166 1.381 . S
C167 C168 1.321 . S
C168 C167 1.321 . S
C168 C169 1.403 . S
C168 H194 0.934 . S
C169 C164 1.413 . S
C169 C168 1.403 . S
C169 H195 0.930 . S
C170 O184 1.275 . S
C170 O185 1.256 . S
C171 O186 1.259 . S
C171 O187 1.268 . S
C172 Ho161 2.811 . S
C172 C173 1.488 . S
C172 O188 1.215 . S
C172 O189 1.289 . S
C173 C172 1.488 . S
C173 C174 1.348 . S
C173 C178 1.413 . S
C174 C173 1.348 . S
C174 C175 1.442 . S
C174 H196 0.930 . S
C175 C174 1.442 . S
C175 C176 1.381 . S
C175 H197 0.931 . S
C176 C175 1.381 . S
C176 C177 1.321 . S
C177 C176 1.321 . S
C177 C178 1.403 . S
C177 H198 0.934 . S
C178 C173 1.413 . S
C178 C177 1.403 . S
C178 H199 0.930 . S
C179 O190 1.275 . S
C179 O191 1.256 . S
O180 Ho160 2.322 . S
O180 C162 1.259 . S
O181 Ho161 2.346 . S
O181 C162 1.268 . S
O182 Ho160 2.378 . S
O182 C163 1.215 . S
O183 Ho160 2.524 . S
O183 C163 1.289 . S
O184 Ho160 2.381 . S
O184 C170 1.275 . S
O185 Ho160 2.669 . S
O185 Ho161 2.305 . S
O185 C170 1.256 . S
O186 Ho161 2.322 . S
O186 C171 1.259 . S
O187 Ho160 2.346 . S
O187 C171 1.268 . S
O188 Ho161 2.378 . S
O188 C172 1.215 . S
O189 Ho161 2.524 . S
O189 C172 1.289 . S
O190 Ho161 2.381 . S
O190 C179 1.275 . S
O191 Ho160 2.305 . S
O191 Ho161 2.669 . S
O191 C179 1.256 . S
H192 C165 0.930 . S
H193 C166 0.931 . S
H194 C168 0.934 . S
H195 C169 0.930 . S
H196 C174 0.930 . S
H197 C175 0.931 . S
H198 C177 0.934 . S
H199 C178 0.930 . S
Ho200 C203 2.811 . S
Ho200 O220 2.322 . S
Ho200 O222 2.378 . S
Ho200 O223 2.524 . S
Ho200 O224 2.381 . S
Ho200 O225 2.669 . S
Ho200 O227 2.346 . S
Ho200 O231 2.305 . S
Ho201 C212 2.811 . S
Ho201 O221 2.346 . S
Ho201 O225 2.305 . S
Ho201 O226 2.322 . S
Ho201 O228 2.378 . S
Ho201 O229 2.524 . S
Ho201 O230 2.381 . S
Ho201 O231 2.669 . S
C202 O220 1.259 . S
C202 O221 1.268 . S
C203 Ho200 2.811 . S
C203 C204 1.488 1_556 S
C203 O222 1.215 . S
C203 O223 1.289 . S
C204 C203 1.488 1_554 S
C204 C205 1.348 . S
C204 C209 1.413 . S
C205 C204 1.348 . S
C205 C206 1.442 . S
C205 H232 0.930 . S
C206 C205 1.442 . S
C206 C207 1.381 . S
C206 H233 0.931 . S
C207 C206 1.381 . S
C207 C208 1.321 . S
C208 C207 1.321 . S
C208 C209 1.403 . S
C208 H234 0.934 . S
C209 C204 1.413 . S
C209 C208 1.403 . S
C209 H235 0.930 . S
C210 O224 1.275 . S
C210 O225 1.256 . S
C211 O226 1.259 . S
C211 O227 1.268 . S
C212 Ho201 2.811 . S
C212 C213 1.488 . S
C212 O228 1.215 . S
C212 O229 1.289 . S
C213 C212 1.488 . S
C213 C214 1.348 . S
C213 C218 1.413 . S
C214 C213 1.348 . S
C214 C215 1.442 . S
C214 H236 0.930 . S
C215 C214 1.442 . S
C215 C216 1.381 . S
C215 H237 0.931 . S
C216 C215 1.381 . S
C216 C217 1.321 . S
C217 C216 1.321 . S
C217 C218 1.403 . S
C217 H238 0.934 . S
C218 C213 1.413 . S
C218 C217 1.403 . S
C218 H239 0.930 . S
C219 O230 1.275 . S
C219 O231 1.256 . S
O220 Ho200 2.322 . S
O220 C202 1.259 . S
O221 Ho201 2.346 . S
O221 C202 1.268 . S
O222 Ho200 2.378 . S
O222 C203 1.215 . S
O223 Ho200 2.524 . S
O223 C203 1.289 . S
O224 Ho200 2.381 . S
O224 C210 1.275 . S
O225 Ho200 2.669 . S
O225 Ho201 2.305 . S
O225 C210 1.256 . S
O226 Ho201 2.322 . S
O226 C211 1.259 . S
O227 Ho200 2.346 . S
O227 C211 1.268 . S
O228 Ho201 2.378 . S
O228 C212 1.215 . S
O229 Ho201 2.524 . S
O229 C212 1.289 . S
O230 Ho201 2.381 . S
O230 C219 1.275 . S
O231 Ho200 2.305 . S
O231 Ho201 2.669 . S
O231 C219 1.256 . S
H232 C205 0.930 . S
H233 C206 0.931 . S
H234 C208 0.934 . S
H235 C209 0.930 . S
H236 C214 0.930 . S
H237 C215 0.931 . S
H238 C217 0.934 . S
H239 C218 0.930 . S
C240 C241 1.369 . S
C240 C242 1.419 1_556 S
C240 H244 0.930 . S
C241 C240 1.369 . S
C241 C250 1.429 . S
C242 C240 1.419 1_554 S
C242 C243 1.363 . S
C242 H245 0.929 . S
C243 C242 1.363 . S
C243 C249 1.428 . S
H244 C240 0.930 . S
H245 C242 0.929 . S
S246 N247 1.615 . S
S246 N248 1.608 1_556 S
N247 S246 1.615 . S
N247 C250 1.350 . S
N248 S246 1.608 1_554 S
N248 C249 1.351 . S
C249 C243 1.428 . S
C249 N248 1.351 . S
C249 C250 1.434 1_554 S
C250 C241 1.429 . S
C250 N247 1.350 . S
C250 C249 1.434 1_556 S
C251 C252 1.369 . S
C251 C253 1.419 1_455 S
C251 H255 0.930 . S
C252 C251 1.369 . S
C252 C261 1.429 . S
C253 C251 1.419 1_655 S
C253 C254 1.363 . S
C253 H256 0.929 . S
C254 C253 1.363 . S
C254 C260 1.428 . S
H255 C251 0.930 . S
H256 C253 0.929 . S
S257 N258 1.613 1_655 S
S257 N259 1.610 . S
N258 S257 1.613 1_455 S
N258 C261 1.350 . S
N259 S257 1.610 . S
N259 C260 1.351 . S
C260 C254 1.428 . S
C260 N259 1.351 . S
C260 C261 1.434 1_655 S
C261 C252 1.429 . S
C261 N258 1.350 . S
C261 C260 1.434 1_455 S
C262 C263 1.369 . S
C262 C264 1.419 . S
C262 H266 0.930 . S
C263 C262 1.369 . S
C263 C272 1.429 1_545 S
C264 C262 1.419 . S
C264 C265 1.363 1_545 S
C264 H267 0.929 . S
C265 C264 1.363 1_565 S
C265 C271 1.428 . S
H266 C262 0.930 . S
H267 C264 0.929 . S
S268 N269 1.613 . S
S268 N270 1.610 . S
N269 S268 1.613 . S
N269 C272 1.350 . S
N270 S268 1.610 . S
N270 C271 1.351 . S
C271 C265 1.428 . S
C271 N270 1.351 . S
C271 C272 1.434 . S
C272 C263 1.429 1_565 S
C272 N269 1.350 . S
C272 C271 1.434 . S
C273 C274 1.369 . S
C273 C275 1.419 . S
C273 H277 0.930 . S
C274 C273 1.369 . S
C274 C283 1.429 1_556 S
C275 C273 1.419 . S
C275 C276 1.363 1_556 S
C275 H278 0.929 . S
C276 C275 1.363 1_554 S
C276 C282 1.428 . S
H277 C273 0.930 . S
H278 C275 0.929 . S
S279 N280 1.613 . S
S279 N281 1.610 . S
N280 S279 1.613 . S
N280 C283 1.350 . S
N281 S279 1.610 . S
N281 C282 1.351 . S
C282 C276 1.428 . S
C282 N281 1.351 . S
C282 C283 1.434 . S
C283 C274 1.429 1_554 S
C283 N280 1.350 . S
C283 C282 1.434 . S
C284 C285 1.369 . S
C284 C286 1.419 . S
C284 H288 0.930 . S
C285 C284 1.369 . S
C285 C294 1.429 1_455 S
C286 C284 1.419 . S
C286 C287 1.363 1_455 S
C286 H289 0.929 . S
C287 C286 1.363 1_655 S
C287 C293 1.428 . S
H288 C284 0.930 . S
H289 C286 0.929 . S
S290 N291 1.613 . S
S290 N292 1.610 . S
N291 S290 1.613 . S
N291 C294 1.350 . S
N292 S290 1.610 . S
N292 C293 1.351 . S
C293 C287 1.428 . S
C293 N292 1.351 . S
C293 C294 1.434 . S
C294 C285 1.429 1_655 S
C294 N291 1.350 . S
C294 C293 1.434 . S
C295 C296 1.369 . S
C295 C297 1.419 1_545 S
C295 H299 0.930 . S
C296 C295 1.369 . S
C296 C305 1.429 . S
C297 C295 1.419 1_565 S
C297 C298 1.363 . S
C297 H300 0.929 . S
C298 C297 1.363 . S
C298 C304 1.428 . S
H299 C295 0.930 . S
H300 C297 0.929 . S
S301 N302 1.613 . S
S301 N303 1.610 1_545 S
N302 S301 1.613 . S
N302 C305 1.350 . S
N303 S301 1.610 1_565 S
N303 C304 1.351 . S
C304 C298 1.428 . S
C304 N303 1.351 . S
C304 C305 1.434 1_565 S
C305 C296 1.429 . S
C305 N302 1.350 . S
C305 C304 1.434 1_545 S
C306 C307 1.369 . S
C306 C308 1.419 . S
C306 H310 0.930 . S
C307 C306 1.369 . S
C307 C316 1.429 . S
C308 C306 1.419 . S
C308 C309 1.363 . S
C308 H311 0.929 . S
C309 C308 1.363 . S
C309 C315 1.428 . S
H310 C306 0.930 . S
H311 C308 0.929 . S
S312 N313 1.613 . S
S312 N314 1.610 . S
N313 S312 1.613 . S
N313 C316 1.350 . S
N314 S312 1.610 . S
N314 C315 1.351 . S
C315 C309 1.428 . S
C315 N314 1.351 . S
C315 C316 1.434 . S
C316 C307 1.429 . S
C316 N313 1.350 . S
C316 C315 1.434 . S
C317 C318 1.369 . S
C317 C319 1.419 . S
C317 H321 0.930 1_556 S
C318 C317 1.369 . S
C318 C327 1.429 . S
C319 C317 1.419 . S
C319 C320 1.363 . S
C319 H322 0.929 . S
C320 C319 1.363 . S
C320 C326 1.428 . S
H321 C317 0.930 1_554 S
H322 C319 0.929 . S
S323 N324 1.613 . S
S323 N325 1.610 . S
N324 S323 1.613 . S
N324 C327 1.350 . S
N325 S323 1.610 . S
N325 C326 1.351 . S
C326 C320 1.428 . S
C326 N325 1.351 . S
C326 C327 1.434 . S
C327 C318 1.429 . S
C327 N324 1.350 . S
C327 C326 1.434 . S
C328 C329 1.369 . S
C328 C330 1.419 . S
C328 H332 0.930 . S
C329 C328 1.369 . S
C329 C338 1.429 . S
C330 C328 1.419 . S
C330 C331 1.363 . S
C330 H333 0.929 . S
C331 C330 1.363 . S
C331 C337 1.428 . S
H332 C328 0.930 . S
H333 C330 0.929 . S
S334 N335 1.613 . S
S334 N336 1.610 . S
N335 S334 1.613 . S
N335 C338 1.350 . S
N336 S334 1.610 . S
N336 C337 1.351 . S
C337 C331 1.428 . S
C337 N336 1.351 . S
C337 C338 1.434 . S
C338 C329 1.429 . S
C338 N335 1.350 . S
C338 C337 1.434 . S
C339 C340 1.369 . S
C339 C341 1.419 . S
C339 H343 0.930 . S
C340 C339 1.369 . S
C340 C349 1.429 . S
C341 C339 1.419 . S
C341 C342 1.363 . S
C341 H344 0.929 . S
C342 C341 1.363 . S
C342 C348 1.428 . S
H343 C339 0.930 . S
H344 C341 0.929 . S
S345 N346 1.613 . S
S345 N347 1.610 . S
N346 S345 1.613 . S
N346 C349 1.350 . S
N347 S345 1.610 . S
N347 C348 1.351 . S
C348 C342 1.428 . S
C348 N347 1.351 . S
C348 C349 1.434 . S
C349 C340 1.429 . S
C349 N346 1.350 . S
C349 C348 1.434 . S
C350 C351 1.369 . S
C350 C352 1.419 . S
C350 H354 0.930 . S
C351 C350 1.369 . S
C351 C360 1.429 . S
C352 C350 1.419 . S
C352 C353 1.363 . S
C352 H355 0.929 . S
C353 C352 1.363 . S
C353 C359 1.428 . S
H354 C350 0.930 . S
H355 C352 0.929 . S
S356 N357 1.613 . S
S356 N358 1.610 1_556 S
N357 S356 1.613 . S
N357 C360 1.350 1_556 S
N358 S356 1.610 1_554 S
N358 C359 1.351 . S
C359 C353 1.428 . S
C359 N358 1.351 . S
C359 C360 1.434 . S
C360 C351 1.429 . S
C360 N357 1.350 1_554 S
C360 C359 1.434 . S
C361 C362 1.369 . S
C361 C363 1.419 . S
C361 H365 0.930 . S
C362 C361 1.369 . S
C362 C371 1.429 . S
C363 C361 1.419 . S
C363 C364 1.363 . S
C363 H366 0.929 . S
C364 C363 1.363 . S
C364 C370 1.428 . S
H365 C361 0.930 . S
H366 C363 0.929 . S
S367 N368 1.613 . S
S367 N369 1.610 . S
N368 S367 1.613 . S
N368 C371 1.350 . S
N369 S367 1.610 . S
N369 C370 1.351 . S
C370 C364 1.428 . S
C370 N369 1.351 . S
C370 C371 1.434 . S
C371 C362 1.429 . S
C371 N368 1.350 . S
C371 C370 1.434 . S
C372 C373 1.369 . S
C372 C374 1.419 . S
C372 H376 0.930 . S
C373 C372 1.369 . S
C373 C382 1.429 . S
C374 C372 1.419 . S
C374 C375 1.363 . S
C374 H377 0.929 . S
C375 C374 1.363 . S
C375 C381 1.428 . S
H376 C372 0.930 . S
H377 C374 0.929 . S
S378 N379 1.613 . S
S378 N380 1.610 . S
N379 S378 1.613 . S
N379 C382 1.350 . S
N380 S378 1.610 . S
N380 C381 1.351 . S
C381 C375 1.428 . S
C381 N380 1.351 . S
C381 C382 1.434 . S
C382 C373 1.429 . S
C382 N379 1.350 . S
C382 C381 1.434 . S
C383 C384 1.369 . S
C383 C385 1.419 . S
C383 H387 0.930 . S
C384 C383 1.369 . S
C384 C393 1.429 . S
C385 C383 1.419 . S
C385 C386 1.363 . S
C385 H388 0.929 . S
C386 C385 1.363 . S
C386 C392 1.428 . S
H387 C383 0.930 . S
H388 C385 0.929 . S
S389 N390 1.613 . S
S389 N391 1.610 . S
N390 S389 1.613 . S
N390 C393 1.350 . S
N391 S389 1.610 . S
N391 C392 1.351 . S
C392 C386 1.428 . S
C392 N391 1.351 . S
C392 C393 1.434 . S
C393 C384 1.429 . S
C393 N390 1.350 . S
C393 C392 1.434 . S
C394 C395 1.369 . S
C394 C396 1.419 . S
C394 H398 0.930 . S
C395 C394 1.369 . S
C395 C404 1.429 . S
C396 C394 1.419 . S
C396 C397 1.363 . S
C396 H399 0.929 . S
C397 C396 1.363 . S
C397 C403 1.428 . S
H398 C394 0.930 . S
H399 C396 0.929 . S
S400 N401 1.613 . S
S400 N402 1.610 . S
N401 S400 1.613 . S
N401 C404 1.350 . S
N402 S400 1.610 . S
N402 C403 1.351 . S
C403 C397 1.428 . S
C403 N402 1.351 . S
C403 C404 1.434 . S
C404 C395 1.429 . S
C404 N401 1.350 . S
C404 C403 1.434 . S
C405 C406 1.369 . S
C405 C407 1.419 . S
C405 H409 0.930 . S
C406 C405 1.369 . S
C406 C415 1.429 . S
C407 C405 1.419 . S
C407 C408 1.363 . S
C407 H410 0.929 . S
C408 C407 1.363 . S
C408 C414 1.428 . S
H409 C405 0.930 . S
H410 C407 0.929 . S
S411 N412 1.613 . S
S411 N413 1.610 . S
N412 S411 1.613 . S
N412 C415 1.350 . S
N413 S411 1.610 . S
N413 C414 1.351 . S
C414 C408 1.428 . S
C414 N413 1.351 . S
C414 C415 1.434 . S
C415 C406 1.429 . S
C415 N412 1.350 . S
C415 C414 1.434 . S
C416 C417 1.369 . S
C416 C418 1.419 . S
C416 H420 0.930 . S
C417 C416 1.369 . S
C417 C426 1.429 . S
C418 C416 1.419 . S
C418 C419 1.363 . S
C418 H421 0.929 . S
C419 C418 1.363 . S
C419 C425 1.428 . S
H420 C416 0.930 . S
H421 C418 0.929 . S
S422 N423 1.613 . S
S422 N424 1.610 . S
N423 S422 1.613 . S
N423 C426 1.350 . S
N424 S422 1.610 . S
N424 C425 1.351 . S
C425 C419 1.428 . S
C425 N424 1.351 . S
C425 C426 1.434 . S
C426 C417 1.429 . S
C426 N423 1.350 . S
C426 C425 1.434 . S
C427 C428 1.369 . S
C427 C429 1.419 . S
C427 H431 0.930 . S
C428 C427 1.369 . S
C428 C437 1.429 . S
C429 C427 1.419 . S
C429 C430 1.363 . S
C429 H432 0.929 . S
C430 C429 1.363 . S
C430 C436 1.428 . S
H431 C427 0.930 . S
H432 C429 0.929 . S
S433 N434 1.613 . S
S433 N435 1.610 . S
N434 S433 1.613 . S
N434 C437 1.350 . S
N435 S433 1.610 . S
N435 C436 1.351 . S
C436 C430 1.428 . S
C436 N435 1.351 . S
C436 C437 1.434 . S
C437 C428 1.429 . S
C437 N434 1.350 . S
C437 C436 1.434 . S
C241 C202 1.978 . S
C243 C2 1.974 . S
C252 C10 1.445 . S
C254 C50 1.446 . S
C263 C42 1.979 . S
C265 C82 1.974 . S
C274 C90 1.449 . S
C276 C130 1.446 . S
C285 C162 1.980 . S
C287 C122 1.973 . S
C296 C210 1.455 . S
C298 C170 1.453 . S
C307 C7 1.877 . S
C309 C16 1.876 . S
C318 C56 1.882 1_556 S
C320 C47 1.871 . S
C329 C87 1.880 . S
C331 C96 1.874 . S
C340 C136 1.871 . S
C342 C127 1.881 . S
C351 C176 1.870 1_554 S
C353 C167 1.880 . S
C362 C216 1.883 . S
C364 C207 1.872 . S
C373 C11 1.946 . S
C375 C179 1.931 . S
C384 C59 1.933 . S
C386 C211 1.947 . S
C395 C19 1.930 . S
C397 C91 1.947 1_554 S
C406 C51 1.946 . S
C408 C139 1.933 . S
C417 C171 1.947 . S
C419 C99 1.930 . S
C428 C131 1.947 1_556 S
C430 C219 1.931 . S
