# Generated by pormake.
# Topology sxa, (6)-cn, num edge types: 1
# Building blocks:
#     Node 0, Type 0, BuildingBlock: MIDCAF_clean_sbu_0, # of connection points: 6
#     Node 1, Type 0, BuildingBlock: MIDCAF_clean_sbu_0, # of connection points: 6
#     Node 2, Type 0, BuildingBlock: MIDCAF_clean_sbu_0, # of connection points: 6
#     Node 3, Type 0, BuildingBlock: MIDCAF_clean_sbu_0, # of connection points: 6
#     Edge 4, Type (0, 0), BuildingBlock: MIFKUJ_clean_linker_0, # of connection points: 2
#     Edge 5, Type (0, 0), BuildingBlock: MIFKUJ_clean_linker_0, # of connection points: 2
#     Edge 6, Type (0, 0), BuildingBlock: MIFKUJ_clean_linker_0, # of connection points: 2
#     Edge 7, Type (0, 0), BuildingBlock: MIFKUJ_clean_linker_0, # of connection points: 2
#     Edge 8, Type (0, 0), BuildingBlock: MIFKUJ_clean_linker_0, # of connection points: 2
#     Edge 9, Type (0, 0), BuildingBlock: MIFKUJ_clean_linker_0, # of connection points: 2
#     Edge 10, Type (0, 0), BuildingBlock: MIFKUJ_clean_linker_0, # of connection points: 2
#     Edge 11, Type (0, 0), BuildingBlock: MIFKUJ_clean_linker_0, # of connection points: 2
#     Edge 12, Type (0, 0), BuildingBlock: MIFKUJ_clean_linker_0, # of connection points: 2
#     Edge 13, Type (0, 0), BuildingBlock: MIFKUJ_clean_linker_0, # of connection points: 2
#     Edge 14, Type (0, 0), BuildingBlock: MIFKUJ_clean_linker_0, # of connection points: 2
#     Edge 15, Type (0, 0), BuildingBlock: MIFKUJ_clean_linker_0, # of connection points: 2
# Relax obj value: 0.202
# Max RMSD: 0.181
# Mean RMSD: 0.181
data_MOF--net-sxa--node1-MIDCAF_clean_sbu_0--edge1-MIFKUJ_clean_linker_0
_symmetry_space_group_name_H-M    P1
_symmetry_Int_Tables_number       1
_symmetry_cell_setting            triclinic
loop_
_symmetry_equiv_pos_as_xyz
'x, y, z'
_cell_length_a     28.586621
_cell_length_b     36.182702
_cell_length_c     24.01845
_cell_angle_alpha  90.047628
_cell_angle_beta   90.115614
_cell_angle_gamma 90.471775
loop_
_atom_site_label
_atom_site_type_symbol
_atom_site_fract_x
_atom_site_fract_y
_atom_site_fract_z
_atom_type_partial_charge
Zn0 Zn 0.91624 0.81256 0.17848 0.0
Zn1 Zn 0.06993 0.70059 0.25245 0.0
Zn2 Zn 0.98812 0.77573 0.19437 0.0
C3 C 0.09844 0.76015 0.1996 0.0
C4 C 0.00461 0.68595 0.15332 0.0
O5 O 0.94833 0.77797 0.27441 0.0
O6 O 0.88283 0.80496 0.2494 0.0
C7 C 0.98447 0.85904 0.14582 0.0
O8 O 0.05467 0.75874 0.2073 0.0
O9 O 0.1223 0.73446 0.22092 0.0
O10 O 0.03359 0.67546 0.19013 0.0
O11 O 0.98798 0.71928 0.15173 0.0
O12 O 0.9436 0.86157 0.16496 0.0
O13 O 0.00543 0.82782 0.14808 0.0
O14 O 0.94685 0.74023 0.1421 0.0
O15 O 0.89743 0.78243 0.11226 0.0
C16 C 0.91407 0.75026 0.10913 0.0
O17 O 0.01897 0.7757 0.27845 0.0
O18 O 0.03164 0.72134 0.31737 0.0
C19 C 0.90692 0.78909 0.28618 0.0
C20 C 0.0316 0.7563 0.32063 0.0
Zn21 Zn 0.51467 0.21449 0.27009 0.0
Zn22 Zn 0.42259 0.36555 0.19306 0.0
Zn23 Zn 0.49045 0.29095 0.19924 0.0
C24 C 0.4341 0.31944 0.1024 0.0
C25 C 0.5121 0.37815 0.16937 0.0
O26 O 0.54509 0.29793 0.26081 0.0
O27 O 0.5169 0.25949 0.32437 0.0
C28 C 0.46954 0.2084 0.16654 0.0
O29 O 0.47336 0.32027 0.12794 0.0
O30 O 0.40636 0.34537 0.11408 0.0
O31 O 0.4871 0.38797 0.20991 0.0
O32 O 0.50937 0.34405 0.15336 0.0
O33 O 0.45982 0.20131 0.21702 0.0
O34 O 0.49035 0.23877 0.15417 0.0
O35 O 0.54652 0.25679 0.20064 0.0
O36 O 0.57954 0.20703 0.2314 0.0
C37 C 0.58148 0.23571 0.20131 0.0
O38 O 0.43605 0.2877 0.25963 0.0
O39 O 0.39081 0.33734 0.25505 0.0
C40 C 0.54453 0.28581 0.31104 0.0
C41 C 0.40104 0.30633 0.27639 0.0
Zn42 Zn 0.95431 0.20875 0.72192 0.0
Zn43 Zn 0.03475 0.32185 0.74522 0.0
Zn44 Zn -0.00457 0.271 0.78763 0.0
C45 C 0.07481 0.29712 0.84419 0.0
C46 C 0.98766 0.35821 0.8212 0.0
O47 O 0.94441 0.28901 0.72672 0.0
O48 O 0.95915 0.2476 0.66137 0.0
C49 C 0.01392 0.18352 0.80775 0.0
O50 O 0.03085 0.29806 0.85248 0.0
O51 O 0.08932 0.30448 0.79573 0.0
O52 O -0.00294 0.36506 0.77078 0.0
O53 O 0.99068 0.32447 0.83843 0.0
O54 O 0.00766 0.17713 0.75626 0.0
O55 O 0.00095 0.21506 0.82746 0.0
O56 O 0.95393 0.23286 0.82666 0.0
O57 O 0.89659 0.22264 0.76933 0.0
C58 C 0.91068 0.23506 0.81565 0.0
O59 O 0.04773 0.25608 0.72503 0.0
O60 O 0.03823 0.30311 0.6681 0.0
C61 C 0.93924 0.27725 0.67666 0.0
C62 C 0.05541 0.27163 0.67798 0.0
Zn63 Zn 0.5144 0.84308 0.75674 0.0
Zn64 Zn 0.40791 0.75316 0.83143 0.0
Zn65 Zn 0.47892 0.78952 0.80172 0.0
C66 C 0.43421 0.80147 0.92202 0.0
C67 C 0.46783 0.70173 0.83934 0.0
O68 O 0.53925 0.77917 0.74244 0.0
O69 O 0.52186 0.82194 0.68117 0.0
C70 C 0.46555 0.87897 0.82732 0.0
O71 O 0.46439 0.81459 0.88651 0.0
O72 O 0.40795 0.77475 0.90796 0.0
O73 O 0.42461 0.70016 0.82917 0.0
O74 O 0.48959 0.73257 0.83386 0.0
O75 O 0.47154 0.88451 0.77592 0.0
O76 O 0.47203 0.84598 0.84743 0.0
O77 O 0.51282 0.82064 0.866 0.0
O78 O 0.57062 0.83226 0.81013 0.0
C79 C 0.55719 0.82329 0.85842 0.0
O80 O 0.42506 0.80039 0.73832 0.0
O81 O 0.36417 0.77247 0.77564 0.0
C82 C 0.54622 0.79422 0.69448 0.0
C83 C 0.38146 0.79186 0.73704 0.0
H84 H 0.03241 0.42397 0.81213 0.0
H85 H 0.03062 0.47668 0.87509 0.0
H86 H 0.93554 0.41777 0.98295 0.0
H87 H 0.93839 0.36372 0.92009 0.0
H88 H 0.90793 0.4925 0.95413 0.0
H89 H 0.0371 0.43037 0.03262 0.0
H90 H 0.11187 0.39705 0.03666 0.0
H91 H 0.18293 0.49066 0.96547 0.0
H92 H 0.10842 0.52442 0.96029 0.0
H93 H 0.93841 0.63278 0.16768 0.0
H94 H 0.92761 0.57661 0.11161 0.0
H95 H 0.0312 0.61633 0.9954 0.0
H96 H 0.04097 0.673 0.05086 0.0
H97 H 0.05149 0.54719 0.03762 0.0
H98 H 0.92038 0.60404 0.94524 0.0
H99 H 0.84454 0.63473 0.93366 0.0
H100 H 0.77783 0.55073 0.03258 0.0
H101 H 0.85343 0.51895 0.04348 0.0
C102 C 0.01094 0.42207 0.84916 0.0
C103 C 0.98498 0.38977 0.86072 0.0
C104 C 0.01032 0.45221 0.8854 0.0
C105 C 0.98317 0.4512 0.93387 0.0
C106 C 0.9569 0.41908 0.9458 0.0
C107 C 0.95846 0.38828 0.90994 0.0
C108 C 0.98127 0.48467 0.96992 0.0
C109 C 0.93908 0.50401 0.97363 0.0
C110 C 0.02218 0.50024 0.99401 0.0
C111 C 0.067 0.47979 0.99551 0.0
C112 C 0.06854 0.44371 0.01716 0.0
C113 C 0.11092 0.42478 0.01984 0.0
C114 C 0.15211 0.44169 1.00119 0.0
C115 C 0.15098 0.47758 0.97983 0.0
C116 C 0.10868 0.49664 0.97706 0.0
C117 C 0.95727 0.63016 0.12883 0.0
C118 C 0.98947 0.65763 0.11262 0.0
C119 C 0.95133 0.59797 0.09698 0.0
C120 C 0.97851 0.59217 0.04913 0.0
C121 C 0.00963 0.62023 0.03194 0.0
C122 C 0.0149 0.65274 0.06328 0.0
C123 C 0.9783 0.55544 0.02083 0.0
C124 C 0.02021 0.53547 0.01873 0.0
C125 C 0.93714 0.53921 0.99848 0.0
C126 C 0.89253 0.55947 0.99577 0.0
C127 C 0.88963 0.59239 0.9651 0.0
C128 C 0.84658 0.60978 0.95825 0.0
C129 C 0.80631 0.59481 0.98265 0.0
C130 C 0.80904 0.56232 0.01382 0.0
C131 C 0.85192 0.54449 0.02006 0.0
H132 H 0.77295 0.60826 0.97728 0.0
H133 H 0.1849 0.42701 1.00343 0.0
H134 H 0.49574 0.37945 0.05673 0.0
H135 H 0.4985 0.43386 0.99587 0.0
H136 H 0.55535 0.49907 0.13047 0.0
H137 H 0.55174 0.44497 0.19194 0.0
H138 H 0.44919 0.50785 0.04012 0.0
H139 H 0.62755 0.53362 0.07674 0.0
H140 H 0.70871 0.51062 0.07792 0.0
H141 H 0.68307 0.451 0.92603 0.0
H142 H 0.60176 0.47375 0.92419 0.0
H143 H 0.4649 0.69282 0.95023 0.0
H144 H 0.48221 0.63665 1.00306 0.0
H145 H 0.53131 0.58432 0.85294 0.0
H146 H 0.51362 0.64081 0.79986 0.0
H147 H 0.5854 0.56628 0.94613 0.0
H148 H 0.4224 0.57008 0.89536 0.0
H149 H 0.34344 0.59679 0.89045 0.0
H150 H 0.33535 0.59749 0.06892 0.0
H151 H 0.41468 0.57149 0.07497 0.0
C152 C 0.51016 0.40503 0.07296 0.0
C153 C 0.52423 0.40777 0.12905 0.0
C154 C 0.51139 0.43619 0.03819 0.0
C155 C 0.52752 0.4704 0.05854 0.0
C156 C 0.54341 0.47282 0.11373 0.0
C157 C 0.54152 0.44188 0.14872 0.0
C158 C 0.52305 0.50436 0.02433 0.0
C159 C 0.47894 0.52078 0.01972 0.0
C160 C 0.56163 0.52096 0.99733 0.0
C161 C 0.60885 0.50507 1.00057 0.0
C162 C 0.63926 0.51536 0.04393 0.0
C163 C 0.68529 0.50259 0.04451 0.0
C164 C 0.70116 0.47961 1.00182 0.0
C165 C 0.67083 0.46898 0.95885 0.0
C166 C 0.62478 0.48172 0.9581 0.0
C167 C 0.48059 0.66962 0.92889 0.0
C168 C 0.48838 0.67106 0.87121 0.0
C169 C 0.49007 0.63746 0.95896 0.0
C170 C 0.5073 0.60601 0.93183 0.0
C171 C 0.51782 0.60819 0.87469 0.0
C172 C 0.50796 0.64042 0.84443 0.0
C173 C 0.51152 0.57038 0.96245 0.0
C174 C 0.55547 0.55352 0.96636 0.0
C175 C 0.47258 0.55354 0.98923 0.0
C176 C 0.42479 0.5692 0.9856 0.0
C177 C 0.40401 0.57627 0.93358 0.0
C178 C 0.35914 0.59124 0.9306 0.0
C179 C 0.33445 0.59893 0.97934 0.0
C180 C 0.35455 0.5916 0.03119 0.0
C181 C 0.39949 0.57675 0.03441 0.0
H182 H 0.29969 0.61048 0.97693 0.0
H183 H 0.73682 0.46979 1.00232 0.0
H184 H 0.53565 0.90478 0.89285 0.0
H185 H 0.53632 0.96022 0.95133 0.0
H186 H 0.39296 0.98138 0.90497 0.0
H187 H 0.39346 0.92685 0.84397 0.0
H188 H 0.4363 0.04166 0.9004 0.0
H189 H 0.43255 0.94872 0.0422 0.0
H190 H 0.45803 0.89299 0.09289 0.0
H191 H 0.59081 0.94461 0.12679 0.0
H192 H 0.5666 1.0 0.07464 0.0
H193 H 0.39327 0.17137 0.12524 0.0
H194 H 0.39281 0.11631 0.06509 0.0
H195 H 0.54361 0.11792 0.06271 0.0
H196 H 0.54397 0.17419 0.12012 0.0
H197 H 0.49774 0.04694 0.09341 0.0
H198 H 0.49663 0.14213 0.95571 0.0
H199 H 0.46847 0.19686 0.90528 0.0
H200 H 0.341 0.13946 0.86442 0.0
H201 H 0.36688 0.08531 0.91771 0.0
C202 C 0.50432 0.92134 0.89539 0.0
C203 C 0.46444 0.91167 0.86414 0.0
C204 C 0.50449 0.95284 0.92936 0.0
C205 C 0.46442 0.97498 0.93374 0.0
C206 C 0.4244 0.96496 0.90258 0.0
C207 C 0.42456 0.93382 0.86771 0.0
C208 C 0.46505 1.00977 0.96776 0.0
C209 C 0.44885 0.04246 0.94303 0.0
C210 C 0.48298 1.01155 0.02293 0.0
C211 C 0.49798 0.97813 0.05362 0.0
C212 C 0.46743 0.9478 0.05959 0.0
C213 C 0.48162 0.91636 0.08865 0.0
C214 C 0.52605 0.91522 0.11287 0.0
C215 C 0.55644 0.94548 0.10788 0.0
C216 C 0.54254 0.97685 0.07842 0.0
C217 C 0.42618 0.1605 0.11061 0.0
C218 C 0.4686 0.17743 0.12624 0.0
C219 C 0.42593 0.12893 0.07664 0.0
C220 C 0.46819 0.11299 0.0594 0.0
C221 C 0.51062 0.12981 0.07533 0.0
C222 C 0.51079 0.16205 0.10774 0.0
C223 C 0.46812 0.0782 0.02616 0.0
C224 C 0.48474 0.04576 0.05096 0.0
C225 C 0.45003 0.0765 0.97137 0.0
C226 C 0.43336 0.10987 0.94181 0.0
C227 C 0.46199 0.14154 0.93742 0.0
C228 C 0.44637 0.17252 0.90831 0.0
C229 C 0.40258 0.1719 0.88241 0.0
C230 C 0.37437 0.14028 0.88555 0.0
C231 C 0.38941 0.10949 0.91543 0.0
H232 H 0.3907 0.19578 0.85943 0.0
H233 H 0.53686 0.89095 0.13566 0.0
H234 H 0.04181 0.86427 0.05309 0.0
H235 H 0.05716 0.92092 0.99859 0.0
H236 H 0.98622 0.98548 0.12271 0.0
H237 H 0.96997 0.92974 0.17594 0.0
H238 H 0.95194 1.00123 0.02761 0.0
H239 H 0.10638 0.98947 0.09834 0.0
H240 H 0.18298 0.96162 0.11819 0.0
H241 H 0.21033 0.95262 0.94308 0.0
H242 H 0.13328 0.97955 0.92201 0.0
H243 H 0.00388 0.18114 0.92141 0.0
H244 H 0.00752 0.12665 0.98173 0.0
H245 H 0.05018 0.06021 0.84208 0.0
H246 H 0.04553 0.11432 0.78115 0.0
H247 H 0.10029 0.04538 0.94337 0.0
H248 H 0.94216 0.05712 0.87628 0.0
H249 H 0.86419 0.08389 0.86086 0.0
H250 H 0.84486 0.09462 0.0373 0.0
H251 H 0.92312 0.06858 0.05384 0.0
C252 C 0.03074 0.89071 0.06934 0.0
C253 C 0.00454 0.89251 0.11875 0.0
C254 C 0.03939 0.92302 0.03812 0.0
C255 C 0.02267 0.95753 0.05619 0.0
C256 C -0.00085 0.95933 0.1073 0.0
C257 C 0.99015 0.92735 0.13798 0.0
C258 C 0.02591 0.99136 0.02049 0.0
C259 C 0.98468 1.01117 0.01015 0.0
C260 C 0.06825 1.00398 0.99615 0.0
C261 C 0.11379 0.98632 0.00857 0.0
C262 C 0.12838 0.98109 0.06399 0.0
C263 C 0.17196 0.96558 0.07548 0.0
C264 C 0.20161 0.95566 0.03192 0.0
C265 C 0.18741 0.96058 0.97676 0.0
C266 C 0.14373 0.97587 0.96502 0.0
C267 C 0.01453 0.15505 0.90353 0.0
C268 C 0.02367 0.15206 0.84609 0.0
C269 C 0.01644 0.12386 0.93812 0.0
C270 C 0.02839 0.08917 0.91628 0.0
C271 C 0.04046 0.08659 0.85978 0.0
C272 C 0.0378 0.11761 0.82499 0.0
C273 C 0.02653 0.05533 0.95168 0.0
C274 C 0.06781 0.03547 0.96147 0.0
C275 C 0.98435 0.04289 0.97642 0.0
C276 C 0.93881 0.06121 0.96627 0.0
C277 C 0.92169 0.06577 0.91179 0.0
C278 C 0.87726 0.08056 0.90286 0.0
C279 C 0.84942 0.09057 0.94809 0.0
C280 C 0.86631 0.08655 1.00233 0.0
C281 C 0.91075 0.07189 0.01148 0.0
H282 H 0.81489 0.10171 0.94111 0.0
H283 H 0.23564 0.94425 0.04096 0.0
H284 H 0.28712 0.79525 0.7392 0.0
H285 H 0.23366 0.79734 0.6606 0.0
H286 H 0.34993 0.81119 0.54837 0.0
H287 H 0.40468 0.80861 0.62793 0.0
H288 H 0.25952 0.85575 0.52619 0.0
H289 H 0.31662 0.7325 0.55033 0.0
H290 H 0.33812 0.67759 0.60511 0.0
H291 H 0.19632 0.66633 0.66168 0.0
H292 H 0.17417 0.72164 0.60809 0.0
H293 H 0.10529 0.80258 0.30205 0.0
H294 H 0.17005 0.81531 0.36554 0.0
H295 H 0.09481 0.7602 0.49782 0.0
H296 H 0.03196 0.74449 0.43241 0.0
H297 H 0.17576 0.73634 0.50001 0.0
H298 H 0.11938 0.86218 0.48311 0.0
H299 H 0.0974 0.91817 0.43101 0.0
H300 H 0.23595 0.92564 0.36285 0.0
H301 H 0.25852 0.86941 0.41395 0.0
C302 C 0.30159 0.79941 0.698 0.0
C303 C 0.3503 0.80134 0.68978 0.0
C304 C 0.27083 0.80063 0.65308 0.0
C305 C 0.28781 0.80394 0.59869 0.0
C306 C 0.33619 0.80858 0.59019 0.0
C307 C 0.36738 0.80722 0.63558 0.0
C308 C 0.25454 0.79895 0.55165 0.0
C309 C 0.24166 0.82954 0.51955 0.0
C310 C 0.23077 0.76492 0.54381 0.0
C311 C 0.24384 0.73137 0.57553 0.0
C312 C 0.29012 0.7185 0.57483 0.0
C313 C 0.30241 0.68728 0.60562 0.0
C314 C 0.26862 0.66851 0.63693 0.0
C315 C 0.22246 0.6809 0.63743 0.0
C316 C 0.21001 0.71217 0.60683 0.0
C317 C 0.10205 0.79407 0.34507 0.0
C318 C 0.06331 0.77291 0.36255 0.0
C319 C 0.13924 0.80143 0.38159 0.0
C320 C 0.13762 0.78914 0.43714 0.0
C321 C 0.0974 0.76989 0.45527 0.0
C322 C 0.06106 0.76134 0.41817 0.0
C323 C 0.17875 0.79365 0.47541 0.0
C324 C 0.19344 0.7627 0.50593 0.0
C325 C 0.20389 0.82744 0.48183 0.0
C326 C 0.19047 0.86149 0.45193 0.0
C327 C 0.14506 0.8757 0.4568 0.0
C328 C 0.13251 0.90746 0.42745 0.0
C329 C 0.16523 0.92541 0.39355 0.0
C330 C 0.21062 0.9117 0.38906 0.0
C331 C 0.22332 0.87991 0.41823 0.0
H332 H 0.15543 0.94998 0.37084 0.0
H333 H 0.2782 0.64433 0.66073 0.0
H334 H 0.05463 0.27857 0.56608 0.0
H335 H 0.12024 0.26859 0.50321 0.0
H336 H 0.20172 0.22483 0.63909 0.0
H337 H 0.13555 0.23469 0.70253 0.0
H338 H 0.24641 0.28284 0.57973 0.0
H339 H 0.17285 0.16741 0.54027 0.0
H340 H 0.10512 0.12685 0.52065 0.0
H341 H 0.08022 0.18456 0.36741 0.0
H342 H 0.14738 0.2259 0.38656 0.0
H343 H 0.42279 0.26098 0.36414 0.0
H344 H 0.3693 0.23981 0.43809 0.0
H345 H 0.25501 0.29522 0.35675 0.0
H346 H 0.30835 0.31786 0.28516 0.0
H347 H 0.23716 0.2178 0.39788 0.0
H348 H 0.29352 0.34042 0.44843 0.0
H349 H 0.3562 0.38606 0.46663 0.0
H350 H 0.40974 0.31787 0.59801 0.0
H351 H 0.34775 0.27141 0.57973 0.0
C352 C 0.08604 0.26578 0.58216 0.0
C353 C 0.09006 0.25709 0.63884 0.0
C354 C 0.12351 0.26018 0.54632 0.0
C355 C 0.16576 0.24594 0.56658 0.0
C356 C 0.16929 0.23574 0.62279 0.0
C357 C 0.13139 0.24093 0.65869 0.0
C358 C 0.20671 0.24454 0.52915 0.0
C359 C 0.2452 0.26763 0.54079 0.0
C360 C 0.20446 0.22541 0.47786 0.0
C361 C 0.16517 0.19976 0.46489 0.0
C362 C 0.15289 0.17149 0.50241 0.0
C363 C 0.11456 0.14839 0.49142 0.0
C364 C 0.08838 0.15312 0.4428 0.0
C365 C 0.10059 0.1809 0.405 0.0
C366 C 0.13886 0.20412 0.41584 0.0
C367 C 0.38618 0.26829 0.36203 0.0
C368 C 0.36953 0.29106 0.31911 0.0
C369 C 0.35578 0.25618 0.40402 0.0
C370 C 0.30833 0.26583 0.40238 0.0
C371 C 0.29146 0.28727 0.35834 0.0
C372 C 0.32194 0.30026 0.31763 0.0
C373 C 0.27636 0.2563 0.44836 0.0
C374 C 0.23933 0.23162 0.43791 0.0
C375 C 0.27971 0.27419 0.50053 0.0
C376 C 0.31656 0.3022 0.51212 0.0
C377 C 0.31899 0.33496 0.48076 0.0
C378 C 0.35431 0.36101 0.49115 0.0
C379 C 0.38708 0.35479 0.53329 0.0
C380 C 0.38444 0.32257 0.56525 0.0
C381 C 0.34924 0.29636 0.55487 0.0
H382 H 0.4144 0.37499 0.5413 0.0
H383 H 0.05864 0.13526 0.43442 0.0
H384 H 0.85598 0.30743 0.70819 0.0
H385 H 0.7872 0.31704 0.64875 0.0
H386 H 0.86792 0.28713 0.50432 0.0
H387 H 0.93646 0.27711 0.56351 0.0
H388 H 0.80718 0.3464 0.48481 0.0
H389 H 0.80381 0.22415 0.56496 0.0
H390 H 0.80435 0.17986 0.6429 0.0
H391 H 0.67812 0.22712 0.70705 0.0
H392 H 0.67736 0.27222 0.63004 0.0
H393 H 0.63699 0.29453 0.28658 0.0
H394 H 0.70239 0.29993 0.35064 0.0
H395 H 0.60635 0.30174 0.48907 0.0
H396 H 0.54059 0.29392 0.42414 0.0
H397 H 0.67306 0.2613 0.5172 0.0
H398 H 0.67308 0.38191 0.43555 0.0
H399 H 0.67296 0.42755 0.35935 0.0
H400 H 0.80431 0.38616 0.30064 0.0
H401 H 0.80484 0.33987 0.37594 0.0
C402 C 0.85944 0.30408 0.66356 0.0
C403 C 0.9017 0.29175 0.64039 0.0
C404 C 0.81997 0.30916 0.62972 0.0
C405 C 0.82225 0.30238 0.57213 0.0
C406 C 0.86528 0.29248 0.54859 0.0
C407 C 0.90447 0.28687 0.58242 0.0
C408 C 0.77945 0.30317 0.53669 0.0
C409 C 0.77787 0.32772 0.49165 0.0
C410 C 0.74078 0.27933 0.54634 0.0
C411 C 0.74088 0.25188 0.59216 0.0
C412 C 0.77641 0.22533 0.59597 0.0
C413 C 0.77673 0.20005 0.63995 0.0
C414 C 0.74139 0.20076 0.68003 0.0
C415 C 0.70555 0.22667 0.67607 0.0
C416 C 0.70517 0.2521 0.63228 0.0
C417 C 0.62958 0.29714 0.33034 0.0
C418 C 0.58342 0.29485 0.34995 0.0
C419 C 0.66725 0.30019 0.36736 0.0
C420 C 0.65977 0.30232 0.42514 0.0
C421 C 0.61343 0.30044 0.44484 0.0
C422 C 0.57575 0.29633 0.4077 0.0
C423 C 0.70032 0.30477 0.46477 0.0
C424 C 0.70178 0.28055 0.51054 0.0
C425 C 0.73877 0.32921 0.45607 0.0
C426 C 0.7388 0.35728 0.41115 0.0
C427 C 0.7018 0.38243 0.4062 0.0
C428 C 0.70167 0.4084 0.36317 0.0
C429 C 0.73856 0.40971 0.32512 0.0
C430 C 0.77574 0.3851 0.33011 0.0
C431 C 0.77599 0.35901 0.37298 0.0
H432 H 0.73837 0.42984 0.29182 0.0
H433 H 0.7417 0.18117 0.71405 0.0
H434 H 0.88261 0.7238 0.33652 0.0
H435 H 0.82714 0.71612 0.41417 0.0
H436 H 0.82181 0.83451 0.43371 0.0
H437 H 0.8764 0.84202 0.35614 0.0
H438 H 0.82198 0.80238 0.53358 0.0
H439 H 0.73505 0.78972 0.36433 0.0
H440 H 0.70858 0.76519 0.27367 0.0
H441 H 0.68741 0.65803 0.3465 0.0
H442 H 0.71374 0.68198 0.43771 0.0
H443 H 0.59513 0.84328 0.63222 0.0
H444 H 0.66425 0.83351 0.5754 0.0
H445 H 0.66291 0.71805 0.61851 0.0
H446 H 0.59385 0.72802 0.67873 0.0
H447 H 0.67076 0.73893 0.49568 0.0
H448 H 0.75026 0.75957 0.67086 0.0
H449 H 0.76699 0.79204 0.75932 0.0
H450 H 0.79597 0.89219 0.66961 0.0
H451 H 0.77923 0.86036 0.58079 0.0
C452 C 0.87082 0.74802 0.35885 0.0
C453 C 0.88474 0.78349 0.34129 0.0
C454 C 0.8385 0.74368 0.40261 0.0
C455 C 0.81974 0.77475 0.42978 0.0
C456 C 0.83566 0.81004 0.41384 0.0
C457 C 0.86724 0.81435 0.36976 0.0
C458 C 0.78232 0.77112 0.47325 0.0
C459 C 0.78902 0.78837 0.52513 0.0
C460 C 0.73916 0.75264 0.46304 0.0
C461 C 0.72697 0.73748 0.40758 0.0
C462 C 0.72545 0.76078 0.36081 0.0
C463 C 0.71011 0.74707 0.30945 0.0
C464 C 0.69626 0.71009 0.30438 0.0
C465 C 0.69813 0.68666 0.35052 0.0
C466 C 0.71318 0.7003 0.40206 0.0
C467 C 0.60934 0.81565 0.63005 0.0
C468 C 0.58843 0.78631 0.65988 0.0
C469 C 0.64926 0.81023 0.59765 0.0
C470 C 0.66923 0.77514 0.593 0.0
C471 C 0.6484 0.74548 0.62208 0.0
C472 C 0.60887 0.75114 0.65622 0.0
C473 C 0.71059 0.77011 0.5557 0.0
C474 C 0.70438 0.75177 0.50468 0.0
C475 C 0.7538 0.78828 0.56612 0.0
C476 C 0.763 0.80769 0.61938 0.0
C477 C 0.75968 0.78862 0.67017 0.0
C478 C 0.76932 0.80686 0.7203 0.0
C479 C 0.78228 0.84418 0.72009 0.0
C480 C 0.78582 0.86331 0.66973 0.0
C481 C 0.77637 0.84516 0.6195 0.0
H482 H 0.78974 0.85824 0.75893 0.0
H483 H 0.68394 0.69961 0.26473 0.0
H484 H 0.44129 0.8753 0.94624 0.0
H485 H 0.38014 0.90793 0.99701 0.0
H486 H 0.33952 0.80515 0.07389 0.0
H487 H 0.39554 0.77236 0.01613 0.0
H488 H 0.28412 0.86739 0.96959 0.0
H489 H 0.31085 0.84113 0.20677 0.0
H490 H 0.37015 0.85509 0.27867 0.0
H491 H 0.4201 0.9472 0.18242 0.0
H492 H 0.36125 0.93366 0.10978 0.0
H493 H 0.15575 0.74625 0.11416 0.0
H494 H 0.2045 0.7903 0.06383 0.0
H495 H 0.14247 0.88027 0.15503 0.0
H496 H 0.09223 0.83557 0.20507 0.0
H497 H 0.23952 0.87404 0.16853 0.0
H498 H 0.13653 0.88667 0.01882 0.0
H499 H 0.0788 0.86934 0.94644 0.0
H500 H 0.1803 0.801 0.86645 0.0
H501 H 0.23819 0.81671 0.9386 0.0
C502 C 0.41974 0.86005 0.97404 0.0
C503 C 0.42086 0.82139 0.97362 0.0
C504 C 0.3855 0.87876 0.00432 0.0
C505 C 0.35517 0.85893 0.03899 0.0
C506 C 0.36274 0.82104 0.0473 0.0
C507 C 0.39497 0.80228 0.01434 0.0
C508 C 0.30874 0.87356 0.05362 0.0
C509 C 0.27384 0.86972 0.01288 0.0
C510 C 0.29589 0.87867 0.1096 0.0
C511 C 0.33166 0.88637 0.15287 0.0
C512 C 0.33439 0.86442 0.20101 0.0
C513 C 0.36804 0.87217 0.2418 0.0
C514 C 0.39893 0.90196 0.23506 0.0
C515 C 0.39628 0.92403 0.18748 0.0
C516 C 0.36297 0.91621 0.14634 0.0
C517 C 0.1515 0.77551 0.1222 0.0
C518 C 0.12071 0.7877 0.1634 0.0
C519 C 0.17895 0.80073 0.09307 0.0
C520 C 0.17681 0.83861 0.10533 0.0
C521 C 0.14419 0.85118 0.14457 0.0
C522 C 0.11572 0.82576 0.17307 0.0
C523 C 0.21543 0.86243 0.08517 0.0
C524 C 0.24889 0.87361 0.1248 0.0
C525 C 0.22707 0.86321 0.02794 0.0
C526 C 0.19209 0.85334 0.98417 0.0
C527 C 0.14658 0.86785 0.98595 0.0
C528 C 0.11378 0.8583 0.94496 0.0
C529 C 0.12599 0.83437 0.90186 0.0
C530 C 0.17096 0.81973 0.89971 0.0
C531 C 0.20384 0.82902 0.94063 0.0
H532 H 0.10052 0.82707 0.87022 0.0
H533 H 0.42488 0.90798 0.26674 0.0
H534 H 0.16578 0.27879 0.8302 0.0
H535 H 0.21602 0.24644 0.89504 0.0
H536 H 0.10406 0.24177 0.01523 0.0
H537 H 0.05292 0.2744 0.9498 0.0
H538 H 0.18166 0.27312 0.05561 0.0
H539 H 0.15184 0.15677 0.98454 0.0
H540 H 0.13045 0.11018 0.91398 0.0
H541 H 0.25783 0.13271 0.82552 0.0
H542 H 0.27978 0.1799 0.89549 0.0
H543 H 0.39339 0.27185 0.17407 0.0
H544 H 0.32898 0.23037 0.15147 0.0
H545 H 0.35401 0.24895 0.9767 0.0
H546 H 0.4195 0.29019 0.99989 0.0
H547 H 0.30136 0.18205 0.9983 0.0
H548 H 0.3022 0.31556 0.04565 0.0
H549 H 0.31433 0.36985 0.1064 0.0
H550 H 0.23128 0.31847 0.23395 0.0
H551 H 0.21952 0.26359 0.17424 0.0
C552 C 0.15168 0.2709 0.87035 0.0
C553 C 0.10578 0.27981 0.88538 0.0
C554 C 0.18009 0.25155 0.90691 0.0
C555 C 0.16332 0.24077 0.95937 0.0
C556 C 0.11727 0.24922 0.97448 0.0
C557 C 0.08851 0.26841 0.93752 0.0
C558 C 0.19752 0.22791 1.00095 0.0
C559 C 0.20679 0.25187 0.04519 0.0
C560 C 0.23 0.20014 0.98741 0.0
C561 C 0.21786 0.17141 0.94568 0.0
C562 C 0.1754 0.15171 0.95013 0.0
C563 C 0.16309 0.12525 0.91021 0.0
C564 C 0.19287 0.11832 0.86544 0.0
C565 C 0.23502 0.13789 0.86052 0.0
C566 C 0.24755 0.16434 0.90047 0.0
C567 C 0.38723 0.2652 0.13104 0.0
C568 C 0.41125 0.28416 0.08884 0.0
C569 C 0.35026 0.24144 0.11803 0.0
C570 C 0.3361 0.23731 0.06253 0.0
C571 C 0.36442 0.25183 0.01991 0.0
C572 C 0.40171 0.27553 0.03309 0.0
C573 C 0.2865 0.22926 0.04994 0.0
C574 C 0.27482 0.20141 0.01154 0.0
C575 C 0.25125 0.25356 0.06895 0.0
C576 C 0.26107 0.28522 0.10624 0.0
C577 C 0.28739 0.3156 0.08712 0.0
C578 C 0.29408 0.34648 0.12127 0.0
C579 C 0.27414 0.34741 0.1743 0.0
C580 C 0.24723 0.31753 0.19315 0.0
C581 C 0.24071 0.28647 0.15931 0.0
H582 H 0.27924 0.37139 0.20063 0.0
H583 H 0.1832 0.09789 0.83447 0.0
H584 H 0.62071 0.3035 0.19617 0.0
H585 H 0.68824 0.3227 0.14269 0.0
H586 H 0.69311 0.21398 0.06771 0.0
H587 H 0.63143 0.19291 0.13052 0.0
H588 H 0.77284 0.23287 0.07779 0.0
H589 H 0.64132 0.31613 0.99219 0.0
H590 H 0.58465 0.36694 1.00341 0.0
H591 H 0.68589 0.42904 0.09802 0.0
H592 H 0.74362 0.37953 0.08493 0.0
H593 H 0.81786 0.25091 0.80194 0.0
H594 H 0.76838 0.28197 0.87012 0.0
H595 H 0.89001 0.30933 0.96867 0.0
H596 H 0.93935 0.27762 0.90247 0.0
H597 H 0.76157 0.34551 0.96048 0.0
H598 H 0.88537 0.24782 0.05766 0.0
H599 H 0.94123 0.19939 0.02939 0.0
H600 H 0.84701 0.16401 0.90005 0.0
H601 H 0.79004 0.21086 0.92931 0.0
C602 C 0.6378 0.28329 0.1702 0.0
C603 C 0.62259 0.24631 0.16912 0.0
C604 C 0.67533 0.29477 0.13774 0.0
C605 C 0.69533 0.27036 0.09948 0.0
C606 C 0.67897 0.23345 0.0974 0.0
C607 C 0.64368 0.22127 0.13305 0.0
C608 C 0.73325 0.28235 0.0614 0.0
C609 C 0.77013 0.25773 0.05278 0.0
C610 C 0.73149 0.31536 0.02941 0.0
C611 C 0.6963 0.34421 0.03814 0.0
C612 C 0.65126 0.34068 0.01535 0.0
C613 C 0.61918 0.36934 0.02166 0.0
C614 C 0.63188 0.40122 0.05116 0.0
C615 C 0.67637 0.4045 0.07471 0.0
C616 C 0.70886 0.3764 0.06738 0.0
C617 C 0.83412 0.26451 0.8373 0.0
C618 C 0.8819 0.26021 0.84864 0.0
C619 C 0.80603 0.28313 0.87534 0.0
C620 C 0.82579 0.29706 0.92467 0.0
C621 C 0.87438 0.29853 0.93078 0.0
C622 C 0.90232 0.27955 0.89346 0.0
C623 C 0.79764 0.29462 0.97531 0.0
C624 C 0.76388 0.32112 0.98659 0.0
C625 C 0.80136 0.26296 0.00929 0.0
C626 C 0.83373 0.23269 0.99552 0.0
C627 C 0.87641 0.22917 0.02391 0.0
C628 C 0.90818 0.202 0.00776 0.0
C629 C 0.89751 0.17847 0.96324 0.0
C630 C 0.85501 0.18186 0.935 0.0
C631 C 0.82287 0.20848 0.95159 0.0
H632 H 0.92202 0.15749 0.95068 0.0
H633 H 0.60764 0.42367 0.05536 0.0
H634 H 0.89605 0.76185 1.00071 0.0
H635 H 0.83083 0.73363 0.9514 0.0
H636 H 0.81733 0.65153 0.08071 0.0
H637 H 0.88151 0.68127 0.13181 0.0
H638 H 0.77693 0.67298 0.91779 0.0
H639 H 0.7318 0.66127 0.12885 0.0
H640 H 0.7647 0.67202 0.22277 0.0
H641 H 0.80567 0.78205 0.17559 0.0
H642 H 0.77407 0.77149 0.08103 0.0
H643 H 0.56753 0.75142 0.8392 0.0
H644 H 0.61244 0.70667 0.8911 0.0
H645 H 0.67142 0.79578 0.98939 0.0
H646 H 0.61735 0.83935 0.94477 0.0
H647 H 0.67275 0.73866 0.04919 0.0
H648 H 0.71211 0.75748 0.84926 0.0
H649 H 0.69308 0.75168 0.74928 0.0
H650 H 0.67595 0.63438 0.76771 0.0
H651 H 0.69264 0.63967 0.86826 0.0
C652 C 0.88067 0.73666 0.01715 0.0
C653 C 0.8925 0.72414 0.07038 0.0
C654 C 0.84364 0.72023 0.98873 0.0
C655 C 0.81782 0.69173 0.01408 0.0
C656 C 0.83595 0.67439 0.06163 0.0
C657 C 0.87293 0.69112 0.09052 0.0
C658 C 0.76716 0.69095 1.0022 0.0
C659 C 0.75305 0.68573 0.94697 0.0
C660 C 0.73621 0.70796 0.04021 0.0
C661 C 0.75041 0.71569 0.09833 0.0
C662 C 0.74727 0.68789 0.13891 0.0
C663 C 0.76616 0.69381 0.19196 0.0
C664 C 0.78734 0.72768 0.20511 0.0
C665 C 0.7893 0.75583 0.16536 0.0
C666 C 0.77099 0.74989 0.11204 0.0
C667 C 0.58708 0.76084 0.8748 0.0
C668 C 0.58717 0.79822 0.88993 0.0
C669 C 0.61432 0.73549 0.90319 0.0
C670 C 0.64661 0.7478 0.94306 0.0
C671 C 0.64673 0.78544 0.95873 0.0
C672 C 0.61652 0.81047 0.93285 0.0
C673 C 0.68378 0.72286 0.96362 0.0
C674 C 0.69475 0.72347 0.02055 0.0
C675 C 0.71213 0.70192 0.92682 0.0
C676 C 0.70304 0.69902 0.86624 0.0
C677 C 0.70412 0.7305 0.83195 0.0
C678 C 0.69371 0.7273 0.77524 0.0
C679 C 0.68374 0.69266 0.75213 0.0
C680 C 0.68371 0.66117 0.7857 0.0
C681 C 0.69333 0.66427 0.84257 0.0
H682 H 0.67602 0.69012 0.70824 0.0
H683 H 0.80213 0.73215 0.24612 0.0
loop_
_geom_bond_atom_site_label_1
_geom_bond_atom_site_label_2
_geom_bond_distance
_geom_bond_site_symmetry_2
_ccdc_geom_bond_type
Zn0 O6 1.920 . S
Zn0 O12 1.898 . S
Zn0 O15 1.905 . S
Zn1 O9 1.905 . S
Zn1 O10 1.898 . S
Zn1 O18 1.920 . S
Zn2 O5 2.080 1_455 S
Zn2 O8 2.114 . S
Zn2 O11 2.120 1_455 S
Zn2 O13 2.120 . S
Zn2 O14 2.114 1_455 S
Zn2 O17 2.080 . S
C3 O8 1.166 . S
C3 O9 1.182 . S
C4 O10 1.167 . S
C4 O11 1.299 1_455 S
O5 Zn2 2.080 1_655 S
O5 C19 1.305 . S
O6 Zn0 1.920 . S
O6 C19 1.234 . S
C7 O12 1.167 . S
C7 O13 1.299 1_655 S
O8 Zn2 2.114 . S
O8 C3 1.166 . S
O9 Zn1 1.905 . S
O9 C3 1.182 . S
O10 Zn1 1.898 . S
O10 C4 1.167 . S
O11 Zn2 2.120 1_655 S
O11 C4 1.299 1_655 S
O12 Zn0 1.898 . S
O12 C7 1.167 . S
O13 Zn2 2.120 . S
O13 C7 1.299 1_455 S
O14 Zn2 2.114 1_655 S
O14 C16 1.166 . S
O15 Zn0 1.905 . S
O15 C16 1.182 . S
C16 O14 1.166 . S
C16 O15 1.182 . S
O17 Zn2 2.080 . S
O17 C20 1.305 . S
O18 Zn1 1.920 . S
O18 C20 1.234 . S
C19 O5 1.305 . S
C19 O6 1.234 . S
C20 O17 1.305 . S
C20 O18 1.234 . S
Zn21 O27 1.920 . S
Zn21 O33 1.898 . S
Zn21 O36 1.905 . S
Zn22 O30 1.905 . S
Zn22 O31 1.898 . S
Zn22 O39 1.920 . S
Zn23 O26 2.080 . S
Zn23 O29 2.114 . S
Zn23 O32 2.120 . S
Zn23 O34 2.120 . S
Zn23 O35 2.114 . S
Zn23 O38 2.080 . S
C24 O29 1.166 . S
C24 O30 1.182 . S
C25 O31 1.167 . S
C25 O32 1.299 . S
O26 Zn23 2.080 . S
O26 C40 1.305 . S
O27 Zn21 1.920 . S
O27 C40 1.234 . S
C28 O33 1.167 . S
C28 O34 1.299 . S
O29 Zn23 2.114 . S
O29 C24 1.166 . S
O30 Zn22 1.905 . S
O30 C24 1.182 . S
O31 Zn22 1.898 . S
O31 C25 1.167 . S
O32 Zn23 2.120 . S
O32 C25 1.299 . S
O33 Zn21 1.898 . S
O33 C28 1.167 . S
O34 Zn23 2.120 . S
O34 C28 1.299 . S
O35 Zn23 2.114 . S
O35 C37 1.166 . S
O36 Zn21 1.905 . S
O36 C37 1.182 . S
C37 O35 1.166 . S
C37 O36 1.182 . S
O38 Zn23 2.080 . S
O38 C41 1.305 . S
O39 Zn22 1.920 . S
O39 C41 1.234 . S
C40 O26 1.305 . S
C40 O27 1.234 . S
C41 O38 1.305 . S
C41 O39 1.234 . S
Zn42 O48 1.920 . S
Zn42 O54 1.898 . S
Zn42 O57 1.905 . S
Zn43 O51 1.905 . S
Zn43 O52 1.898 . S
Zn43 O60 1.920 . S
Zn44 O47 2.080 1_455 S
Zn44 O50 2.114 . S
Zn44 O53 2.120 1_455 S
Zn44 O55 2.120 . S
Zn44 O56 2.114 1_455 S
Zn44 O59 2.080 . S
C45 O50 1.166 . S
C45 O51 1.182 . S
C46 O52 1.167 . S
C46 O53 1.299 1_455 S
O47 Zn44 2.080 1_655 S
O47 C61 1.305 . S
O48 Zn42 1.920 . S
O48 C61 1.234 . S
C49 O54 1.167 . S
C49 O55 1.299 1_655 S
O50 Zn44 2.114 . S
O50 C45 1.166 . S
O51 Zn43 1.905 . S
O51 C45 1.182 . S
O52 Zn43 1.898 . S
O52 C46 1.167 . S
O53 Zn44 2.120 1_655 S
O53 C46 1.299 1_655 S
O54 Zn42 1.898 . S
O54 C49 1.167 . S
O55 Zn44 2.120 . S
O55 C49 1.299 1_455 S
O56 Zn44 2.114 1_655 S
O56 C58 1.166 . S
O57 Zn42 1.905 . S
O57 C58 1.182 . S
C58 O56 1.166 . S
C58 O57 1.182 . S
O59 Zn44 2.080 . S
O59 C62 1.305 . S
O60 Zn43 1.920 . S
O60 C62 1.234 . S
C61 O47 1.305 . S
C61 O48 1.234 . S
C62 O59 1.305 . S
C62 O60 1.234 . S
Zn63 O69 1.920 . S
Zn63 O75 1.898 . S
Zn63 O78 1.905 . S
Zn64 O72 1.905 . S
Zn64 O73 1.898 . S
Zn64 O81 1.920 . S
Zn65 O68 2.080 . S
Zn65 O71 2.114 . S
Zn65 O74 2.120 . S
Zn65 O76 2.120 . S
Zn65 O77 2.114 . S
Zn65 O80 2.080 . S
C66 O71 1.166 . S
C66 O72 1.182 . S
C67 O73 1.167 . S
C67 O74 1.299 . S
O68 Zn65 2.080 . S
O68 C82 1.305 . S
O69 Zn63 1.920 . S
O69 C82 1.234 . S
C70 O75 1.167 . S
C70 O76 1.299 . S
O71 Zn65 2.114 . S
O71 C66 1.166 . S
O72 Zn64 1.905 . S
O72 C66 1.182 . S
O73 Zn64 1.898 . S
O73 C67 1.167 . S
O74 Zn65 2.120 . S
O74 C67 1.299 . S
O75 Zn63 1.898 . S
O75 C70 1.167 . S
O76 Zn65 2.120 . S
O76 C70 1.299 . S
O77 Zn65 2.114 . S
O77 C79 1.166 . S
O78 Zn63 1.905 . S
O78 C79 1.182 . S
C79 O77 1.166 . S
C79 O78 1.182 . S
O80 Zn65 2.080 . S
O80 C83 1.305 . S
O81 Zn64 1.920 . S
O81 C83 1.234 . S
C82 O68 1.305 . S
C82 O69 1.234 . S
C83 O80 1.305 . S
C83 O81 1.234 . S
H84 C102 0.951 . S
H85 C104 0.951 . S
H86 C106 0.950 . S
H87 C107 0.950 . S
H88 C109 0.950 . S
H89 C112 0.950 . S
H90 C113 0.950 . S
H91 C115 0.950 . S
H92 C116 0.950 . S
H93 C117 0.951 . S
H94 C119 0.951 . S
H95 C121 0.950 . S
H96 C122 0.950 . S
H97 C124 0.950 . S
H98 C127 0.950 . S
H99 C128 0.950 . S
H100 C130 0.950 . S
H101 C131 0.950 . S
C102 H84 0.951 . S
C102 C103 1.366 1_455 S
C102 C104 1.388 . S
C103 C102 1.366 1_655 S
C103 C107 1.385 . S
C104 H85 0.951 . S
C104 C102 1.388 . S
C104 C105 1.366 1_455 S
C105 C104 1.366 1_655 S
C105 C106 1.414 . S
C105 C108 1.499 . S
C106 H86 0.950 . S
C106 C105 1.414 . S
C106 C107 1.374 . S
C107 H87 0.950 . S
C107 C103 1.385 . S
C107 C106 1.374 . S
C108 C105 1.499 . S
C108 C109 1.373 . S
C108 C110 1.389 1_656 S
C109 H88 0.950 . S
C109 C108 1.373 . S
C109 C125 1.377 . S
C110 C108 1.389 1_454 S
C110 C111 1.524 . S
C110 C124 1.377 . S
C111 C110 1.524 . S
C111 C112 1.397 . S
C111 C116 1.363 . S
C112 H89 0.950 . S
C112 C111 1.397 . S
C112 C113 1.334 . S
C113 H90 0.950 . S
C113 C112 1.334 . S
C113 C114 1.287 . S
C114 C113 1.287 . S
C114 C115 1.524 . S
C114 H133 0.913 . S
C115 H91 0.950 . S
C115 C114 1.524 . S
C115 C116 1.415 . S
C116 H92 0.950 . S
C116 C111 1.363 . S
C116 C115 1.415 . S
C117 H93 0.951 . S
C117 C118 1.366 . S
C117 C119 1.388 . S
C118 C117 1.366 . S
C118 C122 1.385 1_655 S
C119 H94 0.951 . S
C119 C117 1.388 . S
C119 C120 1.366 . S
C120 C119 1.366 . S
C120 C121 1.414 1_655 S
C120 C123 1.499 . S
C121 H95 0.950 . S
C121 C120 1.414 1_455 S
C121 C122 1.374 . S
C122 H96 0.950 . S
C122 C118 1.385 1_455 S
C122 C121 1.374 . S
C123 C120 1.499 . S
C123 C124 1.373 1_655 S
C123 C125 1.389 1_554 S
C124 H97 0.950 . S
C124 C110 1.377 . S
C124 C123 1.373 1_455 S
C125 C109 1.377 . S
C125 C123 1.389 1_556 S
C125 C126 1.524 . S
C126 C125 1.524 . S
C126 C127 1.397 . S
C126 C131 1.363 . S
C127 H98 0.950 . S
C127 C126 1.397 . S
C127 C128 1.334 . S
C128 H99 0.950 . S
C128 C127 1.334 . S
C128 C129 1.287 . S
C129 C128 1.287 . S
C129 C130 1.524 . S
C129 H132 0.999 . S
C130 H100 0.950 . S
C130 C129 1.524 . S
C130 C131 1.415 . S
C131 H101 0.950 . S
C131 C126 1.363 . S
C131 C130 1.415 . S
H132 C129 0.999 . S
H133 C114 0.913 . S
H134 C152 0.951 . S
H135 C154 0.952 . S
H136 C156 0.950 . S
H137 C157 0.950 . S
H138 C159 0.950 . S
H139 C162 0.950 . S
H140 C163 0.950 . S
H141 C165 0.950 . S
H142 C166 0.950 . S
H143 C167 0.951 . S
H144 C169 0.952 . S
H145 C171 0.950 . S
H146 C172 0.950 . S
H147 C174 0.950 . S
H148 C177 0.950 . S
H149 C178 0.950 . S
H150 C180 0.950 . S
H151 C181 0.950 . S
C152 H134 0.951 . S
C152 C153 1.366 . S
C152 C154 1.388 . S
C153 C152 1.366 . S
C153 C157 1.385 . S
C154 H135 0.952 . S
C154 C152 1.388 . S
C154 C155 1.366 . S
C155 C154 1.366 . S
C155 C156 1.414 . S
C155 C158 1.499 . S
C156 H136 0.950 . S
C156 C155 1.414 . S
C156 C157 1.374 . S
C157 H137 0.950 . S
C157 C153 1.385 . S
C157 C156 1.374 . S
C158 C155 1.499 . S
C158 C159 1.373 . S
C158 C160 1.399 . S
C159 H138 0.950 . S
C159 C158 1.373 . S
C159 C175 1.367 1_554 S
C160 C158 1.399 . S
C160 C161 1.525 . S
C160 C174 1.367 1_554 S
C161 C160 1.525 . S
C161 C162 1.397 . S
C161 C166 1.363 1_554 S
C162 H139 0.950 . S
C162 C161 1.397 . S
C162 C163 1.334 . S
C163 H140 0.950 . S
C163 C162 1.334 . S
C163 C164 1.287 . S
C164 C163 1.287 . S
C164 C165 1.524 1_554 S
C164 H183 0.913 . S
C165 H141 0.950 . S
C165 C164 1.524 1_556 S
C165 C166 1.415 . S
C166 H142 0.950 . S
C166 C161 1.363 1_556 S
C166 C165 1.415 . S
C167 H143 0.951 . S
C167 C168 1.366 . S
C167 C169 1.388 . S
C168 C167 1.366 . S
C168 C172 1.385 . S
C169 H144 0.952 . S
C169 C167 1.388 . S
C169 C170 1.366 . S
C170 C169 1.366 . S
C170 C171 1.414 . S
C170 C173 1.499 . S
C171 H145 0.950 . S
C171 C170 1.414 . S
C171 C172 1.374 . S
C172 H146 0.950 . S
C172 C168 1.385 . S
C172 C171 1.374 . S
C173 C170 1.499 . S
C173 C174 1.373 . S
C173 C175 1.399 . S
C174 H147 0.950 . S
C174 C160 1.367 1_556 S
C174 C173 1.373 . S
C175 C159 1.367 1_556 S
C175 C173 1.399 . S
C175 C176 1.525 . S
C176 C175 1.525 . S
C176 C177 1.397 . S
C176 C181 1.363 1_556 S
C177 H148 0.950 . S
C177 C176 1.397 . S
C177 C178 1.334 . S
C178 H149 0.950 . S
C178 C177 1.334 . S
C178 C179 1.287 . S
C179 C178 1.287 . S
C179 C180 1.524 1_556 S
C179 H182 0.999 . S
C180 H150 0.950 . S
C180 C179 1.524 1_554 S
C180 C181 1.415 . S
C181 H151 0.950 . S
C181 C176 1.363 1_554 S
C181 C180 1.415 . S
H182 C179 0.999 . S
H183 C164 0.913 . S
H184 C202 0.951 . S
H185 C204 0.951 . S
H186 C206 0.950 . S
H187 C207 0.950 . S
H188 C209 0.950 . S
H189 C212 0.950 . S
H190 C213 0.950 . S
H191 C215 0.950 . S
H192 C216 0.950 . S
H193 C217 0.951 . S
H194 C219 0.951 . S
H195 C221 0.950 . S
H196 C222 0.950 . S
H197 C224 0.950 . S
H198 C227 0.950 . S
H199 C228 0.950 . S
H200 C230 0.950 . S
H201 C231 0.950 . S
C202 H184 0.951 . S
C202 C203 1.366 . S
C202 C204 1.388 . S
C203 C202 1.366 . S
C203 C207 1.385 . S
C204 H185 0.951 . S
C204 C202 1.388 . S
C204 C205 1.366 . S
C205 C204 1.366 . S
C205 C206 1.414 . S
C205 C208 1.499 . S
C206 H186 0.950 . S
C206 C205 1.414 . S
C206 C207 1.374 . S
C207 H187 0.950 . S
C207 C203 1.385 . S
C207 C206 1.374 . S
C208 C205 1.499 . S
C208 C209 1.373 . S
C208 C210 1.389 1_556 S
C209 H188 0.950 . S
C209 C208 1.373 . S
C209 C225 1.377 1_565 S
C210 C208 1.389 1_554 S
C210 C211 1.524 . S
C210 C224 1.377 1_565 S
C211 C210 1.524 . S
C211 C212 1.397 . S
C211 C216 1.363 . S
C212 H189 0.950 . S
C212 C211 1.397 . S
C212 C213 1.334 . S
C213 H190 0.950 . S
C213 C212 1.334 . S
C213 C214 1.287 . S
C214 C213 1.287 . S
C214 C215 1.524 . S
C214 H233 0.913 . S
C215 H191 0.950 . S
C215 C214 1.524 . S
C215 C216 1.415 . S
C216 H192 0.950 . S
C216 C211 1.363 . S
C216 C215 1.415 . S
C217 H193 0.951 . S
C217 C218 1.366 . S
C217 C219 1.388 . S
C218 C217 1.366 . S
C218 C222 1.385 . S
C219 H194 0.951 . S
C219 C217 1.388 . S
C219 C220 1.366 . S
C220 C219 1.366 . S
C220 C221 1.414 . S
C220 C223 1.499 . S
C221 H195 0.950 . S
C221 C220 1.414 . S
C221 C222 1.374 . S
C222 H196 0.950 . S
C222 C218 1.385 . S
C222 C221 1.374 . S
C223 C220 1.499 . S
C223 C224 1.373 . S
C223 C225 1.389 1_554 S
C224 H197 0.950 . S
C224 C210 1.377 1_545 S
C224 C223 1.373 . S
C225 C209 1.377 1_545 S
C225 C223 1.389 1_556 S
C225 C226 1.524 . S
C226 C225 1.524 . S
C226 C227 1.397 . S
C226 C231 1.363 . S
C227 H198 0.950 . S
C227 C226 1.397 . S
C227 C228 1.334 . S
C228 H199 0.950 . S
C228 C227 1.334 . S
C228 C229 1.287 . S
C229 C228 1.287 . S
C229 C230 1.524 . S
C229 H232 0.999 . S
C230 H200 0.950 . S
C230 C229 1.524 . S
C230 C231 1.415 . S
C231 H201 0.950 . S
C231 C226 1.363 . S
C231 C230 1.415 . S
H232 C229 0.999 . S
H233 C214 0.913 . S
H234 C252 0.951 . S
H235 C254 0.951 . S
H236 C256 0.950 . S
H237 C257 0.950 . S
H238 C259 0.950 . S
H239 C262 0.950 . S
H240 C263 0.950 . S
H241 C265 0.950 . S
H242 C266 0.950 1_556 S
H243 C267 0.951 . S
H244 C269 0.951 . S
H245 C271 0.950 . S
H246 C272 0.950 . S
H247 C274 0.950 . S
H248 C277 0.950 . S
H249 C278 0.950 . S
H250 C280 0.950 . S
H251 C281 0.950 1_554 S
C252 H234 0.951 . S
C252 C253 1.366 . S
C252 C254 1.388 . S
C253 C252 1.366 . S
C253 C257 1.385 1_455 S
C254 H235 0.951 . S
C254 C252 1.388 . S
C254 C255 1.366 . S
C255 C254 1.366 . S
C255 C256 1.414 1_455 S
C255 C258 1.499 . S
C256 H236 0.950 . S
C256 C255 1.414 1_655 S
C256 C257 1.374 . S
C257 H237 0.950 . S
C257 C253 1.385 1_655 S
C257 C256 1.374 . S
C258 C255 1.499 . S
C258 C259 1.373 1_455 S
C258 C260 1.389 . S
C259 H238 0.950 . S
C259 C258 1.373 1_655 S
C259 C275 1.377 1_564 S
C260 C258 1.389 . S
C260 C261 1.524 . S
C260 C274 1.377 1_564 S
C261 C260 1.524 . S
C261 C262 1.397 . S
C261 C266 1.363 . S
C262 H239 0.950 . S
C262 C261 1.397 . S
C262 C263 1.334 . S
C263 H240 0.950 . S
C263 C262 1.334 . S
C263 C264 1.287 . S
C264 C263 1.287 . S
C264 C265 1.524 . S
C264 H283 0.913 . S
C265 H241 0.950 . S
C265 C264 1.524 . S
C265 C266 1.415 . S
C266 H242 0.950 1_554 S
C266 C261 1.363 . S
C266 C265 1.415 . S
C267 H243 0.951 . S
C267 C268 1.366 1_655 S
C267 C269 1.388 . S
C268 C267 1.366 1_455 S
C268 C272 1.385 . S
C269 H244 0.951 . S
C269 C267 1.388 . S
C269 C270 1.366 1_655 S
C270 C269 1.366 1_455 S
C270 C271 1.414 . S
C270 C273 1.499 . S
C271 H245 0.950 . S
C271 C270 1.414 . S
C271 C272 1.374 . S
C272 H246 0.950 . S
C272 C268 1.385 . S
C272 C271 1.374 . S
C273 C270 1.499 . S
C273 C274 1.373 . S
C273 C275 1.389 1_455 S
C274 H247 0.950 . S
C274 C260 1.377 1_546 S
C274 C273 1.373 . S
C275 C259 1.377 1_546 S
C275 C273 1.389 1_655 S
C275 C276 1.524 . S
C276 C275 1.524 . S
C276 C277 1.397 . S
C276 C281 1.363 . S
C277 H248 0.950 . S
C277 C276 1.397 . S
C277 C278 1.334 . S
C278 H249 0.950 . S
C278 C277 1.334 . S
C278 C279 1.287 . S
C279 C278 1.287 . S
C279 C280 1.524 . S
C279 H282 0.999 . S
C280 H250 0.950 . S
C280 C279 1.524 . S
C280 C281 1.415 . S
C281 H251 0.950 1_556 S
C281 C276 1.363 . S
C281 C280 1.415 . S
H282 C279 0.999 . S
H283 C264 0.913 . S
H284 C302 0.951 . S
H285 C304 0.951 . S
H286 C306 0.950 . S
H287 C307 0.950 . S
H288 C309 0.950 . S
H289 C312 0.950 . S
H290 C313 0.950 . S
H291 C315 0.950 . S
H292 C316 0.950 . S
H293 C317 0.951 . S
H294 C319 0.951 . S
H295 C321 0.950 . S
H296 C322 0.950 . S
H297 C324 0.950 . S
H298 C327 0.950 . S
H299 C328 0.950 . S
H300 C330 0.950 . S
H301 C331 0.950 . S
C302 H284 0.951 . S
C302 C303 1.366 . S
C302 C304 1.388 . S
C303 C302 1.366 . S
C303 C307 1.385 . S
C304 H285 0.951 . S
C304 C302 1.388 . S
C304 C305 1.366 . S
C305 C304 1.366 . S
C305 C306 1.414 . S
C305 C308 1.499 . S
C306 H286 0.950 . S
C306 C305 1.414 . S
C306 C307 1.374 . S
C307 H287 0.950 . S
C307 C303 1.385 . S
C307 C306 1.374 . S
C308 C305 1.499 . S
C308 C309 1.373 . S
C308 C310 1.389 . S
C309 H288 0.950 . S
C309 C308 1.373 . S
C309 C325 1.377 . S
C310 C308 1.389 . S
C310 C311 1.524 . S
C310 C324 1.377 . S
C311 C310 1.524 . S
C311 C312 1.397 . S
C311 C316 1.363 . S
C312 H289 0.950 . S
C312 C311 1.397 . S
C312 C313 1.334 . S
C313 H290 0.950 . S
C313 C312 1.334 . S
C313 C314 1.287 . S
C314 C313 1.287 . S
C314 C315 1.524 . S
C314 H333 0.913 . S
C315 H291 0.950 . S
C315 C314 1.524 . S
C315 C316 1.415 . S
C316 H292 0.950 . S
C316 C311 1.363 . S
C316 C315 1.415 . S
C317 H293 0.951 . S
C317 C318 1.366 . S
C317 C319 1.388 . S
C318 C317 1.366 . S
C318 C322 1.385 . S
C319 H294 0.951 . S
C319 C317 1.388 . S
C319 C320 1.366 . S
C320 C319 1.366 . S
C320 C321 1.414 . S
C320 C323 1.499 . S
C321 H295 0.950 . S
C321 C320 1.414 . S
C321 C322 1.374 . S
C322 H296 0.950 . S
C322 C318 1.385 . S
C322 C321 1.374 . S
C323 C320 1.499 . S
C323 C324 1.373 . S
C323 C325 1.389 . S
C324 H297 0.950 . S
C324 C310 1.377 . S
C324 C323 1.373 . S
C325 C309 1.377 . S
C325 C323 1.389 . S
C325 C326 1.524 . S
C326 C325 1.524 . S
C326 C327 1.397 . S
C326 C331 1.363 . S
C327 H298 0.950 . S
C327 C326 1.397 . S
C327 C328 1.334 . S
C328 H299 0.950 . S
C328 C327 1.334 . S
C328 C329 1.287 . S
C329 C328 1.287 . S
C329 C330 1.524 . S
C329 H332 0.999 . S
C330 H300 0.950 . S
C330 C329 1.524 . S
C330 C331 1.415 . S
C331 H301 0.950 . S
C331 C326 1.363 . S
C331 C330 1.415 . S
H332 C329 0.999 . S
H333 C314 0.913 . S
H334 C352 0.951 . S
H335 C354 0.951 . S
H336 C356 0.950 . S
H337 C357 0.950 . S
H338 C359 0.950 . S
H339 C362 0.950 . S
H340 C363 0.950 . S
H341 C365 0.950 . S
H342 C366 0.950 . S
H343 C367 0.951 . S
H344 C369 0.951 . S
H345 C371 0.950 . S
H346 C372 0.950 . S
H347 C374 0.950 . S
H348 C377 0.950 . S
H349 C378 0.950 . S
H350 C380 0.950 . S
H351 C381 0.950 . S
C352 H334 0.951 . S
C352 C353 1.366 . S
C352 C354 1.388 . S
C353 C352 1.366 . S
C353 C357 1.385 . S
C354 H335 0.951 . S
C354 C352 1.388 . S
C354 C355 1.366 . S
C355 C354 1.366 . S
C355 C356 1.414 . S
C355 C358 1.499 . S
C356 H336 0.950 . S
C356 C355 1.414 . S
C356 C357 1.374 . S
C357 H337 0.950 . S
C357 C353 1.385 . S
C357 C356 1.374 . S
C358 C355 1.499 . S
C358 C359 1.373 . S
C358 C360 1.389 . S
C359 H338 0.950 . S
C359 C358 1.373 . S
C359 C375 1.377 . S
C360 C358 1.389 . S
C360 C361 1.524 . S
C360 C374 1.377 . S
C361 C360 1.524 . S
C361 C362 1.397 . S
C361 C366 1.363 . S
C362 H339 0.950 . S
C362 C361 1.397 . S
C362 C363 1.334 . S
C363 H340 0.950 . S
C363 C362 1.334 . S
C363 C364 1.287 . S
C364 C363 1.287 . S
C364 C365 1.524 . S
C364 H383 0.913 . S
C365 H341 0.950 . S
C365 C364 1.524 . S
C365 C366 1.415 . S
C366 H342 0.950 . S
C366 C361 1.363 . S
C366 C365 1.415 . S
C367 H343 0.951 . S
C367 C368 1.366 . S
C367 C369 1.388 . S
C368 C367 1.366 . S
C368 C372 1.385 . S
C369 H344 0.951 . S
C369 C367 1.388 . S
C369 C370 1.366 . S
C370 C369 1.366 . S
C370 C371 1.414 . S
C370 C373 1.499 . S
C371 H345 0.950 . S
C371 C370 1.414 . S
C371 C372 1.374 . S
C372 H346 0.950 . S
C372 C368 1.385 . S
C372 C371 1.374 . S
C373 C370 1.499 . S
C373 C374 1.373 . S
C373 C375 1.389 . S
C374 H347 0.950 . S
C374 C360 1.377 . S
C374 C373 1.373 . S
C375 C359 1.377 . S
C375 C373 1.389 . S
C375 C376 1.524 . S
C376 C375 1.524 . S
C376 C377 1.397 . S
C376 C381 1.363 . S
C377 H348 0.950 . S
C377 C376 1.397 . S
C377 C378 1.334 . S
C378 H349 0.950 . S
C378 C377 1.334 . S
C378 C379 1.287 . S
C379 C378 1.287 . S
C379 C380 1.524 . S
C379 H382 0.999 . S
C380 H350 0.950 . S
C380 C379 1.524 . S
C380 C381 1.415 . S
C381 H351 0.950 . S
C381 C376 1.363 . S
C381 C380 1.415 . S
H382 C379 0.999 . S
H383 C364 0.913 . S
H384 C402 0.951 . S
H385 C404 0.951 . S
H386 C406 0.950 . S
H387 C407 0.950 . S
H388 C409 0.950 . S
H389 C412 0.950 . S
H390 C413 0.950 . S
H391 C415 0.950 . S
H392 C416 0.950 . S
H393 C417 0.951 . S
H394 C419 0.951 . S
H395 C421 0.950 . S
H396 C422 0.950 . S
H397 C424 0.950 . S
H398 C427 0.950 . S
H399 C428 0.950 . S
H400 C430 0.950 . S
H401 C431 0.950 . S
C402 H384 0.951 . S
C402 C403 1.366 . S
C402 C404 1.388 . S
C403 C402 1.366 . S
C403 C407 1.385 . S
C404 H385 0.951 . S
C404 C402 1.388 . S
C404 C405 1.366 . S
C405 C404 1.366 . S
C405 C406 1.414 . S
C405 C408 1.499 . S
C406 H386 0.950 . S
C406 C405 1.414 . S
C406 C407 1.374 . S
C407 H387 0.950 . S
C407 C403 1.385 . S
C407 C406 1.374 . S
C408 C405 1.499 . S
C408 C409 1.373 . S
C408 C410 1.389 . S
C409 H388 0.950 . S
C409 C408 1.373 . S
C409 C425 1.377 . S
C410 C408 1.389 . S
C410 C411 1.524 . S
C410 C424 1.377 . S
C411 C410 1.524 . S
C411 C412 1.397 . S
C411 C416 1.363 . S
C412 H389 0.950 . S
C412 C411 1.397 . S
C412 C413 1.334 . S
C413 H390 0.950 . S
C413 C412 1.334 . S
C413 C414 1.287 . S
C414 C413 1.287 . S
C414 C415 1.524 . S
C414 H433 0.913 . S
C415 H391 0.950 . S
C415 C414 1.524 . S
C415 C416 1.415 . S
C416 H392 0.950 . S
C416 C411 1.363 . S
C416 C415 1.415 . S
C417 H393 0.951 . S
C417 C418 1.366 . S
C417 C419 1.388 . S
C418 C417 1.366 . S
C418 C422 1.385 . S
C419 H394 0.951 . S
C419 C417 1.388 . S
C419 C420 1.366 . S
C420 C419 1.366 . S
C420 C421 1.414 . S
C420 C423 1.499 . S
C421 H395 0.950 . S
C421 C420 1.414 . S
C421 C422 1.374 . S
C422 H396 0.950 . S
C422 C418 1.385 . S
C422 C421 1.374 . S
C423 C420 1.499 . S
C423 C424 1.373 . S
C423 C425 1.389 . S
C424 H397 0.950 . S
C424 C410 1.377 . S
C424 C423 1.373 . S
C425 C409 1.377 . S
C425 C423 1.389 . S
C425 C426 1.524 . S
C426 C425 1.524 . S
C426 C427 1.397 . S
C426 C431 1.363 . S
C427 H398 0.950 . S
C427 C426 1.397 . S
C427 C428 1.334 . S
C428 H399 0.950 . S
C428 C427 1.334 . S
C428 C429 1.287 . S
C429 C428 1.287 . S
C429 C430 1.524 . S
C429 H432 0.999 . S
C430 H400 0.950 . S
C430 C429 1.524 . S
C430 C431 1.415 . S
C431 H401 0.950 . S
C431 C426 1.363 . S
C431 C430 1.415 . S
H432 C429 0.999 . S
H433 C414 0.913 . S
H434 C452 0.951 . S
H435 C454 0.951 . S
H436 C456 0.950 . S
H437 C457 0.950 . S
H438 C459 0.950 . S
H439 C462 0.950 . S
H440 C463 0.950 . S
H441 C465 0.950 . S
H442 C466 0.950 . S
H443 C467 0.951 . S
H444 C469 0.951 . S
H445 C471 0.950 . S
H446 C472 0.950 . S
H447 C474 0.950 . S
H448 C477 0.950 . S
H449 C478 0.950 . S
H450 C480 0.950 . S
H451 C481 0.950 . S
C452 H434 0.951 . S
C452 C453 1.366 . S
C452 C454 1.388 . S
C453 C452 1.366 . S
C453 C457 1.385 . S
C454 H435 0.951 . S
C454 C452 1.388 . S
C454 C455 1.366 . S
C455 C454 1.366 . S
C455 C456 1.414 . S
C455 C458 1.499 . S
C456 H436 0.950 . S
C456 C455 1.414 . S
C456 C457 1.374 . S
C457 H437 0.950 . S
C457 C453 1.385 . S
C457 C456 1.374 . S
C458 C455 1.499 . S
C458 C459 1.373 . S
C458 C460 1.389 . S
C459 H438 0.950 . S
C459 C458 1.373 . S
C459 C475 1.377 . S
C460 C458 1.389 . S
C460 C461 1.524 . S
C460 C474 1.377 . S
C461 C460 1.524 . S
C461 C462 1.397 . S
C461 C466 1.363 . S
C462 H439 0.950 . S
C462 C461 1.397 . S
C462 C463 1.334 . S
C463 H440 0.950 . S
C463 C462 1.334 . S
C463 C464 1.287 . S
C464 C463 1.287 . S
C464 C465 1.524 . S
C464 H483 0.913 . S
C465 H441 0.950 . S
C465 C464 1.524 . S
C465 C466 1.415 . S
C466 H442 0.950 . S
C466 C461 1.363 . S
C466 C465 1.415 . S
C467 H443 0.951 . S
C467 C468 1.366 . S
C467 C469 1.388 . S
C468 C467 1.366 . S
C468 C472 1.385 . S
C469 H444 0.951 . S
C469 C467 1.388 . S
C469 C470 1.366 . S
C470 C469 1.366 . S
C470 C471 1.414 . S
C470 C473 1.499 . S
C471 H445 0.950 . S
C471 C470 1.414 . S
C471 C472 1.374 . S
C472 H446 0.950 . S
C472 C468 1.385 . S
C472 C471 1.374 . S
C473 C470 1.499 . S
C473 C474 1.373 . S
C473 C475 1.389 . S
C474 H447 0.950 . S
C474 C460 1.377 . S
C474 C473 1.373 . S
C475 C459 1.377 . S
C475 C473 1.389 . S
C475 C476 1.524 . S
C476 C475 1.524 . S
C476 C477 1.397 . S
C476 C481 1.363 . S
C477 H448 0.950 . S
C477 C476 1.397 . S
C477 C478 1.334 . S
C478 H449 0.950 . S
C478 C477 1.334 . S
C478 C479 1.287 . S
C479 C478 1.287 . S
C479 C480 1.524 . S
C479 H482 0.999 . S
C480 H450 0.950 . S
C480 C479 1.524 . S
C480 C481 1.415 . S
C481 H451 0.950 . S
C481 C476 1.363 . S
C481 C480 1.415 . S
H482 C479 0.999 . S
H483 C464 0.913 . S
H484 C502 0.951 . S
H485 C504 0.951 . S
H486 C506 0.950 . S
H487 C507 0.950 . S
H488 C509 0.950 . S
H489 C512 0.950 . S
H490 C513 0.950 . S
H491 C515 0.950 . S
H492 C516 0.950 . S
H493 C517 0.951 . S
H494 C519 0.951 . S
H495 C521 0.950 . S
H496 C522 0.950 . S
H497 C524 0.950 . S
H498 C527 0.950 . S
H499 C528 0.950 . S
H500 C530 0.950 . S
H501 C531 0.950 . S
C502 H484 0.951 . S
C502 C503 1.366 . S
C502 C504 1.388 . S
C503 C502 1.366 . S
C503 C507 1.385 . S
C504 H485 0.951 . S
C504 C502 1.388 . S
C504 C505 1.366 . S
C505 C504 1.366 . S
C505 C506 1.414 . S
C505 C508 1.499 . S
C506 H486 0.950 . S
C506 C505 1.414 . S
C506 C507 1.374 . S
C507 H487 0.950 . S
C507 C503 1.385 . S
C507 C506 1.374 . S
C508 C505 1.499 . S
C508 C509 1.373 . S
C508 C510 1.389 1_556 S
C509 H488 0.950 . S
C509 C508 1.373 . S
C509 C525 1.377 . S
C510 C508 1.389 1_554 S
C510 C511 1.524 . S
C510 C524 1.377 . S
C511 C510 1.524 . S
C511 C512 1.397 . S
C511 C516 1.363 . S
C512 H489 0.950 . S
C512 C511 1.397 . S
C512 C513 1.334 . S
C513 H490 0.950 . S
C513 C512 1.334 . S
C513 C514 1.287 . S
C514 C513 1.287 . S
C514 C515 1.524 . S
C514 H533 0.913 . S
C515 H491 0.950 . S
C515 C514 1.524 . S
C515 C516 1.415 . S
C516 H492 0.950 . S
C516 C511 1.363 . S
C516 C515 1.415 . S
C517 H493 0.951 . S
C517 C518 1.366 . S
C517 C519 1.388 . S
C518 C517 1.366 . S
C518 C522 1.385 . S
C519 H494 0.951 . S
C519 C517 1.388 . S
C519 C520 1.366 . S
C520 C519 1.366 . S
C520 C521 1.414 . S
C520 C523 1.499 . S
C521 H495 0.950 . S
C521 C520 1.414 . S
C521 C522 1.374 . S
C522 H496 0.950 . S
C522 C518 1.385 . S
C522 C521 1.374 . S
C523 C520 1.499 . S
C523 C524 1.373 . S
C523 C525 1.389 1_554 S
C524 H497 0.950 . S
C524 C510 1.377 . S
C524 C523 1.373 . S
C525 C509 1.377 . S
C525 C523 1.389 1_556 S
C525 C526 1.524 . S
C526 C525 1.524 . S
C526 C527 1.397 . S
C526 C531 1.363 . S
C527 H498 0.950 . S
C527 C526 1.397 . S
C527 C528 1.334 . S
C528 H499 0.950 . S
C528 C527 1.334 . S
C528 C529 1.287 . S
C529 C528 1.287 . S
C529 C530 1.524 . S
C529 H532 0.999 . S
C530 H500 0.950 . S
C530 C529 1.524 . S
C530 C531 1.415 . S
C531 H501 0.950 . S
C531 C526 1.363 . S
C531 C530 1.415 . S
H532 C529 0.999 . S
H533 C514 0.913 . S
H534 C552 0.951 . S
H535 C554 0.951 . S
H536 C556 0.950 1_554 S
H537 C557 0.950 . S
H538 C559 0.950 . S
H539 C562 0.950 . S
H540 C563 0.950 . S
H541 C565 0.950 . S
H542 C566 0.950 . S
H543 C567 0.951 . S
H544 C569 0.951 . S
H545 C571 0.950 1_556 S
H546 C572 0.950 . S
H547 C574 0.950 . S
H548 C577 0.950 . S
H549 C578 0.950 . S
H550 C580 0.950 . S
H551 C581 0.950 . S
C552 H534 0.951 . S
C552 C553 1.366 . S
C552 C554 1.388 . S
C553 C552 1.366 . S
C553 C557 1.385 . S
C554 H535 0.951 . S
C554 C552 1.388 . S
C554 C555 1.366 . S
C555 C554 1.366 . S
C555 C556 1.414 . S
C555 C558 1.499 . S
C556 H536 0.950 1_556 S
C556 C555 1.414 . S
C556 C557 1.374 . S
C557 H537 0.950 . S
C557 C553 1.385 . S
C557 C556 1.374 . S
C558 C555 1.499 . S
C558 C559 1.373 1_556 S
C558 C560 1.389 . S
C559 H538 0.950 . S
C559 C558 1.373 1_554 S
C559 C575 1.377 . S
C560 C558 1.389 . S
C560 C561 1.524 . S
C560 C574 1.377 . S
C561 C560 1.524 . S
C561 C562 1.397 . S
C561 C566 1.363 . S
C562 H539 0.950 . S
C562 C561 1.397 . S
C562 C563 1.334 . S
C563 H540 0.950 . S
C563 C562 1.334 . S
C563 C564 1.287 . S
C564 C563 1.287 . S
C564 C565 1.524 . S
C564 H583 0.913 . S
C565 H541 0.950 . S
C565 C564 1.524 . S
C565 C566 1.415 . S
C566 H542 0.950 . S
C566 C561 1.363 . S
C566 C565 1.415 . S
C567 H543 0.951 . S
C567 C568 1.366 . S
C567 C569 1.388 . S
C568 C567 1.366 . S
C568 C572 1.385 . S
C569 H544 0.951 . S
C569 C567 1.388 . S
C569 C570 1.366 . S
C570 C569 1.366 . S
C570 C571 1.414 . S
C570 C573 1.499 . S
C571 H545 0.950 1_554 S
C571 C570 1.414 . S
C571 C572 1.374 . S
C572 H546 0.950 . S
C572 C568 1.385 . S
C572 C571 1.374 . S
C573 C570 1.499 . S
C573 C574 1.373 1_554 S
C573 C575 1.389 . S
C574 H547 0.950 . S
C574 C560 1.377 . S
C574 C573 1.373 1_556 S
C575 C559 1.377 . S
C575 C573 1.389 . S
C575 C576 1.524 . S
C576 C575 1.524 . S
C576 C577 1.397 . S
C576 C581 1.363 . S
C577 H548 0.950 . S
C577 C576 1.397 . S
C577 C578 1.334 . S
C578 H549 0.950 . S
C578 C577 1.334 . S
C578 C579 1.287 . S
C579 C578 1.287 . S
C579 C580 1.524 . S
C579 H582 0.999 . S
C580 H550 0.950 . S
C580 C579 1.524 . S
C580 C581 1.415 . S
C581 H551 0.950 . S
C581 C576 1.363 . S
C581 C580 1.415 . S
H582 C579 0.999 . S
H583 C564 0.913 . S
H584 C602 0.951 . S
H585 C604 0.951 . S
H586 C606 0.950 . S
H587 C607 0.950 . S
H588 C609 0.950 . S
H589 C612 0.950 . S
H590 C613 0.950 . S
H591 C615 0.950 . S
H592 C616 0.950 . S
H593 C617 0.951 . S
H594 C619 0.951 . S
H595 C621 0.950 . S
H596 C622 0.950 . S
H597 C624 0.950 . S
H598 C627 0.950 . S
H599 C628 0.950 . S
H600 C630 0.950 . S
H601 C631 0.950 . S
C602 H584 0.951 . S
C602 C603 1.366 . S
C602 C604 1.388 . S
C603 C602 1.366 . S
C603 C607 1.385 . S
C604 H585 0.951 . S
C604 C602 1.388 . S
C604 C605 1.366 . S
C605 C604 1.366 . S
C605 C606 1.414 . S
C605 C608 1.499 . S
C606 H586 0.950 . S
C606 C605 1.414 . S
C606 C607 1.374 . S
C607 H587 0.950 . S
C607 C603 1.385 . S
C607 C606 1.374 . S
C608 C605 1.499 . S
C608 C609 1.373 . S
C608 C610 1.389 . S
C609 H588 0.950 . S
C609 C608 1.373 . S
C609 C625 1.377 1_554 S
C610 C608 1.389 . S
C610 C611 1.524 . S
C610 C624 1.377 1_554 S
C611 C610 1.524 . S
C611 C612 1.397 1_554 S
C611 C616 1.363 . S
C612 H589 0.950 . S
C612 C611 1.397 1_556 S
C612 C613 1.334 . S
C613 H590 0.950 . S
C613 C612 1.334 . S
C613 C614 1.287 . S
C614 C613 1.287 . S
C614 C615 1.524 1_556 S
C614 H633 0.913 . S
C615 H591 0.950 . S
C615 C614 1.524 1_554 S
C615 C616 1.415 . S
C616 H592 0.950 . S
C616 C611 1.363 . S
C616 C615 1.415 . S
C617 H593 0.951 . S
C617 C618 1.366 . S
C617 C619 1.388 . S
C618 C617 1.366 . S
C618 C622 1.385 . S
C619 H594 0.951 . S
C619 C617 1.388 . S
C619 C620 1.366 . S
C620 C619 1.366 . S
C620 C621 1.414 . S
C620 C623 1.499 . S
C621 H595 0.950 . S
C621 C620 1.414 . S
C621 C622 1.374 . S
C622 H596 0.950 . S
C622 C618 1.385 . S
C622 C621 1.374 . S
C623 C620 1.499 . S
C623 C624 1.373 . S
C623 C625 1.389 . S
C624 H597 0.950 . S
C624 C610 1.377 1_556 S
C624 C623 1.373 . S
C625 C609 1.377 1_556 S
C625 C623 1.389 . S
C625 C626 1.524 . S
C626 C625 1.524 . S
C626 C627 1.397 1_556 S
C626 C631 1.363 . S
C627 H598 0.950 . S
C627 C626 1.397 1_554 S
C627 C628 1.334 . S
C628 H599 0.950 . S
C628 C627 1.334 . S
C628 C629 1.287 . S
C629 C628 1.287 . S
C629 C630 1.524 1_554 S
C629 H632 0.999 . S
C630 H600 0.950 . S
C630 C629 1.524 1_556 S
C630 C631 1.415 . S
C631 H601 0.950 . S
C631 C626 1.363 . S
C631 C630 1.415 . S
H632 C629 0.999 . S
H633 C614 0.913 . S
H634 C652 0.951 . S
H635 C654 0.951 . S
H636 C656 0.950 . S
H637 C657 0.950 . S
H638 C659 0.950 . S
H639 C662 0.950 . S
H640 C663 0.950 . S
H641 C665 0.950 . S
H642 C666 0.950 . S
H643 C667 0.951 . S
H644 C669 0.951 . S
H645 C671 0.950 . S
H646 C672 0.950 . S
H647 C674 0.950 . S
H648 C677 0.950 . S
H649 C678 0.950 . S
H650 C680 0.950 . S
H651 C681 0.950 . S
C652 H634 0.951 . S
C652 C653 1.366 . S
C652 C654 1.388 . S
C653 C652 1.366 . S
C653 C657 1.385 . S
C654 H635 0.951 . S
C654 C652 1.388 . S
C654 C655 1.366 . S
C655 C654 1.366 . S
C655 C656 1.414 . S
C655 C658 1.499 . S
C656 H636 0.950 . S
C656 C655 1.414 . S
C656 C657 1.374 . S
C657 H637 0.950 . S
C657 C653 1.385 . S
C657 C656 1.374 . S
C658 C655 1.499 . S
C658 C659 1.373 1_554 S
C658 C660 1.389 . S
C659 H638 0.950 . S
C659 C658 1.373 1_556 S
C659 C675 1.377 . S
C660 C658 1.389 . S
C660 C661 1.524 . S
C660 C674 1.377 . S
C661 C660 1.524 . S
C661 C662 1.397 . S
C661 C666 1.363 . S
C662 H639 0.950 . S
C662 C661 1.397 . S
C662 C663 1.334 . S
C663 H640 0.950 . S
C663 C662 1.334 . S
C663 C664 1.287 . S
C664 C663 1.287 . S
C664 C665 1.524 . S
C664 H683 0.913 . S
C665 H641 0.950 . S
C665 C664 1.524 . S
C665 C666 1.415 . S
C666 H642 0.950 . S
C666 C661 1.363 . S
C666 C665 1.415 . S
C667 H643 0.951 . S
C667 C668 1.366 . S
C667 C669 1.388 . S
C668 C667 1.366 . S
C668 C672 1.385 . S
C669 H644 0.951 . S
C669 C667 1.388 . S
C669 C670 1.366 . S
C670 C669 1.366 . S
C670 C671 1.414 . S
C670 C673 1.499 . S
C671 H645 0.950 . S
C671 C670 1.414 . S
C671 C672 1.374 . S
C672 H646 0.950 . S
C672 C668 1.385 . S
C672 C671 1.374 . S
C673 C670 1.499 . S
C673 C674 1.373 1_556 S
C673 C675 1.389 . S
C674 H647 0.950 . S
C674 C660 1.377 . S
C674 C673 1.373 1_554 S
C675 C659 1.377 . S
C675 C673 1.389 . S
C675 C676 1.524 . S
C676 C675 1.524 . S
C676 C677 1.397 . S
C676 C681 1.363 . S
C677 H648 0.950 . S
C677 C676 1.397 . S
C677 C678 1.334 . S
C678 H649 0.950 . S
C678 C677 1.334 . S
C678 C679 1.287 . S
C679 C678 1.287 . S
C679 C680 1.524 . S
C679 H682 0.999 . S
C680 H650 0.950 . S
C680 C679 1.524 . S
C680 C681 1.415 . S
C681 H651 0.950 . S
C681 C676 1.363 . S
C681 C680 1.415 . S
H682 C679 0.999 . S
H683 C664 0.913 . S
C103 C46 1.915 1_655 S
C118 C4 1.914 1_655 S
C153 C25 1.914 . S
C168 C67 1.915 . S
C203 C70 1.915 . S
C218 C28 1.915 . S
C253 C7 1.914 1_455 S
C268 C49 1.915 1_455 S
C303 C83 1.791 . S
C318 C20 1.790 . S
C353 C62 1.791 . S
C368 C41 1.791 . S
C403 C61 1.792 . S
C418 C40 1.791 . S
C453 C19 1.792 . S
C468 C82 1.792 . S
C503 C66 0.820 . S
C518 C3 0.821 . S
C553 C45 0.820 . S
C568 C24 0.824 . S
C603 C37 0.820 . S
C618 C58 0.821 . S
C653 C16 0.823 . S
C668 C79 0.822 . S
