# Generated by pormake.
# Topology wlj, (5)-cn, num edge types: 1
# Building blocks:
#     Node 0, Type 0, BuildingBlock: BEQFEK_clean_sbu_0, # of connection points: 5
#     Node 1, Type 0, BuildingBlock: BEQFEK_clean_sbu_0, # of connection points: 5
#     Node 2, Type 0, BuildingBlock: BEQFEK_clean_sbu_0, # of connection points: 5
#     Node 3, Type 0, BuildingBlock: BEQFEK_clean_sbu_0, # of connection points: 5
#     Node 4, Type 0, BuildingBlock: BEQFEK_clean_sbu_0, # of connection points: 5
#     Node 5, Type 0, BuildingBlock: BEQFEK_clean_sbu_0, # of connection points: 5
#     Edge 6, Type (0, 0), BuildingBlock: OJICUG_clean_linker_0, # of connection points: 2
#     Edge 7, Type (0, 0), BuildingBlock: OJICUG_clean_linker_0, # of connection points: 2
#     Edge 8, Type (0, 0), BuildingBlock: OJICUG_clean_linker_0, # of connection points: 2
#     Edge 9, Type (0, 0), BuildingBlock: OJICUG_clean_linker_0, # of connection points: 2
#     Edge 10, Type (0, 0), BuildingBlock: OJICUG_clean_linker_0, # of connection points: 2
#     Edge 11, Type (0, 0), BuildingBlock: OJICUG_clean_linker_0, # of connection points: 2
#     Edge 12, Type (0, 0), BuildingBlock: OJICUG_clean_linker_0, # of connection points: 2
#     Edge 13, Type (0, 0), BuildingBlock: OJICUG_clean_linker_0, # of connection points: 2
#     Edge 14, Type (0, 0), BuildingBlock: OJICUG_clean_linker_0, # of connection points: 2
#     Edge 15, Type (0, 0), BuildingBlock: OJICUG_clean_linker_0, # of connection points: 2
#     Edge 16, Type (0, 0), BuildingBlock: OJICUG_clean_linker_0, # of connection points: 2
#     Edge 17, Type (0, 0), BuildingBlock: OJICUG_clean_linker_0, # of connection points: 2
#     Edge 18, Type (0, 0), BuildingBlock: OJICUG_clean_linker_0, # of connection points: 2
#     Edge 19, Type (0, 0), BuildingBlock: OJICUG_clean_linker_0, # of connection points: 2
#     Edge 20, Type (0, 0), BuildingBlock: OJICUG_clean_linker_0, # of connection points: 2
# Relax obj value: 0.061
# Max RMSD: 0.095
# Mean RMSD: 0.095
data_MOF--net-wlj--node1-BEQFEK_clean_sbu_0--edge1-OJICUG_clean_linker_0
_symmetry_space_group_name_H-M    P1
_symmetry_Int_Tables_number       1
_symmetry_cell_setting            triclinic
loop_
_symmetry_equiv_pos_as_xyz
'x, y, z'
_cell_length_a     18.214423
_cell_length_b     18.233351
_cell_length_c     51.39627
_cell_angle_alpha  89.971293
_cell_angle_beta   90.003257
_cell_angle_gamma 119.88061
loop_
_atom_site_label
_atom_site_type_symbol
_atom_site_fract_x
_atom_site_fract_y
_atom_site_fract_z
_atom_type_partial_charge
Co0 Co 0.46937 0.332 0.22585 0.0
Co1 Co 0.56093 0.25824 0.25949 0.0
C2 C 0.43074 0.15545 0.21805 0.0
O3 O 0.41456 0.21408 0.21258 0.0
O4 O 0.48561 0.16564 0.2352 0.0
C5 C 0.34335 0.36999 0.2036 0.0
O6 O 0.28445 0.29412 0.21091 0.0
C7 C 0.55929 0.14633 0.30065 0.0
C8 C 0.69552 0.19867 0.30859 0.0
C9 C 0.61571 0.13655 0.31672 0.0
N10 N 0.60408 0.21113 0.28428 0.0
N11 N 0.68545 0.24157 0.28892 0.0
C12 C 0.46456 0.10022 0.30162 0.0
H13 H 0.43937 0.13557 0.29076 0.0
H14 H 0.44208 0.09113 0.32206 0.0
H15 H 0.43965 0.03736 0.29231 0.0
C16 C 0.42829 0.37027 0.27832 0.0
N17 N 0.46135 0.33491 0.2626 0.0
N18 N 0.50351 0.30807 0.2768 0.0
C19 C 0.50071 0.32809 0.30194 0.0
C20 C 0.45173 0.36661 0.30372 0.0
C21 C 0.38253 0.4143 0.26892 0.0
H22 H 0.42165 0.46233 0.25413 0.0
H23 H 0.32232 0.36745 0.2596 0.0
H24 H 0.3683 0.44571 0.28505 0.0
O25 O 0.5905 0.39586 0.2154 0.0
O26 O 0.65718 0.34613 0.23947 0.0
H27 H 0.61105 0.3278 0.31657 0.0
H28 H 0.55836 0.35915 0.34016 0.0
C29 C 0.54868 0.31619 0.32363 0.0
H30 H 0.51211 0.25041 0.33093 0.0
H31 H 0.73404 0.29284 0.27907 0.0
O32 O 0.4205 0.39475 0.20854 0.0
C33 C 0.6581 0.39663 0.22219 0.0
Co34 Co 0.66858 0.13784 0.89202 0.0
Co35 Co 0.74721 0.30092 0.92681 0.0
C36 C 0.84672 0.27626 0.88416 0.0
O37 O 0.78733 0.20186 0.87882 0.0
O38 O 0.83811 0.32086 0.90165 0.0
C39 C 0.62963 0.97246 0.87156 0.0
O40 O 0.7 0.98466 0.88253 0.0
C41 C 0.86604 0.42517 0.96496 0.0
C42 C 0.78488 0.46893 0.98322 0.0
C43 C 0.86398 0.47576 0.98491 0.0
N44 N 0.79062 0.38823 0.95273 0.0
N45 N 0.74311 0.41598 0.96346 0.0
C46 C 0.9382 0.41221 0.95741 0.0
H47 H 0.94139 0.40848 0.93599 0.0
H48 H 0.92801 0.35164 0.96569 0.0
H49 H 0.99947 0.46476 0.96449 0.0
C50 C 0.62341 0.05531 0.94405 0.0
N51 N 0.66402 0.1241 0.92868 0.0
N52 N 0.70045 0.19236 0.94333 0.0
C53 C 0.68632 0.1687 0.96857 0.0
C54 C 0.63649 0.0811 0.9699 0.0
C55 C 0.56432 0.96814 0.93409 0.0
H56 H 0.53002 0.97157 0.91675 0.0
H57 H 0.60144 0.93748 0.92846 0.0
H58 H 0.51722 0.92853 0.94904 0.0
O59 O 0.60526 0.19522 0.88238 0.0
O60 O 0.65645 0.309 0.90757 0.0
H61 H 0.68835 0.26632 0.99215 0.0
H62 H 0.71316 0.19538 1.00972 0.0
C63 C 0.72092 0.22874 0.99102 0.0
H64 H 0.78932 0.27236 0.98802 0.0
H65 H 0.68093 0.39637 0.9579 0.0
O66 O 0.60783 0.02831 0.87375 0.0
C67 C 0.60508 0.26132 0.89013 0.0
Co68 Co 0.86377 0.52805 0.55817 0.0
Co69 Co 0.7019 0.44377 0.59354 0.0
C70 C 0.72535 0.56848 0.5512 0.0
O71 O 0.79965 0.58339 0.54553 0.0
O72 O 0.68121 0.51502 0.56868 0.0
C73 C 0.02676 0.65324 0.53647 0.0
O74 O 0.01313 0.7112 0.54687 0.0
C75 C 0.5787 0.43853 0.63218 0.0
C76 C 0.53629 0.3143 0.65062 0.0
C77 C 0.52912 0.38631 0.65235 0.0
N78 N 0.61548 0.40009 0.61979 0.0
N79 N 0.58852 0.32523 0.63063 0.0
C80 C 0.59088 0.5232 0.62458 0.0
H81 H 0.59273 0.52926 0.60314 0.0
H82 H 0.6522 0.57373 0.63235 0.0
H83 H 0.53886 0.53224 0.63211 0.0
C84 C 0.94839 0.56571 0.60987 0.0
N85 N 0.87892 0.5371 0.59477 0.0
N86 N 0.81111 0.50528 0.60967 0.0
C87 C 0.83572 0.51512 0.63482 0.0
C88 C 0.92348 0.55308 0.63582 0.0
C89 C 0.0355 0.59477 0.59953 0.0
H90 H 0.03199 0.55659 0.58232 0.0
H91 H 0.06455 0.66197 0.59352 0.0
H92 H 0.07658 0.589 0.61436 0.0
O93 O 0.80564 0.40793 0.54845 0.0
O94 O 0.69313 0.34505 0.57417 0.0
H95 H 0.73903 0.42025 0.6588 0.0
H96 H 0.81041 0.51622 0.67606 0.0
C97 C 0.7764 0.4902 0.65748 0.0
H98 H 0.73247 0.5148 0.6546 0.0
H99 H 0.60823 0.2828 0.62498 0.0
O100 O 0.97251 0.57565 0.53945 0.0
C101 C 0.74009 0.34164 0.55638 0.0
Co102 Co 0.33391 0.46948 0.81746 0.0
Co103 Co 0.26103 0.56045 0.7832 0.0
C104 C 0.15691 0.43041 0.82457 0.0
O105 O 0.21541 0.41427 0.83034 0.0
O106 O 0.16773 0.48529 0.80736 0.0
C107 C 0.37102 0.34514 0.84098 0.0
O108 O 0.29427 0.2867 0.83423 0.0
C109 C 0.14957 0.5583 0.7418 0.0
C110 C 0.20213 0.69429 0.73362 0.0
C111 C 0.13987 0.61446 0.72561 0.0
N112 N 0.21442 0.60323 0.75813 0.0
N113 N 0.24503 0.68446 0.75334 0.0
C114 C 0.10327 0.46364 0.74102 0.0
H115 H 0.13864 0.4386 0.75193 0.0
H116 H 0.09403 0.44082 0.72062 0.0
H117 H 0.04041 0.43902 0.75036 0.0
C118 C 0.37349 0.42763 0.76529 0.0
N119 N 0.33795 0.46112 0.78075 0.0
N120 N 0.3114 0.50299 0.76629 0.0
C121 C 0.33186 0.49962 0.74124 0.0
C122 C 0.3704 0.4506 0.73978 0.0
C123 C 0.41677 0.38156 0.77505 0.0
H124 H 0.46565 0.42136 0.78954 0.0
H125 H 0.36966 0.32255 0.78489 0.0
H126 H 0.44708 0.3654 0.75904 0.0
O127 O 0.39675 0.59032 0.82784 0.0
O128 O 0.34844 0.65692 0.80318 0.0
H129 H 0.33162 0.60936 0.72612 0.0
H130 H 0.36291 0.55588 0.70281 0.0
C131 C 0.31996 0.5468 0.71931 0.0
H132 H 0.25408 0.51006 0.71206 0.0
H133 H 0.29632 0.73311 0.76315 0.0
O134 O 0.39708 0.42189 0.83521 0.0
C135 C 0.39807 0.65788 0.82078 0.0
Co136 Co 0.53 0.86255 0.48451 0.0
Co137 Co 0.44585 0.7005 0.44932 0.0
C138 C 0.57025 0.72429 0.49184 0.0
O139 O 0.58533 0.79865 0.49738 0.0
O140 O 0.51685 0.68011 0.47436 0.0
C141 C 0.65495 0.02563 0.50615 0.0
O142 O 0.71316 0.01207 0.49586 0.0
C143 C 0.44106 0.57698 0.41096 0.0
C144 C 0.31633 0.53342 0.39265 0.0
C145 C 0.38864 0.52662 0.39096 0.0
N146 N 0.40241 0.61377 0.42323 0.0
N147 N 0.32728 0.58615 0.41247 0.0
C148 C 0.5261 0.58982 0.41852 0.0
H149 H 0.53271 0.59287 0.43995 0.0
H150 H 0.57636 0.6507 0.41042 0.0
H151 H 0.53516 0.53757 0.41128 0.0
C152 C 0.56788 0.94654 0.43268 0.0
N153 N 0.53929 0.87731 0.44788 0.0
N154 N 0.50743 0.80941 0.43307 0.0
C155 C 0.51715 0.83368 0.40789 0.0
C156 C 0.55512 0.92135 0.40676 0.0
C157 C 0.59697 0.03366 0.4429 0.0
H158 H 0.55864 0.03034 0.46008 0.0
H159 H 0.66418 0.06267 0.44896 0.0
H160 H 0.59136 0.07461 0.428 0.0
O161 O 0.40964 0.80445 0.49418 0.0
O162 O 0.34689 0.69188 0.46855 0.0
H163 H 0.42185 0.73672 0.38412 0.0
H164 H 0.51765 0.80783 0.36667 0.0
C165 C 0.4919 0.77412 0.38532 0.0
H166 H 0.51659 0.73029 0.38821 0.0
H167 H 0.28462 0.60567 0.41807 0.0
O168 O 0.57734 0.97135 0.50312 0.0
C169 C 0.34335 0.73889 0.48627 0.0
Co170 Co 0.13793 0.66983 0.15017 0.0
Co171 Co 0.3033 0.74369 0.11662 0.0
C172 C 0.27578 0.84617 0.15818 0.0
O173 O 0.20099 0.78765 0.16358 0.0
O174 O 0.32043 0.83601 0.14101 0.0
C175 C 0.97377 0.6316 0.17235 0.0
O176 O 0.99048 0.70747 0.16507 0.0
C177 C 0.41442 0.85604 0.07569 0.0
C178 C 0.49812 0.80322 0.0679 0.0
C179 C 0.4809 0.86579 0.05979 0.0
N180 N 0.3938 0.79082 0.09196 0.0
N181 N 0.44462 0.7601 0.08741 0.0
C182 C 0.36618 0.90264 0.07466 0.0
H183 H 0.30539 0.86734 0.08535 0.0
H184 H 0.35348 0.91231 0.0542 0.0
H185 H 0.404 0.96526 0.08411 0.0
C186 C 0.0591 0.63208 0.09762 0.0
N187 N 0.12731 0.66732 0.11339 0.0
N188 N 0.19636 0.69433 0.09923 0.0
C189 C 0.17378 0.67457 0.07407 0.0
C190 C 0.08637 0.63599 0.07223 0.0
C191 C 0.96937 0.58783 0.10696 0.0
H192 H 0.96057 0.53972 0.12172 0.0
H193 H 0.95572 0.63453 0.1163 0.0
H194 H 0.92393 0.55648 0.0908 0.0
O195 O 0.19508 0.60567 0.16058 0.0
O196 O 0.31145 0.65548 0.13656 0.0
H197 H 0.28435 0.67472 0.05946 0.0
H198 H 0.20079 0.64435 0.03577 0.0
C199 C 0.23383 0.68679 0.05241 0.0
H200 H 0.26326 0.7528 0.0453 0.0
H201 H 0.44154 0.70853 0.09722 0.0
O202 O 0.02633 0.60696 0.16741 0.0
C203 C 0.26189 0.60486 0.15379 0.0
C204 C 0.30434 0.03869 0.19532 0.0
C205 C 0.38953 0.07581 0.20302 0.0
H206 H 0.20044 0.93495 0.17554 0.0
C207 C 0.43657 0.03721 0.19572 0.0
H208 H 0.26679 0.06735 0.20071 0.0
C209 C 0.39972 0.96368 0.18067 0.0
C210 C 0.31425 0.92561 0.17331 0.0
H211 H 0.50252 0.06486 0.20124 0.0
H212 H 0.43777 0.93565 0.17518 0.0
C213 C 0.26649 0.96319 0.18099 0.0
C214 C 0.03822 0.43641 0.84659 0.0
C215 C 0.07668 0.38921 0.83935 0.0
H216 H 0.93659 0.43792 0.86707 0.0
C217 C 0.03893 0.30391 0.84691 0.0
H218 H 0.06637 0.50243 0.84118 0.0
C219 C 0.96306 0.2662 0.86111 0.0
C220 C 0.92576 0.31418 0.86879 0.0
H221 H 0.06748 0.26626 0.84155 0.0
H222 H 0.93447 0.20015 0.86653 0.0
C223 C 0.96434 0.39968 0.86153 0.0
C224 C 0.69674 0.73325 0.51447 0.0
C225 C 0.61135 0.68583 0.50698 0.0
H226 H 0.80095 0.73231 0.53386 0.0
C227 C 0.56423 0.60038 0.51425 0.0
H228 H 0.73434 0.79925 0.50904 0.0
C229 C 0.60123 0.5632 0.52908 0.0
C230 C 0.68693 0.60987 0.53618 0.0
H231 H 0.49816 0.56259 0.50884 0.0
H232 H 0.56313 0.49731 0.53459 0.0
C233 C 0.73474 0.69505 0.52856 0.0
C234 C 0.36423 0.55569 0.16473 0.0
C235 C 0.28201 0.54374 0.1662 0.0
H236 H 0.44801 0.51051 0.17555 0.0
C237 C 0.21932 0.473 0.17971 0.0
H238 H 0.41395 0.60955 0.15451 0.0
C239 C 0.23857 0.41544 0.1915 0.0
C240 C 0.32118 0.42832 0.19037 0.0
H241 H 0.15519 0.46181 0.18108 0.0
H242 H 0.18916 0.36173 0.20185 0.0
C243 C 0.38375 0.499 0.17686 0.0
C244 C 0.45041 0.81082 0.83005 0.0
C245 C 0.45872 0.73883 0.8333 0.0
H246 H 0.49768 0.94074 0.83964 0.0
C247 C 0.52536 0.74486 0.84874 0.0
H248 H 0.39986 0.80837 0.8183 0.0
C249 C 0.58213 0.82117 0.86079 0.0
C250 C 0.57276 0.89262 0.85789 0.0
H251 H 0.5338 0.69063 0.85152 0.0
H252 H 0.63239 0.82373 0.87272 0.0
C253 C 0.50647 0.88668 0.84233 0.0
C254 C 0.17678 0.75821 0.52499 0.0
C255 C 0.10654 0.67667 0.52261 0.0
H256 H 0.30681 0.84159 0.51552 0.0
C257 C 0.11388 0.6163 0.50748 0.0
H258 H 0.17314 0.80598 0.53654 0.0
C259 C 0.19023 0.63679 0.49523 0.0
C260 C 0.26114 0.71772 0.49815 0.0
H261 H 0.06066 0.55291 0.50519 0.0
H262 H 0.19409 0.58872 0.48392 0.0
C263 C 0.25344 0.77838 0.51303 0.0
C264 C 0.47155 0.21976 0.86542 0.0
C265 C 0.54366 0.28235 0.87843 0.0
H266 H 0.35974 0.19018 0.84369 0.0
C267 C 0.55701 0.36501 0.87966 0.0
H268 H 0.45921 0.15526 0.86427 0.0
C269 C 0.50057 0.38511 0.86757 0.0
C270 C 0.42881 0.32264 0.85441 0.0
H271 H 0.61197 0.41458 0.8895 0.0
H272 H 0.51321 0.44974 0.86854 0.0
C273 C 0.41432 0.23956 0.85372 0.0
C274 C 0.77982 0.25202 0.52962 0.0
C275 C 0.71896 0.2596 0.54446 0.0
H276 H 0.80774 0.17196 0.50614 0.0
C277 C 0.63792 0.18872 0.54732 0.0
H278 H 0.84312 0.30535 0.52718 0.0
C279 C 0.61756 0.11253 0.53506 0.0
C280 C 0.67816 0.1053 0.51998 0.0
H281 H 0.5897 0.1925 0.55861 0.0
H282 H 0.55409 0.05933 0.53732 0.0
C283 C 0.75979 0.17551 0.51765 0.0
C284 C 0.88551 0.50246 0.19907 0.0
C285 C 0.89341 0.57316 0.18557 0.0
H286 H 0.8055 0.3919 0.22142 0.0
C287 C 0.82363 0.58601 0.18445 0.0
H288 H 0.9383 0.49097 0.20035 0.0
C289 C 0.74699 0.52843 0.19625 0.0
C290 C 0.73915 0.4577 0.20975 0.0
H291 H 0.82776 0.63973 0.17411 0.0
H292 H 0.69403 0.53963 0.1949 0.0
C293 C 0.80947 0.44575 0.2112 0.0
C294 C 0.5084 0.95169 0.36415 0.0
C295 C 0.57075 0.97514 0.38343 0.0
H296 H 0.47463 0.97988 0.3274 0.0
C297 C 0.6478 0.05072 0.38042 0.0
H298 H 0.44796 0.89408 0.36606 0.0
C299 C 0.66176 0.10242 0.35875 0.0
C300 C 0.59922 0.0795 0.33942 0.0
H301 H 0.69736 0.0699 0.39486 0.0
H302 H 0.72163 0.1609 0.3573 0.0
C303 C 0.52301 0.00242 0.34218 0.0
C304 C 0.97293 0.48522 1.01691 0.0
C305 C 0.92581 0.51975 1.00611 0.0
H306 H 0.06162 0.49602 0.04629 0.0
C307 C 0.93249 0.59323 1.01729 0.0
H308 H 0.96616 0.4264 1.00977 0.0
C309 C 0.98564 0.63172 0.03863 0.0
C310 C 0.03319 0.59755 0.04906 0.0
H311 H 0.89598 0.62055 1.00966 0.0
H312 H 0.98926 0.68782 0.04711 0.0
C313 C 0.02671 0.52426 0.03806 0.0
C314 C 0.48235 0.50129 0.70565 0.0
C315 C 0.40904 0.43502 0.71679 0.0
H316 H 0.57967 0.53773 0.67714 0.0
C317 C 0.37453 0.35329 0.70651 0.0
H318 H 0.51081 0.56446 0.71375 0.0
C319 C 0.41257 0.33812 0.68512 0.0
C320 C 0.48588 0.40446 0.67373 0.0
H321 H 0.31837 0.30124 0.71509 0.0
H322 H 0.38494 0.27434 0.67757 0.0
C323 C 0.52092 0.48606 0.68445 0.0
C324 C 0.10535 0.66 0.68355 0.0
C325 C 0.08258 0.59774 0.70296 0.0
H326 H 0.0724 0.69522 0.64746 0.0
C327 C 0.00535 0.52161 0.70033 0.0
H328 H 0.16392 0.7198 0.6849 0.0
C329 C 0.95433 0.50681 0.67843 0.0
C330 C 0.97761 0.56889 0.65908 0.0
H331 H 0.9829 0.47345 0.71518 0.0
H332 H 0.8966 0.44644 0.67662 0.0
C333 C 0.05334 0.64586 0.66195 0.0
C334 C 0.3551 0.3707 0.33729 0.0
C335 C 0.43674 0.40507 0.32685 0.0
H336 H 0.27645 0.38166 0.36624 0.0
C337 C 0.50322 0.47855 0.3378 0.0
H338 H 0.30288 0.31445 0.32883 0.0
C339 C 0.48824 0.51754 0.35893 0.0
C340 C 0.40668 0.48277 0.36975 0.0
H341 H 0.56629 0.50694 0.32957 0.0
H342 H 0.54002 0.57648 0.36607 0.0
C343 C 0.3402 0.40914 0.3586 0.0
C344 C 0.59969 0.95182 0.99629 0.0
C345 C 0.59865 0.02773 0.99332 0.0
H346 H 0.5626 0.84124 1.0193 0.0
C347 C 0.56003 0.05152 1.01261 0.0
H348 H 0.62982 0.93235 0.98183 0.0
C349 C 0.52351 1.00062 0.03452 0.0
C350 C 0.52208 0.92314 0.03721 0.0
H351 H 0.55754 0.10939 1.01072 0.0
H352 H 0.4977 0.02326 0.0493 0.0
C353 C 0.56163 0.90002 1.0179 0.0
loop_
_geom_bond_atom_site_label_1
_geom_bond_atom_site_label_2
_geom_bond_distance
_geom_bond_site_symmetry_2
_ccdc_geom_bond_type
Co0 O3 1.970 . S
Co0 N17 1.989 . S
Co0 O25 1.967 . S
Co0 O32 1.920 . S
Co1 O4 1.966 . S
Co1 N10 2.022 . S
Co1 N18 1.993 . S
Co1 O26 1.941 . S
C2 O3 1.258 . S
C2 O4 1.263 . S
O3 Co0 1.970 . S
O3 C2 1.258 . S
O4 Co1 1.966 . S
O4 C2 1.263 . S
C5 O6 1.235 . S
C5 O32 1.289 . S
O6 C5 1.235 . S
C7 C9 1.400 . S
C7 N10 1.351 . S
C7 C12 1.501 . S
C8 C9 1.387 . S
C8 N11 1.341 . S
C9 C7 1.400 . S
C9 C8 1.387 . S
N10 Co1 2.022 . S
N10 C7 1.351 . S
N10 N11 1.365 . S
N11 C8 1.341 . S
N11 N10 1.365 . S
N11 H31 0.862 . S
C12 C7 1.501 . S
C12 H13 0.961 . S
C12 H14 0.961 . S
C12 H15 0.960 . S
H13 C12 0.961 . S
H14 C12 0.961 . S
H15 C12 0.960 . S
C16 N17 1.342 . S
C16 C20 1.401 . S
C16 C21 1.499 . S
N17 Co0 1.989 . S
N17 C16 1.342 . S
N17 N18 1.388 . S
N18 Co1 1.993 . S
N18 N17 1.388 . S
N18 C19 1.346 . S
C19 N18 1.346 . S
C19 C20 1.396 . S
C19 C29 1.510 . S
C20 C16 1.401 . S
C20 C19 1.396 . S
C21 C16 1.499 . S
C21 H22 0.959 . S
C21 H23 0.960 . S
C21 H24 0.961 . S
H22 C21 0.959 . S
H23 C21 0.960 . S
H24 C21 0.961 . S
O25 Co0 1.967 . S
O25 C33 1.258 . S
O26 Co1 1.941 . S
O26 C33 1.266 . S
H27 C29 0.959 . S
H28 C29 0.961 . S
C29 C19 1.510 . S
C29 H27 0.959 . S
C29 H28 0.961 . S
C29 H30 0.960 . S
H30 C29 0.960 . S
H31 N11 0.862 . S
O32 Co0 1.920 . S
O32 C5 1.289 . S
C33 O25 1.258 . S
C33 O26 1.266 . S
Co34 O37 1.970 . S
Co34 N51 1.989 . S
Co34 O59 1.967 . S
Co34 O66 1.920 . S
Co35 O38 1.966 . S
Co35 N44 2.022 . S
Co35 N52 1.993 . S
Co35 O60 1.941 . S
C36 O37 1.258 . S
C36 O38 1.263 . S
O37 Co34 1.970 . S
O37 C36 1.258 . S
O38 Co35 1.966 . S
O38 C36 1.263 . S
C39 O40 1.235 . S
C39 O66 1.289 1_565 S
O40 C39 1.235 . S
C41 C43 1.400 . S
C41 N44 1.351 . S
C41 C46 1.501 . S
C42 C43 1.387 . S
C42 N45 1.341 . S
C43 C41 1.400 . S
C43 C42 1.387 . S
N44 Co35 2.022 . S
N44 C41 1.351 . S
N44 N45 1.365 . S
N45 C42 1.341 . S
N45 N44 1.365 . S
N45 H65 0.862 . S
C46 C41 1.501 . S
C46 H47 0.961 . S
C46 H48 0.961 . S
C46 H49 0.960 . S
H47 C46 0.961 . S
H48 C46 0.961 . S
H49 C46 0.960 . S
C50 N51 1.342 . S
C50 C54 1.401 . S
C50 C55 1.499 1_545 S
N51 Co34 1.989 . S
N51 C50 1.342 . S
N51 N52 1.388 . S
N52 Co35 1.993 . S
N52 N51 1.388 . S
N52 C53 1.346 . S
C53 N52 1.346 . S
C53 C54 1.396 . S
C53 C63 1.510 . S
C54 C50 1.401 . S
C54 C53 1.396 . S
C55 C50 1.499 1_565 S
C55 H56 0.959 . S
C55 H57 0.960 . S
C55 H58 0.961 . S
H56 C55 0.959 . S
H57 C55 0.960 . S
H58 C55 0.961 . S
O59 Co34 1.967 . S
O59 C67 1.258 . S
O60 Co35 1.941 . S
O60 C67 1.266 . S
H61 C63 0.959 . S
H62 C63 0.961 . S
C63 C53 1.510 . S
C63 H61 0.959 . S
C63 H62 0.961 . S
C63 H64 0.960 . S
H64 C63 0.960 . S
H65 N45 0.862 . S
O66 Co34 1.920 . S
O66 C39 1.289 1_545 S
C67 O59 1.258 . S
C67 O60 1.266 . S
Co68 O71 1.970 . S
Co68 N85 1.989 . S
Co68 O93 1.967 . S
Co68 O100 1.920 . S
Co69 O72 1.966 . S
Co69 N78 2.022 . S
Co69 N86 1.993 . S
Co69 O94 1.941 . S
C70 O71 1.258 . S
C70 O72 1.263 . S
O71 Co68 1.970 . S
O71 C70 1.258 . S
O72 Co69 1.966 . S
O72 C70 1.263 . S
C73 O74 1.235 . S
C73 O100 1.289 1_455 S
O74 C73 1.235 . S
C75 C77 1.400 . S
C75 N78 1.351 . S
C75 C80 1.501 . S
C76 C77 1.387 . S
C76 N79 1.341 . S
C77 C75 1.400 . S
C77 C76 1.387 . S
N78 Co69 2.022 . S
N78 C75 1.351 . S
N78 N79 1.365 . S
N79 C76 1.341 . S
N79 N78 1.365 . S
N79 H99 0.862 . S
C80 C75 1.501 . S
C80 H81 0.961 . S
C80 H82 0.961 . S
C80 H83 0.960 . S
H81 C80 0.961 . S
H82 C80 0.961 . S
H83 C80 0.960 . S
C84 N85 1.342 . S
C84 C88 1.401 . S
C84 C89 1.499 1_655 S
N85 Co68 1.989 . S
N85 C84 1.342 . S
N85 N86 1.388 . S
N86 Co69 1.993 . S
N86 N85 1.388 . S
N86 C87 1.346 . S
C87 N86 1.346 . S
C87 C88 1.396 . S
C87 C97 1.510 . S
C88 C84 1.401 . S
C88 C87 1.396 . S
C89 C84 1.499 1_455 S
C89 H90 0.959 . S
C89 H91 0.960 . S
C89 H92 0.961 . S
H90 C89 0.959 . S
H91 C89 0.960 . S
H92 C89 0.961 . S
O93 Co68 1.967 . S
O93 C101 1.258 . S
O94 Co69 1.941 . S
O94 C101 1.266 . S
H95 C97 0.959 . S
H96 C97 0.961 . S
C97 C87 1.510 . S
C97 H95 0.959 . S
C97 H96 0.961 . S
C97 H98 0.960 . S
H98 C97 0.960 . S
H99 N79 0.862 . S
O100 Co68 1.920 . S
O100 C73 1.289 1_655 S
C101 O93 1.258 . S
C101 O94 1.266 . S
Co102 O105 1.970 . S
Co102 N119 1.989 . S
Co102 O127 1.967 . S
Co102 O134 1.920 . S
Co103 O106 1.966 . S
Co103 N112 2.022 . S
Co103 N120 1.993 . S
Co103 O128 1.941 . S
C104 O105 1.258 . S
C104 O106 1.263 . S
O105 Co102 1.970 . S
O105 C104 1.258 . S
O106 Co103 1.966 . S
O106 C104 1.263 . S
C107 O108 1.235 . S
C107 O134 1.289 . S
O108 C107 1.235 . S
C109 C111 1.400 . S
C109 N112 1.351 . S
C109 C114 1.501 . S
C110 C111 1.387 . S
C110 N113 1.341 . S
C111 C109 1.400 . S
C111 C110 1.387 . S
N112 Co103 2.022 . S
N112 C109 1.351 . S
N112 N113 1.365 . S
N113 C110 1.341 . S
N113 N112 1.365 . S
N113 H133 0.862 . S
C114 C109 1.501 . S
C114 H115 0.961 . S
C114 H116 0.961 . S
C114 H117 0.960 . S
H115 C114 0.961 . S
H116 C114 0.961 . S
H117 C114 0.960 . S
C118 N119 1.342 . S
C118 C122 1.401 . S
C118 C123 1.499 . S
N119 Co102 1.989 . S
N119 C118 1.342 . S
N119 N120 1.388 . S
N120 Co103 1.993 . S
N120 N119 1.388 . S
N120 C121 1.346 . S
C121 N120 1.346 . S
C121 C122 1.396 . S
C121 C131 1.510 . S
C122 C118 1.401 . S
C122 C121 1.396 . S
C123 C118 1.499 . S
C123 H124 0.959 . S
C123 H125 0.960 . S
C123 H126 0.961 . S
H124 C123 0.959 . S
H125 C123 0.960 . S
H126 C123 0.961 . S
O127 Co102 1.967 . S
O127 C135 1.258 . S
O128 Co103 1.941 . S
O128 C135 1.266 . S
H129 C131 0.959 . S
H130 C131 0.961 . S
C131 C121 1.510 . S
C131 H129 0.959 . S
C131 H130 0.961 . S
C131 H132 0.960 . S
H132 C131 0.960 . S
H133 N113 0.862 . S
O134 Co102 1.920 . S
O134 C107 1.289 . S
C135 O127 1.258 . S
C135 O128 1.266 . S
Co136 O139 1.970 . S
Co136 N153 1.989 . S
Co136 O161 1.967 . S
Co136 O168 1.920 . S
Co137 O140 1.966 . S
Co137 N146 2.022 . S
Co137 N154 1.993 . S
Co137 O162 1.941 . S
C138 O139 1.258 . S
C138 O140 1.263 . S
O139 Co136 1.970 . S
O139 C138 1.258 . S
O140 Co137 1.966 . S
O140 C138 1.263 . S
C141 O142 1.235 . S
C141 O168 1.289 1_545 S
O142 C141 1.235 . S
C143 C145 1.400 . S
C143 N146 1.351 . S
C143 C148 1.501 . S
C144 C145 1.387 . S
C144 N147 1.341 . S
C145 C143 1.400 . S
C145 C144 1.387 . S
N146 Co137 2.022 . S
N146 C143 1.351 . S
N146 N147 1.365 . S
N147 C144 1.341 . S
N147 N146 1.365 . S
N147 H167 0.862 . S
C148 C143 1.501 . S
C148 H149 0.961 . S
C148 H150 0.961 . S
C148 H151 0.960 . S
H149 C148 0.961 . S
H150 C148 0.961 . S
H151 C148 0.960 . S
C152 N153 1.342 . S
C152 C156 1.401 . S
C152 C157 1.499 1_565 S
N153 Co136 1.989 . S
N153 C152 1.342 . S
N153 N154 1.388 . S
N154 Co137 1.993 . S
N154 N153 1.388 . S
N154 C155 1.346 . S
C155 N154 1.346 . S
C155 C156 1.396 . S
C155 C165 1.510 . S
C156 C152 1.401 . S
C156 C155 1.396 . S
C157 C152 1.499 1_545 S
C157 H158 0.959 . S
C157 H159 0.960 . S
C157 H160 0.961 . S
H158 C157 0.959 . S
H159 C157 0.960 . S
H160 C157 0.961 . S
O161 Co136 1.967 . S
O161 C169 1.258 . S
O162 Co137 1.941 . S
O162 C169 1.266 . S
H163 C165 0.959 . S
H164 C165 0.961 . S
C165 C155 1.510 . S
C165 H163 0.959 . S
C165 H164 0.961 . S
C165 H166 0.960 . S
H166 C165 0.960 . S
H167 N147 0.862 . S
O168 Co136 1.920 . S
O168 C141 1.289 1_565 S
C169 O161 1.258 . S
C169 O162 1.266 . S
Co170 O173 1.970 . S
Co170 N187 1.989 . S
Co170 O195 1.967 . S
Co170 O202 1.920 . S
Co171 O174 1.966 . S
Co171 N180 2.022 . S
Co171 N188 1.993 . S
Co171 O196 1.941 . S
C172 O173 1.258 . S
C172 O174 1.263 . S
O173 Co170 1.970 . S
O173 C172 1.258 . S
O174 Co171 1.966 . S
O174 C172 1.263 . S
C175 O176 1.235 . S
C175 O202 1.289 1_655 S
O176 C175 1.235 . S
C177 C179 1.400 . S
C177 N180 1.351 . S
C177 C182 1.501 . S
C178 C179 1.387 . S
C178 N181 1.341 . S
C179 C177 1.400 . S
C179 C178 1.387 . S
N180 Co171 2.022 . S
N180 C177 1.351 . S
N180 N181 1.365 . S
N181 C178 1.341 . S
N181 N180 1.365 . S
N181 H201 0.862 . S
C182 C177 1.501 . S
C182 H183 0.961 . S
C182 H184 0.961 . S
C182 H185 0.960 . S
H183 C182 0.961 . S
H184 C182 0.961 . S
H185 C182 0.960 . S
C186 N187 1.342 . S
C186 C190 1.401 . S
C186 C191 1.499 1_455 S
N187 Co170 1.989 . S
N187 C186 1.342 . S
N187 N188 1.388 . S
N188 Co171 1.993 . S
N188 N187 1.388 . S
N188 C189 1.346 . S
C189 N188 1.346 . S
C189 C190 1.396 . S
C189 C199 1.510 . S
C190 C186 1.401 . S
C190 C189 1.396 . S
C191 C186 1.499 1_655 S
C191 H192 0.959 . S
C191 H193 0.960 . S
C191 H194 0.961 . S
H192 C191 0.959 . S
H193 C191 0.960 . S
H194 C191 0.961 . S
O195 Co170 1.967 . S
O195 C203 1.258 . S
O196 Co171 1.941 . S
O196 C203 1.266 . S
H197 C199 0.959 . S
H198 C199 0.961 . S
C199 C189 1.510 . S
C199 H197 0.959 . S
C199 H198 0.961 . S
C199 H200 0.960 . S
H200 C199 0.960 . S
H201 N181 0.862 . S
O202 Co170 1.920 . S
O202 C175 1.289 1_455 S
C203 O195 1.258 . S
C203 O196 1.266 . S
C204 C205 1.387 . S
C204 H208 0.950 . S
C204 C213 1.390 1_545 S
C205 C204 1.387 . S
C205 C207 1.387 . S
H206 C213 0.950 . S
C207 C205 1.387 . S
C207 C209 1.390 1_545 S
C207 H211 0.950 . S
H208 C204 0.950 . S
C209 C207 1.390 1_565 S
C209 C210 1.387 . S
C209 H212 0.950 . S
C210 C209 1.387 . S
C210 C213 1.387 . S
H211 C207 0.950 . S
H212 C209 0.950 . S
C213 C204 1.390 1_565 S
C213 H206 0.950 . S
C213 C210 1.387 . S
C214 C215 1.387 . S
C214 H218 0.950 . S
C214 C223 1.390 1_455 S
C215 C214 1.387 . S
C215 C217 1.387 . S
H216 C223 0.950 . S
C217 C215 1.387 . S
C217 C219 1.390 1_455 S
C217 H221 0.950 . S
H218 C214 0.950 . S
C219 C217 1.390 1_655 S
C219 C220 1.387 . S
C219 H222 0.950 . S
C220 C219 1.387 . S
C220 C223 1.387 . S
H221 C217 0.950 . S
H222 C219 0.950 . S
C223 C214 1.390 1_655 S
C223 H216 0.950 . S
C223 C220 1.387 . S
C224 C225 1.387 . S
C224 H228 0.950 . S
C224 C233 1.390 . S
C225 C224 1.387 . S
C225 C227 1.387 . S
H226 C233 0.950 . S
C227 C225 1.387 . S
C227 C229 1.390 . S
C227 H231 0.950 . S
H228 C224 0.950 . S
C229 C227 1.390 . S
C229 C230 1.387 . S
C229 H232 0.950 . S
C230 C229 1.387 . S
C230 C233 1.387 . S
H231 C227 0.950 . S
H232 C229 0.950 . S
C233 C224 1.390 . S
C233 H226 0.950 . S
C233 C230 1.387 . S
C234 C235 1.387 . S
C234 H238 0.950 . S
C234 C243 1.390 . S
C235 C234 1.387 . S
C235 C237 1.387 . S
H236 C243 0.950 . S
C237 C235 1.387 . S
C237 C239 1.390 . S
C237 H241 0.950 . S
H238 C234 0.950 . S
C239 C237 1.390 . S
C239 C240 1.387 . S
C239 H242 0.950 . S
C240 C239 1.387 . S
C240 C243 1.387 . S
H241 C237 0.950 . S
H242 C239 0.950 . S
C243 C234 1.390 . S
C243 H236 0.950 . S
C243 C240 1.387 . S
C244 C245 1.387 . S
C244 H248 0.950 . S
C244 C253 1.390 . S
C245 C244 1.387 . S
C245 C247 1.387 . S
H246 C253 0.950 . S
C247 C245 1.387 . S
C247 C249 1.390 . S
C247 H251 0.950 . S
H248 C244 0.950 . S
C249 C247 1.390 . S
C249 C250 1.387 . S
C249 H252 0.950 . S
C250 C249 1.387 . S
C250 C253 1.387 . S
H251 C247 0.950 . S
H252 C249 0.950 . S
C253 C244 1.390 . S
C253 H246 0.950 . S
C253 C250 1.387 . S
C254 C255 1.387 . S
C254 H258 0.950 . S
C254 C263 1.390 . S
C255 C254 1.387 . S
C255 C257 1.387 . S
H256 C263 0.950 . S
C257 C255 1.387 . S
C257 C259 1.390 . S
C257 H261 0.950 . S
H258 C254 0.950 . S
C259 C257 1.390 . S
C259 C260 1.387 . S
C259 H262 0.950 . S
C260 C259 1.387 . S
C260 C263 1.387 . S
H261 C257 0.950 . S
H262 C259 0.950 . S
C263 C254 1.390 . S
C263 H256 0.950 . S
C263 C260 1.387 . S
C264 C265 1.387 . S
C264 H268 0.950 . S
C264 C273 1.390 . S
C265 C264 1.387 . S
C265 C267 1.387 . S
H266 C273 0.950 . S
C267 C265 1.387 . S
C267 C269 1.390 . S
C267 H271 0.950 . S
H268 C264 0.950 . S
C269 C267 1.390 . S
C269 C270 1.387 . S
C269 H272 0.950 . S
C270 C269 1.387 . S
C270 C273 1.387 . S
H271 C267 0.950 . S
H272 C269 0.950 . S
C273 C264 1.390 . S
C273 H266 0.950 . S
C273 C270 1.387 . S
C274 C275 1.387 . S
C274 H278 0.950 . S
C274 C283 1.390 . S
C275 C274 1.387 . S
C275 C277 1.387 . S
H276 C283 0.950 . S
C277 C275 1.387 . S
C277 C279 1.390 . S
C277 H281 0.950 . S
H278 C274 0.950 . S
C279 C277 1.390 . S
C279 C280 1.387 . S
C279 H282 0.950 . S
C280 C279 1.387 . S
C280 C283 1.387 . S
H281 C277 0.950 . S
H282 C279 0.950 . S
C283 C274 1.390 . S
C283 H276 0.950 . S
C283 C280 1.387 . S
C284 C285 1.387 . S
C284 H288 0.950 . S
C284 C293 1.390 . S
C285 C284 1.387 . S
C285 C287 1.387 . S
H286 C293 0.950 . S
C287 C285 1.387 . S
C287 C289 1.390 . S
C287 H291 0.950 . S
H288 C284 0.950 . S
C289 C287 1.390 . S
C289 C290 1.387 . S
C289 H292 0.950 . S
C290 C289 1.387 . S
C290 C293 1.387 . S
H291 C287 0.950 . S
H292 C289 0.950 . S
C293 C284 1.390 . S
C293 H286 0.950 . S
C293 C290 1.387 . S
C294 C295 1.387 . S
C294 H298 0.950 . S
C294 C303 1.390 . S
C295 C294 1.387 . S
C295 C297 1.387 1_565 S
H296 C303 0.950 . S
C297 C295 1.387 1_545 S
C297 C299 1.390 . S
C297 H301 0.950 . S
H298 C294 0.950 . S
C299 C297 1.390 . S
C299 C300 1.387 . S
C299 H302 0.950 . S
C300 C299 1.387 . S
C300 C303 1.387 1_545 S
H301 C297 0.950 . S
H302 C299 0.950 . S
C303 C294 1.390 . S
C303 H296 0.950 . S
C303 C300 1.387 1_565 S
C304 C305 1.387 1_554 S
C304 H308 0.950 . S
C304 C313 1.390 . S
C305 C304 1.387 1_556 S
C305 C307 1.387 . S
H306 C313 0.950 . S
C307 C305 1.387 . S
C307 C309 1.390 1_556 S
C307 H311 0.950 . S
H308 C304 0.950 . S
C309 C307 1.390 1_554 S
C309 C310 1.387 1_655 S
C309 H312 0.950 1_655 S
C310 C309 1.387 1_455 S
C310 C313 1.387 1_455 S
H311 C307 0.950 . S
H312 C309 0.950 1_455 S
C313 C304 1.390 . S
C313 H306 0.950 . S
C313 C310 1.387 1_655 S
C314 C315 1.387 . S
C314 H318 0.950 . S
C314 C323 1.390 . S
C315 C314 1.387 . S
C315 C317 1.387 . S
H316 C323 0.950 . S
C317 C315 1.387 . S
C317 C319 1.390 . S
C317 H321 0.950 . S
H318 C314 0.950 . S
C319 C317 1.390 . S
C319 C320 1.387 . S
C319 H322 0.950 . S
C320 C319 1.387 . S
C320 C323 1.387 . S
H321 C317 0.950 . S
H322 C319 0.950 . S
C323 C314 1.390 . S
C323 H316 0.950 . S
C323 C320 1.387 . S
C324 C325 1.387 . S
C324 H328 0.950 . S
C324 C333 1.390 . S
C325 C324 1.387 . S
C325 C327 1.387 . S
H326 C333 0.950 . S
C327 C325 1.387 . S
C327 C329 1.390 1_455 S
C327 H331 0.950 1_455 S
H328 C324 0.950 . S
C329 C327 1.390 1_655 S
C329 C330 1.387 . S
C329 H332 0.950 . S
C330 C329 1.387 . S
C330 C333 1.387 1_655 S
H331 C327 0.950 1_655 S
H332 C329 0.950 . S
C333 C324 1.390 . S
C333 H326 0.950 . S
C333 C330 1.387 1_455 S
C334 C335 1.387 . S
C334 H338 0.950 . S
C334 C343 1.390 . S
C335 C334 1.387 . S
C335 C337 1.387 . S
H336 C343 0.950 . S
C337 C335 1.387 . S
C337 C339 1.390 . S
C337 H341 0.950 . S
H338 C334 0.950 . S
C339 C337 1.390 . S
C339 C340 1.387 . S
C339 H342 0.950 . S
C340 C339 1.387 . S
C340 C343 1.387 . S
H341 C337 0.950 . S
H342 C339 0.950 . S
C343 C334 1.390 . S
C343 H336 0.950 . S
C343 C340 1.387 . S
C344 C345 1.387 1_565 S
C344 H348 0.950 . S
C344 C353 1.390 . S
C345 C344 1.387 1_545 S
C345 C347 1.387 . S
H346 C353 0.950 . S
C347 C345 1.387 . S
C347 C349 1.390 1_556 S
C347 H351 0.950 . S
H348 C344 0.950 . S
C349 C347 1.390 1_554 S
C349 C350 1.387 1_545 S
C349 H352 0.950 . S
C350 C349 1.387 1_565 S
C350 C353 1.387 1_554 S
H351 C347 0.950 . S
H352 C349 0.950 . S
C353 C344 1.390 . S
C353 H346 0.950 . S
C353 C350 1.387 1_556 S
C205 C2 1.973 . S
C210 C172 1.973 . S
C215 C104 1.972 . S
C220 C36 1.972 . S
C225 C138 1.973 . S
C230 C70 1.973 . S
C235 C203 1.549 . S
C240 C5 1.537 . S
C245 C135 1.549 . S
C250 C39 1.537 . S
C255 C73 1.538 . S
C260 C169 1.550 . S
C265 C67 1.550 . S
C270 C107 1.539 . S
C275 C101 1.549 . S
C280 C141 1.537 . S
C285 C175 1.537 . S
C290 C33 1.549 . S
C295 C156 1.340 . S
C300 C9 1.295 . S
C305 C43 1.294 . S
C310 C190 1.340 . S
C315 C122 1.340 . S
C320 C77 1.295 . S
C325 C111 1.297 . S
C330 C88 1.341 . S
C335 C20 1.341 . S
C340 C145 1.298 . S
C345 C54 1.340 . S
C350 C179 1.295 . S
