# Generated by pormake.
# Topology smu, (6)-cn, num edge types: 1
# Building blocks:
#     Node 0, Type 0, BuildingBlock: PAMTUU_clean_sbu_0, # of connection points: 6
#     Node 1, Type 0, BuildingBlock: PAMTUU_clean_sbu_0, # of connection points: 6
#     Node 2, Type 0, BuildingBlock: PAMTUU_clean_sbu_0, # of connection points: 6
#     Node 3, Type 0, BuildingBlock: PAMTUU_clean_sbu_0, # of connection points: 6
#     Node 4, Type 0, BuildingBlock: PAMTUU_clean_sbu_0, # of connection points: 6
#     Node 5, Type 0, BuildingBlock: PAMTUU_clean_sbu_0, # of connection points: 6
#     Edge 6, Type (0, 0), BuildingBlock: EZIPEK_clean_linker_0, # of connection points: 2
#     Edge 7, Type (0, 0), BuildingBlock: EZIPEK_clean_linker_0, # of connection points: 2
#     Edge 8, Type (0, 0), BuildingBlock: EZIPEK_clean_linker_0, # of connection points: 2
#     Edge 9, Type (0, 0), BuildingBlock: EZIPEK_clean_linker_0, # of connection points: 2
#     Edge 10, Type (0, 0), BuildingBlock: EZIPEK_clean_linker_0, # of connection points: 2
#     Edge 11, Type (0, 0), BuildingBlock: EZIPEK_clean_linker_0, # of connection points: 2
#     Edge 12, Type (0, 0), BuildingBlock: EZIPEK_clean_linker_0, # of connection points: 2
#     Edge 13, Type (0, 0), BuildingBlock: EZIPEK_clean_linker_0, # of connection points: 2
#     Edge 14, Type (0, 0), BuildingBlock: EZIPEK_clean_linker_0, # of connection points: 2
#     Edge 15, Type (0, 0), BuildingBlock: EZIPEK_clean_linker_0, # of connection points: 2
#     Edge 16, Type (0, 0), BuildingBlock: EZIPEK_clean_linker_0, # of connection points: 2
#     Edge 17, Type (0, 0), BuildingBlock: EZIPEK_clean_linker_0, # of connection points: 2
#     Edge 18, Type (0, 0), BuildingBlock: EZIPEK_clean_linker_0, # of connection points: 2
#     Edge 19, Type (0, 0), BuildingBlock: EZIPEK_clean_linker_0, # of connection points: 2
#     Edge 20, Type (0, 0), BuildingBlock: EZIPEK_clean_linker_0, # of connection points: 2
#     Edge 21, Type (0, 0), BuildingBlock: EZIPEK_clean_linker_0, # of connection points: 2
#     Edge 22, Type (0, 0), BuildingBlock: EZIPEK_clean_linker_0, # of connection points: 2
#     Edge 23, Type (0, 0), BuildingBlock: EZIPEK_clean_linker_0, # of connection points: 2
# Relax obj value: 0.227
# Max RMSD: 0.334
# Mean RMSD: 0.334
data_MOF--net-smu--node1-PAMTUU_clean_sbu_0--edge1-EZIPEK_clean_linker_0
_symmetry_space_group_name_H-M    P1
_symmetry_Int_Tables_number       1
_symmetry_cell_setting            triclinic
loop_
_symmetry_equiv_pos_as_xyz
'x, y, z'
_cell_length_a     31.028271
_cell_length_b     31.305609
_cell_length_c     20.15049
_cell_angle_alpha  90.51153
_cell_angle_beta   90.050537
_cell_angle_gamma 120.1055
loop_
_atom_site_label
_atom_site_type_symbol
_atom_site_fract_x
_atom_site_fract_y
_atom_site_fract_z
_atom_type_partial_charge
Tb0 Tb 0.32293 0.12051 0.25162 0.0
Tb1 Tb 0.40584 0.08592 0.27211 0.0
C2 C 0.34825 0.06438 0.13934 0.0
C3 C 0.24671 0.18604 0.22239 0.0
C4 C 0.20376 0.24656 0.22943 0.0
C5 C 0.18956 0.2108 0.17905 0.0
C6 C 0.21098 0.18093 0.1755 0.0
C7 C 0.26401 0.22434 0.26982 0.0
C8 C 0.24291 0.2549 0.27288 0.0
C9 C 0.26124 0.14795 0.22246 0.0
O10 O 0.27907 0.04124 0.24678 0.0
O11 O 0.33277 1.01898 0.29469 0.0
O12 O 0.39147 0.10104 0.37239 0.0
O13 O 0.31779 0.09997 0.35708 0.0
O14 O 0.45564 0.06806 0.22627 0.0
O15 O 0.45638 0.07657 0.33222 0.0
O16 O 0.44306 0.16299 0.23744 0.0
O17 O 0.39055 0.18712 0.27997 0.0
O18 O 0.34137 0.10171 0.15369 0.0
O19 O 0.36694 0.04743 0.18279 0.0
C20 C 0.28736 1.00857 0.27534 0.0
O21 O 0.26074 0.1269 0.27822 0.0
O22 O 0.29794 0.15458 0.18455 0.0
C23 C 0.34979 0.09606 0.39625 0.0
C24 C 0.53443 0.10245 0.2799 0.0
C25 C 0.63997 0.15783 0.27363 0.0
C26 C 0.6159 0.11609 0.3142 0.0
C27 C 0.56369 0.08866 0.3172 0.0
C28 C 0.55855 0.14477 0.24006 0.0
C29 C 0.61082 0.17211 0.23686 0.0
C30 C 0.47919 0.07134 0.28127 0.0
C31 C 0.4343 0.19799 0.25776 0.0
H32 H 0.15941 0.20366 0.14528 0.0
H33 H 0.19749 0.15182 0.13821 0.0
H34 H 0.29183 0.22902 0.30617 0.0
H35 H 0.25409 0.28217 0.3124 0.0
H36 H 0.63759 0.1044 0.34299 0.0
H37 H 0.54609 0.05623 0.34817 0.0
H38 H 0.537 0.15639 0.21083 0.0
H39 H 0.62856 0.20419 0.20531 0.0
Tb40 Tb 0.8449 0.72157 0.27881 0.0
Tb41 Tb 0.72555 0.64457 0.25399 0.0
C42 C 0.79664 0.71248 0.13681 0.0
C43 C 0.98774 0.78383 0.28762 0.0
C44 C 0.09246 0.83406 0.27424 0.0
C45 C 0.06309 0.84389 0.23096 0.0
C46 C 1.01122 0.81897 0.23741 0.0
C47 C 1.01682 0.77024 0.32599 0.0
C48 C 0.06881 0.7949 0.31901 0.0
C49 C 0.93648 0.76943 0.30945 0.0
O50 O 0.81809 0.77164 0.26789 0.0
O51 O 0.73315 0.71954 0.24839 0.0
O52 O 0.72107 0.67126 0.35015 0.0
O53 O 0.80537 0.71308 0.37473 0.0
O54 O 0.67561 0.59198 0.18543 0.0
O55 O 0.65069 0.5979 0.28286 0.0
O56 O 0.7642 0.60564 0.28639 0.0
O57 O 0.83567 0.65486 0.23353 0.0
O58 O 0.83787 0.73142 0.1728 0.0
O59 O 0.75301 0.67814 0.15849 0.0
C60 C 0.77341 0.76445 0.25608 0.0
O61 O 0.91304 0.78779 0.27748 0.0
O62 O 0.90648 0.72395 0.32763 0.0
C63 C 0.75821 0.69829 0.39016 0.0
C64 C 0.61445 0.5166 0.23508 0.0
C65 C 0.56217 0.41164 0.24225 0.0
C66 C 0.54462 0.43943 0.2758 0.0
C67 C 0.57036 0.49126 0.27211 0.0
C68 C 0.63246 0.48862 0.2025 0.0
C69 C 0.60656 0.43679 0.20598 0.0
C70 C 0.63967 0.57153 0.22845 0.0
C71 C 0.80519 0.6122 0.25875 0.0
H72 H 0.08059 0.87413 0.19635 0.0
H73 H 0.99013 0.83032 0.20674 0.0
H74 H 0.9999 0.74356 0.36531 0.0
H75 H 0.09079 0.78716 0.35344 0.0
H76 H 0.51047 0.42092 0.30404 0.0
H77 H 0.55539 0.51157 0.29755 0.0
H78 H 0.66628 0.50666 0.17355 0.0
H79 H 0.62086 0.41622 0.17968 0.0
Tb80 Tb 0.92607 0.21302 0.26584 0.0
Tb81 Tb 0.96721 0.33008 0.24937 0.0
C82 C 0.97551 0.27137 0.13062 0.0
C83 C 0.85192 0.06763 0.26027 0.0
C84 C 0.81117 0.96508 0.23984 0.0
C85 C 0.84876 0.99912 0.19772 0.0
C86 C 0.86898 0.05028 0.20776 0.0
C87 C 0.81304 0.03352 0.30015 0.0
C88 C 0.79285 0.98284 0.29008 0.0
C89 C 0.87306 0.12051 0.27644 0.0
O90 O 1.00345 0.23694 0.25298 0.0
O91 O 0.03515 0.32219 0.25287 0.0
O92 O 0.96625 0.32118 0.35589 0.0
O93 O 0.96439 0.24691 0.3607 0.0
O94 O 0.97194 0.386 0.18787 0.0
O95 O 0.99365 0.40129 0.29075 0.0
O96 O 0.88733 0.28696 0.22662 0.0
O97 O 0.87447 0.23359 0.3069 0.0
O98 O 0.94039 0.22975 0.15761 0.0
O99 O 0.99538 0.31335 0.16303 0.0
C100 C 0.041 0.28261 0.25352 0.0
O101 O 0.91758 0.14615 0.30245 0.0
O102 O 0.86064 0.14706 0.24029 0.0
C103 C 0.97642 0.29057 0.38656 0.0
C104 C 0.95151 0.4402 0.24459 0.0
C105 C 0.89375 0.48709 0.25368 0.0
C106 C 0.94222 0.5098 0.28035 0.0
C107 C 0.97084 0.4866 0.27575 0.0
C108 C 0.90232 0.4168 0.21972 0.0
C109 C 0.87381 0.4401 0.22407 0.0
C110 C 0.98321 0.41726 0.23697 0.0
C111 C 0.85672 0.25392 0.26805 0.0
H112 H 0.86407 0.98617 0.15946 0.0
H113 H 0.8987 0.07607 0.17609 0.0
H114 H 0.79917 0.04617 0.3407 0.0
H115 H 0.76472 0.95742 0.32393 0.0
H116 H 0.95828 0.54599 0.3035 0.0
H117 H 1.00842 0.50527 0.29566 0.0
H118 H 0.88611 0.3808 0.19597 0.0
H119 H 0.8365 0.4219 0.20328 0.0
Tb120 Tb 0.09899 0.39576 0.76795 0.0
Tb121 Tb 0.13805 0.31581 0.75168 0.0
C122 C 0.08554 0.32593 0.88472 0.0
C123 C 0.11115 0.52199 0.77546 0.0
C124 C 0.15723 0.62699 0.75922 0.0
C125 C 0.13072 0.60307 0.8175 0.0
C126 C 0.10685 0.55164 0.82436 0.0
C127 C 0.14358 0.54551 0.72248 0.0
C128 C 0.1675 0.59717 0.71575 0.0
C129 C 0.08294 0.46726 0.78259 0.0
O130 O 0.17761 0.42996 0.79686 0.0
O131 O 0.19621 0.38831 0.72171 0.0
O132 O 0.10224 0.31469 0.65663 0.0
O133 O 0.10894 0.39107 0.66231 0.0
O134 O 0.19181 0.30101 0.7898 0.0
O135 O 0.14673 0.25926 0.70413 0.0
O136 O 0.05981 0.26578 0.76175 0.0
O137 O 1.03003 0.32114 0.75816 0.0
O138 O 0.06784 0.34977 0.85215 0.0
O139 O 0.12026 0.31783 0.85888 0.0
C140 C 0.21065 0.42658 0.76054 0.0
O141 O 0.07179 0.44008 0.72884 0.0
O142 O 0.09747 0.44941 0.83012 0.0
C143 C 0.09519 0.34938 0.63073 0.0
C144 C 0.21176 0.24126 0.74331 0.0
C145 C 0.26535 0.19 0.74619 0.0
C146 C 0.22352 0.17374 0.70452 0.0
C147 C 0.19704 0.19928 0.70286 0.0
C148 C 0.2548 0.25841 0.78303 0.0
C149 C 0.28136 0.23315 0.78431 0.0
C150 C 0.18299 0.26754 0.74473 0.0
C151 C 1.02323 0.27539 0.75822 0.0
H152 H 0.12789 0.62369 0.85886 0.0
H153 H 0.08485 0.53496 0.86831 0.0
H154 H 0.15081 0.52405 0.68638 0.0
H155 H 0.19465 0.61259 0.67686 0.0
H156 H 0.21032 0.14029 0.67513 0.0
H157 H 0.16439 0.18547 0.67128 0.0
H158 H 0.26754 0.29095 0.81424 0.0
H159 H 0.31317 0.24601 0.81731 0.0
Tb160 Tb 0.34249 0.95192 0.74742 0.0
Tb161 Tb 0.22523 0.92547 0.76156 0.0
C162 C 0.30255 0.95821 0.88671 0.0
C163 C 0.45212 0.93054 0.738 0.0
C164 C 0.50593 0.87989 0.75659 0.0
C165 C 0.51261 0.918 0.80042 0.0
C166 C 0.48612 0.94317 0.79112 0.0
C167 C 0.44523 0.89181 0.69487 0.0
C168 C 0.47172 0.86686 0.70411 0.0
C169 C 0.42655 0.95942 0.72422 0.0
O170 O 0.29829 0.87374 0.77381 0.0
O171 O 0.22516 0.85938 0.7278 0.0
O172 O 0.25124 0.96874 0.67041 0.0
O173 O 0.3104 0.94824 0.64892 0.0
O174 O 0.16505 0.89766 0.82774 0.0
O175 O 0.15631 0.91362 0.72579 0.0
O176 O 0.26416 1.00388 0.77415 0.0
O177 O 0.3467 0.02567 0.75495 0.0
O178 O 0.33461 0.95063 0.85406 0.0
O179 O 0.26023 0.95016 0.85992 0.0
C180 C 0.25346 0.84306 0.75108 0.0
O181 O 0.3883 0.93878 0.68424 0.0
O182 O 0.41869 0.98214 0.77329 0.0
C183 C 0.28724 0.97206 0.63237 0.0
C184 C 0.08266 0.85601 0.78388 0.0
C185 C 0.97884 0.79158 0.77686 0.0
C186 C 1.01033 0.78819 0.72938 0.0
C187 C 0.06204 0.82058 0.73255 0.0
C188 C 0.05155 0.85586 0.8345 0.0
C189 C 1.00008 0.82402 0.831 0.0
C190 C 0.13459 0.89735 0.78293 0.0
C191 C 0.31146 0.03717 0.76823 0.0
H192 H 0.53908 0.92893 0.84103 0.0
H193 H 0.4929 0.97308 0.82483 0.0
H194 H 0.41993 0.88122 0.65293 0.0
H195 H 0.46614 0.83784 0.66947 0.0
H196 H 0.99455 0.76349 0.68705 0.0
H197 H 0.08537 0.81979 0.69315 0.0
H198 H 0.06673 0.8827 0.87472 0.0
H199 H 0.97655 0.82731 0.86798 0.0
Tb200 Tb 0.65868 0.70834 0.78684 0.0
Tb201 Tb 0.73969 0.82456 0.77317 0.0
C202 C 0.73178 0.76791 0.90191 0.0
C203 C 0.53149 0.59641 0.80132 0.0
C204 C 0.42648 0.54619 0.78479 0.0
C205 C 0.44799 0.55536 0.84841 0.0
C206 C 0.49976 0.57989 0.85651 0.0
C207 C 0.51011 0.58794 0.7374 0.0
C208 C 0.458 0.5628 0.72924 0.0
C209 C 0.58627 0.62342 0.813 0.0
O210 O 0.61972 0.74625 0.75324 0.0
O211 O 0.66994 0.81349 0.81369 0.0
O212 O 0.73243 0.79313 0.67169 0.0
O213 O 0.6688 0.71189 0.68111 0.0
O214 O 0.79687 0.89163 0.81297 0.0
O215 O 0.75461 0.88997 0.72465 0.0
O216 O 0.78602 0.79359 0.75162 0.0
O217 O 0.73285 0.71221 0.78212 0.0
O218 O 0.68464 0.74172 0.88535 0.0
O219 O 0.76256 0.80286 0.86258 0.0
C220 C 0.62804 0.78718 0.78202 0.0
O221 O 0.61609 0.63222 0.76284 0.0
O222 O 0.60259 0.66165 0.85231 0.0
C223 C 0.7043 0.74766 0.64713 0.0
C224 C 0.8168 0.97134 0.76727 0.0
C225 C 0.86798 0.0753 0.76945 0.0
C226 C 0.82551 0.04883 0.72925 0.0
C227 C 0.80018 0.99719 0.72802 0.0
C228 C 0.85841 0.998 0.80903 0.0
C229 C 0.88392 0.0496 0.80987 0.0
C230 C 0.78813 0.91691 0.76935 0.0
C231 C 0.77736 0.74854 0.76247 0.0
H232 H 0.42453 0.54277 0.89194 0.0
H233 H 0.51512 0.58605 0.90629 0.0
H234 H 0.53351 0.60057 0.69387 0.0
H235 H 0.44225 0.55594 0.67967 0.0
H236 H 0.81316 0.06819 0.6971 0.0
H237 H 0.76759 0.97754 0.69645 0.0
H238 H 0.87151 0.97902 0.84067 0.0
H239 H 0.91701 0.06953 0.84052 0.0
C240 C 0.3643 0.02683 0.96435 0.0
C241 C 0.31686 0.98317 0.95375 0.0
C242 C 0.28767 1.00155 0.05775 0.0
C243 C 0.33644 0.0408 0.07216 0.0
N244 N 0.42328 0.08647 0.04335 0.0
N245 N 0.23748 0.92381 0.99956 0.0
C246 C 0.37543 0.05176 0.02696 0.0
C247 C 0.27979 0.96901 1.00335 0.0
N248 N 0.39738 0.04752 0.91352 0.0
N249 N 0.24847 0.9961 0.09475 0.0
H250 H 0.23156 0.89815 0.96212 0.0
H251 H 0.21123 0.90975 0.03739 0.0
H252 H 0.25257 0.02144 0.1315 0.0
H253 H 0.21149 0.97046 0.08339 0.0
H254 H 0.42928 0.08224 0.91711 0.0
H255 H 0.3911 0.0334 0.86551 0.0
H256 H 0.454 0.0916 0.01603 0.0
H257 H 0.43254 0.10796 0.08659 0.0
C258 C 0.73199 0.69809 0.57569 0.0
C259 C 0.71643 0.73412 0.58064 0.0
C260 C 0.72197 0.74145 0.45947 0.0
C261 C 0.74525 0.71189 0.45595 0.0
N262 N 0.77769 0.66694 0.51384 0.0
N263 N 0.70294 0.79466 0.52622 0.0
C264 C 0.75222 0.69211 0.51511 0.0
C265 C 0.71391 0.75753 0.52229 0.0
N266 N 0.72714 0.66875 0.62823 0.0
N267 N 0.70537 0.75271 0.40325 0.0
H268 H 0.69289 0.80497 0.5703 0.0
H269 H 0.70705 0.81733 0.4863 0.0
H270 H 0.70917 0.74139 0.35629 0.0
H271 H 0.6836 0.76944 0.40372 0.0
H272 H 0.73245 0.6385 0.62454 0.0
H273 H 0.71326 0.67096 0.674 0.0
H274 H 0.78988 0.65766 0.55665 0.0
H275 H 0.78998 0.65844 0.47025 0.0
C276 C 1.00837 0.32007 0.02879 0.0
C277 C 0.9956 0.27554 0.06169 0.0
C278 C 0.04391 0.26032 0.97656 0.0
C279 C 0.06321 0.30932 0.95245 0.0
N280 N 0.07588 0.39055 0.97664 0.0
N281 N 1.00892 0.20606 0.07134 0.0
C282 C 0.0494 0.34067 0.98566 0.0
C283 C 1.01542 0.24614 0.0369 0.0
N284 N 0.98153 0.34317 0.0393 0.0
N285 N 0.05076 0.22677 0.9415 0.0
H286 H 0.98806 0.19424 0.11466 0.0
H287 H 1.02712 0.18675 0.05896 0.0
H288 H 0.07106 0.23536 0.89771 0.0
H289 H 1.03303 0.18947 0.95366 0.0
H290 H 0.98815 0.37452 0.01321 0.0
H291 H 0.9494 0.32754 0.0683 0.0
H292 H 0.06853 0.41493 1.0032 0.0
H293 H 0.10856 0.4074 0.94881 0.0
C294 C 0.28495 0.04998 0.48698 0.0
C295 C 0.33535 0.07579 0.46629 0.0
C296 C 0.35636 0.03905 0.56038 0.0
C297 C 0.30441 1.00654 0.57333 0.0
N298 N 0.21958 0.9758 0.53658 0.0
N299 N 0.41974 0.11247 0.50461 0.0
C300 C 0.26887 1.01085 0.53349 0.0
C301 C 0.37142 0.07491 0.50871 0.0
N302 N 0.25329 0.06592 0.46789 0.0
N303 N 0.39193 0.03645 0.59723 0.0
H304 H 0.43025 0.14261 0.47361 0.0
H305 H 0.44789 0.11771 0.53751 0.0
H306 H 0.38527 1.01909 0.64273 0.0
H307 H 0.42882 0.05165 0.58229 0.0
H308 H 0.21714 0.05079 0.48608 0.0
H309 H 0.26545 0.09856 0.44178 0.0
H310 H 0.19309 0.97502 0.50395 0.0
H311 H 0.20625 0.94434 0.56568 0.0
C312 C 0.78551 0.79321 1.00599 0.0
C313 C 0.75188 0.75514 0.96169 0.0
C314 C 0.76796 0.69577 0.02033 0.0
C315 C 0.79546 0.73159 0.06956 0.0
N316 N 0.83445 0.81608 0.10802 0.0
N317 N 0.70707 0.66765 0.93251 0.0
C318 C 0.80639 0.78113 0.06125 0.0
C319 C 0.74198 0.70578 0.97045 0.0
N320 N 0.79616 0.84074 0.99656 0.0
N321 N 0.76766 0.65195 0.02101 0.0
H322 H 0.69007 0.67185 0.89079 0.0
H323 H 0.69308 0.63069 0.9443 0.0
H324 H 0.78773 0.64465 0.05627 0.0
H325 H 0.7525 0.62556 0.98313 0.0
H326 H 0.82502 0.87134 0.02043 0.0
H327 H 0.77638 0.8501 0.96362 0.0
H328 H 0.83842 0.85105 0.11085 0.0
H329 H 0.85378 0.8101 0.14552 0.0
C330 C 0.05983 0.33531 0.44684 0.0
C331 C 1.00675 0.30843 0.44942 0.0
C332 C 1.01419 0.32445 0.56899 0.0
C333 C 0.06582 0.33894 0.56747 0.0
N334 N 0.13669 0.35354 0.50179 0.0
N335 N 0.93309 0.27488 0.5167 0.0
C336 C 0.08818 0.34215 0.50542 0.0
C337 C 0.98373 0.30184 0.51181 0.0
N338 N 0.08339 0.35863 0.39027 0.0
N339 N 0.99453 0.33403 0.62363 0.0
H340 H 0.90988 0.25921 0.47539 0.0
H341 H 0.91481 0.26509 0.56218 0.0
H342 H 1.0169 0.3562 0.66229 0.0
H343 H 0.95783 0.32653 0.62583 0.0
H344 H 0.12202 0.38026 0.38664 0.0
H345 H 0.06395 0.36384 0.35234 0.0
H346 H 0.15299 0.35204 0.45721 0.0
H347 H 0.15919 0.36096 0.54376 0.0
C348 C 0.72457 0.2207 0.3194 0.0
C349 C 0.69576 0.18591 0.26902 0.0
C350 C 0.77294 0.20287 0.21179 0.0
C351 C 0.80166 0.23403 0.26552 0.0
N352 N 0.80533 0.27017 0.3729 0.0
N353 N 0.69164 0.14013 0.17022 0.0
C354 C 0.77754 0.2423 0.31995 0.0
C355 C 0.71976 0.17632 0.21566 0.0
N356 N 0.70122 0.23395 0.36588 0.0
N357 N 0.79651 0.19836 0.15712 0.0
H358 H 0.65279 0.12063 0.17068 0.0
H359 H 0.70645 0.12689 0.13468 0.0
H360 H 0.8351 0.21482 0.15373 0.0
H361 H 0.77822 0.18102 0.11317 0.0
H362 H 0.71997 0.26277 0.39986 0.0
H363 H 0.66262 0.21855 0.36729 0.0
H364 H 0.79007 0.27276 0.41769 0.0
H365 H 0.8442 0.28887 0.37346 0.0
C366 C 0.53776 0.33038 0.29818 0.0
C367 C 0.53303 0.35611 0.24343 0.0
C368 C 0.47193 0.27654 0.19188 0.0
C369 C 0.47245 0.25143 0.24996 0.0
N370 N 0.50362 0.25384 0.3601 0.0
N371 N 0.49317 0.35447 0.14 0.0
C372 C 0.50506 0.2782 0.30343 0.0
C373 C 0.4997 0.32931 0.19048 0.0
N374 N 0.57425 0.35582 0.34454 0.0
N375 N 0.44522 0.2497 0.13766 0.0
H376 H 0.51342 0.39286 0.13652 0.0
H377 H 0.46548 0.33782 0.10387 0.0
H378 H 0.42419 0.21121 0.13738 0.0
H379 H 0.44703 0.26498 0.09138 0.0
H380 H 0.58335 0.339 0.382 0.0
H381 H 0.59825 0.39393 0.3426 0.0
H382 H 0.52181 0.27152 0.40397 0.0
H383 H 0.48184 0.21557 0.36442 0.0
C384 C 0.86148 0.53654 0.19511 0.0
C385 C 0.86505 0.51384 0.25392 0.0
C386 C 0.82448 0.55175 0.31662 0.0
C387 C 0.81931 0.573 0.25715 0.0
N388 N 0.82044 0.57418 0.13764 0.0
N389 N 0.83947 0.49001 0.36675 0.0
C390 C 0.83399 0.56177 0.19572 0.0
C391 C 0.84306 0.51826 0.31344 0.0
N392 N 0.88607 0.53583 0.13923 0.0
N393 N 0.81476 0.56575 0.37659 0.0
H394 H 0.85296 0.46546 0.3661 0.0
H395 H 0.81918 0.48757 0.40912 0.0
H396 H 0.80192 0.59061 0.38163 0.0
H397 H 0.82327 0.55581 0.42183 0.0
H398 H 0.8897 0.55665 0.09739 0.0
H399 H 0.90639 0.51758 0.13642 0.0
H400 H 0.82595 0.56304 0.09109 0.0
H401 H 0.79879 0.59108 0.13635 0.0
C402 C 0.16072 0.70924 0.78986 0.0
C403 C 0.17686 0.68268 0.74872 0.0
C404 C 0.24261 0.76274 0.70547 0.0
C405 C 0.23164 0.78833 0.75485 0.0
N406 N 0.18264 0.78502 0.84937 0.0
N407 N 0.2054 0.69018 0.63584 0.0
C408 C 0.19147 0.76122 0.79866 0.0
C409 C 0.21095 0.7106 0.6975 0.0
N410 N 0.1125 0.68667 0.81085 0.0
N411 N 0.28242 0.78816 0.66467 0.0
H412 H 0.17322 0.65733 0.62272 0.0
H413 H 0.22678 0.70973 0.59525 0.0
H414 H 0.30566 0.82638 0.66801 0.0
H415 H 0.2945 0.77051 0.63173 0.0
H416 H 0.0973 0.70529 0.83584 0.0
H417 H 0.086 0.65144 0.7941 0.0
H418 H 0.15677 0.76619 0.88655 0.0
H419 H 0.20446 0.82302 0.85767 0.0
C420 C 0.57979 0.8713 0.72356 0.0
C421 C 0.53653 0.85516 0.76308 0.0
C422 C 0.55223 0.79291 0.81451 0.0
C423 C 0.59396 0.80752 0.77251 0.0
N424 N 0.64167 0.85352 0.67816 0.0
N425 N 0.4772 0.79625 0.83931 0.0
C426 C 0.60604 0.84471 0.72446 0.0
C427 C 0.52149 0.81464 0.80664 0.0
N428 N 0.59663 0.91299 0.68644 0.0
N429 N 0.54279 0.75915 0.86306 0.0
H430 H 0.45448 0.81189 0.83583 0.0
H431 H 0.46121 0.76366 0.86619 0.0
H432 H 0.56342 0.74137 0.86848 0.0
H433 H 0.51658 0.75076 0.90026 0.0
H434 H 0.63092 0.93004 0.66259 0.0
H435 H 0.57813 0.93303 0.68366 0.0
H436 H 0.64899 0.87653 0.63766 0.0
H437 H 0.66089 0.83412 0.67666 0.0
C438 C 0.29283 0.44082 0.80245 0.0
C439 C 0.26518 0.46009 0.77183 0.0
C440 C 0.34312 0.53873 0.75531 0.0
C441 C 0.37092 0.51654 0.77732 0.0
N442 N 0.3715 0.44267 0.80926 0.0
N443 N 0.26369 0.52658 0.71489 0.0
C444 C 0.3455 0.46643 0.79718 0.0
C445 C 0.29023 0.50898 0.74717 0.0
N446 N 0.26884 0.39925 0.83983 0.0
N447 N 0.36694 0.58841 0.74441 0.0
H448 H 0.22498 0.50625 0.71009 0.0
H449 H 0.28015 0.55989 0.68956 0.0
H450 H 0.40536 0.61118 0.75001 0.0
H451 H 0.34831 0.60765 0.735 0.0
H452 H 0.28743 0.38553 0.86777 0.0
H453 H 0.23079 0.3824 0.84956 0.0
H454 H 0.35421 0.40479 0.81741 0.0
H455 H 0.41009 0.45969 0.80439 0.0
C456 C 0.16645 0.2996 0.1992 0.0
C457 C 0.17038 0.26683 0.24401 0.0
C458 C 0.10011 0.26087 0.30672 0.0
C459 C 0.09133 0.28731 0.25649 0.0
N460 N 0.11917 0.33513 0.15596 0.0
N461 N 0.13504 0.20986 0.33517 0.0
C462 C 0.12571 0.30818 0.20364 0.0
C463 C 0.13623 0.24647 0.29712 0.0
N464 N 0.20028 0.32197 0.14999 0.0
N465 N 0.07365 0.24927 0.36419 0.0
H466 H 0.15971 0.19669 0.32992 0.0
H467 H 0.10643 0.18898 0.36822 0.0
H468 H 0.04612 0.25807 0.37245 0.0
H469 H 0.08256 0.2358 0.40597 0.0
H470 H 0.23157 0.31816 0.14347 0.0
H471 H 0.23157 0.31816 0.14347 0.0
H472 H 0.14299 0.34972 0.11545 0.0
H473 H 0.09037 0.34305 0.15709 0.0
C474 C 0.15528 0.91297 0.32736 0.0
C475 C 0.14559 0.87307 0.28465 0.0
C476 C 0.23404 0.91636 0.25182 0.0
C477 C 0.2416 0.95937 0.28676 0.0
N478 N 0.20431 0.99981 0.34785 0.0
N479 N 0.17428 0.83588 0.20453 0.0
C480 C 0.20101 0.95776 0.32239 0.0
C481 C 0.18476 0.87422 0.24689 0.0
N482 N 0.12026 0.90866 0.37226 0.0
N483 N 0.27344 0.91629 0.22178 0.0
H484 H 0.13911 0.80423 0.20199 0.0
H485 H 0.19931 0.83627 0.16987 0.0
H486 H 0.30925 0.94692 0.22215 0.0
H487 H 0.27156 0.88503 0.20038 0.0
H488 H 0.12778 0.93446 0.41004 0.0
H489 H 0.08506 0.87743 0.3761 0.0
H490 H 0.17364 1.00201 0.36435 0.0
H491 H 0.23662 0.03368 0.34756 0.0
C492 C 0.76164 0.87559 0.19945 0.0
C493 C 0.7984 0.91235 0.24195 0.0
C494 C 0.80266 0.8482 0.30449 0.0
C495 C 0.77185 0.81168 0.25649 0.0
N496 N 0.72451 0.7921 0.15438 0.0
N497 N 0.86131 0.93416 0.32647 0.0
C498 C 0.75135 0.82555 0.2032 0.0
C499 C 0.82092 0.89871 0.292 0.0
N500 N 0.73649 0.88849 0.1559 0.0
N501 N 0.81454 0.83463 0.3629 0.0
H502 H 0.87651 0.97192 0.31888 0.0
H503 H 0.88289 0.926 0.35783 0.0
H504 H 0.80256 0.79816 0.37462 0.0
H505 H 0.83195 0.85908 0.40245 0.0
H506 H 0.70579 0.86291 0.12828 0.0
H507 H 0.74443 0.92488 0.15081 0.0
H508 H 0.71365 0.80147 0.11053 0.0
H509 H 0.71583 0.7554 0.15549 0.0
C510 C 0.32307 0.15773 0.71274 0.0
C511 C 0.28777 0.1581 0.75751 0.0
C512 C 0.29346 0.09705 0.82553 0.0
C513 C 0.32083 0.08908 0.77514 0.0
N514 N 0.37044 0.11866 0.67698 0.0
N515 N 0.24095 0.12906 0.85928 0.0
C516 C 0.33899 0.12214 0.72094 0.0
C517 C 0.27406 0.12856 0.81489 0.0
N518 N 0.34153 0.19176 0.66321 0.0
N519 N 0.28322 0.07275 0.88399 0.0
H520 H 0.2237 0.15004 0.8532 0.0
H521 H 0.22954 0.10706 0.90151 0.0
H522 H 0.29727 0.04991 0.89665 0.0
H523 H 0.29727 0.04991 0.89665 0.0
H524 H 0.36958 0.19625 0.63092 0.0
H525 H 0.33029 0.21776 0.65652 0.0
H526 H 0.3814 0.13741 0.6323 0.0
H527 H 0.38673 0.0973 0.68676 0.0
C528 C 0.88852 0.73117 0.80374 0.0
C529 C 0.92443 0.76966 0.76365 0.0
C530 C 0.85741 0.77272 0.70439 0.0
C531 C 0.82243 0.7426 0.75326 0.0
N532 N 0.8035 0.68626 0.8441 0.0
N533 N 0.94301 0.83166 0.68044 0.0
C534 C 0.83741 0.71908 0.80086 0.0
C535 C 0.90883 0.79102 0.71441 0.0
N536 N 0.90345 0.70597 0.84385 0.0
N537 N 0.84148 0.78469 0.64824 0.0
H538 H 0.9814 0.84792 0.68682 0.0
H539 H 0.9332 0.85235 0.65029 0.0
H540 H 0.80433 0.77332 0.64005 0.0
H541 H 0.86428 0.80148 0.60749 0.0
H542 H 0.87914 0.67476 0.87048 0.0
H543 H 0.94047 0.71427 0.84647 0.0
H544 H 0.81305 0.67401 0.88644 0.0
H545 H 0.76538 0.67029 0.83666 0.0
C546 C 0.96465 0.19802 0.69865 0.0
C547 C 0.97289 0.2306 0.75283 0.0
C548 C 0.90239 0.16292 0.81096 0.0
C549 C 0.90043 0.12939 0.76143 0.0
N550 N 0.93335 0.11409 0.66115 0.0
N551 N 0.94905 0.24498 0.86063 0.0
C552 C 0.93195 0.14676 0.70553 0.0
C553 C 0.94094 0.21352 0.80865 0.0
N554 N 0.98899 0.21631 0.64045 0.0
N555 N 0.86738 0.14623 0.85987 0.0
H556 H 0.97436 0.2827 0.85806 0.0
H557 H 0.93191 0.23371 0.90659 0.0
H558 H 0.83921 0.10935 0.86278 0.0
H559 H 0.86391 0.16923 0.89441 0.0
H560 H 0.9806 0.19586 0.59648 0.0
H561 H 1.0142 0.25347 0.63504 0.0
H562 H 0.96033 0.12443 0.62449 0.0
H563 H 0.91033 0.07592 0.66394 0.0
loop_
_geom_bond_atom_site_label_1
_geom_bond_atom_site_label_2
_geom_bond_distance
_geom_bond_site_symmetry_2
_ccdc_geom_bond_type
Tb0 C9 2.764 . S
Tb0 O10 2.325 . S
Tb0 O13 2.303 . S
Tb0 O17 2.322 . S
Tb0 O18 2.349 . S
Tb0 O21 2.415 . S
Tb0 O22 2.399 . S
Tb1 O11 2.322 . S
Tb1 O12 2.349 . S
Tb1 O14 2.415 . S
Tb1 O15 2.399 . S
Tb1 O16 2.325 . S
Tb1 O19 2.303 . S
Tb1 C30 2.764 . S
C2 O18 1.261 . S
C2 O19 1.257 . S
C3 C6 1.358 . S
C3 C7 1.332 . S
C3 C9 1.504 . S
C4 C5 1.373 . S
C4 C8 1.308 . S
C5 C4 1.373 . S
C5 C6 1.429 . S
C5 H32 0.932 . S
C6 C3 1.358 . S
C6 C5 1.429 . S
C6 H33 0.930 . S
C7 C3 1.332 . S
C7 C8 1.394 . S
C7 H34 0.932 . S
C8 C4 1.308 . S
C8 C7 1.394 . S
C8 H35 0.929 . S
C9 Tb0 2.764 . S
C9 C3 1.504 . S
C9 O21 1.239 . S
C9 O22 1.263 . S
O10 Tb0 2.325 . S
O10 C20 1.236 . S
O11 Tb1 2.322 . S
O11 C20 1.257 . S
O12 Tb1 2.349 . S
O12 C23 1.261 . S
O13 Tb0 2.303 . S
O13 C23 1.257 . S
O14 Tb1 2.415 . S
O14 C30 1.239 . S
O15 Tb1 2.399 . S
O15 C30 1.263 . S
O16 Tb1 2.325 . S
O16 C31 1.236 . S
O17 Tb0 2.322 . S
O17 C31 1.257 . S
O18 Tb0 2.349 . S
O18 C2 1.261 . S
O19 Tb1 2.303 . S
O19 C2 1.257 . S
C20 O10 1.236 . S
C20 O11 1.257 . S
O21 Tb0 2.415 . S
O21 C9 1.239 . S
O22 Tb0 2.399 . S
O22 C9 1.263 . S
C23 O12 1.261 . S
C23 O13 1.257 . S
C24 C27 1.358 . S
C24 C28 1.332 . S
C24 C30 1.504 . S
C25 C26 1.373 . S
C25 C29 1.308 . S
C26 C25 1.373 . S
C26 C27 1.429 . S
C26 H36 0.932 . S
C27 C24 1.358 . S
C27 C26 1.429 . S
C27 H37 0.930 . S
C28 C24 1.332 . S
C28 C29 1.394 . S
C28 H38 0.932 . S
C29 C25 1.308 . S
C29 C28 1.394 . S
C29 H39 0.929 . S
C30 Tb1 2.764 . S
C30 O14 1.239 . S
C30 O15 1.263 . S
C30 C24 1.504 . S
C31 O16 1.236 . S
C31 O17 1.257 . S
H32 C5 0.932 . S
H33 C6 0.930 . S
H34 C7 0.932 . S
H35 C8 0.929 . S
H36 C26 0.932 . S
H37 C27 0.930 . S
H38 C28 0.932 . S
H39 C29 0.929 . S
Tb40 C49 2.764 . S
Tb40 O50 2.325 . S
Tb40 O53 2.303 . S
Tb40 O57 2.322 . S
Tb40 O58 2.349 . S
Tb40 O61 2.415 . S
Tb40 O62 2.399 . S
Tb41 O51 2.322 . S
Tb41 O52 2.349 . S
Tb41 O54 2.415 . S
Tb41 O55 2.399 . S
Tb41 O56 2.325 . S
Tb41 O59 2.303 . S
Tb41 C70 2.764 . S
C42 O58 1.261 . S
C42 O59 1.257 . S
C43 C46 1.358 1_655 S
C43 C47 1.332 . S
C43 C49 1.504 . S
C44 C45 1.373 . S
C44 C48 1.308 . S
C45 C44 1.373 . S
C45 C46 1.429 . S
C45 H72 0.932 . S
C46 C43 1.358 1_455 S
C46 C45 1.429 . S
C46 H73 0.930 1_455 S
C47 C43 1.332 . S
C47 C48 1.394 1_655 S
C47 H74 0.932 . S
C48 C44 1.308 . S
C48 C47 1.394 1_455 S
C48 H75 0.929 . S
C49 Tb40 2.764 . S
C49 C43 1.504 . S
C49 O61 1.239 . S
C49 O62 1.263 . S
O50 Tb40 2.325 . S
O50 C60 1.236 . S
O51 Tb41 2.322 . S
O51 C60 1.257 . S
O52 Tb41 2.349 . S
O52 C63 1.261 . S
O53 Tb40 2.303 . S
O53 C63 1.257 . S
O54 Tb41 2.415 . S
O54 C70 1.239 . S
O55 Tb41 2.399 . S
O55 C70 1.263 . S
O56 Tb41 2.325 . S
O56 C71 1.236 . S
O57 Tb40 2.322 . S
O57 C71 1.257 . S
O58 Tb40 2.349 . S
O58 C42 1.261 . S
O59 Tb41 2.303 . S
O59 C42 1.257 . S
C60 O50 1.236 . S
C60 O51 1.257 . S
O61 Tb40 2.415 . S
O61 C49 1.239 . S
O62 Tb40 2.399 . S
O62 C49 1.263 . S
C63 O52 1.261 . S
C63 O53 1.257 . S
C64 C67 1.358 . S
C64 C68 1.332 . S
C64 C70 1.504 . S
C65 C66 1.373 . S
C65 C69 1.308 . S
C66 C65 1.373 . S
C66 C67 1.429 . S
C66 H76 0.932 . S
C67 C64 1.358 . S
C67 C66 1.429 . S
C67 H77 0.930 . S
C68 C64 1.332 . S
C68 C69 1.394 . S
C68 H78 0.932 . S
C69 C65 1.308 . S
C69 C68 1.394 . S
C69 H79 0.929 . S
C70 Tb41 2.764 . S
C70 O54 1.239 . S
C70 O55 1.263 . S
C70 C64 1.504 . S
C71 O56 1.236 . S
C71 O57 1.257 . S
H72 C45 0.932 . S
H73 C46 0.930 1_655 S
H74 C47 0.932 . S
H75 C48 0.929 . S
H76 C66 0.932 . S
H77 C67 0.930 . S
H78 C68 0.932 . S
H79 C69 0.929 . S
Tb80 C89 2.764 . S
Tb80 O90 2.325 . S
Tb80 O93 2.303 . S
Tb80 O97 2.322 . S
Tb80 O98 2.349 . S
Tb80 O101 2.415 . S
Tb80 O102 2.399 . S
Tb81 O91 2.322 . S
Tb81 O92 2.349 . S
Tb81 O94 2.415 . S
Tb81 O95 2.399 . S
Tb81 O96 2.325 . S
Tb81 O99 2.303 . S
Tb81 C110 2.764 . S
C82 O98 1.261 . S
C82 O99 1.257 . S
C83 C86 1.358 1_545 S
C83 C87 1.332 . S
C83 C89 1.504 . S
C84 C85 1.373 . S
C84 C88 1.308 . S
C85 C84 1.373 . S
C85 C86 1.429 . S
C85 H112 0.932 . S
C86 C83 1.358 1_565 S
C86 C85 1.429 . S
C86 H113 0.930 1_565 S
C87 C83 1.332 . S
C87 C88 1.394 1_545 S
C87 H114 0.932 . S
C88 C84 1.308 . S
C88 C87 1.394 1_565 S
C88 H115 0.929 . S
C89 Tb80 2.764 . S
C89 C83 1.504 . S
C89 O101 1.239 . S
C89 O102 1.263 . S
O90 Tb80 2.325 . S
O90 C100 1.236 . S
O91 Tb81 2.322 . S
O91 C100 1.257 . S
O92 Tb81 2.349 . S
O92 C103 1.261 . S
O93 Tb80 2.303 . S
O93 C103 1.257 . S
O94 Tb81 2.415 . S
O94 C110 1.239 . S
O95 Tb81 2.399 . S
O95 C110 1.263 . S
O96 Tb81 2.325 . S
O96 C111 1.236 . S
O97 Tb80 2.322 . S
O97 C111 1.257 . S
O98 Tb80 2.349 . S
O98 C82 1.261 . S
O99 Tb81 2.303 . S
O99 C82 1.257 . S
C100 O90 1.236 . S
C100 O91 1.257 . S
O101 Tb80 2.415 . S
O101 C89 1.239 . S
O102 Tb80 2.399 . S
O102 C89 1.263 . S
C103 O92 1.261 . S
C103 O93 1.257 . S
C104 C107 1.358 . S
C104 C108 1.332 . S
C104 C110 1.504 . S
C105 C106 1.373 . S
C105 C109 1.308 . S
C106 C105 1.373 . S
C106 C107 1.429 . S
C106 H116 0.932 . S
C107 C104 1.358 . S
C107 C106 1.429 . S
C107 H117 0.930 . S
C108 C104 1.332 . S
C108 C109 1.394 . S
C108 H118 0.932 . S
C109 C105 1.308 . S
C109 C108 1.394 . S
C109 H119 0.929 . S
C110 Tb81 2.764 . S
C110 O94 1.239 . S
C110 O95 1.263 . S
C110 C104 1.504 . S
C111 O96 1.236 . S
C111 O97 1.257 . S
H112 C85 0.932 . S
H113 C86 0.930 1_545 S
H114 C87 0.932 . S
H115 C88 0.929 . S
H116 C106 0.932 . S
H117 C107 0.930 . S
H118 C108 0.932 . S
H119 C109 0.929 . S
Tb120 C129 2.764 . S
Tb120 O130 2.325 . S
Tb120 O133 2.303 . S
Tb120 O137 2.322 . S
Tb120 O138 2.349 . S
Tb120 O141 2.415 . S
Tb120 O142 2.399 . S
Tb121 O131 2.322 . S
Tb121 O132 2.349 . S
Tb121 O134 2.415 . S
Tb121 O135 2.399 . S
Tb121 O136 2.325 . S
Tb121 O139 2.303 . S
Tb121 C150 2.764 . S
C122 O138 1.261 . S
C122 O139 1.257 . S
C123 C126 1.358 . S
C123 C127 1.332 . S
C123 C129 1.504 . S
C124 C125 1.373 . S
C124 C128 1.308 . S
C125 C124 1.373 . S
C125 C126 1.429 . S
C125 H152 0.932 . S
C126 C123 1.358 . S
C126 C125 1.429 . S
C126 H153 0.930 . S
C127 C123 1.332 . S
C127 C128 1.394 . S
C127 H154 0.932 . S
C128 C124 1.308 . S
C128 C127 1.394 . S
C128 H155 0.929 . S
C129 Tb120 2.764 . S
C129 C123 1.504 . S
C129 O141 1.239 . S
C129 O142 1.263 . S
O130 Tb120 2.325 . S
O130 C140 1.236 . S
O131 Tb121 2.322 . S
O131 C140 1.257 . S
O132 Tb121 2.349 . S
O132 C143 1.261 . S
O133 Tb120 2.303 . S
O133 C143 1.257 . S
O134 Tb121 2.415 . S
O134 C150 1.239 . S
O135 Tb121 2.399 . S
O135 C150 1.263 . S
O136 Tb121 2.325 . S
O136 C151 1.236 . S
O137 Tb120 2.322 . S
O137 C151 1.257 . S
O138 Tb120 2.349 . S
O138 C122 1.261 . S
O139 Tb121 2.303 . S
O139 C122 1.257 . S
C140 O130 1.236 . S
C140 O131 1.257 . S
O141 Tb120 2.415 . S
O141 C129 1.239 . S
O142 Tb120 2.399 . S
O142 C129 1.263 . S
C143 O132 1.261 . S
C143 O133 1.257 . S
C144 C147 1.358 . S
C144 C148 1.332 . S
C144 C150 1.504 . S
C145 C146 1.373 . S
C145 C149 1.308 . S
C146 C145 1.373 . S
C146 C147 1.429 . S
C146 H156 0.932 . S
C147 C144 1.358 . S
C147 C146 1.429 . S
C147 H157 0.930 . S
C148 C144 1.332 . S
C148 C149 1.394 . S
C148 H158 0.932 . S
C149 C145 1.308 . S
C149 C148 1.394 . S
C149 H159 0.929 . S
C150 Tb121 2.764 . S
C150 O134 1.239 . S
C150 O135 1.263 . S
C150 C144 1.504 . S
C151 O136 1.236 . S
C151 O137 1.257 . S
H152 C125 0.932 . S
H153 C126 0.930 . S
H154 C127 0.932 . S
H155 C128 0.929 . S
H156 C146 0.932 . S
H157 C147 0.930 . S
H158 C148 0.932 . S
H159 C149 0.929 . S
Tb160 C169 2.764 . S
Tb160 O170 2.325 . S
Tb160 O173 2.303 . S
Tb160 O177 2.322 . S
Tb160 O178 2.349 . S
Tb160 O181 2.415 . S
Tb160 O182 2.399 . S
Tb161 O171 2.322 . S
Tb161 O172 2.349 . S
Tb161 O174 2.415 . S
Tb161 O175 2.399 . S
Tb161 O176 2.325 . S
Tb161 O179 2.303 . S
Tb161 C190 2.764 . S
C162 O178 1.261 . S
C162 O179 1.257 . S
C163 C166 1.358 . S
C163 C167 1.332 . S
C163 C169 1.504 . S
C164 C165 1.373 . S
C164 C168 1.308 . S
C165 C164 1.373 . S
C165 C166 1.429 . S
C165 H192 0.932 . S
C166 C163 1.358 . S
C166 C165 1.429 . S
C166 H193 0.930 . S
C167 C163 1.332 . S
C167 C168 1.394 . S
C167 H194 0.932 . S
C168 C164 1.308 . S
C168 C167 1.394 . S
C168 H195 0.929 . S
C169 Tb160 2.764 . S
C169 C163 1.504 . S
C169 O181 1.239 . S
C169 O182 1.263 . S
O170 Tb160 2.325 . S
O170 C180 1.236 . S
O171 Tb161 2.322 . S
O171 C180 1.257 . S
O172 Tb161 2.349 . S
O172 C183 1.261 . S
O173 Tb160 2.303 . S
O173 C183 1.257 . S
O174 Tb161 2.415 . S
O174 C190 1.239 . S
O175 Tb161 2.399 . S
O175 C190 1.263 . S
O176 Tb161 2.325 . S
O176 C191 1.236 . S
O177 Tb160 2.322 . S
O177 C191 1.257 . S
O178 Tb160 2.349 . S
O178 C162 1.261 . S
O179 Tb161 2.303 . S
O179 C162 1.257 . S
C180 O170 1.236 . S
C180 O171 1.257 . S
O181 Tb160 2.415 . S
O181 C169 1.239 . S
O182 Tb160 2.399 . S
O182 C169 1.263 . S
C183 O172 1.261 . S
C183 O173 1.257 . S
C184 C187 1.358 1_455 S
C184 C188 1.332 . S
C184 C190 1.504 . S
C185 C186 1.373 . S
C185 C189 1.308 . S
C186 C185 1.373 . S
C186 C187 1.429 . S
C186 H196 0.932 . S
C187 C184 1.358 1_655 S
C187 C186 1.429 . S
C187 H197 0.930 1_655 S
C188 C184 1.332 . S
C188 C189 1.394 1_455 S
C188 H198 0.932 . S
C189 C185 1.308 . S
C189 C188 1.394 1_655 S
C189 H199 0.929 . S
C190 Tb161 2.764 . S
C190 O174 1.239 . S
C190 O175 1.263 . S
C190 C184 1.504 . S
C191 O176 1.236 . S
C191 O177 1.257 . S
H192 C165 0.932 . S
H193 C166 0.930 . S
H194 C167 0.932 . S
H195 C168 0.929 . S
H196 C186 0.932 . S
H197 C187 0.930 1_455 S
H198 C188 0.932 . S
H199 C189 0.929 . S
Tb200 C209 2.764 . S
Tb200 O210 2.325 . S
Tb200 O213 2.303 . S
Tb200 O217 2.322 . S
Tb200 O218 2.349 . S
Tb200 O221 2.415 . S
Tb200 O222 2.399 . S
Tb201 O211 2.322 . S
Tb201 O212 2.349 . S
Tb201 O214 2.415 . S
Tb201 O215 2.399 . S
Tb201 O216 2.325 . S
Tb201 O219 2.303 . S
Tb201 C230 2.764 . S
C202 O218 1.261 . S
C202 O219 1.257 . S
C203 C206 1.358 . S
C203 C207 1.332 . S
C203 C209 1.504 . S
C204 C205 1.373 . S
C204 C208 1.308 . S
C205 C204 1.373 . S
C205 C206 1.429 . S
C205 H232 0.932 . S
C206 C203 1.358 . S
C206 C205 1.429 . S
C206 H233 0.930 . S
C207 C203 1.332 . S
C207 C208 1.394 . S
C207 H234 0.932 . S
C208 C204 1.308 . S
C208 C207 1.394 . S
C208 H235 0.929 . S
C209 Tb200 2.764 . S
C209 C203 1.504 . S
C209 O221 1.239 . S
C209 O222 1.263 . S
O210 Tb200 2.325 . S
O210 C220 1.236 . S
O211 Tb201 2.322 . S
O211 C220 1.257 . S
O212 Tb201 2.349 . S
O212 C223 1.261 . S
O213 Tb200 2.303 . S
O213 C223 1.257 . S
O214 Tb201 2.415 . S
O214 C230 1.239 . S
O215 Tb201 2.399 . S
O215 C230 1.263 . S
O216 Tb201 2.325 . S
O216 C231 1.236 . S
O217 Tb200 2.322 . S
O217 C231 1.257 . S
O218 Tb200 2.349 . S
O218 C202 1.261 . S
O219 Tb201 2.303 . S
O219 C202 1.257 . S
C220 O210 1.236 . S
C220 O211 1.257 . S
O221 Tb200 2.415 . S
O221 C209 1.239 . S
O222 Tb200 2.399 . S
O222 C209 1.263 . S
C223 O212 1.261 . S
C223 O213 1.257 . S
C224 C227 1.358 1_565 S
C224 C228 1.332 . S
C224 C230 1.504 . S
C225 C226 1.373 . S
C225 C229 1.308 . S
C226 C225 1.373 . S
C226 C227 1.429 . S
C226 H236 0.932 . S
C227 C224 1.358 1_545 S
C227 C226 1.429 . S
C227 H237 0.930 1_545 S
C228 C224 1.332 . S
C228 C229 1.394 1_565 S
C228 H238 0.932 . S
C229 C225 1.308 . S
C229 C228 1.394 1_545 S
C229 H239 0.929 . S
C230 Tb201 2.764 . S
C230 O214 1.239 . S
C230 O215 1.263 . S
C230 C224 1.504 . S
C231 O216 1.236 . S
C231 O217 1.257 . S
H232 C205 0.932 . S
H233 C206 0.930 . S
H234 C207 0.932 . S
H235 C208 0.929 . S
H236 C226 0.932 . S
H237 C227 0.930 1_565 S
H238 C228 0.932 . S
H239 C229 0.929 . S
C240 C241 1.355 1_545 S
C240 C246 1.393 . S
C240 N248 1.346 1_545 S
C241 C240 1.355 1_565 S
C241 C247 1.363 1_556 S
C242 C243 1.363 . S
C242 C247 1.379 1_545 S
C242 N249 1.356 . S
C243 C242 1.363 . S
C243 C246 1.363 1_554 S
N244 C246 1.356 . S
N244 H256 0.984 . S
N244 H257 0.985 1_556 S
N245 C247 1.356 . S
N245 H250 0.984 1_554 S
N245 H251 0.985 . S
C246 C240 1.393 . S
C246 C243 1.363 1_556 S
C246 N244 1.356 . S
C247 C241 1.363 1_554 S
C247 C242 1.379 1_565 S
C247 N245 1.356 . S
N248 C240 1.346 1_565 S
N248 H254 0.984 1_565 S
N248 H255 0.984 . S
N249 C242 1.356 . S
N249 H252 0.984 . S
N249 H253 0.985 . S
H250 N245 0.984 1_556 S
H251 N245 0.985 . S
H252 N249 0.984 . S
H253 N249 0.985 . S
H254 N248 0.984 1_545 S
H255 N248 0.984 . S
H256 N244 0.984 . S
H257 N244 0.985 1_554 S
C258 C259 1.363 . S
C258 C264 1.379 . S
C258 N266 1.356 . S
C259 C258 1.363 . S
C259 C265 1.363 . S
C260 C261 1.363 . S
C260 C265 1.379 . S
C260 N267 1.356 . S
C261 C260 1.363 . S
C261 C264 1.363 . S
N262 C264 1.356 . S
N262 H274 0.984 . S
N262 H275 0.985 . S
N263 C265 1.356 . S
N263 H268 0.984 . S
N263 H269 0.985 . S
C264 C258 1.379 . S
C264 C261 1.363 . S
C264 N262 1.356 . S
C265 C259 1.363 . S
C265 C260 1.379 . S
C265 N263 1.356 . S
N266 C258 1.356 . S
N266 H272 0.984 . S
N266 H273 0.984 . S
N267 C260 1.356 . S
N267 H270 0.984 . S
N267 H271 0.985 . S
H268 N263 0.984 . S
H269 N263 0.985 . S
H270 N267 0.984 . S
H271 N267 0.985 . S
H272 N266 0.984 . S
H273 N266 0.984 . S
H274 N262 0.984 . S
H275 N262 0.985 . S
C276 C277 1.363 . S
C276 C282 1.379 1_654 S
C276 N284 1.356 . S
C277 C276 1.363 . S
C277 C283 1.363 . S
C278 C279 1.363 . S
C278 C283 1.379 1_456 S
C278 N285 1.356 . S
C279 C278 1.363 . S
C279 C282 1.363 . S
N280 C282 1.356 . S
N280 H292 0.984 . S
N280 H293 0.985 . S
N281 C283 1.356 . S
N281 H286 0.984 . S
N281 H287 0.985 . S
C282 C276 1.379 1_456 S
C282 C279 1.363 . S
C282 N280 1.356 . S
C283 C277 1.363 . S
C283 C278 1.379 1_654 S
C283 N281 1.356 . S
N284 C276 1.356 . S
N284 H290 0.984 . S
N284 H291 0.984 . S
N285 C278 1.356 . S
N285 H288 0.984 . S
N285 H289 0.985 . S
H286 N281 0.984 . S
H287 N281 0.985 . S
H288 N285 0.984 . S
H289 N285 0.985 . S
H290 N284 0.984 . S
H291 N284 0.984 . S
H292 N280 0.984 . S
H293 N280 0.985 . S
C294 C295 1.363 1_565 S
C294 C300 1.379 . S
C294 N302 1.356 1_565 S
C295 C294 1.363 1_545 S
C295 C301 1.363 . S
C296 C297 1.363 . S
C296 C301 1.379 1_565 S
C296 N303 1.356 . S
C297 C296 1.363 . S
C297 C300 1.363 . S
N298 C300 1.356 . S
N298 H310 0.984 . S
N298 H311 0.985 . S
N299 C301 1.356 . S
N299 H304 0.984 . S
N299 H305 0.985 . S
C300 C294 1.379 . S
C300 C297 1.363 . S
C300 N298 1.356 . S
C301 C295 1.363 . S
C301 C296 1.379 1_545 S
C301 N299 1.356 . S
N302 C294 1.356 1_545 S
N302 H308 0.984 1_545 S
N302 H309 0.984 . S
N303 C296 1.356 . S
N303 H306 0.984 . S
N303 H307 0.985 1_565 S
H304 N299 0.984 . S
H305 N299 0.985 . S
H306 N303 0.984 . S
H307 N303 0.985 1_545 S
H308 N302 0.984 1_565 S
H309 N302 0.984 . S
H310 N298 0.984 . S
H311 N298 0.985 . S
C312 C313 1.363 1_554 S
C312 C318 1.379 . S
C312 N320 1.356 . S
C313 C312 1.363 1_556 S
C313 C319 1.363 . S
C314 C315 1.363 1_556 S
C314 C319 1.379 . S
C314 N321 1.356 . S
C315 C314 1.363 1_554 S
C315 C318 1.363 . S
N316 C318 1.356 . S
N316 H328 0.984 . S
N316 H329 0.985 . S
N317 C319 1.356 . S
N317 H322 0.984 . S
N317 H323 0.985 . S
C318 C312 1.379 . S
C318 C315 1.363 . S
C318 N316 1.356 . S
C319 C313 1.363 . S
C319 C314 1.379 . S
C319 N317 1.356 . S
N320 C312 1.356 . S
N320 H326 0.984 . S
N320 H327 0.984 1_554 S
N321 C314 1.356 . S
N321 H324 0.984 1_556 S
N321 H325 0.985 . S
H322 N317 0.984 . S
H323 N317 0.985 . S
H324 N321 0.984 1_554 S
H325 N321 0.985 . S
H326 N320 0.984 . S
H327 N320 0.984 1_556 S
H328 N316 0.984 . S
H329 N316 0.985 . S
C330 C331 1.363 1_455 S
C330 C336 1.379 . S
C330 N338 1.356 1_455 S
C331 C330 1.363 1_655 S
C331 C337 1.363 . S
C332 C333 1.363 . S
C332 C337 1.379 1_455 S
C332 N339 1.356 . S
C333 C332 1.363 . S
C333 C336 1.363 . S
N334 C336 1.356 . S
N334 H346 0.984 . S
N334 H347 0.985 . S
N335 C337 1.356 . S
N335 H340 0.984 . S
N335 H341 0.985 . S
C336 C330 1.379 . S
C336 C333 1.363 . S
C336 N334 1.356 . S
C337 C331 1.363 . S
C337 C332 1.379 1_655 S
C337 N335 1.356 . S
N338 C330 1.356 1_655 S
N338 H344 0.984 1_655 S
N338 H345 0.984 . S
N339 C332 1.356 . S
N339 H342 0.984 . S
N339 H343 0.985 1_455 S
H340 N335 0.984 . S
H341 N335 0.985 . S
H342 N339 0.984 . S
H343 N339 0.985 1_655 S
H344 N338 0.984 1_455 S
H345 N338 0.984 . S
H346 N334 0.984 . S
H347 N334 0.985 . S
C348 C349 1.363 . S
C348 C354 1.379 . S
C348 N356 1.356 . S
C349 C348 1.363 . S
C349 C355 1.363 . S
C350 C351 1.363 . S
C350 C355 1.379 . S
C350 N357 1.356 . S
C351 C350 1.363 . S
C351 C354 1.363 . S
N352 C354 1.356 . S
N352 H364 0.984 . S
N352 H365 0.985 . S
N353 C355 1.356 . S
N353 H358 0.984 . S
N353 H359 0.985 . S
C354 C348 1.379 . S
C354 C351 1.363 . S
C354 N352 1.356 . S
C355 C349 1.363 . S
C355 C350 1.379 . S
C355 N353 1.356 . S
N356 C348 1.356 . S
N356 H362 0.984 . S
N356 H363 0.984 . S
N357 C350 1.356 . S
N357 H360 0.984 . S
N357 H361 0.985 . S
H358 N353 0.984 . S
H359 N353 0.985 . S
H360 N357 0.984 . S
H361 N357 0.985 . S
H362 N356 0.984 . S
H363 N356 0.984 . S
H364 N352 0.984 . S
H365 N352 0.985 . S
C366 C367 1.363 . S
C366 C372 1.379 . S
C366 N374 1.356 . S
C367 C366 1.363 . S
C367 C373 1.363 . S
C368 C369 1.363 . S
C368 C373 1.379 . S
C368 N375 1.356 . S
C369 C368 1.363 . S
C369 C372 1.363 . S
N370 C372 1.356 . S
N370 H382 0.984 . S
N370 H383 0.985 . S
N371 C373 1.356 . S
N371 H376 0.984 . S
N371 H377 0.985 . S
C372 C366 1.379 . S
C372 C369 1.363 . S
C372 N370 1.356 . S
C373 C367 1.363 . S
C373 C368 1.379 . S
C373 N371 1.356 . S
N374 C366 1.356 . S
N374 H380 0.984 . S
N374 H381 0.984 . S
N375 C368 1.356 . S
N375 H378 0.984 . S
N375 H379 0.985 . S
H376 N371 0.984 . S
H377 N371 0.985 . S
H378 N375 0.984 . S
H379 N375 0.985 . S
H380 N374 0.984 . S
H381 N374 0.984 . S
H382 N370 0.984 . S
H383 N370 0.985 . S
C384 C385 1.363 . S
C384 C390 1.379 . S
C384 N392 1.356 . S
C385 C384 1.363 . S
C385 C391 1.363 . S
C386 C387 1.363 . S
C386 C391 1.379 . S
C386 N393 1.356 . S
C387 C386 1.363 . S
C387 C390 1.363 . S
N388 C390 1.356 . S
N388 H400 0.984 . S
N388 H401 0.985 . S
N389 C391 1.356 . S
N389 H394 0.984 . S
N389 H395 0.985 . S
C390 C384 1.379 . S
C390 C387 1.363 . S
C390 N388 1.356 . S
C391 C385 1.363 . S
C391 C386 1.379 . S
C391 N389 1.356 . S
N392 C384 1.356 . S
N392 H398 0.984 . S
N392 H399 0.984 . S
N393 C386 1.356 . S
N393 H396 0.984 . S
N393 H397 0.985 . S
H394 N389 0.984 . S
H395 N389 0.985 . S
H396 N393 0.984 . S
H397 N393 0.985 . S
H398 N392 0.984 . S
H399 N392 0.984 . S
H400 N388 0.984 . S
H401 N388 0.985 . S
C402 C403 1.363 . S
C402 C408 1.379 . S
C402 N410 1.356 . S
C403 C402 1.363 . S
C403 C409 1.363 . S
C404 C405 1.363 . S
C404 C409 1.379 . S
C404 N411 1.356 . S
C405 C404 1.363 . S
C405 C408 1.363 . S
N406 C408 1.356 . S
N406 H418 0.984 . S
N406 H419 0.985 . S
N407 C409 1.356 . S
N407 H412 0.984 . S
N407 H413 0.985 . S
C408 C402 1.379 . S
C408 C405 1.363 . S
C408 N406 1.356 . S
C409 C403 1.363 . S
C409 C404 1.379 . S
C409 N407 1.356 . S
N410 C402 1.356 . S
N410 H416 0.984 . S
N410 H417 0.984 . S
N411 C404 1.356 . S
N411 H414 0.984 . S
N411 H415 0.985 . S
H412 N407 0.984 . S
H413 N407 0.985 . S
H414 N411 0.984 . S
H415 N411 0.985 . S
H416 N410 0.984 . S
H417 N410 0.984 . S
H418 N406 0.984 . S
H419 N406 0.985 . S
C420 C421 1.363 . S
C420 C426 1.379 . S
C420 N428 1.356 . S
C421 C420 1.363 . S
C421 C427 1.363 . S
C422 C423 1.363 . S
C422 C427 1.379 . S
C422 N429 1.356 . S
C423 C422 1.363 . S
C423 C426 1.363 . S
N424 C426 1.356 . S
N424 H436 0.984 . S
N424 H437 0.985 . S
N425 C427 1.356 . S
N425 H430 0.984 . S
N425 H431 0.985 . S
C426 C420 1.379 . S
C426 C423 1.363 . S
C426 N424 1.356 . S
C427 C421 1.363 . S
C427 C422 1.379 . S
C427 N425 1.356 . S
N428 C420 1.356 . S
N428 H434 0.984 . S
N428 H435 0.984 . S
N429 C422 1.356 . S
N429 H432 0.984 . S
N429 H433 0.985 . S
H430 N425 0.984 . S
H431 N425 0.985 . S
H432 N429 0.984 . S
H433 N429 0.985 . S
H434 N428 0.984 . S
H435 N428 0.984 . S
H436 N424 0.984 . S
H437 N424 0.985 . S
C438 C439 1.363 . S
C438 C444 1.379 . S
C438 N446 1.356 . S
C439 C438 1.363 . S
C439 C445 1.363 . S
C440 C441 1.363 . S
C440 C445 1.379 . S
C440 N447 1.356 . S
C441 C440 1.363 . S
C441 C444 1.363 . S
N442 C444 1.356 . S
N442 H454 0.984 . S
N442 H455 0.985 . S
N443 C445 1.356 . S
N443 H448 0.984 . S
N443 H449 0.985 . S
C444 C438 1.379 . S
C444 C441 1.363 . S
C444 N442 1.356 . S
C445 C439 1.363 . S
C445 C440 1.379 . S
C445 N443 1.356 . S
N446 C438 1.356 . S
N446 H452 0.984 . S
N446 H453 0.984 . S
N447 C440 1.356 . S
N447 H450 0.984 . S
N447 H451 0.985 . S
H448 N443 0.984 . S
H449 N443 0.985 . S
H450 N447 0.984 . S
H451 N447 0.985 . S
H452 N446 0.984 . S
H453 N446 0.984 . S
H454 N442 0.984 . S
H455 N442 0.985 . S
C456 C457 1.363 . S
C456 C462 1.379 . S
C456 N464 1.356 . S
C457 C456 1.363 . S
C457 C463 1.363 1_455 S
C458 C459 1.363 1_655 S
C458 C463 1.379 . S
C458 N465 1.356 . S
C459 C458 1.363 1_455 S
C459 C462 1.363 . S
N460 C462 1.356 . S
N460 H472 0.984 . S
N460 H473 0.985 . S
N461 C463 1.356 . S
N461 H466 0.989 . S
N461 H467 0.985 . S
C462 C456 1.379 . S
C462 C459 1.363 . S
C462 N460 1.356 . S
C463 C457 1.363 1_655 S
C463 C458 1.379 . S
C463 N461 1.356 . S
N464 C456 1.356 . S
N464 H470 0.984 . S
N464 H471 0.984 . S
N465 C458 1.356 . S
N465 H468 0.984 . S
N465 H469 0.985 . S
H466 N461 0.989 . S
H467 N461 0.985 . S
H468 N465 0.984 . S
H469 N465 0.985 . S
H470 N464 0.984 . S
H471 N464 0.984 . S
H472 N460 0.984 . S
H473 N460 0.985 . S
C474 C475 1.367 . S
C474 C480 1.384 1_565 S
C474 N482 1.347 1_565 S
C475 C474 1.367 . S
C475 C481 1.363 . S
C476 C477 1.363 . S
C476 C481 1.379 . S
C476 N483 1.356 . S
C477 C476 1.363 . S
C477 C480 1.363 1_565 S
N478 C480 1.356 . S
N478 H490 0.984 . S
N478 H491 0.985 . S
N479 C481 1.356 . S
N479 H484 0.984 . S
N479 H485 0.985 . S
C480 C474 1.384 1_545 S
C480 C477 1.363 1_545 S
C480 N478 1.356 . S
C481 C475 1.363 . S
C481 C476 1.379 . S
C481 N479 1.356 . S
N482 C474 1.347 1_545 S
N482 H488 0.984 . S
N482 H489 0.984 1_545 S
N483 C476 1.356 . S
N483 H486 0.984 . S
N483 H487 0.985 . S
H484 N479 0.984 . S
H485 N479 0.985 . S
H486 N483 0.984 . S
H487 N483 0.985 . S
H488 N482 0.984 . S
H489 N482 0.984 1_565 S
H490 N478 0.984 . S
H491 N478 0.985 . S
C492 C493 1.363 . S
C492 C498 1.379 . S
C492 N500 1.356 . S
C493 C492 1.363 . S
C493 C499 1.363 . S
C494 C495 1.363 . S
C494 C499 1.379 . S
C494 N501 1.356 . S
C495 C494 1.363 . S
C495 C498 1.363 . S
N496 C498 1.356 . S
N496 H508 0.984 . S
N496 H509 0.985 . S
N497 C499 1.356 . S
N497 H502 0.984 . S
N497 H503 0.985 . S
C498 C492 1.379 . S
C498 C495 1.363 . S
C498 N496 1.356 . S
C499 C493 1.363 . S
C499 C494 1.379 . S
C499 N497 1.356 . S
N500 C492 1.356 . S
N500 H506 0.984 . S
N500 H507 0.984 . S
N501 C494 1.356 . S
N501 H504 0.984 . S
N501 H505 0.985 . S
H502 N497 0.984 . S
H503 N497 0.985 . S
H504 N501 0.984 . S
H505 N501 0.985 . S
H506 N500 0.984 . S
H507 N500 0.984 . S
H508 N496 0.984 . S
H509 N496 0.985 . S
C510 C511 1.363 . S
C510 C516 1.379 . S
C510 N518 1.356 . S
C511 C510 1.363 . S
C511 C517 1.363 1_545 S
C512 C513 1.363 1_565 S
C512 C517 1.379 . S
C512 N519 1.356 . S
C513 C512 1.363 1_545 S
C513 C516 1.363 . S
N514 C516 1.356 . S
N514 H526 0.984 . S
N514 H527 0.985 . S
N515 C517 1.356 . S
N515 H520 0.984 . S
N515 H521 0.985 . S
C516 C510 1.379 . S
C516 C513 1.363 . S
C516 N514 1.356 . S
C517 C511 1.363 1_565 S
C517 C512 1.379 . S
C517 N515 1.356 . S
N518 C510 1.356 . S
N518 H524 0.984 . S
N518 H525 0.984 . S
N519 C512 1.356 . S
N519 H522 0.984 . S
N519 H523 0.985 . S
H520 N515 0.984 . S
H521 N515 0.985 . S
H522 N519 0.984 . S
H523 N519 0.985 . S
H524 N518 0.984 . S
H525 N518 0.984 . S
H526 N514 0.984 . S
H527 N514 0.985 . S
C528 C529 1.363 . S
C528 C534 1.379 . S
C528 N536 1.356 . S
C529 C528 1.363 . S
C529 C535 1.363 . S
C530 C531 1.363 . S
C530 C535 1.379 . S
C530 N537 1.356 . S
C531 C530 1.363 . S
C531 C534 1.363 . S
N532 C534 1.356 . S
N532 H544 0.984 . S
N532 H545 0.985 . S
N533 C535 1.356 . S
N533 H538 0.984 . S
N533 H539 0.985 . S
C534 C528 1.379 . S
C534 C531 1.363 . S
C534 N532 1.356 . S
C535 C529 1.363 . S
C535 C530 1.379 . S
C535 N533 1.356 . S
N536 C528 1.356 . S
N536 H542 0.984 . S
N536 H543 0.984 . S
N537 C530 1.356 . S
N537 H540 0.984 . S
N537 H541 0.985 . S
H538 N533 0.984 . S
H539 N533 0.985 . S
H540 N537 0.984 . S
H541 N537 0.985 . S
H542 N536 0.984 . S
H543 N536 0.984 . S
H544 N532 0.984 . S
H545 N532 0.985 . S
C546 C547 1.363 . S
C546 C552 1.379 . S
C546 N554 1.358 1_655 S
C547 C546 1.363 . S
C547 C553 1.363 . S
C548 C549 1.363 . S
C548 C553 1.379 . S
C548 N555 1.356 . S
C549 C548 1.363 . S
C549 C552 1.363 . S
N550 C552 1.356 . S
N550 H562 0.984 . S
N550 H563 0.985 . S
N551 C553 1.356 . S
N551 H556 0.984 . S
N551 H557 0.985 . S
C552 C546 1.379 . S
C552 C549 1.363 . S
C552 N550 1.356 . S
C553 C547 1.363 . S
C553 C548 1.379 . S
C553 N551 1.356 . S
N554 C546 1.358 1_455 S
N554 H560 0.986 . S
N554 H561 0.981 . S
N555 C548 1.356 . S
N555 H558 0.984 . S
N555 H559 0.985 . S
H556 N551 0.984 . S
H557 N551 0.985 . S
H558 N555 0.984 . S
H559 N555 0.985 . S
H560 N554 0.986 . S
H561 N554 0.981 . S
H562 N550 0.984 . S
H563 N550 0.985 . S
C241 C162 2.433 . S
C243 C2 2.513 . S
C259 C223 2.513 . S
C261 C63 2.433 . S
C277 C82 2.513 . S
C279 C122 2.433 . S
C295 C23 2.433 . S
C297 C183 2.513 . S
C313 C202 2.433 . S
C315 C42 2.513 . S
C331 C103 2.433 . S
C333 C143 2.513 . S
C349 C25 1.892 . S
C351 C111 1.904 . S
C367 C65 1.892 . S
C369 C31 1.904 . S
C385 C105 1.892 . S
C387 C71 1.904 . S
C403 C124 1.892 . S
C405 C180 1.904 . S
C421 C164 1.892 . S
C423 C220 1.904 . S
C439 C140 1.904 . S
C441 C204 1.892 . S
C457 C4 1.312 . S
C459 C100 1.310 1_455 S
C475 C44 1.312 . S
C477 C20 1.310 1_565 S
C493 C84 1.312 . S
C495 C60 1.310 . S
C511 C145 1.312 . S
C513 C191 1.310 1_545 S
C529 C185 1.312 . S
C531 C231 1.310 . S
C547 C151 1.310 1_655 S
C549 C225 1.312 . S
