# Generated by pormake.
# Topology sml, (6)-cn, num edge types: 1
# Building blocks:
#     Node 0, Type 0, BuildingBlock: BETDAH_clean_sbu_0, # of connection points: 6
#     Node 1, Type 0, BuildingBlock: BETDAH_clean_sbu_0, # of connection points: 6
#     Node 2, Type 0, BuildingBlock: BETDAH_clean_sbu_0, # of connection points: 6
#     Node 3, Type 0, BuildingBlock: BETDAH_clean_sbu_0, # of connection points: 6
#     Node 4, Type 0, BuildingBlock: BETDAH_clean_sbu_0, # of connection points: 6
#     Node 5, Type 0, BuildingBlock: BETDAH_clean_sbu_0, # of connection points: 6
#     Edge 6, Type (0, 0), BuildingBlock: KIFKEQ_clean_linker_1, # of connection points: 2
#     Edge 7, Type (0, 0), BuildingBlock: KIFKEQ_clean_linker_1, # of connection points: 2
#     Edge 8, Type (0, 0), BuildingBlock: KIFKEQ_clean_linker_1, # of connection points: 2
#     Edge 9, Type (0, 0), BuildingBlock: KIFKEQ_clean_linker_1, # of connection points: 2
#     Edge 10, Type (0, 0), BuildingBlock: KIFKEQ_clean_linker_1, # of connection points: 2
#     Edge 11, Type (0, 0), BuildingBlock: KIFKEQ_clean_linker_1, # of connection points: 2
#     Edge 12, Type (0, 0), BuildingBlock: KIFKEQ_clean_linker_1, # of connection points: 2
#     Edge 13, Type (0, 0), BuildingBlock: KIFKEQ_clean_linker_1, # of connection points: 2
#     Edge 14, Type (0, 0), BuildingBlock: KIFKEQ_clean_linker_1, # of connection points: 2
#     Edge 15, Type (0, 0), BuildingBlock: KIFKEQ_clean_linker_1, # of connection points: 2
#     Edge 16, Type (0, 0), BuildingBlock: KIFKEQ_clean_linker_1, # of connection points: 2
#     Edge 17, Type (0, 0), BuildingBlock: KIFKEQ_clean_linker_1, # of connection points: 2
#     Edge 18, Type (0, 0), BuildingBlock: KIFKEQ_clean_linker_1, # of connection points: 2
#     Edge 19, Type (0, 0), BuildingBlock: KIFKEQ_clean_linker_1, # of connection points: 2
#     Edge 20, Type (0, 0), BuildingBlock: KIFKEQ_clean_linker_1, # of connection points: 2
#     Edge 21, Type (0, 0), BuildingBlock: KIFKEQ_clean_linker_1, # of connection points: 2
#     Edge 22, Type (0, 0), BuildingBlock: KIFKEQ_clean_linker_1, # of connection points: 2
#     Edge 23, Type (0, 0), BuildingBlock: KIFKEQ_clean_linker_1, # of connection points: 2
# Relax obj value: 0.175
# Max RMSD: 0.216
# Mean RMSD: 0.216
data_MOF--net-sml--node1-BETDAH_clean_sbu_0--edge1-KIFKEQ_clean_linker_1
_symmetry_space_group_name_H-M    P1
_symmetry_Int_Tables_number       1
_symmetry_cell_setting            triclinic
loop_
_symmetry_equiv_pos_as_xyz
'x, y, z'
_cell_length_a     32.618737
_cell_length_b     32.59101
_cell_length_c     25.405189
_cell_angle_alpha  89.910889
_cell_angle_beta   90.167759
_cell_angle_gamma 119.9928
loop_
_atom_site_label
_atom_site_type_symbol
_atom_site_fract_x
_atom_site_fract_y
_atom_site_fract_z
_atom_type_partial_charge
Ho0 Ho 0.17701 0.43524 0.08699 0.0
Ho1 Ho 0.21229 0.40331 0.18416 0.0
C2 C 0.19582 0.3454 0.08042 0.0
C3 C 0.16642 0.46345 0.9952 0.0
C4 C 0.17435 0.45757 0.93942 0.0
C5 C 0.20075 0.43633 0.92411 0.0
C6 C 0.20708 0.43071 0.87057 0.0
C7 C 0.18725 0.44639 0.83156 0.0
C8 C 0.16093 0.46768 0.84744 0.0
C9 C 0.15456 0.47316 0.9008 0.0
C10 C 0.1094 0.38213 0.1566 0.0
C11 C 0.19203 0.491 0.19455 0.0
C12 C 0.22842 0.37944 0.27583 0.0
C13 C 0.22347 0.38799 0.33194 0.0
C14 C 0.18177 0.38467 0.35194 0.0
C15 C 0.17777 0.39136 0.40576 0.0
C16 C 0.21543 0.4017 0.44061 0.0
C17 C 0.25734 0.40579 0.42003 0.0
C18 C 0.2612 0.39888 0.3664 0.0
C19 C 0.27798 0.45821 0.11224 0.0
O20 O 0.19363 0.38003 0.0553 0.0
O21 O 0.19597 0.34269 0.13218 0.0
O22 O 0.13317 0.42592 0.01894 0.0
O23 O 0.2042 0.4872 0.02447 0.0
O24 O 0.10905 0.41485 0.12778 0.0
O25 O 0.14366 0.37635 0.14406 0.0
O26 O 0.19486 0.4562 0.21782 0.0
O27 O 0.18944 0.49398 0.14272 0.0
O28 O 0.26029 0.41569 0.24911 0.0
O29 O 0.18948 0.35374 0.24895 0.0
O30 O 0.27906 0.42407 0.13735 0.0
O31 O 0.24407 0.46259 0.12849 0.0
H32 H 0.21639 0.42414 0.95346 0.0
H33 H 0.2279 0.41456 0.85973 0.0
H34 H 0.14453 0.47946 0.81858 0.0
H35 H 0.13388 0.48942 0.91193 0.0
H36 H 0.15213 0.37647 0.32616 0.0
H37 H 0.14482 0.38751 0.42017 0.0
H38 H 0.28741 0.41464 0.44533 0.0
H39 H 0.29377 0.40186 0.3518 0.0
Ho40 Ho 0.82701 0.2589 0.53848 0.0
Ho41 Ho 0.79 0.19446 0.44005 0.0
C42 C 0.80043 0.14795 0.54387 0.0
C43 C 0.84343 0.29915 0.62991 0.0
C44 C 0.83522 0.28637 0.68581 0.0
C45 C 0.80837 0.23904 0.70206 0.0
C46 C 0.80266 0.22788 0.75578 0.0
C47 C 0.82372 0.26395 0.79394 0.0
C48 C 0.84986 0.31134 0.77708 0.0
C49 C 0.85561 0.32237 0.72354 0.0
C50 C 0.89368 0.27274 0.46768 0.0
C51 C 0.81181 0.30313 0.4333 0.0
C52 C 0.77402 0.15533 0.34815 0.0
C53 C 0.78026 0.16951 0.29237 0.0
C54 C 0.82231 0.20842 0.27378 0.0
C55 C 0.82749 0.21997 0.2202 0.0
C56 C 0.79057 0.19313 0.1845 0.0
C57 C 0.74838 0.15469 0.20352 0.0
C58 C 0.74338 0.14295 0.2569 0.0
C59 C 0.72417 0.18512 0.51081 0.0
O60 O 0.80364 0.18498 0.56939 0.0
O61 O 0.80213 0.14676 0.49207 0.0
O62 O 0.87301 0.28953 0.60584 0.0
O63 O 0.80608 0.28905 0.60146 0.0
O64 O 0.89469 0.30579 0.4968 0.0
O65 O 0.85892 0.23295 0.48005 0.0
O66 O 0.809 0.26626 0.40812 0.0
O67 O 0.814 0.30645 0.48534 0.0
O68 O 0.74262 0.16086 0.3742 0.0
O69 O 0.81235 0.16716 0.37563 0.0
O70 O 0.72133 0.14984 0.48419 0.0
O71 O 0.75984 0.22294 0.49645 0.0
H72 H 0.79228 0.21084 0.67329 0.0
H73 H 0.78261 0.191 0.76735 0.0
H74 H 0.86575 0.34005 0.80529 0.0
H75 H 0.87626 0.35913 0.71156 0.0
H76 H 0.85118 0.22973 0.3005 0.0
H77 H 0.86022 0.2501 0.20676 0.0
H78 H 0.71953 0.13303 0.17694 0.0
H79 H 0.71071 0.11279 0.27048 0.0
Ho80 Ho 0.57053 0.72491 0.74248 0.0
Ho81 Ho 0.59491 0.79186 0.83924 0.0
C82 C 0.65128 0.83771 0.73552 0.0
C83 C 0.54853 0.68524 0.65065 0.0
C84 C 0.55469 0.69861 0.59437 0.0
C85 C 0.54281 0.73145 0.57393 0.0
C86 C 0.54763 0.74194 0.51999 0.0
C87 C 0.56471 0.72009 0.48556 0.0
C88 C 0.57702 0.68769 0.5064 0.0
C89 C 0.57192 0.677 0.56013 0.0
C90 C 0.62634 0.71703 0.81516 0.0
C91 C 0.51492 0.68077 0.84938 0.0
C92 C 0.61475 0.83227 0.9308 0.0
C93 C 0.60997 0.8183 0.98656 0.0
C94 C 0.59788 0.77218 1.0018 0.0
C95 C 0.59229 0.75966 0.05523 0.0
C96 C 0.59871 0.7931 0.09426 0.0
C97 C 0.61157 0.83942 0.07843 0.0
C98 C 0.61699 0.85178 0.02519 0.0
C99 C 0.53544 0.79439 0.76641 0.0
O100 O 0.61892 0.79915 0.71058 0.0
O101 O 0.65379 0.84048 0.78732 0.0
O102 O 0.58681 0.69376 0.67636 0.0
O103 O 0.52031 0.69443 0.67848 0.0
O104 O 0.5966 0.68252 0.78549 0.0
O105 O 0.62799 0.75514 0.80141 0.0
O106 O 0.5484 0.71937 0.87262 0.0
O107 O 0.51213 0.67587 0.79739 0.0
O108 O 0.57532 0.82003 0.90549 0.0
O109 O 0.64477 0.82596 0.90287 0.0
O110 O 0.56632 0.8315 0.7921 0.0
O111 O 0.53617 0.75847 0.78283 0.0
H112 H 0.52964 0.74886 0.59946 0.0
H113 H 0.53833 0.76745 0.50529 0.0
H114 H 0.58973 0.6698 0.48097 0.0
H115 H 0.5811 0.65142 0.57495 0.0
H116 H 0.59244 0.74583 0.97246 0.0
H117 H 0.58209 0.7236 0.06582 0.0
H118 H 0.61783 0.86641 0.10724 0.0
H119 H 0.62659 0.88761 0.01415 0.0
Ho120 Ho 0.71465 0.56722 0.22914 0.0
Ho121 Ho 0.78056 0.60001 0.13152 0.0
C122 C 0.82447 0.65416 0.23768 0.0
C123 C 0.67594 0.53868 0.32063 0.0
C124 C 0.68922 0.54812 0.3768 0.0
C125 C 0.72908 0.54765 0.39726 0.0
C126 C 0.73967 0.55518 0.45107 0.0
C127 C 0.71088 0.56369 0.48533 0.0
C128 C 0.67147 0.5648 0.46448 0.0
C129 C 0.66071 0.55694 0.41084 0.0
C130 C 0.70288 0.62467 0.16214 0.0
C131 C 0.672 0.51464 0.12118 0.0
C132 C 0.82056 0.62644 0.04024 0.0
C133 C 0.80706 0.62231 0.98441 0.0
C134 C 0.7595 0.60102 0.96861 0.0
C135 C 0.74772 0.5954 0.91496 0.0
C136 C 0.78338 0.61102 0.87633 0.0
C137 C 0.83098 0.63345 0.89276 0.0
C138 C 0.84262 0.63887 0.9462 0.0
C139 C 0.78992 0.54117 0.19927 0.0
O140 O 0.78679 0.62015 0.26206 0.0
O141 O 0.82752 0.6578 0.18592 0.0
O142 O 0.6752 0.57284 0.29438 0.0
O143 O 0.69371 0.51719 0.29337 0.0
O144 O 0.66882 0.59103 0.18894 0.0
O145 O 0.74186 0.62799 0.17485 0.0
O146 O 0.70808 0.55133 0.09824 0.0
O147 O 0.66949 0.5086 0.17288 0.0
O148 O 0.81226 0.58721 0.06351 0.0
O149 O 0.80995 0.65264 0.06974 0.0
O150 O 0.82524 0.57526 0.17446 0.0
O151 O 0.75189 0.53862 0.1847 0.0
H152 H 0.75191 0.54125 0.37183 0.0
H153 H 0.7706 0.55466 0.46582 0.0
H154 H 0.64831 0.57075 0.48984 0.0
H155 H 0.62975 0.55734 0.39596 0.0
H156 H 0.73154 0.58819 0.99765 0.0
H157 H 0.71071 0.57776 0.90384 0.0
H158 H 0.85942 0.64688 0.86427 0.0
H159 H 0.87953 0.65567 0.95773 0.0
Ho160 Ho 0.2312 0.81072 0.4386 0.0
Ho161 Ho 0.17299 0.76421 0.54076 0.0
C162 C 0.12329 0.78716 0.44217 0.0
C163 C 0.27637 0.82721 0.35035 0.0
C164 C 0.26405 0.81975 0.29398 0.0
C165 C 0.21677 0.7981 0.27712 0.0
C166 C 0.20576 0.79149 0.22333 0.0
C167 C 0.24188 0.80678 0.1853 0.0
C168 C 0.28923 0.82863 0.20269 0.0
C169 C 0.30012 0.83492 0.25645 0.0
C170 C 0.23501 0.87107 0.51358 0.0
C171 C 0.2796 0.78563 0.53821 0.0
C172 C 0.12923 0.74971 0.62954 0.0
C173 C 0.14261 0.75663 0.68572 0.0
C174 C 0.18301 0.75599 0.70385 0.0
C175 C 0.19476 0.76213 0.75747 0.0
C176 C 0.16659 0.76949 0.79387 0.0
C177 C 0.12654 0.77074 0.77527 0.0
C178 C 0.11467 0.76429 0.72176 0.0
C179 C 0.17019 0.70389 0.46641 0.0
O180 O 0.15932 0.79521 0.41145 0.0
O181 O 0.12269 0.77822 0.49316 0.0
O182 O 0.26875 0.85828 0.37429 0.0
O183 O 0.26335 0.789 0.37854 0.0
O184 O 0.23884 0.88079 0.46366 0.0
O185 O 0.23417 0.83254 0.52056 0.0
O186 O 0.24368 0.77852 0.56835 0.0
O187 O 0.28138 0.79576 0.48719 0.0
O188 O 0.13381 0.71706 0.60463 0.0
O189 O 0.14372 0.78836 0.60169 0.0
O190 O 0.16674 0.6946 0.51648 0.0
O191 O 0.17044 0.74208 0.45875 0.0
H192 H 0.18839 0.78638 0.30551 0.0
H193 H 0.1689 0.77401 0.21163 0.0
H194 H 0.31806 0.84164 0.17476 0.0
H195 H 0.33685 0.85197 0.26873 0.0
H196 H 0.20542 0.75066 0.6766 0.0
H197 H 0.22616 0.76159 0.77036 0.0
H198 H 0.10385 0.77589 0.80225 0.0
H199 H 0.08345 0.76505 0.70852 0.0
Ho200 Ho 0.43613 0.17828 0.87006 0.0
Ho201 Ho 0.41216 0.21785 0.77187 0.0
C202 C 0.35083 0.20322 0.87242 0.0
C203 C 0.45749 0.16139 0.96262 0.0
C204 C 0.45116 0.16949 0.01851 0.0
C205 C 0.47803 0.21435 0.04195 0.0
C206 C 0.47355 0.22045 0.09568 0.0
C207 C 0.44215 0.18186 0.127 0.0
C208 C 0.41495 0.13722 0.10335 0.0
C209 C 0.41958 0.13108 0.04977 0.0
C210 C 0.38334 0.11305 0.79759 0.0
C211 C 0.49349 0.18892 0.76612 0.0
C212 C 0.39338 0.23856 0.68004 0.0
C213 C 0.39957 0.23052 0.62457 0.0
C214 C 0.40167 0.19044 0.60838 0.0
C215 C 0.40793 0.18408 0.55513 0.0
C216 C 0.41257 0.21792 0.51753 0.0
C217 C 0.41052 0.25796 0.53422 0.0
C218 C 0.40406 0.26414 0.58724 0.0
C219 C 0.46547 0.28211 0.84604 0.0
O220 O 0.38323 0.19876 0.89953 0.0
O221 O 0.35057 0.2045 0.82059 0.0
O222 O 0.4194 0.13141 0.93681 0.0
O223 O 0.48601 0.19831 0.93433 0.0
O224 O 0.41444 0.11058 0.82719 0.0
O225 O 0.3792 0.14822 0.8103 0.0
O226 O 0.45986 0.19228 0.74076 0.0
O227 O 0.49651 0.19012 0.81808 0.0
O228 O 0.43224 0.26615 0.70607 0.0
O229 O 0.36328 0.20154 0.70723 0.0
O230 O 0.43381 0.28488 0.81786 0.0
O231 O 0.4691 0.24725 0.83132 0.0
H232 H 0.50292 0.24467 0.01906 0.0
H233 H 0.49467 0.25538 0.1127 0.0
H234 H 0.39095 0.10667 0.12656 0.0
H235 H 0.39891 0.096 0.03293 0.0
H236 H 0.3986 0.16423 0.63682 0.0
H237 H 0.40976 0.15308 0.54349 0.0
H238 H 0.41329 0.28428 0.50615 0.0
H239 H 0.40252 0.29527 0.59915 0.0
H240 H 0.31187 0.1715 0.9696 0.0
H241 H 0.31499 0.25766 0.83882 0.0
H242 H 0.26162 0.19377 0.01835 0.0
H243 H 0.2685 0.28312 0.8883 0.0
H244 H 0.17492 0.31886 0.9771 0.0
H245 H 0.20063 0.27265 0.92572 0.0
H246 H 0.26916 0.25685 0.06433 0.0
H247 H 0.24032 0.29929 0.1156 0.0
C248 C 0.30169 0.19517 0.95139 0.0
C249 C 0.31727 0.21293 0.90064 0.0
C250 C 0.27322 0.20835 0.97937 0.0
C251 C 0.26119 0.2409 0.95782 0.0
C252 C 0.27586 0.25733 0.9062 0.0
C253 C 0.30303 0.24303 0.87779 0.0
C254 C 0.19454 0.30441 0.99654 0.0
C255 C 0.20566 0.31271 0.05023 0.0
C256 C 0.20977 0.2783 0.96708 0.0
C257 C 0.23777 0.26133 0.9904 0.0
C258 C 0.24706 0.26825 0.04474 0.0
C259 C 0.23073 0.29309 0.07433 0.0
H260 H 0.10016 0.31 0.22165 0.0
H261 H 0.04125 0.40003 0.18783 0.0
H262 H 0.0475 0.27766 0.29852 0.0
H263 H 0.98857 0.36722 0.26254 0.0
H264 H 0.96081 0.35886 0.43536 0.0
H265 H 0.01249 0.37902 0.35981 0.0
H266 H 0.95389 0.23061 0.32396 0.0
H267 H 0.90212 0.20997 0.40171 0.0
C268 C 0.07596 0.32265 0.23051 0.0
C269 C 0.07555 0.3583 0.19971 0.0
C270 C 0.04557 0.30382 0.27392 0.0
C271 C 0.01458 0.32053 0.28665 0.0
C272 C 0.01271 0.35433 0.25406 0.0
C273 C 0.04285 0.37302 0.21121 0.0
C274 C 0.959 0.33032 0.4118 0.0
C275 C 0.92669 0.28282 0.42368 0.0
C276 C 0.98856 0.34194 0.36843 0.0
C277 C 0.98654 0.30639 0.33569 0.0
C278 C 0.95587 0.25861 0.34866 0.0
C279 C 0.92601 0.24686 0.39258 0.0
H280 H 0.77976 0.12957 0.6488 0.0
H281 H 0.79368 0.06644 0.50535 0.0
H282 H 0.74997 0.05394 0.6938 0.0
H283 H 0.76461 0.99108 0.55065 0.0
H284 H 0.64563 0.85471 0.6307 0.0
H285 H 0.68854 0.93037 0.58488 0.0
H286 H 0.76931 0.99541 0.72594 0.0
H287 H 0.72603 0.92014 0.772 0.0
C288 C 0.77737 0.09989 0.62708 0.0
C289 C 0.78884 0.10413 0.57333 0.0
C290 C 0.76039 0.05646 0.65295 0.0
C291 C 0.75454 0.01628 0.6257 0.0
C292 C 0.76792 0.02108 0.57255 0.0
C293 C 0.7849 0.06446 0.5467 0.0
C294 C 0.6731 0.88491 0.6517 0.0
C295 C 0.68204 0.88136 0.70518 0.0
C296 C 0.69781 0.92834 0.62538 0.0
C297 C 0.73206 0.96913 0.65192 0.0
C298 C 0.74255 0.96494 0.70463 0.0
C299 C 0.71787 0.92163 0.73093 0.0
H300 H 0.69035 0.78226 0.88528 0.0
H301 H 0.60263 0.63211 0.85728 0.0
H302 H 0.71105 0.76538 0.97284 0.0
H303 H 0.62434 0.61542 0.94266 0.0
H304 H 0.61849 0.59957 0.11688 0.0
H305 H 0.60388 0.62727 0.03388 0.0
H306 H 0.75366 0.72493 0.01672 0.0
H307 H 0.76818 0.69811 0.10166 0.0
C308 C 0.67552 0.74586 0.89788 0.0
C309 C 0.64391 0.7086 0.86524 0.0
C310 C 0.68773 0.73619 0.94752 0.0
C311 C 0.66848 0.6891 0.96484 0.0
C312 C 0.63875 0.65207 0.93092 0.0
C313 C 0.62663 0.66168 0.88178 0.0
C314 C 0.64831 0.62739 0.09585 0.0
C315 C 0.69463 0.6459 0.11492 0.0
C316 C 0.63996 0.64304 0.04815 0.0
C317 C 0.67775 0.67755 0.01839 0.0
C318 C 0.72394 0.69812 0.03881 0.0
C319 C 0.7323 0.68242 0.08691 0.0
H320 H 0.11396 0.82623 0.35095 0.0
H321 H 0.03329 0.73147 0.47714 0.0
H322 H 0.04077 0.80605 0.30454 0.0
H323 H 0.96056 0.70848 0.42958 0.0
H324 H 0.91524 0.70294 0.20315 0.0
H325 H 0.98644 0.74388 0.25532 0.0
H326 H 0.90189 0.71987 0.39524 0.0
H327 H 0.83012 0.67566 0.34273 0.0
C328 C 0.08049 0.80127 0.36884 0.0
C329 C 0.0793 0.78019 0.4174 0.0
C330 C 0.03845 0.78928 0.34208 0.0
C331 C -0.00564 0.7548 0.36256 0.0
C332 C -0.0066 0.7356 0.41254 0.0
C333 C 0.03532 0.74855 0.43984 0.0
C334 C 0.91174 0.70699 0.24494 0.0
C335 C 0.86703 0.68569 0.26889 0.0
C336 C 0.95285 0.73097 0.27506 0.0
C337 C 0.95041 0.7352 0.32993 0.0
C338 C 0.90541 0.7164 0.35337 0.0
C339 C 0.86417 0.69138 0.32326 0.0
H340 H 0.39285 0.03877 0.76889 0.0
H341 H 0.31431 0.1096 0.73222 0.0
H342 H 0.34995 0.98041 0.70098 0.0
H343 H 0.27116 0.05075 0.66299 0.0
H344 H 0.25926 0.96427 0.50451 0.0
H345 H 0.29004 0.02405 0.57463 0.0
H346 H 0.26631 0.91539 0.68787 0.0
H347 H 0.23669 0.85629 0.61825 0.0
C348 C 0.36624 0.04178 0.74631 0.0
C349 C 0.35677 0.0786 0.75582 0.0
C350 C 0.34151 0.00821 0.70757 0.0
C351 C 0.30682 0.01074 0.67723 0.0
C352 C 0.29775 0.04806 0.68595 0.0
C353 C 0.32238 0.08164 0.72536 0.0
C354 C 0.25991 0.95321 0.54459 0.0
C355 C 0.24621 0.90588 0.55596 0.0
C356 C 0.27728 0.9873 0.58464 0.0
C357 C 0.28114 0.97435 0.63641 0.0
C358 C 0.26445 0.92644 0.6481 0.0
C359 C 0.24727 0.89258 0.60828 0.0
H360 H 0.18237 0.36923 0.78228 0.0
H361 H 0.20575 0.50969 0.75156 0.0
H362 H 0.18885 0.35808 0.68836 0.0
H363 H 0.2126 0.49878 0.65782 0.0
H364 H 0.17241 0.44555 0.48922 0.0
H365 H 0.16551 0.45537 0.58326 0.0
H366 H 0.24382 0.38361 0.6166 0.0
H367 H 0.24863 0.37168 0.5228 0.0
C368 C 0.18946 0.39795 0.75556 0.0
C369 C 0.19333 0.44027 0.77451 0.0
C370 C 0.19317 0.39158 0.70164 0.0
C371 C 0.20101 0.42743 0.66529 0.0
C372 C 0.20559 0.47001 0.68442 0.0
C373 C 0.20176 0.47632 0.73826 0.0
C374 C 0.18766 0.43133 0.51658 0.0
C375 C 0.21114 0.40786 0.49819 0.0
C376 C 0.18425 0.43752 0.5706 0.0
C377 C 0.20428 0.42048 0.60771 0.0
C378 C 0.22755 0.39681 0.58931 0.0
C379 C 0.23085 0.39052 0.53534 0.0
H380 H 0.72651 0.19684 0.11794 0.0
H381 H 0.86687 0.21472 0.12211 0.0
H382 H 0.73456 0.21334 0.02373 0.0
H383 H 0.87476 0.23044 0.02771 0.0
H384 H 0.89165 0.30466 0.87038 0.0
H385 H 0.88355 0.28863 0.9644 0.0
H386 H 0.73785 0.17955 0.94096 0.0
H387 H 0.7453 0.19733 0.84703 0.0
C388 C 0.75897 0.20399 0.09859 0.0
C389 C 0.79607 0.20451 0.12743 0.0
C390 C 0.76354 0.21328 0.04455 0.0
C391 C 0.80524 0.22306 0.01799 0.0
C392 C 0.84242 0.22375 0.04698 0.0
C393 C 0.83794 0.21474 0.10109 0.0
C394 C 0.8577 0.27759 0.8853 0.0
C395 C 0.81902 0.25252 0.85111 0.0
C396 C 0.85324 0.26796 0.93921 0.0
C397 C 0.81004 0.2328 0.96039 0.0
C398 C 0.77148 0.20731 0.92613 0.0
C399 C 0.77591 0.21707 0.87214 0.0
H400 H 0.5018 0.728 0.42068 0.0
H401 H 0.63761 0.73522 0.42017 0.0
H402 H 0.50824 0.74306 0.32619 0.0
H403 H 0.64455 0.75107 0.32585 0.0
H404 H 0.62359 0.73544 0.14821 0.0
H405 H 0.61363 0.71598 0.24177 0.0
H406 H 0.55035 0.80382 0.26333 0.0
H407 H 0.55795 0.82113 0.16968 0.0
C408 C 0.53329 0.73333 0.40048 0.0
C409 C 0.56919 0.73044 0.42804 0.0
C410 C 0.53703 0.74199 0.34622 0.0
C411 C 0.57694 0.7483 0.31812 0.0
C412 C 0.61291 0.74555 0.34584 0.0
C413 C 0.60903 0.73662 0.40003 0.0
C414 C 0.60693 0.75005 0.17277 0.0
C415 C 0.59182 0.78009 0.15123 0.0
C416 C 0.60177 0.73939 0.22665 0.0
C417 C 0.58139 0.75849 0.26041 0.0
C418 C 0.56576 0.78801 0.23866 0.0
C419 C 0.57076 0.79852 0.18488 0.0
H420 H 0.71377 0.61825 0.82275 0.0
H421 H 0.82564 0.5856 0.80021 0.0
H422 H 0.69488 0.60541 0.72904 0.0
H423 H 0.80855 0.57536 0.70656 0.0
H424 H 0.73634 0.51317 0.55032 0.0
H425 H 0.75185 0.52323 0.64465 0.0
H426 H 0.72487 0.64027 0.64454 0.0
H427 H 0.70852 0.62951 0.55028 0.0
C428 C 0.73432 0.60831 0.7979 0.0
C429 C 0.77137 0.60316 0.81917 0.0
C430 C 0.72388 0.60152 0.74398 0.0
C431 C 0.75024 0.58943 0.71 0.0
C432 C 0.78708 0.58407 0.73144 0.0
C433 C 0.79736 0.59065 0.78522 0.0
C434 C 0.73408 0.54127 0.57039 0.0
C435 C 0.72131 0.5706 0.54275 0.0
C436 C 0.743 0.5471 0.62454 0.0
C437 C 0.73972 0.58265 0.65243 0.0
C438 C 0.72698 0.61202 0.62467 0.0
C439 C 0.71776 0.60598 0.57054 0.0
H440 H 0.16505 0.83348 0.86249 0.0
H441 H 0.195 0.71873 0.85478 0.0
H442 H 0.18333 0.84235 0.95631 0.0
H443 H 0.21244 0.72687 0.94882 0.0
H444 H 0.28503 0.78392 0.10705 0.0
H445 H 0.26829 0.77649 0.01308 0.0
H446 H 0.15421 0.80525 0.03919 0.0
H447 H 0.17273 0.8154 0.13279 0.0
C448 C 0.17517 0.80986 0.88096 0.0
C449 C 0.17853 0.77538 0.85108 0.0
C450 C 0.18554 0.81483 0.93487 0.0
C451 C 0.19927 0.78524 0.9605 0.0
C452 C 0.20275 0.75084 0.93047 0.0
C453 C 0.19268 0.74609 0.87646 0.0
C454 C 0.25672 0.78925 0.09277 0.0
C455 C 0.23041 0.80048 0.12781 0.0
C456 C 0.24666 0.78432 0.03878 0.0
C457 C 0.20983 0.79023 0.01822 0.0
C458 C 0.18326 0.80107 0.05331 0.0
C459 C 0.19346 0.80622 0.10728 0.0
H460 H 0.36619 0.13701 0.45868 0.0
H461 H 0.47361 0.28473 0.44851 0.0
H462 H 0.3746 0.12784 0.3646 0.0
H463 H 0.4809 0.27601 0.35431 0.0
H464 H 0.51421 0.23112 0.19696 0.0
H465 H 0.50844 0.23872 0.29178 0.0
H466 H 0.35613 0.15312 0.2816 0.0
H467 H 0.36195 0.14537 0.18683 0.0
C468 C 0.3918 0.16741 0.43641 0.0
C469 C 0.41911 0.21162 0.46093 0.0
C470 C 0.39624 0.16231 0.38244 0.0
C471 C 0.42821 0.20127 0.35192 0.0
C472 C 0.45619 0.24523 0.37673 0.0
C473 C 0.45167 0.25034 0.4306 0.0
C474 C 0.47948 0.21433 0.21492 0.0
C475 C 0.43853 0.18767 0.18443 0.0
C476 C 0.47618 0.21861 0.26924 0.0
C477 C 0.43183 0.19638 0.29426 0.0
C478 C 0.39087 0.16994 0.26368 0.0
C479 C 0.39419 0.16562 0.20939 0.0
H480 H 0.1487 0.54414 0.17929 0.0
H481 H 0.23495 0.51886 0.2891 0.0
H482 H 0.14173 0.59629 0.24381 0.0
H483 H 0.22986 0.57181 0.35204 0.0
H484 H 0.16898 0.62049 0.47827 0.0
H485 H 0.17346 0.5708 0.40979 0.0
H486 H 0.18073 0.6697 0.29132 0.0
H487 H 0.17328 0.7178 0.36023 0.0
C488 C 0.16683 0.55045 0.21675 0.0
C489 C 0.19187 0.5271 0.22945 0.0
C490 C 0.16291 0.58029 0.25373 0.0
C491 C 0.18447 0.58758 0.30368 0.0
C492 C 0.21145 0.5659 0.31484 0.0
C493 C 0.21473 0.5358 0.27847 0.0
C494 C 0.17129 0.63142 0.43758 0.0
C495 C 0.1716 0.67334 0.42454 0.0
C496 C 0.1743 0.6032 0.39823 0.0
C497 C 0.17837 0.6166 0.34488 0.0
C498 C 0.17751 0.65812 0.33183 0.0
C499 C 0.17381 0.68601 0.37131 0.0
H500 H 0.64891 0.10534 0.55136 0.0
H501 H 0.72387 0.25798 0.56187 0.0
H502 H 0.59318 0.10132 0.61884 0.0
H503 H 0.67008 0.25379 0.63093 0.0
H504 H 0.58669 0.21982 0.78764 0.0
H505 H 0.64417 0.21506 0.72932 0.0
H506 H 0.53341 0.13712 0.6157 0.0
H507 H 0.47642 0.14283 0.67296 0.0
C508 C 0.65385 0.13789 0.5686 0.0
C509 C 0.69108 0.18196 0.55208 0.0
C510 C 0.62221 0.13557 0.6072 0.0
C511 C 0.628 0.17724 0.63044 0.0
C512 C 0.66558 0.22116 0.61437 0.0
C513 C 0.69641 0.22351 0.57503 0.0
C514 C 0.57466 0.20119 0.75052 0.0
C515 C 0.52738 0.18209 0.73448 0.0
C516 C 0.60742 0.19855 0.71727 0.0
C517 C 0.59296 0.17566 0.66827 0.0
C518 C 0.54523 0.15461 0.65347 0.0
C519 C 0.51282 0.15822 0.68604 0.0
H520 H 0.29192 0.542 0.07493 0.0
H521 H 0.33587 0.43835 0.0527 0.0
H522 H 0.34672 0.59146 1.00637 0.0
H523 H 0.39098 0.4882 0.98334 0.0
H524 H 0.44846 0.58756 0.82623 0.0
H525 H 0.38852 0.529 0.88651 0.0
H526 H 0.44073 0.63302 0.01086 0.0
H527 H 0.49995 0.69057 0.95231 0.0
C528 C 0.31297 0.52958 0.05491 0.0
C529 C 0.31 0.48661 0.06929 0.0
C530 C 0.34426 0.55785 0.01573 0.0
C531 C 0.37296 0.54355 0.98969 0.0
C532 C 0.36892 0.49975 1.00265 0.0
C533 C 0.33786 0.4716 0.04255 0.0
C534 C 0.44712 0.59769 0.86649 0.0
C535 C 0.47901 0.64379 0.88427 0.0
C536 C 0.41306 0.56422 0.90089 0.0
C537 C 0.40997 0.57681 0.95307 0.0
C538 C 0.4421 0.62258 0.97071 0.0
C539 C 0.47624 0.65549 0.93697 0.0
H540 H 0.84066 0.3953 0.46089 0.0
H541 H 0.77881 0.2949 0.33326 0.0
H542 H 0.83609 0.45553 0.4068 0.0
H543 H 0.77354 0.35444 0.28036 0.0
H544 H 0.71913 0.45549 0.23207 0.0
H545 H 0.72521 0.39975 0.29175 0.0
H546 H 0.87422 0.49843 0.31302 0.0
H547 H 0.86836 0.55406 0.25234 0.0
C548 C 0.82606 0.38608 0.42151 0.0
C549 C 0.81014 0.34036 0.40139 0.0
C550 C 0.82361 0.42051 0.39061 0.0
C551 C 0.8042 0.4094 0.33964 0.0
C552 C 0.78827 0.36376 0.3197 0.0
C553 C 0.79158 0.32979 0.34999 0.0
C554 C 0.75311 0.46537 0.24972 0.0
C555 C 0.79337 0.50882 0.23738 0.0
C556 C 0.75658 0.4335 0.28372 0.0
C557 C 0.8002 0.44485 0.3068 0.0
C558 C 0.84018 0.48901 0.29588 0.0
C559 C 0.83688 0.52058 0.26101 0.0
H560 H 0.27565 0.73741 0.62645 0.0
H561 H 0.37385 0.83203 0.51006 0.0
H562 H 0.34066 0.73963 0.67555 0.0
H563 H 0.43978 0.83442 0.5601 0.0
H564 H 0.53641 0.86919 0.7158 0.0
H565 H 0.47731 0.86595 0.65314 0.0
H566 H 0.40071 0.71331 0.66407 0.0
H567 H 0.459 0.71657 0.72668 0.0
C568 C 0.31121 0.75848 0.61111 0.0
C569 C 0.31965 0.78462 0.56439 0.0
C570 C 0.34846 0.75952 0.63917 0.0
C571 C 0.39527 0.78712 0.62163 0.0
C572 C 0.40396 0.81297 0.57454 0.0
C573 C 0.36632 0.81134 0.54579 0.0
C574 C 0.50707 0.83504 0.70437 0.0
C575 C 0.50204 0.79316 0.72625 0.0
C576 C 0.47358 0.83315 0.66823 0.0
C577 C 0.43435 0.78937 0.65393 0.0
C578 C 0.43037 0.74755 0.67467 0.0
C579 C 0.46385 0.74943 0.71036 0.0
H580 H 0.61856 0.41878 0.13596 0.0
H581 H 0.64216 0.53092 0.02791 0.0
H582 H 0.56435 0.35987 0.07211 0.0
H583 H 0.58776 0.47243 0.9649 0.0
H584 H 0.45378 0.35281 0.88632 0.0
H585 H 0.49852 0.40744 0.95777 0.0
H586 H 0.58088 0.33805 0.97671 0.0
H587 H 0.53745 0.28466 0.90384 0.0
C588 C 0.61141 0.43079 0.0991 0.0
C589 C 0.63459 0.47927 0.08669 0.0
C590 C 0.58078 0.3972 0.06253 0.0
C591 C 0.57209 0.41172 0.01363 0.0
C592 C 0.59365 0.46031 1.0024 0.0
C593 C 0.6249 0.49372 0.03836 0.0
C594 C 0.4814 0.34921 0.90581 0.0
C595 C 0.4919 0.31422 0.88993 0.0
C596 C 0.50684 0.38034 0.94671 0.0
C597 C 0.54279 0.37662 0.97297 0.0
C598 C 0.55277 0.34113 0.95767 0.0
C599 C 0.52789 0.31054 0.91611 0.0
loop_
_geom_bond_atom_site_label_1
_geom_bond_atom_site_label_2
_geom_bond_distance
_geom_bond_site_symmetry_2
_ccdc_geom_bond_type
Ho0 C3 2.811 . S
Ho0 O20 2.322 . S
Ho0 O22 2.378 . S
Ho0 O23 2.524 . S
Ho0 O24 2.381 . S
Ho0 O25 2.669 . S
Ho0 O27 2.346 . S
Ho0 O31 2.305 . S
Ho1 C12 2.811 . S
Ho1 O21 2.346 . S
Ho1 O25 2.305 . S
Ho1 O26 2.322 . S
Ho1 O28 2.378 . S
Ho1 O29 2.524 . S
Ho1 O30 2.381 . S
Ho1 O31 2.669 . S
C2 O20 1.259 . S
C2 O21 1.268 . S
C3 Ho0 2.811 . S
C3 C4 1.505 . S
C3 O22 1.215 . S
C3 O23 1.289 . S
C4 C3 1.505 . S
C4 C5 1.338 1_554 S
C4 C9 1.406 1_554 S
C5 C4 1.338 1_556 S
C5 C6 1.442 . S
C5 H32 0.930 . S
C6 C5 1.442 . S
C6 C7 1.381 . S
C6 H33 0.931 . S
C7 C6 1.381 . S
C7 C8 1.321 . S
C8 C7 1.321 . S
C8 C9 1.403 . S
C8 H34 0.934 . S
C9 C4 1.406 1_556 S
C9 C8 1.403 . S
C9 H35 0.925 1_556 S
C10 O24 1.275 . S
C10 O25 1.256 . S
C11 O26 1.259 . S
C11 O27 1.268 . S
C12 Ho1 2.811 . S
C12 C13 1.488 . S
C12 O28 1.215 . S
C12 O29 1.289 . S
C13 C12 1.488 . S
C13 C14 1.348 . S
C13 C18 1.413 . S
C14 C13 1.348 . S
C14 C15 1.442 . S
C14 H36 0.930 . S
C15 C14 1.442 . S
C15 C16 1.381 . S
C15 H37 0.931 . S
C16 C15 1.381 . S
C16 C17 1.321 . S
C17 C16 1.321 . S
C17 C18 1.403 . S
C17 H38 0.934 . S
C18 C13 1.413 . S
C18 C17 1.403 . S
C18 H39 0.930 . S
C19 O30 1.275 . S
C19 O31 1.256 . S
O20 Ho0 2.322 . S
O20 C2 1.259 . S
O21 Ho1 2.346 . S
O21 C2 1.268 . S
O22 Ho0 2.378 . S
O22 C3 1.215 . S
O23 Ho0 2.524 . S
O23 C3 1.289 . S
O24 Ho0 2.381 . S
O24 C10 1.275 . S
O25 Ho0 2.669 . S
O25 Ho1 2.305 . S
O25 C10 1.256 . S
O26 Ho1 2.322 . S
O26 C11 1.259 . S
O27 Ho0 2.346 . S
O27 C11 1.268 . S
O28 Ho1 2.378 . S
O28 C12 1.215 . S
O29 Ho1 2.524 . S
O29 C12 1.289 . S
O30 Ho1 2.381 . S
O30 C19 1.275 . S
O31 Ho0 2.305 . S
O31 Ho1 2.669 . S
O31 C19 1.256 . S
H32 C5 0.930 . S
H33 C6 0.931 . S
H34 C8 0.934 . S
H35 C9 0.925 1_554 S
H36 C14 0.930 . S
H37 C15 0.931 . S
H38 C17 0.934 . S
H39 C18 0.930 . S
Ho40 C43 2.811 . S
Ho40 O60 2.322 . S
Ho40 O62 2.378 . S
Ho40 O63 2.524 . S
Ho40 O64 2.381 . S
Ho40 O65 2.669 . S
Ho40 O67 2.346 . S
Ho40 O71 2.305 . S
Ho41 C52 2.811 . S
Ho41 O61 2.346 . S
Ho41 O65 2.305 . S
Ho41 O66 2.322 . S
Ho41 O68 2.378 . S
Ho41 O69 2.524 . S
Ho41 O70 2.381 . S
Ho41 O71 2.669 . S
C42 O60 1.259 . S
C42 O61 1.268 . S
C43 Ho40 2.811 . S
C43 C44 1.488 . S
C43 O62 1.215 . S
C43 O63 1.289 . S
C44 C43 1.488 . S
C44 C45 1.348 . S
C44 C49 1.413 . S
C45 C44 1.348 . S
C45 C46 1.442 . S
C45 H72 0.930 . S
C46 C45 1.442 . S
C46 C47 1.381 . S
C46 H73 0.931 . S
C47 C46 1.381 . S
C47 C48 1.321 . S
C48 C47 1.321 . S
C48 C49 1.403 . S
C48 H74 0.934 . S
C49 C44 1.413 . S
C49 C48 1.403 . S
C49 H75 0.930 . S
C50 O64 1.275 . S
C50 O65 1.256 . S
C51 O66 1.259 . S
C51 O67 1.268 . S
C52 Ho41 2.811 . S
C52 C53 1.488 . S
C52 O68 1.215 . S
C52 O69 1.289 . S
C53 C52 1.488 . S
C53 C54 1.348 . S
C53 C58 1.413 . S
C54 C53 1.348 . S
C54 C55 1.442 . S
C54 H76 0.930 . S
C55 C54 1.442 . S
C55 C56 1.381 . S
C55 H77 0.931 . S
C56 C55 1.381 . S
C56 C57 1.321 . S
C57 C56 1.321 . S
C57 C58 1.403 . S
C57 H78 0.934 . S
C58 C53 1.413 . S
C58 C57 1.403 . S
C58 H79 0.930 . S
C59 O70 1.275 . S
C59 O71 1.256 . S
O60 Ho40 2.322 . S
O60 C42 1.259 . S
O61 Ho41 2.346 . S
O61 C42 1.268 . S
O62 Ho40 2.378 . S
O62 C43 1.215 . S
O63 Ho40 2.524 . S
O63 C43 1.289 . S
O64 Ho40 2.381 . S
O64 C50 1.275 . S
O65 Ho40 2.669 . S
O65 Ho41 2.305 . S
O65 C50 1.256 . S
O66 Ho41 2.322 . S
O66 C51 1.259 . S
O67 Ho40 2.346 . S
O67 C51 1.268 . S
O68 Ho41 2.378 . S
O68 C52 1.215 . S
O69 Ho41 2.524 . S
O69 C52 1.289 . S
O70 Ho41 2.381 . S
O70 C59 1.275 . S
O71 Ho40 2.305 . S
O71 Ho41 2.669 . S
O71 C59 1.256 . S
H72 C45 0.930 . S
H73 C46 0.931 . S
H74 C48 0.934 . S
H75 C49 0.930 . S
H76 C54 0.930 . S
H77 C55 0.931 . S
H78 C57 0.934 . S
H79 C58 0.930 . S
Ho80 C83 2.811 . S
Ho80 O100 2.322 . S
Ho80 O102 2.378 . S
Ho80 O103 2.524 . S
Ho80 O104 2.381 . S
Ho80 O105 2.669 . S
Ho80 O107 2.346 . S
Ho80 O111 2.305 . S
Ho81 C92 2.811 1_556 S
Ho81 O101 2.346 . S
Ho81 O105 2.305 . S
Ho81 O106 2.322 . S
Ho81 O108 2.378 1_556 S
Ho81 O109 2.524 1_556 S
Ho81 O110 2.381 . S
Ho81 O111 2.669 . S
C82 O100 1.259 . S
C82 O101 1.268 . S
C83 Ho80 2.811 . S
C83 C84 1.488 . S
C83 O102 1.215 . S
C83 O103 1.289 . S
C84 C83 1.488 . S
C84 C85 1.348 . S
C84 C89 1.413 . S
C85 C84 1.348 . S
C85 C86 1.442 . S
C85 H112 0.930 . S
C86 C85 1.442 . S
C86 C87 1.381 . S
C86 H113 0.931 . S
C87 C86 1.381 . S
C87 C88 1.321 . S
C88 C87 1.321 . S
C88 C89 1.403 . S
C88 H114 0.934 . S
C89 C84 1.413 . S
C89 C88 1.403 . S
C89 H115 0.930 . S
C90 O104 1.275 . S
C90 O105 1.256 . S
C91 O106 1.259 . S
C91 O107 1.268 . S
C92 Ho81 2.811 1_554 S
C92 C93 1.488 . S
C92 O108 1.215 . S
C92 O109 1.289 . S
C93 C92 1.488 . S
C93 C94 1.348 . S
C93 C98 1.413 . S
C94 C93 1.348 . S
C94 C95 1.442 . S
C94 H116 0.930 . S
C95 C94 1.442 . S
C95 C96 1.381 . S
C95 H117 0.931 . S
C96 C95 1.381 . S
C96 C97 1.321 . S
C97 C96 1.321 . S
C97 C98 1.403 . S
C97 H118 0.934 . S
C98 C93 1.413 . S
C98 C97 1.403 . S
C98 H119 0.930 . S
C99 O110 1.275 . S
C99 O111 1.256 . S
O100 Ho80 2.322 . S
O100 C82 1.259 . S
O101 Ho81 2.346 . S
O101 C82 1.268 . S
O102 Ho80 2.378 . S
O102 C83 1.215 . S
O103 Ho80 2.524 . S
O103 C83 1.289 . S
O104 Ho80 2.381 . S
O104 C90 1.275 . S
O105 Ho80 2.669 . S
O105 Ho81 2.305 . S
O105 C90 1.256 . S
O106 Ho81 2.322 . S
O106 C91 1.259 . S
O107 Ho80 2.346 . S
O107 C91 1.268 . S
O108 Ho81 2.378 1_554 S
O108 C92 1.215 . S
O109 Ho81 2.524 1_554 S
O109 C92 1.289 . S
O110 Ho81 2.381 . S
O110 C99 1.275 . S
O111 Ho80 2.305 . S
O111 Ho81 2.669 . S
O111 C99 1.256 . S
H112 C85 0.930 . S
H113 C86 0.931 . S
H114 C88 0.934 . S
H115 C89 0.930 . S
H116 C94 0.930 . S
H117 C95 0.931 . S
H118 C97 0.934 . S
H119 C98 0.930 . S
Ho120 C123 2.811 . S
Ho120 O140 2.322 . S
Ho120 O142 2.378 . S
Ho120 O143 2.524 . S
Ho120 O144 2.381 . S
Ho120 O145 2.669 . S
Ho120 O147 2.346 . S
Ho120 O151 2.305 . S
Ho121 C132 2.811 1_554 S
Ho121 O141 2.346 . S
Ho121 O145 2.305 . S
Ho121 O146 2.322 1_554 S
Ho121 O148 2.378 1_554 S
Ho121 O149 2.524 1_554 S
Ho121 O150 2.381 . S
Ho121 O151 2.669 . S
C122 O140 1.259 . S
C122 O141 1.268 . S
C123 Ho120 2.811 . S
C123 C124 1.488 . S
C123 O142 1.215 . S
C123 O143 1.289 . S
C124 C123 1.488 . S
C124 C125 1.348 . S
C124 C129 1.413 . S
C125 C124 1.348 . S
C125 C126 1.442 . S
C125 H152 0.930 . S
C126 C125 1.442 . S
C126 C127 1.381 . S
C126 H153 0.931 . S
C127 C126 1.381 . S
C127 C128 1.321 . S
C128 C127 1.321 . S
C128 C129 1.403 . S
C128 H154 0.934 . S
C129 C124 1.413 . S
C129 C128 1.403 . S
C129 H155 0.930 . S
C130 O144 1.275 . S
C130 O145 1.256 . S
C131 O146 1.259 . S
C131 O147 1.268 1_556 S
C132 Ho121 2.811 1_556 S
C132 C133 1.488 . S
C132 O148 1.215 . S
C132 O149 1.289 . S
C133 C132 1.488 . S
C133 C134 1.348 . S
C133 C138 1.413 . S
C134 C133 1.348 . S
C134 C135 1.442 . S
C134 H156 0.930 . S
C135 C134 1.442 . S
C135 C136 1.381 . S
C135 H157 0.931 . S
C136 C135 1.381 . S
C136 C137 1.321 . S
C137 C136 1.321 . S
C137 C138 1.403 . S
C137 H158 0.934 . S
C138 C133 1.413 . S
C138 C137 1.403 . S
C138 H159 0.930 . S
C139 O150 1.275 . S
C139 O151 1.256 . S
O140 Ho120 2.322 . S
O140 C122 1.259 . S
O141 Ho121 2.346 . S
O141 C122 1.268 . S
O142 Ho120 2.378 . S
O142 C123 1.215 . S
O143 Ho120 2.524 . S
O143 C123 1.289 . S
O144 Ho120 2.381 . S
O144 C130 1.275 . S
O145 Ho120 2.669 . S
O145 Ho121 2.305 . S
O145 C130 1.256 . S
O146 Ho121 2.322 1_556 S
O146 C131 1.259 . S
O147 Ho120 2.346 . S
O147 C131 1.268 1_554 S
O148 Ho121 2.378 1_556 S
O148 C132 1.215 . S
O149 Ho121 2.524 1_556 S
O149 C132 1.289 . S
O150 Ho121 2.381 . S
O150 C139 1.275 . S
O151 Ho120 2.305 . S
O151 Ho121 2.669 . S
O151 C139 1.256 . S
H152 C125 0.930 . S
H153 C126 0.931 . S
H154 C128 0.934 . S
H155 C129 0.930 . S
H156 C134 0.930 . S
H157 C135 0.931 . S
H158 C137 0.934 . S
H159 C138 0.930 . S
Ho160 C163 2.811 . S
Ho160 O180 2.322 . S
Ho160 O182 2.378 . S
Ho160 O183 2.524 . S
Ho160 O184 2.381 . S
Ho160 O185 2.669 . S
Ho160 O187 2.346 . S
Ho160 O191 2.305 . S
Ho161 C172 2.811 . S
Ho161 O181 2.346 . S
Ho161 O185 2.305 . S
Ho161 O186 2.322 . S
Ho161 O188 2.378 . S
Ho161 O189 2.524 . S
Ho161 O190 2.381 . S
Ho161 O191 2.669 . S
C162 O180 1.259 . S
C162 O181 1.268 . S
C163 Ho160 2.811 . S
C163 C164 1.488 . S
C163 O182 1.215 . S
C163 O183 1.289 . S
C164 C163 1.488 . S
C164 C165 1.348 . S
C164 C169 1.413 . S
C165 C164 1.348 . S
C165 C166 1.442 . S
C165 H192 0.930 . S
C166 C165 1.442 . S
C166 C167 1.381 . S
C166 H193 0.931 . S
C167 C166 1.381 . S
C167 C168 1.321 . S
C168 C167 1.321 . S
C168 C169 1.403 . S
C168 H194 0.934 . S
C169 C164 1.413 . S
C169 C168 1.403 . S
C169 H195 0.930 . S
C170 O184 1.275 . S
C170 O185 1.256 . S
C171 O186 1.259 . S
C171 O187 1.268 . S
C172 Ho161 2.811 . S
C172 C173 1.488 . S
C172 O188 1.215 . S
C172 O189 1.289 . S
C173 C172 1.488 . S
C173 C174 1.348 . S
C173 C178 1.413 . S
C174 C173 1.348 . S
C174 C175 1.442 . S
C174 H196 0.930 . S
C175 C174 1.442 . S
C175 C176 1.381 . S
C175 H197 0.931 . S
C176 C175 1.381 . S
C176 C177 1.321 . S
C177 C176 1.321 . S
C177 C178 1.403 . S
C177 H198 0.934 . S
C178 C173 1.413 . S
C178 C177 1.403 . S
C178 H199 0.930 . S
C179 O190 1.275 . S
C179 O191 1.256 . S
O180 Ho160 2.322 . S
O180 C162 1.259 . S
O181 Ho161 2.346 . S
O181 C162 1.268 . S
O182 Ho160 2.378 . S
O182 C163 1.215 . S
O183 Ho160 2.524 . S
O183 C163 1.289 . S
O184 Ho160 2.381 . S
O184 C170 1.275 . S
O185 Ho160 2.669 . S
O185 Ho161 2.305 . S
O185 C170 1.256 . S
O186 Ho161 2.322 . S
O186 C171 1.259 . S
O187 Ho160 2.346 . S
O187 C171 1.268 . S
O188 Ho161 2.378 . S
O188 C172 1.215 . S
O189 Ho161 2.524 . S
O189 C172 1.289 . S
O190 Ho161 2.381 . S
O190 C179 1.275 . S
O191 Ho160 2.305 . S
O191 Ho161 2.669 . S
O191 C179 1.256 . S
H192 C165 0.930 . S
H193 C166 0.931 . S
H194 C168 0.934 . S
H195 C169 0.930 . S
H196 C174 0.930 . S
H197 C175 0.931 . S
H198 C177 0.934 . S
H199 C178 0.930 . S
Ho200 C203 2.811 . S
Ho200 O220 2.322 . S
Ho200 O222 2.378 . S
Ho200 O223 2.524 . S
Ho200 O224 2.381 . S
Ho200 O225 2.669 . S
Ho200 O227 2.346 . S
Ho200 O231 2.305 . S
Ho201 C212 2.811 . S
Ho201 O221 2.346 . S
Ho201 O225 2.305 . S
Ho201 O226 2.322 . S
Ho201 O228 2.378 . S
Ho201 O229 2.524 . S
Ho201 O230 2.381 . S
Ho201 O231 2.669 . S
C202 O220 1.259 . S
C202 O221 1.268 . S
C203 Ho200 2.811 . S
C203 C204 1.488 . S
C203 O222 1.215 . S
C203 O223 1.289 . S
C204 C203 1.488 . S
C204 C205 1.348 . S
C204 C209 1.413 . S
C205 C204 1.348 . S
C205 C206 1.442 1_556 S
C205 H232 0.930 . S
C206 C205 1.442 1_554 S
C206 C207 1.381 . S
C206 H233 0.931 . S
C207 C206 1.381 . S
C207 C208 1.321 . S
C208 C207 1.321 . S
C208 C209 1.403 1_554 S
C208 H234 0.934 . S
C209 C204 1.413 . S
C209 C208 1.403 1_556 S
C209 H235 0.930 . S
C210 O224 1.275 . S
C210 O225 1.256 . S
C211 O226 1.259 . S
C211 O227 1.268 . S
C212 Ho201 2.811 . S
C212 C213 1.488 . S
C212 O228 1.215 . S
C212 O229 1.289 . S
C213 C212 1.488 . S
C213 C214 1.348 . S
C213 C218 1.413 . S
C214 C213 1.348 . S
C214 C215 1.442 . S
C214 H236 0.930 . S
C215 C214 1.442 . S
C215 C216 1.381 . S
C215 H237 0.931 . S
C216 C215 1.381 . S
C216 C217 1.321 . S
C217 C216 1.321 . S
C217 C218 1.403 . S
C217 H238 0.934 . S
C218 C213 1.413 . S
C218 C217 1.403 . S
C218 H239 0.930 . S
C219 O230 1.275 . S
C219 O231 1.256 . S
O220 Ho200 2.322 . S
O220 C202 1.259 . S
O221 Ho201 2.346 . S
O221 C202 1.268 . S
O222 Ho200 2.378 . S
O222 C203 1.215 . S
O223 Ho200 2.524 . S
O223 C203 1.289 . S
O224 Ho200 2.381 . S
O224 C210 1.275 . S
O225 Ho200 2.669 . S
O225 Ho201 2.305 . S
O225 C210 1.256 . S
O226 Ho201 2.322 . S
O226 C211 1.259 . S
O227 Ho200 2.346 . S
O227 C211 1.268 . S
O228 Ho201 2.378 . S
O228 C212 1.215 . S
O229 Ho201 2.524 . S
O229 C212 1.289 . S
O230 Ho201 2.381 . S
O230 C219 1.275 . S
O231 Ho200 2.305 . S
O231 Ho201 2.669 . S
O231 C219 1.256 . S
H232 C205 0.930 . S
H233 C206 0.931 . S
H234 C208 0.934 . S
H235 C209 0.930 . S
H236 C214 0.930 . S
H237 C215 0.931 . S
H238 C217 0.934 . S
H239 C218 0.930 . S
H240 C248 0.950 . S
H241 C253 0.950 . S
H242 C250 0.950 . S
H243 C252 0.950 . S
H244 C254 0.950 . S
H245 C256 0.950 1_556 S
H246 C258 0.950 . S
H247 C259 0.950 . S
C248 H240 0.950 . S
C248 C249 1.386 . S
C248 C250 1.391 . S
C249 C248 1.386 . S
C249 C253 1.393 . S
C250 H242 0.950 . S
C250 C248 1.391 . S
C250 C251 1.400 . S
C251 C250 1.400 . S
C251 C252 1.398 . S
C251 C257 1.491 1_556 S
C252 H243 0.950 . S
C252 C251 1.398 . S
C252 C253 1.391 . S
C253 H241 0.950 . S
C253 C249 1.393 . S
C253 C252 1.391 . S
C254 H244 0.950 . S
C254 C255 1.386 . S
C254 C256 1.391 . S
C255 C254 1.386 . S
C255 C259 1.393 . S
C256 H245 0.950 1_554 S
C256 C254 1.391 . S
C256 C257 1.400 . S
C257 C251 1.491 1_554 S
C257 C256 1.400 . S
C257 C258 1.398 . S
C258 H246 0.950 . S
C258 C257 1.398 . S
C258 C259 1.391 . S
C259 H247 0.950 . S
C259 C255 1.393 . S
C259 C258 1.391 . S
H260 C268 0.950 . S
H261 C273 0.950 . S
H262 C270 0.950 . S
H263 C272 0.950 . S
H264 C274 0.950 . S
H265 C276 0.950 . S
H266 C278 0.950 . S
H267 C279 0.950 . S
C268 H260 0.950 . S
C268 C269 1.386 . S
C268 C270 1.391 . S
C269 C268 1.386 . S
C269 C273 1.393 . S
C270 H262 0.950 . S
C270 C268 1.391 . S
C270 C271 1.400 . S
C271 C270 1.400 . S
C271 C272 1.398 . S
C271 C277 1.491 1_455 S
C272 H263 0.950 . S
C272 C271 1.398 . S
C272 C273 1.391 . S
C273 H261 0.950 . S
C273 C269 1.393 . S
C273 C272 1.391 . S
C274 H264 0.950 . S
C274 C275 1.386 . S
C274 C276 1.391 . S
C275 C274 1.386 . S
C275 C279 1.393 . S
C276 H265 0.950 . S
C276 C274 1.391 . S
C276 C277 1.400 . S
C277 C271 1.491 1_655 S
C277 C276 1.400 . S
C277 C278 1.398 . S
C278 H266 0.950 . S
C278 C277 1.398 . S
C278 C279 1.391 . S
C279 H267 0.950 . S
C279 C275 1.393 . S
C279 C278 1.391 . S
H280 C288 0.950 . S
H281 C293 0.950 . S
H282 C290 0.950 . S
H283 C292 0.949 1_565 S
H284 C294 0.950 . S
H285 C296 0.950 . S
H286 C298 0.949 1_545 S
H287 C299 0.950 . S
C288 H280 0.950 . S
C288 C289 1.386 . S
C288 C290 1.391 . S
C289 C288 1.386 . S
C289 C293 1.393 . S
C290 H282 0.950 . S
C290 C288 1.391 . S
C290 C291 1.400 . S
C291 C290 1.400 . S
C291 C292 1.397 . S
C291 C297 1.491 1_545 S
C292 H283 0.949 1_545 S
C292 C291 1.397 . S
C292 C293 1.393 . S
C293 H281 0.950 . S
C293 C289 1.393 . S
C293 C292 1.393 . S
C294 H284 0.950 . S
C294 C295 1.386 . S
C294 C296 1.391 . S
C295 C294 1.386 . S
C295 C299 1.393 . S
C296 H285 0.950 . S
C296 C294 1.391 . S
C296 C297 1.400 . S
C297 C291 1.491 1_565 S
C297 C296 1.400 . S
C297 C298 1.397 . S
C298 H286 0.949 1_565 S
C298 C297 1.397 . S
C298 C299 1.393 . S
C299 H287 0.950 . S
C299 C295 1.393 . S
C299 C298 1.393 . S
H300 C308 0.950 . S
H301 C313 0.950 1_554 S
H302 C310 0.950 . S
H303 C312 0.950 1_554 S
H304 C314 0.950 . S
H305 C316 0.950 . S
H306 C318 0.950 . S
H307 C319 0.950 . S
C308 H300 0.950 . S
C308 C309 1.386 . S
C308 C310 1.391 . S
C309 C308 1.386 . S
C309 C313 1.393 . S
C310 H302 0.950 . S
C310 C308 1.391 . S
C310 C311 1.400 . S
C311 C310 1.400 . S
C311 C312 1.398 . S
C311 C317 1.491 . S
C312 H303 0.950 1_556 S
C312 C311 1.398 . S
C312 C313 1.391 . S
C313 H301 0.950 1_556 S
C313 C309 1.393 . S
C313 C312 1.391 . S
C314 H304 0.950 . S
C314 C315 1.386 . S
C314 C316 1.391 . S
C315 C314 1.386 . S
C315 C319 1.393 1_554 S
C316 H305 0.950 . S
C316 C314 1.391 . S
C316 C317 1.400 1_554 S
C317 C311 1.491 . S
C317 C316 1.400 1_556 S
C317 C318 1.398 . S
C318 H306 0.950 . S
C318 C317 1.398 . S
C318 C319 1.391 . S
C319 H307 0.950 . S
C319 C315 1.393 1_556 S
C319 C318 1.391 . S
H320 C328 0.950 . S
H321 C333 0.950 . S
H322 C330 0.950 1_655 S
H323 C332 0.950 . S
H324 C334 0.950 . S
H325 C336 0.950 1_455 S
H326 C338 0.950 . S
H327 C339 0.950 . S
C328 H320 0.950 . S
C328 C329 1.386 . S
C328 C330 1.391 . S
C329 C328 1.386 . S
C329 C333 1.393 . S
C330 H322 0.950 1_455 S
C330 C328 1.391 . S
C330 C331 1.400 . S
C331 C330 1.400 . S
C331 C332 1.398 . S
C331 C337 1.491 1_455 S
C332 H323 0.950 . S
C332 C331 1.398 . S
C332 C333 1.391 . S
C333 H321 0.950 . S
C333 C329 1.393 . S
C333 C332 1.391 . S
C334 H324 0.950 . S
C334 C335 1.386 . S
C334 C336 1.391 . S
C335 C334 1.386 . S
C335 C339 1.393 . S
C336 H325 0.950 1_655 S
C336 C334 1.391 . S
C336 C337 1.400 . S
C337 C331 1.491 1_655 S
C337 C336 1.400 . S
C337 C338 1.398 . S
C338 H326 0.950 . S
C338 C337 1.398 . S
C338 C339 1.391 . S
C339 H327 0.950 . S
C339 C335 1.393 . S
C339 C338 1.391 . S
H340 C348 0.950 . S
H341 C353 0.950 . S
H342 C350 0.950 . S
H343 C352 0.950 . S
H344 C354 0.950 . S
H345 C356 0.950 . S
H346 C358 0.950 . S
H347 C359 0.950 . S
C348 H340 0.950 . S
C348 C349 1.386 . S
C348 C350 1.391 . S
C349 C348 1.386 . S
C349 C353 1.393 . S
C350 H342 0.950 . S
C350 C348 1.391 . S
C350 C351 1.400 . S
C351 C350 1.400 . S
C351 C352 1.398 . S
C351 C357 1.491 1_545 S
C352 H343 0.950 . S
C352 C351 1.398 . S
C352 C353 1.391 . S
C353 H341 0.950 . S
C353 C349 1.393 . S
C353 C352 1.391 . S
C354 H344 0.950 . S
C354 C355 1.386 . S
C354 C356 1.391 . S
C355 C354 1.386 . S
C355 C359 1.393 . S
C356 H345 0.950 . S
C356 C354 1.391 . S
C356 C357 1.400 . S
C357 C351 1.491 1_565 S
C357 C356 1.400 . S
C357 C358 1.398 . S
C358 H346 0.950 . S
C358 C357 1.398 . S
C358 C359 1.391 . S
C359 H347 0.950 . S
C359 C355 1.393 . S
C359 C358 1.391 . S
H360 C368 0.950 . S
H361 C373 0.950 . S
H362 C370 0.950 . S
H363 C372 0.950 . S
H364 C374 0.950 . S
H365 C376 0.950 . S
H366 C378 0.950 . S
H367 C379 0.950 . S
C368 H360 0.950 . S
C368 C369 1.386 . S
C368 C370 1.391 . S
C369 C368 1.386 . S
C369 C373 1.393 . S
C370 H362 0.950 . S
C370 C368 1.391 . S
C370 C371 1.400 . S
C371 C370 1.400 . S
C371 C372 1.398 . S
C371 C377 1.491 . S
C372 H363 0.950 . S
C372 C371 1.398 . S
C372 C373 1.391 . S
C373 H361 0.950 . S
C373 C369 1.393 . S
C373 C372 1.391 . S
C374 H364 0.950 . S
C374 C375 1.386 . S
C374 C376 1.391 . S
C375 C374 1.386 . S
C375 C379 1.393 . S
C376 H365 0.950 . S
C376 C374 1.391 . S
C376 C377 1.400 . S
C377 C371 1.491 . S
C377 C376 1.400 . S
C377 C378 1.398 . S
C378 H366 0.950 . S
C378 C377 1.398 . S
C378 C379 1.391 . S
C379 H367 0.950 . S
C379 C375 1.393 . S
C379 C378 1.391 . S
H380 C388 0.950 . S
H381 C393 0.950 . S
H382 C390 0.950 . S
H383 C392 0.950 . S
H384 C394 0.950 . S
H385 C396 0.950 . S
H386 C398 0.950 . S
H387 C399 0.950 . S
C388 H380 0.950 . S
C388 C389 1.386 1_556 S
C388 C390 1.391 . S
C389 C388 1.386 1_554 S
C389 C393 1.393 . S
C390 H382 0.950 . S
C390 C388 1.391 . S
C390 C391 1.400 . S
C391 C390 1.400 . S
C391 C392 1.398 . S
C391 C397 1.491 . S
C392 H383 0.950 . S
C392 C391 1.398 . S
C392 C393 1.391 1_556 S
C393 H381 0.950 . S
C393 C389 1.393 . S
C393 C392 1.391 1_554 S
C394 H384 0.950 . S
C394 C395 1.386 . S
C394 C396 1.391 . S
C395 C394 1.386 . S
C395 C399 1.393 . S
C396 H385 0.950 . S
C396 C394 1.391 . S
C396 C397 1.400 . S
C397 C391 1.491 . S
C397 C396 1.400 . S
C397 C398 1.398 . S
C398 H386 0.950 . S
C398 C397 1.398 . S
C398 C399 1.391 . S
C399 H387 0.950 . S
C399 C395 1.393 . S
C399 C398 1.391 . S
H400 C408 0.950 . S
H401 C413 0.950 . S
H402 C410 0.950 . S
H403 C412 0.950 . S
H404 C414 0.950 . S
H405 C416 0.950 . S
H406 C418 0.950 . S
H407 C419 0.950 . S
C408 H400 0.950 . S
C408 C409 1.386 . S
C408 C410 1.391 . S
C409 C408 1.386 . S
C409 C413 1.393 . S
C410 H402 0.950 . S
C410 C408 1.391 . S
C410 C411 1.400 . S
C411 C410 1.400 . S
C411 C412 1.398 . S
C411 C417 1.491 . S
C412 H403 0.950 . S
C412 C411 1.398 . S
C412 C413 1.391 . S
C413 H401 0.950 . S
C413 C409 1.393 . S
C413 C412 1.391 . S
C414 H404 0.950 . S
C414 C415 1.386 . S
C414 C416 1.391 . S
C415 C414 1.386 . S
C415 C419 1.393 . S
C416 H405 0.950 . S
C416 C414 1.391 . S
C416 C417 1.400 . S
C417 C411 1.491 . S
C417 C416 1.400 . S
C417 C418 1.398 . S
C418 H406 0.950 . S
C418 C417 1.398 . S
C418 C419 1.391 . S
C419 H407 0.950 . S
C419 C415 1.393 . S
C419 C418 1.391 . S
H420 C428 0.950 . S
H421 C433 0.950 . S
H422 C430 0.950 . S
H423 C432 0.950 . S
H424 C434 0.950 . S
H425 C436 0.950 . S
H426 C438 0.950 . S
H427 C439 0.950 . S
C428 H420 0.950 . S
C428 C429 1.386 . S
C428 C430 1.391 . S
C429 C428 1.386 . S
C429 C433 1.393 . S
C430 H422 0.950 . S
C430 C428 1.391 . S
C430 C431 1.400 . S
C431 C430 1.400 . S
C431 C432 1.398 . S
C431 C437 1.491 . S
C432 H423 0.950 . S
C432 C431 1.398 . S
C432 C433 1.391 . S
C433 H421 0.950 . S
C433 C429 1.393 . S
C433 C432 1.391 . S
C434 H424 0.950 . S
C434 C435 1.386 . S
C434 C436 1.391 . S
C435 C434 1.386 . S
C435 C439 1.393 . S
C436 H425 0.950 . S
C436 C434 1.391 . S
C436 C437 1.400 . S
C437 C431 1.491 . S
C437 C436 1.400 . S
C437 C438 1.398 . S
C438 H426 0.950 . S
C438 C437 1.398 . S
C438 C439 1.391 . S
C439 H427 0.950 . S
C439 C435 1.393 . S
C439 C438 1.391 . S
H440 C448 0.950 . S
H441 C453 0.950 . S
H442 C450 0.950 . S
H443 C452 0.950 1_554 S
H444 C454 0.950 . S
H445 C456 0.950 . S
H446 C458 0.950 . S
H447 C459 0.950 . S
C448 H440 0.950 . S
C448 C449 1.386 . S
C448 C450 1.391 1_556 S
C449 C448 1.386 . S
C449 C453 1.393 . S
C450 H442 0.950 . S
C450 C448 1.391 1_554 S
C450 C451 1.400 . S
C451 C450 1.400 . S
C451 C452 1.398 1_554 S
C451 C457 1.491 . S
C452 H443 0.950 1_556 S
C452 C451 1.398 1_556 S
C452 C453 1.391 . S
C453 H441 0.950 . S
C453 C449 1.393 . S
C453 C452 1.391 . S
C454 H444 0.950 . S
C454 C455 1.386 . S
C454 C456 1.391 . S
C455 C454 1.386 . S
C455 C459 1.393 . S
C456 H445 0.950 . S
C456 C454 1.391 . S
C456 C457 1.400 . S
C457 C451 1.491 . S
C457 C456 1.400 . S
C457 C458 1.398 . S
C458 H446 0.950 . S
C458 C457 1.398 . S
C458 C459 1.391 . S
C459 H447 0.950 . S
C459 C455 1.393 . S
C459 C458 1.391 . S
H460 C468 0.950 . S
H461 C473 0.950 . S
H462 C470 0.950 . S
H463 C472 0.950 . S
H464 C474 0.950 . S
H465 C476 0.950 . S
H466 C478 0.950 . S
H467 C479 0.950 . S
C468 H460 0.950 . S
C468 C469 1.386 . S
C468 C470 1.391 . S
C469 C468 1.386 . S
C469 C473 1.393 . S
C470 H462 0.950 . S
C470 C468 1.391 . S
C470 C471 1.400 . S
C471 C470 1.400 . S
C471 C472 1.398 . S
C471 C477 1.491 . S
C472 H463 0.950 . S
C472 C471 1.398 . S
C472 C473 1.391 . S
C473 H461 0.950 . S
C473 C469 1.393 . S
C473 C472 1.391 . S
C474 H464 0.950 . S
C474 C475 1.386 . S
C474 C476 1.391 . S
C475 C474 1.386 . S
C475 C479 1.393 . S
C476 H465 0.950 . S
C476 C474 1.391 . S
C476 C477 1.400 . S
C477 C471 1.491 . S
C477 C476 1.400 . S
C477 C478 1.398 . S
C478 H466 0.950 . S
C478 C477 1.398 . S
C478 C479 1.391 . S
C479 H467 0.950 . S
C479 C475 1.393 . S
C479 C478 1.391 . S
H480 C488 0.950 . S
H481 C493 0.950 . S
H482 C490 0.950 . S
H483 C492 0.950 . S
H484 C494 0.950 . S
H485 C496 0.950 . S
H486 C498 0.950 . S
H487 C499 0.950 . S
C488 H480 0.950 . S
C488 C489 1.386 . S
C488 C490 1.391 . S
C489 C488 1.386 . S
C489 C493 1.393 . S
C490 H482 0.950 . S
C490 C488 1.391 . S
C490 C491 1.400 . S
C491 C490 1.400 . S
C491 C492 1.398 . S
C491 C497 1.491 . S
C492 H483 0.950 . S
C492 C491 1.398 . S
C492 C493 1.391 . S
C493 H481 0.950 . S
C493 C489 1.393 . S
C493 C492 1.391 . S
C494 H484 0.950 . S
C494 C495 1.386 . S
C494 C496 1.391 . S
C495 C494 1.386 . S
C495 C499 1.393 . S
C496 H485 0.950 . S
C496 C494 1.391 . S
C496 C497 1.400 . S
C497 C491 1.491 . S
C497 C496 1.400 . S
C497 C498 1.398 . S
C498 H486 0.950 . S
C498 C497 1.398 . S
C498 C499 1.391 . S
C499 H487 0.950 . S
C499 C495 1.393 . S
C499 C498 1.391 . S
H500 C508 0.950 . S
H501 C513 0.950 . S
H502 C510 0.950 . S
H503 C512 0.950 . S
H504 C514 0.950 . S
H505 C516 0.950 . S
H506 C518 0.950 . S
H507 C519 0.950 . S
C508 H500 0.950 . S
C508 C509 1.386 . S
C508 C510 1.391 . S
C509 C508 1.386 . S
C509 C513 1.393 . S
C510 H502 0.950 . S
C510 C508 1.391 . S
C510 C511 1.400 . S
C511 C510 1.400 . S
C511 C512 1.398 . S
C511 C517 1.491 . S
C512 H503 0.950 . S
C512 C511 1.398 . S
C512 C513 1.391 . S
C513 H501 0.950 . S
C513 C509 1.393 . S
C513 C512 1.391 . S
C514 H504 0.950 . S
C514 C515 1.386 . S
C514 C516 1.391 . S
C515 C514 1.386 . S
C515 C519 1.393 . S
C516 H505 0.950 . S
C516 C514 1.391 . S
C516 C517 1.400 . S
C517 C511 1.491 . S
C517 C516 1.400 . S
C517 C518 1.398 . S
C518 H506 0.950 . S
C518 C517 1.398 . S
C518 C519 1.391 . S
C519 H507 0.950 . S
C519 C515 1.393 . S
C519 C518 1.391 . S
H520 C528 0.950 . S
H521 C533 0.950 . S
H522 C530 0.950 . S
H523 C532 0.950 . S
H524 C534 0.950 . S
H525 C536 0.950 1_556 S
H526 C538 0.950 . S
H527 C539 0.950 . S
C528 H520 0.950 . S
C528 C529 1.386 . S
C528 C530 1.391 . S
C529 C528 1.386 . S
C529 C533 1.393 . S
C530 H522 0.950 . S
C530 C528 1.391 . S
C530 C531 1.400 . S
C531 C530 1.400 . S
C531 C532 1.398 . S
C531 C537 1.491 . S
C532 H523 0.950 . S
C532 C531 1.398 . S
C532 C533 1.391 . S
C533 H521 0.950 . S
C533 C529 1.393 . S
C533 C532 1.391 . S
C534 H524 0.950 . S
C534 C535 1.386 . S
C534 C536 1.391 1_556 S
C535 C534 1.386 . S
C535 C539 1.393 1_556 S
C536 H525 0.950 1_554 S
C536 C534 1.391 1_554 S
C536 C537 1.400 . S
C537 C531 1.491 . S
C537 C536 1.400 . S
C537 C538 1.398 . S
C538 H526 0.950 . S
C538 C537 1.398 . S
C538 C539 1.391 . S
C539 H527 0.950 . S
C539 C535 1.393 1_554 S
C539 C538 1.391 . S
H540 C548 0.950 . S
H541 C553 0.950 . S
H542 C550 0.950 . S
H543 C552 0.950 . S
H544 C554 0.950 . S
H545 C556 0.950 . S
H546 C558 0.950 . S
H547 C559 0.950 . S
C548 H540 0.950 . S
C548 C549 1.386 . S
C548 C550 1.391 . S
C549 C548 1.386 . S
C549 C553 1.393 . S
C550 H542 0.950 . S
C550 C548 1.391 . S
C550 C551 1.400 . S
C551 C550 1.400 . S
C551 C552 1.398 . S
C551 C557 1.491 . S
C552 H543 0.950 . S
C552 C551 1.398 . S
C552 C553 1.391 . S
C553 H541 0.950 . S
C553 C549 1.393 . S
C553 C552 1.391 . S
C554 H544 0.950 . S
C554 C555 1.386 . S
C554 C556 1.391 . S
C555 C554 1.386 . S
C555 C559 1.393 . S
C556 H545 0.950 . S
C556 C554 1.391 . S
C556 C557 1.400 . S
C557 C551 1.491 . S
C557 C556 1.400 . S
C557 C558 1.398 . S
C558 H546 0.950 . S
C558 C557 1.398 . S
C558 C559 1.391 . S
C559 H547 0.950 . S
C559 C555 1.393 . S
C559 C558 1.391 . S
H560 C568 0.950 . S
H561 C573 0.950 . S
H562 C570 0.950 . S
H563 C572 0.950 . S
H564 C574 0.950 . S
H565 C576 0.950 . S
H566 C578 0.950 . S
H567 C579 0.950 . S
C568 H560 0.950 . S
C568 C569 1.386 . S
C568 C570 1.391 . S
C569 C568 1.386 . S
C569 C573 1.393 . S
C570 H562 0.950 . S
C570 C568 1.391 . S
C570 C571 1.400 . S
C571 C570 1.400 . S
C571 C572 1.398 . S
C571 C577 1.491 . S
C572 H563 0.950 . S
C572 C571 1.398 . S
C572 C573 1.391 . S
C573 H561 0.950 . S
C573 C569 1.393 . S
C573 C572 1.391 . S
C574 H564 0.950 . S
C574 C575 1.386 . S
C574 C576 1.391 . S
C575 C574 1.386 . S
C575 C579 1.393 . S
C576 H565 0.950 . S
C576 C574 1.391 . S
C576 C577 1.400 . S
C577 C571 1.491 . S
C577 C576 1.400 . S
C577 C578 1.398 . S
C578 H566 0.950 . S
C578 C577 1.398 . S
C578 C579 1.391 . S
C579 H567 0.950 . S
C579 C575 1.393 . S
C579 C578 1.391 . S
H580 C588 0.950 1_554 S
H581 C593 0.950 . S
H582 C590 0.950 . S
H583 C592 0.950 . S
H584 C594 0.950 . S
H585 C596 0.950 . S
H586 C598 0.950 . S
H587 C599 0.950 . S
C588 H580 0.950 1_556 S
C588 C589 1.386 . S
C588 C590 1.391 . S
C589 C588 1.386 . S
C589 C593 1.393 . S
C590 H582 0.950 . S
C590 C588 1.391 . S
C590 C591 1.400 . S
C591 C590 1.400 . S
C591 C592 1.398 . S
C591 C597 1.491 . S
C592 H583 0.950 . S
C592 C591 1.398 . S
C592 C593 1.391 . S
C593 H581 0.950 . S
C593 C589 1.393 . S
C593 C592 1.391 . S
C594 H584 0.950 . S
C594 C595 1.386 . S
C594 C596 1.391 . S
C595 C594 1.386 . S
C595 C599 1.393 . S
C596 H585 0.950 . S
C596 C594 1.391 . S
C596 C597 1.400 . S
C597 C591 1.491 . S
C597 C596 1.400 . S
C597 C598 1.398 . S
C598 H586 0.950 . S
C598 C597 1.398 . S
C598 C599 1.391 . S
C599 H587 0.950 . S
C599 C595 1.393 . S
C599 C598 1.391 . S
C249 C202 1.748 . S
C255 C2 1.749 . S
C269 C10 1.398 . S
C275 C50 1.426 . S
C289 C42 1.741 . S
C295 C82 1.741 . S
C309 C90 1.428 . S
C315 C130 1.404 . S
C329 C162 1.740 . S
C335 C122 1.739 . S
C349 C210 1.428 . S
C355 C170 1.408 . S
C369 C7 1.287 . S
C375 C16 1.287 . S
C389 C56 1.268 . S
C395 C47 1.268 . S
C409 C87 1.261 . S
C415 C96 1.261 . S
C429 C136 1.279 . S
C435 C127 1.279 . S
C449 C176 1.285 . S
C455 C167 1.285 . S
C469 C216 1.287 . S
C475 C207 1.287 . S
C489 C11 1.825 . S
C495 C179 1.830 . S
C509 C59 1.832 . S
C515 C211 1.823 . S
C529 C19 1.833 . S
C535 C91 1.819 . S
C549 C51 1.825 . S
C555 C139 1.830 . S
C569 C171 1.817 . S
C575 C99 1.833 . S
C589 C131 1.825 . S
C595 C219 1.830 . S
