# Generated by pormake.
# Topology wgm, (5)-cn, num edge types: 1
# Building blocks:
#     Node 0, Type 0, BuildingBlock: XOMCOT_clean_sbu_0, # of connection points: 5
#     Node 1, Type 0, BuildingBlock: XOMCOT_clean_sbu_0, # of connection points: 5
#     Node 2, Type 0, BuildingBlock: XOMCOT_clean_sbu_0, # of connection points: 5
#     Node 3, Type 0, BuildingBlock: XOMCOT_clean_sbu_0, # of connection points: 5
#     Node 4, Type 0, BuildingBlock: XOMCOT_clean_sbu_0, # of connection points: 5
#     Node 5, Type 0, BuildingBlock: XOMCOT_clean_sbu_0, # of connection points: 5
#     Node 6, Type 0, BuildingBlock: XOMCOT_clean_sbu_0, # of connection points: 5
#     Node 7, Type 0, BuildingBlock: XOMCOT_clean_sbu_0, # of connection points: 5
#     Node 8, Type 0, BuildingBlock: XOMCOT_clean_sbu_0, # of connection points: 5
#     Node 9, Type 0, BuildingBlock: XOMCOT_clean_sbu_0, # of connection points: 5
#     Node 10, Type 0, BuildingBlock: XOMCOT_clean_sbu_0, # of connection points: 5
#     Node 11, Type 0, BuildingBlock: XOMCOT_clean_sbu_0, # of connection points: 5
#     Node 12, Type 0, BuildingBlock: XOMCOT_clean_sbu_0, # of connection points: 5
#     Node 13, Type 0, BuildingBlock: XOMCOT_clean_sbu_0, # of connection points: 5
#     Node 14, Type 0, BuildingBlock: XOMCOT_clean_sbu_0, # of connection points: 5
#     Node 15, Type 0, BuildingBlock: XOMCOT_clean_sbu_0, # of connection points: 5
#     Node 16, Type 0, BuildingBlock: XOMCOT_clean_sbu_0, # of connection points: 5
#     Node 17, Type 0, BuildingBlock: XOMCOT_clean_sbu_0, # of connection points: 5
#     Node 18, Type 0, BuildingBlock: XOMCOT_clean_sbu_0, # of connection points: 5
#     Node 19, Type 0, BuildingBlock: XOMCOT_clean_sbu_0, # of connection points: 5
#     Node 20, Type 0, BuildingBlock: XOMCOT_clean_sbu_0, # of connection points: 5
#     Node 21, Type 0, BuildingBlock: XOMCOT_clean_sbu_0, # of connection points: 5
#     Node 22, Type 0, BuildingBlock: XOMCOT_clean_sbu_0, # of connection points: 5
#     Node 23, Type 0, BuildingBlock: XOMCOT_clean_sbu_0, # of connection points: 5
#     Node 24, Type 0, BuildingBlock: XOMCOT_clean_sbu_0, # of connection points: 5
#     Node 25, Type 0, BuildingBlock: XOMCOT_clean_sbu_0, # of connection points: 5
#     Node 26, Type 0, BuildingBlock: XOMCOT_clean_sbu_0, # of connection points: 5
#     Node 27, Type 0, BuildingBlock: XOMCOT_clean_sbu_0, # of connection points: 5
#     Node 28, Type 0, BuildingBlock: XOMCOT_clean_sbu_0, # of connection points: 5
#     Node 29, Type 0, BuildingBlock: XOMCOT_clean_sbu_0, # of connection points: 5
#     Node 30, Type 0, BuildingBlock: XOMCOT_clean_sbu_0, # of connection points: 5
#     Node 31, Type 0, BuildingBlock: XOMCOT_clean_sbu_0, # of connection points: 5
#     Edge 32, Type (0, 0), BuildingBlock: OJICUG_clean_linker_0, # of connection points: 2
#     Edge 33, Type (0, 0), BuildingBlock: OJICUG_clean_linker_0, # of connection points: 2
#     Edge 34, Type (0, 0), BuildingBlock: OJICUG_clean_linker_0, # of connection points: 2
#     Edge 35, Type (0, 0), BuildingBlock: OJICUG_clean_linker_0, # of connection points: 2
#     Edge 36, Type (0, 0), BuildingBlock: OJICUG_clean_linker_0, # of connection points: 2
#     Edge 37, Type (0, 0), BuildingBlock: OJICUG_clean_linker_0, # of connection points: 2
#     Edge 38, Type (0, 0), BuildingBlock: OJICUG_clean_linker_0, # of connection points: 2
#     Edge 39, Type (0, 0), BuildingBlock: OJICUG_clean_linker_0, # of connection points: 2
#     Edge 40, Type (0, 0), BuildingBlock: OJICUG_clean_linker_0, # of connection points: 2
#     Edge 41, Type (0, 0), BuildingBlock: OJICUG_clean_linker_0, # of connection points: 2
#     Edge 42, Type (0, 0), BuildingBlock: OJICUG_clean_linker_0, # of connection points: 2
#     Edge 43, Type (0, 0), BuildingBlock: OJICUG_clean_linker_0, # of connection points: 2
#     Edge 44, Type (0, 0), BuildingBlock: OJICUG_clean_linker_0, # of connection points: 2
#     Edge 45, Type (0, 0), BuildingBlock: OJICUG_clean_linker_0, # of connection points: 2
#     Edge 46, Type (0, 0), BuildingBlock: OJICUG_clean_linker_0, # of connection points: 2
#     Edge 47, Type (0, 0), BuildingBlock: OJICUG_clean_linker_0, # of connection points: 2
#     Edge 48, Type (0, 0), BuildingBlock: OJICUG_clean_linker_0, # of connection points: 2
#     Edge 49, Type (0, 0), BuildingBlock: OJICUG_clean_linker_0, # of connection points: 2
#     Edge 50, Type (0, 0), BuildingBlock: OJICUG_clean_linker_0, # of connection points: 2
#     Edge 51, Type (0, 0), BuildingBlock: OJICUG_clean_linker_0, # of connection points: 2
#     Edge 52, Type (0, 0), BuildingBlock: OJICUG_clean_linker_0, # of connection points: 2
#     Edge 53, Type (0, 0), BuildingBlock: OJICUG_clean_linker_0, # of connection points: 2
#     Edge 54, Type (0, 0), BuildingBlock: OJICUG_clean_linker_0, # of connection points: 2
#     Edge 55, Type (0, 0), BuildingBlock: OJICUG_clean_linker_0, # of connection points: 2
#     Edge 56, Type (0, 0), BuildingBlock: OJICUG_clean_linker_0, # of connection points: 2
#     Edge 57, Type (0, 0), BuildingBlock: OJICUG_clean_linker_0, # of connection points: 2
#     Edge 58, Type (0, 0), BuildingBlock: OJICUG_clean_linker_0, # of connection points: 2
#     Edge 59, Type (0, 0), BuildingBlock: OJICUG_clean_linker_0, # of connection points: 2
#     Edge 60, Type (0, 0), BuildingBlock: OJICUG_clean_linker_0, # of connection points: 2
#     Edge 61, Type (0, 0), BuildingBlock: OJICUG_clean_linker_0, # of connection points: 2
#     Edge 62, Type (0, 0), BuildingBlock: OJICUG_clean_linker_0, # of connection points: 2
#     Edge 63, Type (0, 0), BuildingBlock: OJICUG_clean_linker_0, # of connection points: 2
#     Edge 64, Type (0, 0), BuildingBlock: OJICUG_clean_linker_0, # of connection points: 2
#     Edge 65, Type (0, 0), BuildingBlock: OJICUG_clean_linker_0, # of connection points: 2
#     Edge 66, Type (0, 0), BuildingBlock: OJICUG_clean_linker_0, # of connection points: 2
#     Edge 67, Type (0, 0), BuildingBlock: OJICUG_clean_linker_0, # of connection points: 2
#     Edge 68, Type (0, 0), BuildingBlock: OJICUG_clean_linker_0, # of connection points: 2
#     Edge 69, Type (0, 0), BuildingBlock: OJICUG_clean_linker_0, # of connection points: 2
#     Edge 70, Type (0, 0), BuildingBlock: OJICUG_clean_linker_0, # of connection points: 2
#     Edge 71, Type (0, 0), BuildingBlock: OJICUG_clean_linker_0, # of connection points: 2
#     Edge 72, Type (0, 0), BuildingBlock: OJICUG_clean_linker_0, # of connection points: 2
#     Edge 73, Type (0, 0), BuildingBlock: OJICUG_clean_linker_0, # of connection points: 2
#     Edge 74, Type (0, 0), BuildingBlock: OJICUG_clean_linker_0, # of connection points: 2
#     Edge 75, Type (0, 0), BuildingBlock: OJICUG_clean_linker_0, # of connection points: 2
#     Edge 76, Type (0, 0), BuildingBlock: OJICUG_clean_linker_0, # of connection points: 2
#     Edge 77, Type (0, 0), BuildingBlock: OJICUG_clean_linker_0, # of connection points: 2
#     Edge 78, Type (0, 0), BuildingBlock: OJICUG_clean_linker_0, # of connection points: 2
#     Edge 79, Type (0, 0), BuildingBlock: OJICUG_clean_linker_0, # of connection points: 2
#     Edge 80, Type (0, 0), BuildingBlock: OJICUG_clean_linker_0, # of connection points: 2
#     Edge 81, Type (0, 0), BuildingBlock: OJICUG_clean_linker_0, # of connection points: 2
#     Edge 82, Type (0, 0), BuildingBlock: OJICUG_clean_linker_0, # of connection points: 2
#     Edge 83, Type (0, 0), BuildingBlock: OJICUG_clean_linker_0, # of connection points: 2
#     Edge 84, Type (0, 0), BuildingBlock: OJICUG_clean_linker_0, # of connection points: 2
#     Edge 85, Type (0, 0), BuildingBlock: OJICUG_clean_linker_0, # of connection points: 2
#     Edge 86, Type (0, 0), BuildingBlock: OJICUG_clean_linker_0, # of connection points: 2
#     Edge 87, Type (0, 0), BuildingBlock: OJICUG_clean_linker_0, # of connection points: 2
#     Edge 88, Type (0, 0), BuildingBlock: OJICUG_clean_linker_0, # of connection points: 2
#     Edge 89, Type (0, 0), BuildingBlock: OJICUG_clean_linker_0, # of connection points: 2
#     Edge 90, Type (0, 0), BuildingBlock: OJICUG_clean_linker_0, # of connection points: 2
#     Edge 91, Type (0, 0), BuildingBlock: OJICUG_clean_linker_0, # of connection points: 2
#     Edge 92, Type (0, 0), BuildingBlock: OJICUG_clean_linker_0, # of connection points: 2
#     Edge 93, Type (0, 0), BuildingBlock: OJICUG_clean_linker_0, # of connection points: 2
#     Edge 94, Type (0, 0), BuildingBlock: OJICUG_clean_linker_0, # of connection points: 2
#     Edge 95, Type (0, 0), BuildingBlock: OJICUG_clean_linker_0, # of connection points: 2
#     Edge 96, Type (0, 0), BuildingBlock: OJICUG_clean_linker_0, # of connection points: 2
#     Edge 97, Type (0, 0), BuildingBlock: OJICUG_clean_linker_0, # of connection points: 2
#     Edge 98, Type (0, 0), BuildingBlock: OJICUG_clean_linker_0, # of connection points: 2
#     Edge 99, Type (0, 0), BuildingBlock: OJICUG_clean_linker_0, # of connection points: 2
#     Edge 100, Type (0, 0), BuildingBlock: OJICUG_clean_linker_0, # of connection points: 2
#     Edge 101, Type (0, 0), BuildingBlock: OJICUG_clean_linker_0, # of connection points: 2
#     Edge 102, Type (0, 0), BuildingBlock: OJICUG_clean_linker_0, # of connection points: 2
#     Edge 103, Type (0, 0), BuildingBlock: OJICUG_clean_linker_0, # of connection points: 2
#     Edge 104, Type (0, 0), BuildingBlock: OJICUG_clean_linker_0, # of connection points: 2
#     Edge 105, Type (0, 0), BuildingBlock: OJICUG_clean_linker_0, # of connection points: 2
#     Edge 106, Type (0, 0), BuildingBlock: OJICUG_clean_linker_0, # of connection points: 2
#     Edge 107, Type (0, 0), BuildingBlock: OJICUG_clean_linker_0, # of connection points: 2
#     Edge 108, Type (0, 0), BuildingBlock: OJICUG_clean_linker_0, # of connection points: 2
#     Edge 109, Type (0, 0), BuildingBlock: OJICUG_clean_linker_0, # of connection points: 2
#     Edge 110, Type (0, 0), BuildingBlock: OJICUG_clean_linker_0, # of connection points: 2
#     Edge 111, Type (0, 0), BuildingBlock: OJICUG_clean_linker_0, # of connection points: 2
# Relax obj value: 0.099
# Max RMSD: 0.192
# Mean RMSD: 0.192
data_MOF--net-wgm--node1-XOMCOT_clean_sbu_0--edge1-OJICUG_clean_linker_0
_symmetry_space_group_name_H-M    P1
_symmetry_Int_Tables_number       1
_symmetry_cell_setting            triclinic
loop_
_symmetry_equiv_pos_as_xyz
'x, y, z'
_cell_length_a     36.05944
_cell_length_b     36.072951
_cell_length_c     58.831024
_cell_angle_alpha  90.021618
_cell_angle_beta   89.925877
_cell_angle_gamma 90.249024
loop_
_atom_site_label
_atom_site_type_symbol
_atom_site_fract_x
_atom_site_fract_y
_atom_site_fract_z
_atom_type_partial_charge
Co0 Co 0.18814 0.1441 0.35513 0.0
C1 C 0.19546 0.20712 0.3876 0.0
C2 C 0.1661 0.16181 0.40271 0.0
C3 C 0.16325 0.19224 0.41682 0.0
N4 N 0.18544 0.17139 0.38391 0.0
N5 N 0.18137 0.2209 0.40709 0.0
H6 H 0.21089 0.2239 0.37578 0.0
H7 H 0.1527 0.13534 0.40549 0.0
C8 C 0.25802 0.09526 0.36173 0.0
O9 O 0.25994 0.08486 0.3404 0.0
N10 N 0.18912 0.11928 0.32556 0.0
C11 C 0.18156 0.13819 0.30627 0.0
C12 C 0.1818 0.11489 0.28813 0.0
C13 C 0.19138 0.08344 0.31869 0.0
N14 N 0.18834 0.0805 0.2957 0.0
C15 C 0.19472 0.21538 0.33422 0.0
C16 C 0.26326 0.2025 0.31478 0.0
C17 C 0.24123 0.23116 0.3061 0.0
C18 C 0.20748 0.23879 0.31697 0.0
C19 C 0.24962 0.17993 0.33222 0.0
N20 N 0.21482 0.18513 0.34078 0.0
H21 H 0.16721 0.2197 0.34099 0.0
H22 H 0.26579 0.15632 0.3371 0.0
H23 H 0.1743 0.16701 0.30524 0.0
H24 H 0.19498 0.0602 0.33009 0.0
O25 O 0.13708 0.158 0.34844 0.0
O26 O 0.15425 0.10725 0.36664 0.0
O27 O 0.23477 0.12003 0.36795 0.0
C28 C 0.12746 0.1276 0.35893 0.0
H29 H 0.14737 0.19359 0.43242 0.0
H30 H 0.17595 0.12249 0.2707 0.0
H31 H 0.28957 0.19555 0.30701 0.0
H32 H 0.18999 0.26129 0.31131 0.0
Co33 Co 0.1673 0.94232 0.62176 0.0
C34 C 0.09185 0.93885 0.6436 0.0
C35 C 0.13607 0.93841 0.66785 0.0
C36 C 0.10295 0.93401 0.67933 0.0
N37 N 0.12923 0.94122 0.64537 0.0
N38 N 0.07525 0.93441 0.664 0.0
H39 H 0.0766 0.93895 0.62793 0.0
H40 H 0.16343 0.9386 0.67536 0.0
C41 C 0.17609 1.01743 0.64529 0.0
O42 O 0.13996 0.02162 0.64634 0.0
N43 N 0.20545 0.94363 0.59867 0.0
C44 C 0.23924 0.95921 0.60105 0.0
C45 C 0.25604 0.96086 0.58008 0.0
C46 C 0.20236 0.93529 0.57633 0.0
N47 N 0.23279 0.94603 0.56461 0.0
C48 C 0.10818 0.94801 0.59006 0.0
C49 C 0.12145 1.01928 0.57513 0.0
C50 C 0.09351 0.9982 0.56446 0.0
C51 C 0.08685 0.96232 0.57251 0.0
C52 C 0.14215 1.00385 0.59304 0.0
N53 N 0.13485 0.96874 0.60066 0.0
H54 H 0.10312 0.91966 0.59497 0.0
H55 H 0.16509 1.01956 0.59986 0.0
H56 H 0.25058 0.96965 0.61682 0.0
H57 H 0.17794 0.92303 0.56868 0.0
O58 O 0.15452 0.89206 0.61302 0.0
O59 O 0.19599 0.90638 0.63916 0.0
O60 O 0.18984 0.98895 0.63553 0.0
C61 C 0.17835 0.88069 0.62794 0.0
H62 H 0.09952 0.93052 0.69749 0.0
H63 H 0.28335 0.97198 0.57643 0.0
H64 H 0.12827 0.04687 0.56915 0.0
H65 H 0.0654 0.94497 0.56517 0.0
Co66 Co 0.3566 0.88344 0.85785 0.0
C67 C 0.35614 0.8243 0.8932 0.0
C68 C 0.37673 0.87567 0.90641 0.0
C69 C 0.38069 0.84875 0.92288 0.0
N70 N 0.36197 0.86014 0.88755 0.0
N71 N 0.36765 0.81654 0.91445 0.0
H72 H 0.34522 0.80346 0.88193 0.0
H73 H 0.38544 0.90427 0.90792 0.0
C74 C 0.2852 0.9295 0.86141 0.0
O75 O 0.28205 0.93183 0.83924 0.0
N76 N 0.35221 0.90632 0.8281 0.0
C77 C 0.35159 0.88851 0.80794 0.0
C78 C 0.35155 0.91409 0.79075 0.0
C79 C 0.35385 0.94271 0.82276 0.0
N80 N 0.3527 0.94826 0.79999 0.0
C81 C 0.35135 0.81054 0.83905 0.0
C82 C 0.27782 0.8135 0.82643 0.0
C83 C 0.30024 0.78533 0.8174 0.0
C84 C 0.33696 0.78303 0.82484 0.0
C85 C 0.29319 0.84026 0.84095 0.0
N86 N 0.3301 0.83979 0.84612 0.0
H87 H 0.38034 0.80919 0.84342 0.0
H88 H 0.27558 0.86217 0.84681 0.0
H89 H 0.3524 0.85893 0.80551 0.0
H90 H 0.35543 0.96448 0.83537 0.0
O91 O 0.40686 0.86888 0.85001 0.0
O92 O 0.39187 0.92169 0.86659 0.0
O93 O 0.31031 0.909 0.87031 0.0
C94 C 0.41771 0.90024 0.85862 0.0
H95 H 0.39304 0.85236 0.9395 0.0
H96 H 0.35203 0.9077 0.77279 0.0
H97 H 0.24896 0.81574 0.82156 0.0
H98 H 0.35529 0.76172 0.81844 0.0
Co99 Co 0.39179 0.10107 0.09775 0.0
C100 C 0.45802 0.09797 0.1275 0.0
C101 C 0.40814 0.09515 0.14714 0.0
C102 C 0.43824 0.09392 0.16177 0.0
N103 N 0.42071 0.09762 0.12558 0.0
N104 N 0.46949 0.09532 0.14918 0.0
H105 H 0.47705 0.10117 0.11362 0.0
H106 H 0.37917 0.09455 0.15192 0.0
C107 C 0.34053 0.03075 0.10152 0.0
O108 O 0.33254 0.02852 0.07981 0.0
N109 N 0.36489 0.10591 0.06908 0.0
C110 C 0.38215 0.11801 0.05006 0.0
C111 C 0.35784 0.1185 0.03238 0.0
C112 C 0.32899 0.10131 0.06273 0.0
N113 N 0.32451 0.10765 0.04012 0.0
C114 C 0.45924 0.09396 0.07285 0.0
C115 C 0.44565 0.02444 0.05522 0.0
C116 C 0.47353 0.04652 0.0454 0.0
C117 C 0.48149 0.08078 0.05538 0.0
C118 C 0.42434 0.03849 0.07319 0.0
N119 N 0.42994 0.07374 0.08102 0.0
H120 H 0.46406 0.12199 0.07855 0.0
H121 H 0.40219 0.0216 0.07962 0.0
H122 H 0.41055 0.12715 0.04898 0.0
H123 H 0.30685 0.09329 0.07417 0.0
O124 O 0.41007 0.15137 0.09329 0.0
O125 O 0.35891 0.1364 0.11197 0.0
O126 O 0.36392 0.05489 0.10875 0.0
C127 C 0.38119 0.16219 0.10468 0.0
H128 H 0.43721 0.0919 0.18011 0.0
H129 H 0.36401 0.12704 1.01513 0.0
H130 H 0.4388 0.99747 0.04827 0.0
H131 H 0.50358 0.09834 0.04895 0.0
Co132 Co 0.18518 0.89622 0.17536 0.0
C133 C 0.18723 0.83673 0.14037 0.0
C134 C 0.15355 0.88181 0.12935 0.0
C135 C 0.14775 0.85211 0.11499 0.0
N136 N 0.17744 0.87178 0.14592 0.0
N137 N 0.16854 0.82349 0.12223 0.0
H138 H 0.20571 0.81982 0.15023 0.0
H139 H 0.13892 0.90784 0.12853 0.0
C140 C 0.25426 0.94527 0.16762 0.0
O141 O 0.25513 0.95583 0.18894 0.0
N142 N 0.19148 0.91847 0.20557 0.0
C143 C 0.19287 0.89817 0.2249 0.0
C144 C 0.19218 0.92078 0.24338 0.0
C145 C 0.18811 0.95391 0.21306 0.0
N146 N 0.18905 0.95587 0.23615 0.0
C147 C 0.19244 0.82252 0.19277 0.0
C148 C 0.26506 0.83019 0.20709 0.0
C149 C 0.2438 0.80051 0.21553 0.0
C150 C 0.20769 0.79576 0.2071 0.0
C151 C 0.24895 0.85608 0.19247 0.0
N152 N 0.21246 0.85316 0.18648 0.0
H153 H 0.16368 0.8199 0.18789 0.0
H154 H 0.26502 0.88013 0.1879 0.0
H155 H 0.19269 0.86847 0.22614 0.0
H156 H 0.18424 0.9775 0.20196 0.0
O157 O 0.13484 0.8826 0.18443 0.0
O158 O 0.15055 0.93462 0.16702 0.0
O159 O 0.2311 0.92037 0.16115 0.0
C160 C 0.12437 0.91381 0.17537 0.0
H161 H 0.12792 0.85102 0.10121 0.0
H162 H 0.19364 0.91183 0.26091 0.0
H163 H 0.29301 0.83519 0.21308 0.0
H164 H 0.19054 0.77269 0.21254 0.0
Co165 Co 0.38635 0.93675 0.43446 0.0
C166 C 0.45372 0.92633 0.40654 0.0
C167 C 0.42793 0.97846 0.39953 0.0
C168 C 0.46268 0.97853 0.38985 0.0
N169 N 0.42217 0.94576 0.41022 0.0
N170 N 0.47885 0.94585 0.39438 0.0
H171 H 0.45998 0.90014 0.41457 0.0
H172 H 0.41006 1.00233 0.40044 0.0
C173 C 0.33481 1.00726 0.43027 0.0
O174 O 0.32327 1.0085 0.45143 0.0
N175 N 0.35315 0.92658 0.45982 0.0
C176 C 0.36573 0.90836 0.47827 0.0
C177 C 0.33751 0.90354 0.49344 0.0
C178 C 0.31662 0.93222 0.46404 0.0
N179 N 0.30669 0.91866 0.4847 0.0
C180 C 0.45095 0.94371 0.46214 0.0
C181 C 0.43378 1.01014 0.4828 0.0
C182 C 0.46468 0.99033 0.49061 0.0
C183 C 0.47356 0.95709 0.47959 0.0
C184 C 0.41187 0.99574 0.4652 0.0
N185 N 0.41989 0.96235 0.45547 0.0
H186 H 0.45787 0.91743 0.45455 0.0
H187 H 0.38821 1.01129 0.46003 0.0
H188 H 0.39405 0.89962 0.48079 0.0
H189 H 0.29769 0.9458 0.45255 0.0
O190 O 0.4042 0.88607 0.43797 0.0
O191 O 0.3585 0.90295 0.41536 0.0
O192 O 0.35884 0.98324 0.42393 0.0
C193 C 0.37862 0.87636 0.42357 0.0
H194 H 0.47609 1.00179 0.38154 0.0
H195 H 0.33997 0.89209 0.51039 0.0
H196 H 0.42574 0.03601 0.49071 0.0
H197 H 0.49763 0.94119 0.48456 0.0
Co198 Co 0.35539 0.15255 0.69451 0.0
C199 C 0.34839 0.21847 0.66476 0.0
C200 C 0.34487 0.16801 0.64574 0.0
C201 C 0.34718 0.19734 0.63068 0.0
N202 N 0.34584 0.18131 0.66718 0.0
N203 N 0.34932 0.22896 0.6428 0.0
H204 H 0.35231 0.23774 0.67847 0.0
H205 H 0.34485 0.13889 0.64134 0.0
C206 C 0.27803 0.13049 0.67971 0.0
O207 O 0.2709 0.1655 0.67548 0.0
N208 N 0.36625 0.12506 0.72178 0.0
C209 C 0.3883 0.1376 0.73859 0.0
C210 C 0.38912 0.1118 0.75563 0.0
C211 C 0.35367 0.09176 0.72886 0.0
N212 N 0.36723 0.08296 0.74965 0.0
C213 C 0.35007 0.21964 0.7202 0.0
C214 C 0.28552 0.20241 0.74321 0.0
C215 C 0.30477 0.23493 0.749 0.0
C216 C 0.33728 0.24349 0.73711 0.0
C217 C 0.299 0.17951 0.72581 0.0
N218 N 0.33054 0.18865 0.71407 0.0
H219 H 0.37664 0.22568 0.7126 0.0
H220 H 0.28506 0.15348 0.72285 0.0
H221 H 0.40279 0.1639 0.73852 0.0
H222 H 0.33474 0.07471 0.71913 0.0
O223 O 0.40563 0.17266 0.69499 0.0
O224 O 0.38865 0.121 0.67758 0.0
O225 O 0.3089 0.12152 0.68895 0.0
C226 C 0.4151 0.14387 0.68305 0.0
H227 H 0.34858 0.19549 0.61233 0.0
H228 H 0.4052 0.11409 0.77107 0.0
H229 H 0.26058 0.19442 0.75228 0.0
H230 H 0.35365 0.26771 0.74149 0.0
Co231 Co 0.14069 0.09292 0.92021 0.0
C232 C 0.08815 0.11475 0.88407 0.0
C233 C 0.11485 0.0635 0.87604 0.0
C234 C 0.08572 0.06845 0.86126 0.0
N235 N 0.11636 0.09242 0.89059 0.0
N236 N 0.06871 0.10051 0.8665 0.0
H237 H 0.07903 0.13866 0.89361 0.0
H238 H 0.1309 0.03843 0.87741 0.0
C239 C 0.19621 0.02729 0.91859 0.0
O240 O 0.20264 0.02839 0.94052 0.0
N241 N 0.16215 0.0944 0.95068 0.0
C242 C 0.14105 0.09566 0.96964 0.0
C243 C 0.16319 0.09907 0.98832 0.0
C244 C 0.19733 0.09916 0.95828 0.0
N245 N 0.19869 0.10117 0.98137 0.0
C246 C 0.06688 0.07758 0.93461 0.0
C247 C 0.08253 1.01199 0.95676 0.0
C248 C 0.04965 0.03073 0.96204 0.0
C249 C 0.04093 0.06271 0.9497 0.0
C250 C 0.10775 0.02782 0.9415 0.0
N251 N 0.10085 0.06155 0.93188 0.0
H252 H 0.061 0.10409 0.92701 0.0
H253 H 0.13401 1.01448 0.93935 0.0
H254 H 0.11117 0.09495 0.97011 0.0
H255 H 0.22123 0.10108 0.94719 0.0
O256 O 0.11999 0.14134 0.92684 0.0
O257 O 0.17395 0.13181 0.90992 0.0
O258 O 0.1721 0.04888 0.90963 0.0
C259 C 0.14951 0.15532 0.91734 0.0
H260 H 0.07583 0.04841 0.84895 0.0
H261 H 0.15361 0.09951 1.00575 0.0
H262 H 0.09029 0.98703 0.96577 0.0
H263 H 1.01538 0.07756 0.95285 0.0
Co264 Co 0.85713 0.89774 0.68123 0.0
C265 C 0.8565 0.8337 0.64931 0.0
C266 C 0.86398 0.88511 0.63173 0.0
C267 C 0.86694 0.85644 0.61621 0.0
N268 N 0.85774 0.87074 0.65258 0.0
N269 N 0.86197 0.82425 0.62743 0.0
H270 H 0.85334 0.81342 0.66253 0.0
H271 H 0.86738 0.91433 0.62814 0.0
C272 C 0.7896 0.94989 0.67673 0.0
O273 O 0.78884 0.95737 0.69855 0.0
N274 N 0.85797 0.92349 0.71036 0.0
C275 C 0.86218 0.90608 0.73052 0.0
C276 C 0.86576 0.93162 0.74746 0.0
C277 C 0.86077 0.96001 0.71543 0.0
N278 N 0.86481 0.96557 0.73812 0.0
C279 C 0.84573 0.82833 0.70384 0.0
C280 C 0.77418 0.84169 0.71825 0.0
C281 C 0.794 0.81254 0.72814 0.0
C282 C 0.82956 0.8049 0.71992 0.0
C283 C 0.79115 0.8641 0.70179 0.0
N284 N 0.82728 0.85857 0.6956 0.0
H285 H 0.87437 0.82368 0.69937 0.0
H286 H 0.77558 0.88696 0.69527 0.0
H287 H 0.86392 0.87665 0.7331 0.0
H288 H 0.86007 0.9819 0.70286 0.0
O289 O 0.90662 0.87975 0.68818 0.0
O290 O 0.89446 0.93135 0.66942 0.0
O291 O 0.81227 0.92575 0.66888 0.0
C292 C 0.91915 0.90893 0.67764 0.0
H293 H 0.87279 0.85901 0.59823 0.0
H294 H 0.86847 0.92556 0.7654 0.0
H295 H 0.74625 0.84799 0.7238 0.0
H296 H 0.84596 0.78272 0.7271 0.0
Co297 Co 0.90846 0.10273 0.44292 0.0
C298 C 0.96984 0.09448 0.4096 0.0
C299 C 0.91745 0.1007 0.39301 0.0
C300 C 0.94513 0.10266 0.37681 0.0
N301 N 0.93298 0.0958 0.41368 0.0
N302 N 0.97798 0.09867 0.38736 0.0
H303 H 0.99082 0.09303 0.42255 0.0
H304 H 0.88814 0.10467 0.39003 0.0
C305 C 0.88037 0.02863 0.42466 0.0
O306 O 0.91132 0.02393 0.41327 0.0
N307 N 0.88521 0.11115 0.47208 0.0
C308 C 0.90081 0.13037 0.48923 0.0
C309 C 0.87649 0.13152 0.50714 0.0
C310 C 0.85146 0.10082 0.47977 0.0
N311 N 0.84537 0.1129 0.50133 0.0
C312 C 0.97861 0.09779 0.46514 0.0
C313 C 0.96866 0.02867 0.48429 0.0
C314 C 0.9994 0.05011 0.49094 0.0
C315 C 1.0045 0.08477 0.48077 0.0
C316 C 0.94311 0.04289 0.46861 0.0
N317 N 0.94816 0.07721 0.45921 0.0
H318 H 0.98273 0.12522 0.45828 0.0
H319 H 0.91843 0.02694 0.46519 0.0
H320 H 0.92787 0.14333 0.48866 0.0
H321 H 0.8319 0.08504 0.46974 0.0
O322 O 0.92784 0.15311 0.44373 0.0
O323 O 0.87402 0.13664 0.42881 0.0
O324 O 0.877 0.05614 0.43835 0.0
C325 C 0.8976 0.16292 0.43341 0.0
H326 H 0.9415 0.10794 0.35884 0.0
H327 H 0.88122 0.14605 0.52296 0.0
H328 H 0.96333 1.00191 0.49201 0.0
H329 H 0.02798 0.10214 0.4852 0.0
Co330 Co 0.685 0.11858 0.1799 0.0
C331 C 0.67714 0.19623 0.16256 0.0
C332 C 0.68741 0.15627 0.13623 0.0
C333 C 0.68223 0.1903 0.12626 0.0
N334 N 0.6841 0.15987 0.15892 0.0
N335 N 0.67583 0.21538 0.14278 0.0
H336 H 0.67207 0.20819 0.17914 0.0
H337 H 0.69248 0.13038 0.12749 0.0
C338 C 0.76049 0.08441 0.17324 0.0
O339 O 0.76345 0.08128 0.19541 0.0
N340 N 0.68576 0.07567 0.20001 0.0
C341 C 0.68671 0.04037 0.19249 0.0
C342 C 0.68704 1.01669 0.21081 0.0
C343 C 0.68528 0.07287 0.22295 0.0
N344 N 0.68623 0.03713 0.22998 0.0
C345 C 0.69003 0.16259 0.2201 0.0
C346 C 0.76305 0.18469 0.21645 0.0
C347 C 0.74252 0.19628 0.23558 0.0
C348 C 0.70521 0.18549 0.23675 0.0
C349 C 0.74636 0.16221 0.19975 0.0
N350 N 0.71074 0.14973 0.20231 0.0
H351 H 0.66132 0.15477 0.22191 0.0
H352 H 0.76214 0.15536 0.18476 0.0
H353 H 0.68765 0.03238 0.17478 0.0
H354 H 0.68392 0.09602 0.23445 0.0
O355 O 0.63447 0.12926 0.18901 0.0
O356 O 0.64977 0.09247 0.16056 0.0
O357 O 0.7322 0.10038 0.16458 0.0
C358 C 0.62368 0.10767 0.17266 0.0
H359 H 0.68311 0.19624 0.10823 0.0
H360 H 0.68863 0.98677 0.21003 0.0
H361 H 0.79179 0.19268 0.21431 0.0
H362 H 0.68731 0.19491 0.25034 0.0
Co363 Co 0.64684 0.94862 0.9214 0.0
C364 C 0.59223 0.92537 0.88663 0.0
C365 C 0.61882 0.97637 0.8775 0.0
C366 C 0.58811 0.97165 0.86394 0.0
N367 N 0.62135 0.94758 0.89209 0.0
N368 N 0.57109 0.93984 0.86993 0.0
H369 H 0.58375 0.90153 0.89651 0.0
H370 H 0.63514 1.00146 0.87821 0.0
C371 C 0.69893 1.01779 0.91821 0.0
O372 O 0.70488 1.01982 0.94017 0.0
N373 N 0.66969 0.94903 0.95146 0.0
C374 C 0.64965 0.94554 0.97072 0.0
C375 C 0.67283 0.94537 0.98905 0.0
C376 C 0.7055 0.94907 0.9585 0.0
N377 N 0.70805 0.94809 0.98158 0.0
C378 C 0.57318 0.95946 0.937 0.0
C379 C 0.58551 0.02666 0.95818 0.0
C380 C 0.55398 1.00583 0.96401 0.0
C381 C 0.54691 0.97292 0.95223 0.0
C382 C 0.6112 1.01213 0.94277 0.0
N383 N 0.60596 0.97777 0.93353 0.0
H384 H 0.56857 0.93233 0.92991 0.0
H385 H 0.63644 0.02725 0.93999 0.0
H386 H 0.61993 0.94225 0.97155 0.0
H387 H 0.72895 0.95029 0.94703 0.0
O388 O 0.62821 0.89928 0.92839 0.0
O389 O 0.68149 0.91124 0.91116 0.0
O390 O 0.67625 0.99371 0.91008 0.0
C391 C 0.65819 0.88666 0.91892 0.0
H392 H 0.57715 0.99183 0.85212 0.0
H393 H 0.6642 0.94218 1.00656 0.0
H394 H 0.59183 0.05248 0.96678 0.0
H395 H 0.52243 0.95642 0.95588 0.0
Co396 Co 0.85667 0.15879 0.85126 0.0
C397 C 0.85397 0.21827 0.88657 0.0
C398 C 0.88231 0.17033 0.89879 0.0
C399 C 0.88628 0.19841 0.91456 0.0
N400 N 0.86268 0.18299 0.88087 0.0
N401 N 0.86857 0.22862 0.90673 0.0
H402 H 0.8388 0.23706 0.87588 0.0
H403 H 0.89468 0.14317 0.9 0.0
C404 C 0.78767 0.10912 0.85661 0.0
O405 O 0.78654 0.102 0.83477 0.0
N406 N 0.85215 0.13602 0.8212 0.0
C407 C 0.85057 0.15505 0.80142 0.0
C408 C 0.85192 0.13105 0.78353 0.0
C409 C 0.8565 0.10024 0.81471 0.0
N410 N 0.85547 0.09656 0.79177 0.0
C411 C 0.84877 0.23155 0.8329 0.0
C412 C 0.77754 0.22111 0.8168 0.0
C413 C 0.79944 0.24947 0.80734 0.0
C414 C 0.83451 0.25613 0.81683 0.0
C415 C 0.79264 0.19748 0.83317 0.0
N416 N 0.8288 0.20119 0.83974 0.0
H417 H 0.87712 0.23516 0.8384 0.0
H418 H 0.7762 0.17424 0.83859 0.0
H419 H 0.85033 0.18466 0.79956 0.0
H420 H 0.86019 0.07752 0.82649 0.0
O421 O 0.90674 0.17408 0.84293 0.0
O422 O 0.89195 0.12117 0.85976 0.0
O423 O 0.81094 0.13287 0.86446 0.0
C424 C 0.91762 0.14267 0.85148 0.0
H425 H 0.90207 0.19706 0.93017 0.0
H426 H 0.85196 0.13865 0.76573 0.0
H427 H 0.75014 0.21501 0.81026 0.0
H428 H 0.85192 0.27856 0.81073 0.0
Co429 Co 0.64431 0.10391 0.61107 0.0
C430 C 0.58661 0.12437 0.64458 0.0
C431 C 0.61582 0.07565 0.65495 0.0
C432 C 0.58522 0.07975 0.66868 0.0
N433 N 0.61666 0.10344 0.63957 0.0
N434 N 0.56677 0.11021 0.66202 0.0
H435 H 0.57709 0.14723 0.63428 0.0
H436 H 0.63378 0.05183 0.65506 0.0
C437 C 0.6974 0.03606 0.61475 0.0
O438 O 0.70397 0.03417 0.59284 0.0
N439 N 0.66977 0.10512 0.58196 0.0
C440 C 0.65198 0.10894 0.56197 0.0
C441 C 0.67739 0.1103 0.54474 0.0
C442 C 0.70627 0.106 0.5766 0.0
N443 N 0.71162 0.1079 0.55377 0.0
C444 C 0.57215 0.09155 0.59262 0.0
C445 C 0.58597 0.02328 0.57323 0.0
C446 C 0.55389 0.0425 0.56677 0.0
C447 C 0.54641 0.07632 0.57752 0.0
C448 C 0.611 0.03949 0.58854 0.0
N449 N 0.60486 0.07409 0.59719 0.0
H450 H 0.56685 0.11889 0.5992 0.0
H451 H 0.63616 0.02496 0.59209 0.0
H452 H 0.62235 0.11141 0.55993 0.0
H453 H 0.72823 0.10442 0.58907 0.0
O454 O 0.6258 0.15342 0.60429 0.0
O455 O 0.67768 0.14145 0.62282 0.0
O456 O 0.67374 0.05924 0.62265 0.0
C457 C 0.65507 0.16607 0.61468 0.0
H458 H 0.57562 0.0602 0.68137 0.0
H459 H 0.67093 0.11366 0.52691 0.0
H460 H 0.59293 0.99697 0.56549 0.0
H461 H 0.52157 0.0918 0.57356 0.0
Co462 Co 0.69427 0.90375 0.37221 0.0
C463 C 0.68898 0.825 0.38905 0.0
C464 C 0.69798 0.86418 0.41586 0.0
C465 C 0.69299 0.82964 0.42537 0.0
N466 N 0.69548 0.86152 0.39302 0.0
N467 N 0.68742 0.80505 0.40851 0.0
H468 H 0.68369 0.81307 0.37259 0.0
H469 H 0.70166 0.88965 0.42519 0.0
C470 C 0.74655 0.94512 0.40187 0.0
O471 O 0.71649 0.95487 0.41289 0.0
N472 N 0.69296 0.94639 0.35215 0.0
C473 C 0.69362 0.98193 0.35913 0.0
C474 C 0.69256 1.00474 0.34047 0.0
C475 C 0.69115 0.94805 0.3292 0.0
N476 N 0.69118 0.98353 0.32159 0.0
C477 C 0.69637 0.85085 0.33623 0.0
C478 C 0.76934 0.85989 0.32315 0.0
C479 C 0.74688 0.83447 0.31131 0.0
C480 C 0.71004 0.83028 0.31812 0.0
C481 C 0.75462 0.87967 0.34175 0.0
N482 N 0.71849 0.87462 0.3483 0.0
H483 H 0.66756 0.84718 0.34049 0.0
H484 H 0.77214 0.89945 0.3504 0.0
H485 H 0.69445 0.99086 0.37665 0.0
H486 H 0.69031 0.92394 0.3183 0.0
O487 O 0.64309 0.89208 0.36457 0.0
O488 O 0.65962 0.92896 0.39256 0.0
O489 O 0.7437 0.92283 0.38489 0.0
C490 C 0.63304 0.91348 0.38107 0.0
H491 H 0.69299 0.82316 0.44334 0.0
H492 H 0.69223 0.03472 0.34088 0.0
H493 H 0.79797 0.86421 0.3182 0.0
H494 H 0.6915 0.81159 0.30919 0.0
Co495 Co 0.89513 0.93691 0.1003 0.0
C496 C 0.96091 0.94467 0.13069 0.0
C497 C 0.9106 0.9387 0.1497 0.0
C498 C 0.9402 0.93678 0.16456 0.0
N499 N 0.92356 0.94337 0.12834 0.0
N500 N 0.97177 0.94061 0.15249 0.0
H501 H 0.98028 0.94632 0.11681 0.0
H502 H 0.88169 0.93494 0.15408 0.0
C503 C 0.87387 1.01032 0.11989 0.0
O504 O 0.90906 1.01579 0.12463 0.0
N505 N 0.86867 0.92853 0.07193 0.0
C506 C 0.88199 0.9062 0.05548 0.0
C507 C 0.85958 0.90815 0.03683 0.0
C508 C 0.83807 0.94427 0.0628 0.0
N509 N 0.83198 0.9322 0.04117 0.0
C510 C 0.96188 0.94468 0.07481 0.0
C511 C 0.94208 1.00934 0.05296 0.0
C512 C 0.97232 0.98908 0.04467 0.0
C513 C 0.98287 0.95703 0.05638 0.0
C514 C 0.92192 0.99613 0.0716 0.0
N515 N 0.93158 0.96386 0.08221 0.0
H516 H 0.96886 0.91829 0.08227 0.0
H517 H 0.89668 1.01032 0.07596 0.0
H518 H 0.90702 0.88996 0.05665 0.0
H519 H 0.82125 0.96459 0.07151 0.0
O520 O 0.91507 0.88693 0.0983 0.0
O521 O 0.86271 0.90247 0.11548 0.0
O522 O 0.86424 0.98255 0.10761 0.0
C523 C 0.88565 0.87663 0.10951 0.0
H524 H 0.93869 0.93179 0.18268 0.0
H525 H 0.86332 0.89253 0.0213 0.0
H526 H 0.9324 0.03385 0.04419 0.0
H527 H 1.00629 0.94068 0.0508 0.0
Co528 Co 0.6837 0.65 0.85717 0.0
C529 C 0.66806 0.71005 0.88993 0.0
C530 C 0.71625 0.67961 0.89973 0.0
C531 C 0.71483 0.71164 0.91239 0.0
N532 N 0.68703 0.6785 0.88537 0.0
N533 N 0.68476 0.73098 0.90602 0.0
H534 H 0.6449 0.71975 0.87995 0.0
H535 H 0.7395 0.66095 0.89956 0.0
C536 C 0.75016 0.59435 0.86189 0.0
O537 O 0.75197 0.58446 0.84046 0.0
N538 N 0.67927 0.62518 0.82769 0.0
C539 C 0.66976 0.64518 0.80922 0.0
C540 C 0.66797 0.62291 0.79058 0.0
C541 C 0.68146 0.58981 0.81988 0.0
N542 N 0.67541 0.58799 0.79701 0.0
C543 C 0.69701 0.72096 0.83695 0.0
C544 C 0.7633 0.70235 0.81644 0.0
C545 C 0.74461 0.73413 0.80895 0.0
C546 C 0.71192 0.74427 0.82028 0.0
C547 C 0.74726 0.67968 0.83303 0.0
N548 N 0.71353 0.68805 0.84218 0.0
H549 H 0.67009 0.72757 0.84379 0.0
H550 H 0.76093 0.6542 0.83711 0.0
H551 H 0.66397 0.67447 0.80914 0.0
H552 H 0.68683 0.56603 0.83055 0.0
O553 O 0.6334 0.66867 0.85208 0.0
O554 O 0.64764 0.6173 0.87047 0.0
O555 O 0.72813 0.62008 0.86829 0.0
C556 C 0.62209 0.63957 0.86332 0.0
H557 H 0.73601 0.72146 0.92398 0.0
H558 H 0.66238 0.63214 0.77343 0.0
H559 H 0.78928 0.69401 0.80878 0.0
H560 H 0.69634 0.76844 0.81516 0.0
Co561 Co 0.64493 0.43248 0.11986 0.0
C562 C 0.58456 0.41455 0.15189 0.0
C563 C 0.61313 0.46394 0.16205 0.0
C564 C 0.58039 0.46148 0.17406 0.0
N565 N 0.61578 0.43464 0.14784 0.0
N566 N 0.56225 0.43062 0.16745 0.0
H567 H 0.5759 0.3911 0.14173 0.0
H568 H 0.63118 0.48785 0.16205 0.0
C569 C 0.69854 0.50068 0.1236 0.0
O570 O 0.70634 0.50172 0.10182 0.0
N571 N 0.67046 0.42915 0.09042 0.0
C572 C 0.6507 0.42166 0.07144 0.0
C573 C 0.67333 0.42167 0.0529 0.0
C574 C 0.70613 0.43134 0.08295 0.0
N575 N 0.70814 0.42819 0.05987 0.0
C576 C 0.57447 0.44477 0.09921 0.0
C577 C 0.59165 0.51267 0.08029 0.0
C578 C 0.56133 0.49268 0.07168 0.0
C579 C 0.5516 0.45927 0.08233 0.0
C580 C 0.614 0.49696 0.09703 0.0
N581 N 0.60678 0.46221 0.10511 0.0
H582 H 0.56821 0.41744 0.10558 0.0
H583 H 0.63809 0.51212 0.1022 0.0
H584 H 0.62141 0.41577 0.07091 0.0
H585 H 0.72981 0.43587 0.0939 0.0
O586 O 0.62588 0.38288 0.11379 0.0
O587 O 0.67697 0.3954 0.13311 0.0
O588 O 0.6746 0.47744 0.13129 0.0
C589 C 0.65399 0.37061 0.12538 0.0
H590 H 0.56927 0.4825 0.18527 0.0
H591 H 0.66487 0.41657 0.03552 0.0
H592 H 0.59924 0.53947 0.07337 0.0
H593 H 0.52831 0.44281 0.07647 0.0
Co594 Co 0.86201 0.38529 0.34987 0.0
C595 C 0.87029 0.32143 0.38121 0.0
C596 C 0.8699 0.37302 0.39926 0.0
C597 C 0.87499 0.34461 0.41472 0.0
N598 N 0.86705 0.35837 0.37823 0.0
N599 N 0.87489 0.3123 0.40321 0.0
H600 H 0.87029 0.30126 0.36774 0.0
H601 H 0.86872 0.40233 0.40307 0.0
C602 C 0.78959 0.42985 0.35544 0.0
O603 O 0.78582 0.43401 0.3334 0.0
N604 N 0.85797 0.41146 0.32105 0.0
C605 C 0.85881 0.39524 0.30035 0.0
C606 C 0.85776 0.42179 0.28388 0.0
C607 C 0.85796 0.44831 0.31667 0.0
N608 N 0.85692 0.45515 0.29402 0.0
C609 C 0.85684 0.31597 0.32628 0.0
C610 C 0.7813 0.31571 0.31892 0.0
C611 C 0.80352 0.29057 0.30691 0.0
C612 C 0.84151 0.29006 0.31137 0.0
C613 C 0.7979 0.34175 0.33353 0.0
N614 N 0.83557 0.34287 0.33625 0.0
H615 H 0.88651 0.31582 0.32851 0.0
H616 H 0.78031 0.36156 0.3418 0.0
H617 H 0.86134 0.36615 0.29688 0.0
H618 H 0.85814 0.46948 0.32971 0.0
O619 O 0.91277 0.37238 0.34173 0.0
O620 O 0.89683 0.42238 0.3609 0.0
O621 O 0.81547 0.40924 0.36335 0.0
C622 C 0.92318 0.40244 0.35216 0.0
H623 H 0.87818 0.34742 0.43293 0.0
H624 H 0.85872 0.41688 0.26574 0.0
H625 H 0.75162 0.31646 0.31617 0.0
H626 H 0.85949 0.27055 0.30278 0.0
Co627 Co 0.89808 0.61115 0.59769 0.0
C628 C 0.96357 0.61726 0.62738 0.0
C629 C 0.91536 0.60374 0.64697 0.0
C630 C 0.94591 0.60433 0.66126 0.0
N631 N 0.92673 0.61137 0.62562 0.0
N632 N 0.97614 0.61235 0.64865 0.0
H633 H 0.98138 0.62535 0.6136 0.0
H634 H 0.88705 0.59765 0.65178 0.0
C635 C 0.84912 0.53976 0.60291 0.0
O636 O 0.84286 0.53561 0.58109 0.0
N637 N 0.8717 0.61243 0.56875 0.0
C638 C 0.88903 0.62306 0.54942 0.0
C639 C 0.86502 0.62138 0.53162 0.0
C640 C 0.83603 0.60651 0.56238 0.0
N641 N 0.83181 0.61057 0.53956 0.0
C642 C 0.96644 0.60408 0.57353 0.0
C643 C 0.95851 0.53097 0.56079 0.0
C644 C 0.98611 0.55267 0.55034 0.0
C645 C 0.99104 0.58908 0.55789 0.0
C646 C 0.93481 0.54697 0.57694 0.0
N647 N 0.93775 0.58371 0.58234 0.0
H648 H 0.96905 0.63327 0.57713 0.0
H649 H 0.91328 0.52996 0.58403 0.0
H650 H 0.91722 0.63276 0.54816 0.0
H651 H 0.8139 0.59906 0.57397 0.0
O652 O 0.9143 0.66173 0.59158 0.0
O653 O 0.86383 0.64624 0.61073 0.0
O654 O 0.87147 0.56498 0.60999 0.0
C655 C 0.88512 0.67233 0.60279 0.0
H656 H 0.94607 0.5982 0.67927 0.0
H657 H 0.87129 0.62847 0.51414 0.0
H658 H 0.95384 0.50249 0.5557 0.0
H659 H 1.01265 0.60668 0.55093 0.0
Co660 Co 0.69305 0.403 0.67543 0.0
C661 C 0.67177 0.34295 0.64361 0.0
C662 C 0.71966 0.37229 0.63163 0.0
C663 C 0.7158 0.34022 0.61916 0.0
N664 N 0.69226 0.37406 0.64728 0.0
N665 N 0.68592 0.32158 0.62686 0.0
H666 H 0.64939 0.33388 0.65454 0.0
H667 H 0.74332 0.39057 0.63065 0.0
C668 C 0.7603 0.45697 0.66923 0.0
O669 O 0.76078 0.46773 0.69052 0.0
N670 N 0.69276 0.42853 0.70489 0.0
C671 C 0.6895 0.40904 0.72444 0.0
C672 C 0.68871 0.43239 0.74257 0.0
C673 C 0.69134 0.46453 0.71171 0.0
N674 N 0.69017 0.4673 0.73481 0.0
C675 C 0.70577 0.33166 0.69518 0.0
C676 C 0.77326 0.34972 0.71457 0.0
C677 C 0.7536 0.31899 0.7229 0.0
C678 C 0.72048 0.30884 0.71208 0.0
C679 C 0.7575 0.37188 0.6977 0.0
N680 N 0.723 0.36412 0.68933 0.0
H681 H 0.67838 0.3254 0.68894 0.0
H682 H 0.77169 0.39703 0.6932 0.0
H683 H 0.68633 0.37945 0.72573 0.0
H684 H 0.69139 0.48796 0.70022 0.0
O685 O 0.64289 0.38579 0.68276 0.0
O686 O 0.65656 0.43648 0.66335 0.0
O687 O 0.73806 0.43121 0.66276 0.0
C688 C 0.63119 0.41479 0.67169 0.0
H689 H 0.73533 0.32986 0.60671 0.0
H690 H 0.68575 0.42433 0.76021 0.0
H691 H 0.7991 0.35843 0.72231 0.0
H692 H 0.70477 0.28486 0.71768 0.0
Co693 Co 0.88864 0.44454 0.93558 0.0
C694 C 0.94636 0.42743 0.90125 0.0
C695 C 0.91814 0.47786 0.89347 0.0
C696 C 0.94986 0.47621 0.88055 0.0
N697 N 0.91578 0.44738 0.90678 0.0
N698 N 0.96773 0.44466 0.88556 0.0
H699 H 0.95564 0.40344 0.91063 0.0
H700 H 0.90129 0.50233 0.89507 0.0
C701 C 0.82992 0.5078 0.93022 0.0
O702 O 0.81755 0.50669 0.95118 0.0
N703 N 0.86509 0.44098 0.96564 0.0
C704 C 0.88641 0.43585 0.98422 0.0
C705 C 0.86479 0.43188 1.00303 0.0
C706 C 0.82978 0.43812 0.97366 0.0
N707 N 0.82904 0.4332 0.99669 0.0
C708 C 0.96052 0.46264 0.95231 0.0
C709 C 0.93832 0.52428 0.97662 0.0
C710 C 0.9719 0.50709 0.98221 0.0
C711 C 0.98396 0.47733 0.96886 0.0
C712 C 0.91568 0.50872 0.95985 0.0
N713 N 0.9259 0.47684 0.94904 0.0
H714 H 0.96862 0.43719 0.94415 0.0
H715 H 0.88838 0.51998 0.95755 0.0
H716 H 0.91625 0.43415 0.98425 0.0
H717 H 0.80539 0.4388 0.96298 0.0
O718 O 0.91017 0.39614 0.94183 0.0
O719 O 0.85722 0.40573 0.92385 0.0
O720 O 0.85719 0.48753 0.92408 0.0
C721 C 0.88138 0.38222 0.93146 0.0
H722 H 0.96117 0.4985 0.8703 0.0
H723 H 0.87498 0.42858 0.02019 0.0
H724 H 0.92804 0.54743 0.98648 0.0
H725 H 1.01009 0.46376 0.97233 0.0
Co726 Co 0.84505 0.65538 0.18697 0.0
C727 C 0.86449 0.70952 0.15111 0.0
C728 C 0.81503 0.67949 0.14263 0.0
C729 C 0.81964 0.70765 0.12717 0.0
N730 N 0.84307 0.68066 0.15782 0.0
N731 N 0.85056 0.72665 0.13266 0.0
H732 H 0.88769 0.72026 0.16074 0.0
H733 H 0.79083 0.66196 0.14364 0.0
C734 C 0.77858 0.59997 0.18526 0.0
O735 O 0.77851 0.59305 0.20716 0.0
N736 N 0.84787 0.63186 0.21656 0.0
C737 C 0.85134 0.65022 0.23645 0.0
C738 C 0.85546 0.62517 0.25374 0.0
C739 C 0.85168 0.59575 0.22198 0.0
N740 N 0.85545 0.59091 0.24469 0.0
C741 C 0.83437 0.72843 0.20417 0.0
C742 C 0.76859 0.7144 0.22662 0.0
C743 C 0.78897 0.74637 0.2325 0.0
C744 C 0.82136 0.75402 0.22011 0.0
C745 C 0.78277 0.68932 0.21064 0.0
N746 N 0.81635 0.69554 0.20056 0.0
H747 H 0.86095 0.73366 0.19639 0.0
H748 H 0.76801 0.66378 0.20785 0.0
H749 H 0.8515 0.67996 0.23844 0.0
H750 H 0.85164 0.57357 0.20958 0.0
O751 O 0.89493 0.67442 0.19222 0.0
O752 O 0.88141 0.62134 0.17517 0.0
O753 O 0.79982 0.62515 0.17697 0.0
C754 C 0.90661 0.64447 0.18221 0.0
H755 H 0.80011 0.71548 0.11408 0.0
H756 H 0.85766 0.63173 0.27164 0.0
H757 H 0.74272 0.70778 0.23508 0.0
H758 H 0.83826 0.77813 0.22384 0.0
Co759 Co 0.64597 0.58684 0.42134 0.0
C760 C 0.59171 0.61229 0.38733 0.0
C761 C 0.6167 0.56116 0.37719 0.0
C762 C 0.58598 0.5672 0.36386 0.0
N763 N 0.62018 0.58921 0.39225 0.0
N764 N 0.57003 0.59913 0.37047 0.0
H765 H 0.58384 0.63564 0.39778 0.0
H766 H 0.63225 0.53569 0.37748 0.0
C767 C 0.69994 0.52041 0.41706 0.0
O768 O 0.70901 0.52174 0.43863 0.0
N769 N 0.66879 0.58565 0.45147 0.0
C770 C 0.64851 0.58511 0.47081 0.0
C771 C 0.67113 0.58917 0.48916 0.0
C772 C 0.70398 0.59209 0.45862 0.0
N773 N 0.70608 0.59368 0.4817 0.0
C774 C 0.57206 0.57438 0.43694 0.0
C775 C 0.58527 0.50674 0.45734 0.0
C776 C 0.5534 0.52662 0.4635 0.0
C777 C 0.54591 0.55975 0.452 0.0
C778 C 0.61073 0.5223 0.44201 0.0
N779 N 0.60503 0.55687 0.43319 0.0
H780 H 0.56728 0.60173 0.43025 0.0
H781 H 0.63651 0.50812 0.43924 0.0
H782 H 0.61874 0.58354 0.4719 0.0
H783 H 0.72724 0.59625 0.44724 0.0
O784 O 0.62855 0.63629 0.42916 0.0
O785 O 0.68088 0.62416 0.41104 0.0
O786 O 0.67457 0.54179 0.40928 0.0
C787 C 0.65837 0.64883 0.41923 0.0
H788 H 0.57403 0.54765 0.35195 0.0
H789 H 0.66223 0.589 0.50673 0.0
H790 H 0.59213 0.48093 0.4657 0.0
H791 H 0.52121 0.57559 0.45577 0.0
Co792 Co 0.34358 0.38903 0.17616 0.0
C793 C 0.36431 0.33357 0.14152 0.0
C794 C 0.31668 0.36447 0.13115 0.0
C795 C 0.32053 0.33452 0.11687 0.0
N796 N 0.34396 0.36384 0.14686 0.0
N797 N 0.3503 0.31501 0.12354 0.0
H798 H 0.3864 0.32282 0.15199 0.0
H799 H 0.29316 0.3828 0.13123 0.0
C800 C 0.2769 0.4433 0.17358 0.0
O801 O 0.27456 0.44751 0.19569 0.0
N802 N 0.3439 0.41175 0.2061 0.0
C803 C 0.34654 0.39218 0.22556 0.0
C804 C 0.34758 0.41594 0.2436 0.0
C805 C 0.34538 0.44764 0.21266 0.0
N806 N 0.3463 0.45091 0.23564 0.0
C807 C 0.32977 0.3165 0.19332 0.0
C808 C 0.2623 0.33252 0.2132 0.0
C809 C 0.2824 0.30194 0.22106 0.0
C810 C 0.31531 0.29263 0.20979 0.0
C811 C 0.27777 0.35565 0.1966 0.0
N812 N 0.31254 0.34915 0.1883 0.0
H813 H 0.35696 0.31064 0.18666 0.0
H814 H 0.26284 0.38014 0.1921 0.0
H815 H 0.34871 0.36245 0.22675 0.0
H816 H 0.34503 0.47066 0.20087 0.0
O817 O 0.39248 0.36929 0.1832 0.0
O818 O 0.38206 0.42283 0.16614 0.0
O819 O 0.29986 0.42013 0.16494 0.0
C820 C 0.40597 0.39937 0.17415 0.0
H821 H 0.30107 0.32595 0.10387 0.0
H822 H 0.35027 0.40787 0.26122 0.0
H823 H 0.23634 0.34038 0.22109 0.0
H824 H 0.33117 0.26856 0.21482 0.0
Co825 Co 0.40025 0.60427 0.94526 0.0
C826 C 0.46256 0.60737 0.91271 0.0
C827 C 0.41051 0.60845 0.89528 0.0
C828 C 0.43868 0.61384 0.87957 0.0
N829 N 0.42564 0.60445 0.91611 0.0
N830 N 0.47129 0.6129 0.89071 0.0
H831 H 0.48298 0.60744 0.92604 0.0
H832 H 0.38104 0.60892 0.89188 0.0
C833 C 0.35144 0.5344 0.94536 0.0
O834 O 0.35351 0.53127 0.96756 0.0
N835 N 0.37602 0.60568 0.9748 0.0
C836 C 0.39351 0.61149 0.99479 0.0
C837 C 0.36796 0.61331 1.0119 0.0
C838 C 0.33948 0.6058 0.98008 0.0
N839 N 0.33402 0.60951 1.00276 0.0
C840 C 0.46952 0.59503 0.96811 0.0
C841 C 0.46178 0.52053 0.97761 0.0
C842 C 0.48811 0.54142 0.98958 0.0
C843 C 0.49341 0.57854 0.98364 0.0
C844 C 0.43901 0.53801 0.96167 0.0
N845 N 0.44078 0.57554 0.95866 0.0
H846 H 0.47236 0.62443 0.96528 0.0
H847 H 0.41944 0.52121 0.95258 0.0
H848 H 0.42274 0.61592 0.99709 0.0
H849 H 0.31753 0.6028 0.96767 0.0
O850 O 0.41849 0.65421 0.95088 0.0
O851 O 0.36554 0.64028 0.93393 0.0
O852 O 0.37062 0.5591 0.93489 0.0
C853 C 0.38838 0.66567 0.94102 0.0
H854 H 0.43547 0.61847 0.8615 0.0
H855 H 0.37388 0.61837 0.02967 0.0
H856 H 0.45803 0.49125 0.98107 0.0
H857 H 0.51385 0.59557 0.99225 0.0
Co858 Co 0.19159 0.62715 0.68165 0.0
C859 C 0.19435 0.70528 0.66322 0.0
C860 C 0.20252 0.66362 0.63774 0.0
C861 C 0.20219 0.69777 0.62731 0.0
N862 N 0.19781 0.66814 0.66031 0.0
N863 N 0.19708 0.72396 0.64334 0.0
H864 H 0.18826 0.71866 0.67914 0.0
H865 H 0.20523 0.63708 0.62935 0.0
C866 C 0.26851 0.61485 0.66148 0.0
O867 O 0.27563 0.65053 0.66283 0.0
N868 N 0.18497 0.58574 0.70212 0.0
C869 C 0.18441 0.54988 0.6958 0.0
C870 C 0.17836 0.5283 0.71473 0.0
C871 C 0.17913 0.58562 0.7248 0.0
N872 N 0.17512 0.55075 0.73298 0.0
C873 C 0.19781 0.68161 0.71631 0.0
C874 C 0.26769 0.66488 0.73214 0.0
C875 C 0.24806 0.6942 0.7423 0.0
C876 C 0.21242 0.70174 0.73431 0.0
C877 C 0.25176 0.64503 0.71393 0.0
N878 N 0.21764 0.6545 0.70564 0.0
H879 H 0.17001 0.68817 0.71109 0.0
H880 H 0.26658 0.62172 0.70699 0.0
H881 H 0.1885 0.54011 0.6786 0.0
H882 H 0.17795 0.61039 0.73513 0.0
O883 O 0.14162 0.64327 0.6885 0.0
O884 O 0.15618 0.60451 0.66088 0.0
O885 O 0.23788 0.60196 0.66925 0.0
C886 C 0.13052 0.62226 0.67197 0.0
H887 H 0.20511 0.7029 0.60927 0.0
H888 H 0.17782 0.4983 0.71515 0.0
H889 H 0.29507 0.65744 0.73809 0.0
H890 H 0.1954 0.72288 0.74214 0.0
Co891 Co 0.15268 0.43998 0.42356 0.0
C892 C 0.08823 0.4441 0.39184 0.0
C893 C 0.13785 0.42844 0.37446 0.0
C894 C 0.10816 0.42409 0.35982 0.0
N895 N 0.12531 0.44046 0.39479 0.0
N896 N 0.07694 0.43388 0.37089 0.0
H897 H 0.06904 0.45202 0.4049 0.0
H898 H 0.16629 0.42104 0.37088 0.0
C899 C 0.17366 0.51224 0.40119 0.0
O900 O 0.13854 0.51637 0.3959 0.0
N901 N 0.17787 0.43832 0.45265 0.0
C902 C 0.16148 0.4243 0.4714 0.0
C903 C 0.18364 0.4306 0.48981 0.0
C904 C 0.21045 0.45279 0.45996 0.0
N905 N 0.21435 0.44858 0.48277 0.0
C906 C 0.08397 0.4511 0.44623 0.0
C907 C 0.10117 0.51927 0.46482 0.0
C908 C 0.07013 0.49979 0.47293 0.0
C909 C 0.06108 0.46582 0.46296 0.0
C910 C 0.1236 0.50338 0.44803 0.0
N911 N 0.115 0.46953 0.43891 0.0
H912 H 0.07756 0.4237 0.43996 0.0
H913 H 0.14944 0.51699 0.44401 0.0
H914 H 0.13474 0.41069 0.4718 0.0
H915 H 0.23049 0.46638 0.44903 0.0
O916 O 0.13278 0.39089 0.42966 0.0
O917 O 0.18555 0.40197 0.41179 0.0
O918 O 0.18357 0.48464 0.41347 0.0
C919 C 0.16215 0.37773 0.4198 0.0
H920 H 0.10933 0.41312 0.34271 0.0
H921 H 0.17807 0.42165 0.50705 0.0
H922 H 0.10948 0.54532 0.47247 0.0
H923 H 0.03723 0.45 0.46867 0.0
Co924 Co 0.35575 0.64426 0.34954 0.0
C925 C 0.34892 0.7117 0.37779 0.0
C926 C 0.34855 0.66271 0.39832 0.0
C927 C 0.35059 0.69333 0.41243 0.0
N928 N 0.34756 0.67431 0.37653 0.0
N929 N 0.35079 0.72405 0.39938 0.0
H930 H 0.35125 0.72982 0.36335 0.0
H931 H 0.34983 0.634 0.40354 0.0
C932 C 0.28052 0.62142 0.36744 0.0
O933 O 0.27363 0.65661 0.37127 0.0
N934 N 0.36563 0.61635 0.3221 0.0
C935 C 0.38849 0.62887 0.30562 0.0
C936 C 0.38709 0.60529 0.28751 0.0
C937 C 0.35007 0.5852 0.31357 0.0
N938 N 0.3628 0.5779 0.2923 0.0
C939 C 0.3467 0.70872 0.32173 0.0
C940 C 0.27995 0.68814 0.30245 0.0
C941 C 0.29879 0.719 0.29366 0.0
C942 C 0.33236 0.7295 0.30377 0.0
C943 C 0.29542 0.66791 0.32034 0.0
N944 N 0.3282 0.67851 0.33014 0.0
H945 H 0.37378 0.71607 0.32813 0.0
H946 H 0.28208 0.64224 0.32489 0.0
H947 H 0.40463 0.65415 0.30634 0.0
H948 H 0.32933 0.56891 0.3224 0.0
O949 O 0.40559 0.66551 0.34744 0.0
O950 O 0.39088 0.6142 0.3659 0.0
O951 O 0.31051 0.61214 0.35718 0.0
C952 C 0.41655 0.63703 0.35918 0.0
H953 H 0.353 0.69297 0.43077 0.0
H954 H 0.4031 0.60812 0.27204 0.0
H955 H 0.25451 0.67832 0.29469 0.0
H956 H 0.34799 0.75307 0.29747 0.0
Co957 Co 0.13426 0.60461 0.11143 0.0
C958 C 0.0783 0.62608 0.14595 0.0
C959 C 0.1083 0.57782 0.15623 0.0
C960 C 0.0786 0.58231 0.17062 0.0
N961 N 0.10809 0.60506 0.14048 0.0
N962 N 0.05951 0.61239 0.16399 0.0
H963 H 0.06811 0.64857 0.13558 0.0
H964 H 0.12621 0.55401 0.15616 0.0
C965 C 0.18886 0.53855 0.11452 0.0
O966 O 0.19561 0.53847 0.09261 0.0
N967 N 0.1583 0.60512 0.08185 0.0
C968 C 0.14005 0.60598 0.06184 0.0
C969 C 0.1651 0.60931 0.04447 0.0
C970 C 0.19437 0.60997 0.07632 0.0
N971 N 0.19931 0.61161 0.0535 0.0
C972 C 0.06168 0.5904 0.09483 0.0
C973 C 0.07853 0.525 0.07281 0.0
C974 C 0.04676 0.54462 0.06628 0.0
C975 C 0.03717 0.57632 0.07867 0.0
C976 C 0.1021 0.53984 0.08936 0.0
N977 N 0.09492 0.57362 0.09885 0.0
H978 H 0.05549 0.61697 0.10222 0.0
H979 H 0.12762 0.52574 0.09264 0.0
H980 H 0.11034 0.60496 0.0598 0.0
H981 H 0.21642 0.61201 0.08873 0.0
O982 O 0.11457 0.65299 0.10382 0.0
O983 O 0.16748 0.64325 0.12185 0.0
O984 O 0.16464 0.5606 0.12298 0.0
C985 C 0.14425 0.66681 0.11315 0.0
H986 H 0.06991 0.5631 0.18375 0.0
H987 H 0.15853 0.6094 0.02653 0.0
H988 H 0.08691 0.5001 0.06393 0.0
H989 H 1.01225 0.5917 0.07478 0.0
Co990 Co 0.18622 0.41003 0.87096 0.0
C991 C 0.17352 0.33278 0.88728 0.0
C992 C 0.17635 0.37222 0.9146 0.0
C993 C 0.16976 0.33761 0.92366 0.0
N994 N 0.17867 0.36919 0.89183 0.0
N995 N 0.16818 0.31286 0.9065 0.0
H996 H 0.17326 0.32116 0.87032 0.0
H997 H 0.17915 0.39791 0.92394 0.0
C998 C 0.23337 0.45706 0.89921 0.0
O999 O 0.20545 0.48012 0.89768 0.0
N1000 N 0.19495 0.45125 0.8501 0.0
C1001 C 0.22869 0.46638 0.84625 0.0
C1002 C 0.22623 0.49184 0.82911 0.0
C1003 C 0.17251 0.46709 0.8344 0.0
N1004 N 0.19107 0.49224 0.82153 0.0
C1005 C 0.20238 0.37618 0.82897 0.0
C1006 C 0.26248 0.33422 0.84235 0.0
C1007 C 0.24997 0.33191 0.81976 0.0
C1008 C 0.21971 0.35342 0.81319 0.0
C1009 C 0.2447 0.35831 0.85766 0.0
N1010 N 0.21489 0.37867 0.85079 0.0
H1011 H 0.17844 0.39179 0.82365 0.0
H1012 H 0.25418 0.35995 0.87506 0.0
H1013 H 0.2542 0.4578 0.85423 0.0
H1014 H 0.14388 0.45923 0.83165 0.0
O1015 O 0.13748 0.40033 0.85817 0.0
O1016 O 0.14838 0.43797 0.88705 0.0
O1017 O 0.23168 0.42571 0.88901 0.0
C1018 C 0.12428 0.42241 0.87361 0.0
H1019 H 0.16693 0.33103 0.94154 0.0
H1020 H 0.24924 0.50678 0.82153 0.0
H1021 H 0.28579 0.31782 0.84801 0.0
H1022 H 0.20894 0.35206 0.79602 0.0
Co1023 Co 0.39451 0.43723 0.60329 0.0
C1024 C 0.46384 0.44408 0.63032 0.0
C1025 C 0.4158 0.44355 0.65172 0.0
C1026 C 0.44702 0.44118 0.66527 0.0
N1027 N 0.42633 0.44515 0.6297 0.0
N1028 N 0.47714 0.44155 0.65169 0.0
H1029 H 0.48142 0.44277 0.61556 0.0
H1030 H 0.38734 0.44211 0.65749 0.0
C1031 C 0.37624 0.51398 0.62066 0.0
O1032 O 0.41164 0.51966 0.62466 0.0
N1033 N 0.36461 0.42781 0.57641 0.0
C1034 C 0.37347 0.4017 0.56088 0.0
C1035 C 0.35278 0.40679 0.54171 0.0
C1036 C 0.33841 0.44881 0.56617 0.0
N1037 N 0.33096 0.43649 0.54485 0.0
C1038 C 0.4583 0.43968 0.57454 0.0
C1039 C 0.44236 0.50599 0.5534 0.0
C1040 C 0.47118 0.48412 0.54466 0.0
C1041 C 0.47947 0.45093 0.55588 0.0
C1042 C 0.42195 0.49381 0.57228 0.0
N1043 N 0.43003 0.46098 0.58276 0.0
H1044 H 0.46401 0.41292 0.5819 0.0
H1045 H 0.39807 0.50972 0.57721 0.0
H1046 H 0.39503 0.38123 0.56267 0.0
H1047 H 0.32634 0.4734 0.57361 0.0
O1048 O 0.412 0.38615 0.60218 0.0
O1049 O 0.36278 0.40522 0.62116 0.0
O1050 O 0.36581 0.48451 0.61023 0.0
C1051 C 0.38379 0.37787 0.61504 0.0
H1052 H 0.44749 0.4383 0.68358 0.0
H1053 H 0.35385 0.3899 0.52651 0.0
H1054 H 0.43421 0.5314 0.54502 0.0
H1055 H 0.50165 0.43319 0.55 0.0
C1056 C 0.14736 0.27374 0.42406 0.0
C1057 C 0.17877 0.25985 0.41274 0.0
H1058 H 0.11738 0.32169 0.43498 0.0
C1059 C 0.20567 0.28522 0.40489 0.0
H1060 H 0.12583 0.25522 0.4301 0.0
C1061 C 0.20057 0.32345 0.40743 0.0
C1062 C 0.1685 0.33726 0.41797 0.0
H1063 H 0.23043 0.27555 0.39638 0.0
H1064 H 0.22151 0.34219 0.40082 0.0
C1065 C 0.1423 0.31197 0.42663 0.0
C1066 C 1.00977 0.94764 0.65486 0.0
C1067 C 0.03614 0.92894 0.66811 0.0
H1068 H 0.95223 0.95635 0.64771 0.0
C1069 C 0.02371 0.90402 0.68487 0.0
H1070 H 1.01855 0.96717 0.64195 0.0
C1071 C 0.9857 0.89738 0.68798 0.0
C1072 C 0.95937 0.91608 0.67468 0.0
H1073 H 0.04343 0.88899 0.69518 0.0
H1074 H 0.97694 0.87767 0.70081 0.0
C1075 C 0.97182 0.94153 0.65825 0.0
C1076 C 0.4069 0.73276 0.94328 0.0
C1077 C 0.38117 0.70536 0.93678 0.0
H1078 H 0.42254 0.79012 0.94134 0.0
C1079 C 0.34914 0.71597 0.92493 0.0
H1080 H 0.43178 0.72541 0.9525 0.0
C1081 C 0.34388 0.75284 0.91863 0.0
C1082 C 0.37042 0.77999 0.9241 0.0
H1083 H 0.3286 0.6956 0.91985 0.0
H1084 H 0.31946 0.76001 0.90892 0.0
C1085 C 0.4015 0.76982 0.93705 0.0
C1086 C 0.57271 0.08237 0.14821 0.0
C1087 C 0.58377 0.10184 0.16772 0.0
H1088 H 0.52757 0.06457 0.12727 0.0
C1089 C 0.55629 0.11682 0.18204 0.0
H1090 H 0.59309 0.0703 0.13691 0.0
C1091 C 0.51859 0.11339 0.17654 0.0
C1092 C 0.50769 0.09526 0.1565 0.0
H1093 H 0.56393 0.13184 0.19729 0.0
H1094 H 0.4981 0.12615 0.18746 0.0
C1095 C 0.53515 0.07922 0.14265 0.0
C1096 C 0.1239 0.73246 0.10703 0.0
C1097 C 0.1515 0.70724 0.11355 0.0
H1098 H 0.10758 0.78924 0.10459 0.0
C1099 C 0.18608 0.72103 0.12062 0.0
H1100 H 0.09702 0.72267 0.10135 0.0
C1101 C 0.19242 0.75923 0.12206 0.0
C1102 C 0.1642 0.78463 0.11672 0.0
H1103 H 0.20816 0.70231 0.12538 0.0
H1104 H 0.2192 0.76886 0.12795 0.0
C1105 C 0.13013 0.77072 0.10865 0.0
C1106 C 0.54488 0.963 0.39803 0.0
C1107 C 0.5175 0.93721 0.39159 0.0
H1108 H 0.60305 0.97527 0.40029 0.0
C1109 C 0.52839 0.90295 0.38257 0.0
H1110 H 0.53705 0.98942 0.4053 0.0
C1111 C 0.56604 0.89512 0.37928 0.0
C1112 C 0.59345 0.92099 0.38564 0.0
H1113 H 0.50768 0.88269 0.3776 0.0
H1114 H 0.57373 0.86881 0.3718 0.0
C1115 C 0.58253 0.95478 0.39535 0.0
C1116 C 0.38106 0.27259 0.61661 0.0
C1117 C 0.35651 0.26605 0.63477 0.0
H1118 H 0.40966 0.31325 0.59639 0.0
C1119 C 0.341 0.29648 0.64618 0.0
H1120 H 0.39376 0.24962 0.60773 0.0
C1121 C 0.34987 0.33269 0.63968 0.0
C1122 C 0.37496 0.33933 0.62184 0.0
H1123 H 0.32197 0.29218 0.66019 0.0
H1124 H 0.33737 0.35551 0.64884 0.0
C1125 C 0.39045 0.30894 0.61032 0.0
C1126 C 0.98523 0.15922 0.85416 0.0
C1127 C 0.95715 0.13216 0.85283 0.0
H1128 H 0.04319 0.17013 0.85985 0.0
C1129 C 0.96685 0.0946 0.85439 0.0
H1130 H 0.97846 0.1884 0.85315 0.0
C1131 C 1.00373 0.08423 0.85774 0.0
C1132 C 0.03169 0.11123 0.86006 0.0
H1133 H 0.94578 0.07315 0.85339 0.0
H1134 H 1.01009 0.05509 0.85957 0.0
C1135 C 0.02215 0.14884 0.85804 0.0
C1136 C 0.84287 0.75867 0.62824 0.0
C1137 C 0.86517 0.78691 0.61898 0.0
H1138 H 0.83144 0.70057 0.63023 0.0
C1139 C 0.89261 0.77747 0.60304 0.0
H1140 H 0.82131 0.76524 0.64039 0.0
C1141 C 0.89874 0.74023 0.59733 0.0
C1142 C 0.8772 0.71192 0.60725 0.0
H1143 H 0.91035 0.79869 0.5958 0.0
H1144 H 0.92083 0.73358 0.58554 0.0
C1145 C 0.84867 0.72165 0.62237 0.0
C1146 C 0.0441 0.08224 0.38649 0.0
C1147 C 1.01463 0.10332 0.37798 0.0
H1148 H 0.10253 0.07296 0.38686 0.0
C1149 C 0.02215 0.13096 0.36173 0.0
H1150 H 0.03901 0.06067 0.39892 0.0
C1151 C 0.05876 0.13845 0.35495 0.0
C1152 C 0.08833 0.11801 0.36405 0.0
H1153 H 0.99993 0.14785 0.35507 0.0
H1154 H 0.06396 0.16075 0.34302 0.0
C1155 C 0.08045 0.08928 0.3795 0.0
C1156 C 0.64659 0.26597 0.12107 0.0
C1157 C 0.66872 0.25427 0.13936 0.0
H1158 H 0.62417 0.31184 0.1025 0.0
C1159 C 0.6854 0.28113 0.15332 0.0
H1160 H 0.63328 0.24578 0.11013 0.0
C1161 C 0.68089 0.31896 0.14865 0.0
C1162 C 0.6589 0.33063 0.13025 0.0
H1163 H 0.70278 0.27279 0.1674 0.0
H1164 H 0.6945 0.3391 0.1595 0.0
C1165 C 0.64137 0.30373 0.11672 0.0
C1166 C 0.46806 0.94773 0.86256 0.0
C1167 C 0.45745 0.91047 0.86007 0.0
H1168 H 0.51271 0.98629 0.86727 0.0
C1169 C 0.48508 0.88304 0.85978 0.0
H1170 H 0.4474 0.96944 0.86283 0.0
C1171 C 0.52251 0.89267 0.86266 0.0
C1172 C 0.53307 0.92995 0.86525 0.0
H1173 H 0.47767 0.85405 0.85801 0.0
H1174 H 0.54325 0.87106 0.86302 0.0
C1175 C 0.50547 0.95739 0.8649 0.0
C1176 C 0.90138 0.27901 0.92743 0.0
C1177 C 0.87003 0.26601 0.91555 0.0
H1178 H 0.92973 0.32601 0.94173 0.0
C1179 C 0.84147 0.29111 0.9106 0.0
H1180 H 0.92405 0.26052 0.93133 0.0
C1181 C 0.8448 0.32852 0.91643 0.0
C1182 C 0.8768 0.34188 0.92739 0.0
H1183 H 0.81674 0.28194 0.9018 0.0
H1184 H 0.82255 0.34715 0.91185 0.0
C1185 C 0.90475 0.31659 0.93327 0.0
C1186 C 0.51817 0.15593 0.67147 0.0
C1187 C 0.52897 0.11911 0.66758 0.0
H1188 H 0.47346 0.19275 0.6799 0.0
C1189 C 0.50205 0.09091 0.66837 0.0
H1190 H 0.53851 0.17808 0.67079 0.0
C1191 C 0.46502 0.09925 0.67293 0.0
C1192 C 0.45418 0.13592 0.67728 0.0
H1193 H 0.50961 0.06239 0.66506 0.0
H1194 H 0.44495 0.07683 0.67341 0.0
C1195 C 0.48111 0.16423 0.67664 0.0
C1196 C 0.64941 0.71506 0.43122 0.0
C1197 C 0.66574 0.6891 0.41653 0.0
H1198 H 0.64398 0.77244 0.44031 0.0
C1199 C 0.68894 0.702 0.39895 0.0
H1200 H 0.63138 0.70597 0.44489 0.0
C1201 C 0.69544 0.74006 0.39603 0.0
C1202 C 0.67967 0.76596 0.41098 0.0
H1203 H 0.70174 0.68269 0.38726 0.0
H1204 H 0.71338 0.74926 0.38236 0.0
C1205 C 0.65669 0.75304 0.42865 0.0
C1206 C 1.01877 0.90923 0.17648 0.0
C1207 C 1.00949 0.93638 0.1603 0.0
H1208 H 0.06246 0.88043 0.19386 0.0
C1209 C 0.03806 0.95765 0.15056 0.0
H1210 H 0.99733 0.89219 0.1841 0.0
C1211 C 0.07512 0.95137 0.15636 0.0
C1212 C 0.08467 0.92314 0.17176 0.0
H1213 H 0.03169 0.97885 0.13816 0.0
H1214 H 0.09639 0.96782 0.14808 0.0
C1215 C 0.05604 0.90243 0.18199 0.0
C1216 C 0.64174 0.78296 0.91327 0.0
C1217 C 0.67801 0.7697 0.91044 0.0
H1218 H 0.60705 0.83042 0.91867 0.0
C1219 C 0.70768 0.79515 0.91084 0.0
H1220 H 0.61846 0.76391 0.91293 0.0
C1221 C 0.70121 0.83309 0.91361 0.0
C1222 C 0.66498 0.84638 0.91654 0.0
H1223 H 0.73587 0.78579 0.90832 0.0
H1224 H 0.7246 0.85204 0.91349 0.0
C1225 C 0.63531 0.82091 0.9166 0.0
C1226 C 0.47242 0.37824 0.17431 0.0
C1227 C 0.44637 0.4071 0.17332 0.0
H1228 H 0.5301 0.36324 0.17293 0.0
C1229 C 0.45921 0.44377 0.1713 0.0
H1230 H 0.4633 0.34969 0.17581 0.0
C1231 C 0.49722 0.45148 0.1702 0.0
C1232 C 0.52332 0.42265 0.17065 0.0
H1233 H 0.43984 0.46661 0.17058 0.0
H1234 H 0.50617 0.47999 0.16825 0.0
C1235 C 0.51054 0.38592 0.17267 0.0
C1236 C 0.91106 0.23112 0.43626 0.0
C1237 C 0.89074 0.20172 0.4266 0.0
H1238 H 0.92134 0.28987 0.43658 0.0
C1239 C 0.86409 0.20959 0.40992 0.0
H1240 H 0.93168 0.22584 0.44922 0.0
C1241 C 0.85861 0.24595 0.40257 0.0
C1242 C 0.87915 0.27533 0.412 0.0
H1243 H 0.84803 0.18754 0.40216 0.0
H1244 H 0.83831 0.25117 0.38942 0.0
C1245 C 0.90502 0.2677 0.42918 0.0
C1246 C 0.02558 0.62844 0.67614 0.0
C1247 C 1.01457 0.61301 0.65532 0.0
H1248 H 0.0711 0.64404 0.69759 0.0
C1249 C 0.04192 0.59956 0.64038 0.0
H1250 H 1.00508 0.6391 0.68788 0.0
C1251 C 0.07951 0.60204 0.64592 0.0
C1252 C 0.09066 0.61848 0.66642 0.0
H1253 H 0.03416 0.58708 0.62433 0.0
H1254 H 0.09984 0.59164 0.63397 0.0
C1255 C 0.06333 0.63146 0.68156 0.0
C1256 C 0.70675 0.25687 0.62245 0.0
C1257 C 0.67783 0.28287 0.62295 0.0
H1258 H 0.72211 0.19971 0.61982 0.0
C1259 C 0.64114 0.27024 0.62047 0.0
H1260 H 0.73523 0.26576 0.62467 0.0
C1261 C 0.63361 0.23233 0.61725 0.0
C1262 C 0.6626 0.20633 0.61714 0.0
H1263 H 0.61841 0.28975 0.62091 0.0
H1264 H 0.6051 0.22328 0.61534 0.0
C1265 C 0.6992 0.21904 0.61984 0.0
C1266 C 0.07059 0.45851 0.88901 0.0
C1267 C 0.08384 0.42841 0.87627 0.0
H1268 H 0.02282 0.48728 0.9017 0.0
C1269 C 0.05807 0.40352 0.86662 0.0
H1270 H 0.08969 0.47809 0.8967 0.0
C1271 C 1.01984 0.40852 0.86985 0.0
C1272 C 1.00681 0.43887 0.88235 0.0
H1273 H 0.06745 0.37987 0.85687 0.0
H1274 H 1.00042 0.38897 0.86248 0.0
C1275 C 0.03245 0.46384 0.89185 0.0
C1276 C 0.83161 0.78982 0.12267 0.0
C1277 C 0.8598 0.76349 0.12531 0.0
H1278 H 0.81794 0.84628 0.11593 0.0
C1279 C 0.89692 0.77434 0.12223 0.0
H1280 H 0.80284 0.78227 0.12535 0.0
C1281 C 0.90564 0.81107 0.1165 0.0
C1282 C 0.87734 0.8375 0.11447 0.0
H1283 H 0.91902 0.75441 0.12435 0.0
H1284 H 0.93442 0.819 0.11426 0.0
C1285 C 0.84031 0.82649 0.11752 0.0
C1286 C 0.46668 0.59153 0.36698 0.0
C1287 C 0.45626 0.62831 0.36254 0.0
H1288 H 0.51112 0.55347 0.37253 0.0
C1289 C 0.48409 0.65553 0.36036 0.0
H1290 H 0.44597 0.56984 0.3686 0.0
C1291 C 0.52162 0.64607 0.36291 0.0
C1292 C 0.53185 0.6091 0.36693 0.0
H1293 H 0.47684 0.68408 0.3569 0.0
H1294 H 0.5427 0.66742 0.36156 0.0
C1295 C 0.50399 0.58201 0.36895 0.0
C1296 C 0.39487 0.26542 0.11418 0.0
C1297 C 0.35824 0.27715 0.11767 0.0
H1298 H 0.4309 0.21967 0.10678 0.0
C1299 C 0.32936 0.25094 0.11662 0.0
H1300 H 0.41751 0.28519 0.11508 0.0
C1301 C 0.33696 0.2136 0.11251 0.0
C1302 C 0.37353 0.20181 0.10886 0.0
H1303 H 0.30095 0.25925 0.11961 0.0
H1304 H 0.31415 0.19397 0.11209 0.0
C1305 C 0.40243 0.2281 0.10945 0.0
C1306 C 0.57391 0.6035 0.88421 0.0
C1307 C 0.58259 0.63205 0.86881 0.0
H1308 H 0.53173 0.57506 0.90301 0.0
C1309 C 0.55349 0.653 0.85949 0.0
H1310 H 0.5955 0.58668 0.89169 0.0
C1311 C 0.51652 0.64581 0.86587 0.0
C1312 C 0.50829 0.61803 0.88192 0.0
H1313 H 0.55931 0.67509 0.84753 0.0
H1314 H 0.49456 0.66277 0.85895 0.0
C1315 C 0.53735 0.59677 0.89076 0.0
C1316 C 0.17599 0.77644 0.61966 0.0
C1317 C 0.19282 0.76335 0.63963 0.0
H1318 H 0.15806 0.82345 0.60047 0.0
C1319 C 0.20538 0.78934 0.65576 0.0
H1320 H 0.16566 0.7572 0.60702 0.0
C1321 C 0.20144 0.82756 0.65187 0.0
C1322 C 0.18421 0.84049 0.63197 0.0
H1323 H 0.21866 0.78009 0.67124 0.0
H1324 H 0.21137 0.84692 0.66458 0.0
C1325 C 0.17149 0.81445 0.61597 0.0
C1326 C 0.99118 0.39074 0.34538 0.0
C1327 C 0.96296 0.41251 0.35504 0.0
H1328 H 0.04963 0.38059 0.34268 0.0
C1329 C 0.97315 0.44317 0.36844 0.0
H1330 H 0.9843 0.36696 0.33493 0.0
C1331 C 1.01054 0.45098 0.37285 0.0
C1332 C 0.0388 0.42847 0.36389 0.0
H1333 H 0.9522 0.46067 0.37606 0.0
H1334 H 1.01735 0.47435 0.38363 0.0
C1335 C 0.02867 0.39871 0.34968 0.0
C1336 C 0.34051 0.79109 0.3938 0.0
C1337 C 0.35658 0.76207 0.40626 0.0
H1338 H 0.33473 0.84973 0.38951 0.0
C1339 C 0.37993 0.77095 0.42462 0.0
H1340 H 0.32225 0.78511 0.37966 0.0
C1341 C 0.38753 0.80807 0.43011 0.0
C1342 C 0.37151 0.83704 0.41754 0.0
H1343 H 0.39306 0.74921 0.43436 0.0
H1344 H 0.40582 0.81406 0.44424 0.0
C1345 C 0.34768 0.8281 0.39945 0.0
C1346 C 0.97253 0.66567 0.17677 0.0
C1347 C 0.94644 0.63676 0.17882 0.0
H1348 H 0.02943 0.68037 0.16998 0.0
C1349 C 0.95846 0.59996 0.17679 0.0
H1350 H 0.96389 0.69431 0.17812 0.0
C1351 C 0.99574 0.59211 0.17268 0.0
C1352 C 0.02177 0.62089 0.17004 0.0
H1353 H 0.93897 0.57715 0.17832 0.0
H1354 H 1.00403 0.56346 0.17082 0.0
C1355 C 1.00986 0.65778 0.17208 0.0
C1356 C 0.13388 0.22074 0.92784 0.0
C1357 C 0.15432 0.19588 0.91444 0.0
H1358 H 0.12253 0.27759 0.93586 0.0
C1359 C 0.17883 0.21016 0.89797 0.0
H1360 H 0.11472 0.2106 0.94062 0.0
C1361 C 0.18269 0.24854 0.89493 0.0
C1362 C 0.16276 0.27338 0.90865 0.0
H1363 H 0.19477 0.19167 0.88728 0.0
H1364 H 0.20189 0.25886 0.88223 0.0
C1365 C 0.13837 0.25906 0.92515 0.0
C1366 C 0.52555 0.41118 0.6752 0.0
C1367 C 0.51549 0.43627 0.65797 0.0
H1368 H 0.57008 0.38408 0.69288 0.0
C1369 C 0.54368 0.45476 0.64595 0.0
H1370 H 0.5044 0.39626 0.68458 0.0
C1371 C 0.58101 0.44818 0.65084 0.0
C1372 C 0.59125 0.42241 0.66762 0.0
H1373 H 0.53677 0.47433 0.63268 0.0
H1374 H 0.60191 0.46284 0.64107 0.0
C1375 C 0.5631 0.40403 0.67983 0.0
C1376 C 0.20338 0.05184 0.25879 0.0
C1377 C 0.19001 0.04838 0.28124 0.0
H1378 H 0.21321 0.02523 0.22676 0.0
C1379 C 0.17575 1.01425 0.28844 0.0
H1380 H 0.21496 0.07782 0.25284 0.0
C1381 C 0.1744 0.98431 0.27338 0.0
C1382 C 0.18773 0.98775 0.25088 0.0
H1383 H 0.16471 1.01103 0.30545 0.0
H1384 H 0.16256 0.95849 0.27936 0.0
C1385 C 0.20215 0.0219 0.24376 0.0
C1386 C 0.25684 0.97087 0.52854 0.0
C1387 C 0.24069 0.94155 0.54082 0.0
H1388 H 0.28943 0.9865 0.49954 0.0
C1389 C 0.23839 0.9064 0.53072 0.0
H1390 H 0.25876 0.99823 0.53604 0.0
C1391 C 0.25619 0.89969 0.50995 0.0
C1392 C 0.27573 0.9282 0.49881 0.0
H1393 H 0.22626 0.8834 0.53997 0.0
H1394 H 0.25807 0.87148 0.50376 0.0
C1395 C 0.27383 0.96433 0.50754 0.0
C1396 C 0.34724 1.01733 0.75232 0.0
C1397 C 0.36102 0.04961 0.76271 0.0
H1398 H 0.3328 0.96036 0.75602 0.0
C1399 C 0.36986 0.04841 0.78602 0.0
H1400 H 0.34005 1.01697 0.73449 0.0
C1401 C 0.36662 1.01549 0.79832 0.0
C1402 C 0.354 0.98292 0.78775 0.0
H1403 H 0.37966 0.07279 0.79488 0.0
H1404 H 0.37487 1.01557 0.81598 0.0
C1405 C 0.34357 0.98452 0.7647 0.0
C1406 C 0.29575 0.09127 1.00348 0.0
C1407 C 0.2921 0.10385 0.02605 0.0
H1408 H 0.26916 0.08043 0.97165 0.0
C1409 C 0.25733 0.11557 0.0337 0.0
H1410 H 0.32229 0.08175 0.99721 0.0
C1411 C 0.22697 0.11547 1.01889 0.0
C1412 C 0.23059 0.10307 0.9962 0.0
H1413 H 0.25397 0.12596 0.05084 0.0
H1414 H 0.2008 0.12569 0.02525 0.0
C1415 C 0.2654 0.09082 0.98875 0.0
C1416 C 0.88277 1.00181 0.77201 0.0
C1417 C 0.86504 0.99977 0.7507 0.0
H1418 H 0.89343 0.03417 0.80189 0.0
C1419 C 0.84471 0.03029 0.74305 0.0
H1420 H 0.89913 0.97889 0.77824 0.0
C1421 C 0.8414 0.06182 0.75665 0.0
C1422 C 0.8585 0.06357 0.77815 0.0
H1423 H 0.83025 0.02928 0.72694 0.0
H1424 H 0.82473 0.08457 0.7505 0.0
C1425 C 0.87939 0.03332 0.78564 0.0
C1426 C 0.8125 0.11733 0.53844 0.0
C1427 C 0.81213 0.10911 0.51497 0.0
H1428 H 0.78108 0.12394 0.56907 0.0
C1429 C 0.77838 0.09841 0.50501 0.0
H1430 H 0.83794 0.12483 0.54701 0.0
C1431 C 0.74587 0.09715 0.51789 0.0
C1432 C 0.74594 0.10696 0.54108 0.0
H1433 H 0.77663 0.09171 0.48714 0.0
H1434 H 0.72062 0.08858 0.50947 0.0
C1435 C 0.77982 0.11642 0.55129 0.0
C1436 C 0.70218 0.04552 0.27057 0.0
C1437 C 0.68734 0.02353 0.25308 0.0
H1438 H 0.71593 0.04988 0.30573 0.0
C1439 C 0.67415 0.9878 0.25848 0.0
H1440 H 0.7133 0.07282 0.267 0.0
C1441 C 0.67559 0.97452 0.28084 0.0
C1442 C 0.69026 0.99665 0.29836 0.0
H1443 H 0.66217 0.97023 0.24549 0.0
H1444 H 0.6646 0.94718 0.28442 0.0
C1445 C 0.7037 0.03226 0.29287 0.0
C1446 C 0.77531 0.93758 0.98753 0.0
C1447 C 0.74062 0.94839 0.99595 0.0
H1448 H 0.83175 0.92522 0.99501 0.0
C1449 C 0.73774 0.95779 1.0192 0.0
H1450 H 0.77883 0.9305 0.96979 0.0
C1451 C 0.76795 0.95394 0.03389 0.0
C1452 C 0.80204 0.94095 0.02573 0.0
H1453 H 0.71186 0.96751 0.02628 0.0
H1454 H 0.7641 0.95981 0.05178 0.0
C1455 C 0.80564 0.9341 1.00218 0.0
C1456 C 0.66062 0.55768 0.76018 0.0
C1457 C 0.67867 0.55703 0.78151 0.0
H1458 H 0.65092 0.53007 0.72831 0.0
C1459 C 0.70196 0.52712 0.78649 0.0
H1460 H 0.64194 0.57992 0.75579 0.0
C1461 C 0.7069 0.49864 0.77064 0.0
C1462 C 0.68876 0.49932 0.74942 0.0
H1463 H 0.71678 0.52598 0.80246 0.0
H1464 H 0.72482 0.47572 0.77503 0.0
C1465 C 0.66585 0.52931 0.74426 0.0
C1466 C 0.80222 0.4146 0.03399 0.0
C1467 C 0.79798 0.43108 1.01231 0.0
H1468 H 0.77735 0.40159 0.0663 0.0
C1469 C 0.7639 0.44751 1.00706 0.0
H1470 H 0.82772 0.40093 0.03864 0.0
C1471 C 0.73501 0.44753 0.02301 0.0
C1472 C 0.73944 0.43122 0.04465 0.0
H1473 H 0.75974 0.4609 0.9908 0.0
H1474 H 0.70902 0.46042 1.01843 0.0
C1475 C 0.77345 0.41501 0.05002 0.0
C1476 C 0.83872 0.52498 0.24844 0.0
C1477 C 0.85636 0.55661 0.25714 0.0
H1478 H 0.82399 0.46835 0.25374 0.0
C1479 C 0.87328 0.55473 0.27869 0.0
H1480 H 0.82465 0.52575 0.23221 0.0
C1481 C 0.87277 0.52173 0.29116 0.0
C1482 C 0.8555 0.49003 0.28225 0.0
H1483 H 0.88733 0.57861 0.2858 0.0
H1484 H 0.88664 0.52074 0.30746 0.0
C1485 C 0.83821 0.49214 0.26087 0.0
C1486 C 0.77338 0.58803 0.4887 0.0
C1487 C 0.73806 0.59866 0.49611 0.0
H1488 H 0.83074 0.58249 0.49708 0.0
C1489 C 0.73399 0.61239 0.51848 0.0
H1490 H 0.7774 0.57679 0.47182 0.0
C1491 C 0.76441 0.61511 0.53309 0.0
C1492 C 0.79965 0.60475 0.52555 0.0
H1493 H 0.70733 0.62152 0.52472 0.0
H1494 H 0.76062 0.62633 0.55 0.0
C1495 C 0.80381 0.59105 0.50326 0.0
C1496 C 0.36114 0.54937 0.25405 0.0
C1497 C 0.35416 0.54708 0.27759 0.0
H1498 H 0.36478 0.52073 0.22234 0.0
C1499 C 0.34112 0.5135 0.28658 0.0
H1500 H 0.37009 0.57508 0.24631 0.0
C1501 C 0.3372 0.48244 0.27262 0.0
C1502 C 0.34664 0.48407 0.24936 0.0
H1503 H 0.33523 0.51073 0.30454 0.0
H1504 H 0.32735 0.45699 0.28027 0.0
C1505 C 0.35765 0.51821 0.24013 0.0
C1506 C 0.26734 0.62419 1.00567 0.0
C1507 C 0.29975 0.60979 1.01528 0.0
H1508 H 0.21022 0.63742 1.0106 0.0
C1509 C 0.29878 0.59673 0.03781 0.0
H1510 H 0.26747 0.63493 0.98849 0.0
C1511 C 0.26613 0.59806 0.05049 0.0
C1512 C 0.23363 0.61246 0.04095 0.0
H1513 H 0.32323 0.58493 0.04557 0.0
H1514 H 0.26618 0.58694 0.06757 0.0
C1515 C 0.23464 0.62569 1.01841 0.0
C1516 C 0.15636 0.50493 0.76223 0.0
C1517 C 0.17289 0.5391 0.75641 0.0
H1518 H 0.1486 0.46334 0.78795 0.0
C1519 C 0.19037 0.55989 0.77354 0.0
H1520 H 0.14219 0.48853 0.74948 0.0
C1521 C 0.19386 0.54551 0.79548 0.0
C1522 C 0.17964 0.51023 0.80087 0.0
H1523 H 0.20349 0.58619 0.76967 0.0
H1524 H 0.2094 0.56111 0.80802 0.0
C1525 C 0.15956 0.49069 0.7843 0.0
C1526 C 0.31072 0.44525 0.50515 0.0
C1527 C 0.30421 0.4497 0.52863 0.0
H1528 H 0.28683 0.44192 0.47182 0.0
C1529 C 0.26923 0.46166 0.53587 0.0
H1530 H 0.33774 0.43685 0.49905 0.0
C1531 C 0.24024 0.46484 0.52023 0.0
C1532 C 0.24579 0.45625 0.49711 0.0
H1533 H 0.26349 0.46549 0.55379 0.0
H1534 H 0.21279 0.47147 0.52645 0.0
C1535 C 0.28176 0.44856 0.4895 0.0
C1536 C 0.3253 0.0275 0.38952 0.0
C1537 C 0.31805 0.03251 0.41288 0.0
H1538 H 0.31254 0.04318 0.35525 0.0
C1539 C 0.29287 0.06043 0.41921 0.0
H1540 H 0.34434 1.00627 0.38386 0.0
C1541 C 0.27466 0.08183 0.40269 0.0
C1542 C 0.28088 0.07582 0.37931 0.0
H1543 H 0.28653 0.06526 0.43696 0.0
H1544 H 0.25476 0.1023 0.40829 0.0
C1545 C 0.30695 0.04873 0.37301 0.0
C1546 C 0.26292 0.06437 0.66903 0.0
C1547 C 0.25117 0.10113 0.67235 0.0
H1548 H 0.24887 1.00957 0.65764 0.0
C1549 C 0.21407 0.1099 0.66722 0.0
H1550 H 0.29128 0.05656 0.67264 0.0
C1551 C 0.18949 0.08272 0.6589 0.0
C1552 C 0.20156 0.04621 0.65499 0.0
H1553 H 0.20401 0.1379 0.66952 0.0
H1554 H 0.16123 0.09054 0.65504 0.0
C1555 C 0.2386 0.03742 0.66027 0.0
C1556 C 0.24239 0.97529 0.91377 0.0
C1557 C 0.21715 1.00045 0.90406 0.0
H1558 H 0.28328 0.93316 0.90817 0.0
C1559 C 0.2133 1.00056 0.88025 0.0
H1560 H 0.24622 0.97427 0.93201 0.0
C1561 C 0.23449 0.9768 0.86656 0.0
C1562 C 0.26033 0.95223 0.87623 0.0
H1563 H 0.19451 1.01963 0.87205 0.0
H1564 H 0.23116 0.97836 0.8483 0.0
C1565 C 0.26367 0.95155 0.90006 0.0
C1566 C 0.30612 0.98981 0.1577 0.0
C1567 C 0.27896 0.96413 0.15061 0.0
H1568 H 0.34688 0.03029 0.14809 0.0
C1569 C 0.27402 0.95882 0.12706 0.0
H1570 H 0.3109 0.99473 0.17562 0.0
C1571 C 0.29464 0.97955 0.11115 0.0
C1572 C 0.321 1.00606 0.11828 0.0
H1573 H 0.25336 0.93942 0.12087 0.0
H1574 H 0.28926 0.97534 0.09323 0.0
C1575 C 0.32686 1.01033 0.14182 0.0
C1576 C 0.7169 1.01736 0.65439 0.0
C1577 C 0.71882 1.01192 0.63071 0.0
H1578 H 0.73726 1.00228 0.68732 0.0
C1579 C 0.74311 0.98455 0.62242 0.0
H1580 H 0.69896 0.03836 0.6615 0.0
C1581 C 0.76531 0.9638 0.63732 0.0
C1582 C 0.76397 0.96985 0.66096 0.0
H1583 H 0.7455 0.9795 0.60434 0.0
H1584 H 0.78409 0.9435 0.63021 0.0
C1585 C 0.7391 0.99666 0.66927 0.0
C1586 C 0.81516 0.95897 0.39576 0.0
C1587 C 0.78249 0.96295 0.40861 0.0
H1588 H 0.87174 0.9762 0.39079 0.0
C1589 C 0.78349 0.98657 0.42772 0.0
H1590 H 0.81552 0.94113 0.38095 0.0
C1591 C 0.81549 1.00672 0.43332 0.0
C1592 C 0.84778 1.00387 0.42008 0.0
H1593 H 0.75911 0.99034 0.43823 0.0
H1594 H 0.81457 0.02521 0.44781 0.0
C1595 C 0.84743 0.97912 0.40146 0.0
C1596 C 0.82662 0.06658 0.1661 0.0
C1597 C 0.78987 0.06861 0.15835 0.0
H1598 H 0.88186 0.04769 0.1598 0.0
C1599 C 0.78127 0.05338 0.13693 0.0
H1600 H 0.83417 0.07808 0.18247 0.0
C1601 C 0.80856 0.03506 0.12406 0.0
C1602 C 0.84526 0.03261 0.13202 0.0
H1603 H 0.75312 0.05431 0.13056 0.0
H1604 H 0.80084 0.02241 0.10804 0.0
C1605 C 0.85402 0.04929 0.15299 0.0
C1606 C 0.71701 0.0388 0.87873 0.0
C1607 C 0.7195 0.04323 0.90246 0.0
H1608 H 0.73595 0.05598 0.84585 0.0
C1609 C 0.74328 0.0711 0.91092 0.0
H1610 H 0.6994 1.01752 0.87147 0.0
C1611 C 0.76454 0.09324 0.89611 0.0
C1612 C 0.76265 0.08816 0.8724 0.0
H1613 H 0.74604 0.07543 0.92905 0.0
H1614 H 0.78308 0.11381 0.90332 0.0
C1615 C 0.73818 0.06093 0.86395 0.0
C1616 C 0.81877 0.52751 0.88948 0.0
C1617 C 0.81115 0.53173 0.91287 0.0
H1618 H 0.80612 0.54378 0.85526 0.0
C1619 C 0.78407 0.5577 0.91926 0.0
H1620 H 0.83874 0.50729 0.8837 0.0
C1621 C 0.76503 0.5785 0.90282 0.0
C1622 C 0.77247 0.57409 0.87942 0.0
H1623 H 0.7771 0.56162 0.93701 0.0
H1624 H 0.74366 0.59729 0.90852 0.0
C1625 C 0.79978 0.54835 0.87304 0.0
C1626 C 0.71221 0.52514 0.16317 0.0
C1627 C 0.71716 0.52747 0.13944 0.0
H1628 H 0.72707 0.5461 0.19611 0.0
C1629 C 0.74136 0.55495 0.13101 0.0
H1630 H 0.69428 0.50413 0.17043 0.0
C1631 C 0.7604 0.57891 0.14579 0.0
C1632 C 0.75579 0.5764 0.16953 0.0
H1633 H 0.74618 0.55763 0.11291 0.0
H1634 H 0.77958 0.59873 0.1385 0.0
C1635 C 0.73119 0.54925 0.17798 0.0
C1636 C 0.74753 0.47024 0.40984 0.0
C1637 C 0.72058 0.49484 0.40138 0.0
H1638 H 0.78999 0.43048 0.40231 0.0
C1639 C 0.71528 0.49618 0.37768 0.0
H1640 H 0.75259 0.4683 0.42794 0.0
C1641 C 0.73681 0.47437 0.36291 0.0
C1642 C 0.76441 0.45047 0.37134 0.0
H1643 H 0.69516 0.51487 0.37038 0.0
H1644 H 0.73233 0.47694 0.34478 0.0
C1645 C 0.76907 0.44841 0.39508 0.0
C1646 C 0.8351 0.51968 0.64334 0.0
C1647 C 0.82872 0.516 0.61981 0.0
H1648 H 0.81904 0.50418 0.67719 0.0
C1649 C 0.80086 0.49105 0.61274 0.0
H1650 H 0.85632 0.53835 0.64956 0.0
C1651 C 0.77942 0.47128 0.62868 0.0
C1652 C 0.78516 0.47571 0.65222 0.0
H1653 H 0.79484 0.48747 0.59484 0.0
H1654 H 0.75749 0.45343 0.62246 0.0
C1655 C 0.81362 0.49996 0.65928 0.0
C1656 C 0.20597 0.51427 0.15344 0.0
C1657 C 0.20979 0.51272 0.12964 0.0
H1658 H 0.22356 0.49366 0.18582 0.0
C1659 C 0.23518 0.48722 0.12044 0.0
H1660 H 0.18727 0.53386 0.16127 0.0
C1661 C 0.25641 0.46433 0.1346 0.0
C1662 C 0.25278 0.46606 0.1584 0.0
H1663 H 0.23917 0.48526 0.10223 0.0
H1664 H 0.27623 0.44583 0.1268 0.0
C1665 C 0.22704 0.49122 0.1676 0.0
C1666 C 0.30688 0.48024 0.94284 0.0
C1667 C 0.32524 0.51032 0.93236 0.0
H1668 H 0.26377 0.43891 0.94023 0.0
C1669 C 0.31586 0.5192 0.9098 0.0
H1670 H 0.31334 0.47259 0.96018 0.0
C1671 C 0.2874 0.50008 0.89856 0.0
C1672 C 0.26821 0.47106 0.90935 0.0
H1673 H 0.32918 0.54221 0.90117 0.0
H1674 H 0.27931 0.50904 0.88171 0.0
C1675 C 0.2787 0.46071 0.9314 0.0
C1676 C 0.33302 0.60041 0.64715 0.0
C1677 C 0.29597 0.5893 0.65063 0.0
H1678 H 0.38723 0.5856 0.63514 0.0
C1679 C 0.28528 0.55365 0.64327 0.0
H1680 H 0.34231 0.62762 0.65252 0.0
C1681 C 0.31092 0.52978 0.63284 0.0
C1682 C 0.34818 0.54059 0.62981 0.0
H1683 H 0.25696 0.54416 0.64548 0.0
H1684 H 0.3017 0.50245 0.62763 0.0
C1685 C 0.35882 0.57628 0.6371 0.0
C1686 C 0.26452 0.55651 0.38083 0.0
C1687 C 0.25329 0.59277 0.37533 0.0
H1688 H 0.2486 0.50299 0.39389 0.0
C1689 C 0.21584 0.60218 0.37867 0.0
H1690 H 0.29319 0.5484 0.37868 0.0
C1691 C 0.19025 0.57607 0.38702 0.0
C1692 C 0.20148 0.54 0.39286 0.0
H1693 H 0.20616 0.62981 0.37469 0.0
H1694 H 0.16161 0.58435 0.38913 0.0
C1695 C 0.23903 0.53059 0.38976 0.0
C1696 C 0.29873 0.27506 0.259 0.0
C1697 C 0.27166 0.28283 0.24248 0.0
H1698 H 0.31038 0.25381 0.29218 0.0
C1699 C 0.23443 0.27436 0.24729 0.0
H1700 H 0.32757 0.28213 0.25608 0.0
C1701 C 0.22456 0.25816 0.26805 0.0
C1702 C 0.25165 0.25034 0.28459 0.0
H1703 H 0.21297 0.27991 0.23489 0.0
H1704 H 0.19572 0.25105 0.27092 0.0
C1705 C 0.28886 0.25905 0.27979 0.0
C1706 C 0.06099 0.98853 0.52701 0.0
C1707 C 0.0716 1.01252 0.54482 0.0
H1708 H 0.03 0.98144 0.49623 0.0
C1709 C 0.0595 0.04949 0.54413 0.0
H1710 H 0.07051 0.96011 0.52657 0.0
C1711 C 0.03655 0.06178 0.52649 0.0
C1712 C 0.02504 0.03738 0.50915 0.0
H1713 H 0.06677 0.06865 0.5576 0.0
H1714 H 0.02693 0.09018 0.52679 0.0
C1715 C 0.03781 1.00071 0.50953 0.0
C1716 C 0.29517 0.72312 0.79768 0.0
C1717 C 0.28682 0.76121 0.79854 0.0
H1718 H 0.28937 0.67185 0.77935 0.0
C1719 C 0.26742 0.77706 0.78033 0.0
H1720 H 0.31027 0.71013 0.81142 0.0
C1721 C 0.25616 0.75545 0.76191 0.0
C1722 C 0.26349 0.71715 0.76121 0.0
H1723 H 0.26154 0.80649 0.78008 0.0
H1724 H 0.24162 0.76891 0.7481 0.0
C1725 C 0.2835 0.70126 0.77923 0.0
C1726 C 0.50095 0.06229 1.00736 0.0
C1727 C 0.49275 0.0355 0.02409 0.0
H1728 H 0.52649 0.07393 0.97521 0.0
C1729 C 0.50315 0.99857 0.02023 0.0
H1730 H 0.49245 0.09084 1.00946 0.0
C1731 C 0.52212 0.98889 1.00039 0.0
C1732 C 0.53115 1.01591 0.98401 0.0
H1733 H 0.49753 0.97734 0.03279 0.0
H1734 H 0.53079 0.96039 0.99821 0.0
C1735 C 0.52018 0.05265 0.98763 0.0
C1736 C 0.29541 0.76807 0.23649 0.0
C1737 C 0.25767 0.77733 0.23472 0.0
H1738 H 0.33789 0.74233 0.25635 0.0
C1739 C 0.2335 0.76651 0.25238 0.0
H1740 H 0.31478 0.77548 0.22315 0.0
C1741 C 0.24675 0.74736 0.27135 0.0
C1742 C 0.28456 0.73883 0.2733 0.0
H1743 H 0.20443 0.77384 0.25196 0.0
H1744 H 0.2275 0.74005 0.28479 0.0
C1745 C 0.3087 0.74915 0.25557 0.0
C1746 C 0.5221 0.99107 0.545 0.0
C1747 C 0.52999 0.029 0.54775 0.0
H1748 H 0.49491 0.94924 0.52519 0.0
C1749 C 0.51599 0.05411 0.5316 0.0
H1750 H 0.53208 0.97099 0.5572 0.0
C1751 C 0.49481 0.04166 0.51318 0.0
C1752 C 0.48707 1.00372 0.51034 0.0
H1753 H 0.52215 0.08345 0.53286 0.0
H1754 H 0.48517 0.06177 0.50089 0.0
C1755 C 0.50086 0.97861 0.52657 0.0
C1756 C 0.26943 0.26874 0.80638 0.0
C1757 C 0.26737 0.30716 0.80272 0.0
H1758 H 0.28233 0.21553 0.79203 0.0
C1759 C 0.27839 0.32159 0.78158 0.0
H1760 H 0.26066 0.25694 0.82245 0.0
C1761 C 0.29074 0.29812 0.7643 0.0
C1762 C 0.29186 0.25958 0.76763 0.0
H1763 H 0.27688 0.3511 0.77831 0.0
H1764 H 0.29863 0.31008 0.7481 0.0
C1765 C 0.2813 0.2451 0.7889 0.0
C1766 C 1.00221 0.97258 1.00737 0.0
C1767 C 0.99117 0.99982 0.02313 0.0
H1768 H 0.02873 0.96093 0.97554 0.0
C1769 C 0.99783 0.03727 1.01796 0.0
H1770 H 0.99672 0.9435 1.01054 0.0
C1771 C 1.01571 0.04721 0.99777 0.0
C1772 C 0.0274 1.01994 0.98226 0.0
H1773 H 0.99002 0.05892 0.02977 0.0
H1774 H 0.02151 0.07626 0.9947 0.0
C1775 C 1.02027 0.98252 0.98722 0.0
C1776 C 0.76403 0.81181 0.76665 0.0
C1777 C 0.77941 0.79228 0.74825 0.0
H1778 H 0.74218 0.80919 0.80048 0.0
C1779 C 0.78326 0.75368 0.74995 0.0
H1780 H 0.76137 0.84169 0.766 0.0
C1781 C 0.77215 0.73501 0.76964 0.0
C1782 C 0.75728 0.75451 0.78827 0.0
H1783 H 0.7948 0.73786 0.73599 0.0
H1784 H 0.77479 0.70513 0.77009 0.0
C1785 C 0.7532 0.79318 0.78646 0.0
C1786 C 0.80188 0.26843 0.26655 0.0
C1787 C 0.78793 0.26637 0.28884 0.0
H1788 H 0.79808 0.24919 0.23224 0.0
C1789 C 0.75968 0.24081 0.2937 0.0
H1790 H 0.82363 0.2881 0.26238 0.0
C1791 C 0.74577 0.21754 0.27662 0.0
C1792 C 0.75902 0.21996 0.25403 0.0
H1793 H 0.74882 0.23836 0.31081 0.0
H1794 H 0.72476 0.19743 0.28129 0.0
C1795 C 0.7874 0.24579 0.24932 0.0
C1796 C 0.81379 0.2763 0.76883 0.0
C1797 C 0.78772 0.26872 0.7861 0.0
H1798 H 0.8235 0.29748 0.73528 0.0
C1799 C 0.75029 0.27734 0.78215 0.0
H1800 H 0.84272 0.26919 0.77096 0.0
C1801 C 0.73925 0.29293 0.76148 0.0
C1802 C 0.76535 0.30044 0.74426 0.0
H1803 H 0.72948 0.27226 0.79508 0.0
H1804 H 0.71029 0.29982 0.75915 0.0
C1805 C 0.80278 0.29215 0.74823 0.0
C1806 C 0.77708 0.82903 0.27276 0.0
C1807 C 0.7606 0.81214 0.29178 0.0
H1808 H 0.79758 0.82213 0.23881 0.0
C1809 C 0.75386 0.77376 0.29123 0.0
H1810 H 0.78207 0.85867 0.2726 0.0
C1811 C 0.7629 0.75274 0.27207 0.0
C1812 C 0.77855 0.76954 0.25268 0.0
H1813 H 0.74136 0.75994 0.30571 0.0
H1814 H 0.75793 0.72314 0.27263 0.0
C1815 C 0.78579 0.80802 0.25338 0.0
C1816 C 0.48688 0.50903 0.02709 0.0
C1817 C 0.50737 0.52616 1.00966 0.0
H1818 H 0.48737 0.48636 0.06069 0.0
C1819 C 0.54552 0.53199 1.01265 0.0
H1820 H 0.45724 0.50491 0.02537 0.0
C1821 C 0.56286 0.52119 0.03276 0.0
C1822 C 0.54232 0.5048 0.05052 0.0
H1823 H 0.56192 0.54508 0.99943 0.0
H1824 H 0.59251 0.5254 0.03426 0.0
C1825 C 0.50413 0.49862 0.04736 0.0
C1826 C 0.03705 0.55026 0.49381 0.0
C1827 C 0.04873 0.51333 0.49274 0.0
H1828 H 1.00715 0.59123 0.51235 0.0
C1829 C 0.03993 0.48921 0.51077 0.0
H1830 H 0.04312 0.56928 0.48004 0.0
C1831 C 1.01983 0.50184 0.52955 0.0
C1832 C 1.00797 0.53883 0.53064 0.0
H1833 H 0.04908 0.46064 0.51049 0.0
H1834 H 1.01402 0.48275 0.54332 0.0
C1835 C 1.01664 0.56279 0.51244 0.0
C1836 C 1.01431 0.56291 0.03028 0.0
C1837 C 0.0264 0.5348 0.04513 0.0
H1838 H 0.98812 0.57627 0.99865 0.0
C1839 C 0.02086 0.49763 0.03887 0.0
H1840 H 1.01895 0.59187 0.03426 0.0
C1841 C 1.00374 0.48879 1.01827 0.0
C1842 C 0.99172 0.51691 1.00346 0.0
H1843 H 0.0295 0.47532 0.04995 0.0
H1844 H 0.99924 0.45985 1.01413 0.0
C1845 C 0.99699 0.55406 1.00974 0.0
C1846 C 0.52179 0.47821 0.48779 0.0
C1847 C 0.53069 0.51552 0.48359 0.0
H1848 H 0.49539 0.43911 0.50995 0.0
C1849 C 0.51951 0.54243 0.4995 0.0
H1850 H 0.52978 0.45684 0.47583 0.0
C1851 C 0.50018 0.53231 0.51918 0.0
C1852 C 0.49145 0.49498 0.52352 0.0
H1853 H 0.52663 0.57137 0.4971 0.0
H1854 H 0.49285 0.55374 0.53125 0.0
C1855 C 0.50226 0.46807 0.50745 0.0
loop_
_geom_bond_atom_site_label_1
_geom_bond_atom_site_label_2
_geom_bond_distance
_geom_bond_site_symmetry_2
_ccdc_geom_bond_type
Co0 N4 2.148 . S
Co0 N10 2.128 . S
Co0 N20 2.194 . S
Co0 O25 2.351 . S
Co0 O26 2.155 . S
Co0 O27 2.096 . S
C1 N4 1.301 . S
C1 N5 1.328 . S
C1 H6 0.930 . S
C2 C3 1.333 . S
C2 N4 1.317 . S
C2 H7 0.930 . S
C3 C2 1.333 . S
C3 N5 1.350 . S
C3 H29 0.931 . S
N4 Co0 2.148 . S
N4 C1 1.301 . S
N4 C2 1.317 . S
N5 C1 1.328 . S
N5 C3 1.350 . S
H6 C1 0.930 . S
H7 C2 0.930 . S
C8 O9 1.224 . S
C8 O27 1.247 . S
O9 C8 1.224 . S
N10 Co0 2.128 . S
N10 C11 1.355 . S
N10 C13 1.311 . S
C11 N10 1.355 . S
C11 C12 1.363 . S
C11 H23 0.929 . S
C12 C11 1.363 . S
C12 N14 1.375 . S
C12 H30 0.931 . S
C13 N10 1.311 . S
C13 N14 1.347 . S
C13 H24 0.929 . S
N14 C12 1.375 . S
N14 C13 1.347 . S
C15 C18 1.365 . S
C15 N20 1.328 . S
C15 H21 0.929 . S
C16 C17 1.362 . S
C16 C19 1.378 . S
C16 H31 0.929 . S
C17 C16 1.362 . S
C17 C18 1.366 . S
C18 C15 1.365 . S
C18 C17 1.366 . S
C18 H32 0.930 . S
C19 C16 1.378 . S
C19 N20 1.315 . S
C19 H22 0.930 . S
N20 Co0 2.194 . S
N20 C15 1.328 . S
N20 C19 1.315 . S
H21 C15 0.929 . S
H22 C19 0.930 . S
H23 C11 0.929 . S
H24 C13 0.929 . S
O25 Co0 2.351 . S
O25 C28 1.244 . S
O26 Co0 2.155 . S
O26 C28 1.240 . S
O27 Co0 2.096 . S
O27 C8 1.247 . S
C28 O25 1.244 . S
C28 O26 1.240 . S
H29 C3 0.931 . S
H30 C12 0.931 . S
H31 C16 0.929 . S
H32 C18 0.930 . S
Co33 N37 2.148 . S
Co33 N43 2.128 . S
Co33 N53 2.194 . S
Co33 O58 2.351 . S
Co33 O59 2.155 . S
Co33 O60 2.096 . S
C34 N37 1.301 . S
C34 N38 1.328 . S
C34 H39 0.930 . S
C35 C36 1.333 . S
C35 N37 1.317 . S
C35 H40 0.930 . S
C36 C35 1.333 . S
C36 N38 1.350 . S
C36 H62 0.931 . S
N37 Co33 2.148 . S
N37 C34 1.301 . S
N37 C35 1.317 . S
N38 C34 1.328 . S
N38 C36 1.350 . S
H39 C34 0.930 . S
H40 C35 0.930 . S
C41 O42 1.224 . S
C41 O60 1.247 . S
O42 C41 1.224 . S
N43 Co33 2.128 . S
N43 C44 1.355 . S
N43 C46 1.311 . S
C44 N43 1.355 . S
C44 C45 1.363 . S
C44 H56 0.929 . S
C45 C44 1.363 . S
C45 N47 1.375 . S
C45 H63 0.931 . S
C46 N43 1.311 . S
C46 N47 1.347 . S
C46 H57 0.929 . S
N47 C45 1.375 . S
N47 C46 1.347 . S
C48 C51 1.365 . S
C48 N53 1.328 . S
C48 H54 0.929 . S
C49 C50 1.362 . S
C49 C52 1.378 . S
C49 H64 0.929 1_565 S
C50 C49 1.362 . S
C50 C51 1.366 . S
C51 C48 1.365 . S
C51 C50 1.366 . S
C51 H65 0.930 . S
C52 C49 1.378 . S
C52 N53 1.315 . S
C52 H55 0.930 . S
N53 Co33 2.194 . S
N53 C48 1.328 . S
N53 C52 1.315 . S
H54 C48 0.929 . S
H55 C52 0.930 . S
H56 C44 0.929 . S
H57 C46 0.929 . S
O58 Co33 2.351 . S
O58 C61 1.244 . S
O59 Co33 2.155 . S
O59 C61 1.240 . S
O60 Co33 2.096 . S
O60 C41 1.247 . S
C61 O58 1.244 . S
C61 O59 1.240 . S
H62 C36 0.931 . S
H63 C45 0.931 . S
H64 C49 0.929 1_545 S
H65 C51 0.930 . S
Co66 N70 2.148 . S
Co66 N76 2.128 . S
Co66 N86 2.194 . S
Co66 O91 2.351 . S
Co66 O92 2.155 . S
Co66 O93 2.096 . S
C67 N70 1.301 . S
C67 N71 1.328 . S
C67 H72 0.930 . S
C68 C69 1.333 . S
C68 N70 1.317 . S
C68 H73 0.930 . S
C69 C68 1.333 . S
C69 N71 1.350 . S
C69 H95 0.931 . S
N70 Co66 2.148 . S
N70 C67 1.301 . S
N70 C68 1.317 . S
N71 C67 1.328 . S
N71 C69 1.350 . S
H72 C67 0.930 . S
H73 C68 0.930 . S
C74 O75 1.224 . S
C74 O93 1.247 . S
O75 C74 1.224 . S
N76 Co66 2.128 . S
N76 C77 1.355 . S
N76 C79 1.311 . S
C77 N76 1.355 . S
C77 C78 1.363 . S
C77 H89 0.929 . S
C78 C77 1.363 . S
C78 N80 1.375 . S
C78 H96 0.931 . S
C79 N76 1.311 . S
C79 N80 1.347 . S
C79 H90 0.929 . S
N80 C78 1.375 . S
N80 C79 1.347 . S
C81 C84 1.365 . S
C81 N86 1.328 . S
C81 H87 0.929 . S
C82 C83 1.362 . S
C82 C85 1.378 . S
C82 H97 0.929 . S
C83 C82 1.362 . S
C83 C84 1.366 . S
C84 C81 1.365 . S
C84 C83 1.366 . S
C84 H98 0.930 . S
C85 C82 1.378 . S
C85 N86 1.315 . S
C85 H88 0.930 . S
N86 Co66 2.194 . S
N86 C81 1.328 . S
N86 C85 1.315 . S
H87 C81 0.929 . S
H88 C85 0.930 . S
H89 C77 0.929 . S
H90 C79 0.929 . S
O91 Co66 2.351 . S
O91 C94 1.244 . S
O92 Co66 2.155 . S
O92 C94 1.240 . S
O93 Co66 2.096 . S
O93 C74 1.247 . S
C94 O91 1.244 . S
C94 O92 1.240 . S
H95 C69 0.931 . S
H96 C78 0.931 . S
H97 C82 0.929 . S
H98 C84 0.930 . S
Co99 N103 2.148 . S
Co99 N109 2.128 . S
Co99 N119 2.194 . S
Co99 O124 2.351 . S
Co99 O125 2.155 . S
Co99 O126 2.096 . S
C100 N103 1.301 . S
C100 N104 1.328 . S
C100 H105 0.930 . S
C101 C102 1.333 . S
C101 N103 1.317 . S
C101 H106 0.930 . S
C102 C101 1.333 . S
C102 N104 1.350 . S
C102 H128 0.931 . S
N103 Co99 2.148 . S
N103 C100 1.301 . S
N103 C101 1.317 . S
N104 C100 1.328 . S
N104 C102 1.350 . S
H105 C100 0.930 . S
H106 C101 0.930 . S
C107 O108 1.224 . S
C107 O126 1.247 . S
O108 C107 1.224 . S
N109 Co99 2.128 . S
N109 C110 1.355 . S
N109 C112 1.311 . S
C110 N109 1.355 . S
C110 C111 1.363 . S
C110 H122 0.929 . S
C111 C110 1.363 . S
C111 N113 1.375 . S
C111 H129 0.931 . S
C112 N109 1.311 . S
C112 N113 1.347 . S
C112 H123 0.929 . S
N113 C111 1.375 . S
N113 C112 1.347 . S
C114 C117 1.365 . S
C114 N119 1.328 . S
C114 H120 0.929 . S
C115 C116 1.362 . S
C115 C118 1.378 . S
C115 H130 0.929 1_545 S
C116 C115 1.362 . S
C116 C117 1.366 . S
C117 C114 1.365 . S
C117 C116 1.366 . S
C117 H131 0.930 . S
C118 C115 1.378 . S
C118 N119 1.315 . S
C118 H121 0.930 . S
N119 Co99 2.194 . S
N119 C114 1.328 . S
N119 C118 1.315 . S
H120 C114 0.929 . S
H121 C118 0.930 . S
H122 C110 0.929 . S
H123 C112 0.929 . S
O124 Co99 2.351 . S
O124 C127 1.244 . S
O125 Co99 2.155 . S
O125 C127 1.240 . S
O126 Co99 2.096 . S
O126 C107 1.247 . S
C127 O124 1.244 . S
C127 O125 1.240 . S
H128 C102 0.931 . S
H129 C111 0.931 . S
H130 C115 0.929 1_565 S
H131 C117 0.930 . S
Co132 N136 2.148 . S
Co132 N142 2.128 . S
Co132 N152 2.194 . S
Co132 O157 2.351 . S
Co132 O158 2.155 . S
Co132 O159 2.096 . S
C133 N136 1.301 . S
C133 N137 1.328 . S
C133 H138 0.930 . S
C134 C135 1.333 . S
C134 N136 1.317 . S
C134 H139 0.930 . S
C135 C134 1.333 . S
C135 N137 1.350 . S
C135 H161 0.931 . S
N136 Co132 2.148 . S
N136 C133 1.301 . S
N136 C134 1.317 . S
N137 C133 1.328 . S
N137 C135 1.350 . S
H138 C133 0.930 . S
H139 C134 0.930 . S
C140 O141 1.224 . S
C140 O159 1.247 . S
O141 C140 1.224 . S
N142 Co132 2.128 . S
N142 C143 1.355 . S
N142 C145 1.311 . S
C143 N142 1.355 . S
C143 C144 1.363 . S
C143 H155 0.929 . S
C144 C143 1.363 . S
C144 N146 1.375 . S
C144 H162 0.931 . S
C145 N142 1.311 . S
C145 N146 1.347 . S
C145 H156 0.929 . S
N146 C144 1.375 . S
N146 C145 1.347 . S
C147 C150 1.365 . S
C147 N152 1.328 . S
C147 H153 0.929 . S
C148 C149 1.362 . S
C148 C151 1.378 . S
C148 H163 0.929 . S
C149 C148 1.362 . S
C149 C150 1.366 . S
C150 C147 1.365 . S
C150 C149 1.366 . S
C150 H164 0.930 . S
C151 C148 1.378 . S
C151 N152 1.315 . S
C151 H154 0.930 . S
N152 Co132 2.194 . S
N152 C147 1.328 . S
N152 C151 1.315 . S
H153 C147 0.929 . S
H154 C151 0.930 . S
H155 C143 0.929 . S
H156 C145 0.929 . S
O157 Co132 2.351 . S
O157 C160 1.244 . S
O158 Co132 2.155 . S
O158 C160 1.240 . S
O159 Co132 2.096 . S
O159 C140 1.247 . S
C160 O157 1.244 . S
C160 O158 1.240 . S
H161 C135 0.931 . S
H162 C144 0.931 . S
H163 C148 0.929 . S
H164 C150 0.930 . S
Co165 N169 2.148 . S
Co165 N175 2.128 . S
Co165 N185 2.194 . S
Co165 O190 2.351 . S
Co165 O191 2.155 . S
Co165 O192 2.096 . S
C166 N169 1.301 . S
C166 N170 1.328 . S
C166 H171 0.930 . S
C167 C168 1.333 . S
C167 N169 1.317 . S
C167 H172 0.930 . S
C168 C167 1.333 . S
C168 N170 1.350 . S
C168 H194 0.931 . S
N169 Co165 2.148 . S
N169 C166 1.301 . S
N169 C167 1.317 . S
N170 C166 1.328 . S
N170 C168 1.350 . S
H171 C166 0.930 . S
H172 C167 0.930 . S
C173 O174 1.224 . S
C173 O192 1.247 . S
O174 C173 1.224 . S
N175 Co165 2.128 . S
N175 C176 1.355 . S
N175 C178 1.311 . S
C176 N175 1.355 . S
C176 C177 1.363 . S
C176 H188 0.929 . S
C177 C176 1.363 . S
C177 N179 1.375 . S
C177 H195 0.931 . S
C178 N175 1.311 . S
C178 N179 1.347 . S
C178 H189 0.929 . S
N179 C177 1.375 . S
N179 C178 1.347 . S
C180 C183 1.365 . S
C180 N185 1.328 . S
C180 H186 0.929 . S
C181 C182 1.362 . S
C181 C184 1.378 . S
C181 H196 0.929 1_565 S
C182 C181 1.362 . S
C182 C183 1.366 . S
C183 C180 1.365 . S
C183 C182 1.366 . S
C183 H197 0.930 . S
C184 C181 1.378 . S
C184 N185 1.315 . S
C184 H187 0.930 . S
N185 Co165 2.194 . S
N185 C180 1.328 . S
N185 C184 1.315 . S
H186 C180 0.929 . S
H187 C184 0.930 . S
H188 C176 0.929 . S
H189 C178 0.929 . S
O190 Co165 2.351 . S
O190 C193 1.244 . S
O191 Co165 2.155 . S
O191 C193 1.240 . S
O192 Co165 2.096 . S
O192 C173 1.247 . S
C193 O190 1.244 . S
C193 O191 1.240 . S
H194 C168 0.931 . S
H195 C177 0.931 . S
H196 C181 0.929 1_545 S
H197 C183 0.930 . S
Co198 N202 2.148 . S
Co198 N208 2.128 . S
Co198 N218 2.194 . S
Co198 O223 2.351 . S
Co198 O224 2.155 . S
Co198 O225 2.096 . S
C199 N202 1.301 . S
C199 N203 1.328 . S
C199 H204 0.930 . S
C200 C201 1.333 . S
C200 N202 1.317 . S
C200 H205 0.930 . S
C201 C200 1.333 . S
C201 N203 1.350 . S
C201 H227 0.931 . S
N202 Co198 2.148 . S
N202 C199 1.301 . S
N202 C200 1.317 . S
N203 C199 1.328 . S
N203 C201 1.350 . S
H204 C199 0.930 . S
H205 C200 0.930 . S
C206 O207 1.224 . S
C206 O225 1.247 . S
O207 C206 1.224 . S
N208 Co198 2.128 . S
N208 C209 1.355 . S
N208 C211 1.311 . S
C209 N208 1.355 . S
C209 C210 1.363 . S
C209 H221 0.929 . S
C210 C209 1.363 . S
C210 N212 1.375 . S
C210 H228 0.931 . S
C211 N208 1.311 . S
C211 N212 1.347 . S
C211 H222 0.929 . S
N212 C210 1.375 . S
N212 C211 1.347 . S
C213 C216 1.365 . S
C213 N218 1.328 . S
C213 H219 0.929 . S
C214 C215 1.362 . S
C214 C217 1.378 . S
C214 H229 0.929 . S
C215 C214 1.362 . S
C215 C216 1.366 . S
C216 C213 1.365 . S
C216 C215 1.366 . S
C216 H230 0.930 . S
C217 C214 1.378 . S
C217 N218 1.315 . S
C217 H220 0.930 . S
N218 Co198 2.194 . S
N218 C213 1.328 . S
N218 C217 1.315 . S
H219 C213 0.929 . S
H220 C217 0.930 . S
H221 C209 0.929 . S
H222 C211 0.929 . S
O223 Co198 2.351 . S
O223 C226 1.244 . S
O224 Co198 2.155 . S
O224 C226 1.240 . S
O225 Co198 2.096 . S
O225 C206 1.247 . S
C226 O223 1.244 . S
C226 O224 1.240 . S
H227 C201 0.931 . S
H228 C210 0.931 . S
H229 C214 0.929 . S
H230 C216 0.930 . S
Co231 N235 2.148 . S
Co231 N241 2.128 . S
Co231 N251 2.194 . S
Co231 O256 2.351 . S
Co231 O257 2.155 . S
Co231 O258 2.096 . S
C232 N235 1.301 . S
C232 N236 1.328 . S
C232 H237 0.930 . S
C233 C234 1.333 . S
C233 N235 1.317 . S
C233 H238 0.930 . S
C234 C233 1.333 . S
C234 N236 1.350 . S
C234 H260 0.931 . S
N235 Co231 2.148 . S
N235 C232 1.301 . S
N235 C233 1.317 . S
N236 C232 1.328 . S
N236 C234 1.350 . S
H237 C232 0.930 . S
H238 C233 0.930 . S
C239 O240 1.224 . S
C239 O258 1.247 . S
O240 C239 1.224 . S
N241 Co231 2.128 . S
N241 C242 1.355 . S
N241 C244 1.311 . S
C242 N241 1.355 . S
C242 C243 1.363 . S
C242 H254 0.929 . S
C243 C242 1.363 . S
C243 N245 1.375 . S
C243 H261 0.931 . S
C244 N241 1.311 . S
C244 N245 1.347 . S
C244 H255 0.929 . S
N245 C243 1.375 . S
N245 C244 1.347 . S
C246 C249 1.365 . S
C246 N251 1.328 . S
C246 H252 0.929 . S
C247 C248 1.362 . S
C247 C250 1.378 . S
C247 H262 0.929 1_545 S
C248 C247 1.362 . S
C248 C249 1.366 . S
C249 C246 1.365 . S
C249 C248 1.366 . S
C249 H263 0.930 . S
C250 C247 1.378 . S
C250 N251 1.315 . S
C250 H253 0.930 . S
N251 Co231 2.194 . S
N251 C246 1.328 . S
N251 C250 1.315 . S
H252 C246 0.929 . S
H253 C250 0.930 . S
H254 C242 0.929 . S
H255 C244 0.929 . S
O256 Co231 2.351 . S
O256 C259 1.244 . S
O257 Co231 2.155 . S
O257 C259 1.240 . S
O258 Co231 2.096 . S
O258 C239 1.247 . S
C259 O256 1.244 . S
C259 O257 1.240 . S
H260 C234 0.931 . S
H261 C243 0.931 . S
H262 C247 0.929 1_565 S
H263 C249 0.930 . S
Co264 N268 2.148 . S
Co264 N274 2.128 . S
Co264 N284 2.194 . S
Co264 O289 2.351 . S
Co264 O290 2.155 . S
Co264 O291 2.096 . S
C265 N268 1.301 . S
C265 N269 1.328 . S
C265 H270 0.930 . S
C266 C267 1.333 . S
C266 N268 1.317 . S
C266 H271 0.930 . S
C267 C266 1.333 . S
C267 N269 1.350 . S
C267 H293 0.931 . S
N268 Co264 2.148 . S
N268 C265 1.301 . S
N268 C266 1.317 . S
N269 C265 1.328 . S
N269 C267 1.350 . S
H270 C265 0.930 . S
H271 C266 0.930 . S
C272 O273 1.224 . S
C272 O291 1.247 . S
O273 C272 1.224 . S
N274 Co264 2.128 . S
N274 C275 1.355 . S
N274 C277 1.311 . S
C275 N274 1.355 . S
C275 C276 1.363 . S
C275 H287 0.929 . S
C276 C275 1.363 . S
C276 N278 1.375 . S
C276 H294 0.931 . S
C277 N274 1.311 . S
C277 N278 1.347 . S
C277 H288 0.929 . S
N278 C276 1.375 . S
N278 C277 1.347 . S
C279 C282 1.365 . S
C279 N284 1.328 . S
C279 H285 0.929 . S
C280 C281 1.362 . S
C280 C283 1.378 . S
C280 H295 0.929 . S
C281 C280 1.362 . S
C281 C282 1.366 . S
C282 C279 1.365 . S
C282 C281 1.366 . S
C282 H296 0.930 . S
C283 C280 1.378 . S
C283 N284 1.315 . S
C283 H286 0.930 . S
N284 Co264 2.194 . S
N284 C279 1.328 . S
N284 C283 1.315 . S
H285 C279 0.929 . S
H286 C283 0.930 . S
H287 C275 0.929 . S
H288 C277 0.929 . S
O289 Co264 2.351 . S
O289 C292 1.244 . S
O290 Co264 2.155 . S
O290 C292 1.240 . S
O291 Co264 2.096 . S
O291 C272 1.247 . S
C292 O289 1.244 . S
C292 O290 1.240 . S
H293 C267 0.931 . S
H294 C276 0.931 . S
H295 C280 0.929 . S
H296 C282 0.930 . S
Co297 N301 2.148 . S
Co297 N307 2.128 . S
Co297 N317 2.194 . S
Co297 O322 2.351 . S
Co297 O323 2.155 . S
Co297 O324 2.096 . S
C298 N301 1.301 . S
C298 N302 1.328 . S
C298 H303 0.930 . S
C299 C300 1.333 . S
C299 N301 1.317 . S
C299 H304 0.930 . S
C300 C299 1.333 . S
C300 N302 1.350 . S
C300 H326 0.931 . S
N301 Co297 2.148 . S
N301 C298 1.301 . S
N301 C299 1.317 . S
N302 C298 1.328 . S
N302 C300 1.350 . S
H303 C298 0.930 . S
H304 C299 0.930 . S
C305 O306 1.224 . S
C305 O324 1.247 . S
O306 C305 1.224 . S
N307 Co297 2.128 . S
N307 C308 1.355 . S
N307 C310 1.311 . S
C308 N307 1.355 . S
C308 C309 1.363 . S
C308 H320 0.929 . S
C309 C308 1.363 . S
C309 N311 1.375 . S
C309 H327 0.931 . S
C310 N307 1.311 . S
C310 N311 1.347 . S
C310 H321 0.929 . S
N311 C309 1.375 . S
N311 C310 1.347 . S
C312 C315 1.365 . S
C312 N317 1.328 . S
C312 H318 0.929 . S
C313 C314 1.362 . S
C313 C316 1.378 . S
C313 H328 0.929 1_545 S
C314 C313 1.362 . S
C314 C315 1.366 . S
C315 C312 1.365 . S
C315 C314 1.366 . S
C315 H329 0.930 . S
C316 C313 1.378 . S
C316 N317 1.315 . S
C316 H319 0.930 . S
N317 Co297 2.194 . S
N317 C312 1.328 . S
N317 C316 1.315 . S
H318 C312 0.929 . S
H319 C316 0.930 . S
H320 C308 0.929 . S
H321 C310 0.929 . S
O322 Co297 2.351 . S
O322 C325 1.244 . S
O323 Co297 2.155 . S
O323 C325 1.240 . S
O324 Co297 2.096 . S
O324 C305 1.247 . S
C325 O322 1.244 . S
C325 O323 1.240 . S
H326 C300 0.931 . S
H327 C309 0.931 . S
H328 C313 0.929 1_565 S
H329 C315 0.930 . S
Co330 N334 2.148 . S
Co330 N340 2.128 . S
Co330 N350 2.194 . S
Co330 O355 2.351 . S
Co330 O356 2.155 . S
Co330 O357 2.096 . S
C331 N334 1.301 . S
C331 N335 1.328 . S
C331 H336 0.930 . S
C332 C333 1.333 . S
C332 N334 1.317 . S
C332 H337 0.930 . S
C333 C332 1.333 . S
C333 N335 1.350 . S
C333 H359 0.931 . S
N334 Co330 2.148 . S
N334 C331 1.301 . S
N334 C332 1.317 . S
N335 C331 1.328 . S
N335 C333 1.350 . S
H336 C331 0.930 . S
H337 C332 0.930 . S
C338 O339 1.224 . S
C338 O357 1.247 . S
O339 C338 1.224 . S
N340 Co330 2.128 . S
N340 C341 1.355 . S
N340 C343 1.311 . S
C341 N340 1.355 . S
C341 C342 1.363 . S
C341 H353 0.929 . S
C342 C341 1.363 . S
C342 N344 1.375 . S
C342 H360 0.931 . S
C343 N340 1.311 . S
C343 N344 1.347 . S
C343 H354 0.929 . S
N344 C342 1.375 . S
N344 C343 1.347 . S
C345 C348 1.365 . S
C345 N350 1.328 . S
C345 H351 0.929 . S
C346 C347 1.362 . S
C346 C349 1.378 . S
C346 H361 0.929 . S
C347 C346 1.362 . S
C347 C348 1.366 . S
C348 C345 1.365 . S
C348 C347 1.366 . S
C348 H362 0.930 . S
C349 C346 1.378 . S
C349 N350 1.315 . S
C349 H352 0.930 . S
N350 Co330 2.194 . S
N350 C345 1.328 . S
N350 C349 1.315 . S
H351 C345 0.929 . S
H352 C349 0.930 . S
H353 C341 0.929 . S
H354 C343 0.929 . S
O355 Co330 2.351 . S
O355 C358 1.244 . S
O356 Co330 2.155 . S
O356 C358 1.240 . S
O357 Co330 2.096 . S
O357 C338 1.247 . S
C358 O355 1.244 . S
C358 O356 1.240 . S
H359 C333 0.931 . S
H360 C342 0.931 . S
H361 C346 0.929 . S
H362 C348 0.930 . S
Co363 N367 2.148 . S
Co363 N373 2.128 . S
Co363 N383 2.194 . S
Co363 O388 2.351 . S
Co363 O389 2.155 . S
Co363 O390 2.096 . S
C364 N367 1.301 . S
C364 N368 1.328 . S
C364 H369 0.930 . S
C365 C366 1.333 . S
C365 N367 1.317 . S
C365 H370 0.930 . S
C366 C365 1.333 . S
C366 N368 1.350 . S
C366 H392 0.931 . S
N367 Co363 2.148 . S
N367 C364 1.301 . S
N367 C365 1.317 . S
N368 C364 1.328 . S
N368 C366 1.350 . S
H369 C364 0.930 . S
H370 C365 0.930 . S
C371 O372 1.224 . S
C371 O390 1.247 . S
O372 C371 1.224 . S
N373 Co363 2.128 . S
N373 C374 1.355 . S
N373 C376 1.311 . S
C374 N373 1.355 . S
C374 C375 1.363 . S
C374 H386 0.929 . S
C375 C374 1.363 . S
C375 N377 1.375 . S
C375 H393 0.931 . S
C376 N373 1.311 . S
C376 N377 1.347 . S
C376 H387 0.929 . S
N377 C375 1.375 . S
N377 C376 1.347 . S
C378 C381 1.365 . S
C378 N383 1.328 . S
C378 H384 0.929 . S
C379 C380 1.362 . S
C379 C382 1.378 . S
C379 H394 0.929 1_565 S
C380 C379 1.362 . S
C380 C381 1.366 . S
C381 C378 1.365 . S
C381 C380 1.366 . S
C381 H395 0.930 . S
C382 C379 1.378 . S
C382 N383 1.315 . S
C382 H385 0.930 . S
N383 Co363 2.194 . S
N383 C378 1.328 . S
N383 C382 1.315 . S
H384 C378 0.929 . S
H385 C382 0.930 . S
H386 C374 0.929 . S
H387 C376 0.929 . S
O388 Co363 2.351 . S
O388 C391 1.244 . S
O389 Co363 2.155 . S
O389 C391 1.240 . S
O390 Co363 2.096 . S
O390 C371 1.247 . S
C391 O388 1.244 . S
C391 O389 1.240 . S
H392 C366 0.931 . S
H393 C375 0.931 . S
H394 C379 0.929 1_545 S
H395 C381 0.930 . S
Co396 N400 2.148 . S
Co396 N406 2.128 . S
Co396 N416 2.194 . S
Co396 O421 2.351 . S
Co396 O422 2.155 . S
Co396 O423 2.096 . S
C397 N400 1.301 . S
C397 N401 1.328 . S
C397 H402 0.930 . S
C398 C399 1.333 . S
C398 N400 1.317 . S
C398 H403 0.930 . S
C399 C398 1.333 . S
C399 N401 1.350 . S
C399 H425 0.931 . S
N400 Co396 2.148 . S
N400 C397 1.301 . S
N400 C398 1.317 . S
N401 C397 1.328 . S
N401 C399 1.350 . S
H402 C397 0.930 . S
H403 C398 0.930 . S
C404 O405 1.224 . S
C404 O423 1.247 . S
O405 C404 1.224 . S
N406 Co396 2.128 . S
N406 C407 1.355 . S
N406 C409 1.311 . S
C407 N406 1.355 . S
C407 C408 1.363 . S
C407 H419 0.929 . S
C408 C407 1.363 . S
C408 N410 1.375 . S
C408 H426 0.931 . S
C409 N406 1.311 . S
C409 N410 1.347 . S
C409 H420 0.929 . S
N410 C408 1.375 . S
N410 C409 1.347 . S
C411 C414 1.365 . S
C411 N416 1.328 . S
C411 H417 0.929 . S
C412 C413 1.362 . S
C412 C415 1.378 . S
C412 H427 0.929 . S
C413 C412 1.362 . S
C413 C414 1.366 . S
C414 C411 1.365 . S
C414 C413 1.366 . S
C414 H428 0.930 . S
C415 C412 1.378 . S
C415 N416 1.315 . S
C415 H418 0.930 . S
N416 Co396 2.194 . S
N416 C411 1.328 . S
N416 C415 1.315 . S
H417 C411 0.929 . S
H418 C415 0.930 . S
H419 C407 0.929 . S
H420 C409 0.929 . S
O421 Co396 2.351 . S
O421 C424 1.244 . S
O422 Co396 2.155 . S
O422 C424 1.240 . S
O423 Co396 2.096 . S
O423 C404 1.247 . S
C424 O421 1.244 . S
C424 O422 1.240 . S
H425 C399 0.931 . S
H426 C408 0.931 . S
H427 C412 0.929 . S
H428 C414 0.930 . S
Co429 N433 2.148 . S
Co429 N439 2.128 . S
Co429 N449 2.194 . S
Co429 O454 2.351 . S
Co429 O455 2.155 . S
Co429 O456 2.096 . S
C430 N433 1.301 . S
C430 N434 1.328 . S
C430 H435 0.930 . S
C431 C432 1.333 . S
C431 N433 1.317 . S
C431 H436 0.930 . S
C432 C431 1.333 . S
C432 N434 1.350 . S
C432 H458 0.931 . S
N433 Co429 2.148 . S
N433 C430 1.301 . S
N433 C431 1.317 . S
N434 C430 1.328 . S
N434 C432 1.350 . S
H435 C430 0.930 . S
H436 C431 0.930 . S
C437 O438 1.224 . S
C437 O456 1.247 . S
O438 C437 1.224 . S
N439 Co429 2.128 . S
N439 C440 1.355 . S
N439 C442 1.311 . S
C440 N439 1.355 . S
C440 C441 1.363 . S
C440 H452 0.929 . S
C441 C440 1.363 . S
C441 N443 1.375 . S
C441 H459 0.931 . S
C442 N439 1.311 . S
C442 N443 1.347 . S
C442 H453 0.929 . S
N443 C441 1.375 . S
N443 C442 1.347 . S
C444 C447 1.365 . S
C444 N449 1.328 . S
C444 H450 0.929 . S
C445 C446 1.362 . S
C445 C448 1.378 . S
C445 H460 0.929 1_545 S
C446 C445 1.362 . S
C446 C447 1.366 . S
C447 C444 1.365 . S
C447 C446 1.366 . S
C447 H461 0.930 . S
C448 C445 1.378 . S
C448 N449 1.315 . S
C448 H451 0.930 . S
N449 Co429 2.194 . S
N449 C444 1.328 . S
N449 C448 1.315 . S
H450 C444 0.929 . S
H451 C448 0.930 . S
H452 C440 0.929 . S
H453 C442 0.929 . S
O454 Co429 2.351 . S
O454 C457 1.244 . S
O455 Co429 2.155 . S
O455 C457 1.240 . S
O456 Co429 2.096 . S
O456 C437 1.247 . S
C457 O454 1.244 . S
C457 O455 1.240 . S
H458 C432 0.931 . S
H459 C441 0.931 . S
H460 C445 0.929 1_565 S
H461 C447 0.930 . S
Co462 N466 2.148 . S
Co462 N472 2.128 . S
Co462 N482 2.194 . S
Co462 O487 2.351 . S
Co462 O488 2.155 . S
Co462 O489 2.096 . S
C463 N466 1.301 . S
C463 N467 1.328 . S
C463 H468 0.930 . S
C464 C465 1.333 . S
C464 N466 1.317 . S
C464 H469 0.930 . S
C465 C464 1.333 . S
C465 N467 1.350 . S
C465 H491 0.931 . S
N466 Co462 2.148 . S
N466 C463 1.301 . S
N466 C464 1.317 . S
N467 C463 1.328 . S
N467 C465 1.350 . S
H468 C463 0.930 . S
H469 C464 0.930 . S
C470 O471 1.224 . S
C470 O489 1.247 . S
O471 C470 1.224 . S
N472 Co462 2.128 . S
N472 C473 1.355 . S
N472 C475 1.311 . S
C473 N472 1.355 . S
C473 C474 1.363 . S
C473 H485 0.929 . S
C474 C473 1.363 . S
C474 N476 1.375 . S
C474 H492 0.931 . S
C475 N472 1.311 . S
C475 N476 1.347 . S
C475 H486 0.929 . S
N476 C474 1.375 . S
N476 C475 1.347 . S
C477 C480 1.365 . S
C477 N482 1.328 . S
C477 H483 0.929 . S
C478 C479 1.362 . S
C478 C481 1.378 . S
C478 H493 0.929 . S
C479 C478 1.362 . S
C479 C480 1.366 . S
C480 C477 1.365 . S
C480 C479 1.366 . S
C480 H494 0.930 . S
C481 C478 1.378 . S
C481 N482 1.315 . S
C481 H484 0.930 . S
N482 Co462 2.194 . S
N482 C477 1.328 . S
N482 C481 1.315 . S
H483 C477 0.929 . S
H484 C481 0.930 . S
H485 C473 0.929 . S
H486 C475 0.929 . S
O487 Co462 2.351 . S
O487 C490 1.244 . S
O488 Co462 2.155 . S
O488 C490 1.240 . S
O489 Co462 2.096 . S
O489 C470 1.247 . S
C490 O487 1.244 . S
C490 O488 1.240 . S
H491 C465 0.931 . S
H492 C474 0.931 . S
H493 C478 0.929 . S
H494 C480 0.930 . S
Co495 N499 2.148 . S
Co495 N505 2.128 . S
Co495 N515 2.194 . S
Co495 O520 2.351 . S
Co495 O521 2.155 . S
Co495 O522 2.096 . S
C496 N499 1.301 . S
C496 N500 1.328 . S
C496 H501 0.930 . S
C497 C498 1.333 . S
C497 N499 1.317 . S
C497 H502 0.930 . S
C498 C497 1.333 . S
C498 N500 1.350 . S
C498 H524 0.931 . S
N499 Co495 2.148 . S
N499 C496 1.301 . S
N499 C497 1.317 . S
N500 C496 1.328 . S
N500 C498 1.350 . S
H501 C496 0.930 . S
H502 C497 0.930 . S
C503 O504 1.224 . S
C503 O522 1.247 . S
O504 C503 1.224 . S
N505 Co495 2.128 . S
N505 C506 1.355 . S
N505 C508 1.311 . S
C506 N505 1.355 . S
C506 C507 1.363 . S
C506 H518 0.929 . S
C507 C506 1.363 . S
C507 N509 1.375 . S
C507 H525 0.931 . S
C508 N505 1.311 . S
C508 N509 1.347 . S
C508 H519 0.929 . S
N509 C507 1.375 . S
N509 C508 1.347 . S
C510 C513 1.365 . S
C510 N515 1.328 . S
C510 H516 0.929 . S
C511 C512 1.362 . S
C511 C514 1.378 . S
C511 H526 0.929 1_565 S
C512 C511 1.362 . S
C512 C513 1.366 . S
C513 C510 1.365 . S
C513 C512 1.366 . S
C513 H527 0.930 . S
C514 C511 1.378 . S
C514 N515 1.315 . S
C514 H517 0.930 . S
N515 Co495 2.194 . S
N515 C510 1.328 . S
N515 C514 1.315 . S
H516 C510 0.929 . S
H517 C514 0.930 . S
H518 C506 0.929 . S
H519 C508 0.929 . S
O520 Co495 2.351 . S
O520 C523 1.244 . S
O521 Co495 2.155 . S
O521 C523 1.240 . S
O522 Co495 2.096 . S
O522 C503 1.247 . S
C523 O520 1.244 . S
C523 O521 1.240 . S
H524 C498 0.931 . S
H525 C507 0.931 . S
H526 C511 0.929 1_545 S
H527 C513 0.930 . S
Co528 N532 2.148 . S
Co528 N538 2.128 . S
Co528 N548 2.194 . S
Co528 O553 2.351 . S
Co528 O554 2.155 . S
Co528 O555 2.096 . S
C529 N532 1.301 . S
C529 N533 1.328 . S
C529 H534 0.930 . S
C530 C531 1.333 . S
C530 N532 1.317 . S
C530 H535 0.930 . S
C531 C530 1.333 . S
C531 N533 1.350 . S
C531 H557 0.931 . S
N532 Co528 2.148 . S
N532 C529 1.301 . S
N532 C530 1.317 . S
N533 C529 1.328 . S
N533 C531 1.350 . S
H534 C529 0.930 . S
H535 C530 0.930 . S
C536 O537 1.224 . S
C536 O555 1.247 . S
O537 C536 1.224 . S
N538 Co528 2.128 . S
N538 C539 1.355 . S
N538 C541 1.311 . S
C539 N538 1.355 . S
C539 C540 1.363 . S
C539 H551 0.929 . S
C540 C539 1.363 . S
C540 N542 1.375 . S
C540 H558 0.931 . S
C541 N538 1.311 . S
C541 N542 1.347 . S
C541 H552 0.929 . S
N542 C540 1.375 . S
N542 C541 1.347 . S
C543 C546 1.365 . S
C543 N548 1.328 . S
C543 H549 0.929 . S
C544 C545 1.362 . S
C544 C547 1.378 . S
C544 H559 0.929 . S
C545 C544 1.362 . S
C545 C546 1.366 . S
C546 C543 1.365 . S
C546 C545 1.366 . S
C546 H560 0.930 . S
C547 C544 1.378 . S
C547 N548 1.315 . S
C547 H550 0.930 . S
N548 Co528 2.194 . S
N548 C543 1.328 . S
N548 C547 1.315 . S
H549 C543 0.929 . S
H550 C547 0.930 . S
H551 C539 0.929 . S
H552 C541 0.929 . S
O553 Co528 2.351 . S
O553 C556 1.244 . S
O554 Co528 2.155 . S
O554 C556 1.240 . S
O555 Co528 2.096 . S
O555 C536 1.247 . S
C556 O553 1.244 . S
C556 O554 1.240 . S
H557 C531 0.931 . S
H558 C540 0.931 . S
H559 C544 0.929 . S
H560 C546 0.930 . S
Co561 N565 2.148 . S
Co561 N571 2.128 . S
Co561 N581 2.194 . S
Co561 O586 2.351 . S
Co561 O587 2.155 . S
Co561 O588 2.096 . S
C562 N565 1.301 . S
C562 N566 1.328 . S
C562 H567 0.930 . S
C563 C564 1.333 . S
C563 N565 1.317 . S
C563 H568 0.930 . S
C564 C563 1.333 . S
C564 N566 1.350 . S
C564 H590 0.931 . S
N565 Co561 2.148 . S
N565 C562 1.301 . S
N565 C563 1.317 . S
N566 C562 1.328 . S
N566 C564 1.350 . S
H567 C562 0.930 . S
H568 C563 0.930 . S
C569 O570 1.224 . S
C569 O588 1.247 . S
O570 C569 1.224 . S
N571 Co561 2.128 . S
N571 C572 1.355 . S
N571 C574 1.311 . S
C572 N571 1.355 . S
C572 C573 1.363 . S
C572 H584 0.929 . S
C573 C572 1.363 . S
C573 N575 1.375 . S
C573 H591 0.931 . S
C574 N571 1.311 . S
C574 N575 1.347 . S
C574 H585 0.929 . S
N575 C573 1.375 . S
N575 C574 1.347 . S
C576 C579 1.365 . S
C576 N581 1.328 . S
C576 H582 0.929 . S
C577 C578 1.362 . S
C577 C580 1.378 . S
C577 H592 0.929 . S
C578 C577 1.362 . S
C578 C579 1.366 . S
C579 C576 1.365 . S
C579 C578 1.366 . S
C579 H593 0.930 . S
C580 C577 1.378 . S
C580 N581 1.315 . S
C580 H583 0.930 . S
N581 Co561 2.194 . S
N581 C576 1.328 . S
N581 C580 1.315 . S
H582 C576 0.929 . S
H583 C580 0.930 . S
H584 C572 0.929 . S
H585 C574 0.929 . S
O586 Co561 2.351 . S
O586 C589 1.244 . S
O587 Co561 2.155 . S
O587 C589 1.240 . S
O588 Co561 2.096 . S
O588 C569 1.247 . S
C589 O586 1.244 . S
C589 O587 1.240 . S
H590 C564 0.931 . S
H591 C573 0.931 . S
H592 C577 0.929 . S
H593 C579 0.930 . S
Co594 N598 2.148 . S
Co594 N604 2.128 . S
Co594 N614 2.194 . S
Co594 O619 2.351 . S
Co594 O620 2.155 . S
Co594 O621 2.096 . S
C595 N598 1.301 . S
C595 N599 1.328 . S
C595 H600 0.930 . S
C596 C597 1.333 . S
C596 N598 1.317 . S
C596 H601 0.930 . S
C597 C596 1.333 . S
C597 N599 1.350 . S
C597 H623 0.931 . S
N598 Co594 2.148 . S
N598 C595 1.301 . S
N598 C596 1.317 . S
N599 C595 1.328 . S
N599 C597 1.350 . S
H600 C595 0.930 . S
H601 C596 0.930 . S
C602 O603 1.224 . S
C602 O621 1.247 . S
O603 C602 1.224 . S
N604 Co594 2.128 . S
N604 C605 1.355 . S
N604 C607 1.311 . S
C605 N604 1.355 . S
C605 C606 1.363 . S
C605 H617 0.929 . S
C606 C605 1.363 . S
C606 N608 1.375 . S
C606 H624 0.931 . S
C607 N604 1.311 . S
C607 N608 1.347 . S
C607 H618 0.929 . S
N608 C606 1.375 . S
N608 C607 1.347 . S
C609 C612 1.365 . S
C609 N614 1.328 . S
C609 H615 0.929 . S
C610 C611 1.362 . S
C610 C613 1.378 . S
C610 H625 0.929 . S
C611 C610 1.362 . S
C611 C612 1.366 . S
C612 C609 1.365 . S
C612 C611 1.366 . S
C612 H626 0.930 . S
C613 C610 1.378 . S
C613 N614 1.315 . S
C613 H616 0.930 . S
N614 Co594 2.194 . S
N614 C609 1.328 . S
N614 C613 1.315 . S
H615 C609 0.929 . S
H616 C613 0.930 . S
H617 C605 0.929 . S
H618 C607 0.929 . S
O619 Co594 2.351 . S
O619 C622 1.244 . S
O620 Co594 2.155 . S
O620 C622 1.240 . S
O621 Co594 2.096 . S
O621 C602 1.247 . S
C622 O619 1.244 . S
C622 O620 1.240 . S
H623 C597 0.931 . S
H624 C606 0.931 . S
H625 C610 0.929 . S
H626 C612 0.930 . S
Co627 N631 2.148 . S
Co627 N637 2.128 . S
Co627 N647 2.194 . S
Co627 O652 2.351 . S
Co627 O653 2.155 . S
Co627 O654 2.096 . S
C628 N631 1.301 . S
C628 N632 1.328 . S
C628 H633 0.930 . S
C629 C630 1.333 . S
C629 N631 1.317 . S
C629 H634 0.930 . S
C630 C629 1.333 . S
C630 N632 1.350 . S
C630 H656 0.931 . S
N631 Co627 2.148 . S
N631 C628 1.301 . S
N631 C629 1.317 . S
N632 C628 1.328 . S
N632 C630 1.350 . S
H633 C628 0.930 . S
H634 C629 0.930 . S
C635 O636 1.224 . S
C635 O654 1.247 . S
O636 C635 1.224 . S
N637 Co627 2.128 . S
N637 C638 1.355 . S
N637 C640 1.311 . S
C638 N637 1.355 . S
C638 C639 1.363 . S
C638 H650 0.929 . S
C639 C638 1.363 . S
C639 N641 1.375 . S
C639 H657 0.931 . S
C640 N637 1.311 . S
C640 N641 1.347 . S
C640 H651 0.929 . S
N641 C639 1.375 . S
N641 C640 1.347 . S
C642 C645 1.365 . S
C642 N647 1.328 . S
C642 H648 0.929 . S
C643 C644 1.362 . S
C643 C646 1.378 . S
C643 H658 0.929 . S
C644 C643 1.362 . S
C644 C645 1.366 . S
C645 C642 1.365 . S
C645 C644 1.366 . S
C645 H659 0.930 . S
C646 C643 1.378 . S
C646 N647 1.315 . S
C646 H649 0.930 . S
N647 Co627 2.194 . S
N647 C642 1.328 . S
N647 C646 1.315 . S
H648 C642 0.929 . S
H649 C646 0.930 . S
H650 C638 0.929 . S
H651 C640 0.929 . S
O652 Co627 2.351 . S
O652 C655 1.244 . S
O653 Co627 2.155 . S
O653 C655 1.240 . S
O654 Co627 2.096 . S
O654 C635 1.247 . S
C655 O652 1.244 . S
C655 O653 1.240 . S
H656 C630 0.931 . S
H657 C639 0.931 . S
H658 C643 0.929 . S
H659 C645 0.930 . S
Co660 N664 2.148 . S
Co660 N670 2.128 . S
Co660 N680 2.194 . S
Co660 O685 2.351 . S
Co660 O686 2.155 . S
Co660 O687 2.096 . S
C661 N664 1.301 . S
C661 N665 1.328 . S
C661 H666 0.930 . S
C662 C663 1.333 . S
C662 N664 1.317 . S
C662 H667 0.930 . S
C663 C662 1.333 . S
C663 N665 1.350 . S
C663 H689 0.931 . S
N664 Co660 2.148 . S
N664 C661 1.301 . S
N664 C662 1.317 . S
N665 C661 1.328 . S
N665 C663 1.350 . S
H666 C661 0.930 . S
H667 C662 0.930 . S
C668 O669 1.224 . S
C668 O687 1.247 . S
O669 C668 1.224 . S
N670 Co660 2.128 . S
N670 C671 1.355 . S
N670 C673 1.311 . S
C671 N670 1.355 . S
C671 C672 1.363 . S
C671 H683 0.929 . S
C672 C671 1.363 . S
C672 N674 1.375 . S
C672 H690 0.931 . S
C673 N670 1.311 . S
C673 N674 1.347 . S
C673 H684 0.929 . S
N674 C672 1.375 . S
N674 C673 1.347 . S
C675 C678 1.365 . S
C675 N680 1.328 . S
C675 H681 0.929 . S
C676 C677 1.362 . S
C676 C679 1.378 . S
C676 H691 0.929 . S
C677 C676 1.362 . S
C677 C678 1.366 . S
C678 C675 1.365 . S
C678 C677 1.366 . S
C678 H692 0.930 . S
C679 C676 1.378 . S
C679 N680 1.315 . S
C679 H682 0.930 . S
N680 Co660 2.194 . S
N680 C675 1.328 . S
N680 C679 1.315 . S
H681 C675 0.929 . S
H682 C679 0.930 . S
H683 C671 0.929 . S
H684 C673 0.929 . S
O685 Co660 2.351 . S
O685 C688 1.244 . S
O686 Co660 2.155 . S
O686 C688 1.240 . S
O687 Co660 2.096 . S
O687 C668 1.247 . S
C688 O685 1.244 . S
C688 O686 1.240 . S
H689 C663 0.931 . S
H690 C672 0.931 . S
H691 C676 0.929 . S
H692 C678 0.930 . S
Co693 N697 2.148 . S
Co693 N703 2.128 . S
Co693 N713 2.194 . S
Co693 O718 2.351 . S
Co693 O719 2.155 . S
Co693 O720 2.096 . S
C694 N697 1.301 . S
C694 N698 1.328 . S
C694 H699 0.930 . S
C695 C696 1.333 . S
C695 N697 1.317 . S
C695 H700 0.930 . S
C696 C695 1.333 . S
C696 N698 1.350 . S
C696 H722 0.931 . S
N697 Co693 2.148 . S
N697 C694 1.301 . S
N697 C695 1.317 . S
N698 C694 1.328 . S
N698 C696 1.350 . S
H699 C694 0.930 . S
H700 C695 0.930 . S
C701 O702 1.224 . S
C701 O720 1.247 . S
O702 C701 1.224 . S
N703 Co693 2.128 . S
N703 C704 1.355 . S
N703 C706 1.311 . S
C704 N703 1.355 . S
C704 C705 1.363 . S
C704 H716 0.929 . S
C705 C704 1.363 . S
C705 N707 1.375 . S
C705 H723 0.931 . S
C706 N703 1.311 . S
C706 N707 1.347 . S
C706 H717 0.929 . S
N707 C705 1.375 . S
N707 C706 1.347 . S
C708 C711 1.365 . S
C708 N713 1.328 . S
C708 H714 0.929 . S
C709 C710 1.362 . S
C709 C712 1.378 . S
C709 H724 0.929 . S
C710 C709 1.362 . S
C710 C711 1.366 . S
C711 C708 1.365 . S
C711 C710 1.366 . S
C711 H725 0.930 . S
C712 C709 1.378 . S
C712 N713 1.315 . S
C712 H715 0.930 . S
N713 Co693 2.194 . S
N713 C708 1.328 . S
N713 C712 1.315 . S
H714 C708 0.929 . S
H715 C712 0.930 . S
H716 C704 0.929 . S
H717 C706 0.929 . S
O718 Co693 2.351 . S
O718 C721 1.244 . S
O719 Co693 2.155 . S
O719 C721 1.240 . S
O720 Co693 2.096 . S
O720 C701 1.247 . S
C721 O718 1.244 . S
C721 O719 1.240 . S
H722 C696 0.931 . S
H723 C705 0.931 . S
H724 C709 0.929 . S
H725 C711 0.930 . S
Co726 N730 2.148 . S
Co726 N736 2.128 . S
Co726 N746 2.194 . S
Co726 O751 2.351 . S
Co726 O752 2.155 . S
Co726 O753 2.096 . S
C727 N730 1.301 . S
C727 N731 1.328 . S
C727 H732 0.930 . S
C728 C729 1.333 . S
C728 N730 1.317 . S
C728 H733 0.930 . S
C729 C728 1.333 . S
C729 N731 1.350 . S
C729 H755 0.931 . S
N730 Co726 2.148 . S
N730 C727 1.301 . S
N730 C728 1.317 . S
N731 C727 1.328 . S
N731 C729 1.350 . S
H732 C727 0.930 . S
H733 C728 0.930 . S
C734 O735 1.224 . S
C734 O753 1.247 . S
O735 C734 1.224 . S
N736 Co726 2.128 . S
N736 C737 1.355 . S
N736 C739 1.311 . S
C737 N736 1.355 . S
C737 C738 1.363 . S
C737 H749 0.929 . S
C738 C737 1.363 . S
C738 N740 1.375 . S
C738 H756 0.931 . S
C739 N736 1.311 . S
C739 N740 1.347 . S
C739 H750 0.929 . S
N740 C738 1.375 . S
N740 C739 1.347 . S
C741 C744 1.365 . S
C741 N746 1.328 . S
C741 H747 0.929 . S
C742 C743 1.362 . S
C742 C745 1.378 . S
C742 H757 0.929 . S
C743 C742 1.362 . S
C743 C744 1.366 . S
C744 C741 1.365 . S
C744 C743 1.366 . S
C744 H758 0.930 . S
C745 C742 1.378 . S
C745 N746 1.315 . S
C745 H748 0.930 . S
N746 Co726 2.194 . S
N746 C741 1.328 . S
N746 C745 1.315 . S
H747 C741 0.929 . S
H748 C745 0.930 . S
H749 C737 0.929 . S
H750 C739 0.929 . S
O751 Co726 2.351 . S
O751 C754 1.244 . S
O752 Co726 2.155 . S
O752 C754 1.240 . S
O753 Co726 2.096 . S
O753 C734 1.247 . S
C754 O751 1.244 . S
C754 O752 1.240 . S
H755 C729 0.931 . S
H756 C738 0.931 . S
H757 C742 0.929 . S
H758 C744 0.930 . S
Co759 N763 2.148 . S
Co759 N769 2.128 . S
Co759 N779 2.194 . S
Co759 O784 2.351 . S
Co759 O785 2.155 . S
Co759 O786 2.096 . S
C760 N763 1.301 . S
C760 N764 1.328 . S
C760 H765 0.930 . S
C761 C762 1.333 . S
C761 N763 1.317 . S
C761 H766 0.930 . S
C762 C761 1.333 . S
C762 N764 1.350 . S
C762 H788 0.931 . S
N763 Co759 2.148 . S
N763 C760 1.301 . S
N763 C761 1.317 . S
N764 C760 1.328 . S
N764 C762 1.350 . S
H765 C760 0.930 . S
H766 C761 0.930 . S
C767 O768 1.224 . S
C767 O786 1.247 . S
O768 C767 1.224 . S
N769 Co759 2.128 . S
N769 C770 1.355 . S
N769 C772 1.311 . S
C770 N769 1.355 . S
C770 C771 1.363 . S
C770 H782 0.929 . S
C771 C770 1.363 . S
C771 N773 1.375 . S
C771 H789 0.931 . S
C772 N769 1.311 . S
C772 N773 1.347 . S
C772 H783 0.929 . S
N773 C771 1.375 . S
N773 C772 1.347 . S
C774 C777 1.365 . S
C774 N779 1.328 . S
C774 H780 0.929 . S
C775 C776 1.362 . S
C775 C778 1.378 . S
C775 H790 0.929 . S
C776 C775 1.362 . S
C776 C777 1.366 . S
C777 C774 1.365 . S
C777 C776 1.366 . S
C777 H791 0.930 . S
C778 C775 1.378 . S
C778 N779 1.315 . S
C778 H781 0.930 . S
N779 Co759 2.194 . S
N779 C774 1.328 . S
N779 C778 1.315 . S
H780 C774 0.929 . S
H781 C778 0.930 . S
H782 C770 0.929 . S
H783 C772 0.929 . S
O784 Co759 2.351 . S
O784 C787 1.244 . S
O785 Co759 2.155 . S
O785 C787 1.240 . S
O786 Co759 2.096 . S
O786 C767 1.247 . S
C787 O784 1.244 . S
C787 O785 1.240 . S
H788 C762 0.931 . S
H789 C771 0.931 . S
H790 C775 0.929 . S
H791 C777 0.930 . S
Co792 N796 2.148 . S
Co792 N802 2.128 . S
Co792 N812 2.194 . S
Co792 O817 2.351 . S
Co792 O818 2.155 . S
Co792 O819 2.096 . S
C793 N796 1.301 . S
C793 N797 1.328 . S
C793 H798 0.930 . S
C794 C795 1.333 . S
C794 N796 1.317 . S
C794 H799 0.930 . S
C795 C794 1.333 . S
C795 N797 1.350 . S
C795 H821 0.931 . S
N796 Co792 2.148 . S
N796 C793 1.301 . S
N796 C794 1.317 . S
N797 C793 1.328 . S
N797 C795 1.350 . S
H798 C793 0.930 . S
H799 C794 0.930 . S
C800 O801 1.224 . S
C800 O819 1.247 . S
O801 C800 1.224 . S
N802 Co792 2.128 . S
N802 C803 1.355 . S
N802 C805 1.311 . S
C803 N802 1.355 . S
C803 C804 1.363 . S
C803 H815 0.929 . S
C804 C803 1.363 . S
C804 N806 1.375 . S
C804 H822 0.931 . S
C805 N802 1.311 . S
C805 N806 1.347 . S
C805 H816 0.929 . S
N806 C804 1.375 . S
N806 C805 1.347 . S
C807 C810 1.365 . S
C807 N812 1.328 . S
C807 H813 0.929 . S
C808 C809 1.362 . S
C808 C811 1.378 . S
C808 H823 0.929 . S
C809 C808 1.362 . S
C809 C810 1.366 . S
C810 C807 1.365 . S
C810 C809 1.366 . S
C810 H824 0.930 . S
C811 C808 1.378 . S
C811 N812 1.315 . S
C811 H814 0.930 . S
N812 Co792 2.194 . S
N812 C807 1.328 . S
N812 C811 1.315 . S
H813 C807 0.929 . S
H814 C811 0.930 . S
H815 C803 0.929 . S
H816 C805 0.929 . S
O817 Co792 2.351 . S
O817 C820 1.244 . S
O818 Co792 2.155 . S
O818 C820 1.240 . S
O819 Co792 2.096 . S
O819 C800 1.247 . S
C820 O817 1.244 . S
C820 O818 1.240 . S
H821 C795 0.931 . S
H822 C804 0.931 . S
H823 C808 0.929 . S
H824 C810 0.930 . S
Co825 N829 2.148 . S
Co825 N835 2.128 . S
Co825 N845 2.194 . S
Co825 O850 2.351 . S
Co825 O851 2.155 . S
Co825 O852 2.096 . S
C826 N829 1.301 . S
C826 N830 1.328 . S
C826 H831 0.930 . S
C827 C828 1.333 . S
C827 N829 1.317 . S
C827 H832 0.930 . S
C828 C827 1.333 . S
C828 N830 1.350 . S
C828 H854 0.931 . S
N829 Co825 2.148 . S
N829 C826 1.301 . S
N829 C827 1.317 . S
N830 C826 1.328 . S
N830 C828 1.350 . S
H831 C826 0.930 . S
H832 C827 0.930 . S
C833 O834 1.224 . S
C833 O852 1.247 . S
O834 C833 1.224 . S
N835 Co825 2.128 . S
N835 C836 1.355 . S
N835 C838 1.311 . S
C836 N835 1.355 . S
C836 C837 1.363 . S
C836 H848 0.929 . S
C837 C836 1.363 . S
C837 N839 1.375 . S
C837 H855 0.931 . S
C838 N835 1.311 . S
C838 N839 1.347 . S
C838 H849 0.929 . S
N839 C837 1.375 . S
N839 C838 1.347 . S
C840 C843 1.365 . S
C840 N845 1.328 . S
C840 H846 0.929 . S
C841 C842 1.362 . S
C841 C844 1.378 . S
C841 H856 0.929 . S
C842 C841 1.362 . S
C842 C843 1.366 . S
C843 C840 1.365 . S
C843 C842 1.366 . S
C843 H857 0.930 . S
C844 C841 1.378 . S
C844 N845 1.315 . S
C844 H847 0.930 . S
N845 Co825 2.194 . S
N845 C840 1.328 . S
N845 C844 1.315 . S
H846 C840 0.929 . S
H847 C844 0.930 . S
H848 C836 0.929 . S
H849 C838 0.929 . S
O850 Co825 2.351 . S
O850 C853 1.244 . S
O851 Co825 2.155 . S
O851 C853 1.240 . S
O852 Co825 2.096 . S
O852 C833 1.247 . S
C853 O850 1.244 . S
C853 O851 1.240 . S
H854 C828 0.931 . S
H855 C837 0.931 . S
H856 C841 0.929 . S
H857 C843 0.930 . S
Co858 N862 2.148 . S
Co858 N868 2.128 . S
Co858 N878 2.194 . S
Co858 O883 2.351 . S
Co858 O884 2.155 . S
Co858 O885 2.096 . S
C859 N862 1.301 . S
C859 N863 1.328 . S
C859 H864 0.930 . S
C860 C861 1.333 . S
C860 N862 1.317 . S
C860 H865 0.930 . S
C861 C860 1.333 . S
C861 N863 1.350 . S
C861 H887 0.931 . S
N862 Co858 2.148 . S
N862 C859 1.301 . S
N862 C860 1.317 . S
N863 C859 1.328 . S
N863 C861 1.350 . S
H864 C859 0.930 . S
H865 C860 0.930 . S
C866 O867 1.224 . S
C866 O885 1.247 . S
O867 C866 1.224 . S
N868 Co858 2.128 . S
N868 C869 1.355 . S
N868 C871 1.311 . S
C869 N868 1.355 . S
C869 C870 1.363 . S
C869 H881 0.929 . S
C870 C869 1.363 . S
C870 N872 1.375 . S
C870 H888 0.931 . S
C871 N868 1.311 . S
C871 N872 1.347 . S
C871 H882 0.929 . S
N872 C870 1.375 . S
N872 C871 1.347 . S
C873 C876 1.365 . S
C873 N878 1.328 . S
C873 H879 0.929 . S
C874 C875 1.362 . S
C874 C877 1.378 . S
C874 H889 0.929 . S
C875 C874 1.362 . S
C875 C876 1.366 . S
C876 C873 1.365 . S
C876 C875 1.366 . S
C876 H890 0.930 . S
C877 C874 1.378 . S
C877 N878 1.315 . S
C877 H880 0.930 . S
N878 Co858 2.194 . S
N878 C873 1.328 . S
N878 C877 1.315 . S
H879 C873 0.929 . S
H880 C877 0.930 . S
H881 C869 0.929 . S
H882 C871 0.929 . S
O883 Co858 2.351 . S
O883 C886 1.244 . S
O884 Co858 2.155 . S
O884 C886 1.240 . S
O885 Co858 2.096 . S
O885 C866 1.247 . S
C886 O883 1.244 . S
C886 O884 1.240 . S
H887 C861 0.931 . S
H888 C870 0.931 . S
H889 C874 0.929 . S
H890 C876 0.930 . S
Co891 N895 2.148 . S
Co891 N901 2.128 . S
Co891 N911 2.194 . S
Co891 O916 2.351 . S
Co891 O917 2.155 . S
Co891 O918 2.096 . S
C892 N895 1.301 . S
C892 N896 1.328 . S
C892 H897 0.930 . S
C893 C894 1.333 . S
C893 N895 1.317 . S
C893 H898 0.930 . S
C894 C893 1.333 . S
C894 N896 1.350 . S
C894 H920 0.931 . S
N895 Co891 2.148 . S
N895 C892 1.301 . S
N895 C893 1.317 . S
N896 C892 1.328 . S
N896 C894 1.350 . S
H897 C892 0.930 . S
H898 C893 0.930 . S
C899 O900 1.224 . S
C899 O918 1.247 . S
O900 C899 1.224 . S
N901 Co891 2.128 . S
N901 C902 1.355 . S
N901 C904 1.311 . S
C902 N901 1.355 . S
C902 C903 1.363 . S
C902 H914 0.929 . S
C903 C902 1.363 . S
C903 N905 1.375 . S
C903 H921 0.931 . S
C904 N901 1.311 . S
C904 N905 1.347 . S
C904 H915 0.929 . S
N905 C903 1.375 . S
N905 C904 1.347 . S
C906 C909 1.365 . S
C906 N911 1.328 . S
C906 H912 0.929 . S
C907 C908 1.362 . S
C907 C910 1.378 . S
C907 H922 0.929 . S
C908 C907 1.362 . S
C908 C909 1.366 . S
C909 C906 1.365 . S
C909 C908 1.366 . S
C909 H923 0.930 . S
C910 C907 1.378 . S
C910 N911 1.315 . S
C910 H913 0.930 . S
N911 Co891 2.194 . S
N911 C906 1.328 . S
N911 C910 1.315 . S
H912 C906 0.929 . S
H913 C910 0.930 . S
H914 C902 0.929 . S
H915 C904 0.929 . S
O916 Co891 2.351 . S
O916 C919 1.244 . S
O917 Co891 2.155 . S
O917 C919 1.240 . S
O918 Co891 2.096 . S
O918 C899 1.247 . S
C919 O916 1.244 . S
C919 O917 1.240 . S
H920 C894 0.931 . S
H921 C903 0.931 . S
H922 C907 0.929 . S
H923 C909 0.930 . S
Co924 N928 2.148 . S
Co924 N934 2.128 . S
Co924 N944 2.194 . S
Co924 O949 2.351 . S
Co924 O950 2.155 . S
Co924 O951 2.096 . S
C925 N928 1.301 . S
C925 N929 1.328 . S
C925 H930 0.930 . S
C926 C927 1.333 . S
C926 N928 1.317 . S
C926 H931 0.930 . S
C927 C926 1.333 . S
C927 N929 1.350 . S
C927 H953 0.931 . S
N928 Co924 2.148 . S
N928 C925 1.301 . S
N928 C926 1.317 . S
N929 C925 1.328 . S
N929 C927 1.350 . S
H930 C925 0.930 . S
H931 C926 0.930 . S
C932 O933 1.224 . S
C932 O951 1.247 . S
O933 C932 1.224 . S
N934 Co924 2.128 . S
N934 C935 1.355 . S
N934 C937 1.311 . S
C935 N934 1.355 . S
C935 C936 1.363 . S
C935 H947 0.929 . S
C936 C935 1.363 . S
C936 N938 1.375 . S
C936 H954 0.931 . S
C937 N934 1.311 . S
C937 N938 1.347 . S
C937 H948 0.929 . S
N938 C936 1.375 . S
N938 C937 1.347 . S
C939 C942 1.365 . S
C939 N944 1.328 . S
C939 H945 0.929 . S
C940 C941 1.362 . S
C940 C943 1.378 . S
C940 H955 0.929 . S
C941 C940 1.362 . S
C941 C942 1.366 . S
C942 C939 1.365 . S
C942 C941 1.366 . S
C942 H956 0.930 . S
C943 C940 1.378 . S
C943 N944 1.315 . S
C943 H946 0.930 . S
N944 Co924 2.194 . S
N944 C939 1.328 . S
N944 C943 1.315 . S
H945 C939 0.929 . S
H946 C943 0.930 . S
H947 C935 0.929 . S
H948 C937 0.929 . S
O949 Co924 2.351 . S
O949 C952 1.244 . S
O950 Co924 2.155 . S
O950 C952 1.240 . S
O951 Co924 2.096 . S
O951 C932 1.247 . S
C952 O949 1.244 . S
C952 O950 1.240 . S
H953 C927 0.931 . S
H954 C936 0.931 . S
H955 C940 0.929 . S
H956 C942 0.930 . S
Co957 N961 2.148 . S
Co957 N967 2.128 . S
Co957 N977 2.194 . S
Co957 O982 2.351 . S
Co957 O983 2.155 . S
Co957 O984 2.096 . S
C958 N961 1.301 . S
C958 N962 1.328 . S
C958 H963 0.930 . S
C959 C960 1.333 . S
C959 N961 1.317 . S
C959 H964 0.930 . S
C960 C959 1.333 . S
C960 N962 1.350 . S
C960 H986 0.931 . S
N961 Co957 2.148 . S
N961 C958 1.301 . S
N961 C959 1.317 . S
N962 C958 1.328 . S
N962 C960 1.350 . S
H963 C958 0.930 . S
H964 C959 0.930 . S
C965 O966 1.224 . S
C965 O984 1.247 . S
O966 C965 1.224 . S
N967 Co957 2.128 . S
N967 C968 1.355 . S
N967 C970 1.311 . S
C968 N967 1.355 . S
C968 C969 1.363 . S
C968 H980 0.929 . S
C969 C968 1.363 . S
C969 N971 1.375 . S
C969 H987 0.931 . S
C970 N967 1.311 . S
C970 N971 1.347 . S
C970 H981 0.929 . S
N971 C969 1.375 . S
N971 C970 1.347 . S
C972 C975 1.365 . S
C972 N977 1.328 . S
C972 H978 0.929 . S
C973 C974 1.362 . S
C973 C976 1.378 . S
C973 H988 0.929 . S
C974 C973 1.362 . S
C974 C975 1.366 . S
C975 C972 1.365 . S
C975 C974 1.366 . S
C975 H989 0.930 . S
C976 C973 1.378 . S
C976 N977 1.315 . S
C976 H979 0.930 . S
N977 Co957 2.194 . S
N977 C972 1.328 . S
N977 C976 1.315 . S
H978 C972 0.929 . S
H979 C976 0.930 . S
H980 C968 0.929 . S
H981 C970 0.929 . S
O982 Co957 2.351 . S
O982 C985 1.244 . S
O983 Co957 2.155 . S
O983 C985 1.240 . S
O984 Co957 2.096 . S
O984 C965 1.247 . S
C985 O982 1.244 . S
C985 O983 1.240 . S
H986 C960 0.931 . S
H987 C969 0.931 . S
H988 C973 0.929 . S
H989 C975 0.930 . S
Co990 N994 2.148 . S
Co990 N1000 2.128 . S
Co990 N1010 2.194 . S
Co990 O1015 2.351 . S
Co990 O1016 2.155 . S
Co990 O1017 2.096 . S
C991 N994 1.301 . S
C991 N995 1.328 . S
C991 H996 0.930 . S
C992 C993 1.333 . S
C992 N994 1.317 . S
C992 H997 0.930 . S
C993 C992 1.333 . S
C993 N995 1.350 . S
C993 H1019 0.931 . S
N994 Co990 2.148 . S
N994 C991 1.301 . S
N994 C992 1.317 . S
N995 C991 1.328 . S
N995 C993 1.350 . S
H996 C991 0.930 . S
H997 C992 0.930 . S
C998 O999 1.224 . S
C998 O1017 1.247 . S
O999 C998 1.224 . S
N1000 Co990 2.128 . S
N1000 C1001 1.355 . S
N1000 C1003 1.311 . S
C1001 N1000 1.355 . S
C1001 C1002 1.363 . S
C1001 H1013 0.929 . S
C1002 C1001 1.363 . S
C1002 N1004 1.375 . S
C1002 H1020 0.931 . S
C1003 N1000 1.311 . S
C1003 N1004 1.347 . S
C1003 H1014 0.929 . S
N1004 C1002 1.375 . S
N1004 C1003 1.347 . S
C1005 C1008 1.365 . S
C1005 N1010 1.328 . S
C1005 H1011 0.929 . S
C1006 C1007 1.362 . S
C1006 C1009 1.378 . S
C1006 H1021 0.929 . S
C1007 C1006 1.362 . S
C1007 C1008 1.366 . S
C1008 C1005 1.365 . S
C1008 C1007 1.366 . S
C1008 H1022 0.930 . S
C1009 C1006 1.378 . S
C1009 N1010 1.315 . S
C1009 H1012 0.930 . S
N1010 Co990 2.194 . S
N1010 C1005 1.328 . S
N1010 C1009 1.315 . S
H1011 C1005 0.929 . S
H1012 C1009 0.930 . S
H1013 C1001 0.929 . S
H1014 C1003 0.929 . S
O1015 Co990 2.351 . S
O1015 C1018 1.244 . S
O1016 Co990 2.155 . S
O1016 C1018 1.240 . S
O1017 Co990 2.096 . S
O1017 C998 1.247 . S
C1018 O1015 1.244 . S
C1018 O1016 1.240 . S
H1019 C993 0.931 . S
H1020 C1002 0.931 . S
H1021 C1006 0.929 . S
H1022 C1008 0.930 . S
Co1023 N1027 2.148 . S
Co1023 N1033 2.128 . S
Co1023 N1043 2.194 . S
Co1023 O1048 2.351 . S
Co1023 O1049 2.155 . S
Co1023 O1050 2.096 . S
C1024 N1027 1.301 . S
C1024 N1028 1.328 . S
C1024 H1029 0.930 . S
C1025 C1026 1.333 . S
C1025 N1027 1.317 . S
C1025 H1030 0.930 . S
C1026 C1025 1.333 . S
C1026 N1028 1.350 . S
C1026 H1052 0.931 . S
N1027 Co1023 2.148 . S
N1027 C1024 1.301 . S
N1027 C1025 1.317 . S
N1028 C1024 1.328 . S
N1028 C1026 1.350 . S
H1029 C1024 0.930 . S
H1030 C1025 0.930 . S
C1031 O1032 1.224 . S
C1031 O1050 1.247 . S
O1032 C1031 1.224 . S
N1033 Co1023 2.128 . S
N1033 C1034 1.355 . S
N1033 C1036 1.311 . S
C1034 N1033 1.355 . S
C1034 C1035 1.363 . S
C1034 H1046 0.929 . S
C1035 C1034 1.363 . S
C1035 N1037 1.375 . S
C1035 H1053 0.931 . S
C1036 N1033 1.311 . S
C1036 N1037 1.347 . S
C1036 H1047 0.929 . S
N1037 C1035 1.375 . S
N1037 C1036 1.347 . S
C1038 C1041 1.365 . S
C1038 N1043 1.328 . S
C1038 H1044 0.929 . S
C1039 C1040 1.362 . S
C1039 C1042 1.378 . S
C1039 H1054 0.929 . S
C1040 C1039 1.362 . S
C1040 C1041 1.366 . S
C1041 C1038 1.365 . S
C1041 C1040 1.366 . S
C1041 H1055 0.930 . S
C1042 C1039 1.378 . S
C1042 N1043 1.315 . S
C1042 H1045 0.930 . S
N1043 Co1023 2.194 . S
N1043 C1038 1.328 . S
N1043 C1042 1.315 . S
H1044 C1038 0.929 . S
H1045 C1042 0.930 . S
H1046 C1034 0.929 . S
H1047 C1036 0.929 . S
O1048 Co1023 2.351 . S
O1048 C1051 1.244 . S
O1049 Co1023 2.155 . S
O1049 C1051 1.240 . S
O1050 Co1023 2.096 . S
O1050 C1031 1.247 . S
C1051 O1048 1.244 . S
C1051 O1049 1.240 . S
H1052 C1026 0.931 . S
H1053 C1035 0.931 . S
H1054 C1039 0.929 . S
H1055 C1041 0.930 . S
C1056 C1057 1.387 . S
C1056 H1060 0.950 . S
C1056 C1065 1.390 . S
C1057 C1056 1.387 . S
C1057 C1059 1.387 . S
H1058 C1065 0.950 . S
C1059 C1057 1.387 . S
C1059 C1061 1.390 . S
C1059 H1063 0.950 . S
H1060 C1056 0.950 . S
C1061 C1059 1.390 . S
C1061 C1062 1.387 . S
C1061 H1064 0.950 . S
C1062 C1061 1.387 . S
C1062 C1065 1.387 . S
H1063 C1059 0.950 . S
H1064 C1061 0.950 . S
C1065 C1056 1.390 . S
C1065 H1058 0.950 . S
C1065 C1062 1.387 . S
C1066 C1067 1.387 . S
C1066 H1070 0.950 . S
C1066 C1075 1.390 . S
C1067 C1066 1.387 . S
C1067 C1069 1.387 . S
H1068 C1075 0.950 . S
C1069 C1067 1.387 . S
C1069 C1071 1.390 . S
C1069 H1073 0.950 1_655 S
H1070 C1066 0.950 . S
C1071 C1069 1.390 . S
C1071 C1072 1.387 . S
C1071 H1074 0.950 . S
C1072 C1071 1.387 . S
C1072 C1075 1.387 . S
H1073 C1069 0.950 1_455 S
H1074 C1071 0.950 . S
C1075 C1066 1.390 . S
C1075 H1068 0.950 . S
C1075 C1072 1.387 . S
C1076 C1077 1.387 . S
C1076 H1080 0.950 . S
C1076 C1085 1.390 . S
C1077 C1076 1.387 . S
C1077 C1079 1.387 . S
H1078 C1085 0.950 . S
C1079 C1077 1.387 . S
C1079 C1081 1.390 . S
C1079 H1083 0.950 . S
H1080 C1076 0.950 . S
C1081 C1079 1.390 . S
C1081 C1082 1.387 . S
C1081 H1084 0.950 . S
C1082 C1081 1.387 . S
C1082 C1085 1.387 . S
H1083 C1079 0.950 . S
H1084 C1081 0.950 . S
C1085 C1076 1.390 . S
C1085 H1078 0.950 . S
C1085 C1082 1.387 . S
C1086 C1087 1.387 . S
C1086 H1090 0.950 . S
C1086 C1095 1.390 . S
C1087 C1086 1.387 . S
C1087 C1089 1.387 . S
H1088 C1095 0.950 . S
C1089 C1087 1.387 . S
C1089 C1091 1.390 . S
C1089 H1093 0.950 . S
H1090 C1086 0.950 . S
C1091 C1089 1.390 . S
C1091 C1092 1.387 . S
C1091 H1094 0.950 . S
C1092 C1091 1.387 . S
C1092 C1095 1.387 . S
H1093 C1089 0.950 . S
H1094 C1091 0.950 . S
C1095 C1086 1.390 . S
C1095 H1088 0.950 . S
C1095 C1092 1.387 . S
C1096 C1097 1.387 . S
C1096 H1100 0.950 . S
C1096 C1105 1.390 . S
C1097 C1096 1.387 . S
C1097 C1099 1.387 . S
H1098 C1105 0.950 . S
C1099 C1097 1.387 . S
C1099 C1101 1.390 . S
C1099 H1103 0.950 . S
H1100 C1096 0.950 . S
C1101 C1099 1.390 . S
C1101 C1102 1.387 . S
C1101 H1104 0.950 . S
C1102 C1101 1.387 . S
C1102 C1105 1.387 . S
H1103 C1099 0.950 . S
H1104 C1101 0.950 . S
C1105 C1096 1.390 . S
C1105 H1098 0.950 . S
C1105 C1102 1.387 . S
C1106 C1107 1.387 . S
C1106 H1110 0.950 . S
C1106 C1115 1.390 . S
C1107 C1106 1.387 . S
C1107 C1109 1.387 . S
H1108 C1115 0.950 . S
C1109 C1107 1.387 . S
C1109 C1111 1.390 . S
C1109 H1113 0.950 . S
H1110 C1106 0.950 . S
C1111 C1109 1.390 . S
C1111 C1112 1.387 . S
C1111 H1114 0.950 . S
C1112 C1111 1.387 . S
C1112 C1115 1.387 . S
H1113 C1109 0.950 . S
H1114 C1111 0.950 . S
C1115 C1106 1.390 . S
C1115 H1108 0.950 . S
C1115 C1112 1.387 . S
C1116 C1117 1.387 . S
C1116 H1120 0.950 . S
C1116 C1125 1.390 . S
C1117 C1116 1.387 . S
C1117 C1119 1.387 . S
H1118 C1125 0.950 . S
C1119 C1117 1.387 . S
C1119 C1121 1.390 . S
C1119 H1123 0.950 . S
H1120 C1116 0.950 . S
C1121 C1119 1.390 . S
C1121 C1122 1.387 . S
C1121 H1124 0.950 . S
C1122 C1121 1.387 . S
C1122 C1125 1.387 . S
H1123 C1119 0.950 . S
H1124 C1121 0.950 . S
C1125 C1116 1.390 . S
C1125 H1118 0.950 . S
C1125 C1122 1.387 . S
C1126 C1127 1.387 . S
C1126 H1130 0.950 . S
C1126 C1135 1.390 . S
C1127 C1126 1.387 . S
C1127 C1129 1.387 . S
H1128 C1135 0.950 . S
C1129 C1127 1.387 . S
C1129 C1131 1.390 . S
C1129 H1133 0.950 . S
H1130 C1126 0.950 . S
C1131 C1129 1.390 . S
C1131 C1132 1.387 . S
C1131 H1134 0.950 . S
C1132 C1131 1.387 . S
C1132 C1135 1.387 . S
H1133 C1129 0.950 . S
H1134 C1131 0.950 . S
C1135 C1126 1.390 . S
C1135 H1128 0.950 . S
C1135 C1132 1.387 . S
C1136 C1137 1.387 . S
C1136 H1140 0.950 . S
C1136 C1145 1.390 . S
C1137 C1136 1.387 . S
C1137 C1139 1.387 . S
H1138 C1145 0.950 . S
C1139 C1137 1.387 . S
C1139 C1141 1.390 . S
C1139 H1143 0.950 . S
H1140 C1136 0.950 . S
C1141 C1139 1.390 . S
C1141 C1142 1.387 . S
C1141 H1144 0.950 . S
C1142 C1141 1.387 . S
C1142 C1145 1.387 . S
H1143 C1139 0.950 . S
H1144 C1141 0.950 . S
C1145 C1136 1.390 . S
C1145 H1138 0.950 . S
C1145 C1142 1.387 . S
C1146 C1147 1.387 . S
C1146 H1150 0.950 . S
C1146 C1155 1.390 . S
C1147 C1146 1.387 . S
C1147 C1149 1.387 . S
H1148 C1155 0.950 . S
C1149 C1147 1.387 . S
C1149 C1151 1.390 . S
C1149 H1153 0.950 1_455 S
H1150 C1146 0.950 . S
C1151 C1149 1.390 . S
C1151 C1152 1.387 . S
C1151 H1154 0.950 . S
C1152 C1151 1.387 . S
C1152 C1155 1.387 . S
H1153 C1149 0.950 1_655 S
H1154 C1151 0.950 . S
C1155 C1146 1.390 . S
C1155 H1148 0.950 . S
C1155 C1152 1.387 . S
C1156 C1157 1.387 . S
C1156 H1160 0.950 . S
C1156 C1165 1.390 . S
C1157 C1156 1.387 . S
C1157 C1159 1.387 . S
H1158 C1165 0.950 . S
C1159 C1157 1.387 . S
C1159 C1161 1.390 . S
C1159 H1163 0.950 . S
H1160 C1156 0.950 . S
C1161 C1159 1.390 . S
C1161 C1162 1.387 . S
C1161 H1164 0.950 . S
C1162 C1161 1.387 . S
C1162 C1165 1.387 . S
H1163 C1159 0.950 . S
H1164 C1161 0.950 . S
C1165 C1156 1.390 . S
C1165 H1158 0.950 . S
C1165 C1162 1.387 . S
C1166 C1167 1.387 . S
C1166 H1170 0.950 . S
C1166 C1175 1.390 . S
C1167 C1166 1.387 . S
C1167 C1169 1.387 . S
H1168 C1175 0.950 . S
C1169 C1167 1.387 . S
C1169 C1171 1.390 . S
C1169 H1173 0.950 . S
H1170 C1166 0.950 . S
C1171 C1169 1.390 . S
C1171 C1172 1.387 . S
C1171 H1174 0.950 . S
C1172 C1171 1.387 . S
C1172 C1175 1.387 . S
H1173 C1169 0.950 . S
H1174 C1171 0.950 . S
C1175 C1166 1.390 . S
C1175 H1168 0.950 . S
C1175 C1172 1.387 . S
C1176 C1177 1.387 . S
C1176 H1180 0.950 . S
C1176 C1185 1.390 . S
C1177 C1176 1.387 . S
C1177 C1179 1.387 . S
H1178 C1185 0.950 . S
C1179 C1177 1.387 . S
C1179 C1181 1.390 . S
C1179 H1183 0.950 . S
H1180 C1176 0.950 . S
C1181 C1179 1.390 . S
C1181 C1182 1.387 . S
C1181 H1184 0.950 . S
C1182 C1181 1.387 . S
C1182 C1185 1.387 . S
H1183 C1179 0.950 . S
H1184 C1181 0.950 . S
C1185 C1176 1.390 . S
C1185 H1178 0.950 . S
C1185 C1182 1.387 . S
C1186 C1187 1.387 . S
C1186 H1190 0.950 . S
C1186 C1195 1.390 . S
C1187 C1186 1.387 . S
C1187 C1189 1.387 . S
H1188 C1195 0.950 . S
C1189 C1187 1.387 . S
C1189 C1191 1.390 . S
C1189 H1193 0.950 . S
H1190 C1186 0.950 . S
C1191 C1189 1.390 . S
C1191 C1192 1.387 . S
C1191 H1194 0.950 . S
C1192 C1191 1.387 . S
C1192 C1195 1.387 . S
H1193 C1189 0.950 . S
H1194 C1191 0.950 . S
C1195 C1186 1.390 . S
C1195 H1188 0.950 . S
C1195 C1192 1.387 . S
C1196 C1197 1.387 . S
C1196 H1200 0.950 . S
C1196 C1205 1.390 . S
C1197 C1196 1.387 . S
C1197 C1199 1.387 . S
H1198 C1205 0.950 . S
C1199 C1197 1.387 . S
C1199 C1201 1.390 . S
C1199 H1203 0.950 . S
H1200 C1196 0.950 . S
C1201 C1199 1.390 . S
C1201 C1202 1.387 . S
C1201 H1204 0.950 . S
C1202 C1201 1.387 . S
C1202 C1205 1.387 . S
H1203 C1199 0.950 . S
H1204 C1201 0.950 . S
C1205 C1196 1.390 . S
C1205 H1198 0.950 . S
C1205 C1202 1.387 . S
C1206 C1207 1.387 . S
C1206 H1210 0.950 . S
C1206 C1215 1.390 . S
C1207 C1206 1.387 . S
C1207 C1209 1.387 . S
H1208 C1215 0.950 . S
C1209 C1207 1.387 . S
C1209 C1211 1.390 . S
C1209 H1213 0.950 . S
H1210 C1206 0.950 . S
C1211 C1209 1.390 . S
C1211 C1212 1.387 . S
C1211 H1214 0.950 . S
C1212 C1211 1.387 . S
C1212 C1215 1.387 . S
H1213 C1209 0.950 . S
H1214 C1211 0.950 . S
C1215 C1206 1.390 . S
C1215 H1208 0.950 . S
C1215 C1212 1.387 . S
C1216 C1217 1.387 . S
C1216 H1220 0.950 . S
C1216 C1225 1.390 . S
C1217 C1216 1.387 . S
C1217 C1219 1.387 . S
H1218 C1225 0.950 . S
C1219 C1217 1.387 . S
C1219 C1221 1.390 . S
C1219 H1223 0.950 . S
H1220 C1216 0.950 . S
C1221 C1219 1.390 . S
C1221 C1222 1.387 . S
C1221 H1224 0.950 . S
C1222 C1221 1.387 . S
C1222 C1225 1.387 . S
H1223 C1219 0.950 . S
H1224 C1221 0.950 . S
C1225 C1216 1.390 . S
C1225 H1218 0.950 . S
C1225 C1222 1.387 . S
C1226 C1227 1.387 . S
C1226 H1230 0.950 . S
C1226 C1235 1.390 . S
C1227 C1226 1.387 . S
C1227 C1229 1.387 . S
H1228 C1235 0.950 . S
C1229 C1227 1.387 . S
C1229 C1231 1.390 . S
C1229 H1233 0.950 . S
H1230 C1226 0.950 . S
C1231 C1229 1.390 . S
C1231 C1232 1.387 . S
C1231 H1234 0.950 . S
C1232 C1231 1.387 . S
C1232 C1235 1.387 . S
H1233 C1229 0.950 . S
H1234 C1231 0.950 . S
C1235 C1226 1.390 . S
C1235 H1228 0.950 . S
C1235 C1232 1.387 . S
C1236 C1237 1.387 . S
C1236 H1240 0.950 . S
C1236 C1245 1.390 . S
C1237 C1236 1.387 . S
C1237 C1239 1.387 . S
H1238 C1245 0.950 . S
C1239 C1237 1.387 . S
C1239 C1241 1.390 . S
C1239 H1243 0.950 . S
H1240 C1236 0.950 . S
C1241 C1239 1.390 . S
C1241 C1242 1.387 . S
C1241 H1244 0.950 . S
C1242 C1241 1.387 . S
C1242 C1245 1.387 . S
H1243 C1239 0.950 . S
H1244 C1241 0.950 . S
C1245 C1236 1.390 . S
C1245 H1238 0.950 . S
C1245 C1242 1.387 . S
C1246 C1247 1.387 . S
C1246 H1250 0.950 . S
C1246 C1255 1.390 . S
C1247 C1246 1.387 . S
C1247 C1249 1.387 . S
H1248 C1255 0.950 . S
C1249 C1247 1.387 . S
C1249 C1251 1.390 . S
C1249 H1253 0.950 . S
H1250 C1246 0.950 . S
C1251 C1249 1.390 . S
C1251 C1252 1.387 . S
C1251 H1254 0.950 . S
C1252 C1251 1.387 . S
C1252 C1255 1.387 . S
H1253 C1249 0.950 . S
H1254 C1251 0.950 . S
C1255 C1246 1.390 . S
C1255 H1248 0.950 . S
C1255 C1252 1.387 . S
C1256 C1257 1.387 . S
C1256 H1260 0.950 . S
C1256 C1265 1.390 . S
C1257 C1256 1.387 . S
C1257 C1259 1.387 . S
H1258 C1265 0.950 . S
C1259 C1257 1.387 . S
C1259 C1261 1.390 . S
C1259 H1263 0.950 . S
H1260 C1256 0.950 . S
C1261 C1259 1.390 . S
C1261 C1262 1.387 . S
C1261 H1264 0.950 . S
C1262 C1261 1.387 . S
C1262 C1265 1.387 . S
H1263 C1259 0.950 . S
H1264 C1261 0.950 . S
C1265 C1256 1.390 . S
C1265 H1258 0.950 . S
C1265 C1262 1.387 . S
C1266 C1267 1.387 . S
C1266 H1270 0.950 . S
C1266 C1275 1.390 . S
C1267 C1266 1.387 . S
C1267 C1269 1.387 . S
H1268 C1275 0.950 . S
C1269 C1267 1.387 . S
C1269 C1271 1.390 . S
C1269 H1273 0.950 . S
H1270 C1266 0.950 . S
C1271 C1269 1.390 . S
C1271 C1272 1.387 . S
C1271 H1274 0.950 . S
C1272 C1271 1.387 . S
C1272 C1275 1.387 . S
H1273 C1269 0.950 . S
H1274 C1271 0.950 . S
C1275 C1266 1.390 . S
C1275 H1268 0.950 . S
C1275 C1272 1.387 . S
C1276 C1277 1.387 . S
C1276 H1280 0.950 . S
C1276 C1285 1.390 . S
C1277 C1276 1.387 . S
C1277 C1279 1.387 . S
H1278 C1285 0.950 . S
C1279 C1277 1.387 . S
C1279 C1281 1.390 . S
C1279 H1283 0.950 . S
H1280 C1276 0.950 . S
C1281 C1279 1.390 . S
C1281 C1282 1.387 . S
C1281 H1284 0.950 . S
C1282 C1281 1.387 . S
C1282 C1285 1.387 . S
H1283 C1279 0.950 . S
H1284 C1281 0.950 . S
C1285 C1276 1.390 . S
C1285 H1278 0.950 . S
C1285 C1282 1.387 . S
C1286 C1287 1.387 . S
C1286 H1290 0.950 . S
C1286 C1295 1.390 . S
C1287 C1286 1.387 . S
C1287 C1289 1.387 . S
H1288 C1295 0.950 . S
C1289 C1287 1.387 . S
C1289 C1291 1.390 . S
C1289 H1293 0.950 . S
H1290 C1286 0.950 . S
C1291 C1289 1.390 . S
C1291 C1292 1.387 . S
C1291 H1294 0.950 . S
C1292 C1291 1.387 . S
C1292 C1295 1.387 . S
H1293 C1289 0.950 . S
H1294 C1291 0.950 . S
C1295 C1286 1.390 . S
C1295 H1288 0.950 . S
C1295 C1292 1.387 . S
C1296 C1297 1.387 . S
C1296 H1300 0.950 . S
C1296 C1305 1.390 . S
C1297 C1296 1.387 . S
C1297 C1299 1.387 . S
H1298 C1305 0.950 . S
C1299 C1297 1.387 . S
C1299 C1301 1.390 . S
C1299 H1303 0.950 . S
H1300 C1296 0.950 . S
C1301 C1299 1.390 . S
C1301 C1302 1.387 . S
C1301 H1304 0.950 . S
C1302 C1301 1.387 . S
C1302 C1305 1.387 . S
H1303 C1299 0.950 . S
H1304 C1301 0.950 . S
C1305 C1296 1.390 . S
C1305 H1298 0.950 . S
C1305 C1302 1.387 . S
C1306 C1307 1.387 . S
C1306 H1310 0.950 . S
C1306 C1315 1.390 . S
C1307 C1306 1.387 . S
C1307 C1309 1.387 . S
H1308 C1315 0.950 . S
C1309 C1307 1.387 . S
C1309 C1311 1.390 . S
C1309 H1313 0.950 . S
H1310 C1306 0.950 . S
C1311 C1309 1.390 . S
C1311 C1312 1.387 . S
C1311 H1314 0.950 . S
C1312 C1311 1.387 . S
C1312 C1315 1.387 . S
H1313 C1309 0.950 . S
H1314 C1311 0.950 . S
C1315 C1306 1.390 . S
C1315 H1308 0.950 . S
C1315 C1312 1.387 . S
C1316 C1317 1.387 . S
C1316 H1320 0.950 . S
C1316 C1325 1.390 . S
C1317 C1316 1.387 . S
C1317 C1319 1.387 . S
H1318 C1325 0.950 . S
C1319 C1317 1.387 . S
C1319 C1321 1.390 . S
C1319 H1323 0.950 . S
H1320 C1316 0.950 . S
C1321 C1319 1.390 . S
C1321 C1322 1.387 . S
C1321 H1324 0.950 . S
C1322 C1321 1.387 . S
C1322 C1325 1.387 . S
H1323 C1319 0.950 . S
H1324 C1321 0.950 . S
C1325 C1316 1.390 . S
C1325 H1318 0.950 . S
C1325 C1322 1.387 . S
C1326 C1327 1.387 . S
C1326 H1330 0.950 . S
C1326 C1335 1.390 . S
C1327 C1326 1.387 . S
C1327 C1329 1.387 . S
H1328 C1335 0.950 . S
C1329 C1327 1.387 . S
C1329 C1331 1.390 . S
C1329 H1333 0.950 . S
H1330 C1326 0.950 . S
C1331 C1329 1.390 . S
C1331 C1332 1.387 . S
C1331 H1334 0.950 . S
C1332 C1331 1.387 . S
C1332 C1335 1.387 . S
H1333 C1329 0.950 . S
H1334 C1331 0.950 . S
C1335 C1326 1.390 . S
C1335 H1328 0.950 . S
C1335 C1332 1.387 . S
C1336 C1337 1.387 . S
C1336 H1340 0.950 . S
C1336 C1345 1.390 . S
C1337 C1336 1.387 . S
C1337 C1339 1.387 . S
H1338 C1345 0.950 . S
C1339 C1337 1.387 . S
C1339 C1341 1.390 . S
C1339 H1343 0.950 . S
H1340 C1336 0.950 . S
C1341 C1339 1.390 . S
C1341 C1342 1.387 . S
C1341 H1344 0.950 . S
C1342 C1341 1.387 . S
C1342 C1345 1.387 . S
H1343 C1339 0.950 . S
H1344 C1341 0.950 . S
C1345 C1336 1.390 . S
C1345 H1338 0.950 . S
C1345 C1342 1.387 . S
C1346 C1347 1.387 . S
C1346 H1350 0.950 . S
C1346 C1355 1.390 . S
C1347 C1346 1.387 . S
C1347 C1349 1.387 . S
H1348 C1355 0.950 . S
C1349 C1347 1.387 . S
C1349 C1351 1.390 . S
C1349 H1353 0.950 . S
H1350 C1346 0.950 . S
C1351 C1349 1.390 . S
C1351 C1352 1.387 . S
C1351 H1354 0.950 . S
C1352 C1351 1.387 . S
C1352 C1355 1.387 . S
H1353 C1349 0.950 . S
H1354 C1351 0.950 . S
C1355 C1346 1.390 . S
C1355 H1348 0.950 . S
C1355 C1352 1.387 . S
C1356 C1357 1.387 . S
C1356 H1360 0.950 . S
C1356 C1365 1.390 . S
C1357 C1356 1.387 . S
C1357 C1359 1.387 . S
H1358 C1365 0.950 . S
C1359 C1357 1.387 . S
C1359 C1361 1.390 . S
C1359 H1363 0.950 . S
H1360 C1356 0.950 . S
C1361 C1359 1.390 . S
C1361 C1362 1.387 . S
C1361 H1364 0.950 . S
C1362 C1361 1.387 . S
C1362 C1365 1.387 . S
H1363 C1359 0.950 . S
H1364 C1361 0.950 . S
C1365 C1356 1.390 . S
C1365 H1358 0.950 . S
C1365 C1362 1.387 . S
C1366 C1367 1.387 . S
C1366 H1370 0.950 . S
C1366 C1375 1.390 . S
C1367 C1366 1.387 . S
C1367 C1369 1.387 . S
H1368 C1375 0.950 . S
C1369 C1367 1.387 . S
C1369 C1371 1.390 . S
C1369 H1373 0.950 . S
H1370 C1366 0.950 . S
C1371 C1369 1.390 . S
C1371 C1372 1.387 . S
C1371 H1374 0.950 . S
C1372 C1371 1.387 . S
C1372 C1375 1.387 . S
H1373 C1369 0.950 . S
H1374 C1371 0.950 . S
C1375 C1366 1.390 . S
C1375 H1368 0.950 . S
C1375 C1372 1.387 . S
C1376 C1377 1.387 . S
C1376 H1380 0.950 . S
C1376 C1385 1.390 1_545 S
C1377 C1376 1.387 . S
C1377 C1379 1.387 . S
H1378 C1385 0.950 . S
C1379 C1377 1.387 . S
C1379 C1381 1.390 1_545 S
C1379 H1383 0.950 . S
H1380 C1376 0.950 . S
C1381 C1379 1.390 1_565 S
C1381 C1382 1.387 . S
C1381 H1384 0.950 . S
C1382 C1381 1.387 . S
C1382 C1385 1.387 . S
H1383 C1379 0.950 . S
H1384 C1381 0.950 . S
C1385 C1376 1.390 1_565 S
C1385 H1378 0.950 . S
C1385 C1382 1.387 . S
C1386 C1387 1.387 . S
C1386 H1390 0.950 . S
C1386 C1395 1.390 . S
C1387 C1386 1.387 . S
C1387 C1389 1.387 . S
H1388 C1395 0.950 . S
C1389 C1387 1.387 . S
C1389 C1391 1.390 . S
C1389 H1393 0.950 . S
H1390 C1386 0.950 . S
C1391 C1389 1.390 . S
C1391 C1392 1.387 . S
C1391 H1394 0.950 . S
C1392 C1391 1.387 . S
C1392 C1395 1.387 . S
H1393 C1389 0.950 . S
H1394 C1391 0.950 . S
C1395 C1386 1.390 . S
C1395 H1388 0.950 . S
C1395 C1392 1.387 . S
C1396 C1397 1.387 . S
C1396 H1400 0.950 . S
C1396 C1405 1.390 1_545 S
C1397 C1396 1.387 . S
C1397 C1399 1.387 . S
H1398 C1405 0.950 . S
C1399 C1397 1.387 . S
C1399 C1401 1.390 1_545 S
C1399 H1403 0.950 . S
H1400 C1396 0.950 . S
C1401 C1399 1.390 1_565 S
C1401 C1402 1.387 . S
C1401 H1404 0.950 . S
C1402 C1401 1.387 . S
C1402 C1405 1.387 . S
H1403 C1399 0.950 . S
H1404 C1401 0.950 . S
C1405 C1396 1.390 1_565 S
C1405 H1398 0.950 . S
C1405 C1402 1.387 . S
C1406 C1407 1.387 . S
C1406 H1410 0.950 . S
C1406 C1415 1.390 1_554 S
C1407 C1406 1.387 . S
C1407 C1409 1.387 . S
H1408 C1415 0.950 . S
C1409 C1407 1.387 . S
C1409 C1411 1.390 1_554 S
C1409 H1413 0.950 . S
H1410 C1406 0.950 . S
C1411 C1409 1.390 1_556 S
C1411 C1412 1.387 . S
C1411 H1414 0.950 . S
C1412 C1411 1.387 . S
C1412 C1415 1.387 . S
H1413 C1409 0.950 . S
H1414 C1411 0.950 . S
C1415 C1406 1.390 1_556 S
C1415 H1408 0.950 . S
C1415 C1412 1.387 . S
C1416 C1417 1.387 . S
C1416 H1420 0.950 . S
C1416 C1425 1.390 1_565 S
C1417 C1416 1.387 . S
C1417 C1419 1.387 . S
H1418 C1425 0.950 . S
C1419 C1417 1.387 . S
C1419 C1421 1.390 1_565 S
C1419 H1423 0.950 . S
H1420 C1416 0.950 . S
C1421 C1419 1.390 1_545 S
C1421 C1422 1.387 . S
C1421 H1424 0.950 . S
C1422 C1421 1.387 . S
C1422 C1425 1.387 . S
H1423 C1419 0.950 . S
H1424 C1421 0.950 . S
C1425 C1416 1.390 1_545 S
C1425 H1418 0.950 . S
C1425 C1422 1.387 . S
C1426 C1427 1.387 . S
C1426 H1430 0.950 . S
C1426 C1435 1.390 . S
C1427 C1426 1.387 . S
C1427 C1429 1.387 . S
H1428 C1435 0.950 . S
C1429 C1427 1.387 . S
C1429 C1431 1.390 . S
C1429 H1433 0.950 . S
H1430 C1426 0.950 . S
C1431 C1429 1.390 . S
C1431 C1432 1.387 . S
C1431 H1434 0.950 . S
C1432 C1431 1.387 . S
C1432 C1435 1.387 . S
H1433 C1429 0.950 . S
H1434 C1431 0.950 . S
C1435 C1426 1.390 . S
C1435 H1428 0.950 . S
C1435 C1432 1.387 . S
C1436 C1437 1.387 . S
C1436 H1440 0.950 . S
C1436 C1445 1.390 1_545 S
C1437 C1436 1.387 . S
C1437 C1439 1.387 . S
H1438 C1445 0.950 . S
C1439 C1437 1.387 . S
C1439 C1441 1.390 1_545 S
C1439 H1443 0.950 . S
H1440 C1436 0.950 . S
C1441 C1439 1.390 1_565 S
C1441 C1442 1.387 . S
C1441 H1444 0.950 . S
C1442 C1441 1.387 . S
C1442 C1445 1.387 . S
H1443 C1439 0.950 . S
H1444 C1441 0.950 . S
C1445 C1436 1.390 1_565 S
C1445 H1438 0.950 . S
C1445 C1442 1.387 . S
C1446 C1447 1.387 . S
C1446 H1450 0.950 . S
C1446 C1455 1.390 1_556 S
C1447 C1446 1.387 . S
C1447 C1449 1.387 . S
H1448 C1455 0.950 . S
C1449 C1447 1.387 . S
C1449 C1451 1.390 1_556 S
C1449 H1453 0.950 . S
H1450 C1446 0.950 . S
C1451 C1449 1.390 1_554 S
C1451 C1452 1.387 . S
C1451 H1454 0.950 . S
C1452 C1451 1.387 . S
C1452 C1455 1.387 . S
H1453 C1449 0.950 . S
H1454 C1451 0.950 . S
C1455 C1446 1.390 1_554 S
C1455 H1448 0.950 . S
C1455 C1452 1.387 . S
C1456 C1457 1.387 . S
C1456 H1460 0.950 . S
C1456 C1465 1.390 . S
C1457 C1456 1.387 . S
C1457 C1459 1.387 . S
H1458 C1465 0.950 . S
C1459 C1457 1.387 . S
C1459 C1461 1.390 . S
C1459 H1463 0.950 . S
H1460 C1456 0.950 . S
C1461 C1459 1.390 . S
C1461 C1462 1.387 . S
C1461 H1464 0.950 . S
C1462 C1461 1.387 . S
C1462 C1465 1.387 . S
H1463 C1459 0.950 . S
H1464 C1461 0.950 . S
C1465 C1456 1.390 . S
C1465 H1458 0.950 . S
C1465 C1462 1.387 . S
C1466 C1467 1.387 . S
C1466 H1470 0.950 . S
C1466 C1475 1.390 1_556 S
C1467 C1466 1.387 . S
C1467 C1469 1.387 . S
H1468 C1475 0.950 . S
C1469 C1467 1.387 . S
C1469 C1471 1.390 1_556 S
C1469 H1473 0.950 . S
H1470 C1466 0.950 . S
C1471 C1469 1.390 1_554 S
C1471 C1472 1.387 . S
C1471 H1474 0.950 . S
C1472 C1471 1.387 . S
C1472 C1475 1.387 . S
H1473 C1469 0.950 . S
H1474 C1471 0.950 . S
C1475 C1466 1.390 1_554 S
C1475 H1468 0.950 . S
C1475 C1472 1.387 . S
C1476 C1477 1.387 . S
C1476 H1480 0.950 . S
C1476 C1485 1.390 . S
C1477 C1476 1.387 . S
C1477 C1479 1.387 . S
H1478 C1485 0.950 . S
C1479 C1477 1.387 . S
C1479 C1481 1.390 . S
C1479 H1483 0.950 . S
H1480 C1476 0.950 . S
C1481 C1479 1.390 . S
C1481 C1482 1.387 . S
C1481 H1484 0.950 . S
C1482 C1481 1.387 . S
C1482 C1485 1.387 . S
H1483 C1479 0.950 . S
H1484 C1481 0.950 . S
C1485 C1476 1.390 . S
C1485 H1478 0.950 . S
C1485 C1482 1.387 . S
C1486 C1487 1.387 . S
C1486 H1490 0.950 . S
C1486 C1495 1.390 . S
C1487 C1486 1.387 . S
C1487 C1489 1.387 . S
H1488 C1495 0.950 . S
C1489 C1487 1.387 . S
C1489 C1491 1.390 . S
C1489 H1493 0.950 . S
H1490 C1486 0.950 . S
C1491 C1489 1.390 . S
C1491 C1492 1.387 . S
C1491 H1494 0.950 . S
C1492 C1491 1.387 . S
C1492 C1495 1.387 . S
H1493 C1489 0.950 . S
H1494 C1491 0.950 . S
C1495 C1486 1.390 . S
C1495 H1488 0.950 . S
C1495 C1492 1.387 . S
C1496 C1497 1.387 . S
C1496 H1500 0.950 . S
C1496 C1505 1.390 . S
C1497 C1496 1.387 . S
C1497 C1499 1.387 . S
H1498 C1505 0.950 . S
C1499 C1497 1.387 . S
C1499 C1501 1.390 . S
C1499 H1503 0.950 . S
H1500 C1496 0.950 . S
C1501 C1499 1.390 . S
C1501 C1502 1.387 . S
C1501 H1504 0.950 . S
C1502 C1501 1.387 . S
C1502 C1505 1.387 . S
H1503 C1499 0.950 . S
H1504 C1501 0.950 . S
C1505 C1496 1.390 . S
C1505 H1498 0.950 . S
C1505 C1502 1.387 . S
C1506 C1507 1.387 . S
C1506 H1510 0.950 . S
C1506 C1515 1.390 1_556 S
C1507 C1506 1.387 . S
C1507 C1509 1.387 . S
H1508 C1515 0.950 . S
C1509 C1507 1.387 . S
C1509 C1511 1.390 1_556 S
C1509 H1513 0.950 . S
H1510 C1506 0.950 . S
C1511 C1509 1.390 1_554 S
C1511 C1512 1.387 . S
C1511 H1514 0.950 . S
C1512 C1511 1.387 . S
C1512 C1515 1.387 . S
H1513 C1509 0.950 . S
H1514 C1511 0.950 . S
C1515 C1506 1.390 1_554 S
C1515 H1508 0.950 . S
C1515 C1512 1.387 . S
C1516 C1517 1.387 . S
C1516 H1520 0.950 . S
C1516 C1525 1.390 . S
C1517 C1516 1.387 . S
C1517 C1519 1.387 . S
H1518 C1525 0.950 . S
C1519 C1517 1.387 . S
C1519 C1521 1.390 . S
C1519 H1523 0.950 . S
H1520 C1516 0.950 . S
C1521 C1519 1.390 . S
C1521 C1522 1.387 . S
C1521 H1524 0.950 . S
C1522 C1521 1.387 . S
C1522 C1525 1.387 . S
H1523 C1519 0.950 . S
H1524 C1521 0.950 . S
C1525 C1516 1.390 . S
C1525 H1518 0.950 . S
C1525 C1522 1.387 . S
C1526 C1527 1.387 . S
C1526 H1530 0.950 . S
C1526 C1535 1.390 . S
C1527 C1526 1.387 . S
C1527 C1529 1.387 . S
H1528 C1535 0.950 . S
C1529 C1527 1.387 . S
C1529 C1531 1.390 . S
C1529 H1533 0.950 . S
H1530 C1526 0.950 . S
C1531 C1529 1.390 . S
C1531 C1532 1.387 . S
C1531 H1534 0.950 . S
C1532 C1531 1.387 . S
C1532 C1535 1.387 . S
H1533 C1529 0.950 . S
H1534 C1531 0.950 . S
C1535 C1526 1.390 . S
C1535 H1528 0.950 . S
C1535 C1532 1.387 . S
C1536 C1537 1.387 . S
C1536 H1540 0.950 1_545 S
C1536 C1545 1.390 . S
C1537 C1536 1.387 . S
C1537 C1539 1.387 . S
H1538 C1545 0.950 . S
C1539 C1537 1.387 . S
C1539 C1541 1.390 . S
C1539 H1543 0.950 . S
H1540 C1536 0.950 1_565 S
C1541 C1539 1.390 . S
C1541 C1542 1.387 . S
C1541 H1544 0.950 . S
C1542 C1541 1.387 . S
C1542 C1545 1.387 . S
H1543 C1539 0.950 . S
H1544 C1541 0.950 . S
C1545 C1536 1.390 . S
C1545 H1538 0.950 . S
C1545 C1542 1.387 . S
C1546 C1547 1.387 . S
C1546 H1550 0.950 . S
C1546 C1555 1.390 . S
C1547 C1546 1.387 . S
C1547 C1549 1.387 . S
H1548 C1555 0.950 1_565 S
C1549 C1547 1.387 . S
C1549 C1551 1.390 . S
C1549 H1553 0.950 . S
H1550 C1546 0.950 . S
C1551 C1549 1.390 . S
C1551 C1552 1.387 . S
C1551 H1554 0.950 . S
C1552 C1551 1.387 . S
C1552 C1555 1.387 . S
H1553 C1549 0.950 . S
H1554 C1551 0.950 . S
C1555 C1546 1.390 . S
C1555 H1548 0.950 1_545 S
C1555 C1552 1.387 . S
C1556 C1557 1.387 . S
C1556 H1560 0.950 . S
C1556 C1565 1.390 . S
C1557 C1556 1.387 . S
C1557 C1559 1.387 . S
H1558 C1565 0.950 . S
C1559 C1557 1.387 . S
C1559 C1561 1.390 . S
C1559 H1563 0.950 1_565 S
H1560 C1556 0.950 . S
C1561 C1559 1.390 . S
C1561 C1562 1.387 . S
C1561 H1564 0.950 . S
C1562 C1561 1.387 . S
C1562 C1565 1.387 . S
H1563 C1559 0.950 1_545 S
H1564 C1561 0.950 . S
C1565 C1556 1.390 . S
C1565 H1558 0.950 . S
C1565 C1562 1.387 . S
C1566 C1567 1.387 . S
C1566 H1570 0.950 . S
C1566 C1575 1.390 . S
C1567 C1566 1.387 . S
C1567 C1569 1.387 . S
H1568 C1575 0.950 1_545 S
C1569 C1567 1.387 . S
C1569 C1571 1.390 . S
C1569 H1573 0.950 . S
H1570 C1566 0.950 . S
C1571 C1569 1.390 . S
C1571 C1572 1.387 . S
C1571 H1574 0.950 . S
C1572 C1571 1.387 . S
C1572 C1575 1.387 . S
H1573 C1569 0.950 . S
H1574 C1571 0.950 . S
C1575 C1566 1.390 . S
C1575 H1568 0.950 1_565 S
C1575 C1572 1.387 . S
C1576 C1577 1.387 . S
C1576 H1580 0.950 1_565 S
C1576 C1585 1.390 . S
C1577 C1576 1.387 . S
C1577 C1579 1.387 . S
H1578 C1585 0.950 . S
C1579 C1577 1.387 . S
C1579 C1581 1.390 . S
C1579 H1583 0.950 . S
H1580 C1576 0.950 1_545 S
C1581 C1579 1.390 . S
C1581 C1582 1.387 . S
C1581 H1584 0.950 . S
C1582 C1581 1.387 . S
C1582 C1585 1.387 . S
H1583 C1579 0.950 . S
H1584 C1581 0.950 . S
C1585 C1576 1.390 . S
C1585 H1578 0.950 . S
C1585 C1582 1.387 . S
C1586 C1587 1.387 . S
C1586 H1590 0.950 . S
C1586 C1595 1.390 . S
C1587 C1586 1.387 . S
C1587 C1589 1.387 . S
H1588 C1595 0.950 . S
C1589 C1587 1.387 . S
C1589 C1591 1.390 . S
C1589 H1593 0.950 . S
H1590 C1586 0.950 . S
C1591 C1589 1.390 . S
C1591 C1592 1.387 . S
C1591 H1594 0.950 1_565 S
C1592 C1591 1.387 . S
C1592 C1595 1.387 . S
H1593 C1589 0.950 . S
H1594 C1591 0.950 1_545 S
C1595 C1586 1.390 . S
C1595 H1588 0.950 . S
C1595 C1592 1.387 . S
C1596 C1597 1.387 . S
C1596 H1600 0.950 . S
C1596 C1605 1.390 . S
C1597 C1596 1.387 . S
C1597 C1599 1.387 . S
H1598 C1605 0.950 . S
C1599 C1597 1.387 . S
C1599 C1601 1.390 . S
C1599 H1603 0.950 . S
H1600 C1596 0.950 . S
C1601 C1599 1.390 . S
C1601 C1602 1.387 . S
C1601 H1604 0.950 . S
C1602 C1601 1.387 . S
C1602 C1605 1.387 . S
H1603 C1599 0.950 . S
H1604 C1601 0.950 . S
C1605 C1596 1.390 . S
C1605 H1598 0.950 . S
C1605 C1602 1.387 . S
C1606 C1607 1.387 . S
C1606 H1610 0.940 1_545 S
C1606 C1615 1.390 . S
C1607 C1606 1.387 . S
C1607 C1609 1.387 . S
H1608 C1615 0.950 . S
C1609 C1607 1.387 . S
C1609 C1611 1.390 . S
C1609 H1613 0.950 . S
H1610 C1606 0.940 1_565 S
C1611 C1609 1.390 . S
C1611 C1612 1.387 . S
C1611 H1614 0.950 . S
C1612 C1611 1.387 . S
C1612 C1615 1.387 . S
H1613 C1609 0.950 . S
H1614 C1611 0.950 . S
C1615 C1606 1.390 . S
C1615 H1608 0.950 . S
C1615 C1612 1.387 . S
C1616 C1617 1.387 . S
C1616 H1620 0.950 . S
C1616 C1625 1.390 . S
C1617 C1616 1.387 . S
C1617 C1619 1.387 . S
H1618 C1625 0.950 . S
C1619 C1617 1.387 . S
C1619 C1621 1.390 . S
C1619 H1623 0.950 . S
H1620 C1616 0.950 . S
C1621 C1619 1.390 . S
C1621 C1622 1.387 . S
C1621 H1624 0.950 . S
C1622 C1621 1.387 . S
C1622 C1625 1.387 . S
H1623 C1619 0.950 . S
H1624 C1621 0.950 . S
C1625 C1616 1.390 . S
C1625 H1618 0.950 . S
C1625 C1622 1.387 . S
C1626 C1627 1.387 . S
C1626 H1630 0.950 . S
C1626 C1635 1.390 . S
C1627 C1626 1.387 . S
C1627 C1629 1.387 . S
H1628 C1635 0.950 . S
C1629 C1627 1.387 . S
C1629 C1631 1.390 . S
C1629 H1633 0.950 . S
H1630 C1626 0.950 . S
C1631 C1629 1.390 . S
C1631 C1632 1.387 . S
C1631 H1634 0.950 . S
C1632 C1631 1.387 . S
C1632 C1635 1.387 . S
H1633 C1629 0.950 . S
H1634 C1631 0.950 . S
C1635 C1626 1.390 . S
C1635 H1628 0.950 . S
C1635 C1632 1.387 . S
C1636 C1637 1.387 . S
C1636 H1640 0.950 . S
C1636 C1645 1.390 . S
C1637 C1636 1.387 . S
C1637 C1639 1.387 . S
H1638 C1645 0.950 . S
C1639 C1637 1.387 . S
C1639 C1641 1.390 . S
C1639 H1643 0.950 . S
H1640 C1636 0.950 . S
C1641 C1639 1.390 . S
C1641 C1642 1.387 . S
C1641 H1644 0.950 . S
C1642 C1641 1.387 . S
C1642 C1645 1.387 . S
H1643 C1639 0.950 . S
H1644 C1641 0.950 . S
C1645 C1636 1.390 . S
C1645 H1638 0.950 . S
C1645 C1642 1.387 . S
C1646 C1647 1.387 . S
C1646 H1650 0.950 . S
C1646 C1655 1.390 . S
C1647 C1646 1.387 . S
C1647 C1649 1.387 . S
H1648 C1655 0.950 . S
C1649 C1647 1.387 . S
C1649 C1651 1.390 . S
C1649 H1653 0.950 . S
H1650 C1646 0.950 . S
C1651 C1649 1.390 . S
C1651 C1652 1.387 . S
C1651 H1654 0.950 . S
C1652 C1651 1.387 . S
C1652 C1655 1.387 . S
H1653 C1649 0.950 . S
H1654 C1651 0.950 . S
C1655 C1646 1.390 . S
C1655 H1648 0.950 . S
C1655 C1652 1.387 . S
C1656 C1657 1.387 . S
C1656 H1660 0.950 . S
C1656 C1665 1.390 . S
C1657 C1656 1.387 . S
C1657 C1659 1.387 . S
H1658 C1665 0.950 . S
C1659 C1657 1.387 . S
C1659 C1661 1.390 . S
C1659 H1663 0.950 . S
H1660 C1656 0.950 . S
C1661 C1659 1.390 . S
C1661 C1662 1.387 . S
C1661 H1664 0.950 . S
C1662 C1661 1.387 . S
C1662 C1665 1.387 . S
H1663 C1659 0.950 . S
H1664 C1661 0.950 . S
C1665 C1656 1.390 . S
C1665 H1658 0.950 . S
C1665 C1662 1.387 . S
C1666 C1667 1.387 . S
C1666 H1670 0.950 . S
C1666 C1675 1.390 . S
C1667 C1666 1.387 . S
C1667 C1669 1.387 . S
H1668 C1675 0.950 . S
C1669 C1667 1.387 . S
C1669 C1671 1.390 . S
C1669 H1673 0.950 . S
H1670 C1666 0.950 . S
C1671 C1669 1.390 . S
C1671 C1672 1.387 . S
C1671 H1674 0.950 . S
C1672 C1671 1.387 . S
C1672 C1675 1.387 . S
H1673 C1669 0.950 . S
H1674 C1671 0.950 . S
C1675 C1666 1.390 . S
C1675 H1668 0.950 . S
C1675 C1672 1.387 . S
C1676 C1677 1.387 . S
C1676 H1680 0.950 . S
C1676 C1685 1.390 . S
C1677 C1676 1.387 . S
C1677 C1679 1.387 . S
H1678 C1685 0.950 . S
C1679 C1677 1.387 . S
C1679 C1681 1.390 . S
C1679 H1683 0.950 . S
H1680 C1676 0.950 . S
C1681 C1679 1.390 . S
C1681 C1682 1.387 . S
C1681 H1684 0.950 . S
C1682 C1681 1.387 . S
C1682 C1685 1.387 . S
H1683 C1679 0.950 . S
H1684 C1681 0.950 . S
C1685 C1676 1.390 . S
C1685 H1678 0.950 . S
C1685 C1682 1.387 . S
C1686 C1687 1.387 . S
C1686 H1690 0.950 . S
C1686 C1695 1.390 . S
C1687 C1686 1.387 . S
C1687 C1689 1.387 . S
H1688 C1695 0.950 . S
C1689 C1687 1.387 . S
C1689 C1691 1.390 . S
C1689 H1693 0.950 . S
H1690 C1686 0.950 . S
C1691 C1689 1.390 . S
C1691 C1692 1.387 . S
C1691 H1694 0.950 . S
C1692 C1691 1.387 . S
C1692 C1695 1.387 . S
H1693 C1689 0.950 . S
H1694 C1691 0.950 . S
C1695 C1686 1.390 . S
C1695 H1688 0.950 . S
C1695 C1692 1.387 . S
C1696 C1697 1.387 . S
C1696 H1700 0.950 . S
C1696 C1705 1.390 . S
C1697 C1696 1.387 . S
C1697 C1699 1.387 . S
H1698 C1705 0.950 . S
C1699 C1697 1.387 . S
C1699 C1701 1.390 . S
C1699 H1703 0.950 . S
H1700 C1696 0.950 . S
C1701 C1699 1.390 . S
C1701 C1702 1.387 . S
C1701 H1704 0.950 . S
C1702 C1701 1.387 . S
C1702 C1705 1.387 . S
H1703 C1699 0.950 . S
H1704 C1701 0.950 . S
C1705 C1696 1.390 . S
C1705 H1698 0.950 . S
C1705 C1702 1.387 . S
C1706 C1707 1.387 . S
C1706 H1710 0.950 . S
C1706 C1715 1.390 1_455 S
C1707 C1706 1.387 . S
C1707 C1709 1.387 1_565 S
H1708 C1715 0.950 . S
C1709 C1707 1.387 1_545 S
C1709 C1711 1.390 1_455 S
C1709 H1713 0.950 . S
H1710 C1706 0.950 . S
C1711 C1709 1.390 1_655 S
C1711 C1712 1.387 . S
C1711 H1714 0.950 . S
C1712 C1711 1.387 . S
C1712 C1715 1.387 1_545 S
H1713 C1709 0.950 . S
H1714 C1711 0.950 . S
C1715 C1706 1.390 1_655 S
C1715 H1708 0.950 . S
C1715 C1712 1.387 1_565 S
C1716 C1717 1.387 . S
C1716 H1720 0.950 . S
C1716 C1725 1.390 . S
C1717 C1716 1.387 . S
C1717 C1719 1.387 . S
H1718 C1725 0.950 . S
C1719 C1717 1.387 . S
C1719 C1721 1.390 . S
C1719 H1723 0.950 . S
H1720 C1716 0.950 . S
C1721 C1719 1.390 . S
C1721 C1722 1.387 . S
C1721 H1724 0.950 . S
C1722 C1721 1.387 . S
C1722 C1725 1.387 . S
H1723 C1719 0.950 . S
H1724 C1721 0.950 . S
C1725 C1716 1.390 . S
C1725 H1718 0.950 . S
C1725 C1722 1.387 . S
C1726 C1727 1.387 1_556 S
C1726 H1730 0.950 . S
C1726 C1735 1.390 . S
C1727 C1726 1.387 1_554 S
C1727 C1729 1.387 1_545 S
H1728 C1735 0.950 . S
C1729 C1727 1.387 1_565 S
C1729 C1731 1.390 . S
C1729 H1733 0.950 . S
H1730 C1726 0.950 . S
C1731 C1729 1.390 . S
C1731 C1732 1.387 1_554 S
C1731 H1734 0.950 . S
C1732 C1731 1.387 1_556 S
C1732 C1735 1.387 1_565 S
H1733 C1729 0.950 . S
H1734 C1731 0.950 . S
C1735 C1726 1.390 . S
C1735 H1728 0.950 . S
C1735 C1732 1.387 1_545 S
C1736 C1737 1.387 . S
C1736 H1740 0.950 . S
C1736 C1745 1.390 . S
C1737 C1736 1.387 . S
C1737 C1739 1.387 . S
H1738 C1745 0.950 . S
C1739 C1737 1.387 . S
C1739 C1741 1.390 . S
C1739 H1743 0.950 . S
H1740 C1736 0.950 . S
C1741 C1739 1.390 . S
C1741 C1742 1.387 . S
C1741 H1744 0.950 . S
C1742 C1741 1.387 . S
C1742 C1745 1.387 . S
H1743 C1739 0.950 . S
H1744 C1741 0.950 . S
C1745 C1736 1.390 . S
C1745 H1738 0.950 . S
C1745 C1742 1.387 . S
C1746 C1747 1.387 . S
C1746 H1750 0.950 . S
C1746 C1755 1.390 1_545 S
C1747 C1746 1.387 . S
C1747 C1749 1.387 . S
H1748 C1755 0.950 . S
C1749 C1747 1.387 . S
C1749 C1751 1.390 1_545 S
C1749 H1753 0.950 . S
H1750 C1746 0.950 . S
C1751 C1749 1.390 1_565 S
C1751 C1752 1.387 . S
C1751 H1754 0.950 . S
C1752 C1751 1.387 . S
C1752 C1755 1.387 . S
H1753 C1749 0.950 . S
H1754 C1751 0.950 . S
C1755 C1746 1.390 1_565 S
C1755 H1748 0.950 . S
C1755 C1752 1.387 . S
C1756 C1757 1.387 . S
C1756 H1760 0.950 . S
C1756 C1765 1.390 . S
C1757 C1756 1.387 . S
C1757 C1759 1.387 . S
H1758 C1765 0.950 . S
C1759 C1757 1.387 . S
C1759 C1761 1.390 . S
C1759 H1763 0.950 . S
H1760 C1756 0.950 . S
C1761 C1759 1.390 . S
C1761 C1762 1.387 . S
C1761 H1764 0.950 . S
C1762 C1761 1.387 . S
C1762 C1765 1.387 . S
H1763 C1759 0.950 . S
H1764 C1761 0.950 . S
C1765 C1756 1.390 . S
C1765 H1758 0.950 . S
C1765 C1762 1.387 . S
C1766 C1767 1.387 1_556 S
C1766 H1770 0.950 . S
C1766 C1775 1.390 1_655 S
C1767 C1766 1.387 1_554 S
C1767 C1769 1.387 1_565 S
H1768 C1775 0.950 . S
C1769 C1767 1.387 1_545 S
C1769 C1771 1.390 1_655 S
C1769 H1773 0.950 . S
H1770 C1766 0.950 . S
C1771 C1769 1.390 1_455 S
C1771 C1772 1.387 1_554 S
C1771 H1774 0.950 . S
C1772 C1771 1.387 1_556 S
C1772 C1775 1.387 1_545 S
H1773 C1769 0.950 . S
H1774 C1771 0.950 . S
C1775 C1766 1.390 1_455 S
C1775 H1768 0.950 . S
C1775 C1772 1.387 1_565 S
C1776 C1777 1.387 . S
C1776 H1780 0.950 . S
C1776 C1785 1.390 . S
C1777 C1776 1.387 . S
C1777 C1779 1.387 . S
H1778 C1785 0.950 . S
C1779 C1777 1.387 . S
C1779 C1781 1.390 . S
C1779 H1783 0.950 . S
H1780 C1776 0.950 . S
C1781 C1779 1.390 . S
C1781 C1782 1.387 . S
C1781 H1784 0.950 . S
C1782 C1781 1.387 . S
C1782 C1785 1.387 . S
H1783 C1779 0.950 . S
H1784 C1781 0.950 . S
C1785 C1776 1.390 . S
C1785 H1778 0.950 . S
C1785 C1782 1.387 . S
C1786 C1787 1.387 . S
C1786 H1790 0.950 . S
C1786 C1795 1.390 . S
C1787 C1786 1.387 . S
C1787 C1789 1.387 . S
H1788 C1795 0.950 . S
C1789 C1787 1.387 . S
C1789 C1791 1.390 . S
C1789 H1793 0.950 . S
H1790 C1786 0.950 . S
C1791 C1789 1.390 . S
C1791 C1792 1.387 . S
C1791 H1794 0.950 . S
C1792 C1791 1.387 . S
C1792 C1795 1.387 . S
H1793 C1789 0.950 . S
H1794 C1791 0.950 . S
C1795 C1786 1.390 . S
C1795 H1788 0.950 . S
C1795 C1792 1.387 . S
C1796 C1797 1.387 . S
C1796 H1800 0.950 . S
C1796 C1805 1.390 . S
C1797 C1796 1.387 . S
C1797 C1799 1.387 . S
H1798 C1805 0.950 . S
C1799 C1797 1.387 . S
C1799 C1801 1.390 . S
C1799 H1803 0.950 . S
H1800 C1796 0.950 . S
C1801 C1799 1.390 . S
C1801 C1802 1.387 . S
C1801 H1804 0.950 . S
C1802 C1801 1.387 . S
C1802 C1805 1.387 . S
H1803 C1799 0.950 . S
H1804 C1801 0.950 . S
C1805 C1796 1.390 . S
C1805 H1798 0.950 . S
C1805 C1802 1.387 . S
C1806 C1807 1.387 . S
C1806 H1810 0.950 . S
C1806 C1815 1.390 . S
C1807 C1806 1.387 . S
C1807 C1809 1.387 . S
H1808 C1815 0.950 . S
C1809 C1807 1.387 . S
C1809 C1811 1.390 . S
C1809 H1813 0.950 . S
H1810 C1806 0.950 . S
C1811 C1809 1.390 . S
C1811 C1812 1.387 . S
C1811 H1814 0.950 . S
C1812 C1811 1.387 . S
C1812 C1815 1.387 . S
H1813 C1809 0.950 . S
H1814 C1811 0.950 . S
C1815 C1806 1.390 . S
C1815 H1808 0.950 . S
C1815 C1812 1.387 . S
C1816 C1817 1.387 1_554 S
C1816 H1820 0.950 . S
C1816 C1825 1.390 . S
C1817 C1816 1.387 1_556 S
C1817 C1819 1.387 . S
H1818 C1825 0.950 . S
C1819 C1817 1.387 . S
C1819 C1821 1.390 . S
C1819 H1823 0.950 . S
H1820 C1816 0.950 . S
C1821 C1819 1.390 . S
C1821 C1822 1.387 1_556 S
C1821 H1824 0.950 . S
C1822 C1821 1.387 1_554 S
C1822 C1825 1.387 . S
H1823 C1819 0.950 . S
H1824 C1821 0.950 . S
C1825 C1816 1.390 . S
C1825 H1818 0.950 . S
C1825 C1822 1.387 . S
C1826 C1827 1.387 . S
C1826 H1830 0.950 . S
C1826 C1835 1.390 1_455 S
C1827 C1826 1.387 . S
C1827 C1829 1.387 . S
H1828 C1835 0.950 . S
C1829 C1827 1.387 . S
C1829 C1831 1.390 1_455 S
C1829 H1833 0.950 . S
H1830 C1826 0.950 . S
C1831 C1829 1.390 1_655 S
C1831 C1832 1.387 . S
C1831 H1834 0.950 . S
C1832 C1831 1.387 . S
C1832 C1835 1.387 . S
H1833 C1829 0.950 . S
H1834 C1831 0.950 . S
C1835 C1826 1.390 1_655 S
C1835 H1828 0.950 . S
C1835 C1832 1.387 . S
C1836 C1837 1.387 1_556 S
C1836 H1840 0.950 . S
C1836 C1845 1.390 1_455 S
C1837 C1836 1.387 1_554 S
C1837 C1839 1.387 . S
H1838 C1845 0.950 . S
C1839 C1837 1.387 . S
C1839 C1841 1.390 1_455 S
C1839 H1843 0.950 . S
H1840 C1836 0.950 . S
C1841 C1839 1.390 1_655 S
C1841 C1842 1.387 1_554 S
C1841 H1844 0.950 . S
C1842 C1841 1.387 1_556 S
C1842 C1845 1.387 . S
H1843 C1839 0.950 . S
H1844 C1841 0.950 . S
C1845 C1836 1.390 1_655 S
C1845 H1838 0.950 . S
C1845 C1842 1.387 . S
C1846 C1847 1.387 . S
C1846 H1850 0.950 . S
C1846 C1855 1.390 . S
C1847 C1846 1.387 . S
C1847 C1849 1.387 . S
H1848 C1855 0.950 . S
C1849 C1847 1.387 . S
C1849 C1851 1.390 . S
C1849 H1853 0.950 . S
H1850 C1846 0.950 . S
C1851 C1849 1.390 . S
C1851 C1852 1.387 . S
C1851 H1854 0.950 . S
C1852 C1851 1.387 . S
C1852 C1855 1.387 . S
H1853 C1849 0.950 . S
H1854 C1851 0.950 . S
C1855 C1846 1.390 . S
C1855 H1848 0.950 . S
C1855 C1852 1.387 . S
C1057 N5 1.590 . S
C1062 C919 1.557 . S
C1067 N38 1.591 1_655 S
C1072 C292 1.558 . S
C1077 C853 1.557 . S
C1082 N71 1.590 . S
C1087 C358 1.559 . S
C1092 N104 1.591 . S
C1097 C985 1.557 . S
C1102 N137 1.590 . S
C1107 N170 1.591 . S
C1112 C490 1.557 . S
C1117 N203 1.590 . S
C1122 C1051 1.557 . S
C1127 C424 1.559 . S
C1132 N236 1.590 1_655 S
C1137 N269 1.590 . S
C1142 C655 1.557 . S
C1147 N302 1.590 1_455 S
C1152 C28 1.557 . S
C1157 N335 1.591 . S
C1162 C589 1.559 . S
C1167 C94 1.559 . S
C1172 N368 1.590 . S
C1177 N401 1.591 . S
C1182 C721 1.558 . S
C1187 N434 1.591 . S
C1192 C226 1.557 . S
C1197 C787 1.559 . S
C1202 N467 1.591 . S
C1207 N500 1.591 1_455 S
C1212 C160 1.559 . S
C1217 N533 1.590 . S
C1222 C391 1.559 . S
C1227 C820 1.559 . S
C1232 N566 1.590 . S
C1237 C325 1.557 . S
C1242 N599 1.590 . S
C1247 N632 1.590 1_455 S
C1252 C886 1.557 . S
C1257 N665 1.591 . S
C1262 C457 1.558 . S
C1267 C1018 1.557 . S
C1272 N698 1.591 1_455 S
C1277 N731 1.591 . S
C1282 C523 1.557 . S
C1287 C952 1.557 . S
C1292 N764 1.591 . S
C1297 N797 1.591 . S
C1302 C127 1.558 . S
C1307 C556 1.557 . S
C1312 N830 1.590 . S
C1317 N863 1.591 . S
C1322 C61 1.559 . S
C1327 C622 1.559 . S
C1332 N896 1.591 1_655 S
C1337 N929 1.590 . S
C1342 C193 1.557 . S
C1347 C754 1.557 . S
C1352 N962 1.591 1_655 S
C1357 C259 1.559 . S
C1362 N995 1.591 . S
C1367 N1028 1.591 . S
C1372 C688 1.559 . S
C1377 N14 1.506 . S
C1382 N146 1.506 . S
C1387 N47 1.506 . S
C1392 N179 1.506 . S
C1397 N212 1.506 . S
C1402 N80 1.506 . S
C1407 N113 1.510 . S
C1412 N245 1.510 . S
C1417 N278 1.506 . S
C1422 N410 1.506 . S
C1427 N311 1.506 . S
C1432 N443 1.506 . S
C1437 N344 1.510 . S
C1442 N476 1.510 . S
C1447 N377 1.506 . S
C1452 N509 1.506 . S
C1457 N542 1.506 . S
C1462 N674 1.506 . S
C1467 N707 1.510 . S
C1472 N575 1.510 . S
C1477 N740 1.506 . S
C1482 N608 1.506 . S
C1487 N773 1.506 . S
C1492 N641 1.506 . S
C1497 N938 1.506 . S
C1502 N806 1.506 . S
C1507 N839 1.506 . S
C1512 N971 1.506 . S
C1517 N872 1.506 . S
C1522 N1004 1.506 . S
C1527 N1037 1.506 . S
C1532 N905 1.506 . S
C1537 C173 1.887 1_545 S
C1542 C8 1.887 . S
C1547 C206 1.887 . S
C1552 C41 1.887 1_545 S
C1557 C239 1.887 1_565 S
C1562 C74 1.887 . S
C1567 C140 1.887 . S
C1572 C107 1.887 1_565 S
C1577 C437 1.887 1_565 S
C1582 C272 1.887 . S
C1587 C470 1.887 . S
C1592 C305 1.887 1_565 S
C1597 C338 1.887 . S
C1602 C503 1.887 1_545 S
C1607 C371 1.887 1_545 S
C1612 C404 1.887 . S
C1617 C701 1.887 . S
C1622 C536 1.887 . S
C1627 C569 1.887 . S
C1632 C734 1.887 . S
C1637 C767 1.887 . S
C1642 C602 1.887 . S
C1647 C635 1.887 . S
C1652 C668 1.887 . S
C1657 C965 1.887 . S
C1662 C800 1.887 . S
C1667 C833 1.887 . S
C1672 C998 1.887 . S
C1677 C866 1.887 . S
C1682 C1031 1.887 . S
C1687 C932 1.887 . S
C1692 C899 1.887 . S
C1697 C809 1.192 . S
C1702 C17 1.192 . S
C1707 C50 1.192 . S
C1712 C314 1.192 . S
C1717 C83 1.193 . S
C1722 C875 1.193 . S
C1727 C116 1.193 . S
C1732 C380 1.193 . S
C1737 C149 1.191 . S
C1742 C941 1.191 . S
C1747 C446 1.191 . S
C1752 C182 1.191 . S
C1757 C1007 1.191 . S
C1762 C215 1.191 . S
C1767 C512 1.192 . S
C1772 C248 1.192 . S
C1777 C281 1.193 . S
C1782 C545 1.193 . S
C1787 C611 1.191 . S
C1792 C347 1.191 . S
C1797 C413 1.192 . S
C1802 C677 1.192 . S
C1807 C479 1.193 . S
C1812 C743 1.193 . S
C1817 C842 1.193 . S
C1822 C578 1.193 . S
C1827 C908 1.191 . S
C1832 C644 1.191 . S
C1837 C974 1.192 . S
C1842 C710 1.192 . S
C1847 C776 1.192 . S
C1852 C1040 1.192 . S
