# Generated by pormake.
# Topology bcu-f, (3)-cn, num edge types: 1
# Building blocks:
#     Node 0, Type 0, BuildingBlock: OLANEW_clean_sbu_2, # of connection points: 3
#     Node 1, Type 0, BuildingBlock: OLANEW_clean_sbu_2, # of connection points: 3
#     Node 2, Type 0, BuildingBlock: OLANEW_clean_sbu_2, # of connection points: 3
#     Node 3, Type 0, BuildingBlock: OLANEW_clean_sbu_2, # of connection points: 3
#     Node 4, Type 0, BuildingBlock: OLANEW_clean_sbu_2, # of connection points: 3
#     Node 5, Type 0, BuildingBlock: OLANEW_clean_sbu_2, # of connection points: 3
#     Node 6, Type 0, BuildingBlock: OLANEW_clean_sbu_2, # of connection points: 3
#     Node 7, Type 0, BuildingBlock: OLANEW_clean_sbu_2, # of connection points: 3
#     Node 8, Type 0, BuildingBlock: OLANEW_clean_sbu_2, # of connection points: 3
#     Node 9, Type 0, BuildingBlock: OLANEW_clean_sbu_2, # of connection points: 3
#     Node 10, Type 0, BuildingBlock: OLANEW_clean_sbu_2, # of connection points: 3
#     Node 11, Type 0, BuildingBlock: OLANEW_clean_sbu_2, # of connection points: 3
#     Node 12, Type 0, BuildingBlock: OLANEW_clean_sbu_2, # of connection points: 3
#     Node 13, Type 0, BuildingBlock: OLANEW_clean_sbu_2, # of connection points: 3
#     Node 14, Type 0, BuildingBlock: OLANEW_clean_sbu_2, # of connection points: 3
#     Node 15, Type 0, BuildingBlock: OLANEW_clean_sbu_2, # of connection points: 3
#     Edge 16, Type (0, 0), BuildingBlock: XUDNAN_clean_linker_2, # of connection points: 2
#     Edge 17, Type (0, 0), BuildingBlock: XUDNAN_clean_linker_2, # of connection points: 2
#     Edge 18, Type (0, 0), BuildingBlock: XUDNAN_clean_linker_2, # of connection points: 2
#     Edge 19, Type (0, 0), BuildingBlock: XUDNAN_clean_linker_2, # of connection points: 2
#     Edge 20, Type (0, 0), BuildingBlock: XUDNAN_clean_linker_2, # of connection points: 2
#     Edge 21, Type (0, 0), BuildingBlock: XUDNAN_clean_linker_2, # of connection points: 2
#     Edge 22, Type (0, 0), BuildingBlock: XUDNAN_clean_linker_2, # of connection points: 2
#     Edge 23, Type (0, 0), BuildingBlock: XUDNAN_clean_linker_2, # of connection points: 2
#     Edge 24, Type (0, 0), BuildingBlock: XUDNAN_clean_linker_2, # of connection points: 2
#     Edge 25, Type (0, 0), BuildingBlock: XUDNAN_clean_linker_2, # of connection points: 2
#     Edge 26, Type (0, 0), BuildingBlock: XUDNAN_clean_linker_2, # of connection points: 2
#     Edge 27, Type (0, 0), BuildingBlock: XUDNAN_clean_linker_2, # of connection points: 2
#     Edge 28, Type (0, 0), BuildingBlock: XUDNAN_clean_linker_2, # of connection points: 2
#     Edge 29, Type (0, 0), BuildingBlock: XUDNAN_clean_linker_2, # of connection points: 2
#     Edge 30, Type (0, 0), BuildingBlock: XUDNAN_clean_linker_2, # of connection points: 2
#     Edge 31, Type (0, 0), BuildingBlock: XUDNAN_clean_linker_2, # of connection points: 2
#     Edge 32, Type (0, 0), BuildingBlock: XUDNAN_clean_linker_2, # of connection points: 2
#     Edge 33, Type (0, 0), BuildingBlock: XUDNAN_clean_linker_2, # of connection points: 2
#     Edge 34, Type (0, 0), BuildingBlock: XUDNAN_clean_linker_2, # of connection points: 2
#     Edge 35, Type (0, 0), BuildingBlock: XUDNAN_clean_linker_2, # of connection points: 2
#     Edge 36, Type (0, 0), BuildingBlock: XUDNAN_clean_linker_2, # of connection points: 2
#     Edge 37, Type (0, 0), BuildingBlock: XUDNAN_clean_linker_2, # of connection points: 2
#     Edge 38, Type (0, 0), BuildingBlock: XUDNAN_clean_linker_2, # of connection points: 2
#     Edge 39, Type (0, 0), BuildingBlock: XUDNAN_clean_linker_2, # of connection points: 2
# Relax obj value: 0.001
# Max RMSD: 0.051
# Mean RMSD: 0.051
data_MOF--net-bcu-f--node1-OLANEW_clean_sbu_2--edge1-XUDNAN_clean_linker_2
_symmetry_space_group_name_H-M    P1
_symmetry_Int_Tables_number       1
_symmetry_cell_setting            triclinic
loop_
_symmetry_equiv_pos_as_xyz
'x, y, z'
_cell_length_a     74.194735
_cell_length_b     74.13038
_cell_length_c     22.287436
_cell_angle_alpha  90.023842
_cell_angle_beta   90.058475
_cell_angle_gamma 90.000125
loop_
_atom_site_label
_atom_site_type_symbol
_atom_site_fract_x
_atom_site_fract_y
_atom_site_fract_z
_atom_type_partial_charge
O0 O 0.19345 0.08757 0.05696 0.0
Cd1 Cd 0.21104 0.06681 0.11867 0.0
O2 O 0.21045 0.11051 0.08228 0.0
Cd3 Cd 0.22001 0.13844 0.08069 0.0
O4 O 0.2294 0.16628 0.08681 0.0
C5 C 0.24035 0.17049 0.12841 0.0
O6 O 0.24563 0.15794 0.16618 0.0
C7 C 0.19701 0.1043 0.05337 0.0
C8 C 0.20946 0.03238 0.06886 0.0
O9 O 0.19721 0.03797 0.10485 0.0
O10 O 0.22266 0.04297 0.05724 0.0
O11 O 0.89554 0.14754 0.21142 0.0
Cd12 Cd 0.91597 0.15493 0.29367 0.0
O13 O 0.88297 0.17302 0.23754 0.0
Cd14 Cd 0.86181 0.19347 0.23521 0.0
O15 O 0.84001 0.21254 0.25167 0.0
C16 C 0.82966 0.20983 0.29615 0.0
O17 O 0.8323 0.19555 0.32994 0.0
C18 C 0.88361 0.15952 0.20243 0.0
C19 C 0.94892 0.16615 0.2477 0.0
O20 O 0.94717 0.15036 0.27031 0.0
O21 O 0.93524 0.17668 0.24754 0.0
O22 O 0.79883 0.90155 0.17185 0.0
Cd23 Cd 0.77932 0.9235 0.22098 0.0
O24 O 0.77575 0.88356 0.18152 0.0
Cd25 Cd 0.7589 0.85961 0.17109 0.0
O26 O 0.73924 0.83876 0.19252 0.0
C27 C 0.72315 0.84353 0.20382 0.0
O28 O 0.71881 0.86066 0.19923 0.0
C29 C 0.79169 0.88623 0.16259 0.0
C30 C 0.77119 0.95068 0.1395 0.0
O31 O 0.7833 0.95303 0.17979 0.0
O32 O 0.76267 0.93565 0.13855 0.0
O33 O 0.08744 0.77656 0.16401 0.0
Cd34 Cd 0.06351 0.76238 0.22217 0.0
O35 O 0.10707 0.75492 0.17987 0.0
Cd36 Cd 0.1338 0.74264 0.17313 0.0
O37 O 0.16082 0.73121 0.16602 0.0
C38 C 0.16839 0.72442 0.21192 0.0
O39 O 0.15971 0.72439 0.26328 0.0
C40 C 0.10297 0.76985 0.15529 0.0
C41 C 0.03224 0.76326 0.15291 0.0
O42 O 0.0367 0.77664 0.18618 0.0
O43 O 0.04231 0.74921 0.15361 0.0
O44 O 0.14836 0.86773 0.87495 0.0
Cd45 Cd 0.15419 0.89311 0.80815 0.0
O46 O 0.17293 0.85451 0.84327 0.0
Cd47 Cd 0.1944 0.83434 0.83755 0.0
O48 O 0.21685 0.81665 0.81422 0.0
C49 C 0.2259 0.82056 0.76763 0.0
O50 O 0.22136 0.83488 0.73637 0.0
C51 C 0.15902 0.85432 0.87663 0.0
C52 C 0.17221 0.92102 0.86664 0.0
O53 O 0.15497 0.91993 0.86772 0.0
O54 O 0.18096 0.90886 0.83794 0.0
O55 O 0.09467 0.18865 0.89552 0.0
Cd56 Cd 0.07302 0.21332 0.9018 0.0
O57 O 0.1152 0.20944 0.9089 0.0
Cd58 Cd 0.14286 0.21936 0.91348 0.0
O59 O 0.16662 0.23475 0.88777 0.0
C60 C 0.17468 0.23067 0.83935 0.0
O61 O 0.16905 0.21665 0.80844 0.0
C62 C 0.11109 0.19289 0.90299 0.0
C63 C 0.0487 0.20559 0.99306 0.0
O64 O 0.04439 0.20312 0.93797 0.0
O65 O 0.0643 0.21208 0.00489 0.0
O66 O 0.79738 0.10654 0.88578 0.0
Cd67 Cd 0.77204 0.09202 0.83547 0.0
O68 O 0.78419 0.13223 0.86701 0.0
Cd69 Cd 0.77735 0.16095 0.86888 0.0
O70 O 0.76539 0.1871 0.84769 0.0
C71 C 0.75619 0.18799 0.79965 0.0
O72 O 0.75469 0.17346 0.76617 0.0
C73 C 0.79705 0.12358 0.8916 0.0
C74 C 0.76681 0.05806 0.88527 0.0
O75 O 0.7745 0.05977 0.83414 0.0
O76 O 0.76132 0.07229 0.91219 0.0
O77 O 0.88282 0.82496 0.88226 0.0
Cd78 Cd 0.90645 0.81386 0.81582 0.0
O79 O 0.86609 0.80133 0.86256 0.0
Cd80 Cd 0.84173 0.78471 0.86594 0.0
O81 O 0.81872 0.76634 0.86644 0.0
C82 C 0.81794 0.75386 0.8274 0.0
O83 O 0.83093 0.75251 0.78762 0.0
C84 C 0.86844 0.81604 0.89093 0.0
C85 C 0.93312 0.79696 0.88353 0.0
O86 O 0.93338 0.81404 0.87468 0.0
O87 O 0.92036 0.78778 0.85956 0.0
O88 O 0.69984 0.56377 0.72997 0.0
Cd89 Cd 0.72464 0.54435 0.76163 0.0
O90 O 0.71887 0.58595 0.74212 0.0
Cd91 Cd 0.73001 0.61324 0.73612 0.0
O92 O 0.7424 0.63973 0.74718 0.0
C93 C 0.73636 0.65037 0.78711 0.0
O94 O 0.72252 0.64527 0.81969 0.0
C95 C 0.70332 0.5805 0.72608 0.0
C96 C 0.73499 0.52335 0.66394 0.0
O97 O 0.72447 0.51702 0.70437 0.0
O98 O 0.74097 0.53945 0.67045 0.0
O99 O 0.41473 0.74988 0.42862 0.0
Cd100 Cd 0.43352 0.77682 0.436 0.0
O101 O 0.39176 0.764 0.46821 0.0
Cd102 Cd 0.36426 0.76918 0.49933 0.0
O103 O 0.33886 0.77538 0.54417 0.0
C104 C 0.33362 0.76572 0.58793 0.0
O105 O 0.34348 0.75187 0.6045 0.0
C106 C 0.39842 0.74965 0.44593 0.0
C107 C 0.4694 0.76753 0.45658 0.0
O108 O 0.45891 0.77152 0.50026 0.0
O109 O 0.46296 0.76806 0.40324 0.0
O110 O 0.29751 0.411 0.60506 0.0
Cd111 Cd 0.28811 0.43468 0.67439 0.0
O112 O 0.27978 0.39041 0.64355 0.0
Cd113 Cd 0.26647 0.36417 0.65065 0.0
O114 O 0.25493 0.33743 0.66411 0.0
C115 C 0.24833 0.3335 0.71503 0.0
O116 O 0.24862 0.34569 0.75784 0.0
C117 C 0.29159 0.39492 0.60499 0.0
C118 C 0.30442 0.46667 0.63753 0.0
O119 O 0.31215 0.45622 0.67541 0.0
O120 O 0.28872 0.46225 0.61849 0.0
O121 O 0.59004 0.3144 0.53942 0.0
Cd122 Cd 0.56629 0.29558 0.58179 0.0
O123 O 0.61168 0.29552 0.56266 0.0
Cd124 Cd 0.63961 0.2868 0.57486 0.0
O125 O 0.66416 0.27347 0.60566 0.0
C126 C 0.6736 0.28036 0.64741 0.0
O127 O 0.66881 0.29603 0.66993 0.0
C128 C 0.60668 0.31037 0.53949 0.0
C129 C 0.53365 0.30749 0.53466 0.0
O130 O 0.54052 0.3149 0.58132 0.0
O131 O 0.54195 0.29406 0.51123 0.0
O132 O 0.70099 0.39337 0.30655 0.0
Cd133 Cd 0.72917 0.40571 0.26795 0.0
O134 O 0.7167 0.36944 0.32932 0.0
Cd135 Cd 0.72362 0.34334 0.36862 0.0
O136 O 0.73628 0.31705 0.3797 0.0
C137 C 0.74724 0.31256 0.33855 0.0
O138 O 0.74992 0.32375 0.29372 0.0
C139 C 0.70177 0.37786 0.33061 0.0
C140 C 0.73822 0.43515 0.33926 0.0
O141 O 0.73094 0.43747 0.28768 0.0
O142 O 0.7417 0.41901 0.35622 0.0
O143 O 0.63452 0.6818 0.48065 0.0
Cd144 Cd 0.62831 0.70956 0.4247 0.0
O145 O 0.64855 0.69619 0.55335 0.0
Cd146 Cd 0.64575 0.72225 0.50934 0.0
O147 O 0.64969 0.74589 0.45282 0.0
C148 C 0.66313 0.74549 0.41754 0.0
O149 O 0.67342 0.73107 0.41687 0.0
C150 C 0.64288 0.68152 0.53054 0.0
C151 C 0.59433 0.72376 0.44935 0.0
O152 O 0.59685 0.71341 0.40403 0.0
O153 O 0.60786 0.72733 0.48309 0.0
O154 O 0.36394 0.61988 0.33534 0.0
Cd155 Cd 0.36014 0.58905 0.29917 0.0
O156 O 0.33477 0.62454 0.33203 0.0
Cd157 Cd 0.31086 0.64176 0.33344 0.0
O158 O 0.28697 0.65782 0.31283 0.0
C159 C 0.28537 0.66387 0.25975 0.0
O160 O 0.29816 0.66045 0.22063 0.0
C161 C 0.35056 0.63031 0.34306 0.0
C162 C 0.35171 0.56504 0.39106 0.0
O163 O 0.36811 0.56907 0.37912 0.0
O164 O 0.33925 0.57246 0.35972 0.0
O165 O 0.3724 0.34712 0.27891 0.0
Cd166 Cd 0.39827 0.34133 0.21447 0.0
O167 O 0.36006 0.32079 0.26082 0.0
Cd168 Cd 0.33872 0.30051 0.26593 0.0
O169 O 0.3186 0.27967 0.24834 0.0
C170 C 0.30677 0.28249 0.20812 0.0
O171 O 0.30674 0.29805 0.17987 0.0
C172 C 0.35983 0.33583 0.28823 0.0
C173 C 0.42857 0.33846 0.28763 0.0
O174 O 0.42281 0.35386 0.26999 0.0
O175 O 0.42028 0.3243 0.26943 0.0
H176 H 0.15781 0.94626 0.94251 0.0
H177 H 0.20798 0.92988 0.85848 0.0
H178 H 0.22344 0.95586 0.90522 0.0
H179 H 0.16347 0.99323 0.92461 0.0
H180 H 0.15369 -0.00093 0.99603 0.0
H181 H 0.14683 0.97871 0.95838 0.0
H182 H 0.15536 0.96001 0.05248 0.0
H183 H 0.16224 0.98034 0.09047 0.0
H184 H 0.17778 0.96178 0.08315 0.0
H185 H 0.23289 0.98482 0.95549 0.0
H186 H 0.23583 0.01397 0.00854 0.0
H187 H 0.17972 0.01066 0.06232 0.0
C188 C 0.17208 0.94805 0.93424 0.0
C189 C 0.18169 0.93607 0.89673 0.0
C190 C 0.20035 0.93888 0.88714 0.0
C191 C 0.20925 0.95358 0.91349 0.0
C192 C 0.19934 0.96523 0.94978 0.0
C193 C 0.1812 0.96254 0.96057 0.0
C194 C 0.17354 0.97721 1.00034 0.0
C195 C 0.1585 0.98767 0.96788 0.0
C196 C 0.16684 0.96936 0.06016 0.0
C197 C 0.19012 0.98877 0.00932 0.0
C198 C 0.20488 0.98164 0.97986 0.0
C199 C 0.22149 0.99043 0.97931 0.0
C200 C 0.22302 0.00698 0.00942 0.0
C201 C 0.20805 0.01451 0.03988 0.0
C202 C 0.19147 0.00514 0.04016 0.0
H203 H 0.95355 0.18439 0.14308 0.0
H204 H 0.98276 0.16024 0.29115 0.0
H205 H 0.01166 0.16963 0.24498 0.0
H206 H 0.98405 0.16905 0.03072 0.0
H207 H 0.98165 0.18879 0.98418 0.0
H208 H 0.96337 0.18182 0.03186 0.0
H209 H 0.96296 0.21343 0.08158 0.0
H210 H 0.98128 0.22049 0.03407 0.0
H211 H 0.98334 0.22227 0.11444 0.0
H212 H 0.03719 0.18214 0.18312 0.0
H213 H 0.05778 0.19315 0.10394 0.0
H214 H 0.01186 0.20607 0.99134 0.0
C215 C 0.96605 0.18133 0.16604 0.0
C216 C 0.96608 0.1719 0.22096 0.0
C217 C 0.9826 0.16759 0.24915 0.0
C218 C -0.00099 0.17293 0.22343 0.0
C219 C -0.00143 0.18219 0.16899 0.0
C220 C 0.98253 0.18607 0.1401 0.0
C221 C 0.9858 0.1947 0.07954 0.0
C222 C 0.97827 0.18288 0.02858 0.0
C223 C 0.97788 0.21386 0.07731 0.0
C224 C 0.00618 0.1951 0.07885 0.0
C225 C 0.01328 0.18817 0.13138 0.0
C226 C 0.0318 0.18749 0.14166 0.0
C227 C 0.04336 0.19382 0.09663 0.0
C228 C 0.03635 0.20032 0.04166 0.0
C229 C 0.01754 0.20103 0.03286 0.0
H230 H 0.77098 0.05004 0.00344 0.0
H231 H 0.75921 0.02603 0.83043 0.0
H232 H 0.75691 0.99595 0.87837 0.0
H233 H 0.79994 0.01474 0.05156 0.0
H234 H 0.79334 0.01607 0.12924 0.0
H235 H 0.79211 0.03581 0.08244 0.0
H236 H 0.7583 0.03951 0.10893 0.0
H237 H 0.75943 0.01975 0.15583 0.0
H238 H 0.74303 0.02098 0.09623 0.0
H239 H 0.75576 0.96865 0.94574 0.0
H240 H 0.75952 0.94553 0.0248 0.0
H241 H 0.77511 0.98717 0.1514 0.0
C242 C 0.76764 0.03846 0.97595 0.0
C243 C 0.76495 0.04025 0.91359 0.0
C244 C 0.76116 0.02482 0.87844 0.0
C245 C 0.75977 0.00776 0.90528 0.0
C246 C 0.76258 0.00641 0.967 0.0
C247 C 0.76671 0.0213 0.00172 0.0
C248 C 0.77072 0.01601 0.06595 0.0
C249 C 0.79018 0.02095 0.08328 0.0
C250 C 0.75705 0.02457 0.10928 0.0
C251 C 0.76821 0.9958 0.06199 0.0
C252 C 0.76316 0.99056 0.00485 0.0
C253 C 0.75979 0.97257 0.99057 0.0
C254 C 0.76189 0.95957 0.03572 0.0
C255 C 0.76769 0.96462 0.09387 0.0
C256 C 0.77079 0.98296 0.10712 0.0
H257 H 0.01387 0.79356 0.11918 0.0
H258 H 0.01506 0.73547 0.09529 0.0
H259 H 0.98932 0.7376 0.02499 0.0
H260 H 0.96545 0.79928 0.11171 0.0
H261 H 0.96691 0.82013 0.07045 0.0
H262 H 0.98473 0.81381 0.12116 0.0
H263 H 0.00794 0.81677 0.03485 0.0
H264 H 0.99018 0.82301 0.98382 0.0
H265 H 0.0046 0.80414 0.96659 0.0
H266 H 0.96349 0.74625 0.95674 0.0
H267 H 0.9403 0.76081 0.89336 0.0
H268 H 0.95718 0.81329 0.9591 0.0
C269 C 0.00859 0.78125 0.09975 0.0
C270 C 0.01635 0.76433 0.11303 0.0
C271 C 0.00926 0.74857 0.08584 0.0
C272 C 0.99465 0.74965 0.04594 0.0
C273 C 0.98742 0.76659 0.03339 0.0
C274 C 0.9942 0.78211 0.05933 0.0
C275 C 0.98453 0.79873 0.03657 0.0
C276 C 0.97483 0.80856 0.08804 0.0
C277 C 0.99759 0.8114 0.00349 0.0
C278 C 0.97124 0.79015 0.99371 0.0
C279 C 0.973 0.7716 0.9928 0.0
C280 C 0.96202 0.76077 0.957 0.0
C281 C 0.94889 0.76916 0.9212 0.0
C282 C 0.94701 0.78817 0.92109 0.0
C283 C 0.95838 0.79873 0.95784 0.0
H284 H 0.73339 0.48671 0.65068 0.0
H285 H 0.746 0.53605 0.55494 0.0
H286 H 0.75033 0.51855 0.46163 0.0
H287 H 0.76614 0.45808 0.56973 0.0
H288 H 0.75136 0.43878 0.57085 0.0
H289 H 0.75046 0.45512 0.63068 0.0
H290 H 0.71627 0.45954 0.61151 0.0
H291 H 0.71708 0.4433 0.55158 0.0
H292 H 0.70861 0.46569 0.5375 0.0
H293 H 0.74936 0.49611 0.37661 0.0
H294 H 0.74611 0.46995 0.30824 0.0
H295 H 0.73666 0.43509 0.46116 0.0
C296 C 0.73732 0.49378 0.61025 0.0
C297 C 0.73932 0.51271 0.60986 0.0
C298 C 0.74449 0.52153 0.5562 0.0
C299 C 0.74694 0.51171 0.503 0.0
C300 C 0.74455 0.49307 0.50465 0.0
C301 C 0.74017 0.48416 0.55714 0.0
C302 C 0.73803 0.4641 0.54668 0.0
C303 C 0.75235 0.45339 0.58155 0.0
C304 C 0.71886 0.4578 0.56275 0.0
C305 C 0.74132 0.46319 0.47977 0.0
C306 C 0.74499 0.48004 0.45624 0.0
C307 C 0.74692 0.48279 0.39467 0.0
C308 C 0.74499 0.46791 0.35621 0.0
C309 C 0.74146 0.45054 0.37968 0.0
C310 C 0.73984 0.44817 0.44224 0.0
H311 H 0.56502 0.72499 0.37456 0.0
H312 H 0.58307 0.73995 0.5531 0.0
H313 H 0.553 0.7527 0.57477 0.0
H314 H 0.53839 0.76478 0.34877 0.0
H315 H 0.52104 0.75295 0.30799 0.0
H316 H 0.54385 0.74466 0.30712 0.0
H317 H 0.53282 0.71361 0.34595 0.0
H318 H 0.50997 0.7218 0.34692 0.0
H319 H 0.51981 0.71251 0.41413 0.0
H320 H 0.5207 0.76316 0.57763 0.0
H321 H 0.48899 0.7719 0.55975 0.0
H322 H 0.4926 0.75123 0.3779 0.0
C323 C 0.56264 0.73089 0.4183 0.0
C324 C 0.57635 0.73141 0.46228 0.0
C325 C 0.57275 0.73941 0.51874 0.0
C326 C 0.55571 0.74666 0.5315 0.0
C327 C 0.54249 0.74593 0.48712 0.0
C328 C 0.5458 0.73837 0.43152 0.0
C329 C 0.52941 0.73964 0.39121 0.0
C330 C 0.53342 0.7512 0.33549 0.0
C331 C 0.5226 0.72077 0.37354 0.0
C332 C 0.51634 0.74903 0.43292 0.0
C333 C 0.5241 0.75244 0.48816 0.0
C334 C 0.5145 0.76065 0.53445 0.0
C335 C 0.49651 0.76553 0.52391 0.0
C336 C 0.48837 0.76234 0.46737 0.0
C337 C 0.49849 0.754 0.42142 0.0
H338 H 0.31927 0.54851 0.41176 0.0
H339 H 0.37435 0.55147 0.47686 0.0
H340 H 0.36745 0.52829 0.55302 0.0
H341 H 0.29759 0.54055 0.55735 0.0
H342 H 0.28144 0.52497 0.52628 0.0
H343 H 0.29024 0.54299 0.48066 0.0
H344 H 0.30064 0.51973 0.40102 0.0
H345 H 0.29188 0.50167 0.44632 0.0
H346 H 0.31516 0.50141 0.42331 0.0
H347 H 0.35507 0.5036 0.61809 0.0
H348 H 0.33847 0.47838 0.66467 0.0
H349 H 0.29165 0.49116 0.55562 0.0
C350 C 0.32981 0.54449 0.44265 0.0
C351 C 0.34733 0.55186 0.43864 0.0
C352 C 0.36083 0.54603 0.47921 0.0
C353 C 0.35702 0.53292 0.52276 0.0
C354 C 0.33967 0.52578 0.52507 0.0
C355 C 0.32628 0.53133 0.48604 0.0
C356 C 0.3091 0.52068 0.4953 0.0
C357 C 0.29368 0.53304 0.51615 0.0
C358 C 0.3039 0.51026 0.43809 0.0
C359 C 0.315 0.50804 0.54488 0.0
C360 C 0.33261 0.51135 0.56193 0.0
C361 C 0.34123 0.50097 0.60546 0.0
C362 C 0.33168 0.48668 0.63166 0.0
C363 C 0.31375 0.48281 0.6139 0.0
C364 C 0.30529 0.49383 0.57049 0.0
H365 H 0.51154 0.29101 0.45254 0.0
H366 H 0.5186 0.34062 0.55343 0.0
H367 H 0.49236 0.35387 0.50145 0.0
H368 H 0.49867 0.3108 0.31436 0.0
H369 H 0.48199 0.29397 0.29628 0.0
H370 H 0.50103 0.28813 0.34251 0.0
H371 H 0.47953 0.27686 0.42605 0.0
H372 H 0.46041 0.28254 0.37987 0.0
H373 H 0.46232 0.29175 0.45447 0.0
H374 H 0.46683 0.36247 0.43342 0.0
H375 H 0.44173 0.36483 0.36098 0.0
H376 H 0.45016 0.30908 0.30844 0.0
C377 C 0.50747 0.30461 0.46399 0.0
C378 C 0.51712 0.31482 0.50685 0.0
C379 C 0.51135 0.33254 0.52088 0.0
C380 C 0.49651 0.34021 0.49145 0.0
C381 C 0.48745 0.32988 0.4488 0.0
C382 C 0.49252 0.31238 0.43573 0.0
C383 C 0.48038 0.30415 0.3884 0.0
C384 C 0.49117 0.29896 0.33206 0.0
C385 C 0.47005 0.28786 0.41373 0.0
C386 C 0.46787 0.31986 0.3762 0.0
C387 C 0.47227 0.33462 0.41121 0.0
C388 C 0.46312 0.35095 0.40623 0.0
C389 C 0.44896 0.35219 0.36477 0.0
C390 C 0.44397 0.33712 0.32939 0.0
C391 C 0.45358 0.32077 0.33533 0.0
H392 H 0.18887 0.14016 0.07075 0.0
H393 H 0.17774 0.09457 0.9545 0.0
H394 H 0.15638 0.11325 0.89644 0.0
H395 H 0.14571 0.15676 0.0786 0.0
H396 H 0.15178 0.1803 0.07724 0.0
H397 H 0.16745 0.16393 0.10588 0.0
H398 H 0.19158 0.17481 0.03014 0.0
H399 H 0.17598 0.19132 0.00125 0.0
H400 H 0.18632 0.17528 0.95117 0.0
H401 H 0.13389 0.13582 0.85848 0.0
H402 H 0.11255 0.16102 0.84178 0.0
H403 H 0.13988 0.19228 0.97876 0.0
C404 C 0.18267 0.13432 0.03142 0.0
C405 C 0.18542 0.11605 0.01607 0.0
C406 C 0.17596 0.1086 0.96667 0.0
C407 C 0.16388 0.11912 0.93325 0.0
C408 C 0.1615 0.13711 0.94952 0.0
C409 C 0.17075 0.1447 0.99713 0.0
C410 C 0.16492 0.16401 0.00778 0.0
C411 C 0.15699 0.16637 0.07111 0.0
C412 C 0.18064 0.17713 0.99692 0.0
C413 C 0.15057 0.16592 0.95987 0.0
C414 C 0.14884 0.15028 0.92654 0.0
C415 C 0.1354 0.14828 0.88328 0.0
C416 C 0.12333 0.1626 0.87419 0.0
C417 C 0.12494 0.17872 0.90779 0.0
C418 C 0.13884 0.1804 0.95066 0.0
H419 H 0.81779 0.10792 0.97806 0.0
H420 H 0.80772 0.15933 0.89126 0.0
H421 H 0.8285 0.17418 0.96221 0.0
H422 H 0.82087 0.12382 0.12731 0.0
H423 H 0.839 0.10891 0.14832 0.0
H424 H 0.8234 0.10232 0.09041 0.0
H425 H 0.84991 0.0975 0.01648 0.0
H426 H 0.86562 0.10396 0.07429 0.0
H427 H 0.86562 0.11562 0.00335 0.0
H428 H 0.84944 0.18357 0.04589 0.0
H429 H 0.87062 0.18642 0.13105 0.0
H430 H 0.86818 0.12861 0.15951 0.0
C431 C 0.82003 0.1223 0.97354 0.0
C432 C 0.81062 0.13257 0.93017 0.0
C433 C 0.81407 0.1513 0.92566 0.0
C434 C 0.82607 0.15982 0.96533 0.0
C435 C 0.83472 0.14935 0.00858 0.0
C436 C 0.83205 0.13095 0.01232 0.0
C437 C 0.84309 0.12271 0.0625 0.0
C438 C 0.83086 0.11393 0.10993 0.0
C439 C 0.85688 0.10915 0.03765 0.0
C440 C 0.85226 0.13939 0.08692 0.0
C441 C 0.84719 0.15464 0.05539 0.0
C442 C 0.85352 0.17172 0.07079 0.0
C443 C 0.86537 0.17324 0.11959 0.0
C444 C 0.87078 0.15777 0.1522 0.0
C445 C 0.86425 0.14064 0.13523 0.0
H446 H 0.81707 0.89197 0.07664 0.0
H447 H 0.78907 0.84928 0.17143 0.0
H448 H 0.8048 0.82653 0.10961 0.0
H449 H 0.81685 0.87134 0.9312 0.0
H450 H 0.83911 0.87915 0.91192 0.0
H451 H 0.82539 0.892 0.96304 0.0
H452 H 0.85074 0.89062 0.04307 0.0
H453 H 0.86457 0.87785 0.99209 0.0
H454 H 0.85961 0.86901 0.06558 0.0
H455 H 0.82412 0.80845 0.03792 0.0
H456 H 0.84595 0.79655 0.96419 0.0
H457 H 0.86114 0.8512 0.91666 0.0
C458 C 0.81427 0.87783 0.0845 0.0
C459 C 0.8015 0.87239 0.12782 0.0
C460 C 0.79826 0.85377 0.13697 0.0
C461 C 0.8073 0.84075 0.1025 0.0
C462 C 0.81957 0.8466 0.05939 0.0
C463 C 0.82313 0.8647 0.05055 0.0
C464 C 0.83707 0.86749 0.00195 0.0
C465 C 0.82912 0.87812 0.94889 0.0
C466 C 0.854 0.87679 0.0272 0.0
C467 C 0.84086 0.84812 0.98484 0.0
C468 C 0.83062 0.83625 0.0183 0.0
C469 C 0.83204 0.81763 0.01092 0.0
C470 C 0.84428 0.81099 0.96831 0.0
C471 C 0.85484 0.82296 0.93348 0.0
C472 C 0.85311 0.84174 0.94224 0.0
H473 H 0.10652 0.80613 0.14208 0.0
H474 H 0.12711 0.75514 0.07601 0.0
H475 H 0.14614 0.7714 0.00293 0.0
H476 H 0.10217 0.82675 0.00287 0.0
H477 H 0.10875 0.84895 0.02767 0.0
H478 H 0.09862 0.83345 0.07974 0.0
H479 H 0.12611 0.83671 0.15078 0.0
H480 H 0.1363 0.85234 0.09901 0.0
H481 H 0.14846 0.83249 0.12236 0.0
H482 H 0.16 0.79315 0.92905 0.0
H483 H 0.1683 0.81853 0.86313 0.0
H484 H 0.13922 0.85535 0.97927 0.0
C485 C 0.11534 0.79842 0.11307 0.0
C486 C 0.11575 0.77941 0.11579 0.0
C487 C 0.12716 0.76973 0.07637 0.0
C488 C 0.13786 0.77886 0.03426 0.0
C489 C 0.13701 0.79764 0.03237 0.0
C490 C 0.12613 0.80731 0.07111 0.0
C491 C 0.12677 0.8273 0.05764 0.0
C492 C 0.10796 0.83452 0.04097 0.0
C493 C 0.1349 0.83783 0.1106 0.0
C494 C 0.13928 0.82734 0.00414 0.0
C495 C 0.14517 0.81014 0.99044 0.0
C496 C 0.1559 0.80674 0.94038 0.0
C497 C 0.16076 0.8213 0.9035 0.0
C498 C 0.15497 0.83904 0.91712 0.0
C499 C 0.14411 0.84199 0.9682 0.0
H500 H 0.69919 0.61706 0.74499 0.0
H501 H 0.677 0.57185 0.6458 0.0
H502 H 0.65661 0.5926 0.59192 0.0
H503 H 0.65812 0.64405 0.7545 0.0
H504 H 0.6699 0.66503 0.74299 0.0
H505 H 0.68117 0.64641 0.77901 0.0
H506 H 0.70673 0.64775 0.69972 0.0
H507 H 0.69567 0.66655 0.66448 0.0
H508 H 0.70108 0.64672 0.6212 0.0
H509 H 0.64111 0.61856 0.54098 0.0
H510 H 0.63144 0.64769 0.49788 0.0
H511 H 0.66447 0.67595 0.62856 0.0
C512 C 0.69024 0.61152 0.71151 0.0
C513 C 0.69002 0.59288 0.69861 0.0
C514 C 0.67742 0.5861 0.65641 0.0
C515 C 0.6658 0.59778 0.6255 0.0
C516 C 0.66684 0.61618 0.6377 0.0
C517 C 0.67868 0.62301 0.67991 0.0
C518 C 0.67801 0.64341 0.68181 0.0
C519 C 0.6714 0.65011 0.74323 0.0
C520 C 0.69646 0.65159 0.66582 0.0
C521 C 0.66423 0.64701 0.63315 0.0
C522 C 0.65782 0.63114 0.60859 0.0
C523 C 0.64584 0.63109 0.56039 0.0
C524 C 0.64045 0.6477 0.53614 0.0
C525 C 0.64712 0.66412 0.55998 0.0
C526 C 0.65893 0.66367 0.60976 0.0
H527 H 0.37816 0.65235 0.31068 0.0
H528 H 0.33023 0.65016 0.42147 0.0
H529 H 0.33664 0.68099 0.45886 0.0
H530 H 0.4061 0.67563 0.41327 0.0
H531 H 0.41714 0.68914 0.357 0.0
H532 H 0.40834 0.66726 0.33768 0.0
H533 H 0.38919 0.68156 0.25273 0.0
H534 H 0.39801 0.70348 0.27158 0.0
H535 H 0.374 0.6998 0.27014 0.0
H536 H 0.35008 0.71104 0.49051 0.0
H537 H 0.36781 0.73869 0.50719 0.0
H538 H 0.4055 0.72195 0.36931 0.0
C539 C 0.36895 0.65844 0.34248 0.0
C540 C 0.35362 0.64903 0.36289 0.0
C541 C 0.34185 0.65735 0.40446 0.0
C542 C 0.34546 0.67477 0.42623 0.0
C543 C 0.36078 0.68367 0.40537 0.0
C544 C 0.3722 0.67586 0.36382 0.0
C545 C 0.38773 0.68822 0.34839 0.0
C546 C 0.4059 0.67954 0.36511 0.0
C547 C 0.38719 0.69358 0.28176 0.0
C548 C 0.38348 0.7041 0.38854 0.0
C549 C 0.36795 0.70123 0.4213 0.0
C550 C 0.36196 0.71366 0.46378 0.0
C551 C 0.372 0.72953 0.47233 0.0
C552 C 0.38764 0.73298 0.43778 0.0
C553 C 0.39344 0.71993 0.39579 0.0
H554 H 0.30569 0.40322 0.49595 0.0
H555 H 0.29467 0.35782 0.61291 0.0
H556 H 0.30707 0.33709 0.53696 0.0
H557 H 0.29828 0.38062 0.35123 0.0
H558 H 0.31702 0.39201 0.31646 0.0
H559 H 0.30464 0.4029 0.37585 0.0
H560 H 0.33426 0.40726 0.43593 0.0
H561 H 0.34671 0.39647 0.37678 0.0
H562 H 0.34816 0.38793 0.45234 0.0
H563 H 0.32302 0.32155 0.45101 0.0
H564 H 0.3433 0.31302 0.36766 0.0
H565 H 0.34552 0.36887 0.31067 0.0
C566 C 0.30555 0.38887 0.50519 0.0
C567 C 0.2984 0.38209 0.55938 0.0
C568 C 0.29899 0.36328 0.57042 0.0
C569 C 0.30627 0.3514 0.52772 0.0
C570 C 0.31311 0.35857 0.47459 0.0
C571 C 0.31296 0.37691 0.46355 0.0
C572 C 0.32282 0.38147 0.40616 0.0
C573 C 0.30991 0.38973 0.35968 0.0
C574 C 0.33894 0.39401 0.41858 0.0
C575 C 0.32893 0.36287 0.38724 0.0
C576 C 0.32292 0.34977 0.42655 0.0
C577 C 0.32757 0.33166 0.41947 0.0
C578 C 0.33895 0.3269 0.37168 0.0
C579 C 0.34567 0.34025 0.33221 0.0
C580 C 0.34038 0.35838 0.33983 0.0
H581 H 0.69277 0.34223 0.35259 0.0
H582 H 0.67446 0.39722 0.38005 0.0
H583 H 0.64851 0.38589 0.43792 0.0
H584 H 0.64941 0.32192 0.33761 0.0
H585 H 0.65538 0.30168 0.37777 0.0
H586 H 0.67242 0.31408 0.33769 0.0
H587 H 0.69138 0.31653 0.43504 0.0
H588 H 0.67436 0.3042 0.47555 0.0
H589 H 0.68138 0.32614 0.50146 0.0
H590 H 0.62469 0.36881 0.49246 0.0
H591 H 0.60402 0.34687 0.53926 0.0
H592 H 0.63832 0.30297 0.4798 0.0
C593 C 0.68361 0.35192 0.37198 0.0
C594 C 0.68592 0.37065 0.36294 0.0
C595 C 0.673 0.38281 0.38648 0.0
C596 C 0.65827 0.37652 0.41969 0.0
C597 C 0.65664 0.35803 0.42899 0.0
C598 C 0.66891 0.34588 0.40577 0.0
C599 C 0.6639 0.32666 0.42201 0.0
C600 C 0.66005 0.31543 0.36539 0.0
C601 C 0.67863 0.31787 0.46082 0.0
C602 C 0.64688 0.32994 0.4579 0.0
C603 C 0.64295 0.34814 0.46125 0.0
C604 C 0.62767 0.35453 0.49051 0.0
C605 C 0.61601 0.34198 0.51685 0.0
C606 C 0.61977 0.32327 0.51416 0.0
C607 C 0.63542 0.31721 0.48433 0.0
H608 H 0.30421 0.24828 0.25441 0.0
H609 H 0.28036 0.28414 0.12235 0.0
H610 H 0.25994 0.2597 0.08992 0.0
H611 H 0.30397 0.209 0.1643 0.0
H612 H 0.29853 0.19386 0.2249 0.0
H613 H 0.31055 0.21446 0.24007 0.0
H614 H 0.28611 0.2238 0.31705 0.0
H615 H 0.27403 0.20319 0.30227 0.0
H616 H 0.26282 0.22462 0.29406 0.0
H617 H 0.24312 0.23089 0.0686 0.0
H618 H 0.23087 0.19998 0.0611 0.0
H619 H 0.26571 0.18313 0.2074 0.0
C620 C 0.29458 0.25107 0.21907 0.0
C621 C 0.29388 0.26814 0.19096 0.0
C622 C 0.28114 0.27119 0.14464 0.0
C623 C 0.26947 0.25739 0.1259 0.0
C624 C 0.27067 0.24067 0.15409 0.0
C625 C 0.28284 0.23748 0.19985 0.0
C626 C 0.28176 0.21817 0.22162 0.0
C627 C 0.29977 0.2083 0.21213 0.0
C628 C 0.27582 0.21741 0.28767 0.0
C629 C 0.26725 0.21092 0.18039 0.0
C630 C 0.26097 0.22411 0.14191 0.0
C631 C 0.24785 0.22048 0.09875 0.0
C632 C 0.24101 0.20287 0.09476 0.0
C633 C 0.24731 0.18913 0.13369 0.0
C634 C 0.26054 0.19332 0.17716 0.0
H635 H 0.77291 0.30038 0.26051 0.0
H636 H 0.74419 0.28577 0.42305 0.0
H637 H 0.76148 0.25729 0.42822 0.0
H638 H 0.77551 0.25546 0.19734 0.0
H639 H 0.79781 0.25889 0.16736 0.0
H640 H 0.78268 0.27774 0.17549 0.0
H641 H 0.80656 0.29451 0.23965 0.0
H642 H 0.82174 0.27572 0.23176 0.0
H643 H 0.81568 0.28368 0.30545 0.0
H644 H 0.78256 0.23077 0.41675 0.0
H645 H 0.80596 0.20845 0.39032 0.0
H646 H 0.8208 0.24078 0.2356 0.0
C647 C 0.77014 0.29117 0.29705 0.0
C648 C 0.75718 0.29529 0.34135 0.0
C649 C 0.75406 0.28289 0.38857 0.0
C650 C 0.76379 0.26667 0.39184 0.0
C651 C 0.77655 0.26309 0.34753 0.0
C652 C 0.77972 0.27499 0.30104 0.0
C653 C 0.79447 0.26822 0.25993 0.0
C654 C 0.78717 0.26488 0.19627 0.0
C655 C 0.81056 0.28131 0.2592 0.0
C656 C 0.79923 0.25071 0.29085 0.0
C657 C 0.7887 0.24793 0.34111 0.0
C658 C 0.79085 0.23278 0.37737 0.0
C659 C 0.80418 0.22018 0.36198 0.0
C660 C 0.81522 0.22286 0.31088 0.0
C661 C 0.81257 0.23831 0.27486 0.0
H662 H 0.72854 0.80752 0.22535 0.0
H663 H 0.68822 0.84981 0.23769 0.0
H664 H 0.66737 0.82852 0.28692 0.0
H665 H 0.69682 0.76988 0.19896 0.0
H666 H 0.70998 0.75448 0.24373 0.0
H667 H 0.72094 0.77254 0.20377 0.0
H668 H 0.73529 0.78369 0.30317 0.0
H669 H 0.72432 0.76577 0.34343 0.0
H670 H 0.72095 0.78886 0.36612 0.0
H671 H 0.65211 0.8035 0.34372 0.0
H672 H 0.64335 0.77639 0.40129 0.0
H673 H 0.69358 0.75053 0.35057 0.0
C674 C 0.71521 0.81224 0.23734 0.0
C675 C 0.71001 0.83034 0.22759 0.0
C676 C 0.6925 0.836 0.24455 0.0
C677 C 0.68054 0.824 0.27248 0.0
C678 C 0.68625 0.80636 0.28267 0.0
C679 C 0.70312 0.80045 0.26514 0.0
C680 C 0.70638 0.78114 0.2843 0.0
C681 C 0.70866 0.76878 0.22941 0.0
C682 C 0.7227 0.7798 0.32678 0.0
C683 C 0.68892 0.77727 0.31683 0.0
C684 C 0.67742 0.79192 0.31502 0.0
C685 C 0.6609 0.79185 0.34477 0.0
C686 C 0.65607 0.77642 0.3775 0.0
C687 C 0.66774 0.76132 0.38026 0.0
C688 C 0.68427 0.76177 0.34886 0.0
H689 H 0.25611 0.67289 0.3291 0.0
H690 H 0.27789 0.67802 0.14912 0.0
H691 H 0.25056 0.69447 0.11773 0.0
H692 H 0.21041 0.6654 0.28559 0.0
H693 H 0.20099 0.67824 0.34668 0.0
H694 H 0.22249 0.66729 0.35554 0.0
H695 H 0.23707 0.69784 0.38467 0.0
H696 H 0.2156 0.70888 0.376 0.0
H697 H 0.2349 0.71685 0.33474 0.0
H698 H 0.22059 0.70975 0.10521 0.0
H699 H 0.19018 0.72305 0.11279 0.0
H700 H 0.188 0.708 0.30097 0.0
C701 C 0.25518 0.67753 0.28315 0.0
C702 C 0.26916 0.67416 0.24158 0.0
C703 C 0.26738 0.68045 0.18182 0.0
C704 C 0.2519 0.68981 0.16352 0.0
C705 C 0.23835 0.69281 0.20552 0.0
C706 C 0.23984 0.68691 0.26412 0.0
C707 C 0.22323 0.69171 0.30018 0.0
C708 C 0.21372 0.67464 0.32334 0.0
C709 C 0.22799 0.70459 0.35195 0.0
C710 C 0.21211 0.70113 0.25258 0.0
C711 C 0.22109 0.70165 0.19833 0.0
C712 C 0.21345 0.70948 0.14751 0.0
C713 C 0.19616 0.71698 0.15227 0.0
C714 C 0.18669 0.71659 0.20747 0.0
C715 C 0.19487 0.70856 0.25817 0.0
H716 H 0.24843 0.82612 0.67219 0.0
H717 H 0.23841 0.78955 0.82062 0.0
H718 H 0.26444 0.77101 0.78928 0.0
H719 H 0.26197 0.7923 0.56473 0.0
H720 H 0.27906 0.80637 0.53145 0.0
H721 H 0.25942 0.81649 0.56492 0.0
H722 H 0.27988 0.83589 0.63376 0.0
H723 H 0.29957 0.82585 0.60049 0.0
H724 H 0.29642 0.82496 0.68061 0.0
H725 H 0.29196 0.75677 0.74241 0.0
H726 H 0.319 0.74815 0.68455 0.0
H727 H 0.31082 0.79419 0.56722 0.0
C728 C 0.25164 0.81418 0.69807 0.0
C729 C 0.24136 0.80928 0.74885 0.0
C730 C 0.24608 0.79357 0.78154 0.0
C731 C 0.26083 0.78294 0.76405 0.0
C732 C 0.27069 0.7882 0.7138 0.0
C733 C 0.26628 0.80345 0.68132 0.0
C734 C 0.27921 0.80635 0.62972 0.0
C735 C 0.26932 0.80531 0.56913 0.0
C736 C 0.28937 0.82433 0.63659 0.0
C737 C 0.29165 0.7904 0.6384 0.0
C738 C 0.28649 0.78005 0.68699 0.0
C739 C 0.2961 0.76475 0.70418 0.0
C740 C 0.31144 0.75996 0.67101 0.0
C741 C 0.31704 0.77048 0.62131 0.0
C742 C 0.30689 0.78583 0.60484 0.0
H743 H 0.22997 0.32223 0.81475 0.0
H744 H 0.24773 0.30445 0.63883 0.0
H745 H 0.23287 0.27505 0.65519 0.0
H746 H 0.23444 0.27859 0.89064 0.0
H747 H 0.21447 0.28204 0.93521 0.0
H748 H 0.22777 0.30111 0.91166 0.0
H749 H 0.19951 0.31546 0.86254 0.0
H750 H 0.18615 0.29649 0.886 0.0
H751 H 0.18688 0.30273 0.80788 0.0
H752 H 0.21455 0.2483 0.68832 0.0
H753 H 0.19337 0.22666 0.73421 0.0
H754 H 0.18752 0.26212 0.8881 0.0
C755 C 0.23094 0.31208 0.77992 0.0
C756 C 0.24006 0.31562 0.72557 0.0
C757 C 0.24084 0.30204 0.68088 0.0
C758 C 0.23249 0.28527 0.68984 0.0
C759 C 0.22349 0.2823 0.74376 0.0
C760 C 0.22266 0.29532 0.78804 0.0
C761 C 0.21128 0.28914 0.84045 0.0
C762 C 0.22267 0.28763 0.89788 0.0
C763 C 0.19499 0.3017 0.84972 0.0
C764 C 0.20549 0.27075 0.81818 0.0
C765 C 0.21284 0.26695 0.76264 0.0
C766 C 0.20884 0.25105 0.73203 0.0
C767 C 0.19679 0.23884 0.75849 0.0
C768 C 0.18879 0.24267 0.81479 0.0
C769 C 0.19349 0.25872 0.84524 0.0
H770 H 0.68575 0.24683 0.6149 0.0
H771 H 0.69557 0.29053 0.74053 0.0
H772 H 0.71921 0.27232 0.78986 0.0
H773 H 0.68989 0.21157 0.71836 0.0
H774 H 0.70091 0.19624 0.66741 0.0
H775 H 0.68596 0.2133 0.63872 0.0
H776 H 0.71138 0.22538 0.56986 0.0
H777 H 0.72641 0.20828 0.59815 0.0
H778 H 0.73273 0.23173 0.60229 0.0
H779 H 0.74017 0.24836 0.83018 0.0
H780 H 0.75717 0.22081 0.85684 0.0
H781 H 0.73353 0.19308 0.70424 0.0
C782 C 0.69304 0.25271 0.6522 0.0
C783 C 0.68881 0.27013 0.67379 0.0
C784 C 0.69859 0.27723 0.72307 0.0
C785 C 0.71205 0.267 0.75138 0.0
C786 C 0.71564 0.24974 0.72963 0.0
C787 C 0.70649 0.24271 0.68089 0.0
C788 C 0.71229 0.22353 0.66792 0.0
C789 C 0.69631 0.21039 0.67346 0.0
C790 C 0.72124 0.22216 0.60588 0.0
C791 C 0.72586 0.22072 0.71775 0.0
C792 C 0.72771 0.23602 0.75267 0.0
C793 C 0.73897 0.23637 0.80277 0.0
C794 C 0.74853 0.22064 0.81764 0.0
C795 C 0.74672 0.20479 0.78257 0.0
C796 C 0.73532 0.20498 0.73177 0.0
H797 H 0.76584 0.66452 0.72967 0.0
H798 H 0.72723 0.67576 0.87111 0.0
H799 H 0.74312 0.70421 0.89401 0.0
H800 H 0.80433 0.68039 0.80624 0.0
H801 H 0.81481 0.69003 0.74076 0.0
H802 H 0.79974 0.67115 0.73295 0.0
H803 H 0.78018 0.68939 0.65805 0.0
H804 H 0.79523 0.70833 0.66548 0.0
H805 H 0.7715 0.71114 0.67995 0.0
H806 H 0.7642 0.73062 0.90502 0.0
H807 H 0.78866 0.75321 0.90245 0.0
H808 H 0.81334 0.72464 0.75351 0.0
C809 C 0.7606 0.67303 0.76507 0.0
C810 C 0.74528 0.6679 0.79861 0.0
C811 C 0.73893 0.67941 0.84475 0.0
C812 C 0.74785 0.6956 0.85808 0.0
C813 C 0.76305 0.70014 0.82465 0.0
C814 C 0.76932 0.68924 0.77891 0.0
C815 C 0.78625 0.69691 0.75097 0.0
C816 C 0.80222 0.68384 0.7582 0.0
C817 C 0.78309 0.70173 0.68469 0.0
C818 C 0.78872 0.71367 0.78888 0.0
C819 C 0.77514 0.71536 0.83089 0.0
C820 C 0.77483 0.72952 0.87202 0.0
C821 C 0.7888 0.74226 0.87026 0.0
C822 C 0.80291 0.74072 0.82774 0.0
C823 C 0.80273 0.72627 0.78639 0.0
loop_
_geom_bond_atom_site_label_1
_geom_bond_atom_site_label_2
_geom_bond_distance
_geom_bond_site_symmetry_2
_ccdc_geom_bond_type
O0 Cd1 2.300 . S
O0 C7 1.275 . S
Cd1 O0 2.300 . S
Cd1 O9 2.381 . S
Cd1 O10 2.378 . S
O2 Cd3 2.385 . S
O2 C7 1.255 . S
Cd3 O2 2.385 . S
Cd3 O4 2.317 . S
O4 Cd3 2.317 . S
O4 C5 1.232 . S
C5 O4 1.232 . S
C5 O6 1.218 . S
O6 C5 1.218 . S
C7 O0 1.275 . S
C7 O2 1.255 . S
C8 O9 1.258 . S
C8 O10 1.256 . S
O9 Cd1 2.381 . S
O9 C8 1.258 . S
O10 Cd1 2.378 . S
O10 C8 1.256 . S
O11 Cd12 2.300 . S
O11 C18 1.275 . S
Cd12 O11 2.300 . S
Cd12 O20 2.381 . S
Cd12 O21 2.378 . S
O13 Cd14 2.385 . S
O13 C18 1.255 . S
Cd14 O13 2.385 . S
Cd14 O15 2.317 . S
O15 Cd14 2.317 . S
O15 C16 1.232 . S
C16 O15 1.232 . S
C16 O17 1.218 . S
O17 C16 1.218 . S
C18 O11 1.275 . S
C18 O13 1.255 . S
C19 O20 1.258 . S
C19 O21 1.256 . S
O20 Cd12 2.381 . S
O20 C19 1.258 . S
O21 Cd12 2.378 . S
O21 C19 1.256 . S
O22 Cd23 2.300 . S
O22 C29 1.275 . S
Cd23 O22 2.300 . S
Cd23 O31 2.381 . S
Cd23 O32 2.378 . S
O24 Cd25 2.385 . S
O24 C29 1.255 . S
Cd25 O24 2.385 . S
Cd25 O26 2.317 . S
O26 Cd25 2.317 . S
O26 C27 1.232 . S
C27 O26 1.232 . S
C27 O28 1.218 . S
O28 C27 1.218 . S
C29 O22 1.275 . S
C29 O24 1.255 . S
C30 O31 1.258 . S
C30 O32 1.256 . S
O31 Cd23 2.381 . S
O31 C30 1.258 . S
O32 Cd23 2.378 . S
O32 C30 1.256 . S
O33 Cd34 2.300 . S
O33 C40 1.275 . S
Cd34 O33 2.300 . S
Cd34 O42 2.381 . S
Cd34 O43 2.378 . S
O35 Cd36 2.385 . S
O35 C40 1.255 . S
Cd36 O35 2.385 . S
Cd36 O37 2.317 . S
O37 Cd36 2.317 . S
O37 C38 1.232 . S
C38 O37 1.232 . S
C38 O39 1.218 . S
O39 C38 1.218 . S
C40 O33 1.275 . S
C40 O35 1.255 . S
C41 O42 1.258 . S
C41 O43 1.256 . S
O42 Cd34 2.381 . S
O42 C41 1.258 . S
O43 Cd34 2.378 . S
O43 C41 1.256 . S
O44 Cd45 2.300 . S
O44 C51 1.275 . S
Cd45 O44 2.300 . S
Cd45 O53 2.381 . S
Cd45 O54 2.378 . S
O46 Cd47 2.385 . S
O46 C51 1.255 . S
Cd47 O46 2.385 . S
Cd47 O48 2.317 . S
O48 Cd47 2.317 . S
O48 C49 1.232 . S
C49 O48 1.232 . S
C49 O50 1.218 . S
O50 C49 1.218 . S
C51 O44 1.275 . S
C51 O46 1.255 . S
C52 O53 1.258 . S
C52 O54 1.256 . S
O53 Cd45 2.381 . S
O53 C52 1.258 . S
O54 Cd45 2.378 . S
O54 C52 1.256 . S
O55 Cd56 2.300 . S
O55 C62 1.275 . S
Cd56 O55 2.300 . S
Cd56 O64 2.381 . S
Cd56 O65 2.378 . S
O57 Cd58 2.385 . S
O57 C62 1.255 . S
Cd58 O57 2.385 . S
Cd58 O59 2.317 . S
O59 Cd58 2.317 . S
O59 C60 1.232 . S
C60 O59 1.232 . S
C60 O61 1.218 . S
O61 C60 1.218 . S
C62 O55 1.275 . S
C62 O57 1.255 . S
C63 O64 1.258 . S
C63 O65 1.256 . S
O64 Cd56 2.381 . S
O64 C63 1.258 . S
O65 Cd56 2.378 . S
O65 C63 1.256 . S
O66 Cd67 2.300 . S
O66 C73 1.275 . S
Cd67 O66 2.300 . S
Cd67 O75 2.381 . S
Cd67 O76 2.378 . S
O68 Cd69 2.385 . S
O68 C73 1.255 . S
Cd69 O68 2.385 . S
Cd69 O70 2.317 . S
O70 Cd69 2.317 . S
O70 C71 1.232 . S
C71 O70 1.232 . S
C71 O72 1.218 . S
O72 C71 1.218 . S
C73 O66 1.275 . S
C73 O68 1.255 . S
C74 O75 1.258 . S
C74 O76 1.256 . S
O75 Cd67 2.381 . S
O75 C74 1.258 . S
O76 Cd67 2.378 . S
O76 C74 1.256 . S
O77 Cd78 2.300 . S
O77 C84 1.275 . S
Cd78 O77 2.300 . S
Cd78 O86 2.381 . S
Cd78 O87 2.378 . S
O79 Cd80 2.385 . S
O79 C84 1.255 . S
Cd80 O79 2.385 . S
Cd80 O81 2.317 . S
O81 Cd80 2.317 . S
O81 C82 1.232 . S
C82 O81 1.232 . S
C82 O83 1.218 . S
O83 C82 1.218 . S
C84 O77 1.275 . S
C84 O79 1.255 . S
C85 O86 1.258 . S
C85 O87 1.256 . S
O86 Cd78 2.381 . S
O86 C85 1.258 . S
O87 Cd78 2.378 . S
O87 C85 1.256 . S
O88 Cd89 2.300 . S
O88 C95 1.275 . S
Cd89 O88 2.300 . S
Cd89 O97 2.381 . S
Cd89 O98 2.378 . S
O90 Cd91 2.385 . S
O90 C95 1.255 . S
Cd91 O90 2.385 . S
Cd91 O92 2.317 . S
O92 Cd91 2.317 . S
O92 C93 1.232 . S
C93 O92 1.232 . S
C93 O94 1.218 . S
O94 C93 1.218 . S
C95 O88 1.275 . S
C95 O90 1.255 . S
C96 O97 1.258 . S
C96 O98 1.256 . S
O97 Cd89 2.381 . S
O97 C96 1.258 . S
O98 Cd89 2.378 . S
O98 C96 1.256 . S
O99 Cd100 2.300 . S
O99 C106 1.275 . S
Cd100 O99 2.300 . S
Cd100 O108 2.381 . S
Cd100 O109 2.378 . S
O101 Cd102 2.385 . S
O101 C106 1.255 . S
Cd102 O101 2.385 . S
Cd102 O103 2.317 . S
O103 Cd102 2.317 . S
O103 C104 1.232 . S
C104 O103 1.232 . S
C104 O105 1.218 . S
O105 C104 1.218 . S
C106 O99 1.275 . S
C106 O101 1.255 . S
C107 O108 1.258 . S
C107 O109 1.256 . S
O108 Cd100 2.381 . S
O108 C107 1.258 . S
O109 Cd100 2.378 . S
O109 C107 1.256 . S
O110 Cd111 2.300 . S
O110 C117 1.275 . S
Cd111 O110 2.300 . S
Cd111 O119 2.381 . S
Cd111 O120 2.378 . S
O112 Cd113 2.385 . S
O112 C117 1.255 . S
Cd113 O112 2.385 . S
Cd113 O114 2.317 . S
O114 Cd113 2.317 . S
O114 C115 1.232 . S
C115 O114 1.232 . S
C115 O116 1.218 . S
O116 C115 1.218 . S
C117 O110 1.275 . S
C117 O112 1.255 . S
C118 O119 1.258 . S
C118 O120 1.256 . S
O119 Cd111 2.381 . S
O119 C118 1.258 . S
O120 Cd111 2.378 . S
O120 C118 1.256 . S
O121 Cd122 2.300 . S
O121 C128 1.275 . S
Cd122 O121 2.300 . S
Cd122 O130 2.381 . S
Cd122 O131 2.378 . S
O123 Cd124 2.385 . S
O123 C128 1.255 . S
Cd124 O123 2.385 . S
Cd124 O125 2.317 . S
O125 Cd124 2.317 . S
O125 C126 1.232 . S
C126 O125 1.232 . S
C126 O127 1.218 . S
O127 C126 1.218 . S
C128 O121 1.275 . S
C128 O123 1.255 . S
C129 O130 1.258 . S
C129 O131 1.256 . S
O130 Cd122 2.381 . S
O130 C129 1.258 . S
O131 Cd122 2.378 . S
O131 C129 1.256 . S
O132 Cd133 2.300 . S
O132 C139 1.275 . S
Cd133 O132 2.300 . S
Cd133 O141 2.381 . S
Cd133 O142 2.378 . S
O134 Cd135 2.385 . S
O134 C139 1.255 . S
Cd135 O134 2.385 . S
Cd135 O136 2.317 . S
O136 Cd135 2.317 . S
O136 C137 1.232 . S
C137 O136 1.232 . S
C137 O138 1.218 . S
O138 C137 1.218 . S
C139 O132 1.275 . S
C139 O134 1.255 . S
C140 O141 1.258 . S
C140 O142 1.256 . S
O141 Cd133 2.381 . S
O141 C140 1.258 . S
O142 Cd133 2.378 . S
O142 C140 1.256 . S
O143 Cd144 2.300 . S
O143 C150 1.275 . S
Cd144 O143 2.300 . S
Cd144 O152 2.381 . S
Cd144 O153 2.378 . S
O145 Cd146 2.385 . S
O145 C150 1.255 . S
Cd146 O145 2.385 . S
Cd146 O147 2.317 . S
O147 Cd146 2.317 . S
O147 C148 1.232 . S
C148 O147 1.232 . S
C148 O149 1.218 . S
O149 C148 1.218 . S
C150 O143 1.275 . S
C150 O145 1.255 . S
C151 O152 1.258 . S
C151 O153 1.256 . S
O152 Cd144 2.381 . S
O152 C151 1.258 . S
O153 Cd144 2.378 . S
O153 C151 1.256 . S
O154 Cd155 2.300 . S
O154 C161 1.275 . S
Cd155 O154 2.300 . S
Cd155 O163 2.381 . S
Cd155 O164 2.378 . S
O156 Cd157 2.385 . S
O156 C161 1.255 . S
Cd157 O156 2.385 . S
Cd157 O158 2.317 . S
O158 Cd157 2.317 . S
O158 C159 1.232 . S
C159 O158 1.232 . S
C159 O160 1.218 . S
O160 C159 1.218 . S
C161 O154 1.275 . S
C161 O156 1.255 . S
C162 O163 1.258 . S
C162 O164 1.256 . S
O163 Cd155 2.381 . S
O163 C162 1.258 . S
O164 Cd155 2.378 . S
O164 C162 1.256 . S
O165 Cd166 2.300 . S
O165 C172 1.275 . S
Cd166 O165 2.300 . S
Cd166 O174 2.381 . S
Cd166 O175 2.378 . S
O167 Cd168 2.385 . S
O167 C172 1.255 . S
Cd168 O167 2.385 . S
Cd168 O169 2.317 . S
O169 Cd168 2.317 . S
O169 C170 1.232 . S
C170 O169 1.232 . S
C170 O171 1.218 . S
O171 C170 1.218 . S
C172 O165 1.275 . S
C172 O167 1.255 . S
C173 O174 1.258 . S
C173 O175 1.256 . S
O174 Cd166 2.381 . S
O174 C173 1.258 . S
O175 Cd166 2.378 . S
O175 C173 1.256 . S
H176 C188 0.930 1_554 S
H177 C190 0.930 . S
H178 C191 0.930 . S
H179 C195 0.972 . S
H180 C195 0.944 1_545 S
H181 C195 0.961 . S
H182 C196 0.960 . S
H183 C196 0.961 . S
H184 C196 0.959 . S
H185 C199 0.929 . S
H186 C200 0.926 1_556 S
H187 C202 0.930 . S
C188 H176 0.930 1_556 S
C188 C189 1.399 . S
C188 C193 1.399 1_556 S
C189 C188 1.399 . S
C189 C190 1.376 . S
C190 H177 0.930 . S
C190 C189 1.376 . S
C190 C191 1.388 . S
C191 H178 0.930 . S
C191 C190 1.388 . S
C191 C192 1.390 . S
C192 C191 1.390 . S
C192 C193 1.394 1_556 S
C192 C198 1.465 1_565 S
C193 C188 1.399 1_554 S
C193 C192 1.394 1_554 S
C193 C194 1.516 . S
C194 C193 1.516 . S
C194 C195 1.502 . S
C194 C196 1.561 . S
C194 C197 1.526 1_565 S
C195 H179 0.972 . S
C195 H180 0.944 1_565 S
C195 H181 0.961 . S
C195 C194 1.502 . S
C196 H182 0.960 . S
C196 H183 0.961 . S
C196 H184 0.959 . S
C196 C194 1.561 . S
C197 C194 1.526 1_545 S
C197 C198 1.396 1_554 S
C197 C202 1.390 . S
C198 C192 1.465 1_545 S
C198 C197 1.396 1_556 S
C198 C199 1.399 . S
C199 H185 0.929 . S
C199 C198 1.399 . S
C199 C200 1.385 1_556 S
C200 H186 0.926 1_554 S
C200 C199 1.385 1_554 S
C200 C201 1.389 . S
C201 C200 1.389 . S
C201 C202 1.387 . S
C202 H187 0.930 . S
C202 C197 1.390 . S
C202 C201 1.387 . S
H203 C215 0.930 1_556 S
H204 C217 0.930 . S
H205 C218 0.930 . S
H206 C222 0.959 . S
H207 C222 0.959 . S
H208 C222 0.961 . S
H209 C223 0.960 . S
H210 C223 0.961 . S
H211 C223 0.959 . S
H212 C226 0.929 . S
H213 C227 0.931 . S
H214 C229 0.930 . S
C215 H203 0.930 1_554 S
C215 C216 1.399 . S
C215 C220 1.399 1_554 S
C216 C215 1.399 . S
C216 C217 1.376 . S
C217 H204 0.930 . S
C217 C216 1.376 . S
C217 C218 1.388 . S
C218 H205 0.930 . S
C218 C217 1.388 . S
C218 C219 1.390 . S
C219 C218 1.390 . S
C219 C220 1.394 1_554 S
C219 C225 1.465 1_655 S
C220 C215 1.399 1_556 S
C220 C219 1.394 1_556 S
C220 C221 1.516 . S
C221 C220 1.516 . S
C221 C222 1.502 . S
C221 C223 1.561 . S
C221 C224 1.526 1_655 S
C222 H206 0.959 . S
C222 H207 0.959 . S
C222 H208 0.961 . S
C222 C221 1.502 . S
C223 H209 0.960 . S
C223 H210 0.961 . S
C223 H211 0.959 . S
C223 C221 1.561 . S
C224 C221 1.526 1_455 S
C224 C225 1.396 1_556 S
C224 C229 1.390 . S
C225 C219 1.465 1_455 S
C225 C224 1.396 1_554 S
C225 C226 1.399 . S
C226 H212 0.929 . S
C226 C225 1.399 . S
C226 C227 1.385 . S
C227 H213 0.931 . S
C227 C226 1.385 . S
C227 C228 1.389 1_554 S
C228 C227 1.389 1_556 S
C228 C229 1.387 . S
C229 H214 0.930 . S
C229 C224 1.390 . S
C229 C228 1.387 . S
H230 C242 0.930 1_554 S
H231 C244 0.930 . S
H232 C245 0.930 . S
H233 C249 0.959 . S
H234 C249 0.959 . S
H235 C249 0.961 . S
H236 C250 0.960 . S
H237 C250 0.961 . S
H238 C250 0.959 . S
H239 C253 0.929 . S
H240 C254 0.928 1_556 S
H241 C256 0.930 . S
C242 H230 0.930 1_556 S
C242 C243 1.399 . S
C242 C247 1.399 1_556 S
C243 C242 1.399 . S
C243 C244 1.376 . S
C244 H231 0.930 . S
C244 C243 1.376 . S
C244 C245 1.388 . S
C245 H232 0.930 . S
C245 C244 1.388 . S
C245 C246 1.390 . S
C246 C245 1.390 . S
C246 C247 1.394 1_556 S
C246 C252 1.465 1_545 S
C247 C242 1.399 1_554 S
C247 C246 1.394 1_554 S
C247 C248 1.516 . S
C248 C247 1.516 . S
C248 C249 1.502 . S
C248 C250 1.561 . S
C248 C251 1.526 1_545 S
C249 H233 0.959 . S
C249 H234 0.959 . S
C249 H235 0.961 . S
C249 C248 1.502 . S
C250 H236 0.960 . S
C250 H237 0.961 . S
C250 H238 0.959 . S
C250 C248 1.561 . S
C251 C248 1.526 1_565 S
C251 C252 1.396 1_554 S
C251 C256 1.390 . S
C252 C246 1.465 1_565 S
C252 C251 1.396 1_556 S
C252 C253 1.399 . S
C253 H239 0.929 . S
C253 C252 1.399 . S
C253 C254 1.381 1_556 S
C254 H240 0.928 1_554 S
C254 C253 1.381 1_554 S
C254 C255 1.397 . S
C255 C254 1.397 . S
C255 C256 1.387 . S
C256 H241 0.930 . S
C256 C251 1.390 . S
C256 C255 1.387 . S
H257 C269 0.930 . S
H258 C271 0.930 . S
H259 C272 0.930 . S
H260 C276 0.959 . S
H261 C276 0.959 . S
H262 C276 0.961 . S
H263 C277 0.944 1_455 S
H264 C277 0.980 . S
H265 C277 0.952 1_456 S
H266 C280 0.929 . S
H267 C281 0.931 . S
H268 C283 0.930 . S
C269 H257 0.930 . S
C269 C270 1.399 . S
C269 C274 1.399 . S
C270 C269 1.399 . S
C270 C271 1.376 . S
C271 H258 0.930 . S
C271 C270 1.376 . S
C271 C272 1.388 1_554 S
C272 H259 0.930 . S
C272 C271 1.388 1_556 S
C272 C273 1.390 . S
C273 C272 1.390 . S
C273 C274 1.394 1_556 S
C273 C279 1.465 1_455 S
C274 C269 1.399 . S
C274 C273 1.394 1_554 S
C274 C275 1.516 1_455 S
C275 C274 1.516 1_655 S
C275 C276 1.502 . S
C275 C277 1.565 . S
C275 C278 1.526 1_554 S
C276 H260 0.959 . S
C276 H261 0.959 . S
C276 H262 0.961 . S
C276 C275 1.502 . S
C277 H263 0.944 1_655 S
C277 H264 0.980 . S
C277 H265 0.952 1_654 S
C277 C275 1.565 . S
C278 C275 1.526 1_556 S
C278 C279 1.396 . S
C278 C283 1.390 . S
C279 C273 1.465 1_655 S
C279 C278 1.396 . S
C279 C280 1.399 . S
C280 H266 0.929 . S
C280 C279 1.399 . S
C280 C281 1.385 . S
C281 H267 0.931 . S
C281 C280 1.385 . S
C281 C282 1.389 . S
C282 C281 1.389 . S
C282 C283 1.387 . S
C283 H268 0.930 . S
C283 C278 1.390 . S
C283 C282 1.387 . S
H284 C296 0.930 . S
H285 C298 0.930 . S
H286 C299 0.930 . S
H287 C303 0.959 . S
H288 C303 0.959 . S
H289 C303 0.961 . S
H290 C304 0.960 . S
H291 C304 0.961 . S
H292 C304 0.959 . S
H293 C307 0.929 . S
H294 C308 0.931 . S
H295 C310 0.930 . S
C296 H284 0.930 . S
C296 C297 1.399 . S
C296 C301 1.399 . S
C297 C296 1.399 . S
C297 C298 1.376 . S
C298 H285 0.930 . S
C298 C297 1.376 . S
C298 C299 1.388 . S
C299 H286 0.930 . S
C299 C298 1.388 . S
C299 C300 1.390 . S
C300 C299 1.390 . S
C300 C301 1.394 . S
C300 C306 1.465 . S
C301 C296 1.399 . S
C301 C300 1.394 . S
C301 C302 1.516 . S
C302 C301 1.516 . S
C302 C303 1.502 . S
C302 C304 1.561 . S
C302 C305 1.526 . S
C303 H287 0.959 . S
C303 H288 0.959 . S
C303 H289 0.961 . S
C303 C302 1.502 . S
C304 H290 0.960 . S
C304 H291 0.961 . S
C304 H292 0.959 . S
C304 C302 1.561 . S
C305 C302 1.526 . S
C305 C306 1.396 . S
C305 C310 1.390 . S
C306 C300 1.465 . S
C306 C305 1.396 . S
C306 C307 1.399 . S
C307 H293 0.929 . S
C307 C306 1.399 . S
C307 C308 1.385 . S
C308 H294 0.931 . S
C308 C307 1.385 . S
C308 C309 1.389 . S
C309 C308 1.389 . S
C309 C310 1.387 . S
C310 H295 0.930 . S
C310 C305 1.390 . S
C310 C309 1.387 . S
H311 C323 0.930 . S
H312 C325 0.930 . S
H313 C326 0.930 . S
H314 C330 0.959 . S
H315 C330 0.959 . S
H316 C330 0.961 . S
H317 C331 0.960 . S
H318 C331 0.961 . S
H319 C331 0.959 . S
H320 C334 0.929 . S
H321 C335 0.931 . S
H322 C337 0.930 . S
C323 H311 0.930 . S
C323 C324 1.399 . S
C323 C328 1.399 . S
C324 C323 1.399 . S
C324 C325 1.376 . S
C325 H312 0.930 . S
C325 C324 1.376 . S
C325 C326 1.388 . S
C326 H313 0.930 . S
C326 C325 1.388 . S
C326 C327 1.390 . S
C327 C326 1.390 . S
C327 C328 1.394 . S
C327 C333 1.465 . S
C328 C323 1.399 . S
C328 C327 1.394 . S
C328 C329 1.516 . S
C329 C328 1.516 . S
C329 C330 1.502 . S
C329 C331 1.561 . S
C329 C332 1.526 . S
C330 H314 0.959 . S
C330 H315 0.959 . S
C330 H316 0.961 . S
C330 C329 1.502 . S
C331 H317 0.960 . S
C331 H318 0.961 . S
C331 H319 0.959 . S
C331 C329 1.561 . S
C332 C329 1.526 . S
C332 C333 1.396 . S
C332 C337 1.390 . S
C333 C327 1.465 . S
C333 C332 1.396 . S
C333 C334 1.399 . S
C334 H320 0.929 . S
C334 C333 1.399 . S
C334 C335 1.385 . S
C335 H321 0.931 . S
C335 C334 1.385 . S
C335 C336 1.389 . S
C336 C335 1.389 . S
C336 C337 1.387 . S
C337 H322 0.930 . S
C337 C332 1.390 . S
C337 C336 1.387 . S
H338 C350 0.930 . S
H339 C352 0.930 . S
H340 C353 0.930 . S
H341 C357 0.959 . S
H342 C357 0.959 . S
H343 C357 0.961 . S
H344 C358 0.960 . S
H345 C358 0.961 . S
H346 C358 0.959 . S
H347 C361 0.929 . S
H348 C362 0.931 . S
H349 C364 0.930 . S
C350 H338 0.930 . S
C350 C351 1.399 . S
C350 C355 1.399 . S
C351 C350 1.399 . S
C351 C352 1.376 . S
C352 H339 0.930 . S
C352 C351 1.376 . S
C352 C353 1.388 . S
C353 H340 0.930 . S
C353 C352 1.388 . S
C353 C354 1.390 . S
C354 C353 1.390 . S
C354 C355 1.394 . S
C354 C360 1.465 . S
C355 C350 1.399 . S
C355 C354 1.394 . S
C355 C356 1.516 . S
C356 C355 1.516 . S
C356 C357 1.502 . S
C356 C358 1.561 . S
C356 C359 1.526 . S
C357 H341 0.959 . S
C357 H342 0.959 . S
C357 H343 0.961 . S
C357 C356 1.502 . S
C358 H344 0.960 . S
C358 H345 0.961 . S
C358 H346 0.959 . S
C358 C356 1.561 . S
C359 C356 1.526 . S
C359 C360 1.396 . S
C359 C364 1.390 . S
C360 C354 1.465 . S
C360 C359 1.396 . S
C360 C361 1.399 . S
C361 H347 0.929 . S
C361 C360 1.399 . S
C361 C362 1.385 . S
C362 H348 0.931 . S
C362 C361 1.385 . S
C362 C363 1.389 . S
C363 C362 1.389 . S
C363 C364 1.387 . S
C364 H349 0.930 . S
C364 C359 1.390 . S
C364 C363 1.387 . S
H365 C377 0.930 . S
H366 C379 0.930 . S
H367 C380 0.930 . S
H368 C384 0.959 . S
H369 C384 0.959 . S
H370 C384 0.961 . S
H371 C385 0.960 . S
H372 C385 0.961 . S
H373 C385 0.959 . S
H374 C388 0.929 . S
H375 C389 0.931 . S
H376 C391 0.930 . S
C377 H365 0.930 . S
C377 C378 1.399 . S
C377 C382 1.399 . S
C378 C377 1.399 . S
C378 C379 1.376 . S
C379 H366 0.930 . S
C379 C378 1.376 . S
C379 C380 1.388 . S
C380 H367 0.930 . S
C380 C379 1.388 . S
C380 C381 1.390 . S
C381 C380 1.390 . S
C381 C382 1.394 . S
C381 C387 1.465 . S
C382 C377 1.399 . S
C382 C381 1.394 . S
C382 C383 1.516 . S
C383 C382 1.516 . S
C383 C384 1.502 . S
C383 C385 1.561 . S
C383 C386 1.526 . S
C384 H368 0.959 . S
C384 H369 0.959 . S
C384 H370 0.961 . S
C384 C383 1.502 . S
C385 H371 0.960 . S
C385 H372 0.961 . S
C385 H373 0.959 . S
C385 C383 1.561 . S
C386 C383 1.526 . S
C386 C387 1.396 . S
C386 C391 1.390 . S
C387 C381 1.465 . S
C387 C386 1.396 . S
C387 C388 1.399 . S
C388 H374 0.929 . S
C388 C387 1.399 . S
C388 C389 1.385 . S
C389 H375 0.931 . S
C389 C388 1.385 . S
C389 C390 1.389 . S
C390 C389 1.389 . S
C390 C391 1.387 . S
C391 H376 0.930 . S
C391 C386 1.390 . S
C391 C390 1.387 . S
H392 C404 0.930 . S
H393 C406 0.930 . S
H394 C407 0.930 . S
H395 C411 0.959 . S
H396 C411 0.959 . S
H397 C411 0.961 . S
H398 C412 0.960 . S
H399 C412 0.961 . S
H400 C412 0.959 1_556 S
H401 C415 0.929 . S
H402 C416 0.931 . S
H403 C418 0.930 . S
C404 H392 0.930 . S
C404 C405 1.399 . S
C404 C409 1.399 . S
C405 C404 1.399 . S
C405 C406 1.376 . S
C406 H393 0.930 . S
C406 C405 1.376 . S
C406 C407 1.388 1_554 S
C407 H394 0.930 . S
C407 C406 1.388 1_556 S
C407 C408 1.390 . S
C408 C407 1.390 . S
C408 C409 1.394 1_556 S
C408 C414 1.465 . S
C409 C404 1.399 . S
C409 C408 1.394 1_554 S
C409 C410 1.516 . S
C410 C409 1.516 . S
C410 C411 1.502 . S
C410 C412 1.561 . S
C410 C413 1.526 1_554 S
C411 H395 0.959 . S
C411 H396 0.959 . S
C411 H397 0.961 . S
C411 C410 1.502 . S
C412 H398 0.960 . S
C412 H399 0.961 . S
C412 H400 0.959 1_554 S
C412 C410 1.561 . S
C413 C410 1.526 1_556 S
C413 C414 1.396 . S
C413 C418 1.390 . S
C414 C408 1.465 . S
C414 C413 1.396 . S
C414 C415 1.399 . S
C415 H401 0.929 . S
C415 C414 1.399 . S
C415 C416 1.385 . S
C416 H402 0.931 . S
C416 C415 1.385 . S
C416 C417 1.389 . S
C417 C416 1.389 . S
C417 C418 1.387 . S
C418 H403 0.930 . S
C418 C413 1.390 . S
C418 C417 1.387 . S
H419 C431 0.930 . S
H420 C433 0.930 . S
H421 C434 0.930 . S
H422 C438 0.959 . S
H423 C438 0.959 . S
H424 C438 0.961 . S
H425 C439 0.960 1_556 S
H426 C439 0.961 . S
H427 C439 0.959 1_556 S
H428 C442 0.929 . S
H429 C443 0.931 . S
H430 C445 0.930 . S
C431 H419 0.930 . S
C431 C432 1.399 . S
C431 C436 1.399 . S
C432 C431 1.399 . S
C432 C433 1.376 . S
C433 H420 0.930 . S
C433 C432 1.376 . S
C433 C434 1.388 . S
C434 H421 0.930 . S
C434 C433 1.388 . S
C434 C435 1.390 . S
C435 C434 1.390 . S
C435 C436 1.394 . S
C435 C441 1.465 . S
C436 C431 1.399 . S
C436 C435 1.394 . S
C436 C437 1.516 1_556 S
C437 C436 1.516 1_554 S
C437 C438 1.502 . S
C437 C439 1.561 . S
C437 C440 1.526 . S
C438 H422 0.959 . S
C438 H423 0.959 . S
C438 H424 0.961 . S
C438 C437 1.502 . S
C439 H425 0.960 1_554 S
C439 H426 0.961 . S
C439 H427 0.959 1_554 S
C439 C437 1.561 . S
C440 C437 1.526 . S
C440 C441 1.396 1_554 S
C440 C445 1.390 . S
C441 C435 1.465 . S
C441 C440 1.396 1_556 S
C441 C442 1.399 . S
C442 H428 0.929 . S
C442 C441 1.399 . S
C442 C443 1.385 1_556 S
C443 H429 0.931 . S
C443 C442 1.385 1_554 S
C443 C444 1.389 . S
C444 C443 1.389 . S
C444 C445 1.387 . S
C445 H430 0.930 . S
C445 C440 1.390 . S
C445 C444 1.387 . S
H446 C458 0.930 1_556 S
H447 C460 0.930 . S
H448 C461 0.930 . S
H449 C465 0.959 . S
H450 C465 0.959 . S
H451 C465 0.961 . S
H452 C466 0.960 . S
H453 C466 0.961 . S
H454 C466 0.959 . S
H455 C469 0.929 . S
H456 C470 0.931 1_554 S
H457 C472 0.930 . S
C458 H446 0.930 1_554 S
C458 C459 1.399 . S
C458 C463 1.399 1_554 S
C459 C458 1.399 . S
C459 C460 1.376 . S
C460 H447 0.930 . S
C460 C459 1.376 . S
C460 C461 1.388 . S
C461 H448 0.930 . S
C461 C460 1.388 . S
C461 C462 1.390 . S
C462 C461 1.390 . S
C462 C463 1.394 1_554 S
C462 C468 1.465 . S
C463 C458 1.399 1_556 S
C463 C462 1.394 1_556 S
C463 C464 1.516 . S
C464 C463 1.516 . S
C464 C465 1.502 . S
C464 C466 1.561 . S
C464 C467 1.526 . S
C465 H449 0.959 . S
C465 H450 0.959 . S
C465 H451 0.961 . S
C465 C464 1.502 . S
C466 H452 0.960 . S
C466 H453 0.961 . S
C466 H454 0.959 . S
C466 C464 1.561 . S
C467 C464 1.526 . S
C467 C468 1.396 1_556 S
C467 C472 1.390 . S
C468 C462 1.465 . S
C468 C467 1.396 1_554 S
C468 C469 1.399 . S
C469 H455 0.929 . S
C469 C468 1.399 . S
C469 C470 1.385 1_554 S
C470 H456 0.931 1_556 S
C470 C469 1.385 1_556 S
C470 C471 1.389 . S
C471 C470 1.389 . S
C471 C472 1.387 . S
C472 H457 0.930 . S
C472 C467 1.390 . S
C472 C471 1.387 . S
H473 C485 0.930 . S
H474 C487 0.930 1_556 S
H475 C488 0.930 . S
H476 C492 0.959 . S
H477 C492 0.959 . S
H478 C492 0.961 . S
H479 C493 0.960 . S
H480 C493 0.961 . S
H481 C493 0.959 . S
H482 C496 0.929 . S
H483 C497 0.931 . S
H484 C499 0.930 1_554 S
C485 H473 0.930 . S
C485 C486 1.399 . S
C485 C490 1.399 . S
C486 C485 1.399 . S
C486 C487 1.376 . S
C487 H474 0.930 1_554 S
C487 C486 1.376 . S
C487 C488 1.388 1_554 S
C488 H475 0.930 . S
C488 C487 1.388 1_556 S
C488 C489 1.390 . S
C489 C488 1.390 . S
C489 C490 1.394 1_556 S
C489 C495 1.465 . S
C490 C485 1.399 . S
C490 C489 1.394 1_554 S
C490 C491 1.516 . S
C491 C490 1.516 . S
C491 C492 1.502 . S
C491 C493 1.561 . S
C491 C494 1.526 . S
C492 H476 0.959 . S
C492 H477 0.959 . S
C492 H478 0.961 . S
C492 C491 1.502 . S
C493 H479 0.960 . S
C493 H480 0.961 . S
C493 H481 0.959 . S
C493 C491 1.561 . S
C494 C491 1.526 . S
C494 C495 1.396 1_554 S
C494 C499 1.390 1_554 S
C495 C489 1.465 . S
C495 C494 1.396 1_556 S
C495 C496 1.399 . S
C496 H482 0.929 . S
C496 C495 1.399 . S
C496 C497 1.385 . S
C497 H483 0.931 . S
C497 C496 1.385 . S
C497 C498 1.389 . S
C498 C497 1.389 . S
C498 C499 1.387 . S
C499 H484 0.930 1_556 S
C499 C494 1.390 1_556 S
C499 C498 1.387 . S
H500 C512 0.930 . S
H501 C514 0.930 . S
H502 C515 0.930 . S
H503 C519 0.959 . S
H504 C519 0.959 . S
H505 C519 0.961 . S
H506 C520 0.960 . S
H507 C520 0.961 . S
H508 C520 0.959 . S
H509 C523 0.929 . S
H510 C524 0.931 . S
H511 C526 0.930 . S
C512 H500 0.930 . S
C512 C513 1.399 . S
C512 C517 1.399 . S
C513 C512 1.399 . S
C513 C514 1.376 . S
C514 H501 0.930 . S
C514 C513 1.376 . S
C514 C515 1.388 . S
C515 H502 0.930 . S
C515 C514 1.388 . S
C515 C516 1.390 . S
C516 C515 1.390 . S
C516 C517 1.394 . S
C516 C522 1.465 . S
C517 C512 1.399 . S
C517 C516 1.394 . S
C517 C518 1.516 . S
C518 C517 1.516 . S
C518 C519 1.502 . S
C518 C520 1.561 . S
C518 C521 1.526 . S
C519 H503 0.959 . S
C519 H504 0.959 . S
C519 H505 0.961 . S
C519 C518 1.502 . S
C520 H506 0.960 . S
C520 H507 0.961 . S
C520 H508 0.959 . S
C520 C518 1.561 . S
C521 C518 1.526 . S
C521 C522 1.396 . S
C521 C526 1.390 . S
C522 C516 1.465 . S
C522 C521 1.396 . S
C522 C523 1.399 . S
C523 H509 0.929 . S
C523 C522 1.399 . S
C523 C524 1.385 . S
C524 H510 0.931 . S
C524 C523 1.385 . S
C524 C525 1.389 . S
C525 C524 1.389 . S
C525 C526 1.387 . S
C526 H511 0.930 . S
C526 C521 1.390 . S
C526 C525 1.387 . S
H527 C539 0.930 . S
H528 C541 0.930 . S
H529 C542 0.930 . S
H530 C546 0.959 . S
H531 C546 0.959 . S
H532 C546 0.961 . S
H533 C547 0.960 . S
H534 C547 0.961 . S
H535 C547 0.959 . S
H536 C550 0.929 . S
H537 C551 0.931 . S
H538 C553 0.930 . S
C539 H527 0.930 . S
C539 C540 1.399 . S
C539 C544 1.399 . S
C540 C539 1.399 . S
C540 C541 1.376 . S
C541 H528 0.930 . S
C541 C540 1.376 . S
C541 C542 1.388 . S
C542 H529 0.930 . S
C542 C541 1.388 . S
C542 C543 1.390 . S
C543 C542 1.390 . S
C543 C544 1.394 . S
C543 C549 1.465 . S
C544 C539 1.399 . S
C544 C543 1.394 . S
C544 C545 1.516 . S
C545 C544 1.516 . S
C545 C546 1.502 . S
C545 C547 1.561 . S
C545 C548 1.526 . S
C546 H530 0.959 . S
C546 H531 0.959 . S
C546 H532 0.961 . S
C546 C545 1.502 . S
C547 H533 0.960 . S
C547 H534 0.961 . S
C547 H535 0.959 . S
C547 C545 1.561 . S
C548 C545 1.526 . S
C548 C549 1.396 . S
C548 C553 1.390 . S
C549 C543 1.465 . S
C549 C548 1.396 . S
C549 C550 1.399 . S
C550 H536 0.929 . S
C550 C549 1.399 . S
C550 C551 1.385 . S
C551 H537 0.931 . S
C551 C550 1.385 . S
C551 C552 1.389 . S
C552 C551 1.389 . S
C552 C553 1.387 . S
C553 H538 0.930 . S
C553 C548 1.390 . S
C553 C552 1.387 . S
H554 C566 0.930 . S
H555 C568 0.930 . S
H556 C569 0.930 . S
H557 C573 0.959 . S
H558 C573 0.959 . S
H559 C573 0.961 . S
H560 C574 0.960 . S
H561 C574 0.961 . S
H562 C574 0.959 . S
H563 C577 0.929 . S
H564 C578 0.931 . S
H565 C580 0.930 . S
C566 H554 0.930 . S
C566 C567 1.399 . S
C566 C571 1.399 . S
C567 C566 1.399 . S
C567 C568 1.376 . S
C568 H555 0.930 . S
C568 C567 1.376 . S
C568 C569 1.388 . S
C569 H556 0.930 . S
C569 C568 1.388 . S
C569 C570 1.390 . S
C570 C569 1.390 . S
C570 C571 1.394 . S
C570 C576 1.465 . S
C571 C566 1.399 . S
C571 C570 1.394 . S
C571 C572 1.516 . S
C572 C571 1.516 . S
C572 C573 1.502 . S
C572 C574 1.561 . S
C572 C575 1.526 . S
C573 H557 0.959 . S
C573 H558 0.959 . S
C573 H559 0.961 . S
C573 C572 1.502 . S
C574 H560 0.960 . S
C574 H561 0.961 . S
C574 H562 0.959 . S
C574 C572 1.561 . S
C575 C572 1.526 . S
C575 C576 1.396 . S
C575 C580 1.390 . S
C576 C570 1.465 . S
C576 C575 1.396 . S
C576 C577 1.399 . S
C577 H563 0.929 . S
C577 C576 1.399 . S
C577 C578 1.385 . S
C578 H564 0.931 . S
C578 C577 1.385 . S
C578 C579 1.389 . S
C579 C578 1.389 . S
C579 C580 1.387 . S
C580 H565 0.930 . S
C580 C575 1.390 . S
C580 C579 1.387 . S
H581 C593 0.930 . S
H582 C595 0.930 . S
H583 C596 0.930 . S
H584 C600 0.959 . S
H585 C600 0.959 . S
H586 C600 0.961 . S
H587 C601 0.960 . S
H588 C601 0.961 . S
H589 C601 0.959 . S
H590 C604 0.929 . S
H591 C605 0.931 . S
H592 C607 0.930 . S
C593 H581 0.930 . S
C593 C594 1.399 . S
C593 C598 1.399 . S
C594 C593 1.399 . S
C594 C595 1.376 . S
C595 H582 0.930 . S
C595 C594 1.376 . S
C595 C596 1.388 . S
C596 H583 0.930 . S
C596 C595 1.388 . S
C596 C597 1.390 . S
C597 C596 1.390 . S
C597 C598 1.394 . S
C597 C603 1.465 . S
C598 C593 1.399 . S
C598 C597 1.394 . S
C598 C599 1.516 . S
C599 C598 1.516 . S
C599 C600 1.502 . S
C599 C601 1.561 . S
C599 C602 1.526 . S
C600 H584 0.959 . S
C600 H585 0.959 . S
C600 H586 0.961 . S
C600 C599 1.502 . S
C601 H587 0.960 . S
C601 H588 0.961 . S
C601 H589 0.959 . S
C601 C599 1.561 . S
C602 C599 1.526 . S
C602 C603 1.396 . S
C602 C607 1.390 . S
C603 C597 1.465 . S
C603 C602 1.396 . S
C603 C604 1.399 . S
C604 H590 0.929 . S
C604 C603 1.399 . S
C604 C605 1.385 . S
C605 H591 0.931 . S
C605 C604 1.385 . S
C605 C606 1.389 . S
C606 C605 1.389 . S
C606 C607 1.387 . S
C607 H592 0.930 . S
C607 C602 1.390 . S
C607 C606 1.387 . S
H608 C620 0.930 . S
H609 C622 0.930 . S
H610 C623 0.930 . S
H611 C627 0.959 . S
H612 C627 0.959 . S
H613 C627 0.961 . S
H614 C628 0.960 . S
H615 C628 0.961 . S
H616 C628 0.959 . S
H617 C631 0.929 . S
H618 C632 0.931 . S
H619 C634 0.930 . S
C620 H608 0.930 . S
C620 C621 1.399 . S
C620 C625 1.399 . S
C621 C620 1.399 . S
C621 C622 1.376 . S
C622 H609 0.930 . S
C622 C621 1.376 . S
C622 C623 1.388 . S
C623 H610 0.930 . S
C623 C622 1.388 . S
C623 C624 1.390 . S
C624 C623 1.390 . S
C624 C625 1.394 . S
C624 C630 1.465 . S
C625 C620 1.399 . S
C625 C624 1.394 . S
C625 C626 1.516 . S
C626 C625 1.516 . S
C626 C627 1.502 . S
C626 C628 1.561 . S
C626 C629 1.526 . S
C627 H611 0.959 . S
C627 H612 0.959 . S
C627 H613 0.961 . S
C627 C626 1.502 . S
C628 H614 0.960 . S
C628 H615 0.961 . S
C628 H616 0.959 . S
C628 C626 1.561 . S
C629 C626 1.526 . S
C629 C630 1.396 . S
C629 C634 1.390 . S
C630 C624 1.465 . S
C630 C629 1.396 . S
C630 C631 1.399 . S
C631 H617 0.929 . S
C631 C630 1.399 . S
C631 C632 1.385 . S
C632 H618 0.931 . S
C632 C631 1.385 . S
C632 C633 1.389 . S
C633 C632 1.389 . S
C633 C634 1.387 . S
C634 H619 0.930 . S
C634 C629 1.390 . S
C634 C633 1.387 . S
H635 C647 0.930 . S
H636 C649 0.930 . S
H637 C650 0.930 . S
H638 C654 0.959 . S
H639 C654 0.959 . S
H640 C654 0.961 . S
H641 C655 0.960 . S
H642 C655 0.961 . S
H643 C655 0.959 . S
H644 C658 0.929 . S
H645 C659 0.931 . S
H646 C661 0.930 . S
C647 H635 0.930 . S
C647 C648 1.399 . S
C647 C652 1.399 . S
C648 C647 1.399 . S
C648 C649 1.376 . S
C649 H636 0.930 . S
C649 C648 1.376 . S
C649 C650 1.388 . S
C650 H637 0.930 . S
C650 C649 1.388 . S
C650 C651 1.390 . S
C651 C650 1.390 . S
C651 C652 1.394 . S
C651 C657 1.465 . S
C652 C647 1.399 . S
C652 C651 1.394 . S
C652 C653 1.516 . S
C653 C652 1.516 . S
C653 C654 1.502 . S
C653 C655 1.561 . S
C653 C656 1.526 . S
C654 H638 0.959 . S
C654 H639 0.959 . S
C654 H640 0.961 . S
C654 C653 1.502 . S
C655 H641 0.960 . S
C655 H642 0.961 . S
C655 H643 0.959 . S
C655 C653 1.561 . S
C656 C653 1.526 . S
C656 C657 1.396 . S
C656 C661 1.390 . S
C657 C651 1.465 . S
C657 C656 1.396 . S
C657 C658 1.399 . S
C658 H644 0.929 . S
C658 C657 1.399 . S
C658 C659 1.385 . S
C659 H645 0.931 . S
C659 C658 1.385 . S
C659 C660 1.389 . S
C660 C659 1.389 . S
C660 C661 1.387 . S
C661 H646 0.930 . S
C661 C656 1.390 . S
C661 C660 1.387 . S
H662 C674 0.930 . S
H663 C676 0.930 . S
H664 C677 0.930 . S
H665 C681 0.959 . S
H666 C681 0.959 . S
H667 C681 0.961 . S
H668 C682 0.960 . S
H669 C682 0.961 . S
H670 C682 0.959 . S
H671 C685 0.929 . S
H672 C686 0.931 . S
H673 C688 0.930 . S
C674 H662 0.930 . S
C674 C675 1.399 . S
C674 C679 1.399 . S
C675 C674 1.399 . S
C675 C676 1.376 . S
C676 H663 0.930 . S
C676 C675 1.376 . S
C676 C677 1.388 . S
C677 H664 0.930 . S
C677 C676 1.388 . S
C677 C678 1.390 . S
C678 C677 1.390 . S
C678 C679 1.394 . S
C678 C684 1.465 . S
C679 C674 1.399 . S
C679 C678 1.394 . S
C679 C680 1.516 . S
C680 C679 1.516 . S
C680 C681 1.502 . S
C680 C682 1.561 . S
C680 C683 1.526 . S
C681 H665 0.959 . S
C681 H666 0.959 . S
C681 H667 0.961 . S
C681 C680 1.502 . S
C682 H668 0.960 . S
C682 H669 0.961 . S
C682 H670 0.959 . S
C682 C680 1.561 . S
C683 C680 1.526 . S
C683 C684 1.396 . S
C683 C688 1.390 . S
C684 C678 1.465 . S
C684 C683 1.396 . S
C684 C685 1.399 . S
C685 H671 0.929 . S
C685 C684 1.399 . S
C685 C686 1.385 . S
C686 H672 0.931 . S
C686 C685 1.385 . S
C686 C687 1.389 . S
C687 C686 1.389 . S
C687 C688 1.387 . S
C688 H673 0.930 . S
C688 C683 1.390 . S
C688 C687 1.387 . S
H689 C701 0.930 . S
H690 C703 0.930 . S
H691 C704 0.930 . S
H692 C708 0.959 . S
H693 C708 0.959 . S
H694 C708 0.961 . S
H695 C709 0.960 . S
H696 C709 0.961 . S
H697 C709 0.959 . S
H698 C712 0.929 . S
H699 C713 0.931 . S
H700 C715 0.930 . S
C701 H689 0.930 . S
C701 C702 1.399 . S
C701 C706 1.399 . S
C702 C701 1.399 . S
C702 C703 1.376 . S
C703 H690 0.930 . S
C703 C702 1.376 . S
C703 C704 1.388 . S
C704 H691 0.930 . S
C704 C703 1.388 . S
C704 C705 1.390 . S
C705 C704 1.390 . S
C705 C706 1.394 . S
C705 C711 1.465 . S
C706 C701 1.399 . S
C706 C705 1.394 . S
C706 C707 1.516 . S
C707 C706 1.516 . S
C707 C708 1.502 . S
C707 C709 1.561 . S
C707 C710 1.526 . S
C708 H692 0.959 . S
C708 H693 0.959 . S
C708 H694 0.961 . S
C708 C707 1.502 . S
C709 H695 0.960 . S
C709 H696 0.961 . S
C709 H697 0.959 . S
C709 C707 1.561 . S
C710 C707 1.526 . S
C710 C711 1.396 . S
C710 C715 1.390 . S
C711 C705 1.465 . S
C711 C710 1.396 . S
C711 C712 1.399 . S
C712 H698 0.929 . S
C712 C711 1.399 . S
C712 C713 1.385 . S
C713 H699 0.931 . S
C713 C712 1.385 . S
C713 C714 1.389 . S
C714 C713 1.389 . S
C714 C715 1.387 . S
C715 H700 0.930 . S
C715 C710 1.390 . S
C715 C714 1.387 . S
H716 C728 0.930 . S
H717 C730 0.930 . S
H718 C731 0.930 . S
H719 C735 0.959 . S
H720 C735 0.959 . S
H721 C735 0.961 . S
H722 C736 0.960 . S
H723 C736 0.961 . S
H724 C736 0.959 . S
H725 C739 0.929 . S
H726 C740 0.931 . S
H727 C742 0.930 . S
C728 H716 0.930 . S
C728 C729 1.399 . S
C728 C733 1.399 . S
C729 C728 1.399 . S
C729 C730 1.376 . S
C730 H717 0.930 . S
C730 C729 1.376 . S
C730 C731 1.388 . S
C731 H718 0.930 . S
C731 C730 1.388 . S
C731 C732 1.390 . S
C732 C731 1.390 . S
C732 C733 1.394 . S
C732 C738 1.465 . S
C733 C728 1.399 . S
C733 C732 1.394 . S
C733 C734 1.516 . S
C734 C733 1.516 . S
C734 C735 1.502 . S
C734 C736 1.561 . S
C734 C737 1.526 . S
C735 H719 0.959 . S
C735 H720 0.959 . S
C735 H721 0.961 . S
C735 C734 1.502 . S
C736 H722 0.960 . S
C736 H723 0.961 . S
C736 H724 0.959 . S
C736 C734 1.561 . S
C737 C734 1.526 . S
C737 C738 1.396 . S
C737 C742 1.390 . S
C738 C732 1.465 . S
C738 C737 1.396 . S
C738 C739 1.399 . S
C739 H725 0.929 . S
C739 C738 1.399 . S
C739 C740 1.385 . S
C740 H726 0.931 . S
C740 C739 1.385 . S
C740 C741 1.389 . S
C741 C740 1.389 . S
C741 C742 1.387 . S
C742 H727 0.930 . S
C742 C737 1.390 . S
C742 C741 1.387 . S
H743 C755 0.930 . S
H744 C757 0.930 . S
H745 C758 0.930 . S
H746 C762 0.959 . S
H747 C762 0.959 . S
H748 C762 0.961 . S
H749 C763 0.960 . S
H750 C763 0.961 . S
H751 C763 0.959 . S
H752 C766 0.929 . S
H753 C767 0.931 . S
H754 C769 0.930 . S
C755 H743 0.930 . S
C755 C756 1.399 . S
C755 C760 1.399 . S
C756 C755 1.399 . S
C756 C757 1.376 . S
C757 H744 0.930 . S
C757 C756 1.376 . S
C757 C758 1.388 . S
C758 H745 0.930 . S
C758 C757 1.388 . S
C758 C759 1.390 . S
C759 C758 1.390 . S
C759 C760 1.394 . S
C759 C765 1.465 . S
C760 C755 1.399 . S
C760 C759 1.394 . S
C760 C761 1.516 . S
C761 C760 1.516 . S
C761 C762 1.502 . S
C761 C763 1.561 . S
C761 C764 1.526 . S
C762 H746 0.959 . S
C762 H747 0.959 . S
C762 H748 0.961 . S
C762 C761 1.502 . S
C763 H749 0.960 . S
C763 H750 0.961 . S
C763 H751 0.959 . S
C763 C761 1.561 . S
C764 C761 1.526 . S
C764 C765 1.396 . S
C764 C769 1.390 . S
C765 C759 1.465 . S
C765 C764 1.396 . S
C765 C766 1.399 . S
C766 H752 0.929 . S
C766 C765 1.399 . S
C766 C767 1.385 . S
C767 H753 0.931 . S
C767 C766 1.385 . S
C767 C768 1.389 . S
C768 C767 1.389 . S
C768 C769 1.387 . S
C769 H754 0.930 . S
C769 C764 1.390 . S
C769 C768 1.387 . S
H770 C782 0.930 . S
H771 C784 0.930 . S
H772 C785 0.930 . S
H773 C789 0.959 . S
H774 C789 0.959 . S
H775 C789 0.961 . S
H776 C790 0.960 . S
H777 C790 0.961 . S
H778 C790 0.959 . S
H779 C793 0.929 . S
H780 C794 0.931 . S
H781 C796 0.930 . S
C782 H770 0.930 . S
C782 C783 1.399 . S
C782 C787 1.399 . S
C783 C782 1.399 . S
C783 C784 1.376 . S
C784 H771 0.930 . S
C784 C783 1.376 . S
C784 C785 1.388 . S
C785 H772 0.930 . S
C785 C784 1.388 . S
C785 C786 1.390 . S
C786 C785 1.390 . S
C786 C787 1.394 . S
C786 C792 1.465 . S
C787 C782 1.399 . S
C787 C786 1.394 . S
C787 C788 1.516 . S
C788 C787 1.516 . S
C788 C789 1.502 . S
C788 C790 1.561 . S
C788 C791 1.526 . S
C789 H773 0.959 . S
C789 H774 0.959 . S
C789 H775 0.961 . S
C789 C788 1.502 . S
C790 H776 0.960 . S
C790 H777 0.961 . S
C790 H778 0.959 . S
C790 C788 1.561 . S
C791 C788 1.526 . S
C791 C792 1.396 . S
C791 C796 1.390 . S
C792 C786 1.465 . S
C792 C791 1.396 . S
C792 C793 1.399 . S
C793 H779 0.929 . S
C793 C792 1.399 . S
C793 C794 1.385 . S
C794 H780 0.931 . S
C794 C793 1.385 . S
C794 C795 1.389 . S
C795 C794 1.389 . S
C795 C796 1.387 . S
C796 H781 0.930 . S
C796 C791 1.390 . S
C796 C795 1.387 . S
H797 C809 0.930 . S
H798 C811 0.930 . S
H799 C812 0.930 . S
H800 C816 0.959 . S
H801 C816 0.959 . S
H802 C816 0.961 . S
H803 C817 0.960 . S
H804 C817 0.961 . S
H805 C817 0.959 . S
H806 C820 0.929 . S
H807 C821 0.931 . S
H808 C823 0.930 . S
C809 H797 0.930 . S
C809 C810 1.399 . S
C809 C814 1.399 . S
C810 C809 1.399 . S
C810 C811 1.376 . S
C811 H798 0.930 . S
C811 C810 1.376 . S
C811 C812 1.388 . S
C812 H799 0.930 . S
C812 C811 1.388 . S
C812 C813 1.390 . S
C813 C812 1.390 . S
C813 C814 1.394 . S
C813 C819 1.465 . S
C814 C809 1.399 . S
C814 C813 1.394 . S
C814 C815 1.516 . S
C815 C814 1.516 . S
C815 C816 1.502 . S
C815 C817 1.561 . S
C815 C818 1.526 . S
C816 H800 0.959 . S
C816 H801 0.959 . S
C816 H802 0.961 . S
C816 C815 1.502 . S
C817 H803 0.960 . S
C817 H804 0.961 . S
C817 H805 0.959 . S
C817 C815 1.561 . S
C818 C815 1.526 . S
C818 C819 1.396 . S
C818 C823 1.390 . S
C819 C813 1.465 . S
C819 C818 1.396 . S
C819 C820 1.399 . S
C820 H806 0.929 . S
C820 C819 1.399 . S
C820 C821 1.385 . S
C821 H807 0.931 . S
C821 C820 1.385 . S
C821 C822 1.389 . S
C822 C821 1.389 . S
C822 C823 1.387 . S
C823 H808 0.930 . S
C823 C818 1.390 . S
C823 C822 1.387 . S
C189 C52 1.554 . S
C201 C8 1.529 . S
C216 C19 1.567 . S
C228 C63 1.523 . S
C243 C74 1.561 . S
C255 C30 1.525 . S
C270 C41 1.523 . S
C282 C85 1.564 . S
C297 C96 1.538 . S
C309 C140 1.576 . S
C324 C151 1.550 . S
C336 C107 1.569 . S
C351 C162 1.549 . S
C363 C118 1.570 . S
C378 C129 1.571 . S
C390 C173 1.547 . S
C405 C7 1.412 . S
C417 C62 1.490 . S
C432 C73 1.498 . S
C444 C18 1.431 . S
C459 C29 1.493 . S
C471 C84 1.412 . S
C486 C40 1.426 . S
C498 C51 1.501 . S
C513 C95 1.422 . S
C525 C150 1.470 . S
C540 C161 1.416 . S
C552 C106 1.501 . S
C567 C117 1.501 . S
C579 C172 1.416 . S
C594 C139 1.424 . S
C606 C128 1.469 . S
C621 C170 1.360 . S
C633 C5 1.222 . S
C648 C137 1.232 . S
C660 C16 1.378 . S
C675 C27 1.330 . S
C687 C148 1.239 . S
C702 C159 1.356 . S
C714 C38 1.224 . S
C729 C49 1.234 . S
C741 C104 1.377 . S
C756 C115 1.246 . S
C768 C60 1.374 . S
C783 C126 1.357 . S
C795 C71 1.223 . S
C810 C93 1.372 . S
C822 C82 1.221 . S
