# Generated by pormake.
# Topology zfv, (5)-cn, num edge types: 1
# Building blocks:
#     Node 0, Type 0, BuildingBlock: BEQFEK_clean_sbu_0, # of connection points: 5
#     Node 1, Type 0, BuildingBlock: BEQFEK_clean_sbu_0, # of connection points: 5
#     Node 2, Type 0, BuildingBlock: BEQFEK_clean_sbu_0, # of connection points: 5
#     Node 3, Type 0, BuildingBlock: BEQFEK_clean_sbu_0, # of connection points: 5
#     Node 4, Type 0, BuildingBlock: BEQFEK_clean_sbu_0, # of connection points: 5
#     Node 5, Type 0, BuildingBlock: BEQFEK_clean_sbu_0, # of connection points: 5
#     Node 6, Type 0, BuildingBlock: BEQFEK_clean_sbu_0, # of connection points: 5
#     Node 7, Type 0, BuildingBlock: BEQFEK_clean_sbu_0, # of connection points: 5
#     Node 8, Type 0, BuildingBlock: BEQFEK_clean_sbu_0, # of connection points: 5
#     Node 9, Type 0, BuildingBlock: BEQFEK_clean_sbu_0, # of connection points: 5
#     Node 10, Type 0, BuildingBlock: BEQFEK_clean_sbu_0, # of connection points: 5
#     Node 11, Type 0, BuildingBlock: BEQFEK_clean_sbu_0, # of connection points: 5
#     Node 12, Type 0, BuildingBlock: BEQFEK_clean_sbu_0, # of connection points: 5
#     Node 13, Type 0, BuildingBlock: BEQFEK_clean_sbu_0, # of connection points: 5
#     Node 14, Type 0, BuildingBlock: BEQFEK_clean_sbu_0, # of connection points: 5
#     Node 15, Type 0, BuildingBlock: BEQFEK_clean_sbu_0, # of connection points: 5
#     Edge 16, Type (0, 0), BuildingBlock: XUDNAN_clean_linker_2, # of connection points: 2
#     Edge 17, Type (0, 0), BuildingBlock: XUDNAN_clean_linker_2, # of connection points: 2
#     Edge 18, Type (0, 0), BuildingBlock: XUDNAN_clean_linker_2, # of connection points: 2
#     Edge 19, Type (0, 0), BuildingBlock: XUDNAN_clean_linker_2, # of connection points: 2
#     Edge 20, Type (0, 0), BuildingBlock: XUDNAN_clean_linker_2, # of connection points: 2
#     Edge 21, Type (0, 0), BuildingBlock: XUDNAN_clean_linker_2, # of connection points: 2
#     Edge 22, Type (0, 0), BuildingBlock: XUDNAN_clean_linker_2, # of connection points: 2
#     Edge 23, Type (0, 0), BuildingBlock: XUDNAN_clean_linker_2, # of connection points: 2
#     Edge 24, Type (0, 0), BuildingBlock: XUDNAN_clean_linker_2, # of connection points: 2
#     Edge 25, Type (0, 0), BuildingBlock: XUDNAN_clean_linker_2, # of connection points: 2
#     Edge 26, Type (0, 0), BuildingBlock: XUDNAN_clean_linker_2, # of connection points: 2
#     Edge 27, Type (0, 0), BuildingBlock: XUDNAN_clean_linker_2, # of connection points: 2
#     Edge 28, Type (0, 0), BuildingBlock: XUDNAN_clean_linker_2, # of connection points: 2
#     Edge 29, Type (0, 0), BuildingBlock: XUDNAN_clean_linker_2, # of connection points: 2
#     Edge 30, Type (0, 0), BuildingBlock: XUDNAN_clean_linker_2, # of connection points: 2
#     Edge 31, Type (0, 0), BuildingBlock: XUDNAN_clean_linker_2, # of connection points: 2
#     Edge 32, Type (0, 0), BuildingBlock: XUDNAN_clean_linker_2, # of connection points: 2
#     Edge 33, Type (0, 0), BuildingBlock: XUDNAN_clean_linker_2, # of connection points: 2
#     Edge 34, Type (0, 0), BuildingBlock: XUDNAN_clean_linker_2, # of connection points: 2
#     Edge 35, Type (0, 0), BuildingBlock: XUDNAN_clean_linker_2, # of connection points: 2
#     Edge 36, Type (0, 0), BuildingBlock: XUDNAN_clean_linker_2, # of connection points: 2
#     Edge 37, Type (0, 0), BuildingBlock: XUDNAN_clean_linker_2, # of connection points: 2
#     Edge 38, Type (0, 0), BuildingBlock: XUDNAN_clean_linker_2, # of connection points: 2
#     Edge 39, Type (0, 0), BuildingBlock: XUDNAN_clean_linker_2, # of connection points: 2
#     Edge 40, Type (0, 0), BuildingBlock: XUDNAN_clean_linker_2, # of connection points: 2
#     Edge 41, Type (0, 0), BuildingBlock: XUDNAN_clean_linker_2, # of connection points: 2
#     Edge 42, Type (0, 0), BuildingBlock: XUDNAN_clean_linker_2, # of connection points: 2
#     Edge 43, Type (0, 0), BuildingBlock: XUDNAN_clean_linker_2, # of connection points: 2
#     Edge 44, Type (0, 0), BuildingBlock: XUDNAN_clean_linker_2, # of connection points: 2
#     Edge 45, Type (0, 0), BuildingBlock: XUDNAN_clean_linker_2, # of connection points: 2
#     Edge 46, Type (0, 0), BuildingBlock: XUDNAN_clean_linker_2, # of connection points: 2
#     Edge 47, Type (0, 0), BuildingBlock: XUDNAN_clean_linker_2, # of connection points: 2
#     Edge 48, Type (0, 0), BuildingBlock: XUDNAN_clean_linker_2, # of connection points: 2
#     Edge 49, Type (0, 0), BuildingBlock: XUDNAN_clean_linker_2, # of connection points: 2
#     Edge 50, Type (0, 0), BuildingBlock: XUDNAN_clean_linker_2, # of connection points: 2
#     Edge 51, Type (0, 0), BuildingBlock: XUDNAN_clean_linker_2, # of connection points: 2
#     Edge 52, Type (0, 0), BuildingBlock: XUDNAN_clean_linker_2, # of connection points: 2
#     Edge 53, Type (0, 0), BuildingBlock: XUDNAN_clean_linker_2, # of connection points: 2
#     Edge 54, Type (0, 0), BuildingBlock: XUDNAN_clean_linker_2, # of connection points: 2
#     Edge 55, Type (0, 0), BuildingBlock: XUDNAN_clean_linker_2, # of connection points: 2
# Relax obj value: 0.068
# Max RMSD: 0.133
# Mean RMSD: 0.133
data_MOF--net-zfv--node1-BEQFEK_clean_sbu_0--edge1-XUDNAN_clean_linker_2
_symmetry_space_group_name_H-M    P1
_symmetry_Int_Tables_number       1
_symmetry_cell_setting            triclinic
loop_
_symmetry_equiv_pos_as_xyz
'x, y, z'
_cell_length_a     75.474991
_cell_length_b     75.45831
_cell_length_c     19.379299
_cell_angle_alpha  90.032381
_cell_angle_beta   89.984811
_cell_angle_gamma 90.006565
loop_
_atom_site_label
_atom_site_type_symbol
_atom_site_fract_x
_atom_site_fract_y
_atom_site_fract_z
_atom_type_partial_charge
Co0 Co 0.01385 0.61291 0.13413 0.0
Co1 Co 0.01514 0.61771 0.97301 0.0
C2 C 0.98677 0.63462 0.057 0.0
O3 O 0.99368 0.62884 0.11244 0.0
O4 O 0.99341 0.63104 0.99818 0.0
C5 C 0.9963 0.60654 0.26203 0.0
O6 O 0.98217 0.60885 0.22353 0.0
C7 C 0.0054 0.61521 0.8256 0.0
C8 C 0.03159 0.61844 0.7762 0.0
C9 C 0.01382 0.61562 0.76144 0.0
N10 N 0.01771 0.61758 0.87499 0.0
N11 N 0.03328 0.61963 0.84504 0.0
C12 C 0.98635 0.61148 0.84122 0.0
H13 H 0.98479 0.60711 0.89557 0.0
H14 H 0.98111 0.60112 0.80605 0.0
H15 H 0.97852 0.62379 0.83412 0.0
C16 C 0.01106 0.57483 0.09026 0.0
N17 N 0.01315 0.59226 0.07648 0.0
N18 N 0.01418 0.5944 0.0091 0.0
C19 C 0.01315 0.57845 0.97819 0.0
C20 C 0.01082 0.56556 0.0282 0.0
C21 C 0.00798 0.56754 0.16098 0.0
H22 H 0.99527 0.57279 0.18123 0.0
H23 H 0.00744 0.55285 0.16083 0.0
H24 H 0.01869 0.5721 0.19596 0.0
O25 O 0.03645 0.62643 0.12217 0.0
O26 O 0.03631 0.62986 0.00845 0.0
H27 H 0.01848 0.5614 0.89085 0.0
H28 H 0.00221 0.5784 0.87646 0.0
C29 C 0.01496 0.57538 0.90216 0.0
H30 H 0.02541 0.58406 0.88065 0.0
H31 H 0.04514 0.62158 0.87169 0.0
O32 O 0.01152 0.60678 0.23373 0.0
C33 C 0.04348 0.63235 0.06701 0.0
Co34 Co 0.65853 0.74956 0.47205 0.0
Co35 Co 0.64994 0.75088 0.31303 0.0
C36 C 0.63732 0.721 0.40231 0.0
O37 O 0.6448 0.72802 0.45436 0.0
O38 O 0.63802 0.72829 0.34294 0.0
C39 C 0.6698 0.73466 0.602 0.0
O40 O 0.6715 0.71988 0.56676 0.0
C41 C 0.65255 0.7415 0.1641 0.0
C42 C 0.64784 0.7677 0.11682 0.0
C43 C 0.65224 0.75033 0.10074 0.0
N44 N 0.64898 0.75329 0.2145 0.0
N45 N 0.64593 0.76883 0.1856 0.0
C46 C 0.65568 0.7222 0.17723 0.0
H47 H 0.64974 0.71816 0.22701 0.0
H48 H 0.67013 0.71962 0.18006 0.0
H49 H 0.64994 0.71407 0.13507 0.0
C50 C 0.69524 0.75283 0.41992 0.0
N51 N 0.67767 0.75124 0.40977 0.0
N52 N 0.67423 0.75198 0.34315 0.0
C53 C 0.68966 0.75427 0.30887 0.0
C54 C 0.70345 0.75475 0.35627 0.0
C55 C 0.70383 0.75227 0.48946 0.0
H56 H 0.69875 0.76337 0.5214 0.0
H57 H 0.70016 0.73973 0.51557 0.0
H58 H 0.71847 0.75304 0.48603 0.0
O59 O 0.64294 0.77034 0.46289 0.0
O60 O 0.63634 0.77137 0.35149 0.0
H61 H 0.68102 0.76765 0.21744 0.0
H62 H 0.70435 0.76292 0.2187 0.0
C63 C 0.69109 0.75777 0.23303 0.0
H64 H 0.6887 0.74531 0.20433 0.0
H65 H 0.64307 0.78038 0.21309 0.0
O66 O 0.66563 0.74886 0.57067 0.0
C67 C 0.63491 0.77753 0.41248 0.0
Co68 Co 0.51259 0.38906 0.64751 0.0
Co69 Co 0.5107 0.38472 0.48812 0.0
C70 C 0.54017 0.3686 0.56612 0.0
O71 O 0.53355 0.37422 0.62251 0.0
O72 O 0.53292 0.3719 0.50817 0.0
C73 C 0.52321 0.38653 0.788 0.0
O74 O 0.52937 0.37101 0.76872 0.0
C75 C 0.51691 0.38651 0.33784 0.0
C76 C 0.4895 0.39147 0.30215 0.0
C77 C 0.50685 0.39022 0.27991 0.0
N78 N 0.50593 0.38585 0.39238 0.0
N79 N 0.48955 0.38844 0.37042 0.0
C80 C 0.53666 0.38554 0.34269 0.0
H81 H 0.54121 0.39085 0.39308 0.0
H82 H 0.54302 0.39296 0.29987 0.0
H83 H 0.54079 0.37146 0.33928 0.0
C84 C 0.5095 0.42722 0.60721 0.0
N85 N 0.51125 0.40984 0.59192 0.0
N86 N 0.51134 0.40792 0.5245 0.0
C87 C 0.50999 0.42398 0.49471 0.0
C88 C 0.50851 0.43673 0.54589 0.0
C89 C 0.5075 0.43428 0.67893 0.0
H90 H 0.49764 0.4262 0.70743 0.0
H91 H 0.52036 0.43306 0.70628 0.0
H92 H 0.50331 0.44837 0.67894 0.0
O93 O 0.49049 0.37475 0.64001 0.0
O94 O 0.49012 0.37199 0.52616 0.0
H95 H 0.49762 0.42334 0.39547 0.0
H96 H 0.51308 0.44134 0.40647 0.0
C97 C 0.51049 0.42721 0.41851 0.0
H98 H 0.52114 0.41916 0.39495 0.0
H99 H 0.4785 0.38901 0.4027 0.0
O100 O 0.51546 0.39632 0.74415 0.0
C101 C 0.4833 0.36901 0.58499 0.0
Co102 Co 0.86977 0.25074 0.93538 0.0
Co103 Co 0.88111 0.24972 0.77955 0.0
C104 C 0.89384 0.27855 0.87086 0.0
O105 O 0.88539 0.27137 0.92058 0.0
O106 O 0.89356 0.27194 0.81002 0.0
C107 C 0.86379 0.26219 0.07712 0.0
O108 O 0.8683 0.27821 0.05752 0.0
C109 C 0.88505 0.25331 0.62442 0.0
C110 C 0.88384 0.22471 0.60001 0.0
C111 C 0.88534 0.24124 0.56975 0.0
N112 N 0.88334 0.2441 0.68378 0.0
N113 N 0.88271 0.22707 0.66829 0.0
C114 C 0.88692 0.27301 0.62092 0.0
H115 H 0.89131 0.27837 0.67142 0.0
H116 H 0.8739 0.27898 0.60809 0.0
H117 H 0.89649 0.27675 0.57995 0.0
C118 C 0.83397 0.2525 0.87345 0.0
N119 N 0.85169 0.25076 0.8688 0.0
N120 N 0.8564 0.25051 0.80338 0.0
C121 C 0.84172 0.25207 0.76422 0.0
C122 C 0.82705 0.25345 0.8072 0.0
C123 C 0.82427 0.2548 0.94016 0.0
H124 H 0.82509 0.24229 0.97009 0.0
H125 H 0.8308 0.2653 0.97112 0.0
H126 H 0.81015 0.2583 0.93186 0.0
O127 O 0.88372 0.22882 0.93024 0.0
O128 O 0.89327 0.22915 0.82272 0.0
H129 H 0.8484 0.24026 0.66734 0.0
H130 H 0.82813 0.25271 0.66547 0.0
C131 C 0.84173 0.25233 0.68699 0.0
H132 H 0.84921 0.26406 0.66879 0.0
H133 H 0.8812 0.21697 0.70455 0.0
O134 O 0.86133 0.2502 0.03197 0.0
C135 C 0.89281 0.22203 0.88199 0.0
Co136 Co 0.01405 0.38783 0.85339 0.0
Co137 Co 0.01472 0.38715 0.01443 0.0
C138 C 0.98673 0.36793 0.93662 0.0
O139 O 0.9936 0.3726 0.87943 0.0
O140 O 0.99336 0.37281 0.99405 0.0
C141 C 0.99735 0.39489 0.72465 0.0
O142 O 0.98308 0.39648 0.76301 0.0
C143 C 0.0065 0.38853 0.16384 0.0
C144 C 0.03194 0.39869 0.20441 0.0
C145 C 0.01503 0.39369 0.22414 0.0
N146 N 0.01781 0.39075 0.1109 0.0
N147 N 0.033 0.39668 0.13564 0.0
C148 C 0.98845 0.38053 0.15648 0.0
H149 H 0.98927 0.36857 0.12345 0.0
H150 H 0.97955 0.39018 0.13072 0.0
H151 H 0.98277 0.37663 0.20698 0.0
C152 C 0.01218 0.42689 0.88145 0.0
N153 N 0.0134 0.40985 0.90202 0.0
N154 N 0.01309 0.40936 0.96989 0.0
C155 C 0.01134 0.42596 0.99461 0.0
C156 C 0.01087 0.43765 0.93951 0.0
C157 C 0.01255 0.43277 0.80777 0.0
H158 H 0.02185 0.42439 0.77777 0.0
H159 H 0.99911 0.4313 0.78537 0.0
H160 H 0.01661 0.44687 0.80357 0.0
O161 O 0.03649 0.37481 0.87033 0.0
O162 O 0.03635 0.37452 0.9847 0.0
H163 H 0.02127 0.43 0.09666 0.0
H164 H 0.00246 0.4437 0.07565 0.0
C165 C 0.0084 0.43035 0.06911 0.0
H166 H 0.99941 0.42046 0.09269 0.0
H167 H 0.04407 0.39953 0.10531 0.0
O168 O 0.01215 0.39167 0.75326 0.0
C169 C 0.04358 0.37052 0.92748 0.0
Co170 Co 0.86992 0.74986 0.08178 0.0
Co171 Co 0.88244 0.75091 0.23682 0.0
C172 C 0.8928 0.72099 0.14632 0.0
O173 O 0.88431 0.72836 0.09718 0.0
O174 O 0.89342 0.7279 0.20662 0.0
C175 C 0.86386 0.73906 0.93928 0.0
O176 O 0.86971 0.72333 0.95702 0.0
C177 C 0.88655 0.74812 0.39256 0.0
C178 C 0.88611 0.77687 0.41394 0.0
C179 C 0.88681 0.76054 0.44634 0.0
N180 N 0.88543 0.75698 0.33214 0.0
N181 N 0.88539 0.77411 0.34585 0.0
C182 C 0.88748 0.72837 0.39758 0.0
H183 H 0.89157 0.72257 0.34743 0.0
H184 H 0.87421 0.72307 0.41097 0.0
H185 H 0.89696 0.7244 0.43853 0.0
C186 C 0.83465 0.75386 0.14752 0.0
N187 N 0.85238 0.75186 0.15022 0.0
N188 N 0.85757 0.75184 0.21511 0.0
C189 C 0.84318 0.75364 0.25578 0.0
C190 C 0.82823 0.75516 0.21449 0.0
C191 C 0.82439 0.75555 0.08183 0.0
H192 H 0.8316 0.76434 0.04556 0.0
H193 H 0.82331 0.7423 0.05733 0.0
H194 H 0.8109 0.76088 0.09109 0.0
O195 O 0.88535 0.77073 0.08403 0.0
O196 O 0.89551 0.77061 0.1908 0.0
H197 H 0.84905 0.76576 0.35284 0.0
H198 H 0.83018 0.75107 0.35503 0.0
C199 C 0.84359 0.75311 0.33294 0.0
H200 H 0.85221 0.7421 0.35002 0.0
H201 H 0.88433 0.78401 0.30852 0.0
O202 O 0.86087 0.75059 0.98579 0.0
C203 C 0.89508 0.77734 0.13078 0.0
Co204 Co 0.51809 0.61106 0.35113 0.0
Co205 Co 0.51232 0.61668 0.51106 0.0
C206 C 0.54387 0.63171 0.43649 0.0
O207 O 0.53874 0.62575 0.37842 0.0
O208 O 0.53504 0.62895 0.49148 0.0
C209 C 0.5354 0.60544 0.22023 0.0
O210 O 0.54978 0.60896 0.25586 0.0
C211 C 0.52128 0.61258 0.65768 0.0
C212 C 0.496 0.61918 0.70899 0.0
C213 C 0.51336 0.61417 0.72245 0.0
N214 N 0.50918 0.61651 0.60911 0.0
N215 N 0.49411 0.6205 0.64012 0.0
C216 C 0.53959 0.60634 0.64077 0.0
H217 H 0.54014 0.60122 0.5871 0.0
H218 H 0.54383 0.59582 0.67718 0.0
H219 H 0.54892 0.61766 0.64473 0.0
C220 C 0.51494 0.57344 0.39393 0.0
N221 N 0.51574 0.59086 0.40875 0.0
N222 N 0.51292 0.59313 0.4753 0.0
C223 C 0.51022 0.57717 0.50482 0.0
C224 C 0.51151 0.56418 0.45437 0.0
C225 C 0.51708 0.56598 0.3229 0.0
H226 H 0.52922 0.57154 0.29893 0.0
H227 H 0.518 0.55131 0.32368 0.0
H228 H 0.50562 0.57005 0.29077 0.0
O229 O 0.49639 0.62547 0.35781 0.0
O230 O 0.49223 0.63026 0.46974 0.0
H231 H 0.49891 0.56117 0.58655 0.0
H232 H 0.51653 0.57583 0.61212 0.0
C233 C 0.50476 0.57449 0.57836 0.0
H234 H 0.49492 0.58468 0.59341 0.0
H235 H 0.48251 0.62403 0.61426 0.0
O236 O 0.52057 0.60475 0.25139 0.0
C237 C 0.48756 0.63232 0.40704 0.0
Co238 Co 0.65716 0.25332 0.55716 0.0
Co239 Co 0.6477 0.25089 0.71398 0.0
C240 C 0.63393 0.28047 0.6298 0.0
O241 O 0.64193 0.27366 0.57849 0.0
O242 O 0.63463 0.27331 0.68945 0.0
C243 C 0.65477 0.26237 0.41714 0.0
O244 O 0.63874 0.26682 0.43721 0.0
C245 C 0.64761 0.25621 0.86604 0.0
C246 C 0.65091 0.22834 0.89892 0.0
C247 C 0.65042 0.24555 0.92325 0.0
N248 N 0.64678 0.24569 0.81001 0.0
N249 N 0.64829 0.22905 0.83045 0.0
C250 C 0.64774 0.27602 0.86393 0.0
H251 H 0.65029 0.28083 0.81076 0.0
H252 H 0.65789 0.28134 0.89983 0.0
H253 H 0.63462 0.28099 0.88116 0.0
C254 C 0.69353 0.25396 0.61119 0.0
N255 N 0.67592 0.25265 0.62022 0.0
N256 N 0.67226 0.25202 0.68656 0.0
C257 C 0.68767 0.25288 0.72205 0.0
C258 C 0.70162 0.25419 0.6754 0.0
C259 C 0.7023 0.25505 0.54206 0.0
H260 H 0.69647 0.245 0.50697 0.0
H261 H 0.69978 0.26832 0.51947 0.0
H262 H 0.7168 0.25285 0.54585 0.0
O263 O 0.6435 0.23121 0.56014 0.0
O264 O 0.63552 0.2302 0.67004 0.0
H265 H 0.68339 0.24184 0.82227 0.0
H266 H 0.70279 0.25572 0.8169 0.0
C267 C 0.68896 0.25403 0.79897 0.0
H268 H 0.68116 0.26554 0.81709 0.0
H269 H 0.64864 0.21822 0.79699 0.0
O270 O 0.66561 0.25629 0.46136 0.0
C271 C 0.63527 0.22373 0.60936 0.0
Co272 Co 0.36929 0.25007 0.57305 0.0
Co273 Co 0.38051 0.24984 0.73167 0.0
C274 C 0.39464 0.22297 0.63374 0.0
O275 O 0.38598 0.23056 0.58599 0.0
O276 O 0.39387 0.22851 0.69596 0.0
C277 C 0.36072 0.23344 0.44424 0.0
O278 O 0.36222 0.21912 0.48229 0.0
C279 C 0.38011 0.23974 0.88109 0.0
C280 C 0.38576 0.26566 0.92918 0.0
C281 C 0.38146 0.24826 0.94521 0.0
N282 N 0.38311 0.25172 0.83073 0.0
N283 N 0.38675 0.26709 0.86016 0.0
C284 C 0.37477 0.22101 0.86653 0.0
H285 H 0.37078 0.21951 0.81169 0.0
H286 H 0.36368 0.21696 0.90064 0.0
H287 H 0.38622 0.21214 0.87631 0.0
C288 C 0.3335 0.24657 0.63502 0.0
N289 N 0.35122 0.24839 0.64032 0.0
N290 N 0.35573 0.249 0.70612 0.0
C291 C 0.34082 0.24815 0.74442 0.0
C292 C 0.32635 0.24619 0.70099 0.0
C293 C 0.32397 0.2442 0.56802 0.0
H294 H 0.32678 0.25569 0.53402 0.0
H295 H 0.3291 0.23218 0.54176 0.0
H296 H 0.30946 0.24283 0.57543 0.0
O297 O 0.38232 0.27252 0.58394 0.0
O298 O 0.3917 0.27163 0.69254 0.0
H299 H 0.35003 0.26029 0.83811 0.0
H300 H 0.32671 0.25541 0.83714 0.0
C301 C 0.33997 0.25057 0.82102 0.0
H302 H 0.3423 0.23768 0.84669 0.0
H303 H 0.3893 0.27875 0.833 0.0
O304 O 0.36144 0.24852 0.47379 0.0
C305 C 0.39101 0.27923 0.63387 0.0
Co306 Co 0.15967 0.75081 0.07089 0.0
Co307 Co 0.14787 0.7499 0.22639 0.0
C308 C 0.13684 0.77957 0.13538 0.0
O309 O 0.1452 0.77218 0.08594 0.0
O310 O 0.13654 0.77277 0.19588 0.0
C311 C 0.16624 0.76181 0.92898 0.0
O312 O 0.16178 0.77792 0.94776 0.0
C313 C 0.14438 0.75342 0.38172 0.0
C314 C 0.14301 0.72479 0.40498 0.0
C315 C 0.1432 0.7413 0.43612 0.0
N316 N 0.14501 0.74424 0.32193 0.0
N317 N 0.14406 0.72719 0.33675 0.0
C318 C 0.14455 0.77321 0.38565 0.0
H319 H 0.14068 0.77903 0.3353 0.0
H320 H 0.15812 0.7778 0.39832 0.0
H321 H 0.13541 0.77786 0.42673 0.0
C322 C 0.19511 0.74734 0.1336 0.0
N323 N 0.17743 0.74918 0.13827 0.0
N324 N 0.17269 0.74921 0.2037 0.0
C325 C 0.18741 0.7476 0.24284 0.0
C326 C 0.20205 0.7463 0.1997 0.0
C327 C 0.20499 0.74636 0.06682 0.0
H328 H 0.20055 0.75723 0.03237 0.0
H329 H 0.21952 0.74732 0.07487 0.0
H330 H 0.20184 0.73363 0.04093 0.0
O331 O 0.14446 0.72983 0.07422 0.0
O332 O 0.13482 0.72993 0.18165 0.0
H333 H 0.18011 0.73391 0.33503 0.0
H334 H 0.20099 0.74535 0.34116 0.0
C335 C 0.18738 0.74606 0.31981 0.0
H336 H 0.18047 0.75765 0.34227 0.0
H337 H 0.14454 0.71707 0.30011 0.0
O338 O 0.16839 0.74992 0.97469 0.0
C339 C 0.13503 0.72315 0.12166 0.0
Co340 Co 0.15668 0.25115 0.95874 0.0
Co341 Co 0.14805 0.25078 0.79955 0.0
C342 C 0.13285 0.22353 0.89247 0.0
O343 O 0.14071 0.23106 0.94257 0.0
O344 O 0.1343 0.2294 0.83094 0.0
C345 C 0.16642 0.23519 0.08779 0.0
O346 O 0.16708 0.22057 0.05104 0.0
C347 C 0.14704 0.24191 0.64865 0.0
C348 C 0.15207 0.26855 0.60565 0.0
C349 C 0.15001 0.25095 0.58689 0.0
N350 N 0.14787 0.25365 0.70106 0.0
N351 N 0.15059 0.26955 0.6746 0.0
C352 C 0.14302 0.22263 0.65803 0.0
H353 H 0.13442 0.22065 0.7037 0.0
H354 H 0.15553 0.21525 0.66665 0.0
H355 H 0.13631 0.21717 0.61172 0.0
C356 C 0.19341 0.24866 0.90647 0.0
N357 N 0.17581 0.24999 0.89673 0.0
N358 N 0.17232 0.24951 0.83014 0.0
C359 C 0.18775 0.24774 0.79543 0.0
C360 C 0.2016 0.24718 0.84261 0.0
C361 C 0.20214 0.24891 0.97576 0.0
H362 H 0.19522 0.2584 0.01021 0.0
H363 H 0.20119 0.23552 0.99909 0.0
H364 H 0.21632 0.25264 0.97153 0.0
O365 O 0.14364 0.27336 0.94677 0.0
O366 O 0.13617 0.27263 0.83617 0.0
H367 H 0.18533 0.25742 0.69223 0.0
H368 H 0.20261 0.24112 0.70288 0.0
C369 C 0.18908 0.24501 0.71911 0.0
H370 H 0.17979 0.23441 0.70335 0.0
H371 H 0.15203 0.28105 0.704 0.0
O372 O 0.16348 0.24985 0.0576 0.0
C373 C 0.13582 0.28014 0.89508 0.0
Co374 Co 0.37562 0.75155 0.41612 0.0
Co375 Co 0.37877 0.7504 0.25458 0.0
C376 C 0.39513 0.77966 0.3349 0.0
O377 O 0.39015 0.77266 0.39141 0.0
O378 O 0.3913 0.77266 0.277 0.0
C379 C 0.36879 0.76896 0.54383 0.0
O380 O 0.37016 0.78316 0.50504 0.0
C381 C 0.37516 0.75986 0.10748 0.0
C382 C 0.37838 0.73365 0.05813 0.0
C383 C 0.37549 0.75141 0.04338 0.0
N384 N 0.37771 0.74759 0.15684 0.0
N385 N 0.37969 0.73199 0.12694 0.0
C386 C 0.37128 0.77889 0.12314 0.0
H387 H 0.3667 0.78037 0.17728 0.0
H388 H 0.36101 0.7841 0.08758 0.0
H389 H 0.38358 0.78678 0.11682 0.0
C390 C 0.33727 0.74828 0.37943 0.0
N391 N 0.35448 0.75032 0.36216 0.0
N392 N 0.35592 0.7499 0.29443 0.0
C393 C 0.33976 0.74748 0.2666 0.0
C394 C 0.32742 0.74635 0.31936 0.0
C395 C 0.33072 0.74677 0.45202 0.0
H396 H 0.33867 0.7367 0.47999 0.0
H397 H 0.33265 0.75965 0.47862 0.0
H398 H 0.31649 0.74312 0.45383 0.0
O399 O 0.39029 0.72979 0.4028 0.0
O400 O 0.39247 0.72997 0.28857 0.0
H401 H 0.34349 0.73405 0.17042 0.0
H402 H 0.32195 0.7443 0.17937 0.0
C403 C 0.33627 0.74573 0.19084 0.0
H404 H 0.34121 0.75769 0.16399 0.0
H405 H 0.38183 0.72018 0.15361 0.0
O406 O 0.37001 0.75374 0.51596 0.0
C407 C 0.396 0.72302 0.34677 0.0
Co408 Co 0.5149 0.11311 0.62265 0.0
Co409 Co 0.51675 0.11786 0.46242 0.0
C410 C 0.48866 0.13566 0.54723 0.0
O411 O 0.49482 0.12927 0.60299 0.0
O412 O 0.49577 0.13222 0.4891 0.0
C413 C 0.49847 0.10447 0.75144 0.0
O414 O 0.48383 0.10404 0.7148 0.0
C415 C 0.50717 0.11545 0.31381 0.0
C416 C 0.53389 0.1159 0.26727 0.0
C417 C 0.51608 0.11434 0.25094 0.0
N418 N 0.51927 0.11722 0.36443 0.0
N419 N 0.53517 0.11764 0.33602 0.0
C420 C 0.48758 0.11542 0.32595 0.0
H421 H 0.48435 0.12155 0.37617 0.0
H422 H 0.48266 0.10157 0.32696 0.0
H423 H 0.48065 0.12267 0.28409 0.0
C424 C 0.51127 0.07491 0.57868 0.0
N425 N 0.51372 0.09235 0.56554 0.0
N426 N 0.51504 0.09457 0.49833 0.0
C427 C 0.51389 0.07871 0.46688 0.0
C428 C 0.51109 0.06575 0.51629 0.0
C429 C 0.5079 0.06749 0.64901 0.0
H430 H 0.49461 0.07178 0.66667 0.0
H431 H 0.50832 0.05281 0.64921 0.0
H432 H 0.51785 0.07277 0.68581 0.0
O433 O 0.53772 0.12631 0.61034 0.0
O434 O 0.53839 0.12924 0.49657 0.0
H435 H 0.51919 0.06164 0.37927 0.0
H436 H 0.50425 0.07978 0.36326 0.0
C437 C 0.51641 0.07575 0.39107 0.0
H438 H 0.52769 0.08376 0.37223 0.0
H439 H 0.54696 0.11877 0.36378 0.0
O440 O 0.5132 0.10727 0.72158 0.0
C441 C 0.54527 0.13178 0.55555 0.0
Co442 Co 0.01613 0.88802 0.1343 0.0
Co443 Co 0.0137 0.8833 0.9749 0.0
C444 C 0.0429 0.86655 0.05406 0.0
O445 O 0.03648 0.8725 0.11029 0.0
O446 O 0.03569 0.86989 0.99597 0.0
C447 C 0.02728 0.88628 0.27508 0.0
O448 O 0.0346 0.87125 0.25606 0.0
C449 C 0.02009 0.88569 0.82479 0.0
C450 C 0.99248 0.88866 0.78817 0.0
C451 C 0.00993 0.88873 0.76654 0.0
N452 N 0.00907 0.88414 0.87893 0.0
N453 N 0.99259 0.88555 0.85638 0.0
C454 C 0.03985 0.88604 0.83004 0.0
H455 H 0.04403 0.88949 0.88329 0.0
H456 H 0.04552 0.89565 0.79272 0.0
H457 H 0.04508 0.87269 0.81724 0.0
C458 C 0.01836 0.92602 0.09204 0.0
N459 N 0.01618 0.90865 0.07758 0.0
N460 N 0.0152 0.90662 0.01027 0.0
C461 C 0.01658 0.92261 0.97981 0.0
C462 C 0.0188 0.9354 0.0304 0.0
C463 C 0.02139 0.93318 0.16306 0.0
H464 H 0.03306 0.92651 0.18624 0.0
H465 H 0.02363 0.94771 0.16256 0.0
H466 H 0.00973 0.93009 0.1958 0.0
O467 O 0.99357 0.87429 0.12683 0.0
O468 O 0.99296 0.87109 0.01329 0.0
H469 H 0.01457 0.94005 0.89114 0.0
H470 H 0.02769 0.92033 0.87874 0.0
C471 C 0.01563 0.92574 0.90361 0.0
H472 H 0.00388 0.91894 0.88211 0.0
H473 H 0.98145 0.88528 0.88822 0.0
O474 O 0.01877 0.89539 0.23112 0.0
C475 C 0.98619 0.86843 0.07236 0.0
Co476 Co 0.51771 0.88849 0.34026 0.0
Co477 Co 0.51145 0.88725 0.49866 0.0
C478 C 0.48592 0.87018 0.4068 0.0
O479 O 0.49572 0.87516 0.35707 0.0
O480 O 0.48998 0.87368 0.4692 0.0
C481 C 0.50516 0.89603 0.20568 0.0
O482 O 0.49148 0.90269 0.23852 0.0
C483 C 0.50228 0.8847 0.64679 0.0
C484 C 0.52234 0.90286 0.69081 0.0
C485 C 0.50829 0.892 0.70808 0.0
N486 N 0.51216 0.89131 0.59518 0.0
N487 N 0.52424 0.90196 0.622 0.0
C488 C 0.48742 0.87184 0.63693 0.0
H489 H 0.49253 0.85975 0.61105 0.0
H490 H 0.47733 0.8778 0.60242 0.0
H491 H 0.48114 0.86822 0.68674 0.0
C492 C 0.51661 0.92752 0.3669 0.0
N493 N 0.51636 0.91043 0.38731 0.0
N494 N 0.5124 0.90975 0.45344 0.0
C495 C 0.50952 0.92636 0.47661 0.0
C496 C 0.51241 0.93815 0.42306 0.0
C497 C 0.52055 0.93357 0.29507 0.0
H498 H 0.52926 0.92388 0.26854 0.0
H499 H 0.50796 0.93469 0.26591 0.0
H500 H 0.52695 0.94681 0.29577 0.0
O501 O 0.53837 0.8743 0.3686 0.0
O502 O 0.53318 0.87304 0.48087 0.0
H503 H 0.51265 0.93435 0.58182 0.0
H504 H 0.49299 0.94264 0.5416 0.0
C505 C 0.50181 0.93091 0.54562 0.0
H506 H 0.49408 0.91963 0.56648 0.0
H507 H 0.53386 0.90858 0.59315 0.0
O508 O 0.51849 0.89056 0.23942 0.0
C509 C 0.54254 0.86897 0.4286 0.0
Co510 Co 0.01405 0.1129 0.86001 0.0
Co511 Co 0.0112 0.11413 0.01978 0.0
C512 C 0.03995 0.13352 0.94746 0.0
O513 O 0.03403 0.12842 0.88914 0.0
O514 O 0.03254 0.12884 0.00375 0.0
C515 C 0.02434 0.11741 0.71796 0.0
O516 O 0.0295 0.13335 0.73646 0.0
C517 C 0.01723 0.11203 0.16972 0.0
C518 C 0.99138 0.10115 0.20316 0.0
C519 C 0.008 0.10593 0.22666 0.0
N520 N 0.00653 0.11071 0.11459 0.0
N521 N 0.99103 0.10449 0.13512 0.0
C522 C 0.0363 0.11734 0.16613 0.0
H523 H 0.04253 0.11152 0.11946 0.0
H524 H 0.04366 0.11306 0.21282 0.0
H525 H 0.03713 0.13197 0.16163 0.0
C526 C 0.0163 0.07417 0.8898 0.0
N527 N 0.01433 0.09117 0.90991 0.0
N528 N 0.0138 0.09177 0.97762 0.0
C529 C 0.01565 0.07523 0.00293 0.0
C530 C 0.01717 0.06349 0.94815 0.0
C531 C 0.01707 0.06833 0.8161 0.0
H532 H 0.00629 0.07483 0.78662 0.0
H533 H 0.0299 0.07253 0.79343 0.0
H534 H 0.01571 0.05374 0.81122 0.0
O535 O 0.99119 0.12584 0.87058 0.0
O536 O 0.98999 0.12634 0.98478 0.0
H537 H 0.00452 0.07138 0.10321 0.0
H538 H 0.02353 0.05762 0.08591 0.0
C539 C 0.01769 0.07095 0.07796 0.0
H540 H 0.02641 0.08087 0.10282 0.0
H541 H 0.98043 0.1019 0.10204 0.0
O542 O 0.01737 0.10718 0.76223 0.0
C543 C 0.98339 0.13017 0.92634 0.0
H544 H 0.03195 0.60433 0.64814 0.0
H545 H 0.97985 0.62239 0.71218 0.0
H546 H 0.96904 0.61875 0.59339 0.0
H547 H 0.03237 0.62827 0.49275 0.0
H548 H 0.0443 0.61165 0.4447 0.0
H549 H 0.04732 0.61342 0.53653 0.0
H550 H 0.03866 0.58038 0.55071 0.0
H551 H 0.03559 0.57851 0.45877 0.0
H552 H 0.01783 0.57263 0.5166 0.0
H553 H 0.9643 0.61469 0.46572 0.0
H554 H 0.96654 0.61268 0.33897 0.0
H555 H 0.02226 0.59918 0.35717 0.0
C556 C 0.01818 0.6073 0.63766 0.0
C557 C 0.00663 0.61304 0.69071 0.0
C558 C 0.98882 0.61714 0.67396 0.0
C559 C 0.98257 0.61529 0.60609 0.0
C560 C 0.99433 0.60954 0.55532 0.0
C561 C 0.0118 0.60575 0.57024 0.0
C562 C 0.02215 0.60124 0.5056 0.0
C563 C 0.03743 0.61443 0.49425 0.0
C564 C 0.02895 0.58205 0.50809 0.0
C565 C 0.00783 0.60341 0.45163 0.0
C566 C 0.99181 0.60793 0.48146 0.0
C567 C 0.97675 0.61107 0.44185 0.0
C568 C 0.97816 0.60986 0.36983 0.0
C569 C 0.99458 0.60578 0.33807 0.0
C570 C 0.00952 0.60228 0.37984 0.0
H571 H 0.64183 0.76522 0.97937 0.0
H572 H 0.67399 0.72226 0.06022 0.0
H573 H 0.68167 0.71337 0.94204 0.0
H574 H 0.62578 0.74337 0.82691 0.0
H575 H 0.62754 0.76295 0.77408 0.0
H576 H 0.62356 0.76503 0.86533 0.0
H577 H 0.65123 0.78518 0.87656 0.0
H578 H 0.65539 0.78303 0.78543 0.0
H579 H 0.6724 0.77721 0.8466 0.0
H580 H 0.68567 0.709 0.81282 0.0
H581 H 0.68641 0.71041 0.68511 0.0
H582 H 0.6541 0.75793 0.69088 0.0
C583 C 0.65037 0.75382 0.97255 0.0
C584 C 0.65665 0.74406 0.02987 0.0
C585 C 0.66811 0.72947 0.01803 0.0
C586 C 0.67284 0.72446 0.95065 0.0
C587 C 0.66634 0.73438 0.89558 0.0
C588 C 0.65546 0.74885 0.90596 0.0
C589 C 0.65084 0.75782 0.8385 0.0
C590 C 0.63074 0.75725 0.82545 0.0
C591 C 0.65789 0.77694 0.8367 0.0
C592 C 0.66074 0.74608 0.78835 0.0
C593 C 0.66951 0.73254 0.82207 0.0
C594 C 0.67898 0.71964 0.78598 0.0
C595 C 0.67935 0.72055 0.71355 0.0
C596 C 0.67052 0.73439 0.67823 0.0
C597 C 0.66127 0.74737 0.71645 0.0
H598 H 0.52541 0.36938 0.19076 0.0
H599 H 0.50086 0.42094 0.21274 0.0
H600 H 0.50712 0.42749 0.09027 0.0
H601 H 0.5595 0.38221 0.05585 0.0
H602 H 0.55663 0.36152 0.01071 0.0
H603 H 0.55389 0.36242 0.10309 0.0
H604 H 0.52248 0.34892 0.09076 0.0
H605 H 0.52505 0.34809 0.99865 0.0
H606 H 0.50648 0.3597 0.03589 0.0
H607 H 0.51172 0.42675 0.96457 0.0
H608 H 0.51356 0.41855 0.84182 0.0
H609 H 0.53433 0.36692 0.89886 0.0
C610 C 0.52201 0.38226 0.16996 0.0
C611 C 0.51295 0.39482 0.21046 0.0
C612 C 0.50798 0.4113 0.18192 0.0
C613 C 0.51157 0.41514 0.11277 0.0
C614 C 0.52005 0.40229 0.07313 0.0
C615 C 0.52526 0.38618 0.10054 0.0
C616 C 0.53184 0.37378 0.04465 0.0
C617 C 0.55164 0.36975 0.05415 0.0
C618 C 0.5208 0.35662 0.04237 0.0
C619 C 0.52869 0.38513 0.98143 0.0
C620 C 0.5223 0.40167 0.99926 0.0
C621 C 0.51702 0.41397 0.94985 0.0
C622 C 0.51803 0.40915 0.88027 0.0
C623 C 0.52409 0.3921 0.86085 0.0
C624 C 0.52985 0.38012 0.91213 0.0
H625 H 0.87228 0.26911 0.48933 0.0
H626 H 0.89967 0.21852 0.47804 0.0
H627 H 0.89672 0.21872 0.35211 0.0
H628 H 0.84154 0.26144 0.35867 0.0
H629 H 0.84218 0.28329 0.32114 0.0
H630 H 0.84735 0.28031 0.41112 0.0
H631 H 0.87781 0.29546 0.39378 0.0
H632 H 0.87258 0.29884 0.30399 0.0
H633 H 0.8926 0.28735 0.32786 0.0
H634 H 0.88757 0.22191 0.23193 0.0
H635 H 0.87771 0.23079 0.11639 0.0
H636 H 0.85871 0.28087 0.19873 0.0
C637 C 0.87824 0.25841 0.4604 0.0
C638 C 0.88624 0.24379 0.49398 0.0
C639 C 0.89337 0.22981 0.45375 0.0
C640 C 0.89177 0.22977 0.38206 0.0
C641 C 0.88325 0.24396 0.35083 0.0
C642 C 0.87703 0.25828 0.38801 0.0
C643 C 0.86832 0.27171 0.34034 0.0
C644 C 0.84868 0.27434 0.35896 0.0
C645 C 0.87844 0.28939 0.34156 0.0
C646 C 0.87033 0.26241 0.2712 0.0
C647 C 0.87877 0.2463 0.27919 0.0
C648 C 0.88124 0.23463 0.22454 0.0
C649 C 0.87538 0.23973 0.15921 0.0
C650 C 0.86743 0.25652 0.14861 0.0
C651 C 0.86481 0.268 0.20546 0.0
H652 H 0.03323 0.38579 0.34064 0.0
H653 H 0.98204 0.40419 0.26871 0.0
H654 H 0.97155 0.40613 0.38944 0.0
H655 H 0.01753 0.3596 0.48361 0.0
H656 H 0.03578 0.36568 0.53874 0.0
H657 H 0.03876 0.36504 0.44658 0.0
H658 H 0.04962 0.39765 0.44852 0.0
H659 H 0.04659 0.39841 0.54063 0.0
H660 H 0.03575 0.4145 0.48638 0.0
H661 H 0.96697 0.4063 0.51907 0.0
H662 H 0.96874 0.40495 0.64647 0.0
H663 H 0.02344 0.38755 0.63137 0.0
C664 C 0.01976 0.3901 0.35031 0.0
C665 C 0.00825 0.39432 0.29549 0.0
C666 C 0.99083 0.4002 0.30998 0.0
C667 C 0.98484 0.40154 0.37836 0.0
C668 C 0.99653 0.39713 0.43132 0.0
C669 C 0.01364 0.39157 0.41797 0.0
C670 C 0.02375 0.38801 0.48377 0.0
C671 C 0.02927 0.36842 0.48843 0.0
C672 C 0.03987 0.40038 0.49018 0.0
C673 C 0.00969 0.39249 0.53642 0.0
C674 C 0.99405 0.39767 0.50537 0.0
C675 C 0.97916 0.40228 0.54394 0.0
C676 C 0.98029 0.40148 0.61618 0.0
C677 C 0.99623 0.3962 0.64879 0.0
C678 C 0.01109 0.39174 0.60809 0.0
H679 H 0.8754 0.73186 0.52846 0.0
H680 H 0.89659 0.78543 0.53915 0.0
H681 H 0.89153 0.78577 0.66374 0.0
H682 H 0.84223 0.7362 0.65423 0.0
H683 H 0.84545 0.71481 0.69363 0.0
H684 H 0.85094 0.71806 0.60404 0.0
H685 H 0.88297 0.7072 0.62621 0.0
H686 H 0.87749 0.70354 0.71558 0.0
H687 H 0.89598 0.71751 0.69313 0.0
H688 H 0.88141 0.78213 0.78296 0.0
H689 H 0.87266 0.77226 0.8987 0.0
H690 H 0.86122 0.71974 0.81809 0.0
C691 C 0.87953 0.74346 0.55671 0.0
C692 C 0.88635 0.75866 0.52283 0.0
C693 C 0.89112 0.77366 0.56302 0.0
C694 C 0.8883 0.77405 0.63414 0.0
C695 C 0.88102 0.75918 0.66528 0.0
C696 C 0.8772 0.74395 0.6287 0.0
C697 C 0.86996 0.7297 0.6765 0.0
C698 C 0.85102 0.72438 0.65584 0.0
C699 C 0.88234 0.71353 0.67795 0.0
C700 C 0.87012 0.73951 0.74506 0.0
C701 C 0.87624 0.75661 0.73657 0.0
C702 C 0.87685 0.76868 0.79074 0.0
C703 C 0.87166 0.76297 0.85622 0.0
C704 C 0.86626 0.74522 0.86749 0.0
C705 C 0.86533 0.73337 0.81092 0.0
H706 H 0.49545 0.60468 0.83924 0.0
H707 H 0.54804 0.61866 0.76656 0.0
H708 H 0.55974 0.6148 0.88387 0.0
H709 H 0.49833 0.62897 0.99424 0.0
H710 H 0.48584 0.61331 0.04489 0.0
H711 H 0.48195 0.61506 0.95354 0.0
H712 H 0.48819 0.58149 0.93938 0.0
H713 H 0.49212 0.57963 0.03082 0.0
H714 H 0.5088 0.57243 0.9704 0.0
H715 H 0.56552 0.61111 0.01078 0.0
H716 H 0.56457 0.6096 0.13786 0.0
H717 H 0.50797 0.59947 0.12944 0.0
C718 C 0.50949 0.60669 0.84766 0.0
C719 C 0.5209 0.61132 0.79254 0.0
C720 C 0.5391 0.61423 0.80646 0.0
C721 C 0.54588 0.61226 0.87347 0.0
C722 C 0.53428 0.60758 0.92634 0.0
C723 C 0.51644 0.60494 0.91428 0.0
C724 C 0.50655 0.60129 0.98087 0.0
C725 C 0.49233 0.61551 0.99415 0.0
C726 C 0.49844 0.5826 0.98031 0.0
C727 C 0.52156 0.60261 0.03248 0.0
C728 C 0.53749 0.60602 -0.00014 0.0
C729 C 0.55314 0.60834 0.03685 0.0
C730 C 0.55246 0.60743 0.10911 0.0
C731 C 0.53621 0.6044 0.14383 0.0
C732 C 0.52063 0.6017 0.1046 0.0
H733 H 0.6342 0.27403 0.31015 0.0
H734 H 0.68554 0.25099 0.3567 0.0
H735 H 0.69158 0.24803 0.23214 0.0
H736 H 0.62334 0.24609 0.17812 0.0
H737 H 0.61252 0.26233 0.1245 0.0
H738 H 0.61336 0.26546 0.21638 0.0
H739 H 0.62822 0.2961 0.19935 0.0
H740 H 0.62734 0.29312 0.10708 0.0
H741 H 0.64819 0.29776 0.14866 0.0
H742 H 0.69005 0.24307 0.10574 0.0
H743 H 0.68151 0.23755 0.98453 0.0
H744 H 0.63167 0.26467 0.01823 0.0
C745 C 0.6469 0.26877 0.29419 0.0
C746 C 0.6594 0.26273 0.34311 0.0
C747 C 0.67579 0.25575 0.32015 0.0
C748 C 0.67936 0.25407 0.2495 0.0
C749 C 0.66653 0.25966 0.20263 0.0
C750 C 0.65071 0.26709 0.22391 0.0
C751 C 0.63853 0.27061 0.16329 0.0
C752 C 0.6209 0.26051 0.17106 0.0
C753 C 0.63539 0.29059 0.15406 0.0
C754 C 0.64961 0.26318 0.10495 0.0
C755 C 0.66581 0.25715 0.12876 0.0
C756 C 0.67762 0.24813 0.08613 0.0
C757 C 0.67264 0.24498 0.01768 0.0
C758 C 0.65608 0.25091 0.99265 0.0
C759 C 0.64458 0.26043 0.03622 0.0
H760 H 0.35961 0.26026 0.34696 0.0
H761 H 0.36375 0.20312 0.3678 0.0
H762 H 0.36854 0.20042 0.24247 0.0
H763 H 0.33663 0.2597 0.17865 0.0
H764 H 0.34821 0.27906 0.1481 0.0
H765 H 0.3439 0.27638 0.23897 0.0
H766 H 0.37741 0.2799 0.26438 0.0
H767 H 0.38185 0.28242 0.17364 0.0
H768 H 0.39305 0.26542 0.22226 0.0
H769 H 0.37603 0.20417 0.11616 0.0
H770 H 0.383 0.21386 0.9981 0.0
H771 H 0.37217 0.26833 0.0572 0.0
C772 C 0.36119 0.24715 0.32505 0.0
C773 C 0.36126 0.23191 0.36763 0.0
C774 C 0.36355 0.21502 0.33661 0.0
C775 C 0.36634 0.21333 0.26528 0.0
C776 C 0.36663 0.22862 0.2251 0.0
C777 C 0.36386 0.24519 0.25366 0.0
C778 C 0.36521 0.25954 0.1991 0.0
C779 C 0.34743 0.26924 0.19071 0.0
C780 C 0.38028 0.27258 0.21587 0.0
C781 C 0.36951 0.24847 0.13585 0.0
C782 C 0.37029 0.23068 0.15187 0.0
C783 C 0.37498 0.21804 0.10259 0.0
C784 C 0.37873 0.22369 0.03498 0.0
C785 C 0.37756 0.24184 0.01666 0.0
C786 C 0.37299 0.25431 0.06857 0.0
H787 H 0.15724 0.76887 0.51703 0.0
H788 H 0.12955 0.7184 0.52888 0.0
H789 H 0.13339 0.71824 0.65422 0.0
H790 H 0.1886 0.76111 0.64622 0.0
H791 H 0.18794 0.78291 0.68413 0.0
H792 H 0.18257 0.77998 0.59429 0.0
H793 H 0.15208 0.79496 0.613 0.0
H794 H 0.1575 0.7983 0.70264 0.0
H795 H 0.13749 0.78671 0.67931 0.0
H796 H 0.14309 0.7212 0.77386 0.0
H797 H 0.15284 0.73018 0.88945 0.0
H798 H 0.17138 0.78044 0.80734 0.0
C799 C 0.15143 0.75809 0.5458 0.0
C800 C 0.1431 0.74361 0.51228 0.0
C801 C 0.13616 0.72957 0.55277 0.0
C802 C 0.13826 0.72931 0.62423 0.0
C803 C 0.14704 0.74338 0.65521 0.0
C804 C 0.15306 0.75778 0.61808 0.0
C805 C 0.16182 0.77121 0.66568 0.0
C806 C 0.18139 0.77396 0.6464 0.0
C807 C 0.15161 0.78884 0.66513 0.0
C808 C 0.16002 0.76183 0.73474 0.0
C809 C 0.15171 0.74566 0.7267 0.0
C810 C 0.14934 0.73396 0.7813 0.0
C811 C 0.15513 0.73913 0.84667 0.0
C812 C 0.16288 0.75601 0.85739 0.0
C813 C 0.16545 0.76749 0.80053 0.0
H814 H 0.14372 0.26872 0.46728 0.0
H815 H 0.16364 0.21857 0.54462 0.0
H816 H 0.16988 0.20897 0.42555 0.0
H817 H 0.12381 0.25227 0.30997 0.0
H818 H 0.13049 0.27131 0.26025 0.0
H819 H 0.12639 0.27351 0.35139 0.0
H820 H 0.15788 0.28657 0.36775 0.0
H821 H 0.16216 0.2842 0.27679 0.0
H822 H 0.17684 0.2741 0.33867 0.0
H823 H 0.17447 0.20511 0.29651 0.0
H824 H 0.17677 0.20735 0.16941 0.0
H825 H 0.15576 0.26085 0.17868 0.0
C826 C 0.14918 0.25561 0.45927 0.0
C827 C 0.15257 0.24419 0.51556 0.0
C828 C 0.16007 0.22729 0.50267 0.0
C829 C 0.16395 0.2218 0.43502 0.0
C830 C 0.16051 0.23347 0.38088 0.0
C831 C 0.1533 0.25003 0.39239 0.0
C832 C 0.15143 0.26036 0.32586 0.0
C833 C 0.13187 0.2646 0.311 0.0
C834 C 0.16276 0.27731 0.32739 0.0
C835 C 0.15872 0.24702 0.27493 0.0
C836 C 0.16383 0.23156 0.30749 0.0
C837 C 0.17057 0.21719 0.27056 0.0
C838 C 0.17186 0.2186 0.19843 0.0
C839 C 0.16659 0.23431 0.16412 0.0
C840 C 0.16014 0.24874 0.20332 0.0
H841 H 0.3611 0.743 0.63823 0.0
H842 H 0.37458 0.79875 0.621 0.0
H843 H 0.3759 0.80102 0.74796 0.0
H844 H 0.33362 0.74746 0.79513 0.0
H845 H 0.34113 0.72658 0.8295 0.0
H846 H 0.33985 0.72976 0.73748 0.0
H847 H 0.37294 0.72105 0.72594 0.0
H848 H 0.37436 0.71795 0.81781 0.0
H849 H 0.38936 0.73296 0.77513 0.0
H850 H 0.37933 0.79625 0.87587 0.0
H851 H 0.38244 0.78542 0.99477 0.0
H852 H 0.3646 0.73333 0.92939 0.0
C853 C 0.36406 0.75575 0.66117 0.0
C854 C 0.36775 0.77069 0.61973 0.0
C855 C 0.37161 0.78714 0.65172 0.0
C856 C 0.37242 0.78856 0.72381 0.0
C857 C 0.36907 0.77349 0.76317 0.0
C858 C 0.36472 0.75746 0.73301 0.0
C859 C 0.36228 0.74313 0.7868 0.0
C860 C 0.34308 0.73634 0.78724 0.0
C861 C 0.37553 0.72788 0.77574 0.0
C862 C 0.36646 0.75349 0.8517 0.0
C863 C 0.3703 0.77097 0.83711 0.0
C864 C 0.3758 0.78273 0.88828 0.0
C865 C 0.37732 0.77646 0.95623 0.0
C866 C 0.37312 0.75864 0.97264 0.0
C867 C 0.36762 0.74711 0.91918 0.0
H868 H 0.52314 0.11658 0.84235 0.0
H869 H 0.47197 0.09051 0.83174 0.0
H870 H 0.47051 0.09014 0.9595 0.0
H871 H 0.53981 0.09415 0.99242 0.0
H872 H 0.55054 0.11367 0.02606 0.0
H873 H 0.54768 0.11108 0.93438 0.0
H874 H 0.5314 0.14131 0.92926 0.0
H875 H 0.5341 0.14394 0.021 0.0
H876 H 0.5123 0.14497 0.98328 0.0
H877 H 0.47538 0.09202 0.08918 0.0
H878 H 0.48538 0.09697 0.20839 0.0
H879 H 0.53207 0.12421 0.13157 0.0
C880 C 0.51171 0.1106 0.8668 0.0
C881 C 0.49774 0.1034 0.82736 0.0
C882 C 0.48284 0.09603 0.86123 0.0
C883 C 0.48191 0.09576 0.93362 0.0
C884 C 0.49588 0.10314 0.97098 0.0
C885 C 0.51043 0.11051 0.93858 0.0
C886 C 0.5234 0.11815 0.98999 0.0
C887 C 0.54142 0.10869 0.98544 0.0
C888 C 0.5254 0.13829 0.98029 0.0
C889 C 0.51395 0.11383 0.05659 0.0
C890 C 0.49816 0.10509 0.04482 0.0
C891 C 0.48754 0.0992 0.09896 0.0
C892 C 0.49323 0.10235 0.16686 0.0
C893 C 0.50923 0.11161 0.17997 0.0
C894 C 0.51964 0.11733 0.12365 0.0
H895 H 0.03026 0.86941 0.67796 0.0
H896 H 0.00174 0.91891 0.6992 0.0
H897 H 0.00769 0.92593 0.5769 0.0
H898 H 0.06347 0.88485 0.54381 0.0
H899 H 0.06227 0.86399 0.49866 0.0
H900 H 0.05934 0.86468 0.59098 0.0
H901 H 0.02908 0.84879 0.57797 0.0
H902 H 0.03185 0.84816 0.48592 0.0
H903 H 0.01239 0.8583 0.52269 0.0
H904 H 0.01256 0.92556 0.45127 0.0
H905 H 0.01521 0.91751 0.32858 0.0
H906 H 0.03978 0.86763 0.38626 0.0
C907 C 0.02591 0.88199 0.65707 0.0
C908 C 0.01583 0.89381 0.69732 0.0
C909 C 0.00965 0.90985 0.6686 0.0
C910 C 0.01305 0.91397 0.59954 0.0
C911 C 0.02256 0.90182 0.56013 0.0
C912 C 0.02896 0.88615 0.58771 0.0
C913 C 0.03656 0.8743 0.53199 0.0
C914 C 0.05661 0.87181 0.54196 0.0
C915 C 0.02688 0.85634 0.52951 0.0
C916 C 0.03265 0.88537 0.46865 0.0
C917 C 0.02497 0.90137 0.48629 0.0
C918 C 0.01885 0.91322 0.43671 0.0
C919 C 0.02033 0.90848 0.36715 0.0
C920 C 0.02769 0.89194 0.34792 0.0
C921 C 0.03428 0.88045 0.39938 0.0
H922 H 0.49538 0.91785 0.09985 0.0
H923 H 0.512 0.86426 0.14735 0.0
H924 H 0.50965 0.85617 0.0241 0.0
H925 H 0.46535 0.90728 0.95396 0.0
H926 H 0.47248 0.92619 0.90442 0.0
H927 H 0.47259 0.92713 0.9974 0.0
H928 H 0.50591 0.93553 0.99616 0.0
H929 H 0.50581 0.93481 0.90344 0.0
H930 H 0.5214 0.92148 0.95107 0.0
H931 H 0.5071 0.85425 0.8963 0.0
H932 H 0.5093 0.85988 0.77071 0.0
H933 H 0.49702 0.91524 0.80509 0.0
C934 C 0.49821 0.90437 0.08402 0.0
C935 C 0.50371 0.89159 0.13233 0.0
C936 C 0.50777 0.87418 0.11045 0.0
C937 C 0.50629 0.86943 0.04089 0.0
C938 C 0.50093 0.88234 0.99403 0.0
C939 C 0.49726 0.89954 0.01439 0.0
C940 C 0.49412 0.91141 0.95269 0.0
C941 C 0.47499 0.91841 0.95211 0.0
C942 C 0.50762 0.9267 0.95073 0.0
C943 C 0.49716 0.89832 0.89464 0.0
C944 C 0.50046 0.88149 0.91962 0.0
C945 C 0.50434 0.86731 0.87597 0.0
C946 C 0.50546 0.87057 0.80493 0.0
C947 C 0.50307 0.88789 0.77907 0.0
C948 C 0.49857 0.90184 0.82413 0.0
H949 H 0.0227 0.13053 0.31221 0.0
H950 H 0.00657 0.07553 0.2998 0.0
H951 H 0.01373 0.0715 0.42314 0.0
H952 H 0.05845 0.12477 0.44697 0.0
H953 H 0.05248 0.14523 0.489 0.0
H954 H 0.04968 0.14291 0.39703 0.0
H955 H 0.01657 0.15142 0.40928 0.0
H956 H 0.01922 0.15365 0.50104 0.0
H957 H 0.00261 0.13888 0.46689 0.0
H958 H 0.01844 0.07433 0.54793 0.0
H959 H 0.01949 0.08391 0.66901 0.0
H960 H 0.03177 0.13756 0.6035 0.0
C961 C 0.02133 0.11754 0.33531 0.0
C962 C 0.01443 0.10322 0.29716 0.0
C963 C 0.01204 0.08654 0.32874 0.0
C964 C 0.01616 0.08413 0.3984 0.0
C965 C 0.02254 0.09859 0.43546 0.0
C966 C 0.02514 0.115 0.40522 0.0
C967 C 0.02984 0.12888 0.45869 0.0
C968 C 0.04874 0.13586 0.44723 0.0
C969 C 0.01624 0.1441 0.45897 0.0
C970 C 0.02868 0.11788 0.52386 0.0
C971 C 0.02485 0.10037 0.50894 0.0
C972 C 0.02174 0.08792 0.56038 0.0
C973 C 0.02226 0.09353 0.62904 0.0
C974 C 0.0257 0.11149 0.64566 0.0
C975 C 0.02933 0.12371 0.59235 0.0
H976 H 0.02857 0.53616 0.07527 0.0
H977 H 0.98416 0.55278 0.94927 0.0
H978 H 0.97925 0.52179 0.91269 0.0
H979 H 0.04547 0.50428 0.95985 0.0
H980 H 0.05174 0.48841 0.02488 0.0
H981 H 0.05108 0.51166 0.04561 0.0
H982 H 0.02942 0.50542 0.14651 0.0
H983 H 0.03021 0.48209 0.1267 0.0
H984 H 0.00921 0.49341 0.13003 0.0
H985 H 0.98041 0.48949 0.88356 0.0
H986 H 0.98611 0.45732 0.87142 0.0
H987 H 0.02961 0.46147 0.01651 0.0
C988 C 0.01758 0.53313 0.04137 0.0
C989 C 0.00666 0.54672 0.01517 0.0
C990 C 0.99261 0.54245 0.96977 0.0
C991 C 0.98975 0.52493 0.9487 0.0
C992 C 0.00102 0.51184 0.97383 0.0
C993 C 0.01451 0.51565 0.01986 0.0
C994 C 0.02496 0.49911 0.03754 0.0
C995 C 0.04446 0.50099 0.01564 0.0
C996 C 0.02335 0.49475 0.11478 0.0
C997 C 0.01538 0.48553 0.99361 0.0
C998 C 0.00163 0.49315 0.95719 0.0
C999 C 0.99108 0.48334 0.91212 0.0
C1000 C 0.99448 0.46515 0.90505 0.0
C1001 C 0.00827 0.45705 0.94296 0.0
C1002 C 0.01892 0.46741 0.98727 0.0
H1003 H 0.79787 0.73694 0.18234 0.0
H1004 H 0.81765 0.78166 0.29973 0.0
H1005 H 0.78767 0.78684 0.34712 0.0
H1006 H 0.75436 0.75619 0.1418 0.0
H1007 H 0.74295 0.73533 0.1504 0.0
H1008 H 0.76576 0.73577 0.12283 0.0
H1009 H 0.77411 0.71457 0.22281 0.0
H1010 H 0.75138 0.71416 0.25097 0.0
H1011 H 0.76861 0.72061 0.31026 0.0
H1012 H 0.75606 0.7863 0.3859 0.0
H1013 H 0.72439 0.78061 0.41079 0.0
H1014 H 0.72497 0.73624 0.2687 0.0
C1015 C 0.79574 0.74797 0.21714 0.0
C1016 C 0.80995 0.75891 0.23771 0.0
C1017 C 0.80686 0.7731 0.28391 0.0
C1018 C 0.78992 0.77615 0.31088 0.0
C1019 C 0.77621 0.76493 0.29077 0.0
C1020 C 0.77887 0.7512 0.24462 0.0
C1021 C 0.76193 0.74081 0.23316 0.0
C1022 C 0.7559 0.74211 0.15755 0.0
C1023 C 0.76415 0.72139 0.25566 0.0
C1024 C 0.74944 0.75071 0.28074 0.0
C1025 C 0.75794 0.76461 0.3133 0.0
C1026 C 0.74924 0.77549 0.36059 0.0
C1027 C 0.73134 0.77211 0.37476 0.0
C1028 C 0.72241 0.75796 0.34195 0.0
C1029 C 0.73157 0.74717 0.29428 0.0
H1030 H 0.52878 0.5406 0.53734 0.0
H1031 H 0.48589 0.5451 0.38984 0.0
H1032 H 0.47888 0.5133 0.40572 0.0
H1033 H 0.54349 0.49785 0.48166 0.0
H1034 H 0.54918 0.49026 0.56701 0.0
H1035 H 0.55003 0.51354 0.54707 0.0
H1036 H 0.52878 0.52004 0.64904 0.0
H1037 H 0.52772 0.49672 0.66886 0.0
H1038 H 0.50763 0.50897 0.6529 0.0
H1039 H 0.47677 0.48131 0.43639 0.0
H1040 H 0.48147 0.45015 0.47059 0.0
H1041 H 0.52654 0.46577 0.5951 0.0
C1042 C 0.51789 0.5348 0.50874 0.0
C1043 C 0.50781 0.54511 0.46241 0.0
C1044 C 0.49376 0.53726 0.42522 0.0
C1045 C 0.48963 0.5193 0.43434 0.0
C1046 C 0.49977 0.50945 0.48062 0.0
C1047 C 0.51374 0.51683 0.51667 0.0
C1048 C 0.52317 0.50302 0.56007 0.0
C1049 C 0.54262 0.50106 0.53758 0.0
C1050 C 0.52173 0.50746 0.63731 0.0
C1051 C 0.51244 0.48667 0.54215 0.0
C1052 C 0.49885 0.49079 0.49704 0.0
C1053 C 0.48735 0.47793 0.47166 0.0
C1054 C 0.49012 0.4603 0.49131 0.0
C1055 C 0.50438 0.45568 0.53512 0.0
C1056 C 0.51544 0.46906 0.56211 0.0
H1057 H 0.79721 0.23417 0.83573 0.0
H1058 H 0.81573 0.28143 0.73133 0.0
H1059 H 0.78537 0.28724 0.68888 0.0
H1060 H 0.76737 0.22023 0.70514 0.0
H1061 H 0.75062 0.21222 0.76363 0.0
H1062 H 0.77352 0.21236 0.78963 0.0
H1063 H 0.7655 0.23112 0.89727 0.0
H1064 H 0.74254 0.23095 0.87177 0.0
H1065 H 0.75373 0.25172 0.88644 0.0
H1066 H 0.75354 0.28716 0.65357 0.0
H1067 H 0.72184 0.28153 0.6294 0.0
H1068 H 0.72384 0.23411 0.75527 0.0
C1069 C 0.79472 0.24584 0.80474 0.0
C1070 C 0.80865 0.25738 0.78646 0.0
C1071 C 0.80513 0.27245 0.74537 0.0
C1072 C 0.78797 0.27585 0.72124 0.0
C1073 C 0.77452 0.26406 0.73898 0.0
C1074 C 0.77764 0.2494 0.78004 0.0
C1075 C 0.76092 0.23854 0.78948 0.0
C1076 C 0.76326 0.21973 0.76021 0.0
C1077 C 0.75535 0.23806 0.86578 0.0
C1078 C 0.748 0.24926 0.74666 0.0
C1079 C 0.75612 0.26397 0.71827 0.0
C1080 C 0.74701 0.27573 0.67572 0.0
C1081 C 0.72909 0.27239 0.66198 0.0
C1082 C 0.72053 0.25743 0.69054 0.0
C1083 C 0.73011 0.24573 0.73337 0.0
H1084 H 0.22313 0.26559 0.75437 0.0
H1085 H 0.22262 0.22165 0.89833 0.0
H1086 H 0.25421 0.2158 0.87306 0.0
H1087 H 0.25213 0.2452 0.62766 0.0
H1088 H 0.26356 0.26553 0.60757 0.0
H1089 H 0.24084 0.26614 0.63613 0.0
H1090 H 0.24949 0.28744 0.73553 0.0
H1091 H 0.27219 0.28698 0.70703 0.0
H1092 H 0.26679 0.28111 0.79469 0.0
H1093 H 0.28565 0.21494 0.83355 0.0
H1094 H 0.31562 0.2199 0.78598 0.0
H1095 H 0.296 0.26435 0.66683 0.0
C1096 C 0.22972 0.2547 0.78018 0.0
C1097 C 0.22057 0.24403 0.82824 0.0
C1098 C 0.22953 0.23002 0.86176 0.0
C1099 C 0.24739 0.22654 0.84737 0.0
C1100 C 0.25604 0.23721 0.7993 0.0
C1101 C 0.24756 0.25105 0.76636 0.0
C1102 C 0.26006 0.26076 0.71816 0.0
C1103 C 0.25377 0.25932 0.64291 0.0
C1104 C 0.26226 0.28022 0.7402 0.0
C1105 C 0.27695 0.2503 0.72963 0.0
C1106 C 0.27426 0.23671 0.77634 0.0
C1107 C 0.28791 0.22548 0.79676 0.0
C1108 C 0.30485 0.22839 0.76958 0.0
C1109 C 0.30798 0.24241 0.72267 0.0
C1110 C 0.29382 0.25337 0.7018 0.0
H1111 H 0.22466 0.76695 0.27515 0.0
H1112 H 0.22079 0.71682 0.16721 0.0
H1113 H 0.25185 0.70993 0.19838 0.0
H1114 H 0.2682 0.77699 0.22037 0.0
H1115 H 0.27489 0.78725 0.30024 0.0
H1116 H 0.25194 0.78738 0.27525 0.0
H1117 H 0.24353 0.77252 0.39127 0.0
H1118 H 0.26652 0.77223 0.41641 0.0
H1119 H 0.25392 0.75194 0.41548 0.0
H1120 H 0.28343 0.70921 0.23527 0.0
H1121 H 0.31446 0.7157 0.26764 0.0
H1122 H 0.29837 0.76656 0.3502 0.0
C1123 C 0.23038 0.75445 0.25904 0.0
C1124 C 0.22048 0.74229 0.21937 0.0
C1125 C 0.22829 0.72621 0.19781 0.0
C1126 C 0.24582 0.72217 0.21563 0.0
C1127 C 0.25531 0.73442 0.25483 0.0
C1128 C 0.24794 0.75029 0.27592 0.0
C1129 C 0.26146 0.76171 0.31302 0.0
C1130 C 0.26429 0.77937 0.27493 0.0
C1131 C 0.25603 0.76478 0.38854 0.0
C1132 C 0.27768 0.74993 0.3082 0.0
C1133 C 0.27373 0.73413 0.27537 0.0
C1134 C 0.28666 0.72144 0.26164 0.0
C1135 C 0.30419 0.72519 0.28026 0.0
C1136 C 0.3086 0.74151 0.3117 0.0
C1137 C 0.29516 0.75386 0.3273 0.0
H1138 H 0.52744 0.03603 0.56869 0.0
H1139 H 0.48585 0.05322 0.42983 0.0
H1140 H 0.48177 0.02242 0.38981 0.0
H1141 H 0.54668 0.0042 0.461 0.0
H1142 H 0.55099 0.98806 0.52745 0.0
H1143 H 0.55004 0.01126 0.54894 0.0
H1144 H 0.52569 0.00506 0.64007 0.0
H1145 H 0.5268 0.98177 0.61979 0.0
H1146 H 0.50592 0.99329 0.61493 0.0
H1147 H 0.48429 0.99042 0.3564 0.0
H1148 H 0.49034 0.95828 0.34402 0.0
H1149 H 0.52881 0.96137 0.50948 0.0
C1150 C 0.51715 0.03317 0.5314 0.0
C1151 C 0.50695 0.04692 0.50216 0.0
C1152 C 0.49383 0.04281 0.45247 0.0
C1153 C 0.49144 0.02539 0.42939 0.0
C1154 C 0.50208 0.01217 0.45744 0.0
C1155 C 0.51439 0.01575 0.5085 0.0
C1156 C 0.52414 0.99906 0.52964 0.0
C1157 C 0.54415 0.00076 0.51591 0.0
C1158 C 0.52041 0.99453 0.60562 0.0
C1159 C 0.51566 0.98569 0.48149 0.0
C1160 C 0.50306 0.99356 0.43988 0.0
C1161 C 0.49397 0.98405 0.38927 0.0
C1162 C 0.49758 0.9659 0.38209 0.0
C1163 C 0.51001 0.95753 0.42574 0.0
C1164 C 0.5192 0.96756 0.47573 0.0
H1165 H 1.00004 0.96424 0.07567 0.0
H1166 H 0.0462 0.94887 0.95691 0.0
H1167 H 0.05113 0.98015 0.92387 0.0
H1168 H 0.98411 0.99623 0.95893 0.0
H1169 H 0.97663 0.01169 0.02361 0.0
H1170 H 0.97749 0.98837 0.04292 0.0
H1171 H 0.9976 0.99463 0.14853 0.0
H1172 H 0.99662 0.01802 0.13007 0.0
H1173 H 0.01777 0.00708 0.13701 0.0
H1174 H 0.04989 0.01263 0.89761 0.0
H1175 H 0.04359 0.0447 0.88588 0.0
H1176 H 0.99813 0.03903 0.02075 0.0
C1177 C 0.01139 0.96761 0.04404 0.0
C1178 C 0.02282 0.95432 0.01888 0.0
C1179 C 0.03736 0.959 0.9766 0.0
C1180 C 0.04024 0.97667 0.95757 0.0
C1181 C 0.02846 0.98948 0.98158 0.0
C1182 C 0.01443 0.98523 0.02447 0.0
C1183 C 0.00342 0.00147 0.04105 0.0
C1184 C 0.98428 0.9993 0.01506 0.0
C1185 C 0.00389 0.00554 0.11878 0.0
C1186 C 0.0133 0.01541 6e-05 0.0
C1187 C 0.02772 0.00822 0.9662 0.0
C1188 C 0.03869 0.01844 0.92414 0.0
C1189 C 0.03495 0.03657 0.91728 0.0
C1190 C 0.02038 0.0442 0.95221 0.0
C1191 C 0.00939 0.03346 0.99376 0.0
H1192 H 0.10942 0.7074 0.20301 0.0
H1193 H 0.13575 0.70321 0.0042 0.0
H1194 H 0.11694 0.67773 0.97453 0.0
H1195 H 0.10287 0.65939 0.23005 0.0
H1196 H 0.08131 0.66233 0.26842 0.0
H1197 H 0.09791 0.67935 0.27744 0.0
H1198 H 0.07627 0.70238 0.22529 0.0
H1199 H 0.05963 0.68546 0.21621 0.0
H1200 H 0.06645 0.69817 0.14208 0.0
H1201 H 0.09412 0.65458 0.96157 0.0
H1202 H 0.06803 0.63505 0.96538 0.0
H1203 H 0.05612 0.65342 0.1726 0.0
C1204 C 0.11139 0.70096 0.15365 0.0
C1205 C 0.12412 0.70733 0.10602 0.0
C1206 C 0.12612 0.69864 0.04162 0.0
C1207 C 0.11554 0.68408 0.02432 0.0
C1208 C 0.10303 0.67827 0.07197 0.0
C1209 C 0.10088 0.68638 0.13535 0.0
C1210 C 0.08566 0.67807 0.17513 0.0
C1211 C 0.09234 0.66926 0.24171 0.0
C1212 C 0.07115 0.69184 0.19055 0.0
C1213 C 0.07937 0.66435 0.12337 0.0
C1214 C 0.08973 0.66465 0.06456 0.0
C1215 C 0.08602 0.65405 0.00762 0.0
C1216 C 0.07114 0.64304 0.01023 0.0
C1217 C 0.06012 0.64265 0.0694 0.0
C1218 C 0.0645 0.65321 0.12723 0.0
H1219 H 0.56014 0.84955 0.32995 0.0
H1220 H 0.56003 0.86188 0.54887 0.0
H1221 H 0.58499 0.84128 0.56645 0.0
H1222 H 0.56814 0.80375 0.34929 0.0
H1223 H 0.5822 0.80178 0.27449 0.0
H1224 H 0.56542 0.8187 0.27753 0.0
H1225 H 0.58922 0.84275 0.25478 0.0
H1226 H 0.6061 0.82587 0.25151 0.0
H1227 H 0.60826 0.84418 0.31067 0.0
H1228 H 0.60872 0.81841 0.56183 0.0
H1229 H 0.62934 0.79403 0.53624 0.0
H1230 H 0.61382 0.79582 0.32039 0.0
C1231 C 0.56556 0.84814 0.38139 0.0
C1232 C 0.55819 0.85741 0.43801 0.0
C1233 C 0.56545 0.85493 0.50472 0.0
C1234 C 0.57967 0.84331 0.51521 0.0
C1235 C 0.58646 0.83421 0.45852 0.0
C1236 C 0.57966 0.83644 0.39292 0.0
C1237 C 0.5887 0.82421 0.3417 0.0
C1238 C 0.57532 0.81135 0.30885 0.0
C1239 C 0.59866 0.83489 0.2864 0.0
C1240 C 0.60145 0.81459 0.38904 0.0
C1241 C 0.60004 0.82071 0.45603 0.0
C1242 C 0.61004 0.81357 0.5095 0.0
C1243 C 0.62171 0.79968 0.49434 0.0
C1244 C 0.62325 0.79295 0.42623 0.0
C1245 C 0.61305 0.80069 0.37288 0.0
H1246 H 0.47107 0.34705 0.68844 0.0
H1247 H 0.45798 0.36786 0.48601 0.0
H1248 H 0.43112 0.34939 0.48318 0.0
H1249 H 0.45915 0.30329 0.65193 0.0
H1250 H 0.45006 0.29836 0.73577 0.0
H1251 H 0.46698 0.315 0.7271 0.0
H1252 H 0.44653 0.33802 0.78626 0.0
H1253 H 0.42952 0.32141 0.79524 0.0
H1254 H 0.42469 0.34198 0.75193 0.0
H1255 H 0.4075 0.32707 0.49612 0.0
H1256 H 0.38866 0.30138 0.52291 0.0
H1257 H 0.41682 0.29409 0.71635 0.0
C1258 C 0.46229 0.34799 0.6444 0.0
C1259 C 0.46653 0.35895 0.58761 0.0
C1260 C 0.45498 0.35954 0.53004 0.0
C1261 C 0.43964 0.34918 0.52808 0.0
C1262 C 0.436 0.33823 0.58404 0.0
C1263 C 0.44694 0.33751 0.6412 0.0
C1264 C 0.44072 0.32338 0.69135 0.0
C1265 C 0.45508 0.30917 0.70213 0.0
C1266 C 0.43503 0.3317 0.76028 0.0
C1267 C 0.42491 0.316 0.6524 0.0
C1268 C 0.42232 0.32497 0.59114 0.0
C1269 C 0.40923 0.32005 0.54432 0.0
C1270 C 0.39863 0.30538 0.55996 0.0
C1271 C 0.40121 0.29571 0.62179 0.0
C1272 C 0.41436 0.30133 0.66908 0.0
H1273 H 0.971 0.15222 0.82372 0.0
H1274 H 0.95843 0.13173 0.02722 0.0
H1275 H 0.93234 0.15125 0.03287 0.0
H1276 H 0.96097 0.19628 0.86057 0.0
H1277 H 0.95144 0.20149 0.77776 0.0
H1278 H 0.9678 0.18424 0.78468 0.0
H1279 H 0.94612 0.16189 0.72841 0.0
H1280 H 0.92969 0.17912 0.72085 0.0
H1281 H 0.92438 0.1588 0.76514 0.0
H1282 H 0.90969 0.17482 0.02277 0.0
H1283 H 0.89131 0.2009 0.99635 0.0
H1284 H 0.91823 0.20661 0.79939 0.0
C1285 C 0.96247 0.15153 0.86858 0.0
C1286 C 0.96669 0.1404 0.92488 0.0
C1287 C 0.95546 0.14016 0.98348 0.0
C1288 C 0.94056 0.15115 0.98712 0.0
C1289 C 0.93703 0.16232 0.93173 0.0
C1290 C 0.94756 0.16256 0.87333 0.0
C1291 C 0.94152 0.17685 0.82358 0.0
C1292 C 0.95631 0.19052 0.81095 0.0
C1293 C 0.93504 0.16867 0.75546 0.0
C1294 C 0.9263 0.18486 0.86408 0.0
C1295 C 0.92386 0.17613 0.92598 0.0
C1296 C 0.91129 0.18163 0.97404 0.0
C1297 C 0.90096 0.19652 0.95864 0.0
C1298 C 0.90326 0.20579 0.89571 0.0
C1299 C 0.916 0.19971 0.8476 0.0
H1300 H 0.11094 0.29504 0.80839 0.0
H1301 H 0.13707 0.30234 0.00609 0.0
H1302 H 0.11808 0.32811 0.02987 0.0
H1303 H 0.10367 0.34293 0.77139 0.0
H1304 H 0.08223 0.33896 0.73347 0.0
H1305 H 0.09929 0.32229 0.72771 0.0
H1306 H 0.07815 0.29939 0.78372 0.0
H1307 H 0.06109 0.31596 0.78992 0.0
H1308 H 0.06822 0.3043 0.86617 0.0
H1309 H 0.09446 0.35066 0.03894 0.0
H1310 H 0.06778 0.36937 0.03134 0.0
H1311 H 0.05684 0.3483 0.82723 0.0
C1312 C 0.11293 0.30231 0.85596 0.0
C1313 C 0.12554 0.29666 0.9053 0.0
C1314 C 0.12751 0.30636 0.96748 0.0
C1315 C 0.11683 0.32109 0.98142 0.0
C1316 C 0.10427 0.32605 0.93258 0.0
C1317 C 0.10231 0.31708 0.87087 0.0
C1318 C 0.08692 0.32448 0.82958 0.0
C1319 C 0.09342 0.33266 0.7615 0.0
C1320 C 0.07276 0.31018 0.81663 0.0
C1321 C 0.08025 0.33863 0.87876 0.0
C1322 C 0.09058 0.33937 0.93757 0.0
C1323 C 0.08643 0.35044 0.99271 0.0
C1324 C 0.0712 0.36095 0.98802 0.0
C1325 C 0.06032 0.36037 0.92853 0.0
C1326 C 0.06509 0.34926 0.87278 0.0
H1327 H 0.97423 0.84701 0.17808 0.0
H1328 H 0.96105 0.86601 0.97303 0.0
H1329 H 0.93505 0.84637 0.97036 0.0
H1330 H 0.96409 0.80253 0.14604 0.0
H1331 H 0.95475 0.79789 0.2297 0.0
H1332 H 0.97112 0.81506 0.22041 0.0
H1333 H 0.94961 0.83781 0.27526 0.0
H1334 H 0.93319 0.82065 0.28522 0.0
H1335 H 0.92779 0.84067 0.2391 0.0
H1336 H 0.91246 0.82305 0.9838 0.0
H1337 H 0.89383 0.79745 0.01388 0.0
H1338 H 0.92121 0.7928 0.21031 0.0
C1339 C 0.96558 0.84733 0.13351 0.0
C1340 C 0.96959 0.85809 0.07589 0.0
C1341 C 0.95823 0.85786 0.0177 0.0
C1342 C 0.94339 0.8468 0.01575 0.0
C1343 C 0.94005 0.83599 0.07238 0.0
C1344 C 0.95071 0.83618 0.1304 0.0
C1345 C 0.94477 0.82222 0.18183 0.0
C1346 C 0.95956 0.80862 0.19524 0.0
C1347 C 0.93846 0.83086 0.24936 0.0
C1348 C 0.92942 0.81395 0.14275 0.0
C1349 C 0.92688 0.82225 0.08003 0.0
C1350 C 0.91414 0.81655 0.03314 0.0
C1351 C 0.90367 0.80193 0.05064 0.0
C1352 C 0.906 0.79311 0.11454 0.0
C1353 C 0.91899 0.79934 0.16134 0.0
H1354 H 0.46976 0.65631 0.48958 0.0
H1355 H 0.46976 0.63281 0.28485 0.0
H1356 H 0.44473 0.65182 0.25172 0.0
H1357 H 0.42121 0.66231 0.50353 0.0
H1358 H 0.42323 0.68333 0.54705 0.0
H1359 H 0.44013 0.66667 0.55773 0.0
H1360 H 0.46396 0.68908 0.51725 0.0
H1361 H 0.44716 0.70577 0.50632 0.0
H1362 H 0.46139 0.69997 0.43507 0.0
H1363 H 0.42166 0.67458 0.23674 0.0
H1364 H 0.40156 0.70019 0.24043 0.0
H1365 H 0.41584 0.70952 0.45453 0.0
C1366 C 0.46428 0.65496 0.43822 0.0
C1367 C 0.47172 0.64302 0.38987 0.0
C1368 C 0.46434 0.64186 0.32278 0.0
C1369 C 0.45005 0.65255 0.30349 0.0
C1370 C 0.44322 0.66435 0.3518 0.0
C1371 C 0.45 0.66565 0.41783 0.0
C1372 C 0.44082 0.68029 0.45801 0.0
C1373 C 0.43075 0.67269 0.52027 0.0
C1374 C 0.45413 0.69463 0.48046 0.0
C1375 C 0.42814 0.68723 0.40361 0.0
C1376 C 0.4297 0.67769 0.34303 0.0
C1377 C 0.42015 0.68205 0.28406 0.0
C1378 C 0.40882 0.69668 0.28666 0.0
C1379 C 0.40708 0.70685 0.34781 0.0
C1380 C 0.4167 0.70186 0.40737 0.0
H1381 H 0.60997 0.20771 0.69104 0.0
H1382 H 0.6372 0.20294 0.49438 0.0
H1383 H 0.61914 0.17678 0.46606 0.0
H1384 H 0.60402 0.15955 0.72207 0.0
H1385 H 0.58225 0.16247 0.75854 0.0
H1386 H 0.59864 0.1797 0.76746 0.0
H1387 H 0.57704 0.20223 0.71188 0.0
H1388 H 0.56062 0.18511 0.70286 0.0
H1389 H 0.56769 0.19749 0.62827 0.0
H1390 H 0.59668 0.15324 0.45343 0.0
H1391 H 0.57053 0.13376 0.45624 0.0
H1392 H 0.55746 0.15309 0.66103 0.0
C1393 C 0.61236 0.20095 0.6426 0.0
C1394 C 0.62506 0.20737 0.59502 0.0
C1395 C 0.62756 0.19832 0.53166 0.0
C1396 C 0.61743 0.18337 0.51521 0.0
C1397 C 0.60486 0.17756 0.56266 0.0
C1398 C 0.60226 0.18601 0.62511 0.0
C1399 C 0.58693 0.17777 0.66437 0.0
C1400 C 0.59335 0.16937 0.73213 0.0
C1401 C 0.5722 0.19147 0.67758 0.0
C1402 C 0.58103 0.16371 0.61326 0.0
C1403 C 0.59174 0.16375 0.55535 0.0
C1404 C 0.58835 0.15289 0.49885 0.0
C1405 C 0.57342 0.14192 0.50087 0.0
C1406 C 0.56205 0.14184 0.55901 0.0
C1407 C 0.56613 0.15262 0.61653 0.0
H1408 H 0.97463 0.34657 0.83175 0.0
H1409 H 0.96275 0.36359 0.04082 0.0
H1410 H 0.93636 0.34433 0.04165 0.0
H1411 H 0.92873 0.34256 0.77169 0.0
H1412 H 0.93313 0.32291 0.72159 0.0
H1413 H 0.95039 0.33908 0.73481 0.0
H1414 H 0.97078 0.31472 0.78533 0.0
H1415 H 0.95363 0.29849 0.7721 0.0
H1416 H 0.96305 0.30151 0.85676 0.0
H1417 H 0.91219 0.32278 0.02234 0.0
H1418 H 0.89244 0.29856 0.98762 0.0
H1419 H 0.92001 0.29436 0.79141 0.0
C1420 C 0.96634 0.3464 0.87738 0.0
C1421 C 0.97071 0.35664 0.93623 0.0
C1422 C 0.95971 0.35583 0.99532 0.0
C1423 C 0.94463 0.34502 0.9961 0.0
C1424 C 0.94076 0.33504 0.93751 0.0
C1425 C 0.95131 0.33551 0.87934 0.0
C1426 C 0.94474 0.32256 0.82508 0.0
C1427 C 0.9389 0.33237 0.7594 0.0
C1428 C 0.95889 0.30849 0.8089 0.0
C1429 C 0.92899 0.31454 0.86239 0.0
C1430 C 0.92687 0.32216 0.92676 0.0
C1431 C 0.91367 0.31674 0.972 0.0
C1432 C 0.90253 0.3029 0.95168 0.0
C1433 C 0.90467 0.29445 0.88677 0.0
C1434 C 0.91792 0.30061 0.84106 0.0
H1435 H 0.47542 0.15403 0.65888 0.0
H1436 H 0.46626 0.14362 0.4413 0.0
H1437 H 0.44007 0.16303 0.4441 0.0
H1438 H 0.42883 0.15677 0.71112 0.0
H1439 H 0.43255 0.17478 0.77053 0.0
H1440 H 0.44996 0.159 0.75366 0.0
H1441 H 0.47102 0.18456 0.71863 0.0
H1442 H 0.45372 0.2004 0.73552 0.0
H1443 H 0.46428 0.19984 0.65212 0.0
H1444 H 0.4158 0.18375 0.46798 0.0
H1445 H 0.39545 0.20665 0.50875 0.0
H1446 H 0.42014 0.20522 0.71142 0.0
C1447 C 0.46777 0.1557 0.61205 0.0
C1448 C 0.47283 0.14721 0.54986 0.0
C1449 C 0.46267 0.14995 0.48944 0.0
C1450 C 0.44771 0.16089 0.4906 0.0
C1451 C 0.44313 0.16908 0.55248 0.0
C1452 C 0.45287 0.16679 0.61206 0.0
C1453 C 0.44555 0.17811 0.6704 0.0
C1454 C 0.43882 0.16646 0.72995 0.0
C1455 C 0.45947 0.19152 0.69562 0.0
C1456 C 0.43033 0.18729 0.63379 0.0
C1457 C 0.42913 0.18162 0.5661 0.0
C1458 C 0.41654 0.18828 0.5209 0.0
C1459 C 0.40501 0.20136 0.54486 0.0
C1460 C 0.40613 0.20785 0.61353 0.0
C1461 C 0.41885 0.20049 0.6589 0.0
H1462 H 0.61362 0.70469 0.31354 0.0
H1463 H 0.63688 0.70055 0.51804 0.0
H1464 H 0.61701 0.67575 0.5449 0.0
H1465 H 0.56997 0.69705 0.3634 0.0
H1466 H 0.56381 0.6839 0.2895 0.0
H1467 H 0.58122 0.70009 0.28216 0.0
H1468 H 0.60281 0.67586 0.23856 0.0
H1469 H 0.5854 0.65959 0.24527 0.0
H1470 H 0.60614 0.65614 0.28936 0.0
H1471 H 0.59246 0.65425 0.55617 0.0
H1472 H 0.56574 0.63553 0.54734 0.0
H1473 H 0.55875 0.65218 0.33472 0.0
C1474 C 0.61481 0.69829 0.36332 0.0
C1475 C 0.62682 0.70465 0.41364 0.0
C1476 C 0.62778 0.69602 0.47856 0.0
C1477 C 0.61657 0.68185 0.49442 0.0
C1478 C 0.60454 0.67626 0.44466 0.0
C1479 C 0.60371 0.684 0.38007 0.0
C1480 C 0.58885 0.67594 0.33763 0.0
C1481 C 0.57516 0.69009 0.31699 0.0
C1482 C 0.59625 0.66631 0.27393 0.0
C1483 C 0.58119 0.66293 0.38934 0.0
C1484 C 0.59051 0.66333 0.45065 0.0
C1485 C 0.58523 0.65354 0.50802 0.0
C1486 C 0.57 0.64303 0.50268 0.0
C1487 C 0.5603 0.6423 0.44026 0.0
C1488 C 0.56612 0.65224 0.38268 0.0
H1489 H 0.05475 0.84615 0.16161 0.0
H1490 H 0.06747 0.86206 0.95214 0.0
H1491 H 0.09462 0.84381 0.95635 0.0
H1492 H 0.10015 0.84385 0.22785 0.0
H1493 H 0.09591 0.82432 0.27874 0.0
H1494 H 0.0783 0.83987 0.26213 0.0
H1495 H 0.05908 0.81469 0.21062 0.0
H1496 H 0.07656 0.79906 0.22744 0.0
H1497 H 0.06785 0.80136 0.14132 0.0
H1498 H 0.11963 0.82355 0.98139 0.0
H1499 H 0.13953 0.79986 0.01983 0.0
H1500 H 0.11014 0.79548 0.21189 0.0
C1501 C 0.06339 0.84596 0.11698 0.0
C1502 C 0.05913 0.85564 0.05668 0.0
C1503 C 0.07051 0.85476 0.99878 0.0
C1504 C 0.08601 0.84454 0.0009 0.0
C1505 C 0.08982 0.83517 0.06107 0.0
C1506 C 0.07877 0.83559 0.11781 0.0
C1507 C 0.08524 0.82311 0.17385 0.0
C1508 C 0.0902 0.83341 0.23953 0.0
C1509 C 0.07136 0.8087 0.18917 0.0
C1510 C 0.10153 0.8154 0.13922 0.0
C1511 C 0.10404 0.82284 0.07474 0.0
C1512 C 0.11782 0.81764 0.03176 0.0
C1513 C 0.12905 0.8041 0.0542 0.0
C1514 C 0.12638 0.79567 0.11883 0.0
C1515 C 0.11265 0.80173 0.16255 0.0
H1516 H 0.92012 0.7055 0.22039 0.0
H1517 H 0.88913 0.70011 0.03269 0.0
H1518 H 0.90893 0.67645 0.99284 0.0
H1519 H 0.96155 0.7 0.14535 0.0
H1520 H 0.97118 0.68701 0.21378 0.0
H1521 H 0.95351 0.70229 0.23252 0.0
H1522 H 0.93502 0.67695 0.2867 0.0
H1523 H 0.95274 0.66159 0.26889 0.0
H1524 H 0.93072 0.65717 0.23723 0.0
H1525 H 0.93398 0.65647 0.9653 0.0
H1526 H 0.96133 0.63859 0.95817 0.0
H1527 H 0.97561 0.65524 0.1653 0.0
C1528 C 0.91724 0.699 0.17183 0.0
C1529 C 0.90311 0.70481 0.12954 0.0
C1530 C 0.89994 0.69608 0.06585 0.0
C1531 C 0.91109 0.68255 0.04267 0.0
C1532 C 0.92528 0.67763 0.0841 0.0
C1533 C 0.92824 0.68529 0.14792 0.0
C1534 C 0.94495 0.67792 0.1806 0.0
C1535 C 0.9586 0.69269 0.19381 0.0
C1536 C 0.94059 0.6678 0.24731 0.0
C1537 C 0.95112 0.66541 0.12416 0.0
C1538 C 0.93956 0.66548 0.06898 0.0
C1539 C 0.94299 0.656 0.00869 0.0
C1540 C 0.95861 0.646 0.00489 0.0
C1541 C 0.97049 0.64544 0.06129 0.0
C1542 C 0.96662 0.65522 0.12176 0.0
H1543 H 0.10839 0.20641 0.80862 0.0
H1544 H 0.13154 0.20557 0.01401 0.0
H1545 H 0.11135 0.18164 0.04742 0.0
H1546 H 0.06417 0.19957 0.86131 0.0
H1547 H 0.05818 0.18526 0.79055 0.0
H1548 H 0.07541 0.20151 0.77956 0.0
H1549 H 0.09725 0.17689 0.7415 0.0
H1550 H 0.08003 0.16056 0.75201 0.0
H1551 H 0.1008 0.15802 0.7968 0.0
H1552 H 0.08732 0.15983 0.0633 0.0
H1553 H 0.06146 0.13992 0.058 0.0
H1554 H 0.05386 0.15374 0.84244 0.0
C1555 C 0.10939 0.20098 0.86018 0.0
C1556 C 0.12156 0.20798 0.90858 0.0
C1557 C 0.12232 0.20057 0.97585 0.0
C1558 C 0.11091 0.1869 0.99551 0.0
C1559 C 0.09884 0.18059 0.94736 0.0
C1560 C 0.09805 0.1872 0.88089 0.0
C1561 C 0.08329 0.17833 0.84043 0.0
C1562 C 0.06945 0.19198 0.81659 0.0
C1563 C 0.09079 0.16782 0.77905 0.0
C1564 C 0.07576 0.16606 0.89513 0.0
C1565 C 0.08499 0.16759 0.95632 0.0
C1566 C 0.08009 0.15831 0.01545 0.0
C1567 C 0.06533 0.1471 0.01203 0.0
C1568 C 0.05569 0.14519 0.94981 0.0
C1569 C 0.0611 0.15474 0.89054 0.0
H1570 H 0.60724 0.29529 0.71011 0.0
H1571 H 0.63632 0.30208 0.51832 0.0
H1572 H 0.61667 0.32653 0.48579 0.0
H1573 H 0.56506 0.30252 0.64153 0.0
H1574 H 0.55638 0.31486 0.71368 0.0
H1575 H 0.57383 0.29897 0.72694 0.0
H1576 H 0.59335 0.32322 0.78323 0.0
H1577 H 0.57588 0.33918 0.77064 0.0
H1578 H 0.59771 0.34347 0.73686 0.0
H1579 H 0.59215 0.34743 0.46589 0.0
H1580 H 0.56506 0.36574 0.46499 0.0
H1581 H 0.55207 0.34712 0.67081 0.0
C1582 C 0.60971 0.30222 0.66214 0.0
C1583 C 0.6233 0.29666 0.61676 0.0
C1584 C 0.62594 0.30594 0.55391 0.0
C1585 C 0.61488 0.31994 0.53487 0.0
C1586 C 0.60128 0.32472 0.5794 0.0
C1587 C 0.59874 0.31639 0.64219 0.0
C1588 C 0.5825 0.32376 0.67848 0.0
C1589 C 0.56862 0.30916 0.69085 0.0
C1590 C 0.58768 0.33296 0.74633 0.0
C1591 C 0.57613 0.33708 0.62526 0.0
C1592 C 0.58722 0.33739 0.56859 0.0
C1593 C 0.58351 0.3476 0.51048 0.0
C1594 C 0.56806 0.35787 0.51024 0.0
C1595 C 0.5566 0.35797 0.56799 0.0
C1596 C 0.56079 0.34754 0.62644 0.0
H1597 H 0.467 0.84674 0.48843 0.0
H1598 H 0.46848 0.87058 0.28455 0.0
H1599 H 0.44362 0.85179 0.24804 0.0
H1600 H 0.45923 0.80349 0.43208 0.0
H1601 H 0.44436 0.79735 0.50086 0.0
H1602 H 0.46082 0.81422 0.51501 0.0
H1603 H 0.43635 0.83628 0.55252 0.0
H1604 H 0.41979 0.81942 0.5388 0.0
H1605 H 0.41792 0.84049 0.49569 0.0
H1606 H 0.42116 0.82859 0.22847 0.0
H1607 H 0.40151 0.80249 0.22846 0.0
H1608 H 0.41379 0.79338 0.44453 0.0
C1609 C 0.46177 0.84828 0.43674 0.0
C1610 C 0.46968 0.86014 0.38943 0.0
C1611 C 0.4627 0.86154 0.32171 0.0
C1612 C 0.44851 0.85098 0.30043 0.0
C1613 C 0.44133 0.83908 0.34743 0.0
C1614 C 0.44757 0.8377 0.41433 0.0
C1615 C 0.4382 0.82287 0.45255 0.0
C1616 C 0.45144 0.80864 0.4765 0.0
C1617 C 0.42742 0.83021 0.5135 0.0
C1618 C 0.42615 0.81589 0.39601 0.0
C1619 C 0.4281 0.82556 0.33604 0.0
C1620 C 0.41928 0.82104 0.27538 0.0
C1621 C 0.40821 0.80615 0.2758 0.0
C1622 C 0.40603 0.79595 0.33651 0.0
C1623 C 0.41498 0.80107 0.39757 0.0
loop_
_geom_bond_atom_site_label_1
_geom_bond_atom_site_label_2
_geom_bond_distance
_geom_bond_site_symmetry_2
_ccdc_geom_bond_type
Co0 O3 1.970 1_455 S
Co0 N17 1.989 . S
Co0 O25 1.967 . S
Co0 O32 1.920 . S
Co1 O4 2.011 1_556 S
Co1 N10 2.022 . S
Co1 N18 1.993 1_556 S
Co1 O26 1.941 1_556 S
C2 O3 1.258 . S
C2 O4 1.237 1_655 S
O3 Co0 1.970 1_655 S
O3 C2 1.258 . S
O4 Co1 2.011 1_554 S
O4 C2 1.237 1_455 S
C5 O6 1.235 1_455 S
C5 O32 1.289 . S
O6 C5 1.235 1_655 S
C7 C9 1.400 . S
C7 N10 1.351 . S
C7 C12 1.501 1_455 S
C8 C9 1.387 . S
C8 N11 1.341 . S
C9 C7 1.400 . S
C9 C8 1.387 . S
N10 Co1 2.022 . S
N10 C7 1.351 . S
N10 N11 1.365 . S
N11 C8 1.341 . S
N11 N10 1.365 . S
N11 H31 0.862 . S
C12 C7 1.501 1_655 S
C12 H13 0.961 . S
C12 H14 0.961 . S
C12 H15 0.960 . S
H13 C12 0.961 . S
H14 C12 0.961 . S
H15 C12 0.960 . S
C16 N17 1.342 . S
C16 C20 1.401 . S
C16 C21 1.499 . S
N17 Co0 1.989 . S
N17 C16 1.342 . S
N17 N18 1.388 . S
N18 Co1 1.993 1_554 S
N18 N17 1.388 . S
N18 C19 1.346 1_554 S
C19 N18 1.346 1_556 S
C19 C20 1.396 1_556 S
C19 C29 1.510 . S
C20 C16 1.401 . S
C20 C19 1.396 1_554 S
C21 C16 1.499 . S
C21 H22 0.959 . S
C21 H23 0.960 . S
C21 H24 0.961 . S
H22 C21 0.959 . S
H23 C21 0.960 . S
H24 C21 0.961 . S
O25 Co0 1.967 . S
O25 C33 1.258 . S
O26 Co1 1.941 1_554 S
O26 C33 1.266 . S
H27 C29 0.959 . S
H28 C29 0.961 . S
C29 C19 1.510 . S
C29 H27 0.959 . S
C29 H28 0.961 . S
C29 H30 0.960 . S
H30 C29 0.960 . S
H31 N11 0.862 . S
O32 Co0 1.920 . S
O32 C5 1.289 . S
C33 O25 1.258 . S
C33 O26 1.266 . S
Co34 O37 1.970 . S
Co34 N51 1.989 . S
Co34 O59 1.967 . S
Co34 O66 1.920 . S
Co35 O38 1.966 . S
Co35 N44 2.022 . S
Co35 N52 1.993 . S
Co35 O60 1.941 . S
C36 O37 1.258 . S
C36 O38 1.263 . S
O37 Co34 1.970 . S
O37 C36 1.258 . S
O38 Co35 1.966 . S
O38 C36 1.263 . S
C39 O40 1.235 . S
C39 O66 1.289 . S
O40 C39 1.235 . S
C41 C43 1.400 . S
C41 N44 1.351 . S
C41 C46 1.501 . S
C42 C43 1.387 . S
C42 N45 1.341 . S
C43 C41 1.400 . S
C43 C42 1.387 . S
N44 Co35 2.022 . S
N44 C41 1.351 . S
N44 N45 1.365 . S
N45 C42 1.341 . S
N45 N44 1.365 . S
N45 H65 0.862 . S
C46 C41 1.501 . S
C46 H47 0.961 . S
C46 H48 0.961 . S
C46 H49 0.960 . S
H47 C46 0.961 . S
H48 C46 0.961 . S
H49 C46 0.960 . S
C50 N51 1.342 . S
C50 C54 1.401 . S
C50 C55 1.499 . S
N51 Co34 1.989 . S
N51 C50 1.342 . S
N51 N52 1.388 . S
N52 Co35 1.993 . S
N52 N51 1.388 . S
N52 C53 1.346 . S
C53 N52 1.346 . S
C53 C54 1.396 . S
C53 C63 1.510 . S
C54 C50 1.401 . S
C54 C53 1.396 . S
C55 C50 1.499 . S
C55 H56 0.959 . S
C55 H57 0.960 . S
C55 H58 0.961 . S
H56 C55 0.959 . S
H57 C55 0.960 . S
H58 C55 0.961 . S
O59 Co34 1.967 . S
O59 C67 1.258 . S
O60 Co35 1.941 . S
O60 C67 1.266 . S
H61 C63 0.959 . S
H62 C63 0.961 . S
C63 C53 1.510 . S
C63 H61 0.959 . S
C63 H62 0.961 . S
C63 H64 0.960 . S
H64 C63 0.960 . S
H65 N45 0.862 . S
O66 Co34 1.920 . S
O66 C39 1.289 . S
C67 O59 1.258 . S
C67 O60 1.266 . S
Co68 O71 1.970 . S
Co68 N85 1.989 . S
Co68 O93 1.967 . S
Co68 O100 1.920 . S
Co69 O72 1.966 . S
Co69 N78 2.022 . S
Co69 N86 1.993 . S
Co69 O94 1.941 . S
C70 O71 1.258 . S
C70 O72 1.263 . S
O71 Co68 1.970 . S
O71 C70 1.258 . S
O72 Co69 1.966 . S
O72 C70 1.263 . S
C73 O74 1.235 . S
C73 O100 1.289 . S
O74 C73 1.235 . S
C75 C77 1.400 . S
C75 N78 1.351 . S
C75 C80 1.501 . S
C76 C77 1.387 . S
C76 N79 1.341 . S
C77 C75 1.400 . S
C77 C76 1.387 . S
N78 Co69 2.022 . S
N78 C75 1.351 . S
N78 N79 1.365 . S
N79 C76 1.341 . S
N79 N78 1.365 . S
N79 H99 0.862 . S
C80 C75 1.501 . S
C80 H81 0.961 . S
C80 H82 0.961 . S
C80 H83 0.960 . S
H81 C80 0.961 . S
H82 C80 0.961 . S
H83 C80 0.960 . S
C84 N85 1.342 . S
C84 C88 1.401 . S
C84 C89 1.499 . S
N85 Co68 1.989 . S
N85 C84 1.342 . S
N85 N86 1.388 . S
N86 Co69 1.993 . S
N86 N85 1.388 . S
N86 C87 1.346 . S
C87 N86 1.346 . S
C87 C88 1.396 . S
C87 C97 1.510 . S
C88 C84 1.401 . S
C88 C87 1.396 . S
C89 C84 1.499 . S
C89 H90 0.959 . S
C89 H91 0.960 . S
C89 H92 0.961 . S
H90 C89 0.959 . S
H91 C89 0.960 . S
H92 C89 0.961 . S
O93 Co68 1.967 . S
O93 C101 1.258 . S
O94 Co69 1.941 . S
O94 C101 1.266 . S
H95 C97 0.959 . S
H96 C97 0.961 . S
C97 C87 1.510 . S
C97 H95 0.959 . S
C97 H96 0.961 . S
C97 H98 0.960 . S
H98 C97 0.960 . S
H99 N79 0.862 . S
O100 Co68 1.920 . S
O100 C73 1.289 . S
C101 O93 1.258 . S
C101 O94 1.266 . S
Co102 O105 1.970 . S
Co102 N119 1.989 . S
Co102 O127 1.967 . S
Co102 O134 1.909 1_556 S
Co103 O106 1.966 . S
Co103 N112 2.022 . S
Co103 N120 1.993 . S
Co103 O128 1.941 . S
C104 O105 1.258 . S
C104 O106 1.263 . S
O105 Co102 1.970 . S
O105 C104 1.258 . S
O106 Co103 1.966 . S
O106 C104 1.263 . S
C107 O108 1.235 . S
C107 O134 1.295 . S
O108 C107 1.235 . S
C109 C111 1.400 . S
C109 N112 1.351 . S
C109 C114 1.501 . S
C110 C111 1.387 . S
C110 N113 1.341 . S
C111 C109 1.400 . S
C111 C110 1.387 . S
N112 Co103 2.022 . S
N112 C109 1.351 . S
N112 N113 1.365 . S
N113 C110 1.341 . S
N113 N112 1.365 . S
N113 H133 0.862 . S
C114 C109 1.501 . S
C114 H115 0.961 . S
C114 H116 0.961 . S
C114 H117 0.960 . S
H115 C114 0.961 . S
H116 C114 0.961 . S
H117 C114 0.960 . S
C118 N119 1.342 . S
C118 C122 1.401 . S
C118 C123 1.499 . S
N119 Co102 1.989 . S
N119 C118 1.342 . S
N119 N120 1.388 . S
N120 Co103 1.993 . S
N120 N119 1.388 . S
N120 C121 1.346 . S
C121 N120 1.346 . S
C121 C122 1.396 . S
C121 C131 1.510 . S
C122 C118 1.401 . S
C122 C121 1.396 . S
C123 C118 1.499 . S
C123 H124 0.959 . S
C123 H125 0.960 . S
C123 H126 0.961 . S
H124 C123 0.959 . S
H125 C123 0.960 . S
H126 C123 0.961 . S
O127 Co102 1.967 . S
O127 C135 1.258 . S
O128 Co103 1.941 . S
O128 C135 1.266 . S
H129 C131 0.959 . S
H130 C131 0.961 . S
C131 C121 1.510 . S
C131 H129 0.959 . S
C131 H130 0.961 . S
C131 H132 0.960 . S
H132 C131 0.960 . S
H133 N113 0.862 . S
O134 Co102 1.909 1_554 S
O134 C107 1.295 . S
C135 O127 1.258 . S
C135 O128 1.266 . S
Co136 O139 1.970 1_455 S
Co136 N153 1.989 . S
Co136 O161 1.967 . S
Co136 O168 1.920 . S
Co137 O140 2.011 1_554 S
Co137 N146 2.022 . S
Co137 N154 1.993 1_554 S
Co137 O162 1.941 1_554 S
C138 O139 1.258 . S
C138 O140 1.237 1_655 S
O139 Co136 1.970 1_655 S
O139 C138 1.258 . S
O140 Co137 2.011 1_556 S
O140 C138 1.237 1_455 S
C141 O142 1.235 1_455 S
C141 O168 1.289 . S
O142 C141 1.235 1_655 S
C143 C145 1.400 . S
C143 N146 1.351 . S
C143 C148 1.501 1_455 S
C144 C145 1.387 . S
C144 N147 1.341 . S
C145 C143 1.400 . S
C145 C144 1.387 . S
N146 Co137 2.022 . S
N146 C143 1.351 . S
N146 N147 1.365 . S
N147 C144 1.341 . S
N147 N146 1.365 . S
N147 H167 0.862 . S
C148 C143 1.501 1_655 S
C148 H149 0.961 . S
C148 H150 0.961 . S
C148 H151 0.960 . S
H149 C148 0.961 . S
H150 C148 0.961 . S
H151 C148 0.960 . S
C152 N153 1.342 . S
C152 C156 1.401 . S
C152 C157 1.499 . S
N153 Co136 1.989 . S
N153 C152 1.342 . S
N153 N154 1.388 . S
N154 Co137 1.993 1_556 S
N154 N153 1.388 . S
N154 C155 1.346 1_556 S
C155 N154 1.346 1_554 S
C155 C156 1.396 1_554 S
C155 C165 1.510 . S
C156 C152 1.401 . S
C156 C155 1.396 1_556 S
C157 C152 1.499 . S
C157 H158 0.959 . S
C157 H159 0.960 . S
C157 H160 0.961 . S
H158 C157 0.959 . S
H159 C157 0.960 . S
H160 C157 0.961 . S
O161 Co136 1.967 . S
O161 C169 1.258 . S
O162 Co137 1.941 1_556 S
O162 C169 1.266 . S
H163 C165 0.959 . S
H164 C165 0.961 . S
C165 C155 1.510 . S
C165 H163 0.959 . S
C165 H164 0.961 . S
C165 H166 0.960 . S
H166 C165 0.960 . S
H167 N147 0.862 . S
O168 Co136 1.920 . S
O168 C141 1.289 . S
C169 O161 1.258 . S
C169 O162 1.266 . S
Co170 O173 1.970 . S
Co170 N187 1.989 . S
Co170 O195 1.967 . S
Co170 O202 1.909 1_554 S
Co171 O174 1.966 . S
Co171 N180 2.022 . S
Co171 N188 1.993 . S
Co171 O196 1.941 . S
C172 O173 1.258 . S
C172 O174 1.263 . S
O173 Co170 1.970 . S
O173 C172 1.258 . S
O174 Co171 1.966 . S
O174 C172 1.263 . S
C175 O176 1.235 . S
C175 O202 1.295 . S
O176 C175 1.235 . S
C177 C179 1.400 . S
C177 N180 1.351 . S
C177 C182 1.501 . S
C178 C179 1.387 . S
C178 N181 1.341 . S
C179 C177 1.400 . S
C179 C178 1.387 . S
N180 Co171 2.022 . S
N180 C177 1.351 . S
N180 N181 1.365 . S
N181 C178 1.341 . S
N181 N180 1.365 . S
N181 H201 0.862 . S
C182 C177 1.501 . S
C182 H183 0.961 . S
C182 H184 0.961 . S
C182 H185 0.960 . S
H183 C182 0.961 . S
H184 C182 0.961 . S
H185 C182 0.960 . S
C186 N187 1.342 . S
C186 C190 1.401 . S
C186 C191 1.499 . S
N187 Co170 1.989 . S
N187 C186 1.342 . S
N187 N188 1.388 . S
N188 Co171 1.993 . S
N188 N187 1.388 . S
N188 C189 1.346 . S
C189 N188 1.346 . S
C189 C190 1.396 . S
C189 C199 1.510 . S
C190 C186 1.401 . S
C190 C189 1.396 . S
C191 C186 1.499 . S
C191 H192 0.959 . S
C191 H193 0.960 . S
C191 H194 0.961 . S
H192 C191 0.959 . S
H193 C191 0.960 . S
H194 C191 0.961 . S
O195 Co170 1.967 . S
O195 C203 1.258 . S
O196 Co171 1.941 . S
O196 C203 1.266 . S
H197 C199 0.959 . S
H198 C199 0.961 . S
C199 C189 1.510 . S
C199 H197 0.959 . S
C199 H198 0.961 . S
C199 H200 0.960 . S
H200 C199 0.960 . S
H201 N181 0.862 . S
O202 Co170 1.909 1_556 S
O202 C175 1.295 . S
C203 O195 1.258 . S
C203 O196 1.266 . S
Co204 O207 1.970 . S
Co204 N221 1.989 . S
Co204 O229 1.967 . S
Co204 O236 1.920 . S
Co205 O208 1.966 . S
Co205 N214 2.022 . S
Co205 N222 1.993 . S
Co205 O230 1.941 . S
C206 O207 1.258 . S
C206 O208 1.263 . S
O207 Co204 1.970 . S
O207 C206 1.258 . S
O208 Co205 1.966 . S
O208 C206 1.263 . S
C209 O210 1.235 . S
C209 O236 1.289 . S
O210 C209 1.235 . S
C211 C213 1.400 . S
C211 N214 1.351 . S
C211 C216 1.501 . S
C212 C213 1.387 . S
C212 N215 1.341 . S
C213 C211 1.400 . S
C213 C212 1.387 . S
N214 Co205 2.022 . S
N214 C211 1.351 . S
N214 N215 1.365 . S
N215 C212 1.341 . S
N215 N214 1.365 . S
N215 H235 0.862 . S
C216 C211 1.501 . S
C216 H217 0.961 . S
C216 H218 0.961 . S
C216 H219 0.960 . S
H217 C216 0.961 . S
H218 C216 0.961 . S
H219 C216 0.960 . S
C220 N221 1.342 . S
C220 C224 1.401 . S
C220 C225 1.499 . S
N221 Co204 1.989 . S
N221 C220 1.342 . S
N221 N222 1.388 . S
N222 Co205 1.993 . S
N222 N221 1.388 . S
N222 C223 1.346 . S
C223 N222 1.346 . S
C223 C224 1.396 . S
C223 C233 1.510 . S
C224 C220 1.401 . S
C224 C223 1.396 . S
C225 C220 1.499 . S
C225 H226 0.959 . S
C225 H227 0.960 . S
C225 H228 0.961 . S
H226 C225 0.959 . S
H227 C225 0.960 . S
H228 C225 0.961 . S
O229 Co204 1.967 . S
O229 C237 1.258 . S
O230 Co205 1.941 . S
O230 C237 1.266 . S
H231 C233 0.959 . S
H232 C233 0.961 . S
C233 C223 1.510 . S
C233 H231 0.959 . S
C233 H232 0.961 . S
C233 H234 0.960 . S
H234 C233 0.960 . S
H235 N215 0.862 . S
O236 Co204 1.920 . S
O236 C209 1.289 . S
C237 O229 1.258 . S
C237 O230 1.266 . S
Co238 O241 1.970 . S
Co238 N255 1.989 . S
Co238 O263 1.967 . S
Co238 O270 1.920 . S
Co239 O242 1.966 . S
Co239 N248 2.022 . S
Co239 N256 1.993 . S
Co239 O264 1.941 . S
C240 O241 1.258 . S
C240 O242 1.263 . S
O241 Co238 1.970 . S
O241 C240 1.258 . S
O242 Co239 1.966 . S
O242 C240 1.263 . S
C243 O244 1.235 . S
C243 O270 1.289 . S
O244 C243 1.235 . S
C245 C247 1.400 . S
C245 N248 1.351 . S
C245 C250 1.501 . S
C246 C247 1.387 . S
C246 N249 1.341 . S
C247 C245 1.400 . S
C247 C246 1.387 . S
N248 Co239 2.022 . S
N248 C245 1.351 . S
N248 N249 1.365 . S
N249 C246 1.341 . S
N249 N248 1.365 . S
N249 H269 0.862 . S
C250 C245 1.501 . S
C250 H251 0.961 . S
C250 H252 0.961 . S
C250 H253 0.960 . S
H251 C250 0.961 . S
H252 C250 0.961 . S
H253 C250 0.960 . S
C254 N255 1.342 . S
C254 C258 1.401 . S
C254 C259 1.499 . S
N255 Co238 1.989 . S
N255 C254 1.342 . S
N255 N256 1.388 . S
N256 Co239 1.993 . S
N256 N255 1.388 . S
N256 C257 1.346 . S
C257 N256 1.346 . S
C257 C258 1.396 . S
C257 C267 1.510 . S
C258 C254 1.401 . S
C258 C257 1.396 . S
C259 C254 1.499 . S
C259 H260 0.959 . S
C259 H261 0.960 . S
C259 H262 0.961 . S
H260 C259 0.959 . S
H261 C259 0.960 . S
H262 C259 0.961 . S
O263 Co238 1.967 . S
O263 C271 1.258 . S
O264 Co239 1.941 . S
O264 C271 1.266 . S
H265 C267 0.959 . S
H266 C267 0.961 . S
C267 C257 1.510 . S
C267 H265 0.959 . S
C267 H266 0.961 . S
C267 H268 0.960 . S
H268 C267 0.960 . S
H269 N249 0.862 . S
O270 Co238 1.920 . S
O270 C243 1.289 . S
C271 O263 1.258 . S
C271 O264 1.266 . S
Co272 O275 1.970 . S
Co272 N289 1.989 . S
Co272 O297 1.967 . S
Co272 O304 1.920 . S
Co273 O276 1.966 . S
Co273 N282 2.022 . S
Co273 N290 1.993 . S
Co273 O298 1.941 . S
C274 O275 1.258 . S
C274 O276 1.263 . S
O275 Co272 1.970 . S
O275 C274 1.258 . S
O276 Co273 1.966 . S
O276 C274 1.263 . S
C277 O278 1.235 . S
C277 O304 1.289 . S
O278 C277 1.235 . S
C279 C281 1.400 . S
C279 N282 1.351 . S
C279 C284 1.501 . S
C280 C281 1.387 . S
C280 N283 1.341 . S
C281 C279 1.400 . S
C281 C280 1.387 . S
N282 Co273 2.022 . S
N282 C279 1.351 . S
N282 N283 1.365 . S
N283 C280 1.341 . S
N283 N282 1.365 . S
N283 H303 0.862 . S
C284 C279 1.501 . S
C284 H285 0.961 . S
C284 H286 0.961 . S
C284 H287 0.960 . S
H285 C284 0.961 . S
H286 C284 0.961 . S
H287 C284 0.960 . S
C288 N289 1.342 . S
C288 C292 1.401 . S
C288 C293 1.499 . S
N289 Co272 1.989 . S
N289 C288 1.342 . S
N289 N290 1.388 . S
N290 Co273 1.993 . S
N290 N289 1.388 . S
N290 C291 1.346 . S
C291 N290 1.346 . S
C291 C292 1.396 . S
C291 C301 1.510 . S
C292 C288 1.401 . S
C292 C291 1.396 . S
C293 C288 1.499 . S
C293 H294 0.959 . S
C293 H295 0.960 . S
C293 H296 0.961 . S
H294 C293 0.959 . S
H295 C293 0.960 . S
H296 C293 0.961 . S
O297 Co272 1.967 . S
O297 C305 1.258 . S
O298 Co273 1.941 . S
O298 C305 1.266 . S
H299 C301 0.959 . S
H300 C301 0.961 . S
C301 C291 1.510 . S
C301 H299 0.959 . S
C301 H300 0.961 . S
C301 H302 0.960 . S
H302 C301 0.960 . S
H303 N283 0.862 . S
O304 Co272 1.920 . S
O304 C277 1.289 . S
C305 O297 1.258 . S
C305 O298 1.266 . S
Co306 O309 1.970 . S
Co306 N323 1.989 . S
Co306 O331 1.967 . S
Co306 O338 1.909 1_554 S
Co307 O310 1.966 . S
Co307 N316 2.022 . S
Co307 N324 1.993 . S
Co307 O332 1.941 . S
C308 O309 1.258 . S
C308 O310 1.263 . S
O309 Co306 1.970 . S
O309 C308 1.258 . S
O310 Co307 1.966 . S
O310 C308 1.263 . S
C311 O312 1.235 . S
C311 O338 1.295 . S
O312 C311 1.235 . S
C313 C315 1.400 . S
C313 N316 1.351 . S
C313 C318 1.501 . S
C314 C315 1.387 . S
C314 N317 1.341 . S
C315 C313 1.400 . S
C315 C314 1.387 . S
N316 Co307 2.022 . S
N316 C313 1.351 . S
N316 N317 1.365 . S
N317 C314 1.341 . S
N317 N316 1.365 . S
N317 H337 0.862 . S
C318 C313 1.501 . S
C318 H319 0.961 . S
C318 H320 0.961 . S
C318 H321 0.960 . S
H319 C318 0.961 . S
H320 C318 0.961 . S
H321 C318 0.960 . S
C322 N323 1.342 . S
C322 C326 1.401 . S
C322 C327 1.499 . S
N323 Co306 1.989 . S
N323 C322 1.342 . S
N323 N324 1.388 . S
N324 Co307 1.993 . S
N324 N323 1.388 . S
N324 C325 1.346 . S
C325 N324 1.346 . S
C325 C326 1.396 . S
C325 C335 1.510 . S
C326 C322 1.401 . S
C326 C325 1.396 . S
C327 C322 1.499 . S
C327 H328 0.959 . S
C327 H329 0.960 . S
C327 H330 0.961 . S
H328 C327 0.959 . S
H329 C327 0.960 . S
H330 C327 0.961 . S
O331 Co306 1.967 . S
O331 C339 1.258 . S
O332 Co307 1.941 . S
O332 C339 1.266 . S
H333 C335 0.959 . S
H334 C335 0.961 . S
C335 C325 1.510 . S
C335 H333 0.959 . S
C335 H334 0.961 . S
C335 H336 0.960 . S
H336 C335 0.960 . S
H337 N317 0.862 . S
O338 Co306 1.909 1_556 S
O338 C311 1.295 . S
C339 O331 1.258 . S
C339 O332 1.266 . S
Co340 O343 1.970 . S
Co340 N357 1.989 . S
Co340 O365 1.967 . S
Co340 O372 1.909 1_556 S
Co341 O344 1.966 . S
Co341 N350 2.022 . S
Co341 N358 1.993 . S
Co341 O366 1.941 . S
C342 O343 1.258 . S
C342 O344 1.263 . S
O343 Co340 1.970 . S
O343 C342 1.258 . S
O344 Co341 1.966 . S
O344 C342 1.263 . S
C345 O346 1.235 . S
C345 O372 1.295 . S
O346 C345 1.235 . S
C347 C349 1.400 . S
C347 N350 1.351 . S
C347 C352 1.501 . S
C348 C349 1.387 . S
C348 N351 1.341 . S
C349 C347 1.400 . S
C349 C348 1.387 . S
N350 Co341 2.022 . S
N350 C347 1.351 . S
N350 N351 1.365 . S
N351 C348 1.341 . S
N351 N350 1.365 . S
N351 H371 0.862 . S
C352 C347 1.501 . S
C352 H353 0.961 . S
C352 H354 0.961 . S
C352 H355 0.960 . S
H353 C352 0.961 . S
H354 C352 0.961 . S
H355 C352 0.960 . S
C356 N357 1.342 . S
C356 C360 1.401 . S
C356 C361 1.499 . S
N357 Co340 1.989 . S
N357 C356 1.342 . S
N357 N358 1.388 . S
N358 Co341 1.993 . S
N358 N357 1.388 . S
N358 C359 1.346 . S
C359 N358 1.346 . S
C359 C360 1.396 . S
C359 C369 1.510 . S
C360 C356 1.401 . S
C360 C359 1.396 . S
C361 C356 1.499 . S
C361 H362 0.959 . S
C361 H363 0.960 . S
C361 H364 0.961 . S
H362 C361 0.959 . S
H363 C361 0.960 . S
H364 C361 0.961 . S
O365 Co340 1.967 . S
O365 C373 1.258 . S
O366 Co341 1.941 . S
O366 C373 1.266 . S
H367 C369 0.959 . S
H368 C369 0.961 . S
C369 C359 1.510 . S
C369 H367 0.959 . S
C369 H368 0.961 . S
C369 H370 0.960 . S
H370 C369 0.960 . S
H371 N351 0.862 . S
O372 Co340 1.909 1_554 S
O372 C345 1.295 . S
C373 O365 1.258 . S
C373 O366 1.266 . S
Co374 O377 1.970 . S
Co374 N391 1.989 . S
Co374 O399 1.967 . S
Co374 O406 1.920 . S
Co375 O378 1.966 . S
Co375 N384 2.022 . S
Co375 N392 1.993 . S
Co375 O400 1.941 . S
C376 O377 1.258 . S
C376 O378 1.263 . S
O377 Co374 1.970 . S
O377 C376 1.258 . S
O378 Co375 1.966 . S
O378 C376 1.263 . S
C379 O380 1.235 . S
C379 O406 1.289 . S
O380 C379 1.235 . S
C381 C383 1.400 . S
C381 N384 1.351 . S
C381 C386 1.501 . S
C382 C383 1.387 . S
C382 N385 1.341 . S
C383 C381 1.400 . S
C383 C382 1.387 . S
N384 Co375 2.022 . S
N384 C381 1.351 . S
N384 N385 1.365 . S
N385 C382 1.341 . S
N385 N384 1.365 . S
N385 H405 0.862 . S
C386 C381 1.501 . S
C386 H387 0.961 . S
C386 H388 0.961 . S
C386 H389 0.960 . S
H387 C386 0.961 . S
H388 C386 0.961 . S
H389 C386 0.960 . S
C390 N391 1.342 . S
C390 C394 1.401 . S
C390 C395 1.499 . S
N391 Co374 1.989 . S
N391 C390 1.342 . S
N391 N392 1.388 . S
N392 Co375 1.993 . S
N392 N391 1.388 . S
N392 C393 1.346 . S
C393 N392 1.346 . S
C393 C394 1.396 . S
C393 C403 1.510 . S
C394 C390 1.401 . S
C394 C393 1.396 . S
C395 C390 1.499 . S
C395 H396 0.959 . S
C395 H397 0.960 . S
C395 H398 0.961 . S
H396 C395 0.959 . S
H397 C395 0.960 . S
H398 C395 0.961 . S
O399 Co374 1.967 . S
O399 C407 1.258 . S
O400 Co375 1.941 . S
O400 C407 1.266 . S
H401 C403 0.959 . S
H402 C403 0.961 . S
C403 C393 1.510 . S
C403 H401 0.959 . S
C403 H402 0.961 . S
C403 H404 0.960 . S
H404 C403 0.960 . S
H405 N385 0.862 . S
O406 Co374 1.920 . S
O406 C379 1.289 . S
C407 O399 1.258 . S
C407 O400 1.266 . S
Co408 O411 1.970 . S
Co408 N425 1.989 . S
Co408 O433 1.967 . S
Co408 O440 1.920 . S
Co409 O412 1.966 . S
Co409 N418 2.022 . S
Co409 N426 1.993 . S
Co409 O434 1.941 . S
C410 O411 1.258 . S
C410 O412 1.263 . S
O411 Co408 1.970 . S
O411 C410 1.258 . S
O412 Co409 1.966 . S
O412 C410 1.263 . S
C413 O414 1.235 . S
C413 O440 1.289 . S
O414 C413 1.235 . S
C415 C417 1.400 . S
C415 N418 1.351 . S
C415 C420 1.501 . S
C416 C417 1.387 . S
C416 N419 1.341 . S
C417 C415 1.400 . S
C417 C416 1.387 . S
N418 Co409 2.022 . S
N418 C415 1.351 . S
N418 N419 1.365 . S
N419 C416 1.341 . S
N419 N418 1.365 . S
N419 H439 0.862 . S
C420 C415 1.501 . S
C420 H421 0.961 . S
C420 H422 0.961 . S
C420 H423 0.960 . S
H421 C420 0.961 . S
H422 C420 0.961 . S
H423 C420 0.960 . S
C424 N425 1.342 . S
C424 C428 1.401 . S
C424 C429 1.499 . S
N425 Co408 1.989 . S
N425 C424 1.342 . S
N425 N426 1.388 . S
N426 Co409 1.993 . S
N426 N425 1.388 . S
N426 C427 1.346 . S
C427 N426 1.346 . S
C427 C428 1.396 . S
C427 C437 1.510 . S
C428 C424 1.401 . S
C428 C427 1.396 . S
C429 C424 1.499 . S
C429 H430 0.959 . S
C429 H431 0.960 . S
C429 H432 0.961 . S
H430 C429 0.959 . S
H431 C429 0.960 . S
H432 C429 0.961 . S
O433 Co408 1.967 . S
O433 C441 1.258 . S
O434 Co409 1.941 . S
O434 C441 1.266 . S
H435 C437 0.959 . S
H436 C437 0.961 . S
C437 C427 1.510 . S
C437 H435 0.959 . S
C437 H436 0.961 . S
C437 H438 0.960 . S
H438 C437 0.960 . S
H439 N419 0.862 . S
O440 Co408 1.920 . S
O440 C413 1.289 . S
C441 O433 1.258 . S
C441 O434 1.266 . S
Co442 O445 1.970 . S
Co442 N459 1.989 . S
Co442 O467 1.967 1_455 S
Co442 O474 1.920 . S
Co443 O446 1.966 1_556 S
Co443 N452 2.022 . S
Co443 N460 1.993 1_556 S
Co443 O468 1.941 1_456 S
C444 O445 1.258 . S
C444 O446 1.263 . S
O445 Co442 1.970 . S
O445 C444 1.258 . S
O446 Co443 1.966 1_554 S
O446 C444 1.263 . S
C447 O448 1.235 . S
C447 O474 1.289 . S
O448 C447 1.235 . S
C449 C451 1.400 . S
C449 N452 1.351 . S
C449 C454 1.501 . S
C450 C451 1.352 1_655 S
C450 N453 1.352 . S
C451 C449 1.400 . S
C451 C450 1.352 1_455 S
N452 Co443 2.022 . S
N452 C449 1.351 . S
N452 N453 1.365 1_455 S
N453 C450 1.352 . S
N453 N452 1.365 1_655 S
N453 H473 0.862 . S
C454 C449 1.501 . S
C454 H455 0.961 . S
C454 H456 0.961 . S
C454 H457 0.960 . S
H455 C454 0.961 . S
H456 C454 0.961 . S
H457 C454 0.960 . S
C458 N459 1.342 . S
C458 C462 1.401 . S
C458 C463 1.499 . S
N459 Co442 1.989 . S
N459 C458 1.342 . S
N459 N460 1.388 . S
N460 Co443 1.993 1_554 S
N460 N459 1.388 . S
N460 C461 1.346 1_554 S
C461 N460 1.346 1_556 S
C461 C462 1.396 1_556 S
C461 C471 1.510 . S
C462 C458 1.401 . S
C462 C461 1.396 1_554 S
C463 C458 1.499 . S
C463 H464 0.959 . S
C463 H465 0.960 . S
C463 H466 0.961 1_455 S
H464 C463 0.959 . S
H465 C463 0.960 . S
H466 C463 0.961 1_655 S
O467 Co442 1.967 1_655 S
O467 C475 1.258 . S
O468 Co443 1.941 1_654 S
O468 C475 1.266 . S
H469 C471 0.959 1_655 S
H470 C471 0.961 . S
C471 C461 1.510 . S
C471 H469 0.959 1_455 S
C471 H470 0.961 . S
C471 H472 0.960 . S
H472 C471 0.960 . S
H473 N453 0.862 . S
O474 Co442 1.920 . S
O474 C447 1.289 . S
C475 O467 1.258 . S
C475 O468 1.266 . S
Co476 O479 1.970 . S
Co476 N493 1.989 . S
Co476 O501 1.967 . S
Co476 O508 1.920 . S
Co477 O480 1.966 . S
Co477 N486 2.022 . S
Co477 N494 1.993 . S
Co477 O502 1.941 . S
C478 O479 1.258 . S
C478 O480 1.263 . S
O479 Co476 1.970 . S
O479 C478 1.258 . S
O480 Co477 1.966 . S
O480 C478 1.263 . S
C481 O482 1.235 . S
C481 O508 1.289 . S
O482 C481 1.235 . S
C483 C485 1.400 . S
C483 N486 1.351 . S
C483 C488 1.501 . S
C484 C485 1.387 . S
C484 N487 1.341 . S
C485 C483 1.400 . S
C485 C484 1.387 . S
N486 Co477 2.022 . S
N486 C483 1.351 . S
N486 N487 1.365 . S
N487 C484 1.341 . S
N487 N486 1.365 . S
N487 H507 0.862 . S
C488 C483 1.501 . S
C488 H489 0.961 . S
C488 H490 0.961 . S
C488 H491 0.960 . S
H489 C488 0.961 . S
H490 C488 0.961 . S
H491 C488 0.960 . S
C492 N493 1.342 . S
C492 C496 1.401 . S
C492 C497 1.499 . S
N493 Co476 1.989 . S
N493 C492 1.342 . S
N493 N494 1.388 . S
N494 Co477 1.993 . S
N494 N493 1.388 . S
N494 C495 1.346 . S
C495 N494 1.346 . S
C495 C496 1.396 . S
C495 C505 1.510 . S
C496 C492 1.401 . S
C496 C495 1.396 . S
C497 C492 1.499 . S
C497 H498 0.959 . S
C497 H499 0.960 . S
C497 H500 0.961 . S
H498 C497 0.959 . S
H499 C497 0.960 . S
H500 C497 0.961 . S
O501 Co476 1.967 . S
O501 C509 1.258 . S
O502 Co477 1.941 . S
O502 C509 1.266 . S
H503 C505 0.959 . S
H504 C505 0.961 . S
C505 C495 1.510 . S
C505 H503 0.959 . S
C505 H504 0.961 . S
C505 H506 0.960 . S
H506 C505 0.960 . S
H507 N487 0.862 . S
O508 Co476 1.920 . S
O508 C481 1.289 . S
C509 O501 1.258 . S
C509 O502 1.266 . S
Co510 O513 1.970 . S
Co510 N527 1.989 . S
Co510 O535 1.967 1_455 S
Co510 O542 1.920 . S
Co511 O514 1.966 1_554 S
Co511 N520 2.022 . S
Co511 N528 1.993 1_554 S
Co511 O536 1.941 1_454 S
C512 O513 1.258 . S
C512 O514 1.263 . S
O513 Co510 1.970 . S
O513 C512 1.258 . S
O514 Co511 1.966 1_556 S
O514 C512 1.263 . S
C515 O516 1.235 . S
C515 O542 1.289 . S
O516 C515 1.235 . S
C517 C519 1.400 . S
C517 N520 1.351 . S
C517 C522 1.501 . S
C518 C519 1.352 1_655 S
C518 N521 1.352 . S
C519 C517 1.400 . S
C519 C518 1.352 1_455 S
N520 Co511 2.022 . S
N520 C517 1.351 . S
N520 N521 1.365 1_455 S
N521 C518 1.352 . S
N521 N520 1.365 1_655 S
N521 H541 0.862 . S
C522 C517 1.501 . S
C522 H523 0.961 . S
C522 H524 0.961 . S
C522 H525 0.960 . S
H523 C522 0.961 . S
H524 C522 0.961 . S
H525 C522 0.960 . S
C526 N527 1.342 . S
C526 C530 1.401 . S
C526 C531 1.499 . S
N527 Co510 1.989 . S
N527 C526 1.342 . S
N527 N528 1.388 . S
N528 Co511 1.993 1_556 S
N528 N527 1.388 . S
N528 C529 1.346 1_556 S
C529 N528 1.346 1_554 S
C529 C530 1.396 1_554 S
C529 C539 1.510 . S
C530 C526 1.401 . S
C530 C529 1.396 1_556 S
C531 C526 1.499 . S
C531 H532 0.959 . S
C531 H533 0.960 . S
C531 H534 0.961 1_455 S
H532 C531 0.959 . S
H533 C531 0.960 . S
H534 C531 0.961 1_655 S
O535 Co510 1.967 1_655 S
O535 C543 1.258 . S
O536 Co511 1.941 1_656 S
O536 C543 1.266 . S
H537 C539 0.959 1_655 S
H538 C539 0.961 . S
C539 C529 1.510 . S
C539 H537 0.959 1_455 S
C539 H538 0.961 . S
C539 H540 0.960 . S
H540 C539 0.960 . S
H541 N521 0.862 . S
O542 Co510 1.920 . S
O542 C515 1.289 . S
C543 O535 1.258 . S
C543 O536 1.266 . S
H544 C556 0.930 . S
H545 C558 0.930 . S
H546 C559 0.930 . S
H547 C563 0.959 . S
H548 C563 0.959 . S
H549 C563 0.961 . S
H550 C564 0.960 . S
H551 C564 0.961 . S
H552 C564 0.959 1_655 S
H553 C567 0.929 . S
H554 C568 0.931 . S
H555 C570 0.930 . S
C556 H544 0.930 . S
C556 C557 1.399 . S
C556 C561 1.399 . S
C557 C556 1.399 . S
C557 C558 1.376 1_455 S
C558 H545 0.930 . S
C558 C557 1.376 1_655 S
C558 C559 1.388 . S
C559 H546 0.930 . S
C559 C558 1.388 . S
C559 C560 1.411 . S
C560 C559 1.411 . S
C560 C561 1.370 1_655 S
C560 C566 1.463 1_655 S
C561 C556 1.399 . S
C561 C560 1.370 1_455 S
C561 C562 1.516 . S
C562 C561 1.516 . S
C562 C563 1.502 . S
C562 C564 1.561 . S
C562 C565 1.526 . S
C563 H547 0.959 . S
C563 H548 0.959 . S
C563 H549 0.961 . S
C563 C562 1.502 . S
C564 H550 0.960 . S
C564 H551 0.961 . S
C564 H552 0.959 1_455 S
C564 C562 1.561 . S
C565 C562 1.526 . S
C565 C566 1.407 . S
C565 C570 1.390 . S
C566 C560 1.463 1_455 S
C566 C565 1.407 . S
C566 C567 1.391 1_455 S
C567 H553 0.929 . S
C567 C566 1.391 1_655 S
C567 C568 1.385 . S
C568 H554 0.931 . S
C568 C567 1.385 . S
C568 C569 1.389 1_655 S
C569 C568 1.389 1_455 S
C569 C570 1.387 . S
C570 H555 0.930 . S
C570 C565 1.390 . S
C570 C569 1.387 . S
H571 C583 0.930 . S
H572 C585 0.930 . S
H573 C586 0.930 . S
H574 C590 0.959 . S
H575 C590 0.959 . S
H576 C590 0.961 . S
H577 C591 0.960 . S
H578 C591 0.961 . S
H579 C591 0.959 . S
H580 C594 0.929 . S
H581 C595 0.931 . S
H582 C597 0.930 . S
C583 H571 0.930 . S
C583 C584 1.399 . S
C583 C588 1.399 . S
C584 C583 1.399 . S
C584 C585 1.376 . S
C585 H572 0.930 . S
C585 C584 1.376 . S
C585 C586 1.388 . S
C586 H573 0.930 . S
C586 C585 1.388 . S
C586 C587 1.390 . S
C587 C586 1.390 . S
C587 C588 1.394 . S
C587 C593 1.465 . S
C588 C583 1.399 . S
C588 C587 1.394 . S
C588 C589 1.516 . S
C589 C588 1.516 . S
C589 C590 1.502 . S
C589 C591 1.561 . S
C589 C592 1.526 . S
C590 H574 0.959 . S
C590 H575 0.959 . S
C590 H576 0.961 . S
C590 C589 1.502 . S
C591 H577 0.960 . S
C591 H578 0.961 . S
C591 H579 0.959 . S
C591 C589 1.561 . S
C592 C589 1.526 . S
C592 C593 1.396 . S
C592 C597 1.390 . S
C593 C587 1.465 . S
C593 C592 1.396 . S
C593 C594 1.399 . S
C594 H580 0.929 . S
C594 C593 1.399 . S
C594 C595 1.385 . S
C595 H581 0.931 . S
C595 C594 1.385 . S
C595 C596 1.389 . S
C596 C595 1.389 . S
C596 C597 1.387 . S
C597 H582 0.930 . S
C597 C592 1.390 . S
C597 C596 1.387 . S
H598 C610 0.930 . S
H599 C612 0.930 . S
H600 C613 0.930 . S
H601 C617 0.959 . S
H602 C617 0.959 1_556 S
H603 C617 0.961 . S
H604 C618 0.960 . S
H605 C618 0.961 1_556 S
H606 C618 0.959 . S
H607 C621 0.929 . S
H608 C622 0.931 . S
H609 C624 0.930 . S
C610 H598 0.930 . S
C610 C611 1.399 . S
C610 C615 1.399 . S
C611 C610 1.399 . S
C611 C612 1.376 . S
C612 H599 0.930 . S
C612 C611 1.376 . S
C612 C613 1.388 . S
C613 H600 0.930 . S
C613 C612 1.388 . S
C613 C614 1.390 . S
C614 C613 1.390 . S
C614 C615 1.394 . S
C614 C620 1.480 . S
C615 C610 1.399 . S
C615 C614 1.394 . S
C615 C616 1.516 . S
C616 C615 1.516 . S
C616 C617 1.502 . S
C616 C618 1.561 . S
C616 C619 1.526 1_554 S
C617 H601 0.959 . S
C617 H602 0.959 1_554 S
C617 H603 0.961 . S
C617 C616 1.502 . S
C618 H604 0.960 . S
C618 H605 0.961 1_554 S
C618 H606 0.959 . S
C618 C616 1.561 . S
C619 C616 1.526 1_556 S
C619 C620 1.390 1_556 S
C619 C624 1.390 . S
C620 C614 1.480 . S
C620 C619 1.390 1_554 S
C620 C621 1.390 1_554 S
C621 H607 0.929 . S
C621 C620 1.390 1_556 S
C621 C622 1.385 . S
C622 H608 0.931 . S
C622 C621 1.385 . S
C622 C623 1.389 . S
C623 C622 1.389 . S
C623 C624 1.387 . S
C624 H609 0.930 . S
C624 C619 1.390 . S
C624 C623 1.387 . S
H625 C637 0.930 . S
H626 C639 0.930 . S
H627 C640 0.930 . S
H628 C644 0.959 . S
H629 C644 0.959 . S
H630 C644 0.961 . S
H631 C645 0.960 . S
H632 C645 0.961 . S
H633 C645 0.959 . S
H634 C648 0.929 . S
H635 C649 0.931 . S
H636 C651 0.930 . S
C637 H625 0.930 . S
C637 C638 1.399 . S
C637 C642 1.399 . S
C638 C637 1.399 . S
C638 C639 1.376 . S
C639 H626 0.930 . S
C639 C638 1.376 . S
C639 C640 1.388 . S
C640 H627 0.930 . S
C640 C639 1.388 . S
C640 C641 1.390 . S
C641 C640 1.390 . S
C641 C642 1.394 . S
C641 C647 1.465 . S
C642 C637 1.399 . S
C642 C641 1.394 . S
C642 C643 1.516 . S
C643 C642 1.516 . S
C643 C644 1.502 . S
C643 C645 1.561 . S
C643 C646 1.526 . S
C644 H628 0.959 . S
C644 H629 0.959 . S
C644 H630 0.961 . S
C644 C643 1.502 . S
C645 H631 0.960 . S
C645 H632 0.961 . S
C645 H633 0.959 . S
C645 C643 1.561 . S
C646 C643 1.526 . S
C646 C647 1.396 . S
C646 C651 1.390 . S
C647 C641 1.465 . S
C647 C646 1.396 . S
C647 C648 1.399 . S
C648 H634 0.929 . S
C648 C647 1.399 . S
C648 C649 1.385 . S
C649 H635 0.931 . S
C649 C648 1.385 . S
C649 C650 1.389 . S
C650 C649 1.389 . S
C650 C651 1.387 . S
C651 H636 0.930 . S
C651 C646 1.390 . S
C651 C650 1.387 . S
H652 C664 0.930 . S
H653 C666 0.930 . S
H654 C667 0.930 . S
H655 C671 0.959 . S
H656 C671 0.959 1_455 S
H657 C671 0.960 1_455 S
H658 C672 0.960 . S
H659 C672 0.961 . S
H660 C672 0.959 . S
H661 C675 0.929 . S
H662 C676 0.931 . S
H663 C678 0.930 . S
C664 H652 0.930 . S
C664 C665 1.399 . S
C664 C669 1.399 . S
C665 C664 1.399 . S
C665 C666 1.376 . S
C666 H653 0.930 . S
C666 C665 1.376 . S
C666 C667 1.388 . S
C667 H654 0.930 . S
C667 C666 1.388 . S
C667 C668 1.390 . S
C668 C667 1.390 . S
C668 C669 1.394 . S
C668 C674 1.465 . S
C669 C664 1.399 . S
C669 C668 1.394 . S
C669 C670 1.516 . S
C670 C669 1.516 . S
C670 C671 1.502 1_455 S
C670 C672 1.561 . S
C670 C673 1.526 . S
C671 H655 0.959 . S
C671 H656 0.959 1_655 S
C671 H657 0.960 1_655 S
C671 C670 1.502 1_655 S
C672 H658 0.960 . S
C672 H659 0.961 . S
C672 H660 0.959 . S
C672 C670 1.561 . S
C673 C670 1.526 . S
C673 C674 1.396 . S
C673 C678 1.390 . S
C674 C668 1.465 . S
C674 C673 1.396 . S
C674 C675 1.399 . S
C675 H661 0.929 . S
C675 C674 1.399 . S
C675 C676 1.385 . S
C676 H662 0.931 . S
C676 C675 1.385 . S
C676 C677 1.389 . S
C677 C676 1.389 . S
C677 C678 1.387 . S
C678 H663 0.930 . S
C678 C673 1.390 . S
C678 C677 1.387 . S
H679 C691 0.930 . S
H680 C693 0.930 . S
H681 C694 0.930 . S
H682 C698 0.959 . S
H683 C698 0.959 . S
H684 C698 0.961 . S
H685 C699 0.960 . S
H686 C699 0.961 . S
H687 C699 0.959 . S
H688 C702 0.929 . S
H689 C703 0.931 . S
H690 C705 0.930 . S
C691 H679 0.930 . S
C691 C692 1.399 . S
C691 C696 1.399 . S
C692 C691 1.399 . S
C692 C693 1.376 . S
C693 H680 0.930 . S
C693 C692 1.376 . S
C693 C694 1.388 . S
C694 H681 0.930 . S
C694 C693 1.388 . S
C694 C695 1.390 . S
C695 C694 1.390 . S
C695 C696 1.394 . S
C695 C701 1.465 . S
C696 C691 1.399 . S
C696 C695 1.394 . S
C696 C697 1.516 . S
C697 C696 1.516 . S
C697 C698 1.502 . S
C697 C699 1.561 . S
C697 C700 1.526 . S
C698 H682 0.959 . S
C698 H683 0.959 . S
C698 H684 0.961 . S
C698 C697 1.502 . S
C699 H685 0.960 . S
C699 H686 0.961 . S
C699 H687 0.959 . S
C699 C697 1.561 . S
C700 C697 1.526 . S
C700 C701 1.396 . S
C700 C705 1.390 . S
C701 C695 1.465 . S
C701 C700 1.396 . S
C701 C702 1.399 . S
C702 H688 0.929 . S
C702 C701 1.399 . S
C702 C703 1.385 . S
C703 H689 0.931 . S
C703 C702 1.385 . S
C703 C704 1.389 . S
C704 C703 1.389 . S
C704 C705 1.387 . S
C705 H690 0.930 . S
C705 C700 1.390 . S
C705 C704 1.387 . S
H706 C718 0.930 . S
H707 C720 0.930 . S
H708 C721 0.930 . S
H709 C725 0.959 . S
H710 C725 0.959 . S
H711 C725 0.961 . S
H712 C726 0.960 . S
H713 C726 0.961 . S
H714 C726 0.959 . S
H715 C729 0.929 . S
H716 C730 0.931 . S
H717 C732 0.930 . S
C718 H706 0.930 . S
C718 C719 1.399 . S
C718 C723 1.399 . S
C719 C718 1.399 . S
C719 C720 1.376 . S
C720 H707 0.930 . S
C720 C719 1.376 . S
C720 C721 1.388 . S
C721 H708 0.930 . S
C721 C720 1.388 . S
C721 C722 1.390 . S
C722 C721 1.390 . S
C722 C723 1.394 . S
C722 C728 1.465 1_556 S
C723 C718 1.399 . S
C723 C722 1.394 . S
C723 C724 1.516 . S
C724 C723 1.516 . S
C724 C725 1.502 . S
C724 C726 1.561 . S
C724 C727 1.526 1_556 S
C725 H709 0.959 . S
C725 H710 0.959 . S
C725 H711 0.961 . S
C725 C724 1.502 . S
C726 H712 0.960 . S
C726 H713 0.961 . S
C726 H714 0.959 . S
C726 C724 1.561 . S
C727 C724 1.526 1_554 S
C727 C728 1.396 . S
C727 C732 1.390 . S
C728 C722 1.465 1_554 S
C728 C727 1.396 . S
C728 C729 1.399 . S
C729 H715 0.929 . S
C729 C728 1.399 . S
C729 C730 1.385 . S
C730 H716 0.931 . S
C730 C729 1.385 . S
C730 C731 1.389 . S
C731 C730 1.389 . S
C731 C732 1.387 . S
C732 H717 0.930 . S
C732 C727 1.390 . S
C732 C731 1.387 . S
H733 C745 0.930 . S
H734 C747 0.930 . S
H735 C748 0.930 . S
H736 C752 0.959 . S
H737 C752 0.959 . S
H738 C752 0.961 . S
H739 C753 0.960 . S
H740 C753 0.961 . S
H741 C753 0.959 . S
H742 C756 0.929 . S
H743 C757 0.931 . S
H744 C759 0.930 . S
C745 H733 0.930 . S
C745 C746 1.399 . S
C745 C750 1.399 . S
C746 C745 1.399 . S
C746 C747 1.376 . S
C747 H734 0.930 . S
C747 C746 1.376 . S
C747 C748 1.388 . S
C748 H735 0.930 . S
C748 C747 1.388 . S
C748 C749 1.390 . S
C749 C748 1.390 . S
C749 C750 1.394 . S
C749 C755 1.465 . S
C750 C745 1.399 . S
C750 C749 1.394 . S
C750 C751 1.516 . S
C751 C750 1.516 . S
C751 C752 1.502 . S
C751 C753 1.561 . S
C751 C754 1.526 . S
C752 H736 0.959 . S
C752 H737 0.959 . S
C752 H738 0.961 . S
C752 C751 1.502 . S
C753 H739 0.960 . S
C753 H740 0.961 . S
C753 H741 0.959 . S
C753 C751 1.561 . S
C754 C751 1.526 . S
C754 C755 1.396 . S
C754 C759 1.390 . S
C755 C749 1.465 . S
C755 C754 1.396 . S
C755 C756 1.399 . S
C756 H742 0.929 . S
C756 C755 1.399 . S
C756 C757 1.385 . S
C757 H743 0.931 . S
C757 C756 1.385 . S
C757 C758 1.389 . S
C758 C757 1.389 . S
C758 C759 1.387 . S
C759 H744 0.930 . S
C759 C754 1.390 . S
C759 C758 1.387 . S
H760 C772 0.930 . S
H761 C774 0.930 . S
H762 C775 0.930 . S
H763 C779 0.959 . S
H764 C779 0.959 . S
H765 C779 0.961 . S
H766 C780 0.960 . S
H767 C780 0.961 . S
H768 C780 0.959 . S
H769 C783 0.929 . S
H770 C784 0.931 . S
H771 C786 0.930 . S
C772 H760 0.930 . S
C772 C773 1.399 . S
C772 C777 1.399 . S
C773 C772 1.399 . S
C773 C774 1.376 . S
C774 H761 0.930 . S
C774 C773 1.376 . S
C774 C775 1.388 . S
C775 H762 0.930 . S
C775 C774 1.388 . S
C775 C776 1.390 . S
C776 C775 1.390 . S
C776 C777 1.394 . S
C776 C782 1.465 . S
C777 C772 1.399 . S
C777 C776 1.394 . S
C777 C778 1.516 . S
C778 C777 1.516 . S
C778 C779 1.502 . S
C778 C780 1.561 . S
C778 C781 1.526 . S
C779 H763 0.959 . S
C779 H764 0.959 . S
C779 H765 0.961 . S
C779 C778 1.502 . S
C780 H766 0.960 . S
C780 H767 0.961 . S
C780 H768 0.959 . S
C780 C778 1.561 . S
C781 C778 1.526 . S
C781 C782 1.396 . S
C781 C786 1.390 . S
C782 C776 1.465 . S
C782 C781 1.396 . S
C782 C783 1.399 . S
C783 H769 0.929 . S
C783 C782 1.399 . S
C783 C784 1.385 . S
C784 H770 0.931 . S
C784 C783 1.385 . S
C784 C785 1.389 . S
C785 C784 1.389 . S
C785 C786 1.387 . S
C786 H771 0.930 . S
C786 C781 1.390 . S
C786 C785 1.387 . S
H787 C799 0.930 . S
H788 C801 0.930 . S
H789 C802 0.930 . S
H790 C806 0.959 . S
H791 C806 0.959 . S
H792 C806 0.961 . S
H793 C807 0.960 . S
H794 C807 0.961 . S
H795 C807 0.959 . S
H796 C810 0.929 . S
H797 C811 0.931 . S
H798 C813 0.930 . S
C799 H787 0.930 . S
C799 C800 1.399 . S
C799 C804 1.399 . S
C800 C799 1.399 . S
C800 C801 1.376 . S
C801 H788 0.930 . S
C801 C800 1.376 . S
C801 C802 1.388 . S
C802 H789 0.930 . S
C802 C801 1.388 . S
C802 C803 1.390 . S
C803 C802 1.390 . S
C803 C804 1.394 . S
C803 C809 1.465 . S
C804 C799 1.399 . S
C804 C803 1.394 . S
C804 C805 1.516 . S
C805 C804 1.516 . S
C805 C806 1.502 . S
C805 C807 1.561 . S
C805 C808 1.526 . S
C806 H790 0.959 . S
C806 H791 0.959 . S
C806 H792 0.961 . S
C806 C805 1.502 . S
C807 H793 0.960 . S
C807 H794 0.961 . S
C807 H795 0.959 . S
C807 C805 1.561 . S
C808 C805 1.526 . S
C808 C809 1.396 . S
C808 C813 1.390 . S
C809 C803 1.465 . S
C809 C808 1.396 . S
C809 C810 1.399 . S
C810 H796 0.929 . S
C810 C809 1.399 . S
C810 C811 1.385 . S
C811 H797 0.931 . S
C811 C810 1.385 . S
C811 C812 1.389 . S
C812 C811 1.389 . S
C812 C813 1.387 . S
C813 H798 0.930 . S
C813 C808 1.390 . S
C813 C812 1.387 . S
H814 C826 0.930 . S
H815 C828 0.930 . S
H816 C829 0.930 . S
H817 C833 0.959 . S
H818 C833 0.959 . S
H819 C833 0.961 . S
H820 C834 0.960 . S
H821 C834 0.961 . S
H822 C834 0.959 . S
H823 C837 0.929 . S
H824 C838 0.931 . S
H825 C840 0.930 . S
C826 H814 0.930 . S
C826 C827 1.399 . S
C826 C831 1.399 . S
C827 C826 1.399 . S
C827 C828 1.376 . S
C828 H815 0.930 . S
C828 C827 1.376 . S
C828 C829 1.388 . S
C829 H816 0.930 . S
C829 C828 1.388 . S
C829 C830 1.390 . S
C830 C829 1.390 . S
C830 C831 1.394 . S
C830 C836 1.465 . S
C831 C826 1.399 . S
C831 C830 1.394 . S
C831 C832 1.516 . S
C832 C831 1.516 . S
C832 C833 1.502 . S
C832 C834 1.561 . S
C832 C835 1.526 . S
C833 H817 0.959 . S
C833 H818 0.959 . S
C833 H819 0.961 . S
C833 C832 1.502 . S
C834 H820 0.960 . S
C834 H821 0.961 . S
C834 H822 0.959 . S
C834 C832 1.561 . S
C835 C832 1.526 . S
C835 C836 1.396 . S
C835 C840 1.390 . S
C836 C830 1.465 . S
C836 C835 1.396 . S
C836 C837 1.399 . S
C837 H823 0.929 . S
C837 C836 1.399 . S
C837 C838 1.385 . S
C838 H824 0.931 . S
C838 C837 1.385 . S
C838 C839 1.389 . S
C839 C838 1.389 . S
C839 C840 1.387 . S
C840 H825 0.930 . S
C840 C835 1.390 . S
C840 C839 1.387 . S
H841 C853 0.930 . S
H842 C855 0.930 . S
H843 C856 0.930 . S
H844 C860 0.959 . S
H845 C860 0.959 . S
H846 C860 0.961 . S
H847 C861 0.960 . S
H848 C861 0.961 . S
H849 C861 0.959 . S
H850 C864 0.929 . S
H851 C865 0.931 . S
H852 C867 0.930 . S
C853 H841 0.930 . S
C853 C854 1.399 . S
C853 C858 1.399 . S
C854 C853 1.399 . S
C854 C855 1.376 . S
C855 H842 0.930 . S
C855 C854 1.376 . S
C855 C856 1.388 . S
C856 H843 0.930 . S
C856 C855 1.388 . S
C856 C857 1.390 . S
C857 C856 1.390 . S
C857 C858 1.394 . S
C857 C863 1.465 . S
C858 C853 1.399 . S
C858 C857 1.394 . S
C858 C859 1.516 . S
C859 C858 1.516 . S
C859 C860 1.502 . S
C859 C861 1.561 . S
C859 C862 1.526 . S
C860 H844 0.959 . S
C860 H845 0.959 . S
C860 H846 0.961 . S
C860 C859 1.502 . S
C861 H847 0.960 . S
C861 H848 0.961 . S
C861 H849 0.959 . S
C861 C859 1.561 . S
C862 C859 1.526 . S
C862 C863 1.396 . S
C862 C867 1.390 . S
C863 C857 1.465 . S
C863 C862 1.396 . S
C863 C864 1.399 . S
C864 H850 0.929 . S
C864 C863 1.399 . S
C864 C865 1.385 . S
C865 H851 0.931 . S
C865 C864 1.385 . S
C865 C866 1.389 . S
C866 C865 1.389 . S
C866 C867 1.387 . S
C867 H852 0.930 . S
C867 C862 1.390 . S
C867 C866 1.387 . S
H868 C880 0.930 . S
H869 C882 0.930 . S
H870 C883 0.930 . S
H871 C887 0.959 . S
H872 C887 0.959 . S
H873 C887 0.961 1_556 S
H874 C888 0.960 1_556 S
H875 C888 0.961 . S
H876 C888 0.959 . S
H877 C891 0.929 . S
H878 C892 0.931 . S
H879 C894 0.930 . S
C880 H868 0.930 . S
C880 C881 1.399 . S
C880 C885 1.399 . S
C881 C880 1.399 . S
C881 C882 1.376 . S
C882 H869 0.930 . S
C882 C881 1.376 . S
C882 C883 1.388 . S
C883 H870 0.930 . S
C883 C882 1.388 . S
C883 C884 1.390 . S
C884 C883 1.390 . S
C884 C885 1.394 . S
C884 C890 1.465 1_556 S
C885 C880 1.399 . S
C885 C884 1.394 . S
C885 C886 1.516 1_556 S
C886 C885 1.516 1_554 S
C886 C887 1.502 . S
C886 C888 1.561 . S
C886 C889 1.526 . S
C887 H871 0.959 . S
C887 H872 0.959 . S
C887 H873 0.961 1_554 S
C887 C886 1.502 . S
C888 H874 0.960 1_554 S
C888 H875 0.961 . S
C888 H876 0.959 . S
C888 C886 1.561 . S
C889 C886 1.526 . S
C889 C890 1.396 . S
C889 C894 1.390 . S
C890 C884 1.465 1_554 S
C890 C889 1.396 . S
C890 C891 1.399 . S
C891 H877 0.929 . S
C891 C890 1.399 . S
C891 C892 1.385 . S
C892 H878 0.931 . S
C892 C891 1.385 . S
C892 C893 1.389 . S
C893 C892 1.389 . S
C893 C894 1.387 . S
C894 H879 0.930 . S
C894 C889 1.390 . S
C894 C893 1.387 . S
H895 C907 0.930 . S
H896 C909 0.930 1_655 S
H897 C910 0.962 . S
H898 C914 0.959 . S
H899 C914 0.959 . S
H900 C914 0.961 . S
H901 C915 0.960 . S
H902 C915 0.961 . S
H903 C915 0.959 . S
H904 C918 0.929 . S
H905 C919 0.891 1_655 S
H906 C921 0.930 . S
C907 H895 0.930 . S
C907 C908 1.399 . S
C907 C912 1.399 . S
C908 C907 1.399 . S
C908 C909 1.376 . S
C909 H896 0.930 1_455 S
C909 C908 1.376 . S
C909 C910 1.380 1_455 S
C910 H897 0.962 . S
C910 C909 1.380 1_655 S
C910 C911 1.366 1_655 S
C911 C910 1.366 1_455 S
C911 C912 1.394 . S
C911 C917 1.465 . S
C912 C907 1.399 . S
C912 C911 1.394 . S
C912 C913 1.516 . S
C913 C912 1.516 . S
C913 C914 1.502 . S
C913 C915 1.561 . S
C913 C916 1.526 . S
C914 H898 0.959 . S
C914 H899 0.959 . S
C914 H900 0.961 . S
C914 C913 1.502 . S
C915 H901 0.960 . S
C915 H902 0.961 . S
C915 H903 0.959 . S
C915 C913 1.561 . S
C916 C913 1.526 . S
C916 C917 1.396 . S
C916 C921 1.390 . S
C917 C911 1.465 . S
C917 C916 1.396 . S
C917 C918 1.399 1_455 S
C918 H904 0.929 . S
C918 C917 1.399 1_655 S
C918 C919 1.377 1_655 S
C919 H905 0.891 1_455 S
C919 C918 1.377 1_455 S
C919 C920 1.438 . S
C920 C919 1.438 . S
C920 C921 1.387 . S
C921 H906 0.930 . S
C921 C916 1.390 . S
C921 C920 1.387 . S
H922 C934 0.930 . S
H923 C936 0.930 . S
H924 C937 0.930 . S
H925 C941 0.959 . S
H926 C941 0.959 . S
H927 C941 0.961 1_554 S
H928 C942 0.960 . S
H929 C942 0.961 . S
H930 C942 0.959 . S
H931 C945 0.929 . S
H932 C946 0.931 . S
H933 C948 0.930 . S
C934 H922 0.930 . S
C934 C935 1.399 . S
C934 C939 1.399 . S
C935 C934 1.399 . S
C935 C936 1.376 . S
C936 H923 0.930 . S
C936 C935 1.376 . S
C936 C937 1.388 . S
C937 H924 0.930 . S
C937 C936 1.388 . S
C937 C938 1.390 . S
C938 C937 1.390 . S
C938 C939 1.394 . S
C938 C944 1.465 1_554 S
C939 C934 1.399 . S
C939 C938 1.394 . S
C939 C940 1.516 1_554 S
C940 C939 1.516 1_556 S
C940 C941 1.502 . S
C940 C942 1.561 . S
C940 C943 1.526 . S
C941 H925 0.959 . S
C941 H926 0.959 . S
C941 H927 0.961 1_556 S
C941 C940 1.502 . S
C942 H928 0.960 . S
C942 H929 0.961 . S
C942 H930 0.959 . S
C942 C940 1.561 . S
C943 C940 1.526 . S
C943 C944 1.396 . S
C943 C948 1.390 . S
C944 C938 1.465 1_556 S
C944 C943 1.396 . S
C944 C945 1.399 . S
C945 H931 0.929 . S
C945 C944 1.399 . S
C945 C946 1.385 . S
C946 H932 0.931 . S
C946 C945 1.385 . S
C946 C947 1.389 . S
C947 C946 1.389 . S
C947 C948 1.387 . S
C948 H933 0.930 . S
C948 C943 1.390 . S
C948 C947 1.387 . S
H949 C961 0.930 . S
H950 C963 0.930 . S
H951 C964 0.930 . S
H952 C968 0.959 . S
H953 C968 0.959 . S
H954 C968 0.961 . S
H955 C969 0.960 . S
H956 C969 0.961 . S
H957 C969 0.959 . S
H958 C972 0.929 . S
H959 C973 0.931 . S
H960 C975 0.930 . S
C961 H949 0.930 . S
C961 C962 1.399 . S
C961 C966 1.399 . S
C962 C961 1.399 . S
C962 C963 1.376 . S
C963 H950 0.930 . S
C963 C962 1.376 . S
C963 C964 1.388 . S
C964 H951 0.930 . S
C964 C963 1.388 . S
C964 C965 1.390 . S
C965 C964 1.390 . S
C965 C966 1.394 . S
C965 C971 1.465 . S
C966 C961 1.399 . S
C966 C965 1.394 . S
C966 C967 1.516 . S
C967 C966 1.516 . S
C967 C968 1.502 . S
C967 C969 1.561 . S
C967 C970 1.526 . S
C968 H952 0.959 . S
C968 H953 0.959 . S
C968 H954 0.961 . S
C968 C967 1.502 . S
C969 H955 0.960 . S
C969 H956 0.961 . S
C969 H957 0.959 . S
C969 C967 1.561 . S
C970 C967 1.526 . S
C970 C971 1.396 . S
C970 C975 1.390 . S
C971 C965 1.465 . S
C971 C970 1.396 . S
C971 C972 1.399 . S
C972 H958 0.929 . S
C972 C971 1.399 . S
C972 C973 1.385 . S
C973 H959 0.931 . S
C973 C972 1.385 . S
C973 C974 1.389 . S
C974 C973 1.389 . S
C974 C975 1.387 . S
C975 H960 0.930 . S
C975 C970 1.390 . S
C975 C974 1.387 . S
H976 C988 0.930 . S
H977 C990 0.930 . S
H978 C991 0.930 . S
H979 C995 0.959 . S
H980 C995 0.959 . S
H981 C995 0.961 . S
H982 C996 0.960 . S
H983 C996 0.961 . S
H984 C996 0.959 . S
H985 C999 0.929 . S
H986 C1000 0.931 . S
H987 C1002 0.930 . S
C988 H976 0.930 . S
C988 C989 1.399 . S
C988 C993 1.399 . S
C989 C988 1.399 . S
C989 C990 1.376 1_554 S
C990 H977 0.930 . S
C990 C989 1.376 1_556 S
C990 C991 1.388 . S
C991 H978 0.930 . S
C991 C990 1.388 . S
C991 C992 1.390 . S
C992 C991 1.390 . S
C992 C993 1.394 1_556 S
C992 C998 1.465 . S
C993 C988 1.399 . S
C993 C992 1.394 1_554 S
C993 C994 1.516 . S
C994 C993 1.516 . S
C994 C995 1.502 . S
C994 C996 1.561 . S
C994 C997 1.526 . S
C995 H979 0.959 . S
C995 H980 0.959 . S
C995 H981 0.961 . S
C995 C994 1.502 . S
C996 H982 0.960 . S
C996 H983 0.961 . S
C996 H984 0.959 . S
C996 C994 1.561 . S
C997 C994 1.526 . S
C997 C998 1.396 1_554 S
C997 C1002 1.390 . S
C998 C992 1.465 . S
C998 C997 1.396 1_556 S
C998 C999 1.399 . S
C999 H985 0.929 . S
C999 C998 1.399 . S
C999 C1000 1.385 . S
C1000 H986 0.931 . S
C1000 C999 1.385 . S
C1000 C1001 1.389 . S
C1001 C1000 1.389 . S
C1001 C1002 1.387 1_556 S
C1002 H987 0.930 . S
C1002 C997 1.390 . S
C1002 C1001 1.387 1_554 S
H1003 C1015 0.930 . S
H1004 C1017 0.930 . S
H1005 C1018 0.930 . S
H1006 C1022 0.959 . S
H1007 C1022 0.959 . S
H1008 C1022 0.961 . S
H1009 C1023 0.960 . S
H1010 C1023 0.961 . S
H1011 C1023 0.959 . S
H1012 C1026 0.929 . S
H1013 C1027 0.931 . S
H1014 C1029 0.930 . S
C1015 H1003 0.930 . S
C1015 C1016 1.399 . S
C1015 C1020 1.399 . S
C1016 C1015 1.399 . S
C1016 C1017 1.376 . S
C1017 H1004 0.930 . S
C1017 C1016 1.376 . S
C1017 C1018 1.388 . S
C1018 H1005 0.930 . S
C1018 C1017 1.388 . S
C1018 C1019 1.390 . S
C1019 C1018 1.390 . S
C1019 C1020 1.394 . S
C1019 C1025 1.465 . S
C1020 C1015 1.399 . S
C1020 C1019 1.394 . S
C1020 C1021 1.516 . S
C1021 C1020 1.516 . S
C1021 C1022 1.502 . S
C1021 C1023 1.561 . S
C1021 C1024 1.526 . S
C1022 H1006 0.959 . S
C1022 H1007 0.959 . S
C1022 H1008 0.961 . S
C1022 C1021 1.502 . S
C1023 H1009 0.960 . S
C1023 H1010 0.961 . S
C1023 H1011 0.959 . S
C1023 C1021 1.561 . S
C1024 C1021 1.526 . S
C1024 C1025 1.396 . S
C1024 C1029 1.390 . S
C1025 C1019 1.465 . S
C1025 C1024 1.396 . S
C1025 C1026 1.399 . S
C1026 H1012 0.929 . S
C1026 C1025 1.399 . S
C1026 C1027 1.385 . S
C1027 H1013 0.931 . S
C1027 C1026 1.385 . S
C1027 C1028 1.389 . S
C1028 C1027 1.389 . S
C1028 C1029 1.387 . S
C1029 H1014 0.930 . S
C1029 C1024 1.390 . S
C1029 C1028 1.387 . S
H1030 C1042 0.930 . S
H1031 C1044 0.930 . S
H1032 C1045 0.930 . S
H1033 C1049 0.959 . S
H1034 C1049 0.959 . S
H1035 C1049 0.961 . S
H1036 C1050 0.960 . S
H1037 C1050 0.961 . S
H1038 C1050 0.959 . S
H1039 C1053 0.929 . S
H1040 C1054 0.931 . S
H1041 C1056 0.930 . S
C1042 H1030 0.930 . S
C1042 C1043 1.399 . S
C1042 C1047 1.399 . S
C1043 C1042 1.399 . S
C1043 C1044 1.376 . S
C1044 H1031 0.930 . S
C1044 C1043 1.376 . S
C1044 C1045 1.388 . S
C1045 H1032 0.930 . S
C1045 C1044 1.388 . S
C1045 C1046 1.390 . S
C1046 C1045 1.390 . S
C1046 C1047 1.394 . S
C1046 C1052 1.465 . S
C1047 C1042 1.399 . S
C1047 C1046 1.394 . S
C1047 C1048 1.516 . S
C1048 C1047 1.516 . S
C1048 C1049 1.502 . S
C1048 C1050 1.561 . S
C1048 C1051 1.526 . S
C1049 H1033 0.959 . S
C1049 H1034 0.959 . S
C1049 H1035 0.961 . S
C1049 C1048 1.502 . S
C1050 H1036 0.960 . S
C1050 H1037 0.961 . S
C1050 H1038 0.959 . S
C1050 C1048 1.561 . S
C1051 C1048 1.526 . S
C1051 C1052 1.396 . S
C1051 C1056 1.390 . S
C1052 C1046 1.465 . S
C1052 C1051 1.396 . S
C1052 C1053 1.399 . S
C1053 H1039 0.929 . S
C1053 C1052 1.399 . S
C1053 C1054 1.385 . S
C1054 H1040 0.931 . S
C1054 C1053 1.385 . S
C1054 C1055 1.389 . S
C1055 C1054 1.389 . S
C1055 C1056 1.387 . S
C1056 H1041 0.930 . S
C1056 C1051 1.390 . S
C1056 C1055 1.387 . S
H1057 C1069 0.930 . S
H1058 C1071 0.930 . S
H1059 C1072 0.930 . S
H1060 C1076 0.959 . S
H1061 C1076 0.959 . S
H1062 C1076 0.961 . S
H1063 C1077 0.960 . S
H1064 C1077 0.961 . S
H1065 C1077 0.959 . S
H1066 C1080 0.929 . S
H1067 C1081 0.931 . S
H1068 C1083 0.930 . S
C1069 H1057 0.930 . S
C1069 C1070 1.399 . S
C1069 C1074 1.399 . S
C1070 C1069 1.399 . S
C1070 C1071 1.376 . S
C1071 H1058 0.930 . S
C1071 C1070 1.376 . S
C1071 C1072 1.388 . S
C1072 H1059 0.930 . S
C1072 C1071 1.388 . S
C1072 C1073 1.390 . S
C1073 C1072 1.390 . S
C1073 C1074 1.394 . S
C1073 C1079 1.465 . S
C1074 C1069 1.399 . S
C1074 C1073 1.394 . S
C1074 C1075 1.516 . S
C1075 C1074 1.516 . S
C1075 C1076 1.502 . S
C1075 C1077 1.561 . S
C1075 C1078 1.526 . S
C1076 H1060 0.959 . S
C1076 H1061 0.959 . S
C1076 H1062 0.961 . S
C1076 C1075 1.502 . S
C1077 H1063 0.960 . S
C1077 H1064 0.961 . S
C1077 H1065 0.959 . S
C1077 C1075 1.561 . S
C1078 C1075 1.526 . S
C1078 C1079 1.396 . S
C1078 C1083 1.390 . S
C1079 C1073 1.465 . S
C1079 C1078 1.396 . S
C1079 C1080 1.399 . S
C1080 H1066 0.929 . S
C1080 C1079 1.399 . S
C1080 C1081 1.385 . S
C1081 H1067 0.931 . S
C1081 C1080 1.385 . S
C1081 C1082 1.389 . S
C1082 C1081 1.389 . S
C1082 C1083 1.387 . S
C1083 H1068 0.930 . S
C1083 C1078 1.390 . S
C1083 C1082 1.387 . S
H1084 C1096 0.930 . S
H1085 C1098 0.930 . S
H1086 C1099 0.930 . S
H1087 C1103 0.959 . S
H1088 C1103 0.959 . S
H1089 C1103 0.961 . S
H1090 C1104 0.960 . S
H1091 C1104 0.961 . S
H1092 C1104 0.959 . S
H1093 C1107 0.929 . S
H1094 C1108 0.931 . S
H1095 C1110 0.930 . S
C1096 H1084 0.930 . S
C1096 C1097 1.399 . S
C1096 C1101 1.399 . S
C1097 C1096 1.399 . S
C1097 C1098 1.376 . S
C1098 H1085 0.930 . S
C1098 C1097 1.376 . S
C1098 C1099 1.388 . S
C1099 H1086 0.930 . S
C1099 C1098 1.388 . S
C1099 C1100 1.390 . S
C1100 C1099 1.390 . S
C1100 C1101 1.394 . S
C1100 C1106 1.465 . S
C1101 C1096 1.399 . S
C1101 C1100 1.394 . S
C1101 C1102 1.516 . S
C1102 C1101 1.516 . S
C1102 C1103 1.502 . S
C1102 C1104 1.561 . S
C1102 C1105 1.526 . S
C1103 H1087 0.959 . S
C1103 H1088 0.959 . S
C1103 H1089 0.961 . S
C1103 C1102 1.502 . S
C1104 H1090 0.960 . S
C1104 H1091 0.961 . S
C1104 H1092 0.959 . S
C1104 C1102 1.561 . S
C1105 C1102 1.526 . S
C1105 C1106 1.396 . S
C1105 C1110 1.390 . S
C1106 C1100 1.465 . S
C1106 C1105 1.396 . S
C1106 C1107 1.399 . S
C1107 H1093 0.929 . S
C1107 C1106 1.399 . S
C1107 C1108 1.385 . S
C1108 H1094 0.931 . S
C1108 C1107 1.385 . S
C1108 C1109 1.389 . S
C1109 C1108 1.389 . S
C1109 C1110 1.387 . S
C1110 H1095 0.930 . S
C1110 C1105 1.390 . S
C1110 C1109 1.387 . S
H1111 C1123 0.930 . S
H1112 C1125 0.930 . S
H1113 C1126 0.930 . S
H1114 C1130 0.959 . S
H1115 C1130 0.959 . S
H1116 C1130 0.961 . S
H1117 C1131 0.960 . S
H1118 C1131 0.961 . S
H1119 C1131 0.959 . S
H1120 C1134 0.929 . S
H1121 C1135 0.931 . S
H1122 C1137 0.930 . S
C1123 H1111 0.930 . S
C1123 C1124 1.399 . S
C1123 C1128 1.399 . S
C1124 C1123 1.399 . S
C1124 C1125 1.376 . S
C1125 H1112 0.930 . S
C1125 C1124 1.376 . S
C1125 C1126 1.388 . S
C1126 H1113 0.930 . S
C1126 C1125 1.388 . S
C1126 C1127 1.390 . S
C1127 C1126 1.390 . S
C1127 C1128 1.394 . S
C1127 C1133 1.465 . S
C1128 C1123 1.399 . S
C1128 C1127 1.394 . S
C1128 C1129 1.516 . S
C1129 C1128 1.516 . S
C1129 C1130 1.502 . S
C1129 C1131 1.561 . S
C1129 C1132 1.526 . S
C1130 H1114 0.959 . S
C1130 H1115 0.959 . S
C1130 H1116 0.961 . S
C1130 C1129 1.502 . S
C1131 H1117 0.960 . S
C1131 H1118 0.961 . S
C1131 H1119 0.959 . S
C1131 C1129 1.561 . S
C1132 C1129 1.526 . S
C1132 C1133 1.396 . S
C1132 C1137 1.390 . S
C1133 C1127 1.465 . S
C1133 C1132 1.396 . S
C1133 C1134 1.399 . S
C1134 H1120 0.929 . S
C1134 C1133 1.399 . S
C1134 C1135 1.385 . S
C1135 H1121 0.931 . S
C1135 C1134 1.385 . S
C1135 C1136 1.389 . S
C1136 C1135 1.389 . S
C1136 C1137 1.387 . S
C1137 H1122 0.930 . S
C1137 C1132 1.390 . S
C1137 C1136 1.387 . S
H1138 C1150 0.930 . S
H1139 C1152 0.930 . S
H1140 C1153 0.930 . S
H1141 C1157 0.959 . S
H1142 C1157 0.959 . S
H1143 C1157 0.961 1_545 S
H1144 C1158 0.960 1_545 S
H1145 C1158 0.961 . S
H1146 C1158 0.959 . S
H1147 C1161 0.929 . S
H1148 C1162 0.931 . S
H1149 C1164 0.930 . S
C1150 H1138 0.930 . S
C1150 C1151 1.399 . S
C1150 C1155 1.399 . S
C1151 C1150 1.399 . S
C1151 C1152 1.376 . S
C1152 H1139 0.930 . S
C1152 C1151 1.376 . S
C1152 C1153 1.388 . S
C1153 H1140 0.930 . S
C1153 C1152 1.388 . S
C1153 C1154 1.390 . S
C1154 C1153 1.390 . S
C1154 C1155 1.394 . S
C1154 C1160 1.465 1_545 S
C1155 C1150 1.399 . S
C1155 C1154 1.394 . S
C1155 C1156 1.516 1_545 S
C1156 C1155 1.516 1_565 S
C1156 C1157 1.502 . S
C1156 C1158 1.561 . S
C1156 C1159 1.526 . S
C1157 H1141 0.959 . S
C1157 H1142 0.959 . S
C1157 H1143 0.961 1_565 S
C1157 C1156 1.502 . S
C1158 H1144 0.960 1_565 S
C1158 H1145 0.961 . S
C1158 H1146 0.959 . S
C1158 C1156 1.561 . S
C1159 C1156 1.526 . S
C1159 C1160 1.396 . S
C1159 C1164 1.390 . S
C1160 C1154 1.465 1_565 S
C1160 C1159 1.396 . S
C1160 C1161 1.399 . S
C1161 H1147 0.929 . S
C1161 C1160 1.399 . S
C1161 C1162 1.385 . S
C1162 H1148 0.931 . S
C1162 C1161 1.385 . S
C1162 C1163 1.389 . S
C1163 C1162 1.389 . S
C1163 C1164 1.387 . S
C1164 H1149 0.930 . S
C1164 C1159 1.390 . S
C1164 C1163 1.387 . S
H1165 C1177 0.930 . S
H1166 C1179 0.930 . S
H1167 C1180 0.930 . S
H1168 C1184 0.959 . S
H1169 C1184 0.959 . S
H1170 C1184 0.961 1_565 S
H1171 C1185 0.967 1_565 S
H1172 C1185 0.961 1_655 S
H1173 C1185 0.959 . S
H1174 C1188 0.929 . S
H1175 C1189 0.931 . S
H1176 C1191 0.930 . S
C1177 H1165 0.930 . S
C1177 C1178 1.399 1_655 S
C1177 C1182 1.406 . S
C1178 C1177 1.399 1_455 S
C1178 C1179 1.376 1_554 S
C1179 H1166 0.930 . S
C1179 C1178 1.376 1_556 S
C1179 C1180 1.388 . S
C1180 H1167 0.930 . S
C1180 C1179 1.388 . S
C1180 C1181 1.390 . S
C1181 C1180 1.390 . S
C1181 C1182 1.371 1_456 S
C1181 C1187 1.465 1_565 S
C1182 C1177 1.406 . S
C1182 C1181 1.371 1_654 S
C1182 C1183 1.530 1_565 S
C1183 C1182 1.530 1_545 S
C1183 C1184 1.502 . S
C1183 C1185 1.561 1_655 S
C1183 C1186 1.539 . S
C1184 H1168 0.959 . S
C1184 H1169 0.959 . S
C1184 H1170 0.961 1_545 S
C1184 C1183 1.502 . S
C1185 H1171 0.967 1_545 S
C1185 H1172 0.961 1_455 S
C1185 H1173 0.959 . S
C1185 C1183 1.561 1_455 S
C1186 C1183 1.539 . S
C1186 C1187 1.375 1_654 S
C1186 C1191 1.396 . S
C1187 C1181 1.465 1_545 S
C1187 C1186 1.375 1_456 S
C1187 C1188 1.399 . S
C1188 H1174 0.929 . S
C1188 C1187 1.399 . S
C1188 C1189 1.385 . S
C1189 H1175 0.931 . S
C1189 C1188 1.385 . S
C1189 C1190 1.389 . S
C1190 C1189 1.389 . S
C1190 C1191 1.387 1_456 S
C1191 H1176 0.930 . S
C1191 C1186 1.396 . S
C1191 C1190 1.387 1_654 S
H1192 C1204 0.930 . S
H1193 C1206 0.930 . S
H1194 C1207 0.930 . S
H1195 C1211 0.959 . S
H1196 C1211 0.959 . S
H1197 C1211 0.961 . S
H1198 C1212 0.960 . S
H1199 C1212 0.961 . S
H1200 C1212 0.959 . S
H1201 C1215 0.929 1_556 S
H1202 C1216 0.931 1_556 S
H1203 C1218 0.930 . S
C1204 H1192 0.930 . S
C1204 C1205 1.399 . S
C1204 C1209 1.399 . S
C1205 C1204 1.399 . S
C1205 C1206 1.376 . S
C1206 H1193 0.930 . S
C1206 C1205 1.376 . S
C1206 C1207 1.388 . S
C1207 H1194 0.930 . S
C1207 C1206 1.388 . S
C1207 C1208 1.390 . S
C1208 C1207 1.390 . S
C1208 C1209 1.394 . S
C1208 C1214 1.465 . S
C1209 C1204 1.399 . S
C1209 C1208 1.394 . S
C1209 C1210 1.516 . S
C1210 C1209 1.516 . S
C1210 C1211 1.502 . S
C1210 C1212 1.561 . S
C1210 C1213 1.526 . S
C1211 H1195 0.959 . S
C1211 H1196 0.959 . S
C1211 H1197 0.961 . S
C1211 C1210 1.502 . S
C1212 H1198 0.960 . S
C1212 H1199 0.961 . S
C1212 H1200 0.959 . S
C1212 C1210 1.561 . S
C1213 C1210 1.526 . S
C1213 C1214 1.396 . S
C1213 C1218 1.390 . S
C1214 C1208 1.465 . S
C1214 C1213 1.396 . S
C1214 C1215 1.399 . S
C1215 H1201 0.929 1_554 S
C1215 C1214 1.399 . S
C1215 C1216 1.385 . S
C1216 H1202 0.931 1_554 S
C1216 C1215 1.385 . S
C1216 C1217 1.389 . S
C1217 C1216 1.389 . S
C1217 C1218 1.387 . S
C1218 H1203 0.930 . S
C1218 C1213 1.390 . S
C1218 C1217 1.387 . S
H1219 C1231 0.930 . S
H1220 C1233 0.930 . S
H1221 C1234 0.930 . S
H1222 C1238 0.959 . S
H1223 C1238 0.959 . S
H1224 C1238 0.961 . S
H1225 C1239 0.960 . S
H1226 C1239 0.961 . S
H1227 C1239 0.959 . S
H1228 C1242 0.929 . S
H1229 C1243 0.931 . S
H1230 C1245 0.930 . S
C1231 H1219 0.930 . S
C1231 C1232 1.399 . S
C1231 C1236 1.399 . S
C1232 C1231 1.399 . S
C1232 C1233 1.376 . S
C1233 H1220 0.930 . S
C1233 C1232 1.376 . S
C1233 C1234 1.388 . S
C1234 H1221 0.930 . S
C1234 C1233 1.388 . S
C1234 C1235 1.390 . S
C1235 C1234 1.390 . S
C1235 C1236 1.394 . S
C1235 C1241 1.465 . S
C1236 C1231 1.399 . S
C1236 C1235 1.394 . S
C1236 C1237 1.516 . S
C1237 C1236 1.516 . S
C1237 C1238 1.502 . S
C1237 C1239 1.561 . S
C1237 C1240 1.526 . S
C1238 H1222 0.959 . S
C1238 H1223 0.959 . S
C1238 H1224 0.961 . S
C1238 C1237 1.502 . S
C1239 H1225 0.960 . S
C1239 H1226 0.961 . S
C1239 H1227 0.959 . S
C1239 C1237 1.561 . S
C1240 C1237 1.526 . S
C1240 C1241 1.396 . S
C1240 C1245 1.390 . S
C1241 C1235 1.465 . S
C1241 C1240 1.396 . S
C1241 C1242 1.399 . S
C1242 H1228 0.929 . S
C1242 C1241 1.399 . S
C1242 C1243 1.385 . S
C1243 H1229 0.931 . S
C1243 C1242 1.385 . S
C1243 C1244 1.389 . S
C1244 C1243 1.389 . S
C1244 C1245 1.387 . S
C1245 H1230 0.930 . S
C1245 C1240 1.390 . S
C1245 C1244 1.387 . S
H1246 C1258 0.930 . S
H1247 C1260 0.930 . S
H1248 C1261 0.930 . S
H1249 C1265 0.959 . S
H1250 C1265 0.959 . S
H1251 C1265 0.961 . S
H1252 C1266 0.960 . S
H1253 C1266 0.961 . S
H1254 C1266 0.959 . S
H1255 C1269 0.929 . S
H1256 C1270 0.931 . S
H1257 C1272 0.930 . S
C1258 H1246 0.930 . S
C1258 C1259 1.399 . S
C1258 C1263 1.399 . S
C1259 C1258 1.399 . S
C1259 C1260 1.376 . S
C1260 H1247 0.930 . S
C1260 C1259 1.376 . S
C1260 C1261 1.388 . S
C1261 H1248 0.930 . S
C1261 C1260 1.388 . S
C1261 C1262 1.390 . S
C1262 C1261 1.390 . S
C1262 C1263 1.394 . S
C1262 C1268 1.465 . S
C1263 C1258 1.399 . S
C1263 C1262 1.394 . S
C1263 C1264 1.516 . S
C1264 C1263 1.516 . S
C1264 C1265 1.502 . S
C1264 C1266 1.561 . S
C1264 C1267 1.526 . S
C1265 H1249 0.959 . S
C1265 H1250 0.959 . S
C1265 H1251 0.961 . S
C1265 C1264 1.502 . S
C1266 H1252 0.960 . S
C1266 H1253 0.961 . S
C1266 H1254 0.959 . S
C1266 C1264 1.561 . S
C1267 C1264 1.526 . S
C1267 C1268 1.396 . S
C1267 C1272 1.390 . S
C1268 C1262 1.465 . S
C1268 C1267 1.396 . S
C1268 C1269 1.399 . S
C1269 H1255 0.929 . S
C1269 C1268 1.399 . S
C1269 C1270 1.385 . S
C1270 H1256 0.931 . S
C1270 C1269 1.385 . S
C1270 C1271 1.389 . S
C1271 C1270 1.389 . S
C1271 C1272 1.387 . S
C1272 H1257 0.930 . S
C1272 C1267 1.390 . S
C1272 C1271 1.387 . S
H1273 C1285 0.930 . S
H1274 C1287 0.930 1_554 S
H1275 C1288 0.930 1_554 S
H1276 C1292 0.959 . S
H1277 C1292 0.959 . S
H1278 C1292 0.961 . S
H1279 C1293 0.960 . S
H1280 C1293 0.961 . S
H1281 C1293 0.959 . S
H1282 C1296 0.929 . S
H1283 C1297 0.931 . S
H1284 C1299 0.930 . S
C1285 H1273 0.930 . S
C1285 C1286 1.399 . S
C1285 C1290 1.399 . S
C1286 C1285 1.399 . S
C1286 C1287 1.376 . S
C1287 H1274 0.930 1_556 S
C1287 C1286 1.376 . S
C1287 C1288 1.388 . S
C1288 H1275 0.930 1_556 S
C1288 C1287 1.388 . S
C1288 C1289 1.390 . S
C1289 C1288 1.390 . S
C1289 C1290 1.394 . S
C1289 C1295 1.465 . S
C1290 C1285 1.399 . S
C1290 C1289 1.394 . S
C1290 C1291 1.516 . S
C1291 C1290 1.516 . S
C1291 C1292 1.502 . S
C1291 C1293 1.561 . S
C1291 C1294 1.526 . S
C1292 H1276 0.959 . S
C1292 H1277 0.959 . S
C1292 H1278 0.961 . S
C1292 C1291 1.502 . S
C1293 H1279 0.960 . S
C1293 H1280 0.961 . S
C1293 H1281 0.959 . S
C1293 C1291 1.561 . S
C1294 C1291 1.526 . S
C1294 C1295 1.396 . S
C1294 C1299 1.390 . S
C1295 C1289 1.465 . S
C1295 C1294 1.396 . S
C1295 C1296 1.399 . S
C1296 H1282 0.929 . S
C1296 C1295 1.399 . S
C1296 C1297 1.385 . S
C1297 H1283 0.931 . S
C1297 C1296 1.385 . S
C1297 C1298 1.389 . S
C1298 C1297 1.389 . S
C1298 C1299 1.387 . S
C1299 H1284 0.930 . S
C1299 C1294 1.390 . S
C1299 C1298 1.387 . S
H1300 C1312 0.930 . S
H1301 C1314 0.930 . S
H1302 C1315 0.930 . S
H1303 C1319 0.959 . S
H1304 C1319 0.959 . S
H1305 C1319 0.961 . S
H1306 C1320 0.960 . S
H1307 C1320 0.961 . S
H1308 C1320 0.959 . S
H1309 C1323 0.929 1_554 S
H1310 C1324 0.931 1_554 S
H1311 C1326 0.930 . S
C1312 H1300 0.930 . S
C1312 C1313 1.399 . S
C1312 C1317 1.399 . S
C1313 C1312 1.399 . S
C1313 C1314 1.376 . S
C1314 H1301 0.930 . S
C1314 C1313 1.376 . S
C1314 C1315 1.388 . S
C1315 H1302 0.930 . S
C1315 C1314 1.388 . S
C1315 C1316 1.390 . S
C1316 C1315 1.390 . S
C1316 C1317 1.394 . S
C1316 C1322 1.465 . S
C1317 C1312 1.399 . S
C1317 C1316 1.394 . S
C1317 C1318 1.516 . S
C1318 C1317 1.516 . S
C1318 C1319 1.502 . S
C1318 C1320 1.561 . S
C1318 C1321 1.526 . S
C1319 H1303 0.959 . S
C1319 H1304 0.959 . S
C1319 H1305 0.961 . S
C1319 C1318 1.502 . S
C1320 H1306 0.960 . S
C1320 H1307 0.961 . S
C1320 H1308 0.959 . S
C1320 C1318 1.561 . S
C1321 C1318 1.526 . S
C1321 C1322 1.396 . S
C1321 C1326 1.390 . S
C1322 C1316 1.465 . S
C1322 C1321 1.396 . S
C1322 C1323 1.399 . S
C1323 H1309 0.929 1_556 S
C1323 C1322 1.399 . S
C1323 C1324 1.385 . S
C1324 H1310 0.931 1_556 S
C1324 C1323 1.385 . S
C1324 C1325 1.389 . S
C1325 C1324 1.389 . S
C1325 C1326 1.387 . S
C1326 H1311 0.930 . S
C1326 C1321 1.390 . S
C1326 C1325 1.387 . S
H1327 C1339 0.930 . S
H1328 C1341 0.930 . S
H1329 C1342 0.930 . S
H1330 C1346 0.959 . S
H1331 C1346 0.959 . S
H1332 C1346 0.961 . S
H1333 C1347 0.960 . S
H1334 C1347 0.961 . S
H1335 C1347 0.959 . S
H1336 C1350 0.929 . S
H1337 C1351 0.931 . S
H1338 C1353 0.930 . S
C1339 H1327 0.930 . S
C1339 C1340 1.399 . S
C1339 C1344 1.399 . S
C1340 C1339 1.399 . S
C1340 C1341 1.376 . S
C1341 H1328 0.930 . S
C1341 C1340 1.376 . S
C1341 C1342 1.388 . S
C1342 H1329 0.930 . S
C1342 C1341 1.388 . S
C1342 C1343 1.390 . S
C1343 C1342 1.390 . S
C1343 C1344 1.394 . S
C1343 C1349 1.465 . S
C1344 C1339 1.399 . S
C1344 C1343 1.394 . S
C1344 C1345 1.516 . S
C1345 C1344 1.516 . S
C1345 C1346 1.502 . S
C1345 C1347 1.561 . S
C1345 C1348 1.526 . S
C1346 H1330 0.959 . S
C1346 H1331 0.959 . S
C1346 H1332 0.961 . S
C1346 C1345 1.502 . S
C1347 H1333 0.960 . S
C1347 H1334 0.961 . S
C1347 H1335 0.959 . S
C1347 C1345 1.561 . S
C1348 C1345 1.526 . S
C1348 C1349 1.396 . S
C1348 C1353 1.390 . S
C1349 C1343 1.465 . S
C1349 C1348 1.396 . S
C1349 C1350 1.399 . S
C1350 H1336 0.929 . S
C1350 C1349 1.399 . S
C1350 C1351 1.385 . S
C1351 H1337 0.931 . S
C1351 C1350 1.385 . S
C1351 C1352 1.389 . S
C1352 C1351 1.389 . S
C1352 C1353 1.387 . S
C1353 H1338 0.930 . S
C1353 C1348 1.390 . S
C1353 C1352 1.387 . S
H1354 C1366 0.930 . S
H1355 C1368 0.930 . S
H1356 C1369 0.930 . S
H1357 C1373 0.959 . S
H1358 C1373 0.959 . S
H1359 C1373 0.961 . S
H1360 C1374 0.960 . S
H1361 C1374 0.961 . S
H1362 C1374 0.959 . S
H1363 C1377 0.929 . S
H1364 C1378 0.931 . S
H1365 C1380 0.930 . S
C1366 H1354 0.930 . S
C1366 C1367 1.399 . S
C1366 C1371 1.399 . S
C1367 C1366 1.399 . S
C1367 C1368 1.376 . S
C1368 H1355 0.930 . S
C1368 C1367 1.376 . S
C1368 C1369 1.388 . S
C1369 H1356 0.930 . S
C1369 C1368 1.388 . S
C1369 C1370 1.390 . S
C1370 C1369 1.390 . S
C1370 C1371 1.394 . S
C1370 C1376 1.465 . S
C1371 C1366 1.399 . S
C1371 C1370 1.394 . S
C1371 C1372 1.516 . S
C1372 C1371 1.516 . S
C1372 C1373 1.502 . S
C1372 C1374 1.561 . S
C1372 C1375 1.526 . S
C1373 H1357 0.959 . S
C1373 H1358 0.959 . S
C1373 H1359 0.961 . S
C1373 C1372 1.502 . S
C1374 H1360 0.960 . S
C1374 H1361 0.961 . S
C1374 H1362 0.959 . S
C1374 C1372 1.561 . S
C1375 C1372 1.526 . S
C1375 C1376 1.396 . S
C1375 C1380 1.390 . S
C1376 C1370 1.465 . S
C1376 C1375 1.396 . S
C1376 C1377 1.399 . S
C1377 H1363 0.929 . S
C1377 C1376 1.399 . S
C1377 C1378 1.385 . S
C1378 H1364 0.931 . S
C1378 C1377 1.385 . S
C1378 C1379 1.389 . S
C1379 C1378 1.389 . S
C1379 C1380 1.387 . S
C1380 H1365 0.930 . S
C1380 C1375 1.390 . S
C1380 C1379 1.387 . S
H1381 C1393 0.930 . S
H1382 C1395 0.930 . S
H1383 C1396 0.930 . S
H1384 C1400 0.959 . S
H1385 C1400 0.959 . S
H1386 C1400 0.961 . S
H1387 C1401 0.960 . S
H1388 C1401 0.961 . S
H1389 C1401 0.959 . S
H1390 C1404 0.929 . S
H1391 C1405 0.931 . S
H1392 C1407 0.930 . S
C1393 H1381 0.930 . S
C1393 C1394 1.399 . S
C1393 C1398 1.399 . S
C1394 C1393 1.399 . S
C1394 C1395 1.376 . S
C1395 H1382 0.930 . S
C1395 C1394 1.376 . S
C1395 C1396 1.388 . S
C1396 H1383 0.930 . S
C1396 C1395 1.388 . S
C1396 C1397 1.390 . S
C1397 C1396 1.390 . S
C1397 C1398 1.394 . S
C1397 C1403 1.465 . S
C1398 C1393 1.399 . S
C1398 C1397 1.394 . S
C1398 C1399 1.516 . S
C1399 C1398 1.516 . S
C1399 C1400 1.502 . S
C1399 C1401 1.561 . S
C1399 C1402 1.526 . S
C1400 H1384 0.959 . S
C1400 H1385 0.959 . S
C1400 H1386 0.961 . S
C1400 C1399 1.502 . S
C1401 H1387 0.960 . S
C1401 H1388 0.961 . S
C1401 H1389 0.959 . S
C1401 C1399 1.561 . S
C1402 C1399 1.526 . S
C1402 C1403 1.396 . S
C1402 C1407 1.390 . S
C1403 C1397 1.465 . S
C1403 C1402 1.396 . S
C1403 C1404 1.399 . S
C1404 H1390 0.929 . S
C1404 C1403 1.399 . S
C1404 C1405 1.385 . S
C1405 H1391 0.931 . S
C1405 C1404 1.385 . S
C1405 C1406 1.389 . S
C1406 C1405 1.389 . S
C1406 C1407 1.387 . S
C1407 H1392 0.930 . S
C1407 C1402 1.390 . S
C1407 C1406 1.387 . S
H1408 C1420 0.930 . S
H1409 C1422 0.930 1_554 S
H1410 C1423 0.930 1_554 S
H1411 C1427 0.959 . S
H1412 C1427 0.959 . S
H1413 C1427 0.961 . S
H1414 C1428 0.960 . S
H1415 C1428 0.961 . S
H1416 C1428 0.959 . S
H1417 C1431 0.929 . S
H1418 C1432 0.931 . S
H1419 C1434 0.930 . S
C1420 H1408 0.930 . S
C1420 C1421 1.399 . S
C1420 C1425 1.399 . S
C1421 C1420 1.399 . S
C1421 C1422 1.376 . S
C1422 H1409 0.930 1_556 S
C1422 C1421 1.376 . S
C1422 C1423 1.388 . S
C1423 H1410 0.930 1_556 S
C1423 C1422 1.388 . S
C1423 C1424 1.390 . S
C1424 C1423 1.390 . S
C1424 C1425 1.394 . S
C1424 C1430 1.465 . S
C1425 C1420 1.399 . S
C1425 C1424 1.394 . S
C1425 C1426 1.516 . S
C1426 C1425 1.516 . S
C1426 C1427 1.502 . S
C1426 C1428 1.561 . S
C1426 C1429 1.526 . S
C1427 H1411 0.959 . S
C1427 H1412 0.959 . S
C1427 H1413 0.961 . S
C1427 C1426 1.502 . S
C1428 H1414 0.960 . S
C1428 H1415 0.961 . S
C1428 H1416 0.959 . S
C1428 C1426 1.561 . S
C1429 C1426 1.526 . S
C1429 C1430 1.396 . S
C1429 C1434 1.390 . S
C1430 C1424 1.465 . S
C1430 C1429 1.396 . S
C1430 C1431 1.399 . S
C1431 H1417 0.929 . S
C1431 C1430 1.399 . S
C1431 C1432 1.385 . S
C1432 H1418 0.931 . S
C1432 C1431 1.385 . S
C1432 C1433 1.389 . S
C1433 C1432 1.389 . S
C1433 C1434 1.387 . S
C1434 H1419 0.930 . S
C1434 C1429 1.390 . S
C1434 C1433 1.387 . S
H1435 C1447 0.930 . S
H1436 C1449 0.930 . S
H1437 C1450 0.930 . S
H1438 C1454 0.959 . S
H1439 C1454 0.959 . S
H1440 C1454 0.961 . S
H1441 C1455 0.960 . S
H1442 C1455 0.961 . S
H1443 C1455 0.959 . S
H1444 C1458 0.929 . S
H1445 C1459 0.931 . S
H1446 C1461 0.930 . S
C1447 H1435 0.930 . S
C1447 C1448 1.399 . S
C1447 C1452 1.399 . S
C1448 C1447 1.399 . S
C1448 C1449 1.376 . S
C1449 H1436 0.930 . S
C1449 C1448 1.376 . S
C1449 C1450 1.388 . S
C1450 H1437 0.930 . S
C1450 C1449 1.388 . S
C1450 C1451 1.390 . S
C1451 C1450 1.390 . S
C1451 C1452 1.394 . S
C1451 C1457 1.465 . S
C1452 C1447 1.399 . S
C1452 C1451 1.394 . S
C1452 C1453 1.516 . S
C1453 C1452 1.516 . S
C1453 C1454 1.502 . S
C1453 C1455 1.561 . S
C1453 C1456 1.526 . S
C1454 H1438 0.959 . S
C1454 H1439 0.959 . S
C1454 H1440 0.961 . S
C1454 C1453 1.502 . S
C1455 H1441 0.960 . S
C1455 H1442 0.961 . S
C1455 H1443 0.959 . S
C1455 C1453 1.561 . S
C1456 C1453 1.526 . S
C1456 C1457 1.396 . S
C1456 C1461 1.390 . S
C1457 C1451 1.465 . S
C1457 C1456 1.396 . S
C1457 C1458 1.399 . S
C1458 H1444 0.929 . S
C1458 C1457 1.399 . S
C1458 C1459 1.385 . S
C1459 H1445 0.931 . S
C1459 C1458 1.385 . S
C1459 C1460 1.389 . S
C1460 C1459 1.389 . S
C1460 C1461 1.387 . S
C1461 H1446 0.930 . S
C1461 C1456 1.390 . S
C1461 C1460 1.387 . S
H1462 C1474 0.930 . S
H1463 C1476 0.930 . S
H1464 C1477 0.930 . S
H1465 C1481 0.959 . S
H1466 C1481 0.959 . S
H1467 C1481 0.961 . S
H1468 C1482 0.960 . S
H1469 C1482 0.961 . S
H1470 C1482 0.959 . S
H1471 C1485 0.929 . S
H1472 C1486 0.931 . S
H1473 C1488 0.930 . S
C1474 H1462 0.930 . S
C1474 C1475 1.399 . S
C1474 C1479 1.399 . S
C1475 C1474 1.399 . S
C1475 C1476 1.376 . S
C1476 H1463 0.930 . S
C1476 C1475 1.376 . S
C1476 C1477 1.388 . S
C1477 H1464 0.930 . S
C1477 C1476 1.388 . S
C1477 C1478 1.390 . S
C1478 C1477 1.390 . S
C1478 C1479 1.394 . S
C1478 C1484 1.465 . S
C1479 C1474 1.399 . S
C1479 C1478 1.394 . S
C1479 C1480 1.516 . S
C1480 C1479 1.516 . S
C1480 C1481 1.502 . S
C1480 C1482 1.561 . S
C1480 C1483 1.526 . S
C1481 H1465 0.959 . S
C1481 H1466 0.959 . S
C1481 H1467 0.961 . S
C1481 C1480 1.502 . S
C1482 H1468 0.960 . S
C1482 H1469 0.961 . S
C1482 H1470 0.959 . S
C1482 C1480 1.561 . S
C1483 C1480 1.526 . S
C1483 C1484 1.396 . S
C1483 C1488 1.390 . S
C1484 C1478 1.465 . S
C1484 C1483 1.396 . S
C1484 C1485 1.399 . S
C1485 H1471 0.929 . S
C1485 C1484 1.399 . S
C1485 C1486 1.385 . S
C1486 H1472 0.931 . S
C1486 C1485 1.385 . S
C1486 C1487 1.389 . S
C1487 C1486 1.389 . S
C1487 C1488 1.387 . S
C1488 H1473 0.930 . S
C1488 C1483 1.390 . S
C1488 C1487 1.387 . S
H1489 C1501 0.930 . S
H1490 C1503 0.930 1_556 S
H1491 C1504 0.930 1_556 S
H1492 C1508 0.959 . S
H1493 C1508 0.959 . S
H1494 C1508 0.961 . S
H1495 C1509 0.960 . S
H1496 C1509 0.961 . S
H1497 C1509 0.959 . S
H1498 C1512 0.929 . S
H1499 C1513 0.931 . S
H1500 C1515 0.930 . S
C1501 H1489 0.930 . S
C1501 C1502 1.399 . S
C1501 C1506 1.399 . S
C1502 C1501 1.399 . S
C1502 C1503 1.376 . S
C1503 H1490 0.930 1_554 S
C1503 C1502 1.376 . S
C1503 C1504 1.388 . S
C1504 H1491 0.930 1_554 S
C1504 C1503 1.388 . S
C1504 C1505 1.390 . S
C1505 C1504 1.390 . S
C1505 C1506 1.394 . S
C1505 C1511 1.465 . S
C1506 C1501 1.399 . S
C1506 C1505 1.394 . S
C1506 C1507 1.516 . S
C1507 C1506 1.516 . S
C1507 C1508 1.502 . S
C1507 C1509 1.561 . S
C1507 C1510 1.526 . S
C1508 H1492 0.959 . S
C1508 H1493 0.959 . S
C1508 H1494 0.961 . S
C1508 C1507 1.502 . S
C1509 H1495 0.960 . S
C1509 H1496 0.961 . S
C1509 H1497 0.959 . S
C1509 C1507 1.561 . S
C1510 C1507 1.526 . S
C1510 C1511 1.396 . S
C1510 C1515 1.390 . S
C1511 C1505 1.465 . S
C1511 C1510 1.396 . S
C1511 C1512 1.399 . S
C1512 H1498 0.929 . S
C1512 C1511 1.399 . S
C1512 C1513 1.385 . S
C1513 H1499 0.931 . S
C1513 C1512 1.385 . S
C1513 C1514 1.389 . S
C1514 C1513 1.389 . S
C1514 C1515 1.387 . S
C1515 H1500 0.930 . S
C1515 C1510 1.390 . S
C1515 C1514 1.387 . S
H1516 C1528 0.930 . S
H1517 C1530 0.930 . S
H1518 C1531 0.930 . S
H1519 C1535 0.959 . S
H1520 C1535 0.959 . S
H1521 C1535 0.961 . S
H1522 C1536 0.960 . S
H1523 C1536 0.961 . S
H1524 C1536 0.959 . S
H1525 C1539 0.929 . S
H1526 C1540 0.931 . S
H1527 C1542 0.930 . S
C1528 H1516 0.930 . S
C1528 C1529 1.399 . S
C1528 C1533 1.399 . S
C1529 C1528 1.399 . S
C1529 C1530 1.376 . S
C1530 H1517 0.930 . S
C1530 C1529 1.376 . S
C1530 C1531 1.388 . S
C1531 H1518 0.930 . S
C1531 C1530 1.388 . S
C1531 C1532 1.390 . S
C1532 C1531 1.390 . S
C1532 C1533 1.394 . S
C1532 C1538 1.465 . S
C1533 C1528 1.399 . S
C1533 C1532 1.394 . S
C1533 C1534 1.516 . S
C1534 C1533 1.516 . S
C1534 C1535 1.502 . S
C1534 C1536 1.561 . S
C1534 C1537 1.526 . S
C1535 H1519 0.959 . S
C1535 H1520 0.959 . S
C1535 H1521 0.961 . S
C1535 C1534 1.502 . S
C1536 H1522 0.960 . S
C1536 H1523 0.961 . S
C1536 H1524 0.959 . S
C1536 C1534 1.561 . S
C1537 C1534 1.526 . S
C1537 C1538 1.396 . S
C1537 C1542 1.390 . S
C1538 C1532 1.465 . S
C1538 C1537 1.396 . S
C1538 C1539 1.399 . S
C1539 H1525 0.929 . S
C1539 C1538 1.399 . S
C1539 C1540 1.385 . S
C1540 H1526 0.931 . S
C1540 C1539 1.385 . S
C1540 C1541 1.389 . S
C1541 C1540 1.389 . S
C1541 C1542 1.387 . S
C1542 H1527 0.930 . S
C1542 C1537 1.390 . S
C1542 C1541 1.387 . S
H1543 C1555 0.930 . S
H1544 C1557 0.930 . S
H1545 C1558 0.930 . S
H1546 C1562 0.959 . S
H1547 C1562 0.959 . S
H1548 C1562 0.961 . S
H1549 C1563 0.960 . S
H1550 C1563 0.961 . S
H1551 C1563 0.959 . S
H1552 C1566 0.929 1_554 S
H1553 C1567 0.931 1_554 S
H1554 C1569 0.930 . S
C1555 H1543 0.930 . S
C1555 C1556 1.399 . S
C1555 C1560 1.399 . S
C1556 C1555 1.399 . S
C1556 C1557 1.376 . S
C1557 H1544 0.930 . S
C1557 C1556 1.376 . S
C1557 C1558 1.388 . S
C1558 H1545 0.930 . S
C1558 C1557 1.388 . S
C1558 C1559 1.390 . S
C1559 C1558 1.390 . S
C1559 C1560 1.394 . S
C1559 C1565 1.465 . S
C1560 C1555 1.399 . S
C1560 C1559 1.394 . S
C1560 C1561 1.516 . S
C1561 C1560 1.516 . S
C1561 C1562 1.502 . S
C1561 C1563 1.561 . S
C1561 C1564 1.526 . S
C1562 H1546 0.959 . S
C1562 H1547 0.959 . S
C1562 H1548 0.961 . S
C1562 C1561 1.502 . S
C1563 H1549 0.960 . S
C1563 H1550 0.961 . S
C1563 H1551 0.959 . S
C1563 C1561 1.561 . S
C1564 C1561 1.526 . S
C1564 C1565 1.396 . S
C1564 C1569 1.390 . S
C1565 C1559 1.465 . S
C1565 C1564 1.396 . S
C1565 C1566 1.399 . S
C1566 H1552 0.929 1_556 S
C1566 C1565 1.399 . S
C1566 C1567 1.385 . S
C1567 H1553 0.931 1_556 S
C1567 C1566 1.385 . S
C1567 C1568 1.389 . S
C1568 C1567 1.389 . S
C1568 C1569 1.387 . S
C1569 H1554 0.930 . S
C1569 C1564 1.390 . S
C1569 C1568 1.387 . S
H1570 C1582 0.930 . S
H1571 C1584 0.930 . S
H1572 C1585 0.930 . S
H1573 C1589 0.959 . S
H1574 C1589 0.959 . S
H1575 C1589 0.961 . S
H1576 C1590 0.960 . S
H1577 C1590 0.961 . S
H1578 C1590 0.959 . S
H1579 C1593 0.929 . S
H1580 C1594 0.931 . S
H1581 C1596 0.930 . S
C1582 H1570 0.930 . S
C1582 C1583 1.399 . S
C1582 C1587 1.399 . S
C1583 C1582 1.399 . S
C1583 C1584 1.376 . S
C1584 H1571 0.930 . S
C1584 C1583 1.376 . S
C1584 C1585 1.388 . S
C1585 H1572 0.930 . S
C1585 C1584 1.388 . S
C1585 C1586 1.390 . S
C1586 C1585 1.390 . S
C1586 C1587 1.394 . S
C1586 C1592 1.465 . S
C1587 C1582 1.399 . S
C1587 C1586 1.394 . S
C1587 C1588 1.516 . S
C1588 C1587 1.516 . S
C1588 C1589 1.502 . S
C1588 C1590 1.561 . S
C1588 C1591 1.526 . S
C1589 H1573 0.959 . S
C1589 H1574 0.959 . S
C1589 H1575 0.961 . S
C1589 C1588 1.502 . S
C1590 H1576 0.960 . S
C1590 H1577 0.961 . S
C1590 H1578 0.959 . S
C1590 C1588 1.561 . S
C1591 C1588 1.526 . S
C1591 C1592 1.396 . S
C1591 C1596 1.390 . S
C1592 C1586 1.465 . S
C1592 C1591 1.396 . S
C1592 C1593 1.399 . S
C1593 H1579 0.929 . S
C1593 C1592 1.399 . S
C1593 C1594 1.385 . S
C1594 H1580 0.931 . S
C1594 C1593 1.385 . S
C1594 C1595 1.389 . S
C1595 C1594 1.389 . S
C1595 C1596 1.387 . S
C1596 H1581 0.930 . S
C1596 C1591 1.390 . S
C1596 C1595 1.387 . S
H1597 C1609 0.930 . S
H1598 C1611 0.930 . S
H1599 C1612 0.930 . S
H1600 C1616 0.959 . S
H1601 C1616 0.959 . S
H1602 C1616 0.961 . S
H1603 C1617 0.960 . S
H1604 C1617 0.961 . S
H1605 C1617 0.959 . S
H1606 C1620 0.929 . S
H1607 C1621 0.931 . S
H1608 C1623 0.930 . S
C1609 H1597 0.930 . S
C1609 C1610 1.399 . S
C1609 C1614 1.399 . S
C1610 C1609 1.399 . S
C1610 C1611 1.376 . S
C1611 H1598 0.930 . S
C1611 C1610 1.376 . S
C1611 C1612 1.388 . S
C1612 H1599 0.930 . S
C1612 C1611 1.388 . S
C1612 C1613 1.390 . S
C1613 C1612 1.390 . S
C1613 C1614 1.394 . S
C1613 C1619 1.465 . S
C1614 C1609 1.399 . S
C1614 C1613 1.394 . S
C1614 C1615 1.516 . S
C1615 C1614 1.516 . S
C1615 C1616 1.502 . S
C1615 C1617 1.561 . S
C1615 C1618 1.526 . S
C1616 H1600 0.959 . S
C1616 H1601 0.959 . S
C1616 H1602 0.961 . S
C1616 C1615 1.502 . S
C1617 H1603 0.960 . S
C1617 H1604 0.961 . S
C1617 H1605 0.959 . S
C1617 C1615 1.561 . S
C1618 C1615 1.526 . S
C1618 C1619 1.396 . S
C1618 C1623 1.390 . S
C1619 C1613 1.465 . S
C1619 C1618 1.396 . S
C1619 C1620 1.399 . S
C1620 H1606 0.929 . S
C1620 C1619 1.399 . S
C1620 C1621 1.385 . S
C1621 H1607 0.931 . S
C1621 C1620 1.385 . S
C1621 C1622 1.389 . S
C1622 C1621 1.389 . S
C1622 C1623 1.387 . S
C1623 H1608 0.930 . S
C1623 C1618 1.390 . S
C1623 C1622 1.387 . S
C557 C9 1.371 . S
C569 C5 1.388 . S
C584 C43 1.371 1_556 S
C596 C39 1.393 . S
C611 C77 1.285 . S
C623 C73 1.421 . S
C638 C111 1.299 . S
C650 C107 1.410 . S
C665 C145 1.312 . S
C677 C141 1.414 . S
C692 C179 1.287 . S
C704 C175 1.414 . S
C719 C213 1.360 . S
C731 C209 1.391 . S
C746 C243 1.422 . S
C758 C247 1.281 1_554 S
C773 C277 1.388 . S
C785 C281 1.369 1_554 S
C800 C315 1.286 . S
C812 C311 1.415 . S
C827 C349 1.360 . S
C839 C345 1.398 . S
C854 C379 1.388 . S
C866 C383 1.366 1_556 S
C881 C413 1.399 . S
C893 C417 1.354 . S
C908 C451 1.270 . S
C920 C447 1.422 . S
C935 C481 1.417 . S
C947 C485 1.281 . S
C962 C519 1.286 . S
C974 C515 1.421 . S
C989 C20 1.459 . S
C1001 C156 1.471 . S
C1016 C190 1.481 . S
C1028 C54 1.491 . S
C1043 C224 1.492 . S
C1055 C88 1.482 . S
C1070 C122 1.462 . S
C1082 C258 1.459 . S
C1097 C360 1.467 . S
C1109 C292 1.458 . S
C1124 C326 1.492 . S
C1136 C394 1.488 . S
C1151 C428 1.460 . S
C1163 C496 1.473 . S
C1178 C462 1.458 . S
C1190 C530 1.469 . S
C1205 C339 1.188 . S
C1217 C33 1.194 . S
C1232 C509 1.203 . S
C1244 C67 1.199 . S
C1259 C101 1.186 . S
C1271 C305 1.180 . S
C1286 C543 1.198 . S
C1298 C135 1.192 . S
C1313 C373 1.179 . S
C1325 C169 1.185 . S
C1340 C475 1.204 . S
C1352 C203 1.201 . S
C1367 C237 1.176 . S
C1379 C407 1.182 . S
C1394 C271 1.179 . S
C1406 C441 1.184 . S
C1421 C138 1.699 . S
C1433 C104 1.676 . S
C1448 C410 1.689 . S
C1460 C274 1.683 . S
C1475 C36 1.676 . S
C1487 C206 1.701 . S
C1502 C444 1.697 . S
C1514 C308 1.676 . S
C1529 C172 1.692 . S
C1541 C2 1.689 . S
C1556 C342 1.673 . S
C1568 C512 1.702 . S
C1583 C240 1.676 . S
C1595 C70 1.701 . S
C1610 C478 1.680 . S
C1622 C376 1.699 . S
