# Generated by pormake.
# Topology hcp, (12)-cn, num edge types: 1
# Building blocks:
#     Node 0, Type 0, BuildingBlock: UKIBUN_clean_sbu_0, # of connection points: 12
#     Node 1, Type 0, BuildingBlock: UKIBUN_clean_sbu_0, # of connection points: 12
#     Edge 2, Type (0, 0), BuildingBlock: XIVTED_clean_linker_0, # of connection points: 2
#     Edge 3, Type (0, 0), BuildingBlock: XIVTED_clean_linker_0, # of connection points: 2
#     Edge 4, Type (0, 0), BuildingBlock: XIVTED_clean_linker_0, # of connection points: 2
#     Edge 5, Type (0, 0), BuildingBlock: XIVTED_clean_linker_0, # of connection points: 2
#     Edge 6, Type (0, 0), BuildingBlock: XIVTED_clean_linker_0, # of connection points: 2
#     Edge 7, Type (0, 0), BuildingBlock: XIVTED_clean_linker_0, # of connection points: 2
#     Edge 8, Type (0, 0), BuildingBlock: XIVTED_clean_linker_0, # of connection points: 2
#     Edge 9, Type (0, 0), BuildingBlock: XIVTED_clean_linker_0, # of connection points: 2
#     Edge 10, Type (0, 0), BuildingBlock: XIVTED_clean_linker_0, # of connection points: 2
#     Edge 11, Type (0, 0), BuildingBlock: XIVTED_clean_linker_0, # of connection points: 2
#     Edge 12, Type (0, 0), BuildingBlock: XIVTED_clean_linker_0, # of connection points: 2
#     Edge 13, Type (0, 0), BuildingBlock: XIVTED_clean_linker_0, # of connection points: 2
# Relax obj value: 0.181
# Max RMSD: 0.266
# Mean RMSD: 0.266
data_MOF--net-hcp--node1-UKIBUN_clean_sbu_0--edge1-XIVTED_clean_linker_0
_symmetry_space_group_name_H-M    P1
_symmetry_Int_Tables_number       1
_symmetry_cell_setting            triclinic
loop_
_symmetry_equiv_pos_as_xyz
'x, y, z'
_cell_length_a     18.192849
_cell_length_b     18.223189
_cell_length_c     29.671445
_cell_angle_alpha  90.01449
_cell_angle_beta   89.990028
_cell_angle_gamma 120.0881
loop_
_atom_site_label
_atom_site_type_symbol
_atom_site_fract_x
_atom_site_fract_y
_atom_site_fract_z
_atom_type_partial_charge
C0 C 0.9181 0.52943 0.26429 0.0
C1 C 0.85578 0.26229 0.26063 0.0
O2 O 0.73288 0.43764 0.28454 0.0
O3 O 0.651 0.32486 0.19442 0.0
O4 O 0.61953 0.40523 0.24114 0.0
O5 O 0.76326 0.35607 0.2408 0.0
Hf6 Hf 0.73753 0.44487 0.21533 0.0
O7 O 0.65091 0.324 0.32922 0.0
Hf8 Hf 0.77113 0.35747 0.30975 0.0
O9 O 0.53759 0.29267 0.28439 0.0
Hf10 Hf 0.6177 0.41086 0.3101 0.0
O11 O 0.68245 0.24265 0.28406 0.0
Hf12 Hf 0.53075 0.2909 0.2152 0.0
Hf13 Hf 0.68461 0.23834 0.21483 0.0
O14 O 0.56992 0.21215 0.24066 0.0
Hf15 Hf 0.56396 0.20403 0.30961 0.0
C16 C 0.53089 0.16125 0.14225 0.0
C17 C 0.76403 0.47562 0.38687 0.0
C18 C 0.44608 0.38627 0.26435 0.0
C19 C 0.71325 0.59135 0.26161 0.0
O20 O 0.74222 0.56718 0.22847 0.0
O21 O 0.81411 0.4342 0.15982 0.0
C22 C 0.81556 0.36962 0.14264 0.0
O23 O 0.55807 0.08119 0.29606 0.0
O24 O 0.40791 0.17317 0.22787 0.0
O25 O 0.54192 0.37871 0.16 0.0
O26 O 0.49979 0.2186 0.3706 0.0
O27 O 0.75587 0.27813 0.37058 0.0
O28 O 0.89477 0.47393 0.29623 0.0
O29 O 0.80241 0.23353 0.22755 0.0
O30 O 0.59689 0.16221 0.15927 0.0
C31 C 0.49733 0.28376 0.38616 0.0
O32 O 0.50146 0.4182 0.29643 0.0
O33 O 0.69631 0.47345 0.37147 0.0
C34 C 0.59015 0.05812 0.26392 0.0
O35 O 0.61548 0.17429 0.36885 0.0
O36 O 0.6841 0.47588 0.15649 0.0
O37 O 0.87084 0.52932 0.2321 0.0
O38 O 0.42956 0.12201 0.29419 0.0
O39 O 0.63639 0.1053 0.23144 0.0
O40 O 0.53449 0.35816 0.36867 0.0
C41 C 0.38354 0.11949 0.26074 0.0
O42 O 0.67044 0.54531 0.29521 0.0
O43 O 0.80153 0.43915 0.3689 0.0
O44 O 0.76901 0.2923 0.15594 0.0
O45 O 0.44626 0.33939 0.23206 0.0
O46 O 0.50025 0.20763 0.15592 0.0
O47 O 0.85291 0.30509 0.2943 0.0
C48 C 0.68997 0.21117 0.38638 0.0
C49 C 0.60675 0.44505 0.14305 0.0
C50 C 0.47209 0.69846 0.88704 0.0
C51 C 0.27979 0.77052 0.88629 0.0
O52 O 0.43319 0.68906 0.78493 0.0
O53 O 0.23804 0.54378 0.78487 0.0
O54 O 0.35146 0.57608 0.74168 0.0
O55 O 0.31955 0.65761 0.8295 0.0
Hf56 Hf 0.35321 0.57089 0.81064 0.0
O57 O 0.40063 0.76909 0.74084 0.0
Hf58 Hf 0.40625 0.7776 0.80978 0.0
O59 O 0.32004 0.6562 0.69474 0.0
Hf60 Hf 0.4402 0.69035 0.71578 0.0
O61 O 0.28784 0.73854 0.78401 0.0
Hf62 Hf 0.23353 0.53628 0.71568 0.0
Hf63 Hf 0.19933 0.62372 0.80985 0.0
O64 O 0.20745 0.62499 0.74089 0.0
Hf65 Hf 0.28602 0.74263 0.71473 0.0
C66 C 0.05259 0.45179 0.76424 0.0
C67 C 0.58721 0.86166 0.76153 0.0
C68 C 0.36432 0.53682 0.64323 0.0
C69 C 0.52485 0.59511 0.76496 0.0
O70 O 0.46988 0.56396 0.79727 0.0
O71 O 0.27404 0.50758 0.87166 0.0
C72 C 0.2057 0.50454 0.88668 0.0
O73 O 0.1681 0.74745 0.72754 0.0
O74 O 0.15678 0.54634 0.66006 0.0
O75 O 0.22937 0.41431 0.72888 0.0
O76 O 0.37342 0.81754 0.6586 0.0
O77 O 0.41321 0.90064 0.79544 0.0
O78 O 0.4695 0.76342 0.87127 0.0
O79 O 0.21473 0.70199 0.87119 0.0
O80 O 0.07556 0.5076 0.79601 0.0
C81 C 0.44026 0.81913 0.64223 0.0
O82 O 0.42913 0.60302 0.66031 0.0
O83 O 0.56308 0.8079 0.7287 0.0
C84 C 0.11512 0.71934 0.76083 0.0
O85 O 0.33473 0.87594 0.73085 0.0
O86 O 0.30118 0.43655 0.79565 0.0
O87 O 0.43558 0.62406 0.8695 0.0
O88 O 0.20131 0.68808 0.65599 0.0
O89 O 0.11812 0.67686 0.79461 0.0
O90 O 0.47137 0.77376 0.65675 0.0
C91 C 0.155 0.61067 0.64277 0.0
O92 O 0.5244 0.64142 0.73246 0.0
O93 O 0.54088 0.85929 0.79479 0.0
O94 O 0.1681 0.54082 0.86858 0.0
O95 O 0.28701 0.50572 0.65674 0.0
O96 O 0.10026 0.45158 0.73236 0.0
O97 O 0.35381 0.80871 0.86819 0.0
C98 C 0.3813 0.92349 0.76314 0.0
C99 C 0.25855 0.39041 0.76202 0.0
H100 H 0.2919 0.7181 0.96968 0.0
H101 H 0.42387 0.16862 0.07978 0.0
H102 H 0.26979 0.91267 0.89954 0.0
H103 H 0.52705 0.012 0.12223 0.0
H104 H 0.33994 0.06307 0.0224 0.0
H105 H 0.34524 0.81034 0.03616 0.0
C106 C 0.29448 0.7787 0.96912 0.0
C107 C 0.27516 0.8074 0.9295 0.0
C108 C 0.38086 0.05181 0.04433 0.0
C109 C 0.33891 0.91446 1.00449 0.0
C110 C 0.42907 0.11212 0.07703 0.0
C111 C 0.48351 0.09975 0.10565 0.0
C112 C 0.38575 0.97763 0.04054 0.0
C113 C 0.48705 0.02493 0.10053 0.0
C114 C 0.32647 0.83198 1.00667 0.0
C115 C 0.28253 0.88776 0.92981 0.0
N116 N 0.43869 0.96663 0.06872 0.0
N117 N 0.3145 0.93887 0.96658 0.0
H118 H 0.51237 0.53881 0.62239 0.0
H119 H 0.34217 0.26758 0.39942 0.0
H120 H 0.24978 0.42543 0.58194 0.0
H121 H 0.56436 0.30175 0.46919 0.0
H122 H 0.30299 0.32012 0.46608 0.0
H123 H 0.53301 0.45417 0.5651 0.0
C124 C 0.45921 0.49664 0.60129 0.0
C125 C 0.37939 0.48983 0.60687 0.0
C126 C 0.35896 0.31365 0.46741 0.0
C127 C 0.40244 0.39211 0.54133 0.0
C128 C 0.3805 0.2824 0.42963 0.0
C129 C 0.45561 0.2787 0.42935 0.0
C130 C 0.41444 0.34369 0.50452 0.0
C131 C 0.50503 0.30187 0.4686 0.0
C132 C 0.47077 0.44755 0.56892 0.0
C133 C 0.31252 0.43302 0.57884 0.0
N134 N 0.48458 0.33497 0.50431 0.0
N135 N 0.32573 0.387 0.54707 0.0
H136 H 0.96301 0.51729 0.12288 0.0
H137 H 0.06521 0.35036 0.89917 0.0
H138 H 0.81259 0.25616 0.08081 0.0
H139 H 0.25467 0.56974 0.97027 0.0
H140 H 0.97262 0.31076 0.96553 0.0
H141 H 0.06925 0.53838 0.06591 0.0
C142 C 0.95193 0.46455 0.10148 0.0
C143 C 0.87825 0.38502 0.10648 0.0
C144 C 0.03546 0.36625 0.9672 0.0
C145 C 0.00015 0.4086 0.04134 0.0
C146 C 0.0887 0.38805 0.92957 0.0
C147 C 0.16811 0.46257 0.92971 0.0
C148 C 0.06103 0.4209 1.00463 0.0
C149 C 0.19451 0.51106 0.96927 0.0
C150 C 0.01314 0.47637 0.06931 0.0
C151 C 0.86819 0.31868 0.07814 0.0
N152 N 0.14048 0.49042 1.00486 0.0
N153 N 0.92794 0.33215 0.04656 0.0
H154 H 0.56768 0.82509 0.59025 0.0
H155 H 0.71377 0.07701 0.39754 0.0
H156 H 0.42559 0.95397 0.61079 0.0
H157 H 0.66363 0.25156 0.47005 0.0
H158 H 0.66185 0.98048 0.46189 0.0
H159 H 0.65218 0.9289 0.53306 0.0
C160 C 0.55338 0.87467 0.58245 0.0
C161 C 0.48812 0.87968 0.60521 0.0
C162 C 0.66536 0.04133 0.4648 0.0
C163 C 0.58518 -0.00075 0.53877 0.0
C164 C 0.69597 0.09686 0.42809 0.0
C165 C 0.69496 0.17318 0.42909 0.0
C166 C 0.63207 0.06185 0.50248 0.0
C167 C 0.66726 0.1942 0.46855 0.0
C168 C 0.60176 0.93394 0.54945 0.0
C169 C 0.47404 0.94645 0.59377 0.0
N170 N 0.63538 0.13819 0.50337 0.0
N171 N 0.52225 0.00363 0.56145 0.0
H172 H 0.45867 0.4435 0.1229 0.0
H173 H 0.62767 0.71596 0.90034 0.0
H174 H 0.72099 0.55728 0.08188 0.0
H175 H 0.40508 0.68063 0.97022 0.0
H176 H 0.66733 0.66372 0.96689 0.0
H177 H 0.4376 0.5286 0.0661 0.0
C178 C 0.5117 0.48584 0.10177 0.0
C179 C 0.59155 0.49255 0.10702 0.0
C180 C 0.61112 0.66978 0.96827 0.0
C181 C 0.56798 0.59085 0.04204 0.0
C182 C 0.58929 0.70084 0.93054 0.0
C183 C 0.51387 0.70395 0.93027 0.0
C184 C 0.55564 0.63933 1.00537 0.0
C185 C 0.46449 0.68061 0.96956 0.0
C186 C 0.49988 0.53521 0.06969 0.0
C187 C 0.65822 0.54969 0.07901 0.0
N188 N 0.48523 0.64764 1.00523 0.0
N189 N 0.64476 0.59595 0.0475 0.0
H190 H 0.90153 0.63156 0.4008 0.0
H191 H 0.0093 0.46182 0.62211 0.0
H192 H 0.71701 0.40594 0.46955 0.0
H193 H 0.15587 0.72424 0.58168 0.0
H194 H 0.90271 0.43991 0.56525 0.0
H195 H -0.00564 0.67074 0.46708 0.0
C196 C 0.87897 0.59239 0.43075 0.0
C197 C 0.80081 0.51643 0.43026 0.0
C198 C 0.95806 0.50238 0.56897 0.0
C199 C 0.90842 0.55768 0.50498 0.0
C200 C 0.01949 0.5147 0.6011 0.0
C201 C 0.09218 0.59484 0.60657 0.0
C202 C 0.96978 0.57031 0.54151 0.0
C203 C 0.10106 0.66126 0.57867 0.0
C204 C 0.93244 0.61394 0.46829 0.0
C205 C 0.77591 0.46595 0.46913 0.0
N206 N 0.04108 0.64735 0.54715 0.0
N207 N 0.83014 0.48655 0.50461 0.0
H208 H 0.60447 0.97851 0.33825 0.0
H209 H 0.69217 0.66633 0.18727 0.0
H210 H 0.56977 0.95406 0.19413 0.0
H211 H 0.73516 0.69746 0.33076 0.0
H212 H 0.65069 0.77493 0.18849 0.0
H213 H 0.64395 0.86834 0.33699 0.0
C214 C 0.60235 0.94777 0.30663 0.0
C215 C 0.58452 0.97527 0.26623 0.0
C216 C 0.67049 0.75895 0.21961 0.0
C217 C 0.63235 0.85241 0.2641 0.0
C218 C 0.69584 0.69834 0.21869 0.0
C219 C 0.71692 0.67331 0.25897 0.0
C220 C 0.66637 0.79418 0.26109 0.0
C221 C 0.71891 0.71515 0.29903 0.0
C222 C 0.62644 0.88619 0.30571 0.0
C223 C 0.58377 0.93458 0.22595 0.0
N224 N 0.69286 0.77292 0.29919 0.0
N225 N 0.60853 0.87584 0.2258 0.0
H226 H 0.03852 0.75344 0.8292 0.0
H227 H 0.60048 0.56271 0.69551 0.0
H228 H 0.01216 0.68717 0.68825 0.0
H229 H 0.62546 0.61907 0.83766 0.0
H230 H 0.74986 0.60226 0.69266 0.0
H231 H 0.88841 0.71116 0.83194 0.0
C232 C 0.00139 0.7325 0.79847 0.0
C233 C 0.03723 0.72385 0.75841 0.0
C234 C 0.72257 0.60474 0.72467 0.0
C235 C 0.86527 0.6721 0.76166 0.0
C236 C 0.63713 0.5809 0.72643 0.0
C237 C 0.60133 0.58804 0.76687 0.0
C238 C 0.77245 0.63664 0.76358 0.0
C239 C 0.65094 0.61229 0.80596 0.0
C240 C 0.91554 0.70701 0.80021 0.0
C241 C -0.01315 0.69574 0.7196 0.0
N242 N 0.73476 0.63718 0.80321 0.0
N243 N 0.90274 0.66962 0.72233 0.0
H244 H 0.31004 0.02258 0.18649 0.0
H245 H -0.00254 0.62402 0.33844 0.0
H246 H 0.27575 0.03653 0.32947 0.0
H247 H 0.02335 0.61145 0.1946 0.0
H248 H 0.1075 0.77394 0.33672 0.0
H249 H 0.20214 0.87198 0.18809 0.0
C250 C 0.27737 -0.00545 0.21783 0.0
C251 C 0.30134 0.04135 0.25791 0.0
C252 C 0.09004 0.73802 0.30562 0.0
C253 C 0.18148 0.86951 0.26051 0.0
C254 C 0.02861 0.6522 0.30682 0.0
C255 C 0.00147 0.6062 0.26659 0.0
C256 C 0.12396 0.77713 0.2639 0.0
C257 C 0.0426 0.64551 0.22628 0.0
C258 C 0.21722 0.90833 0.21899 0.0
C259 C 0.25877 0.00199 0.29791 0.0
N260 N 0.10112 0.7292 0.22582 0.0
N261 N 0.20154 0.91791 0.29833 0.0
H262 H 0.27848 0.31524 0.68739 0.0
H263 H 0.37168 0.00609 0.83742 0.0
H264 H 0.23893 0.28509 0.83115 0.0
H265 H 0.39858 0.02546 0.69279 0.0
H266 H 0.333 0.11679 0.83646 0.0
H267 H 0.32047 0.20701 0.68809 0.0
C268 C 0.27572 0.28355 0.71879 0.0
C269 C 0.25544 0.30874 0.75927 0.0
C270 C 0.34859 0.09767 0.80499 0.0
C271 C 0.30655 0.18833 0.76076 0.0
C272 C 0.37221 0.03578 0.80571 0.0
C273 C 0.38747 0.0066 0.76513 0.0
C274 C 0.34059 0.13011 0.7634 0.0
C275 C 0.38642 0.04612 0.72476 0.0
C276 C 0.30133 0.22315 0.71939 0.0
C277 C 0.25457 0.2673 0.79926 0.0
N278 N 0.36212 0.10521 0.72482 0.0
N279 N 0.28087 0.20974 0.79911 0.0
H280 H 0.35168 0.37213 0.33846 0.0
H281 H 0.95285 0.28552 0.1864 0.0
H282 H 0.364 0.40869 0.19448 0.0
H283 H 0.93881 0.23799 0.32946 0.0
H284 H 0.10349 0.32803 0.18801 0.0
H285 H 0.20173 0.33255 0.33672 0.0
C286 C 0.32344 0.37469 0.30678 0.0
C287 C 0.36936 0.3929 0.26653 0.0
C288 C 0.06711 0.30699 0.21894 0.0
C289 C 0.19841 0.3449 0.26383 0.0
C290 C 0.98085 0.28102 0.21778 0.0
C291 C 0.93401 0.25844 0.25786 0.0
C292 C 0.10595 0.31023 0.26047 0.0
C293 C 0.97337 0.2554 0.29789 0.0
C294 C 0.23761 0.35051 0.30558 0.0
C295 C 0.33001 0.39433 0.22617 0.0
N296 N 0.05749 0.28214 0.29831 0.0
N297 N 0.2463 0.36938 0.22572 0.0
H298 H 0.97117 0.35867 0.83848 0.0
H299 H 0.66258 0.95727 0.68711 0.0
H300 H 0.94896 0.36847 0.6942 0.0
H301 H 0.69354 0.94584 0.83063 0.0
H302 H 0.77046 0.10786 0.68838 0.0
H303 H 0.8613 0.20865 0.83707 0.0
C304 C 0.94091 0.32984 0.80679 0.0
C305 C 0.96912 0.37507 0.76638 0.0
C306 C 0.75463 0.07207 0.71949 0.0
C307 C 0.84673 0.20408 0.76409 0.0
C308 C 0.69449 0.98584 0.71854 0.0
C309 C 0.66951 0.93975 0.75883 0.0
C310 C 0.78935 0.11163 0.76101 0.0
C311 C 0.71122 0.97981 0.7989 0.0
C312 C 0.87955 0.24398 0.80578 0.0
C313 C 0.92896 0.33501 0.72601 0.0
N314 N 0.76843 0.0639 0.7991 0.0
N315 N 0.87049 0.2513 0.72577 0.0
loop_
_geom_bond_atom_site_label_1
_geom_bond_atom_site_label_2
_geom_bond_distance
_geom_bond_site_symmetry_2
_ccdc_geom_bond_type
C0 O28 1.281 . S
C0 O37 1.281 . S
C1 O29 1.281 . S
C1 O47 1.281 . S
O2 Hf6 2.202 . S
O2 Hf8 2.202 . S
O2 Hf10 2.202 . S
O3 Hf6 2.202 . S
O3 Hf12 2.202 . S
O3 Hf13 2.202 . S
O4 Hf6 2.072 . S
O4 Hf10 2.072 . S
O4 Hf12 2.072 . S
O5 Hf6 2.072 . S
O5 Hf8 2.072 . S
O5 Hf13 2.072 . S
Hf6 O2 2.202 . S
Hf6 O3 2.202 . S
Hf6 O4 2.072 . S
Hf6 O5 2.072 . S
Hf6 O20 2.209 . S
Hf6 O21 2.209 . S
Hf6 O36 2.209 . S
Hf6 O37 2.209 . S
O7 Hf8 2.072 . S
O7 Hf10 2.072 . S
O7 Hf15 2.072 . S
Hf8 O2 2.202 . S
Hf8 O5 2.072 . S
Hf8 O7 2.072 . S
Hf8 O11 2.202 . S
Hf8 O27 2.209 . S
Hf8 O28 2.209 . S
Hf8 O43 2.209 . S
Hf8 O47 2.209 . S
O9 Hf10 2.202 . S
O9 Hf12 2.202 . S
O9 Hf15 2.202 . S
Hf10 O2 2.202 . S
Hf10 O4 2.072 . S
Hf10 O7 2.072 . S
Hf10 O9 2.202 . S
Hf10 O32 2.209 . S
Hf10 O33 2.209 . S
Hf10 O40 2.209 . S
Hf10 O42 2.209 . S
O11 Hf8 2.202 . S
O11 Hf13 2.202 . S
O11 Hf15 2.202 . S
Hf12 O3 2.202 . S
Hf12 O4 2.072 . S
Hf12 O9 2.202 . S
Hf12 O14 2.072 . S
Hf12 O24 2.209 . S
Hf12 O25 2.209 . S
Hf12 O45 2.209 . S
Hf12 O46 2.209 . S
Hf13 O3 2.202 . S
Hf13 O5 2.072 . S
Hf13 O11 2.202 . S
Hf13 O14 2.072 . S
Hf13 O29 2.209 . S
Hf13 O30 2.209 . S
Hf13 O39 2.209 . S
Hf13 O44 2.209 . S
O14 Hf12 2.072 . S
O14 Hf13 2.072 . S
O14 Hf15 2.072 . S
Hf15 O7 2.072 . S
Hf15 O9 2.202 . S
Hf15 O11 2.202 . S
Hf15 O14 2.072 . S
Hf15 O23 2.209 . S
Hf15 O26 2.209 . S
Hf15 O35 2.209 . S
Hf15 O38 2.209 . S
C16 O30 1.281 . S
C16 O46 1.281 . S
C17 O33 1.281 . S
C17 O43 1.281 . S
C18 O32 1.281 . S
C18 O45 1.281 . S
C19 O20 1.281 . S
C19 O42 1.281 . S
O20 Hf6 2.209 . S
O20 C19 1.281 . S
O21 Hf6 2.209 . S
O21 C22 1.281 . S
C22 O21 1.281 . S
C22 O44 1.281 . S
O23 Hf15 2.209 . S
O23 C34 1.281 . S
O24 Hf12 2.209 . S
O24 C41 1.281 . S
O25 Hf12 2.209 . S
O25 C49 1.281 . S
O26 Hf15 2.209 . S
O26 C31 1.281 . S
O27 Hf8 2.209 . S
O27 C48 1.281 . S
O28 C0 1.281 . S
O28 Hf8 2.209 . S
O29 C1 1.281 . S
O29 Hf13 2.209 . S
O30 Hf13 2.209 . S
O30 C16 1.281 . S
C31 O26 1.281 . S
C31 O40 1.281 . S
O32 Hf10 2.209 . S
O32 C18 1.281 . S
O33 Hf10 2.209 . S
O33 C17 1.281 . S
C34 O23 1.281 . S
C34 O39 1.281 . S
O35 Hf15 2.209 . S
O35 C48 1.281 . S
O36 Hf6 2.209 . S
O36 C49 1.281 . S
O37 C0 1.281 . S
O37 Hf6 2.209 . S
O38 Hf15 2.209 . S
O38 C41 1.281 . S
O39 Hf13 2.209 . S
O39 C34 1.281 . S
O40 Hf10 2.209 . S
O40 C31 1.281 . S
C41 O24 1.281 . S
C41 O38 1.281 . S
O42 Hf10 2.209 . S
O42 C19 1.281 . S
O43 Hf8 2.209 . S
O43 C17 1.281 . S
O44 Hf13 2.209 . S
O44 C22 1.281 . S
O45 Hf12 2.209 . S
O45 C18 1.281 . S
O46 Hf12 2.209 . S
O46 C16 1.281 . S
O47 C1 1.281 . S
O47 Hf8 2.209 . S
C48 O27 1.281 . S
C48 O35 1.281 . S
C49 O25 1.281 . S
C49 O36 1.281 . S
C50 O78 1.281 . S
C50 O87 1.281 . S
C51 O79 1.281 . S
C51 O97 1.281 . S
O52 Hf56 2.202 . S
O52 Hf58 2.202 . S
O52 Hf60 2.202 . S
O53 Hf56 2.202 . S
O53 Hf62 2.202 . S
O53 Hf63 2.202 . S
O54 Hf56 2.072 . S
O54 Hf60 2.072 . S
O54 Hf62 2.072 . S
O55 Hf56 2.072 . S
O55 Hf58 2.072 . S
O55 Hf63 2.072 . S
Hf56 O52 2.202 . S
Hf56 O53 2.202 . S
Hf56 O54 2.072 . S
Hf56 O55 2.072 . S
Hf56 O70 2.209 . S
Hf56 O71 2.209 . S
Hf56 O86 2.209 . S
Hf56 O87 2.209 . S
O57 Hf58 2.072 . S
O57 Hf60 2.072 . S
O57 Hf65 2.072 . S
Hf58 O52 2.202 . S
Hf58 O55 2.072 . S
Hf58 O57 2.072 . S
Hf58 O61 2.202 . S
Hf58 O77 2.209 . S
Hf58 O78 2.209 . S
Hf58 O93 2.209 . S
Hf58 O97 2.209 . S
O59 Hf60 2.202 . S
O59 Hf62 2.202 . S
O59 Hf65 2.202 . S
Hf60 O52 2.202 . S
Hf60 O54 2.072 . S
Hf60 O57 2.072 . S
Hf60 O59 2.202 . S
Hf60 O82 2.209 . S
Hf60 O83 2.209 . S
Hf60 O90 2.209 . S
Hf60 O92 2.209 . S
O61 Hf58 2.202 . S
O61 Hf63 2.202 . S
O61 Hf65 2.202 . S
Hf62 O53 2.202 . S
Hf62 O54 2.072 . S
Hf62 O59 2.202 . S
Hf62 O64 2.072 . S
Hf62 O74 2.209 . S
Hf62 O75 2.209 . S
Hf62 O95 2.209 . S
Hf62 O96 2.209 . S
Hf63 O53 2.202 . S
Hf63 O55 2.072 . S
Hf63 O61 2.202 . S
Hf63 O64 2.072 . S
Hf63 O79 2.209 . S
Hf63 O80 2.209 . S
Hf63 O89 2.209 . S
Hf63 O94 2.209 . S
O64 Hf62 2.072 . S
O64 Hf63 2.072 . S
O64 Hf65 2.072 . S
Hf65 O57 2.072 . S
Hf65 O59 2.202 . S
Hf65 O61 2.202 . S
Hf65 O64 2.072 . S
Hf65 O73 2.209 . S
Hf65 O76 2.209 . S
Hf65 O85 2.209 . S
Hf65 O88 2.209 . S
C66 O80 1.281 . S
C66 O96 1.281 . S
C67 O83 1.281 . S
C67 O93 1.281 . S
C68 O82 1.281 . S
C68 O95 1.281 . S
C69 O70 1.281 . S
C69 O92 1.281 . S
O70 Hf56 2.209 . S
O70 C69 1.281 . S
O71 Hf56 2.209 . S
O71 C72 1.281 . S
C72 O71 1.281 . S
C72 O94 1.281 . S
O73 Hf65 2.209 . S
O73 C84 1.281 . S
O74 Hf62 2.209 . S
O74 C91 1.281 . S
O75 Hf62 2.209 . S
O75 C99 1.281 . S
O76 Hf65 2.209 . S
O76 C81 1.281 . S
O77 Hf58 2.209 . S
O77 C98 1.281 . S
O78 C50 1.281 . S
O78 Hf58 2.209 . S
O79 C51 1.281 . S
O79 Hf63 2.209 . S
O80 Hf63 2.209 . S
O80 C66 1.281 . S
C81 O76 1.281 . S
C81 O90 1.281 . S
O82 Hf60 2.209 . S
O82 C68 1.281 . S
O83 Hf60 2.209 . S
O83 C67 1.281 . S
C84 O73 1.281 . S
C84 O89 1.281 . S
O85 Hf65 2.209 . S
O85 C98 1.281 . S
O86 Hf56 2.209 . S
O86 C99 1.281 . S
O87 C50 1.281 . S
O87 Hf56 2.209 . S
O88 Hf65 2.209 . S
O88 C91 1.281 . S
O89 Hf63 2.209 . S
O89 C84 1.281 . S
O90 Hf60 2.209 . S
O90 C81 1.281 . S
C91 O74 1.281 . S
C91 O88 1.281 . S
O92 Hf60 2.209 . S
O92 C69 1.281 . S
O93 Hf58 2.209 . S
O93 C67 1.281 . S
O94 Hf63 2.209 . S
O94 C72 1.281 . S
O95 Hf62 2.209 . S
O95 C68 1.281 . S
O96 Hf62 2.209 . S
O96 C66 1.281 . S
O97 C51 1.281 . S
O97 Hf58 2.209 . S
C98 O77 1.281 . S
C98 O85 1.281 . S
C99 O75 1.281 . S
C99 O86 1.281 . S
H100 C106 0.930 . S
H101 C110 0.930 . S
H102 C115 0.929 . S
H103 C113 0.929 . S
H104 C108 0.929 1_556 S
H105 C114 0.929 1_554 S
C106 H100 0.930 . S
C106 C107 1.367 . S
C106 C114 1.378 . S
C107 C106 1.367 . S
C107 C115 1.433 . S
C108 H104 0.929 1_554 S
C108 C110 1.378 . S
C108 C112 1.350 1_545 S
C109 C112 1.463 1_556 S
C109 C114 1.350 . S
C109 N117 1.427 . S
C110 H101 0.930 . S
C110 C108 1.378 . S
C110 C111 1.367 . S
C111 C110 1.367 . S
C111 C113 1.433 1_545 S
C112 C108 1.350 1_565 S
C112 C109 1.463 1_554 S
C112 N116 1.427 . S
C113 H103 0.929 . S
C113 C111 1.433 1_565 S
C113 N116 1.384 . S
C114 H105 0.929 1_556 S
C114 C106 1.378 . S
C114 C109 1.350 . S
C115 H102 0.929 . S
C115 C107 1.433 . S
C115 N117 1.384 . S
N116 C112 1.427 . S
N116 C113 1.384 . S
N117 C109 1.427 . S
N117 C115 1.384 . S
H118 C124 0.930 . S
H119 C128 0.930 . S
H120 C133 0.929 . S
H121 C131 0.929 . S
H122 C126 0.929 . S
H123 C132 0.929 . S
C124 H118 0.930 . S
C124 C125 1.367 . S
C124 C132 1.378 . S
C125 C124 1.367 . S
C125 C133 1.433 . S
C126 H122 0.929 . S
C126 C128 1.378 . S
C126 C130 1.350 . S
C127 C130 1.463 . S
C127 C132 1.350 . S
C127 N135 1.427 . S
C128 H119 0.930 . S
C128 C126 1.378 . S
C128 C129 1.367 . S
C129 C128 1.367 . S
C129 C131 1.433 . S
C130 C126 1.350 . S
C130 C127 1.463 . S
C130 N134 1.427 . S
C131 H121 0.929 . S
C131 C129 1.433 . S
C131 N134 1.384 . S
C132 H123 0.929 . S
C132 C124 1.378 . S
C132 C127 1.350 . S
C133 H120 0.929 . S
C133 C125 1.433 . S
C133 N135 1.384 . S
N134 C130 1.427 . S
N134 C131 1.384 . S
N135 C127 1.427 . S
N135 C133 1.384 . S
H136 C142 0.931 . S
H137 C146 0.930 . S
H138 C151 0.929 . S
H139 C149 0.929 . S
H140 C144 0.929 1_655 S
H141 C150 0.929 . S
C142 H136 0.931 . S
C142 C143 1.362 1_455 S
C142 C150 1.382 . S
C143 C142 1.362 1_655 S
C143 C151 1.433 . S
C144 H140 0.929 1_455 S
C144 C146 1.378 . S
C144 C148 1.350 . S
C145 C148 1.463 1_554 S
C145 C150 1.350 . S
C145 N153 1.427 1_455 S
C146 H137 0.930 . S
C146 C144 1.378 . S
C146 C147 1.367 . S
C147 C146 1.367 . S
C147 C149 1.433 . S
C148 C144 1.350 . S
C148 C145 1.463 1_556 S
C148 N152 1.427 . S
C149 H139 0.929 . S
C149 C147 1.433 . S
C149 N152 1.384 . S
C150 H141 0.929 . S
C150 C142 1.382 . S
C150 C145 1.350 . S
C151 H138 0.929 . S
C151 C143 1.433 . S
C151 N153 1.384 . S
N152 C148 1.427 . S
N152 C149 1.384 . S
N153 C145 1.427 1_655 S
N153 C151 1.384 . S
H154 C160 0.930 . S
H155 C164 0.930 . S
H156 C169 0.929 . S
H157 C167 0.929 . S
H158 C162 0.929 . S
H159 C168 0.929 . S
C160 H154 0.930 . S
C160 C161 1.367 . S
C160 C168 1.378 1_565 S
C161 C160 1.367 . S
C161 C169 1.433 . S
C162 H158 0.929 . S
C162 C164 1.378 . S
C162 C166 1.350 . S
C163 C166 1.463 . S
C163 C168 1.350 . S
C163 N171 1.427 1_545 S
C164 H155 0.930 . S
C164 C162 1.378 . S
C164 C165 1.367 . S
C165 C164 1.367 . S
C165 C167 1.433 . S
C166 C162 1.350 . S
C166 C163 1.463 . S
C166 N170 1.427 . S
C167 H157 0.929 . S
C167 C165 1.433 . S
C167 N170 1.384 . S
C168 H159 0.929 . S
C168 C160 1.378 1_545 S
C168 C163 1.350 . S
C169 H156 0.929 . S
C169 C161 1.433 . S
C169 N171 1.384 . S
N170 C166 1.427 . S
N170 C167 1.384 . S
N171 C163 1.427 1_565 S
N171 C169 1.384 . S
H172 C178 0.930 . S
H173 C182 0.930 . S
H174 C187 0.929 . S
H175 C185 0.929 . S
H176 C180 0.929 . S
H177 C186 0.929 . S
C178 H172 0.930 . S
C178 C179 1.367 . S
C178 C186 1.378 . S
C179 C178 1.367 . S
C179 C187 1.433 . S
C180 H176 0.929 . S
C180 C182 1.378 . S
C180 C184 1.350 . S
C181 C184 1.463 1_554 S
C181 C186 1.350 . S
C181 N189 1.427 . S
C182 H173 0.930 . S
C182 C180 1.378 . S
C182 C183 1.367 . S
C183 C182 1.367 . S
C183 C185 1.433 . S
C184 C180 1.350 . S
C184 C181 1.463 1_556 S
C184 N188 1.427 . S
C185 H175 0.929 . S
C185 C183 1.433 . S
C185 N188 1.384 . S
C186 H177 0.929 . S
C186 C178 1.378 . S
C186 C181 1.350 . S
C187 H174 0.929 . S
C187 C179 1.433 . S
C187 N189 1.384 . S
N188 C184 1.427 . S
N188 C185 1.384 . S
N189 C181 1.427 . S
N189 C187 1.384 . S
H190 C196 0.930 . S
H191 C200 0.930 . S
H192 C205 0.929 . S
H193 C203 0.929 . S
H194 C198 0.929 . S
H195 C204 0.929 . S
C196 H190 0.930 . S
C196 C197 1.367 . S
C196 C204 1.378 . S
C197 C196 1.367 . S
C197 C205 1.433 . S
C198 H194 0.929 . S
C198 C200 1.378 . S
C198 C202 1.350 1_455 S
C199 C202 1.463 . S
C199 C204 1.350 . S
C199 N207 1.427 . S
C200 H191 0.930 . S
C200 C198 1.378 . S
C200 C201 1.367 . S
C201 C200 1.367 . S
C201 C203 1.433 . S
C202 C198 1.350 1_655 S
C202 C199 1.463 . S
C202 N206 1.427 . S
C203 H193 0.929 . S
C203 C201 1.433 . S
C203 N206 1.384 1_455 S
C204 H195 0.929 . S
C204 C196 1.378 . S
C204 C199 1.350 . S
C205 H192 0.929 . S
C205 C197 1.433 . S
C205 N207 1.384 . S
N206 C202 1.427 . S
N206 C203 1.384 1_655 S
N207 C199 1.427 . S
N207 C205 1.384 . S
H208 C214 0.930 . S
H209 C218 0.930 . S
H210 C223 0.929 . S
H211 C221 0.929 . S
H212 C216 0.929 . S
H213 C222 0.929 . S
C214 H208 0.930 . S
C214 C215 1.367 . S
C214 C222 1.378 1_545 S
C215 C214 1.367 . S
C215 C223 1.433 1_545 S
C216 H212 0.929 . S
C216 C218 1.378 . S
C216 C220 1.350 . S
C217 C220 1.463 . S
C217 C222 1.350 . S
C217 N225 1.427 . S
C218 H209 0.930 . S
C218 C216 1.378 . S
C218 C219 1.367 . S
C219 C218 1.367 . S
C219 C221 1.433 . S
C220 C216 1.350 . S
C220 C217 1.463 . S
C220 N224 1.427 . S
C221 H211 0.929 . S
C221 C219 1.433 . S
C221 N224 1.384 . S
C222 H213 0.929 . S
C222 C214 1.378 1_565 S
C222 C217 1.350 . S
C223 H210 0.929 . S
C223 C215 1.433 1_565 S
C223 N225 1.384 . S
N224 C220 1.427 . S
N224 C221 1.384 . S
N225 C217 1.427 . S
N225 C223 1.384 . S
H226 C232 0.930 . S
H227 C236 0.930 . S
H228 C241 0.929 . S
H229 C239 0.929 . S
H230 C234 0.929 . S
H231 C240 0.929 . S
C232 H226 0.930 . S
C232 C233 1.367 1_655 S
C232 C240 1.378 . S
C233 C232 1.367 1_455 S
C233 C241 1.433 . S
C234 H230 0.929 . S
C234 C236 1.378 . S
C234 C238 1.350 . S
C235 C238 1.463 . S
C235 C240 1.350 . S
C235 N243 1.427 . S
C236 H227 0.930 . S
C236 C234 1.378 . S
C236 C237 1.367 . S
C237 C236 1.367 . S
C237 C239 1.433 . S
C238 C234 1.350 . S
C238 C235 1.463 . S
C238 N242 1.427 . S
C239 H229 0.929 . S
C239 C237 1.433 . S
C239 N242 1.384 . S
C240 H231 0.929 . S
C240 C232 1.378 . S
C240 C235 1.350 . S
C241 H228 0.929 . S
C241 C233 1.433 . S
C241 N243 1.384 1_455 S
N242 C238 1.427 . S
N242 C239 1.384 . S
N243 C235 1.427 . S
N243 C241 1.384 1_655 S
H244 C250 0.930 1_545 S
H245 C254 0.930 1_655 S
H246 C259 0.929 1_545 S
H247 C257 0.929 . S
H248 C252 0.929 . S
H249 C258 0.929 . S
C250 H244 0.930 1_565 S
C250 C251 1.367 1_565 S
C250 C258 1.378 . S
C251 C250 1.367 1_545 S
C251 C259 1.433 1_545 S
C252 H248 0.929 . S
C252 C254 1.378 . S
C252 C256 1.350 . S
C253 C256 1.463 . S
C253 C258 1.350 . S
C253 N261 1.427 . S
C254 H245 0.930 1_455 S
C254 C252 1.378 . S
C254 C255 1.367 1_455 S
C255 C254 1.367 1_655 S
C255 C257 1.433 1_655 S
C256 C252 1.350 . S
C256 C253 1.463 . S
C256 N260 1.427 . S
C257 H247 0.929 . S
C257 C255 1.433 1_455 S
C257 N260 1.384 . S
C258 H249 0.929 . S
C258 C250 1.378 . S
C258 C253 1.350 . S
C259 H246 0.929 1_565 S
C259 C251 1.433 1_565 S
C259 N261 1.384 . S
N260 C256 1.427 . S
N260 C257 1.384 . S
N261 C253 1.427 . S
N261 C259 1.384 . S
H262 C268 0.930 . S
H263 C272 0.930 . S
H264 C277 0.929 . S
H265 C275 0.929 1_565 S
H266 C270 0.929 . S
H267 C276 0.929 . S
C268 H262 0.930 . S
C268 C269 1.367 . S
C268 C276 1.378 . S
C269 C268 1.367 . S
C269 C277 1.433 . S
C270 H266 0.929 . S
C270 C272 1.378 . S
C270 C274 1.350 . S
C271 C274 1.463 . S
C271 C276 1.350 . S
C271 N279 1.427 . S
C272 H263 0.930 . S
C272 C270 1.378 . S
C272 C273 1.367 1_545 S
C273 C272 1.367 1_565 S
C273 C275 1.433 1_565 S
C274 C270 1.350 . S
C274 C271 1.463 . S
C274 N278 1.427 . S
C275 H265 0.929 1_545 S
C275 C273 1.433 1_545 S
C275 N278 1.384 . S
C276 H267 0.929 . S
C276 C268 1.378 . S
C276 C271 1.350 . S
C277 H264 0.929 . S
C277 C269 1.433 . S
C277 N279 1.384 . S
N278 C274 1.427 . S
N278 C275 1.384 . S
N279 C271 1.427 . S
N279 C277 1.384 . S
H280 C286 0.930 . S
H281 C290 0.930 . S
H282 C295 0.929 . S
H283 C293 0.929 . S
H284 C288 0.929 . S
H285 C294 0.929 . S
C286 H280 0.930 . S
C286 C287 1.367 . S
C286 C294 1.378 . S
C287 C286 1.367 . S
C287 C295 1.433 . S
C288 H284 0.929 . S
C288 C290 1.378 1_455 S
C288 C292 1.350 . S
C289 C292 1.463 . S
C289 C294 1.350 . S
C289 N297 1.427 . S
C290 H281 0.930 . S
C290 C288 1.378 1_655 S
C290 C291 1.367 . S
C291 C290 1.367 . S
C291 C293 1.433 1_655 S
C292 C288 1.350 . S
C292 C289 1.463 . S
C292 N296 1.427 . S
C293 H283 0.929 . S
C293 C291 1.433 1_455 S
C293 N296 1.384 . S
C294 H285 0.929 . S
C294 C286 1.378 . S
C294 C289 1.350 . S
C295 H282 0.929 . S
C295 C287 1.433 . S
C295 N297 1.384 . S
N296 C292 1.427 . S
N296 C293 1.384 . S
N297 C289 1.427 . S
N297 C295 1.384 . S
H298 C304 0.930 . S
H299 C308 0.930 . S
H300 C313 0.929 . S
H301 C311 0.929 . S
H302 C306 0.929 . S
H303 C312 0.929 . S
C304 H298 0.930 . S
C304 C305 1.367 . S
C304 C312 1.378 1_455 S
C305 C304 1.367 . S
C305 C313 1.433 1_455 S
C306 H302 0.929 . S
C306 C308 1.378 . S
C306 C310 1.350 . S
C307 C310 1.463 . S
C307 C312 1.350 . S
C307 N315 1.427 . S
C308 H299 0.930 . S
C308 C306 1.378 . S
C308 C309 1.367 1_545 S
C309 C308 1.367 1_565 S
C309 C311 1.433 . S
C310 C306 1.350 . S
C310 C307 1.463 . S
C310 N314 1.427 . S
C311 H301 0.929 . S
C311 C309 1.433 . S
C311 N314 1.384 1_565 S
C312 H303 0.929 . S
C312 C304 1.378 1_655 S
C312 C307 1.350 . S
C313 H300 0.929 . S
C313 C305 1.433 1_655 S
C313 N315 1.384 . S
N314 C310 1.427 . S
N314 C311 1.384 1_545 S
N315 C307 1.427 . S
N315 C313 1.384 . S
C107 C51 1.711 . S
C111 C16 1.819 . S
C125 C68 1.820 . S
C129 C31 1.710 . S
C143 C22 1.820 . S
C147 C72 1.710 . S
C161 C81 1.819 . S
C165 C48 1.703 . S
C179 C49 1.821 . S
C183 C50 1.718 . S
C197 C17 1.718 . S
C201 C91 1.821 . S
C215 C34 1.138 . S
C219 C19 1.147 . S
C233 C84 1.148 . S
C237 C69 1.140 . S
C251 C41 1.150 . S
C255 C0 1.141 . S
C269 C99 1.151 . S
C273 C98 1.143 . S
C287 C18 1.147 . S
C291 C1 1.153 . S
C305 C66 1.138 . S
C309 C67 1.147 . S
