# Generated by pormake.
# Topology kfi, (4)-cn, num edge types: 1
# Building blocks:
#     Node 0, Type 0, BuildingBlock: GALJAG_clean_sbu_0, # of connection points: 4
#     Node 1, Type 0, BuildingBlock: GALJAG_clean_sbu_0, # of connection points: 4
#     Node 2, Type 0, BuildingBlock: GALJAG_clean_sbu_0, # of connection points: 4
#     Node 3, Type 0, BuildingBlock: GALJAG_clean_sbu_0, # of connection points: 4
#     Node 4, Type 0, BuildingBlock: GALJAG_clean_sbu_0, # of connection points: 4
#     Node 5, Type 0, BuildingBlock: GALJAG_clean_sbu_0, # of connection points: 4
#     Node 6, Type 0, BuildingBlock: GALJAG_clean_sbu_0, # of connection points: 4
#     Node 7, Type 0, BuildingBlock: GALJAG_clean_sbu_0, # of connection points: 4
#     Node 8, Type 0, BuildingBlock: GALJAG_clean_sbu_0, # of connection points: 4
#     Node 9, Type 0, BuildingBlock: GALJAG_clean_sbu_0, # of connection points: 4
#     Node 10, Type 0, BuildingBlock: GALJAG_clean_sbu_0, # of connection points: 4
#     Node 11, Type 0, BuildingBlock: GALJAG_clean_sbu_0, # of connection points: 4
#     Node 12, Type 0, BuildingBlock: GALJAG_clean_sbu_0, # of connection points: 4
#     Node 13, Type 0, BuildingBlock: GALJAG_clean_sbu_0, # of connection points: 4
#     Node 14, Type 0, BuildingBlock: GALJAG_clean_sbu_0, # of connection points: 4
#     Node 15, Type 0, BuildingBlock: GALJAG_clean_sbu_0, # of connection points: 4
#     Node 16, Type 0, BuildingBlock: GALJAG_clean_sbu_0, # of connection points: 4
#     Node 17, Type 0, BuildingBlock: GALJAG_clean_sbu_0, # of connection points: 4
#     Node 18, Type 0, BuildingBlock: GALJAG_clean_sbu_0, # of connection points: 4
#     Node 19, Type 0, BuildingBlock: GALJAG_clean_sbu_0, # of connection points: 4
#     Node 20, Type 0, BuildingBlock: GALJAG_clean_sbu_0, # of connection points: 4
#     Node 21, Type 0, BuildingBlock: GALJAG_clean_sbu_0, # of connection points: 4
#     Node 22, Type 0, BuildingBlock: GALJAG_clean_sbu_0, # of connection points: 4
#     Node 23, Type 0, BuildingBlock: GALJAG_clean_sbu_0, # of connection points: 4
#     Node 24, Type 0, BuildingBlock: GALJAG_clean_sbu_0, # of connection points: 4
#     Node 25, Type 0, BuildingBlock: GALJAG_clean_sbu_0, # of connection points: 4
#     Node 26, Type 0, BuildingBlock: GALJAG_clean_sbu_0, # of connection points: 4
#     Node 27, Type 0, BuildingBlock: GALJAG_clean_sbu_0, # of connection points: 4
#     Node 28, Type 0, BuildingBlock: GALJAG_clean_sbu_0, # of connection points: 4
#     Node 29, Type 0, BuildingBlock: GALJAG_clean_sbu_0, # of connection points: 4
#     Node 30, Type 0, BuildingBlock: GALJAG_clean_sbu_0, # of connection points: 4
#     Node 31, Type 0, BuildingBlock: GALJAG_clean_sbu_0, # of connection points: 4
#     Node 32, Type 0, BuildingBlock: GALJAG_clean_sbu_0, # of connection points: 4
#     Node 33, Type 0, BuildingBlock: GALJAG_clean_sbu_0, # of connection points: 4
#     Node 34, Type 0, BuildingBlock: GALJAG_clean_sbu_0, # of connection points: 4
#     Node 35, Type 0, BuildingBlock: GALJAG_clean_sbu_0, # of connection points: 4
#     Node 36, Type 0, BuildingBlock: GALJAG_clean_sbu_0, # of connection points: 4
#     Node 37, Type 0, BuildingBlock: GALJAG_clean_sbu_0, # of connection points: 4
#     Node 38, Type 0, BuildingBlock: GALJAG_clean_sbu_0, # of connection points: 4
#     Node 39, Type 0, BuildingBlock: GALJAG_clean_sbu_0, # of connection points: 4
#     Node 40, Type 0, BuildingBlock: GALJAG_clean_sbu_0, # of connection points: 4
#     Node 41, Type 0, BuildingBlock: GALJAG_clean_sbu_0, # of connection points: 4
#     Node 42, Type 0, BuildingBlock: GALJAG_clean_sbu_0, # of connection points: 4
#     Node 43, Type 0, BuildingBlock: GALJAG_clean_sbu_0, # of connection points: 4
#     Node 44, Type 0, BuildingBlock: GALJAG_clean_sbu_0, # of connection points: 4
#     Node 45, Type 0, BuildingBlock: GALJAG_clean_sbu_0, # of connection points: 4
#     Node 46, Type 0, BuildingBlock: GALJAG_clean_sbu_0, # of connection points: 4
#     Node 47, Type 0, BuildingBlock: GALJAG_clean_sbu_0, # of connection points: 4
#     Node 48, Type 0, BuildingBlock: GALJAG_clean_sbu_0, # of connection points: 4
#     Node 49, Type 0, BuildingBlock: GALJAG_clean_sbu_0, # of connection points: 4
#     Node 50, Type 0, BuildingBlock: GALJAG_clean_sbu_0, # of connection points: 4
#     Node 51, Type 0, BuildingBlock: GALJAG_clean_sbu_0, # of connection points: 4
#     Node 52, Type 0, BuildingBlock: GALJAG_clean_sbu_0, # of connection points: 4
#     Node 53, Type 0, BuildingBlock: GALJAG_clean_sbu_0, # of connection points: 4
#     Node 54, Type 0, BuildingBlock: GALJAG_clean_sbu_0, # of connection points: 4
#     Node 55, Type 0, BuildingBlock: GALJAG_clean_sbu_0, # of connection points: 4
#     Node 56, Type 0, BuildingBlock: GALJAG_clean_sbu_0, # of connection points: 4
#     Node 57, Type 0, BuildingBlock: GALJAG_clean_sbu_0, # of connection points: 4
#     Node 58, Type 0, BuildingBlock: GALJAG_clean_sbu_0, # of connection points: 4
#     Node 59, Type 0, BuildingBlock: GALJAG_clean_sbu_0, # of connection points: 4
#     Node 60, Type 0, BuildingBlock: GALJAG_clean_sbu_0, # of connection points: 4
#     Node 61, Type 0, BuildingBlock: GALJAG_clean_sbu_0, # of connection points: 4
#     Node 62, Type 0, BuildingBlock: GALJAG_clean_sbu_0, # of connection points: 4
#     Node 63, Type 0, BuildingBlock: GALJAG_clean_sbu_0, # of connection points: 4
#     Node 64, Type 0, BuildingBlock: GALJAG_clean_sbu_0, # of connection points: 4
#     Node 65, Type 0, BuildingBlock: GALJAG_clean_sbu_0, # of connection points: 4
#     Node 66, Type 0, BuildingBlock: GALJAG_clean_sbu_0, # of connection points: 4
#     Node 67, Type 0, BuildingBlock: GALJAG_clean_sbu_0, # of connection points: 4
#     Node 68, Type 0, BuildingBlock: GALJAG_clean_sbu_0, # of connection points: 4
#     Node 69, Type 0, BuildingBlock: GALJAG_clean_sbu_0, # of connection points: 4
#     Node 70, Type 0, BuildingBlock: GALJAG_clean_sbu_0, # of connection points: 4
#     Node 71, Type 0, BuildingBlock: GALJAG_clean_sbu_0, # of connection points: 4
#     Node 72, Type 0, BuildingBlock: GALJAG_clean_sbu_0, # of connection points: 4
#     Node 73, Type 0, BuildingBlock: GALJAG_clean_sbu_0, # of connection points: 4
#     Node 74, Type 0, BuildingBlock: GALJAG_clean_sbu_0, # of connection points: 4
#     Node 75, Type 0, BuildingBlock: GALJAG_clean_sbu_0, # of connection points: 4
#     Node 76, Type 0, BuildingBlock: GALJAG_clean_sbu_0, # of connection points: 4
#     Node 77, Type 0, BuildingBlock: GALJAG_clean_sbu_0, # of connection points: 4
#     Node 78, Type 0, BuildingBlock: GALJAG_clean_sbu_0, # of connection points: 4
#     Node 79, Type 0, BuildingBlock: GALJAG_clean_sbu_0, # of connection points: 4
#     Node 80, Type 0, BuildingBlock: GALJAG_clean_sbu_0, # of connection points: 4
#     Node 81, Type 0, BuildingBlock: GALJAG_clean_sbu_0, # of connection points: 4
#     Node 82, Type 0, BuildingBlock: GALJAG_clean_sbu_0, # of connection points: 4
#     Node 83, Type 0, BuildingBlock: GALJAG_clean_sbu_0, # of connection points: 4
#     Node 84, Type 0, BuildingBlock: GALJAG_clean_sbu_0, # of connection points: 4
#     Node 85, Type 0, BuildingBlock: GALJAG_clean_sbu_0, # of connection points: 4
#     Node 86, Type 0, BuildingBlock: GALJAG_clean_sbu_0, # of connection points: 4
#     Node 87, Type 0, BuildingBlock: GALJAG_clean_sbu_0, # of connection points: 4
#     Node 88, Type 0, BuildingBlock: GALJAG_clean_sbu_0, # of connection points: 4
#     Node 89, Type 0, BuildingBlock: GALJAG_clean_sbu_0, # of connection points: 4
#     Node 90, Type 0, BuildingBlock: GALJAG_clean_sbu_0, # of connection points: 4
#     Node 91, Type 0, BuildingBlock: GALJAG_clean_sbu_0, # of connection points: 4
#     Node 92, Type 0, BuildingBlock: GALJAG_clean_sbu_0, # of connection points: 4
#     Node 93, Type 0, BuildingBlock: GALJAG_clean_sbu_0, # of connection points: 4
#     Node 94, Type 0, BuildingBlock: GALJAG_clean_sbu_0, # of connection points: 4
#     Node 95, Type 0, BuildingBlock: GALJAG_clean_sbu_0, # of connection points: 4
#     Edge 96, Type (0, 0), BuildingBlock: CIFDUS_clean_linker_0, # of connection points: 2
#     Edge 97, Type (0, 0), BuildingBlock: CIFDUS_clean_linker_0, # of connection points: 2
#     Edge 98, Type (0, 0), BuildingBlock: CIFDUS_clean_linker_0, # of connection points: 2
#     Edge 99, Type (0, 0), BuildingBlock: CIFDUS_clean_linker_0, # of connection points: 2
#     Edge 100, Type (0, 0), BuildingBlock: CIFDUS_clean_linker_0, # of connection points: 2
#     Edge 101, Type (0, 0), BuildingBlock: CIFDUS_clean_linker_0, # of connection points: 2
#     Edge 102, Type (0, 0), BuildingBlock: CIFDUS_clean_linker_0, # of connection points: 2
#     Edge 103, Type (0, 0), BuildingBlock: CIFDUS_clean_linker_0, # of connection points: 2
#     Edge 104, Type (0, 0), BuildingBlock: CIFDUS_clean_linker_0, # of connection points: 2
#     Edge 105, Type (0, 0), BuildingBlock: CIFDUS_clean_linker_0, # of connection points: 2
#     Edge 106, Type (0, 0), BuildingBlock: CIFDUS_clean_linker_0, # of connection points: 2
#     Edge 107, Type (0, 0), BuildingBlock: CIFDUS_clean_linker_0, # of connection points: 2
#     Edge 108, Type (0, 0), BuildingBlock: CIFDUS_clean_linker_0, # of connection points: 2
#     Edge 109, Type (0, 0), BuildingBlock: CIFDUS_clean_linker_0, # of connection points: 2
#     Edge 110, Type (0, 0), BuildingBlock: CIFDUS_clean_linker_0, # of connection points: 2
#     Edge 111, Type (0, 0), BuildingBlock: CIFDUS_clean_linker_0, # of connection points: 2
#     Edge 112, Type (0, 0), BuildingBlock: CIFDUS_clean_linker_0, # of connection points: 2
#     Edge 113, Type (0, 0), BuildingBlock: CIFDUS_clean_linker_0, # of connection points: 2
#     Edge 114, Type (0, 0), BuildingBlock: CIFDUS_clean_linker_0, # of connection points: 2
#     Edge 115, Type (0, 0), BuildingBlock: CIFDUS_clean_linker_0, # of connection points: 2
#     Edge 116, Type (0, 0), BuildingBlock: CIFDUS_clean_linker_0, # of connection points: 2
#     Edge 117, Type (0, 0), BuildingBlock: CIFDUS_clean_linker_0, # of connection points: 2
#     Edge 118, Type (0, 0), BuildingBlock: CIFDUS_clean_linker_0, # of connection points: 2
#     Edge 119, Type (0, 0), BuildingBlock: CIFDUS_clean_linker_0, # of connection points: 2
#     Edge 120, Type (0, 0), BuildingBlock: CIFDUS_clean_linker_0, # of connection points: 2
#     Edge 121, Type (0, 0), BuildingBlock: CIFDUS_clean_linker_0, # of connection points: 2
#     Edge 122, Type (0, 0), BuildingBlock: CIFDUS_clean_linker_0, # of connection points: 2
#     Edge 123, Type (0, 0), BuildingBlock: CIFDUS_clean_linker_0, # of connection points: 2
#     Edge 124, Type (0, 0), BuildingBlock: CIFDUS_clean_linker_0, # of connection points: 2
#     Edge 125, Type (0, 0), BuildingBlock: CIFDUS_clean_linker_0, # of connection points: 2
#     Edge 126, Type (0, 0), BuildingBlock: CIFDUS_clean_linker_0, # of connection points: 2
#     Edge 127, Type (0, 0), BuildingBlock: CIFDUS_clean_linker_0, # of connection points: 2
#     Edge 128, Type (0, 0), BuildingBlock: CIFDUS_clean_linker_0, # of connection points: 2
#     Edge 129, Type (0, 0), BuildingBlock: CIFDUS_clean_linker_0, # of connection points: 2
#     Edge 130, Type (0, 0), BuildingBlock: CIFDUS_clean_linker_0, # of connection points: 2
#     Edge 131, Type (0, 0), BuildingBlock: CIFDUS_clean_linker_0, # of connection points: 2
#     Edge 132, Type (0, 0), BuildingBlock: CIFDUS_clean_linker_0, # of connection points: 2
#     Edge 133, Type (0, 0), BuildingBlock: CIFDUS_clean_linker_0, # of connection points: 2
#     Edge 134, Type (0, 0), BuildingBlock: CIFDUS_clean_linker_0, # of connection points: 2
#     Edge 135, Type (0, 0), BuildingBlock: CIFDUS_clean_linker_0, # of connection points: 2
#     Edge 136, Type (0, 0), BuildingBlock: CIFDUS_clean_linker_0, # of connection points: 2
#     Edge 137, Type (0, 0), BuildingBlock: CIFDUS_clean_linker_0, # of connection points: 2
#     Edge 138, Type (0, 0), BuildingBlock: CIFDUS_clean_linker_0, # of connection points: 2
#     Edge 139, Type (0, 0), BuildingBlock: CIFDUS_clean_linker_0, # of connection points: 2
#     Edge 140, Type (0, 0), BuildingBlock: CIFDUS_clean_linker_0, # of connection points: 2
#     Edge 141, Type (0, 0), BuildingBlock: CIFDUS_clean_linker_0, # of connection points: 2
#     Edge 142, Type (0, 0), BuildingBlock: CIFDUS_clean_linker_0, # of connection points: 2
#     Edge 143, Type (0, 0), BuildingBlock: CIFDUS_clean_linker_0, # of connection points: 2
#     Edge 144, Type (0, 0), BuildingBlock: CIFDUS_clean_linker_0, # of connection points: 2
#     Edge 145, Type (0, 0), BuildingBlock: CIFDUS_clean_linker_0, # of connection points: 2
#     Edge 146, Type (0, 0), BuildingBlock: CIFDUS_clean_linker_0, # of connection points: 2
#     Edge 147, Type (0, 0), BuildingBlock: CIFDUS_clean_linker_0, # of connection points: 2
#     Edge 148, Type (0, 0), BuildingBlock: CIFDUS_clean_linker_0, # of connection points: 2
#     Edge 149, Type (0, 0), BuildingBlock: CIFDUS_clean_linker_0, # of connection points: 2
#     Edge 150, Type (0, 0), BuildingBlock: CIFDUS_clean_linker_0, # of connection points: 2
#     Edge 151, Type (0, 0), BuildingBlock: CIFDUS_clean_linker_0, # of connection points: 2
#     Edge 152, Type (0, 0), BuildingBlock: CIFDUS_clean_linker_0, # of connection points: 2
#     Edge 153, Type (0, 0), BuildingBlock: CIFDUS_clean_linker_0, # of connection points: 2
#     Edge 154, Type (0, 0), BuildingBlock: CIFDUS_clean_linker_0, # of connection points: 2
#     Edge 155, Type (0, 0), BuildingBlock: CIFDUS_clean_linker_0, # of connection points: 2
#     Edge 156, Type (0, 0), BuildingBlock: CIFDUS_clean_linker_0, # of connection points: 2
#     Edge 157, Type (0, 0), BuildingBlock: CIFDUS_clean_linker_0, # of connection points: 2
#     Edge 158, Type (0, 0), BuildingBlock: CIFDUS_clean_linker_0, # of connection points: 2
#     Edge 159, Type (0, 0), BuildingBlock: CIFDUS_clean_linker_0, # of connection points: 2
#     Edge 160, Type (0, 0), BuildingBlock: CIFDUS_clean_linker_0, # of connection points: 2
#     Edge 161, Type (0, 0), BuildingBlock: CIFDUS_clean_linker_0, # of connection points: 2
#     Edge 162, Type (0, 0), BuildingBlock: CIFDUS_clean_linker_0, # of connection points: 2
#     Edge 163, Type (0, 0), BuildingBlock: CIFDUS_clean_linker_0, # of connection points: 2
#     Edge 164, Type (0, 0), BuildingBlock: CIFDUS_clean_linker_0, # of connection points: 2
#     Edge 165, Type (0, 0), BuildingBlock: CIFDUS_clean_linker_0, # of connection points: 2
#     Edge 166, Type (0, 0), BuildingBlock: CIFDUS_clean_linker_0, # of connection points: 2
#     Edge 167, Type (0, 0), BuildingBlock: CIFDUS_clean_linker_0, # of connection points: 2
#     Edge 168, Type (0, 0), BuildingBlock: CIFDUS_clean_linker_0, # of connection points: 2
#     Edge 169, Type (0, 0), BuildingBlock: CIFDUS_clean_linker_0, # of connection points: 2
#     Edge 170, Type (0, 0), BuildingBlock: CIFDUS_clean_linker_0, # of connection points: 2
#     Edge 171, Type (0, 0), BuildingBlock: CIFDUS_clean_linker_0, # of connection points: 2
#     Edge 172, Type (0, 0), BuildingBlock: CIFDUS_clean_linker_0, # of connection points: 2
#     Edge 173, Type (0, 0), BuildingBlock: CIFDUS_clean_linker_0, # of connection points: 2
#     Edge 174, Type (0, 0), BuildingBlock: CIFDUS_clean_linker_0, # of connection points: 2
#     Edge 175, Type (0, 0), BuildingBlock: CIFDUS_clean_linker_0, # of connection points: 2
#     Edge 176, Type (0, 0), BuildingBlock: CIFDUS_clean_linker_0, # of connection points: 2
#     Edge 177, Type (0, 0), BuildingBlock: CIFDUS_clean_linker_0, # of connection points: 2
#     Edge 178, Type (0, 0), BuildingBlock: CIFDUS_clean_linker_0, # of connection points: 2
#     Edge 179, Type (0, 0), BuildingBlock: CIFDUS_clean_linker_0, # of connection points: 2
#     Edge 180, Type (0, 0), BuildingBlock: CIFDUS_clean_linker_0, # of connection points: 2
#     Edge 181, Type (0, 0), BuildingBlock: CIFDUS_clean_linker_0, # of connection points: 2
#     Edge 182, Type (0, 0), BuildingBlock: CIFDUS_clean_linker_0, # of connection points: 2
#     Edge 183, Type (0, 0), BuildingBlock: CIFDUS_clean_linker_0, # of connection points: 2
#     Edge 184, Type (0, 0), BuildingBlock: CIFDUS_clean_linker_0, # of connection points: 2
#     Edge 185, Type (0, 0), BuildingBlock: CIFDUS_clean_linker_0, # of connection points: 2
#     Edge 186, Type (0, 0), BuildingBlock: CIFDUS_clean_linker_0, # of connection points: 2
#     Edge 187, Type (0, 0), BuildingBlock: CIFDUS_clean_linker_0, # of connection points: 2
#     Edge 188, Type (0, 0), BuildingBlock: CIFDUS_clean_linker_0, # of connection points: 2
#     Edge 189, Type (0, 0), BuildingBlock: CIFDUS_clean_linker_0, # of connection points: 2
#     Edge 190, Type (0, 0), BuildingBlock: CIFDUS_clean_linker_0, # of connection points: 2
#     Edge 191, Type (0, 0), BuildingBlock: CIFDUS_clean_linker_0, # of connection points: 2
#     Edge 192, Type (0, 0), BuildingBlock: CIFDUS_clean_linker_0, # of connection points: 2
#     Edge 193, Type (0, 0), BuildingBlock: CIFDUS_clean_linker_0, # of connection points: 2
#     Edge 194, Type (0, 0), BuildingBlock: CIFDUS_clean_linker_0, # of connection points: 2
#     Edge 195, Type (0, 0), BuildingBlock: CIFDUS_clean_linker_0, # of connection points: 2
#     Edge 196, Type (0, 0), BuildingBlock: CIFDUS_clean_linker_0, # of connection points: 2
#     Edge 197, Type (0, 0), BuildingBlock: CIFDUS_clean_linker_0, # of connection points: 2
#     Edge 198, Type (0, 0), BuildingBlock: CIFDUS_clean_linker_0, # of connection points: 2
#     Edge 199, Type (0, 0), BuildingBlock: CIFDUS_clean_linker_0, # of connection points: 2
#     Edge 200, Type (0, 0), BuildingBlock: CIFDUS_clean_linker_0, # of connection points: 2
#     Edge 201, Type (0, 0), BuildingBlock: CIFDUS_clean_linker_0, # of connection points: 2
#     Edge 202, Type (0, 0), BuildingBlock: CIFDUS_clean_linker_0, # of connection points: 2
#     Edge 203, Type (0, 0), BuildingBlock: CIFDUS_clean_linker_0, # of connection points: 2
#     Edge 204, Type (0, 0), BuildingBlock: CIFDUS_clean_linker_0, # of connection points: 2
#     Edge 205, Type (0, 0), BuildingBlock: CIFDUS_clean_linker_0, # of connection points: 2
#     Edge 206, Type (0, 0), BuildingBlock: CIFDUS_clean_linker_0, # of connection points: 2
#     Edge 207, Type (0, 0), BuildingBlock: CIFDUS_clean_linker_0, # of connection points: 2
#     Edge 208, Type (0, 0), BuildingBlock: CIFDUS_clean_linker_0, # of connection points: 2
#     Edge 209, Type (0, 0), BuildingBlock: CIFDUS_clean_linker_0, # of connection points: 2
#     Edge 210, Type (0, 0), BuildingBlock: CIFDUS_clean_linker_0, # of connection points: 2
#     Edge 211, Type (0, 0), BuildingBlock: CIFDUS_clean_linker_0, # of connection points: 2
#     Edge 212, Type (0, 0), BuildingBlock: CIFDUS_clean_linker_0, # of connection points: 2
#     Edge 213, Type (0, 0), BuildingBlock: CIFDUS_clean_linker_0, # of connection points: 2
#     Edge 214, Type (0, 0), BuildingBlock: CIFDUS_clean_linker_0, # of connection points: 2
#     Edge 215, Type (0, 0), BuildingBlock: CIFDUS_clean_linker_0, # of connection points: 2
#     Edge 216, Type (0, 0), BuildingBlock: CIFDUS_clean_linker_0, # of connection points: 2
#     Edge 217, Type (0, 0), BuildingBlock: CIFDUS_clean_linker_0, # of connection points: 2
#     Edge 218, Type (0, 0), BuildingBlock: CIFDUS_clean_linker_0, # of connection points: 2
#     Edge 219, Type (0, 0), BuildingBlock: CIFDUS_clean_linker_0, # of connection points: 2
#     Edge 220, Type (0, 0), BuildingBlock: CIFDUS_clean_linker_0, # of connection points: 2
#     Edge 221, Type (0, 0), BuildingBlock: CIFDUS_clean_linker_0, # of connection points: 2
#     Edge 222, Type (0, 0), BuildingBlock: CIFDUS_clean_linker_0, # of connection points: 2
#     Edge 223, Type (0, 0), BuildingBlock: CIFDUS_clean_linker_0, # of connection points: 2
#     Edge 224, Type (0, 0), BuildingBlock: CIFDUS_clean_linker_0, # of connection points: 2
#     Edge 225, Type (0, 0), BuildingBlock: CIFDUS_clean_linker_0, # of connection points: 2
#     Edge 226, Type (0, 0), BuildingBlock: CIFDUS_clean_linker_0, # of connection points: 2
#     Edge 227, Type (0, 0), BuildingBlock: CIFDUS_clean_linker_0, # of connection points: 2
#     Edge 228, Type (0, 0), BuildingBlock: CIFDUS_clean_linker_0, # of connection points: 2
#     Edge 229, Type (0, 0), BuildingBlock: CIFDUS_clean_linker_0, # of connection points: 2
#     Edge 230, Type (0, 0), BuildingBlock: CIFDUS_clean_linker_0, # of connection points: 2
#     Edge 231, Type (0, 0), BuildingBlock: CIFDUS_clean_linker_0, # of connection points: 2
#     Edge 232, Type (0, 0), BuildingBlock: CIFDUS_clean_linker_0, # of connection points: 2
#     Edge 233, Type (0, 0), BuildingBlock: CIFDUS_clean_linker_0, # of connection points: 2
#     Edge 234, Type (0, 0), BuildingBlock: CIFDUS_clean_linker_0, # of connection points: 2
#     Edge 235, Type (0, 0), BuildingBlock: CIFDUS_clean_linker_0, # of connection points: 2
#     Edge 236, Type (0, 0), BuildingBlock: CIFDUS_clean_linker_0, # of connection points: 2
#     Edge 237, Type (0, 0), BuildingBlock: CIFDUS_clean_linker_0, # of connection points: 2
#     Edge 238, Type (0, 0), BuildingBlock: CIFDUS_clean_linker_0, # of connection points: 2
#     Edge 239, Type (0, 0), BuildingBlock: CIFDUS_clean_linker_0, # of connection points: 2
#     Edge 240, Type (0, 0), BuildingBlock: CIFDUS_clean_linker_0, # of connection points: 2
#     Edge 241, Type (0, 0), BuildingBlock: CIFDUS_clean_linker_0, # of connection points: 2
#     Edge 242, Type (0, 0), BuildingBlock: CIFDUS_clean_linker_0, # of connection points: 2
#     Edge 243, Type (0, 0), BuildingBlock: CIFDUS_clean_linker_0, # of connection points: 2
#     Edge 244, Type (0, 0), BuildingBlock: CIFDUS_clean_linker_0, # of connection points: 2
#     Edge 245, Type (0, 0), BuildingBlock: CIFDUS_clean_linker_0, # of connection points: 2
#     Edge 246, Type (0, 0), BuildingBlock: CIFDUS_clean_linker_0, # of connection points: 2
#     Edge 247, Type (0, 0), BuildingBlock: CIFDUS_clean_linker_0, # of connection points: 2
#     Edge 248, Type (0, 0), BuildingBlock: CIFDUS_clean_linker_0, # of connection points: 2
#     Edge 249, Type (0, 0), BuildingBlock: CIFDUS_clean_linker_0, # of connection points: 2
#     Edge 250, Type (0, 0), BuildingBlock: CIFDUS_clean_linker_0, # of connection points: 2
#     Edge 251, Type (0, 0), BuildingBlock: CIFDUS_clean_linker_0, # of connection points: 2
#     Edge 252, Type (0, 0), BuildingBlock: CIFDUS_clean_linker_0, # of connection points: 2
#     Edge 253, Type (0, 0), BuildingBlock: CIFDUS_clean_linker_0, # of connection points: 2
#     Edge 254, Type (0, 0), BuildingBlock: CIFDUS_clean_linker_0, # of connection points: 2
#     Edge 255, Type (0, 0), BuildingBlock: CIFDUS_clean_linker_0, # of connection points: 2
#     Edge 256, Type (0, 0), BuildingBlock: CIFDUS_clean_linker_0, # of connection points: 2
#     Edge 257, Type (0, 0), BuildingBlock: CIFDUS_clean_linker_0, # of connection points: 2
#     Edge 258, Type (0, 0), BuildingBlock: CIFDUS_clean_linker_0, # of connection points: 2
#     Edge 259, Type (0, 0), BuildingBlock: CIFDUS_clean_linker_0, # of connection points: 2
#     Edge 260, Type (0, 0), BuildingBlock: CIFDUS_clean_linker_0, # of connection points: 2
#     Edge 261, Type (0, 0), BuildingBlock: CIFDUS_clean_linker_0, # of connection points: 2
#     Edge 262, Type (0, 0), BuildingBlock: CIFDUS_clean_linker_0, # of connection points: 2
#     Edge 263, Type (0, 0), BuildingBlock: CIFDUS_clean_linker_0, # of connection points: 2
#     Edge 264, Type (0, 0), BuildingBlock: CIFDUS_clean_linker_0, # of connection points: 2
#     Edge 265, Type (0, 0), BuildingBlock: CIFDUS_clean_linker_0, # of connection points: 2
#     Edge 266, Type (0, 0), BuildingBlock: CIFDUS_clean_linker_0, # of connection points: 2
#     Edge 267, Type (0, 0), BuildingBlock: CIFDUS_clean_linker_0, # of connection points: 2
#     Edge 268, Type (0, 0), BuildingBlock: CIFDUS_clean_linker_0, # of connection points: 2
#     Edge 269, Type (0, 0), BuildingBlock: CIFDUS_clean_linker_0, # of connection points: 2
#     Edge 270, Type (0, 0), BuildingBlock: CIFDUS_clean_linker_0, # of connection points: 2
#     Edge 271, Type (0, 0), BuildingBlock: CIFDUS_clean_linker_0, # of connection points: 2
#     Edge 272, Type (0, 0), BuildingBlock: CIFDUS_clean_linker_0, # of connection points: 2
#     Edge 273, Type (0, 0), BuildingBlock: CIFDUS_clean_linker_0, # of connection points: 2
#     Edge 274, Type (0, 0), BuildingBlock: CIFDUS_clean_linker_0, # of connection points: 2
#     Edge 275, Type (0, 0), BuildingBlock: CIFDUS_clean_linker_0, # of connection points: 2
#     Edge 276, Type (0, 0), BuildingBlock: CIFDUS_clean_linker_0, # of connection points: 2
#     Edge 277, Type (0, 0), BuildingBlock: CIFDUS_clean_linker_0, # of connection points: 2
#     Edge 278, Type (0, 0), BuildingBlock: CIFDUS_clean_linker_0, # of connection points: 2
#     Edge 279, Type (0, 0), BuildingBlock: CIFDUS_clean_linker_0, # of connection points: 2
#     Edge 280, Type (0, 0), BuildingBlock: CIFDUS_clean_linker_0, # of connection points: 2
#     Edge 281, Type (0, 0), BuildingBlock: CIFDUS_clean_linker_0, # of connection points: 2
#     Edge 282, Type (0, 0), BuildingBlock: CIFDUS_clean_linker_0, # of connection points: 2
#     Edge 283, Type (0, 0), BuildingBlock: CIFDUS_clean_linker_0, # of connection points: 2
#     Edge 284, Type (0, 0), BuildingBlock: CIFDUS_clean_linker_0, # of connection points: 2
#     Edge 285, Type (0, 0), BuildingBlock: CIFDUS_clean_linker_0, # of connection points: 2
#     Edge 286, Type (0, 0), BuildingBlock: CIFDUS_clean_linker_0, # of connection points: 2
#     Edge 287, Type (0, 0), BuildingBlock: CIFDUS_clean_linker_0, # of connection points: 2
# Relax obj value: 0.145
# Max RMSD: 0.099
# Mean RMSD: 0.099
data_MOF--net-kfi--node1-GALJAG_clean_sbu_0--edge1-CIFDUS_clean_linker_0
_symmetry_space_group_name_H-M    P1
_symmetry_Int_Tables_number       1
_symmetry_cell_setting            triclinic
loop_
_symmetry_equiv_pos_as_xyz
'x, y, z'
_cell_length_a     78.835158
_cell_length_b     78.80855
_cell_length_c     78.800186
_cell_angle_alpha  89.994216
_cell_angle_beta   90.0036
_cell_angle_gamma 90.023661
loop_
_atom_site_label
_atom_site_type_symbol
_atom_site_fract_x
_atom_site_fract_y
_atom_site_fract_z
_atom_type_partial_charge
In0 In 0.08297 0.20235 0.32206 0.0
O1 O 0.09614 0.18206 0.30619 0.0
O2 O 0.09422 0.17773 0.33271 0.0
C3 C 0.07936 0.22644 0.29795 0.0
C4 C 0.10427 0.22005 0.34236 0.0
C5 C 0.05023 0.19377 0.32805 0.0
O6 O 0.08702 0.21266 0.2952 0.0
O7 O 0.07333 0.22789 0.31268 0.0
O8 O 0.05973 0.2 0.33935 0.0
O9 O 0.05744 0.19126 0.31398 0.0
C10 C 0.09966 0.17253 0.31856 0.0
O11 O 0.08926 0.21655 0.34676 0.0
O12 O 0.10849 0.21433 0.32804 0.0
In13 In 0.79447 0.08652 0.31999 0.0
O14 O 0.77913 0.09299 0.3438 0.0
O15 O 0.78075 0.11155 0.32433 0.0
C16 C 0.8008 0.05342 0.32677 0.0
C17 C 0.82474 0.10274 0.32187 0.0
C18 C 0.77414 0.0838 0.29244 0.0
O19 O 0.79225 0.06281 0.33649 0.0
O20 O 0.80663 0.06084 0.31382 0.0
O21 O 0.78863 0.0906 0.29173 0.0
O22 O 0.77011 0.07825 0.30689 0.0
C23 C 0.77495 0.10759 0.33871 0.0
O24 O 0.81721 0.10002 0.30801 0.0
O25 O 0.81728 0.0968 0.33473 0.0
In26 In 0.91861 0.80349 0.3232 0.0
O27 O 0.90445 0.82564 0.3108 0.0
O28 O 0.90832 0.8266 0.33737 0.0
C29 C 0.91944 0.78463 0.29428 0.0
C30 C 0.90317 0.78182 0.34474 0.0
C31 C 0.95112 0.81017 0.33121 0.0
O32 O 0.93206 0.79269 0.29977 0.0
O33 O 0.90625 0.7864 0.30308 0.0
O34 O 0.94391 0.81656 0.31839 0.0
O35 O 0.94171 0.80093 0.34032 0.0
C36 C 0.90193 0.83354 0.32448 0.0
O37 O 0.91911 0.78317 0.34399 0.0
O38 O 0.89518 0.79143 0.33477 0.0
In39 In 0.20016 0.91582 0.31875 0.0
O40 O 0.21413 0.91386 0.34417 0.0
O41 O 0.21509 0.89271 0.32751 0.0
C42 C 0.19035 0.94868 0.32058 0.0
C43 C 0.17131 0.89727 0.32028 0.0
C44 C 0.22202 0.917 0.29236 0.0
O45 O 0.19818 0.9413 0.33243 0.0
O46 O 0.18714 0.9394 0.30796 0.0
O47 O 0.20768 0.90995 0.29133 0.0
O48 O 0.22522 0.92355 0.30661 0.0
C49 C 0.21952 0.89902 0.34153 0.0
O50 O 0.1804 0.89813 0.30714 0.0
O51 O 0.17653 0.90613 0.33254 0.0
In52 In 0.08244 0.80568 0.67987 0.0
O53 O 0.08672 0.79459 0.6534 0.0
O54 O 0.105 0.78919 0.67242 0.0
C55 C 0.0498 0.8154 0.67527 0.0
C56 C 0.10224 0.8336 0.68361 0.0
C57 C 0.07774 0.78164 0.70385 0.0
O58 O 0.05884 0.80945 0.66351 0.0
O59 O 0.05746 0.81723 0.6892 0.0
O60 O 0.08482 0.79566 0.70702 0.0
O61 O 0.07297 0.77985 0.68868 0.0
C62 C 0.10028 0.78704 0.65728 0.0
O63 O 0.0994 0.82325 0.69546 0.0
O64 O 0.09468 0.83019 0.66993 0.0
In65 In 0.20023 0.08567 0.68527 0.0
O66 O 0.17827 0.10121 0.69593 0.0
O67 O 0.17758 0.09471 0.66976 0.0
C68 C 0.22095 0.08367 0.71244 0.0
C69 C 0.22012 0.10529 0.66551 0.0
C70 C 0.1918 0.05269 0.68147 0.0
O71 O 0.20673 0.09103 0.71312 0.0
O72 O 0.22449 0.07726 0.69822 0.0
O73 O 0.2002 0.06077 0.67048 0.0
O74 O 0.1873 0.06138 0.69415 0.0
C75 C 0.17057 0.1024 0.68192 0.0
O76 O 0.21653 0.09015 0.66163 0.0
O77 O 0.21361 0.11042 0.67919 0.0
In78 In 0.91817 0.20063 0.67893 0.0
O79 O 0.90269 0.18212 0.69482 0.0
O80 O 0.90619 0.17621 0.66878 0.0
C81 C 0.92125 0.22574 0.70206 0.0
C82 C 0.90066 0.21759 0.65487 0.0
C83 C 0.95057 0.18971 0.67679 0.0
O84 O 0.91248 0.21261 0.70471 0.0
O85 O 0.92852 0.22615 0.68781 0.0
O86 O 0.94307 0.19689 0.66461 0.0
O87 O 0.94158 0.18767 0.68986 0.0
C88 C 0.89969 0.17202 0.68279 0.0
O89 O 0.91499 0.21103 0.652 0.0
O90 O 0.89513 0.21533 0.66972 0.0
In91 In 0.79923 0.91565 0.68289 0.0
O92 O 0.78669 0.9128 0.65683 0.0
O93 O 0.78421 0.89252 0.67445 0.0
C94 C 0.81019 0.94807 0.68143 0.0
C95 C 0.82782 0.89673 0.68325 0.0
C96 C 0.77538 0.91974 0.7071 0.0
O97 O 0.80278 0.94091 0.66916 0.0
O98 O 0.81255 0.93869 0.69419 0.0
O99 O 0.789 0.91176 0.70989 0.0
O100 O 0.77391 0.92549 0.69224 0.0
C101 C 0.78068 0.89826 0.65993 0.0
O102 O 0.81774 0.89734 0.6957 0.0
O103 O 0.82363 0.9059 0.67082 0.0
In104 In 0.31506 0.08469 0.20456 0.0
O105 O 0.30466 0.09778 0.18089 0.0
O106 O 0.33125 0.09347 0.18229 0.0
C107 C 0.28769 0.08351 0.22514 0.0
C108 C 0.33395 0.10622 0.22336 0.0
C109 C 0.31867 0.05145 0.19704 0.0
O110 O 0.28731 0.09076 0.21084 0.0
O111 O 0.30174 0.07679 0.22885 0.0
O112 O 0.32943 0.05941 0.20589 0.0
O113 O 0.30641 0.06033 0.19188 0.0
C114 C 0.31901 0.09951 0.17394 0.0
O115 O 0.33858 0.09108 0.22068 0.0
O116 O 0.32002 0.11024 0.21661 0.0
In117 In 0.92328 0.328 0.20507 0.0
O118 O 0.90863 0.31426 0.18417 0.0
O119 O 0.91284 0.34068 0.18121 0.0
C120 C 0.9263 0.30244 0.22774 0.0
C121 C 0.90411 0.34946 0.22353 0.0
C122 C 0.95598 0.33336 0.19661 0.0
O123 O 0.91839 0.30076 0.21391 0.0
O124 O 0.93276 0.3169 0.23 0.0
O125 O 0.94705 0.34428 0.20413 0.0
O126 O 0.94829 0.3198 0.19294 0.0
C127 C 0.90628 0.32735 0.17527 0.0
O128 O 0.9187 0.35333 0.21824 0.0
O129 O 0.89913 0.33483 0.21937 0.0
In130 In 0.67714 0.91706 0.2016 0.0
O131 O 0.69004 0.90252 0.18017 0.0
O132 O 0.66334 0.9063 0.17866 0.0
C133 C 0.702 0.92189 0.22456 0.0
C134 C 0.65834 0.8958 0.22064 0.0
C135 C 0.67315 0.94943 0.19144 0.0
O136 O 0.7043 0.91325 0.21123 0.0
O137 O 0.68735 0.92813 0.22607 0.0
O138 O 0.6619 0.94171 0.19991 0.0
O139 O 0.68598 0.94061 0.18772 0.0
C140 C 0.67645 0.89989 0.17205 0.0
O141 O 0.653 0.9104 0.21661 0.0
O142 O 0.67283 0.89213 0.21493 0.0
In143 In 0.08341 0.67525 0.20112 0.0
O144 O 0.09382 0.68952 0.17819 0.0
O145 O 0.0963 0.66276 0.17812 0.0
C146 C 0.083 0.70232 0.22221 0.0
C147 C 0.10279 0.65392 0.21978 0.0
C148 C 0.04996 0.6697 0.19521 0.0
O149 O 0.09179 0.70186 0.20885 0.0
O150 O 0.07433 0.68914 0.22492 0.0
O151 O 0.05904 0.65969 0.20376 0.0
O152 O 0.05784 0.68224 0.18918 0.0
C153 C 0.09929 0.67657 0.17059 0.0
O154 O 0.08917 0.64925 0.21277 0.0
O155 O 0.10673 0.66921 0.21715 0.0
In156 In 0.31695 0.9138 0.80091 0.0
O157 O 0.30282 0.90045 0.82243 0.0
O158 O 0.32957 0.90222 0.82445 0.0
C159 C 0.29051 0.91718 0.77922 0.0
C160 C 0.33642 0.89339 0.78139 0.0
C161 C 0.32472 0.94636 0.80879 0.0
O162 O 0.289 0.91033 0.79361 0.0
O163 O 0.30521 0.92254 0.77594 0.0
O164 O 0.33518 0.93628 0.80213 0.0
O165 O 0.31042 0.93991 0.81197 0.0
C166 C 0.31592 0.89685 0.83086 0.0
O167 O 0.34074 0.90832 0.78522 0.0
O168 O 0.32245 0.8887 0.78761 0.0
In169 In 0.07916 0.31636 0.80094 0.0
O170 O 0.08615 0.34142 0.78765 0.0
O171 O 0.10399 0.32123 0.7873 0.0
C172 C 0.04615 0.32166 0.80899 0.0
C173 C 0.09638 0.31487 0.83058 0.0
C174 C 0.07633 0.29014 0.77906 0.0
O175 O 0.05441 0.33173 0.79967 0.0
O176 O 0.05468 0.30937 0.81461 0.0
O177 O 0.08261 0.28855 0.79368 0.0
O178 O 0.0712 0.30488 0.77556 0.0
C179 C 0.10051 0.33617 0.78281 0.0
O180 O 0.0931 0.30199 0.82168 0.0
O181 O 0.0905 0.32863 0.8248 0.0
In182 In 0.68598 0.08551 0.80297 0.0
O183 O 0.66119 0.09082 0.78868 0.0
O184 O 0.67982 0.11035 0.78996 0.0
C185 C 0.68267 0.0531 0.81338 0.0
C186 C 0.68586 0.10317 0.8323 0.0
C187 C 0.70976 0.08071 0.77885 0.0
O188 O 0.67097 0.06083 0.80559 0.0
O189 O 0.69569 0.06193 0.81639 0.0
O190 O 0.71293 0.08891 0.79229 0.0
O191 O 0.69487 0.07499 0.77784 0.0
C192 C 0.66547 0.10575 0.7846 0.0
O193 O 0.69904 0.10168 0.82327 0.0
O194 O 0.67302 0.09537 0.82675 0.0
In195 In 0.91553 0.67112 0.80002 0.0
O196 O 0.9115 0.64604 0.78595 0.0
O197 O 0.89219 0.66471 0.78412 0.0
C198 C 0.94903 0.6672 0.80666 0.0
C199 C 0.89878 0.66891 0.83002 0.0
C200 C 0.91603 0.69921 0.78032 0.0
O201 O 0.94062 0.65682 0.79787 0.0
O202 O 0.94043 0.6793 0.81263 0.0
O203 O 0.90793 0.69847 0.7941 0.0
O204 O 0.92387 0.6858 0.77649 0.0
C205 C 0.89726 0.65013 0.77991 0.0
O206 O 0.90168 0.6828 0.82266 0.0
O207 O 0.90478 0.65611 0.82252 0.0
In208 In 0.20266 0.31627 0.08164 0.0
O209 O 0.21606 0.34132 0.08809 0.0
O210 O 0.21653 0.32135 0.10625 0.0
C211 C 0.191 0.32152 0.04988 0.0
C212 C 0.17426 0.31357 0.10037 0.0
C213 C 0.22603 0.29201 0.07584 0.0
O214 O 0.19968 0.3325 0.05769 0.0
O215 O 0.18792 0.30824 0.05826 0.0
O216 O 0.21242 0.28914 0.08378 0.0
O217 O 0.22773 0.30706 0.07068 0.0
C218 C 0.22095 0.33626 0.10252 0.0
O219 O 0.18352 0.301 0.09684 0.0
O220 O 0.17908 0.32749 0.09405 0.0
In221 In 0.20253 0.68912 0.91581 0.0
O222 O 0.21293 0.66228 0.9115 0.0
O223 O 0.21857 0.68114 0.89312 0.0
C224 C 0.19319 0.68527 0.94867 0.0
C225 C 0.17324 0.69207 0.89809 0.0
C226 C 0.22557 0.71449 0.91761 0.0
O227 O 0.20176 0.67434 0.94075 0.0
O228 O 0.18907 0.69803 0.93995 0.0
O229 O 0.21237 0.71537 0.90862 0.0
O230 O 0.22715 0.70082 0.9258 0.0
C231 C 0.22035 0.66594 0.89779 0.0
O232 O 0.18237 0.70457 0.90207 0.0
O233 O 0.1787 0.67796 0.9033 0.0
In234 In 0.31307 0.20317 0.91425 0.0
O235 O 0.29935 0.18432 0.89737 0.0
O236 O 0.32509 0.17898 0.90312 0.0
C237 C 0.28671 0.22516 0.91543 0.0
C238 C 0.33625 0.22278 0.89804 0.0
C239 C 0.31516 0.19151 0.94656 0.0
O240 O 0.28621 0.21141 0.9073 0.0
O241 O 0.30053 0.22787 0.92304 0.0
O242 O 0.3277 0.19788 0.93893 0.0
O243 O 0.30182 0.19073 0.93781 0.0
C244 C 0.3118 0.17452 0.89535 0.0
O245 O 0.33725 0.21951 0.91369 0.0
O246 O 0.32377 0.21603 0.89066 0.0
In247 In 0.80148 0.32968 0.91919 0.0
O248 O 0.78701 0.35449 0.91489 0.0
O249 O 0.7844 0.33496 0.8965 0.0
C250 C 0.80921 0.3345 0.95233 0.0
C251 C 0.83061 0.33233 0.9011 0.0
C252 C 0.78223 0.3013 0.92056 0.0
O253 O 0.79973 0.34437 0.94407 0.0
O254 O 0.81526 0.32244 0.94376 0.0
O255 O 0.796 0.30199 0.91242 0.0
O256 O 0.77827 0.31485 0.9281 0.0
C257 C 0.78029 0.34971 0.90116 0.0
O258 O 0.82412 0.31829 0.90516 0.0
O259 O 0.82271 0.34509 0.90661 0.0
In260 In 0.68407 0.79947 0.91845 0.0
O261 O 0.65711 0.78943 0.91353 0.0
O262 O 0.67637 0.78352 0.89567 0.0
C263 C 0.68127 0.80789 0.95167 0.0
C264 C 0.6862 0.82917 0.90141 0.0
C265 C 0.71027 0.77734 0.91922 0.0
O266 O 0.67114 0.7978 0.94447 0.0
O267 O 0.69247 0.81399 0.94204 0.0
O268 O 0.7105 0.79077 0.91054 0.0
O269 O 0.69681 0.77505 0.92759 0.0
C270 C 0.66102 0.78199 0.89988 0.0
O271 O 0.69892 0.82017 0.90496 0.0
O272 O 0.67225 0.82335 0.9067 0.0
In273 In 0.80152 0.67632 0.0831 0.0
O274 O 0.82157 0.69011 0.09871 0.0
O275 O 0.82572 0.66402 0.09313 0.0
C276 C 0.77816 0.70093 0.07874 0.0
C277 C 0.78345 0.65625 0.10417 0.0
C278 C 0.81144 0.67256 0.05052 0.0
O279 O 0.79215 0.70366 0.08607 0.0
O280 O 0.77611 0.68592 0.07359 0.0
O281 O 0.80333 0.66112 0.05832 0.0
O282 O 0.81492 0.68545 0.05933 0.0
C283 C 0.83097 0.67726 0.1005 0.0
O284 O 0.78731 0.65155 0.08931 0.0
O285 O 0.78887 0.67075 0.10821 0.0
In286 In 0.31287 0.79941 0.08726 0.0
O287 O 0.29763 0.81847 0.10295 0.0
O288 O 0.32371 0.82375 0.0987 0.0
C289 C 0.28954 0.77482 0.08192 0.0
C290 C 0.33407 0.78138 0.10727 0.0
C291 C 0.31768 0.81027 0.05506 0.0
O292 O 0.28619 0.78804 0.09035 0.0
O293 O 0.30443 0.7742 0.07616 0.0
O294 O 0.32926 0.80324 0.06361 0.0
O295 O 0.3039 0.81232 0.06296 0.0
C296 C 0.31003 0.82825 0.10569 0.0
O297 O 0.33823 0.78609 0.09252 0.0
O298 O 0.31946 0.78594 0.11186 0.0
In299 In 0.68677 0.19836 0.08369 0.0
O300 O 0.66127 0.21168 0.08834 0.0
O301 O 0.67958 0.21156 0.10817 0.0
C302 C 0.68418 0.18818 0.05102 0.0
C303 C 0.68882 0.16962 0.10226 0.0
C304 C 0.71054 0.2227 0.07989 0.0
O305 O 0.6721 0.19536 0.05871 0.0
O306 O 0.69713 0.18553 0.06002 0.0
O307 O 0.71368 0.20872 0.08706 0.0
O308 O 0.69553 0.22427 0.07462 0.0
C309 C 0.66511 0.21626 0.10324 0.0
O310 O 0.70125 0.17948 0.10008 0.0
O311 O 0.67543 0.17396 0.0946 0.0
In312 In 0.91825 0.7969 0.687 0.0
O313 O 0.90052 0.81355 0.70265 0.0
O314 O 0.90571 0.8213 0.6774 0.0
C315 C 0.92215 0.77143 0.70962 0.0
C316 C 0.90185 0.77916 0.66262 0.0
C317 C 0.95007 0.80974 0.68575 0.0
O318 O 0.91324 0.78437 0.71267 0.0
O319 O 0.92926 0.77146 0.69528 0.0
O320 O 0.94277 0.80353 0.67293 0.0
O321 O 0.94118 0.80984 0.69905 0.0
C322 C 0.89782 0.8242 0.69103 0.0
O323 O 0.89579 0.78177 0.67719 0.0
O324 O 0.91622 0.78578 0.66011 0.0
In325 In 0.20523 0.9198 0.67421 0.0
O326 O 0.21815 0.91491 0.64869 0.0
O327 O 0.21933 0.89554 0.66739 0.0
C328 C 0.19727 0.95282 0.6696 0.0
C329 C 0.17533 0.90282 0.67447 0.0
C330 C 0.22792 0.9228 0.6998 0.0
O331 O 0.20507 0.94417 0.65864 0.0
O332 O 0.19303 0.94469 0.68273 0.0
O333 O 0.21355 0.91602 0.7019 0.0
O334 O 0.23067 0.92808 0.68496 0.0
C335 C 0.22342 0.90033 0.65267 0.0
O336 O 0.18475 0.90392 0.68737 0.0
O337 O 0.18081 0.91057 0.66159 0.0
In338 In 0.08246 0.20366 0.67583 0.0
O339 O 0.09734 0.18584 0.69293 0.0
O340 O 0.09509 0.17891 0.66703 0.0
C341 C 0.07652 0.2272 0.70001 0.0
C342 C 0.10243 0.22152 0.65443 0.0
C343 C 0.05039 0.19354 0.66908 0.0
O344 O 0.08379 0.21328 0.70304 0.0
O345 O 0.07213 0.22925 0.68476 0.0
O346 O 0.05945 0.20124 0.65839 0.0
O347 O 0.05768 0.19048 0.68298 0.0
C348 C 0.101 0.17533 0.68147 0.0
O349 O 0.089 0.21429 0.6496 0.0
O350 O 0.10591 0.21946 0.66992 0.0
In351 In 0.80118 0.08158 0.67943 0.0
O352 O 0.78431 0.08378 0.65601 0.0
O353 O 0.78691 0.10559 0.67157 0.0
C354 C 0.80887 0.04847 0.67434 0.0
C355 C 0.83096 0.09853 0.677 0.0
C356 C 0.78181 0.08162 0.70777 0.0
O357 O 0.80211 0.0577 0.66319 0.0
O358 O 0.81219 0.05602 0.68805 0.0
O359 O 0.79587 0.08919 0.70691 0.0
O360 O 0.77759 0.07389 0.6944 0.0
C361 C 0.78037 0.09908 0.6585 0.0
O362 O 0.82371 0.09563 0.69095 0.0
O363 O 0.82348 0.0924 0.66427 0.0
In364 In 0.9169 0.2007 0.31625 0.0
O365 O 0.90203 0.18086 0.30138 0.0
O366 O 0.90367 0.17742 0.32798 0.0
C367 C 0.91903 0.22335 0.29055 0.0
C368 C 0.89932 0.21973 0.33884 0.0
C369 C 0.94981 0.19094 0.3193 0.0
O370 O 0.91034 0.20994 0.2896 0.0
O371 O 0.92675 0.22531 0.30444 0.0
O372 O 0.94222 0.19932 0.33062 0.0
O373 O 0.94067 0.18704 0.30678 0.0
C374 C 0.89787 0.17206 0.31405 0.0
O375 O 0.91279 0.21203 0.34282 0.0
O376 O 0.8947 0.2176 0.32367 0.0
In377 In 0.79886 0.91921 0.31877 0.0
O378 O 0.81987 0.90621 0.30392 0.0
O379 O 0.82271 0.9073 0.33065 0.0
C380 C 0.77719 0.91873 0.29217 0.0
C381 C 0.78116 0.90154 0.34242 0.0
C382 C 0.80642 0.95272 0.32127 0.0
O383 O 0.79029 0.9096 0.29287 0.0
O384 O 0.77495 0.92813 0.30493 0.0
O385 O 0.79658 0.94529 0.33146 0.0
O386 O 0.81277 0.94319 0.31012 0.0
C387 C 0.8287 0.90232 0.31665 0.0
O388 O 0.78909 0.915 0.34596 0.0
O389 O 0.78235 0.897 0.32713 0.0
In390 In 0.08314 0.79539 0.32018 0.0
O391 O 0.08681 0.78558 0.34734 0.0
O392 O 0.10555 0.77953 0.32897 0.0
C393 C 0.05115 0.80737 0.3231 0.0
C394 C 0.10275 0.82321 0.31579 0.0
C395 C 0.07886 0.77079 0.29664 0.0
O396 O 0.05824 0.79879 0.33459 0.0
O397 O 0.06031 0.81023 0.3103 0.0
O398 O 0.08815 0.78359 0.2942 0.0
O399 O 0.07161 0.77046 0.3109 0.0
C400 C 0.10057 0.77807 0.3441 0.0
O401 O 0.09952 0.81285 0.30403 0.0
O402 O 0.09586 0.81971 0.32982 0.0
In403 In 0.19839 0.08186 0.32686 0.0
O404 O 0.17772 0.09752 0.3136 0.0
O405 O 0.17454 0.09203 0.33975 0.0
C406 C 0.22157 0.0787 0.30175 0.0
C407 C 0.21716 0.10078 0.3484 0.0
C408 C 0.19016 0.04885 0.33134 0.0
O409 O 0.20761 0.08627 0.2995 0.0
O410 O 0.22361 0.07274 0.31645 0.0
O411 O 0.19709 0.05773 0.3427 0.0
O412 O 0.18677 0.05679 0.31784 0.0
C413 C 0.1688 0.0994 0.32677 0.0
O414 O 0.21147 0.08634 0.35237 0.0
O415 O 0.21319 0.10571 0.3337 0.0
In416 In 0.68126 0.91966 0.80349 0.0
O417 O 0.69278 0.90639 0.82647 0.0
O418 O 0.66599 0.90879 0.82564 0.0
C419 C 0.7091 0.92112 0.78355 0.0
C420 C 0.66262 0.89919 0.78336 0.0
C421 C 0.67495 0.95274 0.81024 0.0
O422 O 0.70935 0.91451 0.79813 0.0
O423 O 0.69499 0.9273 0.77927 0.0
O424 O 0.66475 0.94343 0.80217 0.0
O425 O 0.68817 0.94527 0.81529 0.0
C426 C 0.67876 0.90314 0.83345 0.0
O427 O 0.65803 0.91409 0.78703 0.0
O428 O 0.67644 0.89463 0.78999 0.0
In429 In 0.08154 0.68787 0.80068 0.0
O430 O 0.0967 0.69957 0.82235 0.0
O431 O 0.09204 0.67305 0.8233 0.0
C432 C 0.07936 0.71526 0.78019 0.0
C433 C 0.10156 0.66826 0.78096 0.0
C434 C 0.04864 0.68288 0.80915 0.0
O435 O 0.08598 0.71594 0.79476 0.0
O436 O 0.07364 0.70088 0.77612 0.0
O437 O 0.05694 0.67246 0.80028 0.0
O438 O 0.05703 0.6956 0.81404 0.0
C439 C 0.09903 0.68576 0.83009 0.0
O440 O 0.08667 0.66389 0.78501 0.0
O441 O 0.10622 0.68237 0.78688 0.0
In442 In 0.32315 0.07963 0.80072 0.0
O443 O 0.34938 0.08249 0.78828 0.0
O444 O 0.33119 0.10203 0.78459 0.0
C445 C 0.32387 0.04706 0.8115 0.0
C446 C 0.32308 0.09912 0.82896 0.0
C447 C 0.29811 0.0769 0.77752 0.0
O448 O 0.33596 0.05368 0.80335 0.0
O449 O 0.3118 0.05704 0.81473 0.0
O450 O 0.29633 0.08526 0.79108 0.0
O451 O 0.3124 0.06992 0.77581 0.0
C452 C 0.34589 0.09658 0.78146 0.0
O453 O 0.31026 0.09735 0.81955 0.0
O454 O 0.33591 0.0907 0.82438 0.0
In455 In 0.91287 0.32246 0.79593 0.0
O456 O 0.90236 0.30899 0.81916 0.0
O457 O 0.90157 0.33592 0.81917 0.0
C458 C 0.91528 0.29482 0.77573 0.0
C459 C 0.89035 0.3404 0.77723 0.0
C460 C 0.94589 0.32987 0.80209 0.0
O461 O 0.9079 0.29455 0.78992 0.0
O462 O 0.92164 0.30898 0.77181 0.0
O463 O 0.93646 0.33936 0.79328 0.0
O464 O 0.93853 0.31701 0.80812 0.0
C465 C 0.89799 0.32231 0.82686 0.0
O466 O 0.90505 0.34593 0.78044 0.0
O467 O 0.88708 0.32612 0.78362 0.0
In468 In 0.67246 0.08246 0.20332 0.0
O469 O 0.6466 0.08855 0.21479 0.0
O470 O 0.66636 0.10656 0.21817 0.0
C471 C 0.66602 0.04967 0.19556 0.0
C472 C 0.67436 0.09949 0.1735 0.0
C473 C 0.69748 0.07852 0.22651 0.0
O474 O 0.65575 0.0589 0.2036 0.0
O475 O 0.67945 0.05709 0.19098 0.0
O476 O 0.69997 0.08572 0.21241 0.0
O477 O 0.68255 0.07324 0.22872 0.0
C478 C 0.65114 0.10256 0.22106 0.0
O479 O 0.68704 0.09728 0.183 0.0
O480 O 0.66086 0.09278 0.17883 0.0
In481 In 0.91694 0.68507 0.20295 0.0
O482 O 0.9014 0.7005 0.18403 0.0
O483 O 0.90703 0.67496 0.1776 0.0
C484 C 0.9132 0.71157 0.22465 0.0
C485 C 0.90356 0.65931 0.22129 0.0
C486 C 0.94972 0.68087 0.19361 0.0
O487 O 0.90108 0.70216 0.22024 0.0
O488 O 0.92722 0.70775 0.21803 0.0
O489 O 0.94181 0.67002 0.20235 0.0
O490 O 0.94097 0.69354 0.18925 0.0
C491 C 0.89963 0.68856 0.17352 0.0
O492 O 0.91782 0.66572 0.22478 0.0
O493 O 0.89648 0.66551 0.20837 0.0
In494 In 0.32517 0.91786 0.20487 0.0
O495 O 0.31077 0.902 0.1852 0.0
O496 O 0.33641 0.90811 0.17992 0.0
C497 C 0.3002 0.92108 0.22816 0.0
C498 C 0.34713 0.89829 0.22247 0.0
C499 C 0.33019 0.95114 0.19797 0.0
O500 O 0.29766 0.91447 0.21378 0.0
O501 O 0.31519 0.92608 0.23064 0.0
O502 O 0.34095 0.9421 0.20559 0.0
O503 O 0.31711 0.94324 0.19318 0.0
C504 C 0.32317 0.90047 0.1752 0.0
O505 O 0.35153 0.91197 0.21541 0.0
O506 O 0.33177 0.89434 0.22037 0.0
In507 In 0.08873 0.32238 0.20332 0.0
O508 O 0.11166 0.33066 0.21878 0.0
O509 O 0.09094 0.34779 0.21726 0.0
C510 C 0.05594 0.3245 0.19374 0.0
C511 C 0.10607 0.32363 0.17379 0.0
C512 C 0.08771 0.29536 0.22435 0.0
O513 O 0.06326 0.336 0.20211 0.0
O514 O 0.06525 0.31208 0.18992 0.0
O515 O 0.09654 0.29559 0.21101 0.0
O516 O 0.07943 0.30878 0.22711 0.0
C517 C 0.10557 0.34483 0.22304 0.0
O518 O 0.10419 0.31017 0.18222 0.0
O519 O 0.09904 0.33651 0.18014 0.0
In520 In 0.79793 0.67471 0.91805 0.0
O521 O 0.81923 0.68986 0.90565 0.0
O522 O 0.82143 0.66301 0.90562 0.0
C523 C 0.77526 0.69994 0.92316 0.0
C524 C 0.77901 0.65606 0.89643 0.0
C525 C 0.80676 0.66668 0.95023 0.0
O526 O 0.78885 0.70215 0.91499 0.0
O527 O 0.77329 0.68515 0.92891 0.0
O528 O 0.79922 0.65639 0.94054 0.0
O529 O 0.81036 0.68074 0.94348 0.0
C530 C 0.8277 0.67705 0.90113 0.0
O531 O 0.7828 0.65089 0.91112 0.0
O532 O 0.785 0.67039 0.89264 0.0
In533 In 0.80739 0.31652 0.0851 0.0
O534 O 0.79731 0.34325 0.09031 0.0
O535 O 0.78986 0.32354 0.10707 0.0
C536 C 0.8156 0.32114 0.052 0.0
C537 C 0.83593 0.31487 0.10412 0.0
C538 C 0.78634 0.28958 0.08282 0.0
O539 O 0.80564 0.33077 0.05995 0.0
O540 O 0.82179 0.30934 0.06083 0.0
O541 O 0.80088 0.28868 0.08941 0.0
O542 O 0.78245 0.30405 0.07719 0.0
C543 C 0.7888 0.33902 0.10319 0.0
O544 O 0.82637 0.30233 0.10155 0.0
O545 O 0.83135 0.32833 0.09676 0.0
In546 In 0.68548 0.7985 0.08528 0.0
O547 O 0.69985 0.82065 0.09702 0.0
O548 O 0.67299 0.82196 0.09714 0.0
C549 C 0.71261 0.77777 0.08222 0.0
C550 C 0.66656 0.77994 0.10707 0.0
C551 C 0.67737 0.80437 0.05238 0.0
O552 O 0.7135 0.79217 0.08911 0.0
O553 O 0.6981 0.77393 0.07666 0.0
O554 O 0.66837 0.79542 0.0621 0.0
O555 O 0.69023 0.81082 0.05938 0.0
C556 C 0.68682 0.82879 0.10141 0.0
O557 O 0.66072 0.78555 0.09325 0.0
O558 O 0.68178 0.78391 0.10995 0.0
In559 In 0.19959 0.67397 0.08189 0.0
O560 O 0.17576 0.68446 0.0948 0.0
O561 O 0.17866 0.65778 0.09396 0.0
C562 C 0.21852 0.70262 0.08272 0.0
C563 C 0.22097 0.65314 0.09874 0.0
C564 C 0.19302 0.67025 0.04835 0.0
O565 O 0.20508 0.70093 0.09126 0.0
O566 O 0.22231 0.68993 0.07374 0.0
O567 O 0.20142 0.65964 0.05684 0.0
O568 O 0.18739 0.68256 0.05689 0.0
C569 C 0.16987 0.67017 0.0989 0.0
O570 O 0.21445 0.64923 0.08466 0.0
O571 O 0.21658 0.66747 0.10438 0.0
In572 In 0.3181 0.19373 0.07968 0.0
O573 O 0.34223 0.20916 0.08501 0.0
O574 O 0.32361 0.20751 0.1044 0.0
C575 C 0.32443 0.18635 0.04668 0.0
C576 C 0.31592 0.1639 0.09659 0.0
C577 C 0.29147 0.21515 0.07785 0.0
O578 O 0.33568 0.1921 0.0565 0.0
O579 O 0.31032 0.18368 0.05369 0.0
O580 O 0.29074 0.20103 0.08532 0.0
O581 O 0.30562 0.21845 0.07114 0.0
C582 C 0.33773 0.21343 0.09978 0.0
O583 O 0.30323 0.17168 0.0908 0.0
O584 O 0.32999 0.17076 0.09321 0.0
In585 In 0.19753 0.32658 0.91747 0.0
O586 O 0.17565 0.31304 0.90408 0.0
O587 O 0.17397 0.33978 0.90716 0.0
C588 C 0.22047 0.30144 0.92146 0.0
C589 C 0.21594 0.34566 0.89594 0.0
C590 C 0.18987 0.33305 0.95018 0.0
O591 O 0.20648 0.29906 0.91399 0.0
O592 O 0.22262 0.31627 0.92703 0.0
O593 O 0.19738 0.34367 0.94083 0.0
O594 O 0.18569 0.31944 0.94283 0.0
C595 C 0.1673 0.32645 0.90131 0.0
O596 O 0.21222 0.35062 0.91072 0.0
O597 O 0.21014 0.33127 0.89202 0.0
In598 In 0.68658 0.2059 0.91864 0.0
O599 O 0.70341 0.18693 0.90466 0.0
O600 O 0.67727 0.18093 0.90712 0.0
C601 C 0.70982 0.23068 0.92376 0.0
C602 C 0.66553 0.22266 0.89734 0.0
C603 C 0.67954 0.19602 0.95079 0.0
O604 O 0.71338 0.21698 0.91629 0.0
O605 O 0.69469 0.23174 0.92879 0.0
O606 O 0.66864 0.20278 0.94122 0.0
O607 O 0.69385 0.19379 0.94399 0.0
C608 C 0.69157 0.1767 0.90129 0.0
O609 O 0.66123 0.21861 0.91223 0.0
O610 O 0.68029 0.21811 0.89321 0.0
In611 In 0.33029 0.79984 0.9226 0.0
O612 O 0.31652 0.82042 0.90747 0.0
O613 O 0.34298 0.8234 0.91127 0.0
C614 C 0.3048 0.77707 0.92525 0.0
C615 C 0.35179 0.78092 0.90374 0.0
C616 C 0.33402 0.80852 0.95567 0.0
O617 O 0.30322 0.79085 0.91723 0.0
O618 O 0.31914 0.77489 0.932 0.0
O619 O 0.34543 0.80098 0.94734 0.0
O620 O 0.32101 0.81226 0.94714 0.0
C621 C 0.32962 0.82916 0.9046 0.0
O622 O 0.35594 0.78694 0.918 0.0
O623 O 0.33697 0.78462 0.89901 0.0
In624 In 0.58864 0.70546 0.81442 0.0
O625 O 0.6035 0.68295 0.80376 0.0
O626 O 0.59676 0.68237 0.82987 0.0
C627 C 0.58734 0.7265 0.78735 0.0
C628 C 0.60887 0.7244 0.83466 0.0
C629 C 0.55545 0.69721 0.81698 0.0
O630 O 0.59506 0.71246 0.78688 0.0
O631 O 0.58027 0.72975 0.80134 0.0
O632 O 0.56294 0.70608 0.82805 0.0
O633 O 0.56479 0.69229 0.80495 0.0
C634 C 0.60421 0.67508 0.81771 0.0
O635 O 0.59366 0.72113 0.83859 0.0
O636 O 0.61364 0.71811 0.82075 0.0
In637 In 0.29935 0.5916 0.81672 0.0
O638 O 0.28348 0.59747 0.84047 0.0
O639 O 0.28679 0.61685 0.82195 0.0
C640 C 0.30768 0.55859 0.82016 0.0
C641 C 0.32968 0.60713 0.8199 0.0
C642 C 0.27781 0.58938 0.79022 0.0
O643 O 0.29895 0.56639 0.83113 0.0
O644 O 0.31247 0.56756 0.8078 0.0
O645 O 0.29171 0.59733 0.78921 0.0
O646 O 0.27502 0.58253 0.80441 0.0
C647 C 0.28029 0.61254 0.83592 0.0
O648 O 0.32243 0.60525 0.80571 0.0
O649 O 0.32177 0.60088 0.83235 0.0
In650 In 0.41142 0.30152 0.8169 0.0
O651 O 0.39609 0.32111 0.80242 0.0
O652 O 0.39948 0.32536 0.82879 0.0
C653 C 0.41626 0.28102 0.78994 0.0
C654 C 0.39084 0.28149 0.83582 0.0
C655 C 0.44418 0.31026 0.82262 0.0
O656 O 0.40863 0.29505 0.78886 0.0
O657 O 0.42165 0.27743 0.80459 0.0
O658 O 0.43615 0.3003 0.83227 0.0
O659 O 0.4355 0.31624 0.8106 0.0
C660 C 0.393 0.33042 0.81503 0.0
O661 O 0.40334 0.28921 0.84227 0.0
O662 O 0.38878 0.28413 0.8202 0.0
In663 In 0.69459 0.41308 0.81781 0.0
O664 O 0.71019 0.40907 0.84207 0.0
O665 O 0.70922 0.38913 0.82391 0.0
C666 C 0.68401 0.4455 0.82069 0.0
C667 C 0.66547 0.39517 0.82027 0.0
C668 C 0.71691 0.4171 0.79216 0.0
O669 O 0.69224 0.43808 0.83229 0.0
O670 O 0.68071 0.43637 0.80794 0.0
O671 O 0.70388 0.40784 0.79066 0.0
O672 O 0.71843 0.42428 0.80637 0.0
C673 C 0.71491 0.3943 0.83794 0.0
O674 O 0.67335 0.39682 0.80639 0.0
O675 O 0.67208 0.40287 0.83266 0.0
In676 In 0.58078 0.29864 0.16943 0.0
O677 O 0.5929 0.31913 0.18589 0.0
O678 O 0.59563 0.32161 0.15928 0.0
C679 C 0.57584 0.27624 0.19494 0.0
C680 C 0.6004 0.27941 0.14886 0.0
C681 C 0.54855 0.30763 0.16154 0.0
O682 O 0.58495 0.28931 0.19652 0.0
O683 O 0.56914 0.2745 0.18051 0.0
O684 O 0.55795 0.29939 0.1516 0.0
O685 O 0.55557 0.31188 0.17527 0.0
C686 C 0.59907 0.32749 0.17376 0.0
O687 O 0.58771 0.28753 0.14348 0.0
O688 O 0.60336 0.28127 0.16448 0.0
In689 In 0.70366 0.57792 0.18022 0.0
O690 O 0.71368 0.58222 0.15318 0.0
O691 O 0.72105 0.59958 0.17241 0.0
C692 C 0.69326 0.54532 0.17699 0.0
C693 C 0.67534 0.59712 0.18332 0.0
C694 C 0.72691 0.57485 0.20526 0.0
O695 O 0.7025 0.55257 0.16613 0.0
O696 O 0.68881 0.55467 0.18918 0.0
O697 O 0.71435 0.5847 0.20632 0.0
O698 O 0.72769 0.5665 0.19163 0.0
C699 C 0.72215 0.59526 0.15705 0.0
O700 O 0.68438 0.59277 0.19577 0.0
O701 O 0.68034 0.59146 0.1692 0.0
In702 In 0.42122 0.70452 0.17639 0.0
O703 O 0.40621 0.68615 0.19286 0.0
O704 O 0.40934 0.67962 0.16695 0.0
C705 C 0.42599 0.72767 0.2012 0.0
C706 C 0.40094 0.7221 0.15498 0.0
C707 C 0.45381 0.69575 0.16993 0.0
O708 O 0.41923 0.71341 0.20383 0.0
O709 O 0.43052 0.73022 0.18606 0.0
O710 O 0.44483 0.70401 0.1596 0.0
O711 O 0.4462 0.69144 0.18332 0.0
C712 C 0.40303 0.67575 0.18116 0.0
O713 O 0.41426 0.71472 0.15005 0.0
O714 O 0.39775 0.72034 0.17056 0.0
In715 In 0.29812 0.41929 0.17628 0.0
O716 O 0.31729 0.4036 0.19131 0.0
O717 O 0.32176 0.40665 0.16498 0.0
C718 C 0.27563 0.42377 0.20187 0.0
C719 C 0.27933 0.4007 0.15442 0.0
C720 C 0.30774 0.45166 0.1698 0.0
O721 O 0.28957 0.4162 0.2039 0.0
O722 O 0.27312 0.42918 0.18702 0.0
O723 O 0.29935 0.44279 0.15951 0.0
O724 O 0.31176 0.44407 0.18331 0.0
C725 C 0.32654 0.40008 0.17876 0.0
O726 O 0.28632 0.41447 0.15025 0.0
O727 O 0.28193 0.39622 0.16957 0.0
In728 In 0.81313 0.57961 0.70064 0.0
O729 O 0.79885 0.59383 0.67996 0.0
O730 O 0.8255 0.59158 0.67713 0.0
C731 C 0.78645 0.57588 0.72183 0.0
C732 C 0.83269 0.60049 0.71959 0.0
C733 C 0.82012 0.54678 0.69299 0.0
O734 O 0.78502 0.58195 0.7071 0.0
O735 O 0.80131 0.57149 0.72581 0.0
O736 O 0.82992 0.55596 0.70168 0.0
O737 O 0.80706 0.55431 0.68765 0.0
C738 C 0.81179 0.59748 0.67132 0.0
O739 O 0.83799 0.5864 0.71411 0.0
O740 O 0.81768 0.60404 0.71537 0.0
In741 In 0.41799 0.82422 0.69899 0.0
O742 O 0.40116 0.81011 0.68009 0.0
O743 O 0.40679 0.83599 0.67505 0.0
C744 C 0.4229 0.80016 0.72277 0.0
C745 C 0.39952 0.84592 0.71798 0.0
C746 C 0.45025 0.82696 0.68787 0.0
O747 O 0.41425 0.79745 0.70954 0.0
O748 O 0.42907 0.81488 0.72385 0.0
O749 O 0.44281 0.83884 0.69565 0.0
O750 O 0.44122 0.81402 0.68525 0.0
C751 C 0.3991 0.82273 0.67044 0.0
O752 O 0.41349 0.85018 0.71136 0.0
O753 O 0.39487 0.83096 0.71474 0.0
In754 In 0.17686 0.41689 0.70574 0.0
O755 O 0.15032 0.4132 0.71704 0.0
O756 O 0.16858 0.39374 0.72085 0.0
C757 C 0.17451 0.44937 0.69503 0.0
C758 C 0.17888 0.39801 0.67712 0.0
C759 C 0.20059 0.42142 0.73007 0.0
O760 O 0.16258 0.44194 0.70271 0.0
O761 O 0.18737 0.44025 0.69232 0.0
O762 O 0.20389 0.41407 0.7162 0.0
O763 O 0.18546 0.42636 0.73155 0.0
C764 C 0.1537 0.39896 0.72358 0.0
O765 O 0.19089 0.39901 0.68767 0.0
O766 O 0.16597 0.40668 0.68092 0.0
In767 In 0.58313 0.17595 0.70362 0.0
O768 O 0.59003 0.14945 0.7133 0.0
O769 O 0.60529 0.17016 0.72127 0.0
C770 C 0.55032 0.16835 0.69684 0.0
C771 C 0.59978 0.17919 0.67369 0.0
C772 C 0.58103 0.20289 0.72479 0.0
O773 O 0.55939 0.15972 0.70676 0.0
O774 O 0.55789 0.18068 0.69 0.0
O775 O 0.59085 0.2025 0.71217 0.0
O776 O 0.57216 0.18971 0.72673 0.0
C777 C 0.60245 0.15444 0.72209 0.0
O778 O 0.59342 0.19158 0.68153 0.0
O779 O 0.59734 0.165 0.68068 0.0
In780 In 0.81891 0.42109 0.29988 0.0
O781 O 0.84342 0.4143 0.28609 0.0
O782 O 0.82346 0.39618 0.286 0.0
C783 C 0.82665 0.4536 0.30746 0.0
C784 C 0.81874 0.40398 0.32964 0.0
C785 C 0.7936 0.42562 0.27718 0.0
O786 O 0.83657 0.44386 0.29955 0.0
O787 O 0.8129 0.44678 0.3121 0.0
O788 O 0.79117 0.41823 0.2912 0.0
O789 O 0.80852 0.4309 0.27495 0.0
C790 C 0.83828 0.39992 0.28129 0.0
O791 O 0.8054 0.40654 0.32114 0.0
O792 O 0.83191 0.41067 0.32349 0.0
In793 In 0.58299 0.81707 0.30041 0.0
O794 O 0.58568 0.84407 0.28981 0.0
O795 O 0.60498 0.82613 0.28419 0.0
C796 C 0.55074 0.81864 0.31196 0.0
C797 C 0.60256 0.81408 0.32848 0.0
C798 C 0.57987 0.79324 0.27593 0.0
O799 O 0.55768 0.83075 0.30413 0.0
O800 O 0.56022 0.806 0.31439 0.0
O801 O 0.58943 0.79135 0.28863 0.0
O802 O 0.57182 0.80707 0.27566 0.0
C803 C 0.59949 0.84104 0.28228 0.0
O804 O 0.59916 0.80178 0.31884 0.0
O805 O 0.59584 0.82795 0.32416 0.0
In806 In 0.18735 0.58502 0.30001 0.0
O807 O 0.1628 0.59119 0.28573 0.0
O808 O 0.18223 0.60982 0.28596 0.0
C809 C 0.17982 0.55199 0.30618 0.0
C810 C 0.18829 0.6006 0.33064 0.0
C811 C 0.2149 0.58337 0.2796 0.0
O812 O 0.17026 0.56167 0.29779 0.0
O813 O 0.193 0.55906 0.31187 0.0
O814 O 0.21476 0.59162 0.29329 0.0
O815 O 0.2012 0.5758 0.27627 0.0
C816 C 0.16762 0.60569 0.28094 0.0
O817 O 0.20136 0.59551 0.323 0.0
O818 O 0.17454 0.59731 0.32311 0.0
In819 In 0.41391 0.18809 0.29551 0.0
O820 O 0.41069 0.16077 0.28581 0.0
O821 O 0.39143 0.17868 0.28008 0.0
C822 C 0.44702 0.18679 0.30454 0.0
C823 C 0.39668 0.19052 0.32506 0.0
C824 C 0.41377 0.21332 0.27228 0.0
O825 O 0.44007 0.17546 0.29561 0.0
O826 O 0.4372 0.19852 0.30915 0.0
O827 O 0.40451 0.21346 0.28532 0.0
O828 O 0.42315 0.20042 0.27091 0.0
C829 C 0.39666 0.16364 0.27864 0.0
O830 O 0.40006 0.20312 0.31584 0.0
O831 O 0.40227 0.17656 0.31957 0.0
In832 In 0.70286 0.81731 0.58422 0.0
O833 O 0.67976 0.8037 0.59517 0.0
O834 O 0.67992 0.83057 0.59624 0.0
C835 C 0.72284 0.7895 0.58172 0.0
C836 C 0.72166 0.83584 0.60618 0.0
C837 C 0.69772 0.82583 0.55124 0.0
O838 O 0.70857 0.78924 0.58893 0.0
O839 O 0.72688 0.80369 0.57553 0.0
O840 O 0.707 0.83432 0.5611 0.0
O841 O 0.6906 0.81324 0.55811 0.0
C842 C 0.6723 0.81699 0.59997 0.0
O843 O 0.71633 0.8418 0.5923 0.0
O844 O 0.71734 0.8207 0.60901 0.0
In845 In 0.69408 0.18071 0.41858 0.0
O846 O 0.70686 0.15485 0.41507 0.0
O847 O 0.70999 0.1733 0.39567 0.0
C848 C 0.68626 0.17827 0.45197 0.0
C849 C 0.66452 0.17931 0.40117 0.0
C850 C 0.71517 0.20774 0.41835 0.0
O851 O 0.6955 0.16762 0.44444 0.0
O852 O 0.68058 0.1899 0.44258 0.0
O853 O 0.70114 0.20769 0.41066 0.0
O854 O 0.71845 0.19425 0.42631 0.0
C855 C 0.71339 0.15857 0.40092 0.0
O856 O 0.67226 0.19299 0.40411 0.0
O857 O 0.67144 0.1663 0.40742 0.0
In858 In 0.82366 0.70344 0.42096 0.0
O859 O 0.80757 0.68287 0.40847 0.0
O860 O 0.83432 0.68048 0.40679 0.0
C861 C 0.79845 0.7257 0.42738 0.0
C862 C 0.84172 0.72258 0.39906 0.0
C863 C 0.83306 0.69498 0.45287 0.0
O864 O 0.79605 0.71212 0.41922 0.0
O865 O 0.81343 0.72781 0.43257 0.0
O866 O 0.84196 0.70433 0.44341 0.0
O867 O 0.81971 0.68941 0.44602 0.0
C868 C 0.82 0.67457 0.40278 0.0
O869 O 0.84861 0.71488 0.4113 0.0
O870 O 0.82594 0.72038 0.39782 0.0
In871 In 0.29823 0.81908 0.41738 0.0
O872 O 0.32179 0.80762 0.40509 0.0
O873 O 0.32047 0.83445 0.40692 0.0
C874 C 0.27914 0.79071 0.41983 0.0
C875 C 0.27844 0.83715 0.39598 0.0
C876 C 0.3044 0.82573 0.45047 0.0
O877 O 0.29308 0.791 0.41195 0.0
O878 O 0.27499 0.80462 0.42655 0.0
O879 O 0.29507 0.83504 0.44138 0.0
O880 O 0.31094 0.81333 0.44276 0.0
C881 C 0.32871 0.8217 0.40189 0.0
O882 O 0.28285 0.84276 0.41033 0.0
O883 O 0.28406 0.82259 0.39251 0.0
In884 In 0.17737 0.30111 0.42223 0.0
O885 O 0.19434 0.32021 0.40873 0.0
O886 O 0.16794 0.32519 0.40862 0.0
C887 C 0.20178 0.27736 0.42593 0.0
C888 C 0.15494 0.28307 0.40346 0.0
C889 C 0.17226 0.31017 0.45504 0.0
O890 O 0.20374 0.29047 0.41697 0.0
O891 O 0.18752 0.27625 0.4331 0.0
O892 O 0.16124 0.30252 0.44634 0.0
O893 O 0.1856 0.31384 0.44702 0.0
C894 C 0.18252 0.32979 0.40388 0.0
O895 O 0.15051 0.29162 0.41626 0.0
O896 O 0.17052 0.28399 0.39996 0.0
In897 In 0.30202 0.17336 0.58224 0.0
O898 O 0.32415 0.18549 0.59634 0.0
O899 O 0.32485 0.15884 0.59296 0.0
C900 C 0.28321 0.20202 0.58153 0.0
C901 C 0.28253 0.15259 0.60134 0.0
C902 C 0.30745 0.16802 0.54874 0.0
O903 O 0.2976 0.2013 0.58847 0.0
O904 O 0.27834 0.1883 0.57486 0.0
O905 O 0.29757 0.15907 0.55753 0.0
O906 O 0.31502 0.1795 0.55691 0.0
C907 C 0.33188 0.1718 0.59917 0.0
O908 O 0.28987 0.14767 0.58801 0.0
O909 O 0.28514 0.16792 0.60511 0.0
In910 In 0.82201 0.29541 0.57697 0.0
O911 O 0.8088 0.31761 0.59016 0.0
O912 O 0.83567 0.31829 0.5883 0.0
C913 C 0.79589 0.27365 0.57251 0.0
C914 C 0.84005 0.27628 0.59891 0.0
C915 C 0.82931 0.30317 0.54436 0.0
O916 O 0.79412 0.28758 0.58024 0.0
O917 O 0.81062 0.27098 0.56689 0.0
O918 O 0.83922 0.29467 0.55363 0.0
O919 O 0.81602 0.30822 0.55172 0.0
C920 C 0.82237 0.32535 0.59373 0.0
O921 O 0.84584 0.28053 0.58457 0.0
O922 O 0.82538 0.28179 0.60209 0.0
In923 In 0.1736 0.69866 0.5858 0.0
O924 O 0.15158 0.71655 0.59197 0.0
O925 O 0.17053 0.71285 0.61075 0.0
C926 C 0.16608 0.69204 0.55297 0.0
C927 C 0.16996 0.66883 0.60236 0.0
C928 C 0.20269 0.7165 0.58271 0.0
O929 O 0.15677 0.7011 0.56232 0.0
O930 O 0.17888 0.68588 0.56034 0.0
O931 O 0.20204 0.70244 0.59034 0.0
O932 O 0.18878 0.72137 0.5765 0.0
C933 C 0.15695 0.7202 0.60661 0.0
O934 O 0.18424 0.6751 0.59877 0.0
O935 O 0.15747 0.67735 0.59711 0.0
In936 In 0.41582 0.29974 0.16839 0.0
O937 O 0.41245 0.28629 0.14276 0.0
O938 O 0.39332 0.28315 0.1615 0.0
C939 C 0.44823 0.31066 0.16613 0.0
C940 C 0.39699 0.32843 0.16802 0.0
C941 C 0.41937 0.27728 0.19399 0.0
O942 O 0.44117 0.30218 0.1545 0.0
O943 O 0.43876 0.31406 0.17858 0.0
O944 O 0.40985 0.29013 0.19513 0.0
O945 O 0.42713 0.27592 0.18007 0.0
C946 C 0.39852 0.27946 0.14683 0.0
O947 O 0.39934 0.31979 0.1813 0.0
O948 O 0.40434 0.32274 0.15499 0.0
In949 In 0.70316 0.41204 0.17839 0.0
O950 O 0.67937 0.39863 0.18827 0.0
O951 O 0.68182 0.40194 0.16165 0.0
C952 C 0.72126 0.41561 0.20733 0.0
C953 C 0.72438 0.39097 0.16159 0.0
C954 C 0.69649 0.44485 0.17094 0.0
O955 O 0.70731 0.40772 0.20694 0.0
O956 O 0.72586 0.42167 0.19326 0.0
O957 O 0.70542 0.43547 0.16154 0.0
O958 O 0.6905 0.43754 0.18387 0.0
C959 C 0.67315 0.39605 0.17374 0.0
O960 O 0.72139 0.4059 0.15661 0.0
O961 O 0.71664 0.38672 0.17494 0.0
In962 In 0.58704 0.69842 0.17994 0.0
O963 O 0.60246 0.67667 0.19128 0.0
O964 O 0.59768 0.67601 0.1648 0.0
C965 C 0.58631 0.71908 0.20731 0.0
C966 C 0.60409 0.71893 0.15838 0.0
C967 C 0.55398 0.68951 0.17745 0.0
O968 O 0.59487 0.70555 0.20697 0.0
O969 O 0.57808 0.72208 0.19392 0.0
O970 O 0.56153 0.69803 0.1662 0.0
O971 O 0.56323 0.68506 0.18972 0.0
C972 C 0.60469 0.66905 0.17739 0.0
O973 O 0.58948 0.71327 0.15509 0.0
O974 O 0.61009 0.71412 0.17241 0.0
In975 In 0.30502 0.58428 0.17921 0.0
O976 O 0.29017 0.58986 0.15478 0.0
O977 O 0.291 0.60875 0.17407 0.0
C978 C 0.31494 0.55174 0.17607 0.0
C979 C 0.33426 0.60193 0.17773 0.0
C980 C 0.28216 0.57975 0.2042 0.0
O981 O 0.30679 0.55935 0.16453 0.0
O982 O 0.31857 0.56075 0.1888 0.0
O983 O 0.29577 0.58794 0.20657 0.0
O984 O 0.28034 0.57387 0.18943 0.0
C985 C 0.28559 0.60447 0.15963 0.0
O986 O 0.3258 0.60046 0.19128 0.0
O987 O 0.3282 0.59409 0.16514 0.0
In988 In 0.42141 0.70362 0.8171 0.0
O989 O 0.41137 0.68079 0.80254 0.0
O990 O 0.40835 0.68053 0.82925 0.0
C991 C 0.42215 0.72459 0.78997 0.0
C992 C 0.40075 0.722 0.83744 0.0
C993 C 0.45471 0.69805 0.82389 0.0
O994 O 0.4145 0.71056 0.78989 0.0
O995 O 0.42962 0.72802 0.8037 0.0
O996 O 0.44505 0.70604 0.8338 0.0
O997 O 0.44746 0.69235 0.81082 0.0
C998 C 0.4055 0.67319 0.81531 0.0
O999 O 0.41487 0.71635 0.84244 0.0
O1000 O 0.39703 0.71819 0.82235 0.0
In1001 In 0.29788 0.42473 0.82349 0.0
O1002 O 0.31788 0.40796 0.81098 0.0
O1003 O 0.3217 0.41446 0.83677 0.0
C1004 C 0.27721 0.42582 0.79612 0.0
C1005 C 0.27903 0.40637 0.84537 0.0
C1006 C 0.30397 0.45816 0.82874 0.0
O1007 O 0.2925 0.42121 0.79514 0.0
O1008 O 0.27251 0.4302 0.81077 0.0
O1009 O 0.29476 0.44929 0.8383 0.0
O1010 O 0.31056 0.45011 0.81658 0.0
C1011 C 0.32694 0.40631 0.82404 0.0
O1012 O 0.28653 0.41984 0.84965 0.0
O1013 O 0.28128 0.40201 0.83013 0.0
In1014 In 0.577 0.29413 0.82426 0.0
O1015 O 0.58436 0.28557 0.85106 0.0
O1016 O 0.60027 0.2782 0.83064 0.0
C1017 C 0.54426 0.30229 0.83096 0.0
C1018 C 0.59447 0.32326 0.81887 0.0
C1019 C 0.57319 0.27021 0.79993 0.0
O1020 O 0.55314 0.2932 0.84065 0.0
O1021 O 0.55203 0.30776 0.81807 0.0
O1022 O 0.58191 0.28345 0.79776 0.0
O1023 O 0.56625 0.2691 0.8143 0.0
C1024 C 0.59744 0.27763 0.84636 0.0
O1025 O 0.58966 0.31366 0.80702 0.0
O1026 O 0.58997 0.3185 0.83348 0.0
In1027 In 0.69707 0.57798 0.82269 0.0
O1028 O 0.70644 0.58397 0.84947 0.0
O1029 O 0.71436 0.60016 0.82944 0.0
C1030 C 0.68701 0.54566 0.82896 0.0
C1031 C 0.66983 0.59827 0.81708 0.0
C1032 C 0.72107 0.57252 0.79882 0.0
O1033 O 0.69472 0.55463 0.83969 0.0
O1034 O 0.68371 0.55318 0.81524 0.0
O1035 O 0.70692 0.5792 0.79549 0.0
O1036 O 0.72305 0.5684 0.81415 0.0
C1037 C 0.71511 0.59668 0.84504 0.0
O1038 O 0.68002 0.59388 0.8056 0.0
O1039 O 0.67302 0.59201 0.83147 0.0
In1040 In 0.18669 0.41815 0.30291 0.0
O1041 O 0.19715 0.40273 0.32514 0.0
O1042 O 0.1709 0.40896 0.32532 0.0
C1043 C 0.21341 0.42025 0.28162 0.0
C1044 C 0.1675 0.39762 0.28341 0.0
C1045 C 0.18379 0.45127 0.31123 0.0
O1046 O 0.2145 0.41312 0.29596 0.0
O1047 O 0.19903 0.42644 0.2783 0.0
O1048 O 0.17299 0.44378 0.30204 0.0
O1049 O 0.19563 0.44191 0.31657 0.0
C1050 C 0.18301 0.40138 0.33258 0.0
O1051 O 0.16257 0.41234 0.28754 0.0
O1052 O 0.18182 0.39348 0.2892 0.0
In1053 In 0.58066 0.18882 0.29754 0.0
O1054 O 0.58693 0.16427 0.28349 0.0
O1055 O 0.60606 0.1832 0.28495 0.0
C1056 C 0.54767 0.18193 0.30396 0.0
C1057 C 0.59597 0.19019 0.32824 0.0
C1058 C 0.57875 0.21479 0.27521 0.0
O1059 O 0.55753 0.17142 0.29704 0.0
O1060 O 0.55457 0.19576 0.30813 0.0
O1061 O 0.58612 0.21612 0.28936 0.0
O1062 O 0.57216 0.20048 0.27246 0.0
C1063 C 0.6018 0.16873 0.2796 0.0
O1064 O 0.59198 0.20326 0.31992 0.0
O1065 O 0.59175 0.17638 0.32133 0.0
In1066 In 0.8213 0.5869 0.30046 0.0
O1067 O 0.84674 0.59217 0.28699 0.0
O1068 O 0.8254 0.60744 0.28081 0.0
C1069 C 0.82398 0.5542 0.31043 0.0
C1070 C 0.82439 0.60579 0.32894 0.0
C1071 C 0.79346 0.58399 0.28085 0.0
O1072 O 0.83433 0.56094 0.30022 0.0
O1073 O 0.8127 0.5641 0.31596 0.0
O1074 O 0.79398 0.59377 0.29357 0.0
O1075 O 0.80686 0.5756 0.27827 0.0
C1076 C 0.8408 0.60417 0.27816 0.0
O1077 O 0.81028 0.60312 0.32185 0.0
O1078 O 0.83686 0.59881 0.32177 0.0
In1079 In 0.41796 0.8158 0.30284 0.0
O1080 O 0.40572 0.80091 0.32436 0.0
O1081 O 0.40578 0.82776 0.32635 0.0
C1082 C 0.42141 0.78986 0.28071 0.0
C1083 C 0.39692 0.83514 0.28397 0.0
C1084 C 0.45043 0.82329 0.31103 0.0
O1085 O 0.41443 0.78813 0.29501 0.0
O1086 O 0.42683 0.8046 0.27768 0.0
O1087 O 0.44054 0.83396 0.30438 0.0
O1088 O 0.44379 0.80905 0.31401 0.0
C1089 C 0.40134 0.81378 0.33277 0.0
O1090 O 0.41189 0.83964 0.28747 0.0
O1091 O 0.39255 0.82107 0.29019 0.0
In1092 In 0.17324 0.58265 0.70475 0.0
O1093 O 0.14714 0.58833 0.71605 0.0
O1094 O 0.16669 0.60649 0.71979 0.0
C1095 C 0.1671 0.54968 0.69728 0.0
C1096 C 0.17589 0.59893 0.67459 0.0
C1097 C 0.19883 0.58051 0.72754 0.0
O1098 O 0.15666 0.55892 0.7051 0.0
O1099 O 0.18051 0.55718 0.69282 0.0
O1100 O 0.1999 0.58924 0.71417 0.0
O1101 O 0.18491 0.57282 0.72935 0.0
C1102 C 0.15146 0.60234 0.72247 0.0
O1103 O 0.18858 0.59409 0.68301 0.0
O1104 O 0.16179 0.59519 0.68115 0.0
In1105 In 0.41784 0.17917 0.70185 0.0
O1106 O 0.4033 0.19402 0.68188 0.0
O1107 O 0.40633 0.1675 0.67789 0.0
C1108 C 0.42252 0.204 0.72495 0.0
C1109 C 0.39704 0.159 0.72014 0.0
C1110 C 0.4502 0.17452 0.69168 0.0
O1111 O 0.41465 0.20641 0.71121 0.0
O1112 O 0.42812 0.18915 0.72692 0.0
O1113 O 0.44236 0.16364 0.70048 0.0
O1114 O 0.44153 0.18732 0.68763 0.0
C1115 C 0.40024 0.18135 0.67258 0.0
O1116 O 0.41147 0.154 0.71523 0.0
O1117 O 0.39322 0.17385 0.7156 0.0
In1118 In 0.81087 0.41294 0.69507 0.0
O1119 O 0.82381 0.40016 0.67227 0.0
O1120 O 0.79699 0.39956 0.67347 0.0
C1121 C 0.78403 0.41249 0.71649 0.0
C1122 C 0.83449 0.39685 0.71417 0.0
C1123 C 0.81341 0.4463 0.68694 0.0
O1124 O 0.7853 0.40255 0.70402 0.0
O1125 O 0.79628 0.42267 0.71816 0.0
O1126 O 0.82385 0.43886 0.69648 0.0
O1127 O 0.80189 0.43684 0.68113 0.0
C1128 C 0.81016 0.39522 0.66554 0.0
O1129 O 0.83785 0.40992 0.70554 0.0
O1130 O 0.81937 0.3918 0.71295 0.0
In1131 In 0.58297 0.82935 0.69951 0.0
O1132 O 0.58704 0.85461 0.71302 0.0
O1133 O 0.60613 0.83577 0.71559 0.0
C1134 C 0.55036 0.83509 0.69056 0.0
C1135 C 0.60093 0.82955 0.67017 0.0
C1136 C 0.57979 0.80347 0.72189 0.0
O1137 O 0.55932 0.84584 0.69829 0.0
O1138 O 0.55799 0.82151 0.68685 0.0
O1139 O 0.58886 0.80229 0.70873 0.0
O1140 O 0.57226 0.81748 0.72351 0.0
C1141 C 0.60112 0.85048 0.71942 0.0
O1142 O 0.59683 0.81599 0.67764 0.0
O1143 O 0.59563 0.84285 0.67726 0.0
In1144 In 0.29895 0.1846 0.41622 0.0
O1145 O 0.28339 0.16051 0.41129 0.0
O1146 O 0.28424 0.1794 0.39205 0.0
C1147 C 0.30859 0.17988 0.44875 0.0
C1148 C 0.3281 0.18261 0.39841 0.0
C1149 C 0.27838 0.21178 0.41928 0.0
O1150 O 0.29915 0.16953 0.44098 0.0
O1151 O 0.31342 0.19237 0.44 0.0
O1152 O 0.2922 0.21234 0.41121 0.0
O1153 O 0.27511 0.19762 0.42598 0.0
C1154 C 0.27864 0.16515 0.39669 0.0
O1155 O 0.32053 0.19646 0.40114 0.0
O1156 O 0.32117 0.16978 0.40503 0.0
In1157 In 0.29804 0.81166 0.58292 0.0
O1158 O 0.31714 0.79663 0.59862 0.0
O1159 O 0.32222 0.82277 0.59425 0.0
C1160 C 0.27392 0.78794 0.57773 0.0
C1161 C 0.28027 0.83266 0.60329 0.0
C1162 C 0.30839 0.81631 0.55059 0.0
O1163 O 0.28744 0.78472 0.58571 0.0
O1164 O 0.27278 0.80293 0.57229 0.0
O1165 O 0.29997 0.82734 0.55859 0.0
O1166 O 0.31206 0.80325 0.5591 0.0
C1167 C 0.32682 0.80913 0.60128 0.0
O1168 O 0.28596 0.83742 0.58906 0.0
O1169 O 0.28373 0.81753 0.60715 0.0
In1170 In 0.18984 0.29936 0.58667 0.0
O1171 O 0.20505 0.31752 0.60337 0.0
O1172 O 0.17925 0.3236 0.59839 0.0
C1173 C 0.21261 0.27444 0.58087 0.0
C1174 C 0.16862 0.28141 0.60663 0.0
C1175 C 0.18556 0.31102 0.55472 0.0
O1176 O 0.21653 0.28792 0.58863 0.0
O1177 O 0.19741 0.27375 0.57595 0.0
O1178 O 0.17381 0.30377 0.56287 0.0
O1179 O 0.19919 0.31286 0.5629 0.0
C1180 C 0.1928 0.32751 0.606 0.0
O1181 O 0.16434 0.28634 0.59197 0.0
O1182 O 0.18335 0.28573 0.61111 0.0
In1183 In 0.70034 0.17982 0.58524 0.0
O1184 O 0.71577 0.15625 0.59209 0.0
O1185 O 0.71557 0.17675 0.60959 0.0
C1186 C 0.69337 0.17273 0.55242 0.0
C1187 C 0.6706 0.17639 0.60201 0.0
C1188 C 0.71971 0.20784 0.58142 0.0
O1189 O 0.70286 0.16356 0.56147 0.0
O1190 O 0.68699 0.18528 0.56005 0.0
O1191 O 0.70579 0.20815 0.58937 0.0
O1192 O 0.7236 0.19356 0.57535 0.0
C1193 C 0.72086 0.16206 0.60613 0.0
O1194 O 0.67719 0.19069 0.59907 0.0
O1195 O 0.67873 0.16398 0.59603 0.0
In1196 In 0.82369 0.69999 0.58536 0.0
O1197 O 0.81041 0.67887 0.60005 0.0
O1198 O 0.83706 0.67679 0.59621 0.0
C1199 C 0.79877 0.72279 0.57993 0.0
C1200 C 0.84235 0.71893 0.60689 0.0
C1201 C 0.82838 0.68984 0.55303 0.0
O1202 O 0.79622 0.70921 0.58811 0.0
O1203 O 0.81369 0.72463 0.57448 0.0
O1204 O 0.83917 0.69887 0.56076 0.0
O1205 O 0.81568 0.68562 0.5618 0.0
C1206 C 0.82381 0.67045 0.60262 0.0
O1207 O 0.84802 0.71447 0.59253 0.0
O1208 O 0.82761 0.71367 0.6102 0.0
In1209 In 0.70283 0.81991 0.41744 0.0
O1210 O 0.71791 0.84428 0.41135 0.0
O1211 O 0.71699 0.82463 0.39292 0.0
C1212 C 0.69387 0.82365 0.45039 0.0
C1213 C 0.67338 0.82172 0.40007 0.0
C1214 C 0.72302 0.79243 0.42052 0.0
O1215 O 0.70396 0.83376 0.44309 0.0
O1216 O 0.68796 0.81219 0.44092 0.0
O1217 O 0.70894 0.79193 0.41291 0.0
O1218 O 0.72683 0.80674 0.42659 0.0
C1219 C 0.72237 0.83917 0.39679 0.0
O1220 O 0.68151 0.80807 0.40204 0.0
O1221 O 0.67987 0.83448 0.40729 0.0
In1222 In 0.17991 0.6995 0.42053 0.0
O1223 O 0.15587 0.71453 0.41378 0.0
O1224 O 0.1759 0.71321 0.3957 0.0
C1225 C 0.17482 0.68935 0.4528 0.0
C1226 C 0.17879 0.67017 0.40296 0.0
C1227 C 0.20517 0.72203 0.42556 0.0
O1228 O 0.16422 0.69847 0.44494 0.0
O1229 O 0.18761 0.68502 0.44419 0.0
O1230 O 0.20739 0.70857 0.41711 0.0
O1231 O 0.19045 0.72382 0.43153 0.0
C1232 C 0.16134 0.71877 0.39928 0.0
O1233 O 0.19255 0.67786 0.40597 0.0
O1234 O 0.16575 0.67705 0.40922 0.0
In1235 In 0.81584 0.29764 0.41172 0.0
O1236 O 0.79992 0.31681 0.39716 0.0
O1237 O 0.82598 0.32266 0.40093 0.0
C1238 C 0.79189 0.27366 0.41686 0.0
C1239 C 0.83652 0.28034 0.39045 0.0
C1240 C 0.82067 0.3077 0.44418 0.0
O1241 O 0.7889 0.28723 0.4089 0.0
O1242 O 0.80689 0.27226 0.42222 0.0
O1243 O 0.83187 0.29967 0.43598 0.0
O1244 O 0.80746 0.31105 0.43582 0.0
C1245 C 0.81193 0.32709 0.39461 0.0
O1246 O 0.84129 0.28488 0.40507 0.0
O1247 O 0.82164 0.28476 0.38665 0.0
H1248 H 0.09668 0.23878 0.37047 0.0
H1249 H 0.13788 0.22527 0.33704 0.0
H1250 H 0.15708 0.24367 0.35288 0.0
H1251 H 0.16217 0.2638 0.37596 0.0
H1252 H 0.12113 0.27788 0.4093 0.0
H1253 H 0.10185 0.25916 0.39372 0.0
C1254 C 0.10989 0.2398 0.36674 0.0
C1255 C 0.11586 0.23064 0.35263 0.0
C1256 C 0.12085 0.25059 0.37581 0.0
C1257 C 0.13297 0.23218 0.34786 0.0
C1258 C 0.14396 0.24272 0.35689 0.0
C1259 C 0.149 0.26282 0.3798 0.0
C1260 C 0.14309 0.27224 0.39374 0.0
C1261 C 0.13803 0.25205 0.37081 0.0
C1262 C 0.12598 0.27079 0.39857 0.0
C1263 C 0.11496 0.26006 0.3897 0.0
H1264 H 0.72888 0.16452 0.37084 0.0
H1265 H 0.72276 0.12632 0.40958 0.0
H1266 H 0.74145 0.10716 0.39385 0.0
H1267 H 0.75957 0.10132 0.36903 0.0
H1268 H 0.76545 0.1397 0.33039 0.0
H1269 H 0.74685 0.15874 0.34617 0.0
C1270 C 0.7316 0.15199 0.37583 0.0
C1271 C 0.72443 0.14683 0.39133 0.0
C1272 C 0.74235 0.14109 0.36676 0.0
C1273 C 0.72811 0.13057 0.39765 0.0
C1274 C 0.73881 0.11962 0.38868 0.0
C1275 C 0.7568 0.11386 0.3641 0.0
C1276 C 0.7639 0.11909 0.34857 0.0
C1277 C 0.74602 0.12476 0.37322 0.0
C1278 C 0.76016 0.13536 0.34231 0.0
C1279 C 0.74951 0.14627 0.35132 0.0
H1280 H 0.87573 0.72891 0.39839 0.0
H1281 H 0.82861 0.74156 0.37351 0.0
H1282 H 0.8435 0.76098 0.35462 0.0
H1283 H 0.8697 0.77466 0.34537 0.0
H1284 H 0.91709 0.76203 0.36964 0.0
H1285 H 0.90231 0.74231 0.38859 0.0
C1286 C 0.86876 0.73589 0.3888 0.0
C1287 C 0.8511 0.73382 0.38737 0.0
C1288 C 0.87743 0.74706 0.37791 0.0
C1289 C 0.84222 0.74291 0.37487 0.0
C1290 C 0.85071 0.75405 0.36407 0.0
C1291 C 0.87681 0.76761 0.35481 0.0
C1292 C 0.89443 0.76983 0.35617 0.0
C1293 C 0.86828 0.75627 0.36553 0.0
C1294 C 0.90349 0.76053 0.36838 0.0
C1295 C 0.89505 0.74927 0.37921 0.0
H1296 H 0.23293 0.86764 0.33771 0.0
H1297 H 0.23034 0.9096 0.37276 0.0
H1298 H 0.24837 0.89419 0.39281 0.0
H1299 H 0.26495 0.86872 0.4003 0.0
H1300 H 0.26743 0.82696 0.36494 0.0
H1301 H 0.24938 0.84238 0.3451 0.0
C1302 C 0.23629 0.87342 0.34974 0.0
C1303 C 0.23031 0.88973 0.35375 0.0
C1304 C 0.24666 0.86452 0.36115 0.0
C1305 C 0.23479 0.89705 0.36938 0.0
C1306 C 0.2451 0.88825 0.38084 0.0
C1307 C 0.26153 0.86302 0.38825 0.0
C1308 C 0.26753 0.84672 0.3841 0.0
C1309 C 0.25112 0.87197 0.37685 0.0
C1310 C 0.263 0.83949 0.36844 0.0
C1311 C 0.25266 0.84829 0.35708 0.0
H1312 H 0.12907 0.73934 0.5997 0.0
H1313 H 0.16552 0.72831 0.63904 0.0
H1314 H 0.15149 0.74838 0.65799 0.0
H1315 H 0.12871 0.76877 0.66355 0.0
H1316 H 0.09217 0.77995 0.62435 0.0
H1317 H 0.10646 0.76021 0.60514 0.0
C1318 C 0.13391 0.74133 0.61243 0.0
C1319 C 0.14827 0.73231 0.61798 0.0
C1320 C 0.12582 0.75295 0.62326 0.0
C1321 C 0.15447 0.73507 0.63447 0.0
C1322 C 0.14647 0.74656 0.64532 0.0
C1323 C 0.12392 0.76696 0.65078 0.0
C1324 C 0.10942 0.7758 0.64538 0.0
C1325 C 0.13213 0.75554 0.63986 0.0
C1326 C 0.10334 0.7733 0.6288 0.0
C1327 C 0.11148 0.76198 0.61783 0.0
H1328 H 0.26547 0.16078 0.63002 0.0
H1329 H 0.27481 0.11932 0.59552 0.0
H1330 H 0.25618 0.10097 0.61223 0.0
H1331 H 0.23716 0.09676 0.63669 0.0
H1332 H 0.22807 0.13837 0.67112 0.0
H1333 H 0.24664 0.1566 0.65437 0.0
C1334 C 0.26345 0.14772 0.62617 0.0
C1335 C 0.2715 0.14141 0.61158 0.0
C1336 C 0.25273 0.13728 0.63581 0.0
C1337 C 0.26876 0.12447 0.60673 0.0
C1338 C 0.2581 0.11398 0.61627 0.0
C1339 C 0.23923 0.10982 0.64049 0.0
C1340 C 0.23124 0.1162 0.6551 0.0
C1341 C 0.25 0.12025 0.63082 0.0
C1342 C 0.23407 0.13314 0.65991 0.0
C1343 C 0.2447 0.14359 0.65035 0.0
H1344 H 0.87063 0.26078 0.59432 0.0
H1345 H 0.83041 0.26767 0.63084 0.0
H1346 H 0.84547 0.24989 0.65117 0.0
H1347 H 0.87005 0.23257 0.65873 0.0
H1348 H 0.9104 0.22535 0.62247 0.0
H1349 H 0.89528 0.24298 0.60186 0.0
C1350 C 0.8652 0.25839 0.60674 0.0
C1351 C 0.84946 0.26556 0.61108 0.0
C1352 C 0.87391 0.24806 0.61839 0.0
C1353 C 0.84252 0.26231 0.62718 0.0
C1354 C 0.85111 0.25213 0.63883 0.0
C1355 C 0.87552 0.2348 0.6463 0.0
C1356 C 0.89131 0.22768 0.64213 0.0
C1357 C 0.8668 0.24495 0.63458 0.0
C1358 C 0.89824 0.23069 0.62598 0.0
C1359 C 0.88961 0.24079 0.6142 0.0
H1360 H 0.76712 0.86698 0.66417 0.0
H1361 H 0.77016 0.90834 0.62843 0.0
H1362 H 0.75192 0.8928 0.60867 0.0
H1363 H 0.73505 0.86739 0.60161 0.0
H1364 H 0.73243 0.82606 0.63746 0.0
H1365 H 0.75052 0.84169 0.65713 0.0
C1366 C 0.76382 0.87259 0.65204 0.0
C1367 C 0.76998 0.88878 0.64777 0.0
C1368 C 0.75336 0.86361 0.64078 0.0
C1369 C 0.76559 0.89588 0.63201 0.0
C1370 C 0.75515 0.88701 0.62072 0.0
C1371 C 0.73841 0.86185 0.61375 0.0
C1372 C 0.73238 0.84561 0.61808 0.0
C1373 C 0.74893 0.87087 0.62499 0.0
C1374 C 0.7369 0.83854 0.63382 0.0
C1375 C 0.74726 0.84746 0.64508 0.0
H1376 H 0.36433 0.1013 0.23951 0.0
H1377 H 0.32575 0.13896 0.22988 0.0
H1378 H 0.34165 0.15982 0.24617 0.0
H1379 H 0.36646 0.16759 0.26295 0.0
H1380 H 0.40535 0.13043 0.27294 0.0
H1381 H 0.38941 0.10918 0.25677 0.0
C1382 C 0.35943 0.11407 0.24101 0.0
C1383 C 0.34388 0.11855 0.23347 0.0
C1384 C 0.36869 0.1261 0.25046 0.0
C1385 C 0.33768 0.13515 0.23553 0.0
C1386 C 0.34677 0.14712 0.24485 0.0
C1387 C 0.37146 0.15483 0.26162 0.0
C1388 C 0.38706 0.1506 0.26912 0.0
C1389 C 0.36227 0.14275 0.25234 0.0
C1390 C 0.39335 0.13401 0.26728 0.0
C1391 C 0.38425 0.12186 0.25803 0.0
H1392 H 0.87288 0.34343 0.23656 0.0
H1393 H 0.91231 0.38136 0.23411 0.0
H1394 H 0.89545 0.40031 0.25194 0.0
H1395 H 0.86954 0.40604 0.26828 0.0
H1396 H 0.83011 0.3681 0.27059 0.0
H1397 H 0.84698 0.34918 0.25279 0.0
C1398 C 0.87777 0.35585 0.23991 0.0
C1399 C 0.89379 0.361 0.23404 0.0
C1400 C 0.86804 0.36665 0.25016 0.0
C1401 C 0.89998 0.37712 0.23848 0.0
C1402 C 0.89037 0.38795 0.24868 0.0
C1403 C 0.86467 0.39362 0.2649 0.0
C1404 C 0.84864 0.38846 0.27074 0.0
C1405 C 0.8744 0.38283 0.25462 0.0
C1406 C 0.84244 0.37235 0.26625 0.0
C1407 C 0.85206 0.36153 0.25606 0.0
H1408 H 0.62861 0.90125 0.23776 0.0
H1409 H 0.66688 0.86333 0.22787 0.0
H1410 H 0.65216 0.84329 0.24616 0.0
H1411 H 0.62866 0.83641 0.26501 0.0
H1412 H 0.59015 0.87384 0.27542 0.0
H1413 H 0.60474 0.8942 0.25697 0.0
C1414 C 0.63366 0.88858 0.23959 0.0
C1415 C 0.64881 0.8838 0.23145 0.0
C1416 C 0.62515 0.87705 0.25027 0.0
C1417 C 0.65525 0.86736 0.23398 0.0
C1418 C 0.64686 0.85587 0.24446 0.0
C1419 C 0.62346 0.84904 0.26329 0.0
C1420 C 0.60837 0.85362 0.27158 0.0
C1421 C 0.63185 0.86058 0.25269 0.0
C1422 C 0.60178 0.87002 0.26919 0.0
C1423 C 0.6101 0.88164 0.25863 0.0
H1424 H 0.13267 0.66129 0.23515 0.0
H1425 H 0.09594 0.62118 0.22886 0.0
H1426 H 0.1126 0.60276 0.24747 0.0
H1427 H 0.1376 0.59812 0.26565 0.0
H1428 H 0.17445 0.63821 0.27151 0.0
H1429 H 0.15772 0.65658 0.25301 0.0
C1430 C 0.12833 0.6485 0.23782 0.0
C1431 C 0.1131 0.6426 0.23064 0.0
C1432 C 0.13796 0.638 0.24851 0.0
C1433 C 0.10764 0.62601 0.23421 0.0
C1434 C 0.11714 0.61548 0.24488 0.0
C1435 C 0.14193 0.61089 0.26291 0.0
C1436 C 0.15721 0.61681 0.26998 0.0
C1437 C 0.13231 0.62136 0.25213 0.0
C1438 C 0.16272 0.63335 0.26624 0.0
C1439 C 0.15317 0.64387 0.25565 0.0
H1440 H 0.36581 0.90138 0.76508 0.0
H1441 H 0.32973 0.8608 0.77224 0.0
H1442 H 0.34595 0.8427 0.75307 0.0
H1443 H 0.37027 0.83838 0.73427 0.0
H1444 H 0.40654 0.87873 0.72694 0.0
H1445 H 0.39032 0.89699 0.74612 0.0
C1446 C 0.36154 0.88856 0.76247 0.0
C1447 C 0.34661 0.88243 0.77009 0.0
C1448 C 0.37092 0.87822 0.75136 0.0
C1449 C 0.34119 0.86581 0.76656 0.0
C1450 C 0.35045 0.85546 0.75558 0.0
C1451 C 0.37462 0.85119 0.73682 0.0
C1452 C 0.38956 0.85721 0.72918 0.0
C1453 C 0.36529 0.86154 0.74789 0.0
C1454 C 0.39505 0.87381 0.73265 0.0
C1455 C 0.3858 0.88424 0.74364 0.0
H1456 H 0.15881 0.36861 0.73875 0.0
H1457 H 0.12121 0.40779 0.73211 0.0
H1458 H 0.10142 0.39206 0.75017 0.0
H1459 H 0.09485 0.36701 0.76794 0.0
H1460 H 0.13274 0.32795 0.77407 0.0
H1461 H 0.15235 0.34383 0.75622 0.0
C1462 C 0.14627 0.3737 0.74121 0.0
C1463 C 0.14148 0.38933 0.73409 0.0
C1464 C 0.13501 0.36463 0.75159 0.0
C1465 C 0.1252 0.39576 0.73743 0.0
C1466 C 0.11388 0.38679 0.74778 0.0
C1467 C 0.10742 0.36204 0.7654 0.0
C1468 C 0.11233 0.34634 0.77235 0.0
C1469 C 0.11867 0.3712 0.75497 0.0
C1470 C 0.12863 0.34 0.76889 0.0
C1471 C 0.13987 0.34906 0.75866 0.0
H1472 H 0.63008 0.16247 0.7408 0.0
H1473 H 0.59731 0.12061 0.72777 0.0
H1474 H 0.61357 0.10184 0.7464 0.0
H1475 H 0.63725 0.09736 0.76641 0.0
H1476 H 0.6702 0.13934 0.77875 0.0
H1477 H 0.65367 0.15803 0.76047 0.0
C1478 C 0.62651 0.14923 0.74201 0.0
C1479 C 0.61253 0.14294 0.73292 0.0
C1480 C 0.63591 0.13855 0.75268 0.0
C1481 C 0.60806 0.12575 0.73461 0.0
C1482 C 0.61733 0.11502 0.74528 0.0
C1483 C 0.64073 0.11062 0.76514 0.0
C1484 C 0.65489 0.11697 0.77395 0.0
C1485 C 0.63127 0.12129 0.75442 0.0
C1486 C 0.65935 0.13414 0.7721 0.0
C1487 C 0.64992 0.14484 0.76164 0.0
H1488 H 0.86633 0.65625 0.76614 0.0
H1489 H 0.90603 0.61865 0.7684 0.0
H1490 H 0.88974 0.60006 0.74964 0.0
H1491 H 0.86406 0.59442 0.73272 0.0
H1492 H 0.82432 0.63201 0.73086 0.0
H1493 H 0.84079 0.65067 0.74928 0.0
C1494 C 0.87142 0.64399 0.76253 0.0
C1495 C 0.88735 0.63883 0.76866 0.0
C1496 C 0.86198 0.63336 0.75179 0.0
C1497 C 0.89378 0.62291 0.76387 0.0
C1498 C 0.88448 0.61227 0.75313 0.0
C1499 C 0.85905 0.60672 0.73631 0.0
C1500 C 0.843 0.61182 0.73042 0.0
C1501 C 0.86855 0.61736 0.74702 0.0
C1502 C 0.83664 0.62777 0.73523 0.0
C1503 C 0.84604 0.63845 0.74577 0.0
H1504 H 0.23549 0.36705 0.09631 0.0
H1505 H 0.22959 0.32871 0.13498 0.0
H1506 H 0.24705 0.34525 0.15442 0.0
H1507 H 0.26419 0.37044 0.16045 0.0
H1508 H 0.27066 0.40872 0.12185 0.0
H1509 H 0.25284 0.39238 0.10239 0.0
C1510 C 0.238 0.36237 0.10901 0.0
C1511 C 0.23125 0.34669 0.1142 0.0
C1512 C 0.24819 0.3719 0.12013 0.0
C1513 C 0.23465 0.34074 0.13066 0.0
C1514 C 0.24464 0.35018 0.1418 0.0
C1515 C 0.26171 0.37521 0.14777 0.0
C1516 C 0.26872 0.39075 0.1426 0.0
C1517 C 0.25152 0.36574 0.13666 0.0
C1518 C 0.26541 0.39676 0.12613 0.0
C1519 C 0.25521 0.38744 0.115 0.0
H1520 H 0.23756 0.67165 0.86865 0.0
H1521 H 0.22641 0.63258 0.90534 0.0
H1522 H 0.2441 0.6125 0.88956 0.0
H1523 H 0.26292 0.60614 0.86528 0.0
H1524 H 0.27373 0.64556 0.8288 0.0
H1525 H 0.25605 0.66537 0.84458 0.0
C1526 C 0.23896 0.65873 0.87319 0.0
C1527 C 0.23068 0.65361 0.88813 0.0
C1528 C 0.24915 0.64731 0.86411 0.0
C1529 C 0.23264 0.63683 0.89385 0.0
C1530 C 0.24277 0.62535 0.88485 0.0
C1531 C 0.26141 0.61907 0.86083 0.0
C1532 C 0.26965 0.62436 0.8459 0.0
C1533 C 0.25113 0.63046 0.86997 0.0
C1534 C 0.26754 0.64115 0.84025 0.0
C1535 C 0.25741 0.65251 0.84926 0.0
H1536 H 0.39156 0.27386 0.86978 0.0
H1537 H 0.36475 0.26299 0.82325 0.0
H1538 H 0.34589 0.24373 0.8383 0.0
H1539 H 0.33667 0.23014 0.86455 0.0
H1540 H 0.36297 0.24064 0.91138 0.0
H1541 H 0.38233 0.2598 0.89638 0.0
C1542 C 0.38158 0.26727 0.86298 0.0
C1543 C 0.37955 0.26993 0.84542 0.0
C1544 C 0.37067 0.25613 0.87175 0.0
C1545 C 0.36657 0.26126 0.83677 0.0
C1546 C 0.35577 0.25021 0.84535 0.0
C1547 C 0.34666 0.23659 0.87149 0.0
C1548 C 0.34837 0.23398 0.88904 0.0
C1549 C 0.35766 0.24758 0.86282 0.0
C1550 C 0.3614 0.24241 0.89784 0.0
C1551 C 0.37245 0.25339 0.88927 0.0
H1552 H 0.73072 0.40306 0.86749 0.0
H1553 H 0.72527 0.36209 0.83154 0.0
H1554 H 0.74499 0.3448 0.84789 0.0
H1555 H 0.76397 0.34128 0.87216 0.0
H1556 H 0.76976 0.382 0.90829 0.0
H1557 H 0.74978 0.39941 0.89211 0.0
C1558 C 0.73382 0.39033 0.8633 0.0
C1559 C 0.72653 0.38388 0.84833 0.0
C1560 C 0.74528 0.38042 0.87274 0.0
C1561 C 0.7307 0.36737 0.84301 0.0
C1562 C 0.74199 0.35746 0.85234 0.0
C1563 C 0.76088 0.35398 0.8765 0.0
C1564 C 0.76835 0.36035 0.89137 0.0
C1565 C 0.7494 0.36387 0.86718 0.0
C1566 C 0.76419 0.37681 0.89685 0.0
C1567 C 0.75276 0.38676 0.88761 0.0
H1568 H 0.60171 0.74095 0.86437 0.0
H1569 H 0.64206 0.73108 0.82868 0.0
H1570 H 0.66154 0.74804 0.84561 0.0
H1571 H 0.6673 0.76559 0.87044 0.0
H1572 H 0.62739 0.77593 0.90641 0.0
H1573 H 0.60757 0.75895 0.8895 0.0
C1574 C 0.61476 0.74253 0.86034 0.0
C1575 C 0.62041 0.73474 0.84528 0.0
C1576 C 0.62598 0.7524 0.87016 0.0
C1577 C 0.63736 0.73692 0.8402 0.0
C1578 C 0.64854 0.74663 0.84987 0.0
C1579 C 0.65426 0.76416 0.8746 0.0
C1580 C 0.64883 0.77201 0.88966 0.0
C1581 C 0.643 0.75442 0.86485 0.0
C1582 C 0.63188 0.77002 0.89485 0.0
C1583 C 0.62055 0.7603 0.88519 0.0
H1584 H 0.76561 0.62721 0.09747 0.0
H1585 H 0.77785 0.66258 0.13747 0.0
H1586 H 0.76001 0.64687 0.1572 0.0
H1587 H 0.7407 0.62342 0.16315 0.0
H1588 H 0.72776 0.58799 0.1235 0.0
H1589 H 0.74601 0.60339 0.10358 0.0
C1590 C 0.76442 0.63139 0.11053 0.0
C1591 C 0.77306 0.64603 0.11599 0.0
C1592 C 0.75394 0.62235 0.12185 0.0
C1593 C 0.77132 0.65137 0.13292 0.0
C1594 C 0.76111 0.6424 0.14423 0.0
C1595 C 0.74185 0.61906 0.15014 0.0
C1596 C 0.73288 0.60461 0.1448 0.0
C1597 C 0.7523 0.62795 0.13882 0.0
C1598 C 0.73451 0.59912 0.12791 0.0
C1599 C 0.74497 0.6079 0.11653 0.0
H1600 H 0.36371 0.76566 0.09882 0.0
H1601 H 0.32905 0.77361 0.14046 0.0
H1602 H 0.34658 0.75589 0.15878 0.0
H1603 H 0.37163 0.73806 0.16303 0.0
H1604 H 0.40623 0.72951 0.1215 0.0
H1605 H 0.38883 0.74744 0.10306 0.0
C1606 C 0.36006 0.76355 0.11192 0.0
C1607 C 0.34513 0.77097 0.11828 0.0
C1608 C 0.37013 0.75318 0.12238 0.0
C1609 C 0.34048 0.76804 0.13525 0.0
C1610 C 0.35049 0.7579 0.14574 0.0
C1611 C 0.37535 0.74009 0.14993 0.0
C1612 C 0.39019 0.73247 0.14363 0.0
C1613 C 0.3653 0.75037 0.13944 0.0
C1614 C 0.39484 0.73521 0.12663 0.0
C1615 C 0.38491 0.74549 0.1161 0.0
H1616 H 0.63651 0.23338 0.09392 0.0
H1617 H 0.6691 0.22317 0.13672 0.0
H1618 H 0.65199 0.24177 0.15454 0.0
H1619 H 0.62812 0.2613 0.15795 0.0
H1620 H 0.59564 0.27218 0.11526 0.0
H1621 H 0.61237 0.25306 0.09741 0.0
C1622 C 0.63977 0.23516 0.10717 0.0
C1623 C 0.65403 0.22689 0.11399 0.0
C1624 C 0.62997 0.24609 0.11734 0.0
C1625 C 0.65819 0.2294 0.13116 0.0
C1626 C 0.64843 0.24006 0.14136 0.0
C1627 C 0.62471 0.25951 0.14473 0.0
C1628 C 0.6107 0.26817 0.13793 0.0
C1629 C 0.63438 0.24855 0.13457 0.0
C1630 C 0.60642 0.2657 0.12079 0.0
C1631 C 0.61596 0.25474 0.11059 0.0
H1632 H 0.87155 0.76365 0.66629 0.0
H1633 H 0.91225 0.77091 0.63044 0.0
H1634 H 0.8976 0.75269 0.60992 0.0
H1635 H 0.87309 0.73449 0.60231 0.0
H1636 H 0.83269 0.72769 0.63868 0.0
H1637 H 0.8474 0.74586 0.65883 0.0
C1638 C 0.87722 0.7613 0.65397 0.0
C1639 C 0.89294 0.76863 0.64989 0.0
C1640 C 0.8688 0.75082 0.64233 0.0
C1641 C 0.90013 0.76543 0.63388 0.0
C1642 C 0.89177 0.75499 0.62216 0.0
C1643 C 0.86757 0.73697 0.61466 0.0
C1644 C 0.85183 0.72972 0.61897 0.0
C1645 C 0.8761 0.74756 0.62627 0.0
C1646 C 0.84479 0.73309 0.63501 0.0
C1647 C 0.85318 0.74351 0.64657 0.0
H1648 H 0.23593 0.86899 0.65898 0.0
H1649 H 0.23449 0.90814 0.62074 0.0
H1650 H 0.25227 0.89082 0.60209 0.0
H1651 H 0.26822 0.86442 0.59668 0.0
H1652 H 0.26922 0.82537 0.63509 0.0
H1653 H 0.2517 0.84282 0.65364 0.0
C1654 C 0.23948 0.87373 0.64655 0.0
C1655 C 0.2339 0.8898 0.64124 0.0
C1656 C 0.24968 0.86374 0.63594 0.0
C1657 C 0.23862 0.89578 0.62511 0.0
C1658 C 0.2488 0.8859 0.61445 0.0
C1659 C 0.26463 0.85978 0.60913 0.0
C1660 C 0.27003 0.84364 0.6145 0.0
C1661 C 0.25443 0.86986 0.61974 0.0
C1662 C 0.26524 0.83775 0.63064 0.0
C1663 C 0.2552 0.84771 0.64127 0.0
H1664 H 0.13175 0.23752 0.66233 0.0
H1665 H 0.09667 0.22932 0.62112 0.0
H1666 H 0.11378 0.24754 0.60269 0.0
H1667 H 0.13884 0.26585 0.59834 0.0
H1668 H 0.17394 0.27344 0.63969 0.0
H1669 H 0.15664 0.25551 0.65802 0.0
C1670 C 0.12786 0.23969 0.6493 0.0
C1671 C 0.11299 0.23208 0.64309 0.0
C1672 C 0.13773 0.25014 0.63882 0.0
C1673 C 0.10811 0.23501 0.62619 0.0
C1674 C 0.11786 0.24545 0.61566 0.0
C1675 C 0.14263 0.26363 0.61139 0.0
C1676 C 0.15762 0.27099 0.61766 0.0
C1677 C 0.13269 0.25312 0.62185 0.0
C1678 C 0.16246 0.26792 0.63455 0.0
C1679 C 0.15259 0.25765 0.64505 0.0
H1680 H 0.76903 0.13138 0.66222 0.0
H1681 H 0.76633 0.08803 0.62889 0.0
H1682 H 0.74773 0.10369 0.60968 0.0
H1683 H 0.73224 0.12974 0.60232 0.0
H1684 H 0.73471 0.17296 0.63585 0.0
H1685 H 0.75338 0.15732 0.65499 0.0
C1686 C 0.76437 0.12537 0.65075 0.0
C1687 C 0.76906 0.10859 0.64697 0.0
C1688 C 0.75364 0.13443 0.63979 0.0
C1689 C 0.7629 0.10094 0.63209 0.0
C1690 C 0.75227 0.10989 0.62109 0.0
C1691 C 0.73688 0.13573 0.61381 0.0
C1692 C 0.73212 0.15248 0.61765 0.0
C1693 C 0.74756 0.12664 0.6248 0.0
C1694 C 0.73818 0.16007 0.63261 0.0
C1695 C 0.74887 0.15114 0.64356 0.0
H1696 H 0.87033 0.23693 0.33245 0.0
H1697 H 0.90695 0.2272 0.37193 0.0
H1698 H 0.89114 0.24561 0.39136 0.0
H1699 H 0.86654 0.26428 0.39716 0.0
H1700 H 0.82995 0.2733 0.35742 0.0
H1701 H 0.84616 0.25547 0.33807 0.0
C1702 C 0.87487 0.23881 0.34531 0.0
C1703 C 0.88977 0.23068 0.35075 0.0
C1704 C 0.86573 0.24936 0.35636 0.0
C1705 C 0.89548 0.23329 0.36745 0.0
C1706 C 0.88646 0.24384 0.37855 0.0
C1707 C 0.86221 0.26241 0.38423 0.0
C1708 C 0.84707 0.27012 0.37874 0.0
C1709 C 0.87153 0.25193 0.37315 0.0
C1710 C 0.84154 0.2675 0.36199 0.0
C1711 C 0.85079 0.25729 0.3509 0.0
H1712 H 0.76491 0.87174 0.33741 0.0
H1713 H 0.77448 0.9098 0.37555 0.0
H1714 H 0.75698 0.89404 0.39587 0.0
H1715 H 0.73872 0.86933 0.40268 0.0
H1716 H 0.72988 0.83137 0.36418 0.0
H1717 H 0.74726 0.84721 0.34418 0.0
C1718 C 0.7632 0.8766 0.35018 0.0
C1719 C 0.77097 0.89192 0.35495 0.0
C1720 C 0.7532 0.86748 0.36174 0.0
C1721 C 0.76865 0.89801 0.37156 0.0
C1722 C 0.75862 0.88902 0.38317 0.0
C1723 C 0.7406 0.86457 0.38991 0.0
C1724 C 0.73297 0.8492 0.38495 0.0
C1725 C 0.75078 0.87374 0.37839 0.0
C1726 C 0.73559 0.84315 0.36836 0.0
C1727 C 0.74555 0.8522 0.35688 0.0
H1728 H 0.13123 0.73513 0.4046 0.0
H1729 H 0.17003 0.7265 0.36692 0.0
H1730 H 0.15478 0.74422 0.34674 0.0
H1731 H 0.13049 0.76202 0.33962 0.0
H1732 H 0.09156 0.77121 0.37696 0.0
H1733 H 0.10681 0.75351 0.39746 0.0
C1734 C 0.1363 0.73713 0.39197 0.0
C1735 C 0.15171 0.72948 0.38727 0.0
C1736 C 0.12748 0.74747 0.38037 0.0
C1737 C 0.15818 0.73223 0.37087 0.0
C1738 C 0.14948 0.74237 0.3593 0.0
C1739 C 0.12535 0.7602 0.35226 0.0
C1740 C 0.10993 0.7679 0.35676 0.0
C1741 C 0.13414 0.75004 0.36391 0.0
C1742 C 0.10344 0.76543 0.37319 0.0
C1743 C 0.11213 0.75529 0.3849 0.0
H1744 H 0.23145 0.13128 0.34175 0.0
H1745 H 0.22744 0.09289 0.38058 0.0
H1746 H 0.24617 0.10938 0.39905 0.0
H1747 H 0.26394 0.13468 0.40402 0.0
H1748 H 0.26779 0.17285 0.36491 0.0
H1749 H 0.24892 0.15645 0.34671 0.0
C1750 C 0.23463 0.12654 0.35427 0.0
C1751 C 0.22807 0.11091 0.35979 0.0
C1752 C 0.24543 0.13602 0.36476 0.0
C1753 C 0.23233 0.10491 0.37604 0.0
C1754 C 0.24305 0.11432 0.3866 0.0
C1755 C 0.26065 0.13938 0.39151 0.0
C1756 C 0.26728 0.15494 0.38582 0.0
C1757 C 0.24973 0.12988 0.38107 0.0
C1758 C 0.26287 0.1609 0.36959 0.0
C1759 C 0.25207 0.15154 0.35917 0.0
H1760 H 0.63318 0.90644 0.76692 0.0
H1761 H 0.67031 0.86685 0.77407 0.0
H1762 H 0.65467 0.84838 0.75476 0.0
H1763 H 0.6305 0.84345 0.73582 0.0
H1764 H 0.59324 0.88289 0.72865 0.0
H1765 H 0.6089 0.90146 0.74794 0.0
C1766 C 0.63781 0.89376 0.76426 0.0
C1767 C 0.65286 0.88802 0.77191 0.0
C1768 C 0.62877 0.8832 0.75311 0.0
C1769 C 0.65874 0.87157 0.76835 0.0
C1770 C 0.64982 0.86099 0.75729 0.0
C1771 C 0.62583 0.85612 0.73845 0.0
C1772 C 0.61076 0.8618 0.73081 0.0
C1773 C 0.63484 0.86668 0.74959 0.0
C1774 C 0.60483 0.87823 0.73437 0.0
C1775 C 0.61376 0.88885 0.74541 0.0
H1776 H 0.15827 0.63262 0.73726 0.0
H1777 H 0.11846 0.59564 0.7306 0.0
H1778 H 0.0994 0.61276 0.74811 0.0
H1779 H 0.09417 0.63816 0.76561 0.0
H1780 H 0.13416 0.67503 0.77205 0.0
H1781 H 0.153 0.65802 0.75436 0.0
C1782 C 0.14541 0.62832 0.73961 0.0
C1783 C 0.13979 0.61289 0.73266 0.0
C1784 C 0.13455 0.63819 0.74968 0.0
C1785 C 0.12309 0.60749 0.73581 0.0
C1786 C 0.11219 0.61726 0.74583 0.0
C1787 C 0.10701 0.64245 0.76313 0.0
C1788 C 0.11276 0.65781 0.77016 0.0
C1789 C 0.1178 0.63261 0.75289 0.0
C1790 C 0.12941 0.66324 0.7668 0.0
C1791 C 0.14021 0.65353 0.75668 0.0
H1792 H 0.34008 0.12637 0.76563 0.0
H1793 H 0.37828 0.08778 0.77225 0.0
H1794 H 0.39751 0.10343 0.75345 0.0
H1795 H 0.40342 0.12836 0.73521 0.0
H1796 H 0.3648 0.16673 0.72918 0.0
H1797 H 0.34577 0.15083 0.74759 0.0
C1798 C 0.35262 0.12136 0.76299 0.0
C1799 C 0.35776 0.10596 0.77034 0.0
C1800 C 0.36352 0.13038 0.75221 0.0
C1801 C 0.37404 0.09964 0.76676 0.0
C1802 C 0.38502 0.10857 0.756 0.0
C1803 C 0.39081 0.13316 0.73788 0.0
C1804 C 0.38554 0.1487 0.73082 0.0
C1805 C 0.37989 0.12398 0.74864 0.0
C1806 C 0.36919 0.15482 0.73445 0.0
C1807 C 0.35828 0.14575 0.745 0.0
H1808 H 0.89544 0.3691 0.75846 0.0
H1809 H 0.8574 0.332 0.77175 0.0
H1810 H 0.83688 0.34614 0.75344 0.0
H1811 H 0.82971 0.3688 0.73345 0.0
H1812 H 0.86756 0.40585 0.71965 0.0
H1813 H 0.88817 0.39196 0.73827 0.0
C1814 C 0.88264 0.36418 0.75739 0.0
C1815 C 0.87796 0.34954 0.76648 0.0
C1816 C 0.87088 0.37231 0.74668 0.0
C1817 C 0.86134 0.34325 0.76489 0.0
C1818 C 0.84959 0.35131 0.7544 0.0
C1819 C 0.84247 0.37383 0.73449 0.0
C1820 C 0.8471 0.38832 0.72517 0.0
C1821 C 0.85423 0.36579 0.74519 0.0
C1822 C 0.86369 0.39469 0.72667 0.0
C1823 C 0.87547 0.38677 0.73734 0.0
H1824 H 0.65845 0.13262 0.23615 0.0
H1825 H 0.61816 0.09618 0.22928 0.0
H1826 H 0.59938 0.11332 0.24702 0.0
H1827 H 0.59445 0.13863 0.26455 0.0
H1828 H 0.63471 0.17514 0.27124 0.0
H1829 H 0.65348 0.15797 0.25356 0.0
C1830 C 0.64554 0.12846 0.23851 0.0
C1831 C 0.63969 0.11318 0.23141 0.0
C1832 C 0.63484 0.13835 0.24873 0.0
C1833 C 0.62295 0.10792 0.23458 0.0
C1834 C 0.61222 0.1177 0.24474 0.0
C1835 C 0.60735 0.14279 0.26217 0.0
C1836 C 0.6132 0.1581 0.26921 0.0
C1837 C 0.61804 0.13291 0.25191 0.0
C1838 C 0.62991 0.16338 0.26597 0.0
C1839 C 0.64065 0.15359 0.25585 0.0
H1840 H 0.87053 0.65059 0.2205 0.0
H1841 H 0.91726 0.6402 0.24696 0.0
H1842 H 0.90217 0.62111 0.26638 0.0
H1843 H 0.87519 0.60859 0.27673 0.0
H1844 H 0.8285 0.62116 0.25109 0.0
H1845 H 0.84405 0.63812 0.23044 0.0
C1846 C 0.87747 0.64401 0.2304 0.0
C1847 C 0.89497 0.64674 0.23227 0.0
C1848 C 0.86867 0.63352 0.24174 0.0
C1849 C 0.90375 0.63828 0.24527 0.0
C1850 C 0.89513 0.6274 0.25639 0.0
C1851 C 0.86851 0.61495 0.26653 0.0
C1852 C 0.85074 0.61366 0.26543 0.0
C1853 C 0.87752 0.6251 0.25489 0.0
C1854 C 0.84216 0.62206 0.25226 0.0
C1855 C 0.85104 0.63174 0.24042 0.0
H1856 H 0.3399 0.86926 0.23944 0.0
H1857 H 0.38051 0.90454 0.22923 0.0
H1858 H 0.39951 0.88823 0.24755 0.0
H1859 H 0.40447 0.86405 0.26669 0.0
H1860 H 0.36379 0.82878 0.27669 0.0
H1861 H 0.34491 0.84503 0.25829 0.0
C1862 C 0.35293 0.87335 0.24117 0.0
C1863 C 0.3588 0.88807 0.23299 0.0
C1864 C 0.36374 0.86396 0.25175 0.0
C1865 C 0.3757 0.89322 0.23538 0.0
C1866 C 0.38655 0.88393 0.24587 0.0
C1867 C 0.39146 0.85996 0.26487 0.0
C1868 C 0.38552 0.84527 0.27307 0.0
C1869 C 0.38069 0.86931 0.25418 0.0
C1870 C 0.36866 0.84006 0.27053 0.0
C1871 C 0.35786 0.84933 0.26 0.0
H1872 H 0.13638 0.40301 0.26901 0.0
H1873 H 0.17661 0.36608 0.27318 0.0
H1874 H 0.16106 0.34667 0.25489 0.0
H1875 H 0.13622 0.34006 0.23763 0.0
H1876 H 0.09566 0.37651 0.23324 0.0
H1877 H 0.11113 0.3962 0.25165 0.0
C1878 C 0.1417 0.39071 0.26592 0.0
C1879 C 0.15763 0.38602 0.27245 0.0
C1880 C 0.13266 0.37951 0.25533 0.0
C1881 C 0.16437 0.37003 0.26834 0.0
C1882 C 0.1555 0.35889 0.25785 0.0
C1883 C 0.13076 0.35232 0.24068 0.0
C1884 C 0.11485 0.35684 0.23407 0.0
C1885 C 0.13967 0.3635 0.25126 0.0
C1886 C 0.10791 0.37275 0.23817 0.0
C1887 C 0.11675 0.384 0.2487 0.0
H1888 H 0.76006 0.62809 0.90349 0.0
H1889 H 0.77306 0.66273 0.86311 0.0
H1890 H 0.75426 0.64756 0.84374 0.0
H1891 H 0.73411 0.62452 0.83823 0.0
H1892 H 0.72057 0.59011 0.87862 0.0
H1893 H 0.73949 0.60518 0.89805 0.0
C1894 C 0.75882 0.63225 0.89043 0.0
C1895 C 0.76798 0.64645 0.88472 0.0
C1896 C 0.74782 0.62358 0.87939 0.0
C1897 C 0.76615 0.65181 0.86781 0.0
C1898 C 0.75539 0.64316 0.85672 0.0
C1899 C 0.73525 0.62036 0.8513 0.0
C1900 C 0.72595 0.60624 0.85698 0.0
C1901 C 0.74613 0.62907 0.86238 0.0
C1902 C 0.72757 0.60099 0.87395 0.0
C1903 C 0.73842 0.60956 0.88505 0.0
H1904 H 0.76984 0.33256 0.13117 0.0
H1905 H 0.78337 0.37253 0.09628 0.0
H1906 H 0.76465 0.3922 0.11127 0.0
H1907 H 0.74406 0.39791 0.13408 0.0
H1908 H 0.73078 0.35786 0.169 0.0
H1909 H 0.74974 0.33837 0.15421 0.0
C1910 C 0.76874 0.34559 0.12688 0.0
C1911 C 0.77796 0.35107 0.11264 0.0
C1912 C 0.75794 0.35681 0.13554 0.0
C1913 C 0.77641 0.368 0.10723 0.0
C1914 C 0.76568 0.37924 0.11578 0.0
C1915 C 0.74533 0.38491 0.13844 0.0
C1916 C 0.73599 0.37933 0.15258 0.0
C1917 C 0.75632 0.37377 0.1299 0.0
C1918 C 0.73781 0.36248 0.15813 0.0
C1919 C 0.74866 0.35132 0.14968 0.0
H1920 H 0.63476 0.76734 0.10229 0.0
H1921 H 0.67628 0.76809 0.13798 0.0
H1922 H 0.66057 0.74936 0.15699 0.0
H1923 H 0.63528 0.73245 0.16333 0.0
H1924 H 0.59376 0.73131 0.12768 0.0
H1925 H 0.60923 0.75048 0.10878 0.0
C1926 C 0.64032 0.76345 0.11426 0.0
C1927 C 0.65665 0.7691 0.11872 0.0
C1928 C 0.63126 0.75256 0.1251 0.0
C1929 C 0.66373 0.76392 0.13425 0.0
C1930 C 0.65477 0.75319 0.14512 0.0
C1931 C 0.62961 0.73639 0.15142 0.0
C1932 C 0.61342 0.73045 0.14689 0.0
C1933 C 0.63857 0.74737 0.14064 0.0
C1934 C 0.60623 0.73569 0.13144 0.0
C1935 C 0.61506 0.74665 0.12064 0.0
H1936 H 0.2701 0.59765 0.1294 0.0
H1937 H 0.27568 0.63643 0.16768 0.0
H1938 H 0.25627 0.65484 0.15222 0.0
H1939 H 0.23736 0.65986 0.12815 0.0
H1940 H 0.23147 0.62136 0.0897 0.0
H1941 H 0.2513 0.60291 0.10489 0.0
C1942 C 0.26711 0.61015 0.13429 0.0
C1943 C 0.27432 0.61564 0.14966 0.0
C1944 C 0.25583 0.62071 0.12535 0.0
C1945 C 0.2703 0.63187 0.15588 0.0
C1946 C 0.25918 0.64243 0.14706 0.0
C1947 C 0.2404 0.64743 0.12309 0.0
C1948 C 0.23293 0.64196 0.10787 0.0
C1949 C 0.2518 0.63695 0.13185 0.0
C1950 C 0.23705 0.62585 0.10143 0.0
C1951 C 0.24839 0.6153 0.1101 0.0
H1952 H 0.36705 0.2301 0.09188 0.0
H1953 H 0.33065 0.22284 0.13215 0.0
H1954 H 0.34616 0.2427 0.15008 0.0
H1955 H 0.36978 0.26231 0.15431 0.0
H1956 H 0.40643 0.26988 0.11436 0.0
H1957 H 0.39107 0.24978 0.09628 0.0
C1958 C 0.36258 0.23282 0.10461 0.0
C1959 C 0.34772 0.22499 0.11067 0.0
C1960 C 0.37154 0.24437 0.11487 0.0
C1961 C 0.34204 0.22868 0.12717 0.0
C1962 C 0.35089 0.24007 0.13743 0.0
C1963 C 0.37441 0.25961 0.14163 0.0
C1964 C 0.38919 0.26761 0.13566 0.0
C1965 C 0.36559 0.24803 0.13139 0.0
C1966 C 0.39505 0.26391 0.11923 0.0
C1967 C 0.38629 0.2524 0.10891 0.0
H1968 H 0.26114 0.37787 0.83843 0.0
H1969 H 0.27205 0.41356 0.87849 0.0
H1970 H 0.25311 0.39815 0.89763 0.0
H1971 H 0.23346 0.3745 0.90295 0.0
H1972 H 0.22288 0.33871 0.86287 0.0
H1973 H 0.2416 0.35427 0.84372 0.0
C1974 C 0.2594 0.38225 0.85136 0.0
C1975 C 0.26798 0.39679 0.85706 0.0
C1976 C 0.2485 0.37336 0.86226 0.0
C1977 C 0.2656 0.40235 0.87383 0.0
C1978 C 0.25475 0.39358 0.88476 0.0
C1979 C 0.2352 0.37017 0.89 0.0
C1980 C 0.22679 0.35552 0.88431 0.0
C1981 C 0.24611 0.37909 0.8791 0.0
C1982 C 0.22922 0.34997 0.86754 0.0
C1983 C 0.23994 0.35884 0.85659 0.0
H1984 H 0.63559 0.23814 0.9048 0.0
H1985 H 0.67064 0.22883 0.86379 0.0
H1986 H 0.65269 0.24503 0.84444 0.0
H1987 H 0.62711 0.26188 0.83915 0.0
H1988 H 0.59227 0.27189 0.88016 0.0
H1989 H 0.61008 0.25545 0.89955 0.0
C1990 C 0.63925 0.23963 0.89161 0.0
C1991 C 0.65438 0.23225 0.88572 0.0
C1992 C 0.62895 0.24913 0.88058 0.0
C1993 C 0.65905 0.23437 0.86863 0.0
C1994 C 0.64879 0.24364 0.85756 0.0
C1995 C 0.62342 0.26048 0.85234 0.0
C1996 C 0.6084 0.26807 0.85821 0.0
C1997 C 0.63374 0.25109 0.8634 0.0
C1998 C 0.60381 0.26619 0.87534 0.0
C1999 C 0.61396 0.25676 0.88642 0.0
H2000 H 0.3452 0.76728 0.87291 0.0
H2001 H 0.38387 0.77025 0.91153 0.0
H2002 H 0.40239 0.75196 0.8946 0.0
H2003 H 0.40756 0.73515 0.86869 0.0
H2004 H 0.36882 0.73269 0.83007 0.0
H2005 H 0.35034 0.75069 0.84716 0.0
C2006 C 0.35769 0.76395 0.87763 0.0
C2007 C 0.36316 0.77011 0.89344 0.0
C2008 C 0.36823 0.75347 0.86783 0.0
C2009 C 0.37937 0.76568 0.89938 0.0
C2010 C 0.38995 0.75521 0.88971 0.0
C2011 C 0.39505 0.73852 0.86406 0.0
C2012 C 0.38956 0.73257 0.84815 0.0
C2013 C 0.38451 0.74901 0.87392 0.0
C2014 C 0.37335 0.7371 0.84227 0.0
C2015 C 0.36277 0.7474 0.85203 0.0
H2016 H 0.09473 0.22799 0.26711 0.0
H2017 H 0.06156 0.25589 0.30055 0.0
H2018 H 0.06087 0.2795 0.28051 0.0
H2019 H 0.07041 0.29262 0.25396 0.0
H2020 H 0.10402 0.26506 0.22069 0.0
H2021 H 0.10382 0.24093 0.24018 0.0
C2022 C 0.08726 0.2392 0.26994 0.0
C2023 C 0.07823 0.24021 0.28528 0.0
C2024 C 0.08707 0.25282 0.25844 0.0
C2025 C 0.06865 0.25482 0.28883 0.0
C2026 C 0.06826 0.26834 0.27739 0.0
C2027 C 0.07765 0.28131 0.25095 0.0
C2028 C 0.08725 0.28064 0.23595 0.0
C2029 C 0.07754 0.26754 0.26224 0.0
C2030 C 0.09656 0.2659 0.2322 0.0
C2031 C 0.09644 0.2521 0.24333 0.0
H2032 H 0.74303 0.06934 0.29156 0.0
H2033 H 0.77883 0.09677 0.26055 0.0
H2034 H 0.75852 0.09702 0.23704 0.0
H2035 H 0.73002 0.09043 0.22575 0.0
H2036 H 0.6944 0.06319 0.25722 0.0
H2037 H 0.71522 0.06184 0.28004 0.0
C2038 C 0.74644 0.07529 0.27963 0.0
C2039 C 0.76238 0.08308 0.27782 0.0
C2040 C 0.7347 0.07546 0.26625 0.0
C2041 C 0.76662 0.0907 0.26226 0.0
C2042 C 0.755 0.09087 0.24883 0.0
C2043 C 0.72688 0.08411 0.23757 0.0
C2044 C 0.71066 0.07698 0.2398 0.0
C2045 C 0.73892 0.08344 0.25074 0.0
C2046 C 0.70677 0.06882 0.25518 0.0
C2047 C 0.71867 0.06805 0.26826 0.0
H2048 H 0.93699 0.73451 0.23445 0.0
H2049 H 0.88491 0.71982 0.2427 0.0
H2050 H 0.88194 0.74179 0.26436 0.0
H2051 H 0.89453 0.76429 0.28189 0.0
H2052 H 0.94668 0.77885 0.27379 0.0
H2053 H 0.94918 0.75795 0.25103 0.0
C2054 C 0.92497 0.73619 0.24093 0.0
C2055 C 0.91122 0.72551 0.23705 0.0
C2056 C 0.92336 0.74883 0.25339 0.0
C2057 C 0.8957 0.72787 0.24548 0.0
C2058 C 0.89399 0.74042 0.25788 0.0
C2059 C 0.90639 0.76299 0.27504 0.0
C2060 C 0.92041 0.77305 0.27956 0.0
C2061 C 0.90779 0.75085 0.26207 0.0
C2062 C 0.9357 0.77123 0.27057 0.0
C2063 C 0.93716 0.75926 0.25758 0.0
H2064 H 0.25358 0.93057 0.29243 0.0
H2065 H 0.21812 0.90364 0.26059 0.0
H2066 H 0.23899 0.90294 0.23763 0.0
H2067 H 0.2677 0.90932 0.2269 0.0
H2068 H 0.30308 0.93593 0.25914 0.0
H2069 H 0.28186 0.93745 0.28159 0.0
C2070 C 0.25039 0.92461 0.28044 0.0
C2071 C 0.23435 0.91714 0.27823 0.0
C2072 C 0.26246 0.92417 0.26737 0.0
C2073 C 0.2304 0.90947 0.26262 0.0
C2074 C 0.24233 0.90905 0.24949 0.0
C2075 C 0.27071 0.91551 0.23881 0.0
C2076 C 0.28695 0.92247 0.24136 0.0
C2077 C 0.25845 0.91626 0.25176 0.0
C2078 C 0.29069 0.93045 0.25687 0.0
C2079 C 0.27856 0.93132 0.26973 0.0
H2080 H 0.06664 0.71607 0.74826 0.0
H2081 H 0.09174 0.74717 0.78569 0.0
H2082 H 0.09293 0.77075 0.76554 0.0
H2083 H 0.08784 0.78212 0.73687 0.0
H2084 H 0.06303 0.75072 0.69948 0.0
H2085 H 0.06069 0.72769 0.72005 0.0
C2086 C 0.07227 0.72804 0.75205 0.0
C2087 C 0.07913 0.72986 0.76842 0.0
C2088 C 0.07303 0.74147 0.74039 0.0
C2089 C 0.08638 0.74545 0.77315 0.0
C2090 C 0.0871 0.75893 0.76163 0.0
C2091 C 0.08184 0.77026 0.73327 0.0
C2092 C 0.07568 0.7681 0.71666 0.0
C2093 C 0.08062 0.75702 0.74515 0.0
C2094 C 0.06792 0.75269 0.71217 0.0
C2095 C 0.06658 0.7395 0.72392 0.0
H2096 H 0.26653 0.091 0.778 0.0
H2097 H 0.29996 0.06025 0.7474 0.0
H2098 H 0.27878 0.05919 0.7249 0.0
H2099 H 0.25125 0.0677 0.71347 0.0
H2100 H 0.21759 0.09852 0.74367 0.0
H2101 H 0.23833 0.09878 0.76681 0.0
C2102 C 0.26912 0.08401 0.76643 0.0
C2103 C 0.28482 0.07577 0.76435 0.0
C2104 C 0.25687 0.08348 0.75347 0.0
C2105 C 0.288 0.06674 0.74931 0.0
C2106 C 0.2759 0.06612 0.73642 0.0
C2107 C 0.2484 0.07442 0.72515 0.0
C2108 C 0.23295 0.08313 0.72684 0.0
C2109 C 0.26037 0.07456 0.7383 0.0
C2110 C 0.22942 0.09172 0.74206 0.0
C2111 C 0.24128 0.0919 0.75527 0.0
H2112 H 0.93079 0.29254 0.74508 0.0
H2113 H 0.9008 0.26381 0.78078 0.0
H2114 H 0.90034 0.2397 0.76129 0.0
H2115 H 0.90769 0.22712 0.73372 0.0
H2116 H 0.93771 0.25587 0.69806 0.0
H2117 H 0.93896 0.27961 0.71794 0.0
C2118 C 0.92423 0.28097 0.74862 0.0
C2119 C 0.9158 0.27998 0.76431 0.0
C2120 C 0.92398 0.26718 0.73735 0.0
C2121 C 0.90738 0.2649 0.76876 0.0
C2122 C 0.90708 0.25111 0.75761 0.0
C2123 C 0.91455 0.23856 0.73033 0.0
C2124 C 0.92253 0.23977 0.71443 0.0
C2125 C 0.91521 0.25217 0.74182 0.0
C2126 C 0.93143 0.25464 0.71023 0.0
C2127 C 0.93215 0.26823 0.72158 0.0
H2128 H 0.71067 0.93394 0.75176 0.0
H2129 H 0.74033 0.90704 0.78906 0.0
H2130 H 0.76376 0.90451 0.76883 0.0
H2131 H 0.77535 0.90905 0.74005 0.0
H2132 H 0.74522 0.93581 0.70296 0.0
H2133 H 0.72247 0.93927 0.72358 0.0
C2134 C 0.72231 0.92763 0.75551 0.0
C2135 C 0.72376 0.92066 0.77186 0.0
C2136 C 0.73561 0.92611 0.74381 0.0
C2137 C 0.73891 0.91252 0.77654 0.0
C2138 C 0.75229 0.91103 0.76496 0.0
C2139 C 0.76382 0.91567 0.73653 0.0
C2140 C 0.76195 0.92209 0.71998 0.0
C2141 C 0.75071 0.91761 0.74849 0.0
C2142 C 0.74697 0.9307 0.7156 0.0
C2143 C 0.73393 0.9327 0.72739 0.0
H2144 H 0.22148 0.09209 0.26973 0.0
H2145 H 0.2516 0.06211 0.30429 0.0
H2146 H 0.27436 0.06052 0.28345 0.0
H2147 H 0.28617 0.06833 0.25588 0.0
H2148 H 0.2566 0.09847 0.22108 0.0
H2149 H 0.23316 0.09925 0.24147 0.0
C2150 C 0.23299 0.08514 0.27263 0.0
C2151 C 0.23485 0.07728 0.28856 0.0
C2152 C 0.24615 0.08433 0.26057 0.0
C2153 C 0.24985 0.06832 0.29215 0.0
C2154 C 0.26289 0.0674 0.28024 0.0
C2155 C 0.27457 0.07501 0.2527 0.0
C2156 C 0.27314 0.08337 0.23701 0.0
C2157 C 0.26125 0.07547 0.26448 0.0
C2158 C 0.25801 0.09194 0.23309 0.0
C2159 C 0.24462 0.09241 0.24475 0.0
H2160 H 0.91187 0.2711 0.22662 0.0
H2161 H 0.94325 0.30335 0.25783 0.0
H2162 H 0.94424 0.28152 0.27978 0.0
H2163 H 0.93547 0.25362 0.29052 0.0
H2164 H 0.90375 0.22148 0.25956 0.0
H2165 H 0.90366 0.24286 0.23711 0.0
C2166 C 0.91899 0.2733 0.23819 0.0
C2167 C 0.92744 0.28883 0.2406 0.0
C2168 C 0.91941 0.26073 0.25083 0.0
C2169 C 0.93661 0.29151 0.25567 0.0
C2170 C 0.93717 0.27904 0.26824 0.0
C2171 C 0.9286 0.25127 0.27883 0.0
C2172 C 0.9196 0.23602 0.27673 0.0
C2173 C 0.92851 0.26366 0.26602 0.0
C2174 C 0.91076 0.23314 0.26151 0.0
C2175 C 0.91069 0.24537 0.24866 0.0
H2176 H 0.74771 0.93613 0.28861 0.0
H2177 H 0.78 0.89993 0.26327 0.0
H2178 H 0.75996 0.89823 0.23968 0.0
H2179 H 0.73277 0.90638 0.22664 0.0
H2180 H 0.70032 0.94216 0.2524 0.0
H2181 H 0.72093 0.94474 0.27534 0.0
C2182 C 0.75039 0.92792 0.2779 0.0
C2183 C 0.76528 0.91814 0.27771 0.0
C2184 C 0.73877 0.92692 0.26443 0.0
C2185 C 0.76859 0.90756 0.26373 0.0
C2186 C 0.75714 0.90658 0.25023 0.0
C2187 C 0.73029 0.91482 0.23722 0.0
C2188 C 0.71505 0.92404 0.23783 0.0
C2189 C 0.74213 0.91611 0.2505 0.0
C2190 C 0.71196 0.93489 0.25165 0.0
C2191 C 0.72372 0.93637 0.26479 0.0
H2192 H 0.06608 0.7055 0.25207 0.0
H2193 H 0.10067 0.73183 0.21877 0.0
H2194 H 0.10206 0.75557 0.23864 0.0
H2195 H 0.09406 0.76852 0.26582 0.0
H2196 H 0.05971 0.74209 0.2993 0.0
H2197 H 0.05758 0.71875 0.279 0.0
C2198 C 0.07387 0.71647 0.24914 0.0
C2199 C 0.08328 0.71689 0.234 0.0
C2200 C 0.07467 0.73004 0.26067 0.0
C2201 C 0.09331 0.73118 0.23036 0.0
C2202 C 0.09413 0.74476 0.24172 0.0
C2203 C 0.08605 0.75768 0.26864 0.0
C2204 C 0.07708 0.75702 0.28404 0.0
C2205 C 0.08495 0.74427 0.25696 0.0
C2206 C 0.06676 0.7429 0.28752 0.0
C2207 C 0.06554 0.72954 0.27593 0.0
H2208 H 0.22558 0.91155 0.73248 0.0
H2209 H 0.25931 0.93685 0.69751 0.0
H2210 H 0.28134 0.93795 0.7192 0.0
H2211 H 0.29146 0.93085 0.7477 0.0
H2212 H 0.2581 0.90534 0.78281 0.0
H2213 H 0.23548 0.90529 0.76153 0.0
C2214 C 0.23772 0.91737 0.72966 0.0
C2215 C 0.24082 0.92404 0.71338 0.0
C2216 C 0.25042 0.91791 0.7422 0.0
C2217 C 0.25661 0.93158 0.70992 0.0
C2218 C 0.26923 0.93221 0.72231 0.0
C2219 C 0.2792 0.92537 0.75074 0.0
C2220 C 0.27648 0.91807 0.76679 0.0
C2221 C 0.26633 0.92529 0.73844 0.0
C2222 C 0.26052 0.91103 0.77054 0.0
C2223 C 0.2476 0.91097 0.75837 0.0
H2224 H 0.08475 0.22513 0.73334 0.0
H2225 H 0.06261 0.25865 0.69614 0.0
H2226 H 0.0598 0.28088 0.7176 0.0
H2227 H 0.06482 0.29117 0.74661 0.0
H2228 H 0.08727 0.25768 0.78367 0.0
H2229 H 0.08867 0.235 0.76259 0.0
C2230 C 0.07923 0.23727 0.72995 0.0
C2231 C 0.07397 0.24028 0.71317 0.0
C2232 C 0.07773 0.24999 0.74231 0.0
C2233 C 0.06679 0.25605 0.70897 0.0
C2234 C 0.06519 0.26876 0.72122 0.0
C2235 C 0.0699 0.27886 0.7501 0.0
C2236 C 0.07598 0.27611 0.76664 0.0
C2237 C 0.07079 0.26593 0.73788 0.0
C2238 C 0.08252 0.26011 0.771 0.0
C2239 C 0.08336 0.24715 0.75895 0.0
H2240 H 0.74165 0.09403 0.77609 0.0
H2241 H 0.70543 0.06207 0.75025 0.0
H2242 H 0.72473 0.05907 0.72631 0.0
H2243 H 0.75138 0.06629 0.71217 0.0
H2244 H 0.78772 0.09844 0.73751 0.0
H2245 H 0.76896 0.10054 0.76216 0.0
C2246 C 0.73806 0.08633 0.76526 0.0
C2247 C 0.72211 0.07834 0.76494 0.0
C2248 C 0.74921 0.08473 0.75141 0.0
C2249 C 0.71762 0.06841 0.75081 0.0
C2250 C 0.72864 0.06668 0.73709 0.0
C2251 C 0.75524 0.07369 0.72311 0.0
C2252 C 0.77087 0.08224 0.72299 0.0
C2253 C 0.74438 0.07491 0.73717 0.0
C2254 C 0.77571 0.09175 0.73729 0.0
C2255 C 0.76499 0.09298 0.75138 0.0
H2256 H 0.93281 0.70349 0.75056 0.0
H2257 H 0.89928 0.72905 0.78548 0.0
H2258 H 0.89864 0.75391 0.76694 0.0
H2259 H 0.90701 0.76808 0.74043 0.0
H2260 H 0.9404 0.74238 0.70547 0.0
H2261 H 0.94175 0.71792 0.72445 0.0
C2262 C 0.9254 0.71452 0.75414 0.0
C2263 C 0.91607 0.71441 0.76934 0.0
C2264 C 0.92506 0.72874 0.74341 0.0
C2265 C 0.90656 0.72881 0.77382 0.0
C2266 C 0.90618 0.74303 0.76323 0.0
C2267 C 0.91465 0.75716 0.73701 0.0
C2268 C 0.92357 0.75703 0.72156 0.0
C2269 C 0.9153 0.74309 0.74794 0.0
C2270 C 0.93341 0.74279 0.71729 0.0
C2271 C 0.93417 0.72878 0.72812 0.0
H2272 H 0.22561 0.25946 0.08698 0.0
H2273 H 0.25627 0.29556 0.05949 0.0
H2274 H 0.27902 0.27467 0.05704 0.0
H2275 H 0.29065 0.24656 0.06378 0.0
H2276 H 0.26012 0.21063 0.09163 0.0
H2277 H 0.23683 0.23102 0.09281 0.0
C2278 C 0.23723 0.26271 0.08036 0.0
C2279 C 0.23929 0.27903 0.07349 0.0
C2280 C 0.25029 0.25069 0.07911 0.0
C2281 C 0.2544 0.28307 0.06493 0.0
C2282 C 0.26742 0.27115 0.06354 0.0
C2283 C 0.27886 0.24317 0.07001 0.0
C2284 C 0.27712 0.22716 0.07766 0.0
C2285 C 0.26557 0.25499 0.07074 0.0
C2286 C 0.26178 0.22291 0.08568 0.0
C2287 C 0.24846 0.23456 0.08637 0.0
H2288 H 0.25559 0.71459 0.93452 0.0
H2289 H 0.22427 0.7451 0.90158 0.0
H2290 H 0.24578 0.76742 0.90145 0.0
H2291 H 0.27385 0.77796 0.91007 0.0
H2292 H 0.30533 0.74722 0.94266 0.0
H2293 H 0.2834 0.72535 0.94358 0.0
C2294 C 0.25345 0.72615 0.92737 0.0
C2295 C 0.23838 0.72818 0.91806 0.0
C2296 C 0.26592 0.73889 0.92726 0.0
C2297 C 0.23579 0.74323 0.90884 0.0
C2298 C 0.24808 0.75599 0.90875 0.0
C2299 C 0.27586 0.76651 0.91744 0.0
C2300 C 0.29119 0.76421 0.92626 0.0
C2301 C 0.26325 0.75392 0.91782 0.0
C2302 C 0.29364 0.74929 0.93573 0.0
C2303 C 0.28112 0.73676 0.93626 0.0
H2304 H 0.22056 0.26971 0.90771 0.0
H2305 H 0.25036 0.30385 0.93847 0.0
H2306 H 0.27327 0.28311 0.93972 0.0
H2307 H 0.28533 0.2557 0.9313 0.0
H2308 H 0.25586 0.22161 0.9002 0.0
H2309 H 0.23239 0.24185 0.89989 0.0
C2310 C 0.23203 0.27254 0.91478 0.0
C2311 C 0.23376 0.2883 0.92295 0.0
C2312 C 0.24526 0.2606 0.91533 0.0
C2313 C 0.24871 0.29181 0.93203 0.0
C2314 C 0.26184 0.27997 0.93275 0.0
C2315 C 0.27374 0.25268 0.92451 0.0
C2316 C 0.27236 0.23721 0.91574 0.0
C2317 C 0.26033 0.2644 0.92431 0.0
C2318 C 0.25726 0.23346 0.90701 0.0
C2319 C 0.24383 0.24503 0.90683 0.0
H2320 H 0.74191 0.23268 0.91119 0.0
H2321 H 0.70512 0.26027 0.94089 0.0
H2322 H 0.72458 0.28426 0.94312 0.0
H2323 H 0.75155 0.29787 0.9357 0.0
H2324 H 0.7882 0.27067 0.9055 0.0
H2325 H 0.76934 0.24605 0.90445 0.0
C2326 C 0.73822 0.2439 0.91825 0.0
C2327 C 0.72209 0.24471 0.92583 0.0
C2328 C 0.74942 0.25774 0.91934 0.0
C2329 C 0.71745 0.25934 0.9349 0.0
C2330 C 0.72856 0.27308 0.93617 0.0
C2331 C 0.75545 0.28652 0.92897 0.0
C2332 C 0.77122 0.28611 0.92066 0.0
C2333 C 0.7445 0.27249 0.9283 0.0
C2334 C 0.77611 0.27131 0.91199 0.0
C2335 C 0.76532 0.25724 0.91137 0.0
H2336 H 0.71182 0.74705 0.93555 0.0
H2337 H 0.74049 0.78013 0.90266 0.0
H2338 H 0.76352 0.75943 0.90157 0.0
H2339 H 0.77509 0.73147 0.90916 0.0
H2340 H 0.74612 0.69819 0.9416 0.0
H2341 H 0.7237 0.71944 0.94374 0.0
C2342 C 0.72314 0.74975 0.92821 0.0
C2343 C 0.72443 0.76507 0.91916 0.0
C2344 C 0.73628 0.73775 0.92755 0.0
C2345 C 0.73917 0.76841 0.90971 0.0
C2346 C 0.75235 0.75658 0.90908 0.0
C2347 C 0.76392 0.72893 0.91679 0.0
C2348 C 0.76226 0.71328 0.92518 0.0
C2349 C 0.75099 0.74114 0.91783 0.0
C2350 C 0.7477 0.71014 0.93499 0.0
C2351 C 0.73485 0.72227 0.93621 0.0
H2352 H 0.77902 0.73371 0.08961 0.0
H2353 H 0.74735 0.69732 0.06367 0.0
H2354 H 0.72457 0.71816 0.06176 0.0
H2355 H 0.71317 0.74626 0.0685 0.0
H2356 H 0.74453 0.78271 0.09468 0.0
H2357 H 0.76793 0.76236 0.09535 0.0
C2358 C 0.76717 0.7304 0.08345 0.0
C2359 C 0.76485 0.71398 0.07686 0.0
C2360 C 0.75405 0.74243 0.08247 0.0
C2361 C 0.74944 0.70986 0.06889 0.0
C2362 C 0.73639 0.72176 0.0678 0.0
C2363 C 0.72516 0.74979 0.07425 0.0
C2364 C 0.7271 0.76592 0.08158 0.0
C2365 C 0.73849 0.73801 0.0747 0.0
C2366 C 0.74272 0.77034 0.08896 0.0
C2367 C 0.75609 0.7587 0.08938 0.0
H2368 H 0.24832 0.70804 0.0665 0.0
H2369 H 0.21294 0.73158 0.10098 0.0
H2370 H 0.23143 0.75642 0.10327 0.0
H2371 H 0.25822 0.77103 0.09619 0.0
H2372 H 0.29366 0.74693 0.06212 0.0
H2373 H 0.27456 0.72281 0.05891 0.0
C2374 C 0.24461 0.71864 0.07446 0.0
C2375 C 0.22931 0.71795 0.08358 0.0
C2376 C 0.25534 0.73279 0.07581 0.0
C2377 C 0.22468 0.73179 0.09384 0.0
C2378 C 0.23525 0.74599 0.09516 0.0
C2379 C 0.26169 0.76054 0.08798 0.0
C2380 C 0.27735 0.76076 0.07944 0.0
C2381 C 0.25069 0.74658 0.08631 0.0
C2382 C 0.2817 0.74706 0.06888 0.0
C2383 C 0.27079 0.73324 0.06703 0.0
H2384 H 0.74344 0.22239 0.09022 0.0
H2385 H 0.70588 0.25386 0.06581 0.0
H2386 H 0.72621 0.27714 0.06399 0.0
H2387 H 0.75435 0.28891 0.07019 0.0
H2388 H 0.79192 0.2576 0.09476 0.0
H2389 H 0.77195 0.2339 0.09558 0.0
C2390 C 0.73975 0.23432 0.08444 0.0
C2391 C 0.72318 0.23642 0.07822 0.0
C2392 C 0.75149 0.2477 0.08348 0.0
C2393 C 0.71856 0.25194 0.07072 0.0
C2394 C 0.73017 0.26527 0.06969 0.0
C2395 C 0.75819 0.27687 0.07563 0.0
C2396 C 0.77455 0.27502 0.08244 0.0
C2397 C 0.74662 0.26334 0.07615 0.0
C2398 C 0.77937 0.25935 0.08945 0.0
C2399 C 0.76796 0.24579 0.08995 0.0
H2400 H 0.59555 0.77258 0.72211 0.0
H2401 H 0.56136 0.80415 0.75098 0.0
H2402 H 0.56033 0.78293 0.77344 0.0
H2403 H 0.56984 0.75595 0.78542 0.0
H2404 H 0.60399 0.72407 0.75695 0.0
H2405 H 0.60428 0.7448 0.73379 0.0
C2406 C 0.5878 0.77474 0.73328 0.0
C2407 C 0.5786 0.78996 0.73488 0.0
C2408 C 0.5873 0.76246 0.74624 0.0
C2409 C 0.5686 0.79258 0.74942 0.0
C2410 C 0.56801 0.78045 0.7623 0.0
C2411 C 0.57731 0.75349 0.77413 0.0
C2412 C 0.58694 0.73854 0.77294 0.0
C2413 C 0.57743 0.76544 0.76093 0.0
C2414 C 0.59648 0.7355 0.75818 0.0
C2415 C 0.59667 0.74736 0.74495 0.0
H2416 H 0.22975 0.5959 0.72637 0.0
H2417 H 0.19855 0.56335 0.75748 0.0
H2418 H 0.22051 0.56281 0.7793 0.0
H2419 H 0.24809 0.57224 0.78995 0.0
H2420 H 0.27948 0.60486 0.75916 0.0
H2421 H 0.25796 0.60465 0.73675 0.0
C2422 C 0.2278 0.58864 0.7379 0.0
C2423 C 0.21252 0.57973 0.74033 0.0
C2424 C 0.24049 0.58841 0.75044 0.0
C2425 C 0.21019 0.57034 0.75531 0.0
C2426 C 0.22273 0.57003 0.7678 0.0
C2427 C 0.25027 0.57925 0.7783 0.0
C2428 C 0.26532 0.5886 0.77623 0.0
C2429 C 0.23785 0.57912 0.76556 0.0
C2430 C 0.26798 0.59757 0.76105 0.0
C2431 C 0.25567 0.59748 0.74826 0.0
H2432 H 0.4112 0.23652 0.7237 0.0
H2433 H 0.43783 0.20102 0.75578 0.0
H2434 H 0.43911 0.22212 0.77843 0.0
H2435 H 0.43129 0.25007 0.78967 0.0
H2436 H 0.40438 0.2855 0.75776 0.0
H2437 H 0.4047 0.26506 0.73445 0.0
C2438 C 0.41739 0.23346 0.7356 0.0
C2439 C 0.42431 0.21722 0.7381 0.0
C2440 C 0.41799 0.24561 0.74861 0.0
C2441 C 0.43235 0.21343 0.75356 0.0
C2442 C 0.43307 0.22547 0.76653 0.0
C2443 C 0.42562 0.25336 0.77757 0.0
C2444 C 0.41774 0.26921 0.77547 0.0
C2445 C 0.42573 0.24151 0.76428 0.0
C2446 C 0.41049 0.27334 0.75971 0.0
C2447 C 0.41063 0.26165 0.74638 0.0
H2448 H 0.71951 0.39961 0.76237 0.0
H2449 H 0.7436 0.43886 0.79201 0.0
H2450 H 0.76613 0.44128 0.77098 0.0
H2451 H 0.77961 0.43163 0.74471 0.0
H2452 H 0.75612 0.39199 0.71516 0.0
H2453 H 0.73277 0.39036 0.73554 0.0
C2454 C 0.72963 0.40876 0.76414 0.0
C2455 C 0.72989 0.41901 0.77874 0.0
C2456 C 0.74271 0.40998 0.75205 0.0
C2457 C 0.74312 0.43078 0.7809 0.0
C2458 C 0.75603 0.43218 0.76889 0.0
C2459 C 0.76934 0.42268 0.74269 0.0
C2460 C 0.76961 0.41193 0.72848 0.0
C2461 C 0.75605 0.42173 0.7545 0.0
C2462 C 0.75622 0.4004 0.72603 0.0
C2463 C 0.74287 0.39946 0.73768 0.0
H2464 H 0.56359 0.2145 0.24433 0.0
H2465 H 0.59371 0.24592 0.27755 0.0
H2466 H 0.595 0.268 0.2558 0.0
H2467 H 0.58852 0.27786 0.22693 0.0
H2468 H 0.55848 0.24636 0.1937 0.0
H2469 H 0.55616 0.22483 0.2159 0.0
C2470 C 0.57035 0.22622 0.24684 0.0
C2471 C 0.5786 0.22856 0.26249 0.0
C2472 C 0.5711 0.23881 0.23426 0.0
C2473 C 0.58727 0.24382 0.26559 0.0
C2474 C 0.58804 0.25643 0.25315 0.0
C2475 C 0.5814 0.26632 0.22458 0.0
C2476 C 0.57375 0.26366 0.20868 0.0
C2477 C 0.58015 0.25399 0.23738 0.0
C2478 C 0.56451 0.24868 0.20583 0.0
C2479 C 0.56319 0.23636 0.2185 0.0
H2480 H 0.79029 0.56437 0.25283 0.0
H2481 H 0.76384 0.60192 0.28261 0.0
H2482 H 0.74052 0.60194 0.26213 0.0
H2483 H 0.72828 0.59217 0.23508 0.0
H2484 H 0.75507 0.55488 0.20526 0.0
H2485 H 0.77761 0.55385 0.22647 0.0
C2486 C 0.77937 0.57248 0.25491 0.0
C2487 C 0.77881 0.58317 0.26918 0.0
C2488 C 0.76611 0.57252 0.24303 0.0
C2489 C 0.76457 0.59358 0.27171 0.0
C2490 C 0.75126 0.59362 0.25998 0.0
C2491 C 0.73901 0.58375 0.23328 0.0
C2492 C 0.74004 0.57367 0.21859 0.0
C2493 C 0.75198 0.58329 0.2455 0.0
C2494 C 0.754 0.5628 0.21644 0.0
C2495 C 0.7669 0.56221 0.22855 0.0
H2496 H 0.41614 0.72513 0.23407 0.0
H2497 H 0.43964 0.75934 0.19834 0.0
H2498 H 0.44101 0.7814 0.22009 0.0
H2499 H 0.43439 0.79134 0.24888 0.0
H2500 H 0.41047 0.75726 0.28445 0.0
H2501 H 0.41047 0.73473 0.26315 0.0
C2502 C 0.42165 0.73738 0.23108 0.0
C2503 C 0.42772 0.74063 0.21462 0.0
C2504 C 0.42228 0.75003 0.24359 0.0
C2505 C 0.43485 0.75654 0.21092 0.0
C2506 C 0.43562 0.76917 0.22334 0.0
C2507 C 0.42929 0.77894 0.252 0.0
C2508 C 0.42239 0.77598 0.26818 0.0
C2509 C 0.4292 0.76611 0.23966 0.0
C2510 C 0.41582 0.75986 0.27206 0.0
C2511 C 0.4158 0.74698 0.25989 0.0
H2512 H 0.27758 0.41193 0.2343 0.0
H2513 H 0.2451 0.43973 0.20008 0.0
H2514 H 0.22336 0.44172 0.22203 0.0
H2515 H 0.2131 0.43464 0.25046 0.0
H2516 H 0.24515 0.40653 0.28479 0.0
H2517 H 0.26759 0.40567 0.26332 0.0
C2518 C 0.26578 0.41851 0.2317 0.0
C2519 C 0.26293 0.42562 0.21556 0.0
C2520 C 0.25326 0.41952 0.24437 0.0
C2521 C 0.24759 0.43411 0.21237 0.0
C2522 C 0.23514 0.43525 0.22491 0.0
C2523 C 0.22503 0.42841 0.2533 0.0
C2524 C 0.22744 0.42061 0.26917 0.0
C2525 C 0.23777 0.42786 0.24088 0.0
C2526 C 0.24298 0.41261 0.27266 0.0
C2527 C 0.2558 0.41209 0.26037 0.0
H2528 H 0.71963 0.5809 0.76545 0.0
H2529 H 0.75288 0.5598 0.80348 0.0
H2530 H 0.77588 0.55823 0.78276 0.0
H2531 H 0.7869 0.56411 0.7542 0.0
H2532 H 0.75372 0.58551 0.71627 0.0
H2533 H 0.7303 0.58562 0.73656 0.0
C2534 C 0.73187 0.57585 0.76917 0.0
C2535 C 0.73457 0.57054 0.78598 0.0
C2536 C 0.74506 0.57509 0.75722 0.0
C2537 C 0.75049 0.56399 0.79061 0.0
C2538 C 0.76366 0.56312 0.77878 0.0
C2539 C 0.77451 0.56869 0.75035 0.0
C2540 C 0.77206 0.57486 0.73379 0.0
C2541 C 0.76114 0.56882 0.76211 0.0
C2542 C 0.75594 0.58072 0.72896 0.0
C2543 C 0.74255 0.58082 0.74056 0.0
H2544 H 0.41032 0.76804 0.72379 0.0
H2545 H 0.4407 0.80374 0.75212 0.0
H2546 H 0.44367 0.78328 0.77517 0.0
H2547 H 0.43686 0.75562 0.78772 0.0
H2548 H 0.4063 0.71994 0.75959 0.0
H2549 H 0.40425 0.73997 0.73601 0.0
C2550 C 0.41765 0.77129 0.73498 0.0
C2551 C 0.42522 0.78739 0.73628 0.0
C2552 C 0.41926 0.75949 0.74823 0.0
C2553 C 0.43471 0.79143 0.75083 0.0
C2554 C 0.43641 0.77975 0.76403 0.0
C2555 C 0.42984 0.7522 0.77639 0.0
C2556 C 0.42172 0.73637 0.77541 0.0
C2557 C 0.42863 0.7638 0.76293 0.0
C2558 C 0.41266 0.73209 0.76065 0.0
C2559 C 0.41145 0.74353 0.74717 0.0
H2560 H 0.24413 0.43501 0.79576 0.0
H2561 H 0.28375 0.41483 0.76387 0.0
H2562 H 0.26361 0.41187 0.74041 0.0
H2563 H 0.23442 0.41415 0.7293 0.0
H2564 H 0.19504 0.43445 0.76148 0.0
H2565 H 0.21539 0.43819 0.78446 0.0
C2566 C 0.24839 0.43006 0.78364 0.0
C2567 C 0.26538 0.42511 0.78156 0.0
C2568 C 0.23675 0.42832 0.77028 0.0
C2569 C 0.27072 0.41874 0.76578 0.0
C2570 C 0.2592 0.417 0.75239 0.0
C2571 C 0.23033 0.41942 0.74133 0.0
C2572 C 0.21323 0.42394 0.74369 0.0
C2573 C 0.24214 0.42159 0.75454 0.0
C2574 C 0.20812 0.43083 0.75933 0.0
C2575 C 0.21975 0.43299 0.7725 0.0
H2576 H 0.58919 0.26878 0.76948 0.0
H2577 H 0.55426 0.24128 0.80144 0.0
H2578 H 0.55309 0.21827 0.78069 0.0
H2579 H 0.56277 0.2055 0.75392 0.0
H2580 H 0.59818 0.23279 0.72229 0.0
H2581 H 0.59834 0.25635 0.74242 0.0
C2582 C 0.58124 0.25779 0.77185 0.0
C2583 C 0.57185 0.25672 0.78698 0.0
C2584 C 0.58076 0.24454 0.75995 0.0
C2585 C 0.56164 0.2424 0.7899 0.0
C2586 C 0.56097 0.22922 0.77805 0.0
C2587 C 0.57045 0.21665 0.7514 0.0
C2588 C 0.58047 0.21739 0.73667 0.0
C2589 C 0.57059 0.23009 0.76311 0.0
C2590 C 0.59037 0.2319 0.73357 0.0
C2591 C 0.59048 0.24537 0.74508 0.0
H2592 H 0.76221 0.41086 0.27617 0.0
H2593 H 0.79595 0.44346 0.24787 0.0
H2594 H 0.7761 0.44389 0.2242 0.0
H2595 H 0.75012 0.43372 0.21079 0.0
H2596 H 0.71623 0.4008 0.23841 0.0
H2597 H 0.7351 0.40185 0.2631 0.0
C2598 C 0.76509 0.41821 0.26489 0.0
C2599 C 0.78057 0.42704 0.26375 0.0
C2600 C 0.75366 0.41826 0.25116 0.0
C2601 C 0.78416 0.43648 0.24905 0.0
C2602 C 0.77283 0.43672 0.23548 0.0
C2603 C 0.74679 0.42685 0.22224 0.0
C2604 C 0.73187 0.41711 0.22274 0.0
C2605 C 0.7577 0.42744 0.23628 0.0
C2606 C 0.72768 0.40837 0.23771 0.0
C2607 C 0.73848 0.40894 0.25181 0.0
H2608 H 0.59612 0.7629 0.27367 0.0
H2609 H 0.56072 0.79524 0.24724 0.0
H2610 H 0.55928 0.77493 0.22389 0.0
H2611 H 0.56863 0.74839 0.21062 0.0
H2612 H 0.60409 0.716 0.23688 0.0
H2613 H 0.60492 0.73589 0.26068 0.0
C2614 C 0.58805 0.76546 0.26283 0.0
C2615 C 0.57858 0.78056 0.26217 0.0
C2616 C 0.58731 0.75374 0.2494 0.0
C2617 C 0.56815 0.78371 0.24805 0.0
C2618 C 0.56733 0.77211 0.23468 0.0
C2619 C 0.57649 0.74565 0.22158 0.0
C2620 C 0.58631 0.73077 0.22197 0.0
C2621 C 0.57694 0.75715 0.23517 0.0
C2622 C 0.59641 0.72738 0.23627 0.0
C2623 C 0.59691 0.73876 0.24987 0.0
H2624 H 0.28131 0.59349 0.23595 0.0
H2625 H 0.25316 0.56134 0.20168 0.0
H2626 H 0.23023 0.55903 0.22228 0.0
H2627 H 0.21755 0.56708 0.24945 0.0
H2628 H 0.24525 0.59953 0.28375 0.0
H2629 H 0.26897 0.60071 0.26379 0.0
C2630 C 0.27021 0.58589 0.23307 0.0
C2631 C 0.26892 0.57767 0.2173 0.0
C2632 C 0.25695 0.58471 0.24495 0.0
C2633 C 0.25445 0.56786 0.21372 0.0
C2634 C 0.24131 0.56653 0.22548 0.0
C2635 C 0.22882 0.57433 0.25261 0.0
C2636 C 0.22962 0.58325 0.26801 0.0
C2637 C 0.24233 0.57505 0.24104 0.0
C2638 C 0.24431 0.59257 0.27194 0.0
C2639 C 0.25787 0.59327 0.26053 0.0
H2640 H 0.43209 0.21544 0.24319 0.0
H2641 H 0.39454 0.24204 0.27282 0.0
H2642 H 0.3933 0.26449 0.25147 0.0
H2643 H 0.40241 0.27623 0.22403 0.0
H2644 H 0.43975 0.24942 0.19431 0.0
H2645 H 0.44159 0.22744 0.21606 0.0
C2646 C 0.42367 0.22617 0.24499 0.0
C2647 C 0.4134 0.22706 0.25953 0.0
C2648 C 0.42298 0.239 0.23264 0.0
C2649 C 0.40256 0.24105 0.2617 0.0
C2650 C 0.40184 0.25389 0.24951 0.0
C2651 C 0.411 0.26562 0.22236 0.0
C2652 C 0.4209 0.26444 0.20758 0.0
C2653 C 0.41193 0.25296 0.23488 0.0
C2654 C 0.43197 0.25061 0.20557 0.0
C2655 C 0.43303 0.23802 0.218 0.0
H2656 H 0.76624 0.72291 0.59175 0.0
H2657 H 0.80204 0.7524 0.56262 0.0
H2658 H 0.7814 0.77525 0.55988 0.0
H2659 H 0.75375 0.78749 0.56688 0.0
H2660 H 0.71783 0.7584 0.59621 0.0
H2661 H 0.73787 0.73475 0.59765 0.0
C2662 C 0.76945 0.73429 0.58471 0.0
C2663 C 0.78567 0.73599 0.57748 0.0
C2664 C 0.75752 0.74748 0.58325 0.0
C2665 C 0.78966 0.75079 0.56836 0.0
C2666 C 0.77787 0.76389 0.56679 0.0
C2667 C 0.75025 0.77593 0.57348 0.0
C2668 C 0.73438 0.77473 0.58148 0.0
C2669 C 0.76185 0.76246 0.57436 0.0
C2670 C 0.73 0.75965 0.58995 0.0
C2671 C 0.74147 0.74613 0.59082 0.0
H2672 H 0.75946 0.27314 0.40515 0.0
H2673 H 0.79556 0.2441 0.43432 0.0
H2674 H 0.77476 0.22143 0.4379 0.0
H2675 H 0.74665 0.20947 0.43205 0.0
H2676 H 0.71062 0.23818 0.40249 0.0
H2677 H 0.73102 0.2614 0.39982 0.0
C2678 C 0.76273 0.26188 0.41234 0.0
C2679 C 0.77902 0.26028 0.41942 0.0
C2680 C 0.75074 0.24883 0.41427 0.0
C2681 C 0.78311 0.24562 0.42871 0.0
C2682 C 0.77123 0.23264 0.43077 0.0
C2683 C 0.74323 0.22085 0.42511 0.0
C2684 C 0.72717 0.2221 0.41747 0.0
C2685 C 0.75506 0.23406 0.4235 0.0
C2686 C 0.72292 0.23691 0.40848 0.0
C2687 C 0.73459 0.25018 0.40693 0.0
H2688 H 0.76643 0.72548 0.41455 0.0
H2689 H 0.80096 0.75548 0.44466 0.0
H2690 H 0.78027 0.77847 0.44587 0.0
H2691 H 0.75313 0.79072 0.43698 0.0
H2692 H 0.71865 0.76104 0.40652 0.0
H2693 H 0.73853 0.73723 0.40688 0.0
C2694 C 0.76934 0.73698 0.42152 0.0
C2695 C 0.78522 0.73881 0.42944 0.0
C2696 C 0.75745 0.75025 0.422 0.0
C2697 C 0.78883 0.75378 0.43842 0.0
C2698 C 0.77703 0.76696 0.43909 0.0
C2699 C 0.74992 0.77901 0.43051 0.0
C2700 C 0.73451 0.77767 0.42164 0.0
C2701 C 0.76143 0.76544 0.43069 0.0
C2702 C 0.73047 0.76239 0.41339 0.0
C2703 C 0.74184 0.74878 0.41358 0.0
H2704 H 0.2367 0.72321 0.41124 0.0
H2705 H 0.2029 0.75077 0.44436 0.0
H2706 H 0.22318 0.77402 0.44614 0.0
H2707 H 0.24972 0.78727 0.43714 0.0
H2708 H 0.28368 0.76024 0.40382 0.0
H2709 H 0.26421 0.73603 0.40334 0.0
C2710 C 0.23388 0.73424 0.41896 0.0
C2711 C 0.21828 0.73529 0.42757 0.0
C2712 C 0.24558 0.74771 0.41983 0.0
C2713 C 0.21478 0.74966 0.43754 0.0
C2714 C 0.22636 0.763 0.43856 0.0
C2715 C 0.25293 0.77604 0.42986 0.0
C2716 C 0.26805 0.77558 0.42045 0.0
C2717 C 0.24167 0.76227 0.42957 0.0
C2718 C 0.27207 0.76091 0.41114 0.0
C2719 C 0.26094 0.74708 0.41084 0.0
H2720 H 0.24824 0.21304 0.43578 0.0
H2721 H 0.28178 0.24286 0.40441 0.0
H2722 H 0.26123 0.26608 0.40418 0.0
H2723 H 0.23324 0.27741 0.41194 0.0
H2724 H 0.19967 0.24745 0.44316 0.0
H2725 H 0.22076 0.22479 0.44444 0.0
C2726 C 0.2511 0.22467 0.42898 0.0
C2727 C 0.26647 0.22622 0.42007 0.0
C2728 C 0.2392 0.2379 0.42883 0.0
C2729 C 0.27002 0.24136 0.41135 0.0
C2730 C 0.25826 0.25462 0.41119 0.0
C2731 C 0.23058 0.26595 0.41909 0.0
C2732 C 0.2149 0.26407 0.42738 0.0
C2733 C 0.24274 0.25295 0.41973 0.0
C2734 C 0.21164 0.24919 0.43664 0.0
C2735 C 0.22368 0.23622 0.43737 0.0
H2736 H 0.24517 0.27173 0.59215 0.0
H2737 H 0.20652 0.24495 0.56408 0.0
H2738 H 0.22517 0.22044 0.56127 0.0
H2739 H 0.25198 0.20613 0.56773 0.0
H2740 H 0.29066 0.23257 0.59604 0.0
H2741 H 0.27254 0.25768 0.59775 0.0
C2742 C 0.2409 0.26057 0.58532 0.0
C2743 C 0.22447 0.26014 0.57839 0.0
C2744 C 0.25167 0.24643 0.58384 0.0
C2745 C 0.21909 0.24559 0.56957 0.0
C2746 C 0.22974 0.23155 0.56797 0.0
C2747 C 0.25648 0.21742 0.5742 0.0
C2748 C 0.2726 0.21747 0.5818 0.0
C2749 C 0.24598 0.23176 0.57521 0.0
C2750 C 0.27827 0.2322 0.59011 0.0
C2751 C 0.26792 0.24656 0.5911 0.0
H2752 H 0.76438 0.27423 0.58692 0.0
H2753 H 0.79697 0.24418 0.55476 0.0
H2754 H 0.77583 0.22165 0.55395 0.0
H2755 H 0.74894 0.20972 0.56365 0.0
H2756 H 0.7162 0.23913 0.59615 0.0
H2757 H 0.73646 0.26271 0.59547 0.0
C2758 C 0.76675 0.26281 0.57961 0.0
C2759 C 0.78226 0.26085 0.57099 0.0
C2760 C 0.75456 0.24976 0.57933 0.0
C2761 C 0.78517 0.24599 0.56157 0.0
C2762 C 0.7731 0.23307 0.56111 0.0
C2763 C 0.74616 0.22133 0.5705 0.0
C2764 C 0.73115 0.22265 0.58002 0.0
C2765 C 0.75789 0.23471 0.57015 0.0
C2766 C 0.7277 0.23781 0.58875 0.0
C2767 C 0.73929 0.25126 0.58839 0.0
H2768 H 0.27201 0.75585 0.59048 0.0
H2769 H 0.24452 0.79239 0.56034 0.0
H2770 H 0.22044 0.77307 0.55847 0.0
H2771 H 0.20657 0.74656 0.56664 0.0
H2772 H 0.23357 0.70998 0.59711 0.0
H2773 H 0.2585 0.72849 0.59752 0.0
C2774 C 0.2608 0.7595 0.58339 0.0
C2775 C 0.26001 0.77555 0.57564 0.0
C2776 C 0.24689 0.74836 0.58248 0.0
C2777 C 0.24542 0.78012 0.56648 0.0
C2778 C 0.23162 0.7691 0.56541 0.0
C2779 C 0.21795 0.74257 0.57327 0.0
C2780 C 0.2182 0.72698 0.5819 0.0
C2781 C 0.23213 0.75331 0.57356 0.0
C2782 C 0.23305 0.72195 0.59039 0.0
C2783 C 0.24729 0.73254 0.59066 0.0
H2784 H 0.02778 0.17997 0.30584 0.0
H2785 H 0.03111 0.20275 0.35551 0.0
H2786 H 0.00019 0.20267 0.35781 0.0
H2787 H 0.97215 0.1985 0.3446 0.0
H2788 H 0.96898 0.17587 0.29483 0.0
H2789 H 0.99982 0.1734 0.29376 0.0
C2790 C 0.02175 0.1847 0.31727 0.0
C2791 C 0.03173 0.19148 0.33042 0.0
C2792 C 0.00396 0.18476 0.31845 0.0
C2793 C 0.02372 0.19749 0.34518 0.0
C2794 C 0.00603 0.19752 0.34648 0.0
C2795 C 0.97821 0.19282 0.33362 0.0
C2796 C 0.96828 0.18751 0.31976 0.0
C2797 C 0.996 0.19155 0.33303 0.0
C2798 C 0.97631 0.18012 0.30565 0.0
C2799 C 0.99397 0.17874 0.305 0.0
H2800 H 0.79404 0.9756 0.34393 0.0
H2801 H 0.82469 0.97158 0.29875 0.0
H2802 H 0.82668 0.00247 0.29711 0.0
H2803 H 0.81796 0.03065 0.3073 0.0
H2804 H 0.78714 0.03463 0.35237 0.0
H2805 H 0.7871 0.00379 0.35533 0.0
C2806 C 0.80131 0.98148 0.33384 0.0
C2807 C 0.8091 0.97131 0.32142 0.0
C2808 C 0.80231 0.99927 0.3329 0.0
C2809 C 0.81853 0.97912 0.30845 0.0
C2810 C 0.81964 0.9968 0.30747 0.0
C2811 C 0.8114 0.02477 0.31788 0.0
C2812 C 0.80247 0.03492 0.32953 0.0
C2813 C 0.81132 0.007 0.31944 0.0
C2814 C 0.79408 0.02711 0.3432 0.0
C2815 C 0.794 0.00946 0.34488 0.0
H2816 H 0.9744 0.82508 0.3107 0.0
H2817 H 0.9693 0.79782 0.35792 0.0
H2818 H 1.00014 0.79604 0.36044 0.0
H2819 H 0.02835 0.79963 0.34772 0.0
H2820 H 0.03335 0.82583 0.2999 0.0
H2821 H 0.00277 0.83075 0.29918 0.0
C2822 C 0.98004 0.81901 0.32169 0.0
C2823 C 0.9696 0.8115 0.33404 0.0
C2824 C 0.99776 0.81771 0.32286 0.0
C2825 C 0.97708 0.80366 0.3482 0.0
C2826 C 0.99471 0.80257 0.34962 0.0
C2827 C 0.02277 0.80663 0.33727 0.0
C2828 C 0.03306 0.81223 0.32382 0.0
C2829 C 0.00515 0.80915 0.33679 0.0
C2830 C 0.02567 0.8213 0.31037 0.0
C2831 C 0.00819 0.8241 0.30993 0.0
H2832 H 0.17847 0.02666 0.30761 0.0
H2833 H 0.1976 0.02934 0.35885 0.0
H2834 H 0.19808 0.99842 0.36051 0.0
H2835 H 0.19552 0.9707 0.34656 0.0
H2836 H 0.17683 0.96791 0.29517 0.0
H2837 H 0.17361 0.99875 0.29447 0.0
C2838 C 0.1825 0.02047 0.31922 0.0
C2839 C 0.1881 0.03028 0.33304 0.0
C2840 C 0.18296 0.00265 0.32002 0.0
C2841 C 0.19327 0.02208 0.34801 0.0
C2842 C 0.19362 0.00439 0.34896 0.0
C2843 C 0.19056 0.97683 0.33527 0.0
C2844 C 0.18657 0.96706 0.32089 0.0
C2845 C 0.18888 0.99456 0.33491 0.0
C2846 C 0.18006 0.97516 0.30639 0.0
C2847 C 0.17825 0.9928 0.30596 0.0
H2848 H 0.02728 0.82414 0.69986 0.0
H2849 H 0.03066 0.8111 0.64679 0.0
H2850 H 0.99976 0.80979 0.64493 0.0
H2851 H 0.972 0.80927 0.65912 0.0
H2852 H 0.96871 0.82154 0.71239 0.0
H2853 H 0.99929 0.82636 0.71339 0.0
C2854 C 0.02124 0.82132 0.68782 0.0
C2855 C 0.03125 0.81758 0.67353 0.0
C2856 C 0.00347 0.82027 0.68691 0.0
C2857 C 0.02324 0.81396 0.658 0.0
C2858 C 0.00557 0.81314 0.65694 0.0
C2859 C 0.97795 0.81324 0.67089 0.0
C2860 C 0.96813 0.81487 0.68569 0.0
C2861 C 0.99558 0.81578 0.67143 0.0
C2862 C 0.97599 0.82009 0.70082 0.0
C2863 C 0.9935 0.82282 0.70142 0.0
H2864 H 0.20101 0.03141 0.65597 0.0
H2865 H 0.17618 0.03246 0.70476 0.0
H2866 H 0.17436 0.00153 0.70474 0.0
H2867 H 0.18205 0.97413 0.69201 0.0
H2868 H 0.2073 0.97309 0.64343 0.0
H2869 H 0.20657 0.00404 0.64215 0.0
C2870 C 0.19501 0.02488 0.6665 0.0
C2871 C 0.18887 0.0342 0.68041 0.0
C2872 C 0.19417 0.00708 0.66649 0.0
C2873 C 0.18106 0.02557 0.69393 0.0
C2874 C 0.18006 0.00787 0.69395 0.0
C2875 C 0.18719 0.98067 0.68104 0.0
C2876 C 0.19483 0.97134 0.66791 0.0
C2877 C 0.1869 0.99848 0.68047 0.0
C2878 C 0.20139 0.97999 0.65375 0.0
C2879 C 0.20103 0.99769 0.65303 0.0
H2880 H 0.97283 0.19561 0.65119 0.0
H2881 H 0.96939 0.17532 0.70194 0.0
H2882 H 0.00024 0.17286 0.70327 0.0
H2883 H 0.02817 0.17947 0.69125 0.0
H2884 H 0.03166 0.20068 0.64088 0.0
H2885 H 0.00082 0.19958 0.63807 0.0
C2886 C 0.97883 0.1904 0.66243 0.0
C2887 C 0.96888 0.18583 0.67651 0.0
C2888 C 0.99658 0.1893 0.66322 0.0
C2889 C 0.97679 0.17903 0.69097 0.0
C2890 C 0.99443 0.17766 0.69176 0.0
C2891 C 0.02219 0.18359 0.67955 0.0
C2892 C 0.03214 0.19031 0.66636 0.0
C2893 C 0.00446 0.18321 0.67815 0.0
C2894 C 0.02425 0.19554 0.65126 0.0
C2895 C 0.00662 0.19497 0.64966 0.0
H2896 H 0.82099 0.02561 0.6972 0.0
H2897 H 0.80152 0.02987 0.64619 0.0
H2898 H 0.80171 0.99905 0.6433 0.0
H2899 H 0.80491 0.97087 0.65615 0.0
H2900 H 0.82384 0.9665 0.70734 0.0
H2901 H 0.82654 0.99732 0.70919 0.0
C2902 C 0.81701 0.01979 0.68538 0.0
C2903 C 0.81111 0.03 0.67199 0.0
C2904 C 0.81696 0.00202 0.68386 0.0
C2905 C 0.80604 0.02229 0.65673 0.0
C2906 C 0.80611 0.00465 0.65506 0.0
C2907 C 0.80985 0.97665 0.66762 0.0
C2908 C 0.81403 0.96643 0.68162 0.0
C2909 C 0.81116 0.99439 0.66868 0.0
C2910 C 0.82048 0.9741 0.69639 0.0
C2911 C 0.82197 0.99173 0.69748 0.0
H2912 H 0.30808 0.97334 0.18357 0.0
H2913 H 0.35613 0.97082 0.20966 0.0
H2914 H 0.35737 0.00176 0.21084 0.0
H2915 H 0.34371 0.02952 0.20642 0.0
H2916 H 0.29557 0.03189 0.18047 0.0
H2917 H 0.29551 0.00112 0.17722 0.0
C2918 C 0.31893 0.97957 0.18931 0.0
C2919 C 0.33193 0.96979 0.19661 0.0
C2920 C 0.31949 0.99737 0.1901 0.0
C2921 C 0.34593 0.97805 0.20397 0.0
C2922 C 0.34662 0.99576 0.20472 0.0
C2923 C 0.3333 0.0233 0.19991 0.0
C2924 C 0.31961 0.03297 0.19383 0.0
C2925 C 0.3333 0.00554 0.19814 0.0
C2926 C 0.30624 0.02474 0.18535 0.0
C2927 C 0.30617 0.00713 0.1835 0.0
H2928 H 0.97814 0.31082 0.18292 0.0
H2929 H 0.9751 0.36091 0.20484 0.0
H2930 H 0.00597 0.36321 0.20443 0.0
H2931 H 0.03379 0.3499 0.20046 0.0
H2932 H 0.03692 0.2996 0.17907 0.0
H2933 H 0.00606 0.29854 0.1765 0.0
C2934 C 0.98423 0.32233 0.18737 0.0
C2935 C 0.97438 0.3356 0.19405 0.0
C2936 C 0.002 0.32348 0.18731 0.0
C2937 C 0.98243 0.35047 0.19971 0.0
C2938 C 1.00008 0.35179 0.19953 0.0
C2939 C 0.02772 0.3388 0.19504 0.0
C2940 C 0.03758 0.32479 0.19013 0.0
C2941 C 0.00999 0.3382 0.19377 0.0
C2942 C 0.02958 0.31052 0.18302 0.0
C2943 C 0.01194 0.30988 0.18159 0.0
H2944 H 0.64869 0.9719 0.20087 0.0
H2945 H 0.69628 0.96826 0.17406 0.0
H2946 H 0.69754 0.99908 0.17158 0.0
H2947 H 0.68658 0.02714 0.17951 0.0
H2948 H 0.63925 0.03087 0.20675 0.0
H2949 H 0.63636 1.00003 0.20643 0.0
C2950 C 0.65919 0.97785 0.19426 0.0
C2951 C 0.67244 0.96782 0.18781 0.0
C2952 C 0.65996 0.99563 0.19307 0.0
C2953 C 0.68595 0.9757 0.17922 0.0
C2954 C 0.68672 0.99334 0.17784 0.0
C2955 C 0.67552 0.02121 0.18517 0.0
C2956 C 0.66325 0.03126 0.19328 0.0
C2957 C 0.67403 0.00345 0.1851 0.0
C2958 C 0.64894 0.02341 0.20049 0.0
C2959 C 0.64729 0.00576 0.20036 0.0
H2960 H 0.02775 0.69091 0.17956 0.0
H2961 H 0.03032 0.64433 0.2082 0.0
H2962 H 0.99937 0.64292 0.20909 0.0
H2963 H 0.97162 0.65618 0.20375 0.0
H2964 H 0.96916 0.70311 0.17565 0.0
H2965 H 0.99995 0.70305 0.17242 0.0
C2966 C 0.02153 0.68034 0.1858 0.0
C2967 C 0.03132 0.6678 0.19389 0.0
C2968 C 0.00373 0.67972 0.18646 0.0
C2969 C 0.02308 0.65417 0.20192 0.0
C2970 C 0.00537 0.65338 0.20247 0.0
C2971 C 0.97781 0.66627 0.19674 0.0
C2972 C 0.96812 0.67968 0.19005 0.0
C2973 C 0.99557 0.66627 0.1951 0.0
C2974 C 0.97632 0.69266 0.18098 0.0
C2975 C 0.99395 0.69267 0.17915 0.0
H2976 H 0.30418 0.97045 0.8225 0.0
H2977 H 0.35351 0.96331 0.79988 0.0
H2978 H 0.3583 0.99392 0.80014 0.0
H2979 H 0.3474 0.02285 0.80436 0.0
H2980 H 0.29794 0.02997 0.82668 0.0
H2981 H 0.29438 0.9993 0.82914 0.0
C2982 C 0.31607 0.97559 0.81784 0.0
C2983 C 0.3284 0.96464 0.81104 0.0
C2984 C 0.31869 0.99323 0.81788 0.0
C2985 C 0.34377 0.97147 0.80512 0.0
C2986 C 0.34651 0.98899 0.80522 0.0
C2987 C 0.33596 0.01769 0.81 0.0
C2988 C 0.32291 0.02867 0.8152 0.0
C2989 C 0.3339 1.00001 0.8112 0.0
C2990 C 0.30816 0.0218 0.82252 0.0
C2991 C 0.30608 0.00424 0.82388 0.0
H2992 H 0.02424 0.34466 0.79522 0.0
H2993 H 0.02642 0.30144 0.82878 0.0
H2994 H 0.99555 0.30108 0.8307 0.0
H2995 H 0.96792 0.31142 0.82096 0.0
H2996 H 0.96541 0.35428 0.78701 0.0
H2997 H 0.99637 0.35651 0.78726 0.0
C2998 C 0.01796 0.33533 0.80314 0.0
C2999 C 0.02762 0.32302 0.81174 0.0
C3000 C 1.00013 0.33505 0.80403 0.0
C3001 C 0.01929 0.31101 0.82196 0.0
C3002 C 0.00162 0.31076 0.82304 0.0
C3003 C 0.97413 0.32138 0.81377 0.0
C3004 C 0.96438 0.33258 0.80388 0.0
C3005 C 0.99191 0.32246 0.81383 0.0
C3006 C 0.97262 0.34547 0.7947 0.0
C3007 C 0.99033 0.34672 0.7948 0.0
H3008 H 0.65806 0.03062 0.80439 0.0
H3009 H 0.70614 0.03425 0.83031 0.0
H3010 H 0.70728 0.00342 0.83297 0.0
H3011 H 0.69593 0.97536 0.82559 0.0
H3012 H 0.64824 0.97162 0.79899 0.0
H3013 H 0.64556 0.00251 0.79907 0.0
C3014 C 0.66865 0.02467 0.81085 0.0
C3015 C 0.68205 0.0347 0.81703 0.0
C3016 C 0.66936 0.00689 0.81209 0.0
C3017 C 0.6957 0.02681 0.82537 0.0
C3018 C 0.69639 0.00917 0.82685 0.0
C3019 C 0.68485 0.9813 0.82001 0.0
C3020 C 0.67238 0.97123 0.81218 0.0
C3021 C 0.6835 0.99907 0.8199 0.0
C3022 C 0.65806 0.9791 0.80504 0.0
C3023 C 0.65654 0.99677 0.80504 0.0
H3024 H 0.97007 0.6897 0.82221 0.0
H3025 H 0.96992 0.64258 0.79433 0.0
H3026 H 0.00089 0.64263 0.79371 0.0
H3027 H 0.02792 0.65722 0.79908 0.0
H3028 H 0.02806 0.70463 0.82645 0.0
H3029 H 0.99724 0.70325 0.82938 0.0
C3030 C 0.97682 0.67933 0.81621 0.0
C3031 C 0.9677 0.66622 0.80824 0.0
C3032 C 0.99464 0.67955 0.81569 0.0
C3033 C 0.97664 0.65286 0.80051 0.0
C3034 C 0.99435 0.6529 0.80011 0.0
C3035 C 0.02122 0.66715 0.80584 0.0
C3036 C 0.03025 0.68106 0.81242 0.0
C3037 C 0.00348 0.66636 0.80734 0.0
C3038 C 0.0214 0.69381 0.82121 0.0
C3039 C 0.00377 0.69305 0.82286 0.0
H3040 H 0.19888 0.34722 0.02816 0.0
H3041 H 0.17272 0.29918 0.03099 0.0
H3042 H 0.16839 0.29947 1.00036 0.0
H3043 H 0.17471 0.31177 0.97253 0.0
H3044 H 0.20143 0.35945 0.9694 0.0
H3045 H 0.20265 0.36102 1.00035 0.0
C3046 C 0.192 0.33696 0.02209 0.0
C3047 C 0.1863 0.32312 0.0318 0.0
C3048 C 0.18974 0.33708 0.00439 0.0
C3049 C 0.17735 0.30994 0.02378 0.0
C3050 C 0.17489 0.31006 0.00625 0.0
C3051 C 0.18056 0.32264 0.97862 0.0
C3052 C 0.18812 0.33538 0.9687 0.0
C3053 C 0.18144 0.32332 0.99639 0.0
C3054 C 0.19557 0.34944 0.97677 0.0
C3055 C 0.19634 0.35031 0.99447 0.0
H3056 H 0.2012 0.65924 0.96972 0.0
H3057 H 0.17688 0.70827 0.96876 0.0
H3058 H 0.17327 0.70728 0.99955 0.0
H3059 H 0.17912 0.69351 0.02697 0.0
H3060 H 0.20404 0.64477 0.02783 0.0
H3061 H 0.20515 0.64455 0.99688 0.0
C3062 C 0.19495 0.66963 0.97623 0.0
C3063 C 0.18944 0.68386 0.967 0.0
C3064 C 0.19307 0.66906 0.99394 0.0
C3065 C 0.1813 0.69719 0.97559 0.0
C3066 C 0.17926 0.69666 0.9932 0.0
C3067 C 0.18457 0.68274 0.02036 0.0
C3068 C 0.19158 0.66923 0.02968 0.0
C3069 C 0.1854 0.6828 0.00254 0.0
C3070 C 0.19861 0.65536 0.02095 0.0
C3071 C 0.1993 0.65524 0.00325 0.0
H3072 H 0.30142 0.17561 0.02353 0.0
H3073 H 0.35262 0.19439 0.02811 0.0
H3074 H 0.35487 0.19625 0.9972 0.0
H3075 H 0.34122 0.1952 0.96903 0.0
H3076 H 0.28969 0.17716 0.96486 0.0
H3077 H 0.28869 0.17227 0.9954 0.0
C3078 C 0.31317 0.17987 0.01777 0.0
C3079 C 0.32679 0.18497 0.0281 0.0
C3080 C 0.31426 0.18119 1.00004 0.0
C3081 C 0.34194 0.19042 0.02044 0.0
C3082 C 0.34321 0.19156 0.00276 0.0
C3083 C 0.32987 0.18998 0.97479 0.0
C3084 C 0.3155 0.1867 0.96471 0.0
C3085 C 0.32929 0.1874 0.99245 0.0
C3086 C 0.30089 0.17991 0.97234 0.0
C3087 C 0.30029 0.17712 0.98982 0.0
H3088 H 0.82662 0.31321 0.97321 0.0
H3089 H 0.79663 0.35901 0.97314 0.0
H3090 H 0.79715 0.35964 0.0041 0.0
H3091 H 0.804 0.34588 0.03114 0.0
H3092 H 0.83352 0.2998 0.03141 0.0
H3093 H 0.83544 0.30066 0.00044 0.0
C3094 C 0.8204 0.32345 0.97998 0.0
C3095 C 0.8115 0.33597 0.9709 0.0
C3096 C 0.82057 0.32362 0.99781 0.0
C3097 C 0.80352 0.34918 0.97983 0.0
C3098 C 0.80377 0.34953 0.99754 0.0
C3099 C 0.81102 0.33613 0.02444 0.0
C3100 C 0.81849 0.32273 0.03353 0.0
C3101 C 0.81192 0.33661 0.00666 0.0
C3102 C 0.82762 0.31024 0.02469 0.0
C3103 C 0.82868 0.31069 0.00698 0.0
H3104 H 0.69551 0.82207 0.02901 0.0
H3105 H 0.65191 0.7894 0.03439 0.0
H3106 H 0.64843 0.78863 0.00359 0.0
H3107 H 0.65922 0.79531 0.97507 0.0
H3108 H 0.70305 0.82769 0.96976 0.0
H3109 H 0.7049 0.83061 0.00054 0.0
C3110 C 0.68512 0.81496 0.02345 0.0
C3111 C 0.67407 0.80571 0.03396 0.0
C3112 C 0.68329 0.81443 0.00572 0.0
C3113 C 0.66063 0.79659 0.02657 0.0
C3114 C 0.65866 0.7961 0.00895 0.0
C3115 C 0.66904 0.80316 0.98065 0.0
C3116 C 0.68105 0.81115 0.97015 0.0
C3117 C 0.67013 0.80467 0.99839 0.0
C3118 C 0.69368 0.82134 0.97756 0.0
C3119 C 0.69478 0.82299 0.99517 0.0
H3120 H 0.80192 0.64821 0.02782 0.0
H3121 H 0.82872 0.69581 0.03182 0.0
H3122 H 0.83112 0.69732 0.00102 0.0
H3123 H 0.8231 0.68668 0.97294 0.0
H3124 H 0.79586 0.63939 0.96864 0.0
H3125 H 0.79633 0.6361 0.99949 0.0
C3126 C 0.80852 0.65876 0.02195 0.0
C3127 C 0.81498 0.67195 0.03209 0.0
C3128 C 0.80968 0.65968 0.00415 0.0
C3129 C 0.82353 0.68553 0.0243 0.0
C3130 C 0.82488 0.68644 0.00667 0.0
C3131 C 0.81748 0.67552 0.97873 0.0
C3132 C 0.80932 0.66339 0.96853 0.0
C3133 C 0.81761 0.67383 0.99646 0.0
C3134 C 0.80219 0.64895 0.97622 0.0
C3135 C 0.80239 0.64709 0.99387 0.0
H3136 H 0.34486 0.80403 0.03471 0.0
H3137 H 0.29425 0.82484 0.03423 0.0
H3138 H 0.2955 0.82771 0.0034 0.0
H3139 H 0.30989 0.82179 0.97639 0.0
H3140 H 0.36018 0.8002 0.97676 0.0
H3141 H 0.36021 0.80033 0.00777 0.0
C3142 C 0.33421 0.80942 0.02788 0.0
C3143 C 0.31944 0.8141 0.03675 0.0
C3144 C 0.33491 0.8108 0.0101 0.0
C3145 C 0.30574 0.82108 0.02771 0.0
C3146 C 0.30643 0.82269 0.01006 0.0
C3147 C 0.32096 0.81735 0.98326 0.0
C3148 C 0.33496 0.81089 0.97428 0.0
C3149 C 0.32078 0.81721 0.00109 0.0
C3150 C 0.34921 0.8052 0.98337 0.0
C3151 C 0.34922 0.80521 0.00111 0.0
H3152 H 0.70067 0.1808 0.97334 0.0
H3153 H 0.65128 0.20396 0.96914 0.0
H3154 H 0.64752 0.20199 0.99986 0.0
H3155 H 0.65952 0.19629 0.02817 0.0
H3156 H 0.70913 0.17351 0.03222 0.0
H3157 H 0.71144 0.17253 0.00137 0.0
C3158 C 0.68899 0.1852 0.97913 0.0
C3159 C 0.67635 0.19267 0.969 0.0
C3160 C 0.68698 0.18418 0.99681 0.0
C3161 C 0.66124 0.19822 0.97666 0.0
C3162 C 0.6591 0.19714 0.99424 0.0
C3163 C 0.6707 0.19085 0.02229 0.0
C3164 C 0.68419 0.18513 0.03248 0.0
C3165 C 0.67206 0.19053 0.00449 0.0
C3166 C 0.69859 0.17808 0.02467 0.0
C3167 C 0.69996 0.17757 0.00701 0.0
H3168 H 0.47796 0.68292 0.80345 0.0
H3169 H 0.47315 0.71114 0.85012 0.0
H3170 H 0.50401 0.71243 0.85276 0.0
H3171 H 0.53239 0.70742 0.84065 0.0
H3172 H 0.53702 0.67952 0.79376 0.0
H3173 H 0.50628 0.67616 0.79244 0.0
C3174 C 0.48366 0.68917 0.81431 0.0
C3175 C 0.47327 0.69701 0.82651 0.0
C3176 C 0.50142 0.69003 0.81566 0.0
C3177 C 0.48086 0.70503 0.84052 0.0
C3178 C 0.49851 0.70583 0.84202 0.0
C3179 C 0.52667 0.70046 0.83024 0.0
C3180 C 0.53698 0.69384 0.81727 0.0
C3181 C 0.50893 0.69867 0.82948 0.0
C3182 C 0.52938 0.6848 0.80389 0.0
C3183 C 0.51179 0.68289 0.8031 0.0
H3184 H 0.29672 0.53624 0.84404 0.0
H3185 H 0.32555 0.53945 0.79761 0.0
H3186 H 0.32815 0.50859 0.79683 0.0
H3187 H 0.32028 0.48057 0.80812 0.0
H3188 H 0.29094 0.47742 0.85424 0.0
H3189 H 0.29062 0.5083 0.85642 0.0
C3190 C 0.30374 0.53019 0.83387 0.0
C3191 C 0.31082 0.54011 0.82086 0.0
C3192 C 0.30502 0.51242 0.83338 0.0
C3193 C 0.31991 0.53209 0.80776 0.0
C3194 C 0.32138 0.51444 0.80728 0.0
C3195 C 0.31401 0.48665 0.81875 0.0
C3196 C 0.30556 0.47673 0.83092 0.0
C3197 C 0.31369 0.50445 0.81983 0.0
C3198 C 0.29749 0.48478 0.84465 0.0
C3199 C 0.29726 0.50244 0.8459 0.0
H3200 H 0.52255 0.32104 0.81176 0.0
H3201 H 0.52456 0.28882 0.85599 0.0
H3202 H 0.49369 0.28967 0.85829 0.0
H3203 H 0.46597 0.29738 0.84616 0.0
H3204 H 0.46401 0.32939 0.80177 0.0
H3205 H 0.49492 0.33095 0.80125 0.0
C3206 C 0.51624 0.3144 0.82204 0.0
C3207 C 0.52583 0.30476 0.83358 0.0
C3208 C 0.49845 0.31482 0.82321 0.0
C3209 C 0.51748 0.29628 0.84688 0.0
C3210 C 0.4998 0.29672 0.84819 0.0
C3211 C 0.47231 0.3049 0.83653 0.0
C3212 C 0.4627 0.31313 0.82395 0.0
C3213 C 0.49013 0.30561 0.83619 0.0
C3214 C 0.4711 0.32287 0.81158 0.0
C3215 C 0.48879 0.32373 0.81123 0.0
H3216 H 0.69071 0.46784 0.84612 0.0
H3217 H 0.669 0.46443 0.79596 0.0
H3218 H 0.66636 0.49527 0.79477 0.0
H3219 H 0.67291 0.5233 0.80678 0.0
H3220 H 0.69509 0.52672 0.85673 0.0
H3221 H 0.69464 0.49585 0.85927 0.0
C3222 C 0.68517 0.47384 0.83503 0.0
C3223 C 0.68021 0.46387 0.82109 0.0
C3224 C 0.68386 0.49161 0.83435 0.0
C3225 C 0.67298 0.47181 0.80685 0.0
C3226 C 0.67151 0.48946 0.80613 0.0
C3227 C 0.67738 0.51729 0.81833 0.0
C3228 C 0.68416 0.52727 0.83147 0.0
C3229 C 0.67731 0.49951 0.81962 0.0
C3230 C 0.68987 0.51932 0.84638 0.0
C3231 C 0.68968 0.50165 0.84783 0.0
H3232 H 0.47142 0.30285 0.14184 0.0
H3233 H 0.46624 0.32704 0.19069 0.0
H3234 H 0.497 0.32985 0.19281 0.0
H3235 H 0.52542 0.32276 0.18215 0.0
H3236 H 0.53061 0.29796 0.13361 0.0
H3237 H 0.49986 0.29826 0.12992 0.0
C3238 C 0.47702 0.30897 0.15282 0.0
C3239 C 0.46657 0.31458 0.16615 0.0
C3240 C 0.49475 0.31034 0.15407 0.0
C3241 C 0.474 0.32254 0.18028 0.0
C3242 C 0.49161 0.32411 0.18154 0.0
C3243 C 0.51983 0.31767 0.17064 0.0
C3244 C 0.53027 0.31021 0.15825 0.0
C3245 C 0.50212 0.31765 0.16872 0.0
C3246 C 0.52285 0.30371 0.14339 0.0
C3247 C 0.50526 0.30382 0.14129 0.0
H3248 H 0.67988 0.46777 0.19063 0.0
H3249 H 0.70931 0.46336 0.14467 0.0
H3250 H 0.70953 0.49419 0.1416 0.0
H3251 H 0.70362 0.52244 0.15339 0.0
H3252 H 0.67483 0.52687 0.19974 0.0
H3253 H 0.67195 0.49604 0.20113 0.0
C3254 C 0.68614 0.47355 0.17982 0.0
C3255 C 0.69468 0.4633 0.16797 0.0
C3256 C 0.68642 0.49131 0.17825 0.0
C3257 C 0.7027 0.47097 0.15401 0.0
C3258 C 0.70287 0.48861 0.15227 0.0
C3259 C 0.69651 0.51667 0.16366 0.0
C3260 C 0.68956 0.52692 0.1765 0.0
C3261 C 0.69512 0.49892 0.16452 0.0
C3262 C 0.68035 0.51926 0.18972 0.0
C3263 C 0.67874 0.50162 0.19056 0.0
H3264 H 0.5317 0.69869 0.15284 0.0
H3265 H 0.5347 0.67383 0.20153 0.0
H3266 H 0.50378 0.67216 0.20281 0.0
H3267 H 0.47591 0.68012 0.19129 0.0
H3268 H 0.47297 0.70551 0.14286 0.0
H3269 H 0.50381 0.70446 0.1402 0.0
C3270 C 0.52559 0.69271 0.16362 0.0
C3271 C 0.53547 0.68652 0.17713 0.0
C3272 C 0.5078 0.69197 0.16437 0.0
C3273 C 0.52738 0.67874 0.19099 0.0
C3274 C 0.50969 0.67783 0.19176 0.0
C3275 C 0.48201 0.68521 0.18005 0.0
C3276 C 0.47218 0.69301 0.16736 0.0
C3277 C 0.49977 0.68476 0.1787 0.0
C3278 C 0.48026 0.6995 0.15284 0.0
C3279 C 0.4979 0.69895 0.15133 0.0
H3280 H 0.32366 0.47384 0.19092 0.0
H3281 H 0.2987 0.47049 0.1423 0.0
H3282 H 0.30031 0.50125 0.1391 0.0
H3283 H 0.30618 0.52927 0.1514 0.0
H3284 H 0.33062 0.53269 0.20028 0.0
H3285 H 0.33203 0.5018 0.20198 0.0
C3286 C 0.31881 0.47983 0.17952 0.0
C3287 C 0.31093 0.46992 0.16696 0.0
C3288 C 0.31958 0.49757 0.17784 0.0
C3289 C 0.30475 0.47785 0.15222 0.0
C3290 C 0.30562 0.49545 0.15038 0.0
C3291 C 0.31206 0.52326 0.16229 0.0
C3292 C 0.31814 0.53325 0.17575 0.0
C3293 C 0.31261 0.50547 0.16331 0.0
C3294 C 0.32577 0.52528 0.18977 0.0
C3295 C 0.32653 0.5076 0.19079 0.0
H3296 H 0.79999 0.52439 0.67612 0.0
H3297 H 0.84623 0.52772 0.70523 0.0
H3298 H 0.84894 0.49685 0.70481 0.0
H3299 H 0.83692 0.46885 0.69823 0.0
H3300 H 0.79047 0.46545 0.66946 0.0
H3301 H 0.78918 0.49637 0.66756 0.0
C3302 C 0.81077 0.51837 0.68217 0.0
C3303 C 0.82282 0.52833 0.6908 0.0
C3304 C 0.81216 0.50058 0.68204 0.0
C3305 C 0.83675 0.52034 0.69855 0.0
C3306 C 0.83828 0.50268 0.69836 0.0
C3307 C 0.82662 0.47487 0.69137 0.0
C3308 C 0.81374 0.46487 0.68411 0.0
C3309 C 0.82587 0.49266 0.69047 0.0
C3310 C 0.80052 0.47286 0.67521 0.0
C3311 C 0.79974 0.49055 0.67416 0.0
H3312 H 0.52793 0.81278 0.67677 0.0
H3313 H 0.53147 0.86285 0.69867 0.0
H3314 H 0.50063 0.86548 0.69817 0.0
H3315 H 0.47262 0.85241 0.69424 0.0
H3316 H 0.46905 0.80208 0.67296 0.0
H3317 H 0.49988 0.80079 0.67031 0.0
C3318 C 0.52196 0.82437 0.68118 0.0
C3319 C 0.53196 0.83753 0.68789 0.0
C3320 C 0.50419 0.82571 0.68109 0.0
C3321 C 0.52405 0.85248 0.69352 0.0
C3322 C 0.5064 0.85399 0.69329 0.0
C3323 C 0.47858 0.84127 0.68878 0.0
C3324 C 0.46858 0.82731 0.68396 0.0
C3325 C 0.49633 0.84051 0.68752 0.0
C3326 C 0.47647 0.81298 0.67685 0.0
C3327 C 0.49411 0.8122 0.67538 0.0
H3328 H 0.18885 0.52699 0.68317 0.0
H3329 H 0.13965 0.53095 0.70682 0.0
H3330 H 0.13686 0.5001 0.70669 0.0
H3331 H 0.14956 0.47197 0.70234 0.0
H3332 H 0.1991 0.46801 0.67942 0.0
H3333 H 0.20051 0.49883 0.67661 0.0
C3334 C 0.17742 0.5211 0.68808 0.0
C3335 C 0.16455 0.53123 0.69512 0.0
C3336 C 0.176 0.50333 0.68819 0.0
C3337 C 0.14979 0.52343 0.7014 0.0
C3338 C 0.14819 0.50578 0.70137 0.0
C3339 C 0.16055 0.47785 0.69651 0.0
C3340 C 0.17426 0.46774 0.69122 0.0
C3341 C 0.1614 0.4956 0.69518 0.0
C3342 C 0.18841 0.47552 0.68366 0.0
C3343 C 0.18925 0.49315 0.68209 0.0
H3344 H 0.47268 0.1512 0.70352 0.0
H3345 H 0.46893 0.1958 0.67197 0.0
H3346 H 0.49976 0.19686 0.66939 0.0
H3347 H 0.52781 0.18687 0.67849 0.0
H3348 H 0.53162 0.14287 0.71084 0.0
H3349 H 0.5008 0.13973 0.71058 0.0
C3350 C 0.47861 0.16097 0.69585 0.0
C3351 C 0.46856 0.17347 0.68807 0.0
C3352 C 0.49637 0.16171 0.69468 0.0
C3353 C 0.4764 0.18607 0.67817 0.0
C3354 C 0.49404 0.18672 0.67672 0.0
C3355 C 0.52191 0.17646 0.68528 0.0
C3356 C 0.53196 0.16522 0.69479 0.0
C3357 C 0.50416 0.17489 0.6853 0.0
C3358 C 0.52414 0.15175 0.70349 0.0
C3359 C 0.50651 0.14997 0.70339 0.0
H3360 H 0.80734 0.47722 0.32361 0.0
H3361 H 0.85383 0.47114 0.29536 0.0
H3362 H 0.85792 0.50182 0.29501 0.0
H3363 H 0.84692 0.53049 0.3004 0.0
H3364 H 0.8004 0.53662 0.32858 0.0
H3365 H 0.7978 0.50589 0.33144 0.0
C3366 C 0.81848 0.48261 0.31759 0.0
C3367 C 0.83016 0.47193 0.30939 0.0
C3368 C 0.8207 0.5003 0.31733 0.0
C3369 C 0.84459 0.47908 0.30172 0.0
C3370 C 0.84692 0.49664 0.30145 0.0
C3371 C 0.83635 0.5251 0.30737 0.0
C3372 C 0.8238 0.53581 0.31412 0.0
C3373 C 0.83486 0.5074 0.30886 0.0
C3374 C 0.81022 0.52865 0.3232 0.0
C3375 C 0.80868 0.51106 0.3248 0.0
H3376 H 0.52746 0.84332 0.30582 0.0
H3377 H 0.53302 0.79328 0.32734 0.0
H3378 H 0.50231 0.79101 0.33056 0.0
H3379 H 0.47383 0.80201 0.32454 0.0
H3380 H 0.46815 0.85177 0.30241 0.0
H3381 H 0.49893 0.85546 0.30233 0.0
C3382 C 0.52196 0.83203 0.31145 0.0
C3383 C 0.53248 0.81842 0.31618 0.0
C3384 C 0.50426 0.83071 0.31305 0.0
C3385 C 0.52518 0.8039 0.32352 0.0
C3386 C 0.50762 0.80257 0.32532 0.0
C3387 C 0.47932 0.81376 0.31993 0.0
C3388 C 0.46875 0.82652 0.31333 0.0
C3389 C 0.49702 0.8157 0.31971 0.0
C3390 C 0.47603 0.84172 0.30749 0.0
C3391 C 0.49363 0.84382 0.30739 0.0
H3392 H 0.16123 0.47449 0.29912 0.0
H3393 H 0.20628 0.4697 0.32986 0.0
H3394 H 0.20832 0.50051 0.33208 0.0
H3395 H 0.19868 0.52884 0.3234 0.0
H3396 H 0.15385 0.53375 0.29239 0.0
H3397 H 0.15028 0.50295 0.2923 0.0
C3398 C 0.17135 0.48019 0.30649 0.0
C3399 C 0.18365 0.46981 0.3142 0.0
C3400 C 0.17256 0.49797 0.30758 0.0
C3401 C 0.19668 0.4774 0.32373 0.0
C3402 C 0.19789 0.49503 0.32498 0.0
C3403 C 0.18802 0.52318 0.31679 0.0
C3404 C 0.17663 0.53356 0.30781 0.0
C3405 C 0.18612 0.50545 0.31666 0.0
C3406 C 0.16283 0.52604 0.29936 0.0
C3407 C 0.1608 0.50841 0.29926 0.0
H3408 H 0.52411 0.20284 0.3179 0.0
H3409 H 0.5298 0.15443 0.29297 0.0
H3410 H 0.49902 0.15105 0.29201 0.0
H3411 H 0.47048 0.16295 0.29614 0.0
H3412 H 0.46484 0.21147 0.32087 0.0
H3413 H 0.49556 0.21364 0.32413 0.0
C3414 C 0.51861 0.19145 0.31245 0.0
C3415 C 0.52921 0.17897 0.3054 0.0
C3416 C 0.5009 0.18966 0.3118 0.0
C3417 C 0.52191 0.16426 0.29844 0.0
C3418 C 0.5043 0.16234 0.29784 0.0
C3419 C 0.47598 0.1739 0.30241 0.0
C3420 C 0.46542 0.18709 0.30812 0.0
C3421 C 0.49367 0.17513 0.30415 0.0
C3422 C 0.4727 0.20117 0.3163 0.0
C3423 C 0.49027 0.20244 0.31814 0.0
H3424 H 0.70753 0.84483 0.47411 0.0
H3425 H 0.67289 0.80282 0.46822 0.0
H3426 H 0.67 0.80059 0.49896 0.0
H3427 H 0.67913 0.80897 0.52756 0.0
H3428 H 0.71405 0.8507 0.53357 0.0
H3429 H 0.71489 0.85471 0.50285 0.0
C3430 C 0.69917 0.83535 0.47956 0.0
C3431 C 0.69054 0.82394 0.46888 0.0
C3432 C 0.6977 0.834 0.4973 0.0
C3433 C 0.67974 0.81173 0.47614 0.0
C3434 C 0.6781 0.8104 0.49374 0.0
C3435 C 0.68676 0.81907 0.52215 0.0
C3436 C 0.6966 0.82943 0.53283 0.0
C3437 C 0.68731 0.82122 0.50445 0.0
C3438 C 0.70639 0.8425 0.52563 0.0
C3439 C 0.70691 0.84479 0.50805 0.0
H3440 H 0.69851 0.15538 0.4746 0.0
H3441 H 0.66828 0.20086 0.47104 0.0
H3442 H 0.66664 0.20241 0.50197 0.0
H3443 H 0.67574 0.19213 0.53 0.0
H3444 H 0.70651 0.14699 0.53346 0.0
H3445 H 0.70587 0.14394 0.50264 0.0
C3446 C 0.69139 0.16551 0.48059 0.0
C3447 C 0.68363 0.17804 0.47055 0.0
C3448 C 0.69067 0.16644 0.49838 0.0
C3449 C 0.67441 0.19108 0.47849 0.0
C3450 C 0.6735 0.192 0.49618 0.0
C3451 C 0.68212 0.18151 0.52401 0.0
C3452 C 0.69125 0.16987 0.53399 0.0
C3453 C 0.68188 0.17995 0.50625 0.0
C3454 C 0.69944 0.15616 0.52606 0.0
C3455 C 0.69912 0.15443 0.50843 0.0
H3456 H 0.85163 0.70147 0.53022 0.0
H3457 H 0.80699 0.67004 0.53459 0.0
H3458 H 0.8056 0.66732 0.5038 0.0
H3459 H 0.81514 0.67641 0.47564 0.0
H3460 H 0.85929 0.70845 0.47104 0.0
H3461 H 0.86292 0.7082 0.50184 0.0
C3462 C 0.84179 0.69378 0.52443 0.0
C3463 C 0.82934 0.68612 0.53467 0.0
C3464 C 0.84088 0.69249 0.50666 0.0
C3465 C 0.81667 0.67618 0.52699 0.0
C3466 C 0.81583 0.67464 0.50937 0.0
C3467 C 0.82571 0.68312 0.48136 0.0
C3468 C 0.83682 0.69257 0.4711 0.0
C3469 C 0.82757 0.68314 0.49907 0.0
C3470 C 0.85051 0.70113 0.47868 0.0
C3471 C 0.85256 0.70104 0.4963 0.0
H3472 H 0.32167 0.80584 0.47263 0.0
H3473 H 0.29087 0.851 0.46989 0.0
H3474 H 0.29086 0.85309 0.50083 0.0
H3475 H 0.29736 0.84054 0.52866 0.0
H3476 H 0.32727 0.79477 0.53128 0.0
H3477 H 0.33003 0.79457 0.50042 0.0
C3478 C 0.31514 0.81627 0.47879 0.0
C3479 C 0.30618 0.82817 0.46899 0.0
C3480 C 0.31496 0.81722 0.49658 0.0
C3481 C 0.29781 0.84163 0.47716 0.0
C3482 C 0.29776 0.84281 0.49486 0.0
C3483 C 0.30471 0.83068 0.52249 0.0
C3484 C 0.31201 0.81763 0.53223 0.0
C3485 C 0.30596 0.83045 0.5047 0.0
C3486 C 0.32147 0.80492 0.52406 0.0
C3487 C 0.32301 0.80476 0.50641 0.0
H3488 H 0.19547 0.32376 0.47657 0.0
H3489 H 0.14541 0.30165 0.47517 0.0
H3490 H 0.14437 0.30157 0.50616 0.0
H3491 H 0.15892 0.305 0.53358 0.0
H3492 H 0.20933 0.32631 0.53484 0.0
H3493 H 0.20892 0.32964 0.50405 0.0
C3494 C 0.18422 0.31918 0.48305 0.0
C3495 C 0.1706 0.3126 0.47359 0.0
C3496 C 0.18383 0.3189 0.50087 0.0
C3497 C 0.1561 0.30673 0.48216 0.0
C3498 C 0.15552 0.30662 0.49989 0.0
C3499 C 0.1697 0.31062 0.52714 0.0
C3500 C 0.18419 0.31526 0.53647 0.0
C3501 C 0.16949 0.31225 0.50937 0.0
C3502 C 0.19805 0.32255 0.52795 0.0
C3503 C 0.19785 0.32442 0.51032 0.0
H3504 H 0.32426 0.18847 0.52662 0.0
H3505 H 0.293 0.14357 0.52909 0.0
H3506 H 0.29183 0.14242 0.49816 0.0
H3507 H 0.29757 0.15558 0.47053 0.0
H3508 H 0.32808 0.20098 0.46803 0.0
H3509 H 0.33177 0.20044 0.4988 0.0
C3510 C 0.3174 0.17831 0.52037 0.0
C3511 C 0.30864 0.1662 0.53012 0.0
C3512 C 0.31653 0.17787 0.50257 0.0
C3513 C 0.29979 0.1531 0.52186 0.0
C3514 C 0.29907 0.15245 0.50418 0.0
C3515 C 0.3052 0.16523 0.4767 0.0
C3516 C 0.31243 0.17836 0.46704 0.0
C3517 C 0.30707 0.16499 0.49442 0.0
C3518 C 0.32231 0.19076 0.4752 0.0
C3519 C 0.32441 0.19049 0.4928 0.0
H3520 H 0.8452 0.29722 0.46623 0.0
H3521 H 0.79868 0.32594 0.46347 0.0
H3522 H 0.79816 0.3285 0.49431 0.0
H3523 H 0.80931 0.32019 0.52212 0.0
H3524 H 0.85538 0.29083 0.52515 0.0
H3525 H 0.85779 0.29107 0.49422 0.0
C3526 C 0.83511 0.30427 0.47237 0.0
C3527 C 0.82193 0.31126 0.46257 0.0
C3528 C 0.83473 0.30547 0.49019 0.0
C3529 C 0.80893 0.32036 0.47072 0.0
C3530 C 0.8086 0.3218 0.48837 0.0
C3531 C 0.82001 0.31405 0.51603 0.0
C3532 C 0.83207 0.30538 0.52591 0.0
C3533 C 0.82118 0.31403 0.49825 0.0
C3534 C 0.84589 0.29755 0.51783 0.0
C3535 C 0.84725 0.29763 0.50013 0.0
H3536 H 0.18528 0.6745 0.53045 0.0
H3537 H 0.14081 0.70618 0.53399 0.0
H3538 H 0.13855 0.70679 0.50306 0.0
H3539 H 0.15091 0.70064 0.47502 0.0
H3540 H 0.19587 0.66959 0.47171 0.0
H3541 H 0.19613 0.66629 0.50248 0.0
C3542 C 0.17495 0.68133 0.52446 0.0
C3543 C 0.16332 0.69039 0.53449 0.0
C3544 C 0.17388 0.68184 0.50669 0.0
C3545 C 0.14997 0.69915 0.52655 0.0
C3546 C 0.1487 0.69955 0.50885 0.0
C3547 C 0.1606 0.69294 0.48103 0.0
C3548 C 0.17343 0.6855 0.47111 0.0
C3549 C 0.16084 0.6913 0.49879 0.0
C3550 C 0.1859 0.67554 0.47906 0.0
C3551 C 0.18609 0.67367 0.49667 0.0
H3552 H 0.15437 0.11698 0.30075 0.0
H3553 H 0.14952 0.10713 0.35439 0.0
H3554 H 0.12674 0.12801 0.35639 0.0
H3555 H 0.10974 0.1507 0.34336 0.0
H3556 H 0.11471 0.16071 0.28976 0.0
H3557 H 0.13572 0.13809 0.28727 0.0
C3558 C 0.14818 0.11927 0.31283 0.0
C3559 C 0.15373 0.1106 0.32741 0.0
C3560 C 0.13515 0.1314 0.31392 0.0
C3561 C 0.14554 0.11366 0.34297 0.0
C3562 C 0.13253 0.12564 0.34414 0.0
C3563 C 0.11526 0.14778 0.3311 0.0
C3564 C 0.11075 0.15746 0.3168 0.0
C3565 C 0.12746 0.13484 0.32977 0.0
C3566 C 0.11799 0.15349 0.30099 0.0
C3567 C 0.13006 0.14058 0.29955 0.0
H3568 H 0.88459 0.15291 0.33966 0.0
H3569 H 0.88434 0.15878 0.28522 0.0
H3570 H 0.86257 0.13692 0.28273 0.0
H3571 H 0.84211 0.11763 0.29609 0.0
H3572 H 0.84187 0.11197 0.35054 0.0
H3573 H 0.86537 0.13207 0.35293 0.0
C3574 C 0.87991 0.14925 0.32725 0.0
C3575 C 0.88601 0.15754 0.31267 0.0
C3576 C 0.86722 0.13675 0.32591 0.0
C3577 C 0.87982 0.15265 0.29666 0.0
C3578 C 0.86734 0.14016 0.29522 0.0
C3579 C 0.84733 0.12064 0.30847 0.0
C3580 C 0.84018 0.11339 0.32312 0.0
C3581 C 0.86072 0.13235 0.30976 0.0
C3582 C 0.84711 0.1174 0.33906 0.0
C3583 C 0.86053 0.12894 0.34044 0.0
H3584 H 0.88618 0.84995 0.29862 0.0
H3585 H 0.89249 0.85073 0.35299 0.0
H3586 H 0.8712 0.87313 0.35535 0.0
H3587 H 0.849 0.89074 0.34215 0.0
H3588 H 0.84258 0.88955 0.28777 0.0
H3589 H 0.86573 0.8692 0.28524 0.0
C3590 C 0.88306 0.85518 0.31096 0.0
C3591 C 0.8908 0.8486 0.32561 0.0
C3592 C 0.87067 0.86792 0.31224 0.0
C3593 C 0.88667 0.85555 0.34151 0.0
C3594 C 0.87445 0.86832 0.34288 0.0
C3595 C 0.85282 0.88618 0.32974 0.0
C3596 C 0.84398 0.89155 0.3152 0.0
C3597 C 0.86608 0.87434 0.32837 0.0
C3598 C 0.84911 0.88557 0.29919 0.0
C3599 C 0.86234 0.87389 0.29772 0.0
H3600 H 0.11228 0.84668 0.33927 0.0
H3601 H 0.11963 0.83206 0.28701 0.0
H3602 H 0.14074 0.85445 0.28349 0.0
H3603 H 0.15834 0.87701 0.29568 0.0
H3604 H 0.15135 0.89154 0.348 0.0
H3605 H 0.12878 0.87048 0.35103 0.0
C3606 C 0.11841 0.8485 0.32708 0.0
C3607 C 0.11448 0.83766 0.31346 0.0
C3608 C 0.13063 0.86135 0.32516 0.0
C3609 C 0.12247 0.8402 0.29772 0.0
C3610 C 0.13456 0.85298 0.29569 0.0
C3611 C 0.15177 0.87568 0.3077 0.0
C3612 C 0.15657 0.88575 0.32161 0.0
C3613 C 0.13892 0.86346 0.30939 0.0
C3614 C 0.14791 0.88392 0.3371 0.0
C3615 C 0.13503 0.87184 0.33885 0.0
H3616 H 0.16169 0.88446 0.7003 0.0
H3617 H 0.15419 0.89738 0.64762 0.0
H3618 H 0.13007 0.87796 0.64609 0.0
H3619 H 0.11232 0.85585 0.65919 0.0
H3620 H 0.12017 0.84265 0.71175 0.0
H3621 H 0.14279 0.8637 0.71388 0.0
C3622 C 0.15467 0.88315 0.68853 0.0
C3623 C 0.15979 0.89228 0.67408 0.0
C3624 C 0.1409 0.87185 0.6877 0.0
C3625 C 0.15054 0.89047 0.65893 0.0
C3626 C 0.13676 0.87934 0.65803 0.0
C3627 C 0.11886 0.85773 0.67116 0.0
C3628 C 0.11462 0.84763 0.68526 0.0
C3629 C 0.132 0.86975 0.67225 0.0
C3630 C 0.1232 0.85022 0.70068 0.0
C3631 C 0.13618 0.86223 0.70191 0.0
H3632 H 0.15458 0.12136 0.70576 0.0
H3633 H 0.15302 0.10816 0.65265 0.0
H3634 H 0.13039 0.12882 0.64797 0.0
H3635 H 0.11262 0.15223 0.65856 0.0
H3636 H 0.11474 0.16569 0.71161 0.0
H3637 H 0.13547 0.1433 0.71671 0.0
C3638 C 0.14914 0.12286 0.6932 0.0
C3639 C 0.15553 0.11333 0.67956 0.0
C3640 C 0.1363 0.1349 0.69056 0.0
C3641 C 0.14834 0.11538 0.66336 0.0
C3642 C 0.13544 0.12723 0.66066 0.0
C3643 C 0.11749 0.15013 0.67126 0.0
C3644 C 0.11225 0.16068 0.68465 0.0
C3645 C 0.12956 0.13731 0.6741 0.0
C3646 C 0.11864 0.15779 0.70106 0.0
C3647 C 0.13051 0.145 0.704 0.0
H3648 H 0.8886 0.15057 0.65814 0.0
H3649 H 0.88566 0.16007 0.712 0.0
H3650 H 0.86521 0.13702 0.71516 0.0
H3651 H 0.8466 0.11567 0.70236 0.0
H3652 H 0.84866 0.10674 0.64838 0.0
H3653 H 0.87116 0.12792 0.64556 0.0
C3654 C 0.88361 0.14747 0.67059 0.0
C3655 C 0.88854 0.15708 0.68479 0.0
C3656 C 0.87167 0.13434 0.67229 0.0
C3657 C 0.88199 0.15292 0.70085 0.0
C3658 C 0.87029 0.13975 0.70267 0.0
C3659 C 0.85213 0.1182 0.69 0.0
C3660 C 0.84593 0.10972 0.67559 0.0
C3661 C 0.86481 0.13059 0.68844 0.0
C3662 C 0.8532 0.11313 0.65967 0.0
C3663 C 0.86602 0.12528 0.65804 0.0
H3664 H 0.88944 0.84814 0.66763 0.0
H3665 H 0.87842 0.83161 0.71866 0.0
H3666 H 0.85636 0.85321 0.72111 0.0
H3667 H 0.83908 0.87573 0.7082 0.0
H3668 H 0.84995 0.89213 0.6571 0.0
H3669 H 0.87321 0.87175 0.65528 0.0
C3670 C 0.8823 0.84937 0.67933 0.0
C3671 C 0.8855 0.83823 0.6929 0.0
C3672 C 0.86955 0.86176 0.68063 0.0
C3673 C 0.87618 0.84 0.708 0.0
C3674 C 0.86353 0.85233 0.70941 0.0
C3675 C 0.84664 0.87494 0.69672 0.0
C3676 C 0.84274 0.88536 0.68278 0.0
C3677 C 0.85994 0.86312 0.69572 0.0
C3678 C 0.85267 0.88422 0.66801 0.0
C3679 C 0.86595 0.87255 0.66694 0.0
H3680 H 0.34091 0.14693 0.11341 0.0
H3681 H 0.28665 0.14843 0.10629 0.0
H3682 H 0.28286 0.12762 0.12887 0.0
H3683 H 0.29471 0.11109 0.15245 0.0
H3684 H 0.34892 0.10954 0.15976 0.0
H3685 H 0.35297 0.12814 0.13529 0.0
C3686 C 0.32829 0.14248 0.11662 0.0
C3687 C 0.31409 0.14933 0.10828 0.0
C3688 C 0.32617 0.13062 0.12978 0.0
C3689 C 0.29781 0.14342 0.11255 0.0
C3690 C 0.29561 0.13156 0.12553 0.0
C3691 C 0.30742 0.11467 0.14856 0.0
C3692 C 0.32147 0.1091 0.158 0.0
C3693 C 0.30966 0.12542 0.13452 0.0
C3694 C 0.33787 0.11372 0.15274 0.0
C3695 C 0.34021 0.12439 0.13876 0.0
H3696 H 0.88985 0.30058 0.16123 0.0
H3697 H 0.89842 0.35429 0.15501 0.0
H3698 H 0.87826 0.35498 0.13145 0.0
H3699 H 0.85659 0.3407 0.11406 0.0
H3700 H 0.84771 0.28708 0.12083 0.0
H3701 H 0.86966 0.28596 0.14262 0.0
C3702 C 0.88745 0.31239 0.15459 0.0
C3703 C 0.89552 0.32737 0.15992 0.0
C3704 C 0.87571 0.31274 0.14121 0.0
C3705 C 0.89231 0.34259 0.15118 0.0
C3706 C 0.88076 0.343 0.13774 0.0
C3707 C 0.85961 0.32874 0.12017 0.0
C3708 C 0.85047 0.31403 0.11592 0.0
C3709 C 0.87214 0.32822 0.13285 0.0
C3710 C 0.85452 0.29862 0.12393 0.0
C3711 C 0.86705 0.29796 0.13642 0.0
H3712 H 0.70285 0.88578 0.15498 0.0
H3713 H 0.64823 0.88926 0.15514 0.0
H3714 H 0.64662 0.86852 0.13216 0.0
H3715 H 0.66063 0.84759 0.11373 0.0
H3716 H 0.71525 0.84403 0.11376 0.0
H3717 H 0.71695 0.8667 0.13478 0.0
C3718 C 0.69061 0.88214 0.14985 0.0
C3719 C 0.67568 0.88892 0.15685 0.0
C3720 C 0.68976 0.87013 0.13671 0.0
C3721 C 0.65991 0.88417 0.15 0.0
C3722 C 0.65897 0.87228 0.13689 0.0
C3723 C 0.6729 0.85195 0.11817 0.0
C3724 C 0.68777 0.84404 0.1123 0.0
C3725 C 0.67379 0.8649 0.13039 0.0
C3726 C 0.7036 0.84986 0.11812 0.0
C3727 C 0.70459 0.86279 0.13019 0.0
H3728 H 0.1495 0.69504 0.11129 0.0
H3729 H 0.15686 0.6408 0.11182 0.0
H3730 H 0.13453 0.63777 0.13313 0.0
H3731 H 0.11469 0.65082 0.15344 0.0
H3732 H 0.10777 0.70513 0.15313 0.0
H3733 H 0.128 0.70781 0.12984 0.0
C3734 C 0.14607 0.68253 0.11591 0.0
C3735 C 0.15492 0.66818 0.11008 0.0
C3736 C 0.13335 0.6809 0.12829 0.0
C3737 C 0.15027 0.65206 0.11614 0.0
C3738 C 0.13754 0.65032 0.12837 0.0
C3739 C 0.11744 0.6632 0.14811 0.0
C3740 C 0.10983 0.67776 0.1551 0.0
C3741 C 0.12925 0.66469 0.13482 0.0
C3742 C 0.1135 0.69372 0.14803 0.0
C3743 C 0.12511 0.69528 0.13474 0.0
H3744 H 0.34246 0.8868 0.85057 0.0
H3745 H 0.28816 0.88221 0.84535 0.0
H3746 H 0.28745 0.86174 0.8686 0.0
H3747 H 0.30248 0.84353 0.88895 0.0
H3748 H 0.35679 0.84785 0.89405 0.0
H3749 H 0.35724 0.87011 0.87246 0.0
C3750 C 0.33045 0.88146 0.85465 0.0
C3751 C 0.31541 0.88594 0.84616 0.0
C3752 C 0.33014 0.86957 0.86797 0.0
C3753 C 0.29994 0.87895 0.85164 0.0
C3754 C 0.29952 0.8672 0.86491 0.0
C3755 C 0.31439 0.84948 0.88548 0.0
C3756 C 0.32959 0.84396 0.89302 0.0
C3757 C 0.31457 0.86217 0.87295 0.0
C3758 C 0.34491 0.85184 0.88842 0.0
C3759 C 0.34519 0.86454 0.87603 0.0
H3760 H 0.15141 0.2997 0.88644 0.0
H3761 H 0.14873 0.3541 0.89198 0.0
H3762 H 0.12546 0.35523 0.87153 0.0
H3763 H 0.10754 0.34103 0.85024 0.0
H3764 H 0.11064 0.28667 0.84445 0.0
H3765 H 0.13192 0.28526 0.86689 0.0
C3766 C 0.14558 0.31178 0.88334 0.0
C3767 C 0.15187 0.32679 0.89062 0.0
C3768 C 0.13233 0.31236 0.87143 0.0
C3769 C 0.14416 0.34234 0.88651 0.0
C3770 C 0.13088 0.34302 0.87477 0.0
C3771 C 0.11271 0.32886 0.85406 0.0
C3772 C 0.10761 0.314 0.8456 0.0
C3773 C 0.12511 0.32815 0.86687 0.0
C3774 C 0.1144 0.29832 0.85071 0.0
C3775 C 0.12661 0.29749 0.86352 0.0
H3776 H 0.66792 0.15346 0.8918 0.0
H3777 H 0.72062 0.16676 0.88532 0.0
H3778 H 0.72389 0.1443 0.86421 0.0
H3779 H 0.71119 0.12233 0.84596 0.0
H3780 H 0.65839 0.10932 0.85231 0.0
H3781 H 0.6558 0.13008 0.87513 0.0
C3782 C 0.68017 0.15131 0.88591 0.0
C3783 C 0.69396 0.16184 0.89004 0.0
C3784 C 0.68193 0.13847 0.87366 0.0
C3785 C 0.70977 0.15886 0.88234 0.0
C3786 C 0.71165 0.14605 0.87022 0.0
C3787 C 0.69918 0.1239 0.85248 0.0
C3788 C 0.68499 0.11438 0.84736 0.0
C3789 C 0.69773 0.13599 0.86553 0.0
C3790 C 0.66951 0.11653 0.85596 0.0
C3791 C 0.668 0.12844 0.869 0.0
H3792 H 0.88446 0.69472 0.84775 0.0
H3793 H 0.88836 0.64014 0.84628 0.0
H3794 H 0.86762 0.63785 0.86923 0.0
H3795 H 0.84664 0.6513 0.88806 0.0
H3796 H 0.84248 0.70589 0.88909 0.0
H3797 H 0.86514 0.70822 0.8681 0.0
C3798 C 0.88093 0.68233 0.85259 0.0
C3799 C 0.88785 0.66762 0.84524 0.0
C3800 C 0.86886 0.6811 0.86566 0.0
C3801 C 0.88319 0.65166 0.85169 0.0
C3802 C 0.87129 0.65034 0.86478 0.0
C3803 C 0.85085 0.66371 0.88385 0.0
C3804 C 0.8428 0.67839 0.89004 0.0
C3805 C 0.86378 0.66496 0.87162 0.0
C3806 C 0.84842 0.69438 0.88449 0.0
C3807 C 0.86135 0.69573 0.87244 0.0
H3808 H 0.15457 0.33924 0.11224 0.0
H3809 H 0.16192 0.28507 0.11549 0.0
H3810 H 0.14051 0.28329 0.13779 0.0
H3811 H 0.12139 0.29737 0.15783 0.0
H3812 H 0.11436 0.35159 0.1551 0.0
H3813 H 0.13389 0.3531 0.13104 0.0
C3814 C 0.15132 0.32703 0.11768 0.0
C3815 C 0.15989 0.31233 0.11231 0.0
C3816 C 0.13916 0.32612 0.13066 0.0
C3817 C 0.15555 0.29658 0.11946 0.0
C3818 C 0.14334 0.29555 0.13224 0.0
C3819 C 0.12402 0.30949 0.15187 0.0
C3820 C 0.11657 0.32436 0.1583 0.0
C3821 C 0.13534 0.31028 0.13818 0.0
C3822 C 0.12 0.33997 0.1504 0.0
C3823 C 0.13118 0.34085 0.13668 0.0
H3824 H 0.15241 0.667 0.88659 0.0
H3825 H 0.16016 0.7212 0.88502 0.0
H3826 H 0.13688 0.72417 0.86485 0.0
H3827 H 0.11578 0.7112 0.84605 0.0
H3828 H 0.10819 0.657 0.8471 0.0
H3829 H 0.12979 0.65422 0.86919 0.0
C3830 C 0.14888 0.67947 0.88196 0.0
C3831 C 0.15808 0.69384 0.88719 0.0
C3832 C 0.13554 0.68109 0.87022 0.0
C3833 C 0.15332 0.70992 0.88114 0.0
C3834 C 0.14003 0.71164 0.86957 0.0
C3835 C 0.1187 0.69881 0.85126 0.0
C3836 C 0.11048 0.68432 0.84488 0.0
C3837 C 0.13126 0.69728 0.86379 0.0
C3838 C 0.11437 0.66835 0.85179 0.0
C3839 C 0.12676 0.66674 0.86437 0.0
H3840 H 0.33715 0.15233 0.88724 0.0
H3841 H 0.28438 0.16342 0.87772 0.0
H3842 H 0.28299 0.14041 0.85714 0.0
H3843 H 0.29705 0.11824 0.8406 0.0
H3844 H 0.34985 0.10706 0.84957 0.0
H3845 H 0.3509 0.12885 0.87167 0.0
C3846 C 0.32533 0.14959 0.88076 0.0
C3847 C 0.31093 0.15964 0.88395 0.0
C3848 C 0.32462 0.13635 0.86879 0.0
C3849 C 0.29568 0.15593 0.87547 0.0
C3850 C 0.29486 0.14277 0.86367 0.0
C3851 C 0.30875 0.12046 0.84749 0.0
C3852 C 0.32337 0.11112 0.84339 0.0
C3853 C 0.30929 0.13307 0.86005 0.0
C3854 C 0.33842 0.11411 0.85247 0.0
C3855 C 0.33904 0.1266 0.86508 0.0
H3856 H 0.88437 0.34893 0.84427 0.0
H3857 H 0.88903 0.29437 0.84499 0.0
H3858 H 0.86966 0.29279 0.86907 0.0
H3859 H 0.84948 0.30661 0.88825 0.0
H3860 H 0.84429 0.36109 0.88742 0.0
H3861 H 0.86589 0.36301 0.86523 0.0
C3862 C 0.88133 0.33672 0.84986 0.0
C3863 C 0.88802 0.32178 0.84276 0.0
C3864 C 0.87 0.33587 0.86363 0.0
C3865 C 0.88398 0.30606 0.85015 0.0
C3866 C 0.87287 0.30513 0.86391 0.0
C3867 C 0.85323 0.31892 0.88337 0.0
C3868 C 0.8452 0.33367 0.88937 0.0
C3869 C 0.8655 0.31991 0.87049 0.0
C3870 C 0.85026 0.34954 0.88298 0.0
C3871 C 0.86256 0.35064 0.87024 0.0
H3872 H 0.70437 0.88805 0.85069 0.0
H3873 H 0.64986 0.89271 0.84948 0.0
H3874 H 0.64733 0.87103 0.87154 0.0
H3875 H 0.66056 0.84895 0.88932 0.0
H3876 H 0.71508 0.84395 0.88973 0.0
H3877 H 0.71764 0.8676 0.86994 0.0
C3878 C 0.69194 0.8845 0.85542 0.0
C3879 C 0.67733 0.89189 0.84839 0.0
C3880 C 0.69058 0.87184 0.86788 0.0
C3881 C 0.66132 0.88717 0.85467 0.0
C3882 C 0.65986 0.87473 0.86724 0.0
C3883 C 0.673 0.85319 0.88522 0.0
C3884 C 0.68759 0.84463 0.89087 0.0
C3885 C 0.67439 0.86669 0.87365 0.0
C3886 C 0.70363 0.85026 0.88549 0.0
C3887 C 0.70512 0.86378 0.87415 0.0
H3888 H 0.84351 0.70368 0.11872 0.0
H3889 H 0.85229 0.65086 0.10733 0.0
H3890 H 0.87538 0.65006 0.128 0.0
H3891 H 0.89153 0.66376 0.15093 0.0
H3892 H 0.88221 0.7164 0.16275 0.0
H3893 H 0.86101 0.71791 0.14021 0.0
C3894 C 0.85061 0.69204 0.12062 0.0
C3895 C 0.84612 0.67732 0.11159 0.0
C3896 C 0.86373 0.69162 0.13267 0.0
C3897 C 0.85546 0.66235 0.11416 0.0
C3898 C 0.86864 0.66187 0.12601 0.0
C3899 C 0.88502 0.67562 0.14842 0.0
C3900 C 0.88837 0.68992 0.15857 0.0
C3901 C 0.87266 0.67634 0.13558 0.0
C3902 C 0.87983 0.70519 0.15516 0.0
C3903 C 0.86766 0.70606 0.1423 0.0
H3904 H 0.33513 0.85046 0.11388 0.0
H3905 H 0.28262 0.8388 0.12402 0.0
H3906 H 0.2817 0.86097 0.14568 0.0
H3907 H 0.2964 0.88225 0.16319 0.0
H3908 H 0.34901 0.89365 0.15324 0.0
H3909 H 0.34925 0.87313 0.13001 0.0
C3910 C 0.32343 0.8529 0.1207 0.0
C3911 C 0.309 0.84292 0.11741 0.0
C3912 C 0.32303 0.86558 0.13325 0.0
C3913 C 0.29393 0.84627 0.12633 0.0
C3914 C 0.2934 0.85893 0.13875 0.0
C3915 C 0.30786 0.88038 0.15581 0.0
C3916 C 0.32269 0.8894 0.16002 0.0
C3917 C 0.30796 0.86844 0.14254 0.0
C3918 C 0.33743 0.88686 0.15031 0.0
C3919 C 0.3376 0.87508 0.13704 0.0
H3920 H 0.66304 0.14851 0.11127 0.0
H3921 H 0.71614 0.15836 0.12021 0.0
H3922 H 0.71666 0.13661 0.14228 0.0
H3923 H 0.70153 0.11633 0.16052 0.0
H3924 H 0.6483 0.10688 0.15199 0.0
H3925 H 0.64836 0.12681 0.12825 0.0
C3926 C 0.67477 0.14574 0.1179 0.0
C3927 C 0.6895 0.1551 0.11417 0.0
C3928 C 0.67494 0.13335 0.13074 0.0
C3929 C 0.7046 0.15137 0.12287 0.0
C3930 C 0.70491 0.13896 0.13554 0.0
C3931 C 0.68999 0.11849 0.15334 0.0
C3932 C 0.67491 0.11022 0.15808 0.0
C3933 C 0.69008 0.13011 0.13981 0.0
C3934 C 0.66007 0.11313 0.14864 0.0
C3935 C 0.66008 0.12456 0.13508 0.0
H3936 H 0.62153 0.65749 0.79365 0.0
H3937 H 0.60899 0.65715 0.84694 0.0
H3938 H 0.62726 0.63249 0.8513 0.0
H3939 H 0.64837 0.61224 0.84032 0.0
H3940 H 0.66115 0.61298 0.78708 0.0
H3941 H 0.64115 0.63611 0.78235 0.0
C3942 C 0.62267 0.65192 0.80618 0.0
C3943 C 0.614 0.65921 0.81996 0.0
C3944 C 0.63331 0.63783 0.80863 0.0
C3945 C 0.61557 0.65181 0.83612 0.0
C3946 C 0.62604 0.63772 0.83863 0.0
C3947 C 0.64662 0.61733 0.82765 0.0
C3948 C 0.65631 0.61095 0.8141 0.0
C3949 C 0.6352 0.6308 0.82504 0.0
C3950 C 0.65389 0.61769 0.79775 0.0
C3951 C 0.64248 0.63096 0.79503 0.0
H3952 H 0.3505 0.61906 0.79515 0.0
H3953 H 0.34418 0.61754 0.84951 0.0
H3954 H 0.3683 0.63666 0.85308 0.0
H3955 H 0.38951 0.6559 0.84059 0.0
H3956 H 0.39578 0.65734 0.78621 0.0
H3957 H 0.37359 0.63603 0.78285 0.0
C3958 C 0.35453 0.62277 0.80778 0.0
C3959 C 0.34546 0.61705 0.82202 0.0
C3960 C 0.3684 0.6338 0.80974 0.0
C3961 C 0.35091 0.62183 0.83832 0.0
C3962 C 0.36469 0.6328 0.84038 0.0
C3963 C 0.38621 0.65133 0.82803 0.0
C3964 C 0.39417 0.65831 0.81368 0.0
C3965 C 0.37329 0.63917 0.82616 0.0
C3966 C 0.3898 0.65223 0.79748 0.0
C3967 C 0.37705 0.64008 0.79553 0.0
H3968 H 0.38418 0.35266 0.84012 0.0
H3969 H 0.3766 0.3418 0.78696 0.0
H3970 H 0.35639 0.36508 0.78483 0.0
H3971 H 0.33957 0.38738 0.79832 0.0
H3972 H 0.34666 0.39837 0.85148 0.0
H3973 H 0.36848 0.37637 0.85329 0.0
C3974 C 0.37821 0.3555 0.82805 0.0
C3975 C 0.38183 0.34544 0.81375 0.0
C3976 C 0.36649 0.36892 0.8269 0.0
C3977 C 0.37403 0.34931 0.79818 0.0
C3978 C 0.36244 0.36262 0.79694 0.0
C3979 C 0.34602 0.3851 0.81027 0.0
C3980 C 0.34145 0.39444 0.82476 0.0
C3981 C 0.35839 0.37235 0.81125 0.0
C3982 C 0.34994 0.39135 0.84013 0.0
C3983 C 0.36238 0.37872 0.8412 0.0
H3984 H 0.60699 0.34525 0.84235 0.0
H3985 H 0.60774 0.33399 0.78877 0.0
H3986 H 0.62906 0.35602 0.78423 0.0
H3987 H 0.64904 0.37708 0.7958 0.0
H3988 H 0.64832 0.38817 0.84942 0.0
H3989 H 0.62543 0.36775 0.85357 0.0
C3990 C 0.61167 0.34776 0.82965 0.0
C3991 C 0.60586 0.33792 0.81595 0.0
C3992 C 0.62404 0.36037 0.82714 0.0
C3993 C 0.61203 0.34136 0.79956 0.0
C3994 C 0.62427 0.35392 0.79695 0.0
C3995 C 0.64374 0.37515 0.80836 0.0
C3996 C 0.65047 0.38405 0.82229 0.0
C3997 C 0.63061 0.36329 0.81069 0.0
C3998 C 0.64343 0.38145 0.83848 0.0
C3999 C 0.63034 0.36974 0.84088 0.0
H4000 H 0.6529 0.38156 0.19761 0.0
H4001 H 0.6591 0.38691 0.14348 0.0
H4002 H 0.63579 0.36708 0.13863 0.0
H4003 H 0.61513 0.34648 0.14978 0.0
H4004 H 0.6092 0.34093 0.20393 0.0
H4005 H 0.63076 0.36263 0.20874 0.0
C4006 C 0.64901 0.37854 0.18476 0.0
C4007 C 0.6578 0.3856 0.17094 0.0
C4008 C 0.63569 0.367 0.18206 0.0
C4009 C 0.65258 0.38161 0.15435 0.0
C4010 C 0.63927 0.37022 0.15156 0.0
C4011 C 0.61842 0.35017 0.16262 0.0
C4012 C 0.61066 0.34201 0.17646 0.0
C4013 C 0.63096 0.36258 0.16531 0.0
C4014 C 0.61502 0.34697 0.19304 0.0
C4015 C 0.62739 0.35936 0.19582 0.0
H4016 H 0.62092 0.65231 0.2027 0.0
H4017 H 0.61344 0.65209 0.14846 0.0
H4018 H 0.6339 0.62896 0.14555 0.0
H4019 H 0.65536 0.61011 0.15827 0.0
H4020 H 0.66298 0.61077 0.2125 0.0
H4021 H 0.64096 0.6323 0.21555 0.0
C4022 C 0.62364 0.64709 0.19026 0.0
C4023 C 0.61575 0.65397 0.17581 0.0
C4024 C 0.63551 0.63391 0.18866 0.0
C4025 C 0.61937 0.64703 0.15979 0.0
C4026 C 0.6311 0.63383 0.1581 0.0
C4027 C 0.65207 0.61484 0.17076 0.0
C4028 C 0.66087 0.60892 0.18512 0.0
C4029 C 0.63947 0.62737 0.17243 0.0
C4030 C 0.65644 0.61516 0.20123 0.0
C4031 C 0.64387 0.6275 0.203 0.0
H4032 H 0.39287 0.65252 0.15768 0.0
H4033 H 0.3877 0.66598 0.21051 0.0
H4034 H 0.36685 0.64344 0.21445 0.0
H4035 H 0.34855 0.62127 0.20244 0.0
H4036 H 0.35334 0.60804 0.14953 0.0
H4037 H 0.37594 0.62896 0.14612 0.0
C4038 C 0.38731 0.65039 0.17008 0.0
C4039 C 0.39174 0.66098 0.18374 0.0
C4040 C 0.37519 0.63748 0.17225 0.0
C4041 C 0.38446 0.65805 0.19976 0.0
C4042 C 0.3725 0.64517 0.20203 0.0
C4043 C 0.35468 0.62283 0.19022 0.0
C4044 C 0.3492 0.61319 0.17625 0.0
C4045 C 0.36754 0.63502 0.1883 0.0
C4046 C 0.35729 0.61533 0.16049 0.0
C4047 C 0.37019 0.62733 0.15851 0.0
H4048 H 0.38013 0.34284 0.1944 0.0
H4049 H 0.38852 0.34765 0.14051 0.0
H4050 H 0.36825 0.37106 0.13924 0.0
H4051 H 0.34684 0.38901 0.15315 0.0
H4052 H 0.33824 0.38391 0.20699 0.0
H4053 H 0.35997 0.3619 0.20859 0.0
C4054 C 0.37762 0.3491 0.18241 0.0
C4055 C 0.38574 0.34344 0.16756 0.0
C4056 C 0.36587 0.36249 0.18175 0.0
C4057 C 0.38241 0.35173 0.15212 0.0
C4058 C 0.37079 0.3651 0.15137 0.0
C4059 C 0.34986 0.38321 0.16525 0.0
C4060 C 0.34089 0.38804 0.1799 0.0
C4061 C 0.36226 0.37043 0.16606 0.0
C4062 C 0.34494 0.38041 0.19551 0.0
C4063 C 0.35733 0.36778 0.19643 0.0
H4064 H 0.79705 0.65419 0.61702 0.0
H4065 H 0.85154 0.6522 0.61235 0.0
H4066 H 0.85257 0.62842 0.63222 0.0
H4067 H 0.83816 0.60961 0.65258 0.0
H4068 H 0.78369 0.61192 0.65743 0.0
H4069 H 0.78248 0.63399 0.63574 0.0
C4070 C 0.80913 0.64844 0.62023 0.0
C4071 C 0.8242 0.65503 0.61332 0.0
C4072 C 0.80964 0.63485 0.63175 0.0
C4073 C 0.83975 0.64739 0.61753 0.0
C4074 C 0.84036 0.63382 0.62892 0.0
C4075 C 0.82602 0.61479 0.64872 0.0
C4076 C 0.81106 0.60921 0.65668 0.0
C4077 C 0.82542 0.62764 0.63635 0.0
C4078 C 0.79541 0.61603 0.65153 0.0
C4079 C 0.7947 0.62869 0.63916 0.0
H4080 H 0.3484 0.8346 0.60977 0.0
H4081 H 0.33795 0.78168 0.61917 0.0
H4082 H 0.36017 0.78093 0.64077 0.0
H4083 H 0.38121 0.79583 0.65835 0.0
H4084 H 0.39135 0.84886 0.64917 0.0
H4085 H 0.37069 0.84902 0.62608 0.0
C4086 C 0.35112 0.82285 0.61641 0.0
C4087 C 0.34148 0.80824 0.61295 0.0
C4088 C 0.36379 0.82256 0.62894 0.0
C4089 C 0.34516 0.79311 0.62163 0.0
C4090 C 0.35784 0.79269 0.63402 0.0
C4091 C 0.379 0.80738 0.65119 0.0
C4092 C 0.38771 0.82234 0.65554 0.0
C4093 C 0.36702 0.80741 0.638 0.0
C4094 C 0.38477 0.83719 0.64611 0.0
C4095 C 0.37294 0.8373 0.63292 0.0
H4096 H 0.1679 0.34988 0.61413 0.0
H4097 H 0.21973 0.33669 0.62573 0.0
H4098 H 0.2203 0.35797 0.64828 0.0
H4099 H 0.20545 0.37904 0.66593 0.0
H4100 H 0.15355 0.39203 0.65437 0.0
H4101 H 0.15366 0.37218 0.63058 0.0
C4102 C 0.17938 0.35179 0.62147 0.0
C4103 C 0.19372 0.34166 0.61831 0.0
C4104 C 0.17957 0.36394 0.63452 0.0
C4105 C 0.20851 0.34431 0.62791 0.0
C4106 C 0.20883 0.35644 0.64086 0.0
C4107 C 0.19421 0.37761 0.65812 0.0
C4108 C 0.17948 0.38691 0.66199 0.0
C4109 C 0.19434 0.36612 0.64447 0.0
C4110 C 0.16504 0.38499 0.6517 0.0
C4111 C 0.16508 0.37362 0.6381 0.0
H4112 H 0.65115 0.20095 0.61648 0.0
H4113 H 0.65652 0.14662 0.61245 0.0
H4114 H 0.63408 0.14261 0.63342 0.0
H4115 H 0.61464 0.15455 0.65467 0.0
H4116 H 0.60934 0.20888 0.6588 0.0
H4117 H 0.62989 0.21286 0.63596 0.0
C4118 C 0.64725 0.18824 0.62004 0.0
C4119 C 0.65558 0.17412 0.61303 0.0
C4120 C 0.63441 0.18602 0.63221 0.0
C4121 C 0.65034 0.15772 0.6177 0.0
C4122 C 0.63755 0.1554 0.62973 0.0
C4123 C 0.61783 0.16725 0.65042 0.0
C4124 C 0.61059 0.18139 0.65851 0.0
C4125 C 0.62975 0.16946 0.63735 0.0
C4126 C 0.61478 0.19777 0.65282 0.0
C4127 C 0.62657 0.20007 0.63979 0.0
H4128 H 0.83598 0.35049 0.38643 0.0
H4129 H 0.78317 0.33817 0.37898 0.0
H4130 H 0.78017 0.36196 0.35937 0.0
H4131 H 0.7931 0.38484 0.34257 0.0
H4132 H 0.84606 0.39678 0.34955 0.0
H4133 H 0.84838 0.37476 0.37122 0.0
C4134 C 0.82378 0.35313 0.38065 0.0
C4135 C 0.80987 0.34249 0.38406 0.0
C4136 C 0.82217 0.36675 0.36925 0.0
C4137 C 0.79412 0.34611 0.37651 0.0
C4138 C 0.79238 0.35971 0.36527 0.0
C4139 C 0.80507 0.3828 0.34903 0.0
C4140 C 0.81939 0.39238 0.34439 0.0
C4141 C 0.8064 0.36992 0.36129 0.0
C4142 C 0.83484 0.38956 0.35285 0.0
C4143 C 0.83621 0.37691 0.36521 0.0
H4144 H 0.65817 0.7961 0.38293 0.0
H4145 H 0.65488 0.84996 0.39213 0.0
H4146 H 0.6318 0.85223 0.37149 0.0
H4147 H 0.61392 0.83916 0.34939 0.0
H4148 H 0.61784 0.78536 0.33996 0.0
H4149 H 0.63924 0.78281 0.36218 0.0
C4150 C 0.65229 0.80831 0.38055 0.0
C4151 C 0.65829 0.82285 0.38897 0.0
C4152 C 0.6392 0.80954 0.36855 0.0
C4153 C 0.65051 0.83857 0.38578 0.0
C4154 C 0.63735 0.83989 0.37395 0.0
C4155 C 0.61934 0.82686 0.35233 0.0
C4156 C 0.61437 0.81249 0.34297 0.0
C4157 C 0.6318 0.8255 0.36503 0.0
C4158 C 0.62149 0.79663 0.34692 0.0
C4159 C 0.63375 0.79516 0.35962 0.0
H4160 H 0.20489 0.65237 0.38914 0.0
H4161 H 0.15025 0.65458 0.39126 0.0
H4162 H 0.14828 0.63216 0.36996 0.0
H4163 H 0.1621 0.61365 0.34896 0.0
H4164 H 0.21675 0.6115 0.34687 0.0
H4165 H 0.21868 0.63199 0.37 0.0
C4166 C 0.19256 0.64779 0.38508 0.0
C4167 C 0.17775 0.65523 0.39165 0.0
C4168 C 0.19151 0.63495 0.37276 0.0
C4169 C 0.16186 0.6491 0.38636 0.0
C4170 C 0.16071 0.63631 0.37413 0.0
C4171 C 0.17442 0.6175 0.35373 0.0
C4172 C 0.18924 0.61118 0.34611 0.0
C4173 C 0.17545 0.6294 0.36698 0.0
C4174 C 0.20513 0.61622 0.35247 0.0
C4175 C 0.20626 0.62799 0.36567 0.0
H4176 H 0.34445 0.2084 0.38264 0.0
H4177 H 0.3449 0.15397 0.38856 0.0
H4178 H 0.36728 0.15166 0.36721 0.0
H4179 H 0.38503 0.16497 0.34518 0.0
H4180 H 0.38394 0.21937 0.33899 0.0
H4181 H 0.36361 0.22183 0.36219 0.0
C4182 C 0.34958 0.19604 0.3794 0.0
C4183 C 0.34295 0.18137 0.38706 0.0
C4184 C 0.36227 0.1948 0.36698 0.0
C4185 C 0.34977 0.16546 0.38279 0.0
C4186 C 0.36253 0.16412 0.37055 0.0
C4187 C 0.38049 0.17736 0.34906 0.0
C4188 C 0.38587 0.19195 0.3403 0.0
C4189 C 0.36862 0.17868 0.3623 0.0
C4190 C 0.37991 0.20794 0.34548 0.0
C4191 C 0.36827 0.20936 0.35873 0.0
H4192 H 0.6548 0.8438 0.61283 0.0
H4193 H 0.65551 0.78907 0.61158 0.0
H4194 H 0.63257 0.78808 0.63239 0.0
H4195 H 0.61396 0.80273 0.65272 0.0
H4196 H 0.61344 0.85746 0.65409 0.0
H4197 H 0.63451 0.85847 0.63143 0.0
C4198 C 0.64977 0.83167 0.61694 0.0
C4199 C 0.65693 0.81655 0.61076 0.0
C4200 C 0.63668 0.83118 0.62905 0.0
C4201 C 0.65025 0.80091 0.61618 0.0
C4202 C 0.63717 0.80032 0.62813 0.0
C4203 C 0.61832 0.81487 0.64792 0.0
C4204 C 0.61224 0.82999 0.65518 0.0
C4205 C 0.63054 0.81537 0.63493 0.0
C4206 C 0.61796 0.84563 0.64877 0.0
C4207 C 0.63005 0.84622 0.63582 0.0
H4208 H 0.60784 0.16379 0.34705 0.0
H4209 H 0.60763 0.21848 0.34428 0.0
H4210 H 0.62783 0.21995 0.36771 0.0
H4211 H 0.64745 0.20569 0.38719 0.0
H4212 H 0.64813 0.151 0.38973 0.0
H4213 H 0.62574 0.14955 0.36832 0.0
C4214 C 0.61204 0.17603 0.35174 0.0
C4215 C 0.60635 0.19099 0.34385 0.0
C4216 C 0.62382 0.17678 0.3651 0.0
C4217 C 0.61186 0.20677 0.35009 0.0
C4218 C 0.62346 0.20762 0.36346 0.0
C4219 C 0.64255 0.19345 0.38321 0.0
C4220 C 0.64954 0.17848 0.38992 0.0
C4221 C 0.62982 0.19271 0.37078 0.0
C4222 C 0.643 0.16272 0.38472 0.0
C4223 C 0.63023 0.16188 0.37243 0.0
H4224 H 0.79937 0.62077 0.34735 0.0
H4225 H 0.85378 0.61574 0.34416 0.0
H4226 H 0.85722 0.6357 0.36762 0.0
H4227 H 0.84483 0.65593 0.38784 0.0
H4228 H 0.79043 0.66111 0.39092 0.0
H4229 H 0.78693 0.63962 0.36886 0.0
C4230 C 0.81197 0.62395 0.35188 0.0
C4231 C 0.8263 0.61689 0.34395 0.0
C4232 C 0.81386 0.63548 0.36535 0.0
C4233 C 0.84254 0.62105 0.35001 0.0
C4234 C 0.84452 0.63248 0.36342 0.0
C4235 C 0.83221 0.6522 0.38382 0.0
C4236 C 0.81792 0.66016 0.39094 0.0
C4237 C 0.83029 0.63996 0.37101 0.0
C4238 C 0.80164 0.65519 0.38563 0.0
C4239 C 0.79962 0.64294 0.37296 0.0
H4240 H 0.38748 0.83965 0.35091 0.0
H4241 H 0.39027 0.78502 0.34838 0.0
H4242 H 0.36905 0.78267 0.37081 0.0
H4243 H 0.34779 0.79607 0.38915 0.0
H4244 H 0.3444 0.85067 0.39124 0.0
H4245 H 0.36786 0.8531 0.37112 0.0
C4246 C 0.38362 0.82725 0.35545 0.0
C4247 C 0.39032 0.81254 0.3479 0.0
C4248 C 0.37122 0.82598 0.36819 0.0
C4249 C 0.38523 0.79654 0.35392 0.0
C4250 C 0.37307 0.79518 0.36672 0.0
C4251 C 0.35234 0.8085 0.38538 0.0
C4252 C 0.34428 0.82316 0.39155 0.0
C4253 C 0.36567 0.8098 0.37364 0.0
C4254 C 0.35035 0.83918 0.38661 0.0
C4255 C 0.36374 0.84059 0.37507 0.0
H4256 H 0.20688 0.38367 0.35003 0.0
H4257 H 0.15324 0.39444 0.34881 0.0
H4258 H 0.1484 0.374 0.37161 0.0
H4259 H 0.15916 0.3515 0.39047 0.0
H4260 H 0.2128 0.34067 0.39141 0.0
H4261 H 0.21787 0.36272 0.3703 0.0
C4262 C 0.19416 0.38169 0.35489 0.0
C4263 C 0.18044 0.39048 0.34766 0.0
C4264 C 0.19144 0.36981 0.36792 0.0
C4265 C 0.16404 0.38781 0.35413 0.0
C4266 C 0.16124 0.37607 0.36715 0.0
C4267 C 0.17197 0.35411 0.38619 0.0
C4268 C 0.18555 0.34437 0.39242 0.0
C4269 C 0.17481 0.36676 0.37392 0.0
C4270 C 0.2021 0.34793 0.38678 0.0
C4271 C 0.20502 0.36053 0.37467 0.0
H4272 H 0.38931 0.15556 0.65235 0.0
H4273 H 0.38655 0.20987 0.65882 0.0
H4274 H 0.36625 0.21183 0.63555 0.0
H4275 H 0.3476 0.19795 0.61494 0.0
H4276 H 0.34956 0.14358 0.60884 0.0
H4277 H 0.37198 0.14183 0.63022 0.0
C4278 C 0.3844 0.16784 0.64852 0.0
C4279 C 0.38933 0.18253 0.65737 0.0
C4280 C 0.37254 0.16886 0.63524 0.0
C4281 C 0.3829 0.19836 0.65227 0.0
C4282 C 0.37126 0.19949 0.63897 0.0
C4283 C 0.35309 0.18573 0.61813 0.0
C4284 C 0.34687 0.17091 0.6104 0.0
C4285 C 0.36575 0.1848 0.6306 0.0
C4286 C 0.35411 0.15518 0.61464 0.0
C4287 C 0.36689 0.15417 0.62691 0.0
H4288 H 0.83679 0.38312 0.64714 0.0
H4289 H 0.78214 0.38217 0.65014 0.0
H4290 H 0.78101 0.36143 0.62718 0.0
H4291 H 0.7956 0.34191 0.60778 0.0
H4292 H 0.85025 0.3425 0.60496 0.0
H4293 H 0.8513 0.36512 0.62614 0.0
C4294 C 0.82463 0.37852 0.64263 0.0
C4295 C 0.80958 0.38409 0.65043 0.0
C4296 C 0.82406 0.36646 0.62948 0.0
C4297 C 0.79392 0.37804 0.64441 0.0
C4298 C 0.79325 0.36615 0.63129 0.0
C4299 C 0.80772 0.34714 0.61164 0.0
C4300 C 0.82282 0.34045 0.60488 0.0
C4301 C 0.80825 0.36002 0.62396 0.0
C4302 C 0.83844 0.3474 0.60999 0.0
C4303 C 0.83906 0.3603 0.62215 0.0
H4304 H 0.15045 0.61288 0.65593 0.0
H4305 H 0.20497 0.60887 0.65881 0.0
H4306 H 0.20789 0.62907 0.6355 0.0
H4307 H 0.19506 0.64973 0.61609 0.0
H4308 H 0.14058 0.65437 0.61363 0.0
H4309 H 0.13754 0.63194 0.63484 0.0
C4310 C 0.16296 0.61626 0.6513 0.0
C4311 C 0.17747 0.6095 0.65917 0.0
C4312 C 0.16456 0.62807 0.63803 0.0
C4313 C 0.19359 0.61396 0.65302 0.0
C4314 C 0.19528 0.62555 0.63971 0.0
C4315 C 0.18251 0.64568 0.62002 0.0
C4316 C 0.16808 0.65378 0.6134 0.0
C4317 C 0.18087 0.63296 0.63239 0.0
C4318 C 0.1519 0.64836 0.61858 0.0
C4319 C 0.15015 0.63557 0.63076 0.0
loop_
_geom_bond_atom_site_label_1
_geom_bond_atom_site_label_2
_geom_bond_distance
_geom_bond_site_symmetry_2
_ccdc_geom_bond_type
In0 O1 2.294 . S
In0 O2 2.326 . S
In0 O6 2.266 . S
In0 O7 2.326 . S
In0 O8 2.266 . S
In0 O9 2.326 . S
In0 O11 2.294 . S
In0 O12 2.326 . S
O1 In0 2.294 . S
O1 C10 1.240 . S
O2 In0 2.326 . S
O2 C10 1.252 . S
C3 O6 1.252 . S
C3 O7 1.260 . S
C4 O11 1.240 . S
C4 O12 1.252 . S
C5 O8 1.252 . S
C5 O9 1.260 . S
O6 In0 2.266 . S
O6 C3 1.252 . S
O7 In0 2.326 . S
O7 C3 1.260 . S
O8 In0 2.266 . S
O8 C5 1.252 . S
O9 In0 2.326 . S
O9 C5 1.260 . S
C10 O1 1.240 . S
C10 O2 1.252 . S
O11 In0 2.294 . S
O11 C4 1.240 . S
O12 In0 2.326 . S
O12 C4 1.252 . S
In13 O14 2.294 . S
In13 O15 2.326 . S
In13 O19 2.266 . S
In13 O20 2.326 . S
In13 O21 2.266 . S
In13 O22 2.326 . S
In13 O24 2.294 . S
In13 O25 2.326 . S
O14 In13 2.294 . S
O14 C23 1.240 . S
O15 In13 2.326 . S
O15 C23 1.252 . S
C16 O19 1.252 . S
C16 O20 1.260 . S
C17 O24 1.240 . S
C17 O25 1.252 . S
C18 O21 1.252 . S
C18 O22 1.260 . S
O19 In13 2.266 . S
O19 C16 1.252 . S
O20 In13 2.326 . S
O20 C16 1.260 . S
O21 In13 2.266 . S
O21 C18 1.252 . S
O22 In13 2.326 . S
O22 C18 1.260 . S
C23 O14 1.240 . S
C23 O15 1.252 . S
O24 In13 2.294 . S
O24 C17 1.240 . S
O25 In13 2.326 . S
O25 C17 1.252 . S
In26 O27 2.294 . S
In26 O28 2.326 . S
In26 O32 2.266 . S
In26 O33 2.326 . S
In26 O34 2.266 . S
In26 O35 2.326 . S
In26 O37 2.294 . S
In26 O38 2.326 . S
O27 In26 2.294 . S
O27 C36 1.240 . S
O28 In26 2.326 . S
O28 C36 1.252 . S
C29 O32 1.252 . S
C29 O33 1.260 . S
C30 O37 1.240 . S
C30 O38 1.252 . S
C31 O34 1.252 . S
C31 O35 1.260 . S
O32 In26 2.266 . S
O32 C29 1.252 . S
O33 In26 2.326 . S
O33 C29 1.260 . S
O34 In26 2.266 . S
O34 C31 1.252 . S
O35 In26 2.326 . S
O35 C31 1.260 . S
C36 O27 1.240 . S
C36 O28 1.252 . S
O37 In26 2.294 . S
O37 C30 1.240 . S
O38 In26 2.326 . S
O38 C30 1.252 . S
In39 O40 2.294 . S
In39 O41 2.326 . S
In39 O45 2.266 . S
In39 O46 2.326 . S
In39 O47 2.266 . S
In39 O48 2.326 . S
In39 O50 2.294 . S
In39 O51 2.326 . S
O40 In39 2.294 . S
O40 C49 1.240 . S
O41 In39 2.326 . S
O41 C49 1.252 . S
C42 O45 1.252 . S
C42 O46 1.260 . S
C43 O50 1.240 . S
C43 O51 1.252 . S
C44 O47 1.252 . S
C44 O48 1.260 . S
O45 In39 2.266 . S
O45 C42 1.252 . S
O46 In39 2.326 . S
O46 C42 1.260 . S
O47 In39 2.266 . S
O47 C44 1.252 . S
O48 In39 2.326 . S
O48 C44 1.260 . S
C49 O40 1.240 . S
C49 O41 1.252 . S
O50 In39 2.294 . S
O50 C43 1.240 . S
O51 In39 2.326 . S
O51 C43 1.252 . S
In52 O53 2.294 . S
In52 O54 2.326 . S
In52 O58 2.266 . S
In52 O59 2.326 . S
In52 O60 2.266 . S
In52 O61 2.326 . S
In52 O63 2.294 . S
In52 O64 2.326 . S
O53 In52 2.294 . S
O53 C62 1.240 . S
O54 In52 2.326 . S
O54 C62 1.252 . S
C55 O58 1.252 . S
C55 O59 1.260 . S
C56 O63 1.240 . S
C56 O64 1.252 . S
C57 O60 1.252 . S
C57 O61 1.260 . S
O58 In52 2.266 . S
O58 C55 1.252 . S
O59 In52 2.326 . S
O59 C55 1.260 . S
O60 In52 2.266 . S
O60 C57 1.252 . S
O61 In52 2.326 . S
O61 C57 1.260 . S
C62 O53 1.240 . S
C62 O54 1.252 . S
O63 In52 2.294 . S
O63 C56 1.240 . S
O64 In52 2.326 . S
O64 C56 1.252 . S
In65 O66 2.294 . S
In65 O67 2.326 . S
In65 O71 2.266 . S
In65 O72 2.326 . S
In65 O73 2.266 . S
In65 O74 2.326 . S
In65 O76 2.294 . S
In65 O77 2.326 . S
O66 In65 2.294 . S
O66 C75 1.240 . S
O67 In65 2.326 . S
O67 C75 1.252 . S
C68 O71 1.252 . S
C68 O72 1.260 . S
C69 O76 1.240 . S
C69 O77 1.252 . S
C70 O73 1.252 . S
C70 O74 1.260 . S
O71 In65 2.266 . S
O71 C68 1.252 . S
O72 In65 2.326 . S
O72 C68 1.260 . S
O73 In65 2.266 . S
O73 C70 1.252 . S
O74 In65 2.326 . S
O74 C70 1.260 . S
C75 O66 1.240 . S
C75 O67 1.252 . S
O76 In65 2.294 . S
O76 C69 1.240 . S
O77 In65 2.326 . S
O77 C69 1.252 . S
In78 O79 2.294 . S
In78 O80 2.326 . S
In78 O84 2.266 . S
In78 O85 2.326 . S
In78 O86 2.266 . S
In78 O87 2.326 . S
In78 O89 2.294 . S
In78 O90 2.326 . S
O79 In78 2.294 . S
O79 C88 1.240 . S
O80 In78 2.326 . S
O80 C88 1.252 . S
C81 O84 1.252 . S
C81 O85 1.260 . S
C82 O89 1.240 . S
C82 O90 1.252 . S
C83 O86 1.252 . S
C83 O87 1.260 . S
O84 In78 2.266 . S
O84 C81 1.252 . S
O85 In78 2.326 . S
O85 C81 1.260 . S
O86 In78 2.266 . S
O86 C83 1.252 . S
O87 In78 2.326 . S
O87 C83 1.260 . S
C88 O79 1.240 . S
C88 O80 1.252 . S
O89 In78 2.294 . S
O89 C82 1.240 . S
O90 In78 2.326 . S
O90 C82 1.252 . S
In91 O92 2.294 . S
In91 O93 2.326 . S
In91 O97 2.266 . S
In91 O98 2.326 . S
In91 O99 2.266 . S
In91 O100 2.326 . S
In91 O102 2.294 . S
In91 O103 2.326 . S
O92 In91 2.294 . S
O92 C101 1.240 . S
O93 In91 2.326 . S
O93 C101 1.252 . S
C94 O97 1.252 . S
C94 O98 1.260 . S
C95 O102 1.240 . S
C95 O103 1.252 . S
C96 O99 1.252 . S
C96 O100 1.260 . S
O97 In91 2.266 . S
O97 C94 1.252 . S
O98 In91 2.326 . S
O98 C94 1.260 . S
O99 In91 2.266 . S
O99 C96 1.252 . S
O100 In91 2.326 . S
O100 C96 1.260 . S
C101 O92 1.240 . S
C101 O93 1.252 . S
O102 In91 2.294 . S
O102 C95 1.240 . S
O103 In91 2.326 . S
O103 C95 1.252 . S
In104 O105 2.294 . S
In104 O106 2.326 . S
In104 O110 2.266 . S
In104 O111 2.326 . S
In104 O112 2.266 . S
In104 O113 2.326 . S
In104 O115 2.294 . S
In104 O116 2.326 . S
O105 In104 2.294 . S
O105 C114 1.240 . S
O106 In104 2.326 . S
O106 C114 1.252 . S
C107 O110 1.252 . S
C107 O111 1.260 . S
C108 O115 1.240 . S
C108 O116 1.252 . S
C109 O112 1.252 . S
C109 O113 1.260 . S
O110 In104 2.266 . S
O110 C107 1.252 . S
O111 In104 2.326 . S
O111 C107 1.260 . S
O112 In104 2.266 . S
O112 C109 1.252 . S
O113 In104 2.326 . S
O113 C109 1.260 . S
C114 O105 1.240 . S
C114 O106 1.252 . S
O115 In104 2.294 . S
O115 C108 1.240 . S
O116 In104 2.326 . S
O116 C108 1.252 . S
In117 O118 2.294 . S
In117 O119 2.326 . S
In117 O123 2.266 . S
In117 O124 2.326 . S
In117 O125 2.266 . S
In117 O126 2.326 . S
In117 O128 2.294 . S
In117 O129 2.326 . S
O118 In117 2.294 . S
O118 C127 1.240 . S
O119 In117 2.326 . S
O119 C127 1.252 . S
C120 O123 1.252 . S
C120 O124 1.260 . S
C121 O128 1.240 . S
C121 O129 1.252 . S
C122 O125 1.252 . S
C122 O126 1.260 . S
O123 In117 2.266 . S
O123 C120 1.252 . S
O124 In117 2.326 . S
O124 C120 1.260 . S
O125 In117 2.266 . S
O125 C122 1.252 . S
O126 In117 2.326 . S
O126 C122 1.260 . S
C127 O118 1.240 . S
C127 O119 1.252 . S
O128 In117 2.294 . S
O128 C121 1.240 . S
O129 In117 2.326 . S
O129 C121 1.252 . S
In130 O131 2.294 . S
In130 O132 2.326 . S
In130 O136 2.266 . S
In130 O137 2.326 . S
In130 O138 2.266 . S
In130 O139 2.326 . S
In130 O141 2.294 . S
In130 O142 2.326 . S
O131 In130 2.294 . S
O131 C140 1.240 . S
O132 In130 2.326 . S
O132 C140 1.252 . S
C133 O136 1.252 . S
C133 O137 1.260 . S
C134 O141 1.240 . S
C134 O142 1.252 . S
C135 O138 1.252 . S
C135 O139 1.260 . S
O136 In130 2.266 . S
O136 C133 1.252 . S
O137 In130 2.326 . S
O137 C133 1.260 . S
O138 In130 2.266 . S
O138 C135 1.252 . S
O139 In130 2.326 . S
O139 C135 1.260 . S
C140 O131 1.240 . S
C140 O132 1.252 . S
O141 In130 2.294 . S
O141 C134 1.240 . S
O142 In130 2.326 . S
O142 C134 1.252 . S
In143 O144 2.294 . S
In143 O145 2.326 . S
In143 O149 2.266 . S
In143 O150 2.326 . S
In143 O151 2.266 . S
In143 O152 2.326 . S
In143 O154 2.294 . S
In143 O155 2.326 . S
O144 In143 2.294 . S
O144 C153 1.240 . S
O145 In143 2.326 . S
O145 C153 1.252 . S
C146 O149 1.252 . S
C146 O150 1.260 . S
C147 O154 1.240 . S
C147 O155 1.252 . S
C148 O151 1.252 . S
C148 O152 1.260 . S
O149 In143 2.266 . S
O149 C146 1.252 . S
O150 In143 2.326 . S
O150 C146 1.260 . S
O151 In143 2.266 . S
O151 C148 1.252 . S
O152 In143 2.326 . S
O152 C148 1.260 . S
C153 O144 1.240 . S
C153 O145 1.252 . S
O154 In143 2.294 . S
O154 C147 1.240 . S
O155 In143 2.326 . S
O155 C147 1.252 . S
In156 O157 2.294 . S
In156 O158 2.326 . S
In156 O162 2.266 . S
In156 O163 2.326 . S
In156 O164 2.266 . S
In156 O165 2.326 . S
In156 O167 2.294 . S
In156 O168 2.326 . S
O157 In156 2.294 . S
O157 C166 1.240 . S
O158 In156 2.326 . S
O158 C166 1.252 . S
C159 O162 1.252 . S
C159 O163 1.260 . S
C160 O167 1.240 . S
C160 O168 1.252 . S
C161 O164 1.252 . S
C161 O165 1.260 . S
O162 In156 2.266 . S
O162 C159 1.252 . S
O163 In156 2.326 . S
O163 C159 1.260 . S
O164 In156 2.266 . S
O164 C161 1.252 . S
O165 In156 2.326 . S
O165 C161 1.260 . S
C166 O157 1.240 . S
C166 O158 1.252 . S
O167 In156 2.294 . S
O167 C160 1.240 . S
O168 In156 2.326 . S
O168 C160 1.252 . S
In169 O170 2.294 . S
In169 O171 2.326 . S
In169 O175 2.266 . S
In169 O176 2.326 . S
In169 O177 2.266 . S
In169 O178 2.326 . S
In169 O180 2.294 . S
In169 O181 2.326 . S
O170 In169 2.294 . S
O170 C179 1.240 . S
O171 In169 2.326 . S
O171 C179 1.252 . S
C172 O175 1.252 . S
C172 O176 1.260 . S
C173 O180 1.240 . S
C173 O181 1.252 . S
C174 O177 1.252 . S
C174 O178 1.260 . S
O175 In169 2.266 . S
O175 C172 1.252 . S
O176 In169 2.326 . S
O176 C172 1.260 . S
O177 In169 2.266 . S
O177 C174 1.252 . S
O178 In169 2.326 . S
O178 C174 1.260 . S
C179 O170 1.240 . S
C179 O171 1.252 . S
O180 In169 2.294 . S
O180 C173 1.240 . S
O181 In169 2.326 . S
O181 C173 1.252 . S
In182 O183 2.294 . S
In182 O184 2.326 . S
In182 O188 2.266 . S
In182 O189 2.326 . S
In182 O190 2.266 . S
In182 O191 2.326 . S
In182 O193 2.294 . S
In182 O194 2.326 . S
O183 In182 2.294 . S
O183 C192 1.240 . S
O184 In182 2.326 . S
O184 C192 1.252 . S
C185 O188 1.252 . S
C185 O189 1.260 . S
C186 O193 1.240 . S
C186 O194 1.252 . S
C187 O190 1.252 . S
C187 O191 1.260 . S
O188 In182 2.266 . S
O188 C185 1.252 . S
O189 In182 2.326 . S
O189 C185 1.260 . S
O190 In182 2.266 . S
O190 C187 1.252 . S
O191 In182 2.326 . S
O191 C187 1.260 . S
C192 O183 1.240 . S
C192 O184 1.252 . S
O193 In182 2.294 . S
O193 C186 1.240 . S
O194 In182 2.326 . S
O194 C186 1.252 . S
In195 O196 2.294 . S
In195 O197 2.326 . S
In195 O201 2.266 . S
In195 O202 2.326 . S
In195 O203 2.266 . S
In195 O204 2.326 . S
In195 O206 2.294 . S
In195 O207 2.326 . S
O196 In195 2.294 . S
O196 C205 1.240 . S
O197 In195 2.326 . S
O197 C205 1.252 . S
C198 O201 1.252 . S
C198 O202 1.260 . S
C199 O206 1.240 . S
C199 O207 1.252 . S
C200 O203 1.252 . S
C200 O204 1.260 . S
O201 In195 2.266 . S
O201 C198 1.252 . S
O202 In195 2.326 . S
O202 C198 1.260 . S
O203 In195 2.266 . S
O203 C200 1.252 . S
O204 In195 2.326 . S
O204 C200 1.260 . S
C205 O196 1.240 . S
C205 O197 1.252 . S
O206 In195 2.294 . S
O206 C199 1.240 . S
O207 In195 2.326 . S
O207 C199 1.252 . S
In208 O209 2.294 . S
In208 O210 2.326 . S
In208 O214 2.266 . S
In208 O215 2.326 . S
In208 O216 2.266 . S
In208 O217 2.326 . S
In208 O219 2.294 . S
In208 O220 2.326 . S
O209 In208 2.294 . S
O209 C218 1.240 . S
O210 In208 2.326 . S
O210 C218 1.252 . S
C211 O214 1.252 . S
C211 O215 1.260 . S
C212 O219 1.240 . S
C212 O220 1.252 . S
C213 O216 1.252 . S
C213 O217 1.260 . S
O214 In208 2.266 . S
O214 C211 1.252 . S
O215 In208 2.326 . S
O215 C211 1.260 . S
O216 In208 2.266 . S
O216 C213 1.252 . S
O217 In208 2.326 . S
O217 C213 1.260 . S
C218 O209 1.240 . S
C218 O210 1.252 . S
O219 In208 2.294 . S
O219 C212 1.240 . S
O220 In208 2.326 . S
O220 C212 1.252 . S
In221 O222 2.294 . S
In221 O223 2.326 . S
In221 O227 2.266 . S
In221 O228 2.326 . S
In221 O229 2.266 . S
In221 O230 2.326 . S
In221 O232 2.294 . S
In221 O233 2.326 . S
O222 In221 2.294 . S
O222 C231 1.240 . S
O223 In221 2.326 . S
O223 C231 1.252 . S
C224 O227 1.252 . S
C224 O228 1.260 . S
C225 O232 1.240 . S
C225 O233 1.252 . S
C226 O229 1.252 . S
C226 O230 1.260 . S
O227 In221 2.266 . S
O227 C224 1.252 . S
O228 In221 2.326 . S
O228 C224 1.260 . S
O229 In221 2.266 . S
O229 C226 1.252 . S
O230 In221 2.326 . S
O230 C226 1.260 . S
C231 O222 1.240 . S
C231 O223 1.252 . S
O232 In221 2.294 . S
O232 C225 1.240 . S
O233 In221 2.326 . S
O233 C225 1.252 . S
In234 O235 2.294 . S
In234 O236 2.326 . S
In234 O240 2.266 . S
In234 O241 2.326 . S
In234 O242 2.266 . S
In234 O243 2.326 . S
In234 O245 2.294 . S
In234 O246 2.326 . S
O235 In234 2.294 . S
O235 C244 1.240 . S
O236 In234 2.326 . S
O236 C244 1.252 . S
C237 O240 1.252 . S
C237 O241 1.260 . S
C238 O245 1.240 . S
C238 O246 1.252 . S
C239 O242 1.252 . S
C239 O243 1.260 . S
O240 In234 2.266 . S
O240 C237 1.252 . S
O241 In234 2.326 . S
O241 C237 1.260 . S
O242 In234 2.266 . S
O242 C239 1.252 . S
O243 In234 2.326 . S
O243 C239 1.260 . S
C244 O235 1.240 . S
C244 O236 1.252 . S
O245 In234 2.294 . S
O245 C238 1.240 . S
O246 In234 2.326 . S
O246 C238 1.252 . S
In247 O248 2.294 . S
In247 O249 2.326 . S
In247 O253 2.266 . S
In247 O254 2.326 . S
In247 O255 2.266 . S
In247 O256 2.326 . S
In247 O258 2.294 . S
In247 O259 2.326 . S
O248 In247 2.294 . S
O248 C257 1.240 . S
O249 In247 2.326 . S
O249 C257 1.252 . S
C250 O253 1.252 . S
C250 O254 1.260 . S
C251 O258 1.240 . S
C251 O259 1.252 . S
C252 O255 1.252 . S
C252 O256 1.260 . S
O253 In247 2.266 . S
O253 C250 1.252 . S
O254 In247 2.326 . S
O254 C250 1.260 . S
O255 In247 2.266 . S
O255 C252 1.252 . S
O256 In247 2.326 . S
O256 C252 1.260 . S
C257 O248 1.240 . S
C257 O249 1.252 . S
O258 In247 2.294 . S
O258 C251 1.240 . S
O259 In247 2.326 . S
O259 C251 1.252 . S
In260 O261 2.294 . S
In260 O262 2.326 . S
In260 O266 2.266 . S
In260 O267 2.326 . S
In260 O268 2.266 . S
In260 O269 2.326 . S
In260 O271 2.294 . S
In260 O272 2.326 . S
O261 In260 2.294 . S
O261 C270 1.240 . S
O262 In260 2.326 . S
O262 C270 1.252 . S
C263 O266 1.252 . S
C263 O267 1.260 . S
C264 O271 1.240 . S
C264 O272 1.252 . S
C265 O268 1.252 . S
C265 O269 1.260 . S
O266 In260 2.266 . S
O266 C263 1.252 . S
O267 In260 2.326 . S
O267 C263 1.260 . S
O268 In260 2.266 . S
O268 C265 1.252 . S
O269 In260 2.326 . S
O269 C265 1.260 . S
C270 O261 1.240 . S
C270 O262 1.252 . S
O271 In260 2.294 . S
O271 C264 1.240 . S
O272 In260 2.326 . S
O272 C264 1.252 . S
In273 O274 2.294 . S
In273 O275 2.326 . S
In273 O279 2.266 . S
In273 O280 2.326 . S
In273 O281 2.266 . S
In273 O282 2.326 . S
In273 O284 2.294 . S
In273 O285 2.326 . S
O274 In273 2.294 . S
O274 C283 1.240 . S
O275 In273 2.326 . S
O275 C283 1.252 . S
C276 O279 1.252 . S
C276 O280 1.260 . S
C277 O284 1.240 . S
C277 O285 1.252 . S
C278 O281 1.252 . S
C278 O282 1.260 . S
O279 In273 2.266 . S
O279 C276 1.252 . S
O280 In273 2.326 . S
O280 C276 1.260 . S
O281 In273 2.266 . S
O281 C278 1.252 . S
O282 In273 2.326 . S
O282 C278 1.260 . S
C283 O274 1.240 . S
C283 O275 1.252 . S
O284 In273 2.294 . S
O284 C277 1.240 . S
O285 In273 2.326 . S
O285 C277 1.252 . S
In286 O287 2.294 . S
In286 O288 2.326 . S
In286 O292 2.266 . S
In286 O293 2.326 . S
In286 O294 2.266 . S
In286 O295 2.326 . S
In286 O297 2.294 . S
In286 O298 2.326 . S
O287 In286 2.294 . S
O287 C296 1.240 . S
O288 In286 2.326 . S
O288 C296 1.252 . S
C289 O292 1.252 . S
C289 O293 1.260 . S
C290 O297 1.240 . S
C290 O298 1.252 . S
C291 O294 1.252 . S
C291 O295 1.260 . S
O292 In286 2.266 . S
O292 C289 1.252 . S
O293 In286 2.326 . S
O293 C289 1.260 . S
O294 In286 2.266 . S
O294 C291 1.252 . S
O295 In286 2.326 . S
O295 C291 1.260 . S
C296 O287 1.240 . S
C296 O288 1.252 . S
O297 In286 2.294 . S
O297 C290 1.240 . S
O298 In286 2.326 . S
O298 C290 1.252 . S
In299 O300 2.294 . S
In299 O301 2.326 . S
In299 O305 2.266 . S
In299 O306 2.326 . S
In299 O307 2.266 . S
In299 O308 2.326 . S
In299 O310 2.294 . S
In299 O311 2.326 . S
O300 In299 2.294 . S
O300 C309 1.240 . S
O301 In299 2.326 . S
O301 C309 1.252 . S
C302 O305 1.252 . S
C302 O306 1.260 . S
C303 O310 1.240 . S
C303 O311 1.252 . S
C304 O307 1.252 . S
C304 O308 1.260 . S
O305 In299 2.266 . S
O305 C302 1.252 . S
O306 In299 2.326 . S
O306 C302 1.260 . S
O307 In299 2.266 . S
O307 C304 1.252 . S
O308 In299 2.326 . S
O308 C304 1.260 . S
C309 O300 1.240 . S
C309 O301 1.252 . S
O310 In299 2.294 . S
O310 C303 1.240 . S
O311 In299 2.326 . S
O311 C303 1.252 . S
In312 O313 2.294 . S
In312 O314 2.326 . S
In312 O318 2.266 . S
In312 O319 2.326 . S
In312 O320 2.266 . S
In312 O321 2.326 . S
In312 O323 2.294 . S
In312 O324 2.326 . S
O313 In312 2.294 . S
O313 C322 1.240 . S
O314 In312 2.326 . S
O314 C322 1.252 . S
C315 O318 1.252 . S
C315 O319 1.260 . S
C316 O323 1.240 . S
C316 O324 1.252 . S
C317 O320 1.252 . S
C317 O321 1.260 . S
O318 In312 2.266 . S
O318 C315 1.252 . S
O319 In312 2.326 . S
O319 C315 1.260 . S
O320 In312 2.266 . S
O320 C317 1.252 . S
O321 In312 2.326 . S
O321 C317 1.260 . S
C322 O313 1.240 . S
C322 O314 1.252 . S
O323 In312 2.294 . S
O323 C316 1.240 . S
O324 In312 2.326 . S
O324 C316 1.252 . S
In325 O326 2.294 . S
In325 O327 2.326 . S
In325 O331 2.266 . S
In325 O332 2.326 . S
In325 O333 2.266 . S
In325 O334 2.326 . S
In325 O336 2.294 . S
In325 O337 2.326 . S
O326 In325 2.294 . S
O326 C335 1.240 . S
O327 In325 2.326 . S
O327 C335 1.252 . S
C328 O331 1.252 . S
C328 O332 1.260 . S
C329 O336 1.240 . S
C329 O337 1.252 . S
C330 O333 1.252 . S
C330 O334 1.260 . S
O331 In325 2.266 . S
O331 C328 1.252 . S
O332 In325 2.326 . S
O332 C328 1.260 . S
O333 In325 2.266 . S
O333 C330 1.252 . S
O334 In325 2.326 . S
O334 C330 1.260 . S
C335 O326 1.240 . S
C335 O327 1.252 . S
O336 In325 2.294 . S
O336 C329 1.240 . S
O337 In325 2.326 . S
O337 C329 1.252 . S
In338 O339 2.294 . S
In338 O340 2.326 . S
In338 O344 2.266 . S
In338 O345 2.326 . S
In338 O346 2.266 . S
In338 O347 2.326 . S
In338 O349 2.294 . S
In338 O350 2.326 . S
O339 In338 2.294 . S
O339 C348 1.240 . S
O340 In338 2.326 . S
O340 C348 1.252 . S
C341 O344 1.252 . S
C341 O345 1.260 . S
C342 O349 1.240 . S
C342 O350 1.252 . S
C343 O346 1.252 . S
C343 O347 1.260 . S
O344 In338 2.266 . S
O344 C341 1.252 . S
O345 In338 2.326 . S
O345 C341 1.260 . S
O346 In338 2.266 . S
O346 C343 1.252 . S
O347 In338 2.326 . S
O347 C343 1.260 . S
C348 O339 1.240 . S
C348 O340 1.252 . S
O349 In338 2.294 . S
O349 C342 1.240 . S
O350 In338 2.326 . S
O350 C342 1.252 . S
In351 O352 2.294 . S
In351 O353 2.326 . S
In351 O357 2.266 . S
In351 O358 2.326 . S
In351 O359 2.266 . S
In351 O360 2.326 . S
In351 O362 2.294 . S
In351 O363 2.326 . S
O352 In351 2.294 . S
O352 C361 1.240 . S
O353 In351 2.326 . S
O353 C361 1.252 . S
C354 O357 1.252 . S
C354 O358 1.260 . S
C355 O362 1.240 . S
C355 O363 1.252 . S
C356 O359 1.252 . S
C356 O360 1.260 . S
O357 In351 2.266 . S
O357 C354 1.252 . S
O358 In351 2.326 . S
O358 C354 1.260 . S
O359 In351 2.266 . S
O359 C356 1.252 . S
O360 In351 2.326 . S
O360 C356 1.260 . S
C361 O352 1.240 . S
C361 O353 1.252 . S
O362 In351 2.294 . S
O362 C355 1.240 . S
O363 In351 2.326 . S
O363 C355 1.252 . S
In364 O365 2.294 . S
In364 O366 2.326 . S
In364 O370 2.266 . S
In364 O371 2.326 . S
In364 O372 2.266 . S
In364 O373 2.326 . S
In364 O375 2.294 . S
In364 O376 2.326 . S
O365 In364 2.294 . S
O365 C374 1.240 . S
O366 In364 2.326 . S
O366 C374 1.252 . S
C367 O370 1.252 . S
C367 O371 1.260 . S
C368 O375 1.240 . S
C368 O376 1.252 . S
C369 O372 1.252 . S
C369 O373 1.260 . S
O370 In364 2.266 . S
O370 C367 1.252 . S
O371 In364 2.326 . S
O371 C367 1.260 . S
O372 In364 2.266 . S
O372 C369 1.252 . S
O373 In364 2.326 . S
O373 C369 1.260 . S
C374 O365 1.240 . S
C374 O366 1.252 . S
O375 In364 2.294 . S
O375 C368 1.240 . S
O376 In364 2.326 . S
O376 C368 1.252 . S
In377 O378 2.294 . S
In377 O379 2.326 . S
In377 O383 2.266 . S
In377 O384 2.326 . S
In377 O385 2.266 . S
In377 O386 2.326 . S
In377 O388 2.294 . S
In377 O389 2.326 . S
O378 In377 2.294 . S
O378 C387 1.240 . S
O379 In377 2.326 . S
O379 C387 1.252 . S
C380 O383 1.252 . S
C380 O384 1.260 . S
C381 O388 1.240 . S
C381 O389 1.252 . S
C382 O385 1.252 . S
C382 O386 1.260 . S
O383 In377 2.266 . S
O383 C380 1.252 . S
O384 In377 2.326 . S
O384 C380 1.260 . S
O385 In377 2.266 . S
O385 C382 1.252 . S
O386 In377 2.326 . S
O386 C382 1.260 . S
C387 O378 1.240 . S
C387 O379 1.252 . S
O388 In377 2.294 . S
O388 C381 1.240 . S
O389 In377 2.326 . S
O389 C381 1.252 . S
In390 O391 2.294 . S
In390 O392 2.326 . S
In390 O396 2.266 . S
In390 O397 2.326 . S
In390 O398 2.266 . S
In390 O399 2.326 . S
In390 O401 2.294 . S
In390 O402 2.326 . S
O391 In390 2.294 . S
O391 C400 1.240 . S
O392 In390 2.326 . S
O392 C400 1.252 . S
C393 O396 1.252 . S
C393 O397 1.260 . S
C394 O401 1.240 . S
C394 O402 1.252 . S
C395 O398 1.252 . S
C395 O399 1.260 . S
O396 In390 2.266 . S
O396 C393 1.252 . S
O397 In390 2.326 . S
O397 C393 1.260 . S
O398 In390 2.266 . S
O398 C395 1.252 . S
O399 In390 2.326 . S
O399 C395 1.260 . S
C400 O391 1.240 . S
C400 O392 1.252 . S
O401 In390 2.294 . S
O401 C394 1.240 . S
O402 In390 2.326 . S
O402 C394 1.252 . S
In403 O404 2.294 . S
In403 O405 2.326 . S
In403 O409 2.266 . S
In403 O410 2.326 . S
In403 O411 2.266 . S
In403 O412 2.326 . S
In403 O414 2.294 . S
In403 O415 2.326 . S
O404 In403 2.294 . S
O404 C413 1.240 . S
O405 In403 2.326 . S
O405 C413 1.252 . S
C406 O409 1.252 . S
C406 O410 1.260 . S
C407 O414 1.240 . S
C407 O415 1.252 . S
C408 O411 1.252 . S
C408 O412 1.260 . S
O409 In403 2.266 . S
O409 C406 1.252 . S
O410 In403 2.326 . S
O410 C406 1.260 . S
O411 In403 2.266 . S
O411 C408 1.252 . S
O412 In403 2.326 . S
O412 C408 1.260 . S
C413 O404 1.240 . S
C413 O405 1.252 . S
O414 In403 2.294 . S
O414 C407 1.240 . S
O415 In403 2.326 . S
O415 C407 1.252 . S
In416 O417 2.294 . S
In416 O418 2.326 . S
In416 O422 2.266 . S
In416 O423 2.326 . S
In416 O424 2.266 . S
In416 O425 2.326 . S
In416 O427 2.294 . S
In416 O428 2.326 . S
O417 In416 2.294 . S
O417 C426 1.240 . S
O418 In416 2.326 . S
O418 C426 1.252 . S
C419 O422 1.252 . S
C419 O423 1.260 . S
C420 O427 1.240 . S
C420 O428 1.252 . S
C421 O424 1.252 . S
C421 O425 1.260 . S
O422 In416 2.266 . S
O422 C419 1.252 . S
O423 In416 2.326 . S
O423 C419 1.260 . S
O424 In416 2.266 . S
O424 C421 1.252 . S
O425 In416 2.326 . S
O425 C421 1.260 . S
C426 O417 1.240 . S
C426 O418 1.252 . S
O427 In416 2.294 . S
O427 C420 1.240 . S
O428 In416 2.326 . S
O428 C420 1.252 . S
In429 O430 2.294 . S
In429 O431 2.326 . S
In429 O435 2.266 . S
In429 O436 2.326 . S
In429 O437 2.266 . S
In429 O438 2.326 . S
In429 O440 2.294 . S
In429 O441 2.326 . S
O430 In429 2.294 . S
O430 C439 1.240 . S
O431 In429 2.326 . S
O431 C439 1.252 . S
C432 O435 1.252 . S
C432 O436 1.260 . S
C433 O440 1.240 . S
C433 O441 1.252 . S
C434 O437 1.252 . S
C434 O438 1.260 . S
O435 In429 2.266 . S
O435 C432 1.252 . S
O436 In429 2.326 . S
O436 C432 1.260 . S
O437 In429 2.266 . S
O437 C434 1.252 . S
O438 In429 2.326 . S
O438 C434 1.260 . S
C439 O430 1.240 . S
C439 O431 1.252 . S
O440 In429 2.294 . S
O440 C433 1.240 . S
O441 In429 2.326 . S
O441 C433 1.252 . S
In442 O443 2.294 . S
In442 O444 2.326 . S
In442 O448 2.266 . S
In442 O449 2.326 . S
In442 O450 2.266 . S
In442 O451 2.326 . S
In442 O453 2.294 . S
In442 O454 2.326 . S
O443 In442 2.294 . S
O443 C452 1.240 . S
O444 In442 2.326 . S
O444 C452 1.252 . S
C445 O448 1.252 . S
C445 O449 1.260 . S
C446 O453 1.240 . S
C446 O454 1.252 . S
C447 O450 1.252 . S
C447 O451 1.260 . S
O448 In442 2.266 . S
O448 C445 1.252 . S
O449 In442 2.326 . S
O449 C445 1.260 . S
O450 In442 2.266 . S
O450 C447 1.252 . S
O451 In442 2.326 . S
O451 C447 1.260 . S
C452 O443 1.240 . S
C452 O444 1.252 . S
O453 In442 2.294 . S
O453 C446 1.240 . S
O454 In442 2.326 . S
O454 C446 1.252 . S
In455 O456 2.294 . S
In455 O457 2.326 . S
In455 O461 2.266 . S
In455 O462 2.326 . S
In455 O463 2.266 . S
In455 O464 2.326 . S
In455 O466 2.294 . S
In455 O467 2.326 . S
O456 In455 2.294 . S
O456 C465 1.240 . S
O457 In455 2.326 . S
O457 C465 1.252 . S
C458 O461 1.252 . S
C458 O462 1.260 . S
C459 O466 1.240 . S
C459 O467 1.252 . S
C460 O463 1.252 . S
C460 O464 1.260 . S
O461 In455 2.266 . S
O461 C458 1.252 . S
O462 In455 2.326 . S
O462 C458 1.260 . S
O463 In455 2.266 . S
O463 C460 1.252 . S
O464 In455 2.326 . S
O464 C460 1.260 . S
C465 O456 1.240 . S
C465 O457 1.252 . S
O466 In455 2.294 . S
O466 C459 1.240 . S
O467 In455 2.326 . S
O467 C459 1.252 . S
In468 O469 2.294 . S
In468 O470 2.326 . S
In468 O474 2.266 . S
In468 O475 2.326 . S
In468 O476 2.266 . S
In468 O477 2.326 . S
In468 O479 2.294 . S
In468 O480 2.326 . S
O469 In468 2.294 . S
O469 C478 1.240 . S
O470 In468 2.326 . S
O470 C478 1.252 . S
C471 O474 1.252 . S
C471 O475 1.260 . S
C472 O479 1.240 . S
C472 O480 1.252 . S
C473 O476 1.252 . S
C473 O477 1.260 . S
O474 In468 2.266 . S
O474 C471 1.252 . S
O475 In468 2.326 . S
O475 C471 1.260 . S
O476 In468 2.266 . S
O476 C473 1.252 . S
O477 In468 2.326 . S
O477 C473 1.260 . S
C478 O469 1.240 . S
C478 O470 1.252 . S
O479 In468 2.294 . S
O479 C472 1.240 . S
O480 In468 2.326 . S
O480 C472 1.252 . S
In481 O482 2.294 . S
In481 O483 2.326 . S
In481 O487 2.266 . S
In481 O488 2.326 . S
In481 O489 2.266 . S
In481 O490 2.326 . S
In481 O492 2.294 . S
In481 O493 2.326 . S
O482 In481 2.294 . S
O482 C491 1.240 . S
O483 In481 2.326 . S
O483 C491 1.252 . S
C484 O487 1.252 . S
C484 O488 1.260 . S
C485 O492 1.240 . S
C485 O493 1.252 . S
C486 O489 1.252 . S
C486 O490 1.260 . S
O487 In481 2.266 . S
O487 C484 1.252 . S
O488 In481 2.326 . S
O488 C484 1.260 . S
O489 In481 2.266 . S
O489 C486 1.252 . S
O490 In481 2.326 . S
O490 C486 1.260 . S
C491 O482 1.240 . S
C491 O483 1.252 . S
O492 In481 2.294 . S
O492 C485 1.240 . S
O493 In481 2.326 . S
O493 C485 1.252 . S
In494 O495 2.294 . S
In494 O496 2.326 . S
In494 O500 2.266 . S
In494 O501 2.326 . S
In494 O502 2.266 . S
In494 O503 2.326 . S
In494 O505 2.294 . S
In494 O506 2.326 . S
O495 In494 2.294 . S
O495 C504 1.240 . S
O496 In494 2.326 . S
O496 C504 1.252 . S
C497 O500 1.252 . S
C497 O501 1.260 . S
C498 O505 1.240 . S
C498 O506 1.252 . S
C499 O502 1.252 . S
C499 O503 1.260 . S
O500 In494 2.266 . S
O500 C497 1.252 . S
O501 In494 2.326 . S
O501 C497 1.260 . S
O502 In494 2.266 . S
O502 C499 1.252 . S
O503 In494 2.326 . S
O503 C499 1.260 . S
C504 O495 1.240 . S
C504 O496 1.252 . S
O505 In494 2.294 . S
O505 C498 1.240 . S
O506 In494 2.326 . S
O506 C498 1.252 . S
In507 O508 2.294 . S
In507 O509 2.326 . S
In507 O513 2.266 . S
In507 O514 2.326 . S
In507 O515 2.266 . S
In507 O516 2.326 . S
In507 O518 2.294 . S
In507 O519 2.326 . S
O508 In507 2.294 . S
O508 C517 1.240 . S
O509 In507 2.326 . S
O509 C517 1.252 . S
C510 O513 1.252 . S
C510 O514 1.260 . S
C511 O518 1.240 . S
C511 O519 1.252 . S
C512 O515 1.252 . S
C512 O516 1.260 . S
O513 In507 2.266 . S
O513 C510 1.252 . S
O514 In507 2.326 . S
O514 C510 1.260 . S
O515 In507 2.266 . S
O515 C512 1.252 . S
O516 In507 2.326 . S
O516 C512 1.260 . S
C517 O508 1.240 . S
C517 O509 1.252 . S
O518 In507 2.294 . S
O518 C511 1.240 . S
O519 In507 2.326 . S
O519 C511 1.252 . S
In520 O521 2.294 . S
In520 O522 2.326 . S
In520 O526 2.266 . S
In520 O527 2.326 . S
In520 O528 2.266 . S
In520 O529 2.326 . S
In520 O531 2.294 . S
In520 O532 2.326 . S
O521 In520 2.294 . S
O521 C530 1.240 . S
O522 In520 2.326 . S
O522 C530 1.252 . S
C523 O526 1.252 . S
C523 O527 1.260 . S
C524 O531 1.240 . S
C524 O532 1.252 . S
C525 O528 1.252 . S
C525 O529 1.260 . S
O526 In520 2.266 . S
O526 C523 1.252 . S
O527 In520 2.326 . S
O527 C523 1.260 . S
O528 In520 2.266 . S
O528 C525 1.252 . S
O529 In520 2.326 . S
O529 C525 1.260 . S
C530 O521 1.240 . S
C530 O522 1.252 . S
O531 In520 2.294 . S
O531 C524 1.240 . S
O532 In520 2.326 . S
O532 C524 1.252 . S
In533 O534 2.294 . S
In533 O535 2.326 . S
In533 O539 2.266 . S
In533 O540 2.326 . S
In533 O541 2.266 . S
In533 O542 2.326 . S
In533 O544 2.294 . S
In533 O545 2.326 . S
O534 In533 2.294 . S
O534 C543 1.240 . S
O535 In533 2.326 . S
O535 C543 1.252 . S
C536 O539 1.252 . S
C536 O540 1.260 . S
C537 O544 1.240 . S
C537 O545 1.252 . S
C538 O541 1.252 . S
C538 O542 1.260 . S
O539 In533 2.266 . S
O539 C536 1.252 . S
O540 In533 2.326 . S
O540 C536 1.260 . S
O541 In533 2.266 . S
O541 C538 1.252 . S
O542 In533 2.326 . S
O542 C538 1.260 . S
C543 O534 1.240 . S
C543 O535 1.252 . S
O544 In533 2.294 . S
O544 C537 1.240 . S
O545 In533 2.326 . S
O545 C537 1.252 . S
In546 O547 2.294 . S
In546 O548 2.326 . S
In546 O552 2.266 . S
In546 O553 2.326 . S
In546 O554 2.266 . S
In546 O555 2.326 . S
In546 O557 2.294 . S
In546 O558 2.326 . S
O547 In546 2.294 . S
O547 C556 1.240 . S
O548 In546 2.326 . S
O548 C556 1.252 . S
C549 O552 1.252 . S
C549 O553 1.260 . S
C550 O557 1.240 . S
C550 O558 1.252 . S
C551 O554 1.252 . S
C551 O555 1.260 . S
O552 In546 2.266 . S
O552 C549 1.252 . S
O553 In546 2.326 . S
O553 C549 1.260 . S
O554 In546 2.266 . S
O554 C551 1.252 . S
O555 In546 2.326 . S
O555 C551 1.260 . S
C556 O547 1.240 . S
C556 O548 1.252 . S
O557 In546 2.294 . S
O557 C550 1.240 . S
O558 In546 2.326 . S
O558 C550 1.252 . S
In559 O560 2.294 . S
In559 O561 2.326 . S
In559 O565 2.266 . S
In559 O566 2.326 . S
In559 O567 2.266 . S
In559 O568 2.326 . S
In559 O570 2.294 . S
In559 O571 2.326 . S
O560 In559 2.294 . S
O560 C569 1.240 . S
O561 In559 2.326 . S
O561 C569 1.252 . S
C562 O565 1.252 . S
C562 O566 1.260 . S
C563 O570 1.240 . S
C563 O571 1.252 . S
C564 O567 1.252 . S
C564 O568 1.260 . S
O565 In559 2.266 . S
O565 C562 1.252 . S
O566 In559 2.326 . S
O566 C562 1.260 . S
O567 In559 2.266 . S
O567 C564 1.252 . S
O568 In559 2.326 . S
O568 C564 1.260 . S
C569 O560 1.240 . S
C569 O561 1.252 . S
O570 In559 2.294 . S
O570 C563 1.240 . S
O571 In559 2.326 . S
O571 C563 1.252 . S
In572 O573 2.294 . S
In572 O574 2.326 . S
In572 O578 2.266 . S
In572 O579 2.326 . S
In572 O580 2.266 . S
In572 O581 2.326 . S
In572 O583 2.294 . S
In572 O584 2.326 . S
O573 In572 2.294 . S
O573 C582 1.240 . S
O574 In572 2.326 . S
O574 C582 1.252 . S
C575 O578 1.252 . S
C575 O579 1.260 . S
C576 O583 1.240 . S
C576 O584 1.252 . S
C577 O580 1.252 . S
C577 O581 1.260 . S
O578 In572 2.266 . S
O578 C575 1.252 . S
O579 In572 2.326 . S
O579 C575 1.260 . S
O580 In572 2.266 . S
O580 C577 1.252 . S
O581 In572 2.326 . S
O581 C577 1.260 . S
C582 O573 1.240 . S
C582 O574 1.252 . S
O583 In572 2.294 . S
O583 C576 1.240 . S
O584 In572 2.326 . S
O584 C576 1.252 . S
In585 O586 2.294 . S
In585 O587 2.326 . S
In585 O591 2.266 . S
In585 O592 2.326 . S
In585 O593 2.266 . S
In585 O594 2.326 . S
In585 O596 2.294 . S
In585 O597 2.326 . S
O586 In585 2.294 . S
O586 C595 1.240 . S
O587 In585 2.326 . S
O587 C595 1.252 . S
C588 O591 1.252 . S
C588 O592 1.260 . S
C589 O596 1.240 . S
C589 O597 1.252 . S
C590 O593 1.252 . S
C590 O594 1.260 . S
O591 In585 2.266 . S
O591 C588 1.252 . S
O592 In585 2.326 . S
O592 C588 1.260 . S
O593 In585 2.266 . S
O593 C590 1.252 . S
O594 In585 2.326 . S
O594 C590 1.260 . S
C595 O586 1.240 . S
C595 O587 1.252 . S
O596 In585 2.294 . S
O596 C589 1.240 . S
O597 In585 2.326 . S
O597 C589 1.252 . S
In598 O599 2.294 . S
In598 O600 2.326 . S
In598 O604 2.266 . S
In598 O605 2.326 . S
In598 O606 2.266 . S
In598 O607 2.326 . S
In598 O609 2.294 . S
In598 O610 2.326 . S
O599 In598 2.294 . S
O599 C608 1.240 . S
O600 In598 2.326 . S
O600 C608 1.252 . S
C601 O604 1.252 . S
C601 O605 1.260 . S
C602 O609 1.240 . S
C602 O610 1.252 . S
C603 O606 1.252 . S
C603 O607 1.260 . S
O604 In598 2.266 . S
O604 C601 1.252 . S
O605 In598 2.326 . S
O605 C601 1.260 . S
O606 In598 2.266 . S
O606 C603 1.252 . S
O607 In598 2.326 . S
O607 C603 1.260 . S
C608 O599 1.240 . S
C608 O600 1.252 . S
O609 In598 2.294 . S
O609 C602 1.240 . S
O610 In598 2.326 . S
O610 C602 1.252 . S
In611 O612 2.294 . S
In611 O613 2.326 . S
In611 O617 2.266 . S
In611 O618 2.326 . S
In611 O619 2.266 . S
In611 O620 2.326 . S
In611 O622 2.294 . S
In611 O623 2.326 . S
O612 In611 2.294 . S
O612 C621 1.240 . S
O613 In611 2.326 . S
O613 C621 1.252 . S
C614 O617 1.252 . S
C614 O618 1.260 . S
C615 O622 1.240 . S
C615 O623 1.252 . S
C616 O619 1.252 . S
C616 O620 1.260 . S
O617 In611 2.266 . S
O617 C614 1.252 . S
O618 In611 2.326 . S
O618 C614 1.260 . S
O619 In611 2.266 . S
O619 C616 1.252 . S
O620 In611 2.326 . S
O620 C616 1.260 . S
C621 O612 1.240 . S
C621 O613 1.252 . S
O622 In611 2.294 . S
O622 C615 1.240 . S
O623 In611 2.326 . S
O623 C615 1.252 . S
In624 O625 2.294 . S
In624 O626 2.326 . S
In624 O630 2.266 . S
In624 O631 2.326 . S
In624 O632 2.266 . S
In624 O633 2.326 . S
In624 O635 2.294 . S
In624 O636 2.326 . S
O625 In624 2.294 . S
O625 C634 1.240 . S
O626 In624 2.326 . S
O626 C634 1.252 . S
C627 O630 1.252 . S
C627 O631 1.260 . S
C628 O635 1.240 . S
C628 O636 1.252 . S
C629 O632 1.252 . S
C629 O633 1.260 . S
O630 In624 2.266 . S
O630 C627 1.252 . S
O631 In624 2.326 . S
O631 C627 1.260 . S
O632 In624 2.266 . S
O632 C629 1.252 . S
O633 In624 2.326 . S
O633 C629 1.260 . S
C634 O625 1.240 . S
C634 O626 1.252 . S
O635 In624 2.294 . S
O635 C628 1.240 . S
O636 In624 2.326 . S
O636 C628 1.252 . S
In637 O638 2.294 . S
In637 O639 2.326 . S
In637 O643 2.266 . S
In637 O644 2.326 . S
In637 O645 2.266 . S
In637 O646 2.326 . S
In637 O648 2.294 . S
In637 O649 2.326 . S
O638 In637 2.294 . S
O638 C647 1.240 . S
O639 In637 2.326 . S
O639 C647 1.252 . S
C640 O643 1.252 . S
C640 O644 1.260 . S
C641 O648 1.240 . S
C641 O649 1.252 . S
C642 O645 1.252 . S
C642 O646 1.260 . S
O643 In637 2.266 . S
O643 C640 1.252 . S
O644 In637 2.326 . S
O644 C640 1.260 . S
O645 In637 2.266 . S
O645 C642 1.252 . S
O646 In637 2.326 . S
O646 C642 1.260 . S
C647 O638 1.240 . S
C647 O639 1.252 . S
O648 In637 2.294 . S
O648 C641 1.240 . S
O649 In637 2.326 . S
O649 C641 1.252 . S
In650 O651 2.294 . S
In650 O652 2.326 . S
In650 O656 2.266 . S
In650 O657 2.326 . S
In650 O658 2.266 . S
In650 O659 2.326 . S
In650 O661 2.294 . S
In650 O662 2.326 . S
O651 In650 2.294 . S
O651 C660 1.240 . S
O652 In650 2.326 . S
O652 C660 1.252 . S
C653 O656 1.252 . S
C653 O657 1.260 . S
C654 O661 1.240 . S
C654 O662 1.252 . S
C655 O658 1.252 . S
C655 O659 1.260 . S
O656 In650 2.266 . S
O656 C653 1.252 . S
O657 In650 2.326 . S
O657 C653 1.260 . S
O658 In650 2.266 . S
O658 C655 1.252 . S
O659 In650 2.326 . S
O659 C655 1.260 . S
C660 O651 1.240 . S
C660 O652 1.252 . S
O661 In650 2.294 . S
O661 C654 1.240 . S
O662 In650 2.326 . S
O662 C654 1.252 . S
In663 O664 2.294 . S
In663 O665 2.326 . S
In663 O669 2.266 . S
In663 O670 2.326 . S
In663 O671 2.266 . S
In663 O672 2.326 . S
In663 O674 2.294 . S
In663 O675 2.326 . S
O664 In663 2.294 . S
O664 C673 1.240 . S
O665 In663 2.326 . S
O665 C673 1.252 . S
C666 O669 1.252 . S
C666 O670 1.260 . S
C667 O674 1.240 . S
C667 O675 1.252 . S
C668 O671 1.252 . S
C668 O672 1.260 . S
O669 In663 2.266 . S
O669 C666 1.252 . S
O670 In663 2.326 . S
O670 C666 1.260 . S
O671 In663 2.266 . S
O671 C668 1.252 . S
O672 In663 2.326 . S
O672 C668 1.260 . S
C673 O664 1.240 . S
C673 O665 1.252 . S
O674 In663 2.294 . S
O674 C667 1.240 . S
O675 In663 2.326 . S
O675 C667 1.252 . S
In676 O677 2.294 . S
In676 O678 2.326 . S
In676 O682 2.266 . S
In676 O683 2.326 . S
In676 O684 2.266 . S
In676 O685 2.326 . S
In676 O687 2.294 . S
In676 O688 2.326 . S
O677 In676 2.294 . S
O677 C686 1.240 . S
O678 In676 2.326 . S
O678 C686 1.252 . S
C679 O682 1.252 . S
C679 O683 1.260 . S
C680 O687 1.240 . S
C680 O688 1.252 . S
C681 O684 1.252 . S
C681 O685 1.260 . S
O682 In676 2.266 . S
O682 C679 1.252 . S
O683 In676 2.326 . S
O683 C679 1.260 . S
O684 In676 2.266 . S
O684 C681 1.252 . S
O685 In676 2.326 . S
O685 C681 1.260 . S
C686 O677 1.240 . S
C686 O678 1.252 . S
O687 In676 2.294 . S
O687 C680 1.240 . S
O688 In676 2.326 . S
O688 C680 1.252 . S
In689 O690 2.294 . S
In689 O691 2.326 . S
In689 O695 2.266 . S
In689 O696 2.326 . S
In689 O697 2.266 . S
In689 O698 2.326 . S
In689 O700 2.294 . S
In689 O701 2.326 . S
O690 In689 2.294 . S
O690 C699 1.240 . S
O691 In689 2.326 . S
O691 C699 1.252 . S
C692 O695 1.252 . S
C692 O696 1.260 . S
C693 O700 1.240 . S
C693 O701 1.252 . S
C694 O697 1.252 . S
C694 O698 1.260 . S
O695 In689 2.266 . S
O695 C692 1.252 . S
O696 In689 2.326 . S
O696 C692 1.260 . S
O697 In689 2.266 . S
O697 C694 1.252 . S
O698 In689 2.326 . S
O698 C694 1.260 . S
C699 O690 1.240 . S
C699 O691 1.252 . S
O700 In689 2.294 . S
O700 C693 1.240 . S
O701 In689 2.326 . S
O701 C693 1.252 . S
In702 O703 2.294 . S
In702 O704 2.326 . S
In702 O708 2.266 . S
In702 O709 2.326 . S
In702 O710 2.266 . S
In702 O711 2.326 . S
In702 O713 2.294 . S
In702 O714 2.326 . S
O703 In702 2.294 . S
O703 C712 1.240 . S
O704 In702 2.326 . S
O704 C712 1.252 . S
C705 O708 1.252 . S
C705 O709 1.260 . S
C706 O713 1.240 . S
C706 O714 1.252 . S
C707 O710 1.252 . S
C707 O711 1.260 . S
O708 In702 2.266 . S
O708 C705 1.252 . S
O709 In702 2.326 . S
O709 C705 1.260 . S
O710 In702 2.266 . S
O710 C707 1.252 . S
O711 In702 2.326 . S
O711 C707 1.260 . S
C712 O703 1.240 . S
C712 O704 1.252 . S
O713 In702 2.294 . S
O713 C706 1.240 . S
O714 In702 2.326 . S
O714 C706 1.252 . S
In715 O716 2.294 . S
In715 O717 2.326 . S
In715 O721 2.266 . S
In715 O722 2.326 . S
In715 O723 2.266 . S
In715 O724 2.326 . S
In715 O726 2.294 . S
In715 O727 2.326 . S
O716 In715 2.294 . S
O716 C725 1.240 . S
O717 In715 2.326 . S
O717 C725 1.252 . S
C718 O721 1.252 . S
C718 O722 1.260 . S
C719 O726 1.240 . S
C719 O727 1.252 . S
C720 O723 1.252 . S
C720 O724 1.260 . S
O721 In715 2.266 . S
O721 C718 1.252 . S
O722 In715 2.326 . S
O722 C718 1.260 . S
O723 In715 2.266 . S
O723 C720 1.252 . S
O724 In715 2.326 . S
O724 C720 1.260 . S
C725 O716 1.240 . S
C725 O717 1.252 . S
O726 In715 2.294 . S
O726 C719 1.240 . S
O727 In715 2.326 . S
O727 C719 1.252 . S
In728 O729 2.294 . S
In728 O730 2.326 . S
In728 O734 2.266 . S
In728 O735 2.326 . S
In728 O736 2.266 . S
In728 O737 2.326 . S
In728 O739 2.294 . S
In728 O740 2.326 . S
O729 In728 2.294 . S
O729 C738 1.240 . S
O730 In728 2.326 . S
O730 C738 1.252 . S
C731 O734 1.252 . S
C731 O735 1.260 . S
C732 O739 1.240 . S
C732 O740 1.252 . S
C733 O736 1.252 . S
C733 O737 1.260 . S
O734 In728 2.266 . S
O734 C731 1.252 . S
O735 In728 2.326 . S
O735 C731 1.260 . S
O736 In728 2.266 . S
O736 C733 1.252 . S
O737 In728 2.326 . S
O737 C733 1.260 . S
C738 O729 1.240 . S
C738 O730 1.252 . S
O739 In728 2.294 . S
O739 C732 1.240 . S
O740 In728 2.326 . S
O740 C732 1.252 . S
In741 O742 2.294 . S
In741 O743 2.326 . S
In741 O747 2.266 . S
In741 O748 2.326 . S
In741 O749 2.266 . S
In741 O750 2.326 . S
In741 O752 2.294 . S
In741 O753 2.326 . S
O742 In741 2.294 . S
O742 C751 1.240 . S
O743 In741 2.326 . S
O743 C751 1.252 . S
C744 O747 1.252 . S
C744 O748 1.260 . S
C745 O752 1.240 . S
C745 O753 1.252 . S
C746 O749 1.252 . S
C746 O750 1.260 . S
O747 In741 2.266 . S
O747 C744 1.252 . S
O748 In741 2.326 . S
O748 C744 1.260 . S
O749 In741 2.266 . S
O749 C746 1.252 . S
O750 In741 2.326 . S
O750 C746 1.260 . S
C751 O742 1.240 . S
C751 O743 1.252 . S
O752 In741 2.294 . S
O752 C745 1.240 . S
O753 In741 2.326 . S
O753 C745 1.252 . S
In754 O755 2.294 . S
In754 O756 2.326 . S
In754 O760 2.266 . S
In754 O761 2.326 . S
In754 O762 2.266 . S
In754 O763 2.326 . S
In754 O765 2.294 . S
In754 O766 2.326 . S
O755 In754 2.294 . S
O755 C764 1.240 . S
O756 In754 2.326 . S
O756 C764 1.252 . S
C757 O760 1.252 . S
C757 O761 1.260 . S
C758 O765 1.240 . S
C758 O766 1.252 . S
C759 O762 1.252 . S
C759 O763 1.260 . S
O760 In754 2.266 . S
O760 C757 1.252 . S
O761 In754 2.326 . S
O761 C757 1.260 . S
O762 In754 2.266 . S
O762 C759 1.252 . S
O763 In754 2.326 . S
O763 C759 1.260 . S
C764 O755 1.240 . S
C764 O756 1.252 . S
O765 In754 2.294 . S
O765 C758 1.240 . S
O766 In754 2.326 . S
O766 C758 1.252 . S
In767 O768 2.294 . S
In767 O769 2.326 . S
In767 O773 2.266 . S
In767 O774 2.326 . S
In767 O775 2.266 . S
In767 O776 2.326 . S
In767 O778 2.294 . S
In767 O779 2.326 . S
O768 In767 2.294 . S
O768 C777 1.240 . S
O769 In767 2.326 . S
O769 C777 1.252 . S
C770 O773 1.252 . S
C770 O774 1.260 . S
C771 O778 1.240 . S
C771 O779 1.252 . S
C772 O775 1.252 . S
C772 O776 1.260 . S
O773 In767 2.266 . S
O773 C770 1.252 . S
O774 In767 2.326 . S
O774 C770 1.260 . S
O775 In767 2.266 . S
O775 C772 1.252 . S
O776 In767 2.326 . S
O776 C772 1.260 . S
C777 O768 1.240 . S
C777 O769 1.252 . S
O778 In767 2.294 . S
O778 C771 1.240 . S
O779 In767 2.326 . S
O779 C771 1.252 . S
In780 O781 2.294 . S
In780 O782 2.326 . S
In780 O786 2.266 . S
In780 O787 2.326 . S
In780 O788 2.266 . S
In780 O789 2.326 . S
In780 O791 2.294 . S
In780 O792 2.326 . S
O781 In780 2.294 . S
O781 C790 1.240 . S
O782 In780 2.326 . S
O782 C790 1.252 . S
C783 O786 1.252 . S
C783 O787 1.260 . S
C784 O791 1.240 . S
C784 O792 1.252 . S
C785 O788 1.252 . S
C785 O789 1.260 . S
O786 In780 2.266 . S
O786 C783 1.252 . S
O787 In780 2.326 . S
O787 C783 1.260 . S
O788 In780 2.266 . S
O788 C785 1.252 . S
O789 In780 2.326 . S
O789 C785 1.260 . S
C790 O781 1.240 . S
C790 O782 1.252 . S
O791 In780 2.294 . S
O791 C784 1.240 . S
O792 In780 2.326 . S
O792 C784 1.252 . S
In793 O794 2.294 . S
In793 O795 2.326 . S
In793 O799 2.266 . S
In793 O800 2.326 . S
In793 O801 2.266 . S
In793 O802 2.326 . S
In793 O804 2.294 . S
In793 O805 2.326 . S
O794 In793 2.294 . S
O794 C803 1.240 . S
O795 In793 2.326 . S
O795 C803 1.252 . S
C796 O799 1.252 . S
C796 O800 1.260 . S
C797 O804 1.240 . S
C797 O805 1.252 . S
C798 O801 1.252 . S
C798 O802 1.260 . S
O799 In793 2.266 . S
O799 C796 1.252 . S
O800 In793 2.326 . S
O800 C796 1.260 . S
O801 In793 2.266 . S
O801 C798 1.252 . S
O802 In793 2.326 . S
O802 C798 1.260 . S
C803 O794 1.240 . S
C803 O795 1.252 . S
O804 In793 2.294 . S
O804 C797 1.240 . S
O805 In793 2.326 . S
O805 C797 1.252 . S
In806 O807 2.294 . S
In806 O808 2.326 . S
In806 O812 2.266 . S
In806 O813 2.326 . S
In806 O814 2.266 . S
In806 O815 2.326 . S
In806 O817 2.294 . S
In806 O818 2.326 . S
O807 In806 2.294 . S
O807 C816 1.240 . S
O808 In806 2.326 . S
O808 C816 1.252 . S
C809 O812 1.252 . S
C809 O813 1.260 . S
C810 O817 1.240 . S
C810 O818 1.252 . S
C811 O814 1.252 . S
C811 O815 1.260 . S
O812 In806 2.266 . S
O812 C809 1.252 . S
O813 In806 2.326 . S
O813 C809 1.260 . S
O814 In806 2.266 . S
O814 C811 1.252 . S
O815 In806 2.326 . S
O815 C811 1.260 . S
C816 O807 1.240 . S
C816 O808 1.252 . S
O817 In806 2.294 . S
O817 C810 1.240 . S
O818 In806 2.326 . S
O818 C810 1.252 . S
In819 O820 2.294 . S
In819 O821 2.326 . S
In819 O825 2.266 . S
In819 O826 2.326 . S
In819 O827 2.266 . S
In819 O828 2.326 . S
In819 O830 2.294 . S
In819 O831 2.326 . S
O820 In819 2.294 . S
O820 C829 1.240 . S
O821 In819 2.326 . S
O821 C829 1.252 . S
C822 O825 1.252 . S
C822 O826 1.260 . S
C823 O830 1.240 . S
C823 O831 1.252 . S
C824 O827 1.252 . S
C824 O828 1.260 . S
O825 In819 2.266 . S
O825 C822 1.252 . S
O826 In819 2.326 . S
O826 C822 1.260 . S
O827 In819 2.266 . S
O827 C824 1.252 . S
O828 In819 2.326 . S
O828 C824 1.260 . S
C829 O820 1.240 . S
C829 O821 1.252 . S
O830 In819 2.294 . S
O830 C823 1.240 . S
O831 In819 2.326 . S
O831 C823 1.252 . S
In832 O833 2.294 . S
In832 O834 2.326 . S
In832 O838 2.266 . S
In832 O839 2.326 . S
In832 O840 2.266 . S
In832 O841 2.326 . S
In832 O843 2.294 . S
In832 O844 2.326 . S
O833 In832 2.294 . S
O833 C842 1.240 . S
O834 In832 2.326 . S
O834 C842 1.252 . S
C835 O838 1.252 . S
C835 O839 1.260 . S
C836 O843 1.240 . S
C836 O844 1.252 . S
C837 O840 1.252 . S
C837 O841 1.260 . S
O838 In832 2.266 . S
O838 C835 1.252 . S
O839 In832 2.326 . S
O839 C835 1.260 . S
O840 In832 2.266 . S
O840 C837 1.252 . S
O841 In832 2.326 . S
O841 C837 1.260 . S
C842 O833 1.240 . S
C842 O834 1.252 . S
O843 In832 2.294 . S
O843 C836 1.240 . S
O844 In832 2.326 . S
O844 C836 1.252 . S
In845 O846 2.294 . S
In845 O847 2.326 . S
In845 O851 2.266 . S
In845 O852 2.326 . S
In845 O853 2.266 . S
In845 O854 2.326 . S
In845 O856 2.294 . S
In845 O857 2.326 . S
O846 In845 2.294 . S
O846 C855 1.240 . S
O847 In845 2.326 . S
O847 C855 1.252 . S
C848 O851 1.252 . S
C848 O852 1.260 . S
C849 O856 1.240 . S
C849 O857 1.252 . S
C850 O853 1.252 . S
C850 O854 1.260 . S
O851 In845 2.266 . S
O851 C848 1.252 . S
O852 In845 2.326 . S
O852 C848 1.260 . S
O853 In845 2.266 . S
O853 C850 1.252 . S
O854 In845 2.326 . S
O854 C850 1.260 . S
C855 O846 1.240 . S
C855 O847 1.252 . S
O856 In845 2.294 . S
O856 C849 1.240 . S
O857 In845 2.326 . S
O857 C849 1.252 . S
In858 O859 2.294 . S
In858 O860 2.326 . S
In858 O864 2.266 . S
In858 O865 2.326 . S
In858 O866 2.266 . S
In858 O867 2.326 . S
In858 O869 2.294 . S
In858 O870 2.326 . S
O859 In858 2.294 . S
O859 C868 1.240 . S
O860 In858 2.326 . S
O860 C868 1.252 . S
C861 O864 1.252 . S
C861 O865 1.260 . S
C862 O869 1.240 . S
C862 O870 1.252 . S
C863 O866 1.252 . S
C863 O867 1.260 . S
O864 In858 2.266 . S
O864 C861 1.252 . S
O865 In858 2.326 . S
O865 C861 1.260 . S
O866 In858 2.266 . S
O866 C863 1.252 . S
O867 In858 2.326 . S
O867 C863 1.260 . S
C868 O859 1.240 . S
C868 O860 1.252 . S
O869 In858 2.294 . S
O869 C862 1.240 . S
O870 In858 2.326 . S
O870 C862 1.252 . S
In871 O872 2.294 . S
In871 O873 2.326 . S
In871 O877 2.266 . S
In871 O878 2.326 . S
In871 O879 2.266 . S
In871 O880 2.326 . S
In871 O882 2.294 . S
In871 O883 2.326 . S
O872 In871 2.294 . S
O872 C881 1.240 . S
O873 In871 2.326 . S
O873 C881 1.252 . S
C874 O877 1.252 . S
C874 O878 1.260 . S
C875 O882 1.240 . S
C875 O883 1.252 . S
C876 O879 1.252 . S
C876 O880 1.260 . S
O877 In871 2.266 . S
O877 C874 1.252 . S
O878 In871 2.326 . S
O878 C874 1.260 . S
O879 In871 2.266 . S
O879 C876 1.252 . S
O880 In871 2.326 . S
O880 C876 1.260 . S
C881 O872 1.240 . S
C881 O873 1.252 . S
O882 In871 2.294 . S
O882 C875 1.240 . S
O883 In871 2.326 . S
O883 C875 1.252 . S
In884 O885 2.294 . S
In884 O886 2.326 . S
In884 O890 2.266 . S
In884 O891 2.326 . S
In884 O892 2.266 . S
In884 O893 2.326 . S
In884 O895 2.294 . S
In884 O896 2.326 . S
O885 In884 2.294 . S
O885 C894 1.240 . S
O886 In884 2.326 . S
O886 C894 1.252 . S
C887 O890 1.252 . S
C887 O891 1.260 . S
C888 O895 1.240 . S
C888 O896 1.252 . S
C889 O892 1.252 . S
C889 O893 1.260 . S
O890 In884 2.266 . S
O890 C887 1.252 . S
O891 In884 2.326 . S
O891 C887 1.260 . S
O892 In884 2.266 . S
O892 C889 1.252 . S
O893 In884 2.326 . S
O893 C889 1.260 . S
C894 O885 1.240 . S
C894 O886 1.252 . S
O895 In884 2.294 . S
O895 C888 1.240 . S
O896 In884 2.326 . S
O896 C888 1.252 . S
In897 O898 2.294 . S
In897 O899 2.326 . S
In897 O903 2.266 . S
In897 O904 2.326 . S
In897 O905 2.266 . S
In897 O906 2.326 . S
In897 O908 2.294 . S
In897 O909 2.326 . S
O898 In897 2.294 . S
O898 C907 1.240 . S
O899 In897 2.326 . S
O899 C907 1.252 . S
C900 O903 1.252 . S
C900 O904 1.260 . S
C901 O908 1.240 . S
C901 O909 1.252 . S
C902 O905 1.252 . S
C902 O906 1.260 . S
O903 In897 2.266 . S
O903 C900 1.252 . S
O904 In897 2.326 . S
O904 C900 1.260 . S
O905 In897 2.266 . S
O905 C902 1.252 . S
O906 In897 2.326 . S
O906 C902 1.260 . S
C907 O898 1.240 . S
C907 O899 1.252 . S
O908 In897 2.294 . S
O908 C901 1.240 . S
O909 In897 2.326 . S
O909 C901 1.252 . S
In910 O911 2.294 . S
In910 O912 2.326 . S
In910 O916 2.266 . S
In910 O917 2.326 . S
In910 O918 2.266 . S
In910 O919 2.326 . S
In910 O921 2.294 . S
In910 O922 2.326 . S
O911 In910 2.294 . S
O911 C920 1.240 . S
O912 In910 2.326 . S
O912 C920 1.252 . S
C913 O916 1.252 . S
C913 O917 1.260 . S
C914 O921 1.240 . S
C914 O922 1.252 . S
C915 O918 1.252 . S
C915 O919 1.260 . S
O916 In910 2.266 . S
O916 C913 1.252 . S
O917 In910 2.326 . S
O917 C913 1.260 . S
O918 In910 2.266 . S
O918 C915 1.252 . S
O919 In910 2.326 . S
O919 C915 1.260 . S
C920 O911 1.240 . S
C920 O912 1.252 . S
O921 In910 2.294 . S
O921 C914 1.240 . S
O922 In910 2.326 . S
O922 C914 1.252 . S
In923 O924 2.294 . S
In923 O925 2.326 . S
In923 O929 2.266 . S
In923 O930 2.326 . S
In923 O931 2.266 . S
In923 O932 2.326 . S
In923 O934 2.294 . S
In923 O935 2.326 . S
O924 In923 2.294 . S
O924 C933 1.240 . S
O925 In923 2.326 . S
O925 C933 1.252 . S
C926 O929 1.252 . S
C926 O930 1.260 . S
C927 O934 1.240 . S
C927 O935 1.252 . S
C928 O931 1.252 . S
C928 O932 1.260 . S
O929 In923 2.266 . S
O929 C926 1.252 . S
O930 In923 2.326 . S
O930 C926 1.260 . S
O931 In923 2.266 . S
O931 C928 1.252 . S
O932 In923 2.326 . S
O932 C928 1.260 . S
C933 O924 1.240 . S
C933 O925 1.252 . S
O934 In923 2.294 . S
O934 C927 1.240 . S
O935 In923 2.326 . S
O935 C927 1.252 . S
In936 O937 2.294 . S
In936 O938 2.326 . S
In936 O942 2.266 . S
In936 O943 2.326 . S
In936 O944 2.266 . S
In936 O945 2.326 . S
In936 O947 2.294 . S
In936 O948 2.326 . S
O937 In936 2.294 . S
O937 C946 1.240 . S
O938 In936 2.326 . S
O938 C946 1.252 . S
C939 O942 1.252 . S
C939 O943 1.260 . S
C940 O947 1.240 . S
C940 O948 1.252 . S
C941 O944 1.252 . S
C941 O945 1.260 . S
O942 In936 2.266 . S
O942 C939 1.252 . S
O943 In936 2.326 . S
O943 C939 1.260 . S
O944 In936 2.266 . S
O944 C941 1.252 . S
O945 In936 2.326 . S
O945 C941 1.260 . S
C946 O937 1.240 . S
C946 O938 1.252 . S
O947 In936 2.294 . S
O947 C940 1.240 . S
O948 In936 2.326 . S
O948 C940 1.252 . S
In949 O950 2.294 . S
In949 O951 2.326 . S
In949 O955 2.266 . S
In949 O956 2.326 . S
In949 O957 2.266 . S
In949 O958 2.326 . S
In949 O960 2.294 . S
In949 O961 2.326 . S
O950 In949 2.294 . S
O950 C959 1.240 . S
O951 In949 2.326 . S
O951 C959 1.252 . S
C952 O955 1.252 . S
C952 O956 1.260 . S
C953 O960 1.240 . S
C953 O961 1.252 . S
C954 O957 1.252 . S
C954 O958 1.260 . S
O955 In949 2.266 . S
O955 C952 1.252 . S
O956 In949 2.326 . S
O956 C952 1.260 . S
O957 In949 2.266 . S
O957 C954 1.252 . S
O958 In949 2.326 . S
O958 C954 1.260 . S
C959 O950 1.240 . S
C959 O951 1.252 . S
O960 In949 2.294 . S
O960 C953 1.240 . S
O961 In949 2.326 . S
O961 C953 1.252 . S
In962 O963 2.294 . S
In962 O964 2.326 . S
In962 O968 2.266 . S
In962 O969 2.326 . S
In962 O970 2.266 . S
In962 O971 2.326 . S
In962 O973 2.294 . S
In962 O974 2.326 . S
O963 In962 2.294 . S
O963 C972 1.240 . S
O964 In962 2.326 . S
O964 C972 1.252 . S
C965 O968 1.252 . S
C965 O969 1.260 . S
C966 O973 1.240 . S
C966 O974 1.252 . S
C967 O970 1.252 . S
C967 O971 1.260 . S
O968 In962 2.266 . S
O968 C965 1.252 . S
O969 In962 2.326 . S
O969 C965 1.260 . S
O970 In962 2.266 . S
O970 C967 1.252 . S
O971 In962 2.326 . S
O971 C967 1.260 . S
C972 O963 1.240 . S
C972 O964 1.252 . S
O973 In962 2.294 . S
O973 C966 1.240 . S
O974 In962 2.326 . S
O974 C966 1.252 . S
In975 O976 2.294 . S
In975 O977 2.326 . S
In975 O981 2.266 . S
In975 O982 2.326 . S
In975 O983 2.266 . S
In975 O984 2.326 . S
In975 O986 2.294 . S
In975 O987 2.326 . S
O976 In975 2.294 . S
O976 C985 1.240 . S
O977 In975 2.326 . S
O977 C985 1.252 . S
C978 O981 1.252 . S
C978 O982 1.260 . S
C979 O986 1.240 . S
C979 O987 1.252 . S
C980 O983 1.252 . S
C980 O984 1.260 . S
O981 In975 2.266 . S
O981 C978 1.252 . S
O982 In975 2.326 . S
O982 C978 1.260 . S
O983 In975 2.266 . S
O983 C980 1.252 . S
O984 In975 2.326 . S
O984 C980 1.260 . S
C985 O976 1.240 . S
C985 O977 1.252 . S
O986 In975 2.294 . S
O986 C979 1.240 . S
O987 In975 2.326 . S
O987 C979 1.252 . S
In988 O989 2.294 . S
In988 O990 2.326 . S
In988 O994 2.266 . S
In988 O995 2.326 . S
In988 O996 2.266 . S
In988 O997 2.326 . S
In988 O999 2.294 . S
In988 O1000 2.326 . S
O989 In988 2.294 . S
O989 C998 1.240 . S
O990 In988 2.326 . S
O990 C998 1.252 . S
C991 O994 1.252 . S
C991 O995 1.260 . S
C992 O999 1.240 . S
C992 O1000 1.252 . S
C993 O996 1.252 . S
C993 O997 1.260 . S
O994 In988 2.266 . S
O994 C991 1.252 . S
O995 In988 2.326 . S
O995 C991 1.260 . S
O996 In988 2.266 . S
O996 C993 1.252 . S
O997 In988 2.326 . S
O997 C993 1.260 . S
C998 O989 1.240 . S
C998 O990 1.252 . S
O999 In988 2.294 . S
O999 C992 1.240 . S
O1000 In988 2.326 . S
O1000 C992 1.252 . S
In1001 O1002 2.294 . S
In1001 O1003 2.326 . S
In1001 O1007 2.266 . S
In1001 O1008 2.326 . S
In1001 O1009 2.266 . S
In1001 O1010 2.326 . S
In1001 O1012 2.294 . S
In1001 O1013 2.326 . S
O1002 In1001 2.294 . S
O1002 C1011 1.240 . S
O1003 In1001 2.326 . S
O1003 C1011 1.252 . S
C1004 O1007 1.252 . S
C1004 O1008 1.260 . S
C1005 O1012 1.240 . S
C1005 O1013 1.252 . S
C1006 O1009 1.252 . S
C1006 O1010 1.260 . S
O1007 In1001 2.266 . S
O1007 C1004 1.252 . S
O1008 In1001 2.326 . S
O1008 C1004 1.260 . S
O1009 In1001 2.266 . S
O1009 C1006 1.252 . S
O1010 In1001 2.326 . S
O1010 C1006 1.260 . S
C1011 O1002 1.240 . S
C1011 O1003 1.252 . S
O1012 In1001 2.294 . S
O1012 C1005 1.240 . S
O1013 In1001 2.326 . S
O1013 C1005 1.252 . S
In1014 O1015 2.294 . S
In1014 O1016 2.326 . S
In1014 O1020 2.266 . S
In1014 O1021 2.326 . S
In1014 O1022 2.266 . S
In1014 O1023 2.326 . S
In1014 O1025 2.294 . S
In1014 O1026 2.326 . S
O1015 In1014 2.294 . S
O1015 C1024 1.240 . S
O1016 In1014 2.326 . S
O1016 C1024 1.252 . S
C1017 O1020 1.252 . S
C1017 O1021 1.260 . S
C1018 O1025 1.240 . S
C1018 O1026 1.252 . S
C1019 O1022 1.252 . S
C1019 O1023 1.260 . S
O1020 In1014 2.266 . S
O1020 C1017 1.252 . S
O1021 In1014 2.326 . S
O1021 C1017 1.260 . S
O1022 In1014 2.266 . S
O1022 C1019 1.252 . S
O1023 In1014 2.326 . S
O1023 C1019 1.260 . S
C1024 O1015 1.240 . S
C1024 O1016 1.252 . S
O1025 In1014 2.294 . S
O1025 C1018 1.240 . S
O1026 In1014 2.326 . S
O1026 C1018 1.252 . S
In1027 O1028 2.294 . S
In1027 O1029 2.326 . S
In1027 O1033 2.266 . S
In1027 O1034 2.326 . S
In1027 O1035 2.266 . S
In1027 O1036 2.326 . S
In1027 O1038 2.294 . S
In1027 O1039 2.326 . S
O1028 In1027 2.294 . S
O1028 C1037 1.240 . S
O1029 In1027 2.326 . S
O1029 C1037 1.252 . S
C1030 O1033 1.252 . S
C1030 O1034 1.260 . S
C1031 O1038 1.240 . S
C1031 O1039 1.252 . S
C1032 O1035 1.252 . S
C1032 O1036 1.260 . S
O1033 In1027 2.266 . S
O1033 C1030 1.252 . S
O1034 In1027 2.326 . S
O1034 C1030 1.260 . S
O1035 In1027 2.266 . S
O1035 C1032 1.252 . S
O1036 In1027 2.326 . S
O1036 C1032 1.260 . S
C1037 O1028 1.240 . S
C1037 O1029 1.252 . S
O1038 In1027 2.294 . S
O1038 C1031 1.240 . S
O1039 In1027 2.326 . S
O1039 C1031 1.252 . S
In1040 O1041 2.294 . S
In1040 O1042 2.326 . S
In1040 O1046 2.266 . S
In1040 O1047 2.326 . S
In1040 O1048 2.266 . S
In1040 O1049 2.326 . S
In1040 O1051 2.294 . S
In1040 O1052 2.326 . S
O1041 In1040 2.294 . S
O1041 C1050 1.240 . S
O1042 In1040 2.326 . S
O1042 C1050 1.252 . S
C1043 O1046 1.252 . S
C1043 O1047 1.260 . S
C1044 O1051 1.240 . S
C1044 O1052 1.252 . S
C1045 O1048 1.252 . S
C1045 O1049 1.260 . S
O1046 In1040 2.266 . S
O1046 C1043 1.252 . S
O1047 In1040 2.326 . S
O1047 C1043 1.260 . S
O1048 In1040 2.266 . S
O1048 C1045 1.252 . S
O1049 In1040 2.326 . S
O1049 C1045 1.260 . S
C1050 O1041 1.240 . S
C1050 O1042 1.252 . S
O1051 In1040 2.294 . S
O1051 C1044 1.240 . S
O1052 In1040 2.326 . S
O1052 C1044 1.252 . S
In1053 O1054 2.294 . S
In1053 O1055 2.326 . S
In1053 O1059 2.266 . S
In1053 O1060 2.326 . S
In1053 O1061 2.266 . S
In1053 O1062 2.326 . S
In1053 O1064 2.294 . S
In1053 O1065 2.326 . S
O1054 In1053 2.294 . S
O1054 C1063 1.240 . S
O1055 In1053 2.326 . S
O1055 C1063 1.252 . S
C1056 O1059 1.252 . S
C1056 O1060 1.260 . S
C1057 O1064 1.240 . S
C1057 O1065 1.252 . S
C1058 O1061 1.252 . S
C1058 O1062 1.260 . S
O1059 In1053 2.266 . S
O1059 C1056 1.252 . S
O1060 In1053 2.326 . S
O1060 C1056 1.260 . S
O1061 In1053 2.266 . S
O1061 C1058 1.252 . S
O1062 In1053 2.326 . S
O1062 C1058 1.260 . S
C1063 O1054 1.240 . S
C1063 O1055 1.252 . S
O1064 In1053 2.294 . S
O1064 C1057 1.240 . S
O1065 In1053 2.326 . S
O1065 C1057 1.252 . S
In1066 O1067 2.294 . S
In1066 O1068 2.326 . S
In1066 O1072 2.266 . S
In1066 O1073 2.326 . S
In1066 O1074 2.266 . S
In1066 O1075 2.326 . S
In1066 O1077 2.294 . S
In1066 O1078 2.326 . S
O1067 In1066 2.294 . S
O1067 C1076 1.240 . S
O1068 In1066 2.326 . S
O1068 C1076 1.252 . S
C1069 O1072 1.252 . S
C1069 O1073 1.260 . S
C1070 O1077 1.240 . S
C1070 O1078 1.252 . S
C1071 O1074 1.252 . S
C1071 O1075 1.260 . S
O1072 In1066 2.266 . S
O1072 C1069 1.252 . S
O1073 In1066 2.326 . S
O1073 C1069 1.260 . S
O1074 In1066 2.266 . S
O1074 C1071 1.252 . S
O1075 In1066 2.326 . S
O1075 C1071 1.260 . S
C1076 O1067 1.240 . S
C1076 O1068 1.252 . S
O1077 In1066 2.294 . S
O1077 C1070 1.240 . S
O1078 In1066 2.326 . S
O1078 C1070 1.252 . S
In1079 O1080 2.294 . S
In1079 O1081 2.326 . S
In1079 O1085 2.266 . S
In1079 O1086 2.326 . S
In1079 O1087 2.266 . S
In1079 O1088 2.326 . S
In1079 O1090 2.294 . S
In1079 O1091 2.326 . S
O1080 In1079 2.294 . S
O1080 C1089 1.240 . S
O1081 In1079 2.326 . S
O1081 C1089 1.252 . S
C1082 O1085 1.252 . S
C1082 O1086 1.260 . S
C1083 O1090 1.240 . S
C1083 O1091 1.252 . S
C1084 O1087 1.252 . S
C1084 O1088 1.260 . S
O1085 In1079 2.266 . S
O1085 C1082 1.252 . S
O1086 In1079 2.326 . S
O1086 C1082 1.260 . S
O1087 In1079 2.266 . S
O1087 C1084 1.252 . S
O1088 In1079 2.326 . S
O1088 C1084 1.260 . S
C1089 O1080 1.240 . S
C1089 O1081 1.252 . S
O1090 In1079 2.294 . S
O1090 C1083 1.240 . S
O1091 In1079 2.326 . S
O1091 C1083 1.252 . S
In1092 O1093 2.294 . S
In1092 O1094 2.326 . S
In1092 O1098 2.266 . S
In1092 O1099 2.326 . S
In1092 O1100 2.266 . S
In1092 O1101 2.326 . S
In1092 O1103 2.294 . S
In1092 O1104 2.326 . S
O1093 In1092 2.294 . S
O1093 C1102 1.240 . S
O1094 In1092 2.326 . S
O1094 C1102 1.252 . S
C1095 O1098 1.252 . S
C1095 O1099 1.260 . S
C1096 O1103 1.240 . S
C1096 O1104 1.252 . S
C1097 O1100 1.252 . S
C1097 O1101 1.260 . S
O1098 In1092 2.266 . S
O1098 C1095 1.252 . S
O1099 In1092 2.326 . S
O1099 C1095 1.260 . S
O1100 In1092 2.266 . S
O1100 C1097 1.252 . S
O1101 In1092 2.326 . S
O1101 C1097 1.260 . S
C1102 O1093 1.240 . S
C1102 O1094 1.252 . S
O1103 In1092 2.294 . S
O1103 C1096 1.240 . S
O1104 In1092 2.326 . S
O1104 C1096 1.252 . S
In1105 O1106 2.294 . S
In1105 O1107 2.326 . S
In1105 O1111 2.266 . S
In1105 O1112 2.326 . S
In1105 O1113 2.266 . S
In1105 O1114 2.326 . S
In1105 O1116 2.294 . S
In1105 O1117 2.326 . S
O1106 In1105 2.294 . S
O1106 C1115 1.240 . S
O1107 In1105 2.326 . S
O1107 C1115 1.252 . S
C1108 O1111 1.252 . S
C1108 O1112 1.260 . S
C1109 O1116 1.240 . S
C1109 O1117 1.252 . S
C1110 O1113 1.252 . S
C1110 O1114 1.260 . S
O1111 In1105 2.266 . S
O1111 C1108 1.252 . S
O1112 In1105 2.326 . S
O1112 C1108 1.260 . S
O1113 In1105 2.266 . S
O1113 C1110 1.252 . S
O1114 In1105 2.326 . S
O1114 C1110 1.260 . S
C1115 O1106 1.240 . S
C1115 O1107 1.252 . S
O1116 In1105 2.294 . S
O1116 C1109 1.240 . S
O1117 In1105 2.326 . S
O1117 C1109 1.252 . S
In1118 O1119 2.294 . S
In1118 O1120 2.326 . S
In1118 O1124 2.266 . S
In1118 O1125 2.326 . S
In1118 O1126 2.266 . S
In1118 O1127 2.326 . S
In1118 O1129 2.294 . S
In1118 O1130 2.326 . S
O1119 In1118 2.294 . S
O1119 C1128 1.240 . S
O1120 In1118 2.326 . S
O1120 C1128 1.252 . S
C1121 O1124 1.252 . S
C1121 O1125 1.260 . S
C1122 O1129 1.240 . S
C1122 O1130 1.252 . S
C1123 O1126 1.252 . S
C1123 O1127 1.260 . S
O1124 In1118 2.266 . S
O1124 C1121 1.252 . S
O1125 In1118 2.326 . S
O1125 C1121 1.260 . S
O1126 In1118 2.266 . S
O1126 C1123 1.252 . S
O1127 In1118 2.326 . S
O1127 C1123 1.260 . S
C1128 O1119 1.240 . S
C1128 O1120 1.252 . S
O1129 In1118 2.294 . S
O1129 C1122 1.240 . S
O1130 In1118 2.326 . S
O1130 C1122 1.252 . S
In1131 O1132 2.294 . S
In1131 O1133 2.326 . S
In1131 O1137 2.266 . S
In1131 O1138 2.326 . S
In1131 O1139 2.266 . S
In1131 O1140 2.326 . S
In1131 O1142 2.294 . S
In1131 O1143 2.326 . S
O1132 In1131 2.294 . S
O1132 C1141 1.240 . S
O1133 In1131 2.326 . S
O1133 C1141 1.252 . S
C1134 O1137 1.252 . S
C1134 O1138 1.260 . S
C1135 O1142 1.240 . S
C1135 O1143 1.252 . S
C1136 O1139 1.252 . S
C1136 O1140 1.260 . S
O1137 In1131 2.266 . S
O1137 C1134 1.252 . S
O1138 In1131 2.326 . S
O1138 C1134 1.260 . S
O1139 In1131 2.266 . S
O1139 C1136 1.252 . S
O1140 In1131 2.326 . S
O1140 C1136 1.260 . S
C1141 O1132 1.240 . S
C1141 O1133 1.252 . S
O1142 In1131 2.294 . S
O1142 C1135 1.240 . S
O1143 In1131 2.326 . S
O1143 C1135 1.252 . S
In1144 O1145 2.294 . S
In1144 O1146 2.326 . S
In1144 O1150 2.266 . S
In1144 O1151 2.326 . S
In1144 O1152 2.266 . S
In1144 O1153 2.326 . S
In1144 O1155 2.294 . S
In1144 O1156 2.326 . S
O1145 In1144 2.294 . S
O1145 C1154 1.240 . S
O1146 In1144 2.326 . S
O1146 C1154 1.252 . S
C1147 O1150 1.252 . S
C1147 O1151 1.260 . S
C1148 O1155 1.240 . S
C1148 O1156 1.252 . S
C1149 O1152 1.252 . S
C1149 O1153 1.260 . S
O1150 In1144 2.266 . S
O1150 C1147 1.252 . S
O1151 In1144 2.326 . S
O1151 C1147 1.260 . S
O1152 In1144 2.266 . S
O1152 C1149 1.252 . S
O1153 In1144 2.326 . S
O1153 C1149 1.260 . S
C1154 O1145 1.240 . S
C1154 O1146 1.252 . S
O1155 In1144 2.294 . S
O1155 C1148 1.240 . S
O1156 In1144 2.326 . S
O1156 C1148 1.252 . S
In1157 O1158 2.294 . S
In1157 O1159 2.326 . S
In1157 O1163 2.266 . S
In1157 O1164 2.326 . S
In1157 O1165 2.266 . S
In1157 O1166 2.326 . S
In1157 O1168 2.294 . S
In1157 O1169 2.326 . S
O1158 In1157 2.294 . S
O1158 C1167 1.240 . S
O1159 In1157 2.326 . S
O1159 C1167 1.252 . S
C1160 O1163 1.252 . S
C1160 O1164 1.260 . S
C1161 O1168 1.240 . S
C1161 O1169 1.252 . S
C1162 O1165 1.252 . S
C1162 O1166 1.260 . S
O1163 In1157 2.266 . S
O1163 C1160 1.252 . S
O1164 In1157 2.326 . S
O1164 C1160 1.260 . S
O1165 In1157 2.266 . S
O1165 C1162 1.252 . S
O1166 In1157 2.326 . S
O1166 C1162 1.260 . S
C1167 O1158 1.240 . S
C1167 O1159 1.252 . S
O1168 In1157 2.294 . S
O1168 C1161 1.240 . S
O1169 In1157 2.326 . S
O1169 C1161 1.252 . S
In1170 O1171 2.294 . S
In1170 O1172 2.326 . S
In1170 O1176 2.266 . S
In1170 O1177 2.326 . S
In1170 O1178 2.266 . S
In1170 O1179 2.326 . S
In1170 O1181 2.294 . S
In1170 O1182 2.326 . S
O1171 In1170 2.294 . S
O1171 C1180 1.240 . S
O1172 In1170 2.326 . S
O1172 C1180 1.252 . S
C1173 O1176 1.252 . S
C1173 O1177 1.260 . S
C1174 O1181 1.240 . S
C1174 O1182 1.252 . S
C1175 O1178 1.252 . S
C1175 O1179 1.260 . S
O1176 In1170 2.266 . S
O1176 C1173 1.252 . S
O1177 In1170 2.326 . S
O1177 C1173 1.260 . S
O1178 In1170 2.266 . S
O1178 C1175 1.252 . S
O1179 In1170 2.326 . S
O1179 C1175 1.260 . S
C1180 O1171 1.240 . S
C1180 O1172 1.252 . S
O1181 In1170 2.294 . S
O1181 C1174 1.240 . S
O1182 In1170 2.326 . S
O1182 C1174 1.252 . S
In1183 O1184 2.294 . S
In1183 O1185 2.326 . S
In1183 O1189 2.266 . S
In1183 O1190 2.326 . S
In1183 O1191 2.266 . S
In1183 O1192 2.326 . S
In1183 O1194 2.294 . S
In1183 O1195 2.326 . S
O1184 In1183 2.294 . S
O1184 C1193 1.240 . S
O1185 In1183 2.326 . S
O1185 C1193 1.252 . S
C1186 O1189 1.252 . S
C1186 O1190 1.260 . S
C1187 O1194 1.240 . S
C1187 O1195 1.252 . S
C1188 O1191 1.252 . S
C1188 O1192 1.260 . S
O1189 In1183 2.266 . S
O1189 C1186 1.252 . S
O1190 In1183 2.326 . S
O1190 C1186 1.260 . S
O1191 In1183 2.266 . S
O1191 C1188 1.252 . S
O1192 In1183 2.326 . S
O1192 C1188 1.260 . S
C1193 O1184 1.240 . S
C1193 O1185 1.252 . S
O1194 In1183 2.294 . S
O1194 C1187 1.240 . S
O1195 In1183 2.326 . S
O1195 C1187 1.252 . S
In1196 O1197 2.294 . S
In1196 O1198 2.326 . S
In1196 O1202 2.266 . S
In1196 O1203 2.326 . S
In1196 O1204 2.266 . S
In1196 O1205 2.326 . S
In1196 O1207 2.294 . S
In1196 O1208 2.326 . S
O1197 In1196 2.294 . S
O1197 C1206 1.240 . S
O1198 In1196 2.326 . S
O1198 C1206 1.252 . S
C1199 O1202 1.252 . S
C1199 O1203 1.260 . S
C1200 O1207 1.240 . S
C1200 O1208 1.252 . S
C1201 O1204 1.252 . S
C1201 O1205 1.260 . S
O1202 In1196 2.266 . S
O1202 C1199 1.252 . S
O1203 In1196 2.326 . S
O1203 C1199 1.260 . S
O1204 In1196 2.266 . S
O1204 C1201 1.252 . S
O1205 In1196 2.326 . S
O1205 C1201 1.260 . S
C1206 O1197 1.240 . S
C1206 O1198 1.252 . S
O1207 In1196 2.294 . S
O1207 C1200 1.240 . S
O1208 In1196 2.326 . S
O1208 C1200 1.252 . S
In1209 O1210 2.294 . S
In1209 O1211 2.326 . S
In1209 O1215 2.266 . S
In1209 O1216 2.326 . S
In1209 O1217 2.266 . S
In1209 O1218 2.326 . S
In1209 O1220 2.294 . S
In1209 O1221 2.326 . S
O1210 In1209 2.294 . S
O1210 C1219 1.240 . S
O1211 In1209 2.326 . S
O1211 C1219 1.252 . S
C1212 O1215 1.252 . S
C1212 O1216 1.260 . S
C1213 O1220 1.240 . S
C1213 O1221 1.252 . S
C1214 O1217 1.252 . S
C1214 O1218 1.260 . S
O1215 In1209 2.266 . S
O1215 C1212 1.252 . S
O1216 In1209 2.326 . S
O1216 C1212 1.260 . S
O1217 In1209 2.266 . S
O1217 C1214 1.252 . S
O1218 In1209 2.326 . S
O1218 C1214 1.260 . S
C1219 O1210 1.240 . S
C1219 O1211 1.252 . S
O1220 In1209 2.294 . S
O1220 C1213 1.240 . S
O1221 In1209 2.326 . S
O1221 C1213 1.252 . S
In1222 O1223 2.294 . S
In1222 O1224 2.326 . S
In1222 O1228 2.266 . S
In1222 O1229 2.326 . S
In1222 O1230 2.266 . S
In1222 O1231 2.326 . S
In1222 O1233 2.294 . S
In1222 O1234 2.326 . S
O1223 In1222 2.294 . S
O1223 C1232 1.240 . S
O1224 In1222 2.326 . S
O1224 C1232 1.252 . S
C1225 O1228 1.252 . S
C1225 O1229 1.260 . S
C1226 O1233 1.240 . S
C1226 O1234 1.252 . S
C1227 O1230 1.252 . S
C1227 O1231 1.260 . S
O1228 In1222 2.266 . S
O1228 C1225 1.252 . S
O1229 In1222 2.326 . S
O1229 C1225 1.260 . S
O1230 In1222 2.266 . S
O1230 C1227 1.252 . S
O1231 In1222 2.326 . S
O1231 C1227 1.260 . S
C1232 O1223 1.240 . S
C1232 O1224 1.252 . S
O1233 In1222 2.294 . S
O1233 C1226 1.240 . S
O1234 In1222 2.326 . S
O1234 C1226 1.252 . S
In1235 O1236 2.294 . S
In1235 O1237 2.326 . S
In1235 O1241 2.266 . S
In1235 O1242 2.326 . S
In1235 O1243 2.266 . S
In1235 O1244 2.326 . S
In1235 O1246 2.294 . S
In1235 O1247 2.326 . S
O1236 In1235 2.294 . S
O1236 C1245 1.240 . S
O1237 In1235 2.326 . S
O1237 C1245 1.252 . S
C1238 O1241 1.252 . S
C1238 O1242 1.260 . S
C1239 O1246 1.240 . S
C1239 O1247 1.252 . S
C1240 O1243 1.252 . S
C1240 O1244 1.260 . S
O1241 In1235 2.266 . S
O1241 C1238 1.252 . S
O1242 In1235 2.326 . S
O1242 C1238 1.260 . S
O1243 In1235 2.266 . S
O1243 C1240 1.252 . S
O1244 In1235 2.326 . S
O1244 C1240 1.260 . S
C1245 O1236 1.240 . S
C1245 O1237 1.252 . S
O1246 In1235 2.294 . S
O1246 C1239 1.240 . S
O1247 In1235 2.326 . S
O1247 C1239 1.252 . S
H1248 C1254 0.930 . S
H1249 C1257 0.930 . S
H1250 C1258 0.930 . S
H1251 C1259 0.930 . S
H1252 C1262 0.930 . S
H1253 C1263 0.930 . S
C1254 H1248 0.930 . S
C1254 C1255 1.355 . S
C1254 C1256 1.415 . S
C1255 C1254 1.355 . S
C1255 C1257 1.419 . S
C1256 C1254 1.415 . S
C1256 C1261 1.425 . S
C1256 C1263 1.409 . S
C1257 H1249 0.930 . S
C1257 C1255 1.419 . S
C1257 C1258 1.362 . S
C1258 H1250 0.930 . S
C1258 C1257 1.362 . S
C1258 C1261 1.409 . S
C1259 H1251 0.930 . S
C1259 C1260 1.355 . S
C1259 C1261 1.415 . S
C1260 C1259 1.355 . S
C1260 C1262 1.419 . S
C1261 C1256 1.425 . S
C1261 C1258 1.409 . S
C1261 C1259 1.415 . S
C1262 H1252 0.930 . S
C1262 C1260 1.419 . S
C1262 C1263 1.362 . S
C1263 H1253 0.930 . S
C1263 C1256 1.409 . S
C1263 C1262 1.362 . S
H1264 C1270 0.930 . S
H1265 C1273 0.930 . S
H1266 C1274 0.930 . S
H1267 C1275 0.930 . S
H1268 C1278 0.930 . S
H1269 C1279 0.930 . S
C1270 H1264 0.930 . S
C1270 C1271 1.355 . S
C1270 C1272 1.415 . S
C1271 C1270 1.355 . S
C1271 C1273 1.419 . S
C1272 C1270 1.415 . S
C1272 C1277 1.425 . S
C1272 C1279 1.409 . S
C1273 H1265 0.930 . S
C1273 C1271 1.419 . S
C1273 C1274 1.362 . S
C1274 H1266 0.930 . S
C1274 C1273 1.362 . S
C1274 C1277 1.409 . S
C1275 H1267 0.930 . S
C1275 C1276 1.355 . S
C1275 C1277 1.415 . S
C1276 C1275 1.355 . S
C1276 C1278 1.419 . S
C1277 C1272 1.425 . S
C1277 C1274 1.409 . S
C1277 C1275 1.415 . S
C1278 H1268 0.930 . S
C1278 C1276 1.419 . S
C1278 C1279 1.362 . S
C1279 H1269 0.930 . S
C1279 C1272 1.409 . S
C1279 C1278 1.362 . S
H1280 C1286 0.930 . S
H1281 C1289 0.930 . S
H1282 C1290 0.930 . S
H1283 C1291 0.930 . S
H1284 C1294 0.930 . S
H1285 C1295 0.930 . S
C1286 H1280 0.930 . S
C1286 C1287 1.355 . S
C1286 C1288 1.415 . S
C1287 C1286 1.355 . S
C1287 C1289 1.419 . S
C1288 C1286 1.415 . S
C1288 C1293 1.425 . S
C1288 C1295 1.409 . S
C1289 H1281 0.930 . S
C1289 C1287 1.419 . S
C1289 C1290 1.362 . S
C1290 H1282 0.930 . S
C1290 C1289 1.362 . S
C1290 C1293 1.409 . S
C1291 H1283 0.930 . S
C1291 C1292 1.355 . S
C1291 C1293 1.415 . S
C1292 C1291 1.355 . S
C1292 C1294 1.419 . S
C1293 C1288 1.425 . S
C1293 C1290 1.409 . S
C1293 C1291 1.415 . S
C1294 H1284 0.930 . S
C1294 C1292 1.419 . S
C1294 C1295 1.362 . S
C1295 H1285 0.930 . S
C1295 C1288 1.409 . S
C1295 C1294 1.362 . S
H1296 C1302 0.930 . S
H1297 C1305 0.930 . S
H1298 C1306 0.930 . S
H1299 C1307 0.930 . S
H1300 C1310 0.930 . S
H1301 C1311 0.930 . S
C1302 H1296 0.930 . S
C1302 C1303 1.355 . S
C1302 C1304 1.415 . S
C1303 C1302 1.355 . S
C1303 C1305 1.419 . S
C1304 C1302 1.415 . S
C1304 C1309 1.425 . S
C1304 C1311 1.409 . S
C1305 H1297 0.930 . S
C1305 C1303 1.419 . S
C1305 C1306 1.362 . S
C1306 H1298 0.930 . S
C1306 C1305 1.362 . S
C1306 C1309 1.409 . S
C1307 H1299 0.930 . S
C1307 C1308 1.355 . S
C1307 C1309 1.415 . S
C1308 C1307 1.355 . S
C1308 C1310 1.419 . S
C1309 C1304 1.425 . S
C1309 C1306 1.409 . S
C1309 C1307 1.415 . S
C1310 H1300 0.930 . S
C1310 C1308 1.419 . S
C1310 C1311 1.362 . S
C1311 H1301 0.930 . S
C1311 C1304 1.409 . S
C1311 C1310 1.362 . S
H1312 C1318 0.930 . S
H1313 C1321 0.930 . S
H1314 C1322 0.930 . S
H1315 C1323 0.930 . S
H1316 C1326 0.930 . S
H1317 C1327 0.930 . S
C1318 H1312 0.930 . S
C1318 C1319 1.355 . S
C1318 C1320 1.415 . S
C1319 C1318 1.355 . S
C1319 C1321 1.419 . S
C1320 C1318 1.415 . S
C1320 C1325 1.425 . S
C1320 C1327 1.409 . S
C1321 H1313 0.930 . S
C1321 C1319 1.419 . S
C1321 C1322 1.362 . S
C1322 H1314 0.930 . S
C1322 C1321 1.362 . S
C1322 C1325 1.409 . S
C1323 H1315 0.930 . S
C1323 C1324 1.355 . S
C1323 C1325 1.415 . S
C1324 C1323 1.355 . S
C1324 C1326 1.419 . S
C1325 C1320 1.425 . S
C1325 C1322 1.409 . S
C1325 C1323 1.415 . S
C1326 H1316 0.930 . S
C1326 C1324 1.419 . S
C1326 C1327 1.362 . S
C1327 H1317 0.930 . S
C1327 C1320 1.409 . S
C1327 C1326 1.362 . S
H1328 C1334 0.930 . S
H1329 C1337 0.930 . S
H1330 C1338 0.930 . S
H1331 C1339 0.930 . S
H1332 C1342 0.930 . S
H1333 C1343 0.930 . S
C1334 H1328 0.930 . S
C1334 C1335 1.355 . S
C1334 C1336 1.415 . S
C1335 C1334 1.355 . S
C1335 C1337 1.419 . S
C1336 C1334 1.415 . S
C1336 C1341 1.425 . S
C1336 C1343 1.409 . S
C1337 H1329 0.930 . S
C1337 C1335 1.419 . S
C1337 C1338 1.362 . S
C1338 H1330 0.930 . S
C1338 C1337 1.362 . S
C1338 C1341 1.409 . S
C1339 H1331 0.930 . S
C1339 C1340 1.355 . S
C1339 C1341 1.415 . S
C1340 C1339 1.355 . S
C1340 C1342 1.419 . S
C1341 C1336 1.425 . S
C1341 C1338 1.409 . S
C1341 C1339 1.415 . S
C1342 H1332 0.930 . S
C1342 C1340 1.419 . S
C1342 C1343 1.362 . S
C1343 H1333 0.930 . S
C1343 C1336 1.409 . S
C1343 C1342 1.362 . S
H1344 C1350 0.930 . S
H1345 C1353 0.930 . S
H1346 C1354 0.930 . S
H1347 C1355 0.930 . S
H1348 C1358 0.930 . S
H1349 C1359 0.930 . S
C1350 H1344 0.930 . S
C1350 C1351 1.355 . S
C1350 C1352 1.415 . S
C1351 C1350 1.355 . S
C1351 C1353 1.419 . S
C1352 C1350 1.415 . S
C1352 C1357 1.425 . S
C1352 C1359 1.409 . S
C1353 H1345 0.930 . S
C1353 C1351 1.419 . S
C1353 C1354 1.362 . S
C1354 H1346 0.930 . S
C1354 C1353 1.362 . S
C1354 C1357 1.409 . S
C1355 H1347 0.930 . S
C1355 C1356 1.355 . S
C1355 C1357 1.415 . S
C1356 C1355 1.355 . S
C1356 C1358 1.419 . S
C1357 C1352 1.425 . S
C1357 C1354 1.409 . S
C1357 C1355 1.415 . S
C1358 H1348 0.930 . S
C1358 C1356 1.419 . S
C1358 C1359 1.362 . S
C1359 H1349 0.930 . S
C1359 C1352 1.409 . S
C1359 C1358 1.362 . S
H1360 C1366 0.930 . S
H1361 C1369 0.930 . S
H1362 C1370 0.930 . S
H1363 C1371 0.930 . S
H1364 C1374 0.930 . S
H1365 C1375 0.930 . S
C1366 H1360 0.930 . S
C1366 C1367 1.355 . S
C1366 C1368 1.415 . S
C1367 C1366 1.355 . S
C1367 C1369 1.419 . S
C1368 C1366 1.415 . S
C1368 C1373 1.425 . S
C1368 C1375 1.409 . S
C1369 H1361 0.930 . S
C1369 C1367 1.419 . S
C1369 C1370 1.362 . S
C1370 H1362 0.930 . S
C1370 C1369 1.362 . S
C1370 C1373 1.409 . S
C1371 H1363 0.930 . S
C1371 C1372 1.355 . S
C1371 C1373 1.415 . S
C1372 C1371 1.355 . S
C1372 C1374 1.419 . S
C1373 C1368 1.425 . S
C1373 C1370 1.409 . S
C1373 C1371 1.415 . S
C1374 H1364 0.930 . S
C1374 C1372 1.419 . S
C1374 C1375 1.362 . S
C1375 H1365 0.930 . S
C1375 C1368 1.409 . S
C1375 C1374 1.362 . S
H1376 C1382 0.930 . S
H1377 C1385 0.930 . S
H1378 C1386 0.930 . S
H1379 C1387 0.930 . S
H1380 C1390 0.930 . S
H1381 C1391 0.930 . S
C1382 H1376 0.930 . S
C1382 C1383 1.355 . S
C1382 C1384 1.415 . S
C1383 C1382 1.355 . S
C1383 C1385 1.419 . S
C1384 C1382 1.415 . S
C1384 C1389 1.425 . S
C1384 C1391 1.409 . S
C1385 H1377 0.930 . S
C1385 C1383 1.419 . S
C1385 C1386 1.362 . S
C1386 H1378 0.930 . S
C1386 C1385 1.362 . S
C1386 C1389 1.409 . S
C1387 H1379 0.930 . S
C1387 C1388 1.355 . S
C1387 C1389 1.415 . S
C1388 C1387 1.355 . S
C1388 C1390 1.419 . S
C1389 C1384 1.425 . S
C1389 C1386 1.409 . S
C1389 C1387 1.415 . S
C1390 H1380 0.930 . S
C1390 C1388 1.419 . S
C1390 C1391 1.362 . S
C1391 H1381 0.930 . S
C1391 C1384 1.409 . S
C1391 C1390 1.362 . S
H1392 C1398 0.930 . S
H1393 C1401 0.930 . S
H1394 C1402 0.930 . S
H1395 C1403 0.930 . S
H1396 C1406 0.930 . S
H1397 C1407 0.930 . S
C1398 H1392 0.930 . S
C1398 C1399 1.355 . S
C1398 C1400 1.415 . S
C1399 C1398 1.355 . S
C1399 C1401 1.419 . S
C1400 C1398 1.415 . S
C1400 C1405 1.425 . S
C1400 C1407 1.409 . S
C1401 H1393 0.930 . S
C1401 C1399 1.419 . S
C1401 C1402 1.362 . S
C1402 H1394 0.930 . S
C1402 C1401 1.362 . S
C1402 C1405 1.409 . S
C1403 H1395 0.930 . S
C1403 C1404 1.355 . S
C1403 C1405 1.415 . S
C1404 C1403 1.355 . S
C1404 C1406 1.419 . S
C1405 C1400 1.425 . S
C1405 C1402 1.409 . S
C1405 C1403 1.415 . S
C1406 H1396 0.930 . S
C1406 C1404 1.419 . S
C1406 C1407 1.362 . S
C1407 H1397 0.930 . S
C1407 C1400 1.409 . S
C1407 C1406 1.362 . S
H1408 C1414 0.930 . S
H1409 C1417 0.930 . S
H1410 C1418 0.930 . S
H1411 C1419 0.930 . S
H1412 C1422 0.930 . S
H1413 C1423 0.930 . S
C1414 H1408 0.930 . S
C1414 C1415 1.355 . S
C1414 C1416 1.415 . S
C1415 C1414 1.355 . S
C1415 C1417 1.419 . S
C1416 C1414 1.415 . S
C1416 C1421 1.425 . S
C1416 C1423 1.409 . S
C1417 H1409 0.930 . S
C1417 C1415 1.419 . S
C1417 C1418 1.362 . S
C1418 H1410 0.930 . S
C1418 C1417 1.362 . S
C1418 C1421 1.409 . S
C1419 H1411 0.930 . S
C1419 C1420 1.355 . S
C1419 C1421 1.415 . S
C1420 C1419 1.355 . S
C1420 C1422 1.419 . S
C1421 C1416 1.425 . S
C1421 C1418 1.409 . S
C1421 C1419 1.415 . S
C1422 H1412 0.930 . S
C1422 C1420 1.419 . S
C1422 C1423 1.362 . S
C1423 H1413 0.930 . S
C1423 C1416 1.409 . S
C1423 C1422 1.362 . S
H1424 C1430 0.930 . S
H1425 C1433 0.930 . S
H1426 C1434 0.930 . S
H1427 C1435 0.930 . S
H1428 C1438 0.930 . S
H1429 C1439 0.930 . S
C1430 H1424 0.930 . S
C1430 C1431 1.355 . S
C1430 C1432 1.415 . S
C1431 C1430 1.355 . S
C1431 C1433 1.419 . S
C1432 C1430 1.415 . S
C1432 C1437 1.425 . S
C1432 C1439 1.409 . S
C1433 H1425 0.930 . S
C1433 C1431 1.419 . S
C1433 C1434 1.362 . S
C1434 H1426 0.930 . S
C1434 C1433 1.362 . S
C1434 C1437 1.409 . S
C1435 H1427 0.930 . S
C1435 C1436 1.355 . S
C1435 C1437 1.415 . S
C1436 C1435 1.355 . S
C1436 C1438 1.419 . S
C1437 C1432 1.425 . S
C1437 C1434 1.409 . S
C1437 C1435 1.415 . S
C1438 H1428 0.930 . S
C1438 C1436 1.419 . S
C1438 C1439 1.362 . S
C1439 H1429 0.930 . S
C1439 C1432 1.409 . S
C1439 C1438 1.362 . S
H1440 C1446 0.930 . S
H1441 C1449 0.930 . S
H1442 C1450 0.930 . S
H1443 C1451 0.930 . S
H1444 C1454 0.930 . S
H1445 C1455 0.930 . S
C1446 H1440 0.930 . S
C1446 C1447 1.355 . S
C1446 C1448 1.415 . S
C1447 C1446 1.355 . S
C1447 C1449 1.419 . S
C1448 C1446 1.415 . S
C1448 C1453 1.425 . S
C1448 C1455 1.409 . S
C1449 H1441 0.930 . S
C1449 C1447 1.419 . S
C1449 C1450 1.362 . S
C1450 H1442 0.930 . S
C1450 C1449 1.362 . S
C1450 C1453 1.409 . S
C1451 H1443 0.930 . S
C1451 C1452 1.355 . S
C1451 C1453 1.415 . S
C1452 C1451 1.355 . S
C1452 C1454 1.419 . S
C1453 C1448 1.425 . S
C1453 C1450 1.409 . S
C1453 C1451 1.415 . S
C1454 H1444 0.930 . S
C1454 C1452 1.419 . S
C1454 C1455 1.362 . S
C1455 H1445 0.930 . S
C1455 C1448 1.409 . S
C1455 C1454 1.362 . S
H1456 C1462 0.930 . S
H1457 C1465 0.930 . S
H1458 C1466 0.930 . S
H1459 C1467 0.930 . S
H1460 C1470 0.930 . S
H1461 C1471 0.930 . S
C1462 H1456 0.930 . S
C1462 C1463 1.355 . S
C1462 C1464 1.415 . S
C1463 C1462 1.355 . S
C1463 C1465 1.419 . S
C1464 C1462 1.415 . S
C1464 C1469 1.425 . S
C1464 C1471 1.409 . S
C1465 H1457 0.930 . S
C1465 C1463 1.419 . S
C1465 C1466 1.362 . S
C1466 H1458 0.930 . S
C1466 C1465 1.362 . S
C1466 C1469 1.409 . S
C1467 H1459 0.930 . S
C1467 C1468 1.355 . S
C1467 C1469 1.415 . S
C1468 C1467 1.355 . S
C1468 C1470 1.419 . S
C1469 C1464 1.425 . S
C1469 C1466 1.409 . S
C1469 C1467 1.415 . S
C1470 H1460 0.930 . S
C1470 C1468 1.419 . S
C1470 C1471 1.362 . S
C1471 H1461 0.930 . S
C1471 C1464 1.409 . S
C1471 C1470 1.362 . S
H1472 C1478 0.930 . S
H1473 C1481 0.930 . S
H1474 C1482 0.930 . S
H1475 C1483 0.930 . S
H1476 C1486 0.930 . S
H1477 C1487 0.930 . S
C1478 H1472 0.930 . S
C1478 C1479 1.355 . S
C1478 C1480 1.415 . S
C1479 C1478 1.355 . S
C1479 C1481 1.419 . S
C1480 C1478 1.415 . S
C1480 C1485 1.425 . S
C1480 C1487 1.409 . S
C1481 H1473 0.930 . S
C1481 C1479 1.419 . S
C1481 C1482 1.362 . S
C1482 H1474 0.930 . S
C1482 C1481 1.362 . S
C1482 C1485 1.409 . S
C1483 H1475 0.930 . S
C1483 C1484 1.355 . S
C1483 C1485 1.415 . S
C1484 C1483 1.355 . S
C1484 C1486 1.419 . S
C1485 C1480 1.425 . S
C1485 C1482 1.409 . S
C1485 C1483 1.415 . S
C1486 H1476 0.930 . S
C1486 C1484 1.419 . S
C1486 C1487 1.362 . S
C1487 H1477 0.930 . S
C1487 C1480 1.409 . S
C1487 C1486 1.362 . S
H1488 C1494 0.930 . S
H1489 C1497 0.930 . S
H1490 C1498 0.930 . S
H1491 C1499 0.930 . S
H1492 C1502 0.930 . S
H1493 C1503 0.930 . S
C1494 H1488 0.930 . S
C1494 C1495 1.355 . S
C1494 C1496 1.415 . S
C1495 C1494 1.355 . S
C1495 C1497 1.419 . S
C1496 C1494 1.415 . S
C1496 C1501 1.425 . S
C1496 C1503 1.409 . S
C1497 H1489 0.930 . S
C1497 C1495 1.419 . S
C1497 C1498 1.362 . S
C1498 H1490 0.930 . S
C1498 C1497 1.362 . S
C1498 C1501 1.409 . S
C1499 H1491 0.930 . S
C1499 C1500 1.355 . S
C1499 C1501 1.415 . S
C1500 C1499 1.355 . S
C1500 C1502 1.419 . S
C1501 C1496 1.425 . S
C1501 C1498 1.409 . S
C1501 C1499 1.415 . S
C1502 H1492 0.930 . S
C1502 C1500 1.419 . S
C1502 C1503 1.362 . S
C1503 H1493 0.930 . S
C1503 C1496 1.409 . S
C1503 C1502 1.362 . S
H1504 C1510 0.930 . S
H1505 C1513 0.930 . S
H1506 C1514 0.930 . S
H1507 C1515 0.930 . S
H1508 C1518 0.930 . S
H1509 C1519 0.930 . S
C1510 H1504 0.930 . S
C1510 C1511 1.355 . S
C1510 C1512 1.415 . S
C1511 C1510 1.355 . S
C1511 C1513 1.419 . S
C1512 C1510 1.415 . S
C1512 C1517 1.425 . S
C1512 C1519 1.409 . S
C1513 H1505 0.930 . S
C1513 C1511 1.419 . S
C1513 C1514 1.362 . S
C1514 H1506 0.930 . S
C1514 C1513 1.362 . S
C1514 C1517 1.409 . S
C1515 H1507 0.930 . S
C1515 C1516 1.355 . S
C1515 C1517 1.415 . S
C1516 C1515 1.355 . S
C1516 C1518 1.419 . S
C1517 C1512 1.425 . S
C1517 C1514 1.409 . S
C1517 C1515 1.415 . S
C1518 H1508 0.930 . S
C1518 C1516 1.419 . S
C1518 C1519 1.362 . S
C1519 H1509 0.930 . S
C1519 C1512 1.409 . S
C1519 C1518 1.362 . S
H1520 C1526 0.930 . S
H1521 C1529 0.930 . S
H1522 C1530 0.930 . S
H1523 C1531 0.930 . S
H1524 C1534 0.930 . S
H1525 C1535 0.930 . S
C1526 H1520 0.930 . S
C1526 C1527 1.355 . S
C1526 C1528 1.415 . S
C1527 C1526 1.355 . S
C1527 C1529 1.419 . S
C1528 C1526 1.415 . S
C1528 C1533 1.425 . S
C1528 C1535 1.409 . S
C1529 H1521 0.930 . S
C1529 C1527 1.419 . S
C1529 C1530 1.362 . S
C1530 H1522 0.930 . S
C1530 C1529 1.362 . S
C1530 C1533 1.409 . S
C1531 H1523 0.930 . S
C1531 C1532 1.355 . S
C1531 C1533 1.415 . S
C1532 C1531 1.355 . S
C1532 C1534 1.419 . S
C1533 C1528 1.425 . S
C1533 C1530 1.409 . S
C1533 C1531 1.415 . S
C1534 H1524 0.930 . S
C1534 C1532 1.419 . S
C1534 C1535 1.362 . S
C1535 H1525 0.930 . S
C1535 C1528 1.409 . S
C1535 C1534 1.362 . S
H1536 C1542 0.930 . S
H1537 C1545 0.930 . S
H1538 C1546 0.930 . S
H1539 C1547 0.930 . S
H1540 C1550 0.930 . S
H1541 C1551 0.930 . S
C1542 H1536 0.930 . S
C1542 C1543 1.355 . S
C1542 C1544 1.415 . S
C1543 C1542 1.355 . S
C1543 C1545 1.419 . S
C1544 C1542 1.415 . S
C1544 C1549 1.425 . S
C1544 C1551 1.409 . S
C1545 H1537 0.930 . S
C1545 C1543 1.419 . S
C1545 C1546 1.362 . S
C1546 H1538 0.930 . S
C1546 C1545 1.362 . S
C1546 C1549 1.409 . S
C1547 H1539 0.930 . S
C1547 C1548 1.355 . S
C1547 C1549 1.415 . S
C1548 C1547 1.355 . S
C1548 C1550 1.419 . S
C1549 C1544 1.425 . S
C1549 C1546 1.409 . S
C1549 C1547 1.415 . S
C1550 H1540 0.930 . S
C1550 C1548 1.419 . S
C1550 C1551 1.362 . S
C1551 H1541 0.930 . S
C1551 C1544 1.409 . S
C1551 C1550 1.362 . S
H1552 C1558 0.930 . S
H1553 C1561 0.930 . S
H1554 C1562 0.930 . S
H1555 C1563 0.930 . S
H1556 C1566 0.930 . S
H1557 C1567 0.930 . S
C1558 H1552 0.930 . S
C1558 C1559 1.355 . S
C1558 C1560 1.415 . S
C1559 C1558 1.355 . S
C1559 C1561 1.419 . S
C1560 C1558 1.415 . S
C1560 C1565 1.425 . S
C1560 C1567 1.409 . S
C1561 H1553 0.930 . S
C1561 C1559 1.419 . S
C1561 C1562 1.362 . S
C1562 H1554 0.930 . S
C1562 C1561 1.362 . S
C1562 C1565 1.409 . S
C1563 H1555 0.930 . S
C1563 C1564 1.355 . S
C1563 C1565 1.415 . S
C1564 C1563 1.355 . S
C1564 C1566 1.419 . S
C1565 C1560 1.425 . S
C1565 C1562 1.409 . S
C1565 C1563 1.415 . S
C1566 H1556 0.930 . S
C1566 C1564 1.419 . S
C1566 C1567 1.362 . S
C1567 H1557 0.930 . S
C1567 C1560 1.409 . S
C1567 C1566 1.362 . S
H1568 C1574 0.930 . S
H1569 C1577 0.930 . S
H1570 C1578 0.930 . S
H1571 C1579 0.930 . S
H1572 C1582 0.930 . S
H1573 C1583 0.930 . S
C1574 H1568 0.930 . S
C1574 C1575 1.355 . S
C1574 C1576 1.415 . S
C1575 C1574 1.355 . S
C1575 C1577 1.419 . S
C1576 C1574 1.415 . S
C1576 C1581 1.425 . S
C1576 C1583 1.409 . S
C1577 H1569 0.930 . S
C1577 C1575 1.419 . S
C1577 C1578 1.362 . S
C1578 H1570 0.930 . S
C1578 C1577 1.362 . S
C1578 C1581 1.409 . S
C1579 H1571 0.930 . S
C1579 C1580 1.355 . S
C1579 C1581 1.415 . S
C1580 C1579 1.355 . S
C1580 C1582 1.419 . S
C1581 C1576 1.425 . S
C1581 C1578 1.409 . S
C1581 C1579 1.415 . S
C1582 H1572 0.930 . S
C1582 C1580 1.419 . S
C1582 C1583 1.362 . S
C1583 H1573 0.930 . S
C1583 C1576 1.409 . S
C1583 C1582 1.362 . S
H1584 C1590 0.930 . S
H1585 C1593 0.930 . S
H1586 C1594 0.930 . S
H1587 C1595 0.930 . S
H1588 C1598 0.930 . S
H1589 C1599 0.930 . S
C1590 H1584 0.930 . S
C1590 C1591 1.355 . S
C1590 C1592 1.415 . S
C1591 C1590 1.355 . S
C1591 C1593 1.419 . S
C1592 C1590 1.415 . S
C1592 C1597 1.425 . S
C1592 C1599 1.409 . S
C1593 H1585 0.930 . S
C1593 C1591 1.419 . S
C1593 C1594 1.362 . S
C1594 H1586 0.930 . S
C1594 C1593 1.362 . S
C1594 C1597 1.409 . S
C1595 H1587 0.930 . S
C1595 C1596 1.355 . S
C1595 C1597 1.415 . S
C1596 C1595 1.355 . S
C1596 C1598 1.419 . S
C1597 C1592 1.425 . S
C1597 C1594 1.409 . S
C1597 C1595 1.415 . S
C1598 H1588 0.930 . S
C1598 C1596 1.419 . S
C1598 C1599 1.362 . S
C1599 H1589 0.930 . S
C1599 C1592 1.409 . S
C1599 C1598 1.362 . S
H1600 C1606 0.930 . S
H1601 C1609 0.930 . S
H1602 C1610 0.930 . S
H1603 C1611 0.930 . S
H1604 C1614 0.930 . S
H1605 C1615 0.930 . S
C1606 H1600 0.930 . S
C1606 C1607 1.355 . S
C1606 C1608 1.415 . S
C1607 C1606 1.355 . S
C1607 C1609 1.419 . S
C1608 C1606 1.415 . S
C1608 C1613 1.425 . S
C1608 C1615 1.409 . S
C1609 H1601 0.930 . S
C1609 C1607 1.419 . S
C1609 C1610 1.362 . S
C1610 H1602 0.930 . S
C1610 C1609 1.362 . S
C1610 C1613 1.409 . S
C1611 H1603 0.930 . S
C1611 C1612 1.355 . S
C1611 C1613 1.415 . S
C1612 C1611 1.355 . S
C1612 C1614 1.419 . S
C1613 C1608 1.425 . S
C1613 C1610 1.409 . S
C1613 C1611 1.415 . S
C1614 H1604 0.930 . S
C1614 C1612 1.419 . S
C1614 C1615 1.362 . S
C1615 H1605 0.930 . S
C1615 C1608 1.409 . S
C1615 C1614 1.362 . S
H1616 C1622 0.930 . S
H1617 C1625 0.930 . S
H1618 C1626 0.930 . S
H1619 C1627 0.930 . S
H1620 C1630 0.930 . S
H1621 C1631 0.930 . S
C1622 H1616 0.930 . S
C1622 C1623 1.355 . S
C1622 C1624 1.415 . S
C1623 C1622 1.355 . S
C1623 C1625 1.419 . S
C1624 C1622 1.415 . S
C1624 C1629 1.425 . S
C1624 C1631 1.409 . S
C1625 H1617 0.930 . S
C1625 C1623 1.419 . S
C1625 C1626 1.362 . S
C1626 H1618 0.930 . S
C1626 C1625 1.362 . S
C1626 C1629 1.409 . S
C1627 H1619 0.930 . S
C1627 C1628 1.355 . S
C1627 C1629 1.415 . S
C1628 C1627 1.355 . S
C1628 C1630 1.419 . S
C1629 C1624 1.425 . S
C1629 C1626 1.409 . S
C1629 C1627 1.415 . S
C1630 H1620 0.930 . S
C1630 C1628 1.419 . S
C1630 C1631 1.362 . S
C1631 H1621 0.930 . S
C1631 C1624 1.409 . S
C1631 C1630 1.362 . S
H1632 C1638 0.930 . S
H1633 C1641 0.930 . S
H1634 C1642 0.930 . S
H1635 C1643 0.930 . S
H1636 C1646 0.930 . S
H1637 C1647 0.930 . S
C1638 H1632 0.930 . S
C1638 C1639 1.355 . S
C1638 C1640 1.415 . S
C1639 C1638 1.355 . S
C1639 C1641 1.419 . S
C1640 C1638 1.415 . S
C1640 C1645 1.425 . S
C1640 C1647 1.409 . S
C1641 H1633 0.930 . S
C1641 C1639 1.419 . S
C1641 C1642 1.362 . S
C1642 H1634 0.930 . S
C1642 C1641 1.362 . S
C1642 C1645 1.409 . S
C1643 H1635 0.930 . S
C1643 C1644 1.355 . S
C1643 C1645 1.415 . S
C1644 C1643 1.355 . S
C1644 C1646 1.419 . S
C1645 C1640 1.425 . S
C1645 C1642 1.409 . S
C1645 C1643 1.415 . S
C1646 H1636 0.930 . S
C1646 C1644 1.419 . S
C1646 C1647 1.362 . S
C1647 H1637 0.930 . S
C1647 C1640 1.409 . S
C1647 C1646 1.362 . S
H1648 C1654 0.930 . S
H1649 C1657 0.930 . S
H1650 C1658 0.930 . S
H1651 C1659 0.930 . S
H1652 C1662 0.930 . S
H1653 C1663 0.930 . S
C1654 H1648 0.930 . S
C1654 C1655 1.355 . S
C1654 C1656 1.415 . S
C1655 C1654 1.355 . S
C1655 C1657 1.419 . S
C1656 C1654 1.415 . S
C1656 C1661 1.425 . S
C1656 C1663 1.409 . S
C1657 H1649 0.930 . S
C1657 C1655 1.419 . S
C1657 C1658 1.362 . S
C1658 H1650 0.930 . S
C1658 C1657 1.362 . S
C1658 C1661 1.409 . S
C1659 H1651 0.930 . S
C1659 C1660 1.355 . S
C1659 C1661 1.415 . S
C1660 C1659 1.355 . S
C1660 C1662 1.419 . S
C1661 C1656 1.425 . S
C1661 C1658 1.409 . S
C1661 C1659 1.415 . S
C1662 H1652 0.930 . S
C1662 C1660 1.419 . S
C1662 C1663 1.362 . S
C1663 H1653 0.930 . S
C1663 C1656 1.409 . S
C1663 C1662 1.362 . S
H1664 C1670 0.930 . S
H1665 C1673 0.930 . S
H1666 C1674 0.930 . S
H1667 C1675 0.930 . S
H1668 C1678 0.930 . S
H1669 C1679 0.930 . S
C1670 H1664 0.930 . S
C1670 C1671 1.355 . S
C1670 C1672 1.415 . S
C1671 C1670 1.355 . S
C1671 C1673 1.419 . S
C1672 C1670 1.415 . S
C1672 C1677 1.425 . S
C1672 C1679 1.409 . S
C1673 H1665 0.930 . S
C1673 C1671 1.419 . S
C1673 C1674 1.362 . S
C1674 H1666 0.930 . S
C1674 C1673 1.362 . S
C1674 C1677 1.409 . S
C1675 H1667 0.930 . S
C1675 C1676 1.355 . S
C1675 C1677 1.415 . S
C1676 C1675 1.355 . S
C1676 C1678 1.419 . S
C1677 C1672 1.425 . S
C1677 C1674 1.409 . S
C1677 C1675 1.415 . S
C1678 H1668 0.930 . S
C1678 C1676 1.419 . S
C1678 C1679 1.362 . S
C1679 H1669 0.930 . S
C1679 C1672 1.409 . S
C1679 C1678 1.362 . S
H1680 C1686 0.930 . S
H1681 C1689 0.930 . S
H1682 C1690 0.930 . S
H1683 C1691 0.930 . S
H1684 C1694 0.930 . S
H1685 C1695 0.930 . S
C1686 H1680 0.930 . S
C1686 C1687 1.355 . S
C1686 C1688 1.415 . S
C1687 C1686 1.355 . S
C1687 C1689 1.419 . S
C1688 C1686 1.415 . S
C1688 C1693 1.425 . S
C1688 C1695 1.409 . S
C1689 H1681 0.930 . S
C1689 C1687 1.419 . S
C1689 C1690 1.362 . S
C1690 H1682 0.930 . S
C1690 C1689 1.362 . S
C1690 C1693 1.409 . S
C1691 H1683 0.930 . S
C1691 C1692 1.355 . S
C1691 C1693 1.415 . S
C1692 C1691 1.355 . S
C1692 C1694 1.419 . S
C1693 C1688 1.425 . S
C1693 C1690 1.409 . S
C1693 C1691 1.415 . S
C1694 H1684 0.930 . S
C1694 C1692 1.419 . S
C1694 C1695 1.362 . S
C1695 H1685 0.930 . S
C1695 C1688 1.409 . S
C1695 C1694 1.362 . S
H1696 C1702 0.930 . S
H1697 C1705 0.930 . S
H1698 C1706 0.930 . S
H1699 C1707 0.930 . S
H1700 C1710 0.930 . S
H1701 C1711 0.930 . S
C1702 H1696 0.930 . S
C1702 C1703 1.355 . S
C1702 C1704 1.415 . S
C1703 C1702 1.355 . S
C1703 C1705 1.419 . S
C1704 C1702 1.415 . S
C1704 C1709 1.425 . S
C1704 C1711 1.409 . S
C1705 H1697 0.930 . S
C1705 C1703 1.419 . S
C1705 C1706 1.362 . S
C1706 H1698 0.930 . S
C1706 C1705 1.362 . S
C1706 C1709 1.409 . S
C1707 H1699 0.930 . S
C1707 C1708 1.355 . S
C1707 C1709 1.415 . S
C1708 C1707 1.355 . S
C1708 C1710 1.419 . S
C1709 C1704 1.425 . S
C1709 C1706 1.409 . S
C1709 C1707 1.415 . S
C1710 H1700 0.930 . S
C1710 C1708 1.419 . S
C1710 C1711 1.362 . S
C1711 H1701 0.930 . S
C1711 C1704 1.409 . S
C1711 C1710 1.362 . S
H1712 C1718 0.930 . S
H1713 C1721 0.930 . S
H1714 C1722 0.930 . S
H1715 C1723 0.930 . S
H1716 C1726 0.930 . S
H1717 C1727 0.930 . S
C1718 H1712 0.930 . S
C1718 C1719 1.355 . S
C1718 C1720 1.415 . S
C1719 C1718 1.355 . S
C1719 C1721 1.419 . S
C1720 C1718 1.415 . S
C1720 C1725 1.425 . S
C1720 C1727 1.409 . S
C1721 H1713 0.930 . S
C1721 C1719 1.419 . S
C1721 C1722 1.362 . S
C1722 H1714 0.930 . S
C1722 C1721 1.362 . S
C1722 C1725 1.409 . S
C1723 H1715 0.930 . S
C1723 C1724 1.355 . S
C1723 C1725 1.415 . S
C1724 C1723 1.355 . S
C1724 C1726 1.419 . S
C1725 C1720 1.425 . S
C1725 C1722 1.409 . S
C1725 C1723 1.415 . S
C1726 H1716 0.930 . S
C1726 C1724 1.419 . S
C1726 C1727 1.362 . S
C1727 H1717 0.930 . S
C1727 C1720 1.409 . S
C1727 C1726 1.362 . S
H1728 C1734 0.930 . S
H1729 C1737 0.930 . S
H1730 C1738 0.930 . S
H1731 C1739 0.930 . S
H1732 C1742 0.930 . S
H1733 C1743 0.930 . S
C1734 H1728 0.930 . S
C1734 C1735 1.355 . S
C1734 C1736 1.415 . S
C1735 C1734 1.355 . S
C1735 C1737 1.419 . S
C1736 C1734 1.415 . S
C1736 C1741 1.425 . S
C1736 C1743 1.409 . S
C1737 H1729 0.930 . S
C1737 C1735 1.419 . S
C1737 C1738 1.362 . S
C1738 H1730 0.930 . S
C1738 C1737 1.362 . S
C1738 C1741 1.409 . S
C1739 H1731 0.930 . S
C1739 C1740 1.355 . S
C1739 C1741 1.415 . S
C1740 C1739 1.355 . S
C1740 C1742 1.419 . S
C1741 C1736 1.425 . S
C1741 C1738 1.409 . S
C1741 C1739 1.415 . S
C1742 H1732 0.930 . S
C1742 C1740 1.419 . S
C1742 C1743 1.362 . S
C1743 H1733 0.930 . S
C1743 C1736 1.409 . S
C1743 C1742 1.362 . S
H1744 C1750 0.930 . S
H1745 C1753 0.930 . S
H1746 C1754 0.930 . S
H1747 C1755 0.930 . S
H1748 C1758 0.930 . S
H1749 C1759 0.930 . S
C1750 H1744 0.930 . S
C1750 C1751 1.355 . S
C1750 C1752 1.415 . S
C1751 C1750 1.355 . S
C1751 C1753 1.419 . S
C1752 C1750 1.415 . S
C1752 C1757 1.425 . S
C1752 C1759 1.409 . S
C1753 H1745 0.930 . S
C1753 C1751 1.419 . S
C1753 C1754 1.362 . S
C1754 H1746 0.930 . S
C1754 C1753 1.362 . S
C1754 C1757 1.409 . S
C1755 H1747 0.930 . S
C1755 C1756 1.355 . S
C1755 C1757 1.415 . S
C1756 C1755 1.355 . S
C1756 C1758 1.419 . S
C1757 C1752 1.425 . S
C1757 C1754 1.409 . S
C1757 C1755 1.415 . S
C1758 H1748 0.930 . S
C1758 C1756 1.419 . S
C1758 C1759 1.362 . S
C1759 H1749 0.930 . S
C1759 C1752 1.409 . S
C1759 C1758 1.362 . S
H1760 C1766 0.930 . S
H1761 C1769 0.930 . S
H1762 C1770 0.930 . S
H1763 C1771 0.930 . S
H1764 C1774 0.930 . S
H1765 C1775 0.930 . S
C1766 H1760 0.930 . S
C1766 C1767 1.355 . S
C1766 C1768 1.415 . S
C1767 C1766 1.355 . S
C1767 C1769 1.419 . S
C1768 C1766 1.415 . S
C1768 C1773 1.425 . S
C1768 C1775 1.409 . S
C1769 H1761 0.930 . S
C1769 C1767 1.419 . S
C1769 C1770 1.362 . S
C1770 H1762 0.930 . S
C1770 C1769 1.362 . S
C1770 C1773 1.409 . S
C1771 H1763 0.930 . S
C1771 C1772 1.355 . S
C1771 C1773 1.415 . S
C1772 C1771 1.355 . S
C1772 C1774 1.419 . S
C1773 C1768 1.425 . S
C1773 C1770 1.409 . S
C1773 C1771 1.415 . S
C1774 H1764 0.930 . S
C1774 C1772 1.419 . S
C1774 C1775 1.362 . S
C1775 H1765 0.930 . S
C1775 C1768 1.409 . S
C1775 C1774 1.362 . S
H1776 C1782 0.930 . S
H1777 C1785 0.930 . S
H1778 C1786 0.930 . S
H1779 C1787 0.930 . S
H1780 C1790 0.930 . S
H1781 C1791 0.930 . S
C1782 H1776 0.930 . S
C1782 C1783 1.355 . S
C1782 C1784 1.415 . S
C1783 C1782 1.355 . S
C1783 C1785 1.419 . S
C1784 C1782 1.415 . S
C1784 C1789 1.425 . S
C1784 C1791 1.409 . S
C1785 H1777 0.930 . S
C1785 C1783 1.419 . S
C1785 C1786 1.362 . S
C1786 H1778 0.930 . S
C1786 C1785 1.362 . S
C1786 C1789 1.409 . S
C1787 H1779 0.930 . S
C1787 C1788 1.355 . S
C1787 C1789 1.415 . S
C1788 C1787 1.355 . S
C1788 C1790 1.419 . S
C1789 C1784 1.425 . S
C1789 C1786 1.409 . S
C1789 C1787 1.415 . S
C1790 H1780 0.930 . S
C1790 C1788 1.419 . S
C1790 C1791 1.362 . S
C1791 H1781 0.930 . S
C1791 C1784 1.409 . S
C1791 C1790 1.362 . S
H1792 C1798 0.930 . S
H1793 C1801 0.930 . S
H1794 C1802 0.930 . S
H1795 C1803 0.930 . S
H1796 C1806 0.930 . S
H1797 C1807 0.930 . S
C1798 H1792 0.930 . S
C1798 C1799 1.355 . S
C1798 C1800 1.415 . S
C1799 C1798 1.355 . S
C1799 C1801 1.419 . S
C1800 C1798 1.415 . S
C1800 C1805 1.425 . S
C1800 C1807 1.409 . S
C1801 H1793 0.930 . S
C1801 C1799 1.419 . S
C1801 C1802 1.362 . S
C1802 H1794 0.930 . S
C1802 C1801 1.362 . S
C1802 C1805 1.409 . S
C1803 H1795 0.930 . S
C1803 C1804 1.355 . S
C1803 C1805 1.415 . S
C1804 C1803 1.355 . S
C1804 C1806 1.419 . S
C1805 C1800 1.425 . S
C1805 C1802 1.409 . S
C1805 C1803 1.415 . S
C1806 H1796 0.930 . S
C1806 C1804 1.419 . S
C1806 C1807 1.362 . S
C1807 H1797 0.930 . S
C1807 C1800 1.409 . S
C1807 C1806 1.362 . S
H1808 C1814 0.930 . S
H1809 C1817 0.930 . S
H1810 C1818 0.930 . S
H1811 C1819 0.930 . S
H1812 C1822 0.930 . S
H1813 C1823 0.930 . S
C1814 H1808 0.930 . S
C1814 C1815 1.355 . S
C1814 C1816 1.415 . S
C1815 C1814 1.355 . S
C1815 C1817 1.419 . S
C1816 C1814 1.415 . S
C1816 C1821 1.425 . S
C1816 C1823 1.409 . S
C1817 H1809 0.930 . S
C1817 C1815 1.419 . S
C1817 C1818 1.362 . S
C1818 H1810 0.930 . S
C1818 C1817 1.362 . S
C1818 C1821 1.409 . S
C1819 H1811 0.930 . S
C1819 C1820 1.355 . S
C1819 C1821 1.415 . S
C1820 C1819 1.355 . S
C1820 C1822 1.419 . S
C1821 C1816 1.425 . S
C1821 C1818 1.409 . S
C1821 C1819 1.415 . S
C1822 H1812 0.930 . S
C1822 C1820 1.419 . S
C1822 C1823 1.362 . S
C1823 H1813 0.930 . S
C1823 C1816 1.409 . S
C1823 C1822 1.362 . S
H1824 C1830 0.930 . S
H1825 C1833 0.930 . S
H1826 C1834 0.930 . S
H1827 C1835 0.930 . S
H1828 C1838 0.930 . S
H1829 C1839 0.930 . S
C1830 H1824 0.930 . S
C1830 C1831 1.355 . S
C1830 C1832 1.415 . S
C1831 C1830 1.355 . S
C1831 C1833 1.419 . S
C1832 C1830 1.415 . S
C1832 C1837 1.425 . S
C1832 C1839 1.409 . S
C1833 H1825 0.930 . S
C1833 C1831 1.419 . S
C1833 C1834 1.362 . S
C1834 H1826 0.930 . S
C1834 C1833 1.362 . S
C1834 C1837 1.409 . S
C1835 H1827 0.930 . S
C1835 C1836 1.355 . S
C1835 C1837 1.415 . S
C1836 C1835 1.355 . S
C1836 C1838 1.419 . S
C1837 C1832 1.425 . S
C1837 C1834 1.409 . S
C1837 C1835 1.415 . S
C1838 H1828 0.930 . S
C1838 C1836 1.419 . S
C1838 C1839 1.362 . S
C1839 H1829 0.930 . S
C1839 C1832 1.409 . S
C1839 C1838 1.362 . S
H1840 C1846 0.930 . S
H1841 C1849 0.930 . S
H1842 C1850 0.930 . S
H1843 C1851 0.930 . S
H1844 C1854 0.930 . S
H1845 C1855 0.930 . S
C1846 H1840 0.930 . S
C1846 C1847 1.355 . S
C1846 C1848 1.415 . S
C1847 C1846 1.355 . S
C1847 C1849 1.419 . S
C1848 C1846 1.415 . S
C1848 C1853 1.425 . S
C1848 C1855 1.409 . S
C1849 H1841 0.930 . S
C1849 C1847 1.419 . S
C1849 C1850 1.362 . S
C1850 H1842 0.930 . S
C1850 C1849 1.362 . S
C1850 C1853 1.409 . S
C1851 H1843 0.930 . S
C1851 C1852 1.355 . S
C1851 C1853 1.415 . S
C1852 C1851 1.355 . S
C1852 C1854 1.419 . S
C1853 C1848 1.425 . S
C1853 C1850 1.409 . S
C1853 C1851 1.415 . S
C1854 H1844 0.930 . S
C1854 C1852 1.419 . S
C1854 C1855 1.362 . S
C1855 H1845 0.930 . S
C1855 C1848 1.409 . S
C1855 C1854 1.362 . S
H1856 C1862 0.930 . S
H1857 C1865 0.930 . S
H1858 C1866 0.930 . S
H1859 C1867 0.930 . S
H1860 C1870 0.930 . S
H1861 C1871 0.930 . S
C1862 H1856 0.930 . S
C1862 C1863 1.355 . S
C1862 C1864 1.415 . S
C1863 C1862 1.355 . S
C1863 C1865 1.419 . S
C1864 C1862 1.415 . S
C1864 C1869 1.425 . S
C1864 C1871 1.409 . S
C1865 H1857 0.930 . S
C1865 C1863 1.419 . S
C1865 C1866 1.362 . S
C1866 H1858 0.930 . S
C1866 C1865 1.362 . S
C1866 C1869 1.409 . S
C1867 H1859 0.930 . S
C1867 C1868 1.355 . S
C1867 C1869 1.415 . S
C1868 C1867 1.355 . S
C1868 C1870 1.419 . S
C1869 C1864 1.425 . S
C1869 C1866 1.409 . S
C1869 C1867 1.415 . S
C1870 H1860 0.930 . S
C1870 C1868 1.419 . S
C1870 C1871 1.362 . S
C1871 H1861 0.930 . S
C1871 C1864 1.409 . S
C1871 C1870 1.362 . S
H1872 C1878 0.930 . S
H1873 C1881 0.930 . S
H1874 C1882 0.930 . S
H1875 C1883 0.930 . S
H1876 C1886 0.930 . S
H1877 C1887 0.930 . S
C1878 H1872 0.930 . S
C1878 C1879 1.355 . S
C1878 C1880 1.415 . S
C1879 C1878 1.355 . S
C1879 C1881 1.419 . S
C1880 C1878 1.415 . S
C1880 C1885 1.425 . S
C1880 C1887 1.409 . S
C1881 H1873 0.930 . S
C1881 C1879 1.419 . S
C1881 C1882 1.362 . S
C1882 H1874 0.930 . S
C1882 C1881 1.362 . S
C1882 C1885 1.409 . S
C1883 H1875 0.930 . S
C1883 C1884 1.355 . S
C1883 C1885 1.415 . S
C1884 C1883 1.355 . S
C1884 C1886 1.419 . S
C1885 C1880 1.425 . S
C1885 C1882 1.409 . S
C1885 C1883 1.415 . S
C1886 H1876 0.930 . S
C1886 C1884 1.419 . S
C1886 C1887 1.362 . S
C1887 H1877 0.930 . S
C1887 C1880 1.409 . S
C1887 C1886 1.362 . S
H1888 C1894 0.930 . S
H1889 C1897 0.930 . S
H1890 C1898 0.930 . S
H1891 C1899 0.930 . S
H1892 C1902 0.930 . S
H1893 C1903 0.930 . S
C1894 H1888 0.930 . S
C1894 C1895 1.355 . S
C1894 C1896 1.415 . S
C1895 C1894 1.355 . S
C1895 C1897 1.419 . S
C1896 C1894 1.415 . S
C1896 C1901 1.425 . S
C1896 C1903 1.409 . S
C1897 H1889 0.930 . S
C1897 C1895 1.419 . S
C1897 C1898 1.362 . S
C1898 H1890 0.930 . S
C1898 C1897 1.362 . S
C1898 C1901 1.409 . S
C1899 H1891 0.930 . S
C1899 C1900 1.355 . S
C1899 C1901 1.415 . S
C1900 C1899 1.355 . S
C1900 C1902 1.419 . S
C1901 C1896 1.425 . S
C1901 C1898 1.409 . S
C1901 C1899 1.415 . S
C1902 H1892 0.930 . S
C1902 C1900 1.419 . S
C1902 C1903 1.362 . S
C1903 H1893 0.930 . S
C1903 C1896 1.409 . S
C1903 C1902 1.362 . S
H1904 C1910 0.930 . S
H1905 C1913 0.930 . S
H1906 C1914 0.930 . S
H1907 C1915 0.930 . S
H1908 C1918 0.930 . S
H1909 C1919 0.930 . S
C1910 H1904 0.930 . S
C1910 C1911 1.355 . S
C1910 C1912 1.415 . S
C1911 C1910 1.355 . S
C1911 C1913 1.419 . S
C1912 C1910 1.415 . S
C1912 C1917 1.425 . S
C1912 C1919 1.409 . S
C1913 H1905 0.930 . S
C1913 C1911 1.419 . S
C1913 C1914 1.362 . S
C1914 H1906 0.930 . S
C1914 C1913 1.362 . S
C1914 C1917 1.409 . S
C1915 H1907 0.930 . S
C1915 C1916 1.355 . S
C1915 C1917 1.415 . S
C1916 C1915 1.355 . S
C1916 C1918 1.419 . S
C1917 C1912 1.425 . S
C1917 C1914 1.409 . S
C1917 C1915 1.415 . S
C1918 H1908 0.930 . S
C1918 C1916 1.419 . S
C1918 C1919 1.362 . S
C1919 H1909 0.930 . S
C1919 C1912 1.409 . S
C1919 C1918 1.362 . S
H1920 C1926 0.930 . S
H1921 C1929 0.930 . S
H1922 C1930 0.930 . S
H1923 C1931 0.930 . S
H1924 C1934 0.930 . S
H1925 C1935 0.930 . S
C1926 H1920 0.930 . S
C1926 C1927 1.355 . S
C1926 C1928 1.415 . S
C1927 C1926 1.355 . S
C1927 C1929 1.419 . S
C1928 C1926 1.415 . S
C1928 C1933 1.425 . S
C1928 C1935 1.409 . S
C1929 H1921 0.930 . S
C1929 C1927 1.419 . S
C1929 C1930 1.362 . S
C1930 H1922 0.930 . S
C1930 C1929 1.362 . S
C1930 C1933 1.409 . S
C1931 H1923 0.930 . S
C1931 C1932 1.355 . S
C1931 C1933 1.415 . S
C1932 C1931 1.355 . S
C1932 C1934 1.419 . S
C1933 C1928 1.425 . S
C1933 C1930 1.409 . S
C1933 C1931 1.415 . S
C1934 H1924 0.930 . S
C1934 C1932 1.419 . S
C1934 C1935 1.362 . S
C1935 H1925 0.930 . S
C1935 C1928 1.409 . S
C1935 C1934 1.362 . S
H1936 C1942 0.930 . S
H1937 C1945 0.930 . S
H1938 C1946 0.930 . S
H1939 C1947 0.930 . S
H1940 C1950 0.930 . S
H1941 C1951 0.930 . S
C1942 H1936 0.930 . S
C1942 C1943 1.355 . S
C1942 C1944 1.415 . S
C1943 C1942 1.355 . S
C1943 C1945 1.419 . S
C1944 C1942 1.415 . S
C1944 C1949 1.425 . S
C1944 C1951 1.409 . S
C1945 H1937 0.930 . S
C1945 C1943 1.419 . S
C1945 C1946 1.362 . S
C1946 H1938 0.930 . S
C1946 C1945 1.362 . S
C1946 C1949 1.409 . S
C1947 H1939 0.930 . S
C1947 C1948 1.355 . S
C1947 C1949 1.415 . S
C1948 C1947 1.355 . S
C1948 C1950 1.419 . S
C1949 C1944 1.425 . S
C1949 C1946 1.409 . S
C1949 C1947 1.415 . S
C1950 H1940 0.930 . S
C1950 C1948 1.419 . S
C1950 C1951 1.362 . S
C1951 H1941 0.930 . S
C1951 C1944 1.409 . S
C1951 C1950 1.362 . S
H1952 C1958 0.930 . S
H1953 C1961 0.930 . S
H1954 C1962 0.930 . S
H1955 C1963 0.930 . S
H1956 C1966 0.930 . S
H1957 C1967 0.930 . S
C1958 H1952 0.930 . S
C1958 C1959 1.355 . S
C1958 C1960 1.415 . S
C1959 C1958 1.355 . S
C1959 C1961 1.419 . S
C1960 C1958 1.415 . S
C1960 C1965 1.425 . S
C1960 C1967 1.409 . S
C1961 H1953 0.930 . S
C1961 C1959 1.419 . S
C1961 C1962 1.362 . S
C1962 H1954 0.930 . S
C1962 C1961 1.362 . S
C1962 C1965 1.409 . S
C1963 H1955 0.930 . S
C1963 C1964 1.355 . S
C1963 C1965 1.415 . S
C1964 C1963 1.355 . S
C1964 C1966 1.419 . S
C1965 C1960 1.425 . S
C1965 C1962 1.409 . S
C1965 C1963 1.415 . S
C1966 H1956 0.930 . S
C1966 C1964 1.419 . S
C1966 C1967 1.362 . S
C1967 H1957 0.930 . S
C1967 C1960 1.409 . S
C1967 C1966 1.362 . S
H1968 C1974 0.930 . S
H1969 C1977 0.930 . S
H1970 C1978 0.930 . S
H1971 C1979 0.930 . S
H1972 C1982 0.930 . S
H1973 C1983 0.930 . S
C1974 H1968 0.930 . S
C1974 C1975 1.355 . S
C1974 C1976 1.415 . S
C1975 C1974 1.355 . S
C1975 C1977 1.419 . S
C1976 C1974 1.415 . S
C1976 C1981 1.425 . S
C1976 C1983 1.409 . S
C1977 H1969 0.930 . S
C1977 C1975 1.419 . S
C1977 C1978 1.362 . S
C1978 H1970 0.930 . S
C1978 C1977 1.362 . S
C1978 C1981 1.409 . S
C1979 H1971 0.930 . S
C1979 C1980 1.355 . S
C1979 C1981 1.415 . S
C1980 C1979 1.355 . S
C1980 C1982 1.419 . S
C1981 C1976 1.425 . S
C1981 C1978 1.409 . S
C1981 C1979 1.415 . S
C1982 H1972 0.930 . S
C1982 C1980 1.419 . S
C1982 C1983 1.362 . S
C1983 H1973 0.930 . S
C1983 C1976 1.409 . S
C1983 C1982 1.362 . S
H1984 C1990 0.930 . S
H1985 C1993 0.930 . S
H1986 C1994 0.930 . S
H1987 C1995 0.930 . S
H1988 C1998 0.930 . S
H1989 C1999 0.930 . S
C1990 H1984 0.930 . S
C1990 C1991 1.355 . S
C1990 C1992 1.415 . S
C1991 C1990 1.355 . S
C1991 C1993 1.419 . S
C1992 C1990 1.415 . S
C1992 C1997 1.425 . S
C1992 C1999 1.409 . S
C1993 H1985 0.930 . S
C1993 C1991 1.419 . S
C1993 C1994 1.362 . S
C1994 H1986 0.930 . S
C1994 C1993 1.362 . S
C1994 C1997 1.409 . S
C1995 H1987 0.930 . S
C1995 C1996 1.355 . S
C1995 C1997 1.415 . S
C1996 C1995 1.355 . S
C1996 C1998 1.419 . S
C1997 C1992 1.425 . S
C1997 C1994 1.409 . S
C1997 C1995 1.415 . S
C1998 H1988 0.930 . S
C1998 C1996 1.419 . S
C1998 C1999 1.362 . S
C1999 H1989 0.930 . S
C1999 C1992 1.409 . S
C1999 C1998 1.362 . S
H2000 C2006 0.930 . S
H2001 C2009 0.930 . S
H2002 C2010 0.930 . S
H2003 C2011 0.930 . S
H2004 C2014 0.930 . S
H2005 C2015 0.930 . S
C2006 H2000 0.930 . S
C2006 C2007 1.355 . S
C2006 C2008 1.415 . S
C2007 C2006 1.355 . S
C2007 C2009 1.419 . S
C2008 C2006 1.415 . S
C2008 C2013 1.425 . S
C2008 C2015 1.409 . S
C2009 H2001 0.930 . S
C2009 C2007 1.419 . S
C2009 C2010 1.362 . S
C2010 H2002 0.930 . S
C2010 C2009 1.362 . S
C2010 C2013 1.409 . S
C2011 H2003 0.930 . S
C2011 C2012 1.355 . S
C2011 C2013 1.415 . S
C2012 C2011 1.355 . S
C2012 C2014 1.419 . S
C2013 C2008 1.425 . S
C2013 C2010 1.409 . S
C2013 C2011 1.415 . S
C2014 H2004 0.930 . S
C2014 C2012 1.419 . S
C2014 C2015 1.362 . S
C2015 H2005 0.930 . S
C2015 C2008 1.409 . S
C2015 C2014 1.362 . S
H2016 C2022 0.930 . S
H2017 C2025 0.930 . S
H2018 C2026 0.930 . S
H2019 C2027 0.930 . S
H2020 C2030 0.930 . S
H2021 C2031 0.930 . S
C2022 H2016 0.930 . S
C2022 C2023 1.355 . S
C2022 C2024 1.415 . S
C2023 C2022 1.355 . S
C2023 C2025 1.419 . S
C2024 C2022 1.415 . S
C2024 C2029 1.425 . S
C2024 C2031 1.409 . S
C2025 H2017 0.930 . S
C2025 C2023 1.419 . S
C2025 C2026 1.362 . S
C2026 H2018 0.930 . S
C2026 C2025 1.362 . S
C2026 C2029 1.409 . S
C2027 H2019 0.930 . S
C2027 C2028 1.355 . S
C2027 C2029 1.415 . S
C2028 C2027 1.355 . S
C2028 C2030 1.419 . S
C2029 C2024 1.425 . S
C2029 C2026 1.409 . S
C2029 C2027 1.415 . S
C2030 H2020 0.930 . S
C2030 C2028 1.419 . S
C2030 C2031 1.362 . S
C2031 H2021 0.930 . S
C2031 C2024 1.409 . S
C2031 C2030 1.362 . S
H2032 C2038 0.930 . S
H2033 C2041 0.930 . S
H2034 C2042 0.930 . S
H2035 C2043 0.930 . S
H2036 C2046 0.930 . S
H2037 C2047 0.930 . S
C2038 H2032 0.930 . S
C2038 C2039 1.355 . S
C2038 C2040 1.415 . S
C2039 C2038 1.355 . S
C2039 C2041 1.419 . S
C2040 C2038 1.415 . S
C2040 C2045 1.425 . S
C2040 C2047 1.409 . S
C2041 H2033 0.930 . S
C2041 C2039 1.419 . S
C2041 C2042 1.362 . S
C2042 H2034 0.930 . S
C2042 C2041 1.362 . S
C2042 C2045 1.409 . S
C2043 H2035 0.930 . S
C2043 C2044 1.355 . S
C2043 C2045 1.415 . S
C2044 C2043 1.355 . S
C2044 C2046 1.419 . S
C2045 C2040 1.425 . S
C2045 C2042 1.409 . S
C2045 C2043 1.415 . S
C2046 H2036 0.930 . S
C2046 C2044 1.419 . S
C2046 C2047 1.362 . S
C2047 H2037 0.930 . S
C2047 C2040 1.409 . S
C2047 C2046 1.362 . S
H2048 C2054 0.930 . S
H2049 C2057 0.930 . S
H2050 C2058 0.930 . S
H2051 C2059 0.930 . S
H2052 C2062 0.930 . S
H2053 C2063 0.930 . S
C2054 H2048 0.930 . S
C2054 C2055 1.355 . S
C2054 C2056 1.415 . S
C2055 C2054 1.355 . S
C2055 C2057 1.419 . S
C2056 C2054 1.415 . S
C2056 C2061 1.425 . S
C2056 C2063 1.409 . S
C2057 H2049 0.930 . S
C2057 C2055 1.419 . S
C2057 C2058 1.362 . S
C2058 H2050 0.930 . S
C2058 C2057 1.362 . S
C2058 C2061 1.409 . S
C2059 H2051 0.930 . S
C2059 C2060 1.355 . S
C2059 C2061 1.415 . S
C2060 C2059 1.355 . S
C2060 C2062 1.419 . S
C2061 C2056 1.425 . S
C2061 C2058 1.409 . S
C2061 C2059 1.415 . S
C2062 H2052 0.930 . S
C2062 C2060 1.419 . S
C2062 C2063 1.362 . S
C2063 H2053 0.930 . S
C2063 C2056 1.409 . S
C2063 C2062 1.362 . S
H2064 C2070 0.930 . S
H2065 C2073 0.930 . S
H2066 C2074 0.930 . S
H2067 C2075 0.930 . S
H2068 C2078 0.930 . S
H2069 C2079 0.930 . S
C2070 H2064 0.930 . S
C2070 C2071 1.355 . S
C2070 C2072 1.415 . S
C2071 C2070 1.355 . S
C2071 C2073 1.419 . S
C2072 C2070 1.415 . S
C2072 C2077 1.425 . S
C2072 C2079 1.409 . S
C2073 H2065 0.930 . S
C2073 C2071 1.419 . S
C2073 C2074 1.362 . S
C2074 H2066 0.930 . S
C2074 C2073 1.362 . S
C2074 C2077 1.409 . S
C2075 H2067 0.930 . S
C2075 C2076 1.355 . S
C2075 C2077 1.415 . S
C2076 C2075 1.355 . S
C2076 C2078 1.419 . S
C2077 C2072 1.425 . S
C2077 C2074 1.409 . S
C2077 C2075 1.415 . S
C2078 H2068 0.930 . S
C2078 C2076 1.419 . S
C2078 C2079 1.362 . S
C2079 H2069 0.930 . S
C2079 C2072 1.409 . S
C2079 C2078 1.362 . S
H2080 C2086 0.930 . S
H2081 C2089 0.930 . S
H2082 C2090 0.930 . S
H2083 C2091 0.930 . S
H2084 C2094 0.930 . S
H2085 C2095 0.930 . S
C2086 H2080 0.930 . S
C2086 C2087 1.355 . S
C2086 C2088 1.415 . S
C2087 C2086 1.355 . S
C2087 C2089 1.419 . S
C2088 C2086 1.415 . S
C2088 C2093 1.425 . S
C2088 C2095 1.409 . S
C2089 H2081 0.930 . S
C2089 C2087 1.419 . S
C2089 C2090 1.362 . S
C2090 H2082 0.930 . S
C2090 C2089 1.362 . S
C2090 C2093 1.409 . S
C2091 H2083 0.930 . S
C2091 C2092 1.355 . S
C2091 C2093 1.415 . S
C2092 C2091 1.355 . S
C2092 C2094 1.419 . S
C2093 C2088 1.425 . S
C2093 C2090 1.409 . S
C2093 C2091 1.415 . S
C2094 H2084 0.930 . S
C2094 C2092 1.419 . S
C2094 C2095 1.362 . S
C2095 H2085 0.930 . S
C2095 C2088 1.409 . S
C2095 C2094 1.362 . S
H2096 C2102 0.930 . S
H2097 C2105 0.930 . S
H2098 C2106 0.930 . S
H2099 C2107 0.930 . S
H2100 C2110 0.930 . S
H2101 C2111 0.930 . S
C2102 H2096 0.930 . S
C2102 C2103 1.355 . S
C2102 C2104 1.415 . S
C2103 C2102 1.355 . S
C2103 C2105 1.419 . S
C2104 C2102 1.415 . S
C2104 C2109 1.425 . S
C2104 C2111 1.409 . S
C2105 H2097 0.930 . S
C2105 C2103 1.419 . S
C2105 C2106 1.362 . S
C2106 H2098 0.930 . S
C2106 C2105 1.362 . S
C2106 C2109 1.409 . S
C2107 H2099 0.930 . S
C2107 C2108 1.355 . S
C2107 C2109 1.415 . S
C2108 C2107 1.355 . S
C2108 C2110 1.419 . S
C2109 C2104 1.425 . S
C2109 C2106 1.409 . S
C2109 C2107 1.415 . S
C2110 H2100 0.930 . S
C2110 C2108 1.419 . S
C2110 C2111 1.362 . S
C2111 H2101 0.930 . S
C2111 C2104 1.409 . S
C2111 C2110 1.362 . S
H2112 C2118 0.930 . S
H2113 C2121 0.930 . S
H2114 C2122 0.930 . S
H2115 C2123 0.930 . S
H2116 C2126 0.930 . S
H2117 C2127 0.930 . S
C2118 H2112 0.930 . S
C2118 C2119 1.355 . S
C2118 C2120 1.415 . S
C2119 C2118 1.355 . S
C2119 C2121 1.419 . S
C2120 C2118 1.415 . S
C2120 C2125 1.425 . S
C2120 C2127 1.409 . S
C2121 H2113 0.930 . S
C2121 C2119 1.419 . S
C2121 C2122 1.362 . S
C2122 H2114 0.930 . S
C2122 C2121 1.362 . S
C2122 C2125 1.409 . S
C2123 H2115 0.930 . S
C2123 C2124 1.355 . S
C2123 C2125 1.415 . S
C2124 C2123 1.355 . S
C2124 C2126 1.419 . S
C2125 C2120 1.425 . S
C2125 C2122 1.409 . S
C2125 C2123 1.415 . S
C2126 H2116 0.930 . S
C2126 C2124 1.419 . S
C2126 C2127 1.362 . S
C2127 H2117 0.930 . S
C2127 C2120 1.409 . S
C2127 C2126 1.362 . S
H2128 C2134 0.930 . S
H2129 C2137 0.930 . S
H2130 C2138 0.930 . S
H2131 C2139 0.930 . S
H2132 C2142 0.930 . S
H2133 C2143 0.930 . S
C2134 H2128 0.930 . S
C2134 C2135 1.355 . S
C2134 C2136 1.415 . S
C2135 C2134 1.355 . S
C2135 C2137 1.419 . S
C2136 C2134 1.415 . S
C2136 C2141 1.425 . S
C2136 C2143 1.409 . S
C2137 H2129 0.930 . S
C2137 C2135 1.419 . S
C2137 C2138 1.362 . S
C2138 H2130 0.930 . S
C2138 C2137 1.362 . S
C2138 C2141 1.409 . S
C2139 H2131 0.930 . S
C2139 C2140 1.355 . S
C2139 C2141 1.415 . S
C2140 C2139 1.355 . S
C2140 C2142 1.419 . S
C2141 C2136 1.425 . S
C2141 C2138 1.409 . S
C2141 C2139 1.415 . S
C2142 H2132 0.930 . S
C2142 C2140 1.419 . S
C2142 C2143 1.362 . S
C2143 H2133 0.930 . S
C2143 C2136 1.409 . S
C2143 C2142 1.362 . S
H2144 C2150 0.930 . S
H2145 C2153 0.930 . S
H2146 C2154 0.930 . S
H2147 C2155 0.930 . S
H2148 C2158 0.930 . S
H2149 C2159 0.930 . S
C2150 H2144 0.930 . S
C2150 C2151 1.355 . S
C2150 C2152 1.415 . S
C2151 C2150 1.355 . S
C2151 C2153 1.419 . S
C2152 C2150 1.415 . S
C2152 C2157 1.425 . S
C2152 C2159 1.409 . S
C2153 H2145 0.930 . S
C2153 C2151 1.419 . S
C2153 C2154 1.362 . S
C2154 H2146 0.930 . S
C2154 C2153 1.362 . S
C2154 C2157 1.409 . S
C2155 H2147 0.930 . S
C2155 C2156 1.355 . S
C2155 C2157 1.415 . S
C2156 C2155 1.355 . S
C2156 C2158 1.419 . S
C2157 C2152 1.425 . S
C2157 C2154 1.409 . S
C2157 C2155 1.415 . S
C2158 H2148 0.930 . S
C2158 C2156 1.419 . S
C2158 C2159 1.362 . S
C2159 H2149 0.930 . S
C2159 C2152 1.409 . S
C2159 C2158 1.362 . S
H2160 C2166 0.930 . S
H2161 C2169 0.930 . S
H2162 C2170 0.930 . S
H2163 C2171 0.930 . S
H2164 C2174 0.930 . S
H2165 C2175 0.930 . S
C2166 H2160 0.930 . S
C2166 C2167 1.355 . S
C2166 C2168 1.415 . S
C2167 C2166 1.355 . S
C2167 C2169 1.419 . S
C2168 C2166 1.415 . S
C2168 C2173 1.425 . S
C2168 C2175 1.409 . S
C2169 H2161 0.930 . S
C2169 C2167 1.419 . S
C2169 C2170 1.362 . S
C2170 H2162 0.930 . S
C2170 C2169 1.362 . S
C2170 C2173 1.409 . S
C2171 H2163 0.930 . S
C2171 C2172 1.355 . S
C2171 C2173 1.415 . S
C2172 C2171 1.355 . S
C2172 C2174 1.419 . S
C2173 C2168 1.425 . S
C2173 C2170 1.409 . S
C2173 C2171 1.415 . S
C2174 H2164 0.930 . S
C2174 C2172 1.419 . S
C2174 C2175 1.362 . S
C2175 H2165 0.930 . S
C2175 C2168 1.409 . S
C2175 C2174 1.362 . S
H2176 C2182 0.930 . S
H2177 C2185 0.930 . S
H2178 C2186 0.930 . S
H2179 C2187 0.930 . S
H2180 C2190 0.930 . S
H2181 C2191 0.930 . S
C2182 H2176 0.930 . S
C2182 C2183 1.355 . S
C2182 C2184 1.415 . S
C2183 C2182 1.355 . S
C2183 C2185 1.419 . S
C2184 C2182 1.415 . S
C2184 C2189 1.425 . S
C2184 C2191 1.409 . S
C2185 H2177 0.930 . S
C2185 C2183 1.419 . S
C2185 C2186 1.362 . S
C2186 H2178 0.930 . S
C2186 C2185 1.362 . S
C2186 C2189 1.409 . S
C2187 H2179 0.930 . S
C2187 C2188 1.355 . S
C2187 C2189 1.415 . S
C2188 C2187 1.355 . S
C2188 C2190 1.419 . S
C2189 C2184 1.425 . S
C2189 C2186 1.409 . S
C2189 C2187 1.415 . S
C2190 H2180 0.930 . S
C2190 C2188 1.419 . S
C2190 C2191 1.362 . S
C2191 H2181 0.930 . S
C2191 C2184 1.409 . S
C2191 C2190 1.362 . S
H2192 C2198 0.930 . S
H2193 C2201 0.930 . S
H2194 C2202 0.930 . S
H2195 C2203 0.930 . S
H2196 C2206 0.930 . S
H2197 C2207 0.930 . S
C2198 H2192 0.930 . S
C2198 C2199 1.355 . S
C2198 C2200 1.415 . S
C2199 C2198 1.355 . S
C2199 C2201 1.419 . S
C2200 C2198 1.415 . S
C2200 C2205 1.425 . S
C2200 C2207 1.409 . S
C2201 H2193 0.930 . S
C2201 C2199 1.419 . S
C2201 C2202 1.362 . S
C2202 H2194 0.930 . S
C2202 C2201 1.362 . S
C2202 C2205 1.409 . S
C2203 H2195 0.930 . S
C2203 C2204 1.355 . S
C2203 C2205 1.415 . S
C2204 C2203 1.355 . S
C2204 C2206 1.419 . S
C2205 C2200 1.425 . S
C2205 C2202 1.409 . S
C2205 C2203 1.415 . S
C2206 H2196 0.930 . S
C2206 C2204 1.419 . S
C2206 C2207 1.362 . S
C2207 H2197 0.930 . S
C2207 C2200 1.409 . S
C2207 C2206 1.362 . S
H2208 C2214 0.930 . S
H2209 C2217 0.930 . S
H2210 C2218 0.930 . S
H2211 C2219 0.930 . S
H2212 C2222 0.930 . S
H2213 C2223 0.930 . S
C2214 H2208 0.930 . S
C2214 C2215 1.355 . S
C2214 C2216 1.415 . S
C2215 C2214 1.355 . S
C2215 C2217 1.419 . S
C2216 C2214 1.415 . S
C2216 C2221 1.425 . S
C2216 C2223 1.409 . S
C2217 H2209 0.930 . S
C2217 C2215 1.419 . S
C2217 C2218 1.362 . S
C2218 H2210 0.930 . S
C2218 C2217 1.362 . S
C2218 C2221 1.409 . S
C2219 H2211 0.930 . S
C2219 C2220 1.355 . S
C2219 C2221 1.415 . S
C2220 C2219 1.355 . S
C2220 C2222 1.419 . S
C2221 C2216 1.425 . S
C2221 C2218 1.409 . S
C2221 C2219 1.415 . S
C2222 H2212 0.930 . S
C2222 C2220 1.419 . S
C2222 C2223 1.362 . S
C2223 H2213 0.930 . S
C2223 C2216 1.409 . S
C2223 C2222 1.362 . S
H2224 C2230 0.930 . S
H2225 C2233 0.930 . S
H2226 C2234 0.930 . S
H2227 C2235 0.930 . S
H2228 C2238 0.930 . S
H2229 C2239 0.930 . S
C2230 H2224 0.930 . S
C2230 C2231 1.355 . S
C2230 C2232 1.415 . S
C2231 C2230 1.355 . S
C2231 C2233 1.419 . S
C2232 C2230 1.415 . S
C2232 C2237 1.425 . S
C2232 C2239 1.409 . S
C2233 H2225 0.930 . S
C2233 C2231 1.419 . S
C2233 C2234 1.362 . S
C2234 H2226 0.930 . S
C2234 C2233 1.362 . S
C2234 C2237 1.409 . S
C2235 H2227 0.930 . S
C2235 C2236 1.355 . S
C2235 C2237 1.415 . S
C2236 C2235 1.355 . S
C2236 C2238 1.419 . S
C2237 C2232 1.425 . S
C2237 C2234 1.409 . S
C2237 C2235 1.415 . S
C2238 H2228 0.930 . S
C2238 C2236 1.419 . S
C2238 C2239 1.362 . S
C2239 H2229 0.930 . S
C2239 C2232 1.409 . S
C2239 C2238 1.362 . S
H2240 C2246 0.930 . S
H2241 C2249 0.930 . S
H2242 C2250 0.930 . S
H2243 C2251 0.930 . S
H2244 C2254 0.930 . S
H2245 C2255 0.930 . S
C2246 H2240 0.930 . S
C2246 C2247 1.355 . S
C2246 C2248 1.415 . S
C2247 C2246 1.355 . S
C2247 C2249 1.419 . S
C2248 C2246 1.415 . S
C2248 C2253 1.425 . S
C2248 C2255 1.409 . S
C2249 H2241 0.930 . S
C2249 C2247 1.419 . S
C2249 C2250 1.362 . S
C2250 H2242 0.930 . S
C2250 C2249 1.362 . S
C2250 C2253 1.409 . S
C2251 H2243 0.930 . S
C2251 C2252 1.355 . S
C2251 C2253 1.415 . S
C2252 C2251 1.355 . S
C2252 C2254 1.419 . S
C2253 C2248 1.425 . S
C2253 C2250 1.409 . S
C2253 C2251 1.415 . S
C2254 H2244 0.930 . S
C2254 C2252 1.419 . S
C2254 C2255 1.362 . S
C2255 H2245 0.930 . S
C2255 C2248 1.409 . S
C2255 C2254 1.362 . S
H2256 C2262 0.930 . S
H2257 C2265 0.930 . S
H2258 C2266 0.930 . S
H2259 C2267 0.930 . S
H2260 C2270 0.930 . S
H2261 C2271 0.930 . S
C2262 H2256 0.930 . S
C2262 C2263 1.355 . S
C2262 C2264 1.415 . S
C2263 C2262 1.355 . S
C2263 C2265 1.419 . S
C2264 C2262 1.415 . S
C2264 C2269 1.425 . S
C2264 C2271 1.409 . S
C2265 H2257 0.930 . S
C2265 C2263 1.419 . S
C2265 C2266 1.362 . S
C2266 H2258 0.930 . S
C2266 C2265 1.362 . S
C2266 C2269 1.409 . S
C2267 H2259 0.930 . S
C2267 C2268 1.355 . S
C2267 C2269 1.415 . S
C2268 C2267 1.355 . S
C2268 C2270 1.419 . S
C2269 C2264 1.425 . S
C2269 C2266 1.409 . S
C2269 C2267 1.415 . S
C2270 H2260 0.930 . S
C2270 C2268 1.419 . S
C2270 C2271 1.362 . S
C2271 H2261 0.930 . S
C2271 C2264 1.409 . S
C2271 C2270 1.362 . S
H2272 C2278 0.930 . S
H2273 C2281 0.930 . S
H2274 C2282 0.930 . S
H2275 C2283 0.930 . S
H2276 C2286 0.930 . S
H2277 C2287 0.930 . S
C2278 H2272 0.930 . S
C2278 C2279 1.355 . S
C2278 C2280 1.415 . S
C2279 C2278 1.355 . S
C2279 C2281 1.419 . S
C2280 C2278 1.415 . S
C2280 C2285 1.425 . S
C2280 C2287 1.409 . S
C2281 H2273 0.930 . S
C2281 C2279 1.419 . S
C2281 C2282 1.362 . S
C2282 H2274 0.930 . S
C2282 C2281 1.362 . S
C2282 C2285 1.409 . S
C2283 H2275 0.930 . S
C2283 C2284 1.355 . S
C2283 C2285 1.415 . S
C2284 C2283 1.355 . S
C2284 C2286 1.419 . S
C2285 C2280 1.425 . S
C2285 C2282 1.409 . S
C2285 C2283 1.415 . S
C2286 H2276 0.930 . S
C2286 C2284 1.419 . S
C2286 C2287 1.362 . S
C2287 H2277 0.930 . S
C2287 C2280 1.409 . S
C2287 C2286 1.362 . S
H2288 C2294 0.930 . S
H2289 C2297 0.930 . S
H2290 C2298 0.930 . S
H2291 C2299 0.930 . S
H2292 C2302 0.930 . S
H2293 C2303 0.930 . S
C2294 H2288 0.930 . S
C2294 C2295 1.355 . S
C2294 C2296 1.415 . S
C2295 C2294 1.355 . S
C2295 C2297 1.419 . S
C2296 C2294 1.415 . S
C2296 C2301 1.425 . S
C2296 C2303 1.409 . S
C2297 H2289 0.930 . S
C2297 C2295 1.419 . S
C2297 C2298 1.362 . S
C2298 H2290 0.930 . S
C2298 C2297 1.362 . S
C2298 C2301 1.409 . S
C2299 H2291 0.930 . S
C2299 C2300 1.355 . S
C2299 C2301 1.415 . S
C2300 C2299 1.355 . S
C2300 C2302 1.419 . S
C2301 C2296 1.425 . S
C2301 C2298 1.409 . S
C2301 C2299 1.415 . S
C2302 H2292 0.930 . S
C2302 C2300 1.419 . S
C2302 C2303 1.362 . S
C2303 H2293 0.930 . S
C2303 C2296 1.409 . S
C2303 C2302 1.362 . S
H2304 C2310 0.930 . S
H2305 C2313 0.930 . S
H2306 C2314 0.930 . S
H2307 C2315 0.930 . S
H2308 C2318 0.930 . S
H2309 C2319 0.930 . S
C2310 H2304 0.930 . S
C2310 C2311 1.355 . S
C2310 C2312 1.415 . S
C2311 C2310 1.355 . S
C2311 C2313 1.419 . S
C2312 C2310 1.415 . S
C2312 C2317 1.425 . S
C2312 C2319 1.409 . S
C2313 H2305 0.930 . S
C2313 C2311 1.419 . S
C2313 C2314 1.362 . S
C2314 H2306 0.930 . S
C2314 C2313 1.362 . S
C2314 C2317 1.409 . S
C2315 H2307 0.930 . S
C2315 C2316 1.355 . S
C2315 C2317 1.415 . S
C2316 C2315 1.355 . S
C2316 C2318 1.419 . S
C2317 C2312 1.425 . S
C2317 C2314 1.409 . S
C2317 C2315 1.415 . S
C2318 H2308 0.930 . S
C2318 C2316 1.419 . S
C2318 C2319 1.362 . S
C2319 H2309 0.930 . S
C2319 C2312 1.409 . S
C2319 C2318 1.362 . S
H2320 C2326 0.930 . S
H2321 C2329 0.930 . S
H2322 C2330 0.930 . S
H2323 C2331 0.930 . S
H2324 C2334 0.930 . S
H2325 C2335 0.930 . S
C2326 H2320 0.930 . S
C2326 C2327 1.355 . S
C2326 C2328 1.415 . S
C2327 C2326 1.355 . S
C2327 C2329 1.419 . S
C2328 C2326 1.415 . S
C2328 C2333 1.425 . S
C2328 C2335 1.409 . S
C2329 H2321 0.930 . S
C2329 C2327 1.419 . S
C2329 C2330 1.362 . S
C2330 H2322 0.930 . S
C2330 C2329 1.362 . S
C2330 C2333 1.409 . S
C2331 H2323 0.930 . S
C2331 C2332 1.355 . S
C2331 C2333 1.415 . S
C2332 C2331 1.355 . S
C2332 C2334 1.419 . S
C2333 C2328 1.425 . S
C2333 C2330 1.409 . S
C2333 C2331 1.415 . S
C2334 H2324 0.930 . S
C2334 C2332 1.419 . S
C2334 C2335 1.362 . S
C2335 H2325 0.930 . S
C2335 C2328 1.409 . S
C2335 C2334 1.362 . S
H2336 C2342 0.930 . S
H2337 C2345 0.930 . S
H2338 C2346 0.930 . S
H2339 C2347 0.930 . S
H2340 C2350 0.930 . S
H2341 C2351 0.930 . S
C2342 H2336 0.930 . S
C2342 C2343 1.355 . S
C2342 C2344 1.415 . S
C2343 C2342 1.355 . S
C2343 C2345 1.419 . S
C2344 C2342 1.415 . S
C2344 C2349 1.425 . S
C2344 C2351 1.409 . S
C2345 H2337 0.930 . S
C2345 C2343 1.419 . S
C2345 C2346 1.362 . S
C2346 H2338 0.930 . S
C2346 C2345 1.362 . S
C2346 C2349 1.409 . S
C2347 H2339 0.930 . S
C2347 C2348 1.355 . S
C2347 C2349 1.415 . S
C2348 C2347 1.355 . S
C2348 C2350 1.419 . S
C2349 C2344 1.425 . S
C2349 C2346 1.409 . S
C2349 C2347 1.415 . S
C2350 H2340 0.930 . S
C2350 C2348 1.419 . S
C2350 C2351 1.362 . S
C2351 H2341 0.930 . S
C2351 C2344 1.409 . S
C2351 C2350 1.362 . S
H2352 C2358 0.930 . S
H2353 C2361 0.930 . S
H2354 C2362 0.930 . S
H2355 C2363 0.930 . S
H2356 C2366 0.930 . S
H2357 C2367 0.930 . S
C2358 H2352 0.930 . S
C2358 C2359 1.355 . S
C2358 C2360 1.415 . S
C2359 C2358 1.355 . S
C2359 C2361 1.419 . S
C2360 C2358 1.415 . S
C2360 C2365 1.425 . S
C2360 C2367 1.409 . S
C2361 H2353 0.930 . S
C2361 C2359 1.419 . S
C2361 C2362 1.362 . S
C2362 H2354 0.930 . S
C2362 C2361 1.362 . S
C2362 C2365 1.409 . S
C2363 H2355 0.930 . S
C2363 C2364 1.355 . S
C2363 C2365 1.415 . S
C2364 C2363 1.355 . S
C2364 C2366 1.419 . S
C2365 C2360 1.425 . S
C2365 C2362 1.409 . S
C2365 C2363 1.415 . S
C2366 H2356 0.930 . S
C2366 C2364 1.419 . S
C2366 C2367 1.362 . S
C2367 H2357 0.930 . S
C2367 C2360 1.409 . S
C2367 C2366 1.362 . S
H2368 C2374 0.930 . S
H2369 C2377 0.930 . S
H2370 C2378 0.930 . S
H2371 C2379 0.930 . S
H2372 C2382 0.930 . S
H2373 C2383 0.930 . S
C2374 H2368 0.930 . S
C2374 C2375 1.355 . S
C2374 C2376 1.415 . S
C2375 C2374 1.355 . S
C2375 C2377 1.419 . S
C2376 C2374 1.415 . S
C2376 C2381 1.425 . S
C2376 C2383 1.409 . S
C2377 H2369 0.930 . S
C2377 C2375 1.419 . S
C2377 C2378 1.362 . S
C2378 H2370 0.930 . S
C2378 C2377 1.362 . S
C2378 C2381 1.409 . S
C2379 H2371 0.930 . S
C2379 C2380 1.355 . S
C2379 C2381 1.415 . S
C2380 C2379 1.355 . S
C2380 C2382 1.419 . S
C2381 C2376 1.425 . S
C2381 C2378 1.409 . S
C2381 C2379 1.415 . S
C2382 H2372 0.930 . S
C2382 C2380 1.419 . S
C2382 C2383 1.362 . S
C2383 H2373 0.930 . S
C2383 C2376 1.409 . S
C2383 C2382 1.362 . S
H2384 C2390 0.930 . S
H2385 C2393 0.930 . S
H2386 C2394 0.930 . S
H2387 C2395 0.930 . S
H2388 C2398 0.930 . S
H2389 C2399 0.930 . S
C2390 H2384 0.930 . S
C2390 C2391 1.355 . S
C2390 C2392 1.415 . S
C2391 C2390 1.355 . S
C2391 C2393 1.419 . S
C2392 C2390 1.415 . S
C2392 C2397 1.425 . S
C2392 C2399 1.409 . S
C2393 H2385 0.930 . S
C2393 C2391 1.419 . S
C2393 C2394 1.362 . S
C2394 H2386 0.930 . S
C2394 C2393 1.362 . S
C2394 C2397 1.409 . S
C2395 H2387 0.930 . S
C2395 C2396 1.355 . S
C2395 C2397 1.415 . S
C2396 C2395 1.355 . S
C2396 C2398 1.419 . S
C2397 C2392 1.425 . S
C2397 C2394 1.409 . S
C2397 C2395 1.415 . S
C2398 H2388 0.930 . S
C2398 C2396 1.419 . S
C2398 C2399 1.362 . S
C2399 H2389 0.930 . S
C2399 C2392 1.409 . S
C2399 C2398 1.362 . S
H2400 C2406 0.930 . S
H2401 C2409 0.930 . S
H2402 C2410 0.930 . S
H2403 C2411 0.930 . S
H2404 C2414 0.930 . S
H2405 C2415 0.930 . S
C2406 H2400 0.930 . S
C2406 C2407 1.355 . S
C2406 C2408 1.415 . S
C2407 C2406 1.355 . S
C2407 C2409 1.419 . S
C2408 C2406 1.415 . S
C2408 C2413 1.425 . S
C2408 C2415 1.409 . S
C2409 H2401 0.930 . S
C2409 C2407 1.419 . S
C2409 C2410 1.362 . S
C2410 H2402 0.930 . S
C2410 C2409 1.362 . S
C2410 C2413 1.409 . S
C2411 H2403 0.930 . S
C2411 C2412 1.355 . S
C2411 C2413 1.415 . S
C2412 C2411 1.355 . S
C2412 C2414 1.419 . S
C2413 C2408 1.425 . S
C2413 C2410 1.409 . S
C2413 C2411 1.415 . S
C2414 H2404 0.930 . S
C2414 C2412 1.419 . S
C2414 C2415 1.362 . S
C2415 H2405 0.930 . S
C2415 C2408 1.409 . S
C2415 C2414 1.362 . S
H2416 C2422 0.930 . S
H2417 C2425 0.930 . S
H2418 C2426 0.930 . S
H2419 C2427 0.930 . S
H2420 C2430 0.930 . S
H2421 C2431 0.930 . S
C2422 H2416 0.930 . S
C2422 C2423 1.355 . S
C2422 C2424 1.415 . S
C2423 C2422 1.355 . S
C2423 C2425 1.419 . S
C2424 C2422 1.415 . S
C2424 C2429 1.425 . S
C2424 C2431 1.409 . S
C2425 H2417 0.930 . S
C2425 C2423 1.419 . S
C2425 C2426 1.362 . S
C2426 H2418 0.930 . S
C2426 C2425 1.362 . S
C2426 C2429 1.409 . S
C2427 H2419 0.930 . S
C2427 C2428 1.355 . S
C2427 C2429 1.415 . S
C2428 C2427 1.355 . S
C2428 C2430 1.419 . S
C2429 C2424 1.425 . S
C2429 C2426 1.409 . S
C2429 C2427 1.415 . S
C2430 H2420 0.930 . S
C2430 C2428 1.419 . S
C2430 C2431 1.362 . S
C2431 H2421 0.930 . S
C2431 C2424 1.409 . S
C2431 C2430 1.362 . S
H2432 C2438 0.930 . S
H2433 C2441 0.930 . S
H2434 C2442 0.930 . S
H2435 C2443 0.930 . S
H2436 C2446 0.930 . S
H2437 C2447 0.930 . S
C2438 H2432 0.930 . S
C2438 C2439 1.355 . S
C2438 C2440 1.415 . S
C2439 C2438 1.355 . S
C2439 C2441 1.419 . S
C2440 C2438 1.415 . S
C2440 C2445 1.425 . S
C2440 C2447 1.409 . S
C2441 H2433 0.930 . S
C2441 C2439 1.419 . S
C2441 C2442 1.362 . S
C2442 H2434 0.930 . S
C2442 C2441 1.362 . S
C2442 C2445 1.409 . S
C2443 H2435 0.930 . S
C2443 C2444 1.355 . S
C2443 C2445 1.415 . S
C2444 C2443 1.355 . S
C2444 C2446 1.419 . S
C2445 C2440 1.425 . S
C2445 C2442 1.409 . S
C2445 C2443 1.415 . S
C2446 H2436 0.930 . S
C2446 C2444 1.419 . S
C2446 C2447 1.362 . S
C2447 H2437 0.930 . S
C2447 C2440 1.409 . S
C2447 C2446 1.362 . S
H2448 C2454 0.930 . S
H2449 C2457 0.930 . S
H2450 C2458 0.930 . S
H2451 C2459 0.930 . S
H2452 C2462 0.930 . S
H2453 C2463 0.930 . S
C2454 H2448 0.930 . S
C2454 C2455 1.355 . S
C2454 C2456 1.415 . S
C2455 C2454 1.355 . S
C2455 C2457 1.419 . S
C2456 C2454 1.415 . S
C2456 C2461 1.425 . S
C2456 C2463 1.409 . S
C2457 H2449 0.930 . S
C2457 C2455 1.419 . S
C2457 C2458 1.362 . S
C2458 H2450 0.930 . S
C2458 C2457 1.362 . S
C2458 C2461 1.409 . S
C2459 H2451 0.930 . S
C2459 C2460 1.355 . S
C2459 C2461 1.415 . S
C2460 C2459 1.355 . S
C2460 C2462 1.419 . S
C2461 C2456 1.425 . S
C2461 C2458 1.409 . S
C2461 C2459 1.415 . S
C2462 H2452 0.930 . S
C2462 C2460 1.419 . S
C2462 C2463 1.362 . S
C2463 H2453 0.930 . S
C2463 C2456 1.409 . S
C2463 C2462 1.362 . S
H2464 C2470 0.930 . S
H2465 C2473 0.930 . S
H2466 C2474 0.930 . S
H2467 C2475 0.930 . S
H2468 C2478 0.930 . S
H2469 C2479 0.930 . S
C2470 H2464 0.930 . S
C2470 C2471 1.355 . S
C2470 C2472 1.415 . S
C2471 C2470 1.355 . S
C2471 C2473 1.419 . S
C2472 C2470 1.415 . S
C2472 C2477 1.425 . S
C2472 C2479 1.409 . S
C2473 H2465 0.930 . S
C2473 C2471 1.419 . S
C2473 C2474 1.362 . S
C2474 H2466 0.930 . S
C2474 C2473 1.362 . S
C2474 C2477 1.409 . S
C2475 H2467 0.930 . S
C2475 C2476 1.355 . S
C2475 C2477 1.415 . S
C2476 C2475 1.355 . S
C2476 C2478 1.419 . S
C2477 C2472 1.425 . S
C2477 C2474 1.409 . S
C2477 C2475 1.415 . S
C2478 H2468 0.930 . S
C2478 C2476 1.419 . S
C2478 C2479 1.362 . S
C2479 H2469 0.930 . S
C2479 C2472 1.409 . S
C2479 C2478 1.362 . S
H2480 C2486 0.930 . S
H2481 C2489 0.930 . S
H2482 C2490 0.930 . S
H2483 C2491 0.930 . S
H2484 C2494 0.930 . S
H2485 C2495 0.930 . S
C2486 H2480 0.930 . S
C2486 C2487 1.355 . S
C2486 C2488 1.415 . S
C2487 C2486 1.355 . S
C2487 C2489 1.419 . S
C2488 C2486 1.415 . S
C2488 C2493 1.425 . S
C2488 C2495 1.409 . S
C2489 H2481 0.930 . S
C2489 C2487 1.419 . S
C2489 C2490 1.362 . S
C2490 H2482 0.930 . S
C2490 C2489 1.362 . S
C2490 C2493 1.409 . S
C2491 H2483 0.930 . S
C2491 C2492 1.355 . S
C2491 C2493 1.415 . S
C2492 C2491 1.355 . S
C2492 C2494 1.419 . S
C2493 C2488 1.425 . S
C2493 C2490 1.409 . S
C2493 C2491 1.415 . S
C2494 H2484 0.930 . S
C2494 C2492 1.419 . S
C2494 C2495 1.362 . S
C2495 H2485 0.930 . S
C2495 C2488 1.409 . S
C2495 C2494 1.362 . S
H2496 C2502 0.930 . S
H2497 C2505 0.930 . S
H2498 C2506 0.930 . S
H2499 C2507 0.930 . S
H2500 C2510 0.930 . S
H2501 C2511 0.930 . S
C2502 H2496 0.930 . S
C2502 C2503 1.355 . S
C2502 C2504 1.415 . S
C2503 C2502 1.355 . S
C2503 C2505 1.419 . S
C2504 C2502 1.415 . S
C2504 C2509 1.425 . S
C2504 C2511 1.409 . S
C2505 H2497 0.930 . S
C2505 C2503 1.419 . S
C2505 C2506 1.362 . S
C2506 H2498 0.930 . S
C2506 C2505 1.362 . S
C2506 C2509 1.409 . S
C2507 H2499 0.930 . S
C2507 C2508 1.355 . S
C2507 C2509 1.415 . S
C2508 C2507 1.355 . S
C2508 C2510 1.419 . S
C2509 C2504 1.425 . S
C2509 C2506 1.409 . S
C2509 C2507 1.415 . S
C2510 H2500 0.930 . S
C2510 C2508 1.419 . S
C2510 C2511 1.362 . S
C2511 H2501 0.930 . S
C2511 C2504 1.409 . S
C2511 C2510 1.362 . S
H2512 C2518 0.930 . S
H2513 C2521 0.930 . S
H2514 C2522 0.930 . S
H2515 C2523 0.930 . S
H2516 C2526 0.930 . S
H2517 C2527 0.930 . S
C2518 H2512 0.930 . S
C2518 C2519 1.355 . S
C2518 C2520 1.415 . S
C2519 C2518 1.355 . S
C2519 C2521 1.419 . S
C2520 C2518 1.415 . S
C2520 C2525 1.425 . S
C2520 C2527 1.409 . S
C2521 H2513 0.930 . S
C2521 C2519 1.419 . S
C2521 C2522 1.362 . S
C2522 H2514 0.930 . S
C2522 C2521 1.362 . S
C2522 C2525 1.409 . S
C2523 H2515 0.930 . S
C2523 C2524 1.355 . S
C2523 C2525 1.415 . S
C2524 C2523 1.355 . S
C2524 C2526 1.419 . S
C2525 C2520 1.425 . S
C2525 C2522 1.409 . S
C2525 C2523 1.415 . S
C2526 H2516 0.930 . S
C2526 C2524 1.419 . S
C2526 C2527 1.362 . S
C2527 H2517 0.930 . S
C2527 C2520 1.409 . S
C2527 C2526 1.362 . S
H2528 C2534 0.930 . S
H2529 C2537 0.930 . S
H2530 C2538 0.930 . S
H2531 C2539 0.930 . S
H2532 C2542 0.930 . S
H2533 C2543 0.930 . S
C2534 H2528 0.930 . S
C2534 C2535 1.355 . S
C2534 C2536 1.415 . S
C2535 C2534 1.355 . S
C2535 C2537 1.419 . S
C2536 C2534 1.415 . S
C2536 C2541 1.425 . S
C2536 C2543 1.409 . S
C2537 H2529 0.930 . S
C2537 C2535 1.419 . S
C2537 C2538 1.362 . S
C2538 H2530 0.930 . S
C2538 C2537 1.362 . S
C2538 C2541 1.409 . S
C2539 H2531 0.930 . S
C2539 C2540 1.355 . S
C2539 C2541 1.415 . S
C2540 C2539 1.355 . S
C2540 C2542 1.419 . S
C2541 C2536 1.425 . S
C2541 C2538 1.409 . S
C2541 C2539 1.415 . S
C2542 H2532 0.930 . S
C2542 C2540 1.419 . S
C2542 C2543 1.362 . S
C2543 H2533 0.930 . S
C2543 C2536 1.409 . S
C2543 C2542 1.362 . S
H2544 C2550 0.930 . S
H2545 C2553 0.930 . S
H2546 C2554 0.930 . S
H2547 C2555 0.930 . S
H2548 C2558 0.930 . S
H2549 C2559 0.930 . S
C2550 H2544 0.930 . S
C2550 C2551 1.355 . S
C2550 C2552 1.415 . S
C2551 C2550 1.355 . S
C2551 C2553 1.419 . S
C2552 C2550 1.415 . S
C2552 C2557 1.425 . S
C2552 C2559 1.409 . S
C2553 H2545 0.930 . S
C2553 C2551 1.419 . S
C2553 C2554 1.362 . S
C2554 H2546 0.930 . S
C2554 C2553 1.362 . S
C2554 C2557 1.409 . S
C2555 H2547 0.930 . S
C2555 C2556 1.355 . S
C2555 C2557 1.415 . S
C2556 C2555 1.355 . S
C2556 C2558 1.419 . S
C2557 C2552 1.425 . S
C2557 C2554 1.409 . S
C2557 C2555 1.415 . S
C2558 H2548 0.930 . S
C2558 C2556 1.419 . S
C2558 C2559 1.362 . S
C2559 H2549 0.930 . S
C2559 C2552 1.409 . S
C2559 C2558 1.362 . S
H2560 C2566 0.930 . S
H2561 C2569 0.930 . S
H2562 C2570 0.930 . S
H2563 C2571 0.930 . S
H2564 C2574 0.930 . S
H2565 C2575 0.930 . S
C2566 H2560 0.930 . S
C2566 C2567 1.355 . S
C2566 C2568 1.415 . S
C2567 C2566 1.355 . S
C2567 C2569 1.419 . S
C2568 C2566 1.415 . S
C2568 C2573 1.425 . S
C2568 C2575 1.409 . S
C2569 H2561 0.930 . S
C2569 C2567 1.419 . S
C2569 C2570 1.362 . S
C2570 H2562 0.930 . S
C2570 C2569 1.362 . S
C2570 C2573 1.409 . S
C2571 H2563 0.930 . S
C2571 C2572 1.355 . S
C2571 C2573 1.415 . S
C2572 C2571 1.355 . S
C2572 C2574 1.419 . S
C2573 C2568 1.425 . S
C2573 C2570 1.409 . S
C2573 C2571 1.415 . S
C2574 H2564 0.930 . S
C2574 C2572 1.419 . S
C2574 C2575 1.362 . S
C2575 H2565 0.930 . S
C2575 C2568 1.409 . S
C2575 C2574 1.362 . S
H2576 C2582 0.930 . S
H2577 C2585 0.930 . S
H2578 C2586 0.930 . S
H2579 C2587 0.930 . S
H2580 C2590 0.930 . S
H2581 C2591 0.930 . S
C2582 H2576 0.930 . S
C2582 C2583 1.355 . S
C2582 C2584 1.415 . S
C2583 C2582 1.355 . S
C2583 C2585 1.419 . S
C2584 C2582 1.415 . S
C2584 C2589 1.425 . S
C2584 C2591 1.409 . S
C2585 H2577 0.930 . S
C2585 C2583 1.419 . S
C2585 C2586 1.362 . S
C2586 H2578 0.930 . S
C2586 C2585 1.362 . S
C2586 C2589 1.409 . S
C2587 H2579 0.930 . S
C2587 C2588 1.355 . S
C2587 C2589 1.415 . S
C2588 C2587 1.355 . S
C2588 C2590 1.419 . S
C2589 C2584 1.425 . S
C2589 C2586 1.409 . S
C2589 C2587 1.415 . S
C2590 H2580 0.930 . S
C2590 C2588 1.419 . S
C2590 C2591 1.362 . S
C2591 H2581 0.930 . S
C2591 C2584 1.409 . S
C2591 C2590 1.362 . S
H2592 C2598 0.930 . S
H2593 C2601 0.930 . S
H2594 C2602 0.930 . S
H2595 C2603 0.930 . S
H2596 C2606 0.930 . S
H2597 C2607 0.930 . S
C2598 H2592 0.930 . S
C2598 C2599 1.355 . S
C2598 C2600 1.415 . S
C2599 C2598 1.355 . S
C2599 C2601 1.419 . S
C2600 C2598 1.415 . S
C2600 C2605 1.425 . S
C2600 C2607 1.409 . S
C2601 H2593 0.930 . S
C2601 C2599 1.419 . S
C2601 C2602 1.362 . S
C2602 H2594 0.930 . S
C2602 C2601 1.362 . S
C2602 C2605 1.409 . S
C2603 H2595 0.930 . S
C2603 C2604 1.355 . S
C2603 C2605 1.415 . S
C2604 C2603 1.355 . S
C2604 C2606 1.419 . S
C2605 C2600 1.425 . S
C2605 C2602 1.409 . S
C2605 C2603 1.415 . S
C2606 H2596 0.930 . S
C2606 C2604 1.419 . S
C2606 C2607 1.362 . S
C2607 H2597 0.930 . S
C2607 C2600 1.409 . S
C2607 C2606 1.362 . S
H2608 C2614 0.930 . S
H2609 C2617 0.930 . S
H2610 C2618 0.930 . S
H2611 C2619 0.930 . S
H2612 C2622 0.930 . S
H2613 C2623 0.930 . S
C2614 H2608 0.930 . S
C2614 C2615 1.355 . S
C2614 C2616 1.415 . S
C2615 C2614 1.355 . S
C2615 C2617 1.419 . S
C2616 C2614 1.415 . S
C2616 C2621 1.425 . S
C2616 C2623 1.409 . S
C2617 H2609 0.930 . S
C2617 C2615 1.419 . S
C2617 C2618 1.362 . S
C2618 H2610 0.930 . S
C2618 C2617 1.362 . S
C2618 C2621 1.409 . S
C2619 H2611 0.930 . S
C2619 C2620 1.355 . S
C2619 C2621 1.415 . S
C2620 C2619 1.355 . S
C2620 C2622 1.419 . S
C2621 C2616 1.425 . S
C2621 C2618 1.409 . S
C2621 C2619 1.415 . S
C2622 H2612 0.930 . S
C2622 C2620 1.419 . S
C2622 C2623 1.362 . S
C2623 H2613 0.930 . S
C2623 C2616 1.409 . S
C2623 C2622 1.362 . S
H2624 C2630 0.930 . S
H2625 C2633 0.930 . S
H2626 C2634 0.930 . S
H2627 C2635 0.930 . S
H2628 C2638 0.930 . S
H2629 C2639 0.930 . S
C2630 H2624 0.930 . S
C2630 C2631 1.355 . S
C2630 C2632 1.415 . S
C2631 C2630 1.355 . S
C2631 C2633 1.419 . S
C2632 C2630 1.415 . S
C2632 C2637 1.425 . S
C2632 C2639 1.409 . S
C2633 H2625 0.930 . S
C2633 C2631 1.419 . S
C2633 C2634 1.362 . S
C2634 H2626 0.930 . S
C2634 C2633 1.362 . S
C2634 C2637 1.409 . S
C2635 H2627 0.930 . S
C2635 C2636 1.355 . S
C2635 C2637 1.415 . S
C2636 C2635 1.355 . S
C2636 C2638 1.419 . S
C2637 C2632 1.425 . S
C2637 C2634 1.409 . S
C2637 C2635 1.415 . S
C2638 H2628 0.930 . S
C2638 C2636 1.419 . S
C2638 C2639 1.362 . S
C2639 H2629 0.930 . S
C2639 C2632 1.409 . S
C2639 C2638 1.362 . S
H2640 C2646 0.930 . S
H2641 C2649 0.930 . S
H2642 C2650 0.930 . S
H2643 C2651 0.930 . S
H2644 C2654 0.930 . S
H2645 C2655 0.930 . S
C2646 H2640 0.930 . S
C2646 C2647 1.355 . S
C2646 C2648 1.415 . S
C2647 C2646 1.355 . S
C2647 C2649 1.419 . S
C2648 C2646 1.415 . S
C2648 C2653 1.425 . S
C2648 C2655 1.409 . S
C2649 H2641 0.930 . S
C2649 C2647 1.419 . S
C2649 C2650 1.362 . S
C2650 H2642 0.930 . S
C2650 C2649 1.362 . S
C2650 C2653 1.409 . S
C2651 H2643 0.930 . S
C2651 C2652 1.355 . S
C2651 C2653 1.415 . S
C2652 C2651 1.355 . S
C2652 C2654 1.419 . S
C2653 C2648 1.425 . S
C2653 C2650 1.409 . S
C2653 C2651 1.415 . S
C2654 H2644 0.930 . S
C2654 C2652 1.419 . S
C2654 C2655 1.362 . S
C2655 H2645 0.930 . S
C2655 C2648 1.409 . S
C2655 C2654 1.362 . S
H2656 C2662 0.930 . S
H2657 C2665 0.930 . S
H2658 C2666 0.930 . S
H2659 C2667 0.930 . S
H2660 C2670 0.930 . S
H2661 C2671 0.930 . S
C2662 H2656 0.930 . S
C2662 C2663 1.355 . S
C2662 C2664 1.415 . S
C2663 C2662 1.355 . S
C2663 C2665 1.419 . S
C2664 C2662 1.415 . S
C2664 C2669 1.425 . S
C2664 C2671 1.409 . S
C2665 H2657 0.930 . S
C2665 C2663 1.419 . S
C2665 C2666 1.362 . S
C2666 H2658 0.930 . S
C2666 C2665 1.362 . S
C2666 C2669 1.409 . S
C2667 H2659 0.930 . S
C2667 C2668 1.355 . S
C2667 C2669 1.415 . S
C2668 C2667 1.355 . S
C2668 C2670 1.419 . S
C2669 C2664 1.425 . S
C2669 C2666 1.409 . S
C2669 C2667 1.415 . S
C2670 H2660 0.930 . S
C2670 C2668 1.419 . S
C2670 C2671 1.362 . S
C2671 H2661 0.930 . S
C2671 C2664 1.409 . S
C2671 C2670 1.362 . S
H2672 C2678 0.930 . S
H2673 C2681 0.930 . S
H2674 C2682 0.930 . S
H2675 C2683 0.930 . S
H2676 C2686 0.930 . S
H2677 C2687 0.930 . S
C2678 H2672 0.930 . S
C2678 C2679 1.355 . S
C2678 C2680 1.415 . S
C2679 C2678 1.355 . S
C2679 C2681 1.419 . S
C2680 C2678 1.415 . S
C2680 C2685 1.425 . S
C2680 C2687 1.409 . S
C2681 H2673 0.930 . S
C2681 C2679 1.419 . S
C2681 C2682 1.362 . S
C2682 H2674 0.930 . S
C2682 C2681 1.362 . S
C2682 C2685 1.409 . S
C2683 H2675 0.930 . S
C2683 C2684 1.355 . S
C2683 C2685 1.415 . S
C2684 C2683 1.355 . S
C2684 C2686 1.419 . S
C2685 C2680 1.425 . S
C2685 C2682 1.409 . S
C2685 C2683 1.415 . S
C2686 H2676 0.930 . S
C2686 C2684 1.419 . S
C2686 C2687 1.362 . S
C2687 H2677 0.930 . S
C2687 C2680 1.409 . S
C2687 C2686 1.362 . S
H2688 C2694 0.930 . S
H2689 C2697 0.930 . S
H2690 C2698 0.930 . S
H2691 C2699 0.930 . S
H2692 C2702 0.930 . S
H2693 C2703 0.930 . S
C2694 H2688 0.930 . S
C2694 C2695 1.355 . S
C2694 C2696 1.415 . S
C2695 C2694 1.355 . S
C2695 C2697 1.419 . S
C2696 C2694 1.415 . S
C2696 C2701 1.425 . S
C2696 C2703 1.409 . S
C2697 H2689 0.930 . S
C2697 C2695 1.419 . S
C2697 C2698 1.362 . S
C2698 H2690 0.930 . S
C2698 C2697 1.362 . S
C2698 C2701 1.409 . S
C2699 H2691 0.930 . S
C2699 C2700 1.355 . S
C2699 C2701 1.415 . S
C2700 C2699 1.355 . S
C2700 C2702 1.419 . S
C2701 C2696 1.425 . S
C2701 C2698 1.409 . S
C2701 C2699 1.415 . S
C2702 H2692 0.930 . S
C2702 C2700 1.419 . S
C2702 C2703 1.362 . S
C2703 H2693 0.930 . S
C2703 C2696 1.409 . S
C2703 C2702 1.362 . S
H2704 C2710 0.930 . S
H2705 C2713 0.930 . S
H2706 C2714 0.930 . S
H2707 C2715 0.930 . S
H2708 C2718 0.930 . S
H2709 C2719 0.930 . S
C2710 H2704 0.930 . S
C2710 C2711 1.355 . S
C2710 C2712 1.415 . S
C2711 C2710 1.355 . S
C2711 C2713 1.419 . S
C2712 C2710 1.415 . S
C2712 C2717 1.425 . S
C2712 C2719 1.409 . S
C2713 H2705 0.930 . S
C2713 C2711 1.419 . S
C2713 C2714 1.362 . S
C2714 H2706 0.930 . S
C2714 C2713 1.362 . S
C2714 C2717 1.409 . S
C2715 H2707 0.930 . S
C2715 C2716 1.355 . S
C2715 C2717 1.415 . S
C2716 C2715 1.355 . S
C2716 C2718 1.419 . S
C2717 C2712 1.425 . S
C2717 C2714 1.409 . S
C2717 C2715 1.415 . S
C2718 H2708 0.930 . S
C2718 C2716 1.419 . S
C2718 C2719 1.362 . S
C2719 H2709 0.930 . S
C2719 C2712 1.409 . S
C2719 C2718 1.362 . S
H2720 C2726 0.930 . S
H2721 C2729 0.930 . S
H2722 C2730 0.930 . S
H2723 C2731 0.930 . S
H2724 C2734 0.930 . S
H2725 C2735 0.930 . S
C2726 H2720 0.930 . S
C2726 C2727 1.355 . S
C2726 C2728 1.415 . S
C2727 C2726 1.355 . S
C2727 C2729 1.419 . S
C2728 C2726 1.415 . S
C2728 C2733 1.425 . S
C2728 C2735 1.409 . S
C2729 H2721 0.930 . S
C2729 C2727 1.419 . S
C2729 C2730 1.362 . S
C2730 H2722 0.930 . S
C2730 C2729 1.362 . S
C2730 C2733 1.409 . S
C2731 H2723 0.930 . S
C2731 C2732 1.355 . S
C2731 C2733 1.415 . S
C2732 C2731 1.355 . S
C2732 C2734 1.419 . S
C2733 C2728 1.425 . S
C2733 C2730 1.409 . S
C2733 C2731 1.415 . S
C2734 H2724 0.930 . S
C2734 C2732 1.419 . S
C2734 C2735 1.362 . S
C2735 H2725 0.930 . S
C2735 C2728 1.409 . S
C2735 C2734 1.362 . S
H2736 C2742 0.930 . S
H2737 C2745 0.930 . S
H2738 C2746 0.930 . S
H2739 C2747 0.930 . S
H2740 C2750 0.930 . S
H2741 C2751 0.930 . S
C2742 H2736 0.930 . S
C2742 C2743 1.355 . S
C2742 C2744 1.415 . S
C2743 C2742 1.355 . S
C2743 C2745 1.419 . S
C2744 C2742 1.415 . S
C2744 C2749 1.425 . S
C2744 C2751 1.409 . S
C2745 H2737 0.930 . S
C2745 C2743 1.419 . S
C2745 C2746 1.362 . S
C2746 H2738 0.930 . S
C2746 C2745 1.362 . S
C2746 C2749 1.409 . S
C2747 H2739 0.930 . S
C2747 C2748 1.355 . S
C2747 C2749 1.415 . S
C2748 C2747 1.355 . S
C2748 C2750 1.419 . S
C2749 C2744 1.425 . S
C2749 C2746 1.409 . S
C2749 C2747 1.415 . S
C2750 H2740 0.930 . S
C2750 C2748 1.419 . S
C2750 C2751 1.362 . S
C2751 H2741 0.930 . S
C2751 C2744 1.409 . S
C2751 C2750 1.362 . S
H2752 C2758 0.930 . S
H2753 C2761 0.930 . S
H2754 C2762 0.930 . S
H2755 C2763 0.930 . S
H2756 C2766 0.930 . S
H2757 C2767 0.930 . S
C2758 H2752 0.930 . S
C2758 C2759 1.355 . S
C2758 C2760 1.415 . S
C2759 C2758 1.355 . S
C2759 C2761 1.419 . S
C2760 C2758 1.415 . S
C2760 C2765 1.425 . S
C2760 C2767 1.409 . S
C2761 H2753 0.930 . S
C2761 C2759 1.419 . S
C2761 C2762 1.362 . S
C2762 H2754 0.930 . S
C2762 C2761 1.362 . S
C2762 C2765 1.409 . S
C2763 H2755 0.930 . S
C2763 C2764 1.355 . S
C2763 C2765 1.415 . S
C2764 C2763 1.355 . S
C2764 C2766 1.419 . S
C2765 C2760 1.425 . S
C2765 C2762 1.409 . S
C2765 C2763 1.415 . S
C2766 H2756 0.930 . S
C2766 C2764 1.419 . S
C2766 C2767 1.362 . S
C2767 H2757 0.930 . S
C2767 C2760 1.409 . S
C2767 C2766 1.362 . S
H2768 C2774 0.930 . S
H2769 C2777 0.930 . S
H2770 C2778 0.930 . S
H2771 C2779 0.930 . S
H2772 C2782 0.930 . S
H2773 C2783 0.930 . S
C2774 H2768 0.930 . S
C2774 C2775 1.355 . S
C2774 C2776 1.415 . S
C2775 C2774 1.355 . S
C2775 C2777 1.419 . S
C2776 C2774 1.415 . S
C2776 C2781 1.425 . S
C2776 C2783 1.409 . S
C2777 H2769 0.930 . S
C2777 C2775 1.419 . S
C2777 C2778 1.362 . S
C2778 H2770 0.930 . S
C2778 C2777 1.362 . S
C2778 C2781 1.409 . S
C2779 H2771 0.930 . S
C2779 C2780 1.355 . S
C2779 C2781 1.415 . S
C2780 C2779 1.355 . S
C2780 C2782 1.419 . S
C2781 C2776 1.425 . S
C2781 C2778 1.409 . S
C2781 C2779 1.415 . S
C2782 H2772 0.930 . S
C2782 C2780 1.419 . S
C2782 C2783 1.362 . S
C2783 H2773 0.930 . S
C2783 C2776 1.409 . S
C2783 C2782 1.362 . S
H2784 C2790 0.930 . S
H2785 C2793 0.930 . S
H2786 C2794 0.930 . S
H2787 C2795 0.930 . S
H2788 C2798 0.930 . S
H2789 C2799 0.930 . S
C2790 H2784 0.930 . S
C2790 C2791 1.355 . S
C2790 C2792 1.415 . S
C2791 C2790 1.355 . S
C2791 C2793 1.419 . S
C2792 C2790 1.415 . S
C2792 C2797 1.425 1_455 S
C2792 C2799 1.409 1_455 S
C2793 H2785 0.930 . S
C2793 C2791 1.419 . S
C2793 C2794 1.362 . S
C2794 H2786 0.930 . S
C2794 C2793 1.362 . S
C2794 C2797 1.409 1_455 S
C2795 H2787 0.930 . S
C2795 C2796 1.355 . S
C2795 C2797 1.415 . S
C2796 C2795 1.355 . S
C2796 C2798 1.419 . S
C2797 C2792 1.425 1_655 S
C2797 C2794 1.409 1_655 S
C2797 C2795 1.415 . S
C2798 H2788 0.930 . S
C2798 C2796 1.419 . S
C2798 C2799 1.362 . S
C2799 H2789 0.930 . S
C2799 C2792 1.409 1_655 S
C2799 C2798 1.362 . S
H2800 C2806 0.930 . S
H2801 C2809 0.930 . S
H2802 C2810 0.930 . S
H2803 C2811 0.930 . S
H2804 C2814 0.930 . S
H2805 C2815 0.930 . S
C2806 H2800 0.930 . S
C2806 C2807 1.355 . S
C2806 C2808 1.415 . S
C2807 C2806 1.355 . S
C2807 C2809 1.419 . S
C2808 C2806 1.415 . S
C2808 C2813 1.425 1_565 S
C2808 C2815 1.409 1_565 S
C2809 H2801 0.930 . S
C2809 C2807 1.419 . S
C2809 C2810 1.362 . S
C2810 H2802 0.930 . S
C2810 C2809 1.362 . S
C2810 C2813 1.409 1_565 S
C2811 H2803 0.930 . S
C2811 C2812 1.355 . S
C2811 C2813 1.415 . S
C2812 C2811 1.355 . S
C2812 C2814 1.419 . S
C2813 C2808 1.425 1_545 S
C2813 C2810 1.409 1_545 S
C2813 C2811 1.415 . S
C2814 H2804 0.930 . S
C2814 C2812 1.419 . S
C2814 C2815 1.362 . S
C2815 H2805 0.930 . S
C2815 C2808 1.409 1_545 S
C2815 C2814 1.362 . S
H2816 C2822 0.930 . S
H2817 C2825 0.930 . S
H2818 C2826 0.930 . S
H2819 C2827 0.930 . S
H2820 C2830 0.930 . S
H2821 C2831 0.930 . S
C2822 H2816 0.930 . S
C2822 C2823 1.355 . S
C2822 C2824 1.415 . S
C2823 C2822 1.355 . S
C2823 C2825 1.419 . S
C2824 C2822 1.415 . S
C2824 C2829 1.425 1_655 S
C2824 C2831 1.409 1_655 S
C2825 H2817 0.930 . S
C2825 C2823 1.419 . S
C2825 C2826 1.362 . S
C2826 H2818 0.930 . S
C2826 C2825 1.362 . S
C2826 C2829 1.409 1_655 S
C2827 H2819 0.930 . S
C2827 C2828 1.355 . S
C2827 C2829 1.415 . S
C2828 C2827 1.355 . S
C2828 C2830 1.419 . S
C2829 C2824 1.425 1_455 S
C2829 C2826 1.409 1_455 S
C2829 C2827 1.415 . S
C2830 H2820 0.930 . S
C2830 C2828 1.419 . S
C2830 C2831 1.362 . S
C2831 H2821 0.930 . S
C2831 C2824 1.409 1_455 S
C2831 C2830 1.362 . S
H2832 C2838 0.930 . S
H2833 C2841 0.930 . S
H2834 C2842 0.930 . S
H2835 C2843 0.930 . S
H2836 C2846 0.930 . S
H2837 C2847 0.930 . S
C2838 H2832 0.930 . S
C2838 C2839 1.355 . S
C2838 C2840 1.415 . S
C2839 C2838 1.355 . S
C2839 C2841 1.419 . S
C2840 C2838 1.415 . S
C2840 C2845 1.425 1_545 S
C2840 C2847 1.409 1_545 S
C2841 H2833 0.930 . S
C2841 C2839 1.419 . S
C2841 C2842 1.362 . S
C2842 H2834 0.930 . S
C2842 C2841 1.362 . S
C2842 C2845 1.409 1_545 S
C2843 H2835 0.930 . S
C2843 C2844 1.355 . S
C2843 C2845 1.415 . S
C2844 C2843 1.355 . S
C2844 C2846 1.419 . S
C2845 C2840 1.425 1_565 S
C2845 C2842 1.409 1_565 S
C2845 C2843 1.415 . S
C2846 H2836 0.930 . S
C2846 C2844 1.419 . S
C2846 C2847 1.362 . S
C2847 H2837 0.930 . S
C2847 C2840 1.409 1_565 S
C2847 C2846 1.362 . S
H2848 C2854 0.930 . S
H2849 C2857 0.930 . S
H2850 C2858 0.930 . S
H2851 C2859 0.930 . S
H2852 C2862 0.930 . S
H2853 C2863 0.930 . S
C2854 H2848 0.930 . S
C2854 C2855 1.355 . S
C2854 C2856 1.415 . S
C2855 C2854 1.355 . S
C2855 C2857 1.419 . S
C2856 C2854 1.415 . S
C2856 C2861 1.425 1_455 S
C2856 C2863 1.409 1_455 S
C2857 H2849 0.930 . S
C2857 C2855 1.419 . S
C2857 C2858 1.362 . S
C2858 H2850 0.930 . S
C2858 C2857 1.362 . S
C2858 C2861 1.409 1_455 S
C2859 H2851 0.930 . S
C2859 C2860 1.355 . S
C2859 C2861 1.415 . S
C2860 C2859 1.355 . S
C2860 C2862 1.419 . S
C2861 C2856 1.425 1_655 S
C2861 C2858 1.409 1_655 S
C2861 C2859 1.415 . S
C2862 H2852 0.930 . S
C2862 C2860 1.419 . S
C2862 C2863 1.362 . S
C2863 H2853 0.930 . S
C2863 C2856 1.409 1_655 S
C2863 C2862 1.362 . S
H2864 C2870 0.930 . S
H2865 C2873 0.930 . S
H2866 C2874 0.930 . S
H2867 C2875 0.930 . S
H2868 C2878 0.930 . S
H2869 C2879 0.930 . S
C2870 H2864 0.930 . S
C2870 C2871 1.355 . S
C2870 C2872 1.415 . S
C2871 C2870 1.355 . S
C2871 C2873 1.419 . S
C2872 C2870 1.415 . S
C2872 C2877 1.425 1_545 S
C2872 C2879 1.409 1_545 S
C2873 H2865 0.930 . S
C2873 C2871 1.419 . S
C2873 C2874 1.362 . S
C2874 H2866 0.930 . S
C2874 C2873 1.362 . S
C2874 C2877 1.409 1_545 S
C2875 H2867 0.930 . S
C2875 C2876 1.355 . S
C2875 C2877 1.415 . S
C2876 C2875 1.355 . S
C2876 C2878 1.419 . S
C2877 C2872 1.425 1_565 S
C2877 C2874 1.409 1_565 S
C2877 C2875 1.415 . S
C2878 H2868 0.930 . S
C2878 C2876 1.419 . S
C2878 C2879 1.362 . S
C2879 H2869 0.930 . S
C2879 C2872 1.409 1_565 S
C2879 C2878 1.362 . S
H2880 C2886 0.930 . S
H2881 C2889 0.930 . S
H2882 C2890 0.930 . S
H2883 C2891 0.930 . S
H2884 C2894 0.930 . S
H2885 C2895 0.930 . S
C2886 H2880 0.930 . S
C2886 C2887 1.355 . S
C2886 C2888 1.415 . S
C2887 C2886 1.355 . S
C2887 C2889 1.419 . S
C2888 C2886 1.415 . S
C2888 C2893 1.425 1_655 S
C2888 C2895 1.409 1_655 S
C2889 H2881 0.930 . S
C2889 C2887 1.419 . S
C2889 C2890 1.362 . S
C2890 H2882 0.930 . S
C2890 C2889 1.362 . S
C2890 C2893 1.409 1_655 S
C2891 H2883 0.930 . S
C2891 C2892 1.355 . S
C2891 C2893 1.415 . S
C2892 C2891 1.355 . S
C2892 C2894 1.419 . S
C2893 C2888 1.425 1_455 S
C2893 C2890 1.409 1_455 S
C2893 C2891 1.415 . S
C2894 H2884 0.930 . S
C2894 C2892 1.419 . S
C2894 C2895 1.362 . S
C2895 H2885 0.930 . S
C2895 C2888 1.409 1_455 S
C2895 C2894 1.362 . S
H2896 C2902 0.930 . S
H2897 C2905 0.930 . S
H2898 C2906 0.930 . S
H2899 C2907 0.930 . S
H2900 C2910 0.930 . S
H2901 C2911 0.930 . S
C2902 H2896 0.930 . S
C2902 C2903 1.355 . S
C2902 C2904 1.415 . S
C2903 C2902 1.355 . S
C2903 C2905 1.419 . S
C2904 C2902 1.415 . S
C2904 C2909 1.425 1_545 S
C2904 C2911 1.409 1_545 S
C2905 H2897 0.930 . S
C2905 C2903 1.419 . S
C2905 C2906 1.362 . S
C2906 H2898 0.930 . S
C2906 C2905 1.362 . S
C2906 C2909 1.409 1_545 S
C2907 H2899 0.930 . S
C2907 C2908 1.355 . S
C2907 C2909 1.415 . S
C2908 C2907 1.355 . S
C2908 C2910 1.419 . S
C2909 C2904 1.425 1_565 S
C2909 C2906 1.409 1_565 S
C2909 C2907 1.415 . S
C2910 H2900 0.930 . S
C2910 C2908 1.419 . S
C2910 C2911 1.362 . S
C2911 H2901 0.930 . S
C2911 C2904 1.409 1_565 S
C2911 C2910 1.362 . S
H2912 C2918 0.930 . S
H2913 C2921 0.930 . S
H2914 C2922 0.930 . S
H2915 C2923 0.930 . S
H2916 C2926 0.930 . S
H2917 C2927 0.930 . S
C2918 H2912 0.930 . S
C2918 C2919 1.355 . S
C2918 C2920 1.415 . S
C2919 C2918 1.355 . S
C2919 C2921 1.419 . S
C2920 C2918 1.415 . S
C2920 C2925 1.425 1_565 S
C2920 C2927 1.409 1_565 S
C2921 H2913 0.930 . S
C2921 C2919 1.419 . S
C2921 C2922 1.362 . S
C2922 H2914 0.930 . S
C2922 C2921 1.362 . S
C2922 C2925 1.409 1_565 S
C2923 H2915 0.930 . S
C2923 C2924 1.355 . S
C2923 C2925 1.415 . S
C2924 C2923 1.355 . S
C2924 C2926 1.419 . S
C2925 C2920 1.425 1_545 S
C2925 C2922 1.409 1_545 S
C2925 C2923 1.415 . S
C2926 H2916 0.930 . S
C2926 C2924 1.419 . S
C2926 C2927 1.362 . S
C2927 H2917 0.930 . S
C2927 C2920 1.409 1_545 S
C2927 C2926 1.362 . S
H2928 C2934 0.930 . S
H2929 C2937 0.930 . S
H2930 C2938 0.930 . S
H2931 C2939 0.930 . S
H2932 C2942 0.930 . S
H2933 C2943 0.930 . S
C2934 H2928 0.930 . S
C2934 C2935 1.355 . S
C2934 C2936 1.415 . S
C2935 C2934 1.355 . S
C2935 C2937 1.419 . S
C2936 C2934 1.415 . S
C2936 C2941 1.425 1_655 S
C2936 C2943 1.409 1_655 S
C2937 H2929 0.930 . S
C2937 C2935 1.419 . S
C2937 C2938 1.362 . S
C2938 H2930 0.930 . S
C2938 C2937 1.362 . S
C2938 C2941 1.409 1_655 S
C2939 H2931 0.930 . S
C2939 C2940 1.355 . S
C2939 C2941 1.415 . S
C2940 C2939 1.355 . S
C2940 C2942 1.419 . S
C2941 C2936 1.425 1_455 S
C2941 C2938 1.409 1_455 S
C2941 C2939 1.415 . S
C2942 H2932 0.930 . S
C2942 C2940 1.419 . S
C2942 C2943 1.362 . S
C2943 H2933 0.930 . S
C2943 C2936 1.409 1_455 S
C2943 C2942 1.362 . S
H2944 C2950 0.930 . S
H2945 C2953 0.930 . S
H2946 C2954 0.930 . S
H2947 C2955 0.930 . S
H2948 C2958 0.930 . S
H2949 C2959 0.930 . S
C2950 H2944 0.930 . S
C2950 C2951 1.355 . S
C2950 C2952 1.415 . S
C2951 C2950 1.355 . S
C2951 C2953 1.419 . S
C2952 C2950 1.415 . S
C2952 C2957 1.425 1_565 S
C2952 C2959 1.409 1_565 S
C2953 H2945 0.930 . S
C2953 C2951 1.419 . S
C2953 C2954 1.362 . S
C2954 H2946 0.930 . S
C2954 C2953 1.362 . S
C2954 C2957 1.409 1_565 S
C2955 H2947 0.930 . S
C2955 C2956 1.355 . S
C2955 C2957 1.415 . S
C2956 C2955 1.355 . S
C2956 C2958 1.419 . S
C2957 C2952 1.425 1_545 S
C2957 C2954 1.409 1_545 S
C2957 C2955 1.415 . S
C2958 H2948 0.930 . S
C2958 C2956 1.419 . S
C2958 C2959 1.362 . S
C2959 H2949 0.930 . S
C2959 C2952 1.409 1_545 S
C2959 C2958 1.362 . S
H2960 C2966 0.930 . S
H2961 C2969 0.930 . S
H2962 C2970 0.930 . S
H2963 C2971 0.930 . S
H2964 C2974 0.930 . S
H2965 C2975 0.930 . S
C2966 H2960 0.930 . S
C2966 C2967 1.355 . S
C2966 C2968 1.415 . S
C2967 C2966 1.355 . S
C2967 C2969 1.419 . S
C2968 C2966 1.415 . S
C2968 C2973 1.425 1_455 S
C2968 C2975 1.409 1_455 S
C2969 H2961 0.930 . S
C2969 C2967 1.419 . S
C2969 C2970 1.362 . S
C2970 H2962 0.930 . S
C2970 C2969 1.362 . S
C2970 C2973 1.409 1_455 S
C2971 H2963 0.930 . S
C2971 C2972 1.355 . S
C2971 C2973 1.415 . S
C2972 C2971 1.355 . S
C2972 C2974 1.419 . S
C2973 C2968 1.425 1_655 S
C2973 C2970 1.409 1_655 S
C2973 C2971 1.415 . S
C2974 H2964 0.930 . S
C2974 C2972 1.419 . S
C2974 C2975 1.362 . S
C2975 H2965 0.930 . S
C2975 C2968 1.409 1_655 S
C2975 C2974 1.362 . S
H2976 C2982 0.930 . S
H2977 C2985 0.930 . S
H2978 C2986 0.930 . S
H2979 C2987 0.930 . S
H2980 C2990 0.930 . S
H2981 C2991 0.930 . S
C2982 H2976 0.930 . S
C2982 C2983 1.355 . S
C2982 C2984 1.415 . S
C2983 C2982 1.355 . S
C2983 C2985 1.419 . S
C2984 C2982 1.415 . S
C2984 C2989 1.425 1_565 S
C2984 C2991 1.409 1_565 S
C2985 H2977 0.930 . S
C2985 C2983 1.419 . S
C2985 C2986 1.362 . S
C2986 H2978 0.930 . S
C2986 C2985 1.362 . S
C2986 C2989 1.409 1_565 S
C2987 H2979 0.930 . S
C2987 C2988 1.355 . S
C2987 C2989 1.415 . S
C2988 C2987 1.355 . S
C2988 C2990 1.419 . S
C2989 C2984 1.425 1_545 S
C2989 C2986 1.409 1_545 S
C2989 C2987 1.415 . S
C2990 H2980 0.930 . S
C2990 C2988 1.419 . S
C2990 C2991 1.362 . S
C2991 H2981 0.930 . S
C2991 C2984 1.409 1_545 S
C2991 C2990 1.362 . S
H2992 C2998 0.930 . S
H2993 C3001 0.930 . S
H2994 C3002 0.930 . S
H2995 C3003 0.930 . S
H2996 C3006 0.930 . S
H2997 C3007 0.930 . S
C2998 H2992 0.930 . S
C2998 C2999 1.355 . S
C2998 C3000 1.415 . S
C2999 C2998 1.355 . S
C2999 C3001 1.419 . S
C3000 C2998 1.415 . S
C3000 C3005 1.425 1_455 S
C3000 C3007 1.409 1_455 S
C3001 H2993 0.930 . S
C3001 C2999 1.419 . S
C3001 C3002 1.362 . S
C3002 H2994 0.930 . S
C3002 C3001 1.362 . S
C3002 C3005 1.409 1_455 S
C3003 H2995 0.930 . S
C3003 C3004 1.355 . S
C3003 C3005 1.415 . S
C3004 C3003 1.355 . S
C3004 C3006 1.419 . S
C3005 C3000 1.425 1_655 S
C3005 C3002 1.409 1_655 S
C3005 C3003 1.415 . S
C3006 H2996 0.930 . S
C3006 C3004 1.419 . S
C3006 C3007 1.362 . S
C3007 H2997 0.930 . S
C3007 C3000 1.409 1_655 S
C3007 C3006 1.362 . S
H3008 C3014 0.930 . S
H3009 C3017 0.930 . S
H3010 C3018 0.930 . S
H3011 C3019 0.930 . S
H3012 C3022 0.930 . S
H3013 C3023 0.930 . S
C3014 H3008 0.930 . S
C3014 C3015 1.355 . S
C3014 C3016 1.415 . S
C3015 C3014 1.355 . S
C3015 C3017 1.419 . S
C3016 C3014 1.415 . S
C3016 C3021 1.425 1_545 S
C3016 C3023 1.409 1_545 S
C3017 H3009 0.930 . S
C3017 C3015 1.419 . S
C3017 C3018 1.362 . S
C3018 H3010 0.930 . S
C3018 C3017 1.362 . S
C3018 C3021 1.409 1_545 S
C3019 H3011 0.930 . S
C3019 C3020 1.355 . S
C3019 C3021 1.415 . S
C3020 C3019 1.355 . S
C3020 C3022 1.419 . S
C3021 C3016 1.425 1_565 S
C3021 C3018 1.409 1_565 S
C3021 C3019 1.415 . S
C3022 H3012 0.930 . S
C3022 C3020 1.419 . S
C3022 C3023 1.362 . S
C3023 H3013 0.930 . S
C3023 C3016 1.409 1_565 S
C3023 C3022 1.362 . S
H3024 C3030 0.930 . S
H3025 C3033 0.930 . S
H3026 C3034 0.930 . S
H3027 C3035 0.930 . S
H3028 C3038 0.930 . S
H3029 C3039 0.930 . S
C3030 H3024 0.930 . S
C3030 C3031 1.355 . S
C3030 C3032 1.415 . S
C3031 C3030 1.355 . S
C3031 C3033 1.419 . S
C3032 C3030 1.415 . S
C3032 C3037 1.425 1_655 S
C3032 C3039 1.409 1_655 S
C3033 H3025 0.930 . S
C3033 C3031 1.419 . S
C3033 C3034 1.362 . S
C3034 H3026 0.930 . S
C3034 C3033 1.362 . S
C3034 C3037 1.409 1_655 S
C3035 H3027 0.930 . S
C3035 C3036 1.355 . S
C3035 C3037 1.415 . S
C3036 C3035 1.355 . S
C3036 C3038 1.419 . S
C3037 C3032 1.425 1_455 S
C3037 C3034 1.409 1_455 S
C3037 C3035 1.415 . S
C3038 H3028 0.930 . S
C3038 C3036 1.419 . S
C3038 C3039 1.362 . S
C3039 H3029 0.930 . S
C3039 C3032 1.409 1_455 S
C3039 C3038 1.362 . S
H3040 C3046 0.930 . S
H3041 C3049 0.930 . S
H3042 C3050 0.930 . S
H3043 C3051 0.930 . S
H3044 C3054 0.930 . S
H3045 C3055 0.930 . S
C3046 H3040 0.930 . S
C3046 C3047 1.355 . S
C3046 C3048 1.415 . S
C3047 C3046 1.355 . S
C3047 C3049 1.419 . S
C3048 C3046 1.415 . S
C3048 C3053 1.425 1_554 S
C3048 C3055 1.409 1_554 S
C3049 H3041 0.930 . S
C3049 C3047 1.419 . S
C3049 C3050 1.362 . S
C3050 H3042 0.930 . S
C3050 C3049 1.362 . S
C3050 C3053 1.409 1_554 S
C3051 H3043 0.930 . S
C3051 C3052 1.355 . S
C3051 C3053 1.415 . S
C3052 C3051 1.355 . S
C3052 C3054 1.419 . S
C3053 C3048 1.425 1_556 S
C3053 C3050 1.409 1_556 S
C3053 C3051 1.415 . S
C3054 H3044 0.930 . S
C3054 C3052 1.419 . S
C3054 C3055 1.362 . S
C3055 H3045 0.930 . S
C3055 C3048 1.409 1_556 S
C3055 C3054 1.362 . S
H3056 C3062 0.930 . S
H3057 C3065 0.930 . S
H3058 C3066 0.930 . S
H3059 C3067 0.930 . S
H3060 C3070 0.930 . S
H3061 C3071 0.930 . S
C3062 H3056 0.930 . S
C3062 C3063 1.355 . S
C3062 C3064 1.415 . S
C3063 C3062 1.355 . S
C3063 C3065 1.419 . S
C3064 C3062 1.415 . S
C3064 C3069 1.425 1_556 S
C3064 C3071 1.409 1_556 S
C3065 H3057 0.930 . S
C3065 C3063 1.419 . S
C3065 C3066 1.362 . S
C3066 H3058 0.930 . S
C3066 C3065 1.362 . S
C3066 C3069 1.409 1_556 S
C3067 H3059 0.930 . S
C3067 C3068 1.355 . S
C3067 C3069 1.415 . S
C3068 C3067 1.355 . S
C3068 C3070 1.419 . S
C3069 C3064 1.425 1_554 S
C3069 C3066 1.409 1_554 S
C3069 C3067 1.415 . S
C3070 H3060 0.930 . S
C3070 C3068 1.419 . S
C3070 C3071 1.362 . S
C3071 H3061 0.930 . S
C3071 C3064 1.409 1_554 S
C3071 C3070 1.362 . S
H3072 C3078 0.930 . S
H3073 C3081 0.930 . S
H3074 C3082 0.930 . S
H3075 C3083 0.930 . S
H3076 C3086 0.930 . S
H3077 C3087 0.930 . S
C3078 H3072 0.930 . S
C3078 C3079 1.355 . S
C3078 C3080 1.415 . S
C3079 C3078 1.355 . S
C3079 C3081 1.419 . S
C3080 C3078 1.415 . S
C3080 C3085 1.425 1_554 S
C3080 C3087 1.409 1_554 S
C3081 H3073 0.930 . S
C3081 C3079 1.419 . S
C3081 C3082 1.362 . S
C3082 H3074 0.930 . S
C3082 C3081 1.362 . S
C3082 C3085 1.409 1_554 S
C3083 H3075 0.930 . S
C3083 C3084 1.355 . S
C3083 C3085 1.415 . S
C3084 C3083 1.355 . S
C3084 C3086 1.419 . S
C3085 C3080 1.425 1_556 S
C3085 C3082 1.409 1_556 S
C3085 C3083 1.415 . S
C3086 H3076 0.930 . S
C3086 C3084 1.419 . S
C3086 C3087 1.362 . S
C3087 H3077 0.930 . S
C3087 C3080 1.409 1_556 S
C3087 C3086 1.362 . S
H3088 C3094 0.930 . S
H3089 C3097 0.930 . S
H3090 C3098 0.930 . S
H3091 C3099 0.930 . S
H3092 C3102 0.930 . S
H3093 C3103 0.930 . S
C3094 H3088 0.930 . S
C3094 C3095 1.355 . S
C3094 C3096 1.415 . S
C3095 C3094 1.355 . S
C3095 C3097 1.419 . S
C3096 C3094 1.415 . S
C3096 C3101 1.425 1_556 S
C3096 C3103 1.409 1_556 S
C3097 H3089 0.930 . S
C3097 C3095 1.419 . S
C3097 C3098 1.362 . S
C3098 H3090 0.930 . S
C3098 C3097 1.362 . S
C3098 C3101 1.409 1_556 S
C3099 H3091 0.930 . S
C3099 C3100 1.355 . S
C3099 C3101 1.415 . S
C3100 C3099 1.355 . S
C3100 C3102 1.419 . S
C3101 C3096 1.425 1_554 S
C3101 C3098 1.409 1_554 S
C3101 C3099 1.415 . S
C3102 H3092 0.930 . S
C3102 C3100 1.419 . S
C3102 C3103 1.362 . S
C3103 H3093 0.930 . S
C3103 C3096 1.409 1_554 S
C3103 C3102 1.362 . S
H3104 C3110 0.930 . S
H3105 C3113 0.930 . S
H3106 C3114 0.930 . S
H3107 C3115 0.930 . S
H3108 C3118 0.930 . S
H3109 C3119 0.930 . S
C3110 H3104 0.930 . S
C3110 C3111 1.355 . S
C3110 C3112 1.415 . S
C3111 C3110 1.355 . S
C3111 C3113 1.419 . S
C3112 C3110 1.415 . S
C3112 C3117 1.425 1_554 S
C3112 C3119 1.409 1_554 S
C3113 H3105 0.930 . S
C3113 C3111 1.419 . S
C3113 C3114 1.362 . S
C3114 H3106 0.930 . S
C3114 C3113 1.362 . S
C3114 C3117 1.409 1_554 S
C3115 H3107 0.930 . S
C3115 C3116 1.355 . S
C3115 C3117 1.415 . S
C3116 C3115 1.355 . S
C3116 C3118 1.419 . S
C3117 C3112 1.425 1_556 S
C3117 C3114 1.409 1_556 S
C3117 C3115 1.415 . S
C3118 H3108 0.930 . S
C3118 C3116 1.419 . S
C3118 C3119 1.362 . S
C3119 H3109 0.930 . S
C3119 C3112 1.409 1_556 S
C3119 C3118 1.362 . S
H3120 C3126 0.930 . S
H3121 C3129 0.930 . S
H3122 C3130 0.930 . S
H3123 C3131 0.930 . S
H3124 C3134 0.930 . S
H3125 C3135 0.930 . S
C3126 H3120 0.930 . S
C3126 C3127 1.355 . S
C3126 C3128 1.415 . S
C3127 C3126 1.355 . S
C3127 C3129 1.419 . S
C3128 C3126 1.415 . S
C3128 C3133 1.425 1_554 S
C3128 C3135 1.409 1_554 S
C3129 H3121 0.930 . S
C3129 C3127 1.419 . S
C3129 C3130 1.362 . S
C3130 H3122 0.930 . S
C3130 C3129 1.362 . S
C3130 C3133 1.409 1_554 S
C3131 H3123 0.930 . S
C3131 C3132 1.355 . S
C3131 C3133 1.415 . S
C3132 C3131 1.355 . S
C3132 C3134 1.419 . S
C3133 C3128 1.425 1_556 S
C3133 C3130 1.409 1_556 S
C3133 C3131 1.415 . S
C3134 H3124 0.930 . S
C3134 C3132 1.419 . S
C3134 C3135 1.362 . S
C3135 H3125 0.930 . S
C3135 C3128 1.409 1_556 S
C3135 C3134 1.362 . S
H3136 C3142 0.930 . S
H3137 C3145 0.930 . S
H3138 C3146 0.930 . S
H3139 C3147 0.930 . S
H3140 C3150 0.930 . S
H3141 C3151 0.930 . S
C3142 H3136 0.930 . S
C3142 C3143 1.355 . S
C3142 C3144 1.415 . S
C3143 C3142 1.355 . S
C3143 C3145 1.419 . S
C3144 C3142 1.415 . S
C3144 C3149 1.425 1_554 S
C3144 C3151 1.409 1_554 S
C3145 H3137 0.930 . S
C3145 C3143 1.419 . S
C3145 C3146 1.362 . S
C3146 H3138 0.930 . S
C3146 C3145 1.362 . S
C3146 C3149 1.409 1_554 S
C3147 H3139 0.930 . S
C3147 C3148 1.355 . S
C3147 C3149 1.415 . S
C3148 C3147 1.355 . S
C3148 C3150 1.419 . S
C3149 C3144 1.425 1_556 S
C3149 C3146 1.409 1_556 S
C3149 C3147 1.415 . S
C3150 H3140 0.930 . S
C3150 C3148 1.419 . S
C3150 C3151 1.362 . S
C3151 H3141 0.930 . S
C3151 C3144 1.409 1_556 S
C3151 C3150 1.362 . S
H3152 C3158 0.930 . S
H3153 C3161 0.930 . S
H3154 C3162 0.930 . S
H3155 C3163 0.930 . S
H3156 C3166 0.930 . S
H3157 C3167 0.930 . S
C3158 H3152 0.930 . S
C3158 C3159 1.355 . S
C3158 C3160 1.415 . S
C3159 C3158 1.355 . S
C3159 C3161 1.419 . S
C3160 C3158 1.415 . S
C3160 C3165 1.425 1_556 S
C3160 C3167 1.409 1_556 S
C3161 H3153 0.930 . S
C3161 C3159 1.419 . S
C3161 C3162 1.362 . S
C3162 H3154 0.930 . S
C3162 C3161 1.362 . S
C3162 C3165 1.409 1_556 S
C3163 H3155 0.930 . S
C3163 C3164 1.355 . S
C3163 C3165 1.415 . S
C3164 C3163 1.355 . S
C3164 C3166 1.419 . S
C3165 C3160 1.425 1_554 S
C3165 C3162 1.409 1_554 S
C3165 C3163 1.415 . S
C3166 H3156 0.930 . S
C3166 C3164 1.419 . S
C3166 C3167 1.362 . S
C3167 H3157 0.930 . S
C3167 C3160 1.409 1_554 S
C3167 C3166 1.362 . S
H3168 C3174 0.930 . S
H3169 C3177 0.930 . S
H3170 C3178 0.930 . S
H3171 C3179 0.930 . S
H3172 C3182 0.930 . S
H3173 C3183 0.930 . S
C3174 H3168 0.930 . S
C3174 C3175 1.355 . S
C3174 C3176 1.415 . S
C3175 C3174 1.355 . S
C3175 C3177 1.419 . S
C3176 C3174 1.415 . S
C3176 C3181 1.425 . S
C3176 C3183 1.409 . S
C3177 H3169 0.930 . S
C3177 C3175 1.419 . S
C3177 C3178 1.362 . S
C3178 H3170 0.930 . S
C3178 C3177 1.362 . S
C3178 C3181 1.409 . S
C3179 H3171 0.930 . S
C3179 C3180 1.355 . S
C3179 C3181 1.415 . S
C3180 C3179 1.355 . S
C3180 C3182 1.419 . S
C3181 C3176 1.425 . S
C3181 C3178 1.409 . S
C3181 C3179 1.415 . S
C3182 H3172 0.930 . S
C3182 C3180 1.419 . S
C3182 C3183 1.362 . S
C3183 H3173 0.930 . S
C3183 C3176 1.409 . S
C3183 C3182 1.362 . S
H3184 C3190 0.930 . S
H3185 C3193 0.930 . S
H3186 C3194 0.930 . S
H3187 C3195 0.930 . S
H3188 C3198 0.930 . S
H3189 C3199 0.930 . S
C3190 H3184 0.930 . S
C3190 C3191 1.355 . S
C3190 C3192 1.415 . S
C3191 C3190 1.355 . S
C3191 C3193 1.419 . S
C3192 C3190 1.415 . S
C3192 C3197 1.425 . S
C3192 C3199 1.409 . S
C3193 H3185 0.930 . S
C3193 C3191 1.419 . S
C3193 C3194 1.362 . S
C3194 H3186 0.930 . S
C3194 C3193 1.362 . S
C3194 C3197 1.409 . S
C3195 H3187 0.930 . S
C3195 C3196 1.355 . S
C3195 C3197 1.415 . S
C3196 C3195 1.355 . S
C3196 C3198 1.419 . S
C3197 C3192 1.425 . S
C3197 C3194 1.409 . S
C3197 C3195 1.415 . S
C3198 H3188 0.930 . S
C3198 C3196 1.419 . S
C3198 C3199 1.362 . S
C3199 H3189 0.930 . S
C3199 C3192 1.409 . S
C3199 C3198 1.362 . S
H3200 C3206 0.930 . S
H3201 C3209 0.930 . S
H3202 C3210 0.930 . S
H3203 C3211 0.930 . S
H3204 C3214 0.930 . S
H3205 C3215 0.930 . S
C3206 H3200 0.930 . S
C3206 C3207 1.355 . S
C3206 C3208 1.415 . S
C3207 C3206 1.355 . S
C3207 C3209 1.419 . S
C3208 C3206 1.415 . S
C3208 C3213 1.425 . S
C3208 C3215 1.409 . S
C3209 H3201 0.930 . S
C3209 C3207 1.419 . S
C3209 C3210 1.362 . S
C3210 H3202 0.930 . S
C3210 C3209 1.362 . S
C3210 C3213 1.409 . S
C3211 H3203 0.930 . S
C3211 C3212 1.355 . S
C3211 C3213 1.415 . S
C3212 C3211 1.355 . S
C3212 C3214 1.419 . S
C3213 C3208 1.425 . S
C3213 C3210 1.409 . S
C3213 C3211 1.415 . S
C3214 H3204 0.930 . S
C3214 C3212 1.419 . S
C3214 C3215 1.362 . S
C3215 H3205 0.930 . S
C3215 C3208 1.409 . S
C3215 C3214 1.362 . S
H3216 C3222 0.930 . S
H3217 C3225 0.930 . S
H3218 C3226 0.930 . S
H3219 C3227 0.930 . S
H3220 C3230 0.930 . S
H3221 C3231 0.930 . S
C3222 H3216 0.930 . S
C3222 C3223 1.355 . S
C3222 C3224 1.415 . S
C3223 C3222 1.355 . S
C3223 C3225 1.419 . S
C3224 C3222 1.415 . S
C3224 C3229 1.425 . S
C3224 C3231 1.409 . S
C3225 H3217 0.930 . S
C3225 C3223 1.419 . S
C3225 C3226 1.362 . S
C3226 H3218 0.930 . S
C3226 C3225 1.362 . S
C3226 C3229 1.409 . S
C3227 H3219 0.930 . S
C3227 C3228 1.355 . S
C3227 C3229 1.415 . S
C3228 C3227 1.355 . S
C3228 C3230 1.419 . S
C3229 C3224 1.425 . S
C3229 C3226 1.409 . S
C3229 C3227 1.415 . S
C3230 H3220 0.930 . S
C3230 C3228 1.419 . S
C3230 C3231 1.362 . S
C3231 H3221 0.930 . S
C3231 C3224 1.409 . S
C3231 C3230 1.362 . S
H3232 C3238 0.930 . S
H3233 C3241 0.930 . S
H3234 C3242 0.930 . S
H3235 C3243 0.930 . S
H3236 C3246 0.930 . S
H3237 C3247 0.930 . S
C3238 H3232 0.930 . S
C3238 C3239 1.355 . S
C3238 C3240 1.415 . S
C3239 C3238 1.355 . S
C3239 C3241 1.419 . S
C3240 C3238 1.415 . S
C3240 C3245 1.425 . S
C3240 C3247 1.409 . S
C3241 H3233 0.930 . S
C3241 C3239 1.419 . S
C3241 C3242 1.362 . S
C3242 H3234 0.930 . S
C3242 C3241 1.362 . S
C3242 C3245 1.409 . S
C3243 H3235 0.930 . S
C3243 C3244 1.355 . S
C3243 C3245 1.415 . S
C3244 C3243 1.355 . S
C3244 C3246 1.419 . S
C3245 C3240 1.425 . S
C3245 C3242 1.409 . S
C3245 C3243 1.415 . S
C3246 H3236 0.930 . S
C3246 C3244 1.419 . S
C3246 C3247 1.362 . S
C3247 H3237 0.930 . S
C3247 C3240 1.409 . S
C3247 C3246 1.362 . S
H3248 C3254 0.930 . S
H3249 C3257 0.930 . S
H3250 C3258 0.930 . S
H3251 C3259 0.930 . S
H3252 C3262 0.930 . S
H3253 C3263 0.930 . S
C3254 H3248 0.930 . S
C3254 C3255 1.355 . S
C3254 C3256 1.415 . S
C3255 C3254 1.355 . S
C3255 C3257 1.419 . S
C3256 C3254 1.415 . S
C3256 C3261 1.425 . S
C3256 C3263 1.409 . S
C3257 H3249 0.930 . S
C3257 C3255 1.419 . S
C3257 C3258 1.362 . S
C3258 H3250 0.930 . S
C3258 C3257 1.362 . S
C3258 C3261 1.409 . S
C3259 H3251 0.930 . S
C3259 C3260 1.355 . S
C3259 C3261 1.415 . S
C3260 C3259 1.355 . S
C3260 C3262 1.419 . S
C3261 C3256 1.425 . S
C3261 C3258 1.409 . S
C3261 C3259 1.415 . S
C3262 H3252 0.930 . S
C3262 C3260 1.419 . S
C3262 C3263 1.362 . S
C3263 H3253 0.930 . S
C3263 C3256 1.409 . S
C3263 C3262 1.362 . S
H3264 C3270 0.930 . S
H3265 C3273 0.930 . S
H3266 C3274 0.930 . S
H3267 C3275 0.930 . S
H3268 C3278 0.930 . S
H3269 C3279 0.930 . S
C3270 H3264 0.930 . S
C3270 C3271 1.355 . S
C3270 C3272 1.415 . S
C3271 C3270 1.355 . S
C3271 C3273 1.419 . S
C3272 C3270 1.415 . S
C3272 C3277 1.425 . S
C3272 C3279 1.409 . S
C3273 H3265 0.930 . S
C3273 C3271 1.419 . S
C3273 C3274 1.362 . S
C3274 H3266 0.930 . S
C3274 C3273 1.362 . S
C3274 C3277 1.409 . S
C3275 H3267 0.930 . S
C3275 C3276 1.355 . S
C3275 C3277 1.415 . S
C3276 C3275 1.355 . S
C3276 C3278 1.419 . S
C3277 C3272 1.425 . S
C3277 C3274 1.409 . S
C3277 C3275 1.415 . S
C3278 H3268 0.930 . S
C3278 C3276 1.419 . S
C3278 C3279 1.362 . S
C3279 H3269 0.930 . S
C3279 C3272 1.409 . S
C3279 C3278 1.362 . S
H3280 C3286 0.930 . S
H3281 C3289 0.930 . S
H3282 C3290 0.930 . S
H3283 C3291 0.930 . S
H3284 C3294 0.930 . S
H3285 C3295 0.930 . S
C3286 H3280 0.930 . S
C3286 C3287 1.355 . S
C3286 C3288 1.415 . S
C3287 C3286 1.355 . S
C3287 C3289 1.419 . S
C3288 C3286 1.415 . S
C3288 C3293 1.425 . S
C3288 C3295 1.409 . S
C3289 H3281 0.930 . S
C3289 C3287 1.419 . S
C3289 C3290 1.362 . S
C3290 H3282 0.930 . S
C3290 C3289 1.362 . S
C3290 C3293 1.409 . S
C3291 H3283 0.930 . S
C3291 C3292 1.355 . S
C3291 C3293 1.415 . S
C3292 C3291 1.355 . S
C3292 C3294 1.419 . S
C3293 C3288 1.425 . S
C3293 C3290 1.409 . S
C3293 C3291 1.415 . S
C3294 H3284 0.930 . S
C3294 C3292 1.419 . S
C3294 C3295 1.362 . S
C3295 H3285 0.930 . S
C3295 C3288 1.409 . S
C3295 C3294 1.362 . S
H3296 C3302 0.930 . S
H3297 C3305 0.930 . S
H3298 C3306 0.930 . S
H3299 C3307 0.930 . S
H3300 C3310 0.930 . S
H3301 C3311 0.930 . S
C3302 H3296 0.930 . S
C3302 C3303 1.355 . S
C3302 C3304 1.415 . S
C3303 C3302 1.355 . S
C3303 C3305 1.419 . S
C3304 C3302 1.415 . S
C3304 C3309 1.425 . S
C3304 C3311 1.409 . S
C3305 H3297 0.930 . S
C3305 C3303 1.419 . S
C3305 C3306 1.362 . S
C3306 H3298 0.930 . S
C3306 C3305 1.362 . S
C3306 C3309 1.409 . S
C3307 H3299 0.930 . S
C3307 C3308 1.355 . S
C3307 C3309 1.415 . S
C3308 C3307 1.355 . S
C3308 C3310 1.419 . S
C3309 C3304 1.425 . S
C3309 C3306 1.409 . S
C3309 C3307 1.415 . S
C3310 H3300 0.930 . S
C3310 C3308 1.419 . S
C3310 C3311 1.362 . S
C3311 H3301 0.930 . S
C3311 C3304 1.409 . S
C3311 C3310 1.362 . S
H3312 C3318 0.930 . S
H3313 C3321 0.930 . S
H3314 C3322 0.930 . S
H3315 C3323 0.930 . S
H3316 C3326 0.930 . S
H3317 C3327 0.930 . S
C3318 H3312 0.930 . S
C3318 C3319 1.355 . S
C3318 C3320 1.415 . S
C3319 C3318 1.355 . S
C3319 C3321 1.419 . S
C3320 C3318 1.415 . S
C3320 C3325 1.425 . S
C3320 C3327 1.409 . S
C3321 H3313 0.930 . S
C3321 C3319 1.419 . S
C3321 C3322 1.362 . S
C3322 H3314 0.930 . S
C3322 C3321 1.362 . S
C3322 C3325 1.409 . S
C3323 H3315 0.930 . S
C3323 C3324 1.355 . S
C3323 C3325 1.415 . S
C3324 C3323 1.355 . S
C3324 C3326 1.419 . S
C3325 C3320 1.425 . S
C3325 C3322 1.409 . S
C3325 C3323 1.415 . S
C3326 H3316 0.930 . S
C3326 C3324 1.419 . S
C3326 C3327 1.362 . S
C3327 H3317 0.930 . S
C3327 C3320 1.409 . S
C3327 C3326 1.362 . S
H3328 C3334 0.930 . S
H3329 C3337 0.930 . S
H3330 C3338 0.930 . S
H3331 C3339 0.930 . S
H3332 C3342 0.930 . S
H3333 C3343 0.930 . S
C3334 H3328 0.930 . S
C3334 C3335 1.355 . S
C3334 C3336 1.415 . S
C3335 C3334 1.355 . S
C3335 C3337 1.419 . S
C3336 C3334 1.415 . S
C3336 C3341 1.425 . S
C3336 C3343 1.409 . S
C3337 H3329 0.930 . S
C3337 C3335 1.419 . S
C3337 C3338 1.362 . S
C3338 H3330 0.930 . S
C3338 C3337 1.362 . S
C3338 C3341 1.409 . S
C3339 H3331 0.930 . S
C3339 C3340 1.355 . S
C3339 C3341 1.415 . S
C3340 C3339 1.355 . S
C3340 C3342 1.419 . S
C3341 C3336 1.425 . S
C3341 C3338 1.409 . S
C3341 C3339 1.415 . S
C3342 H3332 0.930 . S
C3342 C3340 1.419 . S
C3342 C3343 1.362 . S
C3343 H3333 0.930 . S
C3343 C3336 1.409 . S
C3343 C3342 1.362 . S
H3344 C3350 0.930 . S
H3345 C3353 0.930 . S
H3346 C3354 0.930 . S
H3347 C3355 0.930 . S
H3348 C3358 0.930 . S
H3349 C3359 0.930 . S
C3350 H3344 0.930 . S
C3350 C3351 1.355 . S
C3350 C3352 1.415 . S
C3351 C3350 1.355 . S
C3351 C3353 1.419 . S
C3352 C3350 1.415 . S
C3352 C3357 1.425 . S
C3352 C3359 1.409 . S
C3353 H3345 0.930 . S
C3353 C3351 1.419 . S
C3353 C3354 1.362 . S
C3354 H3346 0.930 . S
C3354 C3353 1.362 . S
C3354 C3357 1.409 . S
C3355 H3347 0.930 . S
C3355 C3356 1.355 . S
C3355 C3357 1.415 . S
C3356 C3355 1.355 . S
C3356 C3358 1.419 . S
C3357 C3352 1.425 . S
C3357 C3354 1.409 . S
C3357 C3355 1.415 . S
C3358 H3348 0.930 . S
C3358 C3356 1.419 . S
C3358 C3359 1.362 . S
C3359 H3349 0.930 . S
C3359 C3352 1.409 . S
C3359 C3358 1.362 . S
H3360 C3366 0.930 . S
H3361 C3369 0.930 . S
H3362 C3370 0.930 . S
H3363 C3371 0.930 . S
H3364 C3374 0.930 . S
H3365 C3375 0.930 . S
C3366 H3360 0.930 . S
C3366 C3367 1.355 . S
C3366 C3368 1.415 . S
C3367 C3366 1.355 . S
C3367 C3369 1.419 . S
C3368 C3366 1.415 . S
C3368 C3373 1.425 . S
C3368 C3375 1.409 . S
C3369 H3361 0.930 . S
C3369 C3367 1.419 . S
C3369 C3370 1.362 . S
C3370 H3362 0.930 . S
C3370 C3369 1.362 . S
C3370 C3373 1.409 . S
C3371 H3363 0.930 . S
C3371 C3372 1.355 . S
C3371 C3373 1.415 . S
C3372 C3371 1.355 . S
C3372 C3374 1.419 . S
C3373 C3368 1.425 . S
C3373 C3370 1.409 . S
C3373 C3371 1.415 . S
C3374 H3364 0.930 . S
C3374 C3372 1.419 . S
C3374 C3375 1.362 . S
C3375 H3365 0.930 . S
C3375 C3368 1.409 . S
C3375 C3374 1.362 . S
H3376 C3382 0.930 . S
H3377 C3385 0.930 . S
H3378 C3386 0.930 . S
H3379 C3387 0.930 . S
H3380 C3390 0.930 . S
H3381 C3391 0.930 . S
C3382 H3376 0.930 . S
C3382 C3383 1.355 . S
C3382 C3384 1.415 . S
C3383 C3382 1.355 . S
C3383 C3385 1.419 . S
C3384 C3382 1.415 . S
C3384 C3389 1.425 . S
C3384 C3391 1.409 . S
C3385 H3377 0.930 . S
C3385 C3383 1.419 . S
C3385 C3386 1.362 . S
C3386 H3378 0.930 . S
C3386 C3385 1.362 . S
C3386 C3389 1.409 . S
C3387 H3379 0.930 . S
C3387 C3388 1.355 . S
C3387 C3389 1.415 . S
C3388 C3387 1.355 . S
C3388 C3390 1.419 . S
C3389 C3384 1.425 . S
C3389 C3386 1.409 . S
C3389 C3387 1.415 . S
C3390 H3380 0.930 . S
C3390 C3388 1.419 . S
C3390 C3391 1.362 . S
C3391 H3381 0.930 . S
C3391 C3384 1.409 . S
C3391 C3390 1.362 . S
H3392 C3398 0.930 . S
H3393 C3401 0.930 . S
H3394 C3402 0.930 . S
H3395 C3403 0.930 . S
H3396 C3406 0.930 . S
H3397 C3407 0.930 . S
C3398 H3392 0.930 . S
C3398 C3399 1.355 . S
C3398 C3400 1.415 . S
C3399 C3398 1.355 . S
C3399 C3401 1.419 . S
C3400 C3398 1.415 . S
C3400 C3405 1.425 . S
C3400 C3407 1.409 . S
C3401 H3393 0.930 . S
C3401 C3399 1.419 . S
C3401 C3402 1.362 . S
C3402 H3394 0.930 . S
C3402 C3401 1.362 . S
C3402 C3405 1.409 . S
C3403 H3395 0.930 . S
C3403 C3404 1.355 . S
C3403 C3405 1.415 . S
C3404 C3403 1.355 . S
C3404 C3406 1.419 . S
C3405 C3400 1.425 . S
C3405 C3402 1.409 . S
C3405 C3403 1.415 . S
C3406 H3396 0.930 . S
C3406 C3404 1.419 . S
C3406 C3407 1.362 . S
C3407 H3397 0.930 . S
C3407 C3400 1.409 . S
C3407 C3406 1.362 . S
H3408 C3414 0.930 . S
H3409 C3417 0.930 . S
H3410 C3418 0.930 . S
H3411 C3419 0.930 . S
H3412 C3422 0.930 . S
H3413 C3423 0.930 . S
C3414 H3408 0.930 . S
C3414 C3415 1.355 . S
C3414 C3416 1.415 . S
C3415 C3414 1.355 . S
C3415 C3417 1.419 . S
C3416 C3414 1.415 . S
C3416 C3421 1.425 . S
C3416 C3423 1.409 . S
C3417 H3409 0.930 . S
C3417 C3415 1.419 . S
C3417 C3418 1.362 . S
C3418 H3410 0.930 . S
C3418 C3417 1.362 . S
C3418 C3421 1.409 . S
C3419 H3411 0.930 . S
C3419 C3420 1.355 . S
C3419 C3421 1.415 . S
C3420 C3419 1.355 . S
C3420 C3422 1.419 . S
C3421 C3416 1.425 . S
C3421 C3418 1.409 . S
C3421 C3419 1.415 . S
C3422 H3412 0.930 . S
C3422 C3420 1.419 . S
C3422 C3423 1.362 . S
C3423 H3413 0.930 . S
C3423 C3416 1.409 . S
C3423 C3422 1.362 . S
H3424 C3430 0.930 . S
H3425 C3433 0.930 . S
H3426 C3434 0.930 . S
H3427 C3435 0.930 . S
H3428 C3438 0.930 . S
H3429 C3439 0.930 . S
C3430 H3424 0.930 . S
C3430 C3431 1.355 . S
C3430 C3432 1.415 . S
C3431 C3430 1.355 . S
C3431 C3433 1.419 . S
C3432 C3430 1.415 . S
C3432 C3437 1.425 . S
C3432 C3439 1.409 . S
C3433 H3425 0.930 . S
C3433 C3431 1.419 . S
C3433 C3434 1.362 . S
C3434 H3426 0.930 . S
C3434 C3433 1.362 . S
C3434 C3437 1.409 . S
C3435 H3427 0.930 . S
C3435 C3436 1.355 . S
C3435 C3437 1.415 . S
C3436 C3435 1.355 . S
C3436 C3438 1.419 . S
C3437 C3432 1.425 . S
C3437 C3434 1.409 . S
C3437 C3435 1.415 . S
C3438 H3428 0.930 . S
C3438 C3436 1.419 . S
C3438 C3439 1.362 . S
C3439 H3429 0.930 . S
C3439 C3432 1.409 . S
C3439 C3438 1.362 . S
H3440 C3446 0.930 . S
H3441 C3449 0.930 . S
H3442 C3450 0.930 . S
H3443 C3451 0.930 . S
H3444 C3454 0.930 . S
H3445 C3455 0.930 . S
C3446 H3440 0.930 . S
C3446 C3447 1.355 . S
C3446 C3448 1.415 . S
C3447 C3446 1.355 . S
C3447 C3449 1.419 . S
C3448 C3446 1.415 . S
C3448 C3453 1.425 . S
C3448 C3455 1.409 . S
C3449 H3441 0.930 . S
C3449 C3447 1.419 . S
C3449 C3450 1.362 . S
C3450 H3442 0.930 . S
C3450 C3449 1.362 . S
C3450 C3453 1.409 . S
C3451 H3443 0.930 . S
C3451 C3452 1.355 . S
C3451 C3453 1.415 . S
C3452 C3451 1.355 . S
C3452 C3454 1.419 . S
C3453 C3448 1.425 . S
C3453 C3450 1.409 . S
C3453 C3451 1.415 . S
C3454 H3444 0.930 . S
C3454 C3452 1.419 . S
C3454 C3455 1.362 . S
C3455 H3445 0.930 . S
C3455 C3448 1.409 . S
C3455 C3454 1.362 . S
H3456 C3462 0.930 . S
H3457 C3465 0.930 . S
H3458 C3466 0.930 . S
H3459 C3467 0.930 . S
H3460 C3470 0.930 . S
H3461 C3471 0.930 . S
C3462 H3456 0.930 . S
C3462 C3463 1.355 . S
C3462 C3464 1.415 . S
C3463 C3462 1.355 . S
C3463 C3465 1.419 . S
C3464 C3462 1.415 . S
C3464 C3469 1.425 . S
C3464 C3471 1.409 . S
C3465 H3457 0.930 . S
C3465 C3463 1.419 . S
C3465 C3466 1.362 . S
C3466 H3458 0.930 . S
C3466 C3465 1.362 . S
C3466 C3469 1.409 . S
C3467 H3459 0.930 . S
C3467 C3468 1.355 . S
C3467 C3469 1.415 . S
C3468 C3467 1.355 . S
C3468 C3470 1.419 . S
C3469 C3464 1.425 . S
C3469 C3466 1.409 . S
C3469 C3467 1.415 . S
C3470 H3460 0.930 . S
C3470 C3468 1.419 . S
C3470 C3471 1.362 . S
C3471 H3461 0.930 . S
C3471 C3464 1.409 . S
C3471 C3470 1.362 . S
H3472 C3478 0.930 . S
H3473 C3481 0.930 . S
H3474 C3482 0.930 . S
H3475 C3483 0.930 . S
H3476 C3486 0.930 . S
H3477 C3487 0.930 . S
C3478 H3472 0.930 . S
C3478 C3479 1.355 . S
C3478 C3480 1.415 . S
C3479 C3478 1.355 . S
C3479 C3481 1.419 . S
C3480 C3478 1.415 . S
C3480 C3485 1.425 . S
C3480 C3487 1.409 . S
C3481 H3473 0.930 . S
C3481 C3479 1.419 . S
C3481 C3482 1.362 . S
C3482 H3474 0.930 . S
C3482 C3481 1.362 . S
C3482 C3485 1.409 . S
C3483 H3475 0.930 . S
C3483 C3484 1.355 . S
C3483 C3485 1.415 . S
C3484 C3483 1.355 . S
C3484 C3486 1.419 . S
C3485 C3480 1.425 . S
C3485 C3482 1.409 . S
C3485 C3483 1.415 . S
C3486 H3476 0.930 . S
C3486 C3484 1.419 . S
C3486 C3487 1.362 . S
C3487 H3477 0.930 . S
C3487 C3480 1.409 . S
C3487 C3486 1.362 . S
H3488 C3494 0.930 . S
H3489 C3497 0.930 . S
H3490 C3498 0.930 . S
H3491 C3499 0.930 . S
H3492 C3502 0.930 . S
H3493 C3503 0.930 . S
C3494 H3488 0.930 . S
C3494 C3495 1.355 . S
C3494 C3496 1.415 . S
C3495 C3494 1.355 . S
C3495 C3497 1.419 . S
C3496 C3494 1.415 . S
C3496 C3501 1.425 . S
C3496 C3503 1.409 . S
C3497 H3489 0.930 . S
C3497 C3495 1.419 . S
C3497 C3498 1.362 . S
C3498 H3490 0.930 . S
C3498 C3497 1.362 . S
C3498 C3501 1.409 . S
C3499 H3491 0.930 . S
C3499 C3500 1.355 . S
C3499 C3501 1.415 . S
C3500 C3499 1.355 . S
C3500 C3502 1.419 . S
C3501 C3496 1.425 . S
C3501 C3498 1.409 . S
C3501 C3499 1.415 . S
C3502 H3492 0.930 . S
C3502 C3500 1.419 . S
C3502 C3503 1.362 . S
C3503 H3493 0.930 . S
C3503 C3496 1.409 . S
C3503 C3502 1.362 . S
H3504 C3510 0.930 . S
H3505 C3513 0.930 . S
H3506 C3514 0.930 . S
H3507 C3515 0.930 . S
H3508 C3518 0.930 . S
H3509 C3519 0.930 . S
C3510 H3504 0.930 . S
C3510 C3511 1.355 . S
C3510 C3512 1.415 . S
C3511 C3510 1.355 . S
C3511 C3513 1.419 . S
C3512 C3510 1.415 . S
C3512 C3517 1.425 . S
C3512 C3519 1.409 . S
C3513 H3505 0.930 . S
C3513 C3511 1.419 . S
C3513 C3514 1.362 . S
C3514 H3506 0.930 . S
C3514 C3513 1.362 . S
C3514 C3517 1.409 . S
C3515 H3507 0.930 . S
C3515 C3516 1.355 . S
C3515 C3517 1.415 . S
C3516 C3515 1.355 . S
C3516 C3518 1.419 . S
C3517 C3512 1.425 . S
C3517 C3514 1.409 . S
C3517 C3515 1.415 . S
C3518 H3508 0.930 . S
C3518 C3516 1.419 . S
C3518 C3519 1.362 . S
C3519 H3509 0.930 . S
C3519 C3512 1.409 . S
C3519 C3518 1.362 . S
H3520 C3526 0.930 . S
H3521 C3529 0.930 . S
H3522 C3530 0.930 . S
H3523 C3531 0.930 . S
H3524 C3534 0.930 . S
H3525 C3535 0.930 . S
C3526 H3520 0.930 . S
C3526 C3527 1.355 . S
C3526 C3528 1.415 . S
C3527 C3526 1.355 . S
C3527 C3529 1.419 . S
C3528 C3526 1.415 . S
C3528 C3533 1.425 . S
C3528 C3535 1.409 . S
C3529 H3521 0.930 . S
C3529 C3527 1.419 . S
C3529 C3530 1.362 . S
C3530 H3522 0.930 . S
C3530 C3529 1.362 . S
C3530 C3533 1.409 . S
C3531 H3523 0.930 . S
C3531 C3532 1.355 . S
C3531 C3533 1.415 . S
C3532 C3531 1.355 . S
C3532 C3534 1.419 . S
C3533 C3528 1.425 . S
C3533 C3530 1.409 . S
C3533 C3531 1.415 . S
C3534 H3524 0.930 . S
C3534 C3532 1.419 . S
C3534 C3535 1.362 . S
C3535 H3525 0.930 . S
C3535 C3528 1.409 . S
C3535 C3534 1.362 . S
H3536 C3542 0.930 . S
H3537 C3545 0.930 . S
H3538 C3546 0.930 . S
H3539 C3547 0.930 . S
H3540 C3550 0.930 . S
H3541 C3551 0.930 . S
C3542 H3536 0.930 . S
C3542 C3543 1.355 . S
C3542 C3544 1.415 . S
C3543 C3542 1.355 . S
C3543 C3545 1.419 . S
C3544 C3542 1.415 . S
C3544 C3549 1.425 . S
C3544 C3551 1.409 . S
C3545 H3537 0.930 . S
C3545 C3543 1.419 . S
C3545 C3546 1.362 . S
C3546 H3538 0.930 . S
C3546 C3545 1.362 . S
C3546 C3549 1.409 . S
C3547 H3539 0.930 . S
C3547 C3548 1.355 . S
C3547 C3549 1.415 . S
C3548 C3547 1.355 . S
C3548 C3550 1.419 . S
C3549 C3544 1.425 . S
C3549 C3546 1.409 . S
C3549 C3547 1.415 . S
C3550 H3540 0.930 . S
C3550 C3548 1.419 . S
C3550 C3551 1.362 . S
C3551 H3541 0.930 . S
C3551 C3544 1.409 . S
C3551 C3550 1.362 . S
H3552 C3558 0.930 . S
H3553 C3561 0.930 . S
H3554 C3562 0.930 . S
H3555 C3563 0.930 . S
H3556 C3566 0.930 . S
H3557 C3567 0.930 . S
C3558 H3552 0.930 . S
C3558 C3559 1.355 . S
C3558 C3560 1.415 . S
C3559 C3558 1.355 . S
C3559 C3561 1.419 . S
C3560 C3558 1.415 . S
C3560 C3565 1.425 . S
C3560 C3567 1.409 . S
C3561 H3553 0.930 . S
C3561 C3559 1.419 . S
C3561 C3562 1.362 . S
C3562 H3554 0.930 . S
C3562 C3561 1.362 . S
C3562 C3565 1.409 . S
C3563 H3555 0.930 . S
C3563 C3564 1.355 . S
C3563 C3565 1.415 . S
C3564 C3563 1.355 . S
C3564 C3566 1.419 . S
C3565 C3560 1.425 . S
C3565 C3562 1.409 . S
C3565 C3563 1.415 . S
C3566 H3556 0.930 . S
C3566 C3564 1.419 . S
C3566 C3567 1.362 . S
C3567 H3557 0.930 . S
C3567 C3560 1.409 . S
C3567 C3566 1.362 . S
H3568 C3574 0.930 . S
H3569 C3577 0.930 . S
H3570 C3578 0.930 . S
H3571 C3579 0.930 . S
H3572 C3582 0.930 . S
H3573 C3583 0.930 . S
C3574 H3568 0.930 . S
C3574 C3575 1.355 . S
C3574 C3576 1.415 . S
C3575 C3574 1.355 . S
C3575 C3577 1.419 . S
C3576 C3574 1.415 . S
C3576 C3581 1.425 . S
C3576 C3583 1.409 . S
C3577 H3569 0.930 . S
C3577 C3575 1.419 . S
C3577 C3578 1.362 . S
C3578 H3570 0.930 . S
C3578 C3577 1.362 . S
C3578 C3581 1.409 . S
C3579 H3571 0.930 . S
C3579 C3580 1.355 . S
C3579 C3581 1.415 . S
C3580 C3579 1.355 . S
C3580 C3582 1.419 . S
C3581 C3576 1.425 . S
C3581 C3578 1.409 . S
C3581 C3579 1.415 . S
C3582 H3572 0.930 . S
C3582 C3580 1.419 . S
C3582 C3583 1.362 . S
C3583 H3573 0.930 . S
C3583 C3576 1.409 . S
C3583 C3582 1.362 . S
H3584 C3590 0.930 . S
H3585 C3593 0.930 . S
H3586 C3594 0.930 . S
H3587 C3595 0.930 . S
H3588 C3598 0.930 . S
H3589 C3599 0.930 . S
C3590 H3584 0.930 . S
C3590 C3591 1.355 . S
C3590 C3592 1.415 . S
C3591 C3590 1.355 . S
C3591 C3593 1.419 . S
C3592 C3590 1.415 . S
C3592 C3597 1.425 . S
C3592 C3599 1.409 . S
C3593 H3585 0.930 . S
C3593 C3591 1.419 . S
C3593 C3594 1.362 . S
C3594 H3586 0.930 . S
C3594 C3593 1.362 . S
C3594 C3597 1.409 . S
C3595 H3587 0.930 . S
C3595 C3596 1.355 . S
C3595 C3597 1.415 . S
C3596 C3595 1.355 . S
C3596 C3598 1.419 . S
C3597 C3592 1.425 . S
C3597 C3594 1.409 . S
C3597 C3595 1.415 . S
C3598 H3588 0.930 . S
C3598 C3596 1.419 . S
C3598 C3599 1.362 . S
C3599 H3589 0.930 . S
C3599 C3592 1.409 . S
C3599 C3598 1.362 . S
H3600 C3606 0.930 . S
H3601 C3609 0.930 . S
H3602 C3610 0.930 . S
H3603 C3611 0.930 . S
H3604 C3614 0.930 . S
H3605 C3615 0.930 . S
C3606 H3600 0.930 . S
C3606 C3607 1.355 . S
C3606 C3608 1.415 . S
C3607 C3606 1.355 . S
C3607 C3609 1.419 . S
C3608 C3606 1.415 . S
C3608 C3613 1.425 . S
C3608 C3615 1.409 . S
C3609 H3601 0.930 . S
C3609 C3607 1.419 . S
C3609 C3610 1.362 . S
C3610 H3602 0.930 . S
C3610 C3609 1.362 . S
C3610 C3613 1.409 . S
C3611 H3603 0.930 . S
C3611 C3612 1.355 . S
C3611 C3613 1.415 . S
C3612 C3611 1.355 . S
C3612 C3614 1.419 . S
C3613 C3608 1.425 . S
C3613 C3610 1.409 . S
C3613 C3611 1.415 . S
C3614 H3604 0.930 . S
C3614 C3612 1.419 . S
C3614 C3615 1.362 . S
C3615 H3605 0.930 . S
C3615 C3608 1.409 . S
C3615 C3614 1.362 . S
H3616 C3622 0.930 . S
H3617 C3625 0.930 . S
H3618 C3626 0.930 . S
H3619 C3627 0.930 . S
H3620 C3630 0.930 . S
H3621 C3631 0.930 . S
C3622 H3616 0.930 . S
C3622 C3623 1.355 . S
C3622 C3624 1.415 . S
C3623 C3622 1.355 . S
C3623 C3625 1.419 . S
C3624 C3622 1.415 . S
C3624 C3629 1.425 . S
C3624 C3631 1.409 . S
C3625 H3617 0.930 . S
C3625 C3623 1.419 . S
C3625 C3626 1.362 . S
C3626 H3618 0.930 . S
C3626 C3625 1.362 . S
C3626 C3629 1.409 . S
C3627 H3619 0.930 . S
C3627 C3628 1.355 . S
C3627 C3629 1.415 . S
C3628 C3627 1.355 . S
C3628 C3630 1.419 . S
C3629 C3624 1.425 . S
C3629 C3626 1.409 . S
C3629 C3627 1.415 . S
C3630 H3620 0.930 . S
C3630 C3628 1.419 . S
C3630 C3631 1.362 . S
C3631 H3621 0.930 . S
C3631 C3624 1.409 . S
C3631 C3630 1.362 . S
H3632 C3638 0.930 . S
H3633 C3641 0.930 . S
H3634 C3642 0.930 . S
H3635 C3643 0.930 . S
H3636 C3646 0.930 . S
H3637 C3647 0.930 . S
C3638 H3632 0.930 . S
C3638 C3639 1.355 . S
C3638 C3640 1.415 . S
C3639 C3638 1.355 . S
C3639 C3641 1.419 . S
C3640 C3638 1.415 . S
C3640 C3645 1.425 . S
C3640 C3647 1.409 . S
C3641 H3633 0.930 . S
C3641 C3639 1.419 . S
C3641 C3642 1.362 . S
C3642 H3634 0.930 . S
C3642 C3641 1.362 . S
C3642 C3645 1.409 . S
C3643 H3635 0.930 . S
C3643 C3644 1.355 . S
C3643 C3645 1.415 . S
C3644 C3643 1.355 . S
C3644 C3646 1.419 . S
C3645 C3640 1.425 . S
C3645 C3642 1.409 . S
C3645 C3643 1.415 . S
C3646 H3636 0.930 . S
C3646 C3644 1.419 . S
C3646 C3647 1.362 . S
C3647 H3637 0.930 . S
C3647 C3640 1.409 . S
C3647 C3646 1.362 . S
H3648 C3654 0.930 . S
H3649 C3657 0.930 . S
H3650 C3658 0.930 . S
H3651 C3659 0.930 . S
H3652 C3662 0.930 . S
H3653 C3663 0.930 . S
C3654 H3648 0.930 . S
C3654 C3655 1.355 . S
C3654 C3656 1.415 . S
C3655 C3654 1.355 . S
C3655 C3657 1.419 . S
C3656 C3654 1.415 . S
C3656 C3661 1.425 . S
C3656 C3663 1.409 . S
C3657 H3649 0.930 . S
C3657 C3655 1.419 . S
C3657 C3658 1.362 . S
C3658 H3650 0.930 . S
C3658 C3657 1.362 . S
C3658 C3661 1.409 . S
C3659 H3651 0.930 . S
C3659 C3660 1.355 . S
C3659 C3661 1.415 . S
C3660 C3659 1.355 . S
C3660 C3662 1.419 . S
C3661 C3656 1.425 . S
C3661 C3658 1.409 . S
C3661 C3659 1.415 . S
C3662 H3652 0.930 . S
C3662 C3660 1.419 . S
C3662 C3663 1.362 . S
C3663 H3653 0.930 . S
C3663 C3656 1.409 . S
C3663 C3662 1.362 . S
H3664 C3670 0.930 . S
H3665 C3673 0.930 . S
H3666 C3674 0.930 . S
H3667 C3675 0.930 . S
H3668 C3678 0.930 . S
H3669 C3679 0.930 . S
C3670 H3664 0.930 . S
C3670 C3671 1.355 . S
C3670 C3672 1.415 . S
C3671 C3670 1.355 . S
C3671 C3673 1.419 . S
C3672 C3670 1.415 . S
C3672 C3677 1.425 . S
C3672 C3679 1.409 . S
C3673 H3665 0.930 . S
C3673 C3671 1.419 . S
C3673 C3674 1.362 . S
C3674 H3666 0.930 . S
C3674 C3673 1.362 . S
C3674 C3677 1.409 . S
C3675 H3667 0.930 . S
C3675 C3676 1.355 . S
C3675 C3677 1.415 . S
C3676 C3675 1.355 . S
C3676 C3678 1.419 . S
C3677 C3672 1.425 . S
C3677 C3674 1.409 . S
C3677 C3675 1.415 . S
C3678 H3668 0.930 . S
C3678 C3676 1.419 . S
C3678 C3679 1.362 . S
C3679 H3669 0.930 . S
C3679 C3672 1.409 . S
C3679 C3678 1.362 . S
H3680 C3686 0.930 . S
H3681 C3689 0.930 . S
H3682 C3690 0.930 . S
H3683 C3691 0.930 . S
H3684 C3694 0.930 . S
H3685 C3695 0.930 . S
C3686 H3680 0.930 . S
C3686 C3687 1.355 . S
C3686 C3688 1.415 . S
C3687 C3686 1.355 . S
C3687 C3689 1.419 . S
C3688 C3686 1.415 . S
C3688 C3693 1.425 . S
C3688 C3695 1.409 . S
C3689 H3681 0.930 . S
C3689 C3687 1.419 . S
C3689 C3690 1.362 . S
C3690 H3682 0.930 . S
C3690 C3689 1.362 . S
C3690 C3693 1.409 . S
C3691 H3683 0.930 . S
C3691 C3692 1.355 . S
C3691 C3693 1.415 . S
C3692 C3691 1.355 . S
C3692 C3694 1.419 . S
C3693 C3688 1.425 . S
C3693 C3690 1.409 . S
C3693 C3691 1.415 . S
C3694 H3684 0.930 . S
C3694 C3692 1.419 . S
C3694 C3695 1.362 . S
C3695 H3685 0.930 . S
C3695 C3688 1.409 . S
C3695 C3694 1.362 . S
H3696 C3702 0.930 . S
H3697 C3705 0.930 . S
H3698 C3706 0.930 . S
H3699 C3707 0.930 . S
H3700 C3710 0.930 . S
H3701 C3711 0.930 . S
C3702 H3696 0.930 . S
C3702 C3703 1.355 . S
C3702 C3704 1.415 . S
C3703 C3702 1.355 . S
C3703 C3705 1.419 . S
C3704 C3702 1.415 . S
C3704 C3709 1.425 . S
C3704 C3711 1.409 . S
C3705 H3697 0.930 . S
C3705 C3703 1.419 . S
C3705 C3706 1.362 . S
C3706 H3698 0.930 . S
C3706 C3705 1.362 . S
C3706 C3709 1.409 . S
C3707 H3699 0.930 . S
C3707 C3708 1.355 . S
C3707 C3709 1.415 . S
C3708 C3707 1.355 . S
C3708 C3710 1.419 . S
C3709 C3704 1.425 . S
C3709 C3706 1.409 . S
C3709 C3707 1.415 . S
C3710 H3700 0.930 . S
C3710 C3708 1.419 . S
C3710 C3711 1.362 . S
C3711 H3701 0.930 . S
C3711 C3704 1.409 . S
C3711 C3710 1.362 . S
H3712 C3718 0.930 . S
H3713 C3721 0.930 . S
H3714 C3722 0.930 . S
H3715 C3723 0.930 . S
H3716 C3726 0.930 . S
H3717 C3727 0.930 . S
C3718 H3712 0.930 . S
C3718 C3719 1.355 . S
C3718 C3720 1.415 . S
C3719 C3718 1.355 . S
C3719 C3721 1.419 . S
C3720 C3718 1.415 . S
C3720 C3725 1.425 . S
C3720 C3727 1.409 . S
C3721 H3713 0.930 . S
C3721 C3719 1.419 . S
C3721 C3722 1.362 . S
C3722 H3714 0.930 . S
C3722 C3721 1.362 . S
C3722 C3725 1.409 . S
C3723 H3715 0.930 . S
C3723 C3724 1.355 . S
C3723 C3725 1.415 . S
C3724 C3723 1.355 . S
C3724 C3726 1.419 . S
C3725 C3720 1.425 . S
C3725 C3722 1.409 . S
C3725 C3723 1.415 . S
C3726 H3716 0.930 . S
C3726 C3724 1.419 . S
C3726 C3727 1.362 . S
C3727 H3717 0.930 . S
C3727 C3720 1.409 . S
C3727 C3726 1.362 . S
H3728 C3734 0.930 . S
H3729 C3737 0.930 . S
H3730 C3738 0.930 . S
H3731 C3739 0.930 . S
H3732 C3742 0.930 . S
H3733 C3743 0.930 . S
C3734 H3728 0.930 . S
C3734 C3735 1.355 . S
C3734 C3736 1.415 . S
C3735 C3734 1.355 . S
C3735 C3737 1.419 . S
C3736 C3734 1.415 . S
C3736 C3741 1.425 . S
C3736 C3743 1.409 . S
C3737 H3729 0.930 . S
C3737 C3735 1.419 . S
C3737 C3738 1.362 . S
C3738 H3730 0.930 . S
C3738 C3737 1.362 . S
C3738 C3741 1.409 . S
C3739 H3731 0.930 . S
C3739 C3740 1.355 . S
C3739 C3741 1.415 . S
C3740 C3739 1.355 . S
C3740 C3742 1.419 . S
C3741 C3736 1.425 . S
C3741 C3738 1.409 . S
C3741 C3739 1.415 . S
C3742 H3732 0.930 . S
C3742 C3740 1.419 . S
C3742 C3743 1.362 . S
C3743 H3733 0.930 . S
C3743 C3736 1.409 . S
C3743 C3742 1.362 . S
H3744 C3750 0.930 . S
H3745 C3753 0.930 . S
H3746 C3754 0.930 . S
H3747 C3755 0.930 . S
H3748 C3758 0.930 . S
H3749 C3759 0.930 . S
C3750 H3744 0.930 . S
C3750 C3751 1.355 . S
C3750 C3752 1.415 . S
C3751 C3750 1.355 . S
C3751 C3753 1.419 . S
C3752 C3750 1.415 . S
C3752 C3757 1.425 . S
C3752 C3759 1.409 . S
C3753 H3745 0.930 . S
C3753 C3751 1.419 . S
C3753 C3754 1.362 . S
C3754 H3746 0.930 . S
C3754 C3753 1.362 . S
C3754 C3757 1.409 . S
C3755 H3747 0.930 . S
C3755 C3756 1.355 . S
C3755 C3757 1.415 . S
C3756 C3755 1.355 . S
C3756 C3758 1.419 . S
C3757 C3752 1.425 . S
C3757 C3754 1.409 . S
C3757 C3755 1.415 . S
C3758 H3748 0.930 . S
C3758 C3756 1.419 . S
C3758 C3759 1.362 . S
C3759 H3749 0.930 . S
C3759 C3752 1.409 . S
C3759 C3758 1.362 . S
H3760 C3766 0.930 . S
H3761 C3769 0.930 . S
H3762 C3770 0.930 . S
H3763 C3771 0.930 . S
H3764 C3774 0.930 . S
H3765 C3775 0.930 . S
C3766 H3760 0.930 . S
C3766 C3767 1.355 . S
C3766 C3768 1.415 . S
C3767 C3766 1.355 . S
C3767 C3769 1.419 . S
C3768 C3766 1.415 . S
C3768 C3773 1.425 . S
C3768 C3775 1.409 . S
C3769 H3761 0.930 . S
C3769 C3767 1.419 . S
C3769 C3770 1.362 . S
C3770 H3762 0.930 . S
C3770 C3769 1.362 . S
C3770 C3773 1.409 . S
C3771 H3763 0.930 . S
C3771 C3772 1.355 . S
C3771 C3773 1.415 . S
C3772 C3771 1.355 . S
C3772 C3774 1.419 . S
C3773 C3768 1.425 . S
C3773 C3770 1.409 . S
C3773 C3771 1.415 . S
C3774 H3764 0.930 . S
C3774 C3772 1.419 . S
C3774 C3775 1.362 . S
C3775 H3765 0.930 . S
C3775 C3768 1.409 . S
C3775 C3774 1.362 . S
H3776 C3782 0.930 . S
H3777 C3785 0.930 . S
H3778 C3786 0.930 . S
H3779 C3787 0.930 . S
H3780 C3790 0.930 . S
H3781 C3791 0.930 . S
C3782 H3776 0.930 . S
C3782 C3783 1.355 . S
C3782 C3784 1.415 . S
C3783 C3782 1.355 . S
C3783 C3785 1.419 . S
C3784 C3782 1.415 . S
C3784 C3789 1.425 . S
C3784 C3791 1.409 . S
C3785 H3777 0.930 . S
C3785 C3783 1.419 . S
C3785 C3786 1.362 . S
C3786 H3778 0.930 . S
C3786 C3785 1.362 . S
C3786 C3789 1.409 . S
C3787 H3779 0.930 . S
C3787 C3788 1.355 . S
C3787 C3789 1.415 . S
C3788 C3787 1.355 . S
C3788 C3790 1.419 . S
C3789 C3784 1.425 . S
C3789 C3786 1.409 . S
C3789 C3787 1.415 . S
C3790 H3780 0.930 . S
C3790 C3788 1.419 . S
C3790 C3791 1.362 . S
C3791 H3781 0.930 . S
C3791 C3784 1.409 . S
C3791 C3790 1.362 . S
H3792 C3798 0.930 . S
H3793 C3801 0.930 . S
H3794 C3802 0.930 . S
H3795 C3803 0.930 . S
H3796 C3806 0.930 . S
H3797 C3807 0.930 . S
C3798 H3792 0.930 . S
C3798 C3799 1.355 . S
C3798 C3800 1.415 . S
C3799 C3798 1.355 . S
C3799 C3801 1.419 . S
C3800 C3798 1.415 . S
C3800 C3805 1.425 . S
C3800 C3807 1.409 . S
C3801 H3793 0.930 . S
C3801 C3799 1.419 . S
C3801 C3802 1.362 . S
C3802 H3794 0.930 . S
C3802 C3801 1.362 . S
C3802 C3805 1.409 . S
C3803 H3795 0.930 . S
C3803 C3804 1.355 . S
C3803 C3805 1.415 . S
C3804 C3803 1.355 . S
C3804 C3806 1.419 . S
C3805 C3800 1.425 . S
C3805 C3802 1.409 . S
C3805 C3803 1.415 . S
C3806 H3796 0.930 . S
C3806 C3804 1.419 . S
C3806 C3807 1.362 . S
C3807 H3797 0.930 . S
C3807 C3800 1.409 . S
C3807 C3806 1.362 . S
H3808 C3814 0.930 . S
H3809 C3817 0.930 . S
H3810 C3818 0.930 . S
H3811 C3819 0.930 . S
H3812 C3822 0.930 . S
H3813 C3823 0.930 . S
C3814 H3808 0.930 . S
C3814 C3815 1.355 . S
C3814 C3816 1.415 . S
C3815 C3814 1.355 . S
C3815 C3817 1.419 . S
C3816 C3814 1.415 . S
C3816 C3821 1.425 . S
C3816 C3823 1.409 . S
C3817 H3809 0.930 . S
C3817 C3815 1.419 . S
C3817 C3818 1.362 . S
C3818 H3810 0.930 . S
C3818 C3817 1.362 . S
C3818 C3821 1.409 . S
C3819 H3811 0.930 . S
C3819 C3820 1.355 . S
C3819 C3821 1.415 . S
C3820 C3819 1.355 . S
C3820 C3822 1.419 . S
C3821 C3816 1.425 . S
C3821 C3818 1.409 . S
C3821 C3819 1.415 . S
C3822 H3812 0.930 . S
C3822 C3820 1.419 . S
C3822 C3823 1.362 . S
C3823 H3813 0.930 . S
C3823 C3816 1.409 . S
C3823 C3822 1.362 . S
H3824 C3830 0.930 . S
H3825 C3833 0.930 . S
H3826 C3834 0.930 . S
H3827 C3835 0.930 . S
H3828 C3838 0.930 . S
H3829 C3839 0.930 . S
C3830 H3824 0.930 . S
C3830 C3831 1.355 . S
C3830 C3832 1.415 . S
C3831 C3830 1.355 . S
C3831 C3833 1.419 . S
C3832 C3830 1.415 . S
C3832 C3837 1.425 . S
C3832 C3839 1.409 . S
C3833 H3825 0.930 . S
C3833 C3831 1.419 . S
C3833 C3834 1.362 . S
C3834 H3826 0.930 . S
C3834 C3833 1.362 . S
C3834 C3837 1.409 . S
C3835 H3827 0.930 . S
C3835 C3836 1.355 . S
C3835 C3837 1.415 . S
C3836 C3835 1.355 . S
C3836 C3838 1.419 . S
C3837 C3832 1.425 . S
C3837 C3834 1.409 . S
C3837 C3835 1.415 . S
C3838 H3828 0.930 . S
C3838 C3836 1.419 . S
C3838 C3839 1.362 . S
C3839 H3829 0.930 . S
C3839 C3832 1.409 . S
C3839 C3838 1.362 . S
H3840 C3846 0.930 . S
H3841 C3849 0.930 . S
H3842 C3850 0.930 . S
H3843 C3851 0.930 . S
H3844 C3854 0.930 . S
H3845 C3855 0.930 . S
C3846 H3840 0.930 . S
C3846 C3847 1.355 . S
C3846 C3848 1.415 . S
C3847 C3846 1.355 . S
C3847 C3849 1.419 . S
C3848 C3846 1.415 . S
C3848 C3853 1.425 . S
C3848 C3855 1.409 . S
C3849 H3841 0.930 . S
C3849 C3847 1.419 . S
C3849 C3850 1.362 . S
C3850 H3842 0.930 . S
C3850 C3849 1.362 . S
C3850 C3853 1.409 . S
C3851 H3843 0.930 . S
C3851 C3852 1.355 . S
C3851 C3853 1.415 . S
C3852 C3851 1.355 . S
C3852 C3854 1.419 . S
C3853 C3848 1.425 . S
C3853 C3850 1.409 . S
C3853 C3851 1.415 . S
C3854 H3844 0.930 . S
C3854 C3852 1.419 . S
C3854 C3855 1.362 . S
C3855 H3845 0.930 . S
C3855 C3848 1.409 . S
C3855 C3854 1.362 . S
H3856 C3862 0.930 . S
H3857 C3865 0.930 . S
H3858 C3866 0.930 . S
H3859 C3867 0.930 . S
H3860 C3870 0.930 . S
H3861 C3871 0.930 . S
C3862 H3856 0.930 . S
C3862 C3863 1.355 . S
C3862 C3864 1.415 . S
C3863 C3862 1.355 . S
C3863 C3865 1.419 . S
C3864 C3862 1.415 . S
C3864 C3869 1.425 . S
C3864 C3871 1.409 . S
C3865 H3857 0.930 . S
C3865 C3863 1.419 . S
C3865 C3866 1.362 . S
C3866 H3858 0.930 . S
C3866 C3865 1.362 . S
C3866 C3869 1.409 . S
C3867 H3859 0.930 . S
C3867 C3868 1.355 . S
C3867 C3869 1.415 . S
C3868 C3867 1.355 . S
C3868 C3870 1.419 . S
C3869 C3864 1.425 . S
C3869 C3866 1.409 . S
C3869 C3867 1.415 . S
C3870 H3860 0.930 . S
C3870 C3868 1.419 . S
C3870 C3871 1.362 . S
C3871 H3861 0.930 . S
C3871 C3864 1.409 . S
C3871 C3870 1.362 . S
H3872 C3878 0.930 . S
H3873 C3881 0.930 . S
H3874 C3882 0.930 . S
H3875 C3883 0.930 . S
H3876 C3886 0.930 . S
H3877 C3887 0.930 . S
C3878 H3872 0.930 . S
C3878 C3879 1.355 . S
C3878 C3880 1.415 . S
C3879 C3878 1.355 . S
C3879 C3881 1.419 . S
C3880 C3878 1.415 . S
C3880 C3885 1.425 . S
C3880 C3887 1.409 . S
C3881 H3873 0.930 . S
C3881 C3879 1.419 . S
C3881 C3882 1.362 . S
C3882 H3874 0.930 . S
C3882 C3881 1.362 . S
C3882 C3885 1.409 . S
C3883 H3875 0.930 . S
C3883 C3884 1.355 . S
C3883 C3885 1.415 . S
C3884 C3883 1.355 . S
C3884 C3886 1.419 . S
C3885 C3880 1.425 . S
C3885 C3882 1.409 . S
C3885 C3883 1.415 . S
C3886 H3876 0.930 . S
C3886 C3884 1.419 . S
C3886 C3887 1.362 . S
C3887 H3877 0.930 . S
C3887 C3880 1.409 . S
C3887 C3886 1.362 . S
H3888 C3894 0.930 . S
H3889 C3897 0.930 . S
H3890 C3898 0.930 . S
H3891 C3899 0.930 . S
H3892 C3902 0.930 . S
H3893 C3903 0.930 . S
C3894 H3888 0.930 . S
C3894 C3895 1.355 . S
C3894 C3896 1.415 . S
C3895 C3894 1.355 . S
C3895 C3897 1.419 . S
C3896 C3894 1.415 . S
C3896 C3901 1.425 . S
C3896 C3903 1.409 . S
C3897 H3889 0.930 . S
C3897 C3895 1.419 . S
C3897 C3898 1.362 . S
C3898 H3890 0.930 . S
C3898 C3897 1.362 . S
C3898 C3901 1.409 . S
C3899 H3891 0.930 . S
C3899 C3900 1.355 . S
C3899 C3901 1.415 . S
C3900 C3899 1.355 . S
C3900 C3902 1.419 . S
C3901 C3896 1.425 . S
C3901 C3898 1.409 . S
C3901 C3899 1.415 . S
C3902 H3892 0.930 . S
C3902 C3900 1.419 . S
C3902 C3903 1.362 . S
C3903 H3893 0.930 . S
C3903 C3896 1.409 . S
C3903 C3902 1.362 . S
H3904 C3910 0.930 . S
H3905 C3913 0.930 . S
H3906 C3914 0.930 . S
H3907 C3915 0.930 . S
H3908 C3918 0.930 . S
H3909 C3919 0.930 . S
C3910 H3904 0.930 . S
C3910 C3911 1.355 . S
C3910 C3912 1.415 . S
C3911 C3910 1.355 . S
C3911 C3913 1.419 . S
C3912 C3910 1.415 . S
C3912 C3917 1.425 . S
C3912 C3919 1.409 . S
C3913 H3905 0.930 . S
C3913 C3911 1.419 . S
C3913 C3914 1.362 . S
C3914 H3906 0.930 . S
C3914 C3913 1.362 . S
C3914 C3917 1.409 . S
C3915 H3907 0.930 . S
C3915 C3916 1.355 . S
C3915 C3917 1.415 . S
C3916 C3915 1.355 . S
C3916 C3918 1.419 . S
C3917 C3912 1.425 . S
C3917 C3914 1.409 . S
C3917 C3915 1.415 . S
C3918 H3908 0.930 . S
C3918 C3916 1.419 . S
C3918 C3919 1.362 . S
C3919 H3909 0.930 . S
C3919 C3912 1.409 . S
C3919 C3918 1.362 . S
H3920 C3926 0.930 . S
H3921 C3929 0.930 . S
H3922 C3930 0.930 . S
H3923 C3931 0.930 . S
H3924 C3934 0.930 . S
H3925 C3935 0.930 . S
C3926 H3920 0.930 . S
C3926 C3927 1.355 . S
C3926 C3928 1.415 . S
C3927 C3926 1.355 . S
C3927 C3929 1.419 . S
C3928 C3926 1.415 . S
C3928 C3933 1.425 . S
C3928 C3935 1.409 . S
C3929 H3921 0.930 . S
C3929 C3927 1.419 . S
C3929 C3930 1.362 . S
C3930 H3922 0.930 . S
C3930 C3929 1.362 . S
C3930 C3933 1.409 . S
C3931 H3923 0.930 . S
C3931 C3932 1.355 . S
C3931 C3933 1.415 . S
C3932 C3931 1.355 . S
C3932 C3934 1.419 . S
C3933 C3928 1.425 . S
C3933 C3930 1.409 . S
C3933 C3931 1.415 . S
C3934 H3924 0.930 . S
C3934 C3932 1.419 . S
C3934 C3935 1.362 . S
C3935 H3925 0.930 . S
C3935 C3928 1.409 . S
C3935 C3934 1.362 . S
H3936 C3942 0.930 . S
H3937 C3945 0.930 . S
H3938 C3946 0.930 . S
H3939 C3947 0.930 . S
H3940 C3950 0.930 . S
H3941 C3951 0.930 . S
C3942 H3936 0.930 . S
C3942 C3943 1.355 . S
C3942 C3944 1.415 . S
C3943 C3942 1.355 . S
C3943 C3945 1.419 . S
C3944 C3942 1.415 . S
C3944 C3949 1.425 . S
C3944 C3951 1.409 . S
C3945 H3937 0.930 . S
C3945 C3943 1.419 . S
C3945 C3946 1.362 . S
C3946 H3938 0.930 . S
C3946 C3945 1.362 . S
C3946 C3949 1.409 . S
C3947 H3939 0.930 . S
C3947 C3948 1.355 . S
C3947 C3949 1.415 . S
C3948 C3947 1.355 . S
C3948 C3950 1.419 . S
C3949 C3944 1.425 . S
C3949 C3946 1.409 . S
C3949 C3947 1.415 . S
C3950 H3940 0.930 . S
C3950 C3948 1.419 . S
C3950 C3951 1.362 . S
C3951 H3941 0.930 . S
C3951 C3944 1.409 . S
C3951 C3950 1.362 . S
H3952 C3958 0.930 . S
H3953 C3961 0.930 . S
H3954 C3962 0.930 . S
H3955 C3963 0.930 . S
H3956 C3966 0.930 . S
H3957 C3967 0.930 . S
C3958 H3952 0.930 . S
C3958 C3959 1.355 . S
C3958 C3960 1.415 . S
C3959 C3958 1.355 . S
C3959 C3961 1.419 . S
C3960 C3958 1.415 . S
C3960 C3965 1.425 . S
C3960 C3967 1.409 . S
C3961 H3953 0.930 . S
C3961 C3959 1.419 . S
C3961 C3962 1.362 . S
C3962 H3954 0.930 . S
C3962 C3961 1.362 . S
C3962 C3965 1.409 . S
C3963 H3955 0.930 . S
C3963 C3964 1.355 . S
C3963 C3965 1.415 . S
C3964 C3963 1.355 . S
C3964 C3966 1.419 . S
C3965 C3960 1.425 . S
C3965 C3962 1.409 . S
C3965 C3963 1.415 . S
C3966 H3956 0.930 . S
C3966 C3964 1.419 . S
C3966 C3967 1.362 . S
C3967 H3957 0.930 . S
C3967 C3960 1.409 . S
C3967 C3966 1.362 . S
H3968 C3974 0.930 . S
H3969 C3977 0.930 . S
H3970 C3978 0.930 . S
H3971 C3979 0.930 . S
H3972 C3982 0.930 . S
H3973 C3983 0.930 . S
C3974 H3968 0.930 . S
C3974 C3975 1.355 . S
C3974 C3976 1.415 . S
C3975 C3974 1.355 . S
C3975 C3977 1.419 . S
C3976 C3974 1.415 . S
C3976 C3981 1.425 . S
C3976 C3983 1.409 . S
C3977 H3969 0.930 . S
C3977 C3975 1.419 . S
C3977 C3978 1.362 . S
C3978 H3970 0.930 . S
C3978 C3977 1.362 . S
C3978 C3981 1.409 . S
C3979 H3971 0.930 . S
C3979 C3980 1.355 . S
C3979 C3981 1.415 . S
C3980 C3979 1.355 . S
C3980 C3982 1.419 . S
C3981 C3976 1.425 . S
C3981 C3978 1.409 . S
C3981 C3979 1.415 . S
C3982 H3972 0.930 . S
C3982 C3980 1.419 . S
C3982 C3983 1.362 . S
C3983 H3973 0.930 . S
C3983 C3976 1.409 . S
C3983 C3982 1.362 . S
H3984 C3990 0.930 . S
H3985 C3993 0.930 . S
H3986 C3994 0.930 . S
H3987 C3995 0.930 . S
H3988 C3998 0.930 . S
H3989 C3999 0.930 . S
C3990 H3984 0.930 . S
C3990 C3991 1.355 . S
C3990 C3992 1.415 . S
C3991 C3990 1.355 . S
C3991 C3993 1.419 . S
C3992 C3990 1.415 . S
C3992 C3997 1.425 . S
C3992 C3999 1.409 . S
C3993 H3985 0.930 . S
C3993 C3991 1.419 . S
C3993 C3994 1.362 . S
C3994 H3986 0.930 . S
C3994 C3993 1.362 . S
C3994 C3997 1.409 . S
C3995 H3987 0.930 . S
C3995 C3996 1.355 . S
C3995 C3997 1.415 . S
C3996 C3995 1.355 . S
C3996 C3998 1.419 . S
C3997 C3992 1.425 . S
C3997 C3994 1.409 . S
C3997 C3995 1.415 . S
C3998 H3988 0.930 . S
C3998 C3996 1.419 . S
C3998 C3999 1.362 . S
C3999 H3989 0.930 . S
C3999 C3992 1.409 . S
C3999 C3998 1.362 . S
H4000 C4006 0.930 . S
H4001 C4009 0.930 . S
H4002 C4010 0.930 . S
H4003 C4011 0.930 . S
H4004 C4014 0.930 . S
H4005 C4015 0.930 . S
C4006 H4000 0.930 . S
C4006 C4007 1.355 . S
C4006 C4008 1.415 . S
C4007 C4006 1.355 . S
C4007 C4009 1.419 . S
C4008 C4006 1.415 . S
C4008 C4013 1.425 . S
C4008 C4015 1.409 . S
C4009 H4001 0.930 . S
C4009 C4007 1.419 . S
C4009 C4010 1.362 . S
C4010 H4002 0.930 . S
C4010 C4009 1.362 . S
C4010 C4013 1.409 . S
C4011 H4003 0.930 . S
C4011 C4012 1.355 . S
C4011 C4013 1.415 . S
C4012 C4011 1.355 . S
C4012 C4014 1.419 . S
C4013 C4008 1.425 . S
C4013 C4010 1.409 . S
C4013 C4011 1.415 . S
C4014 H4004 0.930 . S
C4014 C4012 1.419 . S
C4014 C4015 1.362 . S
C4015 H4005 0.930 . S
C4015 C4008 1.409 . S
C4015 C4014 1.362 . S
H4016 C4022 0.930 . S
H4017 C4025 0.930 . S
H4018 C4026 0.930 . S
H4019 C4027 0.930 . S
H4020 C4030 0.930 . S
H4021 C4031 0.930 . S
C4022 H4016 0.930 . S
C4022 C4023 1.355 . S
C4022 C4024 1.415 . S
C4023 C4022 1.355 . S
C4023 C4025 1.419 . S
C4024 C4022 1.415 . S
C4024 C4029 1.425 . S
C4024 C4031 1.409 . S
C4025 H4017 0.930 . S
C4025 C4023 1.419 . S
C4025 C4026 1.362 . S
C4026 H4018 0.930 . S
C4026 C4025 1.362 . S
C4026 C4029 1.409 . S
C4027 H4019 0.930 . S
C4027 C4028 1.355 . S
C4027 C4029 1.415 . S
C4028 C4027 1.355 . S
C4028 C4030 1.419 . S
C4029 C4024 1.425 . S
C4029 C4026 1.409 . S
C4029 C4027 1.415 . S
C4030 H4020 0.930 . S
C4030 C4028 1.419 . S
C4030 C4031 1.362 . S
C4031 H4021 0.930 . S
C4031 C4024 1.409 . S
C4031 C4030 1.362 . S
H4032 C4038 0.930 . S
H4033 C4041 0.930 . S
H4034 C4042 0.930 . S
H4035 C4043 0.930 . S
H4036 C4046 0.930 . S
H4037 C4047 0.930 . S
C4038 H4032 0.930 . S
C4038 C4039 1.355 . S
C4038 C4040 1.415 . S
C4039 C4038 1.355 . S
C4039 C4041 1.419 . S
C4040 C4038 1.415 . S
C4040 C4045 1.425 . S
C4040 C4047 1.409 . S
C4041 H4033 0.930 . S
C4041 C4039 1.419 . S
C4041 C4042 1.362 . S
C4042 H4034 0.930 . S
C4042 C4041 1.362 . S
C4042 C4045 1.409 . S
C4043 H4035 0.930 . S
C4043 C4044 1.355 . S
C4043 C4045 1.415 . S
C4044 C4043 1.355 . S
C4044 C4046 1.419 . S
C4045 C4040 1.425 . S
C4045 C4042 1.409 . S
C4045 C4043 1.415 . S
C4046 H4036 0.930 . S
C4046 C4044 1.419 . S
C4046 C4047 1.362 . S
C4047 H4037 0.930 . S
C4047 C4040 1.409 . S
C4047 C4046 1.362 . S
H4048 C4054 0.930 . S
H4049 C4057 0.930 . S
H4050 C4058 0.930 . S
H4051 C4059 0.930 . S
H4052 C4062 0.930 . S
H4053 C4063 0.930 . S
C4054 H4048 0.930 . S
C4054 C4055 1.355 . S
C4054 C4056 1.415 . S
C4055 C4054 1.355 . S
C4055 C4057 1.419 . S
C4056 C4054 1.415 . S
C4056 C4061 1.425 . S
C4056 C4063 1.409 . S
C4057 H4049 0.930 . S
C4057 C4055 1.419 . S
C4057 C4058 1.362 . S
C4058 H4050 0.930 . S
C4058 C4057 1.362 . S
C4058 C4061 1.409 . S
C4059 H4051 0.930 . S
C4059 C4060 1.355 . S
C4059 C4061 1.415 . S
C4060 C4059 1.355 . S
C4060 C4062 1.419 . S
C4061 C4056 1.425 . S
C4061 C4058 1.409 . S
C4061 C4059 1.415 . S
C4062 H4052 0.930 . S
C4062 C4060 1.419 . S
C4062 C4063 1.362 . S
C4063 H4053 0.930 . S
C4063 C4056 1.409 . S
C4063 C4062 1.362 . S
H4064 C4070 0.930 . S
H4065 C4073 0.930 . S
H4066 C4074 0.930 . S
H4067 C4075 0.930 . S
H4068 C4078 0.930 . S
H4069 C4079 0.930 . S
C4070 H4064 0.930 . S
C4070 C4071 1.355 . S
C4070 C4072 1.415 . S
C4071 C4070 1.355 . S
C4071 C4073 1.419 . S
C4072 C4070 1.415 . S
C4072 C4077 1.425 . S
C4072 C4079 1.409 . S
C4073 H4065 0.930 . S
C4073 C4071 1.419 . S
C4073 C4074 1.362 . S
C4074 H4066 0.930 . S
C4074 C4073 1.362 . S
C4074 C4077 1.409 . S
C4075 H4067 0.930 . S
C4075 C4076 1.355 . S
C4075 C4077 1.415 . S
C4076 C4075 1.355 . S
C4076 C4078 1.419 . S
C4077 C4072 1.425 . S
C4077 C4074 1.409 . S
C4077 C4075 1.415 . S
C4078 H4068 0.930 . S
C4078 C4076 1.419 . S
C4078 C4079 1.362 . S
C4079 H4069 0.930 . S
C4079 C4072 1.409 . S
C4079 C4078 1.362 . S
H4080 C4086 0.930 . S
H4081 C4089 0.930 . S
H4082 C4090 0.930 . S
H4083 C4091 0.930 . S
H4084 C4094 0.930 . S
H4085 C4095 0.930 . S
C4086 H4080 0.930 . S
C4086 C4087 1.355 . S
C4086 C4088 1.415 . S
C4087 C4086 1.355 . S
C4087 C4089 1.419 . S
C4088 C4086 1.415 . S
C4088 C4093 1.425 . S
C4088 C4095 1.409 . S
C4089 H4081 0.930 . S
C4089 C4087 1.419 . S
C4089 C4090 1.362 . S
C4090 H4082 0.930 . S
C4090 C4089 1.362 . S
C4090 C4093 1.409 . S
C4091 H4083 0.930 . S
C4091 C4092 1.355 . S
C4091 C4093 1.415 . S
C4092 C4091 1.355 . S
C4092 C4094 1.419 . S
C4093 C4088 1.425 . S
C4093 C4090 1.409 . S
C4093 C4091 1.415 . S
C4094 H4084 0.930 . S
C4094 C4092 1.419 . S
C4094 C4095 1.362 . S
C4095 H4085 0.930 . S
C4095 C4088 1.409 . S
C4095 C4094 1.362 . S
H4096 C4102 0.930 . S
H4097 C4105 0.930 . S
H4098 C4106 0.930 . S
H4099 C4107 0.930 . S
H4100 C4110 0.930 . S
H4101 C4111 0.930 . S
C4102 H4096 0.930 . S
C4102 C4103 1.355 . S
C4102 C4104 1.415 . S
C4103 C4102 1.355 . S
C4103 C4105 1.419 . S
C4104 C4102 1.415 . S
C4104 C4109 1.425 . S
C4104 C4111 1.409 . S
C4105 H4097 0.930 . S
C4105 C4103 1.419 . S
C4105 C4106 1.362 . S
C4106 H4098 0.930 . S
C4106 C4105 1.362 . S
C4106 C4109 1.409 . S
C4107 H4099 0.930 . S
C4107 C4108 1.355 . S
C4107 C4109 1.415 . S
C4108 C4107 1.355 . S
C4108 C4110 1.419 . S
C4109 C4104 1.425 . S
C4109 C4106 1.409 . S
C4109 C4107 1.415 . S
C4110 H4100 0.930 . S
C4110 C4108 1.419 . S
C4110 C4111 1.362 . S
C4111 H4101 0.930 . S
C4111 C4104 1.409 . S
C4111 C4110 1.362 . S
H4112 C4118 0.930 . S
H4113 C4121 0.930 . S
H4114 C4122 0.930 . S
H4115 C4123 0.930 . S
H4116 C4126 0.930 . S
H4117 C4127 0.930 . S
C4118 H4112 0.930 . S
C4118 C4119 1.355 . S
C4118 C4120 1.415 . S
C4119 C4118 1.355 . S
C4119 C4121 1.419 . S
C4120 C4118 1.415 . S
C4120 C4125 1.425 . S
C4120 C4127 1.409 . S
C4121 H4113 0.930 . S
C4121 C4119 1.419 . S
C4121 C4122 1.362 . S
C4122 H4114 0.930 . S
C4122 C4121 1.362 . S
C4122 C4125 1.409 . S
C4123 H4115 0.930 . S
C4123 C4124 1.355 . S
C4123 C4125 1.415 . S
C4124 C4123 1.355 . S
C4124 C4126 1.419 . S
C4125 C4120 1.425 . S
C4125 C4122 1.409 . S
C4125 C4123 1.415 . S
C4126 H4116 0.930 . S
C4126 C4124 1.419 . S
C4126 C4127 1.362 . S
C4127 H4117 0.930 . S
C4127 C4120 1.409 . S
C4127 C4126 1.362 . S
H4128 C4134 0.930 . S
H4129 C4137 0.930 . S
H4130 C4138 0.930 . S
H4131 C4139 0.930 . S
H4132 C4142 0.930 . S
H4133 C4143 0.930 . S
C4134 H4128 0.930 . S
C4134 C4135 1.355 . S
C4134 C4136 1.415 . S
C4135 C4134 1.355 . S
C4135 C4137 1.419 . S
C4136 C4134 1.415 . S
C4136 C4141 1.425 . S
C4136 C4143 1.409 . S
C4137 H4129 0.930 . S
C4137 C4135 1.419 . S
C4137 C4138 1.362 . S
C4138 H4130 0.930 . S
C4138 C4137 1.362 . S
C4138 C4141 1.409 . S
C4139 H4131 0.930 . S
C4139 C4140 1.355 . S
C4139 C4141 1.415 . S
C4140 C4139 1.355 . S
C4140 C4142 1.419 . S
C4141 C4136 1.425 . S
C4141 C4138 1.409 . S
C4141 C4139 1.415 . S
C4142 H4132 0.930 . S
C4142 C4140 1.419 . S
C4142 C4143 1.362 . S
C4143 H4133 0.930 . S
C4143 C4136 1.409 . S
C4143 C4142 1.362 . S
H4144 C4150 0.930 . S
H4145 C4153 0.930 . S
H4146 C4154 0.930 . S
H4147 C4155 0.930 . S
H4148 C4158 0.930 . S
H4149 C4159 0.930 . S
C4150 H4144 0.930 . S
C4150 C4151 1.355 . S
C4150 C4152 1.415 . S
C4151 C4150 1.355 . S
C4151 C4153 1.419 . S
C4152 C4150 1.415 . S
C4152 C4157 1.425 . S
C4152 C4159 1.409 . S
C4153 H4145 0.930 . S
C4153 C4151 1.419 . S
C4153 C4154 1.362 . S
C4154 H4146 0.930 . S
C4154 C4153 1.362 . S
C4154 C4157 1.409 . S
C4155 H4147 0.930 . S
C4155 C4156 1.355 . S
C4155 C4157 1.415 . S
C4156 C4155 1.355 . S
C4156 C4158 1.419 . S
C4157 C4152 1.425 . S
C4157 C4154 1.409 . S
C4157 C4155 1.415 . S
C4158 H4148 0.930 . S
C4158 C4156 1.419 . S
C4158 C4159 1.362 . S
C4159 H4149 0.930 . S
C4159 C4152 1.409 . S
C4159 C4158 1.362 . S
H4160 C4166 0.930 . S
H4161 C4169 0.930 . S
H4162 C4170 0.930 . S
H4163 C4171 0.930 . S
H4164 C4174 0.930 . S
H4165 C4175 0.930 . S
C4166 H4160 0.930 . S
C4166 C4167 1.355 . S
C4166 C4168 1.415 . S
C4167 C4166 1.355 . S
C4167 C4169 1.419 . S
C4168 C4166 1.415 . S
C4168 C4173 1.425 . S
C4168 C4175 1.409 . S
C4169 H4161 0.930 . S
C4169 C4167 1.419 . S
C4169 C4170 1.362 . S
C4170 H4162 0.930 . S
C4170 C4169 1.362 . S
C4170 C4173 1.409 . S
C4171 H4163 0.930 . S
C4171 C4172 1.355 . S
C4171 C4173 1.415 . S
C4172 C4171 1.355 . S
C4172 C4174 1.419 . S
C4173 C4168 1.425 . S
C4173 C4170 1.409 . S
C4173 C4171 1.415 . S
C4174 H4164 0.930 . S
C4174 C4172 1.419 . S
C4174 C4175 1.362 . S
C4175 H4165 0.930 . S
C4175 C4168 1.409 . S
C4175 C4174 1.362 . S
H4176 C4182 0.930 . S
H4177 C4185 0.930 . S
H4178 C4186 0.930 . S
H4179 C4187 0.930 . S
H4180 C4190 0.930 . S
H4181 C4191 0.930 . S
C4182 H4176 0.930 . S
C4182 C4183 1.355 . S
C4182 C4184 1.415 . S
C4183 C4182 1.355 . S
C4183 C4185 1.419 . S
C4184 C4182 1.415 . S
C4184 C4189 1.425 . S
C4184 C4191 1.409 . S
C4185 H4177 0.930 . S
C4185 C4183 1.419 . S
C4185 C4186 1.362 . S
C4186 H4178 0.930 . S
C4186 C4185 1.362 . S
C4186 C4189 1.409 . S
C4187 H4179 0.930 . S
C4187 C4188 1.355 . S
C4187 C4189 1.415 . S
C4188 C4187 1.355 . S
C4188 C4190 1.419 . S
C4189 C4184 1.425 . S
C4189 C4186 1.409 . S
C4189 C4187 1.415 . S
C4190 H4180 0.930 . S
C4190 C4188 1.419 . S
C4190 C4191 1.362 . S
C4191 H4181 0.930 . S
C4191 C4184 1.409 . S
C4191 C4190 1.362 . S
H4192 C4198 0.930 . S
H4193 C4201 0.930 . S
H4194 C4202 0.930 . S
H4195 C4203 0.930 . S
H4196 C4206 0.930 . S
H4197 C4207 0.930 . S
C4198 H4192 0.930 . S
C4198 C4199 1.355 . S
C4198 C4200 1.415 . S
C4199 C4198 1.355 . S
C4199 C4201 1.419 . S
C4200 C4198 1.415 . S
C4200 C4205 1.425 . S
C4200 C4207 1.409 . S
C4201 H4193 0.930 . S
C4201 C4199 1.419 . S
C4201 C4202 1.362 . S
C4202 H4194 0.930 . S
C4202 C4201 1.362 . S
C4202 C4205 1.409 . S
C4203 H4195 0.930 . S
C4203 C4204 1.355 . S
C4203 C4205 1.415 . S
C4204 C4203 1.355 . S
C4204 C4206 1.419 . S
C4205 C4200 1.425 . S
C4205 C4202 1.409 . S
C4205 C4203 1.415 . S
C4206 H4196 0.930 . S
C4206 C4204 1.419 . S
C4206 C4207 1.362 . S
C4207 H4197 0.930 . S
C4207 C4200 1.409 . S
C4207 C4206 1.362 . S
H4208 C4214 0.930 . S
H4209 C4217 0.930 . S
H4210 C4218 0.930 . S
H4211 C4219 0.930 . S
H4212 C4222 0.930 . S
H4213 C4223 0.930 . S
C4214 H4208 0.930 . S
C4214 C4215 1.355 . S
C4214 C4216 1.415 . S
C4215 C4214 1.355 . S
C4215 C4217 1.419 . S
C4216 C4214 1.415 . S
C4216 C4221 1.425 . S
C4216 C4223 1.409 . S
C4217 H4209 0.930 . S
C4217 C4215 1.419 . S
C4217 C4218 1.362 . S
C4218 H4210 0.930 . S
C4218 C4217 1.362 . S
C4218 C4221 1.409 . S
C4219 H4211 0.930 . S
C4219 C4220 1.355 . S
C4219 C4221 1.415 . S
C4220 C4219 1.355 . S
C4220 C4222 1.419 . S
C4221 C4216 1.425 . S
C4221 C4218 1.409 . S
C4221 C4219 1.415 . S
C4222 H4212 0.930 . S
C4222 C4220 1.419 . S
C4222 C4223 1.362 . S
C4223 H4213 0.930 . S
C4223 C4216 1.409 . S
C4223 C4222 1.362 . S
H4224 C4230 0.930 . S
H4225 C4233 0.930 . S
H4226 C4234 0.930 . S
H4227 C4235 0.930 . S
H4228 C4238 0.930 . S
H4229 C4239 0.930 . S
C4230 H4224 0.930 . S
C4230 C4231 1.355 . S
C4230 C4232 1.415 . S
C4231 C4230 1.355 . S
C4231 C4233 1.419 . S
C4232 C4230 1.415 . S
C4232 C4237 1.425 . S
C4232 C4239 1.409 . S
C4233 H4225 0.930 . S
C4233 C4231 1.419 . S
C4233 C4234 1.362 . S
C4234 H4226 0.930 . S
C4234 C4233 1.362 . S
C4234 C4237 1.409 . S
C4235 H4227 0.930 . S
C4235 C4236 1.355 . S
C4235 C4237 1.415 . S
C4236 C4235 1.355 . S
C4236 C4238 1.419 . S
C4237 C4232 1.425 . S
C4237 C4234 1.409 . S
C4237 C4235 1.415 . S
C4238 H4228 0.930 . S
C4238 C4236 1.419 . S
C4238 C4239 1.362 . S
C4239 H4229 0.930 . S
C4239 C4232 1.409 . S
C4239 C4238 1.362 . S
H4240 C4246 0.930 . S
H4241 C4249 0.930 . S
H4242 C4250 0.930 . S
H4243 C4251 0.930 . S
H4244 C4254 0.930 . S
H4245 C4255 0.930 . S
C4246 H4240 0.930 . S
C4246 C4247 1.355 . S
C4246 C4248 1.415 . S
C4247 C4246 1.355 . S
C4247 C4249 1.419 . S
C4248 C4246 1.415 . S
C4248 C4253 1.425 . S
C4248 C4255 1.409 . S
C4249 H4241 0.930 . S
C4249 C4247 1.419 . S
C4249 C4250 1.362 . S
C4250 H4242 0.930 . S
C4250 C4249 1.362 . S
C4250 C4253 1.409 . S
C4251 H4243 0.930 . S
C4251 C4252 1.355 . S
C4251 C4253 1.415 . S
C4252 C4251 1.355 . S
C4252 C4254 1.419 . S
C4253 C4248 1.425 . S
C4253 C4250 1.409 . S
C4253 C4251 1.415 . S
C4254 H4244 0.930 . S
C4254 C4252 1.419 . S
C4254 C4255 1.362 . S
C4255 H4245 0.930 . S
C4255 C4248 1.409 . S
C4255 C4254 1.362 . S
H4256 C4262 0.930 . S
H4257 C4265 0.930 . S
H4258 C4266 0.930 . S
H4259 C4267 0.930 . S
H4260 C4270 0.930 . S
H4261 C4271 0.930 . S
C4262 H4256 0.930 . S
C4262 C4263 1.355 . S
C4262 C4264 1.415 . S
C4263 C4262 1.355 . S
C4263 C4265 1.419 . S
C4264 C4262 1.415 . S
C4264 C4269 1.425 . S
C4264 C4271 1.409 . S
C4265 H4257 0.930 . S
C4265 C4263 1.419 . S
C4265 C4266 1.362 . S
C4266 H4258 0.930 . S
C4266 C4265 1.362 . S
C4266 C4269 1.409 . S
C4267 H4259 0.930 . S
C4267 C4268 1.355 . S
C4267 C4269 1.415 . S
C4268 C4267 1.355 . S
C4268 C4270 1.419 . S
C4269 C4264 1.425 . S
C4269 C4266 1.409 . S
C4269 C4267 1.415 . S
C4270 H4260 0.930 . S
C4270 C4268 1.419 . S
C4270 C4271 1.362 . S
C4271 H4261 0.930 . S
C4271 C4264 1.409 . S
C4271 C4270 1.362 . S
H4272 C4278 0.930 . S
H4273 C4281 0.930 . S
H4274 C4282 0.930 . S
H4275 C4283 0.930 . S
H4276 C4286 0.930 . S
H4277 C4287 0.930 . S
C4278 H4272 0.930 . S
C4278 C4279 1.355 . S
C4278 C4280 1.415 . S
C4279 C4278 1.355 . S
C4279 C4281 1.419 . S
C4280 C4278 1.415 . S
C4280 C4285 1.425 . S
C4280 C4287 1.409 . S
C4281 H4273 0.930 . S
C4281 C4279 1.419 . S
C4281 C4282 1.362 . S
C4282 H4274 0.930 . S
C4282 C4281 1.362 . S
C4282 C4285 1.409 . S
C4283 H4275 0.930 . S
C4283 C4284 1.355 . S
C4283 C4285 1.415 . S
C4284 C4283 1.355 . S
C4284 C4286 1.419 . S
C4285 C4280 1.425 . S
C4285 C4282 1.409 . S
C4285 C4283 1.415 . S
C4286 H4276 0.930 . S
C4286 C4284 1.419 . S
C4286 C4287 1.362 . S
C4287 H4277 0.930 . S
C4287 C4280 1.409 . S
C4287 C4286 1.362 . S
H4288 C4294 0.930 . S
H4289 C4297 0.930 . S
H4290 C4298 0.930 . S
H4291 C4299 0.930 . S
H4292 C4302 0.930 . S
H4293 C4303 0.930 . S
C4294 H4288 0.930 . S
C4294 C4295 1.355 . S
C4294 C4296 1.415 . S
C4295 C4294 1.355 . S
C4295 C4297 1.419 . S
C4296 C4294 1.415 . S
C4296 C4301 1.425 . S
C4296 C4303 1.409 . S
C4297 H4289 0.930 . S
C4297 C4295 1.419 . S
C4297 C4298 1.362 . S
C4298 H4290 0.930 . S
C4298 C4297 1.362 . S
C4298 C4301 1.409 . S
C4299 H4291 0.930 . S
C4299 C4300 1.355 . S
C4299 C4301 1.415 . S
C4300 C4299 1.355 . S
C4300 C4302 1.419 . S
C4301 C4296 1.425 . S
C4301 C4298 1.409 . S
C4301 C4299 1.415 . S
C4302 H4292 0.930 . S
C4302 C4300 1.419 . S
C4302 C4303 1.362 . S
C4303 H4293 0.930 . S
C4303 C4296 1.409 . S
C4303 C4302 1.362 . S
H4304 C4310 0.930 . S
H4305 C4313 0.930 . S
H4306 C4314 0.930 . S
H4307 C4315 0.930 . S
H4308 C4318 0.930 . S
H4309 C4319 0.930 . S
C4310 H4304 0.930 . S
C4310 C4311 1.355 . S
C4310 C4312 1.415 . S
C4311 C4310 1.355 . S
C4311 C4313 1.419 . S
C4312 C4310 1.415 . S
C4312 C4317 1.425 . S
C4312 C4319 1.409 . S
C4313 H4305 0.930 . S
C4313 C4311 1.419 . S
C4313 C4314 1.362 . S
C4314 H4306 0.930 . S
C4314 C4313 1.362 . S
C4314 C4317 1.409 . S
C4315 H4307 0.930 . S
C4315 C4316 1.355 . S
C4315 C4317 1.415 . S
C4316 C4315 1.355 . S
C4316 C4318 1.419 . S
C4317 C4312 1.425 . S
C4317 C4314 1.409 . S
C4317 C4315 1.415 . S
C4318 H4308 0.930 . S
C4318 C4316 1.419 . S
C4318 C4319 1.362 . S
C4319 H4309 0.930 . S
C4319 C4312 1.409 . S
C4319 C4318 1.362 . S
C1255 C4 1.692 . S
C1260 C888 1.697 . S
C1271 C855 1.704 . S
C1276 C23 1.699 . S
C1287 C862 1.706 . S
C1292 C30 1.710 . S
C1303 C49 1.713 . S
C1308 C875 1.713 . S
C1319 C933 1.699 . S
C1324 C62 1.704 . S
C1335 C901 1.702 . S
C1340 C69 1.696 . S
C1351 C914 1.684 . S
C1356 C82 1.686 . S
C1367 C101 1.686 . S
C1372 C836 1.684 . S
C1383 C108 1.683 . S
C1388 C829 1.684 . S
C1399 C121 1.713 . S
C1404 C790 1.711 . S
C1415 C134 1.683 . S
C1420 C803 1.684 . S
C1431 C147 1.691 . S
C1436 C816 1.687 . S
C1447 C160 1.683 . S
C1452 C745 1.685 . S
C1463 C764 1.710 . S
C1468 C179 1.706 . S
C1479 C777 1.706 . S
C1484 C192 1.702 . S
C1495 C205 1.705 . S
C1500 C732 1.699 . S
C1511 C218 1.683 . S
C1516 C719 1.684 . S
C1527 C231 1.712 . S
C1532 C647 1.708 . S
C1543 C654 1.684 . S
C1548 C238 1.683 . S
C1559 C673 1.685 . S
C1564 C257 1.688 . S
C1575 C628 1.692 . S
C1580 C270 1.698 . S
C1591 C277 1.696 . S
C1596 C699 1.701 . S
C1607 C290 1.705 . S
C1612 C706 1.709 . S
C1623 C309 1.685 . S
C1628 C680 1.689 . S
C1639 C316 1.683 . S
C1644 C1200 1.685 . S
C1655 C335 1.697 . S
C1660 C1161 1.692 . S
C1671 C342 1.712 . S
C1676 C1174 1.710 . S
C1687 C361 1.683 . S
C1692 C1193 1.684 . S
C1703 C368 1.705 . S
C1708 C1239 1.699 . S
C1719 C381 1.703 . S
C1724 C1219 1.697 . S
C1735 C1232 1.686 . S
C1740 C400 1.690 . S
C1751 C407 1.699 . S
C1756 C1154 1.694 . S
C1767 C420 1.713 . S
C1772 C1141 1.712 . S
C1783 C1102 1.712 . S
C1788 C433 1.709 . S
C1799 C452 1.710 . S
C1804 C1109 1.706 . S
C1815 C459 1.699 . S
C1820 C1122 1.704 . S
C1831 C478 1.691 . S
C1836 C1063 1.687 . S
C1847 C485 1.691 . S
C1852 C1076 1.687 . S
C1863 C498 1.709 . S
C1868 C1083 1.705 . S
C1879 C1044 1.683 . S
C1884 C517 1.685 . S
C1895 C524 1.687 . S
C1900 C1037 1.691 . S
C1911 C543 1.713 . S
C1916 C953 1.711 . S
C1927 C550 1.688 . S
C1932 C966 1.693 . S
C1943 C985 1.684 . S
C1948 C563 1.686 . S
C1959 C582 1.713 . S
C1964 C946 1.713 . S
C1975 C1005 1.712 . S
C1980 C589 1.709 . S
C1991 C602 1.690 . S
C1996 C1024 1.695 . S
C2007 C615 1.713 . S
C2012 C992 1.710 . S
C2023 C3 1.423 . S
C2028 C512 1.433 . S
C2039 C18 1.434 . S
C2044 C473 1.422 . S
C2055 C484 1.418 . S
C2060 C29 1.438 . S
C2071 C44 1.439 . S
C2076 C497 1.417 . S
C2087 C432 1.424 . S
C2092 C57 1.432 . S
C2103 C447 1.424 . S
C2108 C68 1.433 . S
C2119 C458 1.438 . S
C2124 C81 1.418 . S
C2135 C419 1.429 . S
C2140 C96 1.427 . S
C2151 C406 1.421 . S
C2156 C107 1.435 . S
C2167 C120 1.417 . S
C2172 C367 1.439 . S
C2183 C380 1.417 . S
C2188 C133 1.439 . S
C2199 C146 1.427 . S
C2204 C395 1.429 . S
C2215 C330 1.425 . S
C2220 C159 1.431 . S
C2231 C341 1.439 . S
C2236 C174 1.417 . S
C2247 C187 1.437 . S
C2252 C356 1.419 . S
C2263 C200 1.419 . S
C2268 C315 1.437 . S
C2279 C213 1.417 . S
C2284 C577 1.439 . S
C2295 C226 1.430 . S
C2300 C614 1.426 . S
C2311 C588 1.431 . S
C2316 C237 1.425 . S
C2327 C601 1.431 . S
C2332 C252 1.425 . S
C2343 C265 1.436 . S
C2348 C523 1.420 . S
C2359 C276 1.430 . S
C2364 C549 1.426 . S
C2375 C562 1.431 . S
C2380 C289 1.425 . S
C2391 C304 1.418 . S
C2396 C538 1.438 . S
C2407 C1136 1.419 . S
C2412 C627 1.437 . S
C2423 C1097 1.422 . S
C2428 C642 1.434 . S
C2439 C1108 1.418 . S
C2444 C653 1.438 . S
C2455 C668 1.418 . S
C2460 C1121 1.438 . S
C2471 C1058 1.425 . S
C2476 C679 1.431 . S
C2487 C1071 1.437 . S
C2492 C694 1.419 . S
C2503 C705 1.419 . S
C2508 C1082 1.437 . S
C2519 C718 1.417 . S
C2524 C1043 1.438 . S
C2535 C1032 1.435 . S
C2540 C731 1.421 . S
C2551 C744 1.423 . S
C2556 C991 1.433 . S
C2567 C1004 1.419 . S
C2572 C759 1.437 . S
C2583 C1019 1.439 . S
C2588 C772 1.417 . S
C2599 C785 1.417 . S
C2604 C952 1.439 . S
C2615 C798 1.428 . S
C2620 C965 1.428 . S
C2631 C980 1.420 . S
C2636 C811 1.436 . S
C2647 C824 1.439 . S
C2652 C941 1.417 . S
C2663 C1199 1.433 . S
C2668 C835 1.423 . S
C2679 C1238 1.433 . S
C2684 C850 1.423 . S
C2695 C861 1.423 . S
C2700 C1214 1.433 . S
C2711 C1227 1.424 . S
C2716 C874 1.432 . S
C2727 C1149 1.423 . S
C2732 C887 1.433 . S
C2743 C1173 1.431 . S
C2748 C900 1.425 . S
C2759 C913 1.420 . S
C2764 C1188 1.436 . S
C2775 C1160 1.418 . S
C2780 C928 1.438 . S
C2791 C5 1.278 . S
C2796 C369 1.262 . S
C2807 C382 1.280 . S
C2812 C16 1.259 . S
C2823 C31 1.284 . S
C2828 C393 1.255 . S
C2839 C408 1.254 . S
C2844 C42 1.286 . S
C2855 C55 1.281 . S
C2860 C317 1.258 . S
C2871 C70 1.288 . S
C2876 C328 1.252 . S
C2887 C83 1.259 . S
C2892 C343 1.280 . S
C2903 C354 1.270 . S
C2908 C94 1.270 . S
C2919 C499 1.265 . S
C2924 C109 1.275 . S
C2935 C122 1.255 . S
C2940 C510 1.285 . S
C2951 C135 1.274 . S
C2956 C471 1.266 . S
C2967 C148 1.255 . S
C2972 C486 1.285 . S
C2983 C161 1.258 . S
C2988 C445 1.282 . S
C2999 C172 1.276 . S
C3004 C460 1.263 . S
C3015 C185 1.276 . S
C3020 C421 1.264 . S
C3031 C198 1.252 . S
C3036 C434 1.288 . S
C3047 C211 1.286 . S
C3052 C590 1.253 . S
C3063 C224 1.288 . S
C3068 C564 1.252 . S
C3079 C575 1.287 . S
C3084 C239 1.253 . S
C3095 C250 1.252 . S
C3100 C536 1.288 . S
C3111 C551 1.252 . S
C3116 C263 1.288 . S
C3127 C278 1.279 . S
C3132 C525 1.261 . S
C3143 C291 1.288 . S
C3148 C616 1.252 . S
C3159 C603 1.252 . S
C3164 C302 1.288 . S
C3175 C993 1.276 . S
C3180 C629 1.264 . S
C3191 C640 1.287 . S
C3196 C1006 1.252 . S
C3207 C1017 1.254 . S
C3212 C655 1.285 . S
C3223 C666 1.286 . S
C3228 C1030 1.254 . S
C3239 C939 1.274 . S
C3244 C681 1.266 . S
C3255 C954 1.254 . S
C3260 C692 1.286 . S
C3271 C967 1.288 . S
C3276 C707 1.252 . S
C3287 C720 1.252 . S
C3292 C978 1.288 . S
C3303 C733 1.261 . S
C3308 C1123 1.279 . S
C3319 C1134 1.254 . S
C3324 C746 1.285 . S
C3335 C1095 1.283 . S
C3340 C757 1.257 . S
C3351 C1110 1.262 . S
C3356 C770 1.278 . S
C3367 C783 1.262 . S
C3372 C1069 1.278 . S
C3383 C796 1.269 . S
C3388 C1084 1.271 . S
C3399 C1045 1.284 . S
C3404 C809 1.256 . S
C3415 C1056 1.281 . S
C3420 C822 1.259 . S
C3431 C1212 1.288 . S
C3436 C837 1.252 . S
C3447 C848 1.264 . S
C3452 C1186 1.276 . S
C3463 C1201 1.287 . S
C3468 C863 1.253 . S
C3479 C876 1.252 . S
C3484 C1162 1.288 . S
C3495 C889 1.255 . S
C3500 C1175 1.285 . S
C3511 C902 1.282 . S
C3516 C1147 1.258 . S
C3527 C1240 1.288 . S
C3532 C915 1.251 . S
C3543 C926 1.255 . S
C3548 C1225 1.285 . S
C3559 C413 1.687 . S
C3564 C10 1.653 . S
C3575 C374 1.653 . S
C3580 C17 1.687 . S
C3591 C36 1.684 . S
C3596 C387 1.655 . S
C3607 C394 1.657 . S
C3612 C43 1.683 . S
C3623 C329 1.680 . S
C3628 C56 1.659 . S
C3639 C75 1.668 . S
C3644 C348 1.672 . S
C3655 C88 1.658 . S
C3660 C355 1.682 . S
C3671 C322 1.657 . S
C3676 C95 1.683 . S
C3687 C576 1.664 . S
C3692 C114 1.676 . S
C3703 C127 1.687 . S
C3708 C537 1.652 . S
C3719 C140 1.685 . S
C3724 C556 1.655 . S
C3735 C569 1.677 . S
C3740 C153 1.663 . S
C3751 C166 1.655 . S
C3756 C621 1.685 . S
C3767 C595 1.687 . S
C3772 C173 1.652 . S
C3783 C608 1.678 . S
C3788 C186 1.662 . S
C3799 C199 1.686 . S
C3804 C530 1.654 . S
C3815 C212 1.654 . S
C3820 C511 1.686 . S
C3831 C225 1.658 . S
C3836 C439 1.681 . S
C3847 C244 1.658 . S
C3852 C446 1.681 . S
C3863 C465 1.653 . S
C3868 C251 1.687 . S
C3879 C426 1.687 . S
C3884 C264 1.653 . S
C3895 C283 1.674 . S
C3900 C491 1.666 . S
C3911 C296 1.653 . S
C3916 C504 1.687 . S
C3927 C303 1.652 . S
C3932 C472 1.687 . S
C3943 C634 1.684 . S
C3948 C1031 1.656 . S
C3959 C641 1.686 . S
C3964 C998 1.654 . S
C3975 C660 1.653 . S
C3980 C1011 1.686 . S
C3991 C1018 1.653 . S
C3996 C667 1.687 . S
C4007 C959 1.654 . S
C4012 C686 1.686 . S
C4023 C972 1.654 . S
C4028 C693 1.685 . S
C4039 C712 1.652 . S
C4044 C979 1.687 . S
C4055 C940 1.683 . S
C4060 C725 1.657 . S
C4071 C1206 1.685 . S
C4076 C738 1.655 . S
C4087 C1167 1.652 . S
C4092 C751 1.687 . S
C4103 C1180 1.655 . S
C4108 C758 1.685 . S
C4119 C1187 1.677 . S
C4124 C771 1.663 . S
C4135 C1245 1.673 . S
C4140 C784 1.667 . S
C4151 C1213 1.687 . S
C4156 C797 1.653 . S
C4167 C1226 1.675 . S
C4172 C810 1.665 . S
C4183 C1148 1.657 . S
C4188 C823 1.683 . S
C4199 C842 1.675 . S
C4204 C1135 1.665 . S
C4215 C1057 1.654 . S
C4220 C849 1.686 . S
C4231 C1070 1.679 . S
C4236 C868 1.661 . S
C4247 C1089 1.652 . S
C4252 C881 1.687 . S
C4263 C1050 1.677 . S
C4268 C894 1.663 . S
C4279 C1115 1.653 . S
C4284 C907 1.686 . S
C4295 C1128 1.686 . S
C4300 C920 1.653 . S
C4311 C1096 1.669 . S
C4316 C927 1.671 . S
