# Generated by pormake.
# Topology smm, (6)-cn, num edge types: 1
# Building blocks:
#     Node 0, Type 0, BuildingBlock: JUFBIX_clean_sbu_0, # of connection points: 6
#     Node 1, Type 0, BuildingBlock: JUFBIX_clean_sbu_0, # of connection points: 6
#     Node 2, Type 0, BuildingBlock: JUFBIX_clean_sbu_0, # of connection points: 6
#     Node 3, Type 0, BuildingBlock: JUFBIX_clean_sbu_0, # of connection points: 6
#     Node 4, Type 0, BuildingBlock: JUFBIX_clean_sbu_0, # of connection points: 6
#     Node 5, Type 0, BuildingBlock: JUFBIX_clean_sbu_0, # of connection points: 6
#     Node 6, Type 0, BuildingBlock: JUFBIX_clean_sbu_0, # of connection points: 6
#     Node 7, Type 0, BuildingBlock: JUFBIX_clean_sbu_0, # of connection points: 6
#     Node 8, Type 0, BuildingBlock: JUFBIX_clean_sbu_0, # of connection points: 6
#     Edge 9, Type (0, 0), BuildingBlock: CIFDUS_clean_linker_0, # of connection points: 2
#     Edge 10, Type (0, 0), BuildingBlock: CIFDUS_clean_linker_0, # of connection points: 2
#     Edge 11, Type (0, 0), BuildingBlock: CIFDUS_clean_linker_0, # of connection points: 2
#     Edge 12, Type (0, 0), BuildingBlock: CIFDUS_clean_linker_0, # of connection points: 2
#     Edge 13, Type (0, 0), BuildingBlock: CIFDUS_clean_linker_0, # of connection points: 2
#     Edge 14, Type (0, 0), BuildingBlock: CIFDUS_clean_linker_0, # of connection points: 2
#     Edge 15, Type (0, 0), BuildingBlock: CIFDUS_clean_linker_0, # of connection points: 2
#     Edge 16, Type (0, 0), BuildingBlock: CIFDUS_clean_linker_0, # of connection points: 2
#     Edge 17, Type (0, 0), BuildingBlock: CIFDUS_clean_linker_0, # of connection points: 2
#     Edge 18, Type (0, 0), BuildingBlock: CIFDUS_clean_linker_0, # of connection points: 2
#     Edge 19, Type (0, 0), BuildingBlock: CIFDUS_clean_linker_0, # of connection points: 2
#     Edge 20, Type (0, 0), BuildingBlock: CIFDUS_clean_linker_0, # of connection points: 2
#     Edge 21, Type (0, 0), BuildingBlock: CIFDUS_clean_linker_0, # of connection points: 2
#     Edge 22, Type (0, 0), BuildingBlock: CIFDUS_clean_linker_0, # of connection points: 2
#     Edge 23, Type (0, 0), BuildingBlock: CIFDUS_clean_linker_0, # of connection points: 2
#     Edge 24, Type (0, 0), BuildingBlock: CIFDUS_clean_linker_0, # of connection points: 2
#     Edge 25, Type (0, 0), BuildingBlock: CIFDUS_clean_linker_0, # of connection points: 2
#     Edge 26, Type (0, 0), BuildingBlock: CIFDUS_clean_linker_0, # of connection points: 2
#     Edge 27, Type (0, 0), BuildingBlock: CIFDUS_clean_linker_0, # of connection points: 2
#     Edge 28, Type (0, 0), BuildingBlock: CIFDUS_clean_linker_0, # of connection points: 2
#     Edge 29, Type (0, 0), BuildingBlock: CIFDUS_clean_linker_0, # of connection points: 2
#     Edge 30, Type (0, 0), BuildingBlock: CIFDUS_clean_linker_0, # of connection points: 2
#     Edge 31, Type (0, 0), BuildingBlock: CIFDUS_clean_linker_0, # of connection points: 2
#     Edge 32, Type (0, 0), BuildingBlock: CIFDUS_clean_linker_0, # of connection points: 2
#     Edge 33, Type (0, 0), BuildingBlock: CIFDUS_clean_linker_0, # of connection points: 2
#     Edge 34, Type (0, 0), BuildingBlock: CIFDUS_clean_linker_0, # of connection points: 2
#     Edge 35, Type (0, 0), BuildingBlock: CIFDUS_clean_linker_0, # of connection points: 2
# Relax obj value: 0.250
# Max RMSD: 0.203
# Mean RMSD: 0.203
data_MOF--net-smm--node1-JUFBIX_clean_sbu_0--edge1-CIFDUS_clean_linker_0
_symmetry_space_group_name_H-M    P1
_symmetry_Int_Tables_number       1
_symmetry_cell_setting            triclinic
loop_
_symmetry_equiv_pos_as_xyz
'x, y, z'
_cell_length_a     51.774946
_cell_length_b     51.788209
_cell_length_c     12.999789
_cell_angle_alpha  90.10676
_cell_angle_beta   90.05586
_cell_angle_gamma 119.89402
loop_
_atom_site_label
_atom_site_type_symbol
_atom_site_fract_x
_atom_site_fract_y
_atom_site_fract_z
_atom_type_partial_charge
Co0 Co 1.00977 0.17171 -0.01949 0.0
C1 C 0.02535 0.18891 0.18215 0.0
Co2 Co 0.04556 0.21871 -0.00385 0.0
C3 C 0.97763 0.1069 -0.00667 0.0
C4 C 0.95374 0.12409 0.91052 0.0
N5 N 0.97907 0.13263 0.96386 0.0
N6 N 0.95237 0.08264 0.96024 0.0
C7 C 0.93733 0.09353 0.90828 0.0
H8 H 0.99497 0.10605 0.03717 0.0
H9 H 0.94796 0.13913 0.87281 0.0
C10 C 0.02974 0.20121 0.7943 0.0
N11 N 0.07659 0.25767 0.01007 0.0
C12 C 0.08374 0.28093 0.94679 0.0
C13 C 0.09851 0.26819 0.08109 0.0
N14 N 0.1094 0.30552 0.97477 0.0
C15 C 0.1186 0.29752 0.05988 0.0
C16 C 0.06608 0.17837 0.97742 0.0
O17 O 1.01122 0.17671 0.8358 0.0
O18 O 0.04713 0.22296 0.85116 0.0
O19 O 0.07375 0.20562 -0.01111 0.0
O20 O 0.03855 0.1591 0.97064 0.0
O21 O 0.0434 0.21373 0.14101 0.0
H22 H 0.10018 0.25517 0.14301 0.0
H23 H 0.07081 0.27946 0.87938 0.0
O24 O 1.00849 0.16688 0.12507 0.0
O25 O 0.98147 0.18517 -0.0078 0.0
O26 O 0.01723 0.23171 0.00464 0.0
C27 C 0.98957 0.2126 0.00387 0.0
H28 H 0.91645 0.08042 0.86793 0.0
H29 H 0.13848 0.31173 0.10388 0.0
Co30 Co 0.88152 0.85478 -0.00404 0.0
C31 C 0.8528 0.85119 0.18185 0.0
Co32 Co 0.83489 0.84495 -0.02002 0.0
C33 C 0.94629 0.87992 0.97447 0.0
C34 C 0.9257 0.84405 0.08205 0.0
N35 N 0.91967 0.86061 0.01676 0.0
N36 N 0.96844 0.87561 0.01017 0.0
C37 C 0.95546 0.85308 0.07785 0.0
H38 H 0.94931 0.89654 0.91806 0.0
H39 H 0.90943 0.82647 0.13028 0.0
C40 C 0.86356 0.84856 0.79418 0.0
N41 N 0.79623 0.83763 0.96041 0.0
C42 C 0.77417 0.81497 0.90668 0.0
C43 C 0.78399 0.85354 -0.00378 0.0
N44 N 0.74865 0.81609 0.90738 0.0
C45 C 0.75481 0.84042 0.96356 0.0
C46 C 0.87768 0.90579 -0.02085 0.0
O47 O 0.88573 0.85396 0.85108 0.0
O48 O 0.83927 0.84357 0.83567 0.0
O49 O 0.85005 0.88672 0.9717 0.0
O50 O 0.89633 0.89675 -0.0094 0.0
O51 O 0.83088 0.84645 0.12481 0.0
H52 H 0.79548 0.87329 0.04364 0.0
H53 H 0.77687 0.79808 0.86699 0.0
O54 O 0.87685 0.85553 0.14042 0.0
O55 O 0.8662 0.81283 0.00196 0.0
O56 O 0.82022 0.80347 -0.00999 0.0
C57 C 0.83849 0.79412 0.00115 0.0
H58 H 0.96683 0.8442 0.12298 0.0
H59 H 0.73916 0.84784 -0.01822 0.0
Co60 Co 0.1951 0.04344 -0.01258 0.0
C61 C 0.19532 0.0177 0.17398 0.0
Co62 Co 0.20063 1.00393 0.97251 0.0
C63 C 0.16806 0.07994 0.96311 0.0
C64 C 0.20631 0.10063 0.06138 0.0
N65 N 0.19035 0.07645 0.00163 0.0
N66 N 0.16912 0.10505 -0.0024 0.0
C67 C 0.19336 0.11827 0.0589 0.0
H68 H 0.15088 0.06392 0.91268 0.0
H69 H 0.22535 0.10452 0.1074 0.0
C70 C 0.20042 0.02979 0.78616 0.0
N71 N 0.20452 0.97026 0.95942 0.0
C72 C 0.22238 0.96495 0.89749 0.0
C73 C 0.18808 0.94458 0.01088 0.0
N74 N 0.2175 0.93685 0.90799 0.0
C75 C 0.19597 0.92412 -0.02028 0.0
C76 C 0.1414 0.99099 0.96674 0.0
O77 O 0.19683 0.04778 0.84286 0.0
O78 O 0.20312 0.00903 0.82766 0.0
O79 O 0.15789 0.97926 0.96102 0.0
O80 O 0.1535 0.01887 -0.02038 0.0
O81 O 0.19809 0.99926 0.1172 0.0
H82 H 0.17121 0.9409 0.06718 0.0
H83 H 0.23818 0.9812 0.84437 0.0
O84 O 0.19343 0.03889 0.13246 0.0
O85 O 0.23671 0.06776 -0.00429 0.0
O86 O 0.24327 0.0291 -0.01421 0.0
C87 C 0.25413 0.05712 -0.0034 0.0
H88 H 0.20034 0.13841 0.10319 0.0
H89 H 0.18674 0.90167 0.00876 0.0
Co90 Co 0.66562 0.50216 0.34226 0.0
C91 C 0.69014 0.53007 0.52822 0.0
Co92 Co 0.70236 0.54864 0.32619 0.0
C93 C 0.63417 0.43755 0.3257 0.0
C94 C 0.60954 0.45328 0.41179 0.0
N95 N 0.63497 0.46281 0.35811 0.0
N96 N 0.60936 0.41271 0.3573 0.0
C97 C 0.59376 0.42261 0.4111 0.0
H98 H 0.65163 0.43735 0.28065 0.0
H99 H 0.60327 0.46765 0.45178 0.0
C100 C 0.67772 0.52058 0.14029 0.0
N101 N 0.73311 0.58732 0.31019 0.0
C102 C 0.73405 0.60822 0.24602 0.0
C103 C 0.7601 0.60022 0.35583 0.0
N104 N 0.76064 0.6336 0.24909 0.0
C105 C 0.7771 0.62866 0.31826 0.0
C106 C 0.72179 0.50775 0.32344 0.0
O107 O 0.66057 0.49876 0.19721 0.0
O108 O 0.69751 0.54462 0.18172 0.0
O109 O 0.72986 0.53518 0.31922 0.0
O110 O 0.69424 0.48881 0.33301 0.0
O111 O 0.70684 0.55216 0.47149 0.0
H112 H 0.76706 0.5895 0.4119 0.0
H113 H 0.71577 0.6046 0.19616 0.0
O114 O 0.67085 0.5058 0.4866 0.0
O115 O 0.63777 0.51679 0.3529 0.0
O116 O 0.67498 0.56232 0.33386 0.0
C117 C 0.64741 0.54475 0.34843 0.0
H118 H 0.573 0.40871 0.45078 0.0
H119 H 0.79972 0.64454 0.34078 0.0
Co120 Co 0.54754 0.18694 0.34758 0.0
C121 C 0.51823 0.18216 0.53368 0.0
Co122 Co 0.50035 0.17504 0.33202 0.0
C123 C 0.61196 0.21229 0.3202 0.0
C124 C 0.59314 0.17947 0.43889 0.0
N125 N 0.58607 0.19416 0.36882 0.0
N126 N 0.63471 0.20911 0.35683 0.0
C127 C 0.62285 0.18853 0.43162 0.0
H128 H 0.61396 0.22709 0.25816 0.0
H129 H 0.57753 0.16295 0.49171 0.0
C130 C 0.52956 0.17984 0.146 0.0
N131 N 0.46131 0.16627 0.31146 0.0
C132 C 0.44024 0.14403 0.25342 0.0
C133 C 0.44821 0.18145 0.34662 0.0
N134 N 0.41462 0.14489 0.25024 0.0
C135 C 0.41956 0.16844 0.30877 0.0
C136 C 0.54136 0.23662 0.33047 0.0
O137 O 0.55196 0.18611 0.20282 0.0
O138 O 0.50503 0.17395 0.18764 0.0
O139 O 0.51399 0.21667 0.3239 0.0
O140 O 0.56089 0.22868 0.3412 0.0
O141 O 0.49597 0.17625 0.47672 0.0
H142 H 0.45891 0.20091 0.39571 0.0
H143 H 0.44388 0.12797 0.21205 0.0
O144 O 0.54266 0.18772 0.49211 0.0
O145 O 0.53388 0.14535 0.35458 0.0
O146 O 0.48721 0.13372 0.34212 0.0
C147 C 0.5065 0.12565 0.35376 0.0
H148 H 0.63493 0.18092 0.47903 0.0
H149 H 0.40353 0.17561 0.32371 0.0
Co150 Co 0.85772 0.37909 0.29632 0.0
C151 C 0.85907 0.35301 0.48292 0.0
Co152 Co 0.86526 0.34083 0.28182 0.0
C153 C 0.82685 0.41258 0.28306 0.0
C154 C 0.86662 0.43494 0.37362 0.0
N155 N 0.85061 0.41053 0.31485 0.0
N156 N 0.82726 0.43711 0.32043 0.0
C157 C 0.8524 0.45135 0.37687 0.0
H158 H 0.80921 0.39606 0.23529 0.0
H159 H 0.88667 0.43986 0.41523 0.0
C160 C 0.86391 0.36694 0.09535 0.0
N161 N 0.87245 0.30937 0.26399 0.0
C162 C 0.89482 0.30951 0.21005 0.0
C163 C 0.85652 0.28144 0.30091 0.0
N164 N 0.89352 0.28279 0.21162 0.0
C165 C 0.86936 0.26505 0.26872 0.0
C166 C 0.80557 0.32486 0.27446 0.0
O167 O 0.85928 0.38429 0.15189 0.0
O168 O 0.86769 0.34688 0.13719 0.0
O169 O 0.82296 0.31413 0.2692 0.0
O170 O 0.81657 0.35263 0.28738 0.0
O171 O 0.86273 0.33507 0.42621 0.0
H172 H 0.83692 0.27355 0.34864 0.0
H173 H 0.91161 0.32885 0.16952 0.0
O174 O 0.85622 0.37364 0.44117 0.0
O175 O 0.89896 0.40538 0.30563 0.0
O176 O 0.90733 0.36795 0.29687 0.0
C177 C 0.91716 0.39574 0.30798 0.0
H178 H 0.85926 0.47139 0.42162 0.0
H179 H 0.86186 0.24205 0.28786 0.0
Co180 Co 0.33568 0.83497 0.6759 0.0
C181 C 0.36283 0.86142 0.86229 0.0
Co182 Co 0.37661 0.87864 0.66081 0.0
C183 C 0.29889 0.77137 0.65926 0.0
C184 C 0.2783 0.79027 0.75168 0.0
N185 N 0.30252 0.79761 0.69339 0.0
N186 N 0.27365 0.74793 0.69498 0.0
C187 C 0.26047 0.75975 0.75254 0.0
H188 H 0.31485 0.76942 0.61098 0.0
H189 H 0.27448 0.80599 0.79442 0.0
C190 C 0.3494 0.85212 0.47442 0.0
N191 N 0.4095 0.916 0.64198 0.0
C192 C 0.40999 0.93774 0.58356 0.0
C193 C 0.43728 0.92783 0.68075 0.0
N194 N 0.43683 0.96279 0.58438 0.0
C195 C 0.45418 0.95664 0.64526 0.0
C196 C 0.38833 0.83226 0.65814 0.0
O197 O 0.33047 0.83131 0.53106 0.0
O198 O 0.37097 0.87481 0.51628 0.0
O199 O 0.40095 0.86049 0.65212 0.0
O200 O 0.36025 0.81733 0.6689 0.0
O201 O 0.38198 0.88212 0.80567 0.0
H202 H 0.44465 0.91637 0.73209 0.0
H203 H 0.39091 0.9351 0.54055 0.0
O204 O 0.34108 0.83883 0.82045 0.0
O205 O 0.31152 0.8531 0.68398 0.0
O206 O 0.35208 0.8965 0.6712 0.0
C207 C 0.32401 0.88135 0.68265 0.0
H208 H 0.2402 0.74721 0.79644 0.0
H209 H 0.47719 0.97204 0.66484 0.0
Co210 Co 0.20378 0.52113 0.69826 0.0
C211 C 0.17509 0.51737 0.88366 0.0
Co212 Co 0.15724 0.51129 0.68135 0.0
C213 C 0.2685 0.55313 0.6836 0.0
C214 C 0.25163 0.51385 0.77593 0.0
N215 N 0.24287 0.52964 0.71768 0.0
N216 N 0.29283 0.55249 0.71812 0.0
C217 C 0.2822 0.52772 0.77598 0.0
H218 H 0.26932 0.57047 0.63501 0.0
H219 H 0.23677 0.49391 0.81808 0.0
C220 C 0.18601 0.51506 0.49598 0.0
N221 N 0.11837 0.50262 0.6612 0.0
C222 C 0.09809 0.48117 0.59901 0.0
C223 C 0.10467 0.51704 0.69807 0.0
N224 N 0.07238 0.48175 0.59474 0.0
C225 C 0.07638 0.50431 0.65692 0.0
C226 C 0.19802 0.57157 0.68046 0.0
O227 O 0.20789 0.51981 0.55324 0.0
O228 O 0.16192 0.51068 0.53717 0.0
O229 O 0.1705 0.55241 0.67502 0.0
O230 O 0.21686 0.56276 0.69011 0.0
O231 O 0.15299 0.51204 0.82652 0.0
H232 H 0.11478 0.53589 0.74999 0.0
H233 H 0.10246 0.46599 0.555 0.0
O234 O 0.19939 0.52238 0.84238 0.0
O235 O 0.18978 0.47917 0.70781 0.0
O236 O 0.14404 0.47027 0.68878 0.0
C237 C 0.16198 0.46066 0.70322 0.0
H238 H 0.29559 0.52065 0.81841 0.0
H239 H 0.06003 0.51107 0.67167 0.0
Co240 Co 0.52117 0.70479 0.70363 0.0
C241 C 0.52504 0.6809 0.89001 0.0
Co242 Co 0.53036 0.66741 0.68817 0.0
C243 C 0.49709 0.74522 0.6791 0.0
C244 C 0.5346 0.76168 0.78065 0.0
N245 N 0.51684 0.7382 0.72024 0.0
N246 N 0.50223 0.77231 0.71081 0.0
C247 C 0.52582 0.78261 0.77466 0.0
H248 H 0.47949 0.7309 0.62644 0.0
H249 H 0.55276 0.76341 0.82702 0.0
C250 C 0.52651 0.69148 0.50211 0.0
N251 N 0.53456 0.6338 0.67447 0.0
C252 C 0.5497 0.62704 0.60467 0.0
C253 C 0.52066 0.60941 0.73424 0.0
N254 N 0.54569 0.59931 0.61869 0.0
C255 C 0.5275 0.58839 0.70081 0.0
C256 C 0.4695 0.65141 0.68969 0.0
O257 O 0.52182 0.70874 0.55899 0.0
O258 O 0.531 0.67178 0.54335 0.0
O259 O 0.48817 0.64229 0.68322 0.0
O260 O 0.47906 0.67919 0.69932 0.0
O261 O 0.52966 0.66367 0.83317 0.0
H262 H 0.50614 0.60689 0.79786 0.0
H263 H 0.56291 0.642 0.54376 0.0
O264 O 0.52058 0.70053 0.84855 0.0
O265 O 0.56334 0.72978 0.70802 0.0
O266 O 0.57261 0.69296 0.6947 0.0
C267 C 0.58206 0.7207 0.70533 0.0
H268 H 0.53561 0.80355 0.81612 0.0
H269 H 0.51982 0.56684 0.73569 0.0
H270 H 0.08481 0.32774 0.84357 0.0
H271 H 0.16795 0.3479 -0.01201 0.0
H272 H 0.1925 0.39684 0.90776 0.0
H273 H 0.18972 0.43528 0.805 0.0
H274 H 0.10639 0.41483 0.66171 0.0
H275 H 0.08295 0.36436 0.73013 0.0
C276 C 0.10839 0.34253 0.85646 0.0
C277 C 0.12426 0.334 0.92308 0.0
C278 C 0.12249 0.37066 0.80949 0.0
C279 C 0.15484 0.35389 0.9392 0.0
C280 C 0.16905 0.3819 0.89251 0.0
C281 C 0.16662 0.41957 0.7869 0.0
C282 C 0.14984 0.42884 0.72852 0.0
C283 C 0.15301 0.3907 0.8286 0.0
C284 C 0.11981 0.40829 0.70669 0.0
C285 C 0.10632 0.37945 0.74625 0.0
H286 H 0.7073 0.82806 0.8326 0.0
H287 H 0.72635 0.75682 0.87847 0.0
H288 H 0.67717 0.72086 0.81075 0.0
H289 H 0.6272 0.70923 0.74973 0.0
H290 H 0.60868 0.7811 0.70687 0.0
H291 H 0.65902 0.81704 0.76156 0.0
C292 C 0.70068 0.80466 0.82788 0.0
C293 C 0.7204 0.79515 0.86147 0.0
C294 C 0.67235 0.78413 0.78931 0.0
C295 C 0.71169 0.7648 0.85272 0.0
C296 C 0.68348 0.74419 0.81443 0.0
C297 C 0.63434 0.73279 0.75083 0.0
C298 C 0.61401 0.74233 0.72472 0.0
C299 C 0.66343 0.75353 0.78379 0.0
C300 C 0.6237 0.773 0.72699 0.0
C301 C 0.65252 0.79366 0.75861 0.0
H302 H 0.27324 0.96379 0.82843 0.0
H303 H 0.19422 0.87809 0.86803 0.0
H304 H 0.21957 0.85348 0.79459 0.0
H305 H 0.26509 0.85579 0.72981 0.0
H306 H 0.34441 0.94129 0.68966 0.0
H307 H 0.31789 0.96634 0.75023 0.0
C308 C 0.26143 0.9398 0.81953 0.0
C309 C 0.23196 0.92287 0.85545 0.0
C310 C 0.27622 0.92564 0.77704 0.0
C311 C 0.2171 0.8917 0.84355 0.0
C312 C 0.23153 0.87756 0.80085 0.0
C313 C 0.2765 0.87992 0.73287 0.0
C314 C 0.30677 0.89654 0.70573 0.0
C315 C 0.26125 0.89423 0.76911 0.0
C316 C 0.32114 0.92785 0.71032 0.0
C317 C 0.30601 0.94224 0.74536 0.0
H318 H 0.37782 0.1597 0.1557 0.0
H319 H 0.39099 0.08556 0.2206 0.0
H320 H 0.34332 0.05143 0.13769 0.0
H321 H 0.29589 0.0424 0.05865 0.0
H322 H 0.28385 0.11754 -0.00549 0.0
H323 H 0.33301 0.15141 0.06393 0.0
C324 C 0.37022 0.13606 0.15154 0.0
C325 C 0.38765 0.12509 0.19533 0.0
C326 C 0.34295 0.11671 0.10363 0.0
C327 C 0.37792 0.09451 0.18737 0.0
C328 C 0.35064 0.075 0.14029 0.0
C329 C 0.30428 0.06622 0.05807 0.0
C330 C 0.286 0.0773 0.02209 0.0
C331 C 0.33269 0.08579 0.09949 0.0
C332 C 0.29726 0.10828 0.02228 0.0
C333 C 0.32539 0.12775 0.06238 0.0
H334 H 0.88158 0.22871 0.14304 0.0
H335 H 0.95234 0.31969 0.17693 0.0
H336 H 0.98803 0.30646 0.10749 0.0
H337 H 0.99973 0.26849 0.04683 0.0
H338 H 0.92904 0.17724 0.0154 0.0
H339 H 0.89284 0.19116 0.07379 0.0
C340 C 0.90482 0.24562 0.13545 0.0
C341 C 0.91424 0.27513 0.16584 0.0
C342 C 0.92528 0.23781 0.09584 0.0
C343 C 0.94438 0.29688 0.1535 0.0
C344 C 0.96486 0.28929 0.11425 0.0
C345 C 0.97636 0.25167 0.05155 0.0
C346 C 0.96722 0.2218 0.02711 0.0
C347 C 0.95564 0.25976 0.08628 0.0
C348 C 0.93679 0.20037 0.03376 0.0
C349 C 0.91604 0.2083 0.06758 0.0
H350 H 0.7812 0.75021 0.0318 0.0
H351 H 0.87186 0.76742 0.03298 0.0
H352 H 0.85532 0.71823 0.10546 0.0
H353 H 0.81581 0.67211 0.18212 0.0
H354 H 0.72546 0.6553 0.18516 0.0
H355 H 0.74113 0.70242 0.09665 0.0
C356 C 0.7973 0.74304 0.04629 0.0
C357 C 0.82776 0.76261 0.0277 0.0
C358 C 0.78773 0.7149 0.08981 0.0
C359 C 0.84829 0.75288 0.04684 0.0
C360 C 0.83888 0.7248 0.08885 0.0
C361 C 0.79959 0.67881 0.16349 0.0
C362 C 0.7696 0.66043 0.19125 0.0
C363 C 0.8088 0.70597 0.11322 0.0
C364 C 0.74866 0.66902 0.16438 0.0
C365 C 0.75763 0.69601 0.11416 0.0
H366 H 0.03616 0.49727 0.49964 0.0
H367 H 0.05055 0.42335 0.5533 0.0
H368 H 1.00503 0.39022 0.45772 0.0
H369 H 0.95905 0.38168 0.37058 0.0
H370 H 0.94515 0.45619 0.31815 0.0
H371 H 0.99266 0.48967 0.39998 0.0
C372 C 0.02925 0.4739 0.49035 0.0
C373 C 0.04639 0.46265 0.53445 0.0
C374 C 1.0032 0.45511 0.43508 0.0
C375 C 0.03766 0.43248 0.51994 0.0
C376 C 0.01162 0.41355 0.46553 0.0
C377 C 0.9667 0.40533 0.37516 0.0
C378 C 0.9484 0.41632 0.33891 0.0
C379 C 0.99396 0.42453 0.42399 0.0
C380 C 0.95867 0.44705 0.34582 0.0
C381 C 0.9858 0.46625 0.39316 0.0
H382 H 0.5942 0.6244 0.49439 0.0
H383 H 0.52555 0.53972 0.61061 0.0
H384 H 0.5494 0.51477 0.5293 0.0
H385 H 0.59206 0.51727 0.43648 0.0
H386 H 0.66011 0.60186 0.31792 0.0
H387 H 0.63374 0.62609 0.38593 0.0
C388 C 0.58409 0.60045 0.50077 0.0
C389 C 0.55835 0.58429 0.56105 0.0
C390 C 0.59783 0.586 0.45286 0.0
C391 C 0.54579 0.55312 0.56774 0.0
C392 C 0.55931 0.53865 0.52034 0.0
C393 C 0.60078 0.54087 0.42363 0.0
C394 C 0.62817 0.55767 0.37285 0.0
C395 C 0.5857 0.55492 0.46446 0.0
C396 C 0.63918 0.58832 0.35735 0.0
C397 C 0.62417 0.60231 0.39663 0.0
H398 H 0.45058 0.08024 0.39405 0.0
H399 H 0.54222 0.10109 0.37451 0.0
H400 H 0.52855 0.05193 0.44145 0.0
H401 H 0.49108 1.00413 0.51606 0.0
H402 H 0.39987 0.98416 0.54042 0.0
H403 H 0.41283 0.03164 0.46067 0.0
C404 C 0.46751 0.07389 0.4029 0.0
C405 C 0.49739 0.0944 0.37951 0.0
C406 C 0.45961 0.04577 0.44331 0.0
C407 C 0.51904 0.08578 0.39195 0.0
C408 C 0.51127 0.0577 0.43076 0.0
C409 C 0.47409 0.01022 0.50413 0.0
C410 C 0.44458 0.99059 0.53452 0.0
C411 C 0.48174 0.03775 0.45879 0.0
C412 C 0.4227 0.99863 0.51688 0.0
C413 C 0.43011 0.02589 0.47167 0.0
H414 H 0.17812 0.16087 0.00184 0.0
H415 H 0.11007 0.06901 0.96138 0.0
H416 H 0.07217 0.08367 0.94693 0.0
H417 H 0.05794 0.12241 0.95403 0.0
H418 H 0.12615 0.21427 -0.00283 0.0
H419 H 0.16421 0.19973 0.00312 0.0
C420 C 0.155 0.14408 -0.00996 0.0
C421 C 0.14703 0.11392 -0.01708 0.0
C422 C 0.13325 0.15263 -0.01721 0.0
C423 C 0.11697 0.09243 0.9659 0.0
C424 C 0.0952 0.10077 0.95841 0.0
C425 C 0.08114 0.13927 0.9642 0.0
C426 C 0.0891 0.16936 0.9756 0.0
C427 C 0.10303 0.13078 0.96782 0.0
C428 C 0.11932 0.19091 -0.01158 0.0
C429 C 0.14116 0.18265 -0.00806 0.0
H430 H 0.93452 0.95333 -0.00525 0.0
H431 H 0.84276 0.93092 0.95628 0.0
H432 H 0.85779 0.98349 0.95081 0.0
H433 H 0.89659 0.03575 0.95592 0.0
H434 H 0.98863 0.0592 -0.00996 0.0
H435 H 0.97381 1.00646 0.00053 0.0
C436 C 0.91783 0.95996 -0.01487 0.0
C437 C 0.88753 0.93806 0.97565 0.0
C438 C 0.92662 0.99047 -0.018 0.0
C439 C 0.86623 0.94715 0.96353 0.0
C440 C 0.87478 0.97728 0.96052 0.0
C441 C 0.9135 0.02943 0.96481 0.0
C442 C 0.94371 0.05157 0.97155 0.0
C443 C 0.90487 0.99911 0.96934 0.0
C444 C 0.96519 0.04277 -0.01445 0.0
C445 C 0.95673 0.01254 -0.00921 0.0
H446 H 1.0015 0.9344 0.97281 0.0
H447 H 1.00596 0.85378 -0.00224 0.0
H448 H 0.06012 0.88213 -0.01962 0.0
H449 H 0.10663 0.93034 0.97022 0.0
H450 H 0.10202 0.01116 0.95063 0.0
H451 H 0.04783 0.98238 0.95288 0.0
C452 C 0.01434 0.92307 0.97249 0.0
C453 C 0.99981 0.89211 -0.01284 0.0
C454 C 0.04556 0.9396 0.96435 0.0
C455 C 0.01673 0.87768 -0.01213 0.0
C456 C 0.04768 0.89386 0.97784 0.0
C457 C 0.09376 0.94161 0.9655 0.0
C458 C 0.10846 0.97287 0.96102 0.0
C459 C 0.06244 0.92492 0.96817 0.0
C460 C 0.09137 0.98712 0.95499 0.0
C461 C 0.0603 0.97068 0.95615 0.0
H462 H 0.7136 0.45135 0.30837 0.0
H463 H 0.78178 0.54403 0.32853 0.0
H464 H 0.8203 0.53028 0.32551 0.0
H465 H 0.83497 0.49223 0.32114 0.0
H466 H 0.76774 0.39951 0.30097 0.0
H467 H 0.72866 0.41298 0.29814 0.0
C468 C 0.73688 0.46849 0.31197 0.0
C469 C 0.7447 0.49865 0.31917 0.0
C470 C 0.75917 0.46048 0.3097 0.0
C471 C 0.77502 0.52062 0.32305 0.0
C472 C 0.79716 0.51283 0.32137 0.0
C473 C 0.81176 0.47499 0.31635 0.0
C474 C 0.8043 0.44498 0.31177 0.0
C475 C 0.78951 0.48287 0.3154 0.0
C476 C 0.77413 0.42284 0.30362 0.0
C477 C 0.75175 0.43051 0.30279 0.0
H478 H 0.55444 0.36463 0.3464 0.0
H479 H 0.64775 0.39156 0.33893 0.0
H480 H 0.63519 0.33942 0.32714 0.0
H481 H 0.59744 0.28575 0.32599 0.0
H482 H 0.50413 0.25956 0.33256 0.0
H483 H 0.51697 0.31159 0.33842 0.0
C484 C 0.57203 0.3591 0.34247 0.0
C485 C 0.60198 0.38204 0.34415 0.0
C486 C 0.56464 0.32907 0.33599 0.0
C487 C 0.62451 0.37444 0.33695 0.0
C488 C 0.61733 0.34457 0.3309 0.0
C489 C 0.57993 0.29144 0.32836 0.0
C490 C 0.54984 0.26862 0.32935 0.0
C491 C 0.58744 0.32163 0.33135 0.0
C492 C 0.52747 0.27651 0.3318 0.0
C493 C 0.53477 0.30634 0.3353 0.0
H494 H 0.66597 0.26586 0.29241 0.0
H495 H 0.67306 0.18804 0.35685 0.0
H496 H 0.72681 0.21643 0.32851 0.0
H497 H 0.77244 0.26455 0.2993 0.0
H498 H 0.76501 0.3426 0.24032 0.0
H499 H 0.711 0.313 0.25107 0.0
C500 C 0.67922 0.25503 0.29823 0.0
C501 C 0.66563 0.22502 0.3276 0.0
C502 C 0.71019 0.27162 0.28346 0.0
C503 C 0.68313 0.2113 0.33596 0.0
C504 C 0.71385 0.22749 0.31952 0.0
C505 C 0.75895 0.27494 0.28739 0.0
C506 C 0.77279 0.30576 0.26995 0.0
C507 C 0.72775 0.25786 0.29552 0.0
C508 C 0.75499 0.31895 0.25493 0.0
C509 C 0.72403 0.30205 0.26101 0.0
H510 H 0.44294 0.74697 0.68064 0.0
H511 H 0.52453 0.83142 0.68909 0.0
H512 H 0.49665 0.85767 0.66813 0.0
H513 H 0.44883 0.8568 0.65809 0.0
H514 H 0.36696 0.77227 0.65425 0.0
H515 H 0.39505 0.74603 0.66182 0.0
C516 C 0.45456 0.77107 0.67612 0.0
C517 C 0.48572 0.78722 0.68705 0.0
C518 C 0.4383 0.78608 0.66568 0.0
C519 C 0.50051 0.8185 0.68224 0.0
C520 C 0.48459 0.83353 0.67009 0.0
C521 C 0.43713 0.83265 0.65806 0.0
C522 C 0.40581 0.81663 0.65614 0.0
C523 C 0.45343 0.81759 0.66365 0.0
C524 C 0.39106 0.78527 0.65622 0.0
C525 C 0.40711 0.77017 0.66052 0.0
H526 H 0.25474 0.61855 0.66941 0.0
H527 H 0.16275 0.59675 0.68709 0.0
H528 H 0.17807 0.6495 0.69048 0.0
H529 H 0.21755 0.70193 0.69272 0.0
H530 H 0.30945 0.72398 0.67444 0.0
H531 H 0.29422 0.67118 0.66557 0.0
C532 C 0.23805 0.62535 0.67374 0.0
C533 C 0.20766 0.60369 0.67849 0.0
C534 C 0.24698 0.65581 0.67525 0.0
C535 C 0.18631 0.61291 0.6834 0.0
C536 C 0.19503 0.6431 0.68548 0.0
C537 C 0.2342 0.69513 0.68696 0.0
C538 C 0.26454 0.71684 0.68438 0.0
C539 C 0.22528 0.66474 0.68223 0.0
C540 C 0.28591 0.70775 0.67532 0.0
C541 C 0.27723 0.67753 0.671 0.0
H542 H 0.42267 0.66209 0.68169 0.0
H543 H 0.44346 0.59109 0.69614 0.0
H544 H 0.39068 0.55435 0.70208 0.0
H545 H 0.33861 0.5421 0.70853 0.0
H546 H 0.31677 0.61215 0.69353 0.0
H547 H 0.36977 0.6494 0.68067 0.0
C548 C 0.41562 0.63858 0.68586 0.0
C549 C 0.43712 0.62947 0.68907 0.0
C550 C 0.385 0.61734 0.68886 0.0
C551 C 0.42753 0.59885 0.69369 0.0
C552 C 0.39728 0.57774 0.6972 0.0
C553 C 0.34545 0.56553 0.70268 0.0
C554 C 0.32379 0.57433 0.70285 0.0
C555 C 0.37586 0.58671 0.69577 0.0
C556 C 0.33298 0.60475 0.69295 0.0
C557 C 0.3633 0.62607 0.68631 0.0
H558 H 0.99977 0.15758 0.65296 0.0
H559 H 0.06466 0.25111 0.68151 0.0
H560 H 0.06935 0.25535 0.49465 0.0
H561 H 0.05524 0.23252 0.3236 0.0
H562 H 0.99042 0.13898 0.29496 0.0
H563 H 0.98568 0.13475 0.48183 0.0
C564 C 0.01487 0.17894 0.61838 0.0
C565 C 0.0318 0.20399 0.68113 0.0
C566 C 0.0176 0.1812 0.511 0.0
C567 C 0.05134 0.23146 0.63502 0.0
C568 C 0.05409 0.23391 0.52817 0.0
C569 C 0.04014 0.21117 0.35813 0.0
C570 C 0.02324 0.18611 0.29535 0.0
C571 C 0.0374 0.20891 0.4655 0.0
C572 C 1.00372 0.15863 0.34146 0.0
C573 C 1.00094 0.15619 0.44832 0.0
H574 H 0.82175 0.84218 0.6543 0.0
H575 H 0.91119 0.85659 0.67901 0.0
H576 H 0.91576 0.85908 0.49179 0.0
H577 H 0.89451 0.85738 0.32171 0.0
H578 H 0.80516 0.8432 0.29695 0.0
H579 H 0.80053 0.84058 0.48417 0.0
C580 C 0.84224 0.84577 0.61889 0.0
C581 C 0.86608 0.84913 0.68072 0.0
C582 C 0.8448 0.84737 0.51135 0.0
C583 C 0.89248 0.85388 0.63335 0.0
C584 C 0.89514 0.85536 0.52629 0.0
C585 C 0.87403 0.85382 0.35711 0.0
C586 C 0.85023 0.85055 0.29528 0.0
C587 C 0.87147 0.85223 0.46464 0.0
C588 C 0.82384 0.84584 0.34263 0.0
C589 C 0.82115 0.84428 0.44969 0.0
H590 H 0.20124 0.99162 0.64434 0.0
H591 H 0.1986 0.07335 0.67387 0.0
H592 H 0.19622 0.07647 0.48715 0.0
H593 H 0.19467 0.05595 0.31579 0.0
H594 H 0.19704 0.97408 0.28625 0.0
H595 H 0.19955 0.97102 0.47297 0.0
C596 C 0.20027 0.01019 0.61 0.0
C597 C 0.20016 0.03224 0.673 0.0
C598 C 0.19868 0.01176 0.50266 0.0
C599 C 0.19875 0.05608 0.62718 0.0
C600 C 0.19733 0.05787 0.5204 0.0
C601 C 0.1956 0.03736 0.35013 0.0
C602 C 0.19562 0.01527 0.28713 0.0
C603 C 0.19717 0.03578 0.45746 0.0
C604 C 0.19697 0.99139 0.33294 0.0
C605 C 0.19846 0.98964 0.43972 0.0
H606 H 0.65476 0.48871 0.66834 0.0
H607 H 0.73002 0.57774 0.6427 0.0
H608 H 0.73236 0.58275 0.8298 0.0
H609 H 0.71301 0.56197 0.0001 0.0
H610 H 0.6378 0.47291 0.02582 0.0
H611 H 0.63541 0.46792 0.83869 0.0
C612 C 0.67177 0.50919 0.70356 0.0
C613 C 0.69223 0.53279 0.64154 0.0
C614 C 0.67291 0.51198 0.81104 0.0
C615 C 0.71402 0.55921 0.68857 0.0
C616 C 0.71535 0.56212 0.79555 0.0
C617 C 0.69601 0.54147 0.96491 0.0
C618 C 0.67558 0.51786 0.02696 0.0
C619 C 0.69486 0.53868 0.85744 0.0
C620 C 0.65377 0.49145 -0.02007 0.0
C621 C 0.65242 0.48855 0.87294 0.0
H622 H 0.56066 0.19018 0.67332 0.0
H623 H 0.46992 0.17204 0.64912 0.0
H624 H 0.46535 0.16914 0.83636 0.0
H625 H 0.48703 0.17162 0.00636 0.0
H626 H 0.57786 0.18997 0.03051 0.0
H627 H 0.58236 0.19274 0.84327 0.0
C628 C 0.53989 0.18571 0.70885 0.0
C629 C 0.51568 0.1814 0.64715 0.0
C630 C 0.53738 0.18395 0.81639 0.0
C631 C 0.48892 0.1755 0.69468 0.0
C632 C 0.48627 0.17378 0.80175 0.0
C633 C 0.50782 0.17613 0.97082 0.0
C634 C 0.53206 0.18052 0.03251 0.0
C635 C 0.51033 0.17789 0.86326 0.0
C636 C 0.55883 0.18645 -0.01504 0.0
C637 C 0.56145 0.18809 0.87789 0.0
H638 H 0.8561 0.39038 0.62332 0.0
H639 H 0.86361 0.31122 0.59745 0.0
H640 H 0.86651 0.30906 0.78448 0.0
H641 H 0.86709 0.32968 0.95498 0.0
H642 H 0.85931 0.40868 -0.0192 0.0
H643 H 0.85657 0.41092 0.79377 0.0
C644 C 0.85824 0.37255 0.65847 0.0
C645 C 0.85957 0.35095 0.59634 0.0
C646 C 0.86004 0.3715 0.76596 0.0
C647 C 0.86248 0.32811 0.64335 0.0
C648 C 0.86421 0.32688 0.75032 0.0
C649 C 0.86493 0.34748 0.9198 0.0
C650 C 0.86349 0.36902 -0.01808 0.0
C651 C 0.86311 0.34852 0.8123 0.0
C652 C 0.86053 0.39184 0.9349 0.0
C653 C 0.85889 0.39311 0.82793 0.0
H654 H 0.38817 0.89113 0.33502 0.0
H655 H 0.30576 0.80748 0.35889 0.0
H656 H 0.30297 0.8029 0.17162 0.0
H657 H 0.32398 0.82249 0.0017 0.0
H658 H 0.4065 0.90605 0.97783 0.0
H659 H 0.40922 0.91069 0.16509 0.0
C660 C 0.36953 0.87191 0.2994 0.0
C661 C 0.34717 0.8497 0.36099 0.0
C662 C 0.36815 0.86933 0.19184 0.0
C663 C 0.32324 0.82492 0.31339 0.0
C664 C 0.32166 0.82226 0.20631 0.0
C665 C 0.34264 0.8417 0.03731 0.0
C666 C 0.36504 0.86387 0.97573 0.0
C667 C 0.34403 0.84428 0.14487 0.0
C668 C 0.38898 0.88863 0.02332 0.0
C669 C 0.39054 0.89133 0.13041 0.0
H670 H 0.21694 0.52391 0.02349 0.0
H671 H 0.1273 0.50895 -0.00118 0.0
H672 H 0.12273 0.5064 0.18608 0.0
H673 H 0.1441 0.50831 0.35611 0.0
H674 H 0.23377 0.52338 0.38084 0.0
H675 H 0.2383 0.52582 0.19356 0.0
C676 C 0.19641 0.52019 0.05891 0.0
C677 C 0.17251 0.5167 -0.0029 0.0
C678 C 0.19389 0.51863 0.16645 0.0
C679 C 0.14605 0.51177 0.04447 0.0
C680 C 0.1434 0.51026 0.15155 0.0
C681 C 0.16464 0.51206 0.32071 0.0
C682 C 0.18856 0.51563 0.38254 0.0
C683 C 0.16715 0.51359 0.21317 0.0
C684 C 0.21501 0.52052 0.33517 0.0
C685 C 0.21764 0.52197 0.22809 0.0
H686 H 0.53237 0.65613 0.36054 0.0
H687 H 0.51933 0.73196 0.38964 0.0
H688 H 0.51745 0.73514 0.20277 0.0
H689 H 0.51935 0.71636 0.0315 0.0
H690 H 0.53221 0.64043 0.00243 0.0
H691 H 0.53421 0.63732 0.1893 0.0
C692 C 0.52918 0.67341 0.3261 0.0
C693 C 0.52603 0.69379 0.38899 0.0
C694 C 0.52799 0.67505 0.21872 0.0
C695 C 0.52184 0.71599 0.34304 0.0
C696 C 0.52073 0.71782 0.23618 0.0
C697 C 0.52251 0.69907 0.06596 0.0
C698 C 0.52559 0.67865 0.0031 0.0
C699 C 0.52371 0.69743 0.17335 0.0
C700 C 0.52976 0.65644 0.04904 0.0
C701 C 0.53094 0.65464 0.15589 0.0
loop_
_geom_bond_atom_site_label_1
_geom_bond_atom_site_label_2
_geom_bond_distance
_geom_bond_site_symmetry_2
_ccdc_geom_bond_type
Co0 N5 2.057 . S
Co0 O17 2.021 1_554 S
Co0 O20 2.062 1_654 S
Co0 O24 2.117 1_655 S
Co0 O25 2.020 . S
C1 O21 1.259 . S
C1 O24 1.258 . S
Co2 N11 2.057 1_554 S
Co2 O18 2.117 1_554 S
Co2 O19 2.020 1_554 S
Co2 O21 2.021 . S
Co2 O26 2.062 . S
C3 N5 1.316 1_556 S
C3 N6 1.347 1_556 S
C3 H8 0.931 . S
C4 N5 1.375 . S
C4 C7 1.350 . S
C4 H9 0.930 . S
N5 Co0 2.057 . S
N5 C3 1.316 1_554 S
N5 C4 1.375 . S
N6 C3 1.347 1_554 S
N6 C7 1.373 . S
C7 C4 1.350 . S
C7 N6 1.373 . S
C7 H28 0.931 . S
H8 C3 0.931 . S
H9 C4 0.930 . S
C10 O17 1.259 1_455 S
C10 O18 1.258 . S
N11 Co2 2.057 1_556 S
N11 C12 1.316 1_556 S
N11 C13 1.375 . S
C12 N11 1.316 1_554 S
C12 N14 1.347 1_554 S
C12 H23 0.931 . S
C13 N11 1.375 . S
C13 C15 1.350 . S
C13 H22 0.930 . S
N14 C12 1.347 1_556 S
N14 C15 1.373 . S
C15 C13 1.350 . S
C15 N14 1.373 . S
C15 H29 0.931 . S
C16 O19 1.256 . S
C16 O20 1.255 . S
O17 Co0 2.021 1_556 S
O17 C10 1.259 1_655 S
O18 Co2 2.117 1_556 S
O18 C10 1.258 . S
O19 Co2 2.020 1_556 S
O19 C16 1.256 . S
O20 Co0 2.062 1_456 S
O20 C16 1.255 . S
O21 C1 1.259 . S
O21 Co2 2.021 . S
H22 C13 0.930 . S
H23 C12 0.931 . S
O24 Co0 2.117 1_455 S
O24 C1 1.258 . S
O25 Co0 2.020 . S
O25 C27 1.256 . S
O26 Co2 2.062 . S
O26 C27 1.255 1_455 S
C27 O25 1.256 . S
C27 O26 1.255 1_655 S
H28 C7 0.931 . S
H29 C15 0.931 . S
Co30 N35 2.057 . S
Co30 O47 2.021 1_554 S
Co30 O50 2.062 1_554 S
Co30 O54 2.117 . S
Co30 O55 2.020 . S
C31 O51 1.259 . S
C31 O54 1.258 . S
Co32 N41 2.057 1_554 S
Co32 O48 2.117 1_554 S
Co32 O49 2.020 1_554 S
Co32 O51 2.021 . S
Co32 O56 2.062 . S
C33 N35 1.316 1_556 S
C33 N36 1.347 1_556 S
C33 H38 0.931 . S
C34 N35 1.375 . S
C34 C37 1.350 . S
C34 H39 0.930 . S
N35 Co30 2.057 . S
N35 C33 1.316 1_554 S
N35 C34 1.375 . S
N36 C33 1.347 1_554 S
N36 C37 1.373 . S
C37 C34 1.350 . S
C37 N36 1.373 . S
C37 H58 0.931 . S
H38 C33 0.931 . S
H39 C34 0.930 . S
C40 O47 1.259 . S
C40 O48 1.258 . S
N41 Co32 2.057 1_556 S
N41 C42 1.316 1_556 S
N41 C43 1.375 . S
C42 N41 1.316 1_554 S
C42 N44 1.347 1_554 S
C42 H53 0.931 . S
C43 N41 1.375 . S
C43 C45 1.350 . S
C43 H52 0.930 . S
N44 C42 1.347 1_556 S
N44 C45 1.373 . S
C45 C43 1.350 . S
C45 N44 1.373 . S
C45 H59 0.931 . S
C46 O49 1.256 . S
C46 O50 1.255 . S
O47 Co30 2.021 1_556 S
O47 C40 1.259 . S
O48 Co32 2.117 1_556 S
O48 C40 1.258 . S
O49 Co32 2.020 1_556 S
O49 C46 1.256 . S
O50 Co30 2.062 1_556 S
O50 C46 1.255 . S
O51 C31 1.259 . S
O51 Co32 2.021 . S
H52 C43 0.930 . S
H53 C42 0.931 . S
O54 Co30 2.117 . S
O54 C31 1.258 . S
O55 Co30 2.020 . S
O55 C57 1.256 . S
O56 Co32 2.062 . S
O56 C57 1.255 . S
C57 O55 1.256 . S
C57 O56 1.255 . S
H58 C37 0.931 . S
H59 C45 0.931 . S
Co60 N65 2.057 . S
Co60 O77 2.021 1_554 S
Co60 O80 2.062 1_554 S
Co60 O84 2.117 . S
Co60 O85 2.020 . S
C61 O81 1.259 1_545 S
C61 O84 1.258 . S
Co62 N71 2.057 1_554 S
Co62 O78 2.117 1_564 S
Co62 O79 2.020 1_554 S
Co62 O81 2.021 . S
Co62 O86 2.062 1_565 S
C63 N65 1.316 1_556 S
C63 N66 1.347 1_556 S
C63 H68 0.931 . S
C64 N65 1.375 . S
C64 C67 1.350 . S
C64 H69 0.930 . S
N65 Co60 2.057 . S
N65 C63 1.316 1_554 S
N65 C64 1.375 . S
N66 C63 1.347 1_554 S
N66 C67 1.373 . S
C67 C64 1.350 . S
C67 N66 1.373 . S
C67 H88 0.931 . S
H68 C63 0.931 . S
H69 C64 0.930 . S
C70 O77 1.259 . S
C70 O78 1.258 . S
N71 Co62 2.057 1_556 S
N71 C72 1.316 1_556 S
N71 C73 1.375 . S
C72 N71 1.316 1_554 S
C72 N74 1.347 1_554 S
C72 H83 0.931 . S
C73 N71 1.375 . S
C73 C75 1.350 . S
C73 H82 0.930 . S
N74 C72 1.347 1_556 S
N74 C75 1.373 . S
C75 C73 1.350 . S
C75 N74 1.373 . S
C75 H89 0.931 . S
C76 O79 1.256 . S
C76 O80 1.255 1_565 S
O77 Co60 2.021 1_556 S
O77 C70 1.259 . S
O78 Co62 2.117 1_546 S
O78 C70 1.258 . S
O79 Co62 2.020 1_556 S
O79 C76 1.256 . S
O80 Co60 2.062 1_556 S
O80 C76 1.255 1_545 S
O81 C61 1.259 1_565 S
O81 Co62 2.021 . S
H82 C73 0.930 . S
H83 C72 0.931 . S
O84 Co60 2.117 . S
O84 C61 1.258 . S
O85 Co60 2.020 . S
O85 C87 1.256 . S
O86 Co62 2.062 1_545 S
O86 C87 1.255 . S
C87 O85 1.256 . S
C87 O86 1.255 . S
H88 C67 0.931 . S
H89 C75 0.931 . S
Co90 N95 2.057 . S
Co90 O107 2.021 . S
Co90 O110 2.062 . S
Co90 O114 2.117 . S
Co90 O115 2.020 . S
C91 O111 1.259 . S
C91 O114 1.258 . S
Co92 N101 2.057 . S
Co92 O108 2.117 . S
Co92 O109 2.020 . S
Co92 O111 2.021 . S
Co92 O116 2.062 . S
C93 N95 1.316 . S
C93 N96 1.347 . S
C93 H98 0.931 . S
C94 N95 1.375 . S
C94 C97 1.350 . S
C94 H99 0.930 . S
N95 Co90 2.057 . S
N95 C93 1.316 . S
N95 C94 1.375 . S
N96 C93 1.347 . S
N96 C97 1.373 . S
C97 C94 1.350 . S
C97 N96 1.373 . S
C97 H118 0.931 . S
H98 C93 0.931 . S
H99 C94 0.930 . S
C100 O107 1.259 . S
C100 O108 1.258 . S
N101 Co92 2.057 . S
N101 C102 1.316 . S
N101 C103 1.375 . S
C102 N101 1.316 . S
C102 N104 1.347 . S
C102 H113 0.931 . S
C103 N101 1.375 . S
C103 C105 1.350 . S
C103 H112 0.930 . S
N104 C102 1.347 . S
N104 C105 1.373 . S
C105 C103 1.350 . S
C105 N104 1.373 . S
C105 H119 0.931 . S
C106 O109 1.256 . S
C106 O110 1.255 . S
O107 Co90 2.021 . S
O107 C100 1.259 . S
O108 Co92 2.117 . S
O108 C100 1.258 . S
O109 Co92 2.020 . S
O109 C106 1.256 . S
O110 Co90 2.062 . S
O110 C106 1.255 . S
O111 C91 1.259 . S
O111 Co92 2.021 . S
H112 C103 0.930 . S
H113 C102 0.931 . S
O114 Co90 2.117 . S
O114 C91 1.258 . S
O115 Co90 2.020 . S
O115 C117 1.256 . S
O116 Co92 2.062 . S
O116 C117 1.255 . S
C117 O115 1.256 . S
C117 O116 1.255 . S
H118 C97 0.931 . S
H119 C105 0.931 . S
Co120 N125 2.057 . S
Co120 O137 2.021 . S
Co120 O140 2.062 . S
Co120 O144 2.117 . S
Co120 O145 2.020 . S
C121 O141 1.259 . S
C121 O144 1.258 . S
Co122 N131 2.057 . S
Co122 O138 2.117 . S
Co122 O139 2.020 . S
Co122 O141 2.021 . S
Co122 O146 2.062 . S
C123 N125 1.316 . S
C123 N126 1.347 . S
C123 H128 0.931 . S
C124 N125 1.375 . S
C124 C127 1.350 . S
C124 H129 0.930 . S
N125 Co120 2.057 . S
N125 C123 1.316 . S
N125 C124 1.375 . S
N126 C123 1.347 . S
N126 C127 1.373 . S
C127 C124 1.350 . S
C127 N126 1.373 . S
C127 H148 0.931 . S
H128 C123 0.931 . S
H129 C124 0.930 . S
C130 O137 1.259 . S
C130 O138 1.258 . S
N131 Co122 2.057 . S
N131 C132 1.316 . S
N131 C133 1.375 . S
C132 N131 1.316 . S
C132 N134 1.347 . S
C132 H143 0.931 . S
C133 N131 1.375 . S
C133 C135 1.350 . S
C133 H142 0.930 . S
N134 C132 1.347 . S
N134 C135 1.373 . S
C135 C133 1.350 . S
C135 N134 1.373 . S
C135 H149 0.931 . S
C136 O139 1.256 . S
C136 O140 1.255 . S
O137 Co120 2.021 . S
O137 C130 1.259 . S
O138 Co122 2.117 . S
O138 C130 1.258 . S
O139 Co122 2.020 . S
O139 C136 1.256 . S
O140 Co120 2.062 . S
O140 C136 1.255 . S
O141 C121 1.259 . S
O141 Co122 2.021 . S
H142 C133 0.930 . S
H143 C132 0.931 . S
O144 Co120 2.117 . S
O144 C121 1.258 . S
O145 Co120 2.020 . S
O145 C147 1.256 . S
O146 Co122 2.062 . S
O146 C147 1.255 . S
C147 O145 1.256 . S
C147 O146 1.255 . S
H148 C127 0.931 . S
H149 C135 0.931 . S
Co150 N155 2.057 . S
Co150 O167 2.021 . S
Co150 O170 2.062 . S
Co150 O174 2.117 . S
Co150 O175 2.020 . S
C151 O171 1.259 . S
C151 O174 1.258 . S
Co152 N161 2.057 . S
Co152 O168 2.117 . S
Co152 O169 2.020 . S
Co152 O171 2.021 . S
Co152 O176 2.062 . S
C153 N155 1.316 . S
C153 N156 1.347 . S
C153 H158 0.931 . S
C154 N155 1.375 . S
C154 C157 1.350 . S
C154 H159 0.930 . S
N155 Co150 2.057 . S
N155 C153 1.316 . S
N155 C154 1.375 . S
N156 C153 1.347 . S
N156 C157 1.373 . S
C157 C154 1.350 . S
C157 N156 1.373 . S
C157 H178 0.931 . S
H158 C153 0.931 . S
H159 C154 0.930 . S
C160 O167 1.259 . S
C160 O168 1.258 . S
N161 Co152 2.057 . S
N161 C162 1.316 . S
N161 C163 1.375 . S
C162 N161 1.316 . S
C162 N164 1.347 . S
C162 H173 0.931 . S
C163 N161 1.375 . S
C163 C165 1.350 . S
C163 H172 0.930 . S
N164 C162 1.347 . S
N164 C165 1.373 . S
C165 C163 1.350 . S
C165 N164 1.373 . S
C165 H179 0.931 . S
C166 O169 1.256 . S
C166 O170 1.255 . S
O167 Co150 2.021 . S
O167 C160 1.259 . S
O168 Co152 2.117 . S
O168 C160 1.258 . S
O169 Co152 2.020 . S
O169 C166 1.256 . S
O170 Co150 2.062 . S
O170 C166 1.255 . S
O171 C151 1.259 . S
O171 Co152 2.021 . S
H172 C163 0.930 . S
H173 C162 0.931 . S
O174 Co150 2.117 . S
O174 C151 1.258 . S
O175 Co150 2.020 . S
O175 C177 1.256 . S
O176 Co152 2.062 . S
O176 C177 1.255 . S
C177 O175 1.256 . S
C177 O176 1.255 . S
H178 C157 0.931 . S
H179 C165 0.931 . S
Co180 N185 2.057 . S
Co180 O197 2.021 . S
Co180 O200 2.062 . S
Co180 O204 2.117 . S
Co180 O205 2.020 . S
C181 O201 1.259 . S
C181 O204 1.258 . S
Co182 N191 2.057 . S
Co182 O198 2.117 . S
Co182 O199 2.020 . S
Co182 O201 2.021 . S
Co182 O206 2.062 . S
C183 N185 1.316 . S
C183 N186 1.347 . S
C183 H188 0.931 . S
C184 N185 1.375 . S
C184 C187 1.350 . S
C184 H189 0.930 . S
N185 Co180 2.057 . S
N185 C183 1.316 . S
N185 C184 1.375 . S
N186 C183 1.347 . S
N186 C187 1.373 . S
C187 C184 1.350 . S
C187 N186 1.373 . S
C187 H208 0.931 . S
H188 C183 0.931 . S
H189 C184 0.930 . S
C190 O197 1.259 . S
C190 O198 1.258 . S
N191 Co182 2.057 . S
N191 C192 1.316 . S
N191 C193 1.375 . S
C192 N191 1.316 . S
C192 N194 1.347 . S
C192 H203 0.931 . S
C193 N191 1.375 . S
C193 C195 1.350 . S
C193 H202 0.930 . S
N194 C192 1.347 . S
N194 C195 1.373 . S
C195 C193 1.350 . S
C195 N194 1.373 . S
C195 H209 0.931 . S
C196 O199 1.256 . S
C196 O200 1.255 . S
O197 Co180 2.021 . S
O197 C190 1.259 . S
O198 Co182 2.117 . S
O198 C190 1.258 . S
O199 Co182 2.020 . S
O199 C196 1.256 . S
O200 Co180 2.062 . S
O200 C196 1.255 . S
O201 C181 1.259 . S
O201 Co182 2.021 . S
H202 C193 0.930 . S
H203 C192 0.931 . S
O204 Co180 2.117 . S
O204 C181 1.258 . S
O205 Co180 2.020 . S
O205 C207 1.256 . S
O206 Co182 2.062 . S
O206 C207 1.255 . S
C207 O205 1.256 . S
C207 O206 1.255 . S
H208 C187 0.931 . S
H209 C195 0.931 . S
Co210 N215 2.057 . S
Co210 O227 2.021 . S
Co210 O230 2.062 . S
Co210 O234 2.117 . S
Co210 O235 2.020 . S
C211 O231 1.259 . S
C211 O234 1.258 . S
Co212 N221 2.057 . S
Co212 O228 2.117 . S
Co212 O229 2.020 . S
Co212 O231 2.021 . S
Co212 O236 2.062 . S
C213 N215 1.316 . S
C213 N216 1.347 . S
C213 H218 0.931 . S
C214 N215 1.375 . S
C214 C217 1.350 . S
C214 H219 0.930 . S
N215 Co210 2.057 . S
N215 C213 1.316 . S
N215 C214 1.375 . S
N216 C213 1.347 . S
N216 C217 1.373 . S
C217 C214 1.350 . S
C217 N216 1.373 . S
C217 H238 0.931 . S
H218 C213 0.931 . S
H219 C214 0.930 . S
C220 O227 1.259 . S
C220 O228 1.258 . S
N221 Co212 2.057 . S
N221 C222 1.316 . S
N221 C223 1.375 . S
C222 N221 1.316 . S
C222 N224 1.347 . S
C222 H233 0.931 . S
C223 N221 1.375 . S
C223 C225 1.350 . S
C223 H232 0.930 . S
N224 C222 1.347 . S
N224 C225 1.373 . S
C225 C223 1.350 . S
C225 N224 1.373 . S
C225 H239 0.931 . S
C226 O229 1.256 . S
C226 O230 1.255 . S
O227 Co210 2.021 . S
O227 C220 1.259 . S
O228 Co212 2.117 . S
O228 C220 1.258 . S
O229 Co212 2.020 . S
O229 C226 1.256 . S
O230 Co210 2.062 . S
O230 C226 1.255 . S
O231 C211 1.259 . S
O231 Co212 2.021 . S
H232 C223 0.930 . S
H233 C222 0.931 . S
O234 Co210 2.117 . S
O234 C211 1.258 . S
O235 Co210 2.020 . S
O235 C237 1.256 . S
O236 Co212 2.062 . S
O236 C237 1.255 . S
C237 O235 1.256 . S
C237 O236 1.255 . S
H238 C217 0.931 . S
H239 C225 0.931 . S
Co240 N245 2.057 . S
Co240 O257 2.021 . S
Co240 O260 2.062 . S
Co240 O264 2.117 . S
Co240 O265 2.020 . S
C241 O261 1.259 . S
C241 O264 1.258 . S
Co242 N251 2.057 . S
Co242 O258 2.117 . S
Co242 O259 2.020 . S
Co242 O261 2.021 . S
Co242 O266 2.062 . S
C243 N245 1.316 . S
C243 N246 1.347 . S
C243 H248 0.931 . S
C244 N245 1.375 . S
C244 C247 1.350 . S
C244 H249 0.930 . S
N245 Co240 2.057 . S
N245 C243 1.316 . S
N245 C244 1.375 . S
N246 C243 1.347 . S
N246 C247 1.373 . S
C247 C244 1.350 . S
C247 N246 1.373 . S
C247 H268 0.931 . S
H248 C243 0.931 . S
H249 C244 0.930 . S
C250 O257 1.259 . S
C250 O258 1.258 . S
N251 Co242 2.057 . S
N251 C252 1.316 . S
N251 C253 1.375 . S
C252 N251 1.316 . S
C252 N254 1.347 . S
C252 H263 0.931 . S
C253 N251 1.375 . S
C253 C255 1.350 . S
C253 H262 0.930 . S
N254 C252 1.347 . S
N254 C255 1.373 . S
C255 C253 1.350 . S
C255 N254 1.373 . S
C255 H269 0.931 . S
C256 O259 1.256 . S
C256 O260 1.255 . S
O257 Co240 2.021 . S
O257 C250 1.259 . S
O258 Co242 2.117 . S
O258 C250 1.258 . S
O259 Co242 2.020 . S
O259 C256 1.256 . S
O260 Co240 2.062 . S
O260 C256 1.255 . S
O261 C241 1.259 . S
O261 Co242 2.021 . S
H262 C253 0.930 . S
H263 C252 0.931 . S
O264 Co240 2.117 . S
O264 C241 1.258 . S
O265 Co240 2.020 . S
O265 C267 1.256 . S
O266 Co242 2.062 . S
O266 C267 1.255 . S
C267 O265 1.256 . S
C267 O266 1.255 . S
H268 C247 0.931 . S
H269 C255 0.931 . S
H270 C276 0.930 1_554 S
H271 C279 0.930 . S
H272 C280 0.930 . S
H273 C281 0.930 . S
H274 C284 0.930 . S
H275 C285 0.930 . S
C276 H270 0.930 1_556 S
C276 C277 1.355 . S
C276 C278 1.415 . S
C277 C276 1.355 . S
C277 C279 1.419 . S
C278 C276 1.415 . S
C278 C283 1.425 . S
C278 C285 1.409 . S
C279 H271 0.930 . S
C279 C277 1.419 . S
C279 C280 1.362 . S
C280 H272 0.930 . S
C280 C279 1.362 . S
C280 C283 1.409 . S
C281 H273 0.930 . S
C281 C282 1.355 . S
C281 C283 1.415 . S
C282 C281 1.355 . S
C282 C284 1.419 . S
C283 C278 1.425 . S
C283 C280 1.409 . S
C283 C281 1.415 . S
C284 H274 0.930 . S
C284 C282 1.419 . S
C284 C285 1.362 . S
C285 H275 0.930 . S
C285 C278 1.409 . S
C285 C284 1.362 . S
H286 C292 0.930 1_554 S
H287 C295 0.930 . S
H288 C296 0.930 . S
H289 C297 0.930 . S
H290 C300 0.930 . S
H291 C301 0.930 . S
C292 H286 0.930 1_556 S
C292 C293 1.355 . S
C292 C294 1.415 . S
C293 C292 1.355 . S
C293 C295 1.419 . S
C294 C292 1.415 . S
C294 C299 1.425 . S
C294 C301 1.409 . S
C295 H287 0.930 . S
C295 C293 1.419 . S
C295 C296 1.362 . S
C296 H288 0.930 . S
C296 C295 1.362 . S
C296 C299 1.409 . S
C297 H289 0.930 . S
C297 C298 1.355 . S
C297 C299 1.415 . S
C298 C297 1.355 . S
C298 C300 1.419 . S
C299 C294 1.425 . S
C299 C296 1.409 . S
C299 C297 1.415 . S
C300 H290 0.930 . S
C300 C298 1.419 . S
C300 C301 1.362 . S
C301 H291 0.930 . S
C301 C294 1.409 . S
C301 C300 1.362 . S
H302 C308 0.930 1_554 S
H303 C311 0.930 . S
H304 C312 0.930 . S
H305 C313 0.930 . S
H306 C316 0.930 . S
H307 C317 0.930 . S
C308 H302 0.930 1_556 S
C308 C309 1.355 . S
C308 C310 1.415 . S
C309 C308 1.355 . S
C309 C311 1.419 . S
C310 C308 1.415 . S
C310 C315 1.425 . S
C310 C317 1.409 . S
C311 H303 0.930 . S
C311 C309 1.419 . S
C311 C312 1.362 . S
C312 H304 0.930 . S
C312 C311 1.362 . S
C312 C315 1.409 . S
C313 H305 0.930 . S
C313 C314 1.355 . S
C313 C315 1.415 . S
C314 C313 1.355 . S
C314 C316 1.419 . S
C315 C310 1.425 . S
C315 C312 1.409 . S
C315 C313 1.415 . S
C316 H306 0.930 . S
C316 C314 1.419 . S
C316 C317 1.362 . S
C317 H307 0.930 . S
C317 C310 1.409 . S
C317 C316 1.362 . S
H318 C324 0.930 . S
H319 C327 0.930 . S
H320 C328 0.930 . S
H321 C329 0.930 . S
H322 C332 0.930 . S
H323 C333 0.930 . S
C324 H318 0.930 . S
C324 C325 1.355 . S
C324 C326 1.415 . S
C325 C324 1.355 . S
C325 C327 1.419 . S
C326 C324 1.415 . S
C326 C331 1.425 . S
C326 C333 1.409 . S
C327 H319 0.930 . S
C327 C325 1.419 . S
C327 C328 1.362 . S
C328 H320 0.930 . S
C328 C327 1.362 . S
C328 C331 1.409 . S
C329 H321 0.930 . S
C329 C330 1.355 . S
C329 C331 1.415 . S
C330 C329 1.355 . S
C330 C332 1.419 . S
C331 C326 1.425 . S
C331 C328 1.409 . S
C331 C329 1.415 . S
C332 H322 0.930 . S
C332 C330 1.419 . S
C332 C333 1.362 . S
C333 H323 0.930 . S
C333 C326 1.409 . S
C333 C332 1.362 . S
H334 C340 0.930 . S
H335 C343 0.930 . S
H336 C344 0.930 . S
H337 C345 0.930 1_556 S
H338 C348 0.930 . S
H339 C349 0.930 . S
C340 H334 0.930 . S
C340 C341 1.355 . S
C340 C342 1.415 . S
C341 C340 1.355 . S
C341 C343 1.419 . S
C342 C340 1.415 . S
C342 C347 1.425 . S
C342 C349 1.409 . S
C343 H335 0.930 . S
C343 C341 1.419 . S
C343 C344 1.362 . S
C344 H336 0.930 . S
C344 C343 1.362 . S
C344 C347 1.409 . S
C345 H337 0.930 1_554 S
C345 C346 1.355 . S
C345 C347 1.415 . S
C346 C345 1.355 . S
C346 C348 1.419 . S
C347 C342 1.425 . S
C347 C344 1.409 . S
C347 C345 1.415 . S
C348 H338 0.930 . S
C348 C346 1.419 . S
C348 C349 1.362 . S
C349 H339 0.930 . S
C349 C342 1.409 . S
C349 C348 1.362 . S
H350 C356 0.930 1_556 S
H351 C359 0.930 . S
H352 C360 0.930 . S
H353 C361 0.930 . S
H354 C364 0.930 . S
H355 C365 0.930 . S
C356 H350 0.930 1_554 S
C356 C357 1.355 . S
C356 C358 1.415 . S
C357 C356 1.355 . S
C357 C359 1.419 . S
C358 C356 1.415 . S
C358 C363 1.425 . S
C358 C365 1.409 . S
C359 H351 0.930 . S
C359 C357 1.419 . S
C359 C360 1.362 . S
C360 H352 0.930 . S
C360 C359 1.362 . S
C360 C363 1.409 . S
C361 H353 0.930 . S
C361 C362 1.355 . S
C361 C363 1.415 . S
C362 C361 1.355 . S
C362 C364 1.419 . S
C363 C358 1.425 . S
C363 C360 1.409 . S
C363 C361 1.415 . S
C364 H354 0.930 . S
C364 C362 1.419 . S
C364 C365 1.362 . S
C365 H355 0.930 . S
C365 C358 1.409 . S
C365 C364 1.362 . S
H366 C372 0.930 . S
H367 C375 0.930 . S
H368 C376 0.930 . S
H369 C377 0.930 . S
H370 C380 0.930 . S
H371 C381 0.930 . S
C372 H366 0.930 . S
C372 C373 1.355 . S
C372 C374 1.415 1_455 S
C373 C372 1.355 . S
C373 C375 1.419 . S
C374 C372 1.415 1_655 S
C374 C379 1.425 . S
C374 C381 1.409 . S
C375 H367 0.930 . S
C375 C373 1.419 . S
C375 C376 1.362 1_455 S
C376 H368 0.930 . S
C376 C375 1.362 1_655 S
C376 C379 1.409 . S
C377 H369 0.930 . S
C377 C378 1.355 . S
C377 C379 1.415 . S
C378 C377 1.355 . S
C378 C380 1.419 . S
C379 C374 1.425 . S
C379 C376 1.409 . S
C379 C377 1.415 . S
C380 H370 0.930 . S
C380 C378 1.419 . S
C380 C381 1.362 . S
C381 H371 0.930 . S
C381 C374 1.409 . S
C381 C380 1.362 . S
H382 C388 0.930 . S
H383 C391 0.930 . S
H384 C392 0.930 . S
H385 C393 0.930 . S
H386 C396 0.930 . S
H387 C397 0.930 . S
C388 H382 0.930 . S
C388 C389 1.355 . S
C388 C390 1.415 . S
C389 C388 1.355 . S
C389 C391 1.419 . S
C390 C388 1.415 . S
C390 C395 1.425 . S
C390 C397 1.409 . S
C391 H383 0.930 . S
C391 C389 1.419 . S
C391 C392 1.362 . S
C392 H384 0.930 . S
C392 C391 1.362 . S
C392 C395 1.409 . S
C393 H385 0.930 . S
C393 C394 1.355 . S
C393 C395 1.415 . S
C394 C393 1.355 . S
C394 C396 1.419 . S
C395 C390 1.425 . S
C395 C392 1.409 . S
C395 C393 1.415 . S
C396 H386 0.930 . S
C396 C394 1.419 . S
C396 C397 1.362 . S
C397 H387 0.930 . S
C397 C390 1.409 . S
C397 C396 1.362 . S
H398 C404 0.930 . S
H399 C407 0.930 . S
H400 C408 0.930 . S
H401 C409 0.930 . S
H402 C412 0.930 1_565 S
H403 C413 0.930 . S
C404 H398 0.930 . S
C404 C405 1.355 . S
C404 C406 1.415 . S
C405 C404 1.355 . S
C405 C407 1.419 . S
C406 C404 1.415 . S
C406 C411 1.425 . S
C406 C413 1.409 . S
C407 H399 0.930 . S
C407 C405 1.419 . S
C407 C408 1.362 . S
C408 H400 0.930 . S
C408 C407 1.362 . S
C408 C411 1.409 . S
C409 H401 0.930 . S
C409 C410 1.355 1_545 S
C409 C411 1.415 . S
C410 C409 1.355 1_565 S
C410 C412 1.419 1_565 S
C411 C406 1.425 . S
C411 C408 1.409 . S
C411 C409 1.415 . S
C412 H402 0.930 1_545 S
C412 C410 1.419 1_545 S
C412 C413 1.362 . S
C413 H403 0.930 . S
C413 C406 1.409 . S
C413 C412 1.362 . S
H414 C420 0.930 . S
H415 C423 0.930 . S
H416 C424 0.930 . S
H417 C425 0.930 . S
H418 C428 0.930 . S
H419 C429 0.930 . S
C420 H414 0.930 . S
C420 C421 1.355 . S
C420 C422 1.415 . S
C421 C420 1.355 . S
C421 C423 1.419 . S
C422 C420 1.415 . S
C422 C427 1.425 . S
C422 C429 1.409 . S
C423 H415 0.930 . S
C423 C421 1.419 . S
C423 C424 1.362 . S
C424 H416 0.930 . S
C424 C423 1.362 . S
C424 C427 1.409 . S
C425 H417 0.930 . S
C425 C426 1.355 . S
C425 C427 1.415 1_556 S
C426 C425 1.355 . S
C426 C428 1.419 . S
C427 C422 1.425 . S
C427 C424 1.409 . S
C427 C425 1.415 1_554 S
C428 H418 0.930 . S
C428 C426 1.419 . S
C428 C429 1.362 1_556 S
C429 H419 0.930 . S
C429 C422 1.409 . S
C429 C428 1.362 1_554 S
H430 C436 0.930 . S
H431 C439 0.930 . S
H432 C440 0.930 1_554 S
H433 C441 0.930 . S
H434 C444 0.930 . S
H435 C445 0.912 1_565 S
C436 H430 0.930 . S
C436 C437 1.355 1_554 S
C436 C438 1.415 . S
C437 C436 1.355 1_556 S
C437 C439 1.419 . S
C438 C436 1.415 . S
C438 C443 1.425 . S
C438 C445 1.402 1_565 S
C439 H431 0.930 . S
C439 C437 1.419 . S
C439 C440 1.363 . S
C440 H432 0.930 1_556 S
C440 C439 1.363 . S
C440 C443 1.408 1_556 S
C441 H433 0.930 . S
C441 C442 1.355 . S
C441 C443 1.415 1_545 S
C442 C441 1.355 . S
C442 C444 1.419 . S
C443 C438 1.425 . S
C443 C440 1.408 1_554 S
C443 C441 1.415 1_565 S
C444 H434 0.930 . S
C444 C442 1.419 . S
C444 C445 1.388 . S
C445 H435 0.912 1_545 S
C445 C438 1.402 1_545 S
C445 C444 1.388 . S
H446 C452 0.937 . S
H447 C455 0.930 1_655 S
H448 C456 0.930 . S
H449 C457 0.930 . S
H450 C460 0.930 . S
H451 C461 0.930 . S
C452 H446 0.937 . S
C452 C453 1.355 1_455 S
C452 C454 1.415 . S
C453 C452 1.355 1_655 S
C453 C455 1.419 1_654 S
C454 C452 1.415 . S
C454 C459 1.425 1_554 S
C454 C461 1.409 . S
C455 H447 0.930 1_455 S
C455 C453 1.419 1_456 S
C455 C456 1.362 . S
C456 H448 0.930 . S
C456 C455 1.362 . S
C456 C459 1.409 . S
C457 H449 0.930 . S
C457 C458 1.355 . S
C457 C459 1.415 . S
C458 C457 1.355 . S
C458 C460 1.419 1_556 S
C459 C454 1.425 1_556 S
C459 C456 1.409 . S
C459 C457 1.415 . S
C460 H450 0.930 . S
C460 C458 1.419 1_554 S
C460 C461 1.362 . S
C461 H451 0.930 . S
C461 C454 1.409 . S
C461 C460 1.362 . S
H462 C468 0.930 . S
H463 C471 0.930 . S
H464 C472 0.930 . S
H465 C473 0.930 . S
H466 C476 0.930 . S
H467 C477 0.930 . S
C468 H462 0.930 . S
C468 C469 1.355 . S
C468 C470 1.415 . S
C469 C468 1.355 . S
C469 C471 1.419 . S
C470 C468 1.415 . S
C470 C475 1.425 . S
C470 C477 1.409 . S
C471 H463 0.930 . S
C471 C469 1.419 . S
C471 C472 1.362 . S
C472 H464 0.930 . S
C472 C471 1.362 . S
C472 C475 1.409 . S
C473 H465 0.930 . S
C473 C474 1.355 . S
C473 C475 1.415 . S
C474 C473 1.355 . S
C474 C476 1.419 . S
C475 C470 1.425 . S
C475 C472 1.409 . S
C475 C473 1.415 . S
C476 H466 0.930 . S
C476 C474 1.419 . S
C476 C477 1.362 . S
C477 H467 0.930 . S
C477 C470 1.409 . S
C477 C476 1.362 . S
H478 C484 0.930 . S
H479 C487 0.930 . S
H480 C488 0.930 . S
H481 C489 0.930 . S
H482 C492 0.930 . S
H483 C493 0.930 . S
C484 H478 0.930 . S
C484 C485 1.355 . S
C484 C486 1.415 . S
C485 C484 1.355 . S
C485 C487 1.419 . S
C486 C484 1.415 . S
C486 C491 1.425 . S
C486 C493 1.409 . S
C487 H479 0.930 . S
C487 C485 1.419 . S
C487 C488 1.362 . S
C488 H480 0.930 . S
C488 C487 1.362 . S
C488 C491 1.409 . S
C489 H481 0.930 . S
C489 C490 1.355 . S
C489 C491 1.415 . S
C490 C489 1.355 . S
C490 C492 1.419 . S
C491 C486 1.425 . S
C491 C488 1.409 . S
C491 C489 1.415 . S
C492 H482 0.930 . S
C492 C490 1.419 . S
C492 C493 1.362 . S
C493 H483 0.930 . S
C493 C486 1.409 . S
C493 C492 1.362 . S
H494 C500 0.930 . S
H495 C503 0.930 . S
H496 C504 0.930 . S
H497 C505 0.930 . S
H498 C508 0.930 . S
H499 C509 0.930 . S
C500 H494 0.930 . S
C500 C501 1.355 . S
C500 C502 1.415 . S
C501 C500 1.355 . S
C501 C503 1.419 . S
C502 C500 1.415 . S
C502 C507 1.425 . S
C502 C509 1.409 . S
C503 H495 0.930 . S
C503 C501 1.419 . S
C503 C504 1.362 . S
C504 H496 0.930 . S
C504 C503 1.362 . S
C504 C507 1.409 . S
C505 H497 0.930 . S
C505 C506 1.355 . S
C505 C507 1.415 . S
C506 C505 1.355 . S
C506 C508 1.419 . S
C507 C502 1.425 . S
C507 C504 1.409 . S
C507 C505 1.415 . S
C508 H498 0.930 . S
C508 C506 1.419 . S
C508 C509 1.362 . S
C509 H499 0.930 . S
C509 C502 1.409 . S
C509 C508 1.362 . S
H510 C516 0.930 . S
H511 C519 0.930 . S
H512 C520 0.930 . S
H513 C521 0.930 . S
H514 C524 0.930 . S
H515 C525 0.930 . S
C516 H510 0.930 . S
C516 C517 1.355 . S
C516 C518 1.415 . S
C517 C516 1.355 . S
C517 C519 1.419 . S
C518 C516 1.415 . S
C518 C523 1.425 . S
C518 C525 1.409 . S
C519 H511 0.930 . S
C519 C517 1.419 . S
C519 C520 1.362 . S
C520 H512 0.930 . S
C520 C519 1.362 . S
C520 C523 1.409 . S
C521 H513 0.930 . S
C521 C522 1.355 . S
C521 C523 1.415 . S
C522 C521 1.355 . S
C522 C524 1.419 . S
C523 C518 1.425 . S
C523 C520 1.409 . S
C523 C521 1.415 . S
C524 H514 0.930 . S
C524 C522 1.419 . S
C524 C525 1.362 . S
C525 H515 0.930 . S
C525 C518 1.409 . S
C525 C524 1.362 . S
H526 C532 0.930 . S
H527 C535 0.930 . S
H528 C536 0.930 . S
H529 C537 0.930 . S
H530 C540 0.930 . S
H531 C541 0.930 . S
C532 H526 0.930 . S
C532 C533 1.355 . S
C532 C534 1.415 . S
C533 C532 1.355 . S
C533 C535 1.419 . S
C534 C532 1.415 . S
C534 C539 1.425 . S
C534 C541 1.409 . S
C535 H527 0.930 . S
C535 C533 1.419 . S
C535 C536 1.362 . S
C536 H528 0.930 . S
C536 C535 1.362 . S
C536 C539 1.409 . S
C537 H529 0.930 . S
C537 C538 1.355 . S
C537 C539 1.415 . S
C538 C537 1.355 . S
C538 C540 1.419 . S
C539 C534 1.425 . S
C539 C536 1.409 . S
C539 C537 1.415 . S
C540 H530 0.930 . S
C540 C538 1.419 . S
C540 C541 1.362 . S
C541 H531 0.930 . S
C541 C534 1.409 . S
C541 C540 1.362 . S
H542 C548 0.930 . S
H543 C551 0.930 . S
H544 C552 0.930 . S
H545 C553 0.930 . S
H546 C556 0.930 . S
H547 C557 0.930 . S
C548 H542 0.930 . S
C548 C549 1.355 . S
C548 C550 1.415 . S
C549 C548 1.355 . S
C549 C551 1.419 . S
C550 C548 1.415 . S
C550 C555 1.425 . S
C550 C557 1.409 . S
C551 H543 0.930 . S
C551 C549 1.419 . S
C551 C552 1.362 . S
C552 H544 0.930 . S
C552 C551 1.362 . S
C552 C555 1.409 . S
C553 H545 0.930 . S
C553 C554 1.355 . S
C553 C555 1.415 . S
C554 C553 1.355 . S
C554 C556 1.419 . S
C555 C550 1.425 . S
C555 C552 1.409 . S
C555 C553 1.415 . S
C556 H546 0.930 . S
C556 C554 1.419 . S
C556 C557 1.362 . S
C557 H547 0.930 . S
C557 C550 1.409 . S
C557 C556 1.362 . S
H558 C564 0.930 . S
H559 C567 0.930 . S
H560 C568 0.930 . S
H561 C569 0.930 . S
H562 C572 0.930 . S
H563 C573 0.930 . S
C564 H558 0.930 . S
C564 C565 1.355 1_655 S
C564 C566 1.415 . S
C565 C564 1.355 1_455 S
C565 C567 1.419 . S
C566 C564 1.415 . S
C566 C571 1.425 1_655 S
C566 C573 1.409 . S
C567 H559 0.930 . S
C567 C565 1.419 . S
C567 C568 1.362 . S
C568 H560 0.930 . S
C568 C567 1.362 . S
C568 C571 1.409 . S
C569 H561 0.930 . S
C569 C570 1.355 . S
C569 C571 1.415 . S
C570 C569 1.355 . S
C570 C572 1.419 1_455 S
C571 C566 1.425 1_455 S
C571 C568 1.409 . S
C571 C569 1.415 . S
C572 H562 0.930 . S
C572 C570 1.419 1_655 S
C572 C573 1.362 . S
C573 H563 0.930 . S
C573 C566 1.409 . S
C573 C572 1.362 . S
H574 C580 0.930 . S
H575 C583 0.930 . S
H576 C584 0.930 . S
H577 C585 0.930 . S
H578 C588 0.930 . S
H579 C589 0.930 . S
C580 H574 0.930 . S
C580 C581 1.355 . S
C580 C582 1.415 . S
C581 C580 1.355 . S
C581 C583 1.419 . S
C582 C580 1.415 . S
C582 C587 1.425 . S
C582 C589 1.409 . S
C583 H575 0.930 . S
C583 C581 1.419 . S
C583 C584 1.362 . S
C584 H576 0.930 . S
C584 C583 1.362 . S
C584 C587 1.409 . S
C585 H577 0.930 . S
C585 C586 1.355 . S
C585 C587 1.415 . S
C586 C585 1.355 . S
C586 C588 1.419 . S
C587 C582 1.425 . S
C587 C584 1.409 . S
C587 C585 1.415 . S
C588 H578 0.930 . S
C588 C586 1.419 . S
C588 C589 1.362 . S
C589 H579 0.930 . S
C589 C582 1.409 . S
C589 C588 1.362 . S
H590 C596 0.930 . S
H591 C599 0.930 . S
H592 C600 0.930 . S
H593 C601 0.930 . S
H594 C604 0.930 . S
H595 C605 0.930 . S
C596 H590 0.930 . S
C596 C597 1.355 . S
C596 C598 1.415 . S
C597 C596 1.355 . S
C597 C599 1.419 1_545 S
C598 C596 1.415 . S
C598 C603 1.395 1_545 S
C598 C605 1.409 . S
C599 H591 0.930 . S
C599 C597 1.419 1_565 S
C599 C600 1.362 . S
C600 H592 0.930 . S
C600 C599 1.362 . S
C600 C603 1.429 . S
C601 H593 0.930 . S
C601 C602 1.355 1_565 S
C601 C603 1.424 . S
C602 C601 1.355 1_545 S
C602 C604 1.419 . S
C603 C598 1.395 1_565 S
C603 C600 1.429 . S
C603 C601 1.424 . S
C604 H594 0.930 . S
C604 C602 1.419 . S
C604 C605 1.362 . S
C605 H595 0.930 . S
C605 C598 1.409 . S
C605 C604 1.362 . S
H606 C612 0.930 . S
H607 C615 0.930 . S
H608 C616 0.930 . S
H609 C617 0.930 1_554 S
H610 C620 0.930 1_554 S
H611 C621 0.930 . S
C612 H606 0.930 . S
C612 C613 1.355 . S
C612 C614 1.415 . S
C613 C612 1.355 . S
C613 C615 1.419 . S
C614 C612 1.415 . S
C614 C619 1.425 . S
C614 C621 1.409 . S
C615 H607 0.930 . S
C615 C613 1.419 . S
C615 C616 1.362 . S
C616 H608 0.930 . S
C616 C615 1.362 . S
C616 C619 1.409 . S
C617 H609 0.930 1_556 S
C617 C618 1.355 1_556 S
C617 C619 1.415 . S
C618 C617 1.355 1_554 S
C618 C620 1.419 1_554 S
C619 C614 1.425 . S
C619 C616 1.409 . S
C619 C617 1.415 . S
C620 H610 0.930 1_556 S
C620 C618 1.419 1_556 S
C620 C621 1.362 . S
C621 H611 0.930 . S
C621 C614 1.409 . S
C621 C620 1.362 . S
H622 C628 0.930 . S
H623 C631 0.930 . S
H624 C632 0.930 . S
H625 C633 0.930 1_554 S
H626 C636 0.930 1_554 S
H627 C637 0.930 . S
C628 H622 0.930 . S
C628 C629 1.355 . S
C628 C630 1.415 . S
C629 C628 1.355 . S
C629 C631 1.419 . S
C630 C628 1.415 . S
C630 C635 1.425 . S
C630 C637 1.409 . S
C631 H623 0.930 . S
C631 C629 1.419 . S
C631 C632 1.362 . S
C632 H624 0.930 . S
C632 C631 1.362 . S
C632 C635 1.409 . S
C633 H625 0.930 1_556 S
C633 C634 1.355 1_556 S
C633 C635 1.415 . S
C634 C633 1.355 1_554 S
C634 C636 1.419 1_554 S
C635 C630 1.425 . S
C635 C632 1.409 . S
C635 C633 1.415 . S
C636 H626 0.930 1_556 S
C636 C634 1.419 1_556 S
C636 C637 1.362 . S
C637 H627 0.930 . S
C637 C630 1.409 . S
C637 C636 1.362 . S
H638 C644 0.930 . S
H639 C647 0.930 . S
H640 C648 0.930 . S
H641 C649 0.930 1_554 S
H642 C652 0.924 1_554 S
H643 C653 0.930 . S
C644 H638 0.930 . S
C644 C645 1.355 . S
C644 C646 1.415 . S
C645 C644 1.355 . S
C645 C647 1.419 . S
C646 C644 1.415 . S
C646 C651 1.425 . S
C646 C653 1.409 . S
C647 H639 0.930 . S
C647 C645 1.419 . S
C647 C648 1.362 . S
C648 H640 0.930 . S
C648 C647 1.362 . S
C648 C651 1.409 . S
C649 H641 0.930 1_556 S
C649 C650 1.355 1_556 S
C649 C651 1.415 . S
C650 C649 1.355 1_554 S
C650 C652 1.416 1_554 S
C651 C646 1.425 . S
C651 C648 1.409 . S
C651 C649 1.415 . S
C652 H642 0.924 1_556 S
C652 C650 1.416 1_556 S
C652 C653 1.372 . S
C653 H643 0.930 . S
C653 C646 1.409 . S
C653 C652 1.372 . S
H654 C660 0.930 . S
H655 C663 0.930 . S
H656 C664 0.930 . S
H657 C665 0.930 . S
H658 C668 0.930 1_556 S
H659 C669 0.930 . S
C660 H654 0.930 . S
C660 C661 1.355 . S
C660 C662 1.415 . S
C661 C660 1.355 . S
C661 C663 1.419 . S
C662 C660 1.415 . S
C662 C667 1.425 . S
C662 C669 1.409 . S
C663 H655 0.930 . S
C663 C661 1.419 . S
C663 C664 1.362 . S
C664 H656 0.930 . S
C664 C663 1.362 . S
C664 C667 1.409 . S
C665 H657 0.930 . S
C665 C666 1.355 1_554 S
C665 C667 1.415 . S
C666 C665 1.355 1_556 S
C666 C668 1.419 1_556 S
C667 C662 1.425 . S
C667 C664 1.409 . S
C667 C665 1.415 . S
C668 H658 0.930 1_554 S
C668 C666 1.419 1_554 S
C668 C669 1.362 . S
C669 H659 0.930 . S
C669 C662 1.409 . S
C669 C668 1.362 . S
H670 C676 0.930 . S
H671 C679 0.930 1_556 S
H672 C680 0.930 . S
H673 C681 0.930 . S
H674 C684 0.930 . S
H675 C685 0.930 . S
C676 H670 0.930 . S
C676 C677 1.355 1_554 S
C676 C678 1.415 . S
C677 C676 1.355 1_556 S
C677 C679 1.419 1_556 S
C678 C676 1.415 . S
C678 C683 1.425 . S
C678 C685 1.409 . S
C679 H671 0.930 1_554 S
C679 C677 1.419 1_554 S
C679 C680 1.362 . S
C680 H672 0.930 . S
C680 C679 1.362 . S
C680 C683 1.409 . S
C681 H673 0.930 . S
C681 C682 1.355 . S
C681 C683 1.415 . S
C682 C681 1.355 . S
C682 C684 1.419 . S
C683 C678 1.425 . S
C683 C680 1.409 . S
C683 C681 1.415 . S
C684 H674 0.930 . S
C684 C682 1.419 . S
C684 C685 1.362 . S
C685 H675 0.930 . S
C685 C678 1.409 . S
C685 C684 1.362 . S
H686 C692 0.930 . S
H687 C695 0.930 . S
H688 C696 0.930 . S
H689 C697 0.930 . S
H690 C700 0.930 1_556 S
H691 C701 0.930 . S
C692 H686 0.930 . S
C692 C693 1.355 . S
C692 C694 1.415 . S
C693 C692 1.355 . S
C693 C695 1.419 . S
C694 C692 1.415 . S
C694 C699 1.425 . S
C694 C701 1.409 . S
C695 H687 0.930 . S
C695 C693 1.419 . S
C695 C696 1.362 . S
C696 H688 0.930 . S
C696 C695 1.362 . S
C696 C699 1.409 . S
C697 H689 0.930 . S
C697 C698 1.355 1_554 S
C697 C699 1.415 . S
C698 C697 1.355 1_556 S
C698 C700 1.419 1_556 S
C699 C694 1.425 . S
C699 C696 1.409 . S
C699 C697 1.415 . S
C700 H690 0.930 1_554 S
C700 C698 1.419 1_554 S
C700 C701 1.362 . S
C701 H691 0.930 . S
C701 C694 1.409 . S
C701 C700 1.362 . S
C277 N14 1.337 . S
C282 C237 1.463 . S
C293 N44 1.350 . S
C298 C267 1.480 . S
C309 N74 1.333 . S
C314 C207 1.463 . S
C325 N134 1.411 . S
C330 C87 1.516 . S
C341 N164 1.334 . S
C346 C27 1.469 . S
C357 C57 1.463 . S
C362 N104 1.334 . S
C373 N224 1.436 . S
C378 C177 1.527 . S
C389 N254 1.339 . S
C394 C117 1.464 . S
C405 C147 1.498 . S
C410 N194 1.379 . S
C421 N66 1.216 . S
C426 C16 1.243 . S
C437 C46 1.234 . S
C442 N6 1.227 . S
C453 N36 1.245 . S
C458 C76 1.217 . S
C469 C106 1.240 . S
C474 N156 1.219 . S
C485 N96 1.248 . S
C490 C136 1.216 . S
C501 N126 1.236 . S
C506 C166 1.222 . S
C517 N246 1.226 . S
C522 C196 1.230 . S
C533 C226 1.247 . S
C538 N186 1.208 . S
C549 C256 1.227 . S
C554 N216 1.237 . S
C565 C10 1.156 . S
C570 C1 1.156 . S
C581 C40 1.167 . S
C586 C31 1.167 . S
C597 C70 1.152 . S
C602 C61 1.152 . S
C613 C91 1.166 . S
C618 C100 1.166 . S
C629 C121 1.162 . S
C634 C130 1.162 . S
C645 C151 1.165 . S
C650 C160 1.165 . S
C661 C190 1.160 . S
C666 C181 1.160 . S
C677 C211 1.167 . S
C682 C220 1.167 . S
C693 C250 1.160 . S
C698 C241 1.160 . S
