# Generated by pormake.
# Topology qtz-x, (6)-cn, num edge types: 1
# Building blocks:
#     Node 0, Type 0, BuildingBlock: NUHQIS_clean_sbu_0, # of connection points: 6
#     Node 1, Type 0, BuildingBlock: NUHQIS_clean_sbu_0, # of connection points: 6
#     Node 2, Type 0, BuildingBlock: NUHQIS_clean_sbu_0, # of connection points: 6
#     Edge 3, Type (0, 0), BuildingBlock: EZIPEK_clean_linker_0, # of connection points: 2
#     Edge 4, Type (0, 0), BuildingBlock: EZIPEK_clean_linker_0, # of connection points: 2
#     Edge 5, Type (0, 0), BuildingBlock: EZIPEK_clean_linker_0, # of connection points: 2
#     Edge 6, Type (0, 0), BuildingBlock: EZIPEK_clean_linker_0, # of connection points: 2
#     Edge 7, Type (0, 0), BuildingBlock: EZIPEK_clean_linker_0, # of connection points: 2
#     Edge 8, Type (0, 0), BuildingBlock: EZIPEK_clean_linker_0, # of connection points: 2
#     Edge 9, Type (0, 0), BuildingBlock: EZIPEK_clean_linker_0, # of connection points: 2
#     Edge 10, Type (0, 0), BuildingBlock: EZIPEK_clean_linker_0, # of connection points: 2
#     Edge 11, Type (0, 0), BuildingBlock: EZIPEK_clean_linker_0, # of connection points: 2
# Relax obj value: 0.350
# Max RMSD: 0.302
# Mean RMSD: 0.277
data_MOF--net-qtz-x--node1-NUHQIS_clean_sbu_0--edge1-EZIPEK_clean_linker_0
_symmetry_space_group_name_H-M    P1
_symmetry_Int_Tables_number       1
_symmetry_cell_setting            triclinic
loop_
_symmetry_equiv_pos_as_xyz
'x, y, z'
_cell_length_a     11.345276
_cell_length_b     11.412667
_cell_length_c     40.8993
_cell_angle_alpha  61.081563
_cell_angle_beta   120.05193
_cell_angle_gamma 121.4761
loop_
_atom_site_label
_atom_site_type_symbol
_atom_site_fract_x
_atom_site_fract_y
_atom_site_fract_z
_atom_type_partial_charge
Tb0 Tb 1.1093 0.55495 0.24993 0.0
Eu1 Eu 0.45585 0.71934 0.25684 0.0
C2 C 0.27173 0.87723 0.24937 0.0
C3 C 0.18977 0.68589 0.17163 0.0
C4 C 0.82356 0.39613 0.29345 0.0
C5 C 0.90072 0.40392 0.35987 0.0
C6 C 0.93179 0.44636 0.32594 0.0
C7 C 0.68045 0.31091 0.29448 0.0
C8 C 0.64729 0.27255 0.32797 0.0
C9 C 0.75923 0.31313 0.36173 0.0
C10 C 0.86414 0.4189 0.261 0.0
O11 O 0.1614 0.39094 0.25134 0.0
O12 O 0.40018 0.50773 0.25141 0.0
O13 O 0.46088 0.57961 0.31867 0.0
O14 O 0.24577 0.58008 0.30897 0.0
C15 C 0.27828 0.3934 0.25079 0.0
O16 O 0.67856 0.73787 0.27272 0.0
O17 O 0.63013 -0.07049 0.24787 0.0
O18 O 0.39557 0.85576 0.26775 0.0
O19 O 0.1511 0.78373 0.2326 0.0
O20 O 1.08651 0.60838 0.1883 0.0
O21 O 0.32921 0.744 0.19152 0.0
C22 C 0.36862 0.55916 0.33271 0.0
O23 O 0.90215 0.54972 0.23739 0.0
O24 O 0.9552 0.3598 0.27202 0.0
C25 C 0.7844 -0.06718 0.22465 0.0
C26 C 0.8325 0.00095 0.15566 0.0
C27 C 0.86296 0.8853 0.1884 0.0
C28 C 0.83855 0.85088 0.22274 0.0
C29 C 0.76687 0.05657 0.19286 0.0
C30 C 0.78791 0.08854 0.15831 0.0
C31 C 0.72336 0.87712 0.25608 0.0
H32 H 0.98832 0.43921 0.38515 0.0
H33 H 1.04213 0.51368 0.32596 0.0
H34 H 0.5964 0.26977 0.27005 0.0
H35 H 0.53678 0.20418 0.32854 0.0
H36 H 0.89558 0.81623 0.18625 0.0
H37 H 0.85316 0.75514 0.24671 0.0
H38 H 0.72642 0.12281 0.19345 0.0
H39 H 0.76134 0.17654 0.13287 0.0
Tb40 Tb 0.92735 0.21122 0.60095 0.0
Eu41 Eu 0.74708 0.86805 0.60546 0.0
C42 C 1.08279 0.0347 0.60719 0.0
C43 C 0.76854 0.12655 0.52236 0.0
C44 C 0.12331 0.5405 0.63108 0.0
C45 C 0.30596 0.60105 0.69124 0.0
C46 C 0.26844 0.57186 0.65725 0.0
C47 C 1.02125 0.55723 0.63676 0.0
C48 C 1.06057 0.59165 0.67017 0.0
C49 C 0.20096 0.60651 0.69839 0.0
C50 C 1.07682 0.46753 0.60291 0.0
O51 O 0.70092 0.17006 0.59094 0.0
O52 O 0.59764 0.9215 0.61195 0.0
O53 O 0.80826 0.8561 0.66851 0.0
O54 O 0.95257 0.09671 0.6641 0.0
C55 C 0.59521 0.04868 0.60148 0.0
O56 O 0.54541 0.68043 0.59536 0.0
O57 O 0.75213 0.67047 0.61075 0.0
O58 O 0.98718 0.91438 0.62182 0.0
O59 O 1.06462 0.15705 0.59188 0.0
O60 O 0.87549 0.21912 0.54149 0.0
O61 O 0.69061 -0.00126 0.54049 0.0
C62 C 0.89128 -0.03728 0.68434 0.0
O63 O 0.13141 0.36938 0.6177 0.0
O64 O 0.93772 0.42318 0.582 0.0
C65 C 0.55421 0.56988 0.56066 0.0
C66 C 0.48569 0.51888 0.49111 0.0
C67 C 0.4489 0.62268 0.48896 0.0
C68 C 0.48238 0.64778 0.5234 0.0
C69 C 0.58726 0.46318 0.56279 0.0
C70 C 0.55218 0.43691 0.52826 0.0
C71 C 0.61021 0.61174 0.59634 0.0
H72 H 0.41333 0.60855 0.7133 0.0
H73 H 0.34945 0.56082 0.65331 0.0
H74 H 0.90926 0.5351 0.61686 0.0
H75 H 0.97864 0.59521 0.67565 0.0
H76 H 0.39903 0.68802 0.46046 0.0
H77 H 0.45771 0.73261 0.52062 0.0
H78 H 0.64575 0.40464 0.59096 0.0
H79 H 0.58266 0.35771 0.53024 0.0
Tb80 Tb 0.96241 0.92478 0.91435 0.0
Eu81 Eu 0.15347 0.73732 0.94387 0.0
C82 C 0.29019 0.06518 0.93022 0.0
C83 C 0.98799 0.87557 0.84872 0.0
C84 C 0.8104 0.0713 0.93491 0.0
C85 C 0.83483 0.1896 0.97493 0.0
C86 C 0.83819 0.19668 0.94031 0.0
C87 C 0.78114 -0.06082 0.9647 0.0
C88 C 0.78166 -0.06735 0.99954 0.0
C89 C 0.80899 0.05777 1.00495 0.0
C90 C 0.84613 0.08083 0.90375 0.0
O91 O 0.80637 0.70485 0.92651 0.0
O92 O 0.92198 0.58077 0.93 0.0
O93 O 0.1334 0.68958 1.0014 0.0
O94 O 1.05037 0.86918 0.97986 0.0
C95 C 0.80675 0.58714 0.92821 0.0
O96 O 0.20192 0.54476 0.9664 0.0
O97 O 0.36238 0.7565 0.94874 0.0
O98 O 0.29798 -0.05398 0.95808 0.0
O99 O 0.16608 0.0646 0.9019 0.0
O100 O 0.91547 0.91131 0.85722 0.0
O101 O 1.09017 0.82331 0.87656 0.0
C102 C 1.09768 0.76554 1.00846 0.0
O103 O 0.98635 0.12319 0.9121 0.0
O104 O 0.7719 -0.03146 0.89092 0.0
C105 C 0.3081 0.58642 0.92306 0.0
C106 C 0.29203 0.5933 0.85154 0.0
C107 C 0.16356 0.54844 0.85847 0.0
C108 C 0.17138 0.54396 0.89405 0.0
C109 C 0.43633 0.63022 0.91618 0.0
C110 C 0.42833 0.63038 0.88097 0.0
C111 C 0.31661 0.61886 0.95486 0.0
H112 H 0.8587 0.28725 0.9792 0.0
H113 H 0.8681 0.30019 0.91855 0.0
H114 H 0.76703 0.84219 0.96217 0.0
H115 H 0.76363 0.83048 1.02268 0.0
H116 H 1.05737 0.51915 0.83602 0.0
H117 H 1.07076 0.51553 0.8978 0.0
H118 H 0.54232 0.6699 0.93729 0.0
H119 H 0.52808 0.66562 0.87577 0.0
C120 C 0.21274 -0.003 0.2749 0.0
C121 C 0.26821 0.0085 0.24864 0.0
C122 C 0.31703 0.26957 0.22113 0.0
C123 C 0.27267 0.26016 0.24964 0.0
N124 N 0.20782 0.11768 0.30916 0.0
N125 N 0.39162 0.15854 0.20033 0.0
C126 C 0.22712 0.12425 0.27779 0.0
C127 C 0.32614 0.1458 0.22291 0.0
N128 N 0.14657 0.86393 0.29739 0.0
N129 N 0.34511 0.39537 0.19126 0.0
H130 H 0.39384 0.07024 0.19927 0.0
H131 H 0.4523 0.257 0.1847 0.0
H132 H 0.33524 0.48664 0.18789 0.0
H133 H 0.36531 0.40633 0.16757 0.0
H134 H 1.08806 0.84637 0.31347 0.0
H135 H 0.13934 0.76929 0.2973 0.0
H136 H 0.19042 0.02507 0.33297 0.0
H137 H 0.22463 0.20823 0.31375 0.0
C138 C 0.48336 0.11478 0.62744 0.0
C139 C 0.46556 0.05273 0.60161 0.0
C140 C 0.19739 -0.03895 0.58398 0.0
C141 C 0.21469 0.03457 0.60692 0.0
N142 N 0.37575 0.19582 0.64713 0.0
N143 N 0.30585 -0.05988 0.54969 0.0
C144 C 0.35827 0.11703 0.62726 0.0
C145 C 0.32246 -0.01805 0.57842 0.0
N146 N 0.61889 0.16472 0.65381 0.0
N147 N 1.06158 0.87067 0.56746 0.0
H148 H 0.39442 -0.0432 0.54406 0.0
H149 H 0.20521 0.90219 0.52883 0.0
H150 H 0.96684 0.85433 0.5699 0.0
H151 H 1.04392 0.802 0.55423 0.0
H152 H 0.63645 0.19477 0.67668 0.0
H153 H 0.71322 0.16572 0.65491 0.0
H154 H 0.47569 0.27306 0.65777 0.0
H155 H 0.28907 0.18879 0.65153 0.0
C156 C 0.46201 0.28641 0.95173 0.0
C157 C 0.42187 0.19815 0.92996 0.0
C158 C 0.6179 0.37638 0.90218 0.0
C159 C 0.67155 0.45536 0.92819 0.0
N160 N 0.65763 0.46688 0.98379 0.0
N161 N 0.48375 0.14119 0.89244 0.0
C162 C 0.59775 0.40483 0.95487 0.0
C163 C 0.506 0.23786 0.9074 0.0
N164 N 0.3685 0.2605 0.96823 0.0
N165 N 0.67095 0.43397 0.87199 0.0
H166 H 0.4095 0.03519 0.89821 0.0
H167 H 0.549 0.16153 0.87786 0.0
H168 H 0.75329 0.53506 0.86695 0.0
H169 H 0.62406 0.38614 0.84994 0.0
H170 H 0.38713 0.32897 0.98169 0.0
H171 H 0.26549 0.17793 0.96509 0.0
H172 H 0.61621 0.42247 1.00666 0.0
H173 H 0.75377 0.55728 0.98658 0.0
C174 C 0.9504 0.11601 1.06923 0.0
C175 C 0.81476 0.04943 1.04291 0.0
C176 C 0.69428 -0.05591 0.09176 0.0
C177 C 0.82748 0.01821 0.11692 0.0
N178 N 1.07818 0.18304 0.12963 0.0
N179 N 0.55462 0.91408 1.02641 0.0
C180 C 0.95432 0.10718 0.10555 0.0
C181 C 0.68582 -0.03288 1.05349 0.0
N182 N 1.07629 0.18123 1.06036 0.0
N183 N 0.577 0.84968 0.10487 0.0
H184 H 0.54435 -0.06944 0.99789 0.0
H185 H 0.45448 0.86217 1.03099 0.0
H186 H 0.5766 0.8344 0.13211 0.0
H187 H 0.48268 0.77887 0.09018 0.0
H188 H 0.18037 0.22351 0.07939 0.0
H189 H 1.07934 0.18434 1.03489 0.0
H190 H 0.16922 0.26314 0.12137 0.0
H191 H 1.0854 0.17292 0.1572 0.0
C192 C 0.72916 0.07092 0.46387 0.0
C193 C 0.74078 0.16685 0.47903 0.0
C194 C 0.74693 0.35621 0.41469 0.0
C195 C 0.7337 0.25863 0.39994 0.0
N196 N 0.67591 0.01356 0.40724 0.0
N197 N 0.75731 0.40047 0.46865 0.0
C198 C 0.71207 0.11315 0.42336 0.0
C199 C 0.7473 0.30916 0.45412 0.0
N200 N 0.75173 -0.05454 0.48886 0.0
N201 N 0.7521 0.49194 0.39006 0.0
H202 H 0.73062 0.36486 0.49373 0.0
H203 H 0.79762 0.51158 0.45679 0.0
H204 H 0.74315 0.52596 0.36048 0.0
H205 H 0.75958 0.57021 0.39786 0.0
H206 H 0.76985 0.88567 0.48033 0.0
H207 H 0.76984 0.90838 0.51904 0.0
H208 H 0.63252 0.90343 0.4208 0.0
H209 H 0.6762 0.0391 0.37917 0.0
C210 C 0.81639 0.84784 0.7799 0.0
C211 C 0.96033 0.90155 0.80598 0.0
C212 C 1.05888 -0.02027 0.75366 0.0
C213 C 0.91466 -0.0659 0.72684 0.0
N214 N 0.65603 0.85943 0.71231 0.0
N215 N 0.21295 0.05583 0.8128 0.0
C216 C 0.79348 0.87715 0.73943 0.0
C217 C 1.0802 -0.02254 0.79149 0.0
N218 N 0.70063 0.76469 0.79371 0.0
N219 N 0.17613 0.02377 0.74323 0.0
H220 H 0.22783 0.06634 0.83862 0.0
H221 H 0.30149 0.12505 0.80251 0.0
H222 H 0.165 0.02111 0.71666 0.0
H223 H 0.28398 0.05145 0.76219 0.0
H224 H 0.59725 0.70746 0.77735 0.0
H225 H 0.70952 0.74357 0.82245 0.0
H226 H 0.56939 0.8435 0.71853 0.0
H227 H 0.63164 0.87553 0.68271 0.0
C228 C 1.05234 0.60375 0.07449 0.0
C229 C 0.1211 0.74156 1.05066 0.0
C230 C 0.21082 0.84424 0.10361 0.0
C231 C 0.15213 0.70524 0.12874 0.0
N232 N 1.03675 0.44816 0.1398 0.0
N233 N 0.30005 -0.01761 1.0479 0.0
C234 C 1.07689 0.58395 0.11449 0.0
C235 C 0.20936 0.85906 1.06669 0.0
N236 N 0.96258 0.491 1.059 0.0
N237 N 0.26545 -0.03671 0.11464 0.0
H238 H 0.31035 -0.00789 1.02271 0.0
H239 H 0.37817 0.06682 1.0599 0.0
H240 H 0.26093 -0.04244 0.14026 0.0
H241 H 0.30146 0.06817 0.09653 0.0
H242 H 0.89171 0.3947 1.07221 0.0
H243 H 0.95188 0.49583 1.03163 0.0
H244 H 0.99761 0.35615 0.13249 0.0
H245 H 1.0543 0.42579 0.16936 0.0
C246 C 0.54044 0.63237 0.39491 0.0
C247 C 0.41067 0.53389 0.37562 0.0
C248 C 0.33545 0.41205 0.43452 0.0
C249 C 0.46712 0.50814 0.45389 0.0
N250 N 0.7129 0.67851 0.45756 0.0
N251 N 0.20223 0.31022 0.38006 0.0
C252 C 0.57564 0.60794 0.43567 0.0
C253 C 0.31346 0.41731 0.39642 0.0
N254 N 0.62582 0.75369 0.37399 0.0
N255 N 0.23016 0.31871 0.45208 0.0
H256 H 0.18499 0.30961 0.35257 0.0
H257 H 0.1352 0.21618 0.39504 0.0
H258 H 0.24582 0.3085 0.48062 0.0
H259 H 0.12495 0.25722 0.43771 0.0
H260 H 0.71591 0.83411 0.38601 0.0
H261 H 0.60101 0.78099 0.34366 0.0
H262 H 0.80055 0.74512 0.44683 0.0
H263 H 0.74332 0.65799 0.4879 0.0
C264 C 0.21382 0.46693 0.8045 0.0
C265 C 0.28093 0.59812 0.81335 0.0
C266 C 0.30394 0.73584 0.74731 0.0
C267 C 0.23128 0.60478 0.73809 0.0
N268 N 1.10528 0.34651 0.75536 0.0
N269 N 0.40832 0.85624 0.79622 0.0
C270 C 0.18349 0.47038 0.76606 0.0
C271 C 0.33195 0.73245 0.78566 0.0
N272 N 0.18573 0.33892 0.83367 0.0
N273 N 0.3382 0.86351 0.71851 0.0
H274 H 0.41762 0.86148 0.82219 0.0
H275 H 0.46798 -0.04632 0.78009 0.0
H276 H 0.32064 0.86848 0.69039 0.0
H277 H 0.37717 -0.03577 0.72145 0.0
H278 H 0.14794 0.23927 0.83034 0.0
H279 H 0.21078 0.33254 0.86257 0.0
H280 H 1.04729 0.2488 0.77183 0.0
H281 H 1.08981 0.34218 0.72854 0.0
loop_
_geom_bond_atom_site_label_1
_geom_bond_atom_site_label_2
_geom_bond_distance
_geom_bond_site_symmetry_2
_ccdc_geom_bond_type
Tb0 C10 2.825 . S
Tb0 O11 2.347 . S
Tb0 O14 2.366 1_655 S
Tb0 O19 2.418 . S
Tb0 O20 2.384 . S
Tb0 O23 2.479 . S
Tb0 O24 2.471 . S
Eu1 O12 2.418 . S
Eu1 O13 2.384 . S
Eu1 O16 2.479 . S
Eu1 O17 2.471 1_565 S
Eu1 O18 2.347 . S
Eu1 O21 2.366 1_455 S
Eu1 C31 2.825 . S
C2 O18 1.259 1_655 S
C2 O19 1.265 . S
C3 O20 1.255 . S
C3 O21 1.265 . S
C4 C6 1.380 . S
C4 C7 1.374 . S
C4 C10 1.507 . S
C5 C6 1.384 . S
C5 C9 1.387 . S
C5 H32 0.930 . S
C6 C4 1.380 . S
C6 C5 1.384 . S
C6 H33 0.931 . S
C7 C4 1.374 . S
C7 C8 1.390 . S
C7 H34 0.930 . S
C8 C7 1.390 . S
C8 C9 1.391 . S
C8 H35 0.930 . S
C9 C5 1.387 . S
C9 C8 1.391 . S
C10 Tb0 2.825 . S
C10 C4 1.507 . S
C10 O23 1.238 . S
C10 O24 1.247 . S
O11 Tb0 2.347 . S
O11 C15 1.259 1_655 S
O12 Eu1 2.418 . S
O12 C15 1.265 . S
O13 Eu1 2.384 . S
O13 C22 1.255 . S
O14 Tb0 2.366 1_455 S
O14 C22 1.265 . S
C15 O11 1.259 1_455 S
C15 O12 1.265 . S
O16 Eu1 2.479 . S
O16 C31 1.238 . S
O17 Eu1 2.471 1_545 S
O17 C31 1.247 1_545 S
O18 Eu1 2.347 . S
O18 C2 1.259 1_455 S
O19 Tb0 2.418 . S
O19 C2 1.265 . S
O20 Tb0 2.384 . S
O20 C3 1.255 . S
O21 Eu1 2.366 1_655 S
O21 C3 1.265 . S
C22 O13 1.255 . S
C22 O14 1.265 . S
O23 Tb0 2.479 . S
O23 C10 1.238 . S
O24 Tb0 2.471 . S
O24 C10 1.247 . S
C25 C28 1.380 1_545 S
C25 C29 1.374 . S
C25 C31 1.507 1_545 S
C26 C27 1.387 . S
C26 C30 1.391 . S
C27 C26 1.387 . S
C27 C28 1.384 1_545 S
C27 H36 0.930 . S
C28 C25 1.380 1_565 S
C28 C27 1.384 1_565 S
C28 H37 0.931 . S
C29 C25 1.374 . S
C29 C30 1.390 . S
C29 H38 0.930 . S
C30 C26 1.391 . S
C30 C29 1.390 . S
C30 H39 0.939 . S
C31 Eu1 2.825 . S
C31 O16 1.238 . S
C31 O17 1.247 1_565 S
C31 C25 1.507 1_565 S
H32 C5 0.930 . S
H33 C6 0.931 . S
H34 C7 0.930 . S
H35 C8 0.930 . S
H36 C27 0.930 . S
H37 C28 0.931 . S
H38 C29 0.930 . S
H39 C30 0.939 . S
Tb40 C50 2.825 1_655 S
Tb40 O51 2.347 . S
Tb40 O54 2.366 . S
Tb40 O59 2.418 1_655 S
Tb40 O60 2.384 . S
Tb40 O63 2.479 1_655 S
Tb40 O64 2.471 . S
Eu41 O52 2.418 . S
Eu41 O53 2.384 . S
Eu41 O56 2.479 . S
Eu41 O57 2.471 . S
Eu41 O58 2.347 . S
Eu41 O61 2.366 . S
Eu41 C71 2.825 . S
C42 O58 1.259 1_445 S
C42 O59 1.265 . S
C43 O60 1.255 . S
C43 O61 1.265 1_545 S
C44 C46 1.380 . S
C44 C47 1.374 1_455 S
C44 C50 1.507 . S
C45 C46 1.384 . S
C45 C49 1.387 . S
C45 H72 0.930 . S
C46 C44 1.380 . S
C46 C45 1.384 . S
C46 H73 0.931 . S
C47 C44 1.374 1_655 S
C47 C48 1.390 1_655 S
C47 H74 0.930 . S
C48 C47 1.390 1_455 S
C48 C49 1.391 . S
C48 H75 0.930 1_455 S
C49 C45 1.387 . S
C49 C48 1.391 . S
C50 Tb40 2.825 1_455 S
C50 C44 1.507 . S
C50 O63 1.238 . S
C50 O64 1.247 1_455 S
O51 Tb40 2.347 . S
O51 C55 1.259 1_545 S
O52 Eu41 2.418 . S
O52 C55 1.265 . S
O53 Eu41 2.384 . S
O53 C62 1.255 . S
O54 Tb40 2.366 . S
O54 C62 1.265 1_545 S
C55 O51 1.259 1_565 S
C55 O52 1.265 . S
O56 Eu41 2.479 . S
O56 C71 1.238 . S
O57 Eu41 2.471 . S
O57 C71 1.247 . S
O58 Eu41 2.347 . S
O58 C42 1.259 1_665 S
O59 Tb40 2.418 1_455 S
O59 C42 1.265 . S
O60 Tb40 2.384 . S
O60 C43 1.255 . S
O61 Eu41 2.366 . S
O61 C43 1.265 1_565 S
C62 O53 1.255 . S
C62 O54 1.265 1_565 S
O63 Tb40 2.479 1_455 S
O63 C50 1.238 . S
O64 Tb40 2.471 . S
O64 C50 1.247 1_655 S
C65 C68 1.380 . S
C65 C69 1.374 . S
C65 C71 1.507 . S
C66 C67 1.387 . S
C66 C70 1.391 . S
C67 C66 1.387 . S
C67 C68 1.384 . S
C67 H76 0.930 . S
C68 C65 1.380 . S
C68 C67 1.384 . S
C68 H77 0.931 . S
C69 C65 1.374 . S
C69 C70 1.390 . S
C69 H78 0.930 . S
C70 C66 1.391 . S
C70 C69 1.390 . S
C70 H79 0.930 . S
C71 Eu41 2.825 . S
C71 O56 1.238 . S
C71 O57 1.247 . S
C71 C65 1.507 . S
H72 C45 0.930 . S
H73 C46 0.931 . S
H74 C47 0.930 . S
H75 C48 0.930 1_655 S
H76 C67 0.930 . S
H77 C68 0.931 . S
H78 C69 0.930 . S
H79 C70 0.930 . S
Tb80 C90 2.825 . S
Tb80 O91 2.347 1_545 S
Tb80 O94 2.366 1_655 S
Tb80 O99 2.418 1_655 S
Tb80 O100 2.384 . S
Tb80 O103 2.479 . S
Tb80 O104 2.471 . S
Eu81 O92 2.418 1_455 S
Eu81 O93 2.384 . S
Eu81 O96 2.479 . S
Eu81 O97 2.471 . S
Eu81 O98 2.347 1_565 S
Eu81 O101 2.366 1_455 S
Eu81 C111 2.825 . S
C82 O98 1.259 . S
C82 O99 1.265 . S
C83 O100 1.255 . S
C83 O101 1.265 1_545 S
C84 C86 1.380 . S
C84 C87 1.374 . S
C84 C90 1.507 . S
C85 C86 1.384 . S
C85 C89 1.387 . S
C85 H112 0.930 . S
C86 C84 1.380 . S
C86 C85 1.384 . S
C86 H113 0.931 . S
C87 C84 1.374 . S
C87 C88 1.390 . S
C87 H114 0.930 1_545 S
C88 C87 1.390 . S
C88 C89 1.391 . S
C88 H115 0.930 . S
C89 C85 1.387 . S
C89 C88 1.391 . S
C90 Tb80 2.825 . S
C90 C84 1.507 . S
C90 O103 1.238 . S
C90 O104 1.247 . S
O91 Tb80 2.347 1_565 S
O91 C95 1.259 . S
O92 Eu81 2.418 1_655 S
O92 C95 1.265 . S
O93 Eu81 2.384 . S
O93 C102 1.255 . S
O94 Tb80 2.366 1_455 S
O94 C102 1.265 1_545 S
C95 O91 1.259 . S
C95 O92 1.265 . S
O96 Eu81 2.479 . S
O96 C111 1.238 . S
O97 Eu81 2.471 . S
O97 C111 1.247 . S
O98 Eu81 2.347 1_545 S
O98 C82 1.259 . S
O99 Tb80 2.418 1_455 S
O99 C82 1.265 . S
O100 Tb80 2.384 . S
O100 C83 1.255 . S
O101 Eu81 2.366 1_655 S
O101 C83 1.265 1_565 S
C102 O93 1.255 . S
C102 O94 1.265 1_565 S
O103 Tb80 2.479 . S
O103 C90 1.238 . S
O104 Tb80 2.471 . S
O104 C90 1.247 . S
C105 C108 1.380 . S
C105 C109 1.374 . S
C105 C111 1.507 . S
C106 C107 1.387 . S
C106 C110 1.391 . S
C107 C106 1.387 . S
C107 C108 1.384 . S
C107 H116 0.930 . S
C108 C105 1.380 . S
C108 C107 1.384 . S
C108 H117 0.931 . S
C109 C105 1.374 . S
C109 C110 1.390 . S
C109 H118 0.930 1_565 S
C110 C106 1.391 . S
C110 C109 1.390 . S
C110 H119 0.930 . S
C111 Eu81 2.825 . S
C111 O96 1.238 . S
C111 O97 1.247 . S
C111 C105 1.507 . S
H112 C85 0.930 . S
H113 C86 0.931 . S
H114 C87 0.930 1_565 S
H115 C88 0.930 . S
H116 C107 0.930 . S
H117 C108 0.931 . S
H118 C109 0.930 1_545 S
H119 C110 0.930 . S
C120 C121 1.363 1_655 S
C120 C126 1.379 . S
C120 N128 1.356 1_545 S
C121 C120 1.363 1_455 S
C121 C127 1.363 . S
C122 C123 1.363 1_455 S
C122 C127 1.379 . S
C122 N129 1.356 . S
C123 C122 1.363 1_655 S
C123 C126 1.363 . S
N124 C126 1.356 . S
N124 H136 0.984 . S
N124 H137 0.985 . S
N125 C127 1.356 . S
N125 H130 0.984 . S
N125 H131 0.985 . S
C126 C120 1.379 . S
C126 C123 1.363 . S
C126 N124 1.356 . S
C127 C121 1.363 . S
C127 C122 1.379 . S
C127 N125 1.356 . S
N128 C120 1.356 1_565 S
N128 H134 0.984 . S
N128 H135 0.984 . S
N129 C122 1.356 . S
N129 H132 0.984 . S
N129 H133 0.985 . S
H130 N125 0.984 . S
H131 N125 0.985 . S
H132 N129 0.984 . S
H133 N129 0.985 . S
H134 N128 0.984 . S
H135 N128 0.984 . S
H136 N124 0.984 . S
H137 N124 0.985 . S
C138 C139 1.363 . S
C138 C144 1.379 . S
C138 N146 1.356 . S
C139 C138 1.363 . S
C139 C145 1.363 1_545 S
C140 C141 1.363 . S
C140 C145 1.379 . S
C140 N147 1.356 . S
C141 C140 1.363 . S
C141 C144 1.363 1_565 S
N142 C144 1.356 . S
N142 H154 0.984 . S
N142 H155 0.985 . S
N143 C145 1.356 . S
N143 H148 0.984 . S
N143 H149 0.985 . S
C144 C138 1.379 . S
C144 C141 1.363 1_545 S
C144 N142 1.356 . S
C145 C139 1.363 1_565 S
C145 C140 1.379 . S
C145 N143 1.356 . S
N146 C138 1.356 . S
N146 H152 0.984 . S
N146 H153 0.984 . S
N147 C140 1.356 . S
N147 H150 0.984 . S
N147 H151 0.985 . S
H148 N143 0.984 . S
H149 N143 0.985 . S
H150 N147 0.984 . S
H151 N147 0.985 . S
H152 N146 0.984 . S
H153 N146 0.984 . S
H154 N142 0.984 . S
H155 N142 0.985 . S
C156 C157 1.363 . S
C156 C162 1.379 . S
C156 N164 1.356 . S
C157 C156 1.363 . S
C157 C163 1.363 . S
C158 C159 1.363 . S
C158 C163 1.379 . S
C158 N165 1.356 . S
C159 C158 1.363 . S
C159 C162 1.363 . S
N160 C162 1.356 . S
N160 H172 0.984 . S
N160 H173 0.985 . S
N161 C163 1.356 . S
N161 H166 0.984 . S
N161 H167 0.985 . S
C162 C156 1.379 . S
C162 C159 1.363 . S
C162 N160 1.356 . S
C163 C157 1.363 . S
C163 C158 1.379 . S
C163 N161 1.356 . S
N164 C156 1.356 . S
N164 H170 0.984 . S
N164 H171 0.984 . S
N165 C158 1.356 . S
N165 H168 0.984 . S
N165 H169 0.985 . S
H166 N161 0.984 . S
H167 N161 0.985 . S
H168 N165 0.984 . S
H169 N165 0.985 . S
H170 N164 0.984 . S
H171 N164 0.984 . S
H172 N160 0.984 . S
H173 N160 0.985 . S
C174 C175 1.363 . S
C174 C180 1.379 . S
C174 N182 1.356 . S
C175 C174 1.363 . S
C175 C181 1.363 . S
C176 C177 1.363 . S
C176 C181 1.379 . S
C176 N183 1.356 . S
C177 C176 1.363 . S
C177 C180 1.363 . S
N178 C180 1.356 1_554 S
N178 H190 0.984 . S
N178 H191 0.985 . S
N179 C181 1.356 . S
N179 H184 0.984 . S
N179 H185 0.985 1_545 S
C180 C174 1.379 . S
C180 C177 1.363 . S
C180 N178 1.356 1_556 S
C181 C175 1.363 . S
C181 C176 1.379 . S
C181 N179 1.356 . S
N182 C174 1.356 . S
N182 H188 0.984 . S
N182 H189 0.984 . S
N183 C176 1.356 . S
N183 H186 0.984 . S
N183 H187 0.985 1_545 S
H184 N179 0.984 . S
H185 N179 0.985 1_565 S
H186 N183 0.984 . S
H187 N183 0.985 1_565 S
H188 N182 0.984 . S
H189 N182 0.984 . S
H190 N178 0.984 . S
H191 N178 0.985 . S
C192 C193 1.363 . S
C192 C198 1.379 . S
C192 N200 1.356 . S
C193 C192 1.363 . S
C193 C199 1.363 . S
C194 C195 1.363 . S
C194 C199 1.379 . S
C194 N201 1.356 . S
C195 C194 1.363 . S
C195 C198 1.363 . S
N196 C198 1.356 . S
N196 H208 0.984 1_545 S
N196 H209 0.985 . S
N197 C199 1.356 . S
N197 H202 0.984 . S
N197 H203 0.985 . S
C198 C192 1.379 . S
C198 C195 1.363 . S
C198 N196 1.356 . S
C199 C193 1.363 . S
C199 C194 1.379 . S
C199 N197 1.356 . S
N200 C192 1.356 . S
N200 H206 0.984 1_545 S
N200 H207 0.984 . S
N201 C194 1.356 . S
N201 H204 0.984 . S
N201 H205 0.985 . S
H202 N197 0.984 . S
H203 N197 0.985 . S
H204 N201 0.984 . S
H205 N201 0.985 . S
H206 N200 0.984 1_565 S
H207 N200 0.984 . S
H208 N196 0.984 1_565 S
H209 N196 0.985 . S
C210 C211 1.363 . S
C210 C216 1.379 . S
C210 N218 1.356 . S
C211 C210 1.363 . S
C211 C217 1.363 1_665 S
C212 C213 1.363 1_455 S
C212 C217 1.379 1_565 S
C212 N219 1.356 . S
C213 C212 1.363 1_655 S
C213 C216 1.363 . S
N214 C216 1.356 . S
N214 H226 0.984 . S
N214 H227 0.985 . S
N215 C217 1.356 . S
N215 H220 0.984 . S
N215 H221 0.985 . S
C216 C210 1.379 . S
C216 C213 1.363 . S
C216 N214 1.356 . S
C217 C211 1.363 1_445 S
C217 C212 1.379 1_545 S
C217 N215 1.356 . S
N218 C210 1.356 . S
N218 H224 0.984 . S
N218 H225 0.984 . S
N219 C212 1.356 . S
N219 H222 0.984 . S
N219 H223 0.985 . S
H220 N215 0.984 . S
H221 N215 0.985 . S
H222 N219 0.984 . S
H223 N219 0.985 . S
H224 N218 0.984 . S
H225 N218 0.984 . S
H226 N214 0.984 . S
H227 N214 0.985 . S
C228 C229 1.363 1_655 S
C228 C234 1.379 1_556 S
C228 N236 1.356 . S
C229 C228 1.363 1_455 S
C229 C235 1.363 1_556 S
C230 C231 1.363 1_455 S
C230 C235 1.379 . S
C230 N237 1.356 . S
C231 C230 1.363 1_655 S
C231 C234 1.363 . S
N232 C234 1.356 . S
N232 H244 0.984 . S
N232 H245 0.985 . S
N233 C235 1.356 1_546 S
N233 H238 0.984 . S
N233 H239 0.985 1_556 S
C234 C228 1.379 1_554 S
C234 C231 1.363 . S
C234 N232 1.356 . S
C235 C229 1.363 1_554 S
C235 C230 1.379 . S
C235 N233 1.356 1_564 S
N236 C228 1.356 . S
N236 H242 0.984 . S
N236 H243 0.984 . S
N237 C230 1.356 . S
N237 H240 0.984 . S
N237 H241 0.985 1_565 S
H238 N233 0.984 . S
H239 N233 0.985 1_554 S
H240 N237 0.984 . S
H241 N237 0.985 1_545 S
H242 N236 0.984 . S
H243 N236 0.984 . S
H244 N232 0.984 . S
H245 N232 0.985 . S
C246 C247 1.363 . S
C246 C252 1.379 . S
C246 N254 1.356 . S
C247 C246 1.363 . S
C247 C253 1.363 . S
C248 C249 1.363 . S
C248 C253 1.379 . S
C248 N255 1.356 . S
C249 C248 1.363 . S
C249 C252 1.363 . S
N250 C252 1.356 . S
N250 H262 0.984 . S
N250 H263 0.985 . S
N251 C253 1.356 . S
N251 H256 0.984 . S
N251 H257 0.985 1_455 S
C252 C246 1.379 . S
C252 C249 1.363 . S
C252 N250 1.356 . S
C253 C247 1.363 . S
C253 C248 1.379 . S
C253 N251 1.356 . S
N254 C246 1.356 . S
N254 H260 0.984 . S
N254 H261 0.984 . S
N255 C248 1.356 . S
N255 H258 0.984 . S
N255 H259 0.985 . S
H256 N251 0.984 . S
H257 N251 0.985 1_655 S
H258 N255 0.984 . S
H259 N255 0.985 . S
H260 N254 0.984 . S
H261 N254 0.984 . S
H262 N250 0.984 . S
H263 N250 0.985 . S
C264 C265 1.363 . S
C264 C270 1.379 . S
C264 N272 1.356 . S
C265 C264 1.363 . S
C265 C271 1.363 . S
C266 C267 1.363 . S
C266 C271 1.379 . S
C266 N273 1.356 . S
C267 C266 1.363 . S
C267 C270 1.363 . S
N268 C270 1.356 . S
N268 H280 0.984 . S
N268 H281 0.985 . S
N269 C271 1.356 . S
N269 H274 0.984 . S
N269 H275 0.985 . S
C270 C264 1.379 . S
C270 C267 1.363 . S
C270 N268 1.356 . S
C271 C265 1.363 . S
C271 C266 1.379 . S
C271 N269 1.356 . S
N272 C264 1.356 . S
N272 H278 0.984 . S
N272 H279 0.984 . S
N273 C266 1.356 . S
N273 H276 0.984 . S
N273 H277 0.985 . S
H274 N269 0.984 . S
H275 N269 0.985 . S
H276 N273 0.984 . S
H277 N273 0.985 . S
H278 N272 0.984 . S
H279 N272 0.984 . S
H280 N268 0.984 . S
H281 N268 0.985 . S
C121 C2 1.943 1_445 S
C123 C15 1.943 1_655 S
C139 C55 2.023 1_545 S
C141 C42 2.023 1_565 S
C157 C82 1.632 . S
C159 C95 1.632 . S
C175 C89 1.030 . S
C177 C26 1.000 1_556 S
C193 C43 2.203 . S
C195 C9 2.084 . S
C211 C83 2.778 1_565 S
C213 C62 2.701 . S
C229 C102 2.689 . S
C231 C3 2.619 . S
C247 C22 2.238 . S
C249 C66 2.050 . S
C265 C106 1.077 . S
C267 C49 1.159 . S
