# Generated by pormake.
# Topology ecv, (8)-cn, num edge types: 1
# Building blocks:
#     Node 0, Type 0, BuildingBlock: EBIMEJ_clean_sbu_0, # of connection points: 8
#     Node 1, Type 0, BuildingBlock: EBIMEJ_clean_sbu_0, # of connection points: 8
#     Node 2, Type 0, BuildingBlock: EBIMEJ_clean_sbu_0, # of connection points: 8
#     Node 3, Type 0, BuildingBlock: EBIMEJ_clean_sbu_0, # of connection points: 8
#     Node 4, Type 0, BuildingBlock: EBIMEJ_clean_sbu_0, # of connection points: 8
#     Node 5, Type 0, BuildingBlock: EBIMEJ_clean_sbu_0, # of connection points: 8
#     Node 6, Type 0, BuildingBlock: EBIMEJ_clean_sbu_0, # of connection points: 8
#     Node 7, Type 0, BuildingBlock: EBIMEJ_clean_sbu_0, # of connection points: 8
#     Node 8, Type 0, BuildingBlock: EBIMEJ_clean_sbu_0, # of connection points: 8
#     Node 9, Type 0, BuildingBlock: EBIMEJ_clean_sbu_0, # of connection points: 8
#     Node 10, Type 0, BuildingBlock: EBIMEJ_clean_sbu_0, # of connection points: 8
#     Node 11, Type 0, BuildingBlock: EBIMEJ_clean_sbu_0, # of connection points: 8
#     Node 12, Type 0, BuildingBlock: EBIMEJ_clean_sbu_0, # of connection points: 8
#     Node 13, Type 0, BuildingBlock: EBIMEJ_clean_sbu_0, # of connection points: 8
#     Node 14, Type 0, BuildingBlock: EBIMEJ_clean_sbu_0, # of connection points: 8
#     Node 15, Type 0, BuildingBlock: EBIMEJ_clean_sbu_0, # of connection points: 8
#     Edge 16, Type (0, 0), BuildingBlock: AJUNOK_clean_linker_0, # of connection points: 2
#     Edge 17, Type (0, 0), BuildingBlock: AJUNOK_clean_linker_0, # of connection points: 2
#     Edge 18, Type (0, 0), BuildingBlock: AJUNOK_clean_linker_0, # of connection points: 2
#     Edge 19, Type (0, 0), BuildingBlock: AJUNOK_clean_linker_0, # of connection points: 2
#     Edge 20, Type (0, 0), BuildingBlock: AJUNOK_clean_linker_0, # of connection points: 2
#     Edge 21, Type (0, 0), BuildingBlock: AJUNOK_clean_linker_0, # of connection points: 2
#     Edge 22, Type (0, 0), BuildingBlock: AJUNOK_clean_linker_0, # of connection points: 2
#     Edge 23, Type (0, 0), BuildingBlock: AJUNOK_clean_linker_0, # of connection points: 2
#     Edge 24, Type (0, 0), BuildingBlock: AJUNOK_clean_linker_0, # of connection points: 2
#     Edge 25, Type (0, 0), BuildingBlock: AJUNOK_clean_linker_0, # of connection points: 2
#     Edge 26, Type (0, 0), BuildingBlock: AJUNOK_clean_linker_0, # of connection points: 2
#     Edge 27, Type (0, 0), BuildingBlock: AJUNOK_clean_linker_0, # of connection points: 2
#     Edge 28, Type (0, 0), BuildingBlock: AJUNOK_clean_linker_0, # of connection points: 2
#     Edge 29, Type (0, 0), BuildingBlock: AJUNOK_clean_linker_0, # of connection points: 2
#     Edge 30, Type (0, 0), BuildingBlock: AJUNOK_clean_linker_0, # of connection points: 2
#     Edge 31, Type (0, 0), BuildingBlock: AJUNOK_clean_linker_0, # of connection points: 2
#     Edge 32, Type (0, 0), BuildingBlock: AJUNOK_clean_linker_0, # of connection points: 2
#     Edge 33, Type (0, 0), BuildingBlock: AJUNOK_clean_linker_0, # of connection points: 2
#     Edge 34, Type (0, 0), BuildingBlock: AJUNOK_clean_linker_0, # of connection points: 2
#     Edge 35, Type (0, 0), BuildingBlock: AJUNOK_clean_linker_0, # of connection points: 2
#     Edge 36, Type (0, 0), BuildingBlock: AJUNOK_clean_linker_0, # of connection points: 2
#     Edge 37, Type (0, 0), BuildingBlock: AJUNOK_clean_linker_0, # of connection points: 2
#     Edge 38, Type (0, 0), BuildingBlock: AJUNOK_clean_linker_0, # of connection points: 2
#     Edge 39, Type (0, 0), BuildingBlock: AJUNOK_clean_linker_0, # of connection points: 2
#     Edge 40, Type (0, 0), BuildingBlock: AJUNOK_clean_linker_0, # of connection points: 2
#     Edge 41, Type (0, 0), BuildingBlock: AJUNOK_clean_linker_0, # of connection points: 2
#     Edge 42, Type (0, 0), BuildingBlock: AJUNOK_clean_linker_0, # of connection points: 2
#     Edge 43, Type (0, 0), BuildingBlock: AJUNOK_clean_linker_0, # of connection points: 2
#     Edge 44, Type (0, 0), BuildingBlock: AJUNOK_clean_linker_0, # of connection points: 2
#     Edge 45, Type (0, 0), BuildingBlock: AJUNOK_clean_linker_0, # of connection points: 2
#     Edge 46, Type (0, 0), BuildingBlock: AJUNOK_clean_linker_0, # of connection points: 2
#     Edge 47, Type (0, 0), BuildingBlock: AJUNOK_clean_linker_0, # of connection points: 2
#     Edge 48, Type (0, 0), BuildingBlock: AJUNOK_clean_linker_0, # of connection points: 2
#     Edge 49, Type (0, 0), BuildingBlock: AJUNOK_clean_linker_0, # of connection points: 2
#     Edge 50, Type (0, 0), BuildingBlock: AJUNOK_clean_linker_0, # of connection points: 2
#     Edge 51, Type (0, 0), BuildingBlock: AJUNOK_clean_linker_0, # of connection points: 2
#     Edge 52, Type (0, 0), BuildingBlock: AJUNOK_clean_linker_0, # of connection points: 2
#     Edge 53, Type (0, 0), BuildingBlock: AJUNOK_clean_linker_0, # of connection points: 2
#     Edge 54, Type (0, 0), BuildingBlock: AJUNOK_clean_linker_0, # of connection points: 2
#     Edge 55, Type (0, 0), BuildingBlock: AJUNOK_clean_linker_0, # of connection points: 2
#     Edge 56, Type (0, 0), BuildingBlock: AJUNOK_clean_linker_0, # of connection points: 2
#     Edge 57, Type (0, 0), BuildingBlock: AJUNOK_clean_linker_0, # of connection points: 2
#     Edge 58, Type (0, 0), BuildingBlock: AJUNOK_clean_linker_0, # of connection points: 2
#     Edge 59, Type (0, 0), BuildingBlock: AJUNOK_clean_linker_0, # of connection points: 2
#     Edge 60, Type (0, 0), BuildingBlock: AJUNOK_clean_linker_0, # of connection points: 2
#     Edge 61, Type (0, 0), BuildingBlock: AJUNOK_clean_linker_0, # of connection points: 2
#     Edge 62, Type (0, 0), BuildingBlock: AJUNOK_clean_linker_0, # of connection points: 2
#     Edge 63, Type (0, 0), BuildingBlock: AJUNOK_clean_linker_0, # of connection points: 2
#     Edge 64, Type (0, 0), BuildingBlock: AJUNOK_clean_linker_0, # of connection points: 2
#     Edge 65, Type (0, 0), BuildingBlock: AJUNOK_clean_linker_0, # of connection points: 2
#     Edge 66, Type (0, 0), BuildingBlock: AJUNOK_clean_linker_0, # of connection points: 2
#     Edge 67, Type (0, 0), BuildingBlock: AJUNOK_clean_linker_0, # of connection points: 2
#     Edge 68, Type (0, 0), BuildingBlock: AJUNOK_clean_linker_0, # of connection points: 2
#     Edge 69, Type (0, 0), BuildingBlock: AJUNOK_clean_linker_0, # of connection points: 2
#     Edge 70, Type (0, 0), BuildingBlock: AJUNOK_clean_linker_0, # of connection points: 2
#     Edge 71, Type (0, 0), BuildingBlock: AJUNOK_clean_linker_0, # of connection points: 2
#     Edge 72, Type (0, 0), BuildingBlock: AJUNOK_clean_linker_0, # of connection points: 2
#     Edge 73, Type (0, 0), BuildingBlock: AJUNOK_clean_linker_0, # of connection points: 2
#     Edge 74, Type (0, 0), BuildingBlock: AJUNOK_clean_linker_0, # of connection points: 2
#     Edge 75, Type (0, 0), BuildingBlock: AJUNOK_clean_linker_0, # of connection points: 2
#     Edge 76, Type (0, 0), BuildingBlock: AJUNOK_clean_linker_0, # of connection points: 2
#     Edge 77, Type (0, 0), BuildingBlock: AJUNOK_clean_linker_0, # of connection points: 2
#     Edge 78, Type (0, 0), BuildingBlock: AJUNOK_clean_linker_0, # of connection points: 2
#     Edge 79, Type (0, 0), BuildingBlock: AJUNOK_clean_linker_0, # of connection points: 2
# Relax obj value: 0.075
# Max RMSD: 0.177
# Mean RMSD: 0.177
data_MOF--net-ecv--node1-EBIMEJ_clean_sbu_0--edge1-AJUNOK_clean_linker_0
_symmetry_space_group_name_H-M    P1
_symmetry_Int_Tables_number       1
_symmetry_cell_setting            triclinic
loop_
_symmetry_equiv_pos_as_xyz
'x, y, z'
_cell_length_a     12.404759
_cell_length_b     22.55957
_cell_length_c     107.27815
_cell_angle_alpha  101.45963
_cell_angle_beta   90.063549
_cell_angle_gamma 89.981548
loop_
_atom_site_label
_atom_site_type_symbol
_atom_site_fract_x
_atom_site_fract_y
_atom_site_fract_z
_atom_type_partial_charge
Co0 Co 0.19947 0.22041 0.43814 0.0
Co1 Co 0.11538 0.11185 0.45138 0.0
Co2 Co 0.20326 0.22302 0.46856 0.0
H3 H 0.2071 0.20593 0.45323 0.0
O4 O 0.23119 0.16959 0.45071 0.0
H5 H 0.12314 0.12557 0.46667 0.0
O6 O 0.09651 0.16094 0.46962 0.0
Co7 Co 0.1455 0.10758 0.48118 0.0
O8 O 0.03737 0.04657 0.47306 0.0
O9 O 0.99873 0.05758 0.45319 0.0
O10 O 0.24031 0.16865 0.49264 0.0
O11 O 0.19464 0.25671 0.48773 0.0
O12 O 0.26231 0.25422 0.42278 0.0
O13 O 0.31081 0.17113 0.42586 0.0
O14 O 0.26152 0.04924 0.47388 0.0
O15 O 0.227 0.0436 0.4532 0.0
C16 C 0.31007 0.31402 0.45785 0.0
C17 C 0.07758 0.11433 0.4241 0.0
C18 C 0.09343 0.07419 0.50141 0.0
C19 C 0.04503 0.30242 0.45542 0.0
C20 C 0.98563 0.03264 0.46266 0.0
C21 C 0.22646 0.22555 0.49597 0.0
C22 C 0.32215 0.20947 0.4189 0.0
C23 C 0.27697 0.02437 0.46232 0.0
O24 O 0.26324 0.2967 0.44723 0.0
O25 O 0.31017 0.28456 0.46679 0.0
O26 O 0.10798 0.08146 0.43207 0.0
O27 O 0.0904 0.17149 0.42645 0.0
O28 O 0.16674 0.05078 0.49397 0.0
O29 O 0.05097 0.11784 0.49752 0.0
O30 O 0.08065 0.2818 0.44421 0.0
O31 O 0.082 0.28236 0.46514 0.0
Co32 Co 0.20701 0.08159 0.85989 0.0
Co33 Co 0.11251 0.19065 0.84745 0.0
Co34 Co 0.20501 0.08292 0.82954 0.0
H35 H 0.21037 0.09797 0.84491 0.0
O36 O 0.2324 0.13467 0.84748 0.0
H37 H 0.11039 0.17683 0.83202 0.0
O38 O 0.08781 0.14035 0.82935 0.0
Co39 Co 0.11246 0.19523 0.81719 0.0
O40 O 0.97149 0.20235 0.82687 0.0
O41 O 0.99052 0.24418 0.84673 0.0
O42 O 0.20324 0.13938 0.80391 0.0
O43 O 0.1947 0.05055 0.81029 0.0
O44 O 0.26292 0.04717 0.87547 0.0
O45 O 0.31911 0.12908 0.87252 0.0
O46 O 0.22283 0.25848 0.82353 0.0
O47 O 0.2201 0.25864 0.84441 0.0
C48 C 0.33494 0.99764 0.83974 0.0
C49 C 0.08728 0.18849 0.87424 0.0
C50 C 0.05974 0.23479 0.79791 0.0
C51 C 0.06141 0.99512 0.84235 0.0
C52 C 0.95192 0.24649 0.83596 0.0
C53 C 0.21175 0.08172 0.80154 0.0
C54 C 0.32548 0.09056 0.8795 0.0
C55 C 0.2545 0.28037 0.83476 0.0
O56 O 0.28898 1.0114 0.8505 0.0
O57 O 0.32202 0.02591 0.83068 0.0
O58 O 0.11681 0.22173 0.86641 0.0
O59 O 0.09913 0.13118 0.87175 0.0
O60 O 0.09964 0.26653 0.80778 0.0
O61 O 0.0513 0.18056 0.79894 0.0
O62 O 0.09459 1.01594 0.85367 0.0
O63 O 0.095 1.01799 0.83286 0.0
Co64 Co 0.89546 0.95679 0.56745 0.0
Co65 Co 0.81922 0.83647 0.57768 0.0
Co66 Co 0.90098 0.94255 0.59704 0.0
H67 H 0.90411 0.93425 0.58173 0.0
O68 O 0.9304 0.89889 0.57863 0.0
H69 H 0.80359 0.84805 0.59304 0.0
O70 O 0.78141 0.88459 0.59569 0.0
Co71 Co 0.7902 0.82794 0.60777 0.0
O72 O 0.6578 0.80962 0.59673 0.0
O73 O 0.70875 0.77423 0.57719 0.0
O74 O 0.9131 0.86711 0.61883 0.0
O75 O 0.89813 0.96306 0.61643 0.0
O76 O 0.8821 1.0148 0.5547 0.0
O77 O 0.99699 0.94721 0.55177 0.0
O78 O 0.90087 0.76146 0.60186 0.0
O79 O 0.93122 0.7747 0.58191 0.0
C80 C 0.04431 0.02716 0.58843 0.0
C81 C 0.82205 0.83938 0.55037 0.0
C82 C 0.67948 0.82492 0.62757 0.0
C83 C 0.75008 0.03364 0.58607 0.0
C84 C 0.65674 0.76748 0.58695 0.0
C85 C 0.92877 0.9236 0.62297 0.0
C86 C 0.95796 0.99115 0.54768 0.0
C87 C 0.95011 0.74691 0.59121 0.0
O88 O 1.00136 1.01573 0.5774 0.0
O89 O 0.01981 1.00003 0.59735 0.0
O90 O 0.84242 0.80688 0.55873 0.0
O91 O 0.8184 0.89702 0.55346 0.0
O92 O 0.76901 0.79899 0.62509 0.0
O93 O 0.65411 0.85209 0.61886 0.0
O94 O 0.77505 1.01237 0.57456 0.0
O95 O 0.79233 1.012 0.59534 0.0
Co96 Co 0.90176 0.83825 0.22901 0.0
Co97 Co 0.82193 0.95811 0.2181 0.0
Co98 Co 0.90413 0.84874 0.19956 0.0
H99 H 0.90899 0.86035 0.21477 0.0
O100 O 0.93412 0.89613 0.21777 0.0
H101 H 0.81183 0.94347 0.20281 0.0
O102 O 0.7872 0.9073 0.20025 0.0
Co103 Co 0.81249 0.96024 0.18791 0.0
O104 O 0.72259 0.02729 0.19698 0.0
O105 O 0.70883 1.01899 0.2175 0.0
O106 O 0.92894 0.91444 0.17701 0.0
O107 O 0.89778 0.82169 0.18042 0.0
O108 O 0.88196 0.78297 0.24207 0.0
O109 O 0.01414 0.83991 0.24339 0.0
O110 O 0.92398 0.02549 0.19374 0.0
O111 O 0.93568 1.02103 0.21439 0.0
C112 C 0.04851 0.76554 0.20838 0.0
C113 C 0.82588 0.95727 0.24596 0.0
C114 C 0.69861 0.95317 0.16809 0.0
C115 C 0.74991 0.76198 0.2114 0.0
C116 C 0.68432 0.04329 0.2081 0.0
C117 C 0.93296 0.85727 0.17333 0.0
C118 C 0.96717 0.80002 0.24807 0.0
C119 C 0.96378 0.04473 0.20477 0.0
O120 O 1.00653 0.77714 0.21944 0.0
O121 O 0.02274 0.7922 0.1995 0.0
O122 O 0.838 0.98941 0.23729 0.0
O123 O 0.83183 0.89959 0.24328 0.0
O124 O 0.76625 0.99414 0.17195 0.0
O125 O 0.69715 0.91585 0.17537 0.0
O126 O 0.77596 0.78469 0.2228 0.0
O127 O 0.79361 0.78133 0.20194 0.0
Co128 Co 0.20429 0.71495 0.93792 0.0
Co129 Co 0.11092 0.60257 0.94987 0.0
Co130 Co 0.19755 0.71189 0.96796 0.0
H131 H 0.2059 0.69701 0.95271 0.0
O132 O 0.22896 0.66057 0.9501 0.0
H133 H 0.11001 0.61389 0.96526 0.0
O134 O 0.08593 0.65002 0.96813 0.0
Co135 Co 0.11667 0.59337 0.97981 0.0
O136 O 1.00179 0.53735 0.97069 0.0
O137 O 0.99214 0.54644 0.95026 0.0
O138 O 0.18487 0.65702 0.99388 0.0
O139 O 0.18252 0.74475 0.98694 0.0
O140 O 0.28849 0.75537 0.92481 0.0
O141 O 0.28604 0.66281 0.92264 0.0
O142 O 0.23813 0.5375 0.97299 0.0
O143 O 0.22194 0.53499 0.95208 0.0
C144 C 0.32672 0.80084 0.95792 0.0
C145 C 0.07108 0.61602 0.92428 0.0
C146 C 0.05704 0.55838 0.99971 0.0
C147 C 0.05453 0.79896 0.955 0.0
C148 C 0.9607 0.52409 0.95956 0.0
C149 C 0.1937 0.71464 0.99593 0.0
C150 C 0.31964 0.70646 0.91806 0.0
C151 C 0.26468 0.51523 0.96157 0.0
O152 O 0.28779 0.78506 0.94682 0.0
O153 O 0.30873 0.77376 0.96709 0.0
O154 O 0.10963 0.57763 0.93058 0.0
O155 O 0.07406 0.67236 0.92903 0.0
O156 O 0.12102 0.53001 0.99158 0.0
O157 O 0.02831 0.60693 0.9966 0.0
O158 O 0.09387 0.78123 0.94388 0.0
O159 O 0.08247 0.77354 0.96436 0.0
Co160 Co 0.19303 0.58302 0.35972 0.0
Co161 Co 0.09709 0.6887 0.34558 0.0
Co162 Co 0.20231 0.57994 0.32957 0.0
H163 H 0.20086 0.59821 0.34478 0.0
O164 O 0.21885 0.63565 0.34735 0.0
H165 H 0.10693 0.67214 0.33044 0.0
O166 O 0.08631 0.63523 0.3278 0.0
Co167 Co 0.12046 0.68916 0.31579 0.0
O168 O 0.96536 0.69128 0.32199 0.0
O169 O 0.976 0.7385 0.34222 0.0
O170 O 0.2333 0.63472 0.30564 0.0
O171 O 0.20067 0.54504 0.31057 0.0
O172 O 0.21392 0.56308 0.37771 0.0
O173 O 0.33324 0.60822 0.36994 0.0
O174 O 0.21931 0.75827 0.32267 0.0
O175 O 0.20405 0.75775 0.34342 0.0
C176 C 0.32612 0.49635 0.34102 0.0
C177 C 0.06296 0.68992 0.37274 0.0
C178 C 0.08235 0.7222 0.29529 0.0
C179 C 0.05233 0.49491 0.34239 0.0
C180 C 0.92868 0.72915 0.33145 0.0
C181 C 0.22809 0.57725 0.30239 0.0
C182 C 0.30656 0.58582 0.37932 0.0
C183 C 0.2428 0.78067 0.33417 0.0
O184 O 0.27492 0.51027 0.35143 0.0
O185 O 0.31948 0.5252 0.332 0.0
O186 O 0.08579 0.72262 0.3645 0.0
O187 O 0.08221 0.63334 0.3708 0.0
O188 O 0.15941 0.7415 0.3026 0.0
O189 O 0.02756 0.68419 0.29964 0.0
O190 O 0.08059 0.5188 0.3537 0.0
O191 O 0.09072 0.51467 0.3327 0.0
Co192 Co 0.86438 0.44326 0.06641 0.0
Co193 Co 0.82079 0.32873 0.08014 0.0
Co194 Co 0.89504 0.44628 0.09657 0.0
H195 H 0.88864 0.42934 0.08125 0.0
O196 O 0.91932 0.39473 0.07862 0.0
H197 H 0.81627 0.34779 0.0954 0.0
O198 O 0.78828 0.38337 0.09771 0.0
Co199 Co 0.82541 0.33477 0.11058 0.0
O200 O 0.77067 0.25435 0.10223 0.0
O201 O 0.72311 0.26282 0.08242 0.0
O202 O 0.93144 0.39006 0.12155 0.0
O203 O 0.89949 0.47876 0.11574 0.0
O204 O 0.85243 0.50226 0.05395 0.0
O205 O 0.95082 0.42751 0.0493 0.0
O206 O 0.94466 0.27315 0.10465 0.0
O207 O 0.94856 0.27468 0.08382 0.0
C208 C 1.00402 0.53282 0.08483 0.0
C209 C 0.79568 0.32134 0.05267 0.0
C210 C 0.70088 0.3441 0.12967 0.0
C211 C 0.72608 0.52594 0.08478 0.0
C212 C 0.72741 0.23398 0.09151 0.0
C213 C 0.9362 0.44766 0.12373 0.0
C214 C 0.91702 0.47442 0.04586 0.0
C215 C 0.98342 0.25389 0.09353 0.0
O216 O 0.95358 0.51364 0.0745 0.0
O217 O 1.00135 0.50721 0.09436 0.0
O218 O 0.8323 0.29299 0.06115 0.0
O219 O 0.77453 0.37763 0.05558 0.0
O220 O 0.7668 0.30174 0.12625 0.0
O221 O 0.70745 0.38123 0.12237 0.0
O222 O 0.74506 0.49973 0.07339 0.0
O223 O 0.77418 0.50888 0.09427 0.0
Co224 Co 0.8988 0.35092 0.73127 0.0
Co225 Co 0.81167 0.45835 0.71763 0.0
Co226 Co 0.92287 0.35199 0.70158 0.0
H227 H 0.91256 0.36823 0.71669 0.0
O228 O 0.93127 0.40543 0.71937 0.0
H229 H 0.81422 0.44095 0.70237 0.0
O230 O 0.79857 0.40323 0.69975 0.0
Co231 Co 0.82042 0.457 0.68743 0.0
O232 O 0.72667 0.52496 0.69566 0.0
O233 O 0.68991 0.51009 0.71531 0.0
O234 O 0.93293 0.40763 0.67631 0.0
O235 O 0.93526 0.31843 0.68269 0.0
O236 O 0.8874 0.28707 0.74265 0.0
O237 O 0.96541 0.36857 0.74924 0.0
O238 O 0.92921 0.52367 0.69365 0.0
O239 O 0.91852 0.52535 0.71456 0.0
C240 C 0.09352 0.31131 0.71576 0.0
C241 C 0.78826 0.46168 0.74498 0.0
C242 C 0.70407 0.45483 0.66796 0.0
C243 C 0.77843 0.25902 0.71277 0.0
C244 C 0.67475 0.53659 0.70605 0.0
C245 C 0.95577 0.35139 0.67445 0.0
C246 C 0.93826 0.31866 0.75174 0.0
C247 C 0.95588 0.54693 0.70507 0.0
O248 O 0.05552 0.34632 0.72558 0.0
O249 O 0.04606 0.30339 0.70499 0.0
O250 O 0.81258 0.49365 0.73665 0.0
O251 O 0.7868 0.40408 0.74192 0.0
O252 O 0.79689 0.47751 0.66948 0.0
O253 O 0.67889 0.43215 0.67735 0.0
O254 O 0.80011 0.28183 0.7243 0.0
O255 O 0.81818 0.28187 0.70357 0.0
Co256 Co 0.73789 0.22756 0.94109 0.0
Co257 Co 0.62723 0.11515 0.95207 0.0
Co258 Co 0.71106 0.22098 0.97137 0.0
H259 H 0.72611 0.20863 0.95596 0.0
O260 O 0.74819 0.17205 0.95328 0.0
H261 H 0.62659 0.12489 0.9673 0.0
O262 O 0.59929 0.16003 0.97038 0.0
Co263 Co 0.6407 0.1042 0.98157 0.0
O264 O 0.52361 0.05045 0.97281 0.0
O265 O 0.50723 0.05949 0.95237 0.0
O266 O 0.73441 0.16024 0.99435 0.0
O267 O 0.68865 0.24982 0.99034 0.0
O268 O 0.75117 0.25195 0.92337 0.0
O269 O 0.87884 0.21141 0.93078 0.0
O270 O 0.75521 0.04519 0.97428 0.0
O271 O 0.73397 0.04404 0.95355 0.0
C272 C 0.86792 0.28794 0.962 0.0
C273 C 0.59674 0.13247 0.9259 0.0
C274 C 0.57945 0.07563 1.00172 0.0
C275 C 0.57614 0.30779 0.95725 0.0
C276 C 0.47942 0.03722 0.9619 0.0
C277 C 0.72092 0.21692 0.99818 0.0
C278 C 0.84626 0.23288 0.92154 0.0
C279 C 0.77689 0.02226 0.96277 0.0
O280 O 0.86586 0.24298 0.95281 0.0
O281 O 0.82602 0.28089 0.97227 0.0
O282 O 0.62628 0.09355 0.93264 0.0
O283 O 0.61669 0.18883 0.92963 0.0
O284 O 0.67098 0.06369 0.99685 0.0
O285 O 0.52359 0.10499 0.99527 0.0
O286 O 0.62371 0.29105 0.94659 0.0
O287 O 0.59936 0.28376 0.96702 0.0
Co288 Co 0.71014 0.06538 0.35734 0.0
Co289 Co 0.62363 0.1788 0.34529 0.0
Co290 Co 0.70623 0.06774 0.3274 0.0
H291 H 0.71509 0.08329 0.3426 0.0
O292 O 0.73952 0.11941 0.34536 0.0
H293 H 0.6321 0.16816 0.33 0.0
O294 O 0.60451 0.13327 0.32684 0.0
Co295 Co 0.65157 0.188 0.3156 0.0
O296 O 0.54352 0.24842 0.32413 0.0
O297 O 0.50732 0.23496 0.34391 0.0
O298 O 0.72419 0.1242 0.30213 0.0
O299 O 0.69302 0.03604 0.30825 0.0
O300 O 0.74199 0.0423 0.37489 0.0
O301 O 0.8491 0.09599 0.3676 0.0
O302 O 0.76784 0.24521 0.32349 0.0
O303 O 0.73441 0.24814 0.34414 0.0
C304 C 0.79565 0.96643 0.33682 0.0
C305 C 0.57476 0.16356 0.37099 0.0
C306 C 0.58956 0.22146 0.29578 0.0
C307 C 0.54106 0.99359 0.34069 0.0
C308 C 0.49119 0.26041 0.33451 0.0
C309 C 0.71767 0.06654 0.29961 0.0
C310 C 0.82962 0.07027 0.37673 0.0
C311 C 0.78321 0.26889 0.33515 0.0
O312 O 0.75977 0.98504 0.348 0.0
O313 O 0.80463 1.00007 0.32861 0.0
O314 O 0.61329 0.20259 0.36479 0.0
O315 O 0.57955 0.10758 0.36605 0.0
O316 O 0.65815 0.24891 0.30344 0.0
O317 O 0.55829 0.1742 0.29922 0.0
O318 O 0.58253 1.01072 0.35171 0.0
O319 O 0.57801 1.01325 0.33093 0.0
Co320 Co 0.38575 0.94729 0.06585 0.0
Co321 Co 0.30328 0.83244 0.0768 0.0
Co322 Co 0.40598 0.93352 0.09509 0.0
H323 H 0.40059 0.92449 0.07991 0.0
O324 O 0.42157 0.88825 0.07661 0.0
H325 H 0.29318 0.84693 0.09199 0.0
O326 O 0.27709 0.88442 0.09473 0.0
Co327 Co 0.28358 0.82775 0.10661 0.0
O328 O 0.13895 0.81041 0.09784 0.0
O329 O 0.18472 0.77798 0.07767 0.0
O330 O 0.41228 0.86115 0.11739 0.0
O331 O 0.41278 0.9564 0.11442 0.0
O332 O 0.34893 0.99776 0.05228 0.0
O333 O 0.49844 0.95659 0.05229 0.0
O334 O 0.39033 0.75983 0.10115 0.0
O335 O 0.41016 0.76736 0.08075 0.0
C336 C 0.56919 0.99887 0.08443 0.0
C337 C 0.3035 0.82991 0.04913 0.0
C338 C 0.1768 0.82506 0.12634 0.0
C339 C 0.26027 0.03063 0.08528 0.0
C340 C 0.12407 0.77585 0.08709 0.0
C341 C 0.43704 0.9168 0.12117 0.0
C342 C 0.43977 0.98974 0.04701 0.0
C343 C 0.43339 0.7419 0.09027 0.0
O344 O 0.51976 0.98951 0.07378 0.0
O345 O 0.53592 0.97975 0.09411 0.0
O346 O 0.31655 0.79851 0.05785 0.0
O347 O 0.30945 0.88767 0.05171 0.0
O348 O 0.25658 0.79152 0.12279 0.0
O349 O 0.15915 0.85967 0.11874 0.0
O350 O 0.27046 1.00545 0.07364 0.0
O351 O 0.31059 1.0095 0.0941 0.0
Co352 Co 0.36375 0.8537 0.7316 0.0
Co353 Co 0.31694 0.97334 0.71955 0.0
Co354 Co 0.3911 0.85902 0.70189 0.0
H355 H 0.38514 0.87199 0.71714 0.0
O356 O 0.41526 0.90634 0.72016 0.0
H357 H 0.30716 0.9569 0.70427 0.0
O358 O 0.28016 0.92118 0.70173 0.0
Co359 Co 0.31132 0.97273 0.68927 0.0
O360 O 0.26827 0.05467 0.69868 0.0
O361 O 0.22191 0.04205 0.71819 0.0
O362 O 0.41569 0.92151 0.67725 0.0
O363 O 0.39678 0.83071 0.68253 0.0
O364 O 0.36731 0.78743 0.74238 0.0
O365 O 0.44342 0.86912 0.74905 0.0
O366 O 0.43895 0.02806 0.69498 0.0
O367 O 0.44694 0.02558 0.71576 0.0
C368 C 0.51119 0.77263 0.71257 0.0
C369 C 0.29784 0.97458 0.74696 0.0
C370 C 0.18926 0.96528 0.67007 0.0
C371 C 0.22768 0.77274 0.71275 0.0
C372 C 0.23288 0.07479 0.70984 0.0
C373 C 0.42865 0.86429 0.67477 0.0
C374 C 0.42271 0.81752 0.75122 0.0
C375 C 0.48222 0.04517 0.70593 0.0
O376 O 0.46072 0.78702 0.72305 0.0
O377 O 0.50235 0.80017 0.70338 0.0
O378 O 0.33211 1.00543 0.73877 0.0
O379 O 0.27796 0.91824 0.74347 0.0
O380 O 0.24757 1.00998 0.67449 0.0
O381 O 0.20056 0.92491 0.67654 0.0
O382 O 0.24484 0.79783 0.72426 0.0
O383 O 0.27561 0.79219 0.70353 0.0
Co384 Co 0.70762 0.71856 0.43897 0.0
Co385 Co 0.60605 0.6147 0.45212 0.0
Co386 Co 0.71067 0.71951 0.46911 0.0
H387 H 0.71335 0.70244 0.45386 0.0
O388 O 0.73155 0.66511 0.45126 0.0
H389 H 0.61455 0.62803 0.4673 0.0
O390 O 0.59327 0.66457 0.47026 0.0
Co391 Co 0.6334 0.60835 0.48159 0.0
O392 O 0.49757 0.56479 0.47479 0.0
O393 O 0.47897 0.56894 0.4542 0.0
O394 O 0.72041 0.6678 0.49458 0.0
O395 O 0.70375 0.7554 0.488 0.0
O396 O 0.71936 0.73854 0.42093 0.0
O397 O 0.84874 0.70052 0.42866 0.0
O398 O 0.74958 0.54969 0.47424 0.0
O399 O 0.70595 0.54117 0.45377 0.0
C400 C 0.85647 0.79439 0.45806 0.0
C401 C 0.56934 0.61914 0.4253 0.0
C402 C 0.58414 0.57003 0.50114 0.0
C403 C 0.5632 0.80479 0.45581 0.0
C404 C 0.44767 0.5522 0.46421 0.0
C405 C 0.72423 0.72553 0.49681 0.0
C406 C 0.81521 0.72077 0.41926 0.0
C407 C 0.759 0.52253 0.46272 0.0
O408 O 0.811 0.78092 0.44727 0.0
O409 O 0.83198 0.77166 0.46756 0.0
O410 O 0.59572 0.58435 0.433 0.0
O411 O 0.58955 0.67555 0.42784 0.0
O412 O 0.62013 0.53758 0.49112 0.0
O413 O 0.57759 0.62444 0.50011 0.0
O414 O 0.59148 0.7804 0.44456 0.0
O415 O 0.60229 0.78585 0.46558 0.0
Co416 Co 0.71863 0.56919 0.8564 0.0
Co417 Co 0.62108 0.68244 0.84496 0.0
Co418 Co 0.70737 0.57466 0.82661 0.0
H419 H 0.7186 0.58875 0.84179 0.0
O420 O 0.74089 0.62524 0.84461 0.0
H421 H 0.62539 0.67194 0.82965 0.0
O422 O 0.59851 0.63664 0.82663 0.0
Co423 Co 0.64159 0.6921 0.81528 0.0
O424 O 0.52557 0.74712 0.82378 0.0
O425 O 0.50126 0.73669 0.84399 0.0
O426 O 0.72014 0.63069 0.8018 0.0
O427 O 0.68836 0.54272 0.80772 0.0
O428 O 0.76123 0.53785 0.87274 0.0
O429 O 0.83675 0.61273 0.86841 0.0
O430 O 0.76012 0.7483 0.82293 0.0
O431 O 0.7293 0.75333 0.84365 0.0
C432 C 0.84222 0.48566 0.83561 0.0
C433 C 0.57522 0.66674 0.87064 0.0
C434 C 0.58037 0.72774 0.79566 0.0
C435 C 0.56096 0.49005 0.83996 0.0
C436 C 0.47745 0.7596 0.83444 0.0
C437 C 0.71252 0.57307 0.79911 0.0
C438 C 0.83185 0.57763 0.87614 0.0
C439 C 0.77761 0.77303 0.83447 0.0
O440 O 0.80553 0.4996 0.8469 0.0
O441 O 0.81914 0.5136 0.82681 0.0
O442 O 0.61295 0.70565 0.86438 0.0
O443 O 0.59538 0.61048 0.86703 0.0
O444 O 0.63322 0.75924 0.80458 0.0
O445 O 0.56377 0.67574 0.79782 0.0
O446 O 0.60264 0.507 0.85093 0.0
O447 O 0.5907 0.51391 0.83043 0.0
Co448 Co 0.39214 0.45319 0.56674 0.0
Co449 Co 0.32066 0.33444 0.5775 0.0
Co450 Co 0.40177 0.44287 0.59633 0.0
H451 H 0.40371 0.43238 0.58108 0.0
O452 O 0.43061 0.39708 0.57806 0.0
H453 H 0.30665 0.34814 0.5928 0.0
O454 O 0.28348 0.38457 0.59537 0.0
Co455 Co 0.29708 0.32959 0.6076 0.0
O456 O 0.16217 0.30941 0.59707 0.0
O457 O 0.21138 0.27192 0.57755 0.0
O458 O 0.41377 0.3718 0.61931 0.0
O459 O 0.40064 0.46609 0.61564 0.0
O460 O 0.40779 0.52025 0.55624 0.0
O461 O 0.4631 0.43368 0.54895 0.0
O462 O 0.40973 0.2651 0.60213 0.0
O463 O 0.43487 0.27348 0.5818 0.0
C464 C 0.54251 0.52652 0.58715 0.0
C465 C 0.31737 0.33458 0.55012 0.0
C466 C 0.19447 0.32054 0.62728 0.0
C467 C 0.24699 0.53153 0.58507 0.0
C468 C 0.16003 0.26647 0.58745 0.0
C469 C 0.43082 0.42858 0.62264 0.0
C470 C 0.45259 0.48645 0.54698 0.0
C471 C 0.4571 0.24866 0.59146 0.0
O472 O 0.49801 0.51398 0.57621 0.0
O473 O 0.52003 0.50003 0.59622 0.0
O474 O 0.34142 0.30332 0.55859 0.0
O475 O 0.31421 0.39237 0.55292 0.0
O476 O 0.28965 0.30231 0.62503 0.0
O477 O 0.15884 0.34386 0.61842 0.0
O478 O 0.26983 0.50752 0.57365 0.0
O479 O 0.29165 0.51203 0.59449 0.0
Co480 Co 0.37601 0.34867 0.23171 0.0
Co481 Co 0.30822 0.46689 0.22108 0.0
Co482 Co 0.39532 0.3613 0.20212 0.0
H483 H 0.39223 0.37009 0.21744 0.0
O484 O 0.41894 0.40532 0.22058 0.0
H485 H 0.29316 0.45382 0.2057 0.0
O486 O 0.27271 0.41699 0.20304 0.0
Co487 Co 0.27926 0.47306 0.19088 0.0
O488 O 0.15003 0.48303 0.20244 0.0
O489 O 0.19429 0.52715 0.22147 0.0
O490 O 0.4091 0.4382 0.18059 0.0
O491 O 0.40121 0.34157 0.18257 0.0
O492 O 0.3644 0.28591 0.24336 0.0
O493 O 0.46656 0.35926 0.2483 0.0
O494 O 0.39384 0.5368 0.19624 0.0
O495 O 0.42055 0.52859 0.21659 0.0
C496 C 0.53506 0.27996 0.21192 0.0
C497 C 0.30901 0.46732 0.24839 0.0
C498 C 0.16944 0.48242 0.17146 0.0
C499 C 0.24391 0.26717 0.21217 0.0
C500 C 0.14359 0.52897 0.21137 0.0
C501 C 0.42953 0.38246 0.17624 0.0
C502 C 0.43248 0.31153 0.25132 0.0
C503 C 0.44272 0.55295 0.20686 0.0
O504 O 0.48604 0.29145 0.22253 0.0
O505 O 0.51585 0.30614 0.20267 0.0
O506 O 0.33176 0.49824 0.23986 0.0
O507 O 0.30094 0.40978 0.24557 0.0
O508 O 0.26074 0.50581 0.17404 0.0
O509 O 0.14147 0.45413 0.17988 0.0
O510 O 0.26167 0.28989 0.22383 0.0
O511 O 0.28941 0.28946 0.20317 0.0
C512 C 0.37245 0.39974 0.44958 0.0
C513 C 0.34414 0.37595 0.46022 0.0
C514 C 0.38473 0.46094 0.45055 0.0
C515 C 0.37819 0.49993 0.46246 0.0
H516 H 0.38428 0.37073 0.44032 0.0
H517 H 0.4114 0.47631 0.44211 0.0
S518 S 0.28675 0.46126 0.49274 0.0
N519 N 0.29099 0.39601 0.48253 0.0
N520 N 0.32516 0.5129 0.4847 0.0
C521 C 0.34207 0.47757 0.47304 0.0
C522 C 0.32526 0.4148 0.47192 0.0
C523 C 0.88681 0.95561 0.47055 0.0
C524 C 0.94057 0.97342 0.46044 0.0
C525 C 0.87264 0.89494 0.47058 0.0
C526 C 0.91077 0.85115 0.46039 0.0
H527 H 0.85866 0.98883 0.47862 0.0
H528 H 0.82549 0.88255 0.47817 0.0
S529 S 0.06458 0.87486 0.4323 0.0
N530 N 0.0388 0.94344 0.44047 0.0
N531 N 0.00953 0.82802 0.44048 0.0
C532 C 0.9679 0.86822 0.45047 0.0
C533 C 0.98186 0.92994 0.45038 0.0
C534 C 0.43663 0.92033 0.84725 0.0
C535 C 0.38188 0.93848 0.8372 0.0
C536 C 0.45459 0.85973 0.84705 0.0
C537 C 0.4206 0.81598 0.83664 0.0
H538 H 0.46261 0.95325 0.85549 0.0
H539 H 0.50149 0.84755 0.8547 0.0
S540 S 0.26969 0.84021 0.80835 0.0
N541 N 0.28858 0.90874 0.81694 0.0
N542 N 0.32724 0.79331 0.81634 0.0
C543 C 0.36426 0.8333 0.82663 0.0
C544 C 0.34512 0.89516 0.82687 0.0
C545 C 0.99657 0.35525 0.8413 0.0
C546 C 0.94177 0.30734 0.83336 0.0
C547 C 0.97394 0.41482 0.84081 0.0
C548 C 0.89681 0.42817 0.8323 0.0
H549 H 0.05267 0.34713 0.84852 0.0
H550 H 0.00975 0.45052 0.84786 0.0
S551 S 0.74575 0.31996 0.80804 0.0
N552 N 0.81908 0.27699 0.81558 0.0
N553 N 0.77592 0.39057 0.81463 0.0
C554 C 0.85056 0.38126 0.82332 0.0
C555 C 0.8732 0.32014 0.82388 0.0
C556 C 0.66559 0.59747 0.58022 0.0
C557 C 0.60101 0.58324 0.58989 0.0
C558 C 0.68417 0.65734 0.5795 0.0
C559 C 0.63863 0.70501 0.58844 0.0
H560 H 0.69415 0.56214 0.57256 0.0
H561 H 0.73157 0.66587 0.57156 0.0
S562 S 0.47656 0.69015 0.6167 0.0
N563 N 0.50241 0.61992 0.60948 0.0
N564 N 0.53611 0.73359 0.60807 0.0
C565 C 0.58164 0.69115 0.5988 0.0
C566 C 0.56386 0.62982 0.5996 0.0
C567 C 0.17281 0.09672 0.58202 0.0
C568 C 0.10341 0.0836 0.59138 0.0
C569 C 0.19158 0.1562 0.58099 0.0
C570 C 0.14149 0.20458 0.58931 0.0
H571 H 0.20482 0.06066 0.57475 0.0
H572 H 0.24282 0.16382 0.57329 0.0
S573 S 0.96481 0.19294 0.61659 0.0
N574 N 0.99459 0.12229 0.61004 0.0
N575 N 0.02888 0.23523 0.60806 0.0
C576 C 0.07946 0.19201 0.59942 0.0
C577 C 0.06136 0.13109 0.60053 0.0
C578 C 0.6735 0.14733 0.21962 0.0
C579 C 0.63121 0.10103 0.21025 0.0
C580 C 0.65199 0.20741 0.21927 0.0
C581 C 0.58817 0.22227 0.20952 0.0
H582 H 0.72735 0.13725 0.22689 0.0
H583 H 0.682 0.24247 0.22689 0.0
S584 S 0.45427 0.11646 0.18323 0.0
N585 N 0.52025 0.07277 0.19129 0.0
N586 N 0.47924 0.18652 0.19063 0.0
C587 C 0.5451 0.17625 0.20013 0.0
C588 C 0.56567 0.11525 0.2006 0.0
C589 C 0.18325 0.69541 0.21325 0.0
C590 C 0.10289 0.7081 0.20505 0.0
C591 C 0.19998 0.63638 0.21472 0.0
C592 C 0.13558 0.58871 0.20813 0.0
H593 H 0.22562 0.73178 0.21945 0.0
H594 H 0.25944 0.62891 0.22165 0.0
S595 S 0.92508 0.59934 0.18422 0.0
N596 N 0.96866 0.66929 0.18898 0.0
N597 N 0.99745 0.5575 0.19211 0.0
C598 C 0.06265 0.60035 0.19895 0.0
C599 C 0.04739 0.6605 0.19726 0.0
C600 C 0.46353 0.93424 0.95039 0.0
C601 C 0.42162 0.98094 0.9597 0.0
C602 C 0.44118 0.87448 0.95076 0.0
C603 C 0.37481 0.85999 0.96031 0.0
H604 H 0.5192 0.94367 0.94324 0.0
H605 H 0.47329 0.83926 0.94332 0.0
S606 S 0.2378 0.9669 0.98608 0.0
N607 N 0.30848 1.01016 0.97838 0.0
N608 N 0.26098 0.89654 0.97869 0.0
C609 C 0.33002 0.90631 0.96948 0.0
C610 C 0.35386 0.96729 0.96918 0.0
C611 C 0.91882 0.36199 0.94882 0.0
C612 C 0.864 0.34929 0.95941 0.0
C613 C 0.93406 0.42168 0.94752 0.0
C614 C 0.89598 0.4696 0.9569 0.0
H615 H 0.95802 0.32626 0.94212 0.0
H616 H 0.98773 0.43022 0.9401 0.0
S617 S 0.71976 0.46026 0.98416 0.0
N618 N 0.74938 0.38946 0.97776 0.0
N619 N 0.78099 0.50155 0.97522 0.0
C620 C 0.82728 0.4574 0.96635 0.0
C621 C 0.81143 0.397 0.96774 0.0
C622 C 0.44841 0.35712 0.34799 0.0
C623 C 0.43149 0.31603 0.33654 0.0
C624 C 0.42089 0.41729 0.34902 0.0
C625 C 0.37491 0.4375 0.33867 0.0
H626 H 0.48853 0.34358 0.35597 0.0
H627 H 0.4345 0.44819 0.35801 0.0
S628 S 0.30603 0.34584 0.30703 0.0
N629 N 0.36157 0.29773 0.3149 0.0
N630 N 0.30695 0.41199 0.31694 0.0
C631 C 0.35486 0.3966 0.32726 0.0
C632 C 0.38295 0.33524 0.32622 0.0
C633 C 0.88708 0.87807 0.32367 0.0
C634 C 0.81077 0.90141 0.33295 0.0
C635 C 0.9144 0.81704 0.32166 0.0
C636 C 0.86541 0.77872 0.32884 0.0
H637 H 0.93184 0.90769 0.31875 0.0
H638 H 0.98267 0.80173 0.31561 0.0
S639 S 0.63974 0.81425 0.35142 0.0
N640 N 0.66968 0.87885 0.34725 0.0
N641 N 0.72429 0.76414 0.34347 0.0
C642 C 0.77955 0.79961 0.33681 0.0
C643 C 0.75144 0.86137 0.3389 0.0
C644 C 0.6462 0.08577 0.09861 0.0
C645 C 0.64584 0.04828 0.08651 0.0
C646 C 0.66952 0.14653 0.09996 0.0
C647 C 0.69742 0.17098 0.08935 0.0
H648 H 0.61687 0.07011 0.1069 0.0
H649 H 0.66236 0.17488 0.10935 0.0
S650 S 0.74267 0.08695 0.05647 0.0
N651 N 0.69854 0.03575 0.06429 0.0
N652 N 0.74683 0.15131 0.06695 0.0
C653 C 0.71118 0.13254 0.0775 0.0
C654 C 0.68634 0.07042 0.0761 0.0
C655 C 0.06698 0.61472 0.0751 0.0
C656 C 0.04295 0.59414 0.08628 0.0
C657 C 0.07595 0.67566 0.07519 0.0
C658 C 0.06928 0.71833 0.08664 0.0
H659 H 0.07545 0.58344 0.06606 0.0
H660 H 0.09579 0.68884 0.06628 0.0
S661 S 0.99207 0.68788 0.11822 0.0
N662 N 0.99869 0.62057 0.10881 0.0
N663 N 0.02292 0.73671 0.10918 0.0
C664 C 0.04006 0.69875 0.09784 0.0
C665 C 0.0278 0.63613 0.09767 0.0
C666 C 0.6102 0.69451 0.72049 0.0
C667 C 0.55995 0.7138 0.71028 0.0
C668 C 0.63812 0.63435 0.71951 0.0
C669 C 0.61632 0.5925 0.70829 0.0
H670 H 0.62692 0.72608 0.7293 0.0
H671 H 0.68187 0.62128 0.7273 0.0
S672 S 0.47632 0.61944 0.67945 0.0
N673 N 0.48182 0.68636 0.68905 0.0
N674 N 0.53617 0.5722 0.68719 0.0
C675 C 0.5629 0.61071 0.69819 0.0
C676 C 0.53499 0.67198 0.69915 0.0
C677 C 0.12557 0.2258 0.72594 0.0
C678 C 0.16341 0.26291 0.7178 0.0
C679 C 0.15229 0.16471 0.72374 0.0
C680 C 0.21883 0.14012 0.71349 0.0
H681 H 0.06527 0.24197 0.73305 0.0
H682 H 0.11453 0.13609 0.72948 0.0
S683 S 0.36972 0.22516 0.69276 0.0
N684 N 0.28992 0.27581 0.7014 0.0
N685 N 0.34599 0.16116 0.69748 0.0
C686 C 0.27073 0.17934 0.70665 0.0
C687 C 0.24192 0.24111 0.70881 0.0
C688 C 0.39877 0.94861 0.47058 0.0
C689 C 0.35102 0.96865 0.46006 0.0
C690 C 0.46426 0.89599 0.46923 0.0
C691 C 0.48679 0.85945 0.45725 0.0
H692 H 0.38542 0.97385 0.48014 0.0
H693 H 0.49839 0.8843 0.47772 0.0
S694 S 0.38123 0.88945 0.42644 0.0
N695 N 0.33143 0.94558 0.43713 0.0
N696 N 0.45264 0.84786 0.43447 0.0
C697 C 0.43901 0.87862 0.44661 0.0
C698 C 0.37217 0.93242 0.44802 0.0
C699 C 0.94781 0.39347 0.46909 0.0
C700 C 0.96626 0.3561 0.45708 0.0
C701 C 0.88257 0.4463 0.47063 0.0
C702 C 0.83076 0.4657 0.46029 0.0
H703 H 0.98585 0.38258 0.47745 0.0
H704 H 0.87309 0.47237 0.48019 0.0
S705 S 0.84852 0.38376 0.4267 0.0
N706 N 0.92354 0.34278 0.43451 0.0
N707 N 0.80232 0.44071 0.43748 0.0
C708 C 0.84741 0.42842 0.44822 0.0
C709 C 0.91426 0.3745 0.44662 0.0
C710 C 0.37703 0.36251 0.84789 0.0
C711 C 0.33188 0.33446 0.83612 0.0
C712 C 0.44847 0.41269 0.849 0.0
C713 C 0.47923 0.43827 0.83842 0.0
H714 H 0.35759 0.34547 0.85637 0.0
H715 H 0.48051 0.43136 0.85835 0.0
S716 S 0.38307 0.38403 0.80535 0.0
N717 N 0.32368 0.33857 0.81352 0.0
N718 N 0.45588 0.43112 0.81576 0.0
C719 C 0.43392 0.4112 0.82664 0.0
C720 C 0.36139 0.36016 0.82546 0.0
C721 C 0.87317 0.86489 0.84881 0.0
C722 C 0.85251 0.82895 0.83666 0.0
C723 C 0.93871 0.91808 0.85053 0.0
C724 C 0.98689 0.93941 0.8402 0.0
H725 H 0.83812 0.85208 0.85713 0.0
H726 H 0.95143 0.94291 0.86014 0.0
S727 S 0.96138 0.86293 0.8063 0.0
N728 N 0.88989 0.82013 0.81399 0.0
N729 N 0.00873 0.91839 0.81731 0.0
C730 C 0.96686 0.90404 0.82803 0.0
C731 C 0.90137 0.84977 0.82626 0.0
C732 C 0.56014 0.15879 0.57849 0.0
C733 C 0.53637 0.19592 0.59034 0.0
C734 C 0.62619 0.10668 0.57742 0.0
C735 C 0.67366 0.0881 0.58811 0.0
H736 H 0.52569 0.1693 0.5699 0.0
H737 H 0.64008 0.08063 0.56794 0.0
S738 S 0.64234 0.17084 0.62146 0.0
N739 N 0.56955 0.21061 0.61316 0.0
N740 N 0.69317 0.1139 0.61104 0.0
C741 C 0.65159 0.1252 0.60003 0.0
C742 C 0.58366 0.17836 0.60116 0.0
C743 C 0.13504 0.61803 0.59883 0.0
C744 C 0.17041 0.58643 0.58681 0.0
C745 C 0.06585 0.66957 0.60016 0.0
C746 C 0.02893 0.69345 0.58959 0.0
H747 H 0.16061 0.60282 0.60732 0.0
H748 H 0.04116 0.69101 0.60967 0.0
S749 S 0.09667 0.62924 0.5559 0.0
N750 N 0.16056 0.58493 0.56397 0.0
N751 N 0.03447 0.68013 0.56664 0.0
C752 C 0.06437 0.66273 0.57757 0.0
C753 C 0.1335 0.61011 0.57616 0.0
C754 C 0.5553 0.63997 0.21957 0.0
C755 C 0.52488 0.60437 0.20776 0.0
C756 C 0.62536 0.69044 0.22047 0.0
C757 C 0.67036 0.70885 0.20963 0.0
H758 H 0.52327 0.62949 0.22827 0.0
H759 H 0.64438 0.71535 0.22991 0.0
S760 S 0.62171 0.62971 0.1763 0.0
N761 N 0.54957 0.59083 0.18482 0.0
N762 N 0.67968 0.68462 0.1866 0.0
C763 C 0.64158 0.67324 0.19775 0.0
C764 C 0.56985 0.62172 0.19681 0.0
C765 C 0.1313 0.18654 0.22004 0.0
C766 C 0.17221 0.21037 0.20965 0.0
C767 C 0.06764 0.13316 0.21845 0.0
C768 C 0.03987 0.09959 0.20634 0.0
H769 H 0.14856 0.20935 0.2297 0.0
H770 H 0.03861 0.11867 0.22689 0.0
S771 S 0.12745 0.13954 0.17573 0.0
N772 N 0.18059 0.19363 0.18665 0.0
N773 N 0.06207 0.09468 0.18356 0.0
C774 C 0.08094 0.12244 0.19581 0.0
C775 C 0.14628 0.17694 0.19746 0.0
C776 C 0.38342 0.44107 0.97071 0.0
C777 C 0.34491 0.46237 0.95988 0.0
C778 C 0.45501 0.39124 0.96984 0.0
C779 C 0.49375 0.35923 0.95807 0.0
H780 H 0.35787 0.46307 0.98015 0.0
H781 H 0.48126 0.3783 0.97856 0.0
S782 S 0.41791 0.39406 0.92657 0.0
N783 N 0.35156 0.44524 0.93687 0.0
N784 N 0.48487 0.3529 0.93511 0.0
C785 C 0.45563 0.37972 0.94711 0.0
C786 C 0.38216 0.4305 0.94803 0.0
C787 C 0.93736 0.8777 0.94676 0.0
C788 C 0.98022 0.85443 0.95712 0.0
C789 C 0.87364 0.93143 0.94846 0.0
C790 C 0.84991 0.96589 0.96065 0.0
H791 H 0.9531 0.85407 0.93712 0.0
H792 H 0.84256 0.94588 0.94011 0.0
S793 S 0.94464 0.92649 0.99114 0.0
N794 N 0.99363 0.87177 0.98009 0.0
N795 N 0.87849 0.97137 0.98341 0.0
C796 C 0.89341 0.94311 0.9711 0.0
C797 C 0.9568 0.8882 0.96933 0.0
C798 C 0.36125 0.85714 0.32582 0.0
C799 C 0.31663 0.83619 0.33637 0.0
C800 C 0.42925 0.90863 0.32721 0.0
C801 C 0.45705 0.94297 0.33924 0.0
H802 H 0.34446 0.83312 0.31624 0.0
H803 H 0.46228 0.9207 0.31871 0.0
S804 S 0.35984 0.91045 0.37013 0.0
N805 N 0.30474 0.85631 0.35939 0.0
N806 N 0.43004 0.95237 0.36208 0.0
C807 C 0.41134 0.92335 0.34991 0.0
C808 C 0.34243 0.87055 0.34847 0.0
C809 C 0.96756 0.3994 0.32882 0.0
C810 C 0.97986 0.43869 0.34072 0.0
C811 C 0.90711 0.34493 0.32735 0.0
C812 C 0.85452 0.3257 0.33766 0.0
H813 H 1.00623 0.41029 0.32051 0.0
H814 H 0.90147 0.31763 0.31785 0.0
S815 S 0.85805 0.41194 0.37096 0.0
N816 N 0.93141 0.45367 0.36317 0.0
N817 N 0.81909 0.3526 0.36029 0.0
C818 C 0.86583 0.36457 0.34962 0.0
C819 C 0.92762 0.42023 0.35115 0.0
C820 C 0.53446 0.65944 0.0992 0.0
C821 C 0.51098 0.6881 0.08881 0.0
C822 C 0.60343 0.60804 0.09804 0.0
C823 C 0.65227 0.5816 0.08638 0.0
H824 H 0.49865 0.67666 0.1084 0.0
H825 H 0.61738 0.58851 0.10634 0.0
S826 S 0.62376 0.6407 0.05634 0.0
N827 N 0.54768 0.68644 0.06659 0.0
N828 N 0.67484 0.59174 0.06428 0.0
C829 C 0.63073 0.6107 0.07599 0.0
C830 C 0.56123 0.66301 0.07722 0.0
C831 C 0.14645 0.11169 0.07776 0.0
C832 C 0.19127 0.08834 0.08801 0.0
C833 C 0.08365 0.16537 0.07956 0.0
C834 C 0.06085 0.19973 0.09176 0.0
H835 H 0.15956 0.08813 0.06806 0.0
H836 H 0.05085 0.17929 0.07123 0.0
S837 S 0.15896 0.16082 0.12205 0.0
N838 N 0.20815 0.10607 0.11097 0.0
N839 N 0.0911 0.2057 0.11443 0.0
C840 C 0.10577 0.17737 0.10214 0.0
C841 C 0.17024 0.12252 0.10028 0.0
C842 C 0.59985 0.12727 0.71938 0.0
C843 C 0.56544 0.09619 0.70731 0.0
C844 C 0.66773 0.17882 0.72089 0.0
C845 C 0.70569 0.2031 0.71044 0.0
H846 H 0.5724 0.11248 0.72784 0.0
H847 H 0.68986 0.20016 0.7305 0.0
S848 S 0.64243 0.13889 0.67661 0.0
N849 N 0.57826 0.09391 0.68452 0.0
N850 N 0.70346 0.19008 0.68746 0.0
C851 C 0.6732 0.1721 0.69829 0.0
C852 C 0.60429 0.11925 0.69672 0.0
C853 C 0.06415 0.62908 0.69682 0.0
C854 C 0.02759 0.60357 0.70719 0.0
C855 C 0.12694 0.68314 0.6985 0.0
C856 C 0.15641 0.71565 0.71068 0.0
H857 H 0.04382 0.60715 0.68719 0.0
H858 H 0.15245 0.69949 0.69015 0.0
S859 S 0.08573 0.66788 0.74116 0.0
N860 N 0.02973 0.61558 0.73013 0.0
N861 N 0.14462 0.71526 0.73342 0.0
C862 C 0.12081 0.6901 0.72113 0.0
C863 C 0.0577 0.63507 0.71938 0.0
C864 C 0.4094 0.24638 0.40009 0.0
C865 C 0.39202 0.20037 0.40715 0.0
C866 C 0.47161 0.23609 0.38869 0.0
C867 C 0.51826 0.17908 0.3838 0.0
H868 H 0.37361 0.29055 0.4033 0.0
H869 H 0.48045 0.27243 0.38352 0.0
S870 S 0.49796 0.04359 0.39888 0.0
N871 N 0.42882 0.09626 0.40841 0.0
N872 N 0.54282 0.07644 0.38749 0.0
C873 C 0.50227 0.13333 0.39102 0.0
C874 C 0.44022 0.14401 0.40251 0.0
C875 C 0.86166 0.05411 0.3993 0.0
C876 C 0.89968 0.07358 0.38834 0.0
C877 C 0.92356 0.06182 0.41065 0.0
C878 C 0.02656 0.08875 0.41147 0.0
H879 H 0.78152 0.03506 0.3993 0.0
H880 H 0.88785 0.04997 0.41904 0.0
S881 S 0.16874 0.14093 0.38515 0.0
N882 N 0.05144 0.11634 0.3789 0.0
N883 N 0.16629 0.13021 0.39993 0.0
C884 C 0.06725 0.10514 0.40036 0.0
C885 C 1.00452 0.09772 0.3889 0.0
C886 C 0.52485 0.15884 0.90568 0.0
C887 C 0.53388 0.11563 0.91358 0.0
C888 C 0.45882 0.14972 0.8948 0.0
C889 C 0.39739 0.09679 0.89106 0.0
H890 H 0.56831 0.20124 0.90799 0.0
H891 H 0.45507 0.18524 0.88934 0.0
S892 S 0.39423 0.96707 0.90772 0.0
N893 N 0.47701 1.01608 0.9164 0.0
N894 N 0.35334 0.9987 0.8959 0.0
C895 C 0.40716 0.05213 0.89858 0.0
C896 C 0.47516 0.06148 0.90978 0.0
C897 C 0.01643 0.20743 0.90904 0.0
C898 C 0.91124 0.23148 0.90973 0.0
C899 C 0.07631 0.19846 0.89771 0.0
C900 C 0.03483 0.21415 0.88659 0.0
H901 H 0.05157 0.19294 0.91718 0.0
H902 H 0.15418 0.17646 0.89749 0.0
S903 S 0.76597 0.28118 0.88329 0.0
N904 N 0.76978 0.27302 0.89826 0.0
N905 N 0.88333 0.25661 0.87703 0.0
C906 C 0.93204 0.24092 0.88724 0.0
C907 C 0.8701 0.24951 0.89879 0.0
C908 C 0.44809 0.8622 0.65146 0.0
C909 C 0.48179 0.83966 0.6622 0.0
C910 C 0.51059 0.85502 0.6403 0.0
C911 C 0.61131 0.82547 0.63926 0.0
H912 H 0.37434 0.88831 0.6519 0.0
H913 H 0.48099 0.8749 0.63256 0.0
S914 S 0.73529 0.75483 0.66431 0.0
N915 N 0.6212 0.78374 0.6708 0.0
N916 N 0.73892 0.77015 0.64987 0.0
C917 C 0.64415 0.8001 0.64969 0.0
C918 C 0.57957 0.80717 0.66111 0.0
C919 C 1.00385 0.8945 0.64272 0.0
C920 C 0.98885 0.93992 0.63546 0.0
C921 C 0.06696 0.90377 0.65382 0.0
C922 C 0.11907 0.95907 0.65842 0.0
H923 H 0.96752 0.8503 0.63975 0.0
H924 H 0.07606 0.86654 0.65874 0.0
S925 S 0.1027 0.09504 0.64374 0.0
N926 N 0.02921 0.044 0.63421 0.0
N927 N 0.1476 0.06163 0.65513 0.0
C928 C 0.10309 1.00584 0.65155 0.0
C929 C 0.03809 0.99633 0.64013 0.0
C930 C 0.56107 0.89813 0.15285 0.0
C931 C 0.62957 0.94831 0.15639 0.0
C932 C 0.49748 0.8903 0.14178 0.0
C933 C 0.4983 0.93222 0.13356 0.0
H934 H 0.5573 0.86379 0.1586 0.0
H935 H 0.44785 0.85006 0.1396 0.0
S936 S 0.65953 0.07364 0.13877 0.0
N937 N 0.69126 0.04244 0.15098 0.0
N938 N 0.57176 0.02758 0.13018 0.0
C939 C 0.5641 0.98374 0.13716 0.0
C940 C 0.62966 0.9917 0.14851 0.0
C941 C 0.95651 0.86837 0.15099 0.0
C942 C 0.98114 0.83569 0.16053 0.0
C943 C 0.01841 0.86282 0.13991 0.0
C944 C 0.10866 0.82441 0.1378 0.0
H945 H 0.89142 0.90107 0.15237 0.0
H946 H 0.99705 0.89068 0.13314 0.0
S947 S 0.20187 0.7238 0.15917 0.0
N948 N 0.09748 0.75988 0.16671 0.0
N949 N 0.21424 0.7488 0.14575 0.0
C950 C 0.13085 0.7885 0.14688 0.0
C951 C 0.06694 0.79417 0.15825 0.0
C952 C 0.50897 0.73675 0.89125 0.0
C953 C 0.50074 0.68275 0.88201 0.0
C954 C 0.44869 0.74534 0.90277 0.0
C955 C 0.37931 0.69991 0.90561 0.0
H956 H 0.56492 0.77158 0.8898 0.0
H957 H 0.45928 0.78698 0.90969 0.0
S958 S 0.31444 0.555 0.8838 0.0
N959 N 0.40424 0.58721 0.87597 0.0
N960 N 0.29814 0.60212 0.89753 0.0
C961 C 0.36692 0.64738 0.8962 0.0
C962 C 0.42543 0.63924 0.88447 0.0
C963 C 0.95155 0.55008 0.9077 0.0
C964 C 0.02258 0.59929 0.91123 0.0
C965 C 0.89099 0.54249 0.89626 0.0
C966 C 0.90003 0.58345 0.88788 0.0
H967 H 0.93875 0.51902 0.91406 0.0
H968 H 0.83496 0.50504 0.89411 0.0
S969 S 0.08074 0.71709 0.89225 0.0
N970 N 0.10074 0.68801 0.90499 0.0
N971 N 0.99118 0.67263 0.88368 0.0
C972 C 0.97409 0.6311 0.89109 0.0
C973 C 0.03407 0.63924 0.90269 0.0
C974 C 0.47936 0.61331 0.39133 0.0
C975 C 0.37658 0.58646 0.39076 0.0
C976 C 0.54467 0.61879 0.40222 0.0
C977 C 0.51127 0.59711 0.41306 0.0
H978 H 0.50863 0.63214 0.38343 0.0
H979 H 0.62064 0.6426 0.40235 0.0
S980 S 0.25204 0.52009 0.41637 0.0
N981 N 0.24656 0.5352 0.40192 0.0
N982 N 0.36982 0.54572 0.42235 0.0
C983 C 0.41098 0.56765 0.41245 0.0
C984 C 0.34362 0.56236 0.40134 0.0
C985 C 0.98951 0.70372 0.40725 0.0
C986 C 0.88133 0.72285 0.4077 0.0
C987 C 0.05141 0.69938 0.39615 0.0
C988 C 0.00866 0.71463 0.38502 0.0
H989 H 0.02574 0.68959 0.41538 0.0
H990 H 0.13192 0.68059 0.39605 0.0
S991 S 0.73233 0.77121 0.38138 0.0
N992 N 0.73605 0.7608 0.39619 0.0
N993 N 0.85292 0.75234 0.37533 0.0
C994 C 0.90275 0.73707 0.38552 0.0
C995 C 0.83903 0.74121 0.39685 0.0
C996 C 0.55114 0.31497 0.15967 0.0
C997 C 0.49198 0.36888 0.16377 0.0
C998 C 0.61762 0.30652 0.14863 0.0
C999 C 0.62732 0.35133 0.14112 0.0
H1000 H 0.54852 0.27971 0.1652 0.0
H1001 H 0.66268 0.26477 0.14605 0.0
S1002 S 0.48822 0.49996 0.14724 0.0
N1003 N 0.44763 0.4672 0.15884 0.0
N1004 N 0.56972 0.45082 0.13855 0.0
C1005 C 0.56685 0.40447 0.14494 0.0
C1006 C 0.50032 0.41332 0.1561 0.0
C1007 C 0.1507 0.50023 0.14883 0.0
C1008 C 0.10378 0.48509 0.15979 0.0
C1009 C 0.0923 0.49479 0.13728 0.0
C1010 C 0.98376 0.47573 0.13634 0.0
H1011 H 0.23487 0.51295 0.14895 0.0
H1012 H 0.13452 0.5016 0.12885 0.0
S1013 S 0.81898 0.43875 0.1626 0.0
N1014 N 0.93907 0.45465 0.16902 0.0
N1015 N 0.82968 0.44773 0.14775 0.0
C1016 C 0.93433 0.46505 0.14748 0.0
C1017 C 0.99396 0.46891 0.15906 0.0
C1018 C 0.4611 0.42461 0.64554 0.0
C1019 C 0.49204 0.44794 0.63481 0.0
C1020 C 0.52869 0.42859 0.65624 0.0
C1021 C 0.6318 0.45519 0.65669 0.0
H1022 H 0.38499 0.401 0.64547 0.0
H1023 H 0.50084 0.40892 0.66408 0.0
S1024 S 0.75178 0.52399 0.63117 0.0
N1025 N 0.63241 0.49983 0.62545 0.0
N1026 N 0.76003 0.50702 0.64543 0.0
C1027 C 0.66276 0.48033 0.64617 0.0
C1028 C 0.59295 0.47681 0.63529 0.0
C1029 C 0.02193 0.33407 0.63965 0.0
C1030 C 0.13161 0.31764 0.63902 0.0
C1031 C 0.96267 0.33881 0.65095 0.0
C1032 C 0.00989 0.32694 0.66214 0.0
H1033 H 0.98221 0.34572 0.63146 0.0
H1034 H 0.88044 0.35524 0.65112 0.0
S1035 S 0.29319 0.28054 0.66555 0.0
N1036 N 0.28396 0.28709 0.65052 0.0
N1037 N 0.17243 0.29661 0.67181 0.0
C1038 C 0.11792 0.30769 0.66153 0.0
C1039 C 0.17872 0.30289 0.64997 0.0
C1040 C 0.26945 0.34145 0.52734 0.0
C1041 C 0.2938 0.30531 0.53642 0.0
C1042 C 0.24809 0.31618 0.5144 0.0
C1043 C 0.25015 0.25328 0.50979 0.0
H1044 H 0.26702 0.39024 0.5302 0.0
H1045 H 0.23023 0.34634 0.50798 0.0
S1046 S 0.30701 0.13774 0.5296 0.0
N1047 N 0.31613 0.20287 0.53973 0.0
N1048 N 0.27818 0.15518 0.51575 0.0
C1049 C 0.27418 0.21657 0.51883 0.0
C1050 C 0.29526 0.24245 0.53198 0.0
C1051 C 0.94672 0.06246 0.53228 0.0
C1052 C 0.99418 1.01152 0.53587 0.0
C1053 C 0.97924 0.08249 0.5212 0.0
C1054 C 0.06069 0.05248 0.5132 0.0
H1055 H 0.88368 0.08722 0.53808 0.0
H1056 H 0.94003 0.12187 0.51891 0.0
S1057 S 0.20962 0.91602 0.51811 0.0
N1058 N 0.1263 0.93109 0.53032 0.0
N1059 N 0.18717 0.96846 0.50965 0.0
C1060 C 0.10852 1.00136 0.51666 0.0
C1061 C 0.0754 0.98099 0.52792 0.0
C1062 C 0.29131 0.06385 0.76604 0.0
C1063 C 0.27785 1.00178 0.76096 0.0
C1064 C 0.27171 0.08842 0.77907 0.0
C1065 C 0.2383 0.05241 0.78785 0.0
H1066 H 0.31642 0.09399 0.75989 0.0
H1067 H 0.28253 0.13669 0.78226 0.0
S1068 S 0.19165 0.88684 0.77971 0.0
N1069 N 0.22879 0.90452 0.76616 0.0
N1070 N 0.19376 0.95083 0.79028 0.0
C1071 C 0.22607 0.99025 0.78296 0.0
C1072 C 0.24517 0.96512 0.7697 0.0
C1073 C 0.99592 0.21671 0.77528 0.0
C1074 C 0.02763 0.25766 0.78637 0.0
C1075 C 0.96557 0.23686 0.7642 0.0
C1076 C 0.96649 0.29873 0.76373 0.0
H1077 H 0.9952 0.16853 0.77511 0.0
H1078 H 0.94296 0.20357 0.75587 0.0
S1079 S 0.0365 0.4248 0.79038 0.0
N1080 N 0.05337 0.36329 0.79632 0.0
N1081 N 0.9977 0.40105 0.7755 0.0
C1082 C 0.99687 0.34023 0.77479 0.0
C1083 C 0.02706 0.31974 0.7861 0.0
C1084 C 0.7661 0.72158 0.5198 0.0
C1085 C 0.75114 0.75646 0.51028 0.0
C1086 C 0.78951 0.74814 0.53257 0.0
C1087 C 0.79896 0.81118 0.5366 0.0
H1088 H 0.75919 0.67278 0.51743 0.0
H1089 H 0.79941 0.7188 0.53935 0.0
S1090 S 0.76975 0.92369 0.51552 0.0
N1091 N 0.74987 0.85785 0.50591 0.0
N1092 N 0.79222 0.90803 0.52968 0.0
C1093 C 0.78466 0.84672 0.52714 0.0
C1094 C 0.76127 0.81947 0.51411 0.0
C1095 C 0.76012 0.04466 0.26331 0.0
C1096 C 0.80079 0.98544 0.25975 0.0
C1097 C 0.73172 0.0695 0.27607 0.0
C1098 C 0.74204 0.03654 0.286 0.0
H1099 H 0.74882 0.07199 0.25618 0.0
H1100 H 0.70094 0.11532 0.27815 0.0
S1101 S 0.8503 0.88117 0.28224 0.0
N1102 N 0.85342 0.89544 0.26774 0.0
N1103 N 0.79992 0.94237 0.29135 0.0
C1104 C 0.78295 0.97768 0.28264 0.0
C1105 C 0.81237 0.9523 0.26969 0.0
C1106 C 0.9671 0.71784 0.27588 0.0
C1107 C 0.05767 0.74168 0.28309 0.0
C1108 C 0.94006 0.73603 0.26447 0.0
C1109 C 1.0024 0.77888 0.25976 0.0
H1110 H 0.9157 0.68517 0.27912 0.0
H1111 H 0.86857 0.71692 0.25941 0.0
S1112 S 0.24996 0.85372 0.27478 0.0
N1113 N 0.21127 0.80958 0.28451 0.0
N1114 N 0.16094 0.84348 0.26309 0.0
C1115 C 0.09433 0.80234 0.26676 0.0
C1116 C 0.12168 0.78393 0.27842 0.0
C1117 C 0.23644 0.74113 0.03228 0.0
C1118 C 0.27776 0.80036 0.03549 0.0
C1119 C 0.20825 0.71462 1.01961 0.0
C1120 C 0.21992 0.7458 1.00942 0.0
H1121 H 0.22443 0.71511 0.03964 0.0
H1122 H 0.17662 0.66898 1.01782 0.0
S1123 S 0.33136 0.90041 1.01238 0.0
N1124 N 0.33303 0.88829 0.02704 0.0
N1125 N 0.2803 0.83859 1.00354 0.0
C1126 C 0.26198 0.80471 1.01247 0.0
C1127 C 0.29081 0.83174 0.02535 0.0
C1128 C 0.05166 0.48054 1.01384 0.0
C1129 C 0.02086 0.53763 1.01152 0.0
C1130 C 0.01788 0.46025 0.02488 0.0
C1131 C 0.95163 0.4961 0.03409 0.0
H1132 H 0.10225 0.45107 1.00706 0.0
H1133 H 0.04384 0.41603 0.02617 0.0
S1134 S 0.85143 0.65014 0.03284 0.0
N1135 N 0.92172 0.6301 1.01962 0.0
N1136 N 0.8591 0.59252 0.04018 0.0
C1137 C 0.92098 0.55341 0.0319 0.0
C1138 C 0.95527 0.57398 1.0207 0.0
C1139 C 0.24691 0.48685 0.28412 0.0
C1140 C 0.25368 0.54963 0.2887 0.0
C1141 C 0.26523 0.46121 0.27119 0.0
C1142 C 0.29062 0.49695 0.2621 0.0
H1143 H 0.22646 0.4571 0.29054 0.0
H1144 H 0.25871 0.41253 0.26832 0.0
S1145 S 0.32158 0.66378 0.26902 0.0
N1146 N 0.29155 0.64703 0.28289 0.0
N1147 N 0.3232 0.59867 0.25881 0.0
C1148 C 0.29862 0.55967 0.26655 0.0
C1149 C 0.28094 0.5859 0.27973 0.0
C1150 C 0.71408 0.30243 1.0175 0.0
C1151 C 0.74321 0.24279 1.01204 0.0
C1152 C 0.73005 0.32612 0.03055 0.0
C1153 C 0.77632 0.29167 0.03893 0.0
H1154 H 0.67768 0.33116 1.01168 0.0
H1155 H 0.70568 0.37254 0.03404 0.0
S1156 S 0.87265 0.13358 0.02941 0.0
N1157 N 0.82467 0.14991 1.01614 0.0
N1158 N 0.8544 0.19491 0.04049 0.0
C1159 C 0.80693 0.23213 0.03359 0.0
C1160 C 0.79059 0.20774 1.02026 0.0
C1161 C 0.75587 0.57833 0.77624 0.0
C1162 C 0.73058 0.54293 0.7854 0.0
C1163 C 0.77238 0.55245 0.76327 0.0
C1164 C 0.76402 0.4897 0.75871 0.0
H1165 H 0.76346 0.62697 0.77907 0.0
H1166 H 0.79281 0.58199 0.75681 0.0
S1167 S 0.69623 0.37631 0.77856 0.0
N1168 N 0.69662 0.44146 0.78876 0.0
N1169 N 0.72534 0.3927 0.76463 0.0
C1170 C 0.73725 0.45376 0.76776 0.0
C1171 C 0.72124 0.48023 0.78098 0.0
C1172 C 0.61225 0.02398 1.01999 0.0
C1173 C 0.54203 0.05618 1.01345 0.0
C1174 C 0.57847 1.00316 0.03085 0.0
C1175 C 0.4733 1.01403 0.03569 0.0
H1176 H 0.69398 1.01425 1.01665 0.0
H1177 H 0.63539 0.97802 0.03544 0.0
S1178 S 0.25724 0.09549 1.022 0.0
N1179 N 0.3616 0.09738 1.01254 0.0
N1180 N 0.29875 0.059 0.03302 0.0
C1181 C 0.40239 0.04662 0.02931 0.0
C1182 C 0.43656 0.06746 1.01818 0.0
C1183 C 0.5801 0.30009 0.28208 0.0
C1184 C 0.54866 0.24313 0.28434 0.0
C1185 C 0.54167 0.32195 0.27148 0.0
C1186 C 0.46998 0.28786 0.26266 0.0
H1187 H 0.63475 0.32827 0.28858 0.0
H1188 H 0.56852 0.36602 0.27019 0.0
S1189 S 0.36345 0.13549 0.26409 0.0
N1190 N 0.44165 0.15291 0.27676 0.0
N1191 N 0.36972 0.19377 0.25693 0.0
C1192 C 0.43778 0.23085 0.26482 0.0
C1193 C 0.47698 0.20858 0.27561 0.0
C1194 C 0.5477 0.81132 0.78357 0.0
C1195 C 0.54046 0.7496 0.78421 0.0
C1196 C 0.50925 0.83303 0.77294 0.0
C1197 C 0.46176 0.79396 0.7625 0.0
H1198 H 0.58285 0.84331 0.79139 0.0
H1199 H 0.51638 0.88088 0.77293 0.0
S1200 S 0.427 0.62797 0.75918 0.0
N1201 N 0.48421 0.64957 0.77325 0.0
N1202 N 0.41217 0.69007 0.7534 0.0
C1203 C 0.45446 0.73212 0.763 0.0
C1204 C 0.49372 0.71006 0.7738 0.0
C1205 C 0.49383 0.56834 0.53497 0.0
C1206 C 0.48674 0.50627 0.53518 0.0
C1207 C 0.52586 0.58843 0.52395 0.0
C1208 C 0.55161 0.54728 0.51267 0.0
H1209 H 0.47516 0.6018 0.54342 0.0
H1210 H 0.53072 0.63669 0.5243 0.0
S1211 S 0.53931 0.37985 0.50795 0.0
N1212 N 0.50463 0.40373 0.52296 0.0
N1213 N 0.56363 0.44138 0.50226 0.0
C1214 C 0.54368 0.48505 0.5127 0.0
C1215 C 0.51155 0.4646 0.52394 0.0
loop_
_geom_bond_atom_site_label_1
_geom_bond_atom_site_label_2
_geom_bond_distance
_geom_bond_site_symmetry_2
_ccdc_geom_bond_type
Co0 H3 2.400 . S
Co0 O4 2.009 . S
Co0 O12 2.115 . S
Co0 O13 2.315 . S
Co0 O24 2.053 . S
Co0 O27 2.094 . S
Co0 O30 2.122 . S
Co1 O4 2.126 . S
Co1 H5 2.388 . S
Co1 O6 2.053 . S
Co1 O9 2.047 . S
Co1 O15 2.113 . S
Co1 O26 2.063 . S
Co2 H3 2.388 . S
Co2 O4 2.053 . S
Co2 O6 2.126 . S
Co2 O11 2.063 . S
Co2 O25 2.047 . S
Co2 O31 2.113 . S
H3 Co0 2.400 . S
H3 Co2 2.388 . S
H3 O4 0.760 . S
O4 Co0 2.009 . S
O4 Co1 2.126 . S
O4 Co2 2.053 . S
O4 H3 0.760 . S
H5 Co1 2.388 . S
H5 O6 0.760 . S
H5 Co7 2.400 . S
O6 Co1 2.053 . S
O6 Co2 2.126 . S
O6 H5 0.760 . S
O6 Co7 2.009 . S
Co7 H5 2.400 . S
Co7 O6 2.009 . S
Co7 O8 2.053 1_545 S
Co7 O10 2.094 . S
Co7 O14 2.122 . S
Co7 O28 2.115 . S
Co7 O29 2.315 . S
O8 Co7 2.053 1_565 S
O8 C20 1.259 1_455 S
O9 Co1 2.047 . S
O9 C20 1.257 1_445 S
O10 Co7 2.094 . S
O10 C21 1.253 . S
O11 Co2 2.063 . S
O11 C21 1.268 . S
O12 Co0 2.115 . S
O12 C22 1.281 . S
O13 Co0 2.315 . S
O13 C22 1.252 . S
O14 Co7 2.122 . S
O14 C23 1.272 1_545 S
O15 Co1 2.113 . S
O15 C23 1.245 1_545 S
C16 O24 1.259 . S
C16 O25 1.257 . S
C17 O26 1.268 . S
C17 O27 1.253 . S
C18 O28 1.281 . S
C18 O29 1.252 . S
C19 O30 1.272 . S
C19 O31 1.245 . S
C20 O8 1.259 1_655 S
C20 O9 1.257 1_665 S
C21 O10 1.253 . S
C21 O11 1.268 . S
C22 O12 1.281 . S
C22 O13 1.252 . S
C23 O14 1.272 1_565 S
C23 O15 1.245 1_565 S
O24 Co0 2.053 . S
O24 C16 1.259 . S
O25 Co2 2.047 . S
O25 C16 1.257 . S
O26 Co1 2.063 . S
O26 C17 1.268 . S
O27 Co0 2.094 . S
O27 C17 1.253 . S
O28 Co7 2.115 . S
O28 C18 1.281 . S
O29 Co7 2.315 . S
O29 C18 1.252 . S
O30 Co0 2.122 . S
O30 C19 1.272 . S
O31 Co2 2.113 . S
O31 C19 1.245 . S
Co32 H35 2.400 . S
Co32 O36 2.009 . S
Co32 O44 2.115 . S
Co32 O45 2.315 . S
Co32 O56 2.053 1_545 S
Co32 O59 2.094 . S
Co32 O62 2.122 . S
Co33 O36 2.126 . S
Co33 H37 2.388 . S
Co33 O38 2.053 . S
Co33 O41 2.047 . S
Co33 O47 2.113 . S
Co33 O58 2.063 . S
Co34 H35 2.388 . S
Co34 O36 2.053 . S
Co34 O38 2.126 . S
Co34 O43 2.063 . S
Co34 O57 2.039 1_545 S
Co34 O63 2.113 . S
H35 Co32 2.400 . S
H35 Co34 2.388 . S
H35 O36 0.760 . S
O36 Co32 2.009 . S
O36 Co33 2.126 . S
O36 Co34 2.053 . S
O36 H35 0.760 . S
H37 Co33 2.388 . S
H37 O38 0.760 . S
H37 Co39 2.400 . S
O38 Co33 2.053 . S
O38 Co34 2.126 . S
O38 H37 0.760 . S
O38 Co39 2.009 . S
Co39 H37 2.400 . S
Co39 O38 2.009 . S
Co39 O40 2.053 . S
Co39 O42 2.094 . S
Co39 O46 2.122 . S
Co39 O60 2.115 . S
Co39 O61 2.315 . S
O40 Co39 2.053 . S
O40 C52 1.259 1_455 S
O41 Co33 2.047 . S
O41 C52 1.257 1_455 S
O42 Co39 2.094 . S
O42 C53 1.253 . S
O43 Co34 2.063 . S
O43 C53 1.268 . S
O44 Co32 2.115 . S
O44 C54 1.281 . S
O45 Co32 2.315 . S
O45 C54 1.252 . S
O46 Co39 2.122 . S
O46 C55 1.272 . S
O47 Co33 2.113 . S
O47 C55 1.245 . S
C48 O56 1.259 . S
C48 O57 1.265 . S
C49 O58 1.268 . S
C49 O59 1.253 . S
C50 O60 1.281 . S
C50 O61 1.252 . S
C51 O62 1.272 1_565 S
C51 O63 1.245 1_565 S
C52 O40 1.259 1_655 S
C52 O41 1.257 1_655 S
C53 O42 1.253 . S
C53 O43 1.268 . S
C54 O44 1.281 . S
C54 O45 1.252 . S
C55 O46 1.272 . S
C55 O47 1.245 . S
O56 Co32 2.053 1_565 S
O56 C48 1.259 . S
O57 Co34 2.039 1_565 S
O57 C48 1.265 . S
O58 Co33 2.063 . S
O58 C49 1.268 . S
O59 Co32 2.094 . S
O59 C49 1.253 . S
O60 Co39 2.115 . S
O60 C50 1.281 . S
O61 Co39 2.315 . S
O61 C50 1.252 . S
O62 Co32 2.122 . S
O62 C51 1.272 1_545 S
O63 Co34 2.113 . S
O63 C51 1.245 1_545 S
Co64 H67 2.400 . S
Co64 O68 2.009 . S
Co64 O76 2.115 . S
Co64 O77 2.315 . S
Co64 O88 2.053 1_565 S
Co64 O91 2.094 . S
Co64 O94 2.122 . S
Co65 O68 2.126 . S
Co65 H69 2.388 . S
Co65 O70 2.053 . S
Co65 O73 2.047 . S
Co65 O79 2.113 . S
Co65 O90 2.063 . S
Co66 H67 2.388 . S
Co66 O68 2.053 . S
Co66 O70 2.126 . S
Co66 O75 2.063 . S
Co66 O89 2.047 . S
Co66 O95 2.113 . S
H67 Co64 2.400 . S
H67 Co66 2.388 . S
H67 O68 0.760 . S
O68 Co64 2.009 . S
O68 Co65 2.126 . S
O68 Co66 2.053 . S
O68 H67 0.760 . S
H69 Co65 2.388 . S
H69 O70 0.760 . S
H69 Co71 2.400 . S
O70 Co65 2.053 . S
O70 Co66 2.126 . S
O70 H69 0.760 . S
O70 Co71 2.009 . S
Co71 H69 2.400 . S
Co71 O70 2.009 . S
Co71 O72 2.053 . S
Co71 O74 2.094 . S
Co71 O78 2.122 . S
Co71 O92 2.115 . S
Co71 O93 2.315 . S
O72 Co71 2.053 . S
O72 C84 1.259 . S
O73 Co65 2.047 . S
O73 C84 1.257 . S
O74 Co71 2.094 . S
O74 C85 1.253 . S
O75 Co66 2.063 . S
O75 C85 1.268 . S
O76 Co64 2.115 . S
O76 C86 1.281 . S
O77 Co64 2.315 . S
O77 C86 1.252 . S
O78 Co71 2.122 . S
O78 C87 1.272 . S
O79 Co65 2.113 . S
O79 C87 1.245 . S
C80 O88 1.259 1_455 S
C80 O89 1.257 1_445 S
C81 O90 1.268 . S
C81 O91 1.253 . S
C82 O92 1.281 . S
C82 O93 1.252 . S
C83 O94 1.272 1_545 S
C83 O95 1.245 1_545 S
C84 O72 1.259 . S
C84 O73 1.257 . S
C85 O74 1.253 . S
C85 O75 1.268 . S
C86 O76 1.281 . S
C86 O77 1.252 . S
C87 O78 1.272 . S
C87 O79 1.245 . S
O88 Co64 2.053 1_545 S
O88 C80 1.259 1_655 S
O89 Co66 2.047 . S
O89 C80 1.257 1_665 S
O90 Co65 2.063 . S
O90 C81 1.268 . S
O91 Co64 2.094 . S
O91 C81 1.253 . S
O92 Co71 2.115 . S
O92 C82 1.281 . S
O93 Co71 2.315 . S
O93 C82 1.252 . S
O94 Co64 2.122 . S
O94 C83 1.272 1_565 S
O95 Co66 2.113 . S
O95 C83 1.245 1_565 S
Co96 H99 2.400 . S
Co96 O100 2.009 . S
Co96 O108 2.115 . S
Co96 O109 2.315 . S
Co96 O120 2.053 . S
Co96 O123 2.094 . S
Co96 O126 2.122 . S
Co97 O100 2.126 . S
Co97 H101 2.388 . S
Co97 O102 2.053 . S
Co97 O105 2.039 1_565 S
Co97 O111 2.113 . S
Co97 O122 2.063 . S
Co98 H99 2.388 . S
Co98 O100 2.053 . S
Co98 O102 2.126 . S
Co98 O107 2.063 . S
Co98 O121 2.047 . S
Co98 O127 2.113 . S
H99 Co96 2.400 . S
H99 Co98 2.388 . S
H99 O100 0.760 . S
O100 Co96 2.009 . S
O100 Co97 2.126 . S
O100 Co98 2.053 . S
O100 H99 0.760 . S
H101 Co97 2.388 . S
H101 O102 0.760 . S
H101 Co103 2.400 . S
O102 Co97 2.053 . S
O102 Co98 2.126 . S
O102 H101 0.760 . S
O102 Co103 2.009 . S
Co103 H101 2.400 . S
Co103 O102 2.009 . S
Co103 O104 2.053 1_565 S
Co103 O106 2.094 . S
Co103 O110 2.122 . S
Co103 O124 2.115 . S
Co103 O125 2.315 . S
O104 Co103 2.053 1_545 S
O104 C116 1.259 . S
O105 Co97 2.039 1_545 S
O105 C116 1.265 . S
O106 Co103 2.094 . S
O106 C117 1.253 . S
O107 Co98 2.063 . S
O107 C117 1.268 . S
O108 Co96 2.115 . S
O108 C118 1.281 . S
O109 Co96 2.315 . S
O109 C118 1.252 . S
O110 Co103 2.122 . S
O110 C119 1.272 1_565 S
O111 Co97 2.113 . S
O111 C119 1.245 1_565 S
C112 O120 1.259 1_455 S
C112 O121 1.257 1_455 S
C113 O122 1.268 . S
C113 O123 1.253 . S
C114 O124 1.281 . S
C114 O125 1.252 . S
C115 O126 1.272 . S
C115 O127 1.245 . S
C116 O104 1.259 . S
C116 O105 1.265 . S
C117 O106 1.253 . S
C117 O107 1.268 . S
C118 O108 1.281 . S
C118 O109 1.252 . S
C119 O110 1.272 1_545 S
C119 O111 1.245 1_545 S
O120 Co96 2.053 . S
O120 C112 1.259 1_655 S
O121 Co98 2.047 . S
O121 C112 1.257 1_655 S
O122 Co97 2.063 . S
O122 C113 1.268 . S
O123 Co96 2.094 . S
O123 C113 1.253 . S
O124 Co103 2.115 . S
O124 C114 1.281 . S
O125 Co103 2.315 . S
O125 C114 1.252 . S
O126 Co96 2.122 . S
O126 C115 1.272 . S
O127 Co98 2.113 . S
O127 C115 1.245 . S
Co128 H131 2.400 . S
Co128 O132 2.009 . S
Co128 O140 2.115 . S
Co128 O141 2.315 . S
Co128 O152 2.053 . S
Co128 O155 2.094 . S
Co128 O158 2.122 . S
Co129 O132 2.126 . S
Co129 H133 2.388 . S
Co129 O134 2.053 . S
Co129 O137 2.047 . S
Co129 O143 2.113 . S
Co129 O154 2.063 . S
Co130 H131 2.388 . S
Co130 O132 2.053 . S
Co130 O134 2.126 . S
Co130 O139 2.063 . S
Co130 O153 2.047 . S
Co130 O159 2.113 . S
H131 Co128 2.400 . S
H131 Co130 2.388 . S
H131 O132 0.760 . S
O132 Co128 2.009 . S
O132 Co129 2.126 . S
O132 Co130 2.053 . S
O132 H131 0.760 . S
H133 Co129 2.388 . S
H133 O134 0.760 . S
H133 Co135 2.400 . S
O134 Co129 2.053 . S
O134 Co130 2.126 . S
O134 H133 0.760 . S
O134 Co135 2.009 . S
Co135 H133 2.400 . S
Co135 O134 2.009 . S
Co135 O136 2.053 . S
Co135 O138 2.094 . S
Co135 O142 2.122 . S
Co135 O156 2.115 . S
Co135 O157 2.315 . S
O136 Co135 2.053 . S
O136 C148 1.259 1_455 S
O137 Co129 2.047 . S
O137 C148 1.257 1_455 S
O138 Co135 2.094 . S
O138 C149 1.253 . S
O139 Co130 2.063 . S
O139 C149 1.268 . S
O140 Co128 2.115 . S
O140 C150 1.281 . S
O141 Co128 2.315 . S
O141 C150 1.252 . S
O142 Co135 2.122 . S
O142 C151 1.272 . S
O143 Co129 2.113 . S
O143 C151 1.245 . S
C144 O152 1.259 . S
C144 O153 1.257 . S
C145 O154 1.268 . S
C145 O155 1.253 . S
C146 O156 1.281 . S
C146 O157 1.252 . S
C147 O158 1.272 . S
C147 O159 1.245 . S
C148 O136 1.259 1_655 S
C148 O137 1.257 1_655 S
C149 O138 1.253 . S
C149 O139 1.268 . S
C150 O140 1.281 . S
C150 O141 1.252 . S
C151 O142 1.272 . S
C151 O143 1.245 . S
O152 Co128 2.053 . S
O152 C144 1.259 . S
O153 Co130 2.047 . S
O153 C144 1.257 . S
O154 Co129 2.063 . S
O154 C145 1.268 . S
O155 Co128 2.094 . S
O155 C145 1.253 . S
O156 Co135 2.115 . S
O156 C146 1.281 . S
O157 Co135 2.315 . S
O157 C146 1.252 . S
O158 Co128 2.122 . S
O158 C147 1.272 . S
O159 Co130 2.113 . S
O159 C147 1.245 . S
Co160 H163 2.400 . S
Co160 O164 2.009 . S
Co160 O172 2.115 . S
Co160 O173 2.315 . S
Co160 O184 2.053 . S
Co160 O187 2.094 . S
Co160 O190 2.122 . S
Co161 O164 2.126 . S
Co161 H165 2.388 . S
Co161 O166 2.053 . S
Co161 O169 2.047 . S
Co161 O175 2.113 . S
Co161 O186 2.063 . S
Co162 H163 2.388 . S
Co162 O164 2.053 . S
Co162 O166 2.126 . S
Co162 O171 2.063 . S
Co162 O185 2.047 . S
Co162 O191 2.113 . S
H163 Co160 2.400 . S
H163 Co162 2.388 . S
H163 O164 0.760 . S
O164 Co160 2.009 . S
O164 Co161 2.126 . S
O164 Co162 2.053 . S
O164 H163 0.760 . S
H165 Co161 2.388 . S
H165 O166 0.760 . S
H165 Co167 2.400 . S
O166 Co161 2.053 . S
O166 Co162 2.126 . S
O166 H165 0.760 . S
O166 Co167 2.009 . S
Co167 H165 2.400 . S
Co167 O166 2.009 . S
Co167 O168 2.053 . S
Co167 O170 2.094 . S
Co167 O174 2.122 . S
Co167 O188 2.115 . S
Co167 O189 2.315 . S
O168 Co167 2.053 . S
O168 C180 1.259 1_455 S
O169 Co161 2.047 . S
O169 C180 1.257 1_455 S
O170 Co167 2.094 . S
O170 C181 1.253 . S
O171 Co162 2.063 . S
O171 C181 1.268 . S
O172 Co160 2.115 . S
O172 C182 1.281 . S
O173 Co160 2.315 . S
O173 C182 1.252 . S
O174 Co167 2.122 . S
O174 C183 1.272 . S
O175 Co161 2.113 . S
O175 C183 1.245 . S
C176 O184 1.259 . S
C176 O185 1.257 . S
C177 O186 1.268 . S
C177 O187 1.253 . S
C178 O188 1.281 . S
C178 O189 1.252 . S
C179 O190 1.272 . S
C179 O191 1.245 . S
C180 O168 1.259 1_655 S
C180 O169 1.257 1_655 S
C181 O170 1.253 . S
C181 O171 1.268 . S
C182 O172 1.281 . S
C182 O173 1.252 . S
C183 O174 1.272 . S
C183 O175 1.245 . S
O184 Co160 2.053 . S
O184 C176 1.259 . S
O185 Co162 2.047 . S
O185 C176 1.257 . S
O186 Co161 2.063 . S
O186 C177 1.268 . S
O187 Co160 2.094 . S
O187 C177 1.253 . S
O188 Co167 2.115 . S
O188 C178 1.281 . S
O189 Co167 2.315 . S
O189 C178 1.252 . S
O190 Co160 2.122 . S
O190 C179 1.272 . S
O191 Co162 2.113 . S
O191 C179 1.245 . S
Co192 H195 2.400 . S
Co192 O196 2.009 . S
Co192 O204 2.115 . S
Co192 O205 2.315 . S
Co192 O216 2.053 . S
Co192 O219 2.094 . S
Co192 O222 2.122 . S
Co193 O196 2.126 . S
Co193 H197 2.388 . S
Co193 O198 2.053 . S
Co193 O201 2.047 . S
Co193 O207 2.113 . S
Co193 O218 2.063 . S
Co194 H195 2.388 . S
Co194 O196 2.053 . S
Co194 O198 2.126 . S
Co194 O203 2.063 . S
Co194 O217 2.047 . S
Co194 O223 2.113 . S
H195 Co192 2.400 . S
H195 Co194 2.388 . S
H195 O196 0.760 . S
O196 Co192 2.009 . S
O196 Co193 2.126 . S
O196 Co194 2.053 . S
O196 H195 0.760 . S
H197 Co193 2.388 . S
H197 O198 0.760 . S
H197 Co199 2.400 . S
O198 Co193 2.053 . S
O198 Co194 2.126 . S
O198 H197 0.760 . S
O198 Co199 2.009 . S
Co199 H197 2.400 . S
Co199 O198 2.009 . S
Co199 O200 2.053 . S
Co199 O202 2.094 . S
Co199 O206 2.122 . S
Co199 O220 2.115 . S
Co199 O221 2.315 . S
O200 Co199 2.053 . S
O200 C212 1.259 . S
O201 Co193 2.047 . S
O201 C212 1.257 . S
O202 Co199 2.094 . S
O202 C213 1.253 . S
O203 Co194 2.063 . S
O203 C213 1.268 . S
O204 Co192 2.115 . S
O204 C214 1.281 . S
O205 Co192 2.315 . S
O205 C214 1.252 . S
O206 Co199 2.122 . S
O206 C215 1.272 . S
O207 Co193 2.113 . S
O207 C215 1.245 . S
C208 O216 1.259 1_455 S
C208 O217 1.257 1_455 S
C209 O218 1.268 . S
C209 O219 1.253 . S
C210 O220 1.281 . S
C210 O221 1.252 . S
C211 O222 1.272 . S
C211 O223 1.245 . S
C212 O200 1.259 . S
C212 O201 1.257 . S
C213 O202 1.253 . S
C213 O203 1.268 . S
C214 O204 1.281 . S
C214 O205 1.252 . S
C215 O206 1.272 . S
C215 O207 1.245 . S
O216 Co192 2.053 . S
O216 C208 1.259 1_655 S
O217 Co194 2.047 . S
O217 C208 1.257 1_655 S
O218 Co193 2.063 . S
O218 C209 1.268 . S
O219 Co192 2.094 . S
O219 C209 1.253 . S
O220 Co199 2.115 . S
O220 C210 1.281 . S
O221 Co199 2.315 . S
O221 C210 1.252 . S
O222 Co192 2.122 . S
O222 C211 1.272 . S
O223 Co194 2.113 . S
O223 C211 1.245 . S
Co224 H227 2.400 . S
Co224 O228 2.009 . S
Co224 O236 2.115 . S
Co224 O237 2.315 . S
Co224 O248 2.053 . S
Co224 O251 2.094 . S
Co224 O254 2.122 . S
Co225 O228 2.126 . S
Co225 H229 2.388 . S
Co225 O230 2.053 . S
Co225 O233 2.047 . S
Co225 O239 2.113 . S
Co225 O250 2.063 . S
Co226 H227 2.388 . S
Co226 O228 2.053 . S
Co226 O230 2.126 . S
Co226 O235 2.063 . S
Co226 O249 2.047 . S
Co226 O255 2.113 . S
H227 Co224 2.400 . S
H227 Co226 2.388 . S
H227 O228 0.760 . S
O228 Co224 2.009 . S
O228 Co225 2.126 . S
O228 Co226 2.053 . S
O228 H227 0.760 . S
H229 Co225 2.388 . S
H229 O230 0.760 . S
H229 Co231 2.400 . S
O230 Co225 2.053 . S
O230 Co226 2.126 . S
O230 H229 0.760 . S
O230 Co231 2.009 . S
Co231 H229 2.400 . S
Co231 O230 2.009 . S
Co231 O232 2.053 . S
Co231 O234 2.094 . S
Co231 O238 2.122 . S
Co231 O252 2.115 . S
Co231 O253 2.315 . S
O232 Co231 2.053 . S
O232 C244 1.259 . S
O233 Co225 2.047 . S
O233 C244 1.257 . S
O234 Co231 2.094 . S
O234 C245 1.253 . S
O235 Co226 2.063 . S
O235 C245 1.268 . S
O236 Co224 2.115 . S
O236 C246 1.281 . S
O237 Co224 2.315 . S
O237 C246 1.252 . S
O238 Co231 2.122 . S
O238 C247 1.272 . S
O239 Co225 2.113 . S
O239 C247 1.245 . S
C240 O248 1.259 1_455 S
C240 O249 1.257 1_455 S
C241 O250 1.268 . S
C241 O251 1.253 . S
C242 O252 1.281 . S
C242 O253 1.252 . S
C243 O254 1.272 . S
C243 O255 1.245 . S
C244 O232 1.259 . S
C244 O233 1.257 . S
C245 O234 1.253 . S
C245 O235 1.268 . S
C246 O236 1.281 . S
C246 O237 1.252 . S
C247 O238 1.272 . S
C247 O239 1.245 . S
O248 Co224 2.053 . S
O248 C240 1.259 1_655 S
O249 Co226 2.047 . S
O249 C240 1.257 1_655 S
O250 Co225 2.063 . S
O250 C241 1.268 . S
O251 Co224 2.094 . S
O251 C241 1.253 . S
O252 Co231 2.115 . S
O252 C242 1.281 . S
O253 Co231 2.315 . S
O253 C242 1.252 . S
O254 Co224 2.122 . S
O254 C243 1.272 . S
O255 Co226 2.113 . S
O255 C243 1.245 . S
Co256 H259 2.400 . S
Co256 O260 2.009 . S
Co256 O268 2.115 . S
Co256 O269 2.315 . S
Co256 O280 2.053 . S
Co256 O283 2.094 . S
Co256 O286 2.122 . S
Co257 O260 2.126 . S
Co257 H261 2.388 . S
Co257 O262 2.053 . S
Co257 O265 2.047 . S
Co257 O271 2.113 . S
Co257 O282 2.063 . S
Co258 H259 2.388 . S
Co258 O260 2.053 . S
Co258 O262 2.126 . S
Co258 O267 2.063 . S
Co258 O281 2.047 . S
Co258 O287 2.113 . S
H259 Co256 2.400 . S
H259 Co258 2.388 . S
H259 O260 0.760 . S
O260 Co256 2.009 . S
O260 Co257 2.126 . S
O260 Co258 2.053 . S
O260 H259 0.760 . S
H261 Co257 2.388 . S
H261 O262 0.760 . S
H261 Co263 2.400 . S
O262 Co257 2.053 . S
O262 Co258 2.126 . S
O262 H261 0.760 . S
O262 Co263 2.009 . S
Co263 H261 2.400 . S
Co263 O262 2.009 . S
Co263 O264 2.053 1_545 S
Co263 O266 2.094 . S
Co263 O270 2.122 . S
Co263 O284 2.115 . S
Co263 O285 2.315 . S
O264 Co263 2.053 1_565 S
O264 C276 1.259 . S
O265 Co257 2.047 . S
O265 C276 1.257 1_545 S
O266 Co263 2.094 . S
O266 C277 1.253 . S
O267 Co258 2.063 . S
O267 C277 1.268 . S
O268 Co256 2.115 . S
O268 C278 1.281 . S
O269 Co256 2.315 . S
O269 C278 1.252 . S
O270 Co263 2.122 . S
O270 C279 1.272 1_545 S
O271 Co257 2.113 . S
O271 C279 1.245 1_545 S
C272 O280 1.259 . S
C272 O281 1.257 . S
C273 O282 1.268 . S
C273 O283 1.253 . S
C274 O284 1.281 . S
C274 O285 1.252 . S
C275 O286 1.272 . S
C275 O287 1.245 . S
C276 O264 1.259 . S
C276 O265 1.257 1_565 S
C277 O266 1.253 . S
C277 O267 1.268 . S
C278 O268 1.281 . S
C278 O269 1.252 . S
C279 O270 1.272 1_565 S
C279 O271 1.245 1_565 S
O280 Co256 2.053 . S
O280 C272 1.259 . S
O281 Co258 2.047 . S
O281 C272 1.257 . S
O282 Co257 2.063 . S
O282 C273 1.268 . S
O283 Co256 2.094 . S
O283 C273 1.253 . S
O284 Co263 2.115 . S
O284 C274 1.281 . S
O285 Co263 2.315 . S
O285 C274 1.252 . S
O286 Co256 2.122 . S
O286 C275 1.272 . S
O287 Co258 2.113 . S
O287 C275 1.245 . S
Co288 H291 2.400 . S
Co288 O292 2.009 . S
Co288 O300 2.115 . S
Co288 O301 2.315 . S
Co288 O312 2.053 1_545 S
Co288 O315 2.094 . S
Co288 O318 2.122 . S
Co289 O292 2.126 . S
Co289 H293 2.388 . S
Co289 O294 2.053 . S
Co289 O297 2.047 . S
Co289 O303 2.113 . S
Co289 O314 2.063 . S
Co290 H291 2.388 . S
Co290 O292 2.053 . S
Co290 O294 2.126 . S
Co290 O299 2.063 . S
Co290 O313 2.039 1_545 S
Co290 O319 2.113 . S
H291 Co288 2.400 . S
H291 Co290 2.388 . S
H291 O292 0.760 . S
O292 Co288 2.009 . S
O292 Co289 2.126 . S
O292 Co290 2.053 . S
O292 H291 0.760 . S
H293 Co289 2.388 . S
H293 O294 0.760 . S
H293 Co295 2.400 . S
O294 Co289 2.053 . S
O294 Co290 2.126 . S
O294 H293 0.760 . S
O294 Co295 2.009 . S
Co295 H293 2.400 . S
Co295 O294 2.009 . S
Co295 O296 2.053 . S
Co295 O298 2.094 . S
Co295 O302 2.122 . S
Co295 O316 2.115 . S
Co295 O317 2.315 . S
O296 Co295 2.053 . S
O296 C308 1.259 . S
O297 Co289 2.047 . S
O297 C308 1.257 . S
O298 Co295 2.094 . S
O298 C309 1.253 . S
O299 Co290 2.063 . S
O299 C309 1.268 . S
O300 Co288 2.115 . S
O300 C310 1.281 . S
O301 Co288 2.315 . S
O301 C310 1.252 . S
O302 Co295 2.122 . S
O302 C311 1.272 . S
O303 Co289 2.113 . S
O303 C311 1.245 . S
C304 O312 1.259 . S
C304 O313 1.265 . S
C305 O314 1.268 . S
C305 O315 1.253 . S
C306 O316 1.281 . S
C306 O317 1.252 . S
C307 O318 1.272 1_565 S
C307 O319 1.245 1_565 S
C308 O296 1.259 . S
C308 O297 1.257 . S
C309 O298 1.253 . S
C309 O299 1.268 . S
C310 O300 1.281 . S
C310 O301 1.252 . S
C311 O302 1.272 . S
C311 O303 1.245 . S
O312 Co288 2.053 1_565 S
O312 C304 1.259 . S
O313 Co290 2.039 1_565 S
O313 C304 1.265 . S
O314 Co289 2.063 . S
O314 C305 1.268 . S
O315 Co288 2.094 . S
O315 C305 1.253 . S
O316 Co295 2.115 . S
O316 C306 1.281 . S
O317 Co295 2.315 . S
O317 C306 1.252 . S
O318 Co288 2.122 . S
O318 C307 1.272 1_545 S
O319 Co290 2.113 . S
O319 C307 1.245 1_545 S
Co320 H323 2.400 . S
Co320 O324 2.009 . S
Co320 O332 2.115 . S
Co320 O333 2.315 . S
Co320 O344 2.053 1_565 S
Co320 O347 2.094 . S
Co320 O350 2.122 . S
Co321 O324 2.126 . S
Co321 H325 2.388 . S
Co321 O326 2.053 . S
Co321 O329 2.047 . S
Co321 O335 2.113 . S
Co321 O346 2.063 . S
Co322 H323 2.388 . S
Co322 O324 2.053 . S
Co322 O326 2.126 . S
Co322 O331 2.063 . S
Co322 O345 2.047 . S
Co322 O351 2.113 . S
H323 Co320 2.400 . S
H323 Co322 2.388 . S
H323 O324 0.760 . S
O324 Co320 2.009 . S
O324 Co321 2.126 . S
O324 Co322 2.053 . S
O324 H323 0.760 . S
H325 Co321 2.388 . S
H325 O326 0.760 . S
H325 Co327 2.400 . S
O326 Co321 2.053 . S
O326 Co322 2.126 . S
O326 H325 0.760 . S
O326 Co327 2.009 . S
Co327 H325 2.400 . S
Co327 O326 2.009 . S
Co327 O328 2.053 . S
Co327 O330 2.094 . S
Co327 O334 2.122 . S
Co327 O348 2.115 . S
Co327 O349 2.315 . S
O328 Co327 2.053 . S
O328 C340 1.259 . S
O329 Co321 2.047 . S
O329 C340 1.257 . S
O330 Co327 2.094 . S
O330 C341 1.253 . S
O331 Co322 2.063 . S
O331 C341 1.268 . S
O332 Co320 2.115 . S
O332 C342 1.281 . S
O333 Co320 2.315 . S
O333 C342 1.252 . S
O334 Co327 2.122 . S
O334 C343 1.272 . S
O335 Co321 2.113 . S
O335 C343 1.245 . S
C336 O344 1.259 . S
C336 O345 1.257 1_545 S
C337 O346 1.268 . S
C337 O347 1.253 . S
C338 O348 1.281 . S
C338 O349 1.252 . S
C339 O350 1.272 1_545 S
C339 O351 1.245 1_545 S
C340 O328 1.259 . S
C340 O329 1.257 . S
C341 O330 1.253 . S
C341 O331 1.268 . S
C342 O332 1.281 . S
C342 O333 1.252 . S
C343 O334 1.272 . S
C343 O335 1.245 . S
O344 Co320 2.053 1_545 S
O344 C336 1.259 . S
O345 Co322 2.047 . S
O345 C336 1.257 1_565 S
O346 Co321 2.063 . S
O346 C337 1.268 . S
O347 Co320 2.094 . S
O347 C337 1.253 . S
O348 Co327 2.115 . S
O348 C338 1.281 . S
O349 Co327 2.315 . S
O349 C338 1.252 . S
O350 Co320 2.122 . S
O350 C339 1.272 1_565 S
O351 Co322 2.113 . S
O351 C339 1.245 1_565 S
Co352 H355 2.400 . S
Co352 O356 2.009 . S
Co352 O364 2.115 . S
Co352 O365 2.315 . S
Co352 O376 2.053 . S
Co352 O379 2.094 . S
Co352 O382 2.122 . S
Co353 O356 2.126 . S
Co353 H357 2.388 . S
Co353 O358 2.053 . S
Co353 O361 2.039 1_565 S
Co353 O367 2.113 . S
Co353 O378 2.063 . S
Co354 H355 2.388 . S
Co354 O356 2.053 . S
Co354 O358 2.126 . S
Co354 O363 2.063 . S
Co354 O377 2.047 . S
Co354 O383 2.113 . S
H355 Co352 2.400 . S
H355 Co354 2.388 . S
H355 O356 0.760 . S
O356 Co352 2.009 . S
O356 Co353 2.126 . S
O356 Co354 2.053 . S
O356 H355 0.760 . S
H357 Co353 2.388 . S
H357 O358 0.760 . S
H357 Co359 2.400 . S
O358 Co353 2.053 . S
O358 Co354 2.126 . S
O358 H357 0.760 . S
O358 Co359 2.009 . S
Co359 H357 2.400 . S
Co359 O358 2.009 . S
Co359 O360 2.053 1_565 S
Co359 O362 2.094 . S
Co359 O366 2.122 . S
Co359 O380 2.115 . S
Co359 O381 2.315 . S
O360 Co359 2.053 1_545 S
O360 C372 1.259 . S
O361 Co353 2.039 1_545 S
O361 C372 1.265 . S
O362 Co359 2.094 . S
O362 C373 1.253 . S
O363 Co354 2.063 . S
O363 C373 1.268 . S
O364 Co352 2.115 . S
O364 C374 1.281 . S
O365 Co352 2.315 . S
O365 C374 1.252 . S
O366 Co359 2.122 . S
O366 C375 1.272 1_565 S
O367 Co353 2.113 . S
O367 C375 1.245 1_565 S
C368 O376 1.259 . S
C368 O377 1.257 . S
C369 O378 1.268 . S
C369 O379 1.253 . S
C370 O380 1.281 . S
C370 O381 1.252 . S
C371 O382 1.272 . S
C371 O383 1.245 . S
C372 O360 1.259 . S
C372 O361 1.265 . S
C373 O362 1.253 . S
C373 O363 1.268 . S
C374 O364 1.281 . S
C374 O365 1.252 . S
C375 O366 1.272 1_545 S
C375 O367 1.245 1_545 S
O376 Co352 2.053 . S
O376 C368 1.259 . S
O377 Co354 2.047 . S
O377 C368 1.257 . S
O378 Co353 2.063 . S
O378 C369 1.268 . S
O379 Co352 2.094 . S
O379 C369 1.253 . S
O380 Co359 2.115 . S
O380 C370 1.281 . S
O381 Co359 2.315 . S
O381 C370 1.252 . S
O382 Co352 2.122 . S
O382 C371 1.272 . S
O383 Co354 2.113 . S
O383 C371 1.245 . S
Co384 H387 2.400 . S
Co384 O388 2.009 . S
Co384 O396 2.115 . S
Co384 O397 2.315 . S
Co384 O408 2.053 . S
Co384 O411 2.094 . S
Co384 O414 2.122 . S
Co385 O388 2.126 . S
Co385 H389 2.388 . S
Co385 O390 2.053 . S
Co385 O393 2.047 . S
Co385 O399 2.113 . S
Co385 O410 2.063 . S
Co386 H387 2.388 . S
Co386 O388 2.053 . S
Co386 O390 2.126 . S
Co386 O395 2.063 . S
Co386 O409 2.047 . S
Co386 O415 2.113 . S
H387 Co384 2.400 . S
H387 Co386 2.388 . S
H387 O388 0.760 . S
O388 Co384 2.009 . S
O388 Co385 2.126 . S
O388 Co386 2.053 . S
O388 H387 0.760 . S
H389 Co385 2.388 . S
H389 O390 0.760 . S
H389 Co391 2.400 . S
O390 Co385 2.053 . S
O390 Co386 2.126 . S
O390 H389 0.760 . S
O390 Co391 2.009 . S
Co391 H389 2.400 . S
Co391 O390 2.009 . S
Co391 O392 2.053 . S
Co391 O394 2.094 . S
Co391 O398 2.122 . S
Co391 O412 2.115 . S
Co391 O413 2.315 . S
O392 Co391 2.053 . S
O392 C404 1.259 . S
O393 Co385 2.047 . S
O393 C404 1.257 . S
O394 Co391 2.094 . S
O394 C405 1.253 . S
O395 Co386 2.063 . S
O395 C405 1.268 . S
O396 Co384 2.115 . S
O396 C406 1.281 . S
O397 Co384 2.315 . S
O397 C406 1.252 . S
O398 Co391 2.122 . S
O398 C407 1.272 . S
O399 Co385 2.113 . S
O399 C407 1.245 . S
C400 O408 1.259 . S
C400 O409 1.257 . S
C401 O410 1.268 . S
C401 O411 1.253 . S
C402 O412 1.281 . S
C402 O413 1.252 . S
C403 O414 1.272 . S
C403 O415 1.245 . S
C404 O392 1.259 . S
C404 O393 1.257 . S
C405 O394 1.253 . S
C405 O395 1.268 . S
C406 O396 1.281 . S
C406 O397 1.252 . S
C407 O398 1.272 . S
C407 O399 1.245 . S
O408 Co384 2.053 . S
O408 C400 1.259 . S
O409 Co386 2.047 . S
O409 C400 1.257 . S
O410 Co385 2.063 . S
O410 C401 1.268 . S
O411 Co384 2.094 . S
O411 C401 1.253 . S
O412 Co391 2.115 . S
O412 C402 1.281 . S
O413 Co391 2.315 . S
O413 C402 1.252 . S
O414 Co384 2.122 . S
O414 C403 1.272 . S
O415 Co386 2.113 . S
O415 C403 1.245 . S
Co416 H419 2.400 . S
Co416 O420 2.009 . S
Co416 O428 2.115 . S
Co416 O429 2.315 . S
Co416 O440 2.053 . S
Co416 O443 2.094 . S
Co416 O446 2.122 . S
Co417 O420 2.126 . S
Co417 H421 2.388 . S
Co417 O422 2.053 . S
Co417 O425 2.047 . S
Co417 O431 2.113 . S
Co417 O442 2.063 . S
Co418 H419 2.388 . S
Co418 O420 2.053 . S
Co418 O422 2.126 . S
Co418 O427 2.063 . S
Co418 O441 2.047 . S
Co418 O447 2.113 . S
H419 Co416 2.400 . S
H419 Co418 2.388 . S
H419 O420 0.760 . S
O420 Co416 2.009 . S
O420 Co417 2.126 . S
O420 Co418 2.053 . S
O420 H419 0.760 . S
H421 Co417 2.388 . S
H421 O422 0.760 . S
H421 Co423 2.400 . S
O422 Co417 2.053 . S
O422 Co418 2.126 . S
O422 H421 0.760 . S
O422 Co423 2.009 . S
Co423 H421 2.400 . S
Co423 O422 2.009 . S
Co423 O424 2.053 . S
Co423 O426 2.094 . S
Co423 O430 2.122 . S
Co423 O444 2.115 . S
Co423 O445 2.315 . S
O424 Co423 2.053 . S
O424 C436 1.259 . S
O425 Co417 2.047 . S
O425 C436 1.257 . S
O426 Co423 2.094 . S
O426 C437 1.253 . S
O427 Co418 2.063 . S
O427 C437 1.268 . S
O428 Co416 2.115 . S
O428 C438 1.281 . S
O429 Co416 2.315 . S
O429 C438 1.252 . S
O430 Co423 2.122 . S
O430 C439 1.272 . S
O431 Co417 2.113 . S
O431 C439 1.245 . S
C432 O440 1.259 . S
C432 O441 1.257 . S
C433 O442 1.268 . S
C433 O443 1.253 . S
C434 O444 1.281 . S
C434 O445 1.252 . S
C435 O446 1.272 . S
C435 O447 1.245 . S
C436 O424 1.259 . S
C436 O425 1.257 . S
C437 O426 1.253 . S
C437 O427 1.268 . S
C438 O428 1.281 . S
C438 O429 1.252 . S
C439 O430 1.272 . S
C439 O431 1.245 . S
O440 Co416 2.053 . S
O440 C432 1.259 . S
O441 Co418 2.047 . S
O441 C432 1.257 . S
O442 Co417 2.063 . S
O442 C433 1.268 . S
O443 Co416 2.094 . S
O443 C433 1.253 . S
O444 Co423 2.115 . S
O444 C434 1.281 . S
O445 Co423 2.315 . S
O445 C434 1.252 . S
O446 Co416 2.122 . S
O446 C435 1.272 . S
O447 Co418 2.113 . S
O447 C435 1.245 . S
Co448 H451 2.400 . S
Co448 O452 2.009 . S
Co448 O460 2.115 . S
Co448 O461 2.315 . S
Co448 O472 2.053 . S
Co448 O475 2.094 . S
Co448 O478 2.122 . S
Co449 O452 2.126 . S
Co449 H453 2.388 . S
Co449 O454 2.053 . S
Co449 O457 2.047 . S
Co449 O463 2.113 . S
Co449 O474 2.063 . S
Co450 H451 2.388 . S
Co450 O452 2.053 . S
Co450 O454 2.126 . S
Co450 O459 2.063 . S
Co450 O473 2.047 . S
Co450 O479 2.113 . S
H451 Co448 2.400 . S
H451 Co450 2.388 . S
H451 O452 0.760 . S
O452 Co448 2.009 . S
O452 Co449 2.126 . S
O452 Co450 2.053 . S
O452 H451 0.760 . S
H453 Co449 2.388 . S
H453 O454 0.760 . S
H453 Co455 2.400 . S
O454 Co449 2.053 . S
O454 Co450 2.126 . S
O454 H453 0.760 . S
O454 Co455 2.009 . S
Co455 H453 2.400 . S
Co455 O454 2.009 . S
Co455 O456 2.053 . S
Co455 O458 2.094 . S
Co455 O462 2.122 . S
Co455 O476 2.115 . S
Co455 O477 2.315 . S
O456 Co455 2.053 . S
O456 C468 1.259 . S
O457 Co449 2.047 . S
O457 C468 1.257 . S
O458 Co455 2.094 . S
O458 C469 1.253 . S
O459 Co450 2.063 . S
O459 C469 1.268 . S
O460 Co448 2.115 . S
O460 C470 1.281 . S
O461 Co448 2.315 . S
O461 C470 1.252 . S
O462 Co455 2.122 . S
O462 C471 1.272 . S
O463 Co449 2.113 . S
O463 C471 1.245 . S
C464 O472 1.259 . S
C464 O473 1.257 . S
C465 O474 1.268 . S
C465 O475 1.253 . S
C466 O476 1.281 . S
C466 O477 1.252 . S
C467 O478 1.272 . S
C467 O479 1.245 . S
C468 O456 1.259 . S
C468 O457 1.257 . S
C469 O458 1.253 . S
C469 O459 1.268 . S
C470 O460 1.281 . S
C470 O461 1.252 . S
C471 O462 1.272 . S
C471 O463 1.245 . S
O472 Co448 2.053 . S
O472 C464 1.259 . S
O473 Co450 2.047 . S
O473 C464 1.257 . S
O474 Co449 2.063 . S
O474 C465 1.268 . S
O475 Co448 2.094 . S
O475 C465 1.253 . S
O476 Co455 2.115 . S
O476 C466 1.281 . S
O477 Co455 2.315 . S
O477 C466 1.252 . S
O478 Co448 2.122 . S
O478 C467 1.272 . S
O479 Co450 2.113 . S
O479 C467 1.245 . S
Co480 H483 2.400 . S
Co480 O484 2.009 . S
Co480 O492 2.115 . S
Co480 O493 2.315 . S
Co480 O504 2.053 . S
Co480 O507 2.094 . S
Co480 O510 2.122 . S
Co481 O484 2.126 . S
Co481 H485 2.388 . S
Co481 O486 2.053 . S
Co481 O489 2.047 . S
Co481 O495 2.113 . S
Co481 O506 2.063 . S
Co482 H483 2.388 . S
Co482 O484 2.053 . S
Co482 O486 2.126 . S
Co482 O491 2.063 . S
Co482 O505 2.047 . S
Co482 O511 2.113 . S
H483 Co480 2.400 . S
H483 Co482 2.388 . S
H483 O484 0.760 . S
O484 Co480 2.009 . S
O484 Co481 2.126 . S
O484 Co482 2.053 . S
O484 H483 0.760 . S
H485 Co481 2.388 . S
H485 O486 0.760 . S
H485 Co487 2.400 . S
O486 Co481 2.053 . S
O486 Co482 2.126 . S
O486 H485 0.760 . S
O486 Co487 2.009 . S
Co487 H485 2.400 . S
Co487 O486 2.009 . S
Co487 O488 2.053 . S
Co487 O490 2.094 . S
Co487 O494 2.122 . S
Co487 O508 2.115 . S
Co487 O509 2.315 . S
O488 Co487 2.053 . S
O488 C500 1.259 . S
O489 Co481 2.047 . S
O489 C500 1.257 . S
O490 Co487 2.094 . S
O490 C501 1.253 . S
O491 Co482 2.063 . S
O491 C501 1.268 . S
O492 Co480 2.115 . S
O492 C502 1.281 . S
O493 Co480 2.315 . S
O493 C502 1.252 . S
O494 Co487 2.122 . S
O494 C503 1.272 . S
O495 Co481 2.113 . S
O495 C503 1.245 . S
C496 O504 1.259 . S
C496 O505 1.257 . S
C497 O506 1.268 . S
C497 O507 1.253 . S
C498 O508 1.281 . S
C498 O509 1.252 . S
C499 O510 1.272 . S
C499 O511 1.245 . S
C500 O488 1.259 . S
C500 O489 1.257 . S
C501 O490 1.253 . S
C501 O491 1.268 . S
C502 O492 1.281 . S
C502 O493 1.252 . S
C503 O494 1.272 . S
C503 O495 1.245 . S
O504 Co480 2.053 . S
O504 C496 1.259 . S
O505 Co482 2.047 . S
O505 C496 1.257 . S
O506 Co481 2.063 . S
O506 C497 1.268 . S
O507 Co480 2.094 . S
O507 C497 1.253 . S
O508 Co487 2.115 . S
O508 C498 1.281 . S
O509 Co487 2.315 . S
O509 C498 1.252 . S
O510 Co480 2.122 . S
O510 C499 1.272 . S
O511 Co482 2.113 . S
O511 C499 1.245 . S
C512 C513 1.369 . S
C512 C514 1.419 . S
C512 H516 0.930 . S
C513 C512 1.369 . S
C513 C522 1.429 . S
C514 C512 1.419 . S
C514 C515 1.363 . S
C514 H517 0.929 . S
C515 C514 1.363 . S
C515 C521 1.428 . S
H516 C512 0.930 . S
H517 C514 0.929 . S
S518 N519 1.613 . S
S518 N520 1.610 . S
N519 S518 1.613 . S
N519 C522 1.350 . S
N520 S518 1.610 . S
N520 C521 1.351 . S
C521 C515 1.428 . S
C521 N520 1.351 . S
C521 C522 1.434 . S
C522 C513 1.429 . S
C522 N519 1.350 . S
C522 C521 1.434 . S
C523 C524 1.369 . S
C523 C525 1.419 . S
C523 H527 0.930 . S
C524 C523 1.369 . S
C524 C533 1.425 1_655 S
C525 C523 1.419 . S
C525 C526 1.363 . S
C525 H528 0.929 . S
C526 C525 1.363 . S
C526 C532 1.428 . S
H527 C523 0.930 . S
H528 C525 0.929 . S
S529 N530 1.613 . S
S529 N531 1.610 . S
N530 S529 1.613 . S
N530 C533 1.356 . S
N531 S529 1.610 . S
N531 C532 1.351 1_455 S
C532 C526 1.428 . S
C532 N531 1.351 1_655 S
C532 C533 1.431 1_655 S
C533 C524 1.425 1_455 S
C533 N530 1.356 . S
C533 C532 1.431 1_455 S
C534 C535 1.369 . S
C534 C536 1.419 . S
C534 H538 0.930 . S
C535 C534 1.369 . S
C535 C544 1.429 . S
C536 C534 1.419 . S
C536 C537 1.363 . S
C536 H539 0.929 . S
C537 C536 1.363 . S
C537 C543 1.428 . S
H538 C534 0.930 . S
H539 C536 0.929 . S
S540 N541 1.613 . S
S540 N542 1.610 . S
N541 S540 1.613 . S
N541 C544 1.350 . S
N542 S540 1.610 . S
N542 C543 1.351 . S
C543 C537 1.428 . S
C543 N542 1.351 . S
C543 C544 1.434 . S
C544 C535 1.429 . S
C544 N541 1.350 . S
C544 C543 1.434 . S
C545 C546 1.369 . S
C545 C547 1.419 . S
C545 H549 0.930 . S
C546 C545 1.369 . S
C546 C555 1.429 . S
C547 C545 1.419 . S
C547 C548 1.363 . S
C547 H550 0.929 . S
C548 C547 1.363 . S
C548 C554 1.428 . S
H549 C545 0.930 . S
H550 C547 0.929 . S
S551 N552 1.613 . S
S551 N553 1.610 . S
N552 S551 1.613 . S
N552 C555 1.350 . S
N553 S551 1.610 . S
N553 C554 1.351 . S
C554 C548 1.428 . S
C554 N553 1.351 . S
C554 C555 1.434 . S
C555 C546 1.429 . S
C555 N552 1.350 . S
C555 C554 1.434 . S
C556 C557 1.369 . S
C556 C558 1.419 . S
C556 H560 0.930 . S
C557 C556 1.369 . S
C557 C566 1.429 . S
C558 C556 1.419 . S
C558 C559 1.363 . S
C558 H561 0.929 . S
C559 C558 1.363 . S
C559 C565 1.428 . S
H560 C556 0.930 . S
H561 C558 0.929 . S
S562 N563 1.613 . S
S562 N564 1.610 . S
N563 S562 1.613 . S
N563 C566 1.350 . S
N564 S562 1.610 . S
N564 C565 1.351 . S
C565 C559 1.428 . S
C565 N564 1.351 . S
C565 C566 1.434 . S
C566 C557 1.429 . S
C566 N563 1.350 . S
C566 C565 1.434 . S
C567 C568 1.369 . S
C567 C569 1.419 . S
C567 H571 0.930 1_455 S
C568 C567 1.369 . S
C568 C577 1.429 . S
C569 C567 1.419 . S
C569 C570 1.363 . S
C569 H572 0.929 . S
C570 C569 1.363 . S
C570 C576 1.428 . S
H571 C567 0.930 1_655 S
H572 C569 0.929 . S
S573 N574 1.613 . S
S573 N575 1.610 . S
N574 S573 1.613 . S
N574 C577 1.350 . S
N575 S573 1.610 . S
N575 C576 1.351 . S
C576 C570 1.428 . S
C576 N575 1.351 . S
C576 C577 1.434 . S
C577 C568 1.429 . S
C577 N574 1.350 . S
C577 C576 1.434 . S
C578 C579 1.369 . S
C578 C580 1.419 . S
C578 H582 0.930 . S
C579 C578 1.369 . S
C579 C588 1.429 . S
C580 C578 1.419 . S
C580 C581 1.363 . S
C580 H583 0.929 . S
C581 C580 1.363 . S
C581 C587 1.428 . S
H582 C578 0.930 . S
H583 C580 0.929 . S
S584 N585 1.613 . S
S584 N586 1.610 . S
N585 S584 1.613 . S
N585 C588 1.350 . S
N586 S584 1.610 . S
N586 C587 1.351 . S
C587 C581 1.428 . S
C587 N586 1.351 . S
C587 C588 1.434 . S
C588 C579 1.429 . S
C588 N585 1.350 . S
C588 C587 1.434 . S
C589 C590 1.369 . S
C589 C591 1.419 . S
C589 H593 0.930 . S
C590 C589 1.369 . S
C590 C599 1.429 . S
C591 C589 1.419 . S
C591 C592 1.363 . S
C591 H594 0.929 . S
C592 C591 1.363 . S
C592 C598 1.428 . S
H593 C589 0.930 . S
H594 C591 0.929 . S
S595 N596 1.613 . S
S595 N597 1.610 . S
N596 S595 1.613 . S
N596 C599 1.350 . S
N597 S595 1.610 . S
N597 C598 1.351 . S
C598 C592 1.428 . S
C598 N597 1.351 . S
C598 C599 1.434 . S
C599 C590 1.429 . S
C599 N596 1.350 . S
C599 C598 1.434 . S
C600 C601 1.369 . S
C600 C602 1.419 . S
C600 H604 0.930 . S
C601 C600 1.369 . S
C601 C610 1.429 . S
C602 C600 1.419 . S
C602 C603 1.363 . S
C602 H605 0.929 . S
C603 C602 1.363 . S
C603 C609 1.428 . S
H604 C600 0.930 . S
H605 C602 0.929 . S
S606 N607 1.613 . S
S606 N608 1.610 . S
N607 S606 1.613 . S
N607 C610 1.350 . S
N608 S606 1.610 . S
N608 C609 1.351 . S
C609 C603 1.428 . S
C609 N608 1.351 . S
C609 C610 1.434 . S
C610 C601 1.429 . S
C610 N607 1.350 . S
C610 C609 1.434 . S
C611 C612 1.369 . S
C611 C613 1.419 . S
C611 H615 0.930 . S
C612 C611 1.369 . S
C612 C621 1.429 . S
C613 C611 1.419 . S
C613 C614 1.363 . S
C613 H616 0.929 . S
C614 C613 1.363 . S
C614 C620 1.428 . S
H615 C611 0.930 . S
H616 C613 0.929 . S
S617 N618 1.613 . S
S617 N619 1.610 . S
N618 S617 1.613 . S
N618 C621 1.350 . S
N619 S617 1.610 . S
N619 C620 1.351 . S
C620 C614 1.428 . S
C620 N619 1.351 . S
C620 C621 1.434 . S
C621 C612 1.429 . S
C621 N618 1.350 . S
C621 C620 1.434 . S
C622 C623 1.369 . S
C622 C624 1.419 . S
C622 H626 0.930 . S
C623 C622 1.369 . S
C623 C632 1.429 . S
C624 C622 1.419 . S
C624 C625 1.363 . S
C624 H627 0.929 . S
C625 C624 1.363 . S
C625 C631 1.428 . S
H626 C622 0.930 . S
H627 C624 0.929 . S
S628 N629 1.613 . S
S628 N630 1.610 . S
N629 S628 1.613 . S
N629 C632 1.350 . S
N630 S628 1.610 . S
N630 C631 1.351 . S
C631 C625 1.428 . S
C631 N630 1.351 . S
C631 C632 1.434 . S
C632 C623 1.429 . S
C632 N629 1.350 . S
C632 C631 1.434 . S
C633 C634 1.369 . S
C633 C635 1.419 1_655 S
C633 H637 0.930 1_655 S
C634 C633 1.369 . S
C634 C643 1.429 . S
C635 C633 1.419 1_455 S
C635 C636 1.363 1_455 S
C635 H638 0.929 . S
C636 C635 1.363 1_655 S
C636 C642 1.428 . S
H637 C633 0.930 1_455 S
H638 C635 0.929 . S
S639 N640 1.613 . S
S639 N641 1.610 . S
N640 S639 1.613 . S
N640 C643 1.350 . S
N641 S639 1.610 . S
N641 C642 1.351 . S
C642 C636 1.428 . S
C642 N641 1.351 . S
C642 C643 1.434 . S
C643 C634 1.429 . S
C643 N640 1.350 . S
C643 C642 1.434 . S
C644 C645 1.369 . S
C644 C646 1.419 . S
C644 H648 0.930 . S
C645 C644 1.369 . S
C645 C654 1.429 . S
C646 C644 1.419 . S
C646 C647 1.363 . S
C646 H649 0.929 . S
C647 C646 1.363 . S
C647 C653 1.428 . S
H648 C644 0.930 . S
H649 C646 0.929 . S
S650 N651 1.613 . S
S650 N652 1.610 . S
N651 S650 1.613 . S
N651 C654 1.350 . S
N652 S650 1.610 . S
N652 C653 1.351 . S
C653 C647 1.428 . S
C653 N652 1.351 . S
C653 C654 1.434 . S
C654 C645 1.429 . S
C654 N651 1.350 . S
C654 C653 1.434 . S
C655 C656 1.369 . S
C655 C657 1.419 . S
C655 H659 0.930 . S
C656 C655 1.369 . S
C656 C665 1.429 . S
C657 C655 1.419 . S
C657 C658 1.363 . S
C657 H660 0.929 . S
C658 C657 1.363 . S
C658 C664 1.428 . S
H659 C655 0.930 . S
H660 C657 0.929 . S
S661 N662 1.613 . S
S661 N663 1.610 . S
N662 S661 1.613 . S
N662 C665 1.350 . S
N663 S661 1.610 . S
N663 C664 1.351 . S
C664 C658 1.428 . S
C664 N663 1.351 . S
C664 C665 1.434 . S
C665 C656 1.429 . S
C665 N662 1.350 . S
C665 C664 1.434 . S
C666 C667 1.369 . S
C666 C668 1.419 . S
C666 H670 0.930 . S
C667 C666 1.369 . S
C667 C676 1.429 . S
C668 C666 1.419 . S
C668 C669 1.363 . S
C668 H671 0.929 . S
C669 C668 1.363 . S
C669 C675 1.428 . S
H670 C666 0.930 . S
H671 C668 0.929 . S
S672 N673 1.613 . S
S672 N674 1.610 . S
N673 S672 1.613 . S
N673 C676 1.350 . S
N674 S672 1.610 . S
N674 C675 1.351 . S
C675 C669 1.428 . S
C675 N674 1.351 . S
C675 C676 1.434 . S
C676 C667 1.429 . S
C676 N673 1.350 . S
C676 C675 1.434 . S
C677 C678 1.369 . S
C677 C679 1.419 . S
C677 H681 0.930 . S
C678 C677 1.369 . S
C678 C687 1.429 . S
C679 C677 1.419 . S
C679 C680 1.363 . S
C679 H682 0.929 . S
C680 C679 1.363 . S
C680 C686 1.428 . S
H681 C677 0.930 . S
H682 C679 0.929 . S
S683 N684 1.613 . S
S683 N685 1.610 . S
N684 S683 1.613 . S
N684 C687 1.350 . S
N685 S683 1.610 . S
N685 C686 1.351 . S
C686 C680 1.428 . S
C686 N685 1.351 . S
C686 C687 1.434 . S
C687 C678 1.429 . S
C687 N684 1.350 . S
C687 C686 1.434 . S
C688 C689 1.369 . S
C688 C690 1.419 . S
C688 H692 0.930 . S
C689 C688 1.369 . S
C689 C698 1.429 . S
C690 C688 1.419 . S
C690 C691 1.363 . S
C690 H693 0.929 . S
C691 C690 1.363 . S
C691 C697 1.428 . S
H692 C688 0.930 . S
H693 C690 0.929 . S
S694 N695 1.613 . S
S694 N696 1.610 . S
N695 S694 1.613 . S
N695 C698 1.350 . S
N696 S694 1.610 . S
N696 C697 1.351 . S
C697 C691 1.428 . S
C697 N696 1.351 . S
C697 C698 1.434 . S
C698 C689 1.429 . S
C698 N695 1.350 . S
C698 C697 1.434 . S
C699 C700 1.369 1_455 S
C699 C701 1.419 1_455 S
C699 H703 0.930 . S
C700 C699 1.369 1_655 S
C700 C709 1.429 . S
C701 C699 1.419 1_655 S
C701 C702 1.363 . S
C701 H704 0.929 1_655 S
C702 C701 1.363 . S
C702 C708 1.428 . S
H703 C699 0.930 . S
H704 C701 0.929 1_455 S
S705 N706 1.613 . S
S705 N707 1.610 . S
N706 S705 1.613 . S
N706 C709 1.350 . S
N707 S705 1.610 . S
N707 C708 1.351 . S
C708 C702 1.428 . S
C708 N707 1.351 . S
C708 C709 1.434 . S
C709 C700 1.429 . S
C709 N706 1.350 . S
C709 C708 1.434 . S
C710 C711 1.369 . S
C710 C712 1.419 . S
C710 H714 0.930 . S
C711 C710 1.369 . S
C711 C720 1.429 . S
C712 C710 1.419 . S
C712 C713 1.363 . S
C712 H715 0.929 . S
C713 C712 1.363 . S
C713 C719 1.428 . S
H714 C710 0.930 . S
H715 C712 0.929 . S
S716 N717 1.613 . S
S716 N718 1.610 . S
N717 S716 1.613 . S
N717 C720 1.350 . S
N718 S716 1.610 . S
N718 C719 1.351 . S
C719 C713 1.428 . S
C719 N718 1.351 . S
C719 C720 1.434 . S
C720 C711 1.429 . S
C720 N717 1.350 . S
C720 C719 1.434 . S
C721 C722 1.369 . S
C721 C723 1.419 . S
C721 H725 0.930 . S
C722 C721 1.369 . S
C722 C731 1.429 . S
C723 C721 1.419 . S
C723 C724 1.363 . S
C723 H726 0.929 . S
C724 C723 1.363 . S
C724 C730 1.428 1_655 S
H725 C721 0.930 . S
H726 C723 0.929 . S
S727 N728 1.613 . S
S727 N729 1.610 . S
N728 S727 1.613 . S
N728 C731 1.350 1_455 S
N729 S727 1.610 . S
N729 C730 1.351 . S
C730 C724 1.428 1_455 S
C730 N729 1.351 . S
C730 C731 1.434 1_455 S
C731 C722 1.429 . S
C731 N728 1.350 1_655 S
C731 C730 1.434 1_655 S
C732 C733 1.369 . S
C732 C734 1.419 . S
C732 H736 0.930 . S
C733 C732 1.369 . S
C733 C742 1.429 . S
C734 C732 1.419 . S
C734 C735 1.363 . S
C734 H737 0.929 . S
C735 C734 1.363 . S
C735 C741 1.428 . S
H736 C732 0.930 . S
H737 C734 0.929 . S
S738 N739 1.613 . S
S738 N740 1.610 . S
N739 S738 1.613 . S
N739 C742 1.350 . S
N740 S738 1.610 . S
N740 C741 1.351 . S
C741 C735 1.428 . S
C741 N740 1.351 . S
C741 C742 1.434 . S
C742 C733 1.429 . S
C742 N739 1.350 . S
C742 C741 1.434 . S
C743 C744 1.369 . S
C743 C745 1.419 . S
C743 H747 0.930 . S
C744 C743 1.369 . S
C744 C753 1.429 . S
C745 C743 1.419 . S
C745 C746 1.363 . S
C745 H748 0.929 . S
C746 C745 1.363 . S
C746 C752 1.428 . S
H747 C743 0.930 . S
H748 C745 0.929 . S
S749 N750 1.613 1_655 S
S749 N751 1.610 . S
N750 S749 1.613 1_455 S
N750 C753 1.350 . S
N751 S749 1.610 . S
N751 C752 1.351 1_655 S
C752 C746 1.428 . S
C752 N751 1.351 1_455 S
C752 C753 1.434 . S
C753 C744 1.429 . S
C753 N750 1.350 . S
C753 C752 1.434 . S
C754 C755 1.369 . S
C754 C756 1.419 . S
C754 H758 0.930 . S
C755 C754 1.369 . S
C755 C764 1.429 . S
C756 C754 1.419 . S
C756 C757 1.363 . S
C756 H759 0.929 . S
C757 C756 1.363 . S
C757 C763 1.428 . S
H758 C754 0.930 . S
H759 C756 0.929 . S
S760 N761 1.613 . S
S760 N762 1.610 . S
N761 S760 1.613 . S
N761 C764 1.350 . S
N762 S760 1.610 . S
N762 C763 1.351 . S
C763 C757 1.428 . S
C763 N762 1.351 . S
C763 C764 1.434 . S
C764 C755 1.429 . S
C764 N761 1.350 . S
C764 C763 1.434 . S
C765 C766 1.369 . S
C765 C767 1.419 . S
C765 H769 0.930 . S
C766 C765 1.369 . S
C766 C775 1.429 . S
C767 C765 1.419 . S
C767 C768 1.363 . S
C767 H770 0.929 . S
C768 C767 1.363 . S
C768 C774 1.428 1_455 S
H769 C765 0.930 . S
H770 C767 0.929 . S
S771 N772 1.613 . S
S771 N773 1.610 . S
N772 S771 1.613 . S
N772 C775 1.350 1_655 S
N773 S771 1.610 . S
N773 C774 1.351 . S
C774 C768 1.428 1_655 S
C774 N773 1.351 . S
C774 C775 1.434 1_655 S
C775 C766 1.429 . S
C775 N772 1.350 1_455 S
C775 C774 1.434 1_455 S
C776 C777 1.369 . S
C776 C778 1.419 . S
C776 H780 0.930 . S
C777 C776 1.369 . S
C777 C786 1.429 . S
C778 C776 1.419 . S
C778 C779 1.363 . S
C778 H781 0.929 . S
C779 C778 1.363 . S
C779 C785 1.428 . S
H780 C776 0.930 . S
H781 C778 0.929 . S
S782 N783 1.613 . S
S782 N784 1.610 . S
N783 S782 1.613 . S
N783 C786 1.350 . S
N784 S782 1.610 . S
N784 C785 1.351 . S
C785 C779 1.428 . S
C785 N784 1.351 . S
C785 C786 1.434 . S
C786 C777 1.429 . S
C786 N783 1.350 . S
C786 C785 1.434 . S
C787 C788 1.369 . S
C787 C789 1.419 . S
C787 H791 0.930 . S
C788 C787 1.369 . S
C788 C797 1.429 . S
C789 C787 1.419 . S
C789 C790 1.363 . S
C789 H792 0.929 . S
C790 C789 1.363 . S
C790 C796 1.428 . S
H791 C787 0.930 . S
H792 C789 0.929 . S
S793 N794 1.613 . S
S793 N795 1.610 . S
N794 S793 1.613 . S
N794 C797 1.350 . S
N795 S793 1.610 . S
N795 C796 1.351 . S
C796 C790 1.428 . S
C796 N795 1.351 . S
C796 C797 1.434 . S
C797 C788 1.429 . S
C797 N794 1.350 . S
C797 C796 1.434 . S
C798 C799 1.369 . S
C798 C800 1.419 . S
C798 H802 0.930 . S
C799 C798 1.369 . S
C799 C808 1.429 . S
C800 C798 1.419 . S
C800 C801 1.363 . S
C800 H803 0.929 . S
C801 C800 1.363 . S
C801 C807 1.428 . S
H802 C798 0.930 . S
H803 C800 0.929 . S
S804 N805 1.613 . S
S804 N806 1.610 . S
N805 S804 1.613 . S
N805 C808 1.350 . S
N806 S804 1.610 . S
N806 C807 1.351 . S
C807 C801 1.428 . S
C807 N806 1.351 . S
C807 C808 1.434 . S
C808 C799 1.429 . S
C808 N805 1.350 . S
C808 C807 1.434 . S
C809 C810 1.369 1_455 S
C809 C811 1.419 1_455 S
C809 H813 0.930 . S
C810 C809 1.369 1_655 S
C810 C819 1.429 . S
C811 C809 1.419 1_655 S
C811 C812 1.363 . S
C811 H814 0.929 1_655 S
C812 C811 1.363 . S
C812 C818 1.428 . S
H813 C809 0.930 . S
H814 C811 0.929 1_455 S
S815 N816 1.613 . S
S815 N817 1.610 . S
N816 S815 1.613 . S
N816 C819 1.350 . S
N817 S815 1.610 . S
N817 C818 1.351 . S
C818 C812 1.428 . S
C818 N817 1.351 . S
C818 C819 1.434 . S
C819 C810 1.429 . S
C819 N816 1.350 . S
C819 C818 1.434 . S
C820 C821 1.369 . S
C820 C822 1.419 . S
C820 H824 0.930 . S
C821 C820 1.369 . S
C821 C830 1.429 . S
C822 C820 1.419 . S
C822 C823 1.363 . S
C822 H825 0.929 . S
C823 C822 1.363 . S
C823 C829 1.428 . S
H824 C820 0.930 . S
H825 C822 0.929 . S
S826 N827 1.613 . S
S826 N828 1.610 . S
N827 S826 1.613 . S
N827 C830 1.350 . S
N828 S826 1.610 . S
N828 C829 1.351 . S
C829 C823 1.428 . S
C829 N828 1.351 . S
C829 C830 1.434 . S
C830 C821 1.429 . S
C830 N827 1.350 . S
C830 C829 1.434 . S
C831 C832 1.369 . S
C831 C833 1.419 1_455 S
C831 H835 0.930 . S
C832 C831 1.369 . S
C832 C841 1.429 . S
C833 C831 1.419 1_655 S
C833 C834 1.363 1_655 S
C833 H836 0.929 . S
C834 C833 1.363 1_455 S
C834 C840 1.428 . S
H835 C831 0.930 . S
H836 C833 0.929 . S
S837 N838 1.613 . S
S837 N839 1.610 . S
N838 S837 1.613 . S
N838 C841 1.350 . S
N839 S837 1.610 . S
N839 C840 1.351 . S
C840 C834 1.428 . S
C840 N839 1.351 . S
C840 C841 1.434 . S
C841 C832 1.429 . S
C841 N838 1.350 . S
C841 C840 1.434 . S
C842 C843 1.369 . S
C842 C844 1.419 . S
C842 H846 0.930 . S
C843 C842 1.369 . S
C843 C852 1.429 . S
C844 C842 1.419 . S
C844 C845 1.363 . S
C844 H847 0.929 . S
C845 C844 1.363 . S
C845 C851 1.428 . S
H846 C842 0.930 . S
H847 C844 0.929 . S
S848 N849 1.613 . S
S848 N850 1.610 . S
N849 S848 1.613 . S
N849 C852 1.350 . S
N850 S848 1.610 . S
N850 C851 1.351 . S
C851 C845 1.428 . S
C851 N850 1.351 . S
C851 C852 1.434 . S
C852 C843 1.429 . S
C852 N849 1.350 . S
C852 C851 1.434 . S
C853 C854 1.369 . S
C853 C855 1.419 . S
C853 H857 0.930 1_455 S
C854 C853 1.369 . S
C854 C863 1.429 . S
C855 C853 1.419 . S
C855 C856 1.363 . S
C855 H858 0.929 . S
C856 C855 1.363 . S
C856 C862 1.428 . S
H857 C853 0.930 1_655 S
H858 C855 0.929 . S
S859 N860 1.613 . S
S859 N861 1.610 . S
N860 S859 1.613 . S
N860 C863 1.350 . S
N861 S859 1.610 . S
N861 C862 1.351 . S
C862 C856 1.428 . S
C862 N861 1.351 . S
C862 C863 1.434 . S
C863 C854 1.429 . S
C863 N860 1.350 . S
C863 C862 1.434 . S
C864 C865 1.369 . S
C864 C866 1.419 . S
C864 H868 0.930 . S
C865 C864 1.369 . S
C865 C874 1.429 . S
C866 C864 1.419 . S
C866 C867 1.363 . S
C866 H869 0.929 . S
C867 C866 1.363 . S
C867 C873 1.428 . S
H868 C864 0.930 . S
H869 C866 0.929 . S
S870 N871 1.613 . S
S870 N872 1.610 . S
N871 S870 1.613 . S
N871 C874 1.350 . S
N872 S870 1.610 . S
N872 C873 1.351 . S
C873 C867 1.428 . S
C873 N872 1.351 . S
C873 C874 1.434 . S
C874 C865 1.429 . S
C874 N871 1.350 . S
C874 C873 1.434 . S
C875 C876 1.369 . S
C875 C877 1.419 . S
C875 H879 0.930 1_545 S
C876 C875 1.369 . S
C876 C885 1.429 . S
C877 C875 1.419 . S
C877 C878 1.363 1_655 S
C877 H880 0.929 1_545 S
C878 C877 1.363 1_455 S
C878 C884 1.428 . S
H879 C875 0.930 1_565 S
H880 C877 0.929 1_565 S
S881 N882 1.613 1_455 S
S881 N883 1.610 . S
N882 S881 1.613 1_655 S
N882 C885 1.350 . S
N883 S881 1.610 . S
N883 C884 1.351 . S
C884 C878 1.428 . S
C884 N883 1.351 . S
C884 C885 1.434 1_455 S
C885 C876 1.429 . S
C885 N882 1.350 . S
C885 C884 1.434 1_655 S
C886 C887 1.369 . S
C886 C888 1.419 . S
C886 H890 0.930 . S
C887 C886 1.369 . S
C887 C896 1.429 . S
C888 C886 1.419 . S
C888 C889 1.363 . S
C888 H891 0.929 . S
C889 C888 1.363 . S
C889 C895 1.428 1_545 S
H890 C886 0.930 . S
H891 C888 0.929 . S
S892 N893 1.613 . S
S892 N894 1.610 . S
N893 S892 1.613 . S
N893 C896 1.350 1_565 S
N894 S892 1.610 . S
N894 C895 1.351 . S
C895 C889 1.428 1_565 S
C895 N894 1.351 . S
C895 C896 1.434 1_565 S
C896 C887 1.429 . S
C896 N893 1.350 1_545 S
C896 C895 1.434 1_545 S
C897 C898 1.369 . S
C897 C899 1.419 1_655 S
C897 H901 0.930 . S
C898 C897 1.369 . S
C898 C907 1.429 . S
C899 C897 1.419 1_455 S
C899 C900 1.363 . S
C899 H902 0.929 . S
C900 C899 1.363 . S
C900 C906 1.428 1_455 S
H901 C897 0.930 . S
H902 C899 0.929 . S
S903 N904 1.613 . S
S903 N905 1.610 . S
N904 S903 1.613 . S
N904 C907 1.350 . S
N905 S903 1.610 . S
N905 C906 1.351 . S
C906 C900 1.428 1_655 S
C906 N905 1.351 . S
C906 C907 1.434 . S
C907 C898 1.429 . S
C907 N904 1.350 . S
C907 C906 1.434 . S
C908 C909 1.369 . S
C908 C910 1.419 . S
C908 H912 0.930 . S
C909 C908 1.369 . S
C909 C918 1.429 . S
C910 C908 1.419 . S
C910 C911 1.363 . S
C910 H913 0.929 . S
C911 C910 1.363 . S
C911 C917 1.428 . S
H912 C908 0.930 . S
H913 C910 0.929 . S
S914 N915 1.613 . S
S914 N916 1.610 . S
N915 S914 1.613 . S
N915 C918 1.350 . S
N916 S914 1.610 . S
N916 C917 1.351 . S
C917 C911 1.428 . S
C917 N916 1.351 . S
C917 C918 1.434 . S
C918 C909 1.429 . S
C918 N915 1.350 . S
C918 C917 1.434 . S
C919 C920 1.369 1_455 S
C919 C921 1.419 . S
C919 H923 0.930 . S
C920 C919 1.369 1_655 S
C920 C929 1.429 . S
C921 C919 1.419 . S
C921 C922 1.363 . S
C921 H924 0.929 . S
C922 C921 1.363 . S
C922 C928 1.428 . S
H923 C919 0.930 . S
H924 C921 0.929 . S
S925 N926 1.613 . S
S925 N927 1.610 1_655 S
N926 S925 1.613 . S
N926 C929 1.350 1_545 S
N927 S925 1.610 1_455 S
N927 C928 1.351 1_545 S
C928 C922 1.428 . S
C928 N927 1.351 1_565 S
C928 C929 1.434 1_455 S
C929 C920 1.429 . S
C929 N926 1.350 1_565 S
C929 C928 1.434 1_655 S
C930 C931 1.369 . S
C930 C932 1.419 . S
C930 H934 0.930 . S
C931 C930 1.369 . S
C931 C940 1.429 . S
C932 C930 1.419 . S
C932 C933 1.363 . S
C932 H935 0.929 . S
C933 C932 1.363 . S
C933 C939 1.428 . S
H934 C930 0.930 . S
H935 C932 0.929 . S
S936 N937 1.613 . S
S936 N938 1.610 . S
N937 S936 1.613 . S
N937 C940 1.350 1_545 S
N938 S936 1.610 . S
N938 C939 1.351 1_545 S
C939 C933 1.428 . S
C939 N938 1.351 1_565 S
C939 C940 1.434 . S
C940 C931 1.429 . S
C940 N937 1.350 1_565 S
C940 C939 1.434 . S
C941 C942 1.370 . S
C941 C943 1.416 1_655 S
C941 H945 0.932 . S
C942 C941 1.370 . S
C942 C951 1.429 1_655 S
C943 C941 1.416 1_455 S
C943 C944 1.363 . S
C943 H946 0.929 . S
C944 C943 1.363 . S
C944 C950 1.428 . S
H945 C941 0.932 . S
H946 C943 0.929 . S
S947 N948 1.613 . S
S947 N949 1.610 . S
N948 S947 1.613 . S
N948 C951 1.350 . S
N949 S947 1.610 . S
N949 C950 1.351 . S
C950 C944 1.428 . S
C950 N949 1.351 . S
C950 C951 1.434 . S
C951 C942 1.429 1_455 S
C951 N948 1.350 . S
C951 C950 1.434 . S
C952 C953 1.369 . S
C952 C954 1.419 . S
C952 H956 0.930 . S
C953 C952 1.369 . S
C953 C962 1.429 . S
C954 C952 1.419 . S
C954 C955 1.363 . S
C954 H957 0.929 . S
C955 C954 1.363 . S
C955 C961 1.428 . S
H956 C952 0.930 . S
H957 C954 0.929 . S
S958 N959 1.613 . S
S958 N960 1.610 . S
N959 S958 1.613 . S
N959 C962 1.350 . S
N960 S958 1.610 . S
N960 C961 1.351 . S
C961 C955 1.428 . S
C961 N960 1.351 . S
C961 C962 1.434 . S
C962 C953 1.429 . S
C962 N959 1.350 . S
C962 C961 1.434 . S
C963 C964 1.369 1_655 S
C963 C965 1.419 . S
C963 H967 0.930 . S
C964 C963 1.369 1_455 S
C964 C973 1.429 . S
C965 C963 1.419 . S
C965 C966 1.363 . S
C965 H968 0.929 . S
C966 C965 1.363 . S
C966 C972 1.428 . S
H967 C963 0.930 . S
H968 C965 0.929 . S
S969 N970 1.613 1_655 S
S969 N971 1.610 . S
N970 S969 1.613 1_455 S
N970 C973 1.351 . S
N971 S969 1.610 . S
N971 C972 1.351 . S
C972 C966 1.428 . S
C972 N971 1.351 . S
C972 C973 1.432 1_655 S
C973 C964 1.429 . S
C973 N970 1.351 . S
C973 C972 1.432 1_455 S
C974 C975 1.369 . S
C974 C976 1.419 . S
C974 H978 0.930 . S
C975 C974 1.369 . S
C975 C984 1.429 . S
C976 C974 1.419 . S
C976 C977 1.363 . S
C976 H979 0.929 . S
C977 C976 1.363 . S
C977 C983 1.428 . S
H978 C974 0.930 . S
H979 C976 0.929 . S
S980 N981 1.613 . S
S980 N982 1.610 . S
N981 S980 1.613 . S
N981 C984 1.350 . S
N982 S980 1.610 . S
N982 C983 1.351 . S
C983 C977 1.428 . S
C983 N982 1.351 . S
C983 C984 1.434 . S
C984 C975 1.429 . S
C984 N981 1.350 . S
C984 C983 1.434 . S
C985 C986 1.369 . S
C985 C987 1.419 1_655 S
C985 H989 0.930 1_655 S
C986 C985 1.369 . S
C986 C995 1.429 . S
C987 C985 1.419 1_455 S
C987 C988 1.363 . S
C987 H990 0.929 . S
C988 C987 1.363 . S
C988 C994 1.428 1_455 S
H989 C985 0.930 1_455 S
H990 C987 0.929 . S
S991 N992 1.613 . S
S991 N993 1.610 . S
N992 S991 1.613 . S
N992 C995 1.350 . S
N993 S991 1.610 . S
N993 C994 1.351 . S
C994 C988 1.428 1_655 S
C994 N993 1.351 . S
C994 C995 1.434 . S
C995 C986 1.429 . S
C995 N992 1.350 . S
C995 C994 1.434 . S
C996 C997 1.369 . S
C996 C998 1.419 . S
C996 H1000 0.930 . S
C997 C996 1.369 . S
C997 C1006 1.429 . S
C998 C996 1.419 . S
C998 C999 1.363 . S
C998 H1001 0.929 . S
C999 C998 1.363 . S
C999 C1005 1.428 . S
H1000 C996 0.930 . S
H1001 C998 0.929 . S
S1002 N1003 1.613 . S
S1002 N1004 1.610 . S
N1003 S1002 1.613 . S
N1003 C1006 1.350 . S
N1004 S1002 1.610 . S
N1004 C1005 1.351 . S
C1005 C999 1.428 . S
C1005 N1004 1.351 . S
C1005 C1006 1.434 . S
C1006 C997 1.429 . S
C1006 N1003 1.350 . S
C1006 C1005 1.434 . S
C1007 C1008 1.369 . S
C1007 C1009 1.419 . S
C1007 H1011 0.930 . S
C1008 C1007 1.369 . S
C1008 C1017 1.429 . S
C1009 C1007 1.419 . S
C1009 C1010 1.363 1_455 S
C1009 H1012 0.929 . S
C1010 C1009 1.363 1_655 S
C1010 C1016 1.428 . S
H1011 C1007 0.930 . S
H1012 C1009 0.929 . S
S1013 N1014 1.613 . S
S1013 N1015 1.610 . S
N1014 S1013 1.613 . S
N1014 C1017 1.350 1_655 S
N1015 S1013 1.610 . S
N1015 C1016 1.351 . S
C1016 C1010 1.428 . S
C1016 N1015 1.351 . S
C1016 C1017 1.434 1_655 S
C1017 C1008 1.429 . S
C1017 N1014 1.350 1_455 S
C1017 C1016 1.434 1_455 S
C1018 C1019 1.369 . S
C1018 C1020 1.419 . S
C1018 H1022 0.930 . S
C1019 C1018 1.369 . S
C1019 C1028 1.429 . S
C1020 C1018 1.419 . S
C1020 C1021 1.363 . S
C1020 H1023 0.929 . S
C1021 C1020 1.363 . S
C1021 C1027 1.428 . S
H1022 C1018 0.930 . S
H1023 C1020 0.929 . S
S1024 N1025 1.613 . S
S1024 N1026 1.610 . S
N1025 S1024 1.613 . S
N1025 C1028 1.350 . S
N1026 S1024 1.610 . S
N1026 C1027 1.351 . S
C1027 C1021 1.428 . S
C1027 N1026 1.351 . S
C1027 C1028 1.434 . S
C1028 C1019 1.429 . S
C1028 N1025 1.350 . S
C1028 C1027 1.434 . S
C1029 C1030 1.369 . S
C1029 C1031 1.419 1_455 S
C1029 H1033 0.930 1_455 S
C1030 C1029 1.369 . S
C1030 C1039 1.429 . S
C1031 C1029 1.419 1_655 S
C1031 C1032 1.363 . S
C1031 H1034 0.929 . S
C1032 C1031 1.363 . S
C1032 C1038 1.428 1_655 S
H1033 C1029 0.930 1_655 S
H1034 C1031 0.929 . S
S1035 N1036 1.613 . S
S1035 N1037 1.610 . S
N1036 S1035 1.613 . S
N1036 C1039 1.350 . S
N1037 S1035 1.610 . S
N1037 C1038 1.351 . S
C1038 C1032 1.428 1_455 S
C1038 N1037 1.351 . S
C1038 C1039 1.434 . S
C1039 C1030 1.429 . S
C1039 N1036 1.350 . S
C1039 C1038 1.434 . S
C1040 C1041 1.369 . S
C1040 C1042 1.419 . S
C1040 H1044 0.930 . S
C1041 C1040 1.369 . S
C1041 C1050 1.429 . S
C1042 C1040 1.419 . S
C1042 C1043 1.363 . S
C1042 H1045 0.929 . S
C1043 C1042 1.363 . S
C1043 C1049 1.428 . S
H1044 C1040 0.930 . S
H1045 C1042 0.929 . S
S1046 N1047 1.613 . S
S1046 N1048 1.610 . S
N1047 S1046 1.613 . S
N1047 C1050 1.350 . S
N1048 S1046 1.610 . S
N1048 C1049 1.351 . S
C1049 C1043 1.428 . S
C1049 N1048 1.351 . S
C1049 C1050 1.434 . S
C1050 C1041 1.429 . S
C1050 N1047 1.350 . S
C1050 C1049 1.434 . S
C1051 C1052 1.369 1_545 S
C1051 C1053 1.419 . S
C1051 H1055 0.930 . S
C1052 C1051 1.369 1_565 S
C1052 C1061 1.429 1_655 S
C1053 C1051 1.419 . S
C1053 C1054 1.363 1_655 S
C1053 H1056 0.929 . S
C1054 C1053 1.363 1_455 S
C1054 C1060 1.428 1_545 S
H1055 C1051 0.930 . S
H1056 C1053 0.929 . S
S1057 N1058 1.613 . S
S1057 N1059 1.610 . S
N1058 S1057 1.613 . S
N1058 C1061 1.350 . S
N1059 S1057 1.610 . S
N1059 C1060 1.351 . S
C1060 C1054 1.428 1_565 S
C1060 N1059 1.351 . S
C1060 C1061 1.434 . S
C1061 C1052 1.429 1_455 S
C1061 N1058 1.350 . S
C1061 C1060 1.434 . S
C1062 C1063 1.369 1_545 S
C1062 C1064 1.419 . S
C1062 H1066 0.930 . S
C1063 C1062 1.369 1_565 S
C1063 C1072 1.429 . S
C1064 C1062 1.419 . S
C1064 C1065 1.363 . S
C1064 H1067 0.929 . S
C1065 C1064 1.363 . S
C1065 C1071 1.428 1_545 S
H1066 C1062 0.930 . S
H1067 C1064 0.929 . S
S1068 N1069 1.613 . S
S1068 N1070 1.610 . S
N1069 S1068 1.613 . S
N1069 C1072 1.350 . S
N1070 S1068 1.610 . S
N1070 C1071 1.351 . S
C1071 C1065 1.428 1_565 S
C1071 N1070 1.351 . S
C1071 C1072 1.434 . S
C1072 C1063 1.429 . S
C1072 N1069 1.350 . S
C1072 C1071 1.434 . S
C1073 C1074 1.369 1_655 S
C1073 C1075 1.419 . S
C1073 H1077 0.930 . S
C1074 C1073 1.369 1_455 S
C1074 C1083 1.429 . S
C1075 C1073 1.419 . S
C1075 C1076 1.363 . S
C1075 H1078 0.929 . S
C1076 C1075 1.363 . S
C1076 C1082 1.428 1_655 S
H1077 C1073 0.930 . S
H1078 C1075 0.929 . S
S1079 N1080 1.613 . S
S1079 N1081 1.610 . S
N1080 S1079 1.613 . S
N1080 C1083 1.350 . S
N1081 S1079 1.610 . S
N1081 C1082 1.351 . S
C1082 C1076 1.428 1_455 S
C1082 N1081 1.351 . S
C1082 C1083 1.434 . S
C1083 C1074 1.429 . S
C1083 N1080 1.350 . S
C1083 C1082 1.434 . S
C1084 C1085 1.369 . S
C1084 C1086 1.419 . S
C1084 H1088 0.930 . S
C1085 C1084 1.369 . S
C1085 C1094 1.429 . S
C1086 C1084 1.419 . S
C1086 C1087 1.363 . S
C1086 H1089 0.929 . S
C1087 C1086 1.363 . S
C1087 C1093 1.428 . S
H1088 C1084 0.930 . S
H1089 C1086 0.929 . S
S1090 N1091 1.613 . S
S1090 N1092 1.610 . S
N1091 S1090 1.613 . S
N1091 C1094 1.350 . S
N1092 S1090 1.610 . S
N1092 C1093 1.351 . S
C1093 C1087 1.428 . S
C1093 N1092 1.351 . S
C1093 C1094 1.434 . S
C1094 C1085 1.429 . S
C1094 N1091 1.350 . S
C1094 C1093 1.434 . S
C1095 C1096 1.369 . S
C1095 C1097 1.419 1_565 S
C1095 H1099 0.930 . S
C1096 C1095 1.369 . S
C1096 C1105 1.429 . S
C1097 C1095 1.419 1_545 S
C1097 C1098 1.363 . S
C1097 H1100 0.929 . S
C1098 C1097 1.363 . S
C1098 C1104 1.428 . S
H1099 C1095 0.930 . S
H1100 C1097 0.929 . S
S1101 N1102 1.613 1_455 S
S1101 N1103 1.610 1_455 S
N1102 S1101 1.613 1_655 S
N1102 C1105 1.350 . S
N1103 S1101 1.610 1_655 S
N1103 C1104 1.351 1_565 S
C1104 C1098 1.428 . S
C1104 N1103 1.351 1_545 S
C1104 C1105 1.434 1_545 S
C1105 C1096 1.429 . S
C1105 N1102 1.350 . S
C1105 C1104 1.434 1_565 S
C1106 C1107 1.369 1_655 S
C1106 C1108 1.419 . S
C1106 H1110 0.930 . S
C1107 C1106 1.369 1_455 S
C1107 C1116 1.429 . S
C1108 C1106 1.419 . S
C1108 C1109 1.363 . S
C1108 H1111 0.929 . S
C1109 C1108 1.363 . S
C1109 C1115 1.428 1_655 S
H1110 C1106 0.930 . S
H1111 C1108 0.929 . S
S1112 N1113 1.613 . S
S1112 N1114 1.610 . S
N1113 S1112 1.613 . S
N1113 C1116 1.350 . S
N1114 S1112 1.610 . S
N1114 C1115 1.351 . S
C1115 C1109 1.428 1_455 S
C1115 N1114 1.351 . S
C1115 C1116 1.434 . S
C1116 C1107 1.429 . S
C1116 N1113 1.350 . S
C1116 C1115 1.434 . S
C1117 C1118 1.369 . S
C1117 C1119 1.419 1_554 S
C1117 H1121 0.930 . S
C1118 C1117 1.369 . S
C1118 C1127 1.429 . S
C1119 C1117 1.419 1_556 S
C1119 C1120 1.363 . S
C1119 H1122 0.929 . S
C1120 C1119 1.363 . S
C1120 C1126 1.428 . S
H1121 C1117 0.930 . S
H1122 C1119 0.929 . S
S1123 N1124 1.613 1_556 S
S1123 N1125 1.610 . S
N1124 S1123 1.613 1_554 S
N1124 C1127 1.350 . S
N1125 S1123 1.610 . S
N1125 C1126 1.351 . S
C1126 C1120 1.428 . S
C1126 N1125 1.351 . S
C1126 C1127 1.434 1_556 S
C1127 C1118 1.429 . S
C1127 N1124 1.350 . S
C1127 C1126 1.434 1_554 S
C1128 C1129 1.369 . S
C1128 C1130 1.347 1_556 S
C1128 H1132 0.930 . S
C1129 C1128 1.369 . S
C1129 C1138 1.446 1_455 S
C1130 C1128 1.347 1_554 S
C1130 C1131 1.421 1_455 S
C1130 H1133 0.951 . S
C1131 C1130 1.421 1_655 S
C1131 C1137 1.428 . S
H1132 C1128 0.930 . S
H1133 C1130 0.951 . S
S1134 N1135 1.671 . S
S1134 N1136 1.610 . S
N1135 S1134 1.671 . S
N1135 C1138 1.362 1_554 S
N1136 S1134 1.610 . S
N1136 C1137 1.351 . S
C1137 C1131 1.428 . S
C1137 N1136 1.351 . S
C1137 C1138 1.411 1_554 S
C1138 C1129 1.446 1_655 S
C1138 N1135 1.362 1_556 S
C1138 C1137 1.411 1_556 S
C1139 C1140 1.369 . S
C1139 C1141 1.419 . S
C1139 H1143 0.930 . S
C1140 C1139 1.369 . S
C1140 C1149 1.429 . S
C1141 C1139 1.419 . S
C1141 C1142 1.363 . S
C1141 H1144 0.929 . S
C1142 C1141 1.363 . S
C1142 C1148 1.428 . S
H1143 C1139 0.930 . S
H1144 C1141 0.929 . S
S1145 N1146 1.613 . S
S1145 N1147 1.610 . S
N1146 S1145 1.613 . S
N1146 C1149 1.350 . S
N1147 S1145 1.610 . S
N1147 C1148 1.351 . S
C1148 C1142 1.428 . S
C1148 N1147 1.351 . S
C1148 C1149 1.434 . S
C1149 C1140 1.429 . S
C1149 N1146 1.350 . S
C1149 C1148 1.434 . S
C1150 C1151 1.369 . S
C1150 C1152 1.419 1_556 S
C1150 H1154 0.930 . S
C1151 C1150 1.369 . S
C1151 C1160 1.429 . S
C1152 C1150 1.419 1_554 S
C1152 C1153 1.363 . S
C1152 H1155 0.929 . S
C1153 C1152 1.363 . S
C1153 C1159 1.428 . S
H1154 C1150 0.930 . S
H1155 C1152 0.929 . S
S1156 N1157 1.613 1_554 S
S1156 N1158 1.610 . S
N1157 S1156 1.613 1_556 S
N1157 C1160 1.350 . S
N1158 S1156 1.610 . S
N1158 C1159 1.351 . S
C1159 C1153 1.428 . S
C1159 N1158 1.351 . S
C1159 C1160 1.434 1_554 S
C1160 C1151 1.429 . S
C1160 N1157 1.350 . S
C1160 C1159 1.434 1_556 S
C1161 C1162 1.369 . S
C1161 C1163 1.419 . S
C1161 H1165 0.930 . S
C1162 C1161 1.369 . S
C1162 C1171 1.429 . S
C1163 C1161 1.419 . S
C1163 C1164 1.363 . S
C1163 H1166 0.929 . S
C1164 C1163 1.363 . S
C1164 C1170 1.428 . S
H1165 C1161 0.930 . S
H1166 C1163 0.929 . S
S1167 N1168 1.613 . S
S1167 N1169 1.610 . S
N1168 S1167 1.613 . S
N1168 C1171 1.350 . S
N1169 S1167 1.610 . S
N1169 C1170 1.351 . S
C1170 C1164 1.428 . S
C1170 N1169 1.351 . S
C1170 C1171 1.434 . S
C1171 C1162 1.429 . S
C1171 N1168 1.350 . S
C1171 C1170 1.434 . S
C1172 C1173 1.369 . S
C1172 C1174 1.419 1_546 S
C1172 H1176 0.930 . S
C1173 C1172 1.369 . S
C1173 C1182 1.429 . S
C1174 C1172 1.419 1_564 S
C1174 C1175 1.363 . S
C1174 H1177 0.929 . S
C1175 C1174 1.363 . S
C1175 C1181 1.428 . S
H1176 C1172 0.930 . S
H1177 C1174 0.929 . S
S1178 N1179 1.613 . S
S1178 N1180 1.610 1_546 S
N1179 S1178 1.613 . S
N1179 C1182 1.350 . S
N1180 S1178 1.610 1_564 S
N1180 C1181 1.351 . S
C1181 C1175 1.428 . S
C1181 N1180 1.351 . S
C1181 C1182 1.434 1_564 S
C1182 C1173 1.429 . S
C1182 N1179 1.350 . S
C1182 C1181 1.434 1_546 S
C1183 C1184 1.369 . S
C1183 C1185 1.419 . S
C1183 H1187 0.930 . S
C1184 C1183 1.369 . S
C1184 C1193 1.429 . S
C1185 C1183 1.419 . S
C1185 C1186 1.363 . S
C1185 H1188 0.929 . S
C1186 C1185 1.363 . S
C1186 C1192 1.428 . S
H1187 C1183 0.930 . S
H1188 C1185 0.929 . S
S1189 N1190 1.613 . S
S1189 N1191 1.610 . S
N1190 S1189 1.613 . S
N1190 C1193 1.350 . S
N1191 S1189 1.610 . S
N1191 C1192 1.351 . S
C1192 C1186 1.428 . S
C1192 N1191 1.351 . S
C1192 C1193 1.434 . S
C1193 C1184 1.429 . S
C1193 N1190 1.350 . S
C1193 C1192 1.434 . S
C1194 C1195 1.369 . S
C1194 C1196 1.419 . S
C1194 H1198 0.930 . S
C1195 C1194 1.369 . S
C1195 C1204 1.429 . S
C1196 C1194 1.419 . S
C1196 C1197 1.363 . S
C1196 H1199 0.929 . S
C1197 C1196 1.363 . S
C1197 C1203 1.428 . S
H1198 C1194 0.930 . S
H1199 C1196 0.929 . S
S1200 N1201 1.613 . S
S1200 N1202 1.610 . S
N1201 S1200 1.613 . S
N1201 C1204 1.350 . S
N1202 S1200 1.610 . S
N1202 C1203 1.351 . S
C1203 C1197 1.428 . S
C1203 N1202 1.351 . S
C1203 C1204 1.434 . S
C1204 C1195 1.429 . S
C1204 N1201 1.350 . S
C1204 C1203 1.434 . S
C1205 C1206 1.369 . S
C1205 C1207 1.419 . S
C1205 H1209 0.930 . S
C1206 C1205 1.369 . S
C1206 C1215 1.429 . S
C1207 C1205 1.419 . S
C1207 C1208 1.363 . S
C1207 H1210 0.929 . S
C1208 C1207 1.363 . S
C1208 C1214 1.428 . S
H1209 C1205 0.930 . S
H1210 C1207 0.929 . S
S1211 N1212 1.613 . S
S1211 N1213 1.610 . S
N1212 S1211 1.613 . S
N1212 C1215 1.350 . S
N1213 S1211 1.610 . S
N1213 C1214 1.351 . S
C1214 C1208 1.428 . S
C1214 N1213 1.351 . S
C1214 C1215 1.434 . S
C1215 C1206 1.429 . S
C1215 N1212 1.350 . S
C1215 C1214 1.434 . S
C513 C16 0.977 . S
C515 C404 0.982 . S
C524 C20 0.981 . S
C526 C400 0.979 . S
C535 C48 0.979 . S
C537 C436 0.980 . S
C546 C52 0.977 . S
C548 C432 0.982 . S
C557 C464 0.981 . S
C559 C84 0.978 . S
C568 C80 0.982 . S
C570 C468 0.978 . S
C579 C116 0.982 . S
C581 C496 0.978 . S
C590 C112 0.980 . S
C592 C500 0.979 . S
C601 C276 0.981 . S
C603 C144 0.978 . S
C612 C272 0.980 . S
C614 C148 0.979 . S
C623 C308 0.977 . S
C625 C176 0.981 . S
C634 C304 0.975 . S
C636 C180 0.983 . S
C645 C336 0.978 . S
C647 C212 0.982 . S
C656 C208 0.982 . S
C658 C340 0.978 . S
C667 C368 0.981 . S
C669 C244 0.979 . S
C678 C240 0.981 . S
C680 C372 0.978 . S
C689 C23 1.663 . S
C691 C403 1.657 . S
C700 C19 1.659 1_655 S
C702 C407 1.659 . S
C711 C55 1.656 . S
C713 C435 1.662 . S
C722 C439 1.661 . S
C724 C51 1.658 1_655 S
C733 C471 1.660 . S
C735 C83 1.659 . S
C744 C467 1.656 . S
C746 C87 1.661 1_455 S
C755 C503 1.657 . S
C757 C115 1.661 . S
C766 C499 1.660 . S
C768 C119 1.658 1_455 S
C777 C151 1.663 . S
C779 C275 1.657 . S
C788 C147 1.663 1_655 S
C790 C279 1.657 . S
C799 C183 1.656 . S
C801 C307 1.661 . S
C810 C179 1.659 1_655 S
C812 C311 1.659 . S
C821 C343 1.663 . S
C823 C211 1.657 . S
C832 C339 1.661 . S
C834 C215 1.658 1_455 S
C843 C375 1.656 . S
C845 C243 1.662 . S
C854 C247 1.662 1_455 S
C856 C371 1.657 . S
C865 C22 1.969 . S
C867 C305 1.944 . S
C876 C310 1.967 . S
C878 C17 1.946 . S
C887 C273 1.949 . S
C889 C54 1.970 . S
C898 C278 1.972 . S
C900 C49 1.943 . S
C909 C373 1.942 . S
C911 C82 1.972 . S
C920 C85 1.949 . S
C922 C370 1.970 . S
C931 C114 1.971 . S
C933 C341 1.947 . S
C942 C117 1.946 . S
C944 C338 1.972 . S
C953 C433 1.942 . S
C955 C150 1.972 . S
C964 C145 1.943 . S
C966 C438 1.970 . S
C975 C182 1.973 . S
C977 C401 1.943 . S
C986 C406 1.973 . S
C988 C177 1.943 . S
C997 C501 1.944 . S
C999 C210 1.970 . S
C1008 C498 1.967 . S
C1010 C213 1.948 . S
C1019 C469 1.942 . S
C1021 C242 1.971 . S
C1030 C466 1.973 . S
C1032 C245 1.944 . S
C1041 C465 1.750 . S
C1043 C21 1.751 . S
C1052 C86 1.537 . S
C1054 C18 1.534 . S
C1063 C369 1.751 . S
C1065 C53 1.751 . S
C1074 C50 1.531 . S
C1076 C246 1.539 . S
C1085 C405 1.750 . S
C1087 C81 1.751 . S
C1096 C113 1.750 . S
C1098 C309 1.751 . S
C1107 C178 1.531 . S
C1109 C118 1.538 . S
C1118 C337 1.750 . S
C1120 C149 1.751 . S
C1129 C146 1.539 . S
C1131 C214 1.532 . S
C1140 C181 1.750 . S
C1142 C497 1.750 . S
C1151 C277 1.751 . S
C1153 C209 1.750 . S
C1162 C437 1.750 . S
C1164 C241 1.751 . S
C1173 C274 1.537 . S
C1175 C342 1.534 . S
C1184 C306 1.540 . S
C1186 C502 1.532 . S
C1195 C434 1.540 . S
C1197 C374 1.532 . S
C1206 C470 1.540 . S
C1208 C402 1.532 . S
