# Generated by pormake.
# Topology cag, (4)-cn, num edge types: 1
# Building blocks:
#     Node 0, Type 0, BuildingBlock: QUQFOY_clean_sbu_1, # of connection points: 4
#     Node 1, Type 0, BuildingBlock: QUQFOY_clean_sbu_1, # of connection points: 4
#     Node 2, Type 0, BuildingBlock: QUQFOY_clean_sbu_1, # of connection points: 4
#     Node 3, Type 0, BuildingBlock: QUQFOY_clean_sbu_1, # of connection points: 4
#     Node 4, Type 0, BuildingBlock: QUQFOY_clean_sbu_1, # of connection points: 4
#     Node 5, Type 0, BuildingBlock: QUQFOY_clean_sbu_1, # of connection points: 4
#     Node 6, Type 0, BuildingBlock: QUQFOY_clean_sbu_1, # of connection points: 4
#     Node 7, Type 0, BuildingBlock: QUQFOY_clean_sbu_1, # of connection points: 4
#     Node 8, Type 0, BuildingBlock: QUQFOY_clean_sbu_1, # of connection points: 4
#     Node 9, Type 0, BuildingBlock: QUQFOY_clean_sbu_1, # of connection points: 4
#     Node 10, Type 0, BuildingBlock: QUQFOY_clean_sbu_1, # of connection points: 4
#     Node 11, Type 0, BuildingBlock: QUQFOY_clean_sbu_1, # of connection points: 4
#     Node 12, Type 0, BuildingBlock: QUQFOY_clean_sbu_1, # of connection points: 4
#     Node 13, Type 0, BuildingBlock: QUQFOY_clean_sbu_1, # of connection points: 4
#     Node 14, Type 0, BuildingBlock: QUQFOY_clean_sbu_1, # of connection points: 4
#     Node 15, Type 0, BuildingBlock: QUQFOY_clean_sbu_1, # of connection points: 4
#     Edge 16, Type (0, 0), BuildingBlock: UVAHIK_clean_linker_0, # of connection points: 2
#     Edge 17, Type (0, 0), BuildingBlock: UVAHIK_clean_linker_0, # of connection points: 2
#     Edge 18, Type (0, 0), BuildingBlock: UVAHIK_clean_linker_0, # of connection points: 2
#     Edge 19, Type (0, 0), BuildingBlock: UVAHIK_clean_linker_0, # of connection points: 2
#     Edge 20, Type (0, 0), BuildingBlock: UVAHIK_clean_linker_0, # of connection points: 2
#     Edge 21, Type (0, 0), BuildingBlock: UVAHIK_clean_linker_0, # of connection points: 2
#     Edge 22, Type (0, 0), BuildingBlock: UVAHIK_clean_linker_0, # of connection points: 2
#     Edge 23, Type (0, 0), BuildingBlock: UVAHIK_clean_linker_0, # of connection points: 2
#     Edge 24, Type (0, 0), BuildingBlock: UVAHIK_clean_linker_0, # of connection points: 2
#     Edge 25, Type (0, 0), BuildingBlock: UVAHIK_clean_linker_0, # of connection points: 2
#     Edge 26, Type (0, 0), BuildingBlock: UVAHIK_clean_linker_0, # of connection points: 2
#     Edge 27, Type (0, 0), BuildingBlock: UVAHIK_clean_linker_0, # of connection points: 2
#     Edge 28, Type (0, 0), BuildingBlock: UVAHIK_clean_linker_0, # of connection points: 2
#     Edge 29, Type (0, 0), BuildingBlock: UVAHIK_clean_linker_0, # of connection points: 2
#     Edge 30, Type (0, 0), BuildingBlock: UVAHIK_clean_linker_0, # of connection points: 2
#     Edge 31, Type (0, 0), BuildingBlock: UVAHIK_clean_linker_0, # of connection points: 2
#     Edge 32, Type (0, 0), BuildingBlock: UVAHIK_clean_linker_0, # of connection points: 2
#     Edge 33, Type (0, 0), BuildingBlock: UVAHIK_clean_linker_0, # of connection points: 2
#     Edge 34, Type (0, 0), BuildingBlock: UVAHIK_clean_linker_0, # of connection points: 2
#     Edge 35, Type (0, 0), BuildingBlock: UVAHIK_clean_linker_0, # of connection points: 2
#     Edge 36, Type (0, 0), BuildingBlock: UVAHIK_clean_linker_0, # of connection points: 2
#     Edge 37, Type (0, 0), BuildingBlock: UVAHIK_clean_linker_0, # of connection points: 2
#     Edge 38, Type (0, 0), BuildingBlock: UVAHIK_clean_linker_0, # of connection points: 2
#     Edge 39, Type (0, 0), BuildingBlock: UVAHIK_clean_linker_0, # of connection points: 2
#     Edge 40, Type (0, 0), BuildingBlock: UVAHIK_clean_linker_0, # of connection points: 2
#     Edge 41, Type (0, 0), BuildingBlock: UVAHIK_clean_linker_0, # of connection points: 2
#     Edge 42, Type (0, 0), BuildingBlock: UVAHIK_clean_linker_0, # of connection points: 2
#     Edge 43, Type (0, 0), BuildingBlock: UVAHIK_clean_linker_0, # of connection points: 2
#     Edge 44, Type (0, 0), BuildingBlock: UVAHIK_clean_linker_0, # of connection points: 2
#     Edge 45, Type (0, 0), BuildingBlock: UVAHIK_clean_linker_0, # of connection points: 2
#     Edge 46, Type (0, 0), BuildingBlock: UVAHIK_clean_linker_0, # of connection points: 2
#     Edge 47, Type (0, 0), BuildingBlock: UVAHIK_clean_linker_0, # of connection points: 2
# Relax obj value: 0.138
# Max RMSD: 0.201
# Mean RMSD: 0.180
data_MOF--net-cag--node1-QUQFOY_clean_sbu_1--edge1-UVAHIK_clean_linker_0
_symmetry_space_group_name_H-M    P1
_symmetry_Int_Tables_number       1
_symmetry_cell_setting            triclinic
loop_
_symmetry_equiv_pos_as_xyz
'x, y, z'
_cell_length_a     53.731774
_cell_length_b     70.837968
_cell_length_c     53.517533
_cell_angle_alpha  90.011206
_cell_angle_beta   89.998428
_cell_angle_gamma 90.016865
loop_
_atom_site_label
_atom_site_type_symbol
_atom_site_fract_x
_atom_site_fract_y
_atom_site_fract_z
_atom_type_partial_charge
O0 O 0.26678 0.15484 0.10256 0.0
Cd1 Cd 0.28108 0.15601 0.06703 0.0
Cd2 Cd 0.27839 0.11608 0.07045 0.0
O3 O 0.26595 0.1238 0.10538 0.0
O4 O 0.28002 0.18343 0.05956 0.0
O5 O 0.25967 0.1623 0.03711 0.0
C6 C 0.26551 0.17974 0.04107 0.0
C7 C 0.25932 0.08899 0.05432 0.0
C8 C 0.26254 0.13997 0.11505 0.0
C9 C 0.32874 0.13369 0.06208 0.0
O10 O 0.31603 0.1186 0.06356 0.0
O11 O 0.31827 0.14974 0.06332 0.0
O12 O 0.27399 0.08831 0.07327 0.0
O13 O 0.25545 0.1052 0.04403 0.0
O14 O 0.22713 0.84546 0.60554 0.0
Cd15 Cd 0.21278 0.846 0.56988 0.0
Cd16 Cd 0.21824 0.88542 0.57669 0.0
O17 O 0.23379 0.87601 0.60943 0.0
O18 O 0.2125 0.8188 0.5611 0.0
O19 O 0.23455 0.83983 0.54016 0.0
C20 C 0.22789 0.82248 0.54333 0.0
C21 C 0.23692 0.91228 0.55957 0.0
C22 C 0.23493 0.85939 0.61821 0.0
C23 C 0.16641 0.86988 0.56897 0.0
O24 O 0.18 0.88415 0.57358 0.0
O25 O 0.17606 0.85366 0.56602 0.0
O26 O 0.22449 0.91295 0.58007 0.0
O27 O 0.23884 0.89619 0.5484 0.0
O28 O 0.2717 0.84688 0.89554 0.0
Cd29 Cd 0.28429 0.84741 0.9319 0.0
Cd30 Cd 0.27858 0.88634 0.92543 0.0
O31 O 0.26591 0.87751 0.89119 0.0
O32 O 0.28454 0.82027 0.94097 0.0
O33 O 0.26162 0.8413 0.96093 0.0
C34 C 0.26876 0.824 0.95837 0.0
C35 C 0.25775 0.91179 0.94371 0.0
C36 C 0.26521 0.86091 0.88229 0.0
C37 C 0.3302 0.87168 0.9356 0.0
O38 O 0.31653 0.88585 0.93082 0.0
O39 O 0.32078 0.85529 0.93745 0.0
O40 O 0.27118 0.91379 0.924 0.0
O41 O 0.25581 0.89509 0.95318 0.0
O42 O 0.22628 0.15229 0.39285 0.0
Cd43 Cd 0.21287 0.15262 0.42891 0.0
Cd44 Cd 0.21769 0.11356 0.42341 0.0
O45 O 0.23243 0.12163 0.3897 0.0
O46 O 0.21368 0.17993 0.43701 0.0
O47 O 0.2355 0.15879 0.45798 0.0
C48 C 0.22931 0.17621 0.45455 0.0
C49 C 0.23694 0.08803 0.44315 0.0
C50 C 0.23348 0.13808 0.38035 0.0
C51 C 0.16619 0.12934 0.43164 0.0
O52 O 0.17955 0.11494 0.42712 0.0
O53 O 0.17606 0.14554 0.43397 0.0
O54 O 0.22416 0.08596 0.42301 0.0
O55 O 0.23903 0.10484 0.45228 0.0
O56 O 0.65612 0.84175 0.90122 0.0
Cd57 Cd 0.64195 0.86593 0.88512 0.0
Cd58 Cd 0.6486 0.88087 0.93087 0.0
O59 O 0.66697 0.85569 0.93638 0.0
O60 O 0.64778 0.86401 0.84856 0.0
O61 O 0.66592 0.88546 0.87259 0.0
C62 C 0.6631 0.87795 0.85075 0.0
C63 C 0.66588 0.90831 0.94779 0.0
C64 C 0.66657 0.84114 0.92249 0.0
C65 C 0.59593 0.87721 0.91187 0.0
O66 O 0.61022 0.88058 0.93026 0.0
O67 O 0.60494 0.87202 0.89102 0.0
O68 O 0.65638 0.89537 0.96173 0.0
O69 O 0.66621 0.9055 0.92395 0.0
O70 O 0.83894 0.15959 0.40092 0.0
Cd71 Cd 0.85289 0.13568 0.38393 0.0
Cd72 Cd 0.84797 0.12047 0.42973 0.0
O73 O 0.82975 0.14554 0.4365 0.0
O74 O 0.84521 0.13744 0.34772 0.0
O75 O 0.82887 0.11574 0.37266 0.0
C76 C 0.83045 0.12323 0.35068 0.0
C77 C 0.83246 0.09278 0.44767 0.0
C78 C 0.82943 0.16011 0.42264 0.0
C79 C 0.89996 0.12469 0.40849 0.0
O80 O 0.88626 0.12096 0.4272 0.0
O81 O 0.89026 0.13008 0.38807 0.0
O82 O 0.84301 0.10568 0.4609 0.0
O83 O 0.82976 0.09589 0.42404 0.0
O84 O 0.65654 0.1576 0.09993 0.0
Cd85 Cd 0.64071 0.1343 0.11632 0.0
Cd86 Cd 0.64621 0.11847 0.07082 0.0
O87 O 0.66501 0.14347 0.06421 0.0
O88 O 0.64697 0.13617 0.15282 0.0
O89 O 0.66321 0.11382 0.12887 0.0
C90 C 0.66123 0.1216 0.15064 0.0
C91 C 0.66334 0.09043 0.05566 0.0
C92 C 0.66612 0.15794 0.07825 0.0
C93 C 0.59388 0.12387 0.09043 0.0
O94 O 0.60776 0.1188 0.0724 0.0
O95 O 0.6033 0.13015 0.11054 0.0
O96 O 0.6535 0.10271 0.04091 0.0
O97 O 0.66404 0.09428 0.07925 0.0
O98 O 0.83847 0.84063 0.59562 0.0
Cd99 Cd 0.85197 0.8643 0.61355 0.0
Cd100 Cd 0.84894 0.87999 0.56749 0.0
O101 O 0.83169 0.8547 0.5595 0.0
O102 O 0.84388 0.86155 0.64956 0.0
O103 O 0.82782 0.88394 0.62555 0.0
C104 C 0.82923 0.87588 0.64719 0.0
C105 C 0.83355 0.90751 0.54904 0.0
C106 C 0.83041 0.84013 0.57331 0.0
C107 C 0.89997 0.87594 0.59104 0.0
O108 O 0.88707 0.88011 0.57194 0.0
O109 O 0.88947 0.86988 0.61072 0.0
O110 O 0.84515 0.89488 0.53625 0.0
O111 O 0.82976 0.90422 0.57247 0.0
O112 O 0.77193 0.65172 0.1013 0.0
Cd113 Cd 0.78528 0.65276 0.06525 0.0
Cd114 Cd 0.78184 0.61332 0.06975 0.0
O115 O 0.76785 0.62084 0.10404 0.0
O116 O 0.78375 0.68017 0.05786 0.0
O117 O 0.76246 0.65898 0.03638 0.0
C118 C 0.76821 0.67645 0.04023 0.0
C119 C 0.76264 0.58744 0.05072 0.0
C120 C 0.76585 0.63715 0.11365 0.0
C121 C 0.83263 0.63024 0.06088 0.0
O122 O 0.81977 0.61547 0.06468 0.0
O123 O 0.82226 0.64634 0.05986 0.0
O124 O 0.77634 0.5856 0.07028 0.0
O125 O 0.75971 0.60419 0.04167 0.0
O126 O 0.72266 0.34726 0.60405 0.0
Cd127 Cd 0.71145 0.34804 0.56727 0.0
Cd128 Cd 0.71696 0.38717 0.57478 0.0
O129 O 0.72899 0.37777 0.60898 0.0
O130 O 0.71166 0.32086 0.5584 0.0
O131 O 0.73545 0.34183 0.53935 0.0
C132 C 0.72844 0.3245 0.54193 0.0
C133 C 0.73775 0.41354 0.55881 0.0
C134 C 0.72915 0.3611 0.61764 0.0
C135 C 0.66568 0.37232 0.56267 0.0
O136 O 0.67914 0.38642 0.56843 0.0
O137 O 0.67522 0.356 0.56043 0.0
O138 O 0.72379 0.41462 0.57826 0.0
O139 O 0.74011 0.3973 0.54811 0.0
O140 O 0.76929 0.34279 0.89385 0.0
Cd141 Cd 0.784 0.34319 0.92935 0.0
Cd142 Cd 0.77814 0.38291 0.9232 0.0
O143 O 0.76282 0.37341 0.89036 0.0
O144 O 0.78449 0.31601 0.93823 0.0
O145 O 0.76265 0.33709 0.95933 0.0
C146 C 0.76942 0.31975 0.95626 0.0
C147 C 0.75938 0.40998 0.93967 0.0
C148 C 0.76154 0.35685 0.88139 0.0
C149 C 0.83008 0.36749 0.93095 0.0
O150 O 0.81634 0.38175 0.92684 0.0
O151 O 0.82065 0.35113 0.93313 0.0
O152 O 0.77203 0.41041 0.91929 0.0
O153 O 0.75728 0.39401 0.9511 0.0
O154 O 0.72478 0.6514 0.39099 0.0
Cd155 Cd 0.71277 0.6524 0.42752 0.0
Cd156 Cd 0.71742 0.61332 0.42332 0.0
O157 O 0.73022 0.62063 0.38851 0.0
O158 O 0.71445 0.67979 0.435 0.0
O159 O 0.73648 0.65858 0.45565 0.0
C160 C 0.73057 0.67604 0.45208 0.0
C161 C 0.73777 0.58819 0.44288 0.0
C162 C 0.73107 0.63689 0.37859 0.0
C163 C 0.66626 0.62924 0.4332 0.0
O164 O 0.67953 0.61474 0.42897 0.0
O165 O 0.67611 0.64553 0.43416 0.0
O166 O 0.72396 0.58572 0.42352 0.0
O167 O 0.74026 0.60516 0.45134 0.0
O168 O 0.15776 0.34434 0.89817 0.0
Cd169 Cd 0.14331 0.3684 0.88206 0.0
Cd170 Cd 0.1481 0.38269 0.92824 0.0
O171 O 0.16701 0.35775 0.93416 0.0
O172 O 0.14965 0.36634 0.84558 0.0
O173 O 0.16704 0.38814 0.86958 0.0
C174 C 0.16468 0.38046 0.84779 0.0
C175 C 0.16507 0.41082 0.94322 0.0
C176 C 0.16752 0.34348 0.91975 0.0
C177 C 0.09615 0.37858 0.90772 0.0
O178 O 0.10972 0.38196 0.92665 0.0
O179 O 0.10601 0.37379 0.88709 0.0
O180 O 0.15552 0.39848 0.95809 0.0
O181 O 0.16558 0.40696 0.91963 0.0
O182 O 0.33904 0.65836 0.40113 0.0
Cd183 Cd 0.35377 0.63453 0.38457 0.0
Cd184 Cd 0.34769 0.61924 0.42992 0.0
O185 O 0.32875 0.64406 0.43621 0.0
O186 O 0.34749 0.63651 0.34806 0.0
O187 O 0.33026 0.61467 0.37212 0.0
C188 C 0.33261 0.6223 0.35031 0.0
C189 C 0.33061 0.59097 0.44437 0.0
C190 C 0.32871 0.65869 0.42248 0.0
C191 C 0.40021 0.6238 0.41099 0.0
O192 O 0.38607 0.62008 0.42938 0.0
O193 O 0.39098 0.62895 0.39023 0.0
O194 O 0.33986 0.60326 0.45949 0.0
O195 O 0.33045 0.59494 0.42081 0.0
O196 O 0.15945 0.65893 0.09885 0.0
Cd197 Cd 0.14501 0.63441 0.11367 0.0
Cd198 Cd 0.15125 0.62103 0.06719 0.0
O199 O 0.17063 0.64599 0.06312 0.0
O200 O 0.15079 0.63548 0.15031 0.0
O201 O 0.16883 0.61452 0.12549 0.0
C202 C 0.16608 0.62158 0.1476 0.0
C203 C 0.16798 0.59347 0.0502 0.0
C204 C 0.17027 0.66009 0.07781 0.0
C205 C 0.0987 0.62469 0.08641 0.0
O206 O 0.11283 0.62194 0.06772 0.0
O207 O 0.10793 0.62884 0.10756 0.0
O208 O 0.1591 0.60666 0.03624 0.0
O209 O 0.168 0.59611 0.07409 0.0
O210 O 0.33958 0.34132 0.59567 0.0
Cd211 Cd 0.35371 0.36552 0.61178 0.0
Cd212 Cd 0.34721 0.3805 0.56615 0.0
O213 O 0.32889 0.3553 0.5605 0.0
O214 O 0.34726 0.36403 0.64828 0.0
O215 O 0.32969 0.38528 0.62352 0.0
C216 C 0.33209 0.37802 0.64556 0.0
C217 C 0.32987 0.40795 0.5494 0.0
C218 C 0.32922 0.34073 0.57435 0.0
C219 C 0.39985 0.37682 0.58528 0.0
O220 O 0.3856 0.38026 0.56689 0.0
O221 O 0.39078 0.37157 0.60608 0.0
O222 O 0.33947 0.3951 0.53538 0.0
O223 O 0.3295 0.40504 0.57322 0.0
C224 C 0.26192 0.21399 0.03124 0.0
C225 C 0.25605 0.19522 0.02517 0.0
C226 C 0.25328 0.22885 0.01657 0.0
C227 C 0.20476 0.24182 0.97125 0.0
H228 H 0.24757 0.28532 0.96154 0.0
C229 C 0.17492 0.30863 0.91573 0.0
C230 C 0.1791 0.32572 0.92845 0.0
C231 C 0.18515 0.29176 0.92465 0.0
C232 C 0.23541 0.27327 0.96412 0.0
H233 H 0.23644 0.1773 0.99888 0.0
H234 H 0.22144 0.20341 0.97291 0.0
H235 H 0.264 0.2572 0.9819 0.0
H236 H 0.19764 0.33856 0.96022 0.0
H237 H 0.21565 0.30921 0.97555 0.0
H238 H 0.17612 0.25811 0.95353 0.0
C239 C 0.2326 0.20657 0.98924 0.0
C240 C 0.24477 0.25719 0.97583 0.0
C241 C 0.24125 0.19162 0.00403 0.0
C242 C 0.19404 0.32564 0.95 0.0
C243 C 0.20448 0.30886 0.9587 0.0
C244 C 0.19544 0.25791 0.95933 0.0
C245 C 0.23863 0.22535 0.99533 0.0
C246 C 0.22938 0.24146 0.98015 0.0
C247 C 0.20003 0.29174 0.94622 0.0
C248 C 0.21053 0.27395 0.95622 0.0
H249 H 0.27313 0.2173 0.04748 0.0
H250 H 0.25781 0.24314 0.02216 0.0
H251 H 0.19237 0.23 0.97444 0.0
H252 H 0.16343 0.30822 0.89911 0.0
H253 H 0.18153 0.27876 0.91463 0.0
C254 C 0.32175 0.69372 0.42002 0.0
C255 C 0.31751 0.67635 0.43203 0.0
C256 C 0.31263 0.71052 0.4303 0.0
C257 C 0.29149 0.72998 0.49079 0.0
H258 H 0.26295 0.77017 0.45076 0.0
C259 C 0.23248 0.78818 0.53425 0.0
C260 C 0.23813 0.80696 0.52797 0.0
C261 C 0.24305 0.77327 0.52105 0.0
C262 C 0.27115 0.75913 0.46208 0.0
H263 H 0.29943 0.66293 0.46364 0.0
H264 H 0.28311 0.69202 0.48116 0.0
H265 H 0.27934 0.74185 0.43022 0.0
H266 H 0.25873 0.82483 0.50237 0.0
H267 H 0.27711 0.79848 0.47893 0.0
H268 H 0.2828 0.74698 0.52262 0.0
C269 C 0.29407 0.69279 0.4642 0.0
C270 C 0.28054 0.74294 0.45037 0.0
C271 C 0.30329 0.67608 0.45405 0.0
C272 C 0.25409 0.8105 0.50767 0.0
C273 C 0.26453 0.79547 0.49423 0.0
C274 C 0.28199 0.74603 0.50242 0.0
C275 C 0.29901 0.71026 0.45274 0.0
C276 C 0.29039 0.72803 0.46467 0.0
C277 C 0.25939 0.77673 0.50113 0.0
C278 C 0.27134 0.7606 0.48826 0.0
H279 H 0.33267 0.69441 0.40303 0.0
H280 H 0.31686 0.72374 0.42107 0.0
H281 H 0.2996 0.71904 0.50232 0.0
H282 H 0.2202 0.78493 0.54971 0.0
H283 H 0.23847 0.75895 0.52651 0.0
C284 C 0.2667 0.78999 0.96999 0.0
C285 C 0.2593 0.80868 0.97458 0.0
C286 C 0.25797 0.77529 0.98487 0.0
C287 C 0.20709 0.76195 0.02731 0.0
H288 H 0.2512 0.71998 0.04168 0.0
C289 C 0.17637 0.69506 0.08224 0.0
C290 C 0.18201 0.67802 0.06998 0.0
C291 C 0.18661 0.7121 0.07391 0.0
C292 C 0.23869 0.73161 0.03783 0.0
H293 H 0.23694 0.82665 0.9985 0.0
H294 H 0.22179 0.80081 0.02486 0.0
H295 H 0.26768 0.74818 0.02155 0.0
H296 H 0.20323 0.66545 0.03977 0.0
H297 H 0.22129 0.69509 0.02552 0.0
H298 H 0.17807 0.74513 0.0435 0.0
C299 C 0.23421 0.79758 0.00951 0.0
C300 C 0.24807 0.74774 0.02623 0.0
C301 C 0.24295 0.81237 0.99449 0.0
C302 C 0.19848 0.67832 0.0496 0.0
C303 C 0.20894 0.69528 0.04152 0.0
C304 C 0.19774 0.74582 0.03913 0.0
C305 C 0.2417 0.77886 0.00487 0.0
C306 C 0.23226 0.76288 0.02016 0.0
C307 C 0.20298 0.71235 0.05345 0.0
C308 C 0.21334 0.73032 0.04388 0.0
H309 H 0.27914 0.78661 0.95471 0.0
H310 H 0.26368 0.76102 0.98037 0.0
H311 H 0.19438 0.77329 0.02276 0.0
H312 H 0.16368 0.6953 0.09797 0.0
H313 H 0.18179 0.72507 0.08348 0.0
C314 C 0.30466 0.32282 0.54261 0.0
C315 C 0.31846 0.32287 0.5649 0.0
C316 C 0.29593 0.30593 0.53251 0.0
C317 C 0.28252 0.25591 0.54675 0.0
H318 H 0.28654 0.25126 0.47464 0.0
C319 C 0.25577 0.18814 0.49005 0.0
C320 C 0.24019 0.19172 0.46947 0.0
C321 C 0.26652 0.20314 0.50332 0.0
C322 C 0.28526 0.25237 0.4948 0.0
H323 H 0.33334 0.30521 0.59446 0.0
H324 H 0.3183 0.27556 0.57655 0.0
H325 H 0.30297 0.27934 0.49496 0.0
H326 H 0.22341 0.21381 0.44694 0.0
H327 H 0.24222 0.23972 0.46983 0.0
H328 H 0.26473 0.22875 0.54632 0.0
C329 C 0.31407 0.28867 0.56704 0.0
C330 C 0.29456 0.26849 0.50644 0.0
C331 C 0.32274 0.30565 0.57725 0.0
C332 C 0.23537 0.21052 0.46264 0.0
C333 C 0.24625 0.22539 0.47567 0.0
C334 C 0.27332 0.23965 0.53505 0.0
C335 C 0.30092 0.28862 0.54432 0.0
C336 C 0.29277 0.27068 0.53248 0.0
C337 C 0.2621 0.22189 0.49597 0.0
C338 C 0.27411 0.23797 0.5089 0.0
H339 H 0.30078 0.33584 0.53274 0.0
H340 H 0.28532 0.30645 0.51532 0.0
H341 H 0.28081 0.25719 0.56685 0.0
H342 H 0.25977 0.17379 0.49578 0.0
H343 H 0.27871 0.20009 0.51892 0.0
C344 C 0.76134 0.71076 0.03291 0.0
C345 C 0.75698 0.69199 0.02564 0.0
C346 C 0.75021 0.72564 0.02013 0.0
C347 C 0.72327 0.74016 0.96079 0.0
H348 H 0.69288 0.77927 0.0013 0.0
C349 C 0.67328 0.8061 0.91927 0.0
C350 C 0.67738 0.82326 0.93184 0.0
C351 C 0.68204 0.7891 0.92931 0.0
C352 C 0.70149 0.76858 0.98971 0.0
H353 H 0.73793 0.67412 0.99885 0.0
H354 H 0.71855 0.70042 0.97615 0.0
H355 H 0.70957 0.75116 0.02129 0.0
H356 H 0.69477 0.83611 0.96425 0.0
H357 H 0.71037 0.80669 0.9814 0.0
H358 H 0.71571 0.7579 0.92921 0.0
C359 C 0.73057 0.70345 0.99189 0.0
C360 C 0.71094 0.75244 0.00116 0.0
C361 C 0.74158 0.68844 0.00491 0.0
C362 C 0.69104 0.82314 0.95421 0.0
C363 C 0.69985 0.80622 0.96415 0.0
C364 C 0.71391 0.75643 0.94928 0.0
C365 C 0.73456 0.72217 -0.00035 0.0
C366 C 0.72237 0.73825 0.9869 0.0
C367 C 0.69508 0.78897 0.95209 0.0
C368 C 0.70339 0.771 0.96371 0.0
H369 H 0.77314 0.71402 0.04874 0.0
H370 H 0.75391 0.73995 0.02628 0.0
H371 H 0.73208 0.72943 0.9494 0.0
H372 H 0.66279 0.80571 0.90199 0.0
H373 H 0.67799 0.77604 0.91962 0.0
C374 C 0.82283 0.19517 0.42007 0.0
C375 C 0.81883 0.17792 0.43244 0.0
C376 C 0.81421 0.21209 0.43043 0.0
C377 C 0.79458 0.2322 0.49117 0.0
H378 H 0.76499 0.27187 0.45102 0.0
C379 C 0.73455 0.29019 0.53396 0.0
C380 C 0.73966 0.30898 0.5273 0.0
C381 C 0.74567 0.2753 0.52118 0.0
C382 C 0.77351 0.26099 0.46236 0.0
H383 H 0.80178 0.16483 0.46486 0.0
H384 H 0.78628 0.19413 0.48251 0.0
H385 H 0.78118 0.24343 0.43066 0.0
H386 H 0.76006 0.32689 0.5016 0.0
H387 H 0.77937 0.30057 0.47882 0.0
H388 H 0.78626 0.24945 0.52288 0.0
C389 C 0.79668 0.19473 0.46519 0.0
C390 C 0.78278 0.24472 0.45076 0.0
C391 C 0.80542 0.17788 0.45496 0.0
C392 C 0.75582 0.31255 0.50717 0.0
C393 C 0.76678 0.29754 0.49412 0.0
C394 C 0.78516 0.24832 0.50272 0.0
C395 C 0.80132 0.21208 0.4533 0.0
C396 C 0.79299 0.22998 0.46511 0.0
C397 C 0.76203 0.27879 0.50128 0.0
C398 C 0.77413 0.2627 0.4885 0.0
H399 H 0.83316 0.19567 0.4027 0.0
H400 H 0.81821 0.22521 0.42086 0.0
H401 H 0.80295 0.22139 0.50274 0.0
H402 H 0.72218 0.28692 0.54934 0.0
H403 H 0.74142 0.26097 0.52686 0.0
C404 C 0.76624 0.28558 0.96679 0.0
C405 C 0.76003 0.30436 0.97238 0.0
C406 C 0.75716 0.2708 0.98133 0.0
C407 C 0.70688 0.25837 0.02516 0.0
H408 H 0.74825 0.21423 0.03593 0.0
C409 C 0.67457 0.19268 0.08141 0.0
C410 C 0.67823 0.17536 0.06907 0.0
C411 C 0.68537 0.20923 0.07219 0.0
C412 C 0.73649 0.22645 0.03303 0.0
H413 H 0.73957 0.32242 0.99784 0.0
H414 H 0.72393 0.29647 0.02366 0.0
H415 H 0.76592 0.24206 0.0159 0.0
H416 H 0.69641 0.1618 0.03763 0.0
H417 H 0.71548 0.19065 0.02177 0.0
H418 H 0.67745 0.24259 0.04238 0.0
C419 C 0.7356 0.29321 0.00775 0.0
C420 C 0.74656 0.24238 0.0215 0.0
C421 C 0.74464 0.30807 0.99304 0.0
C422 C 0.6932 0.1749 0.04755 0.0
C423 C 0.70424 0.19139 0.03855 0.0
C424 C 0.69688 0.24246 0.03694 0.0
C425 C 0.74176 0.27439 0.002 0.0
C426 C 0.73172 0.25836 0.01685 0.0
C427 C 0.70032 0.20873 0.05068 0.0
C428 C 0.71145 0.22622 0.04047 0.0
H429 H 0.77792 0.28219 0.9509 0.0
H430 H 0.76185 0.25648 0.97598 0.0
H431 H 0.69487 0.27035 0.02168 0.0
H432 H 0.66307 0.1935 0.098 0.0
H433 H 0.68216 0.22241 0.08194 0.0
C434 C 0.82294 0.80517 0.57582 0.0
C435 C 0.82032 0.82235 0.5629 0.0
C436 C 0.81465 0.78826 0.56514 0.0
C437 C 0.79853 0.76765 0.5036 0.0
H438 H 0.76472 0.72929 0.54264 0.0
C439 C 0.73877 0.71029 0.45859 0.0
C440 C 0.7422 0.69154 0.46643 0.0
C441 C 0.75002 0.72512 0.4714 0.0
C442 C 0.77443 0.73979 0.53162 0.0
H443 H 0.80618 0.8353 0.52902 0.0
H444 H 0.79124 0.80603 0.51075 0.0
H445 H 0.78064 0.75766 0.56332 0.0
H446 H 0.75983 0.67366 0.49414 0.0
H447 H 0.77932 0.69988 0.51694 0.0
H448 H 0.79165 0.75008 0.47182 0.0
C449 C 0.80031 0.80548 0.52882 0.0
C450 C 0.78356 0.75602 0.54341 0.0
C451 C 0.80871 0.82231 0.53939 0.0
C452 C 0.75691 0.68796 0.48764 0.0
C453 C 0.76797 0.70292 0.50072 0.0
C454 C 0.78925 0.75156 0.49184 0.0
C455 C 0.80348 0.78821 0.54137 0.0
C456 C 0.79529 0.7703 0.52943 0.0
C457 C 0.76479 0.72162 0.49251 0.0
C458 C 0.77673 0.73764 0.50563 0.0
H459 H 0.83187 0.80471 0.59395 0.0
H460 H 0.81752 0.7752 0.57524 0.0
H461 H 0.80807 0.7781 0.49236 0.0
H462 H 0.72757 0.71355 0.44233 0.0
H463 H 0.74699 0.73942 0.46487 0.0
C464 C 0.2445 0.05614 0.06089 0.0
C465 C 0.24816 0.07144 0.04465 0.0
C466 C 0.2371 0.03861 0.05166 0.0
C467 C 0.21593 0.0131 0.99422 0.0
H468 H 0.25361 0.97212 0.02383 0.0
C469 C 0.24506 0.94561 0.94242 0.0
C470 C 0.2464 0.9285 0.95564 0.0
C471 C 0.23781 0.96219 0.95444 0.0
C472 C 0.24248 0.98328 0.01566 0.0
H473 H 0.24578 0.08079 0.00623 0.0
H474 H 0.23393 0.04989 0.98976 0.0
H475 H 0.25502 0.00316 0.04272 0.0
H476 H 0.2397 0.91508 0.99141 0.0
H477 H 0.22727 0.94425 0.01259 0.0
H478 H 0.2047 0.99315 0.96623 0.0
C479 C 0.23612 0.05148 0.00976 0.0
C480 C 0.24325 0.00116 0.02652 0.0
C481 C 0.24305 0.06919 0.01912 0.0
C482 C 0.23892 0.92808 0.98078 0.0
C483 C 0.2319 0.94476 0.99291 0.0
C484 C 0.21536 0.99519 0.98319 0.0
C485 C 0.23378 0.03583 0.02586 0.0
C486 C 0.23039 0.01642 0.0157 0.0
C487 C 0.23195 0.96206 0.98 0.0
C488 C 0.22906 0.98019 0.99355 0.0
H489 H 0.24791 0.05761 0.08076 0.0
H490 H 0.23476 0.02708 0.06473 0.0
H491 H 0.20545 0.02442 0.98561 0.0
H492 H 0.25052 0.94635 0.92296 0.0
H493 H 0.23825 0.9753 0.94403 0.0
C494 C 0.25149 0.93172 0.52327 0.0
C495 C 0.24758 0.92975 0.54906 0.0
C496 C 0.25807 0.94928 0.51325 0.0
C497 C 0.25174 0.99976 0.52894 0.0
H498 H 0.28869 0.0068 0.46744 0.0
C499 C 0.25518 0.07214 0.48083 0.0
C500 C 0.24764 0.07135 0.45573 0.0
C501 C 0.26207 0.05562 0.49342 0.0
C502 C 0.27844 0.00505 0.48471 0.0
H503 H 0.24956 0.94404 0.58483 0.0
H504 H 0.26193 0.97436 0.56756 0.0
H505 H 0.28842 0.97585 0.48765 0.0
H506 H 0.24308 0.05295 0.42363 0.0
H507 H 0.25505 0.02429 0.4455 0.0
H508 H 0.24126 0.02875 0.52572 0.0
C509 C 0.259 0.96266 0.55488 0.0
C510 C 0.27818 0.98731 0.49622 0.0
C511 C 0.25204 0.94524 0.56481 0.0
C512 C 0.2486 0.05399 0.44305 0.0
C513 C 0.25569 0.03757 0.45552 0.0
C514 C 0.25217 0.01747 0.51756 0.0
C515 C 0.26121 0.9651 0.5289 0.0
C516 C 0.26431 0.98434 0.51817 0.0
C517 C 0.2618 0.0381 0.48102 0.0
C518 C 0.26499 0.02019 0.495 0.0
H519 H 0.24815 0.91998 0.51073 0.0
H520 H 0.2594 0.95063 0.49314 0.0
H521 H 0.24046 0.998 0.54554 0.0
H522 H 0.2547 0.08533 0.49105 0.0
H523 H 0.26689 0.05646 0.51304 0.0
C524 C 0.67705 0.94258 0.94439 0.0
C525 C 0.67448 0.92623 0.95899 0.0
C526 C 0.68171 0.96004 0.95574 0.0
C527 C 0.67261 0.9836 0.01657 0.0
H528 H 0.70967 0.02428 0.98553 0.0
C529 C 0.67799 0.05714 0.06195 0.0
C530 C 0.67205 0.07209 0.04577 0.0
C531 C 0.68331 0.0392 0.05239 0.0
C532 C 0.69927 0.01304 0.99442 0.0
H533 H 0.67655 0.91505 0.99665 0.0
H534 H 0.68539 0.94527 0.01631 0.0
H535 H 0.71017 0.99286 0.96667 0.0
H536 H 0.66833 0.08021 0.00685 0.0
H537 H 0.67756 0.04901 0.99025 0.0
H538 H 0.66135 0.00379 0.04403 0.0
C539 C 0.68303 0.94482 0.99622 0.0
C540 C 0.69949 0.99505 0.98358 0.0
C541 C 0.67811 0.92746 0.98493 0.0
C542 C 0.67274 0.06897 0.01984 0.0
C543 C 0.6782 0.05111 0.01029 0.0
C544 C 0.67251 0.00151 0.02744 0.0
C545 C 0.68413 0.96143 0.98189 0.0
C546 C 0.68584 0.98018 0.99434 0.0
C547 C 0.68298 0.03592 0.02646 0.0
C548 C 0.6855 0.0165 0.01629 0.0
H549 H 0.67428 0.94207 0.92436 0.0
H550 H 0.68224 0.97254 0.94412 0.0
H551 H 0.66146 0.97263 0.02514 0.0
H552 H 0.67767 0.05911 0.08202 0.0
H553 H 0.68719 0.0278 0.0653 0.0
C554 C 0.83411 0.07022 0.48335 0.0
C555 C 0.8257 0.07449 0.45913 0.0
C556 C 0.83073 0.05223 0.49333 0.0
C557 C 0.79556 0.00898 0.4928 0.0
H558 H 0.85851 0.98438 0.50717 0.0
C559 C 0.81243 0.93919 0.55024 0.0
C560 C 0.82675 0.92572 0.53737 0.0
C561 C 0.8085 0.95713 0.53991 0.0
C562 C 0.84082 0.99111 0.50326 0.0
H563 H 0.80586 0.06355 0.42694 0.0
H564 H 0.79947 0.03197 0.44484 0.0
H565 H 0.85822 0.01676 0.49138 0.0
H566 H 0.84735 0.92024 0.50321 0.0
H567 H 0.84101 0.9516 0.48569 0.0
H568 H 0.77823 0.98327 0.50533 0.0
C569 C 0.80885 0.04266 0.45584 0.0
C570 C 0.84065 0.00958 0.49433 0.0
C571 C 0.8126 0.06065 0.44562 0.0
C572 C 0.83625 0.93028 0.51365 0.0
C573 C 0.83268 0.94822 0.50358 0.0
C574 C 0.79571 0.99053 0.5023 0.0
C575 C 0.8185 0.03822 0.47951 0.0
C576 C 0.81807 0.01864 0.48895 0.0
C577 C 0.81917 0.96188 0.5168 0.0
C578 C 0.81839 0.98146 0.5074 0.0
H579 H 0.84426 0.08054 0.49429 0.0
H580 H 0.83826 0.04909 0.51166 0.0
H581 H 0.77796 0.01578 0.48879 0.0
H582 H 0.80483 0.93607 0.56853 0.0
H583 H 0.79812 0.96754 0.55045 0.0
C584 C 0.74516 0.43001 0.97551 0.0
C585 C 0.74871 0.42758 0.94974 0.0
C586 C 0.73875 0.44775 0.98508 0.0
C587 C 0.74501 0.49793 0.9676 0.0
H588 H 0.70972 0.50615 0.02982 0.0
C589 C 0.74331 0.57107 0.01393 0.0
C590 C 0.75168 0.57058 0.03878 0.0
C591 C 0.73598 0.55441 0.00194 0.0
C592 C 0.71948 0.50406 0.01233 0.0
H593 H 0.74622 0.44119 0.91356 0.0
H594 H 0.73408 0.47182 0.93004 0.0
H595 H 0.7092 0.47488 0.01049 0.0
H596 H 0.75731 0.55258 0.07109 0.0
H597 H 0.74452 0.52367 0.05026 0.0
H598 H 0.75578 0.52693 0.96972 0.0
C599 C 0.73719 0.46036 0.94305 0.0
C600 C 0.71931 0.48615 0.00132 0.0
C601 C 0.74402 0.44277 0.93358 0.0
C602 C 0.75115 0.55338 0.05185 0.0
C603 C 0.74359 0.53682 0.03998 0.0
C604 C 0.745 0.51583 0.97847 0.0
C605 C 0.73542 0.46329 0.96897 0.0
C606 C 0.73262 0.48274 0.97914 0.0
C607 C 0.73659 0.53705 0.01472 0.0
C608 C 0.73281 0.51897 0.00128 0.0
H609 H 0.74871 0.41851 0.98837 0.0
H610 H 0.73775 0.44948 0.00515 0.0
H611 H 0.75587 0.49585 0.95079 0.0
H612 H 0.74345 0.58415 0.00344 0.0
H613 H 0.73049 0.55499 0.98248 0.0
C614 C 0.75386 0.44616 0.56464 0.0
C615 C 0.74944 0.43076 0.54873 0.0
C616 C 0.76139 0.46351 0.55494 0.0
C617 C 0.78131 0.48824 0.49644 0.0
H618 H 0.74424 0.52967 0.52578 0.0
C619 C 0.75017 0.5543 0.44295 0.0
C620 C 0.74916 0.57175 0.45541 0.0
C621 C 0.7578 0.53806 0.45549 0.0
C622 C 0.7552 0.51839 0.51766 0.0
H623 H 0.75071 0.42105 0.5104 0.0
H624 H 0.76286 0.4516 0.49317 0.0
H625 H 0.74355 0.49898 0.54571 0.0
H626 H 0.7567 0.58609 0.49037 0.0
H627 H 0.76977 0.5575 0.51253 0.0
H628 H 0.79162 0.50767 0.4675 0.0
C629 C 0.76113 0.45022 0.51325 0.0
C630 C 0.75485 0.50071 0.52912 0.0
C631 C 0.75404 0.43271 0.52306 0.0
C632 C 0.75722 0.57282 0.48033 0.0
C633 C 0.76461 0.55647 0.49301 0.0
C634 C 0.78146 0.50594 0.48483 0.0
C635 C 0.76413 0.466 0.52902 0.0
C636 C 0.76743 0.48528 0.51838 0.0
C637 C 0.76438 0.53885 0.48086 0.0
C638 C 0.76792 0.52107 0.49504 0.0
H639 H 0.75083 0.44494 0.58459 0.0
H640 H 0.76423 0.47516 0.56773 0.0
H641 H 0.79158 0.47679 0.48788 0.0
H642 H 0.74426 0.55306 0.42366 0.0
H643 H 0.75717 0.52469 0.44568 0.0
C644 C 0.17876 0.55912 0.05362 0.0
C645 C 0.17624 0.57546 0.03898 0.0
C646 C 0.18327 0.54163 0.04233 0.0
C647 C 0.1739 0.51785 0.98169 0.0
H648 H 0.21123 0.47735 0.01278 0.0
C649 C 0.17938 0.44417 0.9367 0.0
C650 C 0.17365 0.42924 0.95299 0.0
C651 C 0.18461 0.46216 0.94614 0.0
C652 C 0.20075 0.48854 0.00388 0.0
H653 H 0.17817 0.58653 0.00125 0.0
H654 H 0.1867 0.55622 0.98168 0.0
H655 H 0.21174 0.50884 0.03145 0.0
H656 H 0.17019 0.42121 0.99196 0.0
H657 H 0.17926 0.45251 0.00836 0.0
H658 H 0.16256 0.49755 0.95441 0.0
C659 C 0.18445 0.55674 0.00178 0.0
C660 C 0.20097 0.50656 0.01461 0.0
C661 C 0.1797 0.57415 0.01302 0.0
C662 C 0.17444 0.43243 0.9789 0.0
C663 C 0.17981 0.45036 0.98832 0.0
C664 C 0.17379 0.4999 0.97093 0.0
C665 C 0.18556 0.54017 0.01619 0.0
C666 C 0.18724 0.52137 0.00384 0.0
C667 C 0.1844 0.46552 0.97205 0.0
C668 C 0.18688 0.48497 0.98211 0.0
H669 H 0.17612 0.55969 0.07367 0.0
H670 H 0.1838 0.52915 0.05401 0.0
H671 H 0.1627 0.52878 0.97312 0.0
H672 H 0.17899 0.44214 0.91664 0.0
H673 H 0.18835 0.47354 0.93315 0.0
C674 C 0.3209 0.56914 0.4797 0.0
C675 C 0.32202 0.57247 0.45383 0.0
C676 C 0.31562 0.55113 0.48888 0.0
C677 C 0.32267 0.50176 0.47107 0.0
H678 H 0.28427 0.49212 0.5311 0.0
C679 C 0.31787 0.42729 0.51236 0.0
C680 C 0.32118 0.42589 0.53833 0.0
C681 C 0.3128 0.44469 0.50126 0.0
C682 C 0.29516 0.4946 0.51439 0.0
H683 H 0.31733 0.55973 0.41729 0.0
H684 H 0.30811 0.52818 0.43338 0.0
H685 H 0.28437 0.52371 0.51272 0.0
H686 H 0.32067 0.44145 0.57319 0.0
H687 H 0.31242 0.47199 0.55377 0.0
H688 H 0.33429 0.47301 0.47311 0.0
C689 C 0.31153 0.53952 0.44653 0.0
C690 C 0.29515 0.51267 0.50383 0.0
C691 C 0.31667 0.55759 0.43732 0.0
C692 C 0.31815 0.4421 0.55313 0.0
C693 C 0.31332 0.45959 0.54197 0.0
C694 C 0.32279 0.48377 0.48166 0.0
C695 C 0.31146 0.53602 0.47241 0.0
C696 C 0.30918 0.5165 0.48223 0.0
C697 C 0.31121 0.46116 0.51583 0.0
C698 C 0.30929 0.47999 0.50363 0.0
H699 H 0.32485 0.58032 0.49293 0.0
H700 H 0.31595 0.54888 0.5089 0.0
H701 H 0.33404 0.50432 0.4547 0.0
H702 H 0.3198 0.41499 0.50048 0.0
H703 H 0.31069 0.44529 0.48115 0.0
C704 C 0.55557 0.11118 0.06979 0.0
C705 C 0.56658 0.12333 0.08738 0.0
C706 C 0.52984 0.11144 0.06596 0.0
C707 C 0.47723 0.14249 0.06692 0.0
H708 H 0.43569 0.0983 0.07634 0.0
C709 C 0.37061 0.14799 0.06898 0.0
C710 C 0.35618 0.13262 0.06098 0.0
C711 C 0.39646 0.14653 0.07035 0.0
C712 C 0.44701 0.1107 0.07307 0.0
H713 H 0.55936 0.14519 0.11483 0.0
H714 H 0.51442 0.146 0.10752 0.0
H715 H 0.48059 0.09595 0.08259 0.0
H716 H 0.35754 0.10389 0.04712 0.0
H717 H 0.4028 0.10159 0.0483 0.0
H718 H 0.44417 0.15722 0.05658 0.0
C719 C 0.52574 0.13616 0.09699 0.0
C720 C 0.47269 0.10933 0.07687 0.0
C721 C 0.55137 0.13561 0.10124 0.0
C722 C 0.36819 0.11594 0.05352 0.0
C723 C 0.39414 0.11459 0.05442 0.0
C724 C 0.45168 0.14379 0.06259 0.0
C725 C 0.51483 0.12415 0.07925 0.0
C726 C 0.48789 0.12529 0.0742 0.0
C727 C 0.40861 0.12977 0.06327 0.0
C728 C 0.43612 0.12799 0.06602 0.0
H729 H 0.56685 0.10153 0.05891 0.0
H730 H 0.52174 0.10208 0.05216 0.0
H731 H 0.48874 0.15491 0.06443 0.0
H732 H 0.36188 0.16098 0.07513 0.0
H733 H 0.40677 0.15841 0.07775 0.0
C734 C 0.93903 0.88396 0.56787 0.0
C735 C 0.92742 0.87751 0.58982 0.0
C736 C 0.96493 0.88445 0.56603 0.0
C737 C 0.0209 0.86243 0.59247 0.0
H738 H 0.05519 0.90304 0.55814 0.0
C739 C 0.12372 0.85614 0.56428 0.0
C740 C 0.13899 0.87189 0.56879 0.0
C741 C 0.0979 0.85759 0.56635 0.0
C742 C 0.04591 0.89166 0.56792 0.0
H743 H 0.934 0.86701 0.62733 0.0
H744 H 0.97928 0.86804 0.62417 0.0
H745 H 0.01025 0.90486 0.56431 0.0
H746 H 0.13899 0.90169 0.57827 0.0
H747 H 0.09391 0.90416 0.58203 0.0
H748 H 0.05654 0.84935 0.5964 0.0
C749 C 0.96828 0.87246 0.60826 0.0
C750 C 0.02014 0.89262 0.57126 0.0
C751 C 0.94233 0.87198 0.61011 0.0
C752 C 0.12778 0.88928 0.57464 0.0
C753 C 0.10193 0.89072 0.57672 0.0
C754 C 0.04663 0.86147 0.58911 0.0
C755 C 0.97985 0.87851 0.58609 0.0
C756 C 0.00734 0.87796 0.58347 0.0
C757 C 0.08674 0.87482 0.57299 0.0
C758 C 0.0594 0.87601 0.57666 0.0
H759 H 0.92813 0.88834 0.55186 0.0
H760 H 0.97325 0.88898 0.54859 0.0
H761 H 0.01157 0.85081 0.60171 0.0
H762 H 0.13171 0.84256 0.55959 0.0
H763 H 0.08666 0.84517 0.56288 0.0
C764 C 0.37288 0.85857 0.94288 0.0
C765 C 0.35752 0.87405 0.93721 0.0
C766 C 0.39875 0.86036 0.94208 0.0
C767 C 0.44758 0.88829 0.91194 0.0
H768 H 0.4907 0.86439 0.96066 0.0
C769 C 0.55242 0.87553 0.89498 0.0
C770 C 0.56865 0.87879 0.91513 0.0
C771 C 0.52666 0.87629 0.89843 0.0
C772 C 0.47891 0.87128 0.94702 0.0
H773 H 0.35734 0.90374 0.9271 0.0
H774 H 0.40252 0.90681 0.92579 0.0
H775 H 0.44567 0.86357 0.9666 0.0
H776 H 0.57049 0.88575 0.95461 0.0
H777 H 0.52559 0.8871 0.96053 0.0
H778 H 0.48082 0.89597 0.89233 0.0
C779 C 0.39449 0.89326 0.93059 0.0
C780 C 0.45314 0.87066 0.95031 0.0
C781 C 0.36862 0.89151 0.93151 0.0
C782 C 0.55854 0.8831 0.93869 0.0
C783 C 0.53281 0.88378 0.94214 0.0
C784 C 0.47335 0.88882 0.90858 0.0
C785 C 0.40982 0.87763 0.93551 0.0
C786 C 0.4372 0.87907 0.93273 0.0
C787 C 0.51659 0.88025 0.9221 0.0
C788 C 0.48927 0.88024 0.92602 0.0
H789 H 0.36496 0.84493 0.94737 0.0
H790 H 0.41008 0.84802 0.94577 0.0
H791 H 0.43576 0.89473 0.89794 0.0
H792 H 0.55958 0.87217 0.8766 0.0
H793 H 0.51461 0.87333 0.88268 0.0
C794 C 0.12373 0.14309 0.43816 0.0
C795 C 0.13877 0.12744 0.43246 0.0
C796 C 0.09783 0.14173 0.43684 0.0
C797 C 0.04851 0.11481 0.40573 0.0
H798 H 0.00575 0.13793 0.45542 0.0
C799 C 0.94308 0.12714 0.39065 0.0
C800 C 0.92734 0.12332 0.41102 0.0
C801 C 0.96894 0.12662 0.39355 0.0
C802 C 0.01745 0.13129 0.44149 0.0
H803 H 0.13833 0.0979 0.42159 0.0
H804 H 0.09311 0.09556 0.41936 0.0
H805 H 0.05081 0.13863 0.46109 0.0
H806 H 0.92648 0.11559 0.45029 0.0
H807 H 0.97147 0.11467 0.45524 0.0
H808 H 0.01512 0.10746 0.38614 0.0
C809 C 0.10142 0.10893 0.4246 0.0
C810 C 0.04323 0.13184 0.44462 0.0
C811 C 0.12731 0.11025 0.42606 0.0
C812 C 0.93802 0.11869 0.43421 0.0
C813 C 0.96382 0.11826 0.43712 0.0
C814 C 0.02272 0.11436 0.40251 0.0
C815 C 0.08643 0.12471 0.42968 0.0
C816 C 0.05903 0.12364 0.42676 0.0
C817 C 0.97955 0.12237 0.41689 0.0
C818 C 0.00692 0.12262 0.42034 0.0
H819 H 0.13194 0.15654 0.44316 0.0
H820 H 0.08676 0.15417 0.44068 0.0
H821 H 0.06025 0.10855 0.39152 0.0
H822 H 0.93546 0.13076 0.37254 0.0
H823 H 0.98062 0.13 0.37767 0.0
C824 C 0.06097 0.6193 0.05982 0.0
C825 C 0.07136 0.62366 0.08324 0.0
C826 C 0.03519 0.61921 0.05649 0.0
C827 C 0.97781 0.63889 0.08335 0.0
H828 H 0.9451 0.60066 0.04313 0.0
C829 C 0.87464 0.64521 0.05649 0.0
C830 C 0.86008 0.62887 0.05946 0.0
C831 C 0.90056 0.64421 0.05768 0.0
C832 C 0.95397 0.61139 0.05449 0.0
H833 H 0.06273 0.63089 0.12169 0.0
H834 H 0.01775 0.63057 0.11589 0.0
H835 H 0.99002 0.59899 0.04984 0.0
H836 H 0.86144 0.59854 0.06505 0.0
H837 H 0.90667 0.59684 0.06729 0.0
H838 H 0.94179 0.6511 0.08842 0.0
C839 C 0.02958 0.62749 0.10002 0.0
C840 C 0.9797 0.61052 0.05815 0.0
C841 C 0.05537 0.62756 0.10337 0.0
C842 C 0.87208 0.6114 0.0627 0.0
C843 C 0.89802 0.61041 0.06389 0.0
C844 C 0.95213 0.63978 0.07964 0.0
C845 C 0.01922 0.62348 0.07649 0.0
C846 C 0.99188 0.62424 0.07268 0.0
C847 C 0.91252 0.62685 0.06186 0.0
C848 C 0.93991 0.62604 0.06518 0.0
H849 H 0.07274 0.61623 0.0439 0.0
H850 H 0.02779 0.61624 0.03807 0.0
H851 H 0.98668 0.6498 0.09438 0.0
H852 H 0.86603 0.65889 0.0538 0.0
H853 H 0.91125 0.65708 0.0556 0.0
C854 C 0.62317 0.3592 0.55437 0.0
C855 C 0.63839 0.37465 0.56057 0.0
C856 C 0.59728 0.36086 0.55499 0.0
C857 C 0.54816 0.38821 0.58562 0.0
H858 H 0.50528 0.3646 0.53642 0.0
C859 C 0.44334 0.37502 0.60221 0.0
C860 C 0.42713 0.37842 0.58209 0.0
C861 C 0.46911 0.37584 0.59882 0.0
C862 C 0.517 0.37141 0.5502 0.0
H863 H 0.63827 0.40421 0.57133 0.0
H864 H 0.59307 0.40709 0.5723 0.0
H865 H 0.55032 0.36406 0.53051 0.0
H866 H 0.42535 0.38567 0.5427 0.0
H867 H 0.47026 0.38712 0.53687 0.0
H868 H 0.51484 0.39554 0.60533 0.0
C869 C 0.60123 0.39363 0.56726 0.0
C870 C 0.54278 0.37095 0.54693 0.0
C871 C 0.62712 0.392 0.56653 0.0
C872 C 0.43728 0.38291 0.5586 0.0
C873 C 0.46302 0.38365 0.5552 0.0
C874 C 0.52238 0.38859 0.58896 0.0
C875 C 0.58604 0.378 0.56191 0.0
C876 C 0.55863 0.37926 0.56467 0.0
C877 C 0.47921 0.38 0.57522 0.0
C878 C 0.50654 0.3801 0.57135 0.0
H879 H 0.63122 0.34563 0.54968 0.0
H880 H 0.58607 0.34852 0.55095 0.0
H881 H 0.55991 0.39456 0.59976 0.0
H882 H 0.43615 0.37152 0.62054 0.0
H883 H 0.48113 0.37278 0.61455 0.0
C884 C 0.05336 0.37488 0.8897 0.0
C885 C 0.06873 0.37952 0.91005 0.0
C886 C 0.0275 0.3747 0.89236 0.0
C887 C 0.97602 0.39172 0.93225 0.0
H888 H 0.94041 0.34937 0.90341 0.0
C889 C 0.86847 0.38747 0.92737 0.0
C890 C 0.85747 0.36975 0.93166 0.0
C891 C 0.89433 0.38926 0.92592 0.0
C892 C 0.95011 0.36121 0.91176 0.0
H893 H 0.06889 0.38807 0.94901 0.0
H894 H 0.0238 0.38761 0.95364 0.0
H895 H 0.9853 0.3517 0.89805 0.0
H896 H 0.86511 0.34014 0.93877 0.0
H897 H 0.91016 0.34333 0.9365 0.0
H898 H 0.94078 0.40104 0.94632 0.0
C899 C 0.03175 0.38426 0.93558 0.0
C900 C 0.97578 0.36268 0.90839 0.0
C901 C 0.05761 0.38442 0.93294 0.0
C902 C 0.87293 0.35398 0.93527 0.0
C903 C 0.89876 0.35577 0.93381 0.0
C904 C 0.95029 0.39028 0.93558 0.0
C905 C 0.01642 0.37918 0.9154 0.0
C906 C 0.98904 0.37793 0.91861 0.0
C907 C 0.90973 0.37337 0.92872 0.0
C908 C 0.93707 0.37496 0.92543 0.0
H909 H 0.06129 0.37112 0.87177 0.0
H910 H 0.01616 0.37099 0.87635 0.0
H911 H 0.9857 0.40373 0.9402 0.0
H912 H 0.85711 0.39991 0.9245 0.0
H913 H 0.90222 0.40299 0.92181 0.0
C914 C 0.6274 0.60982 0.43031 0.0
C915 C 0.6389 0.62728 0.4351 0.0
C916 C 0.60149 0.60837 0.42952 0.0
C917 C 0.54332 0.63204 0.44822 0.0
H918 H 0.51519 0.60548 0.39143 0.0
C919 C 0.43786 0.61889 0.43778 0.0
C920 C 0.42753 0.62264 0.41415 0.0
C921 C 0.46363 0.61855 0.44109 0.0
C922 C 0.52279 0.61298 0.40734 0.0
H923 H 0.63213 0.65677 0.44382 0.0
H924 H 0.58691 0.65419 0.4425 0.0
H925 H 0.56028 0.60664 0.39681 0.0
H926 H 0.43625 0.62868 0.37537 0.0
H927 H 0.48128 0.62806 0.38119 0.0
H928 H 0.50583 0.63867 0.45849 0.0
C929 C 0.59797 0.64162 0.43939 0.0
C930 C 0.54857 0.61347 0.41057 0.0
C931 C 0.62388 0.64311 0.44004 0.0
C932 C 0.44358 0.62574 0.39381 0.0
C933 C 0.46938 0.6253 0.39711 0.0
C934 C 0.51752 0.63144 0.44508 0.0
C935 C 0.58652 0.62432 0.43367 0.0
C936 C 0.55911 0.62311 0.43096 0.0
C937 C 0.47966 0.62184 0.42082 0.0
C938 C 0.507 0.62201 0.42451 0.0
H939 H 0.63839 0.59733 0.42649 0.0
H940 H 0.59316 0.59479 0.42541 0.0
H941 H 0.55092 0.63948 0.46418 0.0
H942 H 0.42606 0.6164 0.45385 0.0
H943 H 0.47103 0.61563 0.45951 0.0
C944 C 0.25418 0.15903 0.15368 0.0
C945 C 0.25632 0.14134 0.14191 0.0
C946 C 0.25193 0.16022 0.17967 0.0
C947 C 0.2691 0.13379 0.23554 0.0
H948 H 0.22134 0.16534 0.27022 0.0
C949 C 0.24697 0.12445 0.3395 0.0
C950 C 0.241 0.14037 0.35395 0.0
C951 C 0.25105 0.12616 0.31389 0.0
C952 C 0.23511 0.15674 0.26082 0.0
H953 H 0.25635 0.11103 0.14808 0.0
H954 H 0.25243 0.11318 0.19326 0.0
H955 H 0.22233 0.16524 0.22456 0.0
H956 H 0.23586 0.17076 0.35302 0.0
H957 H 0.24344 0.17376 0.30824 0.0
H958 H 0.28198 0.12526 0.27158 0.0
C959 C 0.25286 0.1261 0.18243 0.0
C960 C 0.23556 0.15662 0.2347 0.0
C961 C 0.25492 0.12489 0.15652 0.0
C962 C 0.2403 0.15819 0.3424 0.0
C963 C 0.24446 0.1599 0.31671 0.0
C964 C 0.2688 0.13401 0.26158 0.0
C965 C 0.25197 0.14376 0.19428 0.0
C966 C 0.25223 0.14485 0.22187 0.0
C967 C 0.2494 0.14384 0.30211 0.0
C968 C 0.25148 0.1452 0.27453 0.0
H969 H 0.25513 0.17197 0.14295 0.0
H970 H 0.25124 0.17401 0.18839 0.0
H971 H 0.28253 0.1249 0.22607 0.0
H972 H 0.24765 0.1105 0.34777 0.0
H973 H 0.25452 0.11346 0.30317 0.0
C974 C 0.25885 0.84008 0.84485 0.0
C975 C 0.2596 0.85825 0.85548 0.0
C976 C 0.25709 0.83785 0.81893 0.0
C977 C 0.27422 0.86236 0.76191 0.0
H978 H 0.22559 0.83102 0.72809 0.0
C979 C 0.25035 0.87224 0.65878 0.0
C980 C 0.24331 0.85661 0.64426 0.0
C981 C 0.25523 0.87018 0.6842 0.0
C982 C 0.23965 0.83951 0.73724 0.0
H983 H 0.25779 0.88826 0.84731 0.0
H984 H 0.25493 0.88429 0.80227 0.0
H985 H 0.22686 0.83159 0.77377 0.0
H986 H 0.23716 0.82632 0.64481 0.0
H987 H 0.24615 0.82268 0.68928 0.0
H988 H 0.28711 0.87035 0.72567 0.0
C989 C 0.25593 0.87183 0.81397 0.0
C990 C 0.24025 0.8399 0.76336 0.0
C991 C 0.25739 0.87407 0.83978 0.0
C992 C 0.24242 0.83868 0.65551 0.0
C993 C 0.24739 0.8366 0.68101 0.0
C994 C 0.27383 0.86182 0.73589 0.0
C995 C 0.25636 0.85375 0.80329 0.0
C996 C 0.25709 0.85174 0.77584 0.0
C997 C 0.25336 0.85241 0.69572 0.0
C998 C 0.25609 0.85081 0.72323 0.0
H999 H 0.26044 0.82761 0.85644 0.0
H1000 H 0.25736 0.82376 0.81107 0.0
H1001 H 0.28773 0.8713 0.77117 0.0
H1002 H 0.25122 0.88626 0.65076 0.0
H1003 H 0.25943 0.88271 0.69499 0.0
C1004 C 0.67432 0.8759 0.80552 0.0
C1005 C 0.678 0.88427 0.82904 0.0
C1006 C 0.68999 0.88022 0.78553 0.0
C1007 C 0.75378 0.89587 0.77332 0.0
H1008 H 0.7312 0.89539 0.7045 0.0
C1009 C 0.79532 0.89606 0.66542 0.0
C1010 C 0.81379 0.8822 0.6685 0.0
C1011 C 0.77939 0.9007 0.68521 0.0
C1012 C 0.73784 0.8959 0.72359 0.0
H1013 H 0.70033 0.90444 0.84971 0.0
H1014 H 0.7277 0.91209 0.81464 0.0
H1015 H 0.70079 0.89638 0.73827 0.0
H1016 H 0.83063 0.86289 0.69503 0.0
H1017 H 0.80289 0.87081 0.72926 0.0
H1018 H 0.79082 0.89513 0.75865 0.0
C1019 C 0.71283 0.902 0.8118 0.0
C1020 C 0.72039 0.89625 0.74296 0.0
C1021 C 0.69708 0.89768 0.83184 0.0
C1022 C 0.81658 0.8736 0.69199 0.0
C1023 C 0.80077 0.87827 0.71172 0.0
C1024 C 0.77121 0.89554 0.75396 0.0
C1025 C 0.70976 0.89303 0.78854 0.0
C1026 C 0.72814 0.89568 0.76806 0.0
C1027 C 0.78173 0.89165 0.70849 0.0
C1028 C 0.76344 0.89498 0.72888 0.0
H1029 H 0.65977 0.86553 0.80269 0.0
H1030 H 0.68726 0.87285 0.76801 0.0
H1031 H 0.76042 0.89531 0.79241 0.0
H1032 H 0.79274 0.90298 0.64756 0.0
H1033 H 0.76505 0.9112 0.68219 0.0
C1034 C 0.81755 0.12461 0.30587 0.0
C1035 C 0.81486 0.11651 0.32968 0.0
C1036 C 0.80137 0.11977 0.28651 0.0
C1037 C 0.73776 0.10293 0.27644 0.0
H1038 H 0.75875 0.10242 0.20711 0.0
C1039 C 0.69451 0.10103 0.16918 0.0
C1040 C 0.67609 0.11494 0.17219 0.0
C1041 C 0.71049 0.0965 0.18895 0.0
C1042 C 0.75254 0.10217 0.22636 0.0
H1043 H 0.79372 0.09633 0.35155 0.0
H1044 H 0.76542 0.08779 0.31758 0.0
H1045 H 0.78993 0.10245 0.24016 0.0
H1046 H 0.65918 0.13428 0.19864 0.0
H1047 H 0.68704 0.12654 0.23286 0.0
H1048 H 0.70037 0.10293 0.26263 0.0
C1049 C 0.77993 0.09806 0.31402 0.0
C1050 C 0.77043 0.10241 0.24531 0.0
C1051 C 0.79621 0.10288 0.33343 0.0
C1052 C 0.67321 0.12354 0.19567 0.0
C1053 C 0.6891 0.11898 0.21539 0.0
C1054 C 0.71987 0.10267 0.25748 0.0
C1055 C 0.78207 0.1067 0.29045 0.0
C1056 C 0.76326 0.10337 0.27055 0.0
C1057 C 0.70828 0.10571 0.21213 0.0
C1058 C 0.72704 0.10286 0.23222 0.0
H1059 H 0.83174 0.13514 0.30232 0.0
H1060 H 0.80337 0.12691 0.26873 0.0
H1061 H 0.73157 0.10376 0.29566 0.0
H1062 H 0.69714 0.0941 0.15133 0.0
H1063 H 0.72489 0.08605 0.18593 0.0
C1064 C 0.73768 0.6564 0.34003 0.0
C1065 C 0.73709 0.63863 0.35173 0.0
C1066 C 0.74033 0.65777 0.3141 0.0
C1067 C 0.72746 0.63062 0.25761 0.0
H1068 H 0.77344 0.66467 0.22465 0.0
C1069 C 0.75344 0.6227 0.15436 0.0
C1070 C 0.75818 0.63895 0.14008 0.0
C1071 C 0.74873 0.62411 0.1799 0.0
C1072 C 0.76016 0.65533 0.23356 0.0
H1073 H 0.74 0.60841 0.3455 0.0
H1074 H 0.74457 0.61086 0.3004 0.0
H1075 H 0.77083 0.66445 0.27025 0.0
H1076 H 0.76063 0.66952 0.14126 0.0
H1077 H 0.75196 0.67198 0.18591 0.0
H1078 H 0.71667 0.62148 0.22115 0.0
C1079 C 0.74268 0.62369 0.31125 0.0
C1080 C 0.75879 0.65517 0.25964 0.0
C1081 C 0.74024 0.62232 0.33711 0.0
C1082 C 0.75717 0.65672 0.15175 0.0
C1083 C 0.75237 0.65813 0.17736 0.0
C1084 C 0.72867 0.63089 0.2316 0.0
C1085 C 0.74221 0.64138 0.29946 0.0
C1086 C 0.74277 0.64253 0.27188 0.0
C1087 C 0.74849 0.6418 0.19178 0.0
C1088 C 0.74539 0.64297 0.21928 0.0
H1089 H 0.73537 0.66924 0.35078 0.0
H1090 H 0.73993 0.67158 0.30542 0.0
H1091 H 0.71455 0.62103 0.26661 0.0
H1092 H 0.7541 0.60878 0.146 0.0
H1093 H 0.74616 0.61123 0.19048 0.0
C1094 C 0.73635 0.37376 0.66054 0.0
C1095 C 0.73435 0.35813 0.64447 0.0
C1096 C 0.73779 0.3712 0.6863 0.0
C1097 C 0.75421 0.3387 0.73597 0.0
H1098 H 0.70777 0.3686 0.77492 0.0
C1099 C 0.75367 0.33644 0.84384 0.0
C1100 C 0.7529 0.35427 0.85538 0.0
C1101 C 0.74833 0.33458 0.81838 0.0
C1102 C 0.72093 0.36021 0.76435 0.0
H1103 H 0.73373 0.32751 0.64281 0.0
H1104 H 0.73677 0.3231 0.6881 0.0
H1105 H 0.70647 0.37003 0.72946 0.0
H1106 H 0.74483 0.38397 0.84947 0.0
H1107 H 0.73598 0.38078 0.80531 0.0
H1108 H 0.76942 0.32949 0.77086 0.0
C1109 C 0.7369 0.33729 0.68056 0.0
C1110 C 0.72015 0.36102 0.73835 0.0
C1111 C 0.73515 0.33984 0.6547 0.0
C1112 C 0.74563 0.37002 0.84121 0.0
C1113 C 0.74037 0.36817 0.81584 0.0
C1114 C 0.75518 0.33803 0.76207 0.0
C1115 C 0.73756 0.35298 0.69656 0.0
C1116 C 0.73713 0.35061 0.72396 0.0
C1117 C 0.74208 0.3505 0.80401 0.0
C1118 C 0.73892 0.34914 0.77653 0.0
H1119 H 0.73588 0.38805 0.65333 0.0
H1120 H 0.73872 0.38352 0.69828 0.0
H1121 H 0.76749 0.33056 0.72522 0.0
H1122 H 0.75911 0.324 0.85427 0.0
H1123 H 0.74948 0.32073 0.80987 0.0
C1124 C 0.32 0.37651 0.6906 0.0
C1125 C 0.31692 0.38469 0.66689 0.0
C1126 C 0.30413 0.38127 0.71026 0.0
C1127 C 0.24071 0.39826 0.72141 0.0
H1128 H 0.26261 0.39824 0.79045 0.0
C1129 C 0.19868 0.40032 0.82915 0.0
C1130 C 0.17979 0.38676 0.82623 0.0
C1131 C 0.21466 0.40461 0.80928 0.0
C1132 C 0.25615 0.39863 0.77129 0.0
H1133 H 0.29544 0.40496 0.64551 0.0
H1134 H 0.26775 0.41339 0.68 0.0
H1135 H 0.29335 0.39817 0.75699 0.0
H1136 H 0.16216 0.36772 0.79984 0.0
H1137 H 0.19002 0.37502 0.76547 0.0
H1138 H 0.20351 0.3985 0.73571 0.0
C1139 C 0.28229 0.4031 0.68325 0.0
C1140 C 0.27379 0.39836 0.75209 0.0
C1141 C 0.29823 0.39834 0.66354 0.0
C1142 C 0.17654 0.37821 0.80276 0.0
C1143 C 0.19243 0.38252 0.78294 0.0
C1144 C 0.22307 0.39856 0.7406 0.0
C1145 C 0.28479 0.39436 0.70673 0.0
C1146 C 0.26627 0.39761 0.72694 0.0
C1147 C 0.212 0.39548 0.78607 0.0
C1148 C 0.23057 0.39818 0.76577 0.0
H1149 H 0.33423 0.36596 0.69384 0.0
H1150 H 0.30641 0.37405 0.72795 0.0
H1151 H 0.23423 0.39759 0.70227 0.0
H1152 H 0.20161 0.4072 0.84698 0.0
H1153 H 0.22937 0.41483 0.81221 0.0
C1154 C 0.29932 0.6018 0.3316 0.0
C1155 C 0.31768 0.61578 0.32873 0.0
C1156 C 0.28355 0.59715 0.3117 0.0
C1157 C 0.27508 0.60301 0.243 0.0
H1158 H 0.20478 0.6015 0.2592 0.0
C1159 C 0.17752 0.62282 0.19281 0.0
C1160 C 0.18111 0.61489 0.16901 0.0
C1161 C 0.19341 0.61827 0.21253 0.0
C1162 C 0.22435 0.60183 0.25436 0.0
H1163 H 0.33457 0.63524 0.30241 0.0
H1164 H 0.30704 0.62734 0.26799 0.0
H1165 H 0.23541 0.60224 0.29274 0.0
H1166 H 0.2035 0.59524 0.14756 0.0
H1167 H 0.23124 0.58717 0.18216 0.0
H1168 H 0.26398 0.60372 0.20464 0.0
C1169 C 0.30491 0.61977 0.28544 0.0
C1170 C 0.24194 0.60203 0.2736 0.0
C1171 C 0.3206 0.62442 0.30529 0.0
C1172 C 0.2003 0.60165 0.16565 0.0
C1173 C 0.21627 0.59711 0.18543 0.0
C1174 C 0.25749 0.60285 0.22376 0.0
C1175 C 0.28588 0.60634 0.28851 0.0
C1176 C 0.2675 0.60317 0.26815 0.0
C1177 C 0.2133 0.60566 0.20898 0.0
C1178 C 0.23189 0.60281 0.22923 0.0
H1179 H 0.29666 0.59482 0.34941 0.0
H1180 H 0.26927 0.58658 0.31459 0.0
H1181 H 0.29464 0.6036 0.23816 0.0
H1182 H 0.1629 0.63305 0.19606 0.0
H1183 H 0.19074 0.62533 0.23028 0.0
loop_
_geom_bond_atom_site_label_1
_geom_bond_atom_site_label_2
_geom_bond_distance
_geom_bond_site_symmetry_2
_ccdc_geom_bond_type
O0 Cd1 2.223 . S
O0 C8 1.315 . S
Cd1 O0 2.223 . S
Cd1 O4 2.297 . S
Cd1 O5 2.439 . S
Cd1 O11 2.240 . S
Cd2 O3 2.240 . S
Cd2 O10 2.223 . S
Cd2 O12 2.297 . S
Cd2 O13 2.439 . S
O3 Cd2 2.240 . S
O3 C8 1.279 . S
O4 Cd1 2.297 . S
O4 C6 1.247 . S
O5 Cd1 2.439 . S
O5 C6 1.208 . S
C6 O4 1.247 . S
C6 O5 1.208 . S
C7 O12 1.247 . S
C7 O13 1.208 . S
C8 O0 1.315 . S
C8 O3 1.279 . S
C9 O10 1.315 . S
C9 O11 1.279 . S
O10 Cd2 2.223 . S
O10 C9 1.315 . S
O11 Cd1 2.240 . S
O11 C9 1.279 . S
O12 Cd2 2.297 . S
O12 C7 1.247 . S
O13 Cd2 2.439 . S
O13 C7 1.208 . S
O14 Cd15 2.223 . S
O14 C22 1.315 . S
Cd15 O14 2.223 . S
Cd15 O18 2.297 . S
Cd15 O19 2.439 . S
Cd15 O25 2.240 . S
Cd16 O17 2.240 . S
Cd16 O24 2.223 . S
Cd16 O26 2.297 . S
Cd16 O27 2.439 . S
O17 Cd16 2.240 . S
O17 C22 1.279 . S
O18 Cd15 2.297 . S
O18 C20 1.247 . S
O19 Cd15 2.439 . S
O19 C20 1.208 . S
C20 O18 1.247 . S
C20 O19 1.208 . S
C21 O26 1.247 . S
C21 O27 1.208 . S
C22 O14 1.315 . S
C22 O17 1.279 . S
C23 O24 1.315 . S
C23 O25 1.279 . S
O24 Cd16 2.223 . S
O24 C23 1.315 . S
O25 Cd15 2.240 . S
O25 C23 1.279 . S
O26 Cd16 2.297 . S
O26 C21 1.247 . S
O27 Cd16 2.439 . S
O27 C21 1.208 . S
O28 Cd29 2.223 . S
O28 C36 1.315 . S
Cd29 O28 2.223 . S
Cd29 O32 2.297 . S
Cd29 O33 2.439 . S
Cd29 O39 2.240 . S
Cd30 O31 2.240 . S
Cd30 O38 2.223 . S
Cd30 O40 2.297 . S
Cd30 O41 2.439 . S
O31 Cd30 2.240 . S
O31 C36 1.279 . S
O32 Cd29 2.297 . S
O32 C34 1.247 . S
O33 Cd29 2.439 . S
O33 C34 1.208 . S
C34 O32 1.247 . S
C34 O33 1.208 . S
C35 O40 1.247 . S
C35 O41 1.208 . S
C36 O28 1.315 . S
C36 O31 1.279 . S
C37 O38 1.315 . S
C37 O39 1.279 . S
O38 Cd30 2.223 . S
O38 C37 1.315 . S
O39 Cd29 2.240 . S
O39 C37 1.279 . S
O40 Cd30 2.297 . S
O40 C35 1.247 . S
O41 Cd30 2.439 . S
O41 C35 1.208 . S
O42 Cd43 2.223 . S
O42 C50 1.315 . S
Cd43 O42 2.223 . S
Cd43 O46 2.297 . S
Cd43 O47 2.439 . S
Cd43 O53 2.240 . S
Cd44 O45 2.240 . S
Cd44 O52 2.223 . S
Cd44 O54 2.297 . S
Cd44 O55 2.439 . S
O45 Cd44 2.240 . S
O45 C50 1.279 . S
O46 Cd43 2.297 . S
O46 C48 1.247 . S
O47 Cd43 2.439 . S
O47 C48 1.208 . S
C48 O46 1.247 . S
C48 O47 1.208 . S
C49 O54 1.247 . S
C49 O55 1.208 . S
C50 O42 1.315 . S
C50 O45 1.279 . S
C51 O52 1.315 . S
C51 O53 1.279 . S
O52 Cd44 2.223 . S
O52 C51 1.315 . S
O53 Cd43 2.240 . S
O53 C51 1.279 . S
O54 Cd44 2.297 . S
O54 C49 1.247 . S
O55 Cd44 2.439 . S
O55 C49 1.208 . S
O56 Cd57 2.223 . S
O56 C64 1.315 . S
Cd57 O56 2.223 . S
Cd57 O60 2.297 . S
Cd57 O61 2.439 . S
Cd57 O67 2.240 . S
Cd58 O59 2.240 . S
Cd58 O66 2.223 . S
Cd58 O68 2.297 . S
Cd58 O69 2.439 . S
O59 Cd58 2.240 . S
O59 C64 1.279 . S
O60 Cd57 2.297 . S
O60 C62 1.247 . S
O61 Cd57 2.439 . S
O61 C62 1.208 . S
C62 O60 1.247 . S
C62 O61 1.208 . S
C63 O68 1.247 . S
C63 O69 1.208 . S
C64 O56 1.315 . S
C64 O59 1.279 . S
C65 O66 1.315 . S
C65 O67 1.279 . S
O66 Cd58 2.223 . S
O66 C65 1.315 . S
O67 Cd57 2.240 . S
O67 C65 1.279 . S
O68 Cd58 2.297 . S
O68 C63 1.247 . S
O69 Cd58 2.439 . S
O69 C63 1.208 . S
O70 Cd71 2.223 . S
O70 C78 1.315 . S
Cd71 O70 2.223 . S
Cd71 O74 2.297 . S
Cd71 O75 2.439 . S
Cd71 O81 2.240 . S
Cd72 O73 2.240 . S
Cd72 O80 2.223 . S
Cd72 O82 2.297 . S
Cd72 O83 2.439 . S
O73 Cd72 2.240 . S
O73 C78 1.279 . S
O74 Cd71 2.297 . S
O74 C76 1.247 . S
O75 Cd71 2.439 . S
O75 C76 1.208 . S
C76 O74 1.247 . S
C76 O75 1.208 . S
C77 O82 1.247 . S
C77 O83 1.208 . S
C78 O70 1.315 . S
C78 O73 1.279 . S
C79 O80 1.315 . S
C79 O81 1.279 . S
O80 Cd72 2.223 . S
O80 C79 1.315 . S
O81 Cd71 2.240 . S
O81 C79 1.279 . S
O82 Cd72 2.297 . S
O82 C77 1.247 . S
O83 Cd72 2.439 . S
O83 C77 1.208 . S
O84 Cd85 2.223 . S
O84 C92 1.315 . S
Cd85 O84 2.223 . S
Cd85 O88 2.297 . S
Cd85 O89 2.439 . S
Cd85 O95 2.240 . S
Cd86 O87 2.240 . S
Cd86 O94 2.223 . S
Cd86 O96 2.297 . S
Cd86 O97 2.439 . S
O87 Cd86 2.240 . S
O87 C92 1.279 . S
O88 Cd85 2.297 . S
O88 C90 1.247 . S
O89 Cd85 2.439 . S
O89 C90 1.208 . S
C90 O88 1.247 . S
C90 O89 1.208 . S
C91 O96 1.247 . S
C91 O97 1.208 . S
C92 O84 1.315 . S
C92 O87 1.279 . S
C93 O94 1.315 . S
C93 O95 1.279 . S
O94 Cd86 2.223 . S
O94 C93 1.315 . S
O95 Cd85 2.240 . S
O95 C93 1.279 . S
O96 Cd86 2.297 . S
O96 C91 1.247 . S
O97 Cd86 2.439 . S
O97 C91 1.208 . S
O98 Cd99 2.223 . S
O98 C106 1.315 . S
Cd99 O98 2.223 . S
Cd99 O102 2.297 . S
Cd99 O103 2.439 . S
Cd99 O109 2.240 . S
Cd100 O101 2.240 . S
Cd100 O108 2.223 . S
Cd100 O110 2.297 . S
Cd100 O111 2.439 . S
O101 Cd100 2.240 . S
O101 C106 1.279 . S
O102 Cd99 2.297 . S
O102 C104 1.247 . S
O103 Cd99 2.439 . S
O103 C104 1.208 . S
C104 O102 1.247 . S
C104 O103 1.208 . S
C105 O110 1.247 . S
C105 O111 1.208 . S
C106 O98 1.315 . S
C106 O101 1.279 . S
C107 O108 1.315 . S
C107 O109 1.279 . S
O108 Cd100 2.223 . S
O108 C107 1.315 . S
O109 Cd99 2.240 . S
O109 C107 1.279 . S
O110 Cd100 2.297 . S
O110 C105 1.247 . S
O111 Cd100 2.439 . S
O111 C105 1.208 . S
O112 Cd113 2.223 . S
O112 C120 1.315 . S
Cd113 O112 2.223 . S
Cd113 O116 2.297 . S
Cd113 O117 2.439 . S
Cd113 O123 2.240 . S
Cd114 O115 2.240 . S
Cd114 O122 2.223 . S
Cd114 O124 2.297 . S
Cd114 O125 2.439 . S
O115 Cd114 2.240 . S
O115 C120 1.279 . S
O116 Cd113 2.297 . S
O116 C118 1.247 . S
O117 Cd113 2.439 . S
O117 C118 1.208 . S
C118 O116 1.247 . S
C118 O117 1.208 . S
C119 O124 1.247 . S
C119 O125 1.208 . S
C120 O112 1.315 . S
C120 O115 1.279 . S
C121 O122 1.315 . S
C121 O123 1.279 . S
O122 Cd114 2.223 . S
O122 C121 1.315 . S
O123 Cd113 2.240 . S
O123 C121 1.279 . S
O124 Cd114 2.297 . S
O124 C119 1.247 . S
O125 Cd114 2.439 . S
O125 C119 1.208 . S
O126 Cd127 2.223 . S
O126 C134 1.315 . S
Cd127 O126 2.223 . S
Cd127 O130 2.297 . S
Cd127 O131 2.439 . S
Cd127 O137 2.240 . S
Cd128 O129 2.240 . S
Cd128 O136 2.223 . S
Cd128 O138 2.297 . S
Cd128 O139 2.439 . S
O129 Cd128 2.240 . S
O129 C134 1.279 . S
O130 Cd127 2.297 . S
O130 C132 1.247 . S
O131 Cd127 2.439 . S
O131 C132 1.208 . S
C132 O130 1.247 . S
C132 O131 1.208 . S
C133 O138 1.247 . S
C133 O139 1.208 . S
C134 O126 1.315 . S
C134 O129 1.279 . S
C135 O136 1.315 . S
C135 O137 1.279 . S
O136 Cd128 2.223 . S
O136 C135 1.315 . S
O137 Cd127 2.240 . S
O137 C135 1.279 . S
O138 Cd128 2.297 . S
O138 C133 1.247 . S
O139 Cd128 2.439 . S
O139 C133 1.208 . S
O140 Cd141 2.223 . S
O140 C148 1.315 . S
Cd141 O140 2.223 . S
Cd141 O144 2.297 . S
Cd141 O145 2.439 . S
Cd141 O151 2.240 . S
Cd142 O143 2.240 . S
Cd142 O150 2.223 . S
Cd142 O152 2.297 . S
Cd142 O153 2.439 . S
O143 Cd142 2.240 . S
O143 C148 1.279 . S
O144 Cd141 2.297 . S
O144 C146 1.247 . S
O145 Cd141 2.439 . S
O145 C146 1.208 . S
C146 O144 1.247 . S
C146 O145 1.208 . S
C147 O152 1.247 . S
C147 O153 1.208 . S
C148 O140 1.315 . S
C148 O143 1.279 . S
C149 O150 1.315 . S
C149 O151 1.279 . S
O150 Cd142 2.223 . S
O150 C149 1.315 . S
O151 Cd141 2.240 . S
O151 C149 1.279 . S
O152 Cd142 2.297 . S
O152 C147 1.247 . S
O153 Cd142 2.439 . S
O153 C147 1.208 . S
O154 Cd155 2.223 . S
O154 C162 1.315 . S
Cd155 O154 2.223 . S
Cd155 O158 2.297 . S
Cd155 O159 2.439 . S
Cd155 O165 2.240 . S
Cd156 O157 2.240 . S
Cd156 O164 2.223 . S
Cd156 O166 2.297 . S
Cd156 O167 2.439 . S
O157 Cd156 2.240 . S
O157 C162 1.279 . S
O158 Cd155 2.297 . S
O158 C160 1.247 . S
O159 Cd155 2.439 . S
O159 C160 1.208 . S
C160 O158 1.247 . S
C160 O159 1.208 . S
C161 O166 1.247 . S
C161 O167 1.208 . S
C162 O154 1.315 . S
C162 O157 1.279 . S
C163 O164 1.315 . S
C163 O165 1.279 . S
O164 Cd156 2.223 . S
O164 C163 1.315 . S
O165 Cd155 2.240 . S
O165 C163 1.279 . S
O166 Cd156 2.297 . S
O166 C161 1.247 . S
O167 Cd156 2.439 . S
O167 C161 1.208 . S
O168 Cd169 2.223 . S
O168 C176 1.315 . S
Cd169 O168 2.223 . S
Cd169 O172 2.297 . S
Cd169 O173 2.439 . S
Cd169 O179 2.240 . S
Cd170 O171 2.240 . S
Cd170 O178 2.223 . S
Cd170 O180 2.297 . S
Cd170 O181 2.439 . S
O171 Cd170 2.240 . S
O171 C176 1.279 . S
O172 Cd169 2.297 . S
O172 C174 1.247 . S
O173 Cd169 2.439 . S
O173 C174 1.208 . S
C174 O172 1.247 . S
C174 O173 1.208 . S
C175 O180 1.247 . S
C175 O181 1.208 . S
C176 O168 1.315 . S
C176 O171 1.279 . S
C177 O178 1.315 . S
C177 O179 1.279 . S
O178 Cd170 2.223 . S
O178 C177 1.315 . S
O179 Cd169 2.240 . S
O179 C177 1.279 . S
O180 Cd170 2.297 . S
O180 C175 1.247 . S
O181 Cd170 2.439 . S
O181 C175 1.208 . S
O182 Cd183 2.223 . S
O182 C190 1.315 . S
Cd183 O182 2.223 . S
Cd183 O186 2.297 . S
Cd183 O187 2.439 . S
Cd183 O193 2.240 . S
Cd184 O185 2.240 . S
Cd184 O192 2.223 . S
Cd184 O194 2.297 . S
Cd184 O195 2.439 . S
O185 Cd184 2.240 . S
O185 C190 1.279 . S
O186 Cd183 2.297 . S
O186 C188 1.247 . S
O187 Cd183 2.439 . S
O187 C188 1.208 . S
C188 O186 1.247 . S
C188 O187 1.208 . S
C189 O194 1.247 . S
C189 O195 1.208 . S
C190 O182 1.315 . S
C190 O185 1.279 . S
C191 O192 1.315 . S
C191 O193 1.279 . S
O192 Cd184 2.223 . S
O192 C191 1.315 . S
O193 Cd183 2.240 . S
O193 C191 1.279 . S
O194 Cd184 2.297 . S
O194 C189 1.247 . S
O195 Cd184 2.439 . S
O195 C189 1.208 . S
O196 Cd197 2.223 . S
O196 C204 1.315 . S
Cd197 O196 2.223 . S
Cd197 O200 2.297 . S
Cd197 O201 2.439 . S
Cd197 O207 2.240 . S
Cd198 O199 2.240 . S
Cd198 O206 2.223 . S
Cd198 O208 2.297 . S
Cd198 O209 2.439 . S
O199 Cd198 2.240 . S
O199 C204 1.279 . S
O200 Cd197 2.297 . S
O200 C202 1.247 . S
O201 Cd197 2.439 . S
O201 C202 1.208 . S
C202 O200 1.247 . S
C202 O201 1.208 . S
C203 O208 1.247 . S
C203 O209 1.208 . S
C204 O196 1.315 . S
C204 O199 1.279 . S
C205 O206 1.315 . S
C205 O207 1.279 . S
O206 Cd198 2.223 . S
O206 C205 1.315 . S
O207 Cd197 2.240 . S
O207 C205 1.279 . S
O208 Cd198 2.297 . S
O208 C203 1.247 . S
O209 Cd198 2.439 . S
O209 C203 1.208 . S
O210 Cd211 2.223 . S
O210 C218 1.315 . S
Cd211 O210 2.223 . S
Cd211 O214 2.297 . S
Cd211 O215 2.439 . S
Cd211 O221 2.240 . S
Cd212 O213 2.240 . S
Cd212 O220 2.223 . S
Cd212 O222 2.297 . S
Cd212 O223 2.439 . S
O213 Cd212 2.240 . S
O213 C218 1.279 . S
O214 Cd211 2.297 . S
O214 C216 1.247 . S
O215 Cd211 2.439 . S
O215 C216 1.208 . S
C216 O214 1.247 . S
C216 O215 1.208 . S
C217 O222 1.247 . S
C217 O223 1.208 . S
C218 O210 1.315 . S
C218 O213 1.279 . S
C219 O220 1.315 . S
C219 O221 1.279 . S
O220 Cd212 2.223 . S
O220 C219 1.315 . S
O221 Cd211 2.240 . S
O221 C219 1.279 . S
O222 Cd212 2.297 . S
O222 C217 1.247 . S
O223 Cd212 2.439 . S
O223 C217 1.208 . S
C224 C225 1.349 . S
C224 C226 1.327 . S
C224 H249 0.950 . S
C225 C224 1.349 . S
C225 C241 1.349 . S
C226 C224 1.327 . S
C226 C245 1.429 . S
C226 H250 0.950 . S
C227 C244 1.574 . S
C227 C246 1.368 . S
C227 H251 0.949 . S
H228 C232 0.949 . S
C229 C230 1.349 . S
C229 C231 1.327 . S
C229 H252 0.950 . S
C230 C229 1.349 . S
C230 C242 1.349 . S
C231 C229 1.327 . S
C231 C247 1.429 . S
C231 H253 0.950 . S
C232 H228 0.949 . S
C232 C240 1.571 . S
C232 C248 1.368 . S
H233 C241 0.950 . S
H234 C239 0.950 . S
H235 C240 0.952 1_554 S
H236 C242 0.950 . S
H237 C243 0.950 . S
H238 C244 0.949 . S
C239 H234 0.950 . S
C239 C241 1.327 . S
C239 C245 1.429 . S
C240 C232 1.571 . S
C240 H235 0.952 1_556 S
C240 C246 1.368 . S
C241 C225 1.349 . S
C241 H233 0.950 . S
C241 C239 1.327 . S
C242 C230 1.349 . S
C242 H236 0.950 . S
C242 C243 1.327 . S
C243 H237 0.950 . S
C243 C242 1.327 . S
C243 C247 1.429 . S
C244 C227 1.574 . S
C244 H238 0.949 . S
C244 C248 1.368 . S
C245 C226 1.429 . S
C245 C239 1.429 . S
C245 C246 1.523 1_554 S
C246 C227 1.368 . S
C246 C240 1.368 . S
C246 C245 1.523 1_556 S
C247 C231 1.429 . S
C247 C243 1.429 . S
C247 C248 1.523 . S
C248 C232 1.368 . S
C248 C244 1.368 . S
C248 C247 1.523 . S
H249 C224 0.950 . S
H250 C226 0.950 . S
H251 C227 0.949 . S
H252 C229 0.950 . S
H253 C231 0.950 . S
C254 C255 1.349 . S
C254 C256 1.327 . S
C254 H279 0.950 . S
C255 C254 1.349 . S
C255 C271 1.349 . S
C256 C254 1.327 . S
C256 C275 1.429 . S
C256 H280 0.950 . S
C257 C274 1.574 . S
C257 C276 1.368 . S
C257 H281 0.949 . S
H258 C262 0.949 . S
C259 C260 1.349 . S
C259 C261 1.327 . S
C259 H282 0.950 . S
C260 C259 1.349 . S
C260 C272 1.349 . S
C261 C259 1.327 . S
C261 C277 1.429 . S
C261 H283 0.950 . S
C262 H258 0.949 . S
C262 C270 1.574 . S
C262 C278 1.368 . S
H263 C271 0.950 . S
H264 C269 0.950 . S
H265 C270 0.949 . S
H266 C272 0.950 . S
H267 C273 0.950 . S
H268 C274 0.949 . S
C269 H264 0.950 . S
C269 C271 1.327 . S
C269 C275 1.429 . S
C270 C262 1.574 . S
C270 H265 0.949 . S
C270 C276 1.368 . S
C271 C255 1.349 . S
C271 H263 0.950 . S
C271 C269 1.327 . S
C272 C260 1.349 . S
C272 H266 0.950 . S
C272 C273 1.327 . S
C273 H267 0.950 . S
C273 C272 1.327 . S
C273 C277 1.429 . S
C274 C257 1.574 . S
C274 H268 0.949 . S
C274 C278 1.368 . S
C275 C256 1.429 . S
C275 C269 1.429 . S
C275 C276 1.523 . S
C276 C257 1.368 . S
C276 C270 1.368 . S
C276 C275 1.523 . S
C277 C261 1.429 . S
C277 C273 1.429 . S
C277 C278 1.523 . S
C278 C262 1.368 . S
C278 C274 1.368 . S
C278 C277 1.523 . S
H279 C254 0.950 . S
H280 C256 0.950 . S
H281 C257 0.949 . S
H282 C259 0.950 . S
H283 C261 0.950 . S
C284 C285 1.349 . S
C284 C286 1.327 . S
C284 H309 0.950 . S
C285 C284 1.349 . S
C285 C301 1.349 . S
C286 C284 1.327 . S
C286 C305 1.429 . S
C286 H310 0.950 . S
C287 C304 1.574 . S
C287 C306 1.368 . S
C287 H311 0.949 . S
H288 C292 0.949 . S
C289 C290 1.349 . S
C289 C291 1.327 . S
C289 H312 0.950 . S
C290 C289 1.349 . S
C290 C302 1.349 . S
C291 C289 1.327 . S
C291 C307 1.429 . S
C291 H313 0.950 . S
C292 H288 0.949 . S
C292 C300 1.574 . S
C292 C308 1.368 . S
H293 C301 0.950 . S
H294 C299 0.950 . S
H295 C300 0.949 1_556 S
H296 C302 0.950 . S
H297 C303 0.950 . S
H298 C304 0.949 . S
C299 H294 0.950 . S
C299 C301 1.327 . S
C299 C305 1.429 . S
C300 C292 1.574 . S
C300 H295 0.949 1_554 S
C300 C306 1.368 . S
C301 C285 1.349 . S
C301 H293 0.950 . S
C301 C299 1.327 . S
C302 C290 1.349 . S
C302 H296 0.950 . S
C302 C303 1.327 . S
C303 H297 0.950 . S
C303 C302 1.327 . S
C303 C307 1.429 . S
C304 C287 1.574 . S
C304 H298 0.949 . S
C304 C308 1.368 . S
C305 C286 1.429 . S
C305 C299 1.429 . S
C305 C306 1.523 1_556 S
C306 C287 1.368 . S
C306 C300 1.368 . S
C306 C305 1.523 1_554 S
C307 C291 1.429 . S
C307 C303 1.429 . S
C307 C308 1.523 . S
C308 C292 1.368 . S
C308 C304 1.368 . S
C308 C307 1.523 . S
H309 C284 0.950 . S
H310 C286 0.950 . S
H311 C287 0.949 . S
H312 C289 0.950 . S
H313 C291 0.950 . S
C314 C315 1.349 . S
C314 C316 1.327 . S
C314 H339 0.950 . S
C315 C314 1.349 . S
C315 C331 1.349 . S
C316 C314 1.327 . S
C316 C335 1.429 . S
C316 H340 0.950 . S
C317 C334 1.574 . S
C317 C336 1.368 . S
C317 H341 0.949 . S
H318 C322 0.949 . S
C319 C320 1.349 . S
C319 C321 1.327 . S
C319 H342 0.950 . S
C320 C319 1.349 . S
C320 C332 1.349 . S
C321 C319 1.327 . S
C321 C337 1.429 . S
C321 H343 0.950 . S
C322 H318 0.949 . S
C322 C330 1.574 . S
C322 C338 1.368 . S
H323 C331 0.950 . S
H324 C329 0.950 . S
H325 C330 0.949 . S
H326 C332 0.950 . S
H327 C333 0.950 . S
H328 C334 0.949 . S
C329 H324 0.950 . S
C329 C331 1.327 . S
C329 C335 1.429 . S
C330 C322 1.574 . S
C330 H325 0.949 . S
C330 C336 1.368 . S
C331 C315 1.349 . S
C331 H323 0.950 . S
C331 C329 1.327 . S
C332 C320 1.349 . S
C332 H326 0.950 . S
C332 C333 1.327 . S
C333 H327 0.950 . S
C333 C332 1.327 . S
C333 C337 1.429 . S
C334 C317 1.574 . S
C334 H328 0.949 . S
C334 C338 1.368 . S
C335 C316 1.429 . S
C335 C329 1.429 . S
C335 C336 1.523 . S
C336 C317 1.368 . S
C336 C330 1.368 . S
C336 C335 1.523 . S
C337 C321 1.429 . S
C337 C333 1.429 . S
C337 C338 1.523 . S
C338 C322 1.368 . S
C338 C334 1.368 . S
C338 C337 1.523 . S
H339 C314 0.950 . S
H340 C316 0.950 . S
H341 C317 0.949 . S
H342 C319 0.950 . S
H343 C321 0.950 . S
C344 C345 1.349 . S
C344 C346 1.327 . S
C344 H369 0.950 . S
C345 C344 1.349 . S
C345 C361 1.349 . S
C346 C344 1.327 . S
C346 C365 1.429 . S
C346 H370 0.950 . S
C347 C364 1.574 . S
C347 C366 1.368 . S
C347 H371 0.949 . S
H348 C352 0.949 1_554 S
C349 C350 1.349 . S
C349 C351 1.327 . S
C349 H372 0.950 . S
C350 C349 1.349 . S
C350 C362 1.349 . S
C351 C349 1.327 . S
C351 C367 1.429 . S
C351 H373 0.950 . S
C352 H348 0.949 1_556 S
C352 C360 1.574 1_556 S
C352 C368 1.368 . S
H353 C361 0.950 . S
H354 C359 0.945 . S
H355 C360 0.949 . S
H356 C362 0.950 . S
H357 C363 0.950 . S
H358 C364 0.949 . S
C359 H354 0.945 . S
C359 C361 1.329 1_556 S
C359 C365 1.431 1_556 S
C360 C352 1.574 1_554 S
C360 H355 0.949 . S
C360 C366 1.368 1_554 S
C361 C345 1.349 . S
C361 H353 0.950 . S
C361 C359 1.329 1_554 S
C362 C350 1.349 . S
C362 H356 0.950 . S
C362 C363 1.327 . S
C363 H357 0.950 . S
C363 C362 1.327 . S
C363 C367 1.429 . S
C364 C347 1.574 . S
C364 H358 0.949 . S
C364 C368 1.368 . S
C365 C346 1.429 . S
C365 C359 1.431 1_554 S
C365 C366 1.523 1_554 S
C366 C347 1.368 . S
C366 C360 1.368 1_556 S
C366 C365 1.523 1_556 S
C367 C351 1.429 . S
C367 C363 1.429 . S
C367 C368 1.523 . S
C368 C352 1.368 . S
C368 C364 1.368 . S
C368 C367 1.523 . S
H369 C344 0.950 . S
H370 C346 0.950 . S
H371 C347 0.949 . S
H372 C349 0.950 . S
H373 C351 0.950 . S
C374 C375 1.349 . S
C374 C376 1.327 . S
C374 H399 0.950 . S
C375 C374 1.349 . S
C375 C391 1.349 . S
C376 C374 1.327 . S
C376 C395 1.429 . S
C376 H400 0.950 . S
C377 C394 1.574 . S
C377 C396 1.368 . S
C377 H401 0.949 . S
H378 C382 0.949 . S
C379 C380 1.349 . S
C379 C381 1.327 . S
C379 H402 0.950 . S
C380 C379 1.349 . S
C380 C392 1.349 . S
C381 C379 1.327 . S
C381 C397 1.429 . S
C381 H403 0.950 . S
C382 H378 0.949 . S
C382 C390 1.574 . S
C382 C398 1.368 . S
H383 C391 0.950 . S
H384 C389 0.950 . S
H385 C390 0.949 . S
H386 C392 0.950 . S
H387 C393 0.950 . S
H388 C394 0.949 . S
C389 H384 0.950 . S
C389 C391 1.327 . S
C389 C395 1.429 . S
C390 C382 1.574 . S
C390 H385 0.949 . S
C390 C396 1.368 . S
C391 C375 1.349 . S
C391 H383 0.950 . S
C391 C389 1.327 . S
C392 C380 1.349 . S
C392 H386 0.950 . S
C392 C393 1.327 . S
C393 H387 0.950 . S
C393 C392 1.327 . S
C393 C397 1.429 . S
C394 C377 1.574 . S
C394 H388 0.949 . S
C394 C398 1.368 . S
C395 C376 1.429 . S
C395 C389 1.429 . S
C395 C396 1.523 . S
C396 C377 1.368 . S
C396 C390 1.368 . S
C396 C395 1.523 . S
C397 C381 1.429 . S
C397 C393 1.429 . S
C397 C398 1.523 . S
C398 C382 1.368 . S
C398 C394 1.368 . S
C398 C397 1.523 . S
H399 C374 0.950 . S
H400 C376 0.950 . S
H401 C377 0.949 . S
H402 C379 0.950 . S
H403 C381 0.950 . S
C404 C405 1.349 . S
C404 C406 1.327 . S
C404 H429 0.950 . S
C405 C404 1.349 . S
C405 C421 1.349 . S
C406 C404 1.327 . S
C406 C425 1.429 . S
C406 H430 0.950 . S
C407 C424 1.574 . S
C407 C426 1.368 . S
C407 H431 0.949 . S
H408 C412 0.949 . S
C409 C410 1.349 . S
C409 C411 1.327 . S
C409 H432 0.950 . S
C410 C409 1.349 . S
C410 C422 1.349 . S
C411 C409 1.327 . S
C411 C427 1.429 . S
C411 H433 0.950 . S
C412 H408 0.949 . S
C412 C420 1.574 1_554 S
C412 C428 1.368 . S
H413 C421 0.950 . S
H414 C419 0.950 1_554 S
H415 C420 0.949 . S
H416 C422 0.950 . S
H417 C423 0.950 . S
H418 C424 0.949 . S
C419 H414 0.950 1_556 S
C419 C421 1.327 . S
C419 C425 1.429 . S
C420 C412 1.574 1_556 S
C420 H415 0.949 . S
C420 C426 1.368 1_556 S
C421 C405 1.349 . S
C421 H413 0.950 . S
C421 C419 1.327 . S
C422 C410 1.349 . S
C422 H416 0.950 . S
C422 C423 1.327 . S
C423 H417 0.950 . S
C423 C422 1.327 . S
C423 C427 1.429 . S
C424 C407 1.574 . S
C424 H418 0.949 . S
C424 C428 1.368 . S
C425 C406 1.429 . S
C425 C419 1.429 . S
C425 C426 1.523 1_556 S
C426 C407 1.368 . S
C426 C420 1.368 1_554 S
C426 C425 1.523 1_554 S
C427 C411 1.429 . S
C427 C423 1.429 . S
C427 C428 1.523 . S
C428 C412 1.368 . S
C428 C424 1.368 . S
C428 C427 1.523 . S
H429 C404 0.950 . S
H430 C406 0.950 . S
H431 C407 0.949 . S
H432 C409 0.950 . S
H433 C411 0.950 . S
C434 C435 1.349 . S
C434 C436 1.327 . S
C434 H459 0.950 . S
C435 C434 1.349 . S
C435 C451 1.349 . S
C436 C434 1.327 . S
C436 C455 1.429 . S
C436 H460 0.950 . S
C437 C454 1.574 . S
C437 C456 1.368 . S
C437 H461 0.949 . S
H438 C442 0.949 . S
C439 C440 1.349 . S
C439 C441 1.327 . S
C439 H462 0.950 . S
C440 C439 1.349 . S
C440 C452 1.349 . S
C441 C439 1.327 . S
C441 C457 1.429 . S
C441 H463 0.950 . S
C442 H438 0.949 . S
C442 C450 1.574 . S
C442 C458 1.368 . S
H443 C451 0.950 . S
H444 C449 0.950 . S
H445 C450 0.949 . S
H446 C452 0.950 . S
H447 C453 0.950 . S
H448 C454 0.949 . S
C449 H444 0.950 . S
C449 C451 1.327 . S
C449 C455 1.429 . S
C450 C442 1.574 . S
C450 H445 0.949 . S
C450 C456 1.368 . S
C451 C435 1.349 . S
C451 H443 0.950 . S
C451 C449 1.327 . S
C452 C440 1.349 . S
C452 H446 0.950 . S
C452 C453 1.327 . S
C453 H447 0.950 . S
C453 C452 1.327 . S
C453 C457 1.429 . S
C454 C437 1.574 . S
C454 H448 0.949 . S
C454 C458 1.368 . S
C455 C436 1.429 . S
C455 C449 1.429 . S
C455 C456 1.523 . S
C456 C437 1.368 . S
C456 C450 1.368 . S
C456 C455 1.523 . S
C457 C441 1.429 . S
C457 C453 1.429 . S
C457 C458 1.523 . S
C458 C442 1.368 . S
C458 C454 1.368 . S
C458 C457 1.523 . S
H459 C434 0.950 . S
H460 C436 0.950 . S
H461 C437 0.949 . S
H462 C439 0.950 . S
H463 C441 0.950 . S
C464 C465 1.349 . S
C464 C466 1.327 . S
C464 H489 0.950 . S
C465 C464 1.349 . S
C465 C481 1.349 . S
C466 C464 1.327 . S
C466 C485 1.429 . S
C466 H490 0.950 . S
C467 C484 1.574 1_545 S
C467 C486 1.368 1_556 S
C467 H491 0.949 . S
H468 C472 0.949 . S
C469 C470 1.349 . S
C469 C471 1.327 . S
C469 H492 0.950 . S
C470 C469 1.349 . S
C470 C482 1.349 . S
C471 C469 1.327 . S
C471 C487 1.429 . S
C471 H493 0.950 . S
C472 H468 0.949 . S
C472 C480 1.574 1_565 S
C472 C488 1.368 1_554 S
H473 C481 0.944 1_556 S
H474 C479 0.950 1_556 S
H475 C480 0.949 . S
H476 C482 0.944 1_554 S
H477 C483 0.950 1_554 S
H478 C484 0.949 . S
C479 H474 0.950 1_554 S
C479 C481 1.327 . S
C479 C485 1.429 . S
C480 C472 1.574 1_545 S
C480 H475 0.949 . S
C480 C486 1.368 . S
C481 C465 1.349 . S
C481 H473 0.944 1_554 S
C481 C479 1.327 . S
C482 C470 1.349 . S
C482 H476 0.944 1_556 S
C482 C483 1.327 . S
C483 H477 0.950 1_556 S
C483 C482 1.327 . S
C483 C487 1.429 . S
C484 C467 1.574 1_565 S
C484 H478 0.949 . S
C484 C488 1.368 . S
C485 C466 1.429 . S
C485 C479 1.429 . S
C485 C486 1.523 . S
C486 C467 1.368 1_554 S
C486 C480 1.368 . S
C486 C485 1.523 . S
C487 C471 1.429 . S
C487 C483 1.429 . S
C487 C488 1.523 . S
C488 C472 1.368 1_556 S
C488 C484 1.368 . S
C488 C487 1.523 . S
H489 C464 0.950 . S
H490 C466 0.950 . S
H491 C467 0.949 . S
H492 C469 0.950 . S
H493 C471 0.950 . S
C494 C495 1.349 . S
C494 C496 1.327 . S
C494 H519 0.950 . S
C495 C494 1.349 . S
C495 C511 1.349 . S
C496 C494 1.327 . S
C496 C515 1.429 . S
C496 H520 0.950 . S
C497 C514 1.574 1_565 S
C497 C516 1.368 . S
C497 H521 0.949 . S
H498 C502 0.949 . S
C499 C500 1.349 . S
C499 C501 1.327 . S
C499 H522 0.950 . S
C500 C499 1.349 . S
C500 C512 1.349 . S
C501 C499 1.327 . S
C501 C517 1.429 . S
C501 H523 0.950 . S
C502 H498 0.949 . S
C502 C510 1.574 1_545 S
C502 C518 1.368 . S
H503 C511 0.950 . S
H504 C509 0.950 . S
H505 C510 0.949 . S
H506 C512 0.950 . S
H507 C513 0.950 . S
H508 C514 0.949 . S
C509 H504 0.950 . S
C509 C511 1.327 . S
C509 C515 1.429 . S
C510 C502 1.574 1_565 S
C510 H505 0.949 . S
C510 C516 1.368 . S
C511 C495 1.349 . S
C511 H503 0.950 . S
C511 C509 1.327 . S
C512 C500 1.349 . S
C512 H506 0.950 . S
C512 C513 1.327 . S
C513 H507 0.950 . S
C513 C512 1.327 . S
C513 C517 1.429 . S
C514 C497 1.574 1_545 S
C514 H508 0.949 . S
C514 C518 1.368 . S
C515 C496 1.429 . S
C515 C509 1.429 . S
C515 C516 1.523 . S
C516 C497 1.368 . S
C516 C510 1.368 . S
C516 C515 1.523 . S
C517 C501 1.429 . S
C517 C513 1.429 . S
C517 C518 1.523 . S
C518 C502 1.368 . S
C518 C514 1.368 . S
C518 C517 1.523 . S
H519 C494 0.950 . S
H520 C496 0.950 . S
H521 C497 0.949 . S
H522 C499 0.950 . S
H523 C501 0.950 . S
C524 C525 1.349 . S
C524 C526 1.327 . S
C524 H549 0.950 . S
C525 C524 1.349 . S
C525 C541 1.349 . S
C526 C524 1.327 . S
C526 C545 1.429 . S
C526 H550 0.950 . S
C527 C544 1.529 1_565 S
C527 C546 1.368 1_554 S
C527 H551 0.949 . S
H528 C532 0.949 . S
C529 C530 1.349 . S
C529 C531 1.327 . S
C529 H552 0.950 . S
C530 C529 1.349 . S
C530 C542 1.349 . S
C531 C529 1.327 . S
C531 C547 1.429 . S
C531 H553 0.950 . S
C532 H528 0.949 . S
C532 C540 1.529 1_545 S
C532 C548 1.368 1_556 S
H533 C541 0.950 . S
H534 C539 0.950 . S
H535 C540 0.954 . S
H536 C542 0.950 . S
H537 C543 0.950 . S
H538 C544 0.954 . S
C539 H534 0.950 . S
C539 C541 1.327 . S
C539 C545 1.429 . S
C540 C532 1.529 1_565 S
C540 H535 0.954 . S
C540 C546 1.409 . S
C541 C525 1.349 . S
C541 H533 0.950 . S
C541 C539 1.327 . S
C542 C530 1.349 . S
C542 H536 0.950 . S
C542 C543 1.327 . S
C543 H537 0.950 . S
C543 C542 1.327 . S
C543 C547 1.429 . S
C544 C527 1.529 1_545 S
C544 H538 0.954 . S
C544 C548 1.409 . S
C545 C526 1.429 . S
C545 C539 1.429 . S
C545 C546 1.523 . S
C546 C527 1.368 1_556 S
C546 C540 1.409 . S
C546 C545 1.523 . S
C547 C531 1.429 . S
C547 C543 1.429 . S
C547 C548 1.523 . S
C548 C532 1.368 1_554 S
C548 C544 1.409 . S
C548 C547 1.523 . S
H549 C524 0.950 . S
H550 C526 0.950 . S
H551 C527 0.949 . S
H552 C529 0.950 . S
H553 C531 0.950 . S
C554 C555 1.349 . S
C554 C556 1.327 . S
C554 H579 0.950 . S
C555 C554 1.349 . S
C555 C571 1.349 . S
C556 C554 1.327 . S
C556 C575 1.429 . S
C556 H580 0.950 . S
C557 C574 1.574 1_545 S
C557 C576 1.368 . S
C557 H581 0.949 . S
H558 C562 0.949 . S
C559 C560 1.349 . S
C559 C561 1.327 . S
C559 H582 0.950 . S
C560 C559 1.349 . S
C560 C572 1.349 . S
C561 C559 1.327 . S
C561 C577 1.429 . S
C561 H583 0.950 . S
C562 H558 0.949 . S
C562 C570 1.574 1_565 S
C562 C578 1.368 . S
H563 C571 0.950 . S
H564 C569 0.950 . S
H565 C570 0.949 . S
H566 C572 0.950 . S
H567 C573 0.950 . S
H568 C574 0.949 . S
C569 H564 0.950 . S
C569 C571 1.327 . S
C569 C575 1.429 . S
C570 C562 1.574 1_545 S
C570 H565 0.949 . S
C570 C576 1.368 . S
C571 C555 1.349 . S
C571 H563 0.950 . S
C571 C569 1.327 . S
C572 C560 1.349 . S
C572 H566 0.950 . S
C572 C573 1.327 . S
C573 H567 0.950 . S
C573 C572 1.327 . S
C573 C577 1.429 . S
C574 C557 1.574 1_565 S
C574 H568 0.949 . S
C574 C578 1.368 . S
C575 C556 1.429 . S
C575 C569 1.429 . S
C575 C576 1.523 . S
C576 C557 1.368 . S
C576 C570 1.368 . S
C576 C575 1.523 . S
C577 C561 1.429 . S
C577 C573 1.429 . S
C577 C578 1.523 . S
C578 C562 1.368 . S
C578 C574 1.368 . S
C578 C577 1.523 . S
H579 C554 0.950 . S
H580 C556 0.950 . S
H581 C557 0.949 . S
H582 C559 0.950 . S
H583 C561 0.950 . S
C584 C585 1.349 . S
C584 C586 1.327 1_556 S
C584 H609 0.950 1_556 S
C585 C584 1.349 . S
C585 C601 1.349 . S
C586 C584 1.327 1_554 S
C586 C605 1.429 1_554 S
C586 H610 0.950 . S
C587 C604 1.574 . S
C587 C606 1.368 . S
C587 H611 0.949 . S
H588 C592 0.949 . S
C589 C590 1.349 . S
C589 C591 1.327 1_554 S
C589 H612 0.950 1_554 S
C590 C589 1.349 . S
C590 C602 1.349 . S
C591 C589 1.327 1_556 S
C591 C607 1.429 1_556 S
C591 H613 0.950 . S
C592 H588 0.949 . S
C592 C600 1.574 . S
C592 C608 1.368 . S
H593 C601 0.950 . S
H594 C599 0.950 . S
H595 C600 0.949 . S
H596 C602 0.950 . S
H597 C603 0.950 . S
H598 C604 0.949 . S
C599 H594 0.950 . S
C599 C601 1.327 . S
C599 C605 1.429 . S
C600 C592 1.574 . S
C600 H595 0.949 . S
C600 C606 1.368 1_554 S
C601 C585 1.349 . S
C601 H593 0.950 . S
C601 C599 1.327 . S
C602 C590 1.349 . S
C602 H596 0.950 . S
C602 C603 1.327 . S
C603 H597 0.950 . S
C603 C602 1.327 . S
C603 C607 1.429 . S
C604 C587 1.574 . S
C604 H598 0.949 . S
C604 C608 1.368 1_556 S
C605 C586 1.429 1_556 S
C605 C599 1.429 . S
C605 C606 1.523 . S
C606 C587 1.368 . S
C606 C600 1.368 1_556 S
C606 C605 1.523 . S
C607 C591 1.429 1_554 S
C607 C603 1.429 . S
C607 C608 1.523 . S
C608 C592 1.368 . S
C608 C604 1.368 1_554 S
C608 C607 1.523 . S
H609 C584 0.950 1_554 S
H610 C586 0.950 . S
H611 C587 0.949 . S
H612 C589 0.950 1_556 S
H613 C591 0.950 . S
C614 C615 1.349 . S
C614 C616 1.327 . S
C614 H639 0.950 . S
C615 C614 1.349 . S
C615 C631 1.349 . S
C616 C614 1.327 . S
C616 C635 1.429 . S
C616 H640 0.950 . S
C617 C634 1.574 . S
C617 C636 1.368 . S
C617 H641 0.949 . S
H618 C622 0.949 . S
C619 C620 1.349 . S
C619 C621 1.327 . S
C619 H642 0.950 . S
C620 C619 1.349 . S
C620 C632 1.349 . S
C621 C619 1.327 . S
C621 C637 1.429 . S
C621 H643 0.950 . S
C622 H618 0.949 . S
C622 C630 1.574 . S
C622 C638 1.368 . S
H623 C631 0.950 . S
H624 C629 0.950 . S
H625 C630 0.949 . S
H626 C632 0.950 . S
H627 C633 0.950 . S
H628 C634 0.949 . S
C629 H624 0.950 . S
C629 C631 1.327 . S
C629 C635 1.429 . S
C630 C622 1.574 . S
C630 H625 0.949 . S
C630 C636 1.368 . S
C631 C615 1.349 . S
C631 H623 0.950 . S
C631 C629 1.327 . S
C632 C620 1.349 . S
C632 H626 0.950 . S
C632 C633 1.327 . S
C633 H627 0.950 . S
C633 C632 1.327 . S
C633 C637 1.429 . S
C634 C617 1.574 . S
C634 H628 0.949 . S
C634 C638 1.368 . S
C635 C616 1.429 . S
C635 C629 1.429 . S
C635 C636 1.523 . S
C636 C617 1.368 . S
C636 C630 1.368 . S
C636 C635 1.523 . S
C637 C621 1.429 . S
C637 C633 1.429 . S
C637 C638 1.523 . S
C638 C622 1.368 . S
C638 C634 1.368 . S
C638 C637 1.523 . S
H639 C614 0.950 . S
H640 C616 0.950 . S
H641 C617 0.949 . S
H642 C619 0.950 . S
H643 C621 0.950 . S
C644 C645 1.349 . S
C644 C646 1.327 . S
C644 H669 0.950 . S
C645 C644 1.349 . S
C645 C661 1.349 . S
C646 C644 1.327 . S
C646 C665 1.429 . S
C646 H670 0.950 . S
C647 C664 1.574 . S
C647 C666 1.368 1_556 S
C647 H671 0.949 . S
H648 C652 0.949 . S
C649 C650 1.349 . S
C649 C651 1.327 . S
C649 H672 0.950 . S
C650 C649 1.349 . S
C650 C662 1.349 . S
C651 C649 1.327 . S
C651 C667 1.429 . S
C651 H673 0.950 . S
C652 H648 0.949 . S
C652 C660 1.574 . S
C652 C668 1.368 1_554 S
H653 C661 0.950 . S
H654 C659 0.950 . S
H655 C660 0.949 . S
H656 C662 0.950 . S
H657 C663 0.950 . S
H658 C664 0.949 . S
C659 H654 0.950 . S
C659 C661 1.327 . S
C659 C665 1.429 . S
C660 C652 1.574 . S
C660 H655 0.949 . S
C660 C666 1.368 . S
C661 C645 1.349 . S
C661 H653 0.950 . S
C661 C659 1.327 . S
C662 C650 1.349 . S
C662 H656 0.950 . S
C662 C663 1.327 . S
C663 H657 0.950 . S
C663 C662 1.327 . S
C663 C667 1.429 . S
C664 C647 1.574 . S
C664 H658 0.949 . S
C664 C668 1.368 . S
C665 C646 1.429 . S
C665 C659 1.429 . S
C665 C666 1.523 . S
C666 C647 1.368 1_554 S
C666 C660 1.368 . S
C666 C665 1.523 . S
C667 C651 1.429 . S
C667 C663 1.429 . S
C667 C668 1.523 . S
C668 C652 1.368 1_556 S
C668 C664 1.368 . S
C668 C667 1.523 . S
H669 C644 0.950 . S
H670 C646 0.950 . S
H671 C647 0.949 . S
H672 C649 0.950 . S
H673 C651 0.950 . S
C674 C675 1.349 . S
C674 C676 1.327 . S
C674 H699 0.950 . S
C675 C674 1.349 . S
C675 C691 1.349 . S
C676 C674 1.327 . S
C676 C695 1.429 . S
C676 H700 0.950 . S
C677 C694 1.574 . S
C677 C696 1.368 . S
C677 H701 0.949 . S
H678 C682 0.949 . S
C679 C680 1.349 . S
C679 C681 1.327 . S
C679 H702 0.950 . S
C680 C679 1.349 . S
C680 C692 1.349 . S
C681 C679 1.327 . S
C681 C697 1.429 . S
C681 H703 0.950 . S
C682 H678 0.949 . S
C682 C690 1.574 . S
C682 C698 1.368 . S
H683 C691 0.950 . S
H684 C689 0.950 . S
H685 C690 0.949 . S
H686 C692 0.950 . S
H687 C693 0.950 . S
H688 C694 0.949 . S
C689 H684 0.950 . S
C689 C691 1.327 . S
C689 C695 1.429 . S
C690 C682 1.574 . S
C690 H685 0.949 . S
C690 C696 1.368 . S
C691 C675 1.349 . S
C691 H683 0.950 . S
C691 C689 1.327 . S
C692 C680 1.349 . S
C692 H686 0.950 . S
C692 C693 1.327 . S
C693 H687 0.950 . S
C693 C692 1.327 . S
C693 C697 1.429 . S
C694 C677 1.574 . S
C694 H688 0.949 . S
C694 C698 1.368 . S
C695 C676 1.429 . S
C695 C689 1.429 . S
C695 C696 1.523 . S
C696 C677 1.368 . S
C696 C690 1.368 . S
C696 C695 1.523 . S
C697 C681 1.429 . S
C697 C693 1.429 . S
C697 C698 1.523 . S
C698 C682 1.368 . S
C698 C694 1.368 . S
C698 C697 1.523 . S
H699 C674 0.950 . S
H700 C676 0.950 . S
H701 C677 0.949 . S
H702 C679 0.950 . S
H703 C681 0.950 . S
C704 C705 1.349 . S
C704 C706 1.327 . S
C704 H729 0.950 . S
C705 C704 1.349 . S
C705 C721 1.349 . S
C706 C704 1.327 . S
C706 C725 1.429 . S
C706 H730 0.950 . S
C707 C724 1.574 . S
C707 C726 1.368 . S
C707 H731 0.949 . S
H708 C712 0.949 . S
C709 C710 1.349 . S
C709 C711 1.327 . S
C709 H732 0.950 . S
C710 C709 1.349 . S
C710 C722 1.349 . S
C711 C709 1.327 . S
C711 C727 1.429 . S
C711 H733 0.950 . S
C712 H708 0.949 . S
C712 C720 1.574 . S
C712 C728 1.368 . S
H713 C721 0.950 . S
H714 C719 0.950 . S
H715 C720 0.949 . S
H716 C722 0.950 . S
H717 C723 0.950 . S
H718 C724 0.949 . S
C719 H714 0.950 . S
C719 C721 1.327 . S
C719 C725 1.429 . S
C720 C712 1.574 . S
C720 H715 0.949 . S
C720 C726 1.368 . S
C721 C705 1.349 . S
C721 H713 0.950 . S
C721 C719 1.327 . S
C722 C710 1.349 . S
C722 H716 0.950 . S
C722 C723 1.327 . S
C723 H717 0.950 . S
C723 C722 1.327 . S
C723 C727 1.429 . S
C724 C707 1.574 . S
C724 H718 0.949 . S
C724 C728 1.368 . S
C725 C706 1.429 . S
C725 C719 1.429 . S
C725 C726 1.523 . S
C726 C707 1.368 . S
C726 C720 1.368 . S
C726 C725 1.523 . S
C727 C711 1.429 . S
C727 C723 1.429 . S
C727 C728 1.523 . S
C728 C712 1.368 . S
C728 C724 1.368 . S
C728 C727 1.523 . S
H729 C704 0.950 . S
H730 C706 0.950 . S
H731 C707 0.949 . S
H732 C709 0.950 . S
H733 C711 0.950 . S
C734 C735 1.349 . S
C734 C736 1.327 . S
C734 H759 0.950 . S
C735 C734 1.349 . S
C735 C751 1.349 . S
C736 C734 1.327 . S
C736 C755 1.427 . S
C736 H760 0.950 . S
C737 C754 1.574 . S
C737 C756 1.368 . S
C737 H761 0.949 . S
H738 C742 0.949 . S
C739 C740 1.349 . S
C739 C741 1.327 . S
C739 H762 0.950 . S
C740 C739 1.349 . S
C740 C752 1.349 . S
C741 C739 1.327 . S
C741 C757 1.429 . S
C741 H763 0.950 . S
C742 H738 0.949 . S
C742 C750 1.574 . S
C742 C758 1.368 . S
H743 C751 0.950 . S
H744 C749 0.950 . S
H745 C750 0.949 . S
H746 C752 0.950 . S
H747 C753 0.950 . S
H748 C754 0.949 . S
C749 H744 0.950 . S
C749 C751 1.327 . S
C749 C755 1.427 . S
C750 C742 1.574 . S
C750 H745 0.949 . S
C750 C756 1.368 . S
C751 C735 1.349 . S
C751 H743 0.950 . S
C751 C749 1.327 . S
C752 C740 1.349 . S
C752 H746 0.950 . S
C752 C753 1.327 . S
C753 H747 0.950 . S
C753 C752 1.327 . S
C753 C757 1.429 . S
C754 C737 1.574 . S
C754 H748 0.949 . S
C754 C758 1.368 . S
C755 C736 1.427 . S
C755 C749 1.427 . S
C755 C756 1.526 1_655 S
C756 C737 1.368 . S
C756 C750 1.368 . S
C756 C755 1.526 1_455 S
C757 C741 1.429 . S
C757 C753 1.429 . S
C757 C758 1.523 . S
C758 C742 1.368 . S
C758 C754 1.368 . S
C758 C757 1.523 . S
H759 C734 0.950 . S
H760 C736 0.950 . S
H761 C737 0.949 . S
H762 C739 0.950 . S
H763 C741 0.950 . S
C764 C765 1.349 . S
C764 C766 1.327 . S
C764 H789 0.950 . S
C765 C764 1.349 . S
C765 C781 1.349 . S
C766 C764 1.327 . S
C766 C785 1.429 . S
C766 H790 0.950 . S
C767 C784 1.574 . S
C767 C786 1.368 . S
C767 H791 0.949 . S
H768 C772 0.949 . S
C769 C770 1.349 . S
C769 C771 1.327 . S
C769 H792 0.950 . S
C770 C769 1.349 . S
C770 C782 1.349 . S
C771 C769 1.327 . S
C771 C787 1.429 . S
C771 H793 0.950 . S
C772 H768 0.949 . S
C772 C780 1.574 . S
C772 C788 1.368 . S
H773 C781 0.950 . S
H774 C779 0.950 . S
H775 C780 0.949 . S
H776 C782 0.950 . S
H777 C783 0.950 . S
H778 C784 0.949 . S
C779 H774 0.950 . S
C779 C781 1.327 . S
C779 C785 1.429 . S
C780 C772 1.574 . S
C780 H775 0.949 . S
C780 C786 1.368 . S
C781 C765 1.349 . S
C781 H773 0.950 . S
C781 C779 1.327 . S
C782 C770 1.349 . S
C782 H776 0.950 . S
C782 C783 1.327 . S
C783 H777 0.950 . S
C783 C782 1.327 . S
C783 C787 1.429 . S
C784 C767 1.574 . S
C784 H778 0.949 . S
C784 C788 1.368 . S
C785 C766 1.429 . S
C785 C779 1.429 . S
C785 C786 1.523 . S
C786 C767 1.368 . S
C786 C780 1.368 . S
C786 C785 1.523 . S
C787 C771 1.429 . S
C787 C783 1.429 . S
C787 C788 1.523 . S
C788 C772 1.368 . S
C788 C784 1.368 . S
C788 C787 1.523 . S
H789 C764 0.950 . S
H790 C766 0.950 . S
H791 C767 0.949 . S
H792 C769 0.950 . S
H793 C771 0.950 . S
C794 C795 1.349 . S
C794 C796 1.327 . S
C794 H819 0.950 . S
C795 C794 1.349 . S
C795 C811 1.349 . S
C796 C794 1.327 . S
C796 C815 1.429 . S
C796 H820 0.950 . S
C797 C814 1.574 . S
C797 C816 1.368 . S
C797 H821 0.949 . S
H798 C802 0.949 . S
C799 C800 1.349 . S
C799 C801 1.327 . S
C799 H822 0.950 . S
C800 C799 1.349 . S
C800 C812 1.349 . S
C801 C799 1.327 . S
C801 C817 1.427 . S
C801 H823 0.950 . S
C802 H798 0.949 . S
C802 C810 1.574 . S
C802 C818 1.368 . S
H803 C811 0.950 . S
H804 C809 0.950 . S
H805 C810 0.949 . S
H806 C812 0.950 . S
H807 C813 0.950 . S
H808 C814 0.949 . S
C809 H804 0.950 . S
C809 C811 1.327 . S
C809 C815 1.429 . S
C810 C802 1.574 . S
C810 H805 0.949 . S
C810 C816 1.368 . S
C811 C795 1.349 . S
C811 H803 0.950 . S
C811 C809 1.327 . S
C812 C800 1.349 . S
C812 H806 0.950 . S
C812 C813 1.327 . S
C813 H807 0.950 . S
C813 C812 1.327 . S
C813 C817 1.427 . S
C814 C797 1.574 . S
C814 H808 0.949 . S
C814 C818 1.368 . S
C815 C796 1.429 . S
C815 C809 1.429 . S
C815 C816 1.523 . S
C816 C797 1.368 . S
C816 C810 1.368 . S
C816 C815 1.523 . S
C817 C801 1.427 . S
C817 C813 1.427 . S
C817 C818 1.526 1_655 S
C818 C802 1.368 . S
C818 C814 1.368 . S
C818 C817 1.526 1_455 S
H819 C794 0.950 . S
H820 C796 0.950 . S
H821 C797 0.949 . S
H822 C799 0.950 . S
H823 C801 0.950 . S
C824 C825 1.349 . S
C824 C826 1.327 . S
C824 H849 0.950 . S
C825 C824 1.349 . S
C825 C841 1.349 . S
C826 C824 1.327 . S
C826 C845 1.427 . S
C826 H850 0.950 . S
C827 C844 1.574 . S
C827 C846 1.368 . S
C827 H851 0.949 . S
H828 C832 0.949 . S
C829 C830 1.349 . S
C829 C831 1.327 . S
C829 H852 0.950 . S
C830 C829 1.349 . S
C830 C842 1.349 . S
C831 C829 1.327 . S
C831 C847 1.429 . S
C831 H853 0.950 . S
C832 H828 0.949 . S
C832 C840 1.574 . S
C832 C848 1.368 . S
H833 C841 0.950 . S
H834 C839 0.950 . S
H835 C840 0.949 . S
H836 C842 0.950 . S
H837 C843 0.950 . S
H838 C844 0.949 . S
C839 H834 0.950 . S
C839 C841 1.327 . S
C839 C845 1.427 . S
C840 C832 1.574 . S
C840 H835 0.949 . S
C840 C846 1.368 . S
C841 C825 1.349 . S
C841 H833 0.950 . S
C841 C839 1.327 . S
C842 C830 1.349 . S
C842 H836 0.950 . S
C842 C843 1.327 . S
C843 H837 0.950 . S
C843 C842 1.327 . S
C843 C847 1.429 . S
C844 C827 1.574 . S
C844 H838 0.949 . S
C844 C848 1.368 . S
C845 C826 1.427 . S
C845 C839 1.427 . S
C845 C846 1.526 1_455 S
C846 C827 1.368 . S
C846 C840 1.368 . S
C846 C845 1.526 1_655 S
C847 C831 1.429 . S
C847 C843 1.429 . S
C847 C848 1.523 . S
C848 C832 1.368 . S
C848 C844 1.368 . S
C848 C847 1.523 . S
H849 C824 0.950 . S
H850 C826 0.950 . S
H851 C827 0.949 . S
H852 C829 0.950 . S
H853 C831 0.950 . S
C854 C855 1.349 . S
C854 C856 1.327 . S
C854 H879 0.950 . S
C855 C854 1.349 . S
C855 C871 1.349 . S
C856 C854 1.327 . S
C856 C875 1.429 . S
C856 H880 0.950 . S
C857 C874 1.574 . S
C857 C876 1.368 . S
C857 H881 0.949 . S
H858 C862 0.949 . S
C859 C860 1.349 . S
C859 C861 1.327 . S
C859 H882 0.950 . S
C860 C859 1.349 . S
C860 C872 1.349 . S
C861 C859 1.327 . S
C861 C877 1.429 . S
C861 H883 0.950 . S
C862 H858 0.949 . S
C862 C870 1.574 . S
C862 C878 1.368 . S
H863 C871 0.950 . S
H864 C869 0.950 . S
H865 C870 0.949 . S
H866 C872 0.950 . S
H867 C873 0.950 . S
H868 C874 0.949 . S
C869 H864 0.950 . S
C869 C871 1.327 . S
C869 C875 1.429 . S
C870 C862 1.574 . S
C870 H865 0.949 . S
C870 C876 1.368 . S
C871 C855 1.349 . S
C871 H863 0.950 . S
C871 C869 1.327 . S
C872 C860 1.349 . S
C872 H866 0.950 . S
C872 C873 1.327 . S
C873 H867 0.950 . S
C873 C872 1.327 . S
C873 C877 1.429 . S
C874 C857 1.574 . S
C874 H868 0.949 . S
C874 C878 1.368 . S
C875 C856 1.429 . S
C875 C869 1.429 . S
C875 C876 1.523 . S
C876 C857 1.368 . S
C876 C870 1.368 . S
C876 C875 1.523 . S
C877 C861 1.429 . S
C877 C873 1.429 . S
C877 C878 1.523 . S
C878 C862 1.368 . S
C878 C874 1.368 . S
C878 C877 1.523 . S
H879 C854 0.950 . S
H880 C856 0.950 . S
H881 C857 0.949 . S
H882 C859 0.950 . S
H883 C861 0.950 . S
C884 C885 1.349 . S
C884 C886 1.327 . S
C884 H909 0.950 . S
C885 C884 1.349 . S
C885 C901 1.349 . S
C886 C884 1.327 . S
C886 C905 1.427 . S
C886 H910 0.950 . S
C887 C904 1.574 . S
C887 C906 1.368 . S
C887 H911 0.949 . S
H888 C892 0.949 . S
C889 C890 1.349 . S
C889 C891 1.327 . S
C889 H912 0.950 . S
C890 C889 1.349 . S
C890 C902 1.349 . S
C891 C889 1.327 . S
C891 C907 1.429 . S
C891 H913 0.950 . S
C892 H888 0.949 . S
C892 C900 1.574 . S
C892 C908 1.368 . S
H893 C901 0.950 . S
H894 C899 0.950 . S
H895 C900 0.949 . S
H896 C902 0.950 . S
H897 C903 0.950 . S
H898 C904 0.949 . S
C899 H894 0.950 . S
C899 C901 1.327 . S
C899 C905 1.427 . S
C900 C892 1.574 . S
C900 H895 0.949 . S
C900 C906 1.368 . S
C901 C885 1.349 . S
C901 H893 0.950 . S
C901 C899 1.327 . S
C902 C890 1.349 . S
C902 H896 0.950 . S
C902 C903 1.327 . S
C903 H897 0.950 . S
C903 C902 1.327 . S
C903 C907 1.429 . S
C904 C887 1.574 . S
C904 H898 0.949 . S
C904 C908 1.368 . S
C905 C886 1.427 . S
C905 C899 1.427 . S
C905 C906 1.526 1_455 S
C906 C887 1.368 . S
C906 C900 1.368 . S
C906 C905 1.526 1_655 S
C907 C891 1.429 . S
C907 C903 1.429 . S
C907 C908 1.523 . S
C908 C892 1.368 . S
C908 C904 1.368 . S
C908 C907 1.523 . S
H909 C884 0.950 . S
H910 C886 0.950 . S
H911 C887 0.949 . S
H912 C889 0.950 . S
H913 C891 0.950 . S
C914 C915 1.349 . S
C914 C916 1.327 . S
C914 H939 0.950 . S
C915 C914 1.349 . S
C915 C931 1.349 . S
C916 C914 1.327 . S
C916 C935 1.429 . S
C916 H940 0.950 . S
C917 C934 1.574 . S
C917 C936 1.368 . S
C917 H941 0.949 . S
H918 C922 0.949 . S
C919 C920 1.349 . S
C919 C921 1.327 . S
C919 H942 0.950 . S
C920 C919 1.349 . S
C920 C932 1.349 . S
C921 C919 1.327 . S
C921 C937 1.429 . S
C921 H943 0.950 . S
C922 H918 0.949 . S
C922 C930 1.574 . S
C922 C938 1.368 . S
H923 C931 0.950 . S
H924 C929 0.950 . S
H925 C930 0.949 . S
H926 C932 0.950 . S
H927 C933 0.950 . S
H928 C934 0.949 . S
C929 H924 0.950 . S
C929 C931 1.327 . S
C929 C935 1.429 . S
C930 C922 1.574 . S
C930 H925 0.949 . S
C930 C936 1.368 . S
C931 C915 1.349 . S
C931 H923 0.950 . S
C931 C929 1.327 . S
C932 C920 1.349 . S
C932 H926 0.950 . S
C932 C933 1.327 . S
C933 H927 0.950 . S
C933 C932 1.327 . S
C933 C937 1.429 . S
C934 C917 1.574 . S
C934 H928 0.949 . S
C934 C938 1.368 . S
C935 C916 1.429 . S
C935 C929 1.429 . S
C935 C936 1.523 . S
C936 C917 1.368 . S
C936 C930 1.368 . S
C936 C935 1.523 . S
C937 C921 1.429 . S
C937 C933 1.429 . S
C937 C938 1.523 . S
C938 C922 1.368 . S
C938 C934 1.368 . S
C938 C937 1.523 . S
H939 C914 0.950 . S
H940 C916 0.950 . S
H941 C917 0.949 . S
H942 C919 0.950 . S
H943 C921 0.950 . S
C944 C945 1.349 . S
C944 C946 1.327 . S
C944 H969 0.950 . S
C945 C944 1.349 . S
C945 C961 1.349 . S
C946 C944 1.327 . S
C946 C965 1.429 . S
C946 H970 0.950 . S
C947 C964 1.574 . S
C947 C966 1.368 . S
C947 H971 0.949 . S
H948 C952 0.949 . S
C949 C950 1.349 . S
C949 C951 1.327 . S
C949 H972 0.950 . S
C950 C949 1.349 . S
C950 C962 1.349 . S
C951 C949 1.327 . S
C951 C967 1.429 . S
C951 H973 0.950 . S
C952 H948 0.949 . S
C952 C960 1.574 . S
C952 C968 1.368 . S
H953 C961 0.950 . S
H954 C959 0.950 . S
H955 C960 0.949 . S
H956 C962 0.950 . S
H957 C963 0.950 . S
H958 C964 0.949 . S
C959 H954 0.950 . S
C959 C961 1.327 . S
C959 C965 1.429 . S
C960 C952 1.574 . S
C960 H955 0.949 . S
C960 C966 1.368 . S
C961 C945 1.349 . S
C961 H953 0.950 . S
C961 C959 1.327 . S
C962 C950 1.349 . S
C962 H956 0.950 . S
C962 C963 1.327 . S
C963 H957 0.950 . S
C963 C962 1.327 . S
C963 C967 1.429 . S
C964 C947 1.574 . S
C964 H958 0.949 . S
C964 C968 1.368 . S
C965 C946 1.429 . S
C965 C959 1.429 . S
C965 C966 1.523 . S
C966 C947 1.368 . S
C966 C960 1.368 . S
C966 C965 1.523 . S
C967 C951 1.429 . S
C967 C963 1.429 . S
C967 C968 1.523 . S
C968 C952 1.368 . S
C968 C964 1.368 . S
C968 C967 1.523 . S
H969 C944 0.950 . S
H970 C946 0.950 . S
H971 C947 0.949 . S
H972 C949 0.950 . S
H973 C951 0.950 . S
C974 C975 1.349 . S
C974 C976 1.327 . S
C974 H999 0.950 . S
C975 C974 1.349 . S
C975 C991 1.349 . S
C976 C974 1.327 . S
C976 C995 1.429 . S
C976 H1000 0.950 . S
C977 C994 1.574 . S
C977 C996 1.368 . S
C977 H1001 0.949 . S
H978 C982 0.949 . S
C979 C980 1.349 . S
C979 C981 1.327 . S
C979 H1002 0.950 . S
C980 C979 1.349 . S
C980 C992 1.349 . S
C981 C979 1.327 . S
C981 C997 1.429 . S
C981 H1003 0.950 . S
C982 H978 0.949 . S
C982 C990 1.574 . S
C982 C998 1.368 . S
H983 C991 0.950 . S
H984 C989 0.950 . S
H985 C990 0.949 . S
H986 C992 0.950 . S
H987 C993 0.950 . S
H988 C994 0.949 . S
C989 H984 0.950 . S
C989 C991 1.327 . S
C989 C995 1.429 . S
C990 C982 1.574 . S
C990 H985 0.949 . S
C990 C996 1.368 . S
C991 C975 1.349 . S
C991 H983 0.950 . S
C991 C989 1.327 . S
C992 C980 1.349 . S
C992 H986 0.950 . S
C992 C993 1.327 . S
C993 H987 0.950 . S
C993 C992 1.327 . S
C993 C997 1.429 . S
C994 C977 1.574 . S
C994 H988 0.949 . S
C994 C998 1.368 . S
C995 C976 1.429 . S
C995 C989 1.429 . S
C995 C996 1.523 . S
C996 C977 1.368 . S
C996 C990 1.368 . S
C996 C995 1.523 . S
C997 C981 1.429 . S
C997 C993 1.429 . S
C997 C998 1.523 . S
C998 C982 1.368 . S
C998 C994 1.368 . S
C998 C997 1.523 . S
H999 C974 0.950 . S
H1000 C976 0.950 . S
H1001 C977 0.949 . S
H1002 C979 0.950 . S
H1003 C981 0.950 . S
C1004 C1005 1.349 . S
C1004 C1006 1.327 . S
C1004 H1029 0.950 . S
C1005 C1004 1.349 . S
C1005 C1021 1.349 . S
C1006 C1004 1.327 . S
C1006 C1025 1.429 . S
C1006 H1030 0.950 . S
C1007 C1024 1.574 . S
C1007 C1026 1.368 . S
C1007 H1031 0.949 . S
H1008 C1012 0.949 . S
C1009 C1010 1.349 . S
C1009 C1011 1.327 . S
C1009 H1032 0.950 . S
C1010 C1009 1.349 . S
C1010 C1022 1.349 . S
C1011 C1009 1.327 . S
C1011 C1027 1.429 . S
C1011 H1033 0.950 . S
C1012 H1008 0.949 . S
C1012 C1020 1.574 . S
C1012 C1028 1.368 . S
H1013 C1021 0.950 . S
H1014 C1019 0.950 . S
H1015 C1020 0.949 . S
H1016 C1022 0.950 . S
H1017 C1023 0.950 . S
H1018 C1024 0.949 . S
C1019 H1014 0.950 . S
C1019 C1021 1.327 . S
C1019 C1025 1.429 . S
C1020 C1012 1.574 . S
C1020 H1015 0.949 . S
C1020 C1026 1.368 . S
C1021 C1005 1.349 . S
C1021 H1013 0.950 . S
C1021 C1019 1.327 . S
C1022 C1010 1.349 . S
C1022 H1016 0.950 . S
C1022 C1023 1.327 . S
C1023 H1017 0.950 . S
C1023 C1022 1.327 . S
C1023 C1027 1.429 . S
C1024 C1007 1.574 . S
C1024 H1018 0.949 . S
C1024 C1028 1.368 . S
C1025 C1006 1.429 . S
C1025 C1019 1.429 . S
C1025 C1026 1.523 . S
C1026 C1007 1.368 . S
C1026 C1020 1.368 . S
C1026 C1025 1.523 . S
C1027 C1011 1.429 . S
C1027 C1023 1.429 . S
C1027 C1028 1.523 . S
C1028 C1012 1.368 . S
C1028 C1024 1.368 . S
C1028 C1027 1.523 . S
H1029 C1004 0.950 . S
H1030 C1006 0.950 . S
H1031 C1007 0.949 . S
H1032 C1009 0.950 . S
H1033 C1011 0.950 . S
C1034 C1035 1.349 . S
C1034 C1036 1.327 . S
C1034 H1059 0.950 . S
C1035 C1034 1.349 . S
C1035 C1051 1.349 . S
C1036 C1034 1.327 . S
C1036 C1055 1.429 . S
C1036 H1060 0.950 . S
C1037 C1054 1.574 . S
C1037 C1056 1.368 . S
C1037 H1061 0.949 . S
H1038 C1042 0.949 . S
C1039 C1040 1.349 . S
C1039 C1041 1.327 . S
C1039 H1062 0.950 . S
C1040 C1039 1.349 . S
C1040 C1052 1.349 . S
C1041 C1039 1.327 . S
C1041 C1057 1.429 . S
C1041 H1063 0.950 . S
C1042 H1038 0.949 . S
C1042 C1050 1.574 . S
C1042 C1058 1.368 . S
H1043 C1051 0.950 . S
H1044 C1049 0.950 . S
H1045 C1050 0.949 . S
H1046 C1052 0.950 . S
H1047 C1053 0.950 . S
H1048 C1054 0.949 . S
C1049 H1044 0.950 . S
C1049 C1051 1.327 . S
C1049 C1055 1.429 . S
C1050 C1042 1.574 . S
C1050 H1045 0.949 . S
C1050 C1056 1.368 . S
C1051 C1035 1.349 . S
C1051 H1043 0.950 . S
C1051 C1049 1.327 . S
C1052 C1040 1.349 . S
C1052 H1046 0.950 . S
C1052 C1053 1.327 . S
C1053 H1047 0.950 . S
C1053 C1052 1.327 . S
C1053 C1057 1.429 . S
C1054 C1037 1.574 . S
C1054 H1048 0.949 . S
C1054 C1058 1.368 . S
C1055 C1036 1.429 . S
C1055 C1049 1.429 . S
C1055 C1056 1.523 . S
C1056 C1037 1.368 . S
C1056 C1050 1.368 . S
C1056 C1055 1.523 . S
C1057 C1041 1.429 . S
C1057 C1053 1.429 . S
C1057 C1058 1.523 . S
C1058 C1042 1.368 . S
C1058 C1054 1.368 . S
C1058 C1057 1.523 . S
H1059 C1034 0.950 . S
H1060 C1036 0.950 . S
H1061 C1037 0.949 . S
H1062 C1039 0.950 . S
H1063 C1041 0.950 . S
C1064 C1065 1.349 . S
C1064 C1066 1.327 . S
C1064 H1089 0.950 . S
C1065 C1064 1.349 . S
C1065 C1081 1.349 . S
C1066 C1064 1.327 . S
C1066 C1085 1.429 . S
C1066 H1090 0.950 . S
C1067 C1084 1.574 . S
C1067 C1086 1.368 . S
C1067 H1091 0.949 . S
H1068 C1072 0.949 . S
C1069 C1070 1.349 . S
C1069 C1071 1.327 . S
C1069 H1092 0.950 . S
C1070 C1069 1.349 . S
C1070 C1082 1.349 . S
C1071 C1069 1.327 . S
C1071 C1087 1.429 . S
C1071 H1093 0.950 . S
C1072 H1068 0.949 . S
C1072 C1080 1.574 . S
C1072 C1088 1.368 . S
H1073 C1081 0.950 . S
H1074 C1079 0.950 . S
H1075 C1080 0.949 . S
H1076 C1082 0.950 . S
H1077 C1083 0.950 . S
H1078 C1084 0.949 . S
C1079 H1074 0.950 . S
C1079 C1081 1.327 . S
C1079 C1085 1.429 . S
C1080 C1072 1.574 . S
C1080 H1075 0.949 . S
C1080 C1086 1.368 . S
C1081 C1065 1.349 . S
C1081 H1073 0.950 . S
C1081 C1079 1.327 . S
C1082 C1070 1.349 . S
C1082 H1076 0.950 . S
C1082 C1083 1.327 . S
C1083 H1077 0.950 . S
C1083 C1082 1.327 . S
C1083 C1087 1.429 . S
C1084 C1067 1.574 . S
C1084 H1078 0.949 . S
C1084 C1088 1.368 . S
C1085 C1066 1.429 . S
C1085 C1079 1.429 . S
C1085 C1086 1.523 . S
C1086 C1067 1.368 . S
C1086 C1080 1.368 . S
C1086 C1085 1.523 . S
C1087 C1071 1.429 . S
C1087 C1083 1.429 . S
C1087 C1088 1.523 . S
C1088 C1072 1.368 . S
C1088 C1084 1.368 . S
C1088 C1087 1.523 . S
H1089 C1064 0.950 . S
H1090 C1066 0.950 . S
H1091 C1067 0.949 . S
H1092 C1069 0.950 . S
H1093 C1071 0.950 . S
C1094 C1095 1.349 . S
C1094 C1096 1.327 . S
C1094 H1119 0.950 . S
C1095 C1094 1.349 . S
C1095 C1111 1.349 . S
C1096 C1094 1.327 . S
C1096 C1115 1.429 . S
C1096 H1120 0.950 . S
C1097 C1114 1.574 . S
C1097 C1116 1.368 . S
C1097 H1121 0.949 . S
H1098 C1102 0.949 . S
C1099 C1100 1.349 . S
C1099 C1101 1.327 . S
C1099 H1122 0.950 . S
C1100 C1099 1.349 . S
C1100 C1112 1.349 . S
C1101 C1099 1.327 . S
C1101 C1117 1.429 . S
C1101 H1123 0.950 . S
C1102 H1098 0.949 . S
C1102 C1110 1.574 . S
C1102 C1118 1.368 . S
H1103 C1111 0.950 . S
H1104 C1109 0.950 . S
H1105 C1110 0.949 . S
H1106 C1112 0.950 . S
H1107 C1113 0.950 . S
H1108 C1114 0.949 . S
C1109 H1104 0.950 . S
C1109 C1111 1.327 . S
C1109 C1115 1.429 . S
C1110 C1102 1.574 . S
C1110 H1105 0.949 . S
C1110 C1116 1.368 . S
C1111 C1095 1.349 . S
C1111 H1103 0.950 . S
C1111 C1109 1.327 . S
C1112 C1100 1.349 . S
C1112 H1106 0.950 . S
C1112 C1113 1.327 . S
C1113 H1107 0.950 . S
C1113 C1112 1.327 . S
C1113 C1117 1.429 . S
C1114 C1097 1.574 . S
C1114 H1108 0.949 . S
C1114 C1118 1.368 . S
C1115 C1096 1.429 . S
C1115 C1109 1.429 . S
C1115 C1116 1.523 . S
C1116 C1097 1.368 . S
C1116 C1110 1.368 . S
C1116 C1115 1.523 . S
C1117 C1101 1.429 . S
C1117 C1113 1.429 . S
C1117 C1118 1.523 . S
C1118 C1102 1.368 . S
C1118 C1114 1.368 . S
C1118 C1117 1.523 . S
H1119 C1094 0.950 . S
H1120 C1096 0.950 . S
H1121 C1097 0.949 . S
H1122 C1099 0.950 . S
H1123 C1101 0.950 . S
C1124 C1125 1.349 . S
C1124 C1126 1.327 . S
C1124 H1149 0.950 . S
C1125 C1124 1.349 . S
C1125 C1141 1.349 . S
C1126 C1124 1.327 . S
C1126 C1145 1.429 . S
C1126 H1150 0.950 . S
C1127 C1144 1.574 . S
C1127 C1146 1.368 . S
C1127 H1151 0.949 . S
H1128 C1132 0.949 . S
C1129 C1130 1.349 . S
C1129 C1131 1.327 . S
C1129 H1152 0.950 . S
C1130 C1129 1.349 . S
C1130 C1142 1.349 . S
C1131 C1129 1.327 . S
C1131 C1147 1.429 . S
C1131 H1153 0.950 . S
C1132 H1128 0.949 . S
C1132 C1140 1.574 . S
C1132 C1148 1.368 . S
H1133 C1141 0.950 . S
H1134 C1139 0.950 . S
H1135 C1140 0.949 . S
H1136 C1142 0.950 . S
H1137 C1143 0.950 . S
H1138 C1144 0.949 . S
C1139 H1134 0.950 . S
C1139 C1141 1.327 . S
C1139 C1145 1.429 . S
C1140 C1132 1.574 . S
C1140 H1135 0.949 . S
C1140 C1146 1.368 . S
C1141 C1125 1.349 . S
C1141 H1133 0.950 . S
C1141 C1139 1.327 . S
C1142 C1130 1.349 . S
C1142 H1136 0.950 . S
C1142 C1143 1.327 . S
C1143 H1137 0.950 . S
C1143 C1142 1.327 . S
C1143 C1147 1.429 . S
C1144 C1127 1.574 . S
C1144 H1138 0.949 . S
C1144 C1148 1.368 . S
C1145 C1126 1.429 . S
C1145 C1139 1.429 . S
C1145 C1146 1.523 . S
C1146 C1127 1.368 . S
C1146 C1140 1.368 . S
C1146 C1145 1.523 . S
C1147 C1131 1.429 . S
C1147 C1143 1.429 . S
C1147 C1148 1.523 . S
C1148 C1132 1.368 . S
C1148 C1144 1.368 . S
C1148 C1147 1.523 . S
H1149 C1124 0.950 . S
H1150 C1126 0.950 . S
H1151 C1127 0.949 . S
H1152 C1129 0.950 . S
H1153 C1131 0.950 . S
C1154 C1155 1.349 . S
C1154 C1156 1.327 . S
C1154 H1179 0.950 . S
C1155 C1154 1.349 . S
C1155 C1171 1.349 . S
C1156 C1154 1.327 . S
C1156 C1175 1.429 . S
C1156 H1180 0.950 . S
C1157 C1174 1.574 . S
C1157 C1176 1.368 . S
C1157 H1181 0.949 . S
H1158 C1162 0.949 . S
C1159 C1160 1.349 . S
C1159 C1161 1.327 . S
C1159 H1182 0.950 . S
C1160 C1159 1.349 . S
C1160 C1172 1.349 . S
C1161 C1159 1.327 . S
C1161 C1177 1.429 . S
C1161 H1183 0.950 . S
C1162 H1158 0.949 . S
C1162 C1170 1.574 . S
C1162 C1178 1.368 . S
H1163 C1171 0.950 . S
H1164 C1169 0.950 . S
H1165 C1170 0.949 . S
H1166 C1172 0.950 . S
H1167 C1173 0.950 . S
H1168 C1174 0.949 . S
C1169 H1164 0.950 . S
C1169 C1171 1.327 . S
C1169 C1175 1.429 . S
C1170 C1162 1.574 . S
C1170 H1165 0.949 . S
C1170 C1176 1.368 . S
C1171 C1155 1.349 . S
C1171 H1163 0.950 . S
C1171 C1169 1.327 . S
C1172 C1160 1.349 . S
C1172 H1166 0.950 . S
C1172 C1173 1.327 . S
C1173 H1167 0.950 . S
C1173 C1172 1.327 . S
C1173 C1177 1.429 . S
C1174 C1157 1.574 . S
C1174 H1168 0.949 . S
C1174 C1178 1.368 . S
C1175 C1156 1.429 . S
C1175 C1169 1.429 . S
C1175 C1176 1.523 . S
C1176 C1157 1.368 . S
C1176 C1170 1.368 . S
C1176 C1175 1.523 . S
C1177 C1161 1.429 . S
C1177 C1173 1.429 . S
C1177 C1178 1.523 . S
C1178 C1162 1.368 . S
C1178 C1174 1.368 . S
C1178 C1177 1.523 . S
H1179 C1154 0.950 . S
H1180 C1156 0.950 . S
H1181 C1157 0.949 . S
H1182 C1159 0.950 . S
H1183 C1161 0.950 . S
C225 C6 1.602 . S
C230 C176 1.668 . S
C255 C190 1.668 . S
C260 C20 1.602 . S
C285 C34 1.602 . S
C290 C204 1.668 . S
C315 C218 1.668 . S
C320 C48 1.602 . S
C345 C118 1.602 . S
C350 C64 1.668 . S
C375 C78 1.668 . S
C380 C132 1.602 . S
C405 C146 1.602 . S
C410 C92 1.668 . S
C435 C106 1.668 . S
C440 C160 1.602 . S
C465 C7 1.670 . S
C470 C35 1.670 . S
C495 C21 1.670 . S
C500 C49 1.670 . S
C525 C63 1.395 . S
C530 C91 1.395 . S
C555 C77 1.395 . S
C560 C105 1.395 . S
C585 C147 1.670 . S
C590 C119 1.670 . S
C615 C133 1.670 . S
C620 C161 1.670 . S
C645 C203 1.395 . S
C650 C175 1.395 . S
C675 C189 1.395 . S
C680 C217 1.395 . S
C705 C93 1.525 . S
C710 C9 1.545 . S
C735 C107 1.525 . S
C740 C23 1.545 . S
C765 C37 1.545 . S
C770 C65 1.525 . S
C795 C51 1.545 . S
C800 C79 1.525 . S
C825 C205 1.525 . S
C830 C121 1.545 . S
C855 C135 1.545 . S
C860 C219 1.525 . S
C885 C177 1.525 . S
C890 C149 1.545 . S
C915 C163 1.545 . S
C920 C191 1.525 . S
C945 C8 1.506 . S
C950 C50 1.506 . S
C975 C36 1.506 . S
C980 C22 1.506 . S
C1005 C62 1.590 . S
C1010 C104 1.590 . S
C1035 C76 1.590 . S
C1040 C90 1.590 . S
C1065 C162 1.506 . S
C1070 C120 1.506 . S
C1095 C134 1.506 . S
C1100 C148 1.506 . S
C1125 C216 1.590 . S
C1130 C174 1.590 . S
C1155 C188 1.590 . S
C1160 C202 1.590 . S
