# Generated by pormake.
# Topology uom, (4)-cn, num edge types: 1
# Building blocks:
#     Node 0, Type 0, BuildingBlock: ESEHIV_clean_sbu_0, # of connection points: 4
#     Node 1, Type 0, BuildingBlock: ESEHIV_clean_sbu_0, # of connection points: 4
#     Node 2, Type 0, BuildingBlock: ESEHIV_clean_sbu_0, # of connection points: 4
#     Node 3, Type 0, BuildingBlock: ESEHIV_clean_sbu_0, # of connection points: 4
#     Node 4, Type 0, BuildingBlock: ESEHIV_clean_sbu_0, # of connection points: 4
#     Node 5, Type 0, BuildingBlock: ESEHIV_clean_sbu_0, # of connection points: 4
#     Edge 6, Type (0, 0), BuildingBlock: EZIPEK_clean_linker_0, # of connection points: 2
#     Edge 7, Type (0, 0), BuildingBlock: EZIPEK_clean_linker_0, # of connection points: 2
#     Edge 8, Type (0, 0), BuildingBlock: EZIPEK_clean_linker_0, # of connection points: 2
#     Edge 9, Type (0, 0), BuildingBlock: EZIPEK_clean_linker_0, # of connection points: 2
#     Edge 10, Type (0, 0), BuildingBlock: EZIPEK_clean_linker_0, # of connection points: 2
#     Edge 11, Type (0, 0), BuildingBlock: EZIPEK_clean_linker_0, # of connection points: 2
#     Edge 12, Type (0, 0), BuildingBlock: EZIPEK_clean_linker_0, # of connection points: 2
#     Edge 13, Type (0, 0), BuildingBlock: EZIPEK_clean_linker_0, # of connection points: 2
#     Edge 14, Type (0, 0), BuildingBlock: EZIPEK_clean_linker_0, # of connection points: 2
#     Edge 15, Type (0, 0), BuildingBlock: EZIPEK_clean_linker_0, # of connection points: 2
#     Edge 16, Type (0, 0), BuildingBlock: EZIPEK_clean_linker_0, # of connection points: 2
#     Edge 17, Type (0, 0), BuildingBlock: EZIPEK_clean_linker_0, # of connection points: 2
# Relax obj value: 0.093
# Max RMSD: 0.202
# Mean RMSD: 0.159
data_MOF--net-uom--node1-ESEHIV_clean_sbu_0--edge1-EZIPEK_clean_linker_0
_symmetry_space_group_name_H-M    P1
_symmetry_Int_Tables_number       1
_symmetry_cell_setting            triclinic
loop_
_symmetry_equiv_pos_as_xyz
'x, y, z'
_cell_length_a     21.28331
_cell_length_b     21.258792
_cell_length_c     36.188017
_cell_angle_alpha  90.362985
_cell_angle_beta   89.815258
_cell_angle_gamma 126.12626
loop_
_atom_site_label
_atom_site_type_symbol
_atom_site_fract_x
_atom_site_fract_y
_atom_site_fract_z
_atom_type_partial_charge
Cu0 Cu 0.33843 0.01459 0.06688 0.0
N1 N 0.34255 0.04917 1.01858 0.0
N2 N 0.34501 0.04374 0.95661 0.0
C3 C 0.37881 0.04576 0.98878 0.0
C4 C 0.2878 0.04996 0.96691 0.0
C5 C 0.28734 0.05462 1.00481 0.0
O6 O 0.41499 -0.0096 0.0735 0.0
C7 C 0.17832 0.88891 0.05083 0.0
O8 O 0.20496 0.88757 1.0183 0.0
H9 H 0.42419 0.03764 0.99077 0.0
H10 H 0.24342 0.05213 1.02129 0.0
N11 N 0.3608 0.09241 0.10103 0.0
N12 N 0.35382 0.14934 0.15164 0.0
C13 C 0.32828 0.08124 0.13475 0.0
C14 C 0.40822 0.17019 0.09655 0.0
C15 C 0.40423 0.20548 0.1278 0.0
C16 C 0.41516 0.93652 0.05763 0.0
O17 O 0.35679 0.88629 1.03606 0.0
H18 H 0.28658 0.02443 0.14666 0.0
H19 H 0.44279 0.19915 0.07213 0.0
O20 O 0.22807 0.9309 0.07607 0.0
H21 H 0.24499 0.04488 0.9485 0.0
H22 H 0.43594 0.26743 0.13276 0.0
Cu23 Cu 0.34299 0.25426 0.40435 0.0
N24 N 0.29372 0.22902 0.35799 0.0
N25 N 0.28215 0.19907 0.29748 0.0
C26 C 0.33141 0.23798 0.3261 0.0
C27 C 0.21051 0.16641 0.31176 0.0
C28 C 0.2178 0.18508 0.34902 0.0
O29 O 0.44097 0.35779 0.39964 0.0
C30 C 0.32577 0.10948 0.41918 0.0
O31 O 0.35723 0.07213 0.42245 0.0
H32 H 0.39362 0.26736 0.32453 0.0
H33 H 0.17091 0.16375 0.3686 0.0
N34 N 0.29147 0.25524 0.44704 0.0
N35 N 0.21454 0.24998 0.4917 0.0
C36 C 0.22183 0.24148 0.4549 0.0
C37 C 0.32812 0.27322 0.47984 0.0
C38 C 0.28135 0.26979 0.50712 0.0
C39 C 0.50331 0.37632 0.41535 0.0
O40 O 0.50236 0.32535 0.43612 0.0
H41 H 0.17737 0.22469 0.43449 0.0
H42 H 0.38528 0.28689 0.48373 0.0
O43 O 0.36986 0.1822 0.41232 0.0
H44 H 0.15659 0.12886 0.29665 0.0
H45 H 0.29485 0.2801 0.53633 0.0
Cu46 Cu 1.02722 0.21783 0.71971 0.0
N47 N 0.9503 0.17039 0.75665 0.0
N48 N 0.90548 0.13656 0.8147 0.0
C49 C 0.96426 0.15784 0.7912 0.0
C50 C 0.85198 0.13529 0.79407 0.0
C51 C 0.87973 0.15611 0.75826 0.0
O52 O 0.08361 0.32918 0.72546 0.0
C53 C 0.05145 0.10605 0.72317 0.0
O54 O 0.97593 0.06337 0.71786 0.0
H55 H 1.01877 0.16904 0.79958 0.0
H56 H 0.85216 0.16416 0.7356 0.0
N57 N 0.99627 0.19773 0.66999 0.0
N58 N 1.01536 0.20274 0.60888 0.0
C59 C 0.04872 0.22223 0.64254 0.0
C60 C 0.9268 0.16193 0.65305 0.0
C61 C 0.93848 0.16487 0.61515 0.0
C62 C 0.04495 0.35539 0.71714 0.0
O63 O 0.97204 0.30687 0.70683 0.0
H64 H 0.11047 0.2526 0.64725 0.0
H65 H 0.87177 0.13518 0.66713 0.0
O66 O 0.08961 0.17976 0.72571 0.0
H67 H 0.79809 0.12302 0.80452 0.0
H68 H 0.89408 0.13963 0.59394 0.0
Cu69 Cu 0.8346 0.96607 0.06488 0.0
N70 N 0.87735 0.04472 1.02874 0.0
N71 N 0.89773 0.09554 0.97194 0.0
C72 C 0.88333 0.03498 0.99222 0.0
C73 C 0.9017 0.1455 0.99666 0.0
C74 C 0.8892 0.11419 1.03151 0.0
O75 O 0.72129 0.91615 0.06389 0.0
C76 C 0.94349 0.93343 0.06109 0.0
O77 O 0.98723 0.00627 0.07229 0.0
H78 H 0.87209 0.98228 0.98047 0.0
H79 H 0.88397 0.13826 0.05672 0.0
N80 N 0.86983 0.00226 0.11331 0.0
N81 N 0.90471 -0.00535 0.17051 0.0
C82 C 0.86145 0.95484 0.14051 0.0
C83 C 0.91891 0.07502 0.12695 0.0
C84 C 0.94007 0.07043 0.16243 0.0
C85 C 0.69904 0.95753 0.07502 0.0
O86 O 0.75093 0.02653 0.08932 0.0
H87 H 0.8281 0.89226 0.13742 0.0
H88 H 0.94198 0.12771 0.11147 0.0
O89 O 0.87122 0.90097 0.05454 0.0
H90 H 0.90973 0.1993 0.98976 0.0
H91 H 0.9822 0.1189 0.17991 0.0
Cu92 Cu 0.95624 0.79787 0.39633 0.0
N93 N 0.96803 0.8158 0.34493 0.0
N94 N 0.9585 0.85341 0.28872 0.0
C95 C 0.9434 0.85118 0.32516 0.0
C96 C 0.99134 0.81551 0.28509 0.0
C97 C 0.99671 0.79202 0.3197 0.0
O98 O 0.86073 0.69426 0.4038 0.0
C99 C 0.99172 0.93948 0.43209 0.0
O100 O 0.96705 0.97821 0.44627 0.0
H101 H 0.91446 0.87454 0.33715 0.0
H102 H 1.01852 0.75848 0.32578 0.0
N103 N 0.03941 0.80433 0.4194 0.0
N104 N 0.11696 0.81296 0.46417 0.0
C105 C 0.05384 0.81104 0.45611 0.0
C106 C 0.09512 0.80109 0.40391 0.0
C107 C 0.14249 0.80566 0.43143 0.0
C108 C 0.7956 0.68096 0.39595 0.0
O109 O 0.79373 0.73738 0.38297 0.0
H110 H 1.01844 0.81385 0.47659 0.0
H111 H 0.10146 0.79601 0.37469 0.0
O112 O 0.94151 0.87101 0.41961 0.0
H113 H 1.01018 0.80579 0.25923 0.0
H114 H 0.19277 0.80531 0.42772 0.0
Cu115 Cu 0.21688 0.83027 0.717 0.0
N116 N 0.28394 0.86163 0.7583 0.0
N117 N 0.32761 0.91654 0.81473 0.0
C118 C 0.31977 0.92828 0.77861 0.0
C119 C 0.29868 0.84061 0.8164 0.0
C120 C 0.27336 0.80789 0.78215 0.0
O121 O 0.14967 0.71703 0.71624 0.0
C122 C 0.19419 0.94492 0.71859 0.0
O123 O 0.2688 -0.01249 0.71084 0.0
H124 H 0.33507 0.98284 0.76774 0.0
H125 H 0.24132 0.74656 0.77648 0.0
N126 N 0.25952 0.85872 0.66949 0.0
N127 N 0.25085 0.85749 0.60784 0.0
C128 C 0.21585 0.85004 0.64025 0.0
C129 C 0.32507 0.87282 0.65506 0.0
C130 C 0.31989 0.87224 0.61687 0.0
C131 C 0.18309 0.68405 0.71064 0.0
O132 O 0.25862 0.72756 0.70513 0.0
H133 H 0.15727 0.83372 0.64267 0.0
H134 H 0.371 0.87831 0.671 0.0
O135 O 0.15754 0.87185 0.72279 0.0
H136 H 0.29089 0.80905 0.84142 0.0
H137 H 0.36193 0.87891 0.59726 0.0
C138 C 0.36649 0.14916 0.21956 0.0
C139 C 0.3346 0.16051 0.18834 0.0
C140 C 0.27523 0.20525 0.22896 0.0
C141 C 0.30101 0.18702 0.26058 0.0
N142 N 0.35995 0.12786 0.28534 0.0
N143 N 0.24922 0.18782 0.16288 0.0
C144 C 0.3438 0.15538 0.2557 0.0
C145 C 0.28611 0.18519 0.19296 0.0
N146 N 0.42064 0.13483 0.2146 0.0
N147 N 0.24373 0.24519 0.23328 0.0
H148 H 0.25645 0.17341 0.13636 0.0
H149 H 0.20674 0.19756 0.16463 0.0
H150 H 0.23845 0.26392 0.25903 0.0
H151 H 0.23001 0.26638 0.21126 0.0
H152 H 0.4529 0.13465 0.23613 0.0
H153 H 0.43823 0.12984 0.18848 0.0
H154 H 0.38254 0.09588 0.28304 0.0
H155 H 0.34456 0.13094 0.31213 0.0
C156 C 0.15848 0.3022 0.53035 0.0
C157 C 0.15023 0.23772 0.51296 0.0
C158 C 0.04665 0.14939 0.55682 0.0
C159 C 0.05469 0.21353 0.57425 0.0
N160 N 0.107 0.34893 0.57412 0.0
N161 N 0.07227 0.10021 0.50289 0.0
C162 C 0.10704 0.28948 0.5597 0.0
C163 C 0.0893 0.16142 0.52398 0.0
N164 N 0.21742 0.37554 0.51935 0.0
N165 N 1.0024 0.07782 0.57307 0.0
H166 H 0.10134 0.10821 0.47823 0.0
H167 H 1.02396 0.0435 0.50772 0.0
H168 H 0.97154 0.06723 0.59747 0.0
H169 H 1.0017 0.03067 0.56426 0.0
H170 H 0.23287 0.42601 0.53304 0.0
H171 H 0.2527 0.3853 0.49675 0.0
H172 H 0.13958 0.40509 0.56346 0.0
H173 H 0.06931 0.34008 0.59536 0.0
C174 C 0.96645 0.17039 0.91523 0.0
C175 C 0.90074 0.10334 0.932 0.0
C176 C 0.84273 0.05402 0.87041 0.0
C177 C 0.90386 0.12533 0.85431 0.0
N178 N 1.01488 0.25847 0.86324 0.0
N179 N 0.76822 -0.01063 0.92579 0.0
C180 C 0.96347 0.18555 0.87724 0.0
C181 C 0.83657 0.04705 0.90964 0.0
N182 N 0.0326 0.21857 0.93542 0.0
N183 N 0.79184 -0.0079 0.84822 0.0
H184 H 0.76014 -0.01491 0.95429 0.0
H185 H 0.71733 0.95114 0.91086 0.0
H186 H 0.79631 -0.00531 0.81948 0.0
H187 H 0.75045 0.93646 0.8584 0.0
H188 H 0.08474 0.26458 0.92385 0.0
H189 H 0.03741 0.20739 0.9629 0.0
H190 H 0.0552 0.30634 0.87953 0.0
H191 H 1.01143 0.2729 0.83621 0.0
C192 C 0.85708 0.90772 0.22491 0.0
C193 C 0.91937 0.96228 0.20155 0.0
C194 C 1.00893 0.95214 0.23912 0.0
C195 C 0.94522 0.89109 0.25979 0.0
N196 N 0.80676 0.80139 0.26819 0.0
N197 N 0.05167 0.02361 0.18166 0.0
C198 C 0.86864 0.86645 0.25164 0.0
C199 C 0.99472 0.98132 0.20741 0.0
N200 N 0.78734 0.89681 0.222 0.0
N201 N 0.08317 0.98386 0.25044 0.0
H202 H 0.04247 0.04261 0.15717 0.0
H203 H 0.10519 0.03226 0.18262 0.0
H204 H 0.09559 0.96546 0.27415 0.0
H205 H 0.13192 0.03335 0.23851 0.0
H206 H 0.74161 0.86327 0.24045 0.0
H207 H 0.77793 0.92732 0.20309 0.0
H208 H 0.74918 0.77606 0.26084 0.0
H209 H 0.81324 0.76841 0.28684 0.0
C210 C 0.15096 0.77086 0.5607 0.0
C211 C 0.21783 0.84532 0.57131 0.0
C212 C 0.2228 0.89498 0.5096 0.0
C213 C 0.15154 0.8232 0.50018 0.0
N214 N 0.04466 0.6935 0.51707 0.0
N215 N 0.30934 0.98158 0.5584 0.0
C216 C 0.11446 0.76141 0.52599 0.0
C217 C 0.25175 0.90823 0.54635 0.0
N218 N 0.12472 0.70858 0.58316 0.0
N219 N 0.26383 0.95014 0.48317 0.0
H220 H 0.33064 -0.00679 0.58539 0.0
H221 H 0.33077 0.03143 0.54281 0.0
H222 H 0.24319 0.94374 0.45638 0.0
H223 H 0.32058 -0.00059 0.48719 0.0
H224 H 0.08086 0.65126 0.57582 0.0
H225 H 0.15156 0.71358 0.60814 0.0
H226 H 1.00994 0.64912 0.5359 0.0
H227 H 1.01943 0.68319 0.49101 0.0
C228 C 0.36971 0.96706 0.91371 0.0
C229 C 0.35528 0.0236 0.91964 0.0
C230 C 0.32643 0.01605 0.85351 0.0
C231 C 0.34993 0.96624 0.84733 0.0
N232 N 0.42712 0.92643 0.87137 0.0
N233 N 0.34953 0.12244 0.89111 0.0
C234 C 0.38418 0.95402 0.87736 0.0
C235 C 0.34409 0.05544 0.88812 0.0
N236 N 0.36011 0.91855 0.94115 0.0
N237 N 0.28154 0.02119 0.82877 0.0
H238 H 0.36689 0.15479 0.91559 0.0
H239 H 0.34609 0.14985 0.86822 0.0
H240 H 0.25761 -0.01362 0.80542 0.0
H241 H 0.25941 0.0529 0.83428 0.0
H242 H 0.36654 0.87411 0.93654 0.0
H243 H 0.33411 0.91443 0.96629 0.0
H244 H 0.45508 0.9194 0.89285 0.0
H245 H 0.44118 0.91938 0.84473 0.0
C246 C 0.05163 0.85417 1.02286 0.0
C247 C 0.09587 0.86471 0.05478 0.0
C248 C 1.00751 0.87889 0.09177 0.0
C249 C 0.98013 0.8913 0.0588 0.0
N250 N 0.97315 0.88692 0.99235 0.0
N251 N 0.09832 0.86034 0.12111 0.0
C252 C 1.00019 0.87642 1.02414 0.0
C253 C 0.06768 0.86806 0.08985 0.0
N254 N 0.05562 0.81936 0.99205 0.0
N255 N 0.97466 0.87635 0.12469 0.0
H256 H 0.13306 0.84059 0.12016 0.0
H257 H 0.0888 0.8719 0.14769 0.0
H258 H 0.9285 0.88065 0.12609 0.0
H259 H 0.98797 0.86385 0.14996 0.0
H260 H 1.02114 0.80609 0.96876 0.0
H261 H 0.08426 0.79303 0.99208 0.0
H262 H 0.99349 0.88622 0.96623 0.0
H263 H 0.93346 0.90061 0.99235 0.0
C264 C 0.11278 0.00055 0.39381 0.0
C265 C 0.07677 0.97872 0.42889 0.0
C266 C 0.2055 0.05127 0.45802 0.0
C267 C 0.24023 0.06548 0.42266 0.0
N268 N 0.22252 0.02835 0.35837 0.0
N269 N 0.08857 0.96847 0.49447 0.0
C270 C 0.19252 0.03203 0.39093 0.0
C271 C 0.12309 -0.00054 0.46112 0.0
N272 N 0.07254 -0.00354 0.3636 0.0
N273 N 0.25093 0.08704 0.48857 0.0
H274 H 1.0283 0.93037 0.49757 0.0
H275 H 0.11971 0.97539 0.5182 0.0
H276 H 0.31157 0.1235 0.48737 0.0
H277 H 0.22826 0.08487 0.51449 0.0
H278 H 0.09718 0.01401 0.33741 0.0
H279 H 1.0175 0.98417 0.36582 0.0
H280 H 0.18831 -0.00032 0.33505 0.0
H281 H 0.27944 0.04548 0.35639 0.0
C282 C 0.11784 0.05918 0.68807 0.0
C283 C 0.09109 0.06793 0.72231 0.0
C284 C 0.11932 0.98436 0.75261 0.0
C285 C 0.15321 0.98192 0.71926 0.0
N286 N 0.18765 0.01834 0.65526 0.0
N287 N 0.07361 0.04739 0.78798 0.0
C288 C 0.15358 0.02004 0.68702 0.0
C289 C 0.09377 0.03279 0.75482 0.0
N290 N 0.10609 0.08554 0.65631 0.0
N291 N 0.11037 0.93956 0.78197 0.0
H292 H 0.0536 0.08169 0.79044 0.0
H293 H 0.0825 0.03101 0.81336 0.0
H294 H 0.12936 0.90427 0.78184 0.0
H295 H 0.07867 0.93239 0.80555 0.0
H296 H 0.11554 0.07308 0.62989 0.0
H297 H 0.08149 0.11578 0.65611 0.0
H298 H 0.19954 0.05352 0.63253 0.0
H299 H 0.20709 0.98369 0.65194 0.0
C300 C 0.58857 0.93017 1.03467 0.0
C301 C 0.61744 0.93354 0.0705 0.0
C302 C 0.50543 0.92432 0.0977 0.0
C303 C 0.48321 0.93251 0.06205 0.0
N304 N 0.51039 0.95292 0.99668 0.0
N305 N 0.60418 0.93463 0.13655 0.0
C306 C 0.52592 0.93682 1.03051 0.0
C307 C 0.57574 0.93051 0.10211 0.0
N308 N 0.62169 0.92182 1.00441 0.0
N309 N 0.45778 0.90778 0.1272 0.0
H310 H 0.65134 0.93247 0.14091 0.0
H311 H 0.58327 0.9433 0.16063 0.0
H312 H 0.40567 0.90182 0.12492 0.0
H313 H 0.46608 0.89323 0.15322 0.0
H314 H 0.59816 0.91044 0.97794 0.0
H315 H 0.66873 0.91893 1.0061 0.0
H316 H 0.5449 0.96604 0.97341 0.0
H317 H 0.46713 0.96067 0.99253 0.0
C318 C 0.69189 0.57496 0.43699 0.0
C319 C 0.72179 0.60223 0.40091 0.0
C320 C 0.61051 0.47955 0.3743 0.0
C321 C 0.57745 0.45492 0.41013 0.0
N322 N 0.57957 0.484 0.47481 0.0
N323 N 0.70637 0.58556 0.33477 0.0
C324 C 0.61642 0.5038 0.44133 0.0
C325 C 0.67988 0.55613 0.36942 0.0
N326 N 0.73561 0.61707 0.46714 0.0
N327 N 0.57797 0.42834 0.34526 0.0
H328 H 0.75939 0.63918 0.32992 0.0
H329 H 0.67372 0.5591 0.31087 0.0
H330 H 0.52816 0.37135 0.3478 0.0
H331 H 0.60386 0.43973 0.31935 0.0
H332 H 0.72129 0.59607 0.49406 0.0
H333 H 0.78937 0.67127 0.46517 0.0
H334 H 0.6011 0.52085 0.49775 0.0
H335 H 0.52368 0.43331 0.47892 0.0
C336 C 0.15243 0.56187 0.68195 0.0
C337 C 0.14011 0.5981 0.71134 0.0
C338 C 0.06144 0.47301 0.74387 0.0
C339 C 0.08151 0.43973 0.71648 0.0
N340 N 0.15177 0.45287 0.66118 0.0
N341 N 0.08891 0.59 0.77241 0.0
C342 C 0.12893 0.4844 0.68609 0.0
C343 C 0.09556 0.5541 0.74277 0.0
N344 N 0.18351 0.60054 0.64935 0.0
N345 N 1.00918 0.42683 0.77086 0.0
H346 H 0.10971 0.64818 0.77269 0.0
H347 H 0.06671 0.56325 0.79789 0.0
H348 H 0.98674 0.36834 0.77403 0.0
H349 H 0.9843 0.44502 0.78873 0.0
H350 H 0.18642 0.57467 0.62552 0.0
H351 H 0.19936 0.65657 0.64486 0.0
H352 H 0.19342 0.48513 0.64083 0.0
H353 H 0.13348 0.39538 0.66246 0.0
loop_
_geom_bond_atom_site_label_1
_geom_bond_atom_site_label_2
_geom_bond_distance
_geom_bond_site_symmetry_2
_ccdc_geom_bond_type
Cu0 N1 1.999 1_554 S
Cu0 O6 1.974 . S
Cu0 N11 1.985 . S
Cu0 O20 1.959 . S
N1 Cu0 1.999 1_556 S
N1 C3 1.263 . S
N1 C5 1.389 . S
N2 C3 1.358 . S
N2 C4 1.400 . S
C3 N1 1.263 . S
C3 N2 1.358 . S
C3 H9 0.930 1_545 S
C4 N2 1.400 . S
C4 C5 1.351 . S
C4 H21 0.930 . S
C5 N1 1.389 . S
C5 C4 1.351 . S
C5 H10 0.930 . S
O6 Cu0 1.974 . S
O6 C16 1.294 . S
C7 O8 1.261 1_545 S
C7 O20 1.251 . S
O8 C7 1.261 1_565 S
H9 C3 0.930 1_565 S
H10 C5 0.930 . S
N11 Cu0 1.985 . S
N11 C13 1.335 . S
N11 C14 1.390 . S
N12 C13 1.345 . S
N12 C15 1.336 . S
C13 N11 1.335 . S
C13 N12 1.345 . S
C13 H18 0.930 . S
C14 N11 1.390 . S
C14 C15 1.346 . S
C14 H19 0.930 . S
C15 N12 1.336 . S
C15 C14 1.346 . S
C15 H22 0.929 . S
C16 O6 1.294 . S
C16 O17 1.209 1_545 S
O17 C16 1.209 1_565 S
H18 C13 0.930 . S
H19 C14 0.930 . S
O20 Cu0 1.959 . S
O20 C7 1.251 . S
H21 C4 0.930 . S
H22 C15 0.929 . S
Cu23 N24 1.999 . S
Cu23 O29 1.974 . S
Cu23 N34 1.985 . S
Cu23 O43 1.959 . S
N24 Cu23 1.999 . S
N24 C26 1.263 . S
N24 C28 1.389 . S
N25 C26 1.358 . S
N25 C27 1.400 . S
C26 N24 1.263 . S
C26 N25 1.358 . S
C26 H32 0.930 . S
C27 N25 1.400 . S
C27 C28 1.351 . S
C27 H44 0.930 . S
C28 N24 1.389 . S
C28 C27 1.351 . S
C28 H33 0.930 . S
O29 Cu23 1.974 . S
O29 C39 1.282 . S
C30 O31 1.261 . S
C30 O43 1.251 . S
O31 C30 1.261 . S
H32 C26 0.930 . S
H33 C28 0.930 . S
N34 Cu23 1.985 . S
N34 C36 1.335 . S
N34 C37 1.390 . S
N35 C36 1.345 . S
N35 C38 1.336 . S
C36 N34 1.335 . S
C36 N35 1.345 . S
C36 H41 0.930 . S
C37 N34 1.390 . S
C37 C38 1.346 . S
C37 H42 0.930 . S
C38 N35 1.336 . S
C38 C37 1.346 . S
C38 H45 0.929 . S
C39 O29 1.282 . S
C39 O40 1.216 . S
O40 C39 1.216 . S
H41 C36 0.930 . S
H42 C37 0.930 . S
O43 Cu23 1.959 . S
O43 C30 1.251 . S
H44 C27 0.930 . S
H45 C38 0.929 . S
Cu46 N47 1.999 . S
Cu46 O52 1.974 . S
Cu46 N57 1.985 . S
Cu46 O66 1.959 . S
N47 Cu46 1.999 . S
N47 C49 1.263 1_455 S
N47 C51 1.389 . S
N48 C49 1.358 . S
N48 C50 1.400 1_655 S
C49 N47 1.263 1_655 S
C49 N48 1.358 . S
C49 H55 0.930 . S
C50 N48 1.400 1_455 S
C50 C51 1.351 . S
C50 H67 0.930 . S
C51 N47 1.389 . S
C51 C50 1.351 . S
C51 H56 0.930 . S
O52 Cu46 1.974 . S
O52 C62 1.282 1_455 S
C53 O54 1.261 . S
C53 O66 1.251 1_655 S
O54 C53 1.261 . S
H55 C49 0.930 . S
H56 C51 0.930 . S
N57 Cu46 1.985 . S
N57 C59 1.335 . S
N57 C60 1.390 . S
N58 C59 1.345 . S
N58 C61 1.336 . S
C59 N57 1.335 . S
C59 N58 1.345 . S
C59 H64 0.930 . S
C60 N57 1.390 . S
C60 C61 1.346 . S
C60 H65 0.930 . S
C61 N58 1.336 . S
C61 C60 1.346 . S
C61 H68 0.929 . S
C62 O52 1.282 1_655 S
C62 O63 1.216 . S
O63 C62 1.216 . S
H64 C59 0.930 . S
H65 C60 0.930 . S
O66 Cu46 1.959 . S
O66 C53 1.251 1_455 S
H67 C50 0.930 . S
H68 C61 0.929 . S
Cu69 N70 1.999 1_564 S
Cu69 O75 1.974 1_565 S
Cu69 N80 1.985 . S
Cu69 O89 1.959 . S
N70 Cu69 1.999 1_546 S
N70 C72 1.263 . S
N70 C74 1.389 1_545 S
N71 C72 1.358 . S
N71 C73 1.400 . S
C72 N70 1.263 . S
C72 N71 1.358 . S
C72 H78 0.930 . S
C73 N71 1.400 . S
C73 C74 1.351 1_545 S
C73 H90 0.930 . S
C74 N70 1.389 1_565 S
C74 C73 1.351 1_565 S
C74 H79 0.930 . S
O75 Cu69 1.974 1_545 S
O75 C85 1.282 . S
C76 O77 1.261 . S
C76 O89 1.251 1_545 S
O77 C76 1.261 . S
H78 C72 0.930 . S
H79 C74 0.930 . S
N80 Cu69 1.985 . S
N80 C82 1.335 . S
N80 C83 1.390 1_565 S
N81 C82 1.345 . S
N81 C84 1.336 . S
C82 N80 1.335 . S
C82 N81 1.345 . S
C82 H87 0.930 . S
C83 N80 1.390 1_545 S
C83 C84 1.346 1_545 S
C83 H88 0.930 . S
C84 N81 1.336 . S
C84 C83 1.346 1_565 S
C84 H91 0.929 . S
C85 O75 1.282 . S
C85 O86 1.216 . S
O86 C85 1.216 . S
H87 C82 0.930 . S
H88 C83 0.930 . S
O89 Cu69 1.959 . S
O89 C76 1.251 1_565 S
H90 C73 0.930 . S
H91 C84 0.929 . S
Cu92 N93 1.999 . S
Cu92 O98 1.974 . S
Cu92 N103 1.985 . S
Cu92 O112 1.959 . S
N93 Cu92 1.999 . S
N93 C95 1.263 . S
N93 C97 1.389 . S
N94 C95 1.358 . S
N94 C96 1.400 . S
C95 N93 1.263 . S
C95 N94 1.358 . S
C95 H101 0.930 . S
C96 N94 1.400 . S
C96 C97 1.351 . S
C96 H113 0.930 . S
C97 N93 1.389 . S
C97 C96 1.351 . S
C97 H102 0.930 . S
O98 Cu92 1.974 . S
O98 C108 1.282 . S
C99 O100 1.261 . S
C99 O112 1.251 . S
O100 C99 1.261 . S
H101 C95 0.930 . S
H102 C97 0.930 . S
N103 Cu92 1.985 . S
N103 C105 1.335 . S
N103 C106 1.390 . S
N104 C105 1.345 . S
N104 C107 1.336 . S
C105 N103 1.335 . S
C105 N104 1.345 . S
C105 H110 0.930 . S
C106 N103 1.390 . S
C106 C107 1.346 . S
C106 H111 0.930 . S
C107 N104 1.336 . S
C107 C106 1.346 . S
C107 H114 0.929 . S
C108 O98 1.282 . S
C108 O109 1.216 . S
O109 C108 1.216 . S
H110 C105 0.930 . S
H111 C106 0.930 . S
O112 Cu92 1.959 . S
O112 C99 1.251 . S
H113 C96 0.930 . S
H114 C107 0.929 . S
Cu115 N116 1.999 . S
Cu115 O121 1.974 . S
Cu115 N126 1.985 . S
Cu115 O135 1.959 . S
N116 Cu115 1.999 . S
N116 C118 1.263 . S
N116 C120 1.389 . S
N117 C118 1.358 . S
N117 C119 1.400 . S
C118 N116 1.263 . S
C118 N117 1.358 . S
C118 H124 0.930 . S
C119 N117 1.400 . S
C119 C120 1.351 . S
C119 H136 0.930 . S
C120 N116 1.389 . S
C120 C119 1.351 . S
C120 H125 0.930 . S
O121 Cu115 1.974 . S
O121 C131 1.282 . S
C122 O123 1.254 . S
C122 O135 1.251 . S
O123 C122 1.254 . S
H124 C118 0.930 . S
H125 C120 0.930 . S
N126 Cu115 1.985 . S
N126 C128 1.335 . S
N126 C129 1.390 . S
N127 C128 1.345 . S
N127 C130 1.336 . S
C128 N126 1.335 . S
C128 N127 1.345 . S
C128 H133 0.930 . S
C129 N126 1.390 . S
C129 C130 1.346 . S
C129 H134 0.930 . S
C130 N127 1.336 . S
C130 C129 1.346 . S
C130 H137 0.929 . S
C131 O121 1.282 . S
C131 O132 1.216 . S
O132 C131 1.216 . S
H133 C128 0.930 . S
H134 C129 0.930 . S
O135 Cu115 1.959 . S
O135 C122 1.251 . S
H136 C119 0.930 . S
H137 C130 0.929 . S
C138 C139 1.363 . S
C138 C144 1.379 . S
C138 N146 1.356 . S
C139 C138 1.363 . S
C139 C145 1.363 . S
C140 C141 1.363 . S
C140 C145 1.379 . S
C140 N147 1.356 . S
C141 C140 1.363 . S
C141 C144 1.363 . S
N142 C144 1.356 . S
N142 H154 0.984 . S
N142 H155 0.985 . S
N143 C145 1.356 . S
N143 H148 0.984 . S
N143 H149 0.985 . S
C144 C138 1.379 . S
C144 C141 1.363 . S
C144 N142 1.356 . S
C145 C139 1.363 . S
C145 C140 1.379 . S
C145 N143 1.356 . S
N146 C138 1.356 . S
N146 H152 0.984 1_545 S
N146 H153 0.984 . S
N147 C140 1.356 . S
N147 H150 0.984 . S
N147 H151 0.985 . S
H148 N143 0.984 . S
H149 N143 0.985 . S
H150 N147 0.984 . S
H151 N147 0.985 . S
H152 N146 0.984 1_565 S
H153 N146 0.984 . S
H154 N142 0.984 . S
H155 N142 0.985 . S
C156 C157 1.363 . S
C156 C162 1.379 . S
C156 N164 1.356 . S
C157 C156 1.363 . S
C157 C163 1.363 . S
C158 C159 1.363 . S
C158 C163 1.379 . S
C158 N165 1.356 . S
C159 C158 1.363 . S
C159 C162 1.363 . S
N160 C162 1.356 . S
N160 H172 0.984 . S
N160 H173 0.985 . S
N161 C163 1.356 . S
N161 H166 0.984 . S
N161 H167 0.985 . S
C162 C156 1.379 . S
C162 C159 1.363 . S
C162 N160 1.356 . S
C163 C157 1.363 . S
C163 C158 1.379 . S
C163 N161 1.356 . S
N164 C156 1.356 . S
N164 H170 0.984 . S
N164 H171 0.984 . S
N165 C158 1.356 . S
N165 H168 0.984 . S
N165 H169 0.985 1_455 S
H166 N161 0.984 . S
H167 N161 0.985 . S
H168 N165 0.984 . S
H169 N165 0.985 1_655 S
H170 N164 0.984 . S
H171 N164 0.984 . S
H172 N160 0.984 . S
H173 N160 0.985 . S
C174 C175 1.363 . S
C174 C180 1.379 . S
C174 N182 1.356 1_545 S
C175 C174 1.363 . S
C175 C181 1.363 . S
C176 C177 1.363 . S
C176 C181 1.379 . S
C176 N183 1.356 . S
C177 C176 1.363 . S
C177 C180 1.363 . S
N178 C180 1.356 . S
N178 H190 0.984 . S
N178 H191 0.985 . S
N179 C181 1.356 . S
N179 H184 0.984 . S
N179 H185 0.985 . S
C180 C174 1.379 . S
C180 C177 1.363 . S
C180 N178 1.356 . S
C181 C175 1.363 . S
C181 C176 1.379 . S
C181 N179 1.356 . S
N182 C174 1.356 1_565 S
N182 H188 0.984 . S
N182 H189 0.984 . S
N183 C176 1.356 . S
N183 H186 0.984 . S
N183 H187 0.985 . S
H184 N179 0.984 . S
H185 N179 0.985 . S
H186 N183 0.984 . S
H187 N183 0.985 . S
H188 N182 0.984 . S
H189 N182 0.984 . S
H190 N178 0.984 . S
H191 N178 0.985 . S
C192 C193 1.363 . S
C192 C198 1.379 . S
C192 N200 1.356 . S
C193 C192 1.363 . S
C193 C199 1.363 . S
C194 C195 1.363 . S
C194 C199 1.379 . S
C194 N201 1.356 . S
C195 C194 1.363 . S
C195 C198 1.363 . S
N196 C198 1.356 . S
N196 H208 0.984 . S
N196 H209 0.985 . S
N197 C199 1.356 1_545 S
N197 H202 0.984 . S
N197 H203 0.985 . S
C198 C192 1.379 . S
C198 C195 1.363 . S
C198 N196 1.356 . S
C199 C193 1.363 . S
C199 C194 1.379 . S
C199 N197 1.356 1_565 S
N200 C192 1.356 . S
N200 H206 0.984 . S
N200 H207 0.984 . S
N201 C194 1.356 . S
N201 H204 0.984 . S
N201 H205 0.985 . S
H202 N197 0.984 . S
H203 N197 0.985 . S
H204 N201 0.984 . S
H205 N201 0.985 . S
H206 N200 0.984 . S
H207 N200 0.984 . S
H208 N196 0.984 . S
H209 N196 0.985 . S
C210 C211 1.363 . S
C210 C216 1.379 1_455 S
C210 N218 1.356 . S
C211 C210 1.363 . S
C211 C217 1.363 . S
C212 C213 1.363 1_455 S
C212 C217 1.379 . S
C212 N219 1.356 . S
C213 C212 1.363 1_655 S
C213 C216 1.363 . S
N214 C216 1.356 . S
N214 H226 0.984 . S
N214 H227 0.985 . S
N215 C217 1.356 . S
N215 H220 0.984 . S
N215 H221 0.985 . S
C216 C210 1.379 1_655 S
C216 C213 1.363 . S
C216 N214 1.356 . S
C217 C211 1.363 . S
C217 C212 1.379 . S
C217 N215 1.356 . S
N218 C210 1.356 . S
N218 H224 0.984 1_455 S
N218 H225 0.984 . S
N219 C212 1.356 . S
N219 H222 0.984 1_455 S
N219 H223 0.985 . S
H220 N215 0.984 . S
H221 N215 0.985 . S
H222 N219 0.984 1_655 S
H223 N219 0.985 . S
H224 N218 0.984 1_655 S
H225 N218 0.984 . S
H226 N214 0.984 . S
H227 N214 0.985 . S
C228 C229 1.363 . S
C228 C234 1.379 . S
C228 N236 1.356 . S
C229 C228 1.363 . S
C229 C235 1.363 . S
C230 C231 1.363 . S
C230 C235 1.379 . S
C230 N237 1.356 . S
C231 C230 1.363 . S
C231 C234 1.363 . S
N232 C234 1.356 . S
N232 H244 0.984 . S
N232 H245 0.985 . S
N233 C235 1.356 1_545 S
N233 H238 0.984 . S
N233 H239 0.985 . S
C234 C228 1.379 . S
C234 C231 1.363 . S
C234 N232 1.356 . S
C235 C229 1.363 . S
C235 C230 1.379 . S
C235 N233 1.356 1_565 S
N236 C228 1.356 . S
N236 H242 0.984 . S
N236 H243 0.984 . S
N237 C230 1.356 . S
N237 H240 0.984 . S
N237 H241 0.985 1_565 S
H238 N233 0.984 . S
H239 N233 0.985 . S
H240 N237 0.984 . S
H241 N237 0.985 1_545 S
H242 N236 0.984 . S
H243 N236 0.984 . S
H244 N232 0.984 . S
H245 N232 0.985 . S
C246 C247 1.363 . S
C246 C252 1.379 . S
C246 N254 1.356 1_554 S
C247 C246 1.363 . S
C247 C253 1.363 1_545 S
C248 C249 1.360 1_565 S
C248 C253 1.382 . S
C248 N255 1.355 1_455 S
C249 C248 1.360 1_545 S
C249 C252 1.363 . S
N250 C252 1.356 1_556 S
N250 H262 0.984 . S
N250 H263 0.985 . S
N251 C253 1.356 . S
N251 H256 0.984 . S
N251 H257 0.985 . S
C252 C246 1.379 . S
C252 C249 1.363 . S
C252 N250 1.356 1_554 S
C253 C247 1.363 1_565 S
C253 C248 1.382 . S
C253 N251 1.356 . S
N254 C246 1.356 1_556 S
N254 H260 0.984 . S
N254 H261 0.984 . S
N255 C248 1.355 1_655 S
N255 H258 0.984 . S
N255 H259 0.985 . S
H256 N251 0.984 . S
H257 N251 0.985 . S
H258 N255 0.984 . S
H259 N255 0.985 . S
H260 N254 0.984 . S
H261 N254 0.984 . S
H262 N250 0.984 . S
H263 N250 0.985 . S
C264 C265 1.363 . S
C264 C270 1.379 1_565 S
C264 N272 1.356 . S
C265 C264 1.363 . S
C265 C271 1.363 1_565 S
C266 C267 1.363 . S
C266 C271 1.379 . S
C266 N273 1.356 . S
C267 C266 1.363 . S
C267 C270 1.363 . S
N268 C270 1.356 . S
N268 H280 0.984 . S
N268 H281 0.985 . S
N269 C271 1.356 1_655 S
N269 H274 0.984 1_545 S
N269 H275 0.985 . S
C270 C264 1.379 1_545 S
C270 C267 1.363 . S
C270 N268 1.356 . S
C271 C265 1.363 1_545 S
C271 C266 1.379 . S
C271 N269 1.356 1_455 S
N272 C264 1.356 . S
N272 H278 0.984 . S
N272 H279 0.984 1_455 S
N273 C266 1.356 . S
N273 H276 0.984 . S
N273 H277 0.985 . S
H274 N269 0.984 1_565 S
H275 N269 0.985 . S
H276 N273 0.984 . S
H277 N273 0.985 . S
H278 N272 0.984 . S
H279 N272 0.984 1_655 S
H280 N268 0.984 . S
H281 N268 0.985 . S
C282 C283 1.363 1_565 S
C282 C288 1.379 . S
C282 N290 1.356 1_455 S
C283 C282 1.363 1_545 S
C283 C289 1.363 . S
C284 C285 1.363 . S
C284 C289 1.379 . S
C284 N291 1.356 . S
C285 C284 1.363 . S
C285 C288 1.363 1_545 S
N286 C288 1.356 . S
N286 H298 0.984 . S
N286 H299 0.985 . S
N287 C289 1.356 . S
N287 H292 0.984 . S
N287 H293 0.985 . S
C288 C282 1.379 . S
C288 C285 1.363 1_565 S
C288 N286 1.356 . S
C289 C283 1.363 . S
C289 C284 1.379 . S
C289 N287 1.356 . S
N290 C282 1.356 1_655 S
N290 H296 0.984 . S
N290 H297 0.984 . S
N291 C284 1.356 . S
N291 H294 0.984 . S
N291 H295 0.985 . S
H292 N287 0.984 . S
H293 N287 0.985 . S
H294 N291 0.984 . S
H295 N291 0.985 . S
H296 N290 0.984 . S
H297 N290 0.984 . S
H298 N286 0.984 . S
H299 N286 0.985 . S
C300 C301 1.363 1_556 S
C300 C306 1.379 . S
C300 N308 1.356 . S
C301 C300 1.363 1_554 S
C301 C307 1.363 . S
C302 C303 1.363 1_565 S
C302 C307 1.379 1_565 S
C302 N309 1.356 . S
C303 C302 1.363 1_545 S
C303 C306 1.363 1_554 S
N304 C306 1.356 . S
N304 H316 0.984 . S
N304 H317 0.985 . S
N305 C307 1.356 1_565 S
N305 H310 0.984 1_565 S
N305 H311 0.985 . S
C306 C300 1.379 . S
C306 C303 1.363 1_556 S
C306 N304 1.356 . S
C307 C301 1.363 . S
C307 C302 1.379 1_545 S
C307 N305 1.356 1_545 S
N308 C300 1.356 . S
N308 H314 0.984 . S
N308 H315 0.984 . S
N309 C302 1.356 . S
N309 H312 0.984 . S
N309 H313 0.985 . S
H310 N305 0.984 1_545 S
H311 N305 0.985 . S
H312 N309 0.984 . S
H313 N309 0.985 . S
H314 N308 0.984 . S
H315 N308 0.984 . S
H316 N304 0.984 . S
H317 N304 0.985 . S
C318 C319 1.363 . S
C318 C324 1.379 . S
C318 N326 1.356 . S
C319 C318 1.363 . S
C319 C325 1.363 . S
C320 C321 1.363 . S
C320 C325 1.379 . S
C320 N327 1.356 . S
C321 C320 1.363 . S
C321 C324 1.363 . S
N322 C324 1.356 . S
N322 H334 0.984 . S
N322 H335 0.985 . S
N323 C325 1.356 . S
N323 H328 0.984 . S
N323 H329 0.985 . S
C324 C318 1.379 . S
C324 C321 1.363 . S
C324 N322 1.356 . S
C325 C319 1.363 . S
C325 C320 1.379 . S
C325 N323 1.356 . S
N326 C318 1.356 . S
N326 H332 0.984 . S
N326 H333 0.984 . S
N327 C320 1.356 . S
N327 H330 0.984 . S
N327 H331 0.985 . S
H328 N323 0.984 . S
H329 N323 0.985 . S
H330 N327 0.984 . S
H331 N327 0.985 . S
H332 N326 0.984 . S
H333 N326 0.984 . S
H334 N322 0.984 . S
H335 N322 0.985 . S
C336 C337 1.363 . S
C336 C342 1.379 . S
C336 N344 1.356 . S
C337 C336 1.363 . S
C337 C343 1.363 . S
C338 C339 1.363 . S
C338 C343 1.379 . S
C338 N345 1.356 . S
C339 C338 1.363 . S
C339 C342 1.363 . S
N340 C342 1.356 1_655 S
N340 H352 0.984 . S
N340 H353 0.985 . S
N341 C343 1.356 . S
N341 H346 0.984 . S
N341 H347 0.985 . S
C342 C336 1.379 . S
C342 C339 1.363 . S
C342 N340 1.356 1_455 S
C343 C337 1.363 . S
C343 C338 1.379 . S
C343 N341 1.356 . S
N344 C336 1.356 . S
N344 H350 0.984 . S
N344 H351 0.984 . S
N345 C338 1.356 . S
N345 H348 0.984 . S
N345 H349 0.985 . S
H346 N341 0.984 . S
H347 N341 0.985 . S
H348 N345 0.984 . S
H349 N345 0.985 . S
H350 N344 0.984 . S
H351 N344 0.984 . S
H352 N340 0.984 . S
H353 N340 0.985 . S
C139 N12 1.684 . S
C141 N25 1.576 . S
C157 N35 1.620 . S
C159 N58 1.602 . S
C175 N71 1.701 . S
C177 N48 1.667 . S
C193 N81 1.684 . S
C195 N94 1.576 . S
C211 N127 1.603 . S
C213 N104 1.620 . S
C229 N2 1.701 1_565 S
C231 N117 1.666 . S
C247 C7 1.738 . S
C249 C76 1.738 1_455 S
C265 C99 0.454 1_455 S
C267 C30 0.454 . S
C283 C53 1.762 1_455 S
C285 C122 1.761 1_545 S
C301 C85 1.760 . S
C303 C16 1.754 . S
C319 C108 1.333 . S
C321 C39 1.333 . S
C337 C131 2.152 . S
C339 C62 2.152 1_455 S
