# Generated by pormake.
# Topology uoe, (4)-cn, num edge types: 1
# Building blocks:
#     Node 0, Type 0, BuildingBlock: QUQFOY_clean_sbu_1, # of connection points: 4
#     Node 1, Type 0, BuildingBlock: QUQFOY_clean_sbu_1, # of connection points: 4
#     Node 2, Type 0, BuildingBlock: QUQFOY_clean_sbu_1, # of connection points: 4
#     Node 3, Type 0, BuildingBlock: QUQFOY_clean_sbu_1, # of connection points: 4
#     Node 4, Type 0, BuildingBlock: QUQFOY_clean_sbu_1, # of connection points: 4
#     Node 5, Type 0, BuildingBlock: QUQFOY_clean_sbu_1, # of connection points: 4
#     Node 6, Type 0, BuildingBlock: QUQFOY_clean_sbu_1, # of connection points: 4
#     Node 7, Type 0, BuildingBlock: QUQFOY_clean_sbu_1, # of connection points: 4
#     Node 8, Type 0, BuildingBlock: QUQFOY_clean_sbu_1, # of connection points: 4
#     Node 9, Type 0, BuildingBlock: QUQFOY_clean_sbu_1, # of connection points: 4
#     Node 10, Type 0, BuildingBlock: QUQFOY_clean_sbu_1, # of connection points: 4
#     Node 11, Type 0, BuildingBlock: QUQFOY_clean_sbu_1, # of connection points: 4
#     Node 12, Type 0, BuildingBlock: QUQFOY_clean_sbu_1, # of connection points: 4
#     Node 13, Type 0, BuildingBlock: QUQFOY_clean_sbu_1, # of connection points: 4
#     Node 14, Type 0, BuildingBlock: QUQFOY_clean_sbu_1, # of connection points: 4
#     Node 15, Type 0, BuildingBlock: QUQFOY_clean_sbu_1, # of connection points: 4
#     Node 16, Type 0, BuildingBlock: QUQFOY_clean_sbu_1, # of connection points: 4
#     Node 17, Type 0, BuildingBlock: QUQFOY_clean_sbu_1, # of connection points: 4
#     Node 18, Type 0, BuildingBlock: QUQFOY_clean_sbu_1, # of connection points: 4
#     Node 19, Type 0, BuildingBlock: QUQFOY_clean_sbu_1, # of connection points: 4
#     Node 20, Type 0, BuildingBlock: QUQFOY_clean_sbu_1, # of connection points: 4
#     Node 21, Type 0, BuildingBlock: QUQFOY_clean_sbu_1, # of connection points: 4
#     Node 22, Type 0, BuildingBlock: QUQFOY_clean_sbu_1, # of connection points: 4
#     Node 23, Type 0, BuildingBlock: QUQFOY_clean_sbu_1, # of connection points: 4
#     Node 24, Type 0, BuildingBlock: QUQFOY_clean_sbu_1, # of connection points: 4
#     Node 25, Type 0, BuildingBlock: QUQFOY_clean_sbu_1, # of connection points: 4
#     Node 26, Type 0, BuildingBlock: QUQFOY_clean_sbu_1, # of connection points: 4
#     Node 27, Type 0, BuildingBlock: QUQFOY_clean_sbu_1, # of connection points: 4
#     Node 28, Type 0, BuildingBlock: QUQFOY_clean_sbu_1, # of connection points: 4
#     Node 29, Type 0, BuildingBlock: QUQFOY_clean_sbu_1, # of connection points: 4
#     Node 30, Type 0, BuildingBlock: QUQFOY_clean_sbu_1, # of connection points: 4
#     Node 31, Type 0, BuildingBlock: QUQFOY_clean_sbu_1, # of connection points: 4
#     Edge 32, Type (0, 0), BuildingBlock: OJICUG_clean_linker_0, # of connection points: 2
#     Edge 33, Type (0, 0), BuildingBlock: OJICUG_clean_linker_0, # of connection points: 2
#     Edge 34, Type (0, 0), BuildingBlock: OJICUG_clean_linker_0, # of connection points: 2
#     Edge 35, Type (0, 0), BuildingBlock: OJICUG_clean_linker_0, # of connection points: 2
#     Edge 36, Type (0, 0), BuildingBlock: OJICUG_clean_linker_0, # of connection points: 2
#     Edge 37, Type (0, 0), BuildingBlock: OJICUG_clean_linker_0, # of connection points: 2
#     Edge 38, Type (0, 0), BuildingBlock: OJICUG_clean_linker_0, # of connection points: 2
#     Edge 39, Type (0, 0), BuildingBlock: OJICUG_clean_linker_0, # of connection points: 2
#     Edge 40, Type (0, 0), BuildingBlock: OJICUG_clean_linker_0, # of connection points: 2
#     Edge 41, Type (0, 0), BuildingBlock: OJICUG_clean_linker_0, # of connection points: 2
#     Edge 42, Type (0, 0), BuildingBlock: OJICUG_clean_linker_0, # of connection points: 2
#     Edge 43, Type (0, 0), BuildingBlock: OJICUG_clean_linker_0, # of connection points: 2
#     Edge 44, Type (0, 0), BuildingBlock: OJICUG_clean_linker_0, # of connection points: 2
#     Edge 45, Type (0, 0), BuildingBlock: OJICUG_clean_linker_0, # of connection points: 2
#     Edge 46, Type (0, 0), BuildingBlock: OJICUG_clean_linker_0, # of connection points: 2
#     Edge 47, Type (0, 0), BuildingBlock: OJICUG_clean_linker_0, # of connection points: 2
#     Edge 48, Type (0, 0), BuildingBlock: OJICUG_clean_linker_0, # of connection points: 2
#     Edge 49, Type (0, 0), BuildingBlock: OJICUG_clean_linker_0, # of connection points: 2
#     Edge 50, Type (0, 0), BuildingBlock: OJICUG_clean_linker_0, # of connection points: 2
#     Edge 51, Type (0, 0), BuildingBlock: OJICUG_clean_linker_0, # of connection points: 2
#     Edge 52, Type (0, 0), BuildingBlock: OJICUG_clean_linker_0, # of connection points: 2
#     Edge 53, Type (0, 0), BuildingBlock: OJICUG_clean_linker_0, # of connection points: 2
#     Edge 54, Type (0, 0), BuildingBlock: OJICUG_clean_linker_0, # of connection points: 2
#     Edge 55, Type (0, 0), BuildingBlock: OJICUG_clean_linker_0, # of connection points: 2
#     Edge 56, Type (0, 0), BuildingBlock: OJICUG_clean_linker_0, # of connection points: 2
#     Edge 57, Type (0, 0), BuildingBlock: OJICUG_clean_linker_0, # of connection points: 2
#     Edge 58, Type (0, 0), BuildingBlock: OJICUG_clean_linker_0, # of connection points: 2
#     Edge 59, Type (0, 0), BuildingBlock: OJICUG_clean_linker_0, # of connection points: 2
#     Edge 60, Type (0, 0), BuildingBlock: OJICUG_clean_linker_0, # of connection points: 2
#     Edge 61, Type (0, 0), BuildingBlock: OJICUG_clean_linker_0, # of connection points: 2
#     Edge 62, Type (0, 0), BuildingBlock: OJICUG_clean_linker_0, # of connection points: 2
#     Edge 63, Type (0, 0), BuildingBlock: OJICUG_clean_linker_0, # of connection points: 2
#     Edge 64, Type (0, 0), BuildingBlock: OJICUG_clean_linker_0, # of connection points: 2
#     Edge 65, Type (0, 0), BuildingBlock: OJICUG_clean_linker_0, # of connection points: 2
#     Edge 66, Type (0, 0), BuildingBlock: OJICUG_clean_linker_0, # of connection points: 2
#     Edge 67, Type (0, 0), BuildingBlock: OJICUG_clean_linker_0, # of connection points: 2
#     Edge 68, Type (0, 0), BuildingBlock: OJICUG_clean_linker_0, # of connection points: 2
#     Edge 69, Type (0, 0), BuildingBlock: OJICUG_clean_linker_0, # of connection points: 2
#     Edge 70, Type (0, 0), BuildingBlock: OJICUG_clean_linker_0, # of connection points: 2
#     Edge 71, Type (0, 0), BuildingBlock: OJICUG_clean_linker_0, # of connection points: 2
#     Edge 72, Type (0, 0), BuildingBlock: OJICUG_clean_linker_0, # of connection points: 2
#     Edge 73, Type (0, 0), BuildingBlock: OJICUG_clean_linker_0, # of connection points: 2
#     Edge 74, Type (0, 0), BuildingBlock: OJICUG_clean_linker_0, # of connection points: 2
#     Edge 75, Type (0, 0), BuildingBlock: OJICUG_clean_linker_0, # of connection points: 2
#     Edge 76, Type (0, 0), BuildingBlock: OJICUG_clean_linker_0, # of connection points: 2
#     Edge 77, Type (0, 0), BuildingBlock: OJICUG_clean_linker_0, # of connection points: 2
#     Edge 78, Type (0, 0), BuildingBlock: OJICUG_clean_linker_0, # of connection points: 2
#     Edge 79, Type (0, 0), BuildingBlock: OJICUG_clean_linker_0, # of connection points: 2
#     Edge 80, Type (0, 0), BuildingBlock: OJICUG_clean_linker_0, # of connection points: 2
#     Edge 81, Type (0, 0), BuildingBlock: OJICUG_clean_linker_0, # of connection points: 2
#     Edge 82, Type (0, 0), BuildingBlock: OJICUG_clean_linker_0, # of connection points: 2
#     Edge 83, Type (0, 0), BuildingBlock: OJICUG_clean_linker_0, # of connection points: 2
#     Edge 84, Type (0, 0), BuildingBlock: OJICUG_clean_linker_0, # of connection points: 2
#     Edge 85, Type (0, 0), BuildingBlock: OJICUG_clean_linker_0, # of connection points: 2
#     Edge 86, Type (0, 0), BuildingBlock: OJICUG_clean_linker_0, # of connection points: 2
#     Edge 87, Type (0, 0), BuildingBlock: OJICUG_clean_linker_0, # of connection points: 2
#     Edge 88, Type (0, 0), BuildingBlock: OJICUG_clean_linker_0, # of connection points: 2
#     Edge 89, Type (0, 0), BuildingBlock: OJICUG_clean_linker_0, # of connection points: 2
#     Edge 90, Type (0, 0), BuildingBlock: OJICUG_clean_linker_0, # of connection points: 2
#     Edge 91, Type (0, 0), BuildingBlock: OJICUG_clean_linker_0, # of connection points: 2
#     Edge 92, Type (0, 0), BuildingBlock: OJICUG_clean_linker_0, # of connection points: 2
#     Edge 93, Type (0, 0), BuildingBlock: OJICUG_clean_linker_0, # of connection points: 2
#     Edge 94, Type (0, 0), BuildingBlock: OJICUG_clean_linker_0, # of connection points: 2
#     Edge 95, Type (0, 0), BuildingBlock: OJICUG_clean_linker_0, # of connection points: 2
# Relax obj value: 0.066
# Max RMSD: 0.142
# Mean RMSD: 0.142
data_MOF--net-uoe--node1-QUQFOY_clean_sbu_1--edge1-OJICUG_clean_linker_0
_symmetry_space_group_name_H-M    P1
_symmetry_Int_Tables_number       1
_symmetry_cell_setting            triclinic
loop_
_symmetry_equiv_pos_as_xyz
'x, y, z'
_cell_length_a     57.529628
_cell_length_b     57.670881
_cell_length_c     20.760469
_cell_angle_alpha  90.073577
_cell_angle_beta   90.023553
_cell_angle_gamma 90.241634
loop_
_atom_site_label
_atom_site_type_symbol
_atom_site_fract_x
_atom_site_fract_y
_atom_site_fract_z
_atom_type_partial_charge
O0 O 0.10674 0.48207 0.21607 0.0
Cd1 Cd 0.09486 0.46443 0.1374 0.0
Cd2 Cd 0.11212 0.5024 0.08039 0.0
O3 O 0.13142 0.50472 0.16435 0.0
O4 O 0.09418 0.43154 0.16776 0.0
O5 O 0.12051 0.44572 0.09997 0.0
C6 C 0.11374 0.42921 0.13792 0.0
C7 C 0.12729 0.50646 0.97686 0.0
C8 C 0.12409 0.49574 0.21648 0.0
C9 C 0.06027 0.49697 0.08508 0.0
O10 O 0.07737 0.51099 0.08438 0.0
O11 O 0.06367 0.47553 0.09673 0.0
O12 O 0.12516 0.52409 0.01472 0.0
O13 O 0.12249 0.48616 0.99985 0.0
O14 O 0.79554 0.86811 0.44526 0.0
Cd15 Cd 0.81399 0.84862 0.38112 0.0
Cd16 Cd 0.77367 0.86458 0.30901 0.0
O17 O 0.76783 0.8851 0.38921 0.0
O18 O 0.84196 0.84347 0.43683 0.0
O19 O 0.84312 0.8641 0.3474 0.0
C20 C 0.85321 0.85749 0.39989 0.0
C21 C 0.76886 0.87811 0.20344 0.0
C22 C 0.77886 0.88233 0.4417 0.0
C23 C 0.7794 0.81273 0.33568 0.0
O24 O 0.76668 0.82963 0.31859 0.0
O25 O 0.79997 0.81626 0.35683 0.0
O26 O 0.75131 0.87462 0.24082 0.0
O27 O 0.7894 0.87524 0.22737 0.0
O28 O 0.41237 0.55098 0.68952 0.0
Cd29 Cd 0.43098 0.56944 0.62302 0.0
Cd30 Cd 0.41414 0.52941 0.5533 0.0
O31 O 0.3937 0.52408 0.63396 0.0
O32 O 0.43629 0.59787 0.67658 0.0
O33 O 0.4144 0.59769 0.58916 0.0
C34 C 0.42146 0.60834 0.64046 0.0
C35 C 0.40034 0.52465 0.44792 0.0
C36 C 0.39743 0.53479 0.68655 0.0
C37 C 0.46635 0.53528 0.57527 0.0
O38 O 0.44912 0.52226 0.56178 0.0
O39 O 0.46314 0.55605 0.59473 0.0
O40 O 0.4035 0.50714 0.48541 0.0
O41 O 0.40359 0.54513 0.47176 0.0
O42 O 0.73468 0.16975 0.96361 0.0
Cd43 Cd 0.71689 0.18265 0.88689 0.0
Cd44 Cd 0.75535 0.16649 0.8271 0.0
O45 O 0.75886 0.14713 0.91039 0.0
O46 O 0.68418 0.18342 0.91958 0.0
O47 O 0.69704 0.15803 0.84756 0.0
C48 C 0.68099 0.16449 0.8874 0.0
C49 C 0.75982 0.15158 0.72329 0.0
C50 C 0.74937 0.15341 0.96288 0.0
C51 C 0.74949 0.21829 0.83811 0.0
O52 O 0.76341 0.20134 0.83251 0.0
O53 O 0.72817 0.2146 0.85172 0.0
O54 O 0.77742 0.1544 0.76107 0.0
O55 O 0.73936 0.15567 0.74632 0.0
O56 O 0.11751 0.54686 0.46077 0.0
Cd57 Cd 0.09803 0.56684 0.52113 0.0
Cd58 Cd 0.11227 0.52652 0.59801 0.0
O59 O 0.13225 0.51843 0.51879 0.0
O60 O 0.09363 0.59351 0.46053 0.0
O61 O 0.11346 0.59656 0.55108 0.0
C62 C 0.10732 0.60552 0.49667 0.0
C63 C 0.12593 0.52097 0.70324 0.0
C64 C 0.13047 0.52925 0.46577 0.0
C65 C 0.0607 0.53382 0.56631 0.0
O66 O 0.07704 0.52112 0.58738 0.0
O67 O 0.06502 0.55385 0.54283 0.0
O68 O 0.121 0.50371 0.66616 0.0
O69 O 0.12418 0.54159 0.67942 0.0
O70 O 0.72814 0.8674 0.68705 0.0
Cd71 Cd 0.70913 0.84854 0.75177 0.0
Cd72 Cd 0.74954 0.86511 0.82344 0.0
O73 O 0.75537 0.88546 0.74304 0.0
O74 O 0.68154 0.84274 0.69505 0.0
O75 O 0.67998 0.86456 0.78235 0.0
C76 C 0.67021 0.85733 0.7299 0.0
C77 C 0.75451 0.87868 0.92899 0.0
C78 C 0.74461 0.88202 0.69037 0.0
C79 C 0.7431 0.81308 0.80032 0.0
O80 O 0.75621 0.83014 0.81462 0.0
O81 O 0.72241 0.81644 0.78014 0.0
O82 O 0.77202 0.87526 0.89147 0.0
O83 O 0.73394 0.87582 0.9051 0.0
O84 O 0.40984 0.4836 0.93104 0.0
Cd85 Cd 0.42947 0.46465 0.99363 0.0
Cd86 Cd 0.41374 0.50508 0.06781 0.0
O87 O 0.39332 0.51143 0.98774 0.0
O88 O 0.43477 0.4374 0.93544 0.0
O89 O 0.41415 0.43507 0.02475 0.0
C90 C 0.42084 0.42563 0.97142 0.0
C91 C 0.40032 0.51019 0.1735 0.0
C92 C 0.39587 0.50048 0.93505 0.0
C93 C 0.46568 0.49884 0.04021 0.0
O94 O 0.44886 0.51154 0.05812 0.0
O95 O 0.46198 0.47845 0.01816 0.0
O96 O 0.40412 0.52761 0.13606 0.0
O97 O 0.4028 0.48964 0.14957 0.0
O98 O 0.80071 0.1643 0.20831 0.0
Cd99 Cd 0.82036 0.18261 0.27278 0.0
Cd100 Cd 0.78023 0.16686 0.34541 0.0
O101 O 0.77316 0.14709 0.26497 0.0
O102 O 0.84836 0.18701 0.21667 0.0
O103 O 0.84878 0.16572 0.30495 0.0
C104 C 0.85901 0.17226 0.25254 0.0
C105 C 0.77472 0.15262 0.44988 0.0
C106 C 0.78374 0.15029 0.21202 0.0
C107 C 0.78719 0.21882 0.32091 0.0
O108 O 0.77419 0.20193 0.33723 0.0
O109 O 0.80769 0.2152 0.29951 0.0
O110 O 0.75739 0.15703 0.41259 0.0
O111 O 0.7954 0.15509 0.42649 0.0
O112 O 0.92092 0.54764 0.90898 0.0
Cd113 Cd 0.93277 0.56544 0.98739 0.0
Cd114 Cd 0.91558 0.52749 0.04496 0.0
O115 O 0.89624 0.52507 0.96102 0.0
O116 O 0.93338 0.59829 0.95656 0.0
O117 O 0.90709 0.58418 0.02457 0.0
C118 C 0.91382 0.60063 0.98638 0.0
C119 C 0.9006 0.52323 0.14871 0.0
C120 C 0.90357 0.53396 0.90875 0.0
C121 C 0.96744 0.53304 0.03982 0.0
O122 O 0.95035 0.519 0.04068 0.0
O123 O 0.96401 0.55447 0.02808 0.0
O124 O 0.90272 0.50567 0.11062 0.0
O125 O 0.90526 0.54358 0.12585 0.0
O126 O 0.23331 0.16068 0.68158 0.0
Cd127 Cd 0.21476 0.17981 0.74637 0.0
Cd128 Cd 0.2553 0.16465 0.81725 0.0
O129 O 0.2615 0.14427 0.73713 0.0
O130 O 0.18635 0.18427 0.69202 0.0
O131 O 0.18619 0.16381 0.78182 0.0
C132 C 0.17561 0.17014 0.72981 0.0
C133 C 0.26015 0.1511 0.92268 0.0
C134 C 0.25031 0.14682 0.68482 0.0
C135 C 0.24883 0.21635 0.79041 0.0
O136 O 0.26183 0.19967 0.80752 0.0
O137 O 0.22825 0.21246 0.76973 0.0
O138 O 0.27771 0.15488 0.88554 0.0
O139 O 0.23961 0.15373 0.89858 0.0
O140 O 0.60544 0.48329 0.40906 0.0
Cd141 Cd 0.59393 0.46553 0.48772 0.0
Cd142 Cd 0.61129 0.50348 0.54553 0.0
O143 O 0.62997 0.50624 0.46062 0.0
O144 O 0.59373 0.43254 0.45764 0.0
O145 O 0.61994 0.44729 0.52503 0.0
C146 C 0.61337 0.43058 0.48733 0.0
C147 C 0.62707 0.50799 0.64834 0.0
C148 C 0.62254 0.49727 0.40848 0.0
C149 C 0.55932 0.49791 0.54135 0.0
O150 O 0.57647 0.51186 0.54322 0.0
O151 O 0.56264 0.47655 0.52825 0.0
O152 O 0.62449 0.52548 0.61036 0.0
O153 O 0.62239 0.48758 0.62581 0.0
O154 O 0.29757 0.8644 0.1885 0.0
Cd155 Cd 0.3163 0.84607 0.25468 0.0
Cd156 Cd 0.27605 0.86239 0.32522 0.0
O157 O 0.27007 0.88207 0.24377 0.0
O158 O 0.34458 0.84083 0.20041 0.0
O159 O 0.34488 0.86263 0.28794 0.0
C160 C 0.35534 0.85557 0.23646 0.0
C161 C 0.27094 0.87686 0.42966 0.0
C162 C 0.28091 0.87868 0.19129 0.0
C163 C 0.28245 0.81032 0.30382 0.0
O164 O 0.26942 0.82729 0.31853 0.0
O165 O 0.30301 0.81385 0.28269 0.0
O166 O 0.25349 0.87288 0.39226 0.0
O167 O 0.29155 0.87399 0.40623 0.0
O168 O 0.91027 0.48222 0.66553 0.0
Cd169 Cd 0.93005 0.46191 0.60679 0.0
Cd170 Cd 0.91576 0.50235 0.52768 0.0
O171 O 0.89575 0.51059 0.60678 0.0
O172 O 0.93502 0.4361 0.66998 0.0
O173 O 0.91512 0.43149 0.58013 0.0
C174 C 0.92151 0.42335 0.6353 0.0
C175 C 0.90224 0.50818 0.4223 0.0
C176 C 0.89738 0.49987 0.66 0.0
C177 C 0.96731 0.49495 0.56036 0.0
O178 O 0.95101 0.50756 0.53863 0.0
O179 O 0.96297 0.47504 0.58456 0.0
O180 O 0.90727 0.52534 0.45963 0.0
O181 O 0.90381 0.48752 0.44589 0.0
O182 O 0.30027 0.16311 0.43777 0.0
Cd183 Cd 0.31851 0.1811 0.36953 0.0
Cd184 Cd 0.27851 0.16451 0.30232 0.0
O185 O 0.2733 0.14421 0.38307 0.0
O186 O 0.34768 0.186 0.42037 0.0
O187 O 0.34602 0.16385 0.33354 0.0
C188 C 0.35741 0.17084 0.38369 0.0
C189 C 0.27402 0.15065 0.19709 0.0
C190 C 0.28409 0.14814 0.43542 0.0
C191 C 0.28449 0.21653 0.32293 0.0
O192 O 0.27124 0.19938 0.3106 0.0
O193 O 0.30541 0.21325 0.34124 0.0
O194 O 0.25637 0.15372 0.23434 0.0
O195 O 0.29449 0.15402 0.22115 0.0
O196 O 0.61462 0.54937 0.16445 0.0
Cd197 Cd 0.59598 0.56996 0.10365 0.0
Cd198 Cd 0.61125 0.52976 0.02539 0.0
O199 O 0.63033 0.52147 0.10612 0.0
O200 O 0.59111 0.59633 0.16532 0.0
O201 O 0.61227 0.59966 0.07726 0.0
C202 C 0.60553 0.60835 0.13152 0.0
C203 C 0.62579 0.52366 0.92126 0.0
C204 C 0.6278 0.5319 0.15956 0.0
C205 C 0.55923 0.53742 0.05167 0.0
O206 O 0.57587 0.52472 0.0324 0.0
O207 O 0.56323 0.55732 0.07663 0.0
O208 O 0.62037 0.5066 0.9584 0.0
O209 O 0.62413 0.54438 0.94455 0.0
O210 O 0.22958 0.86465 0.94455 0.0
Cd211 Cd 0.21069 0.84654 0.87779 0.0
Cd212 Cd 0.25086 0.86308 0.80781 0.0
O213 O 0.25696 0.88275 0.88946 0.0
O214 O 0.18211 0.8416 0.93125 0.0
O215 O 0.18256 0.86349 0.84404 0.0
C216 C 0.17179 0.85653 0.89518 0.0
C217 C 0.25602 0.87741 0.70331 0.0
C218 C 0.24622 0.87909 0.94199 0.0
C219 C 0.24435 0.81096 0.82847 0.0
O220 O 0.25742 0.82804 0.81428 0.0
O221 O 0.22374 0.81431 0.84933 0.0
O222 O 0.27347 0.87362 0.74078 0.0
O223 O 0.2354 0.8745 0.72678 0.0
O224 O 0.61463 0.98023 0.65991 0.0
Cd225 Cd 0.59606 0.95991 0.59768 0.0
Cd226 Cd 0.61131 1.00023 0.52175 0.0
O227 O 0.63042 1.00842 0.60263 0.0
O228 O 0.59116 0.93306 0.6575 0.0
O229 O 0.61227 0.93059 0.5691 0.0
C230 C 0.60552 0.92142 0.62273 0.0
C231 C 0.62596 1.00623 0.41777 0.0
C232 C 0.62784 0.9978 0.65571 0.0
C233 C 0.55933 0.99229 0.54757 0.0
O234 O 0.57597 1.00522 0.52886 0.0
O235 O 0.56333 0.9723 0.5715 0.0
O236 O 0.62067 0.02333 0.45489 0.0
O237 O 0.62409 0.98553 0.44101 0.0
O238 O 0.29876 0.36493 0.91161 0.0
Cd239 Cd 0.319 0.34716 0.8479 0.0
Cd240 Cd 0.2787 0.36179 0.77364 0.0
O241 O 0.27062 0.38081 0.85458 0.0
O242 O 0.34682 0.34338 0.90513 0.0
O243 O 0.3474 0.3646 0.81676 0.0
C244 C 0.35748 0.35829 0.86952 0.0
C245 C 0.27277 0.37631 0.66964 0.0
C246 C 0.28123 0.37808 0.90768 0.0
C247 C 0.2867 0.31001 0.7986 0.0
O248 O 0.2736 0.3265 0.78068 0.0
O249 O 0.30688 0.31421 0.82172 0.0
O250 O 0.25559 0.37101 0.70666 0.0
O251 O 0.29351 0.37455 0.69303 0.0
O252 O 0.91385 0.04788 0.20068 0.0
Cd253 Cd 0.93231 0.06668 0.13461 0.0
Cd254 Cd 0.91539 0.02658 0.06363 0.0
O255 O 0.89567 0.02062 0.14521 0.0
O256 O 0.93782 0.09486 0.18918 0.0
O257 O 0.91582 0.09522 0.10203 0.0
C258 C 0.92305 0.10562 0.15354 0.0
C259 C 0.90089 0.02145 0.95916 0.0
C260 C 0.8993 0.03134 0.19783 0.0
C261 C 0.96769 0.0328 0.08447 0.0
O262 O 0.9505 0.01988 0.07 0.0
O263 O 0.96445 0.05333 0.10579 0.0
O264 O 0.90466 1.00405 0.99658 0.0
O265 O 0.90394 0.04202 0.98264 0.0
O266 O 0.23009 0.66315 0.44372 0.0
Cd267 Cd 0.2112 0.68108 0.37707 0.0
Cd268 Cd 0.25146 0.66489 0.30713 0.0
O269 O 0.25753 0.64529 0.38867 0.0
O270 O 0.18282 0.68617 0.43099 0.0
O271 O 0.18287 0.66401 0.34418 0.0
C272 C 0.17228 0.67112 0.39542 0.0
C273 C 0.25656 0.65056 0.2026 0.0
C274 C 0.24675 0.64886 0.44115 0.0
C275 C 0.24485 0.71693 0.32783 0.0
O276 O 0.25799 0.69999 0.31374 0.0
O277 O 0.22423 0.71336 0.34853 0.0
O278 O 0.27403 0.65451 0.24 0.0
O279 O 0.23595 0.65331 0.22615 0.0
O280 O 0.60545 0.046 0.90606 0.0
Cd281 Cd 0.59413 0.06377 0.98488 0.0
Cd282 Cd 0.61132 0.02592 0.04236 0.0
O283 O 0.62991 0.02316 0.95736 0.0
O284 O 0.59394 0.0967 0.95473 0.0
O285 O 0.62023 0.0822 0.02182 0.0
C286 C 0.61362 0.09882 0.98419 0.0
C287 C 0.62723 0.02159 0.14494 0.0
C288 C 0.62248 0.03208 0.90532 0.0
C289 C 0.55941 0.03141 0.03892 0.0
O290 O 0.57645 0.01747 0.04044 0.0
O291 O 0.56287 0.05277 0.02586 0.0
O292 O 0.62449 1.00404 0.10704 0.0
O293 O 0.62262 0.04196 0.12244 0.0
O294 O 0.23282 0.35554 0.15775 0.0
Cd295 Cd 0.21505 0.34395 0.23636 0.0
Cd296 Cd 0.2531 0.36124 0.29405 0.0
O297 O 0.25596 0.37988 0.2093 0.0
O298 O 0.18206 0.34347 0.20592 0.0
O299 O 0.19647 0.36967 0.27379 0.0
C300 C 0.17986 0.363 0.23581 0.0
C301 C 0.25749 0.37711 0.39671 0.0
C302 C 0.2469 0.37254 0.1572 0.0
C303 C 0.24744 0.3094 0.28969 0.0
O304 O 0.26145 0.32649 0.29171 0.0
O305 O 0.22605 0.31275 0.2766 0.0
O306 O 0.27508 0.37444 0.35894 0.0
O307 O 0.23705 0.37241 0.37408 0.0
O308 O 0.91305 0.97987 0.44407 0.0
Cd309 Cd 0.93102 0.96107 0.51082 0.0
Cd310 Cd 0.91513 1.00123 0.58084 0.0
O311 O 0.89539 1.00733 0.49941 0.0
O312 O 0.9355 0.93238 0.45781 0.0
O313 O 0.91368 0.93322 0.54529 0.0
C314 C 0.92043 0.92228 0.49426 0.0
C315 C 0.90084 1.00645 0.68544 0.0
C316 C 0.89882 0.99656 0.44683 0.0
C317 C 0.96725 0.99454 0.55919 0.0
O318 O 0.95034 1.00766 0.57383 0.0
O319 O 0.96356 0.97398 0.53847 0.0
O320 O 0.90487 0.02382 0.64803 0.0
O321 O 0.90355 0.98586 0.66192 0.0
O322 O 0.29779 0.66418 0.68798 0.0
Cd323 Cd 0.31642 0.68267 0.75449 0.0
Cd324 Cd 0.27625 0.66587 0.82464 0.0
O325 O 0.27037 0.64612 0.74305 0.0
O326 O 0.34482 0.68807 0.70067 0.0
O327 O 0.3449 0.66626 0.78802 0.0
C328 C 0.35547 0.67337 0.73671 0.0
C329 C 0.27128 0.65129 0.92893 0.0
C330 C 0.2812 0.64967 0.69062 0.0
C331 C 0.2824 0.71802 0.8038 0.0
O332 O 0.26943 0.70089 0.81827 0.0
O333 O 0.30299 0.71475 0.78274 0.0
O334 O 0.25378 0.65505 0.89164 0.0
O335 O 0.29186 0.65446 0.90544 0.0
O336 O 0.40996 0.04563 0.43154 0.0
Cd337 Cd 0.42969 0.06422 0.49527 0.0
Cd338 Cd 0.41397 0.02369 0.56737 0.0
O339 O 0.39345 0.01747 0.48729 0.0
O340 O 0.43505 0.09193 0.43901 0.0
O341 O 0.41468 0.09345 0.52894 0.0
C342 C 0.42135 0.10336 0.47625 0.0
C343 C 0.40051 0.01872 0.673 0.0
C344 C 0.39597 0.02864 0.43498 0.0
C345 C 0.46585 0.03011 0.53966 0.0
O346 O 0.44902 0.01723 0.55729 0.0
O347 O 0.46216 0.05056 0.51854 0.0
O348 O 0.40413 1.00125 0.63558 0.0
O349 O 0.40322 0.03924 0.64909 0.0
O350 O 0.72829 0.66469 0.21015 0.0
Cd351 Cd 0.70774 0.68296 0.27198 0.0
Cd352 Cd 0.74794 0.66761 0.34889 0.0
O353 O 0.7561 0.64858 0.26798 0.0
O354 O 0.68098 0.68767 0.21143 0.0
O355 O 0.67832 0.66626 0.29909 0.0
C356 C 0.6693 0.67299 0.24525 0.0
C357 C 0.75396 0.6531 0.45296 0.0
C358 C 0.74568 0.65138 0.21462 0.0
C359 C 0.74038 0.71955 0.32368 0.0
O360 O 0.75316 0.70289 0.34211 0.0
O361 O 0.72031 0.71564 0.2994 0.0
O362 O 0.7711 0.65838 0.4158 0.0
O363 O 0.7332 0.65486 0.42969 0.0
O364 O 0.11434 0.97978 0.94069 0.0
Cd365 Cd 0.09622 0.96107 1.00761 0.0
Cd366 Cd 0.11306 1.00103 0.07749 0.0
O367 O 0.1327 1.00701 0.99582 0.0
O368 O 0.09111 0.9325 0.95437 0.0
O369 O 0.1132 0.93304 0.04141 0.0
C370 C 0.10612 0.92223 0.99038 0.0
C371 C 0.12771 1.00598 0.18176 0.0
C372 C 0.12893 0.9963 0.94329 0.0
C373 C 0.06076 0.99479 0.05756 0.0
O374 O 0.07795 1.00778 0.07153 0.0
O375 O 0.06401 0.97422 0.03656 0.0
O376 O 0.12392 0.02344 0.14459 0.0
O377 O 0.12459 0.98545 0.15811 0.0
O378 O 0.7998 0.36739 0.71186 0.0
Cd379 Cd 0.81996 0.34856 0.77337 0.0
Cd380 Cd 0.77961 0.36366 0.84944 0.0
O381 O 0.77205 0.38355 0.7698 0.0
O382 O 0.84671 0.3437 0.71306 0.0
O383 O 0.84951 0.36476 0.80151 0.0
C384 C 0.85851 0.35812 0.74755 0.0
C385 C 0.77393 0.37748 0.95445 0.0
C386 C 0.78261 0.38096 0.71659 0.0
C387 C 0.78693 0.31189 0.82173 0.0
O388 O 0.774 0.3285 0.83992 0.0
O389 O 0.80722 0.31586 0.79922 0.0
O390 O 0.75666 0.37272 0.9171 0.0
O391 O 0.79463 0.37555 0.93093 0.0
O392 O 0.4121 0.9784 0.18867 0.0
Cd393 Cd 0.43065 0.95998 0.12213 0.0
Cd394 Cd 0.41403 0.99998 0.05271 0.0
O395 O 0.39367 1.00533 0.13342 0.0
O396 O 0.43602 0.93168 0.1758 0.0
O397 O 0.41409 0.93153 0.08845 0.0
C398 C 0.4212 0.92101 0.13974 0.0
C399 C 0.40024 1.00459 0.9474 0.0
C400 C 0.3973 0.99459 0.18588 0.0
C401 C 0.46619 0.99418 0.07428 0.0
O402 O 0.44906 1.00719 0.06101 0.0
O403 O 0.46285 0.97342 0.09367 0.0
O404 O 0.40352 0.02215 0.98485 0.0
O405 O 0.40336 0.98414 0.97126 0.0
O406 O 0.79441 0.67377 0.96511 0.0
Cd407 Cd 0.81225 0.68545 0.88674 0.0
Cd408 Cd 0.7741 0.66824 0.82856 0.0
O409 O 0.77117 0.64958 0.91333 0.0
O410 O 0.84518 0.68604 0.91771 0.0
O411 O 0.83104 0.65983 0.84947 0.0
C412 C 0.84754 0.66654 0.88773 0.0
C413 C 0.76955 0.6524 0.72585 0.0
C414 C 0.78026 0.65683 0.96551 0.0
C415 C 0.77992 0.72009 0.83326 0.0
O416 O 0.76588 0.70303 0.83089 0.0
O417 O 0.80129 0.71669 0.84669 0.0
O418 O 0.75201 0.65515 0.76376 0.0
O419 O 0.79002 0.657 0.74836 0.0
O420 O 0.11497 0.04723 0.69594 0.0
Cd421 Cd 0.09721 0.06565 0.62793 0.0
Cd422 Cd 0.11314 0.02554 0.55978 0.0
O423 O 0.13281 0.01968 0.64141 0.0
O424 O 0.09296 0.09485 0.67879 0.0
O425 O 0.11482 0.09297 0.59148 0.0
C426 C 0.10812 0.10446 0.64164 0.0
C427 C 0.12765 0.02055 0.45546 0.0
C428 C 0.12927 0.03058 0.69372 0.0
C429 C 0.06101 0.03206 0.58034 0.0
O430 O 0.07796 0.01889 0.56637 0.0
O431 O 0.06468 0.0527 0.60044 0.0
O432 O 0.12371 1.0031 0.49266 0.0
O433 O 0.12473 0.04109 0.47907 0.0
O434 O 0.73403 0.35987 0.46832 0.0
Cd435 Cd 0.71639 0.34694 0.39107 0.0
Cd436 Cd 0.75469 0.36374 0.33195 0.0
O437 O 0.75767 0.38327 0.41538 0.0
O438 O 0.68355 0.346 0.42284 0.0
O439 O 0.69684 0.37163 0.35195 0.0
C440 C 0.68062 0.36504 0.3912 0.0
C441 C 0.759 0.37856 0.22804 0.0
C442 C 0.74834 0.37667 0.46782 0.0
C443 C 0.74932 0.31189 0.34182 0.0
O444 O 0.76314 0.32905 0.33728 0.0
O445 O 0.72791 0.31523 0.35486 0.0
O446 O 0.77661 0.37625 0.26594 0.0
O447 O 0.73858 0.37406 0.25105 0.0
C448 C 0.99465 0.50021 0.06458 0.0
C449 C 0.99124 0.52396 0.0517 0.0
H450 H 0.01889 0.47305 0.085 0.0
C451 C 1.01076 0.53864 0.04968 0.0
H452 H 0.98003 0.48833 0.06649 0.0
C453 C 0.03308 0.52981 0.06026 0.0
C454 C 0.03648 0.50606 0.07314 0.0
H455 H 1.00883 0.55697 0.03983 0.0
H456 H 0.04769 0.54169 0.05836 0.0
C457 C 0.01696 0.49138 0.07514 0.0
C458 C 0.74697 0.78503 0.30759 0.0
C459 C 0.76951 0.78884 0.33234 0.0
H460 H 0.72002 0.76041 0.28567 0.0
C461 C 0.78207 0.76972 0.35521 0.0
H462 H 0.7367 0.79933 0.28963 0.0
C463 C 0.7724 0.74742 0.35323 0.0
C464 C 0.7499 0.74356 0.3282 0.0
H465 H 0.79938 0.77196 0.37486 0.0
H466 H 0.78272 0.73313 0.37108 0.0
C467 C 0.7373 0.76269 0.30549 0.0
C468 C 0.49344 0.5023 0.55074 0.0
C469 C 0.49022 0.52572 0.56812 0.0
H470 H 0.51754 0.47511 0.52913 0.0
C471 C 0.50997 0.53965 0.57833 0.0
H472 H 0.47867 0.49096 0.5427 0.0
C473 C 0.53231 0.53049 0.57044 0.0
C474 C 0.53551 0.50713 0.55239 0.0
H475 H 0.5082 0.55769 0.5919 0.0
H476 H 0.5471 0.54183 0.57816 0.0
C477 C 0.51578 0.49312 0.5431 0.0
C478 C 0.745 0.26154 0.84716 0.0
C479 C 0.75876 0.24229 0.83159 0.0
H480 H 0.74308 0.29837 0.85687 0.0
C481 C 0.78195 0.24613 0.81223 0.0
H482 H 0.72714 0.25928 0.86245 0.0
C483 C 0.79119 0.26862 0.80897 0.0
C484 C 0.7775 0.28785 0.82534 0.0
H485 H 0.7931 0.23171 0.79981 0.0
H486 H 0.80908 0.2709 0.79393 0.0
C487 C 0.75426 0.284 0.84425 0.0
C488 C 0.0321 0.50201 0.59157 0.0
C489 C 0.03664 0.52423 0.56607 0.0
H490 H 1.00694 0.47526 0.60935 0.0
C491 C 0.01824 0.53648 0.53779 0.0
H492 H 0.04585 0.49198 0.61356 0.0
C493 C 0.99591 0.52676 0.53506 0.0
C494 C 0.99137 0.50454 0.56057 0.0
H495 H 0.02107 0.55352 0.51731 0.0
H496 H 0.98216 0.5368 0.51308 0.0
C497 C 1.00978 0.4923 0.58886 0.0
C498 C 0.74749 0.74725 0.804 0.0
C499 C 0.77083 0.74389 0.82248 0.0
H500 H 0.72043 0.7715 0.78242 0.0
C501 C 0.78496 0.76348 0.83248 0.0
H502 H 0.73607 0.73257 0.79574 0.0
C503 C 0.77591 0.78582 0.82511 0.0
C504 C 0.7525 0.78919 0.80727 0.0
H505 H 0.80295 0.76159 0.84681 0.0
H506 H 0.78733 0.80047 0.83368 0.0
C507 C 0.73846 0.7696 0.79636 0.0
C508 C 0.51606 0.54048 0.07106 0.0
C509 C 0.53513 0.52798 0.04736 0.0
H510 H 0.47939 0.54111 0.08785 0.0
C511 C 0.53114 0.50567 0.02153 0.0
H512 H 0.51844 0.55761 0.09153 0.0
C513 C 0.50874 0.49609 0.0197 0.0
C514 C 0.48968 0.50856 0.04352 0.0
H515 H 0.54538 0.49543 1.00292 0.0
H516 H 0.50639 0.47894 0.99938 0.0
C517 C 0.49364 0.53091 0.06913 0.0
C518 C 0.78207 0.28462 0.31588 0.0
C519 C 0.75874 0.28803 0.33436 0.0
H520 H 0.80939 0.2603 0.29713 0.0
C521 C 0.74495 0.2685 0.34785 0.0
H522 H 0.79324 0.29926 0.30505 0.0
C523 C 0.7543 0.24618 0.34371 0.0
C524 C 0.77767 0.24274 0.32566 0.0
H525 H 0.72698 0.27043 0.36237 0.0
H526 H 0.74309 0.23158 0.35473 0.0
C527 C 0.7914 0.26226 0.31142 0.0
C528 C 0.25488 0.28167 0.771 0.0
C529 C 0.27745 0.28588 0.79503 0.0
H530 H 0.2281 0.25672 0.75107 0.0
C531 C 0.2904 0.267 0.81779 0.0
H532 H 0.24429 0.29577 0.75317 0.0
C533 C 0.281 0.24455 0.8167 0.0
C534 C 0.25839 0.24037 0.7929 0.0
H535 H 0.30774 0.26956 0.83689 0.0
H536 H 0.29154 0.23044 0.83464 0.0
C537 C 0.24548 0.25925 0.77 0.0
C538 C 0.25021 0.7827 0.33339 0.0
C539 C 0.273 0.78636 0.31038 0.0
H540 H 0.22342 0.75816 0.35673 0.0
C541 C 0.28627 0.76699 0.29278 0.0
H542 H 0.2394 0.79719 0.34736 0.0
C543 C 0.27702 0.74458 0.29807 0.0
C544 C 0.25424 0.74091 0.32111 0.0
H545 H 0.30381 0.76911 0.27473 0.0
H546 H 0.28783 0.73009 0.2841 0.0
C547 C 0.24096 0.76028 0.33867 0.0
C548 C 0.28914 0.26 0.32555 0.0
C549 C 0.27503 0.24038 0.31586 0.0
H550 H 0.29154 0.29703 0.32518 0.0
C551 C 0.25151 0.2437 0.29915 0.0
H552 H 0.30727 0.25815 0.3386 0.0
C553 C 0.24242 0.26602 0.29168 0.0
C554 C 0.2566 0.28563 0.3005 0.0
H555 H 0.24004 0.22901 0.29152 0.0
H556 H 0.22432 0.26786 0.27824 0.0
C557 C 0.28006 0.28233 0.31786 0.0
C558 C 0.286 0.76141 0.79303 0.0
C559 C 0.27284 0.74186 0.81056 0.0
H560 H 0.28738 0.79833 0.78455 0.0
C561 C 0.25004 0.74524 0.83367 0.0
H562 H 0.30354 0.75953 0.7749 0.0
C563 C 0.24067 0.76754 0.83912 0.0
C564 C 0.25385 0.78709 0.82162 0.0
H565 H 0.23931 0.73061 0.8476 0.0
H566 H 0.22313 0.76944 0.85726 0.0
C567 C 0.27664 0.78371 0.79848 0.0
C568 C 0.50882 0.03332 0.51846 0.0
C569 C 0.48982 0.02055 0.54204 0.0
H570 H 0.54541 0.0344 0.50104 0.0
C571 C 0.49382 0.9981 0.56642 0.0
H572 H 0.50642 0.05057 0.49906 0.0
C573 C 0.51624 0.98872 0.56744 0.0
C574 C 0.53525 1.00153 0.54402 0.0
H575 H 0.47961 0.98769 0.58489 0.0
H576 H 0.51867 0.9715 0.58701 0.0
C577 C 0.53121 0.02393 0.51938 0.0
C578 C 1.01124 0.03639 0.09435 0.0
C579 C 0.99158 0.02326 0.07721 0.0
H580 H 0.04829 0.03774 0.10195 0.0
C581 C 0.99487 1.00052 0.05388 0.0
H582 H 1.00942 0.05389 0.11261 0.0
C583 C 0.0172 0.99117 0.04784 0.0
C584 C 0.03687 1.0043 0.06495 0.0
H585 H 0.98015 0.98982 0.04023 0.0
H586 H 0.01902 0.97367 0.02957 0.0
C587 C 0.03357 0.02704 0.08831 0.0
C588 C 0.53217 0.99888 0.06836 0.0
C589 C 0.53555 0.02223 0.05035 0.0
H590 H 0.50785 0.97172 0.09012 0.0
C591 C 0.51594 0.03627 0.04152 0.0
H592 H 0.54687 0.98752 0.07573 0.0
C593 C 0.49354 0.02712 0.04953 0.0
C594 C 0.49014 1.00371 0.06685 0.0
H595 H 0.51784 0.05427 0.02761 0.0
H596 H 0.47885 0.03848 0.04183 0.0
C597 C 0.50977 0.98976 0.07662 0.0
C598 C 0.03317 0.99987 0.55183 0.0
C599 C 0.03695 0.02267 0.57433 0.0
H600 H 1.00847 0.97307 0.52961 0.0
C601 C 0.0176 0.03597 0.59216 0.0
H602 H 0.04764 0.98904 0.5377 0.0
C603 C 0.9951 0.02672 0.58765 0.0
C604 C 0.99132 1.00392 0.56515 0.0
H605 H 0.0198 0.05352 0.60985 0.0
H606 H 0.98064 0.03755 0.60179 0.0
C607 C 1.01067 0.99062 0.5473 0.0
C608 C 0.13385 0.53238 0.88164 0.0
C609 C 0.13193 0.50986 0.90722 0.0
H610 H 0.13363 0.55361 0.79699 0.0
C611 C 0.13131 0.49094 0.86457 0.0
H612 H 0.13446 0.54737 0.91311 0.0
C613 C 0.13085 0.49454 0.79795 0.0
C614 C 0.13097 0.51715 0.7725 0.0
H615 H 0.12993 0.47337 0.88258 0.0
H616 H 0.12921 0.4796 0.76658 0.0
C617 C 0.13335 0.53599 0.81498 0.0
C618 C 0.78076 0.88374 0.02459 0.0
C619 C 0.75813 0.88303 0.99881 0.0
H620 H 0.80195 0.88298 0.10947 0.0
C621 C 0.73914 0.88376 0.04128 0.0
H622 H 0.7958 0.8833 0.99327 0.0
C623 C 0.74269 0.88361 0.10801 0.0
C624 C 0.76531 0.8827 0.13376 0.0
H625 H 0.72149 0.88331 0.02311 0.0
H626 H 0.72764 0.88309 0.1393 0.0
C627 C 0.78431 0.88357 0.09132 0.0
C628 C 0.39468 0.49494 0.2857 0.0
C629 C 0.39586 0.51385 0.24322 0.0
H630 H 0.39484 0.48352 0.38375 0.0
C631 C 0.3954 0.53645 0.26895 0.0
H632 H 0.39491 0.47732 0.26756 0.0
C633 C 0.3954 0.54002 0.33567 0.0
C634 C 0.39583 0.52109 0.37817 0.0
H635 H 0.39618 0.55143 0.23763 0.0
H636 H 0.39621 0.55763 0.35381 0.0
C637 C 0.39465 0.49852 0.35242 0.0
C638 C 0.78601 0.1454 0.62837 0.0
C639 C 0.76338 0.14685 0.65374 0.0
H640 H 0.8074 0.14587 0.54391 0.0
C641 C 0.74445 0.14684 0.61095 0.0
H642 H 0.801 0.14526 0.65996 0.0
C643 C 0.74815 0.14716 0.54434 0.0
C644 C 0.77085 0.14753 0.51908 0.0
H645 H 0.7268 0.14785 0.62881 0.0
H646 H 0.73319 0.14834 0.51282 0.0
C647 C 0.78971 0.14575 0.56175 0.0
C648 C 0.89688 0.53855 0.26135 0.0
C649 C 0.8961 0.51971 0.21842 0.0
H650 H 0.89916 0.54969 0.3595 0.0
C651 C 0.89415 0.49715 0.2437 0.0
H652 H 0.8983 0.55615 0.24358 0.0
C653 C 0.89473 0.49341 0.31031 0.0
C654 C 0.89722 0.51216 0.35306 0.0
H655 H 0.89343 0.48222 0.21202 0.0
H656 H 0.89439 0.47576 0.32804 0.0
C657 C 0.89742 0.53482 0.32792 0.0
C658 C 0.28626 0.14594 0.01834 0.0
C659 C 0.26367 0.14647 0.99231 0.0
H660 H 0.3073 0.14658 0.1035 0.0
C661 C 0.24461 0.14519 0.03447 0.0
H662 H 0.30135 0.14677 0.98726 0.0
C663 C 0.24804 0.14502 0.10122 0.0
C664 C 0.27061 0.14617 0.1273 0.0
H665 H 0.22699 0.14547 0.01607 0.0
H666 H 0.23294 0.14517 0.13233 0.0
C667 C 0.28969 0.1458 0.08509 0.0
C668 C 0.63355 0.53817 0.80934 0.0
C669 C 0.6311 0.51951 0.85228 0.0
H670 H 0.6346 0.54913 0.71093 0.0
C671 C 0.63098 0.4968 0.82743 0.0
H672 H 0.63384 0.55586 0.82687 0.0
C673 C 0.63141 0.49291 0.7609 0.0
C674 C 0.63199 0.51165 0.71778 0.0
H675 H 0.6293 0.482 0.85918 0.0
H676 H 0.62996 0.47527 0.74335 0.0
C677 C 0.63401 0.53428 0.74277 0.0
C678 C 0.28244 0.88298 0.60848 0.0
C679 C 0.25976 0.8821 0.6338 0.0
H680 H 0.30382 0.88226 0.52403 0.0
C681 C 0.24085 0.88284 0.591 0.0
H682 H 0.29742 0.88257 0.64008 0.0
C683 C 0.24455 0.8827 0.52436 0.0
C684 C 0.26723 0.8818 0.49907 0.0
H685 H 0.22317 0.88228 0.60883 0.0
H686 H 0.22957 0.88208 0.49278 0.0
C687 C 0.28614 0.88282 0.54184 0.0
C688 C 0.6341 0.99543 0.23934 0.0
C689 C 0.63221 0.01802 0.21433 0.0
H690 H 0.63381 0.97394 0.32345 0.0
C691 C 0.63179 0.03681 0.25741 0.0
H692 H 0.63458 0.98054 0.20751 0.0
C693 C 0.63136 0.033 0.32394 0.0
C694 C 0.63132 1.01031 0.34882 0.0
H695 H 0.63044 0.05443 0.23983 0.0
H696 H 0.62978 0.04783 0.35567 0.0
C697 C 0.63365 0.99161 0.3059 0.0
C698 C 0.28371 0.3842 0.49124 0.0
C699 C 0.26106 0.38218 0.46608 0.0
H700 H 0.30522 0.38415 0.57552 0.0
C701 C 0.2422 0.38176 0.50902 0.0
H702 H 0.29865 0.38469 0.45952 0.0
C703 C 0.246 0.38146 0.57558 0.0
C704 C 0.26873 0.38156 0.60063 0.0
H705 H 0.22454 0.38031 0.49132 0.0
H706 H 0.23111 0.37988 0.60722 0.0
C707 C 0.28751 0.38388 0.55783 0.0
C708 C 0.89503 0.99509 0.86432 0.0
C709 C 0.89606 0.01772 0.88967 0.0
H710 H 0.89546 0.97372 0.77983 0.0
C711 C 0.89534 0.03656 0.8469 0.0
H712 H 0.89542 0.98015 0.8959 0.0
C713 C 0.89533 0.03284 0.78026 0.0
C714 C 0.89606 1.01021 0.75492 0.0
H715 H 0.89602 0.05421 0.86475 0.0
H716 H 0.89596 0.04777 0.74869 0.0
C717 C 0.89503 0.99137 0.79768 0.0
C718 C 0.24497 0.64512 0.0237 0.0
C719 C 0.26763 0.64628 0.99829 0.0
H720 H 0.22365 0.64529 0.10828 0.0
C721 C 0.28657 0.64546 0.04095 0.0
H722 H 0.22997 0.64557 0.9922 0.0
C723 C 0.28293 0.64526 0.1076 0.0
C724 C 0.26026 0.64588 0.13305 0.0
H725 H 0.30424 0.64622 0.02304 0.0
H726 H 0.29793 0.64584 0.13912 0.0
C727 C 0.24133 0.64493 0.09035 0.0
C728 C 0.39479 0.0306 0.85184 0.0
C729 C 0.39577 1.00806 0.87764 0.0
H730 H 0.3953 0.05169 0.76695 0.0
C731 C 0.39521 0.98908 0.83518 0.0
H732 H 0.39509 0.04564 0.88315 0.0
C733 C 0.3953 0.99257 0.76846 0.0
C734 C 0.39597 0.01513 0.74269 0.0
H735 H 0.39587 0.97149 0.85336 0.0
H736 H 0.39598 0.97755 0.73718 0.0
C737 C 0.3949 0.0341 0.78512 0.0
C738 C 0.78082 0.64797 0.54686 0.0
C739 C 0.75806 0.6479 0.52199 0.0
H740 H 0.80238 0.64911 0.63094 0.0
C741 C 0.73933 0.64566 0.56496 0.0
H742 H 0.79568 0.6495 0.51509 0.0
C743 C 0.7432 0.64536 0.63153 0.0
C744 C 0.76588 0.64734 0.6565 0.0
H745 H 0.7216 0.64542 0.54743 0.0
H746 H 0.7283 0.64493 0.66338 0.0
C747 C 0.78469 0.6477 0.61339 0.0
C748 C 0.13358 0.03582 0.34351 0.0
C749 C 0.13256 0.01691 0.38602 0.0
H750 H 0.13319 0.04718 0.24544 0.0
C751 C 0.13336 0.99431 0.36044 0.0
H752 H 0.1331 0.05344 0.36156 0.0
C753 C 0.13338 0.9907 0.29376 0.0
C754 C 0.13261 1.00961 0.25123 0.0
H755 H 0.13275 0.97933 0.39182 0.0
H756 H 0.13273 0.97308 0.2757 0.0
C757 C 0.13362 0.0322 0.27683 0.0
C758 C 0.78513 0.38505 0.13304 0.0
C759 C 0.76251 0.38318 0.15842 0.0
H760 H 0.80652 0.3849 0.04858 0.0
C761 C 0.74359 0.3827 0.11561 0.0
H762 H 0.80011 0.38556 0.16464 0.0
C763 C 0.7473 0.38235 0.04901 0.0
C764 C 0.77 0.38244 0.02374 0.0
H765 H 0.72595 0.38136 0.13347 0.0
H766 H 0.73236 0.38081 0.01748 0.0
C767 C 0.78883 0.38466 0.06641 0.0
C768 C 0.14349 0.53368 0.35275 0.0
C769 C 0.13881 0.519 0.4053 0.0
H770 H 0.14276 0.53756 0.25016 0.0
C771 C 0.1351 0.4953 0.39427 0.0
H772 H 0.14647 0.55206 0.36029 0.0
C773 C 0.13242 0.48716 0.33138 0.0
C774 C 0.13397 0.50254 0.27905 0.0
H775 H 0.13137 0.48365 0.4339 0.0
H776 H 0.12725 0.46926 0.32398 0.0
C777 C 0.14125 0.52544 0.28979 0.0
C778 C 0.77706 0.89405 0.61841 0.0
C779 C 0.75311 0.89182 0.62919 0.0
H780 H 0.80423 0.89318 0.54818 0.0
C781 C 0.73775 0.89341 0.57657 0.0
H782 H 0.78926 0.89299 0.65805 0.0
C783 C 0.74628 0.8937 0.51361 0.0
C784 C 0.77026 0.89211 0.50278 0.0
H785 H 0.71914 0.89206 0.58382 0.0
H786 H 0.73409 0.89235 0.47398 0.0
C787 C 0.78559 0.89407 0.55544 0.0
C788 C 0.38635 0.54192 0.80057 0.0
C789 C 0.38746 0.52658 0.74785 0.0
H790 H 0.38737 0.54547 0.90318 0.0
C791 C 0.38434 0.50278 0.75844 0.0
H792 H 0.38837 0.56044 0.79346 0.0
C793 C 0.3839 0.49423 0.82135 0.0
C794 C 0.38631 0.50942 0.87413 0.0
H795 H 0.38499 0.4906 0.71872 0.0
H796 H 0.38411 0.47562 0.82849 0.0
C797 C 0.38562 0.53339 0.86346 0.0
C798 C 0.75015 0.14262 0.14039 0.0
C799 C 0.77416 0.14153 0.15104 0.0
H800 H 0.72329 0.14732 0.07036 0.0
C801 C 0.78919 0.1383 0.09835 0.0
H802 H 0.73823 0.14514 0.18018 0.0
C803 C 0.78064 0.13933 0.0355 0.0
C804 C 0.75706 0.14399 0.02501 0.0
H805 H 0.80781 0.13729 0.10563 0.0
H806 H 0.79282 0.13906 0.99571 0.0
C807 C 0.74166 0.14408 0.07758 0.0
C808 C 0.89272 0.53399 0.73085 0.0
C809 C 0.88897 0.51027 0.72021 0.0
H810 H 0.90055 0.56018 0.80072 0.0
C811 C 0.8842 0.49573 0.77301 0.0
H812 H 0.8965 0.54554 0.69104 0.0
C813 C 0.8864 0.50412 0.83585 0.0
C814 C 0.89372 0.52702 0.84623 0.0
H815 H 0.8812 0.47734 0.7658 0.0
H816 H 0.88484 0.4921 0.87569 0.0
C817 C 0.89534 0.54228 0.79362 0.0
C818 C 0.28309 0.13663 0.61242 0.0
C819 C 0.25909 0.13737 0.6236 0.0
H820 H 0.31004 0.13925 0.54186 0.0
C821 C 0.24373 0.13498 0.57116 0.0
H822 H 0.2953 0.13836 0.6519 0.0
C823 C 0.25215 0.13534 0.50808 0.0
C824 C 0.27599 0.13836 0.49699 0.0
H825 H 0.22509 0.13523 0.57872 0.0
H826 H 0.23984 0.13597 0.46861 0.0
C827 C 0.2915 0.13729 0.54937 0.0
C828 C 0.64049 0.53613 0.27301 0.0
C829 C 0.63596 0.52156 0.22002 0.0
H830 H 0.64015 0.53957 0.37575 0.0
C831 C 0.63262 0.49777 0.23023 0.0
H832 H 0.64316 0.55457 0.26608 0.0
C833 C 0.63036 0.48933 0.29288 0.0
C834 C 0.63192 0.50451 0.34577 0.0
H835 H 0.629 0.48622 0.19022 0.0
H836 H 0.62554 0.47132 0.29974 0.0
C837 C 0.63868 0.52759 0.3357 0.0
C838 C 0.23969 0.88995 0.05639 0.0
C839 C 0.25496 0.88834 1.00361 0.0
H840 H 0.23616 0.8888 0.159 0.0
C841 C 0.27895 0.8901 0.01426 0.0
H842 H 0.22105 0.88891 0.04923 0.0
C843 C 0.28758 0.88981 0.07714 0.0
C844 C 0.27229 0.88809 0.12987 0.0
H845 H 0.29108 0.88899 0.97448 0.0
H846 H 0.3062 0.88869 0.08424 0.0
C847 C 0.24832 0.88999 0.11928 0.0
C848 C 0.63276 0.03182 0.72715 0.0
C849 C 0.63592 1.00804 0.71655 0.0
H850 H 0.62579 0.05817 0.79706 0.0
C851 C 0.64025 0.99339 0.76932 0.0
H852 H 0.62931 0.04342 0.68731 0.0
C853 C 0.63841 1.00184 0.83214 0.0
C854 C 0.63183 0.02491 0.84255 0.0
H855 H 0.64278 0.97496 0.76209 0.0
H856 H 0.63973 0.98981 0.872 0.0
C857 C 0.63047 0.04016 0.78992 0.0
C858 C 0.27732 0.38846 0.08421 0.0
C859 C 0.25414 0.38191 0.09453 0.0
H860 H 0.30428 0.39284 0.01426 0.0
C861 C 0.23882 0.38057 0.04185 0.0
H862 H 0.2894 0.38976 0.12412 0.0
C863 C 0.24719 0.38287 0.97912 0.0
C864 C 0.27105 0.38602 0.96861 0.0
H865 H 0.22073 0.3759 0.04894 0.0
H866 H 0.23551 0.37944 0.93924 0.0
C867 C 0.28579 0.39031 0.02143 0.0
C868 C 0.88779 0.99012 0.33243 0.0
C869 C 0.88959 1.00532 0.38535 0.0
H870 H 0.88881 0.98668 0.22977 0.0
C871 C 0.88803 0.02926 0.37494 0.0
H872 H 0.88867 0.97153 0.33939 0.0
C873 C 0.88832 0.03791 0.31215 0.0
C874 C 0.88986 0.02269 0.25924 0.0
H875 H 0.88928 0.04134 0.41483 0.0
H876 H 0.88961 0.05649 0.30521 0.0
C877 C 0.88776 0.99877 0.26963 0.0
C878 C 0.288 0.63857 0.57648 0.0
C879 C 0.27266 0.64014 0.62912 0.0
H880 H 0.2916 0.63941 0.47387 0.0
C881 C 0.2487 0.63798 0.61835 0.0
H882 H 0.30661 0.63989 0.58374 0.0
C883 C 0.24013 0.63792 0.55541 0.0
C884 C 0.25544 0.63968 0.50275 0.0
H885 H 0.23651 0.63905 0.65802 0.0
H886 H 0.22149 0.63876 0.54814 0.0
C887 C 0.27943 0.63817 0.51355 0.0
C888 C 0.38457 0.02657 0.2582 0.0
C889 C 0.3874 1.00277 0.24726 0.0
H890 H 0.38463 0.05366 0.32865 0.0
C891 C 0.38608 0.98738 0.29974 0.0
H892 H 0.38539 0.03879 0.21866 0.0
C893 C 0.38541 0.99585 0.36275 0.0
C894 C 0.38639 0.01981 0.3738 0.0
H895 H 0.38788 0.96887 0.29236 0.0
H896 H 0.38698 0.98372 0.40229 0.0
C897 C 0.38419 0.03506 0.32123 0.0
C898 C 0.77981 0.64647 0.1436 0.0
C899 C 0.75594 0.6433 0.15393 0.0
H900 H 0.80633 0.65346 0.07399 0.0
C901 C 0.74127 0.63897 0.101 0.0
H902 H 0.79144 0.64993 0.18358 0.0
C903 C 0.7498 0.64083 0.03827 0.0
C904 C 0.77297 0.64742 0.02812 0.0
H905 H 0.72277 0.63643 0.10803 0.0
H906 H 0.73775 0.63952 0.99829 0.0
C907 C 0.78824 0.64877 0.08092 0.0
C908 C 0.1402 0.0288 0.87104 0.0
C909 C 0.13829 1.00489 0.88176 0.0
H910 H 0.13911 0.05591 0.80088 0.0
C911 C 0.13994 0.98958 0.8291 0.0
H912 H 0.13907 0.04096 0.91074 0.0
C913 C 0.1402 0.9981 0.76619 0.0
C914 C 0.13846 0.02202 0.75543 0.0
H915 H 0.13879 0.971 0.83634 0.0
H916 H 0.13905 0.98594 0.72649 0.0
C917 C 0.14012 0.03733 0.80812 0.0
C918 C 0.7876 0.39359 0.60341 0.0
C919 C 0.77272 0.38967 0.6561 0.0
H920 H 0.79125 0.39295 0.50076 0.0
C921 C 0.74876 0.38752 0.64546 0.0
H922 H 0.80618 0.39541 0.61068 0.0
C923 C 0.74033 0.38564 0.58264 0.0
C924 C 0.75572 0.38638 0.53006 0.0
H925 H 0.73695 0.38443 0.68522 0.0
H926 H 0.7221 0.38159 0.57543 0.0
C927 C 0.7791 0.39214 0.54055 0.0
C928 C 0.12323 0.38848 0.17344 0.0
C929 C 0.13034 0.41125 0.15899 0.0
H930 H 0.13359 0.35487 0.20831 0.0
C931 C 0.15324 0.41803 0.17317 0.0
H932 H 0.10552 0.38298 0.164 0.0
C933 C 0.16869 0.40254 0.20172 0.0
C934 C 0.16189 0.37964 0.21494 0.0
H935 H 0.15904 0.43562 0.16403 0.0
H936 H 0.18628 0.40833 0.21157 0.0
C937 C 0.13911 0.37257 0.19961 0.0
C938 C 0.90578 0.89712 0.40464 0.0
C939 C 0.90785 0.9013 0.47129 0.0
H940 H 0.88666 0.88002 0.32935 0.0
C941 C 0.8945 0.88786 0.51388 0.0
H942 H 0.91569 0.9073 0.37041 0.0
C943 C 0.87829 0.87176 0.49021 0.0
C944 C 0.8746 0.86926 0.42344 0.0
H945 H 0.89565 0.89069 0.56537 0.0
H946 H 0.86732 0.86269 0.52438 0.0
C947 C 0.88909 0.88152 0.38094 0.0
C948 C 0.40718 0.63312 0.731 0.0
C949 C 0.40933 0.62936 0.66419 0.0
H950 H 0.38823 0.64995 0.80677 0.0
C951 C 0.39638 0.64326 0.62203 0.0
H952 H 0.41678 0.62257 0.7649 0.0
C953 C 0.38046 0.65941 0.6462 0.0
C954 C 0.37667 0.6615 0.71301 0.0
H955 H 0.39759 0.64074 0.57043 0.0
H956 H 0.36977 0.66885 0.6123 0.0
C957 C 0.39077 0.64877 0.75517 0.0
C958 C 0.66845 0.12468 0.91593 0.0
C959 C 0.66255 0.14806 0.90728 0.0
H960 H 0.6579 0.09127 0.95003 0.0
C961 C 0.64037 0.1556 0.92652 0.0
H962 H 0.68557 0.11846 0.90296 0.0
C963 C 0.62421 0.13977 0.95238 0.0
C964 C 0.63052 0.11654 0.96262 0.0
H965 H 0.63555 0.17364 0.92133 0.0
H966 H 0.60697 0.1457 0.96512 0.0
C967 C 0.65278 0.10922 0.94419 0.0
C968 C 0.13773 0.64505 0.37846 0.0
C969 C 0.15124 0.65895 0.41966 0.0
H970 H 0.11252 0.6178 0.37073 0.0
C971 C 0.14708 0.65782 0.48647 0.0
H972 H 0.14054 0.64548 0.32688 0.0
C973 C 0.13145 0.64153 0.51185 0.0
C974 C 0.11917 0.62646 0.47086 0.0
H975 H 0.15729 0.66819 0.51968 0.0
H976 H 0.12995 0.63986 0.56366 0.0
C977 C 0.12163 0.6292 0.40377 0.0
C978 C 0.61901 0.89799 0.71688 0.0
C979 C 0.61733 0.90073 0.6496 0.0
H980 H 0.63722 0.88212 0.79548 0.0
C981 C 0.63033 0.88599 0.60976 0.0
H982 H 0.60933 0.90916 0.74905 0.0
C983 C 0.6459 0.87005 0.63657 0.0
C984 C 0.64926 0.86898 0.70374 0.0
H985 H 0.62945 0.88766 0.55785 0.0
H986 H 0.65666 0.85996 0.6043 0.0
C987 C 0.63504 0.88251 0.74366 0.0
C988 C 0.39188 0.38466 0.85368 0.0
C989 C 0.37805 0.37107 0.89472 0.0
H990 H 0.41698 0.41202 0.84603 0.0
C991 C 0.38146 0.37297 0.96175 0.0
H992 H 0.38965 0.38365 0.80193 0.0
C993 C 0.39671 0.38965 0.98722 0.0
C994 C 0.40934 0.40435 0.94618 0.0
H995 H 0.37098 0.36285 0.99484 0.0
H996 H 0.39763 0.39187 0.03898 0.0
C997 C 0.40759 0.4009 0.87913 0.0
C998 C 0.89378 0.14675 0.26941 0.0
C999 C 0.8797 0.15976 0.22783 0.0
H1000 H 0.91928 0.12001 0.27815 0.0
C1001 C 0.88298 0.15745 0.16086 0.0
H1002 H 0.89163 0.14808 0.32112 0.0
C1003 C 0.89838 0.14091 0.13609 0.0
C1004 C 0.91133 0.12681 0.17774 0.0
H1005 H 0.87229 0.16708 0.12739 0.0
H1006 H 0.89921 0.13832 0.08446 0.0
C1007 C 0.90968 0.1307 0.24461 0.0
C1008 C 0.9042 0.64132 0.95076 0.0
C1009 C 0.89718 0.61851 0.96505 0.0
H1010 H 0.89372 0.6749 0.91586 0.0
C1011 C 0.87435 0.61162 0.9505 0.0
H1012 H 0.92186 0.64691 0.96047 0.0
C1013 C 0.85886 0.62704 0.92178 0.0
C1014 C 0.86557 0.64999 0.90876 0.0
H1015 H 0.86862 0.594 0.95951 0.0
H1016 H 0.84132 0.62116 0.91167 0.0
C1017 C 0.88828 0.65716 0.92442 0.0
C1018 C 0.12326 0.13019 0.72931 0.0
C1019 C 0.12084 0.12556 0.66297 0.0
H1020 H 0.14272 0.14787 0.8029 0.0
C1021 C 0.13395 0.13872 0.61914 0.0
H1022 H 0.11355 0.12022 0.76445 0.0
C1023 C 0.15022 0.15504 0.64129 0.0
C1024 C 0.15422 0.15802 0.70776 0.0
H1025 H 0.13253 0.13552 0.56786 0.0
H1026 H 0.16097 0.16391 0.60622 0.0
C1027 C 0.14003 0.146 0.7515 0.0
C1028 C 0.66848 0.40471 0.42185 0.0
C1029 C 0.66228 0.38145 0.41127 0.0
H1030 H 0.65816 0.43796 0.45717 0.0
C1031 C 0.63983 0.37395 0.42857 0.0
H1032 H 0.68582 0.41087 0.41043 0.0
C1033 C 0.62368 0.38973 0.45423 0.0
C1034 C 0.63024 0.41286 0.46624 0.0
H1035 H 0.63477 0.35599 0.42191 0.0
H1036 H 0.60624 0.38385 0.46534 0.0
C1037 C 0.6528 0.4201 0.44993 0.0
C1038 C 0.40709 0.89616 0.23036 0.0
C1039 C 0.40914 0.8999 0.16354 0.0
H1040 H 0.38823 0.87924 0.30628 0.0
C1041 C 0.39615 0.88585 0.12147 0.0
H1042 H 0.41673 0.90681 0.26419 0.0
C1043 C 0.38026 0.86959 0.14576 0.0
C1044 C 0.37654 0.86754 0.2126 0.0
H1045 H 0.3973 0.88834 0.06986 0.0
H1046 H 0.36953 0.86004 0.11194 0.0
C1047 C 0.39071 0.8804 0.25465 0.0
C1048 C 0.88202 0.37107 0.65258 0.0
C1049 C 0.8791 0.37017 0.71994 0.0
H1050 H 0.89772 0.38872 0.57259 0.0
C1051 C 0.8934 0.38417 0.75877 0.0
H1052 H 0.87122 0.3606 0.62112 0.0
C1053 C 0.90899 0.39994 0.73079 0.0
C1054 C 0.91019 0.40247 0.66336 0.0
H1055 H 0.8916 0.3839 0.8107 0.0
H1056 H 0.91871 0.41144 0.76222 0.0
C1057 C 0.89719 0.38724 0.62458 0.0
C1058 C 0.40732 0.12844 0.38625 0.0
C1059 C 0.40997 0.12482 0.45296 0.0
H1060 H 0.38839 0.14585 0.3116 0.0
C1061 C 0.39819 0.13951 0.49578 0.0
H1062 H 0.41604 0.11733 0.35188 0.0
C1063 C 0.38282 0.15631 0.47247 0.0
C1064 C 0.37839 0.15829 0.40594 0.0
H1065 H 0.39985 0.13714 0.54733 0.0
H1066 H 0.37295 0.16636 0.50696 0.0
C1067 C 0.39143 0.14477 0.363 0.0
C1068 C 0.61846 0.63151 0.22735 0.0
C1069 C 0.61733 0.62896 0.15989 0.0
H1070 H 0.6359 0.64739 0.30762 0.0
C1071 C 0.63073 0.6439 0.12139 0.0
H1072 H 0.60848 0.6202 0.25855 0.0
C1073 C 0.64606 0.6599 0.14971 0.0
C1074 C 0.64879 0.66089 0.21713 0.0
H1075 H 0.63029 0.64238 0.06939 0.0
H1076 H 0.65708 0.6702 0.11847 0.0
C1077 C 0.63423 0.64708 0.25566 0.0
C1078 C 0.13679 0.88153 0.87627 0.0
C1079 C 0.15075 0.86873 0.91866 0.0
H1080 H 0.11096 0.90789 0.86609 0.0
C1081 C 0.14695 0.87098 0.98542 0.0
H1082 H 0.13935 0.88024 0.8247 0.0
C1083 C 0.13114 0.8873 1.00931 0.0
C1084 C 0.11829 0.9012 0.96692 0.0
H1085 H 0.15754 0.86151 0.01949 0.0
H1086 H 0.1299 0.8899 0.06088 0.0
C1087 C 0.12048 0.89734 0.90016 0.0
loop_
_geom_bond_atom_site_label_1
_geom_bond_atom_site_label_2
_geom_bond_distance
_geom_bond_site_symmetry_2
_ccdc_geom_bond_type
O0 Cd1 2.223 . S
O0 C8 1.315 . S
Cd1 O0 2.223 . S
Cd1 O4 2.297 . S
Cd1 O5 2.439 . S
Cd1 O11 2.240 . S
Cd2 O3 2.240 . S
Cd2 O10 2.223 . S
Cd2 O12 2.297 1_554 S
Cd2 O13 2.439 1_554 S
O3 Cd2 2.240 . S
O3 C8 1.279 . S
O4 Cd1 2.297 . S
O4 C6 1.247 . S
O5 Cd1 2.439 . S
O5 C6 1.208 . S
C6 O4 1.247 . S
C6 O5 1.208 . S
C7 O12 1.247 . S
C7 O13 1.208 . S
C8 O0 1.315 . S
C8 O3 1.279 . S
C9 O10 1.315 . S
C9 O11 1.279 . S
O10 Cd2 2.223 . S
O10 C9 1.315 . S
O11 Cd1 2.240 . S
O11 C9 1.279 . S
O12 Cd2 2.297 1_556 S
O12 C7 1.247 . S
O13 Cd2 2.439 1_556 S
O13 C7 1.208 . S
O14 Cd15 2.223 . S
O14 C22 1.315 . S
Cd15 O14 2.223 . S
Cd15 O18 2.297 . S
Cd15 O19 2.439 . S
Cd15 O25 2.240 . S
Cd16 O17 2.240 . S
Cd16 O24 2.223 . S
Cd16 O26 2.297 . S
Cd16 O27 2.439 . S
O17 Cd16 2.240 . S
O17 C22 1.279 . S
O18 Cd15 2.297 . S
O18 C20 1.247 . S
O19 Cd15 2.439 . S
O19 C20 1.208 . S
C20 O18 1.247 . S
C20 O19 1.208 . S
C21 O26 1.247 . S
C21 O27 1.208 . S
C22 O14 1.315 . S
C22 O17 1.279 . S
C23 O24 1.315 . S
C23 O25 1.279 . S
O24 Cd16 2.223 . S
O24 C23 1.315 . S
O25 Cd15 2.240 . S
O25 C23 1.279 . S
O26 Cd16 2.297 . S
O26 C21 1.247 . S
O27 Cd16 2.439 . S
O27 C21 1.208 . S
O28 Cd29 2.223 . S
O28 C36 1.315 . S
Cd29 O28 2.223 . S
Cd29 O32 2.297 . S
Cd29 O33 2.439 . S
Cd29 O39 2.240 . S
Cd30 O31 2.240 . S
Cd30 O38 2.223 . S
Cd30 O40 2.297 . S
Cd30 O41 2.439 . S
O31 Cd30 2.240 . S
O31 C36 1.279 . S
O32 Cd29 2.297 . S
O32 C34 1.247 . S
O33 Cd29 2.439 . S
O33 C34 1.208 . S
C34 O32 1.247 . S
C34 O33 1.208 . S
C35 O40 1.247 . S
C35 O41 1.208 . S
C36 O28 1.315 . S
C36 O31 1.279 . S
C37 O38 1.315 . S
C37 O39 1.279 . S
O38 Cd30 2.223 . S
O38 C37 1.315 . S
O39 Cd29 2.240 . S
O39 C37 1.279 . S
O40 Cd30 2.297 . S
O40 C35 1.247 . S
O41 Cd30 2.439 . S
O41 C35 1.208 . S
O42 Cd43 2.223 . S
O42 C50 1.315 . S
Cd43 O42 2.223 . S
Cd43 O46 2.297 . S
Cd43 O47 2.439 . S
Cd43 O53 2.240 . S
Cd44 O45 2.240 . S
Cd44 O52 2.223 . S
Cd44 O54 2.297 . S
Cd44 O55 2.439 . S
O45 Cd44 2.240 . S
O45 C50 1.279 . S
O46 Cd43 2.297 . S
O46 C48 1.247 . S
O47 Cd43 2.439 . S
O47 C48 1.208 . S
C48 O46 1.247 . S
C48 O47 1.208 . S
C49 O54 1.247 . S
C49 O55 1.208 . S
C50 O42 1.315 . S
C50 O45 1.279 . S
C51 O52 1.315 . S
C51 O53 1.279 . S
O52 Cd44 2.223 . S
O52 C51 1.315 . S
O53 Cd43 2.240 . S
O53 C51 1.279 . S
O54 Cd44 2.297 . S
O54 C49 1.247 . S
O55 Cd44 2.439 . S
O55 C49 1.208 . S
O56 Cd57 2.223 . S
O56 C64 1.315 . S
Cd57 O56 2.223 . S
Cd57 O60 2.297 . S
Cd57 O61 2.439 . S
Cd57 O67 2.240 . S
Cd58 O59 2.240 . S
Cd58 O66 2.223 . S
Cd58 O68 2.297 . S
Cd58 O69 2.439 . S
O59 Cd58 2.240 . S
O59 C64 1.279 . S
O60 Cd57 2.297 . S
O60 C62 1.247 . S
O61 Cd57 2.439 . S
O61 C62 1.208 . S
C62 O60 1.247 . S
C62 O61 1.208 . S
C63 O68 1.247 . S
C63 O69 1.208 . S
C64 O56 1.315 . S
C64 O59 1.279 . S
C65 O66 1.315 . S
C65 O67 1.279 . S
O66 Cd58 2.223 . S
O66 C65 1.315 . S
O67 Cd57 2.240 . S
O67 C65 1.279 . S
O68 Cd58 2.297 . S
O68 C63 1.247 . S
O69 Cd58 2.439 . S
O69 C63 1.208 . S
O70 Cd71 2.223 . S
O70 C78 1.315 . S
Cd71 O70 2.223 . S
Cd71 O74 2.297 . S
Cd71 O75 2.439 . S
Cd71 O81 2.240 . S
Cd72 O73 2.240 . S
Cd72 O80 2.223 . S
Cd72 O82 2.297 . S
Cd72 O83 2.439 . S
O73 Cd72 2.240 . S
O73 C78 1.279 . S
O74 Cd71 2.297 . S
O74 C76 1.247 . S
O75 Cd71 2.439 . S
O75 C76 1.208 . S
C76 O74 1.247 . S
C76 O75 1.208 . S
C77 O82 1.247 . S
C77 O83 1.208 . S
C78 O70 1.315 . S
C78 O73 1.279 . S
C79 O80 1.315 . S
C79 O81 1.279 . S
O80 Cd72 2.223 . S
O80 C79 1.315 . S
O81 Cd71 2.240 . S
O81 C79 1.279 . S
O82 Cd72 2.297 . S
O82 C77 1.247 . S
O83 Cd72 2.439 . S
O83 C77 1.208 . S
O84 Cd85 2.223 . S
O84 C92 1.315 . S
Cd85 O84 2.223 . S
Cd85 O88 2.297 . S
Cd85 O89 2.439 1_556 S
Cd85 O95 2.240 1_556 S
Cd86 O87 2.240 1_554 S
Cd86 O94 2.223 . S
Cd86 O96 2.297 . S
Cd86 O97 2.439 . S
O87 Cd86 2.240 1_556 S
O87 C92 1.279 . S
O88 Cd85 2.297 . S
O88 C90 1.247 . S
O89 Cd85 2.439 1_554 S
O89 C90 1.208 1_554 S
C90 O88 1.247 . S
C90 O89 1.208 1_556 S
C91 O96 1.247 . S
C91 O97 1.208 . S
C92 O84 1.315 . S
C92 O87 1.279 . S
C93 O94 1.315 . S
C93 O95 1.279 . S
O94 Cd86 2.223 . S
O94 C93 1.315 . S
O95 Cd85 2.240 1_554 S
O95 C93 1.279 . S
O96 Cd86 2.297 . S
O96 C91 1.247 . S
O97 Cd86 2.439 . S
O97 C91 1.208 . S
O98 Cd99 2.223 . S
O98 C106 1.315 . S
Cd99 O98 2.223 . S
Cd99 O102 2.297 . S
Cd99 O103 2.439 . S
Cd99 O109 2.240 . S
Cd100 O101 2.240 . S
Cd100 O108 2.223 . S
Cd100 O110 2.297 . S
Cd100 O111 2.439 . S
O101 Cd100 2.240 . S
O101 C106 1.279 . S
O102 Cd99 2.297 . S
O102 C104 1.247 . S
O103 Cd99 2.439 . S
O103 C104 1.208 . S
C104 O102 1.247 . S
C104 O103 1.208 . S
C105 O110 1.247 . S
C105 O111 1.208 . S
C106 O98 1.315 . S
C106 O101 1.279 . S
C107 O108 1.315 . S
C107 O109 1.279 . S
O108 Cd100 2.223 . S
O108 C107 1.315 . S
O109 Cd99 2.240 . S
O109 C107 1.279 . S
O110 Cd100 2.297 . S
O110 C105 1.247 . S
O111 Cd100 2.439 . S
O111 C105 1.208 . S
O112 Cd113 2.223 . S
O112 C120 1.315 . S
Cd113 O112 2.223 . S
Cd113 O116 2.297 . S
Cd113 O117 2.439 1_556 S
Cd113 O123 2.240 1_556 S
Cd114 O115 2.240 1_554 S
Cd114 O122 2.223 . S
Cd114 O124 2.297 . S
Cd114 O125 2.439 . S
O115 Cd114 2.240 1_556 S
O115 C120 1.279 . S
O116 Cd113 2.297 . S
O116 C118 1.247 . S
O117 Cd113 2.439 1_554 S
O117 C118 1.208 1_554 S
C118 O116 1.247 . S
C118 O117 1.208 1_556 S
C119 O124 1.247 . S
C119 O125 1.208 . S
C120 O112 1.315 . S
C120 O115 1.279 . S
C121 O122 1.315 . S
C121 O123 1.279 . S
O122 Cd114 2.223 . S
O122 C121 1.315 . S
O123 Cd113 2.240 1_554 S
O123 C121 1.279 . S
O124 Cd114 2.297 . S
O124 C119 1.247 . S
O125 Cd114 2.439 . S
O125 C119 1.208 . S
O126 Cd127 2.223 . S
O126 C134 1.315 . S
Cd127 O126 2.223 . S
Cd127 O130 2.297 . S
Cd127 O131 2.439 . S
Cd127 O137 2.240 . S
Cd128 O129 2.240 . S
Cd128 O136 2.223 . S
Cd128 O138 2.297 . S
Cd128 O139 2.439 . S
O129 Cd128 2.240 . S
O129 C134 1.279 . S
O130 Cd127 2.297 . S
O130 C132 1.247 . S
O131 Cd127 2.439 . S
O131 C132 1.208 . S
C132 O130 1.247 . S
C132 O131 1.208 . S
C133 O138 1.247 . S
C133 O139 1.208 . S
C134 O126 1.315 . S
C134 O129 1.279 . S
C135 O136 1.315 . S
C135 O137 1.279 . S
O136 Cd128 2.223 . S
O136 C135 1.315 . S
O137 Cd127 2.240 . S
O137 C135 1.279 . S
O138 Cd128 2.297 . S
O138 C133 1.247 . S
O139 Cd128 2.439 . S
O139 C133 1.208 . S
O140 Cd141 2.223 . S
O140 C148 1.315 . S
Cd141 O140 2.223 . S
Cd141 O144 2.297 . S
Cd141 O145 2.439 . S
Cd141 O151 2.240 . S
Cd142 O143 2.240 . S
Cd142 O150 2.223 . S
Cd142 O152 2.297 . S
Cd142 O153 2.439 . S
O143 Cd142 2.240 . S
O143 C148 1.279 . S
O144 Cd141 2.297 . S
O144 C146 1.247 . S
O145 Cd141 2.439 . S
O145 C146 1.208 . S
C146 O144 1.247 . S
C146 O145 1.208 . S
C147 O152 1.247 . S
C147 O153 1.208 . S
C148 O140 1.315 . S
C148 O143 1.279 . S
C149 O150 1.315 . S
C149 O151 1.279 . S
O150 Cd142 2.223 . S
O150 C149 1.315 . S
O151 Cd141 2.240 . S
O151 C149 1.279 . S
O152 Cd142 2.297 . S
O152 C147 1.247 . S
O153 Cd142 2.439 . S
O153 C147 1.208 . S
O154 Cd155 2.223 . S
O154 C162 1.315 . S
Cd155 O154 2.223 . S
Cd155 O158 2.297 . S
Cd155 O159 2.439 . S
Cd155 O165 2.240 . S
Cd156 O157 2.240 . S
Cd156 O164 2.223 . S
Cd156 O166 2.297 . S
Cd156 O167 2.439 . S
O157 Cd156 2.240 . S
O157 C162 1.279 . S
O158 Cd155 2.297 . S
O158 C160 1.247 . S
O159 Cd155 2.439 . S
O159 C160 1.208 . S
C160 O158 1.247 . S
C160 O159 1.208 . S
C161 O166 1.247 . S
C161 O167 1.208 . S
C162 O154 1.315 . S
C162 O157 1.279 . S
C163 O164 1.315 . S
C163 O165 1.279 . S
O164 Cd156 2.223 . S
O164 C163 1.315 . S
O165 Cd155 2.240 . S
O165 C163 1.279 . S
O166 Cd156 2.297 . S
O166 C161 1.247 . S
O167 Cd156 2.439 . S
O167 C161 1.208 . S
O168 Cd169 2.223 . S
O168 C176 1.315 . S
Cd169 O168 2.223 . S
Cd169 O172 2.297 . S
Cd169 O173 2.439 . S
Cd169 O179 2.240 . S
Cd170 O171 2.240 . S
Cd170 O178 2.223 . S
Cd170 O180 2.297 . S
Cd170 O181 2.439 . S
O171 Cd170 2.240 . S
O171 C176 1.279 . S
O172 Cd169 2.297 . S
O172 C174 1.247 . S
O173 Cd169 2.439 . S
O173 C174 1.208 . S
C174 O172 1.247 . S
C174 O173 1.208 . S
C175 O180 1.247 . S
C175 O181 1.208 . S
C176 O168 1.315 . S
C176 O171 1.279 . S
C177 O178 1.315 . S
C177 O179 1.279 . S
O178 Cd170 2.223 . S
O178 C177 1.315 . S
O179 Cd169 2.240 . S
O179 C177 1.279 . S
O180 Cd170 2.297 . S
O180 C175 1.247 . S
O181 Cd170 2.439 . S
O181 C175 1.208 . S
O182 Cd183 2.223 . S
O182 C190 1.315 . S
Cd183 O182 2.223 . S
Cd183 O186 2.297 . S
Cd183 O187 2.439 . S
Cd183 O193 2.240 . S
Cd184 O185 2.240 . S
Cd184 O192 2.223 . S
Cd184 O194 2.297 . S
Cd184 O195 2.439 . S
O185 Cd184 2.240 . S
O185 C190 1.279 . S
O186 Cd183 2.297 . S
O186 C188 1.247 . S
O187 Cd183 2.439 . S
O187 C188 1.208 . S
C188 O186 1.247 . S
C188 O187 1.208 . S
C189 O194 1.247 . S
C189 O195 1.208 . S
C190 O182 1.315 . S
C190 O185 1.279 . S
C191 O192 1.315 . S
C191 O193 1.279 . S
O192 Cd184 2.223 . S
O192 C191 1.315 . S
O193 Cd183 2.240 . S
O193 C191 1.279 . S
O194 Cd184 2.297 . S
O194 C189 1.247 . S
O195 Cd184 2.439 . S
O195 C189 1.208 . S
O196 Cd197 2.223 . S
O196 C204 1.315 . S
Cd197 O196 2.223 . S
Cd197 O200 2.297 . S
Cd197 O201 2.439 . S
Cd197 O207 2.240 . S
Cd198 O199 2.240 . S
Cd198 O206 2.223 . S
Cd198 O208 2.297 1_554 S
Cd198 O209 2.439 1_554 S
O199 Cd198 2.240 . S
O199 C204 1.279 . S
O200 Cd197 2.297 . S
O200 C202 1.247 . S
O201 Cd197 2.439 . S
O201 C202 1.208 . S
C202 O200 1.247 . S
C202 O201 1.208 . S
C203 O208 1.247 . S
C203 O209 1.208 . S
C204 O196 1.315 . S
C204 O199 1.279 . S
C205 O206 1.315 . S
C205 O207 1.279 . S
O206 Cd198 2.223 . S
O206 C205 1.315 . S
O207 Cd197 2.240 . S
O207 C205 1.279 . S
O208 Cd198 2.297 1_556 S
O208 C203 1.247 . S
O209 Cd198 2.439 1_556 S
O209 C203 1.208 . S
O210 Cd211 2.223 . S
O210 C218 1.315 . S
Cd211 O210 2.223 . S
Cd211 O214 2.297 . S
Cd211 O215 2.439 . S
Cd211 O221 2.240 . S
Cd212 O213 2.240 . S
Cd212 O220 2.223 . S
Cd212 O222 2.297 . S
Cd212 O223 2.439 . S
O213 Cd212 2.240 . S
O213 C218 1.279 . S
O214 Cd211 2.297 . S
O214 C216 1.247 . S
O215 Cd211 2.439 . S
O215 C216 1.208 . S
C216 O214 1.247 . S
C216 O215 1.208 . S
C217 O222 1.247 . S
C217 O223 1.208 . S
C218 O210 1.315 . S
C218 O213 1.279 . S
C219 O220 1.315 . S
C219 O221 1.279 . S
O220 Cd212 2.223 . S
O220 C219 1.315 . S
O221 Cd211 2.240 . S
O221 C219 1.279 . S
O222 Cd212 2.297 . S
O222 C217 1.247 . S
O223 Cd212 2.439 . S
O223 C217 1.208 . S
O224 Cd225 2.223 . S
O224 C232 1.315 . S
Cd225 O224 2.223 . S
Cd225 O228 2.297 . S
Cd225 O229 2.439 . S
Cd225 O235 2.240 . S
Cd226 O227 2.240 1_545 S
Cd226 O234 2.223 . S
Cd226 O236 2.297 . S
Cd226 O237 2.439 1_545 S
O227 Cd226 2.240 1_565 S
O227 C232 1.279 . S
O228 Cd225 2.297 . S
O228 C230 1.247 . S
O229 Cd225 2.439 . S
O229 C230 1.208 . S
C230 O228 1.247 . S
C230 O229 1.208 . S
C231 O236 1.247 1_565 S
C231 O237 1.208 . S
C232 O224 1.315 . S
C232 O227 1.279 . S
C233 O234 1.315 1_565 S
C233 O235 1.279 . S
O234 Cd226 2.223 . S
O234 C233 1.315 1_545 S
O235 Cd225 2.240 . S
O235 C233 1.279 . S
O236 Cd226 2.297 . S
O236 C231 1.247 1_545 S
O237 Cd226 2.439 1_565 S
O237 C231 1.208 . S
O238 Cd239 2.223 . S
O238 C246 1.315 . S
Cd239 O238 2.223 . S
Cd239 O242 2.297 . S
Cd239 O243 2.439 . S
Cd239 O249 2.240 . S
Cd240 O241 2.240 . S
Cd240 O248 2.223 . S
Cd240 O250 2.297 . S
Cd240 O251 2.439 . S
O241 Cd240 2.240 . S
O241 C246 1.279 . S
O242 Cd239 2.297 . S
O242 C244 1.247 . S
O243 Cd239 2.439 . S
O243 C244 1.208 . S
C244 O242 1.247 . S
C244 O243 1.208 . S
C245 O250 1.247 . S
C245 O251 1.208 . S
C246 O238 1.315 . S
C246 O241 1.279 . S
C247 O248 1.315 . S
C247 O249 1.279 . S
O248 Cd240 2.223 . S
O248 C247 1.315 . S
O249 Cd239 2.240 . S
O249 C247 1.279 . S
O250 Cd240 2.297 . S
O250 C245 1.247 . S
O251 Cd240 2.439 . S
O251 C245 1.208 . S
O252 Cd253 2.223 . S
O252 C260 1.315 . S
Cd253 O252 2.223 . S
Cd253 O256 2.297 . S
Cd253 O257 2.439 . S
Cd253 O263 2.240 . S
Cd254 O255 2.240 1_565 S
Cd254 O262 2.223 . S
Cd254 O264 2.297 1_554 S
Cd254 O265 2.439 1_564 S
O255 Cd254 2.240 1_545 S
O255 C260 1.279 . S
O256 Cd253 2.297 . S
O256 C258 1.247 . S
O257 Cd253 2.439 . S
O257 C258 1.208 . S
C258 O256 1.247 . S
C258 O257 1.208 . S
C259 O264 1.247 1_545 S
C259 O265 1.208 . S
C260 O252 1.315 . S
C260 O255 1.279 . S
C261 O262 1.315 1_545 S
C261 O263 1.279 . S
O262 Cd254 2.223 . S
O262 C261 1.315 1_565 S
O263 Cd253 2.240 . S
O263 C261 1.279 . S
O264 Cd254 2.297 1_556 S
O264 C259 1.247 1_565 S
O265 Cd254 2.439 1_546 S
O265 C259 1.208 . S
O266 Cd267 2.223 . S
O266 C274 1.315 . S
Cd267 O266 2.223 . S
Cd267 O270 2.297 . S
Cd267 O271 2.439 . S
Cd267 O277 2.240 . S
Cd268 O269 2.240 . S
Cd268 O276 2.223 . S
Cd268 O278 2.297 . S
Cd268 O279 2.439 . S
O269 Cd268 2.240 . S
O269 C274 1.279 . S
O270 Cd267 2.297 . S
O270 C272 1.247 . S
O271 Cd267 2.439 . S
O271 C272 1.208 . S
C272 O270 1.247 . S
C272 O271 1.208 . S
C273 O278 1.247 . S
C273 O279 1.208 . S
C274 O266 1.315 . S
C274 O269 1.279 . S
C275 O276 1.315 . S
C275 O277 1.279 . S
O276 Cd268 2.223 . S
O276 C275 1.315 . S
O277 Cd267 2.240 . S
O277 C275 1.279 . S
O278 Cd268 2.297 . S
O278 C273 1.247 . S
O279 Cd268 2.439 . S
O279 C273 1.208 . S
O280 Cd281 2.223 . S
O280 C288 1.315 . S
Cd281 O280 2.223 . S
Cd281 O284 2.297 . S
Cd281 O285 2.439 1_556 S
Cd281 O291 2.240 1_556 S
Cd282 O283 2.240 1_564 S
Cd282 O290 2.223 . S
Cd282 O292 2.297 . S
Cd282 O293 2.439 1_565 S
O283 Cd282 2.240 1_546 S
O283 C288 1.279 . S
O284 Cd281 2.297 . S
O284 C286 1.247 . S
O285 Cd281 2.439 1_554 S
O285 C286 1.208 1_554 S
C286 O284 1.247 . S
C286 O285 1.208 1_556 S
C287 O292 1.247 1_545 S
C287 O293 1.208 . S
C288 O280 1.315 . S
C288 O283 1.279 . S
C289 O290 1.315 1_545 S
C289 O291 1.279 . S
O290 Cd282 2.223 . S
O290 C289 1.315 1_565 S
O291 Cd281 2.240 1_554 S
O291 C289 1.279 . S
O292 Cd282 2.297 . S
O292 C287 1.247 1_565 S
O293 Cd282 2.439 1_545 S
O293 C287 1.208 . S
O294 Cd295 2.223 . S
O294 C302 1.315 . S
Cd295 O294 2.223 . S
Cd295 O298 2.297 . S
Cd295 O299 2.439 . S
Cd295 O305 2.240 . S
Cd296 O297 2.240 . S
Cd296 O304 2.223 . S
Cd296 O306 2.297 . S
Cd296 O307 2.439 . S
O297 Cd296 2.240 . S
O297 C302 1.279 . S
O298 Cd295 2.297 . S
O298 C300 1.247 . S
O299 Cd295 2.439 . S
O299 C300 1.208 . S
C300 O298 1.247 . S
C300 O299 1.208 . S
C301 O306 1.247 . S
C301 O307 1.208 . S
C302 O294 1.315 . S
C302 O297 1.279 . S
C303 O304 1.315 . S
C303 O305 1.279 . S
O304 Cd296 2.223 . S
O304 C303 1.315 . S
O305 Cd295 2.240 . S
O305 C303 1.279 . S
O306 Cd296 2.297 . S
O306 C301 1.247 . S
O307 Cd296 2.439 . S
O307 C301 1.208 . S
O308 Cd309 2.223 . S
O308 C316 1.315 . S
Cd309 O308 2.223 . S
Cd309 O312 2.297 . S
Cd309 O313 2.439 . S
Cd309 O319 2.240 . S
Cd310 O311 2.240 1_545 S
Cd310 O318 2.223 . S
Cd310 O320 2.297 . S
Cd310 O321 2.439 1_545 S
O311 Cd310 2.240 1_565 S
O311 C316 1.279 . S
O312 Cd309 2.297 . S
O312 C314 1.247 . S
O313 Cd309 2.439 . S
O313 C314 1.208 . S
C314 O312 1.247 . S
C314 O313 1.208 . S
C315 O320 1.247 1_565 S
C315 O321 1.208 . S
C316 O308 1.315 . S
C316 O311 1.279 . S
C317 O318 1.315 1_565 S
C317 O319 1.279 . S
O318 Cd310 2.223 . S
O318 C317 1.315 1_545 S
O319 Cd309 2.240 . S
O319 C317 1.279 . S
O320 Cd310 2.297 . S
O320 C315 1.247 1_545 S
O321 Cd310 2.439 1_565 S
O321 C315 1.208 . S
O322 Cd323 2.223 . S
O322 C330 1.315 . S
Cd323 O322 2.223 . S
Cd323 O326 2.297 . S
Cd323 O327 2.439 . S
Cd323 O333 2.240 . S
Cd324 O325 2.240 . S
Cd324 O332 2.223 . S
Cd324 O334 2.297 . S
Cd324 O335 2.439 . S
O325 Cd324 2.240 . S
O325 C330 1.279 . S
O326 Cd323 2.297 . S
O326 C328 1.247 . S
O327 Cd323 2.439 . S
O327 C328 1.208 . S
C328 O326 1.247 . S
C328 O327 1.208 . S
C329 O334 1.247 . S
C329 O335 1.208 . S
C330 O322 1.315 . S
C330 O325 1.279 . S
C331 O332 1.315 . S
C331 O333 1.279 . S
O332 Cd324 2.223 . S
O332 C331 1.315 . S
O333 Cd323 2.240 . S
O333 C331 1.279 . S
O334 Cd324 2.297 . S
O334 C329 1.247 . S
O335 Cd324 2.439 . S
O335 C329 1.208 . S
O336 Cd337 2.223 . S
O336 C344 1.315 . S
Cd337 O336 2.223 . S
Cd337 O340 2.297 . S
Cd337 O341 2.439 . S
Cd337 O347 2.240 . S
Cd338 O339 2.240 1_565 S
Cd338 O346 2.223 . S
Cd338 O348 2.297 . S
Cd338 O349 2.439 1_565 S
O339 Cd338 2.240 1_545 S
O339 C344 1.279 . S
O340 Cd337 2.297 . S
O340 C342 1.247 . S
O341 Cd337 2.439 . S
O341 C342 1.208 . S
C342 O340 1.247 . S
C342 O341 1.208 . S
C343 O348 1.247 1_545 S
C343 O349 1.208 . S
C344 O336 1.315 . S
C344 O339 1.279 . S
C345 O346 1.315 1_545 S
C345 O347 1.279 . S
O346 Cd338 2.223 . S
O346 C345 1.315 1_565 S
O347 Cd337 2.240 . S
O347 C345 1.279 . S
O348 Cd338 2.297 . S
O348 C343 1.247 1_565 S
O349 Cd338 2.439 1_545 S
O349 C343 1.208 . S
O350 Cd351 2.223 . S
O350 C358 1.315 . S
Cd351 O350 2.223 . S
Cd351 O354 2.297 . S
Cd351 O355 2.439 . S
Cd351 O361 2.240 . S
Cd352 O353 2.240 . S
Cd352 O360 2.223 . S
Cd352 O362 2.297 . S
Cd352 O363 2.439 . S
O353 Cd352 2.240 . S
O353 C358 1.279 . S
O354 Cd351 2.297 . S
O354 C356 1.247 . S
O355 Cd351 2.439 . S
O355 C356 1.208 . S
C356 O354 1.247 . S
C356 O355 1.208 . S
C357 O362 1.247 . S
C357 O363 1.208 . S
C358 O350 1.315 . S
C358 O353 1.279 . S
C359 O360 1.315 . S
C359 O361 1.279 . S
O360 Cd352 2.223 . S
O360 C359 1.315 . S
O361 Cd351 2.240 . S
O361 C359 1.279 . S
O362 Cd352 2.297 . S
O362 C357 1.247 . S
O363 Cd352 2.439 . S
O363 C357 1.208 . S
O364 Cd365 2.223 . S
O364 C372 1.315 . S
Cd365 O364 2.223 . S
Cd365 O368 2.297 . S
Cd365 O369 2.439 1_556 S
Cd365 O375 2.240 1_556 S
Cd366 O367 2.240 1_544 S
Cd366 O374 2.223 . S
Cd366 O376 2.297 . S
Cd366 O377 2.439 1_545 S
O367 Cd366 2.240 1_566 S
O367 C372 1.279 . S
O368 Cd365 2.297 . S
O368 C370 1.247 . S
O369 Cd365 2.439 1_554 S
O369 C370 1.208 1_554 S
C370 O368 1.247 . S
C370 O369 1.208 1_556 S
C371 O376 1.247 1_565 S
C371 O377 1.208 . S
C372 O364 1.315 . S
C372 O367 1.279 . S
C373 O374 1.315 1_565 S
C373 O375 1.279 . S
O374 Cd366 2.223 . S
O374 C373 1.315 1_545 S
O375 Cd365 2.240 1_554 S
O375 C373 1.279 . S
O376 Cd366 2.297 . S
O376 C371 1.247 1_545 S
O377 Cd366 2.439 1_565 S
O377 C371 1.208 . S
O378 Cd379 2.223 . S
O378 C386 1.315 . S
Cd379 O378 2.223 . S
Cd379 O382 2.297 . S
Cd379 O383 2.439 . S
Cd379 O389 2.240 . S
Cd380 O381 2.240 . S
Cd380 O388 2.223 . S
Cd380 O390 2.297 . S
Cd380 O391 2.439 . S
O381 Cd380 2.240 . S
O381 C386 1.279 . S
O382 Cd379 2.297 . S
O382 C384 1.247 . S
O383 Cd379 2.439 . S
O383 C384 1.208 . S
C384 O382 1.247 . S
C384 O383 1.208 . S
C385 O390 1.247 . S
C385 O391 1.208 . S
C386 O378 1.315 . S
C386 O381 1.279 . S
C387 O388 1.315 . S
C387 O389 1.279 . S
O388 Cd380 2.223 . S
O388 C387 1.315 . S
O389 Cd379 2.240 . S
O389 C387 1.279 . S
O390 Cd380 2.297 . S
O390 C385 1.247 . S
O391 Cd380 2.439 . S
O391 C385 1.208 . S
O392 Cd393 2.223 . S
O392 C400 1.315 . S
Cd393 O392 2.223 . S
Cd393 O396 2.297 . S
Cd393 O397 2.439 . S
Cd393 O403 2.240 . S
Cd394 O395 2.240 1_545 S
Cd394 O402 2.223 . S
Cd394 O404 2.297 1_554 S
Cd394 O405 2.439 1_544 S
O395 Cd394 2.240 1_565 S
O395 C400 1.279 . S
O396 Cd393 2.297 . S
O396 C398 1.247 . S
O397 Cd393 2.439 . S
O397 C398 1.208 . S
C398 O396 1.247 . S
C398 O397 1.208 . S
C399 O404 1.247 1_565 S
C399 O405 1.208 . S
C400 O392 1.315 . S
C400 O395 1.279 . S
C401 O402 1.315 1_565 S
C401 O403 1.279 . S
O402 Cd394 2.223 . S
O402 C401 1.315 1_545 S
O403 Cd393 2.240 . S
O403 C401 1.279 . S
O404 Cd394 2.297 1_556 S
O404 C399 1.247 1_545 S
O405 Cd394 2.439 1_566 S
O405 C399 1.208 . S
O406 Cd407 2.223 . S
O406 C414 1.315 . S
Cd407 O406 2.223 . S
Cd407 O410 2.297 . S
Cd407 O411 2.439 . S
Cd407 O417 2.240 . S
Cd408 O409 2.240 . S
Cd408 O416 2.223 . S
Cd408 O418 2.297 . S
Cd408 O419 2.439 . S
O409 Cd408 2.240 . S
O409 C414 1.279 . S
O410 Cd407 2.297 . S
O410 C412 1.247 . S
O411 Cd407 2.439 . S
O411 C412 1.208 . S
C412 O410 1.247 . S
C412 O411 1.208 . S
C413 O418 1.247 . S
C413 O419 1.208 . S
C414 O406 1.315 . S
C414 O409 1.279 . S
C415 O416 1.315 . S
C415 O417 1.279 . S
O416 Cd408 2.223 . S
O416 C415 1.315 . S
O417 Cd407 2.240 . S
O417 C415 1.279 . S
O418 Cd408 2.297 . S
O418 C413 1.247 . S
O419 Cd408 2.439 . S
O419 C413 1.208 . S
O420 Cd421 2.223 . S
O420 C428 1.315 . S
Cd421 O420 2.223 . S
Cd421 O424 2.297 . S
Cd421 O425 2.439 . S
Cd421 O431 2.240 . S
Cd422 O423 2.240 1_565 S
Cd422 O430 2.223 . S
Cd422 O432 2.297 . S
Cd422 O433 2.439 1_565 S
O423 Cd422 2.240 1_545 S
O423 C428 1.279 . S
O424 Cd421 2.297 . S
O424 C426 1.247 . S
O425 Cd421 2.439 . S
O425 C426 1.208 . S
C426 O424 1.247 . S
C426 O425 1.208 . S
C427 O432 1.247 1_545 S
C427 O433 1.208 . S
C428 O420 1.315 . S
C428 O423 1.279 . S
C429 O430 1.315 1_545 S
C429 O431 1.279 . S
O430 Cd422 2.223 . S
O430 C429 1.315 1_565 S
O431 Cd421 2.240 . S
O431 C429 1.279 . S
O432 Cd422 2.297 . S
O432 C427 1.247 1_565 S
O433 Cd422 2.439 1_545 S
O433 C427 1.208 . S
O434 Cd435 2.223 . S
O434 C442 1.315 . S
Cd435 O434 2.223 . S
Cd435 O438 2.297 . S
Cd435 O439 2.439 . S
Cd435 O445 2.240 . S
Cd436 O437 2.240 . S
Cd436 O444 2.223 . S
Cd436 O446 2.297 . S
Cd436 O447 2.439 . S
O437 Cd436 2.240 . S
O437 C442 1.279 . S
O438 Cd435 2.297 . S
O438 C440 1.247 . S
O439 Cd435 2.439 . S
O439 C440 1.208 . S
C440 O438 1.247 . S
C440 O439 1.208 . S
C441 O446 1.247 . S
C441 O447 1.208 . S
C442 O434 1.315 . S
C442 O437 1.279 . S
C443 O444 1.315 . S
C443 O445 1.279 . S
O444 Cd436 2.223 . S
O444 C443 1.315 . S
O445 Cd435 2.240 . S
O445 C443 1.279 . S
O446 Cd436 2.297 . S
O446 C441 1.247 . S
O447 Cd436 2.439 . S
O447 C441 1.208 . S
C448 C449 1.387 1_556 S
C448 H452 0.950 . S
C448 C457 1.390 1_656 S
C449 C448 1.387 1_554 S
C449 C451 1.387 . S
H450 C457 0.950 1_556 S
C451 C449 1.387 . S
C451 C453 1.390 1_655 S
C451 H455 0.950 . S
H452 C448 0.950 . S
C453 C451 1.390 1_455 S
C453 C454 1.387 . S
C453 H456 0.950 . S
C454 C453 1.387 . S
C454 C457 1.387 . S
H455 C451 0.950 . S
H456 C453 0.950 . S
C457 C448 1.390 1_454 S
C457 H450 0.950 1_554 S
C457 C454 1.387 . S
C458 C459 1.387 . S
C458 H462 0.950 . S
C458 C467 1.390 . S
C459 C458 1.387 . S
C459 C461 1.387 . S
H460 C467 0.950 . S
C461 C459 1.387 . S
C461 C463 1.390 . S
C461 H465 0.950 . S
H462 C458 0.950 . S
C463 C461 1.390 . S
C463 C464 1.387 . S
C463 H466 0.950 . S
C464 C463 1.387 . S
C464 C467 1.387 . S
H465 C461 0.950 . S
H466 C463 0.950 . S
C467 C458 1.390 . S
C467 H460 0.950 . S
C467 C464 1.387 . S
C468 C469 1.387 . S
C468 H472 0.950 . S
C468 C477 1.390 . S
C469 C468 1.387 . S
C469 C471 1.387 . S
H470 C477 0.950 . S
C471 C469 1.387 . S
C471 C473 1.390 . S
C471 H475 0.950 . S
H472 C468 0.950 . S
C473 C471 1.390 . S
C473 C474 1.387 . S
C473 H476 0.950 . S
C474 C473 1.387 . S
C474 C477 1.387 . S
H475 C471 0.950 . S
H476 C473 0.950 . S
C477 C468 1.390 . S
C477 H470 0.950 . S
C477 C474 1.387 . S
C478 C479 1.387 . S
C478 H482 0.950 . S
C478 C487 1.390 . S
C479 C478 1.387 . S
C479 C481 1.387 . S
H480 C487 0.950 . S
C481 C479 1.387 . S
C481 C483 1.390 . S
C481 H485 0.950 . S
H482 C478 0.950 . S
C483 C481 1.390 . S
C483 C484 1.387 . S
C483 H486 0.950 . S
C484 C483 1.387 . S
C484 C487 1.387 . S
H485 C481 0.950 . S
H486 C483 0.950 . S
C487 C478 1.390 . S
C487 H480 0.950 . S
C487 C484 1.387 . S
C488 C489 1.387 . S
C488 H492 0.950 . S
C488 C497 1.390 1_455 S
C489 C488 1.387 . S
C489 C491 1.387 . S
H490 C497 0.950 . S
C491 C489 1.387 . S
C491 C493 1.390 1_455 S
C491 H495 0.950 . S
H492 C488 0.950 . S
C493 C491 1.390 1_655 S
C493 C494 1.387 . S
C493 H496 0.950 . S
C494 C493 1.387 . S
C494 C497 1.387 . S
H495 C491 0.950 . S
H496 C493 0.950 . S
C497 C488 1.390 1_655 S
C497 H490 0.950 . S
C497 C494 1.387 . S
C498 C499 1.387 . S
C498 H502 0.950 . S
C498 C507 1.390 . S
C499 C498 1.387 . S
C499 C501 1.387 . S
H500 C507 0.950 . S
C501 C499 1.387 . S
C501 C503 1.390 . S
C501 H505 0.950 . S
H502 C498 0.950 . S
C503 C501 1.390 . S
C503 C504 1.387 . S
C503 H506 0.950 . S
C504 C503 1.387 . S
C504 C507 1.387 . S
H505 C501 0.950 . S
H506 C503 0.950 . S
C507 C498 1.390 . S
C507 H500 0.950 . S
C507 C504 1.387 . S
C508 C509 1.387 . S
C508 H512 0.950 . S
C508 C517 1.390 . S
C509 C508 1.387 . S
C509 C511 1.387 . S
H510 C517 0.950 . S
C511 C509 1.387 . S
C511 C513 1.390 1_554 S
C511 H515 0.950 1_554 S
H512 C508 0.950 . S
C513 C511 1.390 1_556 S
C513 C514 1.387 1_556 S
C513 H516 0.950 . S
C514 C513 1.387 1_554 S
C514 C517 1.387 . S
H515 C511 0.950 1_556 S
H516 C513 0.950 . S
C517 C508 1.390 . S
C517 H510 0.950 . S
C517 C514 1.387 . S
C518 C519 1.387 . S
C518 H522 0.950 . S
C518 C527 1.390 . S
C519 C518 1.387 . S
C519 C521 1.387 . S
H520 C527 0.950 . S
C521 C519 1.387 . S
C521 C523 1.390 . S
C521 H525 0.950 . S
H522 C518 0.950 . S
C523 C521 1.390 . S
C523 C524 1.387 . S
C523 H526 0.950 . S
C524 C523 1.387 . S
C524 C527 1.387 . S
H525 C521 0.950 . S
H526 C523 0.950 . S
C527 C518 1.390 . S
C527 H520 0.950 . S
C527 C524 1.387 . S
C528 C529 1.387 . S
C528 H532 0.950 . S
C528 C537 1.390 . S
C529 C528 1.387 . S
C529 C531 1.387 . S
H530 C537 0.950 . S
C531 C529 1.387 . S
C531 C533 1.390 . S
C531 H535 0.950 . S
H532 C528 0.950 . S
C533 C531 1.390 . S
C533 C534 1.387 . S
C533 H536 0.950 . S
C534 C533 1.387 . S
C534 C537 1.387 . S
H535 C531 0.950 . S
H536 C533 0.950 . S
C537 C528 1.390 . S
C537 H530 0.950 . S
C537 C534 1.387 . S
C538 C539 1.387 . S
C538 H542 0.950 . S
C538 C547 1.390 . S
C539 C538 1.387 . S
C539 C541 1.387 . S
H540 C547 0.950 . S
C541 C539 1.387 . S
C541 C543 1.390 . S
C541 H545 0.950 . S
H542 C538 0.950 . S
C543 C541 1.390 . S
C543 C544 1.387 . S
C543 H546 0.950 . S
C544 C543 1.387 . S
C544 C547 1.387 . S
H545 C541 0.950 . S
H546 C543 0.950 . S
C547 C538 1.390 . S
C547 H540 0.950 . S
C547 C544 1.387 . S
C548 C549 1.387 . S
C548 H552 0.950 . S
C548 C557 1.390 . S
C549 C548 1.387 . S
C549 C551 1.387 . S
H550 C557 0.950 . S
C551 C549 1.387 . S
C551 C553 1.390 . S
C551 H555 0.950 . S
H552 C548 0.950 . S
C553 C551 1.390 . S
C553 C554 1.387 . S
C553 H556 0.950 . S
C554 C553 1.387 . S
C554 C557 1.387 . S
H555 C551 0.950 . S
H556 C553 0.950 . S
C557 C548 1.390 . S
C557 H550 0.950 . S
C557 C554 1.387 . S
C558 C559 1.387 . S
C558 H562 0.950 . S
C558 C567 1.390 . S
C559 C558 1.387 . S
C559 C561 1.387 . S
H560 C567 0.950 . S
C561 C559 1.387 . S
C561 C563 1.390 . S
C561 H565 0.950 . S
H562 C558 0.950 . S
C563 C561 1.390 . S
C563 C564 1.387 . S
C563 H566 0.950 . S
C564 C563 1.387 . S
C564 C567 1.387 . S
H565 C561 0.950 . S
H566 C563 0.950 . S
C567 C558 1.390 . S
C567 H560 0.950 . S
C567 C564 1.387 . S
C568 C569 1.387 . S
C568 H572 0.950 . S
C568 C577 1.390 1_545 S
C569 C568 1.387 . S
C569 C571 1.387 . S
H570 C577 0.950 . S
C571 C569 1.387 . S
C571 C573 1.390 1_545 S
C571 H575 0.950 . S
H572 C568 0.950 . S
C573 C571 1.390 1_565 S
C573 C574 1.387 . S
C573 H576 0.950 . S
C574 C573 1.387 . S
C574 C577 1.387 . S
H575 C571 0.950 . S
H576 C573 0.950 . S
C577 C568 1.390 1_565 S
C577 H570 0.950 . S
C577 C574 1.387 . S
C578 C579 1.387 . S
C578 H582 0.950 1_554 S
C578 C587 1.373 1_644 S
C579 C578 1.387 . S
C579 C581 1.407 . S
H580 C587 0.951 . S
C581 C579 1.407 . S
C581 C583 1.371 1_645 S
C581 H585 0.952 . S
H582 C578 0.950 1_556 S
C583 C581 1.371 1_465 S
C583 C584 1.387 . S
C583 H586 0.950 . S
C584 C583 1.387 . S
C584 C587 1.404 1_554 S
H585 C581 0.952 . S
H586 C583 0.950 . S
C587 C578 1.373 1_466 S
C587 H580 0.951 . S
C587 C584 1.404 1_556 S
C588 C589 1.387 1_566 S
C588 H592 0.950 . S
C588 C597 1.390 1_556 S
C589 C588 1.387 1_544 S
C589 C591 1.387 . S
H590 C597 0.950 1_556 S
C591 C589 1.387 . S
C591 C593 1.390 . S
C591 H595 0.950 . S
H592 C588 0.950 . S
C593 C591 1.390 . S
C593 C594 1.387 1_545 S
C593 H596 0.950 . S
C594 C593 1.387 1_565 S
C594 C597 1.387 . S
H595 C591 0.950 . S
H596 C593 0.950 . S
C597 C588 1.390 1_554 S
C597 H590 0.950 1_554 S
C597 C594 1.387 . S
C598 C599 1.387 1_565 S
C598 H602 0.950 . S
C598 C607 1.424 . S
C599 C598 1.387 1_545 S
C599 C601 1.354 1_455 S
H600 C607 0.952 . S
C601 C599 1.354 1_655 S
C601 C603 1.423 . S
C601 H605 0.952 . S
H602 C598 0.950 . S
C603 C601 1.423 . S
C603 C604 1.387 1_545 S
C603 H606 0.950 . S
C604 C603 1.387 1_565 S
C604 C607 1.353 1_655 S
H605 C601 0.952 . S
H606 C603 0.950 . S
C607 C598 1.424 . S
C607 H600 0.952 . S
C607 C604 1.353 1_455 S
C608 C609 1.387 . S
C608 H612 0.950 . S
C608 C617 1.390 . S
C609 C608 1.387 . S
C609 C611 1.387 . S
H610 C617 0.950 . S
C611 C609 1.387 . S
C611 C613 1.390 . S
C611 H615 0.950 . S
H612 C608 0.950 . S
C613 C611 1.390 . S
C613 C614 1.387 . S
C613 H616 0.950 . S
C614 C613 1.387 . S
C614 C617 1.387 . S
H615 C611 0.950 . S
H616 C613 0.950 . S
C617 C608 1.390 . S
C617 H610 0.950 . S
C617 C614 1.387 . S
C618 C619 1.387 1_554 S
C618 H622 0.950 1_554 S
C618 C627 1.390 . S
C619 C618 1.387 1_556 S
C619 C621 1.387 1_556 S
H620 C627 0.950 . S
C621 C619 1.387 1_554 S
C621 C623 1.390 . S
C621 H625 0.950 1_554 S
H622 C618 0.950 1_556 S
C623 C621 1.390 . S
C623 C624 1.387 . S
C623 H626 0.950 . S
C624 C623 1.387 . S
C624 C627 1.387 . S
H625 C621 0.950 1_556 S
H626 C623 0.950 . S
C627 C618 1.390 . S
C627 H620 0.950 . S
C627 C624 1.387 . S
C628 C629 1.387 . S
C628 H632 0.950 . S
C628 C637 1.390 . S
C629 C628 1.387 . S
C629 C631 1.387 . S
H630 C637 0.950 . S
C631 C629 1.387 . S
C631 C633 1.390 . S
C631 H635 0.950 . S
H632 C628 0.950 . S
C633 C631 1.390 . S
C633 C634 1.387 . S
C633 H636 0.950 . S
C634 C633 1.387 . S
C634 C637 1.387 . S
H635 C631 0.950 . S
H636 C633 0.950 . S
C637 C628 1.390 . S
C637 H630 0.950 . S
C637 C634 1.387 . S
C638 C639 1.387 . S
C638 H642 0.950 . S
C638 C647 1.390 . S
C639 C638 1.387 . S
C639 C641 1.387 . S
H640 C647 0.950 . S
C641 C639 1.387 . S
C641 C643 1.390 . S
C641 H645 0.950 . S
H642 C638 0.950 . S
C643 C641 1.390 . S
C643 C644 1.387 . S
C643 H646 0.950 . S
C644 C643 1.387 . S
C644 C647 1.387 . S
H645 C641 0.950 . S
H646 C643 0.950 . S
C647 C638 1.390 . S
C647 H640 0.950 . S
C647 C644 1.387 . S
C648 C649 1.387 . S
C648 H652 0.950 . S
C648 C657 1.390 . S
C649 C648 1.387 . S
C649 C651 1.387 . S
H650 C657 0.950 . S
C651 C649 1.387 . S
C651 C653 1.390 . S
C651 H655 0.950 . S
H652 C648 0.950 . S
C653 C651 1.390 . S
C653 C654 1.387 . S
C653 H656 0.950 . S
C654 C653 1.387 . S
C654 C657 1.387 . S
H655 C651 0.950 . S
H656 C653 0.950 . S
C657 C648 1.390 . S
C657 H650 0.950 . S
C657 C654 1.387 . S
C658 C659 1.387 1_554 S
C658 H662 0.950 1_554 S
C658 C667 1.390 . S
C659 C658 1.387 1_556 S
C659 C661 1.387 1_556 S
H660 C667 0.950 . S
C661 C659 1.387 1_554 S
C661 C663 1.390 . S
C661 H665 0.950 1_554 S
H662 C658 0.950 1_556 S
C663 C661 1.390 . S
C663 C664 1.387 . S
C663 H666 0.950 . S
C664 C663 1.387 . S
C664 C667 1.387 . S
H665 C661 0.950 1_556 S
H666 C663 0.950 . S
C667 C658 1.390 . S
C667 H660 0.950 . S
C667 C664 1.387 . S
C668 C669 1.387 . S
C668 H672 0.950 . S
C668 C677 1.390 . S
C669 C668 1.387 . S
C669 C671 1.387 . S
H670 C677 0.950 . S
C671 C669 1.387 . S
C671 C673 1.390 . S
C671 H675 0.950 . S
H672 C668 0.950 . S
C673 C671 1.390 . S
C673 C674 1.387 . S
C673 H676 0.950 . S
C674 C673 1.387 . S
C674 C677 1.387 . S
H675 C671 0.950 . S
H676 C673 0.950 . S
C677 C668 1.390 . S
C677 H670 0.950 . S
C677 C674 1.387 . S
C678 C679 1.387 . S
C678 H682 0.950 . S
C678 C687 1.390 . S
C679 C678 1.387 . S
C679 C681 1.387 . S
H680 C687 0.950 . S
C681 C679 1.387 . S
C681 C683 1.390 . S
C681 H685 0.950 . S
H682 C678 0.950 . S
C683 C681 1.390 . S
C683 C684 1.387 . S
C683 H686 0.950 . S
C684 C683 1.387 . S
C684 C687 1.387 . S
H685 C681 0.950 . S
H686 C683 0.950 . S
C687 C678 1.390 . S
C687 H680 0.950 . S
C687 C684 1.387 . S
C688 C689 1.387 . S
C688 H692 0.950 . S
C688 C697 1.390 1_545 S
C689 C688 1.387 . S
C689 C691 1.387 . S
H690 C697 0.950 . S
C691 C689 1.387 . S
C691 C693 1.390 1_545 S
C691 H695 0.950 . S
H692 C688 0.950 . S
C693 C691 1.390 1_565 S
C693 C694 1.387 . S
C693 H696 0.950 . S
C694 C693 1.387 . S
C694 C697 1.387 . S
H695 C691 0.950 . S
H696 C693 0.950 . S
C697 C688 1.390 1_565 S
C697 H690 0.950 . S
C697 C694 1.387 . S
C698 C699 1.387 . S
C698 H702 0.950 . S
C698 C707 1.390 . S
C699 C698 1.387 . S
C699 C701 1.387 . S
H700 C707 0.950 . S
C701 C699 1.387 . S
C701 C703 1.390 . S
C701 H705 0.950 . S
H702 C698 0.950 . S
C703 C701 1.390 . S
C703 C704 1.387 . S
C703 H706 0.950 . S
C704 C703 1.387 . S
C704 C707 1.387 . S
H705 C701 0.950 . S
H706 C703 0.950 . S
C707 C698 1.390 . S
C707 H700 0.950 . S
C707 C704 1.387 . S
C708 C709 1.387 . S
C708 H712 0.950 . S
C708 C717 1.390 1_545 S
C709 C708 1.387 . S
C709 C711 1.387 . S
H710 C717 0.950 . S
C711 C709 1.387 . S
C711 C713 1.390 1_545 S
C711 H715 0.950 . S
H712 C708 0.950 . S
C713 C711 1.390 1_565 S
C713 C714 1.387 . S
C713 H716 0.950 . S
C714 C713 1.387 . S
C714 C717 1.387 . S
H715 C711 0.950 . S
H716 C713 0.950 . S
C717 C708 1.390 1_565 S
C717 H710 0.950 . S
C717 C714 1.387 . S
C718 C719 1.387 1_554 S
C718 H722 0.950 1_554 S
C718 C727 1.390 . S
C719 C718 1.387 1_556 S
C719 C721 1.387 1_556 S
H720 C727 0.950 . S
C721 C719 1.387 1_554 S
C721 C723 1.390 . S
C721 H725 0.950 1_554 S
H722 C718 0.950 1_556 S
C723 C721 1.390 . S
C723 C724 1.387 . S
C723 H726 0.950 . S
C724 C723 1.387 . S
C724 C727 1.387 . S
H725 C721 0.950 1_556 S
H726 C723 0.950 . S
C727 C718 1.390 . S
C727 H720 0.950 . S
C727 C724 1.387 . S
C728 C729 1.387 . S
C728 H732 0.950 . S
C728 C737 1.390 1_565 S
C729 C728 1.387 . S
C729 C731 1.387 . S
H730 C737 0.950 . S
C731 C729 1.387 . S
C731 C733 1.390 1_565 S
C731 H735 0.950 . S
H732 C728 0.950 . S
C733 C731 1.390 1_545 S
C733 C734 1.387 . S
C733 H736 0.950 . S
C734 C733 1.387 . S
C734 C737 1.387 . S
H735 C731 0.950 . S
H736 C733 0.950 . S
C737 C728 1.390 1_545 S
C737 H730 0.950 . S
C737 C734 1.387 . S
C738 C739 1.387 . S
C738 H742 0.950 . S
C738 C747 1.390 . S
C739 C738 1.387 . S
C739 C741 1.387 . S
H740 C747 0.950 . S
C741 C739 1.387 . S
C741 C743 1.390 . S
C741 H745 0.950 . S
H742 C738 0.950 . S
C743 C741 1.390 . S
C743 C744 1.387 . S
C743 H746 0.950 . S
C744 C743 1.387 . S
C744 C747 1.387 . S
H745 C741 0.950 . S
H746 C743 0.950 . S
C747 C738 1.390 . S
C747 H740 0.950 . S
C747 C744 1.387 . S
C748 C749 1.387 . S
C748 H752 0.950 . S
C748 C757 1.390 1_545 S
C749 C748 1.387 . S
C749 C751 1.387 . S
H750 C757 0.950 . S
C751 C749 1.387 . S
C751 C753 1.390 1_545 S
C751 H755 0.950 . S
H752 C748 0.950 . S
C753 C751 1.390 1_565 S
C753 C754 1.387 . S
C753 H756 0.950 . S
C754 C753 1.387 . S
C754 C757 1.387 . S
H755 C751 0.950 . S
H756 C753 0.950 . S
C757 C748 1.390 1_565 S
C757 H750 0.950 . S
C757 C754 1.387 . S
C758 C759 1.387 . S
C758 H762 0.950 . S
C758 C767 1.390 . S
C759 C758 1.387 . S
C759 C761 1.387 . S
H760 C767 0.950 1_556 S
C761 C759 1.387 . S
C761 C763 1.390 . S
C761 H765 0.950 . S
H762 C758 0.950 . S
C763 C761 1.390 . S
C763 C764 1.387 1_554 S
C763 H766 0.950 1_554 S
C764 C763 1.387 1_556 S
C764 C767 1.387 1_556 S
H765 C761 0.950 . S
H766 C763 0.950 1_556 S
C767 C758 1.390 . S
C767 H760 0.950 1_554 S
C767 C764 1.387 1_554 S
C768 C769 1.387 . S
C768 H772 0.950 . S
C768 C777 1.390 . S
C769 C768 1.387 . S
C769 C771 1.387 . S
H770 C777 0.950 . S
C771 C769 1.387 . S
C771 C773 1.390 . S
C771 H775 0.950 . S
H772 C768 0.950 . S
C773 C771 1.390 . S
C773 C774 1.387 . S
C773 H776 0.950 . S
C774 C773 1.387 . S
C774 C777 1.387 . S
H775 C771 0.950 . S
H776 C773 0.950 . S
C777 C768 1.390 . S
C777 H770 0.950 . S
C777 C774 1.387 . S
C778 C779 1.387 . S
C778 H782 0.950 . S
C778 C787 1.390 . S
C779 C778 1.387 . S
C779 C781 1.387 . S
H780 C787 0.950 . S
C781 C779 1.387 . S
C781 C783 1.390 . S
C781 H785 0.950 . S
H782 C778 0.950 . S
C783 C781 1.390 . S
C783 C784 1.387 . S
C783 H786 0.950 . S
C784 C783 1.387 . S
C784 C787 1.387 . S
H785 C781 0.950 . S
H786 C783 0.950 . S
C787 C778 1.390 . S
C787 H780 0.950 . S
C787 C784 1.387 . S
C788 C789 1.387 . S
C788 H792 0.950 . S
C788 C797 1.390 . S
C789 C788 1.387 . S
C789 C791 1.387 . S
H790 C797 0.950 . S
C791 C789 1.387 . S
C791 C793 1.390 . S
C791 H795 0.950 . S
H792 C788 0.950 . S
C793 C791 1.390 . S
C793 C794 1.387 . S
C793 H796 0.950 . S
C794 C793 1.387 . S
C794 C797 1.387 . S
H795 C791 0.950 . S
H796 C793 0.950 . S
C797 C788 1.390 . S
C797 H790 0.950 . S
C797 C794 1.387 . S
C798 C799 1.387 . S
C798 H802 0.950 . S
C798 C807 1.390 . S
C799 C798 1.387 . S
C799 C801 1.387 . S
H800 C807 0.950 1_556 S
C801 C799 1.387 . S
C801 C803 1.390 . S
C801 H805 0.950 . S
H802 C798 0.950 . S
C803 C801 1.390 . S
C803 C804 1.387 1_554 S
C803 H806 0.950 1_554 S
C804 C803 1.387 1_556 S
C804 C807 1.387 1_556 S
H805 C801 0.950 . S
H806 C803 0.950 1_556 S
C807 C798 1.390 . S
C807 H800 0.950 1_554 S
C807 C804 1.387 1_554 S
C808 C809 1.387 . S
C808 H812 0.950 . S
C808 C817 1.390 . S
C809 C808 1.387 . S
C809 C811 1.387 . S
H810 C817 0.950 . S
C811 C809 1.387 . S
C811 C813 1.390 . S
C811 H815 0.950 . S
H812 C808 0.950 . S
C813 C811 1.390 . S
C813 C814 1.387 . S
C813 H816 0.950 . S
C814 C813 1.387 . S
C814 C817 1.387 . S
H815 C811 0.950 . S
H816 C813 0.950 . S
C817 C808 1.390 . S
C817 H810 0.950 . S
C817 C814 1.387 . S
C818 C819 1.387 . S
C818 H822 0.950 . S
C818 C827 1.390 . S
C819 C818 1.387 . S
C819 C821 1.387 . S
H820 C827 0.950 . S
C821 C819 1.387 . S
C821 C823 1.390 . S
C821 H825 0.950 . S
H822 C818 0.950 . S
C823 C821 1.390 . S
C823 C824 1.387 . S
C823 H826 0.950 . S
C824 C823 1.387 . S
C824 C827 1.387 . S
H825 C821 0.950 . S
H826 C823 0.950 . S
C827 C818 1.390 . S
C827 H820 0.950 . S
C827 C824 1.387 . S
C828 C829 1.387 . S
C828 H832 0.950 . S
C828 C837 1.390 . S
C829 C828 1.387 . S
C829 C831 1.387 . S
H830 C837 0.950 . S
C831 C829 1.387 . S
C831 C833 1.390 . S
C831 H835 0.950 . S
H832 C828 0.950 . S
C833 C831 1.390 . S
C833 C834 1.387 . S
C833 H836 0.950 . S
C834 C833 1.387 . S
C834 C837 1.387 . S
H835 C831 0.950 . S
H836 C833 0.950 . S
C837 C828 1.390 . S
C837 H830 0.950 . S
C837 C834 1.387 . S
C838 C839 1.387 1_554 S
C838 H842 0.950 1_554 S
C838 C847 1.390 . S
C839 C838 1.387 1_556 S
C839 C841 1.387 1_556 S
H840 C847 0.950 . S
C841 C839 1.387 1_554 S
C841 C843 1.390 . S
C841 H845 0.950 1_554 S
H842 C838 0.950 1_556 S
C843 C841 1.390 . S
C843 C844 1.387 . S
C843 H846 0.950 . S
C844 C843 1.387 . S
C844 C847 1.387 . S
H845 C841 0.950 1_556 S
H846 C843 0.950 . S
C847 C838 1.390 . S
C847 H840 0.950 . S
C847 C844 1.387 . S
C848 C849 1.387 . S
C848 H852 0.950 . S
C848 C857 1.390 1_565 S
C849 C848 1.387 . S
C849 C851 1.387 . S
H850 C857 0.950 . S
C851 C849 1.387 . S
C851 C853 1.390 1_565 S
C851 H855 0.950 . S
H852 C848 0.950 . S
C853 C851 1.390 1_545 S
C853 C854 1.387 . S
C853 H856 0.950 . S
C854 C853 1.387 . S
C854 C857 1.387 . S
H855 C851 0.950 . S
H856 C853 0.950 . S
C857 C848 1.390 1_545 S
C857 H850 0.950 . S
C857 C854 1.387 . S
C858 C859 1.387 . S
C858 H862 0.950 . S
C858 C867 1.390 . S
C859 C858 1.387 . S
C859 C861 1.387 . S
H860 C867 0.950 1_556 S
C861 C859 1.387 . S
C861 C863 1.390 . S
C861 H865 0.950 . S
H862 C858 0.950 . S
C863 C861 1.390 . S
C863 C864 1.387 1_554 S
C863 H866 0.950 1_554 S
C864 C863 1.387 1_556 S
C864 C867 1.387 1_556 S
H865 C861 0.950 . S
H866 C863 0.950 1_556 S
C867 C858 1.390 . S
C867 H860 0.950 1_554 S
C867 C864 1.387 1_554 S
C868 C869 1.387 . S
C868 H872 0.950 . S
C868 C877 1.390 1_565 S
C869 C868 1.387 . S
C869 C871 1.387 . S
H870 C877 0.950 . S
C871 C869 1.387 . S
C871 C873 1.390 1_565 S
C871 H875 0.950 . S
H872 C868 0.950 . S
C873 C871 1.390 1_545 S
C873 C874 1.387 . S
C873 H876 0.950 . S
C874 C873 1.387 . S
C874 C877 1.387 . S
H875 C871 0.950 . S
H876 C873 0.950 . S
C877 C868 1.390 1_545 S
C877 H870 0.950 . S
C877 C874 1.387 . S
C878 C879 1.387 . S
C878 H882 0.950 . S
C878 C887 1.390 . S
C879 C878 1.387 . S
C879 C881 1.387 . S
H880 C887 0.950 . S
C881 C879 1.387 . S
C881 C883 1.390 . S
C881 H885 0.950 . S
H882 C878 0.950 . S
C883 C881 1.390 . S
C883 C884 1.387 . S
C883 H886 0.950 . S
C884 C883 1.387 . S
C884 C887 1.387 . S
H885 C881 0.950 . S
H886 C883 0.950 . S
C887 C878 1.390 . S
C887 H880 0.950 . S
C887 C884 1.387 . S
C888 C889 1.387 . S
C888 H892 0.950 . S
C888 C897 1.390 1_565 S
C889 C888 1.387 . S
C889 C891 1.387 . S
H890 C897 0.950 . S
C891 C889 1.387 . S
C891 C893 1.390 1_565 S
C891 H895 0.950 . S
H892 C888 0.950 . S
C893 C891 1.390 1_545 S
C893 C894 1.387 . S
C893 H896 0.950 . S
C894 C893 1.387 . S
C894 C897 1.387 . S
H895 C891 0.950 . S
H896 C893 0.950 . S
C897 C888 1.390 1_545 S
C897 H890 0.950 . S
C897 C894 1.387 . S
C898 C899 1.387 . S
C898 H902 0.950 . S
C898 C907 1.390 . S
C899 C898 1.387 . S
C899 C901 1.387 . S
H900 C907 0.950 1_556 S
C901 C899 1.387 . S
C901 C903 1.390 . S
C901 H905 0.950 . S
H902 C898 0.950 . S
C903 C901 1.390 . S
C903 C904 1.387 1_554 S
C903 H906 0.950 1_554 S
C904 C903 1.387 1_556 S
C904 C907 1.387 1_556 S
H905 C901 0.950 . S
H906 C903 0.950 1_556 S
C907 C898 1.390 . S
C907 H900 0.950 1_554 S
C907 C904 1.387 1_554 S
C908 C909 1.387 . S
C908 H912 0.950 . S
C908 C917 1.390 1_565 S
C909 C908 1.387 . S
C909 C911 1.387 . S
H910 C917 0.950 . S
C911 C909 1.387 . S
C911 C913 1.390 1_565 S
C911 H915 0.950 . S
H912 C908 0.950 . S
C913 C911 1.390 1_545 S
C913 C914 1.387 . S
C913 H916 0.950 . S
C914 C913 1.387 . S
C914 C917 1.387 . S
H915 C911 0.950 . S
H916 C913 0.950 . S
C917 C908 1.390 1_545 S
C917 H910 0.950 . S
C917 C914 1.387 . S
C918 C919 1.387 . S
C918 H922 0.950 . S
C918 C927 1.390 . S
C919 C918 1.387 . S
C919 C921 1.387 . S
H920 C927 0.950 . S
C921 C919 1.387 . S
C921 C923 1.390 . S
C921 H925 0.950 . S
H922 C918 0.950 . S
C923 C921 1.390 . S
C923 C924 1.387 . S
C923 H926 0.950 . S
C924 C923 1.387 . S
C924 C927 1.387 . S
H925 C921 0.950 . S
H926 C923 0.950 . S
C927 C918 1.390 . S
C927 H920 0.950 . S
C927 C924 1.387 . S
C928 C929 1.387 . S
C928 H932 0.950 . S
C928 C937 1.390 . S
C929 C928 1.387 . S
C929 C931 1.387 . S
H930 C937 0.950 . S
C931 C929 1.387 . S
C931 C933 1.390 . S
C931 H935 0.950 . S
H932 C928 0.950 . S
C933 C931 1.390 . S
C933 C934 1.387 . S
C933 H936 0.950 . S
C934 C933 1.387 . S
C934 C937 1.387 . S
H935 C931 0.950 . S
H936 C933 0.950 . S
C937 C928 1.390 . S
C937 H930 0.950 . S
C937 C934 1.387 . S
C938 C939 1.387 . S
C938 H942 0.950 . S
C938 C947 1.390 . S
C939 C938 1.387 . S
C939 C941 1.387 . S
H940 C947 0.950 . S
C941 C939 1.387 . S
C941 C943 1.390 . S
C941 H945 0.950 . S
H942 C938 0.950 . S
C943 C941 1.390 . S
C943 C944 1.387 . S
C943 H946 0.950 . S
C944 C943 1.387 . S
C944 C947 1.387 . S
H945 C941 0.950 . S
H946 C943 0.950 . S
C947 C938 1.390 . S
C947 H940 0.950 . S
C947 C944 1.387 . S
C948 C949 1.387 . S
C948 H952 0.950 . S
C948 C957 1.390 . S
C949 C948 1.387 . S
C949 C951 1.387 . S
H950 C957 0.950 . S
C951 C949 1.387 . S
C951 C953 1.390 . S
C951 H955 0.950 . S
H952 C948 0.950 . S
C953 C951 1.390 . S
C953 C954 1.387 . S
C953 H956 0.950 . S
C954 C953 1.387 . S
C954 C957 1.387 . S
H955 C951 0.950 . S
H956 C953 0.950 . S
C957 C948 1.390 . S
C957 H950 0.950 . S
C957 C954 1.387 . S
C958 C959 1.387 . S
C958 H962 0.950 . S
C958 C967 1.390 . S
C959 C958 1.387 . S
C959 C961 1.387 . S
H960 C967 0.950 . S
C961 C959 1.387 . S
C961 C963 1.390 . S
C961 H965 0.950 . S
H962 C958 0.950 . S
C963 C961 1.390 . S
C963 C964 1.387 . S
C963 H966 0.950 . S
C964 C963 1.387 . S
C964 C967 1.387 . S
H965 C961 0.950 . S
H966 C963 0.950 . S
C967 C958 1.390 . S
C967 H960 0.950 . S
C967 C964 1.387 . S
C968 C969 1.387 . S
C968 H972 0.950 . S
C968 C977 1.390 . S
C969 C968 1.387 . S
C969 C971 1.387 . S
H970 C977 0.950 . S
C971 C969 1.387 . S
C971 C973 1.390 . S
C971 H975 0.950 . S
H972 C968 0.950 . S
C973 C971 1.390 . S
C973 C974 1.387 . S
C973 H976 0.950 . S
C974 C973 1.387 . S
C974 C977 1.387 . S
H975 C971 0.950 . S
H976 C973 0.950 . S
C977 C968 1.390 . S
C977 H970 0.950 . S
C977 C974 1.387 . S
C978 C979 1.387 . S
C978 H982 0.950 . S
C978 C987 1.390 . S
C979 C978 1.387 . S
C979 C981 1.387 . S
H980 C987 0.950 . S
C981 C979 1.387 . S
C981 C983 1.390 . S
C981 H985 0.950 . S
H982 C978 0.950 . S
C983 C981 1.390 . S
C983 C984 1.387 . S
C983 H986 0.950 . S
C984 C983 1.387 . S
C984 C987 1.387 . S
H985 C981 0.950 . S
H986 C983 0.950 . S
C987 C978 1.390 . S
C987 H980 0.950 . S
C987 C984 1.387 . S
C988 C989 1.387 . S
C988 H992 0.950 . S
C988 C997 1.390 . S
C989 C988 1.387 . S
C989 C991 1.387 . S
H990 C997 0.950 . S
C991 C989 1.387 . S
C991 C993 1.390 . S
C991 H995 0.950 . S
H992 C988 0.950 . S
C993 C991 1.390 . S
C993 C994 1.387 . S
C993 H996 0.950 1_556 S
C994 C993 1.387 . S
C994 C997 1.387 . S
H995 C991 0.950 . S
H996 C993 0.950 1_554 S
C997 C988 1.390 . S
C997 H990 0.950 . S
C997 C994 1.387 . S
C998 C999 1.387 . S
C998 H1002 0.950 . S
C998 C1007 1.390 . S
C999 C998 1.387 . S
C999 C1001 1.387 . S
H1000 C1007 0.950 . S
C1001 C999 1.387 . S
C1001 C1003 1.390 . S
C1001 H1005 0.950 . S
H1002 C998 0.950 . S
C1003 C1001 1.390 . S
C1003 C1004 1.387 . S
C1003 H1006 0.950 . S
C1004 C1003 1.387 . S
C1004 C1007 1.387 . S
H1005 C1001 0.950 . S
H1006 C1003 0.950 . S
C1007 C998 1.390 . S
C1007 H1000 0.950 . S
C1007 C1004 1.387 . S
C1008 C1009 1.387 . S
C1008 H1012 0.950 . S
C1008 C1017 1.390 . S
C1009 C1008 1.387 . S
C1009 C1011 1.387 . S
H1010 C1017 0.950 . S
C1011 C1009 1.387 . S
C1011 C1013 1.390 . S
C1011 H1015 0.950 . S
H1012 C1008 0.950 . S
C1013 C1011 1.390 . S
C1013 C1014 1.387 . S
C1013 H1016 0.950 . S
C1014 C1013 1.387 . S
C1014 C1017 1.387 . S
H1015 C1011 0.950 . S
H1016 C1013 0.950 . S
C1017 C1008 1.390 . S
C1017 H1010 0.950 . S
C1017 C1014 1.387 . S
C1018 C1019 1.387 . S
C1018 H1022 0.950 . S
C1018 C1027 1.390 . S
C1019 C1018 1.387 . S
C1019 C1021 1.387 . S
H1020 C1027 0.950 . S
C1021 C1019 1.387 . S
C1021 C1023 1.390 . S
C1021 H1025 0.950 . S
H1022 C1018 0.950 . S
C1023 C1021 1.390 . S
C1023 C1024 1.387 . S
C1023 H1026 0.950 . S
C1024 C1023 1.387 . S
C1024 C1027 1.387 . S
H1025 C1021 0.950 . S
H1026 C1023 0.950 . S
C1027 C1018 1.390 . S
C1027 H1020 0.950 . S
C1027 C1024 1.387 . S
C1028 C1029 1.387 . S
C1028 H1032 0.950 . S
C1028 C1037 1.390 . S
C1029 C1028 1.387 . S
C1029 C1031 1.387 . S
H1030 C1037 0.950 . S
C1031 C1029 1.387 . S
C1031 C1033 1.390 . S
C1031 H1035 0.950 . S
H1032 C1028 0.950 . S
C1033 C1031 1.390 . S
C1033 C1034 1.387 . S
C1033 H1036 0.950 . S
C1034 C1033 1.387 . S
C1034 C1037 1.387 . S
H1035 C1031 0.950 . S
H1036 C1033 0.950 . S
C1037 C1028 1.390 . S
C1037 H1030 0.950 . S
C1037 C1034 1.387 . S
C1038 C1039 1.387 . S
C1038 H1042 0.950 . S
C1038 C1047 1.390 . S
C1039 C1038 1.387 . S
C1039 C1041 1.387 . S
H1040 C1047 0.950 . S
C1041 C1039 1.387 . S
C1041 C1043 1.390 . S
C1041 H1045 0.950 . S
H1042 C1038 0.950 . S
C1043 C1041 1.390 . S
C1043 C1044 1.387 . S
C1043 H1046 0.950 . S
C1044 C1043 1.387 . S
C1044 C1047 1.387 . S
H1045 C1041 0.950 . S
H1046 C1043 0.950 . S
C1047 C1038 1.390 . S
C1047 H1040 0.950 . S
C1047 C1044 1.387 . S
C1048 C1049 1.387 . S
C1048 H1052 0.950 . S
C1048 C1057 1.390 . S
C1049 C1048 1.387 . S
C1049 C1051 1.387 . S
H1050 C1057 0.950 . S
C1051 C1049 1.387 . S
C1051 C1053 1.390 . S
C1051 H1055 0.950 . S
H1052 C1048 0.950 . S
C1053 C1051 1.390 . S
C1053 C1054 1.387 . S
C1053 H1056 0.950 . S
C1054 C1053 1.387 . S
C1054 C1057 1.387 . S
H1055 C1051 0.950 . S
H1056 C1053 0.950 . S
C1057 C1048 1.390 . S
C1057 H1050 0.950 . S
C1057 C1054 1.387 . S
C1058 C1059 1.387 . S
C1058 H1062 0.950 . S
C1058 C1067 1.390 . S
C1059 C1058 1.387 . S
C1059 C1061 1.387 . S
H1060 C1067 0.950 . S
C1061 C1059 1.387 . S
C1061 C1063 1.390 . S
C1061 H1065 0.950 . S
H1062 C1058 0.950 . S
C1063 C1061 1.390 . S
C1063 C1064 1.387 . S
C1063 H1066 0.950 . S
C1064 C1063 1.387 . S
C1064 C1067 1.387 . S
H1065 C1061 0.950 . S
H1066 C1063 0.950 . S
C1067 C1058 1.390 . S
C1067 H1060 0.950 . S
C1067 C1064 1.387 . S
C1068 C1069 1.387 . S
C1068 H1072 0.950 . S
C1068 C1077 1.390 . S
C1069 C1068 1.387 . S
C1069 C1071 1.387 . S
H1070 C1077 0.950 . S
C1071 C1069 1.387 . S
C1071 C1073 1.390 . S
C1071 H1075 0.950 . S
H1072 C1068 0.950 . S
C1073 C1071 1.390 . S
C1073 C1074 1.387 . S
C1073 H1076 0.950 . S
C1074 C1073 1.387 . S
C1074 C1077 1.387 . S
H1075 C1071 0.950 . S
H1076 C1073 0.950 . S
C1077 C1068 1.390 . S
C1077 H1070 0.950 . S
C1077 C1074 1.387 . S
C1078 C1079 1.387 . S
C1078 H1082 0.950 . S
C1078 C1087 1.390 . S
C1079 C1078 1.387 . S
C1079 C1081 1.387 . S
H1080 C1087 0.950 . S
C1081 C1079 1.387 . S
C1081 C1083 1.390 . S
C1081 H1085 0.950 . S
H1082 C1078 0.950 . S
C1083 C1081 1.390 . S
C1083 C1084 1.387 . S
C1083 H1086 0.950 1_556 S
C1084 C1083 1.387 . S
C1084 C1087 1.387 . S
H1085 C1081 0.950 . S
H1086 C1083 0.950 1_554 S
C1087 C1078 1.390 . S
C1087 H1080 0.950 . S
C1087 C1084 1.387 . S
C449 C121 1.359 . S
C454 C9 1.358 . S
C459 C23 1.358 . S
C464 C359 1.358 . S
C469 C37 1.363 . S
C474 C149 1.363 . S
C479 C51 1.360 . S
C484 C387 1.360 . S
C489 C65 1.359 . S
C494 C177 1.359 . S
C499 C415 1.362 . S
C504 C79 1.362 . S
C509 C205 1.359 . S
C514 C93 1.359 . S
C519 C443 1.362 . S
C524 C107 1.362 . S
C529 C247 1.357 . S
C534 C135 1.357 . S
C539 C163 1.361 . S
C544 C275 1.361 . S
C549 C191 1.361 . S
C554 C303 1.361 . S
C559 C331 1.361 . S
C564 C219 1.361 . S
C569 C345 1.358 . S
C574 C233 1.358 . S
C579 C261 1.358 . S
C584 C373 1.358 . S
C589 C289 1.362 . S
C594 C401 1.362 . S
C599 C429 1.360 . S
C604 C317 1.360 . S
C609 C7 1.279 . S
C614 C63 1.279 . S
C619 C77 1.281 . S
C624 C21 1.281 . S
C629 C91 1.279 . S
C634 C35 1.279 . S
C639 C49 1.279 . S
C644 C105 1.279 . S
C649 C119 1.279 . S
C654 C175 1.279 . S
C659 C133 1.279 . S
C664 C189 1.279 . S
C669 C203 1.281 . S
C674 C147 1.281 . S
C679 C217 1.281 . S
C684 C161 1.281 . S
C689 C287 1.279 . S
C694 C231 1.279 . S
C699 C301 1.279 . S
C704 C245 1.279 . S
C709 C259 1.279 . S
C714 C315 1.279 . S
C719 C329 1.281 . S
C724 C273 1.281 . S
C729 C399 1.281 . S
C734 C343 1.281 . S
C739 C357 1.279 . S
C744 C413 1.279 . S
C749 C427 1.279 . S
C754 C371 1.279 . S
C759 C441 1.281 . S
C764 C385 1.281 . S
C769 C64 1.223 . S
C774 C8 1.223 . S
C779 C78 1.227 . S
C784 C22 1.227 . S
C789 C36 1.228 . S
C794 C92 1.228 . S
C799 C106 1.227 . S
C804 C50 1.227 . S
C809 C176 1.223 . S
C814 C120 1.223 . S
C819 C134 1.223 . S
C824 C190 1.223 . S
C829 C204 1.228 . S
C834 C148 1.228 . S
C839 C218 1.223 . S
C844 C162 1.223 . S
C849 C232 1.228 . S
C854 C288 1.228 . S
C859 C302 1.223 . S
C864 C246 1.223 . S
C869 C316 1.223 . S
C874 C260 1.223 . S
C879 C330 1.223 . S
C884 C274 1.223 . S
C889 C400 1.228 . S
C894 C344 1.228 . S
C899 C358 1.223 . S
C904 C414 1.223 . S
C909 C372 1.223 . S
C914 C428 1.223 . S
C919 C386 1.227 . S
C924 C442 1.227 . S
C929 C6 1.426 . S
C934 C300 1.428 . S
C939 C314 1.429 . S
C944 C20 1.429 . S
C949 C34 1.429 . S
C954 C328 1.429 . S
C959 C48 1.430 . S
C964 C286 1.430 . S
C969 C272 1.427 . S
C974 C62 1.427 . S
C979 C230 1.428 . S
C984 C76 1.428 . S
C989 C244 1.428 . S
C994 C90 1.428 . S
C999 C104 1.429 . S
C1004 C258 1.429 . S
C1009 C118 1.429 . S
C1014 C412 1.429 . S
C1019 C426 1.426 . S
C1024 C132 1.428 . S
C1029 C440 1.427 . S
C1034 C146 1.426 . S
C1039 C398 1.427 . S
C1044 C160 1.429 . S
C1049 C384 1.429 . S
C1054 C174 1.429 . S
C1059 C342 1.427 . S
C1064 C188 1.429 . S
C1069 C202 1.428 . S
C1074 C356 1.429 . S
C1079 C216 1.429 . S
C1084 C370 1.427 . S
