# Generated by pormake.
# Topology umx, (4)-cn, num edge types: 1
# Building blocks:
#     Node 0, Type 0, BuildingBlock: NAWXER_clean_sbu_0, # of connection points: 4
#     Node 1, Type 0, BuildingBlock: NAWXER_clean_sbu_0, # of connection points: 4
#     Node 2, Type 0, BuildingBlock: NAWXER_clean_sbu_0, # of connection points: 4
#     Node 3, Type 0, BuildingBlock: NAWXER_clean_sbu_0, # of connection points: 4
#     Node 4, Type 0, BuildingBlock: NAWXER_clean_sbu_0, # of connection points: 4
#     Node 5, Type 0, BuildingBlock: NAWXER_clean_sbu_0, # of connection points: 4
#     Node 6, Type 0, BuildingBlock: NAWXER_clean_sbu_0, # of connection points: 4
#     Node 7, Type 0, BuildingBlock: NAWXER_clean_sbu_0, # of connection points: 4
#     Edge 8, Type (0, 0), BuildingBlock: XIVTED_clean_linker_0, # of connection points: 2
#     Edge 9, Type (0, 0), BuildingBlock: XIVTED_clean_linker_0, # of connection points: 2
#     Edge 10, Type (0, 0), BuildingBlock: XIVTED_clean_linker_0, # of connection points: 2
#     Edge 11, Type (0, 0), BuildingBlock: XIVTED_clean_linker_0, # of connection points: 2
#     Edge 12, Type (0, 0), BuildingBlock: XIVTED_clean_linker_0, # of connection points: 2
#     Edge 13, Type (0, 0), BuildingBlock: XIVTED_clean_linker_0, # of connection points: 2
#     Edge 14, Type (0, 0), BuildingBlock: XIVTED_clean_linker_0, # of connection points: 2
#     Edge 15, Type (0, 0), BuildingBlock: XIVTED_clean_linker_0, # of connection points: 2
#     Edge 16, Type (0, 0), BuildingBlock: XIVTED_clean_linker_0, # of connection points: 2
#     Edge 17, Type (0, 0), BuildingBlock: XIVTED_clean_linker_0, # of connection points: 2
#     Edge 18, Type (0, 0), BuildingBlock: XIVTED_clean_linker_0, # of connection points: 2
#     Edge 19, Type (0, 0), BuildingBlock: XIVTED_clean_linker_0, # of connection points: 2
#     Edge 20, Type (0, 0), BuildingBlock: XIVTED_clean_linker_0, # of connection points: 2
#     Edge 21, Type (0, 0), BuildingBlock: XIVTED_clean_linker_0, # of connection points: 2
#     Edge 22, Type (0, 0), BuildingBlock: XIVTED_clean_linker_0, # of connection points: 2
#     Edge 23, Type (0, 0), BuildingBlock: XIVTED_clean_linker_0, # of connection points: 2
# Relax obj value: 0.027
# Max RMSD: 0.221
# Mean RMSD: 0.220
data_MOF--net-umx--node1-NAWXER_clean_sbu_0--edge1-XIVTED_clean_linker_0
_symmetry_space_group_name_H-M    P1
_symmetry_Int_Tables_number       1
_symmetry_cell_setting            triclinic
loop_
_symmetry_equiv_pos_as_xyz
'x, y, z'
_cell_length_a     39.531326
_cell_length_b     39.641856
_cell_length_c     29.584072
_cell_angle_alpha  95.533628
_cell_angle_beta   95.700737
_cell_angle_gamma 89.963168
loop_
_atom_site_label
_atom_site_type_symbol
_atom_site_fract_x
_atom_site_fract_y
_atom_site_fract_z
_atom_type_partial_charge
C0 C 0.21744 0.3949 0.00975 0.0
C1 C 0.11101 0.45338 0.00923 0.0
O2 O 0.18707 0.38402 1.00465 0.0
Zn3 Zn 0.16502 0.42598 0.00908 0.0
O4 O 0.22326 0.42696 0.01635 0.0
Zn5 Zn 0.19134 0.47177 0.02139 0.0
O6 O 0.20522 0.49172 0.08245 0.0
O7 O 0.17502 0.44469 0.0805 0.0
O8 O 0.13574 0.47491 0.01724 0.0
O9 O 0.11728 0.42215 1.00138 0.0
O10 O 0.17658 0.44788 0.94845 0.0
O11 O 0.20271 0.49645 0.97159 0.0
C12 C 0.1909 0.47006 0.10333 0.0
C13 C 0.19098 0.47502 0.93919 0.0
C14 C 0.50482 0.18818 0.44689 0.0
C15 C 0.50845 0.19381 0.61219 0.0
O16 O 0.48279 0.1998 0.47256 0.0
Zn17 Zn 0.5072 0.19073 0.52946 0.0
O18 O 0.53217 0.17517 0.46457 0.0
Zn19 Zn 0.55369 0.16619 0.53247 0.0
O20 O 0.55771 0.11846 0.52946 0.0
O21 O 0.50456 0.13568 0.52645 0.0
O22 O 0.53486 0.17925 0.59779 0.0
O23 O 0.48588 0.20469 0.58376 0.0
O24 O 0.55191 0.22389 0.53391 0.0
O25 O 0.59551 0.1892 0.53826 0.0
C26 C 0.52626 0.11154 0.52684 0.0
C27 C 0.58419 0.21904 0.53711 0.0
C28 C 0.87066 0.52496 0.03871 0.0
C29 C 0.76405 0.58325 0.0368 0.0
O30 O 0.84596 0.5034 0.03053 0.0
Zn31 Zn 0.79036 0.50643 0.02582 0.0
O32 O 0.86434 0.5562 0.0464 0.0
Zn33 Zn 0.81659 0.55229 0.03823 0.0
O34 O 0.80472 0.53047 0.09878 0.0
O35 O 0.77876 0.48182 0.07556 0.0
O36 O 0.7944 0.5942 0.04216 0.0
O37 O 0.75833 0.55116 0.03039 0.0
O38 O 0.77684 0.48638 0.96469 0.0
O39 O 0.807 0.53346 0.96685 0.0
C40 C 0.79032 0.50332 0.10798 0.0
C41 C 0.79127 0.50805 0.94393 0.0
C42 C 0.47276 0.78644 0.43857 0.0
C43 C 0.47761 0.79222 0.60423 0.0
O44 O 0.44647 0.80096 0.4534 0.0
Zn45 Zn 0.42817 0.81406 0.51906 0.0
O46 O 0.49556 0.77557 0.46672 0.0
Zn47 Zn 0.47468 0.78951 0.52148 0.0
O48 O 0.43001 0.75635 0.51766 0.0
O49 O 0.38639 0.79103 0.51399 0.0
O50 O 0.49947 0.78055 0.57831 0.0
O51 O 0.45017 0.80519 0.58677 0.0
O52 O 0.42412 0.86178 0.52199 0.0
O53 O 0.47725 0.84455 0.52431 0.0
C54 C 0.39773 0.7612 0.51501 0.0
C55 C 0.45554 0.8687 0.52415 0.0
C56 C 0.18763 0.50593 0.44245 0.0
C57 C 0.19515 0.50975 0.60836 0.0
O58 O 0.17319 0.53236 0.46002 0.0
Zn59 Zn 0.16645 0.55463 0.52835 0.0
O60 O 0.20211 0.48535 0.46829 0.0
Zn61 Zn 0.19198 0.50885 0.52538 0.0
O62 O 0.13639 0.50562 0.52254 0.0
O63 O 0.11889 0.55863 0.52671 0.0
O64 O 0.20636 0.48757 0.57987 0.0
O65 O 0.18011 0.53591 0.59391 0.0
O66 O 0.18927 0.59657 0.53293 0.0
O67 O 0.22457 0.55358 0.53004 0.0
C68 C 0.11208 0.52722 0.52364 0.0
C69 C 0.21935 0.58566 0.53259 0.0
C70 C 0.39703 0.21727 0.01398 0.0
C71 C 0.45444 0.11037 0.01512 0.0
O72 O 0.42933 0.22257 0.0203 0.0
Zn73 Zn 0.47391 0.18986 0.025 0.0
O74 O 0.3856 0.18716 0.00934 0.0
Zn75 Zn 0.4273 0.16471 0.01434 0.0
O76 O 0.4462 0.177 0.08523 0.0
O77 O 0.49553 0.20293 0.08507 0.0
O78 O 0.42306 0.11689 0.00881 0.0
O79 O 0.47625 0.13481 0.02146 0.0
O80 O 0.49814 0.20045 0.97485 0.0
O81 O 0.44876 0.17523 0.95289 0.0
C82 C 0.4728 0.19149 0.10708 0.0
C83 C 0.47609 0.18899 0.94298 0.0
C84 C 0.79524 0.47323 0.60488 0.0
C85 C 0.78661 0.46887 0.4389 0.0
O86 O 0.78069 0.4938 0.57907 0.0
Zn87 Zn 0.79041 0.47008 0.52196 0.0
O88 O 0.80955 0.44674 0.58727 0.0
Zn89 Zn 0.81589 0.42426 0.5189 0.0
O90 O 0.86342 0.42023 0.51999 0.0
O91 O 0.84596 0.47325 0.52411 0.0
O92 O 0.80176 0.44275 0.45332 0.0
O93 O 0.7756 0.49113 0.46744 0.0
O94 O 0.75786 0.42541 0.51827 0.0
O95 O 0.79306 0.38235 0.51498 0.0
C96 C 0.87024 0.45163 0.52283 0.0
C97 C 0.76304 0.39333 0.51592 0.0
C98 C 0.5875 0.76401 0.03689 0.0
C99 C 0.52954 0.87059 0.03627 0.0
O100 O 0.59875 0.79418 0.04145 0.0
Zn101 Zn 0.55692 0.81636 0.03677 0.0
O102 O 0.55523 0.75852 0.0308 0.0
Zn103 Zn 0.51043 0.79101 0.02652 0.0
O104 O 0.48859 0.77789 0.9665 0.0
O105 O 0.53776 0.80402 0.96595 0.0
O106 O 0.50781 0.84607 0.0301 0.0
O107 O 0.56095 0.86416 0.04229 0.0
O108 O 0.53591 0.80574 0.09849 0.0
O109 O 0.48659 0.78028 0.0771 0.0
C110 C 0.51114 0.78943 0.94428 0.0
C111 C 0.50876 0.79185 0.10875 0.0
H112 H 0.24251 0.49529 0.16586 0.0
H113 H 0.13707 0.51922 0.37714 0.0
H114 H 0.14024 0.45536 0.15448 0.0
H115 H 0.23849 0.47917 0.39443 0.0
H116 H 0.13792 0.50927 0.29388 0.0
H117 H 0.24214 0.50288 0.24944 0.0
C118 C 0.22001 0.48822 0.18099 0.0
C119 C 0.19141 0.47456 0.15349 0.0
C120 C 0.1599 0.50269 0.31607 0.0
C121 C 0.19056 0.48397 0.24814 0.0
C122 C 0.15951 0.50844 0.36334 0.0
C123 C 0.1877 0.49983 0.39246 0.0
C124 C 0.18911 0.48935 0.29798 0.0
C125 C 0.21616 0.48587 0.373 0.0
C126 C 0.21989 0.49241 0.22845 0.0
C127 C 0.16288 0.46573 0.17465 0.0
N128 N 0.21636 0.48146 0.32683 0.0
N129 N 0.16297 0.47101 0.22077 0.0
H130 H 0.44984 0.20712 0.65249 0.0
H131 H 0.53578 0.20162 0.90756 0.0
H132 H 0.55634 0.18621 0.68377 0.0
H133 H 0.42883 0.18262 0.86867 0.0
H134 H 0.54407 0.20522 0.82715 0.0
H135 H 0.44207 0.20782 0.73363 0.0
C136 C 0.47164 0.20296 0.67645 0.0
C137 C 0.50376 0.19645 0.66135 0.0
C138 C 0.51882 0.20028 0.83633 0.0
C139 C 0.49504 0.19734 0.75408 0.0
C140 C 0.51404 0.19832 0.88215 0.0
C141 C 0.48159 0.19165 0.89476 0.0
C142 C 0.49086 0.19609 0.80305 0.0
C143 C 0.45433 0.18755 0.86042 0.0
C144 C 0.46713 0.20319 0.72267 0.0
C145 C 0.53109 0.19112 0.69391 0.0
N146 N 0.45955 0.18997 0.81615 0.0
N147 N 0.52612 0.19174 0.73879 0.0
H148 H 0.77207 0.52724 0.39862 0.0
H149 H 0.77752 0.44337 0.14276 0.0
H150 H 0.7945 0.42152 0.36695 0.0
H151 H 0.79613 0.54985 0.18277 0.0
H152 H 0.77407 0.43441 0.22311 0.0
H153 H 0.7708 0.53539 0.31749 0.0
C154 C 0.77643 0.50568 0.37459 0.0
C155 C 0.78355 0.47367 0.38963 0.0
C156 C 0.77886 0.45971 0.21417 0.0
C157 C 0.78198 0.48283 0.29678 0.0
C158 C 0.78072 0.46487 0.16838 0.0
C159 C 0.78729 0.49739 0.15608 0.0
C160 C 0.78301 0.48736 0.24775 0.0
C161 C 0.79127 0.52432 0.19073 0.0
C162 C 0.77587 0.51039 0.32834 0.0
C163 C 0.78912 0.44667 0.3569 0.0
N164 N 0.78894 0.51873 0.23493 0.0
N165 N 0.78815 0.45184 0.31199 0.0
H166 H 0.45233 0.77579 0.88845 0.0
H167 H 0.53754 0.7815 0.6557 0.0
H168 H 0.55882 0.79843 0.88529 0.0
H169 H 0.4307 0.7989 0.66632 0.0
H170 H 0.54615 0.77909 0.73854 0.0
H171 H 0.44433 0.77521 0.80528 0.0
C172 C 0.47408 0.7804 0.87026 0.0
C173 C 0.50628 0.78729 0.89385 0.0
C174 C 0.52086 0.78344 0.72264 0.0
C175 C 0.49729 0.78651 0.79877 0.0
C176 C 0.5159 0.78473 0.67542 0.0
C177 C 0.48337 0.79055 0.65412 0.0
C178 C 0.493 0.78744 0.74859 0.0
C179 C 0.45625 0.7946 0.68136 0.0
C180 C 0.46944 0.78023 0.82284 0.0
C181 C 0.53352 0.7932 0.86849 0.0
N182 N 0.46164 0.79281 0.72714 0.0
N183 N 0.52844 0.79258 0.82228 0.0
H184 H 0.84582 0.45988 0.67015 0.0
H185 H 0.73988 0.48285 0.88103 0.0
H186 H 0.7444 0.49994 0.65293 0.0
H187 H 0.84216 0.52283 0.89321 0.0
H188 H 0.74051 0.47556 0.79748 0.0
H189 H 0.84486 0.46951 0.75343 0.0
C190 C 0.82337 0.47062 0.68397 0.0
C191 C 0.7952 0.47932 0.65487 0.0
C192 C 0.76271 0.48595 0.81864 0.0
C193 C 0.79366 0.4894 0.74935 0.0
C194 C 0.76244 0.48997 0.86608 0.0
C195 C 0.79097 0.50357 0.8938 0.0
C196 C 0.7921 0.49452 0.79918 0.0
C197 C 0.81958 0.5125 0.87287 0.0
C198 C 0.82291 0.47618 0.73125 0.0
C199 C 0.76671 0.49319 0.67435 0.0
N200 N 0.81962 0.50739 0.82676 0.0
N201 N 0.76645 0.49741 0.72051 0.0
H202 H 0.55644 0.79868 0.18256 0.0
H203 H 0.42429 0.79377 0.36757 0.0
H204 H 0.44945 0.779 0.14511 0.0
H205 H 0.53116 0.77396 0.3974 0.0
H206 H 0.43273 0.79311 0.28662 0.0
H207 H 0.54752 0.79481 0.26252 0.0
C208 C 0.53106 0.79358 0.19116 0.0
C209 C 0.50362 0.78922 0.15713 0.0
C210 C 0.45426 0.78868 0.31088 0.0
C211 C 0.49325 0.78496 0.24857 0.0
C212 C 0.4495 0.78913 0.35707 0.0
C213 C 0.47709 0.78396 0.38928 0.0
C214 C 0.48694 0.78361 0.29691 0.0
C215 C 0.50917 0.77797 0.37373 0.0
C216 C 0.52604 0.7912 0.23676 0.0
C217 C 0.47132 0.78246 0.17024 0.0
N218 N 0.51328 0.77829 0.32869 0.0
N219 N 0.46697 0.78081 0.215 0.0
H220 H 0.20383 0.53496 0.90444 0.0
H221 H 0.20924 0.45124 0.64854 0.0
H222 H 0.1848 0.42856 0.86432 0.0
H223 H 0.18709 0.55701 0.68031 0.0
H224 H 0.21021 0.44301 0.72961 0.0
H225 H 0.20722 0.54395 0.8241 0.0
C226 C 0.20052 0.51349 0.8788 0.0
C227 C 0.19386 0.48098 0.89107 0.0
C228 C 0.20525 0.46803 0.7188 0.0
C229 C 0.19808 0.49105 0.79939 0.0
C230 C 0.20487 0.4728 0.67258 0.0
C231 C 0.19793 0.50484 0.65759 0.0
C232 C 0.19917 0.49559 0.75038 0.0
C233 C 0.19234 0.53183 0.69033 0.0
C234 C 0.20234 0.51866 0.83301 0.0
C235 C 0.18973 0.45408 0.85639 0.0
N236 N 0.19315 0.52662 0.73521 0.0
N237 N 0.19204 0.45969 0.81218 0.0
H238 H 0.44516 0.19913 0.39507 0.0
H239 H 0.53145 0.20497 0.16325 0.0
H240 H 0.55207 0.18152 0.38526 0.0
H241 H 0.42481 0.18262 0.16563 0.0
H242 H 0.53912 0.20547 0.24641 0.0
H243 H 0.43694 0.20174 0.31228 0.0
C244 C 0.4669 0.19589 0.37554 0.0
C245 C 0.49933 0.18996 0.39703 0.0
C246 C 0.51405 0.20053 0.22867 0.0
C247 C 0.49014 0.19328 0.30264 0.0
C248 C 0.5096 0.20041 0.18127 0.0
C249 C 0.47746 0.19362 0.15748 0.0
C250 C 0.48607 0.1943 0.25251 0.0
C251 C 0.45007 0.18777 0.18261 0.0
C252 C 0.46216 0.19729 0.32835 0.0
C253 C 0.52659 0.18591 0.37005 0.0
N254 N 0.45498 0.18833 0.22881 0.0
N255 N 0.52141 0.1878 0.32428 0.0
H256 H 0.9279 0.56424 0.05778 0.0
H257 H 0.05375 0.41413 0.99052 0.0
H258 H 0.89458 0.46138 0.01476 0.0
H259 H 0.08717 0.51696 0.03353 0.0
H260 H -0.00465 0.43111 0.99875 0.0
H261 H 0.98636 0.54724 0.04984 0.0
C262 C 0.93288 0.53799 0.04685 0.0
C263 C 0.90626 0.51417 0.03682 0.0
C264 C 0.0154 0.45001 0.00629 0.0
C265 C 0.97328 0.49462 0.0274 0.0
C266 C 0.04881 0.44037 1.00151 0.0
C267 C 0.07544 0.46419 0.01143 0.0
C268 C 0.00846 0.48373 0.02117 0.0
C269 C 0.06744 0.49779 0.02546 0.0
C270 C 0.96631 0.52835 0.04223 0.0
C271 C 0.9143 0.48056 0.0229 0.0
N272 N 0.03463 0.50655 0.03004 0.0
N273 N 0.94712 0.4718 0.01846 0.0
H274 H 0.52051 0.8935 0.52645 0.0
H275 H 0.46125 0.08671 0.52393 0.0
H276 H 0.41581 0.92507 0.52433 0.0
H277 H 0.56597 0.05515 0.52659 0.0
H278 H 0.44399 0.02746 0.52353 0.0
H279 H 0.53774 0.95272 0.52655 0.0
C280 C 0.50116 0.91287 0.52612 0.0
C281 C 0.46669 0.90432 0.52537 0.0
C282 C 0.47074 0.03353 0.52415 0.0
C283 C 0.48616 0.97205 0.52534 0.0
C284 C 0.48059 0.06734 0.52431 0.0
C285 C 0.51509 0.0759 0.52533 0.0
C286 C 0.49558 0.00815 0.52502 0.0
C287 C 0.53907 0.04975 0.52584 0.0
C288 C 0.511 0.94667 0.52611 0.0
C289 C 0.4427 0.93047 0.5249 0.0
N290 N 0.52886 0.01708 0.52572 0.0
N291 N 0.45289 0.96313 0.52485 0.0
H292 H 0.05569 0.56694 0.52383 0.0
H293 H 0.92658 0.41186 0.522 0.0
H294 H 0.08695 0.46239 0.5208 0.0
H295 H 0.89537 0.51644 0.5254 0.0
H296 H 0.98535 0.42994 0.52157 0.0
H297 H -0.0031 0.54884 0.5239 0.0
C298 C 0.05021 0.54011 0.52309 0.0
C299 C 0.07634 0.5161 0.52236 0.0
C300 C 0.96569 0.44896 0.52245 0.0
C301 C 0.00888 0.49525 0.52255 0.0
C302 C 0.93206 0.43869 0.52274 0.0
C303 C 0.90595 0.46271 0.52371 0.0
C304 C 0.97339 0.48354 0.52312 0.0
C305 C 0.91467 0.49707 0.52466 0.0
C306 C 0.01657 0.52982 0.52317 0.0
C307 C 0.06763 0.48174 0.52137 0.0
N308 N 0.94769 0.50646 0.5243 0.0
N309 N 0.03459 0.47234 0.52156 0.0
H310 H 0.56931 0.92765 0.04946 0.0
H311 H 0.41453 0.05336 1.00211 0.0
H312 H 0.46479 0.89439 0.01926 0.0
H313 H 0.51911 0.08647 0.03226 0.0
H314 H 0.43249 -0.00499 0.00792 0.0
H315 H 0.55128 0.98596 0.04377 0.0
C316 C 0.54251 0.9326 0.04177 0.0
C317 C 0.5185 0.90606 0.03477 0.0
C318 C 0.45153 0.01501 0.0132 0.0
C319 C 0.49772 0.9729 0.02803 0.0
C320 C 0.44132 0.04837 0.00982 0.0
C321 C 0.46538 0.07487 0.01676 0.0
C322 C 0.48606 0.00802 0.02363 0.0
C323 C 0.4997 0.06684 0.02663 0.0
C324 C 0.53226 0.96595 0.03846 0.0
C325 C 0.48416 0.91405 0.02493 0.0
N326 N 0.50902 0.0341 0.02985 0.0
N327 N 0.47479 0.94679 0.02177 0.0
H328 H 0.21184 0.32762 0.98332 0.0
H329 H 0.40942 0.28615 0.03167 0.0
H330 H 0.28645 0.40591 0.03091 0.0
H331 H 0.32913 0.21245 0.99021 0.0
H332 H 0.36683 0.33144 0.02836 0.0
H333 H 0.25659 0.28615 0.98188 0.0
C334 C 0.23775 0.33614 0.99356 0.0
C335 C 0.24537 0.37029 0.00764 0.0
C336 C 0.35875 0.30531 0.01993 0.0
C337 C 0.29721 0.32249 0.0062 0.0
C338 C 0.38296 0.27952 0.02178 0.0
C339 C 0.37277 0.24547 0.01148 0.0
C340 C 0.32435 0.29677 0.0075 0.0
C341 C 0.33824 0.23825 0.9988 0.0
C342 C 0.26342 0.31234 0.99268 0.0
C343 C 0.27952 0.37977 0.01998 0.0
N344 N 0.31542 0.26361 0.99726 0.0
N345 N 0.30431 0.35588 0.01923 0.0
H346 H 0.76712 0.32476 0.50858 0.0
H347 H 0.57113 0.28642 0.52594 0.0
H348 H 0.69513 0.40603 0.52464 0.0
H349 H 0.65298 0.21571 0.54776 0.0
H350 H 0.61356 0.33081 0.5198 0.0
H351 H 0.72256 0.28418 0.51461 0.0
C352 C 0.74184 0.33414 0.51326 0.0
C353 C 0.73494 0.36892 0.51645 0.0
C354 C 0.62201 0.30556 0.5262 0.0
C355 C 0.68346 0.32221 0.52374 0.0
C356 C 0.59791 0.2803 0.52979 0.0
C357 C 0.60852 0.24725 0.53703 0.0
C358 C 0.6567 0.29741 0.52957 0.0
C359 C 0.64348 0.24067 0.54177 0.0
C360 C 0.71634 0.31086 0.51691 0.0
C361 C 0.70153 0.3794 0.52216 0.0
N362 N 0.66617 0.26541 0.53769 0.0
N363 N 0.67689 0.35606 0.52575 0.0
H364 H 0.69488 0.57154 0.01885 0.0
H365 H 0.65522 0.76922 0.06184 0.0
H366 H 0.76956 0.65111 0.05879 0.0
H367 H 0.57575 0.69513 0.01761 0.0
H368 H 0.69644 0.72432 0.06393 0.0
H369 H 0.64987 0.61447 0.0208 0.0
C370 C 0.70179 0.59792 0.02811 0.0
C371 C 0.73603 0.60779 0.03843 0.0
C372 C 0.67004 0.71762 0.05373 0.0
C373 C 0.68505 0.65661 0.04083 0.0
C374 C 0.64637 0.74339 0.05247 0.0
C375 C 0.61196 0.73597 0.03918 0.0
C376 C 0.6595 0.68392 0.04141 0.0
C377 C 0.6021 0.70192 0.02792 0.0
C378 C 0.67616 0.62233 0.02919 0.0
C379 C 0.74361 0.64223 0.05027 0.0
N380 N 0.62587 0.67701 0.02906 0.0
N381 N 0.71839 0.66525 0.05106 0.0
H382 H 0.41088 0.69333 0.52256 0.0
H383 H 0.21561 0.65417 0.5448 0.0
H384 H 0.32899 0.76501 0.50899 0.0
H385 H 0.28705 0.57328 0.52198 0.0
H386 H 0.26015 0.69517 0.54055 0.0
H387 H 0.36869 0.64867 0.52853 0.0
C388 C 0.38415 0.69963 0.52055 0.0
C389 C 0.37346 0.73299 0.51551 0.0
C390 C 0.26625 0.66848 0.53639 0.0
C391 C 0.32557 0.6825 0.52281 0.0
C392 C 0.24077 0.64496 0.53897 0.0
C393 C 0.24751 0.61018 0.5333 0.0
C394 C 0.29896 0.65739 0.52805 0.0
C395 C 0.28078 0.59991 0.52635 0.0
C396 C 0.36019 0.67421 0.52403 0.0
C397 C 0.33855 0.73979 0.51311 0.0
N398 N 0.3054 0.62349 0.52372 0.0
N399 N 0.31601 0.71487 0.51701 0.0
loop_
_geom_bond_atom_site_label_1
_geom_bond_atom_site_label_2
_geom_bond_distance
_geom_bond_site_symmetry_2
_ccdc_geom_bond_type
C0 O2 1.247 . S
C0 O4 1.258 . S
C1 O8 1.247 . S
C1 O9 1.258 . S
O2 C0 1.247 . S
O2 Zn3 2.028 . S
Zn3 O2 2.028 . S
Zn3 O7 2.035 . S
Zn3 O9 2.035 . S
Zn3 O10 2.028 1_554 S
O4 C0 1.258 . S
O4 Zn5 2.035 . S
Zn5 O4 2.035 . S
Zn5 O6 2.028 . S
Zn5 O8 2.028 . S
Zn5 O11 2.035 1_554 S
O6 Zn5 2.028 . S
O6 C12 1.247 . S
O7 Zn3 2.035 . S
O7 C12 1.258 . S
O8 C1 1.247 . S
O8 Zn5 2.028 . S
O9 C1 1.258 . S
O9 Zn3 2.035 . S
O10 Zn3 2.028 1_556 S
O10 C13 1.247 . S
O11 Zn5 2.035 1_556 S
O11 C13 1.258 . S
C12 O6 1.247 . S
C12 O7 1.258 . S
C13 O10 1.247 . S
C13 O11 1.258 . S
C14 O16 1.247 . S
C14 O18 1.258 . S
C15 O22 1.247 . S
C15 O23 1.258 . S
O16 C14 1.247 . S
O16 Zn17 2.028 . S
Zn17 O16 2.028 . S
Zn17 O21 2.035 . S
Zn17 O23 2.035 . S
Zn17 O24 2.028 . S
O18 C14 1.258 . S
O18 Zn19 2.035 . S
Zn19 O18 2.035 . S
Zn19 O20 2.028 . S
Zn19 O22 2.028 . S
Zn19 O25 2.035 . S
O20 Zn19 2.028 . S
O20 C26 1.247 . S
O21 Zn17 2.035 . S
O21 C26 1.258 . S
O22 C15 1.247 . S
O22 Zn19 2.028 . S
O23 C15 1.258 . S
O23 Zn17 2.035 . S
O24 Zn17 2.028 . S
O24 C27 1.247 . S
O25 Zn19 2.035 . S
O25 C27 1.258 . S
C26 O20 1.247 . S
C26 O21 1.258 . S
C27 O24 1.247 . S
C27 O25 1.258 . S
C28 O30 1.247 . S
C28 O32 1.258 . S
C29 O36 1.247 . S
C29 O37 1.258 . S
O30 C28 1.247 . S
O30 Zn31 2.028 . S
Zn31 O30 2.028 . S
Zn31 O35 2.035 . S
Zn31 O37 2.035 . S
Zn31 O38 2.028 1_554 S
O32 C28 1.258 . S
O32 Zn33 2.035 . S
Zn33 O32 2.035 . S
Zn33 O34 2.028 . S
Zn33 O36 2.028 . S
Zn33 O39 2.035 1_554 S
O34 Zn33 2.028 . S
O34 C40 1.247 . S
O35 Zn31 2.035 . S
O35 C40 1.258 . S
O36 C29 1.247 . S
O36 Zn33 2.028 . S
O37 C29 1.258 . S
O37 Zn31 2.035 . S
O38 Zn31 2.028 1_556 S
O38 C41 1.247 . S
O39 Zn33 2.035 1_556 S
O39 C41 1.258 . S
C40 O34 1.247 . S
C40 O35 1.258 . S
C41 O38 1.247 . S
C41 O39 1.258 . S
C42 O44 1.247 . S
C42 O46 1.258 . S
C43 O50 1.247 . S
C43 O51 1.258 . S
O44 C42 1.247 . S
O44 Zn45 2.028 . S
Zn45 O44 2.028 . S
Zn45 O49 2.035 . S
Zn45 O51 2.035 . S
Zn45 O52 2.028 . S
O46 C42 1.258 . S
O46 Zn47 2.035 . S
Zn47 O46 2.035 . S
Zn47 O48 2.028 . S
Zn47 O50 2.028 . S
Zn47 O53 2.035 . S
O48 Zn47 2.028 . S
O48 C54 1.247 . S
O49 Zn45 2.035 . S
O49 C54 1.258 . S
O50 C43 1.247 . S
O50 Zn47 2.028 . S
O51 C43 1.258 . S
O51 Zn45 2.035 . S
O52 Zn45 2.028 . S
O52 C55 1.247 . S
O53 Zn47 2.035 . S
O53 C55 1.258 . S
C54 O48 1.247 . S
C54 O49 1.258 . S
C55 O52 1.247 . S
C55 O53 1.258 . S
C56 O58 1.247 . S
C56 O60 1.258 . S
C57 O64 1.247 . S
C57 O65 1.258 . S
O58 C56 1.247 . S
O58 Zn59 2.028 . S
Zn59 O58 2.028 . S
Zn59 O63 2.035 . S
Zn59 O65 2.035 . S
Zn59 O66 2.028 . S
O60 C56 1.258 . S
O60 Zn61 2.035 . S
Zn61 O60 2.035 . S
Zn61 O62 2.028 . S
Zn61 O64 2.028 . S
Zn61 O67 2.035 . S
O62 Zn61 2.028 . S
O62 C68 1.247 . S
O63 Zn59 2.035 . S
O63 C68 1.258 . S
O64 C57 1.247 . S
O64 Zn61 2.028 . S
O65 C57 1.258 . S
O65 Zn59 2.035 . S
O66 Zn59 2.028 . S
O66 C69 1.247 . S
O67 Zn61 2.035 . S
O67 C69 1.258 . S
C68 O62 1.247 . S
C68 O63 1.258 . S
C69 O66 1.247 . S
C69 O67 1.258 . S
C70 O72 1.247 . S
C70 O74 1.258 . S
C71 O78 1.247 . S
C71 O79 1.258 . S
O72 C70 1.247 . S
O72 Zn73 2.028 . S
Zn73 O72 2.028 . S
Zn73 O77 2.035 . S
Zn73 O79 2.035 . S
Zn73 O80 2.028 1_554 S
O74 C70 1.258 . S
O74 Zn75 2.035 . S
Zn75 O74 2.035 . S
Zn75 O76 2.028 . S
Zn75 O78 2.028 . S
Zn75 O81 2.035 1_554 S
O76 Zn75 2.028 . S
O76 C82 1.247 . S
O77 Zn73 2.035 . S
O77 C82 1.258 . S
O78 C71 1.247 . S
O78 Zn75 2.028 . S
O79 C71 1.258 . S
O79 Zn73 2.035 . S
O80 Zn73 2.028 1_556 S
O80 C83 1.247 . S
O81 Zn75 2.035 1_556 S
O81 C83 1.258 . S
C82 O76 1.247 . S
C82 O77 1.258 . S
C83 O80 1.247 . S
C83 O81 1.258 . S
C84 O86 1.247 . S
C84 O88 1.258 . S
C85 O92 1.247 . S
C85 O93 1.258 . S
O86 C84 1.247 . S
O86 Zn87 2.028 . S
Zn87 O86 2.028 . S
Zn87 O91 2.035 . S
Zn87 O93 2.035 . S
Zn87 O94 2.028 . S
O88 C84 1.258 . S
O88 Zn89 2.035 . S
Zn89 O88 2.035 . S
Zn89 O90 2.028 . S
Zn89 O92 2.028 . S
Zn89 O95 2.035 . S
O90 Zn89 2.028 . S
O90 C96 1.247 . S
O91 Zn87 2.035 . S
O91 C96 1.258 . S
O92 C85 1.247 . S
O92 Zn89 2.028 . S
O93 C85 1.258 . S
O93 Zn87 2.035 . S
O94 Zn87 2.028 . S
O94 C97 1.247 . S
O95 Zn89 2.035 . S
O95 C97 1.258 . S
C96 O90 1.247 . S
C96 O91 1.258 . S
C97 O94 1.247 . S
C97 O95 1.258 . S
C98 O100 1.247 . S
C98 O102 1.258 . S
C99 O106 1.247 . S
C99 O107 1.258 . S
O100 C98 1.247 . S
O100 Zn101 2.028 . S
Zn101 O100 2.028 . S
Zn101 O105 2.035 1_554 S
Zn101 O107 2.035 . S
Zn101 O108 2.028 . S
O102 C98 1.258 . S
O102 Zn103 2.035 . S
Zn103 O102 2.035 . S
Zn103 O104 2.028 1_554 S
Zn103 O106 2.028 . S
Zn103 O109 2.035 . S
O104 Zn103 2.028 1_556 S
O104 C110 1.247 . S
O105 Zn101 2.035 1_556 S
O105 C110 1.258 . S
O106 C99 1.247 . S
O106 Zn103 2.028 . S
O107 C99 1.258 . S
O107 Zn101 2.035 . S
O108 Zn101 2.028 . S
O108 C111 1.247 . S
O109 Zn103 2.035 . S
O109 C111 1.258 . S
C110 O104 1.247 . S
C110 O105 1.258 . S
C111 O108 1.247 . S
C111 O109 1.258 . S
H112 C118 0.930 . S
H113 C122 0.930 . S
H114 C127 0.929 . S
H115 C125 0.929 . S
H116 C120 0.929 . S
H117 C126 0.929 . S
C118 H112 0.930 . S
C118 C119 1.367 . S
C118 C126 1.378 . S
C119 C118 1.367 . S
C119 C127 1.433 . S
C120 H116 0.929 . S
C120 C122 1.378 . S
C120 C124 1.350 . S
C121 C124 1.463 . S
C121 C126 1.350 . S
C121 N129 1.427 . S
C122 H113 0.930 . S
C122 C120 1.378 . S
C122 C123 1.367 . S
C123 C122 1.367 . S
C123 C125 1.433 . S
C124 C120 1.350 . S
C124 C121 1.463 . S
C124 N128 1.427 . S
C125 H115 0.929 . S
C125 C123 1.433 . S
C125 N128 1.384 . S
C126 H117 0.929 . S
C126 C118 1.378 . S
C126 C121 1.350 . S
C127 H114 0.929 . S
C127 C119 1.433 . S
C127 N129 1.384 . S
N128 C124 1.427 . S
N128 C125 1.384 . S
N129 C121 1.427 . S
N129 C127 1.384 . S
H130 C136 0.930 . S
H131 C140 0.930 . S
H132 C145 0.929 . S
H133 C143 0.929 . S
H134 C138 0.929 . S
H135 C144 0.929 . S
C136 H130 0.930 . S
C136 C137 1.367 . S
C136 C144 1.378 . S
C137 C136 1.367 . S
C137 C145 1.433 . S
C138 H134 0.929 . S
C138 C140 1.378 . S
C138 C142 1.350 . S
C139 C142 1.463 . S
C139 C144 1.350 . S
C139 N147 1.427 . S
C140 H131 0.930 . S
C140 C138 1.378 . S
C140 C141 1.367 . S
C141 C140 1.367 . S
C141 C143 1.433 . S
C142 C138 1.350 . S
C142 C139 1.463 . S
C142 N146 1.427 . S
C143 H133 0.929 . S
C143 C141 1.433 . S
C143 N146 1.384 . S
C144 H135 0.929 . S
C144 C136 1.378 . S
C144 C139 1.350 . S
C145 H132 0.929 . S
C145 C137 1.433 . S
C145 N147 1.384 . S
N146 C142 1.427 . S
N146 C143 1.384 . S
N147 C139 1.427 . S
N147 C145 1.384 . S
H148 C154 0.930 . S
H149 C158 0.930 . S
H150 C163 0.929 . S
H151 C161 0.929 . S
H152 C156 0.929 . S
H153 C162 0.929 . S
C154 H148 0.930 . S
C154 C155 1.367 . S
C154 C162 1.378 . S
C155 C154 1.367 . S
C155 C163 1.433 . S
C156 H152 0.929 . S
C156 C158 1.378 . S
C156 C160 1.350 . S
C157 C160 1.463 . S
C157 C162 1.350 . S
C157 N165 1.427 . S
C158 H149 0.930 . S
C158 C156 1.378 . S
C158 C159 1.367 . S
C159 C158 1.367 . S
C159 C161 1.433 . S
C160 C156 1.350 . S
C160 C157 1.463 . S
C160 N164 1.427 . S
C161 H151 0.929 . S
C161 C159 1.433 . S
C161 N164 1.384 . S
C162 H153 0.929 . S
C162 C154 1.378 . S
C162 C157 1.350 . S
C163 H150 0.929 . S
C163 C155 1.433 . S
C163 N165 1.384 . S
N164 C160 1.427 . S
N164 C161 1.384 . S
N165 C157 1.427 . S
N165 C163 1.384 . S
H166 C172 0.930 . S
H167 C176 0.930 . S
H168 C181 0.929 . S
H169 C179 0.929 . S
H170 C174 0.929 . S
H171 C180 0.929 . S
C172 H166 0.930 . S
C172 C173 1.367 . S
C172 C180 1.378 . S
C173 C172 1.367 . S
C173 C181 1.433 . S
C174 H170 0.929 . S
C174 C176 1.378 . S
C174 C178 1.350 . S
C175 C178 1.463 . S
C175 C180 1.350 . S
C175 N183 1.427 . S
C176 H167 0.930 . S
C176 C174 1.378 . S
C176 C177 1.367 . S
C177 C176 1.367 . S
C177 C179 1.433 . S
C178 C174 1.350 . S
C178 C175 1.463 . S
C178 N182 1.427 . S
C179 H169 0.929 . S
C179 C177 1.433 . S
C179 N182 1.384 . S
C180 H171 0.929 . S
C180 C172 1.378 . S
C180 C175 1.350 . S
C181 H168 0.929 . S
C181 C173 1.433 . S
C181 N183 1.384 . S
N182 C178 1.427 . S
N182 C179 1.384 . S
N183 C175 1.427 . S
N183 C181 1.384 . S
H184 C190 0.930 . S
H185 C194 0.930 . S
H186 C199 0.929 . S
H187 C197 0.929 . S
H188 C192 0.929 . S
H189 C198 0.929 . S
C190 H184 0.930 . S
C190 C191 1.367 . S
C190 C198 1.378 . S
C191 C190 1.367 . S
C191 C199 1.433 . S
C192 H188 0.929 . S
C192 C194 1.378 . S
C192 C196 1.350 . S
C193 C196 1.463 . S
C193 C198 1.350 . S
C193 N201 1.427 . S
C194 H185 0.930 . S
C194 C192 1.378 . S
C194 C195 1.367 . S
C195 C194 1.367 . S
C195 C197 1.433 . S
C196 C192 1.350 . S
C196 C193 1.463 . S
C196 N200 1.427 . S
C197 H187 0.929 . S
C197 C195 1.433 . S
C197 N200 1.384 . S
C198 H189 0.929 . S
C198 C190 1.378 . S
C198 C193 1.350 . S
C199 H186 0.929 . S
C199 C191 1.433 . S
C199 N201 1.384 . S
N200 C196 1.427 . S
N200 C197 1.384 . S
N201 C193 1.427 . S
N201 C199 1.384 . S
H202 C208 0.930 . S
H203 C212 0.930 . S
H204 C217 0.929 . S
H205 C215 0.929 . S
H206 C210 0.929 . S
H207 C216 0.929 . S
C208 H202 0.930 . S
C208 C209 1.367 . S
C208 C216 1.378 . S
C209 C208 1.367 . S
C209 C217 1.433 . S
C210 H206 0.929 . S
C210 C212 1.378 . S
C210 C214 1.350 . S
C211 C214 1.463 . S
C211 C216 1.350 . S
C211 N219 1.427 . S
C212 H203 0.930 . S
C212 C210 1.378 . S
C212 C213 1.367 . S
C213 C212 1.367 . S
C213 C215 1.433 . S
C214 C210 1.350 . S
C214 C211 1.463 . S
C214 N218 1.427 . S
C215 H205 0.929 . S
C215 C213 1.433 . S
C215 N218 1.384 . S
C216 H207 0.929 . S
C216 C208 1.378 . S
C216 C211 1.350 . S
C217 H204 0.929 . S
C217 C209 1.433 . S
C217 N219 1.384 . S
N218 C214 1.427 . S
N218 C215 1.384 . S
N219 C211 1.427 . S
N219 C217 1.384 . S
H220 C226 0.930 . S
H221 C230 0.930 . S
H222 C235 0.929 . S
H223 C233 0.929 . S
H224 C228 0.929 . S
H225 C234 0.929 . S
C226 H220 0.930 . S
C226 C227 1.367 . S
C226 C234 1.378 . S
C227 C226 1.367 . S
C227 C235 1.433 . S
C228 H224 0.929 . S
C228 C230 1.378 . S
C228 C232 1.350 . S
C229 C232 1.463 . S
C229 C234 1.350 . S
C229 N237 1.427 . S
C230 H221 0.930 . S
C230 C228 1.378 . S
C230 C231 1.367 . S
C231 C230 1.367 . S
C231 C233 1.433 . S
C232 C228 1.350 . S
C232 C229 1.463 . S
C232 N236 1.427 . S
C233 H223 0.929 . S
C233 C231 1.433 . S
C233 N236 1.384 . S
C234 H225 0.929 . S
C234 C226 1.378 . S
C234 C229 1.350 . S
C235 H222 0.929 . S
C235 C227 1.433 . S
C235 N237 1.384 . S
N236 C232 1.427 . S
N236 C233 1.384 . S
N237 C229 1.427 . S
N237 C235 1.384 . S
H238 C244 0.930 . S
H239 C248 0.930 . S
H240 C253 0.929 . S
H241 C251 0.929 . S
H242 C246 0.929 . S
H243 C252 0.929 . S
C244 H238 0.930 . S
C244 C245 1.367 . S
C244 C252 1.378 . S
C245 C244 1.367 . S
C245 C253 1.433 . S
C246 H242 0.929 . S
C246 C248 1.378 . S
C246 C250 1.350 . S
C247 C250 1.463 . S
C247 C252 1.350 . S
C247 N255 1.427 . S
C248 H239 0.930 . S
C248 C246 1.378 . S
C248 C249 1.367 . S
C249 C248 1.367 . S
C249 C251 1.433 . S
C250 C246 1.350 . S
C250 C247 1.463 . S
C250 N254 1.427 . S
C251 H241 0.929 . S
C251 C249 1.433 . S
C251 N254 1.384 . S
C252 H243 0.929 . S
C252 C244 1.378 . S
C252 C247 1.350 . S
C253 H240 0.929 . S
C253 C245 1.433 . S
C253 N255 1.384 . S
N254 C250 1.427 . S
N254 C251 1.384 . S
N255 C247 1.427 . S
N255 C253 1.384 . S
H256 C262 0.930 . S
H257 C266 0.930 . S
H258 C271 0.929 . S
H259 C269 0.929 . S
H260 C264 0.929 . S
H261 C270 0.929 . S
C262 H256 0.930 . S
C262 C263 1.367 . S
C262 C270 1.378 . S
C263 C262 1.367 . S
C263 C271 1.433 1_554 S
C264 H260 0.929 . S
C264 C266 1.378 . S
C264 C268 1.350 1_556 S
C265 C268 1.463 1_655 S
C265 C270 1.350 . S
C265 N273 1.427 1_554 S
C266 H257 0.930 . S
C266 C264 1.378 . S
C266 C267 1.367 1_556 S
C267 C266 1.367 1_554 S
C267 C269 1.433 . S
C268 C264 1.350 1_554 S
C268 C265 1.463 1_455 S
C268 N272 1.427 . S
C269 H259 0.929 . S
C269 C267 1.433 . S
C269 N272 1.384 . S
C270 H261 0.929 . S
C270 C262 1.378 . S
C270 C265 1.350 . S
C271 H258 0.929 . S
C271 C263 1.433 1_556 S
C271 N273 1.384 . S
N272 C268 1.427 . S
N272 C269 1.384 . S
N273 C265 1.427 1_556 S
N273 C271 1.384 . S
H274 C280 0.930 . S
H275 C284 0.930 . S
H276 C289 0.929 . S
H277 C287 0.929 . S
H278 C282 0.929 . S
H279 C288 0.929 . S
C280 H274 0.930 . S
C280 C281 1.367 . S
C280 C288 1.378 . S
C281 C280 1.367 . S
C281 C289 1.433 . S
C282 H278 0.929 . S
C282 C284 1.378 . S
C282 C286 1.350 . S
C283 C286 1.463 1_565 S
C283 C288 1.350 . S
C283 N291 1.427 . S
C284 H275 0.930 . S
C284 C282 1.378 . S
C284 C285 1.367 . S
C285 C284 1.367 . S
C285 C287 1.433 . S
C286 C282 1.350 . S
C286 C283 1.463 1_545 S
C286 N290 1.427 . S
C287 H277 0.929 . S
C287 C285 1.433 . S
C287 N290 1.384 . S
C288 H279 0.929 . S
C288 C280 1.378 . S
C288 C283 1.350 . S
C289 H276 0.929 . S
C289 C281 1.433 . S
C289 N291 1.384 . S
N290 C286 1.427 . S
N290 C287 1.384 . S
N291 C283 1.427 . S
N291 C289 1.384 . S
H292 C298 0.930 . S
H293 C302 0.930 . S
H294 C307 0.929 . S
H295 C305 0.929 . S
H296 C300 0.929 . S
H297 C306 0.929 . S
C298 H292 0.930 . S
C298 C299 1.367 . S
C298 C306 1.378 . S
C299 C298 1.367 . S
C299 C307 1.433 . S
C300 H296 0.929 . S
C300 C302 1.378 . S
C300 C304 1.350 . S
C301 C304 1.463 1_455 S
C301 C306 1.350 . S
C301 N309 1.427 . S
C302 H293 0.930 . S
C302 C300 1.378 . S
C302 C303 1.367 . S
C303 C302 1.367 . S
C303 C305 1.433 . S
C304 C300 1.350 . S
C304 C301 1.463 1_655 S
C304 N308 1.427 . S
C305 H295 0.929 . S
C305 C303 1.433 . S
C305 N308 1.384 . S
C306 H297 0.929 . S
C306 C298 1.378 . S
C306 C301 1.350 . S
C307 H294 0.929 . S
C307 C299 1.433 . S
C307 N309 1.384 . S
N308 C304 1.427 . S
N308 C305 1.384 . S
N309 C301 1.427 . S
N309 C307 1.384 . S
H310 C316 0.930 . S
H311 C320 0.941 . S
H312 C325 0.929 1_556 S
H313 C323 0.929 . S
H314 C318 0.928 . S
H315 C324 0.929 . S
C316 H310 0.930 . S
C316 C317 1.367 . S
C316 C324 1.378 . S
C317 C316 1.367 . S
C317 C325 1.433 . S
C318 H314 0.928 . S
C318 C320 1.374 . S
C318 C322 1.351 1_556 S
C319 C322 1.463 1_565 S
C319 C324 1.350 . S
C319 N327 1.427 . S
C320 H311 0.941 . S
C320 C318 1.374 . S
C320 C321 1.361 1_556 S
C321 C320 1.361 1_554 S
C321 C323 1.433 . S
C322 C318 1.351 1_554 S
C322 C319 1.463 1_545 S
C322 N326 1.427 . S
C323 H313 0.929 . S
C323 C321 1.433 . S
C323 N326 1.384 . S
C324 H315 0.929 . S
C324 C316 1.378 . S
C324 C319 1.350 . S
C325 H312 0.929 1_554 S
C325 C317 1.433 . S
C325 N327 1.384 . S
N326 C322 1.427 . S
N326 C323 1.384 . S
N327 C319 1.427 . S
N327 C325 1.384 . S
H328 C334 0.930 . S
H329 C338 0.930 . S
H330 C343 0.929 . S
H331 C341 0.929 . S
H332 C336 0.929 . S
H333 C342 0.929 . S
C334 H328 0.930 . S
C334 C335 1.367 1_556 S
C334 C342 1.378 . S
C335 C334 1.367 1_554 S
C335 C343 1.433 . S
C336 H332 0.929 . S
C336 C338 1.378 . S
C336 C340 1.350 . S
C337 C340 1.463 . S
C337 C342 1.350 1_554 S
C337 N345 1.427 . S
C338 H329 0.930 . S
C338 C336 1.378 . S
C338 C339 1.367 . S
C339 C338 1.367 . S
C339 C341 1.433 1_554 S
C340 C336 1.350 . S
C340 C337 1.463 . S
C340 N344 1.427 1_554 S
C341 H331 0.929 . S
C341 C339 1.433 1_556 S
C341 N344 1.384 . S
C342 H333 0.929 . S
C342 C334 1.378 . S
C342 C337 1.350 1_556 S
C343 H330 0.929 . S
C343 C335 1.433 . S
C343 N345 1.384 . S
N344 C340 1.427 1_556 S
N344 C341 1.384 . S
N345 C337 1.427 . S
N345 C343 1.384 . S
H346 C352 0.930 . S
H347 C356 0.930 . S
H348 C361 0.929 . S
H349 C359 0.929 . S
H350 C354 0.929 . S
H351 C360 0.929 . S
C352 H346 0.930 . S
C352 C353 1.367 . S
C352 C360 1.378 . S
C353 C352 1.367 . S
C353 C361 1.433 . S
C354 H350 0.929 . S
C354 C356 1.378 . S
C354 C358 1.350 . S
C355 C358 1.463 . S
C355 C360 1.350 . S
C355 N363 1.427 . S
C356 H347 0.930 . S
C356 C354 1.378 . S
C356 C357 1.367 . S
C357 C356 1.367 . S
C357 C359 1.433 . S
C358 C354 1.350 . S
C358 C355 1.463 . S
C358 N362 1.427 . S
C359 H349 0.929 . S
C359 C357 1.433 . S
C359 N362 1.384 . S
C360 H351 0.929 . S
C360 C352 1.378 . S
C360 C355 1.350 . S
C361 H348 0.929 . S
C361 C353 1.433 . S
C361 N363 1.384 . S
N362 C358 1.427 . S
N362 C359 1.384 . S
N363 C355 1.427 . S
N363 C361 1.384 . S
H364 C370 0.930 . S
H365 C374 0.930 . S
H366 C379 0.929 . S
H367 C377 0.929 . S
H368 C372 0.929 . S
H369 C378 0.929 . S
C370 H364 0.930 . S
C370 C371 1.367 1_556 S
C370 C378 1.378 . S
C371 C370 1.367 1_554 S
C371 C379 1.433 . S
C372 H368 0.929 . S
C372 C374 1.378 . S
C372 C376 1.350 . S
C373 C376 1.463 . S
C373 C378 1.350 1_554 S
C373 N381 1.427 . S
C374 H365 0.930 . S
C374 C372 1.378 . S
C374 C375 1.367 . S
C375 C374 1.367 . S
C375 C377 1.433 1_554 S
C376 C372 1.350 . S
C376 C373 1.463 . S
C376 N380 1.427 1_554 S
C377 H367 0.929 . S
C377 C375 1.433 1_556 S
C377 N380 1.384 . S
C378 H369 0.929 . S
C378 C370 1.378 . S
C378 C373 1.350 1_556 S
C379 H366 0.929 . S
C379 C371 1.433 . S
C379 N381 1.384 . S
N380 C376 1.427 1_556 S
N380 C377 1.384 . S
N381 C373 1.427 . S
N381 C379 1.384 . S
H382 C388 0.930 . S
H383 C392 0.930 . S
H384 C397 0.929 . S
H385 C395 0.929 . S
H386 C390 0.929 . S
H387 C396 0.929 . S
C388 H382 0.930 . S
C388 C389 1.367 . S
C388 C396 1.378 . S
C389 C388 1.367 . S
C389 C397 1.433 . S
C390 H386 0.929 . S
C390 C392 1.378 . S
C390 C394 1.350 . S
C391 C394 1.463 . S
C391 C396 1.350 . S
C391 N399 1.427 . S
C392 H383 0.930 . S
C392 C390 1.378 . S
C392 C393 1.367 . S
C393 C392 1.367 . S
C393 C395 1.433 . S
C394 C390 1.350 . S
C394 C391 1.463 . S
C394 N398 1.427 . S
C395 H385 0.929 . S
C395 C393 1.433 . S
C395 N398 1.384 . S
C396 H387 0.929 . S
C396 C388 1.378 . S
C396 C391 1.350 . S
C397 H384 0.929 . S
C397 C389 1.433 . S
C397 N399 1.384 . S
N398 C394 1.427 . S
N398 C395 1.384 . S
N399 C391 1.427 . S
N399 C397 1.384 . S
C119 C12 1.541 . S
C123 C56 1.538 . S
C137 C15 1.557 . S
C141 C83 1.547 . S
C155 C85 1.557 . S
C159 C40 1.547 . S
C173 C110 1.541 . S
C177 C43 1.536 . S
C191 C84 1.537 . S
C195 C41 1.541 . S
C209 C111 1.554 . S
C213 C42 1.561 . S
C227 C13 1.548 . S
C231 C57 1.557 . S
C245 C14 1.535 . S
C249 C82 1.542 . S
C263 C28 1.972 . S
C267 C1 1.972 . S
C281 C55 1.972 . S
C285 C26 1.972 . S
C299 C68 1.970 . S
C303 C96 1.966 . S
C317 C99 1.968 . S
C321 C71 1.964 . S
C335 C0 1.909 . S
C339 C70 1.909 . S
C353 C97 1.900 . S
C357 C27 1.907 . S
C371 C29 1.909 . S
C375 C98 1.908 . S
C389 C54 1.907 . S
C393 C69 1.898 . S
