# Generated by pormake.
# Topology sxf, (6)-cn, num edge types: 1
# Building blocks:
#     Node 0, Type 0, BuildingBlock: OJICUG_clean_sbu_0, # of connection points: 6
#     Node 1, Type 0, BuildingBlock: OJICUG_clean_sbu_0, # of connection points: 6
#     Node 2, Type 0, BuildingBlock: OJICUG_clean_sbu_0, # of connection points: 6
#     Node 3, Type 0, BuildingBlock: OJICUG_clean_sbu_0, # of connection points: 6
#     Node 4, Type 0, BuildingBlock: OJICUG_clean_sbu_0, # of connection points: 6
#     Node 5, Type 0, BuildingBlock: OJICUG_clean_sbu_0, # of connection points: 6
#     Node 6, Type 0, BuildingBlock: OJICUG_clean_sbu_0, # of connection points: 6
#     Node 7, Type 0, BuildingBlock: OJICUG_clean_sbu_0, # of connection points: 6
#     Node 8, Type 0, BuildingBlock: OJICUG_clean_sbu_0, # of connection points: 6
#     Node 9, Type 0, BuildingBlock: OJICUG_clean_sbu_0, # of connection points: 6
#     Node 10, Type 0, BuildingBlock: OJICUG_clean_sbu_0, # of connection points: 6
#     Node 11, Type 0, BuildingBlock: OJICUG_clean_sbu_0, # of connection points: 6
#     Node 12, Type 0, BuildingBlock: OJICUG_clean_sbu_0, # of connection points: 6
#     Node 13, Type 0, BuildingBlock: OJICUG_clean_sbu_0, # of connection points: 6
#     Node 14, Type 0, BuildingBlock: OJICUG_clean_sbu_0, # of connection points: 6
#     Node 15, Type 0, BuildingBlock: OJICUG_clean_sbu_0, # of connection points: 6
#     Node 16, Type 0, BuildingBlock: OJICUG_clean_sbu_0, # of connection points: 6
#     Node 17, Type 0, BuildingBlock: OJICUG_clean_sbu_0, # of connection points: 6
#     Node 18, Type 0, BuildingBlock: OJICUG_clean_sbu_0, # of connection points: 6
#     Node 19, Type 0, BuildingBlock: OJICUG_clean_sbu_0, # of connection points: 6
#     Node 20, Type 0, BuildingBlock: OJICUG_clean_sbu_0, # of connection points: 6
#     Node 21, Type 0, BuildingBlock: OJICUG_clean_sbu_0, # of connection points: 6
#     Node 22, Type 0, BuildingBlock: OJICUG_clean_sbu_0, # of connection points: 6
#     Node 23, Type 0, BuildingBlock: OJICUG_clean_sbu_0, # of connection points: 6
#     Edge 24, Type (0, 0), BuildingBlock: UVAHIK_clean_linker_0, # of connection points: 2
#     Edge 25, Type (0, 0), BuildingBlock: UVAHIK_clean_linker_0, # of connection points: 2
#     Edge 26, Type (0, 0), BuildingBlock: UVAHIK_clean_linker_0, # of connection points: 2
#     Edge 27, Type (0, 0), BuildingBlock: UVAHIK_clean_linker_0, # of connection points: 2
#     Edge 28, Type (0, 0), BuildingBlock: UVAHIK_clean_linker_0, # of connection points: 2
#     Edge 29, Type (0, 0), BuildingBlock: UVAHIK_clean_linker_0, # of connection points: 2
#     Edge 30, Type (0, 0), BuildingBlock: UVAHIK_clean_linker_0, # of connection points: 2
#     Edge 31, Type (0, 0), BuildingBlock: UVAHIK_clean_linker_0, # of connection points: 2
#     Edge 32, Type (0, 0), BuildingBlock: UVAHIK_clean_linker_0, # of connection points: 2
#     Edge 33, Type (0, 0), BuildingBlock: UVAHIK_clean_linker_0, # of connection points: 2
#     Edge 34, Type (0, 0), BuildingBlock: UVAHIK_clean_linker_0, # of connection points: 2
#     Edge 35, Type (0, 0), BuildingBlock: UVAHIK_clean_linker_0, # of connection points: 2
#     Edge 36, Type (0, 0), BuildingBlock: UVAHIK_clean_linker_0, # of connection points: 2
#     Edge 37, Type (0, 0), BuildingBlock: UVAHIK_clean_linker_0, # of connection points: 2
#     Edge 38, Type (0, 0), BuildingBlock: UVAHIK_clean_linker_0, # of connection points: 2
#     Edge 39, Type (0, 0), BuildingBlock: UVAHIK_clean_linker_0, # of connection points: 2
#     Edge 40, Type (0, 0), BuildingBlock: UVAHIK_clean_linker_0, # of connection points: 2
#     Edge 41, Type (0, 0), BuildingBlock: UVAHIK_clean_linker_0, # of connection points: 2
#     Edge 42, Type (0, 0), BuildingBlock: UVAHIK_clean_linker_0, # of connection points: 2
#     Edge 43, Type (0, 0), BuildingBlock: UVAHIK_clean_linker_0, # of connection points: 2
#     Edge 44, Type (0, 0), BuildingBlock: UVAHIK_clean_linker_0, # of connection points: 2
#     Edge 45, Type (0, 0), BuildingBlock: UVAHIK_clean_linker_0, # of connection points: 2
#     Edge 46, Type (0, 0), BuildingBlock: UVAHIK_clean_linker_0, # of connection points: 2
#     Edge 47, Type (0, 0), BuildingBlock: UVAHIK_clean_linker_0, # of connection points: 2
#     Edge 48, Type (0, 0), BuildingBlock: UVAHIK_clean_linker_0, # of connection points: 2
#     Edge 49, Type (0, 0), BuildingBlock: UVAHIK_clean_linker_0, # of connection points: 2
#     Edge 50, Type (0, 0), BuildingBlock: UVAHIK_clean_linker_0, # of connection points: 2
#     Edge 51, Type (0, 0), BuildingBlock: UVAHIK_clean_linker_0, # of connection points: 2
#     Edge 52, Type (0, 0), BuildingBlock: UVAHIK_clean_linker_0, # of connection points: 2
#     Edge 53, Type (0, 0), BuildingBlock: UVAHIK_clean_linker_0, # of connection points: 2
#     Edge 54, Type (0, 0), BuildingBlock: UVAHIK_clean_linker_0, # of connection points: 2
#     Edge 55, Type (0, 0), BuildingBlock: UVAHIK_clean_linker_0, # of connection points: 2
#     Edge 56, Type (0, 0), BuildingBlock: UVAHIK_clean_linker_0, # of connection points: 2
#     Edge 57, Type (0, 0), BuildingBlock: UVAHIK_clean_linker_0, # of connection points: 2
#     Edge 58, Type (0, 0), BuildingBlock: UVAHIK_clean_linker_0, # of connection points: 2
#     Edge 59, Type (0, 0), BuildingBlock: UVAHIK_clean_linker_0, # of connection points: 2
#     Edge 60, Type (0, 0), BuildingBlock: UVAHIK_clean_linker_0, # of connection points: 2
#     Edge 61, Type (0, 0), BuildingBlock: UVAHIK_clean_linker_0, # of connection points: 2
#     Edge 62, Type (0, 0), BuildingBlock: UVAHIK_clean_linker_0, # of connection points: 2
#     Edge 63, Type (0, 0), BuildingBlock: UVAHIK_clean_linker_0, # of connection points: 2
#     Edge 64, Type (0, 0), BuildingBlock: UVAHIK_clean_linker_0, # of connection points: 2
#     Edge 65, Type (0, 0), BuildingBlock: UVAHIK_clean_linker_0, # of connection points: 2
#     Edge 66, Type (0, 0), BuildingBlock: UVAHIK_clean_linker_0, # of connection points: 2
#     Edge 67, Type (0, 0), BuildingBlock: UVAHIK_clean_linker_0, # of connection points: 2
#     Edge 68, Type (0, 0), BuildingBlock: UVAHIK_clean_linker_0, # of connection points: 2
#     Edge 69, Type (0, 0), BuildingBlock: UVAHIK_clean_linker_0, # of connection points: 2
#     Edge 70, Type (0, 0), BuildingBlock: UVAHIK_clean_linker_0, # of connection points: 2
#     Edge 71, Type (0, 0), BuildingBlock: UVAHIK_clean_linker_0, # of connection points: 2
#     Edge 72, Type (0, 0), BuildingBlock: UVAHIK_clean_linker_0, # of connection points: 2
#     Edge 73, Type (0, 0), BuildingBlock: UVAHIK_clean_linker_0, # of connection points: 2
#     Edge 74, Type (0, 0), BuildingBlock: UVAHIK_clean_linker_0, # of connection points: 2
#     Edge 75, Type (0, 0), BuildingBlock: UVAHIK_clean_linker_0, # of connection points: 2
#     Edge 76, Type (0, 0), BuildingBlock: UVAHIK_clean_linker_0, # of connection points: 2
#     Edge 77, Type (0, 0), BuildingBlock: UVAHIK_clean_linker_0, # of connection points: 2
#     Edge 78, Type (0, 0), BuildingBlock: UVAHIK_clean_linker_0, # of connection points: 2
#     Edge 79, Type (0, 0), BuildingBlock: UVAHIK_clean_linker_0, # of connection points: 2
#     Edge 80, Type (0, 0), BuildingBlock: UVAHIK_clean_linker_0, # of connection points: 2
#     Edge 81, Type (0, 0), BuildingBlock: UVAHIK_clean_linker_0, # of connection points: 2
#     Edge 82, Type (0, 0), BuildingBlock: UVAHIK_clean_linker_0, # of connection points: 2
#     Edge 83, Type (0, 0), BuildingBlock: UVAHIK_clean_linker_0, # of connection points: 2
#     Edge 84, Type (0, 0), BuildingBlock: UVAHIK_clean_linker_0, # of connection points: 2
#     Edge 85, Type (0, 0), BuildingBlock: UVAHIK_clean_linker_0, # of connection points: 2
#     Edge 86, Type (0, 0), BuildingBlock: UVAHIK_clean_linker_0, # of connection points: 2
#     Edge 87, Type (0, 0), BuildingBlock: UVAHIK_clean_linker_0, # of connection points: 2
#     Edge 88, Type (0, 0), BuildingBlock: UVAHIK_clean_linker_0, # of connection points: 2
#     Edge 89, Type (0, 0), BuildingBlock: UVAHIK_clean_linker_0, # of connection points: 2
#     Edge 90, Type (0, 0), BuildingBlock: UVAHIK_clean_linker_0, # of connection points: 2
#     Edge 91, Type (0, 0), BuildingBlock: UVAHIK_clean_linker_0, # of connection points: 2
#     Edge 92, Type (0, 0), BuildingBlock: UVAHIK_clean_linker_0, # of connection points: 2
#     Edge 93, Type (0, 0), BuildingBlock: UVAHIK_clean_linker_0, # of connection points: 2
#     Edge 94, Type (0, 0), BuildingBlock: UVAHIK_clean_linker_0, # of connection points: 2
#     Edge 95, Type (0, 0), BuildingBlock: UVAHIK_clean_linker_0, # of connection points: 2
# Relax obj value: 0.447
# Max RMSD: 0.186
# Mean RMSD: 0.186
data_MOF--net-sxf--node1-OJICUG_clean_sbu_0--edge1-UVAHIK_clean_linker_0
_symmetry_space_group_name_H-M    P1
_symmetry_Int_Tables_number       1
_symmetry_cell_setting            triclinic
loop_
_symmetry_equiv_pos_as_xyz
'x, y, z'
_cell_length_a     58.23183
_cell_length_b     58.273206
_cell_length_c     58.274069
_cell_angle_alpha  90.06449
_cell_angle_beta   89.99533
_cell_angle_gamma 89.957679
loop_
_atom_site_label
_atom_site_type_symbol
_atom_site_fract_x
_atom_site_fract_y
_atom_site_fract_z
_atom_type_partial_charge
Sc0 Sc 0.04489 0.40119 0.1761 0.0
Sc1 Sc 0.07869 0.3599 0.20412 0.0
Sc2 Sc 0.05849 0.40895 0.23413 0.0
O3 O 0.06084 0.39007 0.20478 0.0
C4 C 0.06898 0.4464 0.19584 0.0
C5 C 0.09169 0.38021 0.15564 0.0
C6 C 0.10957 0.38959 0.23782 0.0
C7 C 0.03401 0.34811 0.17415 0.0
C8 C 0.00879 0.41805 0.21367 0.0
C9 C 0.04902 0.35759 0.25034 0.0
O10 O 0.06047 0.43432 0.17973 0.0
O11 O 0.09725 0.36869 0.1733 0.0
O12 O 0.09329 0.40282 0.24346 0.0
O13 O 0.02847 0.3689 0.17075 0.0
O14 O 0.02315 0.41812 0.22994 0.0
O15 O 0.06102 0.34833 0.23455 0.0
O16 O 0.01408 0.41205 0.19343 0.0
O17 O 0.05232 0.34221 0.18455 0.0
O18 O 0.04682 0.37924 0.25258 0.0
O19 O 0.07312 0.3916 0.1543 0.0
O20 O 0.06949 0.44001 0.21677 0.0
O21 O 0.10751 0.3736 0.22318 0.0
Sc22 Sc 0.44114 0.58537 0.74049 0.0
Sc23 Sc 0.42037 0.63109 0.70613 0.0
Sc24 Sc 0.45477 0.58753 0.68204 0.0
O25 O 0.43863 0.6013 0.70952 0.0
C26 C 0.49151 0.57655 0.7208 0.0
C27 C 0.44845 0.63799 0.75293 0.0
C28 C 0.46451 0.64086 0.67538 0.0
C29 C 0.38944 0.6036 0.74139 0.0
C30 C 0.43314 0.54338 0.70665 0.0
C31 C 0.40765 0.60526 0.65974 0.0
O32 O 0.47697 0.57653 0.73702 0.0
O33 O 0.43654 0.64562 0.73625 0.0
O34 O 0.46941 0.61981 0.67264 0.0
O35 O 0.40603 0.59174 0.74894 0.0
O36 O 0.44204 0.55365 0.68953 0.0
O37 O 0.40302 0.61974 0.67542 0.0
O38 O 0.43067 0.55271 0.72627 0.0
O39 O 0.39141 0.61792 0.72512 0.0
O40 O 0.42559 0.5928 0.66002 0.0
O41 O 0.45179 0.61671 0.75649 0.0
O42 O 0.48607 0.58099 0.70022 0.0
O43 O 0.44692 0.64781 0.68629 0.0
Sc44 Sc 0.56562 0.08748 0.76335 0.0
Sc45 Sc 0.58884 0.13808 0.78862 0.0
Sc46 Sc 0.56221 0.09586 0.82264 0.0
O47 O 0.57232 0.10715 0.7915 0.0
C48 C 0.52001 0.07914 0.79215 0.0
C49 C 0.55352 0.13798 0.74641 0.0
C50 C 0.5493 0.14887 0.82483 0.0
C51 C 0.61549 0.10736 0.75224 0.0
C52 C 0.58244 0.05039 0.79964 0.0
C53 C 0.61114 0.11795 0.83413 0.0
O54 O 0.53125 0.07865 0.77352 0.0
O55 O 0.56713 0.14816 0.76017 0.0
O56 O 0.5467 0.12809 0.83071 0.0
O57 O 0.59877 0.09379 0.74919 0.0
O58 O 0.57683 0.06261 0.81683 0.0
O59 O 0.61195 0.13146 0.81703 0.0
O60 O 0.57933 0.05665 0.77894 0.0
O61 O 0.61519 0.12388 0.7665 0.0
O62 O 0.59421 0.10488 0.8381 0.0
O63 O 0.55124 0.1163 0.74574 0.0
O64 O 0.5289 0.08519 0.81107 0.0
O65 O 0.56431 0.15559 0.81048 0.0
Sc66 Sc 0.93851 0.89558 0.32313 0.0
Sc67 Sc 0.91201 0.85418 0.288 0.0
Sc68 Sc 0.93787 0.90374 0.26372 0.0
O69 O 0.92937 0.88451 0.29162 0.0
C70 C 0.92031 0.94145 0.29894 0.0
C71 C 0.8887 0.87468 0.33286 0.0
C72 C 0.888 0.88517 0.25037 0.0
C73 C 0.94943 0.84204 0.32592 0.0
C74 C 0.98213 0.91187 0.29469 0.0
C75 C 0.94975 0.85293 0.24795 0.0
O76 O 0.92557 0.92939 0.31636 0.0
O77 O 0.88845 0.86106 0.31583 0.0
O78 O 0.9057 0.89744 0.24736 0.0
O79 O 0.95233 0.86273 0.33213 0.0
O80 O 0.97145 0.91307 0.27579 0.0
O81 O 0.93425 0.84356 0.2602 0.0
O82 O 0.97272 0.90499 0.31306 0.0
O83 O 0.93518 0.83589 0.31057 0.0
O84 O 0.95332 0.87446 0.24771 0.0
O85 O 0.9055 0.88781 0.33732 0.0
O86 O 0.92334 0.93472 0.27835 0.0
O87 O 0.88677 0.86947 0.26543 0.0
Sc88 Sc 0.18092 0.06396 0.41117 0.0
Sc89 Sc 0.21035 0.08428 0.36273 0.0
Sc90 Sc 0.24105 0.0627 0.41103 0.0
O91 O 0.21082 0.07038 0.39497 0.0
C92 C 0.21165 0.08412 0.45172 0.0
C93 C 0.16883 0.11111 0.38636 0.0
C94 C 0.25111 0.11109 0.38724 0.0
C95 C 0.17071 0.04695 0.36006 0.0
C96 C 0.21045 0.02014 0.42556 0.0
C97 C 0.25066 0.04691 0.35965 0.0
O98 O 0.19252 0.0797 0.44226 0.0
O99 O 0.18345 0.10881 0.37033 0.0
O100 O 0.25585 0.09471 0.40081 0.0
O101 O 0.16698 0.0475 0.38153 0.0
O102 O 0.22992 0.02958 0.42314 0.0
O103 O 0.23665 0.06103 0.35063 0.0
O104 O 0.19165 0.03047 0.42179 0.0
O105 O 0.18566 0.0594 0.35014 0.0
O106 O 0.25381 0.04549 0.38116 0.0
O107 O 0.16646 0.09652 0.40231 0.0
O108 O 0.23096 0.07887 0.44297 0.0
O109 O 0.23464 0.1105 0.37289 0.0
Sc110 Sc 0.31248 0.95307 0.9178 0.0
Sc111 Sc 0.29264 0.92184 0.87017 0.0
Sc112 Sc 0.25399 0.94198 0.91227 0.0
O113 O 0.28644 0.93887 0.90004 0.0
C114 C 0.28092 0.93163 0.95759 0.0
C115 C 0.33424 0.90548 0.90211 0.0
C116 C 0.25349 0.89133 0.89166 0.0
C117 C 0.3272 0.96356 0.86591 0.0
C118 C 0.27478 0.99102 0.9249 0.0
C119 C 0.24836 0.95286 0.85949 0.0
O120 O 0.29868 0.9421 0.95035 0.0
O121 O 0.32216 0.90388 0.88395 0.0
O122 O 0.24416 0.9083 0.9016 0.0
O123 O 0.32894 0.96603 0.88751 0.0
O124 O 0.25856 0.97649 0.92488 0.0
O125 O 0.26418 0.93904 0.85321 0.0
O126 O 0.29542 0.98563 0.92038 0.0
O127 O 0.31413 0.94873 0.8567 0.0
O128 O 0.24318 0.95639 0.8804 0.0
O129 O 0.33194 0.92172 0.91655 0.0
O130 O 0.2634 0.92778 0.94514 0.0
O131 O 0.27239 0.89275 0.88093 0.0
Sc132 Sc 0.67573 0.45109 0.59349 0.0
Sc133 Sc 0.70782 0.41937 0.63354 0.0
Sc134 Sc 0.73438 0.44352 0.58474 0.0
O135 O 0.70597 0.4379 0.60402 0.0
C136 C 0.69828 0.43479 0.54591 0.0
C137 C 0.66173 0.40105 0.60981 0.0
C138 C 0.74305 0.39243 0.60213 0.0
C139 C 0.6712 0.4568 0.64788 0.0
C140 C 0.70861 0.49186 0.58101 0.0
C141 C 0.75169 0.45242 0.6356 0.0
O142 O 0.68248 0.44367 0.55807 0.0
O143 O 0.67737 0.39974 0.62508 0.0
O144 O 0.74792 0.40999 0.59032 0.0
O145 O 0.66456 0.45997 0.6274 0.0
O146 O 0.72499 0.47819 0.57652 0.0
O147 O 0.738 0.43801 0.64477 0.0
O148 O 0.68977 0.48517 0.58981 0.0
O149 O 0.68793 0.44385 0.65311 0.0
O150 O 0.75196 0.45664 0.61419 0.0
O151 O 0.65965 0.41805 0.59625 0.0
O152 O 0.71833 0.43091 0.55367 0.0
O153 O 0.72763 0.39228 0.61753 0.0
Sc154 Sc 0.76097 0.55712 0.09504 0.0
Sc155 Sc 0.79317 0.58069 0.14098 0.0
Sc156 Sc 0.819 0.54385 0.1008 0.0
O157 O 0.79107 0.56069 0.11231 0.0
C158 C 0.78146 0.50644 0.091 0.0
C159 C 0.74642 0.55244 0.14722 0.0
C160 C 0.8247 0.53854 0.15501 0.0
C161 C 0.75869 0.60957 0.1106 0.0
C162 C 0.79556 0.56137 0.0541 0.0
C163 C 0.83969 0.59267 0.11458 0.0
O164 O 0.76602 0.52128 0.08692 0.0
O165 O 0.76209 0.56573 0.15476 0.0
O166 O 0.82928 0.53345 0.13435 0.0
O167 O 0.75115 0.59206 0.10014 0.0
O168 O 0.81144 0.55173 0.06559 0.0
O169 O 0.82467 0.59685 0.12991 0.0
O170 O 0.77628 0.56697 0.06274 0.0
O171 O 0.77518 0.60884 0.12482 0.0
O172 O 0.83945 0.57458 0.1023 0.0
O173 O 0.74424 0.54707 0.12615 0.0
O174 O 0.80122 0.51168 0.09851 0.0
O175 O 0.81172 0.55516 0.16057 0.0
Sc176 Sc 0.40734 0.23052 0.05277 0.0
Sc177 Sc 0.35725 0.2052 0.07651 0.0
Sc178 Sc 0.395 0.17299 0.04189 0.0
O179 O 0.38651 0.20289 0.05719 0.0
C180 C 0.41085 0.20746 0.00324 0.0
C181 C 0.3571 0.25066 0.04557 0.0
C182 C 0.34073 0.17368 0.03498 0.0
C183 C 0.39079 0.23758 0.10448 0.0
C184 C 0.44356 0.19096 0.06087 0.0
C185 C 0.37734 0.15666 0.09134 0.0
O186 O 0.41496 0.22349 0.01737 0.0
O187 O 0.34725 0.23631 0.05884 0.0
O188 O 0.36089 0.16733 0.0297 0.0
O189 O 0.40313 0.24203 0.08719 0.0
O190 O 0.43028 0.17586 0.05233 0.0
O191 O 0.36466 0.17404 0.09524 0.0
O192 O 0.43756 0.21182 0.06358 0.0
O193 O 0.37413 0.22357 0.10404 0.0
O194 O 0.38888 0.15422 0.07296 0.0
O195 O 0.37859 0.25051 0.04155 0.0
O196 O 0.40204 0.18849 0.0092 0.0
O197 O 0.33642 0.18688 0.05181 0.0
Sc198 Sc 0.91215 0.31962 0.9477 0.0
Sc199 Sc 0.86537 0.29514 0.91863 0.0
Sc200 Sc 0.91112 0.26042 0.9384 0.0
O201 O 0.89616 0.29172 0.93488 0.0
C202 C 0.95458 0.2907 0.92786 0.0
C203 C 0.89364 0.33855 0.90019 0.0
C204 C 0.89079 0.25819 0.88773 0.0
C205 C 0.85945 0.33067 0.95921 0.0
C206 C 0.92142 0.28361 0.98707 0.0
C207 C 0.85875 0.24975 0.94886 0.0
O208 O 0.94566 0.30836 0.93706 0.0
O209 O 0.87619 0.32538 0.89994 0.0
O210 O 0.90243 0.25017 0.90426 0.0
O211 O 0.88091 0.33438 0.96024 0.0
O212 O 0.9219 0.2667 0.97328 0.0
O213 O 0.85095 0.26561 0.93601 0.0
O214 O 0.91643 0.30389 0.98077 0.0
O215 O 0.8507 0.31574 0.94589 0.0
O216 O 0.88008 0.24631 0.95194 0.0
O217 O 0.90902 0.33758 0.91567 0.0
O218 O 0.9437 0.27201 0.92505 0.0
O219 O 0.87748 0.27538 0.88958 0.0
Sc220 Sc 0.58914 0.67725 0.44427 0.0
Sc221 Sc 0.63212 0.7058 0.41315 0.0
Sc222 Sc 0.58487 0.73634 0.43655 0.0
O223 O 0.60204 0.70645 0.43112 0.0
C224 C 0.54371 0.70301 0.42661 0.0
C225 C 0.60623 0.66085 0.39506 0.0
C226 C 0.60349 0.7426 0.38539 0.0
C227 C 0.6428 0.67078 0.4533 0.0
C228 C 0.57847 0.71142 0.48473 0.0
C229 C 0.63679 0.74971 0.44602 0.0
O230 O 0.55448 0.68599 0.43503 0.0
O231 O 0.62226 0.67565 0.39356 0.0
O232 O 0.59198 0.74874 0.40282 0.0
O233 O 0.62184 0.6655 0.45582 0.0
O234 O 0.57528 0.7284 0.47148 0.0
O235 O 0.64514 0.73539 0.43169 0.0
O236 O 0.58525 0.69197 0.47768 0.0
O237 O 0.64969 0.68535 0.43865 0.0
O238 O 0.6154 0.75162 0.44992 0.0
O239 O 0.59242 0.65997 0.41195 0.0
O240 O 0.55286 0.72262 0.42374 0.0
O241 O 0.61774 0.72609 0.3856 0.0
Sc242 Sc 0.08541 0.75028 0.55875 0.0
Sc243 Sc 0.13023 0.78678 0.57785 0.0
Sc244 Sc 0.08389 0.80855 0.54622 0.0
O245 O 0.09993 0.78188 0.56104 0.0
C246 C 0.0754 0.77082 0.50895 0.0
C247 C 0.13805 0.74095 0.54819 0.0
C248 C 0.13659 0.82042 0.53599 0.0
C249 C 0.10584 0.75012 0.6095 0.0
C250 C 0.04159 0.78019 0.56723 0.0
C251 C 0.10003 0.82985 0.59366 0.0
O252 O 0.07355 0.75489 0.52372 0.0
O253 O 0.14545 0.75705 0.56111 0.0
O254 O 0.11512 0.82321 0.5336 0.0
O255 O 0.09476 0.74101 0.59313 0.0
O256 O 0.05025 0.79701 0.55638 0.0
O257 O 0.11792 0.81733 0.59531 0.0
O258 O 0.05288 0.76215 0.57211 0.0
O259 O 0.11828 0.7678 0.60717 0.0
O260 O 0.08551 0.82793 0.57746 0.0
O261 O 0.11679 0.73685 0.54522 0.0
O262 O 0.08143 0.79109 0.51406 0.0
O263 O 0.14526 0.8071 0.55086 0.0
Sc264 Sc 0.95025 0.59055 0.81868 0.0
Sc265 Sc 0.91622 0.63463 0.7958 0.0
Sc266 Sc 0.93831 0.59047 0.76019 0.0
O267 O 0.93477 0.60527 0.79156 0.0
C268 C 0.98836 0.5835 0.78139 0.0
C269 C 0.95727 0.64373 0.83026 0.0
C270 C 0.94566 0.64338 0.75023 0.0
C271 C 0.90165 0.60439 0.83923 0.0
C272 C 0.93225 0.54669 0.79061 0.0
C273 C 0.88665 0.60857 0.75843 0.0
O274 O 0.98283 0.58952 0.80158 0.0
O275 O 0.94232 0.65126 0.8163 0.0
O276 O 0.94989 0.62235 0.74617 0.0
O277 O 0.91881 0.59092 0.83781 0.0
O278 O 0.92686 0.55736 0.77236 0.0
O279 O 0.88768 0.62145 0.77598 0.0
O280 O 0.94221 0.55631 0.80747 0.0
O281 O 0.89892 0.62166 0.82608 0.0
O282 O 0.90378 0.59781 0.75043 0.0
O283 O 0.96074 0.62248 0.83335 0.0
O284 O 0.97379 0.58082 0.76539 0.0
O285 O 0.93271 0.65032 0.76645 0.0
Sc286 Sc 0.55407 0.41085 0.25343 0.0
Sc287 Sc 0.57517 0.365 0.28743 0.0
Sc288 Sc 0.53999 0.40787 0.31162 0.0
O289 O 0.55651 0.39458 0.2842 0.0
C290 C 0.56098 0.45263 0.2875 0.0
C291 C 0.60606 0.3934 0.25308 0.0
C292 C 0.58718 0.39081 0.33411 0.0
C293 C 0.5476 0.35839 0.24027 0.0
C294 C 0.50345 0.41879 0.27282 0.0
C295 C 0.53105 0.35422 0.31764 0.0
O296 O 0.56438 0.44341 0.26797 0.0
O297 O 0.6043 0.37924 0.2695 0.0
O298 O 0.5694 0.40347 0.33349 0.0
O299 O 0.54355 0.37962 0.23721 0.0
O300 O 0.50859 0.41352 0.29329 0.0
O301 O 0.54845 0.3475 0.30631 0.0
O302 O 0.51825 0.41971 0.25687 0.0
O303 O 0.55996 0.35079 0.25664 0.0
O304 O 0.52626 0.37521 0.32101 0.0
O305 O 0.5892 0.40461 0.24512 0.0
O306 O 0.55169 0.4421 0.30424 0.0
O307 O 0.59166 0.37595 0.31876 0.0
Sc308 Sc 0.43217 0.90759 0.23071 0.0
Sc309 Sc 0.40862 0.85833 0.20368 0.0
Sc310 Sc 0.43594 0.90119 0.1713 0.0
O311 O 0.42545 0.88903 0.20192 0.0
C312 C 0.41863 0.94707 0.19638 0.0
C313 C 0.38191 0.88795 0.24066 0.0
C314 C 0.38655 0.88145 0.15908 0.0
C315 C 0.44342 0.85668 0.24628 0.0
C316 C 0.47844 0.91453 0.20215 0.0
C317 C 0.447 0.84767 0.16666 0.0
O318 O 0.41804 0.93877 0.21654 0.0
O319 O 0.38188 0.87271 0.22505 0.0
O320 O 0.40269 0.89589 0.15653 0.0
O321 O 0.44684 0.8782 0.24695 0.0
O322 O 0.47008 0.90737 0.18337 0.0
O323 O 0.43363 0.8409 0.18248 0.0
O324 O 0.46649 0.91723 0.2202 0.0
O325 O 0.42906 0.84725 0.23274 0.0
O326 O 0.44823 0.86843 0.16026 0.0
O327 O 0.39915 0.90048 0.24517 0.0
O328 O 0.42571 0.93578 0.17909 0.0
O329 O 0.38681 0.86592 0.17445 0.0
Sc330 Sc 0.04432 0.09805 0.67326 0.0
Sc331 Sc 0.07971 0.13487 0.70544 0.0
Sc332 Sc 0.0528 0.08676 0.73162 0.0
O333 O 0.059 0.10655 0.70345 0.0
C334 C 0.00377 0.08592 0.70815 0.0
C335 C 0.03879 0.15226 0.6733 0.0
C336 C 0.04906 0.13799 0.75076 0.0
C337 C 0.09436 0.11455 0.65712 0.0
C338 C 0.05981 0.04917 0.69234 0.0
C339 C 0.10604 0.09836 0.73654 0.0
O340 O 0.01146 0.09095 0.68841 0.0
O341 O 0.05635 0.15625 0.6857 0.0
O342 O 0.0451 0.11657 0.75223 0.0
O343 O 0.0753 0.10432 0.65421 0.0
O344 O 0.05947 0.05502 0.7134 0.0
O345 O 0.10587 0.11683 0.72494 0.0
O346 O 0.05488 0.06295 0.67618 0.0
O347 O 0.09899 0.12596 0.67513 0.0
O348 O 0.08818 0.08663 0.74052 0.0
O349 O 0.03233 0.13218 0.66794 0.0
O350 O 0.01654 0.08367 0.72562 0.0
O351 O 0.06168 0.1468 0.73531 0.0
Sc352 Sc 0.76009 0.9317 0.58247 0.0
Sc353 Sc 0.7907 0.91046 0.63081 0.0
Sc354 Sc 0.82002 0.93543 0.58427 0.0
O355 O 0.79026 0.92577 0.59919 0.0
C356 C 0.7924 0.91401 0.54204 0.0
C357 C 0.75248 0.882 0.60437 0.0
C358 C 0.83489 0.88805 0.60749 0.0
C359 C 0.74768 0.94472 0.63395 0.0
C360 C 0.78756 0.97714 0.57003 0.0
C361 C 0.82685 0.95089 0.63639 0.0
O362 O 0.77259 0.91731 0.55067 0.0
O363 O 0.76846 0.88308 0.61919 0.0
O364 O 0.83689 0.90391 0.59274 0.0
O365 O 0.74513 0.94668 0.6124 0.0
O366 O 0.80704 0.96828 0.57402 0.0
O367 O 0.81314 0.93633 0.64512 0.0
O368 O 0.76894 0.966 0.57182 0.0
O369 O 0.7625 0.93146 0.64302 0.0
O370 O 0.83115 0.95211 0.61505 0.0
O371 O 0.74724 0.89844 0.59109 0.0
O372 O 0.8109 0.91982 0.55211 0.0
O373 O 0.81932 0.88806 0.62278 0.0
Sc374 Sc 0.68583 0.04086 0.0777 0.0
Sc375 Sc 0.7063 0.07362 0.12421 0.0
Sc376 Sc 0.74426 0.05433 0.08066 0.0
O377 O 0.71209 0.05637 0.0942 0.0
C378 C 0.72532 0.0043 0.06931 0.0
C379 C 0.67449 0.0296 0.13008 0.0
C380 C 0.75273 0.04551 0.1337 0.0
C381 C 0.662 0.08719 0.09503 0.0
C382 C 0.71417 0.06362 0.03641 0.0
C383 C 0.74326 0.10551 0.10024 0.0
O384 O 0.70447 0.00961 0.0726 0.0
O385 O 0.68558 0.04636 0.1386 0.0
O386 O 0.75773 0.04257 0.11267 0.0
O387 O 0.66374 0.07016 0.08149 0.0
O388 O 0.73281 0.06616 0.0475 0.0
O389 O 0.72572 0.10322 0.11298 0.0
O390 O 0.69642 0.05404 0.0448 0.0
O391 O 0.67607 0.09085 0.11133 0.0
O392 O 0.75206 0.08912 0.08896 0.0
O393 O 0.67308 0.02585 0.10866 0.0
O394 O 0.74149 0.01885 0.07028 0.0
O395 O 0.73559 0.05735 0.14046 0.0
Sc396 Sc 0.32055 0.54251 0.39931 0.0
Sc397 Sc 0.2899 0.57645 0.35987 0.0
Sc398 Sc 0.26217 0.55288 0.40866 0.0
O399 O 0.29089 0.55739 0.38928 0.0
C400 C 0.28548 0.50362 0.41392 0.0
C401 C 0.3226 0.53492 0.34523 0.0
C402 C 0.24502 0.54472 0.35741 0.0
C403 C 0.33737 0.5919 0.38183 0.0
C404 C 0.3001 0.56228 0.44652 0.0
C405 C 0.25569 0.60451 0.39178 0.0
O406 O 0.30502 0.50983 0.40656 0.0
O407 O 0.30969 0.5518 0.34023 0.0
O408 O 0.24384 0.54109 0.37893 0.0
O409 O 0.33957 0.57354 0.3934 0.0
O410 O 0.27934 0.56409 0.43976 0.0
O411 O 0.27045 0.60387 0.37576 0.0
O412 O 0.31595 0.55392 0.434 0.0
O413 O 0.32037 0.59566 0.36865 0.0
O414 O 0.25055 0.58726 0.40391 0.0
O415 O 0.32776 0.52962 0.36571 0.0
O416 O 0.26898 0.51756 0.41656 0.0
O417 O 0.25964 0.55825 0.34835 0.0
Sc418 Sc 0.17241 0.44687 0.89677 0.0
Sc419 Sc 0.20492 0.41625 0.85601 0.0
Sc420 Sc 0.23135 0.44041 0.90536 0.0
O421 O 0.20288 0.43437 0.88604 0.0
C422 C 0.20478 0.48768 0.91207 0.0
C423 C 0.17026 0.45636 0.84299 0.0
C424 C 0.24784 0.4507 0.85447 0.0
C425 C 0.15849 0.39728 0.87764 0.0
C426 C 0.19465 0.42703 0.9431 0.0
C427 C 0.24097 0.38977 0.88673 0.0
O428 O 0.1858 0.48031 0.90442 0.0
O429 O 0.18431 0.44072 0.83718 0.0
O430 O 0.24845 0.45439 0.876 0.0
O431 O 0.15552 0.41486 0.89021 0.0
O432 O 0.21538 0.42691 0.93605 0.0
O433 O 0.22562 0.3895 0.87127 0.0
O434 O 0.17806 0.43478 0.93116 0.0
O435 O 0.1753 0.39521 0.86384 0.0
O436 O 0.2453 0.40718 0.899 0.0
O437 O 0.16435 0.46023 0.86358 0.0
O438 O 0.22218 0.4749 0.9148 0.0
O439 O 0.23438 0.43616 0.84516 0.0
Sc440 Sc 0.58885 0.75999 0.94595 0.0
Sc441 Sc 0.63687 0.78835 0.92144 0.0
Sc442 Sc 0.5983 0.8181 0.95729 0.0
O443 O 0.60799 0.78883 0.94143 0.0
C444 C 0.55075 0.79813 0.93798 0.0
C445 C 0.6045 0.75446 0.89377 0.0
C446 C 0.61486 0.83627 0.908 0.0
C447 C 0.64043 0.74294 0.9522 0.0
C448 C 0.58418 0.78219 0.99572 0.0
C449 C 0.65251 0.81998 0.9635 0.0
O450 O 0.55727 0.77729 0.93625 0.0
O451 O 0.62051 0.76921 0.8941 0.0
O452 O 0.6041 0.83801 0.9269 0.0
O453 O 0.619 0.74156 0.95635 0.0
O454 O 0.59103 0.80196 0.98969 0.0
O455 O 0.65696 0.80787 0.94588 0.0
O456 O 0.58188 0.76584 0.98158 0.0
O457 O 0.64909 0.7579 0.9388 0.0
O458 O 0.63219 0.82463 0.96991 0.0
O459 O 0.59273 0.74925 0.91126 0.0
O460 O 0.56352 0.81398 0.94591 0.0
O461 O 0.62751 0.81915 0.90305 0.0
Sc462 Sc 0.09076 0.68606 0.04086 0.0
Sc463 Sc 0.13337 0.70862 0.0771 0.0
Sc464 Sc 0.08659 0.74296 0.05851 0.0
O465 O 0.1036 0.7125 0.059 0.0
C466 C 0.07959 0.7263 0.00688 0.0
C467 C 0.14449 0.67974 0.03228 0.0
C468 C 0.1388 0.75681 0.05118 0.0
C469 C 0.10672 0.66195 0.08741 0.0
C470 C 0.04542 0.70853 0.06291 0.0
C471 C 0.10544 0.74168 0.10992 0.0
O472 O 0.08698 0.70614 0.0103 0.0
O473 O 0.1512 0.69107 0.04965 0.0
O474 O 0.11742 0.75977 0.04763 0.0
O475 O 0.09378 0.6635 0.06987 0.0
O476 O 0.05464 0.72734 0.06918 0.0
O477 O 0.11943 0.72521 0.10716 0.0
O478 O 0.05613 0.69329 0.05146 0.0
O479 O 0.12242 0.67646 0.09199 0.0
O480 O 0.09385 0.75033 0.0937 0.0
O481 O 0.12352 0.67626 0.02768 0.0
O482 O 0.07632 0.74065 0.02294 0.0
O483 O 0.14688 0.74024 0.06299 0.0
Sc484 Sc 0.40696 0.32068 0.55404 0.0
Sc485 Sc 0.36329 0.29002 0.58229 0.0
Sc486 Sc 0.41185 0.26109 0.55895 0.0
O487 O 0.39404 0.29058 0.56524 0.0
C488 C 0.42009 0.28809 0.51236 0.0
C489 C 0.3537 0.32636 0.54267 0.0
C490 C 0.36023 0.24729 0.54764 0.0
C491 C 0.38704 0.33471 0.60318 0.0
C492 C 0.4517 0.29523 0.57338 0.0
C493 C 0.39205 0.25239 0.60928 0.0
O494 O 0.41463 0.30749 0.52056 0.0
O495 O 0.34657 0.31224 0.55768 0.0
O496 O 0.38181 0.24521 0.54514 0.0
O497 O 0.40041 0.33718 0.58615 0.0
O498 O 0.44366 0.27498 0.57201 0.0
O499 O 0.37664 0.26784 0.60896 0.0
O500 O 0.44063 0.31291 0.56695 0.0
O501 O 0.37216 0.31875 0.60437 0.0
O502 O 0.40499 0.24793 0.59238 0.0
O503 O 0.37477 0.33117 0.53995 0.0
O504 O 0.42108 0.26998 0.52433 0.0
O505 O 0.35108 0.26176 0.5613 0.0
Sc506 Sc 0.91546 0.23876 0.43793 0.0
Sc507 Sc 0.86913 0.20454 0.41809 0.0
Sc508 Sc 0.91531 0.17957 0.44809 0.0
O509 O 0.89993 0.20762 0.43465 0.0
C510 C 0.95744 0.20646 0.42507 0.0
C511 C 0.8942 0.24195 0.38756 0.0
C512 C 0.8955 0.1599 0.40076 0.0
C513 C 0.86313 0.2498 0.44885 0.0
C514 C 0.92755 0.21653 0.48636 0.0
C515 C 0.86269 0.1704 0.4604 0.0
O516 O 0.94784 0.2261 0.42493 0.0
O517 O 0.88029 0.22529 0.38944 0.0
O518 O 0.90925 0.1597 0.41769 0.0
O519 O 0.88452 0.25353 0.45117 0.0
O520 O 0.92315 0.1961 0.48019 0.0
O521 O 0.85459 0.18295 0.44449 0.0
O522 O 0.92635 0.23343 0.47274 0.0
O523 O 0.85505 0.23357 0.43662 0.0
O524 O 0.88411 0.16774 0.46367 0.0
O525 O 0.90688 0.24885 0.40382 0.0
O526 O 0.94799 0.18868 0.43351 0.0
O527 O 0.87979 0.17489 0.39843 0.0
C528 C 0.13342 0.39705 0.27189 0.0
C529 C 0.13197 0.39476 0.248 0.0
C530 C 0.15143 0.40927 0.28177 0.0
C531 C 0.18505 0.4592 0.26748 0.0
H532 H 0.21001 0.44974 0.32841 0.0
C533 C 0.23631 0.52828 0.31854 0.0
C534 C 0.23125 0.52976 0.34213 0.0
C535 C 0.22681 0.51081 0.3051 0.0
C536 C 0.20308 0.45265 0.3114 0.0
H537 H 0.14873 0.40186 0.21566 0.0
H538 H 0.1805 0.42345 0.23298 0.0
H539 H 0.1921 0.41775 0.30816 0.0
H540 H 0.21084 0.51501 0.3696 0.0
H541 H 0.19406 0.48491 0.34608 0.0
H542 H 0.19534 0.49432 0.27108 0.0
C543 C 0.16774 0.41571 0.24406 0.0
C544 C 0.19301 0.4343 0.29976 0.0
C545 C 0.14979 0.40315 0.23418 0.0
C546 C 0.21531 0.5143 0.35157 0.0
C547 C 0.20588 0.49687 0.33815 0.0
C548 C 0.19518 0.47757 0.27913 0.0
C549 C 0.16812 0.41975 0.26787 0.0
C550 C 0.18323 0.43755 0.27798 0.0
C551 C 0.21209 0.49449 0.31498 0.0
C552 C 0.2036 0.47463 0.30151 0.0
H553 H 0.11963 0.39095 0.28279 0.0
H554 H 0.15107 0.41221 0.30013 0.0
H555 H 0.17739 0.46234 0.25084 0.0
H556 H 0.24855 0.53985 0.31068 0.0
H557 H 0.23182 0.50945 0.28725 0.0
C558 C 0.27691 0.48175 0.84929 0.0
C559 C 0.26112 0.46634 0.83953 0.0
C560 C 0.28631 0.4994 0.83623 0.0
C561 C 0.298 0.51892 0.77771 0.0
H562 H 0.3028 0.57813 0.80789 0.0
C563 C 0.34868 0.59193 0.73628 0.0
C564 C 0.36672 0.59838 0.75088 0.0
C565 C 0.32967 0.58023 0.74514 0.0
C566 C 0.30133 0.56177 0.79915 0.0
H567 H 0.24379 0.45675 0.80794 0.0
H568 H 0.26049 0.4876 0.78505 0.0
H569 H 0.28286 0.54669 0.82701 0.0
H570 H 0.37836 0.59986 0.78611 0.0
H571 H 0.34508 0.58011 0.80168 0.0
H572 H 0.31734 0.53376 0.75027 0.0
C573 C 0.26543 0.48598 0.80289 0.0
C574 C 0.29011 0.54374 0.81014 0.0
C575 C 0.25597 0.46825 0.816 0.0
C576 C 0.36454 0.5951 0.77459 0.0
C577 C 0.34545 0.58383 0.78347 0.0
C578 C 0.30924 0.53699 0.76669 0.0
C579 C 0.28017 0.50211 0.81308 0.0
C580 C 0.28911 0.5219 0.79991 0.0
C581 C 0.32839 0.57528 0.76872 0.0
C582 C 0.31175 0.55833 0.7777 0.0
H583 H 0.28145 0.48069 0.86729 0.0
H584 H 0.29816 0.51119 0.84438 0.0
H585 H 0.29748 0.50228 0.76942 0.0
H586 H 0.3502 0.5941 0.71788 0.0
H587 H 0.31666 0.57391 0.73345 0.0
C588 C 0.65532 0.09249 0.75198 0.0
C589 C 0.63658 0.10156 0.73986 0.0
C590 C 0.67108 0.07818 0.74079 0.0
C591 C 0.66676 0.03652 0.69525 0.0
H592 H 0.7326 0.02842 0.70066 0.0
C593 C 0.71562 0.97257 0.63939 0.0
C594 C 0.73417 0.96032 0.64876 0.0
C595 C 0.70473 0.98972 0.65198 0.0
C596 C 0.71415 0.03031 0.69932 0.0
H597 H 0.62084 0.10523 0.70646 0.0
H598 H 0.64875 0.08103 0.68673 0.0
H599 H 0.7141 0.06178 0.71864 0.0
H600 H 0.75534 0.95603 0.67911 0.0
H601 H 0.7359 0.98594 0.70137 0.0
H602 H 0.66646 0.00512 0.67641 0.0
C603 C 0.65108 0.08444 0.70487 0.0
C604 C 0.70365 0.04947 0.70943 0.0
C605 C 0.63529 0.0985 0.71605 0.0
C606 C 0.74102 0.96507 0.67143 0.0
C607 C 0.73009 0.98236 0.68408 0.0
C608 C 0.67715 0.01742 0.68537 0.0
C609 C 0.66816 0.07294 0.71742 0.0
C610 C 0.6799 0.05293 0.70705 0.0
C611 C 0.71203 0.99506 0.67433 0.0
C612 C 0.701 0.01428 0.6869 0.0
H613 H 0.65634 0.09436 0.77046 0.0
H614 H 0.68412 0.06953 0.75084 0.0
H615 H 0.6483 0.03834 0.6938 0.0
H616 H 0.70987 0.96939 0.62199 0.0
H617 H 0.69106 -0.00066 0.64384 0.0
C618 C 0.87 0.89966 0.21494 0.0
C619 C 0.86741 0.89236 0.23772 0.0
C620 C 0.85402 0.9145 0.20521 0.0
C621 C 0.79859 0.94312 0.2086 0.0
H622 H 0.83412 0.99622 0.18975 0.0
C623 C 0.75621 0.0252 0.17146 0.0
C624 C 0.76618 0.03236 0.15068 0.0
C625 C 0.76743 0.00911 0.18534 0.0
C626 C 0.82394 0.98154 0.19488 0.0
H627 H 0.84502 0.89267 0.2674 0.0
H628 H 0.81675 0.91877 0.25015 0.0
H629 H 0.85362 0.96288 0.20557 0.0
H630 H 0.79622 0.02943 0.12887 0.0
H631 H 0.8157 0.00167 0.15294 0.0
H632 H 0.7689 0.96164 0.19709 0.0
C633 C 0.83116 0.91294 0.23992 0.0
C634 C 0.83509 0.96245 0.20387 0.0
C635 C 0.84721 0.89791 0.2497 0.0
C636 C 0.78808 0.02422 0.14475 0.0
C637 C 0.7993 0.00836 0.15863 0.0
C638 C 0.78735 0.96226 0.19934 0.0
C639 C 0.83527 0.92238 0.21814 0.0
C640 C 0.82262 0.94286 0.21022 0.0
C641 C 0.78889 0.00019 0.17878 0.0
C642 C 0.80003 0.98142 0.19184 0.0
H643 H 0.88544 0.89555 0.2054 0.0
H644 H 0.85729 0.92126 0.1882 0.0
H645 H 0.78865 0.92824 0.2136 0.0
H646 H 0.73926 0.03106 0.17639 0.0
H647 H 0.75912 0.00327 0.2009 0.0
C648 C 0.35486 0.2161 0.51884 0.0
C649 C 0.3455 0.23445 0.53142 0.0
C650 C 0.34318 0.20701 0.50008 0.0
C651 C 0.2873 0.20189 0.4718 0.0
H652 H 0.32531 0.18941 0.41849 0.0
C653 C 0.25045 0.15298 0.39525 0.0
C654 C 0.26316 0.13281 0.3916 0.0
C655 C 0.26017 0.17129 0.4074 0.0
C656 C 0.31443 0.193 0.43315 0.0
H657 H 0.31579 0.25669 0.53496 0.0
H658 H 0.29517 0.24046 0.50214 0.0
H659 H 0.34196 0.20848 0.45185 0.0
H660 H 0.29647 0.11677 0.39534 0.0
H661 H 0.31363 0.14877 0.41589 0.0
H662 H 0.26001 0.18553 0.45344 0.0
C663 C 0.31167 0.2333 0.50684 0.0
C664 C 0.32398 0.20375 0.4523 0.0
C665 C 0.32342 0.24247 0.52571 0.0
C666 C 0.2864 0.13221 0.39789 0.0
C667 C 0.29619 0.15058 0.40967 0.0
C668 C 0.27773 0.1911 0.45261 0.0
C669 C 0.32184 0.21601 0.49339 0.0
C670 C 0.31073 0.20753 0.47213 0.0
C671 C 0.28281 0.16975 0.41566 0.0
C672 C 0.29143 0.18583 0.43341 0.0
H673 H 0.37171 0.20934 0.52291 0.0
H674 H 0.35112 0.1932 0.49046 0.0
H675 H 0.27668 0.20462 0.48682 0.0
H676 H 0.2324 0.15372 0.39078 0.0
H677 H 0.24956 0.18598 0.4116 0.0
C678 C 0.25783 0.85204 0.90736 0.0
C679 C 0.24372 0.8688 0.89724 0.0
C680 C 0.24826 0.83567 0.9221 0.0
C681 C 0.20428 0.83867 0.96383 0.0
H682 H 0.20855 0.77293 0.97282 0.0
C683 C 0.14671 0.79112 0.02692 0.0
C684 C 0.15493 0.7715 0.03823 0.0
C685 C 0.16032 0.80243 0.01088 0.0
C686 C 0.20763 0.79137 0.97075 0.0
H687 H 0.20862 0.87963 0.89159 0.0
H688 H 0.19192 0.85084 0.91688 0.0
H689 H 0.22626 0.79049 0.93886 0.0
H690 H 0.18453 0.74924 0.04263 0.0
H691 H 0.20853 0.7694 0.01482 0.0
H692 H 0.18609 0.83994 0.99558 0.0
C693 C 0.21028 0.85058 0.91386 0.0
C694 C 0.21755 0.8013 0.95125 0.0
C695 C 0.2198 0.8669 0.89928 0.0
C696 C 0.17767 0.76434 0.03424 0.0
C697 C 0.19133 0.77569 0.01811 0.0
C698 C 0.19467 0.82887 0.98334 0.0
C699 C 0.22458 0.83597 0.9266 0.0
C700 C 0.21534 0.82494 0.94739 0.0
C701 C 0.18255 0.79448 0.00582 0.0
C702 C 0.19567 0.80505 0.98676 0.0
H703 H 0.27635 0.85332 0.9062 0.0
H704 H 0.25955 0.8245 0.93175 0.0
H705 H 0.20297 0.85707 0.9615 0.0
H706 H 0.12931 0.79714 0.0296 0.0
H707 H 0.15291 0.81672 0.0016 0.0
C708 C 0.85517 0.28426 0.47296 0.0
C709 C 0.84721 0.26396 0.46268 0.0
C710 C 0.84143 0.29626 0.48839 0.0
C711 C 0.79418 0.28863 0.52908 0.0
H712 H 0.79585 0.35514 0.52973 0.0
C713 C 0.74193 0.35214 0.58797 0.0
C714 C 0.75472 0.37114 0.59546 0.0
C715 C 0.75221 0.33552 0.57392 0.0
C716 C 0.79535 0.33655 0.52984 0.0
H717 H 0.81823 0.24068 0.46006 0.0
H718 H 0.79401 0.26198 0.48706 0.0
H719 H 0.81382 0.3344 0.49829 0.0
H720 H 0.78851 0.38654 0.59663 0.0
H721 H 0.80657 0.35732 0.57272 0.0
H722 H 0.7755 0.29111 0.56085 0.0
C723 C 0.81104 0.26837 0.48322 0.0
C724 C 0.80558 0.32469 0.51183 0.0
C725 C 0.82482 0.25635 0.46761 0.0
C726 C 0.77836 0.372 0.59099 0.0
C727 C 0.7886 0.35543 0.57718 0.0
C728 C 0.78371 0.30061 0.54715 0.0
C729 C 0.81935 0.28831 0.49395 0.0
C730 C 0.80568 0.30061 0.51153 0.0
C731 C 0.77532 0.33787 0.56739 0.0
C732 C 0.78483 0.32465 0.54795 0.0
H733 H 0.87231 0.29062 0.46956 0.0
H734 H 0.84846 0.3114 0.49658 0.0
H735 H 0.79407 0.27005 0.52933 0.0
H736 H 0.72359 0.35135 0.59102 0.0
H737 H 0.74167 0.32207 0.56659 0.0
C738 C 0.72499 0.63331 0.10084 0.0
C739 C 0.74883 0.63167 0.10369 0.0
C740 C 0.71557 0.65105 0.08793 0.0
C741 C 0.73087 0.68366 0.03764 0.0
H742 H 0.67004 0.7093 0.0463 0.0
C743 C 0.67963 0.73451 0.96805 0.0
C744 C 0.65612 0.72905 0.96661 0.0
C745 C 0.69329 0.72512 0.98543 0.0
C746 C 0.68703 0.70222 0.04363 0.0
H747 H 0.78152 0.64794 0.09685 0.0
H748 H 0.76498 0.67918 0.07395 0.0
H749 H 0.68995 0.69191 0.07874 0.0
H750 H 0.62908 0.7079 0.98114 0.0
H751 H 0.65294 0.69142 0.0111 0.0
H752 H 0.72757 0.69336 0.00231 0.0
C753 C 0.75361 0.66675 0.08178 0.0
C754 C 0.69847 0.69242 0.06222 0.0
C755 C 0.76304 0.64908 0.09506 0.0
C756 C 0.64703 0.71271 0.98185 0.0
C757 C 0.66063 0.70343 -0.00081 0.0
C758 C 0.71943 0.69356 0.01902 0.0
C759 C 0.72987 0.66732 0.07734 0.0
C760 C 0.72016 0.68231 0.05925 0.0
C761 C 0.68365 0.71017 0.00166 0.0
C762 C 0.69707 0.70217 0.0217 0.0
H763 H 0.71378 0.61993 0.10723 0.0
H764 H 0.69726 0.65085 0.08469 0.0
H765 H 0.74747 0.67577 0.03475 0.0
H766 H 0.68722 0.74705 0.95664 0.0
H767 H 0.71104 0.73047 0.98687 0.0
C768 C 0.40114 0.27224 0.12608 0.0
C769 C 0.39786 0.24842 0.126 0.0
C770 C 0.41589 0.28226 0.14196 0.0
C771 C 0.45082 0.27653 0.19342 0.0
H772 H 0.4962 0.30824 0.15635 0.0
C773 C 0.53143 0.31915 0.23308 0.0
C774 C 0.53502 0.34186 0.22572 0.0
C775 C 0.516 0.3049 0.22143 0.0
C776 C 0.48366 0.29956 0.16697 0.0
H777 H 0.40543 0.21656 0.14349 0.0
H778 H 0.4314 0.23426 0.17162 0.0
H779 H 0.46341 0.29016 0.13792 0.0
H780 H 0.5263 0.36692 0.1996 0.0
H781 H 0.49955 0.34227 0.17947 0.0
H782 H 0.47083 0.28663 0.22261 0.0
C783 C 0.42243 0.24511 0.15948 0.0
C784 C 0.46488 0.28926 0.15644 0.0
C785 C 0.40749 0.23504 0.14355 0.0
C786 C 0.52391 0.34955 0.20577 0.0
C787 C 0.50862 0.33534 0.19414 0.0
C788 C 0.46961 0.2871 0.20407 0.0
C789 C 0.42773 0.26857 0.15783 0.0
C790 C 0.44803 0.27815 0.16958 0.0
C791 C 0.50407 0.31306 0.20214 0.0
C792 C 0.48593 0.29917 0.19094 0.0
H793 H 0.39397 0.28279 0.11255 0.0
H794 H 0.41949 0.30045 0.14062 0.0
H795 H 0.4381 0.26785 0.20382 0.0
H796 H 0.53966 0.31273 0.24846 0.0
H797 H 0.51303 0.28771 0.2278 0.0
C798 C 0.8927 0.22768 0.85812 0.0
C799 C 0.89769 0.25015 0.86498 0.0
C800 C 0.90599 0.217 0.8412 0.0
C801 C 0.95734 0.2265 0.80257 0.0
H802 H 0.96751 0.16233 0.81648 0.0
C803 C 0.02525 0.17312 0.75402 0.0
C804 C 0.0347 0.15362 0.76455 0.0
C805 C 0.00795 0.18564 0.76484 0.0
C806 C 0.96533 0.18036 0.81264 0.0
H807 H 0.91945 0.27959 0.85918 0.0
H808 H 0.94337 0.26096 0.83085 0.0
H809 H 0.93698 0.18267 0.83552 0.0
H810 H 0.03453 0.13266 0.79515 0.0
H811 H 0.00578 0.15568 0.81508 0.0
H812 H 0.98712 0.22475 0.78143 0.0
C813 C 0.92877 0.25153 0.83737 0.0
C814 C 0.94719 0.19199 0.82315 0.0
C815 C 0.91498 0.26238 0.85367 0.0
C816 C 0.0275 0.14765 0.7867 0.0
C817 C 0.01069 0.16067 0.7979 0.0
C818 C 0.97597 0.21507 0.79266 0.0
C819 C 0.92519 0.22829 0.83168 0.0
C820 C 0.94296 0.21531 0.81842 0.0
C821 C 8e-05 0.17942 0.78681 0.0
C822 C 0.98034 0.19182 0.79761 0.0
H823 H 0.87958 0.21788 0.86693 0.0
H824 H 0.90202 0.19943 0.83671 0.0
H825 H 0.95454 0.24427 0.79799 0.0
H826 H 0.03013 0.17784 0.73671 0.0
H827 H 0.00011 0.19955 0.75537 0.0
C828 C 0.46219 0.81887 0.25512 0.0
C829 C 0.45841 0.84208 0.26062 0.0
C830 C 0.4789 0.80617 0.26683 0.0
C831 C 0.51342 0.80636 0.31997 0.0
H832 H 0.55753 0.77048 0.28515 0.0
C833 C 0.59419 0.77753 0.36352 0.0
C834 C 0.59716 0.75366 0.36372 0.0
C835 C 0.5801 0.78773 0.34717 0.0
C836 C 0.54526 0.78039 0.29501 0.0
H837 H 0.46853 0.86985 0.28332 0.0
H838 H 0.49743 0.84787 0.30358 0.0
H839 H 0.52467 0.78814 0.26547 0.0
H840 H 0.58984 0.72192 0.34584 0.0
H841 H 0.56489 0.73985 0.31708 0.0
H842 H 0.53392 0.79901 0.34938 0.0
C843 C 0.48752 0.83937 0.29033 0.0
C844 C 0.5264 0.79033 0.28385 0.0
C845 C 0.47099 0.85203 0.27862 0.0
C846 C 0.58798 0.74042 0.34579 0.0
C847 C 0.57361 0.75065 0.32946 0.0
C848 C 0.53221 0.79663 0.33102 0.0
C849 C 0.49192 0.81642 0.28437 0.0
C850 C 0.51054 0.80376 0.29621 0.0
C851 C 0.56848 0.77418 0.33097 0.0
C852 C 0.54856 0.78394 0.31862 0.0
H853 H 0.45288 0.81075 0.24122 0.0
H854 H 0.48179 0.78844 0.26205 0.0
H855 H 0.50121 0.81615 0.33005 0.0
H856 H 0.60111 0.78802 0.37724 0.0
H857 H 0.57679 0.806 0.34836 0.0
C858 C 0.08566 0.75692 0.64592 0.0
C859 C 0.0996 0.74254 0.63257 0.0
C860 C 0.07235 0.74776 0.66358 0.0
C861 C 0.04649 0.69137 0.67672 0.0
H862 H 0.01566 0.72647 0.72409 0.0
C863 C 0.963 0.65766 0.71407 0.0
C864 C 0.95942 0.66029 0.73768 0.0
C865 C 0.98021 0.67009 0.70306 0.0
C866 C 0.02423 0.71628 0.71112 0.0
H867 H 0.11287 0.70815 0.62853 0.0
H868 H 0.09141 0.6924 0.66082 0.0
H869 H 0.04973 0.7421 0.70576 0.0
H870 H 0.97017 0.67843 0.76829 0.0
H871 H 0.00101 0.69937 0.74939 0.0
H872 H 0.02197 0.66506 0.68282 0.0
C873 C 0.08953 0.71046 0.65694 0.0
C874 C 0.0437 0.72537 0.70039 0.0
C875 C 0.1022 0.71949 0.63873 0.0
C876 C 0.97245 0.67642 0.74993 0.0
C877 C 0.99016 0.68839 0.73907 0.0
C878 C 0.02747 0.6821 0.68778 0.0
C879 C 0.07317 0.7241 0.66848 0.0
C880 C 0.0548 0.71326 0.68263 0.0
C881 C 0.9948 0.68473 0.71564 0.0
C882 C 0.01566 0.69464 0.70468 0.0
H883 H 0.08318 0.77472 0.64114 0.0
H884 H 0.06 0.75892 0.67184 0.0
H885 H 0.05407 0.68152 0.6629 0.0
H886 H 0.95307 0.64531 0.70433 0.0
H887 H 0.98263 0.66749 0.68482 0.0
C888 C 0.84802 0.59098 0.76072 0.0
C889 C 0.86448 0.60304 0.74794 0.0
C890 C 0.83187 0.57718 0.74949 0.0
C891 C 0.83335 0.54251 0.69839 0.0
H892 H 0.76946 0.52813 0.71011 0.0
C893 C 0.78273 0.48144 0.64078 0.0
C894 C 0.76619 0.4669 0.65059 0.0
C895 C 0.79395 0.49781 0.65409 0.0
C896 C 0.78742 0.53176 0.70694 0.0
H897 H 0.87544 0.61265 0.71381 0.0
H898 H 0.8468 0.58928 0.69419 0.0
H899 H 0.78757 0.56045 0.73018 0.0
H900 H 0.74916 0.4576 0.6824 0.0
H901 H 0.76926 0.48604 0.70581 0.0
H902 H 0.83363 0.51381 0.67564 0.0
C903 C 0.84662 0.58996 0.71277 0.0
C904 C 0.79766 0.55034 0.71827 0.0
C905 C 0.86281 0.60351 0.72395 0.0
C906 C 0.76188 0.46846 0.67431 0.0
C907 C 0.77316 0.48493 0.68767 0.0
C908 C 0.82325 0.52395 0.68729 0.0
C909 C 0.83211 0.57547 0.72542 0.0
C910 C 0.82061 0.5561 0.71372 0.0
C911 C 0.78904 0.50003 0.67759 0.0
C912 C 0.80008 0.51856 0.69111 0.0
H913 H 0.84928 0.59016 0.77926 0.0
H914 H 0.82083 0.56619 0.75961 0.0
H915 H 0.85131 0.54609 0.69512 0.0
H916 H 0.78649 0.48076 0.62259 0.0
H917 H 0.80589 0.50932 0.64571 0.0
C918 C 0.63126 0.40531 0.22134 0.0
C919 C 0.62876 0.40038 0.24475 0.0
C920 C 0.6482 0.42045 0.21407 0.0
C921 C 0.69883 0.45368 0.22413 0.0
H922 H 0.66209 0.50375 0.19985 0.0
C923 C 0.7397 0.53571 0.18616 0.0
C924 C 0.7317 0.54035 0.16385 0.0
C925 C 0.7279 0.52032 0.20026 0.0
C926 C 0.67258 0.48998 0.20664 0.0
H927 H 0.64344 0.405 0.27859 0.0
H928 H 0.67339 0.43167 0.26569 0.0
H929 H 0.64322 0.46978 0.21521 0.0
H930 H 0.70438 0.53384 0.13944 0.0
H931 H 0.68375 0.50729 0.164 0.0
H932 H 0.72829 0.47354 0.21453 0.0
C933 C 0.66225 0.42374 0.25309 0.0
C934 C 0.66181 0.47059 0.21537 0.0
C935 C 0.64526 0.40841 0.26041 0.0
C936 C 0.71096 0.53056 0.15652 0.0
C937 C 0.6991 0.51542 0.17065 0.0
C938 C 0.7097 0.47314 0.21517 0.0
C939 C 0.66279 0.43088 0.23012 0.0
C940 C 0.67484 0.45203 0.2235 0.0
C941 C 0.70778 0.50963 0.19239 0.0
C942 C 0.69662 0.49113 0.20569 0.0
H943 H 0.61869 0.39929 0.20901 0.0
H944 H 0.64855 0.42564 0.19621 0.0
H945 H 0.7091 0.43955 0.23051 0.0
H946 H 0.75574 0.5429 0.19221 0.0
H947 H 0.73483 0.51628 0.21703 0.0
C948 C 0.36157 0.89875 0.27631 0.0
C949 C 0.36057 0.89356 0.25284 0.0
C950 C 0.3435 0.91028 0.28691 0.0
C951 C 0.3035 0.95466 0.27209 0.0
H952 H 0.28513 0.94851 0.33573 0.0
C953 C 0.25427 0.02572 0.32225 0.0
C954 C 0.2619 0.02955 0.34486 0.0
C955 C 0.26255 0.00706 0.30959 0.0
C956 C 0.29015 0.95049 0.31794 0.0
H957 H 0.33949 0.8948 0.22226 0.0
H958 H 0.30775 0.91545 0.24083 0.0
H959 H 0.30411 0.91651 0.31642 0.0
H960 H 0.28512 0.01741 0.37137 0.0
H961 H 0.29982 0.98534 0.34917 0.0
H962 H 0.29062 0.98904 0.27393 0.0
C963 C 0.32247 0.9104 0.25102 0.0
C964 C 0.30082 0.93211 0.30687 0.0
C965 C 0.34047 0.89844 0.24048 0.0
C966 C 0.2787 0.0149 0.3541 0.0
C967 C 0.28696 0.99633 0.34146 0.0
C968 C 0.29289 0.9731 0.2832 0.0
C969 C 0.32426 0.9172 0.27411 0.0
C970 C 0.3083 0.93429 0.28408 0.0
C971 C 0.2786 0.99188 0.31928 0.0
C972 C 0.28687 0.97146 0.30649 0.0
H973 H 0.37699 0.89523 0.2861 0.0
H974 H 0.34548 0.91544 0.30467 0.0
H975 H 0.30934 0.95694 0.25459 0.0
H976 H 0.24124 0.03659 0.31464 0.0
H977 H 0.25582 0.00409 0.29252 0.0
C978 C 0.21777 0.98064 0.84827 0.0
C979 C 0.23718 0.96766 0.84215 0.0
C980 C 0.20928 0.99748 0.83362 0.0
C981 C 0.20366 0.04124 0.80703 0.0
H982 H 0.19177 0.02812 0.74295 0.0
C983 C 0.14625 0.10051 0.75249 0.0
C984 C 0.128 0.0878 0.74323 0.0
C985 C 0.16587 0.08913 0.76069 0.0
C986 C 0.19531 0.03218 0.76074 0.0
H987 H 0.26236 0.96164 0.81534 0.0
H988 H 0.24723 0.99106 0.78951 0.0
H989 H 0.21318 0.00051 0.76602 0.0
H990 H 0.11654 0.05375 0.73345 0.0
H991 H 0.15031 0.03416 0.7475 0.0
H992 H 0.18435 0.0721 0.8022 0.0
C993 C 0.23873 0.98817 0.80578 0.0
C994 C 0.20764 0.01641 0.77392 0.0
C995 C 0.24728 0.97122 0.82051 0.0
C996 C 0.13023 0.06393 0.7409 0.0
C997 C 0.14977 0.05271 0.74864 0.0
C998 C 0.19129 0.05698 0.79387 0.0
C999 C 0.21997 0.00183 0.81247 0.0
C1000 C 0.21097 0.0203 0.79746 0.0
C1001 C 0.16759 0.06504 0.75914 0.0
C1002 C 0.18604 0.05206 0.77089 0.0
H1003 H 0.20943 0.97823 0.86472 0.0
H1004 H 0.19434 0.00721 0.83895 0.0
H1005 H 0.2065 0.04496 0.82503 0.0
H1006 H 0.14492 0.11896 0.7543 0.0
H1007 H 0.1794 0.09902 0.76872 0.0
C1008 C 0.71759 0.85989 0.59487 0.0
C1009 C 0.74117 0.86002 0.59963 0.0
C1010 C 0.70779 0.84161 0.583 0.0
C1011 C 0.72476 0.80385 0.53719 0.0
H1012 H 0.66143 0.78391 0.54162 0.0
C1013 C 0.67511 0.75455 0.46516 0.0
C1014 C 0.65251 0.76231 0.46148 0.0
C1015 C 0.68807 0.76314 0.48349 0.0
C1016 C 0.67916 0.78934 0.54016 0.0
H1017 H 0.77278 0.84055 0.59751 0.0
H1018 H 0.75562 0.8084 0.57643 0.0
H1019 H 0.67983 0.80183 0.5747 0.0
H1020 H 0.62658 0.78652 0.47297 0.0
H1021 H 0.64924 0.80163 0.50453 0.0
H1022 H 0.72372 0.79219 0.50229 0.0
C1023 C 0.74472 0.82242 0.58197 0.0
C1024 C 0.68971 0.79943 0.55913 0.0
C1025 C 0.75447 0.84064 0.59424 0.0
C1026 C 0.64381 0.77995 0.47546 0.0
C1027 C 0.65669 0.78845 0.49371 0.0
C1028 C 0.71419 0.79369 0.51818 0.0
C1029 C 0.72151 0.82328 0.57534 0.0
C1030 C 0.71233 0.80759 0.55757 0.0
C1031 C 0.67861 0.77957 0.49841 0.0
C1032 C 0.69101 0.78719 0.51925 0.0
H1033 H 0.70709 0.87477 0.59874 0.0
H1034 H 0.68991 0.8429 0.57802 0.0
H1035 H 0.74214 0.8102 0.53537 0.0
H1036 H 0.6823 0.74089 0.45477 0.0
H1037 H 0.70501 0.75613 0.48665 0.0
C1038 C 0.85035 0.21563 0.97317 0.0
C1039 C 0.84255 0.23575 0.96247 0.0
C1040 C 0.83635 0.20385 0.98849 0.0
C1041 C 0.78833 0.21205 0.02825 0.0
H1042 H 0.79117 0.14562 0.0306 0.0
C1043 C 0.73778 0.14532 0.08603 0.0
C1044 C 0.7524 0.1284 0.09509 0.0
C1045 C 0.74683 0.16285 0.07228 0.0
C1046 C 0.79027 0.16419 0.03015 0.0
H1047 H 0.81357 0.25894 0.95898 0.0
H1048 H 0.78887 0.23802 0.98579 0.0
H1049 H 0.80894 0.16578 -0.0013 0.0
H1050 H 0.78779 0.11799 0.0996 0.0
H1051 H 0.80356 0.14874 0.07607 0.0
H1052 H 0.76943 0.21006 0.05996 0.0
C1053 C 0.80598 0.23158 0.98236 0.0
C1054 C 0.80042 0.17573 0.01192 0.0
C1055 C 0.82003 0.24339 0.96685 0.0
C1056 C 0.77624 0.13089 0.09279 0.0
C1057 C 0.78522 0.14835 0.07923 0.0
C1058 C 0.77789 0.20038 0.04652 0.0
C1059 C 0.81414 0.21183 0.99353 0.0
C1060 C 0.80021 0.1998 0.0111 0.0
C1061 C 0.77049 0.16351 0.0677 0.0
C1062 C 0.77946 0.17641 0.04788 0.0
H1063 H 0.86758 0.20926 0.9702 0.0
H1064 H 0.8433 0.18887 0.99703 0.0
H1065 H 0.78796 0.23063 0.0281 0.0
H1066 H 0.71931 0.14353 0.08735 0.0
H1067 H 0.7352 0.17439 0.06349 0.0
C1068 C 0.17683 0.73671 0.52957 0.0
C1069 C 0.15447 0.72833 0.5334 0.0
C1070 C 0.19045 0.7275 0.51199 0.0
C1071 C 0.18333 0.69872 0.45662 0.0
H1072 H 0.24597 0.6773 0.46354 0.0
C1073 C 0.22152 0.62668 0.40357 0.0
C1074 C 0.24503 0.62636 0.39844 0.0
C1075 C 0.21205 0.6449 0.41582 0.0
C1076 C 0.22869 0.68377 0.46113 0.0
H1077 H 0.12971 0.70249 0.52295 0.0
H1078 H 0.1534 0.68654 0.4926 0.0
H1079 H 0.22701 0.69689 0.49554 0.0
H1080 H 0.27696 0.64521 0.40082 0.0
H1081 H 0.26034 0.6773 0.42263 0.0
H1082 H 0.1846 0.68496 0.42261 0.0
C1083 C 0.16018 0.70055 0.50279 0.0
C1084 C 0.21783 0.69484 0.4795 0.0
C1085 C 0.1467 0.70959 0.52033 0.0
C1086 C 0.25869 0.64531 0.40434 0.0
C1087 C 0.24926 0.66347 0.41701 0.0
C1088 C 0.19417 0.68779 0.4383 0.0
C1089 C 0.18184 0.70989 0.49793 0.0
C1090 C 0.19475 0.70155 0.47768 0.0
C1091 C 0.22599 0.66302 0.42352 0.0
C1092 C 0.21664 0.67937 0.44066 0.0
H1093 H 0.18334 0.75116 0.53928 0.0
H1094 H 0.20719 0.73486 0.50867 0.0
H1095 H 0.16568 0.70424 0.4546 0.0
H1096 H 0.21075 0.61212 0.39934 0.0
H1097 H 0.19414 0.64386 0.42075 0.0
C1098 C 0.35311 0.28438 0.01956 0.0
C1099 C 0.34275 0.26641 0.03182 0.0
C1100 C 0.34068 0.29666 0.00327 0.0
C1101 C 0.3083 0.32662 0.97649 0.0
H1102 H 0.27152 0.29141 0.93349 0.0
C1103 C 0.24051 0.35033 0.90252 0.0
C1104 C 0.25297 0.36866 0.89314 0.0
C1105 C 0.25147 0.33456 0.91694 0.0
C1106 C 0.28168 0.30141 0.94543 0.0
H1107 H 0.31082 0.24801 0.0374 0.0
H1108 H 0.28897 0.26983 0.00903 0.0
H1109 H 0.28923 0.27219 0.96645 0.0
H1110 H 0.2867 0.38361 0.88902 0.0
H1111 H 0.30603 0.3556 0.91334 0.0
H1112 H 0.30099 0.35574 0.95561 0.0
C1113 C 0.30685 0.27409 0.01187 0.0
C1114 C 0.29166 0.2905 0.96436 0.0
C1115 C 0.3193 0.26182 0.0283 0.0
C1116 C 0.27684 0.36951 0.89606 0.0
C1117 C 0.28779 0.35368 0.91019 0.0
C1118 C 0.29847 0.33744 0.95762 0.0
C1119 C 0.31759 0.29129 -0.00116 0.0
C1120 C 0.3053 0.30299 0.97991 0.0
C1121 C 0.27496 0.33702 0.92195 0.0
C1122 C 0.28535 0.32492 0.9417 0.0
H1123 H 0.37113 0.28838 0.02187 0.0
H1124 H 0.3495 0.3097 0.9934 0.0
H1125 H 0.31833 0.33678 0.9884 0.0
H1126 H 0.222 0.34963 0.90072 0.0
H1127 H 0.24119 0.32184 0.92575 0.0
C1128 C 0.47105 0.64698 0.78813 0.0
C1129 C 0.4612 0.65443 0.76745 0.0
C1130 C 0.48623 0.66101 0.8001 0.0
C1131 C 0.5275 0.70743 0.79105 0.0
H1132 H 0.52949 0.70646 0.85753 0.0
C1133 C 0.58915 0.75761 0.85406 0.0
C1134 C 0.5972 0.74387 0.87214 0.0
C1135 C 0.5743 0.74828 0.83758 0.0
C1136 C 0.52917 0.70682 0.83894 0.0
H1137 H 0.4588 0.68294 0.74361 0.0
H1138 H 0.48533 0.70766 0.76482 0.0
H1139 H 0.49707 0.68921 0.83767 0.0
H1140 H 0.59846 0.70944 0.88595 0.0
H1141 H 0.57306 0.69308 0.85701 0.0
H1142 H 0.55987 0.72517 0.79266 0.0
C1143 C 0.48139 0.69079 0.77154 0.0
C1144 C 0.51061 0.69698 0.82759 0.0
C1145 C 0.46603 0.67673 0.75957 0.0
C1146 C 0.59245 0.72029 0.8721 0.0
C1147 C 0.5778 0.71101 0.8557 0.0
C1148 C 0.54609 0.71752 0.80251 0.0
C1149 C 0.49197 0.68288 0.79171 0.0
C1150 C 0.50989 0.69654 0.80352 0.0
C1151 C 0.56753 0.72521 0.83919 0.0
C1152 C 0.54734 0.71661 0.82653 0.0
H1153 H 0.46769 0.62992 0.79469 0.0
H1154 H 0.49427 0.65428 0.81545 0.0
H1155 H 0.52745 0.70724 0.77247 0.0
H1156 H 0.59239 0.77592 0.85401 0.0
H1157 H 0.56656 0.7595 0.82494 0.0
C1158 C 0.96734 0.81432 0.24028 0.0
C1159 C 0.96636 0.83803 0.23576 0.0
C1160 C 0.98545 0.80102 0.23177 0.0
C1161 C 0.04498 0.80712 0.2109 0.0
H1162 H 0.03447 0.74893 0.18042 0.0
C1163 C 0.09772 0.77375 0.13654 0.0
C1164 C 0.10023 0.75008 0.13306 0.0
C1165 C 0.08633 0.78197 0.15587 0.0
C1166 C 0.03784 0.76483 0.18946 0.0
H1167 H 0.98299 0.86603 0.21766 0.0
H1168 H 0.01416 0.84281 0.20257 0.0
H1169 H 0.00267 0.76823 0.19967 0.0
H1170 H 0.0945 0.7164 0.14759 0.0
H1171 H 0.07407 0.73082 0.18152 0.0
H1172 H 0.07987 0.80429 0.19965 0.0
C1173 C 0.0013 0.83462 0.21321 0.0
C1174 C 0.01958 0.77595 0.20036 0.0
C1175 C 0.98326 0.84788 0.22166 0.0
C1176 C 0.09293 0.73476 0.15012 0.0
C1177 C 0.08111 0.74298 0.16936 0.0
C1178 C 0.0632 0.79603 0.2 0.0
C1179 C 0.00291 0.8112 0.21864 0.0
C1180 C 0.02279 0.79764 0.21036 0.0
C1181 C 0.07687 0.76662 0.17186 0.0
C1182 C 0.0596 0.77523 0.18839 0.0
H1183 H 0.95468 0.80618 0.25117 0.0
H1184 H 0.98621 0.78298 0.23613 0.0
H1185 H 0.04808 0.82356 0.21902 0.0
H1186 H 0.10315 0.78582 0.12348 0.0
H1187 H 0.08318 0.80024 0.15718 0.0
C1188 C 0.52489 0.14107 0.71472 0.0
C1189 C 0.53778 0.1518 0.73207 0.0
C1190 C 0.50764 0.15299 0.70325 0.0
C1191 C 0.46811 0.20174 0.70962 0.0
H1192 H 0.459 0.19175 0.64449 0.0
C1193 C 0.40696 0.25293 0.64906 0.0
C1194 C 0.39764 0.24047 0.63067 0.0
C1195 C 0.42096 0.24187 0.66516 0.0
C1196 C 0.46107 0.19443 0.66277 0.0
H1197 H 0.54307 0.18378 0.75045 0.0
H1198 H 0.513 0.20479 0.72999 0.0
H1199 H 0.49187 0.17459 0.66343 0.0
H1200 H 0.39313 0.2067 0.61595 0.0
H1201 H 0.41667 0.18722 0.64453 0.0
H1202 H 0.43727 0.222 0.70863 0.0
C1203 C 0.51616 0.187 0.72559 0.0
C1204 C 0.48 0.18469 0.6736 0.0
C1205 C 0.53355 0.17505 0.73709 0.0
C1206 C 0.40011 0.21656 0.63009 0.0
C1207 C 0.4138 0.20551 0.64626 0.0
C1208 C 0.44911 0.21165 0.69869 0.0
C1209 C 0.50283 0.17596 0.70877 0.0
C1210 C 0.48359 0.18794 0.69718 0.0
C1211 C 0.42561 0.21829 0.66297 0.0
C1212 C 0.44525 0.20776 0.67521 0.0
H1213 H 0.52766 0.12319 0.71041 0.0
H1214 H 0.49754 0.1439 0.69056 0.0
H1215 H 0.47035 0.2044 0.72788 0.0
H1216 H 0.40553 0.27146 0.64956 0.0
H1217 H 0.42982 0.25213 0.6779 0.0
C1218 C 0.9051 0.23873 0.34649 0.0
C1219 C 0.89839 0.25247 0.3651 0.0
C1220 C 0.91705 0.24848 0.32809 0.0
C1221 C 0.93734 0.30384 0.30346 0.0
H1222 H 0.99595 0.27243 0.29888 0.0
C1223 C 0.01922 0.35239 0.28079 0.0
C1224 C 0.03385 0.34267 0.26423 0.0
C1225 C 0.00138 0.33957 0.29026 0.0
C1226 C 0.97959 0.28125 0.29966 0.0
H1227 H 0.89645 0.28715 0.37822 0.0
H1228 H 0.91668 0.30427 0.34606 0.0
H1229 H 0.9635 0.25324 0.31701 0.0
H1230 H 0.0421 0.31123 0.24587 0.0
H1231 H 0.01101 0.28885 0.26264 0.0
H1232 H 0.95371 0.3322 0.28693 0.0
C1233 C 0.91299 0.28606 0.34548 0.0
C1234 C 0.96093 0.2702 0.30988 0.0
C1235 C 0.90139 0.2763 0.36393 0.0
C1236 C 0.03119 0.31931 0.25859 0.0
C1237 C 0.01331 0.30647 0.26811 0.0
C1238 C 0.95598 0.31488 0.29328 0.0
C1239 C 0.92209 0.27209 0.32804 0.0
C1240 C 0.93983 0.28167 0.31255 0.0
C1241 C 0.99777 0.31672 0.28344 0.0
C1242 C 0.97749 0.30398 0.29197 0.0
H1243 H 0.90316 0.22025 0.3472 0.0
H1244 H 0.92369 0.23737 0.31472 0.0
H1245 H 0.92121 0.31298 0.30505 0.0
H1246 H 0.02084 0.37025 0.28571 0.0
H1247 H 0.99004 0.34773 0.30255 0.0
C1248 C 0.20612 0.41289 0.98242 0.0
C1249 C 0.18905 0.41726 0.96589 0.0
C1250 C 0.20016 0.40413 0.00404 0.0
C1251 C 0.15292 0.37408 0.03418 0.0
H1252 H 0.17322 0.40667 0.08858 0.0
C1253 C 0.0974 0.38401 0.1135 0.0
C1254 C 0.10686 0.37997 0.1353 0.0
C1255 C 0.11128 0.38408 0.09406 0.0
C1256 C 0.16781 0.39707 0.07359 0.0
H1257 H 0.15243 0.41527 0.95899 0.0
H1258 H 0.14222 0.40028 0.99628 0.0
H1259 H 0.19118 0.41489 0.05143 0.0
H1260 H 0.13837 0.37291 0.15384 0.0
H1261 H 0.16297 0.37371 0.11949 0.0
H1262 H 0.12863 0.35732 0.056 0.0
C1263 C 0.16019 0.40341 0.99264 0.0
C1264 C 0.17807 0.40175 0.05236 0.0
C1265 C 0.16606 0.41228 0.97128 0.0
C1266 C 0.13062 0.37598 0.13722 0.0
C1267 C 0.14467 0.3765 0.11767 0.0
C1268 C 0.14262 0.36954 0.05527 0.0
C1269 C 0.1771 0.39927 0.0093 0.0
C1270 C 0.17003 0.39098 0.03231 0.0
C1271 C 0.13503 0.38042 0.09592 0.0
C1272 C 0.14934 0.38164 0.07499 0.0
H1273 H 0.22399 0.41653 0.97879 0.0
H1274 H 0.21354 0.40111 0.01659 0.0
H1275 H 0.14672 0.36514 0.01909 0.0
H1276 H 0.07916 0.38702 0.1114 0.0
H1277 H 0.10347 0.38745 0.07753 0.0
C1278 C 0.2905 0.57832 0.48576 0.0
C1279 C 0.30679 0.5706 0.46964 0.0
C1280 C 0.29755 0.58609 0.50747 0.0
C1281 C 0.34916 0.60777 0.53758 0.0
H1282 H 0.32226 0.58252 0.59296 0.0
C1283 C 0.4006 0.59402 0.61904 0.0
C1284 C 0.39227 0.60356 0.63957 0.0
C1285 C 0.38689 0.59345 0.59947 0.0
C1286 C 0.32963 0.59002 0.57764 0.0
H1287 H 0.34331 0.56515 0.46386 0.0
H1288 H 0.35529 0.57834 0.50119 0.0
H1289 H 0.30363 0.57576 0.55573 0.0
H1290 H 0.36268 0.61936 0.65583 0.0
H1291 H 0.33834 0.61775 0.62138 0.0
H1292 H 0.37584 0.62081 0.55918 0.0
C1293 C 0.33714 0.57874 0.49713 0.0
C1294 C 0.31899 0.58622 0.55639 0.0
C1295 C 0.33017 0.57093 0.4757 0.0
C1296 C 0.36961 0.612 0.64023 0.0
C1297 C 0.35568 0.61104 0.62062 0.0
C1298 C 0.35983 0.61136 0.55866 0.0
C1299 C 0.32101 0.58652 0.51324 0.0
C1300 C 0.32919 0.59431 0.53607 0.0
C1301 C 0.36441 0.60209 0.60001 0.0
C1302 C 0.35062 0.60184 0.57874 0.0
H1303 H 0.27236 0.57828 0.48166 0.0
H1304 H 0.28475 0.59196 0.51961 0.0
H1305 H 0.35714 0.61466 0.52228 0.0
H1306 H 0.41796 0.58742 0.61787 0.0
H1307 H 0.39389 0.58623 0.58381 0.0
C1308 C 0.63537 0.09479 0.86026 0.0
C1309 C 0.63099 0.11601 0.84977 0.0
C1310 C 0.65278 0.09255 0.8764 0.0
C1311 C 0.68172 0.1245 0.92067 0.0
H1312 H 0.71447 0.06682 0.92668 0.0
C1313 C 0.72412 0.0921 0.00565 0.0
C1314 C 0.71287 0.07188 0.01254 0.0
C1315 C 0.72129 0.1005 0.98329 0.0
C1316 C 0.70582 0.08321 0.92507 0.0
H1317 H 0.64193 0.15145 0.84734 0.0
H1318 H 0.67246 0.14764 0.87638 0.0
H1319 H 0.69703 0.077 0.88999 0.0
H1320 H 0.69073 0.04415 0.00139 0.0
H1321 H 0.68639 0.0584 0.96234 0.0
H1322 H 0.68954 0.12999 0.95625 0.0
C1323 C 0.66235 0.13273 0.8718 0.0
C1324 C 0.69579 0.08902 0.90414 0.0
C1325 C 0.64498 0.1349 0.85522 0.0
C1326 C 0.69949 0.05982 0.99656 0.0
C1327 C 0.69715 0.06787 0.97419 0.0
C1328 C 0.69197 0.11875 0.94162 0.0
C1329 C 0.66625 0.11152 0.88267 0.0
C1330 C 0.6825 0.10907 0.90212 0.0
C1331 C 0.70777 0.08839 0.96743 0.0
C1332 C 0.70302 0.09749 0.94425 0.0
H1333 H 0.62503 0.07985 0.85625 0.0
H1334 H 0.65502 0.07607 0.8847 0.0
H1335 H 0.67153 0.14003 0.91964 0.0
H1336 H 0.73443 0.10176 0.01774 0.0
H1337 H 0.7295 0.11644 0.97843 0.0
C1338 C 0.81507 0.89331 0.51215 0.0
C1339 C 0.79425 0.90334 0.51908 0.0
C1340 C 0.81768 0.88483 0.48994 0.0
C1341 C 0.79815 0.89629 0.43238 0.0
H1342 H 0.83677 0.84391 0.41815 0.0
C1343 C 0.85617 0.85538 0.35346 0.0
C1344 C 0.869 0.87524 0.34876 0.0
C1345 C 0.83978 0.85548 0.37106 0.0
C1346 C 0.8255 0.85828 0.42167 0.0
H1347 H 0.75948 0.91145 0.50844 0.0
H1348 H 0.76425 0.89693 0.46926 0.0
H1349 H 0.82128 0.84841 0.45681 0.0
H1350 H 0.87358 0.91115 0.3574 0.0
H1351 H 0.84501 0.91139 0.38776 0.0
H1352 H 0.80346 0.90684 0.39759 0.0
C1353 C 0.77848 0.89561 0.48116 0.0
C1354 C 0.81682 0.86096 0.44386 0.0
C1355 C 0.77576 0.90387 0.50357 0.0
C1356 C 0.8641 0.89552 0.36082 0.0
C1357 C 0.84754 0.89572 0.37806 0.0
C1358 C 0.80694 0.89367 0.41023 0.0
C1359 C 0.79959 0.88632 0.47405 0.0
C1360 C 0.80393 0.88052 0.44967 0.0
C1361 C 0.83568 0.87556 0.38383 0.0
C1362 C 0.82155 0.87519 0.40497 0.0
H1363 H 0.82958 0.89242 0.52375 0.0
H1364 H 0.83426 0.87807 0.48489 0.0
H1365 H 0.78832 0.91157 0.43636 0.0
H1366 H 0.85964 0.83951 0.34439 0.0
H1367 H 0.83083 0.83972 0.37517 0.0
C1368 C 0.14247 0.13798 0.40668 0.0
C1369 C 0.15279 0.13077 0.38611 0.0
C1370 C 0.12465 0.15395 0.40644 0.0
C1371 C 0.08993 0.19235 0.40253 0.0
H1372 H 0.04145 0.17201 0.36173 0.0
C1373 C 0.99567 0.22249 0.41293 0.0
C1374 C 0.98055 0.20378 0.41487 0.0
C1375 C 0.01804 0.21922 0.40469 0.0
C1376 C 0.0549 0.17812 0.37302 0.0
H1377 H 0.15357 0.13574 0.34926 0.0
H1378 H 0.122 0.1636 0.3488 0.0
H1379 H 0.08031 0.15729 0.35661 0.0
H1380 H 0.9766 0.16728 0.40859 0.0
H1381 H 0.01534 0.16166 0.39421 0.0
H1382 H 0.06412 0.21201 0.41986 0.0
C1383 C 0.1278 0.15681 0.3651 0.0
C1384 C 0.07721 0.16987 0.36996 0.0
C1385 C 0.1459 0.14096 0.36537 0.0
C1386 C 0.98789 0.18201 0.40753 0.0
C1387 C 0.01003 0.17883 0.39903 0.0
C1388 C 0.06762 0.2007 0.40551 0.0
C1389 C 0.11659 0.16297 0.38559 0.0
C1390 C 0.09474 0.1761 0.38532 0.0
C1391 C 0.02547 0.19729 0.39785 0.0
C1392 C 0.0497 0.19285 0.39141 0.0
H1393 H 0.14757 0.13059 0.42296 0.0
H1394 H 0.11625 0.15811 0.4225 0.0
H1395 H 0.10317 0.19765 0.41447 0.0
H1396 H 0.99046 0.23948 0.41843 0.0
H1397 H 0.02962 0.23374 0.40393 0.0
C1398 C 0.36211 0.87565 0.88807 0.0
C1399 C 0.35264 0.88842 0.90625 0.0
C1400 C 0.38143 0.86179 0.89167 0.0
C1401 C 0.41942 0.82799 0.90558 0.0
H1402 H 0.4651 0.85803 0.94354 0.0
C1403 C 0.50899 0.78907 0.93084 0.0
C1404 C 0.5273 0.8048 0.93084 0.0
C1405 C 0.48646 0.79665 0.9268 0.0
C1406 C 0.45258 0.84942 0.93282 0.0
H1407 H 0.3548 0.89515 0.94281 0.0
H1408 H 0.38802 0.87068 0.94916 0.0
H1409 H 0.4275 0.87525 0.93927 0.0
H1410 H 0.53662 0.84034 0.9247 0.0
H1411 H 0.49775 0.85331 0.91743 0.0
H1412 H 0.44521 0.80248 0.89865 0.0
C1413 C 0.38105 0.8719 0.93197 0.0
C1414 C 0.43085 0.85913 0.93063 0.0
C1415 C 0.36195 0.88589 0.92834 0.0
C1416 C 0.52285 0.82785 0.92535 0.0
C1417 C 0.50055 0.83533 0.92123 0.0
C1418 C 0.44132 0.81819 0.90782 0.0
C1419 C 0.39152 0.86032 0.91355 0.0
C1420 C 0.41403 0.8487 0.91684 0.0
C1421 C 0.48201 0.82002 0.92265 0.0
C1422 C 0.45822 0.82907 0.92117 0.0
H1423 H 0.35529 0.8772 0.87085 0.0
H1424 H 0.38913 0.85321 0.87708 0.0
H1425 H 0.40678 0.81944 0.89496 0.0
H1426 H 0.51192 0.77118 0.93494 0.0
H1427 H 0.47247 0.78446 0.92793 0.0
C1428 C 0.49217 0.28195 0.58013 0.0
C1429 C 0.47504 0.29877 0.5826 0.0
C1430 C 0.5148 0.28662 0.58677 0.0
C1431 C 0.55056 0.32626 0.6211 0.0
H1432 H 0.59498 0.32044 0.57185 0.0
C1433 C 0.63162 0.37979 0.58792 0.0
C1434 C 0.64462 0.38239 0.60807 0.0
C1435 C 0.61407 0.36358 0.58676 0.0
C1436 C 0.58285 0.3219 0.58587 0.0
H1437 H 0.46777 0.33305 0.59523 0.0
H1438 H 0.50701 0.34105 0.60701 0.0
H1439 H 0.55717 0.30268 0.56791 0.0
H1440 H 0.64998 0.36937 0.64252 0.0
H1441 H 0.61886 0.34119 0.64058 0.0
H1442 H 0.57575 0.34653 0.63854 0.0
C1443 C 0.50309 0.32433 0.59988 0.0
C1444 C 0.5613 0.31159 0.58371 0.0
C1445 C 0.48066 0.31983 0.59291 0.0
C1446 C 0.64024 0.3678 0.62676 0.0
C1447 C 0.62242 0.35173 0.6257 0.0
C1448 C 0.57217 0.33639 0.62336 0.0
C1449 C 0.52049 0.308 0.59644 0.0
C1450 C 0.54466 0.31444 0.60092 0.0
C1451 C 0.60895 0.34972 0.60579 0.0
C1452 C 0.58819 0.33505 0.60538 0.0
H1453 H 0.48829 0.26557 0.57222 0.0
H1454 H 0.52794 0.27375 0.58397 0.0
H1455 H 0.53807 0.32857 0.6347 0.0
H1456 H 0.63469 0.39063 0.57314 0.0
H1457 H 0.6038 0.36263 0.57128 0.0
C1458 C 0.87167 0.60826 0.09059 0.0
C1459 C 0.85813 0.6097 0.1105 0.0
C1460 C 0.88905 0.62418 0.08652 0.0
C1461 C 0.92882 0.66285 0.11525 0.0
H1462 H 0.9384 0.68535 0.05337 0.0
C1463 C 0.01055 0.71349 0.08808 0.0
C1464 C 0.02119 0.70371 0.06874 0.0
C1465 C 0.98814 0.70707 0.09414 0.0
C1466 C 0.93589 0.67932 0.07077 0.0
H1467 H 0.85229 0.62911 0.14179 0.0
H1468 H 0.88303 0.65686 0.13471 0.0
H1469 H 0.90351 0.66411 0.06247 0.0
H1470 H 0.01639 0.6804 0.04006 0.0
H1471 H 0.97767 0.66943 0.05047 0.0
H1472 H 0.96176 0.67722 0.12322 0.0
C1473 C 0.88001 0.64337 0.12227 0.0
C1474 C 0.91596 0.66714 0.07596 0.0
C1475 C 0.86239 0.62752 0.12626 0.0
C1476 C 0.00876 0.68814 0.05516 0.0
C1477 C 0.98644 0.682 0.06101 0.0
C1478 C 0.94885 0.67504 0.11002 0.0
C1479 C 0.89344 0.64188 0.1023 0.0
C1480 C 0.9126 0.65806 0.09802 0.0
C1481 C 0.97594 0.69114 0.08068 0.0
C1482 C 0.95295 0.68263 0.0875 0.0
H1483 H 0.86885 0.59483 0.07803 0.0
H1484 H 0.89936 0.62237 0.07115 0.0
H1485 H 0.92669 0.656 0.13239 0.0
H1486 H 0.01976 0.7255 0.09888 0.0
H1487 H 0.98041 0.71438 0.1094 0.0
C1488 C 0.42237 0.98344 0.17457 0.0
C1489 C 0.41219 0.9713 0.19271 0.0
C1490 C 0.41694 0.00636 0.17081 0.0
C1491 C 0.3729 0.04785 0.17297 0.0
H1492 H 0.42333 0.09053 0.16472 0.0
C1493 C 0.36348 0.13629 0.12691 0.0
C1494 C 0.3796 0.13863 0.10906 0.0
C1495 C 0.36587 0.11874 0.14319 0.0
C1496 C 0.40901 0.07893 0.16719 0.0
H1497 H 0.38814 0.97356 0.22105 0.0
H1498 H 0.37796 0.01399 0.2138 0.0
H1499 H 0.43032 0.05351 0.18295 0.0
H1500 H 0.41113 0.12477 0.09471 0.0
H1501 H 0.41522 0.09454 0.12286 0.0
H1502 H 0.35195 0.07264 0.15557 0.0
C1503 C 0.39044 0.00558 0.20286 0.0
C1504 C 0.413 0.05784 0.17769 0.0
C1505 C 0.39628 0.98258 0.20698 0.0
C1506 C 0.3983 0.12342 0.10811 0.0
C1507 C 0.40081 0.1062 0.12442 0.0
C1508 C 0.3689 0.069 0.16229 0.0
C1509 C 0.40095 0.01763 0.18485 0.0
C1510 C 0.39523 0.04174 0.17972 0.0
C1511 C 0.38464 0.1036 0.1421 0.0
C1512 C 0.38721 0.08422 0.15832 0.0
H1513 H 0.4348 0.9753 0.16337 0.0
H1514 H 0.42505 0.01526 0.15664 0.0
H1515 H 0.35898 0.03559 0.17427 0.0
H1516 H 0.34887 0.14775 0.12808 0.0
H1517 H 0.35313 0.11703 0.15663 0.0
C1518 C 0.94253 0.50814 0.80534 0.0
C1519 C 0.92737 0.52195 0.79271 0.0
C1520 C 0.93741 0.48522 0.80957 0.0
C1521 C 0.8893 0.44788 0.81941 0.0
H1522 H 0.93681 0.40119 0.82052 0.0
C1523 C 0.87777 0.36128 0.86706 0.0
C1524 C 0.89611 0.35604 0.8819 0.0
C1525 C 0.87997 0.37864 0.85061 0.0
C1526 C 0.92331 0.414 0.82023 0.0
H1527 H 0.89524 0.52253 0.77397 0.0
H1528 H 0.88588 0.48211 0.78196 0.0
H1529 H 0.94364 0.43722 0.80035 0.0
H1530 H 0.93138 0.36452 0.89052 0.0
H1531 H 0.93511 0.39466 0.86208 0.0
H1532 H 0.86946 0.42516 0.8404 0.0
C1533 C 0.90186 0.48917 0.78833 0.0
C1534 C 0.92719 0.43455 0.80862 0.0
C1535 C 0.90723 0.51218 0.7837 0.0
C1536 C 0.91685 0.36812 0.87948 0.0
C1537 C 0.91909 0.38528 0.86298 0.0
C1538 C 0.88543 0.42728 0.8311 0.0
C1539 C 0.91685 0.47558 0.80152 0.0
C1540 C 0.9106 0.45207 0.80889 0.0
C1541 C 0.90063 0.39091 0.8485 0.0
C1542 C 0.90279 0.41054 0.83243 0.0
H1543 H 0.95824 0.51521 0.81237 0.0
H1544 H 0.94915 0.4753 0.82004 0.0
H1545 H 0.87628 0.46115 0.82002 0.0
H1546 H 0.86155 0.35229 0.86843 0.0
H1547 H 0.86548 0.38255 0.83962 0.0
C1548 C 0.55454 0.49023 0.30659 0.0
C1549 C 0.56729 0.4769 0.29106 0.0
C1550 C 0.56042 0.513 0.31073 0.0
C1551 C 0.608 0.55128 0.31468 0.0
H1552 H 0.56027 0.59767 0.31752 0.0
C1553 C 0.62096 0.63886 0.36077 0.0
C1554 C 0.60331 0.64361 0.37658 0.0
C1555 C 0.61827 0.62142 0.34438 0.0
C1556 C 0.57385 0.58498 0.31669 0.0
H1557 H 0.59619 0.47694 0.2676 0.0
H1558 H 0.60704 0.51701 0.27557 0.0
H1559 H 0.55238 0.56088 0.29914 0.0
H1560 H 0.5687 0.63439 0.38693 0.0
H1561 H 0.56414 0.60425 0.35871 0.0
H1562 H 0.62898 0.5748 0.33369 0.0
C1563 C 0.59226 0.5097 0.28416 0.0
C1564 C 0.56935 0.564 0.3061 0.0
C1565 C 0.58604 0.4869 0.27959 0.0
C1566 C 0.58272 0.63113 0.37515 0.0
C1567 C 0.57999 0.61397 0.35875 0.0
C1568 C 0.61248 0.57229 0.32548 0.0
C1569 C 0.57941 0.52292 0.29974 0.0
C1570 C 0.58606 0.54663 0.30585 0.0
C1571 C 0.59777 0.60872 0.34332 0.0
C1572 C 0.59508 0.58893 0.32748 0.0
H1573 H 0.53993 0.48305 0.31557 0.0
H1574 H 0.55042 0.52273 0.32305 0.0
H1575 H 0.62112 0.53809 0.31477 0.0
H1576 H 0.63703 0.64818 0.36143 0.0
H1577 H 0.63225 0.61777 0.33267 0.0
C1578 C 0.06811 0.01927 0.66276 0.0
C1579 C 0.06574 0.02524 0.68603 0.0
C1580 C 0.07231 0.99666 0.65633 0.0
C1581 C 0.09297 0.94045 0.67576 0.0
H1582 H 0.05679 0.91945 0.62398 0.0
C1583 C 0.07345 0.85526 0.61544 0.0
C1584 C 0.096 0.84814 0.61073 0.0
C1585 C 0.06937 0.87452 0.62903 0.0
C1586 C 0.06681 0.9248 0.6387 0.0
H1587 H 0.06688 0.01208 0.72085 0.0
H1588 H 0.0741 0.97223 0.70942 0.0
H1589 H 0.05068 0.95767 0.63911 0.0
H1590 H 0.13196 0.85469 0.61767 0.0
H1591 H 0.12488 0.889 0.64087 0.0
H1592 H 0.10909 0.90731 0.67521 0.0
C1593 C 0.07271 0.98527 0.69627 0.0
C1594 C 0.06351 0.94689 0.64716 0.0
C1595 C 0.06849 0.00806 0.70278 0.0
C1596 C 0.1144 0.85985 0.62102 0.0
C1597 C 0.11032 0.87943 0.63439 0.0
C1598 C 0.0963 0.91818 0.66723 0.0
C1599 C 0.0742 0.97933 0.67293 0.0
C1600 C 0.07681 0.95513 0.66549 0.0
C1601 C 0.08776 0.8874 0.63787 0.0
C1602 C 0.08339 0.91022 0.64843 0.0
H1603 H 0.06647 0.03204 0.64937 0.0
H1604 H 0.07391 0.9927 0.63822 0.0
H1605 H 0.10348 0.94639 0.6899 0.0
H1606 H 0.05892 0.84626 0.6081 0.0
H1607 H 0.05177 0.8798 0.63192 0.0
C1608 C 0.869 0.61718 0.8646 0.0
C1609 C 0.88497 0.60027 0.85795 0.0
C1610 C 0.85548 0.61411 0.88425 0.0
C1611 C 0.8598 0.5853 0.93906 0.0
H1612 H 0.79401 0.59328 0.94595 0.0
C1613 C 0.81547 0.55134 0.01792 0.0
C1614 C 0.8003 0.56591 0.02968 0.0
C1615 C 0.82264 0.55661 0.99581 0.0
C1616 C 0.81243 0.59129 0.94427 0.0
H1617 H 0.89783 0.56613 0.86567 0.0
H1618 H 0.87441 0.56093 0.89969 0.0
H1619 H 0.81229 0.60073 0.90857 0.0
H1620 H 0.77959 0.59671 0.02709 0.0
H1621 H 0.79264 0.60629 0.98809 0.0
H1622 H 0.8603 0.57595 0.97439 0.0
C1623 C 0.87265 0.5767 0.89 0.0
C1624 C 0.82283 0.59551 0.92296 0.0
C1625 C 0.88607 0.57971 0.87049 0.0
C1626 C 0.79136 0.58525 0.01837 0.0
C1627 C 0.79879 0.5907 0.99612 0.0
C1628 C 0.84953 0.58124 0.96018 0.0
C1629 C 0.8578 0.59413 0.89749 0.0
C1630 C 0.84653 0.59192 0.92011 0.0
C1631 C 0.81508 0.57675 0.98498 0.0
C1632 C 0.82568 0.58353 0.96289 0.0
H1633 H 0.86766 0.63317 0.85524 0.0
H1634 H 0.84409 0.62778 0.88971 0.0
H1635 H 0.8782 0.58299 0.93747 0.0
H1636 H 0.82225 0.53604 0.02603 0.0
H1637 H 0.83468 0.54518 0.9874 0.0
C1638 C 0.62365 0.38089 0.35529 0.0
C1639 C 0.60271 0.39298 0.35416 0.0
C1640 C 0.63749 0.38224 0.37494 0.0
C1641 C 0.63247 0.39315 0.43637 0.0
H1642 H 0.69647 0.41165 0.43589 0.0
C1643 C 0.67174 0.43713 0.5126 0.0
C1644 C 0.69219 0.42845 0.52205 0.0
C1645 C 0.66411 0.42979 0.49126 0.0
C1646 C 0.67876 0.406 0.4362 0.0
H1647 H 0.58033 0.41645 0.37264 0.0
H1648 H 0.60425 0.41858 0.40663 0.0
H1649 H 0.67652 0.40403 0.39941 0.0
H1650 H 0.72135 0.40611 0.51576 0.0
H1651 H 0.70779 0.39324 0.47779 0.0
H1652 H 0.63424 0.39589 0.47287 0.0
C1653 C 0.60988 0.40794 0.39244 0.0
C1654 C 0.66737 0.40169 0.41542 0.0
C1655 C 0.59623 0.40679 0.37286 0.0
C1656 C 0.70547 0.41303 0.50898 0.0
C1657 C 0.69776 0.40567 0.48733 0.0
C1658 C 0.64377 0.39738 0.45697 0.0
C1659 C 0.63044 0.39545 0.39383 0.0
C1660 C 0.64387 0.39611 0.41538 0.0
C1661 C 0.67667 0.41358 0.47866 0.0
C1662 C 0.66672 0.40472 0.45706 0.0
H1663 H 0.62923 0.37019 0.34114 0.0
H1664 H 0.65333 0.3725 0.37561 0.0
H1665 H 0.61449 0.3884 0.43682 0.0
H1666 H 0.66124 0.44936 0.5219 0.0
H1667 H 0.64805 0.43656 0.48472 0.0
C1668 C 0.29191 0.93774 -0.00178 0.0
C1669 C 0.28103 0.92403 0.9817 0.0
C1670 C 0.29425 0.93007 0.0207 0.0
C1671 C 0.30401 0.87874 0.05251 0.0
H1672 H 0.29887 0.92036 0.10425 0.0
C1673 C 0.3531 0.86401 0.13793 0.0
C1674 C 0.36668 0.8832 0.14339 0.0
C1675 C 0.33553 0.8658 0.12155 0.0
C1676 C 0.30017 0.90839 0.09007 0.0
H1677 H 0.2635 0.89179 0.97569 0.0
H1678 H 0.26838 0.87786 0.01529 0.0
H1679 H 0.27961 0.92959 0.06823 0.0
H1680 H 0.37174 0.91951 0.13694 0.0
H1681 H 0.3413 0.92263 0.10875 0.0
H1682 H 0.32602 0.85841 0.07385 0.0
C1683 C 0.2747 0.89473 0.01075 0.0
C1684 C 0.2891 0.91364 0.0695 0.0
C1685 C 0.27187 0.90269 0.98821 0.0
C1686 C 0.36173 0.90435 0.13297 0.0
C1687 C 0.34408 0.9062 0.11699 0.0
C1688 C 0.31518 0.8735 0.07313 0.0
C1689 C 0.28612 0.90832 0.02711 0.0
C1690 C 0.2919 0.89947 0.0502 0.0
C1691 C 0.331 0.88692 0.11081 0.0
C1692 C 0.31433 0.88892 0.09168 0.0
H1693 H 0.29902 0.9543 0.99365 0.0
H1694 H 0.30343 0.94076 0.03284 0.0
H1695 H 0.30652 0.86758 0.03784 0.0
H1696 H 0.35655 0.84748 0.1457 0.0
H1697 H 0.32572 0.85066 0.11706 0.0
C1698 C 0.21806 0.08338 0.49389 0.0
C1699 C 0.21067 0.09519 0.47429 0.0
C1700 C 0.21086 0.0906 0.51566 0.0
C1701 C 0.16 0.11897 0.53871 0.0
H1702 H 0.1887 0.10807 0.59775 0.0
C1703 C 0.13245 0.12545 0.6397 0.0
C1704 C 0.11139 0.11366 0.63823 0.0
C1705 C 0.14766 0.12562 0.62106 0.0
C1706 C 0.18059 0.11144 0.58137 0.0
H1707 H 0.19225 0.12487 0.46175 0.0
H1708 H 0.18067 0.13821 0.49971 0.0
H1709 H 0.212 0.10663 0.56266 0.0
H1710 H 0.09037 0.09198 0.61631 0.0
H1711 H 0.11674 0.09234 0.58412 0.0
H1712 H 0.12863 0.12337 0.55714 0.0
C1713 C 0.19128 0.12299 0.49844 0.0
C1714 C 0.19385 0.11048 0.56131 0.0
C1715 C 0.19806 0.11552 0.47674 0.0
C1716 C 0.10627 0.10147 0.61804 0.0
C1717 C 0.12135 0.10174 0.5995 0.0
C1718 C 0.14684 0.11985 0.55861 0.0
C1719 C 0.19638 0.10983 0.51801 0.0
C1720 C 0.18358 0.11386 0.53971 0.0
C1721 C 0.14197 0.11414 0.60064 0.0
C1722 C 0.15684 0.11554 0.58007 0.0
H1723 H 0.2276 0.06749 0.49226 0.0
H1724 H 0.21504 0.08002 0.53034 0.0
H1725 H 0.15134 0.12126 0.52242 0.0
H1726 H 0.137 0.13492 0.65503 0.0
H1727 H 0.16348 0.1353 0.62236 0.0
C1728 C 0.00907 0.77357 0.59489 0.0
C1729 C 0.01718 0.78198 0.57379 0.0
C1730 C 0.98629 0.77769 0.60162 0.0
C1731 C 0.92932 0.79358 0.57903 0.0
H1732 H 0.92171 0.83016 0.63414 0.0
C1733 C 0.86309 0.86443 0.58568 0.0
C1734 C 0.85157 0.8689 0.60639 0.0
C1735 C 0.87996 0.84755 0.58447 0.0
C1736 C 0.92335 0.81946 0.61902 0.0
H1737 H 0.00777 0.80018 0.54276 0.0
H1738 H 0.96817 0.80682 0.55417 0.0
H1739 H 0.95826 0.81067 0.62692 0.0
H1740 H 0.84834 0.85868 0.64201 0.0
H1741 H 0.87842 0.82913 0.63995 0.0
H1742 H 0.89494 0.80325 0.57046 0.0
C1743 C 0.97927 0.79725 0.56562 0.0
C1744 C 0.94427 0.80831 0.6149 0.0
C1745 C 0.00199 0.7936 0.55917 0.0
C1746 C 0.85692 0.8556 0.62581 0.0
C1747 C 0.87415 0.83878 0.62466 0.0
C1748 C 0.90845 0.8046 0.58317 0.0
C1749 C 0.97125 0.78968 0.58704 0.0
C1750 C 0.94776 0.79619 0.59433 0.0
C1751 C 0.88594 0.83472 0.60397 0.0
C1752 C 0.90564 0.81858 0.60264 0.0
H1753 H 0.02054 0.76467 0.6065 0.0
H1754 H 0.9805 0.77177 0.61825 0.0
H1755 H 0.93148 0.78407 0.56318 0.0
H1756 H 0.85928 0.87423 0.57035 0.0
H1757 H 0.88895 0.84514 0.56837 0.0
C1758 C 0.62294 0.095 0.0792 0.0
C1759 C 0.64159 0.10223 0.09271 0.0
C1760 C 0.60265 0.10764 0.07871 0.0
C1761 C 0.57607 0.16268 0.08445 0.0
H1762 H 0.52196 0.12738 0.10052 0.0
C1763 C 0.48264 0.19872 0.07804 0.0
C1764 C 0.46692 0.18351 0.06776 0.0
C1765 C 0.50462 0.19114 0.08433 0.0
C1766 C 0.53687 0.13749 0.09593 0.0
H1767 H 0.65387 0.12911 0.11543 0.0
H1768 H 0.61818 0.15159 0.11406 0.0
H1769 H 0.55988 0.1102 0.10455 0.0
H1770 H 0.46223 0.14844 0.05588 0.0
H1771 H 0.50018 0.13556 0.06641 0.0
H1772 H 0.5529 0.18958 0.07463 0.0
C1773 C 0.61945 0.1359 0.10415 0.0
C1774 C 0.55854 0.12767 0.09835 0.0
C1775 C 0.63978 0.12302 0.10494 0.0
C1776 C 0.47371 0.16067 0.06389 0.0
C1777 C 0.49551 0.15318 0.07011 0.0
C1778 C 0.55425 0.17248 0.08176 0.0
C1779 C 0.60059 0.12796 0.09145 0.0
C1780 C 0.57825 0.13992 0.09202 0.0
C1781 C 0.5112 0.16822 0.08054 0.0
C1782 C 0.5344 0.15966 0.08677 0.0
H1783 H 0.62366 0.07912 0.06954 0.0
H1784 H 0.58836 0.10133 0.0686 0.0
H1785 H 0.59112 0.1724 0.07948 0.0
H1786 H 0.47797 0.21643 0.08127 0.0
H1787 H 0.51635 0.20311 0.09237 0.0
C1788 C 0.50656 0.68342 0.43347 0.0
C1789 C 0.51926 0.69958 0.42093 0.0
C1790 C 0.48376 0.67898 0.42799 0.0
C1791 C 0.44454 0.67622 0.38082 0.0
H1792 H 0.40021 0.667 0.42964 0.0
C1793 C 0.35774 0.62764 0.36855 0.0
C1794 C 0.35514 0.60982 0.38463 0.0
C1795 C 0.3749 0.64426 0.37148 0.0
C1796 C 0.4123 0.66969 0.41577 0.0
H1797 H 0.51802 0.724 0.39293 0.0
H1798 H 0.4778 0.71562 0.3828 0.0
H1799 H 0.436 0.68717 0.43769 0.0
H1800 H 0.36816 0.59582 0.41661 0.0
H1801 H 0.39774 0.62464 0.42168 0.0
H1802 H 0.42132 0.65745 0.35924 0.0
C1803 C 0.48566 0.7067 0.39709 0.0
C1804 C 0.43272 0.68127 0.42036 0.0
C1805 C 0.50855 0.71151 0.4029 0.0
C1806 C 0.36974 0.6092 0.40381 0.0
C1807 C 0.38657 0.62587 0.40686 0.0
C1808 C 0.42402 0.66457 0.3762 0.0
C1809 C 0.47312 0.69037 0.40965 0.0
C1810 C 0.44947 0.6837 0.40321 0.0
C1811 C 0.38938 0.64355 0.39075 0.0
C1812 C 0.40824 0.66029 0.39394 0.0
H1813 H 0.51429 0.67407 0.44755 0.0
H1814 H 0.47463 0.66606 0.43774 0.0
H1815 H 0.45725 0.6778 0.36733 0.0
H1816 H 0.34676 0.62857 0.35358 0.0
H1817 H 0.37678 0.6577 0.35879 0.0
C1818 C 0.98697 0.28142 0.90084 0.0
C1819 C 0.97884 0.29223 0.92084 0.0
C1820 C 0.00967 0.28493 0.89355 0.0
C1821 C 0.06645 0.30382 0.91394 0.0
H1822 H 0.07333 0.33478 0.85546 0.0
C1823 C 0.12955 0.37606 0.90069 0.0
C1824 C 0.14186 0.37828 0.88009 0.0
C1825 C 0.1132 0.35887 0.90329 0.0
C1826 C 0.0719 0.3256 0.87155 0.0
H1827 H 0.98813 0.31418 0.94942 0.0
H1828 H 0.02758 0.31983 0.93708 0.0
H1829 H 0.0372 0.31534 0.86459 0.0
H1830 H 0.14695 0.36394 0.84612 0.0
H1831 H 0.1176 0.3339 0.85054 0.0
H1832 H 0.10052 0.31519 0.92154 0.0
C1833 C 0.01656 0.30882 0.92691 0.0
C1834 C 0.05124 0.31448 0.87676 0.0
C1835 C 0.99392 0.30575 0.93387 0.0
C1836 C 0.1377 0.3626 0.86219 0.0
C1837 C 0.12095 0.34549 0.86469 0.0
C1838 C 0.08704 0.31483 0.90872 0.0
C1839 C 0.0246 0.29875 0.90654 0.0
C1840 C 0.04798 0.30453 0.89847 0.0
C1841 C 0.10854 0.34353 0.88529 0.0
C1842 C 0.08952 0.32685 0.88799 0.0
H1843 H 0.97559 0.27101 0.89045 0.0
H1844 H 0.01549 0.2771 0.87772 0.0
H1845 H 0.06444 0.296 0.93068 0.0
H1846 H 0.13247 0.38772 0.9149 0.0
H1847 H 0.10366 0.35806 0.91923 0.0
C1848 C 0.62924 0.8594 0.87445 0.0
C1849 C 0.61266 0.85546 0.89156 0.0
C1850 C 0.62812 0.8792 0.86084 0.0
C1851 C 0.61449 0.91966 0.82865 0.0
H1852 H 0.60074 0.97383 0.86486 0.0
C1853 C 0.58643 0.00827 0.79177 0.0
C1854 C 0.59262 0.02778 0.80449 0.0
C1855 C 0.59281 0.98637 0.79942 0.0
C1856 C 0.60496 0.95899 0.85447 0.0
H1857 H 0.58092 0.86814 0.90649 0.0
H1858 H 0.57892 0.90227 0.88279 0.0
H1859 H 0.60327 0.93684 0.88351 0.0
H1860 H 0.61229 0.04013 0.83355 0.0
H1861 H 0.62405 0.00221 0.84638 0.0
H1862 H 0.61614 0.94219 0.79951 0.0
C1863 C 0.59311 0.89049 0.88026 0.0
C1864 C 0.60606 0.9377 0.86514 0.0
C1865 C 0.59426 0.8709 0.89383 0.0
C1866 C 0.60692 0.02528 0.8237 0.0
C1867 C 0.61358 0.00357 0.83108 0.0
C1868 C 0.61332 0.94113 0.81785 0.0
C1869 C 0.61038 0.89525 0.86415 0.0
C1870 C 0.6105 0.91776 0.85237 0.0
C1871 C 0.60568 0.98382 0.8197 0.0
C1872 C 0.60843 0.96101 0.8307 0.0
H1873 H 0.64356 0.84773 0.87223 0.0
H1874 H 0.64165 0.88247 0.84852 0.0
H1875 H 0.61795 0.90452 0.81841 0.0
H1876 H 0.57542 0.00982 0.77687 0.0
H1877 H 0.58643 0.97148 0.79029 0.0
C1878 C 0.1207 0.63515 0.11821 0.0
C1879 C 0.10342 0.64206 0.10283 0.0
C1880 C 0.11804 0.61519 0.13131 0.0
C1881 C 0.10346 0.57611 0.16371 0.0
H1882 H 0.07709 0.52536 0.12969 0.0
C1883 C 0.07562 0.48832 0.20343 0.0
C1884 C 0.07839 0.46895 0.18934 0.0
C1885 C 0.08119 0.5102 0.1951 0.0
C1886 C 0.08472 0.53925 0.13941 0.0
H1887 H 0.06917 0.63433 0.09033 0.0
H1888 H 0.06442 0.59997 0.11333 0.0
H1889 H 0.08113 0.56235 0.11133 0.0
H1890 H 0.09118 0.4568 0.15657 0.0
H1891 H 0.10151 0.49459 0.1424 0.0
H1892 H 0.1074 0.55248 0.19172 0.0
C1893 C 0.0803 0.60951 0.11482 0.0
C1894 C 0.08671 0.5606 0.12898 0.0
C1895 C 0.08302 0.62926 0.10166 0.0
C1896 C 0.08844 0.47153 0.16761 0.0
C1897 C 0.09426 0.49318 0.15947 0.0
C1898 C 0.10147 0.55457 0.17423 0.0
C1899 C 0.09801 0.60189 0.12933 0.0
C1900 C 0.09601 0.57933 0.14097 0.0
C1901 C 0.08981 0.51286 0.17269 0.0
C1902 C 0.09219 0.53589 0.16209 0.0
H1903 H 0.1366 0.64469 0.11956 0.0
H1904 H 0.13203 0.60971 0.14225 0.0
H1905 H 0.1106 0.59026 0.17342 0.0
H1906 H 0.06791 0.48673 0.22027 0.0
H1907 H 0.07758 0.52505 0.2057 0.0
C1908 C 0.4382 0.50535 0.68792 0.0
C1909 C 0.42612 0.51924 0.70349 0.0
C1910 C 0.43176 0.4826 0.68443 0.0
C1911 C 0.38411 0.44503 0.68138 0.0
H1912 H 0.4306 0.39736 0.68297 0.0
C1913 C 0.3711 0.35668 0.63698 0.0
C1914 C 0.38947 0.35134 0.62224 0.0
C1915 C 0.3734 0.37418 0.65341 0.0
C1916 C 0.41734 0.4104 0.68258 0.0
H1917 H 0.39775 0.52031 0.72757 0.0
H1918 H 0.38587 0.48032 0.72068 0.0
H1919 H 0.43873 0.43484 0.69979 0.0
H1920 H 0.42496 0.35921 0.61401 0.0
H1921 H 0.42887 0.38938 0.64221 0.0
H1922 H 0.36338 0.42121 0.6625 0.0
C1923 C 0.40059 0.48715 0.7116 0.0
C1924 C 0.42198 0.43178 0.69229 0.0
C1925 C 0.4074 0.5099 0.71554 0.0
C1926 C 0.41038 0.36303 0.62493 0.0
C1927 C 0.41272 0.3802 0.64135 0.0
C1928 C 0.37953 0.42365 0.67138 0.0
C1929 C 0.41285 0.47334 0.69609 0.0
C1930 C 0.40578 0.44954 0.69094 0.0
C1931 C 0.39421 0.38627 0.65556 0.0
C1932 C 0.39654 0.40648 0.67096 0.0
H1933 H 0.45276 0.51204 0.67849 0.0
H1934 H 0.44131 0.47234 0.67219 0.0
H1935 H 0.37141 0.45856 0.68007 0.0
H1936 H 0.35478 0.34794 0.63529 0.0
H1937 H 0.35885 0.37847 0.66417 0.0
C1938 C 0.91608 0.98313 0.28872 0.0
C1939 C 0.91119 0.96467 0.30343 0.0
C1940 C 0.91109 0.00567 0.29554 0.0
C1941 C 0.89216 0.05226 0.31378 0.0
H1942 H 0.91326 0.06121 0.3763 0.0
C1943 C 0.87893 0.13496 0.36959 0.0
C1944 C 0.89747 0.14104 0.38384 0.0
C1945 C 0.87998 0.11503 0.35614 0.0
C1946 C 0.90742 0.05907 0.35877 0.0
H1947 H 0.89505 0.95497 0.33553 0.0
H1948 H 0.88604 0.99403 0.34716 0.0
H1949 H 0.91416 0.02314 0.35957 0.0
H1950 H 0.93238 0.13219 0.39351 0.0
H1951 H 0.93419 0.09775 0.37007 0.0
H1952 H 0.88564 0.0886 0.31322 0.0
C1953 C 0.89432 0.99127 0.33073 0.0
C1954 C 0.90765 0.03718 0.34927 0.0
C1955 C 0.89946 0.96892 0.32406 0.0
C1956 C 0.9176 0.12775 0.38311 0.0
C1957 C 0.91866 0.10801 0.36968 0.0
C1958 C 0.89175 0.07433 0.32343 0.0
C1959 C 0.90101 0.00994 0.31707 0.0
C1960 C 0.90001 0.03347 0.32672 0.0
C1961 C 0.8996 0.10097 0.35672 0.0
C1962 C 0.89959 0.07791 0.34598 0.0
H1963 H 0.92508 0.9803 0.27269 0.0
H1964 H 0.91642 0.01976 0.28468 0.0
H1965 H 0.88617 0.04984 0.29634 0.0
H1966 H 0.86322 0.14491 0.3697 0.0
H1967 H 0.86504 0.10997 0.3463 0.0
C1968 C 0.02739 0.30855 0.15825 0.0
C1969 C 0.01889 0.33034 0.16421 0.0
C1970 C 0.014 0.29355 0.14506 0.0
C1971 C 0.95543 0.28639 0.11926 0.0
H1972 H 0.98984 0.26934 0.0649 0.0
C1973 C 0.92187 0.29584 0.02819 0.0
C1974 C 0.92794 0.27976 0.01127 0.0
C1975 C 0.92985 0.29343 0.05062 0.0
C1976 C 0.97997 0.27339 0.08014 0.0
H1977 H 0.98899 0.35254 0.16312 0.0
H1978 H 0.966 0.32684 0.14006 0.0
H1979 H 0.01028 0.27996 0.09965 0.0
H1980 H 0.94628 0.24795 0.00486 0.0
H1981 H 0.96071 0.2441 0.04408 0.0
H1982 H 0.92515 0.28168 0.09891 0.0
C1983 C 0.98283 0.32107 0.14547 0.0
C1984 C 0.9917 0.27943 0.10014 0.0
C1985 C 0.99617 0.33601 0.15848 0.0
C1986 C 0.94135 0.26066 0.01751 0.0
C1987 C 0.94962 0.25843 0.03992 0.0
C1988 C 0.94372 0.28059 0.09917 0.0
C1989 C 0.99187 0.30005 0.13781 0.0
C1990 C 0.97958 0.28719 0.11954 0.0
C1991 C 0.94428 0.27503 0.05656 0.0
C1992 C 0.95594 0.27514 0.07912 0.0
H1993 H 0.0448 0.30364 0.16258 0.0
H1994 H 0.02135 0.27734 0.13965 0.0
H1995 H 0.94559 0.29176 0.1341 0.0
H1996 H 0.91141 0.31063 0.02398 0.0
H1997 H 0.9257 0.30666 0.06303 0.0
C1998 C 0.5535 0.7259 0.51642 0.0
C1999 C 0.57304 0.71376 0.50925 0.0
C2000 C 0.54615 0.72454 0.53923 0.0
C2001 C 0.55017 0.68297 0.58613 0.0
H2002 H 0.51228 0.72687 0.6189 0.0
C2003 C 0.50379 0.65358 0.66543 0.0
C2004 C 0.48006 0.65763 0.66482 0.0
C2005 C 0.51857 0.66637 0.65172 0.0
C2006 C 0.52293 0.71451 0.60996 0.0
H2007 H 0.60169 0.69286 0.52043 0.0
H2008 H 0.58959 0.69139 0.5604 0.0
H2009 H 0.53315 0.73895 0.58442 0.0
H2010 H 0.45321 0.67932 0.65108 0.0
H2011 H 0.47902 0.70122 0.62618 0.0
H2012 H 0.53953 0.65835 0.61083 0.0
C2013 C 0.57928 0.70109 0.54837 0.0
C2014 C 0.53483 0.72139 0.59023 0.0
C2015 C 0.58628 0.70199 0.52553 0.0
C2016 C 0.47149 0.67593 0.65175 0.0
C2017 C 0.48629 0.6885 0.63761 0.0
C2018 C 0.53847 0.67619 0.60576 0.0
C2019 C 0.5585 0.71134 0.55525 0.0
C2020 C 0.54827 0.70553 0.57786 0.0
C2021 C 0.50983 0.68306 0.63668 0.0
C2022 C 0.5244 0.69172 0.61771 0.0
H2023 H 0.54305 0.73512 0.50411 0.0
H2024 H 0.53002 0.73256 0.54385 0.0
H2025 H 0.55975 0.67005 0.5768 0.0
H2026 H 0.5108 0.63976 0.67572 0.0
H2027 H 0.5367 0.66219 0.65183 0.0
C2028 C 0.43791 0.22375 0.97436 0.0
C2029 C 0.41865 0.21013 0.97931 0.0
C2030 C 0.4478 0.22327 0.95254 0.0
C2031 C 0.45187 0.18312 0.904 0.0
H2032 H 0.49106 0.23047 0.87847 0.0
C2033 C 0.50911 0.16107 0.82928 0.0
C2034 C 0.53238 0.16518 0.83378 0.0
C2035 C 0.4922 0.17248 0.84174 0.0
C2036 C 0.48005 0.21718 0.88536 0.0
H2037 H 0.39321 0.18719 0.96486 0.0
H2038 H 0.40974 0.1872 0.92644 0.0
H2039 H 0.46514 0.23979 0.91026 0.0
H2040 H 0.55655 0.18539 0.85339 0.0
H2041 H 0.52681 0.2052 0.87583 0.0
H2042 H 0.46696 0.16042 0.87962 0.0
C2043 C 0.4179 0.19746 0.93963 0.0
C2044 C 0.46527 0.22244 0.90359 0.0
C2045 C 0.40832 0.19752 0.96159 0.0
C2046 C 0.53862 0.18218 0.84962 0.0
C2047 C 0.52162 0.19349 0.86235 0.0
C2048 C 0.46633 0.17798 0.88571 0.0
C2049 C 0.43838 0.20948 0.9351 0.0
C2050 C 0.4514 0.2053 0.91351 0.0
C2051 C 0.49831 0.18788 0.85924 0.0
C2052 C 0.48093 0.19478 0.87649 0.0
H2053 H 0.44625 0.23364 0.98772 0.0
H2054 H 0.46365 0.2326 0.94987 0.0
H2055 H 0.442 0.16926 0.91143 0.0
H2056 H 0.50403 0.14801 0.81702 0.0
H2057 H 0.47437 0.16811 0.83872 0.0
C2058 C 0.08061 0.77678 0.46714 0.0
C2059 C 0.0683 0.76661 0.48511 0.0
C2060 C 0.0714 0.77742 0.44508 0.0
C2061 C 0.02142 0.75984 0.40862 0.0
H2062 H 0.02805 0.82219 0.38653 0.0
C2063 C 0.95596 0.80776 0.35073 0.0
C2064 C 0.96464 0.82492 0.33629 0.0
C2065 C 0.97098 0.79493 0.36445 0.0
C2066 C 0.02634 0.80452 0.39201 0.0
H2067 H 0.03765 0.74761 0.49405 0.0
H2068 H 0.02093 0.74964 0.45565 0.0
H2069 H 0.0508 0.80952 0.41859 0.0
H2070 H 0.99538 0.84091 0.32301 0.0
H2071 H 0.02165 0.81798 0.34613 0.0
H2072 H 0.99587 0.75553 0.38236 0.0
C2073 C 0.03795 0.7566 0.45834 0.0
C2074 C 0.0395 0.79718 0.41049 0.0
C2075 C 0.04747 0.75549 0.48037 0.0
C2076 C 0.98841 0.82781 0.33422 0.0
C2077 C 0.00338 0.81479 0.34753 0.0
C2078 C 0.00807 0.76728 0.39002 0.0
C2079 C 0.04936 0.76855 0.44072 0.0
C2080 C 0.03708 0.77486 0.41925 0.0
C2081 C 0.9948 0.79906 0.36367 0.0
C2082 C 0.01026 0.78981 0.38169 0.0
H2083 H 0.09687 0.78521 0.4704 0.0
H2084 H 0.08099 0.78611 0.43174 0.0
H2085 H 0.01921 0.74249 0.41488 0.0
H2086 H 0.9376 0.80543 0.35259 0.0
H2087 H 0.96383 0.78303 0.37678 0.0
C2088 C 0.15454 0.008 0.35665 0.0
C2089 C 0.15777 0.02975 0.34689 0.0
C2090 C 0.13932 0.99248 0.34686 0.0
C2091 C 0.10301 0.97833 0.29709 0.0
H2092 H 0.06194 0.95634 0.34464 0.0
C2093 C 0.01379 0.93699 0.28012 0.0
C2094 C 0.00594 0.9205 0.29587 0.0
C2095 C 0.03499 0.94777 0.28336 0.0
C2096 C 0.07346 0.96186 0.33114 0.0
H2097 H 0.14908 0.05186 0.31836 0.0
H2098 H 0.12161 0.02463 0.30129 0.0
H2099 H 0.09442 0.98001 0.35498 0.0
H2100 H 0.01498 0.90081 0.32609 0.0
H2101 H 0.05222 0.919 0.33134 0.0
H2102 H 0.0816 0.96019 0.2732 0.0
C2103 C 0.13115 0.0196 0.31642 0.0
C2104 C 0.09207 0.97554 0.33708 0.0
C2105 C 0.14676 0.03516 0.32616 0.0
C2106 C 0.02039 0.91377 0.31392 0.0
C2107 C 0.04168 0.92428 0.31696 0.0
C2108 C 0.08429 0.96443 0.2911 0.0
C2109 C 0.12666 -0.00151 0.32728 0.0
C2110 C 0.10712 0.98384 0.3202 0.0
C2111 C 0.04882 0.94205 0.30228 0.0
C2112 C 0.06936 0.95598 0.30813 0.0
H2113 H 0.16321 0.0033 0.37241 0.0
H2114 H 0.13664 0.97612 0.35526 0.0
H2115 H 0.11436 0.98454 0.28376 0.0
H2116 H 0.00301 0.94252 0.26601 0.0
H2117 H 0.03991 0.96143 0.27179 0.0
C2118 C 0.48148 0.07686 0.81084 0.0
C2119 C 0.49574 0.0717 0.79209 0.0
C2120 C 0.45915 0.06836 0.81181 0.0
C2121 C 0.42613 0.01911 0.79335 0.0
H2122 H 0.37614 0.05265 0.82188 0.0
C2123 C 0.34563 0.973 0.82805 0.0
C2124 C 0.34125 0.97863 0.85112 0.0
C2125 C 0.36044 0.98656 0.81487 0.0
C2126 C 0.38987 0.04309 0.81373 0.0
H2127 H 0.4974 0.05432 0.75916 0.0
H2128 H 0.45829 0.03916 0.76107 0.0
H2129 H 0.41029 0.07326 0.80905 0.0
H2130 H 0.34793 0.00356 0.87802 0.0
H2131 H 0.37365 0.02693 0.85522 0.0
H2132 H 0.4063 0.98878 0.79921 0.0
C2133 C 0.46451 0.04982 0.77497 0.0
C2134 C 0.40938 0.05488 0.8064 0.0
C2135 C 0.48686 0.05855 0.77388 0.0
C2136 C 0.35111 -0.00141 0.86038 0.0
C2137 C 0.36566 0.01218 0.8472 0.0
C2138 C 0.40661 0.0073 0.80073 0.0
C2139 C 0.45058 0.05437 0.79413 0.0
C2140 C 0.4281 0.04286 0.79704 0.0
C2141 C 0.37083 0.00612 0.82445 0.0
C2142 C 0.38874 0.01907 0.81189 0.0
H2143 H 0.48772 0.08711 0.82505 0.0
H2144 H 0.44894 0.07191 0.82695 0.0
H2145 H 0.44034 0.00937 0.78632 0.0
H2146 H 0.33821 0.95776 0.82041 0.0
H2147 H 0.36408 0.98154 0.79734 0.0
C2148 C 0.66795 0.47893 0.68479 0.0
C2149 C 0.65757 0.4676 0.66619 0.0
C2150 C 0.65439 0.49098 0.70067 0.0
C2151 C 0.59548 0.49639 0.72267 0.0
H2152 H 0.60354 0.56236 0.71974 0.0
C2153 C 0.53286 0.57458 0.70965 0.0
C2154 C 0.51544 0.56943 0.7255 0.0
C2155 C 0.55459 0.56474 0.71181 0.0
C2156 C 0.60128 0.54396 0.72115 0.0
H2157 H 0.62519 0.45876 0.65019 0.0
H2158 H 0.60164 0.47905 0.67808 0.0
H2159 H 0.63423 0.537 0.70623 0.0
H2160 H 0.50768 0.55138 0.7571 0.0
H2161 H 0.54569 0.53384 0.76065 0.0
H2162 H 0.56192 0.50316 0.73578 0.0
C2163 C 0.6201 0.47891 0.68039 0.0
C2164 C 0.6189 0.52948 0.7136 0.0
C2165 C 0.63357 0.46749 0.66432 0.0
C2166 C 0.52071 0.55558 0.74453 0.0
C2167 C 0.54245 0.54551 0.74656 0.0
C2168 C 0.57797 0.51082 0.73036 0.0
C2169 C 0.63035 0.49111 0.69846 0.0
C2170 C 0.61558 0.50563 0.71312 0.0
C2171 C 0.55934 0.54937 0.72976 0.0
C2172 C 0.58018 0.53476 0.72845 0.0
H2173 H 0.68648 0.47927 0.68646 0.0
H2174 H 0.66262 0.50044 0.7144 0.0
H2175 H 0.59259 0.47802 0.72251 0.0
H2176 H 0.52942 0.58543 0.69496 0.0
H2177 H 0.56711 0.56791 0.69843 0.0
C2178 C 0.96727 0.4212 0.20309 0.0
C2179 C 0.98524 0.42635 0.2183 0.0
C2180 C 0.9455 0.43068 0.2064 0.0
C2181 C 0.91994 0.48274 0.22675 0.0
H2182 H 0.8631 0.45099 0.21301 0.0
C2183 C 0.84229 0.53301 0.19402 0.0
C2184 C 0.83508 0.52397 0.17287 0.0
C2185 C 0.85564 0.51962 0.20891 0.0
C2186 C 0.87877 0.46011 0.21713 0.0
H2187 H 0.99426 0.44474 0.24946 0.0
H2188 H 0.95626 0.46179 0.25482 0.0
H2189 H 0.89771 0.42888 0.22153 0.0
H2190 H 0.83407 0.49338 0.15168 0.0
H2191 H 0.8572 0.47032 0.1772 0.0
H2192 H 0.90171 0.51389 0.22035 0.0
C2193 C 0.95906 0.45023 0.24051 0.0
C2194 C 0.89852 0.44745 0.22202 0.0
C2195 C 0.98076 0.44046 0.2374 0.0
C2196 C 0.83972 0.5009 0.16774 0.0
C2197 C 0.85276 0.48755 0.18258 0.0
C2198 C 0.90025 0.49541 0.22159 0.0
C2199 C 0.94135 0.44572 0.22482 0.0
C2200 C 0.91952 0.45866 0.22573 0.0
C2201 C 0.86162 0.49695 0.20294 0.0
C2202 C 0.87978 0.48418 0.21545 0.0
H2203 H 0.97013 0.41025 0.18832 0.0
H2204 H 0.93222 0.42715 0.19387 0.0
H2205 H 0.93594 0.4918 0.22952 0.0
H2206 H 0.83881 0.55075 0.1984 0.0
H2207 H 0.86209 0.52728 0.22457 0.0
C2208 C 0.30017 0.15975 0.03045 0.0
C2209 C 0.32175 0.16466 0.02088 0.0
C2210 C 0.28388 0.1474 0.01776 0.0
C2211 C 0.27259 0.12265 0.95946 0.0
H2212 H 0.25808 0.06755 0.9937 0.0
C2213 C 0.28472 0.03268 0.92515 0.0
C2214 C 0.26968 0.01497 0.93146 0.0
C2215 C 0.28122 0.05495 0.93318 0.0
C2216 C 0.26134 0.08301 0.98392 0.0
H2217 H 0.3424 0.16274 0.98998 0.0
H2218 H 0.3144 0.14132 0.96807 0.0
H2219 H 0.2692 0.10213 0.01418 0.0
H2220 H 0.23854 0.00687 0.95025 0.0
H2221 H 0.23284 0.04586 0.96487 0.0
H2222 H 0.2668 0.10268 0.92912 0.0
C2223 C 0.30977 0.14683 0.98522 0.0
C2224 C 0.26766 0.10291 0.99567 0.0
C2225 C 0.32601 0.15886 -0.0021 0.0
C2226 C 0.25045 0.02019 0.94513 0.0
C2227 C 0.24715 0.04245 0.95349 0.0
C2228 C 0.26649 0.10268 0.94771 0.0
C2229 C 0.28888 0.14013 0.99525 0.0
C2230 C 0.27475 0.12249 0.98351 0.0
C2231 C 0.26277 0.05992 0.94793 0.0
C2232 C 0.26211 0.08235 0.95984 0.0
H2233 H 0.29644 0.16416 0.04813 0.0
H2234 H 0.26787 0.1426 0.02589 0.0
H2235 H 0.27744 0.13766 0.94965 0.0
H2236 H 0.29956 0.02922 0.91447 0.0
H2237 H 0.29373 0.06801 0.92888 0.0
C2238 C 0.82155 0.33829 0.97904 0.0
C2239 C 0.84461 0.34421 0.97483 0.0
C2240 C 0.80855 0.35064 0.99518 0.0
C2241 C 0.81687 0.38881 0.04519 0.0
H2242 H 0.75734 0.41455 0.03048 0.0
C2243 C 0.78611 0.4644 0.0973 0.0
C2244 C 0.77754 0.48251 0.084 0.0
C2245 C 0.78661 0.44212 0.08846 0.0
C2246 C 0.77396 0.4075 0.03491 0.0
H2247 H 0.87165 0.36841 0.98353 0.0
H2248 H 0.84919 0.38973 0.01101 0.0
H2249 H 0.77444 0.38585 0.00506 0.0
H2250 H 0.76132 0.49154 0.05185 0.0
H2251 H 0.76364 0.45321 0.03571 0.0
H2252 H 0.81785 0.41156 0.07358 0.0
C2253 C 0.84124 0.37524 0.00248 0.0
C2254 C 0.78359 0.39082 0.02047 0.0
C2255 C 0.8541 0.36305 0.98653 0.0
C2256 C 0.76797 0.47778 0.06244 0.0
C2257 C 0.76918 0.45565 0.05327 0.0
C2258 C 0.8075 0.40562 0.05935 0.0
C2259 C 0.81849 0.36897 0.00735 0.0
C2260 C 0.80566 0.3822 0.02492 0.0
C2261 C 0.77951 0.43769 0.06575 0.0
C2262 C 0.78638 0.41602 0.05388 0.0
H2263 H 0.81373 0.32387 0.97028 0.0
H2264 H 0.79097 0.34558 -0.0015 0.0
H2265 H 0.83369 0.38202 0.04936 0.0
H2266 H 0.79326 0.46765 0.11416 0.0
H2267 H 0.79384 0.42865 0.09901 0.0
C2268 C 0.65138 0.65403 0.49134 0.0
C2269 C 0.65921 0.66029 0.46945 0.0
C2270 C 0.66561 0.64229 0.50642 0.0
C2271 C 0.71109 0.6005 0.50463 0.0
H2272 H 0.70267 0.60363 0.57063 0.0
C2273 C 0.73079 0.52309 0.5616 0.0
C2274 C 0.71126 0.51615 0.57405 0.0
C2275 C 0.73212 0.54508 0.55226 0.0
C2276 C 0.70545 0.60268 0.55227 0.0
H2277 H 0.68856 0.6605 0.44662 0.0
H2278 H 0.71367 0.63925 0.4731 0.0
H2279 H 0.6923 0.63652 0.54682 0.0
H2280 H 0.67861 0.52755 0.58788 0.0
H2281 H 0.6809 0.56597 0.57155 0.0
H2282 H 0.72312 0.56626 0.50994 0.0
C2283 C 0.69639 0.64356 0.47847 0.0
C2284 C 0.69955 0.62147 0.53864 0.0
C2285 C 0.68209 0.65567 0.46335 0.0
C2286 C 0.69378 0.53224 0.57826 0.0
C2287 C 0.69521 0.55433 0.56906 0.0
C2288 C 0.71719 0.5818 0.51828 0.0
C2289 C 0.68807 0.63636 0.49999 0.0
C2290 C 0.70104 0.62004 0.51458 0.0
C2291 C 0.71406 0.5607 0.55539 0.0
C2292 C 0.71326 0.5823 0.54208 0.0
H2293 H 0.63394 0.65774 0.4967 0.0
H2294 H 0.65847 0.63674 0.52265 0.0
H2295 H 0.71234 0.59879 0.48616 0.0
H2296 H 0.74475 0.51123 0.55818 0.0
H2297 H 0.74689 0.54962 0.54194 0.0
C2298 C 0.17183 0.84421 0.52935 0.0
C2299 C 0.15165 0.834 0.52096 0.0
C2300 C 0.18313 0.86098 0.51634 0.0
C2301 C 0.16592 0.90464 0.47598 0.0
H2302 H 0.23064 0.91714 0.46668 0.0
C2303 C 0.19182 0.982 0.42379 0.0
C2304 C 0.2092 0.996 0.43277 0.0
C2305 C 0.18862 0.95989 0.43213 0.0
C2306 C 0.21252 0.91389 0.4693 0.0
H2307 H 0.12896 0.83109 0.49162 0.0
H2308 H 0.14885 0.85986 0.46886 0.0
H2309 H 0.21877 0.88149 0.48587 0.0
H2310 H 0.23774 0.99762 0.45654 0.0
H2311 H 0.23148 0.959 0.47206 0.0
H2312 H 0.15934 0.93695 0.46041 0.0
C2313 C 0.15561 0.85551 0.48563 0.0
C2314 C 0.20578 0.89352 0.4802 0.0
C2315 C 0.14424 0.83908 0.49864 0.0
C2316 C 0.22416 0.98709 0.44944 0.0
C2317 C 0.22064 0.96499 0.4582 0.0
C2318 C 0.17258 0.92487 0.46536 0.0
C2319 C 0.17441 0.86747 0.49481 0.0
C2320 C 0.18236 0.88865 0.48334 0.0
C2321 C 0.20233 0.95146 0.45011 0.0
C2322 C 0.19591 0.92967 0.46159 0.0
H2323 H 0.17786 0.84049 0.54654 0.0
H2324 H 0.1976 0.86996 0.52378 0.0
H2325 H 0.14776 0.90168 0.4788 0.0
H2326 H 0.18038 0.98832 0.41057 0.0
H2327 H 0.17483 0.94965 0.425 0.0
C2328 C 0.97151 0.68375 0.83919 0.0
C2329 C 0.97185 0.65995 0.84335 0.0
C2330 C 0.98617 0.69846 0.85142 0.0
C2331 C 0.03932 0.69678 0.88639 0.0
H2332 H 0.01461 0.7497 0.91818 0.0
C2333 C 0.04902 0.73831 0.97987 0.0
C2334 C 0.07192 0.73202 0.98361 0.0
C2335 C 0.03996 0.73809 0.95768 0.0
C2336 C 0.02184 0.73497 0.90945 0.0
H2337 H 0.98755 0.63314 0.86402 0.0
H2338 H 0.01245 0.65848 0.88517 0.0
H2339 H 0.9918 0.73083 0.88853 0.0
H2340 H 0.10417 0.72332 0.9674 0.0
H2341 H 0.089 0.72479 0.92843 0.0
H2342 H 0.06817 0.699 0.90843 0.0
C2343 C 0.00141 0.66585 0.87215 0.0
C2344 C 0.00885 0.72438 0.8922 0.0
C2345 C 0.9869 0.65129 0.8601 0.0
C2346 C 0.08632 0.72794 0.9648 0.0
C2347 C 0.0775 0.72854 0.94253 0.0
C2348 C 0.05206 0.70701 0.9038 0.0
C2349 C 0.00146 0.68954 0.86783 0.0
C2350 C 0.01701 0.70442 0.88142 0.0
C2351 C 0.05384 0.7321 0.93876 0.0
C2352 C 0.04303 0.72555 0.91644 0.0
H2353 H 0.96012 0.69096 0.82639 0.0
H2354 H 0.98577 0.71669 0.84785 0.0
H2355 H 0.04632 0.68177 0.8779 0.0
H2356 H 0.03761 0.74141 0.99424 0.0
H2357 H 0.02167 0.74078 0.95578 0.0
C2358 C 0.49192 0.34139 0.3278 0.0
C2359 C 0.51565 0.33732 0.32817 0.0
C2360 C 0.47736 0.3291 0.34217 0.0
C2361 C 0.47303 0.28285 0.38569 0.0
H2362 H 0.4404 0.3301 0.4194 0.0
C2363 C 0.44434 0.2735 0.48016 0.0
C2364 C 0.42578 0.28681 0.48784 0.0
C2365 C 0.45149 0.27482 0.45729 0.0
C2366 C 0.44877 0.31643 0.40997 0.0
H2367 H 0.54269 0.31592 0.34201 0.0
H2368 H 0.51722 0.29479 0.36796 0.0
H2369 H 0.45952 0.33981 0.3841 0.0
H2370 H 0.39865 0.31004 0.47754 0.0
H2371 H 0.41024 0.31143 0.43744 0.0
H2372 H 0.46255 0.25957 0.41216 0.0
C2373 C 0.50981 0.30718 0.35625 0.0
C2374 C 0.45984 0.32206 0.38963 0.0
C2375 C 0.5244 0.31929 0.3415 0.0
C2376 C 0.41335 0.30002 0.47206 0.0
C2377 C 0.42008 0.30086 0.44913 0.0
C2378 C 0.46165 0.2771 0.40608 0.0
C2379 C 0.48636 0.31289 0.35756 0.0
C2380 C 0.47238 0.30548 0.37743 0.0
C2381 C 0.43985 0.2891 0.44167 0.0
C2382 C 0.44971 0.29397 0.41866 0.0
H2383 H 0.4848 0.35503 0.31735 0.0
H2384 H 0.45928 0.33349 0.34247 0.0
H2385 H 0.48258 0.26974 0.37658 0.0
H2386 H 0.45412 0.26314 0.4921 0.0
H2387 H 0.46687 0.26565 0.45225 0.0
C2388 C 0.56386 0.75892 0.02563 0.0
C2389 C 0.57654 0.77861 0.01968 0.0
C2390 C 0.55342 0.75721 0.04714 0.0
C2391 C 0.54983 0.78421 0.1048 0.0
H2392 H 0.4841 0.7767 0.09701 0.0
C2393 C 0.48507 0.83989 0.14946 0.0
C2394 C 0.46355 0.83152 0.15636 0.0
C2395 C 0.50082 0.82558 0.13869 0.0
C2396 C 0.50244 0.77814 0.09979 0.0
H2397 H 0.58978 0.81101 0.03239 0.0
H2398 H 0.57156 0.80806 0.0698 0.0
H2399 H 0.51002 0.76515 0.06632 0.0
H2400 H 0.44194 0.80135 0.1583 0.0
H2401 H 0.46954 0.77613 0.13846 0.0
H2402 H 0.54205 0.79869 0.13766 0.0
C2403 C 0.56969 0.79391 0.05787 0.0
C2404 C 0.51733 0.77157 0.08217 0.0
C2405 C 0.57997 0.79572 0.03632 0.0
C2406 C 0.45838 0.80821 0.153 0.0
C2407 C 0.47413 0.79385 0.14173 0.0
C2408 C 0.53496 0.79072 0.12243 0.0
C2409 C 0.55566 0.77502 0.06322 0.0
C2410 C 0.54104 0.77575 0.08402 0.0
C2411 C 0.49541 0.80253 0.13429 0.0
C2412 C 0.51105 0.78899 0.1195 0.0
H2413 H 0.561 0.74531 0.01329 0.0
H2414 H 0.54285 0.74239 0.05088 0.0
H2415 H 0.56808 0.7872 0.10685 0.0
H2416 H 0.48969 0.85771 0.15216 0.0
H2417 H 0.51686 0.83293 0.13282 0.0
C2418 C 0.92952 0.20521 0.52766 0.0
C2419 C 0.93532 0.22065 0.51013 0.0
C2420 C 0.93836 0.20807 0.54973 0.0
C2421 C 0.98972 0.22647 0.57735 0.0
H2422 H 0.95516 0.21518 0.63306 0.0
C2423 C 0.03584 0.19175 0.6563 0.0
C2424 C 0.02531 0.1714 0.66369 0.0
C2425 C 0.02359 0.20737 0.64269 0.0
C2426 C 0.9651 0.21855 0.61772 0.0
H2427 H 0.95437 0.25162 0.5021 0.0
H2428 H 0.97049 0.25611 0.54065 0.0
H2429 H 0.93484 0.22416 0.59753 0.0
H2430 H 0.99326 0.15255 0.66497 0.0
H2431 H 0.97216 0.17925 0.64133 0.0
H2432 H 0.01982 0.21874 0.59676 0.0
C2433 C 0.9588 0.24205 0.53729 0.0
C2434 C 0.95344 0.22374 0.59744 0.0
C2435 C 0.94957 0.23946 0.51529 0.0
C2436 C 0.00189 0.16798 0.65919 0.0
C2437 C 0.98969 0.18351 0.64582 0.0
C2438 C 0.00137 0.22092 0.59755 0.0
C2439 C 0.95349 0.22621 0.5546 0.0
C2440 C 0.96562 0.22668 0.57688 0.0
C2441 C 0.00062 0.20289 0.63652 0.0
C2442 C 0.9891 0.21566 0.61766 0.0
H2443 H 0.91846 0.19066 0.52422 0.0
H2444 H 0.93425 0.19543 0.56272 0.0
H2445 H -0.0005 0.22861 0.56168 0.0
H2446 H 0.05388 0.19482 0.65965 0.0
H2447 H 0.03241 0.2223 0.63603 0.0
C2448 C 0.83625 0.99153 0.6435 0.0
C2449 C 0.83697 0.9687 0.65103 0.0
C2450 C 0.8482 0.0085 0.65526 0.0
C2451 C 0.88327 0.02188 0.70691 0.0
H2452 H 0.91865 0.05634 0.66237 0.0
C2453 C 0.97218 0.06184 0.724 0.0
C2454 C 0.97925 0.08017 0.71008 0.0
C2455 C 0.95008 0.05278 0.7217 0.0
C2456 C 0.90856 0.04745 0.6752 0.0
H2457 H 0.84921 0.94574 0.67748 0.0
H2458 H 0.87132 0.97542 0.69769 0.0
H2459 H 0.8884 0.0314 0.64936 0.0
H2460 H 0.96818 0.10532 0.68509 0.0
H2461 H 0.92929 0.09027 0.68182 0.0
H2462 H 0.90441 0.03753 0.73271 0.0
C2463 C 0.86107 0.98029 0.68297 0.0
C2464 C 0.89116 0.03301 0.66768 0.0
C2465 C 0.8486 0.96328 0.67138 0.0
C2466 C 0.96322 0.09088 0.69568 0.0
C2467 C 0.94101 0.08218 0.69377 0.0
C2468 C 0.90081 0.0365 0.71451 0.0
C2469 C 0.86166 0.0029 0.67446 0.0
C2470 C 0.87849 0.01981 0.68335 0.0
C2471 C 0.93464 0.06218 0.70569 0.0
C2472 C 0.91388 0.04919 0.69864 0.0
H2473 H 0.82693 0.99614 0.62807 0.0
H2474 H 0.84779 0.02587 0.64865 0.0
H2475 H 0.87369 0.012 0.71939 0.0
H2476 H 0.98426 0.0533 0.73526 0.0
H2477 H 0.94581 0.03736 0.73112 0.0
C2478 C 0.64976 0.02222 0.16449 0.0
C2479 C 0.66174 0.01395 0.14527 0.0
C2480 C 0.63395 0.00809 0.17582 0.0
C2481 C 0.59625 0.96078 0.16021 0.0
H2482 H 0.57943 0.95968 0.22457 0.0
C2483 C 0.51835 0.90961 0.1878 0.0
C2484 C 0.5029 0.92098 0.20237 0.0
C2485 C 0.54072 0.91765 0.18522 0.0
C2486 C 0.58393 0.95988 0.20654 0.0
H2487 H 0.6687 0.98396 0.12437 0.0
H2488 H 0.64175 0.95921 0.14446 0.0
H2489 H 0.61418 0.98016 0.21243 0.0
H2490 H 0.49902 0.94876 0.2268 0.0
H2491 H 0.53798 0.96349 0.22161 0.0
H2492 H 0.56588 0.94152 0.1539 0.0
C2493 C 0.64386 0.97672 0.15035 0.0
C2494 C 0.6038 0.97156 0.19962 0.0
C2495 C 0.65932 0.99085 0.13889 0.0
C2496 C 0.51063 0.93971 0.21543 0.0
C2497 C 0.53298 0.94806 0.21253 0.0
C2498 C 0.5765 0.94928 0.16704 0.0
C2499 C 0.63016 0.9855 0.16817 0.0
C2500 C 0.61011 0.97212 0.17634 0.0
C2501 C 0.54799 0.93758 0.19675 0.0
C2502 C 0.57001 0.94869 0.19025 0.0
H2503 H 0.65139 0.03999 0.16972 0.0
H2504 H 0.62362 0.01534 0.18948 0.0
H2505 H 0.60021 0.96143 0.14205 0.0
H2506 H 0.51292 0.89484 0.17786 0.0
H2507 H 0.55205 0.90875 0.17346 0.0
C2508 C 0.46178 0.41872 0.28271 0.0
C2509 C 0.47952 0.42572 0.26799 0.0
C2510 C 0.43979 0.42791 0.28048 0.0
C2511 C 0.41375 0.48167 0.26501 0.0
H2512 H 0.35812 0.44949 0.28224 0.0
C2513 C 0.33797 0.53023 0.30518 0.0
C2514 C 0.33264 0.52081 0.32672 0.0
C2515 C 0.35061 0.51745 0.28916 0.0
C2516 C 0.37341 0.45874 0.27712 0.0
H2517 H 0.4878 0.44674 0.23843 0.0
H2518 H 0.44927 0.46319 0.23481 0.0
H2519 H 0.39154 0.42772 0.26925 0.0
H2520 H 0.33454 0.49011 0.34764 0.0
H2521 H 0.35635 0.46799 0.31998 0.0
H2522 H 0.39631 0.51253 0.27455 0.0
C2523 C 0.45246 0.45051 0.24801 0.0
C2524 C 0.39251 0.44628 0.26968 0.0
C2525 C 0.47447 0.44105 0.25006 0.0
C2526 C 0.33865 0.49793 0.33129 0.0
C2527 C 0.35093 0.48513 0.31527 0.0
C2528 C 0.39466 0.49413 0.27253 0.0
C2529 C 0.43508 0.44448 0.26361 0.0
C2530 C 0.41325 0.45755 0.26477 0.0
C2531 C 0.3577 0.49494 0.29432 0.0
C2532 C 0.37476 0.48267 0.27989 0.0
H2533 H 0.46509 0.40678 0.29656 0.0
H2534 H 0.42686 0.4231 0.29295 0.0
H2535 H 0.42951 0.49085 0.26143 0.0
H2536 H 0.33348 0.54783 0.30121 0.0
H2537 H 0.35553 0.52541 0.27311 0.0
C2538 C 0.16558 0.49563 0.82818 0.0
C2539 C 0.1613 0.47211 0.82561 0.0
C2540 C 0.15311 0.51158 0.8155 0.0
C2541 C 0.10878 0.51978 0.77034 0.0
H2542 H 0.08273 0.56069 0.81593 0.0
C2543 C 0.01778 0.55759 0.76429 0.0
C2544 C 0.01246 0.57726 0.77714 0.0
C2545 C 0.04018 0.54896 0.76412 0.0
C2546 C 0.09013 0.55003 0.80262 0.0
H2547 H 0.14218 0.44644 0.80683 0.0
H2548 H 0.11961 0.47447 0.78496 0.0
H2549 H 0.11543 0.53746 0.82576 0.0
H2550 H 0.02647 0.60486 0.79768 0.0
H2551 H 0.06583 0.59069 0.79629 0.0
H2552 H 0.0828 0.53207 0.74738 0.0
C2553 C 0.13295 0.48061 0.79637 0.0
C2554 C 0.10897 0.53655 0.80835 0.0
C2555 C 0.14574 0.46457 0.80889 0.0
C2556 C 0.03016 0.58941 0.78799 0.0
C2557 C 0.05265 0.58117 0.78728 0.0
C2558 C 0.08994 0.53355 0.76446 0.0
C2559 C 0.13576 0.50427 0.80043 0.0
C2560 C 0.11818 0.52088 0.79251 0.0
C2561 C 0.05771 0.56016 0.77642 0.0
C2562 C 0.07999 0.5484 0.78078 0.0
H2563 H 0.17766 0.5017 0.84097 0.0
H2564 H 0.15595 0.52968 0.81866 0.0
H2565 H 0.11563 0.50792 0.75776 0.0
H2566 H 0.00435 0.54792 0.75581 0.0
H2567 H 0.04328 0.53269 0.75569 0.0
C2568 C 0.6929 0.83484 0.96658 0.0
C2569 C 0.67158 0.83007 0.97684 0.0
C2570 C 0.70945 0.84764 0.97844 0.0
C2571 C 0.72324 0.87278 0.03582 0.0
H2572 H 0.73796 0.92732 0.00078 0.0
C2573 C 0.71597 0.96269 0.07085 0.0
C2574 C 0.73055 0.98028 0.06324 0.0
C2575 C 0.71875 0.94034 0.06283 0.0
C2576 C 0.73469 0.912 0.01075 0.0
H2577 H 0.65167 0.83311 0.00816 0.0
H2578 H 0.68023 0.8553 0.02865 0.0
H2579 H 0.72459 0.89312 0.98097 0.0
H2580 H 0.7603 0.98809 0.04231 0.0
H2581 H 0.76479 0.94884 0.02769 0.0
H2582 H 0.73153 0.89243 0.06577 0.0
C2583 C 0.68436 0.84927 0.01155 0.0
C2584 C 0.72702 0.89233 -0.00062 0.0
C2585 C 0.66782 0.83677 -0.00032 0.0
C2586 C 0.74881 0.97483 0.04842 0.0
C2587 C 0.75136 0.95244 0.04005 0.0
C2588 C 0.73081 0.89247 0.04719 0.0
C2589 C 0.70505 0.85553 0.00084 0.0
C2590 C 0.71991 0.87301 0.01193 0.0
C2591 C 0.73599 0.93511 0.04678 0.0
C2592 C 0.73532 0.91266 0.03484 0.0
H2593 H 0.69629 0.8298 0.94901 0.0
H2594 H 0.72529 0.85212 0.9698 0.0
H2595 H 0.71836 0.85796 0.0459 0.0
H2596 H 0.70188 0.96637 0.08244 0.0
H2597 H 0.70642 0.92747 0.06811 0.0
C2598 C 0.21978 0.51844 0.93789 0.0
C2599 C 0.20631 0.51194 0.91899 0.0
C2600 C 0.21895 0.54093 0.94619 0.0
C2601 C 0.17881 0.5898 0.94599 0.0
H2602 H 0.22684 0.61969 0.98113 0.0
C2603 C 0.15741 0.67118 0.99285 0.0
C2604 C 0.16131 0.66953 0.01653 0.0
C2605 C 0.16906 0.65686 0.97768 0.0
C2606 C 0.21336 0.61157 0.97122 0.0
H2607 H 0.18311 0.52411 0.89262 0.0
H2608 H 0.1825 0.56359 0.90632 0.0
H2609 H 0.23563 0.58477 0.95934 0.0
H2610 H 0.1818 0.65337 0.04295 0.0
H2611 H 0.20191 0.62763 0.01634 0.0
H2612 H 0.15647 0.61609 0.95806 0.0
C2613 C 0.19289 0.5512 0.91547 0.0
C2614 C 0.21832 0.59154 0.95884 0.0
C2615 C 0.19329 0.52862 0.90753 0.0
C2616 C 0.17863 0.65492 0.0247 0.0
C2617 C 0.19013 0.64027 0.00947 0.0
C2618 C 0.17398 0.60982 0.95805 0.0
C2619 C 0.20497 0.55745 0.93546 0.0
C2620 C 0.20095 0.58018 0.9464 0.0
C2621 C 0.18448 0.64029 0.98598 0.0
C2622 C 0.19106 0.62075 0.97109 0.0
H2623 H 0.22999 0.50585 0.94701 0.0
H2624 H 0.22832 0.54497 0.96172 0.0
H2625 H 0.16478 0.58132 0.93723 0.0
H2626 H 0.14425 0.68254 0.98621 0.0
H2627 H 0.16474 0.65756 0.95961 0.0
C2628 C 0.31433 0.34144 0.53309 0.0
C2629 C 0.33722 0.33716 0.52677 0.0
C2630 C 0.29974 0.35353 0.51826 0.0
C2631 C 0.29494 0.37509 0.45825 0.0
H2632 H 0.2715 0.43051 0.48666 0.0
C2633 C 0.29917 0.46297 0.41663 0.0
C2634 C 0.2823 0.47955 0.42135 0.0
C2635 C 0.29767 0.4411 0.42623 0.0
C2636 C 0.27732 0.41489 0.47841 0.0
H2637 H 0.36231 0.34057 0.49944 0.0
H2638 H 0.33716 0.36149 0.47387 0.0
H2639 H 0.28348 0.39855 0.51067 0.0
H2640 H 0.24976 0.48563 0.4386 0.0
H2641 H 0.2474 0.44745 0.45557 0.0
H2642 H 0.29036 0.39216 0.42605 0.0
C2643 C 0.3303 0.35564 0.49012 0.0
C2644 C 0.28415 0.39653 0.4922 0.0
C2645 C 0.34485 0.34394 0.50495 0.0
C2646 C 0.26317 0.47332 0.43474 0.0
C2647 C 0.26178 0.45148 0.4445 0.0
C2648 C 0.28819 0.39347 0.44447 0.0
C2649 C 0.30776 0.36104 0.49675 0.0
C2650 C 0.29421 0.37697 0.48229 0.0
C2651 C 0.27934 0.43537 0.44085 0.0
C2652 C 0.28046 0.41398 0.4545 0.0
H2653 H 0.308 0.33626 0.54978 0.0
H2654 H 0.28242 0.35748 0.52378 0.0
H2655 H 0.30222 0.36 0.45014 0.0
H2656 H 0.31401 0.46712 0.40623 0.0
H2657 H 0.31162 0.42915 0.42329 0.0
C2658 C 0.82399 0.15308 0.46846 0.0
C2659 C 0.84674 0.15745 0.4753 0.0
C2660 C 0.81 0.13847 0.48142 0.0
C2661 C 0.80605 0.10844 0.53767 0.0
H2662 H 0.78123 0.05817 0.50179 0.0
C2663 C 0.80513 0.01608 0.56858 0.0
C2664 C 0.78682 0.00146 0.56292 0.0
C2665 C 0.80554 0.03862 0.56068 0.0
C2666 C 0.7875 0.07232 0.5121 0.0
H2667 H 0.87209 0.1512 0.50188 0.0
H2668 H 0.84792 0.12582 0.52423 0.0
H2669 H 0.79438 0.09282 0.48246 0.0
H2670 H 0.75413 -0.00077 0.54524 0.0
H2671 H 0.75513 0.03878 0.5309 0.0
H2672 H 0.80052 0.08727 0.56716 0.0
C2673 C 0.84075 0.13364 0.50897 0.0
C2674 C 0.79503 0.0922 0.50102 0.0
C2675 C 0.85473 0.14802 0.49599 0.0
C2676 C 0.76849 0.01012 0.54982 0.0
C2677 C 0.76906 0.03268 0.5416 0.0
C2678 C 0.7986 0.08855 0.54872 0.0
C2679 C 0.81843 0.12824 0.50157 0.0
C2680 C 0.80536 0.11001 0.51361 0.0
C2681 C 0.78775 0.04705 0.54674 0.0
C2682 C 0.79024 0.0699 0.53592 0.0
H2683 H 0.81731 0.16016 0.45263 0.0
H2684 H 0.79282 0.13471 0.47538 0.0
H2685 H 0.81349 0.1221 0.54787 0.0
H2686 H 0.8194 0.00999 0.57884 0.0
H2687 H 0.82033 0.04916 0.56467 0.0
loop_
_geom_bond_atom_site_label_1
_geom_bond_atom_site_label_2
_geom_bond_distance
_geom_bond_site_symmetry_2
_ccdc_geom_bond_type
Sc0 O3 2.025 . S
Sc0 O10 2.105 . S
Sc0 O13 2.105 . S
Sc0 O16 2.105 . S
Sc0 O19 2.105 . S
Sc1 O3 2.025 . S
Sc1 O11 2.105 . S
Sc1 O15 2.105 . S
Sc1 O17 2.105 . S
Sc1 O21 2.105 . S
Sc2 O3 2.025 . S
Sc2 O12 2.105 . S
Sc2 O14 2.105 . S
Sc2 O18 2.105 . S
Sc2 O20 2.105 . S
O3 Sc0 2.025 . S
O3 Sc1 2.025 . S
O3 Sc2 2.025 . S
C4 O10 1.268 . S
C4 O20 1.268 . S
C5 O11 1.268 . S
C5 O19 1.268 . S
C6 O12 1.268 . S
C6 O21 1.268 . S
C7 O13 1.268 . S
C7 O17 1.268 . S
C8 O14 1.268 1_655 S
C8 O16 1.268 1_655 S
C9 O15 1.268 . S
C9 O18 1.268 . S
O10 Sc0 2.105 . S
O10 C4 1.268 . S
O11 Sc1 2.105 . S
O11 C5 1.268 . S
O12 Sc2 2.105 . S
O12 C6 1.268 . S
O13 Sc0 2.105 . S
O13 C7 1.268 . S
O14 Sc2 2.105 . S
O14 C8 1.268 1_455 S
O15 Sc1 2.105 . S
O15 C9 1.268 . S
O16 Sc0 2.105 . S
O16 C8 1.268 1_455 S
O17 Sc1 2.105 . S
O17 C7 1.268 . S
O18 Sc2 2.105 . S
O18 C9 1.268 . S
O19 Sc0 2.105 . S
O19 C5 1.268 . S
O20 Sc2 2.105 . S
O20 C4 1.268 . S
O21 Sc1 2.105 . S
O21 C6 1.268 . S
Sc22 O25 2.025 . S
Sc22 O32 2.105 . S
Sc22 O35 2.105 . S
Sc22 O38 2.105 . S
Sc22 O41 2.105 . S
Sc23 O25 2.025 . S
Sc23 O33 2.105 . S
Sc23 O37 2.105 . S
Sc23 O39 2.105 . S
Sc23 O43 2.105 . S
Sc24 O25 2.025 . S
Sc24 O34 2.105 . S
Sc24 O36 2.105 . S
Sc24 O40 2.105 . S
Sc24 O42 2.105 . S
O25 Sc22 2.025 . S
O25 Sc23 2.025 . S
O25 Sc24 2.025 . S
C26 O32 1.268 . S
C26 O42 1.268 . S
C27 O33 1.268 . S
C27 O41 1.268 . S
C28 O34 1.268 . S
C28 O43 1.268 . S
C29 O35 1.268 . S
C29 O39 1.268 . S
C30 O36 1.268 . S
C30 O38 1.268 . S
C31 O37 1.268 . S
C31 O40 1.268 . S
O32 Sc22 2.105 . S
O32 C26 1.268 . S
O33 Sc23 2.105 . S
O33 C27 1.268 . S
O34 Sc24 2.105 . S
O34 C28 1.268 . S
O35 Sc22 2.105 . S
O35 C29 1.268 . S
O36 Sc24 2.105 . S
O36 C30 1.268 . S
O37 Sc23 2.105 . S
O37 C31 1.268 . S
O38 Sc22 2.105 . S
O38 C30 1.268 . S
O39 Sc23 2.105 . S
O39 C29 1.268 . S
O40 Sc24 2.105 . S
O40 C31 1.268 . S
O41 Sc22 2.105 . S
O41 C27 1.268 . S
O42 Sc24 2.105 . S
O42 C26 1.268 . S
O43 Sc23 2.105 . S
O43 C28 1.268 . S
Sc44 O47 2.025 . S
Sc44 O54 2.105 . S
Sc44 O57 2.105 . S
Sc44 O60 2.105 . S
Sc44 O63 2.105 . S
Sc45 O47 2.025 . S
Sc45 O55 2.105 . S
Sc45 O59 2.105 . S
Sc45 O61 2.105 . S
Sc45 O65 2.105 . S
Sc46 O47 2.025 . S
Sc46 O56 2.105 . S
Sc46 O58 2.105 . S
Sc46 O62 2.105 . S
Sc46 O64 2.105 . S
O47 Sc44 2.025 . S
O47 Sc45 2.025 . S
O47 Sc46 2.025 . S
C48 O54 1.268 . S
C48 O64 1.268 . S
C49 O55 1.268 . S
C49 O63 1.268 . S
C50 O56 1.268 . S
C50 O65 1.268 . S
C51 O57 1.268 . S
C51 O61 1.268 . S
C52 O58 1.268 . S
C52 O60 1.268 . S
C53 O59 1.268 . S
C53 O62 1.268 . S
O54 Sc44 2.105 . S
O54 C48 1.268 . S
O55 Sc45 2.105 . S
O55 C49 1.268 . S
O56 Sc46 2.105 . S
O56 C50 1.268 . S
O57 Sc44 2.105 . S
O57 C51 1.268 . S
O58 Sc46 2.105 . S
O58 C52 1.268 . S
O59 Sc45 2.105 . S
O59 C53 1.268 . S
O60 Sc44 2.105 . S
O60 C52 1.268 . S
O61 Sc45 2.105 . S
O61 C51 1.268 . S
O62 Sc46 2.105 . S
O62 C53 1.268 . S
O63 Sc44 2.105 . S
O63 C49 1.268 . S
O64 Sc46 2.105 . S
O64 C48 1.268 . S
O65 Sc45 2.105 . S
O65 C50 1.268 . S
Sc66 O69 2.025 . S
Sc66 O76 2.105 . S
Sc66 O79 2.105 . S
Sc66 O82 2.105 . S
Sc66 O85 2.105 . S
Sc67 O69 2.025 . S
Sc67 O77 2.105 . S
Sc67 O81 2.105 . S
Sc67 O83 2.105 . S
Sc67 O87 2.105 . S
Sc68 O69 2.025 . S
Sc68 O78 2.105 . S
Sc68 O80 2.105 . S
Sc68 O84 2.105 . S
Sc68 O86 2.105 . S
O69 Sc66 2.025 . S
O69 Sc67 2.025 . S
O69 Sc68 2.025 . S
C70 O76 1.268 . S
C70 O86 1.268 . S
C71 O77 1.268 . S
C71 O85 1.268 . S
C72 O78 1.268 . S
C72 O87 1.268 . S
C73 O79 1.268 . S
C73 O83 1.268 . S
C74 O80 1.268 1_455 S
C74 O82 1.268 1_455 S
C75 O81 1.268 . S
C75 O84 1.268 . S
O76 Sc66 2.105 . S
O76 C70 1.268 . S
O77 Sc67 2.105 . S
O77 C71 1.268 . S
O78 Sc68 2.105 . S
O78 C72 1.268 . S
O79 Sc66 2.105 . S
O79 C73 1.268 . S
O80 Sc68 2.105 . S
O80 C74 1.268 1_655 S
O81 Sc67 2.105 . S
O81 C75 1.268 . S
O82 Sc66 2.105 . S
O82 C74 1.268 1_655 S
O83 Sc67 2.105 . S
O83 C73 1.268 . S
O84 Sc68 2.105 . S
O84 C75 1.268 . S
O85 Sc66 2.105 . S
O85 C71 1.268 . S
O86 Sc68 2.105 . S
O86 C70 1.268 . S
O87 Sc67 2.105 . S
O87 C72 1.268 . S
Sc88 O91 2.025 . S
Sc88 O98 2.105 . S
Sc88 O101 2.105 . S
Sc88 O104 2.105 . S
Sc88 O107 2.105 . S
Sc89 O91 2.025 . S
Sc89 O99 2.105 . S
Sc89 O103 2.105 . S
Sc89 O105 2.105 . S
Sc89 O109 2.105 . S
Sc90 O91 2.025 . S
Sc90 O100 2.105 . S
Sc90 O102 2.105 . S
Sc90 O106 2.105 . S
Sc90 O108 2.105 . S
O91 Sc88 2.025 . S
O91 Sc89 2.025 . S
O91 Sc90 2.025 . S
C92 O98 1.268 . S
C92 O108 1.268 . S
C93 O99 1.268 . S
C93 O107 1.268 . S
C94 O100 1.268 . S
C94 O109 1.268 . S
C95 O101 1.268 . S
C95 O105 1.268 . S
C96 O102 1.268 1_565 S
C96 O104 1.268 1_565 S
C97 O103 1.268 . S
C97 O106 1.268 . S
O98 Sc88 2.105 . S
O98 C92 1.268 . S
O99 Sc89 2.105 . S
O99 C93 1.268 . S
O100 Sc90 2.105 . S
O100 C94 1.268 . S
O101 Sc88 2.105 . S
O101 C95 1.268 . S
O102 Sc90 2.105 . S
O102 C96 1.268 1_545 S
O103 Sc89 2.105 . S
O103 C97 1.268 . S
O104 Sc88 2.105 . S
O104 C96 1.268 1_545 S
O105 Sc89 2.105 . S
O105 C95 1.268 . S
O106 Sc90 2.105 . S
O106 C97 1.268 . S
O107 Sc88 2.105 . S
O107 C93 1.268 . S
O108 Sc90 2.105 . S
O108 C92 1.268 . S
O109 Sc89 2.105 . S
O109 C94 1.268 . S
Sc110 O113 2.025 . S
Sc110 O120 2.105 . S
Sc110 O123 2.105 . S
Sc110 O126 2.105 . S
Sc110 O129 2.105 . S
Sc111 O113 2.025 . S
Sc111 O121 2.105 . S
Sc111 O125 2.105 . S
Sc111 O127 2.105 . S
Sc111 O131 2.105 . S
Sc112 O113 2.025 . S
Sc112 O122 2.105 . S
Sc112 O124 2.105 . S
Sc112 O128 2.105 . S
Sc112 O130 2.105 . S
O113 Sc110 2.025 . S
O113 Sc111 2.025 . S
O113 Sc112 2.025 . S
C114 O120 1.268 . S
C114 O130 1.268 . S
C115 O121 1.268 . S
C115 O129 1.268 . S
C116 O122 1.268 . S
C116 O131 1.268 . S
C117 O123 1.268 . S
C117 O127 1.268 . S
C118 O124 1.268 1_545 S
C118 O126 1.268 1_545 S
C119 O125 1.268 . S
C119 O128 1.268 . S
O120 Sc110 2.105 . S
O120 C114 1.268 . S
O121 Sc111 2.105 . S
O121 C115 1.268 . S
O122 Sc112 2.105 . S
O122 C116 1.268 . S
O123 Sc110 2.105 . S
O123 C117 1.268 . S
O124 Sc112 2.105 . S
O124 C118 1.268 1_565 S
O125 Sc111 2.105 . S
O125 C119 1.268 . S
O126 Sc110 2.105 . S
O126 C118 1.268 1_565 S
O127 Sc111 2.105 . S
O127 C117 1.268 . S
O128 Sc112 2.105 . S
O128 C119 1.268 . S
O129 Sc110 2.105 . S
O129 C115 1.268 . S
O130 Sc112 2.105 . S
O130 C114 1.268 . S
O131 Sc111 2.105 . S
O131 C116 1.268 . S
Sc132 O135 2.025 . S
Sc132 O142 2.105 . S
Sc132 O145 2.105 . S
Sc132 O148 2.105 . S
Sc132 O151 2.105 . S
Sc133 O135 2.025 . S
Sc133 O143 2.105 . S
Sc133 O147 2.105 . S
Sc133 O149 2.105 . S
Sc133 O153 2.105 . S
Sc134 O135 2.025 . S
Sc134 O144 2.105 . S
Sc134 O146 2.105 . S
Sc134 O150 2.105 . S
Sc134 O152 2.105 . S
O135 Sc132 2.025 . S
O135 Sc133 2.025 . S
O135 Sc134 2.025 . S
C136 O142 1.268 . S
C136 O152 1.268 . S
C137 O143 1.268 . S
C137 O151 1.268 . S
C138 O144 1.268 . S
C138 O153 1.268 . S
C139 O145 1.268 . S
C139 O149 1.268 . S
C140 O146 1.268 . S
C140 O148 1.268 . S
C141 O147 1.268 . S
C141 O150 1.268 . S
O142 Sc132 2.105 . S
O142 C136 1.268 . S
O143 Sc133 2.105 . S
O143 C137 1.268 . S
O144 Sc134 2.105 . S
O144 C138 1.268 . S
O145 Sc132 2.105 . S
O145 C139 1.268 . S
O146 Sc134 2.105 . S
O146 C140 1.268 . S
O147 Sc133 2.105 . S
O147 C141 1.268 . S
O148 Sc132 2.105 . S
O148 C140 1.268 . S
O149 Sc133 2.105 . S
O149 C139 1.268 . S
O150 Sc134 2.105 . S
O150 C141 1.268 . S
O151 Sc132 2.105 . S
O151 C137 1.268 . S
O152 Sc134 2.105 . S
O152 C136 1.268 . S
O153 Sc133 2.105 . S
O153 C138 1.268 . S
Sc154 O157 2.025 . S
Sc154 O164 2.105 . S
Sc154 O167 2.105 . S
Sc154 O170 2.105 . S
Sc154 O173 2.105 . S
Sc155 O157 2.025 . S
Sc155 O165 2.105 . S
Sc155 O169 2.105 . S
Sc155 O171 2.105 . S
Sc155 O175 2.105 . S
Sc156 O157 2.025 . S
Sc156 O166 2.105 . S
Sc156 O168 2.105 . S
Sc156 O172 2.105 . S
Sc156 O174 2.105 . S
O157 Sc154 2.025 . S
O157 Sc155 2.025 . S
O157 Sc156 2.025 . S
C158 O164 1.268 . S
C158 O174 1.268 . S
C159 O165 1.268 . S
C159 O173 1.268 . S
C160 O166 1.268 . S
C160 O175 1.268 . S
C161 O167 1.268 . S
C161 O171 1.268 . S
C162 O168 1.268 . S
C162 O170 1.268 . S
C163 O169 1.268 . S
C163 O172 1.268 . S
O164 Sc154 2.105 . S
O164 C158 1.268 . S
O165 Sc155 2.105 . S
O165 C159 1.268 . S
O166 Sc156 2.105 . S
O166 C160 1.268 . S
O167 Sc154 2.105 . S
O167 C161 1.268 . S
O168 Sc156 2.105 . S
O168 C162 1.268 . S
O169 Sc155 2.105 . S
O169 C163 1.268 . S
O170 Sc154 2.105 . S
O170 C162 1.268 . S
O171 Sc155 2.105 . S
O171 C161 1.268 . S
O172 Sc156 2.105 . S
O172 C163 1.268 . S
O173 Sc154 2.105 . S
O173 C159 1.268 . S
O174 Sc156 2.105 . S
O174 C158 1.268 . S
O175 Sc155 2.105 . S
O175 C160 1.268 . S
Sc176 O179 2.025 . S
Sc176 O186 2.105 . S
Sc176 O189 2.105 . S
Sc176 O192 2.105 . S
Sc176 O195 2.105 . S
Sc177 O179 2.025 . S
Sc177 O187 2.105 . S
Sc177 O191 2.105 . S
Sc177 O193 2.105 . S
Sc177 O197 2.105 . S
Sc178 O179 2.025 . S
Sc178 O188 2.105 . S
Sc178 O190 2.105 . S
Sc178 O194 2.105 . S
Sc178 O196 2.105 . S
O179 Sc176 2.025 . S
O179 Sc177 2.025 . S
O179 Sc178 2.025 . S
C180 O186 1.268 1_556 S
C180 O196 1.268 1_556 S
C181 O187 1.268 . S
C181 O195 1.268 . S
C182 O188 1.268 . S
C182 O197 1.268 . S
C183 O189 1.268 . S
C183 O193 1.268 . S
C184 O190 1.268 . S
C184 O192 1.268 . S
C185 O191 1.268 . S
C185 O194 1.268 . S
O186 Sc176 2.105 . S
O186 C180 1.268 1_554 S
O187 Sc177 2.105 . S
O187 C181 1.268 . S
O188 Sc178 2.105 . S
O188 C182 1.268 . S
O189 Sc176 2.105 . S
O189 C183 1.268 . S
O190 Sc178 2.105 . S
O190 C184 1.268 . S
O191 Sc177 2.105 . S
O191 C185 1.268 . S
O192 Sc176 2.105 . S
O192 C184 1.268 . S
O193 Sc177 2.105 . S
O193 C183 1.268 . S
O194 Sc178 2.105 . S
O194 C185 1.268 . S
O195 Sc176 2.105 . S
O195 C181 1.268 . S
O196 Sc178 2.105 . S
O196 C180 1.268 1_554 S
O197 Sc177 2.105 . S
O197 C182 1.268 . S
Sc198 O201 2.025 . S
Sc198 O208 2.105 . S
Sc198 O211 2.105 . S
Sc198 O214 2.105 . S
Sc198 O217 2.105 . S
Sc199 O201 2.025 . S
Sc199 O209 2.105 . S
Sc199 O213 2.105 . S
Sc199 O215 2.105 . S
Sc199 O219 2.105 . S
Sc200 O201 2.025 . S
Sc200 O210 2.105 . S
Sc200 O212 2.105 . S
Sc200 O216 2.105 . S
Sc200 O218 2.105 . S
O201 Sc198 2.025 . S
O201 Sc199 2.025 . S
O201 Sc200 2.025 . S
C202 O208 1.268 . S
C202 O218 1.268 . S
C203 O209 1.268 . S
C203 O217 1.268 . S
C204 O210 1.268 . S
C204 O219 1.268 . S
C205 O211 1.268 . S
C205 O215 1.268 . S
C206 O212 1.268 1_554 S
C206 O214 1.268 1_554 S
C207 O213 1.268 . S
C207 O216 1.268 . S
O208 Sc198 2.105 . S
O208 C202 1.268 . S
O209 Sc199 2.105 . S
O209 C203 1.268 . S
O210 Sc200 2.105 . S
O210 C204 1.268 . S
O211 Sc198 2.105 . S
O211 C205 1.268 . S
O212 Sc200 2.105 . S
O212 C206 1.268 1_556 S
O213 Sc199 2.105 . S
O213 C207 1.268 . S
O214 Sc198 2.105 . S
O214 C206 1.268 1_556 S
O215 Sc199 2.105 . S
O215 C205 1.268 . S
O216 Sc200 2.105 . S
O216 C207 1.268 . S
O217 Sc198 2.105 . S
O217 C203 1.268 . S
O218 Sc200 2.105 . S
O218 C202 1.268 . S
O219 Sc199 2.105 . S
O219 C204 1.268 . S
Sc220 O223 2.025 . S
Sc220 O230 2.105 . S
Sc220 O233 2.105 . S
Sc220 O236 2.105 . S
Sc220 O239 2.105 . S
Sc221 O223 2.025 . S
Sc221 O231 2.105 . S
Sc221 O235 2.105 . S
Sc221 O237 2.105 . S
Sc221 O241 2.105 . S
Sc222 O223 2.025 . S
Sc222 O232 2.105 . S
Sc222 O234 2.105 . S
Sc222 O238 2.105 . S
Sc222 O240 2.105 . S
O223 Sc220 2.025 . S
O223 Sc221 2.025 . S
O223 Sc222 2.025 . S
C224 O230 1.268 . S
C224 O240 1.268 . S
C225 O231 1.268 . S
C225 O239 1.268 . S
C226 O232 1.268 . S
C226 O241 1.268 . S
C227 O233 1.268 . S
C227 O237 1.268 . S
C228 O234 1.268 . S
C228 O236 1.268 . S
C229 O235 1.268 . S
C229 O238 1.268 . S
O230 Sc220 2.105 . S
O230 C224 1.268 . S
O231 Sc221 2.105 . S
O231 C225 1.268 . S
O232 Sc222 2.105 . S
O232 C226 1.268 . S
O233 Sc220 2.105 . S
O233 C227 1.268 . S
O234 Sc222 2.105 . S
O234 C228 1.268 . S
O235 Sc221 2.105 . S
O235 C229 1.268 . S
O236 Sc220 2.105 . S
O236 C228 1.268 . S
O237 Sc221 2.105 . S
O237 C227 1.268 . S
O238 Sc222 2.105 . S
O238 C229 1.268 . S
O239 Sc220 2.105 . S
O239 C225 1.268 . S
O240 Sc222 2.105 . S
O240 C224 1.268 . S
O241 Sc221 2.105 . S
O241 C226 1.268 . S
Sc242 O245 2.025 . S
Sc242 O252 2.105 . S
Sc242 O255 2.105 . S
Sc242 O258 2.105 . S
Sc242 O261 2.105 . S
Sc243 O245 2.025 . S
Sc243 O253 2.105 . S
Sc243 O257 2.105 . S
Sc243 O259 2.105 . S
Sc243 O263 2.105 . S
Sc244 O245 2.025 . S
Sc244 O254 2.105 . S
Sc244 O256 2.105 . S
Sc244 O260 2.105 . S
Sc244 O262 2.105 . S
O245 Sc242 2.025 . S
O245 Sc243 2.025 . S
O245 Sc244 2.025 . S
C246 O252 1.268 . S
C246 O262 1.268 . S
C247 O253 1.268 . S
C247 O261 1.268 . S
C248 O254 1.268 . S
C248 O263 1.268 . S
C249 O255 1.268 . S
C249 O259 1.268 . S
C250 O256 1.268 . S
C250 O258 1.268 . S
C251 O257 1.268 . S
C251 O260 1.268 . S
O252 Sc242 2.105 . S
O252 C246 1.268 . S
O253 Sc243 2.105 . S
O253 C247 1.268 . S
O254 Sc244 2.105 . S
O254 C248 1.268 . S
O255 Sc242 2.105 . S
O255 C249 1.268 . S
O256 Sc244 2.105 . S
O256 C250 1.268 . S
O257 Sc243 2.105 . S
O257 C251 1.268 . S
O258 Sc242 2.105 . S
O258 C250 1.268 . S
O259 Sc243 2.105 . S
O259 C249 1.268 . S
O260 Sc244 2.105 . S
O260 C251 1.268 . S
O261 Sc242 2.105 . S
O261 C247 1.268 . S
O262 Sc244 2.105 . S
O262 C246 1.268 . S
O263 Sc243 2.105 . S
O263 C248 1.268 . S
Sc264 O267 2.025 . S
Sc264 O274 2.105 . S
Sc264 O277 2.105 . S
Sc264 O280 2.105 . S
Sc264 O283 2.105 . S
Sc265 O267 2.025 . S
Sc265 O275 2.105 . S
Sc265 O279 2.105 . S
Sc265 O281 2.105 . S
Sc265 O285 2.105 . S
Sc266 O267 2.025 . S
Sc266 O276 2.105 . S
Sc266 O278 2.105 . S
Sc266 O282 2.105 . S
Sc266 O284 2.105 . S
O267 Sc264 2.025 . S
O267 Sc265 2.025 . S
O267 Sc266 2.025 . S
C268 O274 1.268 1_455 S
C268 O284 1.268 1_455 S
C269 O275 1.268 . S
C269 O283 1.268 . S
C270 O276 1.268 . S
C270 O285 1.268 . S
C271 O277 1.268 . S
C271 O281 1.268 . S
C272 O278 1.268 . S
C272 O280 1.268 . S
C273 O279 1.268 . S
C273 O282 1.268 . S
O274 Sc264 2.105 . S
O274 C268 1.268 1_655 S
O275 Sc265 2.105 . S
O275 C269 1.268 . S
O276 Sc266 2.105 . S
O276 C270 1.268 . S
O277 Sc264 2.105 . S
O277 C271 1.268 . S
O278 Sc266 2.105 . S
O278 C272 1.268 . S
O279 Sc265 2.105 . S
O279 C273 1.268 . S
O280 Sc264 2.105 . S
O280 C272 1.268 . S
O281 Sc265 2.105 . S
O281 C271 1.268 . S
O282 Sc266 2.105 . S
O282 C273 1.268 . S
O283 Sc264 2.105 . S
O283 C269 1.268 . S
O284 Sc266 2.105 . S
O284 C268 1.268 1_655 S
O285 Sc265 2.105 . S
O285 C270 1.268 . S
Sc286 O289 2.025 . S
Sc286 O296 2.105 . S
Sc286 O299 2.105 . S
Sc286 O302 2.105 . S
Sc286 O305 2.105 . S
Sc287 O289 2.025 . S
Sc287 O297 2.105 . S
Sc287 O301 2.105 . S
Sc287 O303 2.105 . S
Sc287 O307 2.105 . S
Sc288 O289 2.025 . S
Sc288 O298 2.105 . S
Sc288 O300 2.105 . S
Sc288 O304 2.105 . S
Sc288 O306 2.105 . S
O289 Sc286 2.025 . S
O289 Sc287 2.025 . S
O289 Sc288 2.025 . S
C290 O296 1.268 . S
C290 O306 1.268 . S
C291 O297 1.268 . S
C291 O305 1.268 . S
C292 O298 1.268 . S
C292 O307 1.268 . S
C293 O299 1.268 . S
C293 O303 1.268 . S
C294 O300 1.268 . S
C294 O302 1.268 . S
C295 O301 1.268 . S
C295 O304 1.268 . S
O296 Sc286 2.105 . S
O296 C290 1.268 . S
O297 Sc287 2.105 . S
O297 C291 1.268 . S
O298 Sc288 2.105 . S
O298 C292 1.268 . S
O299 Sc286 2.105 . S
O299 C293 1.268 . S
O300 Sc288 2.105 . S
O300 C294 1.268 . S
O301 Sc287 2.105 . S
O301 C295 1.268 . S
O302 Sc286 2.105 . S
O302 C294 1.268 . S
O303 Sc287 2.105 . S
O303 C293 1.268 . S
O304 Sc288 2.105 . S
O304 C295 1.268 . S
O305 Sc286 2.105 . S
O305 C291 1.268 . S
O306 Sc288 2.105 . S
O306 C290 1.268 . S
O307 Sc287 2.105 . S
O307 C292 1.268 . S
Sc308 O311 2.025 . S
Sc308 O318 2.105 . S
Sc308 O321 2.105 . S
Sc308 O324 2.105 . S
Sc308 O327 2.105 . S
Sc309 O311 2.025 . S
Sc309 O319 2.105 . S
Sc309 O323 2.105 . S
Sc309 O325 2.105 . S
Sc309 O329 2.105 . S
Sc310 O311 2.025 . S
Sc310 O320 2.105 . S
Sc310 O322 2.105 . S
Sc310 O326 2.105 . S
Sc310 O328 2.105 . S
O311 Sc308 2.025 . S
O311 Sc309 2.025 . S
O311 Sc310 2.025 . S
C312 O318 1.268 . S
C312 O328 1.268 . S
C313 O319 1.268 . S
C313 O327 1.268 . S
C314 O320 1.268 . S
C314 O329 1.268 . S
C315 O321 1.268 . S
C315 O325 1.268 . S
C316 O322 1.268 . S
C316 O324 1.268 . S
C317 O323 1.268 . S
C317 O326 1.268 . S
O318 Sc308 2.105 . S
O318 C312 1.268 . S
O319 Sc309 2.105 . S
O319 C313 1.268 . S
O320 Sc310 2.105 . S
O320 C314 1.268 . S
O321 Sc308 2.105 . S
O321 C315 1.268 . S
O322 Sc310 2.105 . S
O322 C316 1.268 . S
O323 Sc309 2.105 . S
O323 C317 1.268 . S
O324 Sc308 2.105 . S
O324 C316 1.268 . S
O325 Sc309 2.105 . S
O325 C315 1.268 . S
O326 Sc310 2.105 . S
O326 C317 1.268 . S
O327 Sc308 2.105 . S
O327 C313 1.268 . S
O328 Sc310 2.105 . S
O328 C312 1.268 . S
O329 Sc309 2.105 . S
O329 C314 1.268 . S
Sc330 O333 2.025 . S
Sc330 O340 2.105 . S
Sc330 O343 2.105 . S
Sc330 O346 2.105 . S
Sc330 O349 2.105 . S
Sc331 O333 2.025 . S
Sc331 O341 2.105 . S
Sc331 O345 2.105 . S
Sc331 O347 2.105 . S
Sc331 O351 2.105 . S
Sc332 O333 2.025 . S
Sc332 O342 2.105 . S
Sc332 O344 2.105 . S
Sc332 O348 2.105 . S
Sc332 O350 2.105 . S
O333 Sc330 2.025 . S
O333 Sc331 2.025 . S
O333 Sc332 2.025 . S
C334 O340 1.268 1_655 S
C334 O350 1.268 1_655 S
C335 O341 1.268 . S
C335 O349 1.268 . S
C336 O342 1.268 . S
C336 O351 1.268 . S
C337 O343 1.268 . S
C337 O347 1.268 . S
C338 O344 1.268 . S
C338 O346 1.268 . S
C339 O345 1.268 . S
C339 O348 1.268 . S
O340 Sc330 2.105 . S
O340 C334 1.268 1_455 S
O341 Sc331 2.105 . S
O341 C335 1.268 . S
O342 Sc332 2.105 . S
O342 C336 1.268 . S
O343 Sc330 2.105 . S
O343 C337 1.268 . S
O344 Sc332 2.105 . S
O344 C338 1.268 . S
O345 Sc331 2.105 . S
O345 C339 1.268 . S
O346 Sc330 2.105 . S
O346 C338 1.268 . S
O347 Sc331 2.105 . S
O347 C337 1.268 . S
O348 Sc332 2.105 . S
O348 C339 1.268 . S
O349 Sc330 2.105 . S
O349 C335 1.268 . S
O350 Sc332 2.105 . S
O350 C334 1.268 1_455 S
O351 Sc331 2.105 . S
O351 C336 1.268 . S
Sc352 O355 2.025 . S
Sc352 O362 2.105 . S
Sc352 O365 2.105 . S
Sc352 O368 2.105 . S
Sc352 O371 2.105 . S
Sc353 O355 2.025 . S
Sc353 O363 2.105 . S
Sc353 O367 2.105 . S
Sc353 O369 2.105 . S
Sc353 O373 2.105 . S
Sc354 O355 2.025 . S
Sc354 O364 2.105 . S
Sc354 O366 2.105 . S
Sc354 O370 2.105 . S
Sc354 O372 2.105 . S
O355 Sc352 2.025 . S
O355 Sc353 2.025 . S
O355 Sc354 2.025 . S
C356 O362 1.268 . S
C356 O372 1.268 . S
C357 O363 1.268 . S
C357 O371 1.268 . S
C358 O364 1.268 . S
C358 O373 1.268 . S
C359 O365 1.268 . S
C359 O369 1.268 . S
C360 O366 1.268 1_545 S
C360 O368 1.268 1_545 S
C361 O367 1.268 . S
C361 O370 1.268 . S
O362 Sc352 2.105 . S
O362 C356 1.268 . S
O363 Sc353 2.105 . S
O363 C357 1.268 . S
O364 Sc354 2.105 . S
O364 C358 1.268 . S
O365 Sc352 2.105 . S
O365 C359 1.268 . S
O366 Sc354 2.105 . S
O366 C360 1.268 1_565 S
O367 Sc353 2.105 . S
O367 C361 1.268 . S
O368 Sc352 2.105 . S
O368 C360 1.268 1_565 S
O369 Sc353 2.105 . S
O369 C359 1.268 . S
O370 Sc354 2.105 . S
O370 C361 1.268 . S
O371 Sc352 2.105 . S
O371 C357 1.268 . S
O372 Sc354 2.105 . S
O372 C356 1.268 . S
O373 Sc353 2.105 . S
O373 C358 1.268 . S
Sc374 O377 2.025 . S
Sc374 O384 2.105 . S
Sc374 O387 2.105 . S
Sc374 O390 2.105 . S
Sc374 O393 2.105 . S
Sc375 O377 2.025 . S
Sc375 O385 2.105 . S
Sc375 O389 2.105 . S
Sc375 O391 2.105 . S
Sc375 O395 2.105 . S
Sc376 O377 2.025 . S
Sc376 O386 2.105 . S
Sc376 O388 2.105 . S
Sc376 O392 2.105 . S
Sc376 O394 2.105 . S
O377 Sc374 2.025 . S
O377 Sc375 2.025 . S
O377 Sc376 2.025 . S
C378 O384 1.268 1_565 S
C378 O394 1.268 1_565 S
C379 O385 1.268 . S
C379 O393 1.268 . S
C380 O386 1.268 . S
C380 O395 1.268 . S
C381 O387 1.268 . S
C381 O391 1.268 . S
C382 O388 1.268 . S
C382 O390 1.268 . S
C383 O389 1.268 . S
C383 O392 1.268 . S
O384 Sc374 2.105 . S
O384 C378 1.268 1_545 S
O385 Sc375 2.105 . S
O385 C379 1.268 . S
O386 Sc376 2.105 . S
O386 C380 1.268 . S
O387 Sc374 2.105 . S
O387 C381 1.268 . S
O388 Sc376 2.105 . S
O388 C382 1.268 . S
O389 Sc375 2.105 . S
O389 C383 1.268 . S
O390 Sc374 2.105 . S
O390 C382 1.268 . S
O391 Sc375 2.105 . S
O391 C381 1.268 . S
O392 Sc376 2.105 . S
O392 C383 1.268 . S
O393 Sc374 2.105 . S
O393 C379 1.268 . S
O394 Sc376 2.105 . S
O394 C378 1.268 1_545 S
O395 Sc375 2.105 . S
O395 C380 1.268 . S
Sc396 O399 2.025 . S
Sc396 O406 2.105 . S
Sc396 O409 2.105 . S
Sc396 O412 2.105 . S
Sc396 O415 2.105 . S
Sc397 O399 2.025 . S
Sc397 O407 2.105 . S
Sc397 O411 2.105 . S
Sc397 O413 2.105 . S
Sc397 O417 2.105 . S
Sc398 O399 2.025 . S
Sc398 O408 2.105 . S
Sc398 O410 2.105 . S
Sc398 O414 2.105 . S
Sc398 O416 2.105 . S
O399 Sc396 2.025 . S
O399 Sc397 2.025 . S
O399 Sc398 2.025 . S
C400 O406 1.268 . S
C400 O416 1.268 . S
C401 O407 1.268 . S
C401 O415 1.268 . S
C402 O408 1.268 . S
C402 O417 1.268 . S
C403 O409 1.268 . S
C403 O413 1.268 . S
C404 O410 1.268 . S
C404 O412 1.268 . S
C405 O411 1.268 . S
C405 O414 1.268 . S
O406 Sc396 2.105 . S
O406 C400 1.268 . S
O407 Sc397 2.105 . S
O407 C401 1.268 . S
O408 Sc398 2.105 . S
O408 C402 1.268 . S
O409 Sc396 2.105 . S
O409 C403 1.268 . S
O410 Sc398 2.105 . S
O410 C404 1.268 . S
O411 Sc397 2.105 . S
O411 C405 1.268 . S
O412 Sc396 2.105 . S
O412 C404 1.268 . S
O413 Sc397 2.105 . S
O413 C403 1.268 . S
O414 Sc398 2.105 . S
O414 C405 1.268 . S
O415 Sc396 2.105 . S
O415 C401 1.268 . S
O416 Sc398 2.105 . S
O416 C400 1.268 . S
O417 Sc397 2.105 . S
O417 C402 1.268 . S
Sc418 O421 2.025 . S
Sc418 O428 2.105 . S
Sc418 O431 2.105 . S
Sc418 O434 2.105 . S
Sc418 O437 2.105 . S
Sc419 O421 2.025 . S
Sc419 O429 2.105 . S
Sc419 O433 2.105 . S
Sc419 O435 2.105 . S
Sc419 O439 2.105 . S
Sc420 O421 2.025 . S
Sc420 O430 2.105 . S
Sc420 O432 2.105 . S
Sc420 O436 2.105 . S
Sc420 O438 2.105 . S
O421 Sc418 2.025 . S
O421 Sc419 2.025 . S
O421 Sc420 2.025 . S
C422 O428 1.268 . S
C422 O438 1.268 . S
C423 O429 1.268 . S
C423 O437 1.268 . S
C424 O430 1.268 . S
C424 O439 1.268 . S
C425 O431 1.268 . S
C425 O435 1.268 . S
C426 O432 1.268 . S
C426 O434 1.268 . S
C427 O433 1.268 . S
C427 O436 1.268 . S
O428 Sc418 2.105 . S
O428 C422 1.268 . S
O429 Sc419 2.105 . S
O429 C423 1.268 . S
O430 Sc420 2.105 . S
O430 C424 1.268 . S
O431 Sc418 2.105 . S
O431 C425 1.268 . S
O432 Sc420 2.105 . S
O432 C426 1.268 . S
O433 Sc419 2.105 . S
O433 C427 1.268 . S
O434 Sc418 2.105 . S
O434 C426 1.268 . S
O435 Sc419 2.105 . S
O435 C425 1.268 . S
O436 Sc420 2.105 . S
O436 C427 1.268 . S
O437 Sc418 2.105 . S
O437 C423 1.268 . S
O438 Sc420 2.105 . S
O438 C422 1.268 . S
O439 Sc419 2.105 . S
O439 C424 1.268 . S
Sc440 O443 2.025 . S
Sc440 O450 2.105 . S
Sc440 O453 2.105 . S
Sc440 O456 2.105 . S
Sc440 O459 2.105 . S
Sc441 O443 2.025 . S
Sc441 O451 2.105 . S
Sc441 O455 2.105 . S
Sc441 O457 2.105 . S
Sc441 O461 2.105 . S
Sc442 O443 2.025 . S
Sc442 O452 2.105 . S
Sc442 O454 2.105 . S
Sc442 O458 2.105 . S
Sc442 O460 2.105 . S
O443 Sc440 2.025 . S
O443 Sc441 2.025 . S
O443 Sc442 2.025 . S
C444 O450 1.268 . S
C444 O460 1.268 . S
C445 O451 1.268 . S
C445 O459 1.268 . S
C446 O452 1.268 . S
C446 O461 1.268 . S
C447 O453 1.268 . S
C447 O457 1.268 . S
C448 O454 1.268 1_554 S
C448 O456 1.268 1_554 S
C449 O455 1.268 . S
C449 O458 1.268 . S
O450 Sc440 2.105 . S
O450 C444 1.268 . S
O451 Sc441 2.105 . S
O451 C445 1.268 . S
O452 Sc442 2.105 . S
O452 C446 1.268 . S
O453 Sc440 2.105 . S
O453 C447 1.268 . S
O454 Sc442 2.105 . S
O454 C448 1.268 1_556 S
O455 Sc441 2.105 . S
O455 C449 1.268 . S
O456 Sc440 2.105 . S
O456 C448 1.268 1_556 S
O457 Sc441 2.105 . S
O457 C447 1.268 . S
O458 Sc442 2.105 . S
O458 C449 1.268 . S
O459 Sc440 2.105 . S
O459 C445 1.268 . S
O460 Sc442 2.105 . S
O460 C444 1.268 . S
O461 Sc441 2.105 . S
O461 C446 1.268 . S
Sc462 O465 2.025 . S
Sc462 O472 2.105 . S
Sc462 O475 2.105 . S
Sc462 O478 2.105 . S
Sc462 O481 2.105 . S
Sc463 O465 2.025 . S
Sc463 O473 2.105 . S
Sc463 O477 2.105 . S
Sc463 O479 2.105 . S
Sc463 O483 2.105 . S
Sc464 O465 2.025 . S
Sc464 O474 2.105 . S
Sc464 O476 2.105 . S
Sc464 O480 2.105 . S
Sc464 O482 2.105 . S
O465 Sc462 2.025 . S
O465 Sc463 2.025 . S
O465 Sc464 2.025 . S
C466 O472 1.268 1_556 S
C466 O482 1.268 1_556 S
C467 O473 1.268 . S
C467 O481 1.268 . S
C468 O474 1.268 . S
C468 O483 1.268 . S
C469 O475 1.268 . S
C469 O479 1.268 . S
C470 O476 1.268 . S
C470 O478 1.268 . S
C471 O477 1.268 . S
C471 O480 1.268 . S
O472 Sc462 2.105 . S
O472 C466 1.268 1_554 S
O473 Sc463 2.105 . S
O473 C467 1.268 . S
O474 Sc464 2.105 . S
O474 C468 1.268 . S
O475 Sc462 2.105 . S
O475 C469 1.268 . S
O476 Sc464 2.105 . S
O476 C470 1.268 . S
O477 Sc463 2.105 . S
O477 C471 1.268 . S
O478 Sc462 2.105 . S
O478 C470 1.268 . S
O479 Sc463 2.105 . S
O479 C469 1.268 . S
O480 Sc464 2.105 . S
O480 C471 1.268 . S
O481 Sc462 2.105 . S
O481 C467 1.268 . S
O482 Sc464 2.105 . S
O482 C466 1.268 1_554 S
O483 Sc463 2.105 . S
O483 C468 1.268 . S
Sc484 O487 2.025 . S
Sc484 O494 2.105 . S
Sc484 O497 2.105 . S
Sc484 O500 2.105 . S
Sc484 O503 2.105 . S
Sc485 O487 2.025 . S
Sc485 O495 2.105 . S
Sc485 O499 2.105 . S
Sc485 O501 2.105 . S
Sc485 O505 2.105 . S
Sc486 O487 2.025 . S
Sc486 O496 2.105 . S
Sc486 O498 2.105 . S
Sc486 O502 2.105 . S
Sc486 O504 2.105 . S
O487 Sc484 2.025 . S
O487 Sc485 2.025 . S
O487 Sc486 2.025 . S
C488 O494 1.268 . S
C488 O504 1.268 . S
C489 O495 1.268 . S
C489 O503 1.268 . S
C490 O496 1.268 . S
C490 O505 1.268 . S
C491 O497 1.268 . S
C491 O501 1.268 . S
C492 O498 1.268 . S
C492 O500 1.268 . S
C493 O499 1.268 . S
C493 O502 1.268 . S
O494 Sc484 2.105 . S
O494 C488 1.268 . S
O495 Sc485 2.105 . S
O495 C489 1.268 . S
O496 Sc486 2.105 . S
O496 C490 1.268 . S
O497 Sc484 2.105 . S
O497 C491 1.268 . S
O498 Sc486 2.105 . S
O498 C492 1.268 . S
O499 Sc485 2.105 . S
O499 C493 1.268 . S
O500 Sc484 2.105 . S
O500 C492 1.268 . S
O501 Sc485 2.105 . S
O501 C491 1.268 . S
O502 Sc486 2.105 . S
O502 C493 1.268 . S
O503 Sc484 2.105 . S
O503 C489 1.268 . S
O504 Sc486 2.105 . S
O504 C488 1.268 . S
O505 Sc485 2.105 . S
O505 C490 1.268 . S
Sc506 O509 2.025 . S
Sc506 O516 2.105 . S
Sc506 O519 2.105 . S
Sc506 O522 2.105 . S
Sc506 O525 2.105 . S
Sc507 O509 2.025 . S
Sc507 O517 2.105 . S
Sc507 O521 2.105 . S
Sc507 O523 2.105 . S
Sc507 O527 2.105 . S
Sc508 O509 2.025 . S
Sc508 O518 2.105 . S
Sc508 O520 2.105 . S
Sc508 O524 2.105 . S
Sc508 O526 2.105 . S
O509 Sc506 2.025 . S
O509 Sc507 2.025 . S
O509 Sc508 2.025 . S
C510 O516 1.268 . S
C510 O526 1.268 . S
C511 O517 1.268 . S
C511 O525 1.268 . S
C512 O518 1.268 . S
C512 O527 1.268 . S
C513 O519 1.268 . S
C513 O523 1.268 . S
C514 O520 1.268 . S
C514 O522 1.268 . S
C515 O521 1.268 . S
C515 O524 1.268 . S
O516 Sc506 2.105 . S
O516 C510 1.268 . S
O517 Sc507 2.105 . S
O517 C511 1.268 . S
O518 Sc508 2.105 . S
O518 C512 1.268 . S
O519 Sc506 2.105 . S
O519 C513 1.268 . S
O520 Sc508 2.105 . S
O520 C514 1.268 . S
O521 Sc507 2.105 . S
O521 C515 1.268 . S
O522 Sc506 2.105 . S
O522 C514 1.268 . S
O523 Sc507 2.105 . S
O523 C513 1.268 . S
O524 Sc508 2.105 . S
O524 C515 1.268 . S
O525 Sc506 2.105 . S
O525 C511 1.268 . S
O526 Sc508 2.105 . S
O526 C510 1.268 . S
O527 Sc507 2.105 . S
O527 C512 1.268 . S
C528 C529 1.349 . S
C528 C530 1.327 . S
C528 H553 0.950 . S
C529 C528 1.349 . S
C529 C545 1.349 . S
C530 C528 1.327 . S
C530 C549 1.429 . S
C530 H554 0.950 . S
C531 C548 1.574 . S
C531 C550 1.368 . S
C531 H555 0.949 . S
H532 C536 0.949 . S
C533 C534 1.349 . S
C533 C535 1.327 . S
C533 H556 0.950 . S
C534 C533 1.349 . S
C534 C546 1.349 . S
C535 C533 1.327 . S
C535 C551 1.429 . S
C535 H557 0.950 . S
C536 H532 0.949 . S
C536 C544 1.574 . S
C536 C552 1.368 . S
H537 C545 0.950 . S
H538 C543 0.950 . S
H539 C544 0.949 . S
H540 C546 0.950 . S
H541 C547 0.950 . S
H542 C548 0.949 . S
C543 H538 0.950 . S
C543 C545 1.327 . S
C543 C549 1.429 . S
C544 C536 1.574 . S
C544 H539 0.949 . S
C544 C550 1.368 . S
C545 C529 1.349 . S
C545 H537 0.950 . S
C545 C543 1.327 . S
C546 C534 1.349 . S
C546 H540 0.950 . S
C546 C547 1.327 . S
C547 H541 0.950 . S
C547 C546 1.327 . S
C547 C551 1.429 . S
C548 C531 1.574 . S
C548 H542 0.949 . S
C548 C552 1.368 . S
C549 C530 1.429 . S
C549 C543 1.429 . S
C549 C550 1.523 . S
C550 C531 1.368 . S
C550 C544 1.368 . S
C550 C549 1.523 . S
C551 C535 1.429 . S
C551 C547 1.429 . S
C551 C552 1.523 . S
C552 C536 1.368 . S
C552 C548 1.368 . S
C552 C551 1.523 . S
H553 C528 0.950 . S
H554 C530 0.950 . S
H555 C531 0.949 . S
H556 C533 0.950 . S
H557 C535 0.950 . S
C558 C559 1.349 . S
C558 C560 1.327 . S
C558 H583 0.950 . S
C559 C558 1.349 . S
C559 C575 1.349 . S
C560 C558 1.327 . S
C560 C579 1.429 . S
C560 H584 0.950 . S
C561 C578 1.574 . S
C561 C580 1.368 . S
C561 H585 0.949 . S
H562 C566 0.949 . S
C563 C564 1.349 . S
C563 C565 1.327 . S
C563 H586 0.950 . S
C564 C563 1.349 . S
C564 C576 1.349 . S
C565 C563 1.327 . S
C565 C581 1.429 . S
C565 H587 0.950 . S
C566 H562 0.949 . S
C566 C574 1.574 . S
C566 C582 1.368 . S
H567 C575 0.950 . S
H568 C573 0.950 . S
H569 C574 0.949 . S
H570 C576 0.950 . S
H571 C577 0.950 . S
H572 C578 0.949 . S
C573 H568 0.950 . S
C573 C575 1.327 . S
C573 C579 1.429 . S
C574 C566 1.574 . S
C574 H569 0.949 . S
C574 C580 1.368 . S
C575 C559 1.349 . S
C575 H567 0.950 . S
C575 C573 1.327 . S
C576 C564 1.349 . S
C576 H570 0.950 . S
C576 C577 1.327 . S
C577 H571 0.950 . S
C577 C576 1.327 . S
C577 C581 1.429 . S
C578 C561 1.574 . S
C578 H572 0.949 . S
C578 C582 1.368 . S
C579 C560 1.429 . S
C579 C573 1.429 . S
C579 C580 1.523 . S
C580 C561 1.368 . S
C580 C574 1.368 . S
C580 C579 1.523 . S
C581 C565 1.429 . S
C581 C577 1.429 . S
C581 C582 1.523 . S
C582 C566 1.368 . S
C582 C578 1.368 . S
C582 C581 1.523 . S
H583 C558 0.950 . S
H584 C560 0.950 . S
H585 C561 0.949 . S
H586 C563 0.950 . S
H587 C565 0.950 . S
C588 C589 1.349 . S
C588 C590 1.327 . S
C588 H613 0.950 . S
C589 C588 1.349 . S
C589 C605 1.349 . S
C590 C588 1.327 . S
C590 C609 1.429 . S
C590 H614 0.950 . S
C591 C608 1.574 . S
C591 C610 1.368 . S
C591 H615 0.949 . S
H592 C596 0.949 1_565 S
C593 C594 1.349 . S
C593 C595 1.327 1_565 S
C593 H616 0.950 . S
C594 C593 1.349 . S
C594 C606 1.349 . S
C595 C593 1.327 1_545 S
C595 C611 1.423 1_545 S
C595 H617 0.950 . S
C596 H592 0.949 1_545 S
C596 C604 1.574 . S
C596 C612 1.368 . S
H597 C605 0.950 . S
H598 C603 0.950 . S
H599 C604 0.949 . S
H600 C606 0.950 . S
H601 C607 0.950 . S
H602 C608 0.949 . S
C603 H598 0.950 . S
C603 C605 1.327 . S
C603 C609 1.429 . S
C604 C596 1.574 . S
C604 H599 0.949 . S
C604 C610 1.368 . S
C605 C589 1.349 . S
C605 H597 0.950 . S
C605 C603 1.327 . S
C606 C594 1.349 . S
C606 H600 0.950 . S
C606 C607 1.327 . S
C607 H601 0.950 . S
C607 C606 1.327 . S
C607 C611 1.455 . S
C608 C591 1.574 . S
C608 H602 0.949 . S
C608 C612 1.368 . S
C609 C590 1.429 . S
C609 C603 1.429 . S
C609 C610 1.523 . S
C610 C591 1.368 . S
C610 C604 1.368 . S
C610 C609 1.523 . S
C611 C595 1.423 1_565 S
C611 C607 1.455 . S
C611 C612 1.504 1_565 S
C612 C596 1.368 . S
C612 C608 1.368 . S
C612 C611 1.504 1_545 S
H613 C588 0.950 . S
H614 C590 0.950 . S
H615 C591 0.949 . S
H616 C593 0.950 . S
H617 C595 0.950 . S
C618 C619 1.349 . S
C618 C620 1.327 . S
C618 H643 0.950 . S
C619 C618 1.349 . S
C619 C635 1.349 . S
C620 C618 1.327 . S
C620 C639 1.429 . S
C620 H644 0.950 . S
C621 C638 1.574 . S
C621 C640 1.368 . S
C621 H645 0.949 . S
H622 C626 0.949 1_545 S
C623 C624 1.349 . S
C623 C625 1.327 1_545 S
C623 H646 0.950 . S
C624 C623 1.349 . S
C624 C636 1.349 . S
C625 C623 1.327 1_565 S
C625 C641 1.425 1_565 S
C625 H647 0.950 . S
C626 H622 0.949 1_565 S
C626 C634 1.574 . S
C626 C642 1.368 . S
H627 C635 0.950 . S
H628 C633 0.950 . S
H629 C634 0.949 . S
H630 C636 0.950 . S
H631 C637 0.950 . S
H632 C638 0.949 . S
C633 H628 0.950 . S
C633 C635 1.327 . S
C633 C639 1.429 . S
C634 C626 1.574 . S
C634 H629 0.949 . S
C634 C640 1.368 . S
C635 C619 1.349 . S
C635 H627 0.950 . S
C635 C633 1.327 . S
C636 C624 1.349 . S
C636 H630 0.950 . S
C636 C637 1.327 . S
C637 H631 0.950 . S
C637 C636 1.327 . S
C637 C641 1.454 . S
C638 C621 1.574 . S
C638 H632 0.949 . S
C638 C642 1.368 . S
C639 C620 1.429 . S
C639 C633 1.429 . S
C639 C640 1.523 . S
C640 C621 1.368 . S
C640 C634 1.368 . S
C640 C639 1.523 . S
C641 C625 1.425 1_545 S
C641 C637 1.454 . S
C641 C642 1.504 1_545 S
C642 C626 1.368 . S
C642 C638 1.368 . S
C642 C641 1.504 1_565 S
H643 C618 0.950 . S
H644 C620 0.950 . S
H645 C621 0.949 . S
H646 C623 0.950 . S
H647 C625 0.950 . S
C648 C649 1.349 . S
C648 C650 1.327 . S
C648 H673 0.950 . S
C649 C648 1.349 . S
C649 C665 1.349 . S
C650 C648 1.327 . S
C650 C669 1.429 . S
C650 H674 0.950 . S
C651 C668 1.574 . S
C651 C670 1.368 . S
C651 H675 0.949 . S
H652 C656 0.949 . S
C653 C654 1.349 . S
C653 C655 1.327 . S
C653 H676 0.950 . S
C654 C653 1.349 . S
C654 C666 1.349 . S
C655 C653 1.327 . S
C655 C671 1.429 . S
C655 H677 0.950 . S
C656 H652 0.949 . S
C656 C664 1.574 . S
C656 C672 1.368 . S
H657 C665 0.950 . S
H658 C663 0.950 . S
H659 C664 0.949 . S
H660 C666 0.950 . S
H661 C667 0.950 . S
H662 C668 0.949 . S
C663 H658 0.950 . S
C663 C665 1.327 . S
C663 C669 1.429 . S
C664 C656 1.574 . S
C664 H659 0.949 . S
C664 C670 1.368 . S
C665 C649 1.349 . S
C665 H657 0.950 . S
C665 C663 1.327 . S
C666 C654 1.349 . S
C666 H660 0.950 . S
C666 C667 1.327 . S
C667 H661 0.950 . S
C667 C666 1.327 . S
C667 C671 1.429 . S
C668 C651 1.574 . S
C668 H662 0.949 . S
C668 C672 1.368 . S
C669 C650 1.429 . S
C669 C663 1.429 . S
C669 C670 1.523 . S
C670 C651 1.368 . S
C670 C664 1.368 . S
C670 C669 1.523 . S
C671 C655 1.429 . S
C671 C667 1.429 . S
C671 C672 1.523 . S
C672 C656 1.368 . S
C672 C668 1.368 . S
C672 C671 1.523 . S
H673 C648 0.950 . S
H674 C650 0.950 . S
H675 C651 0.949 . S
H676 C653 0.950 . S
H677 C655 0.950 . S
C678 C679 1.349 . S
C678 C680 1.327 . S
C678 H703 0.950 . S
C679 C678 1.349 . S
C679 C695 1.349 . S
C680 C678 1.327 . S
C680 C699 1.429 . S
C680 H704 0.950 . S
C681 C698 1.574 . S
C681 C700 1.368 . S
C681 H705 0.949 . S
H682 C686 0.949 . S
C683 C684 1.349 . S
C683 C685 1.327 . S
C683 H706 0.950 . S
C684 C683 1.349 . S
C684 C696 1.349 . S
C685 C683 1.327 . S
C685 C701 1.440 . S
C685 H707 0.950 . S
C686 H682 0.949 . S
C686 C694 1.574 . S
C686 C702 1.368 . S
H687 C695 0.950 . S
H688 C693 0.950 . S
H689 C694 0.949 . S
H690 C696 0.950 . S
H691 C697 0.950 . S
H692 C698 0.949 . S
C693 H688 0.950 . S
C693 C695 1.327 . S
C693 C699 1.429 . S
C694 C686 1.574 . S
C694 H689 0.949 . S
C694 C700 1.368 . S
C695 C679 1.349 . S
C695 H687 0.950 . S
C695 C693 1.327 . S
C696 C684 1.349 . S
C696 H690 0.950 . S
C696 C697 1.327 . S
C697 H691 0.950 . S
C697 C696 1.327 . S
C697 C701 1.439 . S
C698 C681 1.574 . S
C698 H692 0.949 . S
C698 C702 1.368 . S
C699 C680 1.429 . S
C699 C693 1.429 . S
C699 C700 1.523 . S
C700 C681 1.368 . S
C700 C694 1.368 . S
C700 C699 1.523 . S
C701 C685 1.440 . S
C701 C697 1.439 . S
C701 C702 1.504 1_554 S
C702 C686 1.368 . S
C702 C698 1.368 . S
C702 C701 1.504 1_556 S
H703 C678 0.950 . S
H704 C680 0.950 . S
H705 C681 0.949 . S
H706 C683 0.950 . S
H707 C685 0.950 . S
C708 C709 1.349 . S
C708 C710 1.327 . S
C708 H733 0.950 . S
C709 C708 1.349 . S
C709 C725 1.349 . S
C710 C708 1.327 . S
C710 C729 1.429 . S
C710 H734 0.950 . S
C711 C728 1.574 . S
C711 C730 1.368 . S
C711 H735 0.949 . S
H712 C716 0.949 . S
C713 C714 1.349 . S
C713 C715 1.327 . S
C713 H736 0.950 . S
C714 C713 1.349 . S
C714 C726 1.349 . S
C715 C713 1.327 . S
C715 C731 1.429 . S
C715 H737 0.950 . S
C716 H712 0.949 . S
C716 C724 1.574 . S
C716 C732 1.368 . S
H717 C725 0.950 . S
H718 C723 0.950 . S
H719 C724 0.949 . S
H720 C726 0.950 . S
H721 C727 0.950 . S
H722 C728 0.949 . S
C723 H718 0.950 . S
C723 C725 1.327 . S
C723 C729 1.429 . S
C724 C716 1.574 . S
C724 H719 0.949 . S
C724 C730 1.368 . S
C725 C709 1.349 . S
C725 H717 0.950 . S
C725 C723 1.327 . S
C726 C714 1.349 . S
C726 H720 0.950 . S
C726 C727 1.327 . S
C727 H721 0.950 . S
C727 C726 1.327 . S
C727 C731 1.429 . S
C728 C711 1.574 . S
C728 H722 0.949 . S
C728 C732 1.368 . S
C729 C710 1.429 . S
C729 C723 1.429 . S
C729 C730 1.523 . S
C730 C711 1.368 . S
C730 C724 1.368 . S
C730 C729 1.523 . S
C731 C715 1.429 . S
C731 C727 1.429 . S
C731 C732 1.523 . S
C732 C716 1.368 . S
C732 C728 1.368 . S
C732 C731 1.523 . S
H733 C708 0.950 . S
H734 C710 0.950 . S
H735 C711 0.949 . S
H736 C713 0.950 . S
H737 C715 0.950 . S
C738 C739 1.349 . S
C738 C740 1.327 . S
C738 H763 0.950 . S
C739 C738 1.349 . S
C739 C755 1.349 . S
C740 C738 1.327 . S
C740 C759 1.429 . S
C740 H764 0.950 . S
C741 C758 1.574 1_554 S
C741 C760 1.368 . S
C741 H765 0.947 1_554 S
H742 C746 0.949 . S
C743 C744 1.349 . S
C743 C745 1.327 . S
C743 H766 0.950 . S
C744 C743 1.349 . S
C744 C756 1.306 1_556 S
C745 C743 1.327 . S
C745 C761 1.470 . S
C745 H767 0.950 . S
C746 H742 0.949 . S
C746 C754 1.574 . S
C746 C762 1.368 . S
H747 C755 0.950 . S
H748 C753 0.950 . S
H749 C754 0.949 . S
H750 C756 0.973 . S
H751 C757 0.950 . S
H752 C758 0.949 . S
C753 H748 0.950 . S
C753 C755 1.327 . S
C753 C759 1.429 . S
C754 C746 1.574 . S
C754 H749 0.949 . S
C754 C760 1.368 . S
C755 C739 1.349 . S
C755 H747 0.950 . S
C755 C753 1.327 . S
C756 C744 1.306 1_554 S
C756 H750 0.973 . S
C756 C757 1.348 . S
C757 H751 0.950 . S
C757 C756 1.348 . S
C757 C761 1.408 1_554 S
C758 C741 1.574 1_556 S
C758 H752 0.949 . S
C758 C762 1.368 1_556 S
C759 C740 1.429 . S
C759 C753 1.429 . S
C759 C760 1.523 . S
C760 C741 1.368 . S
C760 C754 1.368 . S
C760 C759 1.523 . S
C761 C745 1.470 . S
C761 C757 1.408 1_556 S
C761 C762 1.504 1_556 S
C762 C746 1.368 . S
C762 C758 1.368 1_554 S
C762 C761 1.504 1_554 S
H763 C738 0.950 . S
H764 C740 0.950 . S
H765 C741 0.947 1_556 S
H766 C743 0.950 . S
H767 C745 0.950 . S
C768 C769 1.349 . S
C768 C770 1.327 . S
C768 H793 0.950 . S
C769 C768 1.349 . S
C769 C785 1.349 . S
C770 C768 1.327 . S
C770 C789 1.429 . S
C770 H794 0.950 . S
C771 C788 1.574 . S
C771 C790 1.368 . S
C771 H795 0.949 . S
H772 C776 0.949 . S
C773 C774 1.349 . S
C773 C775 1.327 . S
C773 H796 0.950 . S
C774 C773 1.349 . S
C774 C786 1.349 . S
C775 C773 1.327 . S
C775 C791 1.429 . S
C775 H797 0.950 . S
C776 H772 0.949 . S
C776 C784 1.574 . S
C776 C792 1.368 . S
H777 C785 0.950 . S
H778 C783 0.950 . S
H779 C784 0.949 . S
H780 C786 0.950 . S
H781 C787 0.950 . S
H782 C788 0.949 . S
C783 H778 0.950 . S
C783 C785 1.327 . S
C783 C789 1.429 . S
C784 C776 1.574 . S
C784 H779 0.949 . S
C784 C790 1.368 . S
C785 C769 1.349 . S
C785 H777 0.950 . S
C785 C783 1.327 . S
C786 C774 1.349 . S
C786 H780 0.950 . S
C786 C787 1.327 . S
C787 H781 0.950 . S
C787 C786 1.327 . S
C787 C791 1.429 . S
C788 C771 1.574 . S
C788 H782 0.949 . S
C788 C792 1.368 . S
C789 C770 1.429 . S
C789 C783 1.429 . S
C789 C790 1.523 . S
C790 C771 1.368 . S
C790 C784 1.368 . S
C790 C789 1.523 . S
C791 C775 1.429 . S
C791 C787 1.429 . S
C791 C792 1.523 . S
C792 C776 1.368 . S
C792 C788 1.368 . S
C792 C791 1.523 . S
H793 C768 0.950 . S
H794 C770 0.950 . S
H795 C771 0.949 . S
H796 C773 0.950 . S
H797 C775 0.950 . S
C798 C799 1.349 . S
C798 C800 1.327 . S
C798 H823 0.950 . S
C799 C798 1.349 . S
C799 C815 1.349 . S
C800 C798 1.327 . S
C800 C819 1.429 . S
C800 H824 0.950 . S
C801 C818 1.574 . S
C801 C820 1.368 . S
C801 H825 0.949 . S
H802 C806 0.949 . S
C803 C804 1.349 . S
C803 C805 1.327 . S
C803 H826 0.950 . S
C804 C803 1.349 . S
C804 C816 1.349 . S
C805 C803 1.327 . S
C805 C821 1.457 . S
C805 H827 0.950 . S
C806 H802 0.949 . S
C806 C814 1.574 . S
C806 C822 1.368 . S
H807 C815 0.950 . S
H808 C813 0.950 . S
H809 C814 0.949 . S
H810 C816 0.950 . S
H811 C817 0.950 . S
H812 C818 0.949 1_455 S
C813 H808 0.950 . S
C813 C815 1.327 . S
C813 C819 1.429 . S
C814 C806 1.574 . S
C814 H809 0.949 . S
C814 C820 1.368 . S
C815 C799 1.349 . S
C815 H807 0.950 . S
C815 C813 1.327 . S
C816 C804 1.349 . S
C816 H810 0.950 . S
C816 C817 1.327 1_455 S
C817 H811 0.950 . S
C817 C816 1.327 1_655 S
C817 C821 1.422 1_655 S
C818 C801 1.574 . S
C818 H812 0.949 1_655 S
C818 C822 1.368 . S
C819 C800 1.429 . S
C819 C813 1.429 . S
C819 C820 1.523 . S
C820 C801 1.368 . S
C820 C814 1.368 . S
C820 C819 1.523 . S
C821 C805 1.457 . S
C821 C817 1.422 1_455 S
C821 C822 1.504 1_455 S
C822 C806 1.368 . S
C822 C818 1.368 . S
C822 C821 1.504 1_655 S
H823 C798 0.950 . S
H824 C800 0.950 . S
H825 C801 0.949 . S
H826 C803 0.950 . S
H827 C805 0.950 . S
C828 C829 1.349 . S
C828 C830 1.327 . S
C828 H853 0.950 . S
C829 C828 1.349 . S
C829 C845 1.349 . S
C830 C828 1.327 . S
C830 C849 1.429 . S
C830 H854 0.950 . S
C831 C848 1.574 . S
C831 C850 1.368 . S
C831 H855 0.949 . S
H832 C836 0.949 . S
C833 C834 1.349 . S
C833 C835 1.327 . S
C833 H856 0.950 . S
C834 C833 1.349 . S
C834 C846 1.349 . S
C835 C833 1.327 . S
C835 C851 1.429 . S
C835 H857 0.950 . S
C836 H832 0.949 . S
C836 C844 1.574 . S
C836 C852 1.368 . S
H837 C845 0.950 . S
H838 C843 0.950 . S
H839 C844 0.949 . S
H840 C846 0.950 . S
H841 C847 0.950 . S
H842 C848 0.949 . S
C843 H838 0.950 . S
C843 C845 1.327 . S
C843 C849 1.429 . S
C844 C836 1.574 . S
C844 H839 0.949 . S
C844 C850 1.368 . S
C845 C829 1.349 . S
C845 H837 0.950 . S
C845 C843 1.327 . S
C846 C834 1.349 . S
C846 H840 0.950 . S
C846 C847 1.327 . S
C847 H841 0.950 . S
C847 C846 1.327 . S
C847 C851 1.429 . S
C848 C831 1.574 . S
C848 H842 0.949 . S
C848 C852 1.368 . S
C849 C830 1.429 . S
C849 C843 1.429 . S
C849 C850 1.523 . S
C850 C831 1.368 . S
C850 C844 1.368 . S
C850 C849 1.523 . S
C851 C835 1.429 . S
C851 C847 1.429 . S
C851 C852 1.523 . S
C852 C836 1.368 . S
C852 C848 1.368 . S
C852 C851 1.523 . S
H853 C828 0.950 . S
H854 C830 0.950 . S
H855 C831 0.949 . S
H856 C833 0.950 . S
H857 C835 0.950 . S
C858 C859 1.349 . S
C858 C860 1.327 . S
C858 H883 0.950 . S
C859 C858 1.349 . S
C859 C875 1.349 . S
C860 C858 1.327 . S
C860 C879 1.429 . S
C860 H884 0.950 . S
C861 C878 1.574 . S
C861 C880 1.368 . S
C861 H885 0.949 . S
H862 C866 0.949 1_655 S
C863 C864 1.349 . S
C863 C865 1.327 1_655 S
C863 H886 0.950 . S
C864 C863 1.349 . S
C864 C876 1.349 . S
C865 C863 1.327 1_455 S
C865 C881 1.424 1_455 S
C865 H887 0.950 . S
C866 H862 0.949 1_455 S
C866 C874 1.574 . S
C866 C882 1.368 . S
H867 C875 0.950 . S
H868 C873 0.950 . S
H869 C874 0.949 . S
H870 C876 0.950 . S
H871 C877 0.950 . S
H872 C878 0.949 . S
C873 H868 0.950 . S
C873 C875 1.327 . S
C873 C879 1.429 . S
C874 C866 1.574 . S
C874 H869 0.949 . S
C874 C880 1.368 . S
C875 C859 1.349 . S
C875 H867 0.950 . S
C875 C873 1.327 . S
C876 C864 1.349 . S
C876 H870 0.950 . S
C876 C877 1.327 . S
C877 H871 0.950 . S
C877 C876 1.327 . S
C877 C881 1.454 . S
C878 C861 1.574 . S
C878 H872 0.949 . S
C878 C882 1.368 . S
C879 C860 1.429 . S
C879 C873 1.429 . S
C879 C880 1.523 . S
C880 C861 1.368 . S
C880 C874 1.368 . S
C880 C879 1.523 . S
C881 C865 1.424 1_655 S
C881 C877 1.454 . S
C881 C882 1.504 1_655 S
C882 C866 1.368 . S
C882 C878 1.368 . S
C882 C881 1.504 1_455 S
H883 C858 0.950 . S
H884 C860 0.950 . S
H885 C861 0.949 . S
H886 C863 0.950 . S
H887 C865 0.950 . S
C888 C889 1.349 . S
C888 C890 1.327 . S
C888 H913 0.950 . S
C889 C888 1.349 . S
C889 C905 1.349 . S
C890 C888 1.327 . S
C890 C909 1.429 . S
C890 H914 0.950 . S
C891 C908 1.574 . S
C891 C910 1.368 . S
C891 H915 0.949 . S
H892 C896 0.949 . S
C893 C894 1.349 . S
C893 C895 1.327 . S
C893 H916 0.950 . S
C894 C893 1.349 . S
C894 C906 1.349 . S
C895 C893 1.327 . S
C895 C911 1.429 . S
C895 H917 0.950 . S
C896 H892 0.949 . S
C896 C904 1.574 . S
C896 C912 1.368 . S
H897 C905 0.950 . S
H898 C903 0.950 . S
H899 C904 0.949 . S
H900 C906 0.950 . S
H901 C907 0.950 . S
H902 C908 0.949 . S
C903 H898 0.950 . S
C903 C905 1.327 . S
C903 C909 1.429 . S
C904 C896 1.574 . S
C904 H899 0.949 . S
C904 C910 1.368 . S
C905 C889 1.349 . S
C905 H897 0.950 . S
C905 C903 1.327 . S
C906 C894 1.349 . S
C906 H900 0.950 . S
C906 C907 1.327 . S
C907 H901 0.950 . S
C907 C906 1.327 . S
C907 C911 1.429 . S
C908 C891 1.574 . S
C908 H902 0.949 . S
C908 C912 1.368 . S
C909 C890 1.429 . S
C909 C903 1.429 . S
C909 C910 1.523 . S
C910 C891 1.368 . S
C910 C904 1.368 . S
C910 C909 1.523 . S
C911 C895 1.429 . S
C911 C907 1.429 . S
C911 C912 1.523 . S
C912 C896 1.368 . S
C912 C908 1.368 . S
C912 C911 1.523 . S
H913 C888 0.950 . S
H914 C890 0.950 . S
H915 C891 0.949 . S
H916 C893 0.950 . S
H917 C895 0.950 . S
C918 C919 1.349 . S
C918 C920 1.327 . S
C918 H943 0.950 . S
C919 C918 1.349 . S
C919 C935 1.349 . S
C920 C918 1.327 . S
C920 C939 1.429 . S
C920 H944 0.950 . S
C921 C938 1.574 . S
C921 C940 1.368 . S
C921 H945 0.949 . S
H922 C926 0.949 . S
C923 C924 1.349 . S
C923 C925 1.327 . S
C923 H946 0.950 . S
C924 C923 1.349 . S
C924 C936 1.349 . S
C925 C923 1.327 . S
C925 C941 1.429 . S
C925 H947 0.950 . S
C926 H922 0.949 . S
C926 C934 1.574 . S
C926 C942 1.368 . S
H927 C935 0.950 . S
H928 C933 0.950 . S
H929 C934 0.949 . S
H930 C936 0.950 . S
H931 C937 0.950 . S
H932 C938 0.949 . S
C933 H928 0.950 . S
C933 C935 1.327 . S
C933 C939 1.429 . S
C934 C926 1.574 . S
C934 H929 0.949 . S
C934 C940 1.368 . S
C935 C919 1.349 . S
C935 H927 0.950 . S
C935 C933 1.327 . S
C936 C924 1.349 . S
C936 H930 0.950 . S
C936 C937 1.327 . S
C937 H931 0.950 . S
C937 C936 1.327 . S
C937 C941 1.429 . S
C938 C921 1.574 . S
C938 H932 0.949 . S
C938 C942 1.368 . S
C939 C920 1.429 . S
C939 C933 1.429 . S
C939 C940 1.523 . S
C940 C921 1.368 . S
C940 C934 1.368 . S
C940 C939 1.523 . S
C941 C925 1.429 . S
C941 C937 1.429 . S
C941 C942 1.523 . S
C942 C926 1.368 . S
C942 C938 1.368 . S
C942 C941 1.523 . S
H943 C918 0.950 . S
H944 C920 0.950 . S
H945 C921 0.949 . S
H946 C923 0.950 . S
H947 C925 0.950 . S
C948 C949 1.349 . S
C948 C950 1.327 . S
C948 H973 0.950 . S
C949 C948 1.349 . S
C949 C965 1.349 . S
C950 C948 1.327 . S
C950 C969 1.429 . S
C950 H974 0.950 . S
C951 C968 1.574 1_565 S
C951 C970 1.368 . S
C951 H975 0.955 . S
H952 C956 0.949 . S
C953 C954 1.349 . S
C953 C955 1.327 . S
C953 H976 0.950 . S
C954 C953 1.349 . S
C954 C966 1.323 1_545 S
C955 C953 1.327 . S
C955 C971 1.470 . S
C955 H977 0.950 . S
C956 H952 0.949 . S
C956 C964 1.574 . S
C956 C972 1.368 . S
H957 C965 0.950 . S
H958 C963 0.950 . S
H959 C964 0.949 . S
H960 C966 0.964 . S
H961 C967 0.950 . S
H962 C968 0.949 . S
C963 H958 0.950 . S
C963 C965 1.327 . S
C963 C969 1.429 . S
C964 C956 1.574 . S
C964 H959 0.949 . S
C964 C970 1.368 . S
C965 C949 1.349 . S
C965 H957 0.950 . S
C965 C963 1.327 . S
C966 C954 1.323 1_565 S
C966 H960 0.964 . S
C966 C967 1.340 . S
C967 H961 0.950 . S
C967 C966 1.340 . S
C967 C971 1.408 1_565 S
C968 C951 1.574 1_545 S
C968 H962 0.949 . S
C968 C972 1.368 1_545 S
C969 C950 1.429 . S
C969 C963 1.429 . S
C969 C970 1.523 . S
C970 C951 1.368 . S
C970 C964 1.368 . S
C970 C969 1.523 . S
C971 C955 1.470 . S
C971 C967 1.408 1_545 S
C971 C972 1.504 1_545 S
C972 C956 1.368 . S
C972 C968 1.368 1_565 S
C972 C971 1.504 1_565 S
H973 C948 0.950 . S
H974 C950 0.950 . S
H975 C951 0.955 . S
H976 C953 0.950 . S
H977 C955 0.950 . S
C978 C979 1.349 . S
C978 C980 1.327 . S
C978 H1003 0.950 . S
C979 C978 1.349 . S
C979 C995 1.349 . S
C980 C978 1.327 . S
C980 C999 1.461 . S
C980 H1004 0.950 . S
C981 C998 1.574 . S
C981 C1000 1.368 . S
C981 H1005 0.949 . S
H982 C986 0.949 . S
C983 C984 1.349 . S
C983 C985 1.327 . S
C983 H1006 0.950 . S
C984 C983 1.349 . S
C984 C996 1.349 . S
C985 C983 1.327 . S
C985 C1001 1.429 . S
C985 H1007 0.950 . S
C986 H982 0.949 . S
C986 C994 1.574 . S
C986 C1002 1.368 . S
H987 C995 0.947 1_545 S
H988 C993 0.950 . S
H989 C994 0.949 1_565 S
H990 C996 0.950 . S
H991 C997 0.950 . S
H992 C998 0.949 . S
C993 H988 0.950 . S
C993 C995 1.327 1_545 S
C993 C999 1.418 1_545 S
C994 C986 1.574 . S
C994 H989 0.949 1_545 S
C994 C1000 1.368 . S
C995 C979 1.349 . S
C995 H987 0.947 1_565 S
C995 C993 1.327 1_565 S
C996 C984 1.349 . S
C996 H990 0.950 . S
C996 C997 1.327 . S
C997 H991 0.950 . S
C997 C996 1.327 . S
C997 C1001 1.429 . S
C998 C981 1.574 . S
C998 H992 0.949 . S
C998 C1002 1.368 . S
C999 C980 1.461 . S
C999 C993 1.418 1_565 S
C999 C1000 1.504 1_565 S
C1000 C981 1.368 . S
C1000 C994 1.368 . S
C1000 C999 1.504 1_545 S
C1001 C985 1.429 . S
C1001 C997 1.429 . S
C1001 C1002 1.523 . S
C1002 C986 1.368 . S
C1002 C998 1.368 . S
C1002 C1001 1.523 . S
H1003 C978 0.950 . S
H1004 C980 0.950 . S
H1005 C981 0.949 . S
H1006 C983 0.950 . S
H1007 C985 0.950 . S
C1008 C1009 1.349 . S
C1008 C1010 1.327 . S
C1008 H1033 0.950 . S
C1009 C1008 1.349 . S
C1009 C1025 1.349 . S
C1010 C1008 1.327 . S
C1010 C1029 1.429 . S
C1010 H1034 0.950 . S
C1011 C1028 1.574 . S
C1011 C1030 1.368 . S
C1011 H1035 0.949 . S
H1012 C1016 0.949 . S
C1013 C1014 1.349 . S
C1013 C1015 1.327 . S
C1013 H1036 0.950 . S
C1014 C1013 1.349 . S
C1014 C1026 1.349 . S
C1015 C1013 1.327 . S
C1015 C1031 1.429 . S
C1015 H1037 0.950 . S
C1016 H1012 0.949 . S
C1016 C1024 1.574 . S
C1016 C1032 1.368 . S
H1017 C1025 0.950 . S
H1018 C1023 0.950 . S
H1019 C1024 0.949 . S
H1020 C1026 0.950 . S
H1021 C1027 0.950 . S
H1022 C1028 0.949 . S
C1023 H1018 0.950 . S
C1023 C1025 1.327 . S
C1023 C1029 1.429 . S
C1024 C1016 1.574 . S
C1024 H1019 0.949 . S
C1024 C1030 1.368 . S
C1025 C1009 1.349 . S
C1025 H1017 0.950 . S
C1025 C1023 1.327 . S
C1026 C1014 1.349 . S
C1026 H1020 0.950 . S
C1026 C1027 1.327 . S
C1027 H1021 0.950 . S
C1027 C1026 1.327 . S
C1027 C1031 1.429 . S
C1028 C1011 1.574 . S
C1028 H1022 0.949 . S
C1028 C1032 1.368 . S
C1029 C1010 1.429 . S
C1029 C1023 1.429 . S
C1029 C1030 1.523 . S
C1030 C1011 1.368 . S
C1030 C1024 1.368 . S
C1030 C1029 1.523 . S
C1031 C1015 1.429 . S
C1031 C1027 1.429 . S
C1031 C1032 1.523 . S
C1032 C1016 1.368 . S
C1032 C1028 1.368 . S
C1032 C1031 1.523 . S
H1033 C1008 0.950 . S
H1034 C1010 0.950 . S
H1035 C1011 0.949 . S
H1036 C1013 0.950 . S
H1037 C1015 0.950 . S
C1038 C1039 1.349 . S
C1038 C1040 1.327 . S
C1038 H1063 0.950 . S
C1039 C1038 1.349 . S
C1039 C1055 1.349 . S
C1040 C1038 1.327 . S
C1040 C1059 1.438 . S
C1040 H1064 0.950 . S
C1041 C1058 1.574 . S
C1041 C1060 1.368 . S
C1041 H1065 0.949 . S
H1042 C1046 0.949 . S
C1043 C1044 1.349 . S
C1043 C1045 1.327 . S
C1043 H1066 0.950 . S
C1044 C1043 1.349 . S
C1044 C1056 1.349 . S
C1045 C1043 1.327 . S
C1045 C1061 1.429 . S
C1045 H1067 0.950 . S
C1046 H1042 0.949 . S
C1046 C1054 1.574 . S
C1046 C1062 1.368 . S
H1047 C1055 0.950 . S
H1048 C1053 0.950 . S
H1049 C1054 0.949 . S
H1050 C1056 0.950 . S
H1051 C1057 0.950 . S
H1052 C1058 0.949 . S
C1053 H1048 0.950 . S
C1053 C1055 1.327 . S
C1053 C1059 1.441 . S
C1054 C1046 1.574 . S
C1054 H1049 0.949 . S
C1054 C1060 1.368 . S
C1055 C1039 1.349 . S
C1055 H1047 0.950 . S
C1055 C1053 1.327 . S
C1056 C1044 1.349 . S
C1056 H1050 0.950 . S
C1056 C1057 1.327 . S
C1057 H1051 0.950 . S
C1057 C1056 1.327 . S
C1057 C1061 1.429 . S
C1058 C1041 1.574 . S
C1058 H1052 0.949 . S
C1058 C1062 1.368 . S
C1059 C1040 1.438 . S
C1059 C1053 1.441 . S
C1059 C1060 1.504 1_556 S
C1060 C1041 1.368 . S
C1060 C1054 1.368 . S
C1060 C1059 1.504 1_554 S
C1061 C1045 1.429 . S
C1061 C1057 1.429 . S
C1061 C1062 1.523 . S
C1062 C1046 1.368 . S
C1062 C1058 1.368 . S
C1062 C1061 1.523 . S
H1063 C1038 0.950 . S
H1064 C1040 0.950 . S
H1065 C1041 0.949 . S
H1066 C1043 0.950 . S
H1067 C1045 0.950 . S
C1068 C1069 1.349 . S
C1068 C1070 1.327 . S
C1068 H1093 0.950 . S
C1069 C1068 1.349 . S
C1069 C1085 1.349 . S
C1070 C1068 1.327 . S
C1070 C1089 1.429 . S
C1070 H1094 0.950 . S
C1071 C1088 1.574 . S
C1071 C1090 1.368 . S
C1071 H1095 0.949 . S
H1072 C1076 0.949 . S
C1073 C1074 1.349 . S
C1073 C1075 1.327 . S
C1073 H1096 0.950 . S
C1074 C1073 1.349 . S
C1074 C1086 1.349 . S
C1075 C1073 1.327 . S
C1075 C1091 1.429 . S
C1075 H1097 0.950 . S
C1076 H1072 0.949 . S
C1076 C1084 1.574 . S
C1076 C1092 1.368 . S
H1077 C1085 0.950 . S
H1078 C1083 0.950 . S
H1079 C1084 0.949 . S
H1080 C1086 0.950 . S
H1081 C1087 0.950 . S
H1082 C1088 0.949 . S
C1083 H1078 0.950 . S
C1083 C1085 1.327 . S
C1083 C1089 1.429 . S
C1084 C1076 1.574 . S
C1084 H1079 0.949 . S
C1084 C1090 1.368 . S
C1085 C1069 1.349 . S
C1085 H1077 0.950 . S
C1085 C1083 1.327 . S
C1086 C1074 1.349 . S
C1086 H1080 0.950 . S
C1086 C1087 1.327 . S
C1087 H1081 0.950 . S
C1087 C1086 1.327 . S
C1087 C1091 1.429 . S
C1088 C1071 1.574 . S
C1088 H1082 0.949 . S
C1088 C1092 1.368 . S
C1089 C1070 1.429 . S
C1089 C1083 1.429 . S
C1089 C1090 1.523 . S
C1090 C1071 1.368 . S
C1090 C1084 1.368 . S
C1090 C1089 1.523 . S
C1091 C1075 1.429 . S
C1091 C1087 1.429 . S
C1091 C1092 1.523 . S
C1092 C1076 1.368 . S
C1092 C1088 1.368 . S
C1092 C1091 1.523 . S
H1093 C1068 0.950 . S
H1094 C1070 0.950 . S
H1095 C1071 0.949 . S
H1096 C1073 0.950 . S
H1097 C1075 0.950 . S
C1098 C1099 1.312 1_556 S
C1098 C1100 1.345 . S
C1098 H1123 0.970 . S
C1099 C1098 1.312 1_554 S
C1099 C1115 1.349 . S
C1100 C1098 1.345 . S
C1100 C1119 1.408 1_556 S
C1100 H1124 0.950 . S
C1101 C1118 1.574 1_554 S
C1101 C1120 1.368 1_554 S
C1101 H1125 0.949 . S
H1102 C1106 0.949 . S
C1103 C1104 1.349 . S
C1103 C1105 1.327 . S
C1103 H1126 0.950 . S
C1104 C1103 1.349 . S
C1104 C1116 1.349 . S
C1105 C1103 1.327 . S
C1105 C1121 1.429 . S
C1105 H1127 0.950 . S
C1106 H1102 0.949 . S
C1106 C1114 1.574 . S
C1106 C1122 1.368 . S
H1107 C1115 0.950 . S
H1108 C1113 0.950 . S
H1109 C1114 0.949 . S
H1110 C1116 0.950 . S
H1111 C1117 0.950 . S
H1112 C1118 0.951 1_554 S
C1113 H1108 0.950 . S
C1113 C1115 1.327 . S
C1113 C1119 1.470 . S
C1114 C1106 1.574 . S
C1114 H1109 0.949 . S
C1114 C1120 1.368 . S
C1115 C1099 1.349 . S
C1115 H1107 0.950 . S
C1115 C1113 1.327 . S
C1116 C1104 1.349 . S
C1116 H1110 0.950 . S
C1116 C1117 1.327 . S
C1117 H1111 0.950 . S
C1117 C1116 1.327 . S
C1117 C1121 1.429 . S
C1118 C1101 1.574 1_556 S
C1118 H1112 0.951 1_556 S
C1118 C1122 1.368 . S
C1119 C1100 1.408 1_554 S
C1119 C1113 1.470 . S
C1119 C1120 1.504 1_554 S
C1120 C1101 1.368 1_556 S
C1120 C1114 1.368 . S
C1120 C1119 1.504 1_556 S
C1121 C1105 1.429 . S
C1121 C1117 1.429 . S
C1121 C1122 1.523 . S
C1122 C1106 1.368 . S
C1122 C1118 1.368 . S
C1122 C1121 1.523 . S
H1123 C1098 0.970 . S
H1124 C1100 0.950 . S
H1125 C1101 0.949 . S
H1126 C1103 0.950 . S
H1127 C1105 0.950 . S
C1128 C1129 1.349 . S
C1128 C1130 1.327 . S
C1128 H1153 0.950 . S
C1129 C1128 1.349 . S
C1129 C1145 1.349 . S
C1130 C1128 1.327 . S
C1130 C1149 1.429 . S
C1130 H1154 0.950 . S
C1131 C1148 1.574 . S
C1131 C1150 1.368 . S
C1131 H1155 0.949 . S
H1132 C1136 0.949 . S
C1133 C1134 1.349 . S
C1133 C1135 1.327 . S
C1133 H1156 0.950 . S
C1134 C1133 1.349 . S
C1134 C1146 1.349 . S
C1135 C1133 1.327 . S
C1135 C1151 1.429 . S
C1135 H1157 0.950 . S
C1136 H1132 0.949 . S
C1136 C1144 1.574 . S
C1136 C1152 1.368 . S
H1137 C1145 0.950 . S
H1138 C1143 0.950 . S
H1139 C1144 0.949 . S
H1140 C1146 0.950 . S
H1141 C1147 0.950 . S
H1142 C1148 0.949 . S
C1143 H1138 0.950 . S
C1143 C1145 1.327 . S
C1143 C1149 1.429 . S
C1144 C1136 1.574 . S
C1144 H1139 0.949 . S
C1144 C1150 1.368 . S
C1145 C1129 1.349 . S
C1145 H1137 0.950 . S
C1145 C1143 1.327 . S
C1146 C1134 1.349 . S
C1146 H1140 0.950 . S
C1146 C1147 1.327 . S
C1147 H1141 0.950 . S
C1147 C1146 1.327 . S
C1147 C1151 1.429 . S
C1148 C1131 1.574 . S
C1148 H1142 0.949 . S
C1148 C1152 1.368 . S
C1149 C1130 1.429 . S
C1149 C1143 1.429 . S
C1149 C1150 1.523 . S
C1150 C1131 1.368 . S
C1150 C1144 1.368 . S
C1150 C1149 1.523 . S
C1151 C1135 1.429 . S
C1151 C1147 1.429 . S
C1151 C1152 1.523 . S
C1152 C1136 1.368 . S
C1152 C1148 1.368 . S
C1152 C1151 1.523 . S
H1153 C1128 0.950 . S
H1154 C1130 0.950 . S
H1155 C1131 0.949 . S
H1156 C1133 0.950 . S
H1157 C1135 0.950 . S
C1158 C1159 1.349 . S
C1158 C1160 1.327 . S
C1158 H1183 0.950 . S
C1159 C1158 1.349 . S
C1159 C1175 1.349 . S
C1160 C1158 1.327 . S
C1160 C1179 1.466 . S
C1160 H1184 0.950 . S
C1161 C1178 1.574 . S
C1161 C1180 1.368 . S
C1161 H1185 0.949 . S
H1162 C1166 0.949 . S
C1163 C1164 1.349 . S
C1163 C1165 1.327 . S
C1163 H1186 0.950 . S
C1164 C1163 1.349 . S
C1164 C1176 1.349 . S
C1165 C1163 1.327 . S
C1165 C1181 1.429 . S
C1165 H1187 0.950 . S
C1166 H1162 0.949 . S
C1166 C1174 1.574 1_455 S
C1166 C1182 1.368 . S
H1167 C1175 0.950 1_455 S
H1168 C1173 0.950 . S
H1169 C1174 0.949 . S
H1170 C1176 0.950 . S
H1171 C1177 0.950 . S
H1172 C1178 0.949 . S
C1173 H1168 0.950 . S
C1173 C1175 1.327 1_455 S
C1173 C1179 1.412 1_455 S
C1174 C1166 1.574 1_655 S
C1174 H1169 0.949 . S
C1174 C1180 1.368 1_655 S
C1175 C1159 1.349 . S
C1175 H1167 0.950 1_655 S
C1175 C1173 1.327 1_655 S
C1176 C1164 1.349 . S
C1176 H1170 0.950 . S
C1176 C1177 1.327 . S
C1177 H1171 0.950 . S
C1177 C1176 1.327 . S
C1177 C1181 1.429 . S
C1178 C1161 1.574 . S
C1178 H1172 0.949 . S
C1178 C1182 1.368 . S
C1179 C1160 1.466 . S
C1179 C1173 1.412 1_655 S
C1179 C1180 1.504 1_655 S
C1180 C1161 1.368 . S
C1180 C1174 1.368 1_455 S
C1180 C1179 1.504 1_455 S
C1181 C1165 1.429 . S
C1181 C1177 1.429 . S
C1181 C1182 1.523 . S
C1182 C1166 1.368 . S
C1182 C1178 1.368 . S
C1182 C1181 1.523 . S
H1183 C1158 0.950 . S
H1184 C1160 0.950 . S
H1185 C1161 0.949 . S
H1186 C1163 0.950 . S
H1187 C1165 0.950 . S
C1188 C1189 1.349 . S
C1188 C1190 1.327 . S
C1188 H1213 0.950 . S
C1189 C1188 1.349 . S
C1189 C1205 1.349 . S
C1190 C1188 1.327 . S
C1190 C1209 1.429 . S
C1190 H1214 0.950 . S
C1191 C1208 1.574 . S
C1191 C1210 1.368 . S
C1191 H1215 0.949 . S
H1192 C1196 0.949 . S
C1193 C1194 1.349 . S
C1193 C1195 1.327 . S
C1193 H1216 0.950 . S
C1194 C1193 1.349 . S
C1194 C1206 1.349 . S
C1195 C1193 1.327 . S
C1195 C1211 1.429 . S
C1195 H1217 0.950 . S
C1196 H1192 0.949 . S
C1196 C1204 1.574 . S
C1196 C1212 1.368 . S
H1197 C1205 0.950 . S
H1198 C1203 0.950 . S
H1199 C1204 0.949 . S
H1200 C1206 0.950 . S
H1201 C1207 0.950 . S
H1202 C1208 0.949 . S
C1203 H1198 0.950 . S
C1203 C1205 1.327 . S
C1203 C1209 1.429 . S
C1204 C1196 1.574 . S
C1204 H1199 0.949 . S
C1204 C1210 1.368 . S
C1205 C1189 1.349 . S
C1205 H1197 0.950 . S
C1205 C1203 1.327 . S
C1206 C1194 1.349 . S
C1206 H1200 0.950 . S
C1206 C1207 1.327 . S
C1207 H1201 0.950 . S
C1207 C1206 1.327 . S
C1207 C1211 1.429 . S
C1208 C1191 1.574 . S
C1208 H1202 0.949 . S
C1208 C1212 1.368 . S
C1209 C1190 1.429 . S
C1209 C1203 1.429 . S
C1209 C1210 1.523 . S
C1210 C1191 1.368 . S
C1210 C1204 1.368 . S
C1210 C1209 1.523 . S
C1211 C1195 1.429 . S
C1211 C1207 1.429 . S
C1211 C1212 1.523 . S
C1212 C1196 1.368 . S
C1212 C1208 1.368 . S
C1212 C1211 1.523 . S
H1213 C1188 0.950 . S
H1214 C1190 0.950 . S
H1215 C1191 0.949 . S
H1216 C1193 0.950 . S
H1217 C1195 0.950 . S
C1218 C1219 1.349 . S
C1218 C1220 1.327 . S
C1218 H1243 0.950 . S
C1219 C1218 1.349 . S
C1219 C1235 1.349 . S
C1220 C1218 1.327 . S
C1220 C1239 1.429 . S
C1220 H1244 0.950 . S
C1221 C1238 1.574 . S
C1221 C1240 1.368 . S
C1221 H1245 0.949 . S
H1222 C1226 0.949 . S
C1223 C1224 1.330 1_655 S
C1223 C1225 1.336 . S
C1223 H1246 0.960 . S
C1224 C1223 1.330 1_455 S
C1224 C1236 1.349 . S
C1225 C1223 1.336 . S
C1225 C1241 1.409 1_655 S
C1225 H1247 0.950 . S
C1226 H1222 0.949 . S
C1226 C1234 1.574 1_455 S
C1226 C1242 1.368 1_455 S
H1227 C1235 0.950 . S
H1228 C1233 0.950 . S
H1229 C1234 0.962 . S
H1230 C1236 0.950 . S
H1231 C1237 0.950 . S
H1232 C1238 0.949 . S
C1233 H1228 0.950 . S
C1233 C1235 1.327 . S
C1233 C1239 1.429 . S
C1234 C1226 1.574 1_655 S
C1234 H1229 0.962 . S
C1234 C1240 1.368 . S
C1235 C1219 1.349 . S
C1235 H1227 0.950 . S
C1235 C1233 1.327 . S
C1236 C1224 1.349 . S
C1236 H1230 0.950 . S
C1236 C1237 1.327 . S
C1237 H1231 0.950 . S
C1237 C1236 1.327 . S
C1237 C1241 1.470 . S
C1238 C1221 1.574 . S
C1238 H1232 0.949 . S
C1238 C1242 1.368 . S
C1239 C1220 1.429 . S
C1239 C1233 1.429 . S
C1239 C1240 1.523 . S
C1240 C1221 1.368 . S
C1240 C1234 1.368 . S
C1240 C1239 1.523 . S
C1241 C1225 1.409 1_455 S
C1241 C1237 1.470 . S
C1241 C1242 1.504 1_455 S
C1242 C1226 1.368 1_655 S
C1242 C1238 1.368 . S
C1242 C1241 1.504 1_655 S
H1243 C1218 0.950 . S
H1244 C1220 0.950 . S
H1245 C1221 0.949 . S
H1246 C1223 0.960 . S
H1247 C1225 0.950 . S
C1248 C1249 1.349 1_554 S
C1248 C1250 1.327 . S
C1248 H1273 0.950 . S
C1249 C1248 1.349 1_556 S
C1249 C1265 1.349 1_556 S
C1250 C1248 1.327 . S
C1250 C1269 1.429 . S
C1250 H1274 0.950 . S
C1251 C1268 1.574 . S
C1251 C1270 1.368 . S
C1251 H1275 0.949 . S
H1252 C1256 0.949 . S
C1253 C1254 1.349 . S
C1253 C1255 1.327 . S
C1253 H1276 0.950 . S
C1254 C1253 1.349 . S
C1254 C1266 1.349 . S
C1255 C1253 1.327 . S
C1255 C1271 1.429 . S
C1255 H1277 0.950 . S
C1256 H1252 0.949 . S
C1256 C1264 1.574 . S
C1256 C1272 1.368 . S
H1257 C1265 0.950 1_556 S
H1258 C1263 0.950 . S
H1259 C1264 0.949 . S
H1260 C1266 0.950 . S
H1261 C1267 0.950 . S
H1262 C1268 0.949 . S
C1263 H1258 0.950 . S
C1263 C1265 1.327 . S
C1263 C1269 1.429 . S
C1264 C1256 1.574 . S
C1264 H1259 0.949 . S
C1264 C1270 1.368 . S
C1265 C1249 1.349 1_554 S
C1265 H1257 0.950 1_554 S
C1265 C1263 1.327 . S
C1266 C1254 1.349 . S
C1266 H1260 0.950 . S
C1266 C1267 1.327 . S
C1267 H1261 0.950 . S
C1267 C1266 1.327 . S
C1267 C1271 1.429 . S
C1268 C1251 1.574 . S
C1268 H1262 0.949 . S
C1268 C1272 1.368 . S
C1269 C1250 1.429 . S
C1269 C1263 1.429 . S
C1269 C1270 1.523 . S
C1270 C1251 1.368 . S
C1270 C1264 1.368 . S
C1270 C1269 1.523 . S
C1271 C1255 1.429 . S
C1271 C1267 1.429 . S
C1271 C1272 1.523 . S
C1272 C1256 1.368 . S
C1272 C1268 1.368 . S
C1272 C1271 1.523 . S
H1273 C1248 0.950 . S
H1274 C1250 0.950 . S
H1275 C1251 0.949 . S
H1276 C1253 0.950 . S
H1277 C1255 0.950 . S
C1278 C1279 1.349 . S
C1278 C1280 1.327 . S
C1278 H1303 0.950 . S
C1279 C1278 1.349 . S
C1279 C1295 1.349 . S
C1280 C1278 1.327 . S
C1280 C1299 1.429 . S
C1280 H1304 0.950 . S
C1281 C1298 1.574 . S
C1281 C1300 1.368 . S
C1281 H1305 0.949 . S
H1282 C1286 0.949 . S
C1283 C1284 1.349 . S
C1283 C1285 1.327 . S
C1283 H1306 0.950 . S
C1284 C1283 1.349 . S
C1284 C1296 1.349 . S
C1285 C1283 1.327 . S
C1285 C1301 1.429 . S
C1285 H1307 0.950 . S
C1286 H1282 0.949 . S
C1286 C1294 1.574 . S
C1286 C1302 1.368 . S
H1287 C1295 0.950 . S
H1288 C1293 0.950 . S
H1289 C1294 0.949 . S
H1290 C1296 0.950 . S
H1291 C1297 0.950 . S
H1292 C1298 0.949 . S
C1293 H1288 0.950 . S
C1293 C1295 1.327 . S
C1293 C1299 1.429 . S
C1294 C1286 1.574 . S
C1294 H1289 0.949 . S
C1294 C1300 1.368 . S
C1295 C1279 1.349 . S
C1295 H1287 0.950 . S
C1295 C1293 1.327 . S
C1296 C1284 1.349 . S
C1296 H1290 0.950 . S
C1296 C1297 1.327 . S
C1297 H1291 0.950 . S
C1297 C1296 1.327 . S
C1297 C1301 1.429 . S
C1298 C1281 1.574 . S
C1298 H1292 0.949 . S
C1298 C1302 1.368 . S
C1299 C1280 1.429 . S
C1299 C1293 1.429 . S
C1299 C1300 1.523 . S
C1300 C1281 1.368 . S
C1300 C1294 1.368 . S
C1300 C1299 1.523 . S
C1301 C1285 1.429 . S
C1301 C1297 1.429 . S
C1301 C1302 1.523 . S
C1302 C1286 1.368 . S
C1302 C1298 1.368 . S
C1302 C1301 1.523 . S
H1303 C1278 0.950 . S
H1304 C1280 0.950 . S
H1305 C1281 0.949 . S
H1306 C1283 0.950 . S
H1307 C1285 0.950 . S
C1308 C1309 1.349 . S
C1308 C1310 1.327 . S
C1308 H1333 0.950 . S
C1309 C1308 1.349 . S
C1309 C1325 1.349 . S
C1310 C1308 1.327 . S
C1310 C1329 1.429 . S
C1310 H1334 0.950 . S
C1311 C1328 1.574 . S
C1311 C1330 1.368 . S
C1311 H1335 0.949 . S
H1312 C1316 0.949 . S
C1313 C1314 1.349 . S
C1313 C1315 1.327 1_554 S
C1313 H1336 0.950 . S
C1314 C1313 1.349 . S
C1314 C1326 1.349 1_554 S
C1315 C1313 1.327 1_556 S
C1315 C1331 1.429 . S
C1315 H1337 0.950 . S
C1316 H1312 0.949 . S
C1316 C1324 1.574 . S
C1316 C1332 1.368 . S
H1317 C1325 0.950 . S
H1318 C1323 0.950 . S
H1319 C1324 0.949 . S
H1320 C1326 0.950 . S
H1321 C1327 0.950 . S
H1322 C1328 0.949 . S
C1323 H1318 0.950 . S
C1323 C1325 1.327 . S
C1323 C1329 1.429 . S
C1324 C1316 1.574 . S
C1324 H1319 0.949 . S
C1324 C1330 1.368 . S
C1325 C1309 1.349 . S
C1325 H1317 0.950 . S
C1325 C1323 1.327 . S
C1326 C1314 1.349 1_556 S
C1326 H1320 0.950 . S
C1326 C1327 1.327 . S
C1327 H1321 0.950 . S
C1327 C1326 1.327 . S
C1327 C1331 1.429 . S
C1328 C1311 1.574 . S
C1328 H1322 0.949 . S
C1328 C1332 1.368 . S
C1329 C1310 1.429 . S
C1329 C1323 1.429 . S
C1329 C1330 1.523 . S
C1330 C1311 1.368 . S
C1330 C1324 1.368 . S
C1330 C1329 1.523 . S
C1331 C1315 1.429 . S
C1331 C1327 1.429 . S
C1331 C1332 1.523 . S
C1332 C1316 1.368 . S
C1332 C1328 1.368 . S
C1332 C1331 1.523 . S
H1333 C1308 0.950 . S
H1334 C1310 0.950 . S
H1335 C1311 0.949 . S
H1336 C1313 0.950 . S
H1337 C1315 0.950 . S
C1338 C1339 1.349 . S
C1338 C1340 1.327 . S
C1338 H1363 0.950 . S
C1339 C1338 1.349 . S
C1339 C1355 1.349 . S
C1340 C1338 1.327 . S
C1340 C1359 1.429 . S
C1340 H1364 0.950 . S
C1341 C1358 1.574 . S
C1341 C1360 1.368 . S
C1341 H1365 0.949 . S
H1342 C1346 0.949 . S
C1343 C1344 1.349 . S
C1343 C1345 1.327 . S
C1343 H1366 0.950 . S
C1344 C1343 1.349 . S
C1344 C1356 1.349 . S
C1345 C1343 1.327 . S
C1345 C1361 1.429 . S
C1345 H1367 0.950 . S
C1346 H1342 0.949 . S
C1346 C1354 1.574 . S
C1346 C1362 1.368 . S
H1347 C1355 0.950 . S
H1348 C1353 0.950 . S
H1349 C1354 0.949 . S
H1350 C1356 0.950 . S
H1351 C1357 0.950 . S
H1352 C1358 0.949 . S
C1353 H1348 0.950 . S
C1353 C1355 1.327 . S
C1353 C1359 1.429 . S
C1354 C1346 1.574 . S
C1354 H1349 0.949 . S
C1354 C1360 1.368 . S
C1355 C1339 1.349 . S
C1355 H1347 0.950 . S
C1355 C1353 1.327 . S
C1356 C1344 1.349 . S
C1356 H1350 0.950 . S
C1356 C1357 1.327 . S
C1357 H1351 0.950 . S
C1357 C1356 1.327 . S
C1357 C1361 1.429 . S
C1358 C1341 1.574 . S
C1358 H1352 0.949 . S
C1358 C1362 1.368 . S
C1359 C1340 1.429 . S
C1359 C1353 1.429 . S
C1359 C1360 1.523 . S
C1360 C1341 1.368 . S
C1360 C1354 1.368 . S
C1360 C1359 1.523 . S
C1361 C1345 1.429 . S
C1361 C1357 1.429 . S
C1361 C1362 1.523 . S
C1362 C1346 1.368 . S
C1362 C1358 1.368 . S
C1362 C1361 1.523 . S
H1363 C1338 0.950 . S
H1364 C1340 0.950 . S
H1365 C1341 0.949 . S
H1366 C1343 0.950 . S
H1367 C1345 0.950 . S
C1368 C1369 1.349 . S
C1368 C1370 1.327 . S
C1368 H1393 0.950 . S
C1369 C1368 1.349 . S
C1369 C1385 1.349 . S
C1370 C1368 1.327 . S
C1370 C1389 1.429 . S
C1370 H1394 0.950 . S
C1371 C1388 1.574 . S
C1371 C1390 1.368 . S
C1371 H1395 0.949 . S
H1372 C1376 0.949 . S
C1373 C1374 1.349 1_455 S
C1373 C1375 1.327 . S
C1373 H1396 0.950 1_455 S
C1374 C1373 1.349 1_655 S
C1374 C1386 1.349 1_655 S
C1375 C1373 1.327 . S
C1375 C1391 1.429 . S
C1375 H1397 0.950 . S
C1376 H1372 0.949 . S
C1376 C1384 1.574 . S
C1376 C1392 1.368 . S
H1377 C1385 0.950 . S
H1378 C1383 0.950 . S
H1379 C1384 0.949 . S
H1380 C1386 0.950 . S
H1381 C1387 0.950 . S
H1382 C1388 0.949 . S
C1383 H1378 0.950 . S
C1383 C1385 1.327 . S
C1383 C1389 1.429 . S
C1384 C1376 1.574 . S
C1384 H1379 0.949 . S
C1384 C1390 1.368 . S
C1385 C1369 1.349 . S
C1385 H1377 0.950 . S
C1385 C1383 1.327 . S
C1386 C1374 1.349 1_455 S
C1386 H1380 0.950 . S
C1386 C1387 1.327 . S
C1387 H1381 0.950 . S
C1387 C1386 1.327 . S
C1387 C1391 1.429 . S
C1388 C1371 1.574 . S
C1388 H1382 0.949 . S
C1388 C1392 1.368 . S
C1389 C1370 1.429 . S
C1389 C1383 1.429 . S
C1389 C1390 1.523 . S
C1390 C1371 1.368 . S
C1390 C1384 1.368 . S
C1390 C1389 1.523 . S
C1391 C1375 1.429 . S
C1391 C1387 1.429 . S
C1391 C1392 1.523 . S
C1392 C1376 1.368 . S
C1392 C1388 1.368 . S
C1392 C1391 1.523 . S
H1393 C1368 0.950 . S
H1394 C1370 0.950 . S
H1395 C1371 0.949 . S
H1396 C1373 0.950 1_655 S
H1397 C1375 0.950 . S
C1398 C1399 1.349 . S
C1398 C1400 1.327 . S
C1398 H1423 0.950 . S
C1399 C1398 1.349 . S
C1399 C1415 1.349 . S
C1400 C1398 1.327 . S
C1400 C1419 1.429 . S
C1400 H1424 0.950 . S
C1401 C1418 1.574 . S
C1401 C1420 1.368 . S
C1401 H1425 0.949 . S
H1402 C1406 0.949 . S
C1403 C1404 1.349 . S
C1403 C1405 1.327 . S
C1403 H1426 0.950 . S
C1404 C1403 1.349 . S
C1404 C1416 1.349 . S
C1405 C1403 1.327 . S
C1405 C1421 1.429 . S
C1405 H1427 0.950 . S
C1406 H1402 0.949 . S
C1406 C1414 1.574 . S
C1406 C1422 1.368 . S
H1407 C1415 0.950 . S
H1408 C1413 0.950 . S
H1409 C1414 0.949 . S
H1410 C1416 0.950 . S
H1411 C1417 0.950 . S
H1412 C1418 0.949 . S
C1413 H1408 0.950 . S
C1413 C1415 1.327 . S
C1413 C1419 1.429 . S
C1414 C1406 1.574 . S
C1414 H1409 0.949 . S
C1414 C1420 1.368 . S
C1415 C1399 1.349 . S
C1415 H1407 0.950 . S
C1415 C1413 1.327 . S
C1416 C1404 1.349 . S
C1416 H1410 0.950 . S
C1416 C1417 1.327 . S
C1417 H1411 0.950 . S
C1417 C1416 1.327 . S
C1417 C1421 1.429 . S
C1418 C1401 1.574 . S
C1418 H1412 0.949 . S
C1418 C1422 1.368 . S
C1419 C1400 1.429 . S
C1419 C1413 1.429 . S
C1419 C1420 1.523 . S
C1420 C1401 1.368 . S
C1420 C1414 1.368 . S
C1420 C1419 1.523 . S
C1421 C1405 1.429 . S
C1421 C1417 1.429 . S
C1421 C1422 1.523 . S
C1422 C1406 1.368 . S
C1422 C1418 1.368 . S
C1422 C1421 1.523 . S
H1423 C1398 0.950 . S
H1424 C1400 0.950 . S
H1425 C1401 0.949 . S
H1426 C1403 0.950 . S
H1427 C1405 0.950 . S
C1428 C1429 1.349 . S
C1428 C1430 1.327 . S
C1428 H1453 0.950 . S
C1429 C1428 1.349 . S
C1429 C1445 1.349 . S
C1430 C1428 1.327 . S
C1430 C1449 1.429 . S
C1430 H1454 0.950 . S
C1431 C1448 1.574 . S
C1431 C1450 1.368 . S
C1431 H1455 0.949 . S
H1432 C1436 0.949 . S
C1433 C1434 1.349 . S
C1433 C1435 1.327 . S
C1433 H1456 0.950 . S
C1434 C1433 1.349 . S
C1434 C1446 1.349 . S
C1435 C1433 1.327 . S
C1435 C1451 1.429 . S
C1435 H1457 0.950 . S
C1436 H1432 0.949 . S
C1436 C1444 1.574 . S
C1436 C1452 1.368 . S
H1437 C1445 0.950 . S
H1438 C1443 0.950 . S
H1439 C1444 0.949 . S
H1440 C1446 0.950 . S
H1441 C1447 0.950 . S
H1442 C1448 0.949 . S
C1443 H1438 0.950 . S
C1443 C1445 1.327 . S
C1443 C1449 1.429 . S
C1444 C1436 1.574 . S
C1444 H1439 0.949 . S
C1444 C1450 1.368 . S
C1445 C1429 1.349 . S
C1445 H1437 0.950 . S
C1445 C1443 1.327 . S
C1446 C1434 1.349 . S
C1446 H1440 0.950 . S
C1446 C1447 1.327 . S
C1447 H1441 0.950 . S
C1447 C1446 1.327 . S
C1447 C1451 1.429 . S
C1448 C1431 1.574 . S
C1448 H1442 0.949 . S
C1448 C1452 1.368 . S
C1449 C1430 1.429 . S
C1449 C1443 1.429 . S
C1449 C1450 1.523 . S
C1450 C1431 1.368 . S
C1450 C1444 1.368 . S
C1450 C1449 1.523 . S
C1451 C1435 1.429 . S
C1451 C1447 1.429 . S
C1451 C1452 1.523 . S
C1452 C1436 1.368 . S
C1452 C1448 1.368 . S
C1452 C1451 1.523 . S
H1453 C1428 0.950 . S
H1454 C1430 0.950 . S
H1455 C1431 0.949 . S
H1456 C1433 0.950 . S
H1457 C1435 0.950 . S
C1458 C1459 1.349 . S
C1458 C1460 1.327 . S
C1458 H1483 0.950 . S
C1459 C1458 1.349 . S
C1459 C1475 1.349 . S
C1460 C1458 1.327 . S
C1460 C1479 1.429 . S
C1460 H1484 0.950 . S
C1461 C1478 1.574 . S
C1461 C1480 1.368 . S
C1461 H1485 0.949 . S
H1462 C1466 0.949 . S
C1463 C1464 1.348 . S
C1463 C1465 1.331 1_455 S
C1463 H1486 0.947 . S
C1464 C1463 1.348 . S
C1464 C1476 1.349 1_455 S
C1465 C1463 1.331 1_655 S
C1465 C1481 1.429 . S
C1465 H1487 0.950 . S
C1466 H1462 0.949 . S
C1466 C1474 1.574 . S
C1466 C1482 1.368 . S
H1467 C1475 0.950 . S
H1468 C1473 0.950 . S
H1469 C1474 0.949 . S
H1470 C1476 0.950 . S
H1471 C1477 0.950 . S
H1472 C1478 0.949 . S
C1473 H1468 0.950 . S
C1473 C1475 1.327 . S
C1473 C1479 1.429 . S
C1474 C1466 1.574 . S
C1474 H1469 0.949 . S
C1474 C1480 1.368 . S
C1475 C1459 1.349 . S
C1475 H1467 0.950 . S
C1475 C1473 1.327 . S
C1476 C1464 1.349 1_655 S
C1476 H1470 0.950 . S
C1476 C1477 1.327 . S
C1477 H1471 0.950 . S
C1477 C1476 1.327 . S
C1477 C1481 1.429 . S
C1478 C1461 1.574 . S
C1478 H1472 0.949 . S
C1478 C1482 1.368 . S
C1479 C1460 1.429 . S
C1479 C1473 1.429 . S
C1479 C1480 1.523 . S
C1480 C1461 1.368 . S
C1480 C1474 1.368 . S
C1480 C1479 1.523 . S
C1481 C1465 1.429 . S
C1481 C1477 1.429 . S
C1481 C1482 1.523 . S
C1482 C1466 1.368 . S
C1482 C1478 1.368 . S
C1482 C1481 1.523 . S
H1483 C1458 0.950 . S
H1484 C1460 0.950 . S
H1485 C1461 0.949 . S
H1486 C1463 0.947 . S
H1487 C1465 0.950 . S
C1488 C1489 1.349 . S
C1488 C1490 1.327 1_565 S
C1488 H1513 0.950 . S
C1489 C1488 1.349 . S
C1489 C1505 1.349 1_565 S
C1490 C1488 1.327 1_545 S
C1490 C1509 1.429 . S
C1490 H1514 0.950 . S
C1491 C1508 1.574 . S
C1491 C1510 1.368 . S
C1491 H1515 0.949 . S
H1492 C1496 0.949 . S
C1493 C1494 1.349 . S
C1493 C1495 1.327 . S
C1493 H1516 0.950 . S
C1494 C1493 1.349 . S
C1494 C1506 1.349 . S
C1495 C1493 1.327 . S
C1495 C1511 1.429 . S
C1495 H1517 0.950 . S
C1496 H1492 0.949 . S
C1496 C1504 1.574 . S
C1496 C1512 1.368 . S
H1497 C1505 0.950 . S
H1498 C1503 0.950 . S
H1499 C1504 0.949 . S
H1500 C1506 0.950 . S
H1501 C1507 0.950 . S
H1502 C1508 0.949 . S
C1503 H1498 0.950 . S
C1503 C1505 1.327 . S
C1503 C1509 1.429 . S
C1504 C1496 1.574 . S
C1504 H1499 0.949 . S
C1504 C1510 1.368 . S
C1505 C1489 1.349 1_545 S
C1505 H1497 0.950 . S
C1505 C1503 1.327 . S
C1506 C1494 1.349 . S
C1506 H1500 0.950 . S
C1506 C1507 1.327 . S
C1507 H1501 0.950 . S
C1507 C1506 1.327 . S
C1507 C1511 1.429 . S
C1508 C1491 1.574 . S
C1508 H1502 0.949 . S
C1508 C1512 1.368 . S
C1509 C1490 1.429 . S
C1509 C1503 1.429 . S
C1509 C1510 1.523 . S
C1510 C1491 1.368 . S
C1510 C1504 1.368 . S
C1510 C1509 1.523 . S
C1511 C1495 1.429 . S
C1511 C1507 1.429 . S
C1511 C1512 1.523 . S
C1512 C1496 1.368 . S
C1512 C1508 1.368 . S
C1512 C1511 1.523 . S
H1513 C1488 0.950 . S
H1514 C1490 0.950 . S
H1515 C1491 0.949 . S
H1516 C1493 0.950 . S
H1517 C1495 0.950 . S
C1518 C1519 1.349 . S
C1518 C1520 1.327 . S
C1518 H1543 0.950 . S
C1519 C1518 1.349 . S
C1519 C1535 1.349 . S
C1520 C1518 1.327 . S
C1520 C1539 1.429 . S
C1520 H1544 0.950 . S
C1521 C1538 1.574 . S
C1521 C1540 1.368 . S
C1521 H1545 0.949 . S
H1522 C1526 0.949 . S
C1523 C1524 1.349 . S
C1523 C1525 1.327 . S
C1523 H1546 0.950 . S
C1524 C1523 1.349 . S
C1524 C1536 1.349 . S
C1525 C1523 1.327 . S
C1525 C1541 1.429 . S
C1525 H1547 0.950 . S
C1526 H1522 0.949 . S
C1526 C1534 1.574 . S
C1526 C1542 1.368 . S
H1527 C1535 0.950 . S
H1528 C1533 0.950 . S
H1529 C1534 0.949 . S
H1530 C1536 0.950 . S
H1531 C1537 0.950 . S
H1532 C1538 0.949 . S
C1533 H1528 0.950 . S
C1533 C1535 1.327 . S
C1533 C1539 1.429 . S
C1534 C1526 1.574 . S
C1534 H1529 0.949 . S
C1534 C1540 1.368 . S
C1535 C1519 1.349 . S
C1535 H1527 0.950 . S
C1535 C1533 1.327 . S
C1536 C1524 1.349 . S
C1536 H1530 0.950 . S
C1536 C1537 1.327 . S
C1537 H1531 0.950 . S
C1537 C1536 1.327 . S
C1537 C1541 1.429 . S
C1538 C1521 1.574 . S
C1538 H1532 0.949 . S
C1538 C1542 1.368 . S
C1539 C1520 1.429 . S
C1539 C1533 1.429 . S
C1539 C1540 1.523 . S
C1540 C1521 1.368 . S
C1540 C1534 1.368 . S
C1540 C1539 1.523 . S
C1541 C1525 1.429 . S
C1541 C1537 1.429 . S
C1541 C1542 1.523 . S
C1542 C1526 1.368 . S
C1542 C1538 1.368 . S
C1542 C1541 1.523 . S
H1543 C1518 0.950 . S
H1544 C1520 0.950 . S
H1545 C1521 0.949 . S
H1546 C1523 0.950 . S
H1547 C1525 0.950 . S
C1548 C1549 1.349 . S
C1548 C1550 1.327 . S
C1548 H1573 0.950 . S
C1549 C1548 1.349 . S
C1549 C1565 1.349 . S
C1550 C1548 1.327 . S
C1550 C1569 1.429 . S
C1550 H1574 0.950 . S
C1551 C1568 1.574 . S
C1551 C1570 1.368 . S
C1551 H1575 0.949 . S
H1552 C1556 0.949 . S
C1553 C1554 1.349 . S
C1553 C1555 1.327 . S
C1553 H1576 0.950 . S
C1554 C1553 1.349 . S
C1554 C1566 1.349 . S
C1555 C1553 1.327 . S
C1555 C1571 1.429 . S
C1555 H1577 0.950 . S
C1556 H1552 0.949 . S
C1556 C1564 1.574 . S
C1556 C1572 1.368 . S
H1557 C1565 0.950 . S
H1558 C1563 0.950 . S
H1559 C1564 0.949 . S
H1560 C1566 0.950 . S
H1561 C1567 0.950 . S
H1562 C1568 0.949 . S
C1563 H1558 0.950 . S
C1563 C1565 1.327 . S
C1563 C1569 1.429 . S
C1564 C1556 1.574 . S
C1564 H1559 0.949 . S
C1564 C1570 1.368 . S
C1565 C1549 1.349 . S
C1565 H1557 0.950 . S
C1565 C1563 1.327 . S
C1566 C1554 1.349 . S
C1566 H1560 0.950 . S
C1566 C1567 1.327 . S
C1567 H1561 0.950 . S
C1567 C1566 1.327 . S
C1567 C1571 1.429 . S
C1568 C1551 1.574 . S
C1568 H1562 0.949 . S
C1568 C1572 1.368 . S
C1569 C1550 1.429 . S
C1569 C1563 1.429 . S
C1569 C1570 1.523 . S
C1570 C1551 1.368 . S
C1570 C1564 1.368 . S
C1570 C1569 1.523 . S
C1571 C1555 1.429 . S
C1571 C1567 1.429 . S
C1571 C1572 1.523 . S
C1572 C1556 1.368 . S
C1572 C1568 1.368 . S
C1572 C1571 1.523 . S
H1573 C1548 0.950 . S
H1574 C1550 0.950 . S
H1575 C1551 0.949 . S
H1576 C1553 0.950 . S
H1577 C1555 0.950 . S
C1578 C1579 1.349 . S
C1578 C1580 1.327 1_545 S
C1578 H1603 0.950 . S
C1579 C1578 1.349 . S
C1579 C1595 1.349 1_545 S
C1580 C1578 1.327 1_565 S
C1580 C1599 1.429 . S
C1580 H1604 0.950 . S
C1581 C1598 1.574 . S
C1581 C1600 1.368 . S
C1581 H1605 0.949 . S
H1582 C1586 0.949 . S
C1583 C1584 1.349 . S
C1583 C1585 1.327 . S
C1583 H1606 0.950 . S
C1584 C1583 1.349 . S
C1584 C1596 1.349 . S
C1585 C1583 1.327 . S
C1585 C1601 1.429 . S
C1585 H1607 0.950 . S
C1586 H1582 0.949 . S
C1586 C1594 1.574 . S
C1586 C1602 1.368 . S
H1587 C1595 0.950 . S
H1588 C1593 0.950 . S
H1589 C1594 0.949 . S
H1590 C1596 0.950 . S
H1591 C1597 0.950 . S
H1592 C1598 0.949 . S
C1593 H1588 0.950 . S
C1593 C1595 1.327 . S
C1593 C1599 1.429 . S
C1594 C1586 1.574 . S
C1594 H1589 0.949 . S
C1594 C1600 1.368 . S
C1595 C1579 1.349 1_565 S
C1595 H1587 0.950 . S
C1595 C1593 1.327 . S
C1596 C1584 1.349 . S
C1596 H1590 0.950 . S
C1596 C1597 1.327 . S
C1597 H1591 0.950 . S
C1597 C1596 1.327 . S
C1597 C1601 1.429 . S
C1598 C1581 1.574 . S
C1598 H1592 0.949 . S
C1598 C1602 1.368 . S
C1599 C1580 1.429 . S
C1599 C1593 1.429 . S
C1599 C1600 1.523 . S
C1600 C1581 1.368 . S
C1600 C1594 1.368 . S
C1600 C1599 1.523 . S
C1601 C1585 1.429 . S
C1601 C1597 1.429 . S
C1601 C1602 1.523 . S
C1602 C1586 1.368 . S
C1602 C1598 1.368 . S
C1602 C1601 1.523 . S
H1603 C1578 0.950 . S
H1604 C1580 0.950 . S
H1605 C1581 0.949 . S
H1606 C1583 0.950 . S
H1607 C1585 0.950 . S
C1608 C1609 1.349 . S
C1608 C1610 1.327 . S
C1608 H1633 0.950 . S
C1609 C1608 1.349 . S
C1609 C1625 1.349 . S
C1610 C1608 1.327 . S
C1610 C1629 1.429 . S
C1610 H1634 0.950 . S
C1611 C1628 1.574 . S
C1611 C1630 1.368 . S
C1611 H1635 0.949 . S
H1612 C1616 0.949 . S
C1613 C1614 1.349 1_556 S
C1613 C1615 1.327 . S
C1613 H1636 0.950 1_556 S
C1614 C1613 1.349 1_554 S
C1614 C1626 1.349 1_554 S
C1615 C1613 1.327 . S
C1615 C1631 1.429 . S
C1615 H1637 0.950 . S
C1616 H1612 0.949 . S
C1616 C1624 1.574 . S
C1616 C1632 1.368 . S
H1617 C1625 0.950 . S
H1618 C1623 0.950 . S
H1619 C1624 0.949 . S
H1620 C1626 0.950 . S
H1621 C1627 0.950 . S
H1622 C1628 0.949 . S
C1623 H1618 0.950 . S
C1623 C1625 1.327 . S
C1623 C1629 1.429 . S
C1624 C1616 1.574 . S
C1624 H1619 0.949 . S
C1624 C1630 1.368 . S
C1625 C1609 1.349 . S
C1625 H1617 0.950 . S
C1625 C1623 1.327 . S
C1626 C1614 1.349 1_556 S
C1626 H1620 0.950 . S
C1626 C1627 1.327 . S
C1627 H1621 0.950 . S
C1627 C1626 1.327 . S
C1627 C1631 1.429 . S
C1628 C1611 1.574 . S
C1628 H1622 0.949 . S
C1628 C1632 1.368 . S
C1629 C1610 1.429 . S
C1629 C1623 1.429 . S
C1629 C1630 1.523 . S
C1630 C1611 1.368 . S
C1630 C1624 1.368 . S
C1630 C1629 1.523 . S
C1631 C1615 1.429 . S
C1631 C1627 1.429 . S
C1631 C1632 1.523 . S
C1632 C1616 1.368 . S
C1632 C1628 1.368 . S
C1632 C1631 1.523 . S
H1633 C1608 0.950 . S
H1634 C1610 0.950 . S
H1635 C1611 0.949 . S
H1636 C1613 0.950 1_554 S
H1637 C1615 0.950 . S
C1638 C1639 1.349 . S
C1638 C1640 1.327 . S
C1638 H1663 0.950 . S
C1639 C1638 1.349 . S
C1639 C1655 1.349 . S
C1640 C1638 1.327 . S
C1640 C1659 1.429 . S
C1640 H1664 0.950 . S
C1641 C1658 1.574 . S
C1641 C1660 1.368 . S
C1641 H1665 0.949 . S
H1642 C1646 0.949 . S
C1643 C1644 1.349 . S
C1643 C1645 1.327 . S
C1643 H1666 0.950 . S
C1644 C1643 1.349 . S
C1644 C1656 1.349 . S
C1645 C1643 1.327 . S
C1645 C1661 1.429 . S
C1645 H1667 0.950 . S
C1646 H1642 0.949 . S
C1646 C1654 1.574 . S
C1646 C1662 1.368 . S
H1647 C1655 0.950 . S
H1648 C1653 0.950 . S
H1649 C1654 0.949 . S
H1650 C1656 0.950 . S
H1651 C1657 0.950 . S
H1652 C1658 0.949 . S
C1653 H1648 0.950 . S
C1653 C1655 1.327 . S
C1653 C1659 1.429 . S
C1654 C1646 1.574 . S
C1654 H1649 0.949 . S
C1654 C1660 1.368 . S
C1655 C1639 1.349 . S
C1655 H1647 0.950 . S
C1655 C1653 1.327 . S
C1656 C1644 1.349 . S
C1656 H1650 0.950 . S
C1656 C1657 1.327 . S
C1657 H1651 0.950 . S
C1657 C1656 1.327 . S
C1657 C1661 1.429 . S
C1658 C1641 1.574 . S
C1658 H1652 0.949 . S
C1658 C1662 1.368 . S
C1659 C1640 1.429 . S
C1659 C1653 1.429 . S
C1659 C1660 1.523 . S
C1660 C1641 1.368 . S
C1660 C1654 1.368 . S
C1660 C1659 1.523 . S
C1661 C1645 1.429 . S
C1661 C1657 1.429 . S
C1661 C1662 1.523 . S
C1662 C1646 1.368 . S
C1662 C1658 1.368 . S
C1662 C1661 1.523 . S
H1663 C1638 0.950 . S
H1664 C1640 0.950 . S
H1665 C1641 0.949 . S
H1666 C1643 0.950 . S
H1667 C1645 0.950 . S
C1668 C1669 1.349 1_554 S
C1668 C1670 1.327 . S
C1668 H1693 0.950 . S
C1669 C1668 1.349 1_556 S
C1669 C1685 1.349 . S
C1670 C1668 1.327 . S
C1670 C1689 1.429 . S
C1670 H1694 0.950 . S
C1671 C1688 1.574 . S
C1671 C1690 1.368 . S
C1671 H1695 0.949 . S
H1672 C1676 0.949 . S
C1673 C1674 1.349 . S
C1673 C1675 1.327 . S
C1673 H1696 0.950 . S
C1674 C1673 1.349 . S
C1674 C1686 1.349 . S
C1675 C1673 1.327 . S
C1675 C1691 1.429 . S
C1675 H1697 0.950 . S
C1676 H1672 0.949 . S
C1676 C1684 1.574 . S
C1676 C1692 1.368 . S
H1677 C1685 0.950 . S
H1678 C1683 0.950 . S
H1679 C1684 0.949 . S
H1680 C1686 0.950 . S
H1681 C1687 0.950 . S
H1682 C1688 0.949 . S
C1683 H1678 0.950 . S
C1683 C1685 1.327 1_554 S
C1683 C1689 1.429 . S
C1684 C1676 1.574 . S
C1684 H1679 0.949 . S
C1684 C1690 1.368 . S
C1685 C1669 1.349 . S
C1685 H1677 0.950 . S
C1685 C1683 1.327 1_556 S
C1686 C1674 1.349 . S
C1686 H1680 0.950 . S
C1686 C1687 1.327 . S
C1687 H1681 0.950 . S
C1687 C1686 1.327 . S
C1687 C1691 1.429 . S
C1688 C1671 1.574 . S
C1688 H1682 0.949 . S
C1688 C1692 1.368 . S
C1689 C1670 1.429 . S
C1689 C1683 1.429 . S
C1689 C1690 1.523 . S
C1690 C1671 1.368 . S
C1690 C1684 1.368 . S
C1690 C1689 1.523 . S
C1691 C1675 1.429 . S
C1691 C1687 1.429 . S
C1691 C1692 1.523 . S
C1692 C1676 1.368 . S
C1692 C1688 1.368 . S
C1692 C1691 1.523 . S
H1693 C1668 0.950 . S
H1694 C1670 0.950 . S
H1695 C1671 0.949 . S
H1696 C1673 0.950 . S
H1697 C1675 0.950 . S
C1698 C1699 1.349 . S
C1698 C1700 1.327 . S
C1698 H1723 0.950 . S
C1699 C1698 1.349 . S
C1699 C1715 1.349 . S
C1700 C1698 1.327 . S
C1700 C1719 1.429 . S
C1700 H1724 0.950 . S
C1701 C1718 1.574 . S
C1701 C1720 1.368 . S
C1701 H1725 0.949 . S
H1702 C1706 0.949 . S
C1703 C1704 1.349 . S
C1703 C1705 1.327 . S
C1703 H1726 0.950 . S
C1704 C1703 1.349 . S
C1704 C1716 1.349 . S
C1705 C1703 1.327 . S
C1705 C1721 1.429 . S
C1705 H1727 0.950 . S
C1706 H1702 0.949 . S
C1706 C1714 1.574 . S
C1706 C1722 1.368 . S
H1707 C1715 0.950 . S
H1708 C1713 0.950 . S
H1709 C1714 0.949 . S
H1710 C1716 0.950 . S
H1711 C1717 0.950 . S
H1712 C1718 0.949 . S
C1713 H1708 0.950 . S
C1713 C1715 1.327 . S
C1713 C1719 1.429 . S
C1714 C1706 1.574 . S
C1714 H1709 0.949 . S
C1714 C1720 1.368 . S
C1715 C1699 1.349 . S
C1715 H1707 0.950 . S
C1715 C1713 1.327 . S
C1716 C1704 1.349 . S
C1716 H1710 0.950 . S
C1716 C1717 1.327 . S
C1717 H1711 0.950 . S
C1717 C1716 1.327 . S
C1717 C1721 1.429 . S
C1718 C1701 1.574 . S
C1718 H1712 0.949 . S
C1718 C1722 1.368 . S
C1719 C1700 1.429 . S
C1719 C1713 1.429 . S
C1719 C1720 1.523 . S
C1720 C1701 1.368 . S
C1720 C1714 1.368 . S
C1720 C1719 1.523 . S
C1721 C1705 1.429 . S
C1721 C1717 1.429 . S
C1721 C1722 1.523 . S
C1722 C1706 1.368 . S
C1722 C1718 1.368 . S
C1722 C1721 1.523 . S
H1723 C1698 0.950 . S
H1724 C1700 0.950 . S
H1725 C1701 0.949 . S
H1726 C1703 0.950 . S
H1727 C1705 0.950 . S
C1728 C1729 1.353 . S
C1728 C1730 1.309 1_455 S
C1728 H1753 0.964 . S
C1729 C1728 1.353 . S
C1729 C1745 1.349 1_455 S
C1730 C1728 1.309 1_655 S
C1730 C1749 1.429 . S
C1730 H1754 0.950 . S
C1731 C1748 1.574 . S
C1731 C1750 1.368 . S
C1731 H1755 0.949 . S
H1732 C1736 0.949 . S
C1733 C1734 1.349 . S
C1733 C1735 1.327 . S
C1733 H1756 0.950 . S
C1734 C1733 1.349 . S
C1734 C1746 1.349 . S
C1735 C1733 1.327 . S
C1735 C1751 1.429 . S
C1735 H1757 0.950 . S
C1736 H1732 0.949 . S
C1736 C1744 1.574 . S
C1736 C1752 1.368 . S
H1737 C1745 0.950 . S
H1738 C1743 0.950 . S
H1739 C1744 0.949 . S
H1740 C1746 0.950 . S
H1741 C1747 0.950 . S
H1742 C1748 0.949 . S
C1743 H1738 0.950 . S
C1743 C1745 1.327 . S
C1743 C1749 1.429 . S
C1744 C1736 1.574 . S
C1744 H1739 0.949 . S
C1744 C1750 1.368 . S
C1745 C1729 1.349 1_655 S
C1745 H1737 0.950 . S
C1745 C1743 1.327 . S
C1746 C1734 1.349 . S
C1746 H1740 0.950 . S
C1746 C1747 1.327 . S
C1747 H1741 0.950 . S
C1747 C1746 1.327 . S
C1747 C1751 1.429 . S
C1748 C1731 1.574 . S
C1748 H1742 0.949 . S
C1748 C1752 1.368 . S
C1749 C1730 1.429 . S
C1749 C1743 1.429 . S
C1749 C1750 1.523 . S
C1750 C1731 1.368 . S
C1750 C1744 1.368 . S
C1750 C1749 1.523 . S
C1751 C1735 1.429 . S
C1751 C1747 1.429 . S
C1751 C1752 1.523 . S
C1752 C1736 1.368 . S
C1752 C1748 1.368 . S
C1752 C1751 1.523 . S
H1753 C1728 0.964 . S
H1754 C1730 0.950 . S
H1755 C1731 0.949 . S
H1756 C1733 0.950 . S
H1757 C1735 0.950 . S
C1758 C1759 1.349 . S
C1758 C1760 1.327 . S
C1758 H1783 0.950 . S
C1759 C1758 1.349 . S
C1759 C1775 1.349 . S
C1760 C1758 1.327 . S
C1760 C1779 1.429 . S
C1760 H1784 0.950 . S
C1761 C1778 1.574 . S
C1761 C1780 1.368 . S
C1761 H1785 0.949 . S
H1762 C1766 0.949 . S
C1763 C1764 1.349 . S
C1763 C1765 1.327 . S
C1763 H1786 0.950 . S
C1764 C1763 1.349 . S
C1764 C1776 1.349 . S
C1765 C1763 1.327 . S
C1765 C1781 1.429 . S
C1765 H1787 0.950 . S
C1766 H1762 0.949 . S
C1766 C1774 1.574 . S
C1766 C1782 1.368 . S
H1767 C1775 0.950 . S
H1768 C1773 0.950 . S
H1769 C1774 0.949 . S
H1770 C1776 0.950 . S
H1771 C1777 0.950 . S
H1772 C1778 0.949 . S
C1773 H1768 0.950 . S
C1773 C1775 1.327 . S
C1773 C1779 1.429 . S
C1774 C1766 1.574 . S
C1774 H1769 0.949 . S
C1774 C1780 1.368 . S
C1775 C1759 1.349 . S
C1775 H1767 0.950 . S
C1775 C1773 1.327 . S
C1776 C1764 1.349 . S
C1776 H1770 0.950 . S
C1776 C1777 1.327 . S
C1777 H1771 0.950 . S
C1777 C1776 1.327 . S
C1777 C1781 1.429 . S
C1778 C1761 1.574 . S
C1778 H1772 0.949 . S
C1778 C1782 1.368 . S
C1779 C1760 1.429 . S
C1779 C1773 1.429 . S
C1779 C1780 1.523 . S
C1780 C1761 1.368 . S
C1780 C1774 1.368 . S
C1780 C1779 1.523 . S
C1781 C1765 1.429 . S
C1781 C1777 1.429 . S
C1781 C1782 1.523 . S
C1782 C1766 1.368 . S
C1782 C1778 1.368 . S
C1782 C1781 1.523 . S
H1783 C1758 0.950 . S
H1784 C1760 0.950 . S
H1785 C1761 0.949 . S
H1786 C1763 0.950 . S
H1787 C1765 0.950 . S
C1788 C1789 1.349 . S
C1788 C1790 1.327 . S
C1788 H1813 0.950 . S
C1789 C1788 1.349 . S
C1789 C1805 1.349 . S
C1790 C1788 1.327 . S
C1790 C1809 1.429 . S
C1790 H1814 0.950 . S
C1791 C1808 1.574 . S
C1791 C1810 1.368 . S
C1791 H1815 0.949 . S
H1792 C1796 0.949 . S
C1793 C1794 1.349 . S
C1793 C1795 1.327 . S
C1793 H1816 0.950 . S
C1794 C1793 1.349 . S
C1794 C1806 1.349 . S
C1795 C1793 1.327 . S
C1795 C1811 1.429 . S
C1795 H1817 0.950 . S
C1796 H1792 0.949 . S
C1796 C1804 1.574 . S
C1796 C1812 1.368 . S
H1797 C1805 0.950 . S
H1798 C1803 0.950 . S
H1799 C1804 0.949 . S
H1800 C1806 0.950 . S
H1801 C1807 0.950 . S
H1802 C1808 0.949 . S
C1803 H1798 0.950 . S
C1803 C1805 1.327 . S
C1803 C1809 1.429 . S
C1804 C1796 1.574 . S
C1804 H1799 0.949 . S
C1804 C1810 1.368 . S
C1805 C1789 1.349 . S
C1805 H1797 0.950 . S
C1805 C1803 1.327 . S
C1806 C1794 1.349 . S
C1806 H1800 0.950 . S
C1806 C1807 1.327 . S
C1807 H1801 0.950 . S
C1807 C1806 1.327 . S
C1807 C1811 1.429 . S
C1808 C1791 1.574 . S
C1808 H1802 0.949 . S
C1808 C1812 1.368 . S
C1809 C1790 1.429 . S
C1809 C1803 1.429 . S
C1809 C1810 1.523 . S
C1810 C1791 1.368 . S
C1810 C1804 1.368 . S
C1810 C1809 1.523 . S
C1811 C1795 1.429 . S
C1811 C1807 1.429 . S
C1811 C1812 1.523 . S
C1812 C1796 1.368 . S
C1812 C1808 1.368 . S
C1812 C1811 1.523 . S
H1813 C1788 0.950 . S
H1814 C1790 0.950 . S
H1815 C1791 0.949 . S
H1816 C1793 0.950 . S
H1817 C1795 0.950 . S
C1818 C1819 1.349 . S
C1818 C1820 1.327 1_655 S
C1818 H1843 0.950 . S
C1819 C1818 1.349 . S
C1819 C1835 1.349 1_655 S
C1820 C1818 1.327 1_455 S
C1820 C1839 1.429 . S
C1820 H1844 0.950 . S
C1821 C1838 1.574 . S
C1821 C1840 1.368 . S
C1821 H1845 0.949 . S
H1822 C1826 0.949 . S
C1823 C1824 1.349 . S
C1823 C1825 1.327 . S
C1823 H1846 0.950 . S
C1824 C1823 1.349 . S
C1824 C1836 1.349 . S
C1825 C1823 1.327 . S
C1825 C1841 1.429 . S
C1825 H1847 0.950 . S
C1826 H1822 0.949 . S
C1826 C1834 1.574 . S
C1826 C1842 1.368 . S
H1827 C1835 0.950 . S
H1828 C1833 0.950 . S
H1829 C1834 0.949 . S
H1830 C1836 0.950 . S
H1831 C1837 0.950 . S
H1832 C1838 0.949 . S
C1833 H1828 0.950 . S
C1833 C1835 1.327 . S
C1833 C1839 1.429 . S
C1834 C1826 1.574 . S
C1834 H1829 0.949 . S
C1834 C1840 1.368 . S
C1835 C1819 1.349 1_455 S
C1835 H1827 0.950 . S
C1835 C1833 1.327 . S
C1836 C1824 1.349 . S
C1836 H1830 0.950 . S
C1836 C1837 1.327 . S
C1837 H1831 0.950 . S
C1837 C1836 1.327 . S
C1837 C1841 1.429 . S
C1838 C1821 1.574 . S
C1838 H1832 0.949 . S
C1838 C1842 1.368 . S
C1839 C1820 1.429 . S
C1839 C1833 1.429 . S
C1839 C1840 1.523 . S
C1840 C1821 1.368 . S
C1840 C1834 1.368 . S
C1840 C1839 1.523 . S
C1841 C1825 1.429 . S
C1841 C1837 1.429 . S
C1841 C1842 1.523 . S
C1842 C1826 1.368 . S
C1842 C1838 1.368 . S
C1842 C1841 1.523 . S
H1843 C1818 0.950 . S
H1844 C1820 0.950 . S
H1845 C1821 0.949 . S
H1846 C1823 0.950 . S
H1847 C1825 0.950 . S
C1848 C1849 1.349 . S
C1848 C1850 1.327 . S
C1848 H1873 0.950 . S
C1849 C1848 1.349 . S
C1849 C1865 1.349 . S
C1850 C1848 1.327 . S
C1850 C1869 1.429 . S
C1850 H1874 0.950 . S
C1851 C1868 1.574 . S
C1851 C1870 1.368 . S
C1851 H1875 0.949 . S
H1852 C1856 0.949 . S
C1853 C1854 1.349 1_565 S
C1853 C1855 1.327 . S
C1853 H1876 0.950 . S
C1854 C1853 1.349 1_545 S
C1854 C1866 1.349 . S
C1855 C1853 1.327 . S
C1855 C1871 1.429 . S
C1855 H1877 0.950 . S
C1856 H1852 0.949 . S
C1856 C1864 1.574 . S
C1856 C1872 1.368 . S
H1857 C1865 0.950 . S
H1858 C1863 0.950 . S
H1859 C1864 0.949 . S
H1860 C1866 0.950 . S
H1861 C1867 0.950 . S
H1862 C1868 0.949 . S
C1863 H1858 0.950 . S
C1863 C1865 1.327 . S
C1863 C1869 1.429 . S
C1864 C1856 1.574 . S
C1864 H1859 0.949 . S
C1864 C1870 1.368 . S
C1865 C1849 1.349 . S
C1865 H1857 0.950 . S
C1865 C1863 1.327 . S
C1866 C1854 1.349 . S
C1866 H1860 0.950 . S
C1866 C1867 1.327 1_545 S
C1867 H1861 0.950 . S
C1867 C1866 1.327 1_565 S
C1867 C1871 1.429 . S
C1868 C1851 1.574 . S
C1868 H1862 0.949 . S
C1868 C1872 1.368 . S
C1869 C1850 1.429 . S
C1869 C1863 1.429 . S
C1869 C1870 1.523 . S
C1870 C1851 1.368 . S
C1870 C1864 1.368 . S
C1870 C1869 1.523 . S
C1871 C1855 1.429 . S
C1871 C1867 1.429 . S
C1871 C1872 1.523 . S
C1872 C1856 1.368 . S
C1872 C1868 1.368 . S
C1872 C1871 1.523 . S
H1873 C1848 0.950 . S
H1874 C1850 0.950 . S
H1875 C1851 0.949 . S
H1876 C1853 0.950 . S
H1877 C1855 0.950 . S
C1878 C1879 1.349 . S
C1878 C1880 1.327 . S
C1878 H1903 0.950 . S
C1879 C1878 1.349 . S
C1879 C1895 1.349 . S
C1880 C1878 1.327 . S
C1880 C1899 1.429 . S
C1880 H1904 0.950 . S
C1881 C1898 1.574 . S
C1881 C1900 1.368 . S
C1881 H1905 0.949 . S
H1882 C1886 0.949 . S
C1883 C1884 1.349 . S
C1883 C1885 1.327 . S
C1883 H1906 0.950 . S
C1884 C1883 1.349 . S
C1884 C1896 1.349 . S
C1885 C1883 1.327 . S
C1885 C1901 1.429 . S
C1885 H1907 0.950 . S
C1886 H1882 0.949 . S
C1886 C1894 1.574 . S
C1886 C1902 1.368 . S
H1887 C1895 0.950 . S
H1888 C1893 0.950 . S
H1889 C1894 0.949 . S
H1890 C1896 0.950 . S
H1891 C1897 0.950 . S
H1892 C1898 0.949 . S
C1893 H1888 0.950 . S
C1893 C1895 1.327 . S
C1893 C1899 1.429 . S
C1894 C1886 1.574 . S
C1894 H1889 0.949 . S
C1894 C1900 1.368 . S
C1895 C1879 1.349 . S
C1895 H1887 0.950 . S
C1895 C1893 1.327 . S
C1896 C1884 1.349 . S
C1896 H1890 0.950 . S
C1896 C1897 1.327 . S
C1897 H1891 0.950 . S
C1897 C1896 1.327 . S
C1897 C1901 1.429 . S
C1898 C1881 1.574 . S
C1898 H1892 0.949 . S
C1898 C1902 1.368 . S
C1899 C1880 1.429 . S
C1899 C1893 1.429 . S
C1899 C1900 1.523 . S
C1900 C1881 1.368 . S
C1900 C1894 1.368 . S
C1900 C1899 1.523 . S
C1901 C1885 1.429 . S
C1901 C1897 1.429 . S
C1901 C1902 1.523 . S
C1902 C1886 1.368 . S
C1902 C1898 1.368 . S
C1902 C1901 1.523 . S
H1903 C1878 0.950 . S
H1904 C1880 0.950 . S
H1905 C1881 0.949 . S
H1906 C1883 0.950 . S
H1907 C1885 0.950 . S
C1908 C1909 1.349 . S
C1908 C1910 1.327 . S
C1908 H1933 0.950 . S
C1909 C1908 1.349 . S
C1909 C1925 1.349 . S
C1910 C1908 1.327 . S
C1910 C1929 1.429 . S
C1910 H1934 0.950 . S
C1911 C1928 1.574 . S
C1911 C1930 1.368 . S
C1911 H1935 0.949 . S
H1912 C1916 0.949 . S
C1913 C1914 1.349 . S
C1913 C1915 1.327 . S
C1913 H1936 0.950 . S
C1914 C1913 1.349 . S
C1914 C1926 1.349 . S
C1915 C1913 1.327 . S
C1915 C1931 1.429 . S
C1915 H1937 0.950 . S
C1916 H1912 0.949 . S
C1916 C1924 1.574 . S
C1916 C1932 1.368 . S
H1917 C1925 0.950 . S
H1918 C1923 0.950 . S
H1919 C1924 0.949 . S
H1920 C1926 0.950 . S
H1921 C1927 0.950 . S
H1922 C1928 0.949 . S
C1923 H1918 0.950 . S
C1923 C1925 1.327 . S
C1923 C1929 1.429 . S
C1924 C1916 1.574 . S
C1924 H1919 0.949 . S
C1924 C1930 1.368 . S
C1925 C1909 1.349 . S
C1925 H1917 0.950 . S
C1925 C1923 1.327 . S
C1926 C1914 1.349 . S
C1926 H1920 0.950 . S
C1926 C1927 1.327 . S
C1927 H1921 0.950 . S
C1927 C1926 1.327 . S
C1927 C1931 1.429 . S
C1928 C1911 1.574 . S
C1928 H1922 0.949 . S
C1928 C1932 1.368 . S
C1929 C1910 1.429 . S
C1929 C1923 1.429 . S
C1929 C1930 1.523 . S
C1930 C1911 1.368 . S
C1930 C1924 1.368 . S
C1930 C1929 1.523 . S
C1931 C1915 1.429 . S
C1931 C1927 1.429 . S
C1931 C1932 1.523 . S
C1932 C1916 1.368 . S
C1932 C1928 1.368 . S
C1932 C1931 1.523 . S
H1933 C1908 0.950 . S
H1934 C1910 0.950 . S
H1935 C1911 0.949 . S
H1936 C1913 0.950 . S
H1937 C1915 0.950 . S
C1938 C1939 1.349 1_545 S
C1938 C1940 1.327 . S
C1938 H1963 0.950 1_545 S
C1939 C1938 1.349 1_565 S
C1939 C1955 1.349 1_565 S
C1940 C1938 1.327 . S
C1940 C1959 1.429 . S
C1940 H1964 0.950 . S
C1941 C1958 1.574 . S
C1941 C1960 1.368 . S
C1941 H1965 0.949 . S
H1942 C1946 0.949 . S
C1943 C1944 1.349 . S
C1943 C1945 1.327 . S
C1943 H1966 0.950 . S
C1944 C1943 1.349 . S
C1944 C1956 1.349 . S
C1945 C1943 1.327 . S
C1945 C1961 1.429 . S
C1945 H1967 0.950 . S
C1946 H1942 0.949 . S
C1946 C1954 1.574 . S
C1946 C1962 1.368 . S
H1947 C1955 0.950 . S
H1948 C1953 0.950 . S
H1949 C1954 0.949 . S
H1950 C1956 0.950 . S
H1951 C1957 0.950 . S
H1952 C1958 0.949 . S
C1953 H1948 0.950 . S
C1953 C1955 1.327 . S
C1953 C1959 1.429 . S
C1954 C1946 1.574 . S
C1954 H1949 0.949 . S
C1954 C1960 1.368 . S
C1955 C1939 1.349 1_545 S
C1955 H1947 0.950 . S
C1955 C1953 1.327 . S
C1956 C1944 1.349 . S
C1956 H1950 0.950 . S
C1956 C1957 1.327 . S
C1957 H1951 0.950 . S
C1957 C1956 1.327 . S
C1957 C1961 1.429 . S
C1958 C1941 1.574 . S
C1958 H1952 0.949 . S
C1958 C1962 1.368 . S
C1959 C1940 1.429 . S
C1959 C1953 1.429 . S
C1959 C1960 1.523 . S
C1960 C1941 1.368 . S
C1960 C1954 1.368 . S
C1960 C1959 1.523 . S
C1961 C1945 1.429 . S
C1961 C1957 1.429 . S
C1961 C1962 1.523 . S
C1962 C1946 1.368 . S
C1962 C1958 1.368 . S
C1962 C1961 1.523 . S
H1963 C1938 0.950 1_565 S
H1964 C1940 0.950 . S
H1965 C1941 0.949 . S
H1966 C1943 0.950 . S
H1967 C1945 0.950 . S
C1968 C1969 1.349 . S
C1968 C1970 1.327 . S
C1968 H1993 0.950 . S
C1969 C1968 1.349 . S
C1969 C1985 1.349 . S
C1970 C1968 1.327 . S
C1970 C1989 1.429 . S
C1970 H1994 0.950 . S
C1971 C1988 1.574 . S
C1971 C1990 1.368 . S
C1971 H1995 0.949 . S
H1972 C1976 0.949 1_455 S
C1973 C1974 1.349 . S
C1973 C1975 1.327 . S
C1973 H1996 0.950 . S
C1974 C1973 1.349 . S
C1974 C1986 1.349 . S
C1975 C1973 1.327 . S
C1975 C1991 1.429 . S
C1975 H1997 0.950 . S
C1976 H1972 0.949 1_655 S
C1976 C1984 1.574 1_655 S
C1976 C1992 1.368 . S
H1977 C1985 0.950 1_655 S
H1978 C1983 0.950 . S
H1979 C1984 0.949 . S
H1980 C1986 0.950 . S
H1981 C1987 0.950 . S
H1982 C1988 0.949 . S
C1983 H1978 0.950 . S
C1983 C1985 1.327 1_655 S
C1983 C1989 1.429 1_655 S
C1984 C1976 1.574 1_455 S
C1984 H1979 0.949 . S
C1984 C1990 1.368 1_455 S
C1985 C1969 1.349 . S
C1985 H1977 0.950 1_455 S
C1985 C1983 1.327 1_455 S
C1986 C1974 1.349 . S
C1986 H1980 0.950 . S
C1986 C1987 1.327 . S
C1987 H1981 0.950 . S
C1987 C1986 1.327 . S
C1987 C1991 1.429 . S
C1988 C1971 1.574 . S
C1988 H1982 0.949 . S
C1988 C1992 1.368 . S
C1989 C1970 1.429 . S
C1989 C1983 1.429 1_455 S
C1989 C1990 1.523 1_455 S
C1990 C1971 1.368 . S
C1990 C1984 1.368 1_655 S
C1990 C1989 1.523 1_655 S
C1991 C1975 1.429 . S
C1991 C1987 1.429 . S
C1991 C1992 1.523 . S
C1992 C1976 1.368 . S
C1992 C1988 1.368 . S
C1992 C1991 1.523 . S
H1993 C1968 0.950 . S
H1994 C1970 0.950 . S
H1995 C1971 0.949 . S
H1996 C1973 0.950 . S
H1997 C1975 0.950 . S
C1998 C1999 1.349 . S
C1998 C2000 1.327 . S
C1998 H2023 0.950 . S
C1999 C1998 1.349 . S
C1999 C2015 1.349 . S
C2000 C1998 1.327 . S
C2000 C2019 1.429 . S
C2000 H2024 0.950 . S
C2001 C2018 1.574 . S
C2001 C2020 1.368 . S
C2001 H2025 0.949 . S
H2002 C2006 0.949 . S
C2003 C2004 1.349 . S
C2003 C2005 1.327 . S
C2003 H2026 0.950 . S
C2004 C2003 1.349 . S
C2004 C2016 1.349 . S
C2005 C2003 1.327 . S
C2005 C2021 1.429 . S
C2005 H2027 0.950 . S
C2006 H2002 0.949 . S
C2006 C2014 1.574 . S
C2006 C2022 1.368 . S
H2007 C2015 0.950 . S
H2008 C2013 0.950 . S
H2009 C2014 0.949 . S
H2010 C2016 0.950 . S
H2011 C2017 0.950 . S
H2012 C2018 0.949 . S
C2013 H2008 0.950 . S
C2013 C2015 1.327 . S
C2013 C2019 1.429 . S
C2014 C2006 1.574 . S
C2014 H2009 0.949 . S
C2014 C2020 1.368 . S
C2015 C1999 1.349 . S
C2015 H2007 0.950 . S
C2015 C2013 1.327 . S
C2016 C2004 1.349 . S
C2016 H2010 0.950 . S
C2016 C2017 1.327 . S
C2017 H2011 0.950 . S
C2017 C2016 1.327 . S
C2017 C2021 1.429 . S
C2018 C2001 1.574 . S
C2018 H2012 0.949 . S
C2018 C2022 1.368 . S
C2019 C2000 1.429 . S
C2019 C2013 1.429 . S
C2019 C2020 1.523 . S
C2020 C2001 1.368 . S
C2020 C2014 1.368 . S
C2020 C2019 1.523 . S
C2021 C2005 1.429 . S
C2021 C2017 1.429 . S
C2021 C2022 1.523 . S
C2022 C2006 1.368 . S
C2022 C2018 1.368 . S
C2022 C2021 1.523 . S
H2023 C1998 0.950 . S
H2024 C2000 0.950 . S
H2025 C2001 0.949 . S
H2026 C2003 0.950 . S
H2027 C2005 0.950 . S
C2028 C2029 1.349 . S
C2028 C2030 1.327 . S
C2028 H2053 0.950 . S
C2029 C2028 1.349 . S
C2029 C2045 1.349 . S
C2030 C2028 1.327 . S
C2030 C2049 1.429 . S
C2030 H2054 0.950 . S
C2031 C2048 1.574 . S
C2031 C2050 1.368 . S
C2031 H2055 0.949 . S
H2032 C2036 0.949 . S
C2033 C2034 1.349 . S
C2033 C2035 1.327 . S
C2033 H2056 0.950 . S
C2034 C2033 1.349 . S
C2034 C2046 1.349 . S
C2035 C2033 1.327 . S
C2035 C2051 1.429 . S
C2035 H2057 0.950 . S
C2036 H2032 0.949 . S
C2036 C2044 1.574 . S
C2036 C2052 1.368 . S
H2037 C2045 0.950 . S
H2038 C2043 0.950 . S
H2039 C2044 0.949 . S
H2040 C2046 0.950 . S
H2041 C2047 0.950 . S
H2042 C2048 0.949 . S
C2043 H2038 0.950 . S
C2043 C2045 1.327 . S
C2043 C2049 1.429 . S
C2044 C2036 1.574 . S
C2044 H2039 0.949 . S
C2044 C2050 1.368 . S
C2045 C2029 1.349 . S
C2045 H2037 0.950 . S
C2045 C2043 1.327 . S
C2046 C2034 1.349 . S
C2046 H2040 0.950 . S
C2046 C2047 1.327 . S
C2047 H2041 0.950 . S
C2047 C2046 1.327 . S
C2047 C2051 1.429 . S
C2048 C2031 1.574 . S
C2048 H2042 0.949 . S
C2048 C2052 1.368 . S
C2049 C2030 1.429 . S
C2049 C2043 1.429 . S
C2049 C2050 1.523 . S
C2050 C2031 1.368 . S
C2050 C2044 1.368 . S
C2050 C2049 1.523 . S
C2051 C2035 1.429 . S
C2051 C2047 1.429 . S
C2051 C2052 1.523 . S
C2052 C2036 1.368 . S
C2052 C2048 1.368 . S
C2052 C2051 1.523 . S
H2053 C2028 0.950 . S
H2054 C2030 0.950 . S
H2055 C2031 0.949 . S
H2056 C2033 0.950 . S
H2057 C2035 0.950 . S
C2058 C2059 1.349 . S
C2058 C2060 1.327 . S
C2058 H2083 0.950 . S
C2059 C2058 1.349 . S
C2059 C2075 1.349 . S
C2060 C2058 1.327 . S
C2060 C2079 1.429 . S
C2060 H2084 0.950 . S
C2061 C2078 1.574 1_455 S
C2061 C2080 1.368 . S
C2061 H2085 0.949 . S
H2062 C2066 0.949 . S
C2063 C2064 1.349 . S
C2063 C2065 1.327 . S
C2063 H2086 0.950 . S
C2064 C2063 1.349 . S
C2064 C2076 1.349 . S
C2065 C2063 1.327 . S
C2065 C2081 1.429 . S
C2065 H2087 0.950 . S
C2066 H2062 0.949 . S
C2066 C2074 1.574 . S
C2066 C2082 1.368 . S
H2067 C2075 0.950 . S
H2068 C2073 0.950 . S
H2069 C2074 0.949 . S
H2070 C2076 0.950 . S
H2071 C2077 0.950 . S
H2072 C2078 0.949 . S
C2073 H2068 0.950 . S
C2073 C2075 1.327 . S
C2073 C2079 1.429 . S
C2074 C2066 1.574 . S
C2074 H2069 0.949 . S
C2074 C2080 1.368 . S
C2075 C2059 1.349 . S
C2075 H2067 0.950 . S
C2075 C2073 1.327 . S
C2076 C2064 1.349 . S
C2076 H2070 0.950 . S
C2076 C2077 1.327 1_655 S
C2077 H2071 0.950 . S
C2077 C2076 1.327 1_455 S
C2077 C2081 1.429 1_455 S
C2078 C2061 1.574 1_655 S
C2078 H2072 0.949 . S
C2078 C2082 1.368 1_655 S
C2079 C2060 1.429 . S
C2079 C2073 1.429 . S
C2079 C2080 1.523 . S
C2080 C2061 1.368 . S
C2080 C2074 1.368 . S
C2080 C2079 1.523 . S
C2081 C2065 1.429 . S
C2081 C2077 1.429 1_655 S
C2081 C2082 1.523 1_655 S
C2082 C2066 1.368 . S
C2082 C2078 1.368 1_455 S
C2082 C2081 1.523 1_455 S
H2083 C2058 0.950 . S
H2084 C2060 0.950 . S
H2085 C2061 0.949 . S
H2086 C2063 0.950 . S
H2087 C2065 0.950 . S
C2088 C2089 1.349 . S
C2088 C2090 1.327 . S
C2088 H2113 0.950 . S
C2089 C2088 1.349 . S
C2089 C2105 1.349 . S
C2090 C2088 1.327 . S
C2090 C2109 1.429 . S
C2090 H2114 0.950 . S
C2091 C2108 1.574 . S
C2091 C2110 1.368 . S
C2091 H2115 0.949 . S
H2092 C2096 0.949 . S
C2093 C2094 1.349 . S
C2093 C2095 1.327 . S
C2093 H2116 0.950 . S
C2094 C2093 1.349 . S
C2094 C2106 1.349 . S
C2095 C2093 1.327 . S
C2095 C2111 1.429 . S
C2095 H2117 0.950 . S
C2096 H2092 0.949 . S
C2096 C2104 1.574 . S
C2096 C2112 1.368 . S
H2097 C2105 0.950 . S
H2098 C2103 0.950 . S
H2099 C2104 0.949 . S
H2100 C2106 0.950 . S
H2101 C2107 0.950 . S
H2102 C2108 0.949 . S
C2103 H2098 0.950 . S
C2103 C2105 1.327 . S
C2103 C2109 1.429 . S
C2104 C2096 1.574 . S
C2104 H2099 0.949 . S
C2104 C2110 1.368 . S
C2105 C2089 1.349 . S
C2105 H2097 0.950 . S
C2105 C2103 1.327 . S
C2106 C2094 1.349 . S
C2106 H2100 0.950 . S
C2106 C2107 1.327 . S
C2107 H2101 0.950 . S
C2107 C2106 1.327 . S
C2107 C2111 1.429 . S
C2108 C2091 1.574 . S
C2108 H2102 0.949 . S
C2108 C2112 1.368 . S
C2109 C2090 1.429 . S
C2109 C2103 1.429 . S
C2109 C2110 1.523 1_545 S
C2110 C2091 1.368 . S
C2110 C2104 1.368 . S
C2110 C2109 1.523 1_565 S
C2111 C2095 1.429 . S
C2111 C2107 1.429 . S
C2111 C2112 1.523 . S
C2112 C2096 1.368 . S
C2112 C2108 1.368 . S
C2112 C2111 1.523 . S
H2113 C2088 0.950 . S
H2114 C2090 0.950 . S
H2115 C2091 0.949 . S
H2116 C2093 0.950 . S
H2117 C2095 0.950 . S
C2118 C2119 1.349 . S
C2118 C2120 1.327 . S
C2118 H2143 0.950 . S
C2119 C2118 1.349 . S
C2119 C2135 1.349 . S
C2120 C2118 1.327 . S
C2120 C2139 1.429 . S
C2120 H2144 0.950 . S
C2121 C2138 1.574 1_545 S
C2121 C2140 1.368 . S
C2121 H2145 0.949 1_545 S
H2122 C2126 0.949 . S
C2123 C2124 1.349 . S
C2123 C2125 1.327 . S
C2123 H2146 0.950 . S
C2124 C2123 1.349 . S
C2124 C2136 1.349 . S
C2125 C2123 1.327 . S
C2125 C2141 1.429 . S
C2125 H2147 0.950 . S
C2126 H2122 0.949 . S
C2126 C2134 1.574 . S
C2126 C2142 1.368 . S
H2127 C2135 0.950 . S
H2128 C2133 0.950 . S
H2129 C2134 0.949 . S
H2130 C2136 0.950 1_545 S
H2131 C2137 0.950 . S
H2132 C2138 0.949 . S
C2133 H2128 0.950 . S
C2133 C2135 1.327 . S
C2133 C2139 1.429 . S
C2134 C2126 1.574 . S
C2134 H2129 0.949 . S
C2134 C2140 1.368 . S
C2135 C2119 1.349 . S
C2135 H2127 0.950 . S
C2135 C2133 1.327 . S
C2136 C2124 1.349 . S
C2136 H2130 0.950 1_565 S
C2136 C2137 1.327 1_565 S
C2137 H2131 0.950 . S
C2137 C2136 1.327 1_545 S
C2137 C2141 1.429 1_545 S
C2138 C2121 1.574 1_565 S
C2138 H2132 0.949 . S
C2138 C2142 1.368 1_565 S
C2139 C2120 1.429 . S
C2139 C2133 1.429 . S
C2139 C2140 1.523 . S
C2140 C2121 1.368 . S
C2140 C2134 1.368 . S
C2140 C2139 1.523 . S
C2141 C2125 1.429 . S
C2141 C2137 1.429 1_565 S
C2141 C2142 1.523 1_565 S
C2142 C2126 1.368 . S
C2142 C2138 1.368 1_545 S
C2142 C2141 1.523 1_545 S
H2143 C2118 0.950 . S
H2144 C2120 0.950 . S
H2145 C2121 0.949 1_565 S
H2146 C2123 0.950 . S
H2147 C2125 0.950 . S
C2148 C2149 1.349 . S
C2148 C2150 1.327 . S
C2148 H2173 0.950 . S
C2149 C2148 1.349 . S
C2149 C2165 1.349 . S
C2150 C2148 1.327 . S
C2150 C2169 1.429 . S
C2150 H2174 0.950 . S
C2151 C2168 1.574 . S
C2151 C2170 1.368 . S
C2151 H2175 0.949 . S
H2152 C2156 0.949 . S
C2153 C2154 1.349 . S
C2153 C2155 1.327 . S
C2153 H2176 0.950 . S
C2154 C2153 1.349 . S
C2154 C2166 1.349 . S
C2155 C2153 1.327 . S
C2155 C2171 1.429 . S
C2155 H2177 0.950 . S
C2156 H2152 0.949 . S
C2156 C2164 1.574 . S
C2156 C2172 1.368 . S
H2157 C2165 0.950 . S
H2158 C2163 0.950 . S
H2159 C2164 0.949 . S
H2160 C2166 0.950 . S
H2161 C2167 0.950 . S
H2162 C2168 0.949 . S
C2163 H2158 0.950 . S
C2163 C2165 1.327 . S
C2163 C2169 1.429 . S
C2164 C2156 1.574 . S
C2164 H2159 0.949 . S
C2164 C2170 1.368 . S
C2165 C2149 1.349 . S
C2165 H2157 0.950 . S
C2165 C2163 1.327 . S
C2166 C2154 1.349 . S
C2166 H2160 0.950 . S
C2166 C2167 1.327 . S
C2167 H2161 0.950 . S
C2167 C2166 1.327 . S
C2167 C2171 1.429 . S
C2168 C2151 1.574 . S
C2168 H2162 0.949 . S
C2168 C2172 1.368 . S
C2169 C2150 1.429 . S
C2169 C2163 1.429 . S
C2169 C2170 1.523 . S
C2170 C2151 1.368 . S
C2170 C2164 1.368 . S
C2170 C2169 1.523 . S
C2171 C2155 1.429 . S
C2171 C2167 1.429 . S
C2171 C2172 1.523 . S
C2172 C2156 1.368 . S
C2172 C2168 1.368 . S
C2172 C2171 1.523 . S
H2173 C2148 0.950 . S
H2174 C2150 0.950 . S
H2175 C2151 0.949 . S
H2176 C2153 0.950 . S
H2177 C2155 0.950 . S
C2178 C2179 1.349 . S
C2178 C2180 1.327 . S
C2178 H2203 0.950 . S
C2179 C2178 1.349 . S
C2179 C2195 1.349 . S
C2180 C2178 1.327 . S
C2180 C2199 1.429 . S
C2180 H2204 0.950 . S
C2181 C2198 1.574 . S
C2181 C2200 1.368 . S
C2181 H2205 0.949 . S
H2182 C2186 0.949 . S
C2183 C2184 1.349 . S
C2183 C2185 1.327 . S
C2183 H2206 0.950 . S
C2184 C2183 1.349 . S
C2184 C2196 1.349 . S
C2185 C2183 1.327 . S
C2185 C2201 1.429 . S
C2185 H2207 0.950 . S
C2186 H2182 0.949 . S
C2186 C2194 1.574 . S
C2186 C2202 1.368 . S
H2187 C2195 0.950 . S
H2188 C2193 0.950 . S
H2189 C2194 0.949 . S
H2190 C2196 0.950 . S
H2191 C2197 0.950 . S
H2192 C2198 0.949 . S
C2193 H2188 0.950 . S
C2193 C2195 1.327 . S
C2193 C2199 1.429 . S
C2194 C2186 1.574 . S
C2194 H2189 0.949 . S
C2194 C2200 1.368 . S
C2195 C2179 1.349 . S
C2195 H2187 0.950 . S
C2195 C2193 1.327 . S
C2196 C2184 1.349 . S
C2196 H2190 0.950 . S
C2196 C2197 1.327 . S
C2197 H2191 0.950 . S
C2197 C2196 1.327 . S
C2197 C2201 1.429 . S
C2198 C2181 1.574 . S
C2198 H2192 0.949 . S
C2198 C2202 1.368 . S
C2199 C2180 1.429 . S
C2199 C2193 1.429 . S
C2199 C2200 1.523 . S
C2200 C2181 1.368 . S
C2200 C2194 1.368 . S
C2200 C2199 1.523 . S
C2201 C2185 1.429 . S
C2201 C2197 1.429 . S
C2201 C2202 1.523 . S
C2202 C2186 1.368 . S
C2202 C2198 1.368 . S
C2202 C2201 1.523 . S
H2203 C2178 0.950 . S
H2204 C2180 0.950 . S
H2205 C2181 0.949 . S
H2206 C2183 0.950 . S
H2207 C2185 0.950 . S
C2208 C2209 1.349 . S
C2208 C2210 1.327 . S
C2208 H2233 0.950 . S
C2209 C2208 1.349 . S
C2209 C2225 1.349 . S
C2210 C2208 1.327 . S
C2210 C2229 1.429 . S
C2210 H2234 0.950 . S
C2211 C2228 1.574 . S
C2211 C2230 1.368 . S
C2211 H2235 0.949 . S
H2212 C2216 0.949 1_554 S
C2213 C2214 1.349 . S
C2213 C2215 1.327 . S
C2213 H2236 0.950 . S
C2214 C2213 1.349 . S
C2214 C2226 1.349 . S
C2215 C2213 1.327 . S
C2215 C2231 1.429 . S
C2215 H2237 0.950 . S
C2216 H2212 0.949 1_556 S
C2216 C2224 1.574 1_556 S
C2216 C2232 1.368 . S
H2217 C2225 0.950 1_556 S
H2218 C2223 0.950 . S
H2219 C2224 0.949 . S
H2220 C2226 0.986 . S
H2221 C2227 0.950 . S
H2222 C2228 0.949 . S
C2223 H2218 0.950 . S
C2223 C2225 1.327 1_556 S
C2223 C2229 1.429 1_556 S
C2224 C2216 1.574 1_554 S
C2224 H2219 0.949 . S
C2224 C2230 1.368 1_554 S
C2225 C2209 1.349 . S
C2225 H2217 0.950 1_554 S
C2225 C2223 1.327 1_554 S
C2226 C2214 1.349 . S
C2226 H2220 0.986 . S
C2226 C2227 1.327 . S
C2227 H2221 0.950 . S
C2227 C2226 1.327 . S
C2227 C2231 1.429 . S
C2228 C2211 1.574 . S
C2228 H2222 0.949 . S
C2228 C2232 1.368 . S
C2229 C2210 1.429 . S
C2229 C2223 1.429 1_554 S
C2229 C2230 1.523 1_554 S
C2230 C2211 1.368 . S
C2230 C2224 1.368 1_556 S
C2230 C2229 1.523 1_556 S
C2231 C2215 1.429 . S
C2231 C2227 1.429 . S
C2231 C2232 1.523 . S
C2232 C2216 1.368 . S
C2232 C2228 1.368 . S
C2232 C2231 1.523 . S
H2233 C2208 0.950 . S
H2234 C2210 0.950 . S
H2235 C2211 0.949 . S
H2236 C2213 0.950 . S
H2237 C2215 0.950 . S
C2238 C2239 1.349 . S
C2238 C2240 1.327 . S
C2238 H2263 0.950 . S
C2239 C2238 1.349 . S
C2239 C2255 1.349 . S
C2240 C2238 1.327 . S
C2240 C2259 1.429 . S
C2240 H2264 0.950 . S
C2241 C2258 1.574 . S
C2241 C2260 1.368 . S
C2241 H2265 0.949 . S
H2242 C2246 0.949 1_556 S
C2243 C2244 1.349 . S
C2243 C2245 1.327 . S
C2243 H2266 0.950 . S
C2244 C2243 1.349 . S
C2244 C2256 1.349 . S
C2245 C2243 1.327 . S
C2245 C2261 1.429 . S
C2245 H2267 0.950 . S
C2246 H2242 0.949 1_554 S
C2246 C2254 1.574 1_554 S
C2246 C2262 1.368 . S
H2247 C2255 0.950 1_554 S
H2248 C2253 0.950 . S
H2249 C2254 0.949 . S
H2250 C2256 0.950 . S
H2251 C2257 0.950 . S
H2252 C2258 0.949 . S
C2253 H2248 0.950 . S
C2253 C2255 1.327 1_554 S
C2253 C2259 1.429 1_554 S
C2254 C2246 1.574 1_556 S
C2254 H2249 0.949 . S
C2254 C2260 1.368 1_556 S
C2255 C2239 1.349 . S
C2255 H2247 0.950 1_556 S
C2255 C2253 1.327 1_556 S
C2256 C2244 1.349 . S
C2256 H2250 0.950 . S
C2256 C2257 1.327 . S
C2257 H2251 0.950 . S
C2257 C2256 1.327 . S
C2257 C2261 1.429 . S
C2258 C2241 1.574 . S
C2258 H2252 0.949 . S
C2258 C2262 1.368 . S
C2259 C2240 1.429 . S
C2259 C2253 1.429 1_556 S
C2259 C2260 1.523 1_556 S
C2260 C2241 1.368 . S
C2260 C2254 1.368 1_554 S
C2260 C2259 1.523 1_554 S
C2261 C2245 1.429 . S
C2261 C2257 1.429 . S
C2261 C2262 1.523 . S
C2262 C2246 1.368 . S
C2262 C2258 1.368 . S
C2262 C2261 1.523 . S
H2263 C2238 0.950 . S
H2264 C2240 0.950 . S
H2265 C2241 0.949 . S
H2266 C2243 0.950 . S
H2267 C2245 0.950 . S
C2268 C2269 1.349 . S
C2268 C2270 1.327 . S
C2268 H2293 0.950 . S
C2269 C2268 1.349 . S
C2269 C2285 1.349 . S
C2270 C2268 1.327 . S
C2270 C2289 1.429 . S
C2270 H2294 0.950 . S
C2271 C2288 1.574 . S
C2271 C2290 1.368 . S
C2271 H2295 0.949 . S
H2272 C2276 0.949 . S
C2273 C2274 1.349 . S
C2273 C2275 1.327 . S
C2273 H2296 0.950 . S
C2274 C2273 1.349 . S
C2274 C2286 1.349 . S
C2275 C2273 1.327 . S
C2275 C2291 1.429 . S
C2275 H2297 0.950 . S
C2276 H2272 0.949 . S
C2276 C2284 1.574 . S
C2276 C2292 1.368 . S
H2277 C2285 0.950 . S
H2278 C2283 0.950 . S
H2279 C2284 0.949 . S
H2280 C2286 0.950 . S
H2281 C2287 0.950 . S
H2282 C2288 0.949 . S
C2283 H2278 0.950 . S
C2283 C2285 1.327 . S
C2283 C2289 1.429 . S
C2284 C2276 1.574 . S
C2284 H2279 0.949 . S
C2284 C2290 1.368 . S
C2285 C2269 1.349 . S
C2285 H2277 0.950 . S
C2285 C2283 1.327 . S
C2286 C2274 1.349 . S
C2286 H2280 0.950 . S
C2286 C2287 1.327 . S
C2287 H2281 0.950 . S
C2287 C2286 1.327 . S
C2287 C2291 1.429 . S
C2288 C2271 1.574 . S
C2288 H2282 0.949 . S
C2288 C2292 1.368 . S
C2289 C2270 1.429 . S
C2289 C2283 1.429 . S
C2289 C2290 1.523 . S
C2290 C2271 1.368 . S
C2290 C2284 1.368 . S
C2290 C2289 1.523 . S
C2291 C2275 1.429 . S
C2291 C2287 1.429 . S
C2291 C2292 1.523 . S
C2292 C2276 1.368 . S
C2292 C2288 1.368 . S
C2292 C2291 1.523 . S
H2293 C2268 0.950 . S
H2294 C2270 0.950 . S
H2295 C2271 0.949 . S
H2296 C2273 0.950 . S
H2297 C2275 0.950 . S
C2298 C2299 1.349 . S
C2298 C2300 1.327 . S
C2298 H2323 0.950 . S
C2299 C2298 1.349 . S
C2299 C2315 1.349 . S
C2300 C2298 1.327 . S
C2300 C2319 1.429 . S
C2300 H2324 0.950 . S
C2301 C2318 1.574 . S
C2301 C2320 1.368 . S
C2301 H2325 0.949 . S
H2302 C2306 0.949 . S
C2303 C2304 1.349 . S
C2303 C2305 1.327 . S
C2303 H2326 0.950 . S
C2304 C2303 1.349 . S
C2304 C2316 1.349 . S
C2305 C2303 1.327 . S
C2305 C2321 1.429 . S
C2305 H2327 0.950 . S
C2306 H2302 0.949 . S
C2306 C2314 1.574 . S
C2306 C2322 1.368 . S
H2307 C2315 0.950 . S
H2308 C2313 0.950 . S
H2309 C2314 0.949 . S
H2310 C2316 0.950 . S
H2311 C2317 0.950 . S
H2312 C2318 0.949 . S
C2313 H2308 0.950 . S
C2313 C2315 1.327 . S
C2313 C2319 1.429 . S
C2314 C2306 1.574 . S
C2314 H2309 0.949 . S
C2314 C2320 1.368 . S
C2315 C2299 1.349 . S
C2315 H2307 0.950 . S
C2315 C2313 1.327 . S
C2316 C2304 1.349 . S
C2316 H2310 0.950 . S
C2316 C2317 1.327 . S
C2317 H2311 0.950 . S
C2317 C2316 1.327 . S
C2317 C2321 1.429 . S
C2318 C2301 1.574 . S
C2318 H2312 0.949 . S
C2318 C2322 1.368 . S
C2319 C2300 1.429 . S
C2319 C2313 1.429 . S
C2319 C2320 1.523 . S
C2320 C2301 1.368 . S
C2320 C2314 1.368 . S
C2320 C2319 1.523 . S
C2321 C2305 1.429 . S
C2321 C2317 1.429 . S
C2321 C2322 1.523 . S
C2322 C2306 1.368 . S
C2322 C2318 1.368 . S
C2322 C2321 1.523 . S
H2323 C2298 0.950 . S
H2324 C2300 0.950 . S
H2325 C2301 0.949 . S
H2326 C2303 0.950 . S
H2327 C2305 0.950 . S
C2328 C2329 1.349 . S
C2328 C2330 1.327 . S
C2328 H2353 0.950 . S
C2329 C2328 1.349 . S
C2329 C2345 1.349 . S
C2330 C2328 1.327 . S
C2330 C2349 1.429 . S
C2330 H2354 0.949 . S
C2331 C2348 1.574 . S
C2331 C2350 1.368 . S
C2331 H2355 0.949 1_455 S
H2332 C2336 0.949 . S
C2333 C2334 1.349 . S
C2333 C2335 1.327 . S
C2333 H2356 0.950 . S
C2334 C2333 1.349 . S
C2334 C2346 1.349 . S
C2335 C2333 1.327 . S
C2335 C2351 1.429 . S
C2335 H2357 0.950 . S
C2336 H2332 0.949 . S
C2336 C2344 1.574 . S
C2336 C2352 1.368 . S
H2337 C2345 0.950 . S
H2338 C2343 0.950 . S
H2339 C2344 0.949 . S
H2340 C2346 0.950 . S
H2341 C2347 0.950 . S
H2342 C2348 0.949 . S
C2343 H2338 0.950 . S
C2343 C2345 1.327 . S
C2343 C2349 1.429 . S
C2344 C2336 1.574 . S
C2344 H2339 0.949 . S
C2344 C2350 1.368 . S
C2345 C2329 1.349 . S
C2345 H2337 0.950 . S
C2345 C2343 1.327 . S
C2346 C2334 1.349 . S
C2346 H2340 0.950 . S
C2346 C2347 1.327 . S
C2347 H2341 0.950 . S
C2347 C2346 1.327 . S
C2347 C2351 1.429 . S
C2348 C2331 1.574 . S
C2348 H2342 0.949 . S
C2348 C2352 1.368 . S
C2349 C2330 1.429 . S
C2349 C2343 1.429 . S
C2349 C2350 1.523 1_655 S
C2350 C2331 1.368 . S
C2350 C2344 1.368 . S
C2350 C2349 1.523 1_455 S
C2351 C2335 1.429 . S
C2351 C2347 1.429 . S
C2351 C2352 1.523 . S
C2352 C2336 1.368 . S
C2352 C2348 1.368 . S
C2352 C2351 1.523 . S
H2353 C2328 0.950 . S
H2354 C2330 0.949 . S
H2355 C2331 0.949 1_655 S
H2356 C2333 0.950 . S
H2357 C2335 0.950 . S
C2358 C2359 1.349 . S
C2358 C2360 1.327 . S
C2358 H2383 0.950 . S
C2359 C2358 1.349 . S
C2359 C2375 1.349 . S
C2360 C2358 1.327 . S
C2360 C2379 1.429 . S
C2360 H2384 0.950 . S
C2361 C2378 1.574 . S
C2361 C2380 1.368 . S
C2361 H2385 0.949 . S
H2362 C2366 0.949 . S
C2363 C2364 1.349 . S
C2363 C2365 1.327 . S
C2363 H2386 0.950 . S
C2364 C2363 1.349 . S
C2364 C2376 1.349 . S
C2365 C2363 1.327 . S
C2365 C2381 1.429 . S
C2365 H2387 0.950 . S
C2366 H2362 0.949 . S
C2366 C2374 1.574 . S
C2366 C2382 1.368 . S
H2367 C2375 0.950 . S
H2368 C2373 0.950 . S
H2369 C2374 0.949 . S
H2370 C2376 0.950 . S
H2371 C2377 0.950 . S
H2372 C2378 0.949 . S
C2373 H2368 0.950 . S
C2373 C2375 1.327 . S
C2373 C2379 1.429 . S
C2374 C2366 1.574 . S
C2374 H2369 0.949 . S
C2374 C2380 1.368 . S
C2375 C2359 1.349 . S
C2375 H2367 0.950 . S
C2375 C2373 1.327 . S
C2376 C2364 1.349 . S
C2376 H2370 0.950 . S
C2376 C2377 1.327 . S
C2377 H2371 0.950 . S
C2377 C2376 1.327 . S
C2377 C2381 1.429 . S
C2378 C2361 1.574 . S
C2378 H2372 0.949 . S
C2378 C2382 1.368 . S
C2379 C2360 1.429 . S
C2379 C2373 1.429 . S
C2379 C2380 1.523 . S
C2380 C2361 1.368 . S
C2380 C2374 1.368 . S
C2380 C2379 1.523 . S
C2381 C2365 1.429 . S
C2381 C2377 1.429 . S
C2381 C2382 1.523 . S
C2382 C2366 1.368 . S
C2382 C2378 1.368 . S
C2382 C2381 1.523 . S
H2383 C2358 0.950 . S
H2384 C2360 0.950 . S
H2385 C2361 0.949 . S
H2386 C2363 0.950 . S
H2387 C2365 0.950 . S
C2388 C2389 1.349 . S
C2388 C2390 1.327 . S
C2388 H2413 0.950 . S
C2389 C2388 1.349 . S
C2389 C2405 1.349 . S
C2390 C2388 1.327 . S
C2390 C2409 1.429 . S
C2390 H2414 0.950 . S
C2391 C2408 1.574 . S
C2391 C2410 1.368 . S
C2391 H2415 0.949 . S
H2392 C2396 0.949 . S
C2393 C2394 1.349 . S
C2393 C2395 1.327 . S
C2393 H2416 0.950 . S
C2394 C2393 1.349 . S
C2394 C2406 1.349 . S
C2395 C2393 1.327 . S
C2395 C2411 1.429 . S
C2395 H2417 0.950 . S
C2396 H2392 0.949 . S
C2396 C2404 1.574 . S
C2396 C2412 1.368 . S
H2397 C2405 0.950 . S
H2398 C2403 0.950 . S
H2399 C2404 0.949 . S
H2400 C2406 0.950 . S
H2401 C2407 0.950 . S
H2402 C2408 0.949 . S
C2403 H2398 0.950 . S
C2403 C2405 1.327 . S
C2403 C2409 1.429 . S
C2404 C2396 1.574 . S
C2404 H2399 0.949 . S
C2404 C2410 1.368 . S
C2405 C2389 1.349 . S
C2405 H2397 0.950 . S
C2405 C2403 1.327 . S
C2406 C2394 1.349 . S
C2406 H2400 0.950 . S
C2406 C2407 1.327 . S
C2407 H2401 0.950 . S
C2407 C2406 1.327 . S
C2407 C2411 1.429 . S
C2408 C2391 1.574 . S
C2408 H2402 0.949 . S
C2408 C2412 1.368 . S
C2409 C2390 1.429 . S
C2409 C2403 1.429 . S
C2409 C2410 1.523 . S
C2410 C2391 1.368 . S
C2410 C2404 1.368 . S
C2410 C2409 1.523 . S
C2411 C2395 1.429 . S
C2411 C2407 1.429 . S
C2411 C2412 1.523 . S
C2412 C2396 1.368 . S
C2412 C2408 1.368 . S
C2412 C2411 1.523 . S
H2413 C2388 0.950 . S
H2414 C2390 0.950 . S
H2415 C2391 0.949 . S
H2416 C2393 0.950 . S
H2417 C2395 0.950 . S
C2418 C2419 1.349 . S
C2418 C2420 1.327 . S
C2418 H2443 0.950 . S
C2419 C2418 1.349 . S
C2419 C2435 1.349 . S
C2420 C2418 1.327 . S
C2420 C2439 1.429 . S
C2420 H2444 0.950 . S
C2421 C2438 1.565 1_655 S
C2421 C2440 1.368 . S
C2421 H2445 0.949 . S
H2422 C2426 0.949 . S
C2423 C2424 1.349 . S
C2423 C2425 1.327 . S
C2423 H2446 0.950 . S
C2424 C2423 1.349 . S
C2424 C2436 1.349 . S
C2425 C2423 1.327 . S
C2425 C2441 1.429 . S
C2425 H2447 0.950 . S
C2426 H2422 0.949 . S
C2426 C2434 1.574 . S
C2426 C2442 1.368 . S
H2427 C2435 0.950 . S
H2428 C2433 0.950 . S
H2429 C2434 0.949 . S
H2430 C2436 0.950 . S
H2431 C2437 0.950 1_655 S
H2432 C2438 0.963 . S
C2433 H2428 0.950 . S
C2433 C2435 1.327 . S
C2433 C2439 1.429 . S
C2434 C2426 1.574 . S
C2434 H2429 0.949 . S
C2434 C2440 1.368 . S
C2435 C2419 1.349 . S
C2435 H2427 0.950 . S
C2435 C2433 1.327 . S
C2436 C2424 1.349 . S
C2436 H2430 0.950 . S
C2436 C2437 1.327 . S
C2437 H2431 0.950 1_455 S
C2437 C2436 1.327 . S
C2437 C2441 1.429 . S
C2438 C2421 1.565 1_455 S
C2438 H2432 0.963 . S
C2438 C2442 1.363 1_455 S
C2439 C2420 1.429 . S
C2439 C2433 1.429 . S
C2439 C2440 1.523 . S
C2440 C2421 1.368 . S
C2440 C2434 1.368 . S
C2440 C2439 1.523 . S
C2441 C2425 1.429 . S
C2441 C2437 1.429 . S
C2441 C2442 1.523 1_455 S
C2442 C2426 1.368 . S
C2442 C2438 1.363 1_655 S
C2442 C2441 1.523 1_655 S
H2443 C2418 0.950 . S
H2444 C2420 0.950 . S
H2445 C2421 0.949 . S
H2446 C2423 0.950 . S
H2447 C2425 0.950 . S
C2448 C2449 1.349 . S
C2448 C2450 1.327 1_565 S
C2448 H2473 0.959 . S
C2449 C2448 1.349 . S
C2449 C2465 1.349 . S
C2450 C2448 1.327 1_545 S
C2450 C2469 1.429 1_545 S
C2450 H2474 0.950 . S
C2451 C2468 1.574 1_565 S
C2451 C2470 1.368 1_565 S
C2451 H2475 0.949 . S
H2452 C2456 0.949 . S
C2453 C2454 1.349 . S
C2453 C2455 1.327 . S
C2453 H2476 0.950 . S
C2454 C2453 1.349 . S
C2454 C2466 1.349 . S
C2455 C2453 1.327 . S
C2455 C2471 1.429 . S
C2455 H2477 0.950 . S
C2456 H2452 0.949 . S
C2456 C2464 1.574 . S
C2456 C2472 1.368 . S
H2457 C2465 0.950 . S
H2458 C2463 0.950 . S
H2459 C2464 0.949 . S
H2460 C2466 0.950 . S
H2461 C2467 0.950 . S
H2462 C2468 0.962 . S
C2463 H2458 0.950 . S
C2463 C2465 1.327 . S
C2463 C2469 1.429 . S
C2464 C2456 1.574 . S
C2464 H2459 0.949 . S
C2464 C2470 1.368 . S
C2465 C2449 1.349 . S
C2465 H2457 0.950 . S
C2465 C2463 1.327 . S
C2466 C2454 1.349 . S
C2466 H2460 0.950 . S
C2466 C2467 1.327 . S
C2467 H2461 0.950 . S
C2467 C2466 1.327 . S
C2467 C2471 1.429 . S
C2468 C2451 1.574 1_545 S
C2468 H2462 0.962 . S
C2468 C2472 1.368 . S
C2469 C2450 1.429 1_565 S
C2469 C2463 1.429 . S
C2469 C2470 1.523 1_565 S
C2470 C2451 1.368 1_545 S
C2470 C2464 1.368 . S
C2470 C2469 1.523 1_545 S
C2471 C2455 1.429 . S
C2471 C2467 1.429 . S
C2471 C2472 1.523 . S
C2472 C2456 1.368 . S
C2472 C2468 1.368 . S
C2472 C2471 1.523 . S
H2473 C2448 0.959 . S
H2474 C2450 0.950 . S
H2475 C2451 0.949 . S
H2476 C2453 0.950 . S
H2477 C2455 0.950 . S
C2478 C2479 1.349 . S
C2478 C2480 1.327 . S
C2478 H2503 0.950 . S
C2479 C2478 1.349 . S
C2479 C2495 1.349 . S
C2480 C2478 1.327 . S
C2480 C2499 1.429 . S
C2480 H2504 0.950 . S
C2481 C2498 1.574 . S
C2481 C2500 1.368 . S
C2481 H2505 0.949 . S
H2482 C2486 0.949 . S
C2483 C2484 1.349 . S
C2483 C2485 1.327 . S
C2483 H2506 0.950 . S
C2484 C2483 1.349 . S
C2484 C2496 1.349 . S
C2485 C2483 1.327 . S
C2485 C2501 1.429 . S
C2485 H2507 0.950 . S
C2486 H2482 0.949 . S
C2486 C2494 1.574 1_565 S
C2486 C2502 1.368 . S
H2487 C2495 0.950 . S
H2488 C2493 0.936 1_565 S
H2489 C2494 0.949 . S
H2490 C2496 0.950 . S
H2491 C2497 0.950 . S
H2492 C2498 0.949 . S
C2493 H2488 0.936 1_545 S
C2493 C2495 1.336 . S
C2493 C2499 1.433 . S
C2494 C2486 1.574 1_545 S
C2494 H2489 0.949 . S
C2494 C2500 1.368 1_545 S
C2495 C2479 1.349 . S
C2495 H2487 0.950 . S
C2495 C2493 1.336 . S
C2496 C2484 1.349 . S
C2496 H2490 0.950 . S
C2496 C2497 1.327 . S
C2497 H2491 0.950 . S
C2497 C2496 1.327 . S
C2497 C2501 1.429 . S
C2498 C2481 1.574 . S
C2498 H2492 0.949 . S
C2498 C2502 1.368 . S
C2499 C2480 1.429 . S
C2499 C2493 1.433 . S
C2499 C2500 1.523 1_545 S
C2500 C2481 1.368 . S
C2500 C2494 1.368 1_565 S
C2500 C2499 1.523 1_565 S
C2501 C2485 1.429 . S
C2501 C2497 1.429 . S
C2501 C2502 1.523 . S
C2502 C2486 1.368 . S
C2502 C2498 1.368 . S
C2502 C2501 1.523 . S
H2503 C2478 0.950 . S
H2504 C2480 0.950 . S
H2505 C2481 0.949 . S
H2506 C2483 0.950 . S
H2507 C2485 0.950 . S
C2508 C2509 1.349 . S
C2508 C2510 1.327 . S
C2508 H2533 0.950 . S
C2509 C2508 1.349 . S
C2509 C2525 1.349 . S
C2510 C2508 1.327 . S
C2510 C2529 1.429 . S
C2510 H2534 0.950 . S
C2511 C2528 1.574 . S
C2511 C2530 1.368 . S
C2511 H2535 0.949 . S
H2512 C2516 0.949 . S
C2513 C2514 1.349 . S
C2513 C2515 1.327 . S
C2513 H2536 0.950 . S
C2514 C2513 1.349 . S
C2514 C2526 1.349 . S
C2515 C2513 1.327 . S
C2515 C2531 1.429 . S
C2515 H2537 0.950 . S
C2516 H2512 0.949 . S
C2516 C2524 1.574 . S
C2516 C2532 1.368 . S
H2517 C2525 0.950 . S
H2518 C2523 0.950 . S
H2519 C2524 0.949 . S
H2520 C2526 0.950 . S
H2521 C2527 0.950 . S
H2522 C2528 0.949 . S
C2523 H2518 0.950 . S
C2523 C2525 1.327 . S
C2523 C2529 1.429 . S
C2524 C2516 1.574 . S
C2524 H2519 0.949 . S
C2524 C2530 1.368 . S
C2525 C2509 1.349 . S
C2525 H2517 0.950 . S
C2525 C2523 1.327 . S
C2526 C2514 1.349 . S
C2526 H2520 0.950 . S
C2526 C2527 1.327 . S
C2527 H2521 0.950 . S
C2527 C2526 1.327 . S
C2527 C2531 1.429 . S
C2528 C2511 1.574 . S
C2528 H2522 0.949 . S
C2528 C2532 1.368 . S
C2529 C2510 1.429 . S
C2529 C2523 1.429 . S
C2529 C2530 1.523 . S
C2530 C2511 1.368 . S
C2530 C2524 1.368 . S
C2530 C2529 1.523 . S
C2531 C2515 1.429 . S
C2531 C2527 1.429 . S
C2531 C2532 1.523 . S
C2532 C2516 1.368 . S
C2532 C2528 1.368 . S
C2532 C2531 1.523 . S
H2533 C2508 0.950 . S
H2534 C2510 0.950 . S
H2535 C2511 0.949 . S
H2536 C2513 0.950 . S
H2537 C2515 0.950 . S
C2538 C2539 1.349 . S
C2538 C2540 1.327 . S
C2538 H2563 0.950 . S
C2539 C2538 1.349 . S
C2539 C2555 1.349 . S
C2540 C2538 1.327 . S
C2540 C2559 1.429 . S
C2540 H2564 0.950 . S
C2541 C2558 1.574 . S
C2541 C2560 1.368 . S
C2541 H2565 0.949 . S
H2542 C2546 0.949 . S
C2543 C2544 1.349 . S
C2543 C2545 1.327 . S
C2543 H2566 0.950 . S
C2544 C2543 1.349 . S
C2544 C2556 1.349 . S
C2545 C2543 1.327 . S
C2545 C2561 1.429 . S
C2545 H2567 0.950 . S
C2546 H2542 0.949 . S
C2546 C2554 1.574 . S
C2546 C2562 1.368 . S
H2547 C2555 0.950 . S
H2548 C2553 0.950 . S
H2549 C2554 0.949 . S
H2550 C2556 0.950 . S
H2551 C2557 0.950 . S
H2552 C2558 0.949 . S
C2553 H2548 0.950 . S
C2553 C2555 1.327 . S
C2553 C2559 1.429 . S
C2554 C2546 1.574 . S
C2554 H2549 0.949 . S
C2554 C2560 1.368 . S
C2555 C2539 1.349 . S
C2555 H2547 0.950 . S
C2555 C2553 1.327 . S
C2556 C2544 1.349 . S
C2556 H2550 0.950 . S
C2556 C2557 1.327 . S
C2557 H2551 0.950 . S
C2557 C2556 1.327 . S
C2557 C2561 1.429 . S
C2558 C2541 1.574 . S
C2558 H2552 0.949 . S
C2558 C2562 1.368 . S
C2559 C2540 1.429 . S
C2559 C2553 1.429 . S
C2559 C2560 1.523 . S
C2560 C2541 1.368 . S
C2560 C2554 1.368 . S
C2560 C2559 1.523 . S
C2561 C2545 1.429 . S
C2561 C2557 1.429 . S
C2561 C2562 1.523 . S
C2562 C2546 1.368 . S
C2562 C2558 1.368 . S
C2562 C2561 1.523 . S
H2563 C2538 0.950 . S
H2564 C2540 0.950 . S
H2565 C2541 0.949 . S
H2566 C2543 0.950 . S
H2567 C2545 0.950 . S
C2568 C2569 1.349 . S
C2568 C2570 1.327 . S
C2568 H2593 0.950 . S
C2569 C2568 1.349 . S
C2569 C2585 1.349 . S
C2570 C2568 1.327 . S
C2570 C2589 1.429 . S
C2570 H2594 0.950 . S
C2571 C2588 1.574 . S
C2571 C2590 1.368 . S
C2571 H2595 0.949 . S
H2572 C2576 0.949 1_556 S
C2573 C2574 1.349 . S
C2573 C2575 1.327 . S
C2573 H2596 0.950 . S
C2574 C2573 1.349 . S
C2574 C2586 1.349 . S
C2575 C2573 1.327 . S
C2575 C2591 1.429 . S
C2575 H2597 0.950 . S
C2576 H2572 0.949 1_554 S
C2576 C2584 1.574 1_554 S
C2576 C2592 1.368 . S
H2577 C2585 0.950 1_554 S
H2578 C2583 0.950 . S
H2579 C2584 0.949 . S
H2580 C2586 0.950 . S
H2581 C2587 0.950 . S
H2582 C2588 0.949 . S
C2583 H2578 0.950 . S
C2583 C2585 1.327 1_554 S
C2583 C2589 1.429 1_554 S
C2584 C2576 1.574 1_556 S
C2584 H2579 0.949 . S
C2584 C2590 1.368 1_556 S
C2585 C2569 1.349 . S
C2585 H2577 0.950 1_556 S
C2585 C2583 1.327 1_556 S
C2586 C2574 1.349 . S
C2586 H2580 0.950 . S
C2586 C2587 1.327 . S
C2587 H2581 0.950 . S
C2587 C2586 1.327 . S
C2587 C2591 1.429 . S
C2588 C2571 1.574 . S
C2588 H2582 0.949 . S
C2588 C2592 1.368 . S
C2589 C2570 1.429 . S
C2589 C2583 1.429 1_556 S
C2589 C2590 1.523 1_556 S
C2590 C2571 1.368 . S
C2590 C2584 1.368 1_554 S
C2590 C2589 1.523 1_554 S
C2591 C2575 1.429 . S
C2591 C2587 1.429 . S
C2591 C2592 1.523 . S
C2592 C2576 1.368 . S
C2592 C2588 1.368 . S
C2592 C2591 1.523 . S
H2593 C2568 0.950 . S
H2594 C2570 0.950 . S
H2595 C2571 0.949 . S
H2596 C2573 0.950 . S
H2597 C2575 0.950 . S
C2598 C2599 1.349 . S
C2598 C2600 1.327 . S
C2598 H2623 0.950 . S
C2599 C2598 1.349 . S
C2599 C2615 1.349 . S
C2600 C2598 1.327 . S
C2600 C2619 1.429 . S
C2600 H2624 0.950 . S
C2601 C2618 1.574 . S
C2601 C2620 1.368 . S
C2601 H2625 0.949 . S
H2602 C2606 0.949 . S
C2603 C2604 1.349 . S
C2603 C2605 1.327 1_554 S
C2603 H2626 0.950 . S
C2604 C2603 1.349 . S
C2604 C2616 1.349 . S
C2605 C2603 1.327 1_556 S
C2605 C2621 1.429 1_556 S
C2605 H2627 0.950 . S
C2606 H2602 0.949 . S
C2606 C2614 1.574 1_554 S
C2606 C2622 1.368 1_554 S
H2607 C2615 0.950 . S
H2608 C2613 0.950 . S
H2609 C2614 0.949 . S
H2610 C2616 0.950 . S
H2611 C2617 0.950 . S
H2612 C2618 0.949 . S
C2613 H2608 0.950 . S
C2613 C2615 1.327 . S
C2613 C2619 1.429 . S
C2614 C2606 1.574 1_556 S
C2614 H2609 0.949 . S
C2614 C2620 1.368 . S
C2615 C2599 1.349 . S
C2615 H2607 0.950 . S
C2615 C2613 1.327 . S
C2616 C2604 1.349 . S
C2616 H2610 0.950 . S
C2616 C2617 1.327 . S
C2617 H2611 0.950 . S
C2617 C2616 1.327 . S
C2617 C2621 1.429 . S
C2618 C2601 1.574 . S
C2618 H2612 0.949 . S
C2618 C2622 1.368 . S
C2619 C2600 1.429 . S
C2619 C2613 1.429 . S
C2619 C2620 1.523 . S
C2620 C2601 1.368 . S
C2620 C2614 1.368 . S
C2620 C2619 1.523 . S
C2621 C2605 1.429 1_554 S
C2621 C2617 1.429 . S
C2621 C2622 1.523 1_554 S
C2622 C2606 1.368 1_556 S
C2622 C2618 1.368 . S
C2622 C2621 1.523 1_556 S
H2623 C2598 0.950 . S
H2624 C2600 0.950 . S
H2625 C2601 0.949 . S
H2626 C2603 0.950 . S
H2627 C2605 0.950 . S
C2628 C2629 1.349 . S
C2628 C2630 1.327 . S
C2628 H2653 0.950 . S
C2629 C2628 1.349 . S
C2629 C2645 1.349 . S
C2630 C2628 1.327 . S
C2630 C2649 1.429 . S
C2630 H2654 0.950 . S
C2631 C2648 1.574 . S
C2631 C2650 1.368 . S
C2631 H2655 0.949 . S
H2632 C2636 0.949 . S
C2633 C2634 1.349 . S
C2633 C2635 1.327 . S
C2633 H2656 0.950 . S
C2634 C2633 1.349 . S
C2634 C2646 1.349 . S
C2635 C2633 1.327 . S
C2635 C2651 1.429 . S
C2635 H2657 0.950 . S
C2636 H2632 0.949 . S
C2636 C2644 1.574 . S
C2636 C2652 1.368 . S
H2637 C2645 0.950 . S
H2638 C2643 0.950 . S
H2639 C2644 0.949 . S
H2640 C2646 0.950 . S
H2641 C2647 0.950 . S
H2642 C2648 0.949 . S
C2643 H2638 0.950 . S
C2643 C2645 1.327 . S
C2643 C2649 1.429 . S
C2644 C2636 1.574 . S
C2644 H2639 0.949 . S
C2644 C2650 1.368 . S
C2645 C2629 1.349 . S
C2645 H2637 0.950 . S
C2645 C2643 1.327 . S
C2646 C2634 1.349 . S
C2646 H2640 0.950 . S
C2646 C2647 1.327 . S
C2647 H2641 0.950 . S
C2647 C2646 1.327 . S
C2647 C2651 1.429 . S
C2648 C2631 1.574 . S
C2648 H2642 0.949 . S
C2648 C2652 1.368 . S
C2649 C2630 1.429 . S
C2649 C2643 1.429 . S
C2649 C2650 1.523 . S
C2650 C2631 1.368 . S
C2650 C2644 1.368 . S
C2650 C2649 1.523 . S
C2651 C2635 1.429 . S
C2651 C2647 1.429 . S
C2651 C2652 1.523 . S
C2652 C2636 1.368 . S
C2652 C2648 1.368 . S
C2652 C2651 1.523 . S
H2653 C2628 0.950 . S
H2654 C2630 0.950 . S
H2655 C2631 0.949 . S
H2656 C2633 0.950 . S
H2657 C2635 0.950 . S
C2658 C2659 1.349 . S
C2658 C2660 1.327 . S
C2658 H2683 0.950 . S
C2659 C2658 1.349 . S
C2659 C2675 1.349 . S
C2660 C2658 1.327 . S
C2660 C2679 1.429 . S
C2660 H2684 0.950 . S
C2661 C2678 1.574 . S
C2661 C2680 1.368 . S
C2661 H2685 0.949 . S
H2662 C2666 0.949 . S
C2663 C2664 1.349 . S
C2663 C2665 1.327 . S
C2663 H2686 0.950 . S
C2664 C2663 1.349 . S
C2664 C2676 1.349 . S
C2665 C2663 1.327 . S
C2665 C2681 1.429 . S
C2665 H2687 0.950 . S
C2666 H2662 0.949 . S
C2666 C2674 1.574 . S
C2666 C2682 1.368 . S
H2667 C2675 0.950 . S
H2668 C2673 0.950 . S
H2669 C2674 0.949 . S
H2670 C2676 0.942 1_565 S
H2671 C2677 0.950 . S
H2672 C2678 0.949 . S
C2673 H2668 0.950 . S
C2673 C2675 1.327 . S
C2673 C2679 1.429 . S
C2674 C2666 1.574 . S
C2674 H2669 0.949 . S
C2674 C2680 1.368 . S
C2675 C2659 1.349 . S
C2675 H2667 0.950 . S
C2675 C2673 1.327 . S
C2676 C2664 1.349 . S
C2676 H2670 0.942 1_545 S
C2676 C2677 1.327 . S
C2677 H2671 0.950 . S
C2677 C2676 1.327 . S
C2677 C2681 1.429 . S
C2678 C2661 1.574 . S
C2678 H2672 0.949 . S
C2678 C2682 1.368 . S
C2679 C2660 1.429 . S
C2679 C2673 1.429 . S
C2679 C2680 1.523 . S
C2680 C2661 1.368 . S
C2680 C2674 1.368 . S
C2680 C2679 1.523 . S
C2681 C2665 1.429 . S
C2681 C2677 1.429 . S
C2681 C2682 1.523 . S
C2682 C2666 1.368 . S
C2682 C2678 1.368 . S
C2682 C2681 1.523 . S
H2683 C2658 0.950 . S
H2684 C2660 0.950 . S
H2685 C2661 0.949 . S
H2686 C2663 0.950 . S
H2687 C2665 0.950 . S
C529 C6 1.076 . S
C534 C402 1.083 . S
C559 C424 1.083 . S
C564 C29 1.076 . S
C589 C51 1.076 . S
C594 C359 1.083 . S
C619 C72 1.076 . S
C624 C380 1.083 . S
C649 C490 1.083 . S
C654 C94 1.076 . S
C679 C116 1.076 . S
C684 C468 1.083 . S
C709 C513 1.083 . S
C714 C138 1.076 . S
C739 C161 1.076 . S
C744 C447 1.083 . S
C769 C183 1.076 . S
C774 C293 1.083 . S
C799 C204 1.076 . S
C804 C336 1.083 . S
C829 C315 1.083 . S
C834 C226 1.076 . S
C859 C249 1.076 . S
C864 C270 1.083 . S
C889 C273 1.076 . S
C894 C141 1.083 . S
C919 C291 1.076 . S
C924 C159 1.083 . S
C949 C313 1.076 . S
C954 C97 1.083 . S
C979 C119 1.083 . S
C984 C339 1.076 . S
C1009 C357 1.076 . S
C1014 C229 1.083 . S
C1039 C207 1.083 . S
C1044 C383 1.076 . S
C1069 C247 1.083 . S
C1074 C405 1.076 . S
C1099 C181 1.083 . S
C1104 C427 1.076 . S
C1129 C27 1.083 . S
C1134 C445 1.076 . S
C1159 C75 1.083 . S
C1164 C471 1.076 . S
C1189 C49 1.083 . S
C1194 C493 1.076 . S
C1219 C511 1.076 . S
C1224 C9 1.083 . S
C1249 C426 1.053 . S
C1254 C5 1.041 . S
C1279 C404 1.053 . S
C1284 C31 1.041 . S
C1309 C53 1.041 . S
C1314 C382 1.053 . S
C1339 C356 1.053 . S
C1344 C71 1.041 . S
C1369 C93 1.041 . S
C1374 C510 1.053 . S
C1399 C115 1.041 . S
C1404 C444 1.053 . S
C1429 C492 1.053 . S
C1434 C137 1.041 . S
C1459 C163 1.041 . S
C1464 C470 1.053 . S
C1489 C312 1.053 . S
C1494 C185 1.041 . S
C1519 C272 1.053 . S
C1524 C203 1.041 . S
C1549 C290 1.053 . S
C1554 C225 1.041 . S
C1579 C338 1.053 . S
C1584 C251 1.041 . S
C1609 C271 1.041 . S
C1614 C162 1.053 . S
C1639 C292 1.041 . S
C1644 C136 1.053 . S
C1669 C114 1.053 . S
C1674 C314 1.041 . S
C1699 C92 1.053 . S
C1704 C337 1.041 . S
C1729 C250 1.053 . S
C1734 C358 1.041 . S
C1759 C381 1.041 . S
C1764 C184 1.053 . S
C1789 C224 1.053 . S
C1794 C403 1.041 . S
C1819 C202 1.053 . S
C1824 C425 1.041 . S
C1849 C446 1.041 . S
C1854 C52 1.053 . S
C1879 C469 1.041 . S
C1884 C4 1.053 . S
C1909 C30 1.053 . S
C1914 C491 1.041 . S
C1939 C70 1.053 . S
C1944 C512 1.041 . S
C1969 C7 0.844 . S
C1974 C206 0.843 . S
C1999 C228 0.843 . S
C2004 C28 0.844 . S
C2029 C180 0.843 . S
C2034 C50 0.844 . S
C2059 C246 0.843 . S
C2064 C73 0.844 . S
C2089 C95 0.844 . S
C2094 C74 0.843 . S
C2119 C48 0.843 . S
C2124 C117 0.844 . S
C2149 C139 0.844 . S
C2154 C26 0.843 . S
C2179 C8 0.843 . S
C2184 C160 0.844 . S
C2209 C182 0.844 . S
C2214 C118 0.843 . S
C2239 C205 0.844 . S
C2244 C158 0.843 . S
C2269 C227 0.844 . S
C2274 C140 0.843 . S
C2299 C248 0.844 . S
C2304 C96 0.843 . S
C2329 C269 0.844 . S
C2334 C466 0.843 . S
C2359 C295 0.844 . S
C2364 C488 0.843 . S
C2389 C448 0.843 . S
C2394 C317 0.844 . S
C2419 C514 0.843 . S
C2424 C335 0.844 . S
C2449 C361 0.844 . S
C2454 C334 0.843 . S
C2479 C379 0.844 . S
C2484 C316 0.843 . S
C2509 C294 0.843 . S
C2514 C401 0.844 . S
C2539 C423 0.844 . S
C2544 C268 0.843 . S
C2569 C449 0.844 . S
C2574 C378 0.843 . S
C2599 C422 0.843 . S
C2604 C467 0.844 . S
C2629 C489 0.844 . S
C2634 C400 0.843 . S
C2659 C515 0.844 . S
C2664 C360 0.843 . S
