# Generated by pormake.
# Topology snk, (6)-cn, num edge types: 1
# Building blocks:
#     Node 0, Type 0, BuildingBlock: INOVEN_clean_sbu_0, # of connection points: 6
#     Node 1, Type 0, BuildingBlock: INOVEN_clean_sbu_0, # of connection points: 6
#     Node 2, Type 0, BuildingBlock: INOVEN_clean_sbu_0, # of connection points: 6
#     Node 3, Type 0, BuildingBlock: INOVEN_clean_sbu_0, # of connection points: 6
#     Node 4, Type 0, BuildingBlock: INOVEN_clean_sbu_0, # of connection points: 6
#     Node 5, Type 0, BuildingBlock: INOVEN_clean_sbu_0, # of connection points: 6
#     Node 6, Type 0, BuildingBlock: INOVEN_clean_sbu_0, # of connection points: 6
#     Node 7, Type 0, BuildingBlock: INOVEN_clean_sbu_0, # of connection points: 6
#     Edge 8, Type (0, 0), BuildingBlock: OJICUG_clean_linker_0, # of connection points: 2
#     Edge 9, Type (0, 0), BuildingBlock: OJICUG_clean_linker_0, # of connection points: 2
#     Edge 10, Type (0, 0), BuildingBlock: OJICUG_clean_linker_0, # of connection points: 2
#     Edge 11, Type (0, 0), BuildingBlock: OJICUG_clean_linker_0, # of connection points: 2
#     Edge 12, Type (0, 0), BuildingBlock: OJICUG_clean_linker_0, # of connection points: 2
#     Edge 13, Type (0, 0), BuildingBlock: OJICUG_clean_linker_0, # of connection points: 2
#     Edge 14, Type (0, 0), BuildingBlock: OJICUG_clean_linker_0, # of connection points: 2
#     Edge 15, Type (0, 0), BuildingBlock: OJICUG_clean_linker_0, # of connection points: 2
#     Edge 16, Type (0, 0), BuildingBlock: OJICUG_clean_linker_0, # of connection points: 2
#     Edge 17, Type (0, 0), BuildingBlock: OJICUG_clean_linker_0, # of connection points: 2
#     Edge 18, Type (0, 0), BuildingBlock: OJICUG_clean_linker_0, # of connection points: 2
#     Edge 19, Type (0, 0), BuildingBlock: OJICUG_clean_linker_0, # of connection points: 2
#     Edge 20, Type (0, 0), BuildingBlock: OJICUG_clean_linker_0, # of connection points: 2
#     Edge 21, Type (0, 0), BuildingBlock: OJICUG_clean_linker_0, # of connection points: 2
#     Edge 22, Type (0, 0), BuildingBlock: OJICUG_clean_linker_0, # of connection points: 2
#     Edge 23, Type (0, 0), BuildingBlock: OJICUG_clean_linker_0, # of connection points: 2
#     Edge 24, Type (0, 0), BuildingBlock: OJICUG_clean_linker_0, # of connection points: 2
#     Edge 25, Type (0, 0), BuildingBlock: OJICUG_clean_linker_0, # of connection points: 2
#     Edge 26, Type (0, 0), BuildingBlock: OJICUG_clean_linker_0, # of connection points: 2
#     Edge 27, Type (0, 0), BuildingBlock: OJICUG_clean_linker_0, # of connection points: 2
#     Edge 28, Type (0, 0), BuildingBlock: OJICUG_clean_linker_0, # of connection points: 2
#     Edge 29, Type (0, 0), BuildingBlock: OJICUG_clean_linker_0, # of connection points: 2
#     Edge 30, Type (0, 0), BuildingBlock: OJICUG_clean_linker_0, # of connection points: 2
#     Edge 31, Type (0, 0), BuildingBlock: OJICUG_clean_linker_0, # of connection points: 2
# Relax obj value: 0.097
# Max RMSD: 0.177
# Mean RMSD: 0.139
data_MOF--net-snk--node1-INOVEN_clean_sbu_0--edge1-OJICUG_clean_linker_0
_symmetry_space_group_name_H-M    P1
_symmetry_Int_Tables_number       1
_symmetry_cell_setting            triclinic
loop_
_symmetry_equiv_pos_as_xyz
'x, y, z'
_cell_length_a     26.438864
_cell_length_b     26.447783
_cell_length_c     20.890225
_cell_angle_alpha  96.662737
_cell_angle_beta   96.604754
_cell_angle_gamma 90.697469
loop_
_atom_site_label
_atom_site_type_symbol
_atom_site_fract_x
_atom_site_fract_y
_atom_site_fract_z
_atom_type_partial_charge
Gd0 Gd 0.99036 0.97031 0.46238 0.0
Gd1 Gd 0.02311 0.03738 0.59064 0.0
C2 C 0.07677 0.06067 0.46987 0.0
C3 C 0.96521 0.93412 0.34202 0.0
C4 C 0.97262 0.94871 0.27704 0.0
C5 C 0.00942 0.92422 0.2418 0.0
C6 C 0.94306 0.9861 0.24899 0.0
C7 C 0.98816 0.97519 0.15291 0.0
C8 C 0.95098 0.9994 0.18784 0.0
C9 C 0.01715 0.93731 0.18061 0.0
C10 C 0.05686 0.92756 0.54622 0.0
C11 C 0.93626 0.94759 0.58315 0.0
C12 C 0.04843 0.07217 0.71141 0.0
C13 C 0.04004 0.0571 0.77577 0.0
C14 C 1.00547 0.08385 0.81248 0.0
C15 C 0.06645 0.01683 0.80168 0.0
C16 C 0.02323 0.03011 0.89932 0.0
C17 C 0.05814 1.00353 0.8627 0.0
C18 C 0.99698 0.07041 0.87325 0.0
C19 C 0.95672 0.08004 0.50663 0.0
O20 O 0.03995 0.03222 0.43443 0.0
O21 O 0.0828 0.06425 0.53396 0.0
O22 O 1.00602 0.92101 0.3772 0.0
O23 O 0.93469 0.96136 0.37652 0.0
O24 O 0.02067 0.90254 0.50788 0.0
O25 O 0.05823 0.97367 0.53606 0.0
O26 O 0.97315 0.97591 0.61848 0.0
O27 O 0.93035 0.94379 0.51904 0.0
O28 O 0.00838 0.08692 0.67624 0.0
O29 O 0.0782 0.04412 0.6768 0.0
O30 O 0.99161 0.10563 0.54652 0.0
O31 O 0.95558 0.03399 0.51687 0.0
H32 H 0.03247 0.89487 0.26164 0.0
H33 H 0.91361 1.00501 0.27396 0.0
H34 H 0.92742 0.02816 0.16747 0.0
H35 H 0.04638 0.91818 0.15536 0.0
H36 H 0.98473 0.11522 0.79405 0.0
H37 H 0.09369 0.99561 0.77504 0.0
H38 H 0.07968 0.97283 0.88153 0.0
H39 H 0.9693 0.09133 0.89943 0.0
Gd40 Gd 0.27995 0.732 0.72529 0.0
Gd41 Gd 0.23394 0.78384 0.84402 0.0
C42 C 0.20124 0.82559 0.71154 0.0
C43 C 0.29745 0.69136 0.61118 0.0
C44 C 0.28674 0.70313 0.54374 0.0
C45 C 0.32121 0.68836 0.49932 0.0
C46 C 0.24389 0.73073 0.52377 0.0
C47 C 0.27073 0.72926 0.41561 0.0
C48 C 0.23595 0.74364 0.46029 0.0
C49 C 0.31333 0.70122 0.43591 0.0
C50 C 0.33968 0.80391 0.80132 0.0
C51 C 0.31218 0.68984 0.85756 0.0
C52 C 0.2164 0.82477 0.95798 0.0
C53 C 0.22701 0.81322 1.02551 0.0
C54 C 0.1925 0.8282 0.06982 0.0
C55 C 0.26976 0.78556 0.04565 0.0
C56 C 0.24272 0.78728 0.15374 0.0
C57 C 0.27756 0.77276 0.10918 0.0
C58 C 0.20024 0.81543 0.13328 0.0
C59 C 0.17435 0.71166 0.76798 0.0
O60 O 0.22024 0.78349 0.68432 0.0
O61 O 0.20889 0.83971 0.77474 0.0
O62 O 0.32949 0.72258 0.64921 0.0
O63 O 0.25857 0.67814 0.63966 0.0
O64 O 0.35658 0.76255 0.77245 0.0
O65 O 0.29231 0.80666 0.7859 0.0
O66 O 0.29357 0.73211 0.88497 0.0
O67 O 0.30441 0.67587 0.79435 0.0
O68 O 0.1844 0.79344 0.92007 0.0
O69 O 0.25532 0.83787 0.92949 0.0
O70 O 0.1573 0.75296 0.79684 0.0
O71 O 0.2217 0.70922 0.78358 0.0
H72 H 0.35471 0.6674 0.51396 0.0
H73 H 0.21675 0.7426 0.55725 0.0
H74 H 0.20241 0.76468 0.44615 0.0
H75 H 0.34126 0.69013 0.40322 0.0
H76 H 0.15908 0.84921 0.05503 0.0
H77 H 0.29691 0.77353 1.01225 0.0
H78 H 0.31102 0.75166 0.12345 0.0
H79 H 0.17227 0.82665 0.16587 0.0
Gd80 Gd 0.53361 0.98655 0.08689 0.0
Gd81 Gd 0.48152 0.03236 0.96829 0.0
C82 C 0.43943 0.06453 0.10081 0.0
C83 C 0.57457 0.96932 0.20087 0.0
C84 C 0.56277 0.97983 0.26836 0.0
C85 C 0.57709 0.94497 0.31238 0.0
C86 C 0.53556 0.02286 0.28876 0.0
C87 C 0.53656 0.99548 0.39654 0.0
C88 C 0.52263 0.03064 0.35226 0.0
C89 C 0.56418 0.95268 0.37581 0.0
C90 C 0.46185 0.92653 1.01095 0.0
C91 C 0.5756 0.95419 0.95451 0.0
C92 C 0.44076 0.04989 0.85432 0.0
C93 C 0.45243 0.03926 0.7868 0.0
C94 C 0.43805 0.07405 0.74271 0.0
C95 C 0.4796 0.9962 0.76643 0.0
C96 C 0.47849 0.02344 0.65855 0.0
C97 C 0.49246 0.98834 0.7029 0.0
C98 C 0.45088 0.06626 0.67925 0.0
C99 C 0.55348 0.09211 0.04436 0.0
O100 O 0.4817 0.04588 0.12805 0.0
O101 O 0.42543 0.05685 0.03759 0.0
O102 O 0.54361 0.93703 0.16285 0.0
O103 O 0.58741 0.00834 0.17242 0.0
O104 O 0.50325 0.90979 0.03987 0.0
O105 O 0.45895 0.97389 1.02636 0.0
O106 O 0.53329 0.97279 0.92726 0.0
O107 O 0.5897 0.96209 1.01768 0.0
O108 O 0.47202 0.08191 0.89232 0.0
O109 O 0.42757 0.01099 0.88276 0.0
O110 O 0.51201 0.10902 1.01582 0.0
O111 O 0.55615 0.04482 1.02855 0.0
H112 H 0.59773 0.91132 0.2974 0.0
H113 H 0.52401 0.05029 0.25559 0.0
H114 H 0.50193 0.06434 0.36674 0.0
H115 H 0.57492 0.92445 0.40817 0.0
H116 H 0.41742 0.10773 0.75766 0.0
H117 H 0.49119 0.96883 0.79966 0.0
H118 H 0.51315 0.95462 0.68845 0.0
H119 H 0.44012 0.09444 0.64685 0.0
Gd120 Gd 0.28911 0.27448 0.34521 0.0
Gd121 Gd 0.22487 0.23884 0.21554 0.0
C122 C 0.20055 0.18595 0.33658 0.0
C123 C 0.32273 0.30321 0.46582 0.0
C124 C 0.30824 0.29565 0.53025 0.0
C125 C 0.34572 0.29964 0.58394 0.0
C126 C 0.25785 0.28313 0.53863 0.0
C127 C 0.28289 0.27788 0.65386 0.0
C128 C 0.24529 0.27437 0.59984 0.0
C129 C 0.33324 0.29087 0.64511 0.0
C130 C 0.33439 0.20723 0.26488 0.0
C131 C 0.31355 0.32693 0.22376 0.0
C132 C 0.19118 0.21087 0.0948 0.0
C133 C 0.20591 0.21894 0.03063 0.0
C134 C 0.16841 0.21633 0.97707 0.0
C135 C 0.25652 0.23067 1.0224 0.0
C136 C 0.23169 0.23777 0.90754 0.0
C137 C 0.26929 0.24001 0.96148 0.0
C138 C 0.18111 0.22556 0.91617 0.0
C139 C 0.18015 0.30658 0.29616 0.0
O140 O 0.22789 0.2235 0.37213 0.0
O141 O 0.19794 0.17939 0.27255 0.0
O142 O 0.33873 0.26299 0.43228 0.0
O143 O 0.29241 0.33035 0.43027 0.0
O144 O 0.35844 0.24414 0.30309 0.0
O145 O 0.28792 0.20561 0.27345 0.0
O146 O 0.28626 0.2893 0.18841 0.0
O147 O 0.31611 0.33372 0.28779 0.0
O148 O 0.17524 0.25092 0.12873 0.0
O149 O 0.22127 0.18332 0.13008 0.0
O150 O 0.15579 0.2696 0.25839 0.0
O151 O 0.22645 0.30779 0.28696 0.0
H152 H 0.38481 0.30937 0.5785 0.0
H153 H 0.22831 0.27974 0.49778 0.0
H154 H 0.20628 0.26391 0.60457 0.0
H155 H 0.36301 0.29467 0.68569 0.0
H156 H 0.12914 0.20729 0.98241 0.0
H157 H 0.28609 0.23302 0.06316 0.0
H158 H 0.30849 0.24987 0.95694 0.0
H159 H 0.15128 0.22271 0.8757 0.0
Gd160 Gd 0.78356 0.23357 0.21703 0.0
Gd161 Gd 0.73523 0.28295 0.33512 0.0
C162 C 0.70465 0.32655 0.20312 0.0
C163 C 0.80437 0.19504 0.10353 0.0
C164 C 0.79246 0.20528 0.03567 0.0
C165 C 0.82871 0.19447 0.99239 0.0
C166 C 0.74686 0.22808 1.0143 0.0
C167 C 0.77471 0.23023 0.90722 0.0
C168 C 0.73799 0.24027 0.95053 0.0
C169 C 0.81999 0.2068 0.92884 0.0
C170 C 0.8425 0.30324 0.29778 0.0
C171 C 0.81263 0.1877 0.34834 0.0
C172 C 0.71586 0.3232 0.44856 0.0
C173 C 0.72642 0.31213 0.51635 0.0
C174 C 0.68843 0.31995 0.5578 0.0
C175 C 0.77299 0.29214 0.53964 0.0
C176 C 0.74282 0.28665 0.64482 0.0
C177 C 0.78108 0.2794 0.60317 0.0
C178 C 0.69652 0.30748 0.62138 0.0
C179 C 0.67603 0.21319 0.25487 0.0
O180 O 0.72395 0.28482 0.17544 0.0
O181 O 0.71148 0.33973 0.26653 0.0
O182 O 0.83313 0.22955 0.14111 0.0
O183 O 0.76711 0.17794 0.13201 0.0
O184 O 0.85957 0.26218 0.26845 0.0
O185 O 0.79548 0.30687 0.28063 0.0
O186 O 0.79198 0.22854 0.37668 0.0
O187 O 0.80782 0.17648 0.28457 0.0
O188 O 0.68491 0.29095 0.41042 0.0
O189 O 0.75454 0.33758 0.42046 0.0
O190 O 0.65892 0.25398 0.2849 0.0
O191 O 0.72315 0.20973 0.27159 0.0
H192 H 0.86417 0.17699 1.00804 0.0
H193 H 0.71848 0.23712 0.04706 0.0
H194 H 0.70294 0.25871 0.93564 0.0
H195 H 0.84872 0.19789 0.89654 0.0
H196 H 0.65225 0.33545 0.5408 0.0
H197 H 0.80293 0.28597 0.50856 0.0
H198 H 0.81699 0.26295 0.61916 0.0
H199 H 0.66654 0.31445 0.65227 0.0
Gd200 Gd 0.78776 0.77415 0.84173 0.0
Gd201 Gd 0.72177 0.73858 0.71297 0.0
C202 C 0.6987 0.6867 0.83542 0.0
C203 C 0.82067 0.80172 0.96265 0.0
C204 C 0.80582 0.79223 1.02677 0.0
C205 C 0.83599 0.76132 0.06532 0.0
C206 C 0.76225 0.8138 0.05049 0.0
C207 C 0.77924 0.77317 0.14978 0.0
C208 C 0.74916 0.8044 0.11125 0.0
C209 C 0.82279 0.75171 0.12583 0.0
C210 C 0.83125 0.70591 0.76112 0.0
C211 C 0.81191 0.8251 0.71922 0.0
C212 C 0.68621 0.71126 0.59277 0.0
C213 C 0.70015 0.7186 0.52743 0.0
C214 C 0.67195 0.7518 0.49006 0.0
C215 C 0.74067 0.69276 0.50126 0.0
C216 C 0.72557 0.73474 0.40295 0.0
C217 C 0.75344 0.70101 0.43995 0.0
C218 C 0.68449 0.75981 0.42869 0.0
C219 C 0.67847 0.80688 0.79423 0.0
O220 O 0.72657 0.72421 0.8701 0.0
O221 O 0.69529 0.67971 0.77132 0.0
O222 O 0.8382 0.76286 0.92805 0.0
O223 O 0.79081 0.82953 0.92739 0.0
O224 O 0.85662 0.74138 0.80032 0.0
O225 O 0.78489 0.70525 0.77014 0.0
O226 O 0.78389 0.78763 0.68449 0.0
O227 O 0.81492 0.83248 0.78329 0.0
O228 O 0.67179 0.75183 0.62728 0.0
O229 O 0.71469 0.6821 0.62783 0.0
O230 O 0.65364 0.7699 0.75706 0.0
O231 O 0.72465 0.80779 0.78426 0.0
H232 H 0.86988 0.74429 0.04852 0.0
H233 H 0.73824 0.83809 1.02232 0.0
H234 H 0.71581 0.82227 0.12837 0.0
H235 H 0.84651 0.72689 0.15347 0.0
H236 H 0.64017 0.77189 0.50848 0.0
H237 H 0.76252 0.66601 0.52783 0.0
H238 H 0.78477 0.68042 0.42114 0.0
H239 H 0.66245 0.78633 0.4018 0.0
Gd240 Gd 0.48808 0.47558 0.96633 0.0
Gd241 Gd 0.52577 0.53903 0.09607 0.0
C242 C 0.57655 0.56379 0.9734 0.0
C243 C 0.45805 0.44299 0.84568 0.0
C244 C 0.46632 0.45724 0.78131 0.0
C245 C 0.46273 0.41963 0.72774 0.0
C246 C 0.4791 0.50753 0.77287 0.0
C247 C 0.48535 0.48215 0.65784 0.0
C248 C 0.48857 0.51986 0.7118 0.0
C249 C 0.47207 0.43189 0.66666 0.0
C250 C 0.55727 0.43029 0.04412 0.0
C251 C 0.43714 0.45078 0.08866 0.0
C252 C 0.55559 0.57155 0.21676 0.0
C253 C 0.54719 0.55713 0.28101 0.0
C254 C 0.55031 0.5947 0.33458 0.0
C255 C 0.53471 0.50673 0.28932 0.0
C256 C 0.52801 0.53189 0.40427 0.0
C257 C 0.52516 0.49424 0.35029 0.0
C258 C 0.5409 0.58227 0.39556 0.0
C259 C 0.45712 0.58458 1.01794 0.0
O260 O 0.53852 0.53669 0.93865 0.0
O261 O 0.58416 0.56621 0.03742 0.0
O262 O 0.49747 0.4253 0.87889 0.0
O263 O 0.43212 0.47435 0.88166 0.0
O264 O 0.51977 0.40616 1.00707 0.0
O265 O 0.55817 0.47679 0.0359 0.0
O266 O 0.47518 0.4778 0.12356 0.0
O267 O 0.42961 0.44853 1.0247 0.0
O268 O 0.5162 0.58923 0.18348 0.0
O269 O 0.58167 0.54033 0.18081 0.0
O270 O 0.49461 0.60855 0.0552 0.0
O271 O 0.45587 0.53811 1.02639 0.0
H272 H 0.45312 0.38055 0.73327 0.0
H273 H 0.48193 0.53726 0.81351 0.0
H274 H 0.49799 0.55906 0.70679 0.0
H275 H 0.46985 0.40171 0.62663 0.0
H276 H 0.55962 0.63387 0.32913 0.0
H277 H 0.5322 0.47704 0.24866 0.0
H278 H 0.51598 0.45497 0.35524 0.0
H279 H 0.54279 0.6124 0.43562 0.0
Gd280 Gd 0.03346 0.48288 0.59056 0.0
Gd281 Gd 0.98514 0.53209 0.47281 0.0
C282 C 0.93865 0.56081 0.60388 0.0
C283 C 0.07315 0.46262 0.70378 0.0
C284 C 0.06206 0.47307 0.77158 0.0
C285 C 0.06977 0.43496 0.81282 0.0
C286 C 0.04208 0.51963 0.79504 0.0
C287 C 0.03645 0.48921 0.89993 0.0
C288 C 0.02925 0.52758 0.85855 0.0
C289 C 0.05722 0.44294 0.87639 0.0
C290 C 0.96371 0.42427 0.5096 0.0
C291 C 0.07736 0.45248 0.45865 0.0
C292 C 0.94743 0.554 0.35959 0.0
C293 C 0.95673 0.54111 0.29151 0.0
C294 C 0.94643 0.57715 0.24791 0.0
C295 C 0.97827 0.4948 0.27025 0.0
C296 C 0.98009 0.52138 0.16241 0.0
C297 C 0.98975 0.48498 0.20623 0.0
C298 C 0.95796 0.56746 0.18406 0.0
C299 C 0.05428 0.5905 0.55518 0.0
O300 O 0.97907 0.53963 0.63237 0.0
O301 O 0.92791 0.5565 0.54007 0.0
O302 O 0.04054 0.43222 0.66539 0.0
O303 O 0.08809 0.50125 0.67607 0.0
O304 O 1.00426 0.40688 0.53977 0.0
O305 O 0.96043 0.47143 0.52633 0.0
O306 O 0.03577 0.47199 0.43104 0.0
O307 O 0.09042 0.45909 0.52207 0.0
O308 O 0.98346 0.58117 0.39661 0.0
O309 O 0.92861 0.51785 0.38843 0.0
O310 O 0.01349 0.6078 0.52553 0.0
O311 O 0.05796 0.5436 0.53726 0.0
H312 H 0.08497 0.39868 0.79554 0.0
H313 H 0.03616 0.54971 0.76419 0.0
H314 H 0.01399 0.56391 0.87538 0.0
H315 H 0.06276 0.41241 0.90665 0.0
H316 H 0.93025 0.6133 0.26362 0.0
H317 H 0.9867 0.46648 0.30321 0.0
H318 H 1.00614 0.44885 0.19108 0.0
H319 H 0.9507 0.5967 0.15217 0.0
C320 C 0.14652 0.12592 0.47104 0.0
C321 C 0.11039 0.09086 0.43594 0.0
H322 H 0.20341 0.18313 0.46728 0.0
C323 C 0.10551 0.08588 0.36764 0.0
H324 H 0.15134 0.13068 0.5236 0.0
C325 C 0.1354 0.11601 0.33519 0.0
C326 C 0.17071 0.15188 0.37032 0.0
H327 H 0.07816 0.05907 0.33897 0.0
H328 H 0.13017 0.11172 0.28264 0.0
C329 C 0.1763 0.15613 0.4386 0.0
C330 C 0.13058 0.93127 0.63458 0.0
C331 C 0.09483 0.90287 0.5889 0.0
H332 H 0.19188 0.92896 0.71149 0.0
C333 C 0.0951 0.84953 0.58385 0.0
H334 H 0.13205 0.97233 0.63827 0.0
C335 C 0.13041 0.82496 0.62335 0.0
C336 C 0.16526 0.85317 0.67013 0.0
H337 H 0.06823 0.82656 0.54891 0.0
H338 H 0.12983 0.7837 0.61802 0.0
C339 C 0.16494 0.90655 0.67603 0.0
C340 C 0.35274 0.88362 0.8804 0.0
C341 C 0.37019 0.83649 0.85443 0.0
H342 H 0.36823 0.9495 0.95108 0.0
C343 C 0.41739 0.81954 0.88049 0.0
H344 H 0.3165 0.89757 0.86095 0.0
C345 C 0.44643 0.84869 0.93192 0.0
C346 C 0.42938 0.89591 0.95785 0.0
H347 H 0.43178 0.7833 0.86164 0.0
H348 H 0.48267 0.83438 0.95086 0.0
C349 C 0.38226 0.91325 0.93174 0.0
C350 C 0.43874 0.13548 0.18879 0.0
C351 C 0.41123 0.09993 0.14223 0.0
H352 H 0.43581 0.19793 0.26268 0.0
C353 C 0.35783 0.09897 0.13646 0.0
H354 H 0.48001 0.13693 0.19408 0.0
C355 C 0.3324 0.13288 0.17766 0.0
C356 C 0.36003 0.16952 0.22288 0.0
H357 H 0.33597 0.0714 0.10128 0.0
H358 H 0.29137 0.13038 0.17416 0.0
C359 C 0.41342 0.1704 0.22799 0.0
C360 C 0.90665 0.92445 0.68577 0.0
C361 C 0.90245 0.91794 0.61747 0.0
H362 H 0.88137 0.90056 0.77145 0.0
C363 C 0.86697 0.88194 0.58301 0.0
H364 H 0.93349 0.95202 0.71397 0.0
C365 C 0.83712 0.85233 0.61616 0.0
C366 C 0.84198 0.85822 0.6845 0.0
H367 H 0.86276 0.87598 0.53047 0.0
H368 H 0.81057 0.82445 0.58802 0.0
C369 C 0.8767 0.89498 0.71889 0.0
C370 C 0.89333 0.1475 0.49438 0.0
C371 C 0.91672 0.10432 0.46709 0.0
H372 H 0.84104 0.20672 0.47877 0.0
C373 C 0.90397 0.08686 0.40126 0.0
H374 H 0.90287 0.16173 0.54517 0.0
C375 C 0.86882 0.11284 0.36262 0.0
C376 C 0.84574 0.15666 0.38963 0.0
H377 H 0.92302 0.05475 0.37909 0.0
H378 H 0.86088 0.0994 0.31141 0.0
C379 C 0.85781 0.17312 0.45623 0.0
C380 C 0.59811 0.19796 0.17615 0.0
C381 C 0.64563 0.18109 0.20124 0.0
H382 H 0.53243 0.18341 0.1064 0.0
C383 C 0.66328 0.13442 0.17409 0.0
H384 H 0.58354 0.23383 0.19596 0.0
C385 C 0.63359 0.10513 0.12262 0.0
C386 C 0.58613 0.12239 0.09753 0.0
H387 H 0.69973 0.12051 0.19284 0.0
H388 H 0.6477 0.06917 0.10242 0.0
C389 C 0.56892 0.16919 0.12455 0.0
C390 C 0.60013 0.84621 0.82957 0.0
C391 C 0.65351 0.84599 0.835 0.0
H392 H 0.53406 0.88162 0.86224 0.0
C393 C 0.68168 0.88285 0.8793 0.0
H394 H 0.57734 0.81855 0.79553 0.0
C395 C 0.65673 0.91799 0.91951 0.0
C396 C 0.60333 0.91804 0.91351 0.0
H397 H 0.72275 0.88452 0.88297 0.0
H398 H 0.67897 0.94561 0.95421 0.0
C399 C 0.57533 0.88235 0.86767 0.0
C400 C 0.64558 0.62941 0.97252 0.0
C401 C 0.60998 0.59335 0.93854 0.0
H402 H 0.70151 0.68709 0.96667 0.0
C403 C 0.60524 0.58674 0.87021 0.0
H404 H 0.65021 0.63542 1.02506 0.0
C405 C 0.63462 0.61632 0.83655 0.0
C406 C 0.66934 0.65325 0.87048 0.0
H407 H 0.57849 0.55894 0.84242 0.0
H408 H 0.62949 0.61073 0.78399 0.0
C409 C 0.67489 0.65911 0.93886 0.0
C410 C 0.63253 0.32651 0.11658 0.0
C411 C 0.6685 0.35435 0.16225 0.0
H412 H 0.56836 0.32888 0.04496 0.0
C413 C 0.66879 0.40771 0.16821 0.0
H414 H 0.63167 0.28525 0.11107 0.0
C415 C 0.63366 0.4328 0.12824 0.0
C416 C 0.59637 0.40486 0.08432 0.0
H417 H 0.69668 0.42982 0.20266 0.0
H418 H 0.63571 0.47384 0.13176 0.0
C419 C 0.5963 0.35149 0.0788 0.0
C420 C 0.94743 0.34598 0.43163 0.0
C421 C 0.93132 0.394 0.45612 0.0
H422 H 0.9322 0.28022 0.36207 0.0
C423 C 0.88519 0.41235 0.4284 0.0
H424 H 0.98284 0.33085 0.45193 0.0
C425 C 0.85581 0.38299 0.37671 0.0
C426 C 0.87246 0.33516 0.35195 0.0
H427 H 0.87182 0.44916 0.44674 0.0
H428 H 0.82039 0.39775 0.35588 0.0
C429 C 0.91854 0.31706 0.37988 0.0
C430 C 0.89743 0.64091 0.74995 0.0
C431 C 0.85559 0.6658 0.72189 0.0
H432 H 0.9555 0.58702 0.73507 0.0
C433 C 0.83938 0.65434 0.65557 0.0
H434 H 0.91068 0.64953 0.80116 0.0
C435 C 0.86514 0.61881 0.61721 0.0
C436 C 0.90762 0.59415 0.64494 0.0
H437 H 0.80852 0.67474 0.63294 0.0
H438 H 0.85268 0.61188 0.56566 0.0
C439 C 0.92292 0.60503 0.712 0.0
C440 C 0.33729 0.35633 0.12134 0.0
C441 C 0.34329 0.36076 0.18964 0.0
H442 H 0.36194 0.38123 0.03586 0.0
C443 C 0.37889 0.39652 0.22433 0.0
H444 H 0.30989 0.32945 0.09299 0.0
C445 C 0.40871 0.4263 0.1914 0.0
C446 C 0.40351 0.42103 0.12307 0.0
H447 H 0.3844 0.40098 0.27689 0.0
H448 H 0.43617 0.45313 0.2197 0.0
C449 C 0.36703 0.38616 0.08842 0.0
C450 C 0.41967 0.6637 0.98232 0.0
C451 C 0.4186 0.61032 0.97729 0.0
H452 H 0.38581 0.73035 0.94919 0.0
C453 C 0.38105 0.58279 0.93336 0.0
H454 H 0.44788 0.68601 1.0161 0.0
C455 C 0.34655 0.60828 0.89305 0.0
C456 C 0.34782 0.66165 0.89857 0.0
H457 H 0.37831 0.54178 0.93012 0.0
H458 H 0.31837 0.58648 0.85868 0.0
C459 C 0.38415 0.6891 0.9441 0.0
C460 C 0.16212 0.63242 0.68795 0.0
C461 C 0.14407 0.67903 0.71473 0.0
H462 H 0.14776 0.56745 0.61558 0.0
C463 C 0.09654 0.69554 0.68915 0.0
H464 H 0.19857 0.61875 0.70713 0.0
C465 C 0.06791 0.66664 0.63717 0.0
C466 C 0.08582 0.62021 0.60997 0.0
H467 H 0.08165 0.73134 0.70868 0.0
H468 H 0.03148 0.68068 0.61847 0.0
C469 C 0.1331 0.60311 0.63587 0.0
C470 C 0.18319 0.38209 0.38179 0.0
C471 C 0.15503 0.34501 0.33776 0.0
H472 H 0.1806 0.44469 0.45696 0.0
C473 C 0.10168 0.34457 0.33333 0.0
H474 H 0.2242 0.38435 0.38459 0.0
C475 C 0.07692 0.38036 0.37206 0.0
C476 C 0.10499 0.41629 0.41756 0.0
H477 H 0.0789 0.31676 0.2995 0.0
H478 H 0.03567 0.37933 0.36725 0.0
C479 C 0.15834 0.41682 0.42264 0.0
C480 C 1.00623 0.05374 1.01532 0.0
C481 C 0.01421 0.016 0.96438 0.0
H482 H 0.99218 0.0706 0.11445 0.0
C483 C 0.01329 0.96468 0.97611 0.0
H484 H 0.00752 0.0937 1.00859 0.0
C485 C 1.00479 0.9515 0.03705 0.0
C486 C 0.99675 0.98924 0.08785 0.0
H487 H 0.01836 0.93449 0.93789 0.0
H488 H 1.00376 0.91158 0.04409 0.0
C489 C 0.99747 0.04052 0.07615 0.0
C490 C 0.2457 0.79257 0.33707 0.0
C491 C 0.26313 0.744 0.34844 0.0
H492 H 0.22656 0.84463 0.26738 0.0
C493 C 0.27391 0.70986 0.29519 0.0
H494 H 0.23784 0.82015 0.37698 0.0
C495 C 0.26751 0.72394 0.23228 0.0
C496 C 0.25013 0.77253 0.22091 0.0
H497 H 0.28666 0.67188 0.30195 0.0
H498 H 0.27537 0.69635 0.19238 0.0
C499 C 0.2393 0.80665 0.27415 0.0
C500 C 0.54159 0.9979 0.57978 0.0
C501 C 0.49324 0.01593 0.59134 0.0
H502 H 0.59349 0.97827 0.50994 0.0
C503 C 0.45934 0.02734 0.53825 0.0
H504 H 0.569 0.98955 0.61956 0.0
C505 C 0.47343 0.02095 0.4753 0.0
C506 C 0.52179 1.00293 0.46374 0.0
H507 H 0.42153 0.04057 0.54514 0.0
H508 H 0.44602 0.02931 0.43552 0.0
C509 C 0.55568 0.9915 0.51683 0.0
C510 C 0.29044 0.23052 0.82007 0.0
C511 C 0.24498 0.24826 0.84265 0.0
H512 H 0.33761 0.22515 0.7429 0.0
C513 C 0.21217 0.27598 0.80254 0.0
H514 H 0.31625 0.20838 0.84908 0.0
C515 C 0.2244 0.28553 0.74151 0.0
C516 C 0.26982 0.26774 0.71894 0.0
H517 H 0.17727 0.29102 0.81868 0.0
H518 H 0.19856 0.30758 0.71241 0.0
C519 C 0.30269 0.24014 0.75908 0.0
C520 C 0.80622 0.26696 0.81285 0.0
C521 C 0.76636 0.24479 0.8401 0.0
H522 H 0.82994 0.29839 0.7309 0.0
C523 C 0.71864 0.23665 0.80272 0.0
H524 H 0.84324 0.27453 0.84069 0.0
C525 C 0.71106 0.25009 0.73953 0.0
C526 C 0.75093 0.27229 0.7122 0.0
H527 H 0.68733 0.21905 0.82192 0.0
H528 H 0.67408 0.2423 0.71172 0.0
C529 C 0.7986 0.2806 0.74979 0.0
C530 C 0.70129 0.74733 0.28575 0.0
C531 C 0.73932 0.74399 0.33793 0.0
H532 H 0.68386 0.75803 0.18566 0.0
C533 C 0.79056 0.75016 0.32769 0.0
H534 H 0.66148 0.74205 0.29167 0.0
C535 C 0.80343 0.75974 0.26698 0.0
C536 C 0.76543 0.7631 0.21466 0.0
H537 H 0.82077 0.74858 0.36704 0.0
H538 H 0.84326 0.76536 0.26143 0.0
C539 C 0.71417 0.75664 0.22492 0.0
C540 C 0.53588 0.52959 0.58732 0.0
C541 C 0.49617 0.495 0.59283 0.0
H542 H 0.57761 0.56759 0.52412 0.0
C543 C 0.46719 0.4725 0.53564 0.0
H544 H 0.55961 0.54702 0.63009 0.0
C545 C 0.47759 0.48426 0.47472 0.0
C546 C 0.51725 0.5189 0.46922 0.0
H547 H 0.43582 0.4463 0.53791 0.0
H548 H 0.45389 0.46683 0.43192 0.0
C549 C 0.54626 0.54137 0.5264 0.0
C550 C 0.05327 0.4805 1.0192 0.0
C551 C 0.02188 0.49713 0.96711 0.0
H552 H 0.06524 0.4757 0.12138 0.0
C553 C 0.97624 0.52104 0.9796 0.0
H554 H 0.089 0.46252 1.01142 0.0
C555 C 0.96243 0.52832 0.04263 0.0
C556 C 0.99399 0.51207 0.09489 0.0
H557 H 0.95075 0.53352 0.94046 0.0
H558 H 0.92667 0.54627 0.05025 0.0
C559 C 0.03955 0.48794 0.08228 0.0
loop_
_geom_bond_atom_site_label_1
_geom_bond_atom_site_label_2
_geom_bond_distance
_geom_bond_site_symmetry_2
_ccdc_geom_bond_type
Gd0 C3 2.818 1_655 S
Gd0 O20 2.377 1_665 S
Gd0 O22 2.448 1_655 S
Gd0 O23 2.506 . S
Gd0 O24 2.435 1_655 S
Gd0 O25 2.717 1_655 S
Gd0 O27 2.395 . S
Gd0 O31 2.327 1_565 S
Gd1 C12 2.818 1_455 S
Gd1 O21 2.395 . S
Gd1 O25 2.327 1_545 S
Gd1 O26 2.377 1_445 S
Gd1 O28 2.448 1_455 S
Gd1 O29 2.506 . S
Gd1 O30 2.435 1_455 S
Gd1 O31 2.717 1_455 S
C2 O20 1.240 . S
C2 O21 1.240 . S
C3 Gd0 2.818 1_455 S
C3 C4 1.510 . S
C3 O22 1.249 . S
C3 O23 1.252 1_455 S
C4 C3 1.510 . S
C4 C5 1.404 . S
C4 C6 1.352 . S
C5 C4 1.404 . S
C5 C9 1.389 . S
C5 H32 0.930 . S
C6 C4 1.352 . S
C6 C8 1.374 . S
C6 H33 0.931 1_465 S
C7 C8 1.359 . S
C7 C9 1.364 . S
C8 C6 1.374 . S
C8 C7 1.359 . S
C8 H34 0.934 1_565 S
C9 C5 1.389 . S
C9 C7 1.364 . S
C9 H35 0.931 . S
C10 O24 1.256 . S
C10 O25 1.257 . S
C11 O26 1.240 . S
C11 O27 1.240 . S
C12 Gd1 2.818 1_655 S
C12 C13 1.510 . S
C12 O28 1.249 . S
C12 O29 1.252 1_655 S
C13 C12 1.510 . S
C13 C14 1.404 . S
C13 C15 1.352 . S
C14 C13 1.404 . S
C14 C18 1.389 . S
C14 H36 0.930 . S
C15 C13 1.352 . S
C15 C17 1.374 . S
C15 H37 0.931 1_645 S
C16 C17 1.359 . S
C16 C18 1.364 . S
C17 C15 1.374 . S
C17 C16 1.359 . S
C17 H38 0.932 1_545 S
C18 C14 1.389 . S
C18 C16 1.364 . S
C18 H39 0.931 . S
C19 O30 1.256 . S
C19 O31 1.257 . S
O20 Gd0 2.377 1_445 S
O20 C2 1.240 . S
O21 Gd1 2.395 . S
O21 C2 1.240 . S
O22 Gd0 2.448 1_455 S
O22 C3 1.249 . S
O23 Gd0 2.506 . S
O23 C3 1.252 1_655 S
O24 Gd0 2.435 1_455 S
O24 C10 1.256 . S
O25 Gd0 2.717 1_455 S
O25 Gd1 2.327 1_565 S
O25 C10 1.257 . S
O26 Gd1 2.377 1_665 S
O26 C11 1.240 . S
O27 Gd0 2.395 . S
O27 C11 1.240 . S
O28 Gd1 2.448 1_655 S
O28 C12 1.249 . S
O29 Gd1 2.506 . S
O29 C12 1.252 1_455 S
O30 Gd1 2.435 1_655 S
O30 C19 1.256 . S
O31 Gd0 2.327 1_545 S
O31 Gd1 2.717 1_655 S
O31 C19 1.257 . S
H32 C5 0.930 . S
H33 C6 0.931 1_645 S
H34 C8 0.934 1_545 S
H35 C9 0.931 . S
H36 C14 0.930 . S
H37 C15 0.931 1_465 S
H38 C17 0.932 1_565 S
H39 C18 0.931 . S
Gd40 C43 2.818 . S
Gd40 O60 2.377 . S
Gd40 O62 2.448 . S
Gd40 O63 2.506 . S
Gd40 O64 2.435 . S
Gd40 O65 2.717 . S
Gd40 O67 2.395 . S
Gd40 O71 2.327 . S
Gd41 C52 2.818 . S
Gd41 O61 2.395 . S
Gd41 O65 2.327 . S
Gd41 O66 2.377 . S
Gd41 O68 2.448 . S
Gd41 O69 2.506 . S
Gd41 O70 2.435 . S
Gd41 O71 2.717 . S
C42 O60 1.240 . S
C42 O61 1.240 . S
C43 Gd40 2.818 . S
C43 C44 1.510 . S
C43 O62 1.249 . S
C43 O63 1.252 . S
C44 C43 1.510 . S
C44 C45 1.404 . S
C44 C46 1.352 . S
C45 C44 1.404 . S
C45 C49 1.389 . S
C45 H72 0.930 . S
C46 C44 1.352 . S
C46 C48 1.374 . S
C46 H73 0.931 . S
C47 C48 1.359 . S
C47 C49 1.364 . S
C48 C46 1.374 . S
C48 C47 1.359 . S
C48 H74 0.931 . S
C49 C45 1.389 . S
C49 C47 1.364 . S
C49 H75 0.931 . S
C50 O64 1.256 . S
C50 O65 1.257 . S
C51 O66 1.240 . S
C51 O67 1.240 . S
C52 Gd41 2.818 . S
C52 C53 1.510 1_556 S
C52 O68 1.249 . S
C52 O69 1.252 . S
C53 C52 1.510 1_554 S
C53 C54 1.404 . S
C53 C55 1.352 . S
C54 C53 1.404 . S
C54 C58 1.389 . S
C54 H76 0.930 1_554 S
C55 C53 1.352 . S
C55 C57 1.374 . S
C55 H77 0.931 . S
C56 C57 1.359 . S
C56 C58 1.364 . S
C57 C55 1.374 . S
C57 C56 1.359 . S
C57 H78 0.931 . S
C58 C54 1.389 . S
C58 C56 1.364 . S
C58 H79 0.931 . S
C59 O70 1.256 . S
C59 O71 1.257 . S
O60 Gd40 2.377 . S
O60 C42 1.240 . S
O61 Gd41 2.395 . S
O61 C42 1.240 . S
O62 Gd40 2.448 . S
O62 C43 1.249 . S
O63 Gd40 2.506 . S
O63 C43 1.252 . S
O64 Gd40 2.435 . S
O64 C50 1.256 . S
O65 Gd40 2.717 . S
O65 Gd41 2.327 . S
O65 C50 1.257 . S
O66 Gd41 2.377 . S
O66 C51 1.240 . S
O67 Gd40 2.395 . S
O67 C51 1.240 . S
O68 Gd41 2.448 . S
O68 C52 1.249 . S
O69 Gd41 2.506 . S
O69 C52 1.252 . S
O70 Gd41 2.435 . S
O70 C59 1.256 . S
O71 Gd40 2.327 . S
O71 Gd41 2.717 . S
O71 C59 1.257 . S
H72 C45 0.930 . S
H73 C46 0.931 . S
H74 C48 0.931 . S
H75 C49 0.931 . S
H76 C54 0.930 1_556 S
H77 C55 0.931 . S
H78 C57 0.931 . S
H79 C58 0.931 . S
Gd80 C83 2.818 . S
Gd80 O100 2.377 1_565 S
Gd80 O102 2.448 . S
Gd80 O103 2.506 1_565 S
Gd80 O104 2.435 . S
Gd80 O105 2.717 1_554 S
Gd80 O107 2.395 1_554 S
Gd80 O111 2.327 1_565 S
Gd81 C92 2.818 . S
Gd81 O101 2.395 1_556 S
Gd81 O105 2.327 1_545 S
Gd81 O106 2.377 1_545 S
Gd81 O108 2.448 . S
Gd81 O109 2.506 1_545 S
Gd81 O110 2.435 . S
Gd81 O111 2.717 1_556 S
C82 O100 1.240 . S
C82 O101 1.240 . S
C83 Gd80 2.818 . S
C83 C84 1.510 . S
C83 O102 1.249 . S
C83 O103 1.252 1_565 S
C84 C83 1.510 . S
C84 C85 1.404 . S
C84 C86 1.352 1_565 S
C85 C84 1.404 . S
C85 C89 1.389 . S
C85 H112 0.930 . S
C86 C84 1.352 1_545 S
C86 C88 1.374 . S
C86 H113 0.931 . S
C87 C88 1.359 1_565 S
C87 C89 1.364 . S
C88 C86 1.374 . S
C88 C87 1.359 1_545 S
C88 H114 0.931 . S
C89 C85 1.389 . S
C89 C87 1.364 . S
C89 H115 0.931 . S
C90 O104 1.256 1_556 S
C90 O105 1.257 . S
C91 O106 1.240 . S
C91 O107 1.240 . S
C92 Gd81 2.818 . S
C92 C93 1.510 . S
C92 O108 1.249 . S
C92 O109 1.252 1_545 S
C93 C92 1.510 . S
C93 C94 1.404 . S
C93 C95 1.352 1_545 S
C94 C93 1.404 . S
C94 C98 1.389 . S
C94 H116 0.930 . S
C95 C93 1.352 1_565 S
C95 C97 1.374 . S
C95 H117 0.931 . S
C96 C97 1.359 1_545 S
C96 C98 1.364 . S
C97 C95 1.374 . S
C97 C96 1.359 1_565 S
C97 H118 0.931 . S
C98 C94 1.389 . S
C98 C96 1.364 . S
C98 H119 0.931 . S
C99 O110 1.256 1_554 S
C99 O111 1.257 . S
O100 Gd80 2.377 1_545 S
O100 C82 1.240 . S
O101 Gd81 2.395 1_554 S
O101 C82 1.240 . S
O102 Gd80 2.448 . S
O102 C83 1.249 . S
O103 Gd80 2.506 1_545 S
O103 C83 1.252 1_545 S
O104 Gd80 2.435 . S
O104 C90 1.256 1_554 S
O105 Gd80 2.717 1_556 S
O105 Gd81 2.327 1_565 S
O105 C90 1.257 . S
O106 Gd81 2.377 1_565 S
O106 C91 1.240 . S
O107 Gd80 2.395 1_556 S
O107 C91 1.240 . S
O108 Gd81 2.448 . S
O108 C92 1.249 . S
O109 Gd81 2.506 1_565 S
O109 C92 1.252 1_565 S
O110 Gd81 2.435 . S
O110 C99 1.256 1_556 S
O111 Gd80 2.327 1_545 S
O111 Gd81 2.717 1_554 S
O111 C99 1.257 . S
H112 C85 0.930 . S
H113 C86 0.931 . S
H114 C88 0.931 . S
H115 C89 0.931 . S
H116 C94 0.930 . S
H117 C95 0.931 . S
H118 C97 0.931 . S
H119 C98 0.931 . S
Gd120 C123 2.818 . S
Gd120 O140 2.377 . S
Gd120 O142 2.448 . S
Gd120 O143 2.506 . S
Gd120 O144 2.435 . S
Gd120 O145 2.717 . S
Gd120 O147 2.395 . S
Gd120 O151 2.327 . S
Gd121 C132 2.818 . S
Gd121 O141 2.395 . S
Gd121 O145 2.327 . S
Gd121 O146 2.377 . S
Gd121 O148 2.448 . S
Gd121 O149 2.506 . S
Gd121 O150 2.435 . S
Gd121 O151 2.717 . S
C122 O140 1.240 . S
C122 O141 1.240 . S
C123 Gd120 2.818 . S
C123 C124 1.510 . S
C123 O142 1.249 . S
C123 O143 1.252 . S
C124 C123 1.510 . S
C124 C125 1.404 . S
C124 C126 1.352 . S
C125 C124 1.404 . S
C125 C129 1.389 . S
C125 H152 0.930 . S
C126 C124 1.352 . S
C126 C128 1.374 . S
C126 H153 0.931 . S
C127 C128 1.359 . S
C127 C129 1.364 . S
C128 C126 1.374 . S
C128 C127 1.359 . S
C128 H154 0.931 . S
C129 C125 1.389 . S
C129 C127 1.364 . S
C129 H155 0.931 . S
C130 O144 1.256 . S
C130 O145 1.257 . S
C131 O146 1.240 . S
C131 O147 1.240 . S
C132 Gd121 2.818 . S
C132 C133 1.510 1_554 S
C132 O148 1.249 . S
C132 O149 1.252 . S
C133 C132 1.510 1_556 S
C133 C134 1.404 . S
C133 C135 1.352 . S
C134 C133 1.404 . S
C134 C138 1.389 . S
C134 H156 0.930 . S
C135 C133 1.352 . S
C135 C137 1.374 . S
C135 H157 0.931 . S
C136 C137 1.359 . S
C136 C138 1.364 . S
C137 C135 1.374 . S
C137 C136 1.359 . S
C137 H158 0.931 . S
C138 C134 1.389 . S
C138 C136 1.364 . S
C138 H159 0.931 . S
C139 O150 1.256 . S
C139 O151 1.257 . S
O140 Gd120 2.377 . S
O140 C122 1.240 . S
O141 Gd121 2.395 . S
O141 C122 1.240 . S
O142 Gd120 2.448 . S
O142 C123 1.249 . S
O143 Gd120 2.506 . S
O143 C123 1.252 . S
O144 Gd120 2.435 . S
O144 C130 1.256 . S
O145 Gd120 2.717 . S
O145 Gd121 2.327 . S
O145 C130 1.257 . S
O146 Gd121 2.377 . S
O146 C131 1.240 . S
O147 Gd120 2.395 . S
O147 C131 1.240 . S
O148 Gd121 2.448 . S
O148 C132 1.249 . S
O149 Gd121 2.506 . S
O149 C132 1.252 . S
O150 Gd121 2.435 . S
O150 C139 1.256 . S
O151 Gd120 2.327 . S
O151 Gd121 2.717 . S
O151 C139 1.257 . S
H152 C125 0.930 . S
H153 C126 0.931 . S
H154 C128 0.931 . S
H155 C129 0.931 . S
H156 C134 0.930 . S
H157 C135 0.931 . S
H158 C137 0.931 . S
H159 C138 0.931 . S
Gd160 C163 2.818 . S
Gd160 O180 2.377 . S
Gd160 O182 2.448 . S
Gd160 O183 2.506 . S
Gd160 O184 2.435 . S
Gd160 O185 2.717 . S
Gd160 O187 2.395 . S
Gd160 O191 2.327 . S
Gd161 C172 2.818 . S
Gd161 O181 2.395 . S
Gd161 O185 2.327 . S
Gd161 O186 2.377 . S
Gd161 O188 2.448 . S
Gd161 O189 2.506 . S
Gd161 O190 2.435 . S
Gd161 O191 2.717 . S
C162 O180 1.240 . S
C162 O181 1.240 . S
C163 Gd160 2.818 . S
C163 C164 1.510 1_554 S
C163 O182 1.249 . S
C163 O183 1.252 . S
C164 C163 1.510 1_556 S
C164 C165 1.404 . S
C164 C166 1.352 . S
C165 C164 1.404 . S
C165 C169 1.389 . S
C165 H192 0.930 1_556 S
C166 C164 1.352 . S
C166 C168 1.374 . S
C166 H193 0.931 . S
C167 C168 1.359 . S
C167 C169 1.364 . S
C168 C166 1.374 . S
C168 C167 1.359 . S
C168 H194 0.931 . S
C169 C165 1.389 . S
C169 C167 1.364 . S
C169 H195 0.931 . S
C170 O184 1.256 . S
C170 O185 1.257 . S
C171 O186 1.240 . S
C171 O187 1.240 . S
C172 Gd161 2.818 . S
C172 C173 1.510 . S
C172 O188 1.249 . S
C172 O189 1.252 . S
C173 C172 1.510 . S
C173 C174 1.404 . S
C173 C175 1.352 . S
C174 C173 1.404 . S
C174 C178 1.389 . S
C174 H196 0.930 . S
C175 C173 1.352 . S
C175 C177 1.374 . S
C175 H197 0.931 . S
C176 C177 1.359 . S
C176 C178 1.364 . S
C177 C175 1.374 . S
C177 C176 1.359 . S
C177 H198 0.931 . S
C178 C174 1.389 . S
C178 C176 1.364 . S
C178 H199 0.931 . S
C179 O190 1.256 . S
C179 O191 1.257 . S
O180 Gd160 2.377 . S
O180 C162 1.240 . S
O181 Gd161 2.395 . S
O181 C162 1.240 . S
O182 Gd160 2.448 . S
O182 C163 1.249 . S
O183 Gd160 2.506 . S
O183 C163 1.252 . S
O184 Gd160 2.435 . S
O184 C170 1.256 . S
O185 Gd160 2.717 . S
O185 Gd161 2.327 . S
O185 C170 1.257 . S
O186 Gd161 2.377 . S
O186 C171 1.240 . S
O187 Gd160 2.395 . S
O187 C171 1.240 . S
O188 Gd161 2.448 . S
O188 C172 1.249 . S
O189 Gd161 2.506 . S
O189 C172 1.252 . S
O190 Gd161 2.435 . S
O190 C179 1.256 . S
O191 Gd160 2.327 . S
O191 Gd161 2.717 . S
O191 C179 1.257 . S
H192 C165 0.930 1_554 S
H193 C166 0.931 . S
H194 C168 0.931 . S
H195 C169 0.931 . S
H196 C174 0.930 . S
H197 C175 0.931 . S
H198 C177 0.931 . S
H199 C178 0.931 . S
Gd200 C203 2.818 . S
Gd200 O220 2.377 . S
Gd200 O222 2.448 . S
Gd200 O223 2.506 . S
Gd200 O224 2.435 . S
Gd200 O225 2.717 . S
Gd200 O227 2.395 . S
Gd200 O231 2.327 . S
Gd201 C212 2.818 . S
Gd201 O221 2.395 . S
Gd201 O225 2.327 . S
Gd201 O226 2.377 . S
Gd201 O228 2.448 . S
Gd201 O229 2.506 . S
Gd201 O230 2.435 . S
Gd201 O231 2.717 . S
C202 O220 1.240 . S
C202 O221 1.240 . S
C203 Gd200 2.818 . S
C203 C204 1.510 1_556 S
C203 O222 1.249 . S
C203 O223 1.252 . S
C204 C203 1.510 1_554 S
C204 C205 1.404 . S
C204 C206 1.352 . S
C205 C204 1.404 . S
C205 C209 1.389 . S
C205 H232 0.930 . S
C206 C204 1.352 . S
C206 C208 1.374 . S
C206 H233 0.931 . S
C207 C208 1.359 . S
C207 C209 1.364 . S
C208 C206 1.374 . S
C208 C207 1.359 . S
C208 H234 0.931 . S
C209 C205 1.389 . S
C209 C207 1.364 . S
C209 H235 0.931 . S
C210 O224 1.256 . S
C210 O225 1.257 . S
C211 O226 1.240 . S
C211 O227 1.240 . S
C212 Gd201 2.818 . S
C212 C213 1.510 . S
C212 O228 1.249 . S
C212 O229 1.252 . S
C213 C212 1.510 . S
C213 C214 1.404 . S
C213 C215 1.352 . S
C214 C213 1.404 . S
C214 C218 1.389 . S
C214 H236 0.930 . S
C215 C213 1.352 . S
C215 C217 1.374 . S
C215 H237 0.931 . S
C216 C217 1.359 . S
C216 C218 1.364 . S
C217 C215 1.374 . S
C217 C216 1.359 . S
C217 H238 0.931 . S
C218 C214 1.389 . S
C218 C216 1.364 . S
C218 H239 0.931 . S
C219 O230 1.256 . S
C219 O231 1.257 . S
O220 Gd200 2.377 . S
O220 C202 1.240 . S
O221 Gd201 2.395 . S
O221 C202 1.240 . S
O222 Gd200 2.448 . S
O222 C203 1.249 . S
O223 Gd200 2.506 . S
O223 C203 1.252 . S
O224 Gd200 2.435 . S
O224 C210 1.256 . S
O225 Gd200 2.717 . S
O225 Gd201 2.327 . S
O225 C210 1.257 . S
O226 Gd201 2.377 . S
O226 C211 1.240 . S
O227 Gd200 2.395 . S
O227 C211 1.240 . S
O228 Gd201 2.448 . S
O228 C212 1.249 . S
O229 Gd201 2.506 . S
O229 C212 1.252 . S
O230 Gd201 2.435 . S
O230 C219 1.256 . S
O231 Gd200 2.327 . S
O231 Gd201 2.717 . S
O231 C219 1.257 . S
H232 C205 0.930 . S
H233 C206 0.931 . S
H234 C208 0.931 . S
H235 C209 0.931 . S
H236 C214 0.930 . S
H237 C215 0.931 . S
H238 C217 0.931 . S
H239 C218 0.931 . S
Gd240 C243 2.818 . S
Gd240 O260 2.377 . S
Gd240 O262 2.448 . S
Gd240 O263 2.506 . S
Gd240 O264 2.435 . S
Gd240 O265 2.717 1_556 S
Gd240 O267 2.395 . S
Gd240 O271 2.327 . S
Gd241 C252 2.818 . S
Gd241 O261 2.395 . S
Gd241 O265 2.327 . S
Gd241 O266 2.377 . S
Gd241 O268 2.448 . S
Gd241 O269 2.506 . S
Gd241 O270 2.435 . S
Gd241 O271 2.717 1_554 S
C242 O260 1.240 . S
C242 O261 1.240 1_556 S
C243 Gd240 2.818 . S
C243 C244 1.510 . S
C243 O262 1.249 . S
C243 O263 1.252 . S
C244 C243 1.510 . S
C244 C245 1.404 . S
C244 C246 1.352 . S
C245 C244 1.404 . S
C245 C249 1.389 . S
C245 H272 0.930 . S
C246 C244 1.352 . S
C246 C248 1.374 . S
C246 H273 0.931 . S
C247 C248 1.359 . S
C247 C249 1.364 . S
C248 C246 1.374 . S
C248 C247 1.359 . S
C248 H274 0.931 . S
C249 C245 1.389 . S
C249 C247 1.364 . S
C249 H275 0.931 . S
C250 O264 1.256 1_554 S
C250 O265 1.257 . S
C251 O266 1.240 . S
C251 O267 1.240 1_554 S
C252 Gd241 2.818 . S
C252 C253 1.510 . S
C252 O268 1.249 . S
C252 O269 1.252 . S
C253 C252 1.510 . S
C253 C254 1.404 . S
C253 C255 1.352 . S
C254 C253 1.404 . S
C254 C258 1.389 . S
C254 H276 0.930 . S
C255 C253 1.352 . S
C255 C257 1.374 . S
C255 H277 0.931 . S
C256 C257 1.359 . S
C256 C258 1.364 . S
C257 C255 1.374 . S
C257 C256 1.359 . S
C257 H278 0.931 . S
C258 C254 1.389 . S
C258 C256 1.364 . S
C258 H279 0.931 . S
C259 O270 1.256 1_556 S
C259 O271 1.257 . S
O260 Gd240 2.377 . S
O260 C242 1.240 . S
O261 Gd241 2.395 . S
O261 C242 1.240 1_554 S
O262 Gd240 2.448 . S
O262 C243 1.249 . S
O263 Gd240 2.506 . S
O263 C243 1.252 . S
O264 Gd240 2.435 . S
O264 C250 1.256 1_556 S
O265 Gd240 2.717 1_554 S
O265 Gd241 2.327 . S
O265 C250 1.257 . S
O266 Gd241 2.377 . S
O266 C251 1.240 . S
O267 Gd240 2.395 . S
O267 C251 1.240 1_556 S
O268 Gd241 2.448 . S
O268 C252 1.249 . S
O269 Gd241 2.506 . S
O269 C252 1.252 . S
O270 Gd241 2.435 . S
O270 C259 1.256 1_554 S
O271 Gd240 2.327 . S
O271 Gd241 2.717 1_556 S
O271 C259 1.257 . S
H272 C245 0.930 . S
H273 C246 0.931 . S
H274 C248 0.931 . S
H275 C249 0.931 . S
H276 C254 0.930 . S
H277 C255 0.931 . S
H278 C257 0.931 . S
H279 C258 0.931 . S
Gd280 C283 2.818 1_455 S
Gd280 O300 2.377 1_455 S
Gd280 O302 2.448 1_455 S
Gd280 O303 2.506 . S
Gd280 O304 2.435 1_455 S
Gd280 O305 2.717 1_455 S
Gd280 O307 2.395 . S
Gd280 O311 2.327 . S
Gd281 C292 2.818 1_655 S
Gd281 O301 2.395 . S
Gd281 O305 2.327 . S
Gd281 O306 2.377 1_655 S
Gd281 O308 2.448 1_655 S
Gd281 O309 2.506 . S
Gd281 O310 2.435 1_655 S
Gd281 O311 2.717 1_655 S
C282 O300 1.240 . S
C282 O301 1.240 . S
C283 Gd280 2.818 1_655 S
C283 C284 1.510 . S
C283 O302 1.249 . S
C283 O303 1.252 1_655 S
C284 C283 1.510 . S
C284 C285 1.404 . S
C284 C286 1.356 . S
C285 C284 1.404 . S
C285 C289 1.389 . S
C285 H312 0.930 . S
C286 C284 1.356 . S
C286 C288 1.381 . S
C286 H313 0.919 1_655 S
C287 C288 1.359 . S
C287 C289 1.364 . S
C288 C286 1.381 . S
C288 C287 1.359 . S
C288 H314 0.929 1_655 S
C289 C285 1.389 . S
C289 C287 1.364 . S
C289 H315 0.931 . S
C290 O304 1.256 . S
C290 O305 1.257 . S
C291 O306 1.240 . S
C291 O307 1.240 . S
C292 Gd281 2.818 1_455 S
C292 C293 1.510 . S
C292 O308 1.249 . S
C292 O309 1.252 1_455 S
C293 C292 1.510 . S
C293 C294 1.404 . S
C293 C295 1.352 . S
C294 C293 1.404 . S
C294 C298 1.389 . S
C294 H316 0.930 . S
C295 C293 1.352 . S
C295 C297 1.374 . S
C295 H317 0.931 1_455 S
C296 C297 1.359 . S
C296 C298 1.364 . S
C297 C295 1.374 . S
C297 C296 1.359 . S
C297 H318 0.930 1_455 S
C298 C294 1.389 . S
C298 C296 1.364 . S
C298 H319 0.931 . S
C299 O310 1.256 . S
C299 O311 1.257 . S
O300 Gd280 2.377 1_655 S
O300 C282 1.240 . S
O301 Gd281 2.395 . S
O301 C282 1.240 . S
O302 Gd280 2.448 1_655 S
O302 C283 1.249 . S
O303 Gd280 2.506 . S
O303 C283 1.252 1_455 S
O304 Gd280 2.435 1_655 S
O304 C290 1.256 . S
O305 Gd280 2.717 1_655 S
O305 Gd281 2.327 . S
O305 C290 1.257 . S
O306 Gd281 2.377 1_455 S
O306 C291 1.240 . S
O307 Gd280 2.395 . S
O307 C291 1.240 . S
O308 Gd281 2.448 1_455 S
O308 C292 1.249 . S
O309 Gd281 2.506 . S
O309 C292 1.252 1_655 S
O310 Gd281 2.435 1_455 S
O310 C299 1.256 . S
O311 Gd280 2.327 . S
O311 Gd281 2.717 1_455 S
O311 C299 1.257 . S
H312 C285 0.930 . S
H313 C286 0.919 1_455 S
H314 C288 0.929 1_455 S
H315 C289 0.931 . S
H316 C294 0.930 . S
H317 C295 0.931 1_655 S
H318 C297 0.930 1_655 S
H319 C298 0.931 . S
C320 C321 1.387 . S
C320 H324 0.950 . S
C320 C329 1.390 . S
C321 C320 1.387 . S
C321 C323 1.387 . S
H322 C329 0.950 . S
C323 C321 1.387 . S
C323 C325 1.390 . S
C323 H327 0.950 . S
H324 C320 0.950 . S
C325 C323 1.390 . S
C325 C326 1.387 . S
C325 H328 0.950 . S
C326 C325 1.387 . S
C326 C329 1.387 . S
H327 C323 0.950 . S
H328 C325 0.950 . S
C329 C320 1.390 . S
C329 H322 0.950 . S
C329 C326 1.387 . S
C330 C331 1.387 . S
C330 H334 0.950 . S
C330 C339 1.390 . S
C331 C330 1.387 . S
C331 C333 1.387 . S
H332 C339 0.950 . S
C333 C331 1.387 . S
C333 C335 1.390 . S
C333 H337 0.950 . S
H334 C330 0.950 . S
C335 C333 1.390 . S
C335 C336 1.387 . S
C335 H338 0.950 . S
C336 C335 1.387 . S
C336 C339 1.387 . S
H337 C333 0.950 . S
H338 C335 0.950 . S
C339 C330 1.390 . S
C339 H332 0.950 . S
C339 C336 1.387 . S
C340 C341 1.387 . S
C340 H344 0.950 . S
C340 C349 1.390 . S
C341 C340 1.387 . S
C341 C343 1.387 . S
H342 C349 0.950 . S
C343 C341 1.387 . S
C343 C345 1.390 . S
C343 H347 0.950 . S
H344 C340 0.950 . S
C345 C343 1.390 . S
C345 C346 1.387 . S
C345 H348 0.950 . S
C346 C345 1.387 . S
C346 C349 1.387 . S
H347 C343 0.950 . S
H348 C345 0.950 . S
C349 C340 1.390 . S
C349 H342 0.950 . S
C349 C346 1.387 . S
C350 C351 1.387 . S
C350 H354 0.950 . S
C350 C359 1.390 . S
C351 C350 1.387 . S
C351 C353 1.387 . S
H352 C359 0.950 . S
C353 C351 1.387 . S
C353 C355 1.390 . S
C353 H357 0.950 . S
H354 C350 0.950 . S
C355 C353 1.390 . S
C355 C356 1.387 . S
C355 H358 0.950 . S
C356 C355 1.387 . S
C356 C359 1.387 . S
H357 C353 0.950 . S
H358 C355 0.950 . S
C359 C350 1.390 . S
C359 H352 0.950 . S
C359 C356 1.387 . S
C360 C361 1.387 . S
C360 H364 0.950 . S
C360 C369 1.390 . S
C361 C360 1.387 . S
C361 C363 1.387 . S
H362 C369 0.950 . S
C363 C361 1.387 . S
C363 C365 1.390 . S
C363 H367 0.950 . S
H364 C360 0.950 . S
C365 C363 1.390 . S
C365 C366 1.387 . S
C365 H368 0.950 . S
C366 C365 1.387 . S
C366 C369 1.387 . S
H367 C363 0.950 . S
H368 C365 0.950 . S
C369 C360 1.390 . S
C369 H362 0.950 . S
C369 C366 1.387 . S
C370 C371 1.387 . S
C370 H374 0.950 . S
C370 C379 1.390 . S
C371 C370 1.387 . S
C371 C373 1.387 . S
H372 C379 0.950 . S
C373 C371 1.387 . S
C373 C375 1.390 . S
C373 H377 0.950 . S
H374 C370 0.950 . S
C375 C373 1.390 . S
C375 C376 1.387 . S
C375 H378 0.950 . S
C376 C375 1.387 . S
C376 C379 1.387 . S
H377 C373 0.950 . S
H378 C375 0.950 . S
C379 C370 1.390 . S
C379 H372 0.950 . S
C379 C376 1.387 . S
C380 C381 1.387 . S
C380 H384 0.950 . S
C380 C389 1.390 . S
C381 C380 1.387 . S
C381 C383 1.387 . S
H382 C389 0.950 . S
C383 C381 1.387 . S
C383 C385 1.390 . S
C383 H387 0.950 . S
H384 C380 0.950 . S
C385 C383 1.390 . S
C385 C386 1.387 . S
C385 H388 0.950 . S
C386 C385 1.387 . S
C386 C389 1.387 . S
H387 C383 0.950 . S
H388 C385 0.950 . S
C389 C380 1.390 . S
C389 H382 0.950 . S
C389 C386 1.387 . S
C390 C391 1.387 . S
C390 H394 0.950 . S
C390 C399 1.390 . S
C391 C390 1.387 . S
C391 C393 1.387 . S
H392 C399 0.950 . S
C393 C391 1.387 . S
C393 C395 1.390 . S
C393 H397 0.950 . S
H394 C390 0.950 . S
C395 C393 1.390 . S
C395 C396 1.387 . S
C395 H398 0.950 . S
C396 C395 1.387 . S
C396 C399 1.387 . S
H397 C393 0.950 . S
H398 C395 0.950 . S
C399 C390 1.390 . S
C399 H392 0.950 . S
C399 C396 1.387 . S
C400 C401 1.387 . S
C400 H404 0.950 . S
C400 C409 1.390 . S
C401 C400 1.387 . S
C401 C403 1.387 . S
H402 C409 0.950 . S
C403 C401 1.387 . S
C403 C405 1.390 . S
C403 H407 0.950 . S
H404 C400 0.950 . S
C405 C403 1.390 . S
C405 C406 1.387 . S
C405 H408 0.950 . S
C406 C405 1.387 . S
C406 C409 1.387 . S
H407 C403 0.950 . S
H408 C405 0.950 . S
C409 C400 1.390 . S
C409 H402 0.950 . S
C409 C406 1.387 . S
C410 C411 1.387 . S
C410 H414 0.950 . S
C410 C419 1.390 . S
C411 C410 1.387 . S
C411 C413 1.387 . S
H412 C419 0.950 . S
C413 C411 1.387 . S
C413 C415 1.390 . S
C413 H417 0.950 . S
H414 C410 0.950 . S
C415 C413 1.390 . S
C415 C416 1.387 . S
C415 H418 0.950 . S
C416 C415 1.387 . S
C416 C419 1.387 . S
H417 C413 0.950 . S
H418 C415 0.950 . S
C419 C410 1.390 . S
C419 H412 0.950 . S
C419 C416 1.387 . S
C420 C421 1.387 . S
C420 H424 0.950 . S
C420 C429 1.390 . S
C421 C420 1.387 . S
C421 C423 1.387 . S
H422 C429 0.950 . S
C423 C421 1.387 . S
C423 C425 1.390 . S
C423 H427 0.950 . S
H424 C420 0.950 . S
C425 C423 1.390 . S
C425 C426 1.387 . S
C425 H428 0.950 . S
C426 C425 1.387 . S
C426 C429 1.387 . S
H427 C423 0.950 . S
H428 C425 0.950 . S
C429 C420 1.390 . S
C429 H422 0.950 . S
C429 C426 1.387 . S
C430 C431 1.387 . S
C430 H434 0.950 . S
C430 C439 1.390 . S
C431 C430 1.387 . S
C431 C433 1.387 . S
H432 C439 0.950 . S
C433 C431 1.387 . S
C433 C435 1.390 . S
C433 H437 0.950 . S
H434 C430 0.950 . S
C435 C433 1.390 . S
C435 C436 1.387 . S
C435 H438 0.950 . S
C436 C435 1.387 . S
C436 C439 1.387 . S
H437 C433 0.950 . S
H438 C435 0.950 . S
C439 C430 1.390 . S
C439 H432 0.950 . S
C439 C436 1.387 . S
C440 C441 1.387 . S
C440 H444 0.950 . S
C440 C449 1.390 . S
C441 C440 1.387 . S
C441 C443 1.387 . S
H442 C449 0.950 . S
C443 C441 1.387 . S
C443 C445 1.390 . S
C443 H447 0.950 . S
H444 C440 0.950 . S
C445 C443 1.390 . S
C445 C446 1.387 . S
C445 H448 0.950 . S
C446 C445 1.387 . S
C446 C449 1.387 . S
H447 C443 0.950 . S
H448 C445 0.950 . S
C449 C440 1.390 . S
C449 H442 0.950 . S
C449 C446 1.387 . S
C450 C451 1.387 . S
C450 H454 0.950 . S
C450 C459 1.390 . S
C451 C450 1.387 . S
C451 C453 1.387 . S
H452 C459 0.950 . S
C453 C451 1.387 . S
C453 C455 1.390 . S
C453 H457 0.950 . S
H454 C450 0.950 . S
C455 C453 1.390 . S
C455 C456 1.387 . S
C455 H458 0.950 . S
C456 C455 1.387 . S
C456 C459 1.387 . S
H457 C453 0.950 . S
H458 C455 0.950 . S
C459 C450 1.390 . S
C459 H452 0.950 . S
C459 C456 1.387 . S
C460 C461 1.387 . S
C460 H464 0.950 . S
C460 C469 1.390 . S
C461 C460 1.387 . S
C461 C463 1.387 . S
H462 C469 0.950 . S
C463 C461 1.387 . S
C463 C465 1.390 . S
C463 H467 0.950 . S
H464 C460 0.950 . S
C465 C463 1.390 . S
C465 C466 1.387 . S
C465 H468 0.950 . S
C466 C465 1.387 . S
C466 C469 1.387 . S
H467 C463 0.950 . S
H468 C465 0.950 . S
C469 C460 1.390 . S
C469 H462 0.950 . S
C469 C466 1.387 . S
C470 C471 1.387 . S
C470 H474 0.950 . S
C470 C479 1.390 . S
C471 C470 1.387 . S
C471 C473 1.387 . S
H472 C479 0.950 . S
C473 C471 1.387 . S
C473 C475 1.390 . S
C473 H477 0.950 . S
H474 C470 0.950 . S
C475 C473 1.390 . S
C475 C476 1.387 . S
C475 H478 0.950 . S
C476 C475 1.387 . S
C476 C479 1.387 . S
H477 C473 0.950 . S
H478 C475 0.950 . S
C479 C470 1.390 . S
C479 H472 0.950 . S
C479 C476 1.387 . S
C480 C481 1.387 1_554 S
C480 H484 0.950 . S
C480 C489 1.390 1_655 S
C481 C480 1.387 1_556 S
C481 C483 1.387 1_545 S
H482 C489 0.950 . S
C483 C481 1.387 1_565 S
C483 C485 1.390 1_655 S
C483 H487 0.950 . S
H484 C480 0.950 . S
C485 C483 1.390 1_455 S
C485 C486 1.387 1_556 S
C485 H488 0.950 . S
C486 C485 1.387 1_554 S
C486 C489 1.387 1_565 S
H487 C483 0.950 . S
H488 C485 0.950 . S
C489 C480 1.390 1_455 S
C489 H482 0.950 . S
C489 C486 1.387 1_545 S
C490 C491 1.387 . S
C490 H494 0.950 . S
C490 C499 1.390 . S
C491 C490 1.387 . S
C491 C493 1.387 . S
H492 C499 0.950 . S
C493 C491 1.387 . S
C493 C495 1.390 . S
C493 H497 0.950 . S
H494 C490 0.950 . S
C495 C493 1.390 . S
C495 C496 1.387 . S
C495 H498 0.950 . S
C496 C495 1.387 . S
C496 C499 1.387 . S
H497 C493 0.950 . S
H498 C495 0.950 . S
C499 C490 1.390 . S
C499 H492 0.950 . S
C499 C496 1.387 . S
C500 C501 1.387 1_565 S
C500 H504 0.950 . S
C500 C509 1.390 . S
C501 C500 1.387 1_545 S
C501 C503 1.387 . S
H502 C509 0.950 . S
C503 C501 1.387 . S
C503 C505 1.390 . S
C503 H507 0.950 . S
H504 C500 0.950 . S
C505 C503 1.390 . S
C505 C506 1.387 1_545 S
C505 H508 0.950 . S
C506 C505 1.387 1_565 S
C506 C509 1.387 . S
H507 C503 0.950 . S
H508 C505 0.950 . S
C509 C500 1.390 . S
C509 H502 0.950 . S
C509 C506 1.387 . S
C510 C511 1.387 . S
C510 H514 0.950 . S
C510 C519 1.390 . S
C511 C510 1.387 . S
C511 C513 1.387 . S
H512 C519 0.950 . S
C513 C511 1.387 . S
C513 C515 1.390 . S
C513 H517 0.950 . S
H514 C510 0.950 . S
C515 C513 1.390 . S
C515 C516 1.387 . S
C515 H518 0.950 . S
C516 C515 1.387 . S
C516 C519 1.387 . S
H517 C513 0.950 . S
H518 C515 0.950 . S
C519 C510 1.390 . S
C519 H512 0.950 . S
C519 C516 1.387 . S
C520 C521 1.387 . S
C520 H524 0.950 . S
C520 C529 1.390 . S
C521 C520 1.387 . S
C521 C523 1.387 . S
H522 C529 0.950 . S
C523 C521 1.387 . S
C523 C525 1.390 . S
C523 H527 0.950 . S
H524 C520 0.950 . S
C525 C523 1.390 . S
C525 C526 1.387 . S
C525 H528 0.950 . S
C526 C525 1.387 . S
C526 C529 1.387 . S
H527 C523 0.950 . S
H528 C525 0.950 . S
C529 C520 1.390 . S
C529 H522 0.950 . S
C529 C526 1.387 . S
C530 C531 1.387 . S
C530 H534 0.950 . S
C530 C539 1.390 . S
C531 C530 1.387 . S
C531 C533 1.387 . S
H532 C539 0.950 . S
C533 C531 1.387 . S
C533 C535 1.390 . S
C533 H537 0.950 . S
H534 C530 0.950 . S
C535 C533 1.390 . S
C535 C536 1.387 . S
C535 H538 0.950 . S
C536 C535 1.387 . S
C536 C539 1.387 . S
H537 C533 0.950 . S
H538 C535 0.950 . S
C539 C530 1.390 . S
C539 H532 0.950 . S
C539 C536 1.387 . S
C540 C541 1.387 . S
C540 H544 0.950 . S
C540 C549 1.390 . S
C541 C540 1.387 . S
C541 C543 1.387 . S
H542 C549 0.950 . S
C543 C541 1.387 . S
C543 C545 1.390 . S
C543 H547 0.950 . S
H544 C540 0.950 . S
C545 C543 1.390 . S
C545 C546 1.387 . S
C545 H548 0.950 . S
C546 C545 1.387 . S
C546 C549 1.387 . S
H547 C543 0.950 . S
H548 C545 0.950 . S
C549 C540 1.390 . S
C549 H542 0.950 . S
C549 C546 1.387 . S
C550 C551 1.387 . S
C550 H554 0.950 . S
C550 C559 1.390 1_656 S
C551 C550 1.387 . S
C551 C553 1.387 . S
H552 C559 0.950 . S
C553 C551 1.387 . S
C553 C555 1.390 1_656 S
C553 H557 0.950 . S
H554 C550 0.950 . S
C555 C553 1.390 1_454 S
C555 C556 1.387 . S
C555 H558 0.950 . S
C556 C555 1.387 . S
C556 C559 1.387 . S
H557 C553 0.950 . S
H558 C555 0.950 . S
C559 C550 1.390 1_454 S
C559 H552 0.950 . S
C559 C556 1.387 . S
C321 C2 1.934 . S
C326 C122 1.933 . S
C331 C10 1.545 . S
C336 C42 1.560 . S
C341 C50 1.082 . S
C346 C90 1.084 . S
C351 C82 1.561 . S
C356 C130 1.546 . S
C361 C11 1.934 . S
C366 C211 1.934 . S
C371 C19 1.546 . S
C376 C171 1.561 . S
C381 C179 1.083 . S
C386 C99 1.083 . S
C391 C219 1.545 . S
C396 C91 1.560 . S
C401 C242 1.934 . S
C406 C202 1.934 . S
C411 C162 1.560 . S
C416 C250 1.545 . S
C421 C290 1.083 . S
C426 C170 1.084 . S
C431 C210 1.544 . S
C436 C282 1.560 . S
C441 C131 1.934 . S
C446 C251 1.934 . S
C451 C259 1.545 . S
C456 C51 1.560 . S
C461 C59 1.084 . S
C466 C299 1.082 . S
C471 C139 1.546 . S
C476 C291 1.561 . S
C481 C16 1.829 . S
C486 C7 1.829 . S
C491 C47 1.486 . S
C496 C56 1.486 . S
C501 C96 1.490 . S
C506 C87 1.490 . S
C511 C136 1.828 . S
C516 C127 1.828 . S
C521 C167 1.490 . S
C526 C176 1.490 . S
C531 C216 1.829 . S
C536 C207 1.829 . S
C541 C247 1.829 . S
C546 C256 1.829 . S
C551 C287 1.490 . S
C556 C296 1.490 . S
