# Generated by pormake.
# Topology fnj, (5)-cn, num edge types: 1
# Building blocks:
#     Node 0, Type 0, BuildingBlock: BEQFEK_clean_sbu_0, # of connection points: 5
#     Node 1, Type 0, BuildingBlock: BEQFEK_clean_sbu_0, # of connection points: 5
#     Node 2, Type 0, BuildingBlock: BEQFEK_clean_sbu_0, # of connection points: 5
#     Node 3, Type 0, BuildingBlock: BEQFEK_clean_sbu_0, # of connection points: 5
#     Node 4, Type 0, BuildingBlock: BEQFEK_clean_sbu_0, # of connection points: 5
#     Node 5, Type 0, BuildingBlock: BEQFEK_clean_sbu_0, # of connection points: 5
#     Node 6, Type 0, BuildingBlock: BEQFEK_clean_sbu_0, # of connection points: 5
#     Node 7, Type 0, BuildingBlock: BEQFEK_clean_sbu_0, # of connection points: 5
#     Node 8, Type 0, BuildingBlock: BEQFEK_clean_sbu_0, # of connection points: 5
#     Node 9, Type 0, BuildingBlock: BEQFEK_clean_sbu_0, # of connection points: 5
#     Node 10, Type 0, BuildingBlock: BEQFEK_clean_sbu_0, # of connection points: 5
#     Node 11, Type 0, BuildingBlock: BEQFEK_clean_sbu_0, # of connection points: 5
#     Node 12, Type 0, BuildingBlock: BEQFEK_clean_sbu_0, # of connection points: 5
#     Node 13, Type 0, BuildingBlock: BEQFEK_clean_sbu_0, # of connection points: 5
#     Node 14, Type 0, BuildingBlock: BEQFEK_clean_sbu_0, # of connection points: 5
#     Node 15, Type 0, BuildingBlock: BEQFEK_clean_sbu_0, # of connection points: 5
#     Edge 16, Type (0, 0), BuildingBlock: UVAHIK_clean_linker_0, # of connection points: 2
#     Edge 17, Type (0, 0), BuildingBlock: UVAHIK_clean_linker_0, # of connection points: 2
#     Edge 18, Type (0, 0), BuildingBlock: UVAHIK_clean_linker_0, # of connection points: 2
#     Edge 19, Type (0, 0), BuildingBlock: UVAHIK_clean_linker_0, # of connection points: 2
#     Edge 20, Type (0, 0), BuildingBlock: UVAHIK_clean_linker_0, # of connection points: 2
#     Edge 21, Type (0, 0), BuildingBlock: UVAHIK_clean_linker_0, # of connection points: 2
#     Edge 22, Type (0, 0), BuildingBlock: UVAHIK_clean_linker_0, # of connection points: 2
#     Edge 23, Type (0, 0), BuildingBlock: UVAHIK_clean_linker_0, # of connection points: 2
#     Edge 24, Type (0, 0), BuildingBlock: UVAHIK_clean_linker_0, # of connection points: 2
#     Edge 25, Type (0, 0), BuildingBlock: UVAHIK_clean_linker_0, # of connection points: 2
#     Edge 26, Type (0, 0), BuildingBlock: UVAHIK_clean_linker_0, # of connection points: 2
#     Edge 27, Type (0, 0), BuildingBlock: UVAHIK_clean_linker_0, # of connection points: 2
#     Edge 28, Type (0, 0), BuildingBlock: UVAHIK_clean_linker_0, # of connection points: 2
#     Edge 29, Type (0, 0), BuildingBlock: UVAHIK_clean_linker_0, # of connection points: 2
#     Edge 30, Type (0, 0), BuildingBlock: UVAHIK_clean_linker_0, # of connection points: 2
#     Edge 31, Type (0, 0), BuildingBlock: UVAHIK_clean_linker_0, # of connection points: 2
#     Edge 32, Type (0, 0), BuildingBlock: UVAHIK_clean_linker_0, # of connection points: 2
#     Edge 33, Type (0, 0), BuildingBlock: UVAHIK_clean_linker_0, # of connection points: 2
#     Edge 34, Type (0, 0), BuildingBlock: UVAHIK_clean_linker_0, # of connection points: 2
#     Edge 35, Type (0, 0), BuildingBlock: UVAHIK_clean_linker_0, # of connection points: 2
#     Edge 36, Type (0, 0), BuildingBlock: UVAHIK_clean_linker_0, # of connection points: 2
#     Edge 37, Type (0, 0), BuildingBlock: UVAHIK_clean_linker_0, # of connection points: 2
#     Edge 38, Type (0, 0), BuildingBlock: UVAHIK_clean_linker_0, # of connection points: 2
#     Edge 39, Type (0, 0), BuildingBlock: UVAHIK_clean_linker_0, # of connection points: 2
#     Edge 40, Type (0, 0), BuildingBlock: UVAHIK_clean_linker_0, # of connection points: 2
#     Edge 41, Type (0, 0), BuildingBlock: UVAHIK_clean_linker_0, # of connection points: 2
#     Edge 42, Type (0, 0), BuildingBlock: UVAHIK_clean_linker_0, # of connection points: 2
#     Edge 43, Type (0, 0), BuildingBlock: UVAHIK_clean_linker_0, # of connection points: 2
#     Edge 44, Type (0, 0), BuildingBlock: UVAHIK_clean_linker_0, # of connection points: 2
#     Edge 45, Type (0, 0), BuildingBlock: UVAHIK_clean_linker_0, # of connection points: 2
#     Edge 46, Type (0, 0), BuildingBlock: UVAHIK_clean_linker_0, # of connection points: 2
#     Edge 47, Type (0, 0), BuildingBlock: UVAHIK_clean_linker_0, # of connection points: 2
#     Edge 48, Type (0, 0), BuildingBlock: UVAHIK_clean_linker_0, # of connection points: 2
#     Edge 49, Type (0, 0), BuildingBlock: UVAHIK_clean_linker_0, # of connection points: 2
#     Edge 50, Type (0, 0), BuildingBlock: UVAHIK_clean_linker_0, # of connection points: 2
#     Edge 51, Type (0, 0), BuildingBlock: UVAHIK_clean_linker_0, # of connection points: 2
#     Edge 52, Type (0, 0), BuildingBlock: UVAHIK_clean_linker_0, # of connection points: 2
#     Edge 53, Type (0, 0), BuildingBlock: UVAHIK_clean_linker_0, # of connection points: 2
#     Edge 54, Type (0, 0), BuildingBlock: UVAHIK_clean_linker_0, # of connection points: 2
#     Edge 55, Type (0, 0), BuildingBlock: UVAHIK_clean_linker_0, # of connection points: 2
# Relax obj value: 0.128
# Max RMSD: 0.155
# Mean RMSD: 0.155
data_MOF--net-fnj--node1-BEQFEK_clean_sbu_0--edge1-UVAHIK_clean_linker_0
_symmetry_space_group_name_H-M    P1
_symmetry_Int_Tables_number       1
_symmetry_cell_setting            triclinic
loop_
_symmetry_equiv_pos_as_xyz
'x, y, z'
_cell_length_a     95.426004
_cell_length_b     95.409925
_cell_length_c     23.247038
_cell_angle_alpha  89.959344
_cell_angle_beta   90.005261
_cell_angle_gamma 101.28872
loop_
_atom_site_label
_atom_site_type_symbol
_atom_site_fract_x
_atom_site_fract_y
_atom_site_fract_z
_atom_type_partial_charge
Co0 Co 0.38892 0.04203 0.99086 0.0
Co1 Co 0.38588 0.0309 0.11693 0.0
C2 C 0.37652 0.05814 0.07839 0.0
O3 O 0.38068 0.05734 0.02667 0.0
O4 O 0.3778 0.04861 0.11533 0.0
C5 C 0.39753 0.05732 0.881 0.0
O6 O 0.40047 0.06969 0.90756 0.0
C7 C 0.39357 0.03407 0.2383 0.0
C8 C 0.38561 0.01231 0.27191 0.0
C9 C 0.39265 0.02587 0.28814 0.0
N10 N 0.38749 0.02569 0.19506 0.0
N11 N 0.38276 0.01269 0.21535 0.0
C12 C 0.39965 0.04969 0.23144 0.0
H13 H 0.39642 0.05582 0.26804 0.0
H14 H 0.39617 0.05384 0.19058 0.0
H15 H 0.41148 0.05137 0.23032 0.0
C16 C 0.41913 0.03992 0.01181 0.0
N17 N 0.40554 0.03907 0.02949 0.0
N18 N 0.40417 0.03376 0.08186 0.0
C19 C 0.41679 0.03081 0.09885 0.0
C20 C 0.42671 0.03472 0.05519 0.0
C21 C 0.42468 0.04569 0.95458 0.0
H22 H 0.41963 0.03835 0.92015 0.0
H23 H 0.42174 0.05623 0.94762 0.0
H24 H 0.43646 0.047 0.95168 0.0
O25 O 0.37453 0.02398 0.98905 0.0
O26 O 0.37253 0.01536 0.07785 0.0
H27 H 0.40932 0.01453 0.1615 0.0
H28 H 0.42832 0.0177 0.14934 0.0
C29 C 0.41891 0.02287 0.15273 0.0
H30 H 0.42061 0.03044 0.18937 0.0
H31 H 0.37761 0.0041 0.19057 0.0
O32 O 0.39309 0.04593 0.90926 0.0
C33 C 0.36907 0.01438 0.02493 0.0
Co34 Co 0.26895 0.16204 0.35954 0.0
Co35 Co 0.25674 0.1597 0.23496 0.0
C36 C 0.28428 0.15012 0.26797 0.0
O37 O 0.28397 0.15397 0.32033 0.0
O38 O 0.27442 0.15163 0.23294 0.0
C39 C 0.28467 0.17017 0.46975 0.0
O40 O 0.29694 0.17422 0.44316 0.0
C41 C 0.25913 0.16761 0.11358 0.0
C42 C 0.23728 0.15928 0.0817 0.0
C43 C 0.25073 0.16635 0.06426 0.0
N44 N 0.25098 0.16163 0.15767 0.0
N45 N 0.23791 0.15674 0.13846 0.0
C46 C 0.27476 0.17378 0.11895 0.0
H47 H 0.27905 0.17084 0.16047 0.0
H48 H 0.27644 0.1856 0.1175 0.0
H49 H 0.28076 0.17009 0.08292 0.0
C50 C 0.26675 0.19243 0.34215 0.0
N51 N 0.26567 0.1789 0.32333 0.0
N52 N 0.25997 0.17779 0.27162 0.0
C53 C 0.25702 0.19052 0.25618 0.0
C54 C 0.26132 0.20025 0.30016 0.0
C55 C 0.27297 0.1977 0.39902 0.0
H56 H 0.2836 0.19482 0.40381 0.0
H57 H 0.27422 0.20945 0.40316 0.0
H58 H 0.26598 0.19238 0.43403 0.0
O59 O 0.25093 0.14766 0.36228 0.0
O60 O 0.24148 0.14618 0.27492 0.0
H61 H 0.24036 0.18343 0.19472 0.0
H62 H 0.24377 0.2024 0.2081 0.0
C63 C 0.24882 0.19293 0.20337 0.0
H64 H 0.25618 0.1947 0.16606 0.0
H65 H 0.22949 0.15152 0.16396 0.0
O66 O 0.27337 0.16552 0.44129 0.0
C67 C 0.24098 0.14242 0.32752 0.0
Co68 Co 0.10904 0.00297 0.49691 0.0
Co69 Co 0.11118 0.01352 0.62369 0.0
C70 C 0.12031 0.98628 0.58785 0.0
O71 O 0.11674 0.98762 0.53565 0.0
O72 O 0.1188 0.99556 0.62554 0.0
C73 C 0.09923 0.98727 0.38935 0.0
O74 O 0.09244 0.97623 0.41864 0.0
C75 C 0.10505 0.01131 0.74638 0.0
C76 C 0.10953 0.03394 0.77377 0.0
C77 C 0.10495 0.02012 0.79373 0.0
N78 N 0.10927 0.01959 0.70044 0.0
N79 N 0.11192 0.0331 0.71695 0.0
C80 C 0.10239 0.99532 0.74463 0.0
H81 H 0.11275 0.99187 0.7499 0.0
H82 H 0.09781 0.99143 0.70237 0.0
H83 H 0.09523 0.99034 0.77945 0.0
C84 C 0.07886 0.00632 0.51304 0.0
N85 N 0.09219 0.00643 0.53256 0.0
N86 N 0.0931 0.01079 0.58638 0.0
C87 C 0.08033 0.01341 0.60302 0.0
C88 C 0.07091 0.01069 0.55711 0.0
C89 C 0.07422 0.00345 0.45196 0.0
H90 H 0.08277 0.0087 0.42241 0.0
H91 H 0.07221 0.99177 0.44413 0.0
H92 H 0.06429 0.00742 0.44246 0.0
O93 O 0.12358 0.02076 0.49535 0.0
O94 O 0.12512 0.0288 0.58493 0.0
H95 H 0.08415 0.02868 0.67145 0.0
H96 H 0.06582 0.0192 0.66685 0.0
C97 C 0.07714 0.01822 0.66205 0.0
H98 H 0.07935 0.01032 0.69399 0.0
H99 H 0.11539 0.04173 0.68945 0.0
O100 O 0.10591 0.99826 0.41539 0.0
C101 C 0.12893 0.03007 0.53242 0.0
Co102 Co 0.22841 0.88294 0.86365 0.0
Co103 Co 0.2398 0.88392 0.7379 0.0
C104 C 0.21255 0.89393 0.77081 0.0
O105 O 0.21329 0.89067 0.8237 0.0
O106 O 0.22212 0.89201 0.73511 0.0
C107 C 0.21261 0.87563 0.97341 0.0
O108 O 0.2005 0.87143 0.94581 0.0
C109 C 0.23728 0.87547 0.61687 0.0
C110 C 0.2593 0.88314 0.58548 0.0
C111 C 0.24576 0.8764 0.56781 0.0
N112 N 0.24548 0.88134 0.66099 0.0
N113 N 0.25864 0.88582 0.64208 0.0
C114 C 0.22156 0.86973 0.62184 0.0
H115 H 0.21734 0.87271 0.66338 0.0
H116 H 0.21954 0.85789 0.62002 0.0
H117 H 0.21576 0.87369 0.5858 0.0
C118 C 0.23054 0.85239 0.85113 0.0
N119 N 0.23146 0.8657 0.83 0.0
N120 N 0.2367 0.86622 0.77753 0.0
C121 C 0.23945 0.8533 0.7638 0.0
C122 C 0.23555 0.84409 0.80983 0.0
C123 C 0.22482 0.84776 0.90948 0.0
H124 H 0.21403 0.85028 0.9142 0.0
H125 H 0.22401 0.83613 0.91638 0.0
H126 H 0.23185 0.85378 0.94283 0.0
O127 O 0.24649 0.89726 0.86373 0.0
O128 O 0.25522 0.89779 0.77527 0.0
H129 H 0.25576 0.85942 0.70009 0.0
H130 H 0.25169 0.84053 0.71495 0.0
C131 C 0.24705 0.85025 0.71026 0.0
H132 H 0.23938 0.84866 0.6739 0.0
H133 H 0.26712 0.8909 0.66762 0.0
O134 O 0.22407 0.88015 0.94574 0.0
C135 C 0.25617 0.90208 0.82719 0.0
Co136 Co 0.60888 0.00274 0.10292 0.0
Co137 Co 0.61082 0.01388 0.97675 0.0
C138 C 0.6204 0.98657 0.0129 0.0
O139 O 0.61679 0.98743 0.06531 0.0
O140 O 0.61878 0.9961 0.9764 0.0
C141 C 0.60098 0.98728 0.21288 0.0
O142 O 0.59755 0.97502 0.18576 0.0
C143 C 0.60258 0.01095 0.8557 0.0
C144 C 0.6104 0.03281 0.82284 0.0
C145 C 0.60344 0.01926 0.80615 0.0
N146 N 0.60866 0.01926 0.89916 0.0
N147 N 0.61326 0.03232 0.87934 0.0
C148 C 0.59661 0.99529 0.86198 0.0
H149 H 0.59986 0.99114 0.90325 0.0
H150 H 0.58477 0.99349 0.8618 0.0
H151 H 0.60015 0.98926 0.82574 0.0
C152 C 0.57849 0.00487 0.08629 0.0
N153 N 0.59194 0.00577 0.06684 0.0
N154 N 0.59286 0.01104 0.01438 0.0
C155 C 0.58008 0.01388 -0.00094 0.0
C156 C 0.57053 0.00998 0.04395 0.0
C157 C 0.5734 -0.00092 0.14405 0.0
H158 H 0.57888 0.00629 0.17807 0.0
H159 H 0.57623 0.98844 0.14987 0.0
H160 H 0.56167 0.99792 0.14883 0.0
O161 O 0.62333 0.02074 0.10331 0.0
O162 O 0.62458 0.02934 0.01448 0.0
H163 H 0.58688 0.03012 0.9355 0.0
H164 H 0.56794 0.0266 0.94945 0.0
C165 C 0.57747 0.02164 0.94528 0.0
H166 H 0.57573 0.01398 0.90892 0.0
H167 H 0.61844 0.04087 0.90432 0.0
O168 O 0.6054 0.99872 0.1849 0.0
C169 C 0.6285 0.03032 0.06687 0.0
Co170 Co 0.72884 0.88209 0.74311 0.0
Co171 Co 0.74029 0.88507 0.8686 0.0
C172 C 0.71269 0.89376 0.83428 0.0
O173 O 0.7136 0.8898 0.78237 0.0
O174 O 0.72233 0.89265 0.87091 0.0
C175 C 0.71287 0.87188 0.63593 0.0
O176 O 0.70216 0.86442 0.66505 0.0
C177 C 0.73828 0.87903 0.99128 0.0
C178 C 0.76065 0.88588 0.02013 0.0
C179 C 0.74699 0.88017 0.03943 0.0
N180 N 0.74646 0.88368 0.94553 0.0
N181 N 0.75983 0.88771 0.96289 0.0
C182 C 0.72233 0.87472 0.98882 0.0
H183 H 0.71871 0.87235 0.94394 0.0
H184 H 0.71842 0.86517 0.01554 0.0
H185 H 0.71753 0.88359 0.00569 0.0
C186 C 0.73258 0.85207 0.76118 0.0
N187 N 0.73271 0.86549 0.77961 0.0
N188 N 0.73751 0.86678 0.83282 0.0
C189 C 0.74048 0.85419 0.85008 0.0
C190 C 0.73745 0.84447 0.80529 0.0
C191 C 0.72922 0.84703 0.70089 0.0
H192 H 0.73397 0.85549 0.67002 0.0
H193 H 0.71747 0.84468 0.69493 0.0
H194 H 0.73338 0.83719 0.69152 0.0
O195 O 0.74651 0.89677 0.73949 0.0
O196 O 0.75532 0.89886 0.82791 0.0
H197 H 0.75599 0.85921 0.91731 0.0
H198 H 0.74783 0.84045 0.9134 0.0
C199 C 0.74593 0.85148 0.90865 0.0
H200 H 0.73792 0.85305 0.94122 0.0
H201 H 0.76835 0.89189 0.9358 0.0
O202 O 0.72373 0.87884 0.66195 0.0
C203 C 0.75611 0.90238 0.77502 0.0
Co204 Co 0.88811 0.04159 0.60041 0.0
Co205 Co 0.88635 0.03008 0.47481 0.0
C206 C 0.87701 0.05754 0.5076 0.0
O207 O 0.88055 0.05681 0.56013 0.0
O208 O 0.87855 0.04787 0.47184 0.0
C209 C 0.89738 0.05757 0.70811 0.0
O210 O 0.90436 0.06856 0.67905 0.0
C211 C 0.89357 0.03208 0.35223 0.0
C212 C 0.88603 0.00981 0.32345 0.0
C213 C 0.89233 0.02332 0.30412 0.0
N214 N 0.88836 0.02406 0.39787 0.0
N215 N 0.88395 0.01075 0.38045 0.0
C216 C 0.89897 0.04791 0.3545 0.0
H217 H 0.89666 0.05238 0.39648 0.0
H218 H 0.91073 0.05027 0.34887 0.0
H219 H 0.89417 0.05325 0.31923 0.0
C220 C 0.9183 0.03794 0.58695 0.0
N221 N 0.90508 0.03786 0.56625 0.0
N222 N 0.90426 0.03292 0.51324 0.0
C223 C 0.91694 0.02973 0.49847 0.0
C224 C 0.92625 0.03284 0.54462 0.0
C225 C 0.92276 0.04137 0.64786 0.0
H226 H 0.91417 0.03625 0.67755 0.0
H227 H 0.92456 0.0531 0.65412 0.0
H228 H 0.93274 0.03763 0.6587 0.0
O229 O 0.87352 0.0238 0.60221 0.0
O230 O 0.87238 0.01493 0.5139 0.0
H231 H 0.91211 0.01383 0.43261 0.0
H232 H 0.93095 0.02154 0.43876 0.0
C233 C 0.92001 0.02378 0.44128 0.0
H234 H 0.91898 0.03164 0.40731 0.0
H235 H 0.87929 0.00235 0.40731 0.0
O236 O 0.89088 0.04653 0.68191 0.0
C237 C 0.86835 0.01413 0.5662 0.0
Co238 Co 0.76863 0.163 0.23973 0.0
Co239 Co 0.75692 0.15875 0.36452 0.0
C240 C 0.78439 0.14994 0.32765 0.0
O241 O 0.78359 0.15433 0.27626 0.0
O242 O 0.77482 0.15102 0.36466 0.0
C243 C 0.78315 0.16445 0.12953 0.0
O244 O 0.79002 0.15486 0.14989 0.0
C245 C 0.75977 0.16345 0.48663 0.0
C246 C 0.73759 0.15767 0.51872 0.0
C247 C 0.7516 0.16247 0.53605 0.0
N248 N 0.75106 0.15932 0.442 0.0
N249 N 0.7378 0.15584 0.46125 0.0
C250 C 0.77545 0.16924 0.48093 0.0
H251 H 0.77799 0.17366 0.43715 0.0
H252 H 0.77906 0.17766 0.51357 0.0
H253 H 0.78135 0.16046 0.48798 0.0
C254 C 0.76645 0.19286 0.26488 0.0
N255 N 0.76544 0.17914 0.28084 0.0
N256 N 0.75999 0.17737 0.33285 0.0
C257 C 0.75714 0.1899 0.35148 0.0
C258 C 0.76116 0.20014 0.30893 0.0
C259 C 0.77238 0.19882 0.20841 0.0
H260 H 0.7822 0.19473 0.19818 0.0
H261 H 0.77499 0.21067 0.20904 0.0
H262 H 0.7644 0.19522 0.17413 0.0
O263 O 0.75059 0.14862 0.23259 0.0
O264 O 0.74195 0.14575 0.32134 0.0
H265 H 0.74035 0.1825 0.41178 0.0
H266 H 0.74524 0.20169 0.40671 0.0
C267 C 0.74941 0.19163 0.40625 0.0
H268 H 0.75683 0.19169 0.44302 0.0
H269 H 0.7289 0.15231 0.43517 0.0
O270 O 0.77414 0.16901 0.16099 0.0
C271 C 0.741 0.14278 0.26793 0.0
Co272 Co 0.88751 0.54181 0.49542 0.0
Co273 Co 0.8864 0.53113 0.62211 0.0
C274 C 0.87715 0.55848 0.58855 0.0
O275 O 0.88033 0.55716 0.53591 0.0
O276 O 0.87887 0.54914 0.62572 0.0
C277 C 0.89673 0.55772 0.38807 0.0
O278 O 0.90402 0.56842 0.41773 0.0
C279 C 0.89332 0.53325 0.74425 0.0
C280 C 0.88828 0.51065 0.77197 0.0
C281 C 0.89315 0.52443 0.79178 0.0
N282 N 0.88889 0.52502 0.69842 0.0
N283 N 0.88597 0.51152 0.7151 0.0
C284 C 0.8963 0.54925 0.74249 0.0
H285 H 0.89996 0.55308 0.69893 0.0
H286 H 0.90443 0.55399 0.77444 0.0
H287 H 0.88629 0.55302 0.7525 0.0
C288 C 0.91764 0.53801 0.50653 0.0
N289 N 0.90458 0.53814 0.52833 0.0
N290 N 0.90412 0.53375 0.58211 0.0
C291 C 0.91695 0.53085 0.59645 0.0
C292 C 0.92592 0.53346 0.54905 0.0
C293 C 0.92164 0.54066 0.44466 0.0
H294 H 0.91264 0.53567 0.41668 0.0
H295 H 0.92401 0.55233 0.43657 0.0
H296 H 0.93122 0.53627 0.43324 0.0
O297 O 0.87287 0.52412 0.49552 0.0
O298 O 0.87202 0.51595 0.58492 0.0
H299 H 0.91351 0.51532 0.66399 0.0
H300 H 0.93188 0.52461 0.65738 0.0
C301 C 0.92056 0.52575 0.65449 0.0
H302 H 0.91868 0.53354 0.6875 0.0
H303 H 0.8822 0.50293 0.6878 0.0
O304 O 0.88996 0.5467 0.41371 0.0
C305 C 0.86776 0.51479 0.53293 0.0
Co306 Co 0.76795 0.6616 0.85864 0.0
Co307 Co 0.75669 0.65962 0.73276 0.0
C308 C 0.78417 0.65048 0.76688 0.0
O309 O 0.78328 0.65406 0.81927 0.0
O310 O 0.77456 0.65193 0.73061 0.0
C311 C 0.78388 0.67102 0.96613 0.0
O312 O 0.79489 0.67788 0.9369 0.0
C313 C 0.75876 0.66674 0.61006 0.0
C314 C 0.73652 0.65913 0.58111 0.0
C315 C 0.75002 0.66548 0.5619 0.0
N316 N 0.75074 0.66151 0.65563 0.0
N317 N 0.73744 0.65704 0.6381 0.0
C318 C 0.77458 0.67221 0.61246 0.0
H319 H 0.77994 0.66755 0.57692 0.0
H320 H 0.77906 0.66979 0.65427 0.0
H321 H 0.77688 0.68399 0.60738 0.0
C322 C 0.76432 0.69177 0.84397 0.0
N323 N 0.76425 0.6785 0.8238 0.0
N324 N 0.75936 0.67759 0.7707 0.0
C325 C 0.75617 0.69023 0.7554 0.0
C326 C 0.75926 0.69963 0.80124 0.0
C327 C 0.76778 0.69637 0.90471 0.0
H328 H 0.76261 0.68789 0.93474 0.0
H329 H 0.7795 0.69811 0.91105 0.0
H330 H 0.76412 0.70643 0.915 0.0
O331 O 0.75019 0.64695 0.86038 0.0
O332 O 0.74153 0.64564 0.7717 0.0
H333 H 0.74038 0.68517 0.68919 0.0
H334 H 0.74783 0.70407 0.69532 0.0
C335 C 0.75023 0.69319 0.69801 0.0
H336 H 0.75817 0.69228 0.66426 0.0
H337 H 0.72905 0.65236 0.66491 0.0
O338 O 0.77281 0.66451 0.9401 0.0
C339 C 0.74063 0.64169 0.8241 0.0
Co340 Co 0.60824 0.50237 -0.0003 0.0
Co341 Co 0.61104 0.51399 0.12497 0.0
C342 C 0.62002 0.48645 0.09073 0.0
O343 O 0.61599 0.48717 0.03882 0.0
O344 O 0.61886 0.49616 0.12688 0.0
C345 C 0.59842 0.48636 0.89234 0.0
O346 O 0.59135 0.4754 0.92134 0.0
C347 C 0.60443 0.512 0.24789 0.0
C348 C 0.61248 0.53417 0.27691 0.0
C349 C 0.60601 0.5207 0.29615 0.0
N350 N 0.60959 0.52001 0.20219 0.0
N351 N 0.61432 0.53326 0.21975 0.0
C352 C 0.59881 0.4962 0.24555 0.0
H353 H 0.60093 0.49173 0.20336 0.0
H354 H 0.58707 0.49399 0.25184 0.0
H355 H 0.60363 0.49076 0.28045 0.0
C356 C 0.57818 0.50595 0.01698 0.0
N357 N 0.59157 0.50614 0.0359 0.0
N358 N 0.59282 0.5112 0.08872 0.0
C359 C 0.58026 0.51442 0.10504 0.0
C360 C 0.57057 0.51113 0.06022 0.0
C361 C 0.5732 0.50228 0.95682 0.0
H362 H 0.58152 0.50728 0.92583 0.0
H363 H 0.57136 0.49052 0.95126 0.0
H364 H 0.56312 0.50596 0.94718 0.0
O365 O 0.62286 0.52013 -0.00361 0.0
O366 O 0.62477 0.5291 0.08454 0.0
H367 H 0.58589 0.53034 0.17043 0.0
H368 H 0.56689 0.52325 0.16549 0.0
C369 C 0.57766 0.5206 0.16235 0.0
H370 H 0.57852 0.51269 0.19633 0.0
H371 H 0.61901 0.54163 0.19284 0.0
O372 O 0.60505 0.49735 0.91848 0.0
C373 C 0.62836 0.52982 0.03174 0.0
Co374 Co 0.72822 0.3811 0.36069 0.0
Co375 Co 0.74056 0.38518 0.23671 0.0
C376 C 0.71283 0.39393 0.27105 0.0
O377 O 0.71334 0.3897 0.32282 0.0
O378 O 0.72261 0.39276 0.2351 0.0
C379 C 0.71417 0.38042 0.47169 0.0
O380 O 0.70803 0.39064 0.45208 0.0
C381 C 0.73816 0.38023 0.11461 0.0
C382 C 0.76033 0.38665 0.08316 0.0
C383 C 0.74642 0.3815 0.06541 0.0
N384 N 0.7467 0.38454 0.15953 0.0
N385 N 0.75997 0.38838 0.14068 0.0
C386 C 0.72254 0.37405 0.11965 0.0
H387 H 0.71989 0.36996 0.16382 0.0
H388 H 0.71935 0.3653 0.08799 0.0
H389 H 0.71637 0.38249 0.1103 0.0
C390 C 0.73067 0.35123 0.33681 0.0
N391 N 0.73171 0.36492 0.32045 0.0
N392 N 0.73744 0.36665 0.26891 0.0
C393 C 0.74043 0.35412 0.25101 0.0
C394 C 0.73623 0.34392 0.29352 0.0
C395 C 0.72448 0.34531 0.39296 0.0
H396 H 0.71462 0.34941 0.40234 0.0
H397 H 0.72188 0.33345 0.39242 0.0
H398 H 0.73231 0.34892 0.42775 0.0
O399 O 0.74615 0.39558 0.36858 0.0
O400 O 0.75528 0.39834 0.28056 0.0
H401 H 0.7574 0.3616 0.19148 0.0
H402 H 0.75281 0.34241 0.19761 0.0
C403 C 0.74845 0.35236 0.19699 0.0
H404 H 0.74115 0.35203 0.15965 0.0
H405 H 0.76876 0.39216 0.167 0.0
O406 O 0.72253 0.37517 0.43937 0.0
C407 C 0.75591 0.40141 0.3339 0.0
Co408 Co 0.10722 0.5044 0.58822 0.0
Co409 Co 0.112 0.51652 0.46388 0.0
C410 C 0.12145 0.48942 0.501 0.0
O411 O 0.11668 0.48991 0.55194 0.0
O412 O 0.12032 0.499 0.46409 0.0
C413 C 0.1069 0.49053 0.69864 0.0
O414 O 0.11781 0.48542 0.67919 0.0
C415 C 0.10908 0.51445 0.34024 0.0
C416 C 0.11285 0.537 0.31202 0.0
C417 C 0.1097 0.52305 0.29211 0.0
N418 N 0.11184 0.52286 0.38666 0.0
N419 N 0.11416 0.53635 0.36967 0.0
C420 C 0.10445 0.49854 0.34278 0.0
H421 H 0.1002 0.49511 0.38604 0.0
H422 H 0.09615 0.4948 0.30979 0.0
H423 H 0.11375 0.49355 0.33358 0.0
C424 C 0.07738 0.50614 0.56039 0.0
N425 N 0.09121 0.5074 0.54563 0.0
N426 N 0.09313 0.5127 0.49338 0.0
C427 C 0.08054 0.51499 0.47305 0.0
C428 C 0.07014 0.5109 0.51484 0.0
C429 C 0.07168 0.50191 0.61922 0.0
H430 H 0.0778 0.50925 0.65137 0.0
H431 H 0.07327 0.49094 0.62898 0.0
H432 H 0.06021 0.50232 0.62344 0.0
O433 O 0.12108 0.52264 0.59756 0.0
O434 O 0.12436 0.53162 0.50942 0.0
H435 H 0.08556 0.53168 0.41047 0.0
H436 H 0.0673 0.52187 0.40679 0.0
C437 C 0.07855 0.52099 0.41476 0.0
H438 H 0.08169 0.5139 0.38148 0.0
H439 H 0.11645 0.54508 0.39744 0.0
O440 O 0.10092 0.4983 0.66617 0.0
C441 C 0.12694 0.53245 0.56319 0.0
Co442 Co 0.22915 0.38185 0.24515 0.0
Co443 Co 0.24087 0.38503 0.37026 0.0
C444 C 0.21369 0.39475 0.33344 0.0
O445 O 0.2142 0.3904 0.28187 0.0
O446 O 0.22333 0.39343 0.36982 0.0
C447 C 0.21356 0.37335 0.13532 0.0
O448 O 0.2012 0.37 0.16182 0.0
C449 C 0.23804 0.37758 0.49183 0.0
C450 C 0.25985 0.38568 0.52456 0.0
C451 C 0.24632 0.37869 0.54142 0.0
N452 N 0.24634 0.38351 0.44809 0.0
N453 N 0.25937 0.3883 0.46782 0.0
C454 C 0.2224 0.37152 0.48576 0.0
H455 H 0.21817 0.37485 0.44477 0.0
H456 H 0.22067 0.35968 0.48547 0.0
H457 H 0.21637 0.37491 0.52233 0.0
C458 C 0.23101 0.3516 0.2664 0.0
N459 N 0.23206 0.36522 0.28381 0.0
N460 N 0.23761 0.36665 0.33575 0.0
C461 C 0.24053 0.354 0.3527 0.0
C462 C 0.23634 0.34403 0.30949 0.0
C463 C 0.22498 0.34602 0.20961 0.0
H464 H 0.2145 0.34912 0.20316 0.0
H465 H 0.22348 0.33421 0.20705 0.0
H466 H 0.23225 0.35092 0.17468 0.0
O467 O 0.24729 0.39601 0.24193 0.0
O468 O 0.25641 0.39815 0.32987 0.0
H469 H 0.25712 0.36152 0.41401 0.0
H470 H 0.25385 0.34249 0.40218 0.0
C471 C 0.24873 0.35193 0.40594 0.0
H472 H 0.24133 0.35029 0.44319 0.0
H473 H 0.2679 0.39341 0.4426 0.0
O474 O 0.22492 0.37781 0.16372 0.0
C475 C 0.25714 0.40146 0.27677 0.0
Co476 Co 0.38756 0.54133 0.09934 0.0
Co477 Co 0.38595 0.53 0.97355 0.0
C478 C 0.37614 0.55718 0.00704 0.0
O479 O 0.37973 0.55641 0.0595 0.0
O480 O 0.37782 0.54762 0.97096 0.0
C481 C 0.39656 0.55737 0.20704 0.0
O482 O 0.40318 0.56852 0.17793 0.0
C483 C 0.39324 0.5322 0.85104 0.0
C484 C 0.38607 0.50989 0.82207 0.0
C485 C 0.3922 0.52347 0.80288 0.0
N486 N 0.38809 0.5241 0.89654 0.0
N487 N 0.38389 0.51077 0.87901 0.0
C488 C 0.39843 0.54806 0.85353 0.0
H489 H 0.39578 0.55248 0.89513 0.0
H490 H 0.41022 0.55056 0.84913 0.0
H491 H 0.39377 0.55333 0.81765 0.0
C492 C 0.41789 0.53824 0.08567 0.0
N493 N 0.40463 0.53797 0.06498 0.0
N494 N 0.40388 0.53306 0.01194 0.0
C495 C 0.41662 0.53002 -0.00279 0.0
C496 C 0.42591 0.53325 0.04335 0.0
C497 C 0.42231 0.5417 0.1466 0.0
H498 H 0.41385 0.53632 0.17628 0.0
H499 H 0.42375 0.55341 0.15313 0.0
H500 H 0.43247 0.5383 0.15721 0.0
O501 O 0.37324 0.52334 0.10089 0.0
O502 O 0.37221 0.51461 0.01236 0.0
H503 H 0.41187 0.51403 0.9317 0.0
H504 H 0.4307 0.52176 0.93809 0.0
C505 C 0.41976 0.52399 0.94025 0.0
H506 H 0.41875 0.5318 0.90603 0.0
H507 H 0.37933 0.50232 0.90576 0.0
O508 O 0.3903 0.54621 0.18087 0.0
C509 C 0.36821 0.51367 0.06468 0.0
Co510 Co 0.26638 0.66312 0.75322 0.0
Co511 Co 0.25517 0.65835 0.87859 0.0
C512 C 0.2824 0.64958 0.83883 0.0
O513 O 0.28138 0.65417 0.78789 0.0
O514 O 0.27302 0.65054 0.8768 0.0
C515 C 0.28133 0.66577 0.64368 0.0
O516 O 0.28904 0.65696 0.66451 0.0
C517 C 0.25834 0.66275 0.00084 0.0
C518 C 0.2362 0.65705 0.03345 0.0
C519 C 0.25024 0.66185 0.05047 0.0
N520 N 0.24955 0.65861 0.95645 0.0
N521 N 0.23632 0.65515 0.97603 0.0
C522 C 0.27401 0.66858 0.99461 0.0
H523 H 0.27645 0.67293 0.95067 0.0
H524 H 0.27765 0.67708 0.02694 0.0
H525 H 0.27996 0.65985 0.00171 0.0
C526 C 0.26449 0.6929 0.78121 0.0
N527 N 0.26346 0.6791 0.79603 0.0
N528 N 0.25824 0.67713 0.84836 0.0
C529 C 0.25558 0.68962 0.86836 0.0
C530 C 0.25946 0.70003 0.82639 0.0
C531 C 0.27013 0.69906 0.72463 0.0
H532 H 0.27994 0.69507 0.71331 0.0
H533 H 0.27265 0.71091 0.7258 0.0
H534 H 0.26201 0.69551 0.69079 0.0
O535 O 0.24823 0.6489 0.74622 0.0
O536 O 0.23995 0.64562 0.83539 0.0
H537 H 0.23901 0.68208 0.92948 0.0
H538 H 0.24401 0.70128 0.92554 0.0
C539 C 0.2481 0.69118 0.92392 0.0
H540 H 0.25566 0.69105 0.96005 0.0
H541 H 0.22738 0.65168 0.95015 0.0
O542 O 0.27169 0.66944 0.67454 0.0
C543 C 0.23876 0.64293 0.78178 0.0
C544 C 0.39436 0.04312 0.791 0.0
C545 C 0.39993 0.05609 0.81867 0.0
C546 C 0.397 0.04128 0.73307 0.0
C547 C 0.40634 0.06025 0.59793 0.0
H548 H 0.41111 0.02251 0.54986 0.0
C549 C 0.40848 0.04162 0.35939 0.0
C550 C 0.39705 0.03021 0.34769 0.0
C551 C 0.41189 0.04588 0.41603 0.0
C552 C 0.40995 0.03313 0.56277 0.0
H553 H 0.41246 0.07745 0.80698 0.0
H554 H 0.41719 0.07416 0.70446 0.0
H555 H 0.41201 0.02854 0.65187 0.0
H556 H 0.38086 0.0138 0.38674 0.0
H557 H 0.38718 0.02094 0.48538 0.0
H558 H 0.40405 0.06464 0.50821 0.0
C559 C 0.41074 0.06546 0.72819 0.0
C560 C 0.41038 0.03658 0.62099 0.0
C561 C 0.40803 0.06734 0.78668 0.0
C562 C 0.38965 0.0227 0.39402 0.0
C563 C 0.39325 0.02676 0.45049 0.0
C564 C 0.40611 0.05684 0.53938 0.0
C565 C 0.40538 0.05231 0.7011 0.0
C566 C 0.40792 0.04993 0.63935 0.0
C567 C 0.40426 0.03849 0.46186 0.0
C568 C 0.40734 0.04307 0.52175 0.0
H569 H 0.38791 0.03428 0.81411 0.0
H570 H 0.39233 0.03118 0.71317 0.0
H571 H 0.4044 0.07061 0.61078 0.0
H572 H 0.41497 0.04719 0.32538 0.0
H573 H 0.42057 0.05483 0.4241 0.0
C574 C 0.24773 0.16182 0.95913 0.0
C575 C 0.25496 0.17007 0.004 0.0
C576 C 0.25181 0.16469 0.90214 0.0
C577 C 0.28211 0.17861 0.81242 0.0
H578 H 0.25322 0.1792 0.69562 0.0
C579 C 0.29356 0.18101 0.56491 0.0
C580 C 0.28336 0.17161 0.53256 0.0
C581 C 0.2912 0.18313 0.62354 0.0
C582 C 0.26142 0.17904 0.72772 0.0
H583 H 0.27144 0.18866 0.02309 0.0
H584 H 0.27904 0.19316 0.92356 0.0
H585 H 0.24662 0.17892 0.79689 0.0
H586 H 0.26318 0.15647 0.53669 0.0
H587 H 0.25927 0.15993 0.638 0.0
H588 H 0.29677 0.17799 0.74293 0.0
C589 C 0.27034 0.18433 0.93313 0.0
C590 C 0.25764 0.17893 0.78555 0.0
C591 C 0.26609 0.1816 0.99026 0.0
C592 C 0.27113 0.16398 0.56016 0.0
C593 C 0.26883 0.16603 0.61823 0.0
C594 C 0.28589 0.17858 0.75426 0.0
C595 C 0.26325 0.17586 0.88872 0.0
C596 C 0.26784 0.17828 0.82831 0.0
C597 C 0.27863 0.17586 0.65032 0.0
C598 C 0.27544 0.17829 0.71144 0.0
H599 H 0.23907 0.1529 0.96806 0.0
H600 H 0.24623 0.15794 0.86856 0.0
H601 H 0.29014 0.17808 0.84483 0.0
H602 H 0.30307 0.18703 0.54461 0.0
H603 H 0.29896 0.19072 0.64743 0.0
C604 C 0.10831 0.9981 0.2965 0.0
C605 C 0.0983 0.98791 0.32618 0.0
C606 C 0.10671 0.00039 0.23812 0.0
C607 C 0.09043 0.98565 0.10444 0.0
H608 H 0.09699 0.02577 0.06199 0.0
C609 C 0.08928 0.00617 0.86887 0.0
C610 C 0.10169 0.01606 0.85404 0.0
C611 C 0.08656 0.00216 0.92625 0.0
C612 C 0.0951 0.01454 0.07323 0.0
H613 H 0.07914 0.97155 0.3175 0.0
H614 H 0.07633 0.97561 0.21396 0.0
H615 H 0.09642 0.01907 0.16318 0.0
H616 H 0.12054 0.03014 0.88706 0.0
H617 H 0.11572 0.02333 0.98741 0.0
H618 H 0.08945 0.98122 0.01387 0.0
C619 C 0.08538 0.98181 0.23656 0.0
C620 C 0.09478 0.01069 0.131 0.0
C621 C 0.08701 0.97948 0.29555 0.0
C622 C 0.11098 0.02238 0.8975 0.0
C623 C 0.1082 0.01852 0.95477 0.0
C624 C 0.09069 0.98952 0.0463 0.0
C625 C 0.09502 0.9926 0.2079 0.0
C626 C 0.09297 0.99625 0.14711 0.0
C627 C 0.09603 0.00829 0.96961 0.0
C628 C 0.09352 0.00402 0.03036 0.0
H629 H 0.11726 0.0046 0.3187 0.0
H630 H 0.11452 0.00849 0.21672 0.0
H631 H 0.089 0.97445 0.11584 0.0
H632 H 0.08159 0.00169 0.83633 0.0
H633 H 0.07699 0.99444 0.93683 0.0
C634 C 0.24903 0.88107 0.4629 0.0
C635 C 0.24153 0.87289 0.50742 0.0
C636 C 0.24493 0.87847 0.4058 0.0
C637 C 0.21439 0.86559 0.31564 0.0
H638 H 0.24322 0.86532 0.19834 0.0
C639 C 0.20332 0.86455 0.06766 0.0
C640 C 0.2136 0.87412 0.0363 0.0
C641 C 0.2055 0.86216 0.12623 0.0
C642 C 0.23504 0.86538 0.2306 0.0
H643 H 0.22454 0.85469 0.52577 0.0
H644 H 0.21695 0.85066 0.42599 0.0
H645 H 0.24976 0.86478 0.29949 0.0
H646 H 0.2337 0.88933 0.04213 0.0
H647 H 0.23732 0.88538 0.14342 0.0
H648 H 0.19981 0.86687 0.24641 0.0
C649 C 0.22588 0.85922 0.43593 0.0
C650 C 0.23878 0.86503 0.28835 0.0
C651 C 0.23012 0.86169 0.4932 0.0
C652 C 0.22569 0.88171 0.06487 0.0
C653 C 0.22783 0.87937 0.12288 0.0
C654 C 0.21064 0.86604 0.25756 0.0
C655 C 0.23322 0.86765 0.39187 0.0
C656 C 0.22861 0.86559 0.33135 0.0
C657 C 0.21798 0.86932 0.15387 0.0
C658 C 0.22108 0.86646 0.21465 0.0
H659 H 0.2579 0.88974 0.47218 0.0
H660 H 0.25071 0.88519 0.37255 0.0
H661 H 0.20637 0.86605 0.3482 0.0
H662 H 0.19391 0.85856 0.04659 0.0
H663 H 0.19771 0.85441 0.14933 0.0
C664 C 0.60697 0.02256 0.70058 0.0
C665 C 0.59936 0.01496 0.74627 0.0
C666 C 0.60377 0.01848 0.64384 0.0
C667 C 0.59121 0.98811 0.55459 0.0
H668 H 0.58746 0.01662 0.43968 0.0
C669 C 0.59017 0.97745 0.3069 0.0
C670 C 0.59888 0.98839 0.27543 0.0
C671 C 0.58746 0.97941 0.36534 0.0
C672 C 0.58848 0.00852 0.47126 0.0
H673 H 0.58148 0.9978 0.76704 0.0
H674 H 0.57652 0.99018 0.66786 0.0
H675 H 0.58755 0.02282 0.54139 0.0
H676 H 0.61213 0.00963 0.28094 0.0
H677 H 0.60766 0.01288 0.38188 0.0
H678 H 0.59301 0.97405 0.48418 0.0
C679 C 0.58508 -0.0008 0.67666 0.0
C680 C 0.58847 0.01207 0.52931 0.0
C681 C 0.58811 0.00346 0.73358 0.0
C682 C 0.60518 0.00107 0.30367 0.0
C683 C 0.60253 0.00299 0.36154 0.0
C684 C 0.59138 0.98458 0.49622 0.0
C685 C 0.59294 0.00666 0.63148 0.0
C686 C 0.59031 0.00205 0.5713 0.0
C687 C 0.59343 0.99234 0.39281 0.0
C688 C 0.59057 0.99495 0.45406 0.0
H689 H 0.61564 0.03151 0.70861 0.0
H690 H 0.61003 0.02435 0.60956 0.0
H691 H 0.59267 0.98023 0.58646 0.0
H692 H 0.58517 0.96758 0.28613 0.0
H693 H 0.58046 0.971 0.3886 0.0
C694 C 0.70618 0.85987 0.5409 0.0
C695 C 0.71323 0.87169 0.57266 0.0
C696 C 0.70864 0.8591 0.48161 0.0
C697 C 0.73675 0.87297 0.37743 0.0
H698 H 0.70791 0.86277 0.25922 0.0
C699 C 0.74791 0.88763 0.14175 0.0
C700 C 0.74279 0.87734 0.09987 0.0
C701 C 0.74388 0.88525 0.19908 0.0
C702 C 0.71607 0.86543 0.29196 0.0
H703 H 0.72737 0.89243 0.56716 0.0
H704 H 0.73141 0.89121 0.46451 0.0
H705 H 0.70078 0.86175 0.36083 0.0
H706 H 0.73039 0.85606 0.08533 0.0
H707 H 0.72293 0.85207 0.18572 0.0
H708 H 0.752 0.87698 0.30917 0.0
C709 C 0.72437 0.88234 0.48518 0.0
C710 C 0.712 0.86484 0.3499 0.0
C711 C 0.72199 0.88307 0.5439 0.0
C712 C 0.7339 0.86445 0.1164 0.0
C713 C 0.72977 0.86209 0.17382 0.0
C714 C 0.74079 0.87359 0.31987 0.0
C715 C 0.71814 0.87017 0.45378 0.0
C716 C 0.72229 0.86901 0.39296 0.0
C717 C 0.73472 0.87249 0.21562 0.0
C718 C 0.73047 0.8702 0.27653 0.0
H719 H 0.69939 0.85095 0.56223 0.0
H720 H 0.70366 0.84963 0.45816 0.0
H721 H 0.74495 0.87588 0.40989 0.0
H722 H 0.75485 0.89762 0.12999 0.0
H723 H 0.74777 0.8935 0.2304 0.0
C724 C 0.88603 0.02085 0.20042 0.0
C725 C 0.89536 0.0274 0.24345 0.0
C726 C 0.88835 0.02491 0.1431 0.0
C727 C 0.90509 0.05459 0.05158 0.0
H728 H 0.8985 0.02549 0.93299 0.0
C729 C 0.90927 0.06516 0.80267 0.0
C730 C 0.89793 0.05703 0.77137 0.0
C731 C 0.91059 0.06275 0.86177 0.0
C732 C 0.90036 0.03374 0.96566 0.0
H733 H 0.91509 0.04255 0.25951 0.0
H734 H 0.91892 0.04995 0.15929 0.0
H735 H 0.89825 0.01839 0.03361 0.0
H736 H 0.87851 0.04088 0.7777 0.0
H737 H 0.88071 0.03685 0.87996 0.0
H738 H 0.90685 0.06993 0.983 0.0
C739 C 0.90963 0.04191 0.17034 0.0
C740 C 0.90021 0.02967 0.02316 0.0
C741 C 0.90735 0.03777 0.22779 0.0
C742 C 0.88751 0.04714 0.8005 0.0
C743 C 0.8888 0.04477 0.85901 0.0
C744 C 0.90523 0.05868 0.99372 0.0
C745 C 0.90011 0.03555 0.12754 0.0
C746 C 0.90216 0.04003 0.06674 0.0
C747 C 0.90057 0.05219 0.88986 0.0
C748 C 0.90242 0.04825 0.95047 0.0
H749 H 0.87672 0.01281 0.21121 0.0
H750 H 0.88074 0.01992 0.11104 0.0
H751 H 0.9066 0.06279 0.08446 0.0
H752 H 0.91745 0.07285 0.78114 0.0
H753 H 0.91972 0.06866 0.88486 0.0
C754 C 0.7684 0.16014 0.61578 0.0
C755 C 0.75663 0.16545 0.59536 0.0
C756 C 0.77298 0.16262 0.67246 0.0
C757 C 0.75983 0.1717 0.81409 0.0
H758 H 0.79974 0.17579 0.85684 0.0
C759 C 0.77689 0.17906 0.04816 0.0
C760 C 0.78419 0.16858 0.06828 0.0
C761 C 0.77565 0.18136 0.98941 0.0
C762 C 0.78858 0.17469 0.84531 0.0
H763 H 0.74047 0.17761 0.61705 0.0
H764 H 0.74872 0.1824 0.7159 0.0
H765 H 0.79307 0.17495 0.75513 0.0
H766 H 0.79698 0.15316 0.04284 0.0
H767 H 0.79477 0.15721 0.93958 0.0
H768 H 0.75536 0.17145 0.90412 0.0
C769 C 0.75426 0.17605 0.68869 0.0
C770 C 0.78473 0.17414 0.78723 0.0
C771 C 0.74955 0.17337 0.63217 0.0
C772 C 0.79121 0.16124 0.02858 0.0
C773 C 0.79 0.16359 0.96957 0.0
C774 C 0.7637 0.17245 0.8719 0.0
C775 C 0.76594 0.17057 0.70971 0.0
C776 C 0.77027 0.17241 0.77099 0.0
C777 C 0.78175 0.17328 0.9496 0.0
C778 C 0.77807 0.17377 0.88806 0.0
H779 H 0.77381 0.1537 0.58845 0.0
H780 H 0.78177 0.15793 0.68745 0.0
H781 H 0.74858 0.17005 0.8034 0.0
H782 H 0.77156 0.18507 0.07764 0.0
H783 H 0.76943 0.18905 0.975 0.0
C784 C 0.88683 0.54782 0.29494 0.0
C785 C 0.89741 0.55736 0.32482 0.0
C786 C 0.88824 0.54553 0.23643 0.0
C787 C 0.90574 0.55923 0.10297 0.0
H788 H 0.89726 0.51903 0.06176 0.0
C789 C 0.90825 0.53821 0.86895 0.0
C790 C 0.89586 0.52852 0.85238 0.0
C791 C 0.9104 0.54227 0.92654 0.0
C792 C 0.89966 0.53029 0.07261 0.0
H793 H 0.91736 0.57263 0.31643 0.0
H794 H 0.91985 0.56856 0.21279 0.0
H795 H 0.8973 0.52594 0.16253 0.0
H796 H 0.87636 0.51496 0.88259 0.0
H797 H 0.88014 0.5219 0.9832 0.0
H798 H 0.9078 0.56351 0.0124 0.0
C799 C 0.91049 0.56288 0.23523 0.0
C800 C 0.89967 0.53425 0.13017 0.0
C801 C 0.90905 0.56523 0.29429 0.0
C802 C 0.88595 0.52252 0.89437 0.0
C803 C 0.88814 0.52647 0.95184 0.0
C804 C 0.90575 0.55525 0.04503 0.0
C805 C 0.9003 0.55266 0.20637 0.0
C806 C 0.90226 0.54875 0.14581 0.0
C807 C 0.90033 0.53645 0.96843 0.0
C808 C 0.90228 0.54074 0.02941 0.0
H809 H 0.87762 0.54178 0.31715 0.0
H810 H 0.88003 0.53789 0.21489 0.0
H811 H 0.90779 0.57048 0.11401 0.0
H812 H 0.91638 0.54246 0.83767 0.0
H813 H 0.92 0.54979 0.93846 0.0
C814 C 0.74754 0.65936 0.45806 0.0
C815 C 0.75408 0.66863 0.50131 0.0
C816 C 0.75157 0.66181 0.40078 0.0
C817 C 0.78116 0.67875 0.30949 0.0
H818 H 0.75199 0.67236 0.19109 0.0
C819 C 0.79153 0.68299 0.06043 0.0
C820 C 0.78338 0.67162 0.02935 0.0
C821 C 0.78917 0.68434 0.11953 0.0
C822 C 0.76025 0.67417 0.22372 0.0
H823 H 0.76918 0.68837 0.51783 0.0
H824 H 0.77653 0.69241 0.41766 0.0
H825 H 0.74495 0.672 0.29179 0.0
H826 H 0.76726 0.65219 0.03604 0.0
H827 H 0.76331 0.65446 0.13829 0.0
H828 H 0.79645 0.68055 0.24078 0.0
C829 C 0.76852 0.68309 0.42852 0.0
C830 C 0.75623 0.67396 0.28124 0.0
C831 C 0.76441 0.68067 0.48593 0.0
C832 C 0.77352 0.66121 0.05867 0.0
C833 C 0.7712 0.66254 0.11717 0.0
C834 C 0.78521 0.67895 0.25159 0.0
C835 C 0.76217 0.67363 0.38549 0.0
C836 C 0.76661 0.67582 0.32473 0.0
C837 C 0.77864 0.67433 0.14781 0.0
C838 C 0.77475 0.67621 0.20842 0.0
H839 H 0.73953 0.65001 0.46864 0.0
H840 H 0.74659 0.65425 0.36853 0.0
H841 H 0.78937 0.68019 0.34231 0.0
H842 H 0.7992 0.69116 0.03872 0.0
H843 H 0.79509 0.69349 0.14248 0.0
C844 C 0.60912 0.49612 0.80034 0.0
C845 C 0.59814 0.4868 0.82908 0.0
C846 C 0.60821 0.49849 0.74168 0.0
C847 C 0.59153 0.48537 0.60631 0.0
H848 H 0.60086 0.52565 0.56643 0.0
C849 C 0.59066 0.50666 0.37236 0.0
C850 C 0.60297 0.51659 0.35673 0.0
C851 C 0.58826 0.50252 0.42975 0.0
C852 C 0.59826 0.51436 0.57687 0.0
H853 H 0.57798 0.47196 0.81861 0.0
H854 H 0.57635 0.4762 0.71458 0.0
H855 H 0.60005 0.5185 0.66704 0.0
H856 H 0.62215 0.53038 0.38878 0.0
H857 H 0.61797 0.52324 0.4889 0.0
H858 H 0.59007 0.4813 0.51556 0.0
C859 C 0.58564 0.48164 0.73807 0.0
C860 C 0.59778 0.51027 0.63436 0.0
C861 C 0.58658 0.4792 0.79732 0.0
C862 C 0.61258 0.52268 0.39964 0.0
C863 C 0.61017 0.51861 0.45691 0.0
C864 C 0.59201 0.48949 0.54843 0.0
C865 C 0.59626 0.49167 0.71032 0.0
C866 C 0.59484 0.49574 0.64959 0.0
C867 C 0.59803 0.50843 0.47249 0.0
C868 C 0.59578 0.50402 0.53329 0.0
H869 H 0.61828 0.50194 0.82357 0.0
H870 H 0.61673 0.50597 0.72102 0.0
H871 H 0.58923 0.4741 0.61705 0.0
H872 H 0.58274 0.50225 0.34067 0.0
H873 H 0.57869 0.49485 0.44081 0.0
C874 C 0.72036 0.36573 0.55299 0.0
C875 C 0.71326 0.3764 0.5331 0.0
C876 C 0.72177 0.36349 0.61171 0.0
C877 C 0.70936 0.37035 0.75614 0.0
H878 H 0.74939 0.37455 0.79701 0.0
C879 C 0.72975 0.3842 0.98578 0.0
C880 C 0.74147 0.37877 0.00586 0.0
C881 C 0.72518 0.38194 0.929 0.0
C882 C 0.73813 0.37303 0.78661 0.0
H883 H 0.70103 0.39224 0.55905 0.0
H884 H 0.70347 0.38825 0.66224 0.0
H885 H 0.74246 0.37333 0.6964 0.0
H886 H 0.75761 0.36666 0.98341 0.0
H887 H 0.74937 0.36221 0.88431 0.0
H888 H 0.70501 0.36998 0.84641 0.0
C889 C 0.70798 0.3817 0.63207 0.0
C890 C 0.73418 0.37239 0.72887 0.0
C891 C 0.70663 0.38401 0.57309 0.0
C892 C 0.74855 0.37097 0.96855 0.0
C893 C 0.74385 0.36849 0.91189 0.0
C894 C 0.7133 0.37078 0.81411 0.0
C895 C 0.71602 0.37179 0.65172 0.0
C896 C 0.7198 0.37124 0.71312 0.0
C897 C 0.73218 0.37407 0.89127 0.0
C898 C 0.72777 0.37236 0.83001 0.0
H899 H 0.72542 0.35952 0.52333 0.0
H900 H 0.72783 0.35565 0.62591 0.0
H901 H 0.6982 0.36938 0.74491 0.0
H902 H 0.72435 0.39057 0.01348 0.0
H903 H 0.71642 0.38672 0.91437 0.0
C904 C 0.09191 0.49583 0.78063 0.0
C905 C 0.10302 0.48942 0.76017 0.0
C906 C 0.08984 0.49721 0.8395 0.0
C907 C 0.09872 0.48582 0.98376 0.0
H908 H 0.10033 0.5256 0.02343 0.0
C909 C 0.11383 0.50755 0.21035 0.0
C910 C 0.10732 0.51841 0.23202 0.0
C911 C 0.11143 0.50292 0.15372 0.0
C912 C 0.09956 0.5144 0.01337 0.0
H913 H 0.11984 0.4783 0.78534 0.0
H914 H 0.11615 0.48071 0.8886 0.0
H915 H 0.09852 0.51835 0.92315 0.0
H916 H 0.0933 0.53304 0.21232 0.0
H917 H 0.08874 0.52472 0.11338 0.0
H918 H 0.09978 0.48186 0.07404 0.0
C919 C 0.10912 0.4847 0.85885 0.0
C920 C 0.09855 0.51025 0.95583 0.0
C921 C 0.11126 0.48338 0.79979 0.0
C922 C 0.09846 0.52467 0.19622 0.0
C923 C 0.09589 0.51991 0.13968 0.0
C924 C 0.09955 0.48994 0.04151 0.0
C925 C 0.09875 0.49212 0.87906 0.0
C926 C 0.09834 0.49598 0.94045 0.0
C927 C 0.10239 0.50899 0.11772 0.0
C928 C 0.10025 0.50433 0.05691 0.0
H929 H 0.08523 0.50041 0.75126 0.0
H930 H 0.08163 0.50277 0.85411 0.0
H931 H 0.09847 0.47474 0.97289 0.0
H932 H 0.12099 0.50281 0.23687 0.0
H933 H 0.11692 0.49478 0.13789 0.0
C934 C 0.22742 0.37838 0.04505 0.0
C935 C 0.21484 0.37156 0.07268 0.0
C936 C 0.22951 0.37616 0.98696 0.0
C937 C 0.21149 0.36521 0.85125 0.0
H938 H 0.25016 0.36306 0.80575 0.0
C939 C 0.23079 0.36307 0.61386 0.0
C940 C 0.24201 0.37461 0.60129 0.0
C941 C 0.22654 0.35994 0.67071 0.0
C942 C 0.2393 0.36353 0.81791 0.0
H943 H 0.19434 0.35737 0.06072 0.0
H944 H 0.19807 0.35339 0.95783 0.0
H945 H 0.24385 0.36227 0.90742 0.0
H946 H 0.25807 0.39136 0.63896 0.0
H947 H 0.25092 0.38557 0.73803 0.0
H948 H 0.20713 0.36671 0.7611 0.0
C949 C 0.20628 0.36047 0.98174 0.0
C950 C 0.23568 0.36313 0.87595 0.0
C951 C 0.20414 0.36276 0.04042 0.0
C952 C 0.24934 0.38246 0.64698 0.0
C953 C 0.24526 0.37916 0.70369 0.0
C954 C 0.21509 0.36544 0.79287 0.0
C955 C 0.21912 0.36698 0.95483 0.0
C956 C 0.22193 0.36459 0.89333 0.0
C957 C 0.23373 0.368 0.71594 0.0
C958 C 0.22917 0.36514 0.77607 0.0
H959 H 0.23578 0.38543 0.06842 0.0
H960 H 0.23931 0.38171 0.96713 0.0
H961 H 0.20082 0.36637 0.86341 0.0
H962 H 0.22538 0.35629 0.58033 0.0
H963 H 0.21776 0.35113 0.67943 0.0
C964 C 0.40708 0.53823 0.72694 0.0
C965 C 0.3953 0.52757 0.74227 0.0
C966 C 0.4094 0.54238 0.66951 0.0
C967 C 0.40072 0.52986 0.52218 0.0
H968 H 0.40581 0.57002 0.48164 0.0
C969 C 0.38718 0.54658 0.29955 0.0
C970 C 0.39723 0.55682 0.27027 0.0
C971 C 0.38864 0.54428 0.35801 0.0
C972 C 0.40463 0.55881 0.49247 0.0
H973 H 0.37709 0.51248 0.70944 0.0
H974 H 0.38119 0.51961 0.60933 0.0
H975 H 0.40573 0.56298 0.58319 0.0
H976 H 0.41626 0.57329 0.27975 0.0
H977 H 0.41882 0.56923 0.38342 0.0
H978 H 0.39926 0.5256 0.43203 0.0
C979 C 0.3886 0.52481 0.64164 0.0
C980 C 0.40459 0.55478 0.55038 0.0
C981 C 0.38623 0.52075 0.69893 0.0
C982 C 0.40837 0.56533 0.3014 0.0
C983 C 0.40985 0.56299 0.36046 0.0
C984 C 0.40077 0.53387 0.46464 0.0
C985 C 0.40013 0.53574 0.62642 0.0
C986 C 0.40219 0.54023 0.56565 0.0
C987 C 0.40021 0.55212 0.38868 0.0
C988 C 0.40226 0.54833 0.4493 0.0
H989 H 0.41463 0.54325 0.75889 0.0
H990 H 0.41851 0.55066 0.65871 0.0
H991 H 0.39917 0.5186 0.53276 0.0
H992 H 0.37833 0.54002 0.27691 0.0
H993 H 0.38083 0.53611 0.37908 0.0
C994 C 0.26727 0.66038 0.13044 0.0
C995 C 0.25529 0.66523 0.10952 0.0
C996 C 0.27182 0.66323 0.18698 0.0
C997 C 0.25819 0.67223 0.32767 0.0
H998 H 0.29814 0.67779 0.37146 0.0
C999 C 0.27445 0.68001 0.56231 0.0
C1000 C 0.28234 0.67002 0.58257 0.0
C1001 C 0.27327 0.68232 0.50354 0.0
C1002 C 0.28696 0.67628 0.35966 0.0
H1003 H 0.23873 0.677 0.13017 0.0
H1004 H 0.24688 0.6824 0.22871 0.0
H1005 H 0.2916 0.67649 0.26956 0.0
H1006 H 0.29617 0.65554 0.55747 0.0
H1007 H 0.29401 0.65957 0.45422 0.0
H1008 H 0.25354 0.67195 0.41752 0.0
C1009 C 0.25263 0.67613 0.20201 0.0
C1010 C 0.28319 0.67547 0.30147 0.0
C1011 C 0.24798 0.6731 0.14566 0.0
C1012 C 0.28994 0.66323 0.54309 0.0
C1013 C 0.28876 0.66558 0.48406 0.0
C1014 C 0.26196 0.67321 0.38557 0.0
C1015 C 0.26451 0.67108 0.22358 0.0
C1016 C 0.26873 0.67321 0.28488 0.0
C1017 C 0.27996 0.67473 0.46385 0.0
C1018 C 0.27635 0.67506 0.40215 0.0
H1019 H 0.27288 0.654 0.10366 0.0
H1020 H 0.28079 0.65888 0.20245 0.0
H1021 H 0.24694 0.67018 0.31669 0.0
H1022 H 0.26866 0.6856 0.59168 0.0
H1023 H 0.26662 0.68962 0.489 0.0
C1024 C 0.36709 0.0724 0.15444 0.0
C1025 C 0.36957 0.07005 0.09591 0.0
C1026 C 0.35965 0.08295 0.17108 0.0
C1027 C 0.33247 0.10173 0.11831 0.0
H1028 H 0.34332 0.12658 0.2495 0.0
C1029 C 0.29826 0.14202 0.18791 0.0
C1030 C 0.29601 0.14334 0.24724 0.0
C1031 C 0.30863 0.13474 0.16783 0.0
C1032 C 0.34007 0.11963 0.21309 0.0
H1033 H 0.36652 0.07724 0.00906 0.0
H1034 H 0.35338 0.09562 0.03829 0.0
H1035 H 0.35907 0.11083 0.21719 0.0
H1036 H 0.30314 0.13839 0.33208 0.0
H1037 H 0.32097 0.12531 0.29711 0.0
H1038 H 0.31328 0.11003 0.11514 0.0
C1039 C 0.35719 0.08923 0.07115 0.0
C1040 C 0.34913 0.11066 0.19449 0.0
C1041 C 0.36477 0.07876 0.05448 0.0
C1042 C 0.30464 0.13758 0.2861 0.0
C1043 C 0.31492 0.13014 0.26599 0.0
C1044 C 0.32337 0.11059 0.13715 0.0
C1045 C 0.35441 0.09131 0.12958 0.0
C1046 C 0.34536 0.10155 0.14716 0.0
C1047 C 0.31689 0.12845 0.20657 0.0
C1048 C 0.327 0.11959 0.18503 0.0
H1049 H 0.37071 0.06593 0.1875 0.0
H1050 H 0.35756 0.08423 0.21639 0.0
H1051 H 0.32918 0.09465 0.08229 0.0
H1052 H 0.29192 0.1465 0.15679 0.0
H1053 H 0.31006 0.13394 0.12183 0.0
C1054 C 0.14766 0.0519 0.55367 0.0
C1055 C 0.13973 0.04255 0.51349 0.0
C1056 C 0.15809 0.06343 0.53515 0.0
C1057 C 0.16952 0.08651 0.40977 0.0
H1058 H 0.20693 0.09245 0.48111 0.0
C1059 C 0.21875 0.12383 0.31134 0.0
C1060 C 0.2287 0.13178 0.34931 0.0
C1061 C 0.20745 0.1135 0.33243 0.0
C1062 C 0.19649 0.09111 0.46125 0.0
H1063 H 0.13638 0.03818 0.42229 0.0
H1064 H 0.15449 0.05828 0.39031 0.0
H1065 H 0.18787 0.07371 0.51719 0.0
H1066 H 0.23432 0.13541 0.43934 0.0
H1067 H 0.2145 0.11772 0.47593 0.0
H1068 H 0.17808 0.10393 0.35394 0.0
C1069 C 0.15262 0.05672 0.43604 0.0
C1070 C 0.18557 0.08035 0.48195 0.0
C1071 C 0.14231 0.04514 0.45447 0.0
C1072 C 0.22694 0.12937 0.40879 0.0
C1073 C 0.2156 0.11916 0.42983 0.0
C1074 C 0.1804 0.09735 0.3893 0.0
C1075 C 0.16068 0.06593 0.47613 0.0
C1076 C 0.17201 0.07786 0.45613 0.0
C1077 C 0.20579 0.11099 0.39195 0.0
C1078 C 0.19406 0.09972 0.41452 0.0
H1079 H 0.14593 0.05022 0.59941 0.0
H1080 H 0.16408 0.07044 0.56699 0.0
H1081 H 0.15911 0.08494 0.38947 0.0
H1082 H 0.21983 0.1254 0.26528 0.0
H1083 H 0.2002 0.10729 0.30196 0.0
C1084 C 0.19805 0.9015 0.69108 0.0
C1085 C 0.20068 0.90055 0.75031 0.0
C1086 C 0.18752 0.90861 0.67126 0.0
C1087 C 0.15637 0.924 0.71835 0.0
H1088 H 0.16646 0.94843 0.58526 0.0
C1089 C 0.13001 0.97182 0.6627 0.0
C1090 C 0.12702 0.97413 0.60461 0.0
C1091 C 0.13728 0.96104 0.6783 0.0
C1092 C 0.16338 0.9415 0.62193 0.0
H1093 H 0.19406 0.90602 0.83526 0.0
H1094 H 0.17598 0.9188 0.80071 0.0
H1095 H 0.18242 0.93296 0.61681 0.0
H1096 H 0.12903 0.96661 0.51744 0.0
H1097 H 0.14188 0.94787 0.54484 0.0
H1098 H 0.13757 0.93308 0.72448 0.0
C1099 C 0.18184 0.91379 0.76949 0.0
C1100 C 0.17252 0.93259 0.64003 0.0
C1101 C 0.19227 0.90653 0.78936 0.0
C1102 C 0.13116 0.96515 0.56259 0.0
C1103 C 0.13857 0.95445 0.57818 0.0
C1104 C 0.1473 0.93303 0.70051 0.0
C1105 C 0.17947 0.9151 0.71014 0.0
C1106 C 0.16921 0.92383 0.68884 0.0
C1107 C 0.14185 0.95241 0.63614 0.0
C1108 C 0.15079 0.94197 0.65247 0.0
H1109 H 0.20422 0.89684 0.65985 0.0
H1110 H 0.18579 0.90913 0.62533 0.0
H1111 H 0.15336 0.91723 0.75548 0.0
H1112 H 0.12701 0.97853 0.69617 0.0
H1113 H 0.13979 0.95982 0.72325 0.0
C1114 C 0.35641 -0.00043 0.94485 0.0
C1115 C 0.35846 0.00196 0.0042 0.0
C1116 C 0.34615 0.98814 0.92478 0.0
C1117 C 0.32337 0.95376 0.96962 0.0
H1118 H 0.30082 0.96037 0.83709 0.0
C1119 C 0.27089 0.91601 0.90474 0.0
C1120 C 0.26869 0.91284 0.84596 0.0
C1121 C 0.28253 0.92629 0.92283 0.0
C1122 C 0.30715 0.95831 0.87369 0.0
H1123 H 0.35141 0.99412 0.08905 0.0
H1124 H 0.33324 0.97436 0.054 0.0
H1125 H 0.31972 0.97946 0.87169 0.0
H1126 H 0.27708 0.91795 0.7601 0.0
H1127 H 0.2974 0.93605 0.79188 0.0
H1128 H 0.31049 0.93269 0.97222 0.0
C1129 C 0.33976 0.98117 0.02293 0.0
C1130 C 0.318 0.96924 0.89353 0.0
C1131 C 0.35013 0.99255 0.04306 0.0
C1132 C 0.27846 0.92014 0.80568 0.0
C1133 C 0.29005 0.93054 0.82381 0.0
C1134 C 0.31244 0.94287 0.94999 0.0
C1135 C 0.33758 0.97889 0.96351 0.0
C1136 C 0.32623 0.96712 0.94186 0.0
C1137 C 0.29218 0.93373 0.88257 0.0
C1138 C 0.30418 0.94506 0.90197 0.0
H1139 H 0.36275 0.00652 0.91367 0.0
H1140 H 0.34498 0.98655 0.87878 0.0
H1141 H 0.32965 0.95167 0.00632 0.0
H1142 H 0.2636 0.91056 0.93698 0.0
H1143 H 0.28381 0.92863 0.96834 0.0
C1144 C 0.69147 0.90456 0.81038 0.0
C1145 C 0.70063 0.90047 0.85185 0.0
C1146 C 0.6809 0.91205 0.82655 0.0
C1147 C 0.66009 0.92132 0.94962 0.0
H1148 H 0.65982 0.95607 0.86345 0.0
C1149 C 0.63309 0.96649 0.03404 0.0
C1150 C 0.6271 0.97463 0.99392 0.0
C1151 C 0.64049 0.95603 0.01549 0.0
C1152 C 0.6595 0.94627 0.88739 0.0
H1153 H 0.70542 0.90052 0.94315 0.0
H1154 H 0.68692 0.91352 0.97122 0.0
H1155 H 0.67525 0.94002 0.83286 0.0
H1156 H 0.62346 0.97765 0.90301 0.0
H1157 H 0.63594 0.95917 0.8708 0.0
H1158 H 0.64434 0.92758 0.00427 0.0
C1159 C 0.68794 0.91092 0.92626 0.0
C1160 C 0.6684 0.93709 0.86985 0.0
C1161 C 0.69859 0.90354 0.91007 0.0
C1162 C 0.62813 0.9717 0.93502 0.0
C1163 C 0.63536 0.96114 0.91652 0.0
C1164 C 0.65107 0.93045 0.96691 0.0
C1165 C 0.67917 0.91549 0.88454 0.0
C1166 C 0.66891 0.9246 0.90111 0.0
C1167 C 0.6419 0.95338 0.95642 0.0
C1168 C 0.65078 0.94313 0.93636 0.0
H1169 H 0.69271 0.90233 0.76518 0.0
H1170 H 0.67419 0.91532 0.79356 0.0
H1171 H 0.66019 0.91169 0.9742 0.0
H1172 H 0.63251 0.96852 0.07973 0.0
H1173 H 0.64552 0.95039 0.04745 0.0
C1174 C 0.77791 0.92149 0.79195 0.0
C1175 C 0.76834 0.91315 0.75368 0.0
C1176 C 0.78919 0.93188 0.77108 0.0
C1177 C 0.80065 0.95357 0.64076 0.0
H1178 H 0.83767 0.96062 0.71562 0.0
C1179 C 0.84975 0.99208 0.54691 0.0
C1180 C 0.85749 0.00182 0.5862 0.0
C1181 C 0.83926 0.9807 0.56639 0.0
C1182 C 0.82736 0.9588 0.69447 0.0
H1183 H 0.76338 0.90892 0.66342 0.0
H1184 H 0.78313 0.92672 0.62729 0.0
H1185 H 0.81864 0.9418 0.75198 0.0
H1186 H 0.86046 0.00706 0.67688 0.0
H1187 H 0.84225 0.98725 0.71053 0.0
H1188 H 0.80943 0.97053 0.58309 0.0
C1189 C 0.78175 0.92554 0.67339 0.0
C1190 C 0.81644 0.94807 0.71541 0.0
C1191 C 0.77045 0.91525 0.69419 0.0
C1192 C 0.85468 -0.00021 0.64535 0.0
C1193 C 0.84431 0.98838 0.66477 0.0
C1194 C 0.8116 0.96422 0.61961 0.0
C1195 C 0.79119 0.93408 0.7115 0.0
C1196 C 0.80292 0.94536 0.68897 0.0
C1197 C 0.83643 0.97877 0.62553 0.0
C1198 C 0.82503 0.96701 0.64644 0.0
H1199 H 0.77656 0.92016 0.83802 0.0
H1200 H 0.79616 0.93839 0.80169 0.0
H1201 H 0.79031 0.95197 0.61993 0.0
H1202 H 0.85167 0.99332 0.50109 0.0
H1203 H 0.83341 0.97338 0.53521 0.0
C1204 C 0.86939 0.07223 0.42866 0.0
C1205 C 0.87041 0.06948 0.48775 0.0
C1206 C 0.86217 0.08273 0.4094 0.0
C1207 C 0.84634 0.11349 0.45811 0.0
H1208 H 0.82216 0.10356 0.32432 0.0
C1209 C 0.79832 0.13957 0.40238 0.0
C1210 C 0.79633 0.14296 0.34443 0.0
C1211 C 0.80903 0.13223 0.41804 0.0
C1212 C 0.82901 0.10659 0.36123 0.0
H1213 H 0.86497 0.07586 0.57309 0.0
H1214 H 0.85197 0.09387 0.53954 0.0
H1215 H 0.83779 0.08771 0.35534 0.0
H1216 H 0.80429 0.1415 0.25759 0.0
H1217 H 0.82289 0.12847 0.28505 0.0
H1218 H 0.83701 0.13212 0.46503 0.0
C1219 C 0.85702 0.08815 0.50797 0.0
C1220 C 0.83802 0.09752 0.37901 0.0
C1221 C 0.86441 0.07776 0.52727 0.0
C1222 C 0.80551 0.13906 0.30261 0.0
C1223 C 0.81613 0.13156 0.31824 0.0
C1224 C 0.8372 0.12249 0.44063 0.0
C1225 C 0.85561 0.09061 0.44873 0.0
C1226 C 0.84672 0.10078 0.42799 0.0
C1227 C 0.81789 0.12796 0.37604 0.0
C1228 C 0.82837 0.11905 0.3923 0.0
H1229 H 0.87405 0.06615 0.39709 0.0
H1230 H 0.8616 0.08455 0.36355 0.0
H1231 H 0.85306 0.11648 0.4954 0.0
H1232 H 0.79144 0.14238 0.4357 0.0
H1233 H 0.81005 0.12945 0.46283 0.0
C1234 C 0.719 0.12409 0.28539 0.0
C1235 C 0.72868 0.13212 0.2466 0.0
C1236 C 0.70771 0.11364 0.26534 0.0
C1237 C 0.6857 0.10182 0.13785 0.0
H1238 H 0.67937 0.06482 0.21298 0.0
C1239 C 0.64732 0.05214 0.04651 0.0
C1240 C 0.63934 0.04271 0.0863 0.0
C1241 C 0.6579 0.06349 0.06544 0.0
C1242 C 0.68083 0.07514 0.19198 0.0
H1243 H 0.73387 0.13569 0.15615 0.0
H1244 H 0.71413 0.11745 0.12132 0.0
H1245 H 0.69816 0.08395 0.24769 0.0
H1246 H 0.63589 0.03811 0.17725 0.0
H1247 H 0.65402 0.058 0.21008 0.0
H1248 H 0.66827 0.09304 0.0824 0.0
C1249 C 0.71528 0.11929 0.16721 0.0
C1250 C 0.69163 0.0861 0.21187 0.0
C1251 C 0.72664 0.12967 0.18724 0.0
C1252 C 0.64195 0.04507 0.14536 0.0
C1253 C 0.65242 0.05644 0.16423 0.0
C1254 C 0.6748 0.09087 0.11815 0.0
C1255 C 0.70579 0.11106 0.20608 0.0
C1256 C 0.69418 0.09955 0.18506 0.0
C1257 C 0.66065 0.0657 0.12456 0.0
C1258 C 0.67223 0.0774 0.14505 0.0
H1259 H 0.72022 0.12573 0.33136 0.0
H1260 H 0.70046 0.10758 0.29627 0.0
H1261 H 0.68735 0.11213 0.11668 0.0
H1262 H 0.64559 0.05061 0.0007 0.0
H1263 H 0.66414 0.07033 0.03368 0.0
C1264 C 0.79912 0.64289 0.68891 0.0
C1265 C 0.79622 0.64396 0.74782 0.0
C1266 C 0.80976 0.63576 0.67042 0.0
C1267 C 0.84062 0.6203 0.72079 0.0
H1268 H 0.83103 0.59591 0.58741 0.0
C1269 C 0.86755 0.57272 0.66451 0.0
C1270 C 0.87055 0.57062 0.60626 0.0
C1271 C 0.86022 0.58341 0.68067 0.0
C1272 C 0.83397 0.60283 0.62421 0.0
H1273 H 0.80248 0.63872 0.83365 0.0
H1274 H 0.82073 0.62588 0.80141 0.0
H1275 H 0.81495 0.61133 0.61778 0.0
H1276 H 0.86862 0.5785 0.51953 0.0
H1277 H 0.85571 0.59707 0.54787 0.0
H1278 H 0.85942 0.61125 0.72814 0.0
C1279 C 0.81501 0.63082 0.76941 0.0
C1280 C 0.82477 0.61171 0.64162 0.0
C1281 C 0.80448 0.63812 0.78795 0.0
C1282 C 0.86645 0.57977 0.56476 0.0
C1283 C 0.85901 0.59037 0.5809 0.0
C1284 C 0.84977 0.61128 0.70364 0.0
C1285 C 0.81762 0.62935 0.71034 0.0
C1286 C 0.82791 0.62051 0.69034 0.0
C1287 C 0.85561 0.59215 0.6389 0.0
C1288 C 0.84648 0.6024 0.65537 0.0
H1289 H 0.79307 0.64744 0.65689 0.0
H1290 H 0.81169 0.63515 0.62468 0.0
H1291 H 0.8435 0.62708 0.75796 0.0
H1292 H 0.87056 0.56589 0.6976 0.0
H1293 H 0.85765 0.58446 0.72565 0.0
C1294 C 0.71862 0.62307 0.80436 0.0
C1295 C 0.72828 0.63084 0.84387 0.0
C1296 C 0.70719 0.61262 0.82361 0.0
C1297 C 0.68496 0.60094 0.95098 0.0
H1298 H 0.67816 0.56379 0.87731 0.0
C1299 C 0.64739 0.55168 0.04858 0.0
C1300 C 0.63912 0.54205 0.01035 0.0
C1301 C 0.65781 0.56294 0.0277 0.0
C1302 C 0.67975 0.57416 0.89788 0.0
H1303 H 0.73333 0.6339 0.93469 0.0
H1304 H 0.71341 0.61575 0.96796 0.0
H1305 H 0.69686 0.58282 0.84073 0.0
H1306 H 0.63504 0.53694 0.92011 0.0
H1307 H 0.65289 0.55666 0.88394 0.0
H1308 H 0.66781 0.59235 0.00798 0.0
C1309 C 0.71465 0.61776 0.92219 0.0
C1310 C 0.69049 0.58505 0.87689 0.0
C1311 C 0.72612 0.62809 0.903 0.0
C1312 C 0.64132 0.54407 0.95086 0.0
C1313 C 0.65163 0.55535 0.93004 0.0
C1314 C 0.67414 0.59008 0.97176 0.0
C1315 C 0.70511 0.60985 0.88274 0.0
C1316 C 0.69326 0.59852 0.90343 0.0
C1317 C 0.66011 0.56485 0.96814 0.0
C1318 C 0.67145 0.57653 0.94565 0.0
H1319 H 0.71997 0.62494 0.75855 0.0
H1320 H 0.69993 0.60675 0.79227 0.0
H1321 H 0.68676 0.61128 0.9719 0.0
H1322 H 0.64598 0.55041 0.09465 0.0
H1323 H 0.66426 0.56995 0.05831 0.0
C1324 C 0.63154 0.46566 0.06781 0.0
C1325 C 0.62684 0.47451 0.10894 0.0
C1326 C 0.63917 0.45527 0.08475 0.0
C1327 C 0.64779 0.43407 0.20748 0.0
H1328 H 0.68361 0.43544 0.127 0.0
C1329 C 0.69242 0.40619 0.29279 0.0
C1330 C 0.70103 0.4009 0.25237 0.0
C1331 C 0.68212 0.41385 0.27471 0.0
C1332 C 0.67353 0.43467 0.14932 0.0
H1333 H 0.62586 0.47888 0.20034 0.0
H1334 H 0.63912 0.46065 0.22976 0.0
H1335 H 0.66751 0.45076 0.09591 0.0
H1336 H 0.70508 0.39893 0.16124 0.0
H1337 H 0.68684 0.4117 0.12973 0.0
H1338 H 0.65378 0.4179 0.2608 0.0
C1339 C 0.63691 0.46181 0.18447 0.0
C1340 C 0.66432 0.44351 0.13151 0.0
C1341 C 0.62941 0.47231 0.16753 0.0
C1342 C 0.69873 0.40294 0.19354 0.0
C1343 C 0.68832 0.41039 0.17547 0.0
C1344 C 0.65695 0.42508 0.22497 0.0
C1345 C 0.64212 0.4534 0.14315 0.0
C1346 C 0.65141 0.44337 0.16059 0.0
C1347 C 0.68009 0.41623 0.21578 0.0
C1348 C 0.66999 0.42533 0.19629 0.0
H1349 H 0.62971 0.46705 0.02236 0.0
H1350 H 0.64295 0.44882 0.05207 0.0
H1351 H 0.63784 0.43371 0.23041 0.0
H1352 H 0.69397 0.40484 0.33848 0.0
H1353 H 0.6761 0.41831 0.30705 0.0
C1354 C 0.77775 0.42037 0.3177 0.0
C1355 C 0.76802 0.41221 0.35594 0.0
C1356 C 0.7888 0.43099 0.33836 0.0
C1357 C 0.81024 0.44319 0.46675 0.0
H1358 H 0.81618 0.48011 0.39109 0.0
C1359 C 0.84881 0.4932 0.55554 0.0
C1360 C 0.85671 0.50243 0.51489 0.0
C1361 C 0.83809 0.48184 0.53766 0.0
C1362 C 0.81481 0.46982 0.41228 0.0
H1363 H 0.7625 0.40857 0.44607 0.0
H1364 H 0.78185 0.42709 0.48199 0.0
H1365 H 0.7976 0.46077 0.35646 0.0
H1366 H 0.85987 0.50665 0.42352 0.0
H1367 H 0.84153 0.48678 0.39258 0.0
H1368 H 0.8276 0.4522 0.5222 0.0
C1369 C 0.78091 0.42524 0.43606 0.0
C1370 C 0.80414 0.45874 0.39244 0.0
C1371 C 0.76978 0.41469 0.4154 0.0
C1372 C 0.85388 0.49987 0.45609 0.0
C1373 C 0.84328 0.4885 0.43829 0.0
C1374 C 0.82102 0.45426 0.48641 0.0
C1375 C 0.79042 0.43361 0.39771 0.0
C1376 C 0.80177 0.4453 0.41927 0.0
C1377 C 0.83512 0.47944 0.47877 0.0
C1378 C 0.82348 0.46769 0.45918 0.0
H1379 H 0.77674 0.41872 0.27167 0.0
H1380 H 0.79609 0.43717 0.30785 0.0
H1381 H 0.80871 0.43289 0.488 0.0
H1382 H 0.85073 0.49489 0.60117 0.0
H1383 H 0.83193 0.47513 0.57001 0.0
C1384 C 0.13148 0.47538 0.42613 0.0
C1385 C 0.12889 0.47779 0.4844 0.0
C1386 C 0.1392 0.46504 0.41 0.0
C1387 C 0.15344 0.43379 0.46362 0.0
H1388 H 0.17981 0.44381 0.33642 0.0
C1389 C 0.19994 0.40486 0.4095 0.0
C1390 C 0.20208 0.4021 0.35105 0.0
C1391 C 0.18974 0.41279 0.4259 0.0
C1392 C 0.17238 0.44078 0.37156 0.0
H1393 H 0.13221 0.47103 0.5716 0.0
H1394 H 0.14615 0.45326 0.54359 0.0
H1395 H 0.16465 0.46024 0.3655 0.0
H1396 H 0.19488 0.40509 0.26417 0.0
H1397 H 0.17719 0.41907 0.29292 0.0
H1398 H 0.16169 0.41449 0.47052 0.0
C1399 C 0.14191 0.45915 0.51016 0.0
C1400 C 0.16363 0.45018 0.38821 0.0
C1401 C 0.13397 0.4694 0.52628 0.0
C1402 C 0.19352 0.40706 0.30952 0.0
C1403 C 0.18344 0.41512 0.32591 0.0
C1404 C 0.16234 0.42444 0.4473 0.0
C1405 C 0.14478 0.45698 0.45179 0.0
C1406 C 0.154 0.44681 0.4343 0.0
C1407 C 0.1816 0.41824 0.38416 0.0
C1408 C 0.17185 0.42785 0.40098 0.0
H1409 H 0.12763 0.48155 0.39276 0.0
H1410 H 0.14088 0.46344 0.3646 0.0
H1411 H 0.14604 0.43076 0.49883 0.0
H1412 H 0.2063 0.40112 0.44261 0.0
H1413 H 0.1886 0.41511 0.47108 0.0
C1414 C 0.27153 0.41374 0.19486 0.0
C1415 C 0.2695 0.41191 0.25451 0.0
C1416 C 0.28285 0.42388 0.17324 0.0
C1417 C 0.31756 0.44671 0.21346 0.0
H1418 H 0.31003 0.46892 0.08116 0.0
C1419 C 0.35481 0.49901 0.14363 0.0
C1420 C 0.35757 0.50116 0.0845 0.0
C1421 C 0.34467 0.48738 0.16289 0.0
C1422 C 0.31235 0.46268 0.11765 0.0
H1423 H 0.27792 0.4192 0.33827 0.0
H1424 H 0.29753 0.43717 0.30051 0.0
H1425 H 0.29118 0.45015 0.11845 0.0
H1426 H 0.35189 0.49266 -0.00074 0.0
H1427 H 0.33403 0.47235 0.03312 0.0
H1428 H 0.33865 0.45955 0.21328 0.0
C1429 C 0.29049 0.43057 0.27041 0.0
C1430 C 0.30156 0.4519 0.13905 0.0
C1431 C 0.2792 0.42032 0.29209 0.0
C1432 C 0.35001 0.49133 0.04507 0.0
C1433 C 0.33975 0.47974 0.0644 0.0
C1434 C 0.32832 0.45756 0.19227 0.0
C1435 C 0.29238 0.43255 0.21068 0.0
C1436 C 0.304 0.44381 0.18736 0.0
C1437 C 0.33697 0.47768 0.12352 0.0
C1438 C 0.3258 0.4657 0.14432 0.0
H1439 H 0.26435 0.40733 0.16462 0.0
H1440 H 0.28414 0.42489 0.12705 0.0
H1441 H 0.31989 0.44053 0.25009 0.0
H1442 H 0.36046 0.50633 0.17526 0.0
H1443 H 0.34265 0.48616 0.20865 0.0
C1444 C 0.30324 0.63858 0.81086 0.0
C1445 C 0.29441 0.64252 0.85393 0.0
C1446 C 0.31395 0.63105 0.82497 0.0
C1447 C 0.33594 0.62204 0.94446 0.0
H1448 H 0.33589 0.5872 0.85869 0.0
C1449 C 0.36354 0.57733 0.02784 0.0
C1450 C 0.36933 0.56903 0.98775 0.0
C1451 C 0.35604 0.5877 0.00929 0.0
C1452 C 0.33629 0.59703 0.88244 0.0
H1453 H 0.29023 0.64202 0.94577 0.0
H1454 H 0.309 0.62903 0.97025 0.0
H1455 H 0.32005 0.60306 0.82975 0.0
H1456 H 0.37245 0.56561 0.89675 0.0
H1457 H 0.35976 0.58396 0.86446 0.0
H1458 H 0.35218 0.61605 -0.00275 0.0
C1459 C 0.30763 0.63178 0.92565 0.0
C1460 C 0.32717 0.6061 0.86586 0.0
C1461 C 0.29683 0.63915 0.91153 0.0
C1462 C 0.36796 0.57171 0.92876 0.0
C1463 C 0.36061 0.58218 0.91024 0.0
C1464 C 0.34519 0.61305 0.96073 0.0
C1465 C 0.31616 0.62747 0.88244 0.0
C1466 C 0.32675 0.61857 0.89721 0.0
C1467 C 0.3543 0.59012 0.95022 0.0
C1468 C 0.34533 0.60031 0.93045 0.0
H1469 H 0.30168 0.64101 0.76607 0.0
H1470 H 0.32045 0.62793 0.79087 0.0
H1471 H 0.33593 0.63169 0.969 0.0
H1472 H 0.36437 0.57549 0.07359 0.0
H1473 H 0.35118 0.59345 0.04136 0.0
C1474 C 0.13894 0.54676 0.64604 0.0
C1475 C 0.1372 0.54485 0.58631 0.0
C1476 C 0.14903 0.55808 0.66808 0.0
C1477 C 0.17185 0.59293 0.629 0.0
H1478 H 0.19428 0.58495 0.75981 0.0
C1479 C 0.22407 0.63033 0.70093 0.0
C1480 C 0.22625 0.63254 0.76034 0.0
C1481 C 0.21249 0.62026 0.68065 0.0
C1482 C 0.18799 0.5874 0.72373 0.0
H1483 H 0.14457 0.55352 0.50291 0.0
H1484 H 0.16238 0.57311 0.54138 0.0
H1485 H 0.17541 0.56625 0.72241 0.0
H1486 H 0.2178 0.626 0.845 0.0
H1487 H 0.19762 0.6084 0.80946 0.0
H1488 H 0.18471 0.61403 0.62981 0.0
C1489 C 0.15577 0.56598 0.57123 0.0
C1490 C 0.17715 0.57669 0.7023 0.0
C1491 C 0.14561 0.55469 0.54914 0.0
C1492 C 0.21648 0.62455 0.79898 0.0
C1493 C 0.20494 0.61442 0.77867 0.0
C1494 C 0.18276 0.60363 0.65027 0.0
C1495 C 0.15769 0.56773 0.63098 0.0
C1496 C 0.16897 0.5793 0.65455 0.0
C1497 C 0.20287 0.61211 0.71931 0.0
C1498 C 0.19097 0.60095 0.69775 0.0
H1499 H 0.13255 0.53946 0.67595 0.0
H1500 H 0.15002 0.55926 0.71432 0.0
H1501 H 0.16561 0.59538 0.59275 0.0
H1502 H 0.23136 0.63631 0.66993 0.0
H1503 H 0.21125 0.61862 0.63468 0.0
C1504 C 0.44635 0.02513 0.00782 0.0
C1505 C 0.44159 0.03253 0.05365 0.0
C1506 C 0.46029 0.02264 0.00735 0.0
C1507 C 0.49606 0.03535 0.06959 0.0
H1508 H 0.50258 0.99816 0.02252 0.0
C1509 C 0.55099 0.01931 0.09342 0.0
C1510 C 0.55558 0.01193 0.04714 0.0
C1511 C 0.53699 0.02161 0.09526 0.0
C1512 C 0.50095 0.00865 0.03522 0.0
H1513 H 0.44747 0.04314 0.13484 0.0
H1514 H 0.47187 0.0387 0.13452 0.0
H1515 H 0.47833 0.00277 0.02323 0.0
H1516 H 0.54932 0.00113 0.96664 0.0
H1517 H 0.52485 0.0053 0.96923 0.0
H1518 H 0.51869 0.04125 0.08141 0.0
C1519 C 0.46492 0.03497 0.09856 0.0
C1520 C 0.48706 0.01129 0.0356 0.0
C1521 C 0.45096 0.03743 0.099 0.0
C1522 C 0.54597 0.00684 0.0028 0.0
C1523 C 0.53197 0.00914 0.00456 0.0
C1524 C 0.50995 0.03271 0.06918 0.0
C1525 C 0.46972 0.0275 0.05281 0.0
C1526 C 0.48447 0.02468 0.05268 0.0
C1527 C 0.52734 0.01661 0.0507 0.0
C1528 C 0.51255 0.01934 0.0519 0.0
H1529 H 0.43923 0.0211 0.97273 0.0
H1530 H 0.46372 0.01699 0.97123 0.0
H1531 H 0.49443 0.04584 0.08221 0.0
H1532 H 0.5583 0.02348 0.12776 0.0
H1533 H 0.53372 0.02728 0.13166 0.0
C1534 C 0.23384 0.31984 0.35386 0.0
C1535 C 0.23847 0.32912 0.30789 0.0
C1536 C 0.23627 0.30587 0.35334 0.0
C1537 C 0.24443 0.27799 0.25588 0.0
H1538 H 0.25716 0.2621 0.39564 0.0
C1539 C 0.26409 0.22461 0.25735 0.0
C1540 C 0.25941 0.21521 0.3029 0.0
C1541 C 0.26172 0.23859 0.25849 0.0
C1542 C 0.25347 0.26634 0.35642 0.0
H1543 H 0.24942 0.33132 0.22589 0.0
H1544 H 0.25367 0.30688 0.22468 0.0
H1545 H 0.25239 0.2863 0.39633 0.0
H1546 H 0.2485 0.21285 0.38499 0.0
H1547 H 0.24436 0.23734 0.38729 0.0
H1548 H 0.24551 0.25803 0.21596 0.0
C1549 C 0.24796 0.31028 0.26072 0.0
C1550 C 0.25072 0.28019 0.35683 0.0
C1551 C 0.24554 0.32424 0.26133 0.0
C1552 C 0.25241 0.22001 0.34984 0.0
C1553 C 0.25005 0.23401 0.35107 0.0
C1554 C 0.24717 0.26414 0.25547 0.0
C1555 C 0.24339 0.30094 0.30681 0.0
C1556 C 0.24618 0.28617 0.30654 0.0
C1557 C 0.2546 0.24343 0.30523 0.0
C1558 C 0.25174 0.25817 0.30572 0.0
H1559 H 0.22833 0.32339 0.39013 0.0
H1560 H 0.23247 0.29888 0.38914 0.0
H1561 H 0.24073 0.28222 0.21665 0.0
H1562 H 0.26956 0.22111 0.22082 0.0
H1563 H 0.26553 0.24564 0.2229 0.0
C1564 C 0.04495 0.00182 0.53801 0.0
C1565 C 0.05608 0.01297 0.55449 0.0
C1566 C 0.03085 0.00388 0.53722 0.0
C1567 C 0.00779 0.02723 0.59713 0.0
H1568 H 0.98202 0.0112 0.47458 0.0
C1569 C 0.95221 0.04157 0.56399 0.0
C1570 C 0.94098 0.03035 0.54911 0.0
C1571 C 0.96624 0.03934 0.56611 0.0
C1572 C 0.98905 0.01561 0.50943 0.0
H1573 H 0.06148 0.03511 0.58091 0.0
H1574 H 0.03687 0.03883 0.5791 0.0
H1575 H 0.00662 0.0076 0.47401 0.0
H1576 H 0.93533 0.00789 0.52746 0.0
H1577 H 0.95988 0.00394 0.53086 0.0
H1578 H 0.99021 0.03533 0.63228 0.0
C1579 C 0.03892 0.02839 0.5681 0.0
C1580 C 0.00314 0.01354 0.50912 0.0
C1581 C 0.05299 0.0263 0.56897 0.0
C1582 C 0.9439 0.01677 0.5379 0.0
C1583 C 0.95792 0.01453 0.53979 0.0
C1584 C 0.99371 0.02933 0.59734 0.0
C1585 C 0.02767 0.01718 0.55264 0.0
C1586 C 0.01267 0.01934 0.55295 0.0
C1587 C 0.96926 0.02582 0.55341 0.0
C1588 C 0.98419 0.02354 0.5535 0.0
H1589 H 0.04715 0.99144 0.52674 0.0
H1590 H 0.02243 0.99498 0.52564 0.0
H1591 H 0.01479 0.03163 0.63206 0.0
H1592 H 0.95014 0.05213 0.57287 0.0
H1593 H 0.97476 0.04827 0.57636 0.0
C1594 C 0.24957 0.71971 0.78136 0.0
C1595 C 0.25706 0.71484 0.82665 0.0
C1596 C 0.24726 0.7337 0.78114 0.0
C1597 C 0.24614 0.76447 0.87577 0.0
H1598 H 0.25024 0.78557 0.73209 0.0
C1599 C 0.2449 0.8248 0.86115 0.0
C1600 C 0.23738 0.82913 0.8147 0.0
C1601 C 0.24718 0.81079 0.8642 0.0
C1602 C 0.2489 0.77977 0.77242 0.0
H1603 H 0.26799 0.72056 0.90733 0.0
H1604 H 0.26405 0.74519 0.90702 0.0
H1605 H 0.2547 0.76131 0.73453 0.0
H1606 H 0.22617 0.82238 0.73549 0.0
H1607 H 0.23008 0.79784 0.74069 0.0
H1608 H 0.24037 0.78301 0.91361 0.0
C1609 C 0.25983 0.73816 0.87192 0.0
C1610 C 0.25146 0.76587 0.77383 0.0
C1611 C 0.26213 0.72413 0.87207 0.0
C1612 C 0.23207 0.81925 0.77157 0.0
C1613 C 0.23436 0.80526 0.77449 0.0
C1614 C 0.2436 0.77841 0.87437 0.0
C1615 C 0.25241 0.74311 0.82628 0.0
C1616 C 0.25003 0.75803 0.82542 0.0
C1617 C 0.24203 0.8009 0.82063 0.0
C1618 C 0.24487 0.78617 0.82258 0.0
H1619 H 0.24535 0.71264 0.74635 0.0
H1620 H 0.24127 0.7371 0.74592 0.0
H1621 H 0.24479 0.75865 0.91604 0.0
H1622 H 0.24929 0.83233 0.89444 0.0
H1623 H 0.25328 0.8078 0.89989 0.0
C1624 C 0.76813 0.72565 0.81881 0.0
C1625 C 0.75683 0.7144 0.805 0.0
C1626 C 0.76596 0.73971 0.82008 0.0
C1627 C 0.74202 0.76236 0.76308 0.0
H1628 H 0.7589 0.78874 0.88228 0.0
C1629 C 0.72843 0.8184 0.78956 0.0
C1630 C 0.73973 0.82962 0.80363 0.0
C1631 C 0.73049 0.8043 0.78954 0.0
C1632 C 0.75425 0.78155 0.84831 0.0
H1633 H 0.73431 0.70874 0.78439 0.0
H1634 H 0.73045 0.73333 0.78651 0.0
H1635 H 0.7625 0.76413 0.88409 0.0
H1636 H 0.76211 0.83519 0.82638 0.0
H1637 H 0.76581 0.81055 0.82615 0.0
H1638 H 0.73381 0.77977 0.72714 0.0
C1639 C 0.74106 0.73137 0.79517 0.0
C1640 C 0.7563 0.76745 0.84941 0.0
C1641 C 0.74324 0.71733 0.79405 0.0
C1642 C 0.75319 0.82662 0.81642 0.0
C1643 C 0.75528 0.81254 0.81641 0.0
C1644 C 0.73998 0.77645 0.76194 0.0
C1645 C 0.75242 0.74274 0.80765 0.0
C1646 C 0.7502 0.7577 0.80681 0.0
C1647 C 0.74392 0.8012 0.80337 0.0
C1648 C 0.74608 0.78621 0.80453 0.0
H1649 H 0.77869 0.72357 0.82747 0.0
H1650 H 0.77495 0.74825 0.82943 0.0
H1651 H 0.73737 0.75516 0.72911 0.0
H1652 H 0.71796 0.82053 0.77956 0.0
H1653 H 0.7215 0.7958 0.7798 0.0
C1654 C 0.76341 0.22434 0.35334 0.0
C1655 C 0.75875 0.21496 0.30778 0.0
C1656 C 0.76103 0.23833 0.3521 0.0
C1657 C 0.75334 0.26597 0.25235 0.0
H1658 H 0.74056 0.28261 0.39013 0.0
C1659 C 0.73417 0.31972 0.24949 0.0
C1660 C 0.73863 0.32911 0.29522 0.0
C1661 C 0.7366 0.30575 0.25107 0.0
C1662 C 0.74427 0.27817 0.35145 0.0
H1663 H 0.74773 0.21259 0.22589 0.0
H1664 H 0.74358 0.23703 0.22346 0.0
H1665 H 0.74505 0.25832 0.3931 0.0
H1666 H 0.74931 0.33152 0.37782 0.0
H1667 H 0.75359 0.30712 0.38074 0.0
H1668 H 0.75259 0.28582 0.21071 0.0
C1669 C 0.74927 0.2337 0.25972 0.0
C1670 C 0.74685 0.26426 0.35318 0.0
C1671 C 0.75163 0.21973 0.26108 0.0
C1672 C 0.74558 0.32437 0.34247 0.0
C1673 C 0.748 0.31042 0.34411 0.0
C1674 C 0.75078 0.27988 0.25064 0.0
C1675 C 0.75396 0.24317 0.30518 0.0
C1676 C 0.75139 0.25801 0.30362 0.0
C1677 C 0.74354 0.30094 0.29843 0.0
C1678 C 0.7462 0.28613 0.30016 0.0
H1679 H 0.769 0.22087 0.38963 0.0
H1680 H 0.76491 0.24542 0.38747 0.0
H1681 H 0.75704 0.26152 0.21366 0.0
H1682 H 0.72872 0.32317 0.21278 0.0
H1683 H 0.73287 0.29866 0.21553 0.0
C1684 C 0.94345 0.51726 0.5558 0.0
C1685 C 0.94056 0.53079 0.5433 0.0
C1686 C 0.9573 0.51471 0.55023 0.0
C1687 C 0.99221 0.52891 0.48148 0.0
H1688 H 0.00659 0.50619 0.59775 0.0
C1689 C 0.05186 0.52613 0.50281 0.0
C1690 C 0.05513 0.51267 0.51383 0.0
C1691 C 0.03769 0.52794 0.50372 0.0
C1692 C 0.00267 0.51241 0.56459 0.0
H1693 H 0.9496 0.55222 0.5147 0.0
H1694 H 0.97395 0.54792 0.50578 0.0
H1695 H 0.98222 0.51024 0.60489 0.0
H1696 H 0.04636 0.49055 0.53384 0.0
H1697 H 0.02149 0.49369 0.53586 0.0
H1698 H 0.01278 0.53126 0.44178 0.0
C1699 C 0.96553 0.53919 0.51915 0.0
C1700 C 0.9887 0.51473 0.56862 0.0
C1701 C 0.95165 0.5417 0.52453 0.0
C1702 C 0.04404 0.50103 0.52551 0.0
C1703 C 0.02987 0.50285 0.52679 0.0
C1704 C 0.0062 0.52665 0.47762 0.0
C1705 C 0.96852 0.52567 0.53208 0.0
C1706 C 0.98331 0.52303 0.5272 0.0
C1707 C 0.02656 0.51634 0.51612 0.0
C1708 C 0.01159 0.51842 0.51923 0.0
H1709 H 0.93495 0.50863 0.56943 0.0
H1710 H 0.95917 0.50411 0.55953 0.0
H1711 H 0.98832 0.53515 0.44832 0.0
H1712 H 0.06029 0.53529 0.49448 0.0
H1713 H 0.03549 0.5385 0.4961 0.0
C1714 C 0.45188 0.54217 0.06186 0.0
C1715 C 0.44067 0.53083 0.04806 0.0
C1716 C 0.46592 0.53998 0.06436 0.0
C1717 C 0.48869 0.51561 0.01174 0.0
H1718 H 0.51472 0.53327 0.13076 0.0
C1719 C 0.54451 0.50202 0.04508 0.0
C1720 C 0.55574 0.51344 0.05765 0.0
C1721 C 0.53042 0.50411 0.04382 0.0
C1722 C 0.50762 0.52839 0.09689 0.0
H1723 H 0.43503 0.50825 0.02865 0.0
H1724 H 0.45957 0.50434 0.03314 0.0
H1725 H 0.49012 0.53693 0.13018 0.0
H1726 H 0.56134 0.53605 0.07643 0.0
H1727 H 0.53671 0.53978 0.0743 0.0
H1728 H 0.50617 0.50708 0.97844 0.0
C1729 C 0.45762 0.51499 0.04076 0.0
C1730 C 0.49353 0.53048 0.09657 0.0
C1731 C 0.4436 0.5172 0.03831 0.0
C1732 C 0.55277 0.52704 0.06776 0.0
C1733 C 0.5387 0.52915 0.06661 0.0
C1734 C 0.50276 0.51351 0.01208 0.0
C1735 C 0.46896 0.52638 0.0533 0.0
C1736 C 0.48391 0.52411 0.05399 0.0
C1737 C 0.52736 0.51769 0.05495 0.0
C1738 C 0.51239 0.51989 0.05462 0.0
H1739 H 0.44979 0.55277 0.06962 0.0
H1740 H 0.47443 0.54899 0.07368 0.0
H1741 H 0.4816 0.51075 0.97779 0.0
H1742 H 0.54662 0.49144 0.03708 0.0
H1743 H 0.52192 0.49504 0.03517 0.0
loop_
_geom_bond_atom_site_label_1
_geom_bond_atom_site_label_2
_geom_bond_distance
_geom_bond_site_symmetry_2
_ccdc_geom_bond_type
Co0 O3 1.970 . S
Co0 N17 1.989 . S
Co0 O25 1.967 . S
Co0 O32 1.920 1_554 S
Co1 O4 1.966 . S
Co1 N10 2.022 . S
Co1 N18 1.993 . S
Co1 O26 1.941 . S
C2 O3 1.258 . S
C2 O4 1.263 . S
O3 Co0 1.970 . S
O3 C2 1.258 . S
O4 Co1 1.966 . S
O4 C2 1.263 . S
C5 O6 1.235 . S
C5 O32 1.289 . S
O6 C5 1.235 . S
C7 C9 1.400 . S
C7 N10 1.351 . S
C7 C12 1.501 . S
C8 C9 1.387 . S
C8 N11 1.341 . S
C9 C7 1.400 . S
C9 C8 1.387 . S
N10 Co1 2.022 . S
N10 C7 1.351 . S
N10 N11 1.365 . S
N11 C8 1.341 . S
N11 N10 1.365 . S
N11 H31 0.862 . S
C12 C7 1.501 . S
C12 H13 0.961 . S
C12 H14 0.961 . S
C12 H15 0.960 . S
H13 C12 0.961 . S
H14 C12 0.961 . S
H15 C12 0.960 . S
C16 N17 1.342 . S
C16 C20 1.401 . S
C16 C21 1.499 1_554 S
N17 Co0 1.989 . S
N17 C16 1.342 . S
N17 N18 1.388 . S
N18 Co1 1.993 . S
N18 N17 1.388 . S
N18 C19 1.346 . S
C19 N18 1.346 . S
C19 C20 1.396 . S
C19 C29 1.510 . S
C20 C16 1.401 . S
C20 C19 1.396 . S
C21 C16 1.499 1_556 S
C21 H22 0.959 . S
C21 H23 0.960 . S
C21 H24 0.961 . S
H22 C21 0.959 . S
H23 C21 0.960 . S
H24 C21 0.961 . S
O25 Co0 1.967 . S
O25 C33 1.258 . S
O26 Co1 1.941 . S
O26 C33 1.266 . S
H27 C29 0.959 . S
H28 C29 0.961 . S
C29 C19 1.510 . S
C29 H27 0.959 . S
C29 H28 0.961 . S
C29 H30 0.960 . S
H30 C29 0.960 . S
H31 N11 0.862 . S
O32 Co0 1.920 1_556 S
O32 C5 1.289 . S
C33 O25 1.258 . S
C33 O26 1.266 . S
Co34 O37 1.970 . S
Co34 N51 1.989 . S
Co34 O59 1.967 . S
Co34 O66 1.920 . S
Co35 O38 1.966 . S
Co35 N44 2.022 . S
Co35 N52 1.993 . S
Co35 O60 1.941 . S
C36 O37 1.258 . S
C36 O38 1.263 . S
O37 Co34 1.970 . S
O37 C36 1.258 . S
O38 Co35 1.966 . S
O38 C36 1.263 . S
C39 O40 1.235 . S
C39 O66 1.289 . S
O40 C39 1.235 . S
C41 C43 1.400 . S
C41 N44 1.351 . S
C41 C46 1.501 . S
C42 C43 1.387 . S
C42 N45 1.341 . S
C43 C41 1.400 . S
C43 C42 1.387 . S
N44 Co35 2.022 . S
N44 C41 1.351 . S
N44 N45 1.365 . S
N45 C42 1.341 . S
N45 N44 1.365 . S
N45 H65 0.862 . S
C46 C41 1.501 . S
C46 H47 0.961 . S
C46 H48 0.961 . S
C46 H49 0.960 . S
H47 C46 0.961 . S
H48 C46 0.961 . S
H49 C46 0.960 . S
C50 N51 1.342 . S
C50 C54 1.401 . S
C50 C55 1.499 . S
N51 Co34 1.989 . S
N51 C50 1.342 . S
N51 N52 1.388 . S
N52 Co35 1.993 . S
N52 N51 1.388 . S
N52 C53 1.346 . S
C53 N52 1.346 . S
C53 C54 1.396 . S
C53 C63 1.510 . S
C54 C50 1.401 . S
C54 C53 1.396 . S
C55 C50 1.499 . S
C55 H56 0.959 . S
C55 H57 0.960 . S
C55 H58 0.961 . S
H56 C55 0.959 . S
H57 C55 0.960 . S
H58 C55 0.961 . S
O59 Co34 1.967 . S
O59 C67 1.258 . S
O60 Co35 1.941 . S
O60 C67 1.266 . S
H61 C63 0.959 . S
H62 C63 0.961 . S
C63 C53 1.510 . S
C63 H61 0.959 . S
C63 H62 0.961 . S
C63 H64 0.960 . S
H64 C63 0.960 . S
H65 N45 0.862 . S
O66 Co34 1.920 . S
O66 C39 1.289 . S
C67 O59 1.258 . S
C67 O60 1.266 . S
Co68 O71 1.970 1_545 S
Co68 N85 1.989 . S
Co68 O93 1.967 . S
Co68 O100 1.920 . S
Co69 O72 1.965 . S
Co69 N78 2.022 . S
Co69 N86 1.993 . S
Co69 O94 1.941 . S
C70 O71 1.258 . S
C70 O72 1.265 1_565 S
O71 Co68 1.970 1_565 S
O71 C70 1.258 . S
O72 Co69 1.965 . S
O72 C70 1.265 1_545 S
C73 O74 1.235 . S
C73 O100 1.289 1_565 S
O74 C73 1.235 . S
C75 C77 1.400 . S
C75 N78 1.351 . S
C75 C80 1.501 1_545 S
C76 C77 1.387 . S
C76 N79 1.341 . S
C77 C75 1.400 . S
C77 C76 1.387 . S
N78 Co69 2.022 . S
N78 C75 1.351 . S
N78 N79 1.365 . S
N79 C76 1.341 . S
N79 N78 1.365 . S
N79 H99 0.862 . S
C80 C75 1.501 1_565 S
C80 H81 0.961 . S
C80 H82 0.961 . S
C80 H83 0.960 . S
H81 C80 0.961 . S
H82 C80 0.961 . S
H83 C80 0.960 . S
C84 N85 1.342 . S
C84 C88 1.401 . S
C84 C89 1.499 . S
N85 Co68 1.989 . S
N85 C84 1.342 . S
N85 N86 1.388 . S
N86 Co69 1.993 . S
N86 N85 1.388 . S
N86 C87 1.346 . S
C87 N86 1.346 . S
C87 C88 1.396 . S
C87 C97 1.510 . S
C88 C84 1.401 . S
C88 C87 1.396 . S
C89 C84 1.499 . S
C89 H90 0.959 . S
C89 H91 0.960 . S
C89 H92 0.961 . S
H90 C89 0.959 . S
H91 C89 0.960 . S
H92 C89 0.961 . S
O93 Co68 1.967 . S
O93 C101 1.258 . S
O94 Co69 1.941 . S
O94 C101 1.266 . S
H95 C97 0.959 . S
H96 C97 0.961 . S
C97 C87 1.510 . S
C97 H95 0.959 . S
C97 H96 0.961 . S
C97 H98 0.960 . S
H98 C97 0.960 . S
H99 N79 0.862 . S
O100 Co68 1.920 . S
O100 C73 1.289 1_545 S
C101 O93 1.258 . S
C101 O94 1.266 . S
Co102 O105 1.970 . S
Co102 N119 1.989 . S
Co102 O127 1.967 . S
Co102 O134 1.920 . S
Co103 O106 1.966 . S
Co103 N112 2.022 . S
Co103 N120 1.993 . S
Co103 O128 1.941 . S
C104 O105 1.258 . S
C104 O106 1.263 . S
O105 Co102 1.970 . S
O105 C104 1.258 . S
O106 Co103 1.966 . S
O106 C104 1.263 . S
C107 O108 1.235 . S
C107 O134 1.289 . S
O108 C107 1.235 . S
C109 C111 1.400 . S
C109 N112 1.351 . S
C109 C114 1.501 . S
C110 C111 1.387 . S
C110 N113 1.341 . S
C111 C109 1.400 . S
C111 C110 1.387 . S
N112 Co103 2.022 . S
N112 C109 1.351 . S
N112 N113 1.365 . S
N113 C110 1.341 . S
N113 N112 1.365 . S
N113 H133 0.862 . S
C114 C109 1.501 . S
C114 H115 0.961 . S
C114 H116 0.961 . S
C114 H117 0.960 . S
H115 C114 0.961 . S
H116 C114 0.961 . S
H117 C114 0.960 . S
C118 N119 1.342 . S
C118 C122 1.401 . S
C118 C123 1.499 . S
N119 Co102 1.989 . S
N119 C118 1.342 . S
N119 N120 1.388 . S
N120 Co103 1.993 . S
N120 N119 1.388 . S
N120 C121 1.346 . S
C121 N120 1.346 . S
C121 C122 1.396 . S
C121 C131 1.510 . S
C122 C118 1.401 . S
C122 C121 1.396 . S
C123 C118 1.499 . S
C123 H124 0.959 . S
C123 H125 0.960 . S
C123 H126 0.961 . S
H124 C123 0.959 . S
H125 C123 0.960 . S
H126 C123 0.961 . S
O127 Co102 1.967 . S
O127 C135 1.258 . S
O128 Co103 1.941 . S
O128 C135 1.266 . S
H129 C131 0.959 . S
H130 C131 0.961 . S
C131 C121 1.510 . S
C131 H129 0.959 . S
C131 H130 0.961 . S
C131 H132 0.960 . S
H132 C131 0.960 . S
H133 N113 0.862 . S
O134 Co102 1.920 . S
O134 C107 1.289 . S
C135 O127 1.258 . S
C135 O128 1.266 . S
Co136 O139 1.970 1_545 S
Co136 N153 1.989 . S
Co136 O161 1.967 . S
Co136 O168 1.920 . S
Co137 O140 1.963 . S
Co137 N146 2.022 . S
Co137 N154 1.993 1_556 S
Co137 O162 1.941 . S
C138 O139 1.258 . S
C138 O140 1.266 1_564 S
O139 Co136 1.970 1_565 S
O139 C138 1.258 . S
O140 Co137 1.963 . S
O140 C138 1.266 1_546 S
C141 O142 1.235 . S
C141 O168 1.289 1_565 S
O142 C141 1.235 . S
C143 C145 1.400 . S
C143 N146 1.351 . S
C143 C148 1.501 1_545 S
C144 C145 1.387 . S
C144 N147 1.341 . S
C145 C143 1.400 . S
C145 C144 1.387 . S
N146 Co137 2.022 . S
N146 C143 1.351 . S
N146 N147 1.365 . S
N147 C144 1.341 . S
N147 N146 1.365 . S
N147 H167 0.862 . S
C148 C143 1.501 1_565 S
C148 H149 0.961 . S
C148 H150 0.961 . S
C148 H151 0.960 . S
H149 C148 0.961 . S
H150 C148 0.961 . S
H151 C148 0.960 . S
C152 N153 1.342 . S
C152 C156 1.401 . S
C152 C157 1.499 . S
N153 Co136 1.989 . S
N153 C152 1.342 . S
N153 N154 1.388 . S
N154 Co137 1.993 1_554 S
N154 N153 1.388 . S
N154 C155 1.346 1_554 S
C155 N154 1.346 1_556 S
C155 C156 1.396 1_556 S
C155 C165 1.510 . S
C156 C152 1.401 . S
C156 C155 1.396 1_554 S
C157 C152 1.499 . S
C157 H158 0.959 . S
C157 H159 0.960 . S
C157 H160 0.961 . S
H158 C157 0.959 . S
H159 C157 0.960 . S
H160 C157 0.961 . S
O161 Co136 1.967 . S
O161 C169 1.258 . S
O162 Co137 1.941 . S
O162 C169 1.266 1_556 S
H163 C165 0.959 . S
H164 C165 0.961 . S
C165 C155 1.510 . S
C165 H163 0.959 . S
C165 H164 0.961 . S
C165 H166 0.960 . S
H166 C165 0.960 . S
H167 N147 0.862 . S
O168 Co136 1.920 . S
O168 C141 1.289 1_545 S
C169 O161 1.258 . S
C169 O162 1.266 1_554 S
Co170 O173 1.970 . S
Co170 N187 1.989 . S
Co170 O195 1.967 . S
Co170 O202 1.920 . S
Co171 O174 1.966 . S
Co171 N180 2.022 . S
Co171 N188 1.993 . S
Co171 O196 1.941 . S
C172 O173 1.258 . S
C172 O174 1.263 . S
O173 Co170 1.970 . S
O173 C172 1.258 . S
O174 Co171 1.966 . S
O174 C172 1.263 . S
C175 O176 1.235 . S
C175 O202 1.289 . S
O176 C175 1.235 . S
C177 C179 1.400 . S
C177 N180 1.351 1_554 S
C177 C182 1.501 . S
C178 C179 1.387 . S
C178 N181 1.340 . S
C179 C177 1.400 . S
C179 C178 1.387 . S
N180 Co171 2.022 . S
N180 C177 1.351 1_556 S
N180 N181 1.366 1_556 S
N181 C178 1.340 . S
N181 N180 1.366 1_554 S
N181 H201 0.862 1_554 S
C182 C177 1.501 . S
C182 H183 0.961 1_554 S
C182 H184 0.961 . S
C182 H185 0.960 . S
H183 C182 0.961 1_556 S
H184 C182 0.961 . S
H185 C182 0.960 . S
C186 N187 1.342 . S
C186 C190 1.401 . S
C186 C191 1.499 . S
N187 Co170 1.989 . S
N187 C186 1.342 . S
N187 N188 1.388 . S
N188 Co171 1.993 . S
N188 N187 1.388 . S
N188 C189 1.346 . S
C189 N188 1.346 . S
C189 C190 1.396 . S
C189 C199 1.510 . S
C190 C186 1.401 . S
C190 C189 1.396 . S
C191 C186 1.499 . S
C191 H192 0.959 . S
C191 H193 0.960 . S
C191 H194 0.961 . S
H192 C191 0.959 . S
H193 C191 0.960 . S
H194 C191 0.961 . S
O195 Co170 1.967 . S
O195 C203 1.258 . S
O196 Co171 1.941 . S
O196 C203 1.266 . S
H197 C199 0.959 . S
H198 C199 0.961 . S
C199 C189 1.510 . S
C199 H197 0.959 . S
C199 H198 0.961 . S
C199 H200 0.960 . S
H200 C199 0.960 . S
H201 N181 0.862 1_556 S
O202 Co170 1.920 . S
O202 C175 1.289 . S
C203 O195 1.258 . S
C203 O196 1.266 . S
Co204 O207 1.970 . S
Co204 N221 1.989 . S
Co204 O229 1.967 . S
Co204 O236 1.920 . S
Co205 O208 1.966 . S
Co205 N214 2.022 . S
Co205 N222 1.993 . S
Co205 O230 1.941 . S
C206 O207 1.258 . S
C206 O208 1.263 . S
O207 Co204 1.970 . S
O207 C206 1.258 . S
O208 Co205 1.966 . S
O208 C206 1.263 . S
C209 O210 1.235 . S
C209 O236 1.289 . S
O210 C209 1.235 . S
C211 C213 1.400 . S
C211 N214 1.351 . S
C211 C216 1.501 . S
C212 C213 1.387 . S
C212 N215 1.341 . S
C213 C211 1.400 . S
C213 C212 1.387 . S
N214 Co205 2.022 . S
N214 C211 1.351 . S
N214 N215 1.365 . S
N215 C212 1.341 . S
N215 N214 1.365 . S
N215 H235 0.862 . S
C216 C211 1.501 . S
C216 H217 0.961 . S
C216 H218 0.961 . S
C216 H219 0.960 . S
H217 C216 0.961 . S
H218 C216 0.961 . S
H219 C216 0.960 . S
C220 N221 1.342 . S
C220 C224 1.401 . S
C220 C225 1.499 . S
N221 Co204 1.989 . S
N221 C220 1.342 . S
N221 N222 1.388 . S
N222 Co205 1.993 . S
N222 N221 1.388 . S
N222 C223 1.346 . S
C223 N222 1.346 . S
C223 C224 1.396 . S
C223 C233 1.510 . S
C224 C220 1.401 . S
C224 C223 1.396 . S
C225 C220 1.499 . S
C225 H226 0.959 . S
C225 H227 0.960 . S
C225 H228 0.961 . S
H226 C225 0.959 . S
H227 C225 0.960 . S
H228 C225 0.961 . S
O229 Co204 1.967 . S
O229 C237 1.258 . S
O230 Co205 1.941 . S
O230 C237 1.266 . S
H231 C233 0.959 . S
H232 C233 0.961 . S
C233 C223 1.510 . S
C233 H231 0.959 . S
C233 H232 0.961 . S
C233 H234 0.960 . S
H234 C233 0.960 . S
H235 N215 0.862 . S
O236 Co204 1.920 . S
O236 C209 1.289 . S
C237 O229 1.258 . S
C237 O230 1.266 . S
Co238 O241 1.970 . S
Co238 N255 1.989 . S
Co238 O263 1.967 . S
Co238 O270 1.920 . S
Co239 O242 1.966 . S
Co239 N248 2.022 . S
Co239 N256 1.993 . S
Co239 O264 1.941 . S
C240 O241 1.258 . S
C240 O242 1.263 . S
O241 Co238 1.970 . S
O241 C240 1.258 . S
O242 Co239 1.966 . S
O242 C240 1.263 . S
C243 O244 1.235 . S
C243 O270 1.289 . S
O244 C243 1.235 . S
C245 C247 1.400 . S
C245 N248 1.351 . S
C245 C250 1.501 . S
C246 C247 1.387 . S
C246 N249 1.341 . S
C247 C245 1.400 . S
C247 C246 1.387 . S
N248 Co239 2.022 . S
N248 C245 1.351 . S
N248 N249 1.365 . S
N249 C246 1.341 . S
N249 N248 1.365 . S
N249 H269 0.862 . S
C250 C245 1.501 . S
C250 H251 0.961 . S
C250 H252 0.961 . S
C250 H253 0.960 . S
H251 C250 0.961 . S
H252 C250 0.961 . S
H253 C250 0.960 . S
C254 N255 1.342 . S
C254 C258 1.401 . S
C254 C259 1.499 . S
N255 Co238 1.989 . S
N255 C254 1.342 . S
N255 N256 1.388 . S
N256 Co239 1.993 . S
N256 N255 1.388 . S
N256 C257 1.346 . S
C257 N256 1.346 . S
C257 C258 1.396 . S
C257 C267 1.510 . S
C258 C254 1.401 . S
C258 C257 1.396 . S
C259 C254 1.499 . S
C259 H260 0.959 . S
C259 H261 0.960 . S
C259 H262 0.961 . S
H260 C259 0.959 . S
H261 C259 0.960 . S
H262 C259 0.961 . S
O263 Co238 1.967 . S
O263 C271 1.258 . S
O264 Co239 1.941 . S
O264 C271 1.266 . S
H265 C267 0.959 . S
H266 C267 0.961 . S
C267 C257 1.510 . S
C267 H265 0.959 . S
C267 H266 0.961 . S
C267 H268 0.960 . S
H268 C267 0.960 . S
H269 N249 0.862 . S
O270 Co238 1.920 . S
O270 C243 1.289 . S
C271 O263 1.258 . S
C271 O264 1.266 . S
Co272 O275 1.970 . S
Co272 N289 1.989 . S
Co272 O297 1.967 . S
Co272 O304 1.920 . S
Co273 O276 1.966 . S
Co273 N282 2.022 . S
Co273 N290 1.993 . S
Co273 O298 1.941 . S
C274 O275 1.258 . S
C274 O276 1.263 . S
O275 Co272 1.970 . S
O275 C274 1.258 . S
O276 Co273 1.966 . S
O276 C274 1.263 . S
C277 O278 1.235 . S
C277 O304 1.289 . S
O278 C277 1.235 . S
C279 C281 1.400 . S
C279 N282 1.351 . S
C279 C284 1.501 . S
C280 C281 1.387 . S
C280 N283 1.341 . S
C281 C279 1.400 . S
C281 C280 1.387 . S
N282 Co273 2.022 . S
N282 C279 1.351 . S
N282 N283 1.365 . S
N283 C280 1.341 . S
N283 N282 1.365 . S
N283 H303 0.862 . S
C284 C279 1.501 . S
C284 H285 0.961 . S
C284 H286 0.961 . S
C284 H287 0.960 . S
H285 C284 0.961 . S
H286 C284 0.961 . S
H287 C284 0.960 . S
C288 N289 1.342 . S
C288 C292 1.401 . S
C288 C293 1.499 . S
N289 Co272 1.989 . S
N289 C288 1.342 . S
N289 N290 1.388 . S
N290 Co273 1.993 . S
N290 N289 1.388 . S
N290 C291 1.346 . S
C291 N290 1.346 . S
C291 C292 1.396 . S
C291 C301 1.510 . S
C292 C288 1.401 . S
C292 C291 1.396 . S
C293 C288 1.499 . S
C293 H294 0.959 . S
C293 H295 0.960 . S
C293 H296 0.961 . S
H294 C293 0.959 . S
H295 C293 0.960 . S
H296 C293 0.961 . S
O297 Co272 1.967 . S
O297 C305 1.258 . S
O298 Co273 1.941 . S
O298 C305 1.266 . S
H299 C301 0.959 . S
H300 C301 0.961 . S
C301 C291 1.510 . S
C301 H299 0.959 . S
C301 H300 0.961 . S
C301 H302 0.960 . S
H302 C301 0.960 . S
H303 N283 0.862 . S
O304 Co272 1.920 . S
O304 C277 1.289 . S
C305 O297 1.258 . S
C305 O298 1.266 . S
Co306 O309 1.970 . S
Co306 N323 1.989 . S
Co306 O331 1.967 . S
Co306 O338 1.920 . S
Co307 O310 1.966 . S
Co307 N316 2.022 . S
Co307 N324 1.993 . S
Co307 O332 1.941 . S
C308 O309 1.258 . S
C308 O310 1.263 . S
O309 Co306 1.970 . S
O309 C308 1.258 . S
O310 Co307 1.966 . S
O310 C308 1.263 . S
C311 O312 1.235 . S
C311 O338 1.289 . S
O312 C311 1.235 . S
C313 C315 1.400 . S
C313 N316 1.351 . S
C313 C318 1.501 . S
C314 C315 1.387 . S
C314 N317 1.341 . S
C315 C313 1.400 . S
C315 C314 1.387 . S
N316 Co307 2.022 . S
N316 C313 1.351 . S
N316 N317 1.365 . S
N317 C314 1.341 . S
N317 N316 1.365 . S
N317 H337 0.862 . S
C318 C313 1.501 . S
C318 H319 0.961 . S
C318 H320 0.961 . S
C318 H321 0.960 . S
H319 C318 0.961 . S
H320 C318 0.961 . S
H321 C318 0.960 . S
C322 N323 1.342 . S
C322 C326 1.401 . S
C322 C327 1.499 . S
N323 Co306 1.989 . S
N323 C322 1.342 . S
N323 N324 1.388 . S
N324 Co307 1.993 . S
N324 N323 1.388 . S
N324 C325 1.346 . S
C325 N324 1.346 . S
C325 C326 1.396 . S
C325 C335 1.510 . S
C326 C322 1.401 . S
C326 C325 1.396 . S
C327 C322 1.499 . S
C327 H328 0.959 . S
C327 H329 0.960 . S
C327 H330 0.961 . S
H328 C327 0.959 . S
H329 C327 0.960 . S
H330 C327 0.961 . S
O331 Co306 1.967 . S
O331 C339 1.258 . S
O332 Co307 1.941 . S
O332 C339 1.266 . S
H333 C335 0.959 . S
H334 C335 0.961 . S
C335 C325 1.510 . S
C335 H333 0.959 . S
C335 H334 0.961 . S
C335 H336 0.960 . S
H336 C335 0.960 . S
H337 N317 0.862 . S
O338 Co306 1.920 . S
O338 C311 1.289 . S
C339 O331 1.258 . S
C339 O332 1.266 . S
Co340 O343 1.970 . S
Co340 N357 1.989 . S
Co340 O365 1.967 . S
Co340 O372 1.920 1_554 S
Co341 O344 1.966 . S
Co341 N350 2.022 . S
Co341 N358 1.993 . S
Co341 O366 1.941 . S
C342 O343 1.258 . S
C342 O344 1.263 . S
O343 Co340 1.970 . S
O343 C342 1.258 . S
O344 Co341 1.966 . S
O344 C342 1.263 . S
C345 O346 1.235 . S
C345 O372 1.289 . S
O346 C345 1.235 . S
C347 C349 1.400 . S
C347 N350 1.351 . S
C347 C352 1.501 . S
C348 C349 1.387 . S
C348 N351 1.341 . S
C349 C347 1.400 . S
C349 C348 1.387 . S
N350 Co341 2.022 . S
N350 C347 1.351 . S
N350 N351 1.365 . S
N351 C348 1.341 . S
N351 N350 1.365 . S
N351 H371 0.862 . S
C352 C347 1.501 . S
C352 H353 0.961 . S
C352 H354 0.961 . S
C352 H355 0.960 . S
H353 C352 0.961 . S
H354 C352 0.961 . S
H355 C352 0.960 . S
C356 N357 1.342 . S
C356 C360 1.401 . S
C356 C361 1.499 1_554 S
N357 Co340 1.989 . S
N357 C356 1.342 . S
N357 N358 1.388 . S
N358 Co341 1.993 . S
N358 N357 1.388 . S
N358 C359 1.346 . S
C359 N358 1.346 . S
C359 C360 1.396 . S
C359 C369 1.510 . S
C360 C356 1.401 . S
C360 C359 1.396 . S
C361 C356 1.499 1_556 S
C361 H362 0.959 . S
C361 H363 0.960 . S
C361 H364 0.961 . S
H362 C361 0.959 . S
H363 C361 0.960 . S
H364 C361 0.961 . S
O365 Co340 1.967 . S
O365 C373 1.258 . S
O366 Co341 1.941 . S
O366 C373 1.266 . S
H367 C369 0.959 . S
H368 C369 0.961 . S
C369 C359 1.510 . S
C369 H367 0.959 . S
C369 H368 0.961 . S
C369 H370 0.960 . S
H370 C369 0.960 . S
H371 N351 0.862 . S
O372 Co340 1.920 1_556 S
O372 C345 1.289 . S
C373 O365 1.258 . S
C373 O366 1.266 . S
Co374 O377 1.970 . S
Co374 N391 1.989 . S
Co374 O399 1.967 . S
Co374 O406 1.920 . S
Co375 O378 1.966 . S
Co375 N384 2.022 . S
Co375 N392 1.993 . S
Co375 O400 1.941 . S
C376 O377 1.258 . S
C376 O378 1.263 . S
O377 Co374 1.970 . S
O377 C376 1.258 . S
O378 Co375 1.966 . S
O378 C376 1.263 . S
C379 O380 1.235 . S
C379 O406 1.289 . S
O380 C379 1.235 . S
C381 C383 1.400 . S
C381 N384 1.351 . S
C381 C386 1.501 . S
C382 C383 1.387 . S
C382 N385 1.341 . S
C383 C381 1.400 . S
C383 C382 1.387 . S
N384 Co375 2.022 . S
N384 C381 1.351 . S
N384 N385 1.365 . S
N385 C382 1.341 . S
N385 N384 1.365 . S
N385 H405 0.862 . S
C386 C381 1.501 . S
C386 H387 0.961 . S
C386 H388 0.961 . S
C386 H389 0.960 . S
H387 C386 0.961 . S
H388 C386 0.961 . S
H389 C386 0.960 . S
C390 N391 1.342 . S
C390 C394 1.401 . S
C390 C395 1.499 . S
N391 Co374 1.989 . S
N391 C390 1.342 . S
N391 N392 1.388 . S
N392 Co375 1.993 . S
N392 N391 1.388 . S
N392 C393 1.346 . S
C393 N392 1.346 . S
C393 C394 1.396 . S
C393 C403 1.510 . S
C394 C390 1.401 . S
C394 C393 1.396 . S
C395 C390 1.499 . S
C395 H396 0.959 . S
C395 H397 0.960 . S
C395 H398 0.961 . S
H396 C395 0.959 . S
H397 C395 0.960 . S
H398 C395 0.961 . S
O399 Co374 1.967 . S
O399 C407 1.258 . S
O400 Co375 1.941 . S
O400 C407 1.266 . S
H401 C403 0.959 . S
H402 C403 0.961 . S
C403 C393 1.510 . S
C403 H401 0.959 . S
C403 H402 0.961 . S
C403 H404 0.960 . S
H404 C403 0.960 . S
H405 N385 0.862 . S
O406 Co374 1.920 . S
O406 C379 1.289 . S
C407 O399 1.258 . S
C407 O400 1.266 . S
Co408 O411 1.970 . S
Co408 N425 1.989 . S
Co408 O433 1.967 . S
Co408 O440 1.920 . S
Co409 O412 1.966 . S
Co409 N418 2.022 . S
Co409 N426 1.993 . S
Co409 O434 1.941 . S
C410 O411 1.258 . S
C410 O412 1.263 . S
O411 Co408 1.970 . S
O411 C410 1.258 . S
O412 Co409 1.966 . S
O412 C410 1.263 . S
C413 O414 1.235 . S
C413 O440 1.289 . S
O414 C413 1.235 . S
C415 C417 1.400 . S
C415 N418 1.351 . S
C415 C420 1.501 . S
C416 C417 1.387 . S
C416 N419 1.341 . S
C417 C415 1.400 . S
C417 C416 1.387 . S
N418 Co409 2.022 . S
N418 C415 1.351 . S
N418 N419 1.365 . S
N419 C416 1.341 . S
N419 N418 1.365 . S
N419 H439 0.862 . S
C420 C415 1.501 . S
C420 H421 0.961 . S
C420 H422 0.961 . S
C420 H423 0.960 . S
H421 C420 0.961 . S
H422 C420 0.961 . S
H423 C420 0.960 . S
C424 N425 1.342 . S
C424 C428 1.401 . S
C424 C429 1.499 . S
N425 Co408 1.989 . S
N425 C424 1.342 . S
N425 N426 1.388 . S
N426 Co409 1.993 . S
N426 N425 1.388 . S
N426 C427 1.346 . S
C427 N426 1.346 . S
C427 C428 1.396 . S
C427 C437 1.510 . S
C428 C424 1.401 . S
C428 C427 1.396 . S
C429 C424 1.499 . S
C429 H430 0.959 . S
C429 H431 0.960 . S
C429 H432 0.961 . S
H430 C429 0.959 . S
H431 C429 0.960 . S
H432 C429 0.961 . S
O433 Co408 1.967 . S
O433 C441 1.258 . S
O434 Co409 1.941 . S
O434 C441 1.266 . S
H435 C437 0.959 . S
H436 C437 0.961 . S
C437 C427 1.510 . S
C437 H435 0.959 . S
C437 H436 0.961 . S
C437 H438 0.960 . S
H438 C437 0.960 . S
H439 N419 0.862 . S
O440 Co408 1.920 . S
O440 C413 1.289 . S
C441 O433 1.258 . S
C441 O434 1.266 . S
Co442 O445 1.970 . S
Co442 N459 1.989 . S
Co442 O467 1.967 . S
Co442 O474 1.920 . S
Co443 O446 1.966 . S
Co443 N452 2.022 . S
Co443 N460 1.993 . S
Co443 O468 1.941 . S
C444 O445 1.258 . S
C444 O446 1.263 . S
O445 Co442 1.970 . S
O445 C444 1.258 . S
O446 Co443 1.966 . S
O446 C444 1.263 . S
C447 O448 1.235 . S
C447 O474 1.289 . S
O448 C447 1.235 . S
C449 C451 1.400 . S
C449 N452 1.351 . S
C449 C454 1.501 . S
C450 C451 1.387 . S
C450 N453 1.341 . S
C451 C449 1.400 . S
C451 C450 1.387 . S
N452 Co443 2.022 . S
N452 C449 1.351 . S
N452 N453 1.365 . S
N453 C450 1.341 . S
N453 N452 1.365 . S
N453 H473 0.862 . S
C454 C449 1.501 . S
C454 H455 0.961 . S
C454 H456 0.961 . S
C454 H457 0.960 . S
H455 C454 0.961 . S
H456 C454 0.961 . S
H457 C454 0.960 . S
C458 N459 1.342 . S
C458 C462 1.401 . S
C458 C463 1.499 . S
N459 Co442 1.989 . S
N459 C458 1.342 . S
N459 N460 1.388 . S
N460 Co443 1.993 . S
N460 N459 1.388 . S
N460 C461 1.346 . S
C461 N460 1.346 . S
C461 C462 1.396 . S
C461 C471 1.510 . S
C462 C458 1.401 . S
C462 C461 1.396 . S
C463 C458 1.499 . S
C463 H464 0.959 . S
C463 H465 0.960 . S
C463 H466 0.961 . S
H464 C463 0.959 . S
H465 C463 0.960 . S
H466 C463 0.961 . S
O467 Co442 1.967 . S
O467 C475 1.258 . S
O468 Co443 1.941 . S
O468 C475 1.266 . S
H469 C471 0.959 . S
H470 C471 0.961 . S
C471 C461 1.510 . S
C471 H469 0.959 . S
C471 H470 0.961 . S
C471 H472 0.960 . S
H472 C471 0.960 . S
H473 N453 0.862 . S
O474 Co442 1.920 . S
O474 C447 1.289 . S
C475 O467 1.258 . S
C475 O468 1.266 . S
Co476 O479 1.970 . S
Co476 N493 1.989 . S
Co476 O501 1.967 . S
Co476 O508 1.920 . S
Co477 O480 1.966 . S
Co477 N486 2.022 . S
Co477 N494 1.993 1_556 S
Co477 O502 1.941 . S
C478 O479 1.258 . S
C478 O480 1.263 1_554 S
O479 Co476 1.970 . S
O479 C478 1.258 . S
O480 Co477 1.966 . S
O480 C478 1.263 1_556 S
C481 O482 1.235 . S
C481 O508 1.289 . S
O482 C481 1.235 . S
C483 C485 1.400 . S
C483 N486 1.351 . S
C483 C488 1.501 . S
C484 C485 1.387 . S
C484 N487 1.341 . S
C485 C483 1.400 . S
C485 C484 1.387 . S
N486 Co477 2.022 . S
N486 C483 1.351 . S
N486 N487 1.365 . S
N487 C484 1.341 . S
N487 N486 1.365 . S
N487 H507 0.862 . S
C488 C483 1.501 . S
C488 H489 0.961 . S
C488 H490 0.961 . S
C488 H491 0.960 . S
H489 C488 0.961 . S
H490 C488 0.961 . S
H491 C488 0.960 . S
C492 N493 1.342 . S
C492 C496 1.401 . S
C492 C497 1.499 . S
N493 Co476 1.989 . S
N493 C492 1.342 . S
N493 N494 1.388 . S
N494 Co477 1.993 1_554 S
N494 N493 1.388 . S
N494 C495 1.346 1_554 S
C495 N494 1.346 1_556 S
C495 C496 1.396 1_556 S
C495 C505 1.510 . S
C496 C492 1.401 . S
C496 C495 1.396 1_554 S
C497 C492 1.499 . S
C497 H498 0.959 . S
C497 H499 0.960 . S
C497 H500 0.961 . S
H498 C497 0.959 . S
H499 C497 0.960 . S
H500 C497 0.961 . S
O501 Co476 1.967 . S
O501 C509 1.258 . S
O502 Co477 1.941 . S
O502 C509 1.266 1_556 S
H503 C505 0.959 . S
H504 C505 0.961 . S
C505 C495 1.510 . S
C505 H503 0.959 . S
C505 H504 0.961 . S
C505 H506 0.960 . S
H506 C505 0.960 . S
H507 N487 0.862 . S
O508 Co476 1.920 . S
O508 C481 1.289 . S
C509 O501 1.258 . S
C509 O502 1.266 1_554 S
Co510 O513 1.970 . S
Co510 N527 1.989 . S
Co510 O535 1.967 . S
Co510 O542 1.920 . S
Co511 O514 1.966 . S
Co511 N520 2.022 . S
Co511 N528 1.993 . S
Co511 O536 1.941 . S
C512 O513 1.258 . S
C512 O514 1.263 . S
O513 Co510 1.970 . S
O513 C512 1.258 . S
O514 Co511 1.966 . S
O514 C512 1.263 . S
C515 O516 1.235 . S
C515 O542 1.289 . S
O516 C515 1.235 . S
C517 C519 1.400 . S
C517 N520 1.351 1_554 S
C517 C522 1.501 . S
C518 C519 1.387 . S
C518 N521 1.340 . S
C519 C517 1.400 . S
C519 C518 1.387 . S
N520 Co511 2.022 . S
N520 C517 1.351 1_556 S
N520 N521 1.365 1_556 S
N521 C518 1.340 . S
N521 N520 1.365 1_554 S
N521 H541 0.862 1_554 S
C522 C517 1.501 . S
C522 H523 0.961 1_554 S
C522 H524 0.961 . S
C522 H525 0.960 . S
H523 C522 0.961 1_556 S
H524 C522 0.961 . S
H525 C522 0.960 . S
C526 N527 1.342 . S
C526 C530 1.401 . S
C526 C531 1.499 . S
N527 Co510 1.989 . S
N527 C526 1.342 . S
N527 N528 1.388 . S
N528 Co511 1.993 . S
N528 N527 1.388 . S
N528 C529 1.346 . S
C529 N528 1.346 . S
C529 C530 1.396 . S
C529 C539 1.510 . S
C530 C526 1.401 . S
C530 C529 1.396 . S
C531 C526 1.499 . S
C531 H532 0.959 . S
C531 H533 0.960 . S
C531 H534 0.961 . S
H532 C531 0.959 . S
H533 C531 0.960 . S
H534 C531 0.961 . S
O535 Co510 1.967 . S
O535 C543 1.258 . S
O536 Co511 1.941 . S
O536 C543 1.266 . S
H537 C539 0.959 . S
H538 C539 0.961 . S
C539 C529 1.510 . S
C539 H537 0.959 . S
C539 H538 0.961 . S
C539 H540 0.960 . S
H540 C539 0.960 . S
H541 N521 0.862 1_556 S
O542 Co510 1.920 . S
O542 C515 1.289 . S
C543 O535 1.258 . S
C543 O536 1.266 . S
C544 C545 1.349 . S
C544 C546 1.327 . S
C544 H569 0.950 . S
C545 C544 1.349 . S
C545 C561 1.349 . S
C546 C544 1.327 . S
C546 C565 1.429 . S
C546 H570 0.950 . S
C547 C564 1.574 . S
C547 C566 1.368 . S
C547 H571 0.949 . S
H548 C552 0.949 . S
C549 C550 1.349 . S
C549 C551 1.327 . S
C549 H572 0.950 . S
C550 C549 1.349 . S
C550 C562 1.349 . S
C551 C549 1.327 . S
C551 C567 1.429 . S
C551 H573 0.950 . S
C552 H548 0.949 . S
C552 C560 1.574 . S
C552 C568 1.368 . S
H553 C561 0.950 . S
H554 C559 0.950 . S
H555 C560 0.949 . S
H556 C562 0.950 . S
H557 C563 0.950 . S
H558 C564 0.949 . S
C559 H554 0.950 . S
C559 C561 1.327 . S
C559 C565 1.429 . S
C560 C552 1.574 . S
C560 H555 0.949 . S
C560 C566 1.368 . S
C561 C545 1.349 . S
C561 H553 0.950 . S
C561 C559 1.327 . S
C562 C550 1.349 . S
C562 H556 0.950 . S
C562 C563 1.327 . S
C563 H557 0.950 . S
C563 C562 1.327 . S
C563 C567 1.429 . S
C564 C547 1.574 . S
C564 H558 0.949 . S
C564 C568 1.368 . S
C565 C546 1.429 . S
C565 C559 1.429 . S
C565 C566 1.523 . S
C566 C547 1.368 . S
C566 C560 1.368 . S
C566 C565 1.523 . S
C567 C551 1.429 . S
C567 C563 1.429 . S
C567 C568 1.523 . S
C568 C552 1.368 . S
C568 C564 1.368 . S
C568 C567 1.523 . S
H569 C544 0.950 . S
H570 C546 0.950 . S
H571 C547 0.949 . S
H572 C549 0.950 . S
H573 C551 0.950 . S
C574 C575 1.349 . S
C574 C576 1.327 . S
C574 H599 0.950 . S
C575 C574 1.349 . S
C575 C591 1.349 . S
C576 C574 1.327 . S
C576 C595 1.429 . S
C576 H600 0.950 . S
C577 C594 1.574 . S
C577 C596 1.368 . S
C577 H601 0.949 . S
H578 C582 0.949 . S
C579 C580 1.349 . S
C579 C581 1.327 . S
C579 H602 0.950 . S
C580 C579 1.349 . S
C580 C592 1.349 . S
C581 C579 1.327 . S
C581 C597 1.429 . S
C581 H603 0.950 . S
C582 H578 0.949 . S
C582 C590 1.574 . S
C582 C598 1.368 . S
H583 C591 0.950 . S
H584 C589 0.950 . S
H585 C590 0.949 . S
H586 C592 0.950 . S
H587 C593 0.950 . S
H588 C594 0.949 . S
C589 H584 0.950 . S
C589 C591 1.327 . S
C589 C595 1.429 . S
C590 C582 1.574 . S
C590 H585 0.949 . S
C590 C596 1.368 . S
C591 C575 1.349 . S
C591 H583 0.950 . S
C591 C589 1.327 . S
C592 C580 1.349 . S
C592 H586 0.950 . S
C592 C593 1.327 . S
C593 H587 0.950 . S
C593 C592 1.327 . S
C593 C597 1.429 . S
C594 C577 1.574 . S
C594 H588 0.949 . S
C594 C598 1.368 . S
C595 C576 1.429 . S
C595 C589 1.429 . S
C595 C596 1.523 . S
C596 C577 1.368 . S
C596 C590 1.368 . S
C596 C595 1.523 . S
C597 C581 1.429 . S
C597 C593 1.429 . S
C597 C598 1.523 . S
C598 C582 1.368 . S
C598 C594 1.368 . S
C598 C597 1.523 . S
H599 C574 0.950 . S
H600 C576 0.950 . S
H601 C577 0.949 . S
H602 C579 0.950 . S
H603 C581 0.950 . S
C604 C605 1.349 1_545 S
C604 C606 1.327 . S
C604 H629 0.950 . S
C605 C604 1.349 1_565 S
C605 C621 1.349 . S
C606 C604 1.327 . S
C606 C625 1.425 . S
C606 H630 0.950 . S
C607 C624 1.574 . S
C607 C626 1.368 1_565 S
C607 H631 0.949 . S
H608 C612 0.949 . S
C609 C610 1.349 1_565 S
C609 C611 1.327 . S
C609 H632 0.950 . S
C610 C609 1.349 1_545 S
C610 C622 1.349 . S
C611 C609 1.327 . S
C611 C627 1.429 1_565 S
C611 H633 0.950 . S
C612 H608 0.949 . S
C612 C620 1.574 . S
C612 C628 1.368 . S
H613 C621 0.950 . S
H614 C619 0.950 . S
H615 C620 0.949 . S
H616 C622 0.950 . S
H617 C623 0.950 . S
H618 C624 0.949 . S
C619 H614 0.950 . S
C619 C621 1.327 . S
C619 C625 1.433 1_565 S
C620 C612 1.574 . S
C620 H615 0.949 . S
C620 C626 1.368 . S
C621 C605 1.349 . S
C621 H613 0.950 . S
C621 C619 1.327 . S
C622 C610 1.349 . S
C622 H616 0.950 . S
C622 C623 1.327 . S
C623 H617 0.950 . S
C623 C622 1.327 . S
C623 C627 1.429 . S
C624 C607 1.574 . S
C624 H618 0.949 . S
C624 C628 1.368 1_565 S
C625 C606 1.425 . S
C625 C619 1.433 1_545 S
C625 C626 1.522 . S
C626 C607 1.368 1_545 S
C626 C620 1.368 . S
C626 C625 1.522 . S
C627 C611 1.429 1_545 S
C627 C623 1.429 . S
C627 C628 1.523 1_556 S
C628 C612 1.368 . S
C628 C624 1.368 1_545 S
C628 C627 1.523 1_554 S
H629 C604 0.950 . S
H630 C606 0.950 . S
H631 C607 0.949 . S
H632 C609 0.950 . S
H633 C611 0.950 . S
C634 C635 1.349 . S
C634 C636 1.327 . S
C634 H659 0.950 . S
C635 C634 1.349 . S
C635 C651 1.349 . S
C636 C634 1.327 . S
C636 C655 1.429 . S
C636 H660 0.950 . S
C637 C654 1.574 . S
C637 C656 1.368 . S
C637 H661 0.949 . S
H638 C642 0.949 . S
C639 C640 1.349 . S
C639 C641 1.327 . S
C639 H662 0.950 . S
C640 C639 1.349 . S
C640 C652 1.349 . S
C641 C639 1.327 . S
C641 C657 1.429 . S
C641 H663 0.950 . S
C642 H638 0.949 . S
C642 C650 1.574 . S
C642 C658 1.368 . S
H643 C651 0.950 . S
H644 C649 0.950 . S
H645 C650 0.949 . S
H646 C652 0.950 . S
H647 C653 0.950 . S
H648 C654 0.949 . S
C649 H644 0.950 . S
C649 C651 1.327 . S
C649 C655 1.429 . S
C650 C642 1.574 . S
C650 H645 0.949 . S
C650 C656 1.368 . S
C651 C635 1.349 . S
C651 H643 0.950 . S
C651 C649 1.327 . S
C652 C640 1.349 . S
C652 H646 0.950 . S
C652 C653 1.327 . S
C653 H647 0.950 . S
C653 C652 1.327 . S
C653 C657 1.429 . S
C654 C637 1.574 . S
C654 H648 0.949 . S
C654 C658 1.368 . S
C655 C636 1.429 . S
C655 C649 1.429 . S
C655 C656 1.523 . S
C656 C637 1.368 . S
C656 C650 1.368 . S
C656 C655 1.523 . S
C657 C641 1.429 . S
C657 C653 1.429 . S
C657 C658 1.523 . S
C658 C642 1.368 . S
C658 C654 1.368 . S
C658 C657 1.523 . S
H659 C634 0.950 . S
H660 C636 0.950 . S
H661 C637 0.949 . S
H662 C639 0.950 . S
H663 C641 0.950 . S
C664 C665 1.349 . S
C664 C666 1.327 . S
C664 H689 0.950 . S
C665 C664 1.349 . S
C665 C681 1.349 1_545 S
C666 C664 1.327 . S
C666 C685 1.429 . S
C666 H690 0.950 . S
C667 C684 1.574 . S
C667 C686 1.368 1_565 S
C667 H691 0.949 . S
H668 C672 0.949 . S
C669 C670 1.349 . S
C669 C671 1.327 . S
C669 H692 0.950 . S
C670 C669 1.349 . S
C670 C682 1.349 1_565 S
C671 C669 1.327 . S
C671 C687 1.435 1_565 S
C671 H693 0.950 . S
C672 H668 0.949 . S
C672 C680 1.574 . S
C672 C688 1.368 . S
H673 C681 0.950 . S
H674 C679 0.950 . S
H675 C680 0.949 . S
H676 C682 0.950 . S
H677 C683 0.950 . S
H678 C684 0.949 . S
C679 H674 0.950 . S
C679 C681 1.327 . S
C679 C685 1.429 1_565 S
C680 C672 1.574 . S
C680 H675 0.949 . S
C680 C686 1.368 . S
C681 C665 1.349 1_565 S
C681 H673 0.950 . S
C681 C679 1.327 . S
C682 C670 1.349 1_545 S
C682 H676 0.950 . S
C682 C683 1.327 . S
C683 H677 0.950 . S
C683 C682 1.327 . S
C683 C687 1.423 . S
C684 C667 1.574 . S
C684 H678 0.949 . S
C684 C688 1.368 1_565 S
C685 C666 1.429 . S
C685 C679 1.429 1_545 S
C685 C686 1.523 . S
C686 C667 1.368 1_545 S
C686 C680 1.368 . S
C686 C685 1.523 . S
C687 C671 1.435 1_545 S
C687 C683 1.423 . S
C687 C688 1.522 . S
C688 C672 1.368 . S
C688 C684 1.368 1_545 S
C688 C687 1.522 . S
H689 C664 0.950 . S
H690 C666 0.950 . S
H691 C667 0.949 . S
H692 C669 0.950 . S
H693 C671 0.950 . S
C694 C695 1.349 . S
C694 C696 1.327 . S
C694 H719 0.950 . S
C695 C694 1.349 . S
C695 C711 1.349 . S
C696 C694 1.327 . S
C696 C715 1.429 . S
C696 H720 0.950 . S
C697 C714 1.574 . S
C697 C716 1.368 . S
C697 H721 0.949 . S
H698 C702 0.949 . S
C699 C700 1.349 . S
C699 C701 1.327 . S
C699 H722 0.950 . S
C700 C699 1.349 . S
C700 C712 1.349 . S
C701 C699 1.327 . S
C701 C717 1.429 . S
C701 H723 0.950 . S
C702 H698 0.949 . S
C702 C710 1.574 . S
C702 C718 1.368 . S
H703 C711 0.950 . S
H704 C709 0.950 . S
H705 C710 0.949 . S
H706 C712 0.950 . S
H707 C713 0.950 . S
H708 C714 0.949 . S
C709 H704 0.950 . S
C709 C711 1.327 . S
C709 C715 1.429 . S
C710 C702 1.574 . S
C710 H705 0.949 . S
C710 C716 1.368 . S
C711 C695 1.349 . S
C711 H703 0.950 . S
C711 C709 1.327 . S
C712 C700 1.349 . S
C712 H706 0.950 . S
C712 C713 1.327 . S
C713 H707 0.950 . S
C713 C712 1.327 . S
C713 C717 1.429 . S
C714 C697 1.574 . S
C714 H708 0.949 . S
C714 C718 1.368 . S
C715 C696 1.429 . S
C715 C709 1.429 . S
C715 C716 1.523 . S
C716 C697 1.368 . S
C716 C710 1.368 . S
C716 C715 1.523 . S
C717 C701 1.429 . S
C717 C713 1.429 . S
C717 C718 1.523 . S
C718 C702 1.368 . S
C718 C714 1.368 . S
C718 C717 1.523 . S
H719 C694 0.950 . S
H720 C696 0.950 . S
H721 C697 0.949 . S
H722 C699 0.950 . S
H723 C701 0.950 . S
C724 C725 1.349 . S
C724 C726 1.327 . S
C724 H749 0.950 . S
C725 C724 1.349 . S
C725 C741 1.349 . S
C726 C724 1.327 . S
C726 C745 1.429 . S
C726 H750 0.950 . S
C727 C744 1.574 1_554 S
C727 C746 1.368 . S
C727 H751 0.949 . S
H728 C732 0.949 . S
C729 C730 1.349 . S
C729 C731 1.327 . S
C729 H752 0.950 . S
C730 C729 1.349 . S
C730 C742 1.349 . S
C731 C729 1.327 . S
C731 C747 1.429 . S
C731 H753 0.950 . S
C732 H728 0.949 . S
C732 C740 1.574 1_556 S
C732 C748 1.368 . S
H733 C741 0.950 . S
H734 C739 0.950 . S
H735 C740 0.949 . S
H736 C742 0.950 . S
H737 C743 0.950 . S
H738 C744 0.949 . S
C739 H734 0.950 . S
C739 C741 1.327 . S
C739 C745 1.429 . S
C740 C732 1.574 1_554 S
C740 H735 0.949 . S
C740 C746 1.368 . S
C741 C725 1.349 . S
C741 H733 0.950 . S
C741 C739 1.327 . S
C742 C730 1.349 . S
C742 H736 0.950 . S
C742 C743 1.327 . S
C743 H737 0.950 . S
C743 C742 1.327 . S
C743 C747 1.429 . S
C744 C727 1.574 1_556 S
C744 H738 0.949 . S
C744 C748 1.368 . S
C745 C726 1.429 . S
C745 C739 1.429 . S
C745 C746 1.523 . S
C746 C727 1.368 . S
C746 C740 1.368 . S
C746 C745 1.523 . S
C747 C731 1.429 . S
C747 C743 1.429 . S
C747 C748 1.523 . S
C748 C732 1.368 . S
C748 C744 1.368 . S
C748 C747 1.523 . S
H749 C724 0.950 . S
H750 C726 0.950 . S
H751 C727 0.949 . S
H752 C729 0.950 . S
H753 C731 0.950 . S
C754 C755 1.349 . S
C754 C756 1.327 . S
C754 H779 0.950 . S
C755 C754 1.349 . S
C755 C771 1.349 . S
C756 C754 1.327 . S
C756 C775 1.429 . S
C756 H780 0.950 . S
C757 C774 1.574 . S
C757 C776 1.368 . S
C757 H781 0.949 . S
H758 C762 0.949 . S
C759 C760 1.349 . S
C759 C761 1.327 . S
C759 H782 0.950 . S
C760 C759 1.349 . S
C760 C772 1.349 . S
C761 C759 1.327 . S
C761 C777 1.429 1_554 S
C761 H783 0.950 1_554 S
C762 H758 0.949 . S
C762 C770 1.574 . S
C762 C778 1.368 . S
H763 C771 0.950 . S
H764 C769 0.950 . S
H765 C770 0.949 . S
H766 C772 0.950 . S
H767 C773 0.950 1_556 S
H768 C774 0.949 . S
C769 H764 0.950 . S
C769 C771 1.327 . S
C769 C775 1.429 . S
C770 C762 1.574 . S
C770 H765 0.949 . S
C770 C776 1.368 . S
C771 C755 1.349 . S
C771 H763 0.950 . S
C771 C769 1.327 . S
C772 C760 1.349 . S
C772 H766 0.950 . S
C772 C773 1.327 . S
C773 H767 0.950 1_554 S
C773 C772 1.327 . S
C773 C777 1.429 1_554 S
C774 C757 1.574 . S
C774 H768 0.949 . S
C774 C778 1.368 . S
C775 C756 1.429 . S
C775 C769 1.429 . S
C775 C776 1.523 . S
C776 C757 1.368 . S
C776 C770 1.368 . S
C776 C775 1.523 . S
C777 C761 1.429 1_556 S
C777 C773 1.429 1_556 S
C777 C778 1.523 . S
C778 C762 1.368 . S
C778 C774 1.368 . S
C778 C777 1.523 . S
H779 C754 0.950 . S
H780 C756 0.950 . S
H781 C757 0.949 . S
H782 C759 0.950 . S
H783 C761 0.950 1_556 S
C784 C785 1.349 . S
C784 C786 1.327 . S
C784 H809 0.950 . S
C785 C784 1.349 . S
C785 C801 1.349 . S
C786 C784 1.327 . S
C786 C805 1.429 . S
C786 H810 0.950 . S
C787 C804 1.574 . S
C787 C806 1.368 . S
C787 H811 0.949 . S
H788 C792 0.949 . S
C789 C790 1.349 . S
C789 C791 1.327 . S
C789 H812 0.950 . S
C790 C789 1.349 . S
C790 C802 1.349 . S
C791 C789 1.327 . S
C791 C807 1.429 . S
C791 H813 0.950 . S
C792 H788 0.949 . S
C792 C800 1.574 . S
C792 C808 1.368 . S
H793 C801 0.950 . S
H794 C799 0.950 . S
H795 C800 0.949 . S
H796 C802 0.950 . S
H797 C803 0.950 . S
H798 C804 0.949 . S
C799 H794 0.950 . S
C799 C801 1.327 . S
C799 C805 1.429 . S
C800 C792 1.574 . S
C800 H795 0.949 . S
C800 C806 1.368 . S
C801 C785 1.349 . S
C801 H793 0.950 . S
C801 C799 1.327 . S
C802 C790 1.349 . S
C802 H796 0.950 . S
C802 C803 1.327 . S
C803 H797 0.950 . S
C803 C802 1.327 . S
C803 C807 1.429 . S
C804 C787 1.574 . S
C804 H798 0.949 . S
C804 C808 1.368 . S
C805 C786 1.429 . S
C805 C799 1.429 . S
C805 C806 1.523 . S
C806 C787 1.368 . S
C806 C800 1.368 . S
C806 C805 1.523 . S
C807 C791 1.429 . S
C807 C803 1.429 . S
C807 C808 1.523 1_556 S
C808 C792 1.368 . S
C808 C804 1.368 . S
C808 C807 1.523 1_554 S
H809 C784 0.950 . S
H810 C786 0.950 . S
H811 C787 0.949 . S
H812 C789 0.950 . S
H813 C791 0.950 . S
C814 C815 1.349 . S
C814 C816 1.327 . S
C814 H839 0.950 . S
C815 C814 1.349 . S
C815 C831 1.349 . S
C816 C814 1.327 . S
C816 C835 1.429 . S
C816 H840 0.950 . S
C817 C834 1.574 . S
C817 C836 1.368 . S
C817 H841 0.949 . S
H818 C822 0.949 . S
C819 C820 1.349 . S
C819 C821 1.327 . S
C819 H842 0.950 . S
C820 C819 1.349 . S
C820 C832 1.349 . S
C821 C819 1.327 . S
C821 C837 1.429 . S
C821 H843 0.950 . S
C822 H818 0.949 . S
C822 C830 1.574 . S
C822 C838 1.368 . S
H823 C831 0.950 . S
H824 C829 0.950 . S
H825 C830 0.949 . S
H826 C832 0.950 . S
H827 C833 0.950 . S
H828 C834 0.949 . S
C829 H824 0.950 . S
C829 C831 1.327 . S
C829 C835 1.429 . S
C830 C822 1.574 . S
C830 H825 0.949 . S
C830 C836 1.368 . S
C831 C815 1.349 . S
C831 H823 0.950 . S
C831 C829 1.327 . S
C832 C820 1.349 . S
C832 H826 0.950 . S
C832 C833 1.327 . S
C833 H827 0.950 . S
C833 C832 1.327 . S
C833 C837 1.429 . S
C834 C817 1.574 . S
C834 H828 0.949 . S
C834 C838 1.368 . S
C835 C816 1.429 . S
C835 C829 1.429 . S
C835 C836 1.523 . S
C836 C817 1.368 . S
C836 C830 1.368 . S
C836 C835 1.523 . S
C837 C821 1.429 . S
C837 C833 1.429 . S
C837 C838 1.523 . S
C838 C822 1.368 . S
C838 C834 1.368 . S
C838 C837 1.523 . S
H839 C814 0.950 . S
H840 C816 0.950 . S
H841 C817 0.949 . S
H842 C819 0.950 . S
H843 C821 0.950 . S
C844 C845 1.349 . S
C844 C846 1.327 . S
C844 H869 0.950 . S
C845 C844 1.349 . S
C845 C861 1.349 . S
C846 C844 1.327 . S
C846 C865 1.429 . S
C846 H870 0.950 . S
C847 C864 1.574 . S
C847 C866 1.368 . S
C847 H871 0.949 . S
H848 C852 0.949 . S
C849 C850 1.349 . S
C849 C851 1.327 . S
C849 H872 0.950 . S
C850 C849 1.349 . S
C850 C862 1.349 . S
C851 C849 1.327 . S
C851 C867 1.429 . S
C851 H873 0.950 . S
C852 H848 0.949 . S
C852 C860 1.574 . S
C852 C868 1.368 . S
H853 C861 0.950 . S
H854 C859 0.950 . S
H855 C860 0.949 . S
H856 C862 0.950 . S
H857 C863 0.950 . S
H858 C864 0.949 . S
C859 H854 0.950 . S
C859 C861 1.327 . S
C859 C865 1.429 . S
C860 C852 1.574 . S
C860 H855 0.949 . S
C860 C866 1.368 . S
C861 C845 1.349 . S
C861 H853 0.950 . S
C861 C859 1.327 . S
C862 C850 1.349 . S
C862 H856 0.950 . S
C862 C863 1.327 . S
C863 H857 0.950 . S
C863 C862 1.327 . S
C863 C867 1.429 . S
C864 C847 1.574 . S
C864 H858 0.949 . S
C864 C868 1.368 . S
C865 C846 1.429 . S
C865 C859 1.429 . S
C865 C866 1.523 . S
C866 C847 1.368 . S
C866 C860 1.368 . S
C866 C865 1.523 . S
C867 C851 1.429 . S
C867 C863 1.429 . S
C867 C868 1.523 . S
C868 C852 1.368 . S
C868 C864 1.368 . S
C868 C867 1.523 . S
H869 C844 0.950 . S
H870 C846 0.950 . S
H871 C847 0.949 . S
H872 C849 0.950 . S
H873 C851 0.950 . S
C874 C875 1.349 . S
C874 C876 1.327 . S
C874 H899 0.950 . S
C875 C874 1.349 . S
C875 C891 1.349 . S
C876 C874 1.327 . S
C876 C895 1.429 . S
C876 H900 0.950 . S
C877 C894 1.574 . S
C877 C896 1.368 . S
C877 H901 0.949 . S
H878 C882 0.949 . S
C879 C880 1.349 . S
C879 C881 1.327 . S
C879 H902 0.950 . S
C880 C879 1.349 . S
C880 C892 1.349 . S
C881 C879 1.327 . S
C881 C897 1.429 . S
C881 H903 0.950 . S
C882 H878 0.949 . S
C882 C890 1.574 . S
C882 C898 1.368 . S
H883 C891 0.950 . S
H884 C889 0.950 . S
H885 C890 0.949 . S
H886 C892 0.950 . S
H887 C893 0.950 . S
H888 C894 0.949 . S
C889 H884 0.950 . S
C889 C891 1.327 . S
C889 C895 1.429 . S
C890 C882 1.574 . S
C890 H885 0.949 . S
C890 C896 1.368 . S
C891 C875 1.349 . S
C891 H883 0.950 . S
C891 C889 1.327 . S
C892 C880 1.349 . S
C892 H886 0.950 . S
C892 C893 1.327 . S
C893 H887 0.950 . S
C893 C892 1.327 . S
C893 C897 1.429 . S
C894 C877 1.574 . S
C894 H888 0.949 . S
C894 C898 1.368 . S
C895 C876 1.429 . S
C895 C889 1.429 . S
C895 C896 1.523 . S
C896 C877 1.368 . S
C896 C890 1.368 . S
C896 C895 1.523 . S
C897 C881 1.429 . S
C897 C893 1.429 . S
C897 C898 1.523 . S
C898 C882 1.368 . S
C898 C894 1.368 . S
C898 C897 1.523 . S
H899 C874 0.950 . S
H900 C876 0.950 . S
H901 C877 0.949 . S
H902 C879 0.950 . S
H903 C881 0.950 . S
C904 C905 1.349 . S
C904 C906 1.327 . S
C904 H929 0.950 . S
C905 C904 1.349 . S
C905 C921 1.349 . S
C906 C904 1.327 . S
C906 C925 1.429 . S
C906 H930 0.950 . S
C907 C924 1.574 1_556 S
C907 C926 1.368 . S
C907 H931 0.949 . S
H908 C912 0.949 . S
C909 C910 1.349 . S
C909 C911 1.327 . S
C909 H932 0.950 . S
C910 C909 1.349 . S
C910 C922 1.349 . S
C911 C909 1.327 . S
C911 C927 1.429 . S
C911 H933 0.950 . S
C912 H908 0.949 . S
C912 C920 1.574 1_554 S
C912 C928 1.368 . S
H913 C921 0.950 . S
H914 C919 0.950 . S
H915 C920 0.949 . S
H916 C922 0.950 . S
H917 C923 0.950 . S
H918 C924 0.949 . S
C919 H914 0.950 . S
C919 C921 1.327 . S
C919 C925 1.429 . S
C920 C912 1.574 1_556 S
C920 H915 0.949 . S
C920 C926 1.368 . S
C921 C905 1.349 . S
C921 H913 0.950 . S
C921 C919 1.327 . S
C922 C910 1.349 . S
C922 H916 0.950 . S
C922 C923 1.327 . S
C923 H917 0.950 . S
C923 C922 1.327 . S
C923 C927 1.429 . S
C924 C907 1.574 1_554 S
C924 H918 0.949 . S
C924 C928 1.368 . S
C925 C906 1.429 . S
C925 C919 1.429 . S
C925 C926 1.523 . S
C926 C907 1.368 . S
C926 C920 1.368 . S
C926 C925 1.523 . S
C927 C911 1.429 . S
C927 C923 1.429 . S
C927 C928 1.523 . S
C928 C912 1.368 . S
C928 C924 1.368 . S
C928 C927 1.523 . S
H929 C904 0.950 . S
H930 C906 0.950 . S
H931 C907 0.949 . S
H932 C909 0.950 . S
H933 C911 0.950 . S
C934 C935 1.349 . S
C934 C936 1.327 . S
C934 H959 0.950 . S
C935 C934 1.349 . S
C935 C951 1.349 . S
C936 C934 1.327 . S
C936 C955 1.429 1_554 S
C936 H960 0.950 1_554 S
C937 C954 1.574 . S
C937 C956 1.368 . S
C937 H961 0.949 . S
H938 C942 0.949 . S
C939 C940 1.349 . S
C939 C941 1.327 . S
C939 H962 0.950 . S
C940 C939 1.349 . S
C940 C952 1.349 . S
C941 C939 1.327 . S
C941 C957 1.429 . S
C941 H963 0.950 . S
C942 H938 0.949 . S
C942 C950 1.574 . S
C942 C958 1.368 . S
H943 C951 0.950 . S
H944 C949 0.950 1_556 S
H945 C950 0.949 . S
H946 C952 0.950 . S
H947 C953 0.950 . S
H948 C954 0.949 . S
C949 H944 0.950 1_554 S
C949 C951 1.327 . S
C949 C955 1.429 1_554 S
C950 C942 1.574 . S
C950 H945 0.949 . S
C950 C956 1.368 . S
C951 C935 1.349 . S
C951 H943 0.950 . S
C951 C949 1.327 . S
C952 C940 1.349 . S
C952 H946 0.950 . S
C952 C953 1.327 . S
C953 H947 0.950 . S
C953 C952 1.327 . S
C953 C957 1.429 . S
C954 C937 1.574 . S
C954 H948 0.949 . S
C954 C958 1.368 . S
C955 C936 1.429 1_556 S
C955 C949 1.429 1_556 S
C955 C956 1.523 . S
C956 C937 1.368 . S
C956 C950 1.368 . S
C956 C955 1.523 . S
C957 C941 1.429 . S
C957 C953 1.429 . S
C957 C958 1.523 . S
C958 C942 1.368 . S
C958 C954 1.368 . S
C958 C957 1.523 . S
H959 C934 0.950 . S
H960 C936 0.950 1_556 S
H961 C937 0.949 . S
H962 C939 0.950 . S
H963 C941 0.950 . S
C964 C965 1.349 . S
C964 C966 1.327 . S
C964 H989 0.950 . S
C965 C964 1.349 . S
C965 C981 1.349 . S
C966 C964 1.327 . S
C966 C985 1.429 . S
C966 H990 0.950 . S
C967 C984 1.574 . S
C967 C986 1.368 . S
C967 H991 0.949 . S
H968 C972 0.949 . S
C969 C970 1.349 . S
C969 C971 1.327 . S
C969 H992 0.950 . S
C970 C969 1.349 . S
C970 C982 1.349 . S
C971 C969 1.327 . S
C971 C987 1.429 . S
C971 H993 0.950 . S
C972 H968 0.949 . S
C972 C980 1.574 . S
C972 C988 1.368 . S
H973 C981 0.950 . S
H974 C979 0.950 . S
H975 C980 0.949 . S
H976 C982 0.950 . S
H977 C983 0.950 . S
H978 C984 0.949 . S
C979 H974 0.950 . S
C979 C981 1.327 . S
C979 C985 1.429 . S
C980 C972 1.574 . S
C980 H975 0.949 . S
C980 C986 1.368 . S
C981 C965 1.349 . S
C981 H973 0.950 . S
C981 C979 1.327 . S
C982 C970 1.349 . S
C982 H976 0.950 . S
C982 C983 1.327 . S
C983 H977 0.950 . S
C983 C982 1.327 . S
C983 C987 1.429 . S
C984 C967 1.574 . S
C984 H978 0.949 . S
C984 C988 1.368 . S
C985 C966 1.429 . S
C985 C979 1.429 . S
C985 C986 1.523 . S
C986 C967 1.368 . S
C986 C980 1.368 . S
C986 C985 1.523 . S
C987 C971 1.429 . S
C987 C983 1.429 . S
C987 C988 1.523 . S
C988 C972 1.368 . S
C988 C984 1.368 . S
C988 C987 1.523 . S
H989 C964 0.950 . S
H990 C966 0.950 . S
H991 C967 0.949 . S
H992 C969 0.950 . S
H993 C971 0.950 . S
C994 C995 1.349 . S
C994 C996 1.327 . S
C994 H1019 0.950 . S
C995 C994 1.349 . S
C995 C1011 1.349 . S
C996 C994 1.327 . S
C996 C1015 1.429 . S
C996 H1020 0.950 . S
C997 C1014 1.574 . S
C997 C1016 1.368 . S
C997 H1021 0.949 . S
H998 C1002 0.949 . S
C999 C1000 1.349 . S
C999 C1001 1.327 . S
C999 H1022 0.950 . S
C1000 C999 1.349 . S
C1000 C1012 1.349 . S
C1001 C999 1.327 . S
C1001 C1017 1.429 . S
C1001 H1023 0.950 . S
C1002 H998 0.949 . S
C1002 C1010 1.574 . S
C1002 C1018 1.368 . S
H1003 C1011 0.950 . S
H1004 C1009 0.950 . S
H1005 C1010 0.949 . S
H1006 C1012 0.950 . S
H1007 C1013 0.950 . S
H1008 C1014 0.949 . S
C1009 H1004 0.950 . S
C1009 C1011 1.327 . S
C1009 C1015 1.429 . S
C1010 C1002 1.574 . S
C1010 H1005 0.949 . S
C1010 C1016 1.368 . S
C1011 C995 1.349 . S
C1011 H1003 0.950 . S
C1011 C1009 1.327 . S
C1012 C1000 1.349 . S
C1012 H1006 0.950 . S
C1012 C1013 1.327 . S
C1013 H1007 0.950 . S
C1013 C1012 1.327 . S
C1013 C1017 1.429 . S
C1014 C997 1.574 . S
C1014 H1008 0.949 . S
C1014 C1018 1.368 . S
C1015 C996 1.429 . S
C1015 C1009 1.429 . S
C1015 C1016 1.523 . S
C1016 C997 1.368 . S
C1016 C1010 1.368 . S
C1016 C1015 1.523 . S
C1017 C1001 1.429 . S
C1017 C1013 1.429 . S
C1017 C1018 1.523 . S
C1018 C1002 1.368 . S
C1018 C1014 1.368 . S
C1018 C1017 1.523 . S
H1019 C994 0.950 . S
H1020 C996 0.950 . S
H1021 C997 0.949 . S
H1022 C999 0.950 . S
H1023 C1001 0.950 . S
C1024 C1025 1.349 . S
C1024 C1026 1.327 . S
C1024 H1049 0.950 . S
C1025 C1024 1.349 . S
C1025 C1041 1.349 . S
C1026 C1024 1.327 . S
C1026 C1045 1.429 . S
C1026 H1050 0.950 . S
C1027 C1044 1.574 . S
C1027 C1046 1.368 . S
C1027 H1051 0.949 . S
H1028 C1032 0.949 . S
C1029 C1030 1.349 . S
C1029 C1031 1.327 . S
C1029 H1052 0.950 . S
C1030 C1029 1.349 . S
C1030 C1042 1.349 . S
C1031 C1029 1.327 . S
C1031 C1047 1.429 . S
C1031 H1053 0.950 . S
C1032 H1028 0.949 . S
C1032 C1040 1.574 . S
C1032 C1048 1.368 . S
H1033 C1041 0.950 . S
H1034 C1039 0.950 . S
H1035 C1040 0.949 . S
H1036 C1042 0.950 . S
H1037 C1043 0.950 . S
H1038 C1044 0.949 . S
C1039 H1034 0.950 . S
C1039 C1041 1.327 . S
C1039 C1045 1.429 . S
C1040 C1032 1.574 . S
C1040 H1035 0.949 . S
C1040 C1046 1.368 . S
C1041 C1025 1.349 . S
C1041 H1033 0.950 . S
C1041 C1039 1.327 . S
C1042 C1030 1.349 . S
C1042 H1036 0.950 . S
C1042 C1043 1.327 . S
C1043 H1037 0.950 . S
C1043 C1042 1.327 . S
C1043 C1047 1.429 . S
C1044 C1027 1.574 . S
C1044 H1038 0.949 . S
C1044 C1048 1.368 . S
C1045 C1026 1.429 . S
C1045 C1039 1.429 . S
C1045 C1046 1.523 . S
C1046 C1027 1.368 . S
C1046 C1040 1.368 . S
C1046 C1045 1.523 . S
C1047 C1031 1.429 . S
C1047 C1043 1.429 . S
C1047 C1048 1.523 . S
C1048 C1032 1.368 . S
C1048 C1044 1.368 . S
C1048 C1047 1.523 . S
H1049 C1024 0.950 . S
H1050 C1026 0.950 . S
H1051 C1027 0.949 . S
H1052 C1029 0.950 . S
H1053 C1031 0.950 . S
C1054 C1055 1.349 . S
C1054 C1056 1.327 . S
C1054 H1079 0.950 . S
C1055 C1054 1.349 . S
C1055 C1071 1.349 . S
C1056 C1054 1.327 . S
C1056 C1075 1.429 . S
C1056 H1080 0.950 . S
C1057 C1074 1.574 . S
C1057 C1076 1.368 . S
C1057 H1081 0.949 . S
H1058 C1062 0.949 . S
C1059 C1060 1.349 . S
C1059 C1061 1.327 . S
C1059 H1082 0.950 . S
C1060 C1059 1.349 . S
C1060 C1072 1.349 . S
C1061 C1059 1.327 . S
C1061 C1077 1.429 . S
C1061 H1083 0.950 . S
C1062 H1058 0.949 . S
C1062 C1070 1.574 . S
C1062 C1078 1.368 . S
H1063 C1071 0.950 . S
H1064 C1069 0.950 . S
H1065 C1070 0.949 . S
H1066 C1072 0.950 . S
H1067 C1073 0.950 . S
H1068 C1074 0.949 . S
C1069 H1064 0.950 . S
C1069 C1071 1.327 . S
C1069 C1075 1.429 . S
C1070 C1062 1.574 . S
C1070 H1065 0.949 . S
C1070 C1076 1.368 . S
C1071 C1055 1.349 . S
C1071 H1063 0.950 . S
C1071 C1069 1.327 . S
C1072 C1060 1.349 . S
C1072 H1066 0.950 . S
C1072 C1073 1.327 . S
C1073 H1067 0.950 . S
C1073 C1072 1.327 . S
C1073 C1077 1.429 . S
C1074 C1057 1.574 . S
C1074 H1068 0.949 . S
C1074 C1078 1.368 . S
C1075 C1056 1.429 . S
C1075 C1069 1.429 . S
C1075 C1076 1.523 . S
C1076 C1057 1.368 . S
C1076 C1070 1.368 . S
C1076 C1075 1.523 . S
C1077 C1061 1.429 . S
C1077 C1073 1.429 . S
C1077 C1078 1.523 . S
C1078 C1062 1.368 . S
C1078 C1074 1.368 . S
C1078 C1077 1.523 . S
H1079 C1054 0.950 . S
H1080 C1056 0.950 . S
H1081 C1057 0.949 . S
H1082 C1059 0.950 . S
H1083 C1061 0.950 . S
C1084 C1085 1.349 . S
C1084 C1086 1.327 . S
C1084 H1109 0.950 . S
C1085 C1084 1.349 . S
C1085 C1101 1.349 . S
C1086 C1084 1.327 . S
C1086 C1105 1.429 . S
C1086 H1110 0.950 . S
C1087 C1104 1.574 . S
C1087 C1106 1.368 . S
C1087 H1111 0.949 . S
H1088 C1092 0.949 . S
C1089 C1090 1.349 . S
C1089 C1091 1.327 . S
C1089 H1112 0.950 . S
C1090 C1089 1.349 . S
C1090 C1102 1.349 . S
C1091 C1089 1.327 . S
C1091 C1107 1.429 . S
C1091 H1113 0.950 . S
C1092 H1088 0.949 . S
C1092 C1100 1.574 . S
C1092 C1108 1.368 . S
H1093 C1101 0.950 . S
H1094 C1099 0.950 . S
H1095 C1100 0.949 . S
H1096 C1102 0.950 . S
H1097 C1103 0.950 . S
H1098 C1104 0.949 . S
C1099 H1094 0.950 . S
C1099 C1101 1.327 . S
C1099 C1105 1.429 . S
C1100 C1092 1.574 . S
C1100 H1095 0.949 . S
C1100 C1106 1.368 . S
C1101 C1085 1.349 . S
C1101 H1093 0.950 . S
C1101 C1099 1.327 . S
C1102 C1090 1.349 . S
C1102 H1096 0.950 . S
C1102 C1103 1.327 . S
C1103 H1097 0.950 . S
C1103 C1102 1.327 . S
C1103 C1107 1.429 . S
C1104 C1087 1.574 . S
C1104 H1098 0.949 . S
C1104 C1108 1.368 . S
C1105 C1086 1.429 . S
C1105 C1099 1.429 . S
C1105 C1106 1.523 . S
C1106 C1087 1.368 . S
C1106 C1100 1.368 . S
C1106 C1105 1.523 . S
C1107 C1091 1.429 . S
C1107 C1103 1.429 . S
C1107 C1108 1.523 . S
C1108 C1092 1.368 . S
C1108 C1104 1.368 . S
C1108 C1107 1.523 . S
H1109 C1084 0.950 . S
H1110 C1086 0.950 . S
H1111 C1087 0.949 . S
H1112 C1089 0.950 . S
H1113 C1091 0.950 . S
C1114 C1115 1.349 1_566 S
C1114 C1116 1.323 . S
C1114 H1139 0.954 1_565 S
C1115 C1114 1.349 1_544 S
C1115 C1131 1.353 1_545 S
C1116 C1114 1.323 . S
C1116 C1135 1.429 . S
C1116 H1140 0.950 . S
C1117 C1134 1.574 . S
C1117 C1136 1.368 . S
C1117 H1141 0.949 1_556 S
H1118 C1122 0.949 . S
C1119 C1120 1.349 . S
C1119 C1121 1.327 . S
C1119 H1142 0.950 . S
C1120 C1119 1.349 . S
C1120 C1132 1.349 . S
C1121 C1119 1.327 . S
C1121 C1137 1.429 . S
C1121 H1143 0.950 . S
C1122 H1118 0.949 . S
C1122 C1130 1.574 . S
C1122 C1138 1.368 . S
H1123 C1131 0.950 . S
H1124 C1129 0.950 . S
H1125 C1130 0.949 . S
H1126 C1132 0.950 . S
H1127 C1133 0.950 . S
H1128 C1134 0.949 . S
C1129 H1124 0.950 . S
C1129 C1131 1.327 . S
C1129 C1135 1.429 1_554 S
C1130 C1122 1.574 . S
C1130 H1125 0.949 . S
C1130 C1136 1.368 . S
C1131 C1115 1.353 1_565 S
C1131 H1123 0.950 . S
C1131 C1129 1.327 . S
C1132 C1120 1.349 . S
C1132 H1126 0.950 . S
C1132 C1133 1.327 . S
C1133 H1127 0.950 . S
C1133 C1132 1.327 . S
C1133 C1137 1.429 . S
C1134 C1117 1.574 . S
C1134 H1128 0.949 . S
C1134 C1138 1.368 . S
C1135 C1116 1.429 . S
C1135 C1129 1.429 1_556 S
C1135 C1136 1.523 . S
C1136 C1117 1.368 . S
C1136 C1130 1.368 . S
C1136 C1135 1.523 . S
C1137 C1121 1.429 . S
C1137 C1133 1.429 . S
C1137 C1138 1.523 . S
C1138 C1122 1.368 . S
C1138 C1134 1.368 . S
C1138 C1137 1.523 . S
H1139 C1114 0.954 1_545 S
H1140 C1116 0.950 . S
H1141 C1117 0.949 1_554 S
H1142 C1119 0.950 . S
H1143 C1121 0.950 . S
C1144 C1145 1.349 . S
C1144 C1146 1.327 . S
C1144 H1169 0.950 . S
C1145 C1144 1.349 . S
C1145 C1161 1.349 . S
C1146 C1144 1.327 . S
C1146 C1165 1.429 . S
C1146 H1170 0.950 . S
C1147 C1164 1.574 . S
C1147 C1166 1.368 . S
C1147 H1171 0.949 . S
H1148 C1152 0.949 . S
C1149 C1150 1.349 . S
C1149 C1151 1.327 . S
C1149 H1172 0.950 . S
C1150 C1149 1.349 . S
C1150 C1162 1.349 1_554 S
C1151 C1149 1.327 . S
C1151 C1167 1.429 1_554 S
C1151 H1173 0.950 . S
C1152 H1148 0.949 . S
C1152 C1160 1.574 . S
C1152 C1168 1.368 . S
H1153 C1161 0.950 . S
H1154 C1159 0.950 . S
H1155 C1160 0.949 . S
H1156 C1162 0.950 . S
H1157 C1163 0.950 . S
H1158 C1164 0.949 1_554 S
C1159 H1154 0.950 . S
C1159 C1161 1.327 . S
C1159 C1165 1.429 . S
C1160 C1152 1.574 . S
C1160 H1155 0.949 . S
C1160 C1166 1.368 . S
C1161 C1145 1.349 . S
C1161 H1153 0.950 . S
C1161 C1159 1.327 . S
C1162 C1150 1.349 1_556 S
C1162 H1156 0.950 . S
C1162 C1163 1.327 . S
C1163 H1157 0.950 . S
C1163 C1162 1.327 . S
C1163 C1167 1.429 . S
C1164 C1147 1.574 . S
C1164 H1158 0.949 1_556 S
C1164 C1168 1.368 . S
C1165 C1146 1.429 . S
C1165 C1159 1.429 . S
C1165 C1166 1.523 . S
C1166 C1147 1.368 . S
C1166 C1160 1.368 . S
C1166 C1165 1.523 . S
C1167 C1151 1.429 1_556 S
C1167 C1163 1.429 . S
C1167 C1168 1.523 . S
C1168 C1152 1.368 . S
C1168 C1164 1.368 . S
C1168 C1167 1.523 . S
H1169 C1144 0.950 . S
H1170 C1146 0.950 . S
H1171 C1147 0.949 . S
H1172 C1149 0.950 . S
H1173 C1151 0.950 . S
C1174 C1175 1.349 . S
C1174 C1176 1.327 . S
C1174 H1199 0.950 . S
C1175 C1174 1.349 . S
C1175 C1191 1.349 . S
C1176 C1174 1.327 . S
C1176 C1195 1.429 . S
C1176 H1200 0.950 . S
C1177 C1194 1.574 . S
C1177 C1196 1.368 . S
C1177 H1201 0.949 . S
H1178 C1182 0.949 . S
C1179 C1180 1.349 1_565 S
C1179 C1181 1.327 . S
C1179 H1202 0.950 1_565 S
C1180 C1179 1.349 1_545 S
C1180 C1192 1.353 1_545 S
C1181 C1179 1.327 . S
C1181 C1197 1.429 . S
C1181 H1203 0.950 . S
C1182 H1178 0.949 . S
C1182 C1190 1.574 . S
C1182 C1198 1.368 . S
H1183 C1191 0.950 . S
H1184 C1189 0.950 . S
H1185 C1190 0.949 . S
H1186 C1192 0.950 . S
H1187 C1193 0.950 . S
H1188 C1194 0.949 . S
C1189 H1184 0.950 . S
C1189 C1191 1.327 . S
C1189 C1195 1.429 . S
C1190 C1182 1.574 . S
C1190 H1185 0.949 . S
C1190 C1196 1.368 . S
C1191 C1175 1.349 . S
C1191 H1183 0.950 . S
C1191 C1189 1.327 . S
C1192 C1180 1.353 1_565 S
C1192 H1186 0.950 . S
C1192 C1193 1.327 . S
C1193 H1187 0.950 . S
C1193 C1192 1.327 . S
C1193 C1197 1.429 . S
C1194 C1177 1.574 . S
C1194 H1188 0.949 . S
C1194 C1198 1.368 . S
C1195 C1176 1.429 . S
C1195 C1189 1.429 . S
C1195 C1196 1.523 . S
C1196 C1177 1.368 . S
C1196 C1190 1.368 . S
C1196 C1195 1.523 . S
C1197 C1181 1.429 . S
C1197 C1193 1.429 . S
C1197 C1198 1.523 . S
C1198 C1182 1.368 . S
C1198 C1194 1.368 . S
C1198 C1197 1.523 . S
H1199 C1174 0.950 . S
H1200 C1176 0.950 . S
H1201 C1177 0.949 . S
H1202 C1179 0.950 1_545 S
H1203 C1181 0.950 . S
C1204 C1205 1.349 . S
C1204 C1206 1.327 . S
C1204 H1229 0.950 . S
C1205 C1204 1.349 . S
C1205 C1221 1.349 . S
C1206 C1204 1.327 . S
C1206 C1225 1.429 . S
C1206 H1230 0.950 . S
C1207 C1224 1.574 . S
C1207 C1226 1.368 . S
C1207 H1231 0.949 . S
H1208 C1212 0.949 . S
C1209 C1210 1.349 . S
C1209 C1211 1.327 . S
C1209 H1232 0.950 . S
C1210 C1209 1.349 . S
C1210 C1222 1.349 . S
C1211 C1209 1.327 . S
C1211 C1227 1.429 . S
C1211 H1233 0.950 . S
C1212 H1208 0.949 . S
C1212 C1220 1.574 . S
C1212 C1228 1.368 . S
H1213 C1221 0.950 . S
H1214 C1219 0.950 . S
H1215 C1220 0.949 . S
H1216 C1222 0.950 . S
H1217 C1223 0.950 . S
H1218 C1224 0.949 . S
C1219 H1214 0.950 . S
C1219 C1221 1.327 . S
C1219 C1225 1.429 . S
C1220 C1212 1.574 . S
C1220 H1215 0.949 . S
C1220 C1226 1.368 . S
C1221 C1205 1.349 . S
C1221 H1213 0.950 . S
C1221 C1219 1.327 . S
C1222 C1210 1.349 . S
C1222 H1216 0.950 . S
C1222 C1223 1.327 . S
C1223 H1217 0.950 . S
C1223 C1222 1.327 . S
C1223 C1227 1.429 . S
C1224 C1207 1.574 . S
C1224 H1218 0.949 . S
C1224 C1228 1.368 . S
C1225 C1206 1.429 . S
C1225 C1219 1.429 . S
C1225 C1226 1.523 . S
C1226 C1207 1.368 . S
C1226 C1220 1.368 . S
C1226 C1225 1.523 . S
C1227 C1211 1.429 . S
C1227 C1223 1.429 . S
C1227 C1228 1.523 . S
C1228 C1212 1.368 . S
C1228 C1224 1.368 . S
C1228 C1227 1.523 . S
H1229 C1204 0.950 . S
H1230 C1206 0.950 . S
H1231 C1207 0.949 . S
H1232 C1209 0.950 . S
H1233 C1211 0.950 . S
C1234 C1235 1.349 . S
C1234 C1236 1.327 . S
C1234 H1259 0.950 . S
C1235 C1234 1.349 . S
C1235 C1251 1.349 . S
C1236 C1234 1.327 . S
C1236 C1255 1.429 . S
C1236 H1260 0.950 . S
C1237 C1254 1.574 . S
C1237 C1256 1.368 . S
C1237 H1261 0.949 . S
H1238 C1242 0.949 . S
C1239 C1240 1.349 . S
C1239 C1241 1.327 . S
C1239 H1262 0.950 . S
C1240 C1239 1.349 . S
C1240 C1252 1.349 . S
C1241 C1239 1.327 . S
C1241 C1257 1.429 . S
C1241 H1263 0.950 . S
C1242 H1238 0.949 . S
C1242 C1250 1.574 . S
C1242 C1258 1.368 . S
H1243 C1251 0.950 . S
H1244 C1249 0.950 . S
H1245 C1250 0.949 . S
H1246 C1252 0.950 . S
H1247 C1253 0.950 . S
H1248 C1254 0.949 . S
C1249 H1244 0.950 . S
C1249 C1251 1.327 . S
C1249 C1255 1.429 . S
C1250 C1242 1.574 . S
C1250 H1245 0.949 . S
C1250 C1256 1.368 . S
C1251 C1235 1.349 . S
C1251 H1243 0.950 . S
C1251 C1249 1.327 . S
C1252 C1240 1.349 . S
C1252 H1246 0.950 . S
C1252 C1253 1.327 . S
C1253 H1247 0.950 . S
C1253 C1252 1.327 . S
C1253 C1257 1.429 . S
C1254 C1237 1.574 . S
C1254 H1248 0.949 . S
C1254 C1258 1.368 . S
C1255 C1236 1.429 . S
C1255 C1249 1.429 . S
C1255 C1256 1.523 . S
C1256 C1237 1.368 . S
C1256 C1250 1.368 . S
C1256 C1255 1.523 . S
C1257 C1241 1.429 . S
C1257 C1253 1.429 . S
C1257 C1258 1.523 . S
C1258 C1242 1.368 . S
C1258 C1254 1.368 . S
C1258 C1257 1.523 . S
H1259 C1234 0.950 . S
H1260 C1236 0.950 . S
H1261 C1237 0.949 . S
H1262 C1239 0.950 . S
H1263 C1241 0.950 . S
C1264 C1265 1.349 . S
C1264 C1266 1.327 . S
C1264 H1289 0.950 . S
C1265 C1264 1.349 . S
C1265 C1281 1.349 . S
C1266 C1264 1.327 . S
C1266 C1285 1.429 . S
C1266 H1290 0.950 . S
C1267 C1284 1.574 . S
C1267 C1286 1.368 . S
C1267 H1291 0.949 . S
H1268 C1272 0.949 . S
C1269 C1270 1.349 . S
C1269 C1271 1.327 . S
C1269 H1292 0.950 . S
C1270 C1269 1.349 . S
C1270 C1282 1.349 . S
C1271 C1269 1.327 . S
C1271 C1287 1.429 . S
C1271 H1293 0.950 . S
C1272 H1268 0.949 . S
C1272 C1280 1.574 . S
C1272 C1288 1.368 . S
H1273 C1281 0.950 . S
H1274 C1279 0.950 . S
H1275 C1280 0.949 . S
H1276 C1282 0.950 . S
H1277 C1283 0.950 . S
H1278 C1284 0.949 . S
C1279 H1274 0.950 . S
C1279 C1281 1.327 . S
C1279 C1285 1.429 . S
C1280 C1272 1.574 . S
C1280 H1275 0.949 . S
C1280 C1286 1.368 . S
C1281 C1265 1.349 . S
C1281 H1273 0.950 . S
C1281 C1279 1.327 . S
C1282 C1270 1.349 . S
C1282 H1276 0.950 . S
C1282 C1283 1.327 . S
C1283 H1277 0.950 . S
C1283 C1282 1.327 . S
C1283 C1287 1.429 . S
C1284 C1267 1.574 . S
C1284 H1278 0.949 . S
C1284 C1288 1.368 . S
C1285 C1266 1.429 . S
C1285 C1279 1.429 . S
C1285 C1286 1.523 . S
C1286 C1267 1.368 . S
C1286 C1280 1.368 . S
C1286 C1285 1.523 . S
C1287 C1271 1.429 . S
C1287 C1283 1.429 . S
C1287 C1288 1.523 . S
C1288 C1272 1.368 . S
C1288 C1284 1.368 . S
C1288 C1287 1.523 . S
H1289 C1264 0.950 . S
H1290 C1266 0.950 . S
H1291 C1267 0.949 . S
H1292 C1269 0.950 . S
H1293 C1271 0.950 . S
C1294 C1295 1.349 . S
C1294 C1296 1.327 . S
C1294 H1319 0.950 . S
C1295 C1294 1.349 . S
C1295 C1311 1.349 . S
C1296 C1294 1.327 . S
C1296 C1315 1.429 . S
C1296 H1320 0.950 . S
C1297 C1314 1.574 . S
C1297 C1316 1.368 . S
C1297 H1321 0.949 . S
H1298 C1302 0.949 . S
C1299 C1300 1.349 . S
C1299 C1301 1.327 . S
C1299 H1322 0.950 . S
C1300 C1299 1.349 . S
C1300 C1312 1.349 1_554 S
C1301 C1299 1.327 . S
C1301 C1317 1.429 1_554 S
C1301 H1323 0.950 . S
C1302 H1298 0.949 . S
C1302 C1310 1.574 . S
C1302 C1318 1.368 . S
H1303 C1311 0.950 . S
H1304 C1309 0.950 . S
H1305 C1310 0.949 . S
H1306 C1312 0.950 . S
H1307 C1313 0.950 . S
H1308 C1314 0.949 . S
C1309 H1304 0.950 . S
C1309 C1311 1.327 . S
C1309 C1315 1.429 . S
C1310 C1302 1.574 . S
C1310 H1305 0.949 . S
C1310 C1316 1.368 . S
C1311 C1295 1.349 . S
C1311 H1303 0.950 . S
C1311 C1309 1.327 . S
C1312 C1300 1.349 1_556 S
C1312 H1306 0.950 . S
C1312 C1313 1.327 . S
C1313 H1307 0.950 . S
C1313 C1312 1.327 . S
C1313 C1317 1.429 . S
C1314 C1297 1.574 . S
C1314 H1308 0.949 . S
C1314 C1318 1.368 . S
C1315 C1296 1.429 . S
C1315 C1309 1.429 . S
C1315 C1316 1.523 . S
C1316 C1297 1.368 . S
C1316 C1310 1.368 . S
C1316 C1315 1.523 . S
C1317 C1301 1.429 1_556 S
C1317 C1313 1.429 . S
C1317 C1318 1.523 . S
C1318 C1302 1.368 . S
C1318 C1314 1.368 . S
C1318 C1317 1.523 . S
H1319 C1294 0.950 . S
H1320 C1296 0.950 . S
H1321 C1297 0.949 . S
H1322 C1299 0.950 . S
H1323 C1301 0.950 . S
C1324 C1325 1.349 . S
C1324 C1326 1.327 . S
C1324 H1349 0.950 . S
C1325 C1324 1.349 . S
C1325 C1341 1.349 . S
C1326 C1324 1.327 . S
C1326 C1345 1.429 . S
C1326 H1350 0.950 . S
C1327 C1344 1.574 . S
C1327 C1346 1.368 . S
C1327 H1351 0.949 . S
H1328 C1332 0.949 . S
C1329 C1330 1.349 . S
C1329 C1331 1.327 . S
C1329 H1352 0.950 . S
C1330 C1329 1.349 . S
C1330 C1342 1.349 . S
C1331 C1329 1.327 . S
C1331 C1347 1.429 . S
C1331 H1353 0.950 . S
C1332 H1328 0.949 . S
C1332 C1340 1.574 . S
C1332 C1348 1.368 . S
H1333 C1341 0.950 . S
H1334 C1339 0.950 . S
H1335 C1340 0.949 . S
H1336 C1342 0.950 . S
H1337 C1343 0.950 . S
H1338 C1344 0.949 . S
C1339 H1334 0.950 . S
C1339 C1341 1.327 . S
C1339 C1345 1.429 . S
C1340 C1332 1.574 . S
C1340 H1335 0.949 . S
C1340 C1346 1.368 . S
C1341 C1325 1.349 . S
C1341 H1333 0.950 . S
C1341 C1339 1.327 . S
C1342 C1330 1.349 . S
C1342 H1336 0.950 . S
C1342 C1343 1.327 . S
C1343 H1337 0.950 . S
C1343 C1342 1.327 . S
C1343 C1347 1.429 . S
C1344 C1327 1.574 . S
C1344 H1338 0.949 . S
C1344 C1348 1.368 . S
C1345 C1326 1.429 . S
C1345 C1339 1.429 . S
C1345 C1346 1.523 . S
C1346 C1327 1.368 . S
C1346 C1340 1.368 . S
C1346 C1345 1.523 . S
C1347 C1331 1.429 . S
C1347 C1343 1.429 . S
C1347 C1348 1.523 . S
C1348 C1332 1.368 . S
C1348 C1344 1.368 . S
C1348 C1347 1.523 . S
H1349 C1324 0.950 . S
H1350 C1326 0.950 . S
H1351 C1327 0.949 . S
H1352 C1329 0.950 . S
H1353 C1331 0.950 . S
C1354 C1355 1.349 . S
C1354 C1356 1.327 . S
C1354 H1379 0.950 . S
C1355 C1354 1.349 . S
C1355 C1371 1.349 . S
C1356 C1354 1.327 . S
C1356 C1375 1.429 . S
C1356 H1380 0.950 . S
C1357 C1374 1.574 . S
C1357 C1376 1.368 . S
C1357 H1381 0.949 . S
H1358 C1362 0.949 . S
C1359 C1360 1.349 . S
C1359 C1361 1.327 . S
C1359 H1382 0.950 . S
C1360 C1359 1.349 . S
C1360 C1372 1.349 . S
C1361 C1359 1.327 . S
C1361 C1377 1.429 . S
C1361 H1383 0.950 . S
C1362 H1358 0.949 . S
C1362 C1370 1.574 . S
C1362 C1378 1.368 . S
H1363 C1371 0.950 . S
H1364 C1369 0.950 . S
H1365 C1370 0.949 . S
H1366 C1372 0.950 . S
H1367 C1373 0.950 . S
H1368 C1374 0.949 . S
C1369 H1364 0.950 . S
C1369 C1371 1.327 . S
C1369 C1375 1.429 . S
C1370 C1362 1.574 . S
C1370 H1365 0.949 . S
C1370 C1376 1.368 . S
C1371 C1355 1.349 . S
C1371 H1363 0.950 . S
C1371 C1369 1.327 . S
C1372 C1360 1.349 . S
C1372 H1366 0.950 . S
C1372 C1373 1.327 . S
C1373 H1367 0.950 . S
C1373 C1372 1.327 . S
C1373 C1377 1.429 . S
C1374 C1357 1.574 . S
C1374 H1368 0.949 . S
C1374 C1378 1.368 . S
C1375 C1356 1.429 . S
C1375 C1369 1.429 . S
C1375 C1376 1.523 . S
C1376 C1357 1.368 . S
C1376 C1370 1.368 . S
C1376 C1375 1.523 . S
C1377 C1361 1.429 . S
C1377 C1373 1.429 . S
C1377 C1378 1.523 . S
C1378 C1362 1.368 . S
C1378 C1374 1.368 . S
C1378 C1377 1.523 . S
H1379 C1354 0.950 . S
H1380 C1356 0.950 . S
H1381 C1357 0.949 . S
H1382 C1359 0.950 . S
H1383 C1361 0.950 . S
C1384 C1385 1.349 . S
C1384 C1386 1.327 . S
C1384 H1409 0.950 . S
C1385 C1384 1.349 . S
C1385 C1401 1.349 . S
C1386 C1384 1.327 . S
C1386 C1405 1.429 . S
C1386 H1410 0.950 . S
C1387 C1404 1.574 . S
C1387 C1406 1.368 . S
C1387 H1411 0.949 . S
H1388 C1392 0.949 . S
C1389 C1390 1.349 . S
C1389 C1391 1.327 . S
C1389 H1412 0.950 . S
C1390 C1389 1.349 . S
C1390 C1402 1.349 . S
C1391 C1389 1.327 . S
C1391 C1407 1.429 . S
C1391 H1413 0.950 . S
C1392 H1388 0.949 . S
C1392 C1400 1.574 . S
C1392 C1408 1.368 . S
H1393 C1401 0.950 . S
H1394 C1399 0.950 . S
H1395 C1400 0.949 . S
H1396 C1402 0.950 . S
H1397 C1403 0.950 . S
H1398 C1404 0.949 . S
C1399 H1394 0.950 . S
C1399 C1401 1.327 . S
C1399 C1405 1.429 . S
C1400 C1392 1.574 . S
C1400 H1395 0.949 . S
C1400 C1406 1.368 . S
C1401 C1385 1.349 . S
C1401 H1393 0.950 . S
C1401 C1399 1.327 . S
C1402 C1390 1.349 . S
C1402 H1396 0.950 . S
C1402 C1403 1.327 . S
C1403 H1397 0.950 . S
C1403 C1402 1.327 . S
C1403 C1407 1.429 . S
C1404 C1387 1.574 . S
C1404 H1398 0.949 . S
C1404 C1408 1.368 . S
C1405 C1386 1.429 . S
C1405 C1399 1.429 . S
C1405 C1406 1.523 . S
C1406 C1387 1.368 . S
C1406 C1400 1.368 . S
C1406 C1405 1.523 . S
C1407 C1391 1.429 . S
C1407 C1403 1.429 . S
C1407 C1408 1.523 . S
C1408 C1392 1.368 . S
C1408 C1404 1.368 . S
C1408 C1407 1.523 . S
H1409 C1384 0.950 . S
H1410 C1386 0.950 . S
H1411 C1387 0.949 . S
H1412 C1389 0.950 . S
H1413 C1391 0.950 . S
C1414 C1415 1.349 . S
C1414 C1416 1.327 . S
C1414 H1439 0.950 . S
C1415 C1414 1.349 . S
C1415 C1431 1.349 . S
C1416 C1414 1.327 . S
C1416 C1435 1.429 . S
C1416 H1440 0.950 . S
C1417 C1434 1.574 . S
C1417 C1436 1.368 . S
C1417 H1441 0.949 . S
H1418 C1422 0.949 . S
C1419 C1420 1.349 . S
C1419 C1421 1.327 . S
C1419 H1442 0.950 . S
C1420 C1419 1.349 . S
C1420 C1432 1.349 . S
C1421 C1419 1.327 . S
C1421 C1437 1.429 . S
C1421 H1443 0.950 . S
C1422 H1418 0.949 . S
C1422 C1430 1.574 . S
C1422 C1438 1.368 . S
H1423 C1431 0.950 . S
H1424 C1429 0.950 . S
H1425 C1430 0.949 . S
H1426 C1432 0.950 . S
H1427 C1433 0.950 . S
H1428 C1434 0.949 . S
C1429 H1424 0.950 . S
C1429 C1431 1.327 . S
C1429 C1435 1.429 . S
C1430 C1422 1.574 . S
C1430 H1425 0.949 . S
C1430 C1436 1.368 . S
C1431 C1415 1.349 . S
C1431 H1423 0.950 . S
C1431 C1429 1.327 . S
C1432 C1420 1.349 . S
C1432 H1426 0.950 . S
C1432 C1433 1.327 . S
C1433 H1427 0.950 . S
C1433 C1432 1.327 . S
C1433 C1437 1.429 . S
C1434 C1417 1.574 . S
C1434 H1428 0.949 . S
C1434 C1438 1.368 . S
C1435 C1416 1.429 . S
C1435 C1429 1.429 . S
C1435 C1436 1.523 . S
C1436 C1417 1.368 . S
C1436 C1430 1.368 . S
C1436 C1435 1.523 . S
C1437 C1421 1.429 . S
C1437 C1433 1.429 . S
C1437 C1438 1.523 . S
C1438 C1422 1.368 . S
C1438 C1434 1.368 . S
C1438 C1437 1.523 . S
H1439 C1414 0.950 . S
H1440 C1416 0.950 . S
H1441 C1417 0.949 . S
H1442 C1419 0.950 . S
H1443 C1421 0.950 . S
C1444 C1445 1.349 . S
C1444 C1446 1.327 . S
C1444 H1469 0.950 . S
C1445 C1444 1.349 . S
C1445 C1461 1.349 . S
C1446 C1444 1.327 . S
C1446 C1465 1.429 . S
C1446 H1470 0.950 . S
C1447 C1464 1.574 . S
C1447 C1466 1.368 . S
C1447 H1471 0.949 . S
H1448 C1452 0.949 . S
C1449 C1450 1.349 . S
C1449 C1451 1.327 . S
C1449 H1472 0.950 . S
C1450 C1449 1.349 . S
C1450 C1462 1.349 1_554 S
C1451 C1449 1.327 . S
C1451 C1467 1.429 1_554 S
C1451 H1473 0.950 . S
C1452 H1448 0.949 . S
C1452 C1460 1.574 . S
C1452 C1468 1.368 . S
H1453 C1461 0.950 . S
H1454 C1459 0.950 . S
H1455 C1460 0.949 . S
H1456 C1462 0.950 . S
H1457 C1463 0.950 . S
H1458 C1464 0.949 1_554 S
C1459 H1454 0.950 . S
C1459 C1461 1.327 . S
C1459 C1465 1.429 . S
C1460 C1452 1.574 . S
C1460 H1455 0.949 . S
C1460 C1466 1.368 . S
C1461 C1445 1.349 . S
C1461 H1453 0.950 . S
C1461 C1459 1.327 . S
C1462 C1450 1.349 1_556 S
C1462 H1456 0.950 . S
C1462 C1463 1.327 . S
C1463 H1457 0.950 . S
C1463 C1462 1.327 . S
C1463 C1467 1.429 . S
C1464 C1447 1.574 . S
C1464 H1458 0.949 1_556 S
C1464 C1468 1.368 . S
C1465 C1446 1.429 . S
C1465 C1459 1.429 . S
C1465 C1466 1.523 . S
C1466 C1447 1.368 . S
C1466 C1460 1.368 . S
C1466 C1465 1.523 . S
C1467 C1451 1.429 1_556 S
C1467 C1463 1.429 . S
C1467 C1468 1.523 . S
C1468 C1452 1.368 . S
C1468 C1464 1.368 . S
C1468 C1467 1.523 . S
H1469 C1444 0.950 . S
H1470 C1446 0.950 . S
H1471 C1447 0.949 . S
H1472 C1449 0.950 . S
H1473 C1451 0.950 . S
C1474 C1475 1.349 . S
C1474 C1476 1.327 . S
C1474 H1499 0.950 . S
C1475 C1474 1.349 . S
C1475 C1491 1.349 . S
C1476 C1474 1.327 . S
C1476 C1495 1.429 . S
C1476 H1500 0.950 . S
C1477 C1494 1.574 . S
C1477 C1496 1.368 . S
C1477 H1501 0.949 . S
H1478 C1482 0.949 . S
C1479 C1480 1.349 . S
C1479 C1481 1.327 . S
C1479 H1502 0.950 . S
C1480 C1479 1.349 . S
C1480 C1492 1.349 . S
C1481 C1479 1.327 . S
C1481 C1497 1.429 . S
C1481 H1503 0.950 . S
C1482 H1478 0.949 . S
C1482 C1490 1.574 . S
C1482 C1498 1.368 . S
H1483 C1491 0.950 . S
H1484 C1489 0.950 . S
H1485 C1490 0.949 . S
H1486 C1492 0.950 . S
H1487 C1493 0.950 . S
H1488 C1494 0.949 . S
C1489 H1484 0.950 . S
C1489 C1491 1.327 . S
C1489 C1495 1.429 . S
C1490 C1482 1.574 . S
C1490 H1485 0.949 . S
C1490 C1496 1.368 . S
C1491 C1475 1.349 . S
C1491 H1483 0.950 . S
C1491 C1489 1.327 . S
C1492 C1480 1.349 . S
C1492 H1486 0.950 . S
C1492 C1493 1.327 . S
C1493 H1487 0.950 . S
C1493 C1492 1.327 . S
C1493 C1497 1.429 . S
C1494 C1477 1.574 . S
C1494 H1488 0.949 . S
C1494 C1498 1.368 . S
C1495 C1476 1.429 . S
C1495 C1489 1.429 . S
C1495 C1496 1.523 . S
C1496 C1477 1.368 . S
C1496 C1490 1.368 . S
C1496 C1495 1.523 . S
C1497 C1481 1.429 . S
C1497 C1493 1.429 . S
C1497 C1498 1.523 . S
C1498 C1482 1.368 . S
C1498 C1494 1.368 . S
C1498 C1497 1.523 . S
H1499 C1474 0.950 . S
H1500 C1476 0.950 . S
H1501 C1477 0.949 . S
H1502 C1479 0.950 . S
H1503 C1481 0.950 . S
C1504 C1505 1.349 . S
C1504 C1506 1.327 . S
C1504 H1529 0.950 . S
C1505 C1504 1.349 . S
C1505 C1521 1.349 . S
C1506 C1504 1.327 . S
C1506 C1525 1.429 . S
C1506 H1530 0.950 . S
C1507 C1524 1.574 . S
C1507 C1526 1.368 . S
C1507 H1531 0.949 . S
H1508 C1512 0.949 . S
C1509 C1510 1.349 . S
C1509 C1511 1.327 . S
C1509 H1532 0.950 . S
C1510 C1509 1.349 . S
C1510 C1522 1.349 . S
C1511 C1509 1.327 . S
C1511 C1527 1.429 . S
C1511 H1533 0.950 . S
C1512 H1508 0.949 . S
C1512 C1520 1.574 . S
C1512 C1528 1.368 . S
H1513 C1521 0.950 . S
H1514 C1519 0.950 . S
H1515 C1520 0.949 . S
H1516 C1522 0.950 1_565 S
H1517 C1523 0.906 1_565 S
H1518 C1524 0.949 . S
C1519 H1514 0.950 . S
C1519 C1521 1.327 . S
C1519 C1525 1.429 . S
C1520 C1512 1.574 . S
C1520 H1515 0.949 . S
C1520 C1526 1.368 . S
C1521 C1505 1.349 . S
C1521 H1513 0.950 . S
C1521 C1519 1.327 . S
C1522 C1510 1.349 . S
C1522 H1516 0.950 1_545 S
C1522 C1523 1.327 . S
C1523 H1517 0.906 1_545 S
C1523 C1522 1.327 . S
C1523 C1527 1.429 . S
C1524 C1507 1.574 . S
C1524 H1518 0.949 . S
C1524 C1528 1.368 . S
C1525 C1506 1.429 . S
C1525 C1519 1.429 . S
C1525 C1526 1.523 . S
C1526 C1507 1.368 . S
C1526 C1520 1.368 . S
C1526 C1525 1.523 . S
C1527 C1511 1.429 . S
C1527 C1523 1.429 . S
C1527 C1528 1.523 . S
C1528 C1512 1.368 . S
C1528 C1524 1.368 . S
C1528 C1527 1.523 . S
H1529 C1504 0.950 . S
H1530 C1506 0.950 . S
H1531 C1507 0.949 . S
H1532 C1509 0.950 . S
H1533 C1511 0.950 . S
C1534 C1535 1.349 . S
C1534 C1536 1.327 . S
C1534 H1559 0.950 . S
C1535 C1534 1.349 . S
C1535 C1551 1.349 . S
C1536 C1534 1.327 . S
C1536 C1555 1.429 . S
C1536 H1560 0.950 . S
C1537 C1554 1.574 . S
C1537 C1556 1.368 . S
C1537 H1561 0.949 . S
H1538 C1542 0.949 . S
C1539 C1540 1.349 . S
C1539 C1541 1.327 . S
C1539 H1562 0.950 . S
C1540 C1539 1.349 . S
C1540 C1552 1.349 . S
C1541 C1539 1.327 . S
C1541 C1557 1.429 . S
C1541 H1563 0.950 . S
C1542 H1538 0.949 . S
C1542 C1550 1.574 . S
C1542 C1558 1.368 . S
H1543 C1551 0.950 . S
H1544 C1549 0.950 . S
H1545 C1550 0.949 . S
H1546 C1552 0.950 . S
H1547 C1553 0.950 . S
H1548 C1554 0.949 . S
C1549 H1544 0.950 . S
C1549 C1551 1.327 . S
C1549 C1555 1.429 . S
C1550 C1542 1.574 . S
C1550 H1545 0.949 . S
C1550 C1556 1.368 . S
C1551 C1535 1.349 . S
C1551 H1543 0.950 . S
C1551 C1549 1.327 . S
C1552 C1540 1.349 . S
C1552 H1546 0.950 . S
C1552 C1553 1.327 . S
C1553 H1547 0.950 . S
C1553 C1552 1.327 . S
C1553 C1557 1.429 . S
C1554 C1537 1.574 . S
C1554 H1548 0.949 . S
C1554 C1558 1.368 . S
C1555 C1536 1.429 . S
C1555 C1549 1.429 . S
C1555 C1556 1.523 . S
C1556 C1537 1.368 . S
C1556 C1550 1.368 . S
C1556 C1555 1.523 . S
C1557 C1541 1.429 . S
C1557 C1553 1.429 . S
C1557 C1558 1.523 . S
C1558 C1542 1.368 . S
C1558 C1554 1.368 . S
C1558 C1557 1.523 . S
H1559 C1534 0.950 . S
H1560 C1536 0.950 . S
H1561 C1537 0.949 . S
H1562 C1539 0.950 . S
H1563 C1541 0.950 . S
C1564 C1565 1.349 . S
C1564 C1566 1.327 . S
C1564 H1589 0.950 . S
C1565 C1564 1.349 . S
C1565 C1581 1.349 . S
C1566 C1564 1.327 . S
C1566 C1585 1.429 . S
C1566 H1590 0.950 . S
C1567 C1584 1.574 1_455 S
C1567 C1586 1.368 . S
C1567 H1591 0.949 . S
H1568 C1572 0.949 . S
C1569 C1570 1.349 . S
C1569 C1571 1.327 . S
C1569 H1592 0.950 . S
C1570 C1569 1.349 . S
C1570 C1582 1.349 . S
C1571 C1569 1.327 . S
C1571 C1587 1.429 . S
C1571 H1593 0.950 . S
C1572 H1568 0.949 . S
C1572 C1580 1.574 1_655 S
C1572 C1588 1.368 . S
H1573 C1581 0.950 . S
H1574 C1579 0.950 . S
H1575 C1580 0.949 . S
H1576 C1582 0.950 . S
H1577 C1583 0.950 . S
H1578 C1584 0.949 . S
C1579 H1574 0.950 . S
C1579 C1581 1.327 . S
C1579 C1585 1.429 . S
C1580 C1572 1.574 1_455 S
C1580 H1575 0.949 . S
C1580 C1586 1.368 . S
C1581 C1565 1.349 . S
C1581 H1573 0.950 . S
C1581 C1579 1.327 . S
C1582 C1570 1.349 . S
C1582 H1576 0.950 . S
C1582 C1583 1.327 . S
C1583 H1577 0.950 . S
C1583 C1582 1.327 . S
C1583 C1587 1.429 . S
C1584 C1567 1.574 1_655 S
C1584 H1578 0.949 . S
C1584 C1588 1.368 . S
C1585 C1566 1.429 . S
C1585 C1579 1.429 . S
C1585 C1586 1.523 . S
C1586 C1567 1.368 . S
C1586 C1580 1.368 . S
C1586 C1585 1.523 . S
C1587 C1571 1.429 . S
C1587 C1583 1.429 . S
C1587 C1588 1.523 . S
C1588 C1572 1.368 . S
C1588 C1584 1.368 . S
C1588 C1587 1.523 . S
H1589 C1564 0.950 . S
H1590 C1566 0.950 . S
H1591 C1567 0.949 . S
H1592 C1569 0.950 . S
H1593 C1571 0.950 . S
C1594 C1595 1.349 . S
C1594 C1596 1.327 . S
C1594 H1619 0.950 . S
C1595 C1594 1.349 . S
C1595 C1611 1.349 . S
C1596 C1594 1.327 . S
C1596 C1615 1.429 . S
C1596 H1620 0.950 . S
C1597 C1614 1.574 . S
C1597 C1616 1.368 . S
C1597 H1621 0.949 . S
H1598 C1602 0.949 . S
C1599 C1600 1.349 . S
C1599 C1601 1.327 . S
C1599 H1622 0.950 . S
C1600 C1599 1.349 . S
C1600 C1612 1.349 . S
C1601 C1599 1.327 . S
C1601 C1617 1.429 . S
C1601 H1623 0.950 . S
C1602 H1598 0.949 . S
C1602 C1610 1.574 . S
C1602 C1618 1.368 . S
H1603 C1611 0.950 . S
H1604 C1609 0.950 . S
H1605 C1610 0.949 . S
H1606 C1612 0.950 . S
H1607 C1613 0.950 . S
H1608 C1614 0.949 . S
C1609 H1604 0.950 . S
C1609 C1611 1.327 . S
C1609 C1615 1.429 . S
C1610 C1602 1.574 . S
C1610 H1605 0.949 . S
C1610 C1616 1.368 . S
C1611 C1595 1.349 . S
C1611 H1603 0.950 . S
C1611 C1609 1.327 . S
C1612 C1600 1.349 . S
C1612 H1606 0.950 . S
C1612 C1613 1.327 . S
C1613 H1607 0.950 . S
C1613 C1612 1.327 . S
C1613 C1617 1.429 . S
C1614 C1597 1.574 . S
C1614 H1608 0.949 . S
C1614 C1618 1.368 . S
C1615 C1596 1.429 . S
C1615 C1609 1.429 . S
C1615 C1616 1.523 . S
C1616 C1597 1.368 . S
C1616 C1610 1.368 . S
C1616 C1615 1.523 . S
C1617 C1601 1.429 . S
C1617 C1613 1.429 . S
C1617 C1618 1.523 . S
C1618 C1602 1.368 . S
C1618 C1614 1.368 . S
C1618 C1617 1.523 . S
H1619 C1594 0.950 . S
H1620 C1596 0.950 . S
H1621 C1597 0.949 . S
H1622 C1599 0.950 . S
H1623 C1601 0.950 . S
C1624 C1625 1.349 . S
C1624 C1626 1.327 . S
C1624 H1649 0.950 . S
C1625 C1624 1.349 . S
C1625 C1641 1.349 . S
C1626 C1624 1.327 . S
C1626 C1645 1.429 . S
C1626 H1650 0.950 . S
C1627 C1644 1.574 . S
C1627 C1646 1.368 . S
C1627 H1651 0.949 . S
H1628 C1632 0.949 . S
C1629 C1630 1.349 . S
C1629 C1631 1.327 . S
C1629 H1652 0.950 . S
C1630 C1629 1.349 . S
C1630 C1642 1.349 . S
C1631 C1629 1.327 . S
C1631 C1647 1.429 . S
C1631 H1653 0.950 . S
C1632 H1628 0.949 . S
C1632 C1640 1.574 . S
C1632 C1648 1.368 . S
H1633 C1641 0.950 . S
H1634 C1639 0.950 . S
H1635 C1640 0.949 . S
H1636 C1642 0.950 . S
H1637 C1643 0.950 . S
H1638 C1644 0.949 . S
C1639 H1634 0.950 . S
C1639 C1641 1.327 . S
C1639 C1645 1.429 . S
C1640 C1632 1.574 . S
C1640 H1635 0.949 . S
C1640 C1646 1.368 . S
C1641 C1625 1.349 . S
C1641 H1633 0.950 . S
C1641 C1639 1.327 . S
C1642 C1630 1.349 . S
C1642 H1636 0.950 . S
C1642 C1643 1.327 . S
C1643 H1637 0.950 . S
C1643 C1642 1.327 . S
C1643 C1647 1.429 . S
C1644 C1627 1.574 . S
C1644 H1638 0.949 . S
C1644 C1648 1.368 . S
C1645 C1626 1.429 . S
C1645 C1639 1.429 . S
C1645 C1646 1.523 . S
C1646 C1627 1.368 . S
C1646 C1640 1.368 . S
C1646 C1645 1.523 . S
C1647 C1631 1.429 . S
C1647 C1643 1.429 . S
C1647 C1648 1.523 . S
C1648 C1632 1.368 . S
C1648 C1644 1.368 . S
C1648 C1647 1.523 . S
H1649 C1624 0.950 . S
H1650 C1626 0.950 . S
H1651 C1627 0.949 . S
H1652 C1629 0.950 . S
H1653 C1631 0.950 . S
C1654 C1655 1.349 . S
C1654 C1656 1.327 . S
C1654 H1679 0.950 . S
C1655 C1654 1.349 . S
C1655 C1671 1.349 . S
C1656 C1654 1.327 . S
C1656 C1675 1.429 . S
C1656 H1680 0.950 . S
C1657 C1674 1.574 . S
C1657 C1676 1.368 . S
C1657 H1681 0.949 . S
H1658 C1662 0.949 . S
C1659 C1660 1.349 . S
C1659 C1661 1.327 . S
C1659 H1682 0.950 . S
C1660 C1659 1.349 . S
C1660 C1672 1.349 . S
C1661 C1659 1.327 . S
C1661 C1677 1.429 . S
C1661 H1683 0.950 . S
C1662 H1658 0.949 . S
C1662 C1670 1.574 . S
C1662 C1678 1.368 . S
H1663 C1671 0.950 . S
H1664 C1669 0.950 . S
H1665 C1670 0.949 . S
H1666 C1672 0.950 . S
H1667 C1673 0.950 . S
H1668 C1674 0.949 . S
C1669 H1664 0.950 . S
C1669 C1671 1.327 . S
C1669 C1675 1.429 . S
C1670 C1662 1.574 . S
C1670 H1665 0.949 . S
C1670 C1676 1.368 . S
C1671 C1655 1.349 . S
C1671 H1663 0.950 . S
C1671 C1669 1.327 . S
C1672 C1660 1.349 . S
C1672 H1666 0.950 . S
C1672 C1673 1.327 . S
C1673 H1667 0.950 . S
C1673 C1672 1.327 . S
C1673 C1677 1.429 . S
C1674 C1657 1.574 . S
C1674 H1668 0.949 . S
C1674 C1678 1.368 . S
C1675 C1656 1.429 . S
C1675 C1669 1.429 . S
C1675 C1676 1.523 . S
C1676 C1657 1.368 . S
C1676 C1670 1.368 . S
C1676 C1675 1.523 . S
C1677 C1661 1.429 . S
C1677 C1673 1.429 . S
C1677 C1678 1.523 . S
C1678 C1662 1.368 . S
C1678 C1674 1.368 . S
C1678 C1677 1.523 . S
H1679 C1654 0.950 . S
H1680 C1656 0.950 . S
H1681 C1657 0.949 . S
H1682 C1659 0.950 . S
H1683 C1661 0.950 . S
C1684 C1685 1.349 . S
C1684 C1686 1.327 . S
C1684 H1709 0.950 . S
C1685 C1684 1.349 . S
C1685 C1701 1.349 . S
C1686 C1684 1.327 . S
C1686 C1705 1.429 . S
C1686 H1710 0.950 . S
C1687 C1704 1.574 1_655 S
C1687 C1706 1.368 . S
C1687 H1711 0.949 . S
H1688 C1692 0.949 . S
C1689 C1690 1.349 . S
C1689 C1691 1.327 . S
C1689 H1712 0.950 . S
C1690 C1689 1.349 . S
C1690 C1702 1.349 . S
C1691 C1689 1.327 . S
C1691 C1707 1.429 . S
C1691 H1713 0.950 . S
C1692 H1688 0.949 . S
C1692 C1700 1.574 1_455 S
C1692 C1708 1.368 . S
H1693 C1701 0.950 . S
H1694 C1699 0.950 . S
H1695 C1700 0.949 . S
H1696 C1702 0.950 . S
H1697 C1703 0.950 . S
H1698 C1704 0.949 . S
C1699 H1694 0.950 . S
C1699 C1701 1.327 . S
C1699 C1705 1.429 . S
C1700 C1692 1.574 1_655 S
C1700 H1695 0.949 . S
C1700 C1706 1.368 . S
C1701 C1685 1.349 . S
C1701 H1693 0.950 . S
C1701 C1699 1.327 . S
C1702 C1690 1.349 . S
C1702 H1696 0.950 . S
C1702 C1703 1.327 . S
C1703 H1697 0.950 . S
C1703 C1702 1.327 . S
C1703 C1707 1.429 . S
C1704 C1687 1.574 1_455 S
C1704 H1698 0.949 . S
C1704 C1708 1.368 . S
C1705 C1686 1.429 . S
C1705 C1699 1.429 . S
C1705 C1706 1.523 . S
C1706 C1687 1.368 . S
C1706 C1700 1.368 . S
C1706 C1705 1.523 . S
C1707 C1691 1.429 . S
C1707 C1703 1.429 . S
C1707 C1708 1.523 . S
C1708 C1692 1.368 . S
C1708 C1704 1.368 . S
C1708 C1707 1.523 . S
H1709 C1684 0.950 . S
H1710 C1686 0.950 . S
H1711 C1687 0.949 . S
H1712 C1689 0.950 . S
H1713 C1691 0.950 . S
C1714 C1715 1.349 . S
C1714 C1716 1.327 . S
C1714 H1739 0.950 . S
C1715 C1714 1.349 . S
C1715 C1731 1.349 1_554 S
C1716 C1714 1.327 . S
C1716 C1735 1.429 . S
C1716 H1740 0.950 . S
C1717 C1734 1.574 . S
C1717 C1736 1.371 . S
C1717 H1741 0.946 1_554 S
H1718 C1722 0.949 . S
C1719 C1720 1.349 . S
C1719 C1721 1.327 . S
C1719 H1742 0.950 1_554 S
C1720 C1719 1.349 . S
C1720 C1732 1.349 . S
C1721 C1719 1.327 . S
C1721 C1737 1.429 . S
C1721 H1743 0.950 1_554 S
C1722 H1718 0.949 . S
C1722 C1730 1.574 . S
C1722 C1738 1.368 . S
H1723 C1731 0.950 . S
H1724 C1729 0.950 . S
H1725 C1730 0.949 . S
H1726 C1732 0.950 . S
H1727 C1733 0.950 . S
H1728 C1734 0.949 1_556 S
C1729 H1724 0.950 . S
C1729 C1731 1.327 . S
C1729 C1735 1.429 1_556 S
C1730 C1722 1.574 . S
C1730 H1725 0.949 . S
C1730 C1736 1.368 . S
C1731 C1715 1.349 1_556 S
C1731 H1723 0.950 . S
C1731 C1729 1.327 . S
C1732 C1720 1.349 . S
C1732 H1726 0.950 . S
C1732 C1733 1.327 . S
C1733 H1727 0.950 . S
C1733 C1732 1.327 . S
C1733 C1737 1.429 . S
C1734 C1717 1.574 . S
C1734 H1728 0.949 1_554 S
C1734 C1738 1.368 . S
C1735 C1716 1.429 . S
C1735 C1729 1.429 1_554 S
C1735 C1736 1.523 . S
C1736 C1717 1.371 . S
C1736 C1730 1.368 . S
C1736 C1735 1.523 . S
C1737 C1721 1.429 . S
C1737 C1733 1.429 . S
C1737 C1738 1.523 . S
C1738 C1722 1.368 . S
C1738 C1734 1.368 . S
C1738 C1737 1.523 . S
H1739 C1714 0.950 . S
H1740 C1716 0.950 . S
H1741 C1717 0.946 1_556 S
H1742 C1719 0.950 1_556 S
H1743 C1721 0.950 1_556 S
C545 C5 1.154 . S
C550 C9 1.127 . S
C575 C43 1.127 1_556 S
C580 C39 1.154 . S
C605 C73 1.154 . S
C610 C77 1.127 . S
C635 C111 1.127 . S
C640 C107 1.154 1_554 S
C665 C145 1.127 . S
C670 C141 1.154 . S
C695 C175 1.154 . S
C700 C179 1.127 . S
C725 C213 1.127 . S
C730 C209 1.154 . S
C755 C247 1.127 . S
C760 C243 1.154 . S
C785 C277 1.154 . S
C790 C281 1.127 . S
C815 C315 1.127 . S
C820 C311 1.154 1_554 S
C845 C345 1.154 . S
C850 C349 1.127 . S
C875 C379 1.154 . S
C880 C383 1.127 1_556 S
C905 C413 1.154 . S
C910 C417 1.127 . S
C935 C447 1.154 . S
C940 C451 1.127 . S
C965 C485 1.127 . S
C970 C481 1.154 . S
C995 C519 1.127 . S
C1000 C515 1.154 . S
C1025 C2 1.593 . S
C1030 C36 1.593 . S
C1055 C101 1.560 . S
C1060 C67 1.560 . S
C1085 C104 1.593 . S
C1090 C70 1.593 . S
C1115 C33 1.556 . S
C1120 C135 1.560 . S
C1145 C172 1.593 . S
C1150 C138 1.593 . S
C1175 C203 1.560 . S
C1180 C237 1.556 . S
C1205 C206 1.593 . S
C1210 C240 1.593 . S
C1235 C271 1.560 . S
C1240 C169 1.560 . S
C1265 C308 1.593 . S
C1270 C274 1.593 . S
C1295 C339 1.560 . S
C1300 C373 1.560 . S
C1325 C342 1.593 . S
C1330 C376 1.593 . S
C1355 C407 1.560 . S
C1360 C305 1.560 . S
C1385 C410 1.593 . S
C1390 C444 1.593 . S
C1415 C475 1.560 . S
C1420 C509 1.560 . S
C1445 C512 1.593 . S
C1450 C478 1.593 . S
C1475 C441 1.560 . S
C1480 C543 1.560 . S
C1505 C20 1.517 . S
C1510 C156 1.517 . S
C1535 C462 1.516 . S
C1540 C54 1.516 . S
C1565 C88 1.517 . S
C1570 C224 1.517 . S
C1595 C530 1.517 . S
C1600 C122 1.517 . S
C1625 C326 1.517 . S
C1630 C190 1.517 . S
C1655 C258 1.516 . S
C1660 C394 1.516 . S
C1685 C292 1.517 . S
C1690 C428 1.517 . S
C1715 C496 1.517 . S
C1720 C360 1.517 . S
