# Generated by pormake.
# Topology whk, (6)-cn, num edge types: 1
# Building blocks:
#     Node 0, Type 0, BuildingBlock: MIFKUJ_clean_sbu_0, # of connection points: 6
#     Node 1, Type 0, BuildingBlock: MIFKUJ_clean_sbu_0, # of connection points: 6
#     Node 2, Type 0, BuildingBlock: MIFKUJ_clean_sbu_0, # of connection points: 6
#     Node 3, Type 0, BuildingBlock: MIFKUJ_clean_sbu_0, # of connection points: 6
#     Node 4, Type 0, BuildingBlock: MIFKUJ_clean_sbu_0, # of connection points: 6
#     Node 5, Type 0, BuildingBlock: MIFKUJ_clean_sbu_0, # of connection points: 6
#     Node 6, Type 0, BuildingBlock: MIFKUJ_clean_sbu_0, # of connection points: 6
#     Node 7, Type 0, BuildingBlock: MIFKUJ_clean_sbu_0, # of connection points: 6
#     Node 8, Type 0, BuildingBlock: MIFKUJ_clean_sbu_0, # of connection points: 6
#     Node 9, Type 0, BuildingBlock: MIFKUJ_clean_sbu_0, # of connection points: 6
#     Node 10, Type 0, BuildingBlock: MIFKUJ_clean_sbu_0, # of connection points: 6
#     Node 11, Type 0, BuildingBlock: MIFKUJ_clean_sbu_0, # of connection points: 6
#     Node 12, Type 0, BuildingBlock: MIFKUJ_clean_sbu_0, # of connection points: 6
#     Node 13, Type 0, BuildingBlock: MIFKUJ_clean_sbu_0, # of connection points: 6
#     Node 14, Type 0, BuildingBlock: MIFKUJ_clean_sbu_0, # of connection points: 6
#     Node 15, Type 0, BuildingBlock: MIFKUJ_clean_sbu_0, # of connection points: 6
#     Edge 16, Type (0, 0), BuildingBlock: TEMPAE_clean_linker_10, # of connection points: 2
#     Edge 17, Type (0, 0), BuildingBlock: TEMPAE_clean_linker_10, # of connection points: 2
#     Edge 18, Type (0, 0), BuildingBlock: TEMPAE_clean_linker_10, # of connection points: 2
#     Edge 19, Type (0, 0), BuildingBlock: TEMPAE_clean_linker_10, # of connection points: 2
#     Edge 20, Type (0, 0), BuildingBlock: TEMPAE_clean_linker_10, # of connection points: 2
#     Edge 21, Type (0, 0), BuildingBlock: TEMPAE_clean_linker_10, # of connection points: 2
#     Edge 22, Type (0, 0), BuildingBlock: TEMPAE_clean_linker_10, # of connection points: 2
#     Edge 23, Type (0, 0), BuildingBlock: TEMPAE_clean_linker_10, # of connection points: 2
#     Edge 24, Type (0, 0), BuildingBlock: TEMPAE_clean_linker_10, # of connection points: 2
#     Edge 25, Type (0, 0), BuildingBlock: TEMPAE_clean_linker_10, # of connection points: 2
#     Edge 26, Type (0, 0), BuildingBlock: TEMPAE_clean_linker_10, # of connection points: 2
#     Edge 27, Type (0, 0), BuildingBlock: TEMPAE_clean_linker_10, # of connection points: 2
#     Edge 28, Type (0, 0), BuildingBlock: TEMPAE_clean_linker_10, # of connection points: 2
#     Edge 29, Type (0, 0), BuildingBlock: TEMPAE_clean_linker_10, # of connection points: 2
#     Edge 30, Type (0, 0), BuildingBlock: TEMPAE_clean_linker_10, # of connection points: 2
#     Edge 31, Type (0, 0), BuildingBlock: TEMPAE_clean_linker_10, # of connection points: 2
#     Edge 32, Type (0, 0), BuildingBlock: TEMPAE_clean_linker_10, # of connection points: 2
#     Edge 33, Type (0, 0), BuildingBlock: TEMPAE_clean_linker_10, # of connection points: 2
#     Edge 34, Type (0, 0), BuildingBlock: TEMPAE_clean_linker_10, # of connection points: 2
#     Edge 35, Type (0, 0), BuildingBlock: TEMPAE_clean_linker_10, # of connection points: 2
#     Edge 36, Type (0, 0), BuildingBlock: TEMPAE_clean_linker_10, # of connection points: 2
#     Edge 37, Type (0, 0), BuildingBlock: TEMPAE_clean_linker_10, # of connection points: 2
#     Edge 38, Type (0, 0), BuildingBlock: TEMPAE_clean_linker_10, # of connection points: 2
#     Edge 39, Type (0, 0), BuildingBlock: TEMPAE_clean_linker_10, # of connection points: 2
#     Edge 40, Type (0, 0), BuildingBlock: TEMPAE_clean_linker_10, # of connection points: 2
#     Edge 41, Type (0, 0), BuildingBlock: TEMPAE_clean_linker_10, # of connection points: 2
#     Edge 42, Type (0, 0), BuildingBlock: TEMPAE_clean_linker_10, # of connection points: 2
#     Edge 43, Type (0, 0), BuildingBlock: TEMPAE_clean_linker_10, # of connection points: 2
#     Edge 44, Type (0, 0), BuildingBlock: TEMPAE_clean_linker_10, # of connection points: 2
#     Edge 45, Type (0, 0), BuildingBlock: TEMPAE_clean_linker_10, # of connection points: 2
#     Edge 46, Type (0, 0), BuildingBlock: TEMPAE_clean_linker_10, # of connection points: 2
#     Edge 47, Type (0, 0), BuildingBlock: TEMPAE_clean_linker_10, # of connection points: 2
#     Edge 48, Type (0, 0), BuildingBlock: TEMPAE_clean_linker_10, # of connection points: 2
#     Edge 49, Type (0, 0), BuildingBlock: TEMPAE_clean_linker_10, # of connection points: 2
#     Edge 50, Type (0, 0), BuildingBlock: TEMPAE_clean_linker_10, # of connection points: 2
#     Edge 51, Type (0, 0), BuildingBlock: TEMPAE_clean_linker_10, # of connection points: 2
#     Edge 52, Type (0, 0), BuildingBlock: TEMPAE_clean_linker_10, # of connection points: 2
#     Edge 53, Type (0, 0), BuildingBlock: TEMPAE_clean_linker_10, # of connection points: 2
#     Edge 54, Type (0, 0), BuildingBlock: TEMPAE_clean_linker_10, # of connection points: 2
#     Edge 55, Type (0, 0), BuildingBlock: TEMPAE_clean_linker_10, # of connection points: 2
#     Edge 56, Type (0, 0), BuildingBlock: TEMPAE_clean_linker_10, # of connection points: 2
#     Edge 57, Type (0, 0), BuildingBlock: TEMPAE_clean_linker_10, # of connection points: 2
#     Edge 58, Type (0, 0), BuildingBlock: TEMPAE_clean_linker_10, # of connection points: 2
#     Edge 59, Type (0, 0), BuildingBlock: TEMPAE_clean_linker_10, # of connection points: 2
#     Edge 60, Type (0, 0), BuildingBlock: TEMPAE_clean_linker_10, # of connection points: 2
#     Edge 61, Type (0, 0), BuildingBlock: TEMPAE_clean_linker_10, # of connection points: 2
#     Edge 62, Type (0, 0), BuildingBlock: TEMPAE_clean_linker_10, # of connection points: 2
#     Edge 63, Type (0, 0), BuildingBlock: TEMPAE_clean_linker_10, # of connection points: 2
# Relax obj value: 0.392
# Max RMSD: 0.269
# Mean RMSD: 0.269
data_MOF--net-whk--node1-MIFKUJ_clean_sbu_0--edge1-TEMPAE_clean_linker_10
_symmetry_space_group_name_H-M    P1
_symmetry_Int_Tables_number       1
_symmetry_cell_setting            triclinic
loop_
_symmetry_equiv_pos_as_xyz
'x, y, z'
_cell_length_a     40.7091
_cell_length_b     40.737265
_cell_length_c     43.558339
_cell_angle_alpha  90.044768
_cell_angle_beta   90.102519
_cell_angle_gamma 90.129273
loop_
_atom_site_label
_atom_site_type_symbol
_atom_site_fract_x
_atom_site_fract_y
_atom_site_fract_z
_atom_type_partial_charge
Zn0 Zn 0.49988 0.17121 0.38894 0.0
Zn1 Zn 0.60047 0.14666 0.40879 0.0
C2 C 0.46037 0.22722 0.39536 0.0
O3 O 0.44751 0.20785 0.41624 0.0
C4 C 0.65194 0.09997 0.41234 0.0
O5 O 0.65864 0.11325 0.38558 0.0
O6 O 0.46057 0.14233 0.39902 0.0
O7 O 0.52133 0.14837 0.35305 0.0
O8 O 0.57049 0.13839 0.37239 0.0
C9 C 0.43884 0.14301 0.37794 0.0
O10 O 0.44379 0.16187 0.35392 0.0
O11 O 0.48354 0.21653 0.37857 0.0
C12 C 0.63489 0.20752 0.39175 0.0
O13 O 0.60664 0.22239 0.39591 0.0
O14 O 0.63655 0.17657 0.39475 0.0
O15 O 0.58009 0.17083 0.44406 0.0
O16 O 0.53189 0.17952 0.42331 0.0
O17 O 0.62499 0.10733 0.42541 0.0
C18 C 0.54945 0.13493 0.35096 0.0
C19 C 0.55221 0.18465 0.44495 0.0
Zn20 Zn 0.34675 0.51652 0.41418 0.0
Zn21 Zn 0.31471 0.57812 0.39576 0.0
C22 C 0.29159 0.47511 0.41088 0.0
O23 O 0.30664 0.46542 0.43599 0.0
C24 C 0.36401 0.6283 0.40686 0.0
O25 O 0.3605 0.63235 0.37711 0.0
O26 O 0.37356 0.47571 0.42293 0.0
O27 O 0.37551 0.54187 0.38363 0.0
O28 O 0.33213 0.55686 0.35781 0.0
C29 C 0.37852 0.45993 0.39809 0.0
O30 O 0.36732 0.47234 0.37229 0.0
O31 O 0.30478 0.4977 0.39478 0.0
C32 C 0.27015 0.62958 0.401 0.0
O33 O 0.26812 0.61793 0.42904 0.0
O34 O 0.28634 0.61387 0.38099 0.0
O35 O 0.28747 0.55155 0.42438 0.0
O36 O 0.33025 0.53997 0.4531 0.0
O37 O 0.34905 0.60454 0.41986 0.0
C38 C 0.36241 0.55005 0.35833 0.0
C39 C 0.29978 0.5468 0.45073 0.0
Zn40 Zn 0.00797 0.34175 0.38792 0.0
Zn41 Zn 0.90831 0.361 0.40268 0.0
C42 C 0.01286 0.27443 0.36929 0.0
O43 O 0.98081 0.2753 0.37262 0.0
C44 C 0.86502 0.41207 0.41622 0.0
O45 O 0.85811 0.40612 0.38726 0.0
O46 O 0.0471 0.37061 0.39926 0.0
O47 O 0.98268 0.36616 0.3537 0.0
O48 O 0.93061 0.37707 0.36509 0.0
C49 C 0.06741 0.37428 0.37727 0.0
O50 O 0.06051 0.36071 0.35064 0.0
O51 O 0.02917 0.30103 0.37092 0.0
C52 C 0.84861 0.32836 0.41127 0.0
O53 O 0.8571 0.33582 0.43956 0.0
O54 O 0.86791 0.33603 0.3895 0.0
O55 O 0.93275 0.32958 0.42862 0.0
O56 O 0.98619 0.32024 0.42533 0.0
O57 O 0.88978 0.39795 0.42816 0.0
C58 C 0.95511 0.37938 0.34724 0.0
C59 C 0.95842 0.3151 0.43786 0.0
Zn60 Zn 0.16121 1.00096 0.40715 0.0
Zn61 Zn 0.18502 0.91303 0.40158 0.0
C62 C 0.22775 0.01225 0.37774 0.0
O63 O 0.22279 0.9873 0.35917 0.0
C64 C 0.14807 0.858 0.42077 0.0
O65 O 0.14728 0.85488 0.39075 0.0
O66 O 0.13246 0.041 0.4128 0.0
O67 O 0.13961 0.97641 0.37076 0.0
O68 O 0.15414 0.92406 0.36858 0.0
C69 C 0.13178 0.0582 0.38839 0.0
O70 O 0.1486 0.04798 0.3645 0.0
O71 O 0.20552 0.02049 0.39666 0.0
C72 C 0.23819 0.87094 0.40043 0.0
O73 O 0.24132 0.88239 0.42849 0.0
O74 O 0.21803 0.88463 0.38241 0.0
O75 O 0.20702 0.95156 0.42007 0.0
O76 O 0.17063 0.97711 0.44785 0.0
O77 O 0.16241 0.88297 0.43236 0.0
C78 C 0.13811 0.94819 0.35811 0.0
C79 C 0.19559 0.95846 0.44618 0.0
Zn80 Zn 0.00218 0.8479 0.1106 0.0
Zn81 Zn 0.09767 0.87072 0.09644 0.0
C82 C 0.9669 0.79011 0.10282 0.0
O83 O 0.95619 0.80949 0.08091 0.0
C84 C 0.13555 0.92369 0.07422 0.0
O85 O 0.14057 0.92681 0.10389 0.0
O86 O 0.96043 0.87368 0.10447 0.0
O87 O 0.02646 0.87231 0.14547 0.0
O88 O 0.0771 0.88924 0.13391 0.0
C89 C 0.94179 0.87699 0.12765 0.0
O90 O 0.95097 0.86419 0.15398 0.0
O91 O 0.98796 0.80144 0.1218 0.0
C92 C 0.15375 0.83455 0.08938 0.0
O93 O 0.14037 0.83317 0.06195 0.0
O94 O 0.13982 0.85093 0.11044 0.0
O95 O 0.07578 0.83202 0.0779 0.0
O96 O 0.02357 0.84152 0.06909 0.0
O97 O 0.11386 0.90337 0.06498 0.0
C98 C 0.05253 0.88847 0.15186 0.0
C99 C 0.04844 0.8229 0.06705 0.0
Zn100 Zn 0.65509 0.00292 0.10049 0.0
Zn101 Zn 0.68237 0.08409 0.10457 0.0
C102 C 0.71239 0.96382 0.10019 0.0
O103 O 0.69572 0.95044 0.07755 0.0
C104 C 0.63745 0.13253 0.08425 0.0
O105 O 0.63407 0.1346 0.11416 0.0
O106 O 0.62881 0.96152 0.09292 0.0
O107 O 0.63083 0.02559 0.13594 0.0
O108 O 0.65354 0.0747 0.13947 0.0
C109 C 0.62786 0.94271 0.11623 0.0
O110 O 0.64274 0.95214 0.14156 0.0
O111 O 0.69962 0.98726 0.11531 0.0
C112 C 0.7345 0.12857 0.10263 0.0
O113 O 0.73737 0.11652 0.07477 0.0
O114 O 0.71437 0.11542 0.12101 0.0
O115 O 0.70692 0.04675 0.08646 0.0
O116 O 0.66589 0.02692 0.05986 0.0
O117 O 0.65675 0.11095 0.07323 0.0
C118 C 0.63392 0.05314 0.14942 0.0
C119 C 0.69496 0.03855 0.06082 0.0
Zn120 Zn 0.50017 0.65563 0.11024 0.0
Zn121 Zn 0.40895 0.65981 0.11026 0.0
C122 C 0.53592 0.71324 0.10341 0.0
O123 O 0.54552 0.69532 0.08 0.0
C124 C 0.37899 0.60259 0.07976 0.0
O125 O 0.38365 0.58768 0.10613 0.0
O126 O 0.54283 0.63079 0.10444 0.0
O127 O 0.47615 0.63472 0.14733 0.0
O128 O 0.42137 0.63555 0.14744 0.0
C129 C 0.54804 0.60138 0.1129 0.0
O130 O 0.52354 0.58378 0.12363 0.0
O131 O 0.51541 0.70108 0.1223 0.0
C132 C 0.35884 0.7024 0.09756 0.0
O133 O 0.37172 0.6969 0.07042 0.0
O134 O 0.37073 0.68788 0.12082 0.0
O135 O 0.4434 0.69223 0.09859 0.0
O136 O 0.47734 0.66591 0.06914 0.0
O137 O 0.39086 0.63121 0.07574 0.0
C138 C 0.44856 0.62781 0.15968 0.0
C139 C 0.45615 0.68853 0.07244 0.0
Zn140 Zn 0.84383 0.50001 0.09446 0.0
Zn141 Zn 0.82388 0.4134 0.10018 0.0
C142 C 0.78145 0.51838 0.13026 0.0
O143 O 0.79447 0.51005 0.15674 0.0
C144 C 0.86342 0.36064 0.08174 0.0
O145 O 0.86354 0.35842 0.11183 0.0
O146 O 0.86965 0.54201 0.08632 0.0
O147 O 0.86845 0.4784 0.13114 0.0
O148 O 0.85425 0.42608 0.1327 0.0
C149 C 0.86974 0.56171 0.10907 0.0
O150 O 0.85397 0.55312 0.13411 0.0
O151 O 0.79822 0.51576 0.10582 0.0
C152 C 0.77309 0.36832 0.10249 0.0
O153 O 0.76802 0.37991 0.07474 0.0
O154 O 0.79365 0.38256 0.11979 0.0
O155 O 0.79707 0.44936 0.08277 0.0
O156 O 0.83311 0.47455 0.05412 0.0
O157 O 0.84817 0.38455 0.0693 0.0
C158 C 0.87032 0.45004 0.14342 0.0
C159 C 0.80664 0.45789 0.05644 0.0
Zn160 Zn 0.41797 0.8105 0.59177 0.0
Zn161 Zn 0.49579 0.83961 0.58607 0.0
C162 C 0.36997 0.85789 0.57776 0.0
O163 O 0.36535 0.85313 0.60727 0.0
C164 C 0.51919 0.77972 0.62251 0.0
O165 O 0.51245 0.79368 0.64895 0.0
O166 O 0.38307 0.77796 0.59933 0.0
O167 O 0.45416 0.78649 0.57084 0.0
O168 O 0.47201 0.82883 0.54495 0.0
C169 C 0.36828 0.76763 0.57554 0.0
O170 O 0.38042 0.77467 0.54844 0.0
O171 O 0.39393 0.84345 0.56466 0.0
C172 C 0.55114 0.87529 0.60527 0.0
O173 O 0.53807 0.86533 0.6312 0.0
O174 O 0.53689 0.86761 0.58016 0.0
O175 O 0.47129 0.86128 0.6223 0.0
O176 O 0.42722 0.83125 0.63189 0.0
O177 O 0.51403 0.79517 0.59766 0.0
C178 C 0.46193 0.79914 0.54539 0.0
C179 C 0.4469 0.85404 0.63932 0.0
Zn180 Zn 0.64164 0.4074 0.60479 0.0
Zn181 Zn 0.66158 0.50064 0.60804 0.0
C182 C 0.58418 0.3753 0.58293 0.0
O183 O 0.58173 0.36862 0.61235 0.0
C184 C 0.72089 0.53238 0.59692 0.0
O185 O 0.7015 0.54444 0.57562 0.0
O186 O 0.66083 0.36408 0.61761 0.0
O187 O 0.67996 0.42709 0.58352 0.0
O188 O 0.66336 0.47561 0.56762 0.0
C189 C 0.66628 0.34411 0.59577 0.0
O190 O 0.65797 0.35237 0.56767 0.0
O191 O 0.60615 0.39551 0.5743 0.0
C192 C 0.60868 0.54886 0.60794 0.0
O193 O 0.59032 0.52364 0.61566 0.0
O194 O 0.63894 0.54434 0.60218 0.0
O195 O 0.64025 0.48131 0.64638 0.0
O196 O 0.62461 0.42899 0.64252 0.0
O197 O 0.70909 0.51193 0.61606 0.0
C198 C 0.68318 0.45159 0.56593 0.0
C199 C 0.62602 0.45595 0.65706 0.0
Zn200 Zn 0.08424 0.68677 0.61258 0.0
Zn201 Zn 0.0091 0.6547 0.60314 0.0
C202 C 0.13016 0.63748 0.59391 0.0
O203 O 0.13184 0.63361 0.62381 0.0
C204 C 0.98331 0.7139 0.63961 0.0
O205 O 0.98954 0.69996 0.66617 0.0
O206 O 0.11837 0.71898 0.6238 0.0
O207 O 0.0478 0.70989 0.5913 0.0
O208 O 0.03607 0.66627 0.56439 0.0
C209 C 0.12753 0.73955 0.60374 0.0
O210 O 0.10765 0.74696 0.58108 0.0
O211 O 0.10942 0.65769 0.58294 0.0
C212 C 0.94961 0.62437 0.61494 0.0
O213 O 0.95717 0.63867 0.64106 0.0
O214 O 0.96963 0.62668 0.59263 0.0
O215 O 0.03082 0.63174 0.63998 0.0
O216 O 0.07476 0.66171 0.65036 0.0
O217 O 0.98928 0.69861 0.61482 0.0
C218 C 0.04366 0.69665 0.56531 0.0
C219 C 0.05517 0.63867 0.65721 0.0
Zn220 Zn 0.85012 0.09036 0.60113 0.0
Zn221 Zn 0.84354 0.99355 0.60987 0.0
C222 C 0.90105 0.13098 0.58169 0.0
O223 O 0.8983 0.13731 0.61117 0.0
C224 C 0.78484 0.95465 0.6207 0.0
O225 O 0.80605 0.93057 0.61846 0.0
O226 O 0.82083 0.12885 0.61135 0.0
O227 O 0.82024 0.05489 0.58695 0.0
O228 O 0.84099 0.0113 0.56619 0.0
C229 C 0.81724 0.15148 0.5915 0.0
O230 O 0.83233 0.1492 0.56498 0.0
O231 O 0.88385 0.10766 0.57047 0.0
C232 C 0.89586 0.94506 0.62014 0.0
O233 O 0.91272 0.97017 0.63075 0.0
O234 O 0.86727 0.94981 0.6092 0.0
O235 O 0.86678 0.02133 0.6434 0.0
O236 O 0.87317 0.07563 0.6388 0.0
O237 O 0.7953 0.98416 0.62002 0.0
C238 C 0.82677 0.03878 0.56296 0.0
C239 C 0.87763 0.04888 0.65326 0.0
Zn240 Zn 0.91596 0.17601 0.90133 0.0
Zn241 Zn 1.00088 0.15111 0.9059 0.0
C242 C 0.86368 0.13527 0.9199 0.0
O243 O 0.86057 0.13517 0.88987 0.0
C244 C 0.04091 0.20892 0.90286 0.0
O245 O 0.0591 0.19124 0.92145 0.0
O246 O 0.88544 0.20829 0.88399 0.0
O247 O 0.95371 0.19953 0.91986 0.0
O248 O 0.97733 0.16107 0.94694 0.0
C249 C 0.87512 0.23145 0.90076 0.0
O250 O 0.88988 0.23744 0.92702 0.0
O251 O 0.8877 0.15088 0.93184 0.0
C252 C 0.06066 0.12363 0.88787 0.0
O253 O 0.0496 0.13732 0.86259 0.0
O254 O 0.04319 0.12542 0.91206 0.0
O255 O 0.9772 0.12667 0.87065 0.0
O256 O 0.92686 0.1467 0.86728 0.0
O257 O 0.01476 0.19662 0.89162 0.0
C258 C 0.96131 0.18789 0.94574 0.0
C259 C 0.94938 0.12824 0.85728 0.0
Zn260 Zn 0.34703 0.90934 0.89549 0.0
Zn261 Zn 0.35161 0.00324 0.88538 0.0
C262 C 0.38688 0.85825 0.91704 0.0
O263 O 0.37865 0.84807 0.88946 0.0
C264 C 0.29467 0.04186 0.89013 0.0
O265 O 0.31443 0.05566 0.91026 0.0
O266 O 0.31631 0.87328 0.88351 0.0
O267 O 0.31677 0.94162 0.91493 0.0
O268 O 0.34602 0.98457 0.92886 0.0
C269 C 0.3018 0.86004 0.90614 0.0
O270 O 0.30649 0.87222 0.93376 0.0
O271 O 0.37795 0.88677 0.92568 0.0
C272 C 0.3798 0.06475 0.86641 0.0
O273 O 0.36369 0.05713 0.84121 0.0
O274 O 0.37894 0.04491 0.88896 0.0
O275 O 0.37276 0.9767 0.85021 0.0
O276 O 0.37101 0.9228 0.85801 0.0
O277 O 0.30533 0.01779 0.87436 0.0
C278 C 0.32479 0.96255 0.93501 0.0
C279 C 0.37958 0.9474 0.84208 0.0
Zn280 Zn 0.58326 0.32174 0.89781 0.0
Zn281 Zn 0.51025 0.34854 0.90766 0.0
C282 C 0.62958 0.37134 0.91616 0.0
O283 O 0.63349 0.37243 0.88624 0.0
C284 C 0.47124 0.29195 0.90105 0.0
O285 O 0.45883 0.30606 0.92554 0.0
O286 O 0.6203 0.29376 0.88595 0.0
O287 O 0.55098 0.29273 0.91844 0.0
O288 O 0.53272 0.33253 0.94755 0.0
C289 C 0.63599 0.28049 0.90778 0.0
O290 O 0.62361 0.28121 0.93561 0.0
O291 O 0.60673 0.35341 0.92716 0.0
C292 C 0.45274 0.38153 0.89159 0.0
O293 O 0.46675 0.37555 0.86502 0.0
O294 O 0.46754 0.37277 0.91605 0.0
O295 O 0.53482 0.37859 0.87728 0.0
O296 O 0.56943 0.34214 0.8589 0.0
O297 O 0.49474 0.30616 0.88701 0.0
C298 C 0.54223 0.30288 0.9446 0.0
C299 C 0.55366 0.36865 0.85596 0.0
Zn300 Zn 0.14472 0.59424 0.91569 0.0
Zn301 Zn 0.1606 0.49768 0.90264 0.0
C302 C 0.09121 0.63185 0.93205 0.0
O303 O 0.09451 0.6375 0.90251 0.0
C304 C 0.21646 0.45575 0.88603 0.0
O305 O 0.1943 0.43232 0.88498 0.0
O306 O 0.16515 0.63635 0.90221 0.0
O307 O 0.18162 0.57149 0.93649 0.0
O308 O 0.16673 0.52006 0.94442 0.0
C309 C 0.19499 0.63876 0.89415 0.0
O310 O 0.21322 0.61223 0.8927 0.0
O311 O 0.10895 0.60974 0.94431 0.0
C312 C 0.1206 0.44205 0.88594 0.0
O313 O 0.12318 0.4561 0.85892 0.0
O314 O 0.1345 0.45552 0.90897 0.0
O315 O 0.1373 0.52184 0.86703 0.0
O316 O 0.127 0.57407 0.87787 0.0
O317 O 0.20737 0.48515 0.89107 0.0
C318 C 0.18738 0.54335 0.94742 0.0
C319 C 0.12452 0.54945 0.86021 0.0
C320 C 0.59025 0.10496 0.31818 0.0
C321 C 0.5583 0.11695 0.32248 0.0
C322 C 0.59947 0.09013 0.2904 0.0
C323 C 0.5762 0.08711 0.26632 0.0
C324 C 0.54347 0.0975 0.27112 0.0
C325 C 0.53493 0.11236 0.29909 0.0
C326 C 0.63465 0.07936 0.2862 0.0
C327 C 0.51786 0.09457 0.24615 0.0
C328 C 0.61304 0.09399 0.187 0.0
C329 C 0.61531 0.06106 0.17771 0.0
C330 C 0.5993 0.10267 0.21523 0.0
C331 C 0.58742 0.07782 0.23497 0.0
C332 C 0.5881 0.04458 0.22525 0.0
C333 C 0.60205 0.03654 0.19661 0.0
C334 C 0.59876 0.13847 0.22441 0.0
C335 C 0.5753 0.01747 0.24557 0.0
H336 H 0.60841 0.10806 0.33618 0.0
H337 H 0.51004 0.1211 0.30228 0.0
H338 H 0.63557 0.05407 0.2768 0.0
H339 H 0.64696 0.09574 0.26941 0.0
H340 H 0.64876 0.08007 0.30806 0.0
H341 H 0.49267 0.09905 0.25494 0.0
H342 H 0.5231 0.11279 0.22787 0.0
H343 H 0.51863 0.06987 0.23544 0.0
H344 H 0.62281 0.11321 0.17244 0.0
H345 H 0.60369 0.01106 0.1896 0.0
H346 H 0.61472 0.14231 0.24479 0.0
H347 H 0.57351 0.14591 0.23089 0.0
H348 H 0.60743 0.15487 0.20573 0.0
H349 H 0.59186 0.01454 0.26564 0.0
H350 H 0.57378 0.99362 0.23327 0.0
H351 H 0.55061 0.02376 0.25454 0.0
C352 C 0.45629 0.58246 0.19778 0.0
C353 C 0.44723 0.61479 0.19112 0.0
C354 C 0.44842 0.5684 0.22641 0.0
C355 C 0.4314 0.58737 0.2486 0.0
C356 C 0.42456 0.62081 0.24253 0.0
C357 C 0.43226 0.63396 0.21376 0.0
C358 C 0.45613 0.53271 0.23197 0.0
C359 C 0.40687 0.64213 0.26557 0.0
C360 C 0.3666 0.55255 0.30142 0.0
C361 C 0.38211 0.55447 0.33011 0.0
C362 C 0.38335 0.56074 0.27441 0.0
C363 C 0.41634 0.57172 0.27612 0.0
C364 C 0.43275 0.57193 0.30485 0.0
C365 C 0.41546 0.56305 0.33157 0.0
C366 C 0.365 0.55962 0.24425 0.0
C367 C 0.46782 0.58361 0.30767 0.0
H368 H 0.46765 0.56765 0.18006 0.0
H369 H 0.42532 0.65902 0.20843 0.0
H370 H 0.46564 0.52896 0.25559 0.0
H371 H 0.43328 0.51802 0.22966 0.0
H372 H 0.47441 0.52321 0.21529 0.0
H373 H 0.40701 0.66843 0.25883 0.0
H374 H 0.38095 0.63392 0.26755 0.0
H375 H 0.41831 0.63982 0.28859 0.0
H376 H 0.34094 0.54546 0.30015 0.0
H377 H 0.42754 0.56457 0.35372 0.0
H378 H 0.37983 0.54694 0.22652 0.0
H379 H 0.36051 0.58501 0.23606 0.0
H380 H 0.34095 0.54688 0.24631 0.0
H381 H 0.4832 0.5731 0.28912 0.0
H382 H 0.47874 0.57702 0.33022 0.0
H383 H 0.46857 0.61071 0.30524 0.0
C384 C 0.9211 0.41495 0.31304 0.0
C385 C 0.95017 0.39705 0.31768 0.0
C386 C 0.91331 0.4284 0.28436 0.0
C387 C 0.93516 0.42413 0.25945 0.0
C388 C 0.96575 0.40841 0.26449 0.0
C389 C 0.97289 0.39492 0.29356 0.0
C390 C 0.88038 0.44486 0.28019 0.0
C391 C 0.99004 0.40398 0.23872 0.0
C392 C 0.88996 0.41217 0.18443 0.0
C393 C 0.89028 0.44382 0.17154 0.0
C394 C 0.90578 0.40531 0.2122 0.0
C395 C 0.92303 0.43056 0.22766 0.0
C396 C 0.92514 0.46218 0.21411 0.0
C397 C 0.90846 0.46857 0.18628 0.0
C398 C 0.90245 0.37129 0.22576 0.0
C399 C 0.94399 0.48953 0.22952 0.0
H400 H 0.9036 0.41744 0.33161 0.0
H401 H 0.9956 0.38156 0.29694 0.0
H402 H 0.88325 0.46857 0.268 0.0
H403 H 0.86424 0.42898 0.26593 0.0
H404 H 0.86789 0.44948 0.30243 0.0
H405 H 0.01488 0.39762 0.24745 0.0
H406 H 0.98157 0.38385 0.22344 0.0
H407 H 0.9918 0.4266 0.22464 0.0
H408 H 0.87635 0.39259 0.1733 0.0
H409 H 0.90917 0.49299 0.17645 0.0
H410 H 0.8885 0.3726 0.2476 0.0
H411 H 0.92701 0.36106 0.23113 0.0
H412 H 0.88954 0.354 0.2101 0.0
H413 H 0.92967 0.49893 0.24928 0.0
H414 H 0.94872 0.51028 0.21357 0.0
H415 H 0.9678 0.48044 0.23854 0.0
C416 C 0.09705 0.96658 0.31803 0.0
C417 C 0.11874 0.94284 0.32957 0.0
C418 C 0.08008 0.96137 0.29018 0.0
C419 C 0.0855 0.9321 0.27331 0.0
C420 C 0.10673 0.90782 0.2853 0.0
C421 C 0.12279 0.91337 0.31323 0.0
C422 C 0.05705 0.98748 0.27844 0.0
C423 C 0.1137 0.87641 0.26798 0.0
C424 C 0.03579 0.89729 0.207 0.0
C425 C 0.05634 0.90488 0.18215 0.0
C426 C 0.04326 0.90855 0.2368 0.0
C427 C 0.07198 0.9276 0.24176 0.0
C428 C 0.09116 0.93754 0.21635 0.0
C429 C 0.08303 0.92621 0.18695 0.0
C430 C 0.02179 0.89803 0.26323 0.0
C431 C 0.12204 0.95773 0.22045 0.0
H432 H 0.09353 0.98928 0.33058 0.0
H433 H 0.13942 0.89475 0.32181 0.0
H434 H 0.068 0.99963 0.25809 0.0
H435 H 0.03344 0.97634 0.27102 0.0
H436 H 0.05199 0.00653 0.29606 0.0
H437 H 0.12989 0.8595 0.28105 0.0
H438 H 0.09043 0.86338 0.26268 0.0
H439 H 0.12577 0.88223 0.24581 0.0
H440 H 0.0149 0.88114 0.20352 0.0
H441 H 0.09873 0.93285 0.16784 0.0
H442 H 0.01823 0.91855 0.27964 0.0
H443 H 0.03392 0.87774 0.27585 0.0
H444 H 0.99737 0.88925 0.25524 0.0
H445 H 0.1174 0.97912 0.23555 0.0
H446 H 0.13188 0.96675 0.19822 0.0
H447 H 0.14119 0.94249 0.23165 0.0
C448 C 0.41556 0.91207 0.80984 0.0
C449 C 0.39674 0.94073 0.81271 0.0
C450 C 0.42777 0.90192 0.7813 0.0
C451 C 0.4206 0.92057 0.75472 0.0
C452 C 0.40337 0.95064 0.75773 0.0
C453 C 0.39182 0.96052 0.7868 0.0
C454 C 0.4464 0.86996 0.77936 0.0
C455 C 0.39508 0.97118 0.72999 0.0
C456 C 0.46347 0.89448 0.68062 0.0
C457 C 0.4403 0.87265 0.66808 0.0
C458 C 0.45717 0.91113 0.70839 0.0
C459 C 0.42693 0.90601 0.72381 0.0
C460 C 0.40318 0.88474 0.71074 0.0
C461 C 0.41017 0.86833 0.68323 0.0
C462 C 0.48315 0.9335 0.72165 0.0
C463 C 0.37055 0.87857 0.72624 0.0
H464 H 0.41983 0.89687 0.82987 0.0
H465 H 0.37725 0.98266 0.78887 0.0
H466 H 0.43076 0.8511 0.76813 0.0
H467 H 0.4688 0.87294 0.76516 0.0
H468 H 0.45371 0.86073 0.80237 0.0
H469 H 0.38616 0.99598 0.73649 0.0
H470 H 0.41679 0.97387 0.71484 0.0
H471 H 0.37557 0.95871 0.71647 0.0
H472 H 0.48675 0.8981 0.66907 0.0
H473 H 0.39187 0.85186 0.67368 0.0
H474 H 0.49238 0.92314 0.74356 0.0
H475 H 0.47253 0.95791 0.72692 0.0
H476 H 0.50427 0.93682 0.70582 0.0
H477 H 0.37461 0.86625 0.74863 0.0
H478 H 0.35397 0.86294 0.71215 0.0
H479 H 0.35799 0.90218 0.73094 0.0
C480 C 0.57001 0.37155 0.80122 0.0
C481 C 0.55854 0.38781 0.82746 0.0
C482 C 0.57803 0.38876 0.77451 0.0
C483 C 0.5747 0.42333 0.7739 0.0
C484 C 0.56202 0.43994 0.79991 0.0
C485 C 0.55394 0.42191 0.82647 0.0
C486 C 0.59095 0.36987 0.74719 0.0
C487 C 0.55798 0.47674 0.80001 0.0
C488 C 0.63188 0.4577 0.71373 0.0
C489 C 0.61149 0.45676 0.68788 0.0
C490 C 0.61945 0.44983 0.74289 0.0
C491 C 0.5858 0.4414 0.74607 0.0
C492 C 0.56457 0.44389 0.72039 0.0
C493 C 0.57783 0.45094 0.69141 0.0
C494 C 0.643 0.44715 0.76955 0.0
C495 C 0.52844 0.43601 0.72287 0.0
H496 H 0.57317 0.34513 0.80165 0.0
H497 H 0.54513 0.43458 0.84673 0.0
H498 H 0.57544 0.37465 0.72672 0.0
H499 H 0.61625 0.37816 0.7417 0.0
H500 H 0.59146 0.34297 0.7513 0.0
H501 H 0.54393 0.48541 0.82028 0.0
H502 H 0.58253 0.4886 0.80034 0.0
H503 H 0.54527 0.48498 0.77883 0.0
H504 H 0.65799 0.46195 0.71078 0.0
H505 H 0.56216 0.45027 0.67125 0.0
H506 H 0.64767 0.42085 0.77452 0.0
H507 H 0.63232 0.45825 0.79052 0.0
H508 H 0.6669 0.45926 0.76463 0.0
H509 H 0.52507 0.40898 0.72345 0.0
H510 H 0.51437 0.44584 0.70304 0.0
H511 H 0.51799 0.44617 0.74437 0.0
C512 C 0.0394 0.59713 0.69776 0.0
C513 C 0.06231 0.61921 0.68532 0.0
C514 C 0.04625 0.58007 0.72521 0.0
C515 C 0.07666 0.58523 0.74042 0.0
C516 C 0.10027 0.60646 0.72723 0.0
C517 C 0.09281 0.62313 0.70002 0.0
C518 C 0.02053 0.5575 0.73848 0.0
C519 C 0.13307 0.61271 0.74251 0.0
C520 C 0.08756 0.58228 0.82649 0.0
C521 C 0.10761 0.55456 0.83032 0.0
C522 C 0.07521 0.59107 0.79762 0.0
C523 C 0.08297 0.57167 0.7717 0.0
C524 C 0.10107 0.54225 0.77569 0.0
C525 C 0.11321 0.53399 0.80502 0.0
C526 C 0.05594 0.62257 0.79461 0.0
C527 C 0.10948 0.52066 0.74869 0.0
H528 H 0.01588 0.59375 0.68649 0.0
H529 H 0.11098 0.63968 0.69045 0.0
H530 H 0.03171 0.53387 0.74556 0.0
H531 H 0.0098 0.56889 0.75931 0.0
H532 H 1.00036 0.55245 0.72191 0.0
H533 H 0.14955 0.62816 0.72821 0.0
H534 H 0.12922 0.62532 0.76481 0.0
H535 H 0.14564 0.58915 0.74736 0.0
H536 H 0.08248 0.59803 0.84598 0.0
H537 H 0.12845 0.5124 0.80777 0.0
H538 H 0.03343 0.61853 0.78074 0.0
H539 H 0.07109 0.64118 0.78252 0.0
H540 H 0.04874 0.63276 0.81728 0.0
H541 H 0.08789 0.5175 0.73338 0.0
H542 H 0.11821 0.49609 0.7561 0.0
H543 H 0.12921 0.53249 0.73503 0.0
C544 C 0.8868 0.03127 0.70779 0.0
C545 C 0.89582 0.05067 0.68262 0.0
C546 C 0.89973 0.03774 0.73719 0.0
C547 C 0.92244 0.06387 0.74119 0.0
C548 C 0.93398 0.08121 0.7152 0.0
C549 C 0.9203 0.07461 0.68632 0.0
C550 C 0.88683 0.01864 0.76428 0.0
C551 C 0.95844 0.10896 0.71821 0.0
C552 C 0.91445 0.11776 0.81138 0.0
C553 C 0.94257 0.10976 0.82853 0.0
C554 C 0.90739 0.10229 0.78351 0.0
C555 C 0.92873 0.07771 0.77232 0.0
C556 C 0.9567 0.06865 0.78979 0.0
C557 C 0.9635 0.08501 0.81767 0.0
C558 C 0.87749 0.11316 0.76554 0.0
C559 C 0.97967 0.04217 0.77875 0.0
H560 H 0.86797 0.01263 0.70497 0.0
H561 H 0.92778 0.08925 0.66674 0.0
H562 H 0.90692 0.01278 0.7806 0.0
H563 H 0.86857 0.0338 0.77675 0.0
H564 H 0.87467 0.99545 0.75703 0.0
H565 H 0.96893 0.11612 0.69565 0.0
H566 H 0.94605 0.13069 0.72825 0.0
H567 H 0.97883 0.10207 0.73382 0.0
H568 H 0.89806 0.13687 0.81936 0.0
H569 H 0.98515 0.07853 0.83083 0.0
H570 H 0.86149 0.09179 0.76035 0.0
H571 H 0.88525 0.12395 0.74331 0.0
H572 H 0.86272 0.13173 0.77808 0.0
H573 H 0.96564 0.01955 0.77316 0.0
H574 H 0.99877 0.03612 0.79609 0.0
H575 H 0.99202 0.05025 0.75737 0.0
C576 C 0.38048 0.13332 0.36337 0.0
C577 C 0.40839 0.12321 0.37971 0.0
C578 C 0.35158 0.11453 0.36339 0.0
C579 C 0.35072 0.08448 0.37965 0.0
C580 C 0.37886 0.07403 0.39616 0.0
C581 C 0.40731 0.09375 0.39628 0.0
C582 C 0.32192 0.12693 0.34606 0.0
C583 C 0.37899 0.0419 0.41338 0.0
C584 C 0.26621 0.05287 0.40164 0.0
C585 C 0.25964 0.03 0.37825 0.0
C586 C 0.29603 0.07013 0.40275 0.0
C587 C 0.31998 0.06455 0.37986 0.0
C588 C 0.31377 0.04121 0.35639 0.0
C589 C 0.28368 0.02415 0.35589 0.0
C590 C 0.30163 0.09481 0.42814 0.0
C591 C 0.33872 0.03464 0.33155 0.0
H592 H 0.38113 0.15619 0.35067 0.0
H593 H 0.42895 0.08572 0.40868 0.0
H594 H 0.31455 0.10889 0.32824 0.0
H595 H 0.30086 0.12971 0.36198 0.0
H596 H 0.32657 0.15094 0.33478 0.0
H597 H 0.40298 0.03702 0.42466 0.0
H598 H 0.35952 0.04197 0.43117 0.0
H599 H 0.3734 0.02141 0.39739 0.0
H600 H 0.24796 0.0574 0.41922 0.0
H601 H 0.27887 0.00648 0.33781 0.0
H602 H 0.30468 0.11969 0.41819 0.0
H603 H 0.32458 0.08896 0.44075 0.0
H604 H 0.28101 0.09542 0.4448 0.0
H605 H 0.34269 0.05721 0.3178 0.0
H606 H 0.33089 0.01458 0.31585 0.0
H607 H 0.36269 0.02798 0.34197 0.0
C608 C 0.3952 0.40924 0.37023 0.0
C609 C 0.39427 0.42719 0.39775 0.0
C610 C 0.40789 0.37734 0.36928 0.0
C611 C 0.42033 0.36304 0.39646 0.0
C612 C 0.42057 0.38134 0.42414 0.0
C613 C 0.40733 0.41321 0.42452 0.0
C614 C 0.40688 0.35853 0.33937 0.0
C615 C 0.43417 0.36695 0.45345 0.0
C616 C 0.41785 0.27022 0.40193 0.0
C617 C 0.45003 0.26179 0.39396 0.0
C618 C 0.40789 0.3031 0.40272 0.0
C619 C 0.43097 0.32817 0.39618 0.0
C620 C 0.46366 0.31979 0.38835 0.0
C621 C 0.47272 0.28657 0.38695 0.0
C622 C 0.37261 0.311 0.41042 0.0
C623 C 0.4891 0.34588 0.38188 0.0
H624 H 0.38524 0.41979 0.34938 0.0
H625 H 0.40686 0.42698 0.44581 0.0
H626 H 0.43175 0.34946 0.33346 0.0
H627 H 0.3907 0.33673 0.34183 0.0
H628 H 0.39763 0.37368 0.32002 0.0
H629 H 0.43447 0.38503 0.47255 0.0
H630 H 0.41912 0.34552 0.4605 0.0
H631 H 0.45956 0.35797 0.44967 0.0
H632 H 0.40034 0.25099 0.40738 0.0
H633 H 0.49781 0.28003 0.38136 0.0
H634 H 0.36124 0.32501 0.39134 0.0
H635 H 0.3716 0.32672 0.4312 0.0
H636 H 0.35769 0.28858 0.4146 0.0
H637 H 0.4811 0.36134 0.36231 0.0
H638 H 0.51352 0.33526 0.37643 0.0
H639 H 0.4917 0.36225 0.40211 0.0
C640 C 0.1242 0.38762 0.35957 0.0
C641 C 0.09921 0.39171 0.38142 0.0
C642 C 0.15501 0.40261 0.36321 0.0
C643 C 0.161 0.42274 0.38911 0.0
C644 C 0.13562 0.42777 0.41088 0.0
C645 C 0.1051 0.41193 0.40693 0.0
C646 C 0.18153 0.39606 0.33978 0.0
C647 C 0.14092 0.44946 0.43857 0.0
C648 C 0.24939 0.43114 0.41611 0.0
C649 C 0.25873 0.46145 0.40358 0.0
C650 C 0.21774 0.41837 0.41154 0.0
C651 C 0.19452 0.43656 0.39438 0.0
C652 C 0.20376 0.46723 0.38159 0.0
C653 C 0.2359 0.47921 0.38613 0.0
C654 C 0.20919 0.3853 0.42507 0.0
C655 C 0.17958 0.48752 0.36348 0.0
H656 H 0.11999 0.37194 0.33983 0.0
H657 H 0.08587 0.41538 0.4238 0.0
H658 H 0.19113 0.41953 0.33049 0.0
H659 H 0.20241 0.38323 0.35089 0.0
H660 H 0.17258 0.38077 0.32034 0.0
H661 H 0.11803 0.45294 0.45203 0.0
H662 H 0.15979 0.43845 0.45378 0.0
H663 H 0.15025 0.47387 0.43134 0.0
H664 H 0.26695 0.41726 0.42957 0.0
H665 H 0.24286 0.50285 0.37674 0.0
H666 H 0.2013 0.36824 0.40659 0.0
H667 H 0.18831 0.3878 0.44122 0.0
H668 H 0.23019 0.37411 0.43754 0.0
H669 H 0.17078 0.47347 0.34324 0.0
H670 H 0.19042 0.51102 0.35542 0.0
H671 H 0.15779 0.49304 0.37784 0.0
C672 C 0.09271 0.09995 0.41028 0.0
C673 C 0.11312 0.08935 0.38634 0.0
C674 C 0.07526 0.12966 0.40801 0.0
C675 C 0.07849 0.14918 0.38124 0.0
C676 C 0.09896 0.1385 0.35704 0.0
C677 C 0.11593 0.10878 0.35987 0.0
C678 C 0.05364 0.14032 0.4343 0.0
C679 C 0.10316 0.15861 0.32817 0.0
C680 C 0.01415 0.21354 0.36182 0.0
C681 C 0.03018 0.24257 0.37056 0.0
C682 C 0.02948 0.18289 0.36533 0.0
C683 C 0.06124 0.18124 0.37858 0.0
C684 C 0.07734 0.21047 0.3878 0.0
C685 C 0.06179 0.2408 0.38333 0.0
C686 C 0.0118 0.15231 0.3547 0.0
C687 C 0.11094 0.2097 0.40254 0.0
H688 H 0.09034 0.08505 0.43077 0.0
H689 H 0.13168 0.10091 0.34124 0.0
H690 H 0.06237 0.16421 0.4435 0.0
H691 H 0.0281 0.14402 0.4261 0.0
H692 H 0.05332 0.12213 0.45328 0.0
H693 H 0.11932 0.14641 0.31112 0.0
H694 H 0.0789 0.16314 0.31736 0.0
H695 H 0.11393 0.18289 0.33395 0.0
H696 H 0.98963 0.21481 0.35215 0.0
H697 H 0.07405 0.2631 0.39073 0.0
H698 H 0.00912 0.13485 0.37407 0.0
H699 H 0.02646 0.13981 0.33671 0.0
H700 H 0.98704 0.15773 0.34524 0.0
H701 H 0.11058 0.19351 0.42301 0.0
H702 H 0.11945 0.23448 0.40971 0.0
H703 H 0.12908 0.19934 0.38624 0.0
C704 C 0.89941 0.90709 0.09681 0.0
C705 C 0.90943 0.89328 0.12479 0.0
C706 C 0.86801 0.92087 0.09348 0.0
C707 C 0.84606 0.9206 0.11866 0.0
C708 C 0.85635 0.90752 0.14717 0.0
C709 C 0.88792 0.89411 0.14992 0.0
C710 C 0.858 0.93488 0.06277 0.0
C711 C 0.83358 0.90663 0.1745 0.0
C712 C 0.77004 0.97476 0.11725 0.0
C713 C 0.74618 0.95272 0.10649 0.0
C714 C 0.80283 0.9648 0.12106 0.0
C715 C 0.81161 0.93188 0.11463 0.0
C716 C 0.78737 0.90942 0.10435 0.0
C717 C 0.75503 0.92024 0.10005 0.0
C718 C 0.82815 0.98959 0.1314 0.0
C719 C 0.7956 0.87397 0.0978 0.0
H720 H 0.91592 0.9067 0.07731 0.0
H721 H 0.89546 0.88361 0.17166 0.0
H722 H 0.83808 0.91969 0.05266 0.0
H723 H 0.84819 0.96008 0.06567 0.0
H724 H 0.87879 0.93572 0.04629 0.0
H725 H 0.8459 0.89721 0.19549 0.0
H726 H 0.82397 0.93155 0.17936 0.0
H727 H 0.81216 0.89066 0.16931 0.0
H728 H 0.76327 1.00003 0.12179 0.0
H729 H 0.73654 0.90318 0.09178 0.0
H730 H 0.84765 0.99189 0.11376 0.0
H731 H 0.84013 0.98117 0.15287 0.0
H732 H 0.81732 0.01422 0.13546 0.0
H733 H 0.81418 0.87253 0.07925 0.0
H734 H 0.7737 0.85947 0.09076 0.0
H735 H 0.8065 0.86243 0.11851 0.0
C736 C 0.577 0.75664 0.09134 0.0
C737 C 0.54815 0.74726 0.10654 0.0
C738 C 0.58875 0.78895 0.09296 0.0
C739 C 0.57088 0.81265 0.10979 0.0
C740 C 0.54156 0.80343 0.12503 0.0
C741 C 0.53067 0.77069 0.12346 0.0
C742 C 0.62046 0.79763 0.07689 0.0
C743 C 0.52167 0.82818 0.14283 0.0
C744 C 0.6189 0.88672 0.13768 0.0
C745 C 0.61203 0.91 0.11485 0.0
C746 C 0.60523 0.85515 0.13655 0.0
C747 C 0.58373 0.84675 0.11223 0.0
C748 C 0.57602 0.87035 0.08946 0.0
C749 C 0.59053 0.90167 0.09088 0.0
C750 C 0.61454 0.8305 0.16094 0.0
C751 C 0.55282 0.86236 0.06341 0.0
H752 H 0.59067 0.73858 0.07831 0.0
H753 H 0.50816 0.7636 0.13496 0.0
H754 H 0.6161 0.8174 0.05988 0.0
H755 H 0.63856 0.80711 0.0938 0.0
H756 H 0.63142 0.77626 0.06484 0.0
H757 H 0.4989 0.81732 0.15256 0.0
H758 H 0.53661 0.83841 0.16191 0.0
H759 H 0.51483 0.84898 0.1277 0.0
H760 H 0.63562 0.89291 0.15621 0.0
H761 H 0.585 0.91963 0.07328 0.0
H762 H 0.6273 0.80937 0.15021 0.0
H763 H 0.59217 0.82077 0.17228 0.0
H764 H 0.63089 0.84121 0.17878 0.0
H765 H 0.56352 0.8428 0.04881 0.0
H766 H 0.54765 0.88407 0.04877 0.0
H767 H 0.52925 0.85282 0.07258 0.0
C768 C 0.6089 0.6103 0.11301 0.0
C769 C 0.58212 0.58856 0.11401 0.0
C770 C 0.64126 0.59896 0.11626 0.0
C771 C 0.64712 0.56494 0.11999 0.0
C772 C 0.62025 0.54278 0.12037 0.0
C773 C 0.58805 0.55489 0.1177 0.0
C774 C 0.66918 0.62345 0.1161 0.0
C775 C 0.62555 0.50627 0.12356 0.0
C776 C 0.73234 0.53448 0.09917 0.0
C777 C 0.74701 0.53022 0.12812 0.0
C778 C 0.69975 0.54514 0.09626 0.0
C779 C 0.68143 0.55256 0.12292 0.0
C780 C 0.69612 0.54873 0.15224 0.0
C781 C 0.72865 0.5373 0.15451 0.0
C782 C 0.68495 0.54845 0.06459 0.0
C783 C 0.67756 0.55704 0.18119 0.0
H784 H 0.60455 0.6364 0.11044 0.0
H785 H 0.5675 0.53795 0.11843 0.0
H786 H 0.68341 0.62151 0.13778 0.0
H787 H 0.68628 0.61794 0.09699 0.0
H788 H 0.66044 0.64912 0.11357 0.0
H789 H 0.60212 0.49225 0.1229 0.0
H790 H 0.64163 0.49734 0.1048 0.0
H791 H 0.63823 0.50092 0.14555 0.0
H792 H 0.74634 0.52941 0.0786 0.0
H793 H 0.7398 0.53429 0.17694 0.0
H794 H 0.67762 0.57427 0.06043 0.0
H795 H 0.66241 0.53319 0.06283 0.0
H796 H 0.70224 0.54088 0.0462 0.0
H797 H 0.66977 0.58312 0.18058 0.0
H798 H 0.69252 0.55299 0.2022 0.0
H799 H 0.65497 0.54187 0.18273 0.0
C800 C 0.92817 0.7462 0.08575 0.0
C801 C 0.95497 0.75566 0.10409 0.0
C802 C 0.91624 0.7139 0.08596 0.0
C803 C 0.93165 0.69013 0.10472 0.0
C804 C 0.95916 0.69926 0.12287 0.0
C805 C 0.97039 0.73201 0.1225 0.0
C806 C 0.88661 0.70541 0.06655 0.0
C807 C 0.97652 0.67448 0.14283 0.0
C808 C 0.87807 0.61843 0.12929 0.0
C809 C 0.88643 0.59413 0.10784 0.0
C810 C 0.89303 0.64947 0.12881 0.0
C811 C 0.91745 0.65639 0.10665 0.0
C812 C 0.92657 0.63177 0.08528 0.0
C813 C 0.91071 0.60099 0.08593 0.0
C814 C 0.88204 0.67516 0.15161 0.0
C815 C 0.953 0.63802 0.06172 0.0
H816 H 0.91611 0.76423 0.07135 0.0
H817 H 0.99134 0.73902 0.13644 0.0
H818 H 0.89253 0.6849 0.05075 0.0
H819 H 0.86621 0.69705 0.08151 0.0
H820 H 0.87791 0.72657 0.0527 0.0
H821 H 0.99864 0.68497 0.15419 0.0
H822 H 0.95954 0.66535 0.1608 0.0
H823 H 0.98404 0.653 0.12886 0.0
H824 H 0.85926 0.61342 0.14624 0.0
H825 H 0.91752 0.58222 0.06949 0.0
H826 H 0.87145 0.69645 0.13921 0.0
H827 H 0.90338 0.68433 0.16499 0.0
H828 H 0.86334 0.66561 0.16787 0.0
H829 H 0.94573 0.65862 0.04653 0.0
H830 H 0.95795 0.61609 0.04729 0.0
H831 H 0.97611 0.6454 0.0734 0.0
C832 C 0.73871 0.91438 0.62399 0.0
C833 C 0.74916 0.94697 0.6202 0.0
C834 C 0.70557 0.90559 0.62079 0.0
C835 C 0.68205 0.92995 0.61357 0.0
C836 C 0.69225 0.96305 0.61019 0.0
C837 C 0.72572 0.9712 0.61361 0.0
C838 C 0.69578 0.87005 0.62482 0.0
C839 C 0.66791 0.98971 0.60251 0.0
C840 C 0.60259 0.89603 0.5797 0.0
C841 C 0.58301 0.89308 0.60601 0.0
C842 C 0.63443 0.90951 0.58148 0.0
C843 C 0.64681 0.92045 0.61019 0.0
C844 C 0.62644 0.91911 0.63643 0.0
C845 C 0.5949 0.90539 0.63404 0.0
C846 C 0.65541 0.91053 0.55297 0.0
C847 C 0.63851 0.93068 0.66743 0.0
H848 H 0.75659 0.89547 0.62913 0.0
H849 H 0.73359 0.99639 0.61038 0.0
H850 H 0.67751 0.86778 0.64358 0.0
H851 H 0.68397 0.86079 0.60353 0.0
H852 H 0.71708 0.85409 0.63031 0.0
H853 H 0.67962 0.01433 0.60132 0.0
H854 H 0.65611 0.98438 0.58006 0.0
H855 H 0.64813 0.99035 0.61998 0.0
H856 H 0.59357 0.88664 0.55797 0.0
H857 H 0.57982 0.90358 0.65446 0.0
H858 H 0.67596 0.89286 0.55534 0.0
H859 H 0.66638 0.93527 0.55 0.0
H860 H 0.64122 0.9042 0.53196 0.0
H861 H 0.65821 0.9141 0.67571 0.0
H862 H 0.61859 0.9311 0.68483 0.0
H863 H 0.64923 0.95566 0.66563 0.0
C864 C 0.61623 0.60989 0.60735 0.0
C865 C 0.59514 0.58263 0.60885 0.0
C866 C 0.60407 0.64198 0.61012 0.0
C867 C 0.56994 0.647 0.61413 0.0
C868 C 0.54845 0.61964 0.61514 0.0
C869 C 0.56133 0.58778 0.61266 0.0
C870 C 0.62778 0.67051 0.60892 0.0
C871 C 0.51186 0.62404 0.61888 0.0
C872 C 0.54081 0.72839 0.64749 0.0
C873 C 0.53216 0.74572 0.62088 0.0
C874 C 0.55319 0.69622 0.64567 0.0
C875 C 0.55669 0.68097 0.61659 0.0
C876 C 0.54787 0.6983 0.58971 0.0
C877 C 0.53587 0.73041 0.59219 0.0
C878 C 0.56274 0.6786 0.67481 0.0
C879 C 0.55085 0.68289 0.55828 0.0
H880 H 0.64241 0.60618 0.60454 0.0
H881 H 0.54486 0.56687 0.61379 0.0
H882 H 0.6214 0.6869 0.58948 0.0
H883 H 0.62585 0.68526 0.63026 0.0
H884 H 0.65365 0.66243 0.60618 0.0
H885 H 0.49846 0.60026 0.61906 0.0
H886 H 0.50664 0.6372 0.64063 0.0
H887 H 0.50208 0.63932 0.59988 0.0
H888 H 0.53812 0.74001 0.66973 0.0
H889 H 0.52931 0.74354 0.57146 0.0
H890 H 0.58905 0.67163 0.67388 0.0
H891 H 0.54832 0.65559 0.67707 0.0
H892 H 0.55866 0.69387 0.69559 0.0
H893 H 0.57599 0.67317 0.55477 0.0
H894 H 0.54532 0.70055 0.53957 0.0
H895 H 0.53359 0.66186 0.5564 0.0
C896 C 0.91131 0.58574 0.5875 0.0
C897 C 0.91744 0.60779 0.61158 0.0
C898 C 0.88044 0.57048 0.58437 0.0
C899 C 0.85508 0.57809 0.60543 0.0
C900 C 0.86126 0.60023 0.62981 0.0
C901 C 0.89241 0.61454 0.63274 0.0
C902 C 0.87482 0.54652 0.55841 0.0
C903 C 0.8347 0.60951 0.65239 0.0
C904 C 0.76585 0.57056 0.58171 0.0
C905 C 0.75566 0.54286 0.59827 0.0
C906 C 0.79838 0.58174 0.58319 0.0
C907 C 0.82147 0.56447 0.60129 0.0
C908 C 0.81165 0.5358 0.61724 0.0
C909 C 0.77872 0.52546 0.61576 0.0
C910 C 0.80772 0.61273 0.56625 0.0
C911 C 0.83577 0.51646 0.63633 0.0
H912 H 0.93065 0.5803 0.57121 0.0
H913 H 0.8969 0.63171 0.65131 0.0
H914 H 0.86524 0.52294 0.5675 0.0
H915 H 0.85601 0.55634 0.54243 0.0
H916 H 0.89763 0.54161 0.54523 0.0
H917 H 0.84369 0.62674 0.67033 0.0
H918 H 0.81395 0.62124 0.64004 0.0
H919 H 0.82491 0.58724 0.66382 0.0
H920 H 0.74817 0.5841 0.56809 0.0
H921 H 0.77106 0.50379 0.62828 0.0
H922 H 0.82899 0.60808 0.55099 0.0
H923 H 0.81529 0.63189 0.58295 0.0
H924 H 0.78717 0.62248 0.55216 0.0
H925 H 0.85786 0.51049 0.62255 0.0
H926 H 0.82495 0.49326 0.64517 0.0
H927 H 0.84405 0.53147 0.65616 0.0
C928 C 0.94152 0.90596 0.63231 0.0
C929 C 0.90898 0.91124 0.6229 0.0
C930 C 0.95394 0.87404 0.6359 0.0
C931 C 0.93323 0.84671 0.63025 0.0
C932 C 0.90032 0.85186 0.62088 0.0
C933 C 0.88866 0.88403 0.61715 0.0
C934 C 0.98929 0.86954 0.64553 0.0
C935 C 0.87743 0.82337 0.61472 0.0
C936 C 0.97176 0.76486 0.60975 0.0
C937 C 0.97055 0.74792 0.63779 0.0
C938 C 0.96003 0.79705 0.6071 0.0
C939 C 0.94628 0.81271 0.63305 0.0
C940 C 0.94482 0.79578 0.66145 0.0
C941 C 0.95722 0.76363 0.66355 0.0
C942 C 0.96254 0.81435 0.57652 0.0
C943 C 0.92991 0.81154 0.68951 0.0
H944 H 0.95741 0.92682 0.6368 0.0
H945 H 0.86343 0.88782 0.61004 0.0
H946 H 0.99052 0.85498 0.66701 0.0
H947 H 0.00273 0.85559 0.62764 0.0
H948 H 0.00209 0.89331 0.64933 0.0
H949 H 0.85223 0.83153 0.60864 0.0
H950 H 0.88713 0.80824 0.59559 0.0
H951 H 0.87601 0.80733 0.63525 0.0
H952 H 0.98217 0.75302 0.58974 0.0
H953 H 0.95608 0.75067 0.68524 0.0
H954 H 0.97865 0.83622 0.57878 0.0
H955 H 0.93801 0.82312 0.56908 0.0
H956 H 0.97266 0.79822 0.55828 0.0
H957 H 0.9433 0.83449 0.69522 0.0
H958 H 0.93049 0.79507 0.70982 0.0
H959 H 0.90402 0.81835 0.68475 0.0
C960 C 0.10457 0.08933 0.91286 0.0
C961 C 0.09386 0.10866 0.88818 0.0
C962 C 0.13644 0.07599 0.91328 0.0
C963 C 0.1582 0.08252 0.88863 0.0
C964 C 0.14733 0.10173 0.86355 0.0
C965 C 0.11531 0.11433 0.86354 0.0
C966 C 0.14694 0.05514 0.94016 0.0
C967 C 0.16987 0.10978 0.83707 0.0
C968 C 0.25024 0.08169 0.90282 0.0
C969 C 0.25979 0.05222 0.88877 0.0
C970 C 0.21724 0.09149 0.90334 0.0
C971 C 0.19299 0.07119 0.88973 0.0
C972 C 0.20236 0.04119 0.87581 0.0
C973 C 0.2357 0.03214 0.87532 0.0
C974 C 0.20838 0.1238 0.91819 0.0
C975 C 0.17715 0.01869 0.86144 0.0
H976 H 0.08806 0.08465 0.93186 0.0
H977 H 0.10735 0.12934 0.8444 0.0
H978 H 0.15419 0.03042 0.93193 0.0
H979 H 0.16874 0.06619 0.95151 0.0
H980 H 0.12714 0.0523 0.95748 0.0
H981 H 0.15733 0.12418 0.81886 0.0
H982 H 0.19125 0.12415 0.84552 0.0
H983 H 0.17956 0.08689 0.82673 0.0
H984 H 0.26866 0.0973 0.91339 0.0
H985 H 0.24283 0.00908 0.86486 0.0
H986 H 0.19009 0.11976 0.93666 0.0
H987 H 0.19691 0.14026 0.90097 0.0
H988 H 0.2301 0.13648 0.92819 0.0
H989 H 0.15814 0.01213 0.8786 0.0
H990 H 0.18826 0.99575 0.85242 0.0
H991 H 0.16452 0.03148 0.84231 0.0
C992 C 0.39412 0.1202 0.84539 0.0
C993 C 0.39676 0.09697 0.86906 0.0
C994 C 0.40804 0.15163 0.8483 0.0
C995 C 0.42525 0.16007 0.87545 0.0
C996 C 0.42902 0.13639 0.89899 0.0
C997 C 0.41463 0.10518 0.89558 0.0
C998 C 0.40326 0.17623 0.82276 0.0
C999 C 0.4474 0.14435 0.92822 0.0
C1000 C 0.47945 0.23665 0.87669 0.0
C1001 C 0.4591 0.25908 0.89192 0.0
C1002 C 0.46879 0.20429 0.87099 0.0
C1003 C 0.4369 0.19443 0.88032 0.0
C1004 C 0.416 0.21738 0.89485 0.0
C1005 C 0.42744 0.24927 0.90068 0.0
C1006 C 0.49191 0.1804 0.85578 0.0
C1007 C 0.38164 0.20812 0.90472 0.0
H1008 H 0.38043 0.11414 0.82478 0.0
H1009 H 0.41696 0.08738 0.91393 0.0
H1010 H 0.38782 0.19681 0.83105 0.0
H1011 H 0.42723 0.18679 0.81574 0.0
H1012 H 0.39125 0.16518 0.80228 0.0
H1013 H 0.45055 0.12247 0.94315 0.0
H1014 H 0.472 0.15458 0.92282 0.0
H1015 H 0.43387 0.16336 0.94131 0.0
H1016 H 0.50408 0.24403 0.87021 0.0
H1017 H 0.41157 0.26657 0.91234 0.0
H1018 H 0.48018 0.16953 0.83512 0.0
H1019 H 0.49742 0.15993 0.87175 0.0
H1020 H 0.51541 0.19218 0.84889 0.0
H1021 H 0.36753 0.19847 0.88484 0.0
H1022 H 0.36805 0.22923 0.91463 0.0
H1023 H 0.38274 0.18831 0.92216 0.0
C1024 C 0.40695 0.41133 0.86578 0.0
C1025 C 0.41938 0.396 0.8922 0.0
C1026 C 0.37456 0.42291 0.86463 0.0
C1027 C 0.35385 0.41871 0.89037 0.0
C1028 C 0.3665 0.40421 0.91747 0.0
C1029 C 0.3992 0.39308 0.91812 0.0
C1030 C 0.36238 0.43951 0.8358 0.0
C1031 C 0.34529 0.40009 0.94558 0.0
C1032 C 0.27574 0.46978 0.89507 0.0
C1033 C 0.25186 0.44723 0.88516 0.0
C1034 C 0.30904 0.46097 0.89686 0.0
C1035 C 0.31875 0.42881 0.88851 0.0
C1036 C 0.29484 0.40617 0.87787 0.0
C1037 C 0.26173 0.41561 0.87641 0.0
C1038 C 0.3332 0.48618 0.90864 0.0
C1039 C 0.30422 0.3718 0.8683 0.0
H1040 H 0.42251 0.41409 0.84578 0.0
H1041 H 0.40864 0.38128 0.9386 0.0
H1042 H 0.34136 0.42556 0.82607 0.0
H1043 H 0.35341 0.46452 0.8414 0.0
H1044 H 0.38179 0.44155 0.81801 0.0
H1045 H 0.35884 0.38868 0.96498 0.0
H1046 H 0.33591 0.42438 0.95306 0.0
H1047 H 0.32367 0.38454 0.93998 0.0
H1048 H 0.2684 0.49417 0.90219 0.0
H1049 H 0.24348 0.39803 0.86865 0.0
H1050 H 0.32725 0.51075 0.89917 0.0
H1051 H 0.35906 0.48046 0.90285 0.0
H1052 H 0.33103 0.48764 0.934 0.0
H1053 H 0.32248 0.37282 0.84944 0.0
H1054 H 0.28273 0.35719 0.86043 0.0
H1055 H 0.31595 0.35885 0.88785 0.0
C1056 C 0.1023 0.39347 0.91708 0.0
C1057 C 0.10445 0.40949 0.88865 0.0
C1058 C 0.08919 0.36159 0.91927 0.0
C1059 C 0.07827 0.34528 0.89237 0.0
C1060 C 0.0794 0.36173 0.86381 0.0
C1061 C 0.09235 0.39364 0.86231 0.0
C1062 C 0.08798 0.34499 0.95023 0.0
C1063 C 0.06816 0.34515 0.83458 0.0
C1064 C 0.08268 0.25223 0.89357 0.0
C1065 C 0.0497 0.24352 0.89755 0.0
C1066 C 0.09212 0.28524 0.89107 0.0
C1067 C 0.06807 0.31017 0.89372 0.0
C1068 C 0.03464 0.30145 0.89779 0.0
C1069 C 0.02576 0.2681 0.89916 0.0
C1070 C 0.1279 0.29344 0.88595 0.0
C1071 C 0.00845 0.32729 0.90162 0.0
H1072 H 0.11141 0.40557 0.93757 0.0
H1073 H 0.09375 0.40582 0.84024 0.0
H1074 H 0.06305 0.33494 0.95453 0.0
H1075 H 0.10533 0.32404 0.95058 0.0
H1076 H 0.09455 0.362 0.96924 0.0
H1077 H 0.06877 0.36198 0.81454 0.0
H1078 H 0.08423 0.32382 0.82965 0.0
H1079 H 0.04279 0.33562 0.83726 0.0
H1080 H 0.10114 0.23311 0.89239 0.0
H1081 H 1.0003 0.26127 0.90282 0.0
H1082 H 0.13755 0.30766 0.90574 0.0
H1083 H 0.13059 0.30905 0.86524 0.0
H1084 H 0.14323 0.27114 0.88299 0.0
H1085 H 0.01395 0.34251 0.92214 0.0
H1086 H 0.98356 0.31643 0.90432 0.0
H1087 H 0.00827 0.34395 0.8815 0.0
C1088 C 0.69601 0.21038 0.38927 0.0
C1089 C 0.66564 0.22659 0.38813 0.0
C1090 C 0.72556 0.228 0.39007 0.0
C1091 C 0.72479 0.2627 0.38929 0.0
C1092 C 0.69437 0.27921 0.38639 0.0
C1093 C 0.66506 0.26093 0.38602 0.0
C1094 C 0.75748 0.20947 0.39344 0.0
C1095 C 0.6927 0.31621 0.38507 0.0
C1096 C 0.79573 0.3047 0.42973 0.0
C1097 C 0.81659 0.31242 0.40518 0.0
C1098 C 0.7654 0.2893 0.42473 0.0
C1099 C 0.75562 0.28148 0.39439 0.0
C1100 C 0.77619 0.28982 0.3694 0.0
C1101 C 0.80653 0.30516 0.3751 0.0
C1102 C 0.74418 0.28074 0.45203 0.0
C1103 C 0.76638 0.28205 0.33675 0.0
H1104 H 0.69677 0.18384 0.39081 0.0
H1105 H 0.64171 0.27362 0.38496 0.0
H1106 H 0.77522 0.21735 0.3756 0.0
H1107 H 0.76866 0.21509 0.41611 0.0
H1108 H 0.75401 0.18247 0.39167 0.0
H1109 H 0.66767 0.32507 0.37923 0.0
H1110 H 0.69983 0.32662 0.40767 0.0
H1111 H 0.71028 0.32584 0.36784 0.0
H1112 H 0.80318 0.31041 0.45304 0.0
H1113 H 0.82243 0.31129 0.356 0.0
H1114 H 0.74105 0.25371 0.45345 0.0
H1115 H 0.71937 0.29156 0.44928 0.0
H1116 H 0.75483 0.2896 0.47403 0.0
H1117 H 0.76487 0.25506 0.33359 0.0
H1118 H 0.78408 0.29212 0.31979 0.0
H1119 H 0.74165 0.29216 0.33177 0.0
C1120 C 0.28039 0.68168 0.37335 0.0
C1121 C 0.26237 0.66418 0.39535 0.0
C1122 C 0.2781 0.71581 0.37142 0.0
C1123 C 0.25661 0.73254 0.39142 0.0
C1124 C 0.237 0.71487 0.41259 0.0
C1125 C 0.24044 0.68076 0.41456 0.0
C1126 C 0.29985 0.73404 0.34908 0.0
C1127 C 0.21329 0.73205 0.43386 0.0
C1128 C 0.27115 0.82129 0.41243 0.0
C1129 C 0.24797 0.83697 0.39384 0.0
C1130 C 0.27513 0.78721 0.41111 0.0
C1131 C 0.25525 0.76867 0.39079 0.0
C1132 C 0.23314 0.78454 0.37072 0.0
C1133 C 0.23003 0.81864 0.37223 0.0
C1134 C 0.29958 0.77097 0.43229 0.0
C1135 C 0.21122 0.76539 0.3491 0.0
H1136 H 0.29775 0.66895 0.35874 0.0
H1137 H 0.2266 0.66716 0.4316 0.0
H1138 H 0.28492 0.75039 0.33427 0.0
H1139 H 0.31735 0.74983 0.36195 0.0
H1140 H 0.31412 0.71717 0.33417 0.0
H1141 H 0.19804 0.71446 0.44716 0.0
H1142 H 0.22711 0.74769 0.45029 0.0
H1143 H 0.19676 0.74839 0.42057 0.0
H1144 H 0.28528 0.83549 0.42879 0.0
H1145 H 0.2119 0.83058 0.35783 0.0
H1146 H 0.31747 0.75649 0.4187 0.0
H1147 H 0.28678 0.75363 0.44785 0.0
H1148 H 0.31322 0.7891 0.44651 0.0
H1149 H 0.226 0.7484 0.33483 0.0
H1150 H 0.19685 0.78165 0.33366 0.0
H1151 H 0.1938 0.75021 0.36261 0.0
C1152 C 0.31046 0.72352 0.12643 0.0
C1153 C 0.33074 0.72472 0.10051 0.0
C1154 C 0.28211 0.74288 0.12808 0.0
C1155 C 0.2745 0.76427 0.1035 0.0
C1156 C 0.29586 0.76678 0.07803 0.0
C1157 C 0.32353 0.7466 0.07667 0.0
C1158 C 0.25944 0.73913 0.15526 0.0
C1159 C 0.28883 0.78978 0.05163 0.0
C1160 C 0.18685 0.78446 0.08327 0.0
C1161 C 0.18369 0.81599 0.09553 0.0
C1162 C 0.21586 0.76669 0.08713 0.0
C1163 C 0.24261 0.78146 0.1027 0.0
C1164 C 0.23936 0.81323 0.11555 0.0
C1165 C 0.20953 0.83001 0.11222 0.0
C1166 C 0.21813 0.73251 0.0738 0.0
C1167 C 0.26778 0.83001 0.13145 0.0
H1168 H 0.31601 0.70653 0.14485 0.0
H1169 H 0.33931 0.74768 0.05668 0.0
H1170 H 0.25319 0.76348 0.165 0.0
H1171 H 0.23612 0.72752 0.14765 0.0
H1172 H 0.27038 0.72376 0.17367 0.0
H1173 H 0.30978 0.7915 0.03539 0.0
H1174 H 0.26697 0.78102 0.03876 0.0
H1175 H 0.28319 0.81474 0.06034 0.0
H1176 H 0.16656 0.77371 0.0706 0.0
H1177 H 0.20689 0.8546 0.12143 0.0
H1178 H 0.2273 0.71507 0.09137 0.0
H1179 H 0.23589 0.73235 0.05451 0.0
H1180 H 0.19407 0.7235 0.06511 0.0
H1181 H 0.2782 0.81391 0.14951 0.0
H1182 H 0.26049 0.8537 0.14207 0.0
H1183 H 0.28759 0.83483 0.11457 0.0
C1184 C 0.78418 0.31619 0.12971 0.0
C1185 C 0.76437 0.33419 0.10941 0.0
C1186 C 0.78127 0.28213 0.13175 0.0
C1187 C 0.75733 0.266 0.11375 0.0
C1188 C 0.73574 0.28421 0.09478 0.0
C1189 C 0.73981 0.31824 0.09254 0.0
C1190 C 0.8051 0.26332 0.15171 0.0
C1191 C 0.7093 0.26763 0.07591 0.0
C1192 C 0.7676 0.17787 0.08923 0.0
C1193 C 0.74595 0.16204 0.10928 0.0
C1194 C 0.7728 0.21175 0.09133 0.0
C1195 C 0.75561 0.22992 0.11384 0.0
C1196 C 0.73546 0.21378 0.13544 0.0
C1197 C 0.73116 0.17987 0.13311 0.0
C1198 C 0.79534 0.22826 0.06851 0.0
C1199 C 0.7167 0.23253 0.15966 0.0
H1200 H 0.80346 0.32837 0.14262 0.0
H1201 H 0.72453 0.3322 0.07689 0.0
H1202 H 0.79176 0.24616 0.16704 0.0
H1203 H 0.82145 0.24832 0.13696 0.0
H1204 H 0.8206 0.2798 0.16603 0.0
H1205 H 0.69292 0.2856 0.06437 0.0
H1206 H 0.72078 0.25196 0.05807 0.0
H1207 H 0.69413 0.2514 0.09066 0.0
H1208 H 0.77941 0.16406 0.07115 0.0
H1209 H 0.71443 0.16777 0.14882 0.0
H1210 H 0.81363 0.24381 0.08066 0.0
H1211 H 0.78085 0.2446 0.0533 0.0
H1212 H 0.80862 0.21024 0.05397 0.0
H1213 H 0.7334 0.24904 0.17264 0.0
H1214 H 0.70412 0.21598 0.17617 0.0
H1215 H 0.69793 0.2482 0.14843 0.0
C1216 C 0.17693 0.77246 0.5903 0.0
C1217 C 0.16282 0.74252 0.59855 0.0
C1218 C 0.21066 0.77448 0.5842 0.0
C1219 C 0.22999 0.74561 0.58554 0.0
C1220 C 0.21537 0.71507 0.59244 0.0
C1221 C 0.18203 0.71404 0.59948 0.0
C1222 C 0.22575 0.80747 0.57712 0.0
C1223 C 0.235 0.68363 0.59296 0.0
C1224 C 0.31528 0.75036 0.55176 0.0
C1225 C 0.33409 0.75636 0.57821 0.0
C1226 C 0.28127 0.74567 0.55377 0.0
C1227 C 0.26598 0.74775 0.58282 0.0
C1228 C 0.285 0.75229 0.60967 0.0
C1229 C 0.31894 0.75615 0.60706 0.0
C1230 C 0.26169 0.73981 0.52477 0.0
C1231 C 0.26936 0.75457 0.64106 0.0
H1232 H 0.16173 0.79425 0.58922 0.0
H1233 H 0.17085 0.69075 0.60529 0.0
H1234 H 0.24449 0.81367 0.59474 0.0
H1235 H 0.23843 0.8066 0.55462 0.0
H1236 H 0.20713 0.82736 0.57652 0.0
H1237 H 0.21904 0.66152 0.59437 0.0
H1238 H 0.25041 0.68171 0.57207 0.0
H1239 H 0.25177 0.68369 0.61305 0.0
H1240 H 0.32683 0.75062 0.52938 0.0
H1241 H 0.33335 0.76068 0.62759 0.0
H1242 H 0.24765 0.76226 0.51892 0.0
H1243 H 0.24369 0.71962 0.52806 0.0
H1244 H 0.27773 0.7336 0.50499 0.0
H1245 H 0.2519 0.77545 0.64162 0.0
H1246 H 0.28777 0.7581 0.65963 0.0
H1247 H 0.25512 0.73194 0.64598 0.0
C1248 C 0.76882 0.17693 0.61736 0.0
C1249 C 0.79559 0.17968 0.59735 0.0
C1250 C 0.74641 0.20284 0.62062 0.0
C1251 C 0.75145 0.23226 0.60396 0.0
C1252 C 0.77932 0.2356 0.5848 0.0
C1253 C 0.80086 0.20911 0.58149 0.0
C1254 C 0.71665 0.19825 0.64079 0.0
C1255 C 0.7859 0.2668 0.56708 0.0
C1256 C 0.68164 0.28766 0.57996 0.0
C1257 C 0.68486 0.31361 0.60085 0.0
C1258 C 0.70202 0.2601 0.58183 0.0
C1259 C 0.72666 0.25887 0.60478 0.0
C1260 C 0.7292 0.28445 0.62669 0.0
C1261 C 0.70796 0.31147 0.62465 0.0
C1262 C 0.69815 0.23302 0.55838 0.0
C1263 C 0.75559 0.28425 0.65109 0.0
H1264 H 0.76468 0.15408 0.6295 0.0
H1265 H 0.82178 0.21138 0.56625 0.0
H1266 H 0.71463 0.21877 0.65742 0.0
H1267 H 0.69411 0.19856 0.62642 0.0
H1268 H 0.7174 0.17474 0.65368 0.0
H1269 H 0.81015 0.26642 0.5554 0.0
H1270 H 0.76654 0.27031 0.54943 0.0
H1271 H 0.78509 0.28833 0.58267 0.0
H1272 H 0.66358 0.28922 0.56169 0.0
H1273 H 0.71062 0.33168 0.64068 0.0
H1274 H 0.69693 0.20878 0.56994 0.0
H1275 H 0.71981 0.2327 0.54297 0.0
H1276 H 0.67574 0.23615 0.54409 0.0
H1277 H 0.75567 0.26048 0.66348 0.0
H1278 H 0.75239 0.30439 0.66803 0.0
H1279 H 0.78001 0.28706 0.6401 0.0
C1280 C 0.83012 0.27122 0.91103 0.0
C1281 C 0.84157 0.24339 0.89561 0.0
C1282 C 0.79658 0.27879 0.91115 0.0
C1283 C 0.77432 0.25769 0.89574 0.0
C1284 C 0.78597 0.23057 0.8788 0.0
C1285 C 0.81957 0.22395 0.87865 0.0
C1286 C 0.78484 0.30839 0.92888 0.0
C1287 C 0.76282 0.20735 0.86241 0.0
C1288 C 0.6873 0.2534 0.92534 0.0
C1289 C 0.67066 0.27203 0.90332 0.0
C1290 C 0.72119 0.24836 0.92307 0.0
C1291 C 0.73865 0.26289 0.89848 0.0
C1292 C 0.72194 0.28152 0.87606 0.0
C1293 C 0.688 0.28559 0.87857 0.0
C1294 C 0.73829 0.22774 0.94706 0.0
C1295 C 0.74001 0.29765 0.8498 0.0
H1296 H 0.84724 0.28647 0.92367 0.0
H1297 H 0.82826 0.20225 0.86677 0.0
H1298 H 0.76828 0.32354 0.91445 0.0
H1299 H 0.77053 0.30026 0.94916 0.0
H1300 H 0.80555 0.32398 0.93698 0.0
H1301 H 0.77608 0.18843 0.8489 0.0
H1302 H 0.747 0.19473 0.87946 0.0
H1303 H 0.74639 0.22112 0.84671 0.0
H1304 H 0.67389 0.24304 0.94447 0.0
H1305 H 0.67526 0.30047 0.86172 0.0
H1306 H 0.75703 0.24271 0.95922 0.0
H1307 H 0.75132 0.20701 0.93592 0.0
H1308 H 0.72091 0.21761 0.96429 0.0
H1309 H 0.759 0.31466 0.85892 0.0
H1310 H 0.72331 0.31166 0.83447 0.0
H1311 H 0.7529 0.27884 0.83591 0.0
C1312 C 0.27394 0.81094 0.928 0.0
C1313 C 0.28336 0.82916 0.90217 0.0
C1314 C 0.25882 0.78025 0.92478 0.0
C1315 C 0.25274 0.7677 0.89501 0.0
C1316 C 0.26139 0.78632 0.86883 0.0
C1317 C 0.27677 0.81685 0.87273 0.0
C1318 C 0.25008 0.76096 0.95326 0.0
C1319 C 0.25494 0.77371 0.83677 0.0
C1320 C 0.244 0.67537 0.88972 0.0
C1321 C 0.20979 0.67161 0.89061 0.0
C1322 C 0.25836 0.70666 0.89025 0.0
C1323 C 0.23794 0.73471 0.89143 0.0
C1324 C 0.20339 0.73112 0.89099 0.0
C1325 C 0.18971 0.69956 0.89064 0.0
C1326 C 0.29535 0.70968 0.89089 0.0
C1327 C 0.18089 0.76053 0.89212 0.0
H1328 H 0.27911 0.82026 0.95082 0.0
H1329 H 0.28397 0.8309 0.85271 0.0
H1330 H 0.22355 0.75469 0.9531 0.0
H1331 H 0.26391 0.73752 0.95357 0.0
H1332 H 0.25571 0.77464 0.97471 0.0
H1333 H 0.26181 0.79187 0.81887 0.0
H1334 H 0.26912 0.75087 0.83283 0.0
H1335 H 0.22856 0.76745 0.83401 0.0
H1336 H 0.25964 0.65386 0.88977 0.0
H1337 H 0.16322 0.69682 0.89118 0.0
H1338 H 0.30329 0.72058 0.91306 0.0
H1339 H 0.30383 0.72638 0.87241 0.0
H1340 H 0.30771 0.68558 0.88807 0.0
H1341 H 0.18396 0.77343 0.91439 0.0
H1342 H 0.15463 0.75359 0.88947 0.0
H1343 H 0.18743 0.77821 0.87374 0.0
C1344 C 0.71108 0.08545 0.41957 0.0
C1345 C 0.6785 0.08368 0.43002 0.0
C1346 C 0.73739 0.07563 0.43827 0.0
C1347 C 0.731 0.06326 0.46801 0.0
C1348 C 0.69809 0.05951 0.478 0.0
C1349 C 0.67223 0.06994 0.45896 0.0
C1350 C 0.77209 0.08045 0.42692 0.0
C1351 C 0.69024 0.04613 0.50948 0.0
C1352 C 0.79773 0.02071 0.51473 0.0
C1353 C 0.80684 0.04573 0.53522 0.0
C1354 C 0.77365 0.02622 0.49208 0.0
C1355 C 0.75862 0.05747 0.48981 0.0
C1356 C 0.76907 0.08322 0.50937 0.0
C1357 C 0.79295 0.07699 0.53178 0.0
C1358 C 0.76315 0.9982 0.47159 0.0
C1359 C 0.75399 0.11705 0.50764 0.0
H1360 H 0.71628 0.09615 0.39733 0.0
H1361 H 0.64716 0.06842 0.46721 0.0
H1362 H 0.78408 0.10038 0.44026 0.0
H1363 H 0.78674 0.05784 0.43049 0.0
H1364 H 0.7729 0.08708 0.4022 0.0
H1365 H 0.66354 0.04155 0.51256 0.0
H1366 H 0.70367 0.02286 0.51354 0.0
H1367 H 0.69843 0.06389 0.52726 0.0
H1368 H 0.80812 0.9964 0.51738 0.0
H1369 H 0.79982 0.09637 0.54755 0.0
H1370 H 0.76362 0.00587 0.44717 0.0
H1371 H 0.73749 0.99112 0.47707 0.0
H1372 H 0.77908 0.9763 0.47441 0.0
H1373 H 0.75532 0.1266 0.48383 0.0
H1374 H 0.76635 0.13485 0.52322 0.0
H1375 H 0.72764 0.11569 0.514 0.0
C1376 C 0.42931 0.78806 0.49775 0.0
C1377 C 0.45504 0.7795 0.51755 0.0
C1378 C 0.41541 0.76459 0.47767 0.0
C1379 C 0.42821 0.73218 0.47685 0.0
C1380 C 0.45582 0.72438 0.49522 0.0
C1381 C 0.46851 0.74793 0.51562 0.0
C1382 C 0.38527 0.77364 0.45941 0.0
C1383 C 0.47075 0.69048 0.49479 0.0
C1384 C 0.37328 0.65929 0.45603 0.0
C1385 C 0.38155 0.65373 0.42521 0.0
C1386 C 0.38758 0.68525 0.47278 0.0
C1387 C 0.41146 0.70569 0.45868 0.0
C1388 C 0.42023 0.69985 0.4277 0.0
C1389 C 0.4049 0.67426 0.41126 0.0
C1390 C 0.37709 0.69072 0.50561 0.0
C1391 C 0.44602 0.7205 0.41199 0.0
H1392 H 0.41815 0.8121 0.49993 0.0
H1393 H 0.488 0.74109 0.53132 0.0
H1394 H 0.38806 0.76619 0.43506 0.0
H1395 H 0.36377 0.76019 0.46875 0.0
H1396 H 0.38003 0.80038 0.46037 0.0
H1397 H 0.49448 0.68957 0.50737 0.0
H1398 H 0.4536 0.67279 0.50564 0.0
H1399 H 0.47487 0.68223 0.47083 0.0
H1400 H 0.35491 0.64388 0.46687 0.0
H1401 H 0.41136 0.67019 0.38743 0.0
H1402 H 0.37204 0.71708 0.50975 0.0
H1403 H 0.39727 0.68343 0.52132 0.0
H1404 H 0.35481 0.6763 0.51163 0.0
H1405 H 0.43858 0.74668 0.41215 0.0
H1406 H 0.45021 0.71278 0.38785 0.0
H1407 H 0.4696 0.71877 0.42472 0.0
C1408 C 0.8069 0.42754 0.42643 0.0
C1409 C 0.83975 0.427 0.43623 0.0
C1410 C 0.78149 0.43559 0.44674 0.0
C1411 C 0.78914 0.44407 0.47745 0.0
C1412 C 0.82242 0.44583 0.48691 0.0
C1413 C 0.84736 0.43685 0.46627 0.0
C1414 C 0.74633 0.43257 0.43592 0.0
C1415 C 0.83157 0.45529 0.51934 0.0
C1416 C 0.71984 0.47849 0.52661 0.0
C1417 C 0.70979 0.45043 0.5427 0.0
C1418 C 0.74622 0.47711 0.50577 0.0
C1419 C 0.76227 0.44681 0.50042 0.0
C1420 C 0.75189 0.41835 0.5163 0.0
C1421 C 0.72604 0.42057 0.53731 0.0
C1422 C 0.75695 0.508 0.48952 0.0
C1423 C 0.76792 0.38537 0.51095 0.0
H1424 H 0.80073 0.41967 0.40335 0.0
H1425 H 0.8727 0.43654 0.47394 0.0
H1426 H 0.73452 0.41126 0.44735 0.0
H1427 H 0.73214 0.45475 0.44227 0.0
H1428 H 0.74458 0.42897 0.41068 0.0
H1429 H 0.85833 0.46004 0.52183 0.0
H1430 H 0.81795 0.47755 0.52658 0.0
H1431 H 0.82465 0.43517 0.53524 0.0
H1432 H 0.70738 0.50156 0.5305 0.0
H1433 H 0.7184 0.3986 0.54941 0.0
H1434 H 0.75379 0.50501 0.46437 0.0
H1435 H 0.78344 0.51258 0.49384 0.0
H1436 H 0.74281 0.52985 0.49709 0.0
H1437 H 0.76556 0.37829 0.48643 0.0
H1438 H 0.75688 0.36562 0.52521 0.0
H1439 H 0.79453 0.38685 0.51628 0.0
C1440 C 0.04454 0.74783 0.53509 0.0
C1441 C 0.05509 0.71532 0.53832 0.0
C1442 C 0.05982 0.76935 0.51445 0.0
C1443 C 0.08686 0.75831 0.49689 0.0
C1444 C 0.097 0.72507 0.49928 0.0
C1445 C 0.08081 0.70384 0.51991 0.0
C1446 C 0.04782 0.80435 0.51243 0.0
C1447 C 0.12613 0.71238 0.48152 0.0
C1448 C 0.10897 0.81129 0.42805 0.0
C1449 C 0.13316 0.83214 0.4403 0.0
C1450 C 0.09437 0.78658 0.44592 0.0
C1451 C 0.10462 0.78208 0.4767 0.0
C1452 C 0.12993 0.80228 0.48887 0.0
C1453 C 0.14361 0.82736 0.47066 0.0
C1454 C 0.0674 0.76577 0.4321 0.0
C1455 C 0.14228 0.79764 0.52124 0.0
H1456 H 0.02499 0.75683 0.5497 0.0
H1457 H 0.08959 0.67895 0.523 0.0
H1458 H 0.0673 0.82133 0.52064 0.0
H1459 H 0.0424 0.81082 0.4882 0.0
H1460 H 0.02538 0.80853 0.52634 0.0
H1461 H 0.1268 0.68513 0.48116 0.0
H1462 H 0.12589 0.72151 0.45753 0.0
H1463 H 0.14907 0.72139 0.49249 0.0
H1464 H 0.10089 0.81473 0.40455 0.0
H1465 H 0.16274 0.84297 0.48007 0.0
H1466 H 0.04414 0.76992 0.44476 0.0
H1467 H 0.07356 0.73936 0.43437 0.0
H1468 H 0.06322 0.77137 0.40745 0.0
H1469 H 0.12245 0.8035 0.53778 0.0
H1470 H 0.16386 0.81346 0.52644 0.0
H1471 H 0.14927 0.77163 0.52496 0.0
C1472 C 0.27308 0.98656 0.9547 0.0
C1473 C 0.30107 0.96749 0.96004 0.0
C1474 C 0.2454 0.98414 0.97375 0.0
C1475 C 0.24569 0.96183 0.99867 0.0
C1476 C 0.27465 0.94378 0.00512 0.0
C1477 C 0.30191 0.9466 0.9855 0.0
C1478 C 0.21507 0.00356 0.96566 0.0
C1479 C 0.27611 0.91979 0.03149 0.0
C1480 C 0.18087 0.963 0.06154 0.0
C1481 C 0.16023 0.93707 0.05253 0.0
C1482 C 0.20796 0.97236 0.04355 0.0
C1483 C 0.21497 0.95496 0.0162 0.0
C1484 C 0.19348 0.92959 0.0064 0.0
C1485 C 0.16623 0.92115 0.02453 0.0
C1486 C 0.22984 0.99998 0.05443 0.0
C1487 C 0.20016 0.91024 0.97748 0.0
H1488 H 0.27189 0.00158 0.93434 0.0
H1489 H 0.32318 0.93107 0.98903 0.0
H1490 H 0.19662 0.98696 0.95504 0.0
H1491 H 0.20378 0.01435 0.98651 0.0
H1492 H 0.22053 0.02361 0.94914 0.0
H1493 H 0.30132 0.91022 0.03529 0.0
H1494 H 0.26749 0.9316 0.05297 0.0
H1495 H 0.25953 0.89873 0.02672 0.0
H1496 H 0.17635 0.97542 0.08314 0.0
H1497 H 0.15065 0.90085 0.01756 0.0
H1498 H 0.23342 0.01816 0.03578 0.0
H1499 H 0.2544 0.99014 0.0605 0.0
H1500 H 0.21961 0.01276 0.07481 0.0
H1501 H 0.20283 0.92707 0.95763 0.0
H1502 H 0.18034 0.89227 0.97231 0.0
H1503 H 0.22365 0.8967 0.97992 0.0
C1504 C 0.63406 0.16618 0.03616 0.0
C1505 C 0.62061 0.15675 0.06441 0.0
C1506 C 0.6196 0.19133 0.01866 0.0
C1507 C 0.5906 0.20683 0.02933 0.0
C1508 C 0.57658 0.19684 0.05752 0.0
C1509 C 0.59195 0.17221 0.07486 0.0
C1510 C 0.63565 0.20172 0.989 0.0
C1511 C 0.54533 0.21218 0.06936 0.0
C1512 C 0.56939 0.29011 0.9946 0.0
C1513 C 0.54835 0.28078 0.97069 0.0
C1514 C 0.58273 0.26638 0.01453 0.0
C1515 C 0.5744 0.23278 0.01052 0.0
C1516 C 0.55155 0.22371 0.98748 0.0
C1517 C 0.53906 0.24779 0.96772 0.0
C1518 C 0.60728 0.27699 0.0386 0.0
C1519 C 0.54165 0.18834 0.98254 0.0
H1520 H 0.65644 0.1546 0.0282 0.0
H1521 H 0.58142 0.16493 0.09667 0.0
H1522 H 0.61838 0.19817 0.96955 0.0
H1523 H 0.64173 0.22826 0.99004 0.0
H1524 H 0.65851 0.18778 0.9842 0.0
H1525 H 0.5374 0.20143 0.09158 0.0
H1526 H 0.54886 0.23899 0.07245 0.0
H1527 H 0.52528 0.2088 0.05234 0.0
H1528 H 0.57726 0.3155 0.99632 0.0
H1529 H 0.52312 0.24059 0.94887 0.0
H1530 H 0.63185 0.26698 0.03285 0.0
H1531 H 0.60036 0.26701 0.06138 0.0
H1532 H 0.60926 0.30413 0.04033 0.0
H1533 H 0.56308 0.17415 0.97419 0.0
H1534 H 0.52143 0.18581 0.96552 0.0
H1535 H 0.53368 0.17713 0.00451 0.0
C1536 C 0.2477 0.54558 0.95297 0.0
C1537 C 0.21702 0.54029 0.96664 0.0
C1538 C 0.27579 0.55174 0.97082 0.0
C1539 C 0.27299 0.55338 0.00317 0.0
C1540 C 0.24224 0.5466 0.01717 0.0
C1541 C 0.21458 0.53992 0.99867 0.0
C1542 C 0.30805 0.55849 0.95497 0.0
C1543 C 0.23794 0.54901 0.05149 0.0
C1544 C 0.34933 0.55581 0.05425 0.0
C1545 C 0.35399 0.58969 0.05806 0.0
C1546 C 0.3236 0.54355 0.03581 0.0
C1547 C 0.30124 0.56568 0.02194 0.0
C1548 C 0.30588 0.59994 0.02583 0.0
C1549 C 0.3325 0.61149 0.04335 0.0
C1550 C 0.32022 0.50697 0.03128 0.0
C1551 C 0.28224 0.62447 0.01212 0.0
H1552 H 0.24933 0.54658 0.92813 0.0
H1553 H 0.19064 0.5368 0.00916 0.0
H1554 H 0.31624 0.58396 0.9598 0.0
H1555 H 0.32727 0.5418 0.96399 0.0
H1556 H 0.30625 0.55542 0.9297 0.0
H1557 H 0.21343 0.54008 0.05901 0.0
H1558 H 0.25716 0.53468 0.06353 0.0
H1559 H 0.24072 0.575 0.05873 0.0
H1560 H 0.36585 0.53891 0.06567 0.0
H1561 H 0.33563 0.6377 0.04667 0.0
H1562 H 0.3203 0.50107 0.00639 0.0
H1563 H 0.29639 0.49838 0.04065 0.0
H1564 H 0.34032 0.49311 0.04264 0.0
H1565 H 0.28194 0.62216 0.98675 0.0
H1566 H 0.28871 0.65019 0.01814 0.0
H1567 H 0.25695 0.61936 0.02033 0.0
C1568 C 0.90115 0.31242 0.07754 0.0
C1569 C 0.8795 0.33451 0.06328 0.0
C1570 C 0.91584 0.28668 0.06107 0.0
C1571 C 0.9085 0.28253 0.02955 0.0
C1572 C 0.88644 0.30458 0.01505 0.0
C1573 C 0.87237 0.33042 0.03201 0.0
C1574 C 0.93936 0.26397 0.07739 0.0
C1575 C 0.87735 0.30062 0.98168 0.0
C1576 C 0.96797 0.23823 0.97654 0.0
C1577 C 0.95284 0.20756 0.97297 0.0
C1578 C 0.95448 0.26235 0.99577 0.0
C1579 C 0.92473 0.25584 0.0115 0.0
C1580 C 0.91003 0.22432 0.00892 0.0
C1581 C 0.9243 0.20051 0.98964 0.0
C1582 C 0.9711 0.29546 0.99781 0.0
C1583 C 0.87813 0.21641 0.02494 0.0
H1584 H 0.90681 0.31531 0.10172 0.0
H1585 H 0.85534 0.34706 0.02091 0.0
H1586 H 0.93051 0.23826 0.07562 0.0
H1587 H 0.96382 0.26505 0.06623 0.0
H1588 H 0.9423 0.2703 0.10205 0.0
H1589 H 0.86048 0.32021 0.9736 0.0
H1590 H 0.89975 0.30093 0.96721 0.0
H1591 H 0.86521 0.27649 0.97824 0.0
H1592 H 0.9895 0.24398 0.96289 0.0
H1593 H 0.91199 0.1772 0.98606 0.0
H1594 H 0.97499 0.30239 0.02219 0.0
H1595 H 0.9551 0.31443 0.98735 0.0
H1596 H 0.99518 0.29584 0.98584 0.0
H1597 H 0.87932 0.22366 0.04947 0.0
H1598 H 0.87189 0.18989 0.0235 0.0
H1599 H 0.85793 0.23061 0.01421 0.0
C1600 C 0.34046 0.8706 0.52857 0.0
C1601 C 0.34505 0.87647 0.55999 0.0
C1602 C 0.31455 0.88556 0.51242 0.0
C1603 C 0.29303 0.90734 0.52789 0.0
C1604 C 0.29803 0.91384 0.55947 0.0
C1605 C 0.32378 0.89816 0.57517 0.0
C1606 C 0.30959 0.87732 0.47898 0.0
C1607 C 0.27589 0.93706 0.57676 0.0
C1608 C 0.24637 0.96634 0.47625 0.0
C1609 C 0.21604 0.95042 0.473 0.0
C1610 C 0.27111 0.95339 0.49517 0.0
C1611 C 0.26552 0.92347 0.51089 0.0
C1612 C 0.23426 0.90812 0.50878 0.0
C1613 C 0.20986 0.9218 0.48978 0.0
C1614 C 0.30391 0.97068 0.49679 0.0
C1615 C 0.22726 0.8761 0.52489 0.0
H1616 H 0.35643 0.85344 0.51682 0.0
H1617 H 0.32713 0.90276 0.59949 0.0
H1618 H 0.28502 0.86599 0.47587 0.0
H1619 H 0.3102 0.90001 0.46492 0.0
H1620 H 0.32847 0.86006 0.47019 0.0
H1621 H 0.2835 0.94012 0.6011 0.0
H1622 H 0.27593 0.9615 0.56553 0.0
H1623 H 0.25025 0.92777 0.5762 0.0
H1624 H 0.25141 0.98799 0.46253 0.0
H1625 H 0.18675 0.90898 0.48652 0.0
H1626 H 0.32287 0.95545 0.48536 0.0
H1627 H 0.31159 0.97397 0.52105 0.0
H1628 H 0.30334 0.99511 0.48546 0.0
H1629 H 0.24076 0.85602 0.51325 0.0
H1630 H 0.20066 0.86993 0.52472 0.0
H1631 H 0.23592 0.87704 0.54903 0.0
C1632 C 0.54492 0.33012 0.56968 0.0
C1633 C 0.56864 0.35298 0.5602 0.0
C1634 C 0.53545 0.30396 0.55055 0.0
C1635 C 0.55035 0.30038 0.5214 0.0
C1636 C 0.57227 0.32488 0.51073 0.0
C1637 C 0.581 0.35101 0.53019 0.0
C1638 C 0.5114 0.27881 0.56247 0.0
C1639 C 0.58866 0.32208 0.47977 0.0
C1640 C 0.56939 0.21492 0.49211 0.0
C1641 C 0.54712 0.21137 0.4677 0.0
C1642 C 0.56984 0.2433 0.51031 0.0
C1643 C 0.54718 0.26884 0.50426 0.0
C1644 C 0.52329 0.26469 0.48086 0.0
C1645 C 0.52361 0.23601 0.46278 0.0
C1646 C 0.59588 0.24666 0.53492 0.0
C1647 C 0.4986 0.29122 0.47366 0.0
H1648 H 0.53496 0.33165 0.5927 0.0
H1649 H 0.59927 0.36858 0.52255 0.0
H1650 H 0.493 0.27253 0.54457 0.0
H1651 H 0.52475 0.25595 0.5684 0.0
H1652 H 0.49834 0.28759 0.58329 0.0
H1653 H 0.60201 0.34489 0.4734 0.0
H1654 H 0.6065 0.30152 0.4802 0.0
H1655 H 0.57025 0.31653 0.46169 0.0
H1656 H 0.58762 0.19604 0.49619 0.0
H1657 H 0.50656 0.23372 0.44382 0.0
H1658 H 0.5845 0.25312 0.55723 0.0
H1659 H 0.61303 0.26683 0.52878 0.0
H1660 H 0.61036 0.2238 0.53794 0.0
H1661 H 0.48902 0.30259 0.49499 0.0
H1662 H 0.47759 0.28159 0.46003 0.0
H1663 H 0.51071 0.31083 0.46008 0.0
C1664 C 0.28856 0.57577 0.50014 0.0
C1665 C 0.27863 0.55361 0.47735 0.0
C1666 C 0.26556 0.58888 0.52089 0.0
C1667 C 0.23208 0.57927 0.5188 0.0
C1668 C 0.22251 0.55544 0.49686 0.0
C1669 C 0.24585 0.54311 0.4763 0.0
C1670 C 0.27675 0.61469 0.54349 0.0
C1671 C 0.18726 0.54416 0.49401 0.0
C1672 C 0.17296 0.59478 0.58468 0.0
C1673 C 0.15534 0.62208 0.57408 0.0
C1674 C 0.19831 0.58092 0.56716 0.0
C1675 C 0.20661 0.59495 0.53849 0.0
C1676 C 0.18934 0.62294 0.52789 0.0
C1677 C 0.16367 0.63598 0.54567 0.0
C1678 C 0.21619 0.55118 0.57927 0.0
C1679 C 0.19795 0.63908 0.49774 0.0
H1680 H 0.31372 0.58457 0.50038 0.0
H1681 H 0.23818 0.5262 0.45839 0.0
H1682 H 0.26963 0.63924 0.53473 0.0
H1683 H 0.26486 0.6113 0.56616 0.0
H1684 H 0.30383 0.61445 0.54663 0.0
H1685 H 0.18437 0.52373 0.4773 0.0
H1686 H 0.17788 0.53594 0.51664 0.0
H1687 H 0.1717 0.56496 0.4864 0.0
H1688 H 0.16683 0.58411 0.60674 0.0
H1689 H 0.15066 0.65753 0.53765 0.0
H1690 H 0.2429 0.55642 0.58085 0.0
H1691 H 0.21303 0.5303 0.56313 0.0
H1692 H 0.20722 0.54357 0.60226 0.0
H1693 H 0.22462 0.64467 0.49688 0.0
H1694 H 0.18415 0.66221 0.49399 0.0
H1695 H 0.19245 0.62202 0.47852 0.0
C1696 C 0.9228 0.18739 0.57245 0.0
C1697 C 0.91735 0.15541 0.56146 0.0
C1698 C 0.93352 0.21257 0.55292 0.0
C1699 C 0.9397 0.20559 0.52164 0.0
C1700 C 0.93637 0.1729 0.51081 0.0
C1701 C 0.92477 0.14825 0.53075 0.0
C1702 C 0.9361 0.2471 0.56537 0.0
C1703 C 0.94342 0.1643 0.47777 0.0
C1704 C 0.92279 0.27598 0.46691 0.0
C1705 C 0.95444 0.28798 0.46048 0.0
C1706 C 0.91791 0.24882 0.4861 0.0
C1707 C 0.94531 0.23324 0.49975 0.0
C1708 C 0.97738 0.24516 0.49358 0.0
C1709 C 0.98161 0.27226 0.47382 0.0
C1710 C 0.88326 0.23682 0.49174 0.0
C1711 C 0.00716 0.22933 0.5079 0.0
H1712 H 0.91698 0.19331 0.59609 0.0
H1713 H 0.92081 0.12358 0.52214 0.0
H1714 H 0.95989 0.25837 0.55877 0.0
H1715 H 0.9163 0.26241 0.55532 0.0
H1716 H 0.93382 0.2479 0.59078 0.0
H1717 H 0.94431 0.13733 0.47405 0.0
H1718 H 0.92394 0.17469 0.46284 0.0
H1719 H 0.96714 0.17516 0.47038 0.0
H1720 H 0.90157 0.28739 0.45639 0.0
H1721 H 0.00615 0.28109 0.4688 0.0
H1722 H 0.87738 0.23856 0.51655 0.0
H1723 H 0.88104 0.21062 0.48508 0.0
H1724 H 0.86469 0.25111 0.47869 0.0
H1725 H 0.00555 0.23087 0.53329 0.0
H1726 H 0.03044 0.24112 0.50043 0.0
H1727 H 0.00798 0.20291 0.50177 0.0
C1728 C 0.8168 0.09597 0.92566 0.0
C1729 C 0.83831 0.11892 0.93902 0.0
C1730 C 0.79164 0.08111 0.94282 0.0
C1731 C 0.78748 0.08972 0.97404 0.0
C1732 C 0.80902 0.11301 0.98763 0.0
C1733 C 0.83435 0.12713 0.97004 0.0
C1734 C 0.76959 0.05609 0.92757 0.0
C1735 C 0.80504 0.12332 0.02067 0.0
C1736 C 0.70625 0.07369 0.01518 0.0
C1737 C 0.71437 0.04654 0.03334 0.0
C1738 C 0.72948 0.08754 0.995 0.0
C1739 C 0.76134 0.07359 0.99283 0.0
C1740 C 0.76883 0.04504 0.00998 0.0
C1741 C 0.74539 0.03214 0.03027 0.0
C1742 C 0.72064 0.11828 0.97754 0.0
C1743 C 0.80226 0.02914 0.00826 0.0
H1744 H 0.8197 0.08944 0.90169 0.0
H1745 H 0.8506 0.14511 0.98043 0.0
H1746 H 0.77132 0.03229 0.93984 0.0
H1747 H 0.74363 0.06419 0.92889 0.0
H1748 H 0.77602 0.05209 0.90308 0.0
H1749 H 0.823 0.14255 0.02757 0.0
H1750 H 0.77986 0.1329 0.02425 0.0
H1751 H 0.80809 0.1018 0.03599 0.0
H1752 H 0.68262 0.08542 0.0183 0.0
H1753 H 0.75186 0.01163 0.04495 0.0
H1754 H 0.72676 0.1155 0.95287 0.0
H1755 H 0.73525 0.13925 0.98648 0.0
H1756 H 0.69415 0.12442 0.97964 0.0
H1757 H 0.80911 0.02459 0.98399 0.0
H1758 H 0.80318 0.00551 0.02095 0.0
H1759 H 0.821 0.04591 0.01816 0.0
C1760 C 0.42701 0.84154 0.95791 0.0
C1761 C 0.40001 0.83423 0.93917 0.0
C1762 C 0.43969 0.81786 0.97827 0.0
C1763 C 0.42411 0.78675 0.98065 0.0
C1764 C 0.39646 0.77964 0.962 0.0
C1765 C 0.38516 0.80324 0.94111 0.0
C1766 C 0.4696 0.82613 0.99732 0.0
C1767 C 0.37808 0.74751 0.9648 0.0
C1768 C 0.4636 0.71235 0.01919 0.0
C1769 C 0.44981 0.71394 0.04863 0.0
C1770 C 0.45652 0.73662 0.99705 0.0
C1771 C 0.43472 0.76261 0.0044 0.0
C1772 C 0.42129 0.76456 0.03422 0.0
C1773 C 0.42946 0.74068 0.05598 0.0
C1774 C 0.47198 0.73427 0.96568 0.0
C1775 C 0.39747 0.79141 0.043 0.0
H1776 H 0.43853 0.86549 0.95621 0.0
H1777 H 0.36398 0.7978 0.92682 0.0
H1778 H 0.46295 0.82692 0.02199 0.0
H1779 H 0.48852 0.80678 0.99457 0.0
H1780 H 0.48049 0.85018 0.99089 0.0
H1781 H 0.35731 0.74566 0.94829 0.0
H1782 H 0.39497 0.72662 0.96082 0.0
H1783 H 0.3682 0.74493 0.98842 0.0
H1784 H 0.47974 0.69216 0.01342 0.0
H1785 H 0.41922 0.74278 0.07884 0.0
H1786 H 0.48395 0.7579 0.95965 0.0
H1787 H 0.4527 0.72952 0.94819 0.0
H1788 H 0.49053 0.71436 0.96438 0.0
H1789 H 0.40919 0.8158 0.04021 0.0
H1790 H 0.38883 0.78911 0.06708 0.0
H1791 H 0.37577 0.79073 0.02755 0.0
C1792 C 0.75103 0.46187 0.03396 0.0
C1793 C 0.78381 0.452 0.03056 0.0
C1794 C 0.72623 0.45025 0.01434 0.0
C1795 C 0.73417 0.42758 0.99088 0.0
C1796 C 0.76746 0.41812 0.98675 0.0
C1797 C 0.79198 0.43059 0.00661 0.0
C1798 C 0.69128 0.46129 0.01955 0.0
C1799 C 0.77686 0.39344 0.9625 0.0
C1800 C 0.66369 0.37226 0.96428 0.0
C1801 C 0.6547 0.38685 0.93634 0.0
C1802 C 0.69004 0.38472 0.98184 0.0
C1803 C 0.7073 0.41299 0.97163 0.0
C1804 C 0.69785 0.42813 0.94373 0.0
C1805 C 0.67203 0.41462 0.92625 0.0
C1806 C 0.69962 0.36742 0.01117 0.0
C1807 C 0.71499 0.45867 0.93235 0.0
H1808 H 0.74454 0.47767 0.053 0.0
H1809 H 0.81707 0.422 0.00464 0.0
H1810 H 0.68175 0.47346 0.99858 0.0
H1811 H 0.67528 0.43978 0.02415 0.0
H1812 H 0.68915 0.47859 0.03916 0.0
H1813 H 0.80386 0.38975 0.96122 0.0
H1814 H 0.76504 0.3695 0.96762 0.0
H1815 H 0.76782 0.40144 0.93967 0.0
H1816 H 0.65085 0.3504 0.97191 0.0
H1817 H 0.6653 0.4259 0.9046 0.0
H1818 H 0.6968 0.3843 0.03099 0.0
H1819 H 0.72587 0.36019 0.01024 0.0
H1820 H 0.68455 0.34511 0.0154 0.0
H1821 H 0.71281 0.47853 0.94967 0.0
H1822 H 0.70467 0.46756 0.91025 0.0
H1823 H 0.74156 0.45374 0.9292 0.0
C1824 C 0.01925 0.78065 0.03423 0.0
C1825 C 0.04757 0.79156 0.04957 0.0
C1826 C 0.01963 0.75147 0.01683 0.0
C1827 C 0.04924 0.73347 0.01406 0.0
C1828 C 0.07742 0.74367 0.03056 0.0
C1829 C 0.07611 0.77225 0.04827 0.0
C1830 C 0.98871 0.74051 1.00066 0.0
C1831 C 0.10962 0.72538 0.02825 0.0
C1832 C 0.0626 0.64851 0.98072 0.0
C1833 C 0.07433 0.65641 0.9514 0.0
C1834 C 0.05097 0.67318 1.00055 0.0
C1835 C 0.05259 0.70649 0.99123 0.0
C1836 C 0.06295 0.71427 0.96109 0.0
C1837 C 0.07312 0.6891 0.94141 0.0
C1838 C 0.03892 0.66374 0.03207 0.0
C1839 C 0.06607 0.74944 0.95044 0.0
H1840 H 0.99702 0.79514 0.03527 0.0
H1841 H 0.09801 0.77986 0.06055 0.0
H1842 H 0.9909 0.7456 0.97574 0.0
H1843 H 0.98505 0.71367 0.00342 0.0
H1844 H 0.96666 0.75346 0.0095 0.0
H1845 H 0.12861 0.73535 0.04405 0.0
H1846 H 0.10602 0.69903 0.03361 0.0
H1847 H 0.11909 0.72699 0.00442 0.0
H1848 H 0.06325 0.62322 0.98843 0.0
H1849 H 0.08237 0.69542 0.91885 0.0
H1850 H 0.01824 0.67963 0.03938 0.0
H1851 H 0.05911 0.66691 0.04895 0.0
H1852 H 0.0308 0.6377 0.03279 0.0
H1853 H 0.07204 0.75123 0.92562 0.0
H1854 H 0.08587 0.76187 0.96364 0.0
H1855 H 0.04297 0.76301 0.95476 0.0
loop_
_geom_bond_atom_site_label_1
_geom_bond_atom_site_label_2
_geom_bond_distance
_geom_bond_site_symmetry_2
_ccdc_geom_bond_type
Zn0 O6 1.969 . S
Zn0 O7 1.965 . S
Zn0 O11 2.024 . S
Zn0 O16 1.969 . S
Zn1 O8 1.969 . S
Zn1 O14 1.969 . S
Zn1 O15 1.965 . S
Zn1 O17 2.024 . S
C2 O3 1.229 . S
C2 O11 1.058 . S
O3 C2 1.229 . S
C4 O5 1.229 . S
C4 O17 1.058 . S
O5 C4 1.229 . S
O6 Zn0 1.969 . S
O6 C9 1.267 . S
O7 Zn0 1.965 . S
O7 C18 1.260 . S
O8 Zn1 1.969 . S
O8 C18 1.258 . S
C9 O6 1.267 . S
C9 O10 1.228 . S
O10 C9 1.228 . S
O11 Zn0 2.024 . S
O11 C2 1.058 . S
C12 O13 1.228 . S
C12 O14 1.267 . S
O13 C12 1.228 . S
O14 Zn1 1.969 . S
O14 C12 1.267 . S
O15 Zn1 1.965 . S
O15 C19 1.260 . S
O16 Zn0 1.969 . S
O16 C19 1.258 . S
O17 Zn1 2.024 . S
O17 C4 1.058 . S
C18 O7 1.260 . S
C18 O8 1.258 . S
C19 O15 1.260 . S
C19 O16 1.258 . S
Zn20 O26 1.969 . S
Zn20 O27 1.965 . S
Zn20 O31 2.024 . S
Zn20 O36 1.969 . S
Zn21 O28 1.969 . S
Zn21 O34 1.969 . S
Zn21 O35 1.965 . S
Zn21 O37 2.024 . S
C22 O23 1.229 . S
C22 O31 1.058 . S
O23 C22 1.229 . S
C24 O25 1.229 . S
C24 O37 1.058 . S
O25 C24 1.229 . S
O26 Zn20 1.969 . S
O26 C29 1.267 . S
O27 Zn20 1.965 . S
O27 C38 1.260 . S
O28 Zn21 1.969 . S
O28 C38 1.258 . S
C29 O26 1.267 . S
C29 O30 1.228 . S
O30 C29 1.228 . S
O31 Zn20 2.024 . S
O31 C22 1.058 . S
C32 O33 1.228 . S
C32 O34 1.267 . S
O33 C32 1.228 . S
O34 Zn21 1.969 . S
O34 C32 1.267 . S
O35 Zn21 1.965 . S
O35 C39 1.260 . S
O36 Zn20 1.969 . S
O36 C39 1.258 . S
O37 Zn21 2.024 . S
O37 C24 1.058 . S
C38 O27 1.260 . S
C38 O28 1.258 . S
C39 O35 1.260 . S
C39 O36 1.258 . S
Zn40 O46 1.969 1_655 S
Zn40 O47 1.965 . S
Zn40 O51 2.022 1_655 S
Zn40 O56 1.969 . S
Zn41 O48 1.969 . S
Zn41 O54 1.969 . S
Zn41 O55 1.965 . S
Zn41 O57 2.024 . S
C42 O43 1.229 . S
C42 O51 1.074 . S
O43 C42 1.229 . S
C44 O45 1.229 . S
C44 O57 1.058 . S
O45 C44 1.229 . S
O46 Zn40 1.969 1_455 S
O46 C49 1.267 . S
O47 Zn40 1.965 . S
O47 C58 1.260 . S
O48 Zn41 1.969 . S
O48 C58 1.258 . S
C49 O46 1.267 . S
C49 O50 1.228 . S
O50 C49 1.228 . S
O51 Zn40 2.022 1_455 S
O51 C42 1.074 . S
C52 O53 1.228 . S
C52 O54 1.267 . S
O53 C52 1.228 . S
O54 Zn41 1.969 . S
O54 C52 1.267 . S
O55 Zn41 1.965 . S
O55 C59 1.260 . S
O56 Zn40 1.969 . S
O56 C59 1.258 . S
O57 Zn41 2.024 . S
O57 C44 1.058 . S
C58 O47 1.260 . S
C58 O48 1.258 . S
C59 O55 1.260 . S
C59 O56 1.258 . S
Zn60 O66 1.969 1_565 S
Zn60 O67 1.965 . S
Zn60 O71 2.022 1_565 S
Zn60 O76 1.969 . S
Zn61 O68 1.969 . S
Zn61 O74 1.969 . S
Zn61 O75 1.965 . S
Zn61 O77 2.024 . S
C62 O63 1.229 . S
C62 O71 1.074 . S
O63 C62 1.229 . S
C64 O65 1.229 . S
C64 O77 1.058 . S
O65 C64 1.229 . S
O66 Zn60 1.969 1_545 S
O66 C69 1.267 . S
O67 Zn60 1.965 . S
O67 C78 1.260 . S
O68 Zn61 1.969 . S
O68 C78 1.258 . S
C69 O66 1.267 . S
C69 O70 1.228 . S
O70 C69 1.228 . S
O71 Zn60 2.022 1_545 S
O71 C62 1.074 . S
C72 O73 1.228 . S
C72 O74 1.267 . S
O73 C72 1.228 . S
O74 Zn61 1.969 . S
O74 C72 1.267 . S
O75 Zn61 1.965 . S
O75 C79 1.260 . S
O76 Zn60 1.969 . S
O76 C79 1.258 . S
O77 Zn61 2.024 . S
O77 C64 1.058 . S
C78 O67 1.260 . S
C78 O68 1.258 . S
C79 O75 1.260 . S
C79 O76 1.258 . S
Zn80 O86 1.969 1_455 S
Zn80 O87 1.965 . S
Zn80 O91 2.022 1_455 S
Zn80 O96 1.969 . S
Zn81 O88 1.969 . S
Zn81 O94 1.969 . S
Zn81 O95 1.965 . S
Zn81 O97 2.024 . S
C82 O83 1.229 . S
C82 O91 1.074 . S
O83 C82 1.229 . S
C84 O85 1.229 . S
C84 O97 1.058 . S
O85 C84 1.229 . S
O86 Zn80 1.969 1_655 S
O86 C89 1.267 . S
O87 Zn80 1.965 . S
O87 C98 1.260 . S
O88 Zn81 1.969 . S
O88 C98 1.258 . S
C89 O86 1.267 . S
C89 O90 1.228 . S
O90 C89 1.228 . S
O91 Zn80 2.022 1_655 S
O91 C82 1.074 . S
C92 O93 1.228 . S
C92 O94 1.267 . S
O93 C92 1.228 . S
O94 Zn81 1.969 . S
O94 C92 1.267 . S
O95 Zn81 1.965 . S
O95 C99 1.260 . S
O96 Zn80 1.969 . S
O96 C99 1.258 . S
O97 Zn81 2.024 . S
O97 C84 1.058 . S
C98 O87 1.260 . S
C98 O88 1.258 . S
C99 O95 1.260 . S
C99 O96 1.258 . S
Zn100 O106 1.969 1_545 S
Zn100 O107 1.965 . S
Zn100 O111 2.022 1_545 S
Zn100 O116 1.969 . S
Zn101 O108 1.969 . S
Zn101 O114 1.969 . S
Zn101 O115 1.965 . S
Zn101 O117 2.024 . S
C102 O103 1.229 . S
C102 O111 1.074 . S
O103 C102 1.229 . S
C104 O105 1.229 . S
C104 O117 1.058 . S
O105 C104 1.229 . S
O106 Zn100 1.969 1_565 S
O106 C109 1.267 . S
O107 Zn100 1.965 . S
O107 C118 1.260 . S
O108 Zn101 1.969 . S
O108 C118 1.258 . S
C109 O106 1.267 . S
C109 O110 1.228 . S
O110 C109 1.228 . S
O111 Zn100 2.022 1_565 S
O111 C102 1.074 . S
C112 O113 1.228 . S
C112 O114 1.267 . S
O113 C112 1.228 . S
O114 Zn101 1.969 . S
O114 C112 1.267 . S
O115 Zn101 1.965 . S
O115 C119 1.260 . S
O116 Zn100 1.969 . S
O116 C119 1.258 . S
O117 Zn101 2.024 . S
O117 C104 1.058 . S
C118 O107 1.260 . S
C118 O108 1.258 . S
C119 O115 1.260 . S
C119 O116 1.258 . S
Zn120 O126 1.969 . S
Zn120 O127 1.965 . S
Zn120 O131 2.024 . S
Zn120 O136 1.969 . S
Zn121 O128 1.969 . S
Zn121 O134 1.969 . S
Zn121 O135 1.965 . S
Zn121 O137 2.024 . S
C122 O123 1.229 . S
C122 O131 1.058 . S
O123 C122 1.229 . S
C124 O125 1.229 . S
C124 O137 1.058 . S
O125 C124 1.229 . S
O126 Zn120 1.969 . S
O126 C129 1.267 . S
O127 Zn120 1.965 . S
O127 C138 1.260 . S
O128 Zn121 1.969 . S
O128 C138 1.258 . S
C129 O126 1.267 . S
C129 O130 1.228 . S
O130 C129 1.228 . S
O131 Zn120 2.024 . S
O131 C122 1.058 . S
C132 O133 1.228 . S
C132 O134 1.267 . S
O133 C132 1.228 . S
O134 Zn121 1.969 . S
O134 C132 1.267 . S
O135 Zn121 1.965 . S
O135 C139 1.260 . S
O136 Zn120 1.969 . S
O136 C139 1.258 . S
O137 Zn121 2.024 . S
O137 C124 1.058 . S
C138 O127 1.260 . S
C138 O128 1.258 . S
C139 O135 1.260 . S
C139 O136 1.258 . S
Zn140 O146 1.969 . S
Zn140 O147 1.965 . S
Zn140 O151 2.024 . S
Zn140 O156 1.969 . S
Zn141 O148 1.969 . S
Zn141 O154 1.969 . S
Zn141 O155 1.965 . S
Zn141 O157 2.024 . S
C142 O143 1.229 . S
C142 O151 1.058 . S
O143 C142 1.229 . S
C144 O145 1.229 . S
C144 O157 1.058 . S
O145 C144 1.229 . S
O146 Zn140 1.969 . S
O146 C149 1.267 . S
O147 Zn140 1.965 . S
O147 C158 1.260 . S
O148 Zn141 1.969 . S
O148 C158 1.258 . S
C149 O146 1.267 . S
C149 O150 1.228 . S
O150 C149 1.228 . S
O151 Zn140 2.024 . S
O151 C142 1.058 . S
C152 O153 1.228 . S
C152 O154 1.267 . S
O153 C152 1.228 . S
O154 Zn141 1.969 . S
O154 C152 1.267 . S
O155 Zn141 1.965 . S
O155 C159 1.260 . S
O156 Zn140 1.969 . S
O156 C159 1.258 . S
O157 Zn141 2.024 . S
O157 C144 1.058 . S
C158 O147 1.260 . S
C158 O148 1.258 . S
C159 O155 1.260 . S
C159 O156 1.258 . S
Zn160 O166 1.969 . S
Zn160 O167 1.965 . S
Zn160 O171 2.024 . S
Zn160 O176 1.969 . S
Zn161 O168 1.969 . S
Zn161 O174 1.969 . S
Zn161 O175 1.965 . S
Zn161 O177 2.024 . S
C162 O163 1.229 . S
C162 O171 1.058 . S
O163 C162 1.229 . S
C164 O165 1.229 . S
C164 O177 1.058 . S
O165 C164 1.229 . S
O166 Zn160 1.969 . S
O166 C169 1.267 . S
O167 Zn160 1.965 . S
O167 C178 1.260 . S
O168 Zn161 1.969 . S
O168 C178 1.258 . S
C169 O166 1.267 . S
C169 O170 1.228 . S
O170 C169 1.228 . S
O171 Zn160 2.024 . S
O171 C162 1.058 . S
C172 O173 1.228 . S
C172 O174 1.267 . S
O173 C172 1.228 . S
O174 Zn161 1.969 . S
O174 C172 1.267 . S
O175 Zn161 1.965 . S
O175 C179 1.260 . S
O176 Zn160 1.969 . S
O176 C179 1.258 . S
O177 Zn161 2.024 . S
O177 C164 1.058 . S
C178 O167 1.260 . S
C178 O168 1.258 . S
C179 O175 1.260 . S
C179 O176 1.258 . S
Zn180 O186 1.969 . S
Zn180 O187 1.965 . S
Zn180 O191 2.024 . S
Zn180 O196 1.969 . S
Zn181 O188 1.969 . S
Zn181 O194 1.969 . S
Zn181 O195 1.965 . S
Zn181 O197 2.024 . S
C182 O183 1.229 . S
C182 O191 1.058 . S
O183 C182 1.229 . S
C184 O185 1.229 . S
C184 O197 1.058 . S
O185 C184 1.229 . S
O186 Zn180 1.969 . S
O186 C189 1.267 . S
O187 Zn180 1.965 . S
O187 C198 1.260 . S
O188 Zn181 1.969 . S
O188 C198 1.258 . S
C189 O186 1.267 . S
C189 O190 1.228 . S
O190 C189 1.228 . S
O191 Zn180 2.024 . S
O191 C182 1.058 . S
C192 O193 1.228 . S
C192 O194 1.267 . S
O193 C192 1.228 . S
O194 Zn181 1.969 . S
O194 C192 1.267 . S
O195 Zn181 1.965 . S
O195 C199 1.260 . S
O196 Zn180 1.969 . S
O196 C199 1.258 . S
O197 Zn181 2.024 . S
O197 C184 1.058 . S
C198 O187 1.260 . S
C198 O188 1.258 . S
C199 O195 1.260 . S
C199 O196 1.258 . S
Zn200 O206 1.969 . S
Zn200 O207 1.965 . S
Zn200 O211 2.024 . S
Zn200 O216 1.969 . S
Zn201 O208 1.969 . S
Zn201 O214 1.969 1_455 S
Zn201 O215 1.965 . S
Zn201 O217 2.022 1_455 S
C202 O203 1.229 . S
C202 O211 1.058 . S
O203 C202 1.229 . S
C204 O205 1.229 . S
C204 O217 1.074 . S
O205 C204 1.229 . S
O206 Zn200 1.969 . S
O206 C209 1.267 . S
O207 Zn200 1.965 . S
O207 C218 1.260 . S
O208 Zn201 1.969 . S
O208 C218 1.258 . S
C209 O206 1.267 . S
C209 O210 1.228 . S
O210 C209 1.228 . S
O211 Zn200 2.024 . S
O211 C202 1.058 . S
C212 O213 1.228 . S
C212 O214 1.267 . S
O213 C212 1.228 . S
O214 Zn201 1.969 1_655 S
O214 C212 1.267 . S
O215 Zn201 1.965 . S
O215 C219 1.260 . S
O216 Zn200 1.969 . S
O216 C219 1.258 . S
O217 Zn201 2.022 1_655 S
O217 C204 1.074 . S
C218 O207 1.260 . S
C218 O208 1.258 . S
C219 O215 1.260 . S
C219 O216 1.258 . S
Zn220 O226 1.969 . S
Zn220 O227 1.965 . S
Zn220 O231 2.024 . S
Zn220 O236 1.969 . S
Zn221 O228 1.969 . S
Zn221 O234 1.969 1_545 S
Zn221 O235 1.965 . S
Zn221 O237 2.022 1_545 S
C222 O223 1.229 . S
C222 O231 1.058 . S
O223 C222 1.229 . S
C224 O225 1.229 . S
C224 O237 1.074 . S
O225 C224 1.229 . S
O226 Zn220 1.969 . S
O226 C229 1.267 . S
O227 Zn220 1.965 . S
O227 C238 1.260 . S
O228 Zn221 1.969 . S
O228 C238 1.258 . S
C229 O226 1.267 . S
C229 O230 1.228 . S
O230 C229 1.228 . S
O231 Zn220 2.024 . S
O231 C222 1.058 . S
C232 O233 1.228 . S
C232 O234 1.267 . S
O233 C232 1.228 . S
O234 Zn221 1.969 1_565 S
O234 C232 1.267 . S
O235 Zn221 1.965 . S
O235 C239 1.260 . S
O236 Zn220 1.969 . S
O236 C239 1.258 . S
O237 Zn221 2.022 1_565 S
O237 C224 1.074 . S
C238 O227 1.260 . S
C238 O228 1.258 . S
C239 O235 1.260 . S
C239 O236 1.258 . S
Zn240 O246 1.969 . S
Zn240 O247 1.965 . S
Zn240 O251 2.024 . S
Zn240 O256 1.969 . S
Zn241 O248 1.969 . S
Zn241 O254 1.969 1_655 S
Zn241 O255 1.965 . S
Zn241 O257 2.022 1_655 S
C242 O243 1.229 . S
C242 O251 1.058 . S
O243 C242 1.229 . S
C244 O245 1.229 . S
C244 O257 1.074 . S
O245 C244 1.229 . S
O246 Zn240 1.969 . S
O246 C249 1.267 . S
O247 Zn240 1.965 . S
O247 C258 1.260 . S
O248 Zn241 1.969 . S
O248 C258 1.258 . S
C249 O246 1.267 . S
C249 O250 1.228 . S
O250 C249 1.228 . S
O251 Zn240 2.024 . S
O251 C242 1.058 . S
C252 O253 1.228 . S
C252 O254 1.267 . S
O253 C252 1.228 . S
O254 Zn241 1.969 1_455 S
O254 C252 1.267 . S
O255 Zn241 1.965 . S
O255 C259 1.260 . S
O256 Zn240 1.969 . S
O256 C259 1.258 . S
O257 Zn241 2.022 1_455 S
O257 C244 1.074 . S
C258 O247 1.260 . S
C258 O248 1.258 . S
C259 O255 1.260 . S
C259 O256 1.258 . S
Zn260 O266 1.969 . S
Zn260 O267 1.965 . S
Zn260 O271 2.024 . S
Zn260 O276 1.969 . S
Zn261 O268 1.969 . S
Zn261 O274 1.969 1_565 S
Zn261 O275 1.965 . S
Zn261 O277 2.022 1_565 S
C262 O263 1.229 . S
C262 O271 1.058 . S
O263 C262 1.229 . S
C264 O265 1.229 . S
C264 O277 1.074 . S
O265 C264 1.229 . S
O266 Zn260 1.969 . S
O266 C269 1.267 . S
O267 Zn260 1.965 . S
O267 C278 1.260 . S
O268 Zn261 1.969 . S
O268 C278 1.258 . S
C269 O266 1.267 . S
C269 O270 1.228 . S
O270 C269 1.228 . S
O271 Zn260 2.024 . S
O271 C262 1.058 . S
C272 O273 1.228 . S
C272 O274 1.267 . S
O273 C272 1.228 . S
O274 Zn261 1.969 1_545 S
O274 C272 1.267 . S
O275 Zn261 1.965 . S
O275 C279 1.260 . S
O276 Zn260 1.969 . S
O276 C279 1.258 . S
O277 Zn261 2.022 1_545 S
O277 C264 1.074 . S
C278 O267 1.260 . S
C278 O268 1.258 . S
C279 O275 1.260 . S
C279 O276 1.258 . S
Zn280 O286 1.969 . S
Zn280 O287 1.965 . S
Zn280 O291 2.024 . S
Zn280 O296 1.969 . S
Zn281 O288 1.969 . S
Zn281 O294 1.969 . S
Zn281 O295 1.965 . S
Zn281 O297 2.024 . S
C282 O283 1.229 . S
C282 O291 1.058 . S
O283 C282 1.229 . S
C284 O285 1.229 . S
C284 O297 1.058 . S
O285 C284 1.229 . S
O286 Zn280 1.969 . S
O286 C289 1.267 . S
O287 Zn280 1.965 . S
O287 C298 1.260 . S
O288 Zn281 1.969 . S
O288 C298 1.258 . S
C289 O286 1.267 . S
C289 O290 1.228 . S
O290 C289 1.228 . S
O291 Zn280 2.024 . S
O291 C282 1.058 . S
C292 O293 1.228 . S
C292 O294 1.267 . S
O293 C292 1.228 . S
O294 Zn281 1.969 . S
O294 C292 1.267 . S
O295 Zn281 1.965 . S
O295 C299 1.260 . S
O296 Zn280 1.969 . S
O296 C299 1.258 . S
O297 Zn281 2.024 . S
O297 C284 1.058 . S
C298 O287 1.260 . S
C298 O288 1.258 . S
C299 O295 1.260 . S
C299 O296 1.258 . S
Zn300 O306 1.969 . S
Zn300 O307 1.965 . S
Zn300 O311 2.024 . S
Zn300 O316 1.969 . S
Zn301 O308 1.969 . S
Zn301 O314 1.969 . S
Zn301 O315 1.965 . S
Zn301 O317 2.024 . S
C302 O303 1.229 . S
C302 O311 1.058 . S
O303 C302 1.229 . S
C304 O305 1.229 . S
C304 O317 1.058 . S
O305 C304 1.229 . S
O306 Zn300 1.969 . S
O306 C309 1.267 . S
O307 Zn300 1.965 . S
O307 C318 1.260 . S
O308 Zn301 1.969 . S
O308 C318 1.258 . S
C309 O306 1.267 . S
C309 O310 1.228 . S
O310 C309 1.228 . S
O311 Zn300 2.024 . S
O311 C302 1.058 . S
C312 O313 1.228 . S
C312 O314 1.267 . S
O313 C312 1.228 . S
O314 Zn301 1.969 . S
O314 C312 1.267 . S
O315 Zn301 1.965 . S
O315 C319 1.260 . S
O316 Zn300 1.969 . S
O316 C319 1.258 . S
O317 Zn301 2.024 . S
O317 C304 1.058 . S
C318 O307 1.260 . S
C318 O308 1.258 . S
C319 O315 1.260 . S
C319 O316 1.258 . S
C320 C321 1.391 . S
C320 C322 1.394 . S
C320 H336 0.931 . S
C321 C320 1.391 . S
C321 C325 1.376 . S
C322 C320 1.394 . S
C322 C323 1.369 . S
C322 C326 1.531 . S
C323 C322 1.369 . S
C323 C324 1.410 . S
C323 C331 1.503 . S
C324 C323 1.410 . S
C324 C325 1.392 . S
C324 C327 1.511 . S
C325 C321 1.376 . S
C325 C324 1.392 . S
C325 H337 0.929 . S
C326 C322 1.531 . S
C326 H338 0.960 . S
C326 H339 0.962 . S
C326 H340 0.960 . S
C327 C324 1.511 . S
C327 H341 0.961 . S
C327 H342 0.961 . S
C327 H343 0.961 . S
C328 C329 1.370 . S
C328 C330 1.363 . S
C328 H344 0.931 . S
C329 C328 1.370 . S
C329 C333 1.408 . S
C330 C328 1.363 . S
C330 C331 1.370 . S
C330 C334 1.524 . S
C331 C323 1.503 . S
C331 C330 1.370 . S
C331 C332 1.403 . S
C332 C331 1.403 . S
C332 C333 1.404 . S
C332 C335 1.539 . S
C333 C329 1.408 . S
C333 C332 1.404 . S
C333 H345 0.930 . S
C334 C330 1.524 . S
C334 H346 0.956 . S
C334 H347 0.961 . S
C334 H348 0.961 . S
C335 C332 1.539 . S
C335 H349 0.958 . S
C335 H350 0.961 . S
C335 H351 0.960 . S
H336 C320 0.931 . S
H337 C325 0.929 . S
H338 C326 0.960 . S
H339 C326 0.962 . S
H340 C326 0.960 . S
H341 C327 0.961 . S
H342 C327 0.961 . S
H343 C327 0.961 . S
H344 C328 0.931 . S
H345 C333 0.930 . S
H346 C334 0.956 . S
H347 C334 0.961 . S
H348 C334 0.961 . S
H349 C335 0.958 . S
H350 C335 0.961 . S
H351 C335 0.960 . S
C352 C353 1.391 . S
C352 C354 1.394 . S
C352 H368 0.931 . S
C353 C352 1.391 . S
C353 C357 1.376 . S
C354 C352 1.394 . S
C354 C355 1.369 . S
C354 C358 1.531 . S
C355 C354 1.369 . S
C355 C356 1.410 . S
C355 C363 1.503 . S
C356 C355 1.410 . S
C356 C357 1.392 . S
C356 C359 1.511 . S
C357 C353 1.376 . S
C357 C356 1.392 . S
C357 H369 0.929 . S
C358 C354 1.531 . S
C358 H370 0.960 . S
C358 H371 0.962 . S
C358 H372 0.960 . S
C359 C356 1.511 . S
C359 H373 0.961 . S
C359 H374 0.961 . S
C359 H375 0.961 . S
C360 C361 1.370 . S
C360 C362 1.363 . S
C360 H376 0.931 . S
C361 C360 1.370 . S
C361 C365 1.408 . S
C362 C360 1.363 . S
C362 C363 1.370 . S
C362 C366 1.524 . S
C363 C355 1.503 . S
C363 C362 1.370 . S
C363 C364 1.403 . S
C364 C363 1.403 . S
C364 C365 1.404 . S
C364 C367 1.539 . S
C365 C361 1.408 . S
C365 C364 1.404 . S
C365 H377 0.930 . S
C366 C362 1.524 . S
C366 H378 0.956 . S
C366 H379 0.961 . S
C366 H380 0.961 . S
C367 C364 1.539 . S
C367 H381 0.958 . S
C367 H382 0.961 . S
C367 H383 0.960 . S
H368 C352 0.931 . S
H369 C357 0.929 . S
H370 C358 0.960 . S
H371 C358 0.962 . S
H372 C358 0.960 . S
H373 C359 0.961 . S
H374 C359 0.961 . S
H375 C359 0.961 . S
H376 C360 0.931 . S
H377 C365 0.930 . S
H378 C366 0.956 . S
H379 C366 0.961 . S
H380 C366 0.961 . S
H381 C367 0.958 . S
H382 C367 0.961 . S
H383 C367 0.960 . S
C384 C385 1.391 . S
C384 C386 1.394 . S
C384 H400 0.931 . S
C385 C384 1.391 . S
C385 C389 1.376 . S
C386 C384 1.394 . S
C386 C387 1.369 . S
C386 C390 1.531 . S
C387 C386 1.369 . S
C387 C388 1.410 . S
C387 C395 1.503 . S
C388 C387 1.410 . S
C388 C389 1.392 . S
C388 C391 1.511 . S
C389 C385 1.376 . S
C389 C388 1.392 . S
C389 H401 0.929 . S
C390 C386 1.531 . S
C390 H402 0.960 . S
C390 H403 0.962 . S
C390 H404 0.960 . S
C391 C388 1.511 . S
C391 H405 0.961 . S
C391 H406 0.961 . S
C391 H407 0.961 . S
C392 C393 1.370 . S
C392 C394 1.363 . S
C392 H408 0.931 . S
C393 C392 1.370 . S
C393 C397 1.408 . S
C394 C392 1.363 . S
C394 C395 1.370 . S
C394 C398 1.524 . S
C395 C387 1.503 . S
C395 C394 1.370 . S
C395 C396 1.403 . S
C396 C395 1.403 . S
C396 C397 1.404 . S
C396 C399 1.539 . S
C397 C393 1.408 . S
C397 C396 1.404 . S
C397 H409 0.930 . S
C398 C394 1.524 . S
C398 H410 0.956 . S
C398 H411 0.961 . S
C398 H412 0.961 . S
C399 C396 1.539 . S
C399 H413 0.958 . S
C399 H414 0.961 . S
C399 H415 0.960 . S
H400 C384 0.931 . S
H401 C389 0.929 . S
H402 C390 0.960 . S
H403 C390 0.962 . S
H404 C390 0.960 . S
H405 C391 0.961 . S
H406 C391 0.961 . S
H407 C391 0.961 . S
H408 C392 0.931 . S
H409 C397 0.930 . S
H410 C398 0.956 . S
H411 C398 0.961 . S
H412 C398 0.961 . S
H413 C399 0.958 . S
H414 C399 0.961 . S
H415 C399 0.960 . S
C416 C417 1.391 . S
C416 C418 1.394 . S
C416 H432 0.931 . S
C417 C416 1.391 . S
C417 C421 1.376 . S
C418 C416 1.394 . S
C418 C419 1.369 . S
C418 C422 1.531 . S
C419 C418 1.369 . S
C419 C420 1.410 . S
C419 C427 1.503 . S
C420 C419 1.410 . S
C420 C421 1.392 . S
C420 C423 1.511 . S
C421 C417 1.376 . S
C421 C420 1.392 . S
C421 H433 0.929 . S
C422 C418 1.531 . S
C422 H434 0.960 . S
C422 H435 0.962 . S
C422 H436 0.960 . S
C423 C420 1.511 . S
C423 H437 0.961 . S
C423 H438 0.961 . S
C423 H439 0.961 . S
C424 C425 1.370 . S
C424 C426 1.363 . S
C424 H440 0.931 . S
C425 C424 1.370 . S
C425 C429 1.408 . S
C426 C424 1.363 . S
C426 C427 1.370 . S
C426 C430 1.524 . S
C427 C419 1.503 . S
C427 C426 1.370 . S
C427 C428 1.403 . S
C428 C427 1.403 . S
C428 C429 1.404 . S
C428 C431 1.539 . S
C429 C425 1.408 . S
C429 C428 1.404 . S
C429 H441 0.930 . S
C430 C426 1.524 . S
C430 H442 0.956 . S
C430 H443 0.961 . S
C430 H444 0.961 . S
C431 C428 1.539 . S
C431 H445 0.958 . S
C431 H446 0.961 . S
C431 H447 0.960 . S
H432 C416 0.931 . S
H433 C421 0.929 . S
H434 C422 0.960 . S
H435 C422 0.962 . S
H436 C422 0.960 . S
H437 C423 0.961 . S
H438 C423 0.961 . S
H439 C423 0.961 . S
H440 C424 0.931 . S
H441 C429 0.930 . S
H442 C430 0.956 . S
H443 C430 0.961 . S
H444 C430 0.961 . S
H445 C431 0.958 . S
H446 C431 0.961 . S
H447 C431 0.960 . S
C448 C449 1.391 . S
C448 C450 1.394 . S
C448 H464 0.931 . S
C449 C448 1.391 . S
C449 C453 1.376 . S
C450 C448 1.394 . S
C450 C451 1.369 . S
C450 C454 1.531 . S
C451 C450 1.369 . S
C451 C452 1.410 . S
C451 C459 1.503 . S
C452 C451 1.410 . S
C452 C453 1.392 . S
C452 C455 1.511 . S
C453 C449 1.376 . S
C453 C452 1.392 . S
C453 H465 0.929 . S
C454 C450 1.531 . S
C454 H466 0.960 . S
C454 H467 0.962 . S
C454 H468 0.960 . S
C455 C452 1.511 . S
C455 H469 0.961 . S
C455 H470 0.961 . S
C455 H471 0.961 . S
C456 C457 1.370 . S
C456 C458 1.363 . S
C456 H472 0.931 . S
C457 C456 1.370 . S
C457 C461 1.408 . S
C458 C456 1.363 . S
C458 C459 1.370 . S
C458 C462 1.524 . S
C459 C451 1.503 . S
C459 C458 1.370 . S
C459 C460 1.403 . S
C460 C459 1.403 . S
C460 C461 1.404 . S
C460 C463 1.539 . S
C461 C457 1.408 . S
C461 C460 1.404 . S
C461 H473 0.930 . S
C462 C458 1.524 . S
C462 H474 0.956 . S
C462 H475 0.961 . S
C462 H476 0.961 . S
C463 C460 1.539 . S
C463 H477 0.958 . S
C463 H478 0.961 . S
C463 H479 0.960 . S
H464 C448 0.931 . S
H465 C453 0.929 . S
H466 C454 0.960 . S
H467 C454 0.962 . S
H468 C454 0.960 . S
H469 C455 0.961 . S
H470 C455 0.961 . S
H471 C455 0.961 . S
H472 C456 0.931 . S
H473 C461 0.930 . S
H474 C462 0.956 . S
H475 C462 0.961 . S
H476 C462 0.961 . S
H477 C463 0.958 . S
H478 C463 0.961 . S
H479 C463 0.960 . S
C480 C481 1.391 . S
C480 C482 1.394 . S
C480 H496 0.931 . S
C481 C480 1.391 . S
C481 C485 1.376 . S
C482 C480 1.394 . S
C482 C483 1.369 . S
C482 C486 1.531 . S
C483 C482 1.369 . S
C483 C484 1.410 . S
C483 C491 1.503 . S
C484 C483 1.410 . S
C484 C485 1.392 . S
C484 C487 1.511 . S
C485 C481 1.376 . S
C485 C484 1.392 . S
C485 H497 0.929 . S
C486 C482 1.531 . S
C486 H498 0.960 . S
C486 H499 0.962 . S
C486 H500 0.960 . S
C487 C484 1.511 . S
C487 H501 0.961 . S
C487 H502 0.961 . S
C487 H503 0.961 . S
C488 C489 1.370 . S
C488 C490 1.363 . S
C488 H504 0.931 . S
C489 C488 1.370 . S
C489 C493 1.408 . S
C490 C488 1.363 . S
C490 C491 1.370 . S
C490 C494 1.524 . S
C491 C483 1.503 . S
C491 C490 1.370 . S
C491 C492 1.403 . S
C492 C491 1.403 . S
C492 C493 1.404 . S
C492 C495 1.539 . S
C493 C489 1.408 . S
C493 C492 1.404 . S
C493 H505 0.930 . S
C494 C490 1.524 . S
C494 H506 0.956 . S
C494 H507 0.961 . S
C494 H508 0.961 . S
C495 C492 1.539 . S
C495 H509 0.958 . S
C495 H510 0.961 . S
C495 H511 0.960 . S
H496 C480 0.931 . S
H497 C485 0.929 . S
H498 C486 0.960 . S
H499 C486 0.962 . S
H500 C486 0.960 . S
H501 C487 0.961 . S
H502 C487 0.961 . S
H503 C487 0.961 . S
H504 C488 0.931 . S
H505 C493 0.930 . S
H506 C494 0.956 . S
H507 C494 0.961 . S
H508 C494 0.961 . S
H509 C495 0.958 . S
H510 C495 0.961 . S
H511 C495 0.960 . S
C512 C513 1.391 . S
C512 C514 1.394 . S
C512 H528 0.931 . S
C513 C512 1.391 . S
C513 C517 1.376 . S
C514 C512 1.394 . S
C514 C515 1.369 . S
C514 C518 1.531 . S
C515 C514 1.369 . S
C515 C516 1.410 . S
C515 C523 1.503 . S
C516 C515 1.410 . S
C516 C517 1.392 . S
C516 C519 1.511 . S
C517 C513 1.376 . S
C517 C516 1.392 . S
C517 H529 0.929 . S
C518 C514 1.531 . S
C518 H530 0.960 . S
C518 H531 0.962 . S
C518 H532 0.960 . S
C519 C516 1.511 . S
C519 H533 0.961 . S
C519 H534 0.961 . S
C519 H535 0.961 . S
C520 C521 1.370 . S
C520 C522 1.363 . S
C520 H536 0.931 . S
C521 C520 1.370 . S
C521 C525 1.408 . S
C522 C520 1.363 . S
C522 C523 1.370 . S
C522 C526 1.524 . S
C523 C515 1.503 . S
C523 C522 1.370 . S
C523 C524 1.403 . S
C524 C523 1.403 . S
C524 C525 1.404 . S
C524 C527 1.539 . S
C525 C521 1.408 . S
C525 C524 1.404 . S
C525 H537 0.930 . S
C526 C522 1.524 . S
C526 H538 0.956 . S
C526 H539 0.961 . S
C526 H540 0.961 . S
C527 C524 1.539 . S
C527 H541 0.958 . S
C527 H542 0.961 . S
C527 H543 0.960 . S
H528 C512 0.931 . S
H529 C517 0.929 . S
H530 C518 0.960 . S
H531 C518 0.962 . S
H532 C518 0.960 . S
H533 C519 0.961 . S
H534 C519 0.961 . S
H535 C519 0.961 . S
H536 C520 0.931 . S
H537 C525 0.930 . S
H538 C526 0.956 . S
H539 C526 0.961 . S
H540 C526 0.961 . S
H541 C527 0.958 . S
H542 C527 0.961 . S
H543 C527 0.960 . S
C544 C545 1.391 . S
C544 C546 1.394 . S
C544 H560 0.931 . S
C545 C544 1.391 . S
C545 C549 1.376 . S
C546 C544 1.394 . S
C546 C547 1.369 . S
C546 C550 1.531 . S
C547 C546 1.369 . S
C547 C548 1.410 . S
C547 C555 1.503 . S
C548 C547 1.410 . S
C548 C549 1.392 . S
C548 C551 1.511 . S
C549 C545 1.376 . S
C549 C548 1.392 . S
C549 H561 0.929 . S
C550 C546 1.531 . S
C550 H562 0.960 . S
C550 H563 0.962 . S
C550 H564 0.960 . S
C551 C548 1.511 . S
C551 H565 0.961 . S
C551 H566 0.961 . S
C551 H567 0.961 . S
C552 C553 1.370 . S
C552 C554 1.363 . S
C552 H568 0.931 . S
C553 C552 1.370 . S
C553 C557 1.408 . S
C554 C552 1.363 . S
C554 C555 1.370 . S
C554 C558 1.524 . S
C555 C547 1.503 . S
C555 C554 1.370 . S
C555 C556 1.403 . S
C556 C555 1.403 . S
C556 C557 1.404 . S
C556 C559 1.539 . S
C557 C553 1.408 . S
C557 C556 1.404 . S
C557 H569 0.930 . S
C558 C554 1.524 . S
C558 H570 0.956 . S
C558 H571 0.961 . S
C558 H572 0.961 . S
C559 C556 1.539 . S
C559 H573 0.958 . S
C559 H574 0.961 . S
C559 H575 0.960 . S
H560 C544 0.931 . S
H561 C549 0.929 . S
H562 C550 0.960 . S
H563 C550 0.962 . S
H564 C550 0.960 . S
H565 C551 0.961 . S
H566 C551 0.961 . S
H567 C551 0.961 . S
H568 C552 0.931 . S
H569 C557 0.930 . S
H570 C558 0.956 . S
H571 C558 0.961 . S
H572 C558 0.961 . S
H573 C559 0.958 . S
H574 C559 0.961 . S
H575 C559 0.960 . S
C576 C577 1.391 . S
C576 C578 1.394 . S
C576 H592 0.931 . S
C577 C576 1.391 . S
C577 C581 1.376 . S
C578 C576 1.394 . S
C578 C579 1.369 . S
C578 C582 1.531 . S
C579 C578 1.369 . S
C579 C580 1.410 . S
C579 C587 1.503 . S
C580 C579 1.410 . S
C580 C581 1.392 . S
C580 C583 1.511 . S
C581 C577 1.376 . S
C581 C580 1.392 . S
C581 H593 0.929 . S
C582 C578 1.531 . S
C582 H594 0.960 . S
C582 H595 0.962 . S
C582 H596 0.960 . S
C583 C580 1.511 . S
C583 H597 0.961 . S
C583 H598 0.961 . S
C583 H599 0.961 . S
C584 C585 1.370 . S
C584 C586 1.363 . S
C584 H600 0.931 . S
C585 C584 1.370 . S
C585 C589 1.408 . S
C586 C584 1.363 . S
C586 C587 1.370 . S
C586 C590 1.524 . S
C587 C579 1.503 . S
C587 C586 1.370 . S
C587 C588 1.403 . S
C588 C587 1.403 . S
C588 C589 1.404 . S
C588 C591 1.539 . S
C589 C585 1.408 . S
C589 C588 1.404 . S
C589 H601 0.930 . S
C590 C586 1.524 . S
C590 H602 0.956 . S
C590 H603 0.961 . S
C590 H604 0.961 . S
C591 C588 1.539 . S
C591 H605 0.958 . S
C591 H606 0.961 . S
C591 H607 0.960 . S
H592 C576 0.931 . S
H593 C581 0.929 . S
H594 C582 0.960 . S
H595 C582 0.962 . S
H596 C582 0.960 . S
H597 C583 0.961 . S
H598 C583 0.961 . S
H599 C583 0.961 . S
H600 C584 0.931 . S
H601 C589 0.930 . S
H602 C590 0.956 . S
H603 C590 0.961 . S
H604 C590 0.961 . S
H605 C591 0.958 . S
H606 C591 0.961 . S
H607 C591 0.960 . S
C608 C609 1.391 . S
C608 C610 1.394 . S
C608 H624 0.931 . S
C609 C608 1.391 . S
C609 C613 1.376 . S
C610 C608 1.394 . S
C610 C611 1.369 . S
C610 C614 1.531 . S
C611 C610 1.369 . S
C611 C612 1.410 . S
C611 C619 1.503 . S
C612 C611 1.410 . S
C612 C613 1.392 . S
C612 C615 1.511 . S
C613 C609 1.376 . S
C613 C612 1.392 . S
C613 H625 0.929 . S
C614 C610 1.531 . S
C614 H626 0.960 . S
C614 H627 0.962 . S
C614 H628 0.960 . S
C615 C612 1.511 . S
C615 H629 0.961 . S
C615 H630 0.961 . S
C615 H631 0.961 . S
C616 C617 1.370 . S
C616 C618 1.363 . S
C616 H632 0.931 . S
C617 C616 1.370 . S
C617 C621 1.408 . S
C618 C616 1.363 . S
C618 C619 1.370 . S
C618 C622 1.524 . S
C619 C611 1.503 . S
C619 C618 1.370 . S
C619 C620 1.403 . S
C620 C619 1.403 . S
C620 C621 1.404 . S
C620 C623 1.539 . S
C621 C617 1.408 . S
C621 C620 1.404 . S
C621 H633 0.930 . S
C622 C618 1.524 . S
C622 H634 0.956 . S
C622 H635 0.961 . S
C622 H636 0.961 . S
C623 C620 1.539 . S
C623 H637 0.958 . S
C623 H638 0.961 . S
C623 H639 0.960 . S
H624 C608 0.931 . S
H625 C613 0.929 . S
H626 C614 0.960 . S
H627 C614 0.962 . S
H628 C614 0.960 . S
H629 C615 0.961 . S
H630 C615 0.961 . S
H631 C615 0.961 . S
H632 C616 0.931 . S
H633 C621 0.930 . S
H634 C622 0.956 . S
H635 C622 0.961 . S
H636 C622 0.961 . S
H637 C623 0.958 . S
H638 C623 0.961 . S
H639 C623 0.960 . S
C640 C641 1.391 . S
C640 C642 1.394 . S
C640 H656 0.931 . S
C641 C640 1.391 . S
C641 C645 1.376 . S
C642 C640 1.394 . S
C642 C643 1.369 . S
C642 C646 1.531 . S
C643 C642 1.369 . S
C643 C644 1.410 . S
C643 C651 1.503 . S
C644 C643 1.410 . S
C644 C645 1.392 . S
C644 C647 1.511 . S
C645 C641 1.376 . S
C645 C644 1.392 . S
C645 H657 0.929 . S
C646 C642 1.531 . S
C646 H658 0.960 . S
C646 H659 0.962 . S
C646 H660 0.960 . S
C647 C644 1.511 . S
C647 H661 0.961 . S
C647 H662 0.961 . S
C647 H663 0.961 . S
C648 C649 1.370 . S
C648 C650 1.363 . S
C648 H664 0.931 . S
C649 C648 1.370 . S
C649 C653 1.408 . S
C650 C648 1.363 . S
C650 C651 1.370 . S
C650 C654 1.524 . S
C651 C643 1.503 . S
C651 C650 1.370 . S
C651 C652 1.403 . S
C652 C651 1.403 . S
C652 C653 1.404 . S
C652 C655 1.539 . S
C653 C649 1.408 . S
C653 C652 1.404 . S
C653 H665 0.930 . S
C654 C650 1.524 . S
C654 H666 0.956 . S
C654 H667 0.961 . S
C654 H668 0.961 . S
C655 C652 1.539 . S
C655 H669 0.958 . S
C655 H670 0.961 . S
C655 H671 0.960 . S
H656 C640 0.931 . S
H657 C645 0.929 . S
H658 C646 0.960 . S
H659 C646 0.962 . S
H660 C646 0.960 . S
H661 C647 0.961 . S
H662 C647 0.961 . S
H663 C647 0.961 . S
H664 C648 0.931 . S
H665 C653 0.930 . S
H666 C654 0.956 . S
H667 C654 0.961 . S
H668 C654 0.961 . S
H669 C655 0.958 . S
H670 C655 0.961 . S
H671 C655 0.960 . S
C672 C673 1.391 . S
C672 C674 1.394 . S
C672 H688 0.931 . S
C673 C672 1.391 . S
C673 C677 1.376 . S
C674 C672 1.394 . S
C674 C675 1.369 . S
C674 C678 1.531 . S
C675 C674 1.369 . S
C675 C676 1.410 . S
C675 C683 1.503 . S
C676 C675 1.410 . S
C676 C677 1.392 . S
C676 C679 1.511 . S
C677 C673 1.376 . S
C677 C676 1.392 . S
C677 H689 0.929 . S
C678 C674 1.531 . S
C678 H690 0.960 . S
C678 H691 0.962 . S
C678 H692 0.960 . S
C679 C676 1.511 . S
C679 H693 0.961 . S
C679 H694 0.961 . S
C679 H695 0.961 . S
C680 C681 1.370 . S
C680 C682 1.363 . S
C680 H696 0.931 . S
C681 C680 1.370 . S
C681 C685 1.408 . S
C682 C680 1.363 . S
C682 C683 1.370 . S
C682 C686 1.524 . S
C683 C675 1.503 . S
C683 C682 1.370 . S
C683 C684 1.403 . S
C684 C683 1.403 . S
C684 C685 1.404 . S
C684 C687 1.539 . S
C685 C681 1.408 . S
C685 C684 1.404 . S
C685 H697 0.930 . S
C686 C682 1.524 . S
C686 H698 0.956 . S
C686 H699 0.961 . S
C686 H700 0.961 . S
C687 C684 1.539 . S
C687 H701 0.958 . S
C687 H702 0.961 . S
C687 H703 0.960 . S
H688 C672 0.931 . S
H689 C677 0.929 . S
H690 C678 0.960 . S
H691 C678 0.962 . S
H692 C678 0.960 . S
H693 C679 0.961 . S
H694 C679 0.961 . S
H695 C679 0.961 . S
H696 C680 0.931 . S
H697 C685 0.930 . S
H698 C686 0.956 . S
H699 C686 0.961 . S
H700 C686 0.961 . S
H701 C687 0.958 . S
H702 C687 0.961 . S
H703 C687 0.960 . S
C704 C705 1.391 . S
C704 C706 1.394 . S
C704 H720 0.931 . S
C705 C704 1.391 . S
C705 C709 1.376 . S
C706 C704 1.394 . S
C706 C707 1.369 . S
C706 C710 1.531 . S
C707 C706 1.369 . S
C707 C708 1.410 . S
C707 C715 1.503 . S
C708 C707 1.410 . S
C708 C709 1.392 . S
C708 C711 1.511 . S
C709 C705 1.376 . S
C709 C708 1.392 . S
C709 H721 0.929 . S
C710 C706 1.531 . S
C710 H722 0.960 . S
C710 H723 0.962 . S
C710 H724 0.960 . S
C711 C708 1.511 . S
C711 H725 0.961 . S
C711 H726 0.961 . S
C711 H727 0.961 . S
C712 C713 1.370 . S
C712 C714 1.363 . S
C712 H728 0.931 . S
C713 C712 1.370 . S
C713 C717 1.408 . S
C714 C712 1.363 . S
C714 C715 1.370 . S
C714 C718 1.524 . S
C715 C707 1.503 . S
C715 C714 1.370 . S
C715 C716 1.403 . S
C716 C715 1.403 . S
C716 C717 1.404 . S
C716 C719 1.539 . S
C717 C713 1.408 . S
C717 C716 1.404 . S
C717 H729 0.930 . S
C718 C714 1.524 . S
C718 H730 0.956 . S
C718 H731 0.961 . S
C718 H732 0.961 . S
C719 C716 1.539 . S
C719 H733 0.958 . S
C719 H734 0.961 . S
C719 H735 0.960 . S
H720 C704 0.931 . S
H721 C709 0.929 . S
H722 C710 0.960 . S
H723 C710 0.962 . S
H724 C710 0.960 . S
H725 C711 0.961 . S
H726 C711 0.961 . S
H727 C711 0.961 . S
H728 C712 0.931 . S
H729 C717 0.930 . S
H730 C718 0.956 . S
H731 C718 0.961 . S
H732 C718 0.961 . S
H733 C719 0.958 . S
H734 C719 0.961 . S
H735 C719 0.960 . S
C736 C737 1.391 . S
C736 C738 1.394 . S
C736 H752 0.931 . S
C737 C736 1.391 . S
C737 C741 1.376 . S
C738 C736 1.394 . S
C738 C739 1.369 . S
C738 C742 1.531 . S
C739 C738 1.369 . S
C739 C740 1.410 . S
C739 C747 1.503 . S
C740 C739 1.410 . S
C740 C741 1.392 . S
C740 C743 1.511 . S
C741 C737 1.376 . S
C741 C740 1.392 . S
C741 H753 0.929 . S
C742 C738 1.531 . S
C742 H754 0.960 . S
C742 H755 0.962 . S
C742 H756 0.960 . S
C743 C740 1.511 . S
C743 H757 0.961 . S
C743 H758 0.961 . S
C743 H759 0.961 . S
C744 C745 1.370 . S
C744 C746 1.363 . S
C744 H760 0.931 . S
C745 C744 1.370 . S
C745 C749 1.408 . S
C746 C744 1.363 . S
C746 C747 1.370 . S
C746 C750 1.524 . S
C747 C739 1.503 . S
C747 C746 1.370 . S
C747 C748 1.403 . S
C748 C747 1.403 . S
C748 C749 1.404 . S
C748 C751 1.539 . S
C749 C745 1.408 . S
C749 C748 1.404 . S
C749 H761 0.930 . S
C750 C746 1.524 . S
C750 H762 0.956 . S
C750 H763 0.961 . S
C750 H764 0.961 . S
C751 C748 1.539 . S
C751 H765 0.958 . S
C751 H766 0.961 . S
C751 H767 0.960 . S
H752 C736 0.931 . S
H753 C741 0.929 . S
H754 C742 0.960 . S
H755 C742 0.962 . S
H756 C742 0.960 . S
H757 C743 0.961 . S
H758 C743 0.961 . S
H759 C743 0.961 . S
H760 C744 0.931 . S
H761 C749 0.930 . S
H762 C750 0.956 . S
H763 C750 0.961 . S
H764 C750 0.961 . S
H765 C751 0.958 . S
H766 C751 0.961 . S
H767 C751 0.960 . S
C768 C769 1.391 . S
C768 C770 1.394 . S
C768 H784 0.931 . S
C769 C768 1.391 . S
C769 C773 1.376 . S
C770 C768 1.394 . S
C770 C771 1.369 . S
C770 C774 1.531 . S
C771 C770 1.369 . S
C771 C772 1.410 . S
C771 C779 1.503 . S
C772 C771 1.410 . S
C772 C773 1.392 . S
C772 C775 1.511 . S
C773 C769 1.376 . S
C773 C772 1.392 . S
C773 H785 0.929 . S
C774 C770 1.531 . S
C774 H786 0.960 . S
C774 H787 0.962 . S
C774 H788 0.960 . S
C775 C772 1.511 . S
C775 H789 0.961 . S
C775 H790 0.961 . S
C775 H791 0.961 . S
C776 C777 1.370 . S
C776 C778 1.363 . S
C776 H792 0.931 . S
C777 C776 1.370 . S
C777 C781 1.408 . S
C778 C776 1.363 . S
C778 C779 1.370 . S
C778 C782 1.524 . S
C779 C771 1.503 . S
C779 C778 1.370 . S
C779 C780 1.403 . S
C780 C779 1.403 . S
C780 C781 1.404 . S
C780 C783 1.539 . S
C781 C777 1.408 . S
C781 C780 1.404 . S
C781 H793 0.930 . S
C782 C778 1.524 . S
C782 H794 0.956 . S
C782 H795 0.961 . S
C782 H796 0.961 . S
C783 C780 1.539 . S
C783 H797 0.958 . S
C783 H798 0.961 . S
C783 H799 0.960 . S
H784 C768 0.931 . S
H785 C773 0.929 . S
H786 C774 0.960 . S
H787 C774 0.962 . S
H788 C774 0.960 . S
H789 C775 0.961 . S
H790 C775 0.961 . S
H791 C775 0.961 . S
H792 C776 0.931 . S
H793 C781 0.930 . S
H794 C782 0.956 . S
H795 C782 0.961 . S
H796 C782 0.961 . S
H797 C783 0.958 . S
H798 C783 0.961 . S
H799 C783 0.960 . S
C800 C801 1.391 . S
C800 C802 1.394 . S
C800 H816 0.931 . S
C801 C800 1.391 . S
C801 C805 1.376 . S
C802 C800 1.394 . S
C802 C803 1.369 . S
C802 C806 1.531 . S
C803 C802 1.369 . S
C803 C804 1.410 . S
C803 C811 1.503 . S
C804 C803 1.410 . S
C804 C805 1.392 . S
C804 C807 1.511 . S
C805 C801 1.376 . S
C805 C804 1.392 . S
C805 H817 0.929 . S
C806 C802 1.531 . S
C806 H818 0.960 . S
C806 H819 0.962 . S
C806 H820 0.960 . S
C807 C804 1.511 . S
C807 H821 0.961 . S
C807 H822 0.961 . S
C807 H823 0.961 . S
C808 C809 1.370 . S
C808 C810 1.363 . S
C808 H824 0.931 . S
C809 C808 1.370 . S
C809 C813 1.408 . S
C810 C808 1.363 . S
C810 C811 1.370 . S
C810 C814 1.524 . S
C811 C803 1.503 . S
C811 C810 1.370 . S
C811 C812 1.403 . S
C812 C811 1.403 . S
C812 C813 1.404 . S
C812 C815 1.539 . S
C813 C809 1.408 . S
C813 C812 1.404 . S
C813 H825 0.930 . S
C814 C810 1.524 . S
C814 H826 0.956 . S
C814 H827 0.961 . S
C814 H828 0.961 . S
C815 C812 1.539 . S
C815 H829 0.958 . S
C815 H830 0.961 . S
C815 H831 0.960 . S
H816 C800 0.931 . S
H817 C805 0.929 . S
H818 C806 0.960 . S
H819 C806 0.962 . S
H820 C806 0.960 . S
H821 C807 0.961 . S
H822 C807 0.961 . S
H823 C807 0.961 . S
H824 C808 0.931 . S
H825 C813 0.930 . S
H826 C814 0.956 . S
H827 C814 0.961 . S
H828 C814 0.961 . S
H829 C815 0.958 . S
H830 C815 0.961 . S
H831 C815 0.960 . S
C832 C833 1.391 . S
C832 C834 1.394 . S
C832 H848 0.931 . S
C833 C832 1.391 . S
C833 C837 1.376 . S
C834 C832 1.394 . S
C834 C835 1.369 . S
C834 C838 1.531 . S
C835 C834 1.369 . S
C835 C836 1.410 . S
C835 C843 1.503 . S
C836 C835 1.410 . S
C836 C837 1.392 . S
C836 C839 1.511 . S
C837 C833 1.376 . S
C837 C836 1.392 . S
C837 H849 0.929 1_565 S
C838 C834 1.531 . S
C838 H850 0.960 . S
C838 H851 0.962 . S
C838 H852 0.960 . S
C839 C836 1.511 . S
C839 H853 0.961 1_565 S
C839 H854 0.961 . S
C839 H855 0.961 . S
C840 C841 1.370 . S
C840 C842 1.363 . S
C840 H856 0.931 . S
C841 C840 1.370 . S
C841 C845 1.408 . S
C842 C840 1.363 . S
C842 C843 1.370 . S
C842 C846 1.524 . S
C843 C835 1.503 . S
C843 C842 1.370 . S
C843 C844 1.403 . S
C844 C843 1.403 . S
C844 C845 1.404 . S
C844 C847 1.539 . S
C845 C841 1.408 . S
C845 C844 1.404 . S
C845 H857 0.930 . S
C846 C842 1.524 . S
C846 H858 0.956 . S
C846 H859 0.961 . S
C846 H860 0.961 . S
C847 C844 1.539 . S
C847 H861 0.958 . S
C847 H862 0.961 . S
C847 H863 0.960 . S
H848 C832 0.931 . S
H849 C837 0.929 1_545 S
H850 C838 0.960 . S
H851 C838 0.962 . S
H852 C838 0.960 . S
H853 C839 0.961 1_545 S
H854 C839 0.961 . S
H855 C839 0.961 . S
H856 C840 0.931 . S
H857 C845 0.930 . S
H858 C846 0.956 . S
H859 C846 0.961 . S
H860 C846 0.961 . S
H861 C847 0.958 . S
H862 C847 0.961 . S
H863 C847 0.960 . S
C864 C865 1.391 . S
C864 C866 1.394 . S
C864 H880 0.931 . S
C865 C864 1.391 . S
C865 C869 1.376 . S
C866 C864 1.394 . S
C866 C867 1.369 . S
C866 C870 1.531 . S
C867 C866 1.369 . S
C867 C868 1.410 . S
C867 C875 1.503 . S
C868 C867 1.410 . S
C868 C869 1.392 . S
C868 C871 1.511 . S
C869 C865 1.376 . S
C869 C868 1.392 . S
C869 H881 0.929 . S
C870 C866 1.531 . S
C870 H882 0.960 . S
C870 H883 0.962 . S
C870 H884 0.960 . S
C871 C868 1.511 . S
C871 H885 0.961 . S
C871 H886 0.961 . S
C871 H887 0.961 . S
C872 C873 1.370 . S
C872 C874 1.363 . S
C872 H888 0.931 . S
C873 C872 1.370 . S
C873 C877 1.408 . S
C874 C872 1.363 . S
C874 C875 1.370 . S
C874 C878 1.524 . S
C875 C867 1.503 . S
C875 C874 1.370 . S
C875 C876 1.403 . S
C876 C875 1.403 . S
C876 C877 1.404 . S
C876 C879 1.539 . S
C877 C873 1.408 . S
C877 C876 1.404 . S
C877 H889 0.930 . S
C878 C874 1.524 . S
C878 H890 0.956 . S
C878 H891 0.961 . S
C878 H892 0.961 . S
C879 C876 1.539 . S
C879 H893 0.958 . S
C879 H894 0.961 . S
C879 H895 0.960 . S
H880 C864 0.931 . S
H881 C869 0.929 . S
H882 C870 0.960 . S
H883 C870 0.962 . S
H884 C870 0.960 . S
H885 C871 0.961 . S
H886 C871 0.961 . S
H887 C871 0.961 . S
H888 C872 0.931 . S
H889 C877 0.930 . S
H890 C878 0.956 . S
H891 C878 0.961 . S
H892 C878 0.961 . S
H893 C879 0.958 . S
H894 C879 0.961 . S
H895 C879 0.960 . S
C896 C897 1.391 . S
C896 C898 1.394 . S
C896 H912 0.931 . S
C897 C896 1.391 . S
C897 C901 1.376 . S
C898 C896 1.394 . S
C898 C899 1.369 . S
C898 C902 1.531 . S
C899 C898 1.369 . S
C899 C900 1.410 . S
C899 C907 1.503 . S
C900 C899 1.410 . S
C900 C901 1.392 . S
C900 C903 1.511 . S
C901 C897 1.376 . S
C901 C900 1.392 . S
C901 H913 0.929 . S
C902 C898 1.531 . S
C902 H914 0.960 . S
C902 H915 0.962 . S
C902 H916 0.960 . S
C903 C900 1.511 . S
C903 H917 0.961 . S
C903 H918 0.961 . S
C903 H919 0.961 . S
C904 C905 1.370 . S
C904 C906 1.363 . S
C904 H920 0.931 . S
C905 C904 1.370 . S
C905 C909 1.408 . S
C906 C904 1.363 . S
C906 C907 1.370 . S
C906 C910 1.524 . S
C907 C899 1.503 . S
C907 C906 1.370 . S
C907 C908 1.403 . S
C908 C907 1.403 . S
C908 C909 1.404 . S
C908 C911 1.539 . S
C909 C905 1.408 . S
C909 C908 1.404 . S
C909 H921 0.930 . S
C910 C906 1.524 . S
C910 H922 0.956 . S
C910 H923 0.961 . S
C910 H924 0.961 . S
C911 C908 1.539 . S
C911 H925 0.958 . S
C911 H926 0.961 . S
C911 H927 0.960 . S
H912 C896 0.931 . S
H913 C901 0.929 . S
H914 C902 0.960 . S
H915 C902 0.962 . S
H916 C902 0.960 . S
H917 C903 0.961 . S
H918 C903 0.961 . S
H919 C903 0.961 . S
H920 C904 0.931 . S
H921 C909 0.930 . S
H922 C910 0.956 . S
H923 C910 0.961 . S
H924 C910 0.961 . S
H925 C911 0.958 . S
H926 C911 0.961 . S
H927 C911 0.960 . S
C928 C929 1.391 . S
C928 C930 1.394 . S
C928 H944 0.931 . S
C929 C928 1.391 . S
C929 C933 1.376 . S
C930 C928 1.394 . S
C930 C931 1.369 . S
C930 C934 1.531 . S
C931 C930 1.369 . S
C931 C932 1.410 . S
C931 C939 1.503 . S
C932 C931 1.410 . S
C932 C933 1.392 . S
C932 C935 1.511 . S
C933 C929 1.376 . S
C933 C932 1.392 . S
C933 H945 0.929 . S
C934 C930 1.531 . S
C934 H946 0.960 . S
C934 H947 0.962 . S
C934 H948 0.960 . S
C935 C932 1.511 . S
C935 H949 0.961 . S
C935 H950 0.961 . S
C935 H951 0.961 . S
C936 C937 1.370 . S
C936 C938 1.363 . S
C936 H952 0.931 . S
C937 C936 1.370 . S
C937 C941 1.408 . S
C938 C936 1.363 . S
C938 C939 1.370 . S
C938 C942 1.524 . S
C939 C931 1.503 . S
C939 C938 1.370 . S
C939 C940 1.403 . S
C940 C939 1.403 . S
C940 C941 1.404 . S
C940 C943 1.539 . S
C941 C937 1.408 . S
C941 C940 1.404 . S
C941 H953 0.930 . S
C942 C938 1.524 . S
C942 H954 0.956 . S
C942 H955 0.961 . S
C942 H956 0.961 . S
C943 C940 1.539 . S
C943 H957 0.958 . S
C943 H958 0.961 . S
C943 H959 0.960 . S
H944 C928 0.931 . S
H945 C933 0.929 . S
H946 C934 0.960 . S
H947 C934 0.962 . S
H948 C934 0.960 . S
H949 C935 0.961 . S
H950 C935 0.961 . S
H951 C935 0.961 . S
H952 C936 0.931 . S
H953 C941 0.930 . S
H954 C942 0.956 . S
H955 C942 0.961 . S
H956 C942 0.961 . S
H957 C943 0.958 . S
H958 C943 0.961 . S
H959 C943 0.960 . S
C960 C961 1.391 . S
C960 C962 1.394 . S
C960 H976 0.931 . S
C961 C960 1.391 . S
C961 C965 1.376 . S
C962 C960 1.394 . S
C962 C963 1.369 . S
C962 C966 1.531 . S
C963 C962 1.369 . S
C963 C964 1.410 . S
C963 C971 1.503 . S
C964 C963 1.410 . S
C964 C965 1.392 . S
C964 C967 1.511 . S
C965 C961 1.376 . S
C965 C964 1.392 . S
C965 H977 0.929 . S
C966 C962 1.531 . S
C966 H978 0.960 . S
C966 H979 0.962 . S
C966 H980 0.960 . S
C967 C964 1.511 . S
C967 H981 0.961 . S
C967 H982 0.961 . S
C967 H983 0.961 . S
C968 C969 1.370 . S
C968 C970 1.363 . S
C968 H984 0.931 . S
C969 C968 1.370 . S
C969 C973 1.408 . S
C970 C968 1.363 . S
C970 C971 1.370 . S
C970 C974 1.524 . S
C971 C963 1.503 . S
C971 C970 1.370 . S
C971 C972 1.403 . S
C972 C971 1.403 . S
C972 C973 1.404 . S
C972 C975 1.539 . S
C973 C969 1.408 . S
C973 C972 1.404 . S
C973 H985 0.930 . S
C974 C970 1.524 . S
C974 H986 0.956 . S
C974 H987 0.961 . S
C974 H988 0.961 . S
C975 C972 1.539 . S
C975 H989 0.958 . S
C975 H990 0.961 . S
C975 H991 0.960 . S
H976 C960 0.931 . S
H977 C965 0.929 . S
H978 C966 0.960 . S
H979 C966 0.962 . S
H980 C966 0.960 . S
H981 C967 0.961 . S
H982 C967 0.961 . S
H983 C967 0.961 . S
H984 C968 0.931 . S
H985 C973 0.930 . S
H986 C974 0.956 . S
H987 C974 0.961 . S
H988 C974 0.961 . S
H989 C975 0.958 . S
H990 C975 0.961 . S
H991 C975 0.960 . S
C992 C993 1.391 . S
C992 C994 1.394 . S
C992 H1008 0.931 . S
C993 C992 1.391 . S
C993 C997 1.376 . S
C994 C992 1.394 . S
C994 C995 1.369 . S
C994 C998 1.531 . S
C995 C994 1.369 . S
C995 C996 1.410 . S
C995 C1003 1.503 . S
C996 C995 1.410 . S
C996 C997 1.392 . S
C996 C999 1.511 . S
C997 C993 1.376 . S
C997 C996 1.392 . S
C997 H1009 0.929 . S
C998 C994 1.531 . S
C998 H1010 0.960 . S
C998 H1011 0.962 . S
C998 H1012 0.960 . S
C999 C996 1.511 . S
C999 H1013 0.961 . S
C999 H1014 0.961 . S
C999 H1015 0.961 . S
C1000 C1001 1.370 . S
C1000 C1002 1.363 . S
C1000 H1016 0.931 . S
C1001 C1000 1.370 . S
C1001 C1005 1.408 . S
C1002 C1000 1.363 . S
C1002 C1003 1.370 . S
C1002 C1006 1.524 . S
C1003 C995 1.503 . S
C1003 C1002 1.370 . S
C1003 C1004 1.403 . S
C1004 C1003 1.403 . S
C1004 C1005 1.404 . S
C1004 C1007 1.539 . S
C1005 C1001 1.408 . S
C1005 C1004 1.404 . S
C1005 H1017 0.930 . S
C1006 C1002 1.524 . S
C1006 H1018 0.956 . S
C1006 H1019 0.961 . S
C1006 H1020 0.961 . S
C1007 C1004 1.539 . S
C1007 H1021 0.958 . S
C1007 H1022 0.961 . S
C1007 H1023 0.960 . S
H1008 C992 0.931 . S
H1009 C997 0.929 . S
H1010 C998 0.960 . S
H1011 C998 0.962 . S
H1012 C998 0.960 . S
H1013 C999 0.961 . S
H1014 C999 0.961 . S
H1015 C999 0.961 . S
H1016 C1000 0.931 . S
H1017 C1005 0.930 . S
H1018 C1006 0.956 . S
H1019 C1006 0.961 . S
H1020 C1006 0.961 . S
H1021 C1007 0.958 . S
H1022 C1007 0.961 . S
H1023 C1007 0.960 . S
C1024 C1025 1.391 . S
C1024 C1026 1.394 . S
C1024 H1040 0.931 . S
C1025 C1024 1.391 . S
C1025 C1029 1.376 . S
C1026 C1024 1.394 . S
C1026 C1027 1.369 . S
C1026 C1030 1.531 . S
C1027 C1026 1.369 . S
C1027 C1028 1.410 . S
C1027 C1035 1.503 . S
C1028 C1027 1.410 . S
C1028 C1029 1.392 . S
C1028 C1031 1.511 . S
C1029 C1025 1.376 . S
C1029 C1028 1.392 . S
C1029 H1041 0.929 . S
C1030 C1026 1.531 . S
C1030 H1042 0.960 . S
C1030 H1043 0.962 . S
C1030 H1044 0.960 . S
C1031 C1028 1.511 . S
C1031 H1045 0.961 . S
C1031 H1046 0.961 . S
C1031 H1047 0.961 . S
C1032 C1033 1.370 . S
C1032 C1034 1.363 . S
C1032 H1048 0.931 . S
C1033 C1032 1.370 . S
C1033 C1037 1.408 . S
C1034 C1032 1.363 . S
C1034 C1035 1.370 . S
C1034 C1038 1.524 . S
C1035 C1027 1.503 . S
C1035 C1034 1.370 . S
C1035 C1036 1.403 . S
C1036 C1035 1.403 . S
C1036 C1037 1.404 . S
C1036 C1039 1.539 . S
C1037 C1033 1.408 . S
C1037 C1036 1.404 . S
C1037 H1049 0.930 . S
C1038 C1034 1.524 . S
C1038 H1050 0.956 . S
C1038 H1051 0.961 . S
C1038 H1052 0.961 . S
C1039 C1036 1.539 . S
C1039 H1053 0.958 . S
C1039 H1054 0.961 . S
C1039 H1055 0.960 . S
H1040 C1024 0.931 . S
H1041 C1029 0.929 . S
H1042 C1030 0.960 . S
H1043 C1030 0.962 . S
H1044 C1030 0.960 . S
H1045 C1031 0.961 . S
H1046 C1031 0.961 . S
H1047 C1031 0.961 . S
H1048 C1032 0.931 . S
H1049 C1037 0.930 . S
H1050 C1038 0.956 . S
H1051 C1038 0.961 . S
H1052 C1038 0.961 . S
H1053 C1039 0.958 . S
H1054 C1039 0.961 . S
H1055 C1039 0.960 . S
C1056 C1057 1.391 . S
C1056 C1058 1.394 . S
C1056 H1072 0.931 . S
C1057 C1056 1.391 . S
C1057 C1061 1.376 . S
C1058 C1056 1.394 . S
C1058 C1059 1.369 . S
C1058 C1062 1.531 . S
C1059 C1058 1.369 . S
C1059 C1060 1.410 . S
C1059 C1067 1.503 . S
C1060 C1059 1.410 . S
C1060 C1061 1.392 . S
C1060 C1063 1.511 . S
C1061 C1057 1.376 . S
C1061 C1060 1.392 . S
C1061 H1073 0.929 . S
C1062 C1058 1.531 . S
C1062 H1074 0.960 . S
C1062 H1075 0.962 . S
C1062 H1076 0.960 . S
C1063 C1060 1.511 . S
C1063 H1077 0.961 . S
C1063 H1078 0.961 . S
C1063 H1079 0.961 . S
C1064 C1065 1.370 . S
C1064 C1066 1.363 . S
C1064 H1080 0.931 . S
C1065 C1064 1.370 . S
C1065 C1069 1.408 . S
C1066 C1064 1.363 . S
C1066 C1067 1.370 . S
C1066 C1070 1.524 . S
C1067 C1059 1.503 . S
C1067 C1066 1.370 . S
C1067 C1068 1.403 . S
C1068 C1067 1.403 . S
C1068 C1069 1.404 . S
C1068 C1071 1.539 . S
C1069 C1065 1.408 . S
C1069 C1068 1.404 . S
C1069 H1081 0.930 . S
C1070 C1066 1.524 . S
C1070 H1082 0.956 . S
C1070 H1083 0.961 . S
C1070 H1084 0.961 . S
C1071 C1068 1.539 . S
C1071 H1085 0.958 . S
C1071 H1086 0.961 . S
C1071 H1087 0.960 . S
H1072 C1056 0.931 . S
H1073 C1061 0.929 . S
H1074 C1062 0.960 . S
H1075 C1062 0.962 . S
H1076 C1062 0.960 . S
H1077 C1063 0.961 . S
H1078 C1063 0.961 . S
H1079 C1063 0.961 . S
H1080 C1064 0.931 . S
H1081 C1069 0.930 . S
H1082 C1070 0.956 . S
H1083 C1070 0.961 . S
H1084 C1070 0.961 . S
H1085 C1071 0.958 . S
H1086 C1071 0.961 . S
H1087 C1071 0.960 . S
C1088 C1089 1.391 . S
C1088 C1090 1.394 . S
C1088 H1104 0.931 . S
C1089 C1088 1.391 . S
C1089 C1093 1.376 . S
C1090 C1088 1.394 . S
C1090 C1091 1.369 . S
C1090 C1094 1.531 . S
C1091 C1090 1.369 . S
C1091 C1092 1.410 . S
C1091 C1099 1.503 . S
C1092 C1091 1.410 . S
C1092 C1093 1.392 . S
C1092 C1095 1.511 . S
C1093 C1089 1.376 . S
C1093 C1092 1.392 . S
C1093 H1105 0.929 . S
C1094 C1090 1.531 . S
C1094 H1106 0.960 . S
C1094 H1107 0.962 . S
C1094 H1108 0.960 . S
C1095 C1092 1.511 . S
C1095 H1109 0.961 . S
C1095 H1110 0.961 . S
C1095 H1111 0.961 . S
C1096 C1097 1.370 . S
C1096 C1098 1.363 . S
C1096 H1112 0.931 . S
C1097 C1096 1.370 . S
C1097 C1101 1.408 . S
C1098 C1096 1.363 . S
C1098 C1099 1.370 . S
C1098 C1102 1.524 . S
C1099 C1091 1.503 . S
C1099 C1098 1.370 . S
C1099 C1100 1.403 . S
C1100 C1099 1.403 . S
C1100 C1101 1.404 . S
C1100 C1103 1.539 . S
C1101 C1097 1.408 . S
C1101 C1100 1.404 . S
C1101 H1113 0.930 . S
C1102 C1098 1.524 . S
C1102 H1114 0.956 . S
C1102 H1115 0.961 . S
C1102 H1116 0.961 . S
C1103 C1100 1.539 . S
C1103 H1117 0.958 . S
C1103 H1118 0.961 . S
C1103 H1119 0.960 . S
H1104 C1088 0.931 . S
H1105 C1093 0.929 . S
H1106 C1094 0.960 . S
H1107 C1094 0.962 . S
H1108 C1094 0.960 . S
H1109 C1095 0.961 . S
H1110 C1095 0.961 . S
H1111 C1095 0.961 . S
H1112 C1096 0.931 . S
H1113 C1101 0.930 . S
H1114 C1102 0.956 . S
H1115 C1102 0.961 . S
H1116 C1102 0.961 . S
H1117 C1103 0.958 . S
H1118 C1103 0.961 . S
H1119 C1103 0.960 . S
C1120 C1121 1.391 . S
C1120 C1122 1.394 . S
C1120 H1136 0.931 . S
C1121 C1120 1.391 . S
C1121 C1125 1.376 . S
C1122 C1120 1.394 . S
C1122 C1123 1.369 . S
C1122 C1126 1.531 . S
C1123 C1122 1.369 . S
C1123 C1124 1.410 . S
C1123 C1131 1.503 . S
C1124 C1123 1.410 . S
C1124 C1125 1.392 . S
C1124 C1127 1.511 . S
C1125 C1121 1.376 . S
C1125 C1124 1.392 . S
C1125 H1137 0.929 . S
C1126 C1122 1.531 . S
C1126 H1138 0.960 . S
C1126 H1139 0.962 . S
C1126 H1140 0.960 . S
C1127 C1124 1.511 . S
C1127 H1141 0.961 . S
C1127 H1142 0.961 . S
C1127 H1143 0.961 . S
C1128 C1129 1.370 . S
C1128 C1130 1.363 . S
C1128 H1144 0.931 . S
C1129 C1128 1.370 . S
C1129 C1133 1.408 . S
C1130 C1128 1.363 . S
C1130 C1131 1.370 . S
C1130 C1134 1.524 . S
C1131 C1123 1.503 . S
C1131 C1130 1.370 . S
C1131 C1132 1.403 . S
C1132 C1131 1.403 . S
C1132 C1133 1.404 . S
C1132 C1135 1.539 . S
C1133 C1129 1.408 . S
C1133 C1132 1.404 . S
C1133 H1145 0.930 . S
C1134 C1130 1.524 . S
C1134 H1146 0.956 . S
C1134 H1147 0.961 . S
C1134 H1148 0.961 . S
C1135 C1132 1.539 . S
C1135 H1149 0.958 . S
C1135 H1150 0.961 . S
C1135 H1151 0.960 . S
H1136 C1120 0.931 . S
H1137 C1125 0.929 . S
H1138 C1126 0.960 . S
H1139 C1126 0.962 . S
H1140 C1126 0.960 . S
H1141 C1127 0.961 . S
H1142 C1127 0.961 . S
H1143 C1127 0.961 . S
H1144 C1128 0.931 . S
H1145 C1133 0.930 . S
H1146 C1134 0.956 . S
H1147 C1134 0.961 . S
H1148 C1134 0.961 . S
H1149 C1135 0.958 . S
H1150 C1135 0.961 . S
H1151 C1135 0.960 . S
C1152 C1153 1.391 . S
C1152 C1154 1.394 . S
C1152 H1168 0.931 . S
C1153 C1152 1.391 . S
C1153 C1157 1.376 . S
C1154 C1152 1.394 . S
C1154 C1155 1.369 . S
C1154 C1158 1.531 . S
C1155 C1154 1.369 . S
C1155 C1156 1.410 . S
C1155 C1163 1.503 . S
C1156 C1155 1.410 . S
C1156 C1157 1.392 . S
C1156 C1159 1.511 . S
C1157 C1153 1.376 . S
C1157 C1156 1.392 . S
C1157 H1169 0.929 . S
C1158 C1154 1.531 . S
C1158 H1170 0.960 . S
C1158 H1171 0.962 . S
C1158 H1172 0.960 . S
C1159 C1156 1.511 . S
C1159 H1173 0.961 . S
C1159 H1174 0.961 . S
C1159 H1175 0.961 . S
C1160 C1161 1.370 . S
C1160 C1162 1.363 . S
C1160 H1176 0.931 . S
C1161 C1160 1.370 . S
C1161 C1165 1.408 . S
C1162 C1160 1.363 . S
C1162 C1163 1.370 . S
C1162 C1166 1.524 . S
C1163 C1155 1.503 . S
C1163 C1162 1.370 . S
C1163 C1164 1.403 . S
C1164 C1163 1.403 . S
C1164 C1165 1.404 . S
C1164 C1167 1.539 . S
C1165 C1161 1.408 . S
C1165 C1164 1.404 . S
C1165 H1177 0.930 . S
C1166 C1162 1.524 . S
C1166 H1178 0.956 . S
C1166 H1179 0.961 . S
C1166 H1180 0.961 . S
C1167 C1164 1.539 . S
C1167 H1181 0.958 . S
C1167 H1182 0.961 . S
C1167 H1183 0.960 . S
H1168 C1152 0.931 . S
H1169 C1157 0.929 . S
H1170 C1158 0.960 . S
H1171 C1158 0.962 . S
H1172 C1158 0.960 . S
H1173 C1159 0.961 . S
H1174 C1159 0.961 . S
H1175 C1159 0.961 . S
H1176 C1160 0.931 . S
H1177 C1165 0.930 . S
H1178 C1166 0.956 . S
H1179 C1166 0.961 . S
H1180 C1166 0.961 . S
H1181 C1167 0.958 . S
H1182 C1167 0.961 . S
H1183 C1167 0.960 . S
C1184 C1185 1.391 . S
C1184 C1186 1.394 . S
C1184 H1200 0.931 . S
C1185 C1184 1.391 . S
C1185 C1189 1.376 . S
C1186 C1184 1.394 . S
C1186 C1187 1.369 . S
C1186 C1190 1.531 . S
C1187 C1186 1.369 . S
C1187 C1188 1.410 . S
C1187 C1195 1.503 . S
C1188 C1187 1.410 . S
C1188 C1189 1.392 . S
C1188 C1191 1.511 . S
C1189 C1185 1.376 . S
C1189 C1188 1.392 . S
C1189 H1201 0.929 . S
C1190 C1186 1.531 . S
C1190 H1202 0.960 . S
C1190 H1203 0.962 . S
C1190 H1204 0.960 . S
C1191 C1188 1.511 . S
C1191 H1205 0.961 . S
C1191 H1206 0.961 . S
C1191 H1207 0.961 . S
C1192 C1193 1.370 . S
C1192 C1194 1.363 . S
C1192 H1208 0.931 . S
C1193 C1192 1.370 . S
C1193 C1197 1.408 . S
C1194 C1192 1.363 . S
C1194 C1195 1.370 . S
C1194 C1198 1.524 . S
C1195 C1187 1.503 . S
C1195 C1194 1.370 . S
C1195 C1196 1.403 . S
C1196 C1195 1.403 . S
C1196 C1197 1.404 . S
C1196 C1199 1.539 . S
C1197 C1193 1.408 . S
C1197 C1196 1.404 . S
C1197 H1209 0.930 . S
C1198 C1194 1.524 . S
C1198 H1210 0.956 . S
C1198 H1211 0.961 . S
C1198 H1212 0.961 . S
C1199 C1196 1.539 . S
C1199 H1213 0.958 . S
C1199 H1214 0.961 . S
C1199 H1215 0.960 . S
H1200 C1184 0.931 . S
H1201 C1189 0.929 . S
H1202 C1190 0.960 . S
H1203 C1190 0.962 . S
H1204 C1190 0.960 . S
H1205 C1191 0.961 . S
H1206 C1191 0.961 . S
H1207 C1191 0.961 . S
H1208 C1192 0.931 . S
H1209 C1197 0.930 . S
H1210 C1198 0.956 . S
H1211 C1198 0.961 . S
H1212 C1198 0.961 . S
H1213 C1199 0.958 . S
H1214 C1199 0.961 . S
H1215 C1199 0.960 . S
C1216 C1217 1.391 . S
C1216 C1218 1.394 . S
C1216 H1232 0.931 . S
C1217 C1216 1.391 . S
C1217 C1221 1.376 . S
C1218 C1216 1.394 . S
C1218 C1219 1.369 . S
C1218 C1222 1.531 . S
C1219 C1218 1.369 . S
C1219 C1220 1.410 . S
C1219 C1227 1.503 . S
C1220 C1219 1.410 . S
C1220 C1221 1.392 . S
C1220 C1223 1.511 . S
C1221 C1217 1.376 . S
C1221 C1220 1.392 . S
C1221 H1233 0.929 . S
C1222 C1218 1.531 . S
C1222 H1234 0.960 . S
C1222 H1235 0.962 . S
C1222 H1236 0.960 . S
C1223 C1220 1.511 . S
C1223 H1237 0.961 . S
C1223 H1238 0.961 . S
C1223 H1239 0.961 . S
C1224 C1225 1.370 . S
C1224 C1226 1.363 . S
C1224 H1240 0.931 . S
C1225 C1224 1.370 . S
C1225 C1229 1.408 . S
C1226 C1224 1.363 . S
C1226 C1227 1.370 . S
C1226 C1230 1.524 . S
C1227 C1219 1.503 . S
C1227 C1226 1.370 . S
C1227 C1228 1.403 . S
C1228 C1227 1.403 . S
C1228 C1229 1.404 . S
C1228 C1231 1.539 . S
C1229 C1225 1.408 . S
C1229 C1228 1.404 . S
C1229 H1241 0.930 . S
C1230 C1226 1.524 . S
C1230 H1242 0.956 . S
C1230 H1243 0.961 . S
C1230 H1244 0.961 . S
C1231 C1228 1.539 . S
C1231 H1245 0.958 . S
C1231 H1246 0.961 . S
C1231 H1247 0.960 . S
H1232 C1216 0.931 . S
H1233 C1221 0.929 . S
H1234 C1222 0.960 . S
H1235 C1222 0.962 . S
H1236 C1222 0.960 . S
H1237 C1223 0.961 . S
H1238 C1223 0.961 . S
H1239 C1223 0.961 . S
H1240 C1224 0.931 . S
H1241 C1229 0.930 . S
H1242 C1230 0.956 . S
H1243 C1230 0.961 . S
H1244 C1230 0.961 . S
H1245 C1231 0.958 . S
H1246 C1231 0.961 . S
H1247 C1231 0.960 . S
C1248 C1249 1.391 . S
C1248 C1250 1.394 . S
C1248 H1264 0.931 . S
C1249 C1248 1.391 . S
C1249 C1253 1.376 . S
C1250 C1248 1.394 . S
C1250 C1251 1.369 . S
C1250 C1254 1.531 . S
C1251 C1250 1.369 . S
C1251 C1252 1.410 . S
C1251 C1259 1.503 . S
C1252 C1251 1.410 . S
C1252 C1253 1.392 . S
C1252 C1255 1.511 . S
C1253 C1249 1.376 . S
C1253 C1252 1.392 . S
C1253 H1265 0.929 . S
C1254 C1250 1.531 . S
C1254 H1266 0.960 . S
C1254 H1267 0.962 . S
C1254 H1268 0.960 . S
C1255 C1252 1.511 . S
C1255 H1269 0.961 . S
C1255 H1270 0.961 . S
C1255 H1271 0.961 . S
C1256 C1257 1.370 . S
C1256 C1258 1.363 . S
C1256 H1272 0.931 . S
C1257 C1256 1.370 . S
C1257 C1261 1.408 . S
C1258 C1256 1.363 . S
C1258 C1259 1.370 . S
C1258 C1262 1.524 . S
C1259 C1251 1.503 . S
C1259 C1258 1.370 . S
C1259 C1260 1.403 . S
C1260 C1259 1.403 . S
C1260 C1261 1.404 . S
C1260 C1263 1.539 . S
C1261 C1257 1.408 . S
C1261 C1260 1.404 . S
C1261 H1273 0.930 . S
C1262 C1258 1.524 . S
C1262 H1274 0.956 . S
C1262 H1275 0.961 . S
C1262 H1276 0.961 . S
C1263 C1260 1.539 . S
C1263 H1277 0.958 . S
C1263 H1278 0.961 . S
C1263 H1279 0.960 . S
H1264 C1248 0.931 . S
H1265 C1253 0.929 . S
H1266 C1254 0.960 . S
H1267 C1254 0.962 . S
H1268 C1254 0.960 . S
H1269 C1255 0.961 . S
H1270 C1255 0.961 . S
H1271 C1255 0.961 . S
H1272 C1256 0.931 . S
H1273 C1261 0.930 . S
H1274 C1262 0.956 . S
H1275 C1262 0.961 . S
H1276 C1262 0.961 . S
H1277 C1263 0.958 . S
H1278 C1263 0.961 . S
H1279 C1263 0.960 . S
C1280 C1281 1.391 . S
C1280 C1282 1.394 . S
C1280 H1296 0.931 . S
C1281 C1280 1.391 . S
C1281 C1285 1.376 . S
C1282 C1280 1.394 . S
C1282 C1283 1.369 . S
C1282 C1286 1.531 . S
C1283 C1282 1.369 . S
C1283 C1284 1.410 . S
C1283 C1291 1.503 . S
C1284 C1283 1.410 . S
C1284 C1285 1.392 . S
C1284 C1287 1.511 . S
C1285 C1281 1.376 . S
C1285 C1284 1.392 . S
C1285 H1297 0.929 . S
C1286 C1282 1.531 . S
C1286 H1298 0.960 . S
C1286 H1299 0.962 . S
C1286 H1300 0.960 . S
C1287 C1284 1.511 . S
C1287 H1301 0.961 . S
C1287 H1302 0.961 . S
C1287 H1303 0.961 . S
C1288 C1289 1.370 . S
C1288 C1290 1.363 . S
C1288 H1304 0.931 . S
C1289 C1288 1.370 . S
C1289 C1293 1.408 . S
C1290 C1288 1.363 . S
C1290 C1291 1.370 . S
C1290 C1294 1.524 . S
C1291 C1283 1.503 . S
C1291 C1290 1.370 . S
C1291 C1292 1.403 . S
C1292 C1291 1.403 . S
C1292 C1293 1.404 . S
C1292 C1295 1.539 . S
C1293 C1289 1.408 . S
C1293 C1292 1.404 . S
C1293 H1305 0.930 . S
C1294 C1290 1.524 . S
C1294 H1306 0.956 . S
C1294 H1307 0.961 . S
C1294 H1308 0.961 . S
C1295 C1292 1.539 . S
C1295 H1309 0.958 . S
C1295 H1310 0.961 . S
C1295 H1311 0.960 . S
H1296 C1280 0.931 . S
H1297 C1285 0.929 . S
H1298 C1286 0.960 . S
H1299 C1286 0.962 . S
H1300 C1286 0.960 . S
H1301 C1287 0.961 . S
H1302 C1287 0.961 . S
H1303 C1287 0.961 . S
H1304 C1288 0.931 . S
H1305 C1293 0.930 . S
H1306 C1294 0.956 . S
H1307 C1294 0.961 . S
H1308 C1294 0.961 . S
H1309 C1295 0.958 . S
H1310 C1295 0.961 . S
H1311 C1295 0.960 . S
C1312 C1313 1.391 . S
C1312 C1314 1.394 . S
C1312 H1328 0.931 . S
C1313 C1312 1.391 . S
C1313 C1317 1.376 . S
C1314 C1312 1.394 . S
C1314 C1315 1.369 . S
C1314 C1318 1.531 . S
C1315 C1314 1.369 . S
C1315 C1316 1.410 . S
C1315 C1323 1.503 . S
C1316 C1315 1.410 . S
C1316 C1317 1.392 . S
C1316 C1319 1.511 . S
C1317 C1313 1.376 . S
C1317 C1316 1.392 . S
C1317 H1329 0.929 . S
C1318 C1314 1.531 . S
C1318 H1330 0.960 . S
C1318 H1331 0.962 . S
C1318 H1332 0.960 . S
C1319 C1316 1.511 . S
C1319 H1333 0.961 . S
C1319 H1334 0.961 . S
C1319 H1335 0.961 . S
C1320 C1321 1.370 . S
C1320 C1322 1.363 . S
C1320 H1336 0.931 . S
C1321 C1320 1.370 . S
C1321 C1325 1.408 . S
C1322 C1320 1.363 . S
C1322 C1323 1.370 . S
C1322 C1326 1.524 . S
C1323 C1315 1.503 . S
C1323 C1322 1.370 . S
C1323 C1324 1.403 . S
C1324 C1323 1.403 . S
C1324 C1325 1.404 . S
C1324 C1327 1.539 . S
C1325 C1321 1.408 . S
C1325 C1324 1.404 . S
C1325 H1337 0.930 . S
C1326 C1322 1.524 . S
C1326 H1338 0.956 . S
C1326 H1339 0.961 . S
C1326 H1340 0.961 . S
C1327 C1324 1.539 . S
C1327 H1341 0.958 . S
C1327 H1342 0.961 . S
C1327 H1343 0.960 . S
H1328 C1312 0.931 . S
H1329 C1317 0.929 . S
H1330 C1318 0.960 . S
H1331 C1318 0.962 . S
H1332 C1318 0.960 . S
H1333 C1319 0.961 . S
H1334 C1319 0.961 . S
H1335 C1319 0.961 . S
H1336 C1320 0.931 . S
H1337 C1325 0.930 . S
H1338 C1326 0.956 . S
H1339 C1326 0.961 . S
H1340 C1326 0.961 . S
H1341 C1327 0.958 . S
H1342 C1327 0.961 . S
H1343 C1327 0.960 . S
C1344 C1345 1.391 . S
C1344 C1346 1.394 . S
C1344 H1360 0.931 . S
C1345 C1344 1.391 . S
C1345 C1349 1.376 . S
C1346 C1344 1.394 . S
C1346 C1347 1.369 . S
C1346 C1350 1.531 . S
C1347 C1346 1.369 . S
C1347 C1348 1.410 . S
C1347 C1355 1.503 . S
C1348 C1347 1.410 . S
C1348 C1349 1.392 . S
C1348 C1351 1.511 . S
C1349 C1345 1.376 . S
C1349 C1348 1.392 . S
C1349 H1361 0.929 . S
C1350 C1346 1.531 . S
C1350 H1362 0.960 . S
C1350 H1363 0.962 . S
C1350 H1364 0.960 . S
C1351 C1348 1.511 . S
C1351 H1365 0.961 . S
C1351 H1366 0.961 . S
C1351 H1367 0.961 . S
C1352 C1353 1.370 . S
C1352 C1354 1.363 . S
C1352 H1368 0.931 . S
C1353 C1352 1.370 . S
C1353 C1357 1.408 . S
C1354 C1352 1.363 . S
C1354 C1355 1.370 . S
C1354 C1358 1.524 . S
C1355 C1347 1.503 . S
C1355 C1354 1.370 . S
C1355 C1356 1.403 . S
C1356 C1355 1.403 . S
C1356 C1357 1.404 . S
C1356 C1359 1.539 . S
C1357 C1353 1.408 . S
C1357 C1356 1.404 . S
C1357 H1369 0.930 . S
C1358 C1354 1.524 . S
C1358 H1370 0.956 . S
C1358 H1371 0.961 . S
C1358 H1372 0.961 . S
C1359 C1356 1.539 . S
C1359 H1373 0.958 . S
C1359 H1374 0.961 . S
C1359 H1375 0.960 . S
H1360 C1344 0.931 . S
H1361 C1349 0.929 . S
H1362 C1350 0.960 . S
H1363 C1350 0.962 . S
H1364 C1350 0.960 . S
H1365 C1351 0.961 . S
H1366 C1351 0.961 . S
H1367 C1351 0.961 . S
H1368 C1352 0.931 . S
H1369 C1357 0.930 . S
H1370 C1358 0.956 . S
H1371 C1358 0.961 . S
H1372 C1358 0.961 . S
H1373 C1359 0.958 . S
H1374 C1359 0.961 . S
H1375 C1359 0.960 . S
C1376 C1377 1.391 . S
C1376 C1378 1.394 . S
C1376 H1392 0.931 . S
C1377 C1376 1.391 . S
C1377 C1381 1.376 . S
C1378 C1376 1.394 . S
C1378 C1379 1.369 . S
C1378 C1382 1.531 . S
C1379 C1378 1.369 . S
C1379 C1380 1.410 . S
C1379 C1387 1.503 . S
C1380 C1379 1.410 . S
C1380 C1381 1.392 . S
C1380 C1383 1.511 . S
C1381 C1377 1.376 . S
C1381 C1380 1.392 . S
C1381 H1393 0.929 . S
C1382 C1378 1.531 . S
C1382 H1394 0.960 . S
C1382 H1395 0.962 . S
C1382 H1396 0.960 . S
C1383 C1380 1.511 . S
C1383 H1397 0.961 . S
C1383 H1398 0.961 . S
C1383 H1399 0.961 . S
C1384 C1385 1.370 . S
C1384 C1386 1.363 . S
C1384 H1400 0.931 . S
C1385 C1384 1.370 . S
C1385 C1389 1.408 . S
C1386 C1384 1.363 . S
C1386 C1387 1.370 . S
C1386 C1390 1.524 . S
C1387 C1379 1.503 . S
C1387 C1386 1.370 . S
C1387 C1388 1.403 . S
C1388 C1387 1.403 . S
C1388 C1389 1.404 . S
C1388 C1391 1.539 . S
C1389 C1385 1.408 . S
C1389 C1388 1.404 . S
C1389 H1401 0.930 . S
C1390 C1386 1.524 . S
C1390 H1402 0.956 . S
C1390 H1403 0.961 . S
C1390 H1404 0.961 . S
C1391 C1388 1.539 . S
C1391 H1405 0.958 . S
C1391 H1406 0.961 . S
C1391 H1407 0.960 . S
H1392 C1376 0.931 . S
H1393 C1381 0.929 . S
H1394 C1382 0.960 . S
H1395 C1382 0.962 . S
H1396 C1382 0.960 . S
H1397 C1383 0.961 . S
H1398 C1383 0.961 . S
H1399 C1383 0.961 . S
H1400 C1384 0.931 . S
H1401 C1389 0.930 . S
H1402 C1390 0.956 . S
H1403 C1390 0.961 . S
H1404 C1390 0.961 . S
H1405 C1391 0.958 . S
H1406 C1391 0.961 . S
H1407 C1391 0.960 . S
C1408 C1409 1.391 . S
C1408 C1410 1.394 . S
C1408 H1424 0.931 . S
C1409 C1408 1.391 . S
C1409 C1413 1.376 . S
C1410 C1408 1.394 . S
C1410 C1411 1.369 . S
C1410 C1414 1.531 . S
C1411 C1410 1.369 . S
C1411 C1412 1.410 . S
C1411 C1419 1.503 . S
C1412 C1411 1.410 . S
C1412 C1413 1.392 . S
C1412 C1415 1.511 . S
C1413 C1409 1.376 . S
C1413 C1412 1.392 . S
C1413 H1425 0.929 . S
C1414 C1410 1.531 . S
C1414 H1426 0.960 . S
C1414 H1427 0.962 . S
C1414 H1428 0.960 . S
C1415 C1412 1.511 . S
C1415 H1429 0.961 . S
C1415 H1430 0.961 . S
C1415 H1431 0.961 . S
C1416 C1417 1.370 . S
C1416 C1418 1.363 . S
C1416 H1432 0.931 . S
C1417 C1416 1.370 . S
C1417 C1421 1.408 . S
C1418 C1416 1.363 . S
C1418 C1419 1.370 . S
C1418 C1422 1.524 . S
C1419 C1411 1.503 . S
C1419 C1418 1.370 . S
C1419 C1420 1.403 . S
C1420 C1419 1.403 . S
C1420 C1421 1.404 . S
C1420 C1423 1.539 . S
C1421 C1417 1.408 . S
C1421 C1420 1.404 . S
C1421 H1433 0.930 . S
C1422 C1418 1.524 . S
C1422 H1434 0.956 . S
C1422 H1435 0.961 . S
C1422 H1436 0.961 . S
C1423 C1420 1.539 . S
C1423 H1437 0.958 . S
C1423 H1438 0.961 . S
C1423 H1439 0.960 . S
H1424 C1408 0.931 . S
H1425 C1413 0.929 . S
H1426 C1414 0.960 . S
H1427 C1414 0.962 . S
H1428 C1414 0.960 . S
H1429 C1415 0.961 . S
H1430 C1415 0.961 . S
H1431 C1415 0.961 . S
H1432 C1416 0.931 . S
H1433 C1421 0.930 . S
H1434 C1422 0.956 . S
H1435 C1422 0.961 . S
H1436 C1422 0.961 . S
H1437 C1423 0.958 . S
H1438 C1423 0.961 . S
H1439 C1423 0.960 . S
C1440 C1441 1.391 . S
C1440 C1442 1.394 . S
C1440 H1456 0.931 . S
C1441 C1440 1.391 . S
C1441 C1445 1.376 . S
C1442 C1440 1.394 . S
C1442 C1443 1.369 . S
C1442 C1446 1.531 . S
C1443 C1442 1.369 . S
C1443 C1444 1.410 . S
C1443 C1451 1.503 . S
C1444 C1443 1.410 . S
C1444 C1445 1.392 . S
C1444 C1447 1.511 . S
C1445 C1441 1.376 . S
C1445 C1444 1.392 . S
C1445 H1457 0.929 . S
C1446 C1442 1.531 . S
C1446 H1458 0.960 . S
C1446 H1459 0.962 . S
C1446 H1460 0.960 . S
C1447 C1444 1.511 . S
C1447 H1461 0.961 . S
C1447 H1462 0.961 . S
C1447 H1463 0.961 . S
C1448 C1449 1.370 . S
C1448 C1450 1.363 . S
C1448 H1464 0.931 . S
C1449 C1448 1.370 . S
C1449 C1453 1.408 . S
C1450 C1448 1.363 . S
C1450 C1451 1.370 . S
C1450 C1454 1.524 . S
C1451 C1443 1.503 . S
C1451 C1450 1.370 . S
C1451 C1452 1.403 . S
C1452 C1451 1.403 . S
C1452 C1453 1.404 . S
C1452 C1455 1.539 . S
C1453 C1449 1.408 . S
C1453 C1452 1.404 . S
C1453 H1465 0.930 . S
C1454 C1450 1.524 . S
C1454 H1466 0.956 . S
C1454 H1467 0.961 . S
C1454 H1468 0.961 . S
C1455 C1452 1.539 . S
C1455 H1469 0.958 . S
C1455 H1470 0.961 . S
C1455 H1471 0.960 . S
H1456 C1440 0.931 . S
H1457 C1445 0.929 . S
H1458 C1446 0.960 . S
H1459 C1446 0.962 . S
H1460 C1446 0.960 . S
H1461 C1447 0.961 . S
H1462 C1447 0.961 . S
H1463 C1447 0.961 . S
H1464 C1448 0.931 . S
H1465 C1453 0.930 . S
H1466 C1454 0.956 . S
H1467 C1454 0.961 . S
H1468 C1454 0.961 . S
H1469 C1455 0.958 . S
H1470 C1455 0.961 . S
H1471 C1455 0.960 . S
C1472 C1473 1.391 . S
C1472 C1474 1.394 . S
C1472 H1488 0.931 . S
C1473 C1472 1.391 . S
C1473 C1477 1.376 . S
C1474 C1472 1.394 . S
C1474 C1475 1.369 . S
C1474 C1478 1.531 . S
C1475 C1474 1.369 . S
C1475 C1476 1.410 . S
C1475 C1483 1.503 1_556 S
C1476 C1475 1.410 . S
C1476 C1477 1.392 . S
C1476 C1479 1.511 1_556 S
C1477 C1473 1.376 . S
C1477 C1476 1.392 . S
C1477 H1489 0.929 . S
C1478 C1474 1.531 . S
C1478 H1490 0.960 . S
C1478 H1491 0.962 . S
C1478 H1492 0.960 . S
C1479 C1476 1.511 1_554 S
C1479 H1493 0.961 . S
C1479 H1494 0.961 . S
C1479 H1495 0.961 . S
C1480 C1481 1.370 . S
C1480 C1482 1.363 . S
C1480 H1496 0.931 . S
C1481 C1480 1.370 . S
C1481 C1485 1.408 . S
C1482 C1480 1.363 . S
C1482 C1483 1.370 . S
C1482 C1486 1.524 . S
C1483 C1475 1.503 1_554 S
C1483 C1482 1.370 . S
C1483 C1484 1.403 . S
C1484 C1483 1.403 . S
C1484 C1485 1.404 . S
C1484 C1487 1.539 1_554 S
C1485 C1481 1.408 . S
C1485 C1484 1.404 . S
C1485 H1497 0.930 . S
C1486 C1482 1.524 . S
C1486 H1498 0.956 . S
C1486 H1499 0.961 . S
C1486 H1500 0.961 . S
C1487 C1484 1.539 1_556 S
C1487 H1501 0.958 . S
C1487 H1502 0.961 . S
C1487 H1503 0.960 . S
H1488 C1472 0.931 . S
H1489 C1477 0.929 . S
H1490 C1478 0.960 . S
H1491 C1478 0.962 . S
H1492 C1478 0.960 . S
H1493 C1479 0.961 . S
H1494 C1479 0.961 . S
H1495 C1479 0.961 . S
H1496 C1480 0.931 . S
H1497 C1485 0.930 . S
H1498 C1486 0.956 . S
H1499 C1486 0.961 . S
H1500 C1486 0.961 . S
H1501 C1487 0.958 . S
H1502 C1487 0.961 . S
H1503 C1487 0.960 . S
C1504 C1505 1.391 . S
C1504 C1506 1.394 . S
C1504 H1520 0.931 . S
C1505 C1504 1.391 . S
C1505 C1509 1.376 . S
C1506 C1504 1.394 . S
C1506 C1507 1.369 . S
C1506 C1510 1.531 1_554 S
C1507 C1506 1.369 . S
C1507 C1508 1.410 . S
C1507 C1515 1.503 1_554 S
C1508 C1507 1.410 . S
C1508 C1509 1.392 . S
C1508 C1511 1.511 . S
C1509 C1505 1.376 . S
C1509 C1508 1.392 . S
C1509 H1521 0.929 . S
C1510 C1506 1.531 1_556 S
C1510 H1522 0.960 . S
C1510 H1523 0.962 . S
C1510 H1524 0.960 . S
C1511 C1508 1.511 . S
C1511 H1525 0.961 . S
C1511 H1526 0.961 . S
C1511 H1527 0.961 . S
C1512 C1513 1.370 . S
C1512 C1514 1.363 1_556 S
C1512 H1528 0.931 . S
C1513 C1512 1.370 . S
C1513 C1517 1.408 . S
C1514 C1512 1.363 1_554 S
C1514 C1515 1.370 1_554 S
C1514 C1518 1.524 . S
C1515 C1507 1.503 1_556 S
C1515 C1514 1.370 1_556 S
C1515 C1516 1.403 . S
C1516 C1515 1.403 . S
C1516 C1517 1.404 . S
C1516 C1519 1.539 . S
C1517 C1513 1.408 . S
C1517 C1516 1.404 . S
C1517 H1529 0.930 . S
C1518 C1514 1.524 . S
C1518 H1530 0.956 . S
C1518 H1531 0.961 . S
C1518 H1532 0.961 . S
C1519 C1516 1.539 . S
C1519 H1533 0.958 . S
C1519 H1534 0.961 . S
C1519 H1535 0.960 . S
H1520 C1504 0.931 . S
H1521 C1509 0.929 . S
H1522 C1510 0.960 . S
H1523 C1510 0.962 . S
H1524 C1510 0.960 . S
H1525 C1511 0.961 . S
H1526 C1511 0.961 . S
H1527 C1511 0.961 . S
H1528 C1512 0.931 . S
H1529 C1517 0.930 . S
H1530 C1518 0.956 . S
H1531 C1518 0.961 . S
H1532 C1518 0.961 . S
H1533 C1519 0.958 . S
H1534 C1519 0.961 . S
H1535 C1519 0.960 . S
C1536 C1537 1.391 . S
C1536 C1538 1.394 . S
C1536 H1552 0.931 . S
C1537 C1536 1.391 . S
C1537 C1541 1.376 . S
C1538 C1536 1.394 . S
C1538 C1539 1.369 . S
C1538 C1542 1.531 . S
C1539 C1538 1.369 . S
C1539 C1540 1.410 1_556 S
C1539 C1547 1.503 1_556 S
C1540 C1539 1.410 1_554 S
C1540 C1541 1.392 1_554 S
C1540 C1543 1.511 . S
C1541 C1537 1.376 . S
C1541 C1540 1.392 1_556 S
C1541 H1553 0.929 . S
C1542 C1538 1.531 . S
C1542 H1554 0.960 . S
C1542 H1555 0.962 . S
C1542 H1556 0.960 . S
C1543 C1540 1.511 . S
C1543 H1557 0.961 . S
C1543 H1558 0.961 . S
C1543 H1559 0.961 . S
C1544 C1545 1.370 . S
C1544 C1546 1.363 . S
C1544 H1560 0.931 . S
C1545 C1544 1.370 . S
C1545 C1549 1.408 . S
C1546 C1544 1.363 . S
C1546 C1547 1.370 . S
C1546 C1550 1.524 . S
C1547 C1539 1.503 1_554 S
C1547 C1546 1.370 . S
C1547 C1548 1.403 . S
C1548 C1547 1.403 . S
C1548 C1549 1.404 . S
C1548 C1551 1.539 . S
C1549 C1545 1.408 . S
C1549 C1548 1.404 . S
C1549 H1561 0.930 . S
C1550 C1546 1.524 . S
C1550 H1562 0.956 1_554 S
C1550 H1563 0.961 . S
C1550 H1564 0.961 . S
C1551 C1548 1.539 . S
C1551 H1565 0.958 . S
C1551 H1566 0.961 . S
C1551 H1567 0.960 . S
H1552 C1536 0.931 . S
H1553 C1541 0.929 . S
H1554 C1542 0.960 . S
H1555 C1542 0.962 . S
H1556 C1542 0.960 . S
H1557 C1543 0.961 . S
H1558 C1543 0.961 . S
H1559 C1543 0.961 . S
H1560 C1544 0.931 . S
H1561 C1549 0.930 . S
H1562 C1550 0.956 1_556 S
H1563 C1550 0.961 . S
H1564 C1550 0.961 . S
H1565 C1551 0.958 . S
H1566 C1551 0.961 . S
H1567 C1551 0.960 . S
C1568 C1569 1.391 . S
C1568 C1570 1.394 . S
C1568 H1584 0.931 . S
C1569 C1568 1.391 . S
C1569 C1573 1.376 . S
C1570 C1568 1.394 . S
C1570 C1571 1.369 . S
C1570 C1574 1.531 . S
C1571 C1570 1.369 . S
C1571 C1572 1.410 . S
C1571 C1579 1.503 1_554 S
C1572 C1571 1.410 . S
C1572 C1573 1.392 . S
C1572 C1575 1.511 1_554 S
C1573 C1569 1.376 . S
C1573 C1572 1.392 . S
C1573 H1585 0.929 . S
C1574 C1570 1.531 . S
C1574 H1586 0.960 . S
C1574 H1587 0.962 . S
C1574 H1588 0.960 . S
C1575 C1572 1.511 1_556 S
C1575 H1589 0.961 . S
C1575 H1590 0.961 . S
C1575 H1591 0.961 . S
C1576 C1577 1.370 . S
C1576 C1578 1.363 . S
C1576 H1592 0.931 . S
C1577 C1576 1.370 . S
C1577 C1581 1.408 . S
C1578 C1576 1.363 . S
C1578 C1579 1.370 . S
C1578 C1582 1.524 . S
C1579 C1571 1.503 1_556 S
C1579 C1578 1.370 . S
C1579 C1580 1.403 . S
C1580 C1579 1.403 . S
C1580 C1581 1.404 . S
C1580 C1583 1.539 1_556 S
C1581 C1577 1.408 . S
C1581 C1580 1.404 . S
C1581 H1593 0.930 . S
C1582 C1578 1.524 . S
C1582 H1594 0.956 1_556 S
C1582 H1595 0.961 . S
C1582 H1596 0.961 . S
C1583 C1580 1.539 1_554 S
C1583 H1597 0.958 . S
C1583 H1598 0.951 1_554 S
C1583 H1599 0.960 . S
H1584 C1568 0.931 . S
H1585 C1573 0.929 . S
H1586 C1574 0.960 . S
H1587 C1574 0.962 . S
H1588 C1574 0.960 . S
H1589 C1575 0.961 . S
H1590 C1575 0.961 . S
H1591 C1575 0.961 . S
H1592 C1576 0.931 . S
H1593 C1581 0.930 . S
H1594 C1582 0.956 1_554 S
H1595 C1582 0.961 . S
H1596 C1582 0.961 . S
H1597 C1583 0.958 . S
H1598 C1583 0.951 1_556 S
H1599 C1583 0.960 . S
C1600 C1601 1.391 . S
C1600 C1602 1.394 . S
C1600 H1616 0.931 . S
C1601 C1600 1.391 . S
C1601 C1605 1.376 . S
C1602 C1600 1.394 . S
C1602 C1603 1.369 . S
C1602 C1606 1.531 . S
C1603 C1602 1.369 . S
C1603 C1604 1.410 . S
C1603 C1611 1.503 . S
C1604 C1603 1.410 . S
C1604 C1605 1.392 . S
C1604 C1607 1.511 . S
C1605 C1601 1.376 . S
C1605 C1604 1.392 . S
C1605 H1617 0.929 . S
C1606 C1602 1.531 . S
C1606 H1618 0.960 . S
C1606 H1619 0.962 . S
C1606 H1620 0.960 . S
C1607 C1604 1.511 . S
C1607 H1621 0.961 . S
C1607 H1622 0.961 . S
C1607 H1623 0.961 . S
C1608 C1609 1.370 . S
C1608 C1610 1.363 . S
C1608 H1624 0.931 . S
C1609 C1608 1.370 . S
C1609 C1613 1.408 . S
C1610 C1608 1.363 . S
C1610 C1611 1.370 . S
C1610 C1614 1.524 . S
C1611 C1603 1.503 . S
C1611 C1610 1.370 . S
C1611 C1612 1.403 . S
C1612 C1611 1.403 . S
C1612 C1613 1.404 . S
C1612 C1615 1.539 . S
C1613 C1609 1.408 . S
C1613 C1612 1.404 . S
C1613 H1625 0.930 . S
C1614 C1610 1.524 . S
C1614 H1626 0.956 . S
C1614 H1627 0.961 . S
C1614 H1628 0.961 . S
C1615 C1612 1.539 . S
C1615 H1629 0.958 . S
C1615 H1630 0.961 . S
C1615 H1631 0.960 . S
H1616 C1600 0.931 . S
H1617 C1605 0.929 . S
H1618 C1606 0.960 . S
H1619 C1606 0.962 . S
H1620 C1606 0.960 . S
H1621 C1607 0.961 . S
H1622 C1607 0.961 . S
H1623 C1607 0.961 . S
H1624 C1608 0.931 . S
H1625 C1613 0.930 . S
H1626 C1614 0.956 . S
H1627 C1614 0.961 . S
H1628 C1614 0.961 . S
H1629 C1615 0.958 . S
H1630 C1615 0.961 . S
H1631 C1615 0.960 . S
C1632 C1633 1.391 . S
C1632 C1634 1.394 . S
C1632 H1648 0.931 . S
C1633 C1632 1.391 . S
C1633 C1637 1.376 . S
C1634 C1632 1.394 . S
C1634 C1635 1.369 . S
C1634 C1638 1.531 . S
C1635 C1634 1.369 . S
C1635 C1636 1.410 . S
C1635 C1643 1.503 . S
C1636 C1635 1.410 . S
C1636 C1637 1.392 . S
C1636 C1639 1.511 . S
C1637 C1633 1.376 . S
C1637 C1636 1.392 . S
C1637 H1649 0.929 . S
C1638 C1634 1.531 . S
C1638 H1650 0.960 . S
C1638 H1651 0.962 . S
C1638 H1652 0.960 . S
C1639 C1636 1.511 . S
C1639 H1653 0.961 . S
C1639 H1654 0.961 . S
C1639 H1655 0.961 . S
C1640 C1641 1.370 . S
C1640 C1642 1.363 . S
C1640 H1656 0.931 . S
C1641 C1640 1.370 . S
C1641 C1645 1.408 . S
C1642 C1640 1.363 . S
C1642 C1643 1.370 . S
C1642 C1646 1.524 . S
C1643 C1635 1.503 . S
C1643 C1642 1.370 . S
C1643 C1644 1.403 . S
C1644 C1643 1.403 . S
C1644 C1645 1.404 . S
C1644 C1647 1.539 . S
C1645 C1641 1.408 . S
C1645 C1644 1.404 . S
C1645 H1657 0.930 . S
C1646 C1642 1.524 . S
C1646 H1658 0.956 . S
C1646 H1659 0.961 . S
C1646 H1660 0.961 . S
C1647 C1644 1.539 . S
C1647 H1661 0.958 . S
C1647 H1662 0.961 . S
C1647 H1663 0.960 . S
H1648 C1632 0.931 . S
H1649 C1637 0.929 . S
H1650 C1638 0.960 . S
H1651 C1638 0.962 . S
H1652 C1638 0.960 . S
H1653 C1639 0.961 . S
H1654 C1639 0.961 . S
H1655 C1639 0.961 . S
H1656 C1640 0.931 . S
H1657 C1645 0.930 . S
H1658 C1646 0.956 . S
H1659 C1646 0.961 . S
H1660 C1646 0.961 . S
H1661 C1647 0.958 . S
H1662 C1647 0.961 . S
H1663 C1647 0.960 . S
C1664 C1665 1.391 . S
C1664 C1666 1.394 . S
C1664 H1680 0.931 . S
C1665 C1664 1.391 . S
C1665 C1669 1.376 . S
C1666 C1664 1.394 . S
C1666 C1667 1.369 . S
C1666 C1670 1.531 . S
C1667 C1666 1.369 . S
C1667 C1668 1.410 . S
C1667 C1675 1.503 . S
C1668 C1667 1.410 . S
C1668 C1669 1.392 . S
C1668 C1671 1.511 . S
C1669 C1665 1.376 . S
C1669 C1668 1.392 . S
C1669 H1681 0.929 . S
C1670 C1666 1.531 . S
C1670 H1682 0.960 . S
C1670 H1683 0.962 . S
C1670 H1684 0.960 . S
C1671 C1668 1.511 . S
C1671 H1685 0.961 . S
C1671 H1686 0.961 . S
C1671 H1687 0.961 . S
C1672 C1673 1.370 . S
C1672 C1674 1.363 . S
C1672 H1688 0.931 . S
C1673 C1672 1.370 . S
C1673 C1677 1.408 . S
C1674 C1672 1.363 . S
C1674 C1675 1.370 . S
C1674 C1678 1.524 . S
C1675 C1667 1.503 . S
C1675 C1674 1.370 . S
C1675 C1676 1.403 . S
C1676 C1675 1.403 . S
C1676 C1677 1.404 . S
C1676 C1679 1.539 . S
C1677 C1673 1.408 . S
C1677 C1676 1.404 . S
C1677 H1689 0.930 . S
C1678 C1674 1.524 . S
C1678 H1690 0.956 . S
C1678 H1691 0.961 . S
C1678 H1692 0.961 . S
C1679 C1676 1.539 . S
C1679 H1693 0.958 . S
C1679 H1694 0.961 . S
C1679 H1695 0.960 . S
H1680 C1664 0.931 . S
H1681 C1669 0.929 . S
H1682 C1670 0.960 . S
H1683 C1670 0.962 . S
H1684 C1670 0.960 . S
H1685 C1671 0.961 . S
H1686 C1671 0.961 . S
H1687 C1671 0.961 . S
H1688 C1672 0.931 . S
H1689 C1677 0.930 . S
H1690 C1678 0.956 . S
H1691 C1678 0.961 . S
H1692 C1678 0.961 . S
H1693 C1679 0.958 . S
H1694 C1679 0.961 . S
H1695 C1679 0.960 . S
C1696 C1697 1.391 . S
C1696 C1698 1.394 . S
C1696 H1712 0.931 . S
C1697 C1696 1.391 . S
C1697 C1701 1.376 . S
C1698 C1696 1.394 . S
C1698 C1699 1.369 . S
C1698 C1702 1.531 . S
C1699 C1698 1.369 . S
C1699 C1700 1.410 . S
C1699 C1707 1.503 . S
C1700 C1699 1.410 . S
C1700 C1701 1.392 . S
C1700 C1703 1.511 . S
C1701 C1697 1.376 . S
C1701 C1700 1.392 . S
C1701 H1713 0.929 . S
C1702 C1698 1.531 . S
C1702 H1714 0.960 . S
C1702 H1715 0.962 . S
C1702 H1716 0.960 . S
C1703 C1700 1.511 . S
C1703 H1717 0.961 . S
C1703 H1718 0.961 . S
C1703 H1719 0.961 . S
C1704 C1705 1.370 . S
C1704 C1706 1.363 . S
C1704 H1720 0.931 . S
C1705 C1704 1.370 . S
C1705 C1709 1.408 . S
C1706 C1704 1.363 . S
C1706 C1707 1.370 . S
C1706 C1710 1.524 . S
C1707 C1699 1.503 . S
C1707 C1706 1.370 . S
C1707 C1708 1.403 . S
C1708 C1707 1.403 . S
C1708 C1709 1.404 . S
C1708 C1711 1.539 . S
C1709 C1705 1.408 . S
C1709 C1708 1.404 . S
C1709 H1721 0.930 . S
C1710 C1706 1.524 . S
C1710 H1722 0.956 . S
C1710 H1723 0.961 . S
C1710 H1724 0.961 . S
C1711 C1708 1.539 . S
C1711 H1725 0.958 . S
C1711 H1726 0.977 . S
C1711 H1727 0.960 . S
H1712 C1696 0.931 . S
H1713 C1701 0.929 . S
H1714 C1702 0.960 . S
H1715 C1702 0.962 . S
H1716 C1702 0.960 . S
H1717 C1703 0.961 . S
H1718 C1703 0.961 . S
H1719 C1703 0.961 . S
H1720 C1704 0.931 . S
H1721 C1709 0.930 . S
H1722 C1710 0.956 . S
H1723 C1710 0.961 . S
H1724 C1710 0.961 . S
H1725 C1711 0.958 . S
H1726 C1711 0.977 . S
H1727 C1711 0.960 . S
C1728 C1729 1.391 . S
C1728 C1730 1.394 . S
C1728 H1744 0.931 . S
C1729 C1728 1.391 . S
C1729 C1733 1.376 . S
C1730 C1728 1.394 . S
C1730 C1731 1.369 . S
C1730 C1734 1.531 . S
C1731 C1730 1.369 . S
C1731 C1732 1.410 . S
C1731 C1739 1.503 1_556 S
C1732 C1731 1.410 . S
C1732 C1733 1.392 . S
C1732 C1735 1.511 1_556 S
C1733 C1729 1.376 . S
C1733 C1732 1.392 . S
C1733 H1745 0.929 . S
C1734 C1730 1.531 . S
C1734 H1746 0.960 . S
C1734 H1747 0.962 . S
C1734 H1748 0.960 . S
C1735 C1732 1.511 1_554 S
C1735 H1749 0.961 . S
C1735 H1750 0.961 . S
C1735 H1751 0.961 . S
C1736 C1737 1.370 . S
C1736 C1738 1.363 . S
C1736 H1752 0.931 . S
C1737 C1736 1.370 . S
C1737 C1741 1.408 . S
C1738 C1736 1.363 . S
C1738 C1739 1.370 . S
C1738 C1742 1.524 1_554 S
C1739 C1731 1.503 1_554 S
C1739 C1738 1.370 . S
C1739 C1740 1.403 . S
C1740 C1739 1.403 . S
C1740 C1741 1.404 . S
C1740 C1743 1.539 . S
C1741 C1737 1.408 . S
C1741 C1740 1.404 . S
C1741 H1753 0.930 . S
C1742 C1738 1.524 1_556 S
C1742 H1754 0.956 . S
C1742 H1755 0.961 . S
C1742 H1756 0.961 1_556 S
C1743 C1740 1.539 . S
C1743 H1757 0.942 1_554 S
C1743 H1758 0.961 . S
C1743 H1759 0.960 . S
H1744 C1728 0.931 . S
H1745 C1733 0.929 . S
H1746 C1734 0.960 . S
H1747 C1734 0.962 . S
H1748 C1734 0.960 . S
H1749 C1735 0.961 . S
H1750 C1735 0.961 . S
H1751 C1735 0.961 . S
H1752 C1736 0.931 . S
H1753 C1741 0.930 . S
H1754 C1742 0.956 . S
H1755 C1742 0.961 . S
H1756 C1742 0.961 1_554 S
H1757 C1743 0.942 1_556 S
H1758 C1743 0.961 . S
H1759 C1743 0.960 . S
C1760 C1761 1.391 . S
C1760 C1762 1.394 . S
C1760 H1776 0.931 . S
C1761 C1760 1.391 . S
C1761 C1765 1.376 . S
C1762 C1760 1.394 . S
C1762 C1763 1.369 . S
C1762 C1766 1.531 1_556 S
C1763 C1762 1.369 . S
C1763 C1764 1.410 . S
C1763 C1771 1.503 1_556 S
C1764 C1763 1.410 . S
C1764 C1765 1.392 . S
C1764 C1767 1.511 . S
C1765 C1761 1.376 . S
C1765 C1764 1.392 . S
C1765 H1777 0.929 . S
C1766 C1762 1.531 1_554 S
C1766 H1778 0.960 . S
C1766 H1779 0.962 . S
C1766 H1780 0.960 . S
C1767 C1764 1.511 . S
C1767 H1781 0.961 . S
C1767 H1782 0.961 . S
C1767 H1783 0.961 . S
C1768 C1769 1.370 . S
C1768 C1770 1.363 1_554 S
C1768 H1784 0.931 . S
C1769 C1768 1.370 . S
C1769 C1773 1.408 . S
C1770 C1768 1.363 1_556 S
C1770 C1771 1.370 1_556 S
C1770 C1774 1.524 . S
C1771 C1763 1.503 1_554 S
C1771 C1770 1.370 1_554 S
C1771 C1772 1.403 . S
C1772 C1771 1.403 . S
C1772 C1773 1.404 . S
C1772 C1775 1.539 . S
C1773 C1769 1.408 . S
C1773 C1772 1.404 . S
C1773 H1785 0.930 . S
C1774 C1770 1.524 . S
C1774 H1786 0.956 . S
C1774 H1787 0.961 . S
C1774 H1788 0.961 . S
C1775 C1772 1.539 . S
C1775 H1789 0.958 . S
C1775 H1790 0.961 . S
C1775 H1791 0.960 . S
H1776 C1760 0.931 . S
H1777 C1765 0.929 . S
H1778 C1766 0.960 . S
H1779 C1766 0.962 . S
H1780 C1766 0.960 . S
H1781 C1767 0.961 . S
H1782 C1767 0.961 . S
H1783 C1767 0.961 . S
H1784 C1768 0.931 . S
H1785 C1773 0.930 . S
H1786 C1774 0.956 . S
H1787 C1774 0.961 . S
H1788 C1774 0.961 . S
H1789 C1775 0.958 . S
H1790 C1775 0.961 . S
H1791 C1775 0.960 . S
C1792 C1793 1.391 . S
C1792 C1794 1.394 . S
C1792 H1808 0.931 . S
C1793 C1792 1.391 . S
C1793 C1797 1.376 . S
C1794 C1792 1.394 . S
C1794 C1795 1.369 . S
C1794 C1798 1.531 . S
C1795 C1794 1.369 . S
C1795 C1796 1.410 1_554 S
C1795 C1803 1.503 1_554 S
C1796 C1795 1.410 1_556 S
C1796 C1797 1.392 1_556 S
C1796 C1799 1.511 . S
C1797 C1793 1.376 . S
C1797 C1796 1.392 1_554 S
C1797 H1809 0.929 . S
C1798 C1794 1.531 . S
C1798 H1810 0.960 . S
C1798 H1811 0.962 . S
C1798 H1812 0.960 . S
C1799 C1796 1.511 . S
C1799 H1813 0.961 . S
C1799 H1814 0.961 . S
C1799 H1815 0.961 . S
C1800 C1801 1.370 . S
C1800 C1802 1.363 . S
C1800 H1816 0.931 . S
C1801 C1800 1.370 . S
C1801 C1805 1.408 . S
C1802 C1800 1.363 . S
C1802 C1803 1.370 . S
C1802 C1806 1.524 1_556 S
C1803 C1795 1.503 1_556 S
C1803 C1802 1.370 . S
C1803 C1804 1.403 . S
C1804 C1803 1.403 . S
C1804 C1805 1.404 . S
C1804 C1807 1.539 . S
C1805 C1801 1.408 . S
C1805 C1804 1.404 . S
C1805 H1817 0.930 . S
C1806 C1802 1.524 1_554 S
C1806 H1818 0.956 . S
C1806 H1819 0.961 . S
C1806 H1820 0.961 . S
C1807 C1804 1.539 . S
C1807 H1821 0.958 . S
C1807 H1822 0.961 . S
C1807 H1823 0.960 . S
H1808 C1792 0.931 . S
H1809 C1797 0.929 . S
H1810 C1798 0.960 . S
H1811 C1798 0.962 . S
H1812 C1798 0.960 . S
H1813 C1799 0.961 . S
H1814 C1799 0.961 . S
H1815 C1799 0.961 . S
H1816 C1800 0.931 . S
H1817 C1805 0.930 . S
H1818 C1806 0.956 . S
H1819 C1806 0.961 . S
H1820 C1806 0.961 . S
H1821 C1807 0.958 . S
H1822 C1807 0.961 . S
H1823 C1807 0.960 . S
C1824 C1825 1.391 . S
C1824 C1826 1.394 1_554 S
C1824 H1840 0.931 . S
C1825 C1824 1.391 . S
C1825 C1829 1.376 . S
C1826 C1824 1.394 1_556 S
C1826 C1827 1.368 . S
C1826 C1830 1.531 . S
C1827 C1826 1.368 . S
C1827 C1828 1.412 1_556 S
C1827 C1835 1.501 . S
C1828 C1827 1.412 1_554 S
C1828 C1829 1.392 . S
C1828 C1831 1.511 . S
C1829 C1825 1.376 . S
C1829 C1828 1.392 . S
C1829 H1841 0.929 . S
C1830 C1826 1.531 . S
C1830 H1842 0.960 . S
C1830 H1843 0.962 . S
C1830 H1844 0.960 . S
C1831 C1828 1.511 . S
C1831 H1845 0.961 . S
C1831 H1846 0.961 . S
C1831 H1847 0.961 . S
C1832 C1833 1.370 . S
C1832 C1834 1.363 . S
C1832 H1848 0.931 . S
C1833 C1832 1.370 . S
C1833 C1837 1.408 . S
C1834 C1832 1.363 . S
C1834 C1835 1.370 . S
C1834 C1838 1.524 1_556 S
C1835 C1827 1.501 . S
C1835 C1834 1.370 . S
C1835 C1836 1.403 . S
C1836 C1835 1.403 . S
C1836 C1837 1.404 . S
C1836 C1839 1.539 . S
C1837 C1833 1.408 . S
C1837 C1836 1.404 . S
C1837 H1849 0.930 . S
C1838 C1834 1.524 1_554 S
C1838 H1850 0.956 . S
C1838 H1851 0.961 . S
C1838 H1852 0.961 . S
C1839 C1836 1.539 . S
C1839 H1853 0.958 . S
C1839 H1854 0.961 . S
C1839 H1855 0.960 . S
H1840 C1824 0.931 . S
H1841 C1829 0.929 . S
H1842 C1830 0.960 . S
H1843 C1830 0.962 . S
H1844 C1830 0.960 . S
H1845 C1831 0.961 . S
H1846 C1831 0.961 . S
H1847 C1831 0.961 . S
H1848 C1832 0.931 . S
H1849 C1837 0.930 . S
H1850 C1838 0.956 . S
H1851 C1838 0.961 . S
H1852 C1838 0.961 . S
H1853 C1839 0.958 . S
H1854 C1839 0.961 . S
H1855 C1839 0.960 . S
C321 C18 1.930 . S
C329 C118 1.946 . S
C353 C138 1.957 . S
C361 C38 1.929 . S
C385 C58 1.943 . S
C393 C158 1.944 . S
C417 C78 1.950 . S
C425 C98 1.925 . S
C449 C279 1.910 . S
C457 C179 1.928 . S
C481 C299 1.957 . S
C489 C199 1.940 . S
C513 C219 1.915 . S
C521 C319 1.945 . S
C545 C239 1.957 . S
C553 C259 1.939 . S
C577 C9 1.735 . S
C585 C62 1.679 . S
C609 C29 1.779 . S
C617 C2 1.661 . S
C641 C49 1.748 . S
C649 C22 1.677 . S
C673 C69 1.789 . S
C681 C42 1.643 . S
C705 C89 1.752 . S
C713 C102 1.660 . S
C737 C122 1.643 . S
C745 C109 1.778 . S
C769 C129 1.735 . S
C777 C142 1.679 . S
C801 C82 1.649 . S
C809 C149 1.777 . S
C833 C224 1.700 . S
C841 C172 1.759 . S
C865 C192 1.793 . S
C873 C164 1.646 . S
C897 C212 1.743 . S
C905 C184 1.680 . S
C929 C232 1.735 . S
C937 C204 1.672 . S
C961 C252 1.746 . S
C969 C264 1.679 . S
C993 C272 1.765 . S
C1001 C284 1.648 . S
C1025 C292 1.737 . S
C1033 C304 1.667 . S
C1057 C312 1.791 . S
C1065 C244 1.656 . S
C1089 C12 0.588 . S
C1097 C52 0.591 . S
C1121 C32 0.638 . S
C1129 C72 0.568 . S
C1153 C132 0.620 . S
C1161 C92 0.531 . S
C1185 C152 0.626 . S
C1193 C112 0.578 . S
C1217 C209 0.609 . S
C1225 C169 0.591 . S
C1249 C229 0.592 . S
C1257 C189 0.593 . S
C1281 C249 0.630 . S
C1289 C289 0.584 . S
C1313 C269 0.592 . S
C1321 C309 0.529 . S
C1345 C4 1.197 . S
C1353 C238 1.276 . S
C1377 C178 1.305 . S
C1385 C24 1.231 . S
C1409 C44 1.187 . S
C1417 C198 1.278 . S
C1441 C218 1.262 . S
C1449 C64 1.208 . S
C1473 C278 1.264 . S
C1481 C84 1.206 . S
C1505 C104 1.258 . S
C1513 C298 1.275 . S
C1537 C318 1.291 . S
C1545 C124 1.196 . S
C1569 C144 1.162 . S
C1577 C258 1.292 . S
C1601 C162 1.163 . S
C1609 C79 1.298 . S
C1633 C182 1.265 . S
C1641 C19 1.274 . S
C1665 C39 1.262 . S
C1673 C202 1.214 . S
C1697 C222 1.243 . S
C1705 C59 1.292 . S
C1729 C242 1.269 . S
C1737 C119 1.280 . S
C1761 C262 1.203 . S
C1769 C139 1.278 . S
C1793 C159 1.295 . S
C1801 C282 1.231 . S
C1825 C99 1.313 . S
C1833 C302 1.198 . S
