# Generated by pormake.
# Topology wnj, (7)-cn, num edge types: 1
# Building blocks:
#     Node 0, Type 0, BuildingBlock: OLANEW_clean_sbu_3, # of connection points: 7
#     Node 1, Type 0, BuildingBlock: OLANEW_clean_sbu_3, # of connection points: 7
#     Node 2, Type 0, BuildingBlock: OLANEW_clean_sbu_3, # of connection points: 7
#     Node 3, Type 0, BuildingBlock: OLANEW_clean_sbu_3, # of connection points: 7
#     Node 4, Type 0, BuildingBlock: OLANEW_clean_sbu_3, # of connection points: 7
#     Node 5, Type 0, BuildingBlock: OLANEW_clean_sbu_3, # of connection points: 7
#     Edge 6, Type (0, 0), BuildingBlock: ZUJKAS_clean_linker_0, # of connection points: 2
#     Edge 7, Type (0, 0), BuildingBlock: ZUJKAS_clean_linker_0, # of connection points: 2
#     Edge 8, Type (0, 0), BuildingBlock: ZUJKAS_clean_linker_0, # of connection points: 2
#     Edge 9, Type (0, 0), BuildingBlock: ZUJKAS_clean_linker_0, # of connection points: 2
#     Edge 10, Type (0, 0), BuildingBlock: ZUJKAS_clean_linker_0, # of connection points: 2
#     Edge 11, Type (0, 0), BuildingBlock: ZUJKAS_clean_linker_0, # of connection points: 2
#     Edge 12, Type (0, 0), BuildingBlock: ZUJKAS_clean_linker_0, # of connection points: 2
#     Edge 13, Type (0, 0), BuildingBlock: ZUJKAS_clean_linker_0, # of connection points: 2
#     Edge 14, Type (0, 0), BuildingBlock: ZUJKAS_clean_linker_0, # of connection points: 2
#     Edge 15, Type (0, 0), BuildingBlock: ZUJKAS_clean_linker_0, # of connection points: 2
#     Edge 16, Type (0, 0), BuildingBlock: ZUJKAS_clean_linker_0, # of connection points: 2
#     Edge 17, Type (0, 0), BuildingBlock: ZUJKAS_clean_linker_0, # of connection points: 2
#     Edge 18, Type (0, 0), BuildingBlock: ZUJKAS_clean_linker_0, # of connection points: 2
#     Edge 19, Type (0, 0), BuildingBlock: ZUJKAS_clean_linker_0, # of connection points: 2
#     Edge 20, Type (0, 0), BuildingBlock: ZUJKAS_clean_linker_0, # of connection points: 2
#     Edge 21, Type (0, 0), BuildingBlock: ZUJKAS_clean_linker_0, # of connection points: 2
#     Edge 22, Type (0, 0), BuildingBlock: ZUJKAS_clean_linker_0, # of connection points: 2
#     Edge 23, Type (0, 0), BuildingBlock: ZUJKAS_clean_linker_0, # of connection points: 2
#     Edge 24, Type (0, 0), BuildingBlock: ZUJKAS_clean_linker_0, # of connection points: 2
#     Edge 25, Type (0, 0), BuildingBlock: ZUJKAS_clean_linker_0, # of connection points: 2
#     Edge 26, Type (0, 0), BuildingBlock: ZUJKAS_clean_linker_0, # of connection points: 2
# Relax obj value: 0.259
# Max RMSD: 0.267
# Mean RMSD: 0.267
data_MOF--net-wnj--node1-OLANEW_clean_sbu_3--edge1-ZUJKAS_clean_linker_0
_symmetry_space_group_name_H-M    P1
_symmetry_Int_Tables_number       1
_symmetry_cell_setting            triclinic
loop_
_symmetry_equiv_pos_as_xyz
'x, y, z'
_cell_length_a     47.042611
_cell_length_b     47.041882
_cell_length_c     53.846572
_cell_angle_alpha  90.028288
_cell_angle_beta   89.960135
_cell_angle_gamma 119.95722
loop_
_atom_site_label
_atom_site_type_symbol
_atom_site_fract_x
_atom_site_fract_y
_atom_site_fract_z
_atom_type_partial_charge
C0 C 0.06216 0.53975 0.0438 0.0
C1 C 0.07342 0.57339 0.04586 0.0
C2 C 0.10478 0.5936 0.0565 0.0
C3 C 0.12421 0.58014 0.06459 0.0
C4 C 0.11154 0.5464 0.06177 0.0
N5 N 0.0817 0.52867 0.05177 0.0
C6 C 0.12647 0.52624 0.06865 0.0
C7 C 0.11612 0.46919 0.06912 0.0
C8 C 0.14154 0.46927 0.05545 0.0
C9 C 0.15074 0.44578 0.06025 0.0
C10 C 0.1347 0.42223 0.07874 0.0
C11 C 0.10946 0.42217 0.09247 0.0
C12 C 0.10017 0.44558 0.0877 0.0
Cd13 Cd 0.18537 0.56927 0.1162 0.0
Cd14 Cd 0.1551 0.63739 0.13747 0.0
C15 C 0.01247 0.46137 0.00874 0.0
C16 C 0.96152 0.41265 0.99789 0.0
C17 C 0.97295 0.41451 0.97359 0.0
C18 C 1.00367 0.44024 0.96622 0.0
C19 C 0.02339 0.46382 0.98401 0.0
C20 C 0.98132 0.43609 0.01547 0.0
Co21 Co 0.06796 0.48546 0.04529 0.0
N22 N 0.09392 0.49451 0.01488 0.0
N23 N 0.05401 0.44209 0.03897 0.0
C24 C 0.06626 0.43565 0.01881 0.0
C25 C 0.05499 0.40282 0.01265 0.0
C26 C 0.03105 0.37825 0.0282 0.0
C27 C 0.01874 0.38676 0.04917 0.0
C28 C 0.03104 0.42009 0.05407 0.0
N29 N 0.03878 0.46887 0.07426 0.0
N30 N 0.10651 0.4931 0.06429 0.0
N31 N 0.03251 0.48523 0.02696 0.0
O32 O 0.1832 0.63784 0.17471 0.0
O33 O 0.18375 0.60381 0.14799 0.0
C34 C 0.23377 0.55078 0.13403 0.0
O35 O 0.20359 0.52912 0.13146 0.0
O36 O 0.24088 0.57987 0.12875 0.0
C37 C 0.21127 0.64394 0.08796 0.0
O38 O 0.213 0.6178 0.0894 0.0
O39 O 0.19357 0.64988 0.1026 0.0
C40 C 0.08947 0.46553 0.00525 0.0
O41 O 0.10284 0.4642 0.98415 0.0
O42 O 0.12575 0.55056 0.1253 0.0
O43 O 0.10689 0.58435 0.13466 0.0
C44 C 0.02218 0.43533 0.07424 0.0
O45 O 1.00191 0.41806 0.09218 0.0
C46 C 0.03713 0.48777 0.09453 0.0
C47 C 0.06483 0.50504 0.10881 0.0
C48 C 0.06801 0.52969 0.12469 0.0
C49 C 0.03992 0.53244 0.13 0.0
C50 C 1.00898 0.51068 0.11898 0.0
C51 C 1.00857 0.48918 0.10018 0.0
C52 C 0.19397 0.61908 0.16834 0.0
O53 O 0.15826 0.5397 0.07621 0.0
C54 C 0.10198 0.55565 0.13064 0.0
C55 C 0.11453 0.52573 0.00309 0.0
C56 C 0.10142 0.54515 0.995 0.0
C57 C 0.12094 0.57491 0.98307 0.0
C58 C 0.15355 0.5851 0.97793 0.0
C59 C 0.16654 0.56478 0.98378 0.0
C60 C 0.14722 0.53548 0.99695 0.0
C61 C 0.03312 0.5144 0.03029 0.0
O62 O 0.01299 0.52135 0.01833 0.0
H63 H 0.05909 0.58387 0.03889 0.0
H64 H 0.1142 0.61973 0.05816 0.0
H65 H 0.14814 0.59554 0.07261 0.0
H66 H 0.15407 0.48735 0.04105 0.0
H67 H 0.14185 0.40409 0.08246 0.0
H68 H 0.0808 0.44543 0.09862 0.0
H69 H 0.95671 0.397 0.95991 0.0
H70 H 0.04699 0.48398 0.97857 0.0
H71 H 0.97243 0.435 0.03422 0.0
H72 H 0.06402 0.39632 0.99638 0.0
H73 H 0.02187 0.35265 0.02388 0.0
H74 H 1.00023 0.36801 0.06095 0.0
H75 H 0.08515 0.50097 0.10581 0.0
H76 H 0.04251 0.55185 0.14222 0.0
H77 H 0.98645 0.47318 0.09002 0.0
H78 H 0.07579 0.53693 0.99647 0.0
H79 H 0.16782 0.60769 0.96767 0.0
H80 H 0.15717 0.51976 0.00159 0.0
C81 C 0.47607 0.52343 0.7132 0.0
C82 C 0.44288 0.50033 0.7167 0.0
C83 C 0.4226 0.51098 0.72803 0.0
C84 C 0.43553 0.5441 0.73537 0.0
C85 C 0.46883 0.5659 0.7311 0.0
N86 N 0.48661 0.55423 0.72045 0.0
C87 C 0.48858 0.60126 0.73726 0.0
C88 C 0.54498 0.64888 0.73601 0.0
C89 C 0.54288 0.67331 0.72257 0.0
C90 C 0.56573 0.70638 0.72666 0.0
C91 C 0.59065 0.71517 0.74418 0.0
C92 C 0.59272 0.69091 0.75768 0.0
C93 C 0.56995 0.65784 0.75362 0.0
Cd94 Cd 0.44722 0.61867 0.78514 0.0
Cd95 Cd 0.3862 0.52514 0.81825 0.0
C96 C 0.55252 0.55278 0.67541 0.0
C97 C 0.59826 0.54705 0.66089 0.0
C98 C 0.59589 0.55885 0.63757 0.0
C99 C 0.57078 0.56553 0.63233 0.0
C100 C 0.54862 0.56182 0.65121 0.0
C101 C 0.57723 0.54508 0.68012 0.0
Co102 Co 0.52928 0.58414 0.71296 0.0
N103 N 0.51853 0.59997 0.6828 0.0
N104 N 0.57216 0.61399 0.70569 0.0
C105 C 0.57745 0.63238 0.68553 0.0
C106 C 0.60991 0.65446 0.67877 0.0
C107 C 0.63532 0.65592 0.69377 0.0
C108 C 0.62799 0.63537 0.7148 0.0
C109 C 0.59497 0.61378 0.72029 0.0
N110 N 0.54729 0.57271 0.74156 0.0
N111 N 0.52157 0.61499 0.73204 0.0
N112 N 0.52982 0.54891 0.69474 0.0
O113 O 0.38739 0.5603 0.85097 0.0
O114 O 0.42026 0.58765 0.82101 0.0
C115 C 0.46604 0.68677 0.80031 0.0
O116 O 0.48667 0.67669 0.80115 0.0
O117 O 0.43771 0.66592 0.79244 0.0
C118 C 0.36899 0.56282 0.76494 0.0
O119 O 0.39451 0.59112 0.76269 0.0
O120 O 0.36688 0.54286 0.78187 0.0
C121 C 0.54686 0.6249 0.67268 0.0
O122 O 0.54705 0.63915 0.65163 0.0
O123 O 0.46741 0.57889 0.79457 0.0
O124 O 0.43863 0.52942 0.81175 0.0
C125 C 0.58081 0.59005 0.7408 0.0
O126 O 0.59895 0.58789 0.75844 0.0
C127 C 0.52937 0.55289 0.7624 0.0
C128 C 0.51325 0.56408 0.77739 0.0
C129 C 0.49039 0.54367 0.79481 0.0
C130 C 0.48862 0.51342 0.80074 0.0
C131 C 0.50869 0.50327 0.78816 0.0
C132 C 0.52788 0.52291 0.76795 0.0
C133 C 0.40148 0.58644 0.83832 0.0
O134 O 0.47478 0.61934 0.74468 0.0
C135 C 0.46517 0.55206 0.80254 0.0
C136 C 0.48667 0.58859 0.67186 0.0
C137 C 0.46709 0.55572 0.66463 0.0
C138 C 0.43681 0.54484 0.65333 0.0
C139 C 0.4262 0.5669 0.64796 0.0
C140 C 0.44654 0.60042 0.65302 0.0
C141 C 0.4763 0.61103 0.6657 0.0
C142 C 0.50126 0.52007 0.69906 0.0
O143 O 0.49439 0.4928 0.68742 0.0
H144 H 0.43276 0.47527 0.71041 0.0
H145 H 0.39682 0.49367 0.73087 0.0
H146 H 0.42007 0.55222 0.74401 0.0
H147 H 0.52371 0.66678 0.70894 0.0
H148 H 0.60829 0.74076 0.74735 0.0
H149 H 0.57163 0.63936 0.76441 0.0
H150 H 0.61218 0.56026 0.62273 0.0
H151 H 0.52833 0.56557 0.64689 0.0
H152 H 0.57886 0.53598 0.69824 0.0
H153 H 0.61551 0.66981 0.66247 0.0
H154 H 0.66065 0.67277 0.689 0.0
H155 H 0.64738 0.63631 0.7262 0.0
H156 H 0.51701 0.58831 0.77415 0.0
H157 H 0.47184 0.49818 0.8151 0.0
H158 H 0.54146 0.51502 0.75635 0.0
H159 H 0.47557 0.53851 0.66622 0.0
H160 H 0.40324 0.55805 0.63812 0.0
H161 H 0.49198 0.63685 0.66983 0.0
C162 C 0.49527 0.95915 0.38073 0.0
C163 C 0.51885 0.94986 0.38499 0.0
C164 C 0.50849 0.91903 0.39638 0.0
C165 C 0.47522 0.89821 0.40313 0.0
C166 C 0.45295 0.90894 0.39812 0.0
N167 N 0.46431 0.93819 0.38726 0.0
C168 C 0.41746 0.89297 0.40408 0.0
C169 C 0.36919 0.9006 0.40165 0.0
C170 C 0.34581 0.87428 0.38744 0.0
C171 C 0.31244 0.86349 0.39048 0.0
C172 C 0.30229 0.87883 0.40772 0.0
C173 C 0.32551 0.90496 0.42197 0.0
C174 C 0.35889 0.91584 0.41897 0.0
Cd175 Cd 0.39834 0.83302 0.45172 0.0
Cd176 Cd 0.49392 0.86389 0.47895 0.0
C177 C 0.46505 0.00699 0.34433 0.0
C178 C 0.46315 0.05618 0.33468 0.0
C179 C 0.44816 0.04215 0.31206 0.0
C180 C 0.4488 0.01462 0.30274 0.0
C181 C 0.45623 0.99624 0.31955 0.0
C182 C 0.47033 0.03793 0.35139 0.0
Co183 Co 0.43419 0.95071 0.37991 0.0
N184 N 0.41883 0.92467 0.34928 0.0
N185 N 0.40411 0.96355 0.37285 0.0
C186 C 0.38628 0.95112 0.35236 0.0
C187 C 0.36459 0.96194 0.34545 0.0
C188 C 0.3629 0.98562 0.36066 0.0
C189 C 0.38287 0.99816 0.38203 0.0
C190 C 0.4041 0.98632 0.38766 0.0
N191 N 0.44521 0.97969 0.40887 0.0
N192 N 0.4034 0.91185 0.3986 0.0
N193 N 0.46936 0.98689 0.36222 0.0
O194 O 0.4616 0.82711 0.51184 0.0
O195 O 0.43221 0.83265 0.48361 0.0
C196 C 0.33011 0.78466 0.46702 0.0
O197 O 0.34459 0.8139 0.47546 0.0
O198 O 0.34655 0.77847 0.45142 0.0
C199 C 0.45253 0.80949 0.42746 0.0
O200 O 0.42407 0.80646 0.42881 0.0
O201 O 0.47586 0.82791 0.44211 0.0
C202 C 0.39418 0.92854 0.33911 0.0
O203 O 0.38086 0.91577 0.31752 0.0
O204 O 0.43639 0.89288 0.4615 0.0
O205 O 0.48746 0.91151 0.47507 0.0
C206 C 0.42761 0.99563 0.40829 0.0
O207 O 0.42953 0.01566 0.42608 0.0
C208 C 0.46478 0.9813 0.42981 0.0
C209 C 0.45299 0.95394 0.44476 0.0
C210 C 0.47317 0.95064 0.46196 0.0
C211 C 0.50378 0.97863 0.46791 0.0
C212 C 0.51443 0.00905 0.45558 0.0
C213 C 0.49504 0.00945 0.43552 0.0
C214 C 0.43383 0.81661 0.5018 0.0
O215 O 0.39951 0.86105 0.41137 0.0
C216 C 0.46439 0.91656 0.46858 0.0
C217 C 0.43135 0.90572 0.33717 0.0
C218 C 0.46458 0.92039 0.33058 0.0
C219 C 0.47667 0.90305 0.31776 0.0
C220 C 0.45544 0.87127 0.30985 0.0
C221 C 0.42152 0.85704 0.31376 0.0
C222 C 0.40971 0.87369 0.32852 0.0
C223 C 0.49847 0.98791 0.36695 0.0
O224 O 0.526 0.00935 0.35615 0.0
H225 H 0.54411 0.96541 0.37937 0.0
H226 H 0.5262 0.9112 0.39987 0.0
H227 H 0.4674 0.87487 0.41204 0.0
H228 H 0.35341 0.86231 0.37398 0.0
H229 H 0.27647 0.87044 0.41007 0.0
H230 H 0.37658 0.93589 0.43028 0.0
H231 H 0.44073 0.05594 0.30027 0.0
H232 H 0.45614 0.97435 0.31339 0.0
H233 H 0.48114 0.0481 0.36929 0.0
H234 H 0.34978 0.95282 0.32884 0.0
H235 H 0.34639 0.99448 0.35575 0.0
H236 H 0.38189 0.01653 0.39352 0.0
H237 H 0.42858 0.93388 0.44135 0.0
H238 H 0.51954 0.97653 0.48156 0.0
H239 H 0.50293 0.03149 0.42463 0.0
H240 H 0.4812 0.94585 0.33363 0.0
H241 H 0.46538 0.85862 0.2993 0.0
H242 H 0.38361 0.86277 0.33188 0.0
C243 C 0.5423 0.05798 0.95581 0.0
C244 C 0.57585 0.06904 0.95334 0.0
C245 C 0.59611 0.10061 0.94305 0.0
C246 C 0.58278 0.12045 0.93575 0.0
C247 C 0.54913 0.10797 0.93891 0.0
N248 N 0.53139 0.07796 0.94859 0.0
C249 C 0.52895 0.12301 0.93242 0.0
C250 C 0.47185 0.11242 0.93169 0.0
C251 C 0.47183 0.13774 0.94545 0.0
C252 C 0.44845 0.14705 0.94055 0.0
C253 C 0.42512 0.13124 0.92189 0.0
C254 C 0.42517 0.10612 0.90807 0.0
C255 C 0.44848 0.09671 0.91294 0.0
Cd256 Cd 0.57258 0.18284 0.88597 0.0
Cd257 Cd 0.64316 0.15153 0.86688 0.0
C258 C 0.46568 0.01004 0.99273 0.0
C259 C 0.41914 0.95957 0.0076 0.0
C260 C 0.42421 0.97291 0.03151 0.0
C261 C 0.45108 1.00361 0.03669 0.0
C262 C 0.47208 0.02216 0.01731 0.0
C263 C 0.43924 0.97858 0.98799 0.0
Co264 Co 0.48819 0.06403 0.95501 0.0
N265 N 0.49685 0.08942 0.98576 0.0
N266 N 0.44471 0.04969 0.96119 0.0
C267 C 0.43794 0.06106 0.98168 0.0
C268 C 0.40501 0.04913 0.98789 0.0
C269 C 0.38068 0.02539 0.97209 0.0
C270 C 0.38955 0.01386 0.95084 0.0
C271 C 0.42296 0.02681 0.9459 0.0
N272 N 0.47207 0.03553 0.92562 0.0
N273 N 0.49579 0.10286 0.93649 0.0
N274 N 0.48789 0.02826 0.973 0.0
O275 O 0.64351 0.17881 0.82941 0.0
O276 O 0.60873 0.18138 0.85453 0.0
C277 C 0.55261 0.22929 0.86659 0.0
O278 O 0.53112 0.19975 0.87178 0.0
O279 O 0.58218 0.23644 0.86966 0.0
C280 C 0.64241 0.20829 0.91435 0.0
O281 O 0.61815 0.21314 0.91532 0.0
O282 O 0.6426 0.18885 0.89809 0.0
C283 C 0.46759 0.08411 0.99551 0.0
O284 O 0.46584 0.09666 0.0169 0.0
O285 O 0.55766 0.12349 0.87658 0.0
O286 O 0.58996 0.10299 0.86681 0.0
C287 C 0.43853 0.01859 0.92557 0.0
O288 O 0.42149 0.99848 0.90749 0.0
C289 C 0.49127 0.03411 0.90543 0.0
C290 C 0.50988 0.06232 0.89183 0.0
C291 C 0.53466 0.06522 0.87614 0.0
C292 C 0.53622 0.03661 0.87015 0.0
C293 C 0.51329 1.00571 0.8805 0.0
C294 C 0.49178 1.00525 0.89918 0.0
C295 C 0.62461 0.19002 0.83427 0.0
O296 O 0.54232 0.15491 0.92529 0.0
C297 C 0.56159 0.09905 0.87082 0.0
C298 C 0.52811 0.11155 0.99702 0.0
C299 C 0.55022 0.10087 0.00326 0.0
C300 C 0.58011 0.1219 0.01452 0.0
C301 C 0.58781 0.15355 0.02089 0.0
C302 C 0.5649 0.16388 0.01698 0.0
C303 C 0.53551 0.14325 0.00438 0.0
C304 C 0.51708 0.02894 0.9694 0.0
O305 O 0.52434 0.00909 0.98145 0.0
H306 H 0.58625 0.05438 0.95976 0.0
H307 H 0.62218 0.10987 0.94105 0.0
H308 H 0.59816 0.1445 0.92799 0.0
H309 H 0.48977 0.15012 0.95995 0.0
H310 H 0.40707 0.13849 0.9181 0.0
H311 H 0.4485 0.07751 0.90191 0.0
H312 H 0.40882 0.95796 0.04671 0.0
H313 H 0.49363 0.04535 0.02151 0.0
H314 H 0.43578 0.96828 0.9695 0.0
H315 H 0.39824 0.05749 0.00441 0.0
H316 H 0.35502 0.01569 0.97645 0.0
H317 H 0.371 0.99541 0.93891 0.0
H318 H 0.50653 0.08303 0.89505 0.0
H319 H 0.55482 0.03836 0.85737 0.0
H320 H 0.47578 0.98272 0.90901 0.0
H321 H 0.54407 0.07586 0.00093 0.0
H322 H 0.61059 0.16901 0.03061 0.0
H323 H 0.51798 0.1514 0.00116 0.0
C324 C 0.9627 0.49348 0.6187 0.0
C325 C 0.95287 0.51655 0.6139 0.0
C326 C 0.92197 0.50544 0.60243 0.0
C327 C 0.90156 0.47193 0.59619 0.0
C328 C 0.91281 0.45021 0.60174 0.0
N329 N 0.94217 0.46229 0.61255 0.0
C330 C 0.89723 0.41458 0.59652 0.0
C331 C 0.90561 0.36685 0.6001 0.0
C332 C 0.87949 0.3436 0.61454 0.0
C333 C 0.86904 0.31024 0.61197 0.0
C334 C 0.88451 0.29996 0.59496 0.0
C335 C 0.91044 0.32304 0.58046 0.0
C336 C 0.92098 0.35641 0.583 0.0
Cd337 Cd 0.83649 0.39543 0.54957 0.0
Cd338 Cd 0.86839 0.48927 0.51766 0.0
C339 C 1.01017 0.46549 0.65758 0.0
C340 C 0.05856 0.46326 0.67018 0.0
C341 C 0.04614 0.45548 0.69442 0.0
C342 C 0.01668 0.45411 0.70074 0.0
C343 C 0.9988 0.45945 0.6823 0.0
C344 C 0.04037 0.46805 0.65171 0.0
Co345 Co 0.95507 0.43276 0.62101 0.0
N346 N 0.92891 0.41831 0.65158 0.0
N347 N 0.96829 0.40327 0.6292 0.0
C348 C 0.95588 0.38616 0.64999 0.0
C349 C 0.96658 0.36458 0.65752 0.0
C350 C 0.99011 0.36225 0.64257 0.0
C351 C 1.00262 0.38148 0.62083 0.0
C352 C 0.99092 0.40265 0.6146 0.0
N353 N 0.98413 0.44291 0.59224 0.0
N354 N 0.91641 0.40103 0.60259 0.0
N355 N 0.99098 0.4688 0.63832 0.0
O356 O 0.83121 0.45511 0.48602 0.0
O357 O 0.83689 0.42726 0.51552 0.0
C358 C 0.78769 0.32672 0.53526 0.0
O359 O 0.81493 0.34293 0.52386 0.0
O360 O 0.78369 0.34154 0.55347 0.0
C361 C 0.81364 0.45171 0.57018 0.0
O362 O 0.81139 0.42355 0.57155 0.0
O363 O 0.83145 0.47281 0.55386 0.0
C364 C 0.93308 0.39431 0.66262 0.0
O365 O 0.91997 0.38148 0.68425 0.0
O366 O 0.89662 0.43242 0.53964 0.0
O367 O 0.91541 0.48232 0.52349 0.0
C368 C 1.00008 0.42536 0.59343 0.0
O369 O 0.01996 0.42658 0.57575 0.0
C370 C 0.98553 0.46167 0.57085 0.0
C371 C 0.95804 0.44929 0.55594 0.0
C372 C 0.95447 0.46891 0.53835 0.0
C373 C 0.98235 0.49937 0.53192 0.0
C374 C 0.01263 0.51043 0.5444 0.0
C375 C 0.01345 0.49195 0.56483 0.0
C376 C 0.81952 0.42861 0.49818 0.0
O377 O 0.86535 0.39614 0.58932 0.0
C378 C 0.92035 0.45979 0.53158 0.0
C379 C 0.9086 0.43014 0.66233 0.0
C380 C 0.92188 0.46349 0.66807 0.0
C381 C 0.90307 0.47497 0.67951 0.0
C382 C 0.87114 0.4531 0.68678 0.0
C383 C 0.85816 0.41921 0.68356 0.0
C384 C 0.8764 0.40791 0.67027 0.0
C385 C 0.99138 0.49749 0.63302 0.0
O386 O 0.01211 0.52534 0.64379 0.0
H387 H 0.96805 0.54199 0.61924 0.0
H388 H 0.91373 0.52273 0.59854 0.0
H389 H 0.8781 0.46349 0.5873 0.0
H390 H 0.86737 0.35129 0.62779 0.0
H391 H 0.87639 0.27415 0.59297 0.0
H392 H 0.94086 0.37397 0.57149 0.0
H393 H 0.06062 0.45275 0.70892 0.0
H394 H 0.97618 0.45873 0.6872 0.0
H395 H 0.04974 0.47405 0.63291 0.0
H396 H 0.95739 0.35026 0.67435 0.0
H397 H 0.99884 0.34577 0.64793 0.0
H398 H 0.02082 0.37995 0.6095 0.0
H399 H 0.93812 0.42489 0.55961 0.0
H400 H 0.9804 0.51463 0.51773 0.0
H401 H 0.03562 0.50078 0.57575 0.0
H402 H 0.94727 0.48077 0.66533 0.0
H403 H 0.85732 0.46256 0.6963 0.0
H404 H 0.86648 0.38183 0.66752 0.0
C405 C 0.52752 0.4703 0.28904 0.0
C406 C 0.50521 0.43679 0.28606 0.0
C407 C 0.5166 0.41707 0.27483 0.0
C408 C 0.54967 0.43087 0.26709 0.0
C409 C 0.57065 0.46446 0.27084 0.0
N410 N 0.55832 0.4817 0.28139 0.0
C411 C 0.60578 0.48499 0.2643 0.0
C412 C 0.65228 0.54206 0.2648 0.0
C413 C 0.67739 0.54087 0.27795 0.0
C414 C 0.71017 0.56435 0.27352 0.0
C415 C 0.71799 0.589 0.25591 0.0
C416 C 0.69305 0.59016 0.24269 0.0
C417 C 0.66026 0.56676 0.2471 0.0
Cd418 Cd 0.62325 0.44453 0.21616 0.0
Cd419 Cd 0.53089 0.38167 0.18228 0.0
C420 C 0.55515 0.54726 0.32575 0.0
C421 C 0.5479 0.59244 0.33886 0.0
C422 C 0.55928 0.59108 0.36255 0.0
C423 C 0.56751 0.56716 0.36851 0.0
C424 C 0.5648 0.54476 0.3501 0.0
C425 C 0.54643 0.57099 0.32029 0.0
Co426 Co 0.58739 0.52481 0.2884 0.0
N427 N 0.6045 0.5154 0.3185 0.0
N428 N 0.61637 0.56813 0.29522 0.0
C429 C 0.63519 0.57432 0.31523 0.0
C430 C 0.65653 0.60708 0.3217 0.0
C431 C 0.65679 0.63184 0.30659 0.0
C432 C 0.6358 0.62356 0.28575 0.0
C433 C 0.61502 0.59029 0.28055 0.0
N434 N 0.57458 0.54172 0.25978 0.0
N435 N 0.61868 0.518 0.26912 0.0
N436 N 0.55187 0.52423 0.30694 0.0
O437 O 0.56749 0.38744 0.14884 0.0
O438 O 0.59244 0.41836 0.18025 0.0
C439 C 0.69062 0.46327 0.19983 0.0
O440 O 0.68329 0.48513 0.20562 0.0
O441 O 0.66741 0.43383 0.20163 0.0
C442 C 0.56931 0.36634 0.23647 0.0
O443 O 0.59702 0.39251 0.23904 0.0
O444 O 0.54938 0.36336 0.21919 0.0
C445 C 0.62894 0.54427 0.3283 0.0
O446 O 0.64377 0.54533 0.34927 0.0
O447 O 0.58161 0.46228 0.20655 0.0
O448 O 0.53225 0.43288 0.18937 0.0
C449 C 0.59102 0.57526 0.26032 0.0
O450 O 0.58787 0.59279 0.24267 0.0
C451 C 0.55462 0.52331 0.23912 0.0
C452 C 0.56579 0.507 0.22435 0.0
C453 C 0.54563 0.48433 0.2067 0.0
C454 C 0.5155 0.48269 0.20053 0.0
C455 C 0.50553 0.50308 0.21283 0.0
C456 C 0.52496 0.52229 0.23309 0.0
C457 C 0.5938 0.40369 0.16098 0.0
O458 O 0.62443 0.47192 0.25671 0.0
C459 C 0.55453 0.45956 0.19869 0.0
C460 C 0.59436 0.48396 0.32973 0.0
C461 C 0.56177 0.46369 0.33736 0.0
C462 C 0.55198 0.43368 0.34876 0.0
C463 C 0.5749 0.42411 0.35386 0.0
C464 C 0.60819 0.44527 0.3485 0.0
C465 C 0.61773 0.47476 0.33578 0.0
C466 C 0.52346 0.4951 0.30306 0.0
O467 O 0.49617 0.48762 0.31494 0.0
H468 H 0.48022 0.42604 0.2927 0.0
H469 H 0.49992 0.39107 0.2724 0.0
H470 H 0.55836 0.41583 0.25857 0.0
H471 H 0.67161 0.52192 0.29164 0.0
H472 H 0.74335 0.60713 0.25247 0.0
H473 H 0.64123 0.56771 0.23651 0.0
H474 H 0.55961 0.60745 0.3769 0.0
H475 H 0.56983 0.52539 0.35484 0.0
H476 H 0.53731 0.57178 0.30197 0.0
H477 H 0.67219 0.61339 0.33786 0.0
H478 H 0.67304 0.65738 0.31113 0.0
H479 H 0.63579 0.64244 0.27428 0.0
H480 H 0.59001 0.51082 0.22769 0.0
H481 H 0.5003 0.46598 0.18611 0.0
H482 H 0.51718 0.53633 0.24425 0.0
H483 H 0.54398 0.47145 0.33597 0.0
H484 H 0.56692 0.40131 0.36375 0.0
H485 H 0.64339 0.49108 0.3315 0.0
H486 H 0.19333 0.65839 0.044 0.0
H487 H 0.22649 0.7072 0.01817 0.0
H488 H 0.30811 0.7372 0.06833 0.0
H489 H 0.27529 0.6882 0.09367 0.0
H490 H 0.25298 0.77141 0.03648 0.0
H491 H 0.35151 0.75077 1.00031 0.0
H492 H 0.3132 0.71781 0.01216 0.0
H493 H 0.34532 0.7444 0.03316 0.0
C494 C 0.21868 0.67505 0.04895 0.0
C495 C 0.23221 0.66961 0.07038 0.0
C496 C 0.23747 0.70284 0.03434 0.0
C497 C 0.26987 0.72546 0.04114 0.0
C498 C 0.28349 0.71956 0.06236 0.0
H499 H 0.42391 0.9132 0.0328 0.0
H500 H 0.38457 0.85489 0.03452 0.0
C501 C 0.26481 0.69169 0.07682 0.0
C502 C 0.28856 0.75687 0.02769 0.0
H503 H 0.36282 0.80648 0.00083 0.0
C504 C 0.27668 0.77895 0.02811 0.0
C505 C 0.31939 0.76646 0.01685 0.0
C506 C 0.333 0.74349 0.01536 0.0
C507 C 0.29607 0.81138 0.01978 0.0
C508 C 0.3277 0.82147 0.01015 0.0
C509 C 0.33849 0.79861 0.0081 0.0
C510 C 0.35222 0.8565 0.00665 0.0
C511 C 0.28359 0.83513 0.02316 0.0
C512 C 0.34751 0.87677 0.98991 0.0
C513 C 0.37004 0.91054 0.98914 0.0
C514 C 0.39729 0.92399 0.00503 0.0
C515 C 0.40276 0.90331 0.02061 0.0
C516 C 0.38039 0.87 0.02151 0.0
H517 H 0.26067 0.82445 0.03433 0.0
H518 H 0.30237 0.85789 0.03246 0.0
H519 H 0.27838 0.84199 0.00472 0.0
H520 H 0.32619 0.86664 0.97794 0.0
H521 H 0.3656 0.92622 0.97693 0.0
H522 H 0.36375 0.59613 0.72471 0.0
H523 H 0.31447 0.58099 0.69978 0.0
H524 H 0.26014 0.49318 0.74338 0.0
H525 H 0.30879 0.50774 0.76824 0.0
H526 H 0.26588 0.50879 0.67468 0.0
H527 H 0.2159 0.55627 0.74739 0.0
H528 H 0.25942 0.57184 0.74376 0.0
H529 H 0.23393 0.5323 0.75748 0.0
C530 C 0.3414 0.57346 0.72886 0.0
C531 C 0.34024 0.55324 0.74858 0.0
C532 C 0.31337 0.56483 0.71455 0.0
C533 C 0.28386 0.53603 0.71985 0.0
C534 C 0.28281 0.51548 0.73905 0.0
H535 H 0.08483 0.42436 0.67971 0.0
H536 H 0.14333 0.44351 0.68557 0.0
C537 C 0.31069 0.52393 0.75324 0.0
C538 C 0.25336 0.52804 0.70654 0.0
H539 H 0.18029 0.52556 0.71468 0.0
C540 C 0.24729 0.51284 0.68318 0.0
C541 C 0.22927 0.53327 0.71785 0.0
C542 C 0.2348 0.54947 0.74296 0.0
C543 C 0.21703 0.50177 0.67116 0.0
C544 C 0.19275 0.50634 0.68281 0.0
C545 C 0.19923 0.52238 0.70579 0.0
C546 C 0.15943 0.49274 0.67257 0.0
C547 C 0.21069 0.4847 0.64642 0.0
C548 C 0.14953 0.5138 0.66232 0.0
C549 C 0.11623 0.50282 0.65872 0.0
C550 C 0.09257 0.47087 0.66578 0.0
C551 C 0.10274 0.44904 0.67403 0.0
C552 C 0.13604 0.45993 0.67738 0.0
H553 H 0.23316 0.48599 0.63858 0.0
H554 H 0.19162 0.45852 0.64865 0.0
H555 H 0.20112 0.49585 0.63303 0.0
H556 H 0.16734 0.5393 0.65879 0.0
H557 H 0.10889 0.52018 0.65266 0.0
H558 H 0.4169 0.74337 0.4225 0.0
H559 H 0.43191 0.70855 0.39841 0.0
H560 H 0.5155 0.795 0.36838 0.0
H561 H 0.50162 0.8297 0.39373 0.0
H562 H 0.44 0.69979 0.35072 0.0
H563 H 0.56024 0.75066 0.39859 0.0
H564 H 0.5293 0.76017 0.40835 0.0
H565 H 0.55527 0.78102 0.38217 0.0
C566 C 0.43821 0.75479 0.41047 0.0
C567 C 0.45831 0.78902 0.40995 0.0
C568 C 0.44681 0.73497 0.39677 0.0
C569 C 0.47532 0.74917 0.38207 0.0
C570 C 0.49405 0.7835 0.38023 0.0
H571 H 0.57553 0.65264 0.31704 0.0
H572 H 0.55623 0.69234 0.32144 0.0
C573 C 0.48598 0.80328 0.39447 0.0
C574 C 0.48615 0.72801 0.36972 0.0
H575 H 0.54925 0.71191 0.36715 0.0
C576 C 0.46399 0.7026 0.35416 0.0
C577 C 0.51745 0.73161 0.37429 0.0
C578 C 0.54181 0.75711 0.39194 0.0
C579 C 0.47209 0.68045 0.3433 0.0
C580 C 0.50312 0.68378 0.34822 0.0
C581 C 0.52564 0.70974 0.36313 0.0
C582 C 0.51148 0.65858 0.34076 0.0
C583 C 0.44718 0.65348 0.32692 0.0
C584 C 0.49235 0.62641 0.34961 0.0
C585 C 0.50312 0.60391 0.34683 0.0
C586 C 0.53332 0.61333 0.33541 0.0
C587 C 0.55183 0.6449 0.32543 0.0
C588 C 0.54092 0.66748 0.3281 0.0
H589 H 0.43056 0.66087 0.31802 0.0
H590 H 0.4592 0.64662 0.31221 0.0
H591 H 0.43184 0.63148 0.33845 0.0
H592 H 0.47016 0.61928 0.36013 0.0
H593 H 0.48898 0.5798 0.35512 0.0
H594 H 0.6623 0.2664 0.93882 0.0
H595 H 0.71438 0.29935 0.96095 0.0
H596 H 0.73867 0.22323 0.94927 0.0
H597 H 0.68746 0.19081 0.92661 0.0
H598 H 0.74493 0.28945 0.00212 0.0
H599 H 0.81373 0.30208 0.91527 0.0
H600 H 0.76998 0.28595 0.91562 0.0
H601 H 0.7867 0.26012 0.92375 0.0
C602 C 0.67863 0.2566 0.94125 0.0
C603 C 0.67119 0.22635 0.93063 0.0
C604 C 0.70829 0.27539 0.95389 0.0
C605 C 0.73064 0.264 0.95619 0.0
C606 C 0.72212 0.23281 0.9471 0.0
H607 H 0.93307 0.34648 0.99583 0.0
H608 H 0.87423 0.30797 0.99132 0.0
C609 C 0.69283 0.2143 0.93422 0.0
C610 C 0.76373 0.28531 0.96663 0.0
H611 H 0.84491 0.32023 0.95226 0.0
C612 C 0.76685 0.29628 0.99128 0.0
C613 C 0.79222 0.29448 0.95228 0.0
C614 C 0.79058 0.28535 0.92519 0.0
C615 C 0.79789 0.31537 0.00221 0.0
C616 C 0.82626 0.3237 0.98801 0.0
C617 C 0.82304 0.31319 0.96327 0.0
C618 C 0.85986 0.34452 0.99766 0.0
C619 C 0.80008 0.32601 0.0289 0.0
C620 C 0.871 0.37738 0.00395 0.0
C621 C 0.90453 0.39921 0.00694 0.0
C622 C 0.92715 0.38843 0.00326 0.0
C623 C 0.91585 0.35508 0.99896 0.0
C624 C 0.88237 0.33321 0.99628 0.0
H625 H 0.77684 0.31037 0.03909 0.0
H626 H 0.82045 0.32524 0.0387 0.0
H627 H 0.80495 0.35164 0.02941 0.0
H628 H 0.85417 0.38677 0.00454 0.0
H629 H 0.91292 0.42501 0.00978 0.0
H630 H 0.79121 0.42809 0.61706 0.0
H631 H 0.75858 0.44266 0.64435 0.0
H632 H 0.75765 0.50696 0.58758 0.0
H633 H 0.79125 0.49373 0.56094 0.0
H634 H 0.76887 0.5356 0.63132 0.0
H635 H 0.66224 0.40909 0.63886 0.0
H636 H 0.70032 0.4139 0.65004 0.0
H637 H 0.69555 0.41944 0.61756 0.0
C638 C 0.78399 0.44534 0.6105 0.0
C639 C 0.79379 0.45982 0.5869 0.0
C640 C 0.76525 0.45353 0.62604 0.0
C641 C 0.75531 0.47562 0.61792 0.0
C642 C 0.76516 0.49002 0.59436 0.0
H643 H 0.59539 0.49901 0.63241 0.0
H644 H 0.63554 0.48114 0.62931 0.0
C645 C 0.78434 0.48238 0.5791 0.0
C646 C 0.73427 0.48383 0.63342 0.0
H647 H 0.65743 0.45104 0.65811 0.0
C648 C 0.74462 0.51712 0.63748 0.0
C649 C 0.70267 0.45963 0.64147 0.0
C650 C 0.68932 0.42354 0.63662 0.0
C651 C 0.72345 0.52701 0.64764 0.0
C652 C 0.69146 0.5028 0.65492 0.0
C653 C 0.68206 0.4695 0.65267 0.0
C654 C 0.66545 0.51109 0.65989 0.0
C655 C 0.73467 0.56319 0.64858 0.0
C656 C 0.66818 0.53311 0.67871 0.0
C657 C 0.64523 0.54383 0.68025 0.0
C658 C 0.61938 0.53233 0.6631 0.0
C659 C 0.61544 0.50851 0.64562 0.0
C660 C 0.6383 0.49817 0.64393 0.0
H661 H 0.75815 0.57824 0.6385 0.0
H662 H 0.71586 0.56805 0.64036 0.0
H663 H 0.7384 0.57146 0.6682 0.0
H664 H 0.68855 0.5428 0.69159 0.0
H665 H 0.64853 0.56212 0.69393 0.0
H666 H 0.59601 0.36669 0.28189 0.0
H667 H 0.58057 0.31989 0.30958 0.0
H668 H 0.50706 0.25612 0.257 0.0
H669 H 0.52148 0.30273 0.22975 0.0
H670 H 0.48379 0.24226 0.30322 0.0
H671 H 0.60581 0.25075 0.2992 0.0
H672 H 0.60667 0.28693 0.31086 0.0
H673 H 0.5949 0.27446 0.27919 0.0
C674 C 0.57655 0.34268 0.27626 0.0
C675 C 0.56009 0.3384 0.25355 0.0
C676 C 0.56783 0.31594 0.29206 0.0
C677 C 0.54298 0.2844 0.28521 0.0
C678 C 0.52627 0.28023 0.26272 0.0
H679 H 0.50981 0.09748 0.30399 0.0
H680 H 0.53014 0.15555 0.29873 0.0
C681 C 0.53463 0.30692 0.24711 0.0
C682 C 0.53455 0.25531 0.30091 0.0
H683 H 0.56538 0.20834 0.32318 0.0
C684 C 0.50163 0.2349 0.30783 0.0
C685 C 0.55792 0.2458 0.30682 0.0
C686 C 0.59323 0.26541 0.29847 0.0
C687 C 0.49101 0.20427 0.31905 0.0
C688 C 0.5143 0.19444 0.32448 0.0
C689 C 0.5476 0.21601 0.3192 0.0
C690 C 0.50429 0.1599 0.33056 0.0
C691 C 0.4547 0.18186 0.3232 0.0
C692 C 0.48363 0.14283 0.35073 0.0
C693 C 0.47112 0.10891 0.35339 0.0
C694 C 0.4798 0.09221 0.33614 0.0
C695 C 0.50252 0.1099 0.31736 0.0
C696 C 0.51429 0.14317 0.31442 0.0
H697 H 0.43974 0.19111 0.31403 0.0
H698 H 0.44672 0.15686 0.31601 0.0
H699 H 0.4494 0.17996 0.3434 0.0
H700 H 0.47634 0.15543 0.36386 0.0
H701 H 0.45376 0.09561 0.36807 0.0
H702 H 0.49638 0.55655 0.2132 0.0
H703 H 0.4489 0.5604 0.19984 0.0
H704 H 0.39912 0.45839 0.17896 0.0
H705 H 0.44618 0.45392 0.19324 0.0
H706 H 0.42131 0.55204 0.15447 0.0
H707 H 0.3273 0.46091 0.21818 0.0
H708 H 0.37056 0.47586 0.22235 0.0
H709 H 0.34777 0.44523 0.19923 0.0
C710 C 0.47519 0.5346 0.20626 0.0
C711 C 0.47552 0.5048 0.20469 0.0
C712 C 0.44794 0.53697 0.19834 0.0
C713 C 0.41979 0.50965 0.18863 0.0
C714 C 0.41998 0.47982 0.18683 0.0
H715 H 0.23156 0.49071 0.13639 0.0
H716 H 0.27582 0.4799 0.14817 0.0
C717 C 0.44733 0.47741 0.19477 0.0
C718 C 0.39112 0.5131 0.17972 0.0
H719 H 0.30891 0.48485 0.18828 0.0
C720 C 0.39676 0.5373 0.16195 0.0
C721 C 0.3587 0.49372 0.18901 0.0
C722 C 0.35062 0.46764 0.20839 0.0
C723 C 0.37143 0.54268 0.15331 0.0
C724 C 0.33918 0.52415 0.16324 0.0
C725 C 0.33337 0.4994 0.18064 0.0
C726 C 0.31159 0.53054 0.15624 0.0
C727 C 0.37962 0.56774 0.13304 0.0
C728 C 0.31601 0.56245 0.15722 0.0
C729 C 0.29084 0.5687 0.15013 0.0
C730 C 0.2599 0.54319 0.14238 0.0
C731 C 0.25495 0.51104 0.1422 0.0
C732 C 0.2804 0.50484 0.14898 0.0
H733 H 0.40056 0.57067 0.12158 0.0
H734 H 0.35835 0.56089 0.12061 0.0
H735 H 0.38698 0.59192 0.14158 0.0
H736 H 0.33903 0.58276 0.16361 0.0
H737 H 0.29565 0.59374 0.15089 0.0
H738 H 0.42404 0.71125 0.80453 0.0
H739 H 0.43587 0.76587 0.81773 0.0
H740 H 0.53758 0.79468 0.82788 0.0
H741 H 0.52586 0.73987 0.8145 0.0
H742 H 0.45981 0.79766 0.86244 0.0
H743 H 0.54616 0.87188 0.78752 0.0
H744 H 0.52082 0.82783 0.78543 0.0
H745 H 0.55715 0.8458 0.80432 0.0
C746 C 0.44904 0.72917 0.8094 0.0
C747 C 0.47395 0.7208 0.80827 0.0
C748 C 0.4558 0.7606 0.81703 0.0
C749 C 0.48778 0.78507 0.82358 0.0
C750 C 0.51278 0.77682 0.8225 0.0
H751 H 0.56366 0.99238 0.87068 0.0
H752 H 0.55893 0.93998 0.85783 0.0
C753 C 0.50598 0.7452 0.81498 0.0
C754 C 0.49428 0.81843 0.83237 0.0
H755 H 0.53727 0.90101 0.81947 0.0
C756 C 0.47676 0.82019 0.85295 0.0
C757 C 0.51675 0.8483 0.82046 0.0
C758 C 0.53617 0.84855 0.79809 0.0
C759 C 0.48099 0.85036 0.8619 0.0
C760 C 0.50248 0.88019 0.84943 0.0
C761 C 0.52055 0.87853 0.82911 0.0
C762 C 0.50579 0.9129 0.85684 0.0
C763 C 0.46289 0.84978 0.88522 0.0
C764 C 0.47782 0.91614 0.86013 0.0
C765 C 0.48049 0.94593 0.86791 0.0
C766 C 0.51129 0.97407 0.87206 0.0
C767 C 0.53947 0.97137 0.86779 0.0
C768 C 0.53675 0.94124 0.8604 0.0
H769 H 0.45769 0.82841 0.8971 0.0
H770 H 0.47706 0.87249 0.89634 0.0
H771 H 0.43896 0.84742 0.8801 0.0
H772 H 0.45362 0.89554 0.85656 0.0
H773 H 0.45822 0.94707 0.87031 0.0
H774 H 0.04437 0.5718 0.56601 0.0
H775 H 0.09562 0.62046 0.55255 0.0
H776 H 0.10281 0.56473 0.49168 0.0
H777 H 0.05084 0.51706 0.50434 0.0
H778 H 0.15545 0.63511 0.54983 0.0
H779 H 0.12202 0.64241 0.45293 0.0
H780 H 0.09212 0.61517 0.4751 0.0
H781 H 0.11795 0.60311 0.45876 0.0
C782 C 0.0567 0.57023 0.54951 0.0
C783 C 0.04326 0.54068 0.53603 0.0
C784 C 0.08619 0.59808 0.54182 0.0
C785 C 0.10332 0.59711 0.52056 0.0
C786 C 0.08996 0.56716 0.50747 0.0
H787 H 0.29447 0.72069 0.45113 0.0
H788 H 0.24025 0.67755 0.46468 0.0
C789 C 0.06023 0.5396 0.51487 0.0
C790 C 0.13567 0.62665 0.51278 0.0
H791 H 0.17949 0.67232 0.46234 0.0
C792 C 0.1604 0.64336 0.5307 0.0
C793 C 0.14277 0.63815 0.48785 0.0
C794 C 0.11716 0.62399 0.46765 0.0
C795 C 0.19177 0.66987 0.5244 0.0
C796 C 0.19917 0.68054 0.49935 0.0
C797 C 0.17433 0.66425 0.4815 0.0
C798 C 0.23261 0.70773 0.49111 0.0
C799 C 0.21712 0.68553 0.54463 0.0
C800 C 0.2469 0.73975 0.50099 0.0
C801 C 0.27822 0.76474 0.49318 0.0
C802 C 0.29622 0.75857 0.47512 0.0
C803 C 0.28164 0.72663 0.46505 0.0
C804 C 0.2504 0.70176 0.47282 0.0
H805 H 0.21064 0.66963 0.56134 0.0
H806 H 0.24169 0.69102 0.53799 0.0
H807 H 0.21869 0.70896 0.55029 0.0
H808 H 0.23372 0.74559 0.51468 0.0
H809 H 0.28836 0.78892 0.50135 0.0
H810 H 0.46003 0.4451 0.80996 0.0
H811 H 0.4643 0.39798 0.8243 0.0
H812 H 0.56357 0.44355 0.79712 0.0
H813 H 0.56043 0.49138 0.78423 0.0
H814 H 0.47523 0.3528 0.80162 0.0
H815 H 0.57805 0.42315 0.8663 0.0
H816 H 0.55548 0.4406 0.85216 0.0
H817 H 0.58782 0.43908 0.83533 0.0
C818 C 0.48306 0.44557 0.80732 0.0
C819 C 0.50996 0.47285 0.79592 0.0
C820 C 0.48534 0.41819 0.81539 0.0
C821 C 0.51456 0.41713 0.81243 0.0
C822 C 0.54098 0.44377 0.8004 0.0
H823 H 0.59353 0.28865 0.84488 0.0
H824 H 0.58182 0.33157 0.83213 0.0
C825 C 0.53886 0.47116 0.79254 0.0
C826 C 0.51766 0.38842 0.82172 0.0
H827 H 0.5666 0.36903 0.85662 0.0
C828 C 0.49509 0.35636 0.8138 0.0
C829 C 0.54335 0.39258 0.83784 0.0
C830 C 0.56733 0.42565 0.84862 0.0
C831 C 0.49835 0.32895 0.82049 0.0
C832 C 0.52464 0.33326 0.83607 0.0
C833 C 0.54662 0.36527 0.8445 0.0
C834 C 0.53077 0.30557 0.84325 0.0
C835 C 0.47417 0.29586 0.80989 0.0
C836 C 0.50622 0.276 0.85396 0.0
C837 C 0.51282 0.25088 0.86094 0.0
C838 C 0.54437 0.25482 0.85794 0.0
C839 C 0.5689 0.28449 0.84748 0.0
C840 C 0.5622 0.30928 0.8402 0.0
H841 H 0.46201 0.29819 0.79295 0.0
H842 H 0.48629 0.28149 0.80515 0.0
H843 H 0.45475 0.28193 0.82386 0.0
H844 H 0.48202 0.27248 0.85743 0.0
H845 H 0.49339 0.2287 0.86927 0.0
H846 H 0.78317 0.29274 0.49204 0.0
H847 H 0.73846 0.23894 0.47864 0.0
H848 H 0.68812 0.22909 0.54777 0.0
H849 H 0.73189 0.28326 0.56067 0.0
H850 H 0.71295 0.1784 0.49264 0.0
H851 H 0.61371 0.20777 0.50363 0.0
H852 H 0.6563 0.2387 0.50649 0.0
H853 H 0.63461 0.21246 0.53242 0.0
C854 C 0.76254 0.27917 0.50439 0.0
C855 C 0.7613 0.2928 0.52743 0.0
C856 C 0.7368 0.24819 0.49668 0.0
C857 C 0.70892 0.22968 0.51174 0.0
C858 C 0.70834 0.24287 0.53515 0.0
H859 H 0.53777 0.03002 0.503 0.0
H860 H 0.58539 0.08195 0.51615 0.0
C861 C 0.73379 0.27397 0.5427 0.0
C862 C 0.68085 0.19674 0.50315 0.0
H863 H 0.59683 0.15131 0.49766 0.0
C864 C 0.68765 0.17278 0.49363 0.0
C865 C 0.64738 0.18871 0.50407 0.0
C866 C 0.63757 0.2134 0.51195 0.0
C867 C 0.6624 0.14151 0.48567 0.0
C868 C 0.62913 0.1334 0.48726 0.0
C869 C 0.62222 0.15719 0.49663 0.0
C870 C 0.60115 0.10062 0.47901 0.0
C871 C 0.67132 0.11696 0.47586 0.0
C872 C 0.59387 0.09327 0.45366 0.0
C873 C 0.56638 0.06352 0.44602 0.0
C874 C 0.54534 0.03999 0.4635 0.0
C875 C 0.55329 0.04714 0.48888 0.0
C876 C 0.58056 0.07705 0.49649 0.0
H877 H 0.69789 0.12557 0.47794 0.0
H878 H 0.65699 0.0932 0.48573 0.0
H879 H 0.66485 0.11244 0.45587 0.0
H880 H 0.60917 0.11088 0.43971 0.0
H881 H 0.56159 0.05903 0.42633 0.0
H882 H 0.9504 0.48981 0.09268 0.0
H883 H 0.89904 0.48459 0.10731 0.0
H884 H 0.94383 0.52747 0.17734 0.0
H885 H 0.99497 0.53095 0.16377 0.0
H886 H 0.86635 0.44962 0.16014 0.0
H887 H 0.89292 0.57776 0.14602 0.0
H888 H 0.91259 0.56053 0.12735 0.0
H889 H 0.92392 0.57046 0.15926 0.0
C890 C 0.94975 0.49783 0.11137 0.0
C891 C 0.97772 0.51048 0.12692 0.0
C892 C 0.92006 0.49512 0.11962 0.0
C893 C 0.91731 0.50563 0.14346 0.0
C894 C 0.94519 0.51927 0.1588 0.0
H895 H 0.75128 0.51611 0.21212 0.0
H896 H 0.80584 0.52592 0.19991 0.0
C897 C 0.97478 0.52148 0.15077 0.0
C898 C 0.88489 0.50071 0.15265 0.0
H899 H 0.84081 0.5399 0.16176 0.0
C900 C 0.86074 0.46936 0.16049 0.0
C901 C 0.87764 0.52649 0.15371 0.0
C902 C 0.90295 0.56081 0.14612 0.0
C903 C 0.82977 0.46304 0.16929 0.0
C904 C 0.82162 0.48845 0.16921 0.0
C905 C 0.84625 0.52006 0.16171 0.0
C906 C 0.78795 0.48271 0.17662 0.0
C907 C 0.80678 0.42927 0.17946 0.0
C908 C 0.75898 0.45561 0.16746 0.0
C909 C 0.72779 0.44949 0.17507 0.0
C910 C 0.72422 0.471 0.1913 0.0
C911 C 0.75298 0.49899 0.1996 0.0
C912 C 0.78433 0.50461 0.19255 0.0
H913 H 0.82056 0.41762 0.18686 0.0
H914 H 0.79111 0.43002 0.19456 0.0
H915 H 0.79086 0.41336 0.16425 0.0
H916 H 0.76033 0.43898 0.15426 0.0
H917 H 0.70628 0.42794 0.16794 0.0
H918 H 0.99442 0.39928 0.72913 0.0
H919 H 0.99079 0.39627 0.77465 0.0
H920 H 0.01852 0.49861 0.77748 0.0
H921 H 0.02073 0.50107 0.73204 0.0
H922 H 0.04048 0.42845 0.80548 0.0
H923 H 0.94689 0.463 0.82778 0.0
H924 H 0.95241 0.4521 0.79675 0.0
H925 H 0.97886 0.49291 0.80846 0.0
C926 C 0.99847 0.42069 0.73956 0.0
C927 C 1.00717 0.45021 0.72722 0.0
C928 C 0.99673 0.4191 0.76552 0.0
C929 C 1.00406 0.44712 0.77963 0.0
C930 C 0.01182 0.47639 0.76715 0.0
H931 H 0.03029 0.49561 0.93725 0.0
H932 H 0.03457 0.49828 0.89184 0.0
C933 C 0.01307 0.47783 0.74117 0.0
C934 C 1.00651 0.44654 0.80722 0.0
H935 H 0.98118 0.46518 0.86123 0.0
C936 C 0.0273 0.43625 0.81765 0.0
C937 C 0.98949 0.45686 0.82322 0.0
C938 C 0.96542 0.46652 0.81349 0.0
C939 C 0.03196 0.43655 0.84347 0.0
C940 C 0.01519 0.44719 0.85942 0.0
C941 C 0.99438 0.45741 0.84902 0.0
C942 C 0.01751 0.44655 0.88698 0.0
C943 C 0.05529 0.42602 0.85337 0.0
C944 C 1.00749 0.41682 0.89943 0.0
C945 C 1.00541 0.41533 0.92535 0.0
C946 C 0.01285 0.44345 0.93943 0.0
C947 C 0.02463 0.47357 0.92703 0.0
C948 C 0.02678 0.47506 0.90104 0.0
H949 H 0.07336 0.42838 0.83904 0.0
H950 H 0.0688 0.4407 0.86987 0.0
H951 H 0.04111 0.39984 0.85894 0.0
H952 H 0.99972 0.39439 0.88908 0.0
H953 H 0.99654 0.39179 0.93434 0.0
H954 H 0.53707 0.51357 0.39884 0.0
H955 H 0.53908 0.51401 0.44444 0.0
H956 H 0.61628 0.61522 0.44312 0.0
H957 H 0.61403 0.61496 0.39767 0.0
H958 H 0.58796 0.53079 0.48205 0.0
H959 H 0.54056 0.61781 0.47951 0.0
H960 H 0.54109 0.5954 0.45247 0.0
H961 H 0.57806 0.63116 0.46262 0.0
C962 C 0.55518 0.53553 0.40829 0.0
C963 C 0.57517 0.56433 0.39481 0.0
C964 C 0.55616 0.53586 0.43433 0.0
C965 C 0.57715 0.56495 0.44716 0.0
C966 C 0.59931 0.59276 0.4336 0.0
H967 H 0.6137 0.61556 0.60281 0.0
H968 H 0.61317 0.61668 0.55723 0.0
C969 C 0.59822 0.59251 0.40767 0.0
C970 C 0.57404 0.56709 0.47447 0.0
H971 H 0.5545 0.60634 0.51912 0.0
C972 C 0.58053 0.54719 0.49015 0.0
C973 C 0.56411 0.58841 0.48502 0.0
C974 C 0.55524 0.60922 0.46907 0.0
C975 C 0.578 0.54856 0.5161 0.0
C976 C 0.56842 0.57008 0.52656 0.0
C977 C 0.5618 0.58987 0.51096 0.0
C978 C 0.56591 0.5726 0.55381 0.0
C979 C 0.58596 0.52733 0.53232 0.0
C980 C 0.53876 0.54836 0.56687 0.0
C981 C 0.53877 0.54802 0.59288 0.0
C982 C 0.56608 0.57174 0.60611 0.0
C983 C 0.59223 0.59723 0.59299 0.0
C984 C 0.59206 0.59776 0.56702 0.0
H985 H 0.59588 0.51411 0.52148 0.0
H986 H 0.60418 0.54258 0.54669 0.0
H987 H 0.56341 0.509 0.5421 0.0
H988 H 0.51835 0.52879 0.55692 0.0
H989 H 0.51862 0.52781 0.60257 0.0
H990 H 0.46748 0.06136 0.26624 0.0
H991 H 0.46529 0.05516 0.22223 0.0
H992 H 0.43093 0.95178 0.2302 0.0
H993 H 0.42883 0.95688 0.27549 0.0
H994 H 0.50091 0.0412 0.19564 0.0
H995 H 0.37115 0.94731 0.17602 0.0
H996 H 0.38417 0.96609 0.20619 0.0
H997 H 0.39251 0.93436 0.19658 0.0
C998 C 0.45766 0.03671 0.25918 0.0
C999 C 0.44701 0.00937 0.27509 0.0
C1000 C 0.45726 0.03342 0.23356 0.0
C1001 C 0.44775 1.00303 0.22259 0.0
C1002 C 0.43765 0.97547 0.23809 0.0
H1003 H 0.48689 0.98727 0.06611 0.0
H1004 H 0.48762 0.98747 0.11168 0.0
C1005 C 0.43694 0.97854 0.26411 0.0
C1006 C 0.45058 1.00183 0.19504 0.0
H1007 H 0.40696 0.96885 0.14163 0.0
C1008 C 0.4803 0.02521 0.18392 0.0
C1009 C 0.42376 0.98108 0.17957 0.0
C1010 C 0.391 0.95596 0.19011 0.0
C1011 C 0.48358 0.02919 0.15808 0.0
C1012 C 0.45679 0.00874 0.14276 0.0
C1013 C 0.42737 0.98465 0.15359 0.0
C1014 C 0.45916 0.01182 0.11536 0.0
C1015 C 0.51526 0.05599 0.14722 0.0
C1016 C 0.44372 0.02633 0.10243 0.0
C1017 C 0.44362 0.02655 0.07639 0.0
C1018 C 0.4591 0.01241 0.06307 0.0
C1019 C 0.4757 0.9992 0.07606 0.0
C1020 C 0.47576 0.99893 0.10201 0.0
H1021 H 0.53295 0.07154 0.16177 0.0
H1022 H 0.52684 0.04493 0.13574 0.0
H1023 H 0.51018 0.07184 0.13487 0.0
H1024 H 0.43087 0.03647 0.11247 0.0
H1025 H 0.43001 0.03611 0.06669 0.0
H1026 H 0.17748 0.52468 0.95413 0.0
H1027 H 0.2239 0.54168 0.92565 0.0
H1028 H 0.27152 0.63856 0.95784 0.0
H1029 H 0.22507 0.62176 0.9863 0.0
H1030 H 0.24305 0.60426 0.89271 0.0
H1031 H 0.34203 0.60551 0.95043 0.0
H1032 H 0.29912 0.57805 0.95701 0.0
H1033 H 0.31714 0.62098 0.96355 0.0
C1034 C 0.19842 0.54922 0.95573 0.0
C1035 C 0.19787 0.57201 0.97231 0.0
C1036 C 0.22463 0.55897 0.9393 0.0
C1037 C 0.25069 0.59141 0.93959 0.0
C1038 C 0.25143 0.61346 0.95742 0.0
H1039 H 0.42503 0.64722 0.85901 0.0
H1040 H 0.38835 0.66412 0.87777 0.0
C1041 C 0.22511 0.60383 0.97368 0.0
C1042 C 0.27582 0.60298 0.92002 0.0
H1043 H 0.35398 0.62085 0.9089 0.0
C1044 C 0.26753 0.60831 0.89613 0.0
C1045 C 0.3076 0.60866 0.92485 0.0
C1046 C 0.31725 0.60297 0.95029 0.0
C1047 C 0.29026 0.6185 0.87658 0.0
C1048 C 0.3218 0.62267 0.88105 0.0
C1049 C 0.33018 0.61841 0.90534 0.0
C1050 C 0.34432 0.62513 0.86077 0.0
C1051 C 0.27992 0.62423 0.85143 0.0
C1052 C 0.3324 0.60062 0.84245 0.0
C1053 C 0.35358 0.59211 0.83096 0.0
C1054 C 0.38652 0.60716 0.83834 0.0
C1055 C 0.39958 0.63523 0.85325 0.0
C1056 C 0.37851 0.64466 0.86407 0.0
H1057 H 0.26408 0.63541 0.85343 0.0
H1058 H 0.30127 0.64041 0.83957 0.0
H1059 H 0.26505 0.60029 0.84192 0.0
H1060 H 0.30634 0.58479 0.83955 0.0
H1061 H 0.34313 0.57034 0.81938 0.0
H1062 H 0.38663 0.79892 0.53697 0.0
H1063 H 0.36809 0.74903 0.56154 0.0
H1064 H 0.40775 0.7117 0.50657 0.0
H1065 H 0.42487 0.7608 0.48152 0.0
H1066 H 0.35872 0.6621 0.54209 0.0
H1067 H 0.46481 0.77317 0.58275 0.0
H1068 H 0.42822 0.77575 0.5791 0.0
H1069 H 0.44917 0.77273 0.55217 0.0
C1070 C 0.38901 0.77892 0.52929 0.0
C1071 C 0.40761 0.78361 0.50781 0.0
C1072 C 0.37853 0.75047 0.54333 0.0
C1073 C 0.38774 0.72748 0.53621 0.0
C1074 C 0.40071 0.72937 0.51244 0.0
H1075 H 0.48709 0.6524 0.62437 0.0
H1076 H 0.47123 0.68332 0.59679 0.0
C1077 C 0.4105 0.75746 0.49815 0.0
C1078 C 0.39466 0.70972 0.55563 0.0
H1079 H 0.44737 0.72351 0.60359 0.0
C1080 C 0.37773 0.67536 0.55579 0.0
C1081 C 0.4207 0.72731 0.57259 0.0
C1082 C 0.44206 0.76425 0.5716 0.0
C1083 C 0.38577 0.65806 0.57301 0.0
C1084 C 0.41066 0.67578 0.5908 0.0
C1085 C 0.42782 0.71009 0.59029 0.0
C1086 C 0.4207 0.6593 0.60925 0.0
C1087 C 0.36851 0.62112 0.57139 0.0
C1088 C 0.39799 0.63691 0.62627 0.0
C1089 C 0.40701 0.61924 0.64204 0.0
C1090 C 0.43899 0.62415 0.64123 0.0
C1091 C 0.46236 0.64842 0.62554 0.0
C1092 C 0.45324 0.66582 0.60961 0.0
H1093 H 0.35669 0.61208 0.55301 0.0
H1094 H 0.38591 0.61203 0.57468 0.0
H1095 H 0.34909 0.61043 0.58581 0.0
H1096 H 0.37305 0.63239 0.62681 0.0
H1097 H 0.38869 0.60079 0.65415 0.0
H1098 H 0.2553 0.64264 0.15074 0.0
H1099 H 0.30367 0.67458 0.17669 0.0
H1100 H 0.24396 0.63581 0.24237 0.0
H1101 H 0.19568 0.60446 0.21647 0.0
H1102 H 0.28865 0.71799 0.20435 0.0
H1103 H 0.33691 0.6572 0.26597 0.0
H1104 H 0.31772 0.64021 0.23637 0.0
H1105 H 0.29297 0.63642 0.26294 0.0
C1106 C 0.25303 0.63911 0.17069 0.0
C1107 C 0.22199 0.6214 0.18178 0.0
C1108 C 0.28063 0.65755 0.18551 0.0
C1109 C 0.27725 0.65773 0.21142 0.0
C1110 C 0.24715 0.63574 0.22244 0.0
H1111 H 0.36588 0.80154 0.33001 0.0
H1112 H 0.32983 0.75245 0.30522 0.0
C1113 C 0.21953 0.61775 0.20764 0.0
C1114 C 0.30062 0.68673 0.22583 0.0
H1115 H 0.34851 0.71099 0.27775 0.0
C1116 C 0.30223 0.71662 0.22015 0.0
C1117 C 0.31737 0.6845 0.24679 0.0
C1118 C 0.31645 0.65292 0.25337 0.0
C1119 C 0.31971 0.74429 0.23515 0.0
C1120 C 0.33667 0.74218 0.25608 0.0
C1121 C 0.33526 0.71236 0.26174 0.0
C1122 C 0.35769 0.77136 0.27126 0.0
C1123 C 0.31915 0.77529 0.22884 0.0
C1124 C 0.38496 0.79792 0.26027 0.0
C1125 C 0.40522 0.82565 0.27418 0.0
C1126 C 0.39892 0.82729 0.29953 0.0
C1127 C 0.37132 0.8008 0.31055 0.0
C1128 C 0.35091 0.77283 0.2965 0.0
H1129 H 0.29782 0.77016 0.21693 0.0
H1130 H 0.31823 0.78808 0.2459 0.0
H1131 H 0.3418 0.79213 0.21847 0.0
H1132 H 0.39068 0.79714 0.24087 0.0
H1133 H 0.42586 0.84598 0.26501 0.0
H1134 H 0.60375 0.36185 0.18832 0.0
H1135 H 0.61524 0.32239 0.16795 0.0
H1136 H 0.65123 0.3852 0.10374 0.0
H1137 H 0.63826 0.42392 0.12362 0.0
H1138 H 0.5763 0.32191 0.1119 0.0
H1139 H 0.68467 0.30412 0.11753 0.0
H1140 H 0.67059 0.31704 0.14422 0.0
H1141 H 0.69013 0.34495 0.11902 0.0
C1142 C 0.61647 0.36843 0.17064 0.0
C1143 C 0.61954 0.3954 0.15718 0.0
C1144 C 0.623 0.34578 0.159 0.0
C1145 C 0.63344 0.35072 0.13421 0.0
C1146 C 0.64314 0.38108 0.12291 0.0
H1147 H 0.61586 0.22624 0.01193 0.0
H1148 H 0.63025 0.27188 0.04069 0.0
C1149 C 0.63582 0.4033 0.1343 0.0
C1150 C 0.62158 0.32196 0.11786 0.0
H1151 H 0.64265 0.27066 0.08925 0.0
C1152 C 0.59068 0.31052 0.10693 0.0
C1153 C 0.64043 0.30735 0.1118 0.0
C1154 C 0.67335 0.31876 0.1237 0.0
C1155 C 0.57859 0.28562 0.08908 0.0
C1156 C 0.5977 0.27125 0.08249 0.0
C1157 C 0.62823 0.28202 0.09413 0.0
C1158 C 0.58675 0.24528 0.06341 0.0
C1159 C 0.54608 0.27594 0.07691 0.0
C1160 C 0.55694 0.21576 0.06611 0.0
C1161 C 0.5483 0.19017 0.04929 0.0
C1162 C 0.56975 0.19348 0.02994 0.0
C1163 C 0.59889 0.22341 0.02662 0.0
C1164 C 0.60722 0.24923 0.04316 0.0
H1165 H 0.53971 0.29565 0.07854 0.0
H1166 H 0.54627 0.2702 0.05693 0.0
H1167 H 0.52644 0.25382 0.08628 0.0
H1168 H 0.5411 0.21189 0.08187 0.0
H1169 H 0.52606 0.16698 0.05248 0.0
H1170 H 0.61119 0.18677 0.78544 0.0
H1171 H 0.64163 0.23291 0.75731 0.0
H1172 H 0.67697 0.29897 0.81982 0.0
H1173 H 0.64613 0.25272 0.84804 0.0
H1174 H 0.66077 0.30341 0.74732 0.0
H1175 H 0.7525 0.2807 0.79531 0.0
H1176 H 0.70895 0.25308 0.79805 0.0
H1177 H 0.72808 0.29109 0.81491 0.0
C1178 C 0.62365 0.21142 0.79298 0.0
C1179 C 0.62665 0.21639 0.81873 0.0
C1180 C 0.64115 0.23775 0.77693 0.0
C1181 C 0.66205 0.26905 0.78662 0.0
C1182 C 0.66098 0.27484 0.8121 0.0
H1183 H 0.84453 0.42373 0.73163 0.0
H1184 H 0.79542 0.38712 0.75504 0.0
C1185 C 0.64315 0.24847 0.82818 0.0
C1186 C 0.69028 0.29223 0.77148 0.0
H1187 H 0.77192 0.3199 0.76346 0.0
C1188 C 0.68516 0.30734 0.75089 0.0
C1189 C 0.72181 0.29642 0.77595 0.0
C1190 C 0.72831 0.27932 0.79711 0.0
C1191 C 0.71116 0.32733 0.73488 0.0
C1192 C 0.74266 0.33167 0.73951 0.0
C1193 C 0.74764 0.31636 0.76001 0.0
C1194 C 0.77153 0.35382 0.72444 0.0
C1195 C 0.705 0.34408 0.71339 0.0
C1196 C 0.77448 0.34683 0.69951 0.0
C1197 C 0.80269 0.36791 0.68593 0.0
C1198 C 0.82801 0.39622 0.69718 0.0
C1199 C 0.82501 0.40261 0.72226 0.0
C1200 C 0.79709 0.38164 0.73572 0.0
H1201 H 0.68084 0.34281 0.71491 0.0
H1202 H 0.72457 0.37023 0.71229 0.0
H1203 H 0.70541 0.33197 0.69582 0.0
H1204 H 0.75519 0.32499 0.69069 0.0
H1205 H 0.8046 0.36231 0.66669 0.0
H1206 H 0.65734 0.48547 0.37939 0.0
H1207 H 0.68711 0.46903 0.40797 0.0
H1208 H 0.64242 0.37349 0.37366 0.0
H1209 H 0.61233 0.38969 0.34513 0.0
H1210 H 0.64208 0.40114 0.43845 0.0
H1211 H 0.74919 0.41485 0.38409 0.0
H1212 H 0.73223 0.44137 0.37889 0.0
H1213 H 0.70994 0.39942 0.36904 0.0
C1214 C 0.65484 0.4614 0.37738 0.0
C1215 C 0.63263 0.43873 0.36017 0.0
C1216 C 0.67149 0.45196 0.39384 0.0
C1217 C 0.66642 0.41999 0.39296 0.0
C1218 C 0.64632 0.3982 0.37455 0.0
H1219 H 0.78784 0.36944 0.47438 0.0
H1220 H 0.73502 0.35048 0.45374 0.0
C1221 C 0.62941 0.40749 0.35824 0.0
C1222 C 0.68002 0.40851 0.4125 0.0
H1223 H 0.7439 0.39655 0.42498 0.0
C1224 C 0.66414 0.39966 0.4356 0.0
C1225 C 0.7084 0.40637 0.40839 0.0
C1226 C 0.72618 0.41603 0.38382 0.0
C1227 C 0.67653 0.38927 0.45512 0.0
C1228 C 0.70588 0.3884 0.45141 0.0
C1229 C 0.72099 0.39636 0.42787 0.0
C1230 C 0.72507 0.38558 0.47214 0.0
C1231 C 0.65817 0.37985 0.47945 0.0
C1232 C 0.73457 0.40827 0.4917 0.0
C1233 C 0.76389 0.41793 0.50415 0.0
C1234 C 0.78434 0.40582 0.49658 0.0
C1235 C 0.77233 0.37913 0.4803 0.0
C1236 C 0.74226 0.36852 0.46844 0.0
H1237 H 0.63127 0.36721 0.47619 0.0
H1238 H 0.66393 0.36362 0.49071 0.0
H1239 H 0.66472 0.40242 0.49025 0.0
H1240 H 0.72227 0.42217 0.49496 0.0
H1241 H 0.77291 0.43857 0.51682 0.0
loop_
_geom_bond_atom_site_label_1
_geom_bond_atom_site_label_2
_geom_bond_distance
_geom_bond_site_symmetry_2
_ccdc_geom_bond_type
C0 C1 1.359 . S
C0 N5 1.330 . S
C0 C61 1.504 . S
C1 C0 1.359 . S
C1 C2 1.366 . S
C1 H63 0.929 . S
C2 C1 1.366 . S
C2 C3 1.415 . S
C2 H64 0.932 . S
C3 C2 1.415 . S
C3 C4 1.366 . S
C3 H65 0.931 . S
C4 C3 1.366 . S
C4 N5 1.325 . S
C4 C6 1.516 . S
N5 C0 1.330 . S
N5 C4 1.325 . S
N5 Co21 1.869 . S
C6 C4 1.516 . S
C6 N30 1.316 . S
C6 O53 1.263 . S
C7 C8 1.421 . S
C7 C12 1.360 . S
C7 N30 1.436 . S
C8 C7 1.421 . S
C8 C9 1.379 . S
C8 H66 0.929 . S
C9 C8 1.379 . S
C9 C10 1.417 . S
C10 C9 1.417 . S
C10 C11 1.352 . S
C10 H67 0.929 . S
C11 C10 1.352 . S
C11 C12 1.393 . S
C12 C7 1.360 . S
C12 C11 1.393 . S
C12 H68 0.931 . S
Cd13 O33 2.329 . S
Cd13 O35 2.350 . S
Cd13 O36 2.277 . S
Cd13 O38 2.173 . S
Cd13 O42 2.263 . S
Cd13 O53 2.366 . S
Cd14 O32 2.352 . S
Cd14 O39 2.250 . S
Cd14 O43 2.308 . S
C15 C19 1.422 . S
C15 C20 1.360 1_556 S
C15 N31 1.416 1_556 S
C16 C17 1.389 1_554 S
C16 C20 1.389 1_655 S
C17 C16 1.389 1_556 S
C17 C18 1.379 1_655 S
C17 H69 0.929 . S
C18 C17 1.379 1_455 S
C18 C19 1.405 . S
C19 C15 1.422 . S
C19 C18 1.405 . S
C19 H70 0.932 . S
C20 C15 1.360 1_554 S
C20 C16 1.389 1_455 S
C20 H71 0.931 . S
Co21 N5 1.869 . S
Co21 N22 1.955 . S
Co21 N23 1.864 . S
Co21 N29 1.958 . S
Co21 N30 1.953 . S
Co21 N31 1.974 . S
N22 Co21 1.955 . S
N22 C40 1.329 1_554 S
N22 C55 1.432 1_554 S
N23 Co21 1.864 . S
N23 C24 1.327 . S
N23 C28 1.342 . S
C24 N23 1.327 . S
C24 C25 1.407 . S
C24 C40 1.481 1_554 S
C25 C24 1.407 . S
C25 C26 1.364 . S
C25 H72 0.930 . S
C26 C25 1.364 . S
C26 C27 1.390 . S
C26 H73 0.931 . S
C27 C26 1.390 . S
C27 C28 1.346 . S
C27 H74 0.930 . S
C28 N23 1.342 . S
C28 C27 1.346 . S
C28 C44 1.516 . S
N29 Co21 1.958 . S
N29 C44 1.324 . S
N29 C46 1.427 . S
N30 C6 1.316 . S
N30 C7 1.436 . S
N30 Co21 1.953 . S
N31 C15 1.416 1_554 S
N31 Co21 1.974 . S
N31 C61 1.309 . S
O32 Cd14 2.352 . S
O32 C52 1.235 . S
O33 Cd13 2.329 . S
O33 C52 1.270 . S
C34 O35 1.270 . S
C34 O36 1.248 . S
O35 Cd13 2.350 . S
O35 C34 1.270 . S
O36 Cd13 2.277 . S
O36 C34 1.248 . S
C37 O38 1.277 . S
C37 O39 1.230 . S
O38 Cd13 2.173 . S
O38 C37 1.277 . S
O39 Cd14 2.250 . S
O39 C37 1.230 . S
C40 N22 1.329 1_556 S
C40 C24 1.481 1_556 S
C40 O41 1.246 . S
O41 C40 1.246 . S
O42 Cd13 2.263 . S
O42 C54 1.258 . S
O43 Cd14 2.308 . S
O43 C54 1.274 . S
C44 C28 1.516 . S
C44 N29 1.324 . S
C44 O45 1.238 . S
O45 C44 1.238 . S
C46 N29 1.427 . S
C46 C47 1.394 . S
C46 C51 1.395 . S
C47 C46 1.394 . S
C47 C48 1.380 . S
C47 H75 0.929 . S
C48 C47 1.380 . S
C48 C49 1.384 . S
C48 C54 1.495 . S
C49 C48 1.384 . S
C49 C50 1.382 . S
C49 H76 0.930 . S
C50 C49 1.382 . S
C50 C51 1.398 . S
C51 C46 1.395 . S
C51 C50 1.398 . S
C51 H77 0.930 . S
C52 O32 1.235 . S
C52 O33 1.270 . S
O53 C6 1.263 . S
O53 Cd13 2.366 . S
C54 O42 1.258 . S
C54 O43 1.274 . S
C54 C48 1.495 . S
C55 N22 1.432 1_556 S
C55 C56 1.381 . S
C55 C60 1.385 . S
C56 C55 1.381 . S
C56 C57 1.371 . S
C56 H78 0.932 . S
C57 C56 1.371 . S
C57 C58 1.400 . S
C58 C57 1.400 . S
C58 C59 1.351 . S
C58 H79 0.930 . S
C59 C58 1.351 . S
C59 C60 1.388 . S
C60 C55 1.385 . S
C60 C59 1.388 . S
C60 H80 0.929 . S
C61 C0 1.504 . S
C61 N31 1.309 . S
C61 O62 1.258 1_554 S
O62 C61 1.258 1_556 S
H63 C1 0.929 . S
H64 C2 0.932 . S
H65 C3 0.931 . S
H66 C8 0.929 . S
H67 C10 0.929 . S
H68 C12 0.931 . S
H69 C17 0.929 . S
H70 C19 0.932 . S
H71 C20 0.931 . S
H72 C25 0.930 . S
H73 C26 0.931 . S
H74 C27 0.930 . S
H75 C47 0.929 . S
H76 C49 0.930 . S
H77 C51 0.930 . S
H78 C56 0.932 . S
H79 C58 0.930 . S
H80 C60 0.929 . S
C81 C82 1.359 . S
C81 N86 1.330 . S
C81 C142 1.504 . S
C82 C81 1.359 . S
C82 C83 1.366 . S
C82 H144 0.929 . S
C83 C82 1.366 . S
C83 C84 1.415 . S
C83 H145 0.932 . S
C84 C83 1.415 . S
C84 C85 1.366 . S
C84 H146 0.931 . S
C85 C84 1.366 . S
C85 N86 1.325 . S
C85 C87 1.516 . S
N86 C81 1.330 . S
N86 C85 1.325 . S
N86 Co102 1.869 . S
C87 C85 1.516 . S
C87 N111 1.316 . S
C87 O134 1.263 . S
C88 C89 1.421 . S
C88 C93 1.360 . S
C88 N111 1.436 . S
C89 C88 1.421 . S
C89 C90 1.379 . S
C89 H147 0.929 . S
C90 C89 1.379 . S
C90 C91 1.417 . S
C91 C90 1.417 . S
C91 C92 1.352 . S
C91 H148 0.929 . S
C92 C91 1.352 . S
C92 C93 1.393 . S
C93 C88 1.360 . S
C93 C92 1.393 . S
C93 H149 0.931 . S
Cd94 O114 2.329 . S
Cd94 O116 2.350 . S
Cd94 O117 2.277 . S
Cd94 O119 2.173 . S
Cd94 O123 2.263 . S
Cd94 O134 2.366 . S
Cd95 O113 2.352 . S
Cd95 O120 2.250 . S
Cd95 O124 2.308 . S
C96 C100 1.403 . S
C96 C101 1.370 . S
C96 N112 1.423 . S
C97 C98 1.389 . S
C97 C101 1.389 . S
C98 C97 1.389 . S
C98 C99 1.379 . S
C98 H150 0.929 . S
C99 C98 1.379 . S
C99 C100 1.405 . S
C100 C96 1.403 . S
C100 C99 1.405 . S
C100 H151 0.932 . S
C101 C96 1.370 . S
C101 C97 1.389 . S
C101 H152 0.931 . S
Co102 N86 1.869 . S
Co102 N103 1.955 . S
Co102 N104 1.864 . S
Co102 N110 1.958 . S
Co102 N111 1.953 . S
Co102 N112 1.974 . S
N103 Co102 1.955 . S
N103 C121 1.329 . S
N103 C136 1.432 . S
N104 Co102 1.864 . S
N104 C105 1.327 . S
N104 C109 1.342 . S
C105 N104 1.327 . S
C105 C106 1.407 . S
C105 C121 1.481 . S
C106 C105 1.407 . S
C106 C107 1.364 . S
C106 H153 0.930 . S
C107 C106 1.364 . S
C107 C108 1.390 . S
C107 H154 0.931 . S
C108 C107 1.390 . S
C108 C109 1.346 . S
C108 H155 0.930 . S
C109 N104 1.342 . S
C109 C108 1.346 . S
C109 C125 1.516 . S
N110 Co102 1.958 . S
N110 C125 1.324 . S
N110 C127 1.427 . S
N111 C87 1.316 . S
N111 C88 1.436 . S
N111 Co102 1.953 . S
N112 C96 1.423 . S
N112 Co102 1.974 . S
N112 C142 1.309 . S
O113 Cd95 2.352 . S
O113 C133 1.235 . S
O114 Cd94 2.329 . S
O114 C133 1.270 . S
C115 O116 1.270 . S
C115 O117 1.248 . S
O116 Cd94 2.350 . S
O116 C115 1.270 . S
O117 Cd94 2.277 . S
O117 C115 1.248 . S
C118 O119 1.277 . S
C118 O120 1.230 . S
O119 Cd94 2.173 . S
O119 C118 1.277 . S
O120 Cd95 2.250 . S
O120 C118 1.230 . S
C121 N103 1.329 . S
C121 C105 1.481 . S
C121 O122 1.246 . S
O122 C121 1.246 . S
O123 Cd94 2.263 . S
O123 C135 1.258 . S
O124 Cd95 2.308 . S
O124 C135 1.274 . S
C125 C109 1.516 . S
C125 N110 1.324 . S
C125 O126 1.238 . S
O126 C125 1.238 . S
C127 N110 1.427 . S
C127 C128 1.394 . S
C127 C132 1.395 . S
C128 C127 1.394 . S
C128 C129 1.380 . S
C128 H156 0.929 . S
C129 C128 1.380 . S
C129 C130 1.384 . S
C129 C135 1.495 . S
C130 C129 1.384 . S
C130 C131 1.382 . S
C130 H157 0.930 . S
C131 C130 1.382 . S
C131 C132 1.398 . S
C132 C127 1.395 . S
C132 C131 1.398 . S
C132 H158 0.930 . S
C133 O113 1.235 . S
C133 O114 1.270 . S
O134 C87 1.263 . S
O134 Cd94 2.366 . S
C135 O123 1.258 . S
C135 O124 1.274 . S
C135 C129 1.495 . S
C136 N103 1.432 . S
C136 C137 1.381 . S
C136 C141 1.385 . S
C137 C136 1.381 . S
C137 C138 1.371 . S
C137 H159 0.932 . S
C138 C137 1.371 . S
C138 C139 1.400 . S
C139 C138 1.400 . S
C139 C140 1.351 . S
C139 H160 0.930 . S
C140 C139 1.351 . S
C140 C141 1.388 . S
C141 C136 1.385 . S
C141 C140 1.388 . S
C141 H161 0.929 . S
C142 C81 1.504 . S
C142 N112 1.309 . S
C142 O143 1.258 . S
O143 C142 1.258 . S
H144 C82 0.929 . S
H145 C83 0.932 . S
H146 C84 0.931 . S
H147 C89 0.929 . S
H148 C91 0.929 . S
H149 C93 0.931 . S
H150 C98 0.929 . S
H151 C100 0.932 . S
H152 C101 0.931 . S
H153 C106 0.930 . S
H154 C107 0.931 . S
H155 C108 0.930 . S
H156 C128 0.929 . S
H157 C130 0.930 . S
H158 C132 0.930 . S
H159 C137 0.932 . S
H160 C139 0.930 . S
H161 C141 0.929 . S
C162 C163 1.359 . S
C162 N167 1.330 . S
C162 C223 1.504 . S
C163 C162 1.359 . S
C163 C164 1.366 . S
C163 H225 0.929 . S
C164 C163 1.366 . S
C164 C165 1.415 . S
C164 H226 0.932 . S
C165 C164 1.415 . S
C165 C166 1.366 . S
C165 H227 0.931 . S
C166 C165 1.366 . S
C166 N167 1.325 . S
C166 C168 1.516 . S
N167 C162 1.330 . S
N167 C166 1.325 . S
N167 Co183 1.869 . S
C168 C166 1.516 . S
C168 N192 1.316 . S
C168 O215 1.263 . S
C169 C170 1.421 . S
C169 C174 1.360 . S
C169 N192 1.436 . S
C170 C169 1.421 . S
C170 C171 1.379 . S
C170 H228 0.929 . S
C171 C170 1.379 . S
C171 C172 1.417 . S
C172 C171 1.417 . S
C172 C173 1.352 . S
C172 H229 0.929 . S
C173 C172 1.352 . S
C173 C174 1.393 . S
C174 C169 1.360 . S
C174 C173 1.393 . S
C174 H230 0.931 . S
Cd175 O195 2.329 . S
Cd175 O197 2.350 . S
Cd175 O198 2.277 . S
Cd175 O200 2.173 . S
Cd175 O204 2.263 . S
Cd175 O215 2.366 . S
Cd176 O194 2.352 . S
Cd176 O201 2.250 . S
Cd176 O205 2.308 . S
C177 C181 1.403 . S
C177 C182 1.370 . S
C177 N193 1.423 . S
C178 C179 1.389 . S
C178 C182 1.389 1_545 S
C179 C178 1.389 . S
C179 C180 1.379 1_545 S
C179 H231 0.929 . S
C180 C179 1.379 1_565 S
C180 C181 1.405 . S
C181 C177 1.403 . S
C181 C180 1.405 . S
C181 H232 0.932 . S
C182 C177 1.370 . S
C182 C178 1.389 1_565 S
C182 H233 0.931 . S
Co183 N167 1.869 . S
Co183 N184 1.955 . S
Co183 N185 1.864 . S
Co183 N191 1.958 . S
Co183 N192 1.953 . S
Co183 N193 1.974 . S
N184 Co183 1.955 . S
N184 C202 1.329 . S
N184 C217 1.432 . S
N185 Co183 1.864 . S
N185 C186 1.327 . S
N185 C190 1.342 . S
C186 N185 1.327 . S
C186 C187 1.407 . S
C186 C202 1.481 . S
C187 C186 1.407 . S
C187 C188 1.364 . S
C187 H234 0.930 . S
C188 C187 1.364 . S
C188 C189 1.390 . S
C188 H235 0.931 . S
C189 C188 1.390 . S
C189 C190 1.346 . S
C189 H236 0.930 . S
C190 N185 1.342 . S
C190 C189 1.346 . S
C190 C206 1.516 . S
N191 Co183 1.958 . S
N191 C206 1.324 . S
N191 C208 1.427 . S
N192 C168 1.316 . S
N192 C169 1.436 . S
N192 Co183 1.953 . S
N193 C177 1.423 . S
N193 Co183 1.974 . S
N193 C223 1.309 . S
O194 Cd176 2.352 . S
O194 C214 1.235 . S
O195 Cd175 2.329 . S
O195 C214 1.270 . S
C196 O197 1.270 . S
C196 O198 1.248 . S
O197 Cd175 2.350 . S
O197 C196 1.270 . S
O198 Cd175 2.277 . S
O198 C196 1.248 . S
C199 O200 1.277 . S
C199 O201 1.230 . S
O200 Cd175 2.173 . S
O200 C199 1.277 . S
O201 Cd176 2.250 . S
O201 C199 1.230 . S
C202 N184 1.329 . S
C202 C186 1.481 . S
C202 O203 1.246 . S
O203 C202 1.246 . S
O204 Cd175 2.263 . S
O204 C216 1.258 . S
O205 Cd176 2.308 . S
O205 C216 1.274 . S
C206 C190 1.516 . S
C206 N191 1.324 . S
C206 O207 1.238 . S
O207 C206 1.238 . S
C208 N191 1.427 . S
C208 C209 1.394 . S
C208 C213 1.395 . S
C209 C208 1.394 . S
C209 C210 1.380 . S
C209 H237 0.929 . S
C210 C209 1.380 . S
C210 C211 1.384 . S
C210 C216 1.495 . S
C211 C210 1.384 . S
C211 C212 1.382 . S
C211 H238 0.930 . S
C212 C211 1.382 . S
C212 C213 1.398 . S
C213 C208 1.395 . S
C213 C212 1.398 . S
C213 H239 0.930 . S
C214 O194 1.235 . S
C214 O195 1.270 . S
O215 C168 1.263 . S
O215 Cd175 2.366 . S
C216 O204 1.258 . S
C216 O205 1.274 . S
C216 C210 1.495 . S
C217 N184 1.432 . S
C217 C218 1.381 . S
C217 C222 1.385 . S
C218 C217 1.381 . S
C218 C219 1.371 . S
C218 H240 0.932 . S
C219 C218 1.371 . S
C219 C220 1.400 . S
C220 C219 1.400 . S
C220 C221 1.351 . S
C220 H241 0.930 . S
C221 C220 1.351 . S
C221 C222 1.388 . S
C222 C217 1.385 . S
C222 C221 1.388 . S
C222 H242 0.929 . S
C223 C162 1.504 . S
C223 N193 1.309 . S
C223 O224 1.258 . S
O224 C223 1.258 . S
H225 C163 0.929 . S
H226 C164 0.932 . S
H227 C165 0.931 . S
H228 C170 0.929 . S
H229 C172 0.929 . S
H230 C174 0.931 . S
H231 C179 0.929 . S
H232 C181 0.932 . S
H233 C182 0.931 . S
H234 C187 0.930 . S
H235 C188 0.931 . S
H236 C189 0.930 . S
H237 C209 0.929 . S
H238 C211 0.930 . S
H239 C213 0.930 . S
H240 C218 0.932 . S
H241 C220 0.930 . S
H242 C222 0.929 . S
C243 C244 1.359 . S
C243 N248 1.330 . S
C243 C304 1.504 . S
C244 C243 1.359 . S
C244 C245 1.366 . S
C244 H306 0.929 . S
C245 C244 1.366 . S
C245 C246 1.415 . S
C245 H307 0.932 . S
C246 C245 1.415 . S
C246 C247 1.366 . S
C246 H308 0.931 . S
C247 C246 1.366 . S
C247 N248 1.325 . S
C247 C249 1.516 . S
N248 C243 1.330 . S
N248 C247 1.325 . S
N248 Co264 1.869 . S
C249 C247 1.516 . S
C249 N273 1.316 . S
C249 O296 1.263 . S
C250 C251 1.421 . S
C250 C255 1.360 . S
C250 N273 1.436 . S
C251 C250 1.421 . S
C251 C252 1.379 . S
C251 H309 0.929 . S
C252 C251 1.379 . S
C252 C253 1.417 . S
C253 C252 1.417 . S
C253 C254 1.352 . S
C253 H310 0.929 . S
C254 C253 1.352 . S
C254 C255 1.393 . S
C255 C250 1.360 . S
C255 C254 1.393 . S
C255 H311 0.931 . S
Cd256 O276 2.329 . S
Cd256 O278 2.350 . S
Cd256 O279 2.277 . S
Cd256 O281 2.173 . S
Cd256 O285 2.263 . S
Cd256 O296 2.366 . S
Cd257 O275 2.352 . S
Cd257 O282 2.250 . S
Cd257 O286 2.308 . S
C258 C262 1.422 . S
C258 C263 1.360 1_554 S
C258 N274 1.416 1_554 S
C259 C260 1.389 1_556 S
C259 C263 1.389 1_565 S
C260 C259 1.389 1_554 S
C260 C261 1.379 1_565 S
C260 H312 0.929 . S
C261 C260 1.379 1_545 S
C261 C262 1.405 . S
C262 C258 1.422 . S
C262 C261 1.405 . S
C262 H313 0.932 . S
C263 C258 1.360 1_556 S
C263 C259 1.389 1_545 S
C263 H314 0.931 . S
Co264 N248 1.869 . S
Co264 N265 1.955 . S
Co264 N266 1.864 . S
Co264 N272 1.958 . S
Co264 N273 1.953 . S
Co264 N274 1.974 . S
N265 Co264 1.955 . S
N265 C283 1.329 1_556 S
N265 C298 1.432 1_556 S
N266 Co264 1.864 . S
N266 C267 1.327 . S
N266 C271 1.342 . S
C267 N266 1.327 . S
C267 C268 1.407 . S
C267 C283 1.481 1_556 S
C268 C267 1.407 . S
C268 C269 1.364 . S
C268 H315 0.930 . S
C269 C268 1.364 . S
C269 C270 1.390 . S
C269 H316 0.931 . S
C270 C269 1.390 . S
C270 C271 1.346 . S
C270 H317 0.930 . S
C271 N266 1.342 . S
C271 C270 1.346 . S
C271 C287 1.516 . S
N272 Co264 1.958 . S
N272 C287 1.324 . S
N272 C289 1.427 . S
N273 C249 1.316 . S
N273 C250 1.436 . S
N273 Co264 1.953 . S
N274 C258 1.416 1_556 S
N274 Co264 1.974 . S
N274 C304 1.309 . S
O275 Cd257 2.352 . S
O275 C295 1.235 . S
O276 Cd256 2.329 . S
O276 C295 1.270 . S
C277 O278 1.270 . S
C277 O279 1.248 . S
O278 Cd256 2.350 . S
O278 C277 1.270 . S
O279 Cd256 2.277 . S
O279 C277 1.248 . S
C280 O281 1.277 . S
C280 O282 1.230 . S
O281 Cd256 2.173 . S
O281 C280 1.277 . S
O282 Cd257 2.250 . S
O282 C280 1.230 . S
C283 N265 1.329 1_554 S
C283 C267 1.481 1_554 S
C283 O284 1.246 . S
O284 C283 1.246 . S
O285 Cd256 2.263 . S
O285 C297 1.258 . S
O286 Cd257 2.308 . S
O286 C297 1.274 . S
C287 C271 1.516 . S
C287 N272 1.324 . S
C287 O288 1.238 . S
O288 C287 1.238 . S
C289 N272 1.427 . S
C289 C290 1.394 . S
C289 C294 1.395 . S
C290 C289 1.394 . S
C290 C291 1.380 . S
C290 H318 0.929 . S
C291 C290 1.380 . S
C291 C292 1.384 . S
C291 C297 1.495 . S
C292 C291 1.384 . S
C292 C293 1.382 . S
C292 H319 0.930 . S
C293 C292 1.382 . S
C293 C294 1.398 . S
C294 C289 1.395 . S
C294 C293 1.398 . S
C294 H320 0.930 . S
C295 O275 1.235 . S
C295 O276 1.270 . S
O296 C249 1.263 . S
O296 Cd256 2.366 . S
C297 O285 1.258 . S
C297 O286 1.274 . S
C297 C291 1.495 . S
C298 N265 1.432 1_554 S
C298 C299 1.381 . S
C298 C303 1.385 . S
C299 C298 1.381 . S
C299 C300 1.371 . S
C299 H321 0.932 . S
C300 C299 1.371 . S
C300 C301 1.400 . S
C301 C300 1.400 . S
C301 C302 1.351 . S
C301 H322 0.930 . S
C302 C301 1.351 . S
C302 C303 1.388 . S
C303 C298 1.385 . S
C303 C302 1.388 . S
C303 H323 0.929 . S
C304 C243 1.504 . S
C304 N274 1.309 . S
C304 O305 1.258 1_556 S
O305 C304 1.258 1_554 S
H306 C244 0.929 . S
H307 C245 0.932 . S
H308 C246 0.931 . S
H309 C251 0.929 . S
H310 C253 0.929 . S
H311 C255 0.931 . S
H312 C260 0.929 . S
H313 C262 0.932 . S
H314 C263 0.931 . S
H315 C268 0.930 . S
H316 C269 0.931 . S
H317 C270 0.930 . S
H318 C290 0.929 . S
H319 C292 0.930 . S
H320 C294 0.930 . S
H321 C299 0.932 . S
H322 C301 0.930 . S
H323 C303 0.929 . S
C324 C325 1.359 . S
C324 N329 1.330 . S
C324 C385 1.504 . S
C325 C324 1.359 . S
C325 C326 1.366 . S
C325 H387 0.929 . S
C326 C325 1.366 . S
C326 C327 1.415 . S
C326 H388 0.932 . S
C327 C326 1.415 . S
C327 C328 1.366 . S
C327 H389 0.931 . S
C328 C327 1.366 . S
C328 N329 1.325 . S
C328 C330 1.516 . S
N329 C324 1.330 . S
N329 C328 1.325 . S
N329 Co345 1.869 . S
C330 C328 1.516 . S
C330 N354 1.316 . S
C330 O377 1.263 . S
C331 C332 1.421 . S
C331 C336 1.360 . S
C331 N354 1.436 . S
C332 C331 1.421 . S
C332 C333 1.379 . S
C332 H390 0.929 . S
C333 C332 1.379 . S
C333 C334 1.417 . S
C334 C333 1.417 . S
C334 C335 1.352 . S
C334 H391 0.929 . S
C335 C334 1.352 . S
C335 C336 1.393 . S
C336 C331 1.360 . S
C336 C335 1.393 . S
C336 H392 0.931 . S
Cd337 O357 2.329 . S
Cd337 O359 2.350 . S
Cd337 O360 2.277 . S
Cd337 O362 2.173 . S
Cd337 O366 2.263 . S
Cd337 O377 2.366 . S
Cd338 O356 2.352 . S
Cd338 O363 2.250 . S
Cd338 O367 2.308 . S
C339 C343 1.403 . S
C339 C344 1.370 . S
C339 N355 1.423 . S
C340 C341 1.389 . S
C340 C344 1.389 1_455 S
C341 C340 1.389 . S
C341 C342 1.379 1_455 S
C341 H393 0.929 . S
C342 C341 1.379 1_655 S
C342 C343 1.405 . S
C343 C339 1.403 . S
C343 C342 1.405 . S
C343 H394 0.932 . S
C344 C339 1.370 . S
C344 C340 1.389 1_655 S
C344 H395 0.931 . S
Co345 N329 1.869 . S
Co345 N346 1.955 . S
Co345 N347 1.864 . S
Co345 N353 1.958 . S
Co345 N354 1.953 . S
Co345 N355 1.974 . S
N346 Co345 1.955 . S
N346 C364 1.329 . S
N346 C379 1.432 . S
N347 Co345 1.864 . S
N347 C348 1.327 . S
N347 C352 1.342 . S
C348 N347 1.327 . S
C348 C349 1.407 . S
C348 C364 1.481 . S
C349 C348 1.407 . S
C349 C350 1.364 . S
C349 H396 0.930 . S
C350 C349 1.364 . S
C350 C351 1.390 . S
C350 H397 0.931 . S
C351 C350 1.390 . S
C351 C352 1.346 . S
C351 H398 0.930 . S
C352 N347 1.342 . S
C352 C351 1.346 . S
C352 C368 1.516 . S
N353 Co345 1.958 . S
N353 C368 1.324 . S
N353 C370 1.427 . S
N354 C330 1.316 . S
N354 C331 1.436 . S
N354 Co345 1.953 . S
N355 C339 1.423 . S
N355 Co345 1.974 . S
N355 C385 1.309 . S
O356 Cd338 2.352 . S
O356 C376 1.235 . S
O357 Cd337 2.329 . S
O357 C376 1.270 . S
C358 O359 1.270 . S
C358 O360 1.248 . S
O359 Cd337 2.350 . S
O359 C358 1.270 . S
O360 Cd337 2.277 . S
O360 C358 1.248 . S
C361 O362 1.277 . S
C361 O363 1.230 . S
O362 Cd337 2.173 . S
O362 C361 1.277 . S
O363 Cd338 2.250 . S
O363 C361 1.230 . S
C364 N346 1.329 . S
C364 C348 1.481 . S
C364 O365 1.246 . S
O365 C364 1.246 . S
O366 Cd337 2.263 . S
O366 C378 1.258 . S
O367 Cd338 2.308 . S
O367 C378 1.274 . S
C368 C352 1.516 . S
C368 N353 1.324 . S
C368 O369 1.238 . S
O369 C368 1.238 . S
C370 N353 1.427 . S
C370 C371 1.394 . S
C370 C375 1.395 . S
C371 C370 1.394 . S
C371 C372 1.380 . S
C371 H399 0.929 . S
C372 C371 1.380 . S
C372 C373 1.384 . S
C372 C378 1.495 . S
C373 C372 1.384 . S
C373 C374 1.382 . S
C373 H400 0.930 . S
C374 C373 1.382 . S
C374 C375 1.398 . S
C375 C370 1.395 . S
C375 C374 1.398 . S
C375 H401 0.930 . S
C376 O356 1.235 . S
C376 O357 1.270 . S
O377 C330 1.263 . S
O377 Cd337 2.366 . S
C378 O366 1.258 . S
C378 O367 1.274 . S
C378 C372 1.495 . S
C379 N346 1.432 . S
C379 C380 1.381 . S
C379 C384 1.385 . S
C380 C379 1.381 . S
C380 C381 1.371 . S
C380 H402 0.932 . S
C381 C380 1.371 . S
C381 C382 1.400 . S
C382 C381 1.400 . S
C382 C383 1.351 . S
C382 H403 0.930 . S
C383 C382 1.351 . S
C383 C384 1.388 . S
C384 C379 1.385 . S
C384 C383 1.388 . S
C384 H404 0.929 . S
C385 C324 1.504 . S
C385 N355 1.309 . S
C385 O386 1.258 . S
O386 C385 1.258 . S
H387 C325 0.929 . S
H388 C326 0.932 . S
H389 C327 0.931 . S
H390 C332 0.929 . S
H391 C334 0.929 . S
H392 C336 0.931 . S
H393 C341 0.929 . S
H394 C343 0.932 . S
H395 C344 0.931 . S
H396 C349 0.930 . S
H397 C350 0.931 . S
H398 C351 0.930 . S
H399 C371 0.929 . S
H400 C373 0.930 . S
H401 C375 0.930 . S
H402 C380 0.932 . S
H403 C382 0.930 . S
H404 C384 0.929 . S
C405 C406 1.359 . S
C405 N410 1.330 . S
C405 C466 1.504 . S
C406 C405 1.359 . S
C406 C407 1.366 . S
C406 H468 0.929 . S
C407 C406 1.366 . S
C407 C408 1.415 . S
C407 H469 0.932 . S
C408 C407 1.415 . S
C408 C409 1.366 . S
C408 H470 0.931 . S
C409 C408 1.366 . S
C409 N410 1.325 . S
C409 C411 1.516 . S
N410 C405 1.330 . S
N410 C409 1.325 . S
N410 Co426 1.869 . S
C411 C409 1.516 . S
C411 N435 1.316 . S
C411 O458 1.263 . S
C412 C413 1.421 . S
C412 C417 1.360 . S
C412 N435 1.436 . S
C413 C412 1.421 . S
C413 C414 1.379 . S
C413 H471 0.929 . S
C414 C413 1.379 . S
C414 C415 1.417 . S
C415 C414 1.417 . S
C415 C416 1.352 . S
C415 H472 0.929 . S
C416 C415 1.352 . S
C416 C417 1.393 . S
C417 C412 1.360 . S
C417 C416 1.393 . S
C417 H473 0.931 . S
Cd418 O438 2.329 . S
Cd418 O440 2.350 . S
Cd418 O441 2.277 . S
Cd418 O443 2.173 . S
Cd418 O447 2.263 . S
Cd418 O458 2.366 . S
Cd419 O437 2.352 . S
Cd419 O444 2.250 . S
Cd419 O448 2.308 . S
C420 C424 1.403 . S
C420 C425 1.370 . S
C420 N436 1.423 . S
C421 C422 1.389 . S
C421 C425 1.389 . S
C422 C421 1.389 . S
C422 C423 1.379 . S
C422 H474 0.929 . S
C423 C422 1.379 . S
C423 C424 1.405 . S
C424 C420 1.403 . S
C424 C423 1.405 . S
C424 H475 0.932 . S
C425 C420 1.370 . S
C425 C421 1.389 . S
C425 H476 0.931 . S
Co426 N410 1.869 . S
Co426 N427 1.955 . S
Co426 N428 1.864 . S
Co426 N434 1.958 . S
Co426 N435 1.953 . S
Co426 N436 1.974 . S
N427 Co426 1.955 . S
N427 C445 1.329 . S
N427 C460 1.432 . S
N428 Co426 1.864 . S
N428 C429 1.327 . S
N428 C433 1.342 . S
C429 N428 1.327 . S
C429 C430 1.407 . S
C429 C445 1.481 . S
C430 C429 1.407 . S
C430 C431 1.364 . S
C430 H477 0.930 . S
C431 C430 1.364 . S
C431 C432 1.390 . S
C431 H478 0.931 . S
C432 C431 1.390 . S
C432 C433 1.346 . S
C432 H479 0.930 . S
C433 N428 1.342 . S
C433 C432 1.346 . S
C433 C449 1.516 . S
N434 Co426 1.958 . S
N434 C449 1.324 . S
N434 C451 1.427 . S
N435 C411 1.316 . S
N435 C412 1.436 . S
N435 Co426 1.953 . S
N436 C420 1.423 . S
N436 Co426 1.974 . S
N436 C466 1.309 . S
O437 Cd419 2.352 . S
O437 C457 1.235 . S
O438 Cd418 2.329 . S
O438 C457 1.270 . S
C439 O440 1.270 . S
C439 O441 1.248 . S
O440 Cd418 2.350 . S
O440 C439 1.270 . S
O441 Cd418 2.277 . S
O441 C439 1.248 . S
C442 O443 1.277 . S
C442 O444 1.230 . S
O443 Cd418 2.173 . S
O443 C442 1.277 . S
O444 Cd419 2.250 . S
O444 C442 1.230 . S
C445 N427 1.329 . S
C445 C429 1.481 . S
C445 O446 1.246 . S
O446 C445 1.246 . S
O447 Cd418 2.263 . S
O447 C459 1.258 . S
O448 Cd419 2.308 . S
O448 C459 1.274 . S
C449 C433 1.516 . S
C449 N434 1.324 . S
C449 O450 1.238 . S
O450 C449 1.238 . S
C451 N434 1.427 . S
C451 C452 1.394 . S
C451 C456 1.395 . S
C452 C451 1.394 . S
C452 C453 1.380 . S
C452 H480 0.929 . S
C453 C452 1.380 . S
C453 C454 1.384 . S
C453 C459 1.495 . S
C454 C453 1.384 . S
C454 C455 1.382 . S
C454 H481 0.930 . S
C455 C454 1.382 . S
C455 C456 1.398 . S
C456 C451 1.395 . S
C456 C455 1.398 . S
C456 H482 0.930 . S
C457 O437 1.235 . S
C457 O438 1.270 . S
O458 C411 1.263 . S
O458 Cd418 2.366 . S
C459 O447 1.258 . S
C459 O448 1.274 . S
C459 C453 1.495 . S
C460 N427 1.432 . S
C460 C461 1.381 . S
C460 C465 1.385 . S
C461 C460 1.381 . S
C461 C462 1.371 . S
C461 H483 0.932 . S
C462 C461 1.371 . S
C462 C463 1.400 . S
C463 C462 1.400 . S
C463 C464 1.351 . S
C463 H484 0.930 . S
C464 C463 1.351 . S
C464 C465 1.388 . S
C465 C460 1.385 . S
C465 C464 1.388 . S
C465 H485 0.929 . S
C466 C405 1.504 . S
C466 N436 1.309 . S
C466 O467 1.258 . S
O467 C466 1.258 . S
H468 C406 0.929 . S
H469 C407 0.932 . S
H470 C408 0.931 . S
H471 C413 0.929 . S
H472 C415 0.929 . S
H473 C417 0.931 . S
H474 C422 0.929 . S
H475 C424 0.932 . S
H476 C425 0.931 . S
H477 C430 0.930 . S
H478 C431 0.931 . S
H479 C432 0.930 . S
H480 C452 0.929 . S
H481 C454 0.930 . S
H482 C456 0.930 . S
H483 C461 0.932 . S
H484 C463 0.930 . S
H485 C465 0.929 . S
H486 C494 0.929 . S
H487 C496 0.930 . S
H488 C498 0.930 . S
H489 C501 0.929 . S
H490 C504 0.930 . S
H491 C506 0.960 . S
H492 C506 0.960 . S
H493 C506 0.960 . S
C494 H486 0.929 . S
C494 C495 1.377 . S
C494 C496 1.384 . S
C495 C494 1.377 . S
C495 C501 1.390 . S
C496 H487 0.930 . S
C496 C494 1.384 . S
C496 C497 1.372 . S
C497 C496 1.372 . S
C497 C498 1.400 . S
C497 C502 1.490 . S
C498 H488 0.930 . S
C498 C497 1.400 . S
C498 C501 1.386 . S
H499 C515 0.930 . S
H500 C516 0.931 . S
C501 H489 0.929 . S
C501 C495 1.390 . S
C501 C498 1.386 . S
C502 C497 1.490 . S
C502 C504 1.395 . S
C502 C505 1.403 . S
H503 C509 0.930 . S
C504 H490 0.930 . S
C504 C502 1.395 . S
C504 C507 1.403 . S
C505 C502 1.403 . S
C505 C506 1.524 . S
C505 C509 1.400 . S
C506 H491 0.960 . S
C506 H492 0.960 . S
C506 H493 0.960 . S
C506 C505 1.524 . S
C507 C504 1.403 . S
C507 C508 1.392 . S
C507 C511 1.495 . S
C508 C507 1.392 . S
C508 C509 1.385 . S
C508 C510 1.478 . S
C509 H503 0.930 . S
C509 C505 1.400 . S
C509 C508 1.385 . S
C510 C508 1.478 . S
C510 C512 1.381 1_554 S
C510 C516 1.383 . S
C511 C507 1.495 . S
C511 H517 0.959 . S
C511 H518 0.961 . S
C511 H519 0.960 . S
C512 C510 1.381 1_556 S
C512 C513 1.394 . S
C512 H520 0.930 . S
C513 C512 1.394 . S
C513 C514 1.383 . S
C513 H521 0.929 . S
C514 C513 1.383 . S
C514 C515 1.377 1_556 S
C515 H499 0.930 . S
C515 C514 1.377 1_554 S
C515 C516 1.379 . S
C516 H500 0.931 . S
C516 C510 1.383 . S
C516 C515 1.379 . S
H517 C511 0.959 . S
H518 C511 0.961 . S
H519 C511 0.960 . S
H520 C512 0.930 . S
H521 C513 0.929 . S
H522 C530 0.929 . S
H523 C532 0.930 . S
H524 C534 0.930 . S
H525 C537 0.929 . S
H526 C540 0.930 . S
H527 C542 0.960 . S
H528 C542 0.960 . S
H529 C542 0.960 . S
C530 H522 0.929 . S
C530 C531 1.377 . S
C530 C532 1.384 . S
C531 C530 1.377 . S
C531 C537 1.390 . S
C532 H523 0.930 . S
C532 C530 1.384 . S
C532 C533 1.372 . S
C533 C532 1.372 . S
C533 C534 1.400 . S
C533 C538 1.490 . S
C534 H524 0.930 . S
C534 C533 1.400 . S
C534 C537 1.386 . S
H535 C551 0.930 . S
H536 C552 0.931 . S
C537 H525 0.929 . S
C537 C531 1.390 . S
C537 C534 1.386 . S
C538 C533 1.490 . S
C538 C540 1.395 . S
C538 C541 1.403 . S
H539 C545 0.930 . S
C540 H526 0.930 . S
C540 C538 1.395 . S
C540 C543 1.403 . S
C541 C538 1.403 . S
C541 C542 1.524 . S
C541 C545 1.400 . S
C542 H527 0.960 . S
C542 H528 0.960 . S
C542 H529 0.960 . S
C542 C541 1.524 . S
C543 C540 1.403 . S
C543 C544 1.392 . S
C543 C547 1.495 . S
C544 C543 1.392 . S
C544 C545 1.385 . S
C544 C546 1.478 . S
C545 H539 0.930 . S
C545 C541 1.400 . S
C545 C544 1.385 . S
C546 C544 1.478 . S
C546 C548 1.381 . S
C546 C552 1.383 . S
C547 C543 1.495 . S
C547 H553 0.959 . S
C547 H554 0.961 . S
C547 H555 0.960 . S
C548 C546 1.381 . S
C548 C549 1.394 . S
C548 H556 0.930 . S
C549 C548 1.394 . S
C549 C550 1.383 . S
C549 H557 0.929 . S
C550 C549 1.383 . S
C550 C551 1.377 . S
C551 H535 0.930 . S
C551 C550 1.377 . S
C551 C552 1.379 . S
C552 H536 0.931 . S
C552 C546 1.383 . S
C552 C551 1.379 . S
H553 C547 0.959 . S
H554 C547 0.961 . S
H555 C547 0.960 . S
H556 C548 0.930 . S
H557 C549 0.929 . S
H558 C566 0.929 . S
H559 C568 0.930 . S
H560 C570 0.930 . S
H561 C573 0.929 . S
H562 C576 0.930 . S
H563 C578 0.960 . S
H564 C578 0.960 . S
H565 C578 0.960 . S
C566 H558 0.929 . S
C566 C567 1.377 . S
C566 C568 1.384 . S
C567 C566 1.377 . S
C567 C573 1.390 . S
C568 H559 0.930 . S
C568 C566 1.384 . S
C568 C569 1.372 . S
C569 C568 1.372 . S
C569 C570 1.400 . S
C569 C574 1.490 . S
C570 H560 0.930 . S
C570 C569 1.400 . S
C570 C573 1.386 . S
H571 C587 0.930 . S
H572 C588 0.931 . S
C573 H561 0.929 . S
C573 C567 1.390 . S
C573 C570 1.386 . S
C574 C569 1.490 . S
C574 C576 1.395 . S
C574 C577 1.403 . S
H575 C581 0.930 . S
C576 H562 0.930 . S
C576 C574 1.395 . S
C576 C579 1.403 . S
C577 C574 1.403 . S
C577 C578 1.524 . S
C577 C581 1.400 . S
C578 H563 0.960 . S
C578 H564 0.960 . S
C578 H565 0.960 . S
C578 C577 1.524 . S
C579 C576 1.403 . S
C579 C580 1.392 . S
C579 C583 1.495 . S
C580 C579 1.392 . S
C580 C581 1.385 . S
C580 C582 1.478 . S
C581 H575 0.930 . S
C581 C577 1.400 . S
C581 C580 1.385 . S
C582 C580 1.478 . S
C582 C584 1.381 . S
C582 C588 1.383 . S
C583 C579 1.495 . S
C583 H589 0.959 . S
C583 H590 0.961 . S
C583 H591 0.960 . S
C584 C582 1.381 . S
C584 C585 1.394 . S
C584 H592 0.930 . S
C585 C584 1.394 . S
C585 C586 1.383 . S
C585 H593 0.929 . S
C586 C585 1.383 . S
C586 C587 1.377 . S
C587 H571 0.930 . S
C587 C586 1.377 . S
C587 C588 1.379 . S
C588 H572 0.931 . S
C588 C582 1.383 . S
C588 C587 1.379 . S
H589 C583 0.959 . S
H590 C583 0.961 . S
H591 C583 0.960 . S
H592 C584 0.930 . S
H593 C585 0.929 . S
H594 C602 0.929 . S
H595 C604 0.930 . S
H596 C606 0.930 . S
H597 C609 0.929 . S
H598 C612 0.930 . S
H599 C614 0.960 . S
H600 C614 0.960 . S
H601 C614 0.960 . S
C602 H594 0.929 . S
C602 C603 1.377 . S
C602 C604 1.384 . S
C603 C602 1.377 . S
C603 C609 1.390 . S
C604 H595 0.930 . S
C604 C602 1.384 . S
C604 C605 1.372 . S
C605 C604 1.372 . S
C605 C606 1.400 . S
C605 C610 1.490 . S
C606 H596 0.930 . S
C606 C605 1.400 . S
C606 C609 1.386 . S
H607 C623 0.930 . S
H608 C624 0.931 . S
C609 H597 0.929 . S
C609 C603 1.390 . S
C609 C606 1.386 . S
C610 C605 1.490 . S
C610 C612 1.395 . S
C610 C613 1.403 . S
H611 C617 0.930 . S
C612 H598 0.930 . S
C612 C610 1.395 . S
C612 C615 1.403 . S
C613 C610 1.403 . S
C613 C614 1.524 . S
C613 C617 1.400 . S
C614 H599 0.960 . S
C614 H600 0.960 . S
C614 H601 0.960 . S
C614 C613 1.524 . S
C615 C612 1.403 . S
C615 C616 1.392 . S
C615 C619 1.495 1_556 S
C616 C615 1.392 . S
C616 C617 1.385 . S
C616 C618 1.478 . S
C617 H611 0.930 . S
C617 C613 1.400 . S
C617 C616 1.385 . S
C618 C616 1.478 . S
C618 C620 1.381 . S
C618 C624 1.383 . S
C619 C615 1.495 1_554 S
C619 H625 0.959 . S
C619 H626 0.961 . S
C619 H627 0.960 . S
C620 C618 1.381 . S
C620 C621 1.394 1_556 S
C620 H628 0.930 . S
C621 C620 1.394 1_554 S
C621 C622 1.383 . S
C621 H629 0.929 . S
C622 C621 1.383 . S
C622 C623 1.377 . S
C623 H607 0.930 . S
C623 C622 1.377 . S
C623 C624 1.379 1_554 S
C624 H608 0.931 . S
C624 C618 1.383 . S
C624 C623 1.379 1_556 S
H625 C619 0.959 . S
H626 C619 0.961 . S
H627 C619 0.960 . S
H628 C620 0.930 . S
H629 C621 0.929 . S
H630 C638 0.929 . S
H631 C640 0.930 . S
H632 C642 0.930 . S
H633 C645 0.929 . S
H634 C648 0.930 . S
H635 C650 0.960 . S
H636 C650 0.960 . S
H637 C650 0.960 . S
C638 H630 0.929 . S
C638 C639 1.377 . S
C638 C640 1.384 . S
C639 C638 1.377 . S
C639 C645 1.390 . S
C640 H631 0.930 . S
C640 C638 1.384 . S
C640 C641 1.372 . S
C641 C640 1.372 . S
C641 C642 1.400 . S
C641 C646 1.490 . S
C642 H632 0.930 . S
C642 C641 1.400 . S
C642 C645 1.386 . S
H643 C659 0.930 . S
H644 C660 0.931 . S
C645 H633 0.929 . S
C645 C639 1.390 . S
C645 C642 1.386 . S
C646 C641 1.490 . S
C646 C648 1.395 . S
C646 C649 1.403 . S
H647 C653 0.930 . S
C648 H634 0.930 . S
C648 C646 1.395 . S
C648 C651 1.403 . S
C649 C646 1.403 . S
C649 C650 1.524 . S
C649 C653 1.400 . S
C650 H635 0.960 . S
C650 H636 0.960 . S
C650 H637 0.960 . S
C650 C649 1.524 . S
C651 C648 1.403 . S
C651 C652 1.392 . S
C651 C655 1.495 . S
C652 C651 1.392 . S
C652 C653 1.385 . S
C652 C654 1.478 . S
C653 H647 0.930 . S
C653 C649 1.400 . S
C653 C652 1.385 . S
C654 C652 1.478 . S
C654 C656 1.381 . S
C654 C660 1.383 . S
C655 C651 1.495 . S
C655 H661 0.959 . S
C655 H662 0.961 . S
C655 H663 0.960 . S
C656 C654 1.381 . S
C656 C657 1.394 . S
C656 H664 0.930 . S
C657 C656 1.394 . S
C657 C658 1.383 . S
C657 H665 0.929 . S
C658 C657 1.383 . S
C658 C659 1.377 . S
C659 H643 0.930 . S
C659 C658 1.377 . S
C659 C660 1.379 . S
C660 H644 0.931 . S
C660 C654 1.383 . S
C660 C659 1.379 . S
H661 C655 0.959 . S
H662 C655 0.961 . S
H663 C655 0.960 . S
H664 C656 0.930 . S
H665 C657 0.929 . S
H666 C674 0.929 . S
H667 C676 0.930 . S
H668 C678 0.930 . S
H669 C681 0.929 . S
H670 C684 0.930 . S
H671 C686 0.960 . S
H672 C686 0.960 . S
H673 C686 0.960 . S
C674 H666 0.929 . S
C674 C675 1.377 . S
C674 C676 1.384 . S
C675 C674 1.377 . S
C675 C681 1.390 . S
C676 H667 0.930 . S
C676 C674 1.384 . S
C676 C677 1.372 . S
C677 C676 1.372 . S
C677 C678 1.400 . S
C677 C682 1.490 . S
C678 H668 0.930 . S
C678 C677 1.400 . S
C678 C681 1.386 . S
H679 C695 0.930 . S
H680 C696 0.931 . S
C681 H669 0.929 . S
C681 C675 1.390 . S
C681 C678 1.386 . S
C682 C677 1.490 . S
C682 C684 1.395 . S
C682 C685 1.403 . S
H683 C689 0.930 . S
C684 H670 0.930 . S
C684 C682 1.395 . S
C684 C687 1.403 . S
C685 C682 1.403 . S
C685 C686 1.524 . S
C685 C689 1.400 . S
C686 H671 0.960 . S
C686 H672 0.960 . S
C686 H673 0.960 . S
C686 C685 1.524 . S
C687 C684 1.403 . S
C687 C688 1.392 . S
C687 C691 1.495 . S
C688 C687 1.392 . S
C688 C689 1.385 . S
C688 C690 1.478 . S
C689 H683 0.930 . S
C689 C685 1.400 . S
C689 C688 1.385 . S
C690 C688 1.478 . S
C690 C692 1.381 . S
C690 C696 1.383 . S
C691 C687 1.495 . S
C691 H697 0.959 . S
C691 H698 0.961 . S
C691 H699 0.960 . S
C692 C690 1.381 . S
C692 C693 1.394 . S
C692 H700 0.930 . S
C693 C692 1.394 . S
C693 C694 1.383 . S
C693 H701 0.929 . S
C694 C693 1.383 . S
C694 C695 1.377 . S
C695 H679 0.930 . S
C695 C694 1.377 . S
C695 C696 1.379 . S
C696 H680 0.931 . S
C696 C690 1.383 . S
C696 C695 1.379 . S
H697 C691 0.959 . S
H698 C691 0.961 . S
H699 C691 0.960 . S
H700 C692 0.930 . S
H701 C693 0.929 . S
H702 C710 0.929 . S
H703 C712 0.930 . S
H704 C714 0.930 . S
H705 C717 0.929 . S
H706 C720 0.930 . S
H707 C722 0.960 . S
H708 C722 0.960 . S
H709 C722 0.960 . S
C710 H702 0.929 . S
C710 C711 1.377 . S
C710 C712 1.384 . S
C711 C710 1.377 . S
C711 C717 1.390 . S
C712 H703 0.930 . S
C712 C710 1.384 . S
C712 C713 1.372 . S
C713 C712 1.372 . S
C713 C714 1.400 . S
C713 C718 1.490 . S
C714 H704 0.930 . S
C714 C713 1.400 . S
C714 C717 1.386 . S
H715 C731 0.930 . S
H716 C732 0.931 . S
C717 H705 0.929 . S
C717 C711 1.390 . S
C717 C714 1.386 . S
C718 C713 1.490 . S
C718 C720 1.395 . S
C718 C721 1.403 . S
H719 C725 0.930 . S
C720 H706 0.930 . S
C720 C718 1.395 . S
C720 C723 1.403 . S
C721 C718 1.403 . S
C721 C722 1.524 . S
C721 C725 1.400 . S
C722 H707 0.960 . S
C722 H708 0.960 . S
C722 H709 0.960 . S
C722 C721 1.524 . S
C723 C720 1.403 . S
C723 C724 1.392 . S
C723 C727 1.495 . S
C724 C723 1.392 . S
C724 C725 1.385 . S
C724 C726 1.478 . S
C725 H719 0.930 . S
C725 C721 1.400 . S
C725 C724 1.385 . S
C726 C724 1.478 . S
C726 C728 1.381 . S
C726 C732 1.383 . S
C727 C723 1.495 . S
C727 H733 0.959 . S
C727 H734 0.961 . S
C727 H735 0.960 . S
C728 C726 1.381 . S
C728 C729 1.394 . S
C728 H736 0.930 . S
C729 C728 1.394 . S
C729 C730 1.383 . S
C729 H737 0.929 . S
C730 C729 1.383 . S
C730 C731 1.377 . S
C731 H715 0.930 . S
C731 C730 1.377 . S
C731 C732 1.379 . S
C732 H716 0.931 . S
C732 C726 1.383 . S
C732 C731 1.379 . S
H733 C727 0.959 . S
H734 C727 0.961 . S
H735 C727 0.960 . S
H736 C728 0.930 . S
H737 C729 0.929 . S
H738 C746 0.929 . S
H739 C748 0.930 . S
H740 C750 0.930 . S
H741 C753 0.929 . S
H742 C756 0.930 . S
H743 C758 0.960 . S
H744 C758 0.960 . S
H745 C758 0.960 . S
C746 H738 0.929 . S
C746 C747 1.377 . S
C746 C748 1.384 . S
C747 C746 1.377 . S
C747 C753 1.390 . S
C748 H739 0.930 . S
C748 C746 1.384 . S
C748 C749 1.372 . S
C749 C748 1.372 . S
C749 C750 1.400 . S
C749 C754 1.490 . S
C750 H740 0.930 . S
C750 C749 1.400 . S
C750 C753 1.386 . S
H751 C767 0.930 . S
H752 C768 0.931 . S
C753 H741 0.929 . S
C753 C747 1.390 . S
C753 C750 1.386 . S
C754 C749 1.490 . S
C754 C756 1.395 . S
C754 C757 1.403 . S
H755 C761 0.930 . S
C756 H742 0.930 . S
C756 C754 1.395 . S
C756 C759 1.403 . S
C757 C754 1.403 . S
C757 C758 1.524 . S
C757 C761 1.400 . S
C758 H743 0.960 . S
C758 H744 0.960 . S
C758 H745 0.960 . S
C758 C757 1.524 . S
C759 C756 1.403 . S
C759 C760 1.392 . S
C759 C763 1.495 . S
C760 C759 1.392 . S
C760 C761 1.385 . S
C760 C762 1.478 . S
C761 H755 0.930 . S
C761 C757 1.400 . S
C761 C760 1.385 . S
C762 C760 1.478 . S
C762 C764 1.381 . S
C762 C768 1.383 . S
C763 C759 1.495 . S
C763 H769 0.959 . S
C763 H770 0.961 . S
C763 H771 0.960 . S
C764 C762 1.381 . S
C764 C765 1.394 . S
C764 H772 0.930 . S
C765 C764 1.394 . S
C765 C766 1.383 . S
C765 H773 0.929 . S
C766 C765 1.383 . S
C766 C767 1.377 . S
C767 H751 0.930 . S
C767 C766 1.377 . S
C767 C768 1.379 . S
C768 H752 0.931 . S
C768 C762 1.383 . S
C768 C767 1.379 . S
H769 C763 0.959 . S
H770 C763 0.961 . S
H771 C763 0.960 . S
H772 C764 0.930 . S
H773 C765 0.929 . S
H774 C782 0.929 . S
H775 C784 0.930 . S
H776 C786 0.930 . S
H777 C789 0.929 . S
H778 C792 0.930 . S
H779 C794 0.960 . S
H780 C794 0.960 . S
H781 C794 0.960 . S
C782 H774 0.929 . S
C782 C783 1.377 . S
C782 C784 1.384 . S
C783 C782 1.377 . S
C783 C789 1.390 . S
C784 H775 0.930 . S
C784 C782 1.384 . S
C784 C785 1.372 . S
C785 C784 1.372 . S
C785 C786 1.400 . S
C785 C790 1.490 . S
C786 H776 0.930 . S
C786 C785 1.400 . S
C786 C789 1.386 . S
H787 C803 0.930 . S
H788 C804 0.931 . S
C789 H777 0.929 . S
C789 C783 1.390 . S
C789 C786 1.386 . S
C790 C785 1.490 . S
C790 C792 1.395 . S
C790 C793 1.403 . S
H791 C797 0.930 . S
C792 H778 0.930 . S
C792 C790 1.395 . S
C792 C795 1.403 . S
C793 C790 1.403 . S
C793 C794 1.524 . S
C793 C797 1.400 . S
C794 H779 0.960 . S
C794 H780 0.960 . S
C794 H781 0.960 . S
C794 C793 1.524 . S
C795 C792 1.403 . S
C795 C796 1.392 . S
C795 C799 1.495 . S
C796 C795 1.392 . S
C796 C797 1.385 . S
C796 C798 1.478 . S
C797 H791 0.930 . S
C797 C793 1.400 . S
C797 C796 1.385 . S
C798 C796 1.478 . S
C798 C800 1.381 . S
C798 C804 1.383 . S
C799 C795 1.495 . S
C799 H805 0.959 . S
C799 H806 0.961 . S
C799 H807 0.960 . S
C800 C798 1.381 . S
C800 C801 1.394 . S
C800 H808 0.930 . S
C801 C800 1.394 . S
C801 C802 1.383 . S
C801 H809 0.929 . S
C802 C801 1.383 . S
C802 C803 1.377 . S
C803 H787 0.930 . S
C803 C802 1.377 . S
C803 C804 1.379 . S
C804 H788 0.931 . S
C804 C798 1.383 . S
C804 C803 1.379 . S
H805 C799 0.959 . S
H806 C799 0.961 . S
H807 C799 0.960 . S
H808 C800 0.930 . S
H809 C801 0.929 . S
H810 C818 0.929 . S
H811 C820 0.930 . S
H812 C822 0.930 . S
H813 C825 0.929 . S
H814 C828 0.930 . S
H815 C830 0.960 . S
H816 C830 0.960 . S
H817 C830 0.960 . S
C818 H810 0.929 . S
C818 C819 1.377 . S
C818 C820 1.384 . S
C819 C818 1.377 . S
C819 C825 1.390 . S
C820 H811 0.930 . S
C820 C818 1.384 . S
C820 C821 1.372 . S
C821 C820 1.372 . S
C821 C822 1.400 . S
C821 C826 1.490 . S
C822 H812 0.930 . S
C822 C821 1.400 . S
C822 C825 1.386 . S
H823 C839 0.930 . S
H824 C840 0.931 . S
C825 H813 0.929 . S
C825 C819 1.390 . S
C825 C822 1.386 . S
C826 C821 1.490 . S
C826 C828 1.395 . S
C826 C829 1.403 . S
H827 C833 0.930 . S
C828 H814 0.930 . S
C828 C826 1.395 . S
C828 C831 1.403 . S
C829 C826 1.403 . S
C829 C830 1.524 . S
C829 C833 1.400 . S
C830 H815 0.960 . S
C830 H816 0.960 . S
C830 H817 0.960 . S
C830 C829 1.524 . S
C831 C828 1.403 . S
C831 C832 1.392 . S
C831 C835 1.495 . S
C832 C831 1.392 . S
C832 C833 1.385 . S
C832 C834 1.478 . S
C833 H827 0.930 . S
C833 C829 1.400 . S
C833 C832 1.385 . S
C834 C832 1.478 . S
C834 C836 1.381 . S
C834 C840 1.383 . S
C835 C831 1.495 . S
C835 H841 0.959 . S
C835 H842 0.961 . S
C835 H843 0.960 . S
C836 C834 1.381 . S
C836 C837 1.394 . S
C836 H844 0.930 . S
C837 C836 1.394 . S
C837 C838 1.383 . S
C837 H845 0.929 . S
C838 C837 1.383 . S
C838 C839 1.377 . S
C839 H823 0.930 . S
C839 C838 1.377 . S
C839 C840 1.379 . S
C840 H824 0.931 . S
C840 C834 1.383 . S
C840 C839 1.379 . S
H841 C835 0.959 . S
H842 C835 0.961 . S
H843 C835 0.960 . S
H844 C836 0.930 . S
H845 C837 0.929 . S
H846 C854 0.929 . S
H847 C856 0.930 . S
H848 C858 0.930 . S
H849 C861 0.929 . S
H850 C864 0.930 . S
H851 C866 0.960 . S
H852 C866 0.960 . S
H853 C866 0.960 . S
C854 H846 0.929 . S
C854 C855 1.377 . S
C854 C856 1.384 . S
C855 C854 1.377 . S
C855 C861 1.390 . S
C856 H847 0.930 . S
C856 C854 1.384 . S
C856 C857 1.372 . S
C857 C856 1.372 . S
C857 C858 1.400 . S
C857 C862 1.490 . S
C858 H848 0.930 . S
C858 C857 1.400 . S
C858 C861 1.386 . S
H859 C875 0.930 . S
H860 C876 0.931 . S
C861 H849 0.929 . S
C861 C855 1.390 . S
C861 C858 1.386 . S
C862 C857 1.490 . S
C862 C864 1.395 . S
C862 C865 1.403 . S
H863 C869 0.930 . S
C864 H850 0.930 . S
C864 C862 1.395 . S
C864 C867 1.403 . S
C865 C862 1.403 . S
C865 C866 1.524 . S
C865 C869 1.400 . S
C866 H851 0.960 . S
C866 H852 0.960 . S
C866 H853 0.960 . S
C866 C865 1.524 . S
C867 C864 1.403 . S
C867 C868 1.392 . S
C867 C871 1.495 . S
C868 C867 1.392 . S
C868 C869 1.385 . S
C868 C870 1.478 . S
C869 H863 0.930 . S
C869 C865 1.400 . S
C869 C868 1.385 . S
C870 C868 1.478 . S
C870 C872 1.381 . S
C870 C876 1.383 . S
C871 C867 1.495 . S
C871 H877 0.959 . S
C871 H878 0.961 . S
C871 H879 0.960 . S
C872 C870 1.381 . S
C872 C873 1.394 . S
C872 H880 0.930 . S
C873 C872 1.394 . S
C873 C874 1.383 . S
C873 H881 0.929 . S
C874 C873 1.383 . S
C874 C875 1.377 . S
C875 H859 0.930 . S
C875 C874 1.377 . S
C875 C876 1.379 . S
C876 H860 0.931 . S
C876 C870 1.383 . S
C876 C875 1.379 . S
H877 C871 0.959 . S
H878 C871 0.961 . S
H879 C871 0.960 . S
H880 C872 0.930 . S
H881 C873 0.929 . S
H882 C890 0.929 . S
H883 C892 0.930 . S
H884 C894 0.930 . S
H885 C897 0.929 . S
H886 C900 0.930 . S
H887 C902 0.960 . S
H888 C902 0.960 . S
H889 C902 0.960 . S
C890 H882 0.929 . S
C890 C891 1.377 . S
C890 C892 1.384 . S
C891 C890 1.377 . S
C891 C897 1.390 . S
C892 H883 0.930 . S
C892 C890 1.384 . S
C892 C893 1.372 . S
C893 C892 1.372 . S
C893 C894 1.400 . S
C893 C898 1.490 . S
C894 H884 0.930 . S
C894 C893 1.400 . S
C894 C897 1.386 . S
H895 C911 0.930 . S
H896 C912 0.931 . S
C897 H885 0.929 . S
C897 C891 1.390 . S
C897 C894 1.386 . S
C898 C893 1.490 . S
C898 C900 1.395 . S
C898 C901 1.403 . S
H899 C905 0.930 . S
C900 H886 0.930 . S
C900 C898 1.395 . S
C900 C903 1.403 . S
C901 C898 1.403 . S
C901 C902 1.524 . S
C901 C905 1.400 . S
C902 H887 0.960 . S
C902 H888 0.960 . S
C902 H889 0.960 . S
C902 C901 1.524 . S
C903 C900 1.403 . S
C903 C904 1.392 . S
C903 C907 1.495 . S
C904 C903 1.392 . S
C904 C905 1.385 . S
C904 C906 1.478 . S
C905 H899 0.930 . S
C905 C901 1.400 . S
C905 C904 1.385 . S
C906 C904 1.478 . S
C906 C908 1.381 . S
C906 C912 1.383 . S
C907 C903 1.495 . S
C907 H913 0.959 . S
C907 H914 0.961 . S
C907 H915 0.960 . S
C908 C906 1.381 . S
C908 C909 1.394 . S
C908 H916 0.930 . S
C909 C908 1.394 . S
C909 C910 1.383 . S
C909 H917 0.929 . S
C910 C909 1.383 . S
C910 C911 1.377 . S
C911 H895 0.930 . S
C911 C910 1.377 . S
C911 C912 1.379 . S
C912 H896 0.931 . S
C912 C906 1.383 . S
C912 C911 1.379 . S
H913 C907 0.959 . S
H914 C907 0.961 . S
H915 C907 0.960 . S
H916 C908 0.930 . S
H917 C909 0.929 . S
H918 C926 0.929 . S
H919 C928 0.930 . S
H920 C930 0.930 . S
H921 C933 0.929 . S
H922 C936 0.930 . S
H923 C938 0.960 . S
H924 C938 0.960 . S
H925 C938 0.960 . S
C926 H918 0.929 . S
C926 C927 1.377 . S
C926 C928 1.384 . S
C927 C926 1.377 . S
C927 C933 1.390 1_655 S
C928 H919 0.930 . S
C928 C926 1.384 . S
C928 C929 1.372 . S
C929 C928 1.372 . S
C929 C930 1.400 1_655 S
C929 C934 1.490 . S
C930 H920 0.930 . S
C930 C929 1.400 1_455 S
C930 C933 1.386 . S
H931 C947 0.930 . S
H932 C948 0.931 . S
C933 H921 0.929 . S
C933 C927 1.390 1_455 S
C933 C930 1.386 . S
C934 C929 1.490 . S
C934 C936 1.395 1_655 S
C934 C937 1.403 . S
H935 C941 0.930 . S
C936 H922 0.930 . S
C936 C934 1.395 1_455 S
C936 C939 1.403 . S
C937 C934 1.403 . S
C937 C938 1.524 . S
C937 C941 1.400 . S
C938 H923 0.960 . S
C938 H924 0.960 . S
C938 H925 0.960 . S
C938 C937 1.524 . S
C939 C936 1.403 . S
C939 C940 1.392 . S
C939 C943 1.495 . S
C940 C939 1.392 . S
C940 C941 1.385 1_455 S
C940 C942 1.478 . S
C941 H935 0.930 . S
C941 C937 1.400 . S
C941 C940 1.385 1_655 S
C942 C940 1.478 . S
C942 C944 1.381 1_455 S
C942 C948 1.383 . S
C943 C939 1.495 . S
C943 H949 0.959 . S
C943 H950 0.961 . S
C943 H951 0.960 . S
C944 C942 1.381 1_655 S
C944 C945 1.394 . S
C944 H952 0.930 . S
C945 C944 1.394 . S
C945 C946 1.383 1_655 S
C945 H953 0.929 . S
C946 C945 1.383 1_455 S
C946 C947 1.377 . S
C947 H931 0.930 . S
C947 C946 1.377 . S
C947 C948 1.379 . S
C948 H932 0.931 . S
C948 C942 1.383 . S
C948 C947 1.379 . S
H949 C943 0.959 . S
H950 C943 0.961 . S
H951 C943 0.960 . S
H952 C944 0.930 . S
H953 C945 0.929 . S
H954 C962 0.929 . S
H955 C964 0.930 . S
H956 C966 0.930 . S
H957 C969 0.929 . S
H958 C972 0.930 . S
H959 C974 0.960 . S
H960 C974 0.960 . S
H961 C974 0.960 . S
C962 H954 0.929 . S
C962 C963 1.377 . S
C962 C964 1.384 . S
C963 C962 1.377 . S
C963 C969 1.390 . S
C964 H955 0.930 . S
C964 C962 1.384 . S
C964 C965 1.372 . S
C965 C964 1.372 . S
C965 C966 1.400 . S
C965 C970 1.490 . S
C966 H956 0.930 . S
C966 C965 1.400 . S
C966 C969 1.386 . S
H967 C983 0.930 . S
H968 C984 0.931 . S
C969 H957 0.929 . S
C969 C963 1.390 . S
C969 C966 1.386 . S
C970 C965 1.490 . S
C970 C972 1.395 . S
C970 C973 1.403 . S
H971 C977 0.930 . S
C972 H958 0.930 . S
C972 C970 1.395 . S
C972 C975 1.403 . S
C973 C970 1.403 . S
C973 C974 1.524 . S
C973 C977 1.400 . S
C974 H959 0.960 . S
C974 H960 0.960 . S
C974 H961 0.960 . S
C974 C973 1.524 . S
C975 C972 1.403 . S
C975 C976 1.392 . S
C975 C979 1.495 . S
C976 C975 1.392 . S
C976 C977 1.385 . S
C976 C978 1.478 . S
C977 H971 0.930 . S
C977 C973 1.400 . S
C977 C976 1.385 . S
C978 C976 1.478 . S
C978 C980 1.381 . S
C978 C984 1.383 . S
C979 C975 1.495 . S
C979 H985 0.959 . S
C979 H986 0.961 . S
C979 H987 0.960 . S
C980 C978 1.381 . S
C980 C981 1.394 . S
C980 H988 0.930 . S
C981 C980 1.394 . S
C981 C982 1.383 . S
C981 H989 0.929 . S
C982 C981 1.383 . S
C982 C983 1.377 . S
C983 H967 0.930 . S
C983 C982 1.377 . S
C983 C984 1.379 . S
C984 H968 0.931 . S
C984 C978 1.383 . S
C984 C983 1.379 . S
H985 C979 0.959 . S
H986 C979 0.961 . S
H987 C979 0.960 . S
H988 C980 0.930 . S
H989 C981 0.929 . S
H990 C998 0.929 . S
H991 C1000 0.930 . S
H992 C1002 0.930 . S
H993 C1005 0.929 . S
H994 C1008 0.930 . S
H995 C1010 0.960 . S
H996 C1010 0.960 . S
H997 C1010 0.960 . S
C998 H990 0.929 . S
C998 C999 1.377 1_545 S
C998 C1000 1.384 . S
C999 C998 1.377 1_565 S
C999 C1005 1.390 . S
C1000 H991 0.930 . S
C1000 C998 1.384 . S
C1000 C1001 1.369 1_545 S
C1001 C1000 1.369 1_565 S
C1001 C1002 1.403 . S
C1001 C1006 1.490 1_565 S
C1002 H992 0.930 . S
C1002 C1001 1.403 . S
C1002 C1005 1.386 . S
H1003 C1019 0.930 . S
H1004 C1020 0.931 . S
C1005 H993 0.929 . S
C1005 C999 1.390 . S
C1005 C1002 1.386 . S
C1006 C1001 1.490 1_545 S
C1006 C1008 1.395 . S
C1006 C1009 1.403 1_545 S
H1007 C1013 0.930 . S
C1008 H994 0.930 . S
C1008 C1006 1.395 . S
C1008 C1011 1.403 . S
C1009 C1006 1.403 1_565 S
C1009 C1010 1.524 . S
C1009 C1013 1.400 . S
C1010 H995 0.960 . S
C1010 H996 0.960 . S
C1010 H997 0.960 . S
C1010 C1009 1.524 . S
C1011 C1008 1.403 . S
C1011 C1012 1.392 . S
C1011 C1015 1.495 . S
C1012 C1011 1.392 . S
C1012 C1013 1.385 1_545 S
C1012 C1014 1.478 . S
C1013 H1007 0.930 . S
C1013 C1009 1.400 . S
C1013 C1012 1.385 1_565 S
C1014 C1012 1.478 . S
C1014 C1016 1.381 . S
C1014 C1020 1.383 1_545 S
C1015 C1011 1.495 . S
C1015 H1021 0.959 . S
C1015 H1022 0.961 . S
C1015 H1023 0.960 . S
C1016 C1014 1.381 . S
C1016 C1017 1.394 . S
C1016 H1024 0.930 . S
C1017 C1016 1.394 . S
C1017 C1018 1.383 . S
C1017 H1025 0.929 . S
C1018 C1017 1.383 . S
C1018 C1019 1.377 1_545 S
C1019 H1003 0.930 . S
C1019 C1018 1.377 1_565 S
C1019 C1020 1.379 . S
C1020 H1004 0.931 . S
C1020 C1014 1.383 1_565 S
C1020 C1019 1.379 . S
H1021 C1015 0.959 . S
H1022 C1015 0.961 . S
H1023 C1015 0.960 . S
H1024 C1016 0.930 . S
H1025 C1017 0.929 . S
H1026 C1034 0.929 . S
H1027 C1036 0.930 . S
H1028 C1038 0.930 . S
H1029 C1041 0.929 . S
H1030 C1044 0.930 . S
H1031 C1046 0.960 . S
H1032 C1046 0.960 . S
H1033 C1046 0.960 . S
C1034 H1026 0.929 . S
C1034 C1035 1.377 . S
C1034 C1036 1.384 . S
C1035 C1034 1.377 . S
C1035 C1041 1.390 . S
C1036 H1027 0.930 . S
C1036 C1034 1.384 . S
C1036 C1037 1.372 . S
C1037 C1036 1.372 . S
C1037 C1038 1.400 . S
C1037 C1042 1.490 . S
C1038 H1028 0.930 . S
C1038 C1037 1.400 . S
C1038 C1041 1.386 . S
H1039 C1055 0.930 . S
H1040 C1056 0.931 . S
C1041 H1029 0.929 . S
C1041 C1035 1.390 . S
C1041 C1038 1.386 . S
C1042 C1037 1.490 . S
C1042 C1044 1.395 . S
C1042 C1045 1.403 . S
H1043 C1049 0.930 . S
C1044 H1030 0.930 . S
C1044 C1042 1.395 . S
C1044 C1047 1.403 . S
C1045 C1042 1.403 . S
C1045 C1046 1.524 . S
C1045 C1049 1.400 . S
C1046 H1031 0.960 . S
C1046 H1032 0.960 . S
C1046 H1033 0.960 . S
C1046 C1045 1.524 . S
C1047 C1044 1.403 . S
C1047 C1048 1.392 . S
C1047 C1051 1.495 . S
C1048 C1047 1.392 . S
C1048 C1049 1.385 . S
C1048 C1050 1.478 . S
C1049 H1043 0.930 . S
C1049 C1045 1.400 . S
C1049 C1048 1.385 . S
C1050 C1048 1.478 . S
C1050 C1052 1.381 . S
C1050 C1056 1.383 . S
C1051 C1047 1.495 . S
C1051 H1057 0.959 . S
C1051 H1058 0.961 . S
C1051 H1059 0.960 . S
C1052 C1050 1.381 . S
C1052 C1053 1.394 . S
C1052 H1060 0.930 . S
C1053 C1052 1.394 . S
C1053 C1054 1.383 . S
C1053 H1061 0.929 . S
C1054 C1053 1.383 . S
C1054 C1055 1.377 . S
C1055 H1039 0.930 . S
C1055 C1054 1.377 . S
C1055 C1056 1.379 . S
C1056 H1040 0.931 . S
C1056 C1050 1.383 . S
C1056 C1055 1.379 . S
H1057 C1051 0.959 . S
H1058 C1051 0.961 . S
H1059 C1051 0.960 . S
H1060 C1052 0.930 . S
H1061 C1053 0.929 . S
H1062 C1070 0.929 . S
H1063 C1072 0.930 . S
H1064 C1074 0.930 . S
H1065 C1077 0.929 . S
H1066 C1080 0.930 . S
H1067 C1082 0.960 . S
H1068 C1082 0.960 . S
H1069 C1082 0.960 . S
C1070 H1062 0.929 . S
C1070 C1071 1.377 . S
C1070 C1072 1.384 . S
C1071 C1070 1.377 . S
C1071 C1077 1.390 . S
C1072 H1063 0.930 . S
C1072 C1070 1.384 . S
C1072 C1073 1.372 . S
C1073 C1072 1.372 . S
C1073 C1074 1.400 . S
C1073 C1078 1.490 . S
C1074 H1064 0.930 . S
C1074 C1073 1.400 . S
C1074 C1077 1.386 . S
H1075 C1091 0.930 . S
H1076 C1092 0.931 . S
C1077 H1065 0.929 . S
C1077 C1071 1.390 . S
C1077 C1074 1.386 . S
C1078 C1073 1.490 . S
C1078 C1080 1.395 . S
C1078 C1081 1.403 . S
H1079 C1085 0.930 . S
C1080 H1066 0.930 . S
C1080 C1078 1.395 . S
C1080 C1083 1.403 . S
C1081 C1078 1.403 . S
C1081 C1082 1.524 . S
C1081 C1085 1.400 . S
C1082 H1067 0.960 . S
C1082 H1068 0.960 . S
C1082 H1069 0.960 . S
C1082 C1081 1.524 . S
C1083 C1080 1.403 . S
C1083 C1084 1.392 . S
C1083 C1087 1.495 . S
C1084 C1083 1.392 . S
C1084 C1085 1.385 . S
C1084 C1086 1.478 . S
C1085 H1079 0.930 . S
C1085 C1081 1.400 . S
C1085 C1084 1.385 . S
C1086 C1084 1.478 . S
C1086 C1088 1.381 . S
C1086 C1092 1.383 . S
C1087 C1083 1.495 . S
C1087 H1093 0.959 . S
C1087 H1094 0.961 . S
C1087 H1095 0.960 . S
C1088 C1086 1.381 . S
C1088 C1089 1.394 . S
C1088 H1096 0.930 . S
C1089 C1088 1.394 . S
C1089 C1090 1.383 . S
C1089 H1097 0.929 . S
C1090 C1089 1.383 . S
C1090 C1091 1.377 . S
C1091 H1075 0.930 . S
C1091 C1090 1.377 . S
C1091 C1092 1.379 . S
C1092 H1076 0.931 . S
C1092 C1086 1.383 . S
C1092 C1091 1.379 . S
H1093 C1087 0.959 . S
H1094 C1087 0.961 . S
H1095 C1087 0.960 . S
H1096 C1088 0.930 . S
H1097 C1089 0.929 . S
H1098 C1106 0.929 . S
H1099 C1108 0.930 . S
H1100 C1110 0.930 . S
H1101 C1113 0.929 . S
H1102 C1116 0.930 . S
H1103 C1118 0.960 . S
H1104 C1118 0.960 . S
H1105 C1118 0.960 . S
C1106 H1098 0.929 . S
C1106 C1107 1.377 . S
C1106 C1108 1.384 . S
C1107 C1106 1.377 . S
C1107 C1113 1.390 . S
C1108 H1099 0.930 . S
C1108 C1106 1.384 . S
C1108 C1109 1.372 . S
C1109 C1108 1.372 . S
C1109 C1110 1.400 . S
C1109 C1114 1.490 . S
C1110 H1100 0.930 . S
C1110 C1109 1.400 . S
C1110 C1113 1.386 . S
H1111 C1127 0.930 . S
H1112 C1128 0.931 . S
C1113 H1101 0.929 . S
C1113 C1107 1.390 . S
C1113 C1110 1.386 . S
C1114 C1109 1.490 . S
C1114 C1116 1.395 . S
C1114 C1117 1.403 . S
H1115 C1121 0.930 . S
C1116 H1102 0.930 . S
C1116 C1114 1.395 . S
C1116 C1119 1.403 . S
C1117 C1114 1.403 . S
C1117 C1118 1.524 . S
C1117 C1121 1.400 . S
C1118 H1103 0.960 . S
C1118 H1104 0.960 . S
C1118 H1105 0.960 . S
C1118 C1117 1.524 . S
C1119 C1116 1.403 . S
C1119 C1120 1.392 . S
C1119 C1123 1.495 . S
C1120 C1119 1.392 . S
C1120 C1121 1.385 . S
C1120 C1122 1.478 . S
C1121 H1115 0.930 . S
C1121 C1117 1.400 . S
C1121 C1120 1.385 . S
C1122 C1120 1.478 . S
C1122 C1124 1.381 . S
C1122 C1128 1.383 . S
C1123 C1119 1.495 . S
C1123 H1129 0.959 . S
C1123 H1130 0.961 . S
C1123 H1131 0.960 . S
C1124 C1122 1.381 . S
C1124 C1125 1.394 . S
C1124 H1132 0.930 . S
C1125 C1124 1.394 . S
C1125 C1126 1.383 . S
C1125 H1133 0.929 . S
C1126 C1125 1.383 . S
C1126 C1127 1.377 . S
C1127 H1111 0.930 . S
C1127 C1126 1.377 . S
C1127 C1128 1.379 . S
C1128 H1112 0.931 . S
C1128 C1122 1.383 . S
C1128 C1127 1.379 . S
H1129 C1123 0.959 . S
H1130 C1123 0.961 . S
H1131 C1123 0.960 . S
H1132 C1124 0.930 . S
H1133 C1125 0.929 . S
H1134 C1142 0.929 . S
H1135 C1144 0.930 . S
H1136 C1146 0.930 . S
H1137 C1149 0.929 . S
H1138 C1152 0.930 . S
H1139 C1154 0.960 . S
H1140 C1154 0.960 . S
H1141 C1154 0.960 . S
C1142 H1134 0.929 . S
C1142 C1143 1.377 . S
C1142 C1144 1.384 . S
C1143 C1142 1.377 . S
C1143 C1149 1.390 . S
C1144 H1135 0.930 . S
C1144 C1142 1.384 . S
C1144 C1145 1.372 . S
C1145 C1144 1.372 . S
C1145 C1146 1.400 . S
C1145 C1150 1.490 . S
C1146 H1136 0.930 . S
C1146 C1145 1.400 . S
C1146 C1149 1.386 . S
H1147 C1163 0.930 . S
H1148 C1164 0.931 . S
C1149 H1137 0.929 . S
C1149 C1143 1.390 . S
C1149 C1146 1.386 . S
C1150 C1145 1.490 . S
C1150 C1152 1.395 . S
C1150 C1153 1.403 . S
H1151 C1157 0.930 . S
C1152 H1138 0.930 . S
C1152 C1150 1.395 . S
C1152 C1155 1.403 . S
C1153 C1150 1.403 . S
C1153 C1154 1.524 . S
C1153 C1157 1.400 . S
C1154 H1139 0.960 . S
C1154 H1140 0.960 . S
C1154 H1141 0.960 . S
C1154 C1153 1.524 . S
C1155 C1152 1.403 . S
C1155 C1156 1.392 . S
C1155 C1159 1.495 . S
C1156 C1155 1.392 . S
C1156 C1157 1.385 . S
C1156 C1158 1.478 . S
C1157 H1151 0.930 . S
C1157 C1153 1.400 . S
C1157 C1156 1.385 . S
C1158 C1156 1.478 . S
C1158 C1160 1.381 . S
C1158 C1164 1.383 . S
C1159 C1155 1.495 . S
C1159 H1165 0.959 . S
C1159 H1166 0.961 . S
C1159 H1167 0.960 . S
C1160 C1158 1.381 . S
C1160 C1161 1.394 . S
C1160 H1168 0.930 . S
C1161 C1160 1.394 . S
C1161 C1162 1.383 . S
C1161 H1169 0.929 . S
C1162 C1161 1.383 . S
C1162 C1163 1.377 . S
C1163 H1147 0.930 . S
C1163 C1162 1.377 . S
C1163 C1164 1.379 . S
C1164 H1148 0.931 . S
C1164 C1158 1.383 . S
C1164 C1163 1.379 . S
H1165 C1159 0.959 . S
H1166 C1159 0.961 . S
H1167 C1159 0.960 . S
H1168 C1160 0.930 . S
H1169 C1161 0.929 . S
H1170 C1178 0.929 . S
H1171 C1180 0.930 . S
H1172 C1182 0.930 . S
H1173 C1185 0.929 . S
H1174 C1188 0.930 . S
H1175 C1190 0.960 . S
H1176 C1190 0.960 . S
H1177 C1190 0.960 . S
C1178 H1170 0.929 . S
C1178 C1179 1.377 . S
C1178 C1180 1.384 . S
C1179 C1178 1.377 . S
C1179 C1185 1.390 . S
C1180 H1171 0.930 . S
C1180 C1178 1.384 . S
C1180 C1181 1.372 . S
C1181 C1180 1.372 . S
C1181 C1182 1.400 . S
C1181 C1186 1.490 . S
C1182 H1172 0.930 . S
C1182 C1181 1.400 . S
C1182 C1185 1.386 . S
H1183 C1199 0.930 . S
H1184 C1200 0.931 . S
C1185 H1173 0.929 . S
C1185 C1179 1.390 . S
C1185 C1182 1.386 . S
C1186 C1181 1.490 . S
C1186 C1188 1.395 . S
C1186 C1189 1.403 . S
H1187 C1193 0.930 . S
C1188 H1174 0.930 . S
C1188 C1186 1.395 . S
C1188 C1191 1.403 . S
C1189 C1186 1.403 . S
C1189 C1190 1.524 . S
C1189 C1193 1.400 . S
C1190 H1175 0.960 . S
C1190 H1176 0.960 . S
C1190 H1177 0.960 . S
C1190 C1189 1.524 . S
C1191 C1188 1.403 . S
C1191 C1192 1.392 . S
C1191 C1195 1.495 . S
C1192 C1191 1.392 . S
C1192 C1193 1.385 . S
C1192 C1194 1.478 . S
C1193 H1187 0.930 . S
C1193 C1189 1.400 . S
C1193 C1192 1.385 . S
C1194 C1192 1.478 . S
C1194 C1196 1.381 . S
C1194 C1200 1.383 . S
C1195 C1191 1.495 . S
C1195 H1201 0.959 . S
C1195 H1202 0.961 . S
C1195 H1203 0.960 . S
C1196 C1194 1.381 . S
C1196 C1197 1.394 . S
C1196 H1204 0.930 . S
C1197 C1196 1.394 . S
C1197 C1198 1.383 . S
C1197 H1205 0.929 . S
C1198 C1197 1.383 . S
C1198 C1199 1.377 . S
C1199 H1183 0.930 . S
C1199 C1198 1.377 . S
C1199 C1200 1.379 . S
C1200 H1184 0.931 . S
C1200 C1194 1.383 . S
C1200 C1199 1.379 . S
H1201 C1195 0.959 . S
H1202 C1195 0.961 . S
H1203 C1195 0.960 . S
H1204 C1196 0.930 . S
H1205 C1197 0.929 . S
H1206 C1214 0.929 . S
H1207 C1216 0.930 . S
H1208 C1218 0.930 . S
H1209 C1221 0.929 . S
H1210 C1224 0.930 . S
H1211 C1226 0.960 . S
H1212 C1226 0.960 . S
H1213 C1226 0.960 . S
C1214 H1206 0.929 . S
C1214 C1215 1.377 . S
C1214 C1216 1.384 . S
C1215 C1214 1.377 . S
C1215 C1221 1.390 . S
C1216 H1207 0.930 . S
C1216 C1214 1.384 . S
C1216 C1217 1.372 . S
C1217 C1216 1.372 . S
C1217 C1218 1.400 . S
C1217 C1222 1.490 . S
C1218 H1208 0.930 . S
C1218 C1217 1.400 . S
C1218 C1221 1.386 . S
H1219 C1235 0.930 . S
H1220 C1236 0.931 . S
C1221 H1209 0.929 . S
C1221 C1215 1.390 . S
C1221 C1218 1.386 . S
C1222 C1217 1.490 . S
C1222 C1224 1.395 . S
C1222 C1225 1.403 . S
H1223 C1229 0.930 . S
C1224 H1210 0.930 . S
C1224 C1222 1.395 . S
C1224 C1227 1.403 . S
C1225 C1222 1.403 . S
C1225 C1226 1.524 . S
C1225 C1229 1.400 . S
C1226 H1211 0.960 . S
C1226 H1212 0.960 . S
C1226 H1213 0.960 . S
C1226 C1225 1.524 . S
C1227 C1224 1.403 . S
C1227 C1228 1.392 . S
C1227 C1231 1.495 . S
C1228 C1227 1.392 . S
C1228 C1229 1.385 . S
C1228 C1230 1.478 . S
C1229 H1223 0.930 . S
C1229 C1225 1.400 . S
C1229 C1228 1.385 . S
C1230 C1228 1.478 . S
C1230 C1232 1.381 . S
C1230 C1236 1.383 . S
C1231 C1227 1.495 . S
C1231 H1237 0.959 . S
C1231 H1238 0.961 . S
C1231 H1239 0.960 . S
C1232 C1230 1.381 . S
C1232 C1233 1.394 . S
C1232 H1240 0.930 . S
C1233 C1232 1.394 . S
C1233 C1234 1.383 . S
C1233 H1241 0.929 . S
C1234 C1233 1.383 . S
C1234 C1235 1.377 . S
C1235 H1219 0.930 . S
C1235 C1234 1.377 . S
C1235 C1236 1.379 . S
C1236 H1220 0.931 . S
C1236 C1230 1.383 . S
C1236 C1235 1.379 . S
H1237 C1231 0.959 . S
H1238 C1231 0.961 . S
H1239 C1231 0.960 . S
H1240 C1232 0.930 . S
H1241 C1233 0.929 . S
C495 C37 1.776 . S
C514 C259 1.624 . S
C531 C118 1.772 . S
C550 C340 1.652 . S
C567 C199 1.770 . S
C586 C421 1.616 . S
C603 C280 1.769 . S
C622 C16 1.647 . S
C639 C361 1.776 . S
C658 C97 1.629 . S
C675 C442 1.775 . S
C694 C178 1.636 . S
C711 C455 3.216 . S
C730 C34 3.158 . S
C747 C115 3.168 . S
C766 C293 3.212 1_565 S
C783 C374 3.216 1_455 S
C802 C196 3.152 . S
C819 C131 3.213 . S
C838 C277 3.171 . S
C855 C358 3.165 . S
C874 C212 3.219 1_545 S
C891 C50 3.217 1_655 S
C910 C439 3.151 . S
C927 C342 1.301 . S
C946 C18 1.303 . S
C963 C423 1.300 . S
C982 C99 1.297 . S
C999 C180 1.302 . S
C1018 C261 1.296 . S
C1035 C59 0.625 . S
C1054 C133 0.793 . S
C1071 C214 0.745 . S
C1090 C140 0.534 . S
C1107 C52 0.767 . S
C1126 C221 0.547 . S
C1143 C457 0.757 . S
C1162 C302 0.671 . S
C1179 C295 0.727 . S
C1198 C383 0.677 . S
C1215 C464 0.623 . S
C1234 C376 0.804 . S
