# Generated by pormake.
# Topology rho, (4)-cn, num edge types: 1
# Building blocks:
#     Node 0, Type 0, BuildingBlock: TATPOV_clean_sbu_0, # of connection points: 4
#     Node 1, Type 0, BuildingBlock: TATPOV_clean_sbu_0, # of connection points: 4
#     Node 2, Type 0, BuildingBlock: TATPOV_clean_sbu_0, # of connection points: 4
#     Node 3, Type 0, BuildingBlock: TATPOV_clean_sbu_0, # of connection points: 4
#     Node 4, Type 0, BuildingBlock: TATPOV_clean_sbu_0, # of connection points: 4
#     Node 5, Type 0, BuildingBlock: TATPOV_clean_sbu_0, # of connection points: 4
#     Node 6, Type 0, BuildingBlock: TATPOV_clean_sbu_0, # of connection points: 4
#     Node 7, Type 0, BuildingBlock: TATPOV_clean_sbu_0, # of connection points: 4
#     Node 8, Type 0, BuildingBlock: TATPOV_clean_sbu_0, # of connection points: 4
#     Node 9, Type 0, BuildingBlock: TATPOV_clean_sbu_0, # of connection points: 4
#     Node 10, Type 0, BuildingBlock: TATPOV_clean_sbu_0, # of connection points: 4
#     Node 11, Type 0, BuildingBlock: TATPOV_clean_sbu_0, # of connection points: 4
#     Node 12, Type 0, BuildingBlock: TATPOV_clean_sbu_0, # of connection points: 4
#     Node 13, Type 0, BuildingBlock: TATPOV_clean_sbu_0, # of connection points: 4
#     Node 14, Type 0, BuildingBlock: TATPOV_clean_sbu_0, # of connection points: 4
#     Node 15, Type 0, BuildingBlock: TATPOV_clean_sbu_0, # of connection points: 4
#     Node 16, Type 0, BuildingBlock: TATPOV_clean_sbu_0, # of connection points: 4
#     Node 17, Type 0, BuildingBlock: TATPOV_clean_sbu_0, # of connection points: 4
#     Node 18, Type 0, BuildingBlock: TATPOV_clean_sbu_0, # of connection points: 4
#     Node 19, Type 0, BuildingBlock: TATPOV_clean_sbu_0, # of connection points: 4
#     Node 20, Type 0, BuildingBlock: TATPOV_clean_sbu_0, # of connection points: 4
#     Node 21, Type 0, BuildingBlock: TATPOV_clean_sbu_0, # of connection points: 4
#     Node 22, Type 0, BuildingBlock: TATPOV_clean_sbu_0, # of connection points: 4
#     Node 23, Type 0, BuildingBlock: TATPOV_clean_sbu_0, # of connection points: 4
#     Node 24, Type 0, BuildingBlock: TATPOV_clean_sbu_0, # of connection points: 4
#     Node 25, Type 0, BuildingBlock: TATPOV_clean_sbu_0, # of connection points: 4
#     Node 26, Type 0, BuildingBlock: TATPOV_clean_sbu_0, # of connection points: 4
#     Node 27, Type 0, BuildingBlock: TATPOV_clean_sbu_0, # of connection points: 4
#     Node 28, Type 0, BuildingBlock: TATPOV_clean_sbu_0, # of connection points: 4
#     Node 29, Type 0, BuildingBlock: TATPOV_clean_sbu_0, # of connection points: 4
#     Node 30, Type 0, BuildingBlock: TATPOV_clean_sbu_0, # of connection points: 4
#     Node 31, Type 0, BuildingBlock: TATPOV_clean_sbu_0, # of connection points: 4
#     Node 32, Type 0, BuildingBlock: TATPOV_clean_sbu_0, # of connection points: 4
#     Node 33, Type 0, BuildingBlock: TATPOV_clean_sbu_0, # of connection points: 4
#     Node 34, Type 0, BuildingBlock: TATPOV_clean_sbu_0, # of connection points: 4
#     Node 35, Type 0, BuildingBlock: TATPOV_clean_sbu_0, # of connection points: 4
#     Node 36, Type 0, BuildingBlock: TATPOV_clean_sbu_0, # of connection points: 4
#     Node 37, Type 0, BuildingBlock: TATPOV_clean_sbu_0, # of connection points: 4
#     Node 38, Type 0, BuildingBlock: TATPOV_clean_sbu_0, # of connection points: 4
#     Node 39, Type 0, BuildingBlock: TATPOV_clean_sbu_0, # of connection points: 4
#     Node 40, Type 0, BuildingBlock: TATPOV_clean_sbu_0, # of connection points: 4
#     Node 41, Type 0, BuildingBlock: TATPOV_clean_sbu_0, # of connection points: 4
#     Node 42, Type 0, BuildingBlock: TATPOV_clean_sbu_0, # of connection points: 4
#     Node 43, Type 0, BuildingBlock: TATPOV_clean_sbu_0, # of connection points: 4
#     Node 44, Type 0, BuildingBlock: TATPOV_clean_sbu_0, # of connection points: 4
#     Node 45, Type 0, BuildingBlock: TATPOV_clean_sbu_0, # of connection points: 4
#     Node 46, Type 0, BuildingBlock: TATPOV_clean_sbu_0, # of connection points: 4
#     Node 47, Type 0, BuildingBlock: TATPOV_clean_sbu_0, # of connection points: 4
#     Edge 48, Type (0, 0), BuildingBlock: AJUNOK_clean_linker_0, # of connection points: 2
#     Edge 49, Type (0, 0), BuildingBlock: AJUNOK_clean_linker_0, # of connection points: 2
#     Edge 50, Type (0, 0), BuildingBlock: AJUNOK_clean_linker_0, # of connection points: 2
#     Edge 51, Type (0, 0), BuildingBlock: AJUNOK_clean_linker_0, # of connection points: 2
#     Edge 52, Type (0, 0), BuildingBlock: AJUNOK_clean_linker_0, # of connection points: 2
#     Edge 53, Type (0, 0), BuildingBlock: AJUNOK_clean_linker_0, # of connection points: 2
#     Edge 54, Type (0, 0), BuildingBlock: AJUNOK_clean_linker_0, # of connection points: 2
#     Edge 55, Type (0, 0), BuildingBlock: AJUNOK_clean_linker_0, # of connection points: 2
#     Edge 56, Type (0, 0), BuildingBlock: AJUNOK_clean_linker_0, # of connection points: 2
#     Edge 57, Type (0, 0), BuildingBlock: AJUNOK_clean_linker_0, # of connection points: 2
#     Edge 58, Type (0, 0), BuildingBlock: AJUNOK_clean_linker_0, # of connection points: 2
#     Edge 59, Type (0, 0), BuildingBlock: AJUNOK_clean_linker_0, # of connection points: 2
#     Edge 60, Type (0, 0), BuildingBlock: AJUNOK_clean_linker_0, # of connection points: 2
#     Edge 61, Type (0, 0), BuildingBlock: AJUNOK_clean_linker_0, # of connection points: 2
#     Edge 62, Type (0, 0), BuildingBlock: AJUNOK_clean_linker_0, # of connection points: 2
#     Edge 63, Type (0, 0), BuildingBlock: AJUNOK_clean_linker_0, # of connection points: 2
#     Edge 64, Type (0, 0), BuildingBlock: AJUNOK_clean_linker_0, # of connection points: 2
#     Edge 65, Type (0, 0), BuildingBlock: AJUNOK_clean_linker_0, # of connection points: 2
#     Edge 66, Type (0, 0), BuildingBlock: AJUNOK_clean_linker_0, # of connection points: 2
#     Edge 67, Type (0, 0), BuildingBlock: AJUNOK_clean_linker_0, # of connection points: 2
#     Edge 68, Type (0, 0), BuildingBlock: AJUNOK_clean_linker_0, # of connection points: 2
#     Edge 69, Type (0, 0), BuildingBlock: AJUNOK_clean_linker_0, # of connection points: 2
#     Edge 70, Type (0, 0), BuildingBlock: AJUNOK_clean_linker_0, # of connection points: 2
#     Edge 71, Type (0, 0), BuildingBlock: AJUNOK_clean_linker_0, # of connection points: 2
#     Edge 72, Type (0, 0), BuildingBlock: AJUNOK_clean_linker_0, # of connection points: 2
#     Edge 73, Type (0, 0), BuildingBlock: AJUNOK_clean_linker_0, # of connection points: 2
#     Edge 74, Type (0, 0), BuildingBlock: AJUNOK_clean_linker_0, # of connection points: 2
#     Edge 75, Type (0, 0), BuildingBlock: AJUNOK_clean_linker_0, # of connection points: 2
#     Edge 76, Type (0, 0), BuildingBlock: AJUNOK_clean_linker_0, # of connection points: 2
#     Edge 77, Type (0, 0), BuildingBlock: AJUNOK_clean_linker_0, # of connection points: 2
#     Edge 78, Type (0, 0), BuildingBlock: AJUNOK_clean_linker_0, # of connection points: 2
#     Edge 79, Type (0, 0), BuildingBlock: AJUNOK_clean_linker_0, # of connection points: 2
#     Edge 80, Type (0, 0), BuildingBlock: AJUNOK_clean_linker_0, # of connection points: 2
#     Edge 81, Type (0, 0), BuildingBlock: AJUNOK_clean_linker_0, # of connection points: 2
#     Edge 82, Type (0, 0), BuildingBlock: AJUNOK_clean_linker_0, # of connection points: 2
#     Edge 83, Type (0, 0), BuildingBlock: AJUNOK_clean_linker_0, # of connection points: 2
#     Edge 84, Type (0, 0), BuildingBlock: AJUNOK_clean_linker_0, # of connection points: 2
#     Edge 85, Type (0, 0), BuildingBlock: AJUNOK_clean_linker_0, # of connection points: 2
#     Edge 86, Type (0, 0), BuildingBlock: AJUNOK_clean_linker_0, # of connection points: 2
#     Edge 87, Type (0, 0), BuildingBlock: AJUNOK_clean_linker_0, # of connection points: 2
#     Edge 88, Type (0, 0), BuildingBlock: AJUNOK_clean_linker_0, # of connection points: 2
#     Edge 89, Type (0, 0), BuildingBlock: AJUNOK_clean_linker_0, # of connection points: 2
#     Edge 90, Type (0, 0), BuildingBlock: AJUNOK_clean_linker_0, # of connection points: 2
#     Edge 91, Type (0, 0), BuildingBlock: AJUNOK_clean_linker_0, # of connection points: 2
#     Edge 92, Type (0, 0), BuildingBlock: AJUNOK_clean_linker_0, # of connection points: 2
#     Edge 93, Type (0, 0), BuildingBlock: AJUNOK_clean_linker_0, # of connection points: 2
#     Edge 94, Type (0, 0), BuildingBlock: AJUNOK_clean_linker_0, # of connection points: 2
#     Edge 95, Type (0, 0), BuildingBlock: AJUNOK_clean_linker_0, # of connection points: 2
#     Edge 96, Type (0, 0), BuildingBlock: AJUNOK_clean_linker_0, # of connection points: 2
#     Edge 97, Type (0, 0), BuildingBlock: AJUNOK_clean_linker_0, # of connection points: 2
#     Edge 98, Type (0, 0), BuildingBlock: AJUNOK_clean_linker_0, # of connection points: 2
#     Edge 99, Type (0, 0), BuildingBlock: AJUNOK_clean_linker_0, # of connection points: 2
#     Edge 100, Type (0, 0), BuildingBlock: AJUNOK_clean_linker_0, # of connection points: 2
#     Edge 101, Type (0, 0), BuildingBlock: AJUNOK_clean_linker_0, # of connection points: 2
#     Edge 102, Type (0, 0), BuildingBlock: AJUNOK_clean_linker_0, # of connection points: 2
#     Edge 103, Type (0, 0), BuildingBlock: AJUNOK_clean_linker_0, # of connection points: 2
#     Edge 104, Type (0, 0), BuildingBlock: AJUNOK_clean_linker_0, # of connection points: 2
#     Edge 105, Type (0, 0), BuildingBlock: AJUNOK_clean_linker_0, # of connection points: 2
#     Edge 106, Type (0, 0), BuildingBlock: AJUNOK_clean_linker_0, # of connection points: 2
#     Edge 107, Type (0, 0), BuildingBlock: AJUNOK_clean_linker_0, # of connection points: 2
#     Edge 108, Type (0, 0), BuildingBlock: AJUNOK_clean_linker_0, # of connection points: 2
#     Edge 109, Type (0, 0), BuildingBlock: AJUNOK_clean_linker_0, # of connection points: 2
#     Edge 110, Type (0, 0), BuildingBlock: AJUNOK_clean_linker_0, # of connection points: 2
#     Edge 111, Type (0, 0), BuildingBlock: AJUNOK_clean_linker_0, # of connection points: 2
#     Edge 112, Type (0, 0), BuildingBlock: AJUNOK_clean_linker_0, # of connection points: 2
#     Edge 113, Type (0, 0), BuildingBlock: AJUNOK_clean_linker_0, # of connection points: 2
#     Edge 114, Type (0, 0), BuildingBlock: AJUNOK_clean_linker_0, # of connection points: 2
#     Edge 115, Type (0, 0), BuildingBlock: AJUNOK_clean_linker_0, # of connection points: 2
#     Edge 116, Type (0, 0), BuildingBlock: AJUNOK_clean_linker_0, # of connection points: 2
#     Edge 117, Type (0, 0), BuildingBlock: AJUNOK_clean_linker_0, # of connection points: 2
#     Edge 118, Type (0, 0), BuildingBlock: AJUNOK_clean_linker_0, # of connection points: 2
#     Edge 119, Type (0, 0), BuildingBlock: AJUNOK_clean_linker_0, # of connection points: 2
#     Edge 120, Type (0, 0), BuildingBlock: AJUNOK_clean_linker_0, # of connection points: 2
#     Edge 121, Type (0, 0), BuildingBlock: AJUNOK_clean_linker_0, # of connection points: 2
#     Edge 122, Type (0, 0), BuildingBlock: AJUNOK_clean_linker_0, # of connection points: 2
#     Edge 123, Type (0, 0), BuildingBlock: AJUNOK_clean_linker_0, # of connection points: 2
#     Edge 124, Type (0, 0), BuildingBlock: AJUNOK_clean_linker_0, # of connection points: 2
#     Edge 125, Type (0, 0), BuildingBlock: AJUNOK_clean_linker_0, # of connection points: 2
#     Edge 126, Type (0, 0), BuildingBlock: AJUNOK_clean_linker_0, # of connection points: 2
#     Edge 127, Type (0, 0), BuildingBlock: AJUNOK_clean_linker_0, # of connection points: 2
#     Edge 128, Type (0, 0), BuildingBlock: AJUNOK_clean_linker_0, # of connection points: 2
#     Edge 129, Type (0, 0), BuildingBlock: AJUNOK_clean_linker_0, # of connection points: 2
#     Edge 130, Type (0, 0), BuildingBlock: AJUNOK_clean_linker_0, # of connection points: 2
#     Edge 131, Type (0, 0), BuildingBlock: AJUNOK_clean_linker_0, # of connection points: 2
#     Edge 132, Type (0, 0), BuildingBlock: AJUNOK_clean_linker_0, # of connection points: 2
#     Edge 133, Type (0, 0), BuildingBlock: AJUNOK_clean_linker_0, # of connection points: 2
#     Edge 134, Type (0, 0), BuildingBlock: AJUNOK_clean_linker_0, # of connection points: 2
#     Edge 135, Type (0, 0), BuildingBlock: AJUNOK_clean_linker_0, # of connection points: 2
#     Edge 136, Type (0, 0), BuildingBlock: AJUNOK_clean_linker_0, # of connection points: 2
#     Edge 137, Type (0, 0), BuildingBlock: AJUNOK_clean_linker_0, # of connection points: 2
#     Edge 138, Type (0, 0), BuildingBlock: AJUNOK_clean_linker_0, # of connection points: 2
#     Edge 139, Type (0, 0), BuildingBlock: AJUNOK_clean_linker_0, # of connection points: 2
#     Edge 140, Type (0, 0), BuildingBlock: AJUNOK_clean_linker_0, # of connection points: 2
#     Edge 141, Type (0, 0), BuildingBlock: AJUNOK_clean_linker_0, # of connection points: 2
#     Edge 142, Type (0, 0), BuildingBlock: AJUNOK_clean_linker_0, # of connection points: 2
#     Edge 143, Type (0, 0), BuildingBlock: AJUNOK_clean_linker_0, # of connection points: 2
# Relax obj value: 0.159
# Max RMSD: 0.203
# Mean RMSD: 0.192
data_MOF--net-rho--node1-TATPOV_clean_sbu_0--edge1-AJUNOK_clean_linker_0
_symmetry_space_group_name_H-M    P1
_symmetry_Int_Tables_number       1
_symmetry_cell_setting            triclinic
loop_
_symmetry_equiv_pos_as_xyz
'x, y, z'
_cell_length_a     53.246558
_cell_length_b     53.308541
_cell_length_c     53.54905
_cell_angle_alpha  89.859751
_cell_angle_beta   90.52785
_cell_angle_gamma 90.990678
loop_
_atom_site_label
_atom_site_type_symbol
_atom_site_fract_x
_atom_site_fract_y
_atom_site_fract_z
_atom_type_partial_charge
Zn0 Zn 0.0907 0.28084 0.38801 0.0
Zn1 Zn 0.10767 0.23607 0.38368 0.0
O2 O 0.12904 0.25656 0.35842 0.0
O3 O 0.11714 0.29493 0.36657 0.0
O4 O 0.12362 0.20227 0.38127 0.0
O5 O 0.09705 0.28212 0.42422 0.0
O6 O 0.11367 0.24477 0.42106 0.0
C7 C 0.13133 0.28013 0.35524 0.0
C8 C 0.05263 0.24727 0.37056 0.0
O9 O 0.07001 0.23135 0.37406 0.0
O10 O 0.05709 0.27034 0.37429 0.0
C11 C 0.13087 0.19328 0.36062 0.0
O12 O 0.12503 0.205 0.33981 0.0
C13 C 0.10832 0.26391 0.43408 0.0
Zn14 Zn 0.78452 0.07697 0.39077 0.0
Zn15 Zn 0.74154 0.09065 0.37256 0.0
O16 O 0.76739 0.1165 0.35814 0.0
O17 O 0.80365 0.10007 0.3684 0.0
O18 O 0.71021 0.09893 0.35272 0.0
O19 O 0.78094 0.04089 0.38146 0.0
O20 O 0.74545 0.05261 0.36426 0.0
C21 C 0.7913 0.11675 0.35714 0.0
C22 C 0.74987 0.09594 0.42816 0.0
O23 O 0.73404 0.09671 0.41014 0.0
O24 O 0.77224 0.08929 0.4242 0.0
C25 C 0.69711 0.11855 0.35463 0.0
O26 O 0.70304 0.13535 0.37169 0.0
C27 C 0.76129 0.03547 0.36907 0.0
Zn28 Zn 0.90441 0.68906 0.39468 0.0
Zn29 Zn 0.88012 0.72682 0.37519 0.0
O30 O 0.869 0.69587 0.35366 0.0
O31 O 0.88764 0.66455 0.37263 0.0
O32 O 0.86011 0.75638 0.36259 0.0
O33 O 0.88997 0.69453 0.42803 0.0
O34 O 0.869 0.72609 0.41207 0.0
C35 C 0.87333 0.67242 0.35551 0.0
C36 C 0.93768 0.72583 0.37406 0.0
O37 O 0.91732 0.73753 0.37003 0.0
O38 O 0.93716 0.70444 0.38433 0.0
C39 C 0.838 0.75391 0.35367 0.0
O40 O 0.82858 0.73121 0.35037 0.0
C41 C 0.87451 0.71203 0.43049 0.0
Zn42 Zn 0.20086 0.91482 0.39574 0.0
Zn43 Zn 0.24314 0.89623 0.38445 0.0
O44 O 0.21503 0.87506 0.36642 0.0
O45 O 0.18068 0.89679 0.3702 0.0
O46 O 0.27449 0.88547 0.36605 0.0
O47 O 0.20941 0.95047 0.39012 0.0
O48 O 0.24569 0.93496 0.37939 0.0
C49 C 0.19185 0.87818 0.36131 0.0
C50 C 0.2267 0.88948 0.4372 0.0
O51 O 0.2451 0.88722 0.42224 0.0
O52 O 0.20644 0.89927 0.4297 0.0
C53 C 0.27688 0.86421 0.35561 0.0
O54 O 0.25987 0.84656 0.35963 0.0
C55 C 0.23152 0.95378 0.38239 0.0
Zn56 Zn 0.06764 0.78492 0.58189 0.0
Zn57 Zn 0.08343 0.7419 0.59429 0.0
O58 O 0.10703 0.76849 0.61201 0.0
O59 O 0.08702 0.80386 0.6074 0.0
O60 O 0.09205 0.70893 0.61179 0.0
O61 O 0.03146 0.77904 0.58722 0.0
O62 O 0.04463 0.74254 0.60045 0.0
C63 C 0.10511 0.79186 0.61663 0.0
C64 C 0.09105 0.75804 0.54106 0.0
O65 O 0.0918 0.7396 0.55634 0.0
O66 O 0.08272 0.77897 0.54812 0.0
C67 C 0.11219 0.70565 0.62431 0.0
O68 O 0.12989 0.72309 0.62357 0.0
C69 C 0.02671 0.75774 0.59653 0.0
Zn70 Zn 0.28298 0.08566 0.59293 0.0
Zn71 Zn 0.24191 0.10869 0.60029 0.0
O72 O 0.26639 0.12473 0.62667 0.0
O73 O 0.30179 0.10671 0.6166 0.0
O74 O 0.20991 0.12844 0.60436 0.0
O75 O 0.28543 0.09549 0.5577 0.0
O76 O 0.25126 0.1173 0.5635 0.0
C77 C 0.29004 0.12245 0.62935 0.0
C78 C 0.24535 0.05103 0.60712 0.0
O79 O 0.23209 0.07083 0.60623 0.0
O80 O 0.26866 0.05257 0.603 0.0
C81 C 0.20367 0.13944 0.62438 0.0
O82 O 0.21768 0.13668 0.6445 0.0
C83 C 0.26921 0.11051 0.54955 0.0
Zn84 Zn 0.90016 0.18607 0.57478 0.0
Zn85 Zn 0.88274 0.22909 0.58999 0.0
O86 O 0.85866 0.202 0.60427 0.0
O87 O 0.87714 0.16631 0.59691 0.0
O88 O 0.87184 0.25945 0.60914 0.0
O89 O 0.93568 0.19305 0.58549 0.0
O90 O 0.92069 0.22868 0.59876 0.0
C91 C 0.85935 0.17824 0.60652 0.0
C92 C 0.8798 0.21886 0.53512 0.0
O93 O 0.87706 0.23519 0.55221 0.0
O94 O 0.8881 0.19731 0.54043 0.0
C95 C 0.85088 0.27046 0.60791 0.0
O96 O 0.83391 0.26331 0.59133 0.0
C97 C 0.93919 0.21408 0.5959 0.0
Zn98 Zn 0.67565 0.88796 0.56809 0.0
Zn99 Zn 0.71826 0.87307 0.59063 0.0
O100 O 0.68946 0.85756 0.61098 0.0
O101 O 0.65452 0.86802 0.59172 0.0
O102 O 0.74915 0.85799 0.6057 0.0
O103 O 0.68673 0.87338 0.53547 0.0
O104 O 0.72259 0.86425 0.55379 0.0
C105 C 0.66556 0.85708 0.60957 0.0
C106 C 0.70682 0.92814 0.59018 0.0
O107 O 0.72157 0.91054 0.59624 0.0
O108 O 0.68662 0.92336 0.57824 0.0
C109 C 0.77035 0.86314 0.59606 0.0
O110 O 0.77152 0.88005 0.57821 0.0
C111 C 0.70877 0.865 0.53435 0.0
Zn112 Zn 0.38646 0.08395 0.18024 0.0
Zn113 Zn 0.36738 0.09045 0.22527 0.0
O114 O 0.34944 0.11668 0.20426 0.0
O115 O 0.36269 0.10933 0.16628 0.0
O116 O 0.35215 0.09838 0.25795 0.0
O117 O 0.3749 0.048 0.18153 0.0
O118 O 0.35837 0.05308 0.21869 0.0
C119 C 0.34888 0.12129 0.18103 0.0
C120 C 0.42382 0.09891 0.21677 0.0
O121 O 0.4049 0.09753 0.23109 0.0
O122 O 0.42104 0.09441 0.19366 0.0
C123 C 0.35771 0.11923 0.26824 0.0
O124 O 0.37464 0.13424 0.25818 0.0
C125 C 0.36288 0.03919 0.19995 0.0
Zn126 Zn 0.91677 0.38401 0.18392 0.0
Zn127 Zn 0.89776 0.3767 0.22786 0.0
O128 O 0.87154 0.3638 0.20148 0.0
O129 O 0.88986 0.36541 0.16495 0.0
O130 O 0.88657 0.36121 0.26081 0.0
O131 O 0.95105 0.37037 0.19074 0.0
O132 O 0.9353 0.36694 0.22825 0.0
C133 C 0.87063 0.36044 0.17786 0.0
C134 C 0.9011 0.42953 0.21139 0.0
O135 O 0.8951 0.41496 0.22939 0.0
O136 O 0.9102 0.42059 0.19154 0.0
C137 C 0.89983 0.36517 0.28037 0.0
O138 O 0.91833 0.38175 0.27916 0.0
C139 C 0.95393 0.36516 0.21362 0.0
Zn140 Zn 0.55761 0.8948 0.29918 0.0
Zn141 Zn 0.57732 0.88308 0.25536 0.0
O142 O 0.59914 0.86737 0.28274 0.0
O143 O 0.57988 0.87147 0.31844 0.0
O144 O 0.59217 0.86762 0.22465 0.0
O145 O 0.52294 0.88387 0.28825 0.0
O146 O 0.53966 0.87373 0.25237 0.0
C147 C 0.59795 0.86302 0.30604 0.0
C148 C 0.57969 0.93705 0.27017 0.0
O149 O 0.58309 0.92113 0.25288 0.0
O150 O 0.57028 0.93016 0.29084 0.0
C151 C 0.59814 0.84458 0.2256 0.0
O152 O 0.59416 0.832 0.24634 0.0
C153 C 0.52047 0.87533 0.26634 0.0
Zn154 Zn 0.09085 0.58413 0.29836 0.0
Zn155 Zn 0.11187 0.5943 0.25499 0.0
O156 O 0.12596 0.62213 0.27912 0.0
O157 O 0.11146 0.61017 0.31579 0.0
O158 O 0.12953 0.59877 0.22167 0.0
O159 O 0.1019 0.54875 0.29864 0.0
O160 O 0.11936 0.55675 0.26237 0.0
C161 C 0.12435 0.62527 0.30273 0.0
C162 C 0.05523 0.59919 0.26044 0.0
O163 O 0.07468 0.6 0.24676 0.0
O164 O 0.05726 0.5932 0.28328 0.0
C165 C 0.13819 0.61879 0.21175 0.0
O166 O 0.13627 0.64012 0.22375 0.0
C167 C 0.11431 0.54149 0.28009 0.0
Zn168 Zn 0.40531 0.88418 0.68194 0.0
Zn169 Zn 0.38593 0.87664 0.72586 0.0
O170 O 0.36021 0.86356 0.69902 0.0
O171 O 0.37976 0.86378 0.66303 0.0
O172 O 0.37504 0.86023 0.75855 0.0
O173 O 0.43983 0.87169 0.68931 0.0
O174 O 0.42346 0.86708 0.72642 0.0
C175 C 0.36023 0.85909 0.67557 0.0
C176 C 0.38813 0.92945 0.7093 0.0
O177 O 0.38301 0.91495 0.72764 0.0
O178 O 0.3971 0.92058 0.68935 0.0
C179 C 0.38813 0.86422 0.77822 0.0
O180 O 0.40567 0.88186 0.77758 0.0
C181 C 0.44234 0.86585 0.71207 0.0
Zn182 Zn 0.06344 0.39469 0.78666 0.0
Zn183 Zn 0.08216 0.38967 0.74066 0.0
O184 O 0.10418 0.36914 0.76423 0.0
O185 O 0.08669 0.36881 0.80111 0.0
O186 O 0.09546 0.37956 0.70716 0.0
O187 O 0.02861 0.38486 0.7751 0.0
O188 O 0.04445 0.38066 0.73763 0.0
C189 C 0.10382 0.36159 0.78672 0.0
C190 C 0.0842 0.44099 0.76319 0.0
O191 O 0.08786 0.4275 0.74401 0.0
O192 O 0.0751 0.43123 0.78286 0.0
C193 C 0.11616 0.36836 0.70418 0.0
O194 O 0.13152 0.36539 0.72321 0.0
C195 C 0.02562 0.3798 0.75218 0.0
Zn196 Zn 0.58858 0.08492 0.79433 0.0
Zn197 Zn 0.60705 0.09656 0.75069 0.0
O198 O 0.62187 0.12326 0.77591 0.0
O199 O 0.61029 0.10913 0.81283 0.0
O200 O 0.62399 0.10368 0.7173 0.0
O201 O 0.59844 0.04937 0.7922 0.0
O202 O 0.6143 0.05848 0.75546 0.0
C203 C 0.62209 0.12505 0.79974 0.0
C204 C 0.55091 0.10137 0.75923 0.0
O205 O 0.56944 0.10219 0.74429 0.0
O206 O 0.55433 0.09517 0.78184 0.0
C207 C 0.61647 0.0911 0.69837 0.0
O208 O 0.59754 0.07524 0.70121 0.0
C209 C 0.60946 0.04253 0.77263 0.0
Zn210 Zn 0.894 0.59476 0.68069 0.0
Zn211 Zn 0.87499 0.5995 0.72584 0.0
O212 O 0.85547 0.62523 0.70549 0.0
O213 O 0.86892 0.61913 0.66731 0.0
O214 O 0.85909 0.60572 0.75855 0.0
O215 O 0.88386 0.55833 0.6811 0.0
O216 O 0.86704 0.56209 0.7183 0.0
C217 C 0.85446 0.62996 0.6823 0.0
C218 C 0.93108 0.61024 0.71726 0.0
O219 O 0.91241 0.60774 0.73183 0.0
O220 O 0.92813 0.60636 0.69407 0.0
C221 C 0.86294 0.6265 0.76962 0.0
O222 O 0.87921 0.64288 0.76063 0.0
C223 C 0.87196 0.54879 0.69925 0.0
Zn224 Zn 0.17499 0.3834 0.07142 0.0
Zn225 Zn 0.22097 0.36746 0.08344 0.0
O226 O 0.19805 0.35249 0.11044 0.0
O227 O 0.15984 0.36254 0.0985 0.0
O228 O 0.25502 0.3533 0.09019 0.0
O229 O 0.17802 0.36977 0.03689 0.0
O230 O 0.21598 0.35746 0.0468 0.0
C231 C 0.1744 0.35195 0.11387 0.0
C232 C 0.2102 0.42302 0.08612 0.0
O233 O 0.2255 0.40502 0.08803 0.0
O234 O 0.18762 0.41871 0.07949 0.0
C235 C 0.26591 0.35077 0.11122 0.0
O236 O 0.25446 0.35786 0.13159 0.0
C237 C 0.19835 0.35958 0.0308 0.0
Zn238 Zn 0.28866 0.57276 0.89608 0.0
Zn239 Zn 0.24752 0.58732 0.87325 0.0
O240 O 0.27543 0.61181 0.86028 0.0
O241 O 0.31014 0.59506 0.87474 0.0
O242 O 0.2177 0.59683 0.8517 0.0
O243 O 0.28385 0.53655 0.88681 0.0
O244 O 0.25052 0.549 0.86606 0.0
C245 C 0.29934 0.61146 0.86158 0.0
C246 C 0.2511 0.59347 0.92933 0.0
O247 O 0.23722 0.59415 0.90982 0.0
O248 O 0.2736 0.58624 0.92799 0.0
C249 C 0.20528 0.61684 0.85413 0.0
O250 O 0.21139 0.6326 0.87208 0.0
C251 C 0.26523 0.53146 0.8728 0.0
Zn252 Zn 0.40562 0.18525 0.89569 0.0
Zn253 Zn 0.38029 0.22434 0.87994 0.0
O254 O 0.36702 0.19465 0.85773 0.0
O255 O 0.38708 0.16233 0.87327 0.0
O256 O 0.35937 0.25465 0.8711 0.0
O257 O 0.39362 0.18888 0.93034 0.0
O258 O 0.37235 0.22161 0.91751 0.0
C259 C 0.37133 0.17111 0.85797 0.0
C260 C 0.43763 0.22326 0.87498 0.0
O261 O 0.41713 0.23517 0.87276 0.0
O262 O 0.43761 0.20136 0.88412 0.0
C263 C 0.34506 0.25764 0.85223 0.0
O264 O 0.34385 0.24008 0.83507 0.0
C265 C 0.37877 0.20651 0.93476 0.0
Zn266 Zn 0.70051 0.41407 0.88917 0.0
Zn267 Zn 0.74261 0.39606 0.87668 0.0
O268 O 0.71423 0.37388 0.86016 0.0
O269 O 0.67975 0.39526 0.86466 0.0
O270 O 0.7739 0.38628 0.85749 0.0
O271 O 0.70781 0.44991 0.88307 0.0
O272 O 0.74402 0.43487 0.87152 0.0
C273 C 0.6908 0.37652 0.8559 0.0
C274 C 0.72815 0.38931 0.92993 0.0
O275 O 0.74605 0.3872 0.91437 0.0
O276 O 0.70757 0.39891 0.92308 0.0
C277 C 0.77624 0.36575 0.84567 0.0
O278 O 0.75898 0.34807 0.84831 0.0
C279 C 0.72967 0.45351 0.87476 0.0
Zn280 Zn 0.59566 0.78978 0.89924 0.0
Zn281 Zn 0.61325 0.74526 0.89054 0.0
O282 O 0.63137 0.76802 0.86483 0.0
O283 O 0.61996 0.80571 0.87612 0.0
O284 O 0.62993 0.71216 0.88489 0.0
O285 O 0.60483 0.78859 0.93505 0.0
O286 O 0.6207 0.75143 0.92826 0.0
C287 C 0.63289 0.79174 0.86243 0.0
C288 C 0.5575 0.75526 0.88145 0.0
O289 O 0.57562 0.73989 0.88234 0.0
O290 O 0.56137 0.77804 0.88721 0.0
C291 C 0.63616 0.70462 0.86333 0.0
O292 O 0.62938 0.71772 0.84366 0.0
C293 C 0.6161 0.76947 0.94304 0.0
Zn294 Zn 0.78796 0.58192 0.08892 0.0
Zn295 Zn 0.74594 0.602 0.09826 0.0
O296 O 0.77051 0.61885 0.12404 0.0
O297 O 0.80669 0.60416 0.11165 0.0
O298 O 0.71318 0.62 0.10418 0.0
O299 O 0.78817 0.5918 0.05368 0.0
O300 O 0.75314 0.61164 0.06121 0.0
C301 C 0.79441 0.6185 0.1255 0.0
C302 C 0.75332 0.54471 0.10431 0.0
O303 O 0.73876 0.56358 0.10404 0.0
O304 O 0.77635 0.54787 0.09942 0.0
C305 C 0.70642 0.62801 0.12543 0.0
O306 O 0.72025 0.62278 0.14513 0.0
C307 C 0.77079 0.60594 0.04642 0.0
Zn308 Zn 0.4026 0.68167 0.07301 0.0
Zn309 Zn 0.38594 0.72411 0.0899 0.0
O310 O 0.36185 0.69661 0.10356 0.0
O311 O 0.37998 0.66109 0.09472 0.0
O312 O 0.37524 0.75372 0.11035 0.0
O313 O 0.43834 0.68782 0.08316 0.0
O314 O 0.4241 0.72314 0.09805 0.0
C315 C 0.36242 0.67279 0.105 0.0
C316 C 0.38203 0.71586 0.03478 0.0
O317 O 0.37975 0.73167 0.05244 0.0
O318 O 0.39015 0.69406 0.0393 0.0
C319 C 0.35361 0.76344 0.1106 0.0
O320 O 0.3361 0.75551 0.09493 0.0
C321 C 0.44234 0.70841 0.09425 0.0
Zn322 Zn 0.576 0.28394 0.08542 0.0
Zn323 Zn 0.58932 0.23933 0.09578 0.0
O324 O 0.61625 0.26346 0.11225 0.0
O325 O 0.59869 0.30035 0.11007 0.0
O326 O 0.59547 0.20523 0.11238 0.0
O327 O 0.53984 0.28119 0.09294 0.0
O328 O 0.55114 0.24332 0.10391 0.0
C329 C 0.61645 0.28679 0.11756 0.0
C330 C 0.59486 0.25604 0.04254 0.0
O331 O 0.59536 0.2372 0.05736 0.0
O332 O 0.58835 0.27729 0.05059 0.0
C333 C 0.61492 0.2 0.1253 0.0
O334 O 0.63387 0.2161 0.12566 0.0
C335 C 0.53418 0.25991 0.10179 0.0
Zn336 Zn 0.8811 0.69712 0.57917 0.0
Zn337 Zn 0.86671 0.74286 0.58638 0.0
O338 O 0.84646 0.7224 0.61256 0.0
O339 O 0.85529 0.68377 0.60196 0.0
O340 O 0.85353 0.77777 0.58997 0.0
O341 O 0.87265 0.69789 0.54332 0.0
O342 O 0.85895 0.73612 0.54895 0.0
C343 C 0.84313 0.69885 0.61517 0.0
C344 C 0.92149 0.72876 0.59602 0.0
O345 O 0.90459 0.74539 0.59431 0.0
O346 O 0.91602 0.70605 0.59131 0.0
C347 C 0.84428 0.78633 0.60994 0.0
O348 O 0.84472 0.77251 0.63029 0.0
C349 C 0.8626 0.71742 0.53474 0.0
Zn350 Zn 0.18351 0.90726 0.58177 0.0
Zn351 Zn 0.22687 0.8923 0.59839 0.0
O352 O 0.20084 0.86717 0.61335 0.0
O353 O 0.1646 0.88449 0.60489 0.0
O354 O 0.25824 0.88264 0.6173 0.0
O355 O 0.18883 0.94334 0.59084 0.0
O356 O 0.22459 0.93047 0.60657 0.0
C357 C 0.17704 0.86744 0.61547 0.0
C358 C 0.21678 0.88733 0.5433 0.0
O359 O 0.23311 0.88607 0.56082 0.0
O360 O 0.19474 0.89457 0.54798 0.0
C361 C 0.27084 0.86287 0.61413 0.0
O362 O 0.26437 0.84718 0.59622 0.0
C363 C 0.20919 0.94815 0.60228 0.0
Zn364 Zn 0.073 0.29404 0.57743 0.0
Zn365 Zn 0.09723 0.25448 0.59365 0.0
O366 O 0.10982 0.28342 0.6171 0.0
O367 O 0.09059 0.31617 0.60142 0.0
O368 O 0.11767 0.2239 0.60224 0.0
O369 O 0.08654 0.29128 0.54326 0.0
O370 O 0.10626 0.25772 0.55639 0.0
C371 C 0.10547 0.30694 0.61733 0.0
C372 C 0.03986 0.25557 0.59607 0.0
O373 O 0.06024 0.24375 0.59953 0.0
O374 O 0.04042 0.27752 0.587 0.0
C375 C 0.12925 0.21859 0.62237 0.0
O376 O 0.12779 0.23385 0.6415 0.0
C377 C 0.10099 0.27325 0.53912 0.0
Zn378 Zn 0.76948 0.06995 0.57421 0.0
Zn379 Zn 0.72829 0.08902 0.58806 0.0
O380 O 0.75743 0.11074 0.60375 0.0
O381 O 0.79135 0.08888 0.59763 0.0
O382 O 0.69851 0.10091 0.60823 0.0
O383 O 0.76137 0.03456 0.58175 0.0
O384 O 0.72614 0.05046 0.59493 0.0
C385 C 0.78096 0.10771 0.60701 0.0
C386 C 0.74112 0.09412 0.53391 0.0
O387 O 0.72386 0.09695 0.55006 0.0
O388 O 0.76177 0.08433 0.54021 0.0
C389 C 0.67772 0.08879 0.60842 0.0
O390 O 0.67419 0.0707 0.59211 0.0
C391 C 0.73999 0.03152 0.59137 0.0
Zn392 Zn 0.90579 0.19418 0.38858 0.0
Zn393 Zn 0.89192 0.23809 0.37538 0.0
O394 O 0.86603 0.21312 0.35891 0.0
O395 O 0.88384 0.17659 0.36393 0.0
O396 O 0.88414 0.27099 0.35776 0.0
O397 O 0.94213 0.19816 0.38164 0.0
O398 O 0.93022 0.23489 0.36784 0.0
C399 C 0.86623 0.18952 0.35501 0.0
C400 C 0.88484 0.2237 0.4291 0.0
O401 O 0.88475 0.24173 0.41335 0.0
O402 O 0.89206 0.20217 0.42261 0.0
C403 C 0.89878 0.29002 0.35974 0.0
O404 O 0.91766 0.28901 0.37565 0.0
C405 C 0.94752 0.21895 0.37151 0.0
Zn406 Zn 0.70509 0.89765 0.39503 0.0
Zn407 Zn 0.73909 0.87464 0.37684 0.0
O408 O 0.70754 0.86182 0.35729 0.0
O409 O 0.67901 0.87279 0.38419 0.0
O410 O 0.76826 0.8536 0.36504 0.0
O411 O 0.71739 0.89616 0.42999 0.0
O412 O 0.73827 0.86476 0.41447 0.0
C413 C 0.68491 0.86081 0.36486 0.0
C414 C 0.73346 0.93097 0.36751 0.0
O415 O 0.74829 0.91239 0.36919 0.0
O416 O 0.71112 0.9285 0.37493 0.0
C417 C 0.76543 0.83421 0.35139 0.0
O418 O 0.743 0.82876 0.34232 0.0
C419 C 0.73046 0.8769 0.43323 0.0
Zn420 Zn 0.07598 0.79722 0.39468 0.0
Zn421 Zn 0.09482 0.75467 0.37984 0.0
O422 O 0.11791 0.78231 0.3651 0.0
O423 O 0.09815 0.8174 0.37203 0.0
O424 O 0.1067 0.72476 0.3607 0.0
O425 O 0.04069 0.78895 0.38411 0.0
O426 O 0.0569 0.75384 0.37101 0.0
C427 C 0.11616 0.80593 0.36228 0.0
C428 C 0.09716 0.76517 0.43468 0.0
O429 O 0.10058 0.7489 0.41766 0.0
O430 O 0.08838 0.78648 0.42911 0.0
C431 C 0.12716 0.71303 0.36303 0.0
O432 O 0.14277 0.71856 0.3814 0.0
C433 C 0.03789 0.76776 0.37382 0.0
Zn434 Zn 0.30667 0.09362 0.40433 0.0
Zn435 Zn 0.26169 0.11165 0.39152 0.0
O436 O 0.28581 0.12547 0.36494 0.0
O437 O 0.32335 0.11402 0.3777 0.0
O438 O 0.22855 0.12761 0.38427 0.0
O439 O 0.30357 0.10702 0.43897 0.0
O440 O 0.26644 0.12106 0.42834 0.0
C441 C 0.30955 0.1252 0.36206 0.0
C442 C 0.26986 0.05572 0.38858 0.0
O443 O 0.25542 0.07441 0.38656 0.0
O444 O 0.29247 0.05899 0.39566 0.0
C445 C 0.21571 0.12648 0.36418 0.0
O446 O 0.22423 0.11379 0.34514 0.0
C447 C 0.28357 0.118 0.44471 0.0
Zn448 Zn 0.57914 0.89085 0.78854 0.0
Zn449 Zn 0.59869 0.88274 0.74389 0.0
O450 O 0.61971 0.85974 0.76628 0.0
O451 O 0.60471 0.86809 0.80347 0.0
O452 O 0.61102 0.87447 0.70995 0.0
O453 O 0.58917 0.92707 0.78487 0.0
O454 O 0.60651 0.9207 0.74827 0.0
C455 C 0.62018 0.85689 0.78982 0.0
C456 C 0.54248 0.87197 0.75433 0.0
O457 O 0.56138 0.87353 0.74 0.0
O458 O 0.54488 0.87789 0.77712 0.0
C459 C 0.6179 0.85252 0.70417 0.0
O460 O 0.61761 0.83452 0.72096 0.0
C461 C 0.60121 0.93533 0.7662 0.0
Zn462 Zn 0.06974 0.59606 0.78824 0.0
Zn463 Zn 0.08836 0.60172 0.74377 0.0
O464 O 0.11492 0.6147 0.76998 0.0
O465 O 0.09584 0.61684 0.8061 0.0
O466 O 0.09894 0.616 0.70984 0.0
O467 O 0.03517 0.60851 0.78096 0.0
O468 O 0.05089 0.61193 0.74343 0.0
C469 C 0.11537 0.62021 0.79319 0.0
C470 C 0.08578 0.54958 0.7624 0.0
O471 O 0.09051 0.56333 0.74342 0.0
O472 O 0.07744 0.55929 0.78223 0.0
C473 C 0.11178 0.63633 0.70838 0.0
O474 O 0.12078 0.64643 0.72901 0.0
C475 C 0.03227 0.61372 0.75809 0.0
Zn476 Zn 0.41006 0.08471 0.68824 0.0
Zn477 Zn 0.39217 0.08896 0.73471 0.0
O478 O 0.36996 0.1099 0.71172 0.0
O479 O 0.38679 0.11088 0.67454 0.0
O480 O 0.37892 0.09819 0.76857 0.0
O481 O 0.44486 0.09462 0.69956 0.0
O482 O 0.42983 0.09856 0.73741 0.0
C483 C 0.37 0.11793 0.68939 0.0
C484 C 0.38985 0.03797 0.71111 0.0
O485 O 0.38667 0.05109 0.73065 0.0
O486 O 0.39849 0.04811 0.69143 0.0
C487 C 0.35854 0.10989 0.77179 0.0
O488 O 0.34374 0.11454 0.75267 0.0
C489 C 0.4483 0.09972 0.72241 0.0
Zn490 Zn 0.88887 0.39826 0.67392 0.0
Zn491 Zn 0.86816 0.38806 0.71709 0.0
O492 O 0.8541 0.36066 0.69229 0.0
O493 O 0.86765 0.37343 0.65555 0.0
O494 O 0.84923 0.38292 0.74968 0.0
O495 O 0.87914 0.434 0.67412 0.0
O496 O 0.86157 0.42599 0.71033 0.0
C497 C 0.855 0.3581 0.66857 0.0
C498 C 0.92445 0.38204 0.71158 0.0
O499 O 0.90526 0.38187 0.72568 0.0
O500 O 0.92218 0.38791 0.68875 0.0
C501 C 0.84332 0.36215 0.76004 0.0
O502 O 0.84998 0.34115 0.74939 0.0
C503 C 0.86704 0.44137 0.69282 0.0
Zn504 Zn 0.5636 0.0905 0.28764 0.0
Zn505 Zn 0.582 0.09657 0.24332 0.0
O506 O 0.60754 0.11122 0.2698 0.0
O507 O 0.58813 0.11272 0.30578 0.0
O508 O 0.59208 0.1117 0.20956 0.0
O509 O 0.52841 0.10092 0.28031 0.0
O510 O 0.54389 0.10457 0.24268 0.0
C511 C 0.60756 0.11698 0.29297 0.0
C512 C 0.58211 0.04466 0.26228 0.0
O513 O 0.5861 0.05831 0.24306 0.0
O514 O 0.57341 0.05422 0.28203 0.0
C515 C 0.61099 0.12616 0.2059 0.0
O516 O 0.62728 0.12967 0.22419 0.0
C517 C 0.52521 0.10559 0.25738 0.0
Zn518 Zn 0.91552 0.58569 0.18787 0.0
Zn519 Zn 0.89801 0.58973 0.2338 0.0
O520 O 0.87371 0.60954 0.21145 0.0
O521 O 0.89045 0.61006 0.1742 0.0
O522 O 0.88622 0.59873 0.26799 0.0
O523 O 0.95028 0.59724 0.19755 0.0
O524 O 0.93553 0.60006 0.23557 0.0
C525 C 0.87324 0.61668 0.1888 0.0
C526 C 0.89824 0.53837 0.21161 0.0
O527 O 0.89378 0.5518 0.23063 0.0
O528 O 0.90647 0.54855 0.19177 0.0
C529 C 0.86413 0.60617 0.27235 0.0
O530 O 0.84701 0.60539 0.25464 0.0
C531 C 0.95383 0.60196 0.22044 0.0
Zn532 Zn 0.38778 0.8898 0.18123 0.0
Zn533 Zn 0.36412 0.87935 0.22316 0.0
O534 O 0.35187 0.85124 0.19826 0.0
O535 O 0.3685 0.86364 0.16261 0.0
O536 O 0.3442 0.87492 0.25517 0.0
O537 O 0.37619 0.92497 0.18002 0.0
O538 O 0.35644 0.91672 0.21507 0.0
C539 C 0.35483 0.84844 0.17475 0.0
C540 C 0.42111 0.87543 0.22147 0.0
O541 O 0.40082 0.87436 0.23391 0.0
O542 O 0.42044 0.88119 0.1985 0.0
C543 C 0.34203 0.8556 0.26904 0.0
O544 O 0.3532 0.83485 0.26258 0.0
C545 C 0.36236 0.932 0.19763 0.0
Zn546 Zn 0.09058 0.38796 0.29314 0.0
Zn547 Zn 0.1103 0.38325 0.24829 0.0
O548 O 0.1292 0.35754 0.26906 0.0
O549 O 0.11562 0.36384 0.3071 0.0
O550 O 0.12679 0.37649 0.21604 0.0
O551 O 0.10032 0.42448 0.29256 0.0
O552 O 0.11786 0.42073 0.25569 0.0
C553 C 0.13003 0.35277 0.29224 0.0
C554 C 0.05431 0.37179 0.25591 0.0
O555 O 0.07315 0.3747 0.24163 0.0
O556 O 0.0568 0.3757 0.27914 0.0
C557 C 0.12349 0.35505 0.2061 0.0
O558 O 0.10729 0.33894 0.21567 0.0
C559 C 0.11243 0.43407 0.27457 0.0
Zn560 Zn 0.8046 0.59214 0.90032 0.0
Zn561 Zn 0.76023 0.61125 0.88779 0.0
O562 O 0.78512 0.62626 0.86237 0.0
O563 O 0.82222 0.61384 0.87551 0.0
O564 O 0.72755 0.6284 0.88114 0.0
O565 O 0.80141 0.60371 0.93545 0.0
O566 O 0.76464 0.6189 0.92513 0.0
C567 C 0.80895 0.62608 0.86024 0.0
C568 C 0.76772 0.55539 0.88229 0.0
O569 O 0.7534 0.57424 0.88099 0.0
O570 O 0.79029 0.55821 0.88967 0.0
C571 C 0.71749 0.63346 0.86017 0.0
O572 O 0.72868 0.62663 0.83957 0.0
C573 C 0.78159 0.61484 0.94145 0.0
Zn574 Zn 0.69428 0.40013 0.07886 0.0
Zn575 Zn 0.73881 0.38514 0.09135 0.0
O576 O 0.71402 0.35915 0.10738 0.0
O577 O 0.67722 0.37659 0.10247 0.0
O578 O 0.7723 0.37413 0.10564 0.0
O579 O 0.70021 0.43567 0.08906 0.0
O580 O 0.73723 0.42298 0.10176 0.0
C581 C 0.69049 0.35929 0.11146 0.0
C582 C 0.72382 0.38287 0.0368 0.0
O583 O 0.74146 0.38108 0.05296 0.0
O584 O 0.70211 0.38933 0.04356 0.0
C585 C 0.77377 0.36814 0.12864 0.0
O586 O 0.75353 0.36953 0.14238 0.0
C587 C 0.72122 0.44046 0.09926 0.0
Zn588 Zn 0.58036 0.78666 0.08802 0.0
Zn589 Zn 0.60151 0.74462 0.1008 0.0
O590 O 0.611 0.76983 0.12937 0.0
O591 O 0.59584 0.80559 0.11592 0.0
O592 O 0.62161 0.71325 0.10744 0.0
O593 O 0.59593 0.78818 0.05462 0.0
O594 O 0.61294 0.75221 0.06458 0.0
C595 C 0.60755 0.79331 0.13238 0.0
C596 C 0.54458 0.7469 0.09922 0.0
O597 O 0.5642 0.73384 0.10256 0.0
O598 O 0.54667 0.7698 0.09309 0.0
C599 C 0.62996 0.7052 0.12824 0.0
O600 O 0.62458 0.71734 0.14876 0.0
C601 C 0.60947 0.76987 0.04892 0.0
Zn602 Zn 0.27167 0.5659 0.06992 0.0
Zn603 Zn 0.23058 0.58367 0.08772 0.0
O604 O 0.26019 0.60494 0.10318 0.0
O605 O 0.29423 0.5851 0.09245 0.0
O606 O 0.20075 0.59333 0.10913 0.0
O607 O 0.26471 0.53032 0.07748 0.0
O608 O 0.22968 0.54487 0.09277 0.0
C609 C 0.28398 0.6026 0.10421 0.0
C610 C 0.23985 0.59067 0.03286 0.0
O611 O 0.22408 0.59318 0.05049 0.0
O612 O 0.26089 0.58064 0.03697 0.0
C613 C 0.19989 0.61315 0.12232 0.0
O614 O 0.21761 0.63038 0.11971 0.0
C615 C 0.24393 0.52648 0.08808 0.0
Zn616 Zn 0.39136 0.19647 0.08545 0.0
Zn617 Zn 0.37364 0.24103 0.09083 0.0
O618 O 0.35267 0.21983 0.11589 0.0
O619 O 0.36587 0.18188 0.10768 0.0
O620 O 0.35768 0.27476 0.09372 0.0
O621 O 0.3838 0.19564 0.04941 0.0
O622 O 0.36733 0.23298 0.05339 0.0
C623 C 0.35125 0.1962 0.11908 0.0
C624 C 0.42922 0.23059 0.10234 0.0
O625 O 0.41132 0.24609 0.10001 0.0
O626 O 0.42518 0.20753 0.09806 0.0
C627 C 0.35003 0.28351 0.1143 0.0
O628 O 0.35492 0.27127 0.13505 0.0
C629 C 0.37243 0.21403 0.04001 0.0
Zn630 Zn 0.19436 0.39334 0.88359 0.0
Zn631 Zn 0.2347 0.37027 0.87392 0.0
O632 O 0.20866 0.35508 0.84834 0.0
O633 O 0.17387 0.37249 0.86112 0.0
O634 O 0.26636 0.35014 0.86851 0.0
O635 O 0.19365 0.38359 0.91891 0.0
O636 O 0.22693 0.36114 0.91097 0.0
C637 C 0.18486 0.35719 0.84721 0.0
C638 C 0.23129 0.42801 0.86783 0.0
O639 O 0.2446 0.40823 0.8682 0.0
O640 O 0.20814 0.42642 0.87272 0.0
C641 C 0.27061 0.33685 0.84933 0.0
O642 O 0.25462 0.33732 0.83052 0.0
C643 C 0.20994 0.36811 0.92595 0.0
Zn644 Zn 0.57586 0.29515 0.89563 0.0
Zn645 Zn 0.59449 0.25245 0.88063 0.0
O646 O 0.61753 0.27987 0.86526 0.0
O647 O 0.59802 0.31502 0.87264 0.0
O648 O 0.6057 0.2222 0.86154 0.0
O649 O 0.54045 0.28694 0.88527 0.0
O650 O 0.55652 0.25182 0.87204 0.0
C651 C 0.61577 0.30349 0.86248 0.0
C652 C 0.59729 0.26317 0.93554 0.0
O653 O 0.60062 0.24688 0.9185 0.0
O654 O 0.58844 0.28446 0.93 0.0
C655 C 0.62673 0.2113 0.86228 0.0
O656 O 0.64399 0.2184 0.87858 0.0
C657 C 0.53756 0.26579 0.87493 0.0
Zn658 Zn 0.41295 0.69514 0.88997 0.0
Zn659 Zn 0.39622 0.73709 0.87585 0.0
O660 O 0.37282 0.70891 0.86017 0.0
O661 O 0.39324 0.67403 0.86645 0.0
O662 O 0.38514 0.76821 0.85659 0.0
O663 O 0.44895 0.70122 0.88373 0.0
O664 O 0.43536 0.73752 0.87025 0.0
C665 C 0.37472 0.68525 0.85709 0.0
C666 C 0.38907 0.72379 0.92952 0.0
O667 O 0.3876 0.74139 0.91338 0.0
O668 O 0.39828 0.70288 0.9236 0.0
C669 C 0.39744 0.7889 0.85693 0.0
O670 O 0.41698 0.79108 0.87199 0.0
C671 C 0.45346 0.72252 0.87434 0.0
C672 C 0.15698 0.33431 0.32464 0.0
C673 C 0.14423 0.33147 0.30177 0.0
C674 C 0.15875 0.31409 0.34115 0.0
C675 C 0.14679 0.29107 0.33542 0.0
H676 H 0.16242 0.35285 0.33123 0.0
H677 H 0.16516 0.31784 0.36007 0.0
S678 S 0.1197 0.27221 0.27437 0.0
N679 N 0.12664 0.30238 0.27116 0.0
N680 N 0.12907 0.26446 0.30282 0.0
C681 C 0.13912 0.2867 0.31068 0.0
C682 C 0.13774 0.30719 0.29364 0.0
C683 C 0.67499 0.11066 0.31395 0.0
C684 C 0.67523 0.12198 0.33768 0.0
C685 C 0.65363 0.11128 0.29844 0.0
C686 C 0.63147 0.12276 0.30631 0.0
H687 H 0.69122 0.10062 0.30754 0.0
H688 H 0.65399 0.10118 0.28092 0.0
S689 S 0.62308 0.15723 0.36568 0.0
N690 N 0.65216 0.14702 0.36731 0.0
N691 N 0.61174 0.14751 0.3385 0.0
C692 C 0.6319 0.13533 0.3294 0.0
C693 C 0.65384 0.13511 0.345 0.0
C694 C 0.87352 0.62942 0.33767 0.0
C695 C 0.86491 0.65429 0.33614 0.0
C696 C 0.87144 0.61316 0.31738 0.0
C697 C 0.86005 0.62084 0.29506 0.0
H698 H 0.88352 0.62285 0.35406 0.0
H699 H 0.88 0.5949 0.31873 0.0
S700 S 0.83028 0.68207 0.2827 0.0
N701 N 0.84163 0.68458 0.31141 0.0
N702 N 0.83713 0.65352 0.27332 0.0
C703 C 0.84901 0.6446 0.294 0.0
C704 C 0.85155 0.66146 0.31458 0.0
C705 C 0.32123 0.88043 0.30249 0.0
C706 C 0.32698 0.85689 0.29232 0.0
C707 C 0.3061 0.88251 0.32367 0.0
C708 C 0.29571 0.86115 0.33547 0.0
H709 H 0.32826 0.89753 0.29386 0.0
H710 H 0.3018 0.90113 0.33025 0.0
S711 S 0.30616 0.79498 0.31732 0.0
N712 N 0.32211 0.81162 0.2966 0.0
N713 N 0.29336 0.81555 0.33614 0.0
C714 C 0.30188 0.83744 0.32598 0.0
C715 C 0.31759 0.8353 0.30453 0.0
C716 C 0.13235 0.66955 0.68219 0.0
C717 C 0.11372 0.65066 0.68454 0.0
C718 C 0.13251 0.68619 0.66187 0.0
C719 C 0.11382 0.68498 0.64309 0.0
H720 H 0.14656 0.67205 0.69663 0.0
H721 H 0.14682 0.70088 0.66159 0.0
S722 S 0.06216 0.63739 0.63903 0.0
N723 N 0.0772 0.63039 0.66517 0.0
N724 N 0.0773 0.66187 0.62713 0.0
C725 C 0.09582 0.66533 0.64447 0.0
C726 C 0.09583 0.64813 0.66511 0.0
C727 C 0.30237 0.12609 0.67324 0.0
C728 C 0.3045 0.13547 0.64885 0.0
C729 C 0.32381 0.12371 0.68839 0.0
C730 C 0.34771 0.13066 0.67932 0.0
H731 H 0.28506 0.11698 0.67914 0.0
H732 H 0.32199 0.1133 0.70568 0.0
S733 S 0.36098 0.16457 0.62039 0.0
N734 N 0.33054 0.15812 0.61916 0.0
N735 N 0.37096 0.15361 0.64753 0.0
C736 C 0.34907 0.14437 0.65699 0.0
C737 C 0.32725 0.14698 0.64178 0.0
C738 C 0.8557 0.29064 0.64966 0.0
C739 C 0.8463 0.29157 0.62502 0.0
C740 C 0.85546 0.31181 0.66514 0.0
C741 C 0.8464 0.33478 0.65623 0.0
H742 H 0.86433 0.27372 0.65665 0.0
H743 H 0.8645 0.31077 0.68332 0.0
S744 S 0.81727 0.34634 0.59422 0.0
N745 N 0.82518 0.31652 0.59344 0.0
N746 N 0.82576 0.35668 0.62217 0.0
C747 C 0.8354 0.33548 0.63228 0.0
C748 C 0.83508 0.31375 0.61673 0.0
C749 C 0.62726 0.86037 0.63524 0.0
C750 C 0.65078 0.84932 0.63155 0.0
C751 C 0.61602 0.86006 0.65867 0.0
C752 C 0.62748 0.84808 0.67901 0.0
H753 H 0.61839 0.87118 0.62056 0.0
H754 H 0.59881 0.87029 0.66116 0.0
S755 S 0.68639 0.81213 0.67811 0.0
N756 N 0.6834 0.82314 0.64939 0.0
N757 N 0.66164 0.82193 0.69344 0.0
C758 C 0.64953 0.83466 0.67505 0.0
C759 C 0.66134 0.83541 0.65126 0.0
C760 C 0.31896 0.12167 0.29322 0.0
C761 C 0.34487 0.1264 0.29117 0.0
C762 C 0.30679 0.12455 0.31602 0.0
C763 C 0.32038 0.1315 0.33763 0.0
H764 H 0.30822 0.11466 0.27734 0.0
H765 H 0.28715 0.11904 0.31714 0.0
S766 S 0.38796 0.14921 0.34111 0.0
N767 N 0.38316 0.14139 0.31159 0.0
N768 N 0.36049 0.1458 0.35494 0.0
C769 C 0.34592 0.13815 0.33534 0.0
C770 C 0.35816 0.13581 0.31193 0.0
C771 C 0.88019 0.30964 0.32115 0.0
C772 C 0.89687 0.31131 0.34169 0.0
C773 C 0.88041 0.32776 0.30203 0.0
C774 C 0.89728 0.34841 0.30262 0.0
H775 H 0.86745 0.29369 0.31924 0.0
H776 H 0.86785 0.32497 0.28622 0.0
S777 S 0.94274 0.36329 0.3538 0.0
N778 N 0.92923 0.33662 0.36249 0.0
N779 N 0.92952 0.37064 0.32684 0.0
C780 C 0.91306 0.35109 0.32378 0.0
C781 C 0.9129 0.33258 0.3432 0.0
C782 C 0.66579 0.85407 0.3229 0.0
C783 C 0.66436 0.85097 0.3489 0.0
C784 C 0.64387 0.85495 0.30827 0.0
C785 C 0.62 0.85283 0.31931 0.0
H786 H 0.68359 0.85863 0.31418 0.0
H787 H 0.64569 0.85992 0.28873 0.0
S788 S 0.60707 0.83594 0.3852 0.0
N789 N 0.63791 0.83941 0.38401 0.0
N790 N 0.59667 0.84114 0.35654 0.0
C791 C 0.61867 0.84578 0.34456 0.0
C792 C 0.64094 0.8448 0.35938 0.0
C793 C 0.14152 0.64804 0.33976 0.0
C794 C 0.13275 0.64881 0.31486 0.0
C795 C 0.14162 0.66952 0.35485 0.0
C796 C 0.13226 0.69226 0.3457 0.0
H797 H 0.14674 0.63032 0.34811 0.0
H798 H 0.14718 0.66781 0.37428 0.0
S799 S 0.11039 0.70497 0.281 0.0
N800 N 0.11735 0.67489 0.28098 0.0
N801 N 0.11683 0.71512 0.30951 0.0
C802 C 0.12528 0.69374 0.32034 0.0
C803 C 0.12577 0.67204 0.30484 0.0
C804 C 0.31425 0.86551 0.67061 0.0
C805 C 0.33628 0.85442 0.66191 0.0
C806 C 0.29293 0.86746 0.65522 0.0
C807 C 0.29261 0.85791 0.63074 0.0
H808 H 0.31397 0.87433 0.68881 0.0
H809 H 0.2768 0.87718 0.66235 0.0
S810 S 0.34434 0.82421 0.60021 0.0
N811 N 0.35576 0.83182 0.62801 0.0
N812 N 0.31538 0.83482 0.59935 0.0
C813 C 0.31383 0.8451 0.62246 0.0
C814 C 0.33574 0.84353 0.63798 0.0
C815 C 0.11011 0.364 0.65854 0.0
C816 C 0.1199 0.35439 0.68088 0.0
C817 C 0.10779 0.34898 0.63732 0.0
C818 C 0.1146 0.32351 0.6378 0.0
H819 H 0.10297 0.38291 0.65779 0.0
H820 H 0.099 0.35708 0.62094 0.0
S821 S 0.14499 0.29058 0.69085 0.0
N822 N 0.13966 0.31901 0.70154 0.0
N823 N 0.13473 0.29042 0.66165 0.0
C824 C 0.12654 0.31432 0.6594 0.0
C825 C 0.12929 0.32986 0.68099 0.0
C826 C 0.66672 0.10705 0.65018 0.0
C827 C 0.65999 0.09177 0.62963 0.0
C828 C 0.65215 0.10738 0.67195 0.0
C829 C 0.63016 0.09248 0.67415 0.0
H830 H 0.6839 0.11822 0.64989 0.0
H831 H 0.65864 0.11888 0.68743 0.0
S832 S 0.60277 0.05111 0.62476 0.0
N833 N 0.62865 0.06282 0.61227 0.0
N834 N 0.60138 0.06344 0.65294 0.0
C835 C 0.62255 0.07805 0.65328 0.0
C836 C 0.6374 0.07771 0.63112 0.0
C837 C 0.84155 0.69404 0.66045 0.0
C838 C 0.83068 0.68813 0.63712 0.0
C839 C 0.8458 0.675 0.67804 0.0
C840 C 0.83879 0.65008 0.67259 0.0
H841 H 0.8508 0.71208 0.66331 0.0
H842 H 0.8578 0.67915 0.69401 0.0
S843 S 0.8007 0.62781 0.61877 0.0
N844 N 0.80597 0.65792 0.61311 0.0
N845 N 0.81416 0.62205 0.64606 0.0
C846 C 0.82322 0.64532 0.65189 0.0
C847 C 0.81874 0.66465 0.63421 0.0
C848 C 0.29716 0.32527 0.13504 0.0
C849 C 0.28991 0.33714 0.11268 0.0
C850 C 0.31765 0.30909 0.13578 0.0
C851 C 0.33171 0.30421 0.11421 0.0
H852 H 0.2862 0.32747 0.15181 0.0
H853 H 0.32167 0.29942 0.15314 0.0
S854 S 0.32314 0.33427 0.05211 0.0
N855 N 0.30038 0.34553 0.06928 0.0
N856 N 0.33887 0.31527 0.07067 0.0
C857 C 0.32581 0.31751 0.09223 0.0
C858 C 0.30491 0.3339 0.09147 0.0
C859 C 0.3287 0.67564 0.85522 0.0
C860 C 0.35327 0.66961 0.84813 0.0
C861 C 0.30977 0.65696 0.8566 0.0
C862 C 0.315 0.63184 0.85095 0.0
H863 H 0.32476 0.69413 0.86241 0.0
H864 H 0.29189 0.66171 0.86469 0.0
S865 S 0.37419 0.60796 0.82499 0.0
N866 N 0.38012 0.638 0.83032 0.0
N867 N 0.34473 0.60297 0.83331 0.0
C868 C 0.33841 0.6264 0.84066 0.0
C869 C 0.35751 0.64533 0.83907 0.0
C870 C 0.29331 0.30101 0.82994 0.0
C871 C 0.29157 0.31864 0.84938 0.0
C872 C 0.31112 0.28191 0.83067 0.0
C873 C 0.32807 0.27959 0.85084 0.0
H874 H 0.28032 0.30144 0.81426 0.0
H875 H 0.31112 0.2685 0.81551 0.0
S876 S 0.333 0.32233 0.90552 0.0
N877 N 0.30959 0.33351 0.88868 0.0
N878 N 0.34303 0.29777 0.89005 0.0
C879 C 0.32728 0.29775 0.86993 0.0
C880 C 0.30907 0.31719 0.8692 0.0
C881 C 0.6614 0.31256 0.85683 0.0
C882 C 0.63631 0.31839 0.85119 0.0
C883 C 0.68054 0.33088 0.85468 0.0
C884 C 0.67495 0.3554 0.84684 0.0
H885 H 0.66586 0.29481 0.86556 0.0
H886 H 0.69901 0.32664 0.86204 0.0
S887 S 0.61374 0.37718 0.82237 0.0
N888 N 0.60803 0.34817 0.83193 0.0
N889 N 0.64397 0.38249 0.82767 0.0
C890 C 0.65076 0.36 0.8374 0.0
C891 C 0.63135 0.3415 0.83973 0.0
C892 C 0.68259 0.65475 0.88207 0.0
C893 C 0.69458 0.64901 0.85952 0.0
C894 C 0.66288 0.67172 0.88284 0.0
C895 C 0.65425 0.68382 0.86109 0.0
H896 H 0.68892 0.64664 0.89955 0.0
H897 H 0.65499 0.67602 0.90088 0.0
S898 S 0.67719 0.67317 0.79671 0.0
N899 N 0.69485 0.65511 0.81447 0.0
N900 N 0.65775 0.68709 0.81588 0.0
C901 C 0.66504 0.67717 0.83814 0.0
C902 C 0.68519 0.65978 0.83736 0.0
C903 C 0.6545 0.6724 0.10604 0.0
C904 C 0.64758 0.68374 0.12865 0.0
C905 C 0.67278 0.6538 0.10536 0.0
C906 C 0.68506 0.64564 0.12724 0.0
H907 H 0.64621 0.67834 0.0885 0.0
H908 H 0.67779 0.64629 0.08733 0.0
S909 S 0.67219 0.66745 0.19168 0.0
N910 N 0.65327 0.68406 0.1738 0.0
N911 N 0.68758 0.64913 0.17253 0.0
C912 C 0.67756 0.656 0.15015 0.0
C913 C 0.65888 0.675 0.15085 0.0
C914 C 0.3447 0.63321 0.12228 0.0
C915 C 0.34081 0.65807 0.11457 0.0
C916 C 0.32492 0.61567 0.12242 0.0
C917 C 0.30062 0.62237 0.11474 0.0
H918 H 0.36355 0.62668 0.12592 0.0
H919 H 0.32923 0.59619 0.12603 0.0
S920 S 0.27948 0.68642 0.09901 0.0
N921 N 0.31002 0.68969 0.10398 0.0
N922 N 0.27274 0.65648 0.10405 0.0
C923 C 0.29576 0.64788 0.11061 0.0
C924 C 0.31597 0.66586 0.11054 0.0
C925 C 0.68126 0.31344 0.11331 0.0
C926 C 0.67736 0.33762 0.12283 0.0
C927 C 0.66245 0.29471 0.11521 0.0
C928 C 0.6394 0.29984 0.12663 0.0
H929 H 0.69741 0.3099 0.10175 0.0
H930 H 0.66472 0.27744 0.10489 0.0
S931 S 0.62369 0.35761 0.161 0.0
N932 N 0.65157 0.36374 0.14893 0.0
N933 N 0.61638 0.32857 0.15265 0.0
C934 C 0.63722 0.32251 0.13966 0.0
C935 C 0.6562 0.3415 0.13764 0.0
C936 C 0.63128 0.8129 0.79763 0.0
C937 C 0.63646 0.83848 0.80174 0.0
C938 C 0.63526 0.79538 0.8168 0.0
C939 C 0.64421 0.80339 0.84031 0.0
H940 H 0.62076 0.80698 0.78118 0.0
H941 H 0.62748 0.7766 0.8145 0.0
S942 S 0.66886 0.86661 0.85651 0.0
N943 N 0.65729 0.86965 0.82796 0.0
N944 N 0.66487 0.83672 0.86395 0.0
C945 C 0.65415 0.82782 0.84254 0.0
C946 C 0.65004 0.84556 0.82318 0.0
C947 C 0.18257 0.61051 0.81346 0.0
C948 C 0.18355 0.62157 0.83731 0.0
C949 C 0.16114 0.61227 0.79818 0.0
C950 C 0.13963 0.6247 0.80637 0.0
H951 H 0.19824 0.59976 0.80681 0.0
H952 H 0.16086 0.60232 0.78055 0.0
S953 S 0.13341 0.65906 0.86609 0.0
N954 N 0.16195 0.64745 0.86737 0.0
N955 N 0.12141 0.6501 0.83893 0.0
C956 C 0.14086 0.63704 0.82955 0.0
C957 C 0.16288 0.63564 0.84494 0.0
C958 C 0.34865 0.14896 0.79465 0.0
C959 C 0.35515 0.1235 0.79529 0.0
C960 C 0.35176 0.16415 0.81584 0.0
C961 C 0.36122 0.15418 0.8383 0.0
H962 H 0.34312 0.15771 0.77721 0.0
H963 H 0.34854 0.18408 0.81401 0.0
S964 S 0.37478 0.08707 0.85079 0.0
N965 N 0.3673 0.08805 0.82082 0.0
N966 N 0.37224 0.11609 0.86102 0.0
C967 C 0.36485 0.12804 0.83979 0.0
C968 C 0.36211 0.1128 0.81813 0.0
C969 C 0.82345 0.38463 0.79579 0.0
C970 C 0.82802 0.36195 0.78328 0.0
C971 C 0.8077 0.38545 0.81665 0.0
C972 C 0.79559 0.36367 0.82585 0.0
H973 H 0.83173 0.40209 0.78918 0.0
H974 H 0.80432 0.40354 0.82503 0.0
S975 S 0.80282 0.29911 0.80133 0.0
N976 N 0.82035 0.31681 0.78282 0.0
N977 N 0.79064 0.31842 0.82181 0.0
C978 C 0.80072 0.34071 0.81415 0.0
C979 C 0.81694 0.33983 0.79297 0.0
C980 C 0.63508 0.17516 0.15973 0.0
C981 C 0.61473 0.17828 0.14304 0.0
C982 C 0.63411 0.15745 0.17915 0.0
C983 C 0.61281 0.14189 0.18281 0.0
H984 H 0.65164 0.18716 0.15845 0.0
H985 H 0.64998 0.15659 0.19191 0.0
S986 S 0.55549 0.14038 0.14265 0.0
N987 N 0.57338 0.16264 0.13026 0.0
N988 N 0.5716 0.12935 0.16664 0.0
C989 C 0.59289 0.14372 0.16538 0.0
C990 C 0.59384 0.16188 0.14558 0.0
C991 C 0.85259 0.64067 0.15488 0.0
C992 C 0.85057 0.62829 0.17799 0.0
C993 C 0.83184 0.64223 0.13883 0.0
C994 C 0.80862 0.63128 0.1454 0.0
H995 H 0.87082 0.64652 0.14792 0.0
H996 H 0.8349 0.6487 0.11987 0.0
S997 S 0.79166 0.60426 0.20669 0.0
N998 N 0.82202 0.61076 0.20902 0.0
N999 N 0.78309 0.61367 0.17852 0.0
C1000 C 0.80525 0.62326 0.17005 0.0
C1001 C 0.82638 0.62163 0.1865 0.0
C1002 C 0.35881 0.78216 0.15298 0.0
C1003 C 0.34859 0.78358 0.12868 0.0
C1004 C 0.35776 0.80256 0.16941 0.0
C1005 C 0.347 0.82524 0.16182 0.0
H1006 H 0.36863 0.76552 0.15896 0.0
H1007 H 0.36741 0.80132 0.18726 0.0
S1008 S 0.31566 0.8378 0.1011 0.0
N1009 N 0.3252 0.80857 0.09879 0.0
N1010 N 0.32431 0.84738 0.12927 0.0
C1011 C 0.33537 0.82635 0.13819 0.0
C1012 C 0.33587 0.80537 0.1217 0.0
C1013 C 0.1386 0.33758 0.14 0.0
C1014 C 0.16408 0.34487 0.13834 0.0
C1015 C 0.1258 0.33907 0.16267 0.0
C1016 C 0.13803 0.34846 0.18407 0.0
H1017 H 0.12807 0.3324 0.12333 0.0
H1018 H 0.10585 0.33473 0.16297 0.0
S1019 S 0.20539 0.36588 0.1907 0.0
N1020 N 0.20183 0.35828 0.16099 0.0
N1021 N 0.17746 0.36178 0.20337 0.0
C1022 C 0.1639 0.35368 0.18323 0.0
C1023 C 0.17708 0.35158 0.16037 0.0
C1024 C 0.80887 0.62747 0.81422 0.0
C1025 C 0.82076 0.63417 0.83682 0.0
C1026 C 0.82257 0.62617 0.79214 0.0
C1027 C 0.84834 0.63226 0.79188 0.0
H1028 H 0.78949 0.62091 0.81396 0.0
H1029 H 0.81321 0.61927 0.7754 0.0
S1030 S 0.88703 0.65512 0.84517 0.0
N1031 N 0.85895 0.64972 0.85712 0.0
N1032 N 0.88449 0.64833 0.81516 0.0
C1033 C 0.85982 0.64148 0.81373 0.0
C1034 C 0.84603 0.6422 0.83638 0.0
C1035 C 0.4043 0.84961 0.81982 0.0
C1036 C 0.38711 0.84649 0.79986 0.0
C1037 C 0.40671 0.83141 0.83863 0.0
C1038 C 0.39196 0.80922 0.83849 0.0
H1039 H 0.41678 0.86586 0.82054 0.0
H1040 H 0.42088 0.83451 0.85298 0.0
S1041 S 0.34198 0.79309 0.79204 0.0
N1042 N 0.35351 0.82031 0.78231 0.0
N1043 N 0.35791 0.7862 0.81768 0.0
C1044 C 0.37365 0.80647 0.81943 0.0
C1045 C 0.37125 0.82504 0.80017 0.0
C1046 C 0.17148 0.35356 0.80343 0.0
C1047 C 0.16932 0.34483 0.82805 0.0
C1048 C 0.15005 0.35572 0.78822 0.0
C1049 C 0.12607 0.34926 0.79745 0.0
H1050 H 0.18893 0.36218 0.79721 0.0
H1051 H 0.15198 0.36551 0.77059 0.0
S1052 S 0.11249 0.3174 0.85744 0.0
N1053 N 0.14299 0.32355 0.85847 0.0
N1054 N 0.10261 0.32763 0.82998 0.0
C1055 C 0.12458 0.33636 0.82025 0.0
C1056 C 0.14638 0.334 0.83554 0.0
C1057 C 0.6214 0.17124 0.80423 0.0
C1058 C 0.63081 0.14816 0.81242 0.0
C1059 C 0.6213 0.19204 0.8202 0.0
C1060 C 0.63118 0.19063 0.84463 0.0
H1061 H 0.61199 0.17262 0.78626 0.0
H1062 H 0.6124 0.20903 0.81376 0.0
S1063 S 0.66129 0.13546 0.87358 0.0
N1064 N 0.65235 0.12569 0.84556 0.0
N1065 N 0.65314 0.16518 0.87521 0.0
C1066 C 0.64276 0.16838 0.85218 0.0
C1067 C 0.64232 0.14702 0.83614 0.0
C1068 C 0.82363 0.35814 0.17874 0.0
C1069 C 0.84595 0.35637 0.16502 0.0
C1070 C 0.8003 0.36079 0.16676 0.0
C1071 C 0.79825 0.36184 0.14053 0.0
H1072 H 0.82424 0.35896 0.19895 0.0
H1073 H 0.78391 0.36322 0.17829 0.0
S1074 S 0.85027 0.35329 0.09583 0.0
N1075 N 0.86396 0.35228 0.12359 0.0
N1076 N 0.82014 0.35742 0.10117 0.0
C1077 C 0.82009 0.35806 0.12654 0.0
C1078 C 0.84389 0.35522 0.13875 0.0
C1079 C 0.60845 0.84477 0.18023 0.0
C1080 C 0.60645 0.83143 0.20281 0.0
C1081 C 0.61155 0.83227 0.15759 0.0
C1082 C 0.61269 0.80591 0.15655 0.0
H1083 H 0.6062 0.86492 0.17977 0.0
H1084 H 0.61134 0.84331 0.14057 0.0
S1085 S 0.61385 0.76264 0.21087 0.0
N1086 N 0.61011 0.79068 0.22319 0.0
N1087 N 0.6156 0.76721 0.18043 0.0
C1088 C 0.61343 0.79255 0.17919 0.0
C1089 C 0.61031 0.80531 0.20237 0.0
C1090 C 0.16706 0.63807 0.17988 0.0
C1091 C 0.15177 0.61772 0.18754 0.0
C1092 C 0.18171 0.63677 0.15825 0.0
C1093 C 0.1816 0.61512 0.14318 0.0
H1094 H 0.16839 0.65494 0.19109 0.0
H1095 H 0.19373 0.6527 0.15374 0.0
S1096 S 0.14268 0.55753 0.15348 0.0
N1097 N 0.13594 0.57588 0.17718 0.0
N1098 N 0.16327 0.57347 0.13659 0.0
C1099 C 0.16545 0.59506 0.14996 0.0
C1100 C 0.15064 0.59633 0.1721 0.0
C1101 C 0.32338 0.16202 0.13184 0.0
C1102 C 0.33567 0.18463 0.13844 0.0
C1103 C 0.32395 0.14142 0.14799 0.0
C1104 C 0.33602 0.14338 0.17131 0.0
H1105 H 0.31738 0.15888 0.11268 0.0
H1106 H 0.31806 0.12321 0.14088 0.0
S1107 S 0.36187 0.20125 0.20049 0.0
N1108 N 0.35354 0.2099 0.17199 0.0
N1109 N 0.35381 0.17128 0.20291 0.0
C1110 C 0.34317 0.16728 0.18006 0.0
C1111 C 0.34296 0.18816 0.16341 0.0
C1112 C 0.80926 0.81218 0.62597 0.0
C1113 C 0.82877 0.80911 0.60877 0.0
C1114 C 0.79121 0.8307 0.62247 0.0
C1115 C 0.79213 0.84707 0.60181 0.0
H1116 H 0.80699 0.79928 0.64148 0.0
H1117 H 0.77582 0.83148 0.63553 0.0
S1118 S 0.84183 0.84935 0.55357 0.0
N1119 N 0.84967 0.82579 0.57195 0.0
N1120 N 0.81594 0.86078 0.56548 0.0
C1121 C 0.81271 0.84549 0.58559 0.0
C1122 C 0.83096 0.82645 0.58903 0.0
C1123 C 0.84762 0.15195 0.33459 0.0
C1124 C 0.84397 0.17573 0.34515 0.0
C1125 C 0.82875 0.13342 0.33539 0.0
C1126 C 0.80553 0.13815 0.34653 0.0
H1127 H 0.86608 0.14672 0.32824 0.0
H1128 H 0.83329 0.11457 0.32963 0.0
S1129 S 0.78445 0.19911 0.37103 0.0
N1130 N 0.81383 0.20447 0.36261 0.0
N1131 N 0.77816 0.16953 0.36386 0.0
C1132 C 0.80031 0.16286 0.3536 0.0
C1133 C 0.81965 0.18179 0.35291 0.0
C1134 C 0.78099 0.79261 0.33712 0.0
C1135 C 0.78595 0.81573 0.34903 0.0
C1136 C 0.79842 0.7732 0.33778 0.0
C1137 C 0.82169 0.77607 0.35019 0.0
H1138 H 0.76306 0.78898 0.328 0.0
H1139 H 0.79321 0.75551 0.32909 0.0
S1140 S 0.84522 0.83386 0.38197 0.0
N1141 N 0.81687 0.84109 0.37186 0.0
N1142 N 0.84965 0.80469 0.37297 0.0
C1143 C 0.82759 0.79961 0.36088 0.0
C1144 C 0.80974 0.81939 0.36033 0.0
C1145 C 0.16199 0.81455 0.35821 0.0
C1146 C 0.13717 0.82088 0.35197 0.0
C1147 C 0.18132 0.83276 0.35761 0.0
C1148 C 0.1762 0.85766 0.35073 0.0
H1149 H 0.16598 0.7964 0.36634 0.0
H1150 H 0.19947 0.82802 0.36544 0.0
S1151 S 0.1162 0.88105 0.32483 0.0
N1152 N 0.10989 0.8517 0.33289 0.0
N1153 N 0.14624 0.88586 0.33153 0.0
C1154 C 0.15246 0.8629 0.34053 0.0
C1155 C 0.13284 0.84449 0.34128 0.0
C1156 C 0.181 0.1495 0.3844 0.0
C1157 C 0.19201 0.14063 0.36239 0.0
C1158 C 0.16029 0.16526 0.38359 0.0
C1159 C 0.14977 0.17309 0.36072 0.0
H1160 H 0.18883 0.14478 0.40252 0.0
H1161 H 0.15322 0.17218 0.40113 0.0
S1162 S 0.1697 0.15286 0.2977 0.0
N1163 N 0.18942 0.13898 0.31704 0.0
N1164 N 0.15051 0.16882 0.31547 0.0
C1165 C 0.15965 0.16322 0.33855 0.0
C1166 C 0.18074 0.14695 0.3394 0.0
C1167 C 0.17934 0.17348 0.64496 0.0
C1168 C 0.1827 0.1576 0.6243 0.0
C1169 C 0.16151 0.19257 0.64446 0.0
C1170 C 0.1462 0.19662 0.62331 0.0
H1171 H 0.19108 0.1717 0.66147 0.0
H1172 H 0.16025 0.20466 0.66061 0.0
S1173 S 0.14568 0.15858 0.56517 0.0
N1174 N 0.16783 0.14606 0.58272 0.0
N1175 N 0.13436 0.18177 0.58177 0.0
C1176 C 0.14858 0.18015 0.60291 0.0
C1177 C 0.16679 0.16072 0.60341 0.0
C1178 C 0.82173 0.12159 0.62522 0.0
C1179 C 0.79752 0.12794 0.6169 0.0
C1180 C 0.84148 0.13917 0.62477 0.0
C1181 C 0.83764 0.16374 0.61619 0.0
H1182 H 0.82605 0.10228 0.62965 0.0
H1183 H 0.86029 0.13282 0.62894 0.0
S1184 S 0.77646 0.19146 0.59891 0.0
N1185 N 0.76972 0.16168 0.60477 0.0
N1186 N 0.80693 0.19493 0.60418 0.0
C1187 C 0.81285 0.17133 0.61153 0.0
C1188 C 0.79267 0.15331 0.61187 0.0
C1189 C 0.16901 0.82142 0.61843 0.0
C1190 C 0.16305 0.84585 0.62599 0.0
C1191 C 0.1508 0.80203 0.61903 0.0
C1192 C 0.12628 0.8067 0.6272 0.0
H1193 H 0.18668 0.81796 0.60928 0.0
H1194 H 0.15504 0.78436 0.61017 0.0
S1195 S 0.10419 0.86534 0.65607 0.0
N1196 N 0.13315 0.87207 0.64717 0.0
N1197 N 0.09906 0.83565 0.64852 0.0
C1198 C 0.1216 0.8299 0.6385 0.0
C1199 C 0.13999 0.84956 0.63776 0.0
C1200 C 0.10982 0.24359 0.47615 0.0
C1201 C 0.11357 0.26493 0.46106 0.0
C1202 C 0.10805 0.24594 0.50219 0.0
C1203 C 0.10993 0.26966 0.51357 0.0
H1204 H 0.10622 0.22541 0.46773 0.0
H1205 H 0.10313 0.2295 0.51316 0.0
S1206 S 0.12578 0.33007 0.48272 0.0
N1207 N 0.1237 0.30958 0.4597 0.0
N1208 N 0.12007 0.31395 0.50848 0.0
C1209 C 0.11635 0.29056 0.4989 0.0
C1210 C 0.11827 0.28819 0.47261 0.0
C1211 C 0.75883 0.11313 0.49572 0.0
C1212 C 0.7382 0.10138 0.50737 0.0
C1213 C 0.76117 0.11327 0.46974 0.0
C1214 C 0.74295 0.10168 0.45427 0.0
H1215 H 0.77427 0.12068 0.50688 0.0
H1216 H 0.77825 0.12109 0.46179 0.0
S1217 S 0.68373 0.07111 0.47529 0.0
N1218 N 0.6979 0.08009 0.50146 0.0
N1219 N 0.7022 0.08047 0.4523 0.0
C1220 C 0.72104 0.09192 0.46547 0.0
C1221 C 0.71868 0.09174 0.49215 0.0
C1222 C 0.85687 0.69444 0.46912 0.0
C1223 C 0.86369 0.71579 0.45525 0.0
C1224 C 0.85376 0.69581 0.49487 0.0
C1225 C 0.85764 0.71856 0.50767 0.0
H1226 H 0.85571 0.67618 0.46027 0.0
H1227 H 0.85022 0.67853 0.50505 0.0
S1228 S 0.87123 0.78066 0.47904 0.0
N1229 N 0.87058 0.76096 0.45525 0.0
N1230 N 0.86499 0.76361 0.50413 0.0
C1231 C 0.86168 0.74059 0.49366 0.0
C1232 C 0.8647 0.73918 0.46723 0.0
C1233 C 0.20615 0.87299 0.47521 0.0
C1234 C 0.22817 0.88226 0.46389 0.0
C1235 C 0.20358 0.87278 0.50115 0.0
C1236 C 0.22293 0.88178 0.51694 0.0
H1237 H 0.19007 0.86739 0.46385 0.0
H1238 H 0.18566 0.86687 0.50882 0.0
S1239 S 0.28572 0.9048 0.49686 0.0
N1240 N 0.27076 0.89813 0.47045 0.0
N1241 N 0.26599 0.89758 0.51954 0.0
C1242 C 0.24596 0.8889 0.50606 0.0
C1243 C 0.24857 0.88916 0.47941 0.0
C1244 C 0.10853 0.7777 0.50291 0.0
C1245 C 0.09873 0.75604 0.5146 0.0
C1246 C 0.10998 0.77952 0.47693 0.0
C1247 C 0.10181 0.75971 0.46145 0.0
H1248 H 0.11373 0.79408 0.51389 0.0
H1249 H 0.11619 0.7972 0.46885 0.0
S1250 S 0.07774 0.69762 0.48268 0.0
N1251 N 0.08316 0.7133 0.50883 0.0
N1252 N 0.08605 0.71667 0.45967 0.0
C1253 C 0.09411 0.73705 0.47284 0.0
C1254 C 0.09255 0.73522 0.49953 0.0
C1255 C 0.29952 0.1237 0.48796 0.0
C1256 C 0.27899 0.12353 0.47129 0.0
C1257 C 0.29592 0.12157 0.51362 0.0
C1258 C 0.27168 0.11936 0.52363 0.0
H1259 H 0.31859 0.12375 0.48107 0.0
H1260 H 0.31235 0.12015 0.52561 0.0
S1261 S 0.21157 0.12285 0.48857 0.0
N1262 N 0.23341 0.12472 0.46688 0.0
N1263 N 0.22678 0.12082 0.51551 0.0
C1264 C 0.25093 0.12196 0.50756 0.0
C1265 C 0.25457 0.12405 0.48123 0.0
C1266 C 0.88658 0.24498 0.49659 0.0
C1267 C 0.87466 0.22449 0.50853 0.0
C1268 C 0.88789 0.2462 0.4703 0.0
C1269 C 0.8773 0.22694 0.45541 0.0
H1270 H 0.8967 0.25897 0.50755 0.0
H1271 H 0.89896 0.26108 0.46176 0.0
S1272 S 0.83981 0.17219 0.47771 0.0
N1273 N 0.84903 0.18674 0.50349 0.0
N1274 N 0.85131 0.18904 0.45442 0.0
C1275 C 0.86328 0.20782 0.4672 0.0
C1276 C 0.86201 0.20657 0.49371 0.0
C1277 C 0.71118 0.85098 0.46593 0.0
C1278 C 0.73142 0.86636 0.45841 0.0
C1279 C 0.70519 0.84847 0.49121 0.0
C1280 C 0.71962 0.86086 0.50963 0.0
H1281 H 0.69841 0.84295 0.45211 0.0
H1282 H 0.68812 0.83838 0.49623 0.0
S1283 S 0.77636 0.9007 0.49944 0.0
N1284 N 0.76709 0.89234 0.47108 0.0
N1285 N 0.75656 0.8868 0.51885 0.0
C1286 C 0.74143 0.87415 0.50244 0.0
C1287 C 0.74715 0.87716 0.47666 0.0
C1288 C 0.47047 0.10292 0.21164 0.0
C1289 C 0.44935 0.10425 0.2272 0.0
C1290 C 0.49494 0.10498 0.22137 0.0
C1291 C 0.49937 0.10837 0.24711 0.0
H1292 H 0.4682 0.09933 0.19184 0.0
H1293 H 0.51046 0.10268 0.20869 0.0
S1294 S 0.45066 0.11709 0.2954 0.0
N1295 N 0.43457 0.11217 0.26933 0.0
N1296 N 0.48053 0.1159 0.28759 0.0
C1297 C 0.47846 0.1114 0.26266 0.0
C1298 C 0.45349 0.10937 0.25274 0.0
C1299 C 0.89692 0.49702 0.19023 0.0
C1300 C 0.89564 0.51062 0.21262 0.0
C1301 C 0.89787 0.4709 0.19025 0.0
C1302 C 0.89753 0.45703 0.21265 0.0
H1303 H 0.89784 0.50663 0.1724 0.0
H1304 H 0.89934 0.46155 0.17239 0.0
S1305 S 0.89228 0.48332 0.27643 0.0
N1306 N 0.89251 0.50816 0.25792 0.0
N1307 N 0.89423 0.45873 0.25787 0.0
C1308 C 0.89501 0.47019 0.2352 0.0
C1309 C 0.89407 0.49703 0.2352 0.0
C1310 C 0.49155 0.86971 0.22975 0.0
C1311 C 0.49493 0.87071 0.25581 0.0
C1312 C 0.46754 0.87015 0.21896 0.0
C1313 C 0.44585 0.87144 0.23373 0.0
H1314 H 0.50758 0.86986 0.21745 0.0
H1315 H 0.46611 0.87034 0.19876 0.0
S1316 S 0.44424 0.87044 0.30303 0.0
N1317 N 0.47442 0.87013 0.29627 0.0
N1318 N 0.42923 0.87087 0.27593 0.0
C1319 C 0.44884 0.87059 0.25986 0.0
C1320 C 0.47338 0.87027 0.27089 0.0
C1321 C 0.11887 0.50226 0.25494 0.0
C1322 C 0.12014 0.51456 0.27818 0.0
C1323 C 0.11819 0.4759 0.25359 0.0
C1324 C 0.11874 0.46118 0.27543 0.0
H1325 H 0.1166 0.51297 0.23788 0.0
H1326 H 0.11552 0.46711 0.23552 0.0
S1327 S 0.12771 0.48441 0.34022 0.0
N1328 N 0.12605 0.51007 0.32301 0.0
N1329 N 0.1248 0.46077 0.3205 0.0
C1330 C 0.12241 0.47332 0.29849 0.0
C1331 C 0.12311 0.49997 0.29985 0.0
C1332 C 0.48902 0.86582 0.7075 0.0
C1333 C 0.46786 0.86188 0.72268 0.0
C1334 C 0.51325 0.86762 0.71779 0.0
C1335 C 0.51733 0.86567 0.74372 0.0
H1336 H 0.48685 0.8689 0.6876 0.0
H1337 H 0.52869 0.87193 0.70538 0.0
S1338 S 0.46899 0.85016 0.79111 0.0
N1339 N 0.45311 0.85216 0.76458 0.0
N1340 N 0.49864 0.85588 0.78395 0.0
C1341 C 0.49664 0.85964 0.7589 0.0
C1342 C 0.47193 0.85762 0.74838 0.0
C1343 C 0.08605 0.48194 0.73986 0.0
C1344 C 0.08874 0.46848 0.76238 0.0
C1345 C 0.08633 0.50835 0.73962 0.0
C1346 C 0.08932 0.52206 0.7619 0.0
H1347 H 0.08244 0.47207 0.7225 0.0
H1348 H 0.08297 0.518 0.72211 0.0
S1349 S 0.10192 0.49566 0.82496 0.0
N1350 N 0.09788 0.47087 0.80687 0.0
N1351 N 0.09853 0.5202 0.80647 0.0
C1352 C 0.09386 0.50876 0.78419 0.0
C1353 C 0.09353 0.48204 0.78442 0.0
C1354 C 0.49469 0.10201 0.71547 0.0
C1355 C 0.47428 0.1044 0.73184 0.0
C1356 C 0.51952 0.10246 0.7243 0.0
C1357 C 0.52498 0.10523 0.74988 0.0
H1358 H 0.49152 0.0987 0.69573 0.0
H1359 H 0.53443 0.09936 0.71109 0.0
S1360 S 0.47879 0.11659 0.80001 0.0
N1361 N 0.4615 0.11283 0.77451 0.0
N1362 N 0.50819 0.11365 0.7911 0.0
C1363 C 0.50492 0.10943 0.76624 0.0
C1364 C 0.47959 0.10904 0.75723 0.0
C1365 C 0.86558 0.50686 0.71997 0.0
C1366 C 0.8651 0.5218 0.69826 0.0
C1367 C 0.86409 0.48053 0.7184 0.0
C1368 C 0.86205 0.46846 0.69509 0.0
H1369 H 0.86878 0.51543 0.73807 0.0
H1370 H 0.86634 0.46961 0.73534 0.0
S1371 S 0.8544 0.49935 0.63342 0.0
N1372 N 0.85832 0.52274 0.65329 0.0
N1373 N 0.85557 0.4735 0.65039 0.0
C1374 C 0.85919 0.48332 0.67359 0.0
C1375 C 0.86071 0.50995 0.67516 0.0
C1376 C 0.20972 0.49407 0.09006 0.0
C1377 C 0.23535 0.50038 0.09226 0.0
C1378 C 0.20167 0.46894 0.08902 0.0
C1379 C 0.21895 0.44923 0.09036 0.0
H1380 H 0.19589 0.50859 0.08773 0.0
H1381 H 0.1818 0.46503 0.08628 0.0
S1382 S 0.28787 0.45615 0.10034 0.0
N1383 N 0.27771 0.48519 0.09866 0.0
N1384 N 0.26268 0.43796 0.09698 0.0
C1385 C 0.24448 0.45538 0.09441 0.0
C1386 C 0.25266 0.48096 0.09527 0.0
C1387 C 0.23467 0.49832 0.85825 0.0
C1388 C 0.25894 0.5048 0.86685 0.0
C1389 C 0.22656 0.47322 0.85701 0.0
C1390 C 0.24241 0.45346 0.86407 0.0
H1391 H 0.22126 0.51274 0.85377 0.0
H1392 H 0.20725 0.46935 0.8515 0.0
S1393 S 0.30907 0.46 0.88396 0.0
N1394 N 0.29985 0.48912 0.87961 0.0
N1395 N 0.28446 0.44193 0.87718 0.0
C1396 C 0.26738 0.45948 0.87068 0.0
C1397 C 0.27565 0.48514 0.87213 0.0
C1398 C 0.4664 0.26072 0.87486 0.0
C1399 C 0.46206 0.23531 0.8692 0.0
C1400 C 0.49085 0.27093 0.87503 0.0
C1401 C 0.51177 0.25614 0.86937 0.0
H1402 H 0.4511 0.27233 0.88087 0.0
H1403 H 0.49343 0.29022 0.88097 0.0
S1404 S 0.50934 0.18983 0.84814 0.0
N1405 N 0.47986 0.19656 0.85416 0.0
N1406 N 0.52575 0.21571 0.85413 0.0
C1407 C 0.50725 0.23132 0.86133 0.0
C1408 C 0.4824 0.22092 0.86137 0.0
C1409 C 0.77424 0.50933 0.87733 0.0
C1410 C 0.75788 0.52983 0.87655 0.0
C1411 C 0.76515 0.48464 0.87501 0.0
C1412 C 0.73934 0.4795 0.87201 0.0
H1413 H 0.79418 0.51222 0.88063 0.0
H1414 H 0.77832 0.46948 0.87694 0.0
S1415 S 0.68902 0.5264 0.86492 0.0
N1416 N 0.71488 0.54331 0.86963 0.0
N1417 N 0.69785 0.49688 0.86544 0.0
C1418 C 0.72297 0.49981 0.86952 0.0
C1419 C 0.73222 0.52498 0.87173 0.0
C1420 C 0.48659 0.75628 0.87271 0.0
C1421 C 0.47998 0.73071 0.87118 0.0
C1422 C 0.51181 0.76406 0.87488 0.0
C1423 C 0.53143 0.74659 0.87546 0.0
H1424 H 0.47218 0.77034 0.87367 0.0
H1425 H 0.51579 0.78392 0.8771 0.0
S1426 S 0.52413 0.67765 0.86765 0.0
N1427 N 0.49513 0.6881 0.86718 0.0
N1428 N 0.54246 0.7027 0.87118 0.0
C1429 C 0.52512 0.72109 0.872 0.0
C1430 C 0.49943 0.71317 0.86989 0.0
C1431 C 0.76102 0.499 0.1107 0.0
C1432 C 0.74372 0.51858 0.10785 0.0
C1433 C 0.75338 0.47375 0.10954 0.0
C1434 C 0.72808 0.46694 0.1054 0.0
H1435 H 0.78092 0.50313 0.11279 0.0
H1436 H 0.76766 0.45955 0.1106 0.0
S1437 S 0.67465 0.51081 0.1009 0.0
N1438 N 0.69969 0.52931 0.10375 0.0
N1439 N 0.68518 0.48188 0.10169 0.0
C1440 C 0.71027 0.48627 0.10449 0.0
C1441 C 0.7181 0.51206 0.10572 0.0
C1442 C 0.49846 0.75169 0.10445 0.0
C1443 C 0.51904 0.73573 0.10159 0.0
C1444 C 0.47374 0.74241 0.10366 0.0
C1445 C 0.46852 0.71679 0.09972 0.0
H1446 H 0.50139 0.77174 0.10662 0.0
H1447 H 0.45864 0.7557 0.10494 0.0
S1448 S 0.5157 0.66658 0.09422 0.0
N1449 N 0.53262 0.69268 0.09707 0.0
N1450 N 0.48608 0.67514 0.09541 0.0
C1451 C 0.48893 0.70035 0.09834 0.0
C1452 C 0.5142 0.70983 0.09934 0.0
C1453 C 0.49995 0.2283 0.10966 0.0
C1454 C 0.50746 0.25354 0.10686 0.0
C1455 C 0.47451 0.2213 0.10981 0.0
C1456 C 0.45548 0.23922 0.10719 0.0
H1457 H 0.51377 0.21364 0.11043 0.0
H1458 H 0.46983 0.20146 0.11082 0.0
S1459 S 0.46516 0.30826 0.104 0.0
N1460 N 0.4938 0.29691 0.10496 0.0
N1461 N 0.44596 0.28365 0.10511 0.0
C1462 C 0.46268 0.26471 0.10652 0.0
C1463 C 0.48867 0.27187 0.10635 0.0
C1464 C 0.62222 0.79065 0.00958 0.0
C1465 C 0.61856 0.76827 0.02304 0.0
C1466 C 0.6238 0.79051 0.9836 0.0
C1467 C 0.62167 0.768 0.97006 0.0
H1468 H 0.62223 0.80859 0.01905 0.0
H1469 H 0.62505 0.80839 0.97397 0.0
S1470 S 0.61639 0.70393 -0.00318 0.0
N1471 N 0.61638 0.72268 0.02134 0.0
N1472 N 0.61926 0.72244 0.97218 0.0
C1473 C 0.6207 0.74525 0.9834 0.0
C1474 C 0.61915 0.74539 0.01004 0.0
C1475 C 0.22301 0.58358 0.96524 0.0
C1476 C 0.24127 0.59939 0.95428 0.0
C1477 C 0.21982 0.58313 -0.00866 0.0
C1478 C 0.23464 0.59865 0.007 0.0
H1479 H 0.21301 0.56977 0.95395 0.0
H1480 H 0.20763 0.56883 -0.00062 0.0
S1481 S 0.28147 0.64647 -0.01309 0.0
N1482 N 0.27171 0.6332 0.96064 0.0
N1483 N 0.26548 0.63254 0.00946 0.0
C1484 C 0.25086 0.61634 -0.00408 0.0
C1485 C 0.25427 0.61665 0.96956 0.0
C1486 C 0.3706 0.23511 -0.00168 0.0
C1487 C 0.36691 0.21352 0.01306 0.0
C1488 C 0.37218 0.23323 0.97222 0.0
C1489 C 0.37014 0.20972 0.96046 0.0
H1490 H 0.37431 0.25313 0.00703 0.0
H1491 H 0.37705 0.24984 0.96148 0.0
S1492 S 0.35446 0.14879 -0.00966 0.0
N1493 N 0.35673 0.16886 0.01372 0.0
N1494 N 0.35999 0.16536 0.96483 0.0
C1495 C 0.36381 0.18857 0.9748 0.0
C1496 C 0.36209 0.19047 0.00114 0.0
C1497 C 0.70755 0.37162 -0.00536 0.0
C1498 C 0.72811 0.37896 0.00974 0.0
C1499 C 0.70871 0.37297 0.96863 0.0
C1500 C 0.73047 0.38175 0.95649 0.0
H1501 H 0.68987 0.36597 0.00301 0.0
H1502 H 0.69185 0.36843 0.95795 0.0
S1503 S 0.79062 0.40028 -0.01282 0.0
N1504 N 0.77187 0.39287 0.0106 0.0
N1505 N 0.77397 0.39551 0.96137 0.0
C1506 C 0.75193 0.38714 0.97115 0.0
C1507 C 0.75076 0.38573 -0.00212 0.0
C1508 C 0.61085 0.27773 0.97751 0.0
C1509 C 0.60238 0.25784 0.96229 0.0
C1510 C 0.61024 0.27595 0.00353 0.0
C1511 C 0.60095 0.25424 0.01558 0.0
H1512 H 0.61679 0.29541 0.96923 0.0
H1513 H 0.61584 0.29233 0.01429 0.0
S1514 S 0.57928 0.19568 0.98431 0.0
N1515 N 0.58675 0.21475 0.96104 0.0
N1516 N 0.58541 0.21142 0.01029 0.0
C1517 C 0.59433 0.23339 0.00069 0.0
C1518 C 0.59507 0.2352 0.97394 0.0
C1519 C 0.79547 0.61942 0.00992 0.0
C1520 C 0.77174 0.61521 0.02057 0.0
C1521 C 0.79819 0.62178 0.98418 0.0
C1522 C 0.77727 0.61994 0.9681 0.0
H1523 H 0.81229 0.61933 0.02147 0.0
H1524 H 0.81701 0.62336 0.97674 0.0
S1525 S 0.71059 0.61344 -0.01292 0.0
N1526 N 0.72662 0.61278 0.01364 0.0
N1527 N 0.73163 0.6172 0.96482 0.0
C1528 C 0.75314 0.61842 0.97865 0.0
C1529 C 0.75039 0.61604 0.00507 0.0
C1530 C 0.3901 0.74566 0.97107 0.0
C1531 C 0.38036 0.72656 0.95547 0.0
C1532 C 0.38831 0.74362 -0.00271 0.0
C1533 C 0.37682 0.72242 0.00841 0.0
H1534 H 0.40102 0.76101 0.96317 0.0
H1535 H 0.3979 0.7575 0.00883 0.0
S1536 S 0.34454 0.66989 0.9754 0.0
N1537 N 0.35577 0.68788 0.95285 0.0
N1538 N 0.35256 0.68402 0.00176 0.0
C1539 C 0.36492 0.70465 -0.00717 0.0
C1540 C 0.36666 0.70673 0.96642 0.0
C1541 C 0.18164 0.35304 -0.01203 0.0
C1542 C 0.20254 0.35403 0.00417 0.0
C1543 C 0.18455 0.35544 0.96224 0.0
C1544 C 0.20846 0.35867 0.95171 0.0
H1545 H 0.16274 0.35225 -0.00471 0.0
H1546 H 0.16781 0.35636 0.95062 0.0
S1547 S 0.26949 0.3573 0.98532 0.0
N1548 N 0.24825 0.35451 0.00751 0.0
N1549 N 0.25358 0.35887 0.95874 0.0
C1550 C 0.22967 0.35676 0.96726 0.0
C1551 C 0.22674 0.35442 -0.00634 0.0
C1552 C 0.98559 0.61383 0.76334 0.0
C1553 C 0.00657 0.61786 0.7479 0.0
C1554 C 0.96114 0.6127 0.75344 0.0
C1555 C 0.95661 0.61552 0.72766 0.0
H1556 H 0.98805 0.61025 0.78313 0.0
H1557 H 0.94584 0.60839 0.76601 0.0
S1558 S 0.00449 0.63119 0.6798 0.0
N1559 N 0.0208 0.62811 0.70596 0.0
N1560 N 0.97487 0.62599 0.68737 0.0
C1561 C 0.9772 0.6215 0.71228 0.0
C1562 C 0.00214 0.6227 0.72238 0.0
C1563 C 0.38782 0.97005 0.7332 0.0
C1564 C 0.38435 0.95689 0.71066 0.0
C1565 C 0.38823 -0.00353 0.73358 0.0
C1566 C 0.38517 0.01047 0.71142 0.0
H1567 H 0.39154 0.95997 0.75039 0.0
H1568 H 0.39224 0.00592 0.75108 0.0
S1569 S 0.37061 0.98477 0.6485 0.0
N1570 N 0.37428 0.9598 0.66635 0.0
N1571 N 0.3751 0.00913 0.66707 0.0
C1572 C 0.37984 -0.00257 0.68918 0.0
C1573 C 0.37941 0.97072 0.68879 0.0
C1574 C 0.97893 0.37951 0.75753 0.0
C1575 C -0.0002 0.37596 0.74197 0.0
C1576 C 0.95445 0.38014 0.74775 0.0
C1577 C 0.94984 0.37733 0.72202 0.0
H1578 H 0.98153 0.38294 0.77732 0.0
H1579 H 0.93921 0.38407 0.76034 0.0
S1580 S -0.00271 0.36321 0.67383 0.0
N1581 N 0.01374 0.36642 0.69993 0.0
N1582 N 0.96777 0.36765 0.68158 0.0
C1583 C 0.97028 0.37199 0.7065 0.0
C1584 C -0.00478 0.37127 0.71646 0.0
C1585 C 0.6127 0.97418 0.78916 0.0
C1586 C 0.60879 0.96216 0.76608 0.0
C1587 C 0.61519 0.00021 0.79073 0.0
C1588 C 0.61378 0.0154 0.76929 0.0
H1589 H 0.61271 0.96346 0.80638 0.0
H1590 H 0.61683 0.00858 0.80911 0.0
S1591 S 0.6073 -0.007 0.70396 0.0
N1592 N 0.60649 0.96709 0.72096 0.0
N1593 N 0.61101 0.01641 0.72391 0.0
C1594 C 0.61207 0.00358 0.74583 0.0
C1595 C 0.60958 0.97683 0.74423 0.0
C1596 C 0.00066 0.36677 0.20896 0.0
C1597 C 0.97962 0.36153 0.224 0.0
C1598 C 0.02488 0.36881 0.21928 0.0
C1599 C 0.02913 0.36575 0.24508 0.0
H1600 H -0.00167 0.37068 0.18923 0.0
H1601 H 0.04019 0.37404 0.20703 0.0
S1602 S 0.98125 0.34687 0.29185 0.0
N1603 N 0.96524 0.34968 0.26548 0.0
N1604 N 0.01073 0.35367 0.28488 0.0
C1605 C 0.00859 0.35854 0.26003 0.0
C1606 C 0.98388 0.35635 0.24949 0.0
C1607 C 0.58025 0.00234 0.24157 0.0
C1608 C 0.58673 0.01737 0.26229 0.0
C1609 C 0.57962 0.97597 0.24357 0.0
C1610 C 0.58541 0.96403 0.26635 0.0
H1611 H 0.57409 0.01096 0.22428 0.0
H1612 H 0.57303 0.96502 0.22773 0.0
S1613 S 0.60865 -0.00509 0.32429 0.0
N1614 N 0.60282 0.01829 0.30494 0.0
N1615 N 0.60148 0.96905 0.30868 0.0
C1616 C 0.59396 0.97886 0.28642 0.0
C1617 C 0.59467 0.00547 0.28439 0.0
C1618 C 0.00888 0.60324 0.2656 0.0
C1619 C 0.02987 0.60377 0.24978 0.0
C1620 C 0.98439 0.60436 0.25603 0.0
C1621 C 0.97979 0.60595 0.23017 0.0
H1622 H 0.01124 0.60106 0.28562 0.0
H1623 H 0.96898 0.60273 0.26901 0.0
S1624 S 0.02823 0.61186 0.18088 0.0
N1625 N 0.04447 0.60891 0.20709 0.0
N1626 N -0.00159 0.61099 0.18905 0.0
C1627 C 0.00062 0.60828 0.21422 0.0
C1628 C 0.02564 0.60718 0.22401 0.0
C1629 C 0.35703 -0.00192 0.22225 0.0
C1630 C 0.35622 0.01214 0.19998 0.0
C1631 C 0.35675 0.9717 0.22168 0.0
C1632 C 0.35568 0.95873 0.19882 0.0
H1633 H 0.35976 0.00744 0.24003 0.0
H1634 H 0.35934 0.96153 0.23903 0.0
S1635 S 0.3474 0.98681 0.13595 0.0
N1636 N 0.3499 0.01109 0.15494 0.0
N1637 N 0.34956 0.96172 0.15391 0.0
C1638 C 0.35232 0.97258 0.17675 0.0
C1639 C 0.35255 -0.00074 0.17732 0.0
C1640 C 0.74802 0.98602 0.59704 0.0
C1641 C 0.73069 0.00565 0.59602 0.0
C1642 C 0.74003 0.96092 0.59668 0.0
C1643 C 0.71438 0.95448 0.59497 0.0
H1644 H 0.76804 -0.00997 0.59711 0.0
H1645 H 0.75415 0.94653 0.59633 0.0
S1646 S 0.66122 -0.00141 0.59589 0.0
N1647 N 0.68658 0.01685 0.5964 0.0
N1648 N 0.67151 0.96955 0.5954 0.0
C1649 C 0.69675 0.97382 0.59574 0.0
C1650 C 0.70492 -0.00055 0.59642 0.0
C1651 C 0.77318 -0.00985 0.36956 0.0
C1652 C 0.75576 0.00873 0.36283 0.0
C1653 C 0.76673 0.96454 0.36868 0.0
C1654 C 0.74258 0.95657 0.36116 0.0
H1655 H 0.79153 -0.00461 0.37695 0.0
H1656 H 0.78008 0.95111 0.37579 0.0
S1657 S 0.69185 -0.00303 0.33659 0.0
N1658 N 0.71465 0.01685 0.34455 0.0
N1659 N 0.70254 0.96878 0.34306 0.0
C1660 C 0.72586 0.9747 0.35206 0.0
C1661 C 0.73244 0.00077 0.35284 0.0
C1662 C 0.96673 0.76305 0.373 0.0
C1663 C 0.96235 0.73743 0.3685 0.0
C1664 C -0.00877 0.77315 0.37303 0.0
C1665 C 0.01214 0.758 0.36834 0.0
H1666 H 0.95139 0.77502 0.37816 0.0
H1667 H -0.00617 0.7927 0.37806 0.0
S1668 S 0.00968 0.69072 0.35042 0.0
N1669 N 0.98016 0.69787 0.35569 0.0
N1670 N 0.02613 0.71679 0.35535 0.0
C1671 C 0.00761 0.73284 0.36149 0.0
C1672 C 0.98273 0.72255 0.36172 0.0
C1673 C 0.27628 0.00942 0.38598 0.0
C1674 C 0.26011 0.02997 0.38369 0.0
C1675 C 0.26715 0.98471 0.38393 0.0
C1676 C 0.24149 0.97964 0.37973 0.0
H1677 H 0.29606 0.01232 0.39015 0.0
H1678 H 0.2801 0.96952 0.38695 0.0
S1679 S 0.19184 0.02653 0.36875 0.0
N1680 N 0.21755 0.04344 0.37424 0.0
N1681 N 0.20046 -0.00301 0.37063 0.0
C1682 C 0.22537 -7e-05 0.3759 0.0
C1683 C 0.23465 0.0251 0.37782 0.0
C1684 C 0.01853 0.21458 0.37212 0.0
C1685 C 0.02638 0.23896 0.36547 0.0
C1686 C -0.00701 0.20791 0.37261 0.0
C1687 C 0.97426 0.22531 0.3664 0.0
H1688 H 0.03206 0.20096 0.37845 0.0
H1689 H 0.98793 0.18924 0.37909 0.0
S1690 S 0.98532 0.29012 0.34289 0.0
N1691 N 0.01367 0.27951 0.34903 0.0
N1692 N 0.96568 0.26691 0.34989 0.0
C1693 C 0.98199 0.24908 0.35761 0.0
C1694 C 0.00803 0.25591 0.35718 0.0
C1695 C 0.24978 0.00548 0.6166 0.0
C1696 C 0.23399 0.02563 0.61063 0.0
C1697 C 0.24114 0.98056 0.61539 0.0
C1698 C 0.21634 0.97465 0.60802 0.0
H1699 H 0.26939 0.00887 0.62126 0.0
H1700 H 0.25446 0.96584 0.61904 0.0
S1701 S 0.1663 0.02062 0.59416 0.0
N1702 N 0.19157 0.03813 0.59987 0.0
N1703 N 0.17516 -0.00873 0.59762 0.0
C1704 C 0.19978 -0.00531 0.60386 0.0
C1705 C 0.20862 0.02017 0.6052 0.0
C1706 C 0.9697 0.24908 0.60444 0.0
C1707 C 0.96516 0.22323 0.60122 0.0
C1708 C -0.00588 0.25912 0.60419 0.0
C1709 C 0.01505 0.24371 0.60101 0.0
H1710 H 0.95424 0.26196 0.60569 0.0
H1711 H -0.00349 0.2793 0.60549 0.0
S1712 S 0.01374 0.17433 0.59608 0.0
N1713 N 0.98389 0.182 0.59788 0.0
N1714 N 0.0299 0.20101 0.59759 0.0
C1715 C 0.01101 0.21763 0.59993 0.0
C1716 C 0.98603 0.20735 0.59996 0.0
C1717 C 0.9812 0.76814 0.59706 0.0
C1718 C 0.0001 0.75028 0.60076 0.0
C1719 C 0.95574 0.76125 0.59709 0.0
C1720 C 0.94808 0.73617 0.6007 0.0
H1721 H 0.98604 0.78757 0.59314 0.0
H1722 H 0.94209 0.77555 0.59299 0.0
S1723 S -0.01023 0.68281 0.61545 0.0
N1724 N 0.00919 0.7069 0.61125 0.0
N1725 N 0.96126 0.69388 0.61129 0.0
C1726 C 0.96664 0.71839 0.60625 0.0
C1727 C -0.00735 0.72545 0.60631 0.0
loop_
_geom_bond_atom_site_label_1
_geom_bond_atom_site_label_2
_geom_bond_distance
_geom_bond_site_symmetry_2
_ccdc_geom_bond_type
Zn0 O3 2.031 . S
Zn0 O5 2.049 . S
Zn0 O10 2.067 . S
Zn1 O2 1.962 . S
Zn1 O4 1.986 . S
Zn1 O6 1.996 . S
Zn1 O9 1.943 . S
O2 Zn1 1.962 . S
O2 C7 1.254 . S
O3 Zn0 2.031 . S
O3 C7 1.269 . S
O4 Zn1 1.986 . S
O4 C11 1.262 . S
O5 Zn0 2.049 . S
O5 C13 1.260 . S
O6 Zn1 1.996 . S
O6 C13 1.257 . S
C7 O2 1.254 . S
C7 O3 1.269 . S
C8 O9 1.249 . S
C8 O10 1.270 . S
O9 Zn1 1.943 . S
O9 C8 1.249 . S
O10 Zn0 2.067 . S
O10 C8 1.270 . S
C11 O4 1.262 . S
C11 O12 1.232 . S
O12 C11 1.232 . S
C13 O5 1.260 . S
C13 O6 1.257 . S
Zn14 O17 2.031 . S
Zn14 O19 2.049 . S
Zn14 O24 2.067 . S
Zn15 O16 1.962 . S
Zn15 O18 1.986 . S
Zn15 O20 1.996 . S
Zn15 O23 1.943 . S
O16 Zn15 1.962 . S
O16 C21 1.254 . S
O17 Zn14 2.031 . S
O17 C21 1.269 . S
O18 Zn15 1.986 . S
O18 C25 1.262 . S
O19 Zn14 2.049 . S
O19 C27 1.260 . S
O20 Zn15 1.996 . S
O20 C27 1.257 . S
C21 O16 1.254 . S
C21 O17 1.269 . S
C22 O23 1.249 . S
C22 O24 1.270 . S
O23 Zn15 1.943 . S
O23 C22 1.249 . S
O24 Zn14 2.067 . S
O24 C22 1.270 . S
C25 O18 1.262 . S
C25 O26 1.232 . S
O26 C25 1.232 . S
C27 O19 1.260 . S
C27 O20 1.257 . S
Zn28 O31 2.031 . S
Zn28 O33 2.049 . S
Zn28 O38 2.067 . S
Zn29 O30 1.962 . S
Zn29 O32 1.986 . S
Zn29 O34 1.996 . S
Zn29 O37 1.943 . S
O30 Zn29 1.962 . S
O30 C35 1.254 . S
O31 Zn28 2.031 . S
O31 C35 1.269 . S
O32 Zn29 1.986 . S
O32 C39 1.262 . S
O33 Zn28 2.049 . S
O33 C41 1.260 . S
O34 Zn29 1.996 . S
O34 C41 1.257 . S
C35 O30 1.254 . S
C35 O31 1.269 . S
C36 O37 1.249 . S
C36 O38 1.270 . S
O37 Zn29 1.943 . S
O37 C36 1.249 . S
O38 Zn28 2.067 . S
O38 C36 1.270 . S
C39 O32 1.262 . S
C39 O40 1.232 . S
O40 C39 1.232 . S
C41 O33 1.260 . S
C41 O34 1.257 . S
Zn42 O45 2.031 . S
Zn42 O47 2.049 . S
Zn42 O52 2.067 . S
Zn43 O44 1.962 . S
Zn43 O46 1.986 . S
Zn43 O48 1.996 . S
Zn43 O51 1.943 . S
O44 Zn43 1.962 . S
O44 C49 1.254 . S
O45 Zn42 2.031 . S
O45 C49 1.269 . S
O46 Zn43 1.986 . S
O46 C53 1.262 . S
O47 Zn42 2.049 . S
O47 C55 1.260 . S
O48 Zn43 1.996 . S
O48 C55 1.257 . S
C49 O44 1.254 . S
C49 O45 1.269 . S
C50 O51 1.249 . S
C50 O52 1.270 . S
O51 Zn43 1.943 . S
O51 C50 1.249 . S
O52 Zn42 2.067 . S
O52 C50 1.270 . S
C53 O46 1.262 . S
C53 O54 1.232 . S
O54 C53 1.232 . S
C55 O47 1.260 . S
C55 O48 1.257 . S
Zn56 O59 2.031 . S
Zn56 O61 2.049 . S
Zn56 O66 2.067 . S
Zn57 O58 1.962 . S
Zn57 O60 1.986 . S
Zn57 O62 1.996 . S
Zn57 O65 1.943 . S
O58 Zn57 1.962 . S
O58 C63 1.254 . S
O59 Zn56 2.031 . S
O59 C63 1.269 . S
O60 Zn57 1.986 . S
O60 C67 1.262 . S
O61 Zn56 2.049 . S
O61 C69 1.260 . S
O62 Zn57 1.996 . S
O62 C69 1.257 . S
C63 O58 1.254 . S
C63 O59 1.269 . S
C64 O65 1.249 . S
C64 O66 1.270 . S
O65 Zn57 1.943 . S
O65 C64 1.249 . S
O66 Zn56 2.067 . S
O66 C64 1.270 . S
C67 O60 1.262 . S
C67 O68 1.232 . S
O68 C67 1.232 . S
C69 O61 1.260 . S
C69 O62 1.257 . S
Zn70 O73 2.031 . S
Zn70 O75 2.049 . S
Zn70 O80 2.067 . S
Zn71 O72 1.962 . S
Zn71 O74 1.986 . S
Zn71 O76 1.996 . S
Zn71 O79 1.943 . S
O72 Zn71 1.962 . S
O72 C77 1.254 . S
O73 Zn70 2.031 . S
O73 C77 1.269 . S
O74 Zn71 1.986 . S
O74 C81 1.262 . S
O75 Zn70 2.049 . S
O75 C83 1.260 . S
O76 Zn71 1.996 . S
O76 C83 1.257 . S
C77 O72 1.254 . S
C77 O73 1.269 . S
C78 O79 1.249 . S
C78 O80 1.270 . S
O79 Zn71 1.943 . S
O79 C78 1.249 . S
O80 Zn70 2.067 . S
O80 C78 1.270 . S
C81 O74 1.262 . S
C81 O82 1.232 . S
O82 C81 1.232 . S
C83 O75 1.260 . S
C83 O76 1.257 . S
Zn84 O87 2.031 . S
Zn84 O89 2.049 . S
Zn84 O94 2.067 . S
Zn85 O86 1.962 . S
Zn85 O88 1.986 . S
Zn85 O90 1.996 . S
Zn85 O93 1.943 . S
O86 Zn85 1.962 . S
O86 C91 1.254 . S
O87 Zn84 2.031 . S
O87 C91 1.269 . S
O88 Zn85 1.986 . S
O88 C95 1.262 . S
O89 Zn84 2.049 . S
O89 C97 1.260 . S
O90 Zn85 1.996 . S
O90 C97 1.257 . S
C91 O86 1.254 . S
C91 O87 1.269 . S
C92 O93 1.249 . S
C92 O94 1.270 . S
O93 Zn85 1.943 . S
O93 C92 1.249 . S
O94 Zn84 2.067 . S
O94 C92 1.270 . S
C95 O88 1.262 . S
C95 O96 1.232 . S
O96 C95 1.232 . S
C97 O89 1.260 . S
C97 O90 1.257 . S
Zn98 O101 2.031 . S
Zn98 O103 2.049 . S
Zn98 O108 2.067 . S
Zn99 O100 1.962 . S
Zn99 O102 1.986 . S
Zn99 O104 1.996 . S
Zn99 O107 1.943 . S
O100 Zn99 1.962 . S
O100 C105 1.254 . S
O101 Zn98 2.031 . S
O101 C105 1.269 . S
O102 Zn99 1.986 . S
O102 C109 1.262 . S
O103 Zn98 2.049 . S
O103 C111 1.260 . S
O104 Zn99 1.996 . S
O104 C111 1.257 . S
C105 O100 1.254 . S
C105 O101 1.269 . S
C106 O107 1.249 . S
C106 O108 1.270 . S
O107 Zn99 1.943 . S
O107 C106 1.249 . S
O108 Zn98 2.067 . S
O108 C106 1.270 . S
C109 O102 1.262 . S
C109 O110 1.232 . S
O110 C109 1.232 . S
C111 O103 1.260 . S
C111 O104 1.257 . S
Zn112 O115 2.031 . S
Zn112 O117 2.049 . S
Zn112 O122 2.067 . S
Zn113 O114 1.962 . S
Zn113 O116 1.986 . S
Zn113 O118 1.996 . S
Zn113 O121 1.943 . S
O114 Zn113 1.962 . S
O114 C119 1.254 . S
O115 Zn112 2.031 . S
O115 C119 1.269 . S
O116 Zn113 1.986 . S
O116 C123 1.262 . S
O117 Zn112 2.049 . S
O117 C125 1.260 . S
O118 Zn113 1.996 . S
O118 C125 1.257 . S
C119 O114 1.254 . S
C119 O115 1.269 . S
C120 O121 1.249 . S
C120 O122 1.270 . S
O121 Zn113 1.943 . S
O121 C120 1.249 . S
O122 Zn112 2.067 . S
O122 C120 1.270 . S
C123 O116 1.262 . S
C123 O124 1.232 . S
O124 C123 1.232 . S
C125 O117 1.260 . S
C125 O118 1.257 . S
Zn126 O129 2.031 . S
Zn126 O131 2.049 . S
Zn126 O136 2.067 . S
Zn127 O128 1.962 . S
Zn127 O130 1.986 . S
Zn127 O132 1.996 . S
Zn127 O135 1.943 . S
O128 Zn127 1.962 . S
O128 C133 1.254 . S
O129 Zn126 2.031 . S
O129 C133 1.269 . S
O130 Zn127 1.986 . S
O130 C137 1.262 . S
O131 Zn126 2.049 . S
O131 C139 1.260 . S
O132 Zn127 1.996 . S
O132 C139 1.257 . S
C133 O128 1.254 . S
C133 O129 1.269 . S
C134 O135 1.249 . S
C134 O136 1.270 . S
O135 Zn127 1.943 . S
O135 C134 1.249 . S
O136 Zn126 2.067 . S
O136 C134 1.270 . S
C137 O130 1.262 . S
C137 O138 1.232 . S
O138 C137 1.232 . S
C139 O131 1.260 . S
C139 O132 1.257 . S
Zn140 O143 2.031 . S
Zn140 O145 2.049 . S
Zn140 O150 2.067 . S
Zn141 O142 1.962 . S
Zn141 O144 1.986 . S
Zn141 O146 1.996 . S
Zn141 O149 1.943 . S
O142 Zn141 1.962 . S
O142 C147 1.254 . S
O143 Zn140 2.031 . S
O143 C147 1.269 . S
O144 Zn141 1.986 . S
O144 C151 1.262 . S
O145 Zn140 2.049 . S
O145 C153 1.260 . S
O146 Zn141 1.996 . S
O146 C153 1.257 . S
C147 O142 1.254 . S
C147 O143 1.269 . S
C148 O149 1.249 . S
C148 O150 1.270 . S
O149 Zn141 1.943 . S
O149 C148 1.249 . S
O150 Zn140 2.067 . S
O150 C148 1.270 . S
C151 O144 1.262 . S
C151 O152 1.232 . S
O152 C151 1.232 . S
C153 O145 1.260 . S
C153 O146 1.257 . S
Zn154 O157 2.031 . S
Zn154 O159 2.049 . S
Zn154 O164 2.067 . S
Zn155 O156 1.962 . S
Zn155 O158 1.986 . S
Zn155 O160 1.996 . S
Zn155 O163 1.943 . S
O156 Zn155 1.962 . S
O156 C161 1.254 . S
O157 Zn154 2.031 . S
O157 C161 1.269 . S
O158 Zn155 1.986 . S
O158 C165 1.262 . S
O159 Zn154 2.049 . S
O159 C167 1.260 . S
O160 Zn155 1.996 . S
O160 C167 1.257 . S
C161 O156 1.254 . S
C161 O157 1.269 . S
C162 O163 1.249 . S
C162 O164 1.270 . S
O163 Zn155 1.943 . S
O163 C162 1.249 . S
O164 Zn154 2.067 . S
O164 C162 1.270 . S
C165 O158 1.262 . S
C165 O166 1.232 . S
O166 C165 1.232 . S
C167 O159 1.260 . S
C167 O160 1.257 . S
Zn168 O171 2.031 . S
Zn168 O173 2.049 . S
Zn168 O178 2.067 . S
Zn169 O170 1.962 . S
Zn169 O172 1.986 . S
Zn169 O174 1.996 . S
Zn169 O177 1.943 . S
O170 Zn169 1.962 . S
O170 C175 1.254 . S
O171 Zn168 2.031 . S
O171 C175 1.269 . S
O172 Zn169 1.986 . S
O172 C179 1.262 . S
O173 Zn168 2.049 . S
O173 C181 1.260 . S
O174 Zn169 1.996 . S
O174 C181 1.257 . S
C175 O170 1.254 . S
C175 O171 1.269 . S
C176 O177 1.249 . S
C176 O178 1.270 . S
O177 Zn169 1.943 . S
O177 C176 1.249 . S
O178 Zn168 2.067 . S
O178 C176 1.270 . S
C179 O172 1.262 . S
C179 O180 1.232 . S
O180 C179 1.232 . S
C181 O173 1.260 . S
C181 O174 1.257 . S
Zn182 O185 2.031 . S
Zn182 O187 2.049 . S
Zn182 O192 2.067 . S
Zn183 O184 1.962 . S
Zn183 O186 1.986 . S
Zn183 O188 1.996 . S
Zn183 O191 1.943 . S
O184 Zn183 1.962 . S
O184 C189 1.254 . S
O185 Zn182 2.031 . S
O185 C189 1.269 . S
O186 Zn183 1.986 . S
O186 C193 1.262 . S
O187 Zn182 2.049 . S
O187 C195 1.260 . S
O188 Zn183 1.996 . S
O188 C195 1.257 . S
C189 O184 1.254 . S
C189 O185 1.269 . S
C190 O191 1.249 . S
C190 O192 1.270 . S
O191 Zn183 1.943 . S
O191 C190 1.249 . S
O192 Zn182 2.067 . S
O192 C190 1.270 . S
C193 O186 1.262 . S
C193 O194 1.232 . S
O194 C193 1.232 . S
C195 O187 1.260 . S
C195 O188 1.257 . S
Zn196 O199 2.031 . S
Zn196 O201 2.049 . S
Zn196 O206 2.067 . S
Zn197 O198 1.962 . S
Zn197 O200 1.986 . S
Zn197 O202 1.996 . S
Zn197 O205 1.943 . S
O198 Zn197 1.962 . S
O198 C203 1.254 . S
O199 Zn196 2.031 . S
O199 C203 1.269 . S
O200 Zn197 1.986 . S
O200 C207 1.262 . S
O201 Zn196 2.049 . S
O201 C209 1.260 . S
O202 Zn197 1.996 . S
O202 C209 1.257 . S
C203 O198 1.254 . S
C203 O199 1.269 . S
C204 O205 1.249 . S
C204 O206 1.270 . S
O205 Zn197 1.943 . S
O205 C204 1.249 . S
O206 Zn196 2.067 . S
O206 C204 1.270 . S
C207 O200 1.262 . S
C207 O208 1.232 . S
O208 C207 1.232 . S
C209 O201 1.260 . S
C209 O202 1.257 . S
Zn210 O213 2.031 . S
Zn210 O215 2.049 . S
Zn210 O220 2.067 . S
Zn211 O212 1.962 . S
Zn211 O214 1.986 . S
Zn211 O216 1.996 . S
Zn211 O219 1.943 . S
O212 Zn211 1.962 . S
O212 C217 1.254 . S
O213 Zn210 2.031 . S
O213 C217 1.269 . S
O214 Zn211 1.986 . S
O214 C221 1.262 . S
O215 Zn210 2.049 . S
O215 C223 1.260 . S
O216 Zn211 1.996 . S
O216 C223 1.257 . S
C217 O212 1.254 . S
C217 O213 1.269 . S
C218 O219 1.249 . S
C218 O220 1.270 . S
O219 Zn211 1.943 . S
O219 C218 1.249 . S
O220 Zn210 2.067 . S
O220 C218 1.270 . S
C221 O214 1.262 . S
C221 O222 1.232 . S
O222 C221 1.232 . S
C223 O215 1.260 . S
C223 O216 1.257 . S
Zn224 O227 2.031 . S
Zn224 O229 2.049 . S
Zn224 O234 2.067 . S
Zn225 O226 1.962 . S
Zn225 O228 1.986 . S
Zn225 O230 1.996 . S
Zn225 O233 1.943 . S
O226 Zn225 1.962 . S
O226 C231 1.254 . S
O227 Zn224 2.031 . S
O227 C231 1.269 . S
O228 Zn225 1.986 . S
O228 C235 1.262 . S
O229 Zn224 2.049 . S
O229 C237 1.260 . S
O230 Zn225 1.996 . S
O230 C237 1.257 . S
C231 O226 1.254 . S
C231 O227 1.269 . S
C232 O233 1.249 . S
C232 O234 1.270 . S
O233 Zn225 1.943 . S
O233 C232 1.249 . S
O234 Zn224 2.067 . S
O234 C232 1.270 . S
C235 O228 1.262 . S
C235 O236 1.232 . S
O236 C235 1.232 . S
C237 O229 1.260 . S
C237 O230 1.257 . S
Zn238 O241 2.031 . S
Zn238 O243 2.049 . S
Zn238 O248 2.067 . S
Zn239 O240 1.962 . S
Zn239 O242 1.986 . S
Zn239 O244 1.996 . S
Zn239 O247 1.943 . S
O240 Zn239 1.962 . S
O240 C245 1.254 . S
O241 Zn238 2.031 . S
O241 C245 1.269 . S
O242 Zn239 1.986 . S
O242 C249 1.262 . S
O243 Zn238 2.049 . S
O243 C251 1.260 . S
O244 Zn239 1.996 . S
O244 C251 1.257 . S
C245 O240 1.254 . S
C245 O241 1.269 . S
C246 O247 1.249 . S
C246 O248 1.270 . S
O247 Zn239 1.943 . S
O247 C246 1.249 . S
O248 Zn238 2.067 . S
O248 C246 1.270 . S
C249 O242 1.262 . S
C249 O250 1.232 . S
O250 C249 1.232 . S
C251 O243 1.260 . S
C251 O244 1.257 . S
Zn252 O255 2.031 . S
Zn252 O257 2.049 . S
Zn252 O262 2.067 . S
Zn253 O254 1.962 . S
Zn253 O256 1.986 . S
Zn253 O258 1.996 . S
Zn253 O261 1.943 . S
O254 Zn253 1.962 . S
O254 C259 1.254 . S
O255 Zn252 2.031 . S
O255 C259 1.269 . S
O256 Zn253 1.986 . S
O256 C263 1.262 . S
O257 Zn252 2.049 . S
O257 C265 1.260 . S
O258 Zn253 1.996 . S
O258 C265 1.257 . S
C259 O254 1.254 . S
C259 O255 1.269 . S
C260 O261 1.249 . S
C260 O262 1.270 . S
O261 Zn253 1.943 . S
O261 C260 1.249 . S
O262 Zn252 2.067 . S
O262 C260 1.270 . S
C263 O256 1.262 . S
C263 O264 1.232 . S
O264 C263 1.232 . S
C265 O257 1.260 . S
C265 O258 1.257 . S
Zn266 O269 2.031 . S
Zn266 O271 2.049 . S
Zn266 O276 2.067 . S
Zn267 O268 1.962 . S
Zn267 O270 1.986 . S
Zn267 O272 1.996 . S
Zn267 O275 1.943 . S
O268 Zn267 1.962 . S
O268 C273 1.254 . S
O269 Zn266 2.031 . S
O269 C273 1.269 . S
O270 Zn267 1.986 . S
O270 C277 1.262 . S
O271 Zn266 2.049 . S
O271 C279 1.260 . S
O272 Zn267 1.996 . S
O272 C279 1.257 . S
C273 O268 1.254 . S
C273 O269 1.269 . S
C274 O275 1.249 . S
C274 O276 1.270 . S
O275 Zn267 1.943 . S
O275 C274 1.249 . S
O276 Zn266 2.067 . S
O276 C274 1.270 . S
C277 O270 1.262 . S
C277 O278 1.232 . S
O278 C277 1.232 . S
C279 O271 1.260 . S
C279 O272 1.257 . S
Zn280 O283 2.031 . S
Zn280 O285 2.049 . S
Zn280 O290 2.067 . S
Zn281 O282 1.962 . S
Zn281 O284 1.986 . S
Zn281 O286 1.996 . S
Zn281 O289 1.943 . S
O282 Zn281 1.962 . S
O282 C287 1.254 . S
O283 Zn280 2.031 . S
O283 C287 1.269 . S
O284 Zn281 1.986 . S
O284 C291 1.262 . S
O285 Zn280 2.049 . S
O285 C293 1.260 . S
O286 Zn281 1.996 . S
O286 C293 1.257 . S
C287 O282 1.254 . S
C287 O283 1.269 . S
C288 O289 1.249 . S
C288 O290 1.270 . S
O289 Zn281 1.943 . S
O289 C288 1.249 . S
O290 Zn280 2.067 . S
O290 C288 1.270 . S
C291 O284 1.262 . S
C291 O292 1.232 . S
O292 C291 1.232 . S
C293 O285 1.260 . S
C293 O286 1.257 . S
Zn294 O297 2.031 . S
Zn294 O299 2.049 . S
Zn294 O304 2.067 . S
Zn295 O296 1.962 . S
Zn295 O298 1.986 . S
Zn295 O300 1.996 . S
Zn295 O303 1.943 . S
O296 Zn295 1.962 . S
O296 C301 1.254 . S
O297 Zn294 2.031 . S
O297 C301 1.269 . S
O298 Zn295 1.986 . S
O298 C305 1.262 . S
O299 Zn294 2.049 . S
O299 C307 1.260 . S
O300 Zn295 1.996 . S
O300 C307 1.257 . S
C301 O296 1.254 . S
C301 O297 1.269 . S
C302 O303 1.249 . S
C302 O304 1.270 . S
O303 Zn295 1.943 . S
O303 C302 1.249 . S
O304 Zn294 2.067 . S
O304 C302 1.270 . S
C305 O298 1.262 . S
C305 O306 1.232 . S
O306 C305 1.232 . S
C307 O299 1.260 . S
C307 O300 1.257 . S
Zn308 O311 2.031 . S
Zn308 O313 2.049 . S
Zn308 O318 2.067 . S
Zn309 O310 1.962 . S
Zn309 O312 1.986 . S
Zn309 O314 1.996 . S
Zn309 O317 1.943 . S
O310 Zn309 1.962 . S
O310 C315 1.254 . S
O311 Zn308 2.031 . S
O311 C315 1.269 . S
O312 Zn309 1.986 . S
O312 C319 1.262 . S
O313 Zn308 2.049 . S
O313 C321 1.260 . S
O314 Zn309 1.996 . S
O314 C321 1.257 . S
C315 O310 1.254 . S
C315 O311 1.269 . S
C316 O317 1.249 . S
C316 O318 1.270 . S
O317 Zn309 1.943 . S
O317 C316 1.249 . S
O318 Zn308 2.067 . S
O318 C316 1.270 . S
C319 O312 1.262 . S
C319 O320 1.232 . S
O320 C319 1.232 . S
C321 O313 1.260 . S
C321 O314 1.257 . S
Zn322 O325 2.031 . S
Zn322 O327 2.049 . S
Zn322 O332 2.067 . S
Zn323 O324 1.962 . S
Zn323 O326 1.986 . S
Zn323 O328 1.996 . S
Zn323 O331 1.943 . S
O324 Zn323 1.962 . S
O324 C329 1.254 . S
O325 Zn322 2.031 . S
O325 C329 1.269 . S
O326 Zn323 1.986 . S
O326 C333 1.262 . S
O327 Zn322 2.049 . S
O327 C335 1.260 . S
O328 Zn323 1.996 . S
O328 C335 1.257 . S
C329 O324 1.254 . S
C329 O325 1.269 . S
C330 O331 1.249 . S
C330 O332 1.270 . S
O331 Zn323 1.943 . S
O331 C330 1.249 . S
O332 Zn322 2.067 . S
O332 C330 1.270 . S
C333 O326 1.262 . S
C333 O334 1.232 . S
O334 C333 1.232 . S
C335 O327 1.260 . S
C335 O328 1.257 . S
Zn336 O339 2.031 . S
Zn336 O341 2.049 . S
Zn336 O346 2.067 . S
Zn337 O338 1.962 . S
Zn337 O340 1.986 . S
Zn337 O342 1.996 . S
Zn337 O345 1.943 . S
O338 Zn337 1.962 . S
O338 C343 1.254 . S
O339 Zn336 2.031 . S
O339 C343 1.269 . S
O340 Zn337 1.986 . S
O340 C347 1.262 . S
O341 Zn336 2.049 . S
O341 C349 1.260 . S
O342 Zn337 1.996 . S
O342 C349 1.257 . S
C343 O338 1.254 . S
C343 O339 1.269 . S
C344 O345 1.249 . S
C344 O346 1.270 . S
O345 Zn337 1.943 . S
O345 C344 1.249 . S
O346 Zn336 2.067 . S
O346 C344 1.270 . S
C347 O340 1.262 . S
C347 O348 1.232 . S
O348 C347 1.232 . S
C349 O341 1.260 . S
C349 O342 1.257 . S
Zn350 O353 2.031 . S
Zn350 O355 2.049 . S
Zn350 O360 2.067 . S
Zn351 O352 1.962 . S
Zn351 O354 1.986 . S
Zn351 O356 1.996 . S
Zn351 O359 1.943 . S
O352 Zn351 1.962 . S
O352 C357 1.254 . S
O353 Zn350 2.031 . S
O353 C357 1.269 . S
O354 Zn351 1.986 . S
O354 C361 1.262 . S
O355 Zn350 2.049 . S
O355 C363 1.260 . S
O356 Zn351 1.996 . S
O356 C363 1.257 . S
C357 O352 1.254 . S
C357 O353 1.269 . S
C358 O359 1.249 . S
C358 O360 1.270 . S
O359 Zn351 1.943 . S
O359 C358 1.249 . S
O360 Zn350 2.067 . S
O360 C358 1.270 . S
C361 O354 1.262 . S
C361 O362 1.232 . S
O362 C361 1.232 . S
C363 O355 1.260 . S
C363 O356 1.257 . S
Zn364 O367 2.031 . S
Zn364 O369 2.049 . S
Zn364 O374 2.067 . S
Zn365 O366 1.962 . S
Zn365 O368 1.986 . S
Zn365 O370 1.996 . S
Zn365 O373 1.943 . S
O366 Zn365 1.962 . S
O366 C371 1.254 . S
O367 Zn364 2.031 . S
O367 C371 1.269 . S
O368 Zn365 1.986 . S
O368 C375 1.262 . S
O369 Zn364 2.049 . S
O369 C377 1.260 . S
O370 Zn365 1.996 . S
O370 C377 1.257 . S
C371 O366 1.254 . S
C371 O367 1.269 . S
C372 O373 1.249 . S
C372 O374 1.270 . S
O373 Zn365 1.943 . S
O373 C372 1.249 . S
O374 Zn364 2.067 . S
O374 C372 1.270 . S
C375 O368 1.262 . S
C375 O376 1.232 . S
O376 C375 1.232 . S
C377 O369 1.260 . S
C377 O370 1.257 . S
Zn378 O381 2.031 . S
Zn378 O383 2.049 . S
Zn378 O388 2.067 . S
Zn379 O380 1.962 . S
Zn379 O382 1.986 . S
Zn379 O384 1.996 . S
Zn379 O387 1.943 . S
O380 Zn379 1.962 . S
O380 C385 1.254 . S
O381 Zn378 2.031 . S
O381 C385 1.269 . S
O382 Zn379 1.986 . S
O382 C389 1.262 . S
O383 Zn378 2.049 . S
O383 C391 1.260 . S
O384 Zn379 1.996 . S
O384 C391 1.257 . S
C385 O380 1.254 . S
C385 O381 1.269 . S
C386 O387 1.249 . S
C386 O388 1.270 . S
O387 Zn379 1.943 . S
O387 C386 1.249 . S
O388 Zn378 2.067 . S
O388 C386 1.270 . S
C389 O382 1.262 . S
C389 O390 1.232 . S
O390 C389 1.232 . S
C391 O383 1.260 . S
C391 O384 1.257 . S
Zn392 O395 2.031 . S
Zn392 O397 2.049 . S
Zn392 O402 2.067 . S
Zn393 O394 1.962 . S
Zn393 O396 1.986 . S
Zn393 O398 1.996 . S
Zn393 O401 1.943 . S
O394 Zn393 1.962 . S
O394 C399 1.254 . S
O395 Zn392 2.031 . S
O395 C399 1.269 . S
O396 Zn393 1.986 . S
O396 C403 1.262 . S
O397 Zn392 2.049 . S
O397 C405 1.260 . S
O398 Zn393 1.996 . S
O398 C405 1.257 . S
C399 O394 1.254 . S
C399 O395 1.269 . S
C400 O401 1.249 . S
C400 O402 1.270 . S
O401 Zn393 1.943 . S
O401 C400 1.249 . S
O402 Zn392 2.067 . S
O402 C400 1.270 . S
C403 O396 1.262 . S
C403 O404 1.232 . S
O404 C403 1.232 . S
C405 O397 1.260 . S
C405 O398 1.257 . S
Zn406 O409 2.031 . S
Zn406 O411 2.049 . S
Zn406 O416 2.067 . S
Zn407 O408 1.962 . S
Zn407 O410 1.986 . S
Zn407 O412 1.996 . S
Zn407 O415 1.943 . S
O408 Zn407 1.962 . S
O408 C413 1.254 . S
O409 Zn406 2.031 . S
O409 C413 1.269 . S
O410 Zn407 1.986 . S
O410 C417 1.262 . S
O411 Zn406 2.049 . S
O411 C419 1.260 . S
O412 Zn407 1.996 . S
O412 C419 1.257 . S
C413 O408 1.254 . S
C413 O409 1.269 . S
C414 O415 1.249 . S
C414 O416 1.270 . S
O415 Zn407 1.943 . S
O415 C414 1.249 . S
O416 Zn406 2.067 . S
O416 C414 1.270 . S
C417 O410 1.262 . S
C417 O418 1.232 . S
O418 C417 1.232 . S
C419 O411 1.260 . S
C419 O412 1.257 . S
Zn420 O423 2.031 . S
Zn420 O425 2.049 . S
Zn420 O430 2.067 . S
Zn421 O422 1.962 . S
Zn421 O424 1.986 . S
Zn421 O426 1.996 . S
Zn421 O429 1.943 . S
O422 Zn421 1.962 . S
O422 C427 1.254 . S
O423 Zn420 2.031 . S
O423 C427 1.269 . S
O424 Zn421 1.986 . S
O424 C431 1.262 . S
O425 Zn420 2.049 . S
O425 C433 1.260 . S
O426 Zn421 1.996 . S
O426 C433 1.257 . S
C427 O422 1.254 . S
C427 O423 1.269 . S
C428 O429 1.249 . S
C428 O430 1.270 . S
O429 Zn421 1.943 . S
O429 C428 1.249 . S
O430 Zn420 2.067 . S
O430 C428 1.270 . S
C431 O424 1.262 . S
C431 O432 1.232 . S
O432 C431 1.232 . S
C433 O425 1.260 . S
C433 O426 1.257 . S
Zn434 O437 2.031 . S
Zn434 O439 2.049 . S
Zn434 O444 2.067 . S
Zn435 O436 1.962 . S
Zn435 O438 1.986 . S
Zn435 O440 1.996 . S
Zn435 O443 1.943 . S
O436 Zn435 1.962 . S
O436 C441 1.254 . S
O437 Zn434 2.031 . S
O437 C441 1.269 . S
O438 Zn435 1.986 . S
O438 C445 1.262 . S
O439 Zn434 2.049 . S
O439 C447 1.260 . S
O440 Zn435 1.996 . S
O440 C447 1.257 . S
C441 O436 1.254 . S
C441 O437 1.269 . S
C442 O443 1.249 . S
C442 O444 1.270 . S
O443 Zn435 1.943 . S
O443 C442 1.249 . S
O444 Zn434 2.067 . S
O444 C442 1.270 . S
C445 O438 1.262 . S
C445 O446 1.232 . S
O446 C445 1.232 . S
C447 O439 1.260 . S
C447 O440 1.257 . S
Zn448 O451 2.031 . S
Zn448 O453 2.049 . S
Zn448 O458 2.067 . S
Zn449 O450 1.962 . S
Zn449 O452 1.986 . S
Zn449 O454 1.996 . S
Zn449 O457 1.943 . S
O450 Zn449 1.962 . S
O450 C455 1.254 . S
O451 Zn448 2.031 . S
O451 C455 1.269 . S
O452 Zn449 1.986 . S
O452 C459 1.262 . S
O453 Zn448 2.049 . S
O453 C461 1.260 . S
O454 Zn449 1.996 . S
O454 C461 1.257 . S
C455 O450 1.254 . S
C455 O451 1.269 . S
C456 O457 1.249 . S
C456 O458 1.270 . S
O457 Zn449 1.943 . S
O457 C456 1.249 . S
O458 Zn448 2.067 . S
O458 C456 1.270 . S
C459 O452 1.262 . S
C459 O460 1.232 . S
O460 C459 1.232 . S
C461 O453 1.260 . S
C461 O454 1.257 . S
Zn462 O465 2.031 . S
Zn462 O467 2.049 . S
Zn462 O472 2.067 . S
Zn463 O464 1.962 . S
Zn463 O466 1.986 . S
Zn463 O468 1.996 . S
Zn463 O471 1.943 . S
O464 Zn463 1.962 . S
O464 C469 1.254 . S
O465 Zn462 2.031 . S
O465 C469 1.269 . S
O466 Zn463 1.986 . S
O466 C473 1.262 . S
O467 Zn462 2.049 . S
O467 C475 1.260 . S
O468 Zn463 1.996 . S
O468 C475 1.257 . S
C469 O464 1.254 . S
C469 O465 1.269 . S
C470 O471 1.249 . S
C470 O472 1.270 . S
O471 Zn463 1.943 . S
O471 C470 1.249 . S
O472 Zn462 2.067 . S
O472 C470 1.270 . S
C473 O466 1.262 . S
C473 O474 1.232 . S
O474 C473 1.232 . S
C475 O467 1.260 . S
C475 O468 1.257 . S
Zn476 O479 2.031 . S
Zn476 O481 2.049 . S
Zn476 O486 2.067 . S
Zn477 O478 1.962 . S
Zn477 O480 1.986 . S
Zn477 O482 1.996 . S
Zn477 O485 1.943 . S
O478 Zn477 1.962 . S
O478 C483 1.254 . S
O479 Zn476 2.031 . S
O479 C483 1.269 . S
O480 Zn477 1.986 . S
O480 C487 1.262 . S
O481 Zn476 2.049 . S
O481 C489 1.260 . S
O482 Zn477 1.996 . S
O482 C489 1.257 . S
C483 O478 1.254 . S
C483 O479 1.269 . S
C484 O485 1.249 . S
C484 O486 1.270 . S
O485 Zn477 1.943 . S
O485 C484 1.249 . S
O486 Zn476 2.067 . S
O486 C484 1.270 . S
C487 O480 1.262 . S
C487 O488 1.232 . S
O488 C487 1.232 . S
C489 O481 1.260 . S
C489 O482 1.257 . S
Zn490 O493 2.031 . S
Zn490 O495 2.049 . S
Zn490 O500 2.067 . S
Zn491 O492 1.962 . S
Zn491 O494 1.986 . S
Zn491 O496 1.996 . S
Zn491 O499 1.943 . S
O492 Zn491 1.962 . S
O492 C497 1.254 . S
O493 Zn490 2.031 . S
O493 C497 1.269 . S
O494 Zn491 1.986 . S
O494 C501 1.262 . S
O495 Zn490 2.049 . S
O495 C503 1.260 . S
O496 Zn491 1.996 . S
O496 C503 1.257 . S
C497 O492 1.254 . S
C497 O493 1.269 . S
C498 O499 1.249 . S
C498 O500 1.270 . S
O499 Zn491 1.943 . S
O499 C498 1.249 . S
O500 Zn490 2.067 . S
O500 C498 1.270 . S
C501 O494 1.262 . S
C501 O502 1.232 . S
O502 C501 1.232 . S
C503 O495 1.260 . S
C503 O496 1.257 . S
Zn504 O507 2.031 . S
Zn504 O509 2.049 . S
Zn504 O514 2.067 . S
Zn505 O506 1.962 . S
Zn505 O508 1.986 . S
Zn505 O510 1.996 . S
Zn505 O513 1.943 . S
O506 Zn505 1.962 . S
O506 C511 1.254 . S
O507 Zn504 2.031 . S
O507 C511 1.269 . S
O508 Zn505 1.986 . S
O508 C515 1.262 . S
O509 Zn504 2.049 . S
O509 C517 1.260 . S
O510 Zn505 1.996 . S
O510 C517 1.257 . S
C511 O506 1.254 . S
C511 O507 1.269 . S
C512 O513 1.249 . S
C512 O514 1.270 . S
O513 Zn505 1.943 . S
O513 C512 1.249 . S
O514 Zn504 2.067 . S
O514 C512 1.270 . S
C515 O508 1.262 . S
C515 O516 1.232 . S
O516 C515 1.232 . S
C517 O509 1.260 . S
C517 O510 1.257 . S
Zn518 O521 2.031 . S
Zn518 O523 2.049 . S
Zn518 O528 2.067 . S
Zn519 O520 1.962 . S
Zn519 O522 1.986 . S
Zn519 O524 1.996 . S
Zn519 O527 1.943 . S
O520 Zn519 1.962 . S
O520 C525 1.254 . S
O521 Zn518 2.031 . S
O521 C525 1.269 . S
O522 Zn519 1.986 . S
O522 C529 1.262 . S
O523 Zn518 2.049 . S
O523 C531 1.260 . S
O524 Zn519 1.996 . S
O524 C531 1.257 . S
C525 O520 1.254 . S
C525 O521 1.269 . S
C526 O527 1.249 . S
C526 O528 1.270 . S
O527 Zn519 1.943 . S
O527 C526 1.249 . S
O528 Zn518 2.067 . S
O528 C526 1.270 . S
C529 O522 1.262 . S
C529 O530 1.232 . S
O530 C529 1.232 . S
C531 O523 1.260 . S
C531 O524 1.257 . S
Zn532 O535 2.031 . S
Zn532 O537 2.049 . S
Zn532 O542 2.067 . S
Zn533 O534 1.962 . S
Zn533 O536 1.986 . S
Zn533 O538 1.996 . S
Zn533 O541 1.943 . S
O534 Zn533 1.962 . S
O534 C539 1.254 . S
O535 Zn532 2.031 . S
O535 C539 1.269 . S
O536 Zn533 1.986 . S
O536 C543 1.262 . S
O537 Zn532 2.049 . S
O537 C545 1.260 . S
O538 Zn533 1.996 . S
O538 C545 1.257 . S
C539 O534 1.254 . S
C539 O535 1.269 . S
C540 O541 1.249 . S
C540 O542 1.270 . S
O541 Zn533 1.943 . S
O541 C540 1.249 . S
O542 Zn532 2.067 . S
O542 C540 1.270 . S
C543 O536 1.262 . S
C543 O544 1.232 . S
O544 C543 1.232 . S
C545 O537 1.260 . S
C545 O538 1.257 . S
Zn546 O549 2.031 . S
Zn546 O551 2.049 . S
Zn546 O556 2.067 . S
Zn547 O548 1.962 . S
Zn547 O550 1.986 . S
Zn547 O552 1.996 . S
Zn547 O555 1.943 . S
O548 Zn547 1.962 . S
O548 C553 1.254 . S
O549 Zn546 2.031 . S
O549 C553 1.269 . S
O550 Zn547 1.986 . S
O550 C557 1.262 . S
O551 Zn546 2.049 . S
O551 C559 1.260 . S
O552 Zn547 1.996 . S
O552 C559 1.257 . S
C553 O548 1.254 . S
C553 O549 1.269 . S
C554 O555 1.249 . S
C554 O556 1.270 . S
O555 Zn547 1.943 . S
O555 C554 1.249 . S
O556 Zn546 2.067 . S
O556 C554 1.270 . S
C557 O550 1.262 . S
C557 O558 1.232 . S
O558 C557 1.232 . S
C559 O551 1.260 . S
C559 O552 1.257 . S
Zn560 O563 2.031 . S
Zn560 O565 2.049 . S
Zn560 O570 2.067 . S
Zn561 O562 1.962 . S
Zn561 O564 1.986 . S
Zn561 O566 1.996 . S
Zn561 O569 1.943 . S
O562 Zn561 1.962 . S
O562 C567 1.254 . S
O563 Zn560 2.031 . S
O563 C567 1.269 . S
O564 Zn561 1.986 . S
O564 C571 1.262 . S
O565 Zn560 2.049 . S
O565 C573 1.260 . S
O566 Zn561 1.996 . S
O566 C573 1.257 . S
C567 O562 1.254 . S
C567 O563 1.269 . S
C568 O569 1.249 . S
C568 O570 1.270 . S
O569 Zn561 1.943 . S
O569 C568 1.249 . S
O570 Zn560 2.067 . S
O570 C568 1.270 . S
C571 O564 1.262 . S
C571 O572 1.232 . S
O572 C571 1.232 . S
C573 O565 1.260 . S
C573 O566 1.257 . S
Zn574 O577 2.031 . S
Zn574 O579 2.049 . S
Zn574 O584 2.067 . S
Zn575 O576 1.962 . S
Zn575 O578 1.986 . S
Zn575 O580 1.996 . S
Zn575 O583 1.943 . S
O576 Zn575 1.962 . S
O576 C581 1.254 . S
O577 Zn574 2.031 . S
O577 C581 1.269 . S
O578 Zn575 1.986 . S
O578 C585 1.262 . S
O579 Zn574 2.049 . S
O579 C587 1.260 . S
O580 Zn575 1.996 . S
O580 C587 1.257 . S
C581 O576 1.254 . S
C581 O577 1.269 . S
C582 O583 1.249 . S
C582 O584 1.270 . S
O583 Zn575 1.943 . S
O583 C582 1.249 . S
O584 Zn574 2.067 . S
O584 C582 1.270 . S
C585 O578 1.262 . S
C585 O586 1.232 . S
O586 C585 1.232 . S
C587 O579 1.260 . S
C587 O580 1.257 . S
Zn588 O591 2.031 . S
Zn588 O593 2.049 . S
Zn588 O598 2.067 . S
Zn589 O590 1.962 . S
Zn589 O592 1.986 . S
Zn589 O594 1.996 . S
Zn589 O597 1.943 . S
O590 Zn589 1.962 . S
O590 C595 1.254 . S
O591 Zn588 2.031 . S
O591 C595 1.269 . S
O592 Zn589 1.986 . S
O592 C599 1.262 . S
O593 Zn588 2.049 . S
O593 C601 1.260 . S
O594 Zn589 1.996 . S
O594 C601 1.257 . S
C595 O590 1.254 . S
C595 O591 1.269 . S
C596 O597 1.249 . S
C596 O598 1.270 . S
O597 Zn589 1.943 . S
O597 C596 1.249 . S
O598 Zn588 2.067 . S
O598 C596 1.270 . S
C599 O592 1.262 . S
C599 O600 1.232 . S
O600 C599 1.232 . S
C601 O593 1.260 . S
C601 O594 1.257 . S
Zn602 O605 2.031 . S
Zn602 O607 2.049 . S
Zn602 O612 2.067 . S
Zn603 O604 1.962 . S
Zn603 O606 1.986 . S
Zn603 O608 1.996 . S
Zn603 O611 1.943 . S
O604 Zn603 1.962 . S
O604 C609 1.254 . S
O605 Zn602 2.031 . S
O605 C609 1.269 . S
O606 Zn603 1.986 . S
O606 C613 1.262 . S
O607 Zn602 2.049 . S
O607 C615 1.260 . S
O608 Zn603 1.996 . S
O608 C615 1.257 . S
C609 O604 1.254 . S
C609 O605 1.269 . S
C610 O611 1.249 . S
C610 O612 1.270 . S
O611 Zn603 1.943 . S
O611 C610 1.249 . S
O612 Zn602 2.067 . S
O612 C610 1.270 . S
C613 O606 1.262 . S
C613 O614 1.232 . S
O614 C613 1.232 . S
C615 O607 1.260 . S
C615 O608 1.257 . S
Zn616 O619 2.031 . S
Zn616 O621 2.049 . S
Zn616 O626 2.067 . S
Zn617 O618 1.962 . S
Zn617 O620 1.986 . S
Zn617 O622 1.996 . S
Zn617 O625 1.943 . S
O618 Zn617 1.962 . S
O618 C623 1.254 . S
O619 Zn616 2.031 . S
O619 C623 1.269 . S
O620 Zn617 1.986 . S
O620 C627 1.262 . S
O621 Zn616 2.049 . S
O621 C629 1.260 . S
O622 Zn617 1.996 . S
O622 C629 1.257 . S
C623 O618 1.254 . S
C623 O619 1.269 . S
C624 O625 1.249 . S
C624 O626 1.270 . S
O625 Zn617 1.943 . S
O625 C624 1.249 . S
O626 Zn616 2.067 . S
O626 C624 1.270 . S
C627 O620 1.262 . S
C627 O628 1.232 . S
O628 C627 1.232 . S
C629 O621 1.260 . S
C629 O622 1.257 . S
Zn630 O633 2.031 . S
Zn630 O635 2.049 . S
Zn630 O640 2.067 . S
Zn631 O632 1.962 . S
Zn631 O634 1.986 . S
Zn631 O636 1.996 . S
Zn631 O639 1.943 . S
O632 Zn631 1.962 . S
O632 C637 1.254 . S
O633 Zn630 2.031 . S
O633 C637 1.269 . S
O634 Zn631 1.986 . S
O634 C641 1.262 . S
O635 Zn630 2.049 . S
O635 C643 1.260 . S
O636 Zn631 1.996 . S
O636 C643 1.257 . S
C637 O632 1.254 . S
C637 O633 1.269 . S
C638 O639 1.249 . S
C638 O640 1.270 . S
O639 Zn631 1.943 . S
O639 C638 1.249 . S
O640 Zn630 2.067 . S
O640 C638 1.270 . S
C641 O634 1.262 . S
C641 O642 1.232 . S
O642 C641 1.232 . S
C643 O635 1.260 . S
C643 O636 1.257 . S
Zn644 O647 2.031 . S
Zn644 O649 2.049 . S
Zn644 O654 2.067 . S
Zn645 O646 1.962 . S
Zn645 O648 1.986 . S
Zn645 O650 1.996 . S
Zn645 O653 1.943 . S
O646 Zn645 1.962 . S
O646 C651 1.254 . S
O647 Zn644 2.031 . S
O647 C651 1.269 . S
O648 Zn645 1.986 . S
O648 C655 1.262 . S
O649 Zn644 2.049 . S
O649 C657 1.260 . S
O650 Zn645 1.996 . S
O650 C657 1.257 . S
C651 O646 1.254 . S
C651 O647 1.269 . S
C652 O653 1.249 . S
C652 O654 1.270 . S
O653 Zn645 1.943 . S
O653 C652 1.249 . S
O654 Zn644 2.067 . S
O654 C652 1.270 . S
C655 O648 1.262 . S
C655 O656 1.232 . S
O656 C655 1.232 . S
C657 O649 1.260 . S
C657 O650 1.257 . S
Zn658 O661 2.031 . S
Zn658 O663 2.049 . S
Zn658 O668 2.067 . S
Zn659 O660 1.962 . S
Zn659 O662 1.986 . S
Zn659 O664 1.996 . S
Zn659 O667 1.943 . S
O660 Zn659 1.962 . S
O660 C665 1.254 . S
O661 Zn658 2.031 . S
O661 C665 1.269 . S
O662 Zn659 1.986 . S
O662 C669 1.262 . S
O663 Zn658 2.049 . S
O663 C671 1.260 . S
O664 Zn659 1.996 . S
O664 C671 1.257 . S
C665 O660 1.254 . S
C665 O661 1.269 . S
C666 O667 1.249 . S
C666 O668 1.270 . S
O667 Zn659 1.943 . S
O667 C666 1.249 . S
O668 Zn658 2.067 . S
O668 C666 1.270 . S
C669 O662 1.262 . S
C669 O670 1.232 . S
O670 C669 1.232 . S
C671 O663 1.260 . S
C671 O664 1.257 . S
C672 C673 1.369 . S
C672 C674 1.419 . S
C672 H676 0.930 . S
C673 C672 1.369 . S
C673 C682 1.429 . S
C674 C672 1.419 . S
C674 C675 1.363 . S
C674 H677 0.929 . S
C675 C674 1.363 . S
C675 C681 1.428 . S
H676 C672 0.930 . S
H677 C674 0.929 . S
S678 N679 1.613 . S
S678 N680 1.610 . S
N679 S678 1.613 . S
N679 C682 1.350 . S
N680 S678 1.610 . S
N680 C681 1.351 . S
C681 C675 1.428 . S
C681 N680 1.351 . S
C681 C682 1.434 . S
C682 C673 1.429 . S
C682 N679 1.350 . S
C682 C681 1.434 . S
C683 C684 1.369 . S
C683 C685 1.419 . S
C683 H687 0.930 . S
C684 C683 1.369 . S
C684 C693 1.429 . S
C685 C683 1.419 . S
C685 C686 1.363 . S
C685 H688 0.929 . S
C686 C685 1.363 . S
C686 C692 1.428 . S
H687 C683 0.930 . S
H688 C685 0.929 . S
S689 N690 1.613 . S
S689 N691 1.610 . S
N690 S689 1.613 . S
N690 C693 1.350 . S
N691 S689 1.610 . S
N691 C692 1.351 . S
C692 C686 1.428 . S
C692 N691 1.351 . S
C692 C693 1.434 . S
C693 C684 1.429 . S
C693 N690 1.350 . S
C693 C692 1.434 . S
C694 C695 1.369 . S
C694 C696 1.419 . S
C694 H698 0.930 . S
C695 C694 1.369 . S
C695 C704 1.429 . S
C696 C694 1.419 . S
C696 C697 1.363 . S
C696 H699 0.929 . S
C697 C696 1.363 . S
C697 C703 1.428 . S
H698 C694 0.930 . S
H699 C696 0.929 . S
S700 N701 1.613 . S
S700 N702 1.610 . S
N701 S700 1.613 . S
N701 C704 1.350 . S
N702 S700 1.610 . S
N702 C703 1.351 . S
C703 C697 1.428 . S
C703 N702 1.351 . S
C703 C704 1.434 . S
C704 C695 1.429 . S
C704 N701 1.350 . S
C704 C703 1.434 . S
C705 C706 1.369 . S
C705 C707 1.419 . S
C705 H709 0.930 . S
C706 C705 1.369 . S
C706 C715 1.429 . S
C707 C705 1.419 . S
C707 C708 1.363 . S
C707 H710 0.929 . S
C708 C707 1.363 . S
C708 C714 1.428 . S
H709 C705 0.930 . S
H710 C707 0.929 . S
S711 N712 1.613 . S
S711 N713 1.610 . S
N712 S711 1.613 . S
N712 C715 1.350 . S
N713 S711 1.610 . S
N713 C714 1.351 . S
C714 C708 1.428 . S
C714 N713 1.351 . S
C714 C715 1.434 . S
C715 C706 1.429 . S
C715 N712 1.350 . S
C715 C714 1.434 . S
C716 C717 1.369 . S
C716 C718 1.419 . S
C716 H720 0.930 . S
C717 C716 1.369 . S
C717 C726 1.429 . S
C718 C716 1.419 . S
C718 C719 1.363 . S
C718 H721 0.929 . S
C719 C718 1.363 . S
C719 C725 1.428 . S
H720 C716 0.930 . S
H721 C718 0.929 . S
S722 N723 1.613 . S
S722 N724 1.610 . S
N723 S722 1.613 . S
N723 C726 1.350 . S
N724 S722 1.610 . S
N724 C725 1.351 . S
C725 C719 1.428 . S
C725 N724 1.351 . S
C725 C726 1.434 . S
C726 C717 1.429 . S
C726 N723 1.350 . S
C726 C725 1.434 . S
C727 C728 1.369 . S
C727 C729 1.419 . S
C727 H731 0.930 . S
C728 C727 1.369 . S
C728 C737 1.429 . S
C729 C727 1.419 . S
C729 C730 1.363 . S
C729 H732 0.929 . S
C730 C729 1.363 . S
C730 C736 1.428 . S
H731 C727 0.930 . S
H732 C729 0.929 . S
S733 N734 1.613 . S
S733 N735 1.610 . S
N734 S733 1.613 . S
N734 C737 1.350 . S
N735 S733 1.610 . S
N735 C736 1.351 . S
C736 C730 1.428 . S
C736 N735 1.351 . S
C736 C737 1.434 . S
C737 C728 1.429 . S
C737 N734 1.350 . S
C737 C736 1.434 . S
C738 C739 1.369 . S
C738 C740 1.419 . S
C738 H742 0.930 . S
C739 C738 1.369 . S
C739 C748 1.429 . S
C740 C738 1.419 . S
C740 C741 1.363 . S
C740 H743 0.929 . S
C741 C740 1.363 . S
C741 C747 1.428 . S
H742 C738 0.930 . S
H743 C740 0.929 . S
S744 N745 1.613 . S
S744 N746 1.610 . S
N745 S744 1.613 . S
N745 C748 1.350 . S
N746 S744 1.610 . S
N746 C747 1.351 . S
C747 C741 1.428 . S
C747 N746 1.351 . S
C747 C748 1.434 . S
C748 C739 1.429 . S
C748 N745 1.350 . S
C748 C747 1.434 . S
C749 C750 1.369 . S
C749 C751 1.419 . S
C749 H753 0.930 . S
C750 C749 1.369 . S
C750 C759 1.429 . S
C751 C749 1.419 . S
C751 C752 1.363 . S
C751 H754 0.929 . S
C752 C751 1.363 . S
C752 C758 1.428 . S
H753 C749 0.930 . S
H754 C751 0.929 . S
S755 N756 1.613 . S
S755 N757 1.610 . S
N756 S755 1.613 . S
N756 C759 1.350 . S
N757 S755 1.610 . S
N757 C758 1.351 . S
C758 C752 1.428 . S
C758 N757 1.351 . S
C758 C759 1.434 . S
C759 C750 1.429 . S
C759 N756 1.350 . S
C759 C758 1.434 . S
C760 C761 1.369 . S
C760 C762 1.419 . S
C760 H764 0.930 . S
C761 C760 1.369 . S
C761 C770 1.429 . S
C762 C760 1.419 . S
C762 C763 1.363 . S
C762 H765 0.929 . S
C763 C762 1.363 . S
C763 C769 1.428 . S
H764 C760 0.930 . S
H765 C762 0.929 . S
S766 N767 1.613 . S
S766 N768 1.610 . S
N767 S766 1.613 . S
N767 C770 1.350 . S
N768 S766 1.610 . S
N768 C769 1.351 . S
C769 C763 1.428 . S
C769 N768 1.351 . S
C769 C770 1.434 . S
C770 C761 1.429 . S
C770 N767 1.350 . S
C770 C769 1.434 . S
C771 C772 1.369 . S
C771 C773 1.419 . S
C771 H775 0.930 . S
C772 C771 1.369 . S
C772 C781 1.429 . S
C773 C771 1.419 . S
C773 C774 1.363 . S
C773 H776 0.929 . S
C774 C773 1.363 . S
C774 C780 1.428 . S
H775 C771 0.930 . S
H776 C773 0.929 . S
S777 N778 1.613 . S
S777 N779 1.610 . S
N778 S777 1.613 . S
N778 C781 1.350 . S
N779 S777 1.610 . S
N779 C780 1.351 . S
C780 C774 1.428 . S
C780 N779 1.351 . S
C780 C781 1.434 . S
C781 C772 1.429 . S
C781 N778 1.350 . S
C781 C780 1.434 . S
C782 C783 1.369 . S
C782 C784 1.419 . S
C782 H786 0.930 . S
C783 C782 1.369 . S
C783 C792 1.429 . S
C784 C782 1.419 . S
C784 C785 1.363 . S
C784 H787 0.929 . S
C785 C784 1.363 . S
C785 C791 1.428 . S
H786 C782 0.930 . S
H787 C784 0.929 . S
S788 N789 1.613 . S
S788 N790 1.610 . S
N789 S788 1.613 . S
N789 C792 1.350 . S
N790 S788 1.610 . S
N790 C791 1.351 . S
C791 C785 1.428 . S
C791 N790 1.351 . S
C791 C792 1.434 . S
C792 C783 1.429 . S
C792 N789 1.350 . S
C792 C791 1.434 . S
C793 C794 1.369 . S
C793 C795 1.419 . S
C793 H797 0.930 . S
C794 C793 1.369 . S
C794 C803 1.429 . S
C795 C793 1.419 . S
C795 C796 1.363 . S
C795 H798 0.929 . S
C796 C795 1.363 . S
C796 C802 1.428 . S
H797 C793 0.930 . S
H798 C795 0.929 . S
S799 N800 1.613 . S
S799 N801 1.610 . S
N800 S799 1.613 . S
N800 C803 1.350 . S
N801 S799 1.610 . S
N801 C802 1.351 . S
C802 C796 1.428 . S
C802 N801 1.351 . S
C802 C803 1.434 . S
C803 C794 1.429 . S
C803 N800 1.350 . S
C803 C802 1.434 . S
C804 C805 1.369 . S
C804 C806 1.419 . S
C804 H808 0.930 . S
C805 C804 1.369 . S
C805 C814 1.429 . S
C806 C804 1.419 . S
C806 C807 1.363 . S
C806 H809 0.929 . S
C807 C806 1.363 . S
C807 C813 1.428 . S
H808 C804 0.930 . S
H809 C806 0.929 . S
S810 N811 1.613 . S
S810 N812 1.610 . S
N811 S810 1.613 . S
N811 C814 1.350 . S
N812 S810 1.610 . S
N812 C813 1.351 . S
C813 C807 1.428 . S
C813 N812 1.351 . S
C813 C814 1.434 . S
C814 C805 1.429 . S
C814 N811 1.350 . S
C814 C813 1.434 . S
C815 C816 1.369 . S
C815 C817 1.419 . S
C815 H819 0.930 . S
C816 C815 1.369 . S
C816 C825 1.429 . S
C817 C815 1.419 . S
C817 C818 1.363 . S
C817 H820 0.929 . S
C818 C817 1.363 . S
C818 C824 1.428 . S
H819 C815 0.930 . S
H820 C817 0.929 . S
S821 N822 1.613 . S
S821 N823 1.610 . S
N822 S821 1.613 . S
N822 C825 1.350 . S
N823 S821 1.610 . S
N823 C824 1.351 . S
C824 C818 1.428 . S
C824 N823 1.351 . S
C824 C825 1.434 . S
C825 C816 1.429 . S
C825 N822 1.350 . S
C825 C824 1.434 . S
C826 C827 1.369 . S
C826 C828 1.419 . S
C826 H830 0.930 . S
C827 C826 1.369 . S
C827 C836 1.429 . S
C828 C826 1.419 . S
C828 C829 1.363 . S
C828 H831 0.929 . S
C829 C828 1.363 . S
C829 C835 1.428 . S
H830 C826 0.930 . S
H831 C828 0.929 . S
S832 N833 1.613 . S
S832 N834 1.610 . S
N833 S832 1.613 . S
N833 C836 1.350 . S
N834 S832 1.610 . S
N834 C835 1.351 . S
C835 C829 1.428 . S
C835 N834 1.351 . S
C835 C836 1.434 . S
C836 C827 1.429 . S
C836 N833 1.350 . S
C836 C835 1.434 . S
C837 C838 1.369 . S
C837 C839 1.419 . S
C837 H841 0.930 . S
C838 C837 1.369 . S
C838 C847 1.429 . S
C839 C837 1.419 . S
C839 C840 1.363 . S
C839 H842 0.929 . S
C840 C839 1.363 . S
C840 C846 1.428 . S
H841 C837 0.930 . S
H842 C839 0.929 . S
S843 N844 1.613 . S
S843 N845 1.610 . S
N844 S843 1.613 . S
N844 C847 1.350 . S
N845 S843 1.610 . S
N845 C846 1.351 . S
C846 C840 1.428 . S
C846 N845 1.351 . S
C846 C847 1.434 . S
C847 C838 1.429 . S
C847 N844 1.350 . S
C847 C846 1.434 . S
C848 C849 1.369 . S
C848 C850 1.419 . S
C848 H852 0.930 . S
C849 C848 1.369 . S
C849 C858 1.429 . S
C850 C848 1.419 . S
C850 C851 1.363 . S
C850 H853 0.929 . S
C851 C850 1.363 . S
C851 C857 1.428 . S
H852 C848 0.930 . S
H853 C850 0.929 . S
S854 N855 1.613 . S
S854 N856 1.610 . S
N855 S854 1.613 . S
N855 C858 1.350 . S
N856 S854 1.610 . S
N856 C857 1.351 . S
C857 C851 1.428 . S
C857 N856 1.351 . S
C857 C858 1.434 . S
C858 C849 1.429 . S
C858 N855 1.350 . S
C858 C857 1.434 . S
C859 C860 1.369 . S
C859 C861 1.419 . S
C859 H863 0.930 . S
C860 C859 1.369 . S
C860 C869 1.429 . S
C861 C859 1.419 . S
C861 C862 1.363 . S
C861 H864 0.929 . S
C862 C861 1.363 . S
C862 C868 1.428 . S
H863 C859 0.930 . S
H864 C861 0.929 . S
S865 N866 1.613 . S
S865 N867 1.610 . S
N866 S865 1.613 . S
N866 C869 1.350 . S
N867 S865 1.610 . S
N867 C868 1.351 . S
C868 C862 1.428 . S
C868 N867 1.351 . S
C868 C869 1.434 . S
C869 C860 1.429 . S
C869 N866 1.350 . S
C869 C868 1.434 . S
C870 C871 1.369 . S
C870 C872 1.419 . S
C870 H874 0.930 . S
C871 C870 1.369 . S
C871 C880 1.429 . S
C872 C870 1.419 . S
C872 C873 1.363 . S
C872 H875 0.929 . S
C873 C872 1.363 . S
C873 C879 1.428 . S
H874 C870 0.930 . S
H875 C872 0.929 . S
S876 N877 1.613 . S
S876 N878 1.610 . S
N877 S876 1.613 . S
N877 C880 1.350 . S
N878 S876 1.610 . S
N878 C879 1.351 . S
C879 C873 1.428 . S
C879 N878 1.351 . S
C879 C880 1.434 . S
C880 C871 1.429 . S
C880 N877 1.350 . S
C880 C879 1.434 . S
C881 C882 1.369 . S
C881 C883 1.419 . S
C881 H885 0.930 . S
C882 C881 1.369 . S
C882 C891 1.429 . S
C883 C881 1.419 . S
C883 C884 1.363 . S
C883 H886 0.929 . S
C884 C883 1.363 . S
C884 C890 1.428 . S
H885 C881 0.930 . S
H886 C883 0.929 . S
S887 N888 1.613 . S
S887 N889 1.610 . S
N888 S887 1.613 . S
N888 C891 1.350 . S
N889 S887 1.610 . S
N889 C890 1.351 . S
C890 C884 1.428 . S
C890 N889 1.351 . S
C890 C891 1.434 . S
C891 C882 1.429 . S
C891 N888 1.350 . S
C891 C890 1.434 . S
C892 C893 1.369 . S
C892 C894 1.419 . S
C892 H896 0.930 . S
C893 C892 1.369 . S
C893 C902 1.429 . S
C894 C892 1.419 . S
C894 C895 1.363 . S
C894 H897 0.929 . S
C895 C894 1.363 . S
C895 C901 1.428 . S
H896 C892 0.930 . S
H897 C894 0.929 . S
S898 N899 1.613 . S
S898 N900 1.610 . S
N899 S898 1.613 . S
N899 C902 1.350 . S
N900 S898 1.610 . S
N900 C901 1.351 . S
C901 C895 1.428 . S
C901 N900 1.351 . S
C901 C902 1.434 . S
C902 C893 1.429 . S
C902 N899 1.350 . S
C902 C901 1.434 . S
C903 C904 1.369 . S
C903 C905 1.419 . S
C903 H907 0.930 . S
C904 C903 1.369 . S
C904 C913 1.429 . S
C905 C903 1.419 . S
C905 C906 1.363 . S
C905 H908 0.929 . S
C906 C905 1.363 . S
C906 C912 1.428 . S
H907 C903 0.930 . S
H908 C905 0.929 . S
S909 N910 1.613 . S
S909 N911 1.610 . S
N910 S909 1.613 . S
N910 C913 1.350 . S
N911 S909 1.610 . S
N911 C912 1.351 . S
C912 C906 1.428 . S
C912 N911 1.351 . S
C912 C913 1.434 . S
C913 C904 1.429 . S
C913 N910 1.350 . S
C913 C912 1.434 . S
C914 C915 1.369 . S
C914 C916 1.419 . S
C914 H918 0.930 . S
C915 C914 1.369 . S
C915 C924 1.429 . S
C916 C914 1.419 . S
C916 C917 1.363 . S
C916 H919 0.929 . S
C917 C916 1.363 . S
C917 C923 1.428 . S
H918 C914 0.930 . S
H919 C916 0.929 . S
S920 N921 1.613 . S
S920 N922 1.610 . S
N921 S920 1.613 . S
N921 C924 1.350 . S
N922 S920 1.610 . S
N922 C923 1.351 . S
C923 C917 1.428 . S
C923 N922 1.351 . S
C923 C924 1.434 . S
C924 C915 1.429 . S
C924 N921 1.350 . S
C924 C923 1.434 . S
C925 C926 1.369 . S
C925 C927 1.419 . S
C925 H929 0.930 . S
C926 C925 1.369 . S
C926 C935 1.429 . S
C927 C925 1.419 . S
C927 C928 1.363 . S
C927 H930 0.929 . S
C928 C927 1.363 . S
C928 C934 1.428 . S
H929 C925 0.930 . S
H930 C927 0.929 . S
S931 N932 1.613 . S
S931 N933 1.610 . S
N932 S931 1.613 . S
N932 C935 1.350 . S
N933 S931 1.610 . S
N933 C934 1.351 . S
C934 C928 1.428 . S
C934 N933 1.351 . S
C934 C935 1.434 . S
C935 C926 1.429 . S
C935 N932 1.350 . S
C935 C934 1.434 . S
C936 C937 1.369 . S
C936 C938 1.419 . S
C936 H940 0.930 . S
C937 C936 1.369 . S
C937 C946 1.429 . S
C938 C936 1.419 . S
C938 C939 1.363 . S
C938 H941 0.929 . S
C939 C938 1.363 . S
C939 C945 1.428 . S
H940 C936 0.930 . S
H941 C938 0.929 . S
S942 N943 1.613 . S
S942 N944 1.610 . S
N943 S942 1.613 . S
N943 C946 1.350 . S
N944 S942 1.610 . S
N944 C945 1.351 . S
C945 C939 1.428 . S
C945 N944 1.351 . S
C945 C946 1.434 . S
C946 C937 1.429 . S
C946 N943 1.350 . S
C946 C945 1.434 . S
C947 C948 1.369 . S
C947 C949 1.419 . S
C947 H951 0.930 . S
C948 C947 1.369 . S
C948 C957 1.429 . S
C949 C947 1.419 . S
C949 C950 1.363 . S
C949 H952 0.929 . S
C950 C949 1.363 . S
C950 C956 1.428 . S
H951 C947 0.930 . S
H952 C949 0.929 . S
S953 N954 1.613 . S
S953 N955 1.610 . S
N954 S953 1.613 . S
N954 C957 1.350 . S
N955 S953 1.610 . S
N955 C956 1.351 . S
C956 C950 1.428 . S
C956 N955 1.351 . S
C956 C957 1.434 . S
C957 C948 1.429 . S
C957 N954 1.350 . S
C957 C956 1.434 . S
C958 C959 1.369 . S
C958 C960 1.419 . S
C958 H962 0.930 . S
C959 C958 1.369 . S
C959 C968 1.429 . S
C960 C958 1.419 . S
C960 C961 1.363 . S
C960 H963 0.929 . S
C961 C960 1.363 . S
C961 C967 1.428 . S
H962 C958 0.930 . S
H963 C960 0.929 . S
S964 N965 1.613 . S
S964 N966 1.610 . S
N965 S964 1.613 . S
N965 C968 1.350 . S
N966 S964 1.610 . S
N966 C967 1.351 . S
C967 C961 1.428 . S
C967 N966 1.351 . S
C967 C968 1.434 . S
C968 C959 1.429 . S
C968 N965 1.350 . S
C968 C967 1.434 . S
C969 C970 1.369 . S
C969 C971 1.419 . S
C969 H973 0.930 . S
C970 C969 1.369 . S
C970 C979 1.429 . S
C971 C969 1.419 . S
C971 C972 1.363 . S
C971 H974 0.929 . S
C972 C971 1.363 . S
C972 C978 1.428 . S
H973 C969 0.930 . S
H974 C971 0.929 . S
S975 N976 1.613 . S
S975 N977 1.610 . S
N976 S975 1.613 . S
N976 C979 1.350 . S
N977 S975 1.610 . S
N977 C978 1.351 . S
C978 C972 1.428 . S
C978 N977 1.351 . S
C978 C979 1.434 . S
C979 C970 1.429 . S
C979 N976 1.350 . S
C979 C978 1.434 . S
C980 C981 1.369 . S
C980 C982 1.419 . S
C980 H984 0.930 . S
C981 C980 1.369 . S
C981 C990 1.429 . S
C982 C980 1.419 . S
C982 C983 1.363 . S
C982 H985 0.929 . S
C983 C982 1.363 . S
C983 C989 1.428 . S
H984 C980 0.930 . S
H985 C982 0.929 . S
S986 N987 1.613 . S
S986 N988 1.610 . S
N987 S986 1.613 . S
N987 C990 1.350 . S
N988 S986 1.610 . S
N988 C989 1.351 . S
C989 C983 1.428 . S
C989 N988 1.351 . S
C989 C990 1.434 . S
C990 C981 1.429 . S
C990 N987 1.350 . S
C990 C989 1.434 . S
C991 C992 1.369 . S
C991 C993 1.419 . S
C991 H995 0.930 . S
C992 C991 1.369 . S
C992 C1001 1.429 . S
C993 C991 1.419 . S
C993 C994 1.363 . S
C993 H996 0.929 . S
C994 C993 1.363 . S
C994 C1000 1.428 . S
H995 C991 0.930 . S
H996 C993 0.929 . S
S997 N998 1.613 . S
S997 N999 1.610 . S
N998 S997 1.613 . S
N998 C1001 1.350 . S
N999 S997 1.610 . S
N999 C1000 1.351 . S
C1000 C994 1.428 . S
C1000 N999 1.351 . S
C1000 C1001 1.434 . S
C1001 C992 1.429 . S
C1001 N998 1.350 . S
C1001 C1000 1.434 . S
C1002 C1003 1.369 . S
C1002 C1004 1.419 . S
C1002 H1006 0.930 . S
C1003 C1002 1.369 . S
C1003 C1012 1.429 . S
C1004 C1002 1.419 . S
C1004 C1005 1.363 . S
C1004 H1007 0.929 . S
C1005 C1004 1.363 . S
C1005 C1011 1.428 . S
H1006 C1002 0.930 . S
H1007 C1004 0.929 . S
S1008 N1009 1.613 . S
S1008 N1010 1.610 . S
N1009 S1008 1.613 . S
N1009 C1012 1.350 . S
N1010 S1008 1.610 . S
N1010 C1011 1.351 . S
C1011 C1005 1.428 . S
C1011 N1010 1.351 . S
C1011 C1012 1.434 . S
C1012 C1003 1.429 . S
C1012 N1009 1.350 . S
C1012 C1011 1.434 . S
C1013 C1014 1.369 . S
C1013 C1015 1.419 . S
C1013 H1017 0.930 . S
C1014 C1013 1.369 . S
C1014 C1023 1.429 . S
C1015 C1013 1.419 . S
C1015 C1016 1.363 . S
C1015 H1018 0.929 . S
C1016 C1015 1.363 . S
C1016 C1022 1.428 . S
H1017 C1013 0.930 . S
H1018 C1015 0.929 . S
S1019 N1020 1.613 . S
S1019 N1021 1.610 . S
N1020 S1019 1.613 . S
N1020 C1023 1.350 . S
N1021 S1019 1.610 . S
N1021 C1022 1.351 . S
C1022 C1016 1.428 . S
C1022 N1021 1.351 . S
C1022 C1023 1.434 . S
C1023 C1014 1.429 . S
C1023 N1020 1.350 . S
C1023 C1022 1.434 . S
C1024 C1025 1.369 . S
C1024 C1026 1.419 . S
C1024 H1028 0.930 . S
C1025 C1024 1.369 . S
C1025 C1034 1.429 . S
C1026 C1024 1.419 . S
C1026 C1027 1.363 . S
C1026 H1029 0.929 . S
C1027 C1026 1.363 . S
C1027 C1033 1.428 . S
H1028 C1024 0.930 . S
H1029 C1026 0.929 . S
S1030 N1031 1.613 . S
S1030 N1032 1.610 . S
N1031 S1030 1.613 . S
N1031 C1034 1.350 . S
N1032 S1030 1.610 . S
N1032 C1033 1.351 . S
C1033 C1027 1.428 . S
C1033 N1032 1.351 . S
C1033 C1034 1.434 . S
C1034 C1025 1.429 . S
C1034 N1031 1.350 . S
C1034 C1033 1.434 . S
C1035 C1036 1.369 . S
C1035 C1037 1.419 . S
C1035 H1039 0.930 . S
C1036 C1035 1.369 . S
C1036 C1045 1.429 . S
C1037 C1035 1.419 . S
C1037 C1038 1.363 . S
C1037 H1040 0.929 . S
C1038 C1037 1.363 . S
C1038 C1044 1.428 . S
H1039 C1035 0.930 . S
H1040 C1037 0.929 . S
S1041 N1042 1.613 . S
S1041 N1043 1.610 . S
N1042 S1041 1.613 . S
N1042 C1045 1.350 . S
N1043 S1041 1.610 . S
N1043 C1044 1.351 . S
C1044 C1038 1.428 . S
C1044 N1043 1.351 . S
C1044 C1045 1.434 . S
C1045 C1036 1.429 . S
C1045 N1042 1.350 . S
C1045 C1044 1.434 . S
C1046 C1047 1.369 . S
C1046 C1048 1.419 . S
C1046 H1050 0.930 . S
C1047 C1046 1.369 . S
C1047 C1056 1.429 . S
C1048 C1046 1.419 . S
C1048 C1049 1.363 . S
C1048 H1051 0.929 . S
C1049 C1048 1.363 . S
C1049 C1055 1.428 . S
H1050 C1046 0.930 . S
H1051 C1048 0.929 . S
S1052 N1053 1.613 . S
S1052 N1054 1.610 . S
N1053 S1052 1.613 . S
N1053 C1056 1.350 . S
N1054 S1052 1.610 . S
N1054 C1055 1.351 . S
C1055 C1049 1.428 . S
C1055 N1054 1.351 . S
C1055 C1056 1.434 . S
C1056 C1047 1.429 . S
C1056 N1053 1.350 . S
C1056 C1055 1.434 . S
C1057 C1058 1.369 . S
C1057 C1059 1.419 . S
C1057 H1061 0.930 . S
C1058 C1057 1.369 . S
C1058 C1067 1.429 . S
C1059 C1057 1.419 . S
C1059 C1060 1.363 . S
C1059 H1062 0.929 . S
C1060 C1059 1.363 . S
C1060 C1066 1.428 . S
H1061 C1057 0.930 . S
H1062 C1059 0.929 . S
S1063 N1064 1.613 . S
S1063 N1065 1.610 . S
N1064 S1063 1.613 . S
N1064 C1067 1.350 . S
N1065 S1063 1.610 . S
N1065 C1066 1.351 . S
C1066 C1060 1.428 . S
C1066 N1065 1.351 . S
C1066 C1067 1.434 . S
C1067 C1058 1.429 . S
C1067 N1064 1.350 . S
C1067 C1066 1.434 . S
C1068 C1069 1.369 . S
C1068 C1070 1.419 . S
C1068 H1072 0.930 . S
C1069 C1068 1.369 . S
C1069 C1078 1.429 . S
C1070 C1068 1.419 . S
C1070 C1071 1.363 . S
C1070 H1073 0.929 . S
C1071 C1070 1.363 . S
C1071 C1077 1.428 . S
H1072 C1068 0.930 . S
H1073 C1070 0.929 . S
S1074 N1075 1.613 . S
S1074 N1076 1.610 . S
N1075 S1074 1.613 . S
N1075 C1078 1.350 . S
N1076 S1074 1.610 . S
N1076 C1077 1.351 . S
C1077 C1071 1.428 . S
C1077 N1076 1.351 . S
C1077 C1078 1.434 . S
C1078 C1069 1.429 . S
C1078 N1075 1.350 . S
C1078 C1077 1.434 . S
C1079 C1080 1.369 . S
C1079 C1081 1.419 . S
C1079 H1083 0.930 . S
C1080 C1079 1.369 . S
C1080 C1089 1.429 . S
C1081 C1079 1.419 . S
C1081 C1082 1.363 . S
C1081 H1084 0.929 . S
C1082 C1081 1.363 . S
C1082 C1088 1.428 . S
H1083 C1079 0.930 . S
H1084 C1081 0.929 . S
S1085 N1086 1.613 . S
S1085 N1087 1.610 . S
N1086 S1085 1.613 . S
N1086 C1089 1.350 . S
N1087 S1085 1.610 . S
N1087 C1088 1.351 . S
C1088 C1082 1.428 . S
C1088 N1087 1.351 . S
C1088 C1089 1.434 . S
C1089 C1080 1.429 . S
C1089 N1086 1.350 . S
C1089 C1088 1.434 . S
C1090 C1091 1.369 . S
C1090 C1092 1.419 . S
C1090 H1094 0.930 . S
C1091 C1090 1.369 . S
C1091 C1100 1.429 . S
C1092 C1090 1.419 . S
C1092 C1093 1.363 . S
C1092 H1095 0.929 . S
C1093 C1092 1.363 . S
C1093 C1099 1.428 . S
H1094 C1090 0.930 . S
H1095 C1092 0.929 . S
S1096 N1097 1.613 . S
S1096 N1098 1.610 . S
N1097 S1096 1.613 . S
N1097 C1100 1.350 . S
N1098 S1096 1.610 . S
N1098 C1099 1.351 . S
C1099 C1093 1.428 . S
C1099 N1098 1.351 . S
C1099 C1100 1.434 . S
C1100 C1091 1.429 . S
C1100 N1097 1.350 . S
C1100 C1099 1.434 . S
C1101 C1102 1.369 . S
C1101 C1103 1.419 . S
C1101 H1105 0.930 . S
C1102 C1101 1.369 . S
C1102 C1111 1.429 . S
C1103 C1101 1.419 . S
C1103 C1104 1.363 . S
C1103 H1106 0.929 . S
C1104 C1103 1.363 . S
C1104 C1110 1.428 . S
H1105 C1101 0.930 . S
H1106 C1103 0.929 . S
S1107 N1108 1.613 . S
S1107 N1109 1.610 . S
N1108 S1107 1.613 . S
N1108 C1111 1.350 . S
N1109 S1107 1.610 . S
N1109 C1110 1.351 . S
C1110 C1104 1.428 . S
C1110 N1109 1.351 . S
C1110 C1111 1.434 . S
C1111 C1102 1.429 . S
C1111 N1108 1.350 . S
C1111 C1110 1.434 . S
C1112 C1113 1.369 . S
C1112 C1114 1.419 . S
C1112 H1116 0.930 . S
C1113 C1112 1.369 . S
C1113 C1122 1.429 . S
C1114 C1112 1.419 . S
C1114 C1115 1.363 . S
C1114 H1117 0.929 . S
C1115 C1114 1.363 . S
C1115 C1121 1.428 . S
H1116 C1112 0.930 . S
H1117 C1114 0.929 . S
S1118 N1119 1.613 . S
S1118 N1120 1.610 . S
N1119 S1118 1.613 . S
N1119 C1122 1.350 . S
N1120 S1118 1.610 . S
N1120 C1121 1.351 . S
C1121 C1115 1.428 . S
C1121 N1120 1.351 . S
C1121 C1122 1.434 . S
C1122 C1113 1.429 . S
C1122 N1119 1.350 . S
C1122 C1121 1.434 . S
C1123 C1124 1.369 . S
C1123 C1125 1.419 . S
C1123 H1127 0.930 . S
C1124 C1123 1.369 . S
C1124 C1133 1.429 . S
C1125 C1123 1.419 . S
C1125 C1126 1.363 . S
C1125 H1128 0.929 . S
C1126 C1125 1.363 . S
C1126 C1132 1.428 . S
H1127 C1123 0.930 . S
H1128 C1125 0.929 . S
S1129 N1130 1.613 . S
S1129 N1131 1.610 . S
N1130 S1129 1.613 . S
N1130 C1133 1.350 . S
N1131 S1129 1.610 . S
N1131 C1132 1.351 . S
C1132 C1126 1.428 . S
C1132 N1131 1.351 . S
C1132 C1133 1.434 . S
C1133 C1124 1.429 . S
C1133 N1130 1.350 . S
C1133 C1132 1.434 . S
C1134 C1135 1.369 . S
C1134 C1136 1.419 . S
C1134 H1138 0.930 . S
C1135 C1134 1.369 . S
C1135 C1144 1.429 . S
C1136 C1134 1.419 . S
C1136 C1137 1.363 . S
C1136 H1139 0.929 . S
C1137 C1136 1.363 . S
C1137 C1143 1.428 . S
H1138 C1134 0.930 . S
H1139 C1136 0.929 . S
S1140 N1141 1.613 . S
S1140 N1142 1.610 . S
N1141 S1140 1.613 . S
N1141 C1144 1.350 . S
N1142 S1140 1.610 . S
N1142 C1143 1.351 . S
C1143 C1137 1.428 . S
C1143 N1142 1.351 . S
C1143 C1144 1.434 . S
C1144 C1135 1.429 . S
C1144 N1141 1.350 . S
C1144 C1143 1.434 . S
C1145 C1146 1.369 . S
C1145 C1147 1.419 . S
C1145 H1149 0.930 . S
C1146 C1145 1.369 . S
C1146 C1155 1.429 . S
C1147 C1145 1.419 . S
C1147 C1148 1.363 . S
C1147 H1150 0.929 . S
C1148 C1147 1.363 . S
C1148 C1154 1.428 . S
H1149 C1145 0.930 . S
H1150 C1147 0.929 . S
S1151 N1152 1.613 . S
S1151 N1153 1.610 . S
N1152 S1151 1.613 . S
N1152 C1155 1.350 . S
N1153 S1151 1.610 . S
N1153 C1154 1.351 . S
C1154 C1148 1.428 . S
C1154 N1153 1.351 . S
C1154 C1155 1.434 . S
C1155 C1146 1.429 . S
C1155 N1152 1.350 . S
C1155 C1154 1.434 . S
C1156 C1157 1.369 . S
C1156 C1158 1.419 . S
C1156 H1160 0.930 . S
C1157 C1156 1.369 . S
C1157 C1166 1.429 . S
C1158 C1156 1.419 . S
C1158 C1159 1.363 . S
C1158 H1161 0.929 . S
C1159 C1158 1.363 . S
C1159 C1165 1.428 . S
H1160 C1156 0.930 . S
H1161 C1158 0.929 . S
S1162 N1163 1.613 . S
S1162 N1164 1.610 . S
N1163 S1162 1.613 . S
N1163 C1166 1.350 . S
N1164 S1162 1.610 . S
N1164 C1165 1.351 . S
C1165 C1159 1.428 . S
C1165 N1164 1.351 . S
C1165 C1166 1.434 . S
C1166 C1157 1.429 . S
C1166 N1163 1.350 . S
C1166 C1165 1.434 . S
C1167 C1168 1.369 . S
C1167 C1169 1.419 . S
C1167 H1171 0.930 . S
C1168 C1167 1.369 . S
C1168 C1177 1.429 . S
C1169 C1167 1.419 . S
C1169 C1170 1.363 . S
C1169 H1172 0.929 . S
C1170 C1169 1.363 . S
C1170 C1176 1.428 . S
H1171 C1167 0.930 . S
H1172 C1169 0.929 . S
S1173 N1174 1.613 . S
S1173 N1175 1.610 . S
N1174 S1173 1.613 . S
N1174 C1177 1.350 . S
N1175 S1173 1.610 . S
N1175 C1176 1.351 . S
C1176 C1170 1.428 . S
C1176 N1175 1.351 . S
C1176 C1177 1.434 . S
C1177 C1168 1.429 . S
C1177 N1174 1.350 . S
C1177 C1176 1.434 . S
C1178 C1179 1.369 . S
C1178 C1180 1.419 . S
C1178 H1182 0.930 . S
C1179 C1178 1.369 . S
C1179 C1188 1.429 . S
C1180 C1178 1.419 . S
C1180 C1181 1.363 . S
C1180 H1183 0.929 . S
C1181 C1180 1.363 . S
C1181 C1187 1.428 . S
H1182 C1178 0.930 . S
H1183 C1180 0.929 . S
S1184 N1185 1.613 . S
S1184 N1186 1.610 . S
N1185 S1184 1.613 . S
N1185 C1188 1.350 . S
N1186 S1184 1.610 . S
N1186 C1187 1.351 . S
C1187 C1181 1.428 . S
C1187 N1186 1.351 . S
C1187 C1188 1.434 . S
C1188 C1179 1.429 . S
C1188 N1185 1.350 . S
C1188 C1187 1.434 . S
C1189 C1190 1.369 . S
C1189 C1191 1.419 . S
C1189 H1193 0.930 . S
C1190 C1189 1.369 . S
C1190 C1199 1.429 . S
C1191 C1189 1.419 . S
C1191 C1192 1.363 . S
C1191 H1194 0.929 . S
C1192 C1191 1.363 . S
C1192 C1198 1.428 . S
H1193 C1189 0.930 . S
H1194 C1191 0.929 . S
S1195 N1196 1.613 . S
S1195 N1197 1.610 . S
N1196 S1195 1.613 . S
N1196 C1199 1.350 . S
N1197 S1195 1.610 . S
N1197 C1198 1.351 . S
C1198 C1192 1.428 . S
C1198 N1197 1.351 . S
C1198 C1199 1.434 . S
C1199 C1190 1.429 . S
C1199 N1196 1.350 . S
C1199 C1198 1.434 . S
C1200 C1201 1.369 . S
C1200 C1202 1.419 . S
C1200 H1204 0.930 . S
C1201 C1200 1.369 . S
C1201 C1210 1.429 . S
C1202 C1200 1.419 . S
C1202 C1203 1.363 . S
C1202 H1205 0.929 . S
C1203 C1202 1.363 . S
C1203 C1209 1.428 . S
H1204 C1200 0.930 . S
H1205 C1202 0.929 . S
S1206 N1207 1.613 . S
S1206 N1208 1.610 . S
N1207 S1206 1.613 . S
N1207 C1210 1.350 . S
N1208 S1206 1.610 . S
N1208 C1209 1.351 . S
C1209 C1203 1.428 . S
C1209 N1208 1.351 . S
C1209 C1210 1.434 . S
C1210 C1201 1.429 . S
C1210 N1207 1.350 . S
C1210 C1209 1.434 . S
C1211 C1212 1.369 . S
C1211 C1213 1.419 . S
C1211 H1215 0.930 . S
C1212 C1211 1.369 . S
C1212 C1221 1.429 . S
C1213 C1211 1.419 . S
C1213 C1214 1.363 . S
C1213 H1216 0.929 . S
C1214 C1213 1.363 . S
C1214 C1220 1.428 . S
H1215 C1211 0.930 . S
H1216 C1213 0.929 . S
S1217 N1218 1.613 . S
S1217 N1219 1.610 . S
N1218 S1217 1.613 . S
N1218 C1221 1.350 . S
N1219 S1217 1.610 . S
N1219 C1220 1.351 . S
C1220 C1214 1.428 . S
C1220 N1219 1.351 . S
C1220 C1221 1.434 . S
C1221 C1212 1.429 . S
C1221 N1218 1.350 . S
C1221 C1220 1.434 . S
C1222 C1223 1.369 . S
C1222 C1224 1.419 . S
C1222 H1226 0.930 . S
C1223 C1222 1.369 . S
C1223 C1232 1.429 . S
C1224 C1222 1.419 . S
C1224 C1225 1.363 . S
C1224 H1227 0.929 . S
C1225 C1224 1.363 . S
C1225 C1231 1.428 . S
H1226 C1222 0.930 . S
H1227 C1224 0.929 . S
S1228 N1229 1.613 . S
S1228 N1230 1.610 . S
N1229 S1228 1.613 . S
N1229 C1232 1.350 . S
N1230 S1228 1.610 . S
N1230 C1231 1.351 . S
C1231 C1225 1.428 . S
C1231 N1230 1.351 . S
C1231 C1232 1.434 . S
C1232 C1223 1.429 . S
C1232 N1229 1.350 . S
C1232 C1231 1.434 . S
C1233 C1234 1.369 . S
C1233 C1235 1.419 . S
C1233 H1237 0.930 . S
C1234 C1233 1.369 . S
C1234 C1243 1.429 . S
C1235 C1233 1.419 . S
C1235 C1236 1.363 . S
C1235 H1238 0.929 . S
C1236 C1235 1.363 . S
C1236 C1242 1.428 . S
H1237 C1233 0.930 . S
H1238 C1235 0.929 . S
S1239 N1240 1.613 . S
S1239 N1241 1.610 . S
N1240 S1239 1.613 . S
N1240 C1243 1.350 . S
N1241 S1239 1.610 . S
N1241 C1242 1.351 . S
C1242 C1236 1.428 . S
C1242 N1241 1.351 . S
C1242 C1243 1.434 . S
C1243 C1234 1.429 . S
C1243 N1240 1.350 . S
C1243 C1242 1.434 . S
C1244 C1245 1.369 . S
C1244 C1246 1.419 . S
C1244 H1248 0.930 . S
C1245 C1244 1.369 . S
C1245 C1254 1.429 . S
C1246 C1244 1.419 . S
C1246 C1247 1.363 . S
C1246 H1249 0.929 . S
C1247 C1246 1.363 . S
C1247 C1253 1.428 . S
H1248 C1244 0.930 . S
H1249 C1246 0.929 . S
S1250 N1251 1.613 . S
S1250 N1252 1.610 . S
N1251 S1250 1.613 . S
N1251 C1254 1.350 . S
N1252 S1250 1.610 . S
N1252 C1253 1.351 . S
C1253 C1247 1.428 . S
C1253 N1252 1.351 . S
C1253 C1254 1.434 . S
C1254 C1245 1.429 . S
C1254 N1251 1.350 . S
C1254 C1253 1.434 . S
C1255 C1256 1.369 . S
C1255 C1257 1.419 . S
C1255 H1259 0.930 . S
C1256 C1255 1.369 . S
C1256 C1265 1.429 . S
C1257 C1255 1.419 . S
C1257 C1258 1.363 . S
C1257 H1260 0.929 . S
C1258 C1257 1.363 . S
C1258 C1264 1.428 . S
H1259 C1255 0.930 . S
H1260 C1257 0.929 . S
S1261 N1262 1.613 . S
S1261 N1263 1.610 . S
N1262 S1261 1.613 . S
N1262 C1265 1.350 . S
N1263 S1261 1.610 . S
N1263 C1264 1.351 . S
C1264 C1258 1.428 . S
C1264 N1263 1.351 . S
C1264 C1265 1.434 . S
C1265 C1256 1.429 . S
C1265 N1262 1.350 . S
C1265 C1264 1.434 . S
C1266 C1267 1.369 . S
C1266 C1268 1.419 . S
C1266 H1270 0.930 . S
C1267 C1266 1.369 . S
C1267 C1276 1.429 . S
C1268 C1266 1.419 . S
C1268 C1269 1.363 . S
C1268 H1271 0.929 . S
C1269 C1268 1.363 . S
C1269 C1275 1.428 . S
H1270 C1266 0.930 . S
H1271 C1268 0.929 . S
S1272 N1273 1.613 . S
S1272 N1274 1.610 . S
N1273 S1272 1.613 . S
N1273 C1276 1.350 . S
N1274 S1272 1.610 . S
N1274 C1275 1.351 . S
C1275 C1269 1.428 . S
C1275 N1274 1.351 . S
C1275 C1276 1.434 . S
C1276 C1267 1.429 . S
C1276 N1273 1.350 . S
C1276 C1275 1.434 . S
C1277 C1278 1.369 . S
C1277 C1279 1.419 . S
C1277 H1281 0.930 . S
C1278 C1277 1.369 . S
C1278 C1287 1.429 . S
C1279 C1277 1.419 . S
C1279 C1280 1.363 . S
C1279 H1282 0.929 . S
C1280 C1279 1.363 . S
C1280 C1286 1.428 . S
H1281 C1277 0.930 . S
H1282 C1279 0.929 . S
S1283 N1284 1.613 . S
S1283 N1285 1.610 . S
N1284 S1283 1.613 . S
N1284 C1287 1.350 . S
N1285 S1283 1.610 . S
N1285 C1286 1.351 . S
C1286 C1280 1.428 . S
C1286 N1285 1.351 . S
C1286 C1287 1.434 . S
C1287 C1278 1.429 . S
C1287 N1284 1.350 . S
C1287 C1286 1.434 . S
C1288 C1289 1.369 . S
C1288 C1290 1.419 . S
C1288 H1292 0.930 . S
C1289 C1288 1.369 . S
C1289 C1298 1.429 . S
C1290 C1288 1.419 . S
C1290 C1291 1.363 . S
C1290 H1293 0.929 . S
C1291 C1290 1.363 . S
C1291 C1297 1.428 . S
H1292 C1288 0.930 . S
H1293 C1290 0.929 . S
S1294 N1295 1.613 . S
S1294 N1296 1.610 . S
N1295 S1294 1.613 . S
N1295 C1298 1.350 . S
N1296 S1294 1.610 . S
N1296 C1297 1.351 . S
C1297 C1291 1.428 . S
C1297 N1296 1.351 . S
C1297 C1298 1.434 . S
C1298 C1289 1.429 . S
C1298 N1295 1.350 . S
C1298 C1297 1.434 . S
C1299 C1300 1.369 . S
C1299 C1301 1.419 . S
C1299 H1303 0.930 . S
C1300 C1299 1.369 . S
C1300 C1309 1.429 . S
C1301 C1299 1.419 . S
C1301 C1302 1.363 . S
C1301 H1304 0.929 . S
C1302 C1301 1.363 . S
C1302 C1308 1.428 . S
H1303 C1299 0.930 . S
H1304 C1301 0.929 . S
S1305 N1306 1.613 . S
S1305 N1307 1.610 . S
N1306 S1305 1.613 . S
N1306 C1309 1.350 . S
N1307 S1305 1.610 . S
N1307 C1308 1.351 . S
C1308 C1302 1.428 . S
C1308 N1307 1.351 . S
C1308 C1309 1.434 . S
C1309 C1300 1.429 . S
C1309 N1306 1.350 . S
C1309 C1308 1.434 . S
C1310 C1311 1.369 . S
C1310 C1312 1.419 . S
C1310 H1314 0.930 . S
C1311 C1310 1.369 . S
C1311 C1320 1.429 . S
C1312 C1310 1.419 . S
C1312 C1313 1.363 . S
C1312 H1315 0.929 . S
C1313 C1312 1.363 . S
C1313 C1319 1.428 . S
H1314 C1310 0.930 . S
H1315 C1312 0.929 . S
S1316 N1317 1.613 . S
S1316 N1318 1.610 . S
N1317 S1316 1.613 . S
N1317 C1320 1.350 . S
N1318 S1316 1.610 . S
N1318 C1319 1.351 . S
C1319 C1313 1.428 . S
C1319 N1318 1.351 . S
C1319 C1320 1.434 . S
C1320 C1311 1.429 . S
C1320 N1317 1.350 . S
C1320 C1319 1.434 . S
C1321 C1322 1.369 . S
C1321 C1323 1.419 . S
C1321 H1325 0.930 . S
C1322 C1321 1.369 . S
C1322 C1331 1.429 . S
C1323 C1321 1.419 . S
C1323 C1324 1.363 . S
C1323 H1326 0.929 . S
C1324 C1323 1.363 . S
C1324 C1330 1.428 . S
H1325 C1321 0.930 . S
H1326 C1323 0.929 . S
S1327 N1328 1.613 . S
S1327 N1329 1.610 . S
N1328 S1327 1.613 . S
N1328 C1331 1.350 . S
N1329 S1327 1.610 . S
N1329 C1330 1.351 . S
C1330 C1324 1.428 . S
C1330 N1329 1.351 . S
C1330 C1331 1.434 . S
C1331 C1322 1.429 . S
C1331 N1328 1.350 . S
C1331 C1330 1.434 . S
C1332 C1333 1.369 . S
C1332 C1334 1.419 . S
C1332 H1336 0.930 . S
C1333 C1332 1.369 . S
C1333 C1342 1.429 . S
C1334 C1332 1.419 . S
C1334 C1335 1.363 . S
C1334 H1337 0.929 . S
C1335 C1334 1.363 . S
C1335 C1341 1.428 . S
H1336 C1332 0.930 . S
H1337 C1334 0.929 . S
S1338 N1339 1.613 . S
S1338 N1340 1.610 . S
N1339 S1338 1.613 . S
N1339 C1342 1.350 . S
N1340 S1338 1.610 . S
N1340 C1341 1.351 . S
C1341 C1335 1.428 . S
C1341 N1340 1.351 . S
C1341 C1342 1.434 . S
C1342 C1333 1.429 . S
C1342 N1339 1.350 . S
C1342 C1341 1.434 . S
C1343 C1344 1.369 . S
C1343 C1345 1.419 . S
C1343 H1347 0.930 . S
C1344 C1343 1.369 . S
C1344 C1353 1.429 . S
C1345 C1343 1.419 . S
C1345 C1346 1.363 . S
C1345 H1348 0.929 . S
C1346 C1345 1.363 . S
C1346 C1352 1.428 . S
H1347 C1343 0.930 . S
H1348 C1345 0.929 . S
S1349 N1350 1.613 . S
S1349 N1351 1.610 . S
N1350 S1349 1.613 . S
N1350 C1353 1.350 . S
N1351 S1349 1.610 . S
N1351 C1352 1.351 . S
C1352 C1346 1.428 . S
C1352 N1351 1.351 . S
C1352 C1353 1.434 . S
C1353 C1344 1.429 . S
C1353 N1350 1.350 . S
C1353 C1352 1.434 . S
C1354 C1355 1.369 . S
C1354 C1356 1.419 . S
C1354 H1358 0.930 . S
C1355 C1354 1.369 . S
C1355 C1364 1.429 . S
C1356 C1354 1.419 . S
C1356 C1357 1.363 . S
C1356 H1359 0.929 . S
C1357 C1356 1.363 . S
C1357 C1363 1.428 . S
H1358 C1354 0.930 . S
H1359 C1356 0.929 . S
S1360 N1361 1.613 . S
S1360 N1362 1.610 . S
N1361 S1360 1.613 . S
N1361 C1364 1.350 . S
N1362 S1360 1.610 . S
N1362 C1363 1.351 . S
C1363 C1357 1.428 . S
C1363 N1362 1.351 . S
C1363 C1364 1.434 . S
C1364 C1355 1.429 . S
C1364 N1361 1.350 . S
C1364 C1363 1.434 . S
C1365 C1366 1.369 . S
C1365 C1367 1.419 . S
C1365 H1369 0.930 . S
C1366 C1365 1.369 . S
C1366 C1375 1.429 . S
C1367 C1365 1.419 . S
C1367 C1368 1.363 . S
C1367 H1370 0.929 . S
C1368 C1367 1.363 . S
C1368 C1374 1.428 . S
H1369 C1365 0.930 . S
H1370 C1367 0.929 . S
S1371 N1372 1.613 . S
S1371 N1373 1.610 . S
N1372 S1371 1.613 . S
N1372 C1375 1.350 . S
N1373 S1371 1.610 . S
N1373 C1374 1.351 . S
C1374 C1368 1.428 . S
C1374 N1373 1.351 . S
C1374 C1375 1.434 . S
C1375 C1366 1.429 . S
C1375 N1372 1.350 . S
C1375 C1374 1.434 . S
C1376 C1377 1.369 . S
C1376 C1378 1.419 . S
C1376 H1380 0.930 . S
C1377 C1376 1.369 . S
C1377 C1386 1.429 . S
C1378 C1376 1.419 . S
C1378 C1379 1.363 . S
C1378 H1381 0.929 . S
C1379 C1378 1.363 . S
C1379 C1385 1.428 . S
H1380 C1376 0.930 . S
H1381 C1378 0.929 . S
S1382 N1383 1.613 . S
S1382 N1384 1.610 . S
N1383 S1382 1.613 . S
N1383 C1386 1.350 . S
N1384 S1382 1.610 . S
N1384 C1385 1.351 . S
C1385 C1379 1.428 . S
C1385 N1384 1.351 . S
C1385 C1386 1.434 . S
C1386 C1377 1.429 . S
C1386 N1383 1.350 . S
C1386 C1385 1.434 . S
C1387 C1388 1.369 . S
C1387 C1389 1.419 . S
C1387 H1391 0.930 . S
C1388 C1387 1.369 . S
C1388 C1397 1.429 . S
C1389 C1387 1.419 . S
C1389 C1390 1.363 . S
C1389 H1392 0.929 . S
C1390 C1389 1.363 . S
C1390 C1396 1.428 . S
H1391 C1387 0.930 . S
H1392 C1389 0.929 . S
S1393 N1394 1.613 . S
S1393 N1395 1.610 . S
N1394 S1393 1.613 . S
N1394 C1397 1.350 . S
N1395 S1393 1.610 . S
N1395 C1396 1.351 . S
C1396 C1390 1.428 . S
C1396 N1395 1.351 . S
C1396 C1397 1.434 . S
C1397 C1388 1.429 . S
C1397 N1394 1.350 . S
C1397 C1396 1.434 . S
C1398 C1399 1.369 . S
C1398 C1400 1.419 . S
C1398 H1402 0.930 . S
C1399 C1398 1.369 . S
C1399 C1408 1.429 . S
C1400 C1398 1.419 . S
C1400 C1401 1.363 . S
C1400 H1403 0.929 . S
C1401 C1400 1.363 . S
C1401 C1407 1.428 . S
H1402 C1398 0.930 . S
H1403 C1400 0.929 . S
S1404 N1405 1.613 . S
S1404 N1406 1.610 . S
N1405 S1404 1.613 . S
N1405 C1408 1.350 . S
N1406 S1404 1.610 . S
N1406 C1407 1.351 . S
C1407 C1401 1.428 . S
C1407 N1406 1.351 . S
C1407 C1408 1.434 . S
C1408 C1399 1.429 . S
C1408 N1405 1.350 . S
C1408 C1407 1.434 . S
C1409 C1410 1.369 . S
C1409 C1411 1.419 . S
C1409 H1413 0.930 . S
C1410 C1409 1.369 . S
C1410 C1419 1.429 . S
C1411 C1409 1.419 . S
C1411 C1412 1.363 . S
C1411 H1414 0.929 . S
C1412 C1411 1.363 . S
C1412 C1418 1.428 . S
H1413 C1409 0.930 . S
H1414 C1411 0.929 . S
S1415 N1416 1.613 . S
S1415 N1417 1.610 . S
N1416 S1415 1.613 . S
N1416 C1419 1.350 . S
N1417 S1415 1.610 . S
N1417 C1418 1.351 . S
C1418 C1412 1.428 . S
C1418 N1417 1.351 . S
C1418 C1419 1.434 . S
C1419 C1410 1.429 . S
C1419 N1416 1.350 . S
C1419 C1418 1.434 . S
C1420 C1421 1.369 . S
C1420 C1422 1.419 . S
C1420 H1424 0.930 . S
C1421 C1420 1.369 . S
C1421 C1430 1.429 . S
C1422 C1420 1.419 . S
C1422 C1423 1.363 . S
C1422 H1425 0.929 . S
C1423 C1422 1.363 . S
C1423 C1429 1.428 . S
H1424 C1420 0.930 . S
H1425 C1422 0.929 . S
S1426 N1427 1.613 . S
S1426 N1428 1.610 . S
N1427 S1426 1.613 . S
N1427 C1430 1.350 . S
N1428 S1426 1.610 . S
N1428 C1429 1.351 . S
C1429 C1423 1.428 . S
C1429 N1428 1.351 . S
C1429 C1430 1.434 . S
C1430 C1421 1.429 . S
C1430 N1427 1.350 . S
C1430 C1429 1.434 . S
C1431 C1432 1.369 . S
C1431 C1433 1.419 . S
C1431 H1435 0.930 . S
C1432 C1431 1.369 . S
C1432 C1441 1.429 . S
C1433 C1431 1.419 . S
C1433 C1434 1.363 . S
C1433 H1436 0.929 . S
C1434 C1433 1.363 . S
C1434 C1440 1.428 . S
H1435 C1431 0.930 . S
H1436 C1433 0.929 . S
S1437 N1438 1.613 . S
S1437 N1439 1.610 . S
N1438 S1437 1.613 . S
N1438 C1441 1.350 . S
N1439 S1437 1.610 . S
N1439 C1440 1.351 . S
C1440 C1434 1.428 . S
C1440 N1439 1.351 . S
C1440 C1441 1.434 . S
C1441 C1432 1.429 . S
C1441 N1438 1.350 . S
C1441 C1440 1.434 . S
C1442 C1443 1.369 . S
C1442 C1444 1.419 . S
C1442 H1446 0.930 . S
C1443 C1442 1.369 . S
C1443 C1452 1.429 . S
C1444 C1442 1.419 . S
C1444 C1445 1.363 . S
C1444 H1447 0.929 . S
C1445 C1444 1.363 . S
C1445 C1451 1.428 . S
H1446 C1442 0.930 . S
H1447 C1444 0.929 . S
S1448 N1449 1.613 . S
S1448 N1450 1.610 . S
N1449 S1448 1.613 . S
N1449 C1452 1.350 . S
N1450 S1448 1.610 . S
N1450 C1451 1.351 . S
C1451 C1445 1.428 . S
C1451 N1450 1.351 . S
C1451 C1452 1.434 . S
C1452 C1443 1.429 . S
C1452 N1449 1.350 . S
C1452 C1451 1.434 . S
C1453 C1454 1.369 . S
C1453 C1455 1.419 . S
C1453 H1457 0.930 . S
C1454 C1453 1.369 . S
C1454 C1463 1.429 . S
C1455 C1453 1.419 . S
C1455 C1456 1.363 . S
C1455 H1458 0.929 . S
C1456 C1455 1.363 . S
C1456 C1462 1.428 . S
H1457 C1453 0.930 . S
H1458 C1455 0.929 . S
S1459 N1460 1.613 . S
S1459 N1461 1.610 . S
N1460 S1459 1.613 . S
N1460 C1463 1.350 . S
N1461 S1459 1.610 . S
N1461 C1462 1.351 . S
C1462 C1456 1.428 . S
C1462 N1461 1.351 . S
C1462 C1463 1.434 . S
C1463 C1454 1.429 . S
C1463 N1460 1.350 . S
C1463 C1462 1.434 . S
C1464 C1465 1.369 . S
C1464 C1466 1.419 1_554 S
C1464 H1468 0.930 . S
C1465 C1464 1.369 . S
C1465 C1474 1.429 . S
C1466 C1464 1.419 1_556 S
C1466 C1467 1.363 . S
C1466 H1469 0.929 . S
C1467 C1466 1.363 . S
C1467 C1473 1.428 . S
H1468 C1464 0.930 . S
H1469 C1466 0.929 . S
S1470 N1471 1.624 . S
S1470 N1472 1.598 1_554 S
N1471 S1470 1.624 . S
N1471 C1474 1.350 . S
N1472 S1470 1.598 1_556 S
N1472 C1473 1.351 . S
C1473 C1467 1.428 . S
C1473 N1472 1.351 . S
C1473 C1474 1.434 1_556 S
C1474 C1465 1.429 . S
C1474 N1471 1.350 . S
C1474 C1473 1.434 1_554 S
C1475 C1476 1.369 . S
C1475 C1477 1.419 1_556 S
C1475 H1479 0.930 . S
C1476 C1475 1.369 . S
C1476 C1485 1.429 . S
C1477 C1475 1.419 1_554 S
C1477 C1478 1.363 . S
C1477 H1480 0.929 . S
C1478 C1477 1.363 . S
C1478 C1484 1.428 . S
H1479 C1475 0.930 . S
H1480 C1477 0.929 . S
S1481 N1482 1.613 . S
S1481 N1483 1.610 1_556 S
N1482 S1481 1.613 . S
N1482 C1485 1.350 . S
N1483 S1481 1.610 1_554 S
N1483 C1484 1.351 . S
C1484 C1478 1.428 . S
C1484 N1483 1.351 . S
C1484 C1485 1.434 1_554 S
C1485 C1476 1.429 . S
C1485 N1482 1.350 . S
C1485 C1484 1.434 1_556 S
C1486 C1487 1.369 . S
C1486 C1488 1.419 1_554 S
C1486 H1490 0.930 . S
C1487 C1486 1.369 . S
C1487 C1496 1.429 . S
C1488 C1486 1.419 1_556 S
C1488 C1489 1.363 . S
C1488 H1491 0.929 . S
C1489 C1488 1.363 . S
C1489 C1495 1.428 . S
H1490 C1486 0.930 . S
H1491 C1488 0.929 . S
S1492 N1493 1.613 . S
S1492 N1494 1.610 1_554 S
N1493 S1492 1.613 . S
N1493 C1496 1.350 . S
N1494 S1492 1.610 1_556 S
N1494 C1495 1.351 . S
C1495 C1489 1.428 . S
C1495 N1494 1.351 . S
C1495 C1496 1.434 1_556 S
C1496 C1487 1.429 . S
C1496 N1493 1.350 . S
C1496 C1495 1.434 1_554 S
C1497 C1498 1.369 . S
C1497 C1499 1.419 1_554 S
C1497 H1501 0.930 . S
C1498 C1497 1.369 . S
C1498 C1507 1.429 . S
C1499 C1497 1.419 1_556 S
C1499 C1500 1.363 . S
C1499 H1502 0.929 . S
C1500 C1499 1.363 . S
C1500 C1506 1.428 . S
H1501 C1497 0.930 . S
H1502 C1499 0.929 . S
S1503 N1504 1.597 1_556 S
S1503 N1505 1.626 . S
N1504 S1503 1.597 1_554 S
N1504 C1507 1.350 . S
N1505 S1503 1.626 . S
N1505 C1506 1.351 . S
C1506 C1500 1.428 . S
C1506 N1505 1.351 . S
C1506 C1507 1.434 1_556 S
C1507 C1498 1.429 . S
C1507 N1504 1.350 . S
C1507 C1506 1.434 1_554 S
C1508 C1509 1.369 . S
C1508 C1510 1.419 1_556 S
C1508 H1512 0.930 . S
C1509 C1508 1.369 . S
C1509 C1518 1.429 . S
C1510 C1508 1.419 1_554 S
C1510 C1511 1.363 . S
C1510 H1513 0.929 . S
C1511 C1510 1.363 . S
C1511 C1517 1.428 . S
H1512 C1508 0.930 . S
H1513 C1510 0.929 . S
S1514 N1515 1.613 . S
S1514 N1516 1.610 1_556 S
N1515 S1514 1.613 . S
N1515 C1518 1.350 . S
N1516 S1514 1.610 1_554 S
N1516 C1517 1.351 . S
C1517 C1511 1.428 . S
C1517 N1516 1.351 . S
C1517 C1518 1.434 1_554 S
C1518 C1509 1.429 . S
C1518 N1515 1.350 . S
C1518 C1517 1.434 1_556 S
C1519 C1520 1.369 . S
C1519 C1521 1.419 1_554 S
C1519 H1523 0.930 . S
C1520 C1519 1.369 . S
C1520 C1529 1.429 . S
C1521 C1519 1.419 1_556 S
C1521 C1522 1.363 . S
C1521 H1524 0.929 . S
C1522 C1521 1.363 . S
C1522 C1528 1.428 . S
H1523 C1519 0.930 . S
H1524 C1521 0.929 . S
S1525 N1526 1.613 . S
S1525 N1527 1.610 1_554 S
N1526 S1525 1.613 . S
N1526 C1529 1.350 . S
N1527 S1525 1.610 1_556 S
N1527 C1528 1.351 . S
C1528 C1522 1.428 . S
C1528 N1527 1.351 . S
C1528 C1529 1.434 1_556 S
C1529 C1520 1.429 . S
C1529 N1526 1.350 . S
C1529 C1528 1.434 1_554 S
C1530 C1531 1.369 . S
C1530 C1532 1.419 1_556 S
C1530 H1534 0.930 . S
C1531 C1530 1.369 . S
C1531 C1540 1.429 . S
C1532 C1530 1.419 1_554 S
C1532 C1533 1.363 . S
C1532 H1535 0.929 . S
C1533 C1532 1.363 . S
C1533 C1539 1.428 . S
H1534 C1530 0.930 . S
H1535 C1532 0.929 . S
S1536 N1537 1.613 1_554 S
S1536 N1538 1.610 . S
N1537 S1536 1.613 1_556 S
N1537 C1540 1.350 . S
N1538 S1536 1.610 . S
N1538 C1539 1.351 . S
C1539 C1533 1.428 . S
C1539 N1538 1.351 . S
C1539 C1540 1.434 1_554 S
C1540 C1531 1.429 . S
C1540 N1537 1.350 . S
C1540 C1539 1.434 1_556 S
C1541 C1542 1.369 . S
C1541 C1543 1.419 1_554 S
C1541 H1545 0.930 . S
C1542 C1541 1.369 . S
C1542 C1551 1.429 . S
C1543 C1541 1.419 1_556 S
C1543 C1544 1.363 . S
C1543 H1546 0.929 . S
C1544 C1543 1.363 . S
C1544 C1550 1.428 . S
H1545 C1541 0.930 . S
H1546 C1543 0.929 . S
S1547 N1548 1.629 . S
S1547 N1549 1.594 1_554 S
N1548 S1547 1.629 . S
N1548 C1551 1.350 . S
N1549 S1547 1.594 1_556 S
N1549 C1550 1.351 . S
C1550 C1544 1.428 . S
C1550 N1549 1.351 . S
C1550 C1551 1.434 1_556 S
C1551 C1542 1.429 . S
C1551 N1548 1.350 . S
C1551 C1550 1.434 1_554 S
C1552 C1553 1.369 . S
C1552 C1554 1.419 1_455 S
C1552 H1556 0.930 . S
C1553 C1552 1.369 . S
C1553 C1562 1.429 . S
C1554 C1552 1.419 1_655 S
C1554 C1555 1.363 . S
C1554 H1557 0.929 . S
C1555 C1554 1.363 . S
C1555 C1561 1.428 . S
H1556 C1552 0.930 . S
H1557 C1554 0.929 . S
S1558 N1559 1.613 . S
S1558 N1560 1.610 1_455 S
N1559 S1558 1.613 . S
N1559 C1562 1.350 . S
N1560 S1558 1.610 1_655 S
N1560 C1561 1.351 . S
C1561 C1555 1.428 . S
C1561 N1560 1.351 . S
C1561 C1562 1.434 1_655 S
C1562 C1553 1.429 . S
C1562 N1559 1.350 . S
C1562 C1561 1.434 1_455 S
C1563 C1564 1.369 . S
C1563 C1565 1.419 1_565 S
C1563 H1567 0.930 . S
C1564 C1563 1.369 . S
C1564 C1573 1.429 . S
C1565 C1563 1.419 1_545 S
C1565 C1566 1.363 . S
C1565 H1568 0.929 . S
C1566 C1565 1.363 . S
C1566 C1572 1.428 . S
H1567 C1563 0.930 . S
H1568 C1565 0.929 . S
S1569 N1570 1.613 . S
S1569 N1571 1.610 1_565 S
N1570 S1569 1.613 . S
N1570 C1573 1.350 . S
N1571 S1569 1.610 1_545 S
N1571 C1572 1.351 . S
C1572 C1566 1.428 . S
C1572 N1571 1.351 . S
C1572 C1573 1.434 1_545 S
C1573 C1564 1.429 . S
C1573 N1570 1.350 . S
C1573 C1572 1.434 1_565 S
C1574 C1575 1.369 . S
C1574 C1576 1.419 1_455 S
C1574 H1578 0.930 . S
C1575 C1574 1.369 . S
C1575 C1584 1.429 . S
C1576 C1574 1.419 1_655 S
C1576 C1577 1.363 . S
C1576 H1579 0.929 . S
C1577 C1576 1.363 . S
C1577 C1583 1.428 . S
H1578 C1574 0.930 . S
H1579 C1576 0.929 . S
S1580 N1581 1.613 1_655 S
S1580 N1582 1.610 . S
N1581 S1580 1.613 1_455 S
N1581 C1584 1.350 . S
N1582 S1580 1.610 . S
N1582 C1583 1.351 . S
C1583 C1577 1.428 . S
C1583 N1582 1.351 . S
C1583 C1584 1.434 1_655 S
C1584 C1575 1.429 . S
C1584 N1581 1.350 . S
C1584 C1583 1.434 1_455 S
C1585 C1586 1.369 . S
C1585 C1587 1.419 1_565 S
C1585 H1589 0.930 . S
C1586 C1585 1.369 . S
C1586 C1595 1.429 . S
C1587 C1585 1.419 1_545 S
C1587 C1588 1.363 . S
C1587 H1590 0.929 . S
C1588 C1587 1.363 . S
C1588 C1594 1.428 . S
H1589 C1585 0.930 . S
H1590 C1587 0.929 . S
S1591 N1592 1.613 1_545 S
S1591 N1593 1.610 . S
N1592 S1591 1.613 1_565 S
N1592 C1595 1.350 . S
N1593 S1591 1.610 . S
N1593 C1594 1.351 . S
C1594 C1588 1.428 . S
C1594 N1593 1.351 . S
C1594 C1595 1.434 1_545 S
C1595 C1586 1.429 . S
C1595 N1592 1.350 . S
C1595 C1594 1.434 1_565 S
C1596 C1597 1.369 . S
C1596 C1598 1.419 1_655 S
C1596 H1600 0.930 . S
C1597 C1596 1.369 . S
C1597 C1606 1.429 . S
C1598 C1596 1.419 1_455 S
C1598 C1599 1.363 . S
C1598 H1601 0.929 . S
C1599 C1598 1.363 . S
C1599 C1605 1.428 . S
H1600 C1596 0.930 . S
H1601 C1598 0.929 . S
S1602 N1603 1.613 1_455 S
S1602 N1604 1.610 . S
N1603 S1602 1.613 1_655 S
N1603 C1606 1.350 . S
N1604 S1602 1.610 . S
N1604 C1605 1.351 . S
C1605 C1599 1.428 . S
C1605 N1604 1.351 . S
C1605 C1606 1.434 1_455 S
C1606 C1597 1.429 . S
C1606 N1603 1.350 . S
C1606 C1605 1.434 1_655 S
C1607 C1608 1.369 . S
C1607 C1609 1.419 1_545 S
C1607 H1611 0.930 . S
C1608 C1607 1.369 . S
C1608 C1617 1.429 . S
C1609 C1607 1.419 1_565 S
C1609 C1610 1.363 . S
C1609 H1612 0.929 . S
C1610 C1609 1.363 . S
C1610 C1616 1.428 . S
H1611 C1607 0.930 . S
H1612 C1609 0.929 . S
S1613 N1614 1.613 . S
S1613 N1615 1.610 1_545 S
N1614 S1613 1.613 . S
N1614 C1617 1.350 . S
N1615 S1613 1.610 1_565 S
N1615 C1616 1.351 . S
C1616 C1610 1.428 . S
C1616 N1615 1.351 . S
C1616 C1617 1.434 1_565 S
C1617 C1608 1.429 . S
C1617 N1614 1.350 . S
C1617 C1616 1.434 1_545 S
C1618 C1619 1.369 . S
C1618 C1620 1.419 1_455 S
C1618 H1622 0.930 . S
C1619 C1618 1.369 . S
C1619 C1628 1.429 . S
C1620 C1618 1.419 1_655 S
C1620 C1621 1.363 . S
C1620 H1623 0.929 . S
C1621 C1620 1.363 . S
C1621 C1627 1.428 . S
H1622 C1618 0.930 . S
H1623 C1620 0.929 . S
S1624 N1625 1.613 . S
S1624 N1626 1.610 1_455 S
N1625 S1624 1.613 . S
N1625 C1628 1.350 . S
N1626 S1624 1.610 1_655 S
N1626 C1627 1.351 . S
C1627 C1621 1.428 . S
C1627 N1626 1.351 . S
C1627 C1628 1.434 1_655 S
C1628 C1619 1.429 . S
C1628 N1625 1.350 . S
C1628 C1627 1.434 1_455 S
C1629 C1630 1.369 . S
C1629 C1631 1.419 1_545 S
C1629 H1633 0.930 . S
C1630 C1629 1.369 . S
C1630 C1639 1.429 . S
C1631 C1629 1.419 1_565 S
C1631 C1632 1.363 . S
C1631 H1634 0.929 . S
C1632 C1631 1.363 . S
C1632 C1638 1.428 . S
H1633 C1629 0.930 . S
H1634 C1631 0.929 . S
S1635 N1636 1.613 1_565 S
S1635 N1637 1.610 . S
N1636 S1635 1.613 1_545 S
N1636 C1639 1.350 . S
N1637 S1635 1.610 . S
N1637 C1638 1.351 . S
C1638 C1632 1.428 . S
C1638 N1637 1.351 . S
C1638 C1639 1.434 1_565 S
C1639 C1630 1.429 . S
C1639 N1636 1.350 . S
C1639 C1638 1.434 1_545 S
C1640 C1641 1.369 . S
C1640 C1642 1.419 1_545 S
C1640 H1644 0.930 . S
C1641 C1640 1.369 . S
C1641 C1650 1.429 . S
C1642 C1640 1.419 1_565 S
C1642 C1643 1.363 . S
C1642 H1645 0.929 . S
C1643 C1642 1.363 . S
C1643 C1649 1.428 . S
H1644 C1640 0.930 . S
H1645 C1642 0.929 . S
S1646 N1647 1.613 1_565 S
S1646 N1648 1.610 . S
N1647 S1646 1.613 1_545 S
N1647 C1650 1.350 . S
N1648 S1646 1.610 . S
N1648 C1649 1.351 . S
C1649 C1643 1.428 . S
C1649 N1648 1.351 . S
C1649 C1650 1.434 1_565 S
C1650 C1641 1.429 . S
C1650 N1647 1.350 . S
C1650 C1649 1.434 1_545 S
C1651 C1652 1.369 . S
C1651 C1653 1.419 1_545 S
C1651 H1655 0.930 . S
C1652 C1651 1.369 . S
C1652 C1661 1.429 . S
C1653 C1651 1.419 1_565 S
C1653 C1654 1.363 . S
C1653 H1656 0.929 . S
C1654 C1653 1.363 . S
C1654 C1660 1.428 . S
H1655 C1651 0.930 . S
H1656 C1653 0.929 . S
S1657 N1658 1.603 1_565 S
S1657 N1659 1.623 . S
N1658 S1657 1.603 1_545 S
N1658 C1661 1.350 . S
N1659 S1657 1.623 . S
N1659 C1660 1.351 . S
C1660 C1654 1.428 . S
C1660 N1659 1.351 . S
C1660 C1661 1.434 1_565 S
C1661 C1652 1.429 . S
C1661 N1658 1.350 . S
C1661 C1660 1.434 1_545 S
C1662 C1663 1.369 . S
C1662 C1664 1.419 1_655 S
C1662 H1666 0.930 . S
C1663 C1662 1.369 . S
C1663 C1672 1.429 . S
C1664 C1662 1.419 1_455 S
C1664 C1665 1.363 . S
C1664 H1667 0.929 . S
C1665 C1664 1.363 . S
C1665 C1671 1.428 . S
H1666 C1662 0.930 . S
H1667 C1664 0.929 . S
S1668 N1669 1.613 . S
S1668 N1670 1.610 1_655 S
N1669 S1668 1.613 . S
N1669 C1672 1.350 . S
N1670 S1668 1.610 1_455 S
N1670 C1671 1.351 . S
C1671 C1665 1.428 . S
C1671 N1670 1.351 . S
C1671 C1672 1.434 1_455 S
C1672 C1663 1.429 . S
C1672 N1669 1.350 . S
C1672 C1671 1.434 1_655 S
C1673 C1674 1.369 . S
C1673 C1675 1.419 1_545 S
C1673 H1677 0.930 . S
C1674 C1673 1.369 . S
C1674 C1683 1.429 . S
C1675 C1673 1.419 1_565 S
C1675 C1676 1.363 . S
C1675 H1678 0.929 . S
C1676 C1675 1.363 . S
C1676 C1682 1.428 . S
H1677 C1673 0.930 . S
H1678 C1675 0.929 . S
S1679 N1680 1.613 . S
S1679 N1681 1.610 1_545 S
N1680 S1679 1.613 . S
N1680 C1683 1.350 . S
N1681 S1679 1.610 1_565 S
N1681 C1682 1.351 . S
C1682 C1676 1.428 . S
C1682 N1681 1.351 . S
C1682 C1683 1.434 1_565 S
C1683 C1674 1.429 . S
C1683 N1680 1.350 . S
C1683 C1682 1.434 1_545 S
C1684 C1685 1.369 . S
C1684 C1686 1.419 1_455 S
C1684 H1688 0.930 . S
C1685 C1684 1.369 . S
C1685 C1694 1.429 . S
C1686 C1684 1.419 1_655 S
C1686 C1687 1.363 . S
C1686 H1689 0.929 . S
C1687 C1686 1.363 . S
C1687 C1693 1.428 . S
H1688 C1684 0.930 . S
H1689 C1686 0.929 . S
S1690 N1691 1.613 1_655 S
S1690 N1692 1.610 . S
N1691 S1690 1.613 1_455 S
N1691 C1694 1.350 . S
N1692 S1690 1.610 . S
N1692 C1693 1.351 . S
C1693 C1687 1.428 . S
C1693 N1692 1.351 . S
C1693 C1694 1.434 1_655 S
C1694 C1685 1.429 . S
C1694 N1691 1.350 . S
C1694 C1693 1.434 1_455 S
C1695 C1696 1.369 . S
C1695 C1697 1.419 1_545 S
C1695 H1699 0.930 . S
C1696 C1695 1.369 . S
C1696 C1705 1.429 . S
C1697 C1695 1.419 1_565 S
C1697 C1698 1.363 . S
C1697 H1700 0.929 . S
C1698 C1697 1.363 . S
C1698 C1704 1.428 . S
H1699 C1695 0.930 . S
H1700 C1697 0.929 . S
S1701 N1702 1.613 . S
S1701 N1703 1.610 1_545 S
N1702 S1701 1.613 . S
N1702 C1705 1.350 . S
N1703 S1701 1.610 1_565 S
N1703 C1704 1.351 . S
C1704 C1698 1.428 . S
C1704 N1703 1.351 . S
C1704 C1705 1.434 1_565 S
C1705 C1696 1.429 . S
C1705 N1702 1.350 . S
C1705 C1704 1.434 1_545 S
C1706 C1707 1.369 . S
C1706 C1708 1.419 1_655 S
C1706 H1710 0.930 . S
C1707 C1706 1.369 . S
C1707 C1716 1.429 . S
C1708 C1706 1.419 1_455 S
C1708 C1709 1.363 . S
C1708 H1711 0.929 . S
C1709 C1708 1.363 . S
C1709 C1715 1.428 . S
H1710 C1706 0.930 . S
H1711 C1708 0.929 . S
S1712 N1713 1.613 1_455 S
S1712 N1714 1.610 . S
N1713 S1712 1.613 1_655 S
N1713 C1716 1.350 . S
N1714 S1712 1.610 . S
N1714 C1715 1.351 . S
C1715 C1709 1.428 . S
C1715 N1714 1.351 . S
C1715 C1716 1.434 1_455 S
C1716 C1707 1.429 . S
C1716 N1713 1.350 . S
C1716 C1715 1.434 1_655 S
C1717 C1718 1.369 . S
C1717 C1719 1.419 1_455 S
C1717 H1721 0.930 . S
C1718 C1717 1.369 . S
C1718 C1727 1.429 . S
C1719 C1717 1.419 1_655 S
C1719 C1720 1.363 . S
C1719 H1722 0.929 . S
C1720 C1719 1.363 . S
C1720 C1726 1.428 . S
H1721 C1717 0.930 . S
H1722 C1719 0.929 . S
S1723 N1724 1.613 1_655 S
S1723 N1725 1.610 . S
N1724 S1723 1.613 1_455 S
N1724 C1727 1.350 . S
N1725 S1723 1.610 . S
N1725 C1726 1.351 . S
C1726 C1720 1.428 . S
C1726 N1725 1.351 . S
C1726 C1727 1.434 1_655 S
C1727 C1718 1.429 . S
C1727 N1724 1.350 . S
C1727 C1726 1.434 1_455 S
C673 C553 1.376 . S
C675 C7 1.375 . S
C684 C25 1.271 . S
C686 C511 1.271 . S
C695 C35 1.300 . S
C697 C529 1.301 . S
C706 C543 1.288 . S
C708 C53 1.287 . S
C717 C473 1.250 . S
C719 C67 1.245 . S
C728 C77 1.329 . S
C730 C483 1.338 . S
C739 C95 1.304 . S
C741 C497 1.299 . S
C750 C105 1.353 . S
C752 C459 1.347 . S
C761 C123 1.349 . S
C763 C441 1.350 . S
C772 C403 1.249 . S
C774 C137 1.253 . S
C783 C413 1.330 . S
C785 C147 1.338 . S
C794 C161 1.297 . S
C796 C431 1.301 . S
C805 C175 1.272 . S
C807 C361 1.271 . S
C816 C193 1.301 . S
C818 C371 1.302 . S
C827 C389 1.288 . S
C829 C207 1.288 . S
C838 C343 1.375 . S
C840 C217 1.376 . S
C849 C235 1.330 . S
C851 C627 1.324 . S
C860 C665 1.293 . S
C862 C245 1.295 . S
C871 C641 1.322 . S
C873 C263 1.328 . S
C882 C651 1.294 . S
C884 C273 1.294 . S
C893 C571 1.329 . S
C895 C291 1.323 . S
C904 C599 1.328 . S
C906 C305 1.322 . S
C915 C315 1.297 . S
C917 C609 1.296 . S
C926 C581 1.297 . S
C928 C329 1.295 . S
C937 C455 1.372 . S
C939 C287 1.371 . S
C948 C249 1.271 . S
C950 C469 1.273 . S
C959 C487 1.305 . S
C961 C259 1.299 . S
C970 C501 1.287 . S
C972 C277 1.286 . S
C981 C333 1.247 . S
C983 C515 1.252 . S
C992 C525 1.336 . S
C994 C301 1.326 . S
C1003 C319 1.304 . S
C1005 C539 1.297 . S
C1014 C231 1.353 . S
C1016 C557 1.344 . S
C1025 C567 1.349 . S
C1027 C221 1.348 . S
C1036 C179 1.250 . S
C1038 C669 1.244 . S
C1047 C637 1.331 . S
C1049 C189 1.339 . S
C1058 C203 1.298 . S
C1060 C655 1.304 . S
C1069 C133 1.270 . S
C1071 C585 1.270 . S
C1080 C151 1.300 . S
C1082 C595 1.302 . S
C1091 C165 1.286 . S
C1093 C613 1.287 . S
C1102 C623 1.372 . S
C1104 C119 1.373 . S
C1113 C347 1.327 . S
C1115 C109 1.332 . S
C1124 C399 1.296 . S
C1126 C21 1.296 . S
C1135 C417 1.323 . S
C1137 C39 1.329 . S
C1146 C427 1.298 . S
C1148 C49 1.296 . S
C1157 C445 1.329 . S
C1159 C11 1.323 . S
C1168 C81 1.320 . S
C1170 C375 1.327 . S
C1179 C385 1.293 . S
C1181 C91 1.294 . S
C1190 C357 1.295 . S
C1192 C63 1.294 . S
C1201 C13 1.216 . S
C1203 C377 1.213 . S
C1212 C386 1.373 . S
C1214 C22 1.379 . S
C1223 C41 1.216 . S
C1225 C349 1.222 . S
C1234 C50 1.377 . S
C1236 C358 1.381 . S
C1245 C64 1.363 . S
C1247 C428 1.375 . S
C1256 C447 1.219 . S
C1258 C83 1.227 . S
C1267 C92 1.384 . S
C1269 C400 1.373 . S
C1278 C419 1.219 . S
C1280 C111 1.210 . S
C1289 C120 1.289 . S
C1291 C517 1.317 . S
C1300 C526 1.418 . S
C1302 C134 1.421 . S
C1311 C153 1.301 . S
C1313 C540 1.280 . S
C1322 C167 1.184 . S
C1324 C559 1.176 . S
C1333 C181 1.321 . S
C1335 C456 1.280 . S
C1344 C190 1.409 . S
C1346 C470 1.414 . S
C1355 C489 1.307 . S
C1357 C204 1.289 . S
C1366 C223 1.168 . S
C1368 C503 1.177 . S
C1377 C615 1.358 . S
C1379 C232 1.323 . S
C1388 C251 1.276 . S
C1390 C638 1.240 . S
C1399 C260 1.291 . S
C1401 C657 1.314 . S
C1410 C568 1.324 . S
C1412 C279 1.358 . S
C1421 C671 1.326 . S
C1423 C288 1.279 . S
C1432 C302 1.238 . S
C1434 C587 1.278 . S
C1443 C596 1.287 . S
C1445 C321 1.306 . S
C1454 C335 1.327 . S
C1456 C624 1.276 . S
C1465 C601 1.217 . S
C1467 C293 1.222 . S
C1476 C246 1.379 . S
C1478 C610 1.373 . S
C1487 C629 1.216 . S
C1489 C265 1.212 . S
C1498 C582 1.373 . S
C1500 C274 1.368 . S
C1509 C652 1.379 . S
C1511 C330 1.368 . S
C1520 C307 1.229 . S
C1522 C573 1.219 . S
C1531 C666 1.373 . S
C1533 C316 1.382 . S
C1542 C237 1.210 . S
C1544 C643 1.221 . S
C1553 C475 1.319 . S
C1555 C218 1.288 . S
C1564 C176 1.416 . S
C1566 C484 1.413 . S
C1575 C195 1.310 . S
C1577 C498 1.282 . S
C1586 C461 1.180 . S
C1588 C209 1.185 . S
C1597 C139 1.319 . S
C1599 C554 1.279 . S
C1608 C512 1.415 . S
C1610 C148 1.411 . S
C1619 C162 1.280 . S
C1621 C531 1.302 . S
C1630 C125 1.171 . S
C1632 C545 1.179 . S
C1641 C391 1.366 . S
C1643 C106 1.324 . S
C1652 C27 1.285 . S
C1654 C414 1.243 . S
C1663 C36 1.286 . S
C1665 C433 1.313 . S
C1674 C442 1.320 . S
C1676 C55 1.360 . S
C1685 C8 1.287 . S
C1687 C405 1.332 . S
C1696 C78 1.251 . S
C1698 C363 1.281 . S
C1707 C97 1.309 . S
C1709 C372 1.294 . S
C1718 C69 1.328 . S
C1720 C344 1.276 . S
