# Generated by pormake.
# Topology vby, (6)-cn, num edge types: 1
# Building blocks:
#     Node 0, Type 0, BuildingBlock: KUMBOL_clean_sbu_0, # of connection points: 6
#     Node 1, Type 0, BuildingBlock: KUMBOL_clean_sbu_0, # of connection points: 6
#     Node 2, Type 0, BuildingBlock: KUMBOL_clean_sbu_0, # of connection points: 6
#     Node 3, Type 0, BuildingBlock: KUMBOL_clean_sbu_0, # of connection points: 6
#     Node 4, Type 0, BuildingBlock: KUMBOL_clean_sbu_0, # of connection points: 6
#     Node 5, Type 0, BuildingBlock: KUMBOL_clean_sbu_0, # of connection points: 6
#     Node 6, Type 0, BuildingBlock: KUMBOL_clean_sbu_0, # of connection points: 6
#     Node 7, Type 0, BuildingBlock: KUMBOL_clean_sbu_0, # of connection points: 6
#     Edge 8, Type (0, 0), BuildingBlock: KIFKEQ_clean_linker_1, # of connection points: 2
#     Edge 9, Type (0, 0), BuildingBlock: KIFKEQ_clean_linker_1, # of connection points: 2
#     Edge 10, Type (0, 0), BuildingBlock: KIFKEQ_clean_linker_1, # of connection points: 2
#     Edge 11, Type (0, 0), BuildingBlock: KIFKEQ_clean_linker_1, # of connection points: 2
#     Edge 12, Type (0, 0), BuildingBlock: KIFKEQ_clean_linker_1, # of connection points: 2
#     Edge 13, Type (0, 0), BuildingBlock: KIFKEQ_clean_linker_1, # of connection points: 2
#     Edge 14, Type (0, 0), BuildingBlock: KIFKEQ_clean_linker_1, # of connection points: 2
#     Edge 15, Type (0, 0), BuildingBlock: KIFKEQ_clean_linker_1, # of connection points: 2
#     Edge 16, Type (0, 0), BuildingBlock: KIFKEQ_clean_linker_1, # of connection points: 2
#     Edge 17, Type (0, 0), BuildingBlock: KIFKEQ_clean_linker_1, # of connection points: 2
#     Edge 18, Type (0, 0), BuildingBlock: KIFKEQ_clean_linker_1, # of connection points: 2
#     Edge 19, Type (0, 0), BuildingBlock: KIFKEQ_clean_linker_1, # of connection points: 2
#     Edge 20, Type (0, 0), BuildingBlock: KIFKEQ_clean_linker_1, # of connection points: 2
#     Edge 21, Type (0, 0), BuildingBlock: KIFKEQ_clean_linker_1, # of connection points: 2
#     Edge 22, Type (0, 0), BuildingBlock: KIFKEQ_clean_linker_1, # of connection points: 2
#     Edge 23, Type (0, 0), BuildingBlock: KIFKEQ_clean_linker_1, # of connection points: 2
#     Edge 24, Type (0, 0), BuildingBlock: KIFKEQ_clean_linker_1, # of connection points: 2
#     Edge 25, Type (0, 0), BuildingBlock: KIFKEQ_clean_linker_1, # of connection points: 2
#     Edge 26, Type (0, 0), BuildingBlock: KIFKEQ_clean_linker_1, # of connection points: 2
#     Edge 27, Type (0, 0), BuildingBlock: KIFKEQ_clean_linker_1, # of connection points: 2
#     Edge 28, Type (0, 0), BuildingBlock: KIFKEQ_clean_linker_1, # of connection points: 2
#     Edge 29, Type (0, 0), BuildingBlock: KIFKEQ_clean_linker_1, # of connection points: 2
#     Edge 30, Type (0, 0), BuildingBlock: KIFKEQ_clean_linker_1, # of connection points: 2
#     Edge 31, Type (0, 0), BuildingBlock: KIFKEQ_clean_linker_1, # of connection points: 2
# Relax obj value: 0.108
# Max RMSD: 0.195
# Mean RMSD: 0.195
data_MOF--net-vby--node1-KUMBOL_clean_sbu_0--edge1-KIFKEQ_clean_linker_1
_symmetry_space_group_name_H-M    P1
_symmetry_Int_Tables_number       1
_symmetry_cell_setting            triclinic
loop_
_symmetry_equiv_pos_as_xyz
'x, y, z'
_cell_length_a     14.503865
_cell_length_b     99.035921
_cell_length_c     30.810384
_cell_angle_alpha  115.03983
_cell_angle_beta   90.108609
_cell_angle_gamma 89.992254
loop_
_atom_site_label
_atom_site_type_symbol
_atom_site_fract_x
_atom_site_fract_y
_atom_site_fract_z
_atom_type_partial_charge
Gd0 Gd 0.12139 0.36404 0.96916 0.0
Gd1 Gd 0.15989 0.40477 0.0218 0.0
C2 C 0.45792 0.41495 -0.00241 0.0
C3 C 0.52239 0.4243 0.07772 0.0
C4 C 0.36162 0.41643 0.06376 0.0
C5 C 0.37224 0.41266 0.01527 0.0
C6 C 0.43653 0.42253 0.09554 0.0
C7 C 0.53291 0.4206 0.02892 0.0
C8 C 0.46621 0.41139 0.94878 0.0
C9 C 0.39063 0.4056 0.91869 0.0
N10 N 0.29965 0.40663 0.98526 0.0
C11 C 0.30773 0.40327 0.93748 0.0
H12 H 0.25135 0.39881 0.913 0.0
C13 C 0.26197 0.4207 0.12867 0.0
N14 N 0.27772 0.41467 0.08021 0.0
C15 C 0.33425 0.42649 0.1613 0.0
C16 C 0.42248 0.42713 0.14461 0.0
H17 H 0.19322 0.42145 0.14285 0.0
H18 H 0.59937 0.42219 0.01577 0.0
H19 H 0.9492 0.36489 0.04301 0.0
H20 H 0.53074 0.41301 0.93395 0.0
H21 H 0.39624 0.40282 0.88083 0.0
H22 H 0.58069 0.42881 0.10155 0.0
H23 H 0.20998 0.34436 0.86025 0.0
H24 H 0.71506 0.34287 0.95847 0.0
H25 H 0.78864 0.35648 0.03767 0.0
H26 H 0.83089 0.32304 0.79804 0.0
H27 H 0.32131 0.4308 0.1994 0.0
H28 H 0.47829 0.43181 0.17003 0.0
H29 H 0.73059 0.33085 0.86885 0.0
H30 H 0.15632 0.32749 0.7792 0.0
N31 N 0.96666 0.35671 0.96747 0.0
C32 C 0.78577 0.34662 0.96054 0.0
C33 C 0.82714 0.35424 0.00529 0.0
C34 C 0.83721 0.34346 0.91898 0.0
C35 C 0.9289 0.34863 0.92368 0.0
C36 C 0.91854 0.35902 0.00811 0.0
N37 N 0.07549 0.34808 0.89072 0.0
C38 C 0.98517 0.34421 0.88388 0.0
C39 C 0.10735 0.33219 0.80824 0.0
C40 C 1.01363 0.32882 0.8 0.0
C41 C 0.13749 0.34175 0.85422 0.0
C42 C 0.95154 0.33456 0.83826 0.0
H43 H 0.99051 0.32135 0.76442 0.0
O44 O 0.21274 0.34488 0.95041 0.0
O45 O 0.22665 0.38242 0.00123 0.0
O46 O 0.1105 0.39683 0.94461 0.0
O47 O 0.08997 0.37091 0.90952 0.0
O48 O 0.26268 0.36403 0.93921 0.0
O49 O 0.11796 0.35055 0.0093 0.0
O50 O 0.12248 0.42747 0.06942 0.0
O51 O 0.05641 0.38657 0.99404 0.0
O52 O 0.10528 0.37349 0.04947 0.0
O53 O 0.14102 0.3989 0.08438 0.0
O54 O 1.01362 0.40624 0.04898 0.0
O55 O 0.14153 0.42138 0.99369 0.0
C56 C 0.29148 0.37649 0.97157 0.0
C57 C 0.8584 0.33029 0.83289 0.0
C58 C 0.80131 0.33473 0.87322 0.0
C59 C 0.17744 0.34085 0.98195 0.0
C60 C 0.14987 0.32507 0.96468 0.0
C61 C 0.07126 0.31984 0.93584 0.0
C62 C 0.19911 0.31527 0.97851 0.0
C63 C 0.16806 0.3005 0.96418 0.0
C64 C 1.04132 0.30521 0.92104 0.0
C65 C 0.08907 0.29559 0.93529 0.0
C66 C 0.09058 0.38402 0.90757 0.0
C67 C 0.98743 0.39302 0.01991 0.0
C68 C 0.12059 0.43196 0.03527 0.0
C69 C 1.04601 0.44217 0.03635 0.0
C70 C 0.95484 0.43973 0.04622 0.0
C71 C 0.06738 0.45482 0.02847 0.0
C72 C 0.99832 0.46517 0.03101 0.0
C73 C 0.88606 0.44988 0.04881 0.0
C74 C 0.90744 0.46253 0.04156 0.0
C75 C 0.11849 0.38634 0.087 0.0
H76 H 1.03216 0.32708 0.92519 0.0
H77 H 0.25954 0.31919 0.00119 0.0
H78 H 0.9804 0.30137 0.89881 0.0
H79 H 0.06452 0.28425 0.92359 0.0
H80 H 0.93678 0.43009 0.05237 0.0
H81 H 0.13782 0.45652 0.02017 0.0
H82 H 0.81591 0.44802 0.05693 0.0
H83 H 0.85274 0.47035 0.045 0.0
Gd84 Gd 0.93886 0.6159 0.97719 0.0
Gd85 Gd 0.97673 0.65651 0.02868 0.0
C86 C 0.26378 0.67513 0.08212 0.0
C87 C 0.24115 0.68768 0.16825 0.0
C88 C 0.11297 0.67525 0.1156 0.0
C89 C 0.17064 0.67063 0.07637 0.0
C90 C 0.14667 0.6843 0.1618 0.0
C91 C 0.29967 0.68311 0.12841 0.0
C92 C 0.31632 0.67232 0.04116 0.0
C93 C 0.27432 0.66592 -0.00385 0.0
N94 N 0.13279 0.66336 0.03218 0.0
C95 C 0.18161 0.66169 0.99236 0.0
H96 H 0.15025 0.65667 0.95731 0.0
C97 C 0.9592 0.67911 0.14355 0.0
N98 N 1.02172 0.67223 0.10767 0.0
C99 C 0.9893 0.68807 0.19012 0.0
C100 C 0.08364 0.6904 0.19952 0.0
H101 H 0.88622 0.67721 0.13656 0.0
H102 H 0.37149 0.68643 0.13359 0.0
H103 H 0.82644 0.6251 0.08267 0.0
H104 H 0.38813 0.6756 0.04399 0.0
H105 H 0.31345 0.66414 0.96431 0.0
H106 H 0.26874 0.69444 0.20356 0.0
H107 H 0.93778 0.5951 0.85872 0.0
H108 H 0.55501 0.60711 0.05126 0.0
H109 H 0.67557 0.62095 0.11005 0.0
H110 H 0.54664 0.5829 0.88005 0.0
H111 H 0.93979 0.6931 0.21872 0.0
H112 H 0.10676 0.69742 0.23555 0.0
H113 H 0.50716 0.5932 0.96558 0.0
H114 H 0.82664 0.58076 0.79505 0.0
N115 N 0.79429 0.61362 0.00823 0.0
C116 C 0.62207 0.60874 0.0388 0.0
C117 C 0.68987 0.61656 0.07207 0.0
C118 C 0.64161 0.60307 0.98984 0.0
C119 C 0.72985 0.60558 0.97539 0.0
C120 C 0.77608 0.61885 0.05617 0.0
N121 N 0.8376 0.60223 0.91424 0.0
C122 C 0.75167 0.59994 0.92708 0.0
C123 C 0.80404 0.58632 0.8319 0.0
C124 C 0.71303 0.58492 0.84399 0.0
C125 C 0.86634 0.59468 0.86787 0.0
C126 C 0.68643 0.59143 0.89216 0.0
H127 H 0.66493 0.57832 0.81613 0.0
O128 O 1.00967 0.5948 0.93898 0.0
O129 O 1.04327 0.63406 0.0055 0.0
O130 O 0.99425 0.64631 0.94799 0.0
O131 O 0.92991 0.62237 0.91523 0.0
O132 O 0.08049 0.61501 0.94571 0.0
O133 O 0.93959 0.59933 0.00582 0.0
O134 O 0.88594 0.67563 0.0454 0.0
O135 O 0.87235 0.63816 -0.00335 0.0
O136 O 0.98023 0.62413 0.05536 0.0
O137 O 0.99779 0.65006 0.09004 0.0
O138 O 0.83259 0.657 0.05611 0.0
O139 O 0.98715 0.67028 0.98956 0.0
C140 C 0.10856 0.62792 0.97629 0.0
C141 C 0.59786 0.58928 0.9064 0.0
C142 C 0.57553 0.59507 0.95511 0.0
C143 C 0.99062 0.59001 0.97144 0.0
C144 C 0.06558 0.58296 0.98647 0.0
C145 C 0.15063 0.59015 0.00163 0.0
C146 C 1.05014 0.56909 0.98757 0.0
C147 C 0.11933 0.56234 0.00386 0.0
C148 C 0.2199 0.58347 0.01733 0.0
C149 C 0.20455 0.5697 0.01852 0.0
C150 C 0.96432 0.63419 0.91131 0.0
C151 C 0.80511 0.64433 0.02433 0.0
C152 C 0.92598 0.67991 0.01556 0.0
C153 C 0.95386 0.69572 0.0349 0.0
C154 C 1.03198 0.70057 0.06428 0.0
C155 C 0.90377 0.70604 0.02375 0.0
C156 C 0.93195 0.72113 0.04213 0.0
C157 C 0.06007 0.71538 0.08257 0.0
C158 C 1.01086 0.72558 0.07153 0.0
C159 C 0.99672 0.63704 0.09239 0.0
H160 H 0.16318 0.60092 0.00158 0.0
H161 H 0.98348 0.56374 0.97681 0.0
H162 H 0.28565 0.58903 0.02883 0.0
H163 H 0.2597 0.56475 0.03063 0.0
H164 H 0.07206 0.6929 0.07273 0.0
H165 H 0.84319 0.70234 0.00111 0.0
H166 H 0.12093 0.71893 0.10499 0.0
H167 H 1.03608 0.73693 0.08528 0.0
Gd168 Gd 0.11425 0.65624 0.53135 0.0
Gd169 Gd 0.14687 0.61544 0.47484 0.0
C170 C 0.44595 0.60431 0.49556 0.0
C171 C 0.51019 0.59684 0.41614 0.0
C172 C 0.34929 0.60448 0.43153 0.0
C173 C 0.36004 0.60706 0.47906 0.0
C174 C 0.42396 0.59897 0.39934 0.0
C175 C 0.52105 0.59945 0.4641 0.0
C176 C 0.45418 0.60653 0.54329 0.0
C177 C 0.37798 0.6113 0.57333 0.0
N178 N 0.28683 0.61216 0.50913 0.0
C179 C 0.29462 0.61399 0.55564 0.0
H180 H 0.23755 0.61738 0.57994 0.0
C181 C 0.24818 0.60095 0.36766 0.0
N182 N 0.26462 0.60635 0.416 0.0
C183 C 0.32017 0.5958 0.3347 0.0
C184 C 0.40902 0.59513 0.35073 0.0
H185 H 0.17912 0.60016 0.35372 0.0
H186 H 0.58767 0.59752 0.47642 0.0
H187 H 0.95901 0.65487 0.44825 0.0
H188 H 0.51889 0.60456 0.55723 0.0
H189 H 0.38329 0.61292 0.61026 0.0
H190 H 0.56833 0.59279 0.39203 0.0
H191 H 0.17744 0.67494 0.64616 0.0
H192 H 0.70964 0.67508 0.51938 0.0
H193 H 0.79914 0.6624 0.44477 0.0
H194 H 0.78761 0.69323 0.68564 0.0
H195 H 0.30652 0.59199 0.29679 0.0
H196 H 0.46456 0.59089 0.325 0.0
H197 H 0.70521 0.68618 0.60924 0.0
H198 H 0.10462 0.68986 0.72459 0.0
N199 N 0.96099 0.66279 0.52428 0.0
C200 C 0.78029 0.67181 0.52122 0.0
C201 C 0.83057 0.66468 0.47905 0.0
C202 C 0.82247 0.67495 0.56534 0.0
C203 C 0.91443 0.67036 0.56574 0.0
C204 C 0.92165 0.66041 0.48127 0.0
N205 N 1.05095 0.67067 0.60744 0.0
C206 C 0.96034 0.67418 0.6087 0.0
C207 C 0.06304 0.6854 0.69236 0.0
C208 C 0.96831 0.68811 0.69472 0.0
C209 C 0.10396 0.67696 0.64802 0.0
C210 C 0.91622 0.68287 0.65245 0.0
H211 H 0.93689 0.69481 0.72905 0.0
O212 O 0.20563 0.67551 0.55814 0.0
O213 O 0.21712 0.63769 0.49803 0.0
O214 O 0.10154 0.6226 0.55209 0.0
O215 O 0.09075 0.64861 0.58979 0.0
O216 O 0.25343 0.65543 0.56218 0.0
O217 O 0.11656 0.67171 0.49794 0.0
O218 O 0.10543 0.59322 0.42467 0.0
O219 O 1.04533 0.63396 0.50526 0.0
O220 O 0.11596 0.64793 0.45066 0.0
O221 O 0.12445 0.62196 0.41423 0.0
O222 O 1.00232 0.61508 0.4469 0.0
O223 O 0.11211 0.59867 0.50036 0.0
C224 C 0.28143 0.6431 0.52868 0.0
C225 C 0.82307 0.68672 0.65236 0.0
C226 C 0.77627 0.68276 0.60886 0.0
C227 C 0.1745 0.68081 0.52879 0.0
C228 C 0.14911 0.69677 0.54991 0.0
C229 C 0.08956 0.70259 0.58932 0.0
C230 C 0.18395 0.70632 0.53056 0.0
C231 C 0.15963 0.72158 0.55084 0.0
C232 C 0.06543 0.71759 0.60955 0.0
C233 C 0.10043 0.72705 0.59074 0.0
C234 C 0.08879 0.63535 0.59036 0.0
C235 C 0.97681 0.62807 0.47797 0.0
C236 C 0.10205 0.58813 0.45732 0.0
C237 C 0.15229 0.57415 0.44704 0.0
C238 C 0.23494 0.57091 0.4209 0.0
C239 C 0.11869 0.56405 0.46439 0.0
C240 C 0.1685 0.55101 0.45652 0.0
C241 C 0.28463 0.55806 0.41332 0.0
C242 C 0.25201 0.54819 0.43121 0.0
C243 C 0.11728 0.635 0.41256 0.0
H244 H 0.06191 0.69568 0.60497 0.0
H245 H 0.22913 0.70186 0.49972 0.0
H246 H 1.01997 0.72192 0.64024 0.0
H247 H 0.08222 0.73874 0.60811 0.0
H248 H 0.26118 0.57822 0.40605 0.0
H249 H 0.05476 0.56641 0.48445 0.0
H250 H 0.34846 0.55572 0.39332 0.0
H251 H 0.29118 0.53819 0.42453 0.0
Gd252 Gd 0.94974 0.4053 0.52445 0.0
Gd253 Gd 0.98028 0.36448 0.46906 0.0
C254 C 0.27629 0.34718 0.44666 0.0
C255 C 0.28775 0.33513 0.3599 0.0
C256 C 0.14471 0.34707 0.39801 0.0
C257 C 0.18452 0.35126 0.44262 0.0
C258 C 0.19486 0.33848 0.35616 0.0
C259 C 0.32839 0.33947 0.4051 0.0
C260 C 0.31254 0.3508 0.49235 0.0
C261 C 0.25676 0.35788 0.53247 0.0
N262 N 0.13251 0.35879 0.48212 0.0
C263 C 0.16617 0.36165 0.52666 0.0
H264 H 0.12466 0.36713 0.55817 0.0
C265 C 1.00705 0.34336 0.3533 0.0
N266 N 0.05419 0.35011 0.39573 0.0
C267 C 0.05404 0.33505 0.31073 0.0
C268 C 0.14886 0.33285 0.31203 0.0
H269 H 0.93333 0.3449 0.35233 0.0
H270 H 0.3994 0.33645 0.40753 0.0
H271 H 0.85145 0.40365 0.42189 0.0
H272 H 0.38284 0.34794 0.49697 0.0
H273 H 0.28356 0.36052 0.56795 0.0
H274 H 0.32777 0.32871 0.32814 0.0
H275 H 0.92915 0.42154 0.6463 0.0
H276 H 0.57107 0.41688 0.45004 0.0
H277 H 0.70287 0.40835 0.39434 0.0
H278 H 0.53557 0.42916 0.61659 0.0
H279 H 1.017 0.33025 0.27705 0.0
H280 H 0.18502 0.32623 0.27908 0.0
H281 H 0.50868 0.42409 0.53237 0.0
H282 H 0.80687 0.43035 0.70635 0.0
N283 N 0.80719 0.40899 0.49351 0.0
C284 C 0.63701 0.41483 0.46269 0.0
C285 C 0.71107 0.40997 0.43116 0.0
C286 C 0.64902 0.41707 0.51027 0.0
C287 C 0.73641 0.41425 0.52506 0.0
C288 C 0.79592 0.40716 0.44719 0.0
N289 N 0.83769 0.41514 0.58615 0.0
C290 C 0.75145 0.41702 0.57243 0.0
C291 C 0.78971 0.42632 0.66874 0.0
C292 C 0.6992 0.42697 0.65468 0.0
C293 C 0.8587 0.42087 0.6341 0.0
C294 C 0.67963 0.42281 0.60628 0.0
H295 H 0.64597 0.43143 0.68166 0.0
O296 O 1.00206 0.42707 0.57199 0.0
O297 O 1.051 0.38664 0.49304 0.0
O298 O 0.96774 0.37287 0.54961 0.0
O299 O 0.97221 0.39885 0.58495 0.0
O300 O 0.09352 0.4054 0.55228 0.0
O301 O 0.97792 0.42198 0.49742 0.0
O302 O 0.89436 0.3446 0.43843 0.0
O303 O 0.87845 0.38315 0.50163 0.0
O304 O 0.9907 0.39782 0.44667 0.0
O305 O 0.99495 0.37178 0.40924 0.0
O306 O 0.84165 0.36529 0.43778 0.0
O307 O 0.97069 0.34929 0.50335 0.0
C308 C 0.11901 0.39249 0.52082 0.0
C309 C 0.59165 0.42492 0.5912 0.0
C310 C 0.57648 0.42212 0.54333 0.0
C311 C 0.99853 0.43227 0.53964 0.0
C312 C 0.95334 0.44686 0.55389 0.0
C313 C 0.87768 0.45091 0.58526 0.0
C314 C 0.98815 0.45713 0.53752 0.0
C315 C 0.94921 0.47144 0.55361 0.0
C316 C 0.83816 0.46501 0.60058 0.0
C317 C 0.87415 0.47529 0.58522 0.0
C318 C 0.97166 0.3859 0.58727 0.0
C319 C 0.81417 0.37774 0.47095 0.0
C320 C 0.91901 0.33971 0.46989 0.0
C321 C 0.94784 0.32392 0.4512 0.0
C322 C 1.01346 0.31821 0.41454 0.0
C323 C 0.91039 0.31445 0.47023 0.0
C324 C 0.93836 0.29937 0.45242 0.0
C325 C 1.04114 0.3034 0.39674 0.0
C326 C 1.00374 0.29401 0.41526 0.0
C327 C 0.99864 0.38499 0.40829 0.0
H328 H 0.84989 0.44333 0.59868 0.0
H329 H 1.04684 0.45416 0.51352 0.0
H330 H 0.78018 0.46804 0.62493 0.0
H331 H 0.84334 0.48626 0.59792 0.0
H332 H 1.04319 0.32508 0.3992 0.0
H333 H 0.86043 0.31883 0.49897 0.0
H334 H 0.09135 0.29914 0.36815 0.0
H335 H 1.02508 0.28245 0.39977 0.0
Gd336 Gd 0.62277 0.86539 0.97043 0.0
Gd337 Gd 0.65931 0.90621 0.0265 0.0
C338 C 0.96177 0.9203 0.05415 0.0
C339 C 0.97235 0.93005 0.14078 0.0
C340 C 0.82579 0.92103 0.10039 0.0
C341 C 0.86765 0.91708 0.05656 0.0
C342 C 0.87689 0.92812 0.14314 0.0
C343 C 1.01474 0.92619 0.09629 0.0
C344 C 0.99878 0.91811 0.00979 0.0
C345 C 0.94128 0.91347 0.96974 0.0
N346 N 0.81455 0.91133 0.01655 0.0
C347 C 0.84867 0.91027 0.97387 0.0
H348 H 0.80573 0.9068 0.94251 0.0
C349 C 0.68612 0.92662 0.14344 0.0
N350 N 0.73321 0.91948 0.10126 0.0
C351 C 0.73355 0.93343 0.18689 0.0
C352 C 0.82972 0.93385 0.18684 0.0
H353 H 0.61152 0.92659 0.14344 0.0
H354 H 0.08762 0.92839 0.09501 0.0
H355 H 0.45463 0.86453 0.04407 0.0
H356 H 0.07068 0.92047 0.00642 0.0
H357 H 0.96837 0.91221 0.93553 0.0
H358 H 1.0131 0.93523 0.17319 0.0
H359 H 0.70277 0.85205 0.85762 0.0
H360 H 0.22566 0.84071 0.95854 0.0
H361 H 0.2976 0.85457 0.03804 0.0
H362 H 0.33307 0.82556 0.7977 0.0
H363 H 0.69591 0.93847 0.22025 0.0
H364 H 0.86646 0.93933 0.22046 0.0
H365 H 0.23912 0.83009 0.86897 0.0
H366 H 0.64551 0.83729 0.77555 0.0
N367 N 0.47181 0.8567 0.96865 0.0
C368 C 0.29495 0.84505 0.96092 0.0
C369 C 0.33532 0.85286 0.00585 0.0
C370 C 0.34484 0.8428 0.91956 0.0
C371 C 0.43459 0.84875 0.92462 0.0
C372 C 0.42463 0.8585 0.00908 0.0
N373 N 0.57448 0.85172 0.89073 0.0
C374 C 0.48715 0.84627 0.88446 0.0
C375 C 0.60017 0.8398 0.80584 0.0
C376 C 0.50926 0.83466 0.79865 0.0
C377 C 0.63237 0.84815 0.8524 0.0
C378 C 0.45191 0.83768 0.8382 0.0
H379 H 0.48464 0.82813 0.76253 0.0
O380 O 0.72146 0.84721 0.94772 0.0
O381 O 0.72751 0.88387 0.00385 0.0
O382 O 0.66335 0.89587 0.94452 0.0
O383 O 0.57147 0.87474 0.92007 0.0
O384 O 0.76232 0.86627 0.93971 0.0
O385 O 0.61921 0.84915 0.00105 0.0
O386 O 0.6226 0.92967 0.05942 0.0
O387 O 0.55755 0.88785 -0.00068 0.0
O388 O 0.61014 0.87365 0.05061 0.0
O389 O 0.64433 0.89913 0.08699 0.0
O390 O 0.51136 0.90746 0.05226 0.0
O391 O 0.62336 0.91788 0.98252 0.0
C392 C 0.79168 0.87846 0.97341 0.0
C393 C 0.36163 0.83209 0.83296 0.0
C394 C 0.3082 0.83465 0.87355 0.0
C395 C 0.68494 0.84102 0.97351 0.0
C396 C 0.66787 0.82478 0.94863 0.0
C397 C 0.62278 0.81877 0.90413 0.0
C398 C 0.70011 0.81507 0.9681 0.0
C399 C 0.68856 0.79951 0.94255 0.0
C400 C 0.6092 0.80347 0.87943 0.0
C401 C 0.64206 0.79388 0.89834 0.0
C402 C 0.61003 0.88559 0.91234 0.0
C403 C 0.48706 0.89408 0.02386 0.0
C404 C 0.60899 0.93055 0.01905 0.0
C405 C 0.52982 0.93952 0.01675 0.0
C406 C 0.4399 0.93592 0.02465 0.0
C407 C 0.54531 0.95228 0.00849 0.0
C408 C 0.47143 0.96161 0.00873 0.0
C409 C 0.3665 0.94509 0.02521 0.0
C410 C 0.38193 0.95786 0.01768 0.0
C411 C 0.62335 0.88637 0.08868 0.0
H412 H 0.59933 0.8258 0.88781 0.0
H413 H 0.73637 0.81955 0.00209 0.0
H414 H 0.57414 0.79901 0.84516 0.0
H415 H 0.63121 0.78201 0.87829 0.0
H416 H 0.42632 0.92616 0.03086 0.0
H417 H 0.61492 0.95484 0.00163 0.0
H418 H 0.2973 0.94236 0.03192 0.0
H419 H 0.32354 0.96488 0.01945 0.0
Gd420 Gd 0.47335 0.11565 0.97689 0.0
Gd421 Gd 0.50505 0.15654 0.02997 0.0
C422 C 0.79567 0.1755 0.06702 0.0
C423 C 0.79047 0.18821 0.15393 0.0
C424 C 0.65551 0.17508 0.10897 0.0
C425 C 0.70362 0.17087 0.06659 0.0
C426 C 0.69728 0.18425 0.15302 0.0
C427 C 0.83961 0.18383 0.11098 0.0
C428 C 0.84007 0.17187 0.0232 0.0
C429 C 0.79185 0.16419 0.98048 0.0
N430 N 0.65899 0.16288 0.02476 0.0
C431 C 0.70056 0.15987 0.98193 0.0
H432 H 0.66408 0.15393 0.94874 0.0
C433 C 0.50982 0.1779 0.14608 0.0
N434 N 0.56502 0.17137 0.10661 0.0
C435 C 0.54826 0.1869 0.19071 0.0
C436 C 0.64284 0.18983 0.19439 0.0
H437 H 0.43651 0.17574 0.14324 0.0
H438 H 0.91072 0.18731 0.11206 0.0
H439 H 0.41133 0.10923 0.07537 0.0
H440 H 0.9109 0.17516 0.02197 0.0
H441 H 0.82507 0.16151 0.9464 0.0
H442 H 0.82418 0.1951 0.18747 0.0
H443 H 0.40612 0.11036 0.86398 0.0
H444 H 0.12435 0.1006 0.06723 0.0
H445 H 0.27251 0.10464 0.11023 0.0
H446 H 1.03612 0.09808 0.91503 0.0
H447 H 0.5049 0.19161 0.22216 0.0
H448 H 0.67233 0.19692 0.22891 0.0
H449 H 1.03786 0.09789 0.99432 0.0
H450 H 0.26608 0.10561 0.81702 0.0
N451 N 0.34375 0.1105 0.01492 0.0
C452 C 0.18541 0.10319 0.05201 0.0
C453 C 0.26859 0.1056 0.07656 0.0
C454 C 0.18261 0.1036 0.0073 0.0
C455 C 0.26397 0.10719 0.98908 0.0
C456 C 0.34762 0.10879 0.0569 0.0
N457 N 0.34148 0.11078 0.92704 0.0
C458 C 0.26284 0.10734 0.94419 0.0
C459 C 0.2636 0.10633 0.85307 0.0
C460 C 0.18146 0.10368 0.87125 0.0
C461 C 0.3434 0.10954 0.881 0.0
C462 C 0.18054 0.10386 0.9168 0.0
H463 H 0.11973 0.1011 0.84934 0.0
O464 O 0.50763 0.09575 0.91284 0.0
O465 O 0.5729 0.13438 0.99428 0.0
O466 O 0.49786 0.14739 0.94933 0.0
O467 O 0.52184 0.12168 0.9175 0.0
O468 O 0.62555 0.11481 0.99249 0.0
O469 O 0.49699 0.09468 0.98246 0.0
O470 O 0.40872 0.17516 0.05138 0.0
O471 O 0.4021 0.13773 -0.00076 0.0
O472 O 0.50485 0.12379 0.05563 0.0
O473 O 0.53978 0.14928 0.08819 0.0
O474 O 0.3698 0.15545 0.06384 0.0
O475 O 0.50935 0.17207 -0.00316 0.0
C476 C 0.64585 0.12834 0.00085 0.0
C477 C 0.09978 0.1006 0.93541 0.0
C478 C 0.10079 0.10049 0.98053 0.0
C479 C 0.5132 0.08757 0.93673 0.0
C480 C 0.53609 0.07149 0.91363 0.0
C481 C 0.56959 0.06529 0.8665 0.0
C482 C 0.52807 0.06233 0.9384 0.0
C483 C 0.55542 0.04722 0.9163 0.0
C484 C 0.59599 0.05037 0.84455 0.0
C485 C 0.58942 0.04142 0.86919 0.0
C486 C 0.5144 0.13438 0.91302 0.0
C487 C 0.34056 0.14299 0.03138 0.0
C488 C 0.44551 0.18072 0.02401 0.0
C489 C 0.46696 0.19685 0.04644 0.0
C490 C 0.52488 0.2028 0.08661 0.0
C491 C 0.43118 0.2064 0.02726 0.0
C492 C 0.45317 0.22176 0.04843 0.0
C493 C 0.54623 0.2179 0.10788 0.0
C494 C 0.51043 0.22735 0.08919 0.0
C495 C 0.53004 0.13646 0.0913 0.0
H496 H 0.57653 0.07202 0.84666 0.0
H497 H 0.50221 0.06694 0.9748 0.0
H498 H 0.62198 0.04573 0.80823 0.0
H499 H 0.60984 0.02984 0.85107 0.0
H500 H 0.55382 0.19589 0.10189 0.0
H501 H 0.38749 0.20185 -0.00425 0.0
H502 H 0.59046 0.22232 0.13915 0.0
H503 H 0.52671 0.23911 0.1072 0.0
Gd504 Gd 0.62069 0.15638 0.52882 0.0
Gd505 Gd 0.65031 0.1157 0.47581 0.0
C506 C 0.94878 0.10473 0.49853 0.0
C507 C 1.01613 0.09791 0.42008 0.0
C508 C 0.85444 0.10516 0.43414 0.0
C509 C 0.8635 0.10748 0.48148 0.0
C510 C 0.93032 0.09993 0.40262 0.0
C511 C 1.02524 0.10024 0.46789 0.0
C512 C 0.95482 0.10648 0.54587 0.0
C513 C 0.87673 0.11056 0.57471 0.0
N514 N 0.78879 0.11213 0.51065 0.0
C515 C 0.7939 0.11314 0.55633 0.0
H516 H 0.73461 0.11554 0.57906 0.0
C517 C 0.75502 0.10136 0.36949 0.0
N518 N 0.76997 0.1068 0.41794 0.0
C519 C 0.82822 0.09656 0.33718 0.0
C520 C 0.91685 0.09618 0.35397 0.0
H521 H 0.68635 0.10026 0.35494 0.0
H522 H 0.09144 0.09834 0.48067 0.0
H523 H 0.49022 0.15342 0.43423 0.0
H524 H 1.01901 0.1045 0.56025 0.0
H525 H 0.87994 0.11158 0.61107 0.0
H526 H 0.07523 0.09411 0.39653 0.0
H527 H 0.64724 0.1767 0.64729 0.0
H528 H 0.22108 0.16985 0.48377 0.0
H529 H 0.33263 0.15856 0.41756 0.0
H530 H 0.24804 0.18882 0.65424 0.0
H531 H 0.8157 0.09275 0.29917 0.0
H532 H 0.97333 0.09218 0.32874 0.0
H533 H 0.18954 0.18078 0.57204 0.0
H534 H 0.55072 0.19014 0.71858 0.0
N535 N 0.46984 0.16103 0.50945 0.0
C536 C 0.29077 0.16756 0.49143 0.0
C537 C 0.35345 0.16118 0.454 0.0
C538 C 0.31951 0.17126 0.53843 0.0
C539 C 0.41086 0.16792 0.54643 0.0
C540 C 0.44332 0.15816 0.46374 0.0
N541 N 0.53391 0.17023 0.5986 0.0
C542 C 0.4434 0.17233 0.59253 0.0
C543 C 0.51929 0.18504 0.68342 0.0
C544 C 0.4246 0.18628 0.67805 0.0
C545 C 0.57354 0.17735 0.64298 0.0
C546 C 0.38602 0.18034 0.63207 0.0
H547 H 0.3828 0.19246 0.70933 0.0
O548 O 0.69087 0.17775 0.5646 0.0
O549 O 0.72292 0.1377 0.49766 0.0
O550 O 0.60534 0.12376 0.55304 0.0
O551 O 0.62205 0.14961 0.59019 0.0
O552 O 0.75885 0.15585 0.56101 0.0
O553 O 0.64705 0.17032 0.49136 0.0
O554 O 0.61093 0.09329 0.42625 0.0
O555 O 0.54858 0.13435 0.50674 0.0
O556 O 0.64266 0.14743 0.44865 0.0
O557 O 0.62483 0.12162 0.41439 0.0
O558 O 0.50754 0.11563 0.44678 0.0
O559 O 0.61082 0.09933 0.50229 0.0
C560 C 0.78666 0.14327 0.52858 0.0
C561 C 0.29349 0.18287 0.62432 0.0
C562 C 0.26033 0.17837 0.57755 0.0
C563 C 0.68154 0.18127 0.52867 0.0
C564 C 0.64312 0.19617 0.53943 0.0
C565 C 0.55658 0.2002 0.56132 0.0
C566 C 0.69084 0.20626 0.5263 0.0
C567 C 0.65087 0.22011 0.53429 0.0
C568 C 0.51714 0.21388 0.56949 0.0
C569 C 0.56365 0.22377 0.5559 0.0
C570 C 0.60863 0.13662 0.59156 0.0
C571 C 0.48126 0.12847 0.47847 0.0
C572 C 0.60356 0.08854 0.45958 0.0
C573 C 0.65341 0.0747 0.45153 0.0
C574 C 0.74054 0.07183 0.42969 0.0
C575 C 0.61497 0.06437 0.46668 0.0
C576 C 0.66441 0.05148 0.46093 0.0
C577 C 0.78977 0.05913 0.4242 0.0
C578 C 0.75229 0.04903 0.43991 0.0
C579 C 0.63324 0.13441 0.41129 0.0
H580 H 0.51915 0.19279 0.57204 0.0
H581 H 0.75766 0.20325 0.50916 0.0
H582 H 0.45017 0.21682 0.58635 0.0
H583 H 0.53189 0.23438 0.5628 0.0
H584 H 0.77061 0.07933 0.41661 0.0
H585 H 0.54757 0.06645 0.48341 0.0
H586 H 0.85706 0.05707 0.4075 0.0
H587 H 0.79129 0.03915 0.43487 0.0
Gd588 Gd 0.44971 0.90464 0.52502 0.0
Gd589 Gd 0.48602 0.86384 0.47069 0.0
C590 C 0.77205 0.84401 0.42096 0.0
C591 C 0.7523 0.83145 0.33461 0.0
C592 C 0.62402 0.84463 0.38557 0.0
C593 C 0.67982 0.84893 0.42555 0.0
C594 C 0.65865 0.8354 0.33981 0.0
C595 C 0.80892 0.83573 0.37517 0.0
C596 C 0.82312 0.84696 0.46258 0.0
C597 C 0.7809 0.85412 0.5072 0.0
N598 N 0.64124 0.85663 0.46927 0.0
C599 C 0.68907 0.85869 0.50988 0.0
H600 H 0.65804 0.8642 0.54474 0.0
C601 C 0.47184 0.84171 0.3554 0.0
N602 N 0.5333 0.84814 0.39226 0.0
C603 C 0.50298 0.83267 0.3092 0.0
C604 C 0.59711 0.82975 0.30116 0.0
H605 H 0.399 0.84402 0.36134 0.0
H606 H 0.88007 0.83207 0.3709 0.0
H607 H 0.35444 0.9007 0.41856 0.0
H608 H 0.89422 0.8434 0.46061 0.0
H609 H 0.8191 0.85618 0.53961 0.0
H610 H 0.78057 0.82453 0.29967 0.0
H611 H 0.42264 0.92146 0.64602 0.0
H612 H 0.07526 0.91471 0.44292 0.0
H613 H 0.20811 0.90506 0.38853 0.0
H614 H 1.03272 0.92933 0.61035 0.0
H615 H 0.45441 0.82799 0.27985 0.0
H616 H 0.62101 0.82263 0.26542 0.0
H617 H 1.00998 0.92326 0.52512 0.0
H618 H 0.29782 0.93084 0.7045 0.0
N619 N 0.30864 0.90752 0.49083 0.0
C620 C 0.14038 0.91285 0.45679 0.0
C621 C 0.21504 0.90737 0.426 0.0
C622 C 0.15056 0.91588 0.50513 0.0
C623 C 0.23693 0.91327 0.52153 0.0
C624 C 0.29882 0.9048 0.44359 0.0
N625 N 0.33443 0.91469 0.58474 0.0
C626 C 0.24956 0.9166 0.56954 0.0
C627 C 0.28256 0.92653 0.66661 0.0
C628 C 0.19328 0.92725 0.65115 0.0
C629 C 0.35294 0.92069 0.63296 0.0
C630 C 0.17641 0.92275 0.60232 0.0
H631 H 0.13897 0.93201 0.67733 0.0
O632 O 0.50115 0.92651 0.57253 0.0
O633 O 0.55257 0.88629 0.49511 0.0
O634 O 0.50413 0.87295 0.55097 0.0
O635 O 0.46581 0.89821 0.5866 0.0
O636 O 0.5948 0.9055 0.55273 0.0
O637 O 0.4742 0.92145 0.49814 0.0
O638 O 0.39544 0.84451 0.45038 0.0
O639 O 0.38248 0.88234 0.50358 0.0
O640 O 0.49349 0.89678 0.44705 0.0
O641 O 0.50876 0.87078 0.41056 0.0
O642 O 0.34391 0.8641 0.44169 0.0
O643 O 0.48669 0.85035 0.51086 0.0
C644 C 0.62088 0.89248 0.52222 0.0
C645 C 0.08973 0.92479 0.58575 0.0
C646 C 0.07693 0.92141 0.5373 0.0
C647 C 0.49503 0.93176 0.54032 0.0
C648 C 0.44807 0.94626 0.55488 0.0
C649 C 0.37607 0.95041 0.58839 0.0
C650 C 0.47648 0.95622 0.53581 0.0
C651 C 0.43415 0.97033 0.55063 0.0
C652 C 0.33339 0.96422 0.60285 0.0
C653 C 0.36242 0.97416 0.58448 0.0
C654 C 0.4902 0.88568 0.58884 0.0
C655 C 0.31675 0.87665 0.47415 0.0
C656 C 0.42892 0.84052 0.48242 0.0
C657 C 0.45787 0.82483 0.46544 0.0
C658 C 0.53688 0.81979 0.43698 0.0
C659 C 0.40967 0.81496 0.4793 0.0
C660 C 0.4421 0.80029 0.46542 0.0
C661 C 0.56832 0.80525 0.42269 0.0
C662 C 0.52159 0.79556 0.437 0.0
C663 C 0.50824 0.88396 0.40918 0.0
H664 H 0.35336 0.94314 0.60411 0.0
H665 H 0.53142 0.95297 0.50957 0.0
H666 H 0.27846 0.96733 0.62902 0.0
H667 H 0.32979 0.98499 0.59775 0.0
H668 H 0.57508 0.82709 0.4262 0.0
H669 H 0.34892 0.81875 0.50166 0.0
H670 H 0.62956 0.80154 0.40078 0.0
H671 H 0.54726 0.7843 0.42567 0.0
H672 H 0.39043 0.38442 0.05537 0.0
H673 H 0.42122 0.37325 0.90526 0.0
H674 H 0.55647 0.38697 0.06588 0.0
H675 H 0.58554 0.37717 0.91535 0.0
H676 H 0.89405 0.37829 0.93423 0.0
H677 H 0.72988 0.37338 0.92269 0.0
H678 H 0.68901 0.3979 0.07582 0.0
H679 H 0.85368 0.40102 0.08651 0.0
C680 C 0.43306 0.38288 0.02479 0.0
C681 C 0.39246 0.37917 0.97984 0.0
C682 C 0.52937 0.38445 0.03063 0.0
C683 C 0.58837 0.38261 0.99179 0.0
C684 C 0.54609 0.37856 0.94661 0.0
C685 C 0.45045 0.37651 0.94067 0.0
C686 C 0.84967 0.38211 0.96535 0.0
C687 C 0.88751 0.38932 0.01145 0.0
C688 C 0.75395 0.37965 0.9589 0.0
C689 C 0.69216 0.38498 -0.00171 0.0
C690 C 0.73136 0.39288 0.0442 0.0
C691 C 0.82694 0.39488 0.05057 0.0
H692 H 0.20745 0.63702 0.06018 0.0
H693 H 0.23703 0.62477 0.9093 0.0
H694 H 0.37331 0.63972 0.07037 0.0
H695 H 0.40173 0.62881 0.91901 0.0
H696 H 0.71133 0.62963 0.93822 0.0
H697 H 0.54654 0.62492 0.92673 0.0
H698 H 0.50533 0.65068 0.07927 0.0
H699 H 0.66974 0.65353 0.09012 0.0
C700 C 0.2498 0.6353 0.02935 0.0
C701 C 0.20901 0.63108 0.98418 0.0
C702 C 0.34606 0.63694 0.03498 0.0
C703 C 0.40483 0.63479 -0.00423 0.0
C704 C 0.36229 0.63044 0.95051 0.0
C705 C 0.26659 0.6283 0.94475 0.0
C706 C 0.66656 0.63385 0.96922 0.0
C707 C 0.70422 0.64129 0.01529 0.0
C708 C 0.57066 0.63146 0.96278 0.0
C709 C 0.50867 0.63715 0.00207 0.0
C710 C 0.54772 0.64538 0.04779 0.0
C711 C 0.64326 0.64728 0.0542 0.0
H712 H 0.88469 0.64165 0.56446 0.0
H713 H 0.84192 0.62073 0.41196 0.0
H714 H 0.71999 0.64623 0.5768 0.0
H715 H 0.67724 0.62346 0.42327 0.0
H716 H 0.3797 0.63725 0.44627 0.0
H717 H 0.54583 0.63511 0.43567 0.0
H718 H 0.57627 0.64094 0.58263 0.0
H719 H 0.41144 0.64449 0.59333 0.0
C720 C 0.83971 0.63815 0.53351 0.0
C721 C 0.87682 0.63154 0.48719 0.0
C722 C 0.74395 0.64041 0.54038 0.0
C723 C 0.68169 0.63545 0.50109 0.0
C724 C 0.72018 0.62816 0.45486 0.0
C725 C 0.81567 0.62638 0.44814 0.0
C726 C 0.42255 0.638 0.47604 0.0
C727 C 0.38227 0.64051 0.52016 0.0
C728 C 0.51881 0.63666 0.47011 0.0
C729 C 0.57803 0.63755 0.50794 0.0
C730 C 0.53621 0.64036 0.55232 0.0
C731 C 0.44048 0.64216 0.55851 0.0
H732 H 0.71601 0.38398 0.55356 0.0
H733 H 0.68468 0.37621 0.406 0.0
H734 H 0.54992 0.3861 0.56397 0.0
H735 H 0.51991 0.37978 0.41648 0.0
H736 H 0.21149 0.37899 0.43437 0.0
H737 H 0.37633 0.37456 0.42228 0.0
H738 H 0.41824 0.39752 0.57586 0.0
H739 H 0.2536 0.40006 0.58693 0.0
C740 C 0.67323 0.38314 0.52365 0.0
C741 C 0.71354 0.38046 0.47943 0.0
C742 C 0.57699 0.38445 0.52946 0.0
C743 C 0.5179 0.38341 0.4914 0.0
C744 C 0.55983 0.38048 0.44696 0.0
C745 C 0.65552 0.37867 0.4409 0.0
C746 C 0.2564 0.38258 0.46538 0.0
C747 C 0.21911 0.38917 0.51164 0.0
C748 C 0.35221 0.3804 0.45865 0.0
C749 C 0.41425 0.38545 0.49804 0.0
C750 C 0.37554 0.39275 0.5442 0.0
C751 C 0.28004 0.39443 0.55077 0.0
H752 H 0.88887 0.88535 0.05722 0.0
H753 H 0.92334 0.8756 0.90826 0.0
H754 H 0.05523 0.88713 0.06833 0.0
H755 H 0.08834 0.87871 0.91919 0.0
H756 H 0.39471 0.87839 0.93836 0.0
H757 H 0.23089 0.87322 0.92667 0.0
H758 H 0.18848 0.89837 0.07932 0.0
H759 H 0.35329 0.90163 0.09044 0.0
C760 C 0.93239 0.88393 0.02705 0.0
C761 C 0.89282 0.8808 0.98221 0.0
C762 C 1.02878 0.88503 0.03326 0.0
C763 C 0.08885 0.88331 -0.00504 0.0
C764 C 1.04766 0.87991 0.94992 0.0
C765 C 0.95183 0.87834 0.94353 0.0
C766 C 0.35048 0.88218 0.96947 0.0
C767 C 0.38797 0.8897 0.01557 0.0
C768 C 0.25489 0.87963 0.96285 0.0
C769 C 0.19269 0.88526 0.00196 0.0
C770 C 0.2314 0.89323 0.04795 0.0
C771 C 0.32698 0.89528 0.05454 0.0
H772 H 0.21838 0.14091 0.09437 0.0
H773 H 0.23378 0.14103 0.95508 0.0
H774 H 1.05183 0.13829 0.08715 0.0
H775 H 0.06579 0.1395 0.94847 0.0
H776 H 0.76803 0.12259 0.92892 0.0
H777 H 0.93488 0.12582 0.93506 0.0
H778 H 0.91105 0.14773 0.08955 0.0
H779 H 0.74542 0.14318 0.08249 0.0
C780 C 0.18553 0.14038 0.06207 0.0
C781 C 0.23935 0.14055 0.02453 0.0
C782 C 0.08922 0.13913 0.05808 0.0
C783 C 1.04282 0.13865 0.01711 0.0
C784 C 0.09741 0.13942 0.98019 0.0
C785 C 0.19422 0.14034 0.98386 0.0
C786 C 0.79887 0.12837 0.96408 0.0
C787 C 0.74325 0.1333 0.00521 0.0
C788 C 0.89505 0.13027 0.96778 0.0
C789 C 0.93887 0.13716 0.01289 0.0
C790 C 0.88203 0.14211 0.054 0.0
C791 C 0.78614 0.13986 0.05017 0.0
H792 H 0.34655 0.12142 0.41245 0.0
H793 H 0.38885 0.14096 0.56501 0.0
H794 H 0.18186 0.124 0.42375 0.0
H795 H 0.22407 0.14537 0.57756 0.0
H796 H 0.91495 0.14388 0.59303 0.0
H797 H 0.07985 0.14023 0.58256 0.0
H798 H 1.0518 0.13596 0.4371 0.0
H799 H 0.88571 0.13812 0.44726 0.0
C800 C 0.32013 0.12671 0.44869 0.0
C801 C 0.38106 0.1316 0.48778 0.0
C802 C 0.22468 0.12842 0.45543 0.0
C803 C 0.18614 0.13535 0.50175 0.0
C804 C 0.24813 0.13988 0.54107 0.0
C805 C 0.34386 0.13768 0.53411 0.0
C806 C 0.94462 0.14187 0.55858 0.0
C807 C 0.88723 0.14063 0.52039 0.0
C808 C 1.04032 0.14001 0.55254 0.0
C809 C 0.0827 0.13757 0.50858 0.0
C810 C 1.02425 0.13716 0.47109 0.0
C811 C 0.92808 0.13852 0.47679 0.0
H812 H 0.75447 0.90007 0.589 0.0
H813 H 0.71445 0.87863 0.43638 0.0
H814 H 0.91917 0.89737 0.57862 0.0
H815 H 0.87897 0.87408 0.42493 0.0
H816 H 0.1873 0.87433 0.40847 0.0
H817 H 1.02303 0.8782 0.41854 0.0
H818 H 0.0524 0.88671 0.5681 0.0
H819 H 0.21835 0.88421 0.55772 0.0
C820 C 0.78137 0.89431 0.55299 0.0
C821 C 0.72093 0.889 0.51366 0.0
C822 C 0.87701 0.89254 0.54679 0.0
C823 C 0.91643 0.88511 0.5008 0.0
C824 C 0.85473 0.88002 0.46122 0.0
C825 C 0.75887 0.88225 0.46757 0.0
C826 C 0.15815 0.87733 0.4437 0.0
C827 C 0.21618 0.87961 0.48267 0.0
C828 C 0.06254 0.87933 0.44961 0.0
C829 C 1.02031 0.88295 0.49447 0.0
C830 C 0.0794 0.8845 0.53311 0.0
C831 C 0.17569 0.88298 0.52736 0.0
H832 H 1.03291 0.53744 0.93773 0.0
H833 H 0.16745 0.55439 0.07575 0.0
H834 H 1.00835 0.5136 0.94145 0.0
H835 H 0.14136 0.53073 0.08012 0.0
H836 H 0.15401 0.48278 0.05865 0.0
H837 H 0.18616 0.50549 0.04912 0.0
H838 H 0.922 0.50175 0.97979 0.0
H839 H 0.89283 0.47855 0.98629 0.0
C840 C 0.05656 0.53612 0.96907 0.0
C841 C 0.1026 0.54782 0.00632 0.0
C842 C 1.04237 0.52243 0.97129 0.0
C843 C 0.0731 0.52012 0.01104 0.0
C844 C 0.11849 0.53191 0.04842 0.0
C845 C 0.13323 0.54553 0.04602 0.0
C846 C 0.10346 0.48662 0.04055 0.0
C847 C 1.02038 0.47879 0.02358 0.0
C848 C 0.12133 0.49983 0.03571 0.0
C849 C 0.05638 0.50563 0.01407 0.0
C850 C 0.97422 0.49763 -0.00373 0.0
C851 C 0.95677 0.48438 0.0007 0.0
H852 H 1.0273 0.49784 0.6109 0.0
H853 H 0.95489 0.47034 0.46377 0.0
H854 H 0.07981 0.51753 0.58847 0.0
H855 H 1.00589 0.49018 0.44124 0.0
H856 H 1.00045 0.53734 0.43967 0.0
H857 H 0.94952 0.5176 0.4625 0.0
H858 H 0.20887 0.52048 0.53492 0.0
H859 H 0.25998 0.54003 0.51163 0.0
C860 C 1.0233 0.49603 0.57371 0.0
C861 C 0.98752 0.48266 0.53894 0.0
C862 C 0.05321 0.50725 0.56091 0.0
C863 C 1.0462 0.50538 0.51324 0.0
C864 C 1.01113 0.49192 0.47831 0.0
C865 C 0.98281 0.48056 0.49102 0.0
C866 C 1.04592 0.53382 0.46086 0.0
C867 C 0.13401 0.54014 0.47394 0.0
C868 C 1.01728 0.52247 0.47348 0.0
C869 C 0.07565 0.51748 0.50015 0.0
C870 C 0.1626 0.52414 0.51441 0.0
C871 C 0.19181 0.53528 0.50108 0.0
H872 H 0.35872 0.97289 0.96041 0.0
H873 H 0.61891 0.98116 0.036 0.0
H874 H 0.38016 0.99516 0.94706 0.0
H875 H 0.64137 1.00329 0.02114 0.0
H876 H 0.68781 0.02887 0.92432 0.0
H877 H 0.66922 1.0092 0.95155 0.0
H878 H 0.38705 0.02282 0.99026 0.0
H879 H 0.40576 0.04249 0.96247 0.0
C880 C 0.42008 0.97952 0.97477 0.0
C881 C 0.48662 0.97517 -0.00031 0.0
C882 C 0.43233 0.99234 0.96703 0.0
C883 C 0.51202 1.00112 0.98341 0.0
C884 C 0.57926 0.99675 0.0079 0.0
C885 C 0.56656 0.98398 0.01613 0.0
C886 C 0.6222 0.0278 0.93933 0.0
C887 C 0.54798 0.03714 0.94085 0.0
C888 C 0.61169 0.01657 0.95517 0.0
C889 C 0.52636 0.01431 0.9726 0.0
C890 C 0.45334 0.02414 0.97639 0.0
C891 C 0.46422 0.0355 0.96095 0.0
H892 H 0.49856 0.03725 0.43573 0.0
H893 H 0.74328 0.04049 0.51928 0.0
H894 H 0.44254 0.01683 0.45321 0.0
H895 H 0.68609 0.02066 0.53901 0.0
H896 H 0.61113 0.97572 0.53014 0.0
H897 H 0.66337 0.99496 0.50656 0.0
H898 H 0.3822 1.01 0.51084 0.0
H899 H 0.32944 0.99 0.53027 0.0
C900 C 0.53934 0.03375 0.45865 0.0
C901 C 0.62524 0.04035 0.47603 0.0
C902 C 0.50741 0.02206 0.46877 0.0
C903 C 0.56012 0.0169 0.49719 0.0
C904 C 0.64466 0.02397 0.5159 0.0
C905 C 0.67712 0.03546 0.5051 0.0
C906 C 0.56015 0.9829 0.52495 0.0
C907 C 0.46601 0.98134 0.53265 0.0
C908 C 0.59033 0.99415 0.51226 0.0
C909 C 0.52735 1.00428 0.50754 0.0
C910 C 0.43297 1.00242 0.51382 0.0
C911 C 0.40272 0.99104 0.52575 0.0
H912 H 0.09424 0.28561 0.01192 0.0
H913 H 0.3476 0.29147 0.94895 0.0
H914 H 0.16555 0.26613 0.02907 0.0
H915 H 0.41878 0.27144 0.96386 0.0
H916 H 0.54239 0.24495 0.04061 0.0
H917 H 0.4763 0.26436 0.02196 0.0
H918 H 0.21451 0.24126 0.99145 0.0
H919 H 0.27932 0.22238 0.01372 0.0
C920 C 0.16555 0.28269 0.00189 0.0
C921 C 0.21569 0.29 0.97925 0.0
C922 C 0.20617 0.27139 0.01107 0.0
C923 C 0.29764 0.26696 -0.00286 0.0
C924 C 0.34851 0.2746 0.97549 0.0
C925 C 0.30804 0.28608 0.96695 0.0
C926 C 0.47048 0.24404 0.0302 0.0
C927 C 0.41571 0.23224 0.02961 0.0
C928 C 0.43279 0.25511 0.01884 0.0
C929 C 0.33954 0.25456 0.00578 0.0
C930 C 0.28601 0.24229 0.00257 0.0
C931 C 0.32354 0.23129 0.01455 0.0
H932 H 0.79422 0.77516 0.89361 0.0
H933 H 0.66674 0.79968 0.03121 0.0
H934 H 0.84517 0.75621 0.91887 0.0
H935 H 0.71465 0.7804 0.05639 0.0
H936 H 0.89621 0.75039 0.10076 0.0
H937 H 0.8389 0.76956 0.0783 0.0
H938 H 0.7923 0.73626 0.93389 0.0
H939 H 0.85631 0.71723 0.9557 0.0
C940 C 0.77687 0.77644 0.92934 0.0
C941 C 0.72613 0.78884 0.96038 0.0
C942 C 0.80522 0.76549 0.94372 0.0
C943 C 0.78278 0.76654 0.98944 0.0
C944 C 0.73384 0.7792 0.02101 0.0
C945 C 0.70634 0.79028 0.00671 0.0
C946 C 0.87421 0.74714 0.06409 0.0
C947 C 0.88273 0.73228 0.02983 0.0
C948 C 0.84004 0.75815 0.05133 0.0
C949 C 0.81198 0.75459 0.00404 0.0
C950 C 0.81548 0.73955 0.97039 0.0
C951 C 0.85077 0.72854 0.98306 0.0
H952 H 0.06969 0.74453 0.54162 0.0
H953 H 0.33427 0.72252 0.51771 0.0
H954 H 0.1353 0.76392 0.52281 0.0
H955 H 0.39856 0.74134 0.49511 0.0
H956 H 0.51681 0.78565 0.5139 0.0
H957 H 0.44634 0.76623 0.5316 0.0
H958 H 0.19299 0.77089 0.46479 0.0
H959 H 0.26323 0.79089 0.44944 0.0
C960 C 0.14184 0.74374 0.53186 0.0
C961 C 0.19707 0.73209 0.53213 0.0
C962 C 0.17928 0.75479 0.52037 0.0
C963 C 0.27276 0.75438 0.50798 0.0
C964 C 0.32685 0.74227 0.50569 0.0
C965 C 0.2896 0.7313 0.51785 0.0
C966 C 0.44567 0.78259 0.50361 0.0
C967 C 0.3952 0.78972 0.48043 0.0
C968 C 0.40551 0.77133 0.51313 0.0
C969 C 0.31421 0.76674 0.49897 0.0
C970 C 0.2631 0.77418 0.47667 0.0
C971 C 0.30306 0.78564 0.46784 0.0
H972 H 1.02816 0.27763 0.4686 0.0
H973 H 0.75907 0.29737 0.47804 0.0
H974 H 0.96139 0.25823 0.48704 0.0
H975 H 0.69283 0.27854 0.50009 0.0
H976 H 0.58264 0.23354 0.48034 0.0
H977 H 0.65332 0.25319 0.46398 0.0
H978 H 0.89512 0.25155 0.54406 0.0
H979 H 0.82503 0.23137 0.55842 0.0
C980 C 0.95467 0.27792 0.47509 0.0
C981 C 0.8988 0.28893 0.4709 0.0
C982 C 0.91644 0.26687 0.48636 0.0
C983 C 0.82129 0.26662 0.49455 0.0
C984 C 0.76605 0.27811 0.49285 0.0
C985 C 0.80426 0.28909 0.48099 0.0
C986 C 0.65128 0.23732 0.49401 0.0
C987 C 0.69848 0.23096 0.52061 0.0
C988 C 0.69151 0.24872 0.48517 0.0
C989 C 0.77961 0.2542 0.50327 0.0
C990 C 0.8276 0.24757 0.52909 0.0
C991 C 0.78767 0.23599 0.53736 0.0
H992 H 0.12988 0.36302 0.11149 0.0
H993 H 0.07087 0.41016 0.1705 0.0
H994 H 0.10201 0.36302 0.18919 0.0
H995 H 1.04056 0.41013 0.24835 0.0
H996 H 0.08027 0.40729 0.39214 0.0
H997 H 0.11067 0.40793 0.31516 0.0
H998 H 0.98074 0.36481 0.2425 0.0
H999 H 0.95207 0.36414 0.31924 0.0
C1000 C 0.11054 0.37339 0.14107 0.0
C1001 C 0.10321 0.38661 0.13485 0.0
C1002 C 0.09398 0.37338 0.18567 0.0
C1003 C 0.06851 0.38656 0.22518 0.0
C1004 C 0.06143 0.39981 0.21898 0.0
C1005 C 0.07883 0.39984 0.17432 0.0
C1006 C 0.05837 0.39795 0.35964 0.0
C1007 C 1.01557 0.38551 0.3617 0.0
C1008 C 0.07534 0.39835 0.31549 0.0
C1009 C 1.04899 0.38636 0.27241 0.0
C1010 C 1.00432 0.37407 0.27474 0.0
C1011 C 0.98802 0.37365 0.31881 0.0
H1012 H 0.96836 0.65896 0.18208 0.0
H1013 H 0.07149 0.61412 0.10776 0.0
H1014 H 1.00301 0.65848 0.25855 0.0
H1015 H 0.10708 0.61357 0.18442 0.0
H1016 H 0.05679 0.61229 0.32974 0.0
H1017 H 1.03201 0.61271 0.25225 0.0
H1018 H 0.1261 0.6584 0.31003 0.0
H1019 H 0.14928 0.65805 0.38792 0.0
C1020 C 1.00027 0.64912 0.18206 0.0
C1021 C 1.01834 0.6367 0.13886 0.0
C1022 C 1.02 0.6488 0.22599 0.0
C1023 C 0.0584 0.63601 0.2278 0.0
C1024 C 0.07654 0.62355 0.18445 0.0
C1025 C 0.05638 0.62387 0.14049 0.0
C1026 C 0.0735 0.62237 0.32579 0.0
C1027 C 0.10567 0.63511 0.36497 0.0
C1028 C 0.0593 0.6226 0.28125 0.0
C1029 C 0.07707 0.63559 0.27476 0.0
C1030 C 0.11032 0.64828 0.31388 0.0
C1031 C 0.12403 0.64806 0.35851 0.0
H1032 H 0.99776 0.61006 0.82618 0.0
H1033 H 0.95722 0.65767 0.88765 0.0
H1034 H 1.02526 0.60998 0.74811 0.0
H1035 H 0.98251 0.65764 0.80958 0.0
H1036 H 0.13899 0.65536 0.67954 0.0
H1037 H 0.10439 0.65483 0.75584 0.0
H1038 H 0.9598 0.61307 0.68187 0.0
H1039 H 0.99613 0.61363 0.60516 0.0
C1040 C 0.99243 0.62045 0.82281 0.0
C1041 C 0.97452 0.63384 0.86305 0.0
C1042 C 1.0085 0.62043 0.77799 0.0
C1043 C 1.0066 0.63381 0.77237 0.0
C1044 C 0.98651 0.64715 0.81259 0.0
C1045 C 0.97139 0.64717 0.85738 0.0
C1046 C 0.0983 0.64623 0.67961 0.0
C1047 C 0.06843 0.63473 0.63647 0.0
C1048 C 0.07858 0.64588 0.72343 0.0
C1049 C 1.02809 0.634 0.72529 0.0
C1050 C 0.99936 0.62235 0.68191 0.0
C1051 C 1.01982 0.62268 0.63794 0.0
H1052 H 0.05523 0.40695 0.66589 0.0
H1053 H 0.90979 0.36504 0.61648 0.0
H1054 H 0.07773 0.40674 0.74372 0.0
H1055 H 0.92813 0.3651 0.69524 0.0
H1056 H 0.07268 0.36072 0.81933 0.0
H1057 H 1.03931 0.36144 0.74358 0.0
H1058 H 1.0111 0.40936 0.81576 0.0
H1059 H 1.04966 0.40858 0.89158 0.0
C1060 C 1.02643 0.39782 0.67204 0.0
C1061 C 0.98061 0.38602 0.63516 0.0
C1062 C 1.03894 0.39773 0.71684 0.0
C1063 C 1.00481 0.38591 0.72609 0.0
C1064 C 0.95708 0.37425 0.6893 0.0
C1065 C 0.94597 0.37423 0.64419 0.0
C1066 C 0.05939 0.37139 0.81926 0.0
C1067 C 0.06479 0.38454 0.86169 0.0
C1068 C 1.03922 0.37183 0.7756 0.0
C1069 C 1.02231 0.38547 0.77318 0.0
C1070 C 1.02543 0.39865 0.8159 0.0
C1071 C 1.04702 0.3982 0.85955 0.0
H1072 H 0.652 0.86329 0.11319 0.0
H1073 H 0.56242 0.90911 0.17135 0.0
H1074 H 0.6287 0.86292 0.19102 0.0
H1075 H 0.53772 0.90876 0.24897 0.0
H1076 H 0.57968 0.90715 0.39379 0.0
H1077 H 0.61176 0.90789 0.31704 0.0
H1078 H 0.50822 0.86292 0.24299 0.0
H1079 H 0.47735 0.86225 0.31937 0.0
C1080 C 0.62737 0.8733 0.14265 0.0
C1081 C 0.61051 0.88631 0.13627 0.0
C1082 C 0.61355 0.87308 0.18726 0.0
C1083 C 0.58135 0.88583 0.22651 0.0
C1084 C 0.56444 0.89884 0.21998 0.0
C1085 C 0.57889 0.89906 0.17541 0.0
C1086 C 0.56412 0.89741 0.36105 0.0
C1087 C 0.52776 0.88449 0.36272 0.0
C1088 C 0.58212 0.89785 0.31701 0.0
C1089 C 0.56338 0.88541 0.2736 0.0
C1090 C 0.52595 0.87258 0.2755 0.0
C1091 C 0.50844 0.87214 0.31945 0.0
H1092 H 0.49649 0.15788 0.18084 0.0
H1093 H 0.60765 0.11363 0.10576 0.0
H1094 H 0.53192 0.15733 0.25711 0.0
H1095 H 0.64141 0.11283 0.18251 0.0
H1096 H 0.56932 0.11201 0.32857 0.0
H1097 H 0.55277 0.11223 0.25032 0.0
H1098 H 0.66406 0.15687 0.30692 0.0
H1099 H 0.68139 0.15666 0.38535 0.0
C1100 C 0.53098 0.14822 0.18065 0.0
C1101 C 0.55165 0.13602 0.13743 0.0
C1102 C 0.55053 0.14782 0.22438 0.0
C1103 C 0.59035 0.13509 0.22582 0.0
C1104 C 0.61041 0.12278 0.1825 0.0
C1105 C 0.59116 0.12323 0.13867 0.0
C1106 C 0.59222 0.12176 0.32421 0.0
C1107 C 0.62756 0.13427 0.36319 0.0
C1108 C 0.58254 0.12188 0.2793 0.0
C1109 C 0.60717 0.13455 0.2725 0.0
C1110 C 0.64366 0.14699 0.31125 0.0
C1111 C 0.65375 0.14685 0.35614 0.0
H1112 H 0.49001 0.15764 0.88876 0.0
H1113 H 0.57138 0.11129 0.82957 0.0
H1114 H 0.5129 0.158 0.81135 0.0
H1115 H 0.59578 0.11177 0.75185 0.0
H1116 H 0.65689 0.1579 0.68005 0.0
H1117 H 0.63556 0.15712 0.75729 0.0
H1118 H 0.50959 0.11363 0.68681 0.0
H1119 H 0.53141 0.11438 0.60951 0.0
C1120 C 0.51318 0.14751 0.8593 0.0
C1121 C 0.52861 0.1344 0.86546 0.0
C1122 C 0.52683 0.14777 0.81489 0.0
C1123 C 0.55645 0.13494 0.77544 0.0
C1124 C 0.57189 0.1218 0.78145 0.0
C1125 C 0.55823 0.12154 0.82602 0.0
C1126 C 0.62346 0.14827 0.68104 0.0
C1127 C 0.5947 0.1363 0.63865 0.0
C1128 C 0.6115 0.14779 0.72534 0.0
C1129 C 0.57061 0.13532 0.72824 0.0
C1130 C 0.54237 0.12332 0.68579 0.0
C1131 C 0.55441 0.12379 0.6415 0.0
H1132 H 0.53075 0.90979 0.67311 0.0
H1133 H 0.49276 0.86206 0.61262 0.0
H1134 H 0.5578 0.91012 0.7516 0.0
H1135 H 0.52394 0.8623 0.69058 0.0
H1136 H 0.4805 0.87003 0.8455 0.0
H1137 H 0.45248 0.87025 0.76814 0.0
H1138 H 0.67053 0.90257 0.7955 0.0
H1139 H 0.6984 0.90243 0.8735 0.0
C1140 C 0.52703 0.89939 0.67658 0.0
C1141 C 0.50745 0.88595 0.63667 0.0
C1142 C 0.54421 0.89954 0.7215 0.0
C1143 C 0.54266 0.88624 0.72752 0.0
C1144 C 0.52416 0.87278 0.68745 0.0
C1145 C 0.50692 0.87264 0.6426 0.0
C1146 C 0.52319 0.87711 0.83501 0.0
C1147 C 0.59262 0.88607 0.86558 0.0
C1148 C 0.50708 0.87722 0.79049 0.0
C1149 C 0.55962 0.88635 0.77536 0.0
C1150 C 0.62823 0.8955 0.8062 0.0
C1151 C 0.64451 0.89537 0.85085 0.0
loop_
_geom_bond_atom_site_label_1
_geom_bond_atom_site_label_2
_geom_bond_distance
_geom_bond_site_symmetry_2
_ccdc_geom_bond_type
Gd0 N31 2.661 1_455 S
Gd0 N37 2.601 1_455 S
Gd0 O44 2.545 . S
Gd0 O45 2.606 1_556 S
Gd0 O47 2.429 . S
Gd0 O48 2.545 . S
Gd0 O49 2.412 . S
Gd0 O51 2.362 1_455 S
Gd0 O52 2.324 1_556 S
Gd0 C59 2.828 . S
Gd1 N10 2.661 . S
Gd1 N14 2.601 . S
Gd1 O45 2.362 . S
Gd1 O46 2.324 1_554 S
Gd1 O50 2.545 . S
Gd1 O51 2.606 1_454 S
Gd1 O53 2.429 . S
Gd1 O54 2.545 1_455 S
Gd1 O55 2.412 . S
Gd1 C68 2.828 . S
C2 C5 1.417 . S
C2 C7 1.431 . S
C2 C8 1.412 1_554 S
C3 C6 1.437 . S
C3 C7 1.317 . S
C3 H22 0.929 . S
C4 C5 1.426 . S
C4 C6 1.413 . S
C4 N14 1.359 . S
C5 C2 1.417 . S
C5 C4 1.426 . S
C5 N10 1.350 . S
C6 C3 1.437 . S
C6 C4 1.413 . S
C6 C16 1.391 . S
C7 C2 1.431 . S
C7 C3 1.317 . S
C7 H18 0.930 . S
C8 C2 1.412 1_556 S
C8 C9 1.355 . S
C8 H20 0.930 . S
C9 C8 1.355 . S
C9 C11 1.402 . S
C9 H21 0.930 . S
N10 Gd1 2.661 . S
N10 C5 1.350 . S
N10 C11 1.307 1_554 S
C11 C9 1.402 . S
C11 N10 1.307 1_556 S
C11 H12 0.930 . S
H12 C11 0.930 . S
C13 N14 1.334 . S
C13 C15 1.394 . S
C13 H17 0.930 . S
N14 Gd1 2.601 . S
N14 C4 1.359 . S
N14 C13 1.334 . S
C15 C13 1.394 . S
C15 C16 1.359 . S
C15 H27 0.930 . S
C16 C6 1.391 . S
C16 C15 1.359 . S
C16 H28 0.929 . S
H17 C13 0.930 . S
H18 C7 0.930 . S
H19 C36 0.930 . S
H20 C8 0.930 . S
H21 C9 0.930 . S
H22 C3 0.929 . S
H23 C41 0.930 1_455 S
H24 C32 0.930 . S
H25 C33 0.930 . S
H26 C57 0.929 . S
H27 C15 0.930 . S
H28 C16 0.929 . S
H29 C58 0.930 . S
H30 C39 0.930 . S
N31 Gd0 2.661 1_655 S
N31 C35 1.350 . S
N31 C36 1.307 1_556 S
C32 H24 0.930 . S
C32 C33 1.355 . S
C32 C34 1.412 1_554 S
C33 H25 0.930 . S
C33 C32 1.355 . S
C33 C36 1.402 . S
C34 C32 1.412 1_556 S
C34 C35 1.417 . S
C34 C58 1.431 . S
C35 N31 1.350 . S
C35 C34 1.417 . S
C35 C38 1.426 . S
C36 H19 0.930 . S
C36 N31 1.307 1_554 S
C36 C33 1.402 . S
N37 Gd0 2.601 1_655 S
N37 C38 1.359 . S
N37 C41 1.334 . S
C38 C35 1.426 . S
C38 N37 1.359 . S
C38 C42 1.413 . S
C39 H30 0.930 . S
C39 C40 1.359 . S
C39 C41 1.394 . S
C40 C39 1.359 . S
C40 C42 1.391 . S
C40 H43 0.929 . S
C41 H23 0.930 1_655 S
C41 N37 1.334 . S
C41 C39 1.394 . S
C42 C38 1.413 . S
C42 C40 1.391 . S
C42 C57 1.437 . S
H43 C40 0.929 . S
O44 Gd0 2.545 . S
O44 C59 1.258 . S
O45 Gd0 2.606 1_554 S
O45 Gd1 2.362 . S
O45 C56 1.284 . S
O46 Gd1 2.324 1_556 S
O46 C66 1.254 . S
O47 Gd0 2.429 . S
O47 C66 1.268 . S
O48 Gd0 2.545 . S
O48 C56 1.250 1_556 S
O49 Gd0 2.412 . S
O49 C59 1.252 . S
O50 Gd1 2.545 . S
O50 C68 1.258 . S
O51 Gd0 2.362 1_655 S
O51 Gd1 2.606 1_656 S
O51 C67 1.284 1_556 S
O52 Gd0 2.324 1_554 S
O52 C75 1.254 . S
O53 Gd1 2.429 . S
O53 C75 1.268 . S
O54 Gd1 2.545 1_655 S
O54 C67 1.250 . S
O55 Gd1 2.412 . S
O55 C68 1.252 . S
C56 O45 1.284 . S
C56 O48 1.250 1_554 S
C57 H26 0.929 . S
C57 C42 1.437 . S
C57 C58 1.317 . S
C58 H29 0.930 . S
C58 C34 1.431 . S
C58 C57 1.317 . S
C59 Gd0 2.828 . S
C59 O44 1.258 . S
C59 O49 1.252 . S
C59 C60 1.497 . S
C60 C59 1.497 . S
C60 C61 1.395 . S
C60 C62 1.380 . S
C61 C60 1.395 . S
C61 C64 1.398 . S
C61 H76 0.930 . S
C62 C60 1.380 . S
C62 C63 1.391 . S
C62 H77 0.930 1_556 S
C63 C62 1.391 . S
C63 C65 1.387 . S
C64 C61 1.398 . S
C64 C65 1.380 . S
C64 H78 0.930 . S
C65 C63 1.387 . S
C65 C64 1.380 . S
C65 H79 0.930 . S
C66 O46 1.254 . S
C66 O47 1.268 . S
C67 O51 1.284 1_554 S
C67 O54 1.250 . S
C68 Gd1 2.828 . S
C68 O50 1.258 . S
C68 O55 1.252 . S
C68 C69 1.497 1_455 S
C69 C68 1.497 1_655 S
C69 C70 1.395 . S
C69 C71 1.380 . S
C70 C69 1.395 . S
C70 C73 1.398 . S
C70 H80 0.930 1_655 S
C71 C69 1.380 . S
C71 C72 1.391 . S
C71 H81 0.930 1_554 S
C72 C71 1.391 . S
C72 C74 1.387 . S
C73 C70 1.398 . S
C73 C74 1.380 . S
C73 H82 0.930 . S
C74 C72 1.387 . S
C74 C73 1.380 . S
C74 H83 0.930 . S
C75 O52 1.254 . S
C75 O53 1.268 . S
H76 C61 0.930 . S
H77 C62 0.930 1_554 S
H78 C64 0.930 . S
H79 C65 0.930 . S
H80 C70 0.930 1_455 S
H81 C71 0.930 1_556 S
H82 C73 0.930 . S
H83 C74 0.930 . S
Gd84 N115 2.661 1_556 S
Gd84 N121 2.601 . S
Gd84 O128 2.545 . S
Gd84 O129 2.606 1_656 S
Gd84 O131 2.429 . S
Gd84 O132 2.545 1_655 S
Gd84 O133 2.412 . S
Gd84 O135 2.360 . S
Gd84 O136 2.324 1_556 S
Gd84 C143 2.828 . S
Gd85 N94 2.661 1_655 S
Gd85 N98 2.601 1_655 S
Gd85 O129 2.362 1_655 S
Gd85 O130 2.324 1_554 S
Gd85 O134 2.545 . S
Gd85 O135 2.605 1_554 S
Gd85 O137 2.429 . S
Gd85 O138 2.545 . S
Gd85 O139 2.412 . S
Gd85 C152 2.828 . S
C86 C89 1.417 . S
C86 C91 1.431 . S
C86 C92 1.412 1_554 S
C87 C90 1.437 . S
C87 C91 1.317 . S
C87 H106 0.929 . S
C88 C89 1.426 . S
C88 C90 1.413 . S
C88 N98 1.359 . S
C89 C86 1.417 . S
C89 C88 1.426 . S
C89 N94 1.350 . S
C90 C87 1.437 . S
C90 C88 1.413 . S
C90 C100 1.391 . S
C91 C86 1.431 . S
C91 C87 1.317 . S
C91 H102 0.930 . S
C92 C86 1.412 1_556 S
C92 C93 1.355 . S
C92 H104 0.930 . S
C93 C92 1.355 . S
C93 C95 1.402 . S
C93 H105 0.930 . S
N94 Gd85 2.661 1_455 S
N94 C89 1.350 . S
N94 C95 1.307 1_554 S
C95 C93 1.402 . S
C95 N94 1.307 1_556 S
C95 H96 0.930 . S
H96 C95 0.930 . S
C97 N98 1.334 . S
C97 C99 1.394 . S
C97 H101 0.930 1_455 S
N98 Gd85 2.601 1_455 S
N98 C88 1.359 . S
N98 C97 1.334 . S
C99 C97 1.394 . S
C99 C100 1.359 . S
C99 H111 0.930 . S
C100 C90 1.391 . S
C100 C99 1.359 . S
C100 H112 0.929 . S
H101 C97 0.930 1_655 S
H102 C91 0.930 . S
H103 C120 0.930 . S
H104 C92 0.930 . S
H105 C93 0.930 . S
H106 C87 0.929 . S
H107 C125 0.930 . S
H108 C116 0.930 . S
H109 C117 0.930 . S
H110 C141 0.929 . S
H111 C99 0.930 . S
H112 C100 0.929 . S
H113 C142 0.930 . S
H114 C123 0.930 . S
N115 Gd84 2.661 1_554 S
N115 C119 1.350 1_554 S
N115 C120 1.307 . S
C116 H108 0.930 . S
C116 C117 1.355 . S
C116 C118 1.412 1_554 S
C117 H109 0.930 . S
C117 C116 1.355 . S
C117 C120 1.402 . S
C118 C116 1.412 1_556 S
C118 C119 1.417 . S
C118 C142 1.431 . S
C119 N115 1.350 1_556 S
C119 C118 1.417 . S
C119 C122 1.426 . S
C120 H103 0.930 . S
C120 N115 1.307 . S
C120 C117 1.402 . S
N121 Gd84 2.601 . S
N121 C122 1.359 . S
N121 C125 1.334 . S
C122 C119 1.426 . S
C122 N121 1.359 . S
C122 C126 1.413 . S
C123 H114 0.930 . S
C123 C124 1.359 . S
C123 C125 1.394 . S
C124 C123 1.359 . S
C124 C126 1.391 . S
C124 H127 0.929 . S
C125 H107 0.930 . S
C125 N121 1.334 . S
C125 C123 1.394 . S
C126 C122 1.413 . S
C126 C124 1.391 . S
C126 C141 1.437 . S
H127 C124 0.929 . S
O128 Gd84 2.545 . S
O128 C143 1.258 . S
O129 Gd84 2.606 1_454 S
O129 Gd85 2.362 1_455 S
O129 C140 1.284 . S
O130 Gd85 2.324 1_556 S
O130 C150 1.254 . S
O131 Gd84 2.429 . S
O131 C150 1.268 . S
O132 Gd84 2.545 1_455 S
O132 C140 1.250 1_556 S
O133 Gd84 2.412 . S
O133 C143 1.252 . S
O134 Gd85 2.545 . S
O134 C152 1.258 . S
O135 Gd84 2.360 . S
O135 Gd85 2.605 1_556 S
O135 C151 1.286 1_556 S
O136 Gd84 2.324 1_554 S
O136 C159 1.254 . S
O137 Gd85 2.429 . S
O137 C159 1.268 . S
O138 Gd85 2.545 . S
O138 C151 1.250 . S
O139 Gd85 2.412 . S
O139 C152 1.252 . S
C140 O129 1.284 . S
C140 O132 1.250 1_554 S
C141 H110 0.929 . S
C141 C126 1.437 . S
C141 C142 1.317 . S
C142 H113 0.930 . S
C142 C118 1.431 . S
C142 C141 1.317 . S
C143 Gd84 2.828 . S
C143 O128 1.258 . S
C143 O133 1.252 . S
C143 C144 1.497 1_655 S
C144 C143 1.497 1_455 S
C144 C145 1.395 . S
C144 C146 1.380 . S
C145 C144 1.395 . S
C145 C148 1.398 . S
C145 H160 0.930 1_455 S
C146 C144 1.380 . S
C146 C147 1.391 . S
C146 H161 0.930 1_556 S
C147 C146 1.391 . S
C147 C149 1.387 . S
C148 C145 1.398 . S
C148 C149 1.380 . S
C148 H162 0.930 . S
C149 C147 1.387 . S
C149 C148 1.380 . S
C149 H163 0.930 . S
C150 O130 1.254 . S
C150 O131 1.268 . S
C151 O135 1.286 1_554 S
C151 O138 1.250 . S
C152 Gd85 2.828 . S
C152 O134 1.258 . S
C152 O139 1.252 . S
C152 C153 1.497 . S
C153 C152 1.497 . S
C153 C154 1.395 . S
C153 C155 1.380 . S
C154 C153 1.395 . S
C154 C157 1.398 . S
C154 H164 0.930 . S
C155 C153 1.380 . S
C155 C156 1.391 . S
C155 H165 0.930 1_554 S
C156 C155 1.391 . S
C156 C158 1.387 . S
C157 C154 1.398 . S
C157 C158 1.380 . S
C157 H166 0.930 . S
C158 C156 1.387 . S
C158 C157 1.380 . S
C158 H167 0.930 . S
C159 O136 1.254 . S
C159 O137 1.268 . S
H160 C145 0.930 1_655 S
H161 C146 0.930 1_554 S
H162 C148 0.930 . S
H163 C149 0.930 . S
H164 C154 0.930 . S
H165 C155 0.930 1_556 S
H166 C157 0.930 . S
H167 C158 0.930 . S
Gd168 N199 2.661 1_455 S
Gd168 N205 2.601 1_455 S
Gd168 O212 2.545 . S
Gd168 O213 2.606 . S
Gd168 O215 2.429 . S
Gd168 O216 2.545 . S
Gd168 O217 2.412 . S
Gd168 O219 2.362 1_455 S
Gd168 O220 2.324 . S
Gd168 C227 2.828 . S
Gd169 N178 2.661 . S
Gd169 N182 2.601 . S
Gd169 O213 2.362 . S
Gd169 O214 2.324 . S
Gd169 O218 2.545 . S
Gd169 O219 2.606 1_455 S
Gd169 O221 2.429 . S
Gd169 O222 2.545 1_455 S
Gd169 O223 2.412 . S
Gd169 C236 2.828 . S
C170 C173 1.417 . S
C170 C175 1.431 . S
C170 C176 1.412 . S
C171 C174 1.437 . S
C171 C175 1.317 . S
C171 H190 0.929 . S
C172 C173 1.426 . S
C172 C174 1.413 . S
C172 N182 1.359 . S
C173 C170 1.417 . S
C173 C172 1.426 . S
C173 N178 1.350 . S
C174 C171 1.437 . S
C174 C172 1.413 . S
C174 C184 1.391 . S
C175 C170 1.431 . S
C175 C171 1.317 . S
C175 H186 0.930 . S
C176 C170 1.412 . S
C176 C177 1.355 . S
C176 H188 0.930 . S
C177 C176 1.355 . S
C177 C179 1.402 . S
C177 H189 0.930 . S
N178 Gd169 2.661 . S
N178 C173 1.350 . S
N178 C179 1.307 . S
C179 C177 1.402 . S
C179 N178 1.307 . S
C179 H180 0.930 . S
H180 C179 0.930 . S
C181 N182 1.334 . S
C181 C183 1.394 . S
C181 H185 0.930 . S
N182 Gd169 2.601 . S
N182 C172 1.359 . S
N182 C181 1.334 . S
C183 C181 1.394 . S
C183 C184 1.359 . S
C183 H195 0.930 . S
C184 C174 1.391 . S
C184 C183 1.359 . S
C184 H196 0.929 . S
H185 C181 0.930 . S
H186 C175 0.930 . S
H187 C204 0.930 . S
H188 C176 0.930 . S
H189 C177 0.930 . S
H190 C171 0.929 . S
H191 C209 0.930 1_455 S
H192 C200 0.930 . S
H193 C201 0.930 . S
H194 C225 0.929 . S
H195 C183 0.930 . S
H196 C184 0.929 . S
H197 C226 0.930 . S
H198 C207 0.930 . S
N199 Gd168 2.661 1_655 S
N199 C203 1.350 . S
N199 C204 1.307 . S
C200 H192 0.930 . S
C200 C201 1.355 . S
C200 C202 1.412 . S
C201 H193 0.930 . S
C201 C200 1.355 . S
C201 C204 1.402 . S
C202 C200 1.412 . S
C202 C203 1.417 . S
C202 C226 1.431 . S
C203 N199 1.350 . S
C203 C202 1.417 . S
C203 C206 1.426 . S
C204 H187 0.930 . S
C204 N199 1.307 . S
C204 C201 1.402 . S
N205 Gd168 2.601 1_655 S
N205 C206 1.359 . S
N205 C209 1.334 . S
C206 C203 1.426 . S
C206 N205 1.359 . S
C206 C210 1.413 . S
C207 H198 0.930 . S
C207 C208 1.359 . S
C207 C209 1.394 . S
C208 C207 1.359 . S
C208 C210 1.391 . S
C208 H211 0.929 . S
C209 H191 0.930 1_655 S
C209 N205 1.334 . S
C209 C207 1.394 . S
C210 C206 1.413 . S
C210 C208 1.391 . S
C210 C225 1.437 . S
H211 C208 0.929 . S
O212 Gd168 2.545 . S
O212 C227 1.258 . S
O213 Gd168 2.606 . S
O213 Gd169 2.362 . S
O213 C224 1.284 . S
O214 Gd169 2.324 . S
O214 C234 1.254 . S
O215 Gd168 2.429 . S
O215 C234 1.268 . S
O216 Gd168 2.545 . S
O216 C224 1.250 . S
O217 Gd168 2.412 . S
O217 C227 1.252 . S
O218 Gd169 2.545 . S
O218 C236 1.258 . S
O219 Gd168 2.362 1_655 S
O219 Gd169 2.606 1_655 S
O219 C235 1.284 . S
O220 Gd168 2.324 . S
O220 C243 1.254 . S
O221 Gd169 2.429 . S
O221 C243 1.268 . S
O222 Gd169 2.545 1_655 S
O222 C235 1.250 . S
O223 Gd169 2.412 . S
O223 C236 1.252 . S
C224 O213 1.284 . S
C224 O216 1.250 . S
C225 H194 0.929 . S
C225 C210 1.437 . S
C225 C226 1.317 . S
C226 H197 0.930 . S
C226 C202 1.431 . S
C226 C225 1.317 . S
C227 Gd168 2.828 . S
C227 O212 1.258 . S
C227 O217 1.252 . S
C227 C228 1.497 . S
C228 C227 1.497 . S
C228 C229 1.395 . S
C228 C230 1.380 . S
C229 C228 1.395 . S
C229 C232 1.398 . S
C229 H244 0.930 . S
C230 C228 1.380 . S
C230 C231 1.391 . S
C230 H245 0.930 . S
C231 C230 1.391 . S
C231 C233 1.387 . S
C232 C229 1.398 . S
C232 C233 1.380 . S
C232 H246 0.930 . S
C233 C231 1.387 . S
C233 C232 1.380 . S
C233 H247 0.930 . S
C234 O214 1.254 . S
C234 O215 1.268 . S
C235 O219 1.284 . S
C235 O222 1.250 . S
C236 Gd169 2.828 . S
C236 O218 1.258 . S
C236 O223 1.252 . S
C236 C237 1.497 1_455 S
C237 C236 1.497 1_655 S
C237 C238 1.395 . S
C237 C239 1.380 . S
C238 C237 1.395 . S
C238 C241 1.398 . S
C238 H248 0.930 1_655 S
C239 C237 1.380 . S
C239 C240 1.391 . S
C239 H249 0.930 . S
C240 C239 1.391 . S
C240 C242 1.387 . S
C241 C238 1.398 . S
C241 C242 1.380 . S
C241 H250 0.930 . S
C242 C240 1.387 . S
C242 C241 1.380 . S
C242 H251 0.930 . S
C243 O220 1.254 . S
C243 O221 1.268 . S
H244 C229 0.930 . S
H245 C230 0.930 . S
H246 C232 0.930 . S
H247 C233 0.930 . S
H248 C238 0.930 1_455 S
H249 C239 0.930 . S
H250 C241 0.930 . S
H251 C242 0.930 . S
Gd252 N283 2.661 . S
Gd252 N289 2.601 . S
Gd252 O296 2.545 . S
Gd252 O297 2.606 1_655 S
Gd252 O299 2.429 . S
Gd252 O300 2.545 1_655 S
Gd252 O301 2.412 . S
Gd252 O303 2.362 . S
Gd252 O304 2.324 . S
Gd252 C311 2.828 . S
Gd253 N262 2.661 1_655 S
Gd253 N266 2.601 1_655 S
Gd253 O297 2.362 1_655 S
Gd253 O298 2.324 . S
Gd253 O302 2.545 . S
Gd253 O303 2.606 . S
Gd253 O305 2.429 . S
Gd253 O306 2.545 . S
Gd253 O307 2.412 . S
Gd253 C320 2.828 . S
C254 C257 1.417 . S
C254 C259 1.431 . S
C254 C260 1.412 . S
C255 C258 1.437 . S
C255 C259 1.317 . S
C255 H274 0.929 . S
C256 C257 1.426 . S
C256 C258 1.413 . S
C256 N266 1.359 . S
C257 C254 1.417 . S
C257 C256 1.426 . S
C257 N262 1.350 . S
C258 C255 1.437 . S
C258 C256 1.413 . S
C258 C268 1.391 . S
C259 C254 1.431 . S
C259 C255 1.317 . S
C259 H270 0.930 . S
C260 C254 1.412 . S
C260 C261 1.355 . S
C260 H272 0.930 . S
C261 C260 1.355 . S
C261 C263 1.402 . S
C261 H273 0.930 . S
N262 Gd253 2.661 1_455 S
N262 C257 1.350 . S
N262 C263 1.307 . S
C263 C261 1.402 . S
C263 N262 1.307 . S
C263 H264 0.930 . S
H264 C263 0.930 . S
C265 N266 1.334 . S
C265 C267 1.394 . S
C265 H269 0.930 1_455 S
N266 Gd253 2.601 1_455 S
N266 C256 1.359 . S
N266 C265 1.334 . S
C267 C265 1.394 . S
C267 C268 1.359 . S
C267 H279 0.930 . S
C268 C258 1.391 . S
C268 C267 1.359 . S
C268 H280 0.929 . S
H269 C265 0.930 1_655 S
H270 C259 0.930 . S
H271 C288 0.930 . S
H272 C260 0.930 . S
H273 C261 0.930 . S
H274 C255 0.929 . S
H275 C293 0.930 . S
H276 C284 0.930 . S
H277 C285 0.930 . S
H278 C309 0.929 . S
H279 C267 0.930 . S
H280 C268 0.929 . S
H281 C310 0.930 . S
H282 C291 0.930 . S
N283 Gd252 2.661 . S
N283 C287 1.350 . S
N283 C288 1.307 . S
C284 H276 0.930 . S
C284 C285 1.355 . S
C284 C286 1.412 . S
C285 H277 0.930 . S
C285 C284 1.355 . S
C285 C288 1.402 . S
C286 C284 1.412 . S
C286 C287 1.417 . S
C286 C310 1.431 . S
C287 N283 1.350 . S
C287 C286 1.417 . S
C287 C290 1.426 . S
C288 H271 0.930 . S
C288 N283 1.307 . S
C288 C285 1.402 . S
N289 Gd252 2.601 . S
N289 C290 1.359 . S
N289 C293 1.334 . S
C290 C287 1.426 . S
C290 N289 1.359 . S
C290 C294 1.413 . S
C291 H282 0.930 . S
C291 C292 1.359 . S
C291 C293 1.394 . S
C292 C291 1.359 . S
C292 C294 1.391 . S
C292 H295 0.929 . S
C293 H275 0.930 . S
C293 N289 1.334 . S
C293 C291 1.394 . S
C294 C290 1.413 . S
C294 C292 1.391 . S
C294 C309 1.437 . S
H295 C292 0.929 . S
O296 Gd252 2.545 . S
O296 C311 1.258 . S
O297 Gd252 2.606 1_455 S
O297 Gd253 2.362 1_455 S
O297 C308 1.284 . S
O298 Gd253 2.324 . S
O298 C318 1.254 . S
O299 Gd252 2.429 . S
O299 C318 1.268 . S
O300 Gd252 2.545 1_455 S
O300 C308 1.250 . S
O301 Gd252 2.412 . S
O301 C311 1.252 . S
O302 Gd253 2.545 . S
O302 C320 1.258 . S
O303 Gd252 2.362 . S
O303 Gd253 2.606 . S
O303 C319 1.284 . S
O304 Gd252 2.324 . S
O304 C327 1.254 . S
O305 Gd253 2.429 . S
O305 C327 1.268 . S
O306 Gd253 2.545 . S
O306 C319 1.250 . S
O307 Gd253 2.412 . S
O307 C320 1.252 . S
C308 O297 1.284 . S
C308 O300 1.250 . S
C309 H278 0.929 . S
C309 C294 1.437 . S
C309 C310 1.317 . S
C310 H281 0.930 . S
C310 C286 1.431 . S
C310 C309 1.317 . S
C311 Gd252 2.828 . S
C311 O296 1.258 . S
C311 O301 1.252 . S
C311 C312 1.497 1_655 S
C312 C311 1.497 1_455 S
C312 C313 1.395 . S
C312 C314 1.380 . S
C313 C312 1.395 . S
C313 C316 1.398 . S
C313 H328 0.930 1_455 S
C314 C312 1.380 . S
C314 C315 1.391 . S
C314 H329 0.930 . S
C315 C314 1.391 . S
C315 C317 1.387 . S
C316 C313 1.398 . S
C316 C317 1.380 . S
C316 H330 0.930 . S
C317 C315 1.387 . S
C317 C316 1.380 . S
C317 H331 0.930 . S
C318 O298 1.254 . S
C318 O299 1.268 . S
C319 O303 1.284 . S
C319 O306 1.250 . S
C320 Gd253 2.828 . S
C320 O302 1.258 . S
C320 O307 1.252 . S
C320 C321 1.497 . S
C321 C320 1.497 . S
C321 C322 1.395 . S
C321 C323 1.380 . S
C322 C321 1.395 . S
C322 C325 1.398 . S
C322 H332 0.930 . S
C323 C321 1.380 . S
C323 C324 1.391 . S
C323 H333 0.930 . S
C324 C323 1.391 . S
C324 C326 1.387 . S
C325 C322 1.398 . S
C325 C326 1.380 . S
C325 H334 0.930 . S
C326 C324 1.387 . S
C326 C325 1.380 . S
C326 H335 0.930 . S
C327 O304 1.254 . S
C327 O305 1.268 . S
H328 C313 0.930 1_655 S
H329 C314 0.930 . S
H330 C316 0.930 . S
H331 C317 0.930 . S
H332 C322 0.930 . S
H333 C323 0.930 . S
H334 C325 0.930 . S
H335 C326 0.930 . S
Gd336 N367 2.661 . S
Gd336 N373 2.601 . S
Gd336 O380 2.545 . S
Gd336 O381 2.606 1_556 S
Gd336 O383 2.429 . S
Gd336 O384 2.545 . S
Gd336 O385 2.412 . S
Gd336 O387 2.362 . S
Gd336 O388 2.324 1_556 S
Gd336 C395 2.828 . S
Gd337 N346 2.661 . S
Gd337 N350 2.601 . S
Gd337 O381 2.362 . S
Gd337 O382 2.324 1_554 S
Gd337 O386 2.545 . S
Gd337 O387 2.606 1_554 S
Gd337 O389 2.429 . S
Gd337 O390 2.545 . S
Gd337 O391 2.412 . S
Gd337 C404 2.828 . S
C338 C341 1.417 . S
C338 C343 1.431 . S
C338 C344 1.412 1_554 S
C339 C342 1.437 . S
C339 C343 1.317 . S
C339 H358 0.929 . S
C340 C341 1.426 . S
C340 C342 1.413 . S
C340 N350 1.359 . S
C341 C338 1.417 . S
C341 C340 1.426 . S
C341 N346 1.350 . S
C342 C339 1.437 . S
C342 C340 1.413 . S
C342 C352 1.391 . S
C343 C338 1.431 . S
C343 C339 1.317 . S
C343 H354 0.930 . S
C344 C338 1.412 1_556 S
C344 C345 1.355 . S
C344 H356 0.930 . S
C345 C344 1.355 . S
C345 C347 1.402 . S
C345 H357 0.930 . S
N346 Gd337 2.661 . S
N346 C341 1.350 . S
N346 C347 1.307 1_554 S
C347 C345 1.402 . S
C347 N346 1.307 1_556 S
C347 H348 0.930 . S
H348 C347 0.930 . S
C349 N350 1.334 . S
C349 C351 1.394 . S
C349 H353 0.930 . S
N350 Gd337 2.601 . S
N350 C340 1.359 . S
N350 C349 1.334 . S
C351 C349 1.394 . S
C351 C352 1.359 . S
C351 H363 0.930 . S
C352 C342 1.391 . S
C352 C351 1.359 . S
C352 H364 0.929 . S
H353 C349 0.930 . S
H354 C343 0.930 . S
H355 C372 0.930 . S
H356 C344 0.930 . S
H357 C345 0.930 . S
H358 C339 0.929 . S
H359 C377 0.930 . S
H360 C368 0.930 . S
H361 C369 0.930 . S
H362 C393 0.929 . S
H363 C351 0.930 . S
H364 C352 0.929 . S
H365 C394 0.930 . S
H366 C375 0.930 . S
N367 Gd336 2.661 . S
N367 C371 1.350 . S
N367 C372 1.307 1_556 S
C368 H360 0.930 . S
C368 C369 1.355 . S
C368 C370 1.412 1_554 S
C369 H361 0.930 . S
C369 C368 1.355 . S
C369 C372 1.402 . S
C370 C368 1.412 1_556 S
C370 C371 1.417 . S
C370 C394 1.431 . S
C371 N367 1.350 . S
C371 C370 1.417 . S
C371 C374 1.426 . S
C372 H355 0.930 . S
C372 N367 1.307 1_554 S
C372 C369 1.402 . S
N373 Gd336 2.601 . S
N373 C374 1.359 . S
N373 C377 1.334 . S
C374 C371 1.426 . S
C374 N373 1.359 . S
C374 C378 1.413 . S
C375 H366 0.930 . S
C375 C376 1.359 . S
C375 C377 1.394 . S
C376 C375 1.359 . S
C376 C378 1.391 . S
C376 H379 0.929 . S
C377 H359 0.930 . S
C377 N373 1.334 . S
C377 C375 1.394 . S
C378 C374 1.413 . S
C378 C376 1.391 . S
C378 C393 1.437 . S
H379 C376 0.929 . S
O380 Gd336 2.545 . S
O380 C395 1.258 . S
O381 Gd336 2.606 1_554 S
O381 Gd337 2.362 . S
O381 C392 1.284 . S
O382 Gd337 2.324 1_556 S
O382 C402 1.254 . S
O383 Gd336 2.429 . S
O383 C402 1.268 . S
O384 Gd336 2.545 . S
O384 C392 1.250 1_556 S
O385 Gd336 2.412 . S
O385 C395 1.252 . S
O386 Gd337 2.545 . S
O386 C404 1.258 . S
O387 Gd336 2.362 . S
O387 Gd337 2.606 1_556 S
O387 C403 1.284 1_556 S
O388 Gd336 2.324 1_554 S
O388 C411 1.254 . S
O389 Gd337 2.429 . S
O389 C411 1.268 . S
O390 Gd337 2.545 . S
O390 C403 1.250 . S
O391 Gd337 2.412 . S
O391 C404 1.252 . S
C392 O381 1.284 . S
C392 O384 1.250 1_554 S
C393 H362 0.929 . S
C393 C378 1.437 . S
C393 C394 1.317 . S
C394 H365 0.930 . S
C394 C370 1.431 . S
C394 C393 1.317 . S
C395 Gd336 2.828 . S
C395 O380 1.258 . S
C395 O385 1.252 . S
C395 C396 1.497 . S
C396 C395 1.497 . S
C396 C397 1.395 . S
C396 C398 1.380 . S
C397 C396 1.395 . S
C397 C400 1.398 . S
C397 H412 0.930 . S
C398 C396 1.380 . S
C398 C399 1.391 . S
C398 H413 0.930 1_556 S
C399 C398 1.391 . S
C399 C401 1.387 . S
C400 C397 1.398 . S
C400 C401 1.380 . S
C400 H414 0.930 . S
C401 C399 1.387 . S
C401 C400 1.380 . S
C401 H415 0.930 . S
C402 O382 1.254 . S
C402 O383 1.268 . S
C403 O387 1.284 1_554 S
C403 O390 1.250 . S
C404 Gd337 2.828 . S
C404 O386 1.258 . S
C404 O391 1.252 . S
C404 C405 1.497 . S
C405 C404 1.497 . S
C405 C406 1.395 . S
C405 C407 1.380 . S
C406 C405 1.395 . S
C406 C409 1.398 . S
C406 H416 0.930 . S
C407 C405 1.380 . S
C407 C408 1.391 . S
C407 H417 0.930 1_554 S
C408 C407 1.391 . S
C408 C410 1.387 . S
C409 C406 1.398 . S
C409 C410 1.380 . S
C409 H418 0.930 . S
C410 C408 1.387 . S
C410 C409 1.380 . S
C410 H419 0.930 . S
C411 O388 1.254 . S
C411 O389 1.268 . S
H412 C397 0.930 . S
H413 C398 0.930 1_554 S
H414 C400 0.930 . S
H415 C401 0.930 . S
H416 C406 0.930 . S
H417 C407 0.930 1_556 S
H418 C409 0.930 . S
H419 C410 0.930 . S
Gd420 N451 2.661 1_556 S
Gd420 N457 2.601 . S
Gd420 O464 2.545 . S
Gd420 O465 2.606 1_556 S
Gd420 O467 2.429 . S
Gd420 O468 2.545 . S
Gd420 O469 2.412 . S
Gd420 O471 2.359 . S
Gd420 O472 2.324 1_556 S
Gd420 C479 2.828 . S
Gd421 N430 2.661 . S
Gd421 N434 2.601 . S
Gd421 O465 2.362 . S
Gd421 O466 2.324 1_554 S
Gd421 O470 2.545 . S
Gd421 O471 2.605 1_554 S
Gd421 O473 2.429 . S
Gd421 O474 2.545 . S
Gd421 O475 2.412 . S
Gd421 C488 2.828 . S
C422 C425 1.417 . S
C422 C427 1.431 . S
C422 C428 1.412 1_554 S
C423 C426 1.437 . S
C423 C427 1.317 . S
C423 H442 0.929 . S
C424 C425 1.426 . S
C424 C426 1.413 . S
C424 N434 1.359 . S
C425 C422 1.417 . S
C425 C424 1.426 . S
C425 N430 1.350 . S
C426 C423 1.437 . S
C426 C424 1.413 . S
C426 C436 1.391 . S
C427 C422 1.431 . S
C427 C423 1.317 . S
C427 H438 0.930 . S
C428 C422 1.412 1_556 S
C428 C429 1.355 . S
C428 H440 0.930 . S
C429 C428 1.355 . S
C429 C431 1.402 . S
C429 H441 0.930 . S
N430 Gd421 2.661 . S
N430 C425 1.350 . S
N430 C431 1.307 1_554 S
C431 C429 1.402 . S
C431 N430 1.307 1_556 S
C431 H432 0.930 . S
H432 C431 0.930 . S
C433 N434 1.334 . S
C433 C435 1.394 . S
C433 H437 0.930 . S
N434 Gd421 2.601 . S
N434 C424 1.359 . S
N434 C433 1.334 . S
C435 C433 1.394 . S
C435 C436 1.359 . S
C435 H447 0.930 . S
C436 C426 1.391 . S
C436 C435 1.359 . S
C436 H448 0.929 . S
H437 C433 0.930 . S
H438 C427 0.930 . S
H439 C456 0.930 . S
H440 C428 0.930 . S
H441 C429 0.930 . S
H442 C423 0.929 . S
H443 C461 0.930 . S
H444 C452 0.930 . S
H445 C453 0.930 . S
H446 C477 0.929 . S
H447 C435 0.930 . S
H448 C436 0.929 . S
H449 C478 0.930 . S
H450 C459 0.930 . S
N451 Gd420 2.661 1_554 S
N451 C455 1.350 1_554 S
N451 C456 1.307 . S
C452 H444 0.930 . S
C452 C453 1.355 . S
C452 C454 1.412 1_554 S
C453 H445 0.930 . S
C453 C452 1.355 . S
C453 C456 1.402 . S
C454 C452 1.412 1_556 S
C454 C455 1.417 . S
C454 C478 1.431 . S
C455 N451 1.350 1_556 S
C455 C454 1.417 . S
C455 C458 1.426 . S
C456 H439 0.930 . S
C456 N451 1.307 . S
C456 C453 1.402 . S
N457 Gd420 2.601 . S
N457 C458 1.359 . S
N457 C461 1.334 . S
C458 C455 1.426 . S
C458 N457 1.359 . S
C458 C462 1.413 . S
C459 H450 0.930 . S
C459 C460 1.359 . S
C459 C461 1.394 . S
C460 C459 1.359 . S
C460 C462 1.391 . S
C460 H463 0.929 . S
C461 H443 0.930 . S
C461 N457 1.334 . S
C461 C459 1.394 . S
C462 C458 1.413 . S
C462 C460 1.391 . S
C462 C477 1.437 . S
H463 C460 0.929 . S
O464 Gd420 2.545 . S
O464 C479 1.258 . S
O465 Gd420 2.606 1_554 S
O465 Gd421 2.362 . S
O465 C476 1.284 . S
O466 Gd421 2.324 1_556 S
O466 C486 1.254 . S
O467 Gd420 2.429 . S
O467 C486 1.268 . S
O468 Gd420 2.545 . S
O468 C476 1.250 1_556 S
O469 Gd420 2.412 . S
O469 C479 1.252 . S
O470 Gd421 2.545 . S
O470 C488 1.258 . S
O471 Gd420 2.359 . S
O471 Gd421 2.605 1_556 S
O471 C487 1.286 1_556 S
O472 Gd420 2.324 1_554 S
O472 C495 1.254 . S
O473 Gd421 2.429 . S
O473 C495 1.268 . S
O474 Gd421 2.545 . S
O474 C487 1.250 . S
O475 Gd421 2.412 . S
O475 C488 1.252 . S
C476 O465 1.284 . S
C476 O468 1.250 1_554 S
C477 H446 0.929 . S
C477 C462 1.437 . S
C477 C478 1.317 . S
C478 H449 0.930 . S
C478 C454 1.431 . S
C478 C477 1.317 . S
C479 Gd420 2.828 . S
C479 O464 1.258 . S
C479 O469 1.252 . S
C479 C480 1.497 . S
C480 C479 1.497 . S
C480 C481 1.395 . S
C480 C482 1.380 . S
C481 C480 1.395 . S
C481 C484 1.398 . S
C481 H496 0.930 . S
C482 C480 1.380 . S
C482 C483 1.391 . S
C482 H497 0.930 1_556 S
C483 C482 1.391 . S
C483 C485 1.387 . S
C484 C481 1.398 . S
C484 C485 1.380 . S
C484 H498 0.930 . S
C485 C483 1.387 . S
C485 C484 1.380 . S
C485 H499 0.930 . S
C486 O466 1.254 . S
C486 O467 1.268 . S
C487 O471 1.286 1_554 S
C487 O474 1.250 . S
C488 Gd421 2.828 . S
C488 O470 1.258 . S
C488 O475 1.252 . S
C488 C489 1.497 . S
C489 C488 1.497 . S
C489 C490 1.395 . S
C489 C491 1.380 . S
C490 C489 1.395 . S
C490 C493 1.398 . S
C490 H500 0.930 . S
C491 C489 1.380 . S
C491 C492 1.391 . S
C491 H501 0.930 1_554 S
C492 C491 1.391 . S
C492 C494 1.387 . S
C493 C490 1.398 . S
C493 C494 1.380 . S
C493 H502 0.930 . S
C494 C492 1.387 . S
C494 C493 1.380 . S
C494 H503 0.930 . S
C495 O472 1.254 . S
C495 O473 1.268 . S
H496 C481 0.930 . S
H497 C482 0.930 1_554 S
H498 C484 0.930 . S
H499 C485 0.930 . S
H500 C490 0.930 . S
H501 C491 0.930 1_556 S
H502 C493 0.930 . S
H503 C494 0.930 . S
Gd504 N535 2.661 . S
Gd504 N541 2.601 . S
Gd504 O548 2.545 . S
Gd504 O549 2.606 . S
Gd504 O551 2.429 . S
Gd504 O552 2.545 . S
Gd504 O553 2.412 . S
Gd504 O555 2.362 . S
Gd504 O556 2.324 . S
Gd504 C563 2.828 . S
Gd505 N514 2.661 . S
Gd505 N518 2.601 . S
Gd505 O549 2.362 . S
Gd505 O550 2.324 . S
Gd505 O554 2.545 . S
Gd505 O555 2.606 . S
Gd505 O557 2.429 . S
Gd505 O558 2.545 . S
Gd505 O559 2.412 . S
Gd505 C572 2.828 . S
C506 C509 1.417 . S
C506 C511 1.431 . S
C506 C512 1.412 . S
C507 C510 1.437 . S
C507 C511 1.317 . S
C507 H526 0.929 . S
C508 C509 1.426 . S
C508 C510 1.413 . S
C508 N518 1.359 . S
C509 C506 1.417 . S
C509 C508 1.426 . S
C509 N514 1.350 . S
C510 C507 1.437 . S
C510 C508 1.413 . S
C510 C520 1.391 . S
C511 C506 1.431 . S
C511 C507 1.317 . S
C511 H522 0.930 . S
C512 C506 1.412 . S
C512 C513 1.355 . S
C512 H524 0.930 . S
C513 C512 1.355 . S
C513 C515 1.402 . S
C513 H525 0.930 . S
N514 Gd505 2.661 . S
N514 C509 1.350 . S
N514 C515 1.307 . S
C515 C513 1.402 . S
C515 N514 1.307 . S
C515 H516 0.930 . S
H516 C515 0.930 . S
C517 N518 1.334 . S
C517 C519 1.394 . S
C517 H521 0.930 . S
N518 Gd505 2.601 . S
N518 C508 1.359 . S
N518 C517 1.334 . S
C519 C517 1.394 . S
C519 C520 1.359 . S
C519 H531 0.930 . S
C520 C510 1.391 . S
C520 C519 1.359 . S
C520 H532 0.929 . S
H521 C517 0.930 . S
H522 C511 0.930 . S
H523 C540 0.930 . S
H524 C512 0.930 . S
H525 C513 0.930 . S
H526 C507 0.929 . S
H527 C545 0.930 . S
H528 C536 0.930 . S
H529 C537 0.930 . S
H530 C561 0.929 . S
H531 C519 0.930 . S
H532 C520 0.929 . S
H533 C562 0.930 . S
H534 C543 0.930 . S
N535 Gd504 2.661 . S
N535 C539 1.350 . S
N535 C540 1.307 . S
C536 H528 0.930 . S
C536 C537 1.355 . S
C536 C538 1.412 . S
C537 H529 0.930 . S
C537 C536 1.355 . S
C537 C540 1.402 . S
C538 C536 1.412 . S
C538 C539 1.417 . S
C538 C562 1.431 . S
C539 N535 1.350 . S
C539 C538 1.417 . S
C539 C542 1.426 . S
C540 H523 0.930 . S
C540 N535 1.307 . S
C540 C537 1.402 . S
N541 Gd504 2.601 . S
N541 C542 1.359 . S
N541 C545 1.334 . S
C542 C539 1.426 . S
C542 N541 1.359 . S
C542 C546 1.413 . S
C543 H534 0.930 . S
C543 C544 1.359 . S
C543 C545 1.394 . S
C544 C543 1.359 . S
C544 C546 1.391 . S
C544 H547 0.929 . S
C545 H527 0.930 . S
C545 N541 1.334 . S
C545 C543 1.394 . S
C546 C542 1.413 . S
C546 C544 1.391 . S
C546 C561 1.437 . S
H547 C544 0.929 . S
O548 Gd504 2.545 . S
O548 C563 1.258 . S
O549 Gd504 2.606 . S
O549 Gd505 2.362 . S
O549 C560 1.284 . S
O550 Gd505 2.324 . S
O550 C570 1.254 . S
O551 Gd504 2.429 . S
O551 C570 1.268 . S
O552 Gd504 2.545 . S
O552 C560 1.250 . S
O553 Gd504 2.412 . S
O553 C563 1.252 . S
O554 Gd505 2.545 . S
O554 C572 1.258 . S
O555 Gd504 2.362 . S
O555 Gd505 2.606 . S
O555 C571 1.284 . S
O556 Gd504 2.324 . S
O556 C579 1.254 . S
O557 Gd505 2.429 . S
O557 C579 1.268 . S
O558 Gd505 2.545 . S
O558 C571 1.250 . S
O559 Gd505 2.412 . S
O559 C572 1.252 . S
C560 O549 1.284 . S
C560 O552 1.250 . S
C561 H530 0.929 . S
C561 C546 1.437 . S
C561 C562 1.317 . S
C562 H533 0.930 . S
C562 C538 1.431 . S
C562 C561 1.317 . S
C563 Gd504 2.828 . S
C563 O548 1.258 . S
C563 O553 1.252 . S
C563 C564 1.497 . S
C564 C563 1.497 . S
C564 C565 1.395 . S
C564 C566 1.380 . S
C565 C564 1.395 . S
C565 C568 1.398 . S
C565 H580 0.930 . S
C566 C564 1.380 . S
C566 C567 1.391 . S
C566 H581 0.930 . S
C567 C566 1.391 . S
C567 C569 1.387 . S
C568 C565 1.398 . S
C568 C569 1.380 . S
C568 H582 0.930 . S
C569 C567 1.387 . S
C569 C568 1.380 . S
C569 H583 0.930 . S
C570 O550 1.254 . S
C570 O551 1.268 . S
C571 O555 1.284 . S
C571 O558 1.250 . S
C572 Gd505 2.828 . S
C572 O554 1.258 . S
C572 O559 1.252 . S
C572 C573 1.497 . S
C573 C572 1.497 . S
C573 C574 1.395 . S
C573 C575 1.380 . S
C574 C573 1.395 . S
C574 C577 1.398 . S
C574 H584 0.930 . S
C575 C573 1.380 . S
C575 C576 1.391 . S
C575 H585 0.930 . S
C576 C575 1.391 . S
C576 C578 1.387 . S
C577 C574 1.398 . S
C577 C578 1.380 . S
C577 H586 0.930 . S
C578 C576 1.387 . S
C578 C577 1.380 . S
C578 H587 0.930 . S
C579 O556 1.254 . S
C579 O557 1.268 . S
H580 C565 0.930 . S
H581 C566 0.930 . S
H582 C568 0.930 . S
H583 C569 0.930 . S
H584 C574 0.930 . S
H585 C575 0.930 . S
H586 C577 0.930 . S
H587 C578 0.930 . S
Gd588 N619 2.661 . S
Gd588 N625 2.601 . S
Gd588 O632 2.545 . S
Gd588 O633 2.606 . S
Gd588 O635 2.429 . S
Gd588 O636 2.545 . S
Gd588 O637 2.412 . S
Gd588 O639 2.362 . S
Gd588 O640 2.324 . S
Gd588 C647 2.828 . S
Gd589 N598 2.661 . S
Gd589 N602 2.601 . S
Gd589 O633 2.362 . S
Gd589 O634 2.324 . S
Gd589 O638 2.545 . S
Gd589 O639 2.606 . S
Gd589 O641 2.429 . S
Gd589 O642 2.545 . S
Gd589 O643 2.412 . S
Gd589 C656 2.828 . S
C590 C593 1.417 . S
C590 C595 1.431 . S
C590 C596 1.412 . S
C591 C594 1.437 . S
C591 C595 1.317 . S
C591 H610 0.929 . S
C592 C593 1.426 . S
C592 C594 1.413 . S
C592 N602 1.359 . S
C593 C590 1.417 . S
C593 C592 1.426 . S
C593 N598 1.350 . S
C594 C591 1.437 . S
C594 C592 1.413 . S
C594 C604 1.391 . S
C595 C590 1.431 . S
C595 C591 1.317 . S
C595 H606 0.930 . S
C596 C590 1.412 . S
C596 C597 1.355 . S
C596 H608 0.930 . S
C597 C596 1.355 . S
C597 C599 1.402 . S
C597 H609 0.930 . S
N598 Gd589 2.661 . S
N598 C593 1.350 . S
N598 C599 1.307 . S
C599 C597 1.402 . S
C599 N598 1.307 . S
C599 H600 0.930 . S
H600 C599 0.930 . S
C601 N602 1.334 . S
C601 C603 1.394 . S
C601 H605 0.930 . S
N602 Gd589 2.601 . S
N602 C592 1.359 . S
N602 C601 1.334 . S
C603 C601 1.394 . S
C603 C604 1.359 . S
C603 H615 0.930 . S
C604 C594 1.391 . S
C604 C603 1.359 . S
C604 H616 0.929 . S
H605 C601 0.930 . S
H606 C595 0.930 . S
H607 C624 0.930 . S
H608 C596 0.930 . S
H609 C597 0.930 . S
H610 C591 0.929 . S
H611 C629 0.930 . S
H612 C620 0.930 . S
H613 C621 0.930 . S
H614 C645 0.929 . S
H615 C603 0.930 . S
H616 C604 0.929 . S
H617 C646 0.930 . S
H618 C627 0.930 . S
N619 Gd588 2.661 . S
N619 C623 1.350 . S
N619 C624 1.307 . S
C620 H612 0.930 . S
C620 C621 1.355 . S
C620 C622 1.412 . S
C621 H613 0.930 . S
C621 C620 1.355 . S
C621 C624 1.402 . S
C622 C620 1.412 . S
C622 C623 1.417 . S
C622 C646 1.431 . S
C623 N619 1.350 . S
C623 C622 1.417 . S
C623 C626 1.426 . S
C624 H607 0.930 . S
C624 N619 1.307 . S
C624 C621 1.402 . S
N625 Gd588 2.601 . S
N625 C626 1.359 . S
N625 C629 1.334 . S
C626 C623 1.426 . S
C626 N625 1.359 . S
C626 C630 1.413 . S
C627 H618 0.930 . S
C627 C628 1.359 . S
C627 C629 1.394 . S
C628 C627 1.359 . S
C628 C630 1.391 . S
C628 H631 0.929 . S
C629 H611 0.930 . S
C629 N625 1.334 . S
C629 C627 1.394 . S
C630 C626 1.413 . S
C630 C628 1.391 . S
C630 C645 1.437 . S
H631 C628 0.929 . S
O632 Gd588 2.545 . S
O632 C647 1.258 . S
O633 Gd588 2.606 . S
O633 Gd589 2.362 . S
O633 C644 1.284 . S
O634 Gd589 2.324 . S
O634 C654 1.254 . S
O635 Gd588 2.429 . S
O635 C654 1.268 . S
O636 Gd588 2.545 . S
O636 C644 1.250 . S
O637 Gd588 2.412 . S
O637 C647 1.252 . S
O638 Gd589 2.545 . S
O638 C656 1.258 . S
O639 Gd588 2.362 . S
O639 Gd589 2.606 . S
O639 C655 1.284 . S
O640 Gd588 2.324 . S
O640 C663 1.254 . S
O641 Gd589 2.429 . S
O641 C663 1.268 . S
O642 Gd589 2.545 . S
O642 C655 1.250 . S
O643 Gd589 2.412 . S
O643 C656 1.252 . S
C644 O633 1.284 . S
C644 O636 1.250 . S
C645 H614 0.929 . S
C645 C630 1.437 . S
C645 C646 1.317 . S
C646 H617 0.930 . S
C646 C622 1.431 . S
C646 C645 1.317 . S
C647 Gd588 2.828 . S
C647 O632 1.258 . S
C647 O637 1.252 . S
C647 C648 1.497 . S
C648 C647 1.497 . S
C648 C649 1.395 . S
C648 C650 1.380 . S
C649 C648 1.395 . S
C649 C652 1.398 . S
C649 H664 0.930 . S
C650 C648 1.380 . S
C650 C651 1.391 . S
C650 H665 0.930 . S
C651 C650 1.391 . S
C651 C653 1.387 . S
C652 C649 1.398 . S
C652 C653 1.380 . S
C652 H666 0.930 . S
C653 C651 1.387 . S
C653 C652 1.380 . S
C653 H667 0.930 . S
C654 O634 1.254 . S
C654 O635 1.268 . S
C655 O639 1.284 . S
C655 O642 1.250 . S
C656 Gd589 2.828 . S
C656 O638 1.258 . S
C656 O643 1.252 . S
C656 C657 1.497 . S
C657 C656 1.497 . S
C657 C658 1.395 . S
C657 C659 1.380 . S
C658 C657 1.395 . S
C658 C661 1.398 . S
C658 H668 0.930 . S
C659 C657 1.380 . S
C659 C660 1.391 . S
C659 H669 0.930 . S
C660 C659 1.391 . S
C660 C662 1.387 . S
C661 C658 1.398 . S
C661 C662 1.380 . S
C661 H670 0.930 . S
C662 C660 1.387 . S
C662 C661 1.380 . S
C662 H671 0.930 . S
C663 O640 1.254 . S
C663 O641 1.268 . S
H664 C649 0.930 . S
H665 C650 0.930 . S
H666 C652 0.930 . S
H667 C653 0.930 . S
H668 C658 0.930 . S
H669 C659 0.930 . S
H670 C661 0.930 . S
H671 C662 0.930 . S
H672 C680 0.950 . S
H673 C685 0.950 . S
H674 C682 0.950 . S
H675 C684 0.950 . S
H676 C686 0.950 . S
H677 C688 0.950 . S
H678 C690 0.950 . S
H679 C691 0.950 . S
C680 H672 0.950 . S
C680 C681 1.386 . S
C680 C682 1.391 . S
C681 C680 1.386 . S
C681 C685 1.393 1_554 S
C682 H674 0.950 . S
C682 C680 1.391 . S
C682 C683 1.400 . S
C683 C682 1.400 . S
C683 C684 1.398 1_554 S
C683 C689 1.493 . S
C684 H675 0.950 . S
C684 C683 1.398 1_556 S
C684 C685 1.391 . S
C685 H673 0.950 . S
C685 C681 1.393 1_556 S
C685 C684 1.391 . S
C686 H676 0.950 . S
C686 C687 1.386 . S
C686 C688 1.391 . S
C687 C686 1.386 . S
C687 C691 1.393 1_556 S
C688 H677 0.950 . S
C688 C686 1.391 . S
C688 C689 1.390 1_556 S
C689 C683 1.493 . S
C689 C688 1.390 1_554 S
C689 C690 1.406 . S
C690 H678 0.950 . S
C690 C689 1.406 . S
C690 C691 1.391 . S
C691 H679 0.950 . S
C691 C687 1.393 1_554 S
C691 C690 1.391 . S
H692 C700 0.950 . S
H693 C705 0.950 1_556 S
H694 C702 0.950 . S
H695 C704 0.950 . S
H696 C706 0.950 . S
H697 C708 0.950 . S
H698 C710 0.950 . S
H699 C711 0.950 . S
C700 H692 0.950 . S
C700 C701 1.386 . S
C700 C702 1.391 . S
C701 C700 1.386 . S
C701 C705 1.393 . S
C702 H694 0.950 . S
C702 C700 1.391 . S
C702 C703 1.400 . S
C703 C702 1.400 . S
C703 C704 1.399 1_554 S
C703 C709 1.491 . S
C704 H695 0.950 . S
C704 C703 1.399 1_556 S
C704 C705 1.390 1_556 S
C705 H693 0.950 1_554 S
C705 C701 1.393 . S
C705 C704 1.390 1_554 S
C706 H696 0.950 . S
C706 C707 1.386 . S
C706 C708 1.391 . S
C707 C706 1.386 . S
C707 C711 1.393 1_556 S
C708 H697 0.950 . S
C708 C706 1.391 . S
C708 C709 1.400 1_556 S
C709 C703 1.491 . S
C709 C708 1.400 1_554 S
C709 C710 1.398 . S
C710 H698 0.950 . S
C710 C709 1.398 . S
C710 C711 1.391 . S
C711 H699 0.950 . S
C711 C707 1.393 1_554 S
C711 C710 1.391 . S
H712 C720 0.950 . S
H713 C725 0.950 . S
H714 C722 0.950 . S
H715 C724 0.950 . S
H716 C726 0.950 . S
H717 C728 0.950 . S
H718 C730 0.950 . S
H719 C731 0.950 . S
C720 H712 0.950 . S
C720 C721 1.386 . S
C720 C722 1.391 . S
C721 C720 1.386 . S
C721 C725 1.393 . S
C722 H714 0.950 . S
C722 C720 1.391 . S
C722 C723 1.400 . S
C723 C722 1.400 . S
C723 C724 1.398 . S
C723 C729 1.491 . S
C724 H715 0.950 . S
C724 C723 1.398 . S
C724 C725 1.391 . S
C725 H713 0.950 . S
C725 C721 1.393 . S
C725 C724 1.391 . S
C726 H716 0.950 . S
C726 C727 1.386 . S
C726 C728 1.391 . S
C727 C726 1.386 . S
C727 C731 1.393 . S
C728 H717 0.950 . S
C728 C726 1.391 . S
C728 C729 1.400 . S
C729 C723 1.491 . S
C729 C728 1.400 . S
C729 C730 1.398 . S
C730 H718 0.950 . S
C730 C729 1.398 . S
C730 C731 1.391 . S
C731 H719 0.950 . S
C731 C727 1.393 . S
C731 C730 1.391 . S
H732 C740 0.950 . S
H733 C745 0.950 . S
H734 C742 0.950 . S
H735 C744 0.950 . S
H736 C746 0.950 . S
H737 C748 0.950 . S
H738 C750 0.950 . S
H739 C751 0.950 . S
C740 H732 0.950 . S
C740 C741 1.386 . S
C740 C742 1.391 . S
C741 C740 1.386 . S
C741 C745 1.393 . S
C742 H734 0.950 . S
C742 C740 1.391 . S
C742 C743 1.400 . S
C743 C742 1.400 . S
C743 C744 1.398 . S
C743 C749 1.491 . S
C744 H735 0.950 . S
C744 C743 1.398 . S
C744 C745 1.391 . S
C745 H733 0.950 . S
C745 C741 1.393 . S
C745 C744 1.391 . S
C746 H736 0.950 . S
C746 C747 1.386 . S
C746 C748 1.391 . S
C747 C746 1.386 . S
C747 C751 1.393 . S
C748 H737 0.950 . S
C748 C746 1.391 . S
C748 C749 1.400 . S
C749 C743 1.491 . S
C749 C748 1.400 . S
C749 C750 1.398 . S
C750 H738 0.950 . S
C750 C749 1.398 . S
C750 C751 1.391 . S
C751 H739 0.950 . S
C751 C747 1.393 . S
C751 C750 1.391 . S
H752 C760 0.950 . S
H753 C765 0.950 . S
H754 C762 0.950 1_455 S
H755 C764 0.950 . S
H756 C766 0.950 . S
H757 C768 0.950 . S
H758 C770 0.950 . S
H759 C771 0.950 . S
C760 H752 0.950 . S
C760 C761 1.386 . S
C760 C762 1.391 . S
C761 C760 1.386 . S
C761 C765 1.393 1_554 S
C762 H754 0.950 1_655 S
C762 C760 1.391 . S
C762 C763 1.400 1_655 S
C763 C762 1.400 1_455 S
C763 C764 1.398 1_454 S
C763 C769 1.491 . S
C764 H755 0.950 . S
C764 C763 1.398 1_656 S
C764 C765 1.391 . S
C765 H753 0.950 . S
C765 C761 1.393 1_556 S
C765 C764 1.391 . S
C766 H756 0.950 . S
C766 C767 1.386 . S
C766 C768 1.391 . S
C767 C766 1.386 . S
C767 C771 1.393 1_556 S
C768 H757 0.950 . S
C768 C766 1.391 . S
C768 C769 1.400 1_556 S
C769 C763 1.491 . S
C769 C768 1.400 1_554 S
C769 C770 1.398 . S
C770 H758 0.950 . S
C770 C769 1.398 . S
C770 C771 1.391 . S
C771 H759 0.950 . S
C771 C767 1.393 1_554 S
C771 C770 1.391 . S
H772 C780 0.950 . S
H773 C785 0.950 . S
H774 C782 0.950 . S
H775 C784 0.950 1_655 S
H776 C786 0.950 . S
H777 C788 0.950 . S
H778 C790 0.950 . S
H779 C791 0.950 . S
C780 H772 0.950 . S
C780 C781 1.409 . S
C780 C782 1.391 . S
C781 C780 1.409 . S
C781 C785 1.373 1_554 S
C782 H774 0.950 . S
C782 C780 1.391 . S
C782 C783 1.400 1_455 S
C783 C782 1.400 1_655 S
C783 C784 1.398 1_654 S
C783 C789 1.491 . S
C784 H775 0.950 1_455 S
C784 C783 1.398 1_456 S
C784 C785 1.391 . S
C785 H773 0.950 . S
C785 C781 1.373 1_556 S
C785 C784 1.391 . S
C786 H776 0.950 . S
C786 C787 1.386 1_556 S
C786 C788 1.391 . S
C787 C786 1.386 1_554 S
C787 C791 1.393 . S
C788 H777 0.950 . S
C788 C786 1.391 . S
C788 C789 1.400 1_556 S
C789 C783 1.491 . S
C789 C788 1.400 1_554 S
C789 C790 1.398 . S
C790 H778 0.950 . S
C790 C789 1.398 . S
C790 C791 1.391 . S
C791 H779 0.950 . S
C791 C787 1.393 . S
C791 C790 1.391 . S
H792 C800 0.950 . S
H793 C805 0.950 . S
H794 C802 0.950 . S
H795 C804 0.950 . S
H796 C806 0.950 . S
H797 C808 0.950 1_455 S
H798 C810 0.950 . S
H799 C811 0.950 . S
C800 H792 0.950 . S
C800 C801 1.386 . S
C800 C802 1.391 . S
C801 C800 1.386 . S
C801 C805 1.393 . S
C802 H794 0.950 . S
C802 C800 1.391 . S
C802 C803 1.400 . S
C803 C802 1.400 . S
C803 C804 1.398 . S
C803 C809 1.491 . S
C804 H795 0.950 . S
C804 C803 1.398 . S
C804 C805 1.391 . S
C805 H793 0.950 . S
C805 C801 1.393 . S
C805 C804 1.391 . S
C806 H796 0.950 . S
C806 C807 1.386 . S
C806 C808 1.391 . S
C807 C806 1.386 . S
C807 C811 1.393 . S
C808 H797 0.950 1_655 S
C808 C806 1.391 . S
C808 C809 1.400 1_655 S
C809 C803 1.491 . S
C809 C808 1.400 1_455 S
C809 C810 1.398 1_455 S
C810 H798 0.950 . S
C810 C809 1.398 1_655 S
C810 C811 1.391 . S
C811 H799 0.950 . S
C811 C807 1.393 . S
C811 C810 1.391 . S
H812 C820 0.950 . S
H813 C825 0.950 . S
H814 C822 0.950 . S
H815 C824 0.950 . S
H816 C826 0.950 . S
H817 C828 0.950 . S
H818 C830 0.950 1_655 S
H819 C831 0.950 . S
C820 H812 0.950 . S
C820 C821 1.386 . S
C820 C822 1.391 . S
C821 C820 1.386 . S
C821 C825 1.393 . S
C822 H814 0.950 . S
C822 C820 1.391 . S
C822 C823 1.400 . S
C823 C822 1.400 . S
C823 C824 1.398 . S
C823 C829 1.491 . S
C824 H815 0.950 . S
C824 C823 1.398 . S
C824 C825 1.391 . S
C825 H813 0.950 . S
C825 C821 1.393 . S
C825 C824 1.391 . S
C826 H816 0.950 . S
C826 C827 1.386 . S
C826 C828 1.391 . S
C827 C826 1.386 . S
C827 C831 1.393 . S
C828 H817 0.950 . S
C828 C826 1.391 . S
C828 C829 1.400 1_455 S
C829 C823 1.491 . S
C829 C828 1.400 1_655 S
C829 C830 1.398 1_655 S
C830 H818 0.950 1_455 S
C830 C829 1.398 1_455 S
C830 C831 1.391 . S
C831 H819 0.950 . S
C831 C827 1.393 . S
C831 C830 1.391 . S
H832 C840 0.950 1_655 S
H833 C845 0.950 . S
H834 C842 0.950 . S
H835 C844 0.950 . S
H836 C846 0.950 1_455 S
H837 C848 0.950 . S
H838 C850 0.950 . S
H839 C851 0.950 . S
C840 H832 0.950 1_455 S
C840 C841 1.386 1_556 S
C840 C842 1.391 1_455 S
C841 C840 1.386 1_554 S
C841 C845 1.393 . S
C842 H834 0.950 . S
C842 C840 1.391 1_655 S
C842 C843 1.400 1_656 S
C843 C842 1.400 1_454 S
C843 C844 1.398 . S
C843 C849 1.491 1_455 S
C844 H835 0.950 . S
C844 C843 1.398 . S
C844 C845 1.391 . S
C845 H833 0.950 . S
C845 C841 1.393 . S
C845 C844 1.391 . S
C846 H836 0.950 1_655 S
C846 C847 1.386 . S
C846 C848 1.391 1_655 S
C847 C846 1.386 . S
C847 C851 1.393 1_554 S
C848 H837 0.950 . S
C848 C846 1.391 1_455 S
C848 C849 1.400 1_455 S
C849 C843 1.491 1_655 S
C849 C848 1.400 1_655 S
C849 C850 1.398 1_554 S
C850 H838 0.950 . S
C850 C849 1.398 1_556 S
C850 C851 1.391 . S
C851 H839 0.950 . S
C851 C847 1.393 1_556 S
C851 C850 1.391 . S
H852 C860 0.950 . S
H853 C865 0.950 1_655 S
H854 C862 0.950 . S
H855 C864 0.950 . S
H856 C866 0.950 . S
H857 C868 0.950 . S
H858 C870 0.950 . S
H859 C871 0.950 1_455 S
C860 H852 0.950 . S
C860 C861 1.386 . S
C860 C862 1.391 . S
C861 C860 1.386 . S
C861 C865 1.393 . S
C862 H854 0.950 . S
C862 C860 1.391 . S
C862 C863 1.400 . S
C863 C862 1.400 . S
C863 C864 1.398 1_455 S
C863 C869 1.491 1_455 S
C864 H855 0.950 . S
C864 C863 1.398 1_655 S
C864 C865 1.391 1_655 S
C865 H853 0.950 1_455 S
C865 C861 1.393 . S
C865 C864 1.391 1_455 S
C866 H856 0.950 . S
C866 C867 1.386 . S
C866 C868 1.391 . S
C867 C866 1.386 . S
C867 C871 1.393 . S
C868 H857 0.950 . S
C868 C866 1.391 . S
C868 C869 1.400 . S
C869 C863 1.491 1_655 S
C869 C868 1.400 . S
C869 C870 1.398 1_655 S
C870 H858 0.950 . S
C870 C869 1.398 1_455 S
C870 C871 1.391 1_455 S
C871 H859 0.950 1_655 S
C871 C867 1.393 . S
C871 C870 1.391 1_655 S
H872 C880 0.950 . S
H873 C885 0.950 . S
H874 C882 0.950 . S
H875 C884 0.950 . S
H876 C886 0.950 . S
H877 C888 0.950 . S
H878 C890 0.950 . S
H879 C891 0.950 . S
C880 H872 0.950 . S
C880 C881 1.386 1_556 S
C880 C882 1.391 . S
C881 C880 1.386 1_554 S
C881 C885 1.393 . S
C882 H874 0.950 . S
C882 C880 1.391 . S
C882 C883 1.400 1_556 S
C883 C882 1.400 1_554 S
C883 C884 1.398 . S
C883 C889 1.491 1_565 S
C884 H875 0.950 . S
C884 C883 1.398 . S
C884 C885 1.391 . S
C885 H873 0.950 . S
C885 C881 1.393 . S
C885 C884 1.391 . S
C886 H876 0.950 . S
C886 C887 1.386 . S
C886 C888 1.391 . S
C887 C886 1.386 . S
C887 C891 1.393 1_554 S
C888 H877 0.950 . S
C888 C886 1.391 . S
C888 C889 1.400 . S
C889 C883 1.491 1_545 S
C889 C888 1.400 . S
C889 C890 1.398 1_554 S
C890 H878 0.950 . S
C890 C889 1.398 1_556 S
C890 C891 1.391 . S
C891 H879 0.950 . S
C891 C887 1.393 1_556 S
C891 C890 1.391 . S
H892 C900 0.950 . S
H893 C905 0.950 . S
H894 C902 0.891 1_565 S
H895 C904 0.950 . S
H896 C906 0.950 . S
H897 C908 0.890 1_545 S
H898 C910 0.950 . S
H899 C911 0.950 . S
C900 H892 0.950 . S
C900 C901 1.386 . S
C900 C902 1.391 . S
C901 C900 1.386 . S
C901 C905 1.393 . S
C902 H894 0.891 1_545 S
C902 C900 1.391 . S
C902 C903 1.400 . S
C903 C902 1.400 . S
C903 C904 1.398 . S
C903 C909 1.491 1_545 S
C904 H895 0.950 . S
C904 C903 1.398 . S
C904 C905 1.391 . S
C905 H893 0.950 . S
C905 C901 1.393 . S
C905 C904 1.391 . S
C906 H896 0.950 . S
C906 C907 1.386 . S
C906 C908 1.391 . S
C907 C906 1.386 . S
C907 C911 1.393 . S
C908 H897 0.890 1_565 S
C908 C906 1.391 . S
C908 C909 1.400 . S
C909 C903 1.491 1_565 S
C909 C908 1.400 . S
C909 C910 1.398 . S
C910 H898 0.950 . S
C910 C909 1.398 . S
C910 C911 1.391 . S
C911 H899 0.950 . S
C911 C907 1.393 . S
C911 C910 1.391 . S
H912 C920 0.950 . S
H913 C925 0.950 . S
H914 C922 0.950 . S
H915 C924 0.950 . S
H916 C926 0.950 . S
H917 C928 0.950 . S
H918 C930 0.950 . S
H919 C931 0.950 . S
C920 H912 0.950 . S
C920 C921 1.370 1_554 S
C920 C922 1.391 . S
C921 C920 1.370 1_556 S
C921 C925 1.397 . S
C922 H914 0.950 . S
C922 C920 1.391 . S
C922 C923 1.400 . S
C923 C922 1.400 . S
C923 C924 1.398 1_554 S
C923 C929 1.491 . S
C924 H915 0.950 . S
C924 C923 1.398 1_556 S
C924 C925 1.391 . S
C925 H913 0.950 . S
C925 C921 1.397 . S
C925 C924 1.391 . S
C926 H916 0.950 . S
C926 C927 1.386 1_556 S
C926 C928 1.391 . S
C927 C926 1.386 1_554 S
C927 C931 1.393 . S
C928 H917 0.950 . S
C928 C926 1.391 . S
C928 C929 1.400 1_556 S
C929 C923 1.491 . S
C929 C928 1.400 1_554 S
C929 C930 1.398 . S
C930 H918 0.950 . S
C930 C929 1.398 . S
C930 C931 1.391 . S
C931 H919 0.950 . S
C931 C927 1.393 . S
C931 C930 1.391 . S
H932 C940 0.950 . S
H933 C945 0.950 . S
H934 C942 0.950 . S
H935 C944 0.950 . S
H936 C946 0.950 . S
H937 C948 0.950 . S
H938 C950 0.950 . S
H939 C951 0.950 . S
C940 H932 0.950 . S
C940 C941 1.386 1_556 S
C940 C942 1.391 . S
C941 C940 1.386 1_554 S
C941 C945 1.393 . S
C942 H934 0.950 . S
C942 C940 1.391 . S
C942 C943 1.400 1_556 S
C943 C942 1.400 1_554 S
C943 C944 1.398 . S
C943 C949 1.491 . S
C944 H935 0.950 . S
C944 C943 1.398 . S
C944 C945 1.391 . S
C945 H933 0.950 . S
C945 C941 1.393 . S
C945 C944 1.391 . S
C946 H936 0.950 . S
C946 C947 1.386 . S
C946 C948 1.391 . S
C947 C946 1.386 . S
C947 C951 1.393 1_554 S
C948 H937 0.950 . S
C948 C946 1.391 . S
C948 C949 1.400 . S
C949 C943 1.491 . S
C949 C948 1.400 . S
C949 C950 1.398 1_554 S
C950 H938 0.950 . S
C950 C949 1.398 1_556 S
C950 C951 1.391 . S
C951 H939 0.950 . S
C951 C947 1.393 1_556 S
C951 C950 1.391 . S
H952 C960 0.950 . S
H953 C965 0.950 . S
H954 C962 0.950 . S
H955 C964 0.950 . S
H956 C966 0.950 . S
H957 C968 0.950 . S
H958 C970 0.950 . S
H959 C971 0.950 . S
C960 H952 0.950 . S
C960 C961 1.386 . S
C960 C962 1.391 . S
C961 C960 1.386 . S
C961 C965 1.393 . S
C962 H954 0.950 . S
C962 C960 1.391 . S
C962 C963 1.400 . S
C963 C962 1.400 . S
C963 C964 1.398 . S
C963 C969 1.491 . S
C964 H955 0.950 . S
C964 C963 1.398 . S
C964 C965 1.391 . S
C965 H953 0.950 . S
C965 C961 1.393 . S
C965 C964 1.391 . S
C966 H956 0.950 . S
C966 C967 1.386 . S
C966 C968 1.391 . S
C967 C966 1.386 . S
C967 C971 1.393 . S
C968 H957 0.950 . S
C968 C966 1.391 . S
C968 C969 1.400 . S
C969 C963 1.491 . S
C969 C968 1.400 . S
C969 C970 1.398 . S
C970 H958 0.950 . S
C970 C969 1.398 . S
C970 C971 1.391 . S
C971 H959 0.950 . S
C971 C967 1.393 . S
C971 C970 1.391 . S
H972 C980 0.950 . S
H973 C985 0.950 . S
H974 C982 0.950 . S
H975 C984 0.950 . S
H976 C986 0.950 . S
H977 C988 0.950 . S
H978 C990 0.950 . S
H979 C991 0.950 . S
C980 H972 0.950 . S
C980 C981 1.386 . S
C980 C982 1.391 . S
C981 C980 1.386 . S
C981 C985 1.393 . S
C982 H974 0.950 . S
C982 C980 1.391 . S
C982 C983 1.400 . S
C983 C982 1.400 . S
C983 C984 1.398 . S
C983 C989 1.491 . S
C984 H975 0.950 . S
C984 C983 1.398 . S
C984 C985 1.391 . S
C985 H973 0.950 . S
C985 C981 1.393 . S
C985 C984 1.391 . S
C986 H976 0.950 . S
C986 C987 1.386 . S
C986 C988 1.391 . S
C987 C986 1.386 . S
C987 C991 1.393 . S
C988 H977 0.950 . S
C988 C986 1.391 . S
C988 C989 1.400 . S
C989 C983 1.491 . S
C989 C988 1.400 . S
C989 C990 1.398 . S
C990 H978 0.950 . S
C990 C989 1.398 . S
C990 C991 1.391 . S
C991 H979 0.950 . S
C991 C987 1.393 . S
C991 C990 1.391 . S
H992 C1000 0.950 . S
H993 C1005 0.950 . S
H994 C1002 0.950 1_655 S
H995 C1004 0.950 . S
H996 C1006 0.950 . S
H997 C1008 0.950 . S
H998 C1010 0.950 . S
H999 C1011 0.950 . S
C1000 H992 0.950 . S
C1000 C1001 1.386 . S
C1000 C1002 1.391 . S
C1001 C1000 1.386 . S
C1001 C1005 1.393 . S
C1002 H994 0.950 1_455 S
C1002 C1000 1.391 . S
C1002 C1003 1.400 . S
C1003 C1002 1.400 . S
C1003 C1004 1.398 . S
C1003 C1009 1.491 . S
C1004 H995 0.950 . S
C1004 C1003 1.398 . S
C1004 C1005 1.391 . S
C1005 H993 0.950 . S
C1005 C1001 1.393 . S
C1005 C1004 1.391 . S
C1006 H996 0.950 . S
C1006 C1007 1.386 1_455 S
C1006 C1008 1.391 . S
C1007 C1006 1.386 1_655 S
C1007 C1011 1.393 . S
C1008 H997 0.950 . S
C1008 C1006 1.391 . S
C1008 C1009 1.400 . S
C1009 C1003 1.491 . S
C1009 C1008 1.400 . S
C1009 C1010 1.398 1_455 S
C1010 H998 0.950 . S
C1010 C1009 1.398 1_655 S
C1010 C1011 1.391 . S
C1011 H999 0.950 . S
C1011 C1007 1.393 . S
C1011 C1010 1.391 . S
H1012 C1020 0.950 . S
H1013 C1025 0.949 1_455 S
H1014 C1022 0.950 . S
H1015 C1024 0.950 . S
H1016 C1026 0.950 . S
H1017 C1028 0.950 . S
H1018 C1030 0.950 . S
H1019 C1031 0.950 . S
C1020 H1012 0.950 . S
C1020 C1021 1.386 . S
C1020 C1022 1.391 . S
C1021 C1020 1.386 . S
C1021 C1025 1.397 . S
C1022 H1014 0.950 . S
C1022 C1020 1.391 . S
C1022 C1023 1.400 1_655 S
C1023 C1022 1.400 1_455 S
C1023 C1024 1.398 . S
C1023 C1029 1.491 . S
C1024 H1015 0.950 . S
C1024 C1023 1.398 . S
C1024 C1025 1.388 1_455 S
C1025 H1013 0.949 1_655 S
C1025 C1021 1.397 . S
C1025 C1024 1.388 1_655 S
C1026 H1016 0.950 . S
C1026 C1027 1.386 . S
C1026 C1028 1.391 . S
C1027 C1026 1.386 . S
C1027 C1031 1.393 . S
C1028 H1017 0.950 . S
C1028 C1026 1.391 . S
C1028 C1029 1.400 . S
C1029 C1023 1.491 . S
C1029 C1028 1.400 . S
C1029 C1030 1.398 . S
C1030 H1018 0.950 . S
C1030 C1029 1.398 . S
C1030 C1031 1.391 . S
C1031 H1019 0.950 . S
C1031 C1027 1.393 . S
C1031 C1030 1.391 . S
H1032 C1040 0.950 . S
H1033 C1045 0.950 . S
H1034 C1042 0.950 . S
H1035 C1044 0.950 . S
H1036 C1046 0.950 . S
H1037 C1048 0.950 . S
H1038 C1050 0.950 1_655 S
H1039 C1051 0.950 . S
C1040 H1032 0.950 . S
C1040 C1041 1.386 . S
C1040 C1042 1.391 . S
C1041 C1040 1.386 . S
C1041 C1045 1.393 . S
C1042 H1034 0.950 . S
C1042 C1040 1.391 . S
C1042 C1043 1.400 . S
C1043 C1042 1.400 . S
C1043 C1044 1.398 . S
C1043 C1049 1.491 . S
C1044 H1035 0.950 . S
C1044 C1043 1.398 . S
C1044 C1045 1.391 . S
C1045 H1033 0.950 . S
C1045 C1041 1.393 . S
C1045 C1044 1.391 . S
C1046 H1036 0.950 . S
C1046 C1047 1.386 . S
C1046 C1048 1.391 1_455 S
C1047 C1046 1.386 . S
C1047 C1051 1.393 . S
C1048 H1037 0.950 . S
C1048 C1046 1.391 1_655 S
C1048 C1049 1.400 . S
C1049 C1043 1.491 . S
C1049 C1048 1.400 . S
C1049 C1050 1.397 1_655 S
C1050 H1038 0.950 1_455 S
C1050 C1049 1.397 1_455 S
C1050 C1051 1.392 . S
C1051 H1039 0.950 . S
C1051 C1047 1.393 . S
C1051 C1050 1.392 . S
H1052 C1060 0.950 . S
H1053 C1065 0.950 . S
H1054 C1062 0.950 . S
H1055 C1064 0.950 . S
H1056 C1066 0.950 . S
H1057 C1068 0.950 . S
H1058 C1070 0.950 . S
H1059 C1071 0.950 . S
C1060 H1052 0.950 . S
C1060 C1061 1.386 . S
C1060 C1062 1.391 . S
C1061 C1060 1.386 . S
C1061 C1065 1.393 . S
C1062 H1054 0.950 . S
C1062 C1060 1.391 . S
C1062 C1063 1.400 . S
C1063 C1062 1.400 . S
C1063 C1064 1.398 . S
C1063 C1069 1.491 . S
C1064 H1055 0.950 . S
C1064 C1063 1.398 . S
C1064 C1065 1.391 . S
C1065 H1053 0.950 . S
C1065 C1061 1.393 . S
C1065 C1064 1.391 . S
C1066 H1056 0.950 . S
C1066 C1067 1.386 . S
C1066 C1068 1.391 1_455 S
C1067 C1066 1.386 . S
C1067 C1071 1.393 . S
C1068 H1057 0.950 . S
C1068 C1066 1.391 1_655 S
C1068 C1069 1.400 . S
C1069 C1063 1.491 . S
C1069 C1068 1.400 . S
C1069 C1070 1.398 1_655 S
C1070 H1058 0.950 . S
C1070 C1069 1.398 1_455 S
C1070 C1071 1.391 . S
C1071 H1059 0.950 . S
C1071 C1067 1.393 . S
C1071 C1070 1.391 . S
H1072 C1080 0.950 . S
H1073 C1085 0.950 . S
H1074 C1082 0.950 . S
H1075 C1084 0.950 . S
H1076 C1086 0.950 . S
H1077 C1088 0.950 . S
H1078 C1090 0.950 . S
H1079 C1091 0.950 . S
C1080 H1072 0.950 . S
C1080 C1081 1.386 . S
C1080 C1082 1.391 . S
C1081 C1080 1.386 . S
C1081 C1085 1.393 . S
C1082 H1074 0.950 . S
C1082 C1080 1.391 . S
C1082 C1083 1.400 . S
C1083 C1082 1.400 . S
C1083 C1084 1.398 . S
C1083 C1089 1.491 . S
C1084 H1075 0.950 . S
C1084 C1083 1.398 . S
C1084 C1085 1.391 . S
C1085 H1073 0.950 . S
C1085 C1081 1.393 . S
C1085 C1084 1.391 . S
C1086 H1076 0.950 . S
C1086 C1087 1.386 . S
C1086 C1088 1.391 . S
C1087 C1086 1.386 . S
C1087 C1091 1.393 . S
C1088 H1077 0.950 . S
C1088 C1086 1.391 . S
C1088 C1089 1.400 . S
C1089 C1083 1.491 . S
C1089 C1088 1.400 . S
C1089 C1090 1.398 . S
C1090 H1078 0.950 . S
C1090 C1089 1.398 . S
C1090 C1091 1.391 . S
C1091 H1079 0.950 . S
C1091 C1087 1.393 . S
C1091 C1090 1.391 . S
H1092 C1100 0.950 . S
H1093 C1105 0.950 . S
H1094 C1102 0.950 . S
H1095 C1104 0.950 . S
H1096 C1106 0.950 . S
H1097 C1108 0.950 . S
H1098 C1110 0.950 . S
H1099 C1111 0.950 . S
C1100 H1092 0.950 . S
C1100 C1101 1.386 . S
C1100 C1102 1.391 . S
C1101 C1100 1.386 . S
C1101 C1105 1.393 . S
C1102 H1094 0.950 . S
C1102 C1100 1.391 . S
C1102 C1103 1.400 . S
C1103 C1102 1.400 . S
C1103 C1104 1.398 . S
C1103 C1109 1.491 . S
C1104 H1095 0.950 . S
C1104 C1103 1.398 . S
C1104 C1105 1.391 . S
C1105 H1093 0.950 . S
C1105 C1101 1.393 . S
C1105 C1104 1.391 . S
C1106 H1096 0.950 . S
C1106 C1107 1.386 . S
C1106 C1108 1.391 . S
C1107 C1106 1.386 . S
C1107 C1111 1.393 . S
C1108 H1097 0.950 . S
C1108 C1106 1.391 . S
C1108 C1109 1.400 . S
C1109 C1103 1.491 . S
C1109 C1108 1.400 . S
C1109 C1110 1.398 . S
C1110 H1098 0.950 . S
C1110 C1109 1.398 . S
C1110 C1111 1.391 . S
C1111 H1099 0.950 . S
C1111 C1107 1.393 . S
C1111 C1110 1.391 . S
H1112 C1120 0.950 . S
H1113 C1125 0.950 . S
H1114 C1122 0.950 . S
H1115 C1124 0.950 . S
H1116 C1126 0.950 . S
H1117 C1128 0.950 . S
H1118 C1130 0.950 . S
H1119 C1131 0.950 . S
C1120 H1112 0.950 . S
C1120 C1121 1.386 . S
C1120 C1122 1.391 . S
C1121 C1120 1.386 . S
C1121 C1125 1.393 . S
C1122 H1114 0.950 . S
C1122 C1120 1.391 . S
C1122 C1123 1.400 . S
C1123 C1122 1.400 . S
C1123 C1124 1.398 . S
C1123 C1129 1.491 . S
C1124 H1115 0.950 . S
C1124 C1123 1.398 . S
C1124 C1125 1.391 . S
C1125 H1113 0.950 . S
C1125 C1121 1.393 . S
C1125 C1124 1.391 . S
C1126 H1116 0.950 . S
C1126 C1127 1.386 . S
C1126 C1128 1.391 . S
C1127 C1126 1.386 . S
C1127 C1131 1.393 . S
C1128 H1117 0.950 . S
C1128 C1126 1.391 . S
C1128 C1129 1.400 . S
C1129 C1123 1.491 . S
C1129 C1128 1.400 . S
C1129 C1130 1.398 . S
C1130 H1118 0.950 . S
C1130 C1129 1.398 . S
C1130 C1131 1.391 . S
C1131 H1119 0.950 . S
C1131 C1127 1.393 . S
C1131 C1130 1.391 . S
H1132 C1140 0.950 . S
H1133 C1145 0.950 . S
H1134 C1142 0.950 . S
H1135 C1144 0.950 . S
H1136 C1146 0.950 . S
H1137 C1148 0.950 . S
H1138 C1150 0.950 . S
H1139 C1151 0.950 . S
C1140 H1132 0.950 . S
C1140 C1141 1.386 . S
C1140 C1142 1.391 . S
C1141 C1140 1.386 . S
C1141 C1145 1.393 . S
C1142 H1134 0.950 . S
C1142 C1140 1.391 . S
C1142 C1143 1.400 . S
C1143 C1142 1.400 . S
C1143 C1144 1.398 . S
C1143 C1149 1.491 . S
C1144 H1135 0.950 . S
C1144 C1143 1.398 . S
C1144 C1145 1.391 . S
C1145 H1133 0.950 . S
C1145 C1141 1.393 . S
C1145 C1144 1.391 . S
C1146 H1136 0.950 . S
C1146 C1147 1.386 . S
C1146 C1148 1.391 . S
C1147 C1146 1.386 . S
C1147 C1151 1.393 . S
C1148 H1137 0.950 . S
C1148 C1146 1.391 . S
C1148 C1149 1.400 . S
C1149 C1143 1.491 . S
C1149 C1148 1.400 . S
C1149 C1150 1.398 . S
C1150 H1138 0.950 . S
C1150 C1149 1.398 . S
C1150 C1151 1.391 . S
C1151 H1139 0.950 . S
C1151 C1147 1.393 . S
C1151 C1150 1.391 . S
C681 C56 2.076 . S
C687 C67 2.076 1_556 S
C701 C140 2.082 . S
C707 C151 2.082 1_556 S
C721 C235 2.084 . S
C727 C224 2.084 . S
C741 C319 2.081 . S
C747 C308 2.081 . S
C761 C392 2.070 . S
C767 C403 2.070 1_556 S
C781 C487 2.069 . S
C787 C476 2.069 . S
C801 C571 2.080 . S
C807 C560 2.080 . S
C821 C644 2.084 . S
C827 C655 2.084 . S
C841 C147 1.790 1_554 S
C847 C72 1.790 . S
C861 C315 1.809 . S
C867 C240 1.809 . S
C881 C408 1.784 . S
C887 C483 1.784 1_554 S
C901 C576 1.770 . S
C907 C651 1.770 . S
C921 C63 1.389 . S
C927 C492 1.372 . S
C941 C399 1.416 1_554 S
C947 C156 1.416 . S
C961 C231 1.400 . S
C967 C660 1.400 . S
C981 C324 1.414 . S
C987 C567 1.414 . S
C1001 C75 1.526 . S
C1007 C327 1.590 . S
C1021 C159 1.589 . S
C1027 C243 1.525 . S
C1041 C150 1.527 . S
C1047 C234 1.589 . S
C1061 C318 1.526 . S
C1067 C66 1.588 . S
C1081 C411 1.527 . S
C1087 C663 1.589 . S
C1101 C495 1.594 . S
C1107 C579 1.520 . S
C1121 C486 1.515 . S
C1127 C570 1.596 . S
C1141 C654 1.523 . S
C1147 C402 1.588 . S
