# Generated by pormake.
# Topology sma, (6)-cn, num edge types: 1
# Building blocks:
#     Node 0, Type 0, BuildingBlock: NUHQIS_clean_sbu_0, # of connection points: 6
#     Node 1, Type 0, BuildingBlock: NUHQIS_clean_sbu_0, # of connection points: 6
#     Node 2, Type 0, BuildingBlock: NUHQIS_clean_sbu_0, # of connection points: 6
#     Edge 3, Type (0, 0), BuildingBlock: KIFKEQ_clean_linker_1, # of connection points: 2
#     Edge 4, Type (0, 0), BuildingBlock: KIFKEQ_clean_linker_1, # of connection points: 2
#     Edge 5, Type (0, 0), BuildingBlock: KIFKEQ_clean_linker_1, # of connection points: 2
#     Edge 6, Type (0, 0), BuildingBlock: KIFKEQ_clean_linker_1, # of connection points: 2
#     Edge 7, Type (0, 0), BuildingBlock: KIFKEQ_clean_linker_1, # of connection points: 2
#     Edge 8, Type (0, 0), BuildingBlock: KIFKEQ_clean_linker_1, # of connection points: 2
#     Edge 9, Type (0, 0), BuildingBlock: KIFKEQ_clean_linker_1, # of connection points: 2
#     Edge 10, Type (0, 0), BuildingBlock: KIFKEQ_clean_linker_1, # of connection points: 2
#     Edge 11, Type (0, 0), BuildingBlock: KIFKEQ_clean_linker_1, # of connection points: 2
# Relax obj value: 0.072
# Max RMSD: 0.179
# Mean RMSD: 0.175
data_MOF--net-sma--node1-NUHQIS_clean_sbu_0--edge1-KIFKEQ_clean_linker_1
_symmetry_space_group_name_H-M    P1
_symmetry_Int_Tables_number       1
_symmetry_cell_setting            triclinic
loop_
_symmetry_equiv_pos_as_xyz
'x, y, z'
_cell_length_a     39.812487
_cell_length_b     39.835891
_cell_length_c     15.374947
_cell_angle_alpha  89.454983
_cell_angle_beta   92.116454
_cell_angle_gamma 119.81506
loop_
_atom_site_label
_atom_site_type_symbol
_atom_site_fract_x
_atom_site_fract_y
_atom_site_fract_z
_atom_type_partial_charge
Tb0 Tb 0.10151 0.53208 0.12394 0.0
Eu1 Eu 1.05329 0.58027 0.11646 0.0
C2 C 0.0795 0.55735 0.29466 0.0
C3 C 1.0093 0.48718 0.13477 0.0
C4 C 0.17721 0.50577 0.08335 0.0
C5 C 0.23671 0.50291 0.09748 0.0
C6 C 0.20133 0.49524 0.13034 0.0
C7 C 0.18902 0.52427 0.00289 0.0
C8 C 0.22427 0.53164 -0.03041 0.0
C9 C 0.24853 0.52109 0.01662 0.0
C10 C 0.14017 0.49758 0.1197 0.0
O11 O 0.10582 0.55669 -0.00454 0.0
O12 O 1.04616 0.55099 -0.01199 0.0
O13 O 0.11589 0.62517 0.10171 0.0
O14 O 0.14554 0.59161 0.15396 0.0
C15 C 0.07583 0.55303 -0.05056 0.0
O16 O 1.03942 0.61997 0.04612 0.0
O17 O 1.01403 0.59721 0.17059 0.0
O18 O 0.07786 0.58541 0.25269 0.0
O19 O 0.08008 0.52892 0.25333 0.0
O20 O 1.04071 0.48667 0.1125 0.0
O21 O 1.00888 0.51946 0.14835 0.0
C22 C 0.14671 0.6241 0.13142 0.0
O23 O 0.14255 0.51989 0.1839 0.0
O24 O 0.11212 0.49138 0.0639 0.0
C25 C 0.97636 0.60893 0.06565 0.0
C26 C 0.90389 0.59455 -0.00438 0.0
C27 C 0.93468 0.63268 0.00723 0.0
C28 C 0.97057 0.63977 0.04205 0.0
C29 C 0.94594 0.57078 0.05329 0.0
C30 C 0.90993 0.56365 0.01888 0.0
C31 C 1.01431 0.61702 0.10222 0.0
H32 H 0.2546 0.49412 0.13482 0.0
H33 H 0.19276 0.48102 0.19257 0.0
H34 H 0.17107 0.53306 -0.03419 0.0
H35 H 0.23281 0.54607 0.9076 0.0
H36 H 0.93083 0.65709 -0.00906 0.0
H37 H 0.99379 0.66938 0.05097 0.0
H38 H 0.95002 0.54656 0.0704 0.0
H39 H 0.88692 0.53397 0.00985 0.0
Tb40 Tb 0.62795 0.09545 0.49062 0.0
Eu41 Eu 0.53311 1.03048 0.48327 0.0
C42 C 0.58222 0.06374 0.66314 0.0
C43 C 0.59692 1.00624 0.49313 0.0
C44 C 0.72829 0.17775 0.44584 0.0
C45 C 0.78647 0.24091 0.45033 0.0
C46 C 0.75866 0.20837 0.49303 0.0
C47 C 0.7261 0.18005 0.35471 0.0
C48 C 0.75418 0.21265 0.31167 0.0
C49 C 0.78457 0.24354 0.35919 0.0
C50 C 0.69973 0.14404 0.49409 0.0
O51 O 0.61322 0.07799 0.35575 0.0
O52 O 0.54736 0.05441 0.34975 0.0
O53 O 0.54095 0.08732 0.52936 0.0
O54 O 0.59697 0.12657 0.45918 0.0
C55 C 0.58053 0.06756 0.31221 0.0
O56 O 0.47358 1.01113 0.43771 0.0
O57 O 0.4857 0.97548 0.52645 0.0
O58 O 0.55326 1.03435 0.62208 0.0
O59 O 0.61061 0.09245 0.62306 0.0
O60 O 0.6201 1.03957 0.53213 0.0
O61 O 0.56635 1.00114 0.44696 0.0
C62 C 0.56603 0.12133 0.49908 0.0
O63 O 0.67429 0.1487 0.53517 0.0
O64 O 0.68422 0.11021 0.45603 0.0
C65 C 0.43092 0.94294 0.43138 0.0
C66 C 0.37536 0.87378 0.34678 0.0
C67 C 0.405 0.90362 0.29961 0.0
C68 C 0.43272 0.93791 0.34169 0.0
C69 C 0.40131 0.91338 0.47821 0.0
C70 C 0.37384 0.87918 0.4365 0.0
C71 C 0.45948 0.97826 0.47863 0.0
H72 H 0.80979 0.26389 0.48875 0.0
H73 H 0.76093 0.20708 0.56331 0.0
H74 H 0.70275 0.15677 0.31697 0.0
H75 H 0.75179 0.21396 0.24147 0.0
H76 H 0.40709 0.90021 0.23056 0.0
H77 H 0.45555 0.96033 0.30441 0.0
H78 H 0.39941 0.91677 0.54741 0.0
H79 H 0.35106 0.8571 0.47449 0.0
Tb80 Tb 0.59422 0.60655 0.80605 0.0
Eu81 Eu 0.5491 0.50968 0.80336 0.0
C82 C 0.57412 0.55951 -0.02041 0.0
C83 C 0.64243 0.56178 0.82075 0.0
C84 C 0.62044 0.7097 0.75821 0.0
C85 C 0.599 0.75692 0.77195 0.0
C86 C 0.60273 0.72621 0.80591 0.0
C87 C 0.63395 0.72437 0.67532 0.0
C88 C 0.63019 0.75508 0.64133 0.0
C89 C 0.61312 0.77205 0.68973 0.0
C90 C 0.62751 0.67951 0.79735 0.0
O91 O 0.56852 0.58588 0.6769 0.0
O92 O 0.57453 0.53189 0.67401 0.0
O93 O 0.50216 0.52545 0.78926 0.0
O94 O 0.53482 0.58911 0.83576 0.0
C95 C 0.57184 0.55954 0.63379 0.0
O96 O 0.5081 0.45585 0.73642 0.0
O97 O 0.53633 0.45407 0.85832 0.0
O98 O 0.54723 0.52816 -0.06058 0.0
O99 O 0.60002 0.58992 -0.06182 0.0
O100 O 0.64085 0.59306 0.79923 0.0
O101 O 0.61142 0.52818 0.83342 0.0
C102 C 0.50254 0.55677 0.81688 0.0
O103 O 0.60581 0.65952 0.86098 0.0
O104 O 0.63334 0.65777 0.74417 0.0
C105 C 0.52207 0.40465 0.75307 0.0
C106 C 0.53362 0.3461 0.68159 0.0
C107 C 0.50786 0.35632 0.64052 0.0
C108 C 0.50204 0.38512 0.67606 0.0
C109 C 0.54804 0.39467 0.79396 0.0
C110 C 0.55376 0.36576 0.75857 0.0
C111 C 0.51468 0.4343 0.79109 0.0
H112 H 0.58526 0.76901 0.81047 0.0
H113 H 0.59231 0.71587 0.87026 0.0
H114 H 0.64824 0.7127 0.63732 0.0
H115 H 0.64182 0.76634 0.57831 0.0
H116 H 0.49221 0.34213 0.58065 0.0
H117 H 0.48168 0.392 0.64333 0.0
H118 H 0.56371 0.40887 0.85382 0.0
H119 H 0.57333 0.35822 0.79271 0.0
H120 H 0.2629 0.50843 0.85091 0.0
H121 H 0.31877 0.55127 0.10343 0.0
H122 H 0.32434 0.51966 0.79475 0.0
H123 H 0.37992 0.56197 0.04776 0.0
H124 H 0.49095 0.61039 0.90015 0.0
H125 H 0.42964 0.60389 -0.05729 0.0
H126 H 0.36791 0.4915 0.81792 0.0
H127 H 0.42918 0.49792 0.77476 0.0
C128 C 0.28836 0.52049 0.89419 0.0
C129 C 0.28601 0.52889 -0.01837 0.0
C130 C 0.32343 0.52664 0.86223 0.0
C131 C 0.35696 0.54173 0.9168 0.0
C132 C 0.3547 0.55069 0.00385 0.0
C133 C 0.3196 0.5442 0.03598 0.0
C134 C 0.46433 0.58446 0.88072 0.0
C135 C 0.46509 0.55458 0.83433 0.0
C136 C 0.42921 0.58066 0.9057 0.0
C137 C 0.39398 0.54706 0.88428 0.0
C138 C 0.39457 0.51784 0.83496 0.0
C139 C 0.42973 0.52148 0.81055 0.0
H140 H 0.81376 0.31897 0.40747 0.0
H141 H 0.82293 0.2474 0.21125 0.0
H142 H 0.86585 0.37637 0.34267 0.0
H143 H 0.87472 0.30527 0.14455 0.0
H144 H 0.99952 0.41384 0.13603 0.0
H145 H 0.94275 0.35423 0.18045 0.0
H146 H 0.88114 0.41663 0.21419 0.0
H147 H 0.9378 0.4762 0.1712 0.0
C148 C 0.8268 0.31553 0.3501 0.0
C149 C 0.81437 0.27859 0.31491 0.0
C150 C 0.85641 0.34851 0.31231 0.0
C151 C 0.87447 0.34548 0.23827 0.0
C152 C 0.8616 0.30858 0.20194 0.0
C153 C 0.83172 0.27549 0.23963 0.0
C154 C 0.97371 0.41478 0.1518 0.0
C155 C 0.97349 0.45 0.15095 0.0
C156 C 0.94108 0.38053 0.17696 0.0
C157 C 0.90753 0.38073 0.20186 0.0
C158 C 0.90675 0.4156 0.19706 0.0
C159 C 0.93927 0.44976 0.17197 0.0
H160 H 0.65506 1.00488 0.59067 0.0
H161 H 0.55079 0.93121 0.43748 0.0
H162 H 0.66042 0.94858 0.63269 0.0
H163 H 0.55584 0.87483 0.48094 0.0
H164 H 0.59505 0.78508 0.52338 0.0
H165 H 0.59394 0.84235 0.4687 0.0
H166 H 0.62544 0.89335 0.72649 0.0
H167 H 0.62789 0.83694 0.78026 0.0
C168 C 0.63341 0.97674 0.56542 0.0
C169 C 0.60236 0.97259 0.51113 0.0
C170 C 0.63635 0.94441 0.59004 0.0
C171 C 0.60831 0.90714 0.56101 0.0
C172 C 0.57806 0.90314 0.50403 0.0
C173 C 0.57511 0.9355 0.47937 0.0
C174 C 0.60204 0.80869 0.56814 0.0
C175 C 0.61147 0.80638 0.65625 0.0
C176 C 0.60109 0.84135 0.53697 0.0
C177 C 0.60974 0.8725 0.59313 0.0
C178 C 0.61916 0.87014 0.68116 0.0
C179 C 0.62002 0.83752 0.7123 0.0
H180 H 0.71357 0.62745 0.82115 0.0
H181 H 0.6588 0.50353 0.85324 0.0
H182 H 0.77636 0.63349 0.8568 0.0
H183 H 0.72186 0.50955 0.88667 0.0
H184 H 0.83259 0.54264 0.05453 0.0
H185 H 0.76973 0.53327 0.00419 0.0
H186 H 0.8253 0.62036 0.80811 0.0
H187 H 0.88825 0.63003 0.85944 0.0
C188 C 0.71492 0.60139 0.83456 0.0
C189 C 0.68101 0.56502 0.83483 0.0
C190 C 0.75105 0.60486 0.8546 0.0
C191 C 0.75422 0.57202 0.87503 0.0
C192 C 0.72042 0.53552 0.87273 0.0
C193 C 0.68425 0.53206 0.85303 0.0
C194 C 0.83132 0.55941 -7e-05 0.0
C195 C 0.86541 0.58721 -0.03872 0.0
C196 C 0.79525 0.554 -0.02912 0.0
C197 C 0.79239 0.57614 0.90219 0.0
C198 C 0.82647 0.60329 0.86215 0.0
C199 C 0.86255 0.60882 0.89149 0.0
H200 H 0.33637 0.86445 0.18986 0.0
H201 H 0.34729 0.80016 0.40619 0.0
H202 H 0.28432 0.80431 0.12498 0.0
H203 H 0.29468 0.74052 0.34328 0.0
H204 H 0.21761 0.63426 0.18466 0.0
H205 H 0.27596 0.69464 0.22483 0.0
H206 H 0.21721 0.75819 0.15572 0.0
H207 H 0.15908 0.69794 0.11375 0.0
C208 C 0.32794 0.83746 0.22308 0.0
C209 C 0.34577 0.83712 0.3035 0.0
C210 C 0.29787 0.80306 0.18637 0.0
C211 C 0.28517 0.76756 0.22904 0.0
C212 C 0.30392 0.7672 0.30806 0.0
C213 C 0.33382 0.8015 0.34474 0.0
C214 C 0.2172 0.66111 0.17702 0.0
C215 C 0.18344 0.66111 0.14671 0.0
C216 C 0.25066 0.69576 0.20049 0.0
C217 C 0.2512 0.73127 0.19444 0.0
C218 C 0.21798 0.73143 0.16054 0.0
C219 C 0.18451 0.69678 0.13688 0.0
H220 H 0.47779 0.27719 0.60999 0.0
H221 H 0.60068 0.34288 0.67226 0.0
H222 H 0.48539 0.22431 0.55536 0.0
H223 H 0.60797 0.28915 0.62131 0.0
H224 H 0.61344 0.1975 0.45697 0.0
H225 H 0.60546 0.25267 0.49287 0.0
H226 H 0.49828 0.17586 0.61616 0.0
H227 H 0.50569 0.1209 0.57879 0.0
C228 C 0.5065 0.28051 0.61148 0.0
C229 C 0.53861 0.31432 0.64575 0.0
C230 C 0.51078 0.24995 0.58106 0.0
C231 C 0.54726 0.25234 0.58437 0.0
C232 C 0.57952 0.28645 0.61704 0.0
C233 C 0.57525 0.31707 0.64734 0.0
C234 C 0.58797 0.19236 0.49089 0.0
C235 C 0.56023 0.15472 0.51498 0.0
C236 C 0.58354 0.22403 0.51204 0.0
C237 C 0.55127 0.21873 0.55757 0.0
C238 C 0.52321 0.18099 0.57999 0.0
C239 C 0.52761 0.14942 0.55892 0.0
H240 H 1.02403 0.557 0.83432 0.0
H241 H 0.12884 0.5496 0.8476 0.0
H242 H 1.02545 0.55826 0.67586 0.0
H243 H 0.13027 0.55112 0.68905 0.0
H244 H 0.09192 0.50992 0.40433 0.0
H245 H 0.09108 0.50881 0.56282 0.0
H246 H 0.06699 0.60322 0.56106 0.0
H247 H 0.06754 0.60431 0.40247 0.0
C248 C 1.04734 0.5556 0.80349 0.0
C249 C 0.07633 0.5532 0.85348 0.0
C250 C 1.04826 0.55658 0.7128 0.0
C251 C 0.07801 0.55488 0.67029 0.0
C252 C 0.10683 0.55216 0.72017 0.0
C253 C 0.10608 0.55147 0.81091 0.0
C254 C 0.08645 0.53047 0.43764 0.0
C255 C 0.07972 0.55717 0.39077 0.0
C256 C 0.0862 0.52994 0.52842 0.0
C257 C 0.07892 0.55588 0.57411 0.0
C258 C 0.07227 0.58263 0.52736 0.0
C259 C 0.07283 0.58337 0.4366 0.0
H260 H 0.51879 0.04586 0.19869 0.0
H261 H 0.64323 0.09369 0.21082 0.0
H262 H 0.51941 0.0468 0.04052 0.0
H263 H 0.64347 0.09373 0.05283 0.0
H264 H 0.63202 0.12323 0.77028 0.0
H265 H 0.6311 0.1262 -0.07195 0.0
H266 H 0.53216 1.01063 -0.07145 0.0
H267 H 0.53244 1.00771 0.77075 0.0
C268 C 0.54625 0.0566 0.16772 0.0
C269 C 0.58094 0.06947 0.21703 0.0
C270 C 0.54652 0.05694 0.07736 0.0
C271 C 0.58145 0.07013 0.03509 0.0
C272 C 0.61623 0.08374 0.0842 0.0
C273 C 0.616 0.08346 0.17455 0.0
C274 C 0.61009 0.0984 0.804 0.0
C275 C 0.5823 0.0652 0.7583 0.0
C276 C 0.60966 0.10013 0.89414 0.0
C277 C 0.58151 0.06868 -0.06016 0.0
C278 C 0.55379 1.03546 0.89436 0.0
C279 C 0.55414 1.03373 0.8042 0.0
H280 H 0.60637 0.62259 0.53039 0.0
H281 H 0.53693 0.49812 0.52344 0.0
H282 H 0.60928 0.62346 0.37237 0.0
H283 H 0.53653 0.49866 0.36548 0.0
H284 H 0.56983 0.50405 0.08897 0.0
H285 H 0.57126 0.50522 0.2472 0.0
H286 H 0.57844 0.6174 0.24137 0.0
H287 H 0.58063 0.6172 0.08328 0.0
C288 C 0.59115 0.59548 0.49445 0.0
C289 C 0.57163 0.5603 0.53838 0.0
C290 C 0.5925 0.59587 0.40375 0.0
C291 C 0.57326 0.56109 0.35505 0.0
C292 C 0.55277 0.526 0.39998 0.0
C293 C 0.55256 0.52559 0.49064 0.0
C294 C 0.57201 0.52897 0.12219 0.0
C295 C 0.57519 0.56054 0.07488 0.0
C296 C 0.57241 0.52959 0.21292 0.0
C297 C 0.57454 0.56125 0.25818 0.0
C298 C 0.57756 0.59282 0.20977 0.0
C299 C 0.57852 0.59269 0.11907 0.0
loop_
_geom_bond_atom_site_label_1
_geom_bond_atom_site_label_2
_geom_bond_distance
_geom_bond_site_symmetry_2
_ccdc_geom_bond_type
Tb0 C10 2.825 . S
Tb0 O11 2.347 . S
Tb0 O14 2.366 . S
Tb0 O19 2.418 . S
Tb0 O20 2.384 1_455 S
Tb0 O23 2.479 . S
Tb0 O24 2.471 . S
Eu1 O12 2.418 1_554 S
Eu1 O13 2.384 1_655 S
Eu1 O16 2.479 . S
Eu1 O17 2.471 . S
Eu1 O18 2.347 1_655 S
Eu1 O21 2.366 . S
Eu1 C31 2.825 . S
C2 O18 1.259 . S
C2 O19 1.265 . S
C3 O20 1.255 . S
C3 O21 1.265 . S
C4 C6 1.380 . S
C4 C7 1.374 . S
C4 C10 1.507 . S
C5 C6 1.384 . S
C5 C9 1.387 . S
C5 H32 0.930 . S
C6 C4 1.380 . S
C6 C5 1.384 . S
C6 H33 0.931 . S
C7 C4 1.374 . S
C7 C8 1.390 . S
C7 H34 0.930 . S
C8 C7 1.390 . S
C8 C9 1.391 . S
C8 H35 0.930 1_554 S
C9 C5 1.387 . S
C9 C8 1.391 . S
C10 Tb0 2.825 . S
C10 C4 1.507 . S
C10 O23 1.238 . S
C10 O24 1.247 . S
O11 Tb0 2.347 . S
O11 C15 1.259 1_554 S
O12 Eu1 2.418 1_556 S
O12 C15 1.265 1_655 S
O13 Eu1 2.384 1_455 S
O13 C22 1.255 . S
O14 Tb0 2.366 . S
O14 C22 1.265 . S
C15 O11 1.259 1_556 S
C15 O12 1.265 1_455 S
O16 Eu1 2.479 . S
O16 C31 1.238 . S
O17 Eu1 2.471 . S
O17 C31 1.247 . S
O18 Eu1 2.347 1_455 S
O18 C2 1.259 . S
O19 Tb0 2.418 . S
O19 C2 1.265 . S
O20 Tb0 2.384 1_655 S
O20 C3 1.255 . S
O21 Eu1 2.366 . S
O21 C3 1.265 . S
C22 O13 1.255 . S
C22 O14 1.265 . S
O23 Tb0 2.479 . S
O23 C10 1.238 . S
O24 Tb0 2.471 . S
O24 C10 1.247 . S
C25 C28 1.380 . S
C25 C29 1.374 . S
C25 C31 1.507 . S
C26 C27 1.387 . S
C26 C30 1.391 . S
C27 C26 1.387 . S
C27 C28 1.384 . S
C27 H36 0.930 . S
C28 C25 1.380 . S
C28 C27 1.384 . S
C28 H37 0.931 . S
C29 C25 1.374 . S
C29 C30 1.390 . S
C29 H38 0.930 . S
C30 C26 1.391 . S
C30 C29 1.390 . S
C30 H39 0.930 . S
C31 Eu1 2.825 . S
C31 O16 1.238 . S
C31 O17 1.247 . S
C31 C25 1.507 . S
H32 C5 0.930 . S
H33 C6 0.931 . S
H34 C7 0.930 . S
H35 C8 0.930 1_556 S
H36 C27 0.930 . S
H37 C28 0.931 . S
H38 C29 0.930 . S
H39 C30 0.930 . S
Tb40 C50 2.825 . S
Tb40 O51 2.347 . S
Tb40 O54 2.366 . S
Tb40 O59 2.418 . S
Tb40 O60 2.384 1_545 S
Tb40 O63 2.479 . S
Tb40 O64 2.471 . S
Eu41 O52 2.418 . S
Eu41 O53 2.384 1_565 S
Eu41 O56 2.479 . S
Eu41 O57 2.471 . S
Eu41 O58 2.347 1_565 S
Eu41 O61 2.366 . S
Eu41 C71 2.825 . S
C42 O58 1.259 . S
C42 O59 1.265 . S
C43 O60 1.255 . S
C43 O61 1.265 . S
C44 C46 1.380 . S
C44 C47 1.374 . S
C44 C50 1.507 . S
C45 C46 1.384 . S
C45 C49 1.387 . S
C45 H72 0.930 . S
C46 C44 1.380 . S
C46 C45 1.384 . S
C46 H73 0.931 . S
C47 C44 1.374 . S
C47 C48 1.390 . S
C47 H74 0.930 . S
C48 C47 1.390 . S
C48 C49 1.391 . S
C48 H75 0.930 . S
C49 C45 1.387 . S
C49 C48 1.391 . S
C50 Tb40 2.825 . S
C50 C44 1.507 . S
C50 O63 1.238 . S
C50 O64 1.247 . S
O51 Tb40 2.347 . S
O51 C55 1.259 . S
O52 Eu41 2.418 . S
O52 C55 1.265 1_565 S
O53 Eu41 2.384 1_545 S
O53 C62 1.255 . S
O54 Tb40 2.366 . S
O54 C62 1.265 . S
C55 O51 1.259 . S
C55 O52 1.265 1_545 S
O56 Eu41 2.479 . S
O56 C71 1.238 . S
O57 Eu41 2.471 . S
O57 C71 1.247 . S
O58 Eu41 2.347 1_545 S
O58 C42 1.259 . S
O59 Tb40 2.418 . S
O59 C42 1.265 . S
O60 Tb40 2.384 1_565 S
O60 C43 1.255 . S
O61 Eu41 2.366 . S
O61 C43 1.265 . S
C62 O53 1.255 . S
C62 O54 1.265 . S
O63 Tb40 2.479 . S
O63 C50 1.238 . S
O64 Tb40 2.471 . S
O64 C50 1.247 . S
C65 C68 1.380 . S
C65 C69 1.374 . S
C65 C71 1.507 . S
C66 C67 1.387 . S
C66 C70 1.391 . S
C67 C66 1.387 . S
C67 C68 1.384 . S
C67 H76 0.930 . S
C68 C65 1.380 . S
C68 C67 1.384 . S
C68 H77 0.931 . S
C69 C65 1.374 . S
C69 C70 1.390 . S
C69 H78 0.930 . S
C70 C66 1.391 . S
C70 C69 1.390 . S
C70 H79 0.930 . S
C71 Eu41 2.825 . S
C71 O56 1.238 . S
C71 O57 1.247 . S
C71 C65 1.507 . S
H72 C45 0.930 . S
H73 C46 0.931 . S
H74 C47 0.930 . S
H75 C48 0.930 . S
H76 C67 0.930 . S
H77 C68 0.931 . S
H78 C69 0.930 . S
H79 C70 0.930 . S
Tb80 C90 2.825 . S
Tb80 O91 2.347 . S
Tb80 O94 2.366 . S
Tb80 O99 2.418 1_556 S
Tb80 O100 2.384 . S
Tb80 O103 2.479 . S
Tb80 O104 2.471 . S
Eu81 O92 2.418 . S
Eu81 O93 2.384 . S
Eu81 O96 2.479 . S
Eu81 O97 2.471 . S
Eu81 O98 2.347 . S
Eu81 O101 2.366 . S
Eu81 C111 2.825 . S
C82 O98 1.259 1_554 S
C82 O99 1.265 . S
C83 O100 1.255 . S
C83 O101 1.265 . S
C84 C86 1.380 . S
C84 C87 1.374 . S
C84 C90 1.507 . S
C85 C86 1.384 . S
C85 C89 1.387 . S
C85 H112 0.930 . S
C86 C84 1.380 . S
C86 C85 1.384 . S
C86 H113 0.931 . S
C87 C84 1.374 . S
C87 C88 1.390 . S
C87 H114 0.930 . S
C88 C87 1.390 . S
C88 C89 1.391 . S
C88 H115 0.930 . S
C89 C85 1.387 . S
C89 C88 1.391 . S
C90 Tb80 2.825 . S
C90 C84 1.507 . S
C90 O103 1.238 . S
C90 O104 1.247 . S
O91 Tb80 2.347 . S
O91 C95 1.259 . S
O92 Eu81 2.418 . S
O92 C95 1.265 . S
O93 Eu81 2.384 . S
O93 C102 1.255 . S
O94 Tb80 2.366 . S
O94 C102 1.265 . S
C95 O91 1.259 . S
C95 O92 1.265 . S
O96 Eu81 2.479 . S
O96 C111 1.238 . S
O97 Eu81 2.471 . S
O97 C111 1.247 . S
O98 Eu81 2.347 . S
O98 C82 1.259 1_556 S
O99 Tb80 2.418 1_554 S
O99 C82 1.265 . S
O100 Tb80 2.384 . S
O100 C83 1.255 . S
O101 Eu81 2.366 . S
O101 C83 1.265 . S
C102 O93 1.255 . S
C102 O94 1.265 . S
O103 Tb80 2.479 . S
O103 C90 1.238 . S
O104 Tb80 2.471 . S
O104 C90 1.247 . S
C105 C108 1.380 . S
C105 C109 1.374 . S
C105 C111 1.507 . S
C106 C107 1.387 . S
C106 C110 1.391 . S
C107 C106 1.387 . S
C107 C108 1.384 . S
C107 H116 0.930 . S
C108 C105 1.380 . S
C108 C107 1.384 . S
C108 H117 0.931 . S
C109 C105 1.374 . S
C109 C110 1.390 . S
C109 H118 0.930 . S
C110 C106 1.391 . S
C110 C109 1.390 . S
C110 H119 0.930 1_556 S
C111 Eu81 2.825 . S
C111 O96 1.238 . S
C111 O97 1.247 . S
C111 C105 1.507 . S
H112 C85 0.930 . S
H113 C86 0.931 . S
H114 C87 0.930 . S
H115 C88 0.930 . S
H116 C107 0.930 . S
H117 C108 0.931 . S
H118 C109 0.930 . S
H119 C110 0.930 1_554 S
H120 C128 0.950 1_556 S
H121 C133 0.950 . S
H122 C130 0.950 . S
H123 C132 0.950 . S
H124 C134 0.950 . S
H125 C136 0.950 1_554 S
H126 C138 0.950 . S
H127 C139 0.950 . S
C128 H120 0.950 1_554 S
C128 C129 1.386 . S
C128 C130 1.391 1_554 S
C129 C128 1.386 . S
C129 C133 1.393 . S
C130 H122 0.950 . S
C130 C128 1.391 1_556 S
C130 C131 1.400 . S
C131 C130 1.400 . S
C131 C132 1.398 1_556 S
C131 C137 1.491 . S
C132 H123 0.950 . S
C132 C131 1.398 1_554 S
C132 C133 1.391 . S
C133 H121 0.950 . S
C133 C129 1.393 . S
C133 C132 1.391 . S
C134 H124 0.950 . S
C134 C135 1.386 . S
C134 C136 1.391 . S
C135 C134 1.386 . S
C135 C139 1.393 . S
C136 H125 0.950 1_556 S
C136 C134 1.391 . S
C136 C137 1.400 . S
C137 C131 1.491 . S
C137 C136 1.400 . S
C137 C138 1.398 . S
C138 H126 0.950 . S
C138 C137 1.398 . S
C138 C139 1.391 . S
C139 H127 0.950 . S
C139 C135 1.393 . S
C139 C138 1.391 . S
H140 C148 0.950 . S
H141 C153 0.950 . S
H142 C150 0.950 . S
H143 C152 0.950 . S
H144 C154 0.950 . S
H145 C156 0.950 . S
H146 C158 0.950 . S
H147 C159 0.950 . S
C148 H140 0.950 . S
C148 C149 1.386 . S
C148 C150 1.391 . S
C149 C148 1.386 . S
C149 C153 1.393 . S
C150 H142 0.950 . S
C150 C148 1.391 . S
C150 C151 1.400 . S
C151 C150 1.400 . S
C151 C152 1.398 . S
C151 C157 1.491 . S
C152 H143 0.950 . S
C152 C151 1.398 . S
C152 C153 1.391 . S
C153 H141 0.950 . S
C153 C149 1.393 . S
C153 C152 1.391 . S
C154 H144 0.950 . S
C154 C155 1.386 . S
C154 C156 1.391 . S
C155 C154 1.386 . S
C155 C159 1.393 . S
C156 H145 0.950 . S
C156 C154 1.391 . S
C156 C157 1.400 . S
C157 C151 1.491 . S
C157 C156 1.400 . S
C157 C158 1.398 . S
C158 H146 0.950 . S
C158 C157 1.398 . S
C158 C159 1.391 . S
C159 H147 0.950 . S
C159 C155 1.393 . S
C159 C158 1.391 . S
H160 C168 0.950 . S
H161 C173 0.950 . S
H162 C170 0.950 . S
H163 C172 0.950 . S
H164 C174 0.950 . S
H165 C176 0.950 . S
H166 C178 0.950 . S
H167 C179 0.950 . S
C168 H160 0.950 . S
C168 C169 1.386 . S
C168 C170 1.391 . S
C169 C168 1.386 . S
C169 C173 1.393 . S
C170 H162 0.950 . S
C170 C168 1.391 . S
C170 C171 1.400 . S
C171 C170 1.400 . S
C171 C172 1.398 . S
C171 C177 1.491 . S
C172 H163 0.950 . S
C172 C171 1.398 . S
C172 C173 1.391 . S
C173 H161 0.950 . S
C173 C169 1.393 . S
C173 C172 1.391 . S
C174 H164 0.950 . S
C174 C175 1.386 . S
C174 C176 1.391 . S
C175 C174 1.386 . S
C175 C179 1.393 . S
C176 H165 0.950 . S
C176 C174 1.391 . S
C176 C177 1.400 . S
C177 C171 1.491 . S
C177 C176 1.400 . S
C177 C178 1.398 . S
C178 H166 0.950 . S
C178 C177 1.398 . S
C178 C179 1.391 . S
C179 H167 0.950 . S
C179 C175 1.393 . S
C179 C178 1.391 . S
H180 C188 0.950 . S
H181 C193 0.950 1_554 S
H182 C190 0.950 . S
H183 C192 0.950 . S
H184 C194 0.950 . S
H185 C196 0.950 . S
H186 C198 0.950 . S
H187 C199 0.950 . S
C188 H180 0.950 . S
C188 C189 1.386 . S
C188 C190 1.391 . S
C189 C188 1.386 . S
C189 C193 1.393 . S
C190 H182 0.950 . S
C190 C188 1.391 . S
C190 C191 1.400 . S
C191 C190 1.400 . S
C191 C192 1.398 1_556 S
C191 C197 1.491 1_556 S
C192 H183 0.950 . S
C192 C191 1.398 1_554 S
C192 C193 1.391 1_554 S
C193 H181 0.950 1_556 S
C193 C189 1.393 . S
C193 C192 1.391 1_556 S
C194 H184 0.950 . S
C194 C195 1.386 . S
C194 C196 1.391 . S
C195 C194 1.386 . S
C195 C199 1.393 . S
C196 H185 0.950 . S
C196 C194 1.391 . S
C196 C197 1.400 . S
C197 C191 1.491 1_554 S
C197 C196 1.400 . S
C197 C198 1.398 1_554 S
C198 H186 0.950 . S
C198 C197 1.398 1_556 S
C198 C199 1.391 1_556 S
C199 H187 0.950 . S
C199 C195 1.393 . S
C199 C198 1.391 1_554 S
H200 C208 0.950 . S
H201 C213 0.950 . S
H202 C210 0.950 . S
H203 C212 0.950 . S
H204 C214 0.950 . S
H205 C216 0.950 . S
H206 C218 0.950 . S
H207 C219 0.950 . S
C208 H200 0.950 . S
C208 C209 1.386 . S
C208 C210 1.391 . S
C209 C208 1.386 . S
C209 C213 1.393 . S
C210 H202 0.950 . S
C210 C208 1.391 . S
C210 C211 1.400 . S
C211 C210 1.400 . S
C211 C212 1.398 . S
C211 C217 1.491 . S
C212 H203 0.950 . S
C212 C211 1.398 . S
C212 C213 1.391 . S
C213 H201 0.950 . S
C213 C209 1.393 . S
C213 C212 1.391 . S
C214 H204 0.950 . S
C214 C215 1.386 . S
C214 C216 1.391 . S
C215 C214 1.386 . S
C215 C219 1.393 . S
C216 H205 0.950 . S
C216 C214 1.391 . S
C216 C217 1.400 . S
C217 C211 1.491 . S
C217 C216 1.400 . S
C217 C218 1.398 . S
C218 H206 0.950 . S
C218 C217 1.398 . S
C218 C219 1.391 . S
C219 H207 0.950 . S
C219 C215 1.393 . S
C219 C218 1.391 . S
H220 C228 0.950 . S
H221 C233 0.950 . S
H222 C230 0.950 . S
H223 C232 0.950 . S
H224 C234 0.950 . S
H225 C236 0.950 . S
H226 C238 0.950 . S
H227 C239 0.950 . S
C228 H220 0.950 . S
C228 C229 1.386 . S
C228 C230 1.391 . S
C229 C228 1.386 . S
C229 C233 1.393 . S
C230 H222 0.950 . S
C230 C228 1.391 . S
C230 C231 1.400 . S
C231 C230 1.400 . S
C231 C232 1.398 . S
C231 C237 1.491 . S
C232 H223 0.950 . S
C232 C231 1.398 . S
C232 C233 1.391 . S
C233 H221 0.950 . S
C233 C229 1.393 . S
C233 C232 1.391 . S
C234 H224 0.950 . S
C234 C235 1.386 . S
C234 C236 1.391 . S
C235 C234 1.386 . S
C235 C239 1.393 . S
C236 H225 0.950 . S
C236 C234 1.391 . S
C236 C237 1.400 . S
C237 C231 1.491 . S
C237 C236 1.400 . S
C237 C238 1.398 . S
C238 H226 0.950 . S
C238 C237 1.398 . S
C238 C239 1.391 . S
C239 H227 0.950 . S
C239 C235 1.393 . S
C239 C238 1.391 . S
H240 C248 0.950 . S
H241 C253 0.950 . S
H242 C250 0.950 . S
H243 C252 0.950 . S
H244 C254 0.950 . S
H245 C256 0.950 . S
H246 C258 0.950 . S
H247 C259 0.950 . S
C248 H240 0.950 . S
C248 C249 1.386 1_655 S
C248 C250 1.391 . S
C249 C248 1.386 1_455 S
C249 C253 1.393 . S
C250 H242 0.950 . S
C250 C248 1.391 . S
C250 C251 1.400 1_655 S
C251 C250 1.400 1_455 S
C251 C252 1.398 . S
C251 C257 1.491 . S
C252 H243 0.950 . S
C252 C251 1.398 . S
C252 C253 1.391 . S
C253 H241 0.950 . S
C253 C249 1.393 . S
C253 C252 1.391 . S
C254 H244 0.950 . S
C254 C255 1.386 . S
C254 C256 1.391 . S
C255 C254 1.386 . S
C255 C259 1.393 1_455 S
C256 H245 0.950 . S
C256 C254 1.391 . S
C256 C257 1.400 . S
C257 C251 1.491 . S
C257 C256 1.400 . S
C257 C258 1.398 1_455 S
C258 H246 0.950 . S
C258 C257 1.398 1_655 S
C258 C259 1.391 . S
C259 H247 0.950 . S
C259 C255 1.393 1_655 S
C259 C258 1.391 . S
H260 C268 0.950 . S
H261 C273 0.950 . S
H262 C270 0.950 . S
H263 C272 0.950 . S
H264 C274 0.950 . S
H265 C276 0.950 . S
H266 C278 0.950 . S
H267 C279 0.950 . S
C268 H260 0.950 . S
C268 C269 1.386 1_565 S
C268 C270 1.391 . S
C269 C268 1.386 1_545 S
C269 C273 1.393 . S
C270 H262 0.950 . S
C270 C268 1.391 . S
C270 C271 1.400 1_565 S
C271 C270 1.400 1_545 S
C271 C272 1.398 . S
C271 C277 1.491 1_554 S
C272 H263 0.950 . S
C272 C271 1.398 . S
C272 C273 1.391 . S
C273 H261 0.950 . S
C273 C269 1.393 . S
C273 C272 1.391 . S
C274 H264 0.950 . S
C274 C275 1.386 . S
C274 C276 1.391 . S
C275 C274 1.386 . S
C275 C279 1.393 1_545 S
C276 H265 0.950 . S
C276 C274 1.391 . S
C276 C277 1.400 . S
C277 C271 1.491 1_556 S
C277 C276 1.400 . S
C277 C278 1.398 1_545 S
C278 H266 0.950 . S
C278 C277 1.398 1_565 S
C278 C279 1.391 . S
C279 H267 0.950 . S
C279 C275 1.393 1_565 S
C279 C278 1.391 . S
H280 C288 0.950 . S
H281 C293 0.950 . S
H282 C290 0.950 . S
H283 C292 0.950 . S
H284 C294 0.950 . S
H285 C296 0.950 . S
H286 C298 0.950 . S
H287 C299 0.950 . S
C288 H280 0.950 . S
C288 C289 1.386 . S
C288 C290 1.391 . S
C289 C288 1.386 . S
C289 C293 1.393 . S
C290 H282 0.950 . S
C290 C288 1.391 . S
C290 C291 1.400 . S
C291 C290 1.400 . S
C291 C292 1.398 . S
C291 C297 1.491 . S
C292 H283 0.950 . S
C292 C291 1.398 . S
C292 C293 1.391 . S
C293 H281 0.950 . S
C293 C289 1.393 . S
C293 C292 1.391 . S
C294 H284 0.950 . S
C294 C295 1.386 . S
C294 C296 1.391 . S
C295 C294 1.386 . S
C295 C299 1.393 . S
C296 H285 0.950 . S
C296 C294 1.391 . S
C296 C297 1.400 . S
C297 C291 1.491 . S
C297 C296 1.400 . S
C297 C298 1.398 . S
C298 H286 0.950 . S
C298 C297 1.398 . S
C298 C299 1.391 . S
C299 H287 0.950 . S
C299 C295 1.393 . S
C299 C298 1.391 . S
C129 C9 1.982 . S
C135 C102 1.966 . S
C149 C49 2.101 . S
C155 C3 2.087 . S
C169 C43 1.992 . S
C175 C89 1.996 . S
C189 C83 2.121 . S
C195 C26 2.071 . S
C209 C66 1.934 . S
C215 C22 1.988 . S
C229 C106 2.035 . S
C235 C62 2.081 . S
C249 C15 0.520 . S
C255 C2 0.520 . S
C269 C55 0.513 . S
C275 C42 0.513 . S
C289 C95 0.501 . S
C295 C82 0.501 . S
