# Generated by pormake.
# Topology fcj, (5)-cn, num edge types: 1
# Building blocks:
#     Node 0, Type 0, BuildingBlock: BEQFEK_clean_sbu_0, # of connection points: 5
#     Node 1, Type 0, BuildingBlock: BEQFEK_clean_sbu_0, # of connection points: 5
#     Node 2, Type 0, BuildingBlock: BEQFEK_clean_sbu_0, # of connection points: 5
#     Node 3, Type 0, BuildingBlock: BEQFEK_clean_sbu_0, # of connection points: 5
#     Node 4, Type 0, BuildingBlock: BEQFEK_clean_sbu_0, # of connection points: 5
#     Node 5, Type 0, BuildingBlock: BEQFEK_clean_sbu_0, # of connection points: 5
#     Node 6, Type 0, BuildingBlock: BEQFEK_clean_sbu_0, # of connection points: 5
#     Node 7, Type 0, BuildingBlock: BEQFEK_clean_sbu_0, # of connection points: 5
#     Node 8, Type 0, BuildingBlock: BEQFEK_clean_sbu_0, # of connection points: 5
#     Node 9, Type 0, BuildingBlock: BEQFEK_clean_sbu_0, # of connection points: 5
#     Node 10, Type 0, BuildingBlock: BEQFEK_clean_sbu_0, # of connection points: 5
#     Node 11, Type 0, BuildingBlock: BEQFEK_clean_sbu_0, # of connection points: 5
#     Node 12, Type 0, BuildingBlock: BEQFEK_clean_sbu_0, # of connection points: 5
#     Node 13, Type 0, BuildingBlock: BEQFEK_clean_sbu_0, # of connection points: 5
#     Node 14, Type 0, BuildingBlock: BEQFEK_clean_sbu_0, # of connection points: 5
#     Node 15, Type 0, BuildingBlock: BEQFEK_clean_sbu_0, # of connection points: 5
#     Node 16, Type 0, BuildingBlock: BEQFEK_clean_sbu_0, # of connection points: 5
#     Node 17, Type 0, BuildingBlock: BEQFEK_clean_sbu_0, # of connection points: 5
#     Node 18, Type 0, BuildingBlock: BEQFEK_clean_sbu_0, # of connection points: 5
#     Node 19, Type 0, BuildingBlock: BEQFEK_clean_sbu_0, # of connection points: 5
#     Node 20, Type 0, BuildingBlock: BEQFEK_clean_sbu_0, # of connection points: 5
#     Node 21, Type 0, BuildingBlock: BEQFEK_clean_sbu_0, # of connection points: 5
#     Node 22, Type 0, BuildingBlock: BEQFEK_clean_sbu_0, # of connection points: 5
#     Node 23, Type 0, BuildingBlock: BEQFEK_clean_sbu_0, # of connection points: 5
#     Edge 24, Type (0, 0), BuildingBlock: OJICUG_clean_linker_0, # of connection points: 2
#     Edge 25, Type (0, 0), BuildingBlock: OJICUG_clean_linker_0, # of connection points: 2
#     Edge 26, Type (0, 0), BuildingBlock: OJICUG_clean_linker_0, # of connection points: 2
#     Edge 27, Type (0, 0), BuildingBlock: OJICUG_clean_linker_0, # of connection points: 2
#     Edge 28, Type (0, 0), BuildingBlock: OJICUG_clean_linker_0, # of connection points: 2
#     Edge 29, Type (0, 0), BuildingBlock: OJICUG_clean_linker_0, # of connection points: 2
#     Edge 30, Type (0, 0), BuildingBlock: OJICUG_clean_linker_0, # of connection points: 2
#     Edge 31, Type (0, 0), BuildingBlock: OJICUG_clean_linker_0, # of connection points: 2
#     Edge 32, Type (0, 0), BuildingBlock: OJICUG_clean_linker_0, # of connection points: 2
#     Edge 33, Type (0, 0), BuildingBlock: OJICUG_clean_linker_0, # of connection points: 2
#     Edge 34, Type (0, 0), BuildingBlock: OJICUG_clean_linker_0, # of connection points: 2
#     Edge 35, Type (0, 0), BuildingBlock: OJICUG_clean_linker_0, # of connection points: 2
#     Edge 36, Type (0, 0), BuildingBlock: OJICUG_clean_linker_0, # of connection points: 2
#     Edge 37, Type (0, 0), BuildingBlock: OJICUG_clean_linker_0, # of connection points: 2
#     Edge 38, Type (0, 0), BuildingBlock: OJICUG_clean_linker_0, # of connection points: 2
#     Edge 39, Type (0, 0), BuildingBlock: OJICUG_clean_linker_0, # of connection points: 2
#     Edge 40, Type (0, 0), BuildingBlock: OJICUG_clean_linker_0, # of connection points: 2
#     Edge 41, Type (0, 0), BuildingBlock: OJICUG_clean_linker_0, # of connection points: 2
#     Edge 42, Type (0, 0), BuildingBlock: OJICUG_clean_linker_0, # of connection points: 2
#     Edge 43, Type (0, 0), BuildingBlock: OJICUG_clean_linker_0, # of connection points: 2
#     Edge 44, Type (0, 0), BuildingBlock: OJICUG_clean_linker_0, # of connection points: 2
#     Edge 45, Type (0, 0), BuildingBlock: OJICUG_clean_linker_0, # of connection points: 2
#     Edge 46, Type (0, 0), BuildingBlock: OJICUG_clean_linker_0, # of connection points: 2
#     Edge 47, Type (0, 0), BuildingBlock: OJICUG_clean_linker_0, # of connection points: 2
#     Edge 48, Type (0, 0), BuildingBlock: OJICUG_clean_linker_0, # of connection points: 2
#     Edge 49, Type (0, 0), BuildingBlock: OJICUG_clean_linker_0, # of connection points: 2
#     Edge 50, Type (0, 0), BuildingBlock: OJICUG_clean_linker_0, # of connection points: 2
#     Edge 51, Type (0, 0), BuildingBlock: OJICUG_clean_linker_0, # of connection points: 2
#     Edge 52, Type (0, 0), BuildingBlock: OJICUG_clean_linker_0, # of connection points: 2
#     Edge 53, Type (0, 0), BuildingBlock: OJICUG_clean_linker_0, # of connection points: 2
#     Edge 54, Type (0, 0), BuildingBlock: OJICUG_clean_linker_0, # of connection points: 2
#     Edge 55, Type (0, 0), BuildingBlock: OJICUG_clean_linker_0, # of connection points: 2
#     Edge 56, Type (0, 0), BuildingBlock: OJICUG_clean_linker_0, # of connection points: 2
#     Edge 57, Type (0, 0), BuildingBlock: OJICUG_clean_linker_0, # of connection points: 2
#     Edge 58, Type (0, 0), BuildingBlock: OJICUG_clean_linker_0, # of connection points: 2
#     Edge 59, Type (0, 0), BuildingBlock: OJICUG_clean_linker_0, # of connection points: 2
#     Edge 60, Type (0, 0), BuildingBlock: OJICUG_clean_linker_0, # of connection points: 2
#     Edge 61, Type (0, 0), BuildingBlock: OJICUG_clean_linker_0, # of connection points: 2
#     Edge 62, Type (0, 0), BuildingBlock: OJICUG_clean_linker_0, # of connection points: 2
#     Edge 63, Type (0, 0), BuildingBlock: OJICUG_clean_linker_0, # of connection points: 2
#     Edge 64, Type (0, 0), BuildingBlock: OJICUG_clean_linker_0, # of connection points: 2
#     Edge 65, Type (0, 0), BuildingBlock: OJICUG_clean_linker_0, # of connection points: 2
#     Edge 66, Type (0, 0), BuildingBlock: OJICUG_clean_linker_0, # of connection points: 2
#     Edge 67, Type (0, 0), BuildingBlock: OJICUG_clean_linker_0, # of connection points: 2
#     Edge 68, Type (0, 0), BuildingBlock: OJICUG_clean_linker_0, # of connection points: 2
#     Edge 69, Type (0, 0), BuildingBlock: OJICUG_clean_linker_0, # of connection points: 2
#     Edge 70, Type (0, 0), BuildingBlock: OJICUG_clean_linker_0, # of connection points: 2
#     Edge 71, Type (0, 0), BuildingBlock: OJICUG_clean_linker_0, # of connection points: 2
#     Edge 72, Type (0, 0), BuildingBlock: OJICUG_clean_linker_0, # of connection points: 2
#     Edge 73, Type (0, 0), BuildingBlock: OJICUG_clean_linker_0, # of connection points: 2
#     Edge 74, Type (0, 0), BuildingBlock: OJICUG_clean_linker_0, # of connection points: 2
#     Edge 75, Type (0, 0), BuildingBlock: OJICUG_clean_linker_0, # of connection points: 2
#     Edge 76, Type (0, 0), BuildingBlock: OJICUG_clean_linker_0, # of connection points: 2
#     Edge 77, Type (0, 0), BuildingBlock: OJICUG_clean_linker_0, # of connection points: 2
#     Edge 78, Type (0, 0), BuildingBlock: OJICUG_clean_linker_0, # of connection points: 2
#     Edge 79, Type (0, 0), BuildingBlock: OJICUG_clean_linker_0, # of connection points: 2
#     Edge 80, Type (0, 0), BuildingBlock: OJICUG_clean_linker_0, # of connection points: 2
#     Edge 81, Type (0, 0), BuildingBlock: OJICUG_clean_linker_0, # of connection points: 2
#     Edge 82, Type (0, 0), BuildingBlock: OJICUG_clean_linker_0, # of connection points: 2
#     Edge 83, Type (0, 0), BuildingBlock: OJICUG_clean_linker_0, # of connection points: 2
# Relax obj value: 0.321
# Max RMSD: 0.220
# Mean RMSD: 0.220
data_MOF--net-fcj--node1-BEQFEK_clean_sbu_0--edge1-OJICUG_clean_linker_0
_symmetry_space_group_name_H-M    P1
_symmetry_Int_Tables_number       1
_symmetry_cell_setting            triclinic
loop_
_symmetry_equiv_pos_as_xyz
'x, y, z'
_cell_length_a     40.194072
_cell_length_b     40.211909
_cell_length_c     40.211686
_cell_angle_alpha  90.039776
_cell_angle_beta   89.993526
_cell_angle_gamma 90.026191
loop_
_atom_site_label
_atom_site_type_symbol
_atom_site_fract_x
_atom_site_fract_y
_atom_site_fract_z
_atom_type_partial_charge
Co0 Co 0.09586 0.14818 0.31553 0.0
Co1 Co 0.05587 0.21135 0.33814 0.0
C2 C 0.02425 0.14697 0.31087 0.0
O3 O 0.05097 0.1298 0.31003 0.0
O4 O 0.02407 0.17733 0.32026 0.0
C5 C 0.1482 0.09166 0.30257 0.0
O6 O 0.13359 0.06622 0.31695 0.0
C7 C 0.00286 0.24211 0.37766 0.0
C8 C 0.02098 0.29375 0.3824 0.0
C9 C 0.99538 0.27266 0.39181 0.0
N10 N 0.03164 0.24502 0.36087 0.0
N11 N 0.04229 0.27597 0.36371 0.0
C12 C 0.98421 0.21016 0.38155 0.0
H13 H 0.96824 0.20629 0.35936 0.0
H14 H 0.00195 0.18907 0.38309 0.0
H15 H 0.96826 0.21064 0.40407 0.0
C16 C 0.12243 0.15412 0.38298 0.0
N17 N 0.10208 0.16457 0.3587 0.0
N18 N 0.08715 0.19209 0.3681 0.0
C19 C 0.09838 0.20045 0.39868 0.0
C20 C 0.12074 0.17635 0.4092 0.0
C21 C 0.14547 0.12509 0.37964 0.0
H22 H 0.13112 0.10315 0.37116 0.0
H23 H 0.15814 0.11893 0.40331 0.0
H24 H 0.16469 0.13093 0.36073 0.0
O25 O 0.09927 0.18353 0.28203 0.0
O26 O 0.07719 0.23122 0.29807 0.0
H27 H 0.09532 0.2534 0.40135 0.0
H28 H 0.1023 0.23338 0.44106 0.0
C29 C 0.08909 0.2315 0.41689 0.0
H30 H 0.06188 0.23163 0.42144 0.0
H31 H 0.06428 0.28486 0.35315 0.0
O32 O 0.13423 0.12001 0.30231 0.0
C33 C 0.09257 0.21388 0.2765 0.0
Co34 Co 0.57374 0.35543 0.05886 0.0
Co35 Co 0.53176 0.29869 0.09284 0.0
C36 C 0.59136 0.28264 0.05272 0.0
O37 O 0.59586 0.31348 0.04664 0.0
O38 O 0.56843 0.27252 0.0722 0.0
C39 C 0.62634 0.40707 0.04379 0.0
O40 O 0.64953 0.39067 0.05991 0.0
C41 C 0.50578 0.24019 0.12986 0.0
C42 C 0.45938 0.26168 0.15007 0.0
C43 C 0.47827 0.23292 0.14949 0.0
N44 N 0.50329 0.27197 0.11967 0.0
N45 N 0.47542 0.28452 0.13174 0.0
C46 C 0.53439 0.21788 0.12167 0.0
H47 H 0.53202 0.20939 0.09552 0.0
H48 H 0.55806 0.23191 0.12391 0.0
H49 H 0.53505 0.19591 0.13835 0.0
C50 C 0.57209 0.38299 0.12603 0.0
N51 N 0.56487 0.35871 0.10428 0.0
N52 N 0.5482 0.33496 0.11946 0.0
C53 C 0.54532 0.34325 0.15202 0.0
C54 C 0.56012 0.374 0.15687 0.0
C55 C 0.58946 0.41478 0.11731 0.0
H56 H 0.57828 0.42556 0.09455 0.0
H57 H 0.61606 0.40942 0.11263 0.0
H58 H 0.58806 0.43339 0.1376 0.0
O59 O 0.53264 0.35577 0.03398 0.0
O60 O 0.50363 0.31338 0.05401 0.0
H61 H 0.50172 0.32701 0.17752 0.0
H62 H 0.53816 0.32933 0.20325 0.0
C63 C 0.52893 0.32251 0.17814 0.0
H64 H 0.53374 0.29577 0.1735 0.0
H65 H 0.46734 0.30879 0.12737 0.0
O66 O 0.59705 0.39531 0.04179 0.0
C67 C 0.50739 0.33691 0.03314 0.0
Co68 Co 0.39533 0.84617 0.81397 0.0
Co69 Co 0.43543 0.78245 0.83434 0.0
C70 C 0.4666 0.84816 0.80929 0.0
O71 O 0.43991 0.86538 0.80877 0.0
O72 O 0.4666 0.81757 0.81786 0.0
C73 C 0.34559 0.90459 0.80318 0.0
O74 O 0.36609 0.92965 0.80758 0.0
C75 C 0.48919 0.75257 0.87306 0.0
C76 C 0.47337 0.70008 0.87628 0.0
C77 C 0.49803 0.72202 0.88628 0.0
N78 N 0.46056 0.74887 0.85615 0.0
N79 N 0.45125 0.71743 0.85812 0.0
C80 C 0.50645 0.78517 0.87789 0.0
H81 H 0.52202 0.79048 0.85572 0.0
H82 H 0.48782 0.80539 0.88033 0.0
H83 H 0.52263 0.78467 0.90025 0.0
C84 C 0.36955 0.83813 0.88133 0.0
N85 N 0.38988 0.82843 0.8567 0.0
N86 N 0.40384 0.80003 0.86469 0.0
C87 C 0.39157 0.79005 0.89436 0.0
C88 C 0.36971 0.81415 0.90596 0.0
C89 C 0.34787 0.86835 0.87984 0.0
H90 H 0.32618 0.86311 0.86361 0.0
H91 H 0.36214 0.88942 0.86925 0.0
H92 H 0.3385 0.87555 0.90474 0.0
O93 O 0.39174 0.81186 0.77868 0.0
O94 O 0.41462 0.76403 0.79348 0.0
H95 H 0.39359 0.73699 0.89271 0.0
H96 H 0.38455 0.7539 0.93353 0.0
C97 C 0.3992 0.75742 0.9104 0.0
H98 H 0.42609 0.75632 0.91644 0.0
H99 H 0.42969 0.70788 0.84726 0.0
O100 O 0.35616 0.87485 0.80492 0.0
C101 C 0.39902 0.78171 0.77234 0.0
Co102 Co 0.9131 0.64797 0.55909 0.0
Co103 Co 0.96703 0.69493 0.59104 0.0
C104 C 0.90326 0.72016 0.55901 0.0
O105 O 0.89087 0.69136 0.55399 0.0
O106 O 0.93178 0.72414 0.57233 0.0
C107 C 0.8588 0.59716 0.5422 0.0
O108 O 0.83474 0.61298 0.55765 0.0
C109 C 0.99333 0.7512 0.63015 0.0
C110 C 0.04213 0.73126 0.64566 0.0
C111 C 0.02152 0.75868 0.64851 0.0
N112 N 0.99693 0.72046 0.6174 0.0
N113 N 0.02627 0.70883 0.62658 0.0
C114 C 0.96311 0.77237 0.62555 0.0
H115 H 0.96254 0.78173 0.5996 0.0
H116 H 0.94043 0.75715 0.62956 0.0
H117 H 0.96308 0.79381 0.64295 0.0
C118 C 0.91684 0.61658 0.62473 0.0
N119 N 0.92618 0.64038 0.60325 0.0
N120 N 0.9488 0.65947 0.61729 0.0
C121 C 0.95429 0.6482 0.64857 0.0
C122 C 0.93415 0.62077 0.65404 0.0
C123 C 0.89258 0.5894 0.61702 0.0
H124 H 0.90129 0.57528 0.595 0.0
H125 H 0.86808 0.60062 0.6114 0.0
H126 H 0.88945 0.57188 0.63809 0.0
O127 O 0.95176 0.64866 0.52938 0.0
O128 O 0.99222 0.67886 0.55146 0.0
H129 H 0.00413 0.65668 0.66462 0.0
H130 H 0.97458 0.65269 0.69807 0.0
C131 C 0.97849 0.66283 0.67269 0.0
H132 H 0.97574 0.69025 0.67329 0.0
H133 H 0.03544 0.68552 0.61981 0.0
O134 O 0.88802 0.60924 0.54163 0.0
C135 C 0.9809 0.66078 0.52806 0.0
Co136 Co 0.59815 0.33547 0.68399 0.0
Co137 Co 0.55256 0.28125 0.65045 0.0
C138 C 0.52581 0.34187 0.68757 0.0
O139 O 0.55414 0.35544 0.69222 0.0
O140 O 0.52274 0.31399 0.67277 0.0
C141 C 0.64792 0.38983 0.70358 0.0
O142 O 0.63159 0.41416 0.68917 0.0
C143 C 0.4961 0.25757 0.61029 0.0
C144 C 0.51414 0.20823 0.59426 0.0
C145 C 0.48742 0.22981 0.59176 0.0
N146 N 0.52673 0.25272 0.62286 0.0
N147 N 0.53731 0.22314 0.61323 0.0
C148 C 0.476 0.2884 0.61555 0.0
H149 H 0.46508 0.28786 0.64089 0.0
H150 H 0.49233 0.31059 0.61377 0.0
H151 H 0.45564 0.29033 0.597 0.0
C152 C 0.62829 0.33599 0.61762 0.0
N153 N 0.60467 0.32558 0.63884 0.0
N154 N 0.58675 0.30217 0.62454 0.0
C155 C 0.5989 0.29689 0.59359 0.0
C156 C 0.6254 0.3183 0.58833 0.0
C157 C 0.65525 0.36016 0.6263 0.0
H158 H 0.66982 0.3504 0.64756 0.0
H159 H 0.64379 0.38411 0.63358 0.0
H160 H 0.6724 0.36471 0.60517 0.0
O161 O 0.60019 0.29462 0.71035 0.0
O162 O 0.57104 0.25395 0.6872 0.0
H163 H 0.59338 0.24583 0.58031 0.0
H164 H 0.59861 0.27336 0.54528 0.0
C165 C 0.58694 0.27063 0.57016 0.0
H166 H 0.55953 0.27224 0.56758 0.0
H167 H 0.56022 0.21297 0.61995 0.0
O168 O 0.63655 0.36035 0.7027 0.0
C169 C 0.58976 0.26482 0.71027 0.0
Co170 Co 0.41752 0.85249 0.43198 0.0
Co171 Co 0.47128 0.80353 0.40293 0.0
C172 C 0.40501 0.78056 0.43168 0.0
O173 O 0.39364 0.8098 0.43674 0.0
O174 O 0.43386 0.77572 0.41935 0.0
C175 C 0.36279 0.90355 0.44563 0.0
O176 O 0.33846 0.8847 0.43462 0.0
C177 C 0.49675 0.74723 0.36358 0.0
C178 C 0.54829 0.76358 0.35372 0.0
C179 C 0.52596 0.73804 0.34766 0.0
N180 N 0.5016 0.77697 0.37815 0.0
N181 N 0.53248 0.78654 0.3722 0.0
C182 C 0.46434 0.72895 0.36379 0.0
H183 H 0.44355 0.74679 0.36054 0.0
H184 H 0.46342 0.70995 0.34378 0.0
H185 H 0.46116 0.71653 0.38822 0.0
C186 C 0.42418 0.8816 0.36564 0.0
N187 N 0.43265 0.85856 0.38824 0.0
N188 N 0.45562 0.83895 0.37563 0.0
C189 C 0.46249 0.84921 0.3443 0.0
C190 C 0.44265 0.87645 0.33718 0.0
C191 C 0.39926 0.90867 0.37138 0.0
H192 H 0.40782 0.92471 0.39212 0.0
H193 H 0.37508 0.89735 0.37821 0.0
H194 H 0.39559 0.92442 0.34906 0.0
O195 O 0.45483 0.85168 0.46375 0.0
O196 O 0.49474 0.81933 0.44374 0.0
H197 H 0.51277 0.83763 0.33191 0.0
H198 H 0.48625 0.84447 0.29633 0.0
C199 C 0.48748 0.83358 0.32166 0.0
H200 H 0.48294 0.80642 0.32015 0.0
H201 H 0.54274 0.80879 0.38078 0.0
O202 O 0.39247 0.89264 0.44588 0.0
C203 C 0.48338 0.83834 0.46639 0.0
Co204 Co 0.89671 0.65916 0.18538 0.0
Co205 Co 0.94137 0.71481 0.15321 0.0
C206 C 0.96928 0.652 0.18537 0.0
O207 O 0.94098 0.63846 0.19043 0.0
O208 O 0.97201 0.68061 0.17195 0.0
C209 C 0.84724 0.60363 0.20263 0.0
O210 O 0.86299 0.58007 0.18636 0.0
C211 C 0.99537 0.74115 0.11134 0.0
C212 C 0.977 0.7918 0.10073 0.0
C213 C 0.00321 0.77028 0.09459 0.0
N214 N 0.96581 0.74528 0.12647 0.0
N215 N 0.95501 0.77562 0.12004 0.0
C216 C 0.01489 0.70951 0.1121 0.0
H217 H 0.02871 0.70804 0.13595 0.0
H218 H 0.99774 0.68791 0.1108 0.0
H219 H 0.03287 0.70837 0.09118 0.0
C220 C 0.86418 0.66248 0.11999 0.0
N221 N 0.88825 0.67194 0.1412 0.0
N222 N 0.90611 0.69569 0.12745 0.0
C223 C 0.89361 0.70207 0.09684 0.0
C224 C 0.86685 0.68103 0.09125 0.0
C225 C 0.83745 0.63783 0.12797 0.0
H226 H 0.82382 0.64603 0.15049 0.0
H227 H 0.84906 0.61337 0.13292 0.0
H228 H 0.81939 0.63492 0.10732 0.0
O229 O 0.89627 0.69804 0.21499 0.0
O230 O 0.9248 0.7396 0.19274 0.0
H231 H 0.90076 0.75324 0.08487 0.0
H232 H 0.89371 0.72688 0.0492 0.0
C233 C 0.906 0.7285 0.07387 0.0
H234 H 0.93328 0.72599 0.07066 0.0
H235 H 0.93267 0.78533 0.12902 0.0
O236 O 0.85891 0.63301 0.20336 0.0
C237 C 0.90729 0.72763 0.21624 0.0
Co238 Co 0.07838 0.14587 0.93459 0.0
Co239 Co 0.0249 0.19397 0.90386 0.0
C240 C 0.08871 0.21816 0.93638 0.0
O241 O 0.1007 0.18913 0.94095 0.0
O242 O 0.06027 0.22269 0.92307 0.0
C243 C 0.13304 0.09525 0.94975 0.0
O244 O 0.15657 0.11149 0.93394 0.0
C245 C 0.00053 0.24996 0.86359 0.0
C246 C 0.9496 0.23318 0.85155 0.0
C247 C 0.97193 0.25896 0.84651 0.0
N248 N 0.99533 0.22016 0.87785 0.0
N249 N 0.96484 0.21031 0.87057 0.0
C250 C 0.03281 0.26842 0.8651 0.0
H251 H 0.03469 0.28135 0.88941 0.0
H252 H 0.05383 0.25064 0.86323 0.0
H253 H 0.03464 0.28702 0.8448 0.0
C254 C 0.07561 0.11732 0.86738 0.0
N255 N 0.06561 0.13971 0.89009 0.0
N256 N 0.04321 0.15946 0.8767 0.0
C257 C 0.03849 0.15014 0.84469 0.0
C258 C 0.05915 0.12342 0.83788 0.0
C259 C 0.09921 0.08937 0.87424 0.0
H260 H 0.09095 0.07566 0.89666 0.0
H261 H 0.12433 0.09974 0.8788 0.0
H262 H 0.10072 0.07159 0.8532 0.0
O263 O 0.0396 0.1456 0.9642 0.0
O264 O -0.00044 0.17695 0.94309 0.0
H265 H 0.98903 0.16208 0.82963 0.0
H266 H 0.01761 0.15606 0.79551 0.0
C267 C 0.01488 0.16632 0.821 0.0
H268 H 0.01952 0.1935 0.82044 0.0
H269 H 0.95445 0.18792 0.87861 0.0
O270 O 0.10372 0.10699 0.95111 0.0
C271 C 0.01058 0.15795 0.96587 0.0
Co272 Co 0.3029 0.09743 0.16846 0.0
Co273 Co 0.33823 0.04829 0.21769 0.0
C274 C 0.30431 0.02528 0.15454 0.0
O275 O 0.29773 0.05469 0.14457 0.0
O276 O 0.31917 0.01981 0.18201 0.0
C277 C 0.28501 0.1478 0.11567 0.0
O278 O 0.30202 0.13221 0.09252 0.0
C279 C 0.38238 0.99401 0.23929 0.0
C280 C 0.39613 0.01124 0.28963 0.0
C281 C 0.40153 0.98597 0.26683 0.0
N282 N 0.36669 0.02289 0.24549 0.0
N283 N 0.37497 0.03298 0.27565 0.0
C284 C 0.38021 0.97562 0.20703 0.0
H285 H 0.35639 0.96168 0.20617 0.0
H286 H 0.38032 0.99355 0.18606 0.0
H287 H 0.40118 0.95791 0.20416 0.0
C288 C 0.36869 0.12976 0.17043 0.0
N289 N 0.34757 0.10554 0.17973 0.0
N290 N 0.36303 0.08492 0.19991 0.0
C291 C 0.39488 0.09532 0.20352 0.0
C292 C 0.39928 0.12389 0.18483 0.0
C293 C 0.35964 0.15883 0.14905 0.0
H294 H 0.3363 0.17023 0.15828 0.0
H295 H 0.35585 0.15009 0.12321 0.0
H296 H 0.37943 0.17807 0.14887 0.0
O297 O 0.27498 0.09498 0.20831 0.0
O298 O 0.29924 0.06223 0.24532 0.0
H299 H 0.41434 0.08141 0.25085 0.0
H300 H 0.44574 0.08927 0.21982 0.0
C301 C 0.42072 0.07843 0.2242 0.0
H302 H 0.42128 0.05152 0.21824 0.0
H303 H 0.36625 0.05485 0.28659 0.0
O304 O 0.28361 0.13606 0.14494 0.0
C305 C 0.27525 0.08095 0.23657 0.0
Co306 Co 0.64244 0.56057 0.91007 0.0
Co307 Co 0.6867 0.59459 0.96501 0.0
C308 C 0.71465 0.56004 0.90312 0.0
O309 O 0.68644 0.55457 0.88964 0.0
O310 O 0.71732 0.57417 0.93143 0.0
C311 C 0.59269 0.5395 0.85589 0.0
O312 O 0.60864 0.55298 0.83077 0.0
C313 C 0.74232 0.63493 0.99067 0.0
C314 C 0.72359 0.64887 0.04038 0.0
C315 C 0.75079 0.65207 0.01944 0.0
N316 N 0.71158 0.62225 0.9945 0.0
N317 N 0.70052 0.63078 0.02425 0.0
C318 C 0.76264 0.63118 0.95974 0.0
H319 H 0.77432 0.60617 0.95955 0.0
H320 H 0.74634 0.63316 0.93756 0.0
H321 H 0.78243 0.6504 0.9584 0.0
C322 C 0.61063 0.62586 0.90997 0.0
N323 N 0.63447 0.60518 0.92081 0.0
N324 N 0.65162 0.61978 0.94459 0.0
C325 C 0.6386 0.65042 0.94978 0.0
C326 C 0.61229 0.65505 0.92792 0.0
C327 C 0.58536 0.61718 0.88406 0.0
H328 H 0.56944 0.59664 0.89329 0.0
H329 H 0.5984 0.60885 0.86128 0.0
H330 H 0.56929 0.63864 0.87761 0.0
O331 O 0.64132 0.53304 0.9502 0.0
O332 O 0.66943 0.55639 0.99142 0.0
H333 H 0.64356 0.6638 0.00086 0.0
H334 H 0.63761 0.69872 0.97328 0.0
C335 C 0.64985 0.67413 0.97609 0.0
H336 H 0.67722 0.67729 0.97468 0.0
H337 H 0.67745 0.62366 0.03381 0.0
O338 O 0.60441 0.54154 0.88515 0.0
C339 C 0.65164 0.53282 0.98002 0.0
Co340 Co 0.19522 0.88843 0.68339 0.0
Co341 Co 0.15587 0.94712 0.716 0.0
C342 C 0.1977 0.95977 0.65787 0.0
O343 O 0.20578 0.9291 0.65797 0.0
O344 O 0.1762 0.9713 0.67811 0.0
C345 C 0.20925 0.83822 0.63226 0.0
O346 O 0.18845 0.85395 0.61258 0.0
C347 C 0.11595 0.00599 0.73575 0.0
C348 C 0.09072 0.98599 0.78028 0.0
C349 C 0.09348 0.01417 0.76071 0.0
N350 N 0.12573 0.97433 0.74036 0.0
N351 N 0.11053 0.9626 0.76702 0.0
C352 C 0.12724 0.02732 0.70745 0.0
H353 H 0.15356 0.03461 0.71151 0.0
H354 H 0.126 0.01289 0.68396 0.0
H355 H 0.11166 0.04996 0.70504 0.0
C356 C 0.12974 0.85644 0.68588 0.0
N357 N 0.14977 0.88274 0.69081 0.0
N358 N 0.13214 0.90804 0.70171 0.0
C359 C 0.09967 0.89901 0.70192 0.0
C360 C 0.09739 0.86591 0.69245 0.0
C361 C 0.1413 0.82275 0.67492 0.0
H362 H 0.1664 0.81753 0.685 0.0
H363 H 0.14203 0.82194 0.64738 0.0
H364 H 0.12421 0.80286 0.68331 0.0
O365 O 0.21803 0.89239 0.72535 0.0
O366 O 0.19438 0.93727 0.74724 0.0
H367 H 0.06615 0.91998 0.73731 0.0
H368 H 0.04836 0.91355 0.69693 0.0
C369 C 0.07123 0.92146 0.71025 0.0
H370 H 0.07727 0.94753 0.70358 0.0
H371 H 0.11392 0.93861 0.77629 0.0
O372 O 0.2149 0.84936 0.66128 0.0
C373 C 0.21635 0.91436 0.74791 0.0
Co374 Co 0.85308 0.43766 0.41318 0.0
Co375 Co 0.80852 0.40462 0.46812 0.0
C376 C 0.78125 0.43553 0.4043 0.0
O377 O 0.80957 0.44111 0.39112 0.0
O378 O 0.77845 0.4227 0.43315 0.0
C379 C 0.90212 0.4567 0.35847 0.0
O380 O 0.88639 0.4408 0.33464 0.0
C381 C 0.75317 0.36367 0.49241 0.0
C382 C 0.76966 0.35172 0.54338 0.0
C383 C 0.74369 0.34718 0.52117 0.0
N384 N 0.7833 0.37733 0.49744 0.0
N385 N 0.79307 0.36996 0.52792 0.0
C386 C 0.73439 0.36577 0.46036 0.0
H387 H 0.72231 0.39051 0.45857 0.0
H388 H 0.75185 0.36316 0.43914 0.0
H389 H 0.71503 0.34614 0.4588 0.0
C390 C 0.8869 0.37324 0.41663 0.0
N391 N 0.86247 0.3939 0.42621 0.0
N392 N 0.84462 0.37957 0.44961 0.0
C393 C 0.85744 0.349 0.45557 0.0
C394 C 0.88459 0.34425 0.4348 0.0
C395 C 0.91268 0.38139 0.39105 0.0
H396 H 0.92708 0.40344 0.39924 0.0
H397 H 0.90011 0.38721 0.36727 0.0
H398 H 0.93014 0.36047 0.38675 0.0
O399 O 0.85191 0.46725 0.4519 0.0
O400 O 0.82379 0.4445 0.49344 0.0
H401 H 0.84938 0.33564 0.50624 0.0
H402 H 0.85724 0.30072 0.47908 0.0
C403 C 0.84472 0.32524 0.48113 0.0
H404 H 0.8175 0.32195 0.47804 0.0
H405 H 0.81546 0.37792 0.53837 0.0
O406 O 0.89074 0.45661 0.38792 0.0
C407 C 0.84075 0.46838 0.48141 0.0
Co408 Co 0.80771 0.39833 0.8347 0.0
Co409 Co 0.83772 0.44544 0.77988 0.0
C410 C 0.80603 0.47053 0.84425 0.0
O411 O 0.80143 0.44172 0.85683 0.0
O412 O 0.81913 0.47446 0.81559 0.0
C413 C 0.79241 0.34678 0.8892 0.0
O414 O 0.80287 0.36488 0.91432 0.0
C415 C 0.87835 0.50073 0.75412 0.0
C416 C 0.88886 0.48322 0.70311 0.0
C417 C 0.89503 0.50904 0.72509 0.0
N418 N 0.86329 0.4712 0.74953 0.0
N419 N 0.86959 0.46096 0.71895 0.0
C420 C 0.87779 0.51966 0.78613 0.0
H421 H 0.85376 0.53309 0.78824 0.0
H422 H 0.87962 0.50215 0.80737 0.0
H423 H 0.89847 0.53792 0.78732 0.0
C424 C 0.8745 0.36954 0.83099 0.0
N425 N 0.8521 0.39239 0.82143 0.0
N426 N 0.86489 0.41076 0.79758 0.0
C427 C 0.89597 0.39959 0.79096 0.0
C428 C 0.90293 0.37331 0.81213 0.0
C429 C 0.86817 0.34316 0.85646 0.0
H430 H 0.84819 0.3264 0.84746 0.0
H431 H 0.86002 0.35507 0.87993 0.0
H432 H 0.89064 0.32803 0.8616 0.0
O433 O 0.77728 0.39763 0.79622 0.0
O434 O 0.79816 0.42835 0.75552 0.0
H435 H 0.90688 0.40773 0.73968 0.0
H436 H 0.94319 0.40114 0.7653 0.0
C437 C 0.9182 0.41286 0.7643 0.0
H438 H 0.92084 0.44015 0.76718 0.0
H439 H 0.86078 0.43869 0.70894 0.0
O440 O 0.79319 0.35843 0.85983 0.0
C441 C 0.77536 0.40965 0.76706 0.0
Co442 Co 0.3596 0.0565 0.57257 0.0
Co443 Co 0.30293 0.08947 0.53029 0.0
C444 C 0.28722 0.04893 0.59008 0.0
O445 O 0.31811 0.04347 0.59491 0.0
O446 O 0.27704 0.0679 0.56679 0.0
C447 C 0.41021 0.04216 0.62565 0.0
O448 O 0.39251 0.05739 0.64851 0.0
C449 C 0.24464 0.12861 0.50825 0.0
C450 C 0.26185 0.1446 0.45858 0.0
C451 C 0.2354 0.14702 0.48052 0.0
N452 N 0.27522 0.11615 0.50286 0.0
N453 N 0.2853 0.12581 0.47314 0.0
C454 C 0.22561 0.12399 0.53987 0.0
H455 H 0.24287 0.12495 0.56139 0.0
H456 H 0.20616 0.14337 0.54275 0.0
H457 H 0.21364 0.09912 0.53966 0.0
C458 C 0.3858 0.12437 0.57197 0.0
N459 N 0.36206 0.10213 0.56436 0.0
N460 N 0.33855 0.11673 0.5469 0.0
C461 C 0.3466 0.14928 0.54346 0.0
C462 C 0.37675 0.15488 0.55921 0.0
C463 C 0.41754 0.11627 0.58971 0.0
H464 H 0.42909 0.09393 0.57842 0.0
H465 H 0.4119 0.11107 0.61616 0.0
H466 H 0.43564 0.13707 0.58882 0.0
O467 O 0.36073 0.03194 0.5311 0.0
O468 O 0.31872 0.05168 0.50135 0.0
H469 H 0.32975 0.17038 0.49783 0.0
H470 H 0.33478 0.2001 0.53097 0.0
C471 C 0.32653 0.17445 0.52491 0.0
H472 H 0.29982 0.17166 0.53116 0.0
H473 H 0.30827 0.11951 0.46279 0.0
O474 O 0.3995 0.04023 0.59599 0.0
C475 C 0.34258 0.0312 0.50533 0.0
Co476 Co 0.68938 0.59504 0.33445 0.0
Co477 Co 0.65742 0.54868 0.28039 0.0
C478 C 0.6896 0.52322 0.34421 0.0
O479 O 0.69448 0.55189 0.35689 0.0
O480 O 0.67653 0.51954 0.31556 0.0
C481 C 0.70661 0.6454 0.38864 0.0
O482 O 0.69111 0.62946 0.41257 0.0
C483 C 0.61652 0.49269 0.25718 0.0
C484 C 0.60237 0.50961 0.20689 0.0
C485 C 0.59827 0.48383 0.22935 0.0
N486 N 0.63045 0.52259 0.25159 0.0
N487 N 0.62198 0.53249 0.22143 0.0
C488 C 0.61993 0.4736 0.28889 0.0
H489 H 0.64515 0.46244 0.29003 0.0
H490 H 0.61718 0.4907 0.31038 0.0
H491 H 0.60106 0.4535 0.29058 0.0
C492 C 0.6238 0.62676 0.33094 0.0
N493 N 0.64516 0.60279 0.32172 0.0
N494 N 0.63132 0.5842 0.29858 0.0
C495 C 0.60041 0.59611 0.29242 0.0
C496 C 0.59483 0.62329 0.31287 0.0
C497 C 0.63158 0.65382 0.35531 0.0
H498 H 0.6536 0.66796 0.34661 0.0
H499 H 0.63727 0.64249 0.37973 0.0
H500 H 0.61053 0.67135 0.35855 0.0
O501 O 0.71878 0.59445 0.29547 0.0
O502 O 0.69663 0.56485 0.25461 0.0
H503 H 0.58719 0.58777 0.24173 0.0
H504 H 0.55211 0.59442 0.26893 0.0
C505 C 0.57702 0.58268 0.26684 0.0
H506 H 0.57451 0.5554 0.26992 0.0
H507 H 0.6297 0.55485 0.21075 0.0
O508 O 0.7071 0.63358 0.35934 0.0
C509 C 0.72004 0.58282 0.26613 0.0
Co510 Co 0.14343 0.93693 0.08011 0.0
Co511 Co 0.18979 0.90539 0.02567 0.0
C512 C 0.21565 0.93718 0.08954 0.0
O513 O 0.1869 0.94206 0.10209 0.0
O514 O 0.21949 0.92417 0.06084 0.0
C515 C 0.09336 0.95374 0.13479 0.0
O516 O 0.10942 0.93799 0.15846 0.0
C517 C 0.24389 0.86255 0.00157 0.0
C518 C 0.22854 0.8538 0.94957 0.0
C519 C 0.25317 0.84635 0.97251 0.0
N520 N 0.21515 0.8787 0.99596 0.0
N521 N 0.20607 0.87329 0.96486 0.0
C522 C 0.26104 0.86168 0.03456 0.0
H523 H 0.27623 0.88456 0.03747 0.0
H524 H 0.24231 0.86124 0.05484 0.0
H525 H 0.2775 0.83962 0.03661 0.0
C526 C 0.11199 0.87119 0.07627 0.0
N527 N 0.13578 0.89279 0.06711 0.0
N528 N 0.15439 0.87922 0.04385 0.0
C529 C 0.14268 0.84829 0.03747 0.0
C530 C 0.11561 0.84237 0.05799 0.0
C531 C 0.08511 0.87856 0.10095 0.0
H532 H 0.0708 0.90059 0.09262 0.0
H533 H 0.09663 0.88409 0.12533 0.0
H534 H 0.0677 0.85738 0.10408 0.0
O535 O 0.14349 0.96644 0.0413 0.0
O536 O 0.17337 0.94475 0.00041 0.0
H537 H 0.15265 0.83658 0.98668 0.0
H538 H 0.14355 0.8008 0.01229 0.0
C539 C 0.15623 0.82532 0.01158 0.0
H540 H 0.18328 0.82175 0.01564 0.0
H541 H 0.18462 0.88309 0.95404 0.0
O542 O 0.105 0.95447 0.10542 0.0
C543 C 0.15512 0.96789 0.01198 0.0
Co544 Co 0.1549 0.30732 0.10104 0.0
Co545 Co 0.21201 0.3372 0.05685 0.0
C546 C 0.14915 0.30557 0.02861 0.0
O547 O 0.13511 0.30119 0.05671 0.0
O548 O 0.17811 0.31824 0.02608 0.0
C549 C 0.12488 0.26215 0.14475 0.0
O550 O 0.13828 0.24127 0.12346 0.0
C551 C 0.23866 0.37674 0.00182 0.0
C552 C 0.28935 0.38812 0.01973 0.0
C553 C 0.26779 0.39305 0.99332 0.0
N554 N 0.24277 0.36293 0.03197 0.0
N555 N 0.27311 0.36983 0.04255 0.0
C556 C 0.20708 0.37513 0.98222 0.0
H557 H 0.20526 0.35043 0.97002 0.0
H558 H 0.18544 0.37797 -0.00088 0.0
H559 H 0.20634 0.39479 0.96287 0.0
C560 C 0.1568 0.37359 0.13013 0.0
N561 N 0.16748 0.35149 0.10754 0.0
N562 N 0.19235 0.36427 0.09057 0.0
C563 C 0.19861 0.3951 0.1025 0.0
C564 C 0.17609 0.40191 0.12773 0.0
C565 C 0.13047 0.36646 0.15551 0.0
H566 H 0.10844 0.35536 0.14314 0.0
H567 H 0.1228 0.38926 0.16904 0.0
H568 H 0.14023 0.3482 0.17373 0.0
O569 O 0.1937 0.27746 0.10389 0.0
O570 O 0.23594 0.29812 0.07516 0.0
H571 H 0.25049 0.4051 0.09744 0.0
H572 H 0.22523 0.44181 0.10333 0.0
C573 C 0.22642 0.41702 0.0912 0.0
H574 H 0.22516 0.42018 0.06384 0.0
H575 H 0.28282 0.36178 0.06523 0.0
O576 O 0.12581 0.29303 0.13831 0.0
C577 C 0.22346 0.27549 0.09341 0.0
Co578 Co 0.6703 0.18825 0.88666 0.0
Co579 Co 0.71424 0.15602 0.94241 0.0
C580 C 0.65243 0.1933 0.95901 0.0
O581 O 0.64692 0.19895 0.92827 0.0
O582 O 0.67693 0.17557 0.96859 0.0
C583 C 0.61729 0.20183 0.8355 0.0
O584 O 0.59433 0.1861 0.85264 0.0
C585 C 0.73751 0.11686 3e-05 0.0
C586 C 0.78706 0.10131 0.98198 0.0
C587 C 0.76535 0.09835 0.00855 0.0
N588 N 0.7425 0.12982 0.96961 0.0
N589 N 0.7722 0.12051 0.95907 0.0
C590 C 0.70614 0.12105 0.01959 0.0
H591 H 0.70581 0.14627 0.0308 0.0
H592 H 0.68434 0.11893 0.00281 0.0
H593 H 0.70423 0.10218 0.03964 0.0
C594 C 0.67378 0.12105 0.85903 0.0
N595 N 0.68077 0.14317 0.88306 0.0
N596 N 0.69875 0.12879 0.9063 0.0
C597 C 0.70308 0.09644 0.89783 0.0
C598 C 0.68747 0.09082 0.86763 0.0
C599 C 0.6552 0.1289 0.82772 0.0
H600 H 0.66569 0.1516 0.81614 0.0
H601 H 0.62874 0.13335 0.83391 0.0
H602 H 0.65631 0.10826 0.80945 0.0
O603 O 0.71044 0.21504 0.88669 0.0
O604 O 0.74163 0.19531 0.9276 0.0
H605 H 0.74896 0.07567 0.91445 0.0
H606 H 0.71607 0.0457 0.90942 0.0
C607 C 0.72191 0.07138 0.91775 0.0
H608 H 0.71569 0.07399 0.94448 0.0
H609 H 0.78223 0.12718 0.93608 0.0
O610 O 0.6467 0.20421 0.84679 0.0
C611 C 0.73634 0.21645 0.90461 0.0
Co612 Co 0.56319 0.90938 0.64632 0.0
Co613 Co 0.59536 0.96402 0.69254 0.0
C614 C 0.55989 0.90224 0.71868 0.0
O615 O 0.55519 0.88901 0.69018 0.0
O616 O 0.57419 0.93036 0.72201 0.0
C617 C 0.54474 0.85523 0.59538 0.0
O618 O 0.55871 0.83051 0.6115 0.0
C619 C 0.63542 0.9882 0.7488 0.0
C620 C 0.6501 0.03804 0.73098 0.0
C621 C 0.65353 0.01624 0.75742 0.0
N622 N 0.62222 0.99307 0.71845 0.0
N623 N 0.63101 0.02296 0.70802 0.0
C624 C 0.63133 0.95699 0.76857 0.0
H625 H 0.60614 0.95669 0.77987 0.0
H626 H 0.63346 0.93506 0.75193 0.0
H627 H 0.65024 0.95532 0.78862 0.0
C628 C 0.63003 0.90996 0.61737 0.0
N629 N 0.6082 0.92023 0.64045 0.0
N630 N 0.62187 0.94387 0.65856 0.0
C631 C 0.65301 0.94949 0.64704 0.0
C632 C 0.65903 0.92803 0.62078 0.0
C633 C 0.6223 0.88527 0.59059 0.0
H634 H 0.60157 0.89478 0.57508 0.0
H635 H 0.61454 0.86157 0.60223 0.0
H636 H 0.64404 0.88039 0.57432 0.0
O637 O 0.53595 0.94968 0.64426 0.0
O638 O 0.55797 0.99049 0.67404 0.0
H639 H 0.66544 0.00068 0.65326 0.0
H640 H 0.70096 0.97376 0.64797 0.0
C641 C 0.67595 0.97597 0.65947 0.0
H642 H 0.67835 0.97408 0.68686 0.0
H643 H 0.62378 0.03314 0.68528 0.0
O644 O 0.54552 0.88449 0.60735 0.0
C645 C 0.53531 0.97937 0.65497 0.0
Co646 Co 0.83414 0.80676 0.39481 0.0
Co647 Co 0.77866 0.83768 0.44024 0.0
C648 C 0.84302 0.80743 0.46679 0.0
O649 O 0.85629 0.80256 0.43836 0.0
O650 O 0.81399 0.81983 0.46985 0.0
C651 C 0.88857 0.79014 0.34412 0.0
O652 O 0.91244 0.80624 0.35959 0.0
C653 C 0.75458 0.87922 0.49494 0.0
C654 C 0.70278 0.88906 0.47953 0.0
C655 C 0.72573 0.89548 0.50443 0.0
N656 N 0.74896 0.86401 0.4657 0.0
N657 N 0.71797 0.87003 0.45659 0.0
C658 C 0.78731 0.87896 0.51263 0.0
H659 H 0.79014 0.85499 0.526 0.0
H660 H 0.80786 0.88104 0.49432 0.0
H661 H 0.78899 0.89968 0.53082 0.0
C662 C 0.82928 0.87223 0.3629 0.0
N663 N 0.82026 0.85058 0.38667 0.0
N664 N 0.79647 0.86379 0.40487 0.0
C665 C 0.78961 0.89449 0.39294 0.0
C666 C 0.81035 0.90066 0.36615 0.0
C667 C 0.85444 0.86523 0.33637 0.0
H668 H 0.87871 0.85991 0.34823 0.0
H669 H 0.85761 0.88651 0.31912 0.0
H670 H 0.84653 0.84316 0.32184 0.0
O671 O 0.7959 0.77637 0.39557 0.0
O672 O 0.75409 0.79784 0.42432 0.0
H673 H 0.73848 0.90548 0.40194 0.0
H674 H 0.7638 0.94163 0.3935 0.0
C675 C 0.76317 0.91707 0.40608 0.0
H676 H 0.76667 0.92064 0.4332 0.0
H677 H 0.70713 0.86089 0.43485 0.0
O678 O 0.85942 0.78927 0.35631 0.0
C679 C 0.76646 0.7745 0.40689 0.0
Co680 Co 0.93375 0.08357 0.14527 0.0
Co681 Co 0.90299 0.02797 0.19097 0.0
C682 C 0.93435 0.0915 0.21786 0.0
O683 O 0.93942 0.10464 0.18937 0.0
O684 O 0.92118 0.0628 0.22099 0.0
C685 C 0.94972 0.13857 0.09451 0.0
O686 O 0.93471 0.16268 0.11067 0.0
C687 C 0.86201 0.00145 0.2453 0.0
C688 C 0.85188 0.95054 0.22727 0.0
C689 C 0.84559 0.9722 0.25333 0.0
N690 N 0.87711 0.99726 0.21576 0.0
N691 N 0.87097 0.96677 0.20514 0.0
C692 C 0.86231 0.03332 0.26449 0.0
H693 H 0.86046 0.05469 0.24713 0.0
H694 H 0.84148 0.03427 0.28259 0.0
H695 H 0.88623 0.03545 0.27811 0.0
C696 C 0.86695 0.08063 0.11575 0.0
N697 N 0.88939 0.07046 0.13831 0.0
N698 N 0.87623 0.04676 0.15665 0.0
C699 C 0.84478 0.04112 0.14604 0.0
C700 C 0.838 0.06266 0.12007 0.0
C701 C 0.87368 0.10581 0.0892 0.0
H702 H 0.89528 0.09767 0.07412 0.0
H703 H 0.87965 0.12994 0.10106 0.0
H704 H 0.85207 0.10933 0.07243 0.0
O705 O 0.96376 0.04506 0.14437 0.0
O706 O 0.94254 0.00366 0.17382 0.0
H707 H 0.83224 0.99031 0.15478 0.0
H708 H 0.79673 0.01709 0.1485 0.0
C709 C 0.82185 0.01534 0.15986 0.0
H710 H 0.81971 0.01854 0.18716 0.0
H711 H 0.87989 0.95706 0.18278 0.0
O712 O 0.95034 0.10935 0.10652 0.0
C713 C 0.96553 0.01563 0.15567 0.0
Co714 Co 0.34472 0.68882 0.5943 0.0
Co715 Co 0.28547 0.65685 0.55407 0.0
C716 C 0.34525 0.69162 0.52199 0.0
O717 O 0.36094 0.6964 0.54912 0.0
O718 O 0.31662 0.67788 0.52116 0.0
C719 C 0.37222 0.7356 0.63832 0.0
O720 O 0.35671 0.75581 0.61787 0.0
C721 C 0.25734 0.61535 0.50086 0.0
C722 C 0.20718 0.60456 0.52048 0.0
C723 C 0.22779 0.59909 0.49339 0.0
N724 N 0.25425 0.62971 0.53091 0.0
N725 N 0.22423 0.62307 0.54253 0.0
C726 C 0.28833 0.61669 0.48032 0.0
H727 H 0.28896 0.64053 0.46646 0.0
H728 H 0.31052 0.61576 0.49672 0.0
H729 H 0.28919 0.59578 0.46229 0.0
C730 C 0.34669 0.62355 0.62403 0.0
N731 N 0.33489 0.64408 0.60066 0.0
N732 N 0.30848 0.63082 0.58663 0.0
C733 C 0.30205 0.60149 0.60178 0.0
C734 C 0.32595 0.59621 0.62622 0.0
C735 C 0.37533 0.6317 0.64643 0.0
H736 H 0.39526 0.64422 0.63204 0.0
H737 H 0.3855 0.60889 0.65819 0.0
H738 H 0.36675 0.64883 0.66631 0.0
O739 O 0.30437 0.71557 0.60059 0.0
O740 O 0.26067 0.69407 0.57493 0.0
H741 H 0.24924 0.59624 0.6032 0.0
H742 H 0.27165 0.55806 0.61105 0.0
C743 C 0.27133 0.5813 0.59617 0.0
H744 H 0.26928 0.57494 0.56941 0.0
H745 H 0.21517 0.63169 0.56528 0.0
O746 O 0.37424 0.70499 0.63072 0.0
C747 C 0.27374 0.71645 0.59307 0.0
Co748 Co 0.06036 0.58897 0.34954 0.0
Co749 Co 0.09215 0.5331 0.30516 0.0
C750 C 0.0604 0.59613 0.27711 0.0
O751 O 0.05545 0.60982 0.30534 0.0
O752 O 0.07359 0.56739 0.2745 0.0
C753 C 0.04298 0.64404 0.39971 0.0
O754 O 0.05873 0.66817 0.38433 0.0
C755 C 0.13179 0.50521 0.25045 0.0
C756 C 0.1427 0.45492 0.26963 0.0
C757 C 0.1476 0.4756 0.24252 0.0
N758 N 0.11827 0.50214 0.28087 0.0
N759 N 0.12493 0.47204 0.2922 0.0
C760 C 0.13011 0.53621 0.23 0.0
H761 H 0.13291 0.55832 0.24629 0.0
H762 H 0.14978 0.53646 0.21062 0.0
H763 H 0.10538 0.53765 0.21781 0.0
C764 C 0.12573 0.58533 0.38206 0.0
N765 N 0.10446 0.57589 0.35804 0.0
N766 N 0.11813 0.55207 0.34023 0.0
C767 C 0.14877 0.54564 0.35266 0.0
C768 C 0.1544 0.56665 0.37942 0.0
C769 C 0.11807 0.61046 0.40842 0.0
H770 H 0.09598 0.60226 0.42276 0.0
H771 H 0.1125 0.63459 0.39643 0.0
H772 H 0.13914 0.61401 0.42588 0.0
O773 O 0.03036 0.5504 0.34995 0.0
O774 O 0.05262 0.50863 0.3218 0.0
H775 H 0.16119 0.49451 0.34613 0.0
H776 H 0.1967 0.52139 0.35184 0.0
C777 C 0.17176 0.51926 0.34016 0.0
H778 H 0.17429 0.5213 0.31278 0.0
H779 H 0.11687 0.46302 0.31516 0.0
O780 O 0.04267 0.61488 0.38751 0.0
C781 C 0.02907 0.52078 0.33908 0.0
Co782 Co 0.43505 0.40693 0.85295 0.0
Co783 Co 0.40221 0.46019 0.80579 0.0
C784 C 0.43464 0.39717 0.78008 0.0
O785 O 0.44076 0.38534 0.80893 0.0
O786 O 0.42006 0.42506 0.7761 0.0
C787 C 0.45132 0.35167 0.90317 0.0
O788 O 0.44001 0.32684 0.88518 0.0
C789 C 0.37048 0.49588 0.74946 0.0
C790 C 0.34366 0.53518 0.77694 0.0
C791 C 0.34883 0.52269 0.7452 0.0
N792 N 0.3763 0.49216 0.78222 0.0
N793 N 0.36082 0.51621 0.79831 0.0
C794 C 0.38926 0.47732 0.72319 0.0
H795 H 0.41312 0.46798 0.73322 0.0
H796 H 0.37417 0.45589 0.71454 0.0
H797 H 0.39502 0.49365 0.70174 0.0
C798 C 0.36962 0.4105 0.88475 0.0
N799 N 0.39076 0.41986 0.8606 0.0
N800 N 0.37575 0.44104 0.84065 0.0
C801 C 0.34387 0.44468 0.85117 0.0
C802 C 0.33945 0.42582 0.87955 0.0
C803 C 0.3782 0.38781 0.91297 0.0
H804 H 0.40002 0.39784 0.92652 0.0
H805 H 0.38439 0.36295 0.90287 0.0
H806 H 0.35732 0.38493 0.93077 0.0
O807 O 0.46492 0.44536 0.85354 0.0
O808 O 0.44229 0.48455 0.82219 0.0
H809 H 0.31672 0.48967 0.84348 0.0
H810 H 0.29241 0.4527 0.83902 0.0
C811 C 0.31715 0.46384 0.83384 0.0
H812 H 0.32142 0.46393 0.80663 0.0
H813 H 0.36242 0.51997 0.82394 0.0
O814 O 0.45068 0.38114 0.8918 0.0
C815 C 0.46573 0.47419 0.84075 0.0
C816 C 0.20187 0.18962 0.45093 0.0
C817 C 0.20286 0.16156 0.47172 0.0
H818 H 0.17359 0.21721 0.41521 0.0
C819 C 0.17335 0.14388 0.47789 0.0
H820 H 0.22431 0.20366 0.44584 0.0
C821 C 0.14432 0.15186 0.46052 0.0
C822 C 0.1446 0.17747 0.43686 0.0
H823 H 0.17344 0.12177 0.4932 0.0
H824 H 0.12284 0.13573 0.46281 0.0
C825 C 0.17284 0.19761 0.43368 0.0
C826 C 0.54124 0.42327 0.18772 0.0
C827 C 0.56172 0.39507 0.18664 0.0
H828 H 0.53731 0.47433 0.2024 0.0
C829 C 0.59045 0.39394 0.20636 0.0
H830 H 0.51933 0.42475 0.17209 0.0
C831 C 0.60066 0.4222 0.22388 0.0
C832 C 0.58238 0.45184 0.22134 0.0
H833 H 0.60688 0.37262 0.20519 0.0
H834 H 0.62461 0.4219 0.23622 0.0
C835 C 0.55172 0.45168 0.20468 0.0
C836 C 0.34484 0.83432 0.95848 0.0
C837 C 0.34414 0.81169 0.93195 0.0
H838 H 0.31609 0.86351 0.99228 0.0
C839 C 0.31442 0.79516 0.92428 0.0
H840 H 0.36747 0.84782 0.96419 0.0
C841 C 0.28489 0.80424 0.94015 0.0
C842 C 0.28483 0.82972 0.96407 0.0
H843 H 0.31334 0.77802 0.9035 0.0
H844 H 0.26172 0.79331 0.93174 0.0
C845 C 0.31532 0.84335 0.97447 0.0
C846 C 0.8967 0.57107 0.72215 0.0
C847 C 0.912 0.54027 0.71601 0.0
H848 H 0.89282 0.62211 0.70715 0.0
C849 C 0.94023 0.53901 0.69549 0.0
H850 H 0.87453 0.5726 0.73737 0.0
C851 C 0.95099 0.56744 0.67876 0.0
C852 C 0.93335 0.59731 0.682 0.0
H853 H 0.95236 0.5155 0.69036 0.0
H854 H 0.9707 0.56517 0.66051 0.0
C855 C 0.90725 0.59945 0.70504 0.0
C856 C 0.6817 0.35119 0.52277 0.0
C857 C 0.71088 0.33342 0.53016 0.0
H858 H 0.63053 0.35944 0.53547 0.0
C859 C 0.70905 0.30578 0.55138 0.0
H860 H 0.68251 0.37311 0.50717 0.0
C861 C 0.67917 0.29777 0.56717 0.0
C862 C 0.65092 0.31757 0.56222 0.0
H863 H 0.73126 0.29183 0.55758 0.0
H864 H 0.67901 0.27825 0.58574 0.0
C865 C 0.65189 0.34337 0.53885 0.0
C866 C 0.40471 0.92403 0.26861 0.0
C867 C 0.4197 0.95506 0.27439 0.0
H868 H 0.4016 0.87313 0.28409 0.0
C869 C 0.44863 0.9567 0.29389 0.0
H870 H 0.38205 0.92216 0.25417 0.0
C871 C 0.46004 0.92852 0.31056 0.0
C872 C 0.44238 0.89856 0.3082 0.0
H873 H 0.46059 0.98038 0.29867 0.0
H874 H 0.48004 0.93117 0.32844 0.0
C875 C 0.41599 0.89588 0.28556 0.0
C876 C 0.84183 0.65514 0.04133 0.0
C877 C 0.84209 0.68132 0.06436 0.0
H878 H 0.81236 0.6252 0.00873 0.0
C879 C 0.81382 0.70138 0.06787 0.0
H880 H 0.86318 0.63885 0.03905 0.0
C881 C 0.78459 0.69344 0.05083 0.0
C882 C 0.78339 0.66553 0.02983 0.0
H883 H 0.81338 0.7212 0.08614 0.0
H884 H 0.76229 0.70773 0.05583 0.0
C885 C 0.81268 0.64734 0.02404 0.0
C886 C 0.04832 0.04858 0.78516 0.0
C887 C 0.0799 0.04689 0.77025 0.0
H888 H 0.01621 0.07585 0.81787 0.0
C889 C 0.10079 0.07487 0.77132 0.0
H890 H 0.03186 0.02723 0.78476 0.0
C891 C 0.09171 0.10263 0.79014 0.0
C892 C 0.06169 0.10271 0.80791 0.0
H893 H 0.12555 0.07402 0.76078 0.0
H894 H 0.10966 0.12244 0.7937 0.0
C895 C 0.0392 0.07644 0.8038 0.0
C896 C 0.43144 0.17283 0.2033 0.0
C897 C 0.4285 0.14562 0.18176 0.0
H898 H 0.45025 0.22224 0.20976 0.0
C899 C 0.44724 0.14482 0.15234 0.0
H900 H 0.41654 0.17412 0.22572 0.0
C901 C 0.46658 0.17224 0.14319 0.0
C902 C 0.46697 0.20085 0.16323 0.0
H903 H 0.44453 0.12431 0.13507 0.0
H904 H 0.47846 0.17222 0.11902 0.0
C905 C 0.45044 0.20037 0.19401 0.0
C906 C 0.55558 0.67355 0.94156 0.0
C907 C 0.58651 0.68092 0.92721 0.0
H908 H 0.50287 0.68102 0.93945 0.0
C909 C 0.5888 0.70647 0.90362 0.0
H910 H 0.55326 0.65333 0.95922 0.0
C911 C 0.55999 0.72236 0.89227 0.0
C912 C 0.52863 0.71248 0.90417 0.0
H913 H 0.61234 0.71179 0.89161 0.0
H914 H 0.56205 0.73995 0.87201 0.0
C915 C 0.52678 0.68903 0.92993 0.0
C916 C 0.06374 0.81685 0.70766 0.0
C917 C 0.06794 0.84484 0.68733 0.0
H918 H 0.04552 0.76689 0.71076 0.0
C919 C 0.05052 0.84692 0.65718 0.0
H920 H 0.07737 0.81472 0.73082 0.0
C921 C 0.032 0.81971 0.64584 0.0
C922 C 0.03121 0.79018 0.66443 0.0
H923 H 0.05396 0.86814 0.64095 0.0
H924 H 0.02122 0.82061 0.62117 0.0
C925 C 0.04583 0.78948 0.69609 0.0
C926 C 0.93351 0.27487 0.39826 0.0
C927 C 0.96534 0.28315 0.41012 0.0
H928 H 0.88173 0.28792 0.39795 0.0
C929 C 0.96838 0.3062 0.43616 0.0
H930 H 0.93053 0.25763 0.37778 0.0
C931 C 0.94042 0.32297 0.44805 0.0
C932 C 0.90915 0.31723 0.43373 0.0
H933 H 0.99268 0.31298 0.44568 0.0
H934 H 0.94376 0.3429 0.4659 0.0
C935 C 0.90554 0.292 0.40991 0.0
C936 C 0.97056 0.32108 0.8466 0.0
C937 C 0.96338 0.29086 0.83057 0.0
H938 H 0.95696 0.37235 0.85218 0.0
C939 C 0.94238 0.29092 0.80267 0.0
H940 H 0.9861 0.32167 0.86858 0.0
C941 C 0.92614 0.32004 0.79306 0.0
C942 C 0.93044 0.34931 0.81149 0.0
H943 H 0.93645 0.2679 0.78996 0.0
H944 H 0.90746 0.31877 0.77367 0.0
C945 C 0.95404 0.35017 0.83715 0.0
C946 C 0.39764 0.20482 0.5882 0.0
C947 C 0.39791 0.18463 0.55977 0.0
H948 H 0.42638 0.23575 0.62067 0.0
C949 C 0.42534 0.18563 0.53825 0.0
H950 H 0.37697 0.20367 0.60547 0.0
C951 C 0.45383 0.20334 0.54722 0.0
C952 C 0.45491 0.22071 0.57748 0.0
H953 H 0.4262 0.16961 0.51659 0.0
H954 H 0.47591 0.20118 0.53192 0.0
C955 C 0.42598 0.22299 0.59694 0.0
C956 C 0.54397 0.64685 0.33812 0.0
C957 C 0.5677 0.64773 0.31258 0.0
H958 H 0.51161 0.67532 0.36937 0.0
C959 C 0.57231 0.6771 0.29443 0.0
H960 H 0.54082 0.62458 0.35295 0.0
C961 C 0.55611 0.70623 0.3041 0.0
C962 C 0.5348 0.70619 0.33175 0.0
H963 H 0.59111 0.67837 0.27515 0.0
H964 H 0.56222 0.7293 0.29159 0.0
C965 C 0.52742 0.67594 0.34758 0.0
C966 C 0.03347 0.8014 0.05059 0.0
C967 C 0.03456 0.78007 0.0782 0.0
H968 H 0.05985 0.83723 0.02129 0.0
C969 C 0.0653 0.77362 0.09354 0.0
H970 H 0.01003 0.80683 0.03845 0.0
C971 C 0.09376 0.79098 0.08362 0.0
C972 C 0.09179 0.81467 0.05814 0.0
H973 H 0.06675 0.75787 0.11531 0.0
H974 H 0.11637 0.78845 0.09808 0.0
C975 C 0.06198 0.81847 0.0405 0.0
C976 C 0.14374 0.47066 0.18074 0.0
C977 C 0.16123 0.46448 0.21036 0.0
H978 H 0.13553 0.45545 0.13027 0.0
C979 C 0.18831 0.44243 0.20991 0.0
H980 H 0.12224 0.48685 0.18055 0.0
C981 C 0.19603 0.42478 0.18103 0.0
C982 C 0.17655 0.42875 0.15244 0.0
H983 H 0.20201 0.43715 0.2325 0.0
H984 H 0.21516 0.40582 0.18197 0.0
C985 C 0.15131 0.45275 0.15195 0.0
C986 C 0.65901 0.04038 0.84726 0.0
C987 C 0.68705 0.06112 0.84641 0.0
H988 H 0.62636 0.00911 0.81909 0.0
C989 C 0.70789 0.0607 0.81847 0.0
H990 H 0.64225 0.04106 0.86836 0.0
C991 C 0.69851 0.04307 0.79008 0.0
C992 C 0.66852 0.0252 0.78961 0.0
H993 H 0.72924 0.07713 0.81718 0.0
H994 H 0.71321 0.04569 0.76764 0.0
C995 C 0.64987 0.02229 0.819 0.0
C996 C 0.68037 0.94754 0.56693 0.0
C997 C 0.68564 0.92889 0.59587 0.0
H998 H 0.68944 0.95128 0.51459 0.0
C999 C 0.70956 0.90357 0.59595 0.0
H1000 H 0.66142 0.9667 0.56634 0.0
C1001 C 0.7256 0.89473 0.56643 0.0
C1002 C 0.71754 0.91098 0.53658 0.0
H1003 H 0.71322 0.88841 0.61791 0.0
H1004 H 0.74152 0.87302 0.56642 0.0
C1005 C 0.69608 0.93848 0.53735 0.0
C1006 C 0.80203 0.94083 0.28387 0.0
C1007 C 0.82938 0.96254 0.28474 0.0
H1008 H 0.77331 0.90478 0.31059 0.0
C1009 C 0.84476 0.96948 0.31534 0.0
H1010 H 0.78987 0.93505 0.26053 0.0
C1011 C 0.8352 0.9522 0.34393 0.0
C1012 C 0.81005 0.92812 0.34218 0.0
H1013 H 0.86635 0.98554 0.3166 0.0
H1014 H 0.8497 0.95512 0.36645 0.0
C1015 C 0.79229 0.92384 0.3125 0.0
C1016 C 0.78792 0.09103 0.09866 0.0
C1017 C 0.80942 0.0636 0.09742 0.0
H1018 H 0.75642 0.12366 0.07087 0.0
C1019 C 0.81035 0.0437 0.06886 0.0
H1020 H 0.78758 0.10707 0.12032 0.0
C1021 C 0.79296 0.05336 0.04045 0.0
C1022 C 0.77418 0.0828 0.0405 0.0
H1023 H 0.82735 0.02284 0.06733 0.0
H1024 H 0.79641 0.03937 0.01767 0.0
C1025 C 0.77021 0.10053 0.07032 0.0
C1026 C 0.33623 0.52272 0.68326 0.0
C1027 C 0.33692 0.53904 0.7143 0.0
H1028 H 0.33242 0.52845 0.63016 0.0
C1029 C 0.32703 0.57253 0.71583 0.0
H1030 H 0.34117 0.4964 0.68122 0.0
C1031 C 0.32026 0.59014 0.68692 0.0
C1032 C 0.32369 0.57487 0.65581 0.0
H1033 H 0.32619 0.58585 0.73923 0.0
H1034 H 0.31455 0.61642 0.68877 0.0
C1035 C 0.33026 0.54073 0.65404 0.0
C1036 C 0.20566 0.59153 0.40269 0.0
C1037 C 0.18141 0.56651 0.40402 0.0
H1038 H 0.23969 0.62164 0.43031 0.0
C1039 C 0.17701 0.54841 0.43345 0.0
H1040 H 0.20865 0.60635 0.3804 0.0
C1041 C 0.19446 0.5573 0.46214 0.0
C1042 C 0.21673 0.58422 0.46166 0.0
H1043 H 0.1578 0.52956 0.43509 0.0
H1044 H 0.18882 0.54464 0.48525 0.0
C1045 C 0.22335 0.60027 0.43133 0.0
C1046 C 0.27199 0.39006 0.9315 0.0
C1047 C 0.27744 0.4077 0.96119 0.0
H1048 H 0.2876 0.38287 0.88098 0.0
C1049 C 0.29754 0.43621 0.96075 0.0
H1050 H 0.25713 0.3676 0.93137 0.0
C1051 C 0.31437 0.44522 0.9318 0.0
C1052 C 0.31167 0.4255 0.90318 0.0
H1053 H 0.30216 0.45006 0.98341 0.0
H1054 H 0.33219 0.46544 0.9328 0.0
C1055 C 0.28924 0.39884 0.90263 0.0
C1056 C 0.10187 0.27216 0.20231 0.0
C1057 C 0.1145 0.25026 0.17802 0.0
H1058 H 0.08505 0.27804 0.25276 0.0
C1059 C 0.11981 0.21689 0.18659 0.0
H1060 H 0.0977 0.29812 0.19651 0.0
C1061 C 0.1132 0.20566 0.21863 0.0
C1062 C 0.10072 0.22736 0.24312 0.0
H1063 H 0.1297 0.19935 0.16868 0.0
H1064 H 0.11781 0.17968 0.22404 0.0
C1065 C 0.09487 0.26076 0.23457 0.0
C1066 C 0.46365 0.31536 0.95303 0.0
C1067 C 0.46149 0.34702 0.93831 0.0
H1068 H 0.47925 0.28722 0.99575 0.0
C1069 C 0.46935 0.37515 0.95761 0.0
H1070 H 0.45735 0.29326 0.93898 0.0
C1071 C 0.48127 0.37172 0.98988 0.0
C1072 C 0.4856 0.34011 0.00386 0.0
H1073 H 0.46739 0.40003 0.94749 0.0
H1074 H 0.48887 0.39384 0.00331 0.0
C1075 C 0.47562 0.31193 0.98568 0.0
C1076 C 0.40061 0.73639 0.7287 0.0
C1077 C 0.39175 0.76881 0.73847 0.0
H1078 H 0.40183 0.70042 0.68921 0.0
C1079 C 0.37762 0.79018 0.71464 0.0
H1080 H 0.4118 0.71937 0.74631 0.0
C1081 C 0.37248 0.7796 0.68204 0.0
C1082 C 0.38103 0.7472 0.67223 0.0
H1083 H 0.37065 0.81541 0.72101 0.0
H1084 H 0.36124 0.79682 0.66466 0.0
C1085 C 0.39519 0.72564 0.69591 0.0
C1086 C 0.00656 0.62447 0.44572 0.0
C1087 C 0.02812 0.64889 0.43305 0.0
H1088 H 0.97544 0.60888 0.48575 0.0
C1089 C 0.03612 0.67646 0.45308 0.0
H1090 H -2e-05 0.6028 0.43111 0.0
C1091 C 0.02229 0.67967 0.48501 0.0
C1092 C -2e-05 0.65557 0.49708 0.0
H1093 H 0.053 0.69545 0.44414 0.0
H1094 H 0.02807 0.70152 0.49968 0.0
C1095 C 0.99259 0.62784 0.47719 0.0
C1096 C 0.58056 0.20856 0.78506 0.0
C1097 C 0.61035 0.21549 0.80208 0.0
H1098 H 0.55088 0.2182 0.7416 0.0
C1099 C 0.63435 0.23574 0.78672 0.0
H1100 H 0.56178 0.19273 0.79611 0.0
C1101 C 0.6282 0.25002 0.75587 0.0
C1102 C 0.59804 0.24421 0.73936 0.0
H1103 H 0.65772 0.2414 0.7989 0.0
H1104 H 0.64673 0.26654 0.74535 0.0
C1105 C 0.57452 0.2227 0.75373 0.0
C1106 C 0.53733 0.82241 0.54234 0.0
C1107 C 0.52998 0.85046 0.56193 0.0
H1108 H 0.52901 0.79689 0.49607 0.0
C1109 C 0.50899 0.87514 0.54883 0.0
H1110 H 0.55371 0.80316 0.55162 0.0
C1111 C 0.49496 0.87156 0.51735 0.0
C1112 C 0.50184 0.84342 0.49784 0.0
H1113 H 0.50291 0.89716 0.56314 0.0
H1114 H 0.4783 0.89077 0.50842 0.0
C1115 C 0.52356 0.81904 0.51041 0.0
C1116 C 0.9211 0.78392 0.29079 0.0
C1117 C 0.89384 0.77517 0.3109 0.0
H1118 H 0.94638 0.77636 0.24425 0.0
C1119 C 0.87018 0.75262 0.29846 0.0
H1120 H 0.9395 0.80155 0.29956 0.0
C1121 C 0.87404 0.73843 0.26713 0.0
C1122 C 0.90147 0.74663 0.24715 0.0
H1123 H 0.84877 0.74544 0.31317 0.0
H1124 H 0.8557 0.72054 0.25874 0.0
C1125 C 0.92477 0.76991 0.259 0.0
C1126 C 0.96991 0.1762 0.0099 0.0
C1127 C 0.9914 0.15195 0.99668 0.0
H1128 H 0.94029 0.19146 0.05176 0.0
C1129 C -0.00192 0.12329 0.01541 0.0
H1130 H 0.96467 0.19875 0.99615 0.0
C1131 C 0.98437 0.11919 0.04693 0.0
C1132 C 0.96381 0.14381 0.06085 0.0
H1133 H 0.01459 0.10419 0.00595 0.0
H1134 H 0.99049 0.09684 0.06067 0.0
C1135 C 0.95638 0.17225 0.04188 0.0
C1136 C 0.22563 0.11328 0.25389 0.0
C1137 C 0.24529 0.0847 0.25757 0.0
H1138 H 0.17998 0.13771 0.26489 0.0
C1139 C 0.23354 0.05855 0.27762 0.0
H1140 H 0.23398 0.13384 0.23858 0.0
C1141 C 0.20195 0.06051 0.2925 0.0
C1142 C 0.18191 0.08881 0.28782 0.0
H1143 H 0.24805 0.03605 0.28055 0.0
H1144 H 0.19311 0.03978 0.30724 0.0
C1145 C 0.19451 0.11538 0.26889 0.0
C1146 C 0.61486 0.48522 0.99324 0.0
C1147 C 0.64403 0.50311 0.00014 0.0
H1148 H 0.58663 0.44117 0.00138 0.0
C1149 C 0.66716 0.48991 0.02278 0.0
H1150 H 0.5966 0.49477 0.97587 0.0
C1151 C 0.66171 0.45855 0.03715 0.0
C1152 C 0.63285 0.4403 0.02937 0.0
H1153 H 0.69004 0.50308 0.0282 0.0
H1154 H 0.68014 0.44852 0.05402 0.0
C1155 C 0.60925 0.45435 0.00778 0.0
C1156 C 0.26454 0.94358 0.77391 0.0
C1157 C 0.2442 0.9152 0.77164 0.0
H1158 H 0.31322 0.96257 0.78549 0.0
C1159 C 0.25576 0.88499 0.7845 0.0
H1160 H 0.25633 0.96704 0.76355 0.0
C1161 C 0.28808 0.88233 0.79666 0.0
C1162 C 0.30978 0.9098 0.79595 0.0
H1163 H 0.24062 0.86274 0.7828 0.0
H1164 H 0.29659 0.85811 0.80482 0.0
C1165 C 0.29723 0.94089 0.78601 0.0
C1166 C 0.82243 0.51186 0.52265 0.0
C1167 C 0.84629 0.49942 0.50029 0.0
H1168 H 0.80715 0.55316 0.55305 0.0
C1169 C 0.87415 0.519 0.49259 0.0
H1170 H 0.8005 0.4974 0.52866 0.0
C1171 C 0.87788 0.55056 0.50627 0.0
C1172 C 0.85367 0.56364 0.52782 0.0
H1173 H 0.89293 0.51013 0.4754 0.0
H1174 H 0.89963 0.56494 0.49943 0.0
C1175 C 0.82599 0.5439 0.53617 0.0
C1176 C 0.73205 0.42738 0.72551 0.0
C1177 C 0.74442 0.40367 0.74805 0.0
H1178 H 0.69127 0.44209 0.69421 0.0
C1179 C 0.72508 0.37551 0.75525 0.0
H1180 H 0.74628 0.44954 0.71981 0.0
C1181 C 0.69392 0.37126 0.7407 0.0
C1182 C 0.68098 0.3953 0.71889 0.0
H1183 H 0.73388 0.35684 0.77257 0.0
H1184 H 0.6797 0.34925 0.74703 0.0
C1185 C 0.70042 0.42336 0.71124 0.0
C1186 C 0.38424 0.95827 0.46543 0.0
C1187 C 0.35692 0.93839 0.45627 0.0
H1188 H 0.40094 0.00374 0.48723 0.0
C1189 C 0.32474 0.95202 0.45824 0.0
H1190 H 0.40947 0.94896 0.46368 0.0
C1191 C 0.31996 0.98406 0.47135 0.0
C1192 C 0.34729 0.0027 0.48275 0.0
H1193 H 0.30323 0.9375 0.451 0.0
H1194 H 0.29484 0.99321 0.47473 0.0
C1195 C 0.37946 0.98991 0.47859 0.0
C1196 C 0.80125 0.62145 0.24002 0.0
C1197 C 0.81419 0.59776 0.21783 0.0
H1198 H 0.76132 0.63549 0.27201 0.0
C1199 C 0.7947 0.56984 0.20965 0.0
H1200 H 0.81543 0.64336 0.24677 0.0
C1201 C 0.76306 0.56558 0.2239 0.0
C1202 C 0.75074 0.58897 0.24683 0.0
H1203 H 0.80385 0.55137 0.1923 0.0
H1204 H 0.74881 0.54351 0.21791 0.0
C1205 C 0.77008 0.61704 0.25442 0.0
C1206 C 0.17204 0.0114 0.97024 0.0
C1207 C 0.14858 -0.00152 0.99275 0.0
H1208 H 0.18599 0.05276 0.93933 0.0
C1209 C 0.12002 0.01716 7e-05 0.0
H1210 H 0.19447 -0.00235 0.96447 0.0
C1211 C 0.11524 0.04834 0.98593 0.0
C1212 C 0.13905 0.06196 0.96427 0.0
H1213 H 0.1015 0.00789 0.01733 0.0
H1214 H 0.09299 0.06204 0.99255 0.0
C1215 C 0.16741 0.04307 0.95625 0.0
C1216 C 0.2801 0.2008 0.08265 0.0
C1217 C 0.27004 0.18081 0.10951 0.0
H1218 H 0.27388 0.2472 0.05691 0.0
C1219 C 0.24632 0.19327 0.13196 0.0
H1220 H 0.29866 0.19201 0.06521 0.0
C1221 C 0.23233 0.22458 0.1273 0.0
C1222 C 0.24194 0.24449 0.10028 0.0
H1223 H 0.23813 0.17861 0.15302 0.0
H1224 H 0.21353 0.23302 0.14469 0.0
C1225 C 0.26631 0.23254 0.0782 0.0
C1226 C 0.78134 0.29636 0.92515 0.0
C1227 C 0.78196 0.31168 0.89369 0.0
H1228 H 0.76709 0.25317 0.95332 0.0
C1229 C 0.77216 0.29306 0.86572 0.0
H1230 H 0.78912 0.30987 0.94712 0.0
C1231 C 0.75998 0.26087 0.86924 0.0
C1232 C 0.75746 0.24621 0.90077 0.0
H1233 H 0.77277 0.3037 0.84098 0.0
H1234 H 0.751 0.24794 0.84734 0.0
C1235 C 0.76924 0.26376 0.92865 0.0
C1236 C 0.46013 0.03542 0.66307 0.0
C1237 C 0.44347 0.02837 0.63311 0.0
H1238 H 0.50326 0.026 0.69329 0.0
C1239 C 0.45907 0.00788 0.60946 0.0
H1240 H 0.44888 0.05144 0.68158 0.0
C1241 C 0.48982 0.99356 0.6161 0.0
C1242 C 0.50602 -0.00039 0.64638 0.0
H1243 H 0.44714 0.00209 0.586 0.0
H1244 H 0.50055 0.97693 0.59779 0.0
C1245 C 0.49138 0.02128 0.66958 0.0
C1246 C 0.71208 0.69871 0.42131 0.0
C1247 C 0.72102 0.67882 0.39394 0.0
H1248 H 0.71883 0.74542 0.44652 0.0
C1249 C 0.74306 0.69175 0.37009 0.0
H1250 H 0.69482 0.68954 0.43984 0.0
C1251 C 0.75654 0.72338 0.37383 0.0
C1252 C 0.74814 0.74316 0.40133 0.0
H1253 H 0.75035 0.67721 0.3486 0.0
H1254 H 0.77404 0.73218 0.35531 0.0
C1255 C 0.7254 0.7308 0.42486 0.0
C1256 C 0.00887 0.97376 0.17253 0.0
C1257 C 0.99647 0.99683 0.14936 0.0
H1258 H 0.04985 0.94242 0.18661 0.0
C1259 C 0.01587 0.00496 0.12152 0.0
H1260 H 0.99457 0.96736 0.19444 0.0
C1261 C 0.04718 0.9909 0.1171 0.0
C1262 C 0.06018 0.96856 0.14061 0.0
H1263 H 0.00704 0.0227 0.10326 0.0
H1264 H 0.06145 -0.00198 0.09537 0.0
C1265 C 0.04065 0.95989 0.1683 0.0
C1266 C 0.22747 0.75788 0.58592 0.0
C1267 C 0.25444 0.74551 0.60438 0.0
H1268 H 0.19223 0.79756 0.57986 0.0
C1269 C 0.26552 0.76329 0.63234 0.0
H1270 H 0.21866 0.74478 0.56408 0.0
C1271 C 0.25061 0.79318 0.64126 0.0
C1272 C 0.2244 0.80628 0.62229 0.0
H1273 H 0.28622 0.75436 0.64711 0.0
H1274 H 0.26014 0.80632 0.66278 0.0
C1275 C 0.21267 0.78822 0.5947 0.0
C1276 C 0.97786 0.51035 0.37197 0.0
C1277 C -0.00186 0.50182 0.34487 0.0
H1278 H 0.93181 0.50306 0.39718 0.0
C1279 C 0.98675 0.47796 0.32194 0.0
H1280 H 0.9859 0.52871 0.39001 0.0
C1281 C 0.95516 0.46355 0.32572 0.0
C1282 C 0.93485 0.47246 0.35276 0.0
H1283 H 0.00174 0.47125 0.30058 0.0
H1284 H 0.94678 0.44536 0.3077 0.0
C1285 C 0.94675 0.49573 0.37597 0.0
C1286 C 0.53983 0.53001 0.8234 0.0
C1287 C 0.5596 0.52391 0.85158 0.0
H1288 H 0.49377 0.51973 0.7982 0.0
C1289 C 0.547 0.50342 0.87694 0.0
H1290 H 0.54873 0.54602 0.80365 0.0
C1291 C 0.51588 0.48855 0.87386 0.0
C1292 C 0.49626 0.49409 0.84554 0.0
H1293 H 0.56147 0.49831 0.89909 0.0
H1294 H 0.50737 0.47219 0.89351 0.0
C1295 C 0.50823 0.51539 0.82051 0.0
C1296 C 0.95475 0.14124 0.24901 0.0
C1297 C 0.95004 0.10674 0.24726 0.0
H1298 H 0.98125 0.18124 0.27199 0.0
C1299 C 0.96546 0.08618 0.27099 0.0
H1300 H 0.94311 0.15756 0.23102 0.0
C1301 C 0.98806 0.09954 0.29375 0.0
C1302 C 0.99463 0.13377 0.29386 0.0
H1303 H 0.96237 0.05942 0.2701 0.0
H1304 H 0.00179 0.08293 0.30992 0.0
C1305 C 0.97646 0.15472 0.27255 0.0
C1306 C 0.61027 0.26748 0.99657 0.0
C1307 C 0.60746 0.25868 0.03019 0.0
H1308 H 0.6253 0.25336 0.94795 0.0
C1309 C 0.61754 0.22682 0.04041 0.0
H1310 H 0.60195 0.29156 0.98779 0.0
C1311 C 0.6317 0.20471 0.01729 0.0
C1312 C 0.63445 0.21382 0.98358 0.0
H1313 H 0.61506 0.21936 0.06616 0.0
H1314 H 0.64054 0.18069 0.02568 0.0
C1315 C 0.62314 0.24525 0.97356 0.0
C1316 C 0.52589 0.90888 0.76983 0.0
C1317 C 0.54282 0.8878 0.74762 0.0
H1318 H 0.48772 0.91275 0.80692 0.0
C1319 C 0.5386 0.85333 0.75022 0.0
H1320 H 0.52862 0.93564 0.76817 0.0
C1321 C 0.51604 0.84023 0.77312 0.0
C1322 C 0.49651 0.86153 0.7929 0.0
H1323 H 0.55142 0.83664 0.73337 0.0
H1324 H 0.51186 0.81361 0.77322 0.0
C1325 C 0.50245 0.89587 0.79194 0.0
C1326 C 0.90768 0.76982 0.52285 0.0
C1327 C 0.88774 0.74871 0.54235 0.0
H1328 H 0.90896 0.80495 0.48273 0.0
C1329 C 0.85304 0.75141 0.54054 0.0
H1330 H 0.93456 0.7679 0.5236 0.0
C1331 C 0.83848 0.77344 0.51801 0.0
C1332 C 0.85846 0.79204 0.49612 0.0
H1333 H 0.83725 0.73523 0.55521 0.0
H1334 H 0.81162 0.77371 0.51574 0.0
C1335 C 0.89314 0.7909 0.49941 0.0
C1336 C 0.45554 0.34771 0.74874 0.0
C1337 C 0.45145 0.38224 0.75119 0.0
H1338 H 0.48169 0.30775 0.72512 0.0
C1339 C 0.46852 0.40313 0.72889 0.0
H1340 H 0.44283 0.33119 0.76582 0.0
C1341 C 0.49158 0.3899 0.70655 0.0
C1342 C 0.49691 0.35552 0.70529 0.0
H1343 H 0.46614 0.42991 0.73059 0.0
H1344 H 0.5063 0.40659 0.69135 0.0
C1345 C 0.47767 0.33439 0.72546 0.0
C1346 C 0.39206 0.70458 0.48393 0.0
C1347 C 0.35828 0.70753 0.4919 0.0
H1348 H 0.43311 0.72477 0.45697 0.0
C1349 C 0.33855 0.73084 0.47499 0.0
H1350 H 0.40765 0.68681 0.49685 0.0
C1351 C 0.35324 0.75339 0.45298 0.0
C1352 C 0.38761 0.75212 0.44692 0.0
H1353 H 0.31244 0.73366 0.48109 0.0
H1354 H 0.33817 0.77302 0.44237 0.0
C1355 C 0.40651 0.7263 0.46107 0.0
C1356 C 0.01954 0.65853 0.22064 0.0
C1357 C -0.0014 0.63762 0.20193 0.0
H1358 H 0.05554 0.66163 0.25994 0.0
C1359 C 0.00247 0.60307 0.20431 0.0
H1360 H 0.01678 0.68531 0.21948 0.0
C1361 C 0.0255 0.58962 0.22658 0.0
C1362 C 0.04401 0.61052 0.2477 0.0
H1363 H 0.98649 0.58652 0.19026 0.0
H1364 H 0.02666 0.56284 0.22931 0.0
C1365 C 0.04163 0.64508 0.24384 0.0
C1366 C 0.15421 0.26989 0.97856 0.0
C1367 C 0.13425 0.28987 -0.00082 0.0
H1368 H 0.15517 0.23067 0.94237 0.0
C1369 C 0.09969 0.28998 0.9947 0.0
H1370 H 0.18096 0.26923 0.98182 0.0
C1371 C 0.0851 0.26883 0.97134 0.0
C1372 C 0.10482 0.2464 0.95312 0.0
H1373 H 0.0839 0.30514 0.01043 0.0
H1374 H 0.05821 0.268 0.96968 0.0
C1375 C 0.13954 0.24782 0.95609 0.0
C1376 C 0.26474 0.97439 0.0867 0.0
C1377 C 0.24434 0.95319 0.10559 0.0
H1378 H 0.29972 0.01473 0.08769 0.0
C1379 C 0.24797 0.95235 0.14023 0.0
H1380 H 0.26203 0.97572 0.05992 0.0
C1381 C 0.27039 0.97377 0.15594 0.0
C1382 C 0.28843 0.99721 0.13728 0.0
H1383 H 0.2323 0.93635 0.15522 0.0
H1384 H 0.27146 0.97394 0.18286 0.0
C1385 C 0.28618 0.99674 0.10249 0.0
C1386 C 0.7864 0.50115 0.89465 0.0
C1387 C 0.78954 0.4992 0.85997 0.0
H1388 H 0.76079 0.52354 0.93566 0.0
C1389 C 0.77177 0.52167 0.83991 0.0
H1390 H 0.79975 0.48401 0.91056 0.0
C1391 C 0.74868 0.54339 0.85411 0.0
C1392 C 0.74405 0.54386 0.88863 0.0
H1393 H 0.77352 0.52046 0.81304 0.0
H1394 H 0.73325 0.55854 0.83805 0.0
C1395 C 0.76423 0.5238 0.90893 0.0
C1396 C 0.23059 0.03755 0.61496 0.0
C1397 C 0.26327 0.02744 0.60767 0.0
H1398 H 0.18377 0.02402 0.63728 0.0
C1399 C 0.27305 0.99483 0.61524 0.0
H1400 H 0.22237 0.06248 0.60893 0.0
C1401 C 0.25097 0.97278 0.62993 0.0
C1402 C 0.21859 0.98285 0.63832 0.0
H1403 H 0.29783 0.98602 0.60929 0.0
H1404 H 0.25982 0.94799 0.63566 0.0
C1405 C 0.20852 0.01554 0.63083 0.0
C1406 C 0.72511 0.47305 0.33981 0.0
C1407 C 0.70594 0.49447 0.35974 0.0
H1408 H 0.76491 0.43753 0.33854 0.0
C1409 C 0.70773 0.49177 0.39443 0.0
H1410 H 0.72435 0.47492 0.31294 0.0
C1411 C 0.73006 0.46953 0.40899 0.0
C1412 C 0.75174 0.4507 0.38901 0.0
H1413 H 0.69327 0.50815 0.41021 0.0
H1414 H 0.73243 0.46932 0.43583 0.0
C1415 C 0.74835 0.45175 0.35435 0.0
loop_
_geom_bond_atom_site_label_1
_geom_bond_atom_site_label_2
_geom_bond_distance
_geom_bond_site_symmetry_2
_ccdc_geom_bond_type
Co0 O3 1.970 . S
Co0 N17 1.989 . S
Co0 O25 1.967 . S
Co0 O32 1.920 . S
Co1 O4 1.966 . S
Co1 N10 2.022 . S
Co1 N18 1.993 . S
Co1 O26 1.941 . S
C2 O3 1.258 . S
C2 O4 1.263 . S
O3 Co0 1.970 . S
O3 C2 1.258 . S
O4 Co1 1.966 . S
O4 C2 1.263 . S
C5 O6 1.235 . S
C5 O32 1.289 . S
O6 C5 1.235 . S
C7 C9 1.400 . S
C7 N10 1.354 1_655 S
C7 C12 1.499 . S
C8 C9 1.387 1_455 S
C8 N11 1.341 . S
C9 C7 1.400 . S
C9 C8 1.387 1_655 S
N10 Co1 2.022 . S
N10 C7 1.354 1_455 S
N10 N11 1.365 . S
N11 C8 1.341 . S
N11 N10 1.365 . S
N11 H31 0.862 . S
C12 C7 1.499 . S
C12 H13 0.961 . S
C12 H14 0.961 . S
C12 H15 0.960 . S
H13 C12 0.961 . S
H14 C12 0.961 . S
H15 C12 0.960 . S
C16 N17 1.342 . S
C16 C20 1.401 . S
C16 C21 1.499 . S
N17 Co0 1.989 . S
N17 C16 1.342 . S
N17 N18 1.388 . S
N18 Co1 1.993 . S
N18 N17 1.388 . S
N18 C19 1.346 . S
C19 N18 1.346 . S
C19 C20 1.396 . S
C19 C29 1.510 . S
C20 C16 1.401 . S
C20 C19 1.396 . S
C21 C16 1.499 . S
C21 H22 0.959 . S
C21 H23 0.960 . S
C21 H24 0.961 . S
H22 C21 0.959 . S
H23 C21 0.960 . S
H24 C21 0.961 . S
O25 Co0 1.967 . S
O25 C33 1.258 . S
O26 Co1 1.941 . S
O26 C33 1.266 . S
H27 C29 0.959 . S
H28 C29 0.961 . S
C29 C19 1.510 . S
C29 H27 0.959 . S
C29 H28 0.961 . S
C29 H30 0.960 . S
H30 C29 0.960 . S
H31 N11 0.862 . S
O32 Co0 1.920 . S
O32 C5 1.289 . S
C33 O25 1.258 . S
C33 O26 1.266 . S
Co34 O37 1.970 . S
Co34 N51 1.989 . S
Co34 O59 1.967 . S
Co34 O66 1.920 . S
Co35 O38 1.966 . S
Co35 N44 2.022 . S
Co35 N52 1.993 . S
Co35 O60 1.941 . S
C36 O37 1.258 . S
C36 O38 1.263 . S
O37 Co34 1.970 . S
O37 C36 1.258 . S
O38 Co35 1.966 . S
O38 C36 1.263 . S
C39 O40 1.235 . S
C39 O66 1.289 . S
O40 C39 1.235 . S
C41 C43 1.400 . S
C41 N44 1.351 . S
C41 C46 1.501 . S
C42 C43 1.387 . S
C42 N45 1.341 . S
C43 C41 1.400 . S
C43 C42 1.387 . S
N44 Co35 2.022 . S
N44 C41 1.351 . S
N44 N45 1.365 . S
N45 C42 1.341 . S
N45 N44 1.365 . S
N45 H65 0.862 . S
C46 C41 1.501 . S
C46 H47 0.961 . S
C46 H48 0.961 . S
C46 H49 0.960 . S
H47 C46 0.961 . S
H48 C46 0.961 . S
H49 C46 0.960 . S
C50 N51 1.342 . S
C50 C54 1.401 . S
C50 C55 1.499 . S
N51 Co34 1.989 . S
N51 C50 1.342 . S
N51 N52 1.388 . S
N52 Co35 1.993 . S
N52 N51 1.388 . S
N52 C53 1.346 . S
C53 N52 1.346 . S
C53 C54 1.396 . S
C53 C63 1.510 . S
C54 C50 1.401 . S
C54 C53 1.396 . S
C55 C50 1.499 . S
C55 H56 0.959 . S
C55 H57 0.960 . S
C55 H58 0.961 . S
H56 C55 0.959 . S
H57 C55 0.960 . S
H58 C55 0.961 . S
O59 Co34 1.967 . S
O59 C67 1.258 . S
O60 Co35 1.941 . S
O60 C67 1.266 . S
H61 C63 0.959 . S
H62 C63 0.961 . S
C63 C53 1.510 . S
C63 H61 0.959 . S
C63 H62 0.961 . S
C63 H64 0.960 . S
H64 C63 0.960 . S
H65 N45 0.862 . S
O66 Co34 1.920 . S
O66 C39 1.289 . S
C67 O59 1.258 . S
C67 O60 1.266 . S
Co68 O71 1.970 . S
Co68 N85 1.989 . S
Co68 O93 1.967 . S
Co68 O100 1.920 . S
Co69 O72 1.966 . S
Co69 N78 2.022 . S
Co69 N86 1.993 . S
Co69 O94 1.941 . S
C70 O71 1.258 . S
C70 O72 1.263 . S
O71 Co68 1.970 . S
O71 C70 1.258 . S
O72 Co69 1.966 . S
O72 C70 1.263 . S
C73 O74 1.235 . S
C73 O100 1.289 . S
O74 C73 1.235 . S
C75 C77 1.400 . S
C75 N78 1.351 . S
C75 C80 1.501 . S
C76 C77 1.387 . S
C76 N79 1.341 . S
C77 C75 1.400 . S
C77 C76 1.387 . S
N78 Co69 2.022 . S
N78 C75 1.351 . S
N78 N79 1.365 . S
N79 C76 1.341 . S
N79 N78 1.365 . S
N79 H99 0.862 . S
C80 C75 1.501 . S
C80 H81 0.961 . S
C80 H82 0.961 . S
C80 H83 0.960 . S
H81 C80 0.961 . S
H82 C80 0.961 . S
H83 C80 0.960 . S
C84 N85 1.342 . S
C84 C88 1.401 . S
C84 C89 1.499 . S
N85 Co68 1.989 . S
N85 C84 1.342 . S
N85 N86 1.388 . S
N86 Co69 1.993 . S
N86 N85 1.388 . S
N86 C87 1.346 . S
C87 N86 1.346 . S
C87 C88 1.396 . S
C87 C97 1.510 . S
C88 C84 1.401 . S
C88 C87 1.396 . S
C89 C84 1.499 . S
C89 H90 0.959 . S
C89 H91 0.960 . S
C89 H92 0.961 . S
H90 C89 0.959 . S
H91 C89 0.960 . S
H92 C89 0.961 . S
O93 Co68 1.967 . S
O93 C101 1.258 . S
O94 Co69 1.941 . S
O94 C101 1.266 . S
H95 C97 0.959 . S
H96 C97 0.961 . S
C97 C87 1.510 . S
C97 H95 0.959 . S
C97 H96 0.961 . S
C97 H98 0.960 . S
H98 C97 0.960 . S
H99 N79 0.862 . S
O100 Co68 1.920 . S
O100 C73 1.289 . S
C101 O93 1.258 . S
C101 O94 1.266 . S
Co102 O105 1.970 . S
Co102 N119 1.989 . S
Co102 O127 1.967 . S
Co102 O134 1.920 . S
Co103 O106 1.966 . S
Co103 N112 2.022 . S
Co103 N120 1.993 . S
Co103 O128 1.941 . S
C104 O105 1.258 . S
C104 O106 1.263 . S
O105 Co102 1.970 . S
O105 C104 1.258 . S
O106 Co103 1.966 . S
O106 C104 1.263 . S
C107 O108 1.235 . S
C107 O134 1.289 . S
O108 C107 1.235 . S
C109 C111 1.390 1_655 S
C109 N112 1.351 . S
C109 C114 1.501 . S
C110 C111 1.399 . S
C110 N113 1.341 . S
C111 C109 1.390 1_455 S
C111 C110 1.399 . S
N112 Co103 2.022 . S
N112 C109 1.351 . S
N112 N113 1.365 1_655 S
N113 C110 1.341 . S
N113 N112 1.365 1_455 S
N113 H133 0.862 . S
C114 C109 1.501 . S
C114 H115 0.961 . S
C114 H116 0.961 . S
C114 H117 0.960 . S
H115 C114 0.961 . S
H116 C114 0.961 . S
H117 C114 0.960 . S
C118 N119 1.342 . S
C118 C122 1.401 . S
C118 C123 1.499 . S
N119 Co102 1.989 . S
N119 C118 1.342 . S
N119 N120 1.388 . S
N120 Co103 1.993 . S
N120 N119 1.388 . S
N120 C121 1.346 . S
C121 N120 1.346 . S
C121 C122 1.396 . S
C121 C131 1.510 . S
C122 C118 1.401 . S
C122 C121 1.396 . S
C123 C118 1.499 . S
C123 H124 0.959 . S
C123 H125 0.960 . S
C123 H126 0.961 . S
H124 C123 0.959 . S
H125 C123 0.960 . S
H126 C123 0.961 . S
O127 Co102 1.967 . S
O127 C135 1.258 . S
O128 Co103 1.941 . S
O128 C135 1.266 . S
H129 C131 0.959 . S
H130 C131 0.961 . S
C131 C121 1.510 . S
C131 H129 0.959 . S
C131 H130 0.961 . S
C131 H132 0.960 . S
H132 C131 0.960 . S
H133 N113 0.862 . S
O134 Co102 1.920 . S
O134 C107 1.289 . S
C135 O127 1.258 . S
C135 O128 1.266 . S
Co136 O139 1.970 . S
Co136 N153 1.989 . S
Co136 O161 1.967 . S
Co136 O168 1.920 . S
Co137 O140 1.966 . S
Co137 N146 2.022 . S
Co137 N154 1.993 . S
Co137 O162 1.941 . S
C138 O139 1.258 . S
C138 O140 1.263 . S
O139 Co136 1.970 . S
O139 C138 1.258 . S
O140 Co137 1.966 . S
O140 C138 1.263 . S
C141 O142 1.235 . S
C141 O168 1.289 . S
O142 C141 1.235 . S
C143 C145 1.400 . S
C143 N146 1.351 . S
C143 C148 1.501 . S
C144 C145 1.387 . S
C144 N147 1.341 . S
C145 C143 1.400 . S
C145 C144 1.387 . S
N146 Co137 2.022 . S
N146 C143 1.351 . S
N146 N147 1.365 . S
N147 C144 1.341 . S
N147 N146 1.365 . S
N147 H167 0.862 . S
C148 C143 1.501 . S
C148 H149 0.961 . S
C148 H150 0.961 . S
C148 H151 0.960 . S
H149 C148 0.961 . S
H150 C148 0.961 . S
H151 C148 0.960 . S
C152 N153 1.342 . S
C152 C156 1.401 . S
C152 C157 1.499 . S
N153 Co136 1.989 . S
N153 C152 1.342 . S
N153 N154 1.388 . S
N154 Co137 1.993 . S
N154 N153 1.388 . S
N154 C155 1.346 . S
C155 N154 1.346 . S
C155 C156 1.396 . S
C155 C165 1.510 . S
C156 C152 1.401 . S
C156 C155 1.396 . S
C157 C152 1.499 . S
C157 H158 0.959 . S
C157 H159 0.960 . S
C157 H160 0.961 . S
H158 C157 0.959 . S
H159 C157 0.960 . S
H160 C157 0.961 . S
O161 Co136 1.967 . S
O161 C169 1.258 . S
O162 Co137 1.941 . S
O162 C169 1.266 . S
H163 C165 0.959 . S
H164 C165 0.961 . S
C165 C155 1.510 . S
C165 H163 0.959 . S
C165 H164 0.961 . S
C165 H166 0.960 . S
H166 C165 0.960 . S
H167 N147 0.862 . S
O168 Co136 1.920 . S
O168 C141 1.289 . S
C169 O161 1.258 . S
C169 O162 1.266 . S
Co170 O173 1.970 . S
Co170 N187 1.989 . S
Co170 O195 1.967 . S
Co170 O202 1.920 . S
Co171 O174 1.966 . S
Co171 N180 2.022 . S
Co171 N188 1.993 . S
Co171 O196 1.941 . S
C172 O173 1.258 . S
C172 O174 1.263 . S
O173 Co170 1.970 . S
O173 C172 1.258 . S
O174 Co171 1.966 . S
O174 C172 1.263 . S
C175 O176 1.235 . S
C175 O202 1.289 . S
O176 C175 1.235 . S
C177 C179 1.400 . S
C177 N180 1.351 . S
C177 C182 1.501 . S
C178 C179 1.387 . S
C178 N181 1.341 . S
C179 C177 1.400 . S
C179 C178 1.387 . S
N180 Co171 2.022 . S
N180 C177 1.351 . S
N180 N181 1.365 . S
N181 C178 1.341 . S
N181 N180 1.365 . S
N181 H201 0.862 . S
C182 C177 1.501 . S
C182 H183 0.961 . S
C182 H184 0.961 . S
C182 H185 0.960 . S
H183 C182 0.961 . S
H184 C182 0.961 . S
H185 C182 0.960 . S
C186 N187 1.342 . S
C186 C190 1.401 . S
C186 C191 1.499 . S
N187 Co170 1.989 . S
N187 C186 1.342 . S
N187 N188 1.388 . S
N188 Co171 1.993 . S
N188 N187 1.388 . S
N188 C189 1.346 . S
C189 N188 1.346 . S
C189 C190 1.396 . S
C189 C199 1.510 . S
C190 C186 1.401 . S
C190 C189 1.396 . S
C191 C186 1.499 . S
C191 H192 0.959 . S
C191 H193 0.960 . S
C191 H194 0.961 . S
H192 C191 0.959 . S
H193 C191 0.960 . S
H194 C191 0.961 . S
O195 Co170 1.967 . S
O195 C203 1.258 . S
O196 Co171 1.941 . S
O196 C203 1.266 . S
H197 C199 0.959 . S
H198 C199 0.961 . S
C199 C189 1.510 . S
C199 H197 0.959 . S
C199 H198 0.961 . S
C199 H200 0.960 . S
H200 C199 0.960 . S
H201 N181 0.862 . S
O202 Co170 1.920 . S
O202 C175 1.289 . S
C203 O195 1.258 . S
C203 O196 1.266 . S
Co204 O207 1.970 . S
Co204 N221 1.989 . S
Co204 O229 1.967 . S
Co204 O236 1.920 . S
Co205 O208 1.966 . S
Co205 N214 2.022 . S
Co205 N222 1.993 . S
Co205 O230 1.941 . S
C206 O207 1.258 . S
C206 O208 1.263 . S
O207 Co204 1.970 . S
O207 C206 1.258 . S
O208 Co205 1.966 . S
O208 C206 1.263 . S
C209 O210 1.235 . S
C209 O236 1.289 . S
O210 C209 1.235 . S
C211 C213 1.401 . S
C211 N214 1.350 1_455 S
C211 C216 1.501 . S
C212 C213 1.387 1_655 S
C212 N215 1.341 . S
C213 C211 1.401 . S
C213 C212 1.387 1_455 S
N214 Co205 2.022 . S
N214 C211 1.350 1_655 S
N214 N215 1.365 . S
N215 C212 1.341 . S
N215 N214 1.365 . S
N215 H235 0.862 . S
C216 C211 1.501 . S
C216 H217 0.961 . S
C216 H218 0.961 . S
C216 H219 0.960 . S
H217 C216 0.961 . S
H218 C216 0.961 . S
H219 C216 0.960 . S
C220 N221 1.342 . S
C220 C224 1.401 . S
C220 C225 1.499 . S
N221 Co204 1.989 . S
N221 C220 1.342 . S
N221 N222 1.388 . S
N222 Co205 1.993 . S
N222 N221 1.388 . S
N222 C223 1.346 . S
C223 N222 1.346 . S
C223 C224 1.396 . S
C223 C233 1.510 . S
C224 C220 1.401 . S
C224 C223 1.396 . S
C225 C220 1.499 . S
C225 H226 0.959 . S
C225 H227 0.960 . S
C225 H228 0.961 . S
H226 C225 0.959 . S
H227 C225 0.960 . S
H228 C225 0.961 . S
O229 Co204 1.967 . S
O229 C237 1.258 . S
O230 Co205 1.941 . S
O230 C237 1.266 . S
H231 C233 0.959 . S
H232 C233 0.961 . S
C233 C223 1.510 . S
C233 H231 0.959 . S
C233 H232 0.961 . S
C233 H234 0.960 . S
H234 C233 0.960 . S
H235 N215 0.862 . S
O236 Co204 1.920 . S
O236 C209 1.289 . S
C237 O229 1.258 . S
C237 O230 1.266 . S
Co238 O241 1.970 . S
Co238 N255 1.989 . S
Co238 O263 1.967 . S
Co238 O270 1.920 . S
Co239 O242 1.966 . S
Co239 N248 2.022 . S
Co239 N256 1.993 . S
Co239 O264 1.941 . S
C240 O241 1.258 . S
C240 O242 1.263 . S
O241 Co238 1.970 . S
O241 C240 1.258 . S
O242 Co239 1.966 . S
O242 C240 1.263 . S
C243 O244 1.235 . S
C243 O270 1.289 . S
O244 C243 1.235 . S
C245 C247 1.392 1_455 S
C245 N248 1.351 . S
C245 C250 1.501 . S
C246 C247 1.396 . S
C246 N249 1.341 . S
C247 C245 1.392 1_655 S
C247 C246 1.396 . S
N248 Co239 2.022 . S
N248 C245 1.351 . S
N248 N249 1.365 1_455 S
N249 C246 1.341 . S
N249 N248 1.365 1_655 S
N249 H269 0.862 . S
C250 C245 1.501 . S
C250 H251 0.961 . S
C250 H252 0.961 . S
C250 H253 0.960 . S
H251 C250 0.961 . S
H252 C250 0.961 . S
H253 C250 0.960 . S
C254 N255 1.342 . S
C254 C258 1.401 . S
C254 C259 1.499 . S
N255 Co238 1.989 . S
N255 C254 1.342 . S
N255 N256 1.388 . S
N256 Co239 1.993 . S
N256 N255 1.388 . S
N256 C257 1.346 . S
C257 N256 1.346 . S
C257 C258 1.396 . S
C257 C267 1.510 . S
C258 C254 1.401 . S
C258 C257 1.396 . S
C259 C254 1.499 . S
C259 H260 0.959 . S
C259 H261 0.960 . S
C259 H262 0.961 . S
H260 C259 0.959 . S
H261 C259 0.960 . S
H262 C259 0.961 . S
O263 Co238 1.967 . S
O263 C271 1.258 . S
O264 Co239 1.941 . S
O264 C271 1.266 . S
H265 C267 0.959 . S
H266 C267 0.961 . S
C267 C257 1.510 . S
C267 H265 0.959 . S
C267 H266 0.961 . S
C267 H268 0.960 . S
H268 C267 0.960 . S
H269 N249 0.862 . S
O270 Co238 1.920 . S
O270 C243 1.289 . S
C271 O263 1.258 . S
C271 O264 1.266 . S
Co272 O275 1.970 . S
Co272 N289 1.989 . S
Co272 O297 1.967 . S
Co272 O304 1.920 . S
Co273 O276 1.966 . S
Co273 N282 2.022 . S
Co273 N290 1.993 . S
Co273 O298 1.941 . S
C274 O275 1.258 . S
C274 O276 1.263 . S
O275 Co272 1.970 . S
O275 C274 1.258 . S
O276 Co273 1.966 . S
O276 C274 1.263 . S
C277 O278 1.235 . S
C277 O304 1.289 . S
O278 C277 1.235 . S
C279 C281 1.400 . S
C279 N282 1.354 1_565 S
C279 C284 1.499 . S
C280 C281 1.387 1_545 S
C280 N283 1.341 . S
C281 C279 1.400 . S
C281 C280 1.387 1_565 S
N282 Co273 2.022 . S
N282 C279 1.354 1_545 S
N282 N283 1.365 . S
N283 C280 1.341 . S
N283 N282 1.365 . S
N283 H303 0.862 . S
C284 C279 1.499 . S
C284 H285 0.961 . S
C284 H286 0.961 . S
C284 H287 0.960 . S
H285 C284 0.961 . S
H286 C284 0.961 . S
H287 C284 0.960 . S
C288 N289 1.342 . S
C288 C292 1.401 . S
C288 C293 1.499 . S
N289 Co272 1.989 . S
N289 C288 1.342 . S
N289 N290 1.388 . S
N290 Co273 1.993 . S
N290 N289 1.388 . S
N290 C291 1.346 . S
C291 N290 1.346 . S
C291 C292 1.396 . S
C291 C301 1.510 . S
C292 C288 1.401 . S
C292 C291 1.396 . S
C293 C288 1.499 . S
C293 H294 0.959 . S
C293 H295 0.960 . S
C293 H296 0.961 . S
H294 C293 0.959 . S
H295 C293 0.960 . S
H296 C293 0.961 . S
O297 Co272 1.967 . S
O297 C305 1.258 . S
O298 Co273 1.941 . S
O298 C305 1.266 . S
H299 C301 0.959 . S
H300 C301 0.961 . S
C301 C291 1.510 . S
C301 H299 0.959 . S
C301 H300 0.961 . S
C301 H302 0.960 . S
H302 C301 0.960 . S
H303 N283 0.862 . S
O304 Co272 1.920 . S
O304 C277 1.289 . S
C305 O297 1.258 . S
C305 O298 1.266 . S
Co306 O309 1.970 . S
Co306 N323 1.989 . S
Co306 O331 1.967 . S
Co306 O338 1.920 . S
Co307 O310 1.966 . S
Co307 N316 2.022 . S
Co307 N324 1.993 . S
Co307 O332 1.941 . S
C308 O309 1.258 . S
C308 O310 1.263 . S
O309 Co306 1.970 . S
O309 C308 1.258 . S
O310 Co307 1.966 . S
O310 C308 1.263 . S
C311 O312 1.235 . S
C311 O338 1.289 . S
O312 C311 1.235 . S
C313 C315 1.390 1_556 S
C313 N316 1.351 . S
C313 C318 1.501 . S
C314 C315 1.399 . S
C314 N317 1.341 . S
C315 C313 1.390 1_554 S
C315 C314 1.399 . S
N316 Co307 2.022 . S
N316 C313 1.351 . S
N316 N317 1.365 1_556 S
N317 C314 1.341 . S
N317 N316 1.365 1_554 S
N317 H337 0.862 . S
C318 C313 1.501 . S
C318 H319 0.961 . S
C318 H320 0.961 . S
C318 H321 0.960 . S
H319 C318 0.961 . S
H320 C318 0.961 . S
H321 C318 0.960 . S
C322 N323 1.342 . S
C322 C326 1.401 . S
C322 C327 1.499 . S
N323 Co306 1.989 . S
N323 C322 1.342 . S
N323 N324 1.388 . S
N324 Co307 1.993 . S
N324 N323 1.388 . S
N324 C325 1.346 . S
C325 N324 1.346 . S
C325 C326 1.396 . S
C325 C335 1.510 . S
C326 C322 1.401 . S
C326 C325 1.396 . S
C327 C322 1.499 . S
C327 H328 0.959 . S
C327 H329 0.960 . S
C327 H330 0.961 . S
H328 C327 0.959 . S
H329 C327 0.960 . S
H330 C327 0.961 . S
O331 Co306 1.967 . S
O331 C339 1.258 . S
O332 Co307 1.941 . S
O332 C339 1.266 . S
H333 C335 0.959 . S
H334 C335 0.961 . S
C335 C325 1.510 . S
C335 H333 0.959 . S
C335 H334 0.961 . S
C335 H336 0.960 . S
H336 C335 0.960 . S
H337 N317 0.862 . S
O338 Co306 1.920 . S
O338 C311 1.289 . S
C339 O331 1.258 . S
C339 O332 1.266 . S
Co340 O343 1.970 . S
Co340 N357 1.989 . S
Co340 O365 1.967 . S
Co340 O372 1.920 . S
Co341 O344 1.966 . S
Co341 N350 2.022 . S
Co341 N358 1.993 . S
Co341 O366 1.941 . S
C342 O343 1.258 . S
C342 O344 1.263 . S
O343 Co340 1.970 . S
O343 C342 1.258 . S
O344 Co341 1.966 . S
O344 C342 1.263 . S
C345 O346 1.235 . S
C345 O372 1.289 . S
O346 C345 1.235 . S
C347 C349 1.401 . S
C347 N350 1.350 1_545 S
C347 C352 1.501 . S
C348 C349 1.387 1_565 S
C348 N351 1.341 . S
C349 C347 1.401 . S
C349 C348 1.387 1_545 S
N350 Co341 2.022 . S
N350 C347 1.350 1_565 S
N350 N351 1.365 . S
N351 C348 1.341 . S
N351 N350 1.365 . S
N351 H371 0.862 . S
C352 C347 1.501 . S
C352 H353 0.961 . S
C352 H354 0.961 . S
C352 H355 0.960 . S
H353 C352 0.961 . S
H354 C352 0.961 . S
H355 C352 0.960 . S
C356 N357 1.342 . S
C356 C360 1.401 . S
C356 C361 1.499 . S
N357 Co340 1.989 . S
N357 C356 1.342 . S
N357 N358 1.388 . S
N358 Co341 1.993 . S
N358 N357 1.388 . S
N358 C359 1.346 . S
C359 N358 1.346 . S
C359 C360 1.396 . S
C359 C369 1.510 . S
C360 C356 1.401 . S
C360 C359 1.396 . S
C361 C356 1.499 . S
C361 H362 0.959 . S
C361 H363 0.960 . S
C361 H364 0.961 . S
H362 C361 0.959 . S
H363 C361 0.960 . S
H364 C361 0.961 . S
O365 Co340 1.967 . S
O365 C373 1.258 . S
O366 Co341 1.941 . S
O366 C373 1.266 . S
H367 C369 0.959 . S
H368 C369 0.961 . S
C369 C359 1.510 . S
C369 H367 0.959 . S
C369 H368 0.961 . S
C369 H370 0.960 . S
H370 C369 0.960 . S
H371 N351 0.862 . S
O372 Co340 1.920 . S
O372 C345 1.289 . S
C373 O365 1.258 . S
C373 O366 1.266 . S
Co374 O377 1.970 . S
Co374 N391 1.989 . S
Co374 O399 1.967 . S
Co374 O406 1.920 . S
Co375 O378 1.966 . S
Co375 N384 2.022 . S
Co375 N392 1.993 . S
Co375 O400 1.941 . S
C376 O377 1.258 . S
C376 O378 1.263 . S
O377 Co374 1.970 . S
O377 C376 1.258 . S
O378 Co375 1.966 . S
O378 C376 1.263 . S
C379 O380 1.235 . S
C379 O406 1.289 . S
O380 C379 1.235 . S
C381 C383 1.400 . S
C381 N384 1.351 . S
C381 C386 1.501 . S
C382 C383 1.387 . S
C382 N385 1.341 . S
C383 C381 1.400 . S
C383 C382 1.387 . S
N384 Co375 2.022 . S
N384 C381 1.351 . S
N384 N385 1.365 . S
N385 C382 1.341 . S
N385 N384 1.365 . S
N385 H405 0.862 . S
C386 C381 1.501 . S
C386 H387 0.961 . S
C386 H388 0.961 . S
C386 H389 0.960 . S
H387 C386 0.961 . S
H388 C386 0.961 . S
H389 C386 0.960 . S
C390 N391 1.342 . S
C390 C394 1.401 . S
C390 C395 1.499 . S
N391 Co374 1.989 . S
N391 C390 1.342 . S
N391 N392 1.388 . S
N392 Co375 1.993 . S
N392 N391 1.388 . S
N392 C393 1.346 . S
C393 N392 1.346 . S
C393 C394 1.396 . S
C393 C403 1.510 . S
C394 C390 1.401 . S
C394 C393 1.396 . S
C395 C390 1.499 . S
C395 H396 0.959 . S
C395 H397 0.960 . S
C395 H398 0.961 . S
H396 C395 0.959 . S
H397 C395 0.960 . S
H398 C395 0.961 . S
O399 Co374 1.967 . S
O399 C407 1.258 . S
O400 Co375 1.941 . S
O400 C407 1.266 . S
H401 C403 0.959 . S
H402 C403 0.961 . S
C403 C393 1.510 . S
C403 H401 0.959 . S
C403 H402 0.961 . S
C403 H404 0.960 . S
H404 C403 0.960 . S
H405 N385 0.862 . S
O406 Co374 1.920 . S
O406 C379 1.289 . S
C407 O399 1.258 . S
C407 O400 1.266 . S
Co408 O411 1.970 . S
Co408 N425 1.989 . S
Co408 O433 1.967 . S
Co408 O440 1.920 . S
Co409 O412 1.966 . S
Co409 N418 2.022 . S
Co409 N426 1.993 . S
Co409 O434 1.941 . S
C410 O411 1.258 . S
C410 O412 1.263 . S
O411 Co408 1.970 . S
O411 C410 1.258 . S
O412 Co409 1.966 . S
O412 C410 1.263 . S
C413 O414 1.235 . S
C413 O440 1.289 . S
O414 C413 1.235 . S
C415 C417 1.400 . S
C415 N418 1.351 . S
C415 C420 1.501 . S
C416 C417 1.387 . S
C416 N419 1.341 . S
C417 C415 1.400 . S
C417 C416 1.387 . S
N418 Co409 2.022 . S
N418 C415 1.351 . S
N418 N419 1.365 . S
N419 C416 1.341 . S
N419 N418 1.365 . S
N419 H439 0.862 . S
C420 C415 1.501 . S
C420 H421 0.961 . S
C420 H422 0.961 . S
C420 H423 0.960 . S
H421 C420 0.961 . S
H422 C420 0.961 . S
H423 C420 0.960 . S
C424 N425 1.342 . S
C424 C428 1.401 . S
C424 C429 1.499 . S
N425 Co408 1.989 . S
N425 C424 1.342 . S
N425 N426 1.388 . S
N426 Co409 1.993 . S
N426 N425 1.388 . S
N426 C427 1.346 . S
C427 N426 1.346 . S
C427 C428 1.396 . S
C427 C437 1.510 . S
C428 C424 1.401 . S
C428 C427 1.396 . S
C429 C424 1.499 . S
C429 H430 0.959 . S
C429 H431 0.960 . S
C429 H432 0.961 . S
H430 C429 0.959 . S
H431 C429 0.960 . S
H432 C429 0.961 . S
O433 Co408 1.967 . S
O433 C441 1.258 . S
O434 Co409 1.941 . S
O434 C441 1.266 . S
H435 C437 0.959 . S
H436 C437 0.961 . S
C437 C427 1.510 . S
C437 H435 0.959 . S
C437 H436 0.961 . S
C437 H438 0.960 . S
H438 C437 0.960 . S
H439 N419 0.862 . S
O440 Co408 1.920 . S
O440 C413 1.289 . S
C441 O433 1.258 . S
C441 O434 1.266 . S
Co442 O445 1.970 . S
Co442 N459 1.989 . S
Co442 O467 1.967 . S
Co442 O474 1.920 . S
Co443 O446 1.966 . S
Co443 N452 2.022 . S
Co443 N460 1.993 . S
Co443 O468 1.941 . S
C444 O445 1.258 . S
C444 O446 1.263 . S
O445 Co442 1.970 . S
O445 C444 1.258 . S
O446 Co443 1.966 . S
O446 C444 1.263 . S
C447 O448 1.235 . S
C447 O474 1.289 . S
O448 C447 1.235 . S
C449 C451 1.400 . S
C449 N452 1.351 . S
C449 C454 1.501 . S
C450 C451 1.387 . S
C450 N453 1.341 . S
C451 C449 1.400 . S
C451 C450 1.387 . S
N452 Co443 2.022 . S
N452 C449 1.351 . S
N452 N453 1.365 . S
N453 C450 1.341 . S
N453 N452 1.365 . S
N453 H473 0.862 . S
C454 C449 1.501 . S
C454 H455 0.961 . S
C454 H456 0.961 . S
C454 H457 0.960 . S
H455 C454 0.961 . S
H456 C454 0.961 . S
H457 C454 0.960 . S
C458 N459 1.342 . S
C458 C462 1.401 . S
C458 C463 1.499 . S
N459 Co442 1.989 . S
N459 C458 1.342 . S
N459 N460 1.388 . S
N460 Co443 1.993 . S
N460 N459 1.388 . S
N460 C461 1.346 . S
C461 N460 1.346 . S
C461 C462 1.396 . S
C461 C471 1.510 . S
C462 C458 1.401 . S
C462 C461 1.396 . S
C463 C458 1.499 . S
C463 H464 0.959 . S
C463 H465 0.960 . S
C463 H466 0.961 . S
H464 C463 0.959 . S
H465 C463 0.960 . S
H466 C463 0.961 . S
O467 Co442 1.967 . S
O467 C475 1.258 . S
O468 Co443 1.941 . S
O468 C475 1.266 . S
H469 C471 0.959 . S
H470 C471 0.961 . S
C471 C461 1.510 . S
C471 H469 0.959 . S
C471 H470 0.961 . S
C471 H472 0.960 . S
H472 C471 0.960 . S
H473 N453 0.862 . S
O474 Co442 1.920 . S
O474 C447 1.289 . S
C475 O467 1.258 . S
C475 O468 1.266 . S
Co476 O479 1.970 . S
Co476 N493 1.989 . S
Co476 O501 1.967 . S
Co476 O508 1.920 . S
Co477 O480 1.966 . S
Co477 N486 2.022 . S
Co477 N494 1.993 . S
Co477 O502 1.941 . S
C478 O479 1.258 . S
C478 O480 1.263 . S
O479 Co476 1.970 . S
O479 C478 1.258 . S
O480 Co477 1.966 . S
O480 C478 1.263 . S
C481 O482 1.235 . S
C481 O508 1.289 . S
O482 C481 1.235 . S
C483 C485 1.400 . S
C483 N486 1.351 . S
C483 C488 1.501 . S
C484 C485 1.387 . S
C484 N487 1.341 . S
C485 C483 1.400 . S
C485 C484 1.387 . S
N486 Co477 2.022 . S
N486 C483 1.351 . S
N486 N487 1.365 . S
N487 C484 1.341 . S
N487 N486 1.365 . S
N487 H507 0.862 . S
C488 C483 1.501 . S
C488 H489 0.961 . S
C488 H490 0.961 . S
C488 H491 0.960 . S
H489 C488 0.961 . S
H490 C488 0.961 . S
H491 C488 0.960 . S
C492 N493 1.342 . S
C492 C496 1.401 . S
C492 C497 1.499 . S
N493 Co476 1.989 . S
N493 C492 1.342 . S
N493 N494 1.388 . S
N494 Co477 1.993 . S
N494 N493 1.388 . S
N494 C495 1.346 . S
C495 N494 1.346 . S
C495 C496 1.396 . S
C495 C505 1.510 . S
C496 C492 1.401 . S
C496 C495 1.396 . S
C497 C492 1.499 . S
C497 H498 0.959 . S
C497 H499 0.960 . S
C497 H500 0.961 . S
H498 C497 0.959 . S
H499 C497 0.960 . S
H500 C497 0.961 . S
O501 Co476 1.967 . S
O501 C509 1.258 . S
O502 Co477 1.941 . S
O502 C509 1.266 . S
H503 C505 0.959 . S
H504 C505 0.961 . S
C505 C495 1.510 . S
C505 H503 0.959 . S
C505 H504 0.961 . S
C505 H506 0.960 . S
H506 C505 0.960 . S
H507 N487 0.862 . S
O508 Co476 1.920 . S
O508 C481 1.289 . S
C509 O501 1.258 . S
C509 O502 1.266 . S
Co510 O513 1.970 . S
Co510 N527 1.989 . S
Co510 O535 1.967 . S
Co510 O542 1.920 . S
Co511 O514 1.966 . S
Co511 N520 2.022 . S
Co511 N528 1.993 . S
Co511 O536 1.941 . S
C512 O513 1.258 . S
C512 O514 1.263 . S
O513 Co510 1.970 . S
O513 C512 1.258 . S
O514 Co511 1.966 . S
O514 C512 1.263 . S
C515 O516 1.235 . S
C515 O542 1.289 . S
O516 C515 1.235 . S
C517 C519 1.392 1_554 S
C517 N520 1.351 . S
C517 C522 1.501 . S
C518 C519 1.396 . S
C518 N521 1.341 . S
C519 C517 1.392 1_556 S
C519 C518 1.396 . S
N520 Co511 2.022 . S
N520 C517 1.351 . S
N520 N521 1.365 1_554 S
N521 C518 1.341 . S
N521 N520 1.365 1_556 S
N521 H541 0.862 . S
C522 C517 1.501 . S
C522 H523 0.961 . S
C522 H524 0.961 . S
C522 H525 0.960 . S
H523 C522 0.961 . S
H524 C522 0.961 . S
H525 C522 0.960 . S
C526 N527 1.342 . S
C526 C530 1.401 . S
C526 C531 1.499 . S
N527 Co510 1.989 . S
N527 C526 1.342 . S
N527 N528 1.388 . S
N528 Co511 1.993 . S
N528 N527 1.388 . S
N528 C529 1.346 . S
C529 N528 1.346 . S
C529 C530 1.396 . S
C529 C539 1.510 . S
C530 C526 1.401 . S
C530 C529 1.396 . S
C531 C526 1.499 . S
C531 H532 0.959 . S
C531 H533 0.960 . S
C531 H534 0.961 . S
H532 C531 0.959 . S
H533 C531 0.960 . S
H534 C531 0.961 . S
O535 Co510 1.967 . S
O535 C543 1.258 . S
O536 Co511 1.941 . S
O536 C543 1.266 . S
H537 C539 0.959 . S
H538 C539 0.961 . S
C539 C529 1.510 . S
C539 H537 0.959 . S
C539 H538 0.961 . S
C539 H540 0.960 . S
H540 C539 0.960 . S
H541 N521 0.862 . S
O542 Co510 1.920 . S
O542 C515 1.289 . S
C543 O535 1.258 . S
C543 O536 1.266 . S
Co544 O547 1.970 . S
Co544 N561 1.989 . S
Co544 O569 1.967 . S
Co544 O576 1.920 . S
Co545 O548 1.966 . S
Co545 N554 2.022 . S
Co545 N562 1.993 . S
Co545 O570 1.941 . S
C546 O547 1.258 . S
C546 O548 1.263 . S
O547 Co544 1.970 . S
O547 C546 1.258 . S
O548 Co545 1.966 . S
O548 C546 1.263 . S
C549 O550 1.235 . S
C549 O576 1.289 . S
O550 C549 1.235 . S
C551 C553 1.400 . S
C551 N554 1.354 1_556 S
C551 C556 1.499 . S
C552 C553 1.387 1_554 S
C552 N555 1.341 . S
C553 C551 1.400 . S
C553 C552 1.387 1_556 S
N554 Co545 2.022 . S
N554 C551 1.354 1_554 S
N554 N555 1.365 . S
N555 C552 1.341 . S
N555 N554 1.365 . S
N555 H575 0.862 . S
C556 C551 1.499 . S
C556 H557 0.961 . S
C556 H558 0.961 . S
C556 H559 0.960 . S
H557 C556 0.961 . S
H558 C556 0.961 . S
H559 C556 0.960 . S
C560 N561 1.342 . S
C560 C564 1.401 . S
C560 C565 1.499 . S
N561 Co544 1.989 . S
N561 C560 1.342 . S
N561 N562 1.388 . S
N562 Co545 1.993 . S
N562 N561 1.388 . S
N562 C563 1.346 . S
C563 N562 1.346 . S
C563 C564 1.396 . S
C563 C573 1.510 . S
C564 C560 1.401 . S
C564 C563 1.396 . S
C565 C560 1.499 . S
C565 H566 0.959 . S
C565 H567 0.960 . S
C565 H568 0.961 . S
H566 C565 0.959 . S
H567 C565 0.960 . S
H568 C565 0.961 . S
O569 Co544 1.967 . S
O569 C577 1.258 . S
O570 Co545 1.941 . S
O570 C577 1.266 . S
H571 C573 0.959 . S
H572 C573 0.961 . S
C573 C563 1.510 . S
C573 H571 0.959 . S
C573 H572 0.961 . S
C573 H574 0.960 . S
H574 C573 0.960 . S
H575 N555 0.862 . S
O576 Co544 1.920 . S
O576 C549 1.289 . S
C577 O569 1.258 . S
C577 O570 1.266 . S
Co578 O581 1.970 . S
Co578 N595 1.989 . S
Co578 O603 1.967 . S
Co578 O610 1.920 . S
Co579 O582 1.966 . S
Co579 N588 2.022 . S
Co579 N596 1.993 . S
Co579 O604 1.941 . S
C580 O581 1.258 . S
C580 O582 1.263 . S
O581 Co578 1.970 . S
O581 C580 1.258 . S
O582 Co579 1.966 . S
O582 C580 1.263 . S
C583 O584 1.235 . S
C583 O610 1.289 . S
O584 C583 1.235 . S
C585 C587 1.401 . S
C585 N588 1.350 1_554 S
C585 C590 1.501 . S
C586 C587 1.387 1_556 S
C586 N589 1.341 . S
C587 C585 1.401 . S
C587 C586 1.387 1_554 S
N588 Co579 2.022 . S
N588 C585 1.350 1_556 S
N588 N589 1.365 . S
N589 C586 1.341 . S
N589 N588 1.365 . S
N589 H609 0.862 . S
C590 C585 1.501 . S
C590 H591 0.961 . S
C590 H592 0.961 . S
C590 H593 0.960 . S
H591 C590 0.961 . S
H592 C590 0.961 . S
H593 C590 0.960 . S
C594 N595 1.342 . S
C594 C598 1.401 . S
C594 C599 1.499 . S
N595 Co578 1.989 . S
N595 C594 1.342 . S
N595 N596 1.388 . S
N596 Co579 1.993 . S
N596 N595 1.388 . S
N596 C597 1.346 . S
C597 N596 1.346 . S
C597 C598 1.396 . S
C597 C607 1.510 . S
C598 C594 1.401 . S
C598 C597 1.396 . S
C599 C594 1.499 . S
C599 H600 0.959 . S
C599 H601 0.960 . S
C599 H602 0.961 . S
H600 C599 0.959 . S
H601 C599 0.960 . S
H602 C599 0.961 . S
O603 Co578 1.967 . S
O603 C611 1.258 . S
O604 Co579 1.941 . S
O604 C611 1.266 . S
H605 C607 0.959 . S
H606 C607 0.961 . S
C607 C597 1.510 . S
C607 H605 0.959 . S
C607 H606 0.961 . S
C607 H608 0.960 . S
H608 C607 0.960 . S
H609 N589 0.862 . S
O610 Co578 1.920 . S
O610 C583 1.289 . S
C611 O603 1.258 . S
C611 O604 1.266 . S
Co612 O615 1.970 . S
Co612 N629 1.989 . S
Co612 O637 1.967 . S
Co612 O644 1.920 . S
Co613 O616 1.966 . S
Co613 N622 2.022 . S
Co613 N630 1.993 . S
Co613 O638 1.941 . S
C614 O615 1.258 . S
C614 O616 1.263 . S
O615 Co612 1.970 . S
O615 C614 1.258 . S
O616 Co613 1.966 . S
O616 C614 1.263 . S
C617 O618 1.235 . S
C617 O644 1.289 . S
O618 C617 1.235 . S
C619 C621 1.390 1_565 S
C619 N622 1.351 . S
C619 C624 1.501 . S
C620 C621 1.399 . S
C620 N623 1.341 . S
C621 C619 1.390 1_545 S
C621 C620 1.399 . S
N622 Co613 2.022 . S
N622 C619 1.351 . S
N622 N623 1.365 1_565 S
N623 C620 1.341 . S
N623 N622 1.365 1_545 S
N623 H643 0.862 . S
C624 C619 1.501 . S
C624 H625 0.961 . S
C624 H626 0.961 . S
C624 H627 0.960 . S
H625 C624 0.961 . S
H626 C624 0.961 . S
H627 C624 0.960 . S
C628 N629 1.342 . S
C628 C632 1.401 . S
C628 C633 1.499 . S
N629 Co612 1.989 . S
N629 C628 1.342 . S
N629 N630 1.388 . S
N630 Co613 1.993 . S
N630 N629 1.388 . S
N630 C631 1.346 . S
C631 N630 1.346 . S
C631 C632 1.396 . S
C631 C641 1.510 . S
C632 C628 1.401 . S
C632 C631 1.396 . S
C633 C628 1.499 . S
C633 H634 0.959 . S
C633 H635 0.960 . S
C633 H636 0.961 . S
H634 C633 0.959 . S
H635 C633 0.960 . S
H636 C633 0.961 . S
O637 Co612 1.967 . S
O637 C645 1.258 . S
O638 Co613 1.941 . S
O638 C645 1.266 . S
H639 C641 0.959 . S
H640 C641 0.961 . S
C641 C631 1.510 . S
C641 H639 0.959 . S
C641 H640 0.961 . S
C641 H642 0.960 . S
H642 C641 0.960 . S
H643 N623 0.862 . S
O644 Co612 1.920 . S
O644 C617 1.289 . S
C645 O637 1.258 . S
C645 O638 1.266 . S
Co646 O649 1.970 . S
Co646 N663 1.989 . S
Co646 O671 1.967 . S
Co646 O678 1.920 . S
Co647 O650 1.966 . S
Co647 N656 2.022 . S
Co647 N664 1.993 . S
Co647 O672 1.941 . S
C648 O649 1.258 . S
C648 O650 1.263 . S
O649 Co646 1.970 . S
O649 C648 1.258 . S
O650 Co647 1.966 . S
O650 C648 1.263 . S
C651 O652 1.235 . S
C651 O678 1.289 . S
O652 C651 1.235 . S
C653 C655 1.400 . S
C653 N656 1.351 . S
C653 C658 1.501 . S
C654 C655 1.387 . S
C654 N657 1.341 . S
C655 C653 1.400 . S
C655 C654 1.387 . S
N656 Co647 2.022 . S
N656 C653 1.351 . S
N656 N657 1.365 . S
N657 C654 1.341 . S
N657 N656 1.365 . S
N657 H677 0.862 . S
C658 C653 1.501 . S
C658 H659 0.961 . S
C658 H660 0.961 . S
C658 H661 0.960 . S
H659 C658 0.961 . S
H660 C658 0.961 . S
H661 C658 0.960 . S
C662 N663 1.342 . S
C662 C666 1.401 . S
C662 C667 1.499 . S
N663 Co646 1.989 . S
N663 C662 1.342 . S
N663 N664 1.388 . S
N664 Co647 1.993 . S
N664 N663 1.388 . S
N664 C665 1.346 . S
C665 N664 1.346 . S
C665 C666 1.396 . S
C665 C675 1.510 . S
C666 C662 1.401 . S
C666 C665 1.396 . S
C667 C662 1.499 . S
C667 H668 0.959 . S
C667 H669 0.960 . S
C667 H670 0.961 . S
H668 C667 0.959 . S
H669 C667 0.960 . S
H670 C667 0.961 . S
O671 Co646 1.967 . S
O671 C679 1.258 . S
O672 Co647 1.941 . S
O672 C679 1.266 . S
H673 C675 0.959 . S
H674 C675 0.961 . S
C675 C665 1.510 . S
C675 H673 0.959 . S
C675 H674 0.961 . S
C675 H676 0.960 . S
H676 C675 0.960 . S
H677 N657 0.862 . S
O678 Co646 1.920 . S
O678 C651 1.289 . S
C679 O671 1.258 . S
C679 O672 1.266 . S
Co680 O683 1.970 . S
Co680 N697 1.989 . S
Co680 O705 1.967 . S
Co680 O712 1.920 . S
Co681 O684 1.966 . S
Co681 N690 2.022 . S
Co681 N698 1.993 . S
Co681 O706 1.941 . S
C682 O683 1.258 . S
C682 O684 1.263 . S
O683 Co680 1.970 . S
O683 C682 1.258 . S
O684 Co681 1.966 . S
O684 C682 1.263 . S
C685 O686 1.235 . S
C685 O712 1.289 . S
O686 C685 1.235 . S
C687 C689 1.392 1_545 S
C687 N690 1.351 . S
C687 C692 1.501 . S
C688 C689 1.396 . S
C688 N691 1.341 . S
C689 C687 1.392 1_565 S
C689 C688 1.396 . S
N690 Co681 2.022 . S
N690 C687 1.351 . S
N690 N691 1.365 1_545 S
N691 C688 1.341 . S
N691 N690 1.365 1_565 S
N691 H711 0.862 . S
C692 C687 1.501 . S
C692 H693 0.961 . S
C692 H694 0.961 . S
C692 H695 0.960 . S
H693 C692 0.961 . S
H694 C692 0.961 . S
H695 C692 0.960 . S
C696 N697 1.342 . S
C696 C700 1.401 . S
C696 C701 1.499 . S
N697 Co680 1.989 . S
N697 C696 1.342 . S
N697 N698 1.388 . S
N698 Co681 1.993 . S
N698 N697 1.388 . S
N698 C699 1.346 . S
C699 N698 1.346 . S
C699 C700 1.396 . S
C699 C709 1.510 . S
C700 C696 1.401 . S
C700 C699 1.396 . S
C701 C696 1.499 . S
C701 H702 0.959 . S
C701 H703 0.960 . S
C701 H704 0.961 . S
H702 C701 0.959 . S
H703 C701 0.960 . S
H704 C701 0.961 . S
O705 Co680 1.967 . S
O705 C713 1.258 . S
O706 Co681 1.941 . S
O706 C713 1.266 . S
H707 C709 0.959 . S
H708 C709 0.961 . S
C709 C699 1.510 . S
C709 H707 0.959 . S
C709 H708 0.961 . S
C709 H710 0.960 . S
H710 C709 0.960 . S
H711 N691 0.862 . S
O712 Co680 1.920 . S
O712 C685 1.289 . S
C713 O705 1.258 . S
C713 O706 1.266 . S
Co714 O717 1.970 . S
Co714 N731 1.989 . S
Co714 O739 1.967 . S
Co714 O746 1.920 . S
Co715 O718 1.966 . S
Co715 N724 2.022 . S
Co715 N732 1.993 . S
Co715 O740 1.941 . S
C716 O717 1.258 . S
C716 O718 1.263 . S
O717 Co714 1.970 . S
O717 C716 1.258 . S
O718 Co715 1.966 . S
O718 C716 1.263 . S
C719 O720 1.235 . S
C719 O746 1.289 . S
O720 C719 1.235 . S
C721 C723 1.400 . S
C721 N724 1.351 . S
C721 C726 1.501 . S
C722 C723 1.387 . S
C722 N725 1.341 . S
C723 C721 1.400 . S
C723 C722 1.387 . S
N724 Co715 2.022 . S
N724 C721 1.351 . S
N724 N725 1.365 . S
N725 C722 1.341 . S
N725 N724 1.365 . S
N725 H745 0.862 . S
C726 C721 1.501 . S
C726 H727 0.961 . S
C726 H728 0.961 . S
C726 H729 0.960 . S
H727 C726 0.961 . S
H728 C726 0.961 . S
H729 C726 0.960 . S
C730 N731 1.342 . S
C730 C734 1.401 . S
C730 C735 1.499 . S
N731 Co714 1.989 . S
N731 C730 1.342 . S
N731 N732 1.388 . S
N732 Co715 1.993 . S
N732 N731 1.388 . S
N732 C733 1.346 . S
C733 N732 1.346 . S
C733 C734 1.396 . S
C733 C743 1.510 . S
C734 C730 1.401 . S
C734 C733 1.396 . S
C735 C730 1.499 . S
C735 H736 0.959 . S
C735 H737 0.960 . S
C735 H738 0.961 . S
H736 C735 0.959 . S
H737 C735 0.960 . S
H738 C735 0.961 . S
O739 Co714 1.967 . S
O739 C747 1.258 . S
O740 Co715 1.941 . S
O740 C747 1.266 . S
H741 C743 0.959 . S
H742 C743 0.961 . S
C743 C733 1.510 . S
C743 H741 0.959 . S
C743 H742 0.961 . S
C743 H744 0.960 . S
H744 C743 0.960 . S
H745 N725 0.862 . S
O746 Co714 1.920 . S
O746 C719 1.289 . S
C747 O739 1.258 . S
C747 O740 1.266 . S
Co748 O751 1.970 . S
Co748 N765 1.989 . S
Co748 O773 1.967 . S
Co748 O780 1.920 . S
Co749 O752 1.966 . S
Co749 N758 2.022 . S
Co749 N766 1.993 . S
Co749 O774 1.941 . S
C750 O751 1.258 . S
C750 O752 1.263 . S
O751 Co748 1.970 . S
O751 C750 1.258 . S
O752 Co749 1.966 . S
O752 C750 1.263 . S
C753 O754 1.235 . S
C753 O780 1.289 . S
O754 C753 1.235 . S
C755 C757 1.400 . S
C755 N758 1.351 . S
C755 C760 1.501 . S
C756 C757 1.387 . S
C756 N759 1.341 . S
C757 C755 1.400 . S
C757 C756 1.387 . S
N758 Co749 2.022 . S
N758 C755 1.351 . S
N758 N759 1.365 . S
N759 C756 1.341 . S
N759 N758 1.365 . S
N759 H779 0.862 . S
C760 C755 1.501 . S
C760 H761 0.961 . S
C760 H762 0.961 . S
C760 H763 0.960 . S
H761 C760 0.961 . S
H762 C760 0.961 . S
H763 C760 0.960 . S
C764 N765 1.342 . S
C764 C768 1.401 . S
C764 C769 1.499 . S
N765 Co748 1.989 . S
N765 C764 1.342 . S
N765 N766 1.388 . S
N766 Co749 1.993 . S
N766 N765 1.388 . S
N766 C767 1.346 . S
C767 N766 1.346 . S
C767 C768 1.396 . S
C767 C777 1.510 . S
C768 C764 1.401 . S
C768 C767 1.396 . S
C769 C764 1.499 . S
C769 H770 0.959 . S
C769 H771 0.960 . S
C769 H772 0.961 . S
H770 C769 0.959 . S
H771 C769 0.960 . S
H772 C769 0.961 . S
O773 Co748 1.967 . S
O773 C781 1.258 . S
O774 Co749 1.941 . S
O774 C781 1.266 . S
H775 C777 0.959 . S
H776 C777 0.961 . S
C777 C767 1.510 . S
C777 H775 0.959 . S
C777 H776 0.961 . S
C777 H778 0.960 . S
H778 C777 0.960 . S
H779 N759 0.862 . S
O780 Co748 1.920 . S
O780 C753 1.289 . S
C781 O773 1.258 . S
C781 O774 1.266 . S
Co782 O785 1.970 . S
Co782 N799 1.989 . S
Co782 O807 1.967 . S
Co782 O814 1.920 . S
Co783 O786 1.966 . S
Co783 N792 2.022 . S
Co783 N800 1.993 . S
Co783 O808 1.941 . S
C784 O785 1.258 . S
C784 O786 1.263 . S
O785 Co782 1.970 . S
O785 C784 1.258 . S
O786 Co783 1.966 . S
O786 C784 1.263 . S
C787 O788 1.235 . S
C787 O814 1.289 . S
O788 C787 1.235 . S
C789 C791 1.400 . S
C789 N792 1.351 . S
C789 C794 1.501 . S
C790 C791 1.387 . S
C790 N793 1.341 . S
C791 C789 1.400 . S
C791 C790 1.387 . S
N792 Co783 2.022 . S
N792 C789 1.351 . S
N792 N793 1.365 . S
N793 C790 1.341 . S
N793 N792 1.365 . S
N793 H813 0.862 . S
C794 C789 1.501 . S
C794 H795 0.961 . S
C794 H796 0.961 . S
C794 H797 0.960 . S
H795 C794 0.961 . S
H796 C794 0.961 . S
H797 C794 0.960 . S
C798 N799 1.342 . S
C798 C802 1.401 . S
C798 C803 1.499 . S
N799 Co782 1.989 . S
N799 C798 1.342 . S
N799 N800 1.388 . S
N800 Co783 1.993 . S
N800 N799 1.388 . S
N800 C801 1.346 . S
C801 N800 1.346 . S
C801 C802 1.396 . S
C801 C811 1.510 . S
C802 C798 1.401 . S
C802 C801 1.396 . S
C803 C798 1.499 . S
C803 H804 0.959 . S
C803 H805 0.960 . S
C803 H806 0.961 . S
H804 C803 0.959 . S
H805 C803 0.960 . S
H806 C803 0.961 . S
O807 Co782 1.967 . S
O807 C815 1.258 . S
O808 Co783 1.941 . S
O808 C815 1.266 . S
H809 C811 0.959 . S
H810 C811 0.961 . S
C811 C801 1.510 . S
C811 H809 0.959 . S
C811 H810 0.961 . S
C811 H812 0.960 . S
H812 C811 0.960 . S
H813 N793 0.862 . S
O814 Co782 1.920 . S
O814 C787 1.289 . S
C815 O807 1.258 . S
C815 O808 1.266 . S
C816 C817 1.387 . S
C816 H820 0.950 . S
C816 C825 1.390 . S
C817 C816 1.387 . S
C817 C819 1.387 . S
H818 C825 0.950 . S
C819 C817 1.387 . S
C819 C821 1.390 . S
C819 H823 0.950 . S
H820 C816 0.950 . S
C821 C819 1.390 . S
C821 C822 1.387 . S
C821 H824 0.950 . S
C822 C821 1.387 . S
C822 C825 1.387 . S
H823 C819 0.950 . S
H824 C821 0.950 . S
C825 C816 1.390 . S
C825 H818 0.950 . S
C825 C822 1.387 . S
C826 C827 1.387 . S
C826 H830 0.950 . S
C826 C835 1.390 . S
C827 C826 1.387 . S
C827 C829 1.387 . S
H828 C835 0.950 . S
C829 C827 1.387 . S
C829 C831 1.390 . S
C829 H833 0.950 . S
H830 C826 0.950 . S
C831 C829 1.390 . S
C831 C832 1.387 . S
C831 H834 0.950 . S
C832 C831 1.387 . S
C832 C835 1.387 . S
H833 C829 0.950 . S
H834 C831 0.950 . S
C835 C826 1.390 . S
C835 H828 0.950 . S
C835 C832 1.387 . S
C836 C837 1.387 . S
C836 H840 0.950 . S
C836 C845 1.390 . S
C837 C836 1.387 . S
C837 C839 1.387 . S
H838 C845 0.950 . S
C839 C837 1.387 . S
C839 C841 1.390 . S
C839 H843 0.950 . S
H840 C836 0.950 . S
C841 C839 1.390 . S
C841 C842 1.387 . S
C841 H844 0.950 . S
C842 C841 1.387 . S
C842 C845 1.387 . S
H843 C839 0.950 . S
H844 C841 0.950 . S
C845 C836 1.390 . S
C845 H838 0.950 . S
C845 C842 1.387 . S
C846 C847 1.387 . S
C846 H850 0.950 . S
C846 C855 1.390 . S
C847 C846 1.387 . S
C847 C849 1.387 . S
H848 C855 0.950 . S
C849 C847 1.387 . S
C849 C851 1.390 . S
C849 H853 0.950 . S
H850 C846 0.950 . S
C851 C849 1.390 . S
C851 C852 1.387 . S
C851 H854 0.950 . S
C852 C851 1.387 . S
C852 C855 1.387 . S
H853 C849 0.950 . S
H854 C851 0.950 . S
C855 C846 1.390 . S
C855 H848 0.950 . S
C855 C852 1.387 . S
C856 C857 1.387 . S
C856 H860 0.950 . S
C856 C865 1.390 . S
C857 C856 1.387 . S
C857 C859 1.387 . S
H858 C865 0.950 . S
C859 C857 1.387 . S
C859 C861 1.390 . S
C859 H863 0.950 . S
H860 C856 0.950 . S
C861 C859 1.390 . S
C861 C862 1.387 . S
C861 H864 0.950 . S
C862 C861 1.387 . S
C862 C865 1.387 . S
H863 C859 0.950 . S
H864 C861 0.950 . S
C865 C856 1.390 . S
C865 H858 0.950 . S
C865 C862 1.387 . S
C866 C867 1.387 . S
C866 H870 0.950 . S
C866 C875 1.390 . S
C867 C866 1.387 . S
C867 C869 1.387 . S
H868 C875 0.950 . S
C869 C867 1.387 . S
C869 C871 1.390 . S
C869 H873 0.950 . S
H870 C866 0.950 . S
C871 C869 1.390 . S
C871 C872 1.387 . S
C871 H874 0.950 . S
C872 C871 1.387 . S
C872 C875 1.387 . S
H873 C869 0.950 . S
H874 C871 0.950 . S
C875 C866 1.390 . S
C875 H868 0.950 . S
C875 C872 1.387 . S
C876 C877 1.387 . S
C876 H880 0.950 . S
C876 C885 1.390 . S
C877 C876 1.387 . S
C877 C879 1.387 . S
H878 C885 0.950 . S
C879 C877 1.387 . S
C879 C881 1.390 . S
C879 H883 0.950 . S
H880 C876 0.950 . S
C881 C879 1.390 . S
C881 C882 1.387 . S
C881 H884 0.950 . S
C882 C881 1.387 . S
C882 C885 1.387 . S
H883 C879 0.950 . S
H884 C881 0.950 . S
C885 C876 1.390 . S
C885 H878 0.950 . S
C885 C882 1.387 . S
C886 C887 1.387 . S
C886 H890 0.950 . S
C886 C895 1.390 . S
C887 C886 1.387 . S
C887 C889 1.387 . S
H888 C895 0.950 . S
C889 C887 1.387 . S
C889 C891 1.390 . S
C889 H893 0.950 . S
H890 C886 0.950 . S
C891 C889 1.390 . S
C891 C892 1.387 . S
C891 H894 0.950 . S
C892 C891 1.387 . S
C892 C895 1.387 . S
H893 C889 0.950 . S
H894 C891 0.950 . S
C895 C886 1.390 . S
C895 H888 0.950 . S
C895 C892 1.387 . S
C896 C897 1.387 . S
C896 H900 0.950 . S
C896 C905 1.390 . S
C897 C896 1.387 . S
C897 C899 1.387 . S
H898 C905 0.950 . S
C899 C897 1.387 . S
C899 C901 1.390 . S
C899 H903 0.950 . S
H900 C896 0.950 . S
C901 C899 1.390 . S
C901 C902 1.387 . S
C901 H904 0.950 . S
C902 C901 1.387 . S
C902 C905 1.387 . S
H903 C899 0.950 . S
H904 C901 0.950 . S
C905 C896 1.390 . S
C905 H898 0.950 . S
C905 C902 1.387 . S
C906 C907 1.387 . S
C906 H910 0.950 . S
C906 C915 1.390 . S
C907 C906 1.387 . S
C907 C909 1.387 . S
H908 C915 0.950 . S
C909 C907 1.387 . S
C909 C911 1.390 . S
C909 H913 0.950 . S
H910 C906 0.950 . S
C911 C909 1.390 . S
C911 C912 1.387 . S
C911 H914 0.950 . S
C912 C911 1.387 . S
C912 C915 1.387 . S
H913 C909 0.950 . S
H914 C911 0.950 . S
C915 C906 1.390 . S
C915 H908 0.950 . S
C915 C912 1.387 . S
C916 C917 1.387 . S
C916 H920 0.950 . S
C916 C925 1.390 . S
C917 C916 1.387 . S
C917 C919 1.387 . S
H918 C925 0.950 . S
C919 C917 1.387 . S
C919 C921 1.390 . S
C919 H923 0.950 . S
H920 C916 0.950 . S
C921 C919 1.390 . S
C921 C922 1.387 . S
C921 H924 0.950 . S
C922 C921 1.387 . S
C922 C925 1.387 . S
H923 C919 0.950 . S
H924 C921 0.950 . S
C925 C916 1.390 . S
C925 H918 0.950 . S
C925 C922 1.387 . S
C926 C927 1.387 . S
C926 H930 0.950 . S
C926 C935 1.390 . S
C927 C926 1.387 . S
C927 C929 1.387 . S
H928 C935 0.950 . S
C929 C927 1.387 . S
C929 C931 1.390 . S
C929 H933 0.950 . S
H930 C926 0.950 . S
C931 C929 1.390 . S
C931 C932 1.387 . S
C931 H934 0.950 . S
C932 C931 1.387 . S
C932 C935 1.387 . S
H933 C929 0.950 . S
H934 C931 0.950 . S
C935 C926 1.390 . S
C935 H928 0.950 . S
C935 C932 1.387 . S
C936 C937 1.387 . S
C936 H940 0.950 . S
C936 C945 1.390 . S
C937 C936 1.387 . S
C937 C939 1.387 . S
H938 C945 0.950 . S
C939 C937 1.387 . S
C939 C941 1.390 . S
C939 H943 0.950 . S
H940 C936 0.950 . S
C941 C939 1.390 . S
C941 C942 1.387 . S
C941 H944 0.950 . S
C942 C941 1.387 . S
C942 C945 1.387 . S
H943 C939 0.950 . S
H944 C941 0.950 . S
C945 C936 1.390 . S
C945 H938 0.950 . S
C945 C942 1.387 . S
C946 C947 1.387 . S
C946 H950 0.950 . S
C946 C955 1.390 . S
C947 C946 1.387 . S
C947 C949 1.387 . S
H948 C955 0.950 . S
C949 C947 1.387 . S
C949 C951 1.390 . S
C949 H953 0.950 . S
H950 C946 0.950 . S
C951 C949 1.390 . S
C951 C952 1.387 . S
C951 H954 0.950 . S
C952 C951 1.387 . S
C952 C955 1.387 . S
H953 C949 0.950 . S
H954 C951 0.950 . S
C955 C946 1.390 . S
C955 H948 0.950 . S
C955 C952 1.387 . S
C956 C957 1.387 . S
C956 H960 0.950 . S
C956 C965 1.390 . S
C957 C956 1.387 . S
C957 C959 1.387 . S
H958 C965 0.950 . S
C959 C957 1.387 . S
C959 C961 1.390 . S
C959 H963 0.950 . S
H960 C956 0.950 . S
C961 C959 1.390 . S
C961 C962 1.387 . S
C961 H964 0.950 . S
C962 C961 1.387 . S
C962 C965 1.387 . S
H963 C959 0.950 . S
H964 C961 0.950 . S
C965 C956 1.390 . S
C965 H958 0.950 . S
C965 C962 1.387 . S
C966 C967 1.387 . S
C966 H970 0.950 . S
C966 C975 1.390 . S
C967 C966 1.387 . S
C967 C969 1.387 . S
H968 C975 0.950 . S
C969 C967 1.387 . S
C969 C971 1.390 . S
C969 H973 0.950 . S
H970 C966 0.950 . S
C971 C969 1.390 . S
C971 C972 1.387 . S
C971 H974 0.950 . S
C972 C971 1.387 . S
C972 C975 1.387 . S
H973 C969 0.950 . S
H974 C971 0.950 . S
C975 C966 1.390 . S
C975 H968 0.950 . S
C975 C972 1.387 . S
C976 C977 1.387 . S
C976 H980 0.950 . S
C976 C985 1.390 . S
C977 C976 1.387 . S
C977 C979 1.387 . S
H978 C985 0.950 . S
C979 C977 1.387 . S
C979 C981 1.390 . S
C979 H983 0.950 . S
H980 C976 0.950 . S
C981 C979 1.390 . S
C981 C982 1.387 . S
C981 H984 0.950 . S
C982 C981 1.387 . S
C982 C985 1.387 . S
H983 C979 0.950 . S
H984 C981 0.950 . S
C985 C976 1.390 . S
C985 H978 0.950 . S
C985 C982 1.387 . S
C986 C987 1.387 . S
C986 H990 0.950 . S
C986 C995 1.390 . S
C987 C986 1.387 . S
C987 C989 1.387 . S
H988 C995 0.950 . S
C989 C987 1.387 . S
C989 C991 1.390 . S
C989 H993 0.950 . S
H990 C986 0.950 . S
C991 C989 1.390 . S
C991 C992 1.387 . S
C991 H994 0.950 1_545 S
C992 C991 1.387 . S
C992 C995 1.387 . S
H993 C989 0.950 . S
H994 C991 0.950 1_565 S
C995 C986 1.390 . S
C995 H988 0.950 . S
C995 C992 1.387 . S
C996 C997 1.387 . S
C996 H1000 0.950 . S
C996 C1005 1.390 . S
C997 C996 1.387 . S
C997 C999 1.387 . S
H998 C1005 0.950 . S
C999 C997 1.387 . S
C999 C1001 1.390 . S
C999 H1003 0.950 . S
H1000 C996 0.950 . S
C1001 C999 1.390 . S
C1001 C1002 1.387 . S
C1001 H1004 0.950 . S
C1002 C1001 1.387 . S
C1002 C1005 1.387 . S
H1003 C999 0.950 . S
H1004 C1001 0.950 . S
C1005 C996 1.390 . S
C1005 H998 0.950 . S
C1005 C1002 1.387 . S
C1006 C1007 1.387 . S
C1006 H1010 0.950 . S
C1006 C1015 1.390 . S
C1007 C1006 1.387 . S
C1007 C1009 1.387 . S
H1008 C1015 0.950 . S
C1009 C1007 1.387 . S
C1009 C1011 1.390 . S
C1009 H1013 0.950 1_565 S
H1010 C1006 0.950 . S
C1011 C1009 1.390 . S
C1011 C1012 1.387 . S
C1011 H1014 0.950 . S
C1012 C1011 1.387 . S
C1012 C1015 1.387 . S
H1013 C1009 0.950 1_545 S
H1014 C1011 0.950 . S
C1015 C1006 1.390 . S
C1015 H1008 0.950 . S
C1015 C1012 1.387 . S
C1016 C1017 1.387 . S
C1016 H1020 0.950 . S
C1016 C1025 1.390 . S
C1017 C1016 1.387 . S
C1017 C1019 1.387 . S
H1018 C1025 0.950 . S
C1019 C1017 1.387 . S
C1019 C1021 1.390 . S
C1019 H1023 0.950 . S
H1020 C1016 0.950 . S
C1021 C1019 1.390 . S
C1021 C1022 1.387 . S
C1021 H1024 0.950 . S
C1022 C1021 1.387 . S
C1022 C1025 1.387 . S
H1023 C1019 0.950 . S
H1024 C1021 0.950 . S
C1025 C1016 1.390 . S
C1025 H1018 0.950 . S
C1025 C1022 1.387 . S
C1026 C1027 1.387 . S
C1026 H1030 0.950 . S
C1026 C1035 1.390 . S
C1027 C1026 1.387 . S
C1027 C1029 1.387 . S
H1028 C1035 0.950 . S
C1029 C1027 1.387 . S
C1029 C1031 1.390 . S
C1029 H1033 0.950 . S
H1030 C1026 0.950 . S
C1031 C1029 1.390 . S
C1031 C1032 1.387 . S
C1031 H1034 0.950 . S
C1032 C1031 1.387 . S
C1032 C1035 1.387 . S
H1033 C1029 0.950 . S
H1034 C1031 0.950 . S
C1035 C1026 1.390 . S
C1035 H1028 0.950 . S
C1035 C1032 1.387 . S
C1036 C1037 1.387 . S
C1036 H1040 0.950 . S
C1036 C1045 1.390 . S
C1037 C1036 1.387 . S
C1037 C1039 1.387 . S
H1038 C1045 0.950 . S
C1039 C1037 1.387 . S
C1039 C1041 1.390 . S
C1039 H1043 0.950 . S
H1040 C1036 0.950 . S
C1041 C1039 1.390 . S
C1041 C1042 1.387 . S
C1041 H1044 0.950 . S
C1042 C1041 1.387 . S
C1042 C1045 1.387 . S
H1043 C1039 0.950 . S
H1044 C1041 0.950 . S
C1045 C1036 1.390 . S
C1045 H1038 0.950 . S
C1045 C1042 1.387 . S
C1046 C1047 1.387 . S
C1046 H1050 0.950 . S
C1046 C1055 1.390 . S
C1047 C1046 1.387 . S
C1047 C1049 1.387 . S
H1048 C1055 0.950 . S
C1049 C1047 1.387 . S
C1049 C1051 1.390 . S
C1049 H1053 0.950 . S
H1050 C1046 0.950 . S
C1051 C1049 1.390 . S
C1051 C1052 1.387 . S
C1051 H1054 0.950 . S
C1052 C1051 1.387 . S
C1052 C1055 1.387 . S
H1053 C1049 0.950 . S
H1054 C1051 0.950 . S
C1055 C1046 1.390 . S
C1055 H1048 0.950 . S
C1055 C1052 1.387 . S
C1056 C1057 1.387 . S
C1056 H1060 0.950 . S
C1056 C1065 1.390 . S
C1057 C1056 1.387 . S
C1057 C1059 1.387 . S
H1058 C1065 0.950 . S
C1059 C1057 1.387 . S
C1059 C1061 1.390 . S
C1059 H1063 0.950 . S
H1060 C1056 0.950 . S
C1061 C1059 1.390 . S
C1061 C1062 1.387 . S
C1061 H1064 0.950 . S
C1062 C1061 1.387 . S
C1062 C1065 1.387 . S
H1063 C1059 0.950 . S
H1064 C1061 0.950 . S
C1065 C1056 1.390 . S
C1065 H1058 0.950 . S
C1065 C1062 1.387 . S
C1066 C1067 1.387 . S
C1066 H1070 0.950 . S
C1066 C1075 1.390 . S
C1067 C1066 1.387 . S
C1067 C1069 1.387 . S
H1068 C1075 0.950 1_554 S
C1069 C1067 1.387 . S
C1069 C1071 1.390 . S
C1069 H1073 0.950 . S
H1070 C1066 0.950 . S
C1071 C1069 1.390 . S
C1071 C1072 1.387 . S
C1071 H1074 0.950 . S
C1072 C1071 1.387 . S
C1072 C1075 1.387 . S
H1073 C1069 0.950 . S
H1074 C1071 0.950 . S
C1075 C1066 1.390 . S
C1075 H1068 0.950 1_556 S
C1075 C1072 1.387 . S
C1076 C1077 1.387 . S
C1076 H1080 0.950 . S
C1076 C1085 1.390 . S
C1077 C1076 1.387 . S
C1077 C1079 1.387 . S
H1078 C1085 0.950 . S
C1079 C1077 1.387 . S
C1079 C1081 1.390 . S
C1079 H1083 0.950 . S
H1080 C1076 0.950 . S
C1081 C1079 1.390 . S
C1081 C1082 1.387 . S
C1081 H1084 0.950 . S
C1082 C1081 1.387 . S
C1082 C1085 1.387 . S
H1083 C1079 0.950 . S
H1084 C1081 0.950 . S
C1085 C1076 1.390 . S
C1085 H1078 0.950 . S
C1085 C1082 1.387 . S
C1086 C1087 1.387 . S
C1086 H1090 0.950 . S
C1086 C1095 1.390 1_455 S
C1087 C1086 1.387 . S
C1087 C1089 1.387 . S
H1088 C1095 0.950 . S
C1089 C1087 1.387 . S
C1089 C1091 1.390 . S
C1089 H1093 0.950 . S
H1090 C1086 0.950 . S
C1091 C1089 1.390 . S
C1091 C1092 1.387 1_455 S
C1091 H1094 0.950 . S
C1092 C1091 1.387 1_655 S
C1092 C1095 1.387 . S
H1093 C1089 0.950 . S
H1094 C1091 0.950 . S
C1095 C1086 1.390 1_655 S
C1095 H1088 0.950 . S
C1095 C1092 1.387 . S
C1096 C1097 1.387 . S
C1096 H1100 0.950 . S
C1096 C1105 1.390 . S
C1097 C1096 1.387 . S
C1097 C1099 1.387 . S
H1098 C1105 0.950 . S
C1099 C1097 1.387 . S
C1099 C1101 1.390 . S
C1099 H1103 0.950 . S
H1100 C1096 0.950 . S
C1101 C1099 1.390 . S
C1101 C1102 1.387 . S
C1101 H1104 0.950 . S
C1102 C1101 1.387 . S
C1102 C1105 1.387 . S
H1103 C1099 0.950 . S
H1104 C1101 0.950 . S
C1105 C1096 1.390 . S
C1105 H1098 0.950 . S
C1105 C1102 1.387 . S
C1106 C1107 1.387 . S
C1106 H1110 0.950 . S
C1106 C1115 1.390 . S
C1107 C1106 1.387 . S
C1107 C1109 1.387 . S
H1108 C1115 0.950 . S
C1109 C1107 1.387 . S
C1109 C1111 1.390 . S
C1109 H1113 0.950 . S
H1110 C1106 0.950 . S
C1111 C1109 1.390 . S
C1111 C1112 1.387 . S
C1111 H1114 0.950 . S
C1112 C1111 1.387 . S
C1112 C1115 1.387 . S
H1113 C1109 0.950 . S
H1114 C1111 0.950 . S
C1115 C1106 1.390 . S
C1115 H1108 0.950 . S
C1115 C1112 1.387 . S
C1116 C1117 1.387 . S
C1116 H1120 0.950 . S
C1116 C1125 1.390 . S
C1117 C1116 1.387 . S
C1117 C1119 1.387 . S
H1118 C1125 0.950 . S
C1119 C1117 1.387 . S
C1119 C1121 1.390 . S
C1119 H1123 0.950 . S
H1120 C1116 0.950 . S
C1121 C1119 1.390 . S
C1121 C1122 1.387 . S
C1121 H1124 0.950 . S
C1122 C1121 1.387 . S
C1122 C1125 1.387 . S
H1123 C1119 0.950 . S
H1124 C1121 0.950 . S
C1125 C1116 1.390 . S
C1125 H1118 0.950 . S
C1125 C1122 1.387 . S
C1126 C1127 1.387 . S
C1126 H1130 0.950 . S
C1126 C1135 1.390 1_455 S
C1127 C1126 1.387 . S
C1127 C1129 1.387 1_455 S
H1128 C1135 0.950 . S
C1129 C1127 1.387 1_655 S
C1129 C1131 1.390 . S
C1129 H1133 0.950 . S
H1130 C1126 0.950 . S
C1131 C1129 1.390 . S
C1131 C1132 1.387 . S
C1131 H1134 0.950 . S
C1132 C1131 1.387 . S
C1132 C1135 1.387 . S
H1133 C1129 0.950 . S
H1134 C1131 0.950 . S
C1135 C1126 1.390 1_655 S
C1135 H1128 0.950 . S
C1135 C1132 1.387 . S
C1136 C1137 1.387 . S
C1136 H1140 0.950 . S
C1136 C1145 1.390 . S
C1137 C1136 1.387 . S
C1137 C1139 1.387 . S
H1138 C1145 0.950 . S
C1139 C1137 1.387 . S
C1139 C1141 1.390 . S
C1139 H1143 0.950 . S
H1140 C1136 0.950 . S
C1141 C1139 1.390 . S
C1141 C1142 1.387 . S
C1141 H1144 0.950 . S
C1142 C1141 1.387 . S
C1142 C1145 1.387 . S
H1143 C1139 0.950 . S
H1144 C1141 0.950 . S
C1145 C1136 1.390 . S
C1145 H1138 0.950 . S
C1145 C1142 1.387 . S
C1146 C1147 1.387 1_554 S
C1146 H1150 0.950 . S
C1146 C1155 1.390 . S
C1147 C1146 1.387 1_556 S
C1147 C1149 1.387 . S
H1148 C1155 0.950 . S
C1149 C1147 1.387 . S
C1149 C1151 1.390 1_556 S
C1149 H1153 0.950 . S
H1150 C1146 0.950 . S
C1151 C1149 1.390 1_554 S
C1151 C1152 1.387 . S
C1151 H1154 0.951 . S
C1152 C1151 1.387 . S
C1152 C1155 1.387 . S
H1153 C1149 0.950 . S
H1154 C1151 0.951 . S
C1155 C1146 1.390 . S
C1155 H1148 0.950 . S
C1155 C1152 1.387 . S
C1156 C1157 1.387 . S
C1156 H1160 0.950 . S
C1156 C1165 1.390 . S
C1157 C1156 1.387 . S
C1157 C1159 1.387 . S
H1158 C1165 0.950 . S
C1159 C1157 1.387 . S
C1159 C1161 1.390 . S
C1159 H1163 0.950 . S
H1160 C1156 0.950 . S
C1161 C1159 1.390 . S
C1161 C1162 1.387 . S
C1161 H1164 0.950 . S
C1162 C1161 1.387 . S
C1162 C1165 1.387 . S
H1163 C1159 0.950 . S
H1164 C1161 0.950 . S
C1165 C1156 1.390 . S
C1165 H1158 0.950 . S
C1165 C1162 1.387 . S
C1166 C1167 1.387 . S
C1166 H1170 0.950 . S
C1166 C1175 1.390 . S
C1167 C1166 1.387 . S
C1167 C1169 1.387 . S
H1168 C1175 0.950 . S
C1169 C1167 1.387 . S
C1169 C1171 1.390 . S
C1169 H1173 0.950 . S
H1170 C1166 0.950 . S
C1171 C1169 1.390 . S
C1171 C1172 1.387 . S
C1171 H1174 0.950 . S
C1172 C1171 1.387 . S
C1172 C1175 1.387 . S
H1173 C1169 0.950 . S
H1174 C1171 0.950 . S
C1175 C1166 1.390 . S
C1175 H1168 0.950 . S
C1175 C1172 1.387 . S
C1176 C1177 1.387 . S
C1176 H1180 0.950 . S
C1176 C1185 1.390 . S
C1177 C1176 1.387 . S
C1177 C1179 1.387 . S
H1178 C1185 0.950 . S
C1179 C1177 1.387 . S
C1179 C1181 1.390 . S
C1179 H1183 0.950 . S
H1180 C1176 0.950 . S
C1181 C1179 1.390 . S
C1181 C1182 1.387 . S
C1181 H1184 0.950 . S
C1182 C1181 1.387 . S
C1182 C1185 1.387 . S
H1183 C1179 0.950 . S
H1184 C1181 0.950 . S
C1185 C1176 1.390 . S
C1185 H1178 0.950 . S
C1185 C1182 1.387 . S
C1186 C1187 1.387 . S
C1186 H1190 0.950 . S
C1186 C1195 1.390 . S
C1187 C1186 1.387 . S
C1187 C1189 1.387 . S
H1188 C1195 0.950 . S
C1189 C1187 1.387 . S
C1189 C1191 1.390 . S
C1189 H1193 0.950 . S
H1190 C1186 0.950 . S
C1191 C1189 1.390 . S
C1191 C1192 1.387 . S
C1191 H1194 0.950 1_565 S
C1192 C1191 1.387 . S
C1192 C1195 1.387 . S
H1193 C1189 0.950 . S
H1194 C1191 0.950 1_545 S
C1195 C1186 1.390 . S
C1195 H1188 0.950 . S
C1195 C1192 1.387 . S
C1196 C1197 1.387 . S
C1196 H1200 0.950 . S
C1196 C1205 1.390 . S
C1197 C1196 1.387 . S
C1197 C1199 1.387 . S
H1198 C1205 0.950 . S
C1199 C1197 1.387 . S
C1199 C1201 1.390 . S
C1199 H1203 0.950 . S
H1200 C1196 0.950 . S
C1201 C1199 1.390 . S
C1201 C1202 1.387 . S
C1201 H1204 0.950 . S
C1202 C1201 1.387 . S
C1202 C1205 1.387 . S
H1203 C1199 0.950 . S
H1204 C1201 0.950 . S
C1205 C1196 1.390 . S
C1205 H1198 0.950 . S
C1205 C1202 1.387 . S
C1206 C1207 1.387 . S
C1206 H1210 0.950 . S
C1206 C1215 1.390 1_554 S
C1207 C1206 1.387 . S
C1207 C1209 1.387 1_554 S
H1208 C1215 0.950 . S
C1209 C1207 1.387 1_556 S
C1209 C1211 1.390 . S
C1209 H1213 0.950 . S
H1210 C1206 0.950 . S
C1211 C1209 1.390 . S
C1211 C1212 1.387 . S
C1211 H1214 0.950 . S
C1212 C1211 1.387 . S
C1212 C1215 1.387 . S
H1213 C1209 0.950 . S
H1214 C1211 0.950 . S
C1215 C1206 1.390 1_556 S
C1215 H1208 0.950 . S
C1215 C1212 1.387 . S
C1216 C1217 1.387 . S
C1216 H1220 0.950 . S
C1216 C1225 1.390 . S
C1217 C1216 1.387 . S
C1217 C1219 1.387 . S
H1218 C1225 0.950 . S
C1219 C1217 1.387 . S
C1219 C1221 1.390 . S
C1219 H1223 0.950 . S
H1220 C1216 0.950 . S
C1221 C1219 1.390 . S
C1221 C1222 1.387 . S
C1221 H1224 0.950 . S
C1222 C1221 1.387 . S
C1222 C1225 1.387 . S
H1223 C1219 0.950 . S
H1224 C1221 0.950 . S
C1225 C1216 1.390 . S
C1225 H1218 0.950 . S
C1225 C1222 1.387 . S
C1226 C1227 1.387 . S
C1226 H1230 0.950 . S
C1226 C1235 1.390 . S
C1227 C1226 1.387 . S
C1227 C1229 1.387 . S
H1228 C1235 0.950 . S
C1229 C1227 1.387 . S
C1229 C1231 1.390 . S
C1229 H1233 0.950 . S
H1230 C1226 0.950 . S
C1231 C1229 1.390 . S
C1231 C1232 1.387 . S
C1231 H1234 0.950 . S
C1232 C1231 1.387 . S
C1232 C1235 1.387 . S
H1233 C1229 0.950 . S
H1234 C1231 0.950 . S
C1235 C1226 1.390 . S
C1235 H1228 0.950 . S
C1235 C1232 1.387 . S
C1236 C1237 1.387 . S
C1236 H1240 0.950 . S
C1236 C1245 1.390 1_545 S
C1237 C1236 1.387 . S
C1237 C1239 1.387 . S
H1238 C1245 0.950 . S
C1239 C1237 1.387 . S
C1239 C1241 1.390 . S
C1239 H1243 0.950 . S
H1240 C1236 0.950 . S
C1241 C1239 1.390 . S
C1241 C1242 1.387 1_545 S
C1241 H1244 0.950 . S
C1242 C1241 1.387 1_565 S
C1242 C1245 1.387 . S
H1243 C1239 0.950 . S
H1244 C1241 0.950 . S
C1245 C1236 1.390 1_565 S
C1245 H1238 0.950 . S
C1245 C1242 1.387 . S
C1246 C1247 1.387 . S
C1246 H1250 0.950 . S
C1246 C1255 1.390 . S
C1247 C1246 1.387 . S
C1247 C1249 1.387 . S
H1248 C1255 0.950 . S
C1249 C1247 1.387 . S
C1249 C1251 1.390 . S
C1249 H1253 0.950 . S
H1250 C1246 0.950 . S
C1251 C1249 1.390 . S
C1251 C1252 1.387 . S
C1251 H1254 0.950 . S
C1252 C1251 1.387 . S
C1252 C1255 1.387 . S
H1253 C1249 0.950 . S
H1254 C1251 0.950 . S
C1255 C1246 1.390 . S
C1255 H1248 0.950 . S
C1255 C1252 1.387 . S
C1256 C1257 1.387 . S
C1256 H1260 0.950 . S
C1256 C1265 1.390 1_545 S
C1257 C1256 1.387 . S
C1257 C1259 1.387 1_545 S
H1258 C1265 0.950 . S
C1259 C1257 1.387 1_565 S
C1259 C1261 1.390 . S
C1259 H1263 0.950 . S
H1260 C1256 0.950 . S
C1261 C1259 1.390 . S
C1261 C1262 1.387 . S
C1261 H1264 0.950 . S
C1262 C1261 1.387 . S
C1262 C1265 1.387 . S
H1263 C1259 0.950 . S
H1264 C1261 0.950 . S
C1265 C1256 1.390 1_565 S
C1265 H1258 0.950 . S
C1265 C1262 1.387 . S
C1266 C1267 1.387 . S
C1266 H1270 0.950 . S
C1266 C1275 1.390 . S
C1267 C1266 1.387 . S
C1267 C1269 1.387 . S
H1268 C1275 0.950 . S
C1269 C1267 1.387 . S
C1269 C1271 1.390 . S
C1269 H1273 0.950 . S
H1270 C1266 0.950 . S
C1271 C1269 1.390 . S
C1271 C1272 1.387 . S
C1271 H1274 0.950 . S
C1272 C1271 1.387 . S
C1272 C1275 1.387 . S
H1273 C1269 0.950 . S
H1274 C1271 0.950 . S
C1275 C1266 1.390 . S
C1275 H1268 0.950 . S
C1275 C1272 1.387 . S
C1276 C1277 1.387 . S
C1276 H1280 0.950 . S
C1276 C1285 1.390 . S
C1277 C1276 1.387 . S
C1277 C1279 1.387 . S
H1278 C1285 0.950 . S
C1279 C1277 1.387 . S
C1279 C1281 1.390 . S
C1279 H1283 0.950 1_655 S
H1280 C1276 0.950 . S
C1281 C1279 1.390 . S
C1281 C1282 1.387 . S
C1281 H1284 0.950 . S
C1282 C1281 1.387 . S
C1282 C1285 1.387 . S
H1283 C1279 0.950 1_455 S
H1284 C1281 0.950 . S
C1285 C1276 1.390 . S
C1285 H1278 0.950 . S
C1285 C1282 1.387 . S
C1286 C1287 1.387 . S
C1286 H1290 0.950 . S
C1286 C1295 1.390 . S
C1287 C1286 1.387 . S
C1287 C1289 1.387 . S
H1288 C1295 0.950 . S
C1289 C1287 1.387 . S
C1289 C1291 1.390 . S
C1289 H1293 0.950 . S
H1290 C1286 0.950 . S
C1291 C1289 1.390 . S
C1291 C1292 1.387 . S
C1291 H1294 0.950 . S
C1292 C1291 1.387 . S
C1292 C1295 1.387 . S
H1293 C1289 0.950 . S
H1294 C1291 0.950 . S
C1295 C1286 1.390 . S
C1295 H1288 0.950 . S
C1295 C1292 1.387 . S
C1296 C1297 1.387 . S
C1296 H1300 0.950 . S
C1296 C1305 1.390 1_655 S
C1297 C1296 1.387 . S
C1297 C1299 1.387 . S
H1298 C1305 0.950 . S
C1299 C1297 1.387 . S
C1299 C1301 1.390 1_655 S
C1299 H1303 0.950 . S
H1300 C1296 0.950 . S
C1301 C1299 1.390 1_455 S
C1301 C1302 1.387 . S
C1301 H1304 0.950 . S
C1302 C1301 1.387 . S
C1302 C1305 1.387 . S
H1303 C1299 0.950 . S
H1304 C1301 0.950 . S
C1305 C1296 1.390 1_455 S
C1305 H1298 0.950 . S
C1305 C1302 1.387 . S
C1306 C1307 1.387 1_556 S
C1306 H1310 0.950 . S
C1306 C1315 1.390 . S
C1307 C1306 1.387 1_554 S
C1307 C1309 1.387 . S
H1308 C1315 0.950 . S
C1309 C1307 1.387 . S
C1309 C1311 1.390 . S
C1309 H1313 0.950 . S
H1310 C1306 0.950 . S
C1311 C1309 1.390 . S
C1311 C1312 1.387 1_554 S
C1311 H1314 0.950 . S
C1312 C1311 1.387 1_556 S
C1312 C1315 1.387 . S
H1313 C1309 0.950 . S
H1314 C1311 0.950 . S
C1315 C1306 1.390 . S
C1315 H1308 0.950 . S
C1315 C1312 1.387 . S
C1316 C1317 1.387 . S
C1316 H1320 0.950 . S
C1316 C1325 1.390 . S
C1317 C1316 1.387 . S
C1317 C1319 1.387 . S
H1318 C1325 0.950 . S
C1319 C1317 1.387 . S
C1319 C1321 1.390 . S
C1319 H1323 0.950 . S
H1320 C1316 0.950 . S
C1321 C1319 1.390 . S
C1321 C1322 1.387 . S
C1321 H1324 0.950 . S
C1322 C1321 1.387 . S
C1322 C1325 1.387 . S
H1323 C1319 0.950 . S
H1324 C1321 0.950 . S
C1325 C1316 1.390 . S
C1325 H1318 0.950 . S
C1325 C1322 1.387 . S
C1326 C1327 1.387 . S
C1326 H1330 0.950 . S
C1326 C1335 1.390 . S
C1327 C1326 1.387 . S
C1327 C1329 1.387 . S
H1328 C1335 0.950 . S
C1329 C1327 1.387 . S
C1329 C1331 1.390 . S
C1329 H1333 0.950 . S
H1330 C1326 0.950 . S
C1331 C1329 1.390 . S
C1331 C1332 1.387 . S
C1331 H1334 0.950 . S
C1332 C1331 1.387 . S
C1332 C1335 1.387 . S
H1333 C1329 0.950 . S
H1334 C1331 0.950 . S
C1335 C1326 1.390 . S
C1335 H1328 0.950 . S
C1335 C1332 1.387 . S
C1336 C1337 1.387 . S
C1336 H1340 0.950 . S
C1336 C1345 1.390 . S
C1337 C1336 1.387 . S
C1337 C1339 1.387 . S
H1338 C1345 0.950 . S
C1339 C1337 1.387 . S
C1339 C1341 1.390 . S
C1339 H1343 0.950 . S
H1340 C1336 0.950 . S
C1341 C1339 1.390 . S
C1341 C1342 1.387 . S
C1341 H1344 0.950 . S
C1342 C1341 1.387 . S
C1342 C1345 1.387 . S
H1343 C1339 0.950 . S
H1344 C1341 0.950 . S
C1345 C1336 1.390 . S
C1345 H1338 0.950 . S
C1345 C1342 1.387 . S
C1346 C1347 1.387 . S
C1346 H1350 0.950 . S
C1346 C1355 1.390 . S
C1347 C1346 1.387 . S
C1347 C1349 1.387 . S
H1348 C1355 0.950 . S
C1349 C1347 1.387 . S
C1349 C1351 1.390 . S
C1349 H1353 0.950 . S
H1350 C1346 0.950 . S
C1351 C1349 1.390 . S
C1351 C1352 1.387 . S
C1351 H1354 0.950 . S
C1352 C1351 1.387 . S
C1352 C1355 1.387 . S
H1353 C1349 0.950 . S
H1354 C1351 0.950 . S
C1355 C1346 1.390 . S
C1355 H1348 0.950 . S
C1355 C1352 1.387 . S
C1356 C1357 1.387 . S
C1356 H1360 0.950 . S
C1356 C1365 1.390 1_655 S
C1357 C1356 1.387 . S
C1357 C1359 1.387 . S
H1358 C1365 0.950 . S
C1359 C1357 1.387 . S
C1359 C1361 1.390 1_655 S
C1359 H1363 0.950 . S
H1360 C1356 0.950 . S
C1361 C1359 1.390 1_455 S
C1361 C1362 1.387 . S
C1361 H1364 0.950 . S
C1362 C1361 1.387 . S
C1362 C1365 1.387 . S
H1363 C1359 0.950 . S
H1364 C1361 0.950 . S
C1365 C1356 1.390 1_455 S
C1365 H1358 0.950 . S
C1365 C1362 1.387 . S
C1366 C1367 1.387 1_556 S
C1366 H1370 0.951 . S
C1366 C1375 1.390 . S
C1367 C1366 1.387 1_554 S
C1367 C1369 1.387 . S
H1368 C1375 0.950 . S
C1369 C1367 1.387 . S
C1369 C1371 1.390 1_554 S
C1369 H1373 0.950 . S
H1370 C1366 0.951 . S
C1371 C1369 1.390 1_556 S
C1371 C1372 1.387 . S
C1371 H1374 0.950 . S
C1372 C1371 1.387 . S
C1372 C1375 1.387 . S
H1373 C1369 0.950 . S
H1374 C1371 0.950 . S
C1375 C1366 1.390 . S
C1375 H1368 0.950 . S
C1375 C1372 1.387 . S
C1376 C1377 1.387 . S
C1376 H1380 0.950 . S
C1376 C1385 1.390 1_565 S
C1377 C1376 1.387 . S
C1377 C1379 1.387 . S
H1378 C1385 0.950 . S
C1379 C1377 1.387 . S
C1379 C1381 1.390 1_565 S
C1379 H1383 0.950 . S
H1380 C1376 0.950 . S
C1381 C1379 1.390 1_545 S
C1381 C1382 1.387 . S
C1381 H1384 0.950 . S
C1382 C1381 1.387 . S
C1382 C1385 1.387 . S
H1383 C1379 0.950 . S
H1384 C1381 0.950 . S
C1385 C1376 1.390 1_545 S
C1385 H1378 0.950 . S
C1385 C1382 1.387 . S
C1386 C1387 1.387 . S
C1386 H1390 0.950 . S
C1386 C1395 1.390 . S
C1387 C1386 1.387 . S
C1387 C1389 1.387 . S
H1388 C1395 0.950 . S
C1389 C1387 1.387 . S
C1389 C1391 1.390 . S
C1389 H1393 0.950 . S
H1390 C1386 0.950 . S
C1391 C1389 1.390 . S
C1391 C1392 1.387 . S
C1391 H1394 0.950 . S
C1392 C1391 1.387 . S
C1392 C1395 1.387 . S
H1393 C1389 0.950 . S
H1394 C1391 0.950 . S
C1395 C1386 1.390 . S
C1395 H1388 0.950 . S
C1395 C1392 1.387 . S
C1396 C1397 1.387 . S
C1396 H1400 0.950 . S
C1396 C1405 1.390 . S
C1397 C1396 1.387 . S
C1397 C1399 1.387 . S
H1398 C1405 0.950 . S
C1399 C1397 1.387 . S
C1399 C1401 1.390 1_545 S
C1399 H1403 0.950 . S
H1400 C1396 0.950 . S
C1401 C1399 1.390 1_565 S
C1401 C1402 1.387 . S
C1401 H1404 0.950 . S
C1402 C1401 1.387 . S
C1402 C1405 1.387 1_565 S
H1403 C1399 0.950 . S
H1404 C1401 0.950 . S
C1405 C1396 1.390 . S
C1405 H1398 0.950 . S
C1405 C1402 1.387 1_545 S
C1406 C1407 1.387 . S
C1406 H1410 0.950 . S
C1406 C1415 1.390 . S
C1407 C1406 1.387 . S
C1407 C1409 1.387 . S
H1408 C1415 0.950 . S
C1409 C1407 1.387 . S
C1409 C1411 1.390 . S
C1409 H1413 0.950 . S
H1410 C1406 0.950 . S
C1411 C1409 1.390 . S
C1411 C1412 1.387 . S
C1411 H1414 0.950 . S
C1412 C1411 1.387 . S
C1412 C1415 1.387 . S
H1413 C1409 0.950 . S
H1414 C1411 0.950 . S
C1415 C1406 1.390 . S
C1415 H1408 0.950 . S
C1415 C1412 1.387 . S
C817 C451 1.515 . S
C822 C20 1.670 . S
C827 C54 1.670 . S
C832 C485 1.515 . S
C837 C88 1.671 . S
C842 C519 1.517 . S
C847 C417 1.511 . S
C852 C122 1.671 . S
C857 C383 1.512 . S
C862 C156 1.671 . S
C867 C281 1.513 . S
C872 C190 1.670 . S
C877 C224 1.671 . S
C882 C315 1.518 . S
C887 C349 1.514 . S
C892 C258 1.670 . S
C897 C292 1.670 . S
C902 C43 1.515 . S
C907 C326 1.669 . S
C912 C77 1.516 . S
C917 C360 1.670 . S
C922 C111 1.522 . S
C927 C9 1.512 . S
C932 C394 1.671 . S
C937 C247 1.517 . S
C942 C428 1.671 . S
C947 C462 1.671 . S
C952 C145 1.512 . S
C957 C496 1.671 . S
C962 C179 1.512 . S
C967 C213 1.515 . S
C972 C530 1.670 . S
C977 C757 1.512 . S
C982 C564 1.671 . S
C987 C598 1.670 . S
C992 C621 1.519 . S
C997 C632 1.670 . S
C1002 C655 1.515 . S
C1007 C689 1.521 . S
C1012 C666 1.670 . S
C1017 C700 1.671 . S
C1022 C587 1.511 . S
C1027 C791 1.513 . S
C1032 C734 1.670 . S
C1037 C768 1.671 . S
C1042 C723 1.511 . S
C1047 C553 1.511 . S
C1052 C802 1.671 . S
C1057 C549 1.449 . S
C1062 C33 1.460 . S
C1067 C787 1.449 . S
C1072 C67 1.459 1_556 S
C1077 C101 1.460 . S
C1082 C719 1.449 . S
C1087 C753 1.451 . S
C1092 C135 1.461 . S
C1097 C583 1.449 . S
C1102 C169 1.459 . S
C1107 C617 1.449 . S
C1112 C203 1.459 . S
C1117 C651 1.449 . S
C1122 C237 1.459 . S
C1127 C271 1.460 1_554 S
C1132 C685 1.450 . S
C1137 C305 1.460 . S
C1142 C5 1.450 . S
C1147 C339 1.461 . S
C1152 C39 1.450 . S
C1157 C373 1.460 . S
C1162 C73 1.451 . S
C1167 C407 1.460 . S
C1172 C107 1.450 . S
C1177 C441 1.459 . S
C1182 C141 1.450 . S
C1187 C175 1.451 . S
C1192 C475 1.462 1_565 S
C1197 C209 1.450 . S
C1202 C509 1.461 . S
C1207 C543 1.460 1_545 S
C1212 C243 1.450 . S
C1217 C277 1.450 . S
C1222 C577 1.459 . S
C1227 C413 1.449 . S
C1232 C611 1.459 . S
C1237 C447 1.450 . S
C1242 C645 1.460 . S
C1247 C481 1.450 . S
C1252 C679 1.460 . S
C1257 C713 1.460 1_455 S
C1262 C515 1.450 . S
C1267 C747 1.459 . S
C1272 C345 1.449 . S
C1277 C781 1.462 1_655 S
C1282 C379 1.452 . S
C1287 C311 1.449 . S
C1292 C815 1.459 . S
C1297 C682 1.246 . S
C1302 C2 1.248 . S
C1307 C36 1.247 . S
C1312 C580 1.247 . S
C1317 C614 1.248 . S
C1322 C70 1.246 . S
C1327 C104 1.248 . S
C1332 C648 1.247 . S
C1337 C784 1.246 . S
C1342 C138 1.248 . S
C1347 C716 1.247 . S
C1352 C172 1.248 . S
C1357 C206 1.248 . S
C1362 C750 1.246 . S
C1367 C546 1.248 . S
C1372 C240 1.246 . S
C1377 C512 1.248 . S
C1382 C274 1.247 . S
C1387 C410 1.246 . S
C1392 C308 1.248 . S
C1397 C444 1.248 . S
C1402 C342 1.247 . S
C1407 C478 1.248 . S
C1412 C376 1.247 . S
