# Generated by pormake.
# Topology lhb, (8)-cn, num edge types: 1
# Building blocks:
#     Node 0, Type 0, BuildingBlock: GIZVER_clean_sbu_0, # of connection points: 8
#     Node 1, Type 0, BuildingBlock: GIZVER_clean_sbu_0, # of connection points: 8
#     Node 2, Type 0, BuildingBlock: GIZVER_clean_sbu_0, # of connection points: 8
#     Node 3, Type 0, BuildingBlock: GIZVER_clean_sbu_0, # of connection points: 8
#     Node 4, Type 0, BuildingBlock: GIZVER_clean_sbu_0, # of connection points: 8
#     Node 5, Type 0, BuildingBlock: GIZVER_clean_sbu_0, # of connection points: 8
#     Node 6, Type 0, BuildingBlock: GIZVER_clean_sbu_0, # of connection points: 8
#     Node 7, Type 0, BuildingBlock: GIZVER_clean_sbu_0, # of connection points: 8
#     Edge 8, Type (0, 0), BuildingBlock: AJUNOK_clean_linker_0, # of connection points: 2
#     Edge 9, Type (0, 0), BuildingBlock: AJUNOK_clean_linker_0, # of connection points: 2
#     Edge 10, Type (0, 0), BuildingBlock: AJUNOK_clean_linker_0, # of connection points: 2
#     Edge 11, Type (0, 0), BuildingBlock: AJUNOK_clean_linker_0, # of connection points: 2
#     Edge 12, Type (0, 0), BuildingBlock: AJUNOK_clean_linker_0, # of connection points: 2
#     Edge 13, Type (0, 0), BuildingBlock: AJUNOK_clean_linker_0, # of connection points: 2
#     Edge 14, Type (0, 0), BuildingBlock: AJUNOK_clean_linker_0, # of connection points: 2
#     Edge 15, Type (0, 0), BuildingBlock: AJUNOK_clean_linker_0, # of connection points: 2
#     Edge 16, Type (0, 0), BuildingBlock: AJUNOK_clean_linker_0, # of connection points: 2
#     Edge 17, Type (0, 0), BuildingBlock: AJUNOK_clean_linker_0, # of connection points: 2
#     Edge 18, Type (0, 0), BuildingBlock: AJUNOK_clean_linker_0, # of connection points: 2
#     Edge 19, Type (0, 0), BuildingBlock: AJUNOK_clean_linker_0, # of connection points: 2
#     Edge 20, Type (0, 0), BuildingBlock: AJUNOK_clean_linker_0, # of connection points: 2
#     Edge 21, Type (0, 0), BuildingBlock: AJUNOK_clean_linker_0, # of connection points: 2
#     Edge 22, Type (0, 0), BuildingBlock: AJUNOK_clean_linker_0, # of connection points: 2
#     Edge 23, Type (0, 0), BuildingBlock: AJUNOK_clean_linker_0, # of connection points: 2
#     Edge 24, Type (0, 0), BuildingBlock: AJUNOK_clean_linker_0, # of connection points: 2
#     Edge 25, Type (0, 0), BuildingBlock: AJUNOK_clean_linker_0, # of connection points: 2
#     Edge 26, Type (0, 0), BuildingBlock: AJUNOK_clean_linker_0, # of connection points: 2
#     Edge 27, Type (0, 0), BuildingBlock: AJUNOK_clean_linker_0, # of connection points: 2
#     Edge 28, Type (0, 0), BuildingBlock: AJUNOK_clean_linker_0, # of connection points: 2
#     Edge 29, Type (0, 0), BuildingBlock: AJUNOK_clean_linker_0, # of connection points: 2
#     Edge 30, Type (0, 0), BuildingBlock: AJUNOK_clean_linker_0, # of connection points: 2
#     Edge 31, Type (0, 0), BuildingBlock: AJUNOK_clean_linker_0, # of connection points: 2
#     Edge 32, Type (0, 0), BuildingBlock: AJUNOK_clean_linker_0, # of connection points: 2
#     Edge 33, Type (0, 0), BuildingBlock: AJUNOK_clean_linker_0, # of connection points: 2
#     Edge 34, Type (0, 0), BuildingBlock: AJUNOK_clean_linker_0, # of connection points: 2
#     Edge 35, Type (0, 0), BuildingBlock: AJUNOK_clean_linker_0, # of connection points: 2
#     Edge 36, Type (0, 0), BuildingBlock: AJUNOK_clean_linker_0, # of connection points: 2
#     Edge 37, Type (0, 0), BuildingBlock: AJUNOK_clean_linker_0, # of connection points: 2
#     Edge 38, Type (0, 0), BuildingBlock: AJUNOK_clean_linker_0, # of connection points: 2
#     Edge 39, Type (0, 0), BuildingBlock: AJUNOK_clean_linker_0, # of connection points: 2
# Relax obj value: 0.082
# Max RMSD: 0.172
# Mean RMSD: 0.172
data_MOF--net-lhb--node1-GIZVER_clean_sbu_0--edge1-AJUNOK_clean_linker_0
_symmetry_space_group_name_H-M    P1
_symmetry_Int_Tables_number       1
_symmetry_cell_setting            triclinic
loop_
_symmetry_equiv_pos_as_xyz
'x, y, z'
_cell_length_a     18.45394
_cell_length_b     11.361506
_cell_length_c     59.680917
_cell_angle_alpha  96.127064
_cell_angle_beta   89.780399
_cell_angle_gamma 89.875962
loop_
_atom_site_label
_atom_site_type_symbol
_atom_site_fract_x
_atom_site_fract_y
_atom_site_fract_z
_atom_type_partial_charge
Co0 Co 0.05547 0.02569 0.99721 0.0
Co1 Co 0.93193 0.11776 1.00762 0.0
Co2 Co 1.00176 0.03143 0.05194 0.0
O3 O 0.98322 0.99967 1.01904 0.0
H4 H 0.95821 0.92546 1.01541 0.0
O5 O 0.01694 0.06423 0.08509 0.0
Co6 Co 0.95159 0.99838 0.10617 0.0
Co7 Co 0.08456 0.95157 0.09183 0.0
H8 H 0.03326 0.14358 0.08994 0.0
O9 O 0.87047 0.08914 0.98429 0.0
O10 O 0.98988 0.14149 0.98317 0.0
O11 O 0.92366 0.26441 1.02561 0.0
O12 O 0.99213 0.20873 0.05311 0.0
O13 O 0.89761 1.00797 0.05792 0.0
O14 O 0.89401 0.94006 0.12574 0.0
O15 O 0.96161 0.10462 0.13149 0.0
O16 O 0.92243 0.88157 0.08268 0.0
O17 O 0.01346 0.85398 0.05022 0.0
O18 O 0.10121 0.80931 0.07286 0.0
O19 O 0.04052 0.91494 0.11751 0.0
O20 O 0.15098 0.99961 0.11155 0.0
C21 C 0.08576 0.94272 0.96638 0.0
C22 C 0.13244 0.1262 1.03441 0.0
C23 C 0.96133 0.28896 1.04311 0.0
C24 C 0.92572 0.12852 0.9738 0.0
C25 C 0.91566 0.02981 0.13901 0.0
C26 C 0.87962 0.91863 0.06799 0.0
C27 C 0.05493 0.77824 0.05793 0.0
C28 C 0.10136 0.96699 0.12509 0.0
O29 O 0.12042 0.03537 0.9754 0.0
O30 O 0.02854 0.90572 0.97648 0.0
O31 O 0.10715 0.05097 0.04671 0.0
O32 O 0.09813 0.15072 1.01695 0.0
Co33 Co 0.30678 0.21745 0.35257 0.0
Co34 Co 0.17044 0.17742 0.34128 0.0
Co35 Co 0.25182 0.26382 0.30021 0.0
O36 O 0.23707 0.29273 0.33377 0.0
H37 H 0.22301 0.37264 0.33927 0.0
O38 O 0.2713 0.2326 0.26752 0.0
Co39 Co 0.20413 0.26146 0.24509 0.0
Co40 Co 0.32635 0.34533 0.25686 0.0
H41 H 0.29598 0.15787 0.26393 0.0
O42 O 0.10914 0.22053 0.36397 0.0
O43 O 0.22102 0.13601 0.36563 0.0
O44 O 0.15551 0.03416 0.32188 0.0
O45 O 0.23749 0.08662 0.29774 0.0
O46 O 0.1476 0.28611 0.29484 0.0
O47 O 0.14317 0.27308 0.22252 0.0
O48 O 0.23465 0.14305 0.22473 0.0
O49 O 0.15866 0.38498 0.26479 0.0
O50 O 0.2623 0.44186 0.30159 0.0
O51 O 0.3395 0.48851 0.2754 0.0
O52 O 0.27343 0.37683 0.23197 0.0
O53 O 0.38904 0.30814 0.23438 0.0
C54 C 0.35177 0.23265 0.38416 0.0
C55 C 0.37299 0.1465 0.31475 0.0
C56 C 0.19905 1.00768 0.30571 0.0
C57 C 0.16348 0.18799 0.37566 0.0
C58 C 0.17909 0.18003 0.21398 0.0
C59 C 0.12346 0.36071 0.28224 0.0
C60 C 0.2979 0.51852 0.29187 0.0
C61 C 0.33831 0.35577 0.2232 0.0
O62 O 0.36587 0.14948 0.36858 0.0
O63 O 0.30718 0.3174 0.37958 0.0
O64 O 0.35584 0.23847 0.30552 0.0
O65 O 0.32793 0.10503 0.32823 0.0
Co66 Co 0.81342 0.7237 0.35309 0.0
Co67 Co 0.67701 0.68332 0.34318 0.0
Co68 Co 0.75227 0.76099 0.30034 0.0
O69 O 0.74232 0.79442 0.33406 0.0
H70 H 0.72843 0.87468 0.33933 0.0
O71 O 0.76755 0.72815 0.26714 0.0
Co72 Co 0.6968 0.75442 0.2452 0.0
Co73 Co 0.8175 0.84442 0.25523 0.0
H74 H 0.79268 0.65387 0.2634 0.0
O75 O 0.61697 0.73364 0.36543 0.0
O76 O 0.7287 0.64831 0.36771 0.0
O77 O 0.65881 0.53919 0.32491 0.0
O78 O 0.73554 0.58379 0.2985 0.0
O79 O 0.64719 0.78952 0.29629 0.0
O80 O 0.63229 0.76403 0.22336 0.0
O81 O 0.72472 0.63493 0.22439 0.0
O82 O 0.65489 0.87907 0.26496 0.0
O83 O 0.76514 0.93806 0.30167 0.0
O84 O 0.82683 0.99283 0.27262 0.0
O85 O 0.76203 0.8709 0.23075 0.0
O86 O 0.87963 0.81036 0.23255 0.0
C87 C 0.86321 0.74998 0.38435 0.0
C88 C 0.87282 0.63907 0.31447 0.0
C89 C 0.69799 0.50828 0.30789 0.0
C90 C 0.67194 0.70478 0.37729 0.0
C91 C 0.66805 0.67233 0.21416 0.0
C92 C 0.62354 0.86423 0.28356 0.0
C93 C 0.79286 0.01814 0.2909 0.0
C94 C 0.82808 0.8617 0.2223 0.0
O95 O 0.87524 0.6596 0.36993 0.0
O96 O 0.81711 0.83103 0.37904 0.0
O97 O 0.85652 0.72956 0.30455 0.0
O98 O 0.8297 0.60512 0.32934 0.0
Co99 Co 0.07205 0.50409 0.49572 0.0
Co100 Co 0.95263 0.60669 0.50428 0.0
Co101 Co 0.01479 0.52856 0.55099 0.0
O102 O 0.99832 0.49163 0.51779 0.0
H103 H 0.97077 0.41966 0.51461 0.0
O104 O 0.02709 0.56338 0.58452 0.0
Co105 Co 0.95591 0.5021 0.60485 0.0
Co106 Co 0.08969 0.44687 0.59344 0.0
H107 H 0.04405 0.64248 0.58929 0.0
O108 O 0.89245 0.5806 0.48055 0.0
O109 O 0.01348 0.62257 0.48017 0.0
O110 O 0.94539 0.75402 0.52132 0.0
O111 O 1.00389 0.70588 0.55156 0.0
O112 O 0.91028 0.50511 0.55605 0.0
O113 O 0.89321 0.44799 0.62323 0.0
O114 O 0.96018 0.61229 0.63013 0.0
O115 O 0.932 0.38185 0.58155 0.0
O116 O 0.02748 0.3522 0.54977 0.0
O117 O 0.10273 0.29902 0.57563 0.0
O118 O 0.03972 0.4194 0.61882 0.0
O119 O 0.15344 0.49431 0.61456 0.0
C120 C 0.09988 0.41041 0.46542 0.0
C121 C 0.1459 0.62008 0.53331 0.0
C122 C 0.97606 0.7826 0.53995 0.0
C123 C 0.94938 0.61899 0.47068 0.0
C124 C 0.91124 0.5392 0.63671 0.0
C125 C 0.89064 0.41805 0.56645 0.0
C126 C 0.06272 0.27303 0.55871 0.0
C127 C 0.09946 0.47045 0.62738 0.0
O128 O 0.13827 0.50041 0.47382 0.0
O129 O 0.04105 0.38257 0.47587 0.0
O130 O 0.1205 0.54932 0.54651 0.0
O131 O 0.11696 0.63009 0.51424 0.0
Co132 Co 0.31213 0.74167 0.85551 0.0
Co133 Co 0.179 0.69187 0.84449 0.0
Co134 Co 0.25641 0.77453 0.80226 0.0
O135 O 0.24219 0.80767 0.83573 0.0
H136 H 0.22606 0.88718 0.84071 0.0
O137 O 0.27461 0.74014 0.76927 0.0
Co138 Co 0.2037 0.76881 0.74754 0.0
Co139 Co 0.32858 0.8528 0.75748 0.0
H140 H 0.29851 0.66479 0.76565 0.0
O141 O 0.11402 0.74104 0.86521 0.0
O142 O 0.22716 0.66476 0.87009 0.0
O143 O 0.16728 0.54357 0.82683 0.0
O144 O 0.24022 0.59748 0.80029 0.0
O145 O 0.15181 0.80259 0.7973 0.0
O146 O 0.13906 0.78149 0.72585 0.0
O147 O 0.22791 0.64593 0.72693 0.0
O148 O 0.1652 0.89733 0.76694 0.0
O149 O 0.27022 0.95196 0.8034 0.0
O150 O 0.33934 0.99878 0.77518 0.0
O151 O 0.2716 0.87927 0.73311 0.0
O152 O 0.38992 0.81975 0.73408 0.0
C153 C 0.35988 0.77501 0.88675 0.0
C154 C 0.37566 0.65319 0.81738 0.0
C155 C 0.2059 0.51779 0.80948 0.0
C156 C 0.1673 0.71802 0.87827 0.0
C157 C 0.17177 0.68634 0.71685 0.0
C158 C 0.13064 0.8801 0.78483 0.0
C159 C 0.30266 0.02851 0.79277 0.0
C160 C 0.3358 0.86326 0.72375 0.0
O161 O 0.37348 0.68265 0.87298 0.0
O162 O 0.31217 0.85252 0.88095 0.0
O163 O 0.36013 0.74417 0.80753 0.0
O164 O 0.33222 0.62029 0.8323 0.0
Co165 Co 0.80989 0.22575 0.85144 0.0
Co166 Co 0.67234 0.19268 0.84007 0.0
Co167 Co 0.75247 0.27305 0.79885 0.0
O168 O 0.74134 0.30326 0.83261 0.0
H169 H 0.72849 0.38361 0.83817 0.0
O170 O 0.7686 0.24233 0.7657 0.0
Co171 Co 0.6956 0.26139 0.7442 0.0
Co172 Co 0.81486 0.35985 0.75311 0.0
H173 H 0.79542 0.16963 0.76201 0.0
O174 O 0.61298 0.23724 0.863 0.0
O175 O 0.72273 0.14449 0.86387 0.0
O176 O 0.65124 0.05435 0.82021 0.0
O177 O 0.7383 0.09593 0.79677 0.0
O178 O 0.64715 0.29483 0.79493 0.0
O179 O 0.62917 0.26238 0.72271 0.0
O180 O 0.72585 0.14185 0.72397 0.0
O181 O 0.65045 0.38552 0.76376 0.0
O182 O 0.76263 0.45093 0.80036 0.0
O183 O 0.82191 0.5065 0.7708 0.0
O184 O 0.75632 0.38127 0.72888 0.0
O185 O 0.87667 0.33377 0.72988 0.0
C186 C 0.85152 0.23605 0.88358 0.0
C187 C 0.87528 0.15693 0.813 0.0
C188 C 0.69631 0.02172 0.80481 0.0
C189 C 0.6664 0.19841 0.8743 0.0
C190 C 0.66647 0.17094 0.7141 0.0
C191 C 0.61978 0.36612 0.78224 0.0
C192 C 0.78931 0.53112 0.78935 0.0
C193 C 0.82203 0.37967 0.7201 0.0
O194 O 0.86858 0.15542 0.86776 0.0
O195 O 0.80877 0.32259 0.87871 0.0
O196 O 0.85714 0.24665 0.80314 0.0
O197 O 0.83077 0.11579 0.82669 0.0
Co198 Co 0.57295 0.01904 0.49626 0.0
Co199 Co 0.45177 0.11364 0.50576 0.0
Co200 Co 0.5165 0.02634 0.55061 0.0
O201 O 0.50029 0.99591 0.51761 0.0
H202 H 0.47456 0.92251 0.51382 0.0
O203 O 0.5269 0.0535 0.58423 0.0
Co204 Co 0.45882 0.97115 0.60255 0.0
Co205 Co 0.59722 0.94357 0.59123 0.0
H206 H 0.53843 0.13381 0.5901 0.0
O207 O 0.38633 0.08584 0.48398 0.0
O208 O 0.50718 0.12974 0.48067 0.0
O209 O 0.44831 0.26168 0.52272 0.0
O210 O 0.5032 0.20494 0.55281 0.0
O211 O 0.41235 0.99544 0.55495 0.0
O212 O 0.40109 0.89693 0.61847 0.0
O213 O 0.45658 0.0667 0.6299 0.0
O214 O 0.44031 0.86131 0.57756 0.0
O215 O 0.53394 0.8492 0.54793 0.0
O216 O 0.62054 0.80663 0.57124 0.0
O217 O 0.54707 0.893 0.61487 0.0
O218 O 0.65597 0.98825 0.61395 0.0
C219 C 0.60627 0.93214 0.46613 0.0
C220 C 0.64437 0.13132 0.53387 0.0
C221 C 0.47863 0.28587 0.54154 0.0
C222 C 0.44072 0.12235 0.47266 0.0
C223 C 0.41488 0.97836 0.63441 0.0
C224 C 0.39575 0.90231 0.56394 0.0
C225 C 0.57592 0.77442 0.55584 0.0
C226 C 0.6026 0.94852 0.62523 0.0
O227 O 0.63967 0.02664 0.4749 0.0
O228 O 0.54869 0.89542 0.47607 0.0
O229 O 0.62149 0.05497 0.54636 0.0
O230 O 0.61195 0.14764 0.51558 0.0
Co231 Co 0.57133 0.50157 0.99471 0.0
Co232 Co 0.45264 0.60412 1.00301 0.0
Co233 Co 0.51072 0.51765 0.04946 0.0
O234 O 0.49614 0.4854 1.01616 0.0
H235 H 0.46895 0.41335 1.0125 0.0
O236 O 0.52126 0.54986 0.08298 0.0
Co237 Co 0.45563 0.47617 0.10309 0.0
Co238 Co 0.59237 0.44144 0.09012 0.0
H239 H 0.53449 0.6303 0.08823 0.0
O240 O 0.39156 0.58122 0.97974 0.0
O241 O 0.51324 0.62053 0.97901 0.0
O242 O 0.44716 0.75192 1.02016 0.0
O243 O 0.49762 0.69561 0.05102 0.0
O244 O 0.4062 0.48614 0.05397 0.0
O245 O 0.39896 0.40839 0.1215 0.0
O246 O 0.45981 0.57849 0.12919 0.0
O247 O 0.43306 0.36124 0.07884 0.0
O248 O 0.52644 0.34078 0.04758 0.0
O249 O 0.61111 0.29809 0.07151 0.0
O250 O 0.54591 0.40018 0.11505 0.0
O251 O 0.65503 0.49174 0.11143 0.0
C252 C 0.60184 0.41054 0.96446 0.0
C253 C 0.64151 0.61798 1.03312 0.0
C254 C 0.4745 0.77617 1.03943 0.0
C255 C 0.44818 0.62296 0.97019 0.0
C256 C 0.41859 0.49485 0.13588 0.0
C257 C 0.38941 0.39665 0.06424 0.0
C258 C 0.56697 0.26588 0.05599 0.0
C259 C 0.60323 0.45733 0.12401 0.0
O260 O 0.63911 0.50086 0.97333 0.0
O261 O 0.54248 0.38082 0.9744 0.0
O262 O 0.61637 0.54419 0.04574 0.0
O263 O 0.61417 0.62769 1.01382 0.0
C264 C 0.1045 0.1343 0.15486 0.0
C265 C 0.11194 0.01184 0.14885 0.0
C266 C 0.12511 0.18678 0.1761 0.0
C267 C 0.15729 0.1198 0.19185 0.0
H268 H 0.0846 0.19108 0.14275 0.0
H269 H 0.11809 0.28154 0.17988 0.0
S270 S 0.19338 0.79642 0.18383 0.0
N271 N 0.1558 0.82507 0.15989 0.0
N272 N 0.1968 0.92412 0.19991 0.0
C273 C 0.16664 0.99726 0.18594 0.0
C274 C 0.14399 0.94328 0.16434 0.0
C275 C 0.94504 0.96746 0.176 0.0
C276 C 0.89706 0.0272 0.16303 0.0
C277 C 0.92209 0.91708 0.19514 0.0
C278 C 0.84912 0.92243 0.20225 0.0
H279 H 0.99936 0.94883 0.17023 0.0
H280 H 0.96208 0.869 0.20382 0.0
S281 S 0.70204 0.08073 0.17536 0.0
N282 N 0.77368 0.09617 0.15925 0.0
N283 N 0.7297 1.00399 0.19577 0.0
C284 C 0.80071 0.98809 0.19017 0.0
C285 C 0.8247 0.03933 0.17045 0.0
C286 C 0.15471 0.40916 0.42721 0.0
C287 C 0.1217 0.34584 0.44344 0.0
C288 C 0.17217 0.3544 0.40574 0.0
C289 C 0.16173 0.23233 0.39989 0.0
H290 H 0.16354 0.5036 0.43068 0.0
H291 H 0.19062 0.40998 0.39323 0.0
S292 S 0.07694 0.02567 0.43621 0.0
N293 N 0.07793 0.154 0.45214 0.0
N294 N 0.11441 0.05002 0.41192 0.0
C295 C 0.13014 0.167 0.41608 0.0
C296 C 0.10975 0.22379 0.43784 0.0
C297 C 0.95159 0.65804 0.40877 0.0
C298 C 0.89738 0.74521 0.4069 0.0
C299 C 0.97158 0.62214 0.42961 0.0
C300 C 0.93858 0.67238 0.44946 0.0
H301 H 0.97591 0.61106 0.39385 0.0
H302 H 0.00972 0.54978 0.43002 0.0
S303 S 0.81344 0.92939 0.45508 0.0
N304 N 0.82498 0.89962 0.42756 0.0
N305 N 0.86186 0.83047 0.46689 0.0
C306 C 0.891 0.76855 0.44828 0.0
C307 C 0.87089 0.80602 0.42697 0.0
C308 C 0.12221 0.45265 0.66844 0.0
C309 C 0.10488 0.52237 0.65108 0.0
C310 C 0.14365 0.50569 0.68987 0.0
C311 C 0.14725 0.62985 0.69462 0.0
H312 H 0.12228 0.35704 0.66515 0.0
H313 H 0.15799 0.44939 0.70272 0.0
S314 S 0.11216 0.85022 0.65441 0.0
N315 N 0.09774 0.72106 0.6397 0.0
N316 N 0.13322 0.81996 0.68003 0.0
C317 C 0.12881 0.69983 0.67748 0.0
C318 C 0.10928 0.64623 0.65566 0.0
C319 C 0.90787 0.49364 0.69787 0.0
C320 C 0.83829 0.44443 0.7002 0.0
C321 C 0.92855 0.54347 0.67825 0.0
C322 C 0.8813 0.54321 0.65991 0.0
H323 H 0.94785 0.48999 0.71103 0.0
H324 H 0.98363 0.57298 0.6768 0.0
S325 S 0.68908 0.44668 0.65888 0.0
N326 N 0.71857 0.41691 0.68377 0.0
N327 N 0.75832 0.50607 0.64659 0.0
C328 C 0.80946 0.50518 0.6629 0.0
C329 C 0.78785 0.45645 0.68305 0.0
C330 C 0.14095 0.70458 0.91927 0.0
C331 C 0.16061 0.77222 0.90181 0.0
C332 C 0.11579 0.75974 0.94019 0.0
C333 C 0.11037 0.88401 0.94428 0.0
H334 H 0.14179 0.60884 0.91641 0.0
H335 H 0.10044 0.70502 0.95322 0.0
S336 S 0.15185 0.09939 0.90361 0.0
N337 N 0.16954 0.96902 0.88968 0.0
N338 N 0.12569 0.07202 0.92901 0.0
C339 C 0.13077 0.95195 0.92701 0.0
C340 C 0.15483 0.89616 0.90576 0.0
C341 C 0.86414 0.29856 0.92562 0.0
C342 C 0.87541 0.21517 0.90674 0.0
C343 C 0.88324 0.27221 0.94743 0.0
C344 C 0.9139 0.16188 0.95096 0.0
H345 H 0.83954 0.38339 0.9236 0.0
H346 H 0.87251 0.33732 0.96168 0.0
S347 S 0.9493 0.90891 0.90812 0.0
N348 N 0.91802 0.01424 0.89381 0.0
N349 N 0.95004 0.96733 0.93459 0.0
C350 C 0.92468 0.07805 0.93251 0.0
C351 C 0.90654 0.10412 0.91045 0.0
C352 C 0.60591 0.16664 0.67692 0.0
C353 C 0.64265 0.10513 0.69262 0.0
C354 C 0.58862 0.11166 0.65557 0.0
C355 C 0.60211 0.99047 0.64948 0.0
H356 H 0.59429 0.26018 0.68062 0.0
H357 H 0.5685 0.16696 0.64325 0.0
S358 S 0.69419 0.78725 0.68481 0.0
N359 N 0.6915 0.91527 0.70083 0.0
N360 N 0.65429 0.81014 0.6609 0.0
C361 C 0.6361 0.92622 0.66532 0.0
C362 C 0.65686 0.98366 0.68689 0.0
C363 C 0.40164 0.03667 0.67654 0.0
C364 C 0.38845 0.95689 0.6573 0.0
C365 C 0.382 1.00809 0.69819 0.0
C366 C 0.34896 0.89902 0.70117 0.0
H367 H 0.42852 0.12001 0.67494 0.0
H368 H 0.39424 0.07027 0.71272 0.0
S369 S 0.3063 0.65586 0.65717 0.0
N370 N 0.33984 0.76158 0.64338 0.0
N371 N 0.30752 0.70976 0.6839 0.0
C372 C 0.33566 0.8191 0.68236 0.0
C373 C 0.35411 0.84768 0.66045 0.0
C374 C 0.65726 0.41412 0.9265 0.0
C375 C 0.62521 0.34818 0.94248 0.0
C376 C 0.67507 0.36173 0.9049 0.0
C377 C 0.66585 0.23967 0.89866 0.0
H378 H 0.66481 0.50873 0.93025 0.0
H379 H 0.69263 0.41911 0.89257 0.0
S380 S 0.58556 0.02627 0.93442 0.0
N381 N 0.58484 0.15356 0.9507 0.0
N382 N 0.62197 0.05411 0.91018 0.0
C383 C 0.63594 0.17154 0.91467 0.0
C384 C 0.61519 0.22586 0.93658 0.0
C385 C 0.47741 0.66018 0.9307 0.0
C386 C 0.43608 0.68704 0.95025 0.0
C387 C 0.4573 0.70425 0.91056 0.0
C388 C 0.39481 0.77595 0.9092 0.0
H389 H 0.52225 0.59835 0.93054 0.0
H390 H 0.48758 0.67334 0.89546 0.0
S391 S 0.28673 0.90628 0.95802 0.0
N392 N 0.34275 0.8139 0.96876 0.0
N393 N 0.30482 0.89664 0.93073 0.0
C394 C 0.35984 0.81691 0.92941 0.0
C395 C 0.38024 0.7716 0.94997 0.0
C396 C 0.63209 0.43799 0.16461 0.0
C397 C 0.60669 0.50635 0.14795 0.0
C398 C 0.65149 0.4916 0.18617 0.0
C399 C 0.64568 0.61511 0.19174 0.0
H400 H 0.64005 0.34358 0.16065 0.0
H401 H 0.67183 0.43629 0.19846 0.0
S402 S 0.58839 0.83361 0.15336 0.0
N403 N 0.58366 0.70462 0.13789 0.0
N404 N 0.61426 0.8036 0.17858 0.0
C405 C 0.61975 0.68366 0.17524 0.0
C406 C 0.60224 0.62982 0.15328 0.0
C407 C 0.33012 0.49927 0.19358 0.0
C408 C 0.3586 0.39485 0.20106 0.0
C409 C 0.35391 0.53941 0.17316 0.0
C410 C 0.40687 0.47629 0.15975 0.0
H411 H 0.28946 0.55021 0.20356 0.0
H412 H 0.32875 0.61695 0.16743 0.0
S413 S 0.49481 0.19446 0.1711 0.0
N414 N 0.44102 0.22855 0.19297 0.0
N415 N 0.48399 0.30188 0.15488 0.0
C416 C 0.43529 0.37223 0.16715 0.0
C417 C 0.41166 0.33205 0.18772 0.0
C418 C 0.63186 0.74783 0.43985 0.0
C419 C 0.63143 0.87225 0.4442 0.0
C420 C 0.65236 0.69145 0.41855 0.0
C421 C 0.67185 0.75809 0.40094 0.0
H422 H 0.61515 0.69396 0.45286 0.0
H423 H 0.64889 0.59594 0.41548 0.0
S424 S 0.67586 0.08585 0.40342 0.0
N425 N 0.65285 0.05953 0.42917 0.0
N426 N 0.68622 0.95461 0.38901 0.0
C427 C 0.6718 0.88226 0.40521 0.0
C428 C 0.65318 0.93913 0.4269 0.0
C429 C 0.38392 0.26161 0.44785 0.0
C430 C 0.42547 0.1594 0.45031 0.0
C431 C 0.36246 0.28987 0.42637 0.0
C432 C 0.38189 0.21624 0.40681 0.0
H433 H 0.3665 0.31831 0.46264 0.0
H434 H 0.32876 0.36707 0.42518 0.0
S435 S 0.48537 0.93191 0.40526 0.0
N436 N 0.48041 0.98145 0.43219 0.0
N437 N 0.44545 0.0339 0.39202 0.0
C438 C 0.42494 0.11439 0.40945 0.0
C439 C 0.4452 0.08591 0.43117 0.0
C440 C 0.97482 0.61872 1.04016 0.0
C441 C 0.03599 0.65131 0.05341 0.0
C442 C 0.94869 0.50288 1.03802 0.0
C443 C 0.98268 0.41399 0.04894 0.0
H444 H 0.94576 0.68353 1.03156 0.0
H445 H 0.9019 0.48277 1.0274 0.0
S446 S 0.14471 0.45246 0.08587 0.0
N447 N 0.13002 0.58471 0.07775 0.0
N448 N 0.08068 0.36691 0.07382 0.0
C449 C 0.04366 0.44522 0.06244 0.0
C450 C 0.07061 0.56347 0.06452 0.0
C451 C 0.21735 0.67841 0.3103 0.0
C452 C 0.2772 0.64532 0.29629 0.0
C453 C 0.18965 0.79395 0.31222 0.0
C454 C 0.22039 0.88165 0.30017 0.0
H455 H 0.19064 0.6142 0.31966 0.0
H456 H 0.14451 0.81489 0.32362 0.0
S457 S 0.37656 0.84025 0.26043 0.0
N458 N 0.36607 0.71028 0.26992 0.0
N459 N 0.31277 0.92549 0.27296 0.0
C460 C 0.27949 0.84917 0.28573 0.0
C461 C 0.3084 0.73203 0.28404 0.0
C462 C 0.79955 0.23174 0.2846 0.0
C463 C 0.77106 0.14347 0.29695 0.0
C464 C 0.77248 0.34743 0.28729 0.0
C465 C 0.71575 0.38074 0.30253 0.0
H466 H 0.84295 0.2114 0.27253 0.0
H467 H 0.79783 0.41186 0.27767 0.0
S468 S 0.62014 0.18272 0.33861 0.0
N469 N 0.68168 0.09735 0.32488 0.0
N470 N 0.63036 0.31438 0.32976 0.0
C471 C 0.68595 0.29311 0.31483 0.0
C472 C 0.71397 0.17512 0.31222 0.0
C473 C 0.04983 0.94181 0.56082 0.0
C474 C 0.99272 0.90912 0.5459 0.0
C475 C 0.07458 0.0586 0.56403 0.0
C476 C 0.04326 0.1475 0.55244 0.0
H477 H 0.07713 0.87627 0.5697 0.0
H478 H 0.11821 0.07926 0.57588 0.0
S479 S 0.89151 0.10771 0.51142 0.0
N480 N 0.90446 0.97542 0.51968 0.0
N481 N 0.95214 0.19365 0.52514 0.0
C482 C 0.98625 0.11564 0.53733 0.0
C483 C 0.96046 0.99713 0.5343 0.0
C484 C 0.22805 0.18883 0.81368 0.0
C485 C 0.28333 0.15548 0.79793 0.0
C486 C 0.20042 0.30436 0.81636 0.0
C487 C 0.22675 0.39192 0.80342 0.0
H488 H 0.20461 0.12473 0.82377 0.0
H489 H 0.15874 0.32529 0.82899 0.0
S490 S 0.371 0.35044 0.75954 0.0
N491 N 0.36388 0.22037 0.76922 0.0
N492 N 0.31063 0.43576 0.7738 0.0
C493 C 0.28151 0.3594 0.78739 0.0
C494 C 0.31038 0.24217 0.78488 0.0
C495 C 0.7999 0.74432 0.78366 0.0
C496 C 0.7686 0.65652 0.79552 0.0
C497 C 0.77342 0.86012 0.78591 0.0
C498 C 0.71461 0.89418 0.80027 0.0
H499 H 0.84474 0.72326 0.77214 0.0
H500 H 0.80044 0.92381 0.77649 0.0
S501 S 0.61387 0.69886 0.83568 0.0
N502 N 0.67586 0.61198 0.82253 0.0
N503 N 0.62607 0.83018 0.82684 0.0
C504 C 0.68283 0.80755 0.81242 0.0
C505 C 0.7101 0.68908 0.81015 0.0
C506 C 0.49927 0.61325 0.5369 0.0
C507 C 0.55686 0.64697 0.55158 0.0
C508 C 0.47129 0.49858 0.53505 0.0
C509 C 0.49983 0.41121 0.54761 0.0
H510 H 0.47433 0.67651 0.52694 0.0
H511 H 0.42755 0.47791 0.52323 0.0
S512 S 0.65017 0.4531 0.58893 0.0
N513 N 0.6411 0.58316 0.57929 0.0
N514 N 0.58845 0.36711 0.57569 0.0
C515 C 0.55695 0.44353 0.56259 0.0
C516 C 0.58579 0.56091 0.56447 0.0
C517 C 0.46596 0.98932 1.03345 0.0
C518 C 0.4937 0.90168 0.04608 0.0
C519 C 0.4927 0.10475 1.03602 0.0
C520 C 0.54822 0.13864 0.05146 0.0
H521 H 0.42399 0.96827 1.02102 0.0
H522 H 0.46867 0.16824 1.02592 0.0
S523 S 0.63795 0.94429 0.08946 0.0
N524 N 0.57876 0.85763 0.07517 0.0
N525 N 0.62908 0.07507 0.0801 0.0
C526 C 0.57597 0.05244 0.06451 0.0
C527 C 0.54838 0.93438 0.06193 0.0
C528 C 0.27832 0.36332 1.04029 0.0
C529 C 0.32517 0.32459 0.05664 0.0
C530 C 0.21696 0.29784 1.03291 0.0
C531 C 0.19963 0.19113 1.04162 0.0
H532 H 0.28857 0.44563 1.03322 0.0
H533 H 0.18211 0.33256 1.0206 0.0
S534 S 0.30704 0.04621 0.08363 0.0
N535 N 0.35138 0.1694 0.08058 0.0
N536 N 0.23654 0.04648 0.06671 0.0
C537 C 0.2467 0.15015 0.05768 0.0
C538 C 0.30923 0.21675 0.06517 0.0
C539 C 0.80467 0.73449 0.06702 0.0
C540 C 0.81747 0.84505 0.05916 0.0
C541 C 0.74777 0.66182 0.05847 0.0
C542 C 0.7017 0.69621 1.04158 0.0
H543 H 0.83914 0.70305 0.07978 0.0
H544 H 0.74034 0.57732 0.06503 0.0
S545 S 0.70815 0.98061 1.0163 0.0
N546 N 0.77628 0.98811 1.03423 0.0
N547 N 0.67028 0.85046 1.01803 0.0
C548 C 0.71317 0.80695 1.03371 0.0
C549 C 0.77068 0.88164 1.04255 0.0
C550 C 0.04412 0.53932 0.28254 0.0
C551 C 0.05726 0.42729 0.28961 0.0
C552 C 0.98422 0.60689 0.29066 0.0
C553 C 0.93518 0.56486 0.30611 0.0
H554 H 0.08121 0.57642 0.27107 0.0
H555 H 0.97692 0.69344 0.28493 0.0
S556 S 0.94295 0.27296 0.32872 0.0
N557 N 0.01441 0.27419 0.31206 0.0
N558 N 0.9025 0.4017 0.32749 0.0
C559 C 0.94705 0.45187 0.313 0.0
C560 C 0.00785 0.38295 0.30469 0.0
C561 C 0.31796 0.72244 0.56371 0.0
C562 C 0.33099 0.83332 0.55602 0.0
C563 C 0.25787 0.6544 0.5563 0.0
C564 C 0.20884 0.69396 0.54073 0.0
H565 H 0.35454 0.6873 0.57551 0.0
H566 H 0.25029 0.56938 0.56264 0.0
S567 S 0.21536 0.98074 0.51633 0.0
N568 N 0.28752 0.98193 0.53261 0.0
N569 N 0.17519 0.85284 0.51854 0.0
C570 C 0.2206 0.80495 0.53302 0.0
C571 C 0.28146 0.87495 0.54071 0.0
C572 C 0.81189 0.2391 0.56637 0.0
C573 C 0.82664 0.34806 0.55816 0.0
C574 C 0.75304 0.16973 0.55832 0.0
C575 C 0.70671 0.2062 0.54167 0.0
H576 H 0.8464 0.20622 0.57897 0.0
H577 H 0.74428 0.08618 0.56511 0.0
S578 S 0.71855 0.48781 0.51558 0.0
N579 N 0.7877 0.49189 0.53309 0.0
N580 N 0.67768 0.36065 0.51789 0.0
C581 C 0.72028 0.31542 0.53344 0.0
C582 C 0.77995 0.3866 0.54173 0.0
C583 C 0.95416 0.97865 0.81339 0.0
C584 C 0.94193 0.09033 0.80594 0.0
C585 C 0.01559 0.91192 0.80656 0.0
C586 C 0.067 0.95384 0.7919 0.0
H587 H 0.91569 0.94148 0.82444 0.0
H588 H 0.02221 0.82591 0.81259 0.0
S589 S 0.06353 0.24437 0.76879 0.0
N590 N 0.98866 0.2428 0.78398 0.0
N591 N 0.10385 0.11635 0.77099 0.0
C592 C 0.05627 0.0661 0.78457 0.0
C593 C 0.99385 0.13461 0.79164 0.0
C594 C 0.53995 0.54412 0.7827 0.0
C595 C 0.55482 0.43416 0.79041 0.0
C596 C 0.48192 0.61395 0.79155 0.0
C597 C 0.43625 0.5763 0.80838 0.0
H598 H 0.57451 0.5782 0.77018 0.0
H599 H 0.47351 0.6989 0.78526 0.0
S600 S 0.44831 0.2897 0.83278 0.0
N601 N 0.51652 0.28679 0.81477 0.0
N602 N 0.40776 0.41834 0.83148 0.0
C603 C 0.44949 0.46498 0.81583 0.0
C604 C 0.5086 0.39384 0.80681 0.0
C605 C 0.51329 0.90127 0.3076 0.0
C606 C 0.56064 0.93861 0.29124 0.0
C607 C 0.45321 0.96955 0.31523 0.0
C608 C 0.43835 0.07823 0.3069 0.0
H609 H 0.52208 0.81775 0.3144 0.0
H610 H 0.41787 0.93606 0.32761 0.0
S611 S 0.54929 0.22036 0.26517 0.0
N612 N 0.59093 0.09393 0.26775 0.0
N613 N 0.47843 0.2231 0.28217 0.0
C614 C 0.48628 0.11796 0.29087 0.0
C615 C 0.5472 0.04787 0.28299 0.0
loop_
_geom_bond_atom_site_label_1
_geom_bond_atom_site_label_2
_geom_bond_distance
_geom_bond_site_symmetry_2
_ccdc_geom_bond_type
Co0 O3 2.044 1_455 S
Co0 O10 2.264 1_455 S
Co0 O29 2.286 . S
Co0 O30 2.069 1_545 S
Co0 O32 2.015 . S
Co1 O3 2.129 . S
Co1 O9 2.073 . S
Co1 O10 2.327 . S
Co1 O11 1.976 . S
Co2 O3 2.086 1_454 S
Co2 O5 2.086 . S
Co2 O12 2.117 1_455 S
Co2 O13 2.141 1_445 S
Co2 O17 2.106 1_544 S
Co2 O31 2.146 . S
O3 Co0 2.044 1_655 S
O3 Co1 2.129 . S
O3 Co2 2.086 1_656 S
O3 H4 0.972 1_545 S
H4 O3 0.972 1_565 S
O5 Co2 2.086 . S
O5 Co6 2.042 1_445 S
O5 Co7 2.121 1_545 S
O5 H8 0.982 . S
Co6 O5 2.042 1_665 S
Co6 O14 2.286 . S
Co6 O15 2.069 1_565 S
Co6 O16 2.015 . S
Co6 O19 2.264 1_655 S
Co7 O5 2.121 1_565 S
Co7 O18 1.976 . S
Co7 O19 2.327 . S
Co7 O20 2.073 . S
H8 O5 0.982 . S
O9 Co1 2.073 . S
O9 C24 1.245 . S
O10 Co0 2.264 1_655 S
O10 Co1 2.327 . S
O10 C24 1.257 . S
O11 Co1 1.976 . S
O11 C23 1.251 1_556 S
O12 Co2 2.117 1_655 S
O12 C23 1.274 . S
O13 Co2 2.141 1_665 S
O13 C26 1.246 . S
O14 Co6 2.286 . S
O14 C25 1.259 1_565 S
O15 Co6 2.069 1_545 S
O15 C25 1.289 . S
O16 Co6 2.015 . S
O16 C26 1.257 . S
O17 Co2 2.106 1_566 S
O17 C27 1.274 1_556 S
O18 Co7 1.976 . S
O18 C27 1.251 . S
O19 Co6 2.264 1_455 S
O19 Co7 2.327 . S
O19 C28 1.257 . S
O20 Co7 2.073 . S
O20 C28 1.245 . S
C21 O29 1.259 1_565 S
C21 O30 1.289 . S
C22 O31 1.246 1_556 S
C22 O32 1.257 . S
C23 O11 1.251 1_554 S
C23 O12 1.274 . S
C24 O9 1.245 . S
C24 O10 1.257 . S
C25 O14 1.259 1_545 S
C25 O15 1.289 . S
C26 O13 1.246 . S
C26 O16 1.257 . S
C27 O17 1.274 1_554 S
C27 O18 1.251 . S
C28 O19 1.257 . S
C28 O20 1.245 . S
O29 Co0 2.286 . S
O29 C21 1.259 1_545 S
O30 Co0 2.069 1_565 S
O30 C21 1.289 . S
O31 Co2 2.146 . S
O31 C22 1.246 1_554 S
O32 Co0 2.015 . S
O32 C22 1.257 . S
Co33 O36 2.042 . S
Co33 O43 2.264 . S
Co33 O62 2.286 . S
Co33 O63 2.069 . S
Co33 O65 2.015 . S
Co34 O36 2.122 . S
Co34 O42 2.073 . S
Co34 O43 2.327 . S
Co34 O44 1.976 1_545 S
Co35 O36 2.087 . S
Co35 O38 2.087 . S
Co35 O45 2.111 . S
Co35 O46 2.143 . S
Co35 O50 2.111 . S
Co35 O64 2.143 . S
O36 Co33 2.042 . S
O36 Co34 2.122 . S
O36 Co35 2.087 . S
O36 H37 0.980 . S
H37 O36 0.980 . S
O38 Co35 2.087 . S
O38 Co39 2.042 . S
O38 Co40 2.122 . S
O38 H41 0.980 . S
Co39 O38 2.042 . S
Co39 O47 2.286 . S
Co39 O48 2.069 . S
Co39 O49 2.015 . S
Co39 O52 2.264 . S
Co40 O38 2.122 . S
Co40 O51 1.976 . S
Co40 O52 2.327 . S
Co40 O53 2.073 . S
H41 O38 0.980 . S
O42 Co34 2.073 . S
O42 C57 1.245 . S
O43 Co33 2.264 . S
O43 Co34 2.327 . S
O43 C57 1.257 . S
O44 Co34 1.976 1_565 S
O44 C56 1.251 . S
O45 Co35 2.111 . S
O45 C56 1.274 1_545 S
O46 Co35 2.143 . S
O46 C59 1.246 . S
O47 Co39 2.286 . S
O47 C58 1.259 . S
O48 Co39 2.069 . S
O48 C58 1.289 . S
O49 Co39 2.015 . S
O49 C59 1.257 . S
O50 Co35 2.111 . S
O50 C60 1.274 . S
O51 Co40 1.976 . S
O51 C60 1.251 . S
O52 Co39 2.264 . S
O52 Co40 2.327 . S
O52 C61 1.257 . S
O53 Co40 2.073 . S
O53 C61 1.245 . S
C54 O62 1.259 . S
C54 O63 1.289 . S
C55 O64 1.246 . S
C55 O65 1.257 . S
C56 O44 1.251 . S
C56 O45 1.274 1_565 S
C57 O42 1.245 . S
C57 O43 1.257 . S
C58 O47 1.259 . S
C58 O48 1.289 . S
C59 O46 1.246 . S
C59 O49 1.257 . S
C60 O50 1.274 . S
C60 O51 1.251 . S
C61 O52 1.257 . S
C61 O53 1.245 . S
O62 Co33 2.286 . S
O62 C54 1.259 . S
O63 Co33 2.069 . S
O63 C54 1.289 . S
O64 Co35 2.143 . S
O64 C55 1.246 . S
O65 Co33 2.015 . S
O65 C55 1.257 . S
Co66 O69 2.042 . S
Co66 O76 2.264 . S
Co66 O95 2.286 . S
Co66 O96 2.069 . S
Co66 O98 2.015 . S
Co67 O69 2.122 . S
Co67 O75 2.073 . S
Co67 O76 2.327 . S
Co67 O77 1.976 . S
Co68 O69 2.087 . S
Co68 O71 2.087 . S
Co68 O78 2.111 . S
Co68 O79 2.143 . S
Co68 O83 2.111 . S
Co68 O97 2.143 . S
O69 Co66 2.042 . S
O69 Co67 2.122 . S
O69 Co68 2.087 . S
O69 H70 0.980 . S
H70 O69 0.980 . S
O71 Co68 2.087 . S
O71 Co72 2.042 . S
O71 Co73 2.122 . S
O71 H74 0.980 . S
Co72 O71 2.042 . S
Co72 O80 2.286 . S
Co72 O81 2.069 . S
Co72 O82 2.015 . S
Co72 O85 2.264 . S
Co73 O71 2.122 . S
Co73 O84 1.976 1_565 S
Co73 O85 2.327 . S
Co73 O86 2.073 . S
H74 O71 0.980 . S
O75 Co67 2.073 . S
O75 C90 1.245 . S
O76 Co66 2.264 . S
O76 Co67 2.327 . S
O76 C90 1.257 . S
O77 Co67 1.976 . S
O77 C89 1.251 . S
O78 Co68 2.111 . S
O78 C89 1.274 . S
O79 Co68 2.143 . S
O79 C92 1.246 . S
O80 Co72 2.286 . S
O80 C91 1.259 . S
O81 Co72 2.069 . S
O81 C91 1.289 . S
O82 Co72 2.015 . S
O82 C92 1.257 . S
O83 Co68 2.111 . S
O83 C93 1.274 1_565 S
O84 Co73 1.976 1_545 S
O84 C93 1.251 . S
O85 Co72 2.264 . S
O85 Co73 2.327 . S
O85 C94 1.257 . S
O86 Co73 2.073 . S
O86 C94 1.245 . S
C87 O95 1.259 . S
C87 O96 1.289 . S
C88 O97 1.246 . S
C88 O98 1.257 . S
C89 O77 1.251 . S
C89 O78 1.274 . S
C90 O75 1.245 . S
C90 O76 1.257 . S
C91 O80 1.259 . S
C91 O81 1.289 . S
C92 O79 1.246 . S
C92 O82 1.257 . S
C93 O83 1.274 1_545 S
C93 O84 1.251 . S
C94 O85 1.257 . S
C94 O86 1.245 . S
O95 Co66 2.286 . S
O95 C87 1.259 . S
O96 Co66 2.069 . S
O96 C87 1.289 . S
O97 Co68 2.143 . S
O97 C88 1.246 . S
O98 Co66 2.015 . S
O98 C88 1.257 . S
Co99 O102 2.042 1_455 S
Co99 O109 2.264 1_455 S
Co99 O128 2.286 . S
Co99 O129 2.069 . S
Co99 O131 2.015 . S
Co100 O102 2.122 . S
Co100 O108 2.073 . S
Co100 O109 2.327 . S
Co100 O110 1.976 . S
Co101 O102 2.087 1_455 S
Co101 O104 2.087 . S
Co101 O111 2.111 1_455 S
Co101 O112 2.143 1_455 S
Co101 O116 2.111 . S
Co101 O130 2.143 . S
O102 Co99 2.042 1_655 S
O102 Co100 2.122 . S
O102 Co101 2.087 1_655 S
O102 H103 0.980 . S
H103 O102 0.980 . S
O104 Co101 2.087 . S
O104 Co105 2.042 1_455 S
O104 Co106 2.122 . S
O104 H107 0.980 . S
Co105 O104 2.042 1_655 S
Co105 O113 2.286 . S
Co105 O114 2.069 . S
Co105 O115 2.015 . S
Co105 O118 2.264 1_655 S
Co106 O104 2.122 . S
Co106 O117 1.976 . S
Co106 O118 2.327 . S
Co106 O119 2.073 . S
H107 O104 0.980 . S
O108 Co100 2.073 . S
O108 C123 1.245 . S
O109 Co99 2.264 1_655 S
O109 Co100 2.327 . S
O109 C123 1.257 . S
O110 Co100 1.976 . S
O110 C122 1.251 . S
O111 Co101 2.111 1_655 S
O111 C122 1.274 . S
O112 Co101 2.143 1_655 S
O112 C125 1.246 . S
O113 Co105 2.286 . S
O113 C124 1.259 . S
O114 Co105 2.069 . S
O114 C124 1.289 . S
O115 Co105 2.015 . S
O115 C125 1.257 . S
O116 Co101 2.111 . S
O116 C126 1.274 . S
O117 Co106 1.976 . S
O117 C126 1.251 . S
O118 Co105 2.264 1_455 S
O118 Co106 2.327 . S
O118 C127 1.257 . S
O119 Co106 2.073 . S
O119 C127 1.245 . S
C120 O128 1.259 . S
C120 O129 1.289 . S
C121 O130 1.246 . S
C121 O131 1.257 . S
C122 O110 1.251 . S
C122 O111 1.274 . S
C123 O108 1.245 . S
C123 O109 1.257 . S
C124 O113 1.259 . S
C124 O114 1.289 . S
C125 O112 1.246 . S
C125 O115 1.257 . S
C126 O116 1.274 . S
C126 O117 1.251 . S
C127 O118 1.257 . S
C127 O119 1.245 . S
O128 Co99 2.286 . S
O128 C120 1.259 . S
O129 Co99 2.069 . S
O129 C120 1.289 . S
O130 Co101 2.143 . S
O130 C121 1.246 . S
O131 Co99 2.015 . S
O131 C121 1.257 . S
Co132 O135 2.042 . S
Co132 O142 2.264 . S
Co132 O161 2.286 . S
Co132 O162 2.069 . S
Co132 O164 2.015 . S
Co133 O135 2.122 . S
Co133 O141 2.073 . S
Co133 O142 2.327 . S
Co133 O143 1.976 . S
Co134 O135 2.087 . S
Co134 O137 2.087 . S
Co134 O144 2.111 . S
Co134 O145 2.143 . S
Co134 O149 2.111 . S
Co134 O163 2.143 . S
O135 Co132 2.042 . S
O135 Co133 2.122 . S
O135 Co134 2.087 . S
O135 H136 0.980 . S
H136 O135 0.980 . S
O137 Co134 2.087 . S
O137 Co138 2.042 . S
O137 Co139 2.122 . S
O137 H140 0.980 . S
Co138 O137 2.042 . S
Co138 O146 2.286 . S
Co138 O147 2.069 . S
Co138 O148 2.015 . S
Co138 O151 2.264 . S
Co139 O137 2.122 . S
Co139 O150 1.976 1_565 S
Co139 O151 2.327 . S
Co139 O152 2.073 . S
H140 O137 0.980 . S
O141 Co133 2.073 . S
O141 C156 1.245 . S
O142 Co132 2.264 . S
O142 Co133 2.327 . S
O142 C156 1.257 . S
O143 Co133 1.976 . S
O143 C155 1.251 . S
O144 Co134 2.111 . S
O144 C155 1.274 . S
O145 Co134 2.143 . S
O145 C158 1.246 . S
O146 Co138 2.286 . S
O146 C157 1.259 . S
O147 Co138 2.069 . S
O147 C157 1.289 . S
O148 Co138 2.015 . S
O148 C158 1.257 . S
O149 Co134 2.111 . S
O149 C159 1.274 1_565 S
O150 Co139 1.976 1_545 S
O150 C159 1.251 . S
O151 Co138 2.264 . S
O151 Co139 2.327 . S
O151 C160 1.257 . S
O152 Co139 2.073 . S
O152 C160 1.245 . S
C153 O161 1.259 . S
C153 O162 1.289 . S
C154 O163 1.246 . S
C154 O164 1.257 . S
C155 O143 1.251 . S
C155 O144 1.274 . S
C156 O141 1.245 . S
C156 O142 1.257 . S
C157 O146 1.259 . S
C157 O147 1.289 . S
C158 O145 1.246 . S
C158 O148 1.257 . S
C159 O149 1.274 1_545 S
C159 O150 1.251 . S
C160 O151 1.257 . S
C160 O152 1.245 . S
O161 Co132 2.286 . S
O161 C153 1.259 . S
O162 Co132 2.069 . S
O162 C153 1.289 . S
O163 Co134 2.143 . S
O163 C154 1.246 . S
O164 Co132 2.015 . S
O164 C154 1.257 . S
Co165 O168 2.042 . S
Co165 O175 2.264 . S
Co165 O194 2.286 . S
Co165 O195 2.069 . S
Co165 O197 2.015 . S
Co166 O168 2.122 . S
Co166 O174 2.073 . S
Co166 O175 2.327 . S
Co166 O176 1.976 1_545 S
Co167 O168 2.087 . S
Co167 O170 2.087 . S
Co167 O177 2.111 . S
Co167 O178 2.143 . S
Co167 O182 2.111 . S
Co167 O196 2.143 . S
O168 Co165 2.042 . S
O168 Co166 2.122 . S
O168 Co167 2.087 . S
O168 H169 0.980 . S
H169 O168 0.980 . S
O170 Co167 2.087 . S
O170 Co171 2.042 . S
O170 Co172 2.122 . S
O170 H173 0.980 . S
Co171 O170 2.042 . S
Co171 O179 2.286 . S
Co171 O180 2.069 . S
Co171 O181 2.015 . S
Co171 O184 2.264 . S
Co172 O170 2.122 . S
Co172 O183 1.976 . S
Co172 O184 2.327 . S
Co172 O185 2.073 . S
H173 O170 0.980 . S
O174 Co166 2.073 . S
O174 C189 1.245 . S
O175 Co165 2.264 . S
O175 Co166 2.327 . S
O175 C189 1.257 . S
O176 Co166 1.976 1_565 S
O176 C188 1.251 . S
O177 Co167 2.111 . S
O177 C188 1.274 1_545 S
O178 Co167 2.143 . S
O178 C191 1.246 . S
O179 Co171 2.286 . S
O179 C190 1.259 . S
O180 Co171 2.069 . S
O180 C190 1.289 . S
O181 Co171 2.015 . S
O181 C191 1.257 . S
O182 Co167 2.111 . S
O182 C192 1.274 . S
O183 Co172 1.976 . S
O183 C192 1.251 . S
O184 Co171 2.264 . S
O184 Co172 2.327 . S
O184 C193 1.257 . S
O185 Co172 2.073 . S
O185 C193 1.245 . S
C186 O194 1.259 . S
C186 O195 1.289 . S
C187 O196 1.246 . S
C187 O197 1.257 . S
C188 O176 1.251 . S
C188 O177 1.274 1_565 S
C189 O174 1.245 . S
C189 O175 1.257 . S
C190 O179 1.259 . S
C190 O180 1.289 . S
C191 O178 1.246 . S
C191 O181 1.257 . S
C192 O182 1.274 . S
C192 O183 1.251 . S
C193 O184 1.257 . S
C193 O185 1.245 . S
O194 Co165 2.286 . S
O194 C186 1.259 . S
O195 Co165 2.069 . S
O195 C186 1.289 . S
O196 Co167 2.143 . S
O196 C187 1.246 . S
O197 Co165 2.015 . S
O197 C187 1.257 . S
Co198 O201 2.044 . S
Co198 O208 2.264 . S
Co198 O227 2.286 . S
Co198 O228 2.069 1_545 S
Co198 O230 2.015 . S
Co199 O201 2.128 . S
Co199 O207 2.073 . S
Co199 O208 2.327 . S
Co199 O209 1.976 . S
Co200 O201 2.086 . S
Co200 O203 2.086 . S
Co200 O210 2.115 . S
Co200 O211 2.142 1_545 S
Co200 O215 2.108 1_545 S
Co200 O229 2.145 . S
O201 Co198 2.044 . S
O201 Co199 2.128 . S
O201 Co200 2.086 . S
O201 H202 0.974 1_545 S
H202 O201 0.974 1_565 S
O203 Co200 2.086 . S
O203 Co204 2.042 1_545 S
O203 Co205 2.122 1_545 S
O203 H206 0.980 . S
Co204 O203 2.042 1_565 S
Co204 O212 2.286 . S
Co204 O213 2.069 1_565 S
Co204 O214 2.015 . S
Co204 O217 2.264 . S
Co205 O203 2.122 1_565 S
Co205 O216 1.976 . S
Co205 O217 2.327 . S
Co205 O218 2.073 . S
H206 O203 0.980 . S
O207 Co199 2.073 . S
O207 C222 1.245 . S
O208 Co198 2.264 . S
O208 Co199 2.327 . S
O208 C222 1.257 . S
O209 Co199 1.976 . S
O209 C221 1.251 . S
O210 Co200 2.115 . S
O210 C221 1.274 . S
O211 Co200 2.142 1_565 S
O211 C224 1.246 . S
O212 Co204 2.286 . S
O212 C223 1.259 1_565 S
O213 Co204 2.069 1_545 S
O213 C223 1.289 . S
O214 Co204 2.015 . S
O214 C224 1.257 . S
O215 Co200 2.108 1_565 S
O215 C225 1.274 . S
O216 Co205 1.976 . S
O216 C225 1.251 . S
O217 Co204 2.264 . S
O217 Co205 2.327 . S
O217 C226 1.257 . S
O218 Co205 2.073 . S
O218 C226 1.245 . S
C219 O227 1.259 1_565 S
C219 O228 1.289 . S
C220 O229 1.246 . S
C220 O230 1.257 . S
C221 O209 1.251 . S
C221 O210 1.274 . S
C222 O207 1.245 . S
C222 O208 1.257 . S
C223 O212 1.259 1_545 S
C223 O213 1.289 . S
C224 O211 1.246 . S
C224 O214 1.257 . S
C225 O215 1.274 . S
C225 O216 1.251 . S
C226 O217 1.257 . S
C226 O218 1.245 . S
O227 Co198 2.286 . S
O227 C219 1.259 1_545 S
O228 Co198 2.069 1_565 S
O228 C219 1.289 . S
O229 Co200 2.145 . S
O229 C220 1.246 . S
O230 Co198 2.015 . S
O230 C220 1.257 . S
Co231 O234 2.042 . S
Co231 O241 2.264 . S
Co231 O260 2.286 . S
Co231 O261 2.069 . S
Co231 O263 2.015 . S
Co232 O234 2.122 . S
Co232 O240 2.073 . S
Co232 O241 2.327 . S
Co232 O242 1.976 . S
Co233 O234 2.087 1_554 S
Co233 O236 2.087 . S
Co233 O243 2.111 . S
Co233 O244 2.143 . S
Co233 O248 2.111 1_554 S
Co233 O262 2.143 . S
O234 Co231 2.042 . S
O234 Co232 2.122 . S
O234 Co233 2.087 1_556 S
O234 H235 0.980 . S
H235 O234 0.980 . S
O236 Co233 2.087 . S
O236 Co237 2.042 . S
O236 Co238 2.122 . S
O236 H239 0.980 . S
Co237 O236 2.042 . S
Co237 O245 2.286 . S
Co237 O246 2.069 . S
Co237 O247 2.015 . S
Co237 O250 2.264 . S
Co238 O236 2.122 . S
Co238 O249 1.976 . S
Co238 O250 2.327 . S
Co238 O251 2.073 . S
H239 O236 0.980 . S
O240 Co232 2.073 . S
O240 C255 1.245 . S
O241 Co231 2.264 . S
O241 Co232 2.327 . S
O241 C255 1.257 . S
O242 Co232 1.976 . S
O242 C254 1.251 1_556 S
O243 Co233 2.111 . S
O243 C254 1.274 . S
O244 Co233 2.143 . S
O244 C257 1.246 . S
O245 Co237 2.286 . S
O245 C256 1.259 . S
O246 Co237 2.069 . S
O246 C256 1.289 . S
O247 Co237 2.015 . S
O247 C257 1.257 . S
O248 Co233 2.111 1_556 S
O248 C258 1.274 1_556 S
O249 Co238 1.976 . S
O249 C258 1.251 . S
O250 Co237 2.264 . S
O250 Co238 2.327 . S
O250 C259 1.257 . S
O251 Co238 2.073 . S
O251 C259 1.245 . S
C252 O260 1.259 . S
C252 O261 1.289 . S
C253 O262 1.246 1_556 S
C253 O263 1.257 . S
C254 O242 1.251 1_554 S
C254 O243 1.274 . S
C255 O240 1.245 . S
C255 O241 1.257 . S
C256 O245 1.259 . S
C256 O246 1.289 . S
C257 O244 1.246 . S
C257 O247 1.257 . S
C258 O248 1.274 1_554 S
C258 O249 1.251 . S
C259 O250 1.257 . S
C259 O251 1.245 . S
O260 Co231 2.286 . S
O260 C252 1.259 . S
O261 Co231 2.069 . S
O261 C252 1.289 . S
O262 Co233 2.143 . S
O262 C253 1.246 1_554 S
O263 Co231 2.015 . S
O263 C253 1.257 . S
C264 C265 1.369 1_545 S
C264 C266 1.419 . S
C264 H268 0.930 1_545 S
C265 C264 1.369 1_565 S
C265 C274 1.429 1_565 S
C266 C264 1.419 . S
C266 C267 1.363 . S
C266 H269 0.929 . S
C267 C266 1.363 . S
C267 C273 1.428 . S
H268 C264 0.930 1_565 S
H269 C266 0.929 . S
S270 N271 1.613 . S
S270 N272 1.610 1_655 S
N271 S270 1.613 . S
N271 C274 1.350 1_655 S
N272 S270 1.610 1_455 S
N272 C273 1.351 . S
C273 C267 1.428 . S
C273 N272 1.351 . S
C273 C274 1.434 . S
C274 C265 1.429 1_545 S
C274 N271 1.350 1_455 S
C274 C273 1.434 . S
C275 C276 1.369 . S
C275 C277 1.419 1_545 S
C275 H279 0.930 . S
C276 C275 1.369 . S
C276 C285 1.429 1_545 S
C277 C275 1.419 1_565 S
C277 C278 1.363 . S
C277 H280 0.929 . S
C278 C277 1.363 . S
C278 C284 1.428 . S
H279 C275 0.930 . S
H280 C277 0.929 . S
S281 N282 1.613 . S
S281 N283 1.610 . S
N282 S281 1.613 . S
N282 C285 1.350 . S
N283 S281 1.610 . S
N283 C284 1.351 . S
C284 C278 1.428 . S
C284 N283 1.351 . S
C284 C285 1.434 . S
C285 C276 1.429 1_565 S
C285 N282 1.350 . S
C285 C284 1.434 . S
C286 C287 1.369 . S
C286 C288 1.419 . S
C286 H290 0.930 . S
C287 C286 1.369 . S
C287 C296 1.429 . S
C288 C286 1.419 . S
C288 C289 1.363 . S
C288 H291 0.929 . S
C289 C288 1.363 . S
C289 C295 1.428 . S
H290 C286 0.930 . S
H291 C288 0.929 . S
S292 N293 1.613 1_655 S
S292 N294 1.610 1_655 S
N293 S292 1.613 1_455 S
N293 C296 1.350 . S
N294 S292 1.610 1_455 S
N294 C295 1.351 . S
C295 C289 1.428 . S
C295 N294 1.351 . S
C295 C296 1.434 . S
C296 C287 1.429 . S
C296 N293 1.350 . S
C296 C295 1.434 . S
C297 C298 1.369 . S
C297 C299 1.419 . S
C297 H301 0.930 . S
C298 C297 1.369 . S
C298 C307 1.429 . S
C299 C297 1.419 . S
C299 C300 1.363 . S
C299 H302 0.929 . S
C300 C299 1.363 . S
C300 C306 1.428 . S
H301 C297 0.930 . S
H302 C299 0.929 . S
S303 N304 1.613 . S
S303 N305 1.610 . S
N304 S303 1.613 . S
N304 C307 1.350 . S
N305 S303 1.610 . S
N305 C306 1.351 . S
C306 C300 1.428 . S
C306 N305 1.351 . S
C306 C307 1.434 . S
C307 C298 1.429 . S
C307 N304 1.350 . S
C307 C306 1.434 . S
C308 C309 1.369 . S
C308 C310 1.419 . S
C308 H312 0.930 . S
C309 C308 1.369 . S
C309 C318 1.429 . S
C310 C308 1.419 . S
C310 C311 1.363 . S
C310 H313 0.929 . S
C311 C310 1.363 . S
C311 C317 1.428 . S
H312 C308 0.930 . S
H313 C310 0.929 . S
S314 N315 1.613 . S
S314 N316 1.610 . S
N315 S314 1.613 . S
N315 C318 1.350 . S
N316 S314 1.610 . S
N316 C317 1.351 . S
C317 C311 1.428 . S
C317 N316 1.351 . S
C317 C318 1.434 . S
C318 C309 1.429 . S
C318 N315 1.350 . S
C318 C317 1.434 . S
C319 C320 1.369 . S
C319 C321 1.419 . S
C319 H323 0.930 . S
C320 C319 1.369 . S
C320 C329 1.429 . S
C321 C319 1.419 . S
C321 C322 1.363 . S
C321 H324 0.929 . S
C322 C321 1.363 . S
C322 C328 1.428 . S
H323 C319 0.930 . S
H324 C321 0.929 . S
S325 N326 1.613 . S
S325 N327 1.610 . S
N326 S325 1.613 . S
N326 C329 1.350 . S
N327 S325 1.610 . S
N327 C328 1.351 . S
C328 C322 1.428 . S
C328 N327 1.351 . S
C328 C329 1.434 . S
C329 C320 1.429 . S
C329 N326 1.350 . S
C329 C328 1.434 . S
C330 C331 1.369 . S
C330 C332 1.419 . S
C330 H334 0.930 . S
C331 C330 1.369 . S
C331 C340 1.429 . S
C332 C330 1.419 . S
C332 C333 1.363 . S
C332 H335 0.929 . S
C333 C332 1.363 . S
C333 C339 1.428 . S
H334 C330 0.930 . S
H335 C332 0.929 . S
S336 N337 1.613 . S
S336 N338 1.610 . S
N337 S336 1.613 . S
N337 C340 1.350 . S
N338 S336 1.610 . S
N338 C339 1.351 . S
C339 C333 1.428 . S
C339 N338 1.351 . S
C339 C340 1.434 . S
C340 C331 1.429 . S
C340 N337 1.350 . S
C340 C339 1.434 . S
C341 C342 1.369 . S
C341 C343 1.419 . S
C341 H345 0.930 . S
C342 C341 1.369 . S
C342 C351 1.429 . S
C343 C341 1.419 . S
C343 C344 1.363 . S
C343 H346 0.929 . S
C344 C343 1.363 . S
C344 C350 1.428 . S
H345 C341 0.930 . S
H346 C343 0.929 . S
S347 N348 1.613 1_455 S
S347 N349 1.610 . S
N348 S347 1.613 1_655 S
N348 C351 1.350 . S
N349 S347 1.610 . S
N349 C350 1.351 1_455 S
C350 C344 1.428 . S
C350 N349 1.351 1_655 S
C350 C351 1.434 . S
C351 C342 1.429 . S
C351 N348 1.350 . S
C351 C350 1.434 . S
C352 C353 1.369 . S
C352 C354 1.419 . S
C352 H356 0.930 . S
C353 C352 1.369 . S
C353 C362 1.429 . S
C354 C352 1.419 . S
C354 C355 1.363 1_545 S
C354 H357 0.929 . S
C355 C354 1.363 1_565 S
C355 C361 1.428 . S
H356 C352 0.930 . S
H357 C354 0.929 . S
S358 N359 1.613 . S
S358 N360 1.610 . S
N359 S358 1.613 . S
N359 C362 1.350 1_565 S
N360 S358 1.610 . S
N360 C361 1.351 . S
C361 C355 1.428 . S
C361 N360 1.351 . S
C361 C362 1.434 1_565 S
C362 C353 1.429 . S
C362 N359 1.350 1_545 S
C362 C361 1.434 1_545 S
C363 C364 1.369 . S
C363 C365 1.419 1_545 S
C363 H367 0.930 . S
C364 C363 1.369 . S
C364 C373 1.429 1_545 S
C365 C363 1.419 1_565 S
C365 C366 1.363 . S
C365 H368 0.929 1_565 S
C366 C365 1.363 . S
C366 C372 1.428 . S
H367 C363 0.930 . S
H368 C365 0.929 1_545 S
S369 N370 1.613 . S
S369 N371 1.610 . S
N370 S369 1.613 . S
N370 C373 1.350 . S
N371 S369 1.610 . S
N371 C372 1.351 . S
C372 C366 1.428 . S
C372 N371 1.351 . S
C372 C373 1.434 . S
C373 C364 1.429 1_565 S
C373 N370 1.350 . S
C373 C372 1.434 . S
C374 C375 1.369 . S
C374 C376 1.419 . S
C374 H378 0.930 . S
C375 C374 1.369 . S
C375 C384 1.429 . S
C376 C374 1.419 . S
C376 C377 1.363 . S
C376 H379 0.929 . S
C377 C376 1.363 . S
C377 C383 1.428 . S
H378 C374 0.930 . S
H379 C376 0.929 . S
S380 N381 1.613 . S
S380 N382 1.610 . S
N381 S380 1.613 . S
N381 C384 1.350 . S
N382 S380 1.610 . S
N382 C383 1.351 . S
C383 C377 1.428 . S
C383 N382 1.351 . S
C383 C384 1.434 . S
C384 C375 1.429 . S
C384 N381 1.350 . S
C384 C383 1.434 . S
C385 C386 1.369 . S
C385 C387 1.419 . S
C385 H389 0.930 . S
C386 C385 1.369 . S
C386 C395 1.429 . S
C387 C385 1.419 . S
C387 C388 1.363 . S
C387 H390 0.929 . S
C388 C387 1.363 . S
C388 C394 1.428 . S
H389 C385 0.930 . S
H390 C387 0.929 . S
S391 N392 1.613 . S
S391 N393 1.610 . S
N392 S391 1.613 . S
N392 C395 1.350 . S
N393 S391 1.610 . S
N393 C394 1.351 . S
C394 C388 1.428 . S
C394 N393 1.351 . S
C394 C395 1.434 . S
C395 C386 1.429 . S
C395 N392 1.350 . S
C395 C394 1.434 . S
C396 C397 1.369 . S
C396 C398 1.419 . S
C396 H400 0.930 . S
C397 C396 1.369 . S
C397 C406 1.429 . S
C398 C396 1.419 . S
C398 C399 1.363 . S
C398 H401 0.929 . S
C399 C398 1.363 . S
C399 C405 1.428 . S
H400 C396 0.930 . S
H401 C398 0.929 . S
S402 N403 1.613 . S
S402 N404 1.610 . S
N403 S402 1.613 . S
N403 C406 1.350 . S
N404 S402 1.610 . S
N404 C405 1.351 . S
C405 C399 1.428 . S
C405 N404 1.351 . S
C405 C406 1.434 . S
C406 C397 1.429 . S
C406 N403 1.350 . S
C406 C405 1.434 . S
C407 C408 1.369 . S
C407 C409 1.419 . S
C407 H411 0.930 . S
C408 C407 1.369 . S
C408 C417 1.429 . S
C409 C407 1.419 . S
C409 C410 1.363 . S
C409 H412 0.929 . S
C410 C409 1.363 . S
C410 C416 1.428 . S
H411 C407 0.930 . S
H412 C409 0.929 . S
S413 N414 1.613 . S
S413 N415 1.610 . S
N414 S413 1.613 . S
N414 C417 1.350 . S
N415 S413 1.610 . S
N415 C416 1.351 . S
C416 C410 1.428 . S
C416 N415 1.351 . S
C416 C417 1.434 . S
C417 C408 1.429 . S
C417 N414 1.350 . S
C417 C416 1.434 . S
C418 C419 1.369 . S
C418 C420 1.419 . S
C418 H422 0.930 . S
C419 C418 1.369 . S
C419 C428 1.429 . S
C420 C418 1.419 . S
C420 C421 1.363 . S
C420 H423 0.929 . S
C421 C420 1.363 . S
C421 C427 1.428 . S
H422 C418 0.930 . S
H423 C420 0.929 . S
S424 N425 1.613 . S
S424 N426 1.610 . S
N425 S424 1.613 . S
N425 C428 1.350 . S
N426 S424 1.610 . S
N426 C427 1.351 . S
C427 C421 1.428 . S
C427 N426 1.351 . S
C427 C428 1.434 . S
C428 C419 1.429 . S
C428 N425 1.350 . S
C428 C427 1.434 . S
C429 C430 1.369 . S
C429 C431 1.419 . S
C429 H433 0.930 . S
C430 C429 1.369 . S
C430 C439 1.429 . S
C431 C429 1.419 . S
C431 C432 1.363 . S
C431 H434 0.929 . S
C432 C431 1.363 . S
C432 C438 1.428 . S
H433 C429 0.930 . S
H434 C431 0.929 . S
S435 N436 1.613 . S
S435 N437 1.610 1_565 S
N436 S435 1.613 . S
N436 C439 1.350 1_565 S
N437 S435 1.610 1_545 S
N437 C438 1.351 . S
C438 C432 1.428 . S
C438 N437 1.351 . S
C438 C439 1.434 . S
C439 C430 1.429 . S
C439 N436 1.350 1_545 S
C439 C438 1.434 . S
C440 C441 1.369 1_656 S
C440 C442 1.419 . S
C440 H444 0.930 . S
C441 C440 1.369 1_454 S
C441 C450 1.429 . S
C442 C440 1.419 . S
C442 C443 1.363 1_656 S
C442 H445 0.929 . S
C443 C442 1.363 1_454 S
C443 C449 1.428 . S
H444 C440 0.930 . S
H445 C442 0.929 . S
S446 N447 1.613 . S
S446 N448 1.610 . S
N447 S446 1.613 . S
N447 C450 1.350 . S
N448 S446 1.610 . S
N448 C449 1.351 . S
C449 C443 1.428 . S
C449 N448 1.351 . S
C449 C450 1.434 . S
C450 C441 1.429 . S
C450 N447 1.350 . S
C450 C449 1.434 . S
C451 C452 1.369 . S
C451 C453 1.419 . S
C451 H455 0.930 . S
C452 C451 1.369 . S
C452 C461 1.429 . S
C453 C451 1.419 . S
C453 C454 1.363 . S
C453 H456 0.929 . S
C454 C453 1.363 . S
C454 C460 1.428 . S
H455 C451 0.930 . S
H456 C453 0.929 . S
S457 N458 1.613 . S
S457 N459 1.610 . S
N458 S457 1.613 . S
N458 C461 1.350 . S
N459 S457 1.610 . S
N459 C460 1.351 . S
C460 C454 1.428 . S
C460 N459 1.351 . S
C460 C461 1.434 . S
C461 C452 1.429 . S
C461 N458 1.350 . S
C461 C460 1.434 . S
C462 C463 1.369 . S
C462 C464 1.419 . S
C462 H466 0.930 . S
C463 C462 1.369 . S
C463 C472 1.429 . S
C464 C462 1.419 . S
C464 C465 1.363 . S
C464 H467 0.929 . S
C465 C464 1.363 . S
C465 C471 1.428 . S
H466 C462 0.930 . S
H467 C464 0.929 . S
S468 N469 1.613 . S
S468 N470 1.610 . S
N469 S468 1.613 . S
N469 C472 1.350 . S
N470 S468 1.610 . S
N470 C471 1.351 . S
C471 C465 1.428 . S
C471 N470 1.351 . S
C471 C472 1.434 . S
C472 C463 1.429 . S
C472 N469 1.350 . S
C472 C471 1.434 . S
C473 C474 1.376 . S
C473 C475 1.419 1_565 S
C473 H477 0.930 . S
C474 C473 1.376 . S
C474 C483 1.422 1_455 S
C475 C473 1.419 1_545 S
C475 C476 1.372 . S
C475 H478 0.929 . S
C476 C475 1.372 . S
C476 C482 1.420 1_455 S
H477 C473 0.930 . S
H478 C475 0.929 . S
S479 N480 1.613 . S
S479 N481 1.610 1_565 S
N480 S479 1.613 . S
N480 C483 1.350 . S
N481 S479 1.610 1_545 S
N481 C482 1.351 . S
C482 C476 1.420 1_655 S
C482 N481 1.351 . S
C482 C483 1.434 1_545 S
C483 C474 1.422 1_655 S
C483 N480 1.350 . S
C483 C482 1.434 1_565 S
C484 C485 1.369 . S
C484 C486 1.419 . S
C484 H488 0.930 . S
C485 C484 1.369 . S
C485 C494 1.429 . S
C486 C484 1.419 . S
C486 C487 1.363 . S
C486 H489 0.929 . S
C487 C486 1.363 . S
C487 C493 1.428 . S
H488 C484 0.930 . S
H489 C486 0.929 . S
S490 N491 1.613 . S
S490 N492 1.610 . S
N491 S490 1.613 . S
N491 C494 1.350 . S
N492 S490 1.610 . S
N492 C493 1.351 . S
C493 C487 1.428 . S
C493 N492 1.351 . S
C493 C494 1.434 . S
C494 C485 1.429 . S
C494 N491 1.350 . S
C494 C493 1.434 . S
C495 C496 1.369 . S
C495 C497 1.419 . S
C495 H499 0.930 . S
C496 C495 1.369 . S
C496 C505 1.429 . S
C497 C495 1.419 . S
C497 C498 1.363 . S
C497 H500 0.929 . S
C498 C497 1.363 . S
C498 C504 1.428 . S
H499 C495 0.930 . S
H500 C497 0.929 . S
S501 N502 1.613 . S
S501 N503 1.610 . S
N502 S501 1.613 . S
N502 C505 1.350 . S
N503 S501 1.610 . S
N503 C504 1.351 . S
C504 C498 1.428 . S
C504 N503 1.351 . S
C504 C505 1.434 . S
C505 C496 1.429 . S
C505 N502 1.350 . S
C505 C504 1.434 . S
C506 C507 1.369 . S
C506 C508 1.419 . S
C506 H510 0.930 . S
C507 C506 1.369 . S
C507 C516 1.429 . S
C508 C506 1.419 . S
C508 C509 1.363 . S
C508 H511 0.929 . S
C509 C508 1.363 . S
C509 C515 1.428 . S
H510 C506 0.930 . S
H511 C508 0.929 . S
S512 N513 1.613 . S
S512 N514 1.610 . S
N513 S512 1.613 . S
N513 C516 1.350 . S
N514 S512 1.610 . S
N514 C515 1.351 . S
C515 C509 1.428 . S
C515 N514 1.351 . S
C515 C516 1.434 . S
C516 C507 1.429 . S
C516 N513 1.350 . S
C516 C515 1.434 . S
C517 C518 1.369 1_556 S
C517 C519 1.419 1_565 S
C517 H521 0.930 . S
C518 C517 1.369 1_554 S
C518 C527 1.429 . S
C519 C517 1.419 1_545 S
C519 C520 1.363 1_556 S
C519 H522 0.929 . S
C520 C519 1.363 1_554 S
C520 C526 1.428 . S
H521 C517 0.930 . S
H522 C519 0.929 . S
S523 N524 1.613 1_545 S
S523 N525 1.610 . S
N524 S523 1.613 1_565 S
N524 C527 1.350 . S
N525 S523 1.610 . S
N525 C526 1.351 . S
C526 C520 1.428 . S
C526 N525 1.351 . S
C526 C527 1.434 1_545 S
C527 C518 1.429 . S
C527 N524 1.350 . S
C527 C526 1.434 1_565 S
C528 C529 1.369 1_556 S
C528 C530 1.419 . S
C528 H532 0.930 . S
C529 C528 1.369 1_554 S
C529 C538 1.429 . S
C530 C528 1.419 . S
C530 C531 1.369 . S
C530 H533 0.929 . S
C531 C530 1.369 . S
C531 C537 1.418 1_556 S
H532 C528 0.930 . S
H533 C530 0.929 . S
S534 N535 1.613 . S
S534 N536 1.610 . S
N535 S534 1.613 . S
N535 C538 1.350 . S
N536 S534 1.610 . S
N536 C537 1.351 . S
C537 C531 1.418 1_554 S
C537 N536 1.351 . S
C537 C538 1.434 . S
C538 C529 1.429 . S
C538 N535 1.350 . S
C538 C537 1.434 . S
C539 C540 1.369 . S
C539 C541 1.419 . S
C539 H543 0.930 . S
C540 C539 1.369 . S
C540 C549 1.429 . S
C541 C539 1.419 . S
C541 C542 1.356 1_554 S
C541 H544 0.929 . S
C542 C541 1.356 1_556 S
C542 C548 1.430 1_556 S
H543 C539 0.930 . S
H544 C541 0.929 . S
S545 N546 1.613 . S
S545 N547 1.610 1_544 S
N546 S545 1.613 . S
N546 C549 1.350 1_545 S
N547 S545 1.610 1_566 S
N547 C548 1.350 1_556 S
C548 C542 1.430 1_554 S
C548 N547 1.350 1_554 S
C548 C549 1.434 . S
C549 C540 1.429 . S
C549 N546 1.350 1_565 S
C549 C548 1.434 . S
C550 C551 1.369 . S
C550 C552 1.413 1_455 S
C550 H554 0.930 . S
C551 C550 1.369 . S
C551 C560 1.429 . S
C552 C550 1.413 1_655 S
C552 C553 1.368 . S
C552 H555 0.930 . S
C553 C552 1.368 . S
C553 C559 1.428 . S
H554 C550 0.930 . S
H555 C552 0.930 . S
S556 N557 1.613 1_655 S
S556 N558 1.610 . S
N557 S556 1.613 1_455 S
N557 C560 1.350 . S
N558 S556 1.610 . S
N558 C559 1.351 . S
C559 C553 1.428 . S
C559 N558 1.351 . S
C559 C560 1.434 1_655 S
C560 C551 1.429 . S
C560 N557 1.350 . S
C560 C559 1.434 1_455 S
C561 C562 1.369 . S
C561 C563 1.419 . S
C561 H565 0.930 . S
C562 C561 1.369 . S
C562 C571 1.429 . S
C563 C561 1.419 . S
C563 C564 1.363 . S
C563 H566 0.929 . S
C564 C563 1.363 . S
C564 C570 1.428 . S
H565 C561 0.930 . S
H566 C563 0.929 . S
S567 N568 1.613 . S
S567 N569 1.610 . S
N568 S567 1.613 . S
N568 C571 1.350 . S
N569 S567 1.610 . S
N569 C570 1.351 . S
C570 C564 1.428 . S
C570 N569 1.351 . S
C570 C571 1.434 . S
C571 C562 1.429 . S
C571 N568 1.350 . S
C571 C570 1.434 . S
C572 C573 1.369 . S
C572 C574 1.419 . S
C572 H576 0.930 . S
C573 C572 1.369 . S
C573 C582 1.429 . S
C574 C572 1.419 . S
C574 C575 1.363 . S
C574 H577 0.929 . S
C575 C574 1.363 . S
C575 C581 1.428 . S
H576 C572 0.930 . S
H577 C574 0.929 . S
S578 N579 1.613 . S
S578 N580 1.610 . S
N579 S578 1.613 . S
N579 C582 1.350 . S
N580 S578 1.610 . S
N580 C581 1.351 . S
C581 C575 1.428 . S
C581 N580 1.351 . S
C581 C582 1.434 . S
C582 C573 1.429 . S
C582 N579 1.350 . S
C582 C581 1.434 . S
C583 C584 1.369 1_565 S
C583 C585 1.419 1_655 S
C583 H587 0.930 . S
C584 C583 1.369 1_545 S
C584 C593 1.429 . S
C585 C583 1.419 1_455 S
C585 C586 1.363 . S
C585 H588 0.929 . S
C586 C585 1.363 . S
C586 C592 1.428 1_565 S
H587 C583 0.930 . S
H588 C585 0.929 . S
S589 N590 1.613 1_455 S
S589 N591 1.610 . S
N590 S589 1.613 1_655 S
N590 C593 1.350 . S
N591 S589 1.610 . S
N591 C592 1.351 . S
C592 C586 1.428 1_545 S
C592 N591 1.351 . S
C592 C593 1.434 1_455 S
C593 C584 1.429 . S
C593 N590 1.350 . S
C593 C592 1.434 1_655 S
C594 C595 1.369 . S
C594 C596 1.419 . S
C594 H598 0.930 . S
C595 C594 1.369 . S
C595 C604 1.429 . S
C596 C594 1.419 . S
C596 C597 1.363 . S
C596 H599 0.929 . S
C597 C596 1.363 . S
C597 C603 1.428 . S
H598 C594 0.930 . S
H599 C596 0.929 . S
S600 N601 1.613 . S
S600 N602 1.610 . S
N601 S600 1.613 . S
N601 C604 1.350 . S
N602 S600 1.610 . S
N602 C603 1.351 . S
C603 C597 1.428 . S
C603 N602 1.351 . S
C603 C604 1.434 . S
C604 C595 1.429 . S
C604 N601 1.350 . S
C604 C603 1.434 . S
C605 C606 1.369 1_545 S
C605 C607 1.419 . S
C605 H609 0.930 . S
C606 C605 1.369 1_565 S
C606 C615 1.429 . S
C607 C605 1.419 . S
C607 C608 1.363 . S
C607 H610 0.929 . S
C608 C607 1.363 . S
C608 C614 1.428 1_545 S
H609 C605 0.930 . S
H610 C607 0.929 . S
S611 N612 1.613 . S
S611 N613 1.610 . S
N612 S611 1.613 . S
N612 C615 1.350 . S
N613 S611 1.610 . S
N613 C614 1.351 . S
C614 C608 1.428 1_565 S
C614 N613 1.351 . S
C614 C615 1.434 . S
C615 C606 1.429 . S
C615 N612 1.350 . S
C615 C614 1.434 . S
C265 C28 1.674 . S
C267 C58 1.712 . S
C276 C25 1.914 . S
C278 C94 1.944 . S
C287 C120 1.714 . S
C289 C57 1.670 . S
C298 C87 1.920 . S
C300 C123 1.937 . S
C309 C127 1.668 . S
C311 C157 1.715 . S
C320 C193 1.946 . S
C322 C124 1.911 . S
C331 C156 1.669 . S
C333 C21 1.715 . S
C342 C186 1.910 . S
C344 C24 1.945 . S
C353 C190 1.712 . S
C355 C226 1.674 . S
C364 C223 1.911 . S
C366 C160 1.945 . S
C375 C252 1.711 . S
C377 C189 1.675 . S
C386 C255 1.936 . S
C388 C153 1.919 . S
C397 C259 1.673 . S
C399 C91 1.713 . S
C408 C61 1.942 . S
C410 C256 1.913 . S
C419 C219 1.713 . S
C421 C90 1.672 . S
C430 C222 1.946 . S
C432 C54 1.911 . S
C441 C27 1.176 . S
C443 C23 1.188 1_455 S
C452 C60 1.178 . S
C454 C56 1.186 . S
C463 C93 1.187 . S
C465 C89 1.180 . S
C474 C122 1.172 1_455 S
C476 C126 1.193 . S
C485 C159 1.175 . S
C487 C155 1.189 . S
C496 C192 1.189 . S
C498 C188 1.177 . S
C507 C225 1.178 . S
C509 C221 1.186 . S
C518 C254 1.186 . S
C520 C258 1.179 . S
C529 C257 1.101 . S
C531 C22 1.115 . S
C540 C26 1.101 . S
C542 C253 1.118 . S
C551 C59 1.101 . S
C553 C88 1.109 . S
C562 C224 1.106 . S
C564 C121 1.104 . S
C573 C125 1.101 . S
C575 C220 1.109 . S
C584 C187 1.107 . S
C586 C158 1.104 . S
C595 C191 1.102 . S
C597 C154 1.108 . S
C606 C92 1.102 . S
C608 C55 1.108 . S
