# Generated by pormake.
# Topology qtz-x, (6)-cn, num edge types: 1
# Building blocks:
#     Node 0, Type 0, BuildingBlock: KUMBOL_clean_sbu_1, # of connection points: 6
#     Node 1, Type 0, BuildingBlock: KUMBOL_clean_sbu_1, # of connection points: 6
#     Node 2, Type 0, BuildingBlock: KUMBOL_clean_sbu_1, # of connection points: 6
#     Edge 3, Type (0, 0), BuildingBlock: AJUNOK_clean_linker_0, # of connection points: 2
#     Edge 4, Type (0, 0), BuildingBlock: AJUNOK_clean_linker_0, # of connection points: 2
#     Edge 5, Type (0, 0), BuildingBlock: AJUNOK_clean_linker_0, # of connection points: 2
#     Edge 6, Type (0, 0), BuildingBlock: AJUNOK_clean_linker_0, # of connection points: 2
#     Edge 7, Type (0, 0), BuildingBlock: AJUNOK_clean_linker_0, # of connection points: 2
#     Edge 8, Type (0, 0), BuildingBlock: AJUNOK_clean_linker_0, # of connection points: 2
#     Edge 9, Type (0, 0), BuildingBlock: AJUNOK_clean_linker_0, # of connection points: 2
#     Edge 10, Type (0, 0), BuildingBlock: AJUNOK_clean_linker_0, # of connection points: 2
#     Edge 11, Type (0, 0), BuildingBlock: AJUNOK_clean_linker_0, # of connection points: 2
# Relax obj value: 0.202
# Max RMSD: 0.284
# Mean RMSD: 0.284
data_MOF--net-qtz-x--node1-KUMBOL_clean_sbu_1--edge1-AJUNOK_clean_linker_0
_symmetry_space_group_name_H-M    P1
_symmetry_Int_Tables_number       1
_symmetry_cell_setting            triclinic
loop_
_symmetry_equiv_pos_as_xyz
'x, y, z'
_cell_length_a     11.582588
_cell_length_b     11.540976
_cell_length_c     42.434845
_cell_angle_alpha  89.799519
_cell_angle_beta   90.348876
_cell_angle_gamma 120.01314
loop_
_atom_site_label
_atom_site_type_symbol
_atom_site_fract_x
_atom_site_fract_y
_atom_site_fract_z
_atom_type_partial_charge
C0 C 0.49314 0.5308 0.19635 0.0
C1 C 0.62402 0.7189 0.16161 0.0
C2 C 0.5059 0.63729 0.17799 0.0
C3 C 0.72908 0.69367 0.16436 0.0
C4 C 0.60062 0.50825 0.19989 0.0
C5 C 0.71931 0.59149 0.18392 0.0
N6 N 0.37412 0.44623 0.2097 0.0
C7 C 0.35522 0.33866 0.22716 0.0
C8 C 0.58241 0.39867 0.21808 0.0
C9 C 0.46017 0.31487 0.23217 0.0
Gd10 Gd 0.888 0.34944 0.13743 0.0
Gd11 Gd 0.20719 0.49533 0.20009 0.0
N12 N 0.39884 0.6544 0.17435 0.0
C13 C 0.63084 0.8191 0.1417 0.0
C14 C 0.40536 0.75467 0.15592 0.0
C15 C 0.52065 0.83676 0.13881 0.0
H16 H 0.32066 0.76865 0.15335 0.0
H17 H 0.52451 0.91374 0.12355 0.0
H18 H 0.7806 0.09022 0.18817 0.0
H19 H 0.25909 0.27136 0.23734 0.0
H20 H 0.57582 0.94659 0.21771 0.0
H21 H 0.72037 0.88296 0.12844 0.0
H22 H 0.81464 0.74826 0.1499 0.0
H23 H 0.83239 0.56635 0.09758 0.0
H24 H 0.6588 0.37297 0.22056 0.0
H25 H 0.44554 0.22932 0.24588 0.0
H26 H 0.27264 0.08299 0.18251 0.0
H27 H 0.80222 0.57483 0.18536 0.0
H28 H 0.42326 0.44615 0.10939 0.0
H29 H 0.64059 0.59706 0.08558 0.0
N30 N 0.71912 0.39419 0.12617 0.0
C31 C 0.59913 0.30694 0.13863 0.0
C32 C 0.73578 0.49734 0.10729 0.0
C33 C 0.50424 0.42827 0.11362 0.0
C34 C 0.62782 0.51492 0.10038 0.0
C35 C 0.48852 0.3232 0.13305 0.0
H36 H 0.28303 0.25129 0.14478 0.0
N37 N 0.6972 0.19201 0.16345 0.0
C38 C 0.58803 0.20396 0.15803 0.0
C39 C 0.46381 0.02737 0.19556 0.0
C40 C 0.46845 0.12101 0.17377 0.0
C41 C 0.69323 0.09841 0.18385 0.0
C42 C 0.57736 0.0171 0.20079 0.0
O43 O 0.27208 0.47264 0.15087 0.0
O44 O 0.09921 0.48612 0.14102 0.0
O45 O 0.82619 0.192 0.10258 0.0
O46 O 0.90202 0.3964 0.08735 0.0
O47 O 0.12906 0.64391 0.18867 0.0
O48 O 0.98603 0.58004 0.14422 0.0
O49 O 0.82841 0.38051 0.18632 0.0
O50 O -0.00416 0.3553 0.19697 0.0
O51 O 0.23425 0.64673 0.2343 0.0
O52 O 0.2285 0.46684 0.2502 0.0
O53 O 0.96775 0.20151 0.14774 0.0
O54 O 0.0999 0.26313 0.19393 0.0
C55 C 0.18641 0.46078 0.12971 0.0
C56 C 0.0577 0.66738 0.1671 0.0
C57 C 0.71884 0.22907 0.05929 0.0
C58 C 0.62043 0.24905 0.00998 0.0
C59 C 0.47804 0.12131 0.05364 0.0
C60 C 0.59019 0.14947 0.07163 0.0
C61 C 0.49275 0.17137 0.02307 0.0
C62 C 0.73326 0.2766 0.02829 0.0
C63 C 0.83803 0.27089 0.07922 0.0
C64 C 0.3599 0.13971 0.16882 0.0
C65 C 0.36812 0.23805 0.14807 0.0
H66 H 0.37366 0.96354 0.20862 0.0
C67 C 0.90896 0.38231 0.2078 0.0
C68 C 0.03493 0.17718 0.17023 0.0
C69 C 0.37983 0.66757 0.27558 0.0
C70 C 0.50094 0.75883 0.3249 0.0
C71 C 0.62069 0.81091 0.27533 0.0
C72 C 0.50094 0.73378 0.25933 0.0
C73 C 0.62097 0.8237 0.3079 0.0
C74 C 0.37983 0.67988 0.30854 0.0
C75 C 0.25502 0.58649 0.25782 0.0
H76 H 0.37945 0.06136 0.06353 0.0
H77 H 0.57617 0.11071 0.09535 0.0
H78 H 0.40422 0.14965 0.00969 0.0
H79 H 0.83249 0.33452 0.01853 0.0
H80 H 0.71332 0.86206 0.26238 0.0
H81 H 0.50266 0.72764 0.23414 0.0
H82 H 0.71513 0.88628 0.3198 0.0
H83 H 0.28661 0.62804 0.32129 0.0
C84 C 0.35001 0.6011 0.52625 0.0
C85 C 0.4096 0.47489 0.49088 0.0
C86 C 0.44292 0.59388 0.50687 0.0
C87 C 0.28333 0.36364 0.49508 0.0
C88 C 0.22549 0.48743 0.53151 0.0
C89 C 0.19225 0.36893 0.51573 0.0
N90 N 0.38052 0.71928 0.53969 0.0
C91 C 0.29248 0.73111 0.55879 0.0
C92 C 0.13613 0.49726 0.55171 0.0
C93 C 0.16929 0.61938 0.56549 0.0
Gd94 Gd 0.75589 0.1935 0.47144 0.0
Gd95 Gd 0.5952 0.89127 0.53085 0.0
N96 N 0.56375 0.70469 0.50268 0.0
C97 C 0.50247 0.4724 0.47036 0.0
C98 C 0.65815 0.7015 0.48422 0.0
C99 C 0.62757 0.58642 0.46709 0.0
H100 H 0.75546 0.78844 0.4818 0.0
H101 H 0.70086 0.58556 0.45166 0.0
H102 H 0.59371 0.30389 0.51743 0.0
H103 H 0.31838 0.82609 0.56943 0.0
H104 H 0.64521 0.51251 0.54457 0.0
H105 H 0.47925 0.38271 0.4573 0.0
H106 H 0.25483 0.27593 0.48133 0.0
H107 H 0.02748 0.25673 0.43118 0.0
H108 H 0.04097 0.41152 0.55634 0.0
H109 H 0.0996 0.62773 0.58088 0.0
H110 H 0.0983 0.81339 0.51824 0.0
H111 H 0.09426 0.28357 0.51857 0.0
H112 H 0.31762 0.66349 0.44781 0.0
H113 H 0.25064 0.45051 0.42115 0.0
N114 N 0.96963 0.36509 0.46162 0.0
C115 C 0.00252 0.48364 0.4752 0.0
C116 C 0.05561 0.35169 0.44215 0.0
C117 C 0.21838 0.58229 0.45087 0.0
C118 C 0.18124 0.46088 0.4362 0.0
C119 C 0.12873 0.5956 0.4703 0.0
H120 H 0.26066 0.80104 0.48266 0.0
N121 N 0.78755 0.38371 0.49794 0.0
C122 C 0.90957 0.4932 0.49402 0.0
C123 C 0.84736 0.62049 0.52793 0.0
C124 C 0.94278 0.61397 0.50912 0.0
C125 C 0.69155 0.39005 0.51507 0.0
C126 C 0.7205 0.50828 0.53056 0.0
O127 O 0.50579 0.84185 0.48124 0.0
O128 O 0.70431 0.98593 0.46316 0.0
O129 O 0.66194 0.26798 0.43902 0.0
O130 O 0.78884 0.1966 0.42096 0.0
O131 O 0.82413 0.97864 0.52263 0.0
O132 O 0.89273 0.10161 0.47607 0.0
O133 O 0.83926 0.24481 0.52181 0.0
O134 O 0.6448 0.09734 0.54358 0.0
O135 O 0.68469 0.80736 0.56156 0.0
O136 O 0.55269 0.87037 0.5812 0.0
O137 O 0.52849 0.1074 0.47929 0.0
O138 O 0.46428 0.98912 0.5265 0.0
C139 C 0.58174 0.9008 0.45703 0.0
C140 C 0.91441 0.03949 0.49996 0.0
C141 C 0.79244 0.37637 0.394 0.0
C142 C 0.87608 0.46806 0.34174 0.0
C143 C 0.92431 0.61675 0.3865 0.0
C144 C 0.85344 0.50665 0.40624 0.0
C145 C 0.93654 0.59792 0.35446 0.0
C146 C 0.80213 0.35783 0.36172 0.0
C147 C 0.72364 0.2582 0.41451 0.0
C148 C 0.07037 0.72375 0.50528 0.0
C149 C 0.16258 0.71562 0.48556 0.0
H150 H 0.86983 0.71205 0.54002 0.0
C151 C 0.76742 0.19099 0.54713 0.0
C152 C 0.44082 0.04886 0.5024 0.0
C153 C 0.56803 0.69806 0.60801 0.0
C154 C 0.54969 0.61767 0.66169 0.0
C155 C 0.46329 0.45988 0.6183 0.0
C156 C 0.50409 0.56572 0.59701 0.0
C157 C 0.48629 0.48554 0.65057 0.0
C158 C 0.5891 0.72341 0.64041 0.0
C159 C 0.62223 0.8124 0.58645 0.0
H160 H 0.97089 0.71689 0.39615 0.0
H161 H 0.8471 0.5234 0.431 0.0
H162 H -0.00564 0.68472 0.3397 0.0
H163 H 0.75175 0.25709 0.35226 0.0
H164 H 0.41495 0.35801 0.60977 0.0
H165 H 0.48727 0.54427 0.57213 0.0
H166 H 0.45455 0.40265 0.66685 0.0
H167 H 0.6375 0.82538 0.64912 0.0
C168 C 0.53753 0.84899 0.86628 0.0
C169 C 0.34161 0.78874 0.83417 0.0
C170 C 0.42834 0.75415 0.84908 0.0
C171 C 0.36919 0.92031 0.83561 0.0
C172 C 0.56149 0.98007 0.8691 0.0
C173 C 0.47692 0.01528 0.85332 0.0
N174 N 0.62207 0.81385 0.87956 0.0
C175 C 0.73 0.90253 0.89685 0.0
C176 C 0.67277 0.07211 0.88657 0.0
C177 C 0.755 0.03234 0.90131 0.0
Gd178 Gd 0.71314 0.4324 0.80643 0.0
Gd179 Gd 0.57374 0.59767 0.86933 0.0
N180 N 0.41029 0.62936 0.84588 0.0
C181 C 0.23185 0.69099 0.81747 0.0
C182 C 0.30267 0.53215 0.83013 0.0
C183 C 0.21184 0.56166 0.81584 0.0
H184 H 0.28711 0.43263 0.82791 0.0
H185 H 0.1282 0.48512 0.80314 0.0
H186 H 0.9655 0.59246 0.86011 0.0
H187 H 0.79688 0.87301 0.90721 0.0
H188 H 0.10435 0.53563 0.89285 0.0
H189 H 0.16239 0.71411 0.80575 0.0
H190 H 0.30999 0.9492 0.82201 0.0
H191 H 0.50287 0.1492 0.76922 0.0
H192 H 0.70086 0.17555 0.88786 0.0
H193 H 0.84121 0.10343 0.91474 0.0
H194 H 0.00126 0.10482 0.85676 0.0
H195 H 0.49467 0.11556 0.85393 0.0
H196 H 0.65975 0.88707 0.77971 0.0
H197 H 0.49188 0.93558 0.7567 0.0
N198 N 0.67819 0.22024 0.79745 0.0
C199 C 0.76958 0.1943 0.81059 0.0
C200 C 0.57669 0.12809 0.77908 0.0
C201 C 0.66409 0.97961 0.78497 0.0
C202 C 0.56981 0.00716 0.77198 0.0
C203 C 0.76251 0.07131 0.80521 0.0
H204 H 0.83985 0.94407 0.818 0.0
N205 N 0.87149 0.40674 0.83548 0.0
C206 C 0.86671 0.28825 0.8307 0.0
C207 C 0.03596 0.34458 0.87073 0.0
C208 C 0.95126 0.25589 0.84766 0.0
C209 C 0.95956 0.49757 0.85661 0.0
C210 C 0.03894 0.46553 0.8754 0.0
O211 O 0.5941 0.68514 0.81972 0.0
O212 O 0.56199 0.49302 0.80202 0.0
O213 O 0.87327 0.53447 0.77297 0.0
O214 O 0.67968 0.3828 0.75622 0.0
O215 O 0.42739 0.37149 0.85766 0.0
O216 O 0.48381 0.29948 0.81159 0.0
O217 O 0.67407 0.34012 0.85552 0.0
O218 O 0.72418 0.53922 0.87105 0.0
O219 O 0.42691 0.46358 0.90314 0.0
O220 O 0.5963 0.64643 0.91934 0.0
O221 O 0.8561 0.66138 0.81537 0.0
O222 O 0.804 0.72486 0.86318 0.0
C223 C 0.59366 0.61461 0.79579 0.0
C224 C 0.40008 0.27944 0.83531 0.0
C225 C 0.86938 0.40355 0.72992 0.0
C226 C 0.92035 0.34607 0.67843 0.0
C227 C 0.03741 0.33808 0.72551 0.0
C228 C 0.95972 0.37168 0.74393 0.0
C229 C 0.02208 0.33106 0.69291 0.0
C230 C 0.84688 0.38707 0.69719 0.0
C231 C 0.80431 0.46025 0.7492 0.0
C232 C 0.94242 0.13242 0.84257 0.0
C233 C 0.8498 0.04109 0.82108 0.0
H234 H 0.09967 0.32098 0.88491 0.0
C235 C 0.68632 0.41809 0.87886 0.0
C236 C 0.88522 0.75022 0.83853 0.0
C237 C 0.39405 0.57295 0.94591 0.0
C238 C 0.2902 0.56809 0.99614 0.0
C239 C 0.24707 0.66547 0.94981 0.0
C240 C 0.33008 0.6363 0.93205 0.0
C241 C 0.22678 0.63134 0.98162 0.0
C242 C 0.37418 0.5389 0.97804 0.0
C243 C 0.48244 0.5441 0.92692 0.0
H244 H 0.11146 0.31983 0.7365 0.0
H245 H 0.9725 0.37638 0.76907 0.0
H246 H 0.08841 0.31077 0.67916 0.0
H247 H 0.77135 0.40429 0.68662 0.0
H248 H 0.19804 0.71434 0.93885 0.0
H249 H 0.34348 0.66235 0.90744 0.0
H250 H 0.16116 0.65423 0.99492 0.0
H251 H 0.4257 0.49233 0.98896 0.0
C252 C 0.05951 0.87015 0.14057 0.0
C253 C 0.05855 0.80096 0.16836 0.0
C254 C 0.04473 0.98596 0.14126 0.0
C255 C 0.03249 0.04276 0.16978 0.0
H256 H 0.0678 0.83221 0.1179 0.0
H257 H 0.04574 0.03296 0.11912 0.0
S258 S 0.03114 0.90662 0.24944 0.0
N259 N 0.04982 0.80485 0.22547 0.0
N260 N 0.02008 0.01701 0.22666 0.0
C261 C 0.03127 0.9744 0.19767 0.0
C262 C 0.04699 0.85712 0.197 0.0
C263 C 0.23595 0.03506 0.47349 0.0
C264 C 0.30963 0.05219 0.50168 0.0
C265 C 0.10766 0.02528 0.4732 0.0
C266 C 0.04658 0.03678 0.501 0.0
H267 H 0.27679 0.02758 0.45134 0.0
H268 H 0.05742 0.01188 0.45077 0.0
S269 S 0.20266 0.09649 0.5807 0.0
N270 N 0.31253 0.0876 0.55786 0.0
N271 N 0.07844 0.07375 0.55738 0.0
C272 C 0.12118 0.05668 0.52913 0.0
C273 C 0.2507 0.06523 0.52942 0.0
C274 C 0.07752 0.9511 0.80947 0.0
C275 C 0.0206 0.88155 0.83801 0.0
C276 C 0.19542 0.08017 0.80878 0.0
C277 C 0.26634 0.14672 0.83655 0.0
H278 H 0.02815 0.90705 0.78735 0.0
H279 H 0.23278 0.1271 0.78612 0.0
S280 S 0.16298 0.00988 0.91758 0.0
N281 N 0.04949 0.89137 0.89482 0.0
N282 N 0.26523 0.1304 0.89363 0.0
C283 C 0.21066 0.07782 0.86516 0.0
C284 C 0.09121 0.94637 0.86584 0.0
C285 C 0.28165 0.63758 0.05127 0.0
C286 C 0.27099 0.53819 0.03039 0.0
C287 C 0.25527 0.61107 0.08337 0.0
C288 C 0.21958 0.48504 0.09602 0.0
H289 H 0.30938 0.73662 0.04265 0.0
H290 H 0.26122 0.68968 0.09832 0.0
S291 S 0.17258 0.18875 0.05169 0.0
N292 N 0.21832 0.307 0.02466 0.0
N293 N 0.16989 0.25837 0.08542 0.0
C294 C 0.20789 0.38442 0.07561 0.0
C295 C 0.23453 0.41108 0.04274 0.0
C296 C 0.87124 0.52661 0.28495 0.0
C297 C 0.88889 0.44753 0.30766 0.0
C298 C 0.8782 0.50584 0.25267 0.0
C299 C 0.90153 0.40478 0.24182 0.0
H300 H 0.84955 0.6037 0.29212 0.0
H301 H 0.86337 0.56825 0.23619 0.0
S302 S 0.96078 0.17404 0.29136 0.0
N303 N 0.93897 0.26893 0.31688 0.0
N304 N 0.94442 0.2258 0.25619 0.0
C305 C 0.92071 0.32593 0.2642 0.0
C306 C 0.91586 0.34806 0.29708 0.0
C307 C 0.70176 0.66975 0.74316 0.0
C308 C 0.59663 0.65356 0.76241 0.0
C309 C 0.68863 0.66199 0.7102 0.0
C310 C 0.57176 0.6444 0.69569 0.0
H311 H 0.793 0.68464 0.75372 0.0
H312 H 0.7682 0.66586 0.69612 0.0
S313 S 0.29073 0.64977 0.73481 0.0
N314 N 0.38732 0.65287 0.76396 0.0
N315 N 0.36423 0.64437 0.7021 0.0
C316 C 0.47426 0.64715 0.71435 0.0
C317 C 0.48654 0.65125 0.7478 0.0
C318 C 0.56681 0.25068 0.9217 0.0
C319 C 0.66766 0.37795 0.91241 0.0
C320 C 0.55165 0.21021 0.95323 0.0
C321 C 0.63507 0.29733 0.97694 0.0
H322 H 0.50106 0.18036 0.90444 0.0
H323 H 0.4756 0.10877 0.95892 0.0
S324 S 0.90314 0.64966 0.9655 0.0
N325 N 0.8466 0.59521 0.92963 0.0
N326 N 0.81357 0.52258 0.98929 0.0
C327 C 0.73218 0.428 0.9682 0.0
C328 C 0.74899 0.46787 0.93592 0.0
C329 C 0.60278 0.76749 0.37748 0.0
C330 C 0.50547 0.7775 0.35956 0.0
C331 C 0.62377 0.80398 0.40928 0.0
C332 C 0.54583 0.84816 0.42468 0.0
H333 H 0.66643 0.7354 0.36655 0.0
H334 H 0.70435 0.80111 0.42162 0.0
S335 S 0.28064 0.89546 0.38852 0.0
N336 N 0.33185 0.8374 0.35952 0.0
N337 N 0.37045 0.90344 0.41969 0.0
C338 C 0.44711 0.8569 0.40729 0.0
C339 C 0.4261 0.82075 0.37473 0.0
C340 C 0.84904 0.3847 0.62455 0.0
C341 C 0.88695 0.31102 0.64441 0.0
C342 C 0.8135 0.34796 0.59281 0.0
C343 C 0.81789 0.23874 0.57951 0.0
H344 H 0.84595 0.47079 0.63354 0.0
H345 H 0.78117 0.40464 0.57887 0.0
S346 S 0.90715 0.01189 0.62129 0.0
N347 N 0.91738 0.11768 0.64851 0.0
N348 N 0.86551 0.06015 0.58859 0.0
C349 C 0.85779 0.16672 0.59893 0.0
C350 C 0.88885 0.20006 0.63135 0.0
loop_
_geom_bond_atom_site_label_1
_geom_bond_atom_site_label_2
_geom_bond_distance
_geom_bond_site_symmetry_2
_ccdc_geom_bond_type
C0 C2 1.422 . S
C0 C4 1.415 . S
C0 N6 1.369 . S
C1 C2 1.421 . S
C1 C3 1.417 . S
C1 C13 1.422 . S
C2 C0 1.422 . S
C2 C1 1.421 . S
C2 N12 1.359 . S
C3 C1 1.417 . S
C3 C5 1.329 . S
C3 H22 0.930 . S
C4 C0 1.415 . S
C4 C5 1.437 . S
C4 C8 1.413 . S
C5 C3 1.329 . S
C5 C4 1.437 . S
C5 H27 0.929 . S
N6 C0 1.369 . S
N6 C7 1.338 . S
N6 Gd11 2.622 . S
C7 N6 1.338 . S
C7 C9 1.378 . S
C7 H19 0.929 . S
C8 C4 1.413 . S
C8 C9 1.348 . S
C8 H24 0.931 . S
C9 C7 1.378 . S
C9 C8 1.348 . S
C9 H25 0.930 . S
Gd10 N30 2.622 . S
Gd10 N37 2.570 . S
Gd10 O44 2.353 1_655 S
Gd10 O45 2.468 . S
Gd10 O46 2.427 . S
Gd10 O48 2.388 . S
Gd10 O49 2.386 . S
Gd10 O53 2.307 . S
Gd10 C63 2.805 . S
Gd11 N6 2.622 . S
Gd11 N12 2.570 . S
Gd11 O43 2.386 . S
Gd11 O47 2.307 . S
Gd11 O50 2.353 1_455 S
Gd11 O51 2.468 . S
Gd11 O52 2.427 . S
Gd11 O54 2.388 . S
Gd11 C75 2.805 . S
N12 C2 1.359 . S
N12 Gd11 2.570 . S
N12 C14 1.343 . S
C13 C1 1.422 . S
C13 C15 1.321 . S
C13 H21 0.931 . S
C14 N12 1.343 . S
C14 C15 1.390 . S
C14 H16 0.931 . S
C15 C13 1.321 . S
C15 C14 1.390 . S
C15 H17 0.930 1_565 S
H16 C14 0.931 . S
H17 C15 0.930 1_545 S
H18 C41 0.931 . S
H19 C7 0.929 . S
H20 C42 0.930 . S
H21 C13 0.931 . S
H22 C3 0.930 . S
H23 C32 0.929 . S
H24 C8 0.931 . S
H25 C9 0.930 . S
H26 C64 0.930 . S
H27 C5 0.929 . S
H28 C33 0.931 . S
H29 C34 0.930 . S
N30 Gd10 2.622 . S
N30 C31 1.369 . S
N30 C32 1.338 . S
C31 N30 1.369 . S
C31 C35 1.415 . S
C31 C38 1.422 . S
C32 H23 0.929 . S
C32 N30 1.338 . S
C32 C34 1.378 . S
C33 H28 0.931 . S
C33 C34 1.348 . S
C33 C35 1.413 . S
C34 H29 0.930 . S
C34 C32 1.378 . S
C34 C33 1.348 . S
C35 C31 1.415 . S
C35 C33 1.413 . S
C35 C65 1.437 . S
H36 C65 0.929 . S
N37 Gd10 2.570 . S
N37 C38 1.359 . S
N37 C41 1.343 . S
C38 C31 1.422 . S
C38 N37 1.359 . S
C38 C40 1.421 . S
C39 C40 1.422 1_565 S
C39 C42 1.321 . S
C39 H66 0.931 . S
C40 C38 1.421 . S
C40 C39 1.422 1_545 S
C40 C64 1.417 . S
C41 H18 0.931 . S
C41 N37 1.343 . S
C41 C42 1.390 1_545 S
C42 H20 0.930 . S
C42 C39 1.321 . S
C42 C41 1.390 1_565 S
O43 Gd11 2.386 . S
O43 C55 1.265 . S
O44 Gd10 2.353 1_455 S
O44 C55 1.242 . S
O45 Gd10 2.468 . S
O45 C63 1.263 . S
O46 Gd10 2.427 . S
O46 C63 1.252 . S
O47 Gd11 2.307 . S
O47 C56 1.261 . S
O48 Gd10 2.388 . S
O48 C56 1.252 1_655 S
O49 Gd10 2.386 . S
O49 C67 1.265 . S
O50 Gd11 2.353 1_655 S
O50 C67 1.242 . S
O51 Gd11 2.468 . S
O51 C75 1.263 . S
O52 Gd11 2.427 . S
O52 C75 1.252 . S
O53 Gd10 2.307 . S
O53 C68 1.261 . S
O54 Gd11 2.388 . S
O54 C68 1.252 1_455 S
C55 O43 1.265 . S
C55 O44 1.242 . S
C56 O47 1.261 . S
C56 O48 1.252 1_455 S
C57 C60 1.394 . S
C57 C62 1.370 . S
C57 C63 1.500 . S
C58 C61 1.383 1_554 S
C58 C62 1.395 . S
C59 C60 1.396 . S
C59 C61 1.365 1_554 S
C59 H76 0.929 1_554 S
C60 C57 1.394 . S
C60 C59 1.396 . S
C60 H77 0.930 . S
C61 C58 1.383 1_556 S
C61 C59 1.365 1_556 S
C61 H78 0.931 . S
C62 C57 1.370 . S
C62 C58 1.395 . S
C62 H79 0.930 . S
C63 Gd10 2.805 . S
C63 O45 1.263 . S
C63 O46 1.252 . S
C63 C57 1.500 . S
C64 H26 0.930 . S
C64 C40 1.417 . S
C64 C65 1.329 . S
C65 C35 1.437 . S
C65 H36 0.929 . S
C65 C64 1.329 . S
H66 C39 0.931 . S
C67 O49 1.265 . S
C67 O50 1.242 . S
C68 O53 1.261 . S
C68 O54 1.252 1_655 S
C69 C72 1.394 . S
C69 C74 1.370 . S
C69 C75 1.500 . S
C70 C73 1.383 . S
C70 C74 1.395 . S
C71 C72 1.396 . S
C71 C73 1.365 . S
C71 H80 0.929 . S
C72 C69 1.394 . S
C72 C71 1.396 . S
C72 H81 0.930 . S
C73 C70 1.383 . S
C73 C71 1.365 . S
C73 H82 0.931 . S
C74 C69 1.370 . S
C74 C70 1.395 . S
C74 H83 0.930 . S
C75 Gd11 2.805 . S
C75 O51 1.263 . S
C75 O52 1.252 . S
C75 C69 1.500 . S
H76 C59 0.929 1_556 S
H77 C60 0.930 . S
H78 C61 0.931 . S
H79 C62 0.930 . S
H80 C71 0.929 . S
H81 C72 0.930 . S
H82 C73 0.931 . S
H83 C74 0.930 . S
C84 C86 1.422 . S
C84 C88 1.415 . S
C84 N90 1.369 . S
C85 C86 1.421 . S
C85 C87 1.417 . S
C85 C97 1.422 . S
C86 C84 1.422 . S
C86 C85 1.421 . S
C86 N96 1.359 . S
C87 C85 1.417 . S
C87 C89 1.329 . S
C87 H106 0.930 . S
C88 C84 1.415 . S
C88 C89 1.437 . S
C88 C92 1.413 . S
C89 C87 1.329 . S
C89 C88 1.437 . S
C89 H111 0.929 . S
N90 C84 1.369 . S
N90 C91 1.338 . S
N90 Gd95 2.622 . S
C91 N90 1.338 . S
C91 C93 1.378 . S
C91 H103 0.929 . S
C92 C88 1.413 . S
C92 C93 1.348 . S
C92 H108 0.931 1_455 S
C93 C91 1.378 . S
C93 C92 1.348 . S
C93 H109 0.930 . S
Gd94 N114 2.622 1_655 S
Gd94 N121 2.570 . S
Gd94 O128 2.353 . S
Gd94 O129 2.468 . S
Gd94 O130 2.427 . S
Gd94 O132 2.388 . S
Gd94 O133 2.386 . S
Gd94 O137 2.307 . S
Gd94 C147 2.805 . S
Gd95 N90 2.622 . S
Gd95 N96 2.570 . S
Gd95 O127 2.386 . S
Gd95 O131 2.307 1_565 S
Gd95 O134 2.353 1_565 S
Gd95 O135 2.468 . S
Gd95 O136 2.427 . S
Gd95 O138 2.388 1_565 S
Gd95 C159 2.805 . S
N96 C86 1.359 . S
N96 Gd95 2.570 . S
N96 C98 1.343 . S
C97 C85 1.422 . S
C97 C99 1.321 . S
C97 H105 0.931 . S
C98 N96 1.343 . S
C98 C99 1.390 . S
C98 H100 0.931 . S
C99 C97 1.321 . S
C99 C98 1.390 . S
C99 H101 0.930 . S
H100 C98 0.931 . S
H101 C99 0.930 . S
H102 C125 0.931 . S
H103 C91 0.929 . S
H104 C126 0.930 . S
H105 C97 0.931 . S
H106 C87 0.930 . S
H107 C116 0.929 . S
H108 C92 0.931 1_655 S
H109 C93 0.930 . S
H110 C148 0.930 . S
H111 C89 0.929 . S
H112 C117 0.931 . S
H113 C118 0.930 . S
N114 Gd94 2.622 1_455 S
N114 C115 1.369 . S
N114 C116 1.338 . S
C115 N114 1.369 . S
C115 C119 1.415 . S
C115 C122 1.422 1_455 S
C116 H107 0.929 . S
C116 N114 1.338 . S
C116 C118 1.378 . S
C117 H112 0.931 . S
C117 C118 1.348 . S
C117 C119 1.413 . S
C118 H113 0.930 . S
C118 C116 1.378 . S
C118 C117 1.348 . S
C119 C115 1.415 . S
C119 C117 1.413 . S
C119 C149 1.437 . S
H120 C149 0.929 . S
N121 Gd94 2.570 . S
N121 C122 1.359 . S
N121 C125 1.343 . S
C122 C115 1.422 1_655 S
C122 N121 1.359 . S
C122 C124 1.421 . S
C123 C124 1.422 . S
C123 C126 1.321 . S
C123 H150 0.931 . S
C124 C122 1.421 . S
C124 C123 1.422 . S
C124 C148 1.417 1_655 S
C125 H102 0.931 . S
C125 N121 1.343 . S
C125 C126 1.390 . S
C126 H104 0.930 . S
C126 C123 1.321 . S
C126 C125 1.390 . S
O127 Gd95 2.386 . S
O127 C139 1.265 . S
O128 Gd94 2.353 . S
O128 C139 1.242 1_545 S
O129 Gd94 2.468 . S
O129 C147 1.263 . S
O130 Gd94 2.427 . S
O130 C147 1.252 . S
O131 Gd95 2.307 1_545 S
O131 C140 1.261 . S
O132 Gd94 2.388 . S
O132 C140 1.252 . S
O133 Gd94 2.386 . S
O133 C151 1.265 . S
O134 Gd95 2.353 1_545 S
O134 C151 1.242 . S
O135 Gd95 2.468 . S
O135 C159 1.263 . S
O136 Gd95 2.427 . S
O136 C159 1.252 . S
O137 Gd94 2.307 . S
O137 C152 1.261 . S
O138 Gd95 2.388 1_545 S
O138 C152 1.252 . S
C139 O127 1.265 . S
C139 O128 1.242 1_565 S
C140 O131 1.261 . S
C140 O132 1.252 . S
C141 C144 1.394 . S
C141 C146 1.370 . S
C141 C147 1.500 . S
C142 C145 1.383 . S
C142 C146 1.395 . S
C143 C144 1.396 . S
C143 C145 1.365 . S
C143 H160 0.929 1_655 S
C144 C141 1.394 . S
C144 C143 1.396 . S
C144 H161 0.930 1_655 S
C145 C142 1.383 . S
C145 C143 1.365 . S
C145 H162 0.931 . S
C146 C141 1.370 . S
C146 C142 1.395 . S
C146 H163 0.930 . S
C147 Gd94 2.805 . S
C147 O129 1.263 . S
C147 O130 1.252 . S
C147 C141 1.500 . S
C148 H110 0.930 . S
C148 C124 1.417 1_455 S
C148 C149 1.329 . S
C149 C119 1.437 . S
C149 H120 0.929 . S
C149 C148 1.329 . S
H150 C123 0.931 . S
C151 O133 1.265 . S
C151 O134 1.242 . S
C152 O137 1.261 . S
C152 O138 1.252 . S
C153 C156 1.394 . S
C153 C158 1.370 . S
C153 C159 1.500 . S
C154 C157 1.383 . S
C154 C158 1.395 . S
C155 C156 1.396 . S
C155 C157 1.365 . S
C155 H164 0.929 . S
C156 C153 1.394 . S
C156 C155 1.396 . S
C156 H165 0.930 . S
C157 C154 1.383 . S
C157 C155 1.365 . S
C157 H166 0.931 . S
C158 C153 1.370 . S
C158 C154 1.395 . S
C158 H167 0.930 . S
C159 Gd95 2.805 . S
C159 O135 1.263 . S
C159 O136 1.252 . S
C159 C153 1.500 . S
H160 C143 0.929 1_455 S
H161 C144 0.930 1_455 S
H162 C145 0.931 . S
H163 C146 0.930 . S
H164 C155 0.929 . S
H165 C156 0.930 . S
H166 C157 0.931 . S
H167 C158 0.930 . S
C168 C170 1.422 . S
C168 C172 1.415 . S
C168 N174 1.369 . S
C169 C170 1.421 . S
C169 C171 1.417 . S
C169 C181 1.422 . S
C170 C168 1.422 . S
C170 C169 1.421 . S
C170 N180 1.359 . S
C171 C169 1.417 . S
C171 C173 1.329 . S
C171 H190 0.930 . S
C172 C168 1.415 . S
C172 C173 1.437 . S
C172 C176 1.413 1_565 S
C173 C171 1.329 . S
C173 C172 1.437 . S
C173 H195 0.929 1_565 S
N174 C168 1.369 . S
N174 C175 1.338 . S
N174 Gd179 2.622 . S
C175 N174 1.338 . S
C175 C177 1.378 1_565 S
C175 H187 0.929 . S
C176 C172 1.413 1_545 S
C176 C177 1.348 . S
C176 H192 0.931 . S
C177 C175 1.378 1_545 S
C177 C176 1.348 . S
C177 H193 0.930 . S
Gd178 N198 2.622 . S
Gd178 N205 2.570 . S
Gd178 O212 2.353 . S
Gd178 O213 2.468 . S
Gd178 O214 2.427 . S
Gd178 O216 2.388 . S
Gd178 O217 2.386 . S
Gd178 O221 2.307 . S
Gd178 C231 2.805 . S
Gd179 N174 2.622 . S
Gd179 N180 2.570 . S
Gd179 O211 2.386 . S
Gd179 O215 2.307 . S
Gd179 O218 2.353 . S
Gd179 O219 2.468 . S
Gd179 O220 2.427 . S
Gd179 O222 2.388 . S
Gd179 C243 2.805 . S
N180 C170 1.359 . S
N180 Gd179 2.570 . S
N180 C182 1.343 . S
C181 C169 1.422 . S
C181 C183 1.321 . S
C181 H189 0.931 . S
C182 N180 1.343 . S
C182 C183 1.390 . S
C182 H184 0.931 . S
C183 C181 1.321 . S
C183 C182 1.390 . S
C183 H185 0.930 . S
H184 C182 0.931 . S
H185 C183 0.930 . S
H186 C209 0.931 . S
H187 C175 0.929 . S
H188 C210 0.930 . S
H189 C181 0.931 . S
H190 C171 0.930 . S
H191 C200 0.929 . S
H192 C176 0.931 . S
H193 C177 0.930 . S
H194 C232 0.932 . S
H195 C173 0.929 1_545 S
H196 C201 0.931 . S
H197 C202 0.930 . S
N198 Gd178 2.622 . S
N198 C199 1.369 . S
N198 C200 1.338 1_545 S
C199 N198 1.369 . S
C199 C203 1.415 1_545 S
C199 C206 1.422 . S
C200 H191 0.929 . S
C200 N198 1.338 1_565 S
C200 C202 1.378 . S
C201 H196 0.931 . S
C201 C202 1.348 . S
C201 C203 1.413 . S
C202 H197 0.930 . S
C202 C200 1.378 . S
C202 C201 1.348 . S
C203 C199 1.415 1_565 S
C203 C201 1.413 . S
C203 C233 1.437 . S
H204 C233 0.929 . S
N205 Gd178 2.570 . S
N205 C206 1.359 . S
N205 C209 1.343 1_655 S
C206 C199 1.422 . S
C206 N205 1.359 . S
C206 C208 1.421 1_655 S
C207 C208 1.422 . S
C207 C210 1.321 . S
C207 H234 0.931 . S
C208 C206 1.421 1_455 S
C208 C207 1.422 . S
C208 C232 1.417 . S
C209 H186 0.931 . S
C209 N205 1.343 1_455 S
C209 C210 1.390 . S
C210 H188 0.930 . S
C210 C207 1.321 . S
C210 C209 1.390 . S
O211 Gd179 2.386 . S
O211 C223 1.265 . S
O212 Gd178 2.353 . S
O212 C223 1.242 . S
O213 Gd178 2.468 . S
O213 C231 1.263 . S
O214 Gd178 2.427 . S
O214 C231 1.252 . S
O215 Gd179 2.307 . S
O215 C224 1.261 . S
O216 Gd178 2.388 . S
O216 C224 1.252 . S
O217 Gd178 2.386 . S
O217 C235 1.265 . S
O218 Gd179 2.353 . S
O218 C235 1.242 . S
O219 Gd179 2.468 . S
O219 C243 1.263 . S
O220 Gd179 2.427 . S
O220 C243 1.252 . S
O221 Gd178 2.307 . S
O221 C236 1.261 . S
O222 Gd179 2.388 . S
O222 C236 1.252 . S
C223 O211 1.265 . S
C223 O212 1.242 . S
C224 O215 1.261 . S
C224 O216 1.252 . S
C225 C228 1.394 . S
C225 C230 1.370 1_655 S
C225 C231 1.500 . S
C226 C229 1.383 1_455 S
C226 C230 1.395 . S
C227 C228 1.396 . S
C227 C229 1.365 . S
C227 H244 0.929 . S
C228 C225 1.394 . S
C228 C227 1.396 . S
C228 H245 0.930 . S
C229 C226 1.383 1_655 S
C229 C227 1.365 . S
C229 H246 0.931 1_655 S
C230 C225 1.370 1_455 S
C230 C226 1.395 . S
C230 H247 0.930 . S
C231 Gd178 2.805 . S
C231 O213 1.263 . S
C231 O214 1.252 . S
C231 C225 1.500 . S
C232 H194 0.932 . S
C232 C208 1.417 . S
C232 C233 1.329 1_445 S
C233 C203 1.437 . S
C233 H204 0.929 . S
C233 C232 1.329 1_665 S
H234 C207 0.931 . S
C235 O217 1.265 . S
C235 O218 1.242 . S
C236 O221 1.261 . S
C236 O222 1.252 . S
C237 C240 1.394 . S
C237 C242 1.370 . S
C237 C243 1.500 . S
C238 C241 1.383 1_556 S
C238 C242 1.395 . S
C239 C240 1.396 . S
C239 C241 1.365 1_556 S
C239 H248 0.929 1_556 S
C240 C237 1.394 . S
C240 C239 1.396 . S
C240 H249 0.930 . S
C241 C238 1.383 1_554 S
C241 C239 1.365 1_554 S
C241 H250 0.931 . S
C242 C237 1.370 . S
C242 C238 1.395 . S
C242 H251 0.930 . S
C243 Gd179 2.805 . S
C243 O219 1.263 . S
C243 O220 1.252 . S
C243 C237 1.500 . S
H244 C227 0.929 . S
H245 C228 0.930 . S
H246 C229 0.931 1_455 S
H247 C230 0.930 . S
H248 C239 0.929 1_554 S
H249 C240 0.930 . S
H250 C241 0.931 . S
H251 C242 0.930 . S
C252 C253 1.369 1_655 S
C252 C254 1.419 . S
C252 H256 0.930 . S
C253 C252 1.369 1_455 S
C253 C262 1.429 . S
C254 C252 1.419 . S
C254 C255 1.363 1_565 S
C254 H257 0.929 . S
C255 C254 1.363 1_545 S
C255 C261 1.428 1_655 S
H256 C252 0.930 . S
H257 C254 0.929 . S
S258 N259 1.613 1_545 S
S258 N260 1.610 . S
N259 S258 1.613 1_565 S
N259 C262 1.350 . S
N260 S258 1.610 . S
N260 C261 1.351 . S
C261 C255 1.428 1_455 S
C261 N260 1.351 . S
C261 C262 1.434 1_545 S
C262 C253 1.429 . S
C262 N259 1.350 . S
C262 C261 1.434 1_565 S
C263 C264 1.369 . S
C263 C265 1.419 . S
C263 H267 0.930 . S
C264 C263 1.369 . S
C264 C273 1.429 . S
C265 C263 1.419 . S
C265 C266 1.363 . S
C265 H268 0.929 . S
C266 C265 1.363 . S
C266 C272 1.428 . S
H267 C263 0.930 . S
H268 C265 0.929 . S
S269 N270 1.613 . S
S269 N271 1.610 . S
N270 S269 1.613 . S
N270 C273 1.350 . S
N271 S269 1.610 . S
N271 C272 1.351 . S
C272 C266 1.428 . S
C272 N271 1.351 . S
C272 C273 1.434 . S
C273 C264 1.429 . S
C273 N270 1.350 . S
C273 C272 1.434 . S
C274 C275 1.369 . S
C274 C276 1.419 1_565 S
C274 H278 0.930 . S
C275 C274 1.369 . S
C275 C284 1.429 . S
C276 C274 1.419 1_545 S
C276 C277 1.363 . S
C276 H279 0.929 . S
C277 C276 1.363 . S
C277 C283 1.428 1_545 S
H278 C274 0.930 . S
H279 C276 0.929 . S
S280 N281 1.613 . S
S280 N282 1.610 1_565 S
N281 S280 1.613 . S
N281 C284 1.350 . S
N282 S280 1.610 1_545 S
N282 C283 1.351 1_545 S
C283 C277 1.428 1_565 S
C283 N282 1.351 1_565 S
C283 C284 1.434 . S
C284 C275 1.429 . S
C284 N281 1.350 . S
C284 C283 1.434 . S
C285 C286 1.369 . S
C285 C287 1.419 . S
C285 H289 0.930 . S
C286 C285 1.369 . S
C286 C295 1.429 . S
C287 C285 1.419 . S
C287 C288 1.363 . S
C287 H290 0.929 . S
C288 C287 1.363 . S
C288 C294 1.428 . S
H289 C285 0.930 . S
H290 C287 0.929 . S
S291 N292 1.613 1_655 S
S291 N293 1.610 . S
N292 S291 1.613 1_455 S
N292 C295 1.350 . S
N293 S291 1.610 . S
N293 C294 1.351 1_655 S
C294 C288 1.428 . S
C294 N293 1.351 1_455 S
C294 C295 1.434 . S
C295 C286 1.429 . S
C295 N292 1.350 . S
C295 C294 1.434 . S
C296 C297 1.369 . S
C296 C298 1.419 . S
C296 H300 0.930 . S
C297 C296 1.369 . S
C297 C306 1.429 . S
C298 C296 1.419 . S
C298 C299 1.363 . S
C298 H301 0.929 . S
C299 C298 1.363 . S
C299 C305 1.428 . S
H300 C296 0.930 . S
H301 C298 0.929 . S
S302 N303 1.613 . S
S302 N304 1.610 . S
N303 S302 1.613 . S
N303 C306 1.350 . S
N304 S302 1.610 . S
N304 C305 1.351 . S
C305 C299 1.428 . S
C305 N304 1.351 . S
C305 C306 1.434 . S
C306 C297 1.429 . S
C306 N303 1.350 . S
C306 C305 1.434 . S
C307 C308 1.369 . S
C307 C309 1.419 . S
C307 H311 0.930 . S
C308 C307 1.369 . S
C308 C317 1.429 . S
C309 C307 1.419 . S
C309 C310 1.363 . S
C309 H312 0.929 . S
C310 C309 1.363 . S
C310 C316 1.428 . S
H311 C307 0.930 . S
H312 C309 0.929 . S
S313 N314 1.613 . S
S313 N315 1.610 . S
N314 S313 1.613 . S
N314 C317 1.350 . S
N315 S313 1.610 . S
N315 C316 1.351 . S
C316 C310 1.428 . S
C316 N315 1.351 . S
C316 C317 1.434 . S
C317 C308 1.429 . S
C317 N314 1.350 . S
C317 C316 1.434 . S
C318 C319 1.369 . S
C318 C320 1.419 . S
C318 H322 0.930 . S
C319 C318 1.369 . S
C319 C328 1.429 . S
C320 C318 1.419 . S
C320 C321 1.363 . S
C320 H323 0.929 1_545 S
C321 C320 1.363 . S
C321 C327 1.428 . S
H322 C318 0.930 . S
H323 C320 0.929 1_565 S
S324 N325 1.613 1_554 S
S324 N326 1.610 . S
N325 S324 1.613 1_556 S
N325 C328 1.350 . S
N326 S324 1.610 . S
N326 C327 1.351 1_554 S
C327 C321 1.428 . S
C327 N326 1.351 1_556 S
C327 C328 1.434 . S
C328 C319 1.429 . S
C328 N325 1.350 . S
C328 C327 1.434 . S
C329 C330 1.369 . S
C329 C331 1.419 . S
C329 H333 0.930 . S
C330 C329 1.369 . S
C330 C339 1.429 1_565 S
C331 C329 1.419 . S
C331 C332 1.363 . S
C331 H334 0.929 . S
C332 C331 1.363 . S
C332 C338 1.428 1_565 S
H333 C329 0.930 . S
H334 C331 0.929 . S
S335 N336 1.613 . S
S335 N337 1.610 . S
N336 S335 1.613 . S
N336 C339 1.350 . S
N337 S335 1.610 . S
N337 C338 1.351 . S
C338 C332 1.428 1_545 S
C338 N337 1.351 . S
C338 C339 1.434 . S
C339 C330 1.429 1_545 S
C339 N336 1.350 . S
C339 C338 1.434 . S
C340 C341 1.369 . S
C340 C342 1.419 1_455 S
C340 H344 0.930 . S
C341 C340 1.369 . S
C341 C350 1.429 1_455 S
C342 C340 1.419 1_655 S
C342 C343 1.363 . S
C342 H345 0.929 . S
C343 C342 1.363 . S
C343 C349 1.428 . S
H344 C340 0.930 . S
H345 C342 0.929 . S
S346 N347 1.613 . S
S346 N348 1.610 . S
N347 S346 1.613 . S
N347 C350 1.350 . S
N348 S346 1.610 . S
N348 C349 1.351 . S
C349 C343 1.428 . S
C349 N348 1.351 . S
C349 C350 1.434 . S
C350 C341 1.429 1_655 S
C350 N347 1.350 . S
C350 C349 1.434 . S
C253 C56 1.660 . S
C255 C68 1.652 . S
C264 C152 1.651 . S
C266 C140 1.658 1_455 S
C275 C236 1.650 1_455 S
C277 C224 1.659 . S
C286 C238 1.336 1_554 S
C288 C55 1.507 . S
C297 C142 1.337 . S
C299 C67 1.837 . S
C308 C223 1.510 . S
C310 C154 1.329 . S
C319 C235 1.841 . S
C321 C58 1.342 1_556 S
C330 C70 1.341 . S
C332 C139 1.505 . S
C341 C226 1.341 . S
C343 C151 1.833 . S
