# Generated by pormake.
# Topology wfx, (7)-cn, num edge types: 1
# Building blocks:
#     Node 0, Type 0, BuildingBlock: NUHQUE_clean_sbu_2, # of connection points: 7
#     Node 1, Type 0, BuildingBlock: NUHQUE_clean_sbu_2, # of connection points: 7
#     Node 2, Type 0, BuildingBlock: NUHQUE_clean_sbu_2, # of connection points: 7
#     Node 3, Type 0, BuildingBlock: NUHQUE_clean_sbu_2, # of connection points: 7
#     Node 4, Type 0, BuildingBlock: NUHQUE_clean_sbu_2, # of connection points: 7
#     Node 5, Type 0, BuildingBlock: NUHQUE_clean_sbu_2, # of connection points: 7
#     Node 6, Type 0, BuildingBlock: NUHQUE_clean_sbu_2, # of connection points: 7
#     Node 7, Type 0, BuildingBlock: NUHQUE_clean_sbu_2, # of connection points: 7
#     Node 8, Type 0, BuildingBlock: NUHQUE_clean_sbu_2, # of connection points: 7
#     Node 9, Type 0, BuildingBlock: NUHQUE_clean_sbu_2, # of connection points: 7
#     Node 10, Type 0, BuildingBlock: NUHQUE_clean_sbu_2, # of connection points: 7
#     Node 11, Type 0, BuildingBlock: NUHQUE_clean_sbu_2, # of connection points: 7
#     Node 12, Type 0, BuildingBlock: NUHQUE_clean_sbu_2, # of connection points: 7
#     Node 13, Type 0, BuildingBlock: NUHQUE_clean_sbu_2, # of connection points: 7
#     Node 14, Type 0, BuildingBlock: NUHQUE_clean_sbu_2, # of connection points: 7
#     Node 15, Type 0, BuildingBlock: NUHQUE_clean_sbu_2, # of connection points: 7
#     Edge 16, Type (0, 0), BuildingBlock: UVAHIK_clean_linker_0, # of connection points: 2
#     Edge 17, Type (0, 0), BuildingBlock: UVAHIK_clean_linker_0, # of connection points: 2
#     Edge 18, Type (0, 0), BuildingBlock: UVAHIK_clean_linker_0, # of connection points: 2
#     Edge 19, Type (0, 0), BuildingBlock: UVAHIK_clean_linker_0, # of connection points: 2
#     Edge 20, Type (0, 0), BuildingBlock: UVAHIK_clean_linker_0, # of connection points: 2
#     Edge 21, Type (0, 0), BuildingBlock: UVAHIK_clean_linker_0, # of connection points: 2
#     Edge 22, Type (0, 0), BuildingBlock: UVAHIK_clean_linker_0, # of connection points: 2
#     Edge 23, Type (0, 0), BuildingBlock: UVAHIK_clean_linker_0, # of connection points: 2
#     Edge 24, Type (0, 0), BuildingBlock: UVAHIK_clean_linker_0, # of connection points: 2
#     Edge 25, Type (0, 0), BuildingBlock: UVAHIK_clean_linker_0, # of connection points: 2
#     Edge 26, Type (0, 0), BuildingBlock: UVAHIK_clean_linker_0, # of connection points: 2
#     Edge 27, Type (0, 0), BuildingBlock: UVAHIK_clean_linker_0, # of connection points: 2
#     Edge 28, Type (0, 0), BuildingBlock: UVAHIK_clean_linker_0, # of connection points: 2
#     Edge 29, Type (0, 0), BuildingBlock: UVAHIK_clean_linker_0, # of connection points: 2
#     Edge 30, Type (0, 0), BuildingBlock: UVAHIK_clean_linker_0, # of connection points: 2
#     Edge 31, Type (0, 0), BuildingBlock: UVAHIK_clean_linker_0, # of connection points: 2
#     Edge 32, Type (0, 0), BuildingBlock: UVAHIK_clean_linker_0, # of connection points: 2
#     Edge 33, Type (0, 0), BuildingBlock: UVAHIK_clean_linker_0, # of connection points: 2
#     Edge 34, Type (0, 0), BuildingBlock: UVAHIK_clean_linker_0, # of connection points: 2
#     Edge 35, Type (0, 0), BuildingBlock: UVAHIK_clean_linker_0, # of connection points: 2
#     Edge 36, Type (0, 0), BuildingBlock: UVAHIK_clean_linker_0, # of connection points: 2
#     Edge 37, Type (0, 0), BuildingBlock: UVAHIK_clean_linker_0, # of connection points: 2
#     Edge 38, Type (0, 0), BuildingBlock: UVAHIK_clean_linker_0, # of connection points: 2
#     Edge 39, Type (0, 0), BuildingBlock: UVAHIK_clean_linker_0, # of connection points: 2
#     Edge 40, Type (0, 0), BuildingBlock: UVAHIK_clean_linker_0, # of connection points: 2
#     Edge 41, Type (0, 0), BuildingBlock: UVAHIK_clean_linker_0, # of connection points: 2
#     Edge 42, Type (0, 0), BuildingBlock: UVAHIK_clean_linker_0, # of connection points: 2
#     Edge 43, Type (0, 0), BuildingBlock: UVAHIK_clean_linker_0, # of connection points: 2
#     Edge 44, Type (0, 0), BuildingBlock: UVAHIK_clean_linker_0, # of connection points: 2
#     Edge 45, Type (0, 0), BuildingBlock: UVAHIK_clean_linker_0, # of connection points: 2
#     Edge 46, Type (0, 0), BuildingBlock: UVAHIK_clean_linker_0, # of connection points: 2
#     Edge 47, Type (0, 0), BuildingBlock: UVAHIK_clean_linker_0, # of connection points: 2
#     Edge 48, Type (0, 0), BuildingBlock: UVAHIK_clean_linker_0, # of connection points: 2
#     Edge 49, Type (0, 0), BuildingBlock: UVAHIK_clean_linker_0, # of connection points: 2
#     Edge 50, Type (0, 0), BuildingBlock: UVAHIK_clean_linker_0, # of connection points: 2
#     Edge 51, Type (0, 0), BuildingBlock: UVAHIK_clean_linker_0, # of connection points: 2
#     Edge 52, Type (0, 0), BuildingBlock: UVAHIK_clean_linker_0, # of connection points: 2
#     Edge 53, Type (0, 0), BuildingBlock: UVAHIK_clean_linker_0, # of connection points: 2
#     Edge 54, Type (0, 0), BuildingBlock: UVAHIK_clean_linker_0, # of connection points: 2
#     Edge 55, Type (0, 0), BuildingBlock: UVAHIK_clean_linker_0, # of connection points: 2
#     Edge 56, Type (0, 0), BuildingBlock: UVAHIK_clean_linker_0, # of connection points: 2
#     Edge 57, Type (0, 0), BuildingBlock: UVAHIK_clean_linker_0, # of connection points: 2
#     Edge 58, Type (0, 0), BuildingBlock: UVAHIK_clean_linker_0, # of connection points: 2
#     Edge 59, Type (0, 0), BuildingBlock: UVAHIK_clean_linker_0, # of connection points: 2
#     Edge 60, Type (0, 0), BuildingBlock: UVAHIK_clean_linker_0, # of connection points: 2
#     Edge 61, Type (0, 0), BuildingBlock: UVAHIK_clean_linker_0, # of connection points: 2
#     Edge 62, Type (0, 0), BuildingBlock: UVAHIK_clean_linker_0, # of connection points: 2
#     Edge 63, Type (0, 0), BuildingBlock: UVAHIK_clean_linker_0, # of connection points: 2
#     Edge 64, Type (0, 0), BuildingBlock: UVAHIK_clean_linker_0, # of connection points: 2
#     Edge 65, Type (0, 0), BuildingBlock: UVAHIK_clean_linker_0, # of connection points: 2
#     Edge 66, Type (0, 0), BuildingBlock: UVAHIK_clean_linker_0, # of connection points: 2
#     Edge 67, Type (0, 0), BuildingBlock: UVAHIK_clean_linker_0, # of connection points: 2
#     Edge 68, Type (0, 0), BuildingBlock: UVAHIK_clean_linker_0, # of connection points: 2
#     Edge 69, Type (0, 0), BuildingBlock: UVAHIK_clean_linker_0, # of connection points: 2
#     Edge 70, Type (0, 0), BuildingBlock: UVAHIK_clean_linker_0, # of connection points: 2
#     Edge 71, Type (0, 0), BuildingBlock: UVAHIK_clean_linker_0, # of connection points: 2
# Relax obj value: 0.251
# Max RMSD: 0.273
# Mean RMSD: 0.273
data_MOF--net-wfx--node1-NUHQUE_clean_sbu_2--edge1-UVAHIK_clean_linker_0
_symmetry_space_group_name_H-M    P1
_symmetry_Int_Tables_number       1
_symmetry_cell_setting            triclinic
loop_
_symmetry_equiv_pos_as_xyz
'x, y, z'
_cell_length_a     54.920718
_cell_length_b     54.935141
_cell_length_c     61.865541
_cell_angle_alpha  90.007156
_cell_angle_beta   90.02298
_cell_angle_gamma 90.221375
loop_
_atom_site_label
_atom_site_type_symbol
_atom_site_fract_x
_atom_site_fract_y
_atom_site_fract_z
_atom_type_partial_charge
O0 O 0.64896 0.12135 0.08663 0.0
Tb1 Tb 0.67556 0.10197 0.10596 0.0
Eu2 Eu 0.70036 0.04227 0.11552 0.0
C3 C 0.64016 0.11335 0.06818 0.0
O4 O 0.64553 0.0913 0.06156 0.0
C5 C 0.71695 0.07963 0.07862 0.0
O6 O 0.73138 0.01766 0.12549 0.0
C7 C 0.66722 0.01766 0.09462 0.0
C8 C 0.75368 0.02633 0.12726 0.0
O9 O 0.75738 0.04979 0.12475 0.0
C10 C 0.66619 0.07125 0.14689 0.0
C11 C 0.64255 1.00638 0.09568 0.0
C12 C 0.62427 0.01478 0.08153 0.0
C13 C 0.60143 1.00315 0.08059 0.0
C14 C 0.59694 0.98312 0.09404 0.0
C15 C 0.61495 0.97396 0.10782 0.0
C16 C 0.63782 0.98562 0.10859 0.0
O17 O 0.69438 0.08754 0.07774 0.0
O18 O 0.72433 0.06547 0.0944 0.0
O19 O 0.71002 0.11811 0.11738 0.0
O20 O 0.67716 0.13775 0.12128 0.0
C21 C 0.70056 0.13846 0.12419 0.0
O22 O 0.68674 0.05912 0.14624 0.0
O23 O 0.65595 0.07906 0.12897 0.0
O24 O 0.68476 0.00755 0.1059 0.0
O25 O 0.66888 0.04157 0.0938 0.0
H26 H 0.62801 0.02999 0.07085 0.0
H27 H 0.57973 0.97347 0.09267 0.0
H28 H 0.65193 0.97823 0.1189 0.0
O29 O 0.40375 0.64655 0.08422 0.0
Tb30 Tb 0.42183 0.67245 0.10565 0.0
Eu31 Eu 0.4781 0.6971 0.11942 0.0
C32 C 0.41119 0.64207 0.06438 0.0
O33 O 0.43185 0.65145 0.0576 0.0
C34 C 0.4448 0.71653 0.08156 0.0
O35 O 0.50385 0.72722 0.12969 0.0
C36 C 0.50114 0.66416 0.09726 0.0
C37 C 0.49545 0.74836 0.13632 0.0
O38 O 0.47183 0.75103 0.13861 0.0
C39 C 0.44838 0.6607 0.14825 0.0
C40 C 0.51046 0.63884 0.09821 0.0
C41 C 0.50203 0.62157 0.08307 0.0
C42 C 0.51207 0.59806 0.08235 0.0
C43 C 0.53062 0.59198 0.09693 0.0
C44 C 0.53967 0.60898 0.11183 0.0
C45 C 0.52946 0.63239 0.11248 0.0
O46 O 0.43673 0.69411 0.07912 0.0
O47 O 0.45651 0.72308 0.09912 0.0
O48 O 0.40758 0.70552 0.12108 0.0
O49 O 0.38489 0.67426 0.11835 0.0
C50 C 0.38603 0.6966 0.12513 0.0
O51 O 0.46018 0.68157 0.149 0.0
O52 O 0.44203 0.65129 0.12947 0.0
O53 O 0.51203 0.68052 0.10943 0.0
O54 O 0.47744 0.66729 0.09593 0.0
H55 H 0.48804 0.62659 0.07155 0.0
H56 H 0.53926 0.57432 0.09567 0.0
H57 H 0.53671 0.64565 0.12376 0.0
O58 O 0.85842 0.39966 0.08577 0.0
Tb59 Tb 0.83523 0.41501 0.11062 0.0
Eu60 Eu 0.81158 0.47246 0.12673 0.0
C61 C 0.847 0.38786 0.07026 0.0
O62 O 0.82313 0.38637 0.0711 0.0
C63 C 0.79332 0.44164 0.08689 0.0
O64 O 0.7813 0.49649 0.1388 0.0
C65 C 0.84398 0.49899 0.10682 0.0
C66 C 0.76026 0.48722 0.14481 0.0
O67 O 0.75758 0.46345 0.14522 0.0
C68 C 0.8471 0.43985 0.15423 0.0
C69 C 0.86927 0.50883 0.10661 0.0
C70 C 0.88639 0.49888 0.09214 0.0
C71 C 0.90958 0.50943 0.08974 0.0
C72 C 0.91571 0.52987 0.10215 0.0
C73 C 0.89887 0.54059 0.11619 0.0
C74 C 0.87557 0.53007 0.11834 0.0
O75 O 0.81607 0.43459 0.08507 0.0
O76 O 0.78586 0.45276 0.10443 0.0
O77 O 0.83478 0.37741 0.12193 0.0
O78 O 0.80146 0.39698 0.12137 0.0
C79 C 0.81154 0.37603 0.12568 0.0
O80 O 0.82638 0.45171 0.15508 0.0
O81 O 0.85664 0.43348 0.13553 0.0
O82 O 0.82863 0.50769 0.12115 0.0
O83 O 0.84064 0.47567 0.1028 0.0
H84 H 0.88142 0.48339 0.08219 0.0
H85 H 0.93319 0.53869 0.09965 0.0
H86 H 0.8623 0.53878 0.1287 0.0
O87 O 0.12282 0.83032 0.08257 0.0
Tb88 Tb 0.11388 0.81914 0.11535 0.0
Eu89 Eu 0.04518 0.81592 0.11476 0.0
C90 C 0.12502 0.85354 0.0777 0.0
O91 O 0.11819 0.8699 0.09193 0.0
C92 C 0.08301 0.78046 0.09188 0.0
O93 O 0.02005 0.78442 0.12262 0.0
C94 C 0.02028 0.85119 0.09773 0.0
C95 C 0.02827 0.76366 0.13026 0.0
O96 O 0.05164 0.76151 0.13433 0.0
C97 C 0.07992 0.84215 0.14878 0.0
C98 C 0.00896 0.87554 0.0999 0.0
C99 C 0.01764 0.89456 0.08671 0.0
C100 C 1.00532 0.91689 0.08559 0.0
C101 C 0.98466 0.92042 0.09848 0.0
C102 C 0.97534 0.90161 0.11136 0.0
C103 C 0.98743 0.87909 0.11199 0.0
O104 O 0.09767 0.78386 0.10835 0.0
O105 O 0.06459 0.79513 0.08838 0.0
O106 O 0.15278 0.82642 0.11947 0.0
O107 O 0.13594 0.79998 0.13946 0.0
C108 C 0.15646 0.81063 0.13473 0.0
O109 O 0.06181 0.82647 0.14701 0.0
O110 O 0.09352 0.84729 0.13194 0.0
O111 O 0.01028 0.83273 0.10799 0.0
O112 O 0.04417 0.84979 0.09634 0.0
H113 H 0.03336 0.89157 0.07646 0.0
H114 H 0.97442 0.9372 0.09706 0.0
H115 H 0.97959 0.86426 0.12123 0.0
O116 O 0.15597 0.89021 0.41176 0.0
Tb117 Tb 0.17991 0.91207 0.3915 0.0
Eu118 Eu 0.20112 0.97198 0.38025 0.0
C119 C 0.14641 0.89806 0.42995 0.0
O120 O 0.14957 0.92089 0.43568 0.0
C121 C 0.2208 0.93722 0.41787 0.0
O122 O 0.23146 0.99716 0.36947 0.0
C123 C 0.16865 0.99663 0.40161 0.0
C124 C 0.25256 0.98852 0.36301 0.0
O125 O 0.25522 0.96483 0.36131 0.0
C126 C 0.16583 0.94087 0.35082 0.0
C127 C 0.14357 0.0068 0.40146 0.0
C128 C 0.12617 0.99741 0.41602 0.0
C129 C 0.10307 0.00813 0.41788 0.0
C130 C 0.09738 0.02825 0.40495 0.0
C131 C 0.11452 0.03842 0.39079 0.0
C132 C 0.13768 0.02766 0.3891 0.0
O133 O 0.1989 0.92752 0.41918 0.0
O134 O 0.22708 0.95129 0.40159 0.0
O135 O 0.18475 0.87635 0.37687 0.0
O136 O 0.21458 0.90106 0.37669 0.0
C137 C 0.20736 0.87925 0.37127 0.0
O138 O 0.18595 0.95395 0.35038 0.0
O139 O 0.15721 0.93279 0.36934 0.0
O140 O 0.18489 0.00663 0.38875 0.0
O141 O 0.17129 0.9729 0.40366 0.0
H142 H 0.13082 0.98217 0.42635 0.0
H143 H 0.07997 0.03719 0.40707 0.0
H144 H 0.15114 0.03586 0.37854 0.0
O145 O 0.61969 0.14605 0.41058 0.0
Tb146 Tb 0.6025 0.17316 0.39024 0.0
Eu147 Eu 0.54504 0.19773 0.37811 0.0
C148 C 0.60987 0.13703 0.42824 0.0
O149 O 0.5873 0.1425 0.43324 0.0
C150 C 0.57838 0.21419 0.41725 0.0
O151 O 0.52038 0.22811 0.36733 0.0
C152 C 0.51995 0.1644 0.3982 0.0
C153 C 0.52944 0.24864 0.35985 0.0
O154 O 0.55315 0.25079 0.35773 0.0
C155 C 0.5749 0.16361 0.34755 0.0
C156 C 0.50928 0.1395 0.39748 0.0
C157 C 0.51801 0.12184 0.41204 0.0
C158 C 0.50671 0.09892 0.41365 0.0
C159 C 0.48675 0.09363 0.40033 0.0
C160 C 0.47731 0.11101 0.38605 0.0
C161 C 0.4886 0.13403 0.3847 0.0
O162 O 0.58658 0.19171 0.418 0.0
O163 O 0.56622 0.22215 0.40041 0.0
O164 O 0.61968 0.20726 0.37911 0.0
O165 O 0.63981 0.1744 0.37811 0.0
C166 C 0.64072 0.19764 0.37439 0.0
O167 O 0.56334 0.18447 0.34797 0.0
O168 O 0.58207 0.15324 0.36563 0.0
O169 O 0.51012 0.18132 0.38601 0.0
O170 O 0.54373 0.16664 0.40014 0.0
H171 H 0.53314 0.1262 0.42264 0.0
H172 H 0.47731 0.07638 0.40221 0.0
H173 H 0.48093 0.1477 0.3741 0.0
O174 O 0.34315 0.61258 0.41775 0.0
Tb175 Tb 0.32967 0.6063 0.38518 0.0
Eu176 Eu 0.32354 0.5372 0.38372 0.0
C177 C 0.33023 0.62606 0.43104 0.0
O178 O 0.30841 0.63299 0.42499 0.0
C179 C 0.29031 0.57594 0.40845 0.0
O180 O 0.29165 0.51201 0.37692 0.0
C181 C 0.35976 0.5132 0.40022 0.0
C182 C 0.27041 0.52057 0.37067 0.0
O183 O 0.26822 0.54408 0.36732 0.0
C184 C 0.34913 0.57263 0.34985 0.0
C185 C 0.38462 0.50308 0.39796 0.0
C186 C 0.40271 0.51062 0.41268 0.0
C187 C 0.42559 0.49926 0.41315 0.0
C188 C 0.4304 0.48052 0.39842 0.0
C189 C 0.41256 0.47233 0.38388 0.0
C190 C 0.38963 0.48368 0.38368 0.0
O191 O 0.29413 0.59078 0.39218 0.0
O192 O 0.30313 0.55596 0.41066 0.0
O193 O 0.3099 0.63039 0.36304 0.0
O194 O 0.3389 0.64492 0.3816 0.0
C195 C 0.32208 0.65009 0.36758 0.0
O196 O 0.33313 0.55479 0.35158 0.0
O197 O 0.35577 0.58498 0.36705 0.0
O198 O 0.34186 0.50284 0.38942 0.0
O199 O 0.35731 0.53692 0.40237 0.0
H200 H 0.39865 0.52476 0.42435 0.0
H201 H 0.44757 0.4709 0.39943 0.0
H202 H 0.3756 0.47692 0.3729 0.0
O203 O 0.8937 0.36335 0.4144 0.0
Tb204 Tb 0.91332 0.33754 0.39431 0.0
Eu205 Eu 0.97489 0.31447 0.38489 0.0
C206 C 0.90162 0.37156 0.43311 0.0
O207 O 0.92377 0.36623 0.43954 0.0
C208 C 0.93704 0.29611 0.42068 0.0
O209 O 1.00015 0.28398 0.37501 0.0
C210 C 0.99915 0.34724 0.4066 0.0
C211 C 0.9915 0.26283 0.36849 0.0
O212 O 0.96783 0.26017 0.36633 0.0
C213 C 0.9443 0.34767 0.35339 0.0
C214 C 0.01139 0.37149 0.4066 0.0
C215 C 1.00441 0.38887 0.42222 0.0
C216 C 0.01784 0.41051 0.42489 0.0
C217 C 0.03754 0.41524 0.41118 0.0
C218 C 0.04506 0.39831 0.3957 0.0
C219 C 0.03209 0.37626 0.39354 0.0
O220 O 0.92896 0.31859 0.42196 0.0
O221 O 0.95181 0.28938 0.4051 0.0
O222 O 0.87748 0.33563 0.37905 0.0
O223 O 0.89733 0.30293 0.38308 0.0
C224 C 0.87688 0.31221 0.37628 0.0
O225 O 0.95796 0.32808 0.35411 0.0
O226 O 0.93587 0.3576 0.37125 0.0
O227 O 0.00938 0.32962 0.39553 0.0
O228 O 0.97517 0.34615 0.40655 0.0
H229 H 0.98943 0.38494 0.4331 0.0
H230 H 0.04792 0.43193 0.41328 0.0
H231 H 0.03839 0.36279 0.38206 0.0
O232 O 0.36589 0.89246 0.9092 0.0
Tb233 Tb 0.34065 0.91422 0.89045 0.0
Eu234 Eu 0.31704 0.97176 0.88204 0.0
C235 C 0.37499 0.89946 0.92786 0.0
O236 O 0.37072 0.92159 0.93492 0.0
C237 C 0.29914 0.93527 0.91889 0.0
O238 O 0.28712 0.99709 0.87132 0.0
C239 C 0.35026 0.99546 0.9036 0.0
C240 C 0.26661 0.98832 0.86347 0.0
O241 O 0.26444 0.96468 0.86082 0.0
C242 C 0.35227 0.94463 0.85047 0.0
C243 C 0.37475 0.00698 0.90232 0.0
C244 C 0.39315 0.99916 0.91659 0.0
C245 C 0.41585 0.0111 0.91727 0.0
C246 C 0.42003 0.03088 0.90344 0.0
C247 C 0.40186 0.03941 0.88949 0.0
C248 C 0.3792 0.02739 0.88895 0.0
O249 O 0.32134 0.92631 0.91928 0.0
O250 O 0.29196 0.94974 0.90322 0.0
O251 O 0.30606 0.90221 0.87598 0.0
O252 O 0.33714 0.87943 0.87388 0.0
C253 C 0.31422 0.88136 0.86906 0.0
O254 O 0.33114 0.95575 0.851 0.0
O255 O 0.36207 0.93675 0.86854 0.0
O256 O 0.33234 1.00601 0.89312 0.0
O257 O 0.34886 0.97153 0.9034 0.0
H258 H 0.38961 0.98415 0.92754 0.0
H259 H 0.43708 0.04082 0.90462 0.0
H260 H 0.36499 0.03427 0.87847 0.0
O261 O 0.60904 0.35928 0.91765 0.0
Tb262 Tb 0.59036 0.33723 0.89355 0.0
Eu263 Eu 0.53092 0.31714 0.87945 0.0
C264 C 0.62222 0.34747 0.93197 0.0
O265 O 0.62253 0.32357 0.93105 0.0
C266 C 0.56322 0.29551 0.91697 0.0
O267 O 0.50558 0.28761 0.86746 0.0
C268 C 0.50692 0.34932 0.90173 0.0
C269 C 0.5144 0.26705 0.85993 0.0
O270 O 0.53809 0.26491 0.85773 0.0
C271 C 0.56358 0.35243 0.85133 0.0
C272 C 0.49687 0.37446 0.90159 0.0
C273 C 0.50665 0.39212 0.91573 0.0
C274 C 0.49608 0.41534 0.91735 0.0
C275 C 0.47568 0.4208 0.90468 0.0
C276 C 0.4651 0.40336 0.89106 0.0
C277 C 0.47577 0.38018 0.88952 0.0
O278 O 0.572 0.3176 0.9196 0.0
O279 O 0.5511 0.28978 0.89944 0.0
O280 O 0.60476 0.30309 0.88009 0.0
O281 O 0.62718 0.33471 0.8807 0.0
C282 C 0.62629 0.31182 0.87548 0.0
O283 O 0.54973 0.33286 0.85043 0.0
O284 O 0.57208 0.36053 0.86997 0.0
O285 O 0.49655 0.33316 0.889 0.0
O286 O 0.53068 0.34658 0.90332 0.0
H287 H 0.52209 0.38763 0.92589 0.0
H288 H 0.46683 0.43828 0.90665 0.0
H289 H 0.46727 0.36655 0.87932 0.0
O290 O 0.17845 0.61248 0.92141 0.0
Tb291 Tb 0.19034 0.60674 0.88834 0.0
Eu292 Eu 0.18707 0.53922 0.88933 0.0
C293 C 0.15519 0.61312 0.92638 0.0
O294 O 0.13901 0.60716 0.91164 0.0
C295 C 0.2261 0.57361 0.91204 0.0
O296 O 0.21808 0.51392 0.88125 0.0
C297 C 0.15102 0.51537 0.90651 0.0
C298 C 0.23803 0.52218 0.87199 0.0
O299 O 0.23918 0.54524 0.86645 0.0
C300 C 0.1646 0.5752 0.85397 0.0
C301 C 0.1265 0.50425 0.90428 0.0
C302 C 0.10803 0.51176 0.91855 0.0
C303 C 0.08548 0.49962 0.91914 0.0
C304 C 0.08134 0.48018 0.90494 0.0
C305 C 0.09958 0.47201 0.89088 0.0
C306 C 0.12222 0.4841 0.89059 0.0
O307 O 0.22436 0.58842 0.89549 0.0
O308 O 0.20898 0.5574 0.91581 0.0
O309 O 0.18604 0.64628 0.88774 0.0
O310 O 0.20988 0.62982 0.86513 0.0
C311 C 0.20104 0.6504 0.87192 0.0
O312 O 0.17747 0.55524 0.85661 0.0
O313 O 0.16088 0.59017 0.87015 0.0
O314 O 0.16944 0.50482 0.89674 0.0
O315 O 0.15283 0.53929 0.90731 0.0
H316 H 0.11156 0.52648 0.92981 0.0
H317 H 0.06441 0.47002 0.90606 0.0
H318 H 0.13659 0.47737 0.88021 0.0
O319 O 0.8992 0.17459 0.91595 0.0
Tb320 Tb 0.90408 0.1886 0.88346 0.0
Eu321 Eu 0.9723 0.19134 0.88261 0.0
C322 C 0.88684 0.18755 0.93002 0.0
O323 O 0.88087 0.20996 0.92494 0.0
C324 C 0.93581 0.22638 0.90695 0.0
O325 O 0.99665 0.22328 0.87472 0.0
C326 C 0.99765 0.15581 0.89856 0.0
C327 C 0.98771 0.24328 0.86621 0.0
O328 O 0.9644 0.24409 0.86147 0.0
C329 C 0.93685 0.16591 0.8485 0.0
C330 C 0.00861 0.13127 0.89678 0.0
C331 C 1.00091 0.11319 0.91139 0.0
C332 C 0.01305 0.0908 0.91273 0.0
C333 C 0.03263 0.08631 0.8988 0.0
C334 C 0.04092 0.10412 0.88429 0.0
C335 C 0.02892 0.1267 0.88338 0.0
O336 O 0.92132 0.22339 0.89031 0.0
O337 O 0.95448 0.21193 0.90981 0.0
O338 O 0.87964 0.20862 0.86175 0.0
O339 O 0.86464 0.18246 0.88307 0.0
C340 C 0.85951 0.19855 0.8684 0.0
O341 O 0.95438 0.18215 0.85061 0.0
O342 O 0.92208 0.16068 0.86452 0.0
O343 O 0.00729 0.17385 0.88746 0.0
O344 O 0.97389 0.15757 0.90109 0.0
H345 H 0.98605 0.11695 0.92242 0.0
H346 H 0.04276 0.0695 0.90042 0.0
H347 H 0.03582 0.1408 0.87275 0.0
O348 O 0.84013 0.1107 0.57964 0.0
Tb349 Tb 0.82494 0.10516 0.61163 0.0
Eu350 Eu 0.82133 0.03728 0.61305 0.0
C351 C 0.82741 0.12272 0.56516 0.0
O352 O 0.80459 0.1279 0.56944 0.0
C353 C 0.78596 0.0736 0.58829 0.0
O354 O 0.7898 0.01226 0.62083 0.0
C355 C 0.85781 0.01289 0.59751 0.0
C356 C 0.76943 0.02094 0.62888 0.0
O357 O 0.76809 0.04431 0.63324 0.0
C358 C 0.8464 0.07249 0.64704 0.0
C359 C 0.88251 1.00254 0.60047 0.0
C360 C 0.90113 0.00993 0.58623 0.0
C361 C 0.92399 0.99851 0.58646 0.0
C362 C 0.92829 0.97997 0.60152 0.0
C363 C 0.90991 0.97191 0.61553 0.0
C364 C 0.88694 0.98315 0.61494 0.0
O365 O 0.78957 0.08961 0.60374 0.0
O366 O 0.8004 0.0548 0.5859 0.0
O367 O 0.83124 0.14456 0.61247 0.0
O368 O 0.80599 0.12919 0.63444 0.0
C369 C 0.81586 0.14942 0.6278 0.0
O370 O 0.82984 0.05527 0.6451 0.0
O371 O 0.85233 0.08632 0.63057 0.0
O372 O 0.83948 1.00273 0.60783 0.0
O373 O 0.85566 0.03664 0.59524 0.0
H374 H 0.89752 0.024 0.57438 0.0
H375 H 0.94551 0.97038 0.60124 0.0
H376 H 0.87252 0.97638 0.62529 0.0
O377 O 0.39717 0.83783 0.58141 0.0
Tb378 Tb 0.40367 0.82729 0.61471 0.0
Eu379 Eu 0.47156 0.81984 0.61338 0.0
C380 C 0.3961 0.86095 0.576 0.0
O381 O 0.40269 0.8775 0.59019 0.0
C382 C 0.43101 0.78627 0.59182 0.0
O383 O 0.49637 0.78843 0.62161 0.0
C384 C 0.49632 0.85484 0.59537 0.0
C385 C 0.48763 0.76773 0.62906 0.0
O386 O 0.46412 0.76582 0.63266 0.0
C387 C 0.43931 0.84834 0.64791 0.0
C388 C 0.50787 0.87924 0.59718 0.0
C389 C 0.49993 0.89784 0.58321 0.0
C390 C 0.5122 0.92031 0.58232 0.0
C391 C 0.53225 0.92425 0.59587 0.0
C392 C 0.54094 0.90588 0.60954 0.0
C393 C 0.52873 0.88329 0.61014 0.0
O394 O 0.41822 0.79123 0.60913 0.0
O395 O 0.45134 0.79814 0.58794 0.0
O396 O 0.3648 0.83554 0.61735 0.0
O397 O 0.38008 0.80941 0.63849 0.0
C398 C 0.36005 0.82023 0.63281 0.0
O399 O 0.45551 0.83086 0.64578 0.0
O400 O 0.42517 0.85448 0.6317 0.0
O401 O 0.5064 0.8365 0.60563 0.0
O402 O 0.47238 0.85342 0.59446 0.0
H403 H 0.48472 0.89451 0.57241 0.0
H404 H 0.54244 0.94114 0.59452 0.0
H405 H 0.53585 0.86884 0.6202 0.0
O406 O 0.65727 0.40003 0.58596 0.0
Tb407 Tb 0.67887 0.41901 0.61012 0.0
Eu408 Eu 0.69839 0.47777 0.62473 0.0
C409 C 0.66935 0.38733 0.5715 0.0
O410 O 0.69326 0.38766 0.57224 0.0
C411 C 0.72054 0.44639 0.5869 0.0
O412 O 0.72708 0.50319 0.63796 0.0
C413 C 0.66655 0.502 0.60223 0.0
C414 C 0.74772 0.49454 0.64546 0.0
O415 O 0.7505 0.47083 0.64671 0.0
C416 C 0.66239 0.44525 0.65211 0.0
C417 C 0.64136 0.51186 0.60173 0.0
C418 C 0.6244 0.5021 0.58693 0.0
C419 C 0.60119 0.51247 0.5846 0.0
C420 C 0.59497 0.53265 0.59727 0.0
C421 C 0.6117 0.5432 0.61161 0.0
C422 C 0.63494 0.53275 0.61381 0.0
O423 O 0.69843 0.43765 0.5842 0.0
O424 O 0.72622 0.45828 0.60459 0.0
O425 O 0.71306 0.40484 0.62373 0.0
O426 O 0.68161 0.3822 0.62293 0.0
C427 C 0.70447 0.38324 0.62824 0.0
O428 O 0.68217 0.45873 0.65345 0.0
O429 O 0.65479 0.43684 0.6333 0.0
O430 O 0.68226 0.51223 0.61548 0.0
O431 O 0.66948 0.47829 0.6004 0.0
H432 H 0.62946 0.48683 0.57681 0.0
H433 H 0.5775 0.54135 0.59478 0.0
H434 H 0.64805 0.54124 0.62454 0.0
O435 O 0.11386 0.655 0.58439 0.0
Tb436 Tb 0.09499 0.67652 0.60854 0.0
Eu437 Eu 0.03715 0.69662 0.62272 0.0
C438 C 0.12637 0.66717 0.56981 0.0
O439 O 0.12655 0.69107 0.57084 0.0
C440 C 0.06877 0.71811 0.58489 0.0
O441 O 0.01252 0.72572 0.63611 0.0
C442 C 0.01246 0.66538 0.59979 0.0
C443 C 0.02189 0.74489 0.64582 0.0
O444 O 0.04548 0.74556 0.64936 0.0
C445 C 0.06857 0.65994 0.65046 0.0
C446 C 1.00054 0.64107 0.60011 0.0
C447 C 1.00617 0.62408 0.58377 0.0
C448 C 0.99288 0.60224 0.58193 0.0
C449 C 0.97461 0.59708 0.59703 0.0
C450 C 0.96865 0.61365 0.61336 0.0
C451 C 0.98156 0.63573 0.61481 0.0
O452 O 0.07673 0.69578 0.58234 0.0
O453 O 0.05746 0.72418 0.60273 0.0
O454 O 0.1081 0.71087 0.62271 0.0
O455 O 0.13166 0.68025 0.62151 0.0
C456 C 0.12987 0.70292 0.62725 0.0
O457 O 0.05494 0.67955 0.65172 0.0
O458 O 0.07725 0.65239 0.63176 0.0
O459 O 1.00247 0.68266 0.61147 0.0
O460 O 0.03642 0.66641 0.59955 0.0
H461 H 0.02 0.62839 0.57185 0.0
H462 H 0.96421 0.58033 0.59549 0.0
H463 H 0.97647 0.64883 0.62709 0.0
C464 C 0.45935 1.00451 0.92801 0.0
C465 C 0.4346 1.00512 0.93377 0.0
C466 C 0.47744 1.00369 0.94387 0.0
C467 C 0.4889 0.99205 0.00211 0.0
H468 H 0.54357 0.03585 0.99314 0.0
C469 C 0.55807 0.0106 0.06992 0.0
C470 C 0.58281 0.00971 0.06415 0.0
C471 C 0.54 0.01169 0.05406 0.0
C472 C 0.52855 0.02338 0.99583 0.0
H473 H 0.40941 1.00413 0.96069 0.0
H474 H 0.441 1.00259 0.98847 0.0
H475 H 0.51224 0.03209 0.9654 0.0
H476 H 0.60802 0.01057 0.03725 0.0
H477 H 0.57646 0.01261 0.00947 0.0
H478 H 0.50521 0.98334 0.03254 0.0
C479 C 0.44645 1.00263 0.97165 0.0
C480 C 0.5106 0.02114 0.97988 0.0
C481 C 0.42831 1.00341 0.95573 0.0
C482 C 0.58914 0.01151 0.04221 0.0
C483 C 0.57101 0.01256 0.02629 0.0
C484 C 0.50684 0.99429 0.01805 0.0
C485 C 0.47125 1.00349 0.96592 0.0
C486 C 0.49055 1.00542 0.9828 0.0
C487 C 0.5462 0.01188 0.03201 0.0
C488 C 0.52689 0.01001 0.01514 0.0
H489 H 0.46474 1.00554 0.91119 0.0
H490 H 0.49634 1.00376 0.93885 0.0
H491 H 0.4739 0.97956 0.00479 0.0
H492 H 0.55267 0.00951 0.08673 0.0
H493 H 0.5211 0.01177 0.05907 0.0
C494 C 0.50509 0.58714 0.04337 0.0
C495 C 0.50539 0.58022 0.06523 0.0
C496 C 0.50353 0.56949 0.02706 0.0
C497 C 0.48926 0.50411 0.01676 0.0
H498 H 0.53356 0.51236 0.96848 0.0
C499 C 0.50548 0.4266 0.95575 0.0
C500 C 0.50399 0.43333 0.93389 0.0
C501 C 0.50747 0.44441 0.97186 0.0
C502 C 0.52099 0.50984 0.98179 0.0
H503 H 0.50258 0.54958 0.08716 0.0
H504 H 0.50007 0.51888 0.05888 0.0
H505 H 0.53056 0.54417 0.99586 0.0
H506 H 0.50511 0.46377 0.91165 0.0
H507 H 0.5087 0.4948 0.93967 0.0
H508 H 0.47976 0.46974 0.00273 0.0
C509 C 0.501 0.53786 0.0542 0.0
C510 C 0.51914 0.52815 0.99743 0.0
C511 C 0.50257 0.55546 0.07044 0.0
C512 C 0.50618 0.45807 0.92839 0.0
C513 C 0.50829 0.47585 0.94445 0.0
C514 C 0.49116 0.48578 0.00116 0.0
C515 C 0.50215 0.54457 0.03229 0.0
C516 C 0.50326 0.52553 0.01513 0.0
C517 C 0.50816 0.46929 0.96642 0.0
C518 C 0.50705 0.4884 0.98348 0.0
H519 H 0.50739 0.60605 0.03883 0.0
H520 H 0.504 0.57534 0.01035 0.0
H521 H 0.47661 0.50158 0.03 0.0
H522 H 0.50363 0.4077 0.96047 0.0
H523 H 0.50774 0.43874 0.98862 0.0
C524 C 0.04222 0.50476 0.93134 0.0
C525 C 0.06722 0.50475 0.93626 0.0
C526 C 0.02484 0.50515 0.94783 0.0
C527 C 0.0179 0.48814 0.00506 0.0
H528 H 0.95742 0.524 0.0011 0.0
C529 C 0.95174 0.50012 0.07679 0.0
C530 C 0.92664 0.50153 0.07251 0.0
C531 C 0.96846 0.49801 0.05989 0.0
C532 C 0.97404 0.51353 0.00229 0.0
H533 H 0.09355 0.50623 0.96235 0.0
H534 H 0.0632 0.50748 0.99114 0.0
H535 H 0.98768 0.52794 0.97248 0.0
H536 H 0.89931 0.5003 0.04727 0.0
H537 H 0.92849 0.49601 0.01772 0.0
H538 H 1.0043 0.47378 0.0349 0.0
C539 C 0.05705 0.50677 0.97451 0.0
C540 C 0.99144 0.51591 0.98593 0.0
C541 C 0.07445 0.50644 0.958 0.0
C542 C 0.91852 0.4991 0.05108 0.0
C543 C 0.93526 0.49702 0.03414 0.0
C544 C 1.00049 0.48574 0.02141 0.0
C545 C 0.03205 0.5055 0.96963 0.0
C546 C 0.01364 0.50334 0.98717 0.0
C547 C 0.96046 0.49725 0.0383 0.0
C548 C 0.97838 0.49849 0.02028 0.0
H549 H 0.03611 0.50358 0.91472 0.0
H550 H 1.00576 0.50408 0.94348 0.0
H551 H 0.03459 0.4778 0.0063 0.0
H552 H 0.95851 0.50182 0.09317 0.0
H553 H 0.9877 0.49833 0.06371 0.0
C554 C 0.01499 0.9277 0.04721 0.0
C555 C 0.01134 0.93517 0.0687 0.0
C556 C 0.01601 0.94482 0.03053 0.0
C557 C 0.02338 0.01039 0.01832 0.0
H558 H 0.98412 0.99461 0.96806 0.0
C559 C 1.005 0.08131 0.95175 0.0
C560 C 0.00768 0.07317 0.93034 0.0
C561 C 1.00404 0.06466 0.96883 0.0
C562 C 0.99533 0.99923 0.98188 0.0
H563 H 0.00747 0.96652 0.08968 0.0
H564 H 0.00917 0.99643 0.06052 0.0
H565 H 0.98784 0.96518 0.99732 0.0
H566 H 0.01001 0.04117 0.90997 0.0
H567 H 0.00866 0.01214 0.93972 0.0
H568 H 0.03099 0.04439 0.00283 0.0
C569 C 0.01124 0.97735 0.05657 0.0
C570 C 0.99754 0.98232 0.99863 0.0
C571 C 0.01016 0.96022 0.07326 0.0
C572 C 0.00812 0.048 0.92631 0.0
C573 C 0.00719 0.03136 0.94336 0.0
C574 C 0.02123 0.02729 0.00153 0.0
C575 C 0.01345 0.96978 0.03495 0.0
C576 C 0.01165 0.98767 0.01701 0.0
C577 C 1.00574 0.03951 0.96487 0.0
C578 C 0.00721 0.02189 0.98309 0.0
H579 H 0.01571 0.90856 0.0431 0.0
H580 H 0.01816 0.93844 0.01407 0.0
H581 H 0.03454 0.01497 0.03219 0.0
H582 H 1.00484 0.10058 0.95545 0.0
H583 H 1.00248 0.07152 0.98518 0.0
C584 C 0.09289 0.99901 0.45658 0.0
C585 C 0.08549 1.00062 0.43488 0.0
C586 C 0.07557 0.9973 0.47313 0.0
C587 C 0.01173 0.01411 0.48343 0.0
H588 H 0.01966 0.97678 0.53609 0.0
C589 C 0.93566 1.00439 0.54758 0.0
C590 C 0.94252 1.00344 0.56945 0.0
C591 C 0.95333 1.00491 0.5313 0.0
C592 C 0.01733 0.98758 0.52159 0.0
H593 H 0.05437 0.99967 0.41337 0.0
H594 H 0.02419 0.99625 0.44214 0.0
H595 H 0.0499 0.97339 0.50735 0.0
H596 H 0.97328 1.00379 0.59141 0.0
H597 H 1.00412 1.00501 0.56302 0.0
H598 H 0.97925 0.02838 0.49764 0.0
C599 C 0.04329 0.99699 0.44647 0.0
C600 C 0.03464 0.98555 0.50509 0.0
C601 C 0.06057 0.99874 0.42998 0.0
C602 C 0.96743 1.00423 0.57469 0.0
C603 C 0.98509 1.00477 0.55843 0.0
C604 C 0.99446 0.01615 0.49991 0.0
C605 C 0.05053 0.99712 0.46827 0.0
C606 C 0.03199 0.99873 0.48577 0.0
C607 C 0.97827 1.00453 0.53652 0.0
C608 C 0.99701 1.0029 0.51919 0.0
H609 H 0.11196 1.00068 0.46085 0.0
H610 H 0.08177 0.99751 0.48974 0.0
H611 H 0.00939 0.02495 0.46896 0.0
H612 H 0.91665 1.00341 0.54298 0.0
H613 H 0.94741 1.00452 0.51461 0.0
C614 C 0.51414 0.05622 0.42622 0.0
C615 C 0.51339 0.08126 0.43083 0.0
C616 C 0.51539 0.03913 0.4429 0.0
C617 C 0.49896 0.03282 0.50029 0.0
H618 H 0.53348 0.97161 0.49575 0.0
C619 C 0.50676 0.96366 0.57059 0.0
C620 C 0.50657 0.93872 0.56546 0.0
C621 C 0.50634 0.98121 0.55425 0.0
C622 C 0.52345 0.98848 0.49713 0.0
H623 H 0.51487 0.10806 0.45652 0.0
H624 H 0.51769 0.07821 0.48568 0.0
H625 H 0.53834 1.00225 0.46756 0.0
H626 H 0.50453 0.91267 0.53921 0.0
H627 H 0.50324 0.94334 0.51066 0.0
H628 H 0.48408 0.01902 0.52987 0.0
C629 C 0.51679 0.07178 0.46915 0.0
C630 C 0.52634 1.00609 0.48101 0.0
C631 C 0.51556 0.0889 0.45243 0.0
C632 C 0.5045 0.93173 0.54369 0.0
C633 C 0.50414 0.9493 0.52733 0.0
C634 C 0.4961 0.01521 0.51643 0.0
C635 C 0.51597 0.04668 0.46461 0.0
C636 C 0.51407 0.02846 0.48234 0.0
C637 C 0.50576 0.97423 0.53239 0.0
C638 C 0.50824 0.99279 0.515 0.0
H639 H 0.51266 0.0498 0.40971 0.0
H640 H 0.51464 0.01998 0.43878 0.0
H641 H 0.48885 0.04964 0.50163 0.0
H642 H 0.50825 0.96958 0.58724 0.0
H643 H 0.50767 1.00023 0.55873 0.0
C644 C 0.59179 0.50293 0.54582 0.0
C645 C 0.58401 0.50455 0.5674 0.0
C646 C 0.57476 0.50084 0.52905 0.0
C647 C 0.51079 0.51648 0.51777 0.0
H648 H 0.52032 0.47899 0.46541 0.0
C649 C 0.43622 0.50551 0.45224 0.0
C650 C 0.44362 0.5045 0.43051 0.0
C651 C 0.4535 0.50632 0.46886 0.0
C652 C 0.51754 0.48983 0.47982 0.0
H653 H 0.55256 0.50327 0.5885 0.0
H654 H 0.5229 0.49917 0.55934 0.0
H655 H 0.55007 0.47626 0.49462 0.0
H656 H 0.47489 0.50503 0.40916 0.0
H657 H 0.50503 0.50678 0.43813 0.0
H658 H 0.47836 0.53015 0.50298 0.0
C659 C 0.54206 0.50018 0.55527 0.0
C660 C 0.53457 0.48818 0.49659 0.0
C661 C 0.55904 0.50231 0.57198 0.0
C662 C 0.46864 0.50553 0.42576 0.0
C663 C 0.4859 0.50635 0.44236 0.0
C664 C 0.4938 0.51815 0.50101 0.0
C665 C 0.54964 0.50028 0.53356 0.0
C666 C 0.53136 0.50144 0.5158 0.0
C667 C 0.47856 0.50617 0.46413 0.0
C668 C 0.49694 0.50485 0.48181 0.0
H669 H 0.61089 0.50488 0.54179 0.0
H670 H 0.58123 0.50104 0.51252 0.0
H671 H 0.50801 0.52737 0.53215 0.0
H672 H 0.41711 0.50438 0.45646 0.0
H673 H 0.44718 0.50596 0.48544 0.0
C674 C 0.01913 0.57488 0.55915 0.0
C675 C 0.99634 0.58521 0.56357 0.0
C676 C 0.02125 0.5563 0.5437 0.0
C677 C 0.98356 0.5093 0.5161 0.0
H678 H 0.03978 0.50307 0.47875 0.0
C679 C 0.99033 0.43831 0.44617 0.0
C680 C 0.01324 0.42765 0.44299 0.0
C681 C 0.98748 0.4571 0.46135 0.0
C682 C 0.02404 0.5044 0.48923 0.0
H683 H 0.95826 0.58546 0.55442 0.0
H684 H 0.96199 0.55365 0.52724 0.0
H685 H 0.03704 0.53758 0.50337 0.0
H686 H 0.05062 0.42689 0.4542 0.0
H687 H 0.04564 0.45923 0.48069 0.0
H688 H 0.97056 0.47611 0.50185 0.0
C689 C 0.97812 0.55917 0.53608 0.0
C690 C 0.0225 0.52421 0.50336 0.0
C691 C 0.97601 0.57754 0.55153 0.0
C692 C 0.03284 0.43511 0.45606 0.0
C693 C 0.03002 0.45375 0.47113 0.0
C694 C 0.98508 0.48951 0.5019 0.0
C695 C 1.00062 0.54786 0.5323 0.0
C696 C 1.00226 0.52691 0.51703 0.0
C697 C 0.00751 0.46545 0.47359 0.0
C698 C 1.00541 0.48674 0.48839 0.0
H699 H 0.03505 0.5804 0.56829 0.0
H700 H 0.03886 0.54794 0.54129 0.0
H701 H 0.96788 0.51052 0.52664 0.0
H702 H 0.97496 0.43291 0.43627 0.0
H703 H 0.96988 0.46574 0.46287 0.0
C704 C 0.58773 0.94784 0.13059 0.0
C705 C 0.60981 0.95075 0.1194 0.0
C706 C 0.57972 0.92476 0.137 0.0
C707 C 0.58564 0.86079 0.12022 0.0
H708 H 0.54438 0.84904 0.17 0.0
C709 C 0.53675 0.76819 0.13327 0.0
C710 C 0.51203 0.76963 0.13905 0.0
C711 C 0.55174 0.78891 0.13399 0.0
C712 C 0.5558 0.85202 0.15597 0.0
H713 H 0.64156 0.9319 0.10734 0.0
H714 H 0.62781 0.89145 0.1189 0.0
H715 H 0.56609 0.8877 0.16668 0.0
H716 H 0.48394 0.79391 0.1508 0.0
H717 H 0.50993 0.82988 0.152 0.0
H718 H 0.57489 0.82537 0.10924 0.0
C719 C 0.61649 0.90704 0.12245 0.0
C720 C 0.56828 0.87421 0.15407 0.0
C721 C 0.62456 0.93024 0.1161 0.0
C722 C 0.50288 0.79209 0.14624 0.0
C723 C 0.51787 0.81274 0.14705 0.0
C724 C 0.57319 0.83858 0.12214 0.0
C725 C 0.59357 0.90391 0.13233 0.0
C726 C 0.58297 0.87912 0.13593 0.0
C727 C 0.54241 0.81154 0.14063 0.0
C728 C 0.55768 0.8341 0.13981 0.0
H729 H 0.57597 0.96333 0.13332 0.0
H730 H 0.56192 0.92317 0.1444 0.0
H731 H 0.59645 0.86398 0.10585 0.0
H732 H 0.54443 0.75119 0.12767 0.0
H733 H 0.57061 0.78724 0.12916 0.0
C734 C 0.74119 0.52867 0.14581 0.0
C735 C 0.73908 0.50335 0.14864 0.0
C736 C 0.72066 0.54361 0.14714 0.0
C737 C 0.65595 0.54534 0.16501 0.0
H738 H 0.64879 0.59115 0.1178 0.0
C739 C 0.56321 0.57945 0.13445 0.0
C740 C 0.56156 0.60251 0.12473 0.0
C741 C 0.58545 0.57096 0.14234 0.0
C742 C 0.65062 0.57889 0.13141 0.0
H743 H 0.71386 0.47403 0.15603 0.0
H744 H 0.6781 0.50001 0.1582 0.0
H745 H 0.68686 0.56931 0.12219 0.0
H746 H 0.58156 0.63547 0.11712 0.0
H747 H 0.62038 0.62088 0.13136 0.0
H748 H 0.61938 0.55446 0.17384 0.0
C749 C 0.69563 0.50839 0.15511 0.0
C750 C 0.67251 0.56629 0.1339 0.0
C751 C 0.71615 0.49345 0.15374 0.0
C752 C 0.58223 0.61766 0.1246 0.0
C753 C 0.60454 0.60916 0.1325 0.0
C754 C 0.63405 0.558 0.16256 0.0
C755 C 0.69754 0.53359 0.1514 0.0
C756 C 0.67527 0.54896 0.15043 0.0
C757 C 0.60661 0.58536 0.14073 0.0
C758 C 0.63091 0.57454 0.14542 0.0
H759 H 0.75859 0.53694 0.14197 0.0
H760 H 0.72283 0.56298 0.14449 0.0
H761 H 0.65762 0.53241 0.17814 0.0
H762 H 0.54752 0.56744 0.13492 0.0
H763 H 0.5863 0.55251 0.14844 0.0
C764 C 0.98691 0.74405 0.12722 0.0
C765 C 0.01158 0.74252 0.13318 0.0
C766 C 0.9715 0.72374 0.12895 0.0
C767 C 0.96593 0.66274 0.15481 0.0
H768 H 0.92328 0.64857 0.10645 0.0
C769 C 0.92817 0.56683 0.13669 0.0
C770 C 0.90555 0.56427 0.12628 0.0
C771 C 0.93766 0.58989 0.14134 0.0
C772 C 0.93467 0.65244 0.12033 0.0
H773 H 0.03923 0.71843 0.14602 0.0
H774 H 0.01249 0.68308 0.14892 0.0
H775 H 0.94674 0.68626 0.10679 0.0
H776 H 0.87446 0.58383 0.11378 0.0
H777 H 0.89081 0.62429 0.12226 0.0
H778 H 0.95425 0.62863 0.16811 0.0
C779 C 1.00493 0.70004 0.14311 0.0
C780 C 0.94822 0.67409 0.1205 0.0
C781 C 0.02033 0.72031 0.14131 0.0
C782 C 0.89183 0.58525 0.122 0.0
C783 C 0.90138 0.60841 0.12657 0.0
C784 C 0.95235 0.6411 0.15467 0.0
C785 C 0.98035 0.7014 0.13677 0.0
C786 C 0.96438 0.67933 0.13754 0.0
C787 C 0.92481 0.61104 0.13562 0.0
C788 C 0.93687 0.63542 0.13723 0.0
H789 H 0.97951 0.76087 0.12094 0.0
H790 H 0.95263 0.72556 0.12415 0.0
H791 H 0.97783 0.66638 0.16841 0.0
H792 H 0.93918 0.55095 0.14009 0.0
H793 H 0.95579 0.59109 0.14816 0.0
C794 C 0.79821 0.01773 0.12398 0.0
C795 C 0.77475 0.00975 0.12982 0.0
C796 C 0.81801 1.00187 0.12488 0.0
C797 C 0.84737 0.95425 0.15121 0.0
H798 H 0.87446 0.93441 0.09606 0.0
C799 C 0.94705 0.9242 0.13569 0.0
C800 C 0.95094 0.90508 0.12104 0.0
C801 C 0.92341 0.93215 0.14023 0.0
C802 C 0.86691 0.93945 0.1116 0.0
H803 H 0.75384 0.97902 0.14177 0.0
H804 H 0.78893 0.95138 0.14396 0.0
H805 H 0.83716 0.95862 0.09702 0.0
H806 H 0.93334 0.87857 0.10036 0.0
H807 H 0.89193 0.89266 0.10805 0.0
H808 H 0.87796 0.93624 0.16577 0.0
C809 C 0.79167 0.96991 0.13844 0.0
C810 C 0.84568 0.95338 0.11211 0.0
C811 C 0.77168 0.98568 0.13714 0.0
C812 C 0.93076 0.89306 0.11201 0.0
C813 C 0.90713 0.90128 0.11624 0.0
C814 C 0.86894 0.94066 0.15071 0.0
C815 C 0.8149 0.97785 0.13204 0.0
C816 C 0.83589 0.96108 0.13188 0.0
C817 C 0.90329 0.92144 0.12982 0.0
C818 C 0.87905 0.93333 0.13086 0.0
H819 H 0.80121 0.03609 0.11813 0.0
H820 H 0.83579 0.00832 0.11984 0.0
H821 H 0.84015 0.96017 0.16663 0.0
H822 H 0.96237 0.93398 0.14255 0.0
H823 H 0.92102 0.94783 0.15061 0.0
C824 C 0.03285 0.24325 0.37049 0.0
C825 C 0.00792 0.24162 0.36543 0.0
C826 C 0.04782 0.22268 0.36923 0.0
C827 C 0.05113 0.15982 0.34666 0.0
H828 H 0.09433 0.14804 0.39507 0.0
C829 C 0.08558 0.06432 0.36969 0.0
C830 C 0.1083 0.06175 0.3799 0.0
C831 C 0.07688 0.0873 0.36394 0.0
C832 C 0.08279 0.15119 0.38117 0.0
H833 H 0.97941 0.21713 0.35448 0.0
H834 H 1.00538 0.1814 0.35237 0.0
H835 H 0.07227 0.18631 0.39286 0.0
H836 H 0.14036 0.08118 0.39088 0.0
H837 H 0.12538 0.12146 0.38046 0.0
H838 H 0.06123 0.12445 0.33525 0.0
C839 C 0.01348 0.19858 0.35714 0.0
C840 C 0.07005 0.1732 0.37992 0.0
C841 C 0.99851 0.2191 0.35849 0.0
C842 C 0.12287 0.08256 0.38288 0.0
C843 C 0.11411 0.10566 0.37719 0.0
C844 C 0.0639 0.13784 0.34789 0.0
C845 C 0.03828 0.19999 0.36277 0.0
C846 C 0.05366 0.17761 0.36289 0.0
C847 C 0.09064 0.1084 0.3683 0.0
C848 C 0.07953 0.133 0.3654 0.0
H849 H 0.04074 0.26031 0.37587 0.0
H850 H 0.06688 0.22452 0.37345 0.0
H851 H 0.03903 0.16277 0.3331 0.0
H852 H 0.07395 0.04859 0.36721 0.0
H853 H 0.05869 0.08859 0.3573 0.0
C854 C 0.27219 0.02998 0.36456 0.0
C855 C 0.27375 1.00503 0.35967 0.0
C856 C 0.29279 0.04505 0.36319 0.0
C857 C 0.35564 0.04861 0.34068 0.0
H858 H 0.36768 0.09159 0.38924 0.0
C859 C 0.45136 0.08263 0.36425 0.0
C860 C 0.45411 0.10518 0.37472 0.0
C861 C 0.42831 0.07413 0.35824 0.0
C862 C 0.36445 0.08012 0.37529 0.0
H863 H 0.29815 0.97657 0.34883 0.0
H864 H 0.33394 1.00273 0.34651 0.0
H865 H 0.32926 0.0695 0.38691 0.0
H866 H 0.43501 0.13722 0.38583 0.0
H867 H 0.39463 0.12261 0.37492 0.0
H868 H 0.3911 0.05878 0.32933 0.0
C869 C 0.31678 0.01076 0.35125 0.0
C870 C 0.34236 0.06737 0.37398 0.0
C871 C 0.29624 0.99569 0.35272 0.0
C872 C 0.43347 0.11986 0.37763 0.0
C873 C 0.41031 0.1113 0.37167 0.0
C874 C 0.37771 0.0614 0.34196 0.0
C875 C 0.31544 0.03557 0.35677 0.0
C876 C 0.33787 0.05104 0.3569 0.0
C877 C 0.40735 0.08795 0.36257 0.0
C878 C 0.38265 0.07694 0.35953 0.0
H879 H 0.25516 0.03781 0.36994 0.0
H880 H 0.29101 0.06412 0.36732 0.0
H881 H 0.35263 0.03654 0.32709 0.0
H882 H 0.46695 0.07093 0.36183 0.0
H883 H 0.42685 0.05602 0.35144 0.0
C884 C 0.40186 0.42965 0.37296 0.0
C885 C 0.41751 0.44984 0.3713 0.0
C886 C 0.40948 0.40665 0.36595 0.0
C887 C 0.45886 0.37374 0.33634 0.0
H888 H 0.44874 0.32489 0.38069 0.0
C889 C 0.52311 0.29207 0.34869 0.0
C890 C 0.51332 0.26974 0.35568 0.0
C891 C 0.50827 0.31256 0.34651 0.0
C892 C 0.4514 0.33809 0.3679 0.0
H893 H 0.45242 0.4623 0.35927 0.0
H894 H 0.46578 0.42237 0.34718 0.0
H895 H 0.42742 0.36347 0.383 0.0
H896 H 0.47998 0.25123 0.36504 0.0
H897 H 0.45408 0.28695 0.36112 0.0
H898 H 0.48359 0.34856 0.32171 0.0
C899 C 0.44762 0.42409 0.3538 0.0
C900 C 0.43909 0.36027 0.36919 0.0
C901 C 0.44003 0.44701 0.36083 0.0
C902 C 0.48817 0.26818 0.35973 0.0
C903 C 0.47332 0.28869 0.35759 0.0
C904 C 0.47121 0.35154 0.33507 0.0
C905 C 0.43286 0.40344 0.3571 0.0
C906 C 0.44307 0.37861 0.35371 0.0
C907 C 0.48325 0.31124 0.35129 0.0
C908 C 0.46806 0.33366 0.35111 0.0
H909 H 0.38446 0.43126 0.38107 0.0
H910 H 0.39749 0.3912 0.36839 0.0
H911 H 0.46209 0.38732 0.32397 0.0
H912 H 0.5424 0.29393 0.34542 0.0
H913 H 0.51661 0.32967 0.34188 0.0
C914 C 0.07077 0.42603 0.37319 0.0
C915 C 0.06804 0.4036 0.38385 0.0
C916 C 0.09384 0.43464 0.36735 0.0
C917 C 0.15757 0.42942 0.38532 0.0
H918 H 0.16978 0.47259 0.33693 0.0
C919 C 0.25016 0.47949 0.37437 0.0
C920 C 0.24882 0.50424 0.36863 0.0
C921 C 0.22939 0.46455 0.37354 0.0
C922 C 0.16666 0.46067 0.3506 0.0
H923 H 0.08719 0.37191 0.39559 0.0
H924 H 0.12765 0.38667 0.38497 0.0
H925 H 0.13141 0.45018 0.33893 0.0
H926 H 0.22455 0.53247 0.35713 0.0
H927 H 0.18851 0.50657 0.35578 0.0
H928 H 0.19259 0.44032 0.39723 0.0
C929 C 0.11193 0.3978 0.38138 0.0
C930 C 0.14463 0.44776 0.35173 0.0
C931 C 0.08873 0.38913 0.38715 0.0
C932 C 0.22632 0.51351 0.36164 0.0
C933 C 0.20562 0.49857 0.36073 0.0
C934 C 0.17962 0.4423 0.38416 0.0
C935 C 0.11486 0.42108 0.37211 0.0
C936 C 0.13955 0.43232 0.36934 0.0
C937 C 0.20679 0.47393 0.36684 0.0
C938 C 0.18428 0.45849 0.36701 0.0
H939 H 0.05513 0.43766 0.37066 0.0
H940 H 0.09525 0.45269 0.36043 0.0
H941 H 0.15424 0.41804 0.39931 0.0
H942 H 0.26718 0.4717 0.37981 0.0
H943 H 0.23106 0.44561 0.37816 0.0
C944 C 0.508 0.22344 0.84922 0.0
C945 C 0.49828 0.24561 0.85651 0.0
C946 C 0.49349 0.20249 0.84812 0.0
C947 C 0.43871 0.17552 0.87284 0.0
H948 H 0.44786 0.1259 0.82904 0.0
C949 C 0.39073 0.08241 0.88006 0.0
C950 C 0.40642 0.06247 0.87754 0.0
C951 C 0.39791 0.10568 0.87318 0.0
C952 C 0.44509 0.13956 0.84142 0.0
H953 H 0.46531 0.26329 0.86757 0.0
H954 H 0.43993 0.22675 0.86551 0.0
H955 H 0.46822 0.16526 0.82528 0.0
H956 H 0.441 0.05085 0.8644 0.0
H957 H 0.45354 0.0912 0.85242 0.0
H958 H 0.41624 0.14964 0.88935 0.0
C959 C 0.4589 0.22551 0.86089 0.0
C960 C 0.45679 0.16212 0.83927 0.0
C961 C 0.47343 0.24651 0.86194 0.0
C962 C 0.42857 0.06592 0.86657 0.0
C963 C 0.43569 0.08908 0.85963 0.0
C964 C 0.42702 0.15297 0.87499 0.0
C965 C 0.46885 0.20313 0.85431 0.0
C966 C 0.4542 0.18021 0.8552 0.0
C967 C 0.42086 0.10943 0.86354 0.0
C968 C 0.43048 0.13449 0.85956 0.0
H969 H 0.52706 0.22205 0.84492 0.0
H970 H 0.50189 0.18556 0.84323 0.0
H971 H 0.43651 0.18886 0.88558 0.0
H972 H 0.37364 0.08034 0.8886 0.0
H973 H 0.38588 0.12089 0.87616 0.0
C974 C 0.43819 0.4316 0.87023 0.0
C975 C 0.44137 0.40915 0.88073 0.0
C976 C 0.4149 0.43986 0.86492 0.0
C977 C 0.35212 0.43391 0.88441 0.0
H978 H 0.33737 0.47497 0.83519 0.0
C979 C 0.25885 0.48169 0.8758 0.0
C980 C 0.25955 0.50618 0.86919 0.0
C981 C 0.27965 0.4671 0.87437 0.0
C982 C 0.34122 0.46365 0.84909 0.0
H983 H 0.42276 0.37707 0.89271 0.0
H984 H 0.38195 0.39132 0.88316 0.0
H985 H 0.37617 0.4535 0.83668 0.0
H986 H 0.28263 0.53434 0.85548 0.0
H987 H 0.31884 0.50908 0.85324 0.0
H988 H 0.31756 0.44458 0.89716 0.0
C989 C 0.3975 0.40268 0.87926 0.0
C990 C 0.36345 0.45128 0.84991 0.0
C991 C 0.42088 0.39436 0.88447 0.0
C992 C 0.28139 0.51555 0.86067 0.0
C993 C 0.30216 0.50097 0.85925 0.0
C994 C 0.32991 0.4463 0.8836 0.0
C995 C 0.39417 0.42589 0.87007 0.0
C996 C 0.36938 0.4366 0.86777 0.0
C997 C 0.30167 0.47662 0.86629 0.0
C998 C 0.32434 0.46169 0.86613 0.0
H999 H 0.45368 0.44338 0.86716 0.0
H1000 H 0.41309 0.45786 0.85799 0.0
H1001 H 0.35619 0.4231 0.89858 0.0
H1002 H 0.24231 0.47385 0.88237 0.0
H1003 H 0.27849 0.44835 0.87969 0.0
C1004 C 0.99346 0.28695 0.85538 0.0
C1005 C 1.00333 0.26515 0.86334 0.0
C1006 C 0.00775 0.30803 0.85397 0.0
C1007 C 0.06234 0.33632 0.87807 0.0
H1008 H 0.05367 0.38364 0.83223 0.0
C1009 C 0.11098 0.42903 0.88196 0.0
C1010 C 0.09531 0.4489 0.87898 0.0
C1011 C 0.10376 0.40559 0.87562 0.0
C1012 C 0.05632 0.37062 0.84515 0.0
H1013 H 0.03627 0.24827 0.87546 0.0
H1014 H 0.06124 0.28499 0.87284 0.0
H1015 H 0.03303 0.34427 0.83002 0.0
H1016 H 0.06081 0.46024 0.86545 0.0
H1017 H 0.04822 0.41956 0.85436 0.0
H1018 H 0.08499 0.36285 0.89353 0.0
C1019 C 0.04233 0.28587 0.86794 0.0
C1020 C 0.04443 0.34806 0.84392 0.0
C1021 C 0.02803 0.26478 0.86935 0.0
C1022 C 0.07323 0.44522 0.86794 0.0
C1023 C 0.06607 0.42187 0.86154 0.0
C1024 C 0.07422 0.35885 0.8793 0.0
C1025 C 0.0323 0.30785 0.86048 0.0
C1026 C 0.04688 0.33082 0.86059 0.0
C1027 C 0.0808 0.40162 0.86608 0.0
C1028 C 0.07097 0.3765 0.86308 0.0
H1029 H 0.9745 0.28793 0.85063 0.0
H1030 H 0.9993 0.32468 0.84842 0.0
H1031 H 0.06442 0.32366 0.89135 0.0
H1032 H 0.12801 0.4313 0.89057 0.0
H1033 H 0.11572 0.39044 0.87904 0.0
C1034 C 0.22342 0.99495 0.85171 0.0
C1035 C 0.24551 1.00454 0.8595 0.0
C1036 C 0.20287 0.00974 0.84963 0.0
C1037 C 0.17621 0.0657 0.87205 0.0
H1038 H 0.12853 0.05618 0.82656 0.0
C1039 C 0.0841 0.11505 0.87521 0.0
C1040 C 0.06401 0.09946 0.87251 0.0
C1041 C 0.10745 0.10755 0.86899 0.0
C1042 C 0.14166 0.05908 0.83938 0.0
H1043 H 0.26349 0.03751 0.87051 0.0
H1044 H 0.22766 0.06336 0.86675 0.0
H1045 H 0.16748 0.03499 0.82479 0.0
H1046 H 0.05219 0.06472 0.85963 0.0
H1047 H 0.09267 0.05164 0.84877 0.0
H1048 H 0.15016 0.08911 0.88703 0.0
C1049 C 0.22616 0.04429 0.86249 0.0
C1050 C 0.16397 0.04689 0.83839 0.0
C1051 C 0.24675 0.02948 0.86453 0.0
C1052 C 0.06738 0.07711 0.86189 0.0
C1053 C 0.09062 0.06966 0.85561 0.0
C1054 C 0.1539 0.07787 0.87305 0.0
C1055 C 0.20385 0.03452 0.85531 0.0
C1056 C 0.18132 0.04961 0.85497 0.0
C1057 C 0.1111 0.08436 0.85986 0.0
C1058 C 0.1361 0.07429 0.85698 0.0
H1059 H 0.22178 0.97582 0.84768 0.0
H1060 H 0.18596 1.00149 0.84431 0.0
H1061 H 0.18897 0.06802 0.88525 0.0
H1062 H 0.08207 0.13229 0.8835 0.0
H1063 H 0.12277 0.11948 0.87219 0.0
C1064 C 0.98289 0.76834 0.64196 0.0
C1065 C 0.00681 0.76678 0.64996 0.0
C1066 C 0.96988 0.79018 0.64339 0.0
C1067 C 0.98144 0.85617 0.64728 0.0
H1068 H 0.91151 0.86054 0.65489 0.0
C1069 C 0.93525 0.94878 0.64189 0.0
C1070 C 0.91463 0.94974 0.6285 0.0
C1071 C 0.94392 0.92646 0.64944 0.0
C1072 C 0.93105 0.85961 0.65269 0.0
H1073 H 0.03523 0.78655 0.66694 0.0
H1074 H 0.01247 0.82436 0.66977 0.0
H1075 H 0.93175 0.82115 0.65874 0.0
H1076 H 0.88603 0.92839 0.61358 0.0
H1077 H 0.90128 0.88925 0.62652 0.0
H1078 H 0.98087 0.89426 0.64062 0.0
C1079 C 1.00392 0.80892 0.66192 0.0
C1080 C 0.94265 0.83703 0.65487 0.0
C1081 C 0.01694 0.78716 0.66041 0.0
C1082 C 0.90178 0.92815 0.62413 0.0
C1083 C 0.9106 0.90572 0.63152 0.0
C1084 C 0.9699 0.87863 0.6451 0.0
C1085 C 0.98048 0.81094 0.65292 0.0
C1086 C 0.968 0.83501 0.65204 0.0
C1087 C 0.93239 0.90453 0.64348 0.0
C1088 C 0.94453 0.8807 0.64762 0.0
H1089 H 0.97453 0.75299 0.6338 0.0
H1090 H 0.95196 0.79107 0.63615 0.0
H1091 H 1.00088 0.8553 0.64448 0.0
H1092 H 0.94548 0.9652 0.64545 0.0
H1093 H 0.96038 0.92631 0.65908 0.0
C1094 C 0.74832 0.98038 0.62544 0.0
C1095 C 0.74778 1.00496 0.63179 0.0
C1096 C 0.72743 0.96577 0.62703 0.0
C1097 C 0.66614 0.96228 0.65271 0.0
H1098 H 0.64997 0.92229 0.60308 0.0
C1099 C 0.56841 0.93197 0.63206 0.0
C1100 C 0.56454 0.91012 0.62071 0.0
C1101 C 0.59194 0.93946 0.6376 0.0
C1102 C 0.65438 0.9329 0.61732 0.0
H1103 H 0.7249 0.03325 0.64526 0.0
H1104 H 0.68855 0.00792 0.64788 0.0
H1105 H 0.68894 0.94347 0.6043 0.0
H1106 H 0.58212 0.87816 0.60763 0.0
H1107 H 0.62336 0.89098 0.61769 0.0
H1108 H 0.63126 0.95221 0.66545 0.0
C1109 C 0.70516 0.9998 0.64188 0.0
C1110 C 0.67677 0.94514 0.61798 0.0
C1111 C 0.72601 0.0144 0.64023 0.0
C1112 C 0.58454 0.89498 0.61653 0.0
C1113 C 0.60818 0.90252 0.62202 0.0
C1114 C 0.64375 0.95001 0.65206 0.0
C1115 C 0.7055 0.97535 0.63509 0.0
C1116 C 0.68274 0.9604 0.63547 0.0
C1117 C 0.61224 0.9253 0.63189 0.0
C1118 C 0.63734 0.93556 0.63414 0.0
H1119 H 0.7648 0.97248 0.61892 0.0
H1120 H 0.72843 0.94696 0.62187 0.0
H1121 H 0.67032 0.97351 0.66662 0.0
H1122 H 0.5533 0.94402 0.63542 0.0
H1123 H 0.59427 0.95715 0.64505 0.0
C1124 C 0.52869 0.74771 0.6269 0.0
C1125 C 0.50379 0.74636 0.63209 0.0
C1126 C 0.54357 0.72713 0.62857 0.0
C1127 C 0.54665 0.665 0.65261 0.0
H1128 H 0.59052 0.65205 0.60494 0.0
C1129 C 0.58211 0.56919 0.63185 0.0
C1130 C 0.60506 0.56662 0.62209 0.0
C1131 C 0.57311 0.59221 0.63709 0.0
C1132 C 0.57877 0.65555 0.61864 0.0
H1133 H 0.47517 0.72231 0.64356 0.0
H1134 H 0.50096 0.68649 0.64628 0.0
H1135 H 0.56817 0.6902 0.60601 0.0
H1136 H 0.63723 0.58607 0.61142 0.0
H1137 H 0.62171 0.62642 0.62092 0.0
H1138 H 0.55682 0.63003 0.66494 0.0
C1139 C 0.50913 0.70351 0.64115 0.0
C1140 C 0.56588 0.67748 0.61922 0.0
C1141 C 0.49426 0.72406 0.63945 0.0
C1142 C 0.61956 0.58747 0.61908 0.0
C1143 C 0.61051 0.61059 0.62425 0.0
C1144 C 0.55956 0.64307 0.65204 0.0
C1145 C 0.53393 0.70468 0.63552 0.0
C1146 C 0.54929 0.68231 0.636 0.0
C1147 C 0.58682 0.61331 0.63264 0.0
C1148 C 0.57546 0.63784 0.63483 0.0
H1149 H 0.53668 0.76461 0.62124 0.0
H1150 H 0.56263 0.72879 0.62434 0.0
H1151 H 0.53439 0.66828 0.66599 0.0
H1152 H 0.57054 0.55342 0.63435 0.0
H1153 H 0.55477 0.59351 0.64338 0.0
C1154 C 0.79127 0.50157 0.656 0.0
C1155 C 0.76857 0.51108 0.64985 0.0
C1156 C 0.81167 0.51675 0.65778 0.0
C1157 C 0.83554 0.57451 0.63629 0.0
H1158 H 0.88784 0.56268 0.67704 0.0
C1159 C 0.92718 0.62419 0.6273 0.0
C1160 C 0.94714 0.60829 0.62708 0.0
C1161 C 0.90464 0.61642 0.63544 0.0
C1162 C 0.87338 0.56626 0.66558 0.0
H1163 H 0.74929 0.54425 0.64179 0.0
H1164 H 0.78486 0.57077 0.64511 0.0
H1165 H 0.84915 0.54109 0.68109 0.0
H1166 H 0.95984 0.57267 0.63677 0.0
H1167 H 0.92075 0.55912 0.65101 0.0
H1168 H 0.85996 0.599 0.62033 0.0
C1169 C 0.78696 0.55149 0.64823 0.0
C1170 C 0.85122 0.55384 0.66786 0.0
C1171 C 0.76653 0.53629 0.64644 0.0
C1172 C 0.94471 0.58527 0.63676 0.0
C1173 C 0.9223 0.57756 0.64498 0.0
C1174 C 0.85766 0.58693 0.63403 0.0
C1175 C 0.8099 0.54183 0.65349 0.0
C1176 C 0.83224 0.55734 0.65291 0.0
C1177 C 0.90173 0.59266 0.64363 0.0
C1178 C 0.87709 0.5825 0.6483 0.0
H1179 H 0.79351 0.48224 0.65876 0.0
H1180 H 0.82906 0.50859 0.66162 0.0
H1181 H 0.82149 0.57746 0.6243 0.0
H1182 H 0.92851 0.64195 0.61979 0.0
H1183 H 0.88924 0.62861 0.63444 0.0
C1184 C 0.5781 0.28237 0.95359 0.0
C1185 C 0.56761 0.27651 0.9335 0.0
C1186 C 0.58302 0.26409 0.96872 0.0
C1187 C 0.59611 0.19893 0.9724 0.0
H1188 H 0.58026 0.20645 0.03308 0.0
C1189 C 0.61738 0.12291 0.03394 0.0
C1190 C 0.6269 0.13048 0.05393 0.0
C1191 C 0.60714 0.13984 0.01969 0.0
C1192 C 0.58504 0.20412 0.01623 0.0
H1193 H 0.55389 0.24684 0.91369 0.0
H1194 H 0.56269 0.21508 0.93999 0.0
H1195 H 0.56898 0.23825 0.00746 0.0
H1196 H 0.63245 0.16174 0.07487 0.0
H1197 H 0.61533 0.19111 0.05001 0.0
H1198 H 0.61291 0.16531 0.9811 0.0
C1199 C 0.56712 0.23378 0.94401 0.0
C1200 C 0.57852 0.22235 0.00157 0.0
C1201 C 0.56196 0.25203 0.92899 0.0
C1202 C 0.62524 0.1552 0.05964 0.0
C1203 C 0.61523 0.1721 0.04537 0.0
C1204 C 0.60287 0.18083 0.98708 0.0
C1205 C 0.57781 0.23958 0.96398 0.0
C1206 C 0.58411 0.22 0.97952 0.0
C1207 C 0.60637 0.16476 0.02506 0.0
C1208 C 0.5976 0.18325 0.00923 0.0
H1209 H 0.58267 0.30104 0.95757 0.0
H1210 H 0.59145 0.26906 0.98394 0.0
H1211 H 0.60089 0.19675 0.95553 0.0
H1212 H 0.61826 0.10398 0.0291 0.0
H1213 H 0.60008 0.13343 0.00436 0.0
C1214 C 0.2674 0.59008 0.92164 0.0
C1215 C 0.24667 0.57645 0.9274 0.0
C1216 C 0.28631 0.59375 0.93647 0.0
C1217 C 0.29795 0.59752 0.99447 0.0
H1218 H 0.36587 0.59116 0.97848 0.0
C1219 C 0.374 0.6169 0.05649 0.0
C1220 C 0.39474 0.62936 0.04902 0.0
C1221 C 0.35703 0.60726 0.0419 0.0
C1222 C 0.34702 0.59331 0.98319 0.0
H1223 H 0.22973 0.55571 0.9532 0.0
H1224 H 0.2626 0.56249 0.9792 0.0
H1225 H 0.33416 0.58082 0.95236 0.0
H1226 H 0.41423 0.64089 0.02029 0.0
H1227 H 0.38442 0.62483 0.99493 0.0
H1228 H 0.31052 0.61094 0.02491 0.0
C1229 C 0.2642 0.57026 0.96316 0.0
C1230 C 0.32886 0.58727 0.96821 0.0
C1231 C 0.24544 0.56629 0.94823 0.0
C1232 C 0.39852 0.63127 0.02662 0.0
C1233 C 0.3814 0.62192 0.01202 0.0
C1234 C 0.31607 0.60387 0.00935 0.0
C1235 C 0.28477 0.58415 0.95749 0.0
C1236 C 0.30413 0.58944 0.97365 0.0
C1237 C 0.36017 0.61013 0.01945 0.0
C1238 C 0.3409 0.60201 0.00391 0.0
H1239 H 0.26896 0.5981 0.9057 0.0
H1240 H 0.30185 0.60468 0.93168 0.0
H1241 H 0.27904 0.59969 0.99904 0.0
H1242 H 0.37064 0.61494 0.07366 0.0
H1243 H 0.34127 0.5978 0.04829 0.0
C1244 C 0.94502 0.24897 0.94137 0.0
C1245 C 0.93038 0.24569 0.92292 0.0
C1246 C 0.93857 0.26598 0.95722 0.0
C1247 C 0.8845 0.29525 0.97917 0.0
H1248 H 0.92862 0.34218 0.00515 0.0
C1249 C 0.84749 0.36994 0.03347 0.0
C1250 C 0.86003 0.37534 0.05265 0.0
C1251 C 0.85821 0.35564 0.01755 0.0
C1252 C 0.91617 0.32898 0.99822 0.0
H1253 H 0.89805 0.25844 0.90625 0.0
H1254 H 0.88679 0.28779 0.93389 0.0
H1255 H 0.9437 0.31398 0.9775 0.0
H1256 H 0.89407 0.37095 0.06989 0.0
H1257 H 0.91281 0.34524 0.04209 0.0
H1258 H 0.85708 0.30961 0.99989 0.0
C1259 C 0.90313 0.2771 0.93619 0.0
C1260 C 0.9248 0.3129 0.9824 0.0
C1261 C 0.90965 0.26033 0.92032 0.0
C1262 C 0.88402 0.36705 0.05521 0.0
C1263 C 0.89473 0.35238 0.03929 0.0
C1264 C 0.87597 0.31107 0.99502 0.0
C1265 C 0.91726 0.27982 0.95496 0.0
C1266 C 0.90889 0.29618 0.97248 0.0
C1267 C 0.88164 0.346 0.02053 0.0
C1268 C 0.89154 0.32846 0.00447 0.0
H1269 H 0.96116 0.23805 0.94383 0.0
H1270 H 0.94975 0.26769 0.97157 0.0
H1271 H 0.87198 0.28215 0.97218 0.0
H1272 H 0.82911 0.37644 0.03089 0.0
H1273 H 0.84788 0.35175 0.00303 0.0
C1274 C 0.2846 0.9062 0.94745 0.0
C1275 C 0.28138 0.9279 0.93574 0.0
C1276 C 0.26682 0.89823 0.96208 0.0
C1277 C 0.21731 0.91877 0.99685 0.0
H1278 H 0.19231 0.85297 0.9914 0.0
C1279 C 0.13856 0.88536 0.05117 0.0
C1280 C 0.13924 0.86116 0.05846 0.0
C1281 C 0.15439 0.89337 0.03488 0.0
C1282 C 0.19927 0.87128 0.99345 0.0
H1283 H 0.25728 0.95855 0.93068 0.0
H1284 H 0.22662 0.94496 0.95675 0.0
H1285 H 0.22398 0.86727 0.96683 0.0
H1286 H 0.15676 0.82623 0.05402 0.0
H1287 H 0.18486 0.84024 0.02635 0.0
H1288 H 0.19353 0.92271 0.02392 0.0
C1289 C 0.24278 0.93403 0.95438 0.0
C1290 C 0.21738 0.87948 0.97925 0.0
C1291 C 0.26031 0.94176 0.93943 0.0
C1292 C 0.15558 0.84494 0.04863 0.0
C1293 C 0.17171 0.85304 0.03264 0.0
C1294 C 0.19952 0.91047 0.01131 0.0
C1295 C 0.24569 0.91202 0.96564 0.0
C1296 C 0.22657 0.9033 0.9808 0.0
C1297 C 0.17167 0.87749 0.02575 0.0
C1298 C 0.19018 0.88657 0.00984 0.0
H1299 H 0.30054 0.89502 0.94488 0.0
H1300 H 0.26961 0.88128 0.97066 0.0
H1301 H 0.22422 0.93718 0.99851 0.0
H1302 H 0.12607 0.89827 0.05833 0.0
H1303 H 0.15323 0.91214 0.02969 0.0
C1304 C 0.08398 0.73038 0.54811 0.0
C1305 C 0.07354 0.73679 0.56806 0.0
C1306 C 0.08947 0.74824 0.5327 0.0
C1307 C 0.10308 0.81368 0.52775 0.0
H1308 H 0.09009 0.80336 0.46684 0.0
C1309 C 0.12391 0.88827 0.46433 0.0
C1310 C 0.13428 0.88052 0.44474 0.0
C1311 C 0.11423 0.87132 0.47895 0.0
C1312 C 0.09408 0.80647 0.48376 0.0
H1313 H 0.0604 0.76706 0.58729 0.0
H1314 H 0.06999 0.79813 0.56044 0.0
H1315 H 0.07795 0.77246 0.49306 0.0
H1316 H 0.14211 0.84883 0.42501 0.0
H1317 H 0.12576 0.81944 0.45052 0.0
H1318 H 0.11974 0.84736 0.51853 0.0
C1319 C 0.07408 0.77931 0.55677 0.0
C1320 C 0.08707 0.78874 0.49879 0.0
C1321 C 0.06844 0.76145 0.57211 0.0
C1322 C 0.1342 0.85551 0.4399 0.0
C1323 C 0.12466 0.83859 0.45453 0.0
C1324 C 0.11025 0.83134 0.51272 0.0
C1325 C 0.08479 0.77295 0.53694 0.0
C1326 C 0.0916 0.79208 0.52096 0.0
C1327 C 0.11478 0.84621 0.47438 0.0
C1328 C 0.10599 0.82793 0.49049 0.0
H1329 H 0.08813 0.71157 0.54444 0.0
H1330 H 0.09791 0.74276 0.51766 0.0
H1331 H 0.10713 0.81668 0.54469 0.0
H1332 H 0.12357 0.9074 0.46853 0.0
H1333 H 0.1064 0.87793 0.49389 0.0
C1334 C 0.75243 0.09911 0.57307 0.0
C1335 C 0.7652 0.07698 0.57331 0.0
C1336 C 0.73397 0.10311 0.55798 0.0
C1337 C 0.68996 0.07405 0.52185 0.0
H1338 H 0.69719 0.13293 0.4878 0.0
C1339 C 0.61678 0.11614 0.46395 0.0
C1340 C 0.6257 0.12406 0.44381 0.0
C1341 C 0.63277 0.10721 0.47971 0.0
C1342 C 0.69497 0.11639 0.49716 0.0
H1343 H 0.76776 0.04124 0.55854 0.0
H1344 H 0.73509 0.0482 0.53234 0.0
H1345 H 0.72661 0.12394 0.51623 0.0
H1346 H 0.65822 0.12733 0.42401 0.0
H1347 H 0.68589 0.11213 0.45151 0.0
H1348 H 0.65801 0.06678 0.50277 0.0
C1349 C 0.73962 0.06245 0.54377 0.0
C1350 C 0.71168 0.11135 0.5135 0.0
C1351 C 0.7584 0.05856 0.55868 0.0
C1352 C 0.65069 0.12161 0.43938 0.0
C1353 C 0.66661 0.11297 0.45514 0.0
C1354 C 0.67292 0.07933 0.50566 0.0
C1355 C 0.72758 0.08494 0.54304 0.0
C1356 C 0.70941 0.09012 0.52596 0.0
C1357 C 0.65792 0.10631 0.47563 0.0
C1358 C 0.67543 0.10047 0.49306 0.0
H1359 H 0.75706 0.11364 0.58418 0.0
H1360 H 0.72481 0.12054 0.55786 0.0
H1361 H 0.68781 0.05759 0.53132 0.0
H1362 H 0.59762 0.11771 0.46784 0.0
H1363 H 0.62566 0.10217 0.49542 0.0
C1364 C 0.32672 0.64799 0.46629 0.0
C1365 C 0.34146 0.63709 0.4505 0.0
C1366 C 0.3371 0.66168 0.48299 0.0
C1367 C 0.39613 0.6777 0.50993 0.0
H1368 H 0.36074 0.73613 0.52534 0.0
C1369 C 0.43708 0.75802 0.56019 0.0
C1370 C 0.4221 0.76727 0.57668 0.0
C1371 C 0.42804 0.74069 0.54556 0.0
C1372 C 0.37076 0.71978 0.52135 0.0
H1373 H 0.37873 0.63119 0.44033 0.0
H1374 H 0.39686 0.6556 0.4691 0.0
H1375 H 0.34352 0.70813 0.49899 0.0
H1376 H 0.38594 0.76543 0.59076 0.0
H1377 H 0.37024 0.73556 0.56518 0.0
H1378 H 0.42374 0.69005 0.532 0.0
C1379 C 0.37728 0.65326 0.4689 0.0
C1380 C 0.36082 0.70359 0.50631 0.0
C1381 C 0.36688 0.63925 0.45233 0.0
C1382 C 0.39802 0.75867 0.57831 0.0
C1383 C 0.38894 0.74165 0.56356 0.0
C1384 C 0.40622 0.69411 0.52484 0.0
C1385 C 0.36249 0.66518 0.48416 0.0
C1386 C 0.37325 0.6822 0.50046 0.0
C1387 C 0.40377 0.73257 0.54694 0.0
C1388 C 0.39355 0.71525 0.53081 0.0
H1389 H 0.30707 0.64646 0.46544 0.0
H1390 H 0.32511 0.66993 0.49477 0.0
H1391 H 0.40616 0.66135 0.50605 0.0
H1392 H 0.45572 0.76423 0.55853 0.0
H1393 H 0.43985 0.7341 0.53283 0.0
C1394 C 0.73342 0.43202 0.55006 0.0
C1395 C 0.73948 0.44216 0.57024 0.0
C1396 C 0.75156 0.42714 0.53478 0.0
C1397 C 0.81678 0.41382 0.53045 0.0
H1398 H 0.80824 0.42972 0.46988 0.0
C1399 C 0.89212 0.39343 0.46784 0.0
C1400 C 0.88442 0.38419 0.44778 0.0
C1401 C 0.87524 0.40321 0.4824 0.0
C1402 C 0.81086 0.42491 0.48669 0.0
H1403 H 0.76938 0.45531 0.59007 0.0
H1404 H 0.80094 0.44661 0.56348 0.0
H1405 H 0.77688 0.44096 0.49591 0.0
H1406 H 0.85294 0.37856 0.42711 0.0
H1407 H 0.82367 0.39494 0.45251 0.0
H1408 H 0.8503 0.39708 0.5213 0.0
C1409 C 0.78217 0.44241 0.55951 0.0
C1410 C 0.79287 0.43141 0.5016 0.0
C1411 C 0.76404 0.44751 0.57469 0.0
C1412 C 0.85959 0.3856 0.44238 0.0
C1413 C 0.84274 0.39517 0.45696 0.0
C1414 C 0.83465 0.40708 0.51552 0.0
C1415 C 0.77616 0.43205 0.53943 0.0
C1416 C 0.79557 0.42583 0.52363 0.0
C1417 C 0.85024 0.40383 0.47731 0.0
C1418 C 0.83188 0.41237 0.49339 0.0
H1419 H 0.71469 0.42768 0.5461 0.0
H1420 H 0.74638 0.41897 0.51951 0.0
H1421 H 0.81925 0.40901 0.54728 0.0
H1422 H 0.91113 0.39274 0.47247 0.0
H1423 H 0.8818 0.41012 0.49774 0.0
C1424 C 0.38819 0.85677 0.93538 0.0
C1425 C 0.38711 0.88128 0.94188 0.0
C1426 C 0.3969 0.83893 0.94944 0.0
C1427 C 0.43302 0.82833 0.99864 0.0
H1428 H 0.39165 0.77138 0.00486 0.0
C1429 C 0.44522 0.75964 0.06842 0.0
C1430 C 0.44041 0.73488 0.06446 0.0
C1431 C 0.44031 0.77719 0.05269 0.0
C1432 C 0.40369 0.78691 0.0031 0.0
H1433 H 0.39546 0.9064 0.96792 0.0
H1434 H 0.41092 0.87515 0.99246 0.0
H1435 H 0.38107 0.80265 0.97869 0.0
H1436 H 0.42719 0.70909 0.0406 0.0
H1437 H 0.41923 0.73963 0.01292 0.0
H1438 H 0.45578 0.81253 0.02292 0.0
C1439 C 0.40492 0.86981 0.97646 0.0
C1440 C 0.39756 0.80489 0.98812 0.0
C1441 C 0.396 0.88769 0.96243 0.0
C1442 C 0.43096 0.72803 0.04424 0.0
C1443 C 0.42626 0.74558 0.0284 0.0
C1444 C 0.43931 0.81021 0.0135 0.0
C1445 C 0.40493 0.84518 0.97027 0.0
C1446 C 0.41207 0.82585 0.9858 0.0
C1447 C 0.43067 0.77044 0.03249 0.0
C1448 C 0.42462 0.78932 0.01604 0.0
H1449 H 0.38161 0.85115 0.91964 0.0
H1450 H 0.39704 0.82015 0.94411 0.0
H1451 H 0.44467 0.84418 0.99704 0.0
H1452 H 0.45237 0.7656 0.08387 0.0
H1453 H 0.44357 0.79614 0.05661 0.0
C1454 C 0.64194 0.38547 0.94692 0.0
C1455 C 0.63785 0.36021 0.94794 0.0
C1456 C 0.65842 0.39671 0.96117 0.0
C1457 C 0.71157 0.38174 0.99538 0.0
H1458 H 0.69921 0.44375 0.02311 0.0
C1459 C 0.75076 0.44016 0.07207 0.0
C1460 C 0.77588 0.43656 0.06911 0.0
C1461 C 0.73414 0.43343 0.05596 0.0
C1462 C 0.7029 0.42638 0.01553 0.0
H1463 H 0.64699 0.32718 0.96536 0.0
H1464 H 0.67519 0.34668 0.99014 0.0
H1465 H 0.66908 0.42669 0.99813 0.0
H1466 H 0.80328 0.4242 0.0464 0.0
H1467 H 0.77438 0.4127 0.01832 0.0
H1468 H 0.74492 0.3809 0.01313 0.0
C1469 C 0.66623 0.35779 0.97808 0.0
C1470 C 0.68573 0.41673 0.00106 0.0
C1471 C 0.6499 0.34663 0.96391 0.0
C1472 C 0.78405 0.42693 0.04936 0.0
C1473 C 0.76744 0.42025 0.03326 0.0
C1474 C 0.72867 0.39135 0.00977 0.0
C1475 C 0.67108 0.38287 0.97666 0.0
C1476 C 0.68973 0.39411 0.99106 0.0
C1477 C 0.74224 0.42299 0.0365 0.0
C1478 C 0.72449 0.41368 0.02021 0.0
H1479 H 0.63293 0.39643 0.93479 0.0
H1480 H 0.66178 0.41607 0.95963 0.0
H1481 H 0.71544 0.36446 0.98771 0.0
H1482 H 0.74383 0.44753 0.08709 0.0
H1483 H 0.71487 0.43559 0.05911 0.0
C1484 C 0.12284 0.62343 0.95349 0.0
C1485 C 0.14729 0.62457 0.94689 0.0
C1486 C 0.11482 0.63691 0.97131 0.0
C1487 C 0.13707 0.6746 0.01798 0.0
H1488 H 0.07336 0.70412 0.01289 0.0
C1489 C 0.10147 0.7399 0.08368 0.0
C1490 C 0.08768 0.75998 0.07691 0.0
C1491 C 0.10699 0.7211 0.06927 0.0
C1492 C 0.09131 0.69626 0.01453 0.0
H1493 H 0.18265 0.64021 0.95422 0.0
H1494 H 0.16866 0.66424 0.98461 0.0
H1495 H 0.08694 0.67567 0.98549 0.0
H1496 H 0.0687 0.77606 0.04977 0.0
H1497 H 0.07917 0.74393 0.02436 0.0
H1498 H 0.14215 0.69641 0.04618 0.0
C1499 C 0.15565 0.65252 0.97653 0.0
C1500 C 0.09897 0.6795 0.99894 0.0
C1501 C 0.16371 0.63877 0.95895 0.0
C1502 C 0.07922 0.76072 0.05551 0.0
C1503 C 0.08514 0.74215 0.04096 0.0
C1504 C 0.12959 0.69165 0.03336 0.0
C1505 C 0.13099 0.65215 0.98276 0.0
C1506 C 0.12208 0.6686 1.0003 0.0
C1507 C 0.09928 0.72213 0.04758 0.0
C1508 C 0.10668 0.70293 0.03177 0.0
H1509 H 0.10976 0.61251 0.94461 0.0
H1510 H 0.09583 0.63563 0.97588 0.0
H1511 H 0.1548 0.66633 0.01989 0.0
H1512 H 0.10802 0.73869 0.10016 0.0
H1513 H 0.11739 0.70579 0.07521 0.0
C1514 C 0.76004 0.08406 0.06607 0.0
C1515 C 0.73511 0.08843 0.06269 0.0
C1516 C 0.77753 0.09394 0.05222 0.0
C1517 C 0.81117 0.10739 0.0154 0.0
H1518 H 0.80012 0.17195 0.99226 0.0
C1519 C 0.87216 0.15013 0.94914 0.0
C1520 C 0.87484 0.17557 0.94861 0.0
C1521 C 0.85682 0.13909 0.96432 0.0
C1522 C 0.80374 0.15405 0.99882 0.0
H1523 H 0.70899 0.10601 0.0416 0.0
H1524 H 0.73948 0.12262 0.01695 0.0
H1525 H 0.76966 0.15339 0.01548 0.0
H1526 H 0.86506 0.20924 0.9646 0.0
H1527 H 0.83912 0.18997 0.99164 0.0
H1528 H 0.84567 0.10844 0.99937 0.0
C1529 C 0.74557 0.11208 0.03071 0.0
C1530 C 0.78598 0.14318 0.01185 0.0
C1531 C 0.72805 0.10238 0.04473 0.0
C1532 C 0.86318 0.1896 0.96448 0.0
C1533 C 0.84809 0.17855 0.97983 0.0
C1534 C 0.82905 0.11837 0.00254 0.0
C1535 C 0.77058 0.10827 0.03444 0.0
C1536 C 0.7894 0.11967 0.02026 0.0
C1537 C 0.84405 0.15323 0.9795 0.0
C1538 C 0.82555 0.14183 0.99402 0.0
H1539 H 0.7662 0.07354 0.07982 0.0
H1540 H 0.79655 0.09089 0.05586 0.0
H1541 H 0.81438 0.08915 0.02136 0.0
H1542 H 0.88078 0.1388 0.93705 0.0
H1543 H 0.85409 0.1196 0.9634 0.0
C1544 C 0.86522 0.13829 0.54713 0.0
C1545 C 0.83981 0.13515 0.54698 0.0
C1546 C 0.87648 0.1539 0.5323 0.0
C1547 C 0.89787 0.18223 0.49459 0.0
H1548 H 0.86233 0.24123 0.48138 0.0
C1549 C 0.93276 0.25267 0.43238 0.0
C1550 C 0.92805 0.27747 0.43609 0.0
C1551 C 0.92277 0.23479 0.4458 0.0
C1552 C 0.87267 0.22501 0.48509 0.0
H1553 H 0.80651 0.14446 0.53015 0.0
H1554 H 0.82619 0.17092 0.50377 0.0
H1555 H 0.84361 0.21027 0.50397 0.0
H1556 H 0.90969 0.30293 0.45728 0.0
H1557 H 0.89286 0.27178 0.48111 0.0
H1558 H 0.92734 0.19749 0.47643 0.0
C1559 C 0.83738 0.16207 0.51582 0.0
C1560 C 0.86173 0.20698 0.49775 0.0
C1561 C 0.82611 0.14668 0.53081 0.0
C1562 C 0.91361 0.28399 0.4539 0.0
C1563 C 0.90378 0.26609 0.46746 0.0
C1564 C 0.90891 0.20037 0.48206 0.0
C1565 C 0.86262 0.16653 0.51681 0.0
C1566 C 0.87414 0.18531 0.50267 0.0
C1567 C 0.90797 0.24121 0.46342 0.0
C1568 C 0.89645 0.22202 0.47713 0.0
H1569 H 0.8763 0.12977 0.55946 0.0
H1570 H 0.8959 0.15696 0.53371 0.0
H1571 H 0.90795 0.16573 0.49786 0.0
H1572 H 0.94367 0.24694 0.41872 0.0
H1573 H 0.92614 0.21587 0.44194 0.0
C1574 C 0.26024 0.94537 0.43704 0.0
C1575 C 0.23936 0.9308 0.43425 0.0
C1576 C 0.27854 0.93844 0.45151 0.0
C1577 C 0.30621 0.88518 0.47594 0.0
H1578 H 0.32927 0.92887 0.52075 0.0
C1579 C 0.36701 0.85184 0.54592 0.0
C1580 C 0.38288 0.8683 0.55619 0.0
C1581 C 0.35143 0.85968 0.52948 0.0
C1582 C 0.32352 0.91655 0.50806 0.0
H1583 H 0.22131 0.89754 0.44445 0.0
H1584 H 0.25358 0.88521 0.46937 0.0
H1585 H 0.29803 0.9425 0.49556 0.0
H1586 H 0.396 0.90553 0.55629 0.0
H1587 H 0.36976 0.91899 0.52686 0.0
H1588 H 0.33199 0.85941 0.48784 0.0
C1589 C 0.25562 0.90208 0.46047 0.0
C1590 C 0.30544 0.92437 0.49375 0.0
C1591 C 0.23709 0.90925 0.44635 0.0
C1592 C 0.38383 0.89245 0.5488 0.0
C1593 C 0.36855 0.90022 0.53207 0.0
C1594 C 0.32462 0.8775 0.48998 0.0
C1595 C 0.27655 0.91655 0.46312 0.0
C1596 C 0.29638 0.90864 0.47776 0.0
C1597 C 0.3516 0.88411 0.52258 0.0
C1598 C 0.33332 0.89293 0.50648 0.0
H1599 H 0.26251 0.96207 0.42794 0.0
H1600 H 0.29453 0.94988 0.45323 0.0
H1601 H 0.29977 0.87282 0.46353 0.0
H1602 H 0.36566 0.83313 0.55134 0.0
H1603 H 0.33851 0.84671 0.52292 0.0
C1604 C 0.63211 0.36526 0.55787 0.0
C1605 C 0.65689 0.37131 0.55573 0.0
C1606 C 0.62133 0.3482 0.54394 0.0
C1607 C 0.63834 0.29719 0.50787 0.0
H1608 H 0.57333 0.30462 0.48446 0.0
C1609 C 0.57745 0.25587 0.43374 0.0
C1610 C 0.58363 0.23111 0.43535 0.0
C1611 C 0.58401 0.27227 0.45003 0.0
C1612 C 0.59155 0.30232 0.49081 0.0
H1613 H 0.68943 0.36517 0.53665 0.0
H1614 H 0.67065 0.33602 0.51227 0.0
H1615 H 0.58967 0.3355 0.50899 0.0
H1616 H 0.60067 0.20402 0.45583 0.0
H1617 H 0.61173 0.23254 0.48441 0.0
H1618 H 0.64072 0.2646 0.48919 0.0
C1619 C 0.65964 0.34381 0.52502 0.0
C1620 C 0.60081 0.3199 0.50505 0.0
C1621 C 0.67038 0.36069 0.53893 0.0
C1622 C 0.59579 0.22299 0.45398 0.0
C1623 C 0.60225 0.23938 0.47032 0.0
C1624 C 0.62914 0.27971 0.49365 0.0
C1625 C 0.63514 0.33694 0.5276 0.0
C1626 C 0.62447 0.31772 0.51348 0.0
C1627 C 0.59682 0.26431 0.46838 0.0
C1628 C 0.60574 0.28215 0.48473 0.0
H1629 H 0.62126 0.37312 0.5707 0.0
H1630 H 0.60243 0.34326 0.54639 0.0
H1631 H 0.65647 0.29468 0.51437 0.0
H1632 H 0.56811 0.26278 0.41961 0.0
H1633 H 0.57978 0.29134 0.44784 0.0
C1634 C 0.14899 0.66822 0.535 0.0
C1635 C 0.1408 0.65482 0.55292 0.0
C1636 C 0.16415 0.65759 0.51965 0.0
C1637 C 0.18738 0.59883 0.49876 0.0
H1638 H 0.23862 0.64054 0.47634 0.0
C1639 C 0.26673 0.56691 0.44243 0.0
C1640 C 0.27138 0.58214 0.42459 0.0
C1641 C 0.25005 0.57388 0.45838 0.0
C1642 C 0.22432 0.62872 0.48235 0.0
H1643 H 0.14148 0.61951 0.5685 0.0
H1644 H 0.16861 0.60093 0.54177 0.0
H1645 H 0.2112 0.65601 0.50388 0.0
H1646 H 0.26138 0.61618 0.40917 0.0
H1647 H 0.23271 0.62835 0.43705 0.0
H1648 H 0.20107 0.5714 0.47723 0.0
C1649 C 0.16299 0.61962 0.53949 0.0
C1650 C 0.20851 0.63759 0.49809 0.0
C1651 C 0.14752 0.63026 0.55483 0.0
C1652 C 0.25845 0.60408 0.42276 0.0
C1653 C 0.24207 0.61113 0.43877 0.0
C1654 C 0.20343 0.58985 0.48308 0.0
C1655 C 0.17184 0.63335 0.52192 0.0
C1656 C 0.18951 0.62297 0.5062 0.0
C1657 C 0.23795 0.5963 0.45689 0.0
C1658 C 0.22176 0.6049 0.47446 0.0
H1659 H 0.14383 0.68708 0.53287 0.0
H1660 H 0.16998 0.66852 0.50602 0.0
H1661 H 0.17291 0.58711 0.50458 0.0
H1662 H 0.27629 0.54984 0.44429 0.0
H1663 H 0.24722 0.56213 0.47222 0.0
C1664 C 0.58653 0.12728 0.3253 0.0
C1665 C 0.58082 0.15218 0.32657 0.0
C1666 C 0.5938 0.11698 0.30565 0.0
C1667 C 0.62632 0.1318 0.25704 0.0
H1668 H 0.59515 0.07587 0.2303 0.0
C1669 C 0.6693 0.07776 0.18679 0.0
C1670 C 0.65495 0.07704 0.16798 0.0
C1671 C 0.65934 0.0855 0.2064 0.0
C1672 C 0.60399 0.09146 0.23767 0.0
H1673 H 0.57805 0.18571 0.30824 0.0
H1674 H 0.59148 0.1678 0.27411 0.0
H1675 H 0.57883 0.09246 0.26426 0.0
H1676 H 0.61869 0.08291 0.15514 0.0
H1677 H 0.60111 0.09571 0.18972 0.0
H1678 H 0.65179 0.13053 0.23083 0.0
C1679 C 0.58997 0.15628 0.28826 0.0
C1680 C 0.59475 0.10086 0.25703 0.0
C1681 C 0.58219 0.16646 0.30776 0.0
C1682 C 0.6302 0.08333 0.16936 0.0
C1683 C 0.62012 0.09056 0.18911 0.0
C1684 C 0.63587 0.12208 0.238 0.0
C1685 C 0.59602 0.13151 0.28708 0.0
C1686 C 0.60575 0.12122 0.26676 0.0
C1687 C 0.63474 0.09214 0.20768 0.0
C1688 C 0.62473 0.10192 0.22809 0.0
H1689 H 0.5856 0.11583 0.33953 0.0
H1690 H 0.59847 0.09785 0.30511 0.0
H1691 H 0.63517 0.14743 0.26434 0.0
H1692 H 0.68845 0.07316 0.18622 0.0
H1693 H 0.67093 0.08652 0.22055 0.0
C1694 C 0.35353 0.56698 0.30947 0.0
C1695 C 0.36011 0.57913 0.32864 0.0
C1696 C 0.3634 0.57421 0.28952 0.0
C1697 C 0.39247 0.62753 0.26318 0.0
H1698 H 0.41371 0.58116 0.21995 0.0
C1699 C 0.44701 0.6587 0.18877 0.0
C1700 C 0.44066 0.64863 0.16865 0.0
C1701 C 0.43776 0.64886 0.20796 0.0
C1702 C 0.40765 0.59435 0.23177 0.0
H1703 H 0.38266 0.60815 0.34178 0.0
H1704 H 0.39985 0.62041 0.30737 0.0
H1705 H 0.39586 0.56651 0.25379 0.0
H1706 H 0.42011 0.61974 0.15304 0.0
H1707 H 0.40389 0.60267 0.18652 0.0
H1708 H 0.40411 0.65536 0.24132 0.0
C1709 C 0.38681 0.60558 0.30758 0.0
C1710 C 0.39739 0.58594 0.25116 0.0
C1711 C 0.37703 0.59838 0.3274 0.0
C1712 C 0.42546 0.62795 0.16825 0.0
C1713 C 0.41619 0.61809 0.18747 0.0
C1714 C 0.40269 0.6359 0.24387 0.0
C1715 C 0.37996 0.59381 0.28833 0.0
C1716 C 0.3899 0.60245 0.26721 0.0
C1717 C 0.42187 0.6287 0.20756 0.0
C1718 C 0.41065 0.61946 0.22797 0.0
H1719 H 0.34053 0.55211 0.30982 0.0
H1720 H 0.35763 0.56483 0.27499 0.0
H1721 H 0.38641 0.6408 0.27494 0.0
H1722 H 0.45876 0.67454 0.18974 0.0
H1723 H 0.44294 0.65721 0.22314 0.0
C1724 C 0.93805 0.34415 0.31343 0.0
C1725 C 0.93807 0.35857 0.3322 0.0
C1726 C 0.93001 0.35369 0.29373 0.0
C1727 C 0.92205 0.40877 0.26226 0.0
H1728 H 0.86727 0.37574 0.23539 0.0
C1729 C 0.88419 0.42702 0.17512 0.0
C1730 C 0.85924 0.43264 0.17463 0.0
C1731 C 0.89518 0.41907 0.1943 0.0
C1732 C 0.88262 0.38507 0.2427 0.0
H1733 H 0.93054 0.39457 0.34487 0.0
H1734 H 0.91726 0.41147 0.31015 0.0
H1735 H 0.88488 0.35945 0.26878 0.0
H1736 H 0.82626 0.43431 0.19386 0.0
H1737 H 0.84532 0.41969 0.2271 0.0
H1738 H 0.92001 0.43414 0.23587 0.0
C1739 C 0.92319 0.39271 0.31085 0.0
C1740 C 0.89272 0.37572 0.2617 0.0
C1741 C 0.9307 0.383 0.33069 0.0
C1742 C 0.84555 0.43028 0.19373 0.0
C1743 C 0.85639 0.42181 0.21272 0.0
C1744 C 0.91229 0.41781 0.24294 0.0
C1745 C 0.92237 0.378 0.29229 0.0
C1746 C 0.91239 0.38759 0.27174 0.0
C1747 C 0.88126 0.41605 0.21316 0.0
C1748 C 0.89233 0.40615 0.23314 0.0
H1749 H 0.94347 0.32522 0.31409 0.0
H1750 H 0.92958 0.34203 0.27961 0.0
H1751 H 0.93724 0.4182 0.26972 0.0
H1752 H 0.89521 0.42869 0.16067 0.0
H1753 H 0.91438 0.41466 0.19428 0.0
C1754 C 0.16328 0.94079 0.31022 0.0
C1755 C 0.15355 0.9338 0.33032 0.0
C1756 C 0.15288 0.9324 0.29092 0.0
C1757 C 0.11469 0.88225 0.26939 0.0
H1758 H 0.11146 0.92312 0.21841 0.0
C1759 C 0.07245 0.84825 0.18866 0.0
C1760 C 0.0854 0.85419 0.16977 0.0
C1761 C 0.07865 0.85897 0.20852 0.0
C1762 C 0.11238 0.91139 0.23245 0.0
H1763 H 0.12475 0.91298 0.34576 0.0
H1764 H 0.1065 0.89865 0.31216 0.0
H1765 H 0.12608 0.94021 0.25242 0.0
H1766 H 0.11491 0.87634 0.15701 0.0
H1767 H 0.1257 0.89475 0.1914 0.0
H1768 H 0.10127 0.85335 0.24935 0.0
C1769 C 0.12241 0.91031 0.31131 0.0
C1770 C 0.12079 0.92121 0.25197 0.0
C1771 C 0.13279 0.91871 0.3306 0.0
C1772 C 0.10443 0.87134 0.17117 0.0
C1773 C 0.11056 0.88206 0.19093 0.0
C1774 C 0.10627 0.87243 0.24986 0.0
C1775 C 0.13248 0.91679 0.2912 0.0
C1776 C 0.1223 0.90671 0.27066 0.0
C1777 C 0.09787 0.87595 0.20991 0.0
C1778 C 0.10527 0.8868 0.23106 0.0
H1779 H 0.1793 0.9523 0.30936 0.0
H1780 H 0.16131 0.93757 0.27577 0.0
H1781 H 0.11591 0.87043 0.28335 0.0
H1782 H 0.05769 0.83513 0.18819 0.0
H1783 H 0.06833 0.854 0.22278 0.0
C1784 C 0.42719 0.88445 0.66986 0.0
C1785 C 0.43535 0.86029 0.66906 0.0
C1786 C 0.42101 0.89524 0.68957 0.0
C1787 C 0.42303 0.88592 0.74989 0.0
H1788 H 0.37075 0.933 0.74811 0.0
C1789 C 0.38842 0.93243 0.82815 0.0
C1790 C 0.36358 0.93821 0.82947 0.0
C1791 C 0.39863 0.92464 0.80858 0.0
C1792 C 0.38514 0.91965 0.74909 0.0
H1793 H 0.44375 0.82851 0.68827 0.0
H1794 H 0.43176 0.84672 0.72259 0.0
H1795 H 0.38538 0.91539 0.71485 0.0
H1796 H 0.32989 0.94016 0.81135 0.0
H1797 H 0.34717 0.92557 0.77769 0.0
H1798 H 0.42148 0.88889 0.7843 0.0
C1799 C 0.43091 0.85784 0.70817 0.0
C1800 C 0.39399 0.90983 0.72978 0.0
C1801 C 0.43773 0.84726 0.68845 0.0
C1802 C 0.34919 0.93619 0.8108 0.0
C1803 C 0.35923 0.92789 0.79137 0.0
C1804 C 0.41379 0.89536 0.76926 0.0
C1805 C 0.42208 0.88192 0.70902 0.0
C1806 C 0.41311 0.89279 0.72981 0.0
C1807 C 0.38412 0.92189 0.78992 0.0
C1808 C 0.39462 0.91234 0.7692 0.0
H1809 H 0.42542 0.89502 0.65516 0.0
H1810 H 0.41514 0.91402 0.68942 0.0
H1811 H 0.43799 0.8732 0.75077 0.0
H1812 H 0.40001 0.93389 0.84227 0.0
H1813 H 0.41793 0.92079 0.80817 0.0
C1814 C 0.56007 0.35761 0.81113 0.0
C1815 C 0.57009 0.36521 0.83095 0.0
C1816 C 0.56773 0.36811 0.79168 0.0
C1817 C 0.60083 0.42121 0.76834 0.0
H1818 H 0.61173 0.37713 0.72038 0.0
C1819 C 0.65654 0.44794 0.69233 0.0
C1820 C 0.64882 0.43896 0.67215 0.0
C1821 C 0.64503 0.44049 0.71141 0.0
C1822 C 0.60845 0.38979 0.73347 0.0
H1823 H 0.59566 0.39034 0.8458 0.0
H1824 H 0.60919 0.40847 0.81187 0.0
H1825 H 0.5952 0.36148 0.75412 0.0
H1826 H 0.6224 0.41557 0.65626 0.0
H1827 H 0.60222 0.40276 0.6895 0.0
H1828 H 0.61449 0.44945 0.74768 0.0
C1829 C 0.59518 0.39457 0.81137 0.0
C1830 C 0.59895 0.3808 0.75287 0.0
C1831 C 0.58746 0.38409 0.83086 0.0
C1832 C 0.62888 0.42283 0.67149 0.0
C1833 C 0.61741 0.41534 0.69059 0.0
C1834 C 0.61039 0.4302 0.74891 0.0
C1835 C 0.58568 0.38645 0.79149 0.0
C1836 C 0.59509 0.39635 0.77061 0.0
C1837 C 0.62554 0.42382 0.71082 0.0
C1838 C 0.61443 0.41457 0.73125 0.0
H1839 H 0.54655 0.34322 0.81055 0.0
H1840 H 0.55967 0.36171 0.77673 0.0
H1841 H 0.59779 0.43378 0.78153 0.0
H1842 H 0.67185 0.46035 0.69349 0.0
H1843 H 0.65195 0.44721 0.72669 0.0
C1844 C 0.14847 0.56315 0.81723 0.0
C1845 C 0.1536 0.58117 0.83271 0.0
C1846 C 0.13758 0.56937 0.79744 0.0
C1847 C 0.10442 0.62083 0.77043 0.0
H1848 H 0.11999 0.58552 0.71809 0.0
C1849 C 0.06102 0.64868 0.68924 0.0
C1850 C 0.07534 0.6468 0.67053 0.0
C1851 C 0.0686 0.638 0.70866 0.0
C1852 C 0.11559 0.59582 0.73247 0.0
H1853 H 0.15229 0.61992 0.83921 0.0
H1854 H 0.1346 0.63085 0.80473 0.0
H1855 H 0.13788 0.57293 0.75221 0.0
H1856 H 0.10878 0.63207 0.65747 0.0
H1857 H 0.1226 0.61452 0.69135 0.0
H1858 H 0.08351 0.6447 0.75068 0.0
C1859 C 0.13778 0.61177 0.80798 0.0
C1860 C 0.12559 0.58829 0.75222 0.0
C1861 C 0.14816 0.60551 0.8278 0.0
C1862 C 0.09719 0.63362 0.67156 0.0
C1863 C 0.10505 0.62341 0.69108 0.0
C1864 C 0.09482 0.62862 0.75068 0.0
C1865 C 0.13199 0.59382 0.79253 0.0
C1866 C 0.12038 0.60085 0.7715 0.0
C1867 C 0.09104 0.62568 0.71005 0.0
C1868 C 0.10035 0.61638 0.73131 0.0
H1869 H 0.15242 0.54422 0.82057 0.0
H1870 H 0.13323 0.55493 0.78616 0.0
H1871 H 0.09936 0.63071 0.78487 0.0
H1872 H 0.04399 0.65855 0.68892 0.0
H1873 H 0.05687 0.63966 0.72263 0.0
C1874 C 0.93387 0.16706 0.80821 0.0
C1875 C 0.93264 0.15382 0.82754 0.0
C1876 C 0.9267 0.15633 0.78868 0.0
C1877 C 0.89132 0.10269 0.7677 0.0
H1878 H 0.9154 0.12666 0.71288 0.0
C1879 C 0.84454 0.07661 0.68722 0.0
C1880 C 0.85812 0.07726 0.66806 0.0
C1881 C 0.85501 0.08411 0.70677 0.0
C1882 C 0.90872 0.11926 0.72797 0.0
H1883 H 0.92441 0.11871 0.84165 0.0
H1884 H 0.91374 0.09935 0.80758 0.0
H1885 H 0.93272 0.14211 0.74604 0.0
H1886 H 0.89356 0.08486 0.6543 0.0
H1887 H 0.91243 0.09614 0.68844 0.0
H1888 H 0.86847 0.07867 0.74964 0.0
C1889 C 0.91888 0.11838 0.80735 0.0
C1890 C 0.91838 0.12861 0.74718 0.0
C1891 C 0.92531 0.12936 0.82692 0.0
C1892 C 0.88264 0.08441 0.66889 0.0
C1893 C 0.89335 0.09118 0.68849 0.0
C1894 C 0.88215 0.09284 0.7485 0.0
C1895 C 0.91879 0.13186 0.78797 0.0
C1896 C 0.90959 0.12077 0.76739 0.0
C1897 C 0.87955 0.09179 0.70769 0.0
C1898 C 0.89041 0.10121 0.72829 0.0
H1899 H 0.93921 0.18607 0.80835 0.0
H1900 H 0.92656 0.16761 0.77435 0.0
H1901 H 0.8836 0.09633 0.78277 0.0
H1902 H 0.82549 0.07142 0.68693 0.0
H1903 H 0.84349 0.08466 0.72094 0.0
C1904 C 0.81138 0.33401 0.1409 0.0
C1905 C 0.79874 0.35299 0.13076 0.0
C1906 C 0.80064 0.31103 0.14336 0.0
C1907 C 0.78185 0.26022 0.13504 0.0
H1908 H 0.71194 0.25141 0.13683 0.0
C1909 C 0.73725 0.16552 0.12137 0.0
C1910 C 0.71405 0.16091 0.12994 0.0
C1911 C 0.74807 0.18856 0.12361 0.0
C1912 C 0.73156 0.25332 0.13676 0.0
H1913 H 0.76487 0.36299 0.11538 0.0
H1914 H 0.74643 0.3227 0.11858 0.0
H1915 H 0.72886 0.29207 0.13809 0.0
H1916 H 0.68453 0.17618 0.14862 0.0
H1917 H 0.70393 0.21564 0.15394 0.0
H1918 H 0.78461 0.22144 0.13494 0.0
C1919 C 0.76433 0.32553 0.12546 0.0
C1920 C 0.74133 0.27692 0.13703 0.0
C1921 C 0.77489 0.34874 0.12353 0.0
C1922 C 0.70244 0.17929 0.14179 0.0
C1923 C 0.71349 0.2021 0.14453 0.0
C1924 C 0.7721 0.23661 0.13527 0.0
C1925 C 0.77718 0.30614 0.13514 0.0
C1926 C 0.76665 0.28083 0.13592 0.0
C1927 C 0.73617 0.20743 0.13492 0.0
C1928 C 0.74675 0.2327 0.13588 0.0
H1929 H 0.82979 0.33684 0.14671 0.0
H1930 H 0.81099 0.29706 0.15153 0.0
H1931 H 0.80141 0.26214 0.13375 0.0
H1932 H 0.74645 0.15177 0.11188 0.0
H1933 H 0.76532 0.19175 0.11564 0.0
C1934 C 0.34502 0.69725 0.14206 0.0
C1935 C 0.36495 0.71012 0.13361 0.0
C1936 C 0.32357 0.70935 0.14748 0.0
C1937 C 0.29544 0.77107 0.15384 0.0
H1938 H 0.23684 0.73559 0.13821 0.0
C1939 C 0.20175 0.81495 0.13501 0.0
C1940 C 0.18075 0.80255 0.14196 0.0
C1941 C 0.22485 0.80508 0.13861 0.0
C1942 C 0.25298 0.74564 0.14301 0.0
H1943 H 0.37858 0.74579 0.12489 0.0
H1944 H 0.34072 0.76698 0.13346 0.0
H1945 H 0.27602 0.7157 0.13554 0.0
H1946 H 0.16741 0.77086 0.15917 0.0
H1947 H 0.20777 0.7535 0.16534 0.0
H1948 H 0.27201 0.80147 0.16018 0.0
C1949 C 0.34175 0.7476 0.1365 0.0
C1950 C 0.27556 0.7342 0.14155 0.0
C1951 C 0.36345 0.73549 0.13149 0.0
C1952 C 0.1833 0.7808 0.15363 0.0
C1953 C 0.20637 0.7708 0.15704 0.0
C1954 C 0.27277 0.78265 0.15502 0.0
C1955 C 0.32127 0.73457 0.14406 0.0
C1956 C 0.29717 0.74673 0.14685 0.0
C1957 C 0.22734 0.7825 0.14903 0.0
C1958 C 0.25131 0.77005 0.14952 0.0
H1959 H 0.34583 0.67767 0.14406 0.0
H1960 H 0.30857 0.69874 0.15389 0.0
H1961 H 0.31158 0.78125 0.15834 0.0
H1962 H 0.20028 0.83176 0.12595 0.0
H1963 H 0.24063 0.81445 0.13214 0.0
C1964 C 0.29276 0.67931 0.35089 0.0
C1965 C 0.31515 0.67503 0.36112 0.0
C1966 C 0.28454 0.70312 0.34764 0.0
C1967 C 0.29318 0.7653 0.36989 0.0
H1968 H 0.24976 0.78301 0.32309 0.0
C1969 C 0.24837 0.86026 0.36578 0.0
C1970 C 0.22295 0.85922 0.36348 0.0
C1971 C 0.26255 0.83957 0.36173 0.0
C1972 C 0.26193 0.77834 0.33623 0.0
H1973 H 0.34715 0.69218 0.37487 0.0
H1974 H 0.3333 0.73374 0.36854 0.0
H1975 H 0.2697 0.74336 0.32269 0.0
H1976 H 0.19253 0.83635 0.35406 0.0
H1977 H 0.2172 0.8005 0.34665 0.0
H1978 H 0.28517 0.8002 0.38351 0.0
C1979 C 0.32167 0.7188 0.36358 0.0
C1980 C 0.27328 0.75556 0.33608 0.0
C1981 C 0.32974 0.69498 0.36703 0.0
C1982 C 0.21211 0.83765 0.35593 0.0
C1983 C 0.22626 0.81714 0.3516 0.0
C1984 C 0.28203 0.78815 0.36992 0.0
C1985 C 0.29865 0.72323 0.35436 0.0
C1986 C 0.28865 0.74848 0.35316 0.0
C1987 C 0.25156 0.81763 0.35501 0.0
C1988 C 0.26586 0.79474 0.35334 0.0
H1989 H 0.28106 0.66425 0.34628 0.0
H1990 H 0.26661 0.70567 0.34075 0.0
H1991 H 0.30453 0.76048 0.38354 0.0
H1992 H 0.25715 0.87665 0.37169 0.0
H1993 H 0.28203 0.84055 0.36435 0.0
C1994 C 0.83587 0.31 0.35892 0.0
C1995 C 0.85448 0.29853 0.37062 0.0
C1996 C 0.81318 0.29869 0.35619 0.0
C1997 C 0.76219 0.27976 0.36377 0.0
H1998 H 0.75443 0.20978 0.36627 0.0
C1999 C 0.66735 0.2348 0.37653 0.0
C2000 C 0.6635 0.21092 0.36922 0.0
C2001 C 0.69039 0.24577 0.37465 0.0
C2002 C 0.75605 0.22936 0.36512 0.0
H2003 H 0.8641 0.2661 0.38844 0.0
H2004 H 0.82433 0.24676 0.38468 0.0
H2005 H 0.79488 0.22721 0.3653 0.0
H2006 H 0.68019 0.18026 0.35315 0.0
H2007 H 0.71967 0.19975 0.34844 0.0
H2008 H 0.72338 0.28186 0.36238 0.0
C2009 C 0.82726 0.26411 0.37682 0.0
C2010 C 0.77952 0.23948 0.36502 0.0
C2011 C 0.85018 0.27521 0.37906 0.0
C2012 C 0.68271 0.19868 0.35902 0.0
C2013 C 0.70552 0.20982 0.35662 0.0
C2014 C 0.73873 0.26962 0.36338 0.0
C2015 C 0.80818 0.27585 0.36564 0.0
C2016 C 0.78305 0.26488 0.36459 0.0
C2017 C 0.71002 0.2333 0.36496 0.0
C2018 C 0.73519 0.24423 0.3643 0.0
H2019 H 0.83873 0.32799 0.35219 0.0
H2020 H 0.79948 0.30815 0.34688 0.0
H2021 H 0.76379 0.29939 0.36383 0.0
H2022 H 0.65293 0.24453 0.38473 0.0
H2023 H 0.69291 0.26367 0.38161 0.0
C2024 C 0.27473 0.85867 0.86653 0.0
C2025 C 0.2994 0.86087 0.86097 0.0
C2026 C 0.26219 0.8368 0.86274 0.0
C2027 C 0.27599 0.77124 0.85558 0.0
H2028 H 0.2063 0.76552 0.84691 0.0
C2029 C 0.22912 0.67755 0.85103 0.0
C2030 C 0.20906 0.67483 0.86488 0.0
C2031 C 0.23854 0.70071 0.84656 0.0
C2032 C 0.2258 0.76687 0.84932 0.0
H2033 H 0.32982 0.84297 0.84553 0.0
H2034 H 0.30778 0.80541 0.83787 0.0
H2035 H 0.2257 0.80565 0.84551 0.0
H2036 H 0.18235 0.6941 0.88407 0.0
H2037 H 0.19869 0.73456 0.87616 0.0
H2038 H 0.27609 0.73257 0.85952 0.0
C2039 C 0.29823 0.82 0.84598 0.0
C2040 C 0.23692 0.78987 0.8486 0.0
C2041 C 0.31082 0.84162 0.85013 0.0
C2042 C 0.19786 0.6957 0.87334 0.0
C2043 C 0.20714 0.71887 0.86872 0.0
C2044 C 0.26494 0.74832 0.85606 0.0
C2045 C 0.27405 0.81688 0.85303 0.0
C2046 C 0.26216 0.79239 0.85198 0.0
C2047 C 0.22795 0.7216 0.85571 0.0
C2048 C 0.23969 0.74587 0.85321 0.0
H2049 H 0.26558 0.87323 0.87506 0.0
H2050 H 0.24367 0.83512 0.86854 0.0
H2051 H 0.29534 0.77235 0.85882 0.0
H2052 H 0.23807 0.66175 0.84427 0.0
H2053 H 0.25445 0.70227 0.8363 0.0
C2054 C 0.83111 0.2286 0.85154 0.0
C2055 C 0.83463 0.20697 0.8632 0.0
C2056 C 0.80775 0.23842 0.84928 0.0
C2057 C 0.74177 0.22512 0.85353 0.0
H2058 H 0.73721 0.29322 0.86927 0.0
C2059 C 0.64961 0.27273 0.87256 0.0
C2060 C 0.6478 0.29779 0.8685 0.0
C2061 C 0.6717 0.26055 0.8691 0.0
C2062 C 0.73804 0.27433 0.86435 0.0
H2063 H 0.81644 0.17804 0.88076 0.0
H2064 H 0.77558 0.19499 0.87654 0.0
H2065 H 0.77683 0.27393 0.86757 0.0
H2066 H 0.66693 0.32945 0.85633 0.0
H2067 H 0.70485 0.30819 0.84923 0.0
H2068 H 0.70292 0.22555 0.85019 0.0
C2069 C 0.79084 0.20439 0.86918 0.0
C2070 C 0.76086 0.26324 0.86346 0.0
C2071 C 0.81424 0.19472 0.87164 0.0
C2072 C 0.66791 0.31014 0.85977 0.0
C2073 C 0.68976 0.29795 0.85594 0.0
C2074 C 0.71885 0.23632 0.85415 0.0
C2075 C 0.7874 0.22667 0.85844 0.0
C2076 C 0.76303 0.23849 0.85816 0.0
C2077 C 0.69229 0.27316 0.86122 0.0
C2078 C 0.71664 0.2611 0.85967 0.0
H2079 H 0.8465 0.23845 0.84489 0.0
H2080 H 0.80565 0.25548 0.84072 0.0
H2081 H 0.74287 0.20603 0.84928 0.0
H2082 H 0.6344 0.26283 0.87947 0.0
H2083 H 0.67287 0.24153 0.87353 0.0
C2084 C 0.7065 0.3416 0.64383 0.0
C2085 C 0.71866 0.36172 0.63492 0.0
C2086 C 0.71868 0.31963 0.64711 0.0
C2087 C 0.78011 0.28994 0.6464 0.0
H2088 H 0.74136 0.23264 0.63328 0.0
C2089 C 0.81993 0.19473 0.62537 0.0
C2090 C 0.8079 0.17421 0.63383 0.0
C2091 C 0.81061 0.21813 0.62873 0.0
C2092 C 0.75238 0.2484 0.6373 0.0
H2093 H 0.7533 0.37503 0.62307 0.0
H2094 H 0.77455 0.33635 0.62803 0.0
H2095 H 0.72238 0.27243 0.63301 0.0
H2096 H 0.77724 0.1621 0.65308 0.0
H2097 H 0.76082 0.20295 0.6588 0.0
H2098 H 0.81038 0.26555 0.6497 0.0
C2099 C 0.75572 0.3376 0.63305 0.0
C2100 C 0.74147 0.27133 0.63724 0.0
C2101 C 0.74357 0.35981 0.63016 0.0
C2102 C 0.7869 0.17759 0.64639 0.0
C2103 C 0.77743 0.20095 0.64955 0.0
C2104 C 0.79111 0.26692 0.64619 0.0
C2105 C 0.74324 0.31699 0.64105 0.0
C2106 C 0.75511 0.2925 0.64181 0.0
C2107 C 0.78891 0.22145 0.64039 0.0
C2108 C 0.77734 0.24589 0.64164 0.0
H2109 H 0.68732 0.34265 0.64779 0.0
H2110 H 0.70858 0.30453 0.65395 0.0
H2111 H 0.7912 0.30568 0.65025 0.0
H2112 H 0.83614 0.19264 0.61558 0.0
H2113 H 0.81979 0.2335 0.62134 0.0
C2114 C 0.15196 0.74275 0.63078 0.0
C2115 C 0.1507 0.71764 0.63483 0.0
C2116 C 0.17362 0.75565 0.6347 0.0
C2117 C 0.23999 0.74373 0.64039 0.0
H2118 H 0.24337 0.8124 0.65455 0.0
C2119 C 0.33206 0.79156 0.652 0.0
C2120 C 0.33531 0.81253 0.63934 0.0
C2121 C 0.30879 0.78172 0.65507 0.0
C2122 C 0.24266 0.79321 0.65061 0.0
H2123 H 0.17021 0.68664 0.64756 0.0
H2124 H 0.20735 0.70917 0.65553 0.0
H2125 H 0.2038 0.79174 0.65375 0.0
H2126 H 0.31674 0.8405 0.62105 0.0
H2127 H 0.27597 0.82345 0.62664 0.0
H2128 H 0.27874 0.74515 0.63732 0.0
C2129 C 0.1922 0.71889 0.64844 0.0
C2130 C 0.21999 0.78136 0.65003 0.0
C2131 C 0.17081 0.70597 0.64411 0.0
C2132 C 0.31473 0.82433 0.63092 0.0
C2133 C 0.2914 0.8146 0.63416 0.0
C2134 C 0.26255 0.75546 0.64125 0.0
C2135 C 0.19428 0.74372 0.64306 0.0
C2136 C 0.21833 0.75644 0.64479 0.0
C2137 C 0.28828 0.79276 0.64569 0.0
C2138 C 0.26418 0.78034 0.64623 0.0
H2139 H 0.13671 0.75211 0.62347 0.0
H2140 H 0.17446 0.77467 0.6302 0.0
H2141 H 0.23958 0.72476 0.63567 0.0
H2142 H 0.34759 0.78209 0.6587 0.0
H2143 H 0.3069 0.76503 0.66425 0.0
loop_
_geom_bond_atom_site_label_1
_geom_bond_atom_site_label_2
_geom_bond_distance
_geom_bond_site_symmetry_2
_ccdc_geom_bond_type
O0 Tb1 2.292 . S
O0 C3 1.255 . S
Tb1 O0 2.292 . S
Tb1 O17 2.326 . S
Tb1 O19 2.500 . S
Tb1 O20 2.473 . S
Tb1 O23 2.324 . S
Eu2 O6 2.292 . S
Eu2 C7 2.852 . S
Eu2 O18 2.324 . S
Eu2 O22 2.326 . S
Eu2 O24 2.500 . S
Eu2 O25 2.473 . S
C3 O0 1.255 . S
C3 O4 1.247 . S
O4 C3 1.247 . S
C5 O17 1.242 . S
C5 O18 1.258 . S
O6 Eu2 2.292 . S
O6 C8 1.255 . S
C7 Eu2 2.852 . S
C7 C11 1.503 . S
C7 O24 1.273 . S
C7 O25 1.257 . S
C8 O6 1.255 . S
C8 O9 1.247 . S
O9 C8 1.247 . S
C10 O22 1.242 . S
C10 O23 1.258 . S
C11 C7 1.503 . S
C11 C12 1.379 . S
C11 C16 1.392 1_545 S
C12 C11 1.379 . S
C12 C13 1.404 . S
C12 H26 0.929 . S
C13 C12 1.404 . S
C13 C14 1.389 1_545 S
C14 C13 1.389 1_565 S
C14 C15 1.399 . S
C14 H27 0.931 . S
C15 C14 1.399 . S
C15 C16 1.390 . S
C16 C11 1.392 1_565 S
C16 C15 1.390 . S
C16 H28 0.929 . S
O17 Tb1 2.326 . S
O17 C5 1.242 . S
O18 Eu2 2.324 . S
O18 C5 1.258 . S
O19 Tb1 2.500 . S
O19 C21 1.273 . S
O20 Tb1 2.473 . S
O20 C21 1.257 . S
C21 O19 1.273 . S
C21 O20 1.257 . S
O22 Eu2 2.326 . S
O22 C10 1.242 . S
O23 Tb1 2.324 . S
O23 C10 1.258 . S
O24 Eu2 2.500 . S
O24 C7 1.273 . S
O25 Eu2 2.473 . S
O25 C7 1.257 . S
H26 C12 0.929 . S
H27 C14 0.931 . S
H28 C16 0.929 . S
O29 Tb30 2.292 . S
O29 C32 1.255 . S
Tb30 O29 2.292 . S
Tb30 O46 2.326 . S
Tb30 O48 2.500 . S
Tb30 O49 2.473 . S
Tb30 O52 2.324 . S
Eu31 O35 2.292 . S
Eu31 C36 2.852 . S
Eu31 O47 2.324 . S
Eu31 O51 2.326 . S
Eu31 O53 2.500 . S
Eu31 O54 2.473 . S
C32 O29 1.255 . S
C32 O33 1.247 . S
O33 C32 1.247 . S
C34 O46 1.242 . S
C34 O47 1.258 . S
O35 Eu31 2.292 . S
O35 C37 1.255 . S
C36 Eu31 2.852 . S
C36 C40 1.503 . S
C36 O53 1.273 . S
C36 O54 1.257 . S
C37 O35 1.255 . S
C37 O38 1.247 . S
O38 C37 1.247 . S
C39 O51 1.242 . S
C39 O52 1.258 . S
C40 C36 1.503 . S
C40 C41 1.379 . S
C40 C45 1.392 . S
C41 C40 1.379 . S
C41 C42 1.404 . S
C41 H55 0.929 . S
C42 C41 1.404 . S
C42 C43 1.389 . S
C43 C42 1.389 . S
C43 C44 1.399 . S
C43 H56 0.931 . S
C44 C43 1.399 . S
C44 C45 1.390 . S
C45 C40 1.392 . S
C45 C44 1.390 . S
C45 H57 0.929 . S
O46 Tb30 2.326 . S
O46 C34 1.242 . S
O47 Eu31 2.324 . S
O47 C34 1.258 . S
O48 Tb30 2.500 . S
O48 C50 1.273 . S
O49 Tb30 2.473 . S
O49 C50 1.257 . S
C50 O48 1.273 . S
C50 O49 1.257 . S
O51 Eu31 2.326 . S
O51 C39 1.242 . S
O52 Tb30 2.324 . S
O52 C39 1.258 . S
O53 Eu31 2.500 . S
O53 C36 1.273 . S
O54 Eu31 2.473 . S
O54 C36 1.257 . S
H55 C41 0.929 . S
H56 C43 0.931 . S
H57 C45 0.929 . S
O58 Tb59 2.292 . S
O58 C61 1.255 . S
Tb59 O58 2.292 . S
Tb59 O75 2.326 . S
Tb59 O77 2.500 . S
Tb59 O78 2.473 . S
Tb59 O81 2.324 . S
Eu60 O64 2.292 . S
Eu60 C65 2.852 . S
Eu60 O76 2.324 . S
Eu60 O80 2.326 . S
Eu60 O82 2.500 . S
Eu60 O83 2.473 . S
C61 O58 1.255 . S
C61 O62 1.247 . S
O62 C61 1.247 . S
C63 O75 1.242 . S
C63 O76 1.258 . S
O64 Eu60 2.292 . S
O64 C66 1.255 . S
C65 Eu60 2.852 . S
C65 C69 1.503 . S
C65 O82 1.273 . S
C65 O83 1.257 . S
C66 O64 1.255 . S
C66 O67 1.247 . S
O67 C66 1.247 . S
C68 O80 1.242 . S
C68 O81 1.258 . S
C69 C65 1.503 . S
C69 C70 1.379 . S
C69 C74 1.392 . S
C70 C69 1.379 . S
C70 C71 1.404 . S
C70 H84 0.929 . S
C71 C70 1.404 . S
C71 C72 1.389 . S
C72 C71 1.389 . S
C72 C73 1.399 . S
C72 H85 0.931 . S
C73 C72 1.399 . S
C73 C74 1.390 . S
C74 C69 1.392 . S
C74 C73 1.390 . S
C74 H86 0.929 . S
O75 Tb59 2.326 . S
O75 C63 1.242 . S
O76 Eu60 2.324 . S
O76 C63 1.258 . S
O77 Tb59 2.500 . S
O77 C79 1.273 . S
O78 Tb59 2.473 . S
O78 C79 1.257 . S
C79 O77 1.273 . S
C79 O78 1.257 . S
O80 Eu60 2.326 . S
O80 C68 1.242 . S
O81 Tb59 2.324 . S
O81 C68 1.258 . S
O82 Eu60 2.500 . S
O82 C65 1.273 . S
O83 Eu60 2.473 . S
O83 C65 1.257 . S
H84 C70 0.929 . S
H85 C72 0.931 . S
H86 C74 0.929 . S
O87 Tb88 2.292 . S
O87 C90 1.255 . S
Tb88 O87 2.292 . S
Tb88 O104 2.326 . S
Tb88 O106 2.500 . S
Tb88 O107 2.473 . S
Tb88 O110 2.324 . S
Eu89 O93 2.292 . S
Eu89 C94 2.852 . S
Eu89 O105 2.324 . S
Eu89 O109 2.326 . S
Eu89 O111 2.500 . S
Eu89 O112 2.473 . S
C90 O87 1.255 . S
C90 O91 1.247 . S
O91 C90 1.247 . S
C92 O104 1.242 . S
C92 O105 1.258 . S
O93 Eu89 2.292 . S
O93 C95 1.255 . S
C94 Eu89 2.852 . S
C94 C98 1.503 . S
C94 O111 1.273 . S
C94 O112 1.257 . S
C95 O93 1.255 . S
C95 O96 1.247 . S
O96 C95 1.247 . S
C97 O109 1.242 . S
C97 O110 1.258 . S
C98 C94 1.503 . S
C98 C99 1.379 . S
C98 C103 1.392 1_455 S
C99 C98 1.379 . S
C99 C100 1.404 . S
C99 H113 0.929 . S
C100 C99 1.404 . S
C100 C101 1.389 1_455 S
C101 C100 1.389 1_655 S
C101 C102 1.399 . S
C101 H114 0.931 . S
C102 C101 1.399 . S
C102 C103 1.390 . S
C103 C98 1.392 1_655 S
C103 C102 1.390 . S
C103 H115 0.929 . S
O104 Tb88 2.326 . S
O104 C92 1.242 . S
O105 Eu89 2.324 . S
O105 C92 1.258 . S
O106 Tb88 2.500 . S
O106 C108 1.273 . S
O107 Tb88 2.473 . S
O107 C108 1.257 . S
C108 O106 1.273 . S
C108 O107 1.257 . S
O109 Eu89 2.326 . S
O109 C97 1.242 . S
O110 Tb88 2.324 . S
O110 C97 1.258 . S
O111 Eu89 2.500 . S
O111 C94 1.273 . S
O112 Eu89 2.473 . S
O112 C94 1.257 . S
H113 C99 0.929 . S
H114 C101 0.931 . S
H115 C103 0.929 . S
O116 Tb117 2.292 . S
O116 C119 1.255 . S
Tb117 O116 2.292 . S
Tb117 O133 2.326 . S
Tb117 O135 2.500 . S
Tb117 O136 2.473 . S
Tb117 O139 2.324 . S
Eu118 O122 2.292 . S
Eu118 C123 2.852 . S
Eu118 O134 2.324 . S
Eu118 O138 2.326 . S
Eu118 O140 2.500 . S
Eu118 O141 2.473 . S
C119 O116 1.255 . S
C119 O120 1.247 . S
O120 C119 1.247 . S
C121 O133 1.242 . S
C121 O134 1.258 . S
O122 Eu118 2.292 . S
O122 C124 1.255 . S
C123 Eu118 2.852 . S
C123 C127 1.503 . S
C123 O140 1.273 . S
C123 O141 1.257 . S
C124 O122 1.255 . S
C124 O125 1.247 . S
O125 C124 1.247 . S
C126 O138 1.242 . S
C126 O139 1.258 . S
C127 C123 1.503 . S
C127 C128 1.379 . S
C127 C132 1.392 1_565 S
C128 C127 1.379 . S
C128 C129 1.404 . S
C128 H142 0.929 . S
C129 C128 1.404 . S
C129 C130 1.389 1_565 S
C130 C129 1.389 1_545 S
C130 C131 1.399 . S
C130 H143 0.931 . S
C131 C130 1.399 . S
C131 C132 1.390 . S
C132 C127 1.392 1_545 S
C132 C131 1.390 . S
C132 H144 0.929 . S
O133 Tb117 2.326 . S
O133 C121 1.242 . S
O134 Eu118 2.324 . S
O134 C121 1.258 . S
O135 Tb117 2.500 . S
O135 C137 1.273 . S
O136 Tb117 2.473 . S
O136 C137 1.257 . S
C137 O135 1.273 . S
C137 O136 1.257 . S
O138 Eu118 2.326 . S
O138 C126 1.242 . S
O139 Tb117 2.324 . S
O139 C126 1.258 . S
O140 Eu118 2.500 . S
O140 C123 1.273 . S
O141 Eu118 2.473 . S
O141 C123 1.257 . S
H142 C128 0.929 . S
H143 C130 0.931 . S
H144 C132 0.929 . S
O145 Tb146 2.292 . S
O145 C148 1.255 . S
Tb146 O145 2.292 . S
Tb146 O162 2.326 . S
Tb146 O164 2.500 . S
Tb146 O165 2.473 . S
Tb146 O168 2.324 . S
Eu147 O151 2.292 . S
Eu147 C152 2.852 . S
Eu147 O163 2.324 . S
Eu147 O167 2.326 . S
Eu147 O169 2.500 . S
Eu147 O170 2.473 . S
C148 O145 1.255 . S
C148 O149 1.247 . S
O149 C148 1.247 . S
C150 O162 1.242 . S
C150 O163 1.258 . S
O151 Eu147 2.292 . S
O151 C153 1.255 . S
C152 Eu147 2.852 . S
C152 C156 1.503 . S
C152 O169 1.273 . S
C152 O170 1.257 . S
C153 O151 1.255 . S
C153 O154 1.247 . S
O154 C153 1.247 . S
C155 O167 1.242 . S
C155 O168 1.258 . S
C156 C152 1.503 . S
C156 C157 1.379 . S
C156 C161 1.392 . S
C157 C156 1.379 . S
C157 C158 1.404 . S
C157 H171 0.929 . S
C158 C157 1.404 . S
C158 C159 1.389 . S
C159 C158 1.389 . S
C159 C160 1.399 . S
C159 H172 0.931 . S
C160 C159 1.399 . S
C160 C161 1.390 . S
C161 C156 1.392 . S
C161 C160 1.390 . S
C161 H173 0.929 . S
O162 Tb146 2.326 . S
O162 C150 1.242 . S
O163 Eu147 2.324 . S
O163 C150 1.258 . S
O164 Tb146 2.500 . S
O164 C166 1.273 . S
O165 Tb146 2.473 . S
O165 C166 1.257 . S
C166 O164 1.273 . S
C166 O165 1.257 . S
O167 Eu147 2.326 . S
O167 C155 1.242 . S
O168 Tb146 2.324 . S
O168 C155 1.258 . S
O169 Eu147 2.500 . S
O169 C152 1.273 . S
O170 Eu147 2.473 . S
O170 C152 1.257 . S
H171 C157 0.929 . S
H172 C159 0.931 . S
H173 C161 0.929 . S
O174 Tb175 2.292 . S
O174 C177 1.255 . S
Tb175 O174 2.292 . S
Tb175 O191 2.326 . S
Tb175 O193 2.500 . S
Tb175 O194 2.473 . S
Tb175 O197 2.324 . S
Eu176 O180 2.292 . S
Eu176 C181 2.852 . S
Eu176 O192 2.324 . S
Eu176 O196 2.326 . S
Eu176 O198 2.500 . S
Eu176 O199 2.473 . S
C177 O174 1.255 . S
C177 O178 1.247 . S
O178 C177 1.247 . S
C179 O191 1.242 . S
C179 O192 1.258 . S
O180 Eu176 2.292 . S
O180 C182 1.255 . S
C181 Eu176 2.852 . S
C181 C185 1.503 . S
C181 O198 1.273 . S
C181 O199 1.257 . S
C182 O180 1.255 . S
C182 O183 1.247 . S
O183 C182 1.247 . S
C184 O196 1.242 . S
C184 O197 1.258 . S
C185 C181 1.503 . S
C185 C186 1.379 . S
C185 C190 1.392 . S
C186 C185 1.379 . S
C186 C187 1.404 . S
C186 H200 0.929 . S
C187 C186 1.404 . S
C187 C188 1.389 . S
C188 C187 1.389 . S
C188 C189 1.399 . S
C188 H201 0.931 . S
C189 C188 1.399 . S
C189 C190 1.390 . S
C190 C185 1.392 . S
C190 C189 1.390 . S
C190 H202 0.929 . S
O191 Tb175 2.326 . S
O191 C179 1.242 . S
O192 Eu176 2.324 . S
O192 C179 1.258 . S
O193 Tb175 2.500 . S
O193 C195 1.273 . S
O194 Tb175 2.473 . S
O194 C195 1.257 . S
C195 O193 1.273 . S
C195 O194 1.257 . S
O196 Eu176 2.326 . S
O196 C184 1.242 . S
O197 Tb175 2.324 . S
O197 C184 1.258 . S
O198 Eu176 2.500 . S
O198 C181 1.273 . S
O199 Eu176 2.473 . S
O199 C181 1.257 . S
H200 C186 0.929 . S
H201 C188 0.931 . S
H202 C190 0.929 . S
O203 Tb204 2.292 . S
O203 C206 1.255 . S
Tb204 O203 2.292 . S
Tb204 O220 2.326 . S
Tb204 O222 2.500 . S
Tb204 O223 2.473 . S
Tb204 O226 2.324 . S
Eu205 O209 2.292 . S
Eu205 C210 2.852 . S
Eu205 O221 2.324 . S
Eu205 O225 2.326 . S
Eu205 O227 2.500 . S
Eu205 O228 2.473 . S
C206 O203 1.255 . S
C206 O207 1.247 . S
O207 C206 1.247 . S
C208 O220 1.242 . S
C208 O221 1.258 . S
O209 Eu205 2.292 . S
O209 C211 1.255 . S
C210 Eu205 2.852 . S
C210 C214 1.503 . S
C210 O227 1.273 . S
C210 O228 1.257 . S
C211 O209 1.255 . S
C211 O212 1.247 . S
O212 C211 1.247 . S
C213 O225 1.242 . S
C213 O226 1.258 . S
C214 C210 1.503 . S
C214 C215 1.379 . S
C214 C219 1.392 1_655 S
C215 C214 1.379 . S
C215 C216 1.404 . S
C215 H229 0.929 . S
C216 C215 1.404 . S
C216 C217 1.389 1_655 S
C217 C216 1.389 1_455 S
C217 C218 1.399 . S
C217 H230 0.931 . S
C218 C217 1.399 . S
C218 C219 1.390 . S
C219 C214 1.392 1_455 S
C219 C218 1.390 . S
C219 H231 0.929 . S
O220 Tb204 2.326 . S
O220 C208 1.242 . S
O221 Eu205 2.324 . S
O221 C208 1.258 . S
O222 Tb204 2.500 . S
O222 C224 1.273 . S
O223 Tb204 2.473 . S
O223 C224 1.257 . S
C224 O222 1.273 . S
C224 O223 1.257 . S
O225 Eu205 2.326 . S
O225 C213 1.242 . S
O226 Tb204 2.324 . S
O226 C213 1.258 . S
O227 Eu205 2.500 . S
O227 C210 1.273 . S
O228 Eu205 2.473 . S
O228 C210 1.257 . S
H229 C215 0.929 . S
H230 C217 0.931 . S
H231 C219 0.929 . S
O232 Tb233 2.292 . S
O232 C235 1.255 . S
Tb233 O232 2.292 . S
Tb233 O249 2.326 . S
Tb233 O251 2.500 . S
Tb233 O252 2.473 . S
Tb233 O255 2.324 . S
Eu234 O238 2.292 . S
Eu234 C239 2.852 . S
Eu234 O250 2.324 . S
Eu234 O254 2.326 . S
Eu234 O256 2.500 . S
Eu234 O257 2.473 . S
C235 O232 1.255 . S
C235 O236 1.247 . S
O236 C235 1.247 . S
C237 O249 1.242 . S
C237 O250 1.258 . S
O238 Eu234 2.292 . S
O238 C240 1.255 . S
C239 Eu234 2.852 . S
C239 C243 1.503 . S
C239 O256 1.273 . S
C239 O257 1.257 . S
C240 O238 1.255 . S
C240 O241 1.247 . S
O241 C240 1.247 . S
C242 O254 1.242 . S
C242 O255 1.258 . S
C243 C239 1.503 . S
C243 C244 1.379 . S
C243 C248 1.392 1_565 S
C244 C243 1.379 . S
C244 C245 1.404 . S
C244 H258 0.929 . S
C245 C244 1.404 . S
C245 C246 1.389 1_565 S
C246 C245 1.389 1_545 S
C246 C247 1.399 . S
C246 H259 0.931 . S
C247 C246 1.399 . S
C247 C248 1.390 . S
C248 C243 1.392 1_545 S
C248 C247 1.390 . S
C248 H260 0.929 . S
O249 Tb233 2.326 . S
O249 C237 1.242 . S
O250 Eu234 2.324 . S
O250 C237 1.258 . S
O251 Tb233 2.500 . S
O251 C253 1.273 . S
O252 Tb233 2.473 . S
O252 C253 1.257 . S
C253 O251 1.273 . S
C253 O252 1.257 . S
O254 Eu234 2.326 . S
O254 C242 1.242 . S
O255 Tb233 2.324 . S
O255 C242 1.258 . S
O256 Eu234 2.500 . S
O256 C239 1.273 . S
O257 Eu234 2.473 . S
O257 C239 1.257 . S
H258 C244 0.929 . S
H259 C246 0.931 . S
H260 C248 0.929 . S
O261 Tb262 2.292 . S
O261 C264 1.255 . S
Tb262 O261 2.292 . S
Tb262 O278 2.326 . S
Tb262 O280 2.500 . S
Tb262 O281 2.473 . S
Tb262 O284 2.324 . S
Eu263 O267 2.292 . S
Eu263 C268 2.852 . S
Eu263 O279 2.324 . S
Eu263 O283 2.326 . S
Eu263 O285 2.500 . S
Eu263 O286 2.473 . S
C264 O261 1.255 . S
C264 O265 1.247 . S
O265 C264 1.247 . S
C266 O278 1.242 . S
C266 O279 1.258 . S
O267 Eu263 2.292 . S
O267 C269 1.255 . S
C268 Eu263 2.852 . S
C268 C272 1.503 . S
C268 O285 1.273 . S
C268 O286 1.257 . S
C269 O267 1.255 . S
C269 O270 1.247 . S
O270 C269 1.247 . S
C271 O283 1.242 . S
C271 O284 1.258 . S
C272 C268 1.503 . S
C272 C273 1.379 . S
C272 C277 1.392 . S
C273 C272 1.379 . S
C273 C274 1.404 . S
C273 H287 0.929 . S
C274 C273 1.404 . S
C274 C275 1.389 . S
C275 C274 1.389 . S
C275 C276 1.399 . S
C275 H288 0.931 . S
C276 C275 1.399 . S
C276 C277 1.390 . S
C277 C272 1.392 . S
C277 C276 1.390 . S
C277 H289 0.929 . S
O278 Tb262 2.326 . S
O278 C266 1.242 . S
O279 Eu263 2.324 . S
O279 C266 1.258 . S
O280 Tb262 2.500 . S
O280 C282 1.273 . S
O281 Tb262 2.473 . S
O281 C282 1.257 . S
C282 O280 1.273 . S
C282 O281 1.257 . S
O283 Eu263 2.326 . S
O283 C271 1.242 . S
O284 Tb262 2.324 . S
O284 C271 1.258 . S
O285 Eu263 2.500 . S
O285 C268 1.273 . S
O286 Eu263 2.473 . S
O286 C268 1.257 . S
H287 C273 0.929 . S
H288 C275 0.931 . S
H289 C277 0.929 . S
O290 Tb291 2.292 . S
O290 C293 1.255 . S
Tb291 O290 2.292 . S
Tb291 O307 2.326 . S
Tb291 O309 2.500 . S
Tb291 O310 2.473 . S
Tb291 O313 2.324 . S
Eu292 O296 2.292 . S
Eu292 C297 2.852 . S
Eu292 O308 2.324 . S
Eu292 O312 2.326 . S
Eu292 O314 2.500 . S
Eu292 O315 2.473 . S
C293 O290 1.255 . S
C293 O294 1.247 . S
O294 C293 1.247 . S
C295 O307 1.242 . S
C295 O308 1.258 . S
O296 Eu292 2.292 . S
O296 C298 1.255 . S
C297 Eu292 2.852 . S
C297 C301 1.503 . S
C297 O314 1.273 . S
C297 O315 1.257 . S
C298 O296 1.255 . S
C298 O299 1.247 . S
O299 C298 1.247 . S
C300 O312 1.242 . S
C300 O313 1.258 . S
C301 C297 1.503 . S
C301 C302 1.379 . S
C301 C306 1.392 . S
C302 C301 1.379 . S
C302 C303 1.404 . S
C302 H316 0.929 . S
C303 C302 1.404 . S
C303 C304 1.389 . S
C304 C303 1.389 . S
C304 C305 1.399 . S
C304 H317 0.931 . S
C305 C304 1.399 . S
C305 C306 1.390 . S
C306 C301 1.392 . S
C306 C305 1.390 . S
C306 H318 0.929 . S
O307 Tb291 2.326 . S
O307 C295 1.242 . S
O308 Eu292 2.324 . S
O308 C295 1.258 . S
O309 Tb291 2.500 . S
O309 C311 1.273 . S
O310 Tb291 2.473 . S
O310 C311 1.257 . S
C311 O309 1.273 . S
C311 O310 1.257 . S
O312 Eu292 2.326 . S
O312 C300 1.242 . S
O313 Tb291 2.324 . S
O313 C300 1.258 . S
O314 Eu292 2.500 . S
O314 C297 1.273 . S
O315 Eu292 2.473 . S
O315 C297 1.257 . S
H316 C302 0.929 . S
H317 C304 0.931 . S
H318 C306 0.929 . S
O319 Tb320 2.292 . S
O319 C322 1.255 . S
Tb320 O319 2.292 . S
Tb320 O336 2.326 . S
Tb320 O338 2.500 . S
Tb320 O339 2.473 . S
Tb320 O342 2.324 . S
Eu321 O325 2.292 . S
Eu321 C326 2.852 . S
Eu321 O337 2.324 . S
Eu321 O341 2.326 . S
Eu321 O343 2.500 . S
Eu321 O344 2.473 . S
C322 O319 1.255 . S
C322 O323 1.247 . S
O323 C322 1.247 . S
C324 O336 1.242 . S
C324 O337 1.258 . S
O325 Eu321 2.292 . S
O325 C327 1.255 . S
C326 Eu321 2.852 . S
C326 C330 1.503 . S
C326 O343 1.273 . S
C326 O344 1.257 . S
C327 O325 1.255 . S
C327 O328 1.247 . S
O328 C327 1.247 . S
C329 O341 1.242 . S
C329 O342 1.258 . S
C330 C326 1.503 . S
C330 C331 1.379 . S
C330 C335 1.392 1_655 S
C331 C330 1.379 . S
C331 C332 1.404 . S
C331 H345 0.929 . S
C332 C331 1.404 . S
C332 C333 1.389 1_655 S
C333 C332 1.389 1_455 S
C333 C334 1.399 . S
C333 H346 0.931 . S
C334 C333 1.399 . S
C334 C335 1.390 . S
C335 C330 1.392 1_455 S
C335 C334 1.390 . S
C335 H347 0.929 . S
O336 Tb320 2.326 . S
O336 C324 1.242 . S
O337 Eu321 2.324 . S
O337 C324 1.258 . S
O338 Tb320 2.500 . S
O338 C340 1.273 . S
O339 Tb320 2.473 . S
O339 C340 1.257 . S
C340 O338 1.273 . S
C340 O339 1.257 . S
O341 Eu321 2.326 . S
O341 C329 1.242 . S
O342 Tb320 2.324 . S
O342 C329 1.258 . S
O343 Eu321 2.500 . S
O343 C326 1.273 . S
O344 Eu321 2.473 . S
O344 C326 1.257 . S
H345 C331 0.929 . S
H346 C333 0.931 . S
H347 C335 0.929 . S
O348 Tb349 2.292 . S
O348 C351 1.255 . S
Tb349 O348 2.292 . S
Tb349 O365 2.326 . S
Tb349 O367 2.500 . S
Tb349 O368 2.473 . S
Tb349 O371 2.324 . S
Eu350 O354 2.292 . S
Eu350 C355 2.852 . S
Eu350 O366 2.324 . S
Eu350 O370 2.326 . S
Eu350 O372 2.500 . S
Eu350 O373 2.473 . S
C351 O348 1.255 . S
C351 O352 1.247 . S
O352 C351 1.247 . S
C353 O365 1.242 . S
C353 O366 1.258 . S
O354 Eu350 2.292 . S
O354 C356 1.255 . S
C355 Eu350 2.852 . S
C355 C359 1.503 . S
C355 O372 1.273 . S
C355 O373 1.257 . S
C356 O354 1.255 . S
C356 O357 1.247 . S
O357 C356 1.247 . S
C358 O370 1.242 . S
C358 O371 1.258 . S
C359 C355 1.503 . S
C359 C360 1.379 . S
C359 C364 1.392 1_545 S
C360 C359 1.379 . S
C360 C361 1.404 . S
C360 H374 0.929 . S
C361 C360 1.404 . S
C361 C362 1.389 1_545 S
C362 C361 1.389 1_565 S
C362 C363 1.399 . S
C362 H375 0.931 . S
C363 C362 1.399 . S
C363 C364 1.390 . S
C364 C359 1.392 1_565 S
C364 C363 1.390 . S
C364 H376 0.929 . S
O365 Tb349 2.326 . S
O365 C353 1.242 . S
O366 Eu350 2.324 . S
O366 C353 1.258 . S
O367 Tb349 2.500 . S
O367 C369 1.273 . S
O368 Tb349 2.473 . S
O368 C369 1.257 . S
C369 O367 1.273 . S
C369 O368 1.257 . S
O370 Eu350 2.326 . S
O370 C358 1.242 . S
O371 Tb349 2.324 . S
O371 C358 1.258 . S
O372 Eu350 2.500 . S
O372 C355 1.273 . S
O373 Eu350 2.473 . S
O373 C355 1.257 . S
H374 C360 0.929 . S
H375 C362 0.931 . S
H376 C364 0.929 . S
O377 Tb378 2.292 . S
O377 C380 1.255 . S
Tb378 O377 2.292 . S
Tb378 O394 2.326 . S
Tb378 O396 2.500 . S
Tb378 O397 2.473 . S
Tb378 O400 2.324 . S
Eu379 O383 2.292 . S
Eu379 C384 2.852 . S
Eu379 O395 2.324 . S
Eu379 O399 2.326 . S
Eu379 O401 2.500 . S
Eu379 O402 2.473 . S
C380 O377 1.255 . S
C380 O381 1.247 . S
O381 C380 1.247 . S
C382 O394 1.242 . S
C382 O395 1.258 . S
O383 Eu379 2.292 . S
O383 C385 1.255 . S
C384 Eu379 2.852 . S
C384 C388 1.503 . S
C384 O401 1.273 . S
C384 O402 1.257 . S
C385 O383 1.255 . S
C385 O386 1.247 . S
O386 C385 1.247 . S
C387 O399 1.242 . S
C387 O400 1.258 . S
C388 C384 1.503 . S
C388 C389 1.379 . S
C388 C393 1.392 . S
C389 C388 1.379 . S
C389 C390 1.404 . S
C389 H403 0.929 . S
C390 C389 1.404 . S
C390 C391 1.389 . S
C391 C390 1.389 . S
C391 C392 1.399 . S
C391 H404 0.931 . S
C392 C391 1.399 . S
C392 C393 1.390 . S
C393 C388 1.392 . S
C393 C392 1.390 . S
C393 H405 0.929 . S
O394 Tb378 2.326 . S
O394 C382 1.242 . S
O395 Eu379 2.324 . S
O395 C382 1.258 . S
O396 Tb378 2.500 . S
O396 C398 1.273 . S
O397 Tb378 2.473 . S
O397 C398 1.257 . S
C398 O396 1.273 . S
C398 O397 1.257 . S
O399 Eu379 2.326 . S
O399 C387 1.242 . S
O400 Tb378 2.324 . S
O400 C387 1.258 . S
O401 Eu379 2.500 . S
O401 C384 1.273 . S
O402 Eu379 2.473 . S
O402 C384 1.257 . S
H403 C389 0.929 . S
H404 C391 0.931 . S
H405 C393 0.929 . S
O406 Tb407 2.292 . S
O406 C409 1.255 . S
Tb407 O406 2.292 . S
Tb407 O423 2.326 . S
Tb407 O425 2.500 . S
Tb407 O426 2.473 . S
Tb407 O429 2.324 . S
Eu408 O412 2.292 . S
Eu408 C413 2.852 . S
Eu408 O424 2.324 . S
Eu408 O428 2.326 . S
Eu408 O430 2.500 . S
Eu408 O431 2.473 . S
C409 O406 1.255 . S
C409 O410 1.247 . S
O410 C409 1.247 . S
C411 O423 1.242 . S
C411 O424 1.258 . S
O412 Eu408 2.292 . S
O412 C414 1.255 . S
C413 Eu408 2.852 . S
C413 C417 1.503 . S
C413 O430 1.273 . S
C413 O431 1.257 . S
C414 O412 1.255 . S
C414 O415 1.247 . S
O415 C414 1.247 . S
C416 O428 1.242 . S
C416 O429 1.258 . S
C417 C413 1.503 . S
C417 C418 1.379 . S
C417 C422 1.392 . S
C418 C417 1.379 . S
C418 C419 1.404 . S
C418 H432 0.929 . S
C419 C418 1.404 . S
C419 C420 1.389 . S
C420 C419 1.389 . S
C420 C421 1.399 . S
C420 H433 0.931 . S
C421 C420 1.399 . S
C421 C422 1.390 . S
C422 C417 1.392 . S
C422 C421 1.390 . S
C422 H434 0.929 . S
O423 Tb407 2.326 . S
O423 C411 1.242 . S
O424 Eu408 2.324 . S
O424 C411 1.258 . S
O425 Tb407 2.500 . S
O425 C427 1.273 . S
O426 Tb407 2.473 . S
O426 C427 1.257 . S
C427 O425 1.273 . S
C427 O426 1.257 . S
O428 Eu408 2.326 . S
O428 C416 1.242 . S
O429 Tb407 2.324 . S
O429 C416 1.258 . S
O430 Eu408 2.500 . S
O430 C413 1.273 . S
O431 Eu408 2.473 . S
O431 C413 1.257 . S
H432 C418 0.929 . S
H433 C420 0.931 . S
H434 C422 0.929 . S
O435 Tb436 2.292 . S
O435 C438 1.255 . S
Tb436 O435 2.292 . S
Tb436 O452 2.326 . S
Tb436 O454 2.500 . S
Tb436 O455 2.473 . S
Tb436 O458 2.324 . S
Eu437 O441 2.292 . S
Eu437 C442 2.852 . S
Eu437 O453 2.324 . S
Eu437 O457 2.326 . S
Eu437 O459 2.500 . S
Eu437 O460 2.473 . S
C438 O435 1.255 . S
C438 O439 1.247 . S
O439 C438 1.247 . S
C440 O452 1.242 . S
C440 O453 1.258 . S
O441 Eu437 2.292 . S
O441 C443 1.255 . S
C442 Eu437 2.852 . S
C442 C446 1.503 . S
C442 O459 1.273 . S
C442 O460 1.257 . S
C443 O441 1.255 . S
C443 O444 1.247 . S
O444 C443 1.247 . S
C445 O457 1.242 . S
C445 O458 1.258 . S
C446 C442 1.503 . S
C446 C447 1.379 . S
C446 C451 1.392 1_455 S
C447 C446 1.379 . S
C447 C448 1.404 . S
C447 H461 0.929 . S
C448 C447 1.404 . S
C448 C449 1.389 1_455 S
C449 C448 1.389 1_655 S
C449 C450 1.399 . S
C449 H462 0.931 . S
C450 C449 1.399 . S
C450 C451 1.390 . S
C451 C446 1.392 1_655 S
C451 C450 1.390 . S
C451 H463 0.929 . S
O452 Tb436 2.326 . S
O452 C440 1.242 . S
O453 Eu437 2.324 . S
O453 C440 1.258 . S
O454 Tb436 2.500 . S
O454 C456 1.273 . S
O455 Tb436 2.473 . S
O455 C456 1.257 . S
C456 O454 1.273 . S
C456 O455 1.257 . S
O457 Eu437 2.326 . S
O457 C445 1.242 . S
O458 Tb436 2.324 . S
O458 C445 1.258 . S
O459 Eu437 2.500 . S
O459 C442 1.273 . S
O460 Eu437 2.473 . S
O460 C442 1.257 . S
H461 C447 0.929 . S
H462 C449 0.931 . S
H463 C451 0.929 . S
C464 C465 1.349 . S
C464 C466 1.321 1_565 S
C464 H489 0.950 1_565 S
C465 C464 1.349 . S
C465 C481 1.349 . S
C466 C464 1.321 1_545 S
C466 C485 1.416 1_545 S
C466 H490 0.969 . S
C467 C484 1.574 . S
C467 C486 1.368 1_554 S
C467 H491 0.949 . S
H468 C472 0.949 . S
C469 C470 1.349 . S
C469 C471 1.321 1_545 S
C469 H492 0.950 1_545 S
C470 C469 1.349 . S
C470 C482 1.349 . S
C471 C469 1.321 1_565 S
C471 C487 1.416 1_565 S
C471 H493 0.969 . S
C472 H468 0.949 . S
C472 C480 1.574 . S
C472 C488 1.368 1_556 S
H473 C481 0.950 . S
H474 C479 0.950 . S
H475 C480 0.949 . S
H476 C482 0.950 . S
H477 C483 0.950 . S
H478 C484 0.949 . S
C479 H474 0.950 . S
C479 C481 1.327 . S
C479 C485 1.429 . S
C480 C472 1.574 . S
C480 H475 0.949 . S
C480 C486 1.368 1_545 S
C481 C465 1.349 . S
C481 H473 0.950 . S
C481 C479 1.327 . S
C482 C470 1.349 . S
C482 H476 0.950 . S
C482 C483 1.327 . S
C483 H477 0.950 . S
C483 C482 1.327 . S
C483 C487 1.429 . S
C484 C467 1.574 . S
C484 H478 0.949 . S
C484 C488 1.368 1_565 S
C485 C466 1.416 1_565 S
C485 C479 1.429 . S
C485 C486 1.523 . S
C486 C467 1.368 1_556 S
C486 C480 1.368 1_565 S
C486 C485 1.523 . S
C487 C471 1.416 1_545 S
C487 C483 1.429 . S
C487 C488 1.523 . S
C488 C472 1.368 1_554 S
C488 C484 1.368 1_545 S
C488 C487 1.523 . S
H489 C464 0.950 1_545 S
H490 C466 0.969 . S
H491 C467 0.949 . S
H492 C469 0.950 1_565 S
H493 C471 0.969 . S
C494 C495 1.349 . S
C494 C496 1.327 . S
C494 H519 0.950 . S
C495 C494 1.349 . S
C495 C511 1.349 . S
C496 C494 1.327 . S
C496 C515 1.429 . S
C496 H520 0.950 . S
C497 C514 1.574 . S
C497 C516 1.368 . S
C497 H521 0.949 . S
H498 C502 0.949 . S
C499 C500 1.349 . S
C499 C501 1.327 . S
C499 H522 0.950 . S
C500 C499 1.349 . S
C500 C512 1.349 . S
C501 C499 1.327 . S
C501 C517 1.429 . S
C501 H523 0.950 . S
C502 H498 0.949 . S
C502 C510 1.574 . S
C502 C518 1.368 . S
H503 C511 0.950 . S
H504 C509 0.950 . S
H505 C510 0.949 . S
H506 C512 0.950 . S
H507 C513 0.950 . S
H508 C514 0.949 . S
C509 H504 0.950 . S
C509 C511 1.327 . S
C509 C515 1.429 . S
C510 C502 1.574 . S
C510 H505 0.949 . S
C510 C516 1.368 1_556 S
C511 C495 1.349 . S
C511 H503 0.950 . S
C511 C509 1.327 . S
C512 C500 1.349 . S
C512 H506 0.950 . S
C512 C513 1.327 . S
C513 H507 0.950 . S
C513 C512 1.327 . S
C513 C517 1.429 . S
C514 C497 1.574 . S
C514 H508 0.949 . S
C514 C518 1.368 1_554 S
C515 C496 1.429 . S
C515 C509 1.429 . S
C515 C516 1.523 . S
C516 C497 1.368 . S
C516 C510 1.368 1_554 S
C516 C515 1.523 . S
C517 C501 1.429 . S
C517 C513 1.429 . S
C517 C518 1.523 . S
C518 C502 1.368 . S
C518 C514 1.368 1_556 S
C518 C517 1.523 . S
H519 C494 0.950 . S
H520 C496 0.950 . S
H521 C497 0.949 . S
H522 C499 0.950 . S
H523 C501 0.950 . S
C524 C525 1.349 . S
C524 C526 1.327 . S
C524 H549 0.950 . S
C525 C524 1.349 . S
C525 C541 1.349 . S
C526 C524 1.327 . S
C526 C545 1.429 . S
C526 H550 0.950 . S
C527 C544 1.601 1_556 S
C527 C546 1.368 . S
C527 H551 0.949 . S
H528 C532 0.949 . S
C529 C530 1.349 . S
C529 C531 1.327 . S
C529 H552 0.950 . S
C530 C529 1.349 . S
C530 C542 1.349 . S
C531 C529 1.327 . S
C531 C547 1.429 . S
C531 H553 0.950 . S
C532 H528 0.949 . S
C532 C540 1.601 1_554 S
C532 C548 1.368 . S
H533 C541 0.950 . S
H534 C539 0.950 . S
H535 C540 0.949 . S
H536 C542 0.950 . S
H537 C543 0.950 . S
H538 C544 0.949 . S
C539 H534 0.950 . S
C539 C541 1.327 . S
C539 C545 1.429 . S
C540 C532 1.601 1_556 S
C540 H535 0.949 . S
C540 C546 1.341 1_655 S
C541 C525 1.349 . S
C541 H533 0.950 . S
C541 C539 1.327 . S
C542 C530 1.349 . S
C542 H536 0.950 . S
C542 C543 1.327 . S
C543 H537 0.950 . S
C543 C542 1.327 . S
C543 C547 1.429 . S
C544 C527 1.601 1_554 S
C544 H538 0.949 . S
C544 C548 1.341 1_455 S
C545 C526 1.429 . S
C545 C539 1.429 . S
C545 C546 1.523 . S
C546 C527 1.368 . S
C546 C540 1.341 1_455 S
C546 C545 1.523 . S
C547 C531 1.429 . S
C547 C543 1.429 . S
C547 C548 1.523 . S
C548 C532 1.368 . S
C548 C544 1.341 1_655 S
C548 C547 1.523 . S
H549 C524 0.950 . S
H550 C526 0.950 . S
H551 C527 0.949 . S
H552 C529 0.950 . S
H553 C531 0.950 . S
C554 C555 1.349 . S
C554 C556 1.327 . S
C554 H579 0.962 . S
C555 C554 1.349 . S
C555 C571 1.349 . S
C556 C554 1.327 . S
C556 C575 1.429 . S
C556 H580 0.950 1_455 S
C557 C574 1.604 . S
C557 C576 1.368 1_545 S
C557 H581 0.949 . S
H558 C562 0.949 . S
C559 C560 1.349 . S
C559 C561 1.327 . S
C559 H582 0.962 . S
C560 C559 1.349 . S
C560 C572 1.349 . S
C561 C559 1.327 . S
C561 C577 1.429 . S
C561 H583 0.950 1_655 S
C562 H558 0.949 . S
C562 C570 1.604 . S
C562 C578 1.368 1_565 S
H563 C571 0.950 . S
H564 C569 0.950 . S
H565 C570 0.949 . S
H566 C572 0.950 . S
H567 C573 0.950 . S
H568 C574 0.949 . S
C569 H564 0.950 . S
C569 C571 1.327 . S
C569 C575 1.429 . S
C570 C562 1.604 . S
C570 H565 0.949 . S
C570 C576 1.339 1_656 S
C571 C555 1.349 . S
C571 H563 0.950 . S
C571 C569 1.327 . S
C572 C560 1.349 . S
C572 H566 0.950 . S
C572 C573 1.327 . S
C573 H567 0.950 . S
C573 C572 1.327 . S
C573 C577 1.429 . S
C574 C557 1.604 . S
C574 H568 0.949 . S
C574 C578 1.339 1_454 S
C575 C556 1.429 . S
C575 C569 1.429 . S
C575 C576 1.523 . S
C576 C557 1.368 1_565 S
C576 C570 1.339 1_454 S
C576 C575 1.523 . S
C577 C561 1.429 . S
C577 C573 1.429 . S
C577 C578 1.523 . S
C578 C562 1.368 1_545 S
C578 C574 1.339 1_656 S
C578 C577 1.523 . S
H579 C554 0.962 . S
H580 C556 0.950 1_655 S
H581 C557 0.949 . S
H582 C559 0.962 . S
H583 C561 0.950 1_455 S
C584 C585 1.349 . S
C584 C586 1.327 . S
C584 H609 0.950 . S
C585 C584 1.349 . S
C585 C601 1.349 . S
C586 C584 1.327 . S
C586 C605 1.429 . S
C586 H610 0.950 . S
C587 C604 1.573 . S
C587 C606 1.369 1_645 S
C587 H611 0.949 1_655 S
H588 C592 0.949 1_655 S
C589 C590 1.349 . S
C589 C591 1.327 . S
C589 H612 0.950 . S
C590 C589 1.349 . S
C590 C602 1.349 . S
C591 C589 1.327 . S
C591 C607 1.429 . S
C591 H613 0.950 . S
C592 H588 0.949 1_455 S
C592 C600 1.573 . S
C592 C608 1.369 1_465 S
H593 C601 0.950 1_545 S
H594 C599 0.950 . S
H595 C600 0.949 . S
H596 C602 0.950 1_565 S
H597 C603 0.950 . S
H598 C604 0.949 . S
C599 H594 0.950 . S
C599 C601 1.327 1_545 S
C599 C605 1.429 1_545 S
C600 C592 1.573 . S
C600 H595 0.949 . S
C600 C606 1.368 . S
C601 C585 1.349 . S
C601 H593 0.950 1_565 S
C601 C599 1.327 1_565 S
C602 C590 1.349 . S
C602 H596 0.950 1_545 S
C602 C603 1.327 1_545 S
C603 H597 0.950 . S
C603 C602 1.327 1_565 S
C603 C607 1.429 1_565 S
C604 C587 1.573 . S
C604 H598 0.949 . S
C604 C608 1.368 . S
C605 C586 1.429 . S
C605 C599 1.429 1_565 S
C605 C606 1.523 . S
C606 C587 1.369 1_465 S
C606 C600 1.368 . S
C606 C605 1.523 . S
C607 C591 1.429 . S
C607 C603 1.429 1_545 S
C607 C608 1.523 . S
C608 C592 1.369 1_645 S
C608 C604 1.368 . S
C608 C607 1.523 . S
H609 C584 0.950 . S
H610 C586 0.950 . S
H611 C587 0.949 1_455 S
H612 C589 0.950 . S
H613 C591 0.950 . S
C614 C615 1.349 . S
C614 C616 1.327 . S
C614 H639 0.950 . S
C615 C614 1.349 . S
C615 C631 1.349 . S
C616 C614 1.327 . S
C616 C635 1.429 . S
C616 H640 0.950 . S
C617 C634 1.574 . S
C617 C636 1.368 . S
C617 H641 0.949 . S
H618 C622 0.949 . S
C619 C620 1.349 . S
C619 C621 1.327 . S
C619 H642 0.950 . S
C620 C619 1.349 . S
C620 C632 1.349 . S
C621 C619 1.327 . S
C621 C637 1.429 . S
C621 H643 0.950 . S
C622 H618 0.949 . S
C622 C630 1.574 . S
C622 C638 1.368 . S
H623 C631 0.950 . S
H624 C629 0.950 . S
H625 C630 0.949 . S
H626 C632 0.950 . S
H627 C633 0.950 . S
H628 C634 0.949 . S
C629 H624 0.950 . S
C629 C631 1.327 . S
C629 C635 1.429 . S
C630 C622 1.574 . S
C630 H625 0.949 . S
C630 C636 1.368 1_565 S
C631 C615 1.349 . S
C631 H623 0.950 . S
C631 C629 1.327 . S
C632 C620 1.349 . S
C632 H626 0.950 . S
C632 C633 1.327 . S
C633 H627 0.950 . S
C633 C632 1.327 . S
C633 C637 1.429 . S
C634 C617 1.574 . S
C634 H628 0.949 . S
C634 C638 1.368 1_545 S
C635 C616 1.429 . S
C635 C629 1.429 . S
C635 C636 1.523 . S
C636 C617 1.368 . S
C636 C630 1.368 1_545 S
C636 C635 1.523 . S
C637 C621 1.429 . S
C637 C633 1.429 . S
C637 C638 1.523 . S
C638 C622 1.368 . S
C638 C634 1.368 1_565 S
C638 C637 1.523 . S
H639 C614 0.950 . S
H640 C616 0.950 . S
H641 C617 0.949 . S
H642 C619 0.950 . S
H643 C621 0.950 . S
C644 C645 1.349 . S
C644 C646 1.327 . S
C644 H669 0.950 . S
C645 C644 1.349 . S
C645 C661 1.349 . S
C646 C644 1.327 . S
C646 C665 1.429 . S
C646 H670 0.950 . S
C647 C664 1.574 . S
C647 C666 1.368 . S
C647 H671 0.949 . S
H648 C652 0.949 . S
C649 C650 1.349 . S
C649 C651 1.327 . S
C649 H672 0.950 . S
C650 C649 1.349 . S
C650 C662 1.349 . S
C651 C649 1.327 . S
C651 C667 1.429 . S
C651 H673 0.950 . S
C652 H648 0.949 . S
C652 C660 1.574 . S
C652 C668 1.368 . S
H653 C661 0.950 . S
H654 C659 0.950 . S
H655 C660 0.949 . S
H656 C662 0.950 . S
H657 C663 0.950 . S
H658 C664 0.949 . S
C659 H654 0.950 . S
C659 C661 1.327 . S
C659 C665 1.429 . S
C660 C652 1.574 . S
C660 H655 0.949 . S
C660 C666 1.368 . S
C661 C645 1.349 . S
C661 H653 0.950 . S
C661 C659 1.327 . S
C662 C650 1.349 . S
C662 H656 0.950 . S
C662 C663 1.327 . S
C663 H657 0.950 . S
C663 C662 1.327 . S
C663 C667 1.429 . S
C664 C647 1.574 . S
C664 H658 0.949 . S
C664 C668 1.368 . S
C665 C646 1.429 . S
C665 C659 1.429 . S
C665 C666 1.523 . S
C666 C647 1.368 . S
C666 C660 1.368 . S
C666 C665 1.523 . S
C667 C651 1.429 . S
C667 C663 1.429 . S
C667 C668 1.523 . S
C668 C652 1.368 . S
C668 C664 1.368 . S
C668 C667 1.523 . S
H669 C644 0.950 . S
H670 C646 0.950 . S
H671 C647 0.949 . S
H672 C649 0.950 . S
H673 C651 0.950 . S
C674 C675 1.349 . S
C674 C676 1.327 . S
C674 H699 0.950 . S
C675 C674 1.349 . S
C675 C691 1.349 1_455 S
C676 C674 1.327 . S
C676 C695 1.429 . S
C676 H700 0.950 . S
C677 C694 1.574 . S
C677 C696 1.368 1_655 S
C677 H701 0.949 . S
H678 C682 0.949 . S
C679 C680 1.349 . S
C679 C681 1.327 . S
C679 H702 0.950 . S
C680 C679 1.349 . S
C680 C692 1.349 1_655 S
C681 C679 1.327 . S
C681 C697 1.429 . S
C681 H703 0.950 . S
C682 H678 0.949 . S
C682 C690 1.574 . S
C682 C698 1.368 1_455 S
H683 C691 0.950 . S
H684 C689 0.950 . S
H685 C690 0.949 . S
H686 C692 0.950 . S
H687 C693 0.950 . S
H688 C694 0.949 . S
C689 H684 0.950 . S
C689 C691 1.327 . S
C689 C695 1.429 1_655 S
C690 C682 1.574 . S
C690 H685 0.949 . S
C690 C696 1.368 . S
C691 C675 1.349 1_655 S
C691 H683 0.950 . S
C691 C689 1.327 . S
C692 C680 1.349 1_455 S
C692 H686 0.950 . S
C692 C693 1.327 . S
C693 H687 0.950 . S
C693 C692 1.327 . S
C693 C697 1.429 1_455 S
C694 C677 1.574 . S
C694 H688 0.949 . S
C694 C698 1.368 . S
C695 C676 1.429 . S
C695 C689 1.429 1_455 S
C695 C696 1.523 . S
C696 C677 1.368 1_455 S
C696 C690 1.368 . S
C696 C695 1.523 . S
C697 C681 1.429 . S
C697 C693 1.429 1_655 S
C697 C698 1.523 . S
C698 C682 1.368 1_655 S
C698 C694 1.368 . S
C698 C697 1.523 . S
H699 C674 0.950 . S
H700 C676 0.950 . S
H701 C677 0.949 . S
H702 C679 0.950 . S
H703 C681 0.950 . S
C704 C705 1.349 . S
C704 C706 1.327 . S
C704 H729 0.950 . S
C705 C704 1.349 . S
C705 C721 1.349 . S
C706 C704 1.327 . S
C706 C725 1.429 . S
C706 H730 0.950 . S
C707 C724 1.574 . S
C707 C726 1.368 . S
C707 H731 0.949 . S
H708 C712 0.949 . S
C709 C710 1.349 . S
C709 C711 1.327 . S
C709 H732 0.950 . S
C710 C709 1.349 . S
C710 C722 1.349 . S
C711 C709 1.327 . S
C711 C727 1.429 . S
C711 H733 0.950 . S
C712 H708 0.949 . S
C712 C720 1.574 . S
C712 C728 1.368 . S
H713 C721 0.950 . S
H714 C719 0.950 . S
H715 C720 0.949 . S
H716 C722 0.950 . S
H717 C723 0.950 . S
H718 C724 0.949 . S
C719 H714 0.950 . S
C719 C721 1.327 . S
C719 C725 1.429 . S
C720 C712 1.574 . S
C720 H715 0.949 . S
C720 C726 1.368 . S
C721 C705 1.349 . S
C721 H713 0.950 . S
C721 C719 1.327 . S
C722 C710 1.349 . S
C722 H716 0.950 . S
C722 C723 1.327 . S
C723 H717 0.950 . S
C723 C722 1.327 . S
C723 C727 1.429 . S
C724 C707 1.574 . S
C724 H718 0.949 . S
C724 C728 1.368 . S
C725 C706 1.429 . S
C725 C719 1.429 . S
C725 C726 1.523 . S
C726 C707 1.368 . S
C726 C720 1.368 . S
C726 C725 1.523 . S
C727 C711 1.429 . S
C727 C723 1.429 . S
C727 C728 1.523 . S
C728 C712 1.368 . S
C728 C724 1.368 . S
C728 C727 1.523 . S
H729 C704 0.950 . S
H730 C706 0.950 . S
H731 C707 0.949 . S
H732 C709 0.950 . S
H733 C711 0.950 . S
C734 C735 1.349 . S
C734 C736 1.327 . S
C734 H759 0.950 . S
C735 C734 1.349 . S
C735 C751 1.349 . S
C736 C734 1.327 . S
C736 C755 1.429 . S
C736 H760 0.950 . S
C737 C754 1.574 . S
C737 C756 1.368 . S
C737 H761 0.949 . S
H738 C742 0.949 . S
C739 C740 1.349 . S
C739 C741 1.327 . S
C739 H762 0.950 . S
C740 C739 1.349 . S
C740 C752 1.349 . S
C741 C739 1.327 . S
C741 C757 1.429 . S
C741 H763 0.950 . S
C742 H738 0.949 . S
C742 C750 1.574 . S
C742 C758 1.368 . S
H743 C751 0.950 . S
H744 C749 0.950 . S
H745 C750 0.949 . S
H746 C752 0.950 . S
H747 C753 0.950 . S
H748 C754 0.949 . S
C749 H744 0.950 . S
C749 C751 1.327 . S
C749 C755 1.429 . S
C750 C742 1.574 . S
C750 H745 0.949 . S
C750 C756 1.368 . S
C751 C735 1.349 . S
C751 H743 0.950 . S
C751 C749 1.327 . S
C752 C740 1.349 . S
C752 H746 0.950 . S
C752 C753 1.327 . S
C753 H747 0.950 . S
C753 C752 1.327 . S
C753 C757 1.429 . S
C754 C737 1.574 . S
C754 H748 0.949 . S
C754 C758 1.368 . S
C755 C736 1.429 . S
C755 C749 1.429 . S
C755 C756 1.523 . S
C756 C737 1.368 . S
C756 C750 1.368 . S
C756 C755 1.523 . S
C757 C741 1.429 . S
C757 C753 1.429 . S
C757 C758 1.523 . S
C758 C742 1.368 . S
C758 C754 1.368 . S
C758 C757 1.523 . S
H759 C734 0.950 . S
H760 C736 0.950 . S
H761 C737 0.949 . S
H762 C739 0.950 . S
H763 C741 0.950 . S
C764 C765 1.349 . S
C764 C766 1.327 . S
C764 H789 0.950 . S
C765 C764 1.349 . S
C765 C781 1.349 1_455 S
C766 C764 1.327 . S
C766 C785 1.429 1_455 S
C766 H790 0.950 . S
C767 C784 1.574 . S
C767 C786 1.368 . S
C767 H791 0.949 . S
H768 C772 0.949 . S
C769 C770 1.349 . S
C769 C771 1.327 . S
C769 H792 0.950 . S
C770 C769 1.349 . S
C770 C782 1.349 . S
C771 C769 1.327 . S
C771 C787 1.429 . S
C771 H793 0.950 . S
C772 H768 0.949 . S
C772 C780 1.574 . S
C772 C788 1.368 . S
H773 C781 0.950 . S
H774 C779 0.950 . S
H775 C780 0.949 . S
H776 C782 0.950 . S
H777 C783 0.950 . S
H778 C784 0.949 . S
C779 H774 0.950 . S
C779 C781 1.327 . S
C779 C785 1.429 . S
C780 C772 1.574 . S
C780 H775 0.949 . S
C780 C786 1.368 . S
C781 C765 1.349 1_655 S
C781 H773 0.950 . S
C781 C779 1.327 . S
C782 C770 1.349 . S
C782 H776 0.950 . S
C782 C783 1.327 . S
C783 H777 0.950 . S
C783 C782 1.327 . S
C783 C787 1.429 . S
C784 C767 1.574 . S
C784 H778 0.949 . S
C784 C788 1.368 . S
C785 C766 1.429 1_655 S
C785 C779 1.429 . S
C785 C786 1.523 . S
C786 C767 1.368 . S
C786 C780 1.368 . S
C786 C785 1.523 . S
C787 C771 1.429 . S
C787 C783 1.429 . S
C787 C788 1.523 . S
C788 C772 1.368 . S
C788 C784 1.368 . S
C788 C787 1.523 . S
H789 C764 0.950 . S
H790 C766 0.950 . S
H791 C767 0.949 . S
H792 C769 0.950 . S
H793 C771 0.950 . S
C794 C795 1.349 . S
C794 C796 1.327 . S
C794 H819 0.950 . S
C795 C794 1.349 . S
C795 C811 1.349 1_545 S
C796 C794 1.327 . S
C796 C815 1.429 1_545 S
C796 H820 0.950 . S
C797 C814 1.574 . S
C797 C816 1.368 . S
C797 H821 0.949 . S
H798 C802 0.949 . S
C799 C800 1.349 . S
C799 C801 1.327 . S
C799 H822 0.950 . S
C800 C799 1.349 . S
C800 C812 1.349 . S
C801 C799 1.327 . S
C801 C817 1.429 . S
C801 H823 0.950 . S
C802 H798 0.949 . S
C802 C810 1.574 . S
C802 C818 1.368 . S
H803 C811 0.950 . S
H804 C809 0.950 . S
H805 C810 0.949 1_545 S
H806 C812 0.950 . S
H807 C813 0.950 . S
H808 C814 0.949 . S
C809 H804 0.950 . S
C809 C811 1.327 . S
C809 C815 1.429 . S
C810 C802 1.574 . S
C810 H805 0.949 1_565 S
C810 C816 1.368 . S
C811 C795 1.349 1_565 S
C811 H803 0.950 . S
C811 C809 1.327 . S
C812 C800 1.349 . S
C812 H806 0.950 . S
C812 C813 1.327 . S
C813 H807 0.950 . S
C813 C812 1.327 . S
C813 C817 1.429 . S
C814 C797 1.574 . S
C814 H808 0.949 . S
C814 C818 1.368 . S
C815 C796 1.429 1_565 S
C815 C809 1.429 . S
C815 C816 1.523 . S
C816 C797 1.368 . S
C816 C810 1.368 . S
C816 C815 1.523 . S
C817 C801 1.429 . S
C817 C813 1.429 . S
C817 C818 1.523 . S
C818 C802 1.368 . S
C818 C814 1.368 . S
C818 C817 1.523 . S
H819 C794 0.950 . S
H820 C796 0.950 . S
H821 C797 0.949 . S
H822 C799 0.950 . S
H823 C801 0.950 . S
C824 C825 1.349 . S
C824 C826 1.327 . S
C824 H849 0.950 . S
C825 C824 1.349 . S
C825 C841 1.349 1_655 S
C826 C824 1.327 . S
C826 C845 1.429 1_655 S
C826 H850 0.950 . S
C827 C844 1.574 . S
C827 C846 1.368 . S
C827 H851 0.949 . S
H828 C832 0.949 . S
C829 C830 1.349 . S
C829 C831 1.327 . S
C829 H852 0.950 . S
C830 C829 1.349 . S
C830 C842 1.349 . S
C831 C829 1.327 . S
C831 C847 1.429 . S
C831 H853 0.950 . S
C832 H828 0.949 . S
C832 C840 1.574 . S
C832 C848 1.368 . S
H833 C841 0.950 . S
H834 C839 0.950 . S
H835 C840 0.949 . S
H836 C842 0.950 . S
H837 C843 0.950 . S
H838 C844 0.949 . S
C839 H834 0.950 . S
C839 C841 1.327 . S
C839 C845 1.429 . S
C840 C832 1.574 . S
C840 H835 0.949 . S
C840 C846 1.368 . S
C841 C825 1.349 1_455 S
C841 H833 0.950 . S
C841 C839 1.327 . S
C842 C830 1.349 . S
C842 H836 0.950 . S
C842 C843 1.327 . S
C843 H837 0.950 . S
C843 C842 1.327 . S
C843 C847 1.429 . S
C844 C827 1.574 . S
C844 H838 0.949 . S
C844 C848 1.368 . S
C845 C826 1.429 1_455 S
C845 C839 1.429 . S
C845 C846 1.523 . S
C846 C827 1.368 . S
C846 C840 1.368 . S
C846 C845 1.523 . S
C847 C831 1.429 . S
C847 C843 1.429 . S
C847 C848 1.523 . S
C848 C832 1.368 . S
C848 C844 1.368 . S
C848 C847 1.523 . S
H849 C824 0.950 . S
H850 C826 0.950 . S
H851 C827 0.949 . S
H852 C829 0.950 . S
H853 C831 0.950 . S
C854 C855 1.349 1_545 S
C854 C856 1.327 . S
C854 H879 0.950 . S
C855 C854 1.349 1_565 S
C855 C871 1.349 . S
C856 C854 1.327 . S
C856 C875 1.429 . S
C856 H880 0.950 . S
C857 C874 1.574 . S
C857 C876 1.368 . S
C857 H881 0.948 . S
H858 C862 0.949 . S
C859 C860 1.349 . S
C859 C861 1.327 . S
C859 H882 0.950 . S
C860 C859 1.349 . S
C860 C872 1.349 . S
C861 C859 1.327 . S
C861 C877 1.429 . S
C861 H883 0.950 . S
C862 H858 0.949 . S
C862 C870 1.574 . S
C862 C878 1.368 . S
H863 C871 0.950 . S
H864 C869 0.950 . S
H865 C870 0.949 . S
H866 C872 0.950 . S
H867 C873 0.950 . S
H868 C874 0.949 . S
C869 H864 0.950 . S
C869 C871 1.327 . S
C869 C875 1.429 1_565 S
C870 C862 1.574 . S
C870 H865 0.949 . S
C870 C876 1.368 . S
C871 C855 1.349 . S
C871 H863 0.950 . S
C871 C869 1.327 . S
C872 C860 1.349 . S
C872 H866 0.950 . S
C872 C873 1.327 . S
C873 H867 0.950 . S
C873 C872 1.327 . S
C873 C877 1.429 . S
C874 C857 1.574 . S
C874 H868 0.949 . S
C874 C878 1.368 . S
C875 C856 1.429 . S
C875 C869 1.429 1_545 S
C875 C876 1.523 . S
C876 C857 1.368 . S
C876 C870 1.368 . S
C876 C875 1.523 . S
C877 C861 1.429 . S
C877 C873 1.429 . S
C877 C878 1.523 . S
C878 C862 1.368 . S
C878 C874 1.368 . S
C878 C877 1.523 . S
H879 C854 0.950 . S
H880 C856 0.950 . S
H881 C857 0.948 . S
H882 C859 0.950 . S
H883 C861 0.950 . S
C884 C885 1.349 . S
C884 C886 1.327 . S
C884 H909 0.950 . S
C885 C884 1.349 . S
C885 C901 1.349 . S
C886 C884 1.327 . S
C886 C905 1.429 . S
C886 H910 0.950 . S
C887 C904 1.574 . S
C887 C906 1.368 . S
C887 H911 0.949 . S
H888 C892 0.949 . S
C889 C890 1.349 . S
C889 C891 1.327 . S
C889 H912 0.950 . S
C890 C889 1.349 . S
C890 C902 1.349 . S
C891 C889 1.327 . S
C891 C907 1.429 . S
C891 H913 0.950 . S
C892 H888 0.949 . S
C892 C900 1.574 . S
C892 C908 1.368 . S
H893 C901 0.950 . S
H894 C899 0.950 . S
H895 C900 0.949 . S
H896 C902 0.950 . S
H897 C903 0.950 . S
H898 C904 0.949 . S
C899 H894 0.950 . S
C899 C901 1.327 . S
C899 C905 1.429 . S
C900 C892 1.574 . S
C900 H895 0.949 . S
C900 C906 1.368 . S
C901 C885 1.349 . S
C901 H893 0.950 . S
C901 C899 1.327 . S
C902 C890 1.349 . S
C902 H896 0.950 . S
C902 C903 1.327 . S
C903 H897 0.950 . S
C903 C902 1.327 . S
C903 C907 1.429 . S
C904 C887 1.574 . S
C904 H898 0.949 . S
C904 C908 1.368 . S
C905 C886 1.429 . S
C905 C899 1.429 . S
C905 C906 1.523 . S
C906 C887 1.368 . S
C906 C900 1.368 . S
C906 C905 1.523 . S
C907 C891 1.429 . S
C907 C903 1.429 . S
C907 C908 1.523 . S
C908 C892 1.368 . S
C908 C904 1.368 . S
C908 C907 1.523 . S
H909 C884 0.950 . S
H910 C886 0.950 . S
H911 C887 0.949 . S
H912 C889 0.950 . S
H913 C891 0.950 . S
C914 C915 1.349 . S
C914 C916 1.327 . S
C914 H939 0.950 . S
C915 C914 1.349 . S
C915 C931 1.349 . S
C916 C914 1.327 . S
C916 C935 1.429 . S
C916 H940 0.950 . S
C917 C934 1.574 . S
C917 C936 1.368 . S
C917 H941 0.949 . S
H918 C922 0.949 . S
C919 C920 1.349 . S
C919 C921 1.327 . S
C919 H942 0.950 . S
C920 C919 1.349 . S
C920 C932 1.349 . S
C921 C919 1.327 . S
C921 C937 1.429 . S
C921 H943 0.950 . S
C922 H918 0.949 . S
C922 C930 1.574 . S
C922 C938 1.368 . S
H923 C931 0.950 . S
H924 C929 0.950 . S
H925 C930 0.949 . S
H926 C932 0.950 . S
H927 C933 0.950 . S
H928 C934 0.949 . S
C929 H924 0.950 . S
C929 C931 1.327 . S
C929 C935 1.429 . S
C930 C922 1.574 . S
C930 H925 0.949 . S
C930 C936 1.368 . S
C931 C915 1.349 . S
C931 H923 0.950 . S
C931 C929 1.327 . S
C932 C920 1.349 . S
C932 H926 0.950 . S
C932 C933 1.327 . S
C933 H927 0.950 . S
C933 C932 1.327 . S
C933 C937 1.429 . S
C934 C917 1.574 . S
C934 H928 0.949 . S
C934 C938 1.368 . S
C935 C916 1.429 . S
C935 C929 1.429 . S
C935 C936 1.523 . S
C936 C917 1.368 . S
C936 C930 1.368 . S
C936 C935 1.523 . S
C937 C921 1.429 . S
C937 C933 1.429 . S
C937 C938 1.523 . S
C938 C922 1.368 . S
C938 C934 1.368 . S
C938 C937 1.523 . S
H939 C914 0.950 . S
H940 C916 0.950 . S
H941 C917 0.949 . S
H942 C919 0.950 . S
H943 C921 0.950 . S
C944 C945 1.349 . S
C944 C946 1.327 . S
C944 H969 0.950 . S
C945 C944 1.349 . S
C945 C961 1.349 . S
C946 C944 1.327 . S
C946 C965 1.429 . S
C946 H970 0.950 . S
C947 C964 1.574 . S
C947 C966 1.368 . S
C947 H971 0.949 . S
H948 C952 0.949 . S
C949 C950 1.349 . S
C949 C951 1.327 . S
C949 H972 0.950 . S
C950 C949 1.349 . S
C950 C962 1.349 . S
C951 C949 1.327 . S
C951 C967 1.429 . S
C951 H973 0.950 . S
C952 H948 0.949 . S
C952 C960 1.574 . S
C952 C968 1.368 . S
H953 C961 0.950 . S
H954 C959 0.950 . S
H955 C960 0.949 . S
H956 C962 0.950 . S
H957 C963 0.950 . S
H958 C964 0.949 . S
C959 H954 0.950 . S
C959 C961 1.327 . S
C959 C965 1.429 . S
C960 C952 1.574 . S
C960 H955 0.949 . S
C960 C966 1.368 . S
C961 C945 1.349 . S
C961 H953 0.950 . S
C961 C959 1.327 . S
C962 C950 1.349 . S
C962 H956 0.950 . S
C962 C963 1.327 . S
C963 H957 0.950 . S
C963 C962 1.327 . S
C963 C967 1.429 . S
C964 C947 1.574 . S
C964 H958 0.949 . S
C964 C968 1.368 . S
C965 C946 1.429 . S
C965 C959 1.429 . S
C965 C966 1.523 . S
C966 C947 1.368 . S
C966 C960 1.368 . S
C966 C965 1.523 . S
C967 C951 1.429 . S
C967 C963 1.429 . S
C967 C968 1.523 . S
C968 C952 1.368 . S
C968 C964 1.368 . S
C968 C967 1.523 . S
H969 C944 0.950 . S
H970 C946 0.950 . S
H971 C947 0.949 . S
H972 C949 0.950 . S
H973 C951 0.950 . S
C974 C975 1.349 . S
C974 C976 1.327 . S
C974 H999 0.950 . S
C975 C974 1.349 . S
C975 C991 1.349 . S
C976 C974 1.327 . S
C976 C995 1.429 . S
C976 H1000 0.950 . S
C977 C994 1.574 . S
C977 C996 1.368 . S
C977 H1001 0.949 . S
H978 C982 0.949 . S
C979 C980 1.349 . S
C979 C981 1.327 . S
C979 H1002 0.950 . S
C980 C979 1.349 . S
C980 C992 1.349 . S
C981 C979 1.327 . S
C981 C997 1.429 . S
C981 H1003 0.950 . S
C982 H978 0.949 . S
C982 C990 1.574 . S
C982 C998 1.368 . S
H983 C991 0.950 . S
H984 C989 0.950 . S
H985 C990 0.949 . S
H986 C992 0.950 . S
H987 C993 0.950 . S
H988 C994 0.949 . S
C989 H984 0.950 . S
C989 C991 1.327 . S
C989 C995 1.429 . S
C990 C982 1.574 . S
C990 H985 0.949 . S
C990 C996 1.368 . S
C991 C975 1.349 . S
C991 H983 0.950 . S
C991 C989 1.327 . S
C992 C980 1.349 . S
C992 H986 0.950 . S
C992 C993 1.327 . S
C993 H987 0.950 . S
C993 C992 1.327 . S
C993 C997 1.429 . S
C994 C977 1.574 . S
C994 H988 0.949 . S
C994 C998 1.368 . S
C995 C976 1.429 . S
C995 C989 1.429 . S
C995 C996 1.523 . S
C996 C977 1.368 . S
C996 C990 1.368 . S
C996 C995 1.523 . S
C997 C981 1.429 . S
C997 C993 1.429 . S
C997 C998 1.523 . S
C998 C982 1.368 . S
C998 C994 1.368 . S
C998 C997 1.523 . S
H999 C974 0.950 . S
H1000 C976 0.950 . S
H1001 C977 0.949 . S
H1002 C979 0.950 . S
H1003 C981 0.950 . S
C1004 C1005 1.349 . S
C1004 C1006 1.327 . S
C1004 H1029 0.950 . S
C1005 C1004 1.349 . S
C1005 C1021 1.349 1_655 S
C1006 C1004 1.327 . S
C1006 C1025 1.429 1_655 S
C1006 H1030 0.950 . S
C1007 C1024 1.574 . S
C1007 C1026 1.368 . S
C1007 H1031 0.949 . S
H1008 C1012 0.949 . S
C1009 C1010 1.349 . S
C1009 C1011 1.327 . S
C1009 H1032 0.950 . S
C1010 C1009 1.349 . S
C1010 C1022 1.349 . S
C1011 C1009 1.327 . S
C1011 C1027 1.429 . S
C1011 H1033 0.950 . S
C1012 H1008 0.949 . S
C1012 C1020 1.574 . S
C1012 C1028 1.368 . S
H1013 C1021 0.950 . S
H1014 C1019 0.950 . S
H1015 C1020 0.949 . S
H1016 C1022 0.950 . S
H1017 C1023 0.950 . S
H1018 C1024 0.949 . S
C1019 H1014 0.950 . S
C1019 C1021 1.327 . S
C1019 C1025 1.429 . S
C1020 C1012 1.574 . S
C1020 H1015 0.949 . S
C1020 C1026 1.368 . S
C1021 C1005 1.349 1_455 S
C1021 H1013 0.950 . S
C1021 C1019 1.327 . S
C1022 C1010 1.349 . S
C1022 H1016 0.950 . S
C1022 C1023 1.327 . S
C1023 H1017 0.950 . S
C1023 C1022 1.327 . S
C1023 C1027 1.429 . S
C1024 C1007 1.574 . S
C1024 H1018 0.949 . S
C1024 C1028 1.368 . S
C1025 C1006 1.429 1_455 S
C1025 C1019 1.429 . S
C1025 C1026 1.523 . S
C1026 C1007 1.368 . S
C1026 C1020 1.368 . S
C1026 C1025 1.523 . S
C1027 C1011 1.429 . S
C1027 C1023 1.429 . S
C1027 C1028 1.523 . S
C1028 C1012 1.368 . S
C1028 C1024 1.368 . S
C1028 C1027 1.523 . S
H1029 C1004 0.950 . S
H1030 C1006 0.950 . S
H1031 C1007 0.949 . S
H1032 C1009 0.950 . S
H1033 C1011 0.950 . S
C1034 C1035 1.349 1_545 S
C1034 C1036 1.327 . S
C1034 H1059 0.950 . S
C1035 C1034 1.349 1_565 S
C1035 C1051 1.349 . S
C1036 C1034 1.327 . S
C1036 C1055 1.429 . S
C1036 H1060 0.950 . S
C1037 C1054 1.574 . S
C1037 C1056 1.368 . S
C1037 H1061 0.949 . S
H1038 C1042 0.949 . S
C1039 C1040 1.349 . S
C1039 C1041 1.327 . S
C1039 H1062 0.950 . S
C1040 C1039 1.349 . S
C1040 C1052 1.349 . S
C1041 C1039 1.327 . S
C1041 C1057 1.429 . S
C1041 H1063 0.950 . S
C1042 H1038 0.949 . S
C1042 C1050 1.574 . S
C1042 C1058 1.368 . S
H1043 C1051 0.950 . S
H1044 C1049 0.950 . S
H1045 C1050 0.949 . S
H1046 C1052 0.950 . S
H1047 C1053 0.950 . S
H1048 C1054 0.949 . S
C1049 H1044 0.950 . S
C1049 C1051 1.327 1_545 S
C1049 C1055 1.429 . S
C1050 C1042 1.574 . S
C1050 H1045 0.949 . S
C1050 C1056 1.368 . S
C1051 C1035 1.349 . S
C1051 H1043 0.950 . S
C1051 C1049 1.327 1_565 S
C1052 C1040 1.349 . S
C1052 H1046 0.950 . S
C1052 C1053 1.327 . S
C1053 H1047 0.950 . S
C1053 C1052 1.327 . S
C1053 C1057 1.429 . S
C1054 C1037 1.574 . S
C1054 H1048 0.949 . S
C1054 C1058 1.368 . S
C1055 C1036 1.429 . S
C1055 C1049 1.429 . S
C1055 C1056 1.523 . S
C1056 C1037 1.368 . S
C1056 C1050 1.368 . S
C1056 C1055 1.523 . S
C1057 C1041 1.429 . S
C1057 C1053 1.429 . S
C1057 C1058 1.523 . S
C1058 C1042 1.368 . S
C1058 C1054 1.368 . S
C1058 C1057 1.523 . S
H1059 C1034 0.950 . S
H1060 C1036 0.950 . S
H1061 C1037 0.949 . S
H1062 C1039 0.950 . S
H1063 C1041 0.950 . S
C1064 C1065 1.349 1_655 S
C1064 C1066 1.327 . S
C1064 H1089 0.950 . S
C1065 C1064 1.349 1_455 S
C1065 C1081 1.349 . S
C1066 C1064 1.327 . S
C1066 C1085 1.429 . S
C1066 H1090 0.950 . S
C1067 C1084 1.574 . S
C1067 C1086 1.368 . S
C1067 H1091 0.949 1_655 S
H1068 C1072 0.949 . S
C1069 C1070 1.349 . S
C1069 C1071 1.327 . S
C1069 H1092 0.950 . S
C1070 C1069 1.349 . S
C1070 C1082 1.349 . S
C1071 C1069 1.327 . S
C1071 C1087 1.429 . S
C1071 H1093 0.950 . S
C1072 H1068 0.949 . S
C1072 C1080 1.574 . S
C1072 C1088 1.368 . S
H1073 C1081 0.950 . S
H1074 C1079 0.950 . S
H1075 C1080 0.949 . S
H1076 C1082 0.950 . S
H1077 C1083 0.950 . S
H1078 C1084 0.949 . S
C1079 H1074 0.950 . S
C1079 C1081 1.327 . S
C1079 C1085 1.429 1_455 S
C1080 C1072 1.574 . S
C1080 H1075 0.949 . S
C1080 C1086 1.368 . S
C1081 C1065 1.349 . S
C1081 H1073 0.950 . S
C1081 C1079 1.327 . S
C1082 C1070 1.349 . S
C1082 H1076 0.950 . S
C1082 C1083 1.327 . S
C1083 H1077 0.950 . S
C1083 C1082 1.327 . S
C1083 C1087 1.429 . S
C1084 C1067 1.574 . S
C1084 H1078 0.949 . S
C1084 C1088 1.368 . S
C1085 C1066 1.429 . S
C1085 C1079 1.429 1_655 S
C1085 C1086 1.523 . S
C1086 C1067 1.368 . S
C1086 C1080 1.368 . S
C1086 C1085 1.523 . S
C1087 C1071 1.429 . S
C1087 C1083 1.429 . S
C1087 C1088 1.523 . S
C1088 C1072 1.368 . S
C1088 C1084 1.368 . S
C1088 C1087 1.523 . S
H1089 C1064 0.950 . S
H1090 C1066 0.950 . S
H1091 C1067 0.949 1_455 S
H1092 C1069 0.950 . S
H1093 C1071 0.950 . S
C1094 C1095 1.345 1_565 S
C1094 C1096 1.333 . S
C1094 H1119 0.948 1_565 S
C1095 C1094 1.345 1_545 S
C1095 C1111 1.349 . S
C1096 C1094 1.333 . S
C1096 C1115 1.429 . S
C1096 H1120 0.950 . S
C1097 C1114 1.574 . S
C1097 C1116 1.368 . S
C1097 H1121 0.949 . S
H1098 C1102 0.949 . S
C1099 C1100 1.349 . S
C1099 C1101 1.327 . S
C1099 H1122 0.950 . S
C1100 C1099 1.349 . S
C1100 C1112 1.349 . S
C1101 C1099 1.327 . S
C1101 C1117 1.429 . S
C1101 H1123 0.950 . S
C1102 H1098 0.949 . S
C1102 C1110 1.574 . S
C1102 C1118 1.368 . S
H1103 C1111 0.950 . S
H1104 C1109 0.950 . S
H1105 C1110 0.949 . S
H1106 C1112 0.950 . S
H1107 C1113 0.950 . S
H1108 C1114 0.949 . S
C1109 H1104 0.950 . S
C1109 C1111 1.327 1_565 S
C1109 C1115 1.429 . S
C1110 C1102 1.574 . S
C1110 H1105 0.949 . S
C1110 C1116 1.368 . S
C1111 C1095 1.349 . S
C1111 H1103 0.950 . S
C1111 C1109 1.327 1_545 S
C1112 C1100 1.349 . S
C1112 H1106 0.950 . S
C1112 C1113 1.327 . S
C1113 H1107 0.950 . S
C1113 C1112 1.327 . S
C1113 C1117 1.429 . S
C1114 C1097 1.574 . S
C1114 H1108 0.949 . S
C1114 C1118 1.368 . S
C1115 C1096 1.429 . S
C1115 C1109 1.429 . S
C1115 C1116 1.523 . S
C1116 C1097 1.368 . S
C1116 C1110 1.368 . S
C1116 C1115 1.523 . S
C1117 C1101 1.429 . S
C1117 C1113 1.429 . S
C1117 C1118 1.523 . S
C1118 C1102 1.368 . S
C1118 C1114 1.368 . S
C1118 C1117 1.523 . S
H1119 C1094 0.948 1_545 S
H1120 C1096 0.950 . S
H1121 C1097 0.949 . S
H1122 C1099 0.950 . S
H1123 C1101 0.950 . S
C1124 C1125 1.349 . S
C1124 C1126 1.327 . S
C1124 H1149 0.950 . S
C1125 C1124 1.349 . S
C1125 C1141 1.349 . S
C1126 C1124 1.327 . S
C1126 C1145 1.429 . S
C1126 H1150 0.950 . S
C1127 C1144 1.574 . S
C1127 C1146 1.368 . S
C1127 H1151 0.949 . S
H1128 C1132 0.949 . S
C1129 C1130 1.349 . S
C1129 C1131 1.327 . S
C1129 H1152 0.950 . S
C1130 C1129 1.349 . S
C1130 C1142 1.349 . S
C1131 C1129 1.327 . S
C1131 C1147 1.429 . S
C1131 H1153 0.950 . S
C1132 H1128 0.949 . S
C1132 C1140 1.574 . S
C1132 C1148 1.368 . S
H1133 C1141 0.950 . S
H1134 C1139 0.950 . S
H1135 C1140 0.949 . S
H1136 C1142 0.950 . S
H1137 C1143 0.950 . S
H1138 C1144 0.949 . S
C1139 H1134 0.950 . S
C1139 C1141 1.327 . S
C1139 C1145 1.429 . S
C1140 C1132 1.574 . S
C1140 H1135 0.949 . S
C1140 C1146 1.368 . S
C1141 C1125 1.349 . S
C1141 H1133 0.950 . S
C1141 C1139 1.327 . S
C1142 C1130 1.349 . S
C1142 H1136 0.950 . S
C1142 C1143 1.327 . S
C1143 H1137 0.950 . S
C1143 C1142 1.327 . S
C1143 C1147 1.429 . S
C1144 C1127 1.574 . S
C1144 H1138 0.949 . S
C1144 C1148 1.368 . S
C1145 C1126 1.429 . S
C1145 C1139 1.429 . S
C1145 C1146 1.523 . S
C1146 C1127 1.368 . S
C1146 C1140 1.368 . S
C1146 C1145 1.523 . S
C1147 C1131 1.429 . S
C1147 C1143 1.429 . S
C1147 C1148 1.523 . S
C1148 C1132 1.368 . S
C1148 C1144 1.368 . S
C1148 C1147 1.523 . S
H1149 C1124 0.950 . S
H1150 C1126 0.950 . S
H1151 C1127 0.949 . S
H1152 C1129 0.950 . S
H1153 C1131 0.950 . S
C1154 C1155 1.349 . S
C1154 C1156 1.327 . S
C1154 H1179 0.950 . S
C1155 C1154 1.349 . S
C1155 C1171 1.349 . S
C1156 C1154 1.327 . S
C1156 C1175 1.429 . S
C1156 H1180 0.950 . S
C1157 C1174 1.574 . S
C1157 C1176 1.368 . S
C1157 H1181 0.949 . S
H1158 C1162 0.949 . S
C1159 C1160 1.349 . S
C1159 C1161 1.327 . S
C1159 H1182 0.950 . S
C1160 C1159 1.349 . S
C1160 C1172 1.349 . S
C1161 C1159 1.327 . S
C1161 C1177 1.429 . S
C1161 H1183 0.950 . S
C1162 H1158 0.949 . S
C1162 C1170 1.574 . S
C1162 C1178 1.368 . S
H1163 C1171 0.950 . S
H1164 C1169 0.950 . S
H1165 C1170 0.949 . S
H1166 C1172 0.950 . S
H1167 C1173 0.950 . S
H1168 C1174 0.949 . S
C1169 H1164 0.950 . S
C1169 C1171 1.327 . S
C1169 C1175 1.429 . S
C1170 C1162 1.574 . S
C1170 H1165 0.949 . S
C1170 C1176 1.368 . S
C1171 C1155 1.349 . S
C1171 H1163 0.950 . S
C1171 C1169 1.327 . S
C1172 C1160 1.349 . S
C1172 H1166 0.950 . S
C1172 C1173 1.327 . S
C1173 H1167 0.950 . S
C1173 C1172 1.327 . S
C1173 C1177 1.429 . S
C1174 C1157 1.574 . S
C1174 H1168 0.949 . S
C1174 C1178 1.368 . S
C1175 C1156 1.429 . S
C1175 C1169 1.429 . S
C1175 C1176 1.523 . S
C1176 C1157 1.368 . S
C1176 C1170 1.368 . S
C1176 C1175 1.523 . S
C1177 C1161 1.429 . S
C1177 C1173 1.429 . S
C1177 C1178 1.523 . S
C1178 C1162 1.368 . S
C1178 C1174 1.368 . S
C1178 C1177 1.523 . S
H1179 C1154 0.950 . S
H1180 C1156 0.950 . S
H1181 C1157 0.949 . S
H1182 C1159 0.950 . S
H1183 C1161 0.950 . S
C1184 C1185 1.349 . S
C1184 C1186 1.327 . S
C1184 H1209 0.950 . S
C1185 C1184 1.349 . S
C1185 C1201 1.349 . S
C1186 C1184 1.327 . S
C1186 C1205 1.429 . S
C1186 H1210 0.950 . S
C1187 C1204 1.574 . S
C1187 C1206 1.368 . S
C1187 H1211 0.949 . S
H1188 C1192 0.949 . S
C1189 C1190 1.349 . S
C1189 C1191 1.327 . S
C1189 H1212 0.950 . S
C1190 C1189 1.349 . S
C1190 C1202 1.349 . S
C1191 C1189 1.327 . S
C1191 C1207 1.429 . S
C1191 H1213 0.950 . S
C1192 H1188 0.949 . S
C1192 C1200 1.546 1_554 S
C1192 C1208 1.368 . S
H1193 C1201 0.950 . S
H1194 C1199 0.950 . S
H1195 C1200 0.945 1_554 S
H1196 C1202 0.950 . S
H1197 C1203 0.950 . S
H1198 C1204 0.949 . S
C1199 H1194 0.950 . S
C1199 C1201 1.327 . S
C1199 C1205 1.429 . S
C1200 C1192 1.546 1_556 S
C1200 H1195 0.945 1_556 S
C1200 C1206 1.403 . S
C1201 C1185 1.349 . S
C1201 H1193 0.950 . S
C1201 C1199 1.327 . S
C1202 C1190 1.349 . S
C1202 H1196 0.950 . S
C1202 C1203 1.327 . S
C1203 H1197 0.950 . S
C1203 C1202 1.327 . S
C1203 C1207 1.429 . S
C1204 C1187 1.574 . S
C1204 H1198 0.949 . S
C1204 C1208 1.368 1_556 S
C1205 C1186 1.429 . S
C1205 C1199 1.429 . S
C1205 C1206 1.523 . S
C1206 C1187 1.368 . S
C1206 C1200 1.403 . S
C1206 C1205 1.523 . S
C1207 C1191 1.429 . S
C1207 C1203 1.429 . S
C1207 C1208 1.523 . S
C1208 C1192 1.368 . S
C1208 C1204 1.368 1_554 S
C1208 C1207 1.523 . S
H1209 C1184 0.950 . S
H1210 C1186 0.950 . S
H1211 C1187 0.949 . S
H1212 C1189 0.950 . S
H1213 C1191 0.950 . S
C1214 C1215 1.349 . S
C1214 C1216 1.327 . S
C1214 H1239 0.950 . S
C1215 C1214 1.349 . S
C1215 C1231 1.349 . S
C1216 C1214 1.327 . S
C1216 C1235 1.429 . S
C1216 H1240 0.950 . S
C1217 C1234 1.574 1_556 S
C1217 C1236 1.368 . S
C1217 H1241 0.949 . S
H1218 C1222 0.949 . S
C1219 C1220 1.349 . S
C1219 C1221 1.327 . S
C1219 H1242 0.950 . S
C1220 C1219 1.349 . S
C1220 C1232 1.349 . S
C1221 C1219 1.327 . S
C1221 C1237 1.429 . S
C1221 H1243 0.950 . S
C1222 H1218 0.949 . S
C1222 C1230 1.574 . S
C1222 C1238 1.368 1_556 S
H1223 C1231 0.950 . S
H1224 C1229 0.950 . S
H1225 C1230 0.949 . S
H1226 C1232 0.950 . S
H1227 C1233 0.950 . S
H1228 C1234 0.949 . S
C1229 H1224 0.950 . S
C1229 C1231 1.327 . S
C1229 C1235 1.429 . S
C1230 C1222 1.574 . S
C1230 H1225 0.949 . S
C1230 C1236 1.368 . S
C1231 C1215 1.349 . S
C1231 H1223 0.950 . S
C1231 C1229 1.327 . S
C1232 C1220 1.349 . S
C1232 H1226 0.950 . S
C1232 C1233 1.327 . S
C1233 H1227 0.950 . S
C1233 C1232 1.327 . S
C1233 C1237 1.429 . S
C1234 C1217 1.574 1_554 S
C1234 H1228 0.949 . S
C1234 C1238 1.368 . S
C1235 C1216 1.429 . S
C1235 C1229 1.429 . S
C1235 C1236 1.523 . S
C1236 C1217 1.368 . S
C1236 C1230 1.368 . S
C1236 C1235 1.523 . S
C1237 C1221 1.429 . S
C1237 C1233 1.429 . S
C1237 C1238 1.523 . S
C1238 C1222 1.368 1_554 S
C1238 C1234 1.368 . S
C1238 C1237 1.523 . S
H1239 C1214 0.950 . S
H1240 C1216 0.950 . S
H1241 C1217 0.949 . S
H1242 C1219 0.950 . S
H1243 C1221 0.950 . S
C1244 C1245 1.349 . S
C1244 C1246 1.327 . S
C1244 H1269 0.950 . S
C1245 C1244 1.349 . S
C1245 C1261 1.349 . S
C1246 C1244 1.327 . S
C1246 C1265 1.429 . S
C1246 H1270 0.950 . S
C1247 C1264 1.574 . S
C1247 C1266 1.368 . S
C1247 H1271 0.949 . S
H1248 C1252 0.949 . S
C1249 C1250 1.349 . S
C1249 C1251 1.327 . S
C1249 H1272 0.950 . S
C1250 C1249 1.349 . S
C1250 C1262 1.349 . S
C1251 C1249 1.327 . S
C1251 C1267 1.429 . S
C1251 H1273 0.950 . S
C1252 H1248 0.949 . S
C1252 C1260 1.546 1_554 S
C1252 C1268 1.368 . S
H1253 C1261 0.950 . S
H1254 C1259 0.950 . S
H1255 C1260 0.945 1_554 S
H1256 C1262 0.950 . S
H1257 C1263 0.950 . S
H1258 C1264 0.949 . S
C1259 H1254 0.950 . S
C1259 C1261 1.327 . S
C1259 C1265 1.429 . S
C1260 C1252 1.546 1_556 S
C1260 H1255 0.945 1_556 S
C1260 C1266 1.403 . S
C1261 C1245 1.349 . S
C1261 H1253 0.950 . S
C1261 C1259 1.327 . S
C1262 C1250 1.349 . S
C1262 H1256 0.950 . S
C1262 C1263 1.327 . S
C1263 H1257 0.950 . S
C1263 C1262 1.327 . S
C1263 C1267 1.429 . S
C1264 C1247 1.574 . S
C1264 H1258 0.949 . S
C1264 C1268 1.368 1_556 S
C1265 C1246 1.429 . S
C1265 C1259 1.429 . S
C1265 C1266 1.523 . S
C1266 C1247 1.368 . S
C1266 C1260 1.403 . S
C1266 C1265 1.523 . S
C1267 C1251 1.429 . S
C1267 C1263 1.429 . S
C1267 C1268 1.523 . S
C1268 C1252 1.368 . S
C1268 C1264 1.368 1_554 S
C1268 C1267 1.523 . S
H1269 C1244 0.950 . S
H1270 C1246 0.950 . S
H1271 C1247 0.949 . S
H1272 C1249 0.950 . S
H1273 C1251 0.950 . S
C1274 C1275 1.349 . S
C1274 C1276 1.327 . S
C1274 H1299 0.950 . S
C1275 C1274 1.349 . S
C1275 C1291 1.349 . S
C1276 C1274 1.327 . S
C1276 C1295 1.429 . S
C1276 H1300 0.950 . S
C1277 C1294 1.574 . S
C1277 C1296 1.368 . S
C1277 H1301 0.949 . S
H1278 C1282 0.949 . S
C1279 C1280 1.349 . S
C1279 C1281 1.327 . S
C1279 H1302 0.950 . S
C1280 C1279 1.349 . S
C1280 C1292 1.349 . S
C1281 C1279 1.327 . S
C1281 C1297 1.429 . S
C1281 H1303 0.950 . S
C1282 H1278 0.949 . S
C1282 C1290 1.574 1_554 S
C1282 C1298 1.368 . S
H1283 C1291 0.950 . S
H1284 C1289 0.950 . S
H1285 C1290 0.949 . S
H1286 C1292 0.950 . S
H1287 C1293 0.950 . S
H1288 C1294 0.949 . S
C1289 H1284 0.950 . S
C1289 C1291 1.327 . S
C1289 C1295 1.429 . S
C1290 C1282 1.574 1_556 S
C1290 H1285 0.949 . S
C1290 C1296 1.368 . S
C1291 C1275 1.349 . S
C1291 H1283 0.950 . S
C1291 C1289 1.327 . S
C1292 C1280 1.349 . S
C1292 H1286 0.950 . S
C1292 C1293 1.327 . S
C1293 H1287 0.950 . S
C1293 C1292 1.327 . S
C1293 C1297 1.429 . S
C1294 C1277 1.574 . S
C1294 H1288 0.949 . S
C1294 C1298 1.368 1_556 S
C1295 C1276 1.429 . S
C1295 C1289 1.429 . S
C1295 C1296 1.523 . S
C1296 C1277 1.368 . S
C1296 C1290 1.368 . S
C1296 C1295 1.523 . S
C1297 C1281 1.429 . S
C1297 C1293 1.429 . S
C1297 C1298 1.523 . S
C1298 C1282 1.368 . S
C1298 C1294 1.368 1_554 S
C1298 C1297 1.523 . S
H1299 C1274 0.950 . S
H1300 C1276 0.950 . S
H1301 C1277 0.949 . S
H1302 C1279 0.950 . S
H1303 C1281 0.950 . S
C1304 C1305 1.349 . S
C1304 C1306 1.327 . S
C1304 H1329 0.950 . S
C1305 C1304 1.349 . S
C1305 C1321 1.349 . S
C1306 C1304 1.327 . S
C1306 C1325 1.429 . S
C1306 H1330 0.950 . S
C1307 C1324 1.574 . S
C1307 C1326 1.368 . S
C1307 H1331 0.949 . S
H1308 C1312 0.949 . S
C1309 C1310 1.349 . S
C1309 C1311 1.327 . S
C1309 H1332 0.950 . S
C1310 C1309 1.349 . S
C1310 C1322 1.349 . S
C1311 C1309 1.327 . S
C1311 C1327 1.429 . S
C1311 H1333 0.950 . S
C1312 H1308 0.949 . S
C1312 C1320 1.574 . S
C1312 C1328 1.368 . S
H1313 C1321 0.950 . S
H1314 C1319 0.950 . S
H1315 C1320 0.949 . S
H1316 C1322 0.950 . S
H1317 C1323 0.950 . S
H1318 C1324 0.949 . S
C1319 H1314 0.950 . S
C1319 C1321 1.327 . S
C1319 C1325 1.429 . S
C1320 C1312 1.574 . S
C1320 H1315 0.949 . S
C1320 C1326 1.368 . S
C1321 C1305 1.349 . S
C1321 H1313 0.950 . S
C1321 C1319 1.327 . S
C1322 C1310 1.349 . S
C1322 H1316 0.950 . S
C1322 C1323 1.327 . S
C1323 H1317 0.950 . S
C1323 C1322 1.327 . S
C1323 C1327 1.429 . S
C1324 C1307 1.574 . S
C1324 H1318 0.949 . S
C1324 C1328 1.368 . S
C1325 C1306 1.429 . S
C1325 C1319 1.429 . S
C1325 C1326 1.523 . S
C1326 C1307 1.368 . S
C1326 C1320 1.368 . S
C1326 C1325 1.523 . S
C1327 C1311 1.429 . S
C1327 C1323 1.429 . S
C1327 C1328 1.523 . S
C1328 C1312 1.368 . S
C1328 C1324 1.368 . S
C1328 C1327 1.523 . S
H1329 C1304 0.950 . S
H1330 C1306 0.950 . S
H1331 C1307 0.949 . S
H1332 C1309 0.950 . S
H1333 C1311 0.950 . S
C1334 C1335 1.349 . S
C1334 C1336 1.327 . S
C1334 H1359 0.950 . S
C1335 C1334 1.349 . S
C1335 C1351 1.349 . S
C1336 C1334 1.327 . S
C1336 C1355 1.429 . S
C1336 H1360 0.950 . S
C1337 C1354 1.574 . S
C1337 C1356 1.368 . S
C1337 H1361 0.949 . S
H1338 C1342 0.949 . S
C1339 C1340 1.349 . S
C1339 C1341 1.327 . S
C1339 H1362 0.950 . S
C1340 C1339 1.349 . S
C1340 C1352 1.349 . S
C1341 C1339 1.327 . S
C1341 C1357 1.429 . S
C1341 H1363 0.950 . S
C1342 H1338 0.949 . S
C1342 C1350 1.574 . S
C1342 C1358 1.368 . S
H1343 C1351 0.950 . S
H1344 C1349 0.950 . S
H1345 C1350 0.949 . S
H1346 C1352 0.950 . S
H1347 C1353 0.950 . S
H1348 C1354 0.949 . S
C1349 H1344 0.950 . S
C1349 C1351 1.327 . S
C1349 C1355 1.429 . S
C1350 C1342 1.574 . S
C1350 H1345 0.949 . S
C1350 C1356 1.368 . S
C1351 C1335 1.349 . S
C1351 H1343 0.950 . S
C1351 C1349 1.327 . S
C1352 C1340 1.349 . S
C1352 H1346 0.950 . S
C1352 C1353 1.327 . S
C1353 H1347 0.950 . S
C1353 C1352 1.327 . S
C1353 C1357 1.429 . S
C1354 C1337 1.574 . S
C1354 H1348 0.949 . S
C1354 C1358 1.368 . S
C1355 C1336 1.429 . S
C1355 C1349 1.429 . S
C1355 C1356 1.523 . S
C1356 C1337 1.368 . S
C1356 C1350 1.368 . S
C1356 C1355 1.523 . S
C1357 C1341 1.429 . S
C1357 C1353 1.429 . S
C1357 C1358 1.523 . S
C1358 C1342 1.368 . S
C1358 C1354 1.368 . S
C1358 C1357 1.523 . S
H1359 C1334 0.950 . S
H1360 C1336 0.950 . S
H1361 C1337 0.949 . S
H1362 C1339 0.950 . S
H1363 C1341 0.950 . S
C1364 C1365 1.349 . S
C1364 C1366 1.327 . S
C1364 H1389 0.950 . S
C1365 C1364 1.349 . S
C1365 C1381 1.349 . S
C1366 C1364 1.327 . S
C1366 C1385 1.429 . S
C1366 H1390 0.950 . S
C1367 C1384 1.574 . S
C1367 C1386 1.368 . S
C1367 H1391 0.949 . S
H1368 C1372 0.949 . S
C1369 C1370 1.349 . S
C1369 C1371 1.327 . S
C1369 H1392 0.950 . S
C1370 C1369 1.349 . S
C1370 C1382 1.349 . S
C1371 C1369 1.327 . S
C1371 C1387 1.429 . S
C1371 H1393 0.950 . S
C1372 H1368 0.949 . S
C1372 C1380 1.574 . S
C1372 C1388 1.368 . S
H1373 C1381 0.950 . S
H1374 C1379 0.950 . S
H1375 C1380 0.949 . S
H1376 C1382 0.950 . S
H1377 C1383 0.950 . S
H1378 C1384 0.949 . S
C1379 H1374 0.950 . S
C1379 C1381 1.327 . S
C1379 C1385 1.429 . S
C1380 C1372 1.574 . S
C1380 H1375 0.949 . S
C1380 C1386 1.368 . S
C1381 C1365 1.349 . S
C1381 H1373 0.950 . S
C1381 C1379 1.327 . S
C1382 C1370 1.349 . S
C1382 H1376 0.950 . S
C1382 C1383 1.327 . S
C1383 H1377 0.950 . S
C1383 C1382 1.327 . S
C1383 C1387 1.429 . S
C1384 C1367 1.574 . S
C1384 H1378 0.949 . S
C1384 C1388 1.368 . S
C1385 C1366 1.429 . S
C1385 C1379 1.429 . S
C1385 C1386 1.523 . S
C1386 C1367 1.368 . S
C1386 C1380 1.368 . S
C1386 C1385 1.523 . S
C1387 C1371 1.429 . S
C1387 C1383 1.429 . S
C1387 C1388 1.523 . S
C1388 C1372 1.368 . S
C1388 C1384 1.368 . S
C1388 C1387 1.523 . S
H1389 C1364 0.950 . S
H1390 C1366 0.950 . S
H1391 C1367 0.949 . S
H1392 C1369 0.950 . S
H1393 C1371 0.950 . S
C1394 C1395 1.349 . S
C1394 C1396 1.327 . S
C1394 H1419 0.950 . S
C1395 C1394 1.349 . S
C1395 C1411 1.349 . S
C1396 C1394 1.327 . S
C1396 C1415 1.429 . S
C1396 H1420 0.950 . S
C1397 C1414 1.574 . S
C1397 C1416 1.368 . S
C1397 H1421 0.949 . S
H1398 C1402 0.949 . S
C1399 C1400 1.349 . S
C1399 C1401 1.327 . S
C1399 H1422 0.950 . S
C1400 C1399 1.349 . S
C1400 C1412 1.349 . S
C1401 C1399 1.327 . S
C1401 C1417 1.429 . S
C1401 H1423 0.950 . S
C1402 H1398 0.949 . S
C1402 C1410 1.574 . S
C1402 C1418 1.368 . S
H1403 C1411 0.950 . S
H1404 C1409 0.950 . S
H1405 C1410 0.949 . S
H1406 C1412 0.950 . S
H1407 C1413 0.950 . S
H1408 C1414 0.949 . S
C1409 H1404 0.950 . S
C1409 C1411 1.327 . S
C1409 C1415 1.429 . S
C1410 C1402 1.574 . S
C1410 H1405 0.949 . S
C1410 C1416 1.368 . S
C1411 C1395 1.349 . S
C1411 H1403 0.950 . S
C1411 C1409 1.327 . S
C1412 C1400 1.349 . S
C1412 H1406 0.950 . S
C1412 C1413 1.327 . S
C1413 H1407 0.950 . S
C1413 C1412 1.327 . S
C1413 C1417 1.429 . S
C1414 C1397 1.574 . S
C1414 H1408 0.949 . S
C1414 C1418 1.368 . S
C1415 C1396 1.429 . S
C1415 C1409 1.429 . S
C1415 C1416 1.523 . S
C1416 C1397 1.368 . S
C1416 C1410 1.368 . S
C1416 C1415 1.523 . S
C1417 C1401 1.429 . S
C1417 C1413 1.429 . S
C1417 C1418 1.523 . S
C1418 C1402 1.368 . S
C1418 C1414 1.368 . S
C1418 C1417 1.523 . S
H1419 C1394 0.950 . S
H1420 C1396 0.950 . S
H1421 C1397 0.949 . S
H1422 C1399 0.950 . S
H1423 C1401 0.950 . S
C1424 C1425 1.349 . S
C1424 C1426 1.327 . S
C1424 H1449 0.950 . S
C1425 C1424 1.349 . S
C1425 C1441 1.349 . S
C1426 C1424 1.327 . S
C1426 C1445 1.429 . S
C1426 H1450 0.950 . S
C1427 C1444 1.574 . S
C1427 C1446 1.368 1_554 S
C1427 H1451 0.949 . S
H1428 C1432 0.949 . S
C1429 C1430 1.349 . S
C1429 C1431 1.327 . S
C1429 H1452 0.950 . S
C1430 C1429 1.349 . S
C1430 C1442 1.349 . S
C1431 C1429 1.327 . S
C1431 C1447 1.429 . S
C1431 H1453 0.950 . S
C1432 H1428 0.949 . S
C1432 C1440 1.574 . S
C1432 C1448 1.368 1_556 S
H1433 C1441 0.950 . S
H1434 C1439 0.950 . S
H1435 C1440 0.949 . S
H1436 C1442 0.950 . S
H1437 C1443 0.950 . S
H1438 C1444 0.949 . S
C1439 H1434 0.950 . S
C1439 C1441 1.327 . S
C1439 C1445 1.429 . S
C1440 C1432 1.574 . S
C1440 H1435 0.949 . S
C1440 C1446 1.368 . S
C1441 C1425 1.349 . S
C1441 H1433 0.950 . S
C1441 C1439 1.327 . S
C1442 C1430 1.349 . S
C1442 H1436 0.950 . S
C1442 C1443 1.327 . S
C1443 H1437 0.950 . S
C1443 C1442 1.327 . S
C1443 C1447 1.429 . S
C1444 C1427 1.574 . S
C1444 H1438 0.949 . S
C1444 C1448 1.368 . S
C1445 C1426 1.429 . S
C1445 C1439 1.429 . S
C1445 C1446 1.523 . S
C1446 C1427 1.368 1_556 S
C1446 C1440 1.368 . S
C1446 C1445 1.523 . S
C1447 C1431 1.429 . S
C1447 C1443 1.429 . S
C1447 C1448 1.523 . S
C1448 C1432 1.368 1_554 S
C1448 C1444 1.368 . S
C1448 C1447 1.523 . S
H1449 C1424 0.950 . S
H1450 C1426 0.950 . S
H1451 C1427 0.949 . S
H1452 C1429 0.950 . S
H1453 C1431 0.950 . S
C1454 C1455 1.349 . S
C1454 C1456 1.327 . S
C1454 H1479 0.950 . S
C1455 C1454 1.349 . S
C1455 C1471 1.349 . S
C1456 C1454 1.327 . S
C1456 C1475 1.429 . S
C1456 H1480 0.950 . S
C1457 C1474 1.574 . S
C1457 C1476 1.368 1_554 S
C1457 H1481 0.949 . S
H1458 C1462 0.949 . S
C1459 C1460 1.349 . S
C1459 C1461 1.327 . S
C1459 H1482 0.950 . S
C1460 C1459 1.349 . S
C1460 C1472 1.349 . S
C1461 C1459 1.327 . S
C1461 C1477 1.429 . S
C1461 H1483 0.950 . S
C1462 H1458 0.949 . S
C1462 C1470 1.572 . S
C1462 C1478 1.370 1_556 S
H1463 C1471 0.950 . S
H1464 C1469 0.950 . S
H1465 C1470 0.949 . S
H1466 C1472 0.950 . S
H1467 C1473 0.950 . S
H1468 C1474 0.949 . S
C1469 H1464 0.950 . S
C1469 C1471 1.327 . S
C1469 C1475 1.429 . S
C1470 C1462 1.572 . S
C1470 H1465 0.949 . S
C1470 C1476 1.368 . S
C1471 C1455 1.349 . S
C1471 H1463 0.950 . S
C1471 C1469 1.327 . S
C1472 C1460 1.349 . S
C1472 H1466 0.950 . S
C1472 C1473 1.327 . S
C1473 H1467 0.950 . S
C1473 C1472 1.327 . S
C1473 C1477 1.429 . S
C1474 C1457 1.574 . S
C1474 H1468 0.949 . S
C1474 C1478 1.368 . S
C1475 C1456 1.429 . S
C1475 C1469 1.429 . S
C1475 C1476 1.523 . S
C1476 C1457 1.368 1_556 S
C1476 C1470 1.368 . S
C1476 C1475 1.523 . S
C1477 C1461 1.429 . S
C1477 C1473 1.429 . S
C1477 C1478 1.523 . S
C1478 C1462 1.370 1_554 S
C1478 C1474 1.368 . S
C1478 C1477 1.523 . S
H1479 C1454 0.950 . S
H1480 C1456 0.950 . S
H1481 C1457 0.949 . S
H1482 C1459 0.950 . S
H1483 C1461 0.950 . S
C1484 C1485 1.349 . S
C1484 C1486 1.327 . S
C1484 H1509 0.950 . S
C1485 C1484 1.349 . S
C1485 C1501 1.349 . S
C1486 C1484 1.327 . S
C1486 C1505 1.429 . S
C1486 H1510 0.950 . S
C1487 C1504 1.609 . S
C1487 C1506 1.344 1_554 S
C1487 H1511 0.942 1_554 S
H1488 C1492 0.949 . S
C1489 C1490 1.349 . S
C1489 C1491 1.327 . S
C1489 H1512 0.950 . S
C1490 C1489 1.349 . S
C1490 C1502 1.349 . S
C1491 C1489 1.327 . S
C1491 C1507 1.429 . S
C1491 H1513 0.950 . S
C1492 H1488 0.949 . S
C1492 C1500 1.574 1_554 S
C1492 C1508 1.368 . S
H1493 C1501 0.950 . S
H1494 C1499 0.950 . S
H1495 C1500 0.949 . S
H1496 C1502 0.950 . S
H1497 C1503 0.950 . S
H1498 C1504 0.949 . S
C1499 H1494 0.950 . S
C1499 C1501 1.327 . S
C1499 C1505 1.429 . S
C1500 C1492 1.574 1_556 S
C1500 H1495 0.949 . S
C1500 C1506 1.368 . S
C1501 C1485 1.349 . S
C1501 H1493 0.950 . S
C1501 C1499 1.327 . S
C1502 C1490 1.349 . S
C1502 H1496 0.950 . S
C1502 C1503 1.327 . S
C1503 H1497 0.950 . S
C1503 C1502 1.327 . S
C1503 C1507 1.429 . S
C1504 C1487 1.609 . S
C1504 H1498 0.949 . S
C1504 C1508 1.368 . S
C1505 C1486 1.429 . S
C1505 C1499 1.429 . S
C1505 C1506 1.523 . S
C1506 C1487 1.344 1_556 S
C1506 C1500 1.368 . S
C1506 C1505 1.523 . S
C1507 C1491 1.429 . S
C1507 C1503 1.429 . S
C1507 C1508 1.523 . S
C1508 C1492 1.368 . S
C1508 C1504 1.368 . S
C1508 C1507 1.523 . S
H1509 C1484 0.950 . S
H1510 C1486 0.950 . S
H1511 C1487 0.942 1_556 S
H1512 C1489 0.950 . S
H1513 C1491 0.950 . S
C1514 C1515 1.349 . S
C1514 C1516 1.327 . S
C1514 H1539 0.950 . S
C1515 C1514 1.349 . S
C1515 C1531 1.349 . S
C1516 C1514 1.327 . S
C1516 C1535 1.429 . S
C1516 H1540 0.950 . S
C1517 C1534 1.608 . S
C1517 C1536 1.324 1_556 S
C1517 H1541 0.960 . S
H1518 C1522 0.949 . S
C1519 C1520 1.349 . S
C1519 C1521 1.327 . S
C1519 H1542 0.950 . S
C1520 C1519 1.349 . S
C1520 C1532 1.349 . S
C1521 C1519 1.327 . S
C1521 C1537 1.429 . S
C1521 H1543 0.950 . S
C1522 H1518 0.949 . S
C1522 C1530 1.574 . S
C1522 C1538 1.368 1_554 S
H1523 C1531 0.950 . S
H1524 C1529 0.950 . S
H1525 C1530 0.949 . S
H1526 C1532 0.950 . S
H1527 C1533 0.950 . S
H1528 C1534 0.949 . S
C1529 H1524 0.950 . S
C1529 C1531 1.327 . S
C1529 C1535 1.429 . S
C1530 C1522 1.574 . S
C1530 H1525 0.949 . S
C1530 C1536 1.368 . S
C1531 C1515 1.349 . S
C1531 H1523 0.950 . S
C1531 C1529 1.327 . S
C1532 C1520 1.349 . S
C1532 H1526 0.950 . S
C1532 C1533 1.327 . S
C1533 H1527 0.950 . S
C1533 C1532 1.327 . S
C1533 C1537 1.429 . S
C1534 C1517 1.608 . S
C1534 H1528 0.949 . S
C1534 C1538 1.368 . S
C1535 C1516 1.429 . S
C1535 C1529 1.429 . S
C1535 C1536 1.523 . S
C1536 C1517 1.324 1_554 S
C1536 C1530 1.368 . S
C1536 C1535 1.523 . S
C1537 C1521 1.429 . S
C1537 C1533 1.429 . S
C1537 C1538 1.523 . S
C1538 C1522 1.368 1_556 S
C1538 C1534 1.368 . S
C1538 C1537 1.523 . S
H1539 C1514 0.950 . S
H1540 C1516 0.950 . S
H1541 C1517 0.960 . S
H1542 C1519 0.950 . S
H1543 C1521 0.950 . S
C1544 C1545 1.349 . S
C1544 C1546 1.327 . S
C1544 H1569 0.950 . S
C1545 C1544 1.349 . S
C1545 C1561 1.349 . S
C1546 C1544 1.327 . S
C1546 C1565 1.429 . S
C1546 H1570 0.950 . S
C1547 C1564 1.574 . S
C1547 C1566 1.368 . S
C1547 H1571 0.949 . S
H1548 C1552 0.949 . S
C1549 C1550 1.349 . S
C1549 C1551 1.327 . S
C1549 H1572 0.950 . S
C1550 C1549 1.349 . S
C1550 C1562 1.349 . S
C1551 C1549 1.327 . S
C1551 C1567 1.429 . S
C1551 H1573 0.950 . S
C1552 H1548 0.949 . S
C1552 C1560 1.574 . S
C1552 C1568 1.368 . S
H1553 C1561 0.950 . S
H1554 C1559 0.950 . S
H1555 C1560 0.949 . S
H1556 C1562 0.950 . S
H1557 C1563 0.950 . S
H1558 C1564 0.949 . S
C1559 H1554 0.950 . S
C1559 C1561 1.327 . S
C1559 C1565 1.429 . S
C1560 C1552 1.574 . S
C1560 H1555 0.949 . S
C1560 C1566 1.368 . S
C1561 C1545 1.349 . S
C1561 H1553 0.950 . S
C1561 C1559 1.327 . S
C1562 C1550 1.349 . S
C1562 H1556 0.950 . S
C1562 C1563 1.327 . S
C1563 H1557 0.950 . S
C1563 C1562 1.327 . S
C1563 C1567 1.429 . S
C1564 C1547 1.574 . S
C1564 H1558 0.949 . S
C1564 C1568 1.368 . S
C1565 C1546 1.429 . S
C1565 C1559 1.429 . S
C1565 C1566 1.523 . S
C1566 C1547 1.368 . S
C1566 C1560 1.368 . S
C1566 C1565 1.523 . S
C1567 C1551 1.429 . S
C1567 C1563 1.429 . S
C1567 C1568 1.523 . S
C1568 C1552 1.368 . S
C1568 C1564 1.368 . S
C1568 C1567 1.523 . S
H1569 C1544 0.950 . S
H1570 C1546 0.950 . S
H1571 C1547 0.949 . S
H1572 C1549 0.950 . S
H1573 C1551 0.950 . S
C1574 C1575 1.349 . S
C1574 C1576 1.327 . S
C1574 H1599 0.950 . S
C1575 C1574 1.349 . S
C1575 C1591 1.349 . S
C1576 C1574 1.327 . S
C1576 C1595 1.429 . S
C1576 H1600 0.950 . S
C1577 C1594 1.574 . S
C1577 C1596 1.368 . S
C1577 H1601 0.949 . S
H1578 C1582 0.949 . S
C1579 C1580 1.349 . S
C1579 C1581 1.327 . S
C1579 H1602 0.950 . S
C1580 C1579 1.349 . S
C1580 C1592 1.349 . S
C1581 C1579 1.327 . S
C1581 C1597 1.429 . S
C1581 H1603 0.950 . S
C1582 H1578 0.949 . S
C1582 C1590 1.574 . S
C1582 C1598 1.368 . S
H1583 C1591 0.950 . S
H1584 C1589 0.950 . S
H1585 C1590 0.949 . S
H1586 C1592 0.950 . S
H1587 C1593 0.950 . S
H1588 C1594 0.949 . S
C1589 H1584 0.950 . S
C1589 C1591 1.327 . S
C1589 C1595 1.429 . S
C1590 C1582 1.574 . S
C1590 H1585 0.949 . S
C1590 C1596 1.368 . S
C1591 C1575 1.349 . S
C1591 H1583 0.950 . S
C1591 C1589 1.327 . S
C1592 C1580 1.349 . S
C1592 H1586 0.950 . S
C1592 C1593 1.327 . S
C1593 H1587 0.950 . S
C1593 C1592 1.327 . S
C1593 C1597 1.429 . S
C1594 C1577 1.574 . S
C1594 H1588 0.949 . S
C1594 C1598 1.368 . S
C1595 C1576 1.429 . S
C1595 C1589 1.429 . S
C1595 C1596 1.523 . S
C1596 C1577 1.368 . S
C1596 C1590 1.368 . S
C1596 C1595 1.523 . S
C1597 C1581 1.429 . S
C1597 C1593 1.429 . S
C1597 C1598 1.523 . S
C1598 C1582 1.368 . S
C1598 C1594 1.368 . S
C1598 C1597 1.523 . S
H1599 C1574 0.950 . S
H1600 C1576 0.950 . S
H1601 C1577 0.949 . S
H1602 C1579 0.950 . S
H1603 C1581 0.950 . S
C1604 C1605 1.349 . S
C1604 C1606 1.327 . S
C1604 H1629 0.950 . S
C1605 C1604 1.349 . S
C1605 C1621 1.349 . S
C1606 C1604 1.327 . S
C1606 C1625 1.429 . S
C1606 H1630 0.950 . S
C1607 C1624 1.574 . S
C1607 C1626 1.368 . S
C1607 H1631 0.949 . S
H1608 C1612 0.949 . S
C1609 C1610 1.349 . S
C1609 C1611 1.327 . S
C1609 H1632 0.950 . S
C1610 C1609 1.349 . S
C1610 C1622 1.349 . S
C1611 C1609 1.327 . S
C1611 C1627 1.429 . S
C1611 H1633 0.950 . S
C1612 H1608 0.949 . S
C1612 C1620 1.574 . S
C1612 C1628 1.368 . S
H1613 C1621 0.950 . S
H1614 C1619 0.950 . S
H1615 C1620 0.949 . S
H1616 C1622 0.950 . S
H1617 C1623 0.950 . S
H1618 C1624 0.949 . S
C1619 H1614 0.950 . S
C1619 C1621 1.327 . S
C1619 C1625 1.429 . S
C1620 C1612 1.574 . S
C1620 H1615 0.949 . S
C1620 C1626 1.368 . S
C1621 C1605 1.349 . S
C1621 H1613 0.950 . S
C1621 C1619 1.327 . S
C1622 C1610 1.349 . S
C1622 H1616 0.950 . S
C1622 C1623 1.327 . S
C1623 H1617 0.950 . S
C1623 C1622 1.327 . S
C1623 C1627 1.429 . S
C1624 C1607 1.574 . S
C1624 H1618 0.949 . S
C1624 C1628 1.368 . S
C1625 C1606 1.429 . S
C1625 C1619 1.429 . S
C1625 C1626 1.523 . S
C1626 C1607 1.368 . S
C1626 C1620 1.368 . S
C1626 C1625 1.523 . S
C1627 C1611 1.429 . S
C1627 C1623 1.429 . S
C1627 C1628 1.523 . S
C1628 C1612 1.368 . S
C1628 C1624 1.368 . S
C1628 C1627 1.523 . S
H1629 C1604 0.950 . S
H1630 C1606 0.950 . S
H1631 C1607 0.949 . S
H1632 C1609 0.950 . S
H1633 C1611 0.950 . S
C1634 C1635 1.349 . S
C1634 C1636 1.327 . S
C1634 H1659 0.950 . S
C1635 C1634 1.349 . S
C1635 C1651 1.349 . S
C1636 C1634 1.327 . S
C1636 C1655 1.429 . S
C1636 H1660 0.950 . S
C1637 C1654 1.574 . S
C1637 C1656 1.368 . S
C1637 H1661 0.949 . S
H1638 C1642 0.949 . S
C1639 C1640 1.349 . S
C1639 C1641 1.327 . S
C1639 H1662 0.950 . S
C1640 C1639 1.349 . S
C1640 C1652 1.349 . S
C1641 C1639 1.327 . S
C1641 C1657 1.429 . S
C1641 H1663 0.950 . S
C1642 H1638 0.949 . S
C1642 C1650 1.574 . S
C1642 C1658 1.368 . S
H1643 C1651 0.950 . S
H1644 C1649 0.950 . S
H1645 C1650 0.949 . S
H1646 C1652 0.950 . S
H1647 C1653 0.950 . S
H1648 C1654 0.949 . S
C1649 H1644 0.950 . S
C1649 C1651 1.327 . S
C1649 C1655 1.429 . S
C1650 C1642 1.574 . S
C1650 H1645 0.949 . S
C1650 C1656 1.368 . S
C1651 C1635 1.349 . S
C1651 H1643 0.950 . S
C1651 C1649 1.327 . S
C1652 C1640 1.349 . S
C1652 H1646 0.950 . S
C1652 C1653 1.327 . S
C1653 H1647 0.950 . S
C1653 C1652 1.327 . S
C1653 C1657 1.429 . S
C1654 C1637 1.574 . S
C1654 H1648 0.949 . S
C1654 C1658 1.368 . S
C1655 C1636 1.429 . S
C1655 C1649 1.429 . S
C1655 C1656 1.523 . S
C1656 C1637 1.368 . S
C1656 C1650 1.368 . S
C1656 C1655 1.523 . S
C1657 C1641 1.429 . S
C1657 C1653 1.429 . S
C1657 C1658 1.523 . S
C1658 C1642 1.368 . S
C1658 C1654 1.368 . S
C1658 C1657 1.523 . S
H1659 C1634 0.950 . S
H1660 C1636 0.950 . S
H1661 C1637 0.949 . S
H1662 C1639 0.950 . S
H1663 C1641 0.950 . S
C1664 C1665 1.349 . S
C1664 C1666 1.327 . S
C1664 H1689 0.950 . S
C1665 C1664 1.349 . S
C1665 C1681 1.349 . S
C1666 C1664 1.327 . S
C1666 C1685 1.429 . S
C1666 H1690 0.950 . S
C1667 C1684 1.574 . S
C1667 C1686 1.368 . S
C1667 H1691 0.949 . S
H1668 C1672 0.949 . S
C1669 C1670 1.349 . S
C1669 C1671 1.327 . S
C1669 H1692 0.950 . S
C1670 C1669 1.349 . S
C1670 C1682 1.349 . S
C1671 C1669 1.327 . S
C1671 C1687 1.429 . S
C1671 H1693 0.950 . S
C1672 H1668 0.949 . S
C1672 C1680 1.574 . S
C1672 C1688 1.368 . S
H1673 C1681 0.950 . S
H1674 C1679 0.950 . S
H1675 C1680 0.949 . S
H1676 C1682 0.950 . S
H1677 C1683 0.950 . S
H1678 C1684 0.949 . S
C1679 H1674 0.950 . S
C1679 C1681 1.327 . S
C1679 C1685 1.429 . S
C1680 C1672 1.574 . S
C1680 H1675 0.949 . S
C1680 C1686 1.368 . S
C1681 C1665 1.349 . S
C1681 H1673 0.950 . S
C1681 C1679 1.327 . S
C1682 C1670 1.349 . S
C1682 H1676 0.950 . S
C1682 C1683 1.327 . S
C1683 H1677 0.950 . S
C1683 C1682 1.327 . S
C1683 C1687 1.429 . S
C1684 C1667 1.574 . S
C1684 H1678 0.949 . S
C1684 C1688 1.368 . S
C1685 C1666 1.429 . S
C1685 C1679 1.429 . S
C1685 C1686 1.523 . S
C1686 C1667 1.368 . S
C1686 C1680 1.368 . S
C1686 C1685 1.523 . S
C1687 C1671 1.429 . S
C1687 C1683 1.429 . S
C1687 C1688 1.523 . S
C1688 C1672 1.368 . S
C1688 C1684 1.368 . S
C1688 C1687 1.523 . S
H1689 C1664 0.950 . S
H1690 C1666 0.950 . S
H1691 C1667 0.949 . S
H1692 C1669 0.950 . S
H1693 C1671 0.950 . S
C1694 C1695 1.349 . S
C1694 C1696 1.327 . S
C1694 H1719 0.950 . S
C1695 C1694 1.349 . S
C1695 C1711 1.349 . S
C1696 C1694 1.327 . S
C1696 C1715 1.429 . S
C1696 H1720 0.950 . S
C1697 C1714 1.574 . S
C1697 C1716 1.368 . S
C1697 H1721 0.949 . S
H1698 C1702 0.949 . S
C1699 C1700 1.349 . S
C1699 C1701 1.327 . S
C1699 H1722 0.950 . S
C1700 C1699 1.349 . S
C1700 C1712 1.349 . S
C1701 C1699 1.327 . S
C1701 C1717 1.429 . S
C1701 H1723 0.950 . S
C1702 H1698 0.949 . S
C1702 C1710 1.574 . S
C1702 C1718 1.368 . S
H1703 C1711 0.950 . S
H1704 C1709 0.950 . S
H1705 C1710 0.949 . S
H1706 C1712 0.950 . S
H1707 C1713 0.950 . S
H1708 C1714 0.949 . S
C1709 H1704 0.950 . S
C1709 C1711 1.327 . S
C1709 C1715 1.429 . S
C1710 C1702 1.574 . S
C1710 H1705 0.949 . S
C1710 C1716 1.368 . S
C1711 C1695 1.349 . S
C1711 H1703 0.950 . S
C1711 C1709 1.327 . S
C1712 C1700 1.349 . S
C1712 H1706 0.950 . S
C1712 C1713 1.327 . S
C1713 H1707 0.950 . S
C1713 C1712 1.327 . S
C1713 C1717 1.429 . S
C1714 C1697 1.574 . S
C1714 H1708 0.949 . S
C1714 C1718 1.368 . S
C1715 C1696 1.429 . S
C1715 C1709 1.429 . S
C1715 C1716 1.523 . S
C1716 C1697 1.368 . S
C1716 C1710 1.368 . S
C1716 C1715 1.523 . S
C1717 C1701 1.429 . S
C1717 C1713 1.429 . S
C1717 C1718 1.523 . S
C1718 C1702 1.368 . S
C1718 C1714 1.368 . S
C1718 C1717 1.523 . S
H1719 C1694 0.950 . S
H1720 C1696 0.950 . S
H1721 C1697 0.949 . S
H1722 C1699 0.950 . S
H1723 C1701 0.950 . S
C1724 C1725 1.349 . S
C1724 C1726 1.327 . S
C1724 H1749 0.950 . S
C1725 C1724 1.349 . S
C1725 C1741 1.349 . S
C1726 C1724 1.327 . S
C1726 C1745 1.429 . S
C1726 H1750 0.950 . S
C1727 C1744 1.574 . S
C1727 C1746 1.368 . S
C1727 H1751 0.949 . S
H1728 C1732 0.949 . S
C1729 C1730 1.349 . S
C1729 C1731 1.327 . S
C1729 H1752 0.950 . S
C1730 C1729 1.349 . S
C1730 C1742 1.349 . S
C1731 C1729 1.327 . S
C1731 C1747 1.429 . S
C1731 H1753 0.950 . S
C1732 H1728 0.949 . S
C1732 C1740 1.574 . S
C1732 C1748 1.368 . S
H1733 C1741 0.950 . S
H1734 C1739 0.950 . S
H1735 C1740 0.949 . S
H1736 C1742 0.950 . S
H1737 C1743 0.950 . S
H1738 C1744 0.949 . S
C1739 H1734 0.950 . S
C1739 C1741 1.327 . S
C1739 C1745 1.429 . S
C1740 C1732 1.574 . S
C1740 H1735 0.949 . S
C1740 C1746 1.368 . S
C1741 C1725 1.349 . S
C1741 H1733 0.950 . S
C1741 C1739 1.327 . S
C1742 C1730 1.349 . S
C1742 H1736 0.950 . S
C1742 C1743 1.327 . S
C1743 H1737 0.950 . S
C1743 C1742 1.327 . S
C1743 C1747 1.429 . S
C1744 C1727 1.574 . S
C1744 H1738 0.949 . S
C1744 C1748 1.368 . S
C1745 C1726 1.429 . S
C1745 C1739 1.429 . S
C1745 C1746 1.523 . S
C1746 C1727 1.368 . S
C1746 C1740 1.368 . S
C1746 C1745 1.523 . S
C1747 C1731 1.429 . S
C1747 C1743 1.429 . S
C1747 C1748 1.523 . S
C1748 C1732 1.368 . S
C1748 C1744 1.368 . S
C1748 C1747 1.523 . S
H1749 C1724 0.950 . S
H1750 C1726 0.950 . S
H1751 C1727 0.949 . S
H1752 C1729 0.950 . S
H1753 C1731 0.950 . S
C1754 C1755 1.349 . S
C1754 C1756 1.327 . S
C1754 H1779 0.950 . S
C1755 C1754 1.349 . S
C1755 C1771 1.349 . S
C1756 C1754 1.327 . S
C1756 C1775 1.429 . S
C1756 H1780 0.950 . S
C1757 C1774 1.574 . S
C1757 C1776 1.368 . S
C1757 H1781 0.949 . S
H1758 C1762 0.949 . S
C1759 C1760 1.349 . S
C1759 C1761 1.327 . S
C1759 H1782 0.950 . S
C1760 C1759 1.349 . S
C1760 C1772 1.349 . S
C1761 C1759 1.327 . S
C1761 C1777 1.429 . S
C1761 H1783 0.950 . S
C1762 H1758 0.949 . S
C1762 C1770 1.574 . S
C1762 C1778 1.368 . S
H1763 C1771 0.950 . S
H1764 C1769 0.950 . S
H1765 C1770 0.949 . S
H1766 C1772 0.950 . S
H1767 C1773 0.950 . S
H1768 C1774 0.949 . S
C1769 H1764 0.950 . S
C1769 C1771 1.327 . S
C1769 C1775 1.429 . S
C1770 C1762 1.574 . S
C1770 H1765 0.949 . S
C1770 C1776 1.368 . S
C1771 C1755 1.349 . S
C1771 H1763 0.950 . S
C1771 C1769 1.327 . S
C1772 C1760 1.349 . S
C1772 H1766 0.950 . S
C1772 C1773 1.327 . S
C1773 H1767 0.950 . S
C1773 C1772 1.327 . S
C1773 C1777 1.429 . S
C1774 C1757 1.574 . S
C1774 H1768 0.949 . S
C1774 C1778 1.368 . S
C1775 C1756 1.429 . S
C1775 C1769 1.429 . S
C1775 C1776 1.523 . S
C1776 C1757 1.368 . S
C1776 C1770 1.368 . S
C1776 C1775 1.523 . S
C1777 C1761 1.429 . S
C1777 C1773 1.429 . S
C1777 C1778 1.523 . S
C1778 C1762 1.368 . S
C1778 C1774 1.368 . S
C1778 C1777 1.523 . S
H1779 C1754 0.950 . S
H1780 C1756 0.950 . S
H1781 C1757 0.949 . S
H1782 C1759 0.950 . S
H1783 C1761 0.950 . S
C1784 C1785 1.349 . S
C1784 C1786 1.327 . S
C1784 H1809 0.950 . S
C1785 C1784 1.349 . S
C1785 C1801 1.349 . S
C1786 C1784 1.327 . S
C1786 C1805 1.429 . S
C1786 H1810 0.950 . S
C1787 C1804 1.574 . S
C1787 C1806 1.368 . S
C1787 H1811 0.949 . S
H1788 C1792 0.949 . S
C1789 C1790 1.349 . S
C1789 C1791 1.327 . S
C1789 H1812 0.950 . S
C1790 C1789 1.349 . S
C1790 C1802 1.349 . S
C1791 C1789 1.327 . S
C1791 C1807 1.429 . S
C1791 H1813 0.950 . S
C1792 H1788 0.949 . S
C1792 C1800 1.574 . S
C1792 C1808 1.368 . S
H1793 C1801 0.950 . S
H1794 C1799 0.950 . S
H1795 C1800 0.949 . S
H1796 C1802 0.950 . S
H1797 C1803 0.950 . S
H1798 C1804 0.949 . S
C1799 H1794 0.950 . S
C1799 C1801 1.327 . S
C1799 C1805 1.429 . S
C1800 C1792 1.574 . S
C1800 H1795 0.949 . S
C1800 C1806 1.368 . S
C1801 C1785 1.349 . S
C1801 H1793 0.950 . S
C1801 C1799 1.327 . S
C1802 C1790 1.349 . S
C1802 H1796 0.950 . S
C1802 C1803 1.327 . S
C1803 H1797 0.950 . S
C1803 C1802 1.327 . S
C1803 C1807 1.429 . S
C1804 C1787 1.574 . S
C1804 H1798 0.949 . S
C1804 C1808 1.368 . S
C1805 C1786 1.429 . S
C1805 C1799 1.429 . S
C1805 C1806 1.523 . S
C1806 C1787 1.368 . S
C1806 C1800 1.368 . S
C1806 C1805 1.523 . S
C1807 C1791 1.429 . S
C1807 C1803 1.429 . S
C1807 C1808 1.523 . S
C1808 C1792 1.368 . S
C1808 C1804 1.368 . S
C1808 C1807 1.523 . S
H1809 C1784 0.950 . S
H1810 C1786 0.950 . S
H1811 C1787 0.949 . S
H1812 C1789 0.950 . S
H1813 C1791 0.950 . S
C1814 C1815 1.349 . S
C1814 C1816 1.327 . S
C1814 H1839 0.950 . S
C1815 C1814 1.349 . S
C1815 C1831 1.349 . S
C1816 C1814 1.327 . S
C1816 C1835 1.429 . S
C1816 H1840 0.950 . S
C1817 C1834 1.574 . S
C1817 C1836 1.368 . S
C1817 H1841 0.949 . S
H1818 C1822 0.949 . S
C1819 C1820 1.349 . S
C1819 C1821 1.327 . S
C1819 H1842 0.950 . S
C1820 C1819 1.349 . S
C1820 C1832 1.349 . S
C1821 C1819 1.327 . S
C1821 C1837 1.429 . S
C1821 H1843 0.950 . S
C1822 H1818 0.949 . S
C1822 C1830 1.574 . S
C1822 C1838 1.368 . S
H1823 C1831 0.950 . S
H1824 C1829 0.950 . S
H1825 C1830 0.949 . S
H1826 C1832 0.950 . S
H1827 C1833 0.950 . S
H1828 C1834 0.949 . S
C1829 H1824 0.950 . S
C1829 C1831 1.327 . S
C1829 C1835 1.429 . S
C1830 C1822 1.574 . S
C1830 H1825 0.949 . S
C1830 C1836 1.368 . S
C1831 C1815 1.349 . S
C1831 H1823 0.950 . S
C1831 C1829 1.327 . S
C1832 C1820 1.349 . S
C1832 H1826 0.950 . S
C1832 C1833 1.327 . S
C1833 H1827 0.950 . S
C1833 C1832 1.327 . S
C1833 C1837 1.429 . S
C1834 C1817 1.574 . S
C1834 H1828 0.949 . S
C1834 C1838 1.368 . S
C1835 C1816 1.429 . S
C1835 C1829 1.429 . S
C1835 C1836 1.523 . S
C1836 C1817 1.368 . S
C1836 C1830 1.368 . S
C1836 C1835 1.523 . S
C1837 C1821 1.429 . S
C1837 C1833 1.429 . S
C1837 C1838 1.523 . S
C1838 C1822 1.368 . S
C1838 C1834 1.368 . S
C1838 C1837 1.523 . S
H1839 C1814 0.950 . S
H1840 C1816 0.950 . S
H1841 C1817 0.949 . S
H1842 C1819 0.950 . S
H1843 C1821 0.950 . S
C1844 C1845 1.349 . S
C1844 C1846 1.327 . S
C1844 H1869 0.950 . S
C1845 C1844 1.349 . S
C1845 C1861 1.349 . S
C1846 C1844 1.327 . S
C1846 C1865 1.429 . S
C1846 H1870 0.950 . S
C1847 C1864 1.574 . S
C1847 C1866 1.368 . S
C1847 H1871 0.949 . S
H1848 C1852 0.949 . S
C1849 C1850 1.349 . S
C1849 C1851 1.327 . S
C1849 H1872 0.950 . S
C1850 C1849 1.349 . S
C1850 C1862 1.349 . S
C1851 C1849 1.327 . S
C1851 C1867 1.429 . S
C1851 H1873 0.950 . S
C1852 H1848 0.949 . S
C1852 C1860 1.574 . S
C1852 C1868 1.368 . S
H1853 C1861 0.950 . S
H1854 C1859 0.950 . S
H1855 C1860 0.949 . S
H1856 C1862 0.950 . S
H1857 C1863 0.950 . S
H1858 C1864 0.949 . S
C1859 H1854 0.950 . S
C1859 C1861 1.327 . S
C1859 C1865 1.429 . S
C1860 C1852 1.574 . S
C1860 H1855 0.949 . S
C1860 C1866 1.368 . S
C1861 C1845 1.349 . S
C1861 H1853 0.950 . S
C1861 C1859 1.327 . S
C1862 C1850 1.349 . S
C1862 H1856 0.950 . S
C1862 C1863 1.327 . S
C1863 H1857 0.950 . S
C1863 C1862 1.327 . S
C1863 C1867 1.429 . S
C1864 C1847 1.574 . S
C1864 H1858 0.949 . S
C1864 C1868 1.368 . S
C1865 C1846 1.429 . S
C1865 C1859 1.429 . S
C1865 C1866 1.523 . S
C1866 C1847 1.368 . S
C1866 C1860 1.368 . S
C1866 C1865 1.523 . S
C1867 C1851 1.429 . S
C1867 C1863 1.429 . S
C1867 C1868 1.523 . S
C1868 C1852 1.368 . S
C1868 C1864 1.368 . S
C1868 C1867 1.523 . S
H1869 C1844 0.950 . S
H1870 C1846 0.950 . S
H1871 C1847 0.949 . S
H1872 C1849 0.950 . S
H1873 C1851 0.950 . S
C1874 C1875 1.349 . S
C1874 C1876 1.327 . S
C1874 H1899 0.950 . S
C1875 C1874 1.349 . S
C1875 C1891 1.349 . S
C1876 C1874 1.327 . S
C1876 C1895 1.429 . S
C1876 H1900 0.950 . S
C1877 C1894 1.574 . S
C1877 C1896 1.368 . S
C1877 H1901 0.949 . S
H1878 C1882 0.949 . S
C1879 C1880 1.349 . S
C1879 C1881 1.327 . S
C1879 H1902 0.950 . S
C1880 C1879 1.349 . S
C1880 C1892 1.349 . S
C1881 C1879 1.327 . S
C1881 C1897 1.429 . S
C1881 H1903 0.950 . S
C1882 H1878 0.949 . S
C1882 C1890 1.574 . S
C1882 C1898 1.368 . S
H1883 C1891 0.950 . S
H1884 C1889 0.950 . S
H1885 C1890 0.949 . S
H1886 C1892 0.950 . S
H1887 C1893 0.950 . S
H1888 C1894 0.949 . S
C1889 H1884 0.950 . S
C1889 C1891 1.327 . S
C1889 C1895 1.429 . S
C1890 C1882 1.574 . S
C1890 H1885 0.949 . S
C1890 C1896 1.368 . S
C1891 C1875 1.349 . S
C1891 H1883 0.950 . S
C1891 C1889 1.327 . S
C1892 C1880 1.349 . S
C1892 H1886 0.950 . S
C1892 C1893 1.327 . S
C1893 H1887 0.950 . S
C1893 C1892 1.327 . S
C1893 C1897 1.429 . S
C1894 C1877 1.574 . S
C1894 H1888 0.949 . S
C1894 C1898 1.368 . S
C1895 C1876 1.429 . S
C1895 C1889 1.429 . S
C1895 C1896 1.523 . S
C1896 C1877 1.368 . S
C1896 C1890 1.368 . S
C1896 C1895 1.523 . S
C1897 C1881 1.429 . S
C1897 C1893 1.429 . S
C1897 C1898 1.523 . S
C1898 C1882 1.368 . S
C1898 C1894 1.368 . S
C1898 C1897 1.523 . S
H1899 C1874 0.950 . S
H1900 C1876 0.950 . S
H1901 C1877 0.949 . S
H1902 C1879 0.950 . S
H1903 C1881 0.950 . S
C1904 C1905 1.349 . S
C1904 C1906 1.327 . S
C1904 H1929 0.950 . S
C1905 C1904 1.349 . S
C1905 C1921 1.349 . S
C1906 C1904 1.327 . S
C1906 C1925 1.429 . S
C1906 H1930 0.950 . S
C1907 C1924 1.574 . S
C1907 C1926 1.368 . S
C1907 H1931 0.949 . S
H1908 C1912 0.949 . S
C1909 C1910 1.349 . S
C1909 C1911 1.327 . S
C1909 H1932 0.950 . S
C1910 C1909 1.349 . S
C1910 C1922 1.349 . S
C1911 C1909 1.327 . S
C1911 C1927 1.429 . S
C1911 H1933 0.950 . S
C1912 H1908 0.949 . S
C1912 C1920 1.574 . S
C1912 C1928 1.368 . S
H1913 C1921 0.950 . S
H1914 C1919 0.950 . S
H1915 C1920 0.949 . S
H1916 C1922 0.950 . S
H1917 C1923 0.950 . S
H1918 C1924 0.949 . S
C1919 H1914 0.950 . S
C1919 C1921 1.327 . S
C1919 C1925 1.429 . S
C1920 C1912 1.574 . S
C1920 H1915 0.949 . S
C1920 C1926 1.368 . S
C1921 C1905 1.349 . S
C1921 H1913 0.950 . S
C1921 C1919 1.327 . S
C1922 C1910 1.349 . S
C1922 H1916 0.950 . S
C1922 C1923 1.327 . S
C1923 H1917 0.950 . S
C1923 C1922 1.327 . S
C1923 C1927 1.429 . S
C1924 C1907 1.574 . S
C1924 H1918 0.949 . S
C1924 C1928 1.368 . S
C1925 C1906 1.429 . S
C1925 C1919 1.429 . S
C1925 C1926 1.523 . S
C1926 C1907 1.368 . S
C1926 C1920 1.368 . S
C1926 C1925 1.523 . S
C1927 C1911 1.429 . S
C1927 C1923 1.429 . S
C1927 C1928 1.523 . S
C1928 C1912 1.368 . S
C1928 C1924 1.368 . S
C1928 C1927 1.523 . S
H1929 C1904 0.950 . S
H1930 C1906 0.950 . S
H1931 C1907 0.949 . S
H1932 C1909 0.950 . S
H1933 C1911 0.950 . S
C1934 C1935 1.349 . S
C1934 C1936 1.327 . S
C1934 H1959 0.950 . S
C1935 C1934 1.349 . S
C1935 C1951 1.349 . S
C1936 C1934 1.327 . S
C1936 C1955 1.429 . S
C1936 H1960 0.950 . S
C1937 C1954 1.574 . S
C1937 C1956 1.368 . S
C1937 H1961 0.949 . S
H1938 C1942 0.949 . S
C1939 C1940 1.349 . S
C1939 C1941 1.327 . S
C1939 H1962 0.950 . S
C1940 C1939 1.349 . S
C1940 C1952 1.349 . S
C1941 C1939 1.327 . S
C1941 C1957 1.429 . S
C1941 H1963 0.950 . S
C1942 H1938 0.949 . S
C1942 C1950 1.574 . S
C1942 C1958 1.368 . S
H1943 C1951 0.950 . S
H1944 C1949 0.950 . S
H1945 C1950 0.949 . S
H1946 C1952 0.950 . S
H1947 C1953 0.950 . S
H1948 C1954 0.949 . S
C1949 H1944 0.950 . S
C1949 C1951 1.327 . S
C1949 C1955 1.429 . S
C1950 C1942 1.574 . S
C1950 H1945 0.949 . S
C1950 C1956 1.368 . S
C1951 C1935 1.349 . S
C1951 H1943 0.950 . S
C1951 C1949 1.327 . S
C1952 C1940 1.349 . S
C1952 H1946 0.950 . S
C1952 C1953 1.327 . S
C1953 H1947 0.950 . S
C1953 C1952 1.327 . S
C1953 C1957 1.429 . S
C1954 C1937 1.574 . S
C1954 H1948 0.949 . S
C1954 C1958 1.368 . S
C1955 C1936 1.429 . S
C1955 C1949 1.429 . S
C1955 C1956 1.523 . S
C1956 C1937 1.368 . S
C1956 C1950 1.368 . S
C1956 C1955 1.523 . S
C1957 C1941 1.429 . S
C1957 C1953 1.429 . S
C1957 C1958 1.523 . S
C1958 C1942 1.368 . S
C1958 C1954 1.368 . S
C1958 C1957 1.523 . S
H1959 C1934 0.950 . S
H1960 C1936 0.950 . S
H1961 C1937 0.949 . S
H1962 C1939 0.950 . S
H1963 C1941 0.950 . S
C1964 C1965 1.349 . S
C1964 C1966 1.327 . S
C1964 H1989 0.950 . S
C1965 C1964 1.349 . S
C1965 C1981 1.349 . S
C1966 C1964 1.327 . S
C1966 C1985 1.429 . S
C1966 H1990 0.950 . S
C1967 C1984 1.574 . S
C1967 C1986 1.368 . S
C1967 H1991 0.949 . S
H1968 C1972 0.949 . S
C1969 C1970 1.349 . S
C1969 C1971 1.327 . S
C1969 H1992 0.950 . S
C1970 C1969 1.349 . S
C1970 C1982 1.349 . S
C1971 C1969 1.327 . S
C1971 C1987 1.429 . S
C1971 H1993 0.950 . S
C1972 H1968 0.949 . S
C1972 C1980 1.574 . S
C1972 C1988 1.368 . S
H1973 C1981 0.950 . S
H1974 C1979 0.950 . S
H1975 C1980 0.949 . S
H1976 C1982 0.950 . S
H1977 C1983 0.950 . S
H1978 C1984 0.949 . S
C1979 H1974 0.950 . S
C1979 C1981 1.327 . S
C1979 C1985 1.429 . S
C1980 C1972 1.574 . S
C1980 H1975 0.949 . S
C1980 C1986 1.368 . S
C1981 C1965 1.349 . S
C1981 H1973 0.950 . S
C1981 C1979 1.327 . S
C1982 C1970 1.349 . S
C1982 H1976 0.950 . S
C1982 C1983 1.327 . S
C1983 H1977 0.950 . S
C1983 C1982 1.327 . S
C1983 C1987 1.429 . S
C1984 C1967 1.574 . S
C1984 H1978 0.949 . S
C1984 C1988 1.368 . S
C1985 C1966 1.429 . S
C1985 C1979 1.429 . S
C1985 C1986 1.523 . S
C1986 C1967 1.368 . S
C1986 C1980 1.368 . S
C1986 C1985 1.523 . S
C1987 C1971 1.429 . S
C1987 C1983 1.429 . S
C1987 C1988 1.523 . S
C1988 C1972 1.368 . S
C1988 C1984 1.368 . S
C1988 C1987 1.523 . S
H1989 C1964 0.950 . S
H1990 C1966 0.950 . S
H1991 C1967 0.949 . S
H1992 C1969 0.950 . S
H1993 C1971 0.950 . S
C1994 C1995 1.349 . S
C1994 C1996 1.327 . S
C1994 H2019 0.950 . S
C1995 C1994 1.349 . S
C1995 C2011 1.349 . S
C1996 C1994 1.327 . S
C1996 C2015 1.429 . S
C1996 H2020 0.950 . S
C1997 C2014 1.574 . S
C1997 C2016 1.368 . S
C1997 H2021 0.949 . S
H1998 C2002 0.949 . S
C1999 C2000 1.349 . S
C1999 C2001 1.327 . S
C1999 H2022 0.950 . S
C2000 C1999 1.349 . S
C2000 C2012 1.349 . S
C2001 C1999 1.327 . S
C2001 C2017 1.429 . S
C2001 H2023 0.950 . S
C2002 H1998 0.949 . S
C2002 C2010 1.574 . S
C2002 C2018 1.368 . S
H2003 C2011 0.950 . S
H2004 C2009 0.950 . S
H2005 C2010 0.949 . S
H2006 C2012 0.950 . S
H2007 C2013 0.950 . S
H2008 C2014 0.949 . S
C2009 H2004 0.950 . S
C2009 C2011 1.327 . S
C2009 C2015 1.429 . S
C2010 C2002 1.574 . S
C2010 H2005 0.949 . S
C2010 C2016 1.368 . S
C2011 C1995 1.349 . S
C2011 H2003 0.950 . S
C2011 C2009 1.327 . S
C2012 C2000 1.349 . S
C2012 H2006 0.950 . S
C2012 C2013 1.327 . S
C2013 H2007 0.950 . S
C2013 C2012 1.327 . S
C2013 C2017 1.429 . S
C2014 C1997 1.574 . S
C2014 H2008 0.949 . S
C2014 C2018 1.368 . S
C2015 C1996 1.429 . S
C2015 C2009 1.429 . S
C2015 C2016 1.523 . S
C2016 C1997 1.368 . S
C2016 C2010 1.368 . S
C2016 C2015 1.523 . S
C2017 C2001 1.429 . S
C2017 C2013 1.429 . S
C2017 C2018 1.523 . S
C2018 C2002 1.368 . S
C2018 C2014 1.368 . S
C2018 C2017 1.523 . S
H2019 C1994 0.950 . S
H2020 C1996 0.950 . S
H2021 C1997 0.949 . S
H2022 C1999 0.950 . S
H2023 C2001 0.950 . S
C2024 C2025 1.349 . S
C2024 C2026 1.327 . S
C2024 H2049 0.950 . S
C2025 C2024 1.349 . S
C2025 C2041 1.349 . S
C2026 C2024 1.327 . S
C2026 C2045 1.429 . S
C2026 H2050 0.950 . S
C2027 C2044 1.574 . S
C2027 C2046 1.368 . S
C2027 H2051 0.949 . S
H2028 C2032 0.949 . S
C2029 C2030 1.349 . S
C2029 C2031 1.327 . S
C2029 H2052 0.950 . S
C2030 C2029 1.349 . S
C2030 C2042 1.349 . S
C2031 C2029 1.327 . S
C2031 C2047 1.429 . S
C2031 H2053 0.950 . S
C2032 H2028 0.949 . S
C2032 C2040 1.574 . S
C2032 C2048 1.368 . S
H2033 C2041 0.950 . S
H2034 C2039 0.950 . S
H2035 C2040 0.949 . S
H2036 C2042 0.950 . S
H2037 C2043 0.950 . S
H2038 C2044 0.949 . S
C2039 H2034 0.950 . S
C2039 C2041 1.327 . S
C2039 C2045 1.429 . S
C2040 C2032 1.574 . S
C2040 H2035 0.949 . S
C2040 C2046 1.368 . S
C2041 C2025 1.349 . S
C2041 H2033 0.950 . S
C2041 C2039 1.327 . S
C2042 C2030 1.349 . S
C2042 H2036 0.950 . S
C2042 C2043 1.327 . S
C2043 H2037 0.950 . S
C2043 C2042 1.327 . S
C2043 C2047 1.429 . S
C2044 C2027 1.574 . S
C2044 H2038 0.949 . S
C2044 C2048 1.368 . S
C2045 C2026 1.429 . S
C2045 C2039 1.429 . S
C2045 C2046 1.523 . S
C2046 C2027 1.368 . S
C2046 C2040 1.368 . S
C2046 C2045 1.523 . S
C2047 C2031 1.429 . S
C2047 C2043 1.429 . S
C2047 C2048 1.523 . S
C2048 C2032 1.368 . S
C2048 C2044 1.368 . S
C2048 C2047 1.523 . S
H2049 C2024 0.950 . S
H2050 C2026 0.950 . S
H2051 C2027 0.949 . S
H2052 C2029 0.950 . S
H2053 C2031 0.950 . S
C2054 C2055 1.349 . S
C2054 C2056 1.327 . S
C2054 H2079 0.950 . S
C2055 C2054 1.349 . S
C2055 C2071 1.349 . S
C2056 C2054 1.327 . S
C2056 C2075 1.429 . S
C2056 H2080 0.950 . S
C2057 C2074 1.574 . S
C2057 C2076 1.368 . S
C2057 H2081 0.949 . S
H2058 C2062 0.949 . S
C2059 C2060 1.349 . S
C2059 C2061 1.327 . S
C2059 H2082 0.950 . S
C2060 C2059 1.349 . S
C2060 C2072 1.349 . S
C2061 C2059 1.327 . S
C2061 C2077 1.429 . S
C2061 H2083 0.950 . S
C2062 H2058 0.949 . S
C2062 C2070 1.574 . S
C2062 C2078 1.368 . S
H2063 C2071 0.950 . S
H2064 C2069 0.950 . S
H2065 C2070 0.949 . S
H2066 C2072 0.950 . S
H2067 C2073 0.950 . S
H2068 C2074 0.949 . S
C2069 H2064 0.950 . S
C2069 C2071 1.327 . S
C2069 C2075 1.429 . S
C2070 C2062 1.574 . S
C2070 H2065 0.949 . S
C2070 C2076 1.368 . S
C2071 C2055 1.349 . S
C2071 H2063 0.950 . S
C2071 C2069 1.327 . S
C2072 C2060 1.349 . S
C2072 H2066 0.950 . S
C2072 C2073 1.327 . S
C2073 H2067 0.950 . S
C2073 C2072 1.327 . S
C2073 C2077 1.429 . S
C2074 C2057 1.574 . S
C2074 H2068 0.949 . S
C2074 C2078 1.368 . S
C2075 C2056 1.429 . S
C2075 C2069 1.429 . S
C2075 C2076 1.523 . S
C2076 C2057 1.368 . S
C2076 C2070 1.368 . S
C2076 C2075 1.523 . S
C2077 C2061 1.429 . S
C2077 C2073 1.429 . S
C2077 C2078 1.523 . S
C2078 C2062 1.368 . S
C2078 C2074 1.368 . S
C2078 C2077 1.523 . S
H2079 C2054 0.950 . S
H2080 C2056 0.950 . S
H2081 C2057 0.949 . S
H2082 C2059 0.950 . S
H2083 C2061 0.950 . S
C2084 C2085 1.349 . S
C2084 C2086 1.327 . S
C2084 H2109 0.950 . S
C2085 C2084 1.349 . S
C2085 C2101 1.349 . S
C2086 C2084 1.327 . S
C2086 C2105 1.429 . S
C2086 H2110 0.950 . S
C2087 C2104 1.574 . S
C2087 C2106 1.368 . S
C2087 H2111 0.949 . S
H2088 C2092 0.949 . S
C2089 C2090 1.349 . S
C2089 C2091 1.327 . S
C2089 H2112 0.950 . S
C2090 C2089 1.349 . S
C2090 C2102 1.349 . S
C2091 C2089 1.327 . S
C2091 C2107 1.429 . S
C2091 H2113 0.950 . S
C2092 H2088 0.949 . S
C2092 C2100 1.574 . S
C2092 C2108 1.368 . S
H2093 C2101 0.950 . S
H2094 C2099 0.950 . S
H2095 C2100 0.949 . S
H2096 C2102 0.950 . S
H2097 C2103 0.950 . S
H2098 C2104 0.949 . S
C2099 H2094 0.950 . S
C2099 C2101 1.327 . S
C2099 C2105 1.429 . S
C2100 C2092 1.574 . S
C2100 H2095 0.949 . S
C2100 C2106 1.368 . S
C2101 C2085 1.349 . S
C2101 H2093 0.950 . S
C2101 C2099 1.327 . S
C2102 C2090 1.349 . S
C2102 H2096 0.950 . S
C2102 C2103 1.327 . S
C2103 H2097 0.950 . S
C2103 C2102 1.327 . S
C2103 C2107 1.429 . S
C2104 C2087 1.574 . S
C2104 H2098 0.949 . S
C2104 C2108 1.368 . S
C2105 C2086 1.429 . S
C2105 C2099 1.429 . S
C2105 C2106 1.523 . S
C2106 C2087 1.368 . S
C2106 C2100 1.368 . S
C2106 C2105 1.523 . S
C2107 C2091 1.429 . S
C2107 C2103 1.429 . S
C2107 C2108 1.523 . S
C2108 C2092 1.368 . S
C2108 C2104 1.368 . S
C2108 C2107 1.523 . S
H2109 C2084 0.950 . S
H2110 C2086 0.950 . S
H2111 C2087 0.949 . S
H2112 C2089 0.950 . S
H2113 C2091 0.950 . S
C2114 C2115 1.349 . S
C2114 C2116 1.327 . S
C2114 H2139 0.950 . S
C2115 C2114 1.349 . S
C2115 C2131 1.349 . S
C2116 C2114 1.327 . S
C2116 C2135 1.429 . S
C2116 H2140 0.950 . S
C2117 C2134 1.574 . S
C2117 C2136 1.368 . S
C2117 H2141 0.949 . S
H2118 C2122 0.949 . S
C2119 C2120 1.349 . S
C2119 C2121 1.327 . S
C2119 H2142 0.950 . S
C2120 C2119 1.349 . S
C2120 C2132 1.349 . S
C2121 C2119 1.327 . S
C2121 C2137 1.429 . S
C2121 H2143 0.950 . S
C2122 H2118 0.949 . S
C2122 C2130 1.574 . S
C2122 C2138 1.368 . S
H2123 C2131 0.950 . S
H2124 C2129 0.950 . S
H2125 C2130 0.949 . S
H2126 C2132 0.950 . S
H2127 C2133 0.950 . S
H2128 C2134 0.949 . S
C2129 H2124 0.950 . S
C2129 C2131 1.327 . S
C2129 C2135 1.429 . S
C2130 C2122 1.574 . S
C2130 H2125 0.949 . S
C2130 C2136 1.368 . S
C2131 C2115 1.349 . S
C2131 H2123 0.950 . S
C2131 C2129 1.327 . S
C2132 C2120 1.349 . S
C2132 H2126 0.950 . S
C2132 C2133 1.327 . S
C2133 H2127 0.950 . S
C2133 C2132 1.327 . S
C2133 C2137 1.429 . S
C2134 C2117 1.574 . S
C2134 H2128 0.949 . S
C2134 C2138 1.368 . S
C2135 C2116 1.429 . S
C2135 C2129 1.429 . S
C2135 C2136 1.523 . S
C2136 C2117 1.368 . S
C2136 C2130 1.368 . S
C2136 C2135 1.523 . S
C2137 C2121 1.429 . S
C2137 C2133 1.429 . S
C2137 C2138 1.523 . S
C2138 C2122 1.368 . S
C2138 C2134 1.368 . S
C2138 C2137 1.523 . S
H2139 C2114 0.950 . S
H2140 C2116 0.950 . S
H2141 C2117 0.949 . S
H2142 C2119 0.950 . S
H2143 C2121 0.950 . S
C465 C245 1.655 . S
C470 C13 1.655 . S
C495 C42 1.655 . S
C500 C274 1.655 . S
C525 C303 1.655 . S
C530 C71 1.655 . S
C555 C100 1.655 . S
C560 C332 1.655 . S
C585 C129 1.655 . S
C590 C361 1.655 . S
C615 C158 1.655 . S
C620 C390 1.655 . S
C645 C419 1.655 . S
C650 C187 1.655 . S
C675 C448 1.655 . S
C680 C216 1.655 . S
C705 C15 2.960 . S
C710 C37 2.598 . S
C735 C66 2.598 . S
C740 C44 2.960 . S
C765 C95 2.598 . S
C770 C73 2.960 . S
C795 C8 2.598 . S
C800 C102 2.960 . S
C825 C211 2.598 . S
C830 C131 2.960 . S
C855 C124 2.598 . S
C860 C160 2.960 . S
C885 C189 2.960 . S
C890 C153 2.598 . S
C915 C218 2.960 . S
C920 C182 2.598 . S
C945 C269 2.598 . S
C950 C247 2.960 . S
C975 C276 2.960 . S
C980 C298 2.598 . S
C1005 C327 2.598 . S
C1010 C305 2.960 . S
C1035 C240 2.598 . S
C1040 C334 2.960 . S
C1065 C443 2.598 . S
C1070 C363 2.960 . S
C1095 C356 2.598 . S
C1100 C392 2.960 . S
C1125 C385 2.598 . S
C1130 C421 2.960 . S
C1155 C414 2.598 . S
C1160 C450 2.960 . S
C1185 C266 0.830 . S
C1190 C3 0.846 . S
C1215 C295 0.830 . S
C1220 C32 0.846 . S
C1245 C324 0.830 . S
C1250 C61 0.846 . S
C1275 C237 0.830 . S
C1280 C90 0.846 . S
C1305 C440 0.830 . S
C1310 C119 0.846 . S
C1335 C353 0.830 . S
C1340 C148 0.846 . S
C1365 C177 0.846 . S
C1370 C382 0.830 . S
C1395 C411 0.830 . S
C1400 C206 0.846 . S
C1425 C235 0.846 . S
C1430 C34 0.830 . S
C1455 C264 0.846 . S
C1460 C63 0.830 . S
C1485 C293 0.846 . S
C1490 C92 0.830 . S
C1515 C5 0.830 . S
C1520 C322 0.846 . S
C1545 C351 0.846 . S
C1550 C208 0.830 . S
C1575 C121 0.830 . S
C1580 C380 0.846 . S
C1605 C409 0.846 . S
C1610 C150 0.830 . S
C1635 C438 0.846 . S
C1640 C179 0.830 . S
C1665 C155 1.739 . S
C1670 C10 1.739 . S
C1695 C184 1.739 . S
C1700 C39 1.739 . S
C1725 C213 1.739 . S
C1730 C68 1.739 . S
C1755 C126 1.739 . S
C1760 C97 1.739 . S
C1785 C387 1.739 . S
C1790 C242 1.739 . S
C1815 C271 1.739 . S
C1820 C416 1.739 . S
C1845 C300 1.739 . S
C1850 C445 1.739 . S
C1875 C329 1.739 . S
C1880 C358 1.739 . S
C1905 C79 0.777 . S
C1910 C21 0.777 . S
C1935 C50 0.777 . S
C1940 C108 0.777 . S
C1965 C195 0.777 . S
C1970 C137 0.777 . S
C1995 C224 0.777 . S
C2000 C166 0.777 . S
C2025 C253 0.777 . S
C2030 C311 0.777 . S
C2055 C340 0.777 . S
C2060 C282 0.777 . S
C2085 C427 0.777 . S
C2090 C369 0.777 . S
C2115 C456 0.777 . S
C2120 C398 0.777 . S
