# Generated by pormake.
# Topology pcl, (4)-cn, num edge types: 1
# Building blocks:
#     Node 0, Type 0, BuildingBlock: QUQFOY_clean_sbu_3, # of connection points: 4
#     Node 1, Type 0, BuildingBlock: QUQFOY_clean_sbu_3, # of connection points: 4
#     Node 2, Type 0, BuildingBlock: QUQFOY_clean_sbu_3, # of connection points: 4
#     Node 3, Type 0, BuildingBlock: QUQFOY_clean_sbu_3, # of connection points: 4
#     Node 4, Type 0, BuildingBlock: QUQFOY_clean_sbu_3, # of connection points: 4
#     Node 5, Type 0, BuildingBlock: QUQFOY_clean_sbu_3, # of connection points: 4
#     Node 6, Type 0, BuildingBlock: QUQFOY_clean_sbu_3, # of connection points: 4
#     Node 7, Type 0, BuildingBlock: QUQFOY_clean_sbu_3, # of connection points: 4
#     Node 8, Type 0, BuildingBlock: QUQFOY_clean_sbu_3, # of connection points: 4
#     Node 9, Type 0, BuildingBlock: QUQFOY_clean_sbu_3, # of connection points: 4
#     Node 10, Type 0, BuildingBlock: QUQFOY_clean_sbu_3, # of connection points: 4
#     Node 11, Type 0, BuildingBlock: QUQFOY_clean_sbu_3, # of connection points: 4
#     Node 12, Type 0, BuildingBlock: QUQFOY_clean_sbu_3, # of connection points: 4
#     Node 13, Type 0, BuildingBlock: QUQFOY_clean_sbu_3, # of connection points: 4
#     Node 14, Type 0, BuildingBlock: QUQFOY_clean_sbu_3, # of connection points: 4
#     Node 15, Type 0, BuildingBlock: QUQFOY_clean_sbu_3, # of connection points: 4
#     Edge 16, Type (0, 0), BuildingBlock: AJUNOK_clean_linker_0, # of connection points: 2
#     Edge 17, Type (0, 0), BuildingBlock: AJUNOK_clean_linker_0, # of connection points: 2
#     Edge 18, Type (0, 0), BuildingBlock: AJUNOK_clean_linker_0, # of connection points: 2
#     Edge 19, Type (0, 0), BuildingBlock: AJUNOK_clean_linker_0, # of connection points: 2
#     Edge 20, Type (0, 0), BuildingBlock: AJUNOK_clean_linker_0, # of connection points: 2
#     Edge 21, Type (0, 0), BuildingBlock: AJUNOK_clean_linker_0, # of connection points: 2
#     Edge 22, Type (0, 0), BuildingBlock: AJUNOK_clean_linker_0, # of connection points: 2
#     Edge 23, Type (0, 0), BuildingBlock: AJUNOK_clean_linker_0, # of connection points: 2
#     Edge 24, Type (0, 0), BuildingBlock: AJUNOK_clean_linker_0, # of connection points: 2
#     Edge 25, Type (0, 0), BuildingBlock: AJUNOK_clean_linker_0, # of connection points: 2
#     Edge 26, Type (0, 0), BuildingBlock: AJUNOK_clean_linker_0, # of connection points: 2
#     Edge 27, Type (0, 0), BuildingBlock: AJUNOK_clean_linker_0, # of connection points: 2
#     Edge 28, Type (0, 0), BuildingBlock: AJUNOK_clean_linker_0, # of connection points: 2
#     Edge 29, Type (0, 0), BuildingBlock: AJUNOK_clean_linker_0, # of connection points: 2
#     Edge 30, Type (0, 0), BuildingBlock: AJUNOK_clean_linker_0, # of connection points: 2
#     Edge 31, Type (0, 0), BuildingBlock: AJUNOK_clean_linker_0, # of connection points: 2
#     Edge 32, Type (0, 0), BuildingBlock: AJUNOK_clean_linker_0, # of connection points: 2
#     Edge 33, Type (0, 0), BuildingBlock: AJUNOK_clean_linker_0, # of connection points: 2
#     Edge 34, Type (0, 0), BuildingBlock: AJUNOK_clean_linker_0, # of connection points: 2
#     Edge 35, Type (0, 0), BuildingBlock: AJUNOK_clean_linker_0, # of connection points: 2
#     Edge 36, Type (0, 0), BuildingBlock: AJUNOK_clean_linker_0, # of connection points: 2
#     Edge 37, Type (0, 0), BuildingBlock: AJUNOK_clean_linker_0, # of connection points: 2
#     Edge 38, Type (0, 0), BuildingBlock: AJUNOK_clean_linker_0, # of connection points: 2
#     Edge 39, Type (0, 0), BuildingBlock: AJUNOK_clean_linker_0, # of connection points: 2
#     Edge 40, Type (0, 0), BuildingBlock: AJUNOK_clean_linker_0, # of connection points: 2
#     Edge 41, Type (0, 0), BuildingBlock: AJUNOK_clean_linker_0, # of connection points: 2
#     Edge 42, Type (0, 0), BuildingBlock: AJUNOK_clean_linker_0, # of connection points: 2
#     Edge 43, Type (0, 0), BuildingBlock: AJUNOK_clean_linker_0, # of connection points: 2
#     Edge 44, Type (0, 0), BuildingBlock: AJUNOK_clean_linker_0, # of connection points: 2
#     Edge 45, Type (0, 0), BuildingBlock: AJUNOK_clean_linker_0, # of connection points: 2
#     Edge 46, Type (0, 0), BuildingBlock: AJUNOK_clean_linker_0, # of connection points: 2
#     Edge 47, Type (0, 0), BuildingBlock: AJUNOK_clean_linker_0, # of connection points: 2
# Relax obj value: 0.061
# Max RMSD: 0.051
# Mean RMSD: 0.048
data_MOF--net-pcl--node1-QUQFOY_clean_sbu_3--edge1-AJUNOK_clean_linker_0
_symmetry_space_group_name_H-M    P1
_symmetry_Int_Tables_number       1
_symmetry_cell_setting            triclinic
loop_
_symmetry_equiv_pos_as_xyz
'x, y, z'
_cell_length_a     40.694679
_cell_length_b     32.755049
_cell_length_c     34.609476
_cell_angle_alpha  89.981441
_cell_angle_beta   89.771783
_cell_angle_gamma 90.283467
loop_
_atom_site_label
_atom_site_type_symbol
_atom_site_fract_x
_atom_site_fract_y
_atom_site_fract_z
_atom_type_partial_charge
C0 C 0.13165 0.43177 0.02653 0.0
O1 O 0.1267 0.44418 0.06084 0.0
Cd2 Cd 0.12073 0.3995 0.11492 0.0
O3 O 0.13591 0.39392 0.01962 0.0
Cd4 Cd 0.14095 0.32616 0.05097 0.0
C5 C 0.06054 0.33489 0.07485 0.0
O6 O 0.16419 0.35318 0.10805 0.0
O7 O 0.14938 0.29063 0.11386 0.0
O8 O 0.19159 0.32232 0.01491 0.0
C9 C 0.16182 0.32213 0.12952 0.0
O10 O 0.0709 0.36174 0.09863 0.0
C11 C 0.18712 0.28684 0.00128 0.0
O12 O 0.08022 0.31742 0.05125 0.0
O13 O 0.16 0.26932 0.00978 0.0
C14 C 0.8438 0.5372 0.53278 0.0
O15 O 0.84817 0.52814 0.56805 0.0
Cd16 Cd 0.85233 0.57771 0.61828 0.0
O17 O 0.83912 0.57417 0.5226 0.0
Cd18 Cd 0.8322 0.64417 0.54921 0.0
C19 C 0.91221 0.64026 0.57446 0.0
O20 O 0.80805 0.62218 0.60811 0.0
O21 O 0.82413 0.68453 0.60953 0.0
O22 O 0.78161 0.64618 0.51301 0.0
C23 C 0.81086 0.6548 0.62731 0.0
O24 O 0.90195 0.61535 0.60022 0.0
C25 C 0.78658 0.68058 0.49722 0.0
O26 O 0.89262 0.6548 0.54923 0.0
O27 O 0.81391 0.69804 0.50449 0.0
C28 C 0.1332 0.55299 0.90333 0.0
O29 O 0.12951 0.54258 0.86828 0.0
Cd30 Cd 0.12395 0.58996 0.81672 0.0
O31 O 0.13654 0.59051 0.91256 0.0
Cd32 Cd 0.142 0.65999 0.88391 0.0
C33 C 0.06215 0.65023 0.85931 0.0
O34 O 0.16713 0.63637 0.82669 0.0
O35 O 0.14996 0.69783 0.82178 0.0
O36 O 0.1922 0.66218 0.92017 0.0
C37 C 0.16432 0.66782 0.80594 0.0
O38 O 0.07335 0.62492 0.83459 0.0
C39 C 0.1884 0.69742 0.9345 0.0
O40 O 0.08125 0.6674 0.88372 0.0
O41 O 0.1616 0.71556 0.92661 0.0
C42 C 0.84808 0.41357 0.41193 0.0
O43 O 0.85515 0.42553 0.37797 0.0
Cd44 Cd 0.85873 0.38141 0.32371 0.0
O45 O 0.84126 0.37613 0.41861 0.0
Cd46 Cd 0.83448 0.30901 0.38533 0.0
C47 C 0.91502 0.31172 0.36227 0.0
O48 O 0.81094 0.34148 0.33071 0.0
O49 O 0.82299 0.27905 0.32029 0.0
O50 O 0.78991 0.30531 0.43245 0.0
C51 C 0.81101 0.31195 0.30735 0.0
O52 O 0.90644 0.33937 0.33845 0.0
C53 C 0.78848 0.26668 0.43342 0.0
O54 O 0.8944 0.29619 0.38608 0.0
O55 O 0.80951 0.24728 0.41345 0.0
C56 C 0.82922 0.62523 0.78892 0.0
O57 O 0.83909 0.58877 0.79295 0.0
Cd58 Cd 0.86388 0.56116 0.84865 0.0
O59 O 0.82928 0.65027 0.81718 0.0
Cd60 Cd 0.83985 0.64769 0.8885 0.0
C61 C 0.92085 0.63869 0.86852 0.0
O62 O 0.82481 0.57729 0.89619 0.0
O63 O 0.84704 0.60391 0.94647 0.0
O64 O 0.78501 0.67469 0.89685 0.0
C65 C 0.83393 0.57292 0.93074 0.0
O66 O 0.91278 0.60328 0.85654 0.0
C67 C 0.79302 0.70383 0.91905 0.0
O68 O 0.89941 0.66318 0.88208 0.0
O69 O 0.82351 0.7082 0.92604 0.0
C70 C 0.14198 0.35292 0.29115 0.0
O71 O 0.12894 0.38766 0.29614 0.0
Cd72 Cd 0.10311 0.41035 0.35358 0.0
O73 O 0.14457 0.32746 0.31887 0.0
Cd74 Cd 0.13514 0.32694 0.39032 0.0
C75 C 0.05358 0.32537 0.37313 0.0
O76 O 0.14447 0.39873 0.39941 0.0
O77 O 0.12515 0.36783 0.44945 0.0
O78 O 0.19205 0.30629 0.39644 0.0
C79 C 0.13584 0.40064 0.43444 0.0
O80 O 0.05797 0.36206 0.36204 0.0
C81 C 0.18659 0.27603 0.41842 0.0
O82 O 0.07739 0.30357 0.38497 0.0
O83 O 0.15663 0.26805 0.42612 0.0
C84 C 0.82884 0.35838 0.14886 0.0
O85 O 0.83915 0.3949 0.14621 0.0
Cd86 Cd 0.86465 0.42248 0.09042 0.0
O87 O 0.82894 0.33464 0.11966 0.0
Cd88 Cd 0.83917 0.34015 0.04853 0.0
C89 C 0.91983 0.3443 0.0678 0.0
O90 O 0.82467 0.41196 0.04233 0.0
O91 O 0.84785 0.3849 -0.00739 0.0
O92 O 0.78511 0.3078 0.04767 0.0
C93 C 0.83423 0.41572 0.00771 0.0
O94 O 0.91262 0.3795 0.08082 0.0
C95 C 0.79023 0.28708 0.01737 0.0
O96 O 0.89779 0.32085 0.05375 0.0
O97 O 0.8187 0.28925 0.00229 0.0
C98 C 0.14445 0.62418 0.64859 0.0
O99 O 0.13464 0.58735 0.64812 0.0
Cd100 Cd 0.10751 0.55612 0.59531 0.0
O101 O 0.14372 0.64631 0.61834 0.0
Cd102 Cd 0.13363 0.63589 0.54803 0.0
C103 C 0.05287 0.63327 0.56881 0.0
O104 O 0.14535 0.56366 0.54429 0.0
O105 O 0.12248 0.58931 0.49383 0.0
O106 O 0.19025 0.65646 0.53936 0.0
C107 C 0.13463 0.55836 0.51042 0.0
O108 O 0.05993 0.59907 0.58412 0.0
C109 C 0.18492 0.68489 0.5154 0.0
O110 O 0.07494 0.65538 0.55275 0.0
O111 O 0.15499 0.69188 0.50716 0.0
C112 C 0.63139 0.93585 0.02828 0.0
O113 O 0.62435 0.94717 0.06241 0.0
Cd114 Cd 0.61957 0.90086 0.1156 0.0
O115 O 0.638 0.89859 0.02114 0.0
Cd116 Cd 0.64479 0.83102 0.05215 0.0
C117 C 0.56377 0.83217 0.07411 0.0
O118 O 0.66611 0.85874 0.11021 0.0
O119 O 0.65292 0.79553 0.11513 0.0
O120 O 0.69636 0.82762 0.01732 0.0
C121 C 0.66452 0.82727 0.13122 0.0
O122 O 0.57183 0.85902 0.09907 0.0
C123 C 0.69181 0.79247 0.00296 0.0
O124 O 0.58478 0.81797 0.05019 0.0
O125 O 0.66452 0.77505 0.01071 0.0
C126 C 0.33984 0.04199 0.5285 0.0
O127 O 0.3437 0.02962 0.56297 0.0
Cd128 Cd 0.34977 0.07462 0.61675 0.0
O129 O 0.33673 0.07994 0.52128 0.0
Cd130 Cd 0.33269 0.14812 0.55196 0.0
C131 C 0.41233 0.13659 0.57735 0.0
O132 O 0.30779 0.12295 0.60918 0.0
O133 O 0.32452 0.18484 0.61421 0.0
O134 O 0.28272 0.15461 0.51537 0.0
C135 C 0.31114 0.15413 0.63031 0.0
O136 O 0.40089 0.11021 0.60104 0.0
C137 C 0.2892 0.18922 0.50074 0.0
O138 O 0.39349 0.1547 0.55342 0.0
O139 O 0.3169 0.20505 0.50928 0.0
C140 C 0.63202 0.05858 0.90638 0.0
O141 O 0.62803 0.04821 0.87137 0.0
Cd142 Cd 0.62289 0.09521 0.8198 0.0
O143 O 0.63531 0.09614 0.91564 0.0
Cd144 Cd 0.63965 0.16601 0.88664 0.0
C145 C 0.56028 0.15518 0.86129 0.0
O146 O 0.66669 0.14048 0.83084 0.0
O147 O 0.64983 0.20165 0.82379 0.0
O148 O 0.68312 0.16931 0.93455 0.0
C149 C 0.66424 0.17117 0.80901 0.0
O150 O 0.57192 0.12989 0.83685 0.0
C151 C 0.68243 0.20772 0.93868 0.0
O152 O 0.579 0.17275 0.88583 0.0
O153 O 0.66072 0.2271 0.91988 0.0
C154 C 0.34113 0.92056 0.40556 0.0
O155 O 0.34563 0.93113 0.37063 0.0
Cd156 Cd 0.3527 0.88465 0.3186 0.0
O157 O 0.3381 0.88295 0.41467 0.0
Cd158 Cd 0.33485 0.81371 0.38508 0.0
C159 C 0.41487 0.82512 0.36037 0.0
O160 O 0.31008 0.83708 0.32767 0.0
O161 O 0.32843 0.77616 0.32268 0.0
O162 O 0.2839 0.80674 0.42032 0.0
C163 C 0.31377 0.80585 0.30681 0.0
O164 O 0.40371 0.85054 0.33585 0.0
C165 C 0.28985 0.77213 0.43502 0.0
O166 O 0.39575 0.80776 0.38483 0.0
O167 O 0.31784 0.75672 0.42754 0.0
C168 C 0.32907 0.1194 0.79165 0.0
O169 O 0.33964 0.08328 0.79591 0.0
Cd170 Cd 0.36511 0.05757 0.85225 0.0
O171 O 0.3284 0.14442 0.81988 0.0
Cd172 Cd 0.33854 0.14326 0.89103 0.0
C173 C 0.41958 0.13824 0.87072 0.0
O174 O 0.32635 0.07213 0.90069 0.0
O175 O 0.3486 0.10185 0.94951 0.0
O176 O 0.28266 0.16693 0.89991 0.0
C177 C 0.33631 0.06964 0.93513 0.0
O178 O 0.41269 0.10225 0.85928 0.0
C179 C 0.2899 0.19763 0.92054 0.0
O180 O 0.39739 0.16181 0.88405 0.0
O181 O 0.32031 0.2041 0.92662 0.0
C182 C 0.64632 0.85714 0.29343 0.0
O183 O 0.63605 0.89315 0.29943 0.0
Cd184 Cd 0.61159 0.91723 0.35727 0.0
O185 O 0.64661 0.8305 0.32035 0.0
Cd186 Cd 0.63664 0.82782 0.39175 0.0
C187 C 0.55543 0.83757 0.37333 0.0
O188 O 0.65096 0.89765 0.40287 0.0
O189 O 0.63011 0.86755 0.45245 0.0
O190 O 0.69178 0.80089 0.39663 0.0
C191 C 0.64256 0.89967 0.43795 0.0
O192 O 0.56305 0.87388 0.36343 0.0
C193 C 0.68433 0.7703 0.41739 0.0
O194 O 0.57714 0.81247 0.38502 0.0
O195 O 0.65399 0.76519 0.42516 0.0
C196 C 0.33396 0.84721 0.14845 0.0
O197 O 0.34491 0.88354 0.14735 0.0
Cd198 Cd 0.37086 0.91428 0.0932 0.0
O199 O 0.33327 0.82486 0.11834 0.0
Cd200 Cd 0.34312 0.83392 0.04769 0.0
C201 C 0.42447 0.83657 0.06583 0.0
O202 O 0.33125 0.90594 0.04444 0.0
O203 O 0.35249 0.8806 -0.00728 0.0
O204 O 0.28681 0.81168 0.03833 0.0
C205 C 0.34072 0.91141 0.01001 0.0
O206 O 0.41827 0.87119 0.08083 0.0
C207 C 0.2934 0.78259 0.01548 0.0
O208 O 0.40181 0.81455 0.05115 0.0
O209 O 0.32363 0.77643 0.0081 0.0
C210 C 0.64613 0.12386 0.65139 0.0
O211 O 0.6371 0.08673 0.65085 0.0
Cd212 Cd 0.61168 0.05447 0.59765 0.0
O213 O 0.64503 0.14582 0.62099 0.0
Cd214 Cd 0.63406 0.13516 0.55058 0.0
C215 C 0.55384 0.12845 0.57223 0.0
O216 O 0.65043 0.06366 0.5477 0.0
O217 O 0.62555 0.0867 0.49753 0.0
O218 O 0.68699 0.16994 0.54601 0.0
C219 C 0.64003 0.05728 0.51386 0.0
O220 O 0.5623 0.09439 0.58679 0.0
C221 C 0.68087 0.18807 0.51453 0.0
O222 O 0.57502 0.15211 0.55654 0.0
O223 O 0.65221 0.18366 0.50066 0.0
C224 C 0.00569 0.33791 0.10649 0.0
C225 C 0.02452 0.32727 0.07382 0.0
C226 C 0.97148 0.34026 0.10479 0.0
C227 C 0.9545 0.33155 0.07053 0.0
H228 H 0.01755 0.34665 0.13324 0.0
H229 H 0.95829 0.35095 0.13007 0.0
S230 S -0.00862 0.2972 -0.02185 0.0
N231 N 0.0232 0.30408 0.00701 0.0
N232 N 0.95841 0.30806 0.00415 0.0
C233 C 0.97252 0.31752 0.03851 0.0
C234 C 0.00768 0.31542 0.0401 0.0
C235 C 0.96667 0.6416 0.60667 0.0
C236 C 0.94808 0.64888 0.57316 0.0
C237 C 0.00094 0.63998 0.60535 0.0
C238 C 0.01818 0.64612 0.57061 0.0
H239 H 0.95462 0.63481 0.63391 0.0
H240 H 0.014 0.63169 0.63141 0.0
S241 S 0.98188 0.67167 0.4757 0.0
N242 N 0.94984 0.66647 0.50482 0.0
N243 N 0.0147 0.66385 0.50264 0.0
C244 C 0.00033 0.657 0.53754 0.0
C245 C 0.96513 0.65836 0.53876 0.0
C246 C 0.97292 0.63868 0.83154 0.0
C247 C 0.95582 0.65059 0.86493 0.0
C248 C 0.00709 0.64164 0.82927 0.0
C249 C 0.02589 0.65605 0.86058 0.0
H250 H 0.95982 0.62539 0.80736 0.0
H251 H 0.01891 0.63064 0.8032 0.0
S252 S -0.00762 0.69541 0.95324 0.0
N253 N 0.95952 0.68105 0.92873 0.0
N254 N 0.02428 0.6861 0.92493 0.0
C255 C 0.00891 0.67081 0.89328 0.0
C256 C 0.97374 0.66815 0.89537 0.0
C257 C 0.00065 0.30281 0.40334 0.0
C258 C 0.02009 0.30856 0.37008 0.0
C259 C 0.96622 0.29945 0.40057 0.0
C260 C 0.95046 0.30212 0.36449 0.0
H261 H 0.01178 0.30431 0.43169 0.0
H262 H 0.95181 0.29842 0.42694 0.0
S263 S -0.00867 0.30948 0.26873 0.0
N264 N 0.02179 0.31113 0.30009 0.0
N265 N 0.95741 0.30463 0.29472 0.0
C266 C 0.97009 0.30385 0.331 0.0
C267 C 0.00487 0.30722 0.33385 0.0
C268 C 0.47799 0.82095 0.03344 0.0
C269 C 0.45874 0.8225 0.06724 0.0
C270 C 0.51255 0.82003 0.03555 0.0
C271 C 0.52859 0.82097 0.07154 0.0
H272 H 0.46646 0.82378 0.00541 0.0
H273 H 0.52669 0.82208 0.00903 0.0
S274 S 0.48867 0.81725 0.16794 0.0
N275 N 0.4578 0.81919 0.13721 0.0
N276 N 0.52243 0.81732 0.14132 0.0
C277 C 0.50934 0.81863 0.10527 0.0
C278 C 0.47444 0.8195 0.10308 0.0
C279 C 0.501 0.12785 0.6078 0.0
C280 C 0.51868 0.13945 0.57462 0.0
C281 C 0.46677 0.12988 0.60905 0.0
C282 C 0.44853 0.14316 0.57695 0.0
H283 H 0.5137 0.1155 0.63265 0.0
H284 H 0.45447 0.11915 0.63498 0.0
S285 S 0.48346 0.18116 0.48435 0.0
N286 N 0.51594 0.16828 0.51005 0.0
N287 N 0.45111 0.17171 0.51204 0.0
C288 C 0.466 0.15762 0.54442 0.0
C289 C 0.5012 0.15582 0.54333 0.0
C290 C 0.50546 0.14547 0.83097 0.0
C291 C 0.52395 0.16015 0.86242 0.0
C292 C 0.47138 0.14112 0.83331 0.0
C293 C 0.4541 0.15188 0.86693 0.0
H294 H 0.51753 0.13521 0.80478 0.0
H295 H 0.45855 0.12755 0.80907 0.0
S296 S 0.48969 0.19697 0.95564 0.0
N297 N 0.52174 0.18931 0.92711 0.0
N298 N 0.45715 0.18167 0.93104 0.0
C299 C 0.47162 0.16981 0.89748 0.0
C300 C 0.50669 0.17388 0.89532 0.0
C301 C 0.46703 0.8092 0.39657 0.0
C302 C 0.45107 0.81924 0.36174 0.0
C303 C 0.50151 0.81199 0.39979 0.0
C304 C 0.52088 0.8249 0.36829 0.0
H305 H 0.45275 0.80168 0.42209 0.0
H306 H 0.51279 0.80667 0.42763 0.0
S307 S 0.49197 0.84765 0.26934 0.0
N308 N 0.45814 0.83693 0.29383 0.0
N309 N 0.52237 0.84288 0.30038 0.0
C310 C 0.50549 0.83186 0.33277 0.0
C311 C 0.47073 0.82878 0.32934 0.0
C312 C 0.15007 0.29642 0.19647 0.0
C313 C 0.1634 0.32672 0.17202 0.0
C314 C 0.1452 0.30395 0.23601 0.0
C315 C 0.15322 0.34209 0.25206 0.0
H316 H 0.14167 0.26758 0.18472 0.0
H317 H 0.13318 0.28081 0.2535 0.0
S318 S 0.19437 0.42863 0.20235 0.0
N319 N 0.18906 0.394 0.16828 0.0
N320 N 0.17902 0.40825 0.24218 0.0
C321 C 0.16885 0.37132 0.22869 0.0
C322 C 0.17425 0.36356 0.18874 0.0
C323 C 0.79757 0.61689 0.68744 0.0
C324 C 0.80908 0.65308 0.67001 0.0
C325 C 0.80244 0.60939 0.72666 0.0
C326 C 0.81845 0.63806 0.75022 0.0
H327 H 0.78643 0.59293 0.67025 0.0
H328 H 0.79485 0.58008 0.73829 0.0
S329 S 0.84857 0.74033 0.7205 0.0
N330 N 0.83382 0.72003 0.68041 0.0
N331 N 0.84246 0.70594 0.75474 0.0
C332 C 0.82738 0.67594 0.7342 0.0
C333 C 0.82277 0.68349 0.6939 0.0
C334 C 0.1471 0.68791 0.73919 0.0
C335 C 0.1666 0.66361 0.76354 0.0
C336 C 0.142 0.67687 0.70046 0.0
C337 C 0.15606 0.64117 0.68533 0.0
H338 H 0.13378 0.71376 0.75072 0.0
H339 H 0.12504 0.69455 0.68324 0.0
S340 S 0.21455 0.57248 0.73447 0.0
N341 N 0.20447 0.60648 0.76761 0.0
N342 N 0.19403 0.58533 0.69529 0.0
C343 C 0.17795 0.61898 0.70822 0.0
C344 C 0.18353 0.63042 0.74725 0.0
C345 C 0.82711 0.30428 0.19976 0.0
C346 C 0.818 0.34334 0.18695 0.0
C347 C 0.82256 0.29277 0.2385 0.0
C348 C 0.80851 0.31991 0.2654 0.0
H349 H 0.83976 0.28357 0.18043 0.0
H350 H 0.83193 0.2635 0.24782 0.0
S351 S 0.77424 0.42222 0.24377 0.0
N352 N 0.79006 0.40664 0.20237 0.0
N353 N 0.7808 0.3849 0.27481 0.0
C354 C 0.79647 0.35746 0.25183 0.0
C355 C 0.80147 0.36926 0.21268 0.0
C356 C 0.64736 0.80883 0.23756 0.0
C357 C 0.65686 0.84627 0.25402 0.0
C358 C 0.65188 0.80148 0.19793 0.0
C359 C 0.66627 0.83126 0.17375 0.0
H360 H 0.63454 0.78617 0.25484 0.0
H361 H 0.64237 0.7733 0.1859 0.0
S362 S 0.70123 0.93081 0.20495 0.0
N363 N 0.68525 0.91092 0.24465 0.0
N364 N 0.69442 0.89698 0.17054 0.0
C365 C 0.67848 0.86724 0.19078 0.0
C366 C 0.67354 0.87483 0.23085 0.0
C367 C 0.30566 0.10283 0.72754 0.0
C368 C 0.31878 0.13223 0.75271 0.0
C369 C 0.30087 0.11151 0.68851 0.0
C370 C 0.30961 0.14974 0.67286 0.0
H371 H 0.30014 0.07228 0.73778 0.0
H372 H 0.29193 0.08714 0.67012 0.0
S373 S 0.341 0.23898 0.72781 0.0
N374 N 0.33717 0.20247 0.76047 0.0
N375 N 0.32868 0.2188 0.68657 0.0
C376 C 0.32053 0.18045 0.69828 0.0
C377 C 0.32503 0.17167 0.73836 0.0
C378 C 0.67875 0.128 0.7527 0.0
C379 C 0.66653 0.16534 0.76667 0.0
C380 C 0.67376 0.11604 0.71449 0.0
C381 C 0.65696 0.14125 0.68848 0.0
H382 H 0.69042 0.10651 0.77203 0.0
H383 H 0.68182 0.08594 0.7057 0.0
S384 S 0.62514 0.24498 0.70836 0.0
N385 N 0.64051 0.22978 0.75003 0.0
N386 N 0.6317 0.2073 0.6776 0.0
C387 C 0.64748 0.18033 0.70079 0.0
C388 C 0.65218 0.19244 0.74007 0.0
C389 C 0.33607 0.79538 0.20112 0.0
C390 C 0.32244 0.83114 0.1857 0.0
C391 C 0.33094 0.785 0.24006 0.0
C392 C 0.31185 0.81003 0.26437 0.0
H393 H 0.35265 0.77704 0.18386 0.0
H394 H 0.34384 0.75893 0.2517 0.0
S395 S 0.2653 0.902 0.23476 0.0
N396 N 0.28548 0.88809 0.19548 0.0
N397 N 0.27493 0.8682 0.2682 0.0
C398 C 0.29544 0.84347 0.24789 0.0
C399 C 0.30105 0.85422 0.20863 0.0
C400 C 0.23142 0.20737 0.94076 0.0
C401 C 0.26379 0.22269 0.93861 0.0
C402 C 0.20664 0.22862 0.9604 0.0
C403 C 0.21312 0.2663 -0.02169 0.0
H404 H 0.22527 0.17809 0.92809 0.0
H405 H 0.18233 0.21507 0.96199 0.0
S406 S 0.29336 0.32118 -0.02131 0.0
N407 N 0.30064 0.27875 0.95448 0.0
N408 N 0.25415 0.31907 -0.00904 0.0
C409 C 0.24517 0.28268 -0.02478 0.0
C410 C 0.27047 0.26079 0.95553 0.0
C411 C 0.76776 0.7371 0.45406 0.0
C412 C 0.76078 0.70045 0.47365 0.0
C413 C 0.74308 0.75848 0.43461 0.0
C414 C 0.71032 0.74434 0.43432 0.0
H415 H 0.79234 0.74993 0.4544 0.0
H416 H 0.74962 0.78711 0.42085 0.0
S417 S 0.67949 0.6483 0.47854 0.0
N418 N 0.71895 0.64949 0.48935 0.0
N419 N 0.67263 0.69009 0.45322 0.0
C420 C 0.70319 0.70701 0.45257 0.0
C421 C 0.72839 0.68496 0.47208 0.0
C422 C 0.23464 0.77464 -0.00412 0.0
C423 C 0.26674 0.75877 -0.0031 0.0
C424 C 0.20929 0.75432 -0.02371 0.0
C425 C 0.21493 0.71703 0.95736 0.0
H426 H 0.22915 0.80361 0.00949 0.0
H427 H 0.1852 0.76824 -0.0244 0.0
S428 S 0.29422 0.66109 0.95368 0.0
N429 N 0.30247 0.70272 -0.02125 0.0
N430 N 0.25494 0.6641 0.9424 0.0
C431 C 0.24674 0.70015 0.95923 0.0
C432 C 0.27261 0.72113 -0.02117 0.0
C433 C 0.72748 0.23788 0.51196 0.0
C434 C 0.70717 0.20937 0.49316 0.0
C435 C 0.7539 0.2565 0.49243 0.0
C436 C 0.76164 0.2457 0.45416 0.0
H437 H 0.72271 0.24608 0.54178 0.0
H438 H 0.76864 0.27903 0.50748 0.0
S439 S 0.71656 0.1718 0.39276 0.0
N440 N 0.69643 0.1713 0.4343 0.0
N441 N 0.74706 0.20475 0.39825 0.0
C442 C 0.74183 0.21677 0.43534 0.0
C443 C 0.71431 0.19896 0.45471 0.0
C444 C 0.71026 0.73634 0.95906 0.0
C445 C 0.71766 0.77223 -0.02044 0.0
C446 C 0.73463 0.71535 0.93852 0.0
C447 C 0.7675 0.72908 0.93804 0.0
H448 H 0.68551 0.72402 0.95917 0.0
H449 H 0.72773 0.68743 0.9238 0.0
S450 S 0.79956 0.82259 -0.01455 0.0
N451 N 0.76011 0.82167 -0.00329 0.0
N452 N 0.80589 0.78178 0.95852 0.0
C453 C 0.77514 0.76543 0.95766 0.0
C454 C 0.75024 0.78711 -0.02173 0.0
C455 C 0.23189 0.1957 0.4761 0.0
C456 C 0.26444 0.21055 0.47686 0.0
C457 C 0.20711 0.21651 0.45636 0.0
C458 C 0.21387 0.25282 0.43616 0.0
H459 H 0.22516 0.16823 0.49175 0.0
H460 H 0.18233 0.20429 0.45748 0.0
S461 S 0.29557 0.30327 0.42689 0.0
N462 N 0.30242 0.26289 0.45419 0.0
N463 N 0.25599 0.30188 0.41664 0.0
C464 C 0.24657 0.26732 0.4355 0.0
C465 C 0.27179 0.24626 0.45598 0.0
C466 C 0.75224 0.27991 0.96197 0.0
C467 C 0.76304 0.2658 -0.00195 0.0
C468 C 0.72499 0.2621 0.94379 0.0
C469 C 0.70829 0.2289 0.96069 0.0
H470 H 0.76467 0.30528 0.94797 0.0
H471 H 0.71757 0.27356 0.91579 0.0
S472 S 0.72685 0.1811 0.05514 0.0
N473 N 0.75451 0.21796 0.05073 0.0
N474 N 0.70432 0.18278 0.01554 0.0
C475 C 0.71896 0.21446 -0.00327 0.0
C476 C 0.74608 0.23343 0.01575 0.0
C477 C 0.20615 0.74325 0.47573 0.0
C478 C 0.21246 0.70764 0.49701 0.0
C479 C 0.23153 0.7643 0.4567 0.0
C480 C 0.26423 0.75034 0.45775 0.0
H481 H 0.18137 0.75491 0.47349 0.0
H482 H 0.22522 0.79131 0.44032 0.0
S483 S 0.29408 0.65917 0.51033 0.0
N484 N 0.25415 0.65983 0.51892 0.0
N485 N 0.30167 0.69922 0.48269 0.0
C486 C 0.27101 0.71509 0.47935 0.0
C487 C 0.2452 0.69382 0.49911 0.0
C488 C 0.13072 0.53291 -0.02704 0.0
C489 C 0.13341 0.52132 0.93394 0.0
C490 C 0.13022 0.50377 0.00252 0.0
C491 C 0.13256 0.46177 -0.0056 0.0
H492 H 0.12865 0.56479 -0.01913 0.0
H493 H 0.12794 0.51445 0.03202 0.0
S494 S 0.14104 0.41527 0.89693 0.0
N495 N 0.13913 0.46482 0.88871 0.0
N496 N 0.13823 0.41007 0.94425 0.0
C497 C 0.13559 0.4497 0.95548 0.0
C498 C 0.13598 0.47942 0.92531 0.0
C499 C 0.84645 0.5156 0.46366 0.0
C500 C 0.84461 0.50472 0.50293 0.0
C501 C 0.84775 0.48591 0.43469 0.0
C502 C 0.847 0.44398 0.44365 0.0
H503 H 0.84716 0.54739 0.45505 0.0
H504 H 0.84914 0.4961 0.40495 0.0
S505 S 0.84206 0.39906 0.54206 0.0
N506 N 0.84199 0.44885 0.54935 0.0
N507 N 0.8443 0.39302 0.49479 0.0
C508 C 0.84504 0.43254 0.4828 0.0
C509 C 0.8439 0.46288 0.51243 0.0
C510 C 0.83449 0.49185 0.00889 0.0
C511 C 0.83308 0.45532 -0.0124 0.0
C512 C 0.83489 0.52984 -0.00974 0.0
C513 C 0.83311 0.53257 0.94979 0.0
H514 H 0.83602 0.4911 0.04013 0.0
H515 H 0.83643 0.55724 0.0077 0.0
S516 S 0.82763 0.44562 0.88113 0.0
N517 N 0.82932 0.42402 0.92417 0.0
N518 N 0.82908 0.49529 0.88905 0.0
C519 C 0.83098 0.49617 0.92825 0.0
C520 C 0.83125 0.45755 0.9472 0.0
C521 C 0.13391 0.47657 0.43334 0.0
C522 C 0.13499 0.44014 0.45486 0.0
C523 C 0.13336 0.51464 0.45162 0.0
C524 C 0.13454 0.51771 0.49206 0.0
H525 H 0.13323 0.47574 0.40206 0.0
H526 H 0.1325 0.54187 0.43388 0.0
S527 S 0.13737 0.43147 0.56162 0.0
N528 N 0.13676 0.4094 0.51873 0.0
N529 N 0.13645 0.48109 0.55324 0.0
C530 C 0.13565 0.48153 0.51399 0.0
C531 C 0.13564 0.4427 0.49534 0.0
C532 C 0.62973 0.03778 -0.02408 0.0
C533 C 0.63257 0.02668 0.93679 0.0
C534 C 0.62936 0.00824 0.00518 0.0
C535 C 0.63206 0.96637 -0.00342 0.0
H536 H 0.62741 0.06955 -0.01586 0.0
H537 H 0.62697 0.01847 0.03481 0.0
S538 S 0.64092 0.92114 0.89864 0.0
N539 N 0.63874 0.97076 0.89098 0.0
N540 N 0.63809 0.91535 0.94588 0.0
C541 C 0.63525 0.95482 0.95755 0.0
C542 C 0.63547 -0.01509 0.92772 0.0
C543 C 0.34159 0.94068 0.47523 0.0
C544 C 0.33982 0.95221 0.43615 0.0
C545 C 0.34138 0.96987 0.50474 0.0
C546 C 0.33923 0.01187 0.49647 0.0
H547 H 0.34358 0.90882 0.48325 0.0
H548 H 0.34309 0.95926 0.53431 0.0
S549 S 0.33264 0.05817 0.39876 0.0
N550 N 0.33486 0.00863 0.39069 0.0
N551 N 0.33444 0.06346 0.4461 0.0
C552 C 0.33694 0.02386 0.45748 0.0
C553 C 0.33726 -0.00592 0.42738 0.0
C554 C 0.33904 0.95544 0.95138 0.0
C555 C 0.33989 0.95212 -0.00819 0.0
C556 C 0.33754 -0.00635 0.93338 0.0
C557 C 0.33754 0.02993 0.95515 0.0
H558 H 0.33906 0.92831 0.93347 0.0
H559 H 0.33674 -0.00529 0.90211 0.0
S560 S 0.34032 0.0379 0.06194 0.0
N561 N 0.34086 -0.01165 0.05322 0.0
N562 N 0.33883 0.06024 0.01921 0.0
C563 C 0.33882 0.0271 -0.00441 0.0
C564 C 0.33975 -0.01185 0.01398 0.0
C565 C 0.64112 0.01361 0.4552 0.0
C566 C 0.64167 0.01666 0.49565 0.0
C567 C 0.64194 0.97558 0.43692 0.0
C568 C 0.6426 0.93914 0.45844 0.0
H569 H 0.64023 0.04085 0.43746 0.0
H570 H 0.64147 0.97479 0.40563 0.0
S571 S 0.64421 0.93047 0.56521 0.0
N572 N 0.64331 0.9801 0.55685 0.0
N573 N 0.64398 0.90838 0.52232 0.0
C574 C 0.64308 0.94168 0.49893 0.0
C575 C 0.6429 0.98052 0.51759 0.0
loop_
_geom_bond_atom_site_label_1
_geom_bond_atom_site_label_2
_geom_bond_distance
_geom_bond_site_symmetry_2
_ccdc_geom_bond_type
C0 O1 1.306 . S
C0 O3 1.160 . S
O1 C0 1.306 . S
O1 Cd2 2.228 . S
Cd2 O1 2.228 . S
Cd2 O6 2.273 . S
Cd2 O10 2.277 . S
O3 C0 1.160 . S
O3 Cd4 2.203 . S
Cd4 O3 2.203 . S
Cd4 O6 2.411 . S
Cd4 O7 2.333 . S
Cd4 O8 2.352 . S
Cd4 O12 2.277 . S
Cd4 O13 2.356 . S
C5 O10 1.209 . S
C5 O12 1.226 . S
O6 Cd2 2.273 . S
O6 Cd4 2.411 . S
O6 C9 1.320 . S
O7 Cd4 2.333 . S
O7 C9 1.214 . S
O8 Cd4 2.352 . S
O8 C11 1.258 . S
C9 O6 1.320 . S
C9 O7 1.214 . S
O10 Cd2 2.277 . S
O10 C5 1.209 . S
C11 O8 1.258 . S
C11 O13 1.282 . S
O12 Cd4 2.277 . S
O12 C5 1.226 . S
O13 Cd4 2.356 . S
O13 C11 1.282 . S
C14 O15 1.306 . S
C14 O17 1.160 . S
O15 C14 1.306 . S
O15 Cd16 2.228 . S
Cd16 O15 2.228 . S
Cd16 O20 2.273 . S
Cd16 O24 2.277 . S
O17 C14 1.160 . S
O17 Cd18 2.203 . S
Cd18 O17 2.203 . S
Cd18 O20 2.411 . S
Cd18 O21 2.333 . S
Cd18 O22 2.352 . S
Cd18 O26 2.277 . S
Cd18 O27 2.356 . S
C19 O24 1.209 . S
C19 O26 1.226 . S
O20 Cd16 2.273 . S
O20 Cd18 2.411 . S
O20 C23 1.320 . S
O21 Cd18 2.333 . S
O21 C23 1.214 . S
O22 Cd18 2.352 . S
O22 C25 1.258 . S
C23 O20 1.320 . S
C23 O21 1.214 . S
O24 Cd16 2.277 . S
O24 C19 1.209 . S
C25 O22 1.258 . S
C25 O27 1.282 . S
O26 Cd18 2.277 . S
O26 C19 1.226 . S
O27 Cd18 2.356 . S
O27 C25 1.282 . S
C28 O29 1.306 . S
C28 O31 1.160 . S
O29 C28 1.306 . S
O29 Cd30 2.228 . S
Cd30 O29 2.228 . S
Cd30 O34 2.273 . S
Cd30 O38 2.277 . S
O31 C28 1.160 . S
O31 Cd32 2.203 . S
Cd32 O31 2.203 . S
Cd32 O34 2.411 . S
Cd32 O35 2.333 . S
Cd32 O36 2.352 . S
Cd32 O40 2.277 . S
Cd32 O41 2.356 . S
C33 O38 1.209 . S
C33 O40 1.226 . S
O34 Cd30 2.273 . S
O34 Cd32 2.411 . S
O34 C37 1.320 . S
O35 Cd32 2.333 . S
O35 C37 1.214 . S
O36 Cd32 2.352 . S
O36 C39 1.258 . S
C37 O34 1.320 . S
C37 O35 1.214 . S
O38 Cd30 2.277 . S
O38 C33 1.209 . S
C39 O36 1.258 . S
C39 O41 1.282 . S
O40 Cd32 2.277 . S
O40 C33 1.226 . S
O41 Cd32 2.356 . S
O41 C39 1.282 . S
C42 O43 1.306 . S
C42 O45 1.160 . S
O43 C42 1.306 . S
O43 Cd44 2.228 . S
Cd44 O43 2.228 . S
Cd44 O48 2.273 . S
Cd44 O52 2.277 . S
O45 C42 1.160 . S
O45 Cd46 2.203 . S
Cd46 O45 2.203 . S
Cd46 O48 2.411 . S
Cd46 O49 2.333 . S
Cd46 O50 2.352 . S
Cd46 O54 2.277 . S
Cd46 O55 2.356 . S
C47 O52 1.209 . S
C47 O54 1.226 . S
O48 Cd44 2.273 . S
O48 Cd46 2.411 . S
O48 C51 1.320 . S
O49 Cd46 2.333 . S
O49 C51 1.214 . S
O50 Cd46 2.352 . S
O50 C53 1.258 . S
C51 O48 1.320 . S
C51 O49 1.214 . S
O52 Cd44 2.277 . S
O52 C47 1.209 . S
C53 O50 1.258 . S
C53 O55 1.282 . S
O54 Cd46 2.277 . S
O54 C47 1.226 . S
O55 Cd46 2.356 . S
O55 C53 1.282 . S
C56 O57 1.306 . S
C56 O59 1.160 . S
O57 C56 1.306 . S
O57 Cd58 2.228 . S
Cd58 O57 2.228 . S
Cd58 O62 2.273 . S
Cd58 O66 2.277 . S
O59 C56 1.160 . S
O59 Cd60 2.203 . S
Cd60 O59 2.203 . S
Cd60 O62 2.411 . S
Cd60 O63 2.333 . S
Cd60 O64 2.352 . S
Cd60 O68 2.277 . S
Cd60 O69 2.356 . S
C61 O66 1.209 . S
C61 O68 1.226 . S
O62 Cd58 2.273 . S
O62 Cd60 2.411 . S
O62 C65 1.320 . S
O63 Cd60 2.333 . S
O63 C65 1.214 . S
O64 Cd60 2.352 . S
O64 C67 1.258 . S
C65 O62 1.320 . S
C65 O63 1.214 . S
O66 Cd58 2.277 . S
O66 C61 1.209 . S
C67 O64 1.258 . S
C67 O69 1.282 . S
O68 Cd60 2.277 . S
O68 C61 1.226 . S
O69 Cd60 2.356 . S
O69 C67 1.282 . S
C70 O71 1.306 . S
C70 O73 1.160 . S
O71 C70 1.306 . S
O71 Cd72 2.228 . S
Cd72 O71 2.228 . S
Cd72 O76 2.273 . S
Cd72 O80 2.277 . S
O73 C70 1.160 . S
O73 Cd74 2.203 . S
Cd74 O73 2.203 . S
Cd74 O76 2.411 . S
Cd74 O77 2.333 . S
Cd74 O78 2.352 . S
Cd74 O82 2.277 . S
Cd74 O83 2.356 . S
C75 O80 1.209 . S
C75 O82 1.226 . S
O76 Cd72 2.273 . S
O76 Cd74 2.411 . S
O76 C79 1.320 . S
O77 Cd74 2.333 . S
O77 C79 1.214 . S
O78 Cd74 2.352 . S
O78 C81 1.258 . S
C79 O76 1.320 . S
C79 O77 1.214 . S
O80 Cd72 2.277 . S
O80 C75 1.209 . S
C81 O78 1.258 . S
C81 O83 1.282 . S
O82 Cd74 2.277 . S
O82 C75 1.226 . S
O83 Cd74 2.356 . S
O83 C81 1.282 . S
C84 O85 1.306 . S
C84 O87 1.160 . S
O85 C84 1.306 . S
O85 Cd86 2.228 . S
Cd86 O85 2.228 . S
Cd86 O90 2.273 . S
Cd86 O94 2.277 . S
O87 C84 1.160 . S
O87 Cd88 2.203 . S
Cd88 O87 2.203 . S
Cd88 O90 2.411 . S
Cd88 O91 2.333 . S
Cd88 O92 2.352 . S
Cd88 O96 2.277 . S
Cd88 O97 2.356 . S
C89 O94 1.209 . S
C89 O96 1.226 . S
O90 Cd86 2.273 . S
O90 Cd88 2.411 . S
O90 C93 1.320 . S
O91 Cd88 2.333 . S
O91 C93 1.214 . S
O92 Cd88 2.352 . S
O92 C95 1.258 . S
C93 O90 1.320 . S
C93 O91 1.214 . S
O94 Cd86 2.277 . S
O94 C89 1.209 . S
C95 O92 1.258 . S
C95 O97 1.282 . S
O96 Cd88 2.277 . S
O96 C89 1.226 . S
O97 Cd88 2.356 . S
O97 C95 1.282 . S
C98 O99 1.306 . S
C98 O101 1.160 . S
O99 C98 1.306 . S
O99 Cd100 2.228 . S
Cd100 O99 2.228 . S
Cd100 O104 2.273 . S
Cd100 O108 2.277 . S
O101 C98 1.160 . S
O101 Cd102 2.203 . S
Cd102 O101 2.203 . S
Cd102 O104 2.411 . S
Cd102 O105 2.333 . S
Cd102 O106 2.352 . S
Cd102 O110 2.277 . S
Cd102 O111 2.356 . S
C103 O108 1.209 . S
C103 O110 1.226 . S
O104 Cd100 2.273 . S
O104 Cd102 2.411 . S
O104 C107 1.320 . S
O105 Cd102 2.333 . S
O105 C107 1.214 . S
O106 Cd102 2.352 . S
O106 C109 1.258 . S
C107 O104 1.320 . S
C107 O105 1.214 . S
O108 Cd100 2.277 . S
O108 C103 1.209 . S
C109 O106 1.258 . S
C109 O111 1.282 . S
O110 Cd102 2.277 . S
O110 C103 1.226 . S
O111 Cd102 2.356 . S
O111 C109 1.282 . S
C112 O113 1.306 . S
C112 O115 1.160 . S
O113 C112 1.306 . S
O113 Cd114 2.228 . S
Cd114 O113 2.228 . S
Cd114 O118 2.273 . S
Cd114 O122 2.277 . S
O115 C112 1.160 . S
O115 Cd116 2.203 . S
Cd116 O115 2.203 . S
Cd116 O118 2.411 . S
Cd116 O119 2.333 . S
Cd116 O120 2.352 . S
Cd116 O124 2.277 . S
Cd116 O125 2.356 . S
C117 O122 1.209 . S
C117 O124 1.226 . S
O118 Cd114 2.273 . S
O118 Cd116 2.411 . S
O118 C121 1.320 . S
O119 Cd116 2.333 . S
O119 C121 1.214 . S
O120 Cd116 2.352 . S
O120 C123 1.258 . S
C121 O118 1.320 . S
C121 O119 1.214 . S
O122 Cd114 2.277 . S
O122 C117 1.209 . S
C123 O120 1.258 . S
C123 O125 1.282 . S
O124 Cd116 2.277 . S
O124 C117 1.226 . S
O125 Cd116 2.356 . S
O125 C123 1.282 . S
C126 O127 1.306 . S
C126 O129 1.160 . S
O127 C126 1.306 . S
O127 Cd128 2.228 . S
Cd128 O127 2.228 . S
Cd128 O132 2.273 . S
Cd128 O136 2.277 . S
O129 C126 1.160 . S
O129 Cd130 2.203 . S
Cd130 O129 2.203 . S
Cd130 O132 2.411 . S
Cd130 O133 2.333 . S
Cd130 O134 2.352 . S
Cd130 O138 2.277 . S
Cd130 O139 2.356 . S
C131 O136 1.209 . S
C131 O138 1.226 . S
O132 Cd128 2.273 . S
O132 Cd130 2.411 . S
O132 C135 1.320 . S
O133 Cd130 2.333 . S
O133 C135 1.214 . S
O134 Cd130 2.352 . S
O134 C137 1.258 . S
C135 O132 1.320 . S
C135 O133 1.214 . S
O136 Cd128 2.277 . S
O136 C131 1.209 . S
C137 O134 1.258 . S
C137 O139 1.282 . S
O138 Cd130 2.277 . S
O138 C131 1.226 . S
O139 Cd130 2.356 . S
O139 C137 1.282 . S
C140 O141 1.306 . S
C140 O143 1.160 . S
O141 C140 1.306 . S
O141 Cd142 2.228 . S
Cd142 O141 2.228 . S
Cd142 O146 2.273 . S
Cd142 O150 2.277 . S
O143 C140 1.160 . S
O143 Cd144 2.203 . S
Cd144 O143 2.203 . S
Cd144 O146 2.411 . S
Cd144 O147 2.333 . S
Cd144 O148 2.352 . S
Cd144 O152 2.277 . S
Cd144 O153 2.356 . S
C145 O150 1.209 . S
C145 O152 1.226 . S
O146 Cd142 2.273 . S
O146 Cd144 2.411 . S
O146 C149 1.320 . S
O147 Cd144 2.333 . S
O147 C149 1.214 . S
O148 Cd144 2.352 . S
O148 C151 1.258 . S
C149 O146 1.320 . S
C149 O147 1.214 . S
O150 Cd142 2.277 . S
O150 C145 1.209 . S
C151 O148 1.258 . S
C151 O153 1.282 . S
O152 Cd144 2.277 . S
O152 C145 1.226 . S
O153 Cd144 2.356 . S
O153 C151 1.282 . S
C154 O155 1.306 . S
C154 O157 1.160 . S
O155 C154 1.306 . S
O155 Cd156 2.228 . S
Cd156 O155 2.228 . S
Cd156 O160 2.273 . S
Cd156 O164 2.277 . S
O157 C154 1.160 . S
O157 Cd158 2.203 . S
Cd158 O157 2.203 . S
Cd158 O160 2.411 . S
Cd158 O161 2.333 . S
Cd158 O162 2.352 . S
Cd158 O166 2.277 . S
Cd158 O167 2.356 . S
C159 O164 1.209 . S
C159 O166 1.226 . S
O160 Cd156 2.273 . S
O160 Cd158 2.411 . S
O160 C163 1.320 . S
O161 Cd158 2.333 . S
O161 C163 1.214 . S
O162 Cd158 2.352 . S
O162 C165 1.258 . S
C163 O160 1.320 . S
C163 O161 1.214 . S
O164 Cd156 2.277 . S
O164 C159 1.209 . S
C165 O162 1.258 . S
C165 O167 1.282 . S
O166 Cd158 2.277 . S
O166 C159 1.226 . S
O167 Cd158 2.356 . S
O167 C165 1.282 . S
C168 O169 1.306 . S
C168 O171 1.160 . S
O169 C168 1.306 . S
O169 Cd170 2.228 . S
Cd170 O169 2.228 . S
Cd170 O174 2.273 . S
Cd170 O178 2.277 . S
O171 C168 1.160 . S
O171 Cd172 2.203 . S
Cd172 O171 2.203 . S
Cd172 O174 2.411 . S
Cd172 O175 2.333 . S
Cd172 O176 2.352 . S
Cd172 O180 2.277 . S
Cd172 O181 2.356 . S
C173 O178 1.209 . S
C173 O180 1.226 . S
O174 Cd170 2.273 . S
O174 Cd172 2.411 . S
O174 C177 1.320 . S
O175 Cd172 2.333 . S
O175 C177 1.214 . S
O176 Cd172 2.352 . S
O176 C179 1.258 . S
C177 O174 1.320 . S
C177 O175 1.214 . S
O178 Cd170 2.277 . S
O178 C173 1.209 . S
C179 O176 1.258 . S
C179 O181 1.282 . S
O180 Cd172 2.277 . S
O180 C173 1.226 . S
O181 Cd172 2.356 . S
O181 C179 1.282 . S
C182 O183 1.306 . S
C182 O185 1.160 . S
O183 C182 1.306 . S
O183 Cd184 2.228 . S
Cd184 O183 2.228 . S
Cd184 O188 2.273 . S
Cd184 O192 2.277 . S
O185 C182 1.160 . S
O185 Cd186 2.203 . S
Cd186 O185 2.203 . S
Cd186 O188 2.411 . S
Cd186 O189 2.333 . S
Cd186 O190 2.352 . S
Cd186 O194 2.277 . S
Cd186 O195 2.356 . S
C187 O192 1.209 . S
C187 O194 1.226 . S
O188 Cd184 2.273 . S
O188 Cd186 2.411 . S
O188 C191 1.320 . S
O189 Cd186 2.333 . S
O189 C191 1.214 . S
O190 Cd186 2.352 . S
O190 C193 1.258 . S
C191 O188 1.320 . S
C191 O189 1.214 . S
O192 Cd184 2.277 . S
O192 C187 1.209 . S
C193 O190 1.258 . S
C193 O195 1.282 . S
O194 Cd186 2.277 . S
O194 C187 1.226 . S
O195 Cd186 2.356 . S
O195 C193 1.282 . S
C196 O197 1.306 . S
C196 O199 1.160 . S
O197 C196 1.306 . S
O197 Cd198 2.228 . S
Cd198 O197 2.228 . S
Cd198 O202 2.273 . S
Cd198 O206 2.277 . S
O199 C196 1.160 . S
O199 Cd200 2.203 . S
Cd200 O199 2.203 . S
Cd200 O202 2.411 . S
Cd200 O203 2.333 . S
Cd200 O204 2.352 . S
Cd200 O208 2.277 . S
Cd200 O209 2.356 . S
C201 O206 1.209 . S
C201 O208 1.226 . S
O202 Cd198 2.273 . S
O202 Cd200 2.411 . S
O202 C205 1.320 . S
O203 Cd200 2.333 . S
O203 C205 1.214 . S
O204 Cd200 2.352 . S
O204 C207 1.258 . S
C205 O202 1.320 . S
C205 O203 1.214 . S
O206 Cd198 2.277 . S
O206 C201 1.209 . S
C207 O204 1.258 . S
C207 O209 1.282 . S
O208 Cd200 2.277 . S
O208 C201 1.226 . S
O209 Cd200 2.356 . S
O209 C207 1.282 . S
C210 O211 1.306 . S
C210 O213 1.160 . S
O211 C210 1.306 . S
O211 Cd212 2.228 . S
Cd212 O211 2.228 . S
Cd212 O216 2.273 . S
Cd212 O220 2.277 . S
O213 C210 1.160 . S
O213 Cd214 2.203 . S
Cd214 O213 2.203 . S
Cd214 O216 2.411 . S
Cd214 O217 2.333 . S
Cd214 O218 2.352 . S
Cd214 O222 2.277 . S
Cd214 O223 2.356 . S
C215 O220 1.209 . S
C215 O222 1.226 . S
O216 Cd212 2.273 . S
O216 Cd214 2.411 . S
O216 C219 1.320 . S
O217 Cd214 2.333 . S
O217 C219 1.214 . S
O218 Cd214 2.352 . S
O218 C221 1.258 . S
C219 O216 1.320 . S
C219 O217 1.214 . S
O220 Cd212 2.277 . S
O220 C215 1.209 . S
C221 O218 1.258 . S
C221 O223 1.282 . S
O222 Cd214 2.277 . S
O222 C215 1.226 . S
O223 Cd214 2.356 . S
O223 C221 1.282 . S
C224 C225 1.369 . S
C224 C226 1.419 1_455 S
C224 H228 0.930 . S
C225 C224 1.369 . S
C225 C234 1.429 . S
C226 C224 1.419 1_655 S
C226 C227 1.363 . S
C226 H229 0.929 . S
C227 C226 1.363 . S
C227 C233 1.428 . S
H228 C224 0.930 . S
H229 C226 0.929 . S
S230 N231 1.613 1_656 S
S230 N232 1.610 1_556 S
N231 S230 1.613 1_454 S
N231 C234 1.350 . S
N232 S230 1.610 1_554 S
N232 C233 1.351 . S
C233 C227 1.428 . S
C233 N232 1.351 . S
C233 C234 1.434 1_655 S
C234 C225 1.429 . S
C234 N231 1.350 . S
C234 C233 1.434 1_455 S
C235 C236 1.369 . S
C235 C237 1.419 1_655 S
C235 H239 0.930 . S
C236 C235 1.369 . S
C236 C245 1.429 . S
C237 C235 1.419 1_455 S
C237 C238 1.363 . S
C237 H240 0.929 . S
C238 C237 1.363 . S
C238 C244 1.428 . S
H239 C235 0.930 . S
H240 C237 0.929 . S
S241 N242 1.613 1_455 S
S241 N243 1.610 . S
N242 S241 1.613 1_655 S
N242 C245 1.350 . S
N243 S241 1.610 . S
N243 C244 1.351 . S
C244 C238 1.428 . S
C244 N243 1.351 . S
C244 C245 1.434 1_455 S
C245 C236 1.429 . S
C245 N242 1.350 . S
C245 C244 1.434 1_655 S
C246 C247 1.369 . S
C246 C248 1.419 1_655 S
C246 H250 0.930 . S
C247 C246 1.369 . S
C247 C256 1.429 . S
C248 C246 1.419 1_455 S
C248 C249 1.363 . S
C248 H251 0.929 . S
C249 C248 1.363 . S
C249 C255 1.428 . S
H250 C246 0.930 . S
H251 C248 0.929 . S
S252 N253 1.613 . S
S252 N254 1.610 1_655 S
N253 S252 1.613 . S
N253 C256 1.350 . S
N254 S252 1.610 1_455 S
N254 C255 1.351 . S
C255 C249 1.428 . S
C255 N254 1.351 . S
C255 C256 1.434 1_455 S
C256 C247 1.429 . S
C256 N253 1.350 . S
C256 C255 1.434 1_655 S
C257 C258 1.369 . S
C257 C259 1.419 1_455 S
C257 H261 0.930 . S
C258 C257 1.369 . S
C258 C267 1.429 . S
C259 C257 1.419 1_655 S
C259 C260 1.363 . S
C259 H262 0.929 . S
C260 C259 1.363 . S
C260 C266 1.428 . S
H261 C257 0.930 . S
H262 C259 0.929 . S
S263 N264 1.613 . S
S263 N265 1.610 1_455 S
N264 S263 1.613 . S
N264 C267 1.350 . S
N265 S263 1.610 1_655 S
N265 C266 1.351 . S
C266 C260 1.428 . S
C266 N265 1.351 . S
C266 C267 1.434 1_655 S
C267 C258 1.429 . S
C267 N264 1.350 . S
C267 C266 1.434 1_455 S
C268 C269 1.369 . S
C268 C270 1.419 . S
C268 H272 0.930 . S
C269 C268 1.369 . S
C269 C278 1.429 . S
C270 C268 1.419 . S
C270 C271 1.363 . S
C270 H273 0.929 . S
C271 C270 1.363 . S
C271 C277 1.428 . S
H272 C268 0.930 . S
H273 C270 0.929 . S
S274 N275 1.613 . S
S274 N276 1.610 . S
N275 S274 1.613 . S
N275 C278 1.350 . S
N276 S274 1.610 . S
N276 C277 1.351 . S
C277 C271 1.428 . S
C277 N276 1.351 . S
C277 C278 1.434 . S
C278 C269 1.429 . S
C278 N275 1.350 . S
C278 C277 1.434 . S
C279 C280 1.369 . S
C279 C281 1.419 . S
C279 H283 0.930 . S
C280 C279 1.369 . S
C280 C289 1.429 . S
C281 C279 1.419 . S
C281 C282 1.363 . S
C281 H284 0.929 . S
C282 C281 1.363 . S
C282 C288 1.428 . S
H283 C279 0.930 . S
H284 C281 0.929 . S
S285 N286 1.613 . S
S285 N287 1.610 . S
N286 S285 1.613 . S
N286 C289 1.350 . S
N287 S285 1.610 . S
N287 C288 1.351 . S
C288 C282 1.428 . S
C288 N287 1.351 . S
C288 C289 1.434 . S
C289 C280 1.429 . S
C289 N286 1.350 . S
C289 C288 1.434 . S
C290 C291 1.369 . S
C290 C292 1.419 . S
C290 H294 0.930 . S
C291 C290 1.369 . S
C291 C300 1.429 . S
C292 C290 1.419 . S
C292 C293 1.363 . S
C292 H295 0.929 . S
C293 C292 1.363 . S
C293 C299 1.428 . S
H294 C290 0.930 . S
H295 C292 0.929 . S
S296 N297 1.613 . S
S296 N298 1.610 . S
N297 S296 1.613 . S
N297 C300 1.350 . S
N298 S296 1.610 . S
N298 C299 1.351 . S
C299 C293 1.428 . S
C299 N298 1.351 . S
C299 C300 1.434 . S
C300 C291 1.429 . S
C300 N297 1.350 . S
C300 C299 1.434 . S
C301 C302 1.369 . S
C301 C303 1.419 . S
C301 H305 0.930 . S
C302 C301 1.369 . S
C302 C311 1.429 . S
C303 C301 1.419 . S
C303 C304 1.363 . S
C303 H306 0.929 . S
C304 C303 1.363 . S
C304 C310 1.428 . S
H305 C301 0.930 . S
H306 C303 0.929 . S
S307 N308 1.613 . S
S307 N309 1.610 . S
N308 S307 1.613 . S
N308 C311 1.350 . S
N309 S307 1.610 . S
N309 C310 1.351 . S
C310 C304 1.428 . S
C310 N309 1.351 . S
C310 C311 1.434 . S
C311 C302 1.429 . S
C311 N308 1.350 . S
C311 C310 1.434 . S
C312 C313 1.369 . S
C312 C314 1.419 . S
C312 H316 0.930 . S
C313 C312 1.369 . S
C313 C322 1.429 . S
C314 C312 1.419 . S
C314 C315 1.363 . S
C314 H317 0.929 . S
C315 C314 1.363 . S
C315 C321 1.428 . S
H316 C312 0.930 . S
H317 C314 0.929 . S
S318 N319 1.613 . S
S318 N320 1.610 . S
N319 S318 1.613 . S
N319 C322 1.350 . S
N320 S318 1.610 . S
N320 C321 1.351 . S
C321 C315 1.428 . S
C321 N320 1.351 . S
C321 C322 1.434 . S
C322 C313 1.429 . S
C322 N319 1.350 . S
C322 C321 1.434 . S
C323 C324 1.369 . S
C323 C325 1.419 . S
C323 H327 0.930 . S
C324 C323 1.369 . S
C324 C333 1.429 . S
C325 C323 1.419 . S
C325 C326 1.363 . S
C325 H328 0.929 . S
C326 C325 1.363 . S
C326 C332 1.428 . S
H327 C323 0.930 . S
H328 C325 0.929 . S
S329 N330 1.613 . S
S329 N331 1.610 . S
N330 S329 1.613 . S
N330 C333 1.350 . S
N331 S329 1.610 . S
N331 C332 1.351 . S
C332 C326 1.428 . S
C332 N331 1.351 . S
C332 C333 1.434 . S
C333 C324 1.429 . S
C333 N330 1.350 . S
C333 C332 1.434 . S
C334 C335 1.369 . S
C334 C336 1.419 . S
C334 H338 0.930 . S
C335 C334 1.369 . S
C335 C344 1.429 . S
C336 C334 1.419 . S
C336 C337 1.363 . S
C336 H339 0.929 . S
C337 C336 1.363 . S
C337 C343 1.428 . S
H338 C334 0.930 . S
H339 C336 0.929 . S
S340 N341 1.613 . S
S340 N342 1.610 . S
N341 S340 1.613 . S
N341 C344 1.350 . S
N342 S340 1.610 . S
N342 C343 1.351 . S
C343 C337 1.428 . S
C343 N342 1.351 . S
C343 C344 1.434 . S
C344 C335 1.429 . S
C344 N341 1.350 . S
C344 C343 1.434 . S
C345 C346 1.369 . S
C345 C347 1.419 . S
C345 H349 0.930 . S
C346 C345 1.369 . S
C346 C355 1.429 . S
C347 C345 1.419 . S
C347 C348 1.363 . S
C347 H350 0.929 . S
C348 C347 1.363 . S
C348 C354 1.428 . S
H349 C345 0.930 . S
H350 C347 0.929 . S
S351 N352 1.613 . S
S351 N353 1.610 . S
N352 S351 1.613 . S
N352 C355 1.350 . S
N353 S351 1.610 . S
N353 C354 1.351 . S
C354 C348 1.428 . S
C354 N353 1.351 . S
C354 C355 1.434 . S
C355 C346 1.429 . S
C355 N352 1.350 . S
C355 C354 1.434 . S
C356 C357 1.369 . S
C356 C358 1.419 . S
C356 H360 0.930 . S
C357 C356 1.369 . S
C357 C366 1.429 . S
C358 C356 1.419 . S
C358 C359 1.363 . S
C358 H361 0.929 . S
C359 C358 1.363 . S
C359 C365 1.428 . S
H360 C356 0.930 . S
H361 C358 0.929 . S
S362 N363 1.613 . S
S362 N364 1.610 . S
N363 S362 1.613 . S
N363 C366 1.350 . S
N364 S362 1.610 . S
N364 C365 1.351 . S
C365 C359 1.428 . S
C365 N364 1.351 . S
C365 C366 1.434 . S
C366 C357 1.429 . S
C366 N363 1.350 . S
C366 C365 1.434 . S
C367 C368 1.369 . S
C367 C369 1.419 . S
C367 H371 0.930 . S
C368 C367 1.369 . S
C368 C377 1.429 . S
C369 C367 1.419 . S
C369 C370 1.363 . S
C369 H372 0.929 . S
C370 C369 1.363 . S
C370 C376 1.428 . S
H371 C367 0.930 . S
H372 C369 0.929 . S
S373 N374 1.613 . S
S373 N375 1.610 . S
N374 S373 1.613 . S
N374 C377 1.350 . S
N375 S373 1.610 . S
N375 C376 1.351 . S
C376 C370 1.428 . S
C376 N375 1.351 . S
C376 C377 1.434 . S
C377 C368 1.429 . S
C377 N374 1.350 . S
C377 C376 1.434 . S
C378 C379 1.369 . S
C378 C380 1.419 . S
C378 H382 0.930 . S
C379 C378 1.369 . S
C379 C388 1.429 . S
C380 C378 1.419 . S
C380 C381 1.363 . S
C380 H383 0.929 . S
C381 C380 1.363 . S
C381 C387 1.428 . S
H382 C378 0.930 . S
H383 C380 0.929 . S
S384 N385 1.613 . S
S384 N386 1.610 . S
N385 S384 1.613 . S
N385 C388 1.350 . S
N386 S384 1.610 . S
N386 C387 1.351 . S
C387 C381 1.428 . S
C387 N386 1.351 . S
C387 C388 1.434 . S
C388 C379 1.429 . S
C388 N385 1.350 . S
C388 C387 1.434 . S
C389 C390 1.369 . S
C389 C391 1.419 . S
C389 H393 0.930 . S
C390 C389 1.369 . S
C390 C399 1.429 . S
C391 C389 1.419 . S
C391 C392 1.363 . S
C391 H394 0.929 . S
C392 C391 1.363 . S
C392 C398 1.428 . S
H393 C389 0.930 . S
H394 C391 0.929 . S
S395 N396 1.613 . S
S395 N397 1.610 . S
N396 S395 1.613 . S
N396 C399 1.350 . S
N397 S395 1.610 . S
N397 C398 1.351 . S
C398 C392 1.428 . S
C398 N397 1.351 . S
C398 C399 1.434 . S
C399 C390 1.429 . S
C399 N396 1.350 . S
C399 C398 1.434 . S
C400 C401 1.369 . S
C400 C402 1.419 . S
C400 H404 0.930 . S
C401 C400 1.369 . S
C401 C410 1.429 1_556 S
C402 C400 1.419 . S
C402 C403 1.363 1_556 S
C402 H405 0.929 . S
C403 C402 1.363 1_554 S
C403 C409 1.428 . S
H404 C400 0.930 . S
H405 C402 0.929 . S
S406 N407 1.613 . S
S406 N408 1.610 . S
N407 S406 1.613 . S
N407 C410 1.350 . S
N408 S406 1.610 . S
N408 C409 1.351 . S
C409 C403 1.428 . S
C409 N408 1.351 . S
C409 C410 1.434 . S
C410 C401 1.429 1_554 S
C410 N407 1.350 . S
C410 C409 1.434 . S
C411 C412 1.369 . S
C411 C413 1.419 . S
C411 H415 0.930 . S
C412 C411 1.369 . S
C412 C421 1.429 . S
C413 C411 1.419 . S
C413 C414 1.363 . S
C413 H416 0.929 . S
C414 C413 1.363 . S
C414 C420 1.428 . S
H415 C411 0.930 . S
H416 C413 0.929 . S
S417 N418 1.613 . S
S417 N419 1.610 . S
N418 S417 1.613 . S
N418 C421 1.350 . S
N419 S417 1.610 . S
N419 C420 1.351 . S
C420 C414 1.428 . S
C420 N419 1.351 . S
C420 C421 1.434 . S
C421 C412 1.429 . S
C421 N418 1.350 . S
C421 C420 1.434 . S
C422 C423 1.369 . S
C422 C424 1.419 . S
C422 H426 0.930 . S
C423 C422 1.369 . S
C423 C432 1.429 1_554 S
C424 C422 1.419 . S
C424 C425 1.363 1_554 S
C424 H427 0.929 . S
C425 C424 1.363 1_556 S
C425 C431 1.428 . S
H426 C422 0.930 . S
H427 C424 0.929 . S
S428 N429 1.613 . S
S428 N430 1.610 . S
N429 S428 1.613 . S
N429 C432 1.350 . S
N430 S428 1.610 . S
N430 C431 1.351 . S
C431 C425 1.428 . S
C431 N430 1.351 . S
C431 C432 1.434 . S
C432 C423 1.429 1_556 S
C432 N429 1.350 . S
C432 C431 1.434 . S
C433 C434 1.369 . S
C433 C435 1.419 . S
C433 H437 0.930 . S
C434 C433 1.369 . S
C434 C443 1.429 . S
C435 C433 1.419 . S
C435 C436 1.363 . S
C435 H438 0.929 . S
C436 C435 1.363 . S
C436 C442 1.428 . S
H437 C433 0.930 . S
H438 C435 0.929 . S
S439 N440 1.613 . S
S439 N441 1.610 . S
N440 S439 1.613 . S
N440 C443 1.350 . S
N441 S439 1.610 . S
N441 C442 1.351 . S
C442 C436 1.428 . S
C442 N441 1.351 . S
C442 C443 1.434 . S
C443 C434 1.429 . S
C443 N440 1.350 . S
C443 C442 1.434 . S
C444 C445 1.369 1_556 S
C444 C446 1.419 . S
C444 H448 0.930 . S
C445 C444 1.369 1_554 S
C445 C454 1.429 . S
C446 C444 1.419 . S
C446 C447 1.363 . S
C446 H449 0.929 . S
C447 C446 1.363 . S
C447 C453 1.428 1_556 S
H448 C444 0.930 . S
H449 C446 0.929 . S
S450 N451 1.613 . S
S450 N452 1.610 . S
N451 S450 1.613 . S
N451 C454 1.350 . S
N452 S450 1.610 . S
N452 C453 1.351 . S
C453 C447 1.428 1_554 S
C453 N452 1.351 . S
C453 C454 1.434 . S
C454 C445 1.429 . S
C454 N451 1.350 . S
C454 C453 1.434 . S
C455 C456 1.369 . S
C455 C457 1.419 . S
C455 H459 0.930 . S
C456 C455 1.369 . S
C456 C465 1.429 . S
C457 C455 1.419 . S
C457 C458 1.363 . S
C457 H460 0.929 . S
C458 C457 1.363 . S
C458 C464 1.428 . S
H459 C455 0.930 . S
H460 C457 0.929 . S
S461 N462 1.613 . S
S461 N463 1.610 . S
N462 S461 1.613 . S
N462 C465 1.350 . S
N463 S461 1.610 . S
N463 C464 1.351 . S
C464 C458 1.428 . S
C464 N463 1.351 . S
C464 C465 1.434 . S
C465 C456 1.429 . S
C465 N462 1.350 . S
C465 C464 1.434 . S
C466 C467 1.369 1_556 S
C466 C468 1.419 . S
C466 H470 0.930 . S
C467 C466 1.369 1_554 S
C467 C476 1.429 . S
C468 C466 1.419 . S
C468 C469 1.363 . S
C468 H471 0.929 . S
C469 C468 1.363 . S
C469 C475 1.428 1_556 S
H470 C466 0.930 . S
H471 C468 0.929 . S
S472 N473 1.613 . S
S472 N474 1.610 . S
N473 S472 1.613 . S
N473 C476 1.350 . S
N474 S472 1.610 . S
N474 C475 1.351 . S
C475 C469 1.428 1_554 S
C475 N474 1.351 . S
C475 C476 1.434 . S
C476 C467 1.429 . S
C476 N473 1.350 . S
C476 C475 1.434 . S
C477 C478 1.369 . S
C477 C479 1.419 . S
C477 H481 0.930 . S
C478 C477 1.369 . S
C478 C487 1.429 . S
C479 C477 1.419 . S
C479 C480 1.363 . S
C479 H482 0.929 . S
C480 C479 1.363 . S
C480 C486 1.428 . S
H481 C477 0.930 . S
H482 C479 0.929 . S
S483 N484 1.613 . S
S483 N485 1.610 . S
N484 S483 1.613 . S
N484 C487 1.350 . S
N485 S483 1.610 . S
N485 C486 1.351 . S
C486 C480 1.428 . S
C486 N485 1.351 . S
C486 C487 1.434 . S
C487 C478 1.429 . S
C487 N484 1.350 . S
C487 C486 1.434 . S
C488 C489 1.369 . S
C488 C490 1.419 1_556 S
C488 H492 0.930 . S
C489 C488 1.369 . S
C489 C498 1.429 . S
C490 C488 1.419 1_554 S
C490 C491 1.363 . S
C490 H493 0.929 . S
C491 C490 1.363 . S
C491 C497 1.428 . S
H492 C488 0.930 . S
H493 C490 0.929 . S
S494 N495 1.613 . S
S494 N496 1.610 1_556 S
N495 S494 1.613 . S
N495 C498 1.350 . S
N496 S494 1.610 1_554 S
N496 C497 1.351 . S
C497 C491 1.428 . S
C497 N496 1.351 . S
C497 C498 1.434 1_554 S
C498 C489 1.429 . S
C498 N495 1.350 . S
C498 C497 1.434 1_556 S
C499 C500 1.369 . S
C499 C501 1.419 . S
C499 H503 0.930 . S
C500 C499 1.369 . S
C500 C509 1.429 . S
C501 C499 1.419 . S
C501 C502 1.363 . S
C501 H504 0.929 . S
C502 C501 1.363 . S
C502 C508 1.428 . S
H503 C499 0.930 . S
H504 C501 0.929 . S
S505 N506 1.613 . S
S505 N507 1.610 . S
N506 S505 1.613 . S
N506 C509 1.350 . S
N507 S505 1.610 . S
N507 C508 1.351 . S
C508 C502 1.428 . S
C508 N507 1.351 . S
C508 C509 1.434 . S
C509 C500 1.429 . S
C509 N506 1.350 . S
C509 C508 1.434 . S
C510 C511 1.369 . S
C510 C512 1.419 . S
C510 H514 0.930 . S
C511 C510 1.369 . S
C511 C520 1.429 1_554 S
C512 C510 1.419 . S
C512 C513 1.363 1_554 S
C512 H515 0.929 . S
C513 C512 1.363 1_556 S
C513 C519 1.428 . S
H514 C510 0.930 . S
H515 C512 0.929 . S
S516 N517 1.613 . S
S516 N518 1.610 . S
N517 S516 1.613 . S
N517 C520 1.350 . S
N518 S516 1.610 . S
N518 C519 1.351 . S
C519 C513 1.428 . S
C519 N518 1.351 . S
C519 C520 1.434 . S
C520 C511 1.429 1_556 S
C520 N517 1.350 . S
C520 C519 1.434 . S
C521 C522 1.369 . S
C521 C523 1.419 . S
C521 H525 0.930 . S
C522 C521 1.369 . S
C522 C531 1.429 . S
C523 C521 1.419 . S
C523 C524 1.363 . S
C523 H526 0.929 . S
C524 C523 1.363 . S
C524 C530 1.428 . S
H525 C521 0.930 . S
H526 C523 0.929 . S
S527 N528 1.613 . S
S527 N529 1.610 . S
N528 S527 1.613 . S
N528 C531 1.350 . S
N529 S527 1.610 . S
N529 C530 1.351 . S
C530 C524 1.428 . S
C530 N529 1.351 . S
C530 C531 1.434 . S
C531 C522 1.429 . S
C531 N528 1.350 . S
C531 C530 1.434 . S
C532 C533 1.369 1_554 S
C532 C534 1.419 1_545 S
C532 H536 0.930 . S
C533 C532 1.369 1_556 S
C533 C542 1.429 . S
C534 C532 1.419 1_565 S
C534 C535 1.363 . S
C534 H537 0.929 . S
C535 C534 1.363 . S
C535 C541 1.428 1_554 S
H536 C532 0.930 . S
H537 C534 0.929 . S
S538 N539 1.613 1_565 S
S538 N540 1.610 . S
N539 S538 1.613 1_545 S
N539 C542 1.350 . S
N540 S538 1.610 . S
N540 C541 1.351 . S
C541 C535 1.428 1_556 S
C541 N540 1.351 . S
C541 C542 1.434 1_565 S
C542 C533 1.429 . S
C542 N539 1.350 . S
C542 C541 1.434 1_545 S
C543 C544 1.369 . S
C543 C545 1.419 1_565 S
C543 H547 0.930 . S
C544 C543 1.369 . S
C544 C553 1.429 . S
C545 C543 1.419 1_545 S
C545 C546 1.363 . S
C545 H548 0.929 . S
C546 C545 1.363 . S
C546 C552 1.428 . S
H547 C543 0.930 . S
H548 C545 0.929 . S
S549 N550 1.613 1_545 S
S549 N551 1.610 . S
N550 S549 1.613 1_565 S
N550 C553 1.350 . S
N551 S549 1.610 . S
N551 C552 1.351 . S
C552 C546 1.428 . S
C552 N551 1.351 . S
C552 C553 1.434 1_545 S
C553 C544 1.429 . S
C553 N550 1.350 . S
C553 C552 1.434 1_565 S
C554 C555 1.369 1_556 S
C554 C556 1.419 1_565 S
C554 H558 0.930 . S
C555 C554 1.369 1_554 S
C555 C564 1.429 . S
C556 C554 1.419 1_545 S
C556 C557 1.363 . S
C556 H559 0.929 . S
C557 C556 1.363 . S
C557 C563 1.428 1_556 S
H558 C554 0.930 . S
H559 C556 0.929 . S
S560 N561 1.613 1_545 S
S560 N562 1.610 . S
N561 S560 1.613 1_565 S
N561 C564 1.350 . S
N562 S560 1.610 . S
N562 C563 1.351 . S
C563 C557 1.428 1_554 S
C563 N562 1.351 . S
C563 C564 1.434 1_545 S
C564 C555 1.429 . S
C564 N561 1.350 . S
C564 C563 1.434 1_565 S
C565 C566 1.369 . S
C565 C567 1.419 1_545 S
C565 H569 0.930 . S
C566 C565 1.369 . S
C566 C575 1.429 . S
C567 C565 1.419 1_565 S
C567 C568 1.363 . S
C567 H570 0.929 . S
C568 C567 1.363 . S
C568 C574 1.428 . S
H569 C565 0.930 . S
H570 C567 0.929 . S
S571 N572 1.613 1_565 S
S571 N573 1.610 . S
N572 S571 1.613 1_545 S
N572 C575 1.350 . S
N573 S571 1.610 . S
N573 C574 1.351 . S
C574 C568 1.428 . S
C574 N573 1.351 . S
C574 C575 1.434 1_565 S
C575 C566 1.429 . S
C575 N572 1.350 . S
C575 C574 1.434 1_545 S
C225 C5 1.462 . S
C227 C89 1.463 . S
C236 C19 1.462 . S
C238 C103 1.463 . S
C247 C61 1.464 . S
C249 C33 1.463 . S
C258 C75 1.463 . S
C260 C47 1.463 . S
C269 C201 1.462 . S
C271 C117 1.461 . S
C280 C215 1.464 . S
C282 C131 1.463 . S
C291 C145 1.464 . S
C293 C173 1.464 . S
C302 C159 1.461 . S
C304 C187 1.462 . S
C313 C9 1.502 . S
C315 C70 1.478 . S
C324 C23 1.502 . S
C326 C56 1.480 . S
C335 C37 1.503 . S
C337 C98 1.480 . S
C346 C84 1.477 . S
C348 C51 1.502 . S
C357 C182 1.477 . S
C359 C121 1.502 . S
C368 C168 1.479 . S
C370 C135 1.502 . S
C379 C149 1.502 . S
C381 C210 1.480 . S
C390 C196 1.478 . S
C392 C163 1.503 . S
C401 C179 1.428 . S
C403 C11 1.440 . S
C412 C25 1.440 . S
C414 C193 1.430 . S
C423 C207 1.428 . S
C425 C39 1.440 . S
C434 C221 1.429 . S
C436 C53 1.440 . S
C445 C123 1.440 . S
C447 C67 1.430 . S
C456 C137 1.439 . S
C458 C81 1.430 . S
C467 C95 1.433 . S
C469 C151 1.438 . S
C478 C109 1.431 . S
C480 C165 1.438 . S
C489 C28 1.457 . S
C491 C0 1.459 . S
C500 C14 1.457 . S
C502 C42 1.459 . S
C511 C93 1.518 . S
C513 C65 1.517 . S
C522 C79 1.518 . S
C524 C107 1.517 . S
C533 C140 1.455 . S
C535 C112 1.459 . S
C544 C154 1.454 . S
C546 C126 1.459 . S
C555 C205 1.518 . S
C557 C177 1.518 . S
C566 C219 1.517 . S
C568 C191 1.518 . S
