# Generated by pormake.
# Topology wna, (6)-cn, num edge types: 1
# Building blocks:
#     Node 0, Type 0, BuildingBlock: BETDEL_clean_sbu_0, # of connection points: 6
#     Node 1, Type 0, BuildingBlock: BETDEL_clean_sbu_0, # of connection points: 6
#     Node 2, Type 0, BuildingBlock: BETDEL_clean_sbu_0, # of connection points: 6
#     Node 3, Type 0, BuildingBlock: BETDEL_clean_sbu_0, # of connection points: 6
#     Node 4, Type 0, BuildingBlock: BETDEL_clean_sbu_0, # of connection points: 6
#     Node 5, Type 0, BuildingBlock: BETDEL_clean_sbu_0, # of connection points: 6
#     Node 6, Type 0, BuildingBlock: BETDEL_clean_sbu_0, # of connection points: 6
#     Node 7, Type 0, BuildingBlock: BETDEL_clean_sbu_0, # of connection points: 6
#     Node 8, Type 0, BuildingBlock: BETDEL_clean_sbu_0, # of connection points: 6
#     Node 9, Type 0, BuildingBlock: BETDEL_clean_sbu_0, # of connection points: 6
#     Node 10, Type 0, BuildingBlock: BETDEL_clean_sbu_0, # of connection points: 6
#     Node 11, Type 0, BuildingBlock: BETDEL_clean_sbu_0, # of connection points: 6
#     Node 12, Type 0, BuildingBlock: BETDEL_clean_sbu_0, # of connection points: 6
#     Node 13, Type 0, BuildingBlock: BETDEL_clean_sbu_0, # of connection points: 6
#     Node 14, Type 0, BuildingBlock: BETDEL_clean_sbu_0, # of connection points: 6
#     Node 15, Type 0, BuildingBlock: BETDEL_clean_sbu_0, # of connection points: 6
#     Node 16, Type 0, BuildingBlock: BETDEL_clean_sbu_0, # of connection points: 6
#     Node 17, Type 0, BuildingBlock: BETDEL_clean_sbu_0, # of connection points: 6
#     Node 18, Type 0, BuildingBlock: BETDEL_clean_sbu_0, # of connection points: 6
#     Node 19, Type 0, BuildingBlock: BETDEL_clean_sbu_0, # of connection points: 6
#     Node 20, Type 0, BuildingBlock: BETDEL_clean_sbu_0, # of connection points: 6
#     Node 21, Type 0, BuildingBlock: BETDEL_clean_sbu_0, # of connection points: 6
#     Node 22, Type 0, BuildingBlock: BETDEL_clean_sbu_0, # of connection points: 6
#     Node 23, Type 0, BuildingBlock: BETDEL_clean_sbu_0, # of connection points: 6
#     Node 24, Type 0, BuildingBlock: BETDEL_clean_sbu_0, # of connection points: 6
#     Node 25, Type 0, BuildingBlock: BETDEL_clean_sbu_0, # of connection points: 6
#     Node 26, Type 0, BuildingBlock: BETDEL_clean_sbu_0, # of connection points: 6
#     Node 27, Type 0, BuildingBlock: BETDEL_clean_sbu_0, # of connection points: 6
#     Node 28, Type 0, BuildingBlock: BETDEL_clean_sbu_0, # of connection points: 6
#     Node 29, Type 0, BuildingBlock: BETDEL_clean_sbu_0, # of connection points: 6
#     Node 30, Type 0, BuildingBlock: BETDEL_clean_sbu_0, # of connection points: 6
#     Node 31, Type 0, BuildingBlock: BETDEL_clean_sbu_0, # of connection points: 6
#     Node 32, Type 0, BuildingBlock: BETDEL_clean_sbu_0, # of connection points: 6
#     Node 33, Type 0, BuildingBlock: BETDEL_clean_sbu_0, # of connection points: 6
#     Node 34, Type 0, BuildingBlock: BETDEL_clean_sbu_0, # of connection points: 6
#     Node 35, Type 0, BuildingBlock: BETDEL_clean_sbu_0, # of connection points: 6
#     Edge 36, Type (0, 0), BuildingBlock: AJUNOK_clean_linker_0, # of connection points: 2
#     Edge 37, Type (0, 0), BuildingBlock: AJUNOK_clean_linker_0, # of connection points: 2
#     Edge 38, Type (0, 0), BuildingBlock: AJUNOK_clean_linker_0, # of connection points: 2
#     Edge 39, Type (0, 0), BuildingBlock: AJUNOK_clean_linker_0, # of connection points: 2
#     Edge 40, Type (0, 0), BuildingBlock: AJUNOK_clean_linker_0, # of connection points: 2
#     Edge 41, Type (0, 0), BuildingBlock: AJUNOK_clean_linker_0, # of connection points: 2
#     Edge 42, Type (0, 0), BuildingBlock: AJUNOK_clean_linker_0, # of connection points: 2
#     Edge 43, Type (0, 0), BuildingBlock: AJUNOK_clean_linker_0, # of connection points: 2
#     Edge 44, Type (0, 0), BuildingBlock: AJUNOK_clean_linker_0, # of connection points: 2
#     Edge 45, Type (0, 0), BuildingBlock: AJUNOK_clean_linker_0, # of connection points: 2
#     Edge 46, Type (0, 0), BuildingBlock: AJUNOK_clean_linker_0, # of connection points: 2
#     Edge 47, Type (0, 0), BuildingBlock: AJUNOK_clean_linker_0, # of connection points: 2
#     Edge 48, Type (0, 0), BuildingBlock: AJUNOK_clean_linker_0, # of connection points: 2
#     Edge 49, Type (0, 0), BuildingBlock: AJUNOK_clean_linker_0, # of connection points: 2
#     Edge 50, Type (0, 0), BuildingBlock: AJUNOK_clean_linker_0, # of connection points: 2
#     Edge 51, Type (0, 0), BuildingBlock: AJUNOK_clean_linker_0, # of connection points: 2
#     Edge 52, Type (0, 0), BuildingBlock: AJUNOK_clean_linker_0, # of connection points: 2
#     Edge 53, Type (0, 0), BuildingBlock: AJUNOK_clean_linker_0, # of connection points: 2
#     Edge 54, Type (0, 0), BuildingBlock: AJUNOK_clean_linker_0, # of connection points: 2
#     Edge 55, Type (0, 0), BuildingBlock: AJUNOK_clean_linker_0, # of connection points: 2
#     Edge 56, Type (0, 0), BuildingBlock: AJUNOK_clean_linker_0, # of connection points: 2
#     Edge 57, Type (0, 0), BuildingBlock: AJUNOK_clean_linker_0, # of connection points: 2
#     Edge 58, Type (0, 0), BuildingBlock: AJUNOK_clean_linker_0, # of connection points: 2
#     Edge 59, Type (0, 0), BuildingBlock: AJUNOK_clean_linker_0, # of connection points: 2
#     Edge 60, Type (0, 0), BuildingBlock: AJUNOK_clean_linker_0, # of connection points: 2
#     Edge 61, Type (0, 0), BuildingBlock: AJUNOK_clean_linker_0, # of connection points: 2
#     Edge 62, Type (0, 0), BuildingBlock: AJUNOK_clean_linker_0, # of connection points: 2
#     Edge 63, Type (0, 0), BuildingBlock: AJUNOK_clean_linker_0, # of connection points: 2
#     Edge 64, Type (0, 0), BuildingBlock: AJUNOK_clean_linker_0, # of connection points: 2
#     Edge 65, Type (0, 0), BuildingBlock: AJUNOK_clean_linker_0, # of connection points: 2
#     Edge 66, Type (0, 0), BuildingBlock: AJUNOK_clean_linker_0, # of connection points: 2
#     Edge 67, Type (0, 0), BuildingBlock: AJUNOK_clean_linker_0, # of connection points: 2
#     Edge 68, Type (0, 0), BuildingBlock: AJUNOK_clean_linker_0, # of connection points: 2
#     Edge 69, Type (0, 0), BuildingBlock: AJUNOK_clean_linker_0, # of connection points: 2
#     Edge 70, Type (0, 0), BuildingBlock: AJUNOK_clean_linker_0, # of connection points: 2
#     Edge 71, Type (0, 0), BuildingBlock: AJUNOK_clean_linker_0, # of connection points: 2
#     Edge 72, Type (0, 0), BuildingBlock: AJUNOK_clean_linker_0, # of connection points: 2
#     Edge 73, Type (0, 0), BuildingBlock: AJUNOK_clean_linker_0, # of connection points: 2
#     Edge 74, Type (0, 0), BuildingBlock: AJUNOK_clean_linker_0, # of connection points: 2
#     Edge 75, Type (0, 0), BuildingBlock: AJUNOK_clean_linker_0, # of connection points: 2
#     Edge 76, Type (0, 0), BuildingBlock: AJUNOK_clean_linker_0, # of connection points: 2
#     Edge 77, Type (0, 0), BuildingBlock: AJUNOK_clean_linker_0, # of connection points: 2
#     Edge 78, Type (0, 0), BuildingBlock: AJUNOK_clean_linker_0, # of connection points: 2
#     Edge 79, Type (0, 0), BuildingBlock: AJUNOK_clean_linker_0, # of connection points: 2
#     Edge 80, Type (0, 0), BuildingBlock: AJUNOK_clean_linker_0, # of connection points: 2
#     Edge 81, Type (0, 0), BuildingBlock: AJUNOK_clean_linker_0, # of connection points: 2
#     Edge 82, Type (0, 0), BuildingBlock: AJUNOK_clean_linker_0, # of connection points: 2
#     Edge 83, Type (0, 0), BuildingBlock: AJUNOK_clean_linker_0, # of connection points: 2
#     Edge 84, Type (0, 0), BuildingBlock: AJUNOK_clean_linker_0, # of connection points: 2
#     Edge 85, Type (0, 0), BuildingBlock: AJUNOK_clean_linker_0, # of connection points: 2
#     Edge 86, Type (0, 0), BuildingBlock: AJUNOK_clean_linker_0, # of connection points: 2
#     Edge 87, Type (0, 0), BuildingBlock: AJUNOK_clean_linker_0, # of connection points: 2
#     Edge 88, Type (0, 0), BuildingBlock: AJUNOK_clean_linker_0, # of connection points: 2
#     Edge 89, Type (0, 0), BuildingBlock: AJUNOK_clean_linker_0, # of connection points: 2
#     Edge 90, Type (0, 0), BuildingBlock: AJUNOK_clean_linker_0, # of connection points: 2
#     Edge 91, Type (0, 0), BuildingBlock: AJUNOK_clean_linker_0, # of connection points: 2
#     Edge 92, Type (0, 0), BuildingBlock: AJUNOK_clean_linker_0, # of connection points: 2
#     Edge 93, Type (0, 0), BuildingBlock: AJUNOK_clean_linker_0, # of connection points: 2
#     Edge 94, Type (0, 0), BuildingBlock: AJUNOK_clean_linker_0, # of connection points: 2
#     Edge 95, Type (0, 0), BuildingBlock: AJUNOK_clean_linker_0, # of connection points: 2
#     Edge 96, Type (0, 0), BuildingBlock: AJUNOK_clean_linker_0, # of connection points: 2
#     Edge 97, Type (0, 0), BuildingBlock: AJUNOK_clean_linker_0, # of connection points: 2
#     Edge 98, Type (0, 0), BuildingBlock: AJUNOK_clean_linker_0, # of connection points: 2
#     Edge 99, Type (0, 0), BuildingBlock: AJUNOK_clean_linker_0, # of connection points: 2
#     Edge 100, Type (0, 0), BuildingBlock: AJUNOK_clean_linker_0, # of connection points: 2
#     Edge 101, Type (0, 0), BuildingBlock: AJUNOK_clean_linker_0, # of connection points: 2
#     Edge 102, Type (0, 0), BuildingBlock: AJUNOK_clean_linker_0, # of connection points: 2
#     Edge 103, Type (0, 0), BuildingBlock: AJUNOK_clean_linker_0, # of connection points: 2
#     Edge 104, Type (0, 0), BuildingBlock: AJUNOK_clean_linker_0, # of connection points: 2
#     Edge 105, Type (0, 0), BuildingBlock: AJUNOK_clean_linker_0, # of connection points: 2
#     Edge 106, Type (0, 0), BuildingBlock: AJUNOK_clean_linker_0, # of connection points: 2
#     Edge 107, Type (0, 0), BuildingBlock: AJUNOK_clean_linker_0, # of connection points: 2
#     Edge 108, Type (0, 0), BuildingBlock: AJUNOK_clean_linker_0, # of connection points: 2
#     Edge 109, Type (0, 0), BuildingBlock: AJUNOK_clean_linker_0, # of connection points: 2
#     Edge 110, Type (0, 0), BuildingBlock: AJUNOK_clean_linker_0, # of connection points: 2
#     Edge 111, Type (0, 0), BuildingBlock: AJUNOK_clean_linker_0, # of connection points: 2
#     Edge 112, Type (0, 0), BuildingBlock: AJUNOK_clean_linker_0, # of connection points: 2
#     Edge 113, Type (0, 0), BuildingBlock: AJUNOK_clean_linker_0, # of connection points: 2
#     Edge 114, Type (0, 0), BuildingBlock: AJUNOK_clean_linker_0, # of connection points: 2
#     Edge 115, Type (0, 0), BuildingBlock: AJUNOK_clean_linker_0, # of connection points: 2
#     Edge 116, Type (0, 0), BuildingBlock: AJUNOK_clean_linker_0, # of connection points: 2
#     Edge 117, Type (0, 0), BuildingBlock: AJUNOK_clean_linker_0, # of connection points: 2
#     Edge 118, Type (0, 0), BuildingBlock: AJUNOK_clean_linker_0, # of connection points: 2
#     Edge 119, Type (0, 0), BuildingBlock: AJUNOK_clean_linker_0, # of connection points: 2
#     Edge 120, Type (0, 0), BuildingBlock: AJUNOK_clean_linker_0, # of connection points: 2
#     Edge 121, Type (0, 0), BuildingBlock: AJUNOK_clean_linker_0, # of connection points: 2
#     Edge 122, Type (0, 0), BuildingBlock: AJUNOK_clean_linker_0, # of connection points: 2
#     Edge 123, Type (0, 0), BuildingBlock: AJUNOK_clean_linker_0, # of connection points: 2
#     Edge 124, Type (0, 0), BuildingBlock: AJUNOK_clean_linker_0, # of connection points: 2
#     Edge 125, Type (0, 0), BuildingBlock: AJUNOK_clean_linker_0, # of connection points: 2
#     Edge 126, Type (0, 0), BuildingBlock: AJUNOK_clean_linker_0, # of connection points: 2
#     Edge 127, Type (0, 0), BuildingBlock: AJUNOK_clean_linker_0, # of connection points: 2
#     Edge 128, Type (0, 0), BuildingBlock: AJUNOK_clean_linker_0, # of connection points: 2
#     Edge 129, Type (0, 0), BuildingBlock: AJUNOK_clean_linker_0, # of connection points: 2
#     Edge 130, Type (0, 0), BuildingBlock: AJUNOK_clean_linker_0, # of connection points: 2
#     Edge 131, Type (0, 0), BuildingBlock: AJUNOK_clean_linker_0, # of connection points: 2
#     Edge 132, Type (0, 0), BuildingBlock: AJUNOK_clean_linker_0, # of connection points: 2
#     Edge 133, Type (0, 0), BuildingBlock: AJUNOK_clean_linker_0, # of connection points: 2
#     Edge 134, Type (0, 0), BuildingBlock: AJUNOK_clean_linker_0, # of connection points: 2
#     Edge 135, Type (0, 0), BuildingBlock: AJUNOK_clean_linker_0, # of connection points: 2
#     Edge 136, Type (0, 0), BuildingBlock: AJUNOK_clean_linker_0, # of connection points: 2
#     Edge 137, Type (0, 0), BuildingBlock: AJUNOK_clean_linker_0, # of connection points: 2
#     Edge 138, Type (0, 0), BuildingBlock: AJUNOK_clean_linker_0, # of connection points: 2
#     Edge 139, Type (0, 0), BuildingBlock: AJUNOK_clean_linker_0, # of connection points: 2
#     Edge 140, Type (0, 0), BuildingBlock: AJUNOK_clean_linker_0, # of connection points: 2
#     Edge 141, Type (0, 0), BuildingBlock: AJUNOK_clean_linker_0, # of connection points: 2
#     Edge 142, Type (0, 0), BuildingBlock: AJUNOK_clean_linker_0, # of connection points: 2
#     Edge 143, Type (0, 0), BuildingBlock: AJUNOK_clean_linker_0, # of connection points: 2
# Relax obj value: 0.158
# Max RMSD: 0.205
# Mean RMSD: 0.197
data_MOF--net-wna--node1-BETDEL_clean_sbu_0--edge1-AJUNOK_clean_linker_0
_symmetry_space_group_name_H-M    P1
_symmetry_Int_Tables_number       1
_symmetry_cell_setting            triclinic
loop_
_symmetry_equiv_pos_as_xyz
'x, y, z'
_cell_length_a     29.122225
_cell_length_b     29.125112
_cell_length_c     80.707702
_cell_angle_alpha  89.927999
_cell_angle_beta   90.076755
_cell_angle_gamma 119.98191
loop_
_atom_site_label
_atom_site_type_symbol
_atom_site_fract_x
_atom_site_fract_y
_atom_site_fract_z
_atom_type_partial_charge
Dy0 Dy 0.08798 0.25502 0.16456 0.0
C1 C 0.05198 0.2087 0.23304 0.0
C2 C 0.09333 0.29337 0.13307 0.0
Dy3 Dy 0.08503 0.24293 0.20119 0.0
O4 O 0.07867 0.24474 0.13688 0.0
O5 O 0.10511 0.32141 0.14654 0.0
O6 O 0.08752 0.18049 0.15904 0.0
O7 O 0.12254 0.22037 0.18133 0.0
C8 C 0.10896 0.17867 0.17293 0.0
C9 C 0.06833 0.32079 0.19002 0.0
O10 O 0.17321 0.28854 0.19891 0.0
O11 O 0.17252 0.31516 0.17187 0.0
O12 O 0.10126 0.23328 0.22815 0.0
O13 O 0.02173 0.20295 0.22054 0.0
O14 O 0.09464 0.32421 0.20334 0.0
O15 O 0.04982 0.27521 0.1839 0.0
O16 O 1.00284 0.19241 0.16845 0.0
O17 O 0.0208 0.16429 0.193 0.0
C18 C 0.19845 0.31766 0.18576 0.0
C19 C 0.98924 0.15651 0.18035 0.0
Dy20 Dy 0.75721 0.83861 0.16518 0.0
C21 C 0.80763 0.84716 0.2334 0.0
C22 C 0.7178 0.8155 0.13353 0.0
Dy23 Dy 0.77197 0.84624 0.20176 0.0
O24 O 0.73452 0.86023 0.1411 0.0
O25 O 0.72259 0.78257 0.14329 0.0
O26 O 0.83421 0.91057 0.15992 0.0
O27 O 0.79433 0.90679 0.18215 0.0
C28 C 0.83639 0.93401 0.17381 0.0
C29 C 0.69052 0.75322 0.19098 0.0
O30 O 0.72783 0.89043 0.19973 0.0
O31 O 0.69132 0.85152 0.17459 0.0
O32 O 0.80984 0.82011 0.22104 0.0
O33 O 0.78564 0.87441 0.22851 0.0
O34 O 0.68989 0.77644 0.20457 0.0
O35 O 0.73558 0.77909 0.18438 0.0
O36 O 0.82474 0.82227 0.16679 0.0
O37 O 0.8494 0.85742 0.19309 0.0
C38 C 0.69346 0.88058 0.18757 0.0
C39 C 0.85874 0.83912 0.17934 0.0
Dy40 Dy 0.17956 0.92844 0.16488 0.0
C41 C 0.1615 0.96085 0.23305 0.0
C42 C 0.2146 0.92574 0.13353 0.0
Dy43 Dy 0.16644 0.92854 0.20138 0.0
O44 O 0.1794 0.93883 0.13726 0.0
O45 O 0.23098 0.91406 0.14702 0.0
O46 O 0.1055 0.92905 0.15885 0.0
O47 O 0.10876 0.8923 0.18094 0.0
C48 C 0.08135 0.90679 0.17255 0.0
C49 C 0.26225 0.946 0.19136 0.0
O50 O 0.12398 0.84037 0.19819 0.0
O51 O 0.15721 0.84442 0.17181 0.0
O52 O 0.14268 0.91163 0.22856 0.0
O53 O 0.18193 0.99114 0.22028 0.0
O54 O 0.23795 0.91931 0.20445 0.0
O55 O 0.23608 0.96512 0.1849 0.0
O56 O 0.20349 0.01348 0.16928 0.0
O57 O 0.15356 0.99391 0.19298 0.0
C58 C 0.13173 0.81692 0.18523 0.0
C59 C 0.17902 0.02626 0.18064 0.0
Dy60 Dy 0.25916 0.08821 0.36855 0.0
C61 C 0.20583 0.04343 0.30039 0.0
C62 C 0.29919 0.103 0.40009 0.0
Dy63 Dy 0.24181 0.07884 0.33196 0.0
O64 O 0.28221 0.13146 0.39288 0.0
O65 O 0.29473 0.06629 0.39 0.0
O66 O 0.18182 0.08123 0.3743 0.0
O67 O 0.21952 0.11717 0.35171 0.0
C68 C 0.17786 0.10155 0.36041 0.0
C69 C 0.32291 0.06634 0.34269 0.0
O70 O 0.28679 0.16696 0.33331 0.0
O71 O 0.32378 0.1671 0.35866 0.0
O72 O 0.20664 0.01503 0.3126 0.0
O73 O 0.22485 0.09219 0.30539 0.0
O74 O 0.32383 0.09014 0.32903 0.0
O75 O 0.27827 0.04861 0.34938 0.0
O76 O 0.19276 1.00386 0.36721 0.0
O77 O 0.16527 0.01271 0.34112 0.0
C78 C 0.32099 0.19267 0.34538 0.0
C79 C 0.1574 0.98602 0.35503 0.0
Dy80 Dy 0.92455 0.1757 0.37027 0.0
C81 C 0.96867 0.16754 0.30036 0.0
C82 C 0.92363 0.21734 0.40057 0.0
Dy83 Dy 0.93098 0.16579 0.33166 0.0
O84 O 0.94486 0.18822 0.39744 0.0
O85 O 0.90383 0.22455 0.387 0.0
O86 O 0.88859 0.09052 0.37784 0.0
O87 O 0.9046 0.11229 0.35287 0.0
C88 C 0.88688 0.07353 0.36283 0.0
C89 C 0.94429 0.25849 0.34342 0.0
O90 O 0.84297 0.1204 0.33474 0.0
O91 O 0.84365 0.15585 0.36074 0.0
O92 O 0.99628 0.1954 0.3129 0.0
O93 O 0.91922 0.13785 0.30486 0.0
O94 O 0.92089 0.23721 0.32955 0.0
O95 O 0.96178 0.23077 0.34981 0.0
O96 O 1.0062 0.1866 0.36765 0.0
O97 O 0.9949 0.15178 0.341 0.0
C98 C 0.81803 0.1277 0.34739 0.0
C99 C 0.02172 0.16836 0.35502 0.0
Dy100 Dy 0.83585 0.75759 0.36858 0.0
C101 C 0.85254 0.80822 0.30065 0.0
C102 C 0.79875 0.71719 0.3996 0.0
Dy103 Dy 0.85062 0.77144 0.33221 0.0
O104 O 0.83467 0.76563 0.39632 0.0
O105 O 0.78271 0.69065 0.38585 0.0
O106 O 0.90874 0.83183 0.37507 0.0
O107 O 0.90773 0.79246 0.353 0.0
C108 C 0.93442 0.83381 0.36173 0.0
C109 C 0.75429 0.69353 0.34202 0.0
O110 O 0.89188 0.72464 0.33511 0.0
O111 O 0.85962 0.6967 0.36168 0.0
O112 O 0.87657 0.78249 0.30516 0.0
O113 O 0.82868 0.81365 0.31334 0.0
O114 O 0.77911 0.69035 0.32919 0.0
O115 O 0.7806 0.73881 0.34839 0.0
O116 O 0.81329 0.81997 0.36378 0.0
O117 O 0.86564 0.85027 0.3406 0.0
C118 C 0.88465 0.6941 0.34821 0.0
C119 C 0.8387 0.85724 0.35243 0.0
Dy120 Dy 0.93519 0.77086 0.83266 0.0
C121 C 0.92611 0.7152 0.90034 0.0
C122 C 0.96748 0.80963 0.80111 0.0
Dy123 Dy 0.9329 0.75529 0.86906 0.0
O124 O 0.91876 0.77618 0.80536 0.0
O125 O 0.99734 0.82189 0.81409 0.0
O126 O 0.92444 0.68961 0.82918 0.0
O127 O 0.96937 0.73524 0.84914 0.0
C128 C 0.94988 0.69041 0.84241 0.0
C129 C 0.91773 0.83613 0.86158 0.0
O130 O 0.01888 0.81528 0.86549 0.0
O131 O 1.00328 0.84686 0.84123 0.0
O132 O 0.93825 0.76335 0.89681 0.0
O133 O 0.91765 0.68851 0.88669 0.0
O134 O 0.93918 0.83215 0.87518 0.0
O135 O 0.90034 0.79393 0.85313 0.0
O136 O 0.84703 0.72957 0.83556 0.0
O137 O 0.8483 0.69685 0.86162 0.0
C138 C 0.03384 0.85257 0.854 0.0
C139 C 0.82205 0.6975 0.8482 0.0
Dy140 Dy 0.24398 0.16209 0.83197 0.0
C141 C 0.29646 0.20962 0.89937 0.0
C142 C 0.20819 0.15916 0.80024 0.0
Dy143 Dy 0.25761 0.17449 0.86812 0.0
O144 O 0.20129 0.18259 0.81278 0.0
O145 O 0.23468 0.13626 0.80501 0.0
O146 O 0.32554 0.23226 0.82893 0.0
O147 O 0.27837 0.23193 0.84839 0.0
C148 C 0.32363 0.25732 0.84188 0.0
C149 C 0.18032 0.07648 0.86066 0.0
O150 O 0.19591 0.19826 0.86397 0.0
O151 O 0.16563 0.14873 0.84025 0.0
O152 O 0.2493 0.17135 0.89588 0.0
O153 O 0.32275 0.2289 0.88571 0.0
O154 O 0.18185 0.10191 0.87403 0.0
O155 O 0.22215 0.10338 0.85222 0.0
O156 O 0.28865 0.11864 0.83455 0.0
O157 O 0.31773 0.14963 0.86111 0.0
C158 C 0.1589 0.17465 0.85245 0.0
C159 C 0.31908 0.12431 0.84753 0.0
Dy160 Dy 0.85195 0.08058 0.83117 0.0
C161 C 0.79399 0.08186 0.89948 0.0
C162 C 0.85329 0.04383 0.80012 0.0
Dy163 Dy 0.83913 0.08591 0.86952 0.0
O164 O 0.88168 0.09338 0.80466 0.0
O165 O 0.8248 0.01557 0.81247 0.0
O166 O 0.7812 0.09122 0.82835 0.0
O167 O 0.78537 0.04932 0.84876 0.0
C168 C 0.75872 0.06757 0.84206 0.0
C169 C 0.94194 0.12403 0.86286 0.0
O170 O 0.82852 1.00464 0.86684 0.0
O171 O 0.86661 0.01732 0.84068 0.0
O172 O 0.82629 0.06428 0.89649 0.0
O173 O 0.78593 0.10136 0.88599 0.0
O174 O 0.92387 0.12194 0.87775 0.0
O175 O 0.90386 0.10649 0.85268 0.0
O176 O 0.89691 0.16836 0.83454 0.0
O177 O 0.8595 0.16714 0.86024 0.0
C178 C 0.84892 0.99017 0.85459 0.0
C179 C 0.88858 0.19298 0.84706 0.0
Dy180 Dy 0.77596 0.93136 0.70115 0.0
C181 C 0.72277 0.92828 0.63351 0.0
C182 C 0.81169 0.96273 0.73288 0.0
Dy183 Dy 0.76311 0.93189 0.66452 0.0
O184 O 0.81536 0.99344 0.72076 0.0
O185 O 0.78821 0.91377 0.72771 0.0
O186 O 0.69415 0.91933 0.70403 0.0
O187 O 0.74172 0.96663 0.68464 0.0
C188 C 0.69626 0.94632 0.69103 0.0
C189 C 0.84101 0.91266 0.67235 0.0
O190 O 0.82449 0.01733 0.66919 0.0
O191 O 0.85381 0.99675 0.69297 0.0
O192 O 0.77039 0.93791 0.63674 0.0
O193 O 0.69697 0.92068 0.6473 0.0
O194 O 0.83923 0.93522 0.65866 0.0
O195 O 0.79864 0.89705 0.68052 0.0
O196 O 0.73164 0.8437 0.69824 0.0
O197 O 0.70447 0.84607 0.67137 0.0
C198 C 0.86108 0.02993 0.68084 0.0
C199 C 0.70261 0.81923 0.68502 0.0
Dy200 Dy 0.08692 0.84932 0.70258 0.0
C201 C 0.08831 0.79212 0.63436 0.0
C202 C 0.05115 0.84924 0.73398 0.0
Dy203 Dy 0.09181 0.83679 0.66443 0.0
O204 O 0.09948 0.88113 0.72887 0.0
O205 O 0.02346 0.81823 0.72196 0.0
O206 O 0.09925 0.77946 0.70513 0.0
O207 O 0.05564 0.78259 0.68506 0.0
C208 C 0.07452 0.75631 0.69161 0.0
C209 C 0.12872 0.93956 0.67061 0.0
O210 O 0.00974 0.82444 0.66726 0.0
O211 O 0.02267 0.86262 0.69335 0.0
O212 O 0.06996 0.82371 0.63745 0.0
O213 O 0.10818 0.78439 0.64783 0.0
O214 O 0.12608 0.92048 0.65587 0.0
O215 O 0.11213 0.9024 0.68119 0.0
O216 O 0.17455 0.89444 0.69937 0.0
O217 O 0.17394 0.85879 0.67345 0.0
C218 C 0.99477 0.84405 0.67962 0.0
C219 C 0.19963 0.8876 0.68671 0.0
Dy220 Dy 0.16737 0.24365 0.70233 0.0
C221 C 0.21569 0.29187 0.63386 0.0
C222 C 0.17026 0.20801 0.73354 0.0
Dy223 Dy 0.17746 0.26029 0.6652 0.0
O224 O 0.13536 0.22076 0.72857 0.0
O225 O 0.2032 0.21598 0.72165 0.0
O226 O 0.23575 0.32707 0.70488 0.0
O227 O 0.23449 0.28107 0.68502 0.0
C228 C 0.25982 0.32624 0.69152 0.0
C229 C 0.07609 0.20608 0.67486 0.0
O230 O 0.1888 0.18935 0.66697 0.0
O231 O 0.1601 0.16714 0.69405 0.0
O232 O 0.17797 0.24473 0.63791 0.0
O233 O 0.23269 0.3216 0.647 0.0
O234 O 0.09231 0.23619 0.6618 0.0
O235 O 0.11432 0.20296 0.6812 0.0
O236 O 0.12238 0.28667 0.69952 0.0
O237 O 0.16464 0.32593 0.67489 0.0
C238 C 0.17514 0.15648 0.6798 0.0
C239 C 0.13328 0.32173 0.6875 0.0
Dy240 Dy 0.75755 0.59199 0.49713 0.0
C241 C 0.71561 0.53891 0.567 0.0
C242 C 0.75587 0.63223 0.4666 0.0
Dy243 Dy 0.75281 0.57532 0.53574 0.0
O244 O 0.73375 0.58218 0.47027 0.0
O245 O 0.77821 0.66048 0.47978 0.0
O246 O 0.79107 0.54097 0.48919 0.0
O247 O 0.77685 0.54733 0.51424 0.0
C248 C 0.79351 0.52574 0.50416 0.0
C249 C 0.74216 0.65663 0.5243 0.0
O250 O 0.84026 0.61697 0.53246 0.0
O251 O 0.83996 0.65132 0.5063 0.0
O252 O 0.68923 0.54494 0.55508 0.0
O253 O 0.7636 0.55345 0.56193 0.0
O254 O 0.76613 0.6579 0.53799 0.0
O255 O 0.72274 0.61124 0.51791 0.0
O256 O 0.67484 0.52326 0.50041 0.0
O257 O 0.68813 0.49821 0.52654 0.0
C258 C 0.86545 0.64821 0.51966 0.0
C259 C 0.65973 0.48903 0.51292 0.0
Dy260 Dy 0.42089 0.17183 0.49901 0.0
C261 C 0.47903 0.1921 0.56716 0.0
C262 C 0.37968 0.14467 0.46765 0.0
Dy263 Dy 0.43942 0.1827 0.53558 0.0
O264 O 0.39504 0.18989 0.47479 0.0
O265 O 0.38646 0.11372 0.47772 0.0
O266 O 0.49694 0.2437 0.49298 0.0
O267 O 0.45899 0.24143 0.51552 0.0
C268 C 0.50042 0.26788 0.50683 0.0
C269 C 0.36132 0.08642 0.52558 0.0
O270 O 0.39629 0.2276 0.53287 0.0
O271 O 0.35424 0.18217 0.50913 0.0
O272 O 0.43852 0.19728 0.56317 0.0
O273 O 0.49828 0.18351 0.55386 0.0
O274 O 0.36053 0.10846 0.53938 0.0
O275 O 0.40509 0.11482 0.51859 0.0
O276 O 0.48846 0.15567 0.5002 0.0
O277 O 0.51498 0.19021 0.52653 0.0
C278 C 0.35862 0.21397 0.52156 0.0
C279 C 0.52339 0.17251 0.51249 0.0
Dy280 Dy 0.84387 0.26128 0.49879 0.0
C281 C 0.82735 0.2946 0.56687 0.0
C282 C 0.87906 0.25811 0.46746 0.0
Dy283 Dy 0.83061 0.26183 0.53516 0.0
O284 O 0.84526 0.27304 0.47119 0.0
O285 O 0.89395 0.24478 0.48095 0.0
O286 O 0.7716 0.2642 0.49249 0.0
O287 O 0.77252 0.22611 0.51462 0.0
C288 C 0.74614 0.24127 0.50594 0.0
C289 C 0.92643 0.27902 0.52512 0.0
O290 O 0.78772 0.17382 0.53245 0.0
O291 O 0.81825 0.1761 0.50579 0.0
O292 O 0.8516 0.32488 0.55438 0.0
O293 O 0.8038 0.24525 0.56206 0.0
O294 O 0.90201 0.25183 0.53814 0.0
O295 O 0.9001 0.29796 0.51874 0.0
O296 O 0.86863 0.34679 0.50341 0.0
O297 O 0.81754 0.32691 0.52682 0.0
C298 C 0.7931 0.1493 0.51939 0.0
C299 C 0.8445 0.35998 0.51481 0.0
Dy300 Dy 0.92819 0.4224 0.70294 0.0
C301 C 0.87413 0.38052 0.6337 0.0
C302 C 0.97252 0.42352 0.73293 0.0
Dy303 Dy 0.91203 0.41919 0.66473 0.0
O304 O 0.99873 0.4448 0.71937 0.0
O305 O 0.9219 0.40026 0.72995 0.0
O306 O 0.87847 0.45674 0.71138 0.0
O307 O 0.88418 0.44407 0.68612 0.0
C308 C 0.86352 0.46086 0.69654 0.0
C309 C 0.9925 0.40624 0.67588 0.0
O310 O 0.95453 0.50689 0.66808 0.0
O311 O 0.98921 0.50403 0.69387 0.0
O312 O 0.89372 0.43005 0.63809 0.0
O313 O 0.87605 0.35346 0.64616 0.0
O314 O 0.99423 0.43109 0.66236 0.0
O315 O 0.9471 0.38718 0.68224 0.0
O316 O 0.85966 0.33972 0.69942 0.0
O317 O 0.83373 0.35632 0.67402 0.0
C318 C 0.98685 0.53079 0.68079 0.0
C319 C 0.82451 0.32611 0.68721 0.0
Dy320 Dy 0.59748 0.51156 0.70196 0.0
C321 C 0.62868 0.48789 0.63372 0.0
C322 C 0.59219 0.54811 0.73284 0.0
Dy323 Dy 0.59803 0.49643 0.66531 0.0
O324 O 0.60764 0.5143 0.7297 0.0
O325 O 0.58006 0.56249 0.71903 0.0
O326 O 0.59716 0.43744 0.70853 0.0
O327 O 0.56165 0.44058 0.68612 0.0
C328 C 0.5758 0.41337 0.69473 0.0
C329 C 0.6178 0.59349 0.67487 0.0
O330 O 0.50979 0.45321 0.66861 0.0
O331 O 0.5136 0.489 0.69455 0.0
O332 O 0.58096 0.47665 0.63792 0.0
O333 O 0.65826 0.50217 0.6468 0.0
O334 O 0.59205 0.56982 0.66158 0.0
O335 O 0.63513 0.56624 0.68161 0.0
O336 O 0.68281 0.53532 0.6977 0.0
O337 O 0.66397 0.48488 0.67412 0.0
C338 C 0.48616 0.46219 0.68127 0.0
C339 C 0.69619 0.51087 0.68647 0.0
Dy340 Dy 0.50579 0.08938 0.70363 0.0
C341 C 0.51749 0.14248 0.63379 0.0
C342 C 0.46249 0.04817 0.73385 0.0
Dy343 Dy 0.51839 0.10603 0.66503 0.0
O344 O 0.49255 0.09829 0.73058 0.0
O345 O 0.45548 0.02047 0.72047 0.0
O346 O 0.59007 0.14051 0.71178 0.0
O347 O 0.57012 0.1341 0.68665 0.0
C348 C 0.60804 0.15605 0.69687 0.0
C349 C 0.42557 0.02598 0.6764 0.0
O350 O 0.56327 0.06332 0.66849 0.0
O351 O 0.52762 0.02927 0.69459 0.0
O352 O 0.48505 0.13623 0.64569 0.0
O353 O 0.55122 0.12826 0.63888 0.0
O354 O 0.44795 0.02385 0.66277 0.0
O355 O 0.45245 0.07128 0.68274 0.0
O356 O 0.49126 0.15756 0.70025 0.0
O357 O 0.53093 0.18317 0.67433 0.0
C358 C 0.55602 0.03168 0.68131 0.0
C359 C 0.51107 0.19207 0.68784 0.0
Dy360 Dy 0.59979 0.10428 0.1648 0.0
C361 C 0.6016 0.048 0.23353 0.0
C362 C 0.63508 0.14203 0.13355 0.0
Dy363 Dy 0.59692 0.08729 0.20321 0.0
O364 O 0.58551 0.1193 0.13818 0.0
O365 O 0.66422 0.14353 0.14591 0.0
O366 O 0.58798 0.02229 0.16204 0.0
O367 O 0.63109 0.06824 0.18222 0.0
C368 C 0.6119 0.02313 0.17567 0.0
C369 C 0.56107 0.15405 0.19675 0.0
O370 O 0.67956 0.1552 0.19933 0.0
O371 O 0.6637 0.1822 0.174 0.0
O372 O 0.62213 0.0979 0.22989 0.0
O373 O 0.579 0.01934 0.22045 0.0
O374 O 0.56397 0.13853 0.21163 0.0
O375 O 0.57681 0.13215 0.18649 0.0
O376 O 0.5124 0.06393 0.16875 0.0
O377 O 0.51445 0.02759 0.19437 0.0
C378 C 0.69321 0.19105 0.18736 0.0
C379 C 0.48808 0.03143 0.1814 0.0
Dy380 Dy 0.90925 0.49968 0.16406 0.0
C381 C 0.97492 0.54862 0.23216 0.0
C382 C 0.87174 0.49676 0.13272 0.0
Dy383 Dy 0.92927 0.51177 0.20182 0.0
O384 O 0.87325 0.52723 0.14464 0.0
O385 O 0.89094 0.46726 0.13789 0.0
O386 O 0.99231 0.56829 0.1607 0.0
O387 O 0.94901 0.56664 0.18135 0.0
C388 C 0.99351 0.5917 0.17446 0.0
C389 C 0.85847 0.41011 0.1963 0.0
O390 O 0.85713 0.52074 0.20058 0.0
O391 O 0.83332 0.49024 0.17359 0.0
O392 O 0.97872 0.51366 0.22329 0.0
O393 O 0.94666 0.56491 0.22429 0.0
O394 O 0.87442 0.43015 0.21095 0.0
O395 O 0.87956 0.4463 0.18543 0.0
O396 O 0.94737 0.4507 0.16709 0.0
O397 O 0.99135 0.49559 0.19085 0.0
C398 C 0.82321 0.50504 0.18797 0.0
C399 C 0.98327 0.46126 0.17875 0.0
Dy400 Dy 0.5179 0.41583 0.16455 0.0
C401 C 0.45748 0.41214 0.23282 0.0
C402 C 0.5186 0.37875 0.13342 0.0
Dy403 Dy 0.50258 0.41728 0.20272 0.0
O404 O 0.49106 0.35059 0.14592 0.0
O405 O 0.54655 0.42848 0.13785 0.0
O406 O 0.44669 0.42616 0.16171 0.0
O407 O 0.45016 0.3825 0.18167 0.0
C408 C 0.42346 0.40085 0.17514 0.0
C409 C 0.60579 0.45588 0.1971 0.0
O410 O 0.48969 0.33517 0.19881 0.0
O411 O 0.53413 0.35342 0.17377 0.0
O412 O 0.48562 0.39023 0.2292 0.0
O413 O 0.45321 0.43628 0.21983 0.0
O414 O 0.58579 0.45136 0.21179 0.0
O415 O 0.56924 0.43978 0.18635 0.0
O416 O 0.5626 0.50324 0.1684 0.0
O417 O 0.52357 0.49948 0.19399 0.0
C418 C 0.51255 0.32257 0.18679 0.0
C419 C 0.55352 0.5267 0.18109 0.0
Dy420 Dy 0.43698 0.25778 0.03528 0.0
C421 C 0.37777 0.25385 0.96667 0.0
C422 C 0.47458 0.2933 0.06656 0.0
Dy423 Dy 0.41772 0.25181 0.99716 0.0
O424 O 0.45463 0.24424 0.06167 0.0
O425 O 0.47387 0.32198 0.05439 0.0
O426 O 0.35545 0.2467 0.03831 0.0
O427 O 0.40058 0.28866 0.01783 0.0
C428 C 0.35594 0.27036 0.02467 0.0
C429 C 0.48362 0.21468 1.00337 0.0
O430 O 0.48658 0.33419 0.99991 0.0
O431 O 0.51426 0.32159 0.02566 0.0
O432 O 0.42775 0.27694 0.97046 0.0
O433 O 0.34935 0.23035 0.97971 0.0
O434 O 0.46676 0.21684 0.98865 0.0
O435 O 0.46343 0.23179 1.01384 0.0
O436 O 0.39402 0.16993 0.0321 0.0
O437 O 0.35649 0.17122 1.00669 0.0
C438 C 0.52257 0.34903 1.01186 0.0
C439 C 0.36024 0.14529 0.01977 0.0
Dy440 Dy 0.74982 0.17779 0.03478 0.0
C441 C 0.74757 0.12016 0.96604 0.0
C442 C 0.7164 0.18051 0.06627 0.0
Dy443 Dy 0.75222 0.16373 0.99631 0.0
O444 O 0.68716 0.15016 0.05436 0.0
O445 O 0.765 0.21012 0.06102 0.0
O446 O 0.76177 0.10759 0.03741 0.0
O447 O 0.71821 0.11067 0.01735 0.0
C448 C 0.73737 0.08458 0.02384 0.0
C449 C 0.78913 0.26632 1.00285 0.0
O450 O 0.6694 0.14854 1.00025 0.0
O451 O 0.68489 0.19072 0.02567 0.0
O452 O 0.72727 0.14975 0.96964 0.0
O453 O 0.76984 0.1136 0.97914 0.0
O454 O 0.7858 0.24813 0.98794 0.0
O455 O 0.77278 0.22841 1.01304 0.0
O456 O 0.83727 0.22383 0.03077 0.0
O457 O 0.83486 0.18617 1.00501 0.0
C458 C 0.65527 0.16991 1.01233 0.0
C459 C 0.86144 0.21598 0.01801 0.0
Dy460 Dy 0.82804 0.56786 0.0337 0.0
C461 C 0.88039 0.62583 0.96675 0.0
C462 C 0.82548 0.53139 0.06529 0.0
Dy463 Dy 0.84261 0.58213 0.99736 0.0
O464 O 0.80168 0.55718 0.06066 0.0
O465 O 0.84949 0.52564 0.0527 0.0
O466 O 0.89924 0.64906 0.03684 0.0
O467 O 0.89794 0.60116 0.01747 0.0
C468 C 0.92397 0.64629 0.02393 0.0
C469 C 0.74459 0.50478 1.0042 0.0
O470 O 0.86646 0.52071 1.00201 0.0
O471 O 0.81429 0.4897 0.02522 0.0
O472 O 0.84802 0.576 0.96964 0.0
O473 O 0.89258 0.65172 0.98064 0.0
O474 O 0.77002 0.50776 0.99069 0.0
O475 O 0.77077 0.54621 1.01292 0.0
O476 O 0.786 0.61377 0.03098 0.0
O477 O 0.81786 0.64205 1.00442 0.0
C478 C 0.84144 0.4833 1.01335 0.0
C479 C 0.79295 0.64434 0.01794 0.0
Dy480 Dy 0.42707 0.92514 0.83109 0.0
C481 C 0.38561 0.86861 0.90043 0.0
C482 C 0.42231 0.96403 0.80069 0.0
Dy483 Dy 0.42252 0.90718 0.86934 0.0
O484 O 0.40169 0.91419 0.80442 0.0
O485 O 0.44511 0.99287 0.81373 0.0
O486 O 0.46359 0.87741 0.82265 0.0
O487 O 0.44906 0.88129 0.84787 0.0
C488 C 0.46682 0.86158 0.83744 0.0
C489 C 0.40676 0.98601 0.8584 0.0
O490 O 0.51027 0.95054 0.86589 0.0
O491 O 0.50778 0.98723 0.84042 0.0
O492 O 0.35703 0.86593 0.88777 0.0
O493 O 0.43559 0.89281 0.89618 0.0
O494 O 0.43082 0.98789 0.87211 0.0
O495 O 0.38979 0.94126 0.85182 0.0
O496 O 0.3454 0.85508 0.83428 0.0
O497 O 0.36037 0.82874 0.8599 0.0
C498 C 0.53435 0.98395 0.85342 0.0
C499 C 0.33181 0.81943 0.84629 0.0
Dy500 Dy 0.09619 0.50088 0.83138 0.0
C501 C 0.14351 0.50921 0.89958 0.0
C502 C 0.05866 0.46901 0.79978 0.0
Dy503 Dy 0.10906 0.51145 0.86797 0.0
O504 O 0.10489 0.5081 0.80368 0.0
O505 O 0.03238 0.44693 0.81324 0.0
O506 O 0.17273 0.57243 0.82583 0.0
O507 O 0.13276 0.57089 0.84781 0.0
C508 C 0.17492 0.5972 0.8394 0.0
C509 C 0.02878 0.41812 0.85717 0.0
O510 O 0.06387 0.55453 0.86559 0.0
O511 O 0.03661 0.52568 0.83866 0.0
O512 O 0.1251 0.53981 0.8948 0.0
O513 O 0.14258 0.48074 0.88718 0.0
O514 O 0.02632 0.44258 0.87022 0.0
O515 O 0.07457 0.44323 0.85102 0.0
O516 O 0.15744 0.47666 0.83518 0.0
O517 O 0.18673 0.52337 0.85957 0.0
C518 C 0.0343 0.5496 0.85243 0.0
C519 C 0.19371 0.49887 0.84697 0.0
Dy520 Dy 0.51411 0.5941 0.83106 0.0
C521 C 0.49983 0.62884 0.89961 0.0
C522 C 0.54881 0.59014 0.79976 0.0
Dy523 Dy 0.50144 0.59518 0.86791 0.0
O524 O 0.51623 0.60666 0.80348 0.0
O525 O 0.56285 0.57587 0.81323 0.0
O526 O 0.43937 0.59371 0.82504 0.0
O527 O 0.44455 0.55924 0.84733 0.0
C528 C 0.41634 0.57269 0.83899 0.0
C529 C 0.59592 0.60998 0.85753 0.0
O530 O 0.45962 0.50696 0.86522 0.0
O531 O 0.48952 0.50947 0.83835 0.0
O532 O 0.47032 0.58023 0.8944 0.0
O533 O 0.5293 0.65785 0.88755 0.0
O534 O 0.57139 0.58322 0.87061 0.0
O535 O 0.57036 0.62993 0.85115 0.0
O536 O 0.53901 0.67946 0.83573 0.0
O537 O 0.48824 0.6601 0.85922 0.0
C538 C 0.4652 0.48276 0.85206 0.0
C539 C 0.51456 0.69269 0.84699 0.0
Dy540 Dy 0.59341 0.75528 0.03474 0.0
C541 C 0.53688 0.71226 0.96686 0.0
C542 C 0.63521 0.77344 0.06609 0.0
Dy543 Dy 0.57532 0.74709 0.9983 0.0
O544 O 0.6184 0.80131 0.05844 0.0
O545 O 0.62926 0.73484 0.05656 0.0
O546 O 0.51647 0.74916 0.04074 0.0
O547 O 0.55399 0.78528 0.01819 0.0
C548 C 0.51256 0.76979 0.02692 0.0
C549 C 0.65726 0.735 1.00834 0.0
O550 O 0.61749 0.83542 1.00047 0.0
O551 O 0.65851 0.83329 0.02466 0.0
O552 O 0.52717 0.6829 0.97988 0.0
O553 O 0.56749 0.76174 0.97102 0.0
O554 O 0.6566 0.7578 0.99466 0.0
O555 O 0.61293 0.71654 1.01532 0.0
O556 O 0.52661 0.67109 0.0336 0.0
O557 O 0.4991 0.68017 1.00755 0.0
C558 C 0.65403 0.86018 1.01207 0.0
C559 C 0.49112 0.65341 0.02145 0.0
Dy560 Dy 0.25706 0.83979 0.03667 0.0
C561 C 0.29858 0.82762 0.96705 0.0
C562 C 0.25751 0.88316 0.06674 0.0
Dy563 Dy 0.26219 0.8277 0.99832 0.0
O564 O 0.27811 0.85341 0.06374 0.0
O565 O 0.23754 0.89007 0.05316 0.0
O566 O 0.22246 0.75557 0.04493 0.0
O567 O 0.23692 0.775 0.01974 0.0
C568 C 0.21968 0.7372 0.03007 0.0
C569 C 0.27359 0.92009 1.0095 0.0
O570 O 0.17479 0.78164 1.00153 0.0
O571 O 0.17491 0.81722 0.02743 0.0
O572 O 0.24975 0.79682 0.97193 0.0
O573 O 0.32643 0.85776 0.97919 0.0
O574 O 0.24956 0.89739 0.99585 0.0
O575 O 0.29274 0.89395 1.01597 0.0
O576 O 0.33938 0.85249 0.03374 0.0
O577 O 0.32627 0.81446 1.0076 0.0
C578 C 0.14947 0.78815 1.01417 0.0
C579 C 0.35444 0.83331 0.02126 0.0
Dy580 Dy 0.16971 0.42167 0.0352 0.0
C581 C 0.18822 0.47222 0.96716 0.0
C582 C 0.1339 0.37926 0.06612 0.0
Dy583 Dy 0.18388 0.43674 0.99907 0.0
O584 O 0.16704 0.42871 0.06298 0.0
O585 O 0.11967 0.35298 0.05229 0.0
O586 O 0.24234 0.49637 0.04181 0.0
O587 O 0.24171 0.45806 0.0196 0.0
C588 C 0.26807 0.49929 0.02839 0.0
C589 C 0.08786 0.35707 1.00866 0.0
O590 O 0.22703 0.39166 1.00176 0.0
O591 O 0.19376 0.36136 0.02802 0.0
O592 O 0.16528 0.48038 0.9796 0.0
O593 O 0.21008 0.44503 0.97218 0.0
O594 O 0.11337 0.35526 0.99582 0.0
O595 O 0.11329 0.40219 1.01522 0.0
O596 O 0.14472 0.48226 0.03082 0.0
O597 O 0.1965 0.51462 1.00761 0.0
C598 C 0.21952 0.3601 1.01459 0.0
C599 C 0.16961 0.52043 0.01972 0.0
Dy600 Dy 0.26486 0.43559 0.49893 0.0
C601 C 0.26333 0.37573 0.56703 0.0
C602 C 0.29896 0.46336 0.46706 0.0
Dy603 Dy 0.26318 0.42043 0.53729 0.0
O604 O 0.31842 0.4449 0.47787 0.0
O605 O 0.2595 0.46651 0.47351 0.0
O606 O 0.24602 0.35092 0.49743 0.0
O607 O 0.29525 0.3993 0.51643 0.0
C608 C 0.2732 0.35321 0.51046 0.0
C609 C 0.22887 0.48805 0.53111 0.0
O610 O 0.34657 0.48762 0.53352 0.0
O611 O 0.33334 0.51183 0.5073 0.0
O612 O 0.28629 0.42637 0.56412 0.0
O613 O 0.24116 0.34952 0.55354 0.0
O614 O 0.23284 0.47304 0.54596 0.0
O615 O 0.24369 0.46591 0.52057 0.0
O616 O 0.17771 0.39508 0.5024 0.0
O617 O 0.17901 0.36311 0.52886 0.0
C618 C 0.36208 0.52146 0.52087 0.0
C619 C 0.15298 0.36554 0.51553 0.0
Dy620 Dy 0.57613 0.82829 0.49831 0.0
C621 C 0.6364 0.88559 0.56682 0.0
C622 C 0.53662 0.82437 0.46719 0.0
Dy623 Dy 0.59486 0.84228 0.53662 0.0
O624 O 0.56079 0.7988 0.47173 0.0
O625 O 0.53449 0.85141 0.47959 0.0
O626 O 0.65669 0.90067 0.49517 0.0
O627 O 0.61115 0.89537 0.51572 0.0
C628 C 0.65558 0.92296 0.50893 0.0
C629 C 0.5293 0.73923 0.53032 0.0
O630 O 0.52704 0.85743 0.53317 0.0
O631 O 0.49858 0.81399 0.508 0.0
O632 O 0.58615 0.85875 0.5633 0.0
O633 O 0.66407 0.88955 0.55369 0.0
O634 O 0.54502 0.75804 0.54514 0.0
O635 O 0.55001 0.77683 0.51998 0.0
O636 O 0.61931 0.78378 0.5018 0.0
O637 O 0.65646 0.82317 0.52717 0.0
C638 C 0.49067 0.8354 0.52134 0.0
C639 C 0.65302 0.79334 0.51419 0.0
Dy640 Dy 0.18525 0.7482 0.49904 0.0
C641 C 0.12811 0.74748 0.56762 0.0
C642 C 0.18832 0.71541 0.46753 0.0
Dy643 Dy 0.17154 0.75172 0.53727 0.0
O644 O 0.16013 0.6853 0.47964 0.0
O645 O 0.21577 0.76441 0.47263 0.0
O646 O 0.11418 0.75871 0.49622 0.0
O647 O 0.11822 0.7162 0.5164 0.0
C648 C 0.0914 0.73431 0.50981 0.0
C649 C 0.27433 0.78855 0.53111 0.0
O650 O 0.1567 0.66896 0.53354 0.0
O651 O 0.19915 0.68426 0.50819 0.0
O652 O 0.15679 0.72623 0.56392 0.0
O653 O 0.12237 0.77049 0.55456 0.0
O654 O 0.2553 0.78515 0.5459 0.0
O655 O 0.23711 0.77229 0.52063 0.0
O656 O 0.23113 0.83535 0.50281 0.0
O657 O 0.19351 0.83402 0.52841 0.0
C658 C 0.17833 0.65484 0.52154 0.0
C659 C 0.22362 0.86009 0.51541 0.0
Dy660 Dy 0.10493 0.59622 0.3694 0.0
C661 C 0.04365 0.58157 0.30083 0.0
C662 C 0.14308 0.63354 0.40042 0.0
Dy663 Dy 0.08711 0.58921 0.33148 0.0
O664 O 0.12287 0.58413 0.39588 0.0
O665 O 0.14163 0.66139 0.38813 0.0
O666 O 0.02204 0.58217 0.37238 0.0
O667 O 0.06609 0.62397 0.35182 0.0
C668 C 0.02131 0.60455 0.35859 0.0
C669 C 0.15721 0.55779 0.3377 0.0
O670 O 0.16059 0.66962 0.33294 0.0
O671 O 0.18201 0.66159 0.36012 0.0
O672 O 0.0419 0.5429 0.30928 0.0
O673 O 0.06863 0.62534 0.3093 0.0
O674 O 0.14242 0.56212 0.32287 0.0
O675 O 0.13529 0.57282 0.34825 0.0
O676 O 0.06631 0.50911 0.36646 0.0
O677 O 0.02424 0.51073 0.34227 0.0
C678 C 0.19358 0.68705 0.34581 0.0
C679 C 0.03111 0.48416 0.35458 0.0
Dy680 Dy 0.41634 0.50877 0.36812 0.0
C681 C 0.41582 0.45508 0.29946 0.0
C682 C 0.38149 0.50121 0.39997 0.0
Dy683 Dy 0.41839 0.49831 0.32968 0.0
O684 O 0.36138 0.46423 0.38888 0.0
O685 O 0.42193 0.54357 0.39379 0.0
O686 O 0.43319 0.44144 0.3691 0.0
O687 O 0.38513 0.44338 0.35016 0.0
C688 C 0.40607 0.41794 0.35592 0.0
C689 C 0.45322 0.59984 0.33653 0.0
O690 O 0.3355 0.48324 0.33366 0.0
O691 O 0.34921 0.51915 0.36008 0.0
O692 O 0.39483 0.48426 0.30282 0.0
O693 O 0.4379 0.44916 0.3127 0.0
O694 O 0.44932 0.58183 0.32156 0.0
O695 O 0.43823 0.56218 0.34687 0.0
O696 O 0.50346 0.55491 0.36483 0.0
O697 O 0.50245 0.52405 0.33804 0.0
C698 C 0.32051 0.50136 0.34646 0.0
C699 C 0.52829 0.55134 0.35154 0.0
Dy700 Dy 0.50035 0.90446 0.36856 0.0
C701 C 0.55976 0.96267 0.30023 0.0
C702 C 0.49786 0.86799 0.40001 0.0
Dy703 Dy 0.51473 0.92103 0.33022 0.0
O704 O 0.46771 0.88639 0.39475 0.0
O705 O 0.52873 0.87 0.38814 0.0
O706 O 0.56952 0.98702 0.37123 0.0
O707 O 0.56778 0.94068 0.3513 0.0
C708 C 0.59316 0.98597 0.35777 0.0
C709 C 0.41232 0.85323 0.33627 0.0
O710 O 0.53021 0.85344 0.33418 0.0
O711 O 0.48798 0.82713 0.35963 0.0
O712 O 0.52908 0.91254 0.30334 0.0
O713 O 0.56653 0.99012 0.31365 0.0
O714 O 0.43134 0.86877 0.32146 0.0
O715 O 0.44938 0.87541 0.34679 0.0
O716 O 0.45359 0.94471 0.36461 0.0
O717 O 0.48947 0.97947 0.33864 0.0
C718 C 0.50927 0.81842 0.34645 0.0
C719 C 0.45993 0.97588 0.35177 0.0
C720 C 0.14264 0.13112 0.19051 0.0
C721 C 0.13384 0.14544 0.17473 0.0
C722 C 0.16064 0.09478 0.19233 0.0
C723 C 0.17158 0.07252 0.17842 0.0
H724 H 0.13319 0.14611 0.2015 0.0
H725 H 0.1642 0.08257 0.20472 0.0
S726 S 0.1614 0.10262 0.13438 0.0
N727 N 0.14193 0.13841 0.14492 0.0
N728 N 0.17649 0.07098 0.1484 0.0
C729 C 0.16639 0.0894 0.1626 0.0
C730 C 0.14719 0.12558 0.16074 0.0
C731 C 0.93265 0.0775 0.16304 0.0
C732 C 0.94313 0.10283 0.17848 0.0
C733 C 0.89766 0.02285 0.16169 0.0
C734 C 0.87121 0.99182 0.17568 0.0
H735 H 0.95391 0.09933 0.1521 0.0
H736 H 0.89204 1.00473 0.1496 0.0
S737 S 0.88153 0.04036 0.21867 0.0
N738 N 0.92218 0.09368 0.2079 0.0
N739 N 0.85525 0.99107 0.20522 0.0
C740 C 0.87922 0.01718 0.19103 0.0
C741 C 0.91549 0.07269 0.19246 0.0
C742 C 0.99326 0.88366 0.16065 0.0
C743 C 0.02351 0.88435 0.1744 0.0
C744 C 0.93877 0.86498 0.16202 0.0
C745 C 0.91269 0.84716 0.17727 0.0
H746 H 0.01192 0.89853 0.14873 0.0
H747 H 0.91765 0.86729 0.15128 0.0
S748 S 0.97293 0.8375 0.21678 0.0
N749 N 0.02269 0.86255 0.20348 0.0
N750 N 0.92039 0.82845 0.20623 0.0
C751 C 0.94204 0.84588 0.191 0.0
C752 C 0.99743 0.86423 0.18952 0.0
C753 C 0.10308 0.11072 0.37156 0.0
C754 C 0.14021 0.12145 0.3588 0.0
C755 C 0.06713 0.12935 0.37078 0.0
C756 C 0.06639 0.15865 0.3571 0.0
H757 H 0.10128 0.08722 0.38221 0.0
H758 H 0.03814 0.11862 0.38059 0.0
S759 S 0.1567 0.20001 0.32092 0.0
N760 N 0.17556 0.16565 0.33251 0.0
N761 N 0.10676 0.19943 0.33081 0.0
C762 C 0.10369 0.17046 0.3444 0.0
C763 C 0.1409 0.15215 0.3453 0.0
C764 C 0.83308 0.92663 0.36912 0.0
C765 C 0.84346 0.91028 0.35391 0.0
C766 C 0.84551 0.97923 0.37157 0.0
C767 C 0.86838 0.01743 0.3589 0.0
H768 H 0.81754 0.89936 0.37947 0.0
H769 H 0.83858 0.99037 0.38372 0.0
S770 S 0.89776 0.99395 0.31616 0.0
N771 N 0.8739 0.9359 0.32545 0.0
N772 N 0.89678 0.03454 0.33022 0.0
C773 C 0.8761 1.00112 0.34335 0.0
C774 C 0.86377 0.9476 0.34083 0.0
C775 C 0.01865 0.87531 0.34544 0.0
C776 C 0.99258 0.86832 0.36063 0.0
C777 C 0.07315 0.91127 0.34396 0.0
C778 C 0.1036 0.94061 0.3577 0.0
H779 H 0.99647 0.85448 0.33449 0.0
H780 H 0.09125 0.91747 0.33183 0.0
S781 S 0.055 0.93316 0.40058 0.0
N782 N 1.00198 0.89124 0.38997 0.0
N783 N 0.10427 0.95789 0.38715 0.0
C784 C 0.07857 0.93172 0.37314 0.0
C785 C 0.02301 0.8959 0.37461 0.0
C786 C 0.86536 0.87108 0.84694 0.0
C787 C 0.89954 0.87508 0.85989 0.0
C788 C 0.84719 0.90745 0.84558 0.0
C789 C 0.86147 0.94786 0.85738 0.0
H790 H 0.853 0.84006 0.83773 0.0
H791 H 0.82224 0.90429 0.83517 0.0
S792 S 0.95319 0.97828 0.89277 0.0
N793 N 0.94958 0.92527 0.8841 0.0
N794 N 0.91373 0.99193 0.88174 0.0
C795 C 0.89551 0.95236 0.87032 0.0
C796 C 0.91501 0.91636 0.87152 0.0
C797 C 0.1417 0.99217 0.84445 0.0
C798 C 0.14728 0.01809 0.85962 0.0
C799 C 0.10764 0.93727 0.843 0.0
C800 C 0.07918 0.90624 0.85674 0.0
H801 H 0.16203 0.01471 0.83351 0.0
H802 H 0.10191 0.91924 0.83087 0.0
S803 S 0.08347 0.95419 0.89952 0.0
N804 N 0.12377 0.00795 0.88892 0.0
N805 N 0.06108 0.90484 0.88613 0.0
C806 C 0.08682 0.93116 0.87217 0.0
C807 C 0.12048 0.98713 0.87359 0.0
C808 C 0.03514 0.16121 0.87236 0.0
C809 C 0.9983 0.14287 0.85923 0.0
C810 C 0.08804 0.17464 0.86991 0.0
C811 C 0.10603 0.16993 0.85422 0.0
H812 H 0.02272 0.16372 0.88481 0.0
H813 H 0.11421 0.1863 0.88054 0.0
S814 S 0.02674 0.1298 0.81532 0.0
N815 N 0.98442 0.12508 0.82974 0.0
N816 N 0.08379 0.15034 0.82496 0.0
C817 C 0.07018 0.15435 0.84078 0.0
C818 C 0.01631 0.14079 0.84331 0.0
C819 C 0.90702 0.89087 0.66072 0.0
C820 C 0.8767 0.89074 0.67433 0.0
C821 C 0.9425 0.87186 0.66221 0.0
C822 C 0.9496 0.85297 0.67744 0.0
H823 H 0.90394 0.90643 0.64884 0.0
H824 H 0.96648 0.87459 0.65159 0.0
S825 S 0.87736 0.84088 0.71654 0.0
N826 N 0.85372 0.86703 0.70323 0.0
N827 N 0.92149 0.83243 0.70618 0.0
C828 C 0.91835 0.85102 0.69102 0.0
C829 C 0.8816 0.86964 0.68943 0.0
C830 C 0.14671 0.06523 0.69072 0.0
C831 C 0.17006 0.10325 0.67792 0.0
C832 C 0.13548 0.01273 0.68866 0.0
C833 C 0.14713 0.99624 0.67372 0.0
H834 H 0.13524 0.07542 0.7023 0.0
H835 H 0.1157 0.9845 0.69857 0.0
S836 S 0.21488 0.08117 0.6372 0.0
N837 N 0.20912 0.12125 0.65039 0.0
N838 N 0.18816 0.02298 0.64652 0.0
C839 C 0.17315 0.03435 0.66119 0.0
C840 C 0.1846 0.08773 0.66328 0.0
C841 C 0.95486 0.08296 0.69032 0.0
C842 C 0.91392 0.07863 0.67987 0.0
C843 C 1.0066 0.12552 0.68909 0.0
C844 C 0.01978 0.1658 0.6774 0.0
H845 H 0.94759 0.05235 0.69928 0.0
H846 H 0.03682 0.12586 0.69703 0.0
S847 S 0.9266 0.17759 0.64856 0.0
N848 N 0.88945 0.12113 0.65842 0.0
N849 N 0.987 0.20186 0.6562 0.0
C850 C 0.97894 0.16383 0.66746 0.0
C851 C 0.92599 0.12003 0.66865 0.0
C852 C 0.84498 0.431 0.49734 0.0
C853 C 0.84034 0.40841 0.51305 0.0
C854 C 0.83133 0.47028 0.49483 0.0
C855 C 0.81283 0.48867 0.50794 0.0
H856 H 0.85657 0.41643 0.48672 0.0
H857 H 0.8337 0.48506 0.48236 0.0
S858 S 0.80085 0.44801 0.55193 0.0
N859 N 0.82131 0.41143 0.54233 0.0
N860 N 0.79568 0.48531 0.53745 0.0
C861 C 0.81119 0.46896 0.52389 0.0
C862 C 0.82496 0.4288 0.52648 0.0
C863 C 0.56562 0.35515 0.49465 0.0
C864 C 0.53729 0.32534 0.50862 0.0
C865 C 0.60257 0.40932 0.49588 0.0
C866 C 0.61323 0.43543 0.51119 0.0
H867 H 0.55986 0.33639 0.48265 0.0
H868 H 0.62485 0.43012 0.48495 0.0
S869 S 0.5475 0.37632 0.55127 0.0
N870 N 0.52018 0.3266 0.53799 0.0
N871 N 0.5905 0.42837 0.54047 0.0
C872 C 0.58393 0.40655 0.52515 0.0
C873 C 0.54575 0.3515 0.52383 0.0
C874 C 0.60781 0.18275 0.52384 0.0
C875 C 0.57716 0.18046 0.50997 0.0
C876 C 0.66221 0.20073 0.52238 0.0
C877 C 0.68802 0.21801 0.50707 0.0
H878 H 0.58998 0.17221 0.53603 0.0
H879 H 0.68454 0.20308 0.53341 0.0
S880 S 0.62497 0.21595 0.46675 0.0
N881 N 0.57602 0.19351 0.48028 0.0
N882 N 0.6781 0.22799 0.47749 0.0
C883 C 0.65737 0.21373 0.49298 0.0
C884 C 0.60191 0.19462 0.49443 0.0
C885 C 0.79868 0.46911 0.67815 0.0
C886 C 0.82679 0.48097 0.69311 0.0
C887 C 0.75831 0.48151 0.67584 0.0
C888 C 0.74468 0.50647 0.68838 0.0
H889 H 0.80625 0.44805 0.66845 0.0
H890 H 0.73643 0.46966 0.66429 0.0
S891 S 0.81228 0.55264 0.72897 0.0
N892 N 0.84249 0.52408 0.72 0.0
N893 N 0.76684 0.54735 0.71564 0.0
C894 C 0.77507 0.52163 0.70297 0.0
C895 C 0.81599 0.5088 0.70534 0.0
C896 C 0.53321 0.27092 0.7052 0.0
C897 C 0.5186 0.24573 0.68973 0.0
C898 C 0.55109 0.32516 0.70667 0.0
C899 C 0.55407 0.35586 0.69278 0.0
H900 H 0.53359 0.24933 0.7161 0.0
H901 H 0.56351 0.34327 0.71878 0.0
S902 S 0.51566 0.30752 0.64976 0.0
N903 N 0.50507 0.2546 0.66038 0.0
N904 N 0.53779 0.35653 0.66329 0.0
C905 C 0.53704 0.33064 0.67739 0.0
C906 C 0.51951 0.27553 0.67584 0.0
C907 C 0.75299 0.25448 0.70435 0.0
C908 C 0.77105 0.27838 0.68879 0.0
C909 C 0.70055 0.21379 0.70658 0.0
C910 C 0.66406 0.19512 0.69335 0.0
H911 H 0.77885 0.26851 0.71506 0.0
H912 H 0.68821 0.1978 0.71894 0.0
S913 S 0.69238 0.23985 0.64971 0.0
N914 N 0.74894 0.27699 0.65952 0.0
N915 N 0.65038 0.20053 0.66393 0.0
C916 C 0.68199 0.21663 0.67757 0.0
C917 C 0.73548 0.25825 0.67524 0.0
C918 C 0.52448 0.21042 0.20627 0.0
C919 C 0.5437 0.19276 0.19319 0.0
C920 C 0.51218 0.25073 0.20393 0.0
C921 C 0.51899 0.27527 0.18843 0.0
H922 H 0.52005 0.19387 0.21858 0.0
H923 H 0.49915 0.26398 0.21454 0.0
S924 S 0.56365 0.23978 0.14974 0.0
N925 N 0.56547 0.19994 0.16395 0.0
N926 N 0.54264 0.27584 0.15937 0.0
C927 C 0.53605 0.25624 0.17503 0.0
C928 C 0.54832 0.21494 0.17745 0.0
C929 C 0.79473 0.33513 0.17826 0.0
C930 C 0.82056 0.35326 0.19352 0.0
C931 C 0.7551 0.28198 0.17621 0.0
C932 C 0.74002 0.24495 0.18933 0.0
H933 H 0.80394 0.36244 0.16802 0.0
H934 H 0.73524 0.27032 0.16432 0.0
S935 S 0.80047 0.27192 0.23125 0.0
N936 N 0.83181 0.32947 0.22157 0.0
N937 N 0.75756 0.22999 0.21771 0.0
C938 C 0.76768 0.26225 0.20438 0.0
C939 C 0.80782 0.31631 0.20648 0.0
C940 C 0.732 0.47603 0.17712 0.0
C941 C 0.7697 0.49892 0.19003 0.0
C942 C 0.67942 0.46427 0.17915 0.0
C943 C 0.6625 0.47486 0.19416 0.0
H944 H 0.74249 0.46543 0.16544 0.0
H945 H 0.65148 0.44493 0.16913 0.0
S946 S 0.74618 0.54075 0.23106 0.0
N947 N 0.78685 0.53623 0.21781 0.0
N948 N 0.68817 0.51416 0.22162 0.0
C949 C 0.70014 0.50027 0.20685 0.0
C950 C 0.7537 0.51232 0.20479 0.0
C951 C 0.59456 0.20116 0.02302 0.0
C952 C 0.60704 0.17493 1.0106 0.0
C953 C 0.55284 0.21177 0.02105 0.0
C954 C 0.52218 0.19676 1.00657 0.0
H955 H 0.61813 0.21518 0.03421 0.0
H956 H 0.54602 0.23373 0.03063 0.0
S957 S 0.53348 0.12146 0.9712 0.0
N958 N 0.58149 0.13002 0.98395 0.0
N959 N 0.50347 0.15009 0.98025 0.0
C960 C 0.53225 0.16816 0.99444 0.0
C961 C 0.57454 0.15718 0.99645 0.0
C962 C 0.83031 0.36023 0.99372 0.0
C963 C 0.80883 0.32265 1.0066 0.0
C964 C 0.84417 0.41321 0.99623 0.0
C965 C 0.83659 0.43038 1.0117 0.0
H966 H 0.83497 0.34834 0.98141 0.0
H967 H 0.85833 0.44008 0.98576 0.0
S968 S 0.78697 0.34841 0.04995 0.0
N969 N 0.78489 0.30692 0.03566 0.0
N970 N 0.81046 0.40624 0.04055 0.0
C971 C 0.81785 0.39365 0.02494 0.0
C972 C 0.80407 0.33981 0.02236 0.0
C973 C 0.60726 0.42385 0.02276 0.0
C974 C 0.57662 0.39382 1.00915 0.0
C975 C 0.66137 0.461 0.021 0.0
C976 C 0.68684 0.46839 1.00566 0.0
H977 H 0.58953 0.41771 0.03494 0.0
H978 H 0.68373 0.48272 0.03181 0.0
S979 S 0.62382 0.40032 0.96614 0.0
N980 N 0.5752 0.37512 0.97979 0.0
N981 N 0.67678 0.44385 0.97645 0.0
C982 C 0.65627 0.43942 0.99188 0.0
C983 C 0.60111 0.40245 0.99363 0.0
C984 C 0.47387 0.79572 0.85562 0.0
C985 C 0.48655 0.82455 0.84079 0.0
C986 C 0.48559 0.75486 0.85779 0.0
C987 C 0.51064 0.74144 0.84523 0.0
H988 H 0.45266 0.80311 0.86531 0.0
H989 H 0.47315 0.73245 0.86923 0.0
S990 S 0.5586 0.8106 0.80494 0.0
N991 N 0.53039 0.841 0.814 0.0
N992 N 0.55237 0.76438 0.81809 0.0
C993 C 0.52657 0.77246 0.83077 0.0
C994 C 0.51446 0.81391 0.82855 0.0
C995 C 0.22374 0.67931 0.85651 0.0
C996 C 0.21063 0.65505 0.84088 0.0
C997 C 0.26145 0.73333 0.8581 0.0
C998 C 0.28646 0.76513 0.84408 0.0
H999 H 0.20633 0.656 0.8676 0.0
H1000 H 0.27198 0.75002 0.87044 0.0
S1001 S 0.26164 0.72145 0.80024 0.0
N1002 N 0.22268 0.66758 0.81101 0.0
N1003 N 0.29268 0.76894 0.81405 0.0
C1004 C 0.27145 0.74187 0.82835 0.0
C1005 C 0.23382 0.68681 0.82674 0.0
C1006 C 0.32632 0.54252 0.82735 0.0
C1007 C 0.35857 0.54854 0.84114 0.0
C1008 C 0.27158 0.52166 0.82908 0.0
C1009 C 0.24745 0.50703 0.84471 0.0
H1010 H 0.34354 0.55487 0.81513 0.0
H1011 H 0.24868 0.52008 0.81828 0.0
S1012 S 0.31378 0.51178 0.8845 0.0
N1013 N 0.36202 0.5351 0.87069 0.0
N1014 N 0.25925 0.49716 0.87409 0.0
C1015 C 0.27894 0.51096 0.85849 0.0
C1016 C 0.33451 0.53144 0.85667 0.0
C1017 C 0.44621 0.78998 0.03921 0.0
C1018 C 0.47563 0.79038 0.02529 0.0
C1019 C 0.40969 0.80781 0.03814 0.0
C1020 C 0.40062 0.82578 0.02304 0.0
H1021 H 0.4508 0.77509 0.05104 0.0
H1022 H 0.38648 0.80485 0.04899 0.0
S1023 S 0.46957 0.83793 0.9832 0.0
N1024 N 0.4954 0.81314 0.99621 0.0
N1025 N 0.42587 0.84573 0.99404 0.0
C1026 C 0.43095 0.82799 1.00914 0.0
C1027 C 0.46867 0.81049 1.0103 0.0
C1028 C 0.2119 0.66476 1.01159 0.0
C1029 C 0.19936 0.68052 0.0265 0.0
C1030 C 0.19944 0.61206 1.00921 0.0
C1031 C 0.17378 0.57313 0.02162 0.0
H1032 H 0.23357 0.6937 1.00201 0.0
H1033 H 0.21187 0.60235 0.99773 0.0
S1034 S 0.12545 0.59326 0.06195 0.0
N1035 N 0.15467 0.65232 0.05314 0.0
N1036 N 0.13133 0.5535 0.04865 0.0
C1037 C 0.15783 0.58786 0.03612 0.0
C1038 C 0.17069 0.64153 0.03857 0.0
C1039 C 0.35204 0.54255 1.01189 0.0
C1040 C 0.32622 0.53457 0.02719 0.0
C1041 C 0.40644 0.57898 1.01035 0.0
C1042 C 0.43719 0.60786 0.02411 0.0
H1043 H 0.32971 0.52205 1.00092 0.0
H1044 H 0.42425 0.58577 0.99816 0.0
S1045 S 0.38934 0.59794 0.06722 0.0
N1046 N 0.3362 0.55622 0.05662 0.0
N1047 N 0.4383 0.62369 0.05368 0.0
C1048 C 0.4124 0.59809 0.03963 0.0
C1049 C 0.3569 0.56178 0.04117 0.0
C1050 C 0.22225 0.55418 0.51303 0.0
C1051 C 0.20918 0.52495 0.52778 0.0
C1052 C 0.21003 0.59467 0.51089 0.0
C1053 C 0.18408 0.60721 0.52339 0.0
H1054 H 0.24405 0.54734 0.50341 0.0
H1055 H 0.22273 0.61738 0.49951 0.0
S1056 S 0.13437 0.53605 0.56332 0.0
N1057 N 0.16388 0.50681 0.55434 0.0
N1058 N 0.1408 0.58265 0.55031 0.0
C1059 C 0.16785 0.57574 0.53776 0.0
C1060 C 0.18048 0.53471 0.53995 0.0
C1061 C 0.47199 0.64692 0.54034 0.0
C1062 C 0.49123 0.68278 0.52696 0.0
C1063 C 0.43228 0.59402 0.53813 0.0
C1064 C 0.41005 0.57482 0.52244 0.0
H1065 H 0.48662 0.66012 0.55278 0.0
H1066 H 0.41747 0.56874 0.54896 0.0
S1067 S 0.45131 0.65149 0.48299 0.0
N1068 N 0.48849 0.69466 0.4973 0.0
N1069 N 0.41415 0.59519 0.49292 0.0
C1070 C 0.43109 0.60974 0.50877 0.0
C1071 C 0.47158 0.66372 0.51108 0.0
C1072 C 0.39893 0.80553 0.51077 0.0
C1073 C 0.43756 0.8303 0.52333 0.0
C1074 C 0.34654 0.79431 0.51296 0.0
C1075 C 0.3308 0.80724 0.52781 0.0
H1076 H 0.4086 0.79311 0.49928 0.0
H1077 H 0.3178 0.77346 0.50326 0.0
S1078 S 0.41733 0.87885 0.56363 0.0
N1079 N 0.4569 0.87212 0.55048 0.0
N1080 N 0.35864 0.85094 0.5546 0.0
C1081 C 0.36944 0.83469 0.54007 0.0
C1082 C 0.42279 0.84629 0.53783 0.0
C1083 C 0.21485 0.52396 0.32724 0.0
C1084 C 0.1952 0.53919 0.34084 0.0
C1085 C 0.25321 0.5089 0.32927 0.0
C1086 C 0.27368 0.5086 0.34499 0.0
H1087 H 0.20139 0.52479 0.31478 0.0
H1088 H 0.26837 0.49953 0.31831 0.0
S1089 S 0.23081 0.53936 0.3849 0.0
N1090 N 0.19568 0.54905 0.37069 0.0
N1091 N 0.26771 0.52047 0.37472 0.0
C1092 C 0.25238 0.52127 0.35885 0.0
C1093 C 0.2132 0.53667 0.35673 0.0
C1094 C 0.4892 0.69219 0.32666 0.0
C1095 C 0.47299 0.65637 0.34005 0.0
C1096 C 0.50398 0.7454 0.32895 0.0
C1097 C 0.50292 0.7649 0.34474 0.0
H1098 H 0.48907 0.67877 0.31413 0.0
H1099 H 0.51391 0.77068 0.31814 0.0
S1100 S 0.4702 0.68881 0.38424 0.0
N1101 N 0.46149 0.64498 0.36982 0.0
N1102 N 0.48951 0.74522 0.37434 0.0
C1103 C 0.48969 0.73012 0.35842 0.0
C1104 C 0.47463 0.67578 0.35603 0.0
C1105 C 0.2679 0.75361 0.32817 0.0
C1106 C 0.24782 0.73365 0.344 0.0
C1107 C 0.32087 0.79317 0.32597 0.0
C1108 C 0.35597 0.81448 0.33949 0.0
H1109 H 0.24312 0.73748 0.31729 0.0
H1110 H 0.33467 0.80626 0.31346 0.0
S1111 S 0.32269 0.78018 0.3837 0.0
N1112 N 0.26693 0.74157 0.3737 0.0
N1113 N 0.36645 0.81559 0.36931 0.0
C1114 C 0.3362 0.79672 0.35544 0.0
C1115 C 0.28216 0.75641 0.35775 0.0
C1116 C 0.28457 0.38072 0.17211 0.0
C1117 C 0.25742 0.3454 0.18519 0.0
C1118 C 0.33881 0.40027 0.16943 0.0
C1119 C 0.36807 0.38492 0.17961 0.0
H1120 H 0.26343 0.39206 0.1635 0.0
H1121 H 0.35744 0.42607 0.1589 0.0
S1122 S 0.31746 0.29703 0.21641 0.0
N1123 N 0.26542 0.29912 0.20924 0.0
N1124 N 0.36692 0.33511 0.20393 0.0
C1125 C 0.34224 0.35176 0.19321 0.0
C1126 C 0.28707 0.33225 0.19607 0.0
C1127 C 0.66295 0.99227 0.19303 0.0
C1128 C 0.62577 0.98222 0.18038 0.0
C1129 C 0.68195 0.95716 0.19611 0.0
C1130 C 0.6645 0.91064 0.18666 0.0
H1131 H 0.67925 0.02863 0.20013 0.0
H1132 H 0.71266 0.96819 0.20537 0.0
S1133 S 0.56113 0.86217 0.15386 0.0
N1134 N 0.56764 0.91945 0.15967 0.0
N1135 N 0.60307 0.85363 0.16543 0.0
C1136 C 0.62452 0.89842 0.17478 0.0
C1137 C 0.60525 0.93414 0.17165 0.0
C1138 C 0.0586 0.72788 0.19444 0.0
C1139 C 0.10295 0.75803 0.18424 0.0
C1140 C 0.02476 0.67346 0.19169 0.0
C1141 C 0.03395 0.64704 0.17864 0.0
H1142 H 0.04821 0.74683 0.20411 0.0
H1143 H 0.98989 0.65251 0.19941 0.0
S1144 S 0.14909 0.70568 0.15007 0.0
N1145 N 0.15757 0.75572 0.16181 0.0
N1146 N 0.09394 0.65367 0.15666 0.0
C1147 C 0.08009 0.67578 0.1691 0.0
C1148 C 0.11456 0.73119 0.17188 0.0
C1149 C 0.38614 0.27903 0.35856 0.0
C1150 C 0.34993 0.25179 0.34567 0.0
C1151 C 0.40612 0.33336 0.36125 0.0
C1152 C 0.39038 0.36269 0.35126 0.0
H1153 H 0.39763 0.25789 0.36713 0.0
H1154 H 0.43234 0.35191 0.3717 0.0
S1155 S 0.30179 0.31243 0.31459 0.0
N1156 N 0.30373 0.26024 0.32168 0.0
N1157 N 0.33999 0.36171 0.32711 0.0
C1158 C 0.3567 0.33688 0.33776 0.0
C1159 C 0.33689 0.28166 0.33485 0.0
C1160 C 0.67639 0.01564 0.34131 0.0
C1161 C 0.64827 0.02655 0.35336 0.0
C1162 C 0.73076 0.0504 0.33864 0.0
C1163 C 0.75905 0.09739 0.34792 0.0
H1164 H 0.65688 0.97888 0.33439 0.0
H1165 H 0.75122 0.0388 0.32986 0.0
S1166 S 0.70155 0.14831 0.379 0.0
N1167 N 0.65121 0.09069 0.3732 0.0
N1168 N 0.75299 0.1559 0.3682 0.0
C1169 C 0.7304 0.11045 0.35916 0.0
C1170 C 0.67513 0.0751 0.36186 0.0
C1171 C 0.95727 0.67743 0.33889 0.0
C1172 C 0.91319 0.66366 0.34919 0.0
C1173 C 0.99071 0.65623 0.34152 0.0
C1174 C 0.98133 0.62031 0.35451 0.0
H1175 H 0.96775 0.70686 0.32923 0.0
H1176 H 0.02539 0.66983 0.33372 0.0
S1177 S 0.86675 0.56491 0.38333 0.0
N1178 N 0.85872 0.60705 0.37169 0.0
N1179 N 0.92136 0.56726 0.37656 0.0
C1180 C 0.93543 0.60342 0.36415 0.0
C1181 C 0.90146 0.62509 0.36152 0.0
C1182 C 0.68 0.66631 0.84177 0.0
C1183 C 0.65186 0.62658 0.85364 0.0
C1184 C 0.73464 0.687 0.83937 0.0
C1185 C 0.76318 0.66881 0.84879 0.0
H1186 H 0.66014 0.68296 0.83471 0.0
H1187 H 0.755 0.71925 0.83064 0.0
S1188 S 0.70629 0.55978 0.8797 0.0
N1189 N 0.65542 0.5658 0.8736 0.0
N1190 N 0.75781 0.60467 0.86915 0.0
C1191 C 0.73476 0.62685 0.85997 0.0
C1192 C 0.6792 0.60572 0.86237 0.0
C1193 C 0.38248 0.10215 0.86152 0.0
C1194 C 0.3475 0.09368 0.8483 0.0
C1195 C 0.40319 0.06842 0.86423 0.0
C1196 C 0.38951 0.02452 0.85391 0.0
H1197 H 0.39273 0.13414 0.87022 0.0
H1198 H 0.42868 0.07582 0.87486 0.0
S1199 S 0.30341 0.98701 0.81667 0.0
N1200 N 0.30341 0.03995 0.82397 0.0
N1201 N 0.34176 0.97634 0.82929 0.0
C1202 C 0.35673 0.01694 0.84018 0.0
C1203 C 0.33593 0.05158 0.8373 0.0
C1204 C 0.96652 0.27998 0.83867 0.0
C1205 C 0.91885 0.25184 0.84764 0.0
C1206 C 1.00092 0.33437 0.8413 0.0
C1207 C 0.98895 0.36266 0.85297 0.0
H1208 H 0.97882 0.25943 0.83017 0.0
H1209 H 0.03812 0.35383 0.8346 0.0
S1210 S 0.86547 0.30961 0.87775 0.0
N1211 N 0.85882 0.25799 0.86728 0.0
N1212 N 0.92338 0.35996 0.87218 0.0
C1213 C 0.93989 0.33588 0.8612 0.0
C1214 C 0.90489 0.28054 0.85855 0.0
C1215 C 0.62149 0.6791 0.66828 0.0
C1216 C 0.63521 0.64948 0.67889 0.0
C1217 C 0.64136 0.73345 0.67083 0.0
C1218 C 0.67539 0.76033 0.68419 0.0
H1219 H 0.59646 0.66059 0.65759 0.0
H1220 H 0.63106 0.75478 0.66196 0.0
S1221 S 0.71956 0.69934 0.71645 0.0
N1222 N 0.68225 0.65001 0.70383 0.0
N1223 N 0.71902 0.75174 0.70887 0.0
C1224 C 0.6872 0.73039 0.69541 0.0
C1225 C 0.66732 0.67511 0.69269 0.0
C1226 C 0.34025 0.94271 0.67078 0.0
C1227 C 0.36997 0.98725 0.68089 0.0
C1228 C 0.28578 0.90904 0.67334 0.0
C1229 C 0.2587 0.91827 0.6862 0.0
H1230 H 0.35875 0.93479 0.66038 0.0
H1231 H 0.26449 0.87653 0.66477 0.0
S1232 S 0.32002 0.0266 0.71734 0.0
N1233 N 0.36946 0.0367 0.70505 0.0
N1234 N 0.26741 0.97324 0.71009 0.0
C1235 C 0.28878 0.96097 0.69705 0.0
C1236 C 0.34428 0.99551 0.69433 0.0
C1237 C 0.0208 0.3516 0.69251 0.0
C1238 C 0.03252 0.39092 0.68047 0.0
C1239 C 0.05529 0.33176 0.69546 0.0
C1240 C 0.10293 0.35047 0.6865 0.0
H1241 H 0.9837 0.33444 0.69925 0.0
H1242 H 0.04308 0.29964 0.70427 0.0
S1243 S 0.15559 0.45904 0.6554 0.0
N1244 N 0.09779 0.45199 0.66085 0.0
N1245 N 0.16246 0.41497 0.66637 0.0
C1246 C 0.1166 0.39223 0.6752 0.0
C1247 C 0.08148 0.41237 0.6722 0.0
C1248 C 0.95196 0.7123 0.50635 0.0
C1249 C 0.92446 0.67592 0.51917 0.0
C1250 C 1.00643 0.73274 0.5039 0.0
C1251 C 0.0357 0.71749 0.5141 0.0
H1252 H 0.93101 0.72392 0.49775 0.0
H1253 H 0.02529 0.7593 0.49354 0.0
S1254 S 0.98444 0.62734 0.55037 0.0
N1255 N 0.9322 0.62867 0.54301 0.0
N1256 N 0.0343 0.66686 0.53823 0.0
C1257 C 0.00956 0.68335 0.52747 0.0
C1258 C 0.95406 0.66267 0.53005 0.0
C1259 C 0.34534 0.28905 0.53032 0.0
C1260 C 0.32855 0.24286 0.52077 0.0
C1261 C 0.3252 0.32322 0.52747 0.0
C1262 C 0.2874 0.31252 0.51499 0.0
H1263 H 0.37639 0.30062 0.53949 0.0
H1264 H 0.34114 0.35945 0.53463 0.0
S1265 S 0.22386 0.19272 0.48837 0.0
N1266 N 0.26691 0.18516 0.49967 0.0
N1267 N 0.22926 0.24939 0.49436 0.0
C1268 C 0.26733 0.26461 0.50621 0.0
C1269 C 0.28784 0.22979 0.50909 0.0
C1270 C 0.73692 0.00942 0.50258 0.0
C1271 C 0.6941 0.97885 0.51324 0.0
C1272 C 0.7704 0.06395 0.50518 0.0
C1273 C 0.76277 0.09022 0.51862 0.0
H1274 H 0.7436 0.99153 0.49177 0.0
H1275 H 0.80151 0.08591 0.49623 0.0
S1276 S 0.65926 0.02666 0.55116 0.0
N1277 N 0.64798 0.97784 0.53842 0.0
N1278 N 0.71111 0.07993 0.54352 0.0
C1279 C 0.72181 0.05934 0.52994 0.0
C1280 C 0.68743 1.00382 0.52718 0.0
C1281 C 0.0202 0.67378 0.67492 0.0
C1282 C 0.05874 0.70086 0.68721 0.0
C1283 C 0.99943 0.61928 0.67217 0.0
C1284 C 0.01641 0.58976 0.68163 0.0
H1285 H 1.0043 0.69429 0.66783 0.0
H1286 H 0.96793 0.59975 0.66315 0.0
S1287 S 0.12272 0.64403 0.71351 0.0
N1288 N 0.11747 0.69548 0.70757 0.0
N1289 N 0.07877 0.59345 0.70243 0.0
C1290 C 0.05756 0.61729 0.69317 0.0
C1291 C 0.07865 0.67271 0.69595 0.0
C1292 C 0.34249 0.355 0.67491 0.0
C1293 C 0.31571 0.36569 0.68749 0.0
C1294 C 0.39712 0.38824 0.67229 0.0
C1295 C 0.42719 0.43346 0.68218 0.0
H1296 H 0.32156 0.31955 0.66743 0.0
H1297 H 0.41624 0.37682 0.66297 0.0
S1298 S 0.37428 0.48317 0.71515 0.0
N1299 N 0.32219 0.42779 0.70872 0.0
N1300 N 0.4246 0.49015 0.70385 0.0
C1301 C 0.40013 0.44635 0.69409 0.0
C1302 C 0.3445 0.41254 0.69673 0.0
C1303 C 0.66756 1.0016 0.67511 0.0
C1304 C 0.65642 0.96218 0.68705 0.0
C1305 C 0.63313 0.02165 0.67259 0.0
C1306 C 0.58631 1.00309 0.68195 0.0
H1307 H 0.70411 0.01857 0.66809 0.0
H1308 H 0.64478 0.05379 0.66383 0.0
S1309 S 0.53518 0.89436 0.71297 0.0
N1310 N 0.59242 0.9011 0.70699 0.0
N1311 N 0.52788 0.93871 0.70231 0.0
C1312 C 0.57315 0.96129 0.69318 0.0
C1313 C 0.60813 0.94084 0.6957 0.0
C1314 C 0.34654 1.00299 0.17576 0.0
C1315 C 0.31815 0.96257 0.1874 0.0
C1316 C 0.40103 0.02309 0.17321 0.0
C1317 C 0.42919 1.00353 0.18222 0.0
H1318 H 0.32702 0.02057 0.16899 0.0
H1319 H 0.42159 0.05587 0.16467 0.0
S1320 S 0.37127 0.89234 0.21237 0.0
N1321 N 0.32091 0.89982 0.2067 0.0
N1322 N 0.42298 0.93745 0.20195 0.0
C1323 C 0.40045 0.96096 0.19317 0.0
C1324 C 0.34504 0.94051 0.19573 0.0
C1325 C 0.04662 0.43864 0.19258 0.0
C1326 C 0.01049 0.42948 0.17964 0.0
C1327 C 0.06653 0.40432 0.19543 0.0
C1328 C 0.05105 0.35923 0.18552 0.0
H1329 H 0.05838 0.47161 0.201 0.0
H1330 H 0.09299 0.41236 0.20584 0.0
S1331 S 0.96198 0.31971 0.14896 0.0
N1332 N 0.96356 0.37376 0.15593 0.0
N1333 N 1.00078 0.3093 0.16145 0.0
C1334 C 0.01716 0.35087 0.17204 0.0
C1335 C 0.99699 0.38598 0.16905 0.0
C1336 C 0.62917 0.61509 0.17239 0.0
C1337 C 0.58306 0.58568 0.18199 0.0
C1338 C 0.66265 0.66975 0.17488 0.0
C1339 C 0.65134 0.6972 0.18705 0.0
H1340 H 0.64099 0.59545 0.16338 0.0
H1341 H 0.69867 0.69017 0.16763 0.0
S1342 S 0.53181 0.64066 0.21382 0.0
N1343 N 0.52516 0.58971 0.20295 0.0
N1344 N 0.58795 0.69214 0.20758 0.0
C1345 C 0.60379 0.66907 0.19601 0.0
C1346 C 0.56973 0.61343 0.19351 0.0
C1347 C 0.32879 1.00309 0.02585 0.0
C1348 C 0.28894 0.97529 1.01399 0.0
C1349 C 0.34937 0.05762 0.02845 0.0
C1350 C 0.33083 0.08634 0.01928 0.0
H1351 H 0.34594 0.9832 0.03264 0.0
H1352 H 0.38199 0.07779 0.03707 0.0
S1353 S 0.22039 0.02974 0.98882 0.0
N1354 N 0.22709 0.97894 0.99452 0.0
N1355 N 0.26545 0.08106 0.9994 0.0
C1356 C 0.28827 0.05802 1.00827 0.0
C1357 C 0.2674 1.0026 1.00564 0.0
C1358 C 1.00318 0.32824 0.02422 0.0
C1359 C 0.03169 0.31746 1.01229 0.0
C1360 C 0.94864 0.29371 0.02662 0.0
C1361 C 0.92041 0.24704 0.01716 0.0
H1362 H 0.02272 0.36448 0.03139 0.0
H1363 H 0.92813 0.30503 0.03546 0.0
S1364 S 0.97839 0.19723 0.9859 0.0
N1365 N 0.02883 0.25423 0.99208 0.0
N1366 N 0.92665 0.18955 0.99654 0.0
C1367 C 0.9492 0.23445 1.00584 0.0
C1368 C 1.00471 0.26956 1.00343 0.0
C1369 C 0.7202 0.66039 0.0274 0.0
C1370 C 0.76441 0.67466 0.01712 0.0
C1371 C 0.6869 0.68178 0.02493 0.0
C1372 C 0.69662 0.71835 1.01213 0.0
H1373 H 0.70956 0.6305 0.03691 0.0
H1374 H 0.65216 0.66795 0.03271 0.0
S1375 S 0.81159 0.77501 0.98345 0.0
N1376 N 0.81932 0.73224 0.99484 0.0
N1377 N 0.75691 0.77243 0.99027 0.0
C1378 C 0.74258 0.73563 1.00249 0.0
C1379 C 0.77641 0.71377 1.00497 0.0
C1380 C 0.67642 0.01421 0.85892 0.0
C1381 C 0.70384 0.05298 0.84673 0.0
C1382 C 0.62216 0.99449 0.8618 0.0
C1383 C 0.59329 0.01283 0.85261 0.0
H1384 H 0.69637 0.99723 0.86577 0.0
H1385 H 0.60224 0.96264 0.87069 0.0
S1386 S 0.64911 0.12072 0.82128 0.0
N1387 N 0.69981 0.11371 0.82688 0.0
N1388 N 0.5982 0.07694 0.83229 0.0
C1389 C 0.62131 0.05437 0.84125 0.0
C1390 C 0.67647 0.07436 0.83832 0.0
C1391 C 1.00272 0.65996 0.85891 0.0
C1392 C 0.96525 0.65019 0.8464 0.0
C1393 C 0.0224 0.62525 0.86156 0.0
C1394 C 1.00543 0.57958 0.85174 0.0
H1395 H 0.01849 0.69568 0.86632 0.0
H1396 H 0.05315 0.63588 0.87078 0.0
S1397 S 0.90177 0.53192 0.8191 0.0
N1398 N 0.90742 0.58843 0.8254 0.0
N1399 N 0.94445 0.52348 0.83031 0.0
C1400 C 0.96545 0.56768 0.83993 0.0
C1401 C 0.94533 0.60289 0.83728 0.0
C1402 C 0.35398 0.34081 0.85829 0.0
C1403 C 0.36374 0.31308 0.84581 0.0
C1404 C 0.38887 0.39514 0.86098 0.0
C1405 C 0.43477 0.42386 0.85123 0.0
H1406 H 0.31819 0.32088 0.86567 0.0
H1407 H 0.37825 0.4152 0.8702 0.0
S1408 S 0.48213 0.36802 0.81853 0.0
N1409 N 0.42555 0.3172 0.82482 0.0
N1410 N 0.4907 0.41902 0.82978 0.0
C1411 C 0.44649 0.39582 0.83939 0.0
C1412 C 0.41113 0.34053 0.83671 0.0
C1413 C 0.66501 0.94831 1.00374 0.0
C1414 C 0.68307 0.9192 1.01293 0.0
C1415 C 0.68457 1.00251 1.00677 0.0
C1416 C 0.72287 0.02967 0.01912 0.0
H1417 H 0.63352 0.92863 0.99472 0.0
H1418 H 0.66784 0.02262 0.99987 0.0
S1419 S 0.78923 0.97415 0.04487 0.0
N1420 N 0.7462 0.92363 0.03357 0.0
N1421 N 0.7825 0.025 0.03927 0.0
C1422 C 0.74388 1.00206 0.02759 0.0
C1423 C 0.72411 0.94699 0.02449 0.0
C1424 C 1.00868 0.72935 0.03027 0.0
C1425 C 0.97975 0.68533 0.0199 0.0
C1426 C 0.06298 0.76405 0.02778 0.0
C1427 C 0.09054 0.75637 1.01473 0.0
H1428 H 0.98969 0.73615 0.04077 0.0
H1429 H 0.08373 0.79616 0.03652 0.0
S1430 S 0.0311 0.64989 0.98294 0.0
N1431 N 0.98135 0.63798 0.99534 0.0
N1432 N 0.08306 0.70332 0.99044 0.0
C1433 C 0.06119 0.71407 1.00368 0.0
C1434 C 1.00593 0.6785 1.00633 0.0
C1435 C 0.29336 0.34518 1.00537 0.0
C1436 C 0.24831 0.32995 1.01535 0.0
C1437 C 0.32678 0.3239 1.00792 0.0
C1438 C 0.31635 0.28652 0.02052 0.0
H1439 H 0.30455 0.37576 0.99605 0.0
H1440 H 0.36217 0.33849 1.00041 0.0
S1441 S 0.19904 0.22708 0.04828 0.0
N1442 N 0.19186 0.27047 0.03703 0.0
N1443 N 0.25445 0.23059 0.04178 0.0
C1444 C 0.26953 0.26825 0.0298 0.0
C1445 C 0.2356 0.28995 0.02724 0.0
C1446 C 0.06668 0.30329 0.52938 0.0
C1447 C 0.09399 0.3385 0.51629 0.0
C1448 C 0.01215 0.2828 0.53178 0.0
C1449 C 0.98268 0.29697 0.52127 0.0
H1450 H 0.08775 0.29239 0.53817 0.0
H1451 H 0.99333 0.25689 0.54227 0.0
S1452 S 0.03354 0.38432 0.48436 0.0
N1453 N 0.08593 0.38383 0.49198 0.0
N1454 N 0.98382 0.34571 0.49668 0.0
C1455 C 0.00876 0.33032 0.50774 0.0
C1456 C 0.06426 0.35093 0.50519 0.0
C1457 C 0.6653 0.7175 0.50545 0.0
C1458 C 0.68293 0.76428 0.51477 0.0
C1459 C 0.68656 0.68409 0.50798 0.0
C1460 C 0.72623 0.69617 0.51991 0.0
H1461 H 0.6329 0.70501 0.49673 0.0
H1462 H 0.67008 0.64738 0.50105 0.0
S1463 S 0.79236 0.81801 0.54559 0.0
N1464 N 0.74715 0.82396 0.53496 0.0
N1465 N 0.78682 0.7612 0.53969 0.0
C1466 C 0.74683 0.74455 0.52845 0.0
C1467 C 0.72524 0.77857 0.5259 0.0
C1468 C 0.24442 0.94645 0.52851 0.0
C1469 C 0.25515 0.919 0.51615 0.0
C1470 C 0.27805 1.00095 0.53107 0.0
C1471 C 0.32395 0.03019 0.52146 0.0
H1472 H 0.21049 0.9255 0.5366 0.0
H1473 H 0.26869 0.01999 0.54098 0.0
S1474 S 0.3693 0.97834 0.487 0.0
N1475 N 0.31426 0.92638 0.49364 0.0
N1476 N 0.37758 0.02829 0.49872 0.0
C1477 C 0.33431 1.00385 0.50869 0.0
C1478 C 0.29987 0.94843 0.50596 0.0
C1479 C 0.96714 0.39845 0.34079 0.0
C1480 C 1.00299 0.42508 0.3538 0.0
C1481 C 0.9466 0.34409 0.33803 0.0
C1482 C 0.96113 0.31398 0.34811 0.0
H1483 H 0.95617 0.42001 0.33222 0.0
H1484 H 0.92056 0.32601 0.32751 0.0
S1485 S 0.04885 0.36252 0.38498 0.0
N1486 N 0.04837 0.41542 0.37783 0.0
N1487 N 0.01007 0.31354 0.37245 0.0
C1488 C 0.99454 0.33916 0.36171 0.0
C1489 C 0.01535 0.39458 0.36461 0.0
C1490 C 0.66953 0.61036 0.33568 0.0
C1491 C 0.69817 0.65493 0.34589 0.0
C1492 C 0.61511 0.57572 0.33805 0.0
C1493 C 0.58717 0.58391 0.35086 0.0
H1494 H 0.68889 0.60295 0.32542 0.0
H1495 H 0.5946 0.543 0.3295 0.0
S1496 S 0.64517 0.69297 0.38185 0.0
N1497 N 0.69546 0.70401 0.36983 0.0
N1498 N 0.59359 0.63888 0.37451 0.0
C1499 C 0.61606 0.62712 0.36166 0.0
C1500 C 0.67141 0.66263 0.35912 0.0
C1501 C 0.40589 0.06365 0.33671 0.0
C1502 C 0.3604 0.04723 0.34652 0.0
C1503 C 0.4391 0.04202 0.33893 0.0
C1504 C 0.42838 1.00332 0.35114 0.0
H1505 H 0.41519 0.09242 0.32691 0.0
H1506 H 0.47275 0.05493 0.33072 0.0
S1507 S 0.31514 0.94851 0.38064 0.0
N1508 N 0.30719 0.99114 0.36926 0.0
N1509 N 0.3696 0.95109 0.37366 0.0
C1510 C 0.38403 0.98812 0.36149 0.0
C1511 C 0.35007 0.00989 0.35912 0.0
C1512 C 0.13486 0.38973 0.09692 0.0
C1513 C 0.11906 0.35619 0.08298 0.0
C1514 C 0.12497 0.36908 0.11309 0.0
C1515 C 0.09939 0.31412 0.11593 0.0
H1516 H 0.15581 0.43237 0.09534 0.0
H1517 H 0.13866 0.39646 0.12342 0.0
S1518 S 0.04798 0.20918 0.08369 0.0
N1519 N 0.07465 0.2652 0.07311 0.0
N1520 N 0.05659 0.22641 0.10343 0.0
C1521 C 0.08225 0.2801 0.10211 0.0
C1522 C 0.09193 0.30113 0.08565 0.0
C1523 C 0.66657 0.74797 0.09173 0.0
C1524 C 0.65698 0.78448 0.08316 0.0
C1525 C 0.68592 0.75785 0.10811 0.0
C1526 C 0.69675 0.80477 0.11637 0.0
H1527 H 0.65867 0.71137 0.08582 0.0
H1528 H 0.69264 0.72869 0.11429 0.0
S1529 S 0.67893 0.91332 0.09927 0.0
N1530 N 0.66015 0.8695 0.08416 0.0
N1531 N 0.69653 0.88806 0.11467 0.0
C1532 C 0.68757 0.84161 0.10786 0.0
C1533 C 0.66769 0.83147 0.09132 0.0
C1534 C 0.25995 0.89563 0.11361 0.0
C1535 C 0.22981 0.9204 0.11643 0.0
C1536 C 0.27039 0.88551 0.09744 0.0
C1537 C 0.2513 0.90001 0.08351 0.0
H1538 H 0.27422 0.88247 0.12395 0.0
H1539 H 0.29237 0.86483 0.09589 0.0
S1540 S 0.17454 0.97029 0.0842 0.0
N1541 N 0.18395 0.96235 0.10394 0.0
N1542 N 0.20381 0.94358 0.07363 0.0
C1543 C 0.22309 0.92687 0.08617 0.0
C1544 C 0.21226 0.93697 0.10261 0.0
C1545 C 0.34732 0.16724 0.44208 0.0
C1546 C 0.35861 0.13181 0.45055 0.0
C1547 C 0.32811 0.15729 0.42581 0.0
C1548 C 0.31985 0.11174 0.41726 0.0
H1549 H 0.35323 0.20305 0.44809 0.0
H1550 H 0.31991 0.18581 0.41986 0.0
S1551 S 0.34329 0.00628 0.43381 0.0
N1552 N 0.3599 0.04904 0.44922 0.0
N1553 N 0.3243 0.03061 0.41846 0.0
C1554 C 0.33103 0.07589 0.42553 0.0
C1555 C 0.35023 0.08583 0.44222 0.0
C1556 C 0.93591 0.21897 0.43133 0.0
C1557 C 0.91686 0.23352 0.4174 0.0
C1558 C 0.92503 0.22862 0.4475 0.0
C1559 C 0.89451 0.25298 0.45035 0.0
H1560 H 0.95824 0.19866 0.42975 0.0
H1561 H 0.93939 0.21553 0.45784 0.0
S1562 S 0.83889 0.30255 0.41812 0.0
N1563 N 0.8688 0.27653 0.40754 0.0
N1564 N 0.84815 0.29442 0.43785 0.0
C1565 C 0.87695 0.26955 0.43653 0.0
C1566 C 0.88819 0.2599 0.42007 0.0
C1567 C 0.8059 0.72833 0.43038 0.0
C1568 C 0.7827 0.6952 0.41655 0.0
C1569 C 0.7953 0.70797 0.44658 0.0
C1570 C 0.76124 0.65363 0.44957 0.0
H1571 H 0.83356 0.77022 0.42869 0.0
H1572 H 0.81528 0.73481 0.45678 0.0
S1573 S 0.687 0.55075 0.41773 0.0
N1574 N 0.72144 0.60592 0.40699 0.0
N1575 N 0.70171 0.56753 0.43737 0.0
C1576 C 0.73617 0.62038 0.43589 0.0
C1577 C 0.74685 0.64119 0.4194 0.0
C1578 C 0.8938 0.63842 0.91991 0.0
C1579 C 0.91895 0.69349 0.91736 0.0
C1580 C 0.88258 0.61691 0.93597 0.0
C1581 C 0.89661 0.6497 0.95005 0.0
H1582 H 0.88135 0.61163 0.90943 0.0
H1583 H 0.86196 0.57419 0.93733 0.0
S1584 S 0.96627 0.7967 0.9501 0.0
N1585 N 0.95966 0.78052 0.93028 0.0
N1586 N 0.93919 0.74013 0.96039 0.0
C1587 C 0.92343 0.70489 0.94767 0.0
C1588 C 0.93441 0.72677 0.93134 0.0
C1589 C 0.28398 0.2004 0.93004 0.0
C1590 C 0.31732 0.22571 0.91641 0.0
C1591 C 0.30335 0.2115 0.94632 0.0
C1592 C 0.35689 0.24813 0.9496 0.0
H1593 H 0.24276 0.17081 0.92811 0.0
H1594 H 0.27653 0.18987 0.95638 0.0
S1595 S 0.45964 0.32836 0.91837 0.0
N1596 N 0.40569 0.29158 0.90732 0.0
N1597 N 0.44228 0.31221 0.93791 0.0
C1598 C 0.39022 0.27523 0.93612 0.0
C1599 C 0.3704 0.26408 0.91953 0.0
C1600 C 0.79394 0.07029 0.9301 0.0
C1601 C 0.7753 0.08536 0.9162 0.0
C1602 C 0.78261 0.07938 0.94624 0.0
C1603 C 0.75215 0.10379 0.94906 0.0
H1604 H 0.81915 0.05309 0.92853 0.0
H1605 H 0.79952 0.06899 0.95655 0.0
S1606 S 0.68894 0.14522 0.9169 0.0
N1607 N 0.72123 0.12178 0.90631 0.0
N1608 N 0.69974 0.13878 0.93663 0.0
C1609 C 0.73083 0.11639 0.93529 0.0
C1610 C 0.74247 0.1072 0.91885 0.0
C1611 C 0.71237 0.91995 0.58663 0.0
C1612 C 0.65847 0.90228 0.58371 0.0
C1613 C 0.73305 0.92976 0.60277 0.0
C1614 C 0.70068 0.92252 0.61659 0.0
H1615 H 0.73849 0.92454 0.57643 0.0
H1616 H 0.77448 0.94182 0.60443 0.0
S1617 S 0.55798 0.88185 0.6155 0.0
N1618 N 0.57387 0.8815 0.59588 0.0
N1619 N 0.61286 0.90025 0.6262 0.0
C1620 C 0.64727 0.90721 0.61379 0.0
C1621 C 0.62613 0.89702 0.59735 0.0
C1622 C 0.08726 0.78238 0.5875 0.0
C1623 C 0.11154 0.75183 0.58462 0.0
C1624 C 0.07777 0.79322 0.60367 0.0
C1625 C 0.09231 0.77401 0.61755 0.0
H1626 H 0.0772 0.79967 0.57722 0.0
H1627 H 0.06065 0.81848 0.60528 0.0
S1628 S 0.15156 0.68711 0.61669 0.0
N1629 N 0.14578 0.69868 0.59698 0.0
N1630 N 0.12809 0.71927 0.62734 0.0
C1631 C 0.11405 0.74112 0.61484 0.0
C1632 C 0.12362 0.72995 0.59837 0.0
C1633 C 0.27826 0.38553 0.59759 0.0
C1634 C 0.25639 0.35217 0.58375 0.0
C1635 C 0.2666 0.36526 0.61377 0.0
C1636 C 0.23245 0.31091 0.61671 0.0
H1637 H 0.30322 0.42793 0.59596 0.0
H1638 H 0.28303 0.39275 0.62403 0.0
S1639 S 0.16915 0.20604 0.58473 0.0
N1640 N 0.20228 0.26151 0.57403 0.0
N1641 N 0.18013 0.22347 0.60443 0.0
C1642 C 0.21235 0.27675 0.60299 0.0
C1643 C 0.2244 0.29737 0.5865 0.0
C1644 C 0.96409 0.40602 0.7635 0.0
C1645 C 0.99637 0.43144 0.74966 0.0
C1646 C 0.9848 0.41714 0.77967 0.0
C1647 C 0.03841 0.45445 0.7826 0.0
H1648 H 0.92224 0.37811 0.76186 0.0
H1649 H 0.95829 0.39739 0.78996 0.0
S1650 S 0.14011 0.53029 0.75059 0.0
N1651 N 0.08511 0.49406 0.73995 0.0
N1652 N 0.12383 0.51531 0.77024 0.0
C1653 C 0.07138 0.47908 0.76884 0.0
C1654 C 0.05042 0.46746 0.7524 0.0
C1655 C 0.60003 0.545 0.76364 0.0
C1656 C 0.58493 0.56356 0.74971 0.0
C1657 C 0.58975 0.55524 0.77981 0.0
C1658 C 0.56362 0.58407 0.78266 0.0
H1659 H 0.61907 0.52147 0.76205 0.0
H1660 H 0.60109 0.53918 0.79012 0.0
S1661 S 0.51881 0.64426 0.75048 0.0
N1662 N 0.54496 0.61449 0.73988 0.0
N1663 N 0.5252 0.63332 0.7702 0.0
C1664 C 0.54971 0.60419 0.76886 0.0
C1665 C 0.5605 0.59406 0.7524 0.0
C1666 C 0.46499 0.05997 0.76455 0.0
C1667 C 0.44544 0.02614 0.75071 0.0
C1668 C 0.45535 0.03967 0.78074 0.0
C1669 C 0.42567 0.98481 0.7837 0.0
H1670 H 0.48965 0.10238 0.76287 0.0
H1671 H 0.47287 0.0671 0.79097 0.0
S1672 S 0.36032 0.87982 0.7518 0.0
N1673 N 0.3912 0.93548 0.74108 0.0
N1674 N 0.37285 0.89727 0.77148 0.0
C1675 C 0.40342 0.95075 0.77001 0.0
C1676 C 0.41337 0.97144 0.75352 0.0
C1677 C 0.56814 0.97203 0.25336 0.0
C1678 C 0.59783 0.02695 0.2505 0.0
C1679 C 0.55813 0.95145 0.26952 0.0
C1680 C 0.57728 0.98504 0.28342 0.0
H1681 H 0.55092 0.94476 0.24308 0.0
H1682 H 0.53349 0.909 0.27112 0.0
S1683 S 0.66197 0.13143 0.2826 0.0
N1684 N 0.65005 0.11431 0.26289 0.0
N1685 N 0.63096 0.07558 0.29323 0.0
C1686 C 0.60927 0.03981 0.28072 0.0
C1687 C 0.61962 0.06078 0.26426 0.0
C1688 C 0.01888 0.53145 0.27453 0.0
C1689 C 0.02597 0.576 0.28341 0.0
C1690 C 1.00343 0.52409 0.25793 0.0
C1691 C 0.99325 0.56036 0.24953 0.0
H1692 H 0.02591 0.50202 0.28039 0.0
H1693 H 0.99863 0.489 0.25171 0.0
S1694 S 1.00553 0.68356 0.26712 0.0
N1695 N 0.02226 0.65753 0.28258 0.0
N1696 N 0.99119 0.64263 0.25127 0.0
C1697 C 0.99972 0.60505 0.25821 0.0
C1698 C 0.01667 0.61318 0.27518 0.0
C1699 C 0.41666 0.44734 0.25261 0.0
C1700 C 0.44007 0.41596 0.24974 0.0
C1701 C 0.40663 0.45776 0.26876 0.0
C1702 C 0.41987 0.43737 0.28263 0.0
H1703 H 0.40779 0.46563 0.24233 0.0
H1704 H 0.39035 0.48374 0.27039 0.0
S1705 S 0.47565 0.34747 0.28178 0.0
N1706 N 0.47152 0.36041 0.26208 0.0
N1707 N 0.45288 0.38028 0.29242 0.0
C1708 C 0.44053 0.40355 0.27992 0.0
C1709 C 0.45056 0.39275 0.26347 0.0
C1710 C 0.95682 0.15347 0.26955 0.0
C1711 C 0.99064 0.17322 0.28335 0.0
C1712 C 0.97723 0.16384 0.25332 0.0
C1713 C 0.03225 0.19374 0.25029 0.0
H1714 H 0.91424 0.13145 0.27125 0.0
H1715 H 0.94952 0.14924 0.24307 0.0
S1716 S 0.1379 0.25105 0.28213 0.0
N1717 N 0.08219 0.22203 0.29286 0.0
N1718 N 0.12012 0.2403 0.26247 0.0
C1719 C 0.06651 0.21165 0.26397 0.0
C1720 C 0.04581 0.20172 0.28047 0.0
C1721 C 0.86062 0.80393 0.26975 0.0
C1722 C 0.84694 0.82392 0.28355 0.0
C1723 C 0.84917 0.81314 0.25355 0.0
C1724 C 0.824 0.84305 0.25053 0.0
H1725 H 0.87854 0.77941 0.27147 0.0
H1726 H 0.85903 0.79557 0.24333 0.0
S1727 S 0.78443 0.90827 0.28234 0.0
N1728 N 0.80974 0.87782 0.29305 0.0
N1729 N 0.78912 0.89555 0.26268 0.0
C1730 C 0.81242 0.86532 0.26417 0.0
C1731 C 0.82364 0.85561 0.28065 0.0
C1732 C 0.17023 0.96854 0.28006 0.0
C1733 C 0.18938 0.02274 0.28328 0.0
C1734 C 0.15879 0.94809 0.26387 0.0
C1735 C 0.16634 0.98113 0.25023 0.0
H1736 H 0.16525 0.94174 0.29012 0.0
H1737 H 0.14585 0.90655 0.26198 0.0
S1738 S 0.21066 0.1249 0.25202 0.0
N1739 N 0.21156 0.10817 0.27153 0.0
N1740 N 0.19044 0.07012 0.24112 0.0
C1741 C 0.18327 0.03496 0.25333 0.0
C1742 C 0.19468 0.05568 0.26984 0.0
C1743 C 0.95541 0.79967 0.77031 0.0
C1744 C 0.98806 0.82552 0.78398 0.0
C1745 C 0.97609 0.80908 0.75416 0.0
C1746 C 0.03016 0.84488 0.75102 0.0
H1747 H 0.914 0.77052 0.77214 0.0
H1748 H 0.94959 0.78703 0.74408 0.0
S1749 S 0.13131 0.9267 0.78239 0.0
N1750 N 0.07651 0.89144 0.79321 0.0
N1751 N 0.11503 0.90906 0.76286 0.0
C1752 C 0.06268 0.87288 0.76449 0.0
C1753 C 0.0417 0.86319 0.78096 0.0
C1754 C 0.15234 0.19988 0.76414 0.0
C1755 C 0.17458 0.18926 0.75027 0.0
C1756 C 0.16187 0.18801 0.78023 0.0
C1757 C 0.19335 0.16443 0.78303 0.0
H1758 H 0.12927 0.21945 0.76262 0.0
H1759 H 0.14555 0.19876 0.79059 0.0
S1760 S 0.25521 0.12276 0.75069 0.0
N1761 N 0.22581 0.14974 0.74026 0.0
N1762 N 0.24293 0.12692 0.77044 0.0
C1763 C 0.21326 0.15088 0.7692 0.0
C1764 C 0.2041 0.16349 0.75284 0.0
C1765 C 0.86623 0.0568 0.76946 0.0
C1766 C 0.84879 0.02252 0.78316 0.0
C1767 C 0.85561 0.03679 0.75323 0.0
C1768 C 0.82766 0.9818 0.75009 0.0
H1769 H 0.88626 0.09933 0.77126 0.0
H1770 H 0.8682 0.06479 0.74305 0.0
S1771 S 0.77872 0.87535 0.78172 0.0
N1772 N 0.80587 0.93085 0.79256 0.0
N1773 N 0.78651 0.89354 0.76206 0.0
C1774 C 0.81259 0.94714 0.76367 0.0
C1775 C 0.82299 0.96746 0.78021 0.0
C1776 C 0.61844 0.49201 0.60299 0.0
C1777 C 0.64947 0.49368 0.61657 0.0
C1778 C 0.64002 0.50523 0.58697 0.0
C1779 C 0.69345 0.52052 0.58386 0.0
H1780 H 0.57774 0.48237 0.60483 0.0
H1781 H 0.61482 0.50472 0.577 0.0
S1782 S 0.79 0.52582 0.61487 0.0
N1783 N 0.7354 0.50791 0.62563 0.0
N1784 N 0.77564 0.53254 0.59553 0.0
C1785 C 0.72418 0.51981 0.59717 0.0
C1786 C 0.70226 0.50646 0.61351 0.0
C1787 C 0.47339 0.17358 0.61379 0.0
C1788 C 0.51311 0.16047 0.61693 0.0
C1789 C 0.46429 0.18626 0.5978 0.0
C1790 C 0.49458 0.18641 0.58425 0.0
H1791 H 0.44799 0.17275 0.62373 0.0
H1792 H 0.43208 0.19424 0.59597 0.0
S1793 S 0.60699 0.16017 0.58601 0.0
N1794 N 0.58557 0.15225 0.60532 0.0
N1795 N 0.56871 0.17612 0.57522 0.0
C1796 C 0.53614 0.17583 0.58731 0.0
C1797 C 0.54536 0.16286 0.60365 0.0
C1798 C 0.8694 0.39104 0.60297 0.0
C1799 C 0.85596 0.35782 0.61689 0.0
C1800 C 0.85801 0.36988 0.58686 0.0
C1801 C 0.83226 0.31471 0.58406 0.0
H1802 H 0.89066 0.43371 0.60448 0.0
H1803 H 0.87085 0.39718 0.5765 0.0
S1804 S 0.7833 0.21047 0.61642 0.0
N1805 N 0.81176 0.26672 0.62688 0.0
N1806 N 0.78988 0.22731 0.59666 0.0
C1807 C 0.81603 0.28101 0.5979 0.0
C1808 C 0.82806 0.3025 0.6143 0.0
C1809 C 0.64177 0.14619 0.08659 0.0
C1810 C 0.69659 0.17736 0.08341 0.0
C1811 C 0.62166 0.13717 0.10281 0.0
C1812 C 0.6557 0.15845 0.11648 0.0
H1813 H 0.61413 0.12734 0.07647 0.0
H1814 H 0.57946 0.11148 0.10466 0.0
S1815 S 0.80173 0.24744 0.11489 0.0
N1816 N 0.78396 0.23319 0.09528 0.0
N1817 N 0.74649 0.21573 0.12577 0.0
C1818 C 0.71032 0.19173 0.11346 0.0
C1819 C 0.7307 0.20136 0.09693 0.0
C1820 C 0.82995 0.52969 0.11234 0.0
C1821 C 0.85463 0.4995 0.1156 0.0
C1822 C 0.81811 0.53779 0.09608 0.0
C1823 C 0.83112 0.51651 0.08246 0.0
H1824 H 0.82079 0.54833 0.12242 0.0
H1825 H 0.80057 0.56256 0.09415 0.0
S1826 S 0.89277 0.43148 0.08437 0.0
N1827 N 0.88853 0.44553 0.10392 0.0
N1828 N 0.86757 0.46153 0.0734 0.0
C1829 C 0.85407 0.48466 0.08561 0.0
C1830 C 0.86547 0.47591 0.10217 0.0
C1831 C 0.52852 0.39023 0.10257 0.0
C1832 C 0.51359 0.35686 0.11649 0.0
C1833 C 0.51726 0.36917 0.08645 0.0
C1834 C 0.49134 0.31401 0.08363 0.0
H1835 H 0.54701 0.43276 0.10414 0.0
H1836 H 0.52783 0.39638 0.07611 0.0
S1837 S 0.44881 0.20989 0.11587 0.0
N1838 N 0.4746 0.26597 0.12637 0.0
N1839 N 0.45458 0.22679 0.09612 0.0
C1840 C 0.47876 0.28041 0.0974 0.0
C1841 C 0.48957 0.30175 0.11382 0.0
C1842 C 0.39655 0.8731 0.93131 0.0
C1843 C 0.36373 0.85182 0.91736 0.0
C1844 C 0.37504 0.86349 0.94736 0.0
C1845 C 0.32 0.83178 0.95009 0.0
H1846 H 0.43884 0.89914 0.9298 0.0
H1847 H 0.40174 0.88223 0.9577 0.0
S1848 S 0.21772 0.76205 0.91779 0.0
N1849 N 0.27384 0.79427 0.90737 0.0
N1850 N 0.23378 0.77587 0.93752 0.0
C1851 C 0.28713 0.80798 0.93631 0.0
C1852 C 0.30893 0.81814 0.91995 0.0
C1853 C 0.16093 0.51849 0.9465 0.0
C1854 C 0.18318 0.48607 0.94978 0.0
C1855 C 0.1499 0.52754 0.93022 0.0
C1856 C 0.16011 0.50397 0.9166 0.0
H1857 H 0.1508 0.53614 0.95664 0.0
H1858 H 0.13174 0.55177 0.92835 0.0
S1859 S 0.2207 0.41792 0.9184 0.0
N1860 N 0.21746 0.43264 0.93795 0.0
N1861 N 0.19591 0.44845 0.90749 0.0
C1862 C 0.18382 0.47274 0.9197 0.0
C1863 C 0.19561 0.46412 0.93624 0.0
C1864 C 0.53693 0.70373 0.91988 0.0
C1865 C 0.5035 0.64918 0.91674 0.0
C1866 C 0.54567 0.7243 0.93605 0.0
C1867 C 0.52157 0.69111 0.94975 0.0
H1868 H 0.55766 0.73081 0.90979 0.0
H1869 H 0.57297 0.76622 0.93784 0.0
S1870 S 0.4268 0.54612 0.9482 0.0
N1871 N 0.44334 0.56301 0.92864 0.0
N1872 N 0.45983 0.60133 0.95902 0.0
C1873 C 0.48631 0.6368 0.94674 0.0
C1874 C 0.47723 0.61592 0.93025 0.0
C1875 C 0.33355 0.52188 0.44181 0.0
C1876 C 0.3166 0.47275 0.44963 0.0
C1877 C 0.35643 0.53214 0.42585 0.0
C1878 C 0.36171 0.49305 0.4172 0.0
H1879 H 0.33048 0.55288 0.44823 0.0
H1880 H 0.36914 0.57032 0.42014 0.0
S1881 S 0.32295 0.35818 0.43237 0.0
N1882 N 0.30725 0.38534 0.44767 0.0
N1883 N 0.34794 0.40361 0.41766 0.0
C1884 C 0.34419 0.44377 0.42489 0.0
C1885 C 0.32226 0.43389 0.44113 0.0
C1886 C 0.53202 0.82714 0.42023 0.0
C1887 C 0.50088 0.85088 0.41711 0.0
C1888 C 0.54111 0.81586 0.43644 0.0
C1889 C 0.51986 0.82845 0.45014 0.0
H1890 H 0.55082 0.81846 0.41009 0.0
H1891 H 0.56685 0.79936 0.43825 0.0
S1892 S 0.43079 0.88549 0.44865 0.0
N1893 N 0.44502 0.88223 0.42904 0.0
N1894 N 0.4625 0.86177 0.45949 0.0
C1895 C 0.48648 0.84974 0.44716 0.0
C1896 C 0.47683 0.86074 0.43064 0.0
C1897 C 0.15668 0.6411 0.44723 0.0
C1898 C 0.18402 0.69611 0.45031 0.0
C1899 C 0.14572 0.62095 0.43102 0.0
C1900 C 0.16105 0.6551 0.4173 0.0
H1901 H 0.1423 0.61323 0.45745 0.0
H1902 H 0.12322 0.5784 0.42928 0.0
S1903 S 0.23782 0.80231 0.41855 0.0
N1904 N 0.22975 0.78428 0.43823 0.0
N1905 N 0.20831 0.7467 0.40779 0.0
C1906 C 0.19041 0.71019 0.42018 0.0
C1907 C 0.20217 0.73065 0.43668 0.0
loop_
_geom_bond_atom_site_label_1
_geom_bond_atom_site_label_2
_geom_bond_distance
_geom_bond_site_symmetry_2
_ccdc_geom_bond_type
Dy0 O4 2.398 . S
Dy0 O5 2.491 . S
Dy0 O6 2.403 . S
Dy0 O7 2.664 . S
Dy0 O11 2.326 . S
Dy0 O15 2.310 . S
Dy0 O16 2.351 . S
C1 O12 1.185 . S
C1 O13 1.355 . S
C2 O4 1.185 . S
C2 O5 1.355 . S
Dy3 O7 2.310 . S
Dy3 O10 2.351 . S
Dy3 O12 2.398 . S
Dy3 O13 2.491 . S
Dy3 O14 2.403 . S
Dy3 O15 2.664 . S
Dy3 O17 2.326 . S
O4 Dy0 2.398 . S
O4 C2 1.185 . S
O5 Dy0 2.491 . S
O5 C2 1.355 . S
O6 Dy0 2.403 . S
O6 C8 1.254 . S
O7 Dy0 2.664 . S
O7 Dy3 2.310 . S
O7 C8 1.268 . S
C8 O6 1.254 . S
C8 O7 1.268 . S
C9 O14 1.254 . S
C9 O15 1.268 . S
O10 Dy3 2.351 . S
O10 C18 1.249 . S
O11 Dy0 2.326 . S
O11 C18 1.267 . S
O12 C1 1.185 . S
O12 Dy3 2.398 . S
O13 C1 1.355 . S
O13 Dy3 2.491 . S
O14 Dy3 2.403 . S
O14 C9 1.254 . S
O15 Dy0 2.310 . S
O15 Dy3 2.664 . S
O15 C9 1.268 . S
O16 Dy0 2.351 . S
O16 C19 1.249 . S
O17 Dy3 2.326 . S
O17 C19 1.267 . S
C18 O10 1.249 . S
C18 O11 1.267 . S
C19 O16 1.249 . S
C19 O17 1.267 . S
Dy20 O24 2.398 . S
Dy20 O25 2.491 . S
Dy20 O26 2.403 . S
Dy20 O27 2.664 . S
Dy20 O31 2.326 . S
Dy20 O35 2.310 . S
Dy20 O36 2.351 . S
C21 O32 1.185 . S
C21 O33 1.355 . S
C22 O24 1.185 . S
C22 O25 1.355 . S
Dy23 O27 2.310 . S
Dy23 O30 2.351 . S
Dy23 O32 2.398 . S
Dy23 O33 2.491 . S
Dy23 O34 2.403 . S
Dy23 O35 2.664 . S
Dy23 O37 2.326 . S
O24 Dy20 2.398 . S
O24 C22 1.185 . S
O25 Dy20 2.491 . S
O25 C22 1.355 . S
O26 Dy20 2.403 . S
O26 C28 1.254 . S
O27 Dy20 2.664 . S
O27 Dy23 2.310 . S
O27 C28 1.268 . S
C28 O26 1.254 . S
C28 O27 1.268 . S
C29 O34 1.254 . S
C29 O35 1.268 . S
O30 Dy23 2.351 . S
O30 C38 1.249 . S
O31 Dy20 2.326 . S
O31 C38 1.267 . S
O32 C21 1.185 . S
O32 Dy23 2.398 . S
O33 C21 1.355 . S
O33 Dy23 2.491 . S
O34 Dy23 2.403 . S
O34 C29 1.254 . S
O35 Dy20 2.310 . S
O35 Dy23 2.664 . S
O35 C29 1.268 . S
O36 Dy20 2.351 . S
O36 C39 1.249 . S
O37 Dy23 2.326 . S
O37 C39 1.267 . S
C38 O30 1.249 . S
C38 O31 1.267 . S
C39 O36 1.249 . S
C39 O37 1.267 . S
Dy40 O44 2.398 . S
Dy40 O45 2.491 . S
Dy40 O46 2.403 . S
Dy40 O47 2.664 . S
Dy40 O51 2.326 . S
Dy40 O55 2.310 . S
Dy40 O56 2.351 . S
C41 O52 1.185 . S
C41 O53 1.355 . S
C42 O44 1.185 . S
C42 O45 1.355 . S
Dy43 O47 2.310 . S
Dy43 O50 2.351 . S
Dy43 O52 2.398 . S
Dy43 O53 2.491 . S
Dy43 O54 2.403 . S
Dy43 O55 2.664 . S
Dy43 O57 2.326 . S
O44 Dy40 2.398 . S
O44 C42 1.185 . S
O45 Dy40 2.491 . S
O45 C42 1.355 . S
O46 Dy40 2.403 . S
O46 C48 1.254 . S
O47 Dy40 2.664 . S
O47 Dy43 2.310 . S
O47 C48 1.268 . S
C48 O46 1.254 . S
C48 O47 1.268 . S
C49 O54 1.254 . S
C49 O55 1.268 . S
O50 Dy43 2.351 . S
O50 C58 1.249 . S
O51 Dy40 2.326 . S
O51 C58 1.267 . S
O52 C41 1.185 . S
O52 Dy43 2.398 . S
O53 C41 1.355 . S
O53 Dy43 2.491 . S
O54 Dy43 2.403 . S
O54 C49 1.254 . S
O55 Dy40 2.310 . S
O55 Dy43 2.664 . S
O55 C49 1.268 . S
O56 Dy40 2.351 . S
O56 C59 1.249 . S
O57 Dy43 2.326 . S
O57 C59 1.267 . S
C58 O50 1.249 . S
C58 O51 1.267 . S
C59 O56 1.249 . S
C59 O57 1.267 . S
Dy60 O64 2.398 . S
Dy60 O65 2.491 . S
Dy60 O66 2.403 . S
Dy60 O67 2.664 . S
Dy60 O71 2.326 . S
Dy60 O75 2.310 . S
Dy60 O76 2.351 . S
C61 O72 1.185 . S
C61 O73 1.355 . S
C62 O64 1.185 . S
C62 O65 1.355 . S
Dy63 O67 2.310 . S
Dy63 O70 2.351 . S
Dy63 O72 2.398 . S
Dy63 O73 2.491 . S
Dy63 O74 2.403 . S
Dy63 O75 2.664 . S
Dy63 O77 2.326 . S
O64 Dy60 2.398 . S
O64 C62 1.185 . S
O65 Dy60 2.491 . S
O65 C62 1.355 . S
O66 Dy60 2.403 . S
O66 C68 1.254 . S
O67 Dy60 2.664 . S
O67 Dy63 2.310 . S
O67 C68 1.268 . S
C68 O66 1.254 . S
C68 O67 1.268 . S
C69 O74 1.254 . S
C69 O75 1.268 . S
O70 Dy63 2.351 . S
O70 C78 1.249 . S
O71 Dy60 2.326 . S
O71 C78 1.267 . S
O72 C61 1.185 . S
O72 Dy63 2.398 . S
O73 C61 1.355 . S
O73 Dy63 2.491 . S
O74 Dy63 2.403 . S
O74 C69 1.254 . S
O75 Dy60 2.310 . S
O75 Dy63 2.664 . S
O75 C69 1.268 . S
O76 Dy60 2.351 . S
O76 C79 1.249 . S
O77 Dy63 2.326 . S
O77 C79 1.267 . S
C78 O70 1.249 . S
C78 O71 1.267 . S
C79 O76 1.249 . S
C79 O77 1.267 . S
Dy80 O84 2.398 . S
Dy80 O85 2.491 . S
Dy80 O86 2.403 . S
Dy80 O87 2.664 . S
Dy80 O91 2.326 . S
Dy80 O95 2.310 . S
Dy80 O96 2.351 . S
C81 O92 1.185 . S
C81 O93 1.355 . S
C82 O84 1.185 . S
C82 O85 1.355 . S
Dy83 O87 2.310 . S
Dy83 O90 2.351 . S
Dy83 O92 2.398 . S
Dy83 O93 2.491 . S
Dy83 O94 2.403 . S
Dy83 O95 2.664 . S
Dy83 O97 2.326 . S
O84 Dy80 2.398 . S
O84 C82 1.185 . S
O85 Dy80 2.491 . S
O85 C82 1.355 . S
O86 Dy80 2.403 . S
O86 C88 1.254 . S
O87 Dy80 2.664 . S
O87 Dy83 2.310 . S
O87 C88 1.268 . S
C88 O86 1.254 . S
C88 O87 1.268 . S
C89 O94 1.254 . S
C89 O95 1.268 . S
O90 Dy83 2.351 . S
O90 C98 1.249 . S
O91 Dy80 2.326 . S
O91 C98 1.267 . S
O92 C81 1.185 . S
O92 Dy83 2.398 . S
O93 C81 1.355 . S
O93 Dy83 2.491 . S
O94 Dy83 2.403 . S
O94 C89 1.254 . S
O95 Dy80 2.310 . S
O95 Dy83 2.664 . S
O95 C89 1.268 . S
O96 Dy80 2.351 . S
O96 C99 1.249 . S
O97 Dy83 2.326 . S
O97 C99 1.267 . S
C98 O90 1.249 . S
C98 O91 1.267 . S
C99 O96 1.249 . S
C99 O97 1.267 . S
Dy100 O104 2.398 . S
Dy100 O105 2.491 . S
Dy100 O106 2.403 . S
Dy100 O107 2.664 . S
Dy100 O111 2.326 . S
Dy100 O115 2.310 . S
Dy100 O116 2.351 . S
C101 O112 1.185 . S
C101 O113 1.355 . S
C102 O104 1.185 . S
C102 O105 1.355 . S
Dy103 O107 2.310 . S
Dy103 O110 2.351 . S
Dy103 O112 2.398 . S
Dy103 O113 2.491 . S
Dy103 O114 2.403 . S
Dy103 O115 2.664 . S
Dy103 O117 2.326 . S
O104 Dy100 2.398 . S
O104 C102 1.185 . S
O105 Dy100 2.491 . S
O105 C102 1.355 . S
O106 Dy100 2.403 . S
O106 C108 1.254 . S
O107 Dy100 2.664 . S
O107 Dy103 2.310 . S
O107 C108 1.268 . S
C108 O106 1.254 . S
C108 O107 1.268 . S
C109 O114 1.254 . S
C109 O115 1.268 . S
O110 Dy103 2.351 . S
O110 C118 1.249 . S
O111 Dy100 2.326 . S
O111 C118 1.267 . S
O112 C101 1.185 . S
O112 Dy103 2.398 . S
O113 C101 1.355 . S
O113 Dy103 2.491 . S
O114 Dy103 2.403 . S
O114 C109 1.254 . S
O115 Dy100 2.310 . S
O115 Dy103 2.664 . S
O115 C109 1.268 . S
O116 Dy100 2.351 . S
O116 C119 1.249 . S
O117 Dy103 2.326 . S
O117 C119 1.267 . S
C118 O110 1.249 . S
C118 O111 1.267 . S
C119 O116 1.249 . S
C119 O117 1.267 . S
Dy120 O124 2.398 . S
Dy120 O125 2.491 . S
Dy120 O126 2.403 . S
Dy120 O127 2.664 . S
Dy120 O131 2.326 . S
Dy120 O135 2.310 . S
Dy120 O136 2.351 . S
C121 O132 1.185 . S
C121 O133 1.355 . S
C122 O124 1.185 . S
C122 O125 1.355 . S
Dy123 O127 2.310 . S
Dy123 O130 2.351 . S
Dy123 O132 2.398 . S
Dy123 O133 2.491 . S
Dy123 O134 2.403 . S
Dy123 O135 2.664 . S
Dy123 O137 2.326 . S
O124 Dy120 2.398 . S
O124 C122 1.185 . S
O125 Dy120 2.491 . S
O125 C122 1.355 . S
O126 Dy120 2.403 . S
O126 C128 1.254 . S
O127 Dy120 2.664 . S
O127 Dy123 2.310 . S
O127 C128 1.268 . S
C128 O126 1.254 . S
C128 O127 1.268 . S
C129 O134 1.254 . S
C129 O135 1.268 . S
O130 Dy123 2.351 . S
O130 C138 1.249 . S
O131 Dy120 2.326 . S
O131 C138 1.267 . S
O132 C121 1.185 . S
O132 Dy123 2.398 . S
O133 C121 1.355 . S
O133 Dy123 2.491 . S
O134 Dy123 2.403 . S
O134 C129 1.254 . S
O135 Dy120 2.310 . S
O135 Dy123 2.664 . S
O135 C129 1.268 . S
O136 Dy120 2.351 . S
O136 C139 1.249 . S
O137 Dy123 2.326 . S
O137 C139 1.267 . S
C138 O130 1.249 . S
C138 O131 1.267 . S
C139 O136 1.249 . S
C139 O137 1.267 . S
Dy140 O144 2.398 . S
Dy140 O145 2.491 . S
Dy140 O146 2.403 . S
Dy140 O147 2.664 . S
Dy140 O151 2.326 . S
Dy140 O155 2.310 . S
Dy140 O156 2.351 . S
C141 O152 1.185 . S
C141 O153 1.355 . S
C142 O144 1.185 . S
C142 O145 1.355 . S
Dy143 O147 2.310 . S
Dy143 O150 2.351 . S
Dy143 O152 2.398 . S
Dy143 O153 2.491 . S
Dy143 O154 2.403 . S
Dy143 O155 2.664 . S
Dy143 O157 2.326 . S
O144 Dy140 2.398 . S
O144 C142 1.185 . S
O145 Dy140 2.491 . S
O145 C142 1.355 . S
O146 Dy140 2.403 . S
O146 C148 1.254 . S
O147 Dy140 2.664 . S
O147 Dy143 2.310 . S
O147 C148 1.268 . S
C148 O146 1.254 . S
C148 O147 1.268 . S
C149 O154 1.254 . S
C149 O155 1.268 . S
O150 Dy143 2.351 . S
O150 C158 1.249 . S
O151 Dy140 2.326 . S
O151 C158 1.267 . S
O152 C141 1.185 . S
O152 Dy143 2.398 . S
O153 C141 1.355 . S
O153 Dy143 2.491 . S
O154 Dy143 2.403 . S
O154 C149 1.254 . S
O155 Dy140 2.310 . S
O155 Dy143 2.664 . S
O155 C149 1.268 . S
O156 Dy140 2.351 . S
O156 C159 1.249 . S
O157 Dy143 2.326 . S
O157 C159 1.267 . S
C158 O150 1.249 . S
C158 O151 1.267 . S
C159 O156 1.249 . S
C159 O157 1.267 . S
Dy160 O164 2.398 . S
Dy160 O165 2.491 . S
Dy160 O166 2.403 . S
Dy160 O167 2.664 . S
Dy160 O171 2.326 . S
Dy160 O175 2.310 . S
Dy160 O176 2.351 . S
C161 O172 1.185 . S
C161 O173 1.355 . S
C162 O164 1.185 . S
C162 O165 1.355 . S
Dy163 O167 2.310 . S
Dy163 O170 2.351 . S
Dy163 O172 2.398 . S
Dy163 O173 2.491 . S
Dy163 O174 2.403 . S
Dy163 O175 2.664 . S
Dy163 O177 2.326 . S
O164 Dy160 2.398 . S
O164 C162 1.185 . S
O165 Dy160 2.491 . S
O165 C162 1.355 . S
O166 Dy160 2.403 . S
O166 C168 1.254 . S
O167 Dy160 2.664 . S
O167 Dy163 2.310 . S
O167 C168 1.268 . S
C168 O166 1.254 . S
C168 O167 1.268 . S
C169 O174 1.254 . S
C169 O175 1.268 . S
O170 Dy163 2.351 . S
O170 C178 1.249 . S
O171 Dy160 2.326 . S
O171 C178 1.267 . S
O172 C161 1.185 . S
O172 Dy163 2.398 . S
O173 C161 1.355 . S
O173 Dy163 2.491 . S
O174 Dy163 2.403 . S
O174 C169 1.254 . S
O175 Dy160 2.310 . S
O175 Dy163 2.664 . S
O175 C169 1.268 . S
O176 Dy160 2.351 . S
O176 C179 1.249 . S
O177 Dy163 2.326 . S
O177 C179 1.267 . S
C178 O170 1.249 . S
C178 O171 1.267 . S
C179 O176 1.249 . S
C179 O177 1.267 . S
Dy180 O184 2.398 . S
Dy180 O185 2.491 . S
Dy180 O186 2.403 . S
Dy180 O187 2.664 . S
Dy180 O191 2.326 . S
Dy180 O195 2.310 . S
Dy180 O196 2.351 . S
C181 O192 1.185 . S
C181 O193 1.355 . S
C182 O184 1.185 . S
C182 O185 1.355 . S
Dy183 O187 2.310 . S
Dy183 O190 2.351 . S
Dy183 O192 2.398 . S
Dy183 O193 2.491 . S
Dy183 O194 2.403 . S
Dy183 O195 2.664 . S
Dy183 O197 2.326 . S
O184 Dy180 2.398 . S
O184 C182 1.185 . S
O185 Dy180 2.491 . S
O185 C182 1.355 . S
O186 Dy180 2.403 . S
O186 C188 1.254 . S
O187 Dy180 2.664 . S
O187 Dy183 2.310 . S
O187 C188 1.268 . S
C188 O186 1.254 . S
C188 O187 1.268 . S
C189 O194 1.254 . S
C189 O195 1.268 . S
O190 Dy183 2.351 . S
O190 C198 1.249 . S
O191 Dy180 2.326 . S
O191 C198 1.267 . S
O192 C181 1.185 . S
O192 Dy183 2.398 . S
O193 C181 1.355 . S
O193 Dy183 2.491 . S
O194 Dy183 2.403 . S
O194 C189 1.254 . S
O195 Dy180 2.310 . S
O195 Dy183 2.664 . S
O195 C189 1.268 . S
O196 Dy180 2.351 . S
O196 C199 1.249 . S
O197 Dy183 2.326 . S
O197 C199 1.267 . S
C198 O190 1.249 . S
C198 O191 1.267 . S
C199 O196 1.249 . S
C199 O197 1.267 . S
Dy200 O204 2.398 . S
Dy200 O205 2.491 . S
Dy200 O206 2.403 . S
Dy200 O207 2.664 . S
Dy200 O211 2.326 . S
Dy200 O215 2.310 . S
Dy200 O216 2.351 . S
C201 O212 1.185 . S
C201 O213 1.355 . S
C202 O204 1.185 . S
C202 O205 1.355 . S
Dy203 O207 2.310 . S
Dy203 O210 2.351 . S
Dy203 O212 2.398 . S
Dy203 O213 2.491 . S
Dy203 O214 2.403 . S
Dy203 O215 2.664 . S
Dy203 O217 2.326 . S
O204 Dy200 2.398 . S
O204 C202 1.185 . S
O205 Dy200 2.491 . S
O205 C202 1.355 . S
O206 Dy200 2.403 . S
O206 C208 1.254 . S
O207 Dy200 2.664 . S
O207 Dy203 2.310 . S
O207 C208 1.268 . S
C208 O206 1.254 . S
C208 O207 1.268 . S
C209 O214 1.254 . S
C209 O215 1.268 . S
O210 Dy203 2.351 . S
O210 C218 1.249 . S
O211 Dy200 2.326 . S
O211 C218 1.267 . S
O212 C201 1.185 . S
O212 Dy203 2.398 . S
O213 C201 1.355 . S
O213 Dy203 2.491 . S
O214 Dy203 2.403 . S
O214 C209 1.254 . S
O215 Dy200 2.310 . S
O215 Dy203 2.664 . S
O215 C209 1.268 . S
O216 Dy200 2.351 . S
O216 C219 1.249 . S
O217 Dy203 2.326 . S
O217 C219 1.267 . S
C218 O210 1.249 . S
C218 O211 1.267 . S
C219 O216 1.249 . S
C219 O217 1.267 . S
Dy220 O224 2.398 . S
Dy220 O225 2.491 . S
Dy220 O226 2.403 . S
Dy220 O227 2.664 . S
Dy220 O231 2.326 . S
Dy220 O235 2.310 . S
Dy220 O236 2.351 . S
C221 O232 1.185 . S
C221 O233 1.355 . S
C222 O224 1.185 . S
C222 O225 1.355 . S
Dy223 O227 2.310 . S
Dy223 O230 2.351 . S
Dy223 O232 2.398 . S
Dy223 O233 2.491 . S
Dy223 O234 2.403 . S
Dy223 O235 2.664 . S
Dy223 O237 2.326 . S
O224 Dy220 2.398 . S
O224 C222 1.185 . S
O225 Dy220 2.491 . S
O225 C222 1.355 . S
O226 Dy220 2.403 . S
O226 C228 1.254 . S
O227 Dy220 2.664 . S
O227 Dy223 2.310 . S
O227 C228 1.268 . S
C228 O226 1.254 . S
C228 O227 1.268 . S
C229 O234 1.254 . S
C229 O235 1.268 . S
O230 Dy223 2.351 . S
O230 C238 1.249 . S
O231 Dy220 2.326 . S
O231 C238 1.267 . S
O232 C221 1.185 . S
O232 Dy223 2.398 . S
O233 C221 1.355 . S
O233 Dy223 2.491 . S
O234 Dy223 2.403 . S
O234 C229 1.254 . S
O235 Dy220 2.310 . S
O235 Dy223 2.664 . S
O235 C229 1.268 . S
O236 Dy220 2.351 . S
O236 C239 1.249 . S
O237 Dy223 2.326 . S
O237 C239 1.267 . S
C238 O230 1.249 . S
C238 O231 1.267 . S
C239 O236 1.249 . S
C239 O237 1.267 . S
Dy240 O244 2.398 . S
Dy240 O245 2.491 . S
Dy240 O246 2.403 . S
Dy240 O247 2.664 . S
Dy240 O251 2.326 . S
Dy240 O255 2.310 . S
Dy240 O256 2.351 . S
C241 O252 1.185 . S
C241 O253 1.355 . S
C242 O244 1.185 . S
C242 O245 1.355 . S
Dy243 O247 2.310 . S
Dy243 O250 2.351 . S
Dy243 O252 2.398 . S
Dy243 O253 2.491 . S
Dy243 O254 2.403 . S
Dy243 O255 2.664 . S
Dy243 O257 2.326 . S
O244 Dy240 2.398 . S
O244 C242 1.185 . S
O245 Dy240 2.491 . S
O245 C242 1.355 . S
O246 Dy240 2.403 . S
O246 C248 1.254 . S
O247 Dy240 2.664 . S
O247 Dy243 2.310 . S
O247 C248 1.268 . S
C248 O246 1.254 . S
C248 O247 1.268 . S
C249 O254 1.254 . S
C249 O255 1.268 . S
O250 Dy243 2.351 . S
O250 C258 1.249 . S
O251 Dy240 2.326 . S
O251 C258 1.267 . S
O252 C241 1.185 . S
O252 Dy243 2.398 . S
O253 C241 1.355 . S
O253 Dy243 2.491 . S
O254 Dy243 2.403 . S
O254 C249 1.254 . S
O255 Dy240 2.310 . S
O255 Dy243 2.664 . S
O255 C249 1.268 . S
O256 Dy240 2.351 . S
O256 C259 1.249 . S
O257 Dy243 2.326 . S
O257 C259 1.267 . S
C258 O250 1.249 . S
C258 O251 1.267 . S
C259 O256 1.249 . S
C259 O257 1.267 . S
Dy260 O264 2.398 . S
Dy260 O265 2.491 . S
Dy260 O266 2.403 . S
Dy260 O267 2.664 . S
Dy260 O271 2.326 . S
Dy260 O275 2.310 . S
Dy260 O276 2.351 . S
C261 O272 1.185 . S
C261 O273 1.355 . S
C262 O264 1.185 . S
C262 O265 1.355 . S
Dy263 O267 2.310 . S
Dy263 O270 2.351 . S
Dy263 O272 2.398 . S
Dy263 O273 2.491 . S
Dy263 O274 2.403 . S
Dy263 O275 2.664 . S
Dy263 O277 2.326 . S
O264 Dy260 2.398 . S
O264 C262 1.185 . S
O265 Dy260 2.491 . S
O265 C262 1.355 . S
O266 Dy260 2.403 . S
O266 C268 1.254 . S
O267 Dy260 2.664 . S
O267 Dy263 2.310 . S
O267 C268 1.268 . S
C268 O266 1.254 . S
C268 O267 1.268 . S
C269 O274 1.254 . S
C269 O275 1.268 . S
O270 Dy263 2.351 . S
O270 C278 1.249 . S
O271 Dy260 2.326 . S
O271 C278 1.267 . S
O272 C261 1.185 . S
O272 Dy263 2.398 . S
O273 C261 1.355 . S
O273 Dy263 2.491 . S
O274 Dy263 2.403 . S
O274 C269 1.254 . S
O275 Dy260 2.310 . S
O275 Dy263 2.664 . S
O275 C269 1.268 . S
O276 Dy260 2.351 . S
O276 C279 1.249 . S
O277 Dy263 2.326 . S
O277 C279 1.267 . S
C278 O270 1.249 . S
C278 O271 1.267 . S
C279 O276 1.249 . S
C279 O277 1.267 . S
Dy280 O284 2.398 . S
Dy280 O285 2.491 . S
Dy280 O286 2.403 . S
Dy280 O287 2.664 . S
Dy280 O291 2.326 . S
Dy280 O295 2.310 . S
Dy280 O296 2.351 . S
C281 O292 1.185 . S
C281 O293 1.355 . S
C282 O284 1.185 . S
C282 O285 1.355 . S
Dy283 O287 2.310 . S
Dy283 O290 2.351 . S
Dy283 O292 2.398 . S
Dy283 O293 2.491 . S
Dy283 O294 2.403 . S
Dy283 O295 2.664 . S
Dy283 O297 2.326 . S
O284 Dy280 2.398 . S
O284 C282 1.185 . S
O285 Dy280 2.491 . S
O285 C282 1.355 . S
O286 Dy280 2.403 . S
O286 C288 1.254 . S
O287 Dy280 2.664 . S
O287 Dy283 2.310 . S
O287 C288 1.268 . S
C288 O286 1.254 . S
C288 O287 1.268 . S
C289 O294 1.254 . S
C289 O295 1.268 . S
O290 Dy283 2.351 . S
O290 C298 1.249 . S
O291 Dy280 2.326 . S
O291 C298 1.267 . S
O292 C281 1.185 . S
O292 Dy283 2.398 . S
O293 C281 1.355 . S
O293 Dy283 2.491 . S
O294 Dy283 2.403 . S
O294 C289 1.254 . S
O295 Dy280 2.310 . S
O295 Dy283 2.664 . S
O295 C289 1.268 . S
O296 Dy280 2.351 . S
O296 C299 1.249 . S
O297 Dy283 2.326 . S
O297 C299 1.267 . S
C298 O290 1.249 . S
C298 O291 1.267 . S
C299 O296 1.249 . S
C299 O297 1.267 . S
Dy300 O304 2.398 . S
Dy300 O305 2.491 . S
Dy300 O306 2.403 . S
Dy300 O307 2.664 . S
Dy300 O311 2.326 . S
Dy300 O315 2.310 . S
Dy300 O316 2.351 . S
C301 O312 1.185 . S
C301 O313 1.355 . S
C302 O304 1.185 . S
C302 O305 1.355 . S
Dy303 O307 2.310 . S
Dy303 O310 2.351 . S
Dy303 O312 2.398 . S
Dy303 O313 2.491 . S
Dy303 O314 2.403 . S
Dy303 O315 2.664 . S
Dy303 O317 2.326 . S
O304 Dy300 2.398 . S
O304 C302 1.185 . S
O305 Dy300 2.491 . S
O305 C302 1.355 . S
O306 Dy300 2.403 . S
O306 C308 1.254 . S
O307 Dy300 2.664 . S
O307 Dy303 2.310 . S
O307 C308 1.268 . S
C308 O306 1.254 . S
C308 O307 1.268 . S
C309 O314 1.254 . S
C309 O315 1.268 . S
O310 Dy303 2.351 . S
O310 C318 1.249 . S
O311 Dy300 2.326 . S
O311 C318 1.267 . S
O312 C301 1.185 . S
O312 Dy303 2.398 . S
O313 C301 1.355 . S
O313 Dy303 2.491 . S
O314 Dy303 2.403 . S
O314 C309 1.254 . S
O315 Dy300 2.310 . S
O315 Dy303 2.664 . S
O315 C309 1.268 . S
O316 Dy300 2.351 . S
O316 C319 1.249 . S
O317 Dy303 2.326 . S
O317 C319 1.267 . S
C318 O310 1.249 . S
C318 O311 1.267 . S
C319 O316 1.249 . S
C319 O317 1.267 . S
Dy320 O324 2.398 . S
Dy320 O325 2.491 . S
Dy320 O326 2.403 . S
Dy320 O327 2.664 . S
Dy320 O331 2.326 . S
Dy320 O335 2.310 . S
Dy320 O336 2.351 . S
C321 O332 1.185 . S
C321 O333 1.355 . S
C322 O324 1.185 . S
C322 O325 1.355 . S
Dy323 O327 2.310 . S
Dy323 O330 2.351 . S
Dy323 O332 2.398 . S
Dy323 O333 2.491 . S
Dy323 O334 2.403 . S
Dy323 O335 2.664 . S
Dy323 O337 2.326 . S
O324 Dy320 2.398 . S
O324 C322 1.185 . S
O325 Dy320 2.491 . S
O325 C322 1.355 . S
O326 Dy320 2.403 . S
O326 C328 1.254 . S
O327 Dy320 2.664 . S
O327 Dy323 2.310 . S
O327 C328 1.268 . S
C328 O326 1.254 . S
C328 O327 1.268 . S
C329 O334 1.254 . S
C329 O335 1.268 . S
O330 Dy323 2.351 . S
O330 C338 1.249 . S
O331 Dy320 2.326 . S
O331 C338 1.267 . S
O332 C321 1.185 . S
O332 Dy323 2.398 . S
O333 C321 1.355 . S
O333 Dy323 2.491 . S
O334 Dy323 2.403 . S
O334 C329 1.254 . S
O335 Dy320 2.310 . S
O335 Dy323 2.664 . S
O335 C329 1.268 . S
O336 Dy320 2.351 . S
O336 C339 1.249 . S
O337 Dy323 2.326 . S
O337 C339 1.267 . S
C338 O330 1.249 . S
C338 O331 1.267 . S
C339 O336 1.249 . S
C339 O337 1.267 . S
Dy340 O344 2.398 . S
Dy340 O345 2.491 . S
Dy340 O346 2.403 . S
Dy340 O347 2.664 . S
Dy340 O351 2.326 . S
Dy340 O355 2.310 . S
Dy340 O356 2.351 . S
C341 O352 1.185 . S
C341 O353 1.355 . S
C342 O344 1.185 . S
C342 O345 1.355 . S
Dy343 O347 2.310 . S
Dy343 O350 2.351 . S
Dy343 O352 2.398 . S
Dy343 O353 2.491 . S
Dy343 O354 2.403 . S
Dy343 O355 2.664 . S
Dy343 O357 2.326 . S
O344 Dy340 2.398 . S
O344 C342 1.185 . S
O345 Dy340 2.491 . S
O345 C342 1.355 . S
O346 Dy340 2.403 . S
O346 C348 1.254 . S
O347 Dy340 2.664 . S
O347 Dy343 2.310 . S
O347 C348 1.268 . S
C348 O346 1.254 . S
C348 O347 1.268 . S
C349 O354 1.254 . S
C349 O355 1.268 . S
O350 Dy343 2.351 . S
O350 C358 1.249 . S
O351 Dy340 2.326 . S
O351 C358 1.267 . S
O352 C341 1.185 . S
O352 Dy343 2.398 . S
O353 C341 1.355 . S
O353 Dy343 2.491 . S
O354 Dy343 2.403 . S
O354 C349 1.254 . S
O355 Dy340 2.310 . S
O355 Dy343 2.664 . S
O355 C349 1.268 . S
O356 Dy340 2.351 . S
O356 C359 1.249 . S
O357 Dy343 2.326 . S
O357 C359 1.267 . S
C358 O350 1.249 . S
C358 O351 1.267 . S
C359 O356 1.249 . S
C359 O357 1.267 . S
Dy360 O364 2.398 . S
Dy360 O365 2.491 . S
Dy360 O366 2.403 . S
Dy360 O367 2.664 . S
Dy360 O371 2.326 . S
Dy360 O375 2.310 . S
Dy360 O376 2.351 . S
C361 O372 1.185 . S
C361 O373 1.355 . S
C362 O364 1.185 . S
C362 O365 1.355 . S
Dy363 O367 2.310 . S
Dy363 O370 2.351 . S
Dy363 O372 2.398 . S
Dy363 O373 2.491 . S
Dy363 O374 2.403 . S
Dy363 O375 2.664 . S
Dy363 O377 2.326 . S
O364 Dy360 2.398 . S
O364 C362 1.185 . S
O365 Dy360 2.491 . S
O365 C362 1.355 . S
O366 Dy360 2.403 . S
O366 C368 1.254 . S
O367 Dy360 2.664 . S
O367 Dy363 2.310 . S
O367 C368 1.268 . S
C368 O366 1.254 . S
C368 O367 1.268 . S
C369 O374 1.254 . S
C369 O375 1.268 . S
O370 Dy363 2.351 . S
O370 C378 1.249 . S
O371 Dy360 2.326 . S
O371 C378 1.267 . S
O372 C361 1.185 . S
O372 Dy363 2.398 . S
O373 C361 1.355 . S
O373 Dy363 2.491 . S
O374 Dy363 2.403 . S
O374 C369 1.254 . S
O375 Dy360 2.310 . S
O375 Dy363 2.664 . S
O375 C369 1.268 . S
O376 Dy360 2.351 . S
O376 C379 1.249 . S
O377 Dy363 2.326 . S
O377 C379 1.267 . S
C378 O370 1.249 . S
C378 O371 1.267 . S
C379 O376 1.249 . S
C379 O377 1.267 . S
Dy380 O384 2.398 . S
Dy380 O385 2.491 . S
Dy380 O386 2.403 . S
Dy380 O387 2.664 . S
Dy380 O391 2.326 . S
Dy380 O395 2.310 . S
Dy380 O396 2.351 . S
C381 O392 1.185 . S
C381 O393 1.355 . S
C382 O384 1.185 . S
C382 O385 1.355 . S
Dy383 O387 2.310 . S
Dy383 O390 2.351 . S
Dy383 O392 2.398 . S
Dy383 O393 2.491 . S
Dy383 O394 2.403 . S
Dy383 O395 2.664 . S
Dy383 O397 2.326 . S
O384 Dy380 2.398 . S
O384 C382 1.185 . S
O385 Dy380 2.491 . S
O385 C382 1.355 . S
O386 Dy380 2.403 . S
O386 C388 1.254 . S
O387 Dy380 2.664 . S
O387 Dy383 2.310 . S
O387 C388 1.268 . S
C388 O386 1.254 . S
C388 O387 1.268 . S
C389 O394 1.254 . S
C389 O395 1.268 . S
O390 Dy383 2.351 . S
O390 C398 1.249 . S
O391 Dy380 2.326 . S
O391 C398 1.267 . S
O392 C381 1.185 . S
O392 Dy383 2.398 . S
O393 C381 1.355 . S
O393 Dy383 2.491 . S
O394 Dy383 2.403 . S
O394 C389 1.254 . S
O395 Dy380 2.310 . S
O395 Dy383 2.664 . S
O395 C389 1.268 . S
O396 Dy380 2.351 . S
O396 C399 1.249 . S
O397 Dy383 2.326 . S
O397 C399 1.267 . S
C398 O390 1.249 . S
C398 O391 1.267 . S
C399 O396 1.249 . S
C399 O397 1.267 . S
Dy400 O404 2.398 . S
Dy400 O405 2.491 . S
Dy400 O406 2.403 . S
Dy400 O407 2.664 . S
Dy400 O411 2.326 . S
Dy400 O415 2.310 . S
Dy400 O416 2.351 . S
C401 O412 1.185 . S
C401 O413 1.355 . S
C402 O404 1.185 . S
C402 O405 1.355 . S
Dy403 O407 2.310 . S
Dy403 O410 2.351 . S
Dy403 O412 2.398 . S
Dy403 O413 2.491 . S
Dy403 O414 2.403 . S
Dy403 O415 2.664 . S
Dy403 O417 2.326 . S
O404 Dy400 2.398 . S
O404 C402 1.185 . S
O405 Dy400 2.491 . S
O405 C402 1.355 . S
O406 Dy400 2.403 . S
O406 C408 1.254 . S
O407 Dy400 2.664 . S
O407 Dy403 2.310 . S
O407 C408 1.268 . S
C408 O406 1.254 . S
C408 O407 1.268 . S
C409 O414 1.254 . S
C409 O415 1.268 . S
O410 Dy403 2.351 . S
O410 C418 1.249 . S
O411 Dy400 2.326 . S
O411 C418 1.267 . S
O412 C401 1.185 . S
O412 Dy403 2.398 . S
O413 C401 1.355 . S
O413 Dy403 2.491 . S
O414 Dy403 2.403 . S
O414 C409 1.254 . S
O415 Dy400 2.310 . S
O415 Dy403 2.664 . S
O415 C409 1.268 . S
O416 Dy400 2.351 . S
O416 C419 1.249 . S
O417 Dy403 2.326 . S
O417 C419 1.267 . S
C418 O410 1.249 . S
C418 O411 1.267 . S
C419 O416 1.249 . S
C419 O417 1.267 . S
Dy420 O424 2.398 . S
Dy420 O425 2.491 . S
Dy420 O426 2.403 . S
Dy420 O427 2.664 1_554 S
Dy420 O431 2.326 . S
Dy420 O435 2.310 . S
Dy420 O436 2.351 . S
C421 O432 1.185 . S
C421 O433 1.355 . S
C422 O424 1.185 . S
C422 O425 1.355 . S
Dy423 O427 2.310 . S
Dy423 O430 2.351 . S
Dy423 O432 2.398 . S
Dy423 O433 2.491 . S
Dy423 O434 2.403 . S
Dy423 O435 2.664 1_556 S
Dy423 O437 2.326 . S
O424 Dy420 2.398 . S
O424 C422 1.185 . S
O425 Dy420 2.491 . S
O425 C422 1.355 . S
O426 Dy420 2.403 . S
O426 C428 1.254 . S
O427 Dy420 2.664 1_556 S
O427 Dy423 2.310 . S
O427 C428 1.268 1_556 S
C428 O426 1.254 . S
C428 O427 1.268 1_554 S
C429 O434 1.254 . S
C429 O435 1.268 1_556 S
O430 Dy423 2.351 . S
O430 C438 1.249 1_556 S
O431 Dy420 2.326 . S
O431 C438 1.267 . S
O432 C421 1.185 . S
O432 Dy423 2.398 . S
O433 C421 1.355 . S
O433 Dy423 2.491 . S
O434 Dy423 2.403 . S
O434 C429 1.254 . S
O435 Dy420 2.310 . S
O435 Dy423 2.664 1_554 S
O435 C429 1.268 1_554 S
O436 Dy420 2.351 . S
O436 C439 1.249 1_554 S
O437 Dy423 2.326 . S
O437 C439 1.267 . S
C438 O430 1.249 1_554 S
C438 O431 1.267 . S
C439 O436 1.249 1_556 S
C439 O437 1.267 . S
Dy440 O444 2.398 . S
Dy440 O445 2.491 . S
Dy440 O446 2.403 . S
Dy440 O447 2.664 1_554 S
Dy440 O451 2.326 . S
Dy440 O455 2.310 . S
Dy440 O456 2.351 . S
C441 O452 1.185 . S
C441 O453 1.355 . S
C442 O444 1.185 . S
C442 O445 1.355 . S
Dy443 O447 2.310 . S
Dy443 O450 2.351 . S
Dy443 O452 2.398 . S
Dy443 O453 2.491 . S
Dy443 O454 2.403 . S
Dy443 O455 2.664 1_556 S
Dy443 O457 2.326 . S
O444 Dy440 2.398 . S
O444 C442 1.185 . S
O445 Dy440 2.491 . S
O445 C442 1.355 . S
O446 Dy440 2.403 . S
O446 C448 1.254 . S
O447 Dy440 2.664 1_556 S
O447 Dy443 2.310 . S
O447 C448 1.268 1_556 S
C448 O446 1.254 . S
C448 O447 1.268 1_554 S
C449 O454 1.254 . S
C449 O455 1.268 1_556 S
O450 Dy443 2.351 . S
O450 C458 1.249 1_556 S
O451 Dy440 2.326 . S
O451 C458 1.267 . S
O452 C441 1.185 . S
O452 Dy443 2.398 . S
O453 C441 1.355 . S
O453 Dy443 2.491 . S
O454 Dy443 2.403 . S
O454 C449 1.254 . S
O455 Dy440 2.310 . S
O455 Dy443 2.664 1_554 S
O455 C449 1.268 1_554 S
O456 Dy440 2.351 . S
O456 C459 1.249 1_554 S
O457 Dy443 2.326 . S
O457 C459 1.267 . S
C458 O450 1.249 1_554 S
C458 O451 1.267 . S
C459 O456 1.249 1_556 S
C459 O457 1.267 . S
Dy460 O464 2.398 . S
Dy460 O465 2.491 . S
Dy460 O466 2.403 . S
Dy460 O467 2.664 1_554 S
Dy460 O471 2.326 . S
Dy460 O475 2.310 . S
Dy460 O476 2.351 . S
C461 O472 1.185 . S
C461 O473 1.355 . S
C462 O464 1.185 . S
C462 O465 1.355 . S
Dy463 O467 2.310 . S
Dy463 O470 2.351 . S
Dy463 O472 2.398 . S
Dy463 O473 2.491 . S
Dy463 O474 2.403 . S
Dy463 O475 2.664 1_556 S
Dy463 O477 2.326 . S
O464 Dy460 2.398 . S
O464 C462 1.185 . S
O465 Dy460 2.491 . S
O465 C462 1.355 . S
O466 Dy460 2.403 . S
O466 C468 1.254 . S
O467 Dy460 2.664 1_556 S
O467 Dy463 2.310 . S
O467 C468 1.268 1_556 S
C468 O466 1.254 . S
C468 O467 1.268 1_554 S
C469 O474 1.254 . S
C469 O475 1.268 1_556 S
O470 Dy463 2.351 . S
O470 C478 1.249 1_556 S
O471 Dy460 2.326 . S
O471 C478 1.267 . S
O472 C461 1.185 . S
O472 Dy463 2.398 . S
O473 C461 1.355 . S
O473 Dy463 2.491 . S
O474 Dy463 2.403 . S
O474 C469 1.254 . S
O475 Dy460 2.310 . S
O475 Dy463 2.664 1_554 S
O475 C469 1.268 1_554 S
O476 Dy460 2.351 . S
O476 C479 1.249 1_554 S
O477 Dy463 2.326 . S
O477 C479 1.267 . S
C478 O470 1.249 1_554 S
C478 O471 1.267 . S
C479 O476 1.249 1_556 S
C479 O477 1.267 . S
Dy480 O484 2.398 . S
Dy480 O485 2.491 . S
Dy480 O486 2.403 . S
Dy480 O487 2.664 . S
Dy480 O491 2.326 . S
Dy480 O495 2.310 . S
Dy480 O496 2.351 . S
C481 O492 1.185 . S
C481 O493 1.355 . S
C482 O484 1.185 . S
C482 O485 1.355 . S
Dy483 O487 2.310 . S
Dy483 O490 2.351 . S
Dy483 O492 2.398 . S
Dy483 O493 2.491 . S
Dy483 O494 2.403 . S
Dy483 O495 2.664 . S
Dy483 O497 2.326 . S
O484 Dy480 2.398 . S
O484 C482 1.185 . S
O485 Dy480 2.491 . S
O485 C482 1.355 . S
O486 Dy480 2.403 . S
O486 C488 1.254 . S
O487 Dy480 2.664 . S
O487 Dy483 2.310 . S
O487 C488 1.268 . S
C488 O486 1.254 . S
C488 O487 1.268 . S
C489 O494 1.254 . S
C489 O495 1.268 . S
O490 Dy483 2.351 . S
O490 C498 1.249 . S
O491 Dy480 2.326 . S
O491 C498 1.267 . S
O492 C481 1.185 . S
O492 Dy483 2.398 . S
O493 C481 1.355 . S
O493 Dy483 2.491 . S
O494 Dy483 2.403 . S
O494 C489 1.254 . S
O495 Dy480 2.310 . S
O495 Dy483 2.664 . S
O495 C489 1.268 . S
O496 Dy480 2.351 . S
O496 C499 1.249 . S
O497 Dy483 2.326 . S
O497 C499 1.267 . S
C498 O490 1.249 . S
C498 O491 1.267 . S
C499 O496 1.249 . S
C499 O497 1.267 . S
Dy500 O504 2.398 . S
Dy500 O505 2.491 . S
Dy500 O506 2.403 . S
Dy500 O507 2.664 . S
Dy500 O511 2.326 . S
Dy500 O515 2.310 . S
Dy500 O516 2.351 . S
C501 O512 1.185 . S
C501 O513 1.355 . S
C502 O504 1.185 . S
C502 O505 1.355 . S
Dy503 O507 2.310 . S
Dy503 O510 2.351 . S
Dy503 O512 2.398 . S
Dy503 O513 2.491 . S
Dy503 O514 2.403 . S
Dy503 O515 2.664 . S
Dy503 O517 2.326 . S
O504 Dy500 2.398 . S
O504 C502 1.185 . S
O505 Dy500 2.491 . S
O505 C502 1.355 . S
O506 Dy500 2.403 . S
O506 C508 1.254 . S
O507 Dy500 2.664 . S
O507 Dy503 2.310 . S
O507 C508 1.268 . S
C508 O506 1.254 . S
C508 O507 1.268 . S
C509 O514 1.254 . S
C509 O515 1.268 . S
O510 Dy503 2.351 . S
O510 C518 1.249 . S
O511 Dy500 2.326 . S
O511 C518 1.267 . S
O512 C501 1.185 . S
O512 Dy503 2.398 . S
O513 C501 1.355 . S
O513 Dy503 2.491 . S
O514 Dy503 2.403 . S
O514 C509 1.254 . S
O515 Dy500 2.310 . S
O515 Dy503 2.664 . S
O515 C509 1.268 . S
O516 Dy500 2.351 . S
O516 C519 1.249 . S
O517 Dy503 2.326 . S
O517 C519 1.267 . S
C518 O510 1.249 . S
C518 O511 1.267 . S
C519 O516 1.249 . S
C519 O517 1.267 . S
Dy520 O524 2.398 . S
Dy520 O525 2.491 . S
Dy520 O526 2.403 . S
Dy520 O527 2.664 . S
Dy520 O531 2.326 . S
Dy520 O535 2.310 . S
Dy520 O536 2.351 . S
C521 O532 1.185 . S
C521 O533 1.355 . S
C522 O524 1.185 . S
C522 O525 1.355 . S
Dy523 O527 2.310 . S
Dy523 O530 2.351 . S
Dy523 O532 2.398 . S
Dy523 O533 2.491 . S
Dy523 O534 2.403 . S
Dy523 O535 2.664 . S
Dy523 O537 2.326 . S
O524 Dy520 2.398 . S
O524 C522 1.185 . S
O525 Dy520 2.491 . S
O525 C522 1.355 . S
O526 Dy520 2.403 . S
O526 C528 1.254 . S
O527 Dy520 2.664 . S
O527 Dy523 2.310 . S
O527 C528 1.268 . S
C528 O526 1.254 . S
C528 O527 1.268 . S
C529 O534 1.254 . S
C529 O535 1.268 . S
O530 Dy523 2.351 . S
O530 C538 1.249 . S
O531 Dy520 2.326 . S
O531 C538 1.267 . S
O532 C521 1.185 . S
O532 Dy523 2.398 . S
O533 C521 1.355 . S
O533 Dy523 2.491 . S
O534 Dy523 2.403 . S
O534 C529 1.254 . S
O535 Dy520 2.310 . S
O535 Dy523 2.664 . S
O535 C529 1.268 . S
O536 Dy520 2.351 . S
O536 C539 1.249 . S
O537 Dy523 2.326 . S
O537 C539 1.267 . S
C538 O530 1.249 . S
C538 O531 1.267 . S
C539 O536 1.249 . S
C539 O537 1.267 . S
Dy540 O544 2.398 . S
Dy540 O545 2.491 . S
Dy540 O546 2.403 . S
Dy540 O547 2.664 1_554 S
Dy540 O551 2.326 . S
Dy540 O555 2.310 . S
Dy540 O556 2.351 . S
C541 O552 1.185 . S
C541 O553 1.355 . S
C542 O544 1.185 . S
C542 O545 1.355 . S
Dy543 O547 2.310 . S
Dy543 O550 2.351 . S
Dy543 O552 2.398 . S
Dy543 O553 2.491 . S
Dy543 O554 2.403 . S
Dy543 O555 2.664 1_556 S
Dy543 O557 2.326 . S
O544 Dy540 2.398 . S
O544 C542 1.185 . S
O545 Dy540 2.491 . S
O545 C542 1.355 . S
O546 Dy540 2.403 . S
O546 C548 1.254 . S
O547 Dy540 2.664 1_556 S
O547 Dy543 2.310 . S
O547 C548 1.268 1_556 S
C548 O546 1.254 . S
C548 O547 1.268 1_554 S
C549 O554 1.254 . S
C549 O555 1.268 1_556 S
O550 Dy543 2.351 . S
O550 C558 1.249 1_556 S
O551 Dy540 2.326 . S
O551 C558 1.267 . S
O552 C541 1.185 . S
O552 Dy543 2.398 . S
O553 C541 1.355 . S
O553 Dy543 2.491 . S
O554 Dy543 2.403 . S
O554 C549 1.254 . S
O555 Dy540 2.310 . S
O555 Dy543 2.664 1_554 S
O555 C549 1.268 1_554 S
O556 Dy540 2.351 . S
O556 C559 1.249 1_554 S
O557 Dy543 2.326 . S
O557 C559 1.267 . S
C558 O550 1.249 1_554 S
C558 O551 1.267 . S
C559 O556 1.249 1_556 S
C559 O557 1.267 . S
Dy560 O564 2.398 . S
Dy560 O565 2.491 . S
Dy560 O566 2.403 . S
Dy560 O567 2.664 1_554 S
Dy560 O571 2.326 . S
Dy560 O575 2.310 . S
Dy560 O576 2.351 . S
C561 O572 1.185 . S
C561 O573 1.355 . S
C562 O564 1.185 . S
C562 O565 1.355 . S
Dy563 O567 2.310 . S
Dy563 O570 2.351 . S
Dy563 O572 2.398 . S
Dy563 O573 2.491 . S
Dy563 O574 2.403 . S
Dy563 O575 2.664 1_556 S
Dy563 O577 2.326 . S
O564 Dy560 2.398 . S
O564 C562 1.185 . S
O565 Dy560 2.491 . S
O565 C562 1.355 . S
O566 Dy560 2.403 . S
O566 C568 1.254 . S
O567 Dy560 2.664 1_556 S
O567 Dy563 2.310 . S
O567 C568 1.268 1_556 S
C568 O566 1.254 . S
C568 O567 1.268 1_554 S
C569 O574 1.254 . S
C569 O575 1.268 1_556 S
O570 Dy563 2.351 . S
O570 C578 1.249 1_556 S
O571 Dy560 2.326 . S
O571 C578 1.267 . S
O572 C561 1.185 . S
O572 Dy563 2.398 . S
O573 C561 1.355 . S
O573 Dy563 2.491 . S
O574 Dy563 2.403 . S
O574 C569 1.254 . S
O575 Dy560 2.310 . S
O575 Dy563 2.664 1_554 S
O575 C569 1.268 1_554 S
O576 Dy560 2.351 . S
O576 C579 1.249 1_554 S
O577 Dy563 2.326 . S
O577 C579 1.267 . S
C578 O570 1.249 1_554 S
C578 O571 1.267 . S
C579 O576 1.249 1_556 S
C579 O577 1.267 . S
Dy580 O584 2.398 . S
Dy580 O585 2.491 . S
Dy580 O586 2.403 . S
Dy580 O587 2.664 1_554 S
Dy580 O591 2.326 . S
Dy580 O595 2.310 . S
Dy580 O596 2.351 . S
C581 O592 1.185 . S
C581 O593 1.355 . S
C582 O584 1.185 . S
C582 O585 1.355 . S
Dy583 O587 2.310 . S
Dy583 O590 2.351 . S
Dy583 O592 2.398 . S
Dy583 O593 2.491 . S
Dy583 O594 2.403 . S
Dy583 O595 2.664 1_556 S
Dy583 O597 2.326 . S
O584 Dy580 2.398 . S
O584 C582 1.185 . S
O585 Dy580 2.491 . S
O585 C582 1.355 . S
O586 Dy580 2.403 . S
O586 C588 1.254 . S
O587 Dy580 2.664 1_556 S
O587 Dy583 2.310 . S
O587 C588 1.268 1_556 S
C588 O586 1.254 . S
C588 O587 1.268 1_554 S
C589 O594 1.254 . S
C589 O595 1.268 1_556 S
O590 Dy583 2.351 . S
O590 C598 1.249 1_556 S
O591 Dy580 2.326 . S
O591 C598 1.267 . S
O592 C581 1.185 . S
O592 Dy583 2.398 . S
O593 C581 1.355 . S
O593 Dy583 2.491 . S
O594 Dy583 2.403 . S
O594 C589 1.254 . S
O595 Dy580 2.310 . S
O595 Dy583 2.664 1_554 S
O595 C589 1.268 1_554 S
O596 Dy580 2.351 . S
O596 C599 1.249 1_554 S
O597 Dy583 2.326 . S
O597 C599 1.267 . S
C598 O590 1.249 1_554 S
C598 O591 1.267 . S
C599 O596 1.249 1_556 S
C599 O597 1.267 . S
Dy600 O604 2.398 . S
Dy600 O605 2.491 . S
Dy600 O606 2.403 . S
Dy600 O607 2.664 . S
Dy600 O611 2.326 . S
Dy600 O615 2.310 . S
Dy600 O616 2.351 . S
C601 O612 1.185 . S
C601 O613 1.355 . S
C602 O604 1.185 . S
C602 O605 1.355 . S
Dy603 O607 2.310 . S
Dy603 O610 2.351 . S
Dy603 O612 2.398 . S
Dy603 O613 2.491 . S
Dy603 O614 2.403 . S
Dy603 O615 2.664 . S
Dy603 O617 2.326 . S
O604 Dy600 2.398 . S
O604 C602 1.185 . S
O605 Dy600 2.491 . S
O605 C602 1.355 . S
O606 Dy600 2.403 . S
O606 C608 1.254 . S
O607 Dy600 2.664 . S
O607 Dy603 2.310 . S
O607 C608 1.268 . S
C608 O606 1.254 . S
C608 O607 1.268 . S
C609 O614 1.254 . S
C609 O615 1.268 . S
O610 Dy603 2.351 . S
O610 C618 1.249 . S
O611 Dy600 2.326 . S
O611 C618 1.267 . S
O612 C601 1.185 . S
O612 Dy603 2.398 . S
O613 C601 1.355 . S
O613 Dy603 2.491 . S
O614 Dy603 2.403 . S
O614 C609 1.254 . S
O615 Dy600 2.310 . S
O615 Dy603 2.664 . S
O615 C609 1.268 . S
O616 Dy600 2.351 . S
O616 C619 1.249 . S
O617 Dy603 2.326 . S
O617 C619 1.267 . S
C618 O610 1.249 . S
C618 O611 1.267 . S
C619 O616 1.249 . S
C619 O617 1.267 . S
Dy620 O624 2.398 . S
Dy620 O625 2.491 . S
Dy620 O626 2.403 . S
Dy620 O627 2.664 . S
Dy620 O631 2.326 . S
Dy620 O635 2.310 . S
Dy620 O636 2.351 . S
C621 O632 1.185 . S
C621 O633 1.355 . S
C622 O624 1.185 . S
C622 O625 1.355 . S
Dy623 O627 2.310 . S
Dy623 O630 2.351 . S
Dy623 O632 2.398 . S
Dy623 O633 2.491 . S
Dy623 O634 2.403 . S
Dy623 O635 2.664 . S
Dy623 O637 2.326 . S
O624 Dy620 2.398 . S
O624 C622 1.185 . S
O625 Dy620 2.491 . S
O625 C622 1.355 . S
O626 Dy620 2.403 . S
O626 C628 1.254 . S
O627 Dy620 2.664 . S
O627 Dy623 2.310 . S
O627 C628 1.268 . S
C628 O626 1.254 . S
C628 O627 1.268 . S
C629 O634 1.254 . S
C629 O635 1.268 . S
O630 Dy623 2.351 . S
O630 C638 1.249 . S
O631 Dy620 2.326 . S
O631 C638 1.267 . S
O632 C621 1.185 . S
O632 Dy623 2.398 . S
O633 C621 1.355 . S
O633 Dy623 2.491 . S
O634 Dy623 2.403 . S
O634 C629 1.254 . S
O635 Dy620 2.310 . S
O635 Dy623 2.664 . S
O635 C629 1.268 . S
O636 Dy620 2.351 . S
O636 C639 1.249 . S
O637 Dy623 2.326 . S
O637 C639 1.267 . S
C638 O630 1.249 . S
C638 O631 1.267 . S
C639 O636 1.249 . S
C639 O637 1.267 . S
Dy640 O644 2.398 . S
Dy640 O645 2.491 . S
Dy640 O646 2.403 . S
Dy640 O647 2.664 . S
Dy640 O651 2.326 . S
Dy640 O655 2.310 . S
Dy640 O656 2.351 . S
C641 O652 1.185 . S
C641 O653 1.355 . S
C642 O644 1.185 . S
C642 O645 1.355 . S
Dy643 O647 2.310 . S
Dy643 O650 2.351 . S
Dy643 O652 2.398 . S
Dy643 O653 2.491 . S
Dy643 O654 2.403 . S
Dy643 O655 2.664 . S
Dy643 O657 2.326 . S
O644 Dy640 2.398 . S
O644 C642 1.185 . S
O645 Dy640 2.491 . S
O645 C642 1.355 . S
O646 Dy640 2.403 . S
O646 C648 1.254 . S
O647 Dy640 2.664 . S
O647 Dy643 2.310 . S
O647 C648 1.268 . S
C648 O646 1.254 . S
C648 O647 1.268 . S
C649 O654 1.254 . S
C649 O655 1.268 . S
O650 Dy643 2.351 . S
O650 C658 1.249 . S
O651 Dy640 2.326 . S
O651 C658 1.267 . S
O652 C641 1.185 . S
O652 Dy643 2.398 . S
O653 C641 1.355 . S
O653 Dy643 2.491 . S
O654 Dy643 2.403 . S
O654 C649 1.254 . S
O655 Dy640 2.310 . S
O655 Dy643 2.664 . S
O655 C649 1.268 . S
O656 Dy640 2.351 . S
O656 C659 1.249 . S
O657 Dy643 2.326 . S
O657 C659 1.267 . S
C658 O650 1.249 . S
C658 O651 1.267 . S
C659 O656 1.249 . S
C659 O657 1.267 . S
Dy660 O664 2.398 . S
Dy660 O665 2.491 . S
Dy660 O666 2.403 . S
Dy660 O667 2.664 . S
Dy660 O671 2.326 . S
Dy660 O675 2.310 . S
Dy660 O676 2.351 . S
C661 O672 1.185 . S
C661 O673 1.355 . S
C662 O664 1.185 . S
C662 O665 1.355 . S
Dy663 O667 2.310 . S
Dy663 O670 2.351 . S
Dy663 O672 2.398 . S
Dy663 O673 2.491 . S
Dy663 O674 2.403 . S
Dy663 O675 2.664 . S
Dy663 O677 2.326 . S
O664 Dy660 2.398 . S
O664 C662 1.185 . S
O665 Dy660 2.491 . S
O665 C662 1.355 . S
O666 Dy660 2.403 . S
O666 C668 1.254 . S
O667 Dy660 2.664 . S
O667 Dy663 2.310 . S
O667 C668 1.268 . S
C668 O666 1.254 . S
C668 O667 1.268 . S
C669 O674 1.254 . S
C669 O675 1.268 . S
O670 Dy663 2.351 . S
O670 C678 1.249 . S
O671 Dy660 2.326 . S
O671 C678 1.267 . S
O672 C661 1.185 . S
O672 Dy663 2.398 . S
O673 C661 1.355 . S
O673 Dy663 2.491 . S
O674 Dy663 2.403 . S
O674 C669 1.254 . S
O675 Dy660 2.310 . S
O675 Dy663 2.664 . S
O675 C669 1.268 . S
O676 Dy660 2.351 . S
O676 C679 1.249 . S
O677 Dy663 2.326 . S
O677 C679 1.267 . S
C678 O670 1.249 . S
C678 O671 1.267 . S
C679 O676 1.249 . S
C679 O677 1.267 . S
Dy680 O684 2.398 . S
Dy680 O685 2.491 . S
Dy680 O686 2.403 . S
Dy680 O687 2.664 . S
Dy680 O691 2.326 . S
Dy680 O695 2.310 . S
Dy680 O696 2.351 . S
C681 O692 1.185 . S
C681 O693 1.355 . S
C682 O684 1.185 . S
C682 O685 1.355 . S
Dy683 O687 2.310 . S
Dy683 O690 2.351 . S
Dy683 O692 2.398 . S
Dy683 O693 2.491 . S
Dy683 O694 2.403 . S
Dy683 O695 2.664 . S
Dy683 O697 2.326 . S
O684 Dy680 2.398 . S
O684 C682 1.185 . S
O685 Dy680 2.491 . S
O685 C682 1.355 . S
O686 Dy680 2.403 . S
O686 C688 1.254 . S
O687 Dy680 2.664 . S
O687 Dy683 2.310 . S
O687 C688 1.268 . S
C688 O686 1.254 . S
C688 O687 1.268 . S
C689 O694 1.254 . S
C689 O695 1.268 . S
O690 Dy683 2.351 . S
O690 C698 1.249 . S
O691 Dy680 2.326 . S
O691 C698 1.267 . S
O692 C681 1.185 . S
O692 Dy683 2.398 . S
O693 C681 1.355 . S
O693 Dy683 2.491 . S
O694 Dy683 2.403 . S
O694 C689 1.254 . S
O695 Dy680 2.310 . S
O695 Dy683 2.664 . S
O695 C689 1.268 . S
O696 Dy680 2.351 . S
O696 C699 1.249 . S
O697 Dy683 2.326 . S
O697 C699 1.267 . S
C698 O690 1.249 . S
C698 O691 1.267 . S
C699 O696 1.249 . S
C699 O697 1.267 . S
Dy700 O704 2.398 . S
Dy700 O705 2.491 . S
Dy700 O706 2.403 . S
Dy700 O707 2.664 . S
Dy700 O711 2.326 . S
Dy700 O715 2.310 . S
Dy700 O716 2.351 . S
C701 O712 1.185 . S
C701 O713 1.355 . S
C702 O704 1.185 . S
C702 O705 1.355 . S
Dy703 O707 2.310 . S
Dy703 O710 2.351 . S
Dy703 O712 2.398 . S
Dy703 O713 2.491 . S
Dy703 O714 2.403 . S
Dy703 O715 2.664 . S
Dy703 O717 2.326 . S
O704 Dy700 2.398 . S
O704 C702 1.185 . S
O705 Dy700 2.491 . S
O705 C702 1.355 . S
O706 Dy700 2.403 . S
O706 C708 1.254 . S
O707 Dy700 2.664 . S
O707 Dy703 2.310 . S
O707 C708 1.268 . S
C708 O706 1.254 . S
C708 O707 1.268 . S
C709 O714 1.254 . S
C709 O715 1.268 . S
O710 Dy703 2.351 . S
O710 C718 1.249 . S
O711 Dy700 2.326 . S
O711 C718 1.267 . S
O712 C701 1.185 . S
O712 Dy703 2.398 . S
O713 C701 1.355 . S
O713 Dy703 2.491 . S
O714 Dy703 2.403 . S
O714 C709 1.254 . S
O715 Dy700 2.310 . S
O715 Dy703 2.664 . S
O715 C709 1.268 . S
O716 Dy700 2.351 . S
O716 C719 1.249 . S
O717 Dy703 2.326 . S
O717 C719 1.267 . S
C718 O710 1.249 . S
C718 O711 1.267 . S
C719 O716 1.249 . S
C719 O717 1.267 . S
C720 C721 1.369 . S
C720 C722 1.419 . S
C720 H724 0.930 . S
C721 C720 1.369 . S
C721 C730 1.429 . S
C722 C720 1.419 . S
C722 C723 1.363 . S
C722 H725 0.929 . S
C723 C722 1.363 . S
C723 C729 1.428 . S
H724 C720 0.930 . S
H725 C722 0.929 . S
S726 N727 1.613 . S
S726 N728 1.610 . S
N727 S726 1.613 . S
N727 C730 1.350 . S
N728 S726 1.610 . S
N728 C729 1.351 . S
C729 C723 1.428 . S
C729 N728 1.351 . S
C729 C730 1.434 . S
C730 C721 1.429 . S
C730 N727 1.350 . S
C730 C729 1.434 . S
C731 C732 1.369 . S
C731 C733 1.419 . S
C731 H735 0.930 . S
C732 C731 1.369 . S
C732 C741 1.429 . S
C733 C731 1.419 . S
C733 C734 1.363 . S
C733 H736 0.929 . S
C734 C733 1.363 . S
C734 C740 1.428 . S
H735 C731 0.930 . S
H736 C733 0.929 . S
S737 N738 1.613 . S
S737 N739 1.610 . S
N738 S737 1.613 . S
N738 C741 1.350 . S
N739 S737 1.610 . S
N739 C740 1.351 . S
C740 C734 1.428 . S
C740 N739 1.351 . S
C740 C741 1.434 . S
C741 C732 1.429 . S
C741 N738 1.350 . S
C741 C740 1.434 . S
C742 C743 1.369 . S
C742 C744 1.419 . S
C742 H746 0.930 . S
C743 C742 1.369 . S
C743 C752 1.429 . S
C744 C742 1.419 . S
C744 C745 1.363 . S
C744 H747 0.929 . S
C745 C744 1.363 . S
C745 C751 1.428 . S
H746 C742 0.930 . S
H747 C744 0.929 . S
S748 N749 1.613 . S
S748 N750 1.610 . S
N749 S748 1.613 . S
N749 C752 1.350 . S
N750 S748 1.610 . S
N750 C751 1.351 . S
C751 C745 1.428 . S
C751 N750 1.351 . S
C751 C752 1.434 . S
C752 C743 1.429 . S
C752 N749 1.350 . S
C752 C751 1.434 . S
C753 C754 1.369 . S
C753 C755 1.419 . S
C753 H757 0.930 . S
C754 C753 1.369 . S
C754 C763 1.429 . S
C755 C753 1.419 . S
C755 C756 1.363 . S
C755 H758 0.929 . S
C756 C755 1.363 . S
C756 C762 1.428 . S
H757 C753 0.930 . S
H758 C755 0.929 . S
S759 N760 1.613 . S
S759 N761 1.610 . S
N760 S759 1.613 . S
N760 C763 1.350 . S
N761 S759 1.610 . S
N761 C762 1.351 . S
C762 C756 1.428 . S
C762 N761 1.351 . S
C762 C763 1.434 . S
C763 C754 1.429 . S
C763 N760 1.350 . S
C763 C762 1.434 . S
C764 C765 1.369 . S
C764 C766 1.419 . S
C764 H768 0.930 . S
C765 C764 1.369 . S
C765 C774 1.429 . S
C766 C764 1.419 . S
C766 C767 1.363 . S
C766 H769 0.929 . S
C767 C766 1.363 . S
C767 C773 1.428 . S
H768 C764 0.930 . S
H769 C766 0.929 . S
S770 N771 1.613 . S
S770 N772 1.599 1_565 S
N771 S770 1.613 . S
N771 C774 1.350 . S
N772 S770 1.599 1_545 S
N772 C773 1.344 1_545 S
C773 C767 1.428 . S
C773 N772 1.344 1_565 S
C773 C774 1.434 . S
C774 C765 1.429 . S
C774 N771 1.350 . S
C774 C773 1.434 . S
C775 C776 1.369 . S
C775 C777 1.419 . S
C775 H779 0.930 . S
C776 C775 1.369 . S
C776 C785 1.429 . S
C777 C775 1.419 . S
C777 C778 1.363 . S
C777 H780 0.929 . S
C778 C777 1.363 . S
C778 C784 1.428 . S
H779 C775 0.930 . S
H780 C777 0.929 . S
S781 N782 1.613 1_455 S
S781 N783 1.610 1_565 S
N782 S781 1.613 1_655 S
N782 C785 1.350 1_655 S
N783 S781 1.610 1_545 S
N783 C784 1.351 1_545 S
C784 C778 1.428 . S
C784 N783 1.351 1_565 S
C784 C785 1.434 . S
C785 C776 1.429 . S
C785 N782 1.350 1_455 S
C785 C784 1.434 . S
C786 C787 1.369 . S
C786 C788 1.419 . S
C786 H790 0.930 . S
C787 C786 1.369 . S
C787 C796 1.429 . S
C788 C786 1.419 . S
C788 C789 1.363 . S
C788 H791 0.929 . S
C789 C788 1.363 . S
C789 C795 1.428 . S
H790 C786 0.930 . S
H791 C788 0.929 . S
S792 N793 1.613 . S
S792 N794 1.610 1_565 S
N793 S792 1.613 . S
N793 C796 1.350 . S
N794 S792 1.610 1_545 S
N794 C795 1.351 1_545 S
C795 C789 1.428 . S
C795 N794 1.351 1_565 S
C795 C796 1.434 . S
C796 C787 1.429 . S
C796 N793 1.350 . S
C796 C795 1.434 . S
C797 C798 1.369 . S
C797 C799 1.419 . S
C797 H801 0.930 . S
C798 C797 1.369 . S
C798 C807 1.429 . S
C799 C797 1.419 . S
C799 C800 1.363 . S
C799 H802 0.929 . S
C800 C799 1.363 . S
C800 C806 1.428 . S
H801 C797 0.930 . S
H802 C799 0.929 . S
S803 N804 1.613 . S
S803 N805 1.610 . S
N804 S803 1.613 . S
N804 C807 1.350 . S
N805 S803 1.610 . S
N805 C806 1.351 . S
C806 C800 1.428 . S
C806 N805 1.351 . S
C806 C807 1.434 . S
C807 C798 1.429 . S
C807 N804 1.350 . S
C807 C806 1.434 . S
C808 C809 1.369 . S
C808 C810 1.419 . S
C808 H812 0.930 . S
C809 C808 1.369 . S
C809 C818 1.429 . S
C810 C808 1.419 . S
C810 C811 1.363 . S
C810 H813 0.929 . S
C811 C810 1.363 . S
C811 C817 1.428 . S
H812 C808 0.930 . S
H813 C810 0.929 . S
S814 N815 1.613 . S
S814 N816 1.610 . S
N815 S814 1.613 . S
N815 C818 1.350 . S
N816 S814 1.610 . S
N816 C817 1.351 . S
C817 C811 1.428 . S
C817 N816 1.351 . S
C817 C818 1.434 . S
C818 C809 1.429 . S
C818 N815 1.350 . S
C818 C817 1.434 . S
C819 C820 1.369 . S
C819 C821 1.419 . S
C819 H823 0.930 . S
C820 C819 1.369 . S
C820 C829 1.429 . S
C821 C819 1.419 . S
C821 C822 1.363 . S
C821 H824 0.929 . S
C822 C821 1.363 . S
C822 C828 1.428 . S
H823 C819 0.930 . S
H824 C821 0.929 . S
S825 N826 1.613 . S
S825 N827 1.610 . S
N826 S825 1.613 . S
N826 C829 1.350 . S
N827 S825 1.610 . S
N827 C828 1.351 . S
C828 C822 1.428 . S
C828 N827 1.351 . S
C828 C829 1.434 . S
C829 C820 1.429 . S
C829 N826 1.350 . S
C829 C828 1.434 . S
C830 C831 1.369 . S
C830 C832 1.419 . S
C830 H834 0.930 . S
C831 C830 1.369 . S
C831 C840 1.429 . S
C832 C830 1.419 . S
C832 C833 1.363 . S
C832 H835 0.929 . S
C833 C832 1.363 . S
C833 C839 1.428 . S
H834 C830 0.930 . S
H835 C832 0.929 . S
S836 N837 1.613 . S
S836 N838 1.610 . S
N837 S836 1.613 . S
N837 C840 1.350 . S
N838 S836 1.610 . S
N838 C839 1.351 . S
C839 C833 1.428 . S
C839 N838 1.351 . S
C839 C840 1.434 . S
C840 C831 1.429 . S
C840 N837 1.350 . S
C840 C839 1.434 . S
C841 C842 1.369 . S
C841 C843 1.419 . S
C841 H845 0.930 . S
C842 C841 1.369 . S
C842 C851 1.429 . S
C843 C841 1.419 . S
C843 C844 1.363 . S
C843 H846 0.929 . S
C844 C843 1.363 . S
C844 C850 1.428 . S
H845 C841 0.930 . S
H846 C843 0.929 . S
S847 N848 1.613 . S
S847 N849 1.610 . S
N848 S847 1.613 . S
N848 C851 1.350 . S
N849 S847 1.610 . S
N849 C850 1.351 . S
C850 C844 1.428 . S
C850 N849 1.351 . S
C850 C851 1.434 . S
C851 C842 1.429 . S
C851 N848 1.350 . S
C851 C850 1.434 . S
C852 C853 1.369 . S
C852 C854 1.419 . S
C852 H856 0.930 . S
C853 C852 1.369 . S
C853 C862 1.429 . S
C854 C852 1.419 . S
C854 C855 1.363 . S
C854 H857 0.929 . S
C855 C854 1.363 . S
C855 C861 1.428 . S
H856 C852 0.930 . S
H857 C854 0.929 . S
S858 N859 1.613 . S
S858 N860 1.610 . S
N859 S858 1.613 . S
N859 C862 1.350 . S
N860 S858 1.610 . S
N860 C861 1.351 . S
C861 C855 1.428 . S
C861 N860 1.351 . S
C861 C862 1.434 . S
C862 C853 1.429 . S
C862 N859 1.350 . S
C862 C861 1.434 . S
C863 C864 1.369 . S
C863 C865 1.419 . S
C863 H867 0.930 . S
C864 C863 1.369 . S
C864 C873 1.429 . S
C865 C863 1.419 . S
C865 C866 1.363 . S
C865 H868 0.929 . S
C866 C865 1.363 . S
C866 C872 1.428 . S
H867 C863 0.930 . S
H868 C865 0.929 . S
S869 N870 1.613 . S
S869 N871 1.610 . S
N870 S869 1.613 . S
N870 C873 1.350 . S
N871 S869 1.610 . S
N871 C872 1.351 . S
C872 C866 1.428 . S
C872 N871 1.351 . S
C872 C873 1.434 . S
C873 C864 1.429 . S
C873 N870 1.350 . S
C873 C872 1.434 . S
C874 C875 1.369 . S
C874 C876 1.419 . S
C874 H878 0.930 . S
C875 C874 1.369 . S
C875 C884 1.429 . S
C876 C874 1.419 . S
C876 C877 1.363 . S
C876 H879 0.929 . S
C877 C876 1.363 . S
C877 C883 1.428 . S
H878 C874 0.930 . S
H879 C876 0.929 . S
S880 N881 1.613 . S
S880 N882 1.610 . S
N881 S880 1.613 . S
N881 C884 1.350 . S
N882 S880 1.610 . S
N882 C883 1.351 . S
C883 C877 1.428 . S
C883 N882 1.351 . S
C883 C884 1.434 . S
C884 C875 1.429 . S
C884 N881 1.350 . S
C884 C883 1.434 . S
C885 C886 1.369 . S
C885 C887 1.419 . S
C885 H889 0.930 . S
C886 C885 1.369 . S
C886 C895 1.429 . S
C887 C885 1.419 . S
C887 C888 1.363 . S
C887 H890 0.929 . S
C888 C887 1.363 . S
C888 C894 1.428 . S
H889 C885 0.930 . S
H890 C887 0.929 . S
S891 N892 1.613 . S
S891 N893 1.610 . S
N892 S891 1.613 . S
N892 C895 1.350 . S
N893 S891 1.610 . S
N893 C894 1.351 . S
C894 C888 1.428 . S
C894 N893 1.351 . S
C894 C895 1.434 . S
C895 C886 1.429 . S
C895 N892 1.350 . S
C895 C894 1.434 . S
C896 C897 1.369 . S
C896 C898 1.419 . S
C896 H900 0.930 . S
C897 C896 1.369 . S
C897 C906 1.429 . S
C898 C896 1.419 . S
C898 C899 1.363 . S
C898 H901 0.929 . S
C899 C898 1.363 . S
C899 C905 1.428 . S
H900 C896 0.930 . S
H901 C898 0.929 . S
S902 N903 1.613 . S
S902 N904 1.610 . S
N903 S902 1.613 . S
N903 C906 1.350 . S
N904 S902 1.610 . S
N904 C905 1.351 . S
C905 C899 1.428 . S
C905 N904 1.351 . S
C905 C906 1.434 . S
C906 C897 1.429 . S
C906 N903 1.350 . S
C906 C905 1.434 . S
C907 C908 1.369 . S
C907 C909 1.419 . S
C907 H911 0.930 . S
C908 C907 1.369 . S
C908 C917 1.429 . S
C909 C907 1.419 . S
C909 C910 1.363 . S
C909 H912 0.929 . S
C910 C909 1.363 . S
C910 C916 1.428 . S
H911 C907 0.930 . S
H912 C909 0.929 . S
S913 N914 1.613 . S
S913 N915 1.610 . S
N914 S913 1.613 . S
N914 C917 1.350 . S
N915 S913 1.610 . S
N915 C916 1.351 . S
C916 C910 1.428 . S
C916 N915 1.351 . S
C916 C917 1.434 . S
C917 C908 1.429 . S
C917 N914 1.350 . S
C917 C916 1.434 . S
C918 C919 1.369 . S
C918 C920 1.419 . S
C918 H922 0.930 . S
C919 C918 1.369 . S
C919 C928 1.429 . S
C920 C918 1.419 . S
C920 C921 1.363 . S
C920 H923 0.929 . S
C921 C920 1.363 . S
C921 C927 1.428 . S
H922 C918 0.930 . S
H923 C920 0.929 . S
S924 N925 1.613 . S
S924 N926 1.610 . S
N925 S924 1.613 . S
N925 C928 1.350 . S
N926 S924 1.610 . S
N926 C927 1.351 . S
C927 C921 1.428 . S
C927 N926 1.351 . S
C927 C928 1.434 . S
C928 C919 1.429 . S
C928 N925 1.350 . S
C928 C927 1.434 . S
C929 C930 1.369 . S
C929 C931 1.419 . S
C929 H933 0.930 . S
C930 C929 1.369 . S
C930 C939 1.429 . S
C931 C929 1.419 . S
C931 C932 1.363 . S
C931 H934 0.929 . S
C932 C931 1.363 . S
C932 C938 1.428 . S
H933 C929 0.930 . S
H934 C931 0.929 . S
S935 N936 1.613 . S
S935 N937 1.610 . S
N936 S935 1.613 . S
N936 C939 1.350 . S
N937 S935 1.610 . S
N937 C938 1.351 . S
C938 C932 1.428 . S
C938 N937 1.351 . S
C938 C939 1.434 . S
C939 C930 1.429 . S
C939 N936 1.350 . S
C939 C938 1.434 . S
C940 C941 1.369 . S
C940 C942 1.419 . S
C940 H944 0.930 . S
C941 C940 1.369 . S
C941 C950 1.429 . S
C942 C940 1.419 . S
C942 C943 1.363 . S
C942 H945 0.929 . S
C943 C942 1.363 . S
C943 C949 1.428 . S
H944 C940 0.930 . S
H945 C942 0.929 . S
S946 N947 1.613 . S
S946 N948 1.610 . S
N947 S946 1.613 . S
N947 C950 1.350 . S
N948 S946 1.610 . S
N948 C949 1.351 . S
C949 C943 1.428 . S
C949 N948 1.351 . S
C949 C950 1.434 . S
C950 C941 1.429 . S
C950 N947 1.350 . S
C950 C949 1.434 . S
C951 C952 1.369 . S
C951 C953 1.419 . S
C951 H955 0.930 . S
C952 C951 1.369 . S
C952 C961 1.429 1_554 S
C953 C951 1.419 . S
C953 C954 1.392 . S
C953 H956 0.929 . S
C954 C953 1.392 . S
C954 C960 1.405 1_554 S
H955 C951 0.930 . S
H956 C953 0.929 . S
S957 N958 1.613 . S
S957 N959 1.610 . S
N958 S957 1.613 . S
N958 C961 1.350 . S
N959 S957 1.610 . S
N959 C960 1.351 . S
C960 C954 1.405 1_556 S
C960 N959 1.351 . S
C960 C961 1.434 . S
C961 C952 1.429 1_556 S
C961 N958 1.350 . S
C961 C960 1.434 . S
C962 C963 1.369 1_556 S
C962 C964 1.419 . S
C962 H966 0.930 . S
C963 C962 1.369 1_554 S
C963 C972 1.429 . S
C964 C962 1.419 . S
C964 C965 1.363 1_556 S
C964 H967 0.929 . S
C965 C964 1.363 1_554 S
C965 C971 1.428 . S
H966 C962 0.930 . S
H967 C964 0.929 . S
S968 N969 1.613 . S
S968 N970 1.610 . S
N969 S968 1.613 . S
N969 C972 1.350 . S
N970 S968 1.610 . S
N970 C971 1.351 . S
C971 C965 1.428 . S
C971 N970 1.351 . S
C971 C972 1.434 . S
C972 C963 1.429 . S
C972 N969 1.350 . S
C972 C971 1.434 . S
C973 C974 1.369 . S
C973 C975 1.419 . S
C973 H977 0.930 . S
C974 C973 1.369 . S
C974 C983 1.429 1_554 S
C975 C973 1.419 . S
C975 C976 1.405 . S
C975 H978 0.929 . S
C976 C975 1.405 . S
C976 C982 1.395 1_554 S
H977 C973 0.930 . S
H978 C975 0.929 . S
S979 N980 1.613 . S
S979 N981 1.610 . S
N980 S979 1.613 . S
N980 C983 1.350 . S
N981 S979 1.610 . S
N981 C982 1.351 . S
C982 C976 1.395 1_556 S
C982 N981 1.351 . S
C982 C983 1.434 . S
C983 C974 1.429 1_556 S
C983 N980 1.350 . S
C983 C982 1.434 . S
C984 C985 1.369 . S
C984 C986 1.419 . S
C984 H988 0.930 . S
C985 C984 1.369 . S
C985 C994 1.429 . S
C986 C984 1.419 . S
C986 C987 1.363 . S
C986 H989 0.929 . S
C987 C986 1.363 . S
C987 C993 1.428 . S
H988 C984 0.930 . S
H989 C986 0.929 . S
S990 N991 1.613 . S
S990 N992 1.610 . S
N991 S990 1.613 . S
N991 C994 1.350 . S
N992 S990 1.610 . S
N992 C993 1.351 . S
C993 C987 1.428 . S
C993 N992 1.351 . S
C993 C994 1.434 . S
C994 C985 1.429 . S
C994 N991 1.350 . S
C994 C993 1.434 . S
C995 C996 1.369 . S
C995 C997 1.419 . S
C995 H999 0.930 . S
C996 C995 1.369 . S
C996 C1005 1.429 . S
C997 C995 1.419 . S
C997 C998 1.363 . S
C997 H1000 0.929 . S
C998 C997 1.363 . S
C998 C1004 1.428 . S
H999 C995 0.930 . S
H1000 C997 0.929 . S
S1001 N1002 1.613 . S
S1001 N1003 1.610 . S
N1002 S1001 1.613 . S
N1002 C1005 1.350 . S
N1003 S1001 1.610 . S
N1003 C1004 1.351 . S
C1004 C998 1.428 . S
C1004 N1003 1.351 . S
C1004 C1005 1.434 . S
C1005 C996 1.429 . S
C1005 N1002 1.350 . S
C1005 C1004 1.434 . S
C1006 C1007 1.369 . S
C1006 C1008 1.419 . S
C1006 H1010 0.930 . S
C1007 C1006 1.369 . S
C1007 C1016 1.429 . S
C1008 C1006 1.419 . S
C1008 C1009 1.363 . S
C1008 H1011 0.929 . S
C1009 C1008 1.363 . S
C1009 C1015 1.428 . S
H1010 C1006 0.930 . S
H1011 C1008 0.929 . S
S1012 N1013 1.613 . S
S1012 N1014 1.610 . S
N1013 S1012 1.613 . S
N1013 C1016 1.350 . S
N1014 S1012 1.610 . S
N1014 C1015 1.351 . S
C1015 C1009 1.428 . S
C1015 N1014 1.351 . S
C1015 C1016 1.434 . S
C1016 C1007 1.429 . S
C1016 N1013 1.350 . S
C1016 C1015 1.434 . S
C1017 C1018 1.369 1_554 S
C1017 C1019 1.419 . S
C1017 H1021 0.930 . S
C1018 C1017 1.369 1_556 S
C1018 C1027 1.429 . S
C1019 C1017 1.419 . S
C1019 C1020 1.363 1_554 S
C1019 H1022 0.929 . S
C1020 C1019 1.363 1_556 S
C1020 C1026 1.428 . S
H1021 C1017 0.930 . S
H1022 C1019 0.929 . S
S1023 N1024 1.613 . S
S1023 N1025 1.610 . S
N1024 S1023 1.613 . S
N1024 C1027 1.350 . S
N1025 S1023 1.610 . S
N1025 C1026 1.351 . S
C1026 C1020 1.428 . S
C1026 N1025 1.351 . S
C1026 C1027 1.434 . S
C1027 C1018 1.429 . S
C1027 N1024 1.350 . S
C1027 C1026 1.434 . S
C1028 C1029 1.369 . S
C1028 C1030 1.425 . S
C1028 H1032 0.928 . S
C1029 C1028 1.369 . S
C1029 C1038 1.435 . S
C1030 C1028 1.425 . S
C1030 C1031 1.363 . S
C1030 H1033 0.929 . S
C1031 C1030 1.363 . S
C1031 C1037 1.428 . S
H1032 C1028 0.928 . S
H1033 C1030 0.929 . S
S1034 N1035 1.613 . S
S1034 N1036 1.610 . S
N1035 S1034 1.613 . S
N1035 C1038 1.350 . S
N1036 S1034 1.610 . S
N1036 C1037 1.351 . S
C1037 C1031 1.428 . S
C1037 N1036 1.351 . S
C1037 C1038 1.434 . S
C1038 C1029 1.435 . S
C1038 N1035 1.350 . S
C1038 C1037 1.434 . S
C1039 C1040 1.414 . S
C1039 C1041 1.419 . S
C1039 H1043 0.930 . S
C1040 C1039 1.414 . S
C1040 C1049 1.388 1_556 S
C1041 C1039 1.419 . S
C1041 C1042 1.363 . S
C1041 H1044 0.929 . S
C1042 C1041 1.363 . S
C1042 C1048 1.428 1_556 S
H1043 C1039 0.930 . S
H1044 C1041 0.929 . S
S1045 N1046 1.613 . S
S1045 N1047 1.610 . S
N1046 S1045 1.613 . S
N1046 C1049 1.350 . S
N1047 S1045 1.610 . S
N1047 C1048 1.351 . S
C1048 C1042 1.428 1_554 S
C1048 N1047 1.351 . S
C1048 C1049 1.434 . S
C1049 C1040 1.388 1_554 S
C1049 N1046 1.350 . S
C1049 C1048 1.434 . S
C1050 C1051 1.369 . S
C1050 C1052 1.419 . S
C1050 H1054 0.930 . S
C1051 C1050 1.369 . S
C1051 C1060 1.429 . S
C1052 C1050 1.419 . S
C1052 C1053 1.363 . S
C1052 H1055 0.929 . S
C1053 C1052 1.363 . S
C1053 C1059 1.428 . S
H1054 C1050 0.930 . S
H1055 C1052 0.929 . S
S1056 N1057 1.613 . S
S1056 N1058 1.610 . S
N1057 S1056 1.613 . S
N1057 C1060 1.350 . S
N1058 S1056 1.610 . S
N1058 C1059 1.351 . S
C1059 C1053 1.428 . S
C1059 N1058 1.351 . S
C1059 C1060 1.434 . S
C1060 C1051 1.429 . S
C1060 N1057 1.350 . S
C1060 C1059 1.434 . S
C1061 C1062 1.369 . S
C1061 C1063 1.419 . S
C1061 H1065 0.930 . S
C1062 C1061 1.369 . S
C1062 C1071 1.429 . S
C1063 C1061 1.419 . S
C1063 C1064 1.363 . S
C1063 H1066 0.929 . S
C1064 C1063 1.363 . S
C1064 C1070 1.428 . S
H1065 C1061 0.930 . S
H1066 C1063 0.929 . S
S1067 N1068 1.613 . S
S1067 N1069 1.610 . S
N1068 S1067 1.613 . S
N1068 C1071 1.350 . S
N1069 S1067 1.610 . S
N1069 C1070 1.351 . S
C1070 C1064 1.428 . S
C1070 N1069 1.351 . S
C1070 C1071 1.434 . S
C1071 C1062 1.429 . S
C1071 N1068 1.350 . S
C1071 C1070 1.434 . S
C1072 C1073 1.369 . S
C1072 C1074 1.419 . S
C1072 H1076 0.930 . S
C1073 C1072 1.369 . S
C1073 C1082 1.429 . S
C1074 C1072 1.419 . S
C1074 C1075 1.363 . S
C1074 H1077 0.929 . S
C1075 C1074 1.363 . S
C1075 C1081 1.428 . S
H1076 C1072 0.930 . S
H1077 C1074 0.929 . S
S1078 N1079 1.613 . S
S1078 N1080 1.610 . S
N1079 S1078 1.613 . S
N1079 C1082 1.350 . S
N1080 S1078 1.610 . S
N1080 C1081 1.351 . S
C1081 C1075 1.428 . S
C1081 N1080 1.351 . S
C1081 C1082 1.434 . S
C1082 C1073 1.429 . S
C1082 N1079 1.350 . S
C1082 C1081 1.434 . S
C1083 C1084 1.369 . S
C1083 C1085 1.419 . S
C1083 H1087 0.930 . S
C1084 C1083 1.369 . S
C1084 C1093 1.429 . S
C1085 C1083 1.419 . S
C1085 C1086 1.363 . S
C1085 H1088 0.929 . S
C1086 C1085 1.363 . S
C1086 C1092 1.428 . S
H1087 C1083 0.930 . S
H1088 C1085 0.929 . S
S1089 N1090 1.613 . S
S1089 N1091 1.610 . S
N1090 S1089 1.613 . S
N1090 C1093 1.350 . S
N1091 S1089 1.610 . S
N1091 C1092 1.351 . S
C1092 C1086 1.428 . S
C1092 N1091 1.351 . S
C1092 C1093 1.434 . S
C1093 C1084 1.429 . S
C1093 N1090 1.350 . S
C1093 C1092 1.434 . S
C1094 C1095 1.369 . S
C1094 C1096 1.419 . S
C1094 H1098 0.930 . S
C1095 C1094 1.369 . S
C1095 C1104 1.429 . S
C1096 C1094 1.419 . S
C1096 C1097 1.363 . S
C1096 H1099 0.929 . S
C1097 C1096 1.363 . S
C1097 C1103 1.428 . S
H1098 C1094 0.930 . S
H1099 C1096 0.929 . S
S1100 N1101 1.613 . S
S1100 N1102 1.610 . S
N1101 S1100 1.613 . S
N1101 C1104 1.350 . S
N1102 S1100 1.610 . S
N1102 C1103 1.351 . S
C1103 C1097 1.428 . S
C1103 N1102 1.351 . S
C1103 C1104 1.434 . S
C1104 C1095 1.429 . S
C1104 N1101 1.350 . S
C1104 C1103 1.434 . S
C1105 C1106 1.369 . S
C1105 C1107 1.419 . S
C1105 H1109 0.930 . S
C1106 C1105 1.369 . S
C1106 C1115 1.429 . S
C1107 C1105 1.419 . S
C1107 C1108 1.363 . S
C1107 H1110 0.929 . S
C1108 C1107 1.363 . S
C1108 C1114 1.428 . S
H1109 C1105 0.930 . S
H1110 C1107 0.929 . S
S1111 N1112 1.613 . S
S1111 N1113 1.610 . S
N1112 S1111 1.613 . S
N1112 C1115 1.350 . S
N1113 S1111 1.610 . S
N1113 C1114 1.351 . S
C1114 C1108 1.428 . S
C1114 N1113 1.351 . S
C1114 C1115 1.434 . S
C1115 C1106 1.429 . S
C1115 N1112 1.350 . S
C1115 C1114 1.434 . S
C1116 C1117 1.369 . S
C1116 C1118 1.419 . S
C1116 H1120 0.930 . S
C1117 C1116 1.369 . S
C1117 C1126 1.429 . S
C1118 C1116 1.419 . S
C1118 C1119 1.363 . S
C1118 H1121 0.929 . S
C1119 C1118 1.363 . S
C1119 C1125 1.428 . S
H1120 C1116 0.930 . S
H1121 C1118 0.929 . S
S1122 N1123 1.613 . S
S1122 N1124 1.610 . S
N1123 S1122 1.613 . S
N1123 C1126 1.350 . S
N1124 S1122 1.610 . S
N1124 C1125 1.351 . S
C1125 C1119 1.428 . S
C1125 N1124 1.351 . S
C1125 C1126 1.434 . S
C1126 C1117 1.429 . S
C1126 N1123 1.350 . S
C1126 C1125 1.434 . S
C1127 C1128 1.369 . S
C1127 C1129 1.419 . S
C1127 H1131 0.930 . S
C1128 C1127 1.369 . S
C1128 C1137 1.429 . S
C1129 C1127 1.419 . S
C1129 C1130 1.363 . S
C1129 H1132 0.929 . S
C1130 C1129 1.363 . S
C1130 C1136 1.428 . S
H1131 C1127 0.930 . S
H1132 C1129 0.929 . S
S1133 N1134 1.613 . S
S1133 N1135 1.610 . S
N1134 S1133 1.613 . S
N1134 C1137 1.350 . S
N1135 S1133 1.610 . S
N1135 C1136 1.351 . S
C1136 C1130 1.428 . S
C1136 N1135 1.351 . S
C1136 C1137 1.434 . S
C1137 C1128 1.429 . S
C1137 N1134 1.350 . S
C1137 C1136 1.434 . S
C1138 C1139 1.369 . S
C1138 C1140 1.419 1_455 S
C1138 H1142 0.930 . S
C1139 C1138 1.369 . S
C1139 C1148 1.429 . S
C1140 C1138 1.419 1_655 S
C1140 C1141 1.363 1_655 S
C1140 H1143 0.929 . S
C1141 C1140 1.363 1_455 S
C1141 C1147 1.428 . S
H1142 C1138 0.930 . S
H1143 C1140 0.929 . S
S1144 N1145 1.613 . S
S1144 N1146 1.610 . S
N1145 S1144 1.613 . S
N1145 C1148 1.350 . S
N1146 S1144 1.610 . S
N1146 C1147 1.351 . S
C1147 C1141 1.428 . S
C1147 N1146 1.351 . S
C1147 C1148 1.434 . S
C1148 C1139 1.429 . S
C1148 N1145 1.350 . S
C1148 C1147 1.434 . S
C1149 C1150 1.369 . S
C1149 C1151 1.419 . S
C1149 H1153 0.930 . S
C1150 C1149 1.369 . S
C1150 C1159 1.429 . S
C1151 C1149 1.419 . S
C1151 C1152 1.363 . S
C1151 H1154 0.929 . S
C1152 C1151 1.363 . S
C1152 C1158 1.428 . S
H1153 C1149 0.930 . S
H1154 C1151 0.929 . S
S1155 N1156 1.613 . S
S1155 N1157 1.610 . S
N1156 S1155 1.613 . S
N1156 C1159 1.350 . S
N1157 S1155 1.610 . S
N1157 C1158 1.351 . S
C1158 C1152 1.428 . S
C1158 N1157 1.351 . S
C1158 C1159 1.434 . S
C1159 C1150 1.429 . S
C1159 N1156 1.350 . S
C1159 C1158 1.434 . S
C1160 C1161 1.369 1_565 S
C1160 C1162 1.419 1_565 S
C1160 H1164 0.930 . S
C1161 C1160 1.369 1_545 S
C1161 C1170 1.429 . S
C1162 C1160 1.419 1_545 S
C1162 C1163 1.363 . S
C1162 H1165 0.929 . S
C1163 C1162 1.363 . S
C1163 C1169 1.428 . S
H1164 C1160 0.930 . S
H1165 C1162 0.929 . S
S1166 N1167 1.613 . S
S1166 N1168 1.610 . S
N1167 S1166 1.613 . S
N1167 C1170 1.350 . S
N1168 S1166 1.610 . S
N1168 C1169 1.351 . S
C1169 C1163 1.428 . S
C1169 N1168 1.351 . S
C1169 C1170 1.434 . S
C1170 C1161 1.429 . S
C1170 N1167 1.350 . S
C1170 C1169 1.434 . S
C1171 C1172 1.369 . S
C1171 C1173 1.419 1_655 S
C1171 H1175 0.930 . S
C1172 C1171 1.369 . S
C1172 C1181 1.429 . S
C1173 C1171 1.419 1_455 S
C1173 C1174 1.363 1_455 S
C1173 H1176 0.929 . S
C1174 C1173 1.363 1_655 S
C1174 C1180 1.428 . S
H1175 C1171 0.930 . S
H1176 C1173 0.929 . S
S1177 N1178 1.613 . S
S1177 N1179 1.610 . S
N1178 S1177 1.613 . S
N1178 C1181 1.350 . S
N1179 S1177 1.610 . S
N1179 C1180 1.351 . S
C1180 C1174 1.428 . S
C1180 N1179 1.351 . S
C1180 C1181 1.434 . S
C1181 C1172 1.429 . S
C1181 N1178 1.350 . S
C1181 C1180 1.434 . S
C1182 C1183 1.369 . S
C1182 C1184 1.419 . S
C1182 H1186 0.930 . S
C1183 C1182 1.369 . S
C1183 C1192 1.429 . S
C1184 C1182 1.419 . S
C1184 C1185 1.363 . S
C1184 H1187 0.929 . S
C1185 C1184 1.363 . S
C1185 C1191 1.428 . S
H1186 C1182 0.930 . S
H1187 C1184 0.929 . S
S1188 N1189 1.613 . S
S1188 N1190 1.610 . S
N1189 S1188 1.613 . S
N1189 C1192 1.350 . S
N1190 S1188 1.610 . S
N1190 C1191 1.351 . S
C1191 C1185 1.428 . S
C1191 N1190 1.351 . S
C1191 C1192 1.434 . S
C1192 C1183 1.429 . S
C1192 N1189 1.350 . S
C1192 C1191 1.434 . S
C1193 C1194 1.369 . S
C1193 C1195 1.419 . S
C1193 H1197 0.930 . S
C1194 C1193 1.369 . S
C1194 C1203 1.429 . S
C1195 C1193 1.419 . S
C1195 C1196 1.363 . S
C1195 H1198 0.929 . S
C1196 C1195 1.363 . S
C1196 C1202 1.428 1_545 S
H1197 C1193 0.930 . S
H1198 C1195 0.929 . S
S1199 N1200 1.613 . S
S1199 N1201 1.610 . S
N1200 S1199 1.613 . S
N1200 C1203 1.350 1_565 S
N1201 S1199 1.610 . S
N1201 C1202 1.351 . S
C1202 C1196 1.428 1_565 S
C1202 N1201 1.351 . S
C1202 C1203 1.434 1_565 S
C1203 C1194 1.429 . S
C1203 N1200 1.350 1_545 S
C1203 C1202 1.434 1_545 S
C1204 C1205 1.369 . S
C1204 C1206 1.419 . S
C1204 H1208 0.930 . S
C1205 C1204 1.369 . S
C1205 C1214 1.429 . S
C1206 C1204 1.419 . S
C1206 C1207 1.363 . S
C1206 H1209 0.929 . S
C1207 C1206 1.363 . S
C1207 C1213 1.428 . S
H1208 C1204 0.930 . S
H1209 C1206 0.929 . S
S1210 N1211 1.613 . S
S1210 N1212 1.610 1_655 S
N1211 S1210 1.613 . S
N1211 C1214 1.350 . S
N1212 S1210 1.610 1_455 S
N1212 C1213 1.351 1_455 S
C1213 C1207 1.428 . S
C1213 N1212 1.351 1_655 S
C1213 C1214 1.434 . S
C1214 C1205 1.429 . S
C1214 N1211 1.350 . S
C1214 C1213 1.434 . S
C1215 C1216 1.369 . S
C1215 C1217 1.419 . S
C1215 H1219 0.930 . S
C1216 C1215 1.369 . S
C1216 C1225 1.429 . S
C1217 C1215 1.419 . S
C1217 C1218 1.363 . S
C1217 H1220 0.929 . S
C1218 C1217 1.363 . S
C1218 C1224 1.428 . S
H1219 C1215 0.930 . S
H1220 C1217 0.929 . S
S1221 N1222 1.613 . S
S1221 N1223 1.610 . S
N1222 S1221 1.613 . S
N1222 C1225 1.350 . S
N1223 S1221 1.610 . S
N1223 C1224 1.351 . S
C1224 C1218 1.428 . S
C1224 N1223 1.351 . S
C1224 C1225 1.434 . S
C1225 C1216 1.429 . S
C1225 N1222 1.350 . S
C1225 C1224 1.434 . S
C1226 C1227 1.369 . S
C1226 C1228 1.419 . S
C1226 H1230 0.930 . S
C1227 C1226 1.369 . S
C1227 C1236 1.429 . S
C1228 C1226 1.419 . S
C1228 C1229 1.363 . S
C1228 H1231 0.929 . S
C1229 C1228 1.363 . S
C1229 C1235 1.428 . S
H1230 C1226 0.930 . S
H1231 C1228 0.929 . S
S1232 N1233 1.613 . S
S1232 N1234 1.610 . S
N1233 S1232 1.613 . S
N1233 C1236 1.350 . S
N1234 S1232 1.610 . S
N1234 C1235 1.351 . S
C1235 C1229 1.428 . S
C1235 N1234 1.351 . S
C1235 C1236 1.434 . S
C1236 C1227 1.429 . S
C1236 N1233 1.350 . S
C1236 C1235 1.434 . S
C1237 C1238 1.369 . S
C1237 C1239 1.419 . S
C1237 H1241 0.930 . S
C1238 C1237 1.369 . S
C1238 C1247 1.429 . S
C1239 C1237 1.419 . S
C1239 C1240 1.363 . S
C1239 H1242 0.929 . S
C1240 C1239 1.363 . S
C1240 C1246 1.428 . S
H1241 C1237 0.930 . S
H1242 C1239 0.929 . S
S1243 N1244 1.627 . S
S1243 N1245 1.591 1_655 S
N1244 S1243 1.627 . S
N1244 C1247 1.350 1_655 S
N1245 S1243 1.591 1_455 S
N1245 C1246 1.351 . S
C1246 C1240 1.428 . S
C1246 N1245 1.351 . S
C1246 C1247 1.434 . S
C1247 C1238 1.429 . S
C1247 N1244 1.350 1_455 S
C1247 C1246 1.434 . S
C1248 C1249 1.369 . S
C1248 C1250 1.419 1_655 S
C1248 H1252 0.930 . S
C1249 C1248 1.369 . S
C1249 C1258 1.429 . S
C1250 C1248 1.419 1_455 S
C1250 C1251 1.363 . S
C1250 H1253 0.929 . S
C1251 C1250 1.363 . S
C1251 C1257 1.428 . S
H1252 C1248 0.930 . S
H1253 C1250 0.929 . S
S1254 N1255 1.613 1_455 S
S1254 N1256 1.610 . S
N1255 S1254 1.613 1_655 S
N1255 C1258 1.350 . S
N1256 S1254 1.610 . S
N1256 C1257 1.351 . S
C1257 C1251 1.428 . S
C1257 N1256 1.351 . S
C1257 C1258 1.434 1_455 S
C1258 C1249 1.429 . S
C1258 N1255 1.350 . S
C1258 C1257 1.434 1_655 S
C1259 C1260 1.369 . S
C1259 C1261 1.419 . S
C1259 H1263 0.930 . S
C1260 C1259 1.369 . S
C1260 C1269 1.429 . S
C1261 C1259 1.419 . S
C1261 C1262 1.363 . S
C1261 H1264 0.929 . S
C1262 C1261 1.363 . S
C1262 C1268 1.428 . S
H1263 C1259 0.930 . S
H1264 C1261 0.929 . S
S1265 N1266 1.613 . S
S1265 N1267 1.610 . S
N1266 S1265 1.613 . S
N1266 C1269 1.350 . S
N1267 S1265 1.610 . S
N1267 C1268 1.351 . S
C1268 C1262 1.428 . S
C1268 N1267 1.351 . S
C1268 C1269 1.434 . S
C1269 C1260 1.429 . S
C1269 N1266 1.350 . S
C1269 C1268 1.434 . S
C1270 C1271 1.369 . S
C1270 C1272 1.419 1_565 S
C1270 H1274 0.930 . S
C1271 C1270 1.369 . S
C1271 C1280 1.429 . S
C1272 C1270 1.419 1_545 S
C1272 C1273 1.363 . S
C1272 H1275 0.929 . S
C1273 C1272 1.363 . S
C1273 C1279 1.428 . S
H1274 C1270 0.930 . S
H1275 C1272 0.929 . S
S1276 N1277 1.613 . S
S1276 N1278 1.610 1_565 S
N1277 S1276 1.613 . S
N1277 C1280 1.350 . S
N1278 S1276 1.610 1_545 S
N1278 C1279 1.351 . S
C1279 C1273 1.428 . S
C1279 N1278 1.351 . S
C1279 C1280 1.434 1_545 S
C1280 C1271 1.429 . S
C1280 N1277 1.350 . S
C1280 C1279 1.434 1_565 S
C1281 C1282 1.369 . S
C1281 C1283 1.419 . S
C1281 H1285 0.930 . S
C1282 C1281 1.369 . S
C1282 C1291 1.429 . S
C1283 C1281 1.419 . S
C1283 C1284 1.363 . S
C1283 H1286 0.929 . S
C1284 C1283 1.363 . S
C1284 C1290 1.428 . S
H1285 C1281 0.930 . S
H1286 C1283 0.929 . S
S1287 N1288 1.613 . S
S1287 N1289 1.610 . S
N1288 S1287 1.613 . S
N1288 C1291 1.350 . S
N1289 S1287 1.610 . S
N1289 C1290 1.351 . S
C1290 C1284 1.428 . S
C1290 N1289 1.351 . S
C1290 C1291 1.434 . S
C1291 C1282 1.429 . S
C1291 N1288 1.350 . S
C1291 C1290 1.434 . S
C1292 C1293 1.369 . S
C1292 C1294 1.419 . S
C1292 H1296 0.930 . S
C1293 C1292 1.369 . S
C1293 C1302 1.429 . S
C1294 C1292 1.419 . S
C1294 C1295 1.363 . S
C1294 H1297 0.929 . S
C1295 C1294 1.363 . S
C1295 C1301 1.428 . S
H1296 C1292 0.930 . S
H1297 C1294 0.929 . S
S1298 N1299 1.613 . S
S1298 N1300 1.610 . S
N1299 S1298 1.613 . S
N1299 C1302 1.350 . S
N1300 S1298 1.610 . S
N1300 C1301 1.351 . S
C1301 C1295 1.428 . S
C1301 N1300 1.351 . S
C1301 C1302 1.434 . S
C1302 C1293 1.429 . S
C1302 N1299 1.350 . S
C1302 C1301 1.434 . S
C1303 C1304 1.369 . S
C1303 C1305 1.419 . S
C1303 H1307 0.930 . S
C1304 C1303 1.369 . S
C1304 C1313 1.429 . S
C1305 C1303 1.419 . S
C1305 C1306 1.363 . S
C1305 H1308 0.929 . S
C1306 C1305 1.363 . S
C1306 C1312 1.428 . S
H1307 C1303 0.930 . S
H1308 C1305 0.929 . S
S1309 N1310 1.613 . S
S1309 N1311 1.610 . S
N1310 S1309 1.613 . S
N1310 C1313 1.350 . S
N1311 S1309 1.610 . S
N1311 C1312 1.351 . S
C1312 C1306 1.428 . S
C1312 N1311 1.351 . S
C1312 C1313 1.434 . S
C1313 C1304 1.429 . S
C1313 N1310 1.350 . S
C1313 C1312 1.434 . S
C1314 C1315 1.369 . S
C1314 C1316 1.419 . S
C1314 H1318 0.930 . S
C1315 C1314 1.369 . S
C1315 C1324 1.429 . S
C1316 C1314 1.419 . S
C1316 C1317 1.363 . S
C1316 H1319 0.929 1_565 S
C1317 C1316 1.363 . S
C1317 C1323 1.428 . S
H1318 C1314 0.930 . S
H1319 C1316 0.929 1_545 S
S1320 N1321 1.613 . S
S1320 N1322 1.610 . S
N1321 S1320 1.613 . S
N1321 C1324 1.350 . S
N1322 S1320 1.610 . S
N1322 C1323 1.351 . S
C1323 C1317 1.428 . S
C1323 N1322 1.351 . S
C1323 C1324 1.434 . S
C1324 C1315 1.429 . S
C1324 N1321 1.350 . S
C1324 C1323 1.434 . S
C1325 C1326 1.369 . S
C1325 C1327 1.419 . S
C1325 H1329 0.930 . S
C1326 C1325 1.369 . S
C1326 C1335 1.429 1_455 S
C1327 C1325 1.419 . S
C1327 C1328 1.363 . S
C1327 H1330 0.929 . S
C1328 C1327 1.363 . S
C1328 C1334 1.428 . S
H1329 C1325 0.930 . S
H1330 C1327 0.929 . S
S1331 N1332 1.613 . S
S1331 N1333 1.610 . S
N1332 S1331 1.613 . S
N1332 C1335 1.357 . S
N1333 S1331 1.610 . S
N1333 C1334 1.351 1_655 S
C1334 C1328 1.428 . S
C1334 N1333 1.351 1_455 S
C1334 C1335 1.426 1_455 S
C1335 C1326 1.429 1_655 S
C1335 N1332 1.357 . S
C1335 C1334 1.426 1_655 S
C1336 C1337 1.369 . S
C1336 C1338 1.419 . S
C1336 H1340 0.930 . S
C1337 C1336 1.369 . S
C1337 C1346 1.429 . S
C1338 C1336 1.419 . S
C1338 C1339 1.363 . S
C1338 H1341 0.929 . S
C1339 C1338 1.363 . S
C1339 C1345 1.428 . S
H1340 C1336 0.930 . S
H1341 C1338 0.929 . S
S1342 N1343 1.613 . S
S1342 N1344 1.610 . S
N1343 S1342 1.613 . S
N1343 C1346 1.350 . S
N1344 S1342 1.610 . S
N1344 C1345 1.351 . S
C1345 C1339 1.428 . S
C1345 N1344 1.351 . S
C1345 C1346 1.434 . S
C1346 C1337 1.429 . S
C1346 N1343 1.350 . S
C1346 C1345 1.434 . S
C1347 C1348 1.363 1_554 S
C1347 C1349 1.419 1_565 S
C1347 H1351 0.930 . S
C1348 C1347 1.363 1_556 S
C1348 C1357 1.437 . S
C1349 C1347 1.419 1_545 S
C1349 C1350 1.363 1_554 S
C1349 H1352 0.929 . S
C1350 C1349 1.363 1_556 S
C1350 C1356 1.428 . S
H1351 C1347 0.930 . S
H1352 C1349 0.929 . S
S1353 N1354 1.613 . S
S1353 N1355 1.610 1_565 S
N1354 S1353 1.613 . S
N1354 C1357 1.350 . S
N1355 S1353 1.610 1_545 S
N1355 C1356 1.351 . S
C1356 C1350 1.428 . S
C1356 N1355 1.351 . S
C1356 C1357 1.434 1_545 S
C1357 C1348 1.437 . S
C1357 N1354 1.350 . S
C1357 C1356 1.434 1_565 S
C1358 C1359 1.354 1_554 S
C1358 C1360 1.419 1_455 S
C1358 H1362 0.930 . S
C1359 C1358 1.354 1_556 S
C1359 C1368 1.447 . S
C1360 C1358 1.419 1_655 S
C1360 C1361 1.363 1_554 S
C1360 H1363 0.929 . S
C1361 C1360 1.363 1_556 S
C1361 C1367 1.428 . S
H1362 C1358 0.930 . S
H1363 C1360 0.929 . S
S1364 N1365 1.613 . S
S1364 N1366 1.610 1_455 S
N1365 S1364 1.613 . S
N1365 C1368 1.350 . S
N1366 S1364 1.610 1_655 S
N1366 C1367 1.351 . S
C1367 C1361 1.428 . S
C1367 N1366 1.351 . S
C1367 C1368 1.434 1_655 S
C1368 C1359 1.447 . S
C1368 N1365 1.350 . S
C1368 C1367 1.434 1_455 S
C1369 C1370 1.369 1_554 S
C1369 C1371 1.419 . S
C1369 H1373 0.930 . S
C1370 C1369 1.369 1_556 S
C1370 C1379 1.429 . S
C1371 C1369 1.419 . S
C1371 C1372 1.355 1_554 S
C1371 H1374 0.929 . S
C1372 C1371 1.355 1_556 S
C1372 C1378 1.439 . S
H1373 C1369 0.930 . S
H1374 C1371 0.929 . S
S1375 N1376 1.613 . S
S1375 N1377 1.610 . S
N1376 S1375 1.613 . S
N1376 C1379 1.350 . S
N1377 S1375 1.610 . S
N1377 C1378 1.351 . S
C1378 C1372 1.439 . S
C1378 N1377 1.351 . S
C1378 C1379 1.434 . S
C1379 C1370 1.429 . S
C1379 N1376 1.350 . S
C1379 C1378 1.434 . S
C1380 C1381 1.369 . S
C1380 C1382 1.419 . S
C1380 H1384 0.930 . S
C1381 C1380 1.369 . S
C1381 C1390 1.429 . S
C1382 C1380 1.419 . S
C1382 C1383 1.363 . S
C1382 H1385 0.929 1_545 S
C1383 C1382 1.363 . S
C1383 C1389 1.428 . S
H1384 C1380 0.930 . S
H1385 C1382 0.929 1_565 S
S1386 N1387 1.613 . S
S1386 N1388 1.610 . S
N1387 S1386 1.613 . S
N1387 C1390 1.350 . S
N1388 S1386 1.610 . S
N1388 C1389 1.351 . S
C1389 C1383 1.428 . S
C1389 N1388 1.351 . S
C1389 C1390 1.434 . S
C1390 C1381 1.429 . S
C1390 N1387 1.350 . S
C1390 C1389 1.434 . S
C1391 C1392 1.369 . S
C1391 C1393 1.419 . S
C1391 H1395 0.930 . S
C1392 C1391 1.369 . S
C1392 C1401 1.429 . S
C1393 C1391 1.419 . S
C1393 C1394 1.363 . S
C1393 H1396 0.929 1_655 S
C1394 C1393 1.363 . S
C1394 C1400 1.428 . S
H1395 C1391 0.930 . S
H1396 C1393 0.929 1_455 S
S1397 N1398 1.613 . S
S1397 N1399 1.610 . S
N1398 S1397 1.613 . S
N1398 C1401 1.350 . S
N1399 S1397 1.610 . S
N1399 C1400 1.351 . S
C1400 C1394 1.428 . S
C1400 N1399 1.351 . S
C1400 C1401 1.434 . S
C1401 C1392 1.429 . S
C1401 N1398 1.350 . S
C1401 C1400 1.434 . S
C1402 C1403 1.369 . S
C1402 C1404 1.419 . S
C1402 H1406 0.930 . S
C1403 C1402 1.369 . S
C1403 C1412 1.429 . S
C1404 C1402 1.419 . S
C1404 C1405 1.363 . S
C1404 H1407 0.929 . S
C1405 C1404 1.363 . S
C1405 C1411 1.428 . S
H1406 C1402 0.930 . S
H1407 C1404 0.929 . S
S1408 N1409 1.613 . S
S1408 N1410 1.610 . S
N1409 S1408 1.613 . S
N1409 C1412 1.350 . S
N1410 S1408 1.610 . S
N1410 C1411 1.351 . S
C1411 C1405 1.428 . S
C1411 N1410 1.351 . S
C1411 C1412 1.434 . S
C1412 C1403 1.429 . S
C1412 N1409 1.350 . S
C1412 C1411 1.434 . S
C1413 C1414 1.369 1_556 S
C1413 C1415 1.419 1_565 S
C1413 H1417 0.930 . S
C1414 C1413 1.369 1_554 S
C1414 C1423 1.429 . S
C1415 C1413 1.419 1_545 S
C1415 C1416 1.334 1_556 S
C1415 H1418 0.929 . S
C1416 C1415 1.334 1_554 S
C1416 C1422 1.462 . S
H1417 C1413 0.930 . S
H1418 C1415 0.929 . S
S1419 N1420 1.613 1_545 S
S1419 N1421 1.610 . S
N1420 S1419 1.613 1_565 S
N1420 C1423 1.350 . S
N1421 S1419 1.610 . S
N1421 C1422 1.351 . S
C1422 C1416 1.462 . S
C1422 N1421 1.351 . S
C1422 C1423 1.434 1_545 S
C1423 C1414 1.429 . S
C1423 N1420 1.350 . S
C1423 C1422 1.434 1_565 S
C1424 C1425 1.376 1_554 S
C1424 C1426 1.419 1_655 S
C1424 H1428 0.930 . S
C1425 C1424 1.376 1_556 S
C1425 C1434 1.423 . S
C1426 C1424 1.419 1_455 S
C1426 C1427 1.363 . S
C1426 H1429 0.929 . S
C1427 C1426 1.363 . S
C1427 C1433 1.428 1_554 S
H1428 C1424 0.930 . S
H1429 C1426 0.929 . S
S1430 N1431 1.613 1_455 S
S1430 N1432 1.610 . S
N1431 S1430 1.613 1_655 S
N1431 C1434 1.350 . S
N1432 S1430 1.610 . S
N1432 C1433 1.351 . S
C1433 C1427 1.428 1_556 S
C1433 N1432 1.351 . S
C1433 C1434 1.434 1_455 S
C1434 C1425 1.423 . S
C1434 N1431 1.350 . S
C1434 C1433 1.434 1_655 S
C1435 C1436 1.369 . S
C1435 C1437 1.419 1_554 S
C1435 H1439 0.930 1_554 S
C1436 C1435 1.369 . S
C1436 C1445 1.429 . S
C1437 C1435 1.419 1_556 S
C1437 C1438 1.360 1_556 S
C1437 H1440 0.929 . S
C1438 C1437 1.360 1_554 S
C1438 C1444 1.435 . S
H1439 C1435 0.930 1_556 S
H1440 C1437 0.929 . S
S1441 N1442 1.613 . S
S1441 N1443 1.610 . S
N1442 S1441 1.613 . S
N1442 C1445 1.350 . S
N1443 S1441 1.610 . S
N1443 C1444 1.351 . S
C1444 C1438 1.435 . S
C1444 N1443 1.351 . S
C1444 C1445 1.434 . S
C1445 C1436 1.429 . S
C1445 N1442 1.350 . S
C1445 C1444 1.434 . S
C1446 C1447 1.369 . S
C1446 C1448 1.419 1_455 S
C1446 H1450 0.930 . S
C1447 C1446 1.369 . S
C1447 C1456 1.429 . S
C1448 C1446 1.419 1_655 S
C1448 C1449 1.363 . S
C1448 H1451 0.929 . S
C1449 C1448 1.363 . S
C1449 C1455 1.428 . S
H1450 C1446 0.930 . S
H1451 C1448 0.929 . S
S1452 N1453 1.613 1_655 S
S1452 N1454 1.610 . S
N1453 S1452 1.613 1_455 S
N1453 C1456 1.350 . S
N1454 S1452 1.610 . S
N1454 C1455 1.351 . S
C1455 C1449 1.428 . S
C1455 N1454 1.351 . S
C1455 C1456 1.434 1_655 S
C1456 C1447 1.429 . S
C1456 N1453 1.350 . S
C1456 C1455 1.434 1_455 S
C1457 C1458 1.369 . S
C1457 C1459 1.419 . S
C1457 H1461 0.930 . S
C1458 C1457 1.369 . S
C1458 C1467 1.429 . S
C1459 C1457 1.419 . S
C1459 C1460 1.363 . S
C1459 H1462 0.929 . S
C1460 C1459 1.363 . S
C1460 C1466 1.428 . S
H1461 C1457 0.930 . S
H1462 C1459 0.929 . S
S1463 N1464 1.613 . S
S1463 N1465 1.610 . S
N1464 S1463 1.613 . S
N1464 C1467 1.350 . S
N1465 S1463 1.610 . S
N1465 C1466 1.351 . S
C1466 C1460 1.428 . S
C1466 N1465 1.351 . S
C1466 C1467 1.434 . S
C1467 C1458 1.429 . S
C1467 N1464 1.350 . S
C1467 C1466 1.434 . S
C1468 C1469 1.369 . S
C1468 C1470 1.419 1_565 S
C1468 H1472 0.930 . S
C1469 C1468 1.369 . S
C1469 C1478 1.429 . S
C1470 C1468 1.419 1_545 S
C1470 C1471 1.363 . S
C1470 H1473 0.929 . S
C1471 C1470 1.363 . S
C1471 C1477 1.428 . S
H1472 C1468 0.930 . S
H1473 C1470 0.929 . S
S1474 N1475 1.613 1_545 S
S1474 N1476 1.610 . S
N1475 S1474 1.613 1_565 S
N1475 C1478 1.350 . S
N1476 S1474 1.610 . S
N1476 C1477 1.351 . S
C1477 C1471 1.428 . S
C1477 N1476 1.351 . S
C1477 C1478 1.434 1_545 S
C1478 C1469 1.429 . S
C1478 N1475 1.350 . S
C1478 C1477 1.434 1_565 S
C1479 C1480 1.369 . S
C1479 C1481 1.419 . S
C1479 H1483 0.930 . S
C1480 C1479 1.369 . S
C1480 C1489 1.429 . S
C1481 C1479 1.419 . S
C1481 C1482 1.363 . S
C1481 H1484 0.929 . S
C1482 C1481 1.363 . S
C1482 C1488 1.428 . S
H1483 C1479 0.930 . S
H1484 C1481 0.929 . S
S1485 N1486 1.613 . S
S1485 N1487 1.610 1_455 S
N1486 S1485 1.613 . S
N1486 C1489 1.350 1_455 S
N1487 S1485 1.610 1_655 S
N1487 C1488 1.351 . S
C1488 C1482 1.428 . S
C1488 N1487 1.351 . S
C1488 C1489 1.434 . S
C1489 C1480 1.429 . S
C1489 N1486 1.350 1_655 S
C1489 C1488 1.434 . S
C1490 C1491 1.369 . S
C1490 C1492 1.419 . S
C1490 H1494 0.930 . S
C1491 C1490 1.369 . S
C1491 C1500 1.429 . S
C1492 C1490 1.419 . S
C1492 C1493 1.363 . S
C1492 H1495 0.929 . S
C1493 C1492 1.363 . S
C1493 C1499 1.428 . S
H1494 C1490 0.930 . S
H1495 C1492 0.929 . S
S1496 N1497 1.613 . S
S1496 N1498 1.610 . S
N1497 S1496 1.613 . S
N1497 C1500 1.350 . S
N1498 S1496 1.610 . S
N1498 C1499 1.351 . S
C1499 C1493 1.428 . S
C1499 N1498 1.351 . S
C1499 C1500 1.434 . S
C1500 C1491 1.429 . S
C1500 N1497 1.350 . S
C1500 C1499 1.434 . S
C1501 C1502 1.369 . S
C1501 C1503 1.419 . S
C1501 H1505 0.930 . S
C1502 C1501 1.369 . S
C1502 C1511 1.429 . S
C1503 C1501 1.419 . S
C1503 C1504 1.363 . S
C1503 H1506 0.929 . S
C1504 C1503 1.363 . S
C1504 C1510 1.428 . S
H1505 C1501 0.930 . S
H1506 C1503 0.929 . S
S1507 N1508 1.613 . S
S1507 N1509 1.610 . S
N1508 S1507 1.613 . S
N1508 C1511 1.350 . S
N1509 S1507 1.610 . S
N1509 C1510 1.351 . S
C1510 C1504 1.428 . S
C1510 N1509 1.351 . S
C1510 C1511 1.434 . S
C1511 C1502 1.429 . S
C1511 N1508 1.350 . S
C1511 C1510 1.434 . S
C1512 C1513 1.369 . S
C1512 C1514 1.419 . S
C1512 H1516 0.930 . S
C1513 C1512 1.369 . S
C1513 C1522 1.429 . S
C1514 C1512 1.419 . S
C1514 C1515 1.363 . S
C1514 H1517 0.929 . S
C1515 C1514 1.363 . S
C1515 C1521 1.428 . S
H1516 C1512 0.930 . S
H1517 C1514 0.929 . S
S1518 N1519 1.613 . S
S1518 N1520 1.610 . S
N1519 S1518 1.613 . S
N1519 C1522 1.350 . S
N1520 S1518 1.610 . S
N1520 C1521 1.351 . S
C1521 C1515 1.428 . S
C1521 N1520 1.351 . S
C1521 C1522 1.434 . S
C1522 C1513 1.429 . S
C1522 N1519 1.350 . S
C1522 C1521 1.434 . S
C1523 C1524 1.369 . S
C1523 C1525 1.419 . S
C1523 H1527 0.930 . S
C1524 C1523 1.369 . S
C1524 C1533 1.429 . S
C1525 C1523 1.419 . S
C1525 C1526 1.363 . S
C1525 H1528 0.929 . S
C1526 C1525 1.363 . S
C1526 C1532 1.428 . S
H1527 C1523 0.930 . S
H1528 C1525 0.929 . S
S1529 N1530 1.613 . S
S1529 N1531 1.610 . S
N1530 S1529 1.613 . S
N1530 C1533 1.350 . S
N1531 S1529 1.610 . S
N1531 C1532 1.351 . S
C1532 C1526 1.428 . S
C1532 N1531 1.351 . S
C1532 C1533 1.434 . S
C1533 C1524 1.429 . S
C1533 N1530 1.350 . S
C1533 C1532 1.434 . S
C1534 C1535 1.369 . S
C1534 C1536 1.419 . S
C1534 H1538 0.930 . S
C1535 C1534 1.369 . S
C1535 C1544 1.429 . S
C1536 C1534 1.419 . S
C1536 C1537 1.363 . S
C1536 H1539 0.929 . S
C1537 C1536 1.363 . S
C1537 C1543 1.428 . S
H1538 C1534 0.930 . S
H1539 C1536 0.929 . S
S1540 N1541 1.613 1_655 S
S1540 N1542 1.610 1_655 S
N1541 S1540 1.613 1_455 S
N1541 C1544 1.350 . S
N1542 S1540 1.610 1_455 S
N1542 C1543 1.351 . S
C1543 C1537 1.428 . S
C1543 N1542 1.351 . S
C1543 C1544 1.434 . S
C1544 C1535 1.429 . S
C1544 N1541 1.350 . S
C1544 C1543 1.434 . S
C1545 C1546 1.369 . S
C1545 C1547 1.419 . S
C1545 H1549 0.930 . S
C1546 C1545 1.369 . S
C1546 C1555 1.429 . S
C1547 C1545 1.419 . S
C1547 C1548 1.363 . S
C1547 H1550 0.929 . S
C1548 C1547 1.363 . S
C1548 C1554 1.428 . S
H1549 C1545 0.930 . S
H1550 C1547 0.929 . S
S1551 N1552 1.613 . S
S1551 N1553 1.610 . S
N1552 S1551 1.613 . S
N1552 C1555 1.350 . S
N1553 S1551 1.610 . S
N1553 C1554 1.351 . S
C1554 C1548 1.428 . S
C1554 N1553 1.351 . S
C1554 C1555 1.434 . S
C1555 C1546 1.429 . S
C1555 N1552 1.350 . S
C1555 C1554 1.434 . S
C1556 C1557 1.369 . S
C1556 C1558 1.419 . S
C1556 H1560 0.930 . S
C1557 C1556 1.369 . S
C1557 C1566 1.429 . S
C1558 C1556 1.419 . S
C1558 C1559 1.363 . S
C1558 H1561 0.929 . S
C1559 C1558 1.363 . S
C1559 C1565 1.428 . S
H1560 C1556 0.930 . S
H1561 C1558 0.929 . S
S1562 N1563 1.613 . S
S1562 N1564 1.610 . S
N1563 S1562 1.613 . S
N1563 C1566 1.350 . S
N1564 S1562 1.610 . S
N1564 C1565 1.351 . S
C1565 C1559 1.428 . S
C1565 N1564 1.351 . S
C1565 C1566 1.434 . S
C1566 C1557 1.429 . S
C1566 N1563 1.350 . S
C1566 C1565 1.434 . S
C1567 C1568 1.369 . S
C1567 C1569 1.419 . S
C1567 H1571 0.930 . S
C1568 C1567 1.369 . S
C1568 C1577 1.429 . S
C1569 C1567 1.419 . S
C1569 C1570 1.363 . S
C1569 H1572 0.929 . S
C1570 C1569 1.363 . S
C1570 C1576 1.428 . S
H1571 C1567 0.930 . S
H1572 C1569 0.929 . S
S1573 N1574 1.613 . S
S1573 N1575 1.610 . S
N1574 S1573 1.613 . S
N1574 C1577 1.350 . S
N1575 S1573 1.610 . S
N1575 C1576 1.351 . S
C1576 C1570 1.428 . S
C1576 N1575 1.351 . S
C1576 C1577 1.434 . S
C1577 C1568 1.429 . S
C1577 N1574 1.350 . S
C1577 C1576 1.434 . S
C1578 C1579 1.369 . S
C1578 C1580 1.419 . S
C1578 H1582 0.930 . S
C1579 C1578 1.369 . S
C1579 C1588 1.429 . S
C1580 C1578 1.419 . S
C1580 C1581 1.363 . S
C1580 H1583 0.929 . S
C1581 C1580 1.363 . S
C1581 C1587 1.428 . S
H1582 C1578 0.930 . S
H1583 C1580 0.929 . S
S1584 N1585 1.613 . S
S1584 N1586 1.610 . S
N1585 S1584 1.613 . S
N1585 C1588 1.350 . S
N1586 S1584 1.610 . S
N1586 C1587 1.351 . S
C1587 C1581 1.428 . S
C1587 N1586 1.351 . S
C1587 C1588 1.434 . S
C1588 C1579 1.429 . S
C1588 N1585 1.350 . S
C1588 C1587 1.434 . S
C1589 C1590 1.369 . S
C1589 C1591 1.419 . S
C1589 H1593 0.930 . S
C1590 C1589 1.369 . S
C1590 C1599 1.429 . S
C1591 C1589 1.419 . S
C1591 C1592 1.363 . S
C1591 H1594 0.929 . S
C1592 C1591 1.363 . S
C1592 C1598 1.428 . S
H1593 C1589 0.930 . S
H1594 C1591 0.929 . S
S1595 N1596 1.613 . S
S1595 N1597 1.610 . S
N1596 S1595 1.613 . S
N1596 C1599 1.350 . S
N1597 S1595 1.610 . S
N1597 C1598 1.351 . S
C1598 C1592 1.428 . S
C1598 N1597 1.351 . S
C1598 C1599 1.434 . S
C1599 C1590 1.429 . S
C1599 N1596 1.350 . S
C1599 C1598 1.434 . S
C1600 C1601 1.369 . S
C1600 C1602 1.419 . S
C1600 H1604 0.930 . S
C1601 C1600 1.369 . S
C1601 C1610 1.429 . S
C1602 C1600 1.419 . S
C1602 C1603 1.363 . S
C1602 H1605 0.929 . S
C1603 C1602 1.363 . S
C1603 C1609 1.428 . S
H1604 C1600 0.930 . S
H1605 C1602 0.929 . S
S1606 N1607 1.613 . S
S1606 N1608 1.610 . S
N1607 S1606 1.613 . S
N1607 C1610 1.350 . S
N1608 S1606 1.610 . S
N1608 C1609 1.351 . S
C1609 C1603 1.428 . S
C1609 N1608 1.351 . S
C1609 C1610 1.434 . S
C1610 C1601 1.429 . S
C1610 N1607 1.350 . S
C1610 C1609 1.434 . S
C1611 C1612 1.369 . S
C1611 C1613 1.419 . S
C1611 H1615 0.930 . S
C1612 C1611 1.369 . S
C1612 C1621 1.429 . S
C1613 C1611 1.419 . S
C1613 C1614 1.363 . S
C1613 H1616 0.929 . S
C1614 C1613 1.363 . S
C1614 C1620 1.428 . S
H1615 C1611 0.930 . S
H1616 C1613 0.929 . S
S1617 N1618 1.613 . S
S1617 N1619 1.610 . S
N1618 S1617 1.613 . S
N1618 C1621 1.350 . S
N1619 S1617 1.610 . S
N1619 C1620 1.351 . S
C1620 C1614 1.428 . S
C1620 N1619 1.351 . S
C1620 C1621 1.434 . S
C1621 C1612 1.429 . S
C1621 N1618 1.350 . S
C1621 C1620 1.434 . S
C1622 C1623 1.369 . S
C1622 C1624 1.419 . S
C1622 H1626 0.930 . S
C1623 C1622 1.369 . S
C1623 C1632 1.429 . S
C1624 C1622 1.419 . S
C1624 C1625 1.363 . S
C1624 H1627 0.929 . S
C1625 C1624 1.363 . S
C1625 C1631 1.428 . S
H1626 C1622 0.930 . S
H1627 C1624 0.929 . S
S1628 N1629 1.613 . S
S1628 N1630 1.610 . S
N1629 S1628 1.613 . S
N1629 C1632 1.350 . S
N1630 S1628 1.610 . S
N1630 C1631 1.351 . S
C1631 C1625 1.428 . S
C1631 N1630 1.351 . S
C1631 C1632 1.434 . S
C1632 C1623 1.429 . S
C1632 N1629 1.350 . S
C1632 C1631 1.434 . S
C1633 C1634 1.369 . S
C1633 C1635 1.419 . S
C1633 H1637 0.930 . S
C1634 C1633 1.369 . S
C1634 C1643 1.429 . S
C1635 C1633 1.419 . S
C1635 C1636 1.363 . S
C1635 H1638 0.929 . S
C1636 C1635 1.363 . S
C1636 C1642 1.428 . S
H1637 C1633 0.930 . S
H1638 C1635 0.929 . S
S1639 N1640 1.613 . S
S1639 N1641 1.610 . S
N1640 S1639 1.613 . S
N1640 C1643 1.350 . S
N1641 S1639 1.610 . S
N1641 C1642 1.351 . S
C1642 C1636 1.428 . S
C1642 N1641 1.351 . S
C1642 C1643 1.434 . S
C1643 C1634 1.429 . S
C1643 N1640 1.350 . S
C1643 C1642 1.434 . S
C1644 C1645 1.369 1_455 S
C1644 C1646 1.419 . S
C1644 H1648 0.930 . S
C1645 C1644 1.369 1_655 S
C1645 C1654 1.429 . S
C1646 C1644 1.419 . S
C1646 C1647 1.363 . S
C1646 H1649 0.929 . S
C1647 C1646 1.363 . S
C1647 C1653 1.428 1_455 S
H1648 C1644 0.930 . S
H1649 C1646 0.929 . S
S1650 N1651 1.613 . S
S1650 N1652 1.610 . S
N1651 S1650 1.613 . S
N1651 C1654 1.350 . S
N1652 S1650 1.610 . S
N1652 C1653 1.351 . S
C1653 C1647 1.428 1_655 S
C1653 N1652 1.351 . S
C1653 C1654 1.434 . S
C1654 C1645 1.429 . S
C1654 N1651 1.350 . S
C1654 C1653 1.434 . S
C1655 C1656 1.369 . S
C1655 C1657 1.419 . S
C1655 H1659 0.930 . S
C1656 C1655 1.369 . S
C1656 C1665 1.429 . S
C1657 C1655 1.419 . S
C1657 C1658 1.363 . S
C1657 H1660 0.929 . S
C1658 C1657 1.363 . S
C1658 C1664 1.428 . S
H1659 C1655 0.930 . S
H1660 C1657 0.929 . S
S1661 N1662 1.613 . S
S1661 N1663 1.610 . S
N1662 S1661 1.613 . S
N1662 C1665 1.350 . S
N1663 S1661 1.610 . S
N1663 C1664 1.351 . S
C1664 C1658 1.428 . S
C1664 N1663 1.351 . S
C1664 C1665 1.434 . S
C1665 C1656 1.429 . S
C1665 N1662 1.350 . S
C1665 C1664 1.434 . S
C1666 C1667 1.369 . S
C1666 C1668 1.419 . S
C1666 H1670 0.930 . S
C1667 C1666 1.369 . S
C1667 C1676 1.429 1_545 S
C1668 C1666 1.419 . S
C1668 C1669 1.363 1_545 S
C1668 H1671 0.929 . S
C1669 C1668 1.363 1_565 S
C1669 C1675 1.428 . S
H1670 C1666 0.930 . S
H1671 C1668 0.929 . S
S1672 N1673 1.613 . S
S1672 N1674 1.610 . S
N1673 S1672 1.613 . S
N1673 C1676 1.350 . S
N1674 S1672 1.610 . S
N1674 C1675 1.351 . S
C1675 C1669 1.428 . S
C1675 N1674 1.351 . S
C1675 C1676 1.434 . S
C1676 C1667 1.429 1_565 S
C1676 N1673 1.350 . S
C1676 C1675 1.434 . S
C1677 C1678 1.369 1_565 S
C1677 C1679 1.419 . S
C1677 H1681 0.930 . S
C1678 C1677 1.369 1_545 S
C1678 C1687 1.429 . S
C1679 C1677 1.419 . S
C1679 C1680 1.363 . S
C1679 H1682 0.929 . S
C1680 C1679 1.363 . S
C1680 C1686 1.428 1_565 S
H1681 C1677 0.930 . S
H1682 C1679 0.929 . S
S1683 N1684 1.613 . S
S1683 N1685 1.610 . S
N1684 S1683 1.613 . S
N1684 C1687 1.350 . S
N1685 S1683 1.610 . S
N1685 C1686 1.351 . S
C1686 C1680 1.428 1_545 S
C1686 N1685 1.351 . S
C1686 C1687 1.434 . S
C1687 C1678 1.429 . S
C1687 N1684 1.350 . S
C1687 C1686 1.434 . S
C1688 C1689 1.369 1_655 S
C1688 C1690 1.418 . S
C1688 H1692 0.930 1_655 S
C1689 C1688 1.369 1_455 S
C1689 C1698 1.429 . S
C1690 C1688 1.418 . S
C1690 C1691 1.363 . S
C1690 H1693 0.929 . S
C1691 C1690 1.363 . S
C1691 C1697 1.428 . S
H1692 C1688 0.930 1_455 S
H1693 C1690 0.929 . S
S1694 N1695 1.613 . S
S1694 N1696 1.610 1_455 S
N1695 S1694 1.613 . S
N1695 C1698 1.350 . S
N1696 S1694 1.610 1_655 S
N1696 C1697 1.351 . S
C1697 C1691 1.428 . S
C1697 N1696 1.351 . S
C1697 C1698 1.434 1_655 S
C1698 C1689 1.429 . S
C1698 N1695 1.350 . S
C1698 C1697 1.434 1_455 S
C1699 C1700 1.369 . S
C1699 C1701 1.419 . S
C1699 H1703 0.930 . S
C1700 C1699 1.369 . S
C1700 C1709 1.429 . S
C1701 C1699 1.419 . S
C1701 C1702 1.363 . S
C1701 H1704 0.929 . S
C1702 C1701 1.363 . S
C1702 C1708 1.428 . S
H1703 C1699 0.930 . S
H1704 C1701 0.929 . S
S1705 N1706 1.613 . S
S1705 N1707 1.610 . S
N1706 S1705 1.613 . S
N1706 C1709 1.350 . S
N1707 S1705 1.610 . S
N1707 C1708 1.351 . S
C1708 C1702 1.428 . S
C1708 N1707 1.351 . S
C1708 C1709 1.434 . S
C1709 C1700 1.429 . S
C1709 N1706 1.350 . S
C1709 C1708 1.434 . S
C1710 C1711 1.369 . S
C1710 C1712 1.419 . S
C1710 H1714 0.930 . S
C1711 C1710 1.369 . S
C1711 C1720 1.429 1_655 S
C1712 C1710 1.419 . S
C1712 C1713 1.363 1_655 S
C1712 H1715 0.929 . S
C1713 C1712 1.363 1_455 S
C1713 C1719 1.428 . S
H1714 C1710 0.930 . S
H1715 C1712 0.929 . S
S1716 N1717 1.613 . S
S1716 N1718 1.610 . S
N1717 S1716 1.613 . S
N1717 C1720 1.350 . S
N1718 S1716 1.610 . S
N1718 C1719 1.351 . S
C1719 C1713 1.428 . S
C1719 N1718 1.351 . S
C1719 C1720 1.434 . S
C1720 C1711 1.429 1_455 S
C1720 N1717 1.350 . S
C1720 C1719 1.434 . S
C1721 C1722 1.369 . S
C1721 C1723 1.419 . S
C1721 H1725 0.930 . S
C1722 C1721 1.369 . S
C1722 C1731 1.429 . S
C1723 C1721 1.419 . S
C1723 C1724 1.363 . S
C1723 H1726 0.929 . S
C1724 C1723 1.363 . S
C1724 C1730 1.428 . S
H1725 C1721 0.930 . S
H1726 C1723 0.929 . S
S1727 N1728 1.613 . S
S1727 N1729 1.610 . S
N1728 S1727 1.613 . S
N1728 C1731 1.350 . S
N1729 S1727 1.610 . S
N1729 C1730 1.351 . S
C1730 C1724 1.428 . S
C1730 N1729 1.351 . S
C1730 C1731 1.434 . S
C1731 C1722 1.429 . S
C1731 N1728 1.350 . S
C1731 C1730 1.434 . S
C1732 C1733 1.369 . S
C1732 C1734 1.419 1_545 S
C1732 H1736 0.930 . S
C1733 C1732 1.369 . S
C1733 C1742 1.429 . S
C1734 C1732 1.419 1_565 S
C1734 C1735 1.363 . S
C1734 H1737 0.929 . S
C1735 C1734 1.363 . S
C1735 C1741 1.428 . S
H1736 C1732 0.930 . S
H1737 C1734 0.929 . S
S1738 N1739 1.613 . S
S1738 N1740 1.610 1_545 S
N1739 S1738 1.613 . S
N1739 C1742 1.350 . S
N1740 S1738 1.610 1_565 S
N1740 C1741 1.351 . S
C1741 C1735 1.428 . S
C1741 N1740 1.351 . S
C1741 C1742 1.434 1_565 S
C1742 C1733 1.429 . S
C1742 N1739 1.350 . S
C1742 C1741 1.434 1_545 S
C1743 C1744 1.369 . S
C1743 C1745 1.419 . S
C1743 H1747 0.930 . S
C1744 C1743 1.369 . S
C1744 C1753 1.429 1_655 S
C1745 C1743 1.419 . S
C1745 C1746 1.363 1_655 S
C1745 H1748 0.929 . S
C1746 C1745 1.363 1_455 S
C1746 C1752 1.428 . S
H1747 C1743 0.930 . S
H1748 C1745 0.929 . S
S1749 N1750 1.613 . S
S1749 N1751 1.610 . S
N1750 S1749 1.613 . S
N1750 C1753 1.350 . S
N1751 S1749 1.610 . S
N1751 C1752 1.351 . S
C1752 C1746 1.428 . S
C1752 N1751 1.351 . S
C1752 C1753 1.434 . S
C1753 C1744 1.429 1_455 S
C1753 N1750 1.350 . S
C1753 C1752 1.434 . S
C1754 C1755 1.369 . S
C1754 C1756 1.419 . S
C1754 H1758 0.930 . S
C1755 C1754 1.369 . S
C1755 C1764 1.429 . S
C1756 C1754 1.419 . S
C1756 C1757 1.363 . S
C1756 H1759 0.929 . S
C1757 C1756 1.363 . S
C1757 C1763 1.428 . S
H1758 C1754 0.930 . S
H1759 C1756 0.929 . S
S1760 N1761 1.613 . S
S1760 N1762 1.610 . S
N1761 S1760 1.613 . S
N1761 C1764 1.350 . S
N1762 S1760 1.610 . S
N1762 C1763 1.351 . S
C1763 C1757 1.428 . S
C1763 N1762 1.351 . S
C1763 C1764 1.434 . S
C1764 C1755 1.429 . S
C1764 N1761 1.350 . S
C1764 C1763 1.434 . S
C1765 C1766 1.369 . S
C1765 C1767 1.419 . S
C1765 H1769 0.930 . S
C1766 C1765 1.369 . S
C1766 C1775 1.429 1_545 S
C1767 C1765 1.419 . S
C1767 C1768 1.363 1_545 S
C1767 H1770 0.929 . S
C1768 C1767 1.363 1_565 S
C1768 C1774 1.428 . S
H1769 C1765 0.930 . S
H1770 C1767 0.929 . S
S1771 N1772 1.613 . S
S1771 N1773 1.610 . S
N1772 S1771 1.613 . S
N1772 C1775 1.350 . S
N1773 S1771 1.610 . S
N1773 C1774 1.351 . S
C1774 C1768 1.428 . S
C1774 N1773 1.351 . S
C1774 C1775 1.434 . S
C1775 C1766 1.429 1_565 S
C1775 N1772 1.350 . S
C1775 C1774 1.434 . S
C1776 C1777 1.369 . S
C1776 C1778 1.419 . S
C1776 H1780 0.930 . S
C1777 C1776 1.369 . S
C1777 C1786 1.429 . S
C1778 C1776 1.419 . S
C1778 C1779 1.363 . S
C1778 H1781 0.929 . S
C1779 C1778 1.363 . S
C1779 C1785 1.428 . S
H1780 C1776 0.930 . S
H1781 C1778 0.929 . S
S1782 N1783 1.613 . S
S1782 N1784 1.610 . S
N1783 S1782 1.613 . S
N1783 C1786 1.350 . S
N1784 S1782 1.610 . S
N1784 C1785 1.351 . S
C1785 C1779 1.428 . S
C1785 N1784 1.351 . S
C1785 C1786 1.434 . S
C1786 C1777 1.429 . S
C1786 N1783 1.350 . S
C1786 C1785 1.434 . S
C1787 C1788 1.369 . S
C1787 C1789 1.419 . S
C1787 H1791 0.930 . S
C1788 C1787 1.369 . S
C1788 C1797 1.429 . S
C1789 C1787 1.419 . S
C1789 C1790 1.363 . S
C1789 H1792 0.929 . S
C1790 C1789 1.363 . S
C1790 C1796 1.428 . S
H1791 C1787 0.930 . S
H1792 C1789 0.929 . S
S1793 N1794 1.613 . S
S1793 N1795 1.610 . S
N1794 S1793 1.613 . S
N1794 C1797 1.350 . S
N1795 S1793 1.610 . S
N1795 C1796 1.351 . S
C1796 C1790 1.428 . S
C1796 N1795 1.351 . S
C1796 C1797 1.434 . S
C1797 C1788 1.429 . S
C1797 N1794 1.350 . S
C1797 C1796 1.434 . S
C1798 C1799 1.369 . S
C1798 C1800 1.419 . S
C1798 H1802 0.930 . S
C1799 C1798 1.369 . S
C1799 C1808 1.429 . S
C1800 C1798 1.419 . S
C1800 C1801 1.363 . S
C1800 H1803 0.929 . S
C1801 C1800 1.363 . S
C1801 C1807 1.428 . S
H1802 C1798 0.930 . S
H1803 C1800 0.929 . S
S1804 N1805 1.613 . S
S1804 N1806 1.610 . S
N1805 S1804 1.613 . S
N1805 C1808 1.350 . S
N1806 S1804 1.610 . S
N1806 C1807 1.351 . S
C1807 C1801 1.428 . S
C1807 N1806 1.351 . S
C1807 C1808 1.434 . S
C1808 C1799 1.429 . S
C1808 N1805 1.350 . S
C1808 C1807 1.434 . S
C1809 C1810 1.369 . S
C1809 C1811 1.419 . S
C1809 H1813 0.930 . S
C1810 C1809 1.369 . S
C1810 C1819 1.429 . S
C1811 C1809 1.419 . S
C1811 C1812 1.363 . S
C1811 H1814 0.929 . S
C1812 C1811 1.363 . S
C1812 C1818 1.428 . S
H1813 C1809 0.930 . S
H1814 C1811 0.929 . S
S1815 N1816 1.613 . S
S1815 N1817 1.610 . S
N1816 S1815 1.613 . S
N1816 C1819 1.350 . S
N1817 S1815 1.610 . S
N1817 C1818 1.351 . S
C1818 C1812 1.428 . S
C1818 N1817 1.351 . S
C1818 C1819 1.434 . S
C1819 C1810 1.429 . S
C1819 N1816 1.350 . S
C1819 C1818 1.434 . S
C1820 C1821 1.369 . S
C1820 C1822 1.419 . S
C1820 H1824 0.930 . S
C1821 C1820 1.369 . S
C1821 C1830 1.429 . S
C1822 C1820 1.419 . S
C1822 C1823 1.363 . S
C1822 H1825 0.929 . S
C1823 C1822 1.363 . S
C1823 C1829 1.428 . S
H1824 C1820 0.930 . S
H1825 C1822 0.929 . S
S1826 N1827 1.613 . S
S1826 N1828 1.610 . S
N1827 S1826 1.613 . S
N1827 C1830 1.350 . S
N1828 S1826 1.610 . S
N1828 C1829 1.351 . S
C1829 C1823 1.428 . S
C1829 N1828 1.351 . S
C1829 C1830 1.434 . S
C1830 C1821 1.429 . S
C1830 N1827 1.350 . S
C1830 C1829 1.434 . S
C1831 C1832 1.369 . S
C1831 C1833 1.419 . S
C1831 H1835 0.930 . S
C1832 C1831 1.369 . S
C1832 C1841 1.429 . S
C1833 C1831 1.419 . S
C1833 C1834 1.363 . S
C1833 H1836 0.929 . S
C1834 C1833 1.363 . S
C1834 C1840 1.428 . S
H1835 C1831 0.930 . S
H1836 C1833 0.929 . S
S1837 N1838 1.613 . S
S1837 N1839 1.610 . S
N1838 S1837 1.613 . S
N1838 C1841 1.350 . S
N1839 S1837 1.610 . S
N1839 C1840 1.351 . S
C1840 C1834 1.428 . S
C1840 N1839 1.351 . S
C1840 C1841 1.434 . S
C1841 C1832 1.429 . S
C1841 N1838 1.350 . S
C1841 C1840 1.434 . S
C1842 C1843 1.369 . S
C1842 C1844 1.419 . S
C1842 H1846 0.930 . S
C1843 C1842 1.369 . S
C1843 C1852 1.429 . S
C1844 C1842 1.419 . S
C1844 C1845 1.363 . S
C1844 H1847 0.929 . S
C1845 C1844 1.363 . S
C1845 C1851 1.428 . S
H1846 C1842 0.930 . S
H1847 C1844 0.929 . S
S1848 N1849 1.613 . S
S1848 N1850 1.610 . S
N1849 S1848 1.613 . S
N1849 C1852 1.350 . S
N1850 S1848 1.610 . S
N1850 C1851 1.351 . S
C1851 C1845 1.428 . S
C1851 N1850 1.351 . S
C1851 C1852 1.434 . S
C1852 C1843 1.429 . S
C1852 N1849 1.350 . S
C1852 C1851 1.434 . S
C1853 C1854 1.369 . S
C1853 C1855 1.419 . S
C1853 H1857 0.930 . S
C1854 C1853 1.369 . S
C1854 C1863 1.429 . S
C1855 C1853 1.419 . S
C1855 C1856 1.363 . S
C1855 H1858 0.929 . S
C1856 C1855 1.363 . S
C1856 C1862 1.428 . S
H1857 C1853 0.930 . S
H1858 C1855 0.929 . S
S1859 N1860 1.613 . S
S1859 N1861 1.610 . S
N1860 S1859 1.613 . S
N1860 C1863 1.350 . S
N1861 S1859 1.610 . S
N1861 C1862 1.351 . S
C1862 C1856 1.428 . S
C1862 N1861 1.351 . S
C1862 C1863 1.434 . S
C1863 C1854 1.429 . S
C1863 N1860 1.350 . S
C1863 C1862 1.434 . S
C1864 C1865 1.369 . S
C1864 C1866 1.419 . S
C1864 H1868 0.930 . S
C1865 C1864 1.369 . S
C1865 C1874 1.429 . S
C1866 C1864 1.419 . S
C1866 C1867 1.363 . S
C1866 H1869 0.929 . S
C1867 C1866 1.363 . S
C1867 C1873 1.428 . S
H1868 C1864 0.930 . S
H1869 C1866 0.929 . S
S1870 N1871 1.613 . S
S1870 N1872 1.610 . S
N1871 S1870 1.613 . S
N1871 C1874 1.350 . S
N1872 S1870 1.610 . S
N1872 C1873 1.351 . S
C1873 C1867 1.428 . S
C1873 N1872 1.351 . S
C1873 C1874 1.434 . S
C1874 C1865 1.429 . S
C1874 N1871 1.350 . S
C1874 C1873 1.434 . S
C1875 C1876 1.369 . S
C1875 C1877 1.419 . S
C1875 H1879 0.930 . S
C1876 C1875 1.369 . S
C1876 C1885 1.429 . S
C1877 C1875 1.419 . S
C1877 C1878 1.363 . S
C1877 H1880 0.929 . S
C1878 C1877 1.363 . S
C1878 C1884 1.428 . S
H1879 C1875 0.930 . S
H1880 C1877 0.929 . S
S1881 N1882 1.613 . S
S1881 N1883 1.610 . S
N1882 S1881 1.613 . S
N1882 C1885 1.350 . S
N1883 S1881 1.610 . S
N1883 C1884 1.351 . S
C1884 C1878 1.428 . S
C1884 N1883 1.351 . S
C1884 C1885 1.434 . S
C1885 C1876 1.429 . S
C1885 N1882 1.350 . S
C1885 C1884 1.434 . S
C1886 C1887 1.369 . S
C1886 C1888 1.419 . S
C1886 H1890 0.930 . S
C1887 C1886 1.369 . S
C1887 C1896 1.429 . S
C1888 C1886 1.419 . S
C1888 C1889 1.363 . S
C1888 H1891 0.929 . S
C1889 C1888 1.363 . S
C1889 C1895 1.428 . S
H1890 C1886 0.930 . S
H1891 C1888 0.929 . S
S1892 N1893 1.613 . S
S1892 N1894 1.610 . S
N1893 S1892 1.613 . S
N1893 C1896 1.350 . S
N1894 S1892 1.610 . S
N1894 C1895 1.351 . S
C1895 C1889 1.428 . S
C1895 N1894 1.351 . S
C1895 C1896 1.434 . S
C1896 C1887 1.429 . S
C1896 N1893 1.350 . S
C1896 C1895 1.434 . S
C1897 C1898 1.369 . S
C1897 C1899 1.419 . S
C1897 H1901 0.930 . S
C1898 C1897 1.369 . S
C1898 C1907 1.429 . S
C1899 C1897 1.419 . S
C1899 C1900 1.363 . S
C1899 H1902 0.929 . S
C1900 C1899 1.363 . S
C1900 C1906 1.428 . S
H1901 C1897 0.930 . S
H1902 C1899 0.929 . S
S1903 N1904 1.613 . S
S1903 N1905 1.610 . S
N1904 S1903 1.613 . S
N1904 C1907 1.350 . S
N1905 S1903 1.610 . S
N1905 C1906 1.351 . S
C1906 C1900 1.428 . S
C1906 N1905 1.351 . S
C1906 C1907 1.434 . S
C1907 C1898 1.429 . S
C1907 N1904 1.350 . S
C1907 C1906 1.434 . S
C721 C8 1.496 . S
C723 C59 1.552 1_545 S
C732 C19 1.555 1_655 S
C734 C28 1.500 1_545 S
C743 C48 1.503 1_655 S
C745 C39 1.555 . S
C754 C68 1.533 . S
C756 C99 1.584 1_455 S
C765 C119 1.586 . S
C767 C88 1.531 1_565 S
C776 C108 1.528 1_455 S
C778 C79 1.584 1_565 S
C787 C129 1.495 . S
C789 C178 1.553 1_565 S
C798 C149 1.499 1_565 S
C800 C138 1.552 1_455 S
C809 C169 1.501 1_455 S
C811 C158 1.555 . S
C820 C189 1.536 . S
C822 C218 1.586 1_655 S
C831 C238 1.583 . S
C833 C209 1.528 1_545 S
C842 C198 1.583 1_545 S
C844 C229 1.528 1_655 S
C853 C299 1.583 . S
C855 C248 1.531 . S
C864 C268 1.529 . S
C866 C259 1.583 . S
C875 C279 1.579 . S
C877 C288 1.526 . S
C886 C308 1.536 . S
C888 C339 1.592 . S
C897 C359 1.595 . S
C899 C328 1.544 . S
C908 C319 1.596 . S
C910 C348 1.544 . S
C919 C369 1.522 . S
C921 C418 1.572 . S
C930 C389 1.513 . S
C932 C378 1.570 . S
C941 C398 1.569 . S
C943 C409 1.518 . S
C952 C458 1.526 . S
C954 C429 1.466 1_554 S
C963 C449 1.485 1_554 S
C965 C478 1.529 . S
C974 C438 1.527 . S
C976 C469 1.462 1_554 S
C985 C488 1.514 . S
C987 C539 1.570 . S
C996 C508 1.516 . S
C998 C499 1.569 . S
C1007 C528 1.517 . S
C1009 C519 1.572 . S
C1018 C548 1.487 1_556 S
C1020 C579 1.528 . S
C1029 C568 1.467 1_556 S
C1031 C599 1.527 . S
C1040 C588 1.465 1_556 S
C1042 C559 1.526 . S
C1051 C609 1.531 . S
C1053 C658 1.581 . S
C1062 C629 1.532 . S
C1064 C618 1.583 . S
C1073 C638 1.579 . S
C1075 C649 1.524 . S
C1084 C669 1.545 . S
C1086 C698 1.595 . S
C1095 C689 1.546 . S
C1097 C718 1.595 . S
C1106 C678 1.594 . S
C1108 C709 1.539 . S
C1117 C18 1.465 . S
C1119 C408 1.489 . S
C1128 C368 1.487 1_565 S
C1130 C38 1.471 . S
C1139 C58 1.473 . S
C1141 C388 1.489 1_455 S
C1150 C78 1.422 . S
C1152 C688 1.436 . S
C1161 C708 1.436 1_545 S
C1163 C98 1.424 . S
C1172 C118 1.425 . S
C1174 C668 1.432 1_655 S
C1183 C529 1.489 . S
C1185 C139 1.473 . S
C1194 C159 1.466 . S
C1196 C489 1.488 1_545 S
C1205 C179 1.470 . S
C1207 C509 1.487 1_655 S
C1216 C329 1.437 . S
C1218 C199 1.421 . S
C1227 C349 1.437 1_565 S
C1229 C219 1.421 . S
C1238 C309 1.429 1_455 S
C1240 C239 1.420 . S
C1249 C258 1.445 . S
C1251 C648 1.464 . S
C1260 C278 1.449 . S
C1262 C608 1.461 . S
C1271 C628 1.460 . S
C1273 C298 1.441 . S
C1282 C208 1.449 . S
C1284 C318 1.440 1_455 S
C1293 C228 1.448 . S
C1295 C338 1.440 . S
C1304 C188 1.448 . S
C1306 C358 1.440 1_565 S
C1315 C49 1.485 . S
C1317 C379 1.468 1_565 S
C1326 C399 1.461 1_455 S
C1328 C9 1.486 . S
C1337 C419 1.465 . S
C1339 C29 1.484 . S
C1348 C569 1.449 . S
C1350 C439 1.451 . S
C1359 C589 1.448 . S
C1361 C459 1.450 . S
C1370 C479 1.453 . S
C1372 C549 1.451 . S
C1381 C168 1.489 . S
C1383 C498 1.469 1_545 S
C1392 C128 1.489 . S
C1394 C518 1.469 1_655 S
C1403 C148 1.490 . S
C1405 C538 1.467 . S
C1414 C558 1.448 . S
C1416 C448 1.448 . S
C1425 C468 1.454 1_556 S
C1427 C578 1.445 . S
C1436 C598 1.453 . S
C1438 C428 1.450 . S
C1447 C619 1.440 . S
C1449 C289 1.461 . S
C1458 C639 1.447 . S
C1460 C249 1.463 . S
C1469 C659 1.441 . S
C1471 C269 1.459 . S
C1480 C679 1.436 1_655 S
C1482 C89 1.447 . S
C1491 C109 1.449 . S
C1493 C699 1.433 . S
C1502 C69 1.453 . S
C1504 C719 1.436 1_545 S
C1513 C582 1.807 . S
C1515 C2 1.799 . S
C1524 C542 1.811 . S
C1526 C22 1.803 . S
C1535 C42 1.811 . S
C1537 C562 1.803 . S
C1546 C262 1.936 . S
C1548 C62 1.937 . S
C1557 C82 1.939 . S
C1559 C282 1.937 . S
C1568 C102 1.941 . S
C1570 C242 1.939 . S
C1579 C121 1.807 . S
C1581 C461 1.803 . S
C1590 C141 1.813 . S
C1592 C421 1.801 . S
C1601 C161 1.812 . S
C1603 C441 1.799 . S
C1612 C621 1.936 . S
C1614 C181 1.937 . S
C1623 C641 1.937 . S
C1625 C201 1.940 . S
C1634 C601 1.940 . S
C1636 C221 1.935 . S
C1645 C302 1.977 . S
C1647 C502 1.979 . S
C1656 C322 1.977 . S
C1658 C522 1.976 . S
C1667 C342 1.977 . S
C1669 C482 1.977 . S
C1678 C361 1.975 . S
C1680 C701 1.976 . S
C1689 C661 1.972 . S
C1691 C381 1.975 . S
C1700 C401 1.974 . S
C1702 C681 1.975 . S
C1711 C81 1.415 . S
C1713 C1 1.418 . S
C1722 C101 1.416 . S
C1724 C21 1.418 . S
C1733 C61 1.420 . S
C1735 C41 1.421 . S
C1744 C122 1.420 . S
C1746 C202 1.419 . S
C1755 C222 1.419 . S
C1757 C142 1.420 . S
C1766 C162 1.421 . S
C1768 C182 1.420 . S
C1777 C321 1.462 . S
C1779 C241 1.463 . S
C1788 C341 1.462 . S
C1790 C261 1.463 . S
C1799 C301 1.461 . S
C1801 C281 1.462 . S
C1810 C442 1.564 . S
C1812 C362 1.583 . S
C1821 C382 1.575 . S
C1823 C462 1.569 . S
C1832 C402 1.574 . S
C1834 C422 1.567 . S
C1843 C481 1.574 . S
C1845 C561 1.567 . S
C1854 C581 1.565 . S
C1856 C501 1.583 . S
C1865 C521 1.575 . S
C1867 C541 1.569 . S
C1876 C602 1.459 . S
C1878 C682 1.458 . S
C1887 C702 1.459 . S
C1889 C622 1.460 . S
C1898 C642 1.463 . S
C1900 C662 1.462 . S
