# Generated by pormake.
# Topology wme, (6)-cn, num edge types: 1
# Building blocks:
#     Node 0, Type 0, BuildingBlock: MIFKUJ_clean_sbu_0, # of connection points: 6
#     Node 1, Type 0, BuildingBlock: MIFKUJ_clean_sbu_0, # of connection points: 6
#     Node 2, Type 0, BuildingBlock: MIFKUJ_clean_sbu_0, # of connection points: 6
#     Node 3, Type 0, BuildingBlock: MIFKUJ_clean_sbu_0, # of connection points: 6
#     Node 4, Type 0, BuildingBlock: MIFKUJ_clean_sbu_0, # of connection points: 6
#     Node 5, Type 0, BuildingBlock: MIFKUJ_clean_sbu_0, # of connection points: 6
#     Node 6, Type 0, BuildingBlock: MIFKUJ_clean_sbu_0, # of connection points: 6
#     Node 7, Type 0, BuildingBlock: MIFKUJ_clean_sbu_0, # of connection points: 6
#     Node 8, Type 0, BuildingBlock: MIFKUJ_clean_sbu_0, # of connection points: 6
#     Node 9, Type 0, BuildingBlock: MIFKUJ_clean_sbu_0, # of connection points: 6
#     Node 10, Type 0, BuildingBlock: MIFKUJ_clean_sbu_0, # of connection points: 6
#     Node 11, Type 0, BuildingBlock: MIFKUJ_clean_sbu_0, # of connection points: 6
#     Edge 12, Type (0, 0), BuildingBlock: XUDNAN_clean_linker_2, # of connection points: 2
#     Edge 13, Type (0, 0), BuildingBlock: XUDNAN_clean_linker_2, # of connection points: 2
#     Edge 14, Type (0, 0), BuildingBlock: XUDNAN_clean_linker_2, # of connection points: 2
#     Edge 15, Type (0, 0), BuildingBlock: XUDNAN_clean_linker_2, # of connection points: 2
#     Edge 16, Type (0, 0), BuildingBlock: XUDNAN_clean_linker_2, # of connection points: 2
#     Edge 17, Type (0, 0), BuildingBlock: XUDNAN_clean_linker_2, # of connection points: 2
#     Edge 18, Type (0, 0), BuildingBlock: XUDNAN_clean_linker_2, # of connection points: 2
#     Edge 19, Type (0, 0), BuildingBlock: XUDNAN_clean_linker_2, # of connection points: 2
#     Edge 20, Type (0, 0), BuildingBlock: XUDNAN_clean_linker_2, # of connection points: 2
#     Edge 21, Type (0, 0), BuildingBlock: XUDNAN_clean_linker_2, # of connection points: 2
#     Edge 22, Type (0, 0), BuildingBlock: XUDNAN_clean_linker_2, # of connection points: 2
#     Edge 23, Type (0, 0), BuildingBlock: XUDNAN_clean_linker_2, # of connection points: 2
#     Edge 24, Type (0, 0), BuildingBlock: XUDNAN_clean_linker_2, # of connection points: 2
#     Edge 25, Type (0, 0), BuildingBlock: XUDNAN_clean_linker_2, # of connection points: 2
#     Edge 26, Type (0, 0), BuildingBlock: XUDNAN_clean_linker_2, # of connection points: 2
#     Edge 27, Type (0, 0), BuildingBlock: XUDNAN_clean_linker_2, # of connection points: 2
#     Edge 28, Type (0, 0), BuildingBlock: XUDNAN_clean_linker_2, # of connection points: 2
#     Edge 29, Type (0, 0), BuildingBlock: XUDNAN_clean_linker_2, # of connection points: 2
#     Edge 30, Type (0, 0), BuildingBlock: XUDNAN_clean_linker_2, # of connection points: 2
#     Edge 31, Type (0, 0), BuildingBlock: XUDNAN_clean_linker_2, # of connection points: 2
#     Edge 32, Type (0, 0), BuildingBlock: XUDNAN_clean_linker_2, # of connection points: 2
#     Edge 33, Type (0, 0), BuildingBlock: XUDNAN_clean_linker_2, # of connection points: 2
#     Edge 34, Type (0, 0), BuildingBlock: XUDNAN_clean_linker_2, # of connection points: 2
#     Edge 35, Type (0, 0), BuildingBlock: XUDNAN_clean_linker_2, # of connection points: 2
#     Edge 36, Type (0, 0), BuildingBlock: XUDNAN_clean_linker_2, # of connection points: 2
#     Edge 37, Type (0, 0), BuildingBlock: XUDNAN_clean_linker_2, # of connection points: 2
#     Edge 38, Type (0, 0), BuildingBlock: XUDNAN_clean_linker_2, # of connection points: 2
#     Edge 39, Type (0, 0), BuildingBlock: XUDNAN_clean_linker_2, # of connection points: 2
#     Edge 40, Type (0, 0), BuildingBlock: XUDNAN_clean_linker_2, # of connection points: 2
#     Edge 41, Type (0, 0), BuildingBlock: XUDNAN_clean_linker_2, # of connection points: 2
#     Edge 42, Type (0, 0), BuildingBlock: XUDNAN_clean_linker_2, # of connection points: 2
#     Edge 43, Type (0, 0), BuildingBlock: XUDNAN_clean_linker_2, # of connection points: 2
#     Edge 44, Type (0, 0), BuildingBlock: XUDNAN_clean_linker_2, # of connection points: 2
#     Edge 45, Type (0, 0), BuildingBlock: XUDNAN_clean_linker_2, # of connection points: 2
#     Edge 46, Type (0, 0), BuildingBlock: XUDNAN_clean_linker_2, # of connection points: 2
#     Edge 47, Type (0, 0), BuildingBlock: XUDNAN_clean_linker_2, # of connection points: 2
# Relax obj value: 0.077
# Max RMSD: 0.169
# Mean RMSD: 0.169
data_MOF--net-wme--node1-MIFKUJ_clean_sbu_0--edge1-XUDNAN_clean_linker_2
_symmetry_space_group_name_H-M    P1
_symmetry_Int_Tables_number       1
_symmetry_cell_setting            triclinic
loop_
_symmetry_equiv_pos_as_xyz
'x, y, z'
_cell_length_a     34.835658
_cell_length_b     34.873708
_cell_length_c     51.932902
_cell_angle_alpha  90.035702
_cell_angle_beta   90.119495
_cell_angle_gamma 119.6561
loop_
_atom_site_label
_atom_site_type_symbol
_atom_site_fract_x
_atom_site_fract_y
_atom_site_fract_z
_atom_type_partial_charge
Zn0 Zn 0.2057 0.27475 0.10938 0.0
Zn1 Zn 0.23139 0.3876 0.09751 0.0
C2 C 0.11396 0.23819 0.11075 0.0
O3 O 0.12339 0.23535 0.13494 0.0
C4 C 0.31496 0.46392 0.08336 0.0
O5 O 0.29166 0.46782 0.06466 0.0
O6 O 0.20508 0.21653 0.11254 0.0
O7 O 0.25478 0.3108 0.08503 0.0
O8 O 0.22265 0.3459 0.0686 0.0
C9 C 0.20234 0.19688 0.09136 0.0
O10 O 0.2012 0.21584 0.06973 0.0
O11 O 0.14554 0.25743 0.09482 0.0
C12 C 0.2022 0.45015 0.10482 0.0
O13 O 0.22249 0.45478 0.12692 0.0
O14 O 0.20033 0.42171 0.08878 0.0
O15 O 0.21691 0.3661 0.1339 0.0
O16 O 0.21123 0.30157 0.14404 0.0
O17 O 0.29626 0.43183 0.09894 0.0
C18 C 0.24977 0.33174 0.06661 0.0
C19 C 0.21196 0.33713 0.15039 0.0
Zn20 Zn 0.93727 0.21295 0.61209 0.0
Zn21 Zn 0.84575 0.21393 0.60821 0.0
C22 C 0.89073 0.12026 0.6207 0.0
O23 O 0.91547 0.13425 0.64149 0.0
C24 C 0.848 0.29631 0.59595 0.0
O25 O 0.82265 0.27282 0.57673 0.0
O26 O 0.99567 0.21552 0.60699 0.0
O27 O 0.93635 0.25587 0.58764 0.0
O28 O 0.87111 0.20591 0.57476 0.0
C29 C 0.99898 0.19812 0.58617 0.0
O30 O 0.96541 0.1811 0.57009 0.0
O31 O 0.89187 0.14867 0.60483 0.0
C32 C 0.75216 0.15409 0.61875 0.0
O33 O 0.76615 0.14083 0.6385 0.0
O34 O 0.78003 0.18292 0.60356 0.0
O35 O 0.85796 0.1957 0.6435 0.0
O36 O 0.93073 0.22752 0.64761 0.0
O37 O 0.86311 0.27857 0.61138 0.0
C38 C 0.91025 0.23538 0.56938 0.0
C39 C 0.89253 0.21009 0.65748 0.0
Zn40 Zn 0.7358 0.92915 0.11179 0.0
Zn41 Zn 0.61444 0.8385 0.10672 0.0
C42 C 0.77144 0.87288 0.12371 0.0
O43 O 0.77961 0.89349 0.14596 0.0
C44 C 0.5389 0.84606 0.10693 0.0
O45 O 0.54114 0.83537 0.08293 0.0
O46 O 0.79288 0.9873 0.11144 0.0
O47 O 0.70197 0.92948 0.08132 0.0
O48 O 0.6328 0.87574 0.07448 0.0
C49 C 0.81155 1.00055 0.08967 0.0
O50 O 0.79296 0.97611 0.0692 0.0
O51 O 0.7513 0.8817 0.10638 0.0
C52 C 0.58122 0.74532 0.11343 0.0
O53 O 0.60329 0.75867 0.13519 0.0
O54 O 0.58288 0.77388 0.09759 0.0
O55 O 0.66393 0.85257 0.13165 0.0
O56 O 0.70318 0.92063 0.14473 0.0
O57 O 0.56843 0.84971 0.12277 0.0
C58 C 0.66711 0.91111 0.06779 0.0
C59 C 0.67194 0.88178 0.14861 0.0
Zn60 Zn 0.81307 0.73399 0.61664 0.0
Zn61 Zn 0.79113 0.6199 0.60395 0.0
C62 C 0.90184 0.76729 0.63378 0.0
O63 O 0.8829 0.76354 0.65619 0.0
C64 C 0.70547 0.54979 0.59967 0.0
O65 O 0.72087 0.55317 0.5762 0.0
O66 O 0.80851 0.78975 0.62136 0.0
O67 O 0.78348 0.70807 0.58283 0.0
O68 O 0.78178 0.64578 0.57133 0.0
C69 C 0.81707 0.81321 0.60111 0.0
O70 O 0.82795 0.80007 0.58003 0.0
O71 O 0.87825 0.75581 0.61348 0.0
C72 C 0.82316 0.56235 0.61639 0.0
O73 O 0.81283 0.57139 0.63901 0.0
O74 O 0.81767 0.58043 0.59649 0.0
O75 O 0.82684 0.6621 0.63239 0.0
O76 O 0.79054 0.69358 0.64753 0.0
O77 O 0.73017 0.57727 0.61666 0.0
C78 C 0.77519 0.67784 0.56645 0.0
C79 C 0.80757 0.66907 0.65109 0.0
Zn80 Zn 0.07172 0.79541 0.11735 0.0
Zn81 Zn 0.16462 0.78174 0.10876 0.0
C82 C 0.12124 0.8886 0.11946 0.0
O83 O 0.10525 0.87914 0.14293 0.0
C84 C 0.15443 0.7021 0.08477 0.0
O85 O 0.15779 0.72369 0.06341 0.0
O86 O 0.01187 0.78984 0.11714 0.0
O87 O 0.0684 0.74656 0.09595 0.0
O88 O 0.13228 0.78747 0.07712 0.0
C89 C 0.98745 0.77905 0.09724 0.0
O90 O 1.00119 0.77005 0.07573 0.0
O91 O 0.11343 0.85701 0.10414 0.0
C92 C 0.25092 0.82136 0.12853 0.0
O93 O 0.22713 0.80129 0.14887 0.0
O94 O 0.23129 0.82008 0.10753 0.0
O95 O 0.14506 0.78571 0.14515 0.0
O96 O 0.08439 0.78899 0.15317 0.0
O97 O 0.15584 0.72008 0.10633 0.0
C98 C 0.09172 0.75812 0.07582 0.0
C99 C 0.118 0.7874 0.16082 0.0
Zn100 Zn 0.2751 0.07958 0.61318 0.0
Zn101 Zn 0.40369 0.16859 0.59715 0.0
C102 C 0.2436 0.14107 0.60212 0.0
O103 O 0.26862 0.16266 0.62185 0.0
C104 C 0.4775 0.15639 0.59 0.0
O105 O 0.47993 0.17746 0.56856 0.0
O106 O 0.23289 0.01525 0.6199 0.0
O107 O 0.33049 0.09335 0.59531 0.0
O108 O 0.37125 0.1347 0.56449 0.0
C109 C 0.20048 0.99482 0.60456 0.0
O110 O 0.19756 0.01544 0.58412 0.0
O111 O 0.24266 0.10599 0.59441 0.0
C112 C 0.45656 0.25324 0.61487 0.0
O113 O 0.45092 0.22844 0.63511 0.0
O114 O 0.4385 0.2347 0.59368 0.0
O115 O 0.36308 0.15395 0.62853 0.0
O116 O 0.29776 0.11176 0.64634 0.0
O117 O 0.44671 0.1484 0.6058 0.0
C118 C 0.33682 0.09982 0.57145 0.0
C119 C 0.33709 0.14407 0.64765 0.0
Zn120 Zn 0.71734 0.79221 0.36298 0.0
Zn121 Zn 0.61235 0.77677 0.3842 0.0
C122 C 0.76097 0.88434 0.36438 0.0
O123 O 0.76117 0.87612 0.3397 0.0
C124 C 0.54997 0.68945 0.40296 0.0
O125 O 0.56978 0.70639 0.42498 0.0
O126 O 0.77304 0.78944 0.35421 0.0
O127 O 0.68091 0.7423 0.38655 0.0
O128 O 0.65748 0.7787 0.41059 0.0
C129 C 0.80319 0.80033 0.3712 0.0
O130 O 0.79663 0.81119 0.39435 0.0
O131 O 0.74063 0.85201 0.37971 0.0
C132 C 0.54766 0.80319 0.38315 0.0
O133 O 0.53917 0.7797 0.36196 0.0
O134 O 0.58029 0.80882 0.39706 0.0
O135 O 0.62937 0.7957 0.34687 0.0
O136 O 0.68592 0.79072 0.33078 0.0
O137 O 0.56334 0.71289 0.38269 0.0
C138 C 0.67132 0.75118 0.40845 0.0
C139 C 0.65354 0.79751 0.32801 0.0
Zn140 Zn 0.92963 0.74508 0.86834 0.0
Zn141 Zn 0.83754 0.63663 0.88292 0.0
C142 C 0.87498 0.77887 0.84864 0.0
O143 O 0.88761 0.77058 0.82651 0.0
C144 C 0.84376 0.55886 0.88854 0.0
O145 O 0.83703 0.56509 0.91269 0.0
O146 O 0.98942 0.7955 0.85925 0.0
O147 O 0.9385 0.72745 0.90295 0.0
O148 O 0.87972 0.66375 0.91305 0.0
C149 C 0.00716 0.82709 0.87534 0.0
O150 O 0.9851 0.8258 0.89612 0.0
O151 O 0.8878 0.76946 0.86944 0.0
C152 C 0.74589 0.57923 0.88032 0.0
O153 O 0.75802 0.57667 0.85672 0.0
O154 O 0.77486 0.60611 0.89596 0.0
O155 O 0.8417 0.67072 0.85028 0.0
O156 O 0.91209 0.69849 0.84124 0.0
O157 O 0.84632 0.58641 0.87166 0.0
C158 C 0.91716 0.69649 0.91876 0.0
C159 C 0.87187 0.67609 0.83458 0.0
Zn160 Zn 0.20124 0.91137 0.37323 0.0
Zn161 Zn 0.20665 0.82309 0.39689 0.0
C162 C 0.11312 0.87197 0.35581 0.0
O163 O 0.13605 0.88718 0.33452 0.0
C164 C 0.2969 0.85244 0.41266 0.0
O165 O 0.28059 0.85322 0.43532 0.0
O166 O 0.21415 0.97244 0.36318 0.0
O167 O 0.23407 0.92195 0.40617 0.0
O168 O 0.19642 0.85728 0.42495 0.0
C169 C 0.20245 0.99105 0.3801 0.0
O170 O 0.18372 0.96943 0.40133 0.0
O171 O 0.13387 0.87689 0.3769 0.0
C172 C 0.18457 0.73428 0.39332 0.0
O173 O 0.20253 0.74941 0.3707 0.0
O174 O 0.18131 0.76044 0.40909 0.0
O175 O 0.17836 0.81767 0.36211 0.0
O176 O 0.21929 0.88389 0.34536 0.0
O177 O 0.27223 0.84328 0.39286 0.0
C178 C 0.21739 0.89913 0.4262 0.0
C179 C 0.1949 0.84249 0.34261 0.0
Zn180 Zn 0.28007 0.20631 0.85818 0.0
Zn181 Zn 0.39305 0.23559 0.88065 0.0
C182 C 0.26235 0.11752 0.85366 0.0
O183 O 0.27837 0.13206 0.83064 0.0
C184 C 0.45823 0.31598 0.9075 0.0
O185 O 0.43697 0.29615 0.9286 0.0
O186 O 0.22272 0.20306 0.84776 0.0
O187 O 0.3066 0.25231 0.88526 0.0
O188 O 0.34635 0.22907 0.90636 0.0
C189 C 0.19352 0.19626 0.86456 0.0
O190 O 0.20175 0.19253 0.88886 0.0
O191 O 0.26259 0.1446 0.87018 0.0
C192 C 0.44533 0.19621 0.87199 0.0
O193 O 0.45506 0.22251 0.85202 0.0
O194 O 0.41673 0.19418 0.88798 0.0
O195 O 0.3814 0.2336 0.84251 0.0
O196 O 0.31714 0.22242 0.82706 0.0
O197 O 0.4449 0.29649 0.88594 0.0
C198 C 0.32887 0.2535 0.90487 0.0
C199 C 0.35661 0.23093 0.82388 0.0
Zn200 Zn 0.07987 0.2593 0.36857 0.0
Zn201 Zn 0.16395 0.37359 0.38769 0.0
C202 C 0.13773 0.22735 0.36082 0.0
O203 O 0.12145 0.22621 0.33784 0.0
C204 C 0.14686 0.43828 0.4115 0.0
O205 O 0.14825 0.41819 0.43258 0.0
O206 O 0.02104 0.20297 0.36747 0.0
O207 O 0.07292 0.30226 0.38987 0.0
O208 O 0.128 0.33146 0.4167 0.0
C209 C 0.01106 0.17998 0.38794 0.0
O210 O 0.03919 0.19394 0.40725 0.0
O211 O 0.12535 0.24198 0.37968 0.0
C212 C 0.25406 0.43482 0.38021 0.0
O213 O 0.2357 0.4438 0.36072 0.0
O214 O 0.22958 0.40284 0.39497 0.0
O215 O 0.15217 0.35219 0.34993 0.0
O216 O 0.09867 0.2877 0.33507 0.0
O217 O 0.15141 0.42413 0.38978 0.0
C218 C 0.08705 0.30654 0.41259 0.0
C219 C 0.13171 0.32578 0.33134 0.0
Zn220 Zn 0.79935 0.08853 0.86858 0.0
Zn221 Zn 0.78222 0.1788 0.88637 0.0
C222 C 0.88377 0.12089 0.84624 0.0
O223 O 0.85804 0.10037 0.82651 0.0
C224 C 0.69431 0.15162 0.89565 0.0
O225 O 0.7134 0.16539 0.91818 0.0
O226 O 0.78338 0.02636 0.85903 0.0
O227 O 0.77889 0.08697 0.90456 0.0
O228 O 0.78237 0.14856 0.91931 0.0
C229 C 0.79588 0.00677 0.87476 0.0
O230 O 0.8152 0.02685 0.89633 0.0
O231 O 0.86619 0.12192 0.86749 0.0
C232 C 0.80086 0.26095 0.87038 0.0
O233 O 0.7861 0.23589 0.84976 0.0
O234 O 0.80284 0.2435 0.89152 0.0
O235 O 0.82019 0.17887 0.85731 0.0
O236 O 0.77602 0.1131 0.84177 0.0
O237 O 0.71778 0.15315 0.8765 0.0
C238 C 0.77548 0.10954 0.92269 0.0
C239 C 0.80374 0.15341 0.8381 0.0
H240 H 0.14556 0.96276 0.14839 0.0
H241 H 0.1439 0.91914 0.06989 0.0
H242 H 0.17057 0.99526 0.05447 0.0
H243 H 0.10443 0.03296 0.13532 0.0
H244 H 0.13836 0.07482 0.1584 0.0
H245 H 0.12453 0.01844 0.1636 0.0
H246 H 0.20763 0.0423 0.167 0.0
H247 H 0.22175 0.09893 0.16202 0.0
H248 H 0.24447 0.07374 0.14127 0.0
H249 H 0.18977 0.07432 0.04731 0.0
H250 H 0.20214 0.15029 0.04895 0.0
H251 H 0.19161 0.1423 0.13228 0.0
C252 C 0.15163 0.9693 0.12799 0.0
C253 C 0.14271 0.93493 0.11035 0.0
C254 C 0.15079 0.94493 0.0838 0.0
C255 C 0.1659 0.98808 0.07486 0.0
C256 C 0.17324 0.02093 0.09274 0.0
C257 C 0.16684 0.01212 0.11879 0.0
C258 C 0.17475 0.05261 0.13389 0.0
C259 C 0.13303 0.04418 0.14866 0.0
C260 C 0.21452 0.06779 0.15212 0.0
C261 C 0.18503 0.08523 0.1122 0.0
C262 C 0.18447 0.06646 0.08864 0.0
C263 C 0.19087 0.08949 0.06568 0.0
C264 C 0.19775 0.13264 0.06683 0.0
C265 C 0.19802 0.15239 0.09076 0.0
C266 C 0.19205 0.12836 0.11372 0.0
H267 H 0.2186 0.19655 0.62381 0.0
H268 H 0.19575 0.11236 0.55734 0.0
H269 H 0.13602 0.12621 0.54294 0.0
H270 H 0.10951 0.15751 0.63781 0.0
H271 H 0.11528 0.2094 0.64829 0.0
H272 H 0.16133 0.19985 0.65083 0.0
H273 H 0.20952 0.27007 0.62387 0.0
H274 H 0.16358 0.28006 0.6214 0.0
H275 H 0.19037 0.27611 0.59266 0.0
H276 H 0.07369 0.14218 0.53856 0.0
H277 H 0.012 0.15672 0.54519 0.0
H278 H 0.0741 0.22833 0.61548 0.0
C279 C 0.20199 0.1821 0.6058 0.0
C280 C 0.21207 0.15372 0.59154 0.0
C281 C 0.18871 0.13444 0.56846 0.0
C282 C 0.15487 0.14226 0.56009 0.0
C283 C 0.14489 0.1694 0.57503 0.0
C284 C 0.16786 0.18912 0.59737 0.0
C285 C 0.14755 0.21272 0.61148 0.0
C286 C 0.13252 0.19371 0.6387 0.0
C287 C 0.17967 0.26271 0.61239 0.0
C288 C 0.10857 0.20182 0.59411 0.0
C289 C 0.10814 0.17761 0.57291 0.0
C290 C 0.07399 0.16159 0.55491 0.0
C291 C 0.039 0.16991 0.55891 0.0
C292 C 0.0382 0.19359 0.5809 0.0
C293 C 0.0739 0.21037 0.59842 0.0
H294 H 0.86394 0.05478 0.12854 0.0
H295 H 0.85665 0.03907 0.04545 0.0
H296 H 0.93009 0.10524 0.0414 0.0
H297 H 0.92616 0.17745 0.12936 0.0
H298 H 0.95855 0.17913 0.15689 0.0
H299 H 0.90288 0.13413 0.15306 0.0
H300 H 0.93121 0.07811 0.15619 0.0
H301 H 0.98676 0.12283 0.16012 0.0
H302 H 0.97395 0.08326 0.13457 0.0
H303 H 0.0073 0.16871 0.0466 0.0
H304 H 0.08318 0.22165 0.06092 0.0
H305 H 0.04014 0.19551 0.14051 0.0
C306 C 0.87739 0.06576 0.10946 0.0
C307 C 0.85435 0.0419 0.08731 0.0
C308 C 0.87348 0.05695 0.06271 0.0
C309 C 0.91516 0.09465 0.06019 0.0
C310 C 0.93727 0.1171 0.08243 0.0
C311 C 0.91903 0.10323 0.10661 0.0
C312 C 0.95115 0.13082 0.12756 0.0
C313 C 0.93363 0.15693 0.1426 0.0
C314 C 0.96137 0.10203 0.14566 0.0
C315 C 0.99087 0.16118 0.11145 0.0
C316 C 0.98198 0.15338 0.08545 0.0
C317 C 0.01449 0.17555 0.06691 0.0
C318 C 0.05749 0.20562 0.07522 0.0
C319 C 0.0676 0.21277 0.10182 0.0
C320 C 0.03345 0.19104 0.12003 0.0
H321 H 0.83325 0.87113 0.64124 0.0
H322 H 0.80127 0.85116 0.55983 0.0
H323 H 0.80772 0.92474 0.55726 0.0
H324 H 0.77896 0.93825 0.65533 0.0
H325 H 0.82237 0.97411 0.6771 0.0
H326 H 0.80872 0.91731 0.67356 0.0
H327 H 0.89015 0.94253 0.66205 0.0
H328 H 0.90399 0.99925 0.66556 0.0
H329 H 0.91599 0.98061 0.63584 0.0
H330 H 0.8241 0.0029 0.56245 0.0
H331 H 0.85319 0.08101 0.57456 0.0
H332 H 0.87701 0.05162 0.65222 0.0
C333 C 0.82643 0.88185 0.62308 0.0
C334 C 0.81634 0.8553 0.60079 0.0
C335 C 0.80892 0.87093 0.57717 0.0
C336 C 0.81228 0.91261 0.57554 0.0
C337 C 0.82325 0.93849 0.59769 0.0
C338 C 0.83026 0.92378 0.62103 0.0
C339 C 0.84592 0.95981 0.64129 0.0
C340 C 0.81196 0.94657 0.66311 0.0
C341 C 0.89173 0.97122 0.65178 0.0
C342 C 0.84801 0.99736 0.62547 0.0
C343 C 0.83391 0.98412 0.60051 0.0
C344 C 0.83475 0.01354 0.58203 0.0
C345 C 0.85126 0.05787 0.58909 0.0
C346 C 0.86732 0.07251 0.61434 0.0
C347 C 0.86477 0.04148 0.6328 0.0
H348 H 0.95477 0.80428 0.1375 0.0
H349 H 0.92671 0.75821 0.05836 0.0
H350 H 0.86084 0.76754 0.0587 0.0
H351 H 0.8384 0.75681 0.15916 0.0
H352 H 0.85168 0.80427 0.17896 0.0
H353 H 0.89233 0.78742 0.17373 0.0
H354 H 0.94747 0.86563 0.15684 0.0
H355 H 0.90713 0.88268 0.162 0.0
H356 H 0.93123 0.88835 0.13057 0.0
H357 H 0.80368 0.79022 0.06607 0.0
H358 H 0.76144 0.82657 0.07922 0.0
H359 H 0.82766 0.8581 0.15347 0.0
C360 C 0.93424 0.79511 0.12041 0.0
C361 C 0.94572 0.78029 0.09794 0.0
C362 C 0.91839 0.76941 0.07584 0.0
C363 C 0.88083 0.77442 0.07589 0.0
C364 C 0.87101 0.79003 0.09824 0.0
C365 C 0.89689 0.80006 0.12011 0.0
C366 C 0.88198 0.82039 0.14075 0.0
C367 C 0.86508 0.79042 0.16456 0.0
C368 C 0.91915 0.86701 0.14794 0.0
C369 C 0.84464 0.82181 0.12675 0.0
C370 C 0.83829 0.80346 0.10242 0.0
C371 C 0.80786 0.80403 0.08522 0.0
C372 C 0.78409 0.82484 0.09286 0.0
C373 C 0.79123 0.84512 0.1174 0.0
C374 C 0.82106 0.84245 0.13472 0.0
H375 H 0.95318 0.80691 0.59172 0.0
H376 H 0.95988 0.77897 0.67246 0.0
H377 H 0.04112 0.82506 0.67132 0.0
H378 H 0.06221 0.81684 0.5716 0.0
H379 H 0.07331 0.86184 0.55021 0.0
H380 H 0.01719 0.81891 0.55573 0.0
H381 H 0.9965 0.87782 0.56956 0.0
H382 H 0.05234 0.92072 0.5642 0.0
H383 H 0.0271 0.91569 0.5952 0.0
H384 H 0.11931 0.88274 0.66337 0.0
H385 H 0.18732 0.94968 0.64987 0.0
H386 H 0.12936 0.94144 0.57459 0.0
C387 C 0.97189 0.8092 0.6089 0.0
C388 C 0.9504 0.78916 0.63212 0.0
C389 C 0.97581 0.79398 0.65443 0.0
C390 C 0.02197 0.81984 0.65392 0.0
C391 C 0.04214 0.8405 0.63093 0.0
C392 C 0.01791 0.8353 0.60876 0.0
C393 C 0.04662 0.86576 0.58761 0.0
C394 C 0.05003 0.83924 0.56495 0.0
C395 C 0.02963 0.89682 0.57865 0.0
C396 C 0.09019 0.89059 0.60177 0.0
C397 C 0.08729 0.87473 0.62649 0.0
C398 C 0.12227 0.8949 0.6439 0.0
C399 C 0.16076 0.93296 0.63606 0.0
C400 C 0.16357 0.95077 0.61119 0.0
C401 C 0.1283 0.92843 0.59366 0.0
H402 H 0.0561 0.86585 0.39466 0.0
H403 H 0.06019 0.83486 0.31413 0.0
H404 H 0.98054 0.80895 0.31005 0.0
H405 H 0.94398 0.77328 0.40821 0.0
H406 H 0.93029 0.80624 0.42892 0.0
H407 H 0.98679 0.81838 0.42629 0.0
H408 H 0.01043 0.89879 0.41339 0.0
H409 H 0.95404 0.88685 0.41585 0.0
H410 H 0.98406 0.90869 0.3863 0.0
H411 H 0.90165 0.7911 0.31366 0.0
H412 H 0.82893 0.78247 0.32489 0.0
H413 H 0.87536 0.8258 0.40289 0.0
C414 C 0.03995 0.85265 0.37636 0.0
C415 C 0.06435 0.85211 0.35475 0.0
C416 C 0.04222 0.83557 0.33096 0.0
C417 C 0.99691 0.82067 0.32844 0.0
C418 C 0.97395 0.82253 0.34989 0.0
C419 C 0.99459 0.83795 0.37343 0.0
C420 C 0.96268 0.83885 0.39298 0.0
C421 C 0.95551 0.8073 0.41543 0.0
C422 C 0.97877 0.8861 0.40269 0.0
C423 C 0.92124 0.82222 0.37662 0.0
C424 C 0.9284 0.81266 0.35189 0.0
C425 C 0.89552 0.79811 0.33304 0.0
C426 C 0.85428 0.79333 0.3396 0.0
C427 C 0.84618 0.80326 0.36478 0.0
C428 C 0.88024 0.81762 0.3835 0.0
H429 H 0.04913 0.90445 0.90249 0.0
H430 H 0.06611 0.83512 0.83795 0.0
H431 H 0.13979 0.89927 0.82973 0.0
H432 H 0.09428 0.00668 0.87292 0.0
H433 H 0.12068 0.03848 0.90142 0.0
H434 H 0.07232 0.98502 0.90432 0.0
H435 H 0.11532 0.96003 0.93439 0.0
H436 H 0.16405 0.01349 0.93139 0.0
H437 H 0.16643 0.96436 0.92352 0.0
H438 H 0.20772 0.97298 0.82585 0.0
H439 H 0.26228 0.05238 0.82453 0.0
H440 H 0.20115 0.0741 0.89153 0.0
C441 C 0.06865 0.90242 0.8869 0.0
C442 C 0.05195 0.86472 0.87091 0.0
C443 C 0.07824 0.86366 0.85046 0.0
C444 C 0.12027 0.8998 0.84577 0.0
C445 C 0.13557 0.93663 0.86176 0.0
C446 C 0.11052 0.93825 0.88189 0.0
C447 C 0.13271 0.98321 0.89468 0.0
C448 C 0.10325 0.00459 0.89323 0.0
C449 C 0.14538 0.98007 0.92265 0.0
C450 C 0.17333 0.00723 0.87793 0.0
C451 C 0.1748 0.97948 0.85941 0.0
C452 C 0.20729 0.99487 0.84048 0.0
C453 C 0.23814 0.04006 0.83989 0.0
C454 C 0.23608 0.0694 0.85799 0.0
C455 C 0.20411 0.0524 0.87774 0.0
H456 H 0.13877 0.17758 0.40147 0.0
H457 H 0.19614 0.22783 0.32655 0.0
H458 H 0.22912 0.17956 0.32645 0.0
H459 H 0.2306 0.15641 0.42611 0.0
H460 H 0.19087 0.10643 0.44193 0.0
H461 H 0.1808 0.15228 0.4392 0.0
H462 H 0.10561 0.10108 0.41723 0.0
H463 H 0.11554 0.05533 0.41956 0.0
H464 H 0.10411 0.07098 0.38864 0.0
H465 H 0.24344 0.11694 0.33027 0.0
H466 H 0.24092 0.04609 0.33889 0.0
H467 H 0.1742 0.03538 0.41127 0.0
C468 C 0.16011 0.17987 0.38571 0.0
C469 C 0.16554 0.20678 0.36419 0.0
C470 C 0.19204 0.20769 0.34332 0.0
C471 C 0.21097 0.18045 0.34311 0.0
C472 C 0.20324 0.15255 0.36397 0.0
C473 C 0.17898 0.15244 0.38511 0.0
C474 C 0.17086 0.11529 0.4034 0.0
C475 C 0.19471 0.13371 0.42919 0.0
C476 C 0.12109 0.08383 0.40741 0.0
C477 C 0.192 0.0932 0.38849 0.0
C478 C 0.21126 0.11571 0.36607 0.0
C479 C 0.22941 0.09954 0.34807 0.0
C480 C 0.2276 0.05914 0.35305 0.0
C481 C 0.20749 0.03524 0.37575 0.0
C482 C 0.19022 0.05305 0.39384 0.0
H483 H 0.1246 0.18335 0.89583 0.0
H484 H 0.16387 0.19582 0.8156 0.0
H485 H 0.09032 0.18297 0.80243 0.0
H486 H 0.01535 0.09646 0.88722 0.0
H487 H 0.99145 0.1164 0.91078 0.0
H488 H 0.0481 0.12948 0.91398 0.0
H489 H 0.07294 0.21284 0.91533 0.0
H490 H 0.01628 0.20001 0.91208 0.0
H491 H 0.05717 0.23683 0.88952 0.0
H492 H 0.01122 0.16404 0.79781 0.0
H493 H 0.932 0.14035 0.80208 0.0
H494 H 0.94429 0.14143 0.88531 0.0
C495 C 0.11794 0.18385 0.87549 0.0
C496 C 0.15011 0.1907 0.85674 0.0
C497 C 0.13989 0.19083 0.83033 0.0
C498 C 0.09819 0.1836 0.82265 0.0
C499 C 0.06716 0.17664 0.84161 0.0
C500 C 0.07655 0.17688 0.86749 0.0
C501 C 0.03679 0.16696 0.88393 0.0
C502 C 0.02206 0.12482 0.89991 0.0
C503 C 0.04638 0.20653 0.90124 0.0
C504 C 1.00328 0.16015 0.86322 0.0
C505 C 0.02158 0.16615 0.83895 0.0
C506 C 0.99663 0.15966 0.81672 0.0
C507 C 0.95164 0.14611 0.81935 0.0
C508 C 0.93205 0.13922 0.84402 0.0
C509 C 0.95848 0.14704 0.86621 0.0
H510 H 0.95298 0.13194 0.34935 0.0
H511 H 0.97423 0.13286 0.43177 0.0
H512 H 0.90654 0.06043 0.43556 0.0
H513 H 0.83042 0.0742 0.35146 0.0
H514 H 0.82523 0.0432 0.32262 0.0
H515 H 0.8722 0.09758 0.32686 0.0
H516 H 0.92499 0.0661 0.31982 0.0
H517 H 0.8783 0.01179 0.3155 0.0
H518 H 0.91927 0.02118 0.33968 0.0
H519 H 0.84034 0.98484 0.42983 0.0
H520 H 0.78315 0.9112 0.41464 0.0
H521 H 0.80556 0.95966 0.33605 0.0
C522 C 0.94291 0.1173 0.36826 0.0
C523 C 0.96884 0.13806 0.39025 0.0
C524 C 0.95494 0.1175 0.41462 0.0
C525 C 0.91636 0.07647 0.41701 0.0
C526 C 0.89191 0.05647 0.39487 0.0
C527 C 0.90461 0.07623 0.37097 0.0
C528 C 0.87462 0.04627 0.34993 0.0
C529 C 0.8491 0.06653 0.33696 0.0
C530 C 0.90087 0.03571 0.33008 0.0
C531 C 0.8441 0.00601 0.3656 0.0
C532 C 0.85404 0.01277 0.39155 0.0
C533 C 0.83185 0.97935 0.40959 0.0
C534 C 0.79936 0.93763 0.4008 0.0
C535 C 0.78979 0.92967 0.37417 0.0
C536 C 0.81185 0.96473 0.35654 0.0
H537 H 0.86625 0.82393 0.88928 0.0
H538 H 0.82989 0.79061 0.80906 0.0
H539 H 0.7966 0.83885 0.80864 0.0
H540 H 0.76934 0.83552 0.90853 0.0
H541 H 0.8028 0.88183 0.9292 0.0
H542 H 0.81722 0.83932 0.92435 0.0
H543 H 0.89547 0.89834 0.90951 0.0
H544 H 0.8813 0.9409 0.91422 0.0
H545 H 0.90105 0.93464 0.88332 0.0
H546 H 0.77501 0.89706 0.81556 0.0
H547 H 0.76872 0.96175 0.82892 0.0
H548 H 0.8204 0.95767 0.90438 0.0
C549 C 0.85016 0.82577 0.87183 0.0
C550 C 0.85035 0.80329 0.84925 0.0
C551 C 0.82998 0.80746 0.82661 0.0
C552 C 0.81082 0.83463 0.82622 0.0
C553 C 0.81225 0.85732 0.84864 0.0
C554 C 0.83127 0.85303 0.87106 0.0
C555 C 0.83261 0.88431 0.89173 0.0
C556 C 0.80376 0.85871 0.91482 0.0
C557 C 0.88044 0.91644 0.90017 0.0
C558 C 0.81271 0.90789 0.87718 0.0
C559 C 0.80047 0.89137 0.8525 0.0
C560 C 0.78386 0.90983 0.83497 0.0
C561 C 0.78043 0.94659 0.84272 0.0
C562 C 0.79398 0.96474 0.8677 0.0
C563 C 0.80944 0.94441 0.88522 0.0
H564 H 0.17148 0.65972 0.12372 0.0
H565 H 0.13349 0.64704 0.04319 0.0
H566 H 0.13506 0.57707 0.04055 0.0
H567 H 0.2485 0.62398 0.11636 0.0
H568 H 0.23651 0.59502 0.1466 0.0
H569 H 0.22729 0.64112 0.14295 0.0
H570 H 0.14564 0.59209 0.1567 0.0
H571 H 0.15463 0.54575 0.16046 0.0
H572 H 0.11114 0.54133 0.13965 0.0
H573 H 0.14582 0.51123 0.04595 0.0
H574 H 0.16742 0.4562 0.05853 0.0
H575 H 0.20004 0.51323 0.13524 0.0
C576 C 0.16261 0.64178 0.10567 0.0
C577 C 0.15208 0.65864 0.0837 0.0
C578 C 0.14159 0.63467 0.06027 0.0
C579 C 0.14222 0.59482 0.05861 0.0
C580 C 0.15349 0.57948 0.08053 0.0
C581 C 0.16351 0.60224 0.10361 0.0
C582 C 0.17783 0.58053 0.12378 0.0
C583 C 0.22535 0.61204 0.13295 0.0
C584 C 0.14536 0.56393 0.14648 0.0
C585 C 0.17518 0.5425 0.1083 0.0
C586 C 0.1605 0.54209 0.08351 0.0
C587 C 0.15698 0.511 0.06539 0.0
C588 C 0.16933 0.47987 0.07272 0.0
C589 C 0.18539 0.48035 0.09788 0.0
C590 C 0.18771 0.5118 0.1159 0.0
H591 H 0.71352 0.17643 0.5802 0.0
H592 H 0.68434 0.10231 0.6515 0.0
H593 H 0.60761 0.0884 0.64961 0.0
H594 H 0.65677 0.23106 0.59423 0.0
H595 H 0.6367 0.22968 0.56203 0.0
H596 H 0.68706 0.22822 0.56688 0.0
H597 H 0.65542 0.15551 0.54065 0.0
H598 H 0.60495 0.15694 0.5355 0.0
H599 H 0.60318 0.10897 0.54975 0.0
H600 H 0.53737 0.09076 0.64279 0.0
H601 H 0.4782 0.1069 0.63077 0.0
H602 H 0.55381 0.17915 0.56384 0.0
C603 C 0.69077 0.15636 0.59512 0.0
C604 C 0.70488 0.14038 0.61598 0.0
C605 C 0.67419 0.11468 0.63526 0.0
C606 C 0.63054 0.1066 0.63435 0.0
C607 C 0.61814 0.12405 0.6139 0.0
C608 C 0.64725 0.14798 0.59449 0.0
C609 C 0.62689 0.16595 0.57569 0.0
C610 C 0.65343 0.21672 0.57467 0.0
C611 C 0.62233 0.14561 0.54881 0.0
C612 C 0.58226 0.14973 0.58805 0.0
C613 C 0.57762 0.12524 0.60991 0.0
C614 C 0.54031 0.10925 0.62547 0.0
C615 C 0.50699 0.11874 0.61853 0.0
C616 C 0.51134 0.14412 0.5963 0.0
C617 C 0.54927 0.15923 0.58076 0.0
H618 H 0.51764 0.70795 0.07596 0.0
H619 H 0.57331 0.67556 0.14171 0.0
H620 H 0.51535 0.59745 0.13784 0.0
H621 H 0.40859 0.64222 0.09281 0.0
H622 H 0.38775 0.6253 0.06056 0.0
H623 H 0.43735 0.67711 0.06581 0.0
H624 H 0.48 0.65368 0.03455 0.0
H625 H 0.43033 0.60177 0.02907 0.0
H626 H 0.4799 0.60257 0.03993 0.0
H627 H 0.44679 0.52509 0.1301 0.0
H628 H 0.3727 0.46387 0.11917 0.0
H629 H 0.36125 0.54348 0.05864 0.0
C630 C 0.51841 0.68426 0.08911 0.0
C631 C 0.5502 0.69783 0.10905 0.0
C632 C 0.54943 0.66591 0.12621 0.0
C633 C 0.5167 0.62143 0.12412 0.0
C634 C 0.48513 0.60937 0.10469 0.0
C635 C 0.48587 0.63981 0.08737 0.0
C636 C 0.44593 0.61914 0.06973 0.0
C637 C 0.41828 0.64232 0.07241 0.0
C638 C 0.45988 0.6193 0.04166 0.0
C639 C 0.4218 0.57273 0.08044 0.0
C640 C 0.44528 0.5676 0.10034 0.0
C641 C 0.42842 0.5285 0.1143 0.0
C642 C 0.38622 0.49394 0.10798 0.0
C643 C 0.3612 0.49879 0.08798 0.0
C644 C 0.37972 0.53851 0.0738 0.0
H645 H 0.80596 0.50067 0.57839 0.0
H646 H 0.87345 0.54956 0.6514 0.0
H647 H 0.89314 0.4906 0.65193 0.0
H648 H 0.75726 0.38873 0.59472 0.0
H649 H 0.76166 0.36964 0.56319 0.0
H650 H 0.75815 0.41918 0.56647 0.0
H651 H 0.8311 0.46295 0.54101 0.0
H652 H 0.83473 0.41341 0.53755 0.0
H653 H 0.87995 0.46209 0.55168 0.0
H654 H 0.90085 0.42364 0.64641 0.0
H655 H 0.89364 0.35133 0.63604 0.0
H656 H 0.81841 0.34319 0.56745 0.0
C657 C 0.82596 0.4996 0.59406 0.0
C658 C 0.83886 0.53004 0.61467 0.0
C659 C 0.86362 0.52675 0.63534 0.0
C660 C 0.87504 0.49345 0.63578 0.0
C661 C 0.86108 0.46333 0.6155 0.0
C662 C 0.83699 0.46593 0.59503 0.0
C663 C 0.82262 0.42689 0.57698 0.0
C664 C 0.77193 0.3995 0.57525 0.0
C665 C 0.84335 0.44226 0.55022 0.0
C666 C 0.84178 0.40172 0.59074 0.0
C667 C 0.86434 0.42368 0.61272 0.0
C668 C 0.88359 0.40629 0.62912 0.0
C669 C 0.87929 0.36513 0.62306 0.0
C670 C 0.85555 0.34149 0.6009 0.0
C671 C 0.83703 0.36047 0.58443 0.0
H672 H 0.47473 0.84545 0.0764 0.0
H673 H 0.51855 0.85979 0.15592 0.0
H674 H 0.45321 0.86494 0.16943 0.0
H675 H 0.42698 0.91953 0.08052 0.0
H676 H 0.38187 0.88506 0.05932 0.0
H677 H 0.43465 0.88785 0.05567 0.0
H678 H 0.39689 0.80279 0.05999 0.0
H679 H 0.34414 0.79972 0.06358 0.0
H680 H 0.36344 0.77635 0.08787 0.0
H681 H 0.37961 0.8603 0.17461 0.0
H682 H 0.30256 0.84464 0.17143 0.0
H683 H 0.30721 0.83439 0.08835 0.0
C684 C 0.47105 0.8504 0.09664 0.0
C685 C 0.50175 0.85228 0.11513 0.0
C686 C 0.49552 0.85845 0.14142 0.0
C687 C 0.45862 0.86157 0.14924 0.0
C688 C 0.42867 0.85898 0.1305 0.0
C689 C 0.43462 0.85375 0.10472 0.0
C690 C 0.39607 0.84868 0.08862 0.0
C691 C 0.41078 0.8876 0.06993 0.0
C692 C 0.37383 0.80424 0.07418 0.0
C693 C 0.36654 0.85005 0.10949 0.0
C694 C 0.38628 0.8567 0.13347 0.0
C695 C 0.36414 0.85585 0.15593 0.0
C696 C 0.32036 0.84687 0.15391 0.0
C697 C 0.29909 0.83869 0.12961 0.0
C698 C 0.32295 0.8415 0.1071 0.0
H699 H 0.64689 0.48548 0.5674 0.0
H700 H 0.66692 0.52725 0.64741 0.0
H701 H 0.5989 0.45868 0.65918 0.0
H702 H 0.52376 0.42777 0.56805 0.0
H703 H 0.51973 0.38482 0.54699 0.0
H704 H 0.56608 0.43994 0.5444 0.0
H705 H 0.61979 0.40932 0.55051 0.0
H706 H 0.57378 0.35428 0.55325 0.0
H707 H 0.61455 0.37667 0.57857 0.0
H708 H 0.53523 0.38187 0.66297 0.0
H709 H 0.47974 0.30303 0.65852 0.0
H710 H 0.50056 0.31165 0.5759 0.0
C711 C 0.63648 0.48078 0.58733 0.0
C712 C 0.66216 0.51176 0.6065 0.0
C713 C 0.64764 0.50407 0.63239 0.0
C714 C 0.60901 0.46527 0.63924 0.0
C715 C 0.58512 0.43484 0.61993 0.0
C716 C 0.59808 0.44236 0.59446 0.0
C717 C 0.56882 0.40292 0.57772 0.0
C718 C 0.54306 0.41457 0.55813 0.0
C719 C 0.59586 0.38474 0.56424 0.0
C720 C 0.5384 0.37128 0.59791 0.0
C721 C 0.54802 0.39053 0.62209 0.0
C722 C 0.52686 0.36671 0.64409 0.0
C723 C 0.49556 0.32192 0.64137 0.0
C724 C 0.48575 0.30141 0.61684 0.0
C725 C 0.50681 0.32671 0.59481 0.0
H726 H 0.33038 0.82491 0.37332 0.0
H727 H 0.36299 0.88688 0.44868 0.0
H728 H 0.4334 0.88583 0.44824 0.0
H729 H 0.36961 0.75133 0.38524 0.0
H730 H 0.39068 0.75386 0.35325 0.0
H731 H 0.34532 0.76395 0.35817 0.0
H732 H 0.38917 0.83995 0.33577 0.0
H733 H 0.43463 0.82998 0.33063 0.0
H734 H 0.4436 0.87909 0.34732 0.0
H735 H 0.49825 0.87302 0.44088 0.0
H736 H 0.55131 0.84924 0.42716 0.0
H737 H 0.47536 0.7946 0.35707 0.0
C738 C 0.3528 0.83924 0.38946 0.0
C739 C 0.3413 0.85639 0.41093 0.0
C740 C 0.37114 0.87377 0.43195 0.0
C741 C 0.41127 0.87336 0.43187 0.0
C742 C 0.42118 0.85532 0.41066 0.0
C743 C 0.39282 0.83868 0.3898 0.0
C744 C 0.40977 0.81847 0.37018 0.0
C745 C 0.37689 0.76898 0.36651 0.0
C746 C 0.4199 0.84337 0.34445 0.0
C747 C 0.45175 0.82582 0.38338 0.0
C748 C 0.45801 0.84742 0.40662 0.0
C749 C 0.49384 0.85643 0.42259 0.0
C750 C 0.52383 0.84278 0.41465 0.0
C751 C 0.51773 0.82014 0.39101 0.0
C752 C 0.48128 0.81203 0.3752 0.0
H753 H 0.67846 0.51596 0.85163 0.0
H754 H 0.71193 0.56877 0.92924 0.0
H755 H 0.63948 0.50949 0.94453 0.0
H756 H 0.56007 0.48001 0.85465 0.0
H757 H 0.54522 0.43116 0.83583 0.0
H758 H 0.59776 0.4802 0.83084 0.0
H759 H 0.63766 0.43526 0.83908 0.0
H760 H 0.58536 0.38623 0.84427 0.0
H761 H 0.62768 0.40487 0.8687 0.0
H762 H 0.56543 0.44025 0.95176 0.0
H763 H 0.49595 0.36857 0.95003 0.0
H764 H 0.51238 0.36233 0.86757 0.0
C765 C 0.67035 0.51567 0.87177 0.0
C766 C 0.70084 0.54715 0.88921 0.0
C767 C 0.68899 0.54518 0.91547 0.0
C768 C 0.64793 0.5116 0.92434 0.0
C769 C 0.61906 0.48047 0.90668 0.0
C770 C 0.6297 0.4825 0.88091 0.0
C771 C 0.59411 0.44393 0.86602 0.0
C772 C 0.57304 0.45979 0.84564 0.0
C773 C 0.6123 0.41593 0.85381 0.0
C774 C 0.56209 0.41935 0.88751 0.0
C775 C 0.57681 0.44094 0.91082 0.0
C776 C 0.55339 0.42333 0.93355 0.0
C777 C 0.51402 0.38256 0.93239 0.0
C778 C 0.49861 0.35986 0.90867 0.0
C779 C 0.52299 0.3789 0.886 0.0
H780 H 0.18404 0.67021 0.36276 0.0
H781 H 0.15501 0.69456 0.44036 0.0
H782 H 0.13718 0.61911 0.45286 0.0
H783 H 0.09808 0.55401 0.35928 0.0
H784 H 0.13251 0.53868 0.34116 0.0
H785 H 0.1398 0.59335 0.33801 0.0
H786 H 0.22248 0.62706 0.35025 0.0
H787 H 0.21545 0.5726 0.35349 0.0
H788 H 0.23723 0.61095 0.38 0.0
H789 H 0.12815 0.543 0.45757 0.0
H790 H 0.12733 0.47194 0.45398 0.0
H791 H 0.16117 0.49761 0.37303 0.0
C792 C 0.17343 0.65959 0.38232 0.0
C793 C 0.17088 0.68828 0.40059 0.0
C794 C 0.15704 0.67309 0.42602 0.0
C795 C 0.14683 0.6303 0.43328 0.0
C796 C 0.15029 0.60308 0.41485 0.0
C797 C 0.16298 0.61707 0.38985 0.0
C798 C 0.16584 0.58219 0.37394 0.0
C799 C 0.13204 0.56611 0.35179 0.0
C800 C 0.21305 0.59923 0.36384 0.0
C801 C 0.15367 0.54666 0.39403 0.0
C802 C 0.1446 0.5592 0.41747 0.0
C803 C 0.13467 0.53262 0.43924 0.0
C804 C 0.13437 0.49237 0.43701 0.0
C805 C 0.14391 0.47909 0.41319 0.0
C806 C 0.15314 0.5065 0.39142 0.0
H807 H 0.65543 0.16806 0.85451 0.0
H808 H 0.62965 0.11242 0.9313 0.0
H809 H 0.55607 0.10649 0.93062 0.0
H810 H 0.6146 0.23679 0.86511 0.0
H811 H 0.59047 0.23229 0.83374 0.0
H812 H 0.63618 0.2225 0.83745 0.0
H813 H 0.59033 0.14501 0.81686 0.0
H814 H 0.5444 0.15471 0.81283 0.0
H815 H 0.53705 0.10667 0.83003 0.0
H816 H 0.49135 0.11791 0.92471 0.0
H817 H 0.44098 0.14652 0.91411 0.0
H818 H 0.50946 0.19657 0.8416 0.0
C819 C 0.63339 0.15282 0.87065 0.0
C820 C 0.6477 0.14 0.89277 0.0
C821 C 0.61893 0.12197 0.91406 0.0
C822 C 0.57705 0.11836 0.91381 0.0
C823 C 0.56447 0.13301 0.89214 0.0
C824 C 0.59166 0.14963 0.87085 0.0
C825 C 0.57301 0.16871 0.85157 0.0
C826 C 0.60549 0.21798 0.84671 0.0
C827 C 0.56044 0.14218 0.82632 0.0
C828 C 0.53231 0.16209 0.86587 0.0
C829 C 0.52741 0.14058 0.88897 0.0
C830 C 0.49429 0.13399 0.90642 0.0
C831 C 0.46589 0.15045 0.90027 0.0
C832 C 0.47116 0.17369 0.87701 0.0
C833 C 0.50423 0.17858 0.85943 0.0
H834 H 0.31383 0.50599 0.35232 0.0
H835 H 0.30111 0.43218 0.4221 0.0
H836 H 0.37793 0.48672 0.43401 0.0
H837 H 0.43048 0.54099 0.33961 0.0
H838 H 0.44216 0.59447 0.32816 0.0
H839 H 0.38771 0.54752 0.32411 0.0
H840 H 0.35405 0.58941 0.34779 0.0
H841 H 0.40832 0.63635 0.35199 0.0
H842 H 0.37357 0.61118 0.3796 0.0
H843 H 0.45368 0.55321 0.44021 0.0
H844 H 0.52295 0.62493 0.43958 0.0
H845 H 0.48637 0.65425 0.36528 0.0
C846 C 0.32735 0.50077 0.36991 0.0
C847 C 0.30141 0.46466 0.38625 0.0
C848 C 0.32037 0.4594 0.4092 0.0
C849 C 0.36399 0.49024 0.41613 0.0
C850 C 0.38831 0.52592 0.3998 0.0
C851 C 0.37076 0.5311 0.37705 0.0
C852 C 0.40294 0.57339 0.36349 0.0
C853 C 0.41663 0.56349 0.33729 0.0
C854 C 0.38356 0.6044 0.36056 0.0
C855 C 0.44107 0.59173 0.38241 0.0
C856 C 0.43208 0.56382 0.40319 0.0
C857 C 0.4613 0.575 0.42386 0.0
C858 C 0.50051 0.61586 0.42336 0.0
C859 C 0.51025 0.64503 0.40229 0.0
C860 C 0.48026 0.63237 0.38145 0.0
H861 H 0.84069 0.49431 0.92006 0.0
H862 H 0.84803 0.53173 0.8397 0.0
H863 H 0.84343 0.46152 0.82674 0.0
H864 H 0.90497 0.43643 0.91327 0.0
H865 H 0.8712 0.39445 0.9362 0.0
H866 H 0.87916 0.44941 0.93931 0.0
H867 H 0.79434 0.41749 0.9389 0.0
H868 H 0.78611 0.36256 0.93567 0.0
H869 H 0.7622 0.38303 0.9124 0.0
H870 H 0.8314 0.3854 0.82231 0.0
H871 H 0.81443 0.30832 0.82649 0.0
H872 H 0.81582 0.31987 0.9098 0.0
C873 C 0.84202 0.48806 0.89975 0.0
C874 C 0.84476 0.51854 0.88088 0.0
C875 C 0.84611 0.50898 0.8545 0.0
C876 C 0.84356 0.46921 0.84695 0.0
C877 C 0.84012 0.43959 0.86601 0.0
C878 C 0.83972 0.44861 0.89187 0.0
C879 C 0.83372 0.4102 0.9084 0.0
C880 C 0.87471 0.42342 0.92529 0.0
C881 C 0.79158 0.39227 0.92479 0.0
C882 C 0.82932 0.37761 0.88773 0.0
C883 C 0.83354 0.39549 0.86344 0.0
C884 C 0.82858 0.3712 0.84121 0.0
C885 C 0.81875 0.32735 0.84382 0.0
C886 C 0.81391 0.30811 0.86848 0.0
C887 C 0.81982 0.33383 0.89072 0.0
H888 H 0.12115 0.26973 0.29238 0.0
H889 H 0.18057 0.40898 0.31098 0.0
H890 H 0.20896 0.42772 0.26632 0.0
H891 H 0.21051 0.28017 0.25335 0.0
H892 H 0.17469 0.23743 0.23123 0.0
H893 H 0.15836 0.23562 0.26428 0.0
H894 H 0.08556 0.23205 0.24933 0.0
H895 H 0.10161 0.23378 0.21624 0.0
H896 H 0.088 0.27415 0.22815 0.0
H897 H 0.22783 0.4302 0.21907 0.0
H898 H 0.2396 0.41685 0.17378 0.0
H899 H 0.17144 0.27579 0.18807 0.0
C900 C 0.13983 0.30422 0.28707 0.0
C901 C 0.14828 0.33799 0.30492 0.0
C902 C 0.17365 0.3827 0.29743 0.0
C903 C 0.18982 0.39357 0.27219 0.0
C904 C 0.18087 0.35928 0.25507 0.0
C905 C 0.15683 0.31555 0.26231 0.0
C906 C 0.15276 0.28476 0.24071 0.0
C907 C 0.17544 0.25793 0.24782 0.0
C908 C 0.10409 0.25442 0.23316 0.0
C909 C 0.17769 0.31795 0.21989 0.0
C910 C 0.19348 0.36075 0.22845 0.0
C911 C 0.21601 0.39688 0.21224 0.0
C912 C 0.22242 0.38895 0.18658 0.0
C913 C 0.20671 0.3453 0.17758 0.0
C914 C 0.18441 0.30951 0.19455 0.0
H915 H 0.8214 0.15052 0.68534 0.0
H916 H 0.95385 0.26245 0.69294 0.0
H917 H 0.94573 0.25928 0.74021 0.0
H918 H 0.77146 0.17851 0.73585 0.0
H919 H 0.73744 0.12264 0.74691 0.0
H920 H 0.7539 0.13305 0.71365 0.0
H921 H 0.78787 0.08177 0.71709 0.0
H922 H 0.77136 0.07107 0.75035 0.0
H923 H 0.82838 0.092 0.74173 0.0
H924 H 0.92185 0.24696 0.78596 0.0
H925 H 0.88556 0.22294 0.82816 0.0
H926 H 0.76996 0.11649 0.79112 0.0
C927 C 0.84867 0.17427 0.69699 0.0
C928 C 0.88816 0.20686 0.68562 0.0
C929 C 0.92339 0.23713 0.70138 0.0
C930 C 0.91907 0.23567 0.72819 0.0
C931 C 0.87959 0.20332 0.73881 0.0
C932 C 0.84521 0.17281 0.72379 0.0
C933 C 0.80652 0.14114 0.74012 0.0
C934 C 0.76488 0.14404 0.73375 0.0
C935 C 0.79805 0.09369 0.73714 0.0
C936 C 0.82418 0.15933 0.76664 0.0
C937 C 0.86635 0.19524 0.7654 0.0
C938 C 0.88901 0.21865 0.78725 0.0
C939 C 0.86802 0.20487 0.81108 0.0
C940 C 0.82504 0.16777 0.81282 0.0
C941 C 0.80298 0.14469 0.79031 0.0
H942 H 0.67528 0.81745 0.17595 0.0
H943 H 0.63762 0.9184 0.18099 0.0
H944 H 0.6196 0.9009 0.2272 0.0
H945 H 0.59625 0.73899 0.22376 0.0
H946 H 0.63677 0.72615 0.23644 0.0
H947 H 0.63867 0.74102 0.20304 0.0
H948 H 0.71969 0.80355 0.20902 0.0
H949 H 0.71797 0.78911 0.24239 0.0
H950 H 0.7325 0.84467 0.23363 0.0
H951 H 0.61056 0.87554 0.27332 0.0
H952 H 0.6184 0.85018 0.31649 0.0
H953 H 0.66901 0.77114 0.28156 0.0
C954 C 0.66188 0.83479 0.18668 0.0
C955 C 0.65671 0.86846 0.17508 0.0
C956 C 0.64103 0.89202 0.18971 0.0
C957 C 0.63062 0.88218 0.21583 0.0
C958 C 0.63685 0.84924 0.22694 0.0
C959 C 0.65251 0.82618 0.21285 0.0
C960 C 0.66186 0.79659 0.2299 0.0
C961 C 0.63157 0.74779 0.22286 0.0
C962 C 0.71091 0.80927 0.22866 0.0
C963 C 0.65007 0.80736 0.25589 0.0
C964 C 0.63458 0.83686 0.25372 0.0
C965 C 0.62243 0.85227 0.27524 0.0
C966 C 0.62693 0.83768 0.29964 0.0
C967 C 0.64447 0.80892 0.30225 0.0
C968 C 0.65565 0.79326 0.28006 0.0
H969 H 0.7722 0.67803 0.69677 0.0
H970 H 0.86665 0.64327 0.66561 0.0
H971 H 0.8868 0.63337 0.70939 0.0
H972 H 0.83877 0.74181 0.74823 0.0
H973 H 0.79449 0.72478 0.77113 0.0
H974 H 0.7834 0.72443 0.73724 0.0
H975 H 0.72385 0.64175 0.74003 0.0
H976 H 0.73487 0.6419 0.77398 0.0
H977 H 0.73846 0.60268 0.75292 0.0
H978 H 0.9033 0.63533 0.7557 0.0
H979 H 0.91405 0.64794 0.80259 0.0
H980 H 0.80828 0.67947 0.80493 0.0
C981 C 0.79657 0.66763 0.69918 0.0
C982 C 0.81727 0.66077 0.67765 0.0
C983 C 0.84952 0.64781 0.68166 0.0
C984 C 0.86138 0.64221 0.70652 0.0
C985 C 0.8407 0.64955 0.72728 0.0
C986 C 0.80886 0.6618 0.72399 0.0
C987 C 0.79392 0.67026 0.74976 0.0
C988 C 0.80322 0.71816 0.75169 0.0
C989 C 0.74486 0.63716 0.75444 0.0
C990 C 0.8233 0.66208 0.76789 0.0
C991 C 0.84981 0.64992 0.75443 0.0
C992 C 0.88222 0.64404 0.76655 0.0
C993 C 0.88819 0.65139 0.79311 0.0
C994 C 0.86165 0.66409 0.80726 0.0
C995 C 0.82824 0.6687 0.79458 0.0
H996 H 0.18991 0.84334 0.18913 0.0
H997 H 0.05982 0.72782 0.19425 0.0
H998 H 0.06873 0.72566 0.24144 0.0
H999 H 0.24373 0.81614 0.24125 0.0
H1000 H 0.2738 0.87221 0.25279 0.0
H1001 H 0.2596 0.86135 0.21916 0.0
H1002 H 0.22043 0.90802 0.22133 0.0
H1003 H 0.2344 0.91891 0.25493 0.0
H1004 H 0.17756 0.89448 0.24481 0.0
H1005 H 0.09039 0.73734 0.28747 0.0
H1006 H 0.12011 0.76588 0.33067 0.0
H1007 H 0.23388 0.8778 0.29624 0.0
C1008 C 0.16384 0.81721 0.20028 0.0
C1009 C 0.12451 0.78527 0.18843 0.0
C1010 C 0.09026 0.75223 0.20331 0.0
C1011 C 0.09513 0.75068 0.22996 0.0
C1012 C 0.13414 0.78293 0.24126 0.0
C1013 C 0.16771 0.81592 0.227 0.0
C1014 C 0.20417 0.8491 0.24422 0.0
C1015 C 0.24791 0.84971 0.23905 0.0
C1016 C 0.20942 0.89535 0.24113 0.0
C1017 C 0.18565 0.82972 0.27037 0.0
C1018 C 0.14563 0.79114 0.26814 0.0
C1019 C 0.12175 0.76743 0.28953 0.0
C1020 C 0.13897 0.78388 0.31396 0.0
C1021 C 0.17926 0.82405 0.31674 0.0
C1022 C 0.20299 0.84703 0.29464 0.0
H1023 H 0.34663 0.15996 0.79856 0.0
H1024 H 0.39585 0.3001 0.79056 0.0
H1025 H 0.40736 0.29483 0.74378 0.0
H1026 H 0.41405 0.14663 0.74647 0.0
H1027 H 0.36783 0.09447 0.73683 0.0
H1028 H 0.37421 0.11158 0.77006 0.0
H1029 H 0.2953 0.10141 0.76944 0.0
H1030 H 0.28882 0.08493 0.73624 0.0
H1031 H 0.28154 0.13061 0.74584 0.0
H1032 H 0.40319 0.27187 0.69743 0.0
H1033 H 0.3807 0.23304 0.65539 0.0
H1034 H 0.3287 0.10738 0.69439 0.0
C1035 C 0.36126 0.18966 0.78701 0.0
C1036 C 0.37119 0.23049 0.79773 0.0
C1037 C 0.38899 0.26877 0.78235 0.0
C1038 C 0.39562 0.266 0.75593 0.0
C1039 C 0.38392 0.22468 0.74556 0.0
C1040 C 0.36716 0.18719 0.76071 0.0
C1041 C 0.35072 0.14584 0.74472 0.0
C1042 C 0.37837 0.12332 0.74982 0.0
C1043 C 0.30118 0.11386 0.74934 0.0
C1044 C 0.35902 0.16559 0.71812 0.0
C1045 C 0.37933 0.21116 0.71891 0.0
C1046 C 0.388 0.23629 0.69657 0.0
C1047 C 0.37521 0.21413 0.67288 0.0
C1048 C 0.35342 0.16755 0.67201 0.0
C1049 C 0.34556 0.14312 0.69479 0.0
H1050 H 0.33427 0.23645 0.95589 0.0
H1051 H 0.31982 0.32631 0.90426 0.0
H1052 H 0.30824 0.36335 0.9414 0.0
H1053 H 0.24926 0.21905 -0.004 0.0
H1054 H 0.27485 0.21625 0.0256 0.0
H1055 H 0.2904 0.20199 -0.00436 0.0
H1056 H 0.37241 0.26001 0.0042 0.0
H1057 H 0.35701 0.27425 0.03434 0.0
H1058 H 0.38724 0.31646 0.01075 0.0
H1059 H 0.28696 0.3829 0.98254 0.0
H1060 H 0.25845 0.38459 0.02574 0.0
H1061 H 0.28681 0.28247 0.05098 0.0
C1062 C 0.33008 0.26482 0.95254 0.0
C1063 C 0.32804 0.27871 0.92733 0.0
C1064 C 0.32139 0.3152 0.92351 0.0
C1065 C 0.31507 0.3366 0.94445 0.0
C1066 C 0.31566 0.32119 0.96905 0.0
C1067 C 0.32328 0.28633 0.97327 0.0
C1068 C 0.31727 0.27315 0.00136 0.0
C1069 C 0.28077 0.22476 0.00483 0.0
C1070 C 0.3611 0.28149 0.01337 0.0
C1071 C 0.30331 0.30479 0.01196 0.0
C1072 C 0.30323 0.33263 -0.00692 0.0
C1073 C 0.28771 0.36195 -0.00234 0.0
C1074 C 0.27132 0.36246 0.02216 0.0
C1075 C 0.27051 0.33372 0.04164 0.0
C1076 C 0.28759 0.30526 0.03656 0.0
H1077 H 0.10169 0.31894 0.46494 0.0
H1078 H 0.9986 0.25153 0.40761 0.0
H1079 H 0.94269 0.22241 0.44165 0.0
H1080 H 0.05032 0.23451 0.51583 0.0
H1081 H 0.06712 0.27498 0.5412 0.0
H1082 H 0.10043 0.28675 0.51266 0.0
H1083 H 0.09569 0.35776 0.50509 0.0
H1084 H 0.06245 0.34642 0.53356 0.0
H1085 H 0.04226 0.35402 0.50309 0.0
H1086 H 0.89699 0.2042 0.48128 0.0
H1087 H 0.86499 0.19857 0.52456 0.0
H1088 H 0.99702 0.28075 0.55557 0.0
C1089 C 0.06748 0.29741 0.45964 0.0
C1090 C 0.05471 0.28706 0.43365 0.0
C1091 C 0.0094 0.25951 0.42743 0.0
C1092 C 0.97723 0.24274 0.44661 0.0
C1093 C 0.99074 0.25412 0.47197 0.0
C1094 C 0.03471 0.28073 0.47859 0.0
C1095 C 0.03984 0.29023 0.50718 0.0
C1096 C 0.06597 0.27044 0.51997 0.0
C1097 C 0.06131 0.34006 0.51253 0.0
C1098 C 0.99188 0.26595 0.51528 0.0
C1099 C 0.96412 0.24473 0.4948 0.0
C1100 C 0.91835 0.22047 0.49758 0.0
C1101 C 0.90047 0.21759 0.52214 0.0
C1102 C 0.92844 0.23932 0.54334 0.0
C1103 C 0.97466 0.26394 0.53971 0.0
H1104 H 0.71852 0.92319 0.02666 0.0
H1105 H 0.62039 0.95244 0.05736 0.0
H1106 H 0.63887 0.00901 0.02348 0.0
H1107 H 0.79796 0.02932 0.0133 0.0
H1108 H 0.8171 0.01763 0.98369 0.0
H1109 H 0.79241 0.97569 0.00803 0.0
H1110 H 0.73406 0.92216 0.97522 0.0
H1111 H 0.75956 0.96354 0.9506 0.0
H1112 H 0.70148 0.94013 0.95726 0.0
H1113 H 0.67686 0.06988 0.99085 0.0
H1114 H 0.71944 0.11968 0.95524 0.0
H1115 H 0.78977 0.04723 0.94484 0.0
C1116 C 0.69966 0.94022 0.02542 0.0
C1117 C 0.66757 0.93335 0.04399 0.0
C1118 C 0.64429 0.95685 0.04268 0.0
C1119 C 0.65497 0.98927 0.02378 0.0
C1120 C 0.68846 0.99688 0.00639 0.0
C1121 C 0.70943 0.97201 0.00651 0.0
C1122 C 0.74514 0.98749 0.9863 0.0
C1123 C 0.79084 0.00346 -0.00142 0.0
C1124 C 0.7344 0.95118 0.96615 0.0
C1125 C 0.74157 0.0255 0.97508 0.0
C1126 C 0.70922 0.03089 0.98714 0.0
C1127 C 0.70165 0.06543 0.9809 0.0
C1128 C 0.72635 0.09387 0.96088 0.0
C1129 C 0.7575 0.08693 0.94723 0.0
C1130 C 0.76586 0.05299 0.95488 0.0
H1131 H 0.76511 0.74574 0.54742 0.0
H1132 H 0.74281 0.61495 0.5283 0.0
H1133 H 0.70985 0.61825 0.4868 0.0
H1134 H 0.66624 0.73496 0.51972 0.0
H1135 H 0.69242 0.79063 0.50759 0.0
H1136 H 0.71396 0.77807 0.53594 0.0
H1137 H 0.79095 0.81049 0.51465 0.0
H1138 H 0.76988 0.82381 0.4864 0.0
H1139 H 0.7958 0.79029 0.48356 0.0
H1140 H 0.68127 0.63641 0.4472 0.0
H1141 H 0.66094 0.66911 0.41122 0.0
H1142 H 0.70074 0.78769 0.45635 0.0
C1143 C 0.75342 0.71774 0.53457 0.0
C1144 C 0.75666 0.68006 0.54117 0.0
C1145 C 0.74088 0.64422 0.52367 0.0
C1146 C 0.72195 0.64572 0.5001 0.0
C1147 C 0.71914 0.68329 0.49433 0.0
C1148 C 0.73468 0.71877 0.51097 0.0
C1149 C 0.72897 0.75579 0.49982 0.0
C1150 C 0.69857 0.7654 0.51678 0.0
C1151 C 0.77408 0.79755 0.49587 0.0
C1152 C 0.7073 0.7354 0.47433 0.0
C1153 C 0.70211 0.69361 0.47156 0.0
C1154 C 0.68489 0.66893 0.4492 0.0
C1155 C 0.67348 0.68777 0.42891 0.0
C1156 C 0.67898 0.73067 0.43119 0.0
C1157 C 0.6954 0.75448 0.45436 0.0
H1158 H 0.98892 0.76659 0.94107 0.0
H1159 H 0.89431 0.62764 0.95205 0.0
H1160 H 0.93423 0.62734 0.99131 0.0
H1161 H 0.08563 0.76389 0.96264 0.0
H1162 H 0.10907 0.81634 0.97898 0.0
H1163 H 0.07376 0.80583 0.95139 0.0
H1164 H 0.02226 0.82432 0.97817 0.0
H1165 H 0.0579 0.83572 0.00565 0.0
H1166 H 0.99995 0.79585 0.00811 0.0
H1167 H 0.98297 0.64209 0.02934 0.0
H1168 H 0.03336 0.67274 0.06656 0.0
H1169 H 0.09712 0.80199 0.03096 0.0
C1170 C 0.97653 0.73606 0.95172 0.0
C1171 C 0.93855 0.69704 0.94344 0.0
C1172 C 0.92319 0.65793 0.95807 0.0
C1173 C 0.94586 0.65735 0.98026 0.0
C1174 C 0.98364 0.69616 0.98756 0.0
C1175 C 0.99856 0.73494 0.97397 0.0
C1176 C 0.03879 0.77259 0.98667 0.0
C1177 C 0.0792 0.79072 0.96885 0.0
C1178 C 0.02913 0.80927 -0.00484 0.0
C1179 C 0.04417 0.74888 0.00961 0.0
C1180 C 0.01211 0.70473 0.00959 0.0
C1181 C 0.00844 0.67645 0.02948 0.0
C1182 C 0.03723 0.69407 0.05044 0.0
C1183 C 0.0693 0.73941 0.05127 0.0
C1184 C 0.07367 0.76695 0.03032 0.0
H1185 H 0.25865 0.98811 0.43435 0.0
H1186 H 0.19249 0.86227 0.47423 0.0
H1187 H 0.20813 0.90171 0.5158 0.0
H1188 H 0.34532 0.0414 0.47667 0.0
H1189 H 0.34855 0.09453 0.47473 0.0
H1190 H 0.32687 0.05682 0.44804 0.0
H1191 H 0.25452 0.06076 0.44942 0.0
H1192 H 0.27609 0.09877 0.47611 0.0
H1193 H 0.2238 0.04863 0.47903 0.0
H1194 H 0.23922 0.9533 0.55235 0.0
H1195 H 0.28346 0.01383 0.58225 0.0
H1196 H 0.32749 0.10733 0.51916 0.0
C1197 C 0.24676 0.96871 0.45177 0.0
C1198 C 0.22435 0.92205 0.45109 0.0
C1199 C 0.20966 0.898 0.47432 0.0
C1200 C 0.21818 0.92011 0.49797 0.0
C1201 C 0.24092 0.96612 0.49793 0.0
C1202 C 0.25479 0.99019 0.47546 0.0
C1203 C 0.28161 0.03929 0.48081 0.0
C1204 C 0.32834 0.05914 0.46939 0.0
C1205 C 0.25756 0.06327 0.47075 0.0
C1206 C 0.28258 0.03894 0.50993 0.0
C1207 C 0.25817 0.99638 0.51932 0.0
C1208 C 0.25723 0.98687 0.54534 0.0
C1209 C 0.28218 0.02162 0.56222 0.0
C1210 C 0.30733 0.0655 0.55318 0.0
C1211 C 0.30741 0.07429 0.52667 0.0
loop_
_geom_bond_atom_site_label_1
_geom_bond_atom_site_label_2
_geom_bond_distance
_geom_bond_site_symmetry_2
_ccdc_geom_bond_type
Zn0 O6 1.969 . S
Zn0 O7 1.965 . S
Zn0 O11 2.024 . S
Zn0 O16 1.969 . S
Zn1 O8 1.969 . S
Zn1 O14 1.969 . S
Zn1 O15 1.965 . S
Zn1 O17 2.024 . S
C2 O3 1.229 . S
C2 O11 1.058 . S
O3 C2 1.229 . S
C4 O5 1.229 . S
C4 O17 1.058 . S
O5 C4 1.229 . S
O6 Zn0 1.969 . S
O6 C9 1.267 . S
O7 Zn0 1.965 . S
O7 C18 1.260 . S
O8 Zn1 1.969 . S
O8 C18 1.258 . S
C9 O6 1.267 . S
C9 O10 1.228 . S
O10 C9 1.228 . S
O11 Zn0 2.024 . S
O11 C2 1.058 . S
C12 O13 1.228 . S
C12 O14 1.267 . S
O13 C12 1.228 . S
O14 Zn1 1.969 . S
O14 C12 1.267 . S
O15 Zn1 1.965 . S
O15 C19 1.260 . S
O16 Zn0 1.969 . S
O16 C19 1.258 . S
O17 Zn1 2.024 . S
O17 C4 1.058 . S
C18 O7 1.260 . S
C18 O8 1.258 . S
C19 O15 1.260 . S
C19 O16 1.258 . S
Zn20 O26 1.969 . S
Zn20 O27 1.965 . S
Zn20 O31 2.024 . S
Zn20 O36 1.969 . S
Zn21 O28 1.969 . S
Zn21 O34 1.969 . S
Zn21 O35 1.965 . S
Zn21 O37 2.024 . S
C22 O23 1.229 . S
C22 O31 1.058 . S
O23 C22 1.229 . S
C24 O25 1.229 . S
C24 O37 1.058 . S
O25 C24 1.229 . S
O26 Zn20 1.969 . S
O26 C29 1.267 . S
O27 Zn20 1.965 . S
O27 C38 1.260 . S
O28 Zn21 1.969 . S
O28 C38 1.258 . S
C29 O26 1.267 . S
C29 O30 1.228 . S
O30 C29 1.228 . S
O31 Zn20 2.024 . S
O31 C22 1.058 . S
C32 O33 1.228 . S
C32 O34 1.267 . S
O33 C32 1.228 . S
O34 Zn21 1.969 . S
O34 C32 1.267 . S
O35 Zn21 1.965 . S
O35 C39 1.260 . S
O36 Zn20 1.969 . S
O36 C39 1.258 . S
O37 Zn21 2.024 . S
O37 C24 1.058 . S
C38 O27 1.260 . S
C38 O28 1.258 . S
C39 O35 1.260 . S
C39 O36 1.258 . S
Zn40 O46 1.969 . S
Zn40 O47 1.965 . S
Zn40 O51 2.024 . S
Zn40 O56 1.969 . S
Zn41 O48 1.969 . S
Zn41 O54 1.969 . S
Zn41 O55 1.965 . S
Zn41 O57 2.024 . S
C42 O43 1.229 . S
C42 O51 1.058 . S
O43 C42 1.229 . S
C44 O45 1.229 . S
C44 O57 1.058 . S
O45 C44 1.229 . S
O46 Zn40 1.969 . S
O46 C49 1.267 . S
O47 Zn40 1.965 . S
O47 C58 1.260 . S
O48 Zn41 1.969 . S
O48 C58 1.258 . S
C49 O46 1.267 . S
C49 O50 1.228 . S
O50 C49 1.228 . S
O51 Zn40 2.024 . S
O51 C42 1.058 . S
C52 O53 1.228 . S
C52 O54 1.267 . S
O53 C52 1.228 . S
O54 Zn41 1.969 . S
O54 C52 1.267 . S
O55 Zn41 1.965 . S
O55 C59 1.260 . S
O56 Zn40 1.969 . S
O56 C59 1.258 . S
O57 Zn41 2.024 . S
O57 C44 1.058 . S
C58 O47 1.260 . S
C58 O48 1.258 . S
C59 O55 1.260 . S
C59 O56 1.258 . S
Zn60 O66 1.969 . S
Zn60 O67 1.965 . S
Zn60 O71 2.024 . S
Zn60 O76 1.969 . S
Zn61 O68 1.969 . S
Zn61 O74 1.969 . S
Zn61 O75 1.965 . S
Zn61 O77 2.024 . S
C62 O63 1.229 . S
C62 O71 1.058 . S
O63 C62 1.229 . S
C64 O65 1.229 . S
C64 O77 1.058 . S
O65 C64 1.229 . S
O66 Zn60 1.969 . S
O66 C69 1.267 . S
O67 Zn60 1.965 . S
O67 C78 1.260 . S
O68 Zn61 1.969 . S
O68 C78 1.258 . S
C69 O66 1.267 . S
C69 O70 1.228 . S
O70 C69 1.228 . S
O71 Zn60 2.024 . S
O71 C62 1.058 . S
C72 O73 1.228 . S
C72 O74 1.267 . S
O73 C72 1.228 . S
O74 Zn61 1.969 . S
O74 C72 1.267 . S
O75 Zn61 1.965 . S
O75 C79 1.260 . S
O76 Zn60 1.969 . S
O76 C79 1.258 . S
O77 Zn61 2.024 . S
O77 C64 1.058 . S
C78 O67 1.260 . S
C78 O68 1.258 . S
C79 O75 1.260 . S
C79 O76 1.258 . S
Zn80 O86 1.969 . S
Zn80 O87 1.965 . S
Zn80 O91 2.024 . S
Zn80 O96 1.969 . S
Zn81 O88 1.969 . S
Zn81 O94 1.969 . S
Zn81 O95 1.965 . S
Zn81 O97 2.024 . S
C82 O83 1.229 . S
C82 O91 1.058 . S
O83 C82 1.229 . S
C84 O85 1.229 . S
C84 O97 1.058 . S
O85 C84 1.229 . S
O86 Zn80 1.969 . S
O86 C89 1.267 . S
O87 Zn80 1.965 . S
O87 C98 1.260 . S
O88 Zn81 1.969 . S
O88 C98 1.258 . S
C89 O86 1.267 . S
C89 O90 1.228 . S
O90 C89 1.228 . S
O91 Zn80 2.024 . S
O91 C82 1.058 . S
C92 O93 1.228 . S
C92 O94 1.267 . S
O93 C92 1.228 . S
O94 Zn81 1.969 . S
O94 C92 1.267 . S
O95 Zn81 1.965 . S
O95 C99 1.260 . S
O96 Zn80 1.969 . S
O96 C99 1.258 . S
O97 Zn81 2.024 . S
O97 C84 1.058 . S
C98 O87 1.260 . S
C98 O88 1.258 . S
C99 O95 1.260 . S
C99 O96 1.258 . S
Zn100 O106 1.969 . S
Zn100 O107 1.965 . S
Zn100 O111 2.024 . S
Zn100 O116 1.969 . S
Zn101 O108 1.969 . S
Zn101 O114 1.969 . S
Zn101 O115 1.965 . S
Zn101 O117 2.024 . S
C102 O103 1.229 . S
C102 O111 1.058 . S
O103 C102 1.229 . S
C104 O105 1.229 . S
C104 O117 1.058 . S
O105 C104 1.229 . S
O106 Zn100 1.969 . S
O106 C109 1.267 . S
O107 Zn100 1.965 . S
O107 C118 1.260 . S
O108 Zn101 1.969 . S
O108 C118 1.258 . S
C109 O106 1.267 . S
C109 O110 1.228 . S
O110 C109 1.228 . S
O111 Zn100 2.024 . S
O111 C102 1.058 . S
C112 O113 1.228 . S
C112 O114 1.267 . S
O113 C112 1.228 . S
O114 Zn101 1.969 . S
O114 C112 1.267 . S
O115 Zn101 1.965 . S
O115 C119 1.260 . S
O116 Zn100 1.969 . S
O116 C119 1.258 . S
O117 Zn101 2.024 . S
O117 C104 1.058 . S
C118 O107 1.260 . S
C118 O108 1.258 . S
C119 O115 1.260 . S
C119 O116 1.258 . S
Zn120 O126 1.969 . S
Zn120 O127 1.965 . S
Zn120 O131 2.024 . S
Zn120 O136 1.969 . S
Zn121 O128 1.969 . S
Zn121 O134 1.969 . S
Zn121 O135 1.965 . S
Zn121 O137 2.024 . S
C122 O123 1.229 . S
C122 O131 1.058 . S
O123 C122 1.229 . S
C124 O125 1.229 . S
C124 O137 1.058 . S
O125 C124 1.229 . S
O126 Zn120 1.969 . S
O126 C129 1.267 . S
O127 Zn120 1.965 . S
O127 C138 1.260 . S
O128 Zn121 1.969 . S
O128 C138 1.258 . S
C129 O126 1.267 . S
C129 O130 1.228 . S
O130 C129 1.228 . S
O131 Zn120 2.024 . S
O131 C122 1.058 . S
C132 O133 1.228 . S
C132 O134 1.267 . S
O133 C132 1.228 . S
O134 Zn121 1.969 . S
O134 C132 1.267 . S
O135 Zn121 1.965 . S
O135 C139 1.260 . S
O136 Zn120 1.969 . S
O136 C139 1.258 . S
O137 Zn121 2.024 . S
O137 C124 1.058 . S
C138 O127 1.260 . S
C138 O128 1.258 . S
C139 O135 1.260 . S
C139 O136 1.258 . S
Zn140 O146 1.969 . S
Zn140 O147 1.965 . S
Zn140 O151 2.024 . S
Zn140 O156 1.969 . S
Zn141 O148 1.969 . S
Zn141 O154 1.969 . S
Zn141 O155 1.965 . S
Zn141 O157 2.024 . S
C142 O143 1.229 . S
C142 O151 1.058 . S
O143 C142 1.229 . S
C144 O145 1.229 . S
C144 O157 1.058 . S
O145 C144 1.229 . S
O146 Zn140 1.969 . S
O146 C149 1.267 . S
O147 Zn140 1.965 . S
O147 C158 1.260 . S
O148 Zn141 1.969 . S
O148 C158 1.258 . S
C149 O146 1.267 . S
C149 O150 1.228 . S
O150 C149 1.228 . S
O151 Zn140 2.024 . S
O151 C142 1.058 . S
C152 O153 1.228 . S
C152 O154 1.267 . S
O153 C152 1.228 . S
O154 Zn141 1.969 . S
O154 C152 1.267 . S
O155 Zn141 1.965 . S
O155 C159 1.260 . S
O156 Zn140 1.969 . S
O156 C159 1.258 . S
O157 Zn141 2.024 . S
O157 C144 1.058 . S
C158 O147 1.260 . S
C158 O148 1.258 . S
C159 O155 1.260 . S
C159 O156 1.258 . S
Zn160 O166 1.969 . S
Zn160 O167 1.965 . S
Zn160 O171 2.024 . S
Zn160 O176 1.969 . S
Zn161 O168 1.969 . S
Zn161 O174 1.969 . S
Zn161 O175 1.965 . S
Zn161 O177 2.024 . S
C162 O163 1.229 . S
C162 O171 1.058 . S
O163 C162 1.229 . S
C164 O165 1.229 . S
C164 O177 1.058 . S
O165 C164 1.229 . S
O166 Zn160 1.969 . S
O166 C169 1.267 . S
O167 Zn160 1.965 . S
O167 C178 1.260 . S
O168 Zn161 1.969 . S
O168 C178 1.258 . S
C169 O166 1.267 . S
C169 O170 1.228 . S
O170 C169 1.228 . S
O171 Zn160 2.024 . S
O171 C162 1.058 . S
C172 O173 1.228 . S
C172 O174 1.267 . S
O173 C172 1.228 . S
O174 Zn161 1.969 . S
O174 C172 1.267 . S
O175 Zn161 1.965 . S
O175 C179 1.260 . S
O176 Zn160 1.969 . S
O176 C179 1.258 . S
O177 Zn161 2.024 . S
O177 C164 1.058 . S
C178 O167 1.260 . S
C178 O168 1.258 . S
C179 O175 1.260 . S
C179 O176 1.258 . S
Zn180 O186 1.969 . S
Zn180 O187 1.965 . S
Zn180 O191 2.024 . S
Zn180 O196 1.969 . S
Zn181 O188 1.969 . S
Zn181 O194 1.969 . S
Zn181 O195 1.965 . S
Zn181 O197 2.024 . S
C182 O183 1.229 . S
C182 O191 1.058 . S
O183 C182 1.229 . S
C184 O185 1.229 . S
C184 O197 1.058 . S
O185 C184 1.229 . S
O186 Zn180 1.969 . S
O186 C189 1.267 . S
O187 Zn180 1.965 . S
O187 C198 1.260 . S
O188 Zn181 1.969 . S
O188 C198 1.258 . S
C189 O186 1.267 . S
C189 O190 1.228 . S
O190 C189 1.228 . S
O191 Zn180 2.024 . S
O191 C182 1.058 . S
C192 O193 1.228 . S
C192 O194 1.267 . S
O193 C192 1.228 . S
O194 Zn181 1.969 . S
O194 C192 1.267 . S
O195 Zn181 1.965 . S
O195 C199 1.260 . S
O196 Zn180 1.969 . S
O196 C199 1.258 . S
O197 Zn181 2.024 . S
O197 C184 1.058 . S
C198 O187 1.260 . S
C198 O188 1.258 . S
C199 O195 1.260 . S
C199 O196 1.258 . S
Zn200 O206 1.969 . S
Zn200 O207 1.965 . S
Zn200 O211 2.024 . S
Zn200 O216 1.969 . S
Zn201 O208 1.969 . S
Zn201 O214 1.969 . S
Zn201 O215 1.965 . S
Zn201 O217 2.024 . S
C202 O203 1.229 . S
C202 O211 1.058 . S
O203 C202 1.229 . S
C204 O205 1.229 . S
C204 O217 1.058 . S
O205 C204 1.229 . S
O206 Zn200 1.969 . S
O206 C209 1.267 . S
O207 Zn200 1.965 . S
O207 C218 1.260 . S
O208 Zn201 1.969 . S
O208 C218 1.258 . S
C209 O206 1.267 . S
C209 O210 1.228 . S
O210 C209 1.228 . S
O211 Zn200 2.024 . S
O211 C202 1.058 . S
C212 O213 1.228 . S
C212 O214 1.267 . S
O213 C212 1.228 . S
O214 Zn201 1.969 . S
O214 C212 1.267 . S
O215 Zn201 1.965 . S
O215 C219 1.260 . S
O216 Zn200 1.969 . S
O216 C219 1.258 . S
O217 Zn201 2.024 . S
O217 C204 1.058 . S
C218 O207 1.260 . S
C218 O208 1.258 . S
C219 O215 1.260 . S
C219 O216 1.258 . S
Zn220 O226 1.969 . S
Zn220 O227 1.965 . S
Zn220 O231 2.024 . S
Zn220 O236 1.969 . S
Zn221 O228 1.969 . S
Zn221 O234 1.969 . S
Zn221 O235 1.965 . S
Zn221 O237 2.024 . S
C222 O223 1.229 . S
C222 O231 1.058 . S
O223 C222 1.229 . S
C224 O225 1.229 . S
C224 O237 1.058 . S
O225 C224 1.229 . S
O226 Zn220 1.969 . S
O226 C229 1.267 . S
O227 Zn220 1.965 . S
O227 C238 1.260 . S
O228 Zn221 1.969 . S
O228 C238 1.258 . S
C229 O226 1.267 . S
C229 O230 1.228 . S
O230 C229 1.228 . S
O231 Zn220 2.024 . S
O231 C222 1.058 . S
C232 O233 1.228 . S
C232 O234 1.267 . S
O233 C232 1.228 . S
O234 Zn221 1.969 . S
O234 C232 1.267 . S
O235 Zn221 1.965 . S
O235 C239 1.260 . S
O236 Zn220 1.969 . S
O236 C239 1.258 . S
O237 Zn221 2.024 . S
O237 C224 1.058 . S
C238 O227 1.260 . S
C238 O228 1.258 . S
C239 O235 1.260 . S
C239 O236 1.258 . S
H240 C252 0.930 . S
H241 C254 0.930 . S
H242 C255 0.930 . S
H243 C259 0.959 . S
H244 C259 0.959 . S
H245 C259 0.961 . S
H246 C260 0.960 . S
H247 C260 0.961 . S
H248 C260 0.959 . S
H249 C263 0.929 . S
H250 C264 0.931 . S
H251 C266 0.930 . S
C252 H240 0.930 . S
C252 C253 1.399 . S
C252 C257 1.399 1_565 S
C253 C252 1.399 . S
C253 C254 1.376 . S
C254 H241 0.930 . S
C254 C253 1.376 . S
C254 C255 1.388 . S
C255 H242 0.930 . S
C255 C254 1.388 . S
C255 C256 1.390 1_565 S
C256 C255 1.390 1_545 S
C256 C257 1.394 . S
C256 C262 1.465 . S
C257 C252 1.399 1_545 S
C257 C256 1.394 . S
C257 C258 1.516 . S
C258 C257 1.516 . S
C258 C259 1.502 . S
C258 C260 1.561 . S
C258 C261 1.526 . S
C259 H243 0.959 . S
C259 H244 0.959 . S
C259 H245 0.961 . S
C259 C258 1.502 . S
C260 H246 0.960 . S
C260 H247 0.961 . S
C260 H248 0.959 . S
C260 C258 1.561 . S
C261 C258 1.526 . S
C261 C262 1.396 . S
C261 C266 1.390 . S
C262 C256 1.465 . S
C262 C261 1.396 . S
C262 C263 1.399 . S
C263 H249 0.929 . S
C263 C262 1.399 . S
C263 C264 1.385 . S
C264 H250 0.931 . S
C264 C263 1.385 . S
C264 C265 1.389 . S
C265 C264 1.389 . S
C265 C266 1.387 . S
C266 H251 0.930 . S
C266 C261 1.390 . S
C266 C265 1.387 . S
H267 C279 0.930 . S
H268 C281 0.930 . S
H269 C282 0.930 . S
H270 C286 0.959 . S
H271 C286 0.959 . S
H272 C286 0.961 . S
H273 C287 0.960 . S
H274 C287 0.961 . S
H275 C287 0.959 . S
H276 C290 0.929 . S
H277 C291 0.931 1_655 S
H278 C293 0.930 . S
C279 H267 0.930 . S
C279 C280 1.399 . S
C279 C284 1.399 . S
C280 C279 1.399 . S
C280 C281 1.376 . S
C281 H268 0.930 . S
C281 C280 1.376 . S
C281 C282 1.388 . S
C282 H269 0.930 . S
C282 C281 1.388 . S
C282 C283 1.390 . S
C283 C282 1.390 . S
C283 C284 1.394 . S
C283 C289 1.465 . S
C284 C279 1.399 . S
C284 C283 1.394 . S
C284 C285 1.516 . S
C285 C284 1.516 . S
C285 C286 1.502 . S
C285 C287 1.561 . S
C285 C288 1.526 . S
C286 H270 0.959 . S
C286 H271 0.959 . S
C286 H272 0.961 . S
C286 C285 1.502 . S
C287 H273 0.960 . S
C287 H274 0.961 . S
C287 H275 0.959 . S
C287 C285 1.561 . S
C288 C285 1.526 . S
C288 C289 1.396 . S
C288 C293 1.390 . S
C289 C283 1.465 . S
C289 C288 1.396 . S
C289 C290 1.399 . S
C290 H276 0.929 . S
C290 C289 1.399 . S
C290 C291 1.385 . S
C291 H277 0.931 1_455 S
C291 C290 1.385 . S
C291 C292 1.389 . S
C292 C291 1.389 . S
C292 C293 1.387 . S
C293 H278 0.930 . S
C293 C288 1.390 . S
C293 C292 1.387 . S
H294 C306 0.930 . S
H295 C308 0.912 1_565 S
H296 C309 0.930 . S
H297 C313 0.959 . S
H298 C313 0.959 . S
H299 C313 0.961 . S
H300 C314 0.960 . S
H301 C314 0.961 . S
H302 C314 0.959 . S
H303 C317 0.929 . S
H304 C318 0.931 . S
H305 C320 0.930 . S
C306 H294 0.930 . S
C306 C307 1.399 . S
C306 C311 1.399 . S
C307 C306 1.399 . S
C307 C308 1.392 . S
C308 H295 0.912 1_545 S
C308 C307 1.392 . S
C308 C309 1.391 . S
C309 H296 0.930 . S
C309 C308 1.391 . S
C309 C310 1.390 . S
C310 C309 1.390 . S
C310 C311 1.394 . S
C310 C316 1.465 . S
C311 C306 1.399 . S
C311 C310 1.394 . S
C311 C312 1.516 . S
C312 C311 1.516 . S
C312 C313 1.502 . S
C312 C314 1.561 . S
C312 C315 1.526 . S
C313 H297 0.959 . S
C313 H298 0.959 . S
C313 H299 0.961 . S
C313 C312 1.502 . S
C314 H300 0.960 . S
C314 H301 0.961 . S
C314 H302 0.959 . S
C314 C312 1.561 . S
C315 C312 1.526 . S
C315 C316 1.396 . S
C315 C320 1.390 1_655 S
C316 C310 1.465 . S
C316 C315 1.396 . S
C316 C317 1.399 1_655 S
C317 H303 0.929 . S
C317 C316 1.399 1_455 S
C317 C318 1.385 . S
C318 H304 0.931 . S
C318 C317 1.385 . S
C318 C319 1.389 . S
C319 C318 1.389 . S
C319 C320 1.387 . S
C320 H305 0.930 . S
C320 C315 1.390 1_455 S
C320 C319 1.387 . S
H321 C333 0.930 . S
H322 C335 0.930 . S
H323 C336 0.930 . S
H324 C340 0.959 . S
H325 C340 0.959 . S
H326 C340 0.961 . S
H327 C341 0.960 . S
H328 C341 0.961 . S
H329 C341 0.959 . S
H330 C344 0.929 . S
H331 C345 0.931 . S
H332 C347 0.930 . S
C333 H321 0.930 . S
C333 C334 1.399 . S
C333 C338 1.399 . S
C334 C333 1.399 . S
C334 C335 1.376 . S
C335 H322 0.930 . S
C335 C334 1.376 . S
C335 C336 1.388 . S
C336 H323 0.930 . S
C336 C335 1.388 . S
C336 C337 1.390 . S
C337 C336 1.390 . S
C337 C338 1.394 . S
C337 C343 1.465 . S
C338 C333 1.399 . S
C338 C337 1.394 . S
C338 C339 1.516 . S
C339 C338 1.516 . S
C339 C340 1.502 . S
C339 C341 1.561 . S
C339 C342 1.526 . S
C340 H324 0.959 . S
C340 H325 0.959 . S
C340 H326 0.961 . S
C340 C339 1.502 . S
C341 H327 0.960 . S
C341 H328 0.961 . S
C341 H329 0.959 . S
C341 C339 1.561 . S
C342 C339 1.526 . S
C342 C343 1.396 . S
C342 C347 1.390 1_565 S
C343 C337 1.465 . S
C343 C342 1.396 . S
C343 C344 1.399 . S
C344 H330 0.929 . S
C344 C343 1.399 . S
C344 C345 1.385 1_565 S
C345 H331 0.931 . S
C345 C344 1.385 1_545 S
C345 C346 1.389 . S
C346 C345 1.389 . S
C346 C347 1.387 . S
C347 H332 0.930 . S
C347 C342 1.390 1_545 S
C347 C346 1.387 . S
H348 C360 0.930 . S
H349 C362 0.915 1_455 S
H350 C363 0.930 . S
H351 C367 0.959 . S
H352 C367 0.959 . S
H353 C367 0.961 . S
H354 C368 0.960 . S
H355 C368 0.961 . S
H356 C368 0.959 . S
H357 C371 0.929 . S
H358 C372 0.931 . S
H359 C374 0.930 . S
C360 H348 0.930 . S
C360 C361 1.399 . S
C360 C365 1.399 . S
C361 C360 1.399 . S
C361 C362 1.376 . S
C362 H349 0.915 1_655 S
C362 C361 1.376 . S
C362 C363 1.388 . S
C363 H350 0.930 . S
C363 C362 1.388 . S
C363 C364 1.390 . S
C364 C363 1.390 . S
C364 C365 1.394 . S
C364 C370 1.465 . S
C365 C360 1.399 . S
C365 C364 1.394 . S
C365 C366 1.516 . S
C366 C365 1.516 . S
C366 C367 1.502 . S
C366 C368 1.561 . S
C366 C369 1.526 . S
C367 H351 0.959 . S
C367 H352 0.959 . S
C367 H353 0.961 . S
C367 C366 1.502 . S
C368 H354 0.960 . S
C368 H355 0.961 . S
C368 H356 0.959 . S
C368 C366 1.561 . S
C369 C366 1.526 . S
C369 C370 1.396 . S
C369 C374 1.390 . S
C370 C364 1.465 . S
C370 C369 1.396 . S
C370 C371 1.399 . S
C371 H357 0.929 . S
C371 C370 1.399 . S
C371 C372 1.385 . S
C372 H358 0.931 . S
C372 C371 1.385 . S
C372 C373 1.389 . S
C373 C372 1.389 . S
C373 C374 1.387 . S
C374 H359 0.930 . S
C374 C369 1.390 . S
C374 C373 1.387 . S
H375 C387 0.930 . S
H376 C389 0.930 . S
H377 C390 0.926 . S
H378 C394 0.959 . S
H379 C394 0.959 . S
H380 C394 0.961 . S
H381 C395 0.960 . S
H382 C395 0.961 . S
H383 C395 0.959 . S
H384 C398 0.929 . S
H385 C399 0.931 1_545 S
H386 C401 0.930 . S
C387 H375 0.930 . S
C387 C388 1.399 . S
C387 C392 1.399 1_655 S
C388 C387 1.399 . S
C388 C389 1.376 . S
C389 H376 0.930 . S
C389 C388 1.376 . S
C389 C390 1.388 . S
C390 H377 0.926 . S
C390 C389 1.388 . S
C390 C391 1.390 1_655 S
C391 C390 1.390 1_455 S
C391 C392 1.394 . S
C391 C397 1.465 . S
C392 C387 1.399 1_455 S
C392 C391 1.394 . S
C392 C393 1.516 . S
C393 C392 1.516 . S
C393 C394 1.502 . S
C393 C395 1.561 . S
C393 C396 1.526 . S
C394 H378 0.959 . S
C394 H379 0.959 . S
C394 H380 0.961 . S
C394 C393 1.502 . S
C395 H381 0.960 . S
C395 H382 0.961 . S
C395 H383 0.959 . S
C395 C393 1.561 . S
C396 C393 1.526 . S
C396 C397 1.396 . S
C396 C401 1.390 . S
C397 C391 1.465 . S
C397 C396 1.396 . S
C397 C398 1.399 . S
C398 H384 0.929 . S
C398 C397 1.399 . S
C398 C399 1.385 . S
C399 H385 0.931 1_565 S
C399 C398 1.385 . S
C399 C400 1.389 . S
C400 C399 1.389 . S
C400 C401 1.387 . S
C401 H386 0.930 . S
C401 C396 1.390 . S
C401 C400 1.387 . S
H402 C414 0.930 . S
H403 C416 0.930 . S
H404 C417 0.922 1_655 S
H405 C421 0.959 . S
H406 C421 0.959 . S
H407 C421 0.961 . S
H408 C422 0.960 . S
H409 C422 0.961 . S
H410 C422 0.959 . S
H411 C425 0.929 . S
H412 C426 0.931 . S
H413 C428 0.930 . S
C414 H402 0.930 . S
C414 C415 1.399 . S
C414 C419 1.399 1_455 S
C415 C414 1.399 . S
C415 C416 1.376 . S
C416 H403 0.930 . S
C416 C415 1.376 . S
C416 C417 1.388 . S
C417 H404 0.922 1_455 S
C417 C416 1.388 . S
C417 C418 1.390 1_455 S
C418 C417 1.390 1_655 S
C418 C419 1.394 . S
C418 C424 1.465 . S
C419 C414 1.399 1_655 S
C419 C418 1.394 . S
C419 C420 1.516 . S
C420 C419 1.516 . S
C420 C421 1.502 . S
C420 C422 1.561 . S
C420 C423 1.526 . S
C421 H405 0.959 . S
C421 H406 0.959 . S
C421 H407 0.961 . S
C421 C420 1.502 . S
C422 H408 0.960 . S
C422 H409 0.961 . S
C422 H410 0.959 . S
C422 C420 1.561 . S
C423 C420 1.526 . S
C423 C424 1.396 . S
C423 C428 1.390 . S
C424 C418 1.465 . S
C424 C423 1.396 . S
C424 C425 1.399 . S
C425 H411 0.929 . S
C425 C424 1.399 . S
C425 C426 1.385 . S
C426 H412 0.931 . S
C426 C425 1.385 . S
C426 C427 1.389 . S
C427 C426 1.389 . S
C427 C428 1.387 . S
C428 H413 0.930 . S
C428 C423 1.390 . S
C428 C427 1.387 . S
H429 C441 0.930 . S
H430 C443 0.930 . S
H431 C444 0.930 . S
H432 C448 0.959 . S
H433 C448 0.959 . S
H434 C448 0.961 . S
H435 C449 0.960 . S
H436 C449 0.961 . S
H437 C449 0.959 . S
H438 C452 0.929 . S
H439 C453 0.931 . S
H440 C455 0.930 . S
C441 H429 0.930 . S
C441 C442 1.399 . S
C441 C446 1.399 . S
C442 C441 1.399 . S
C442 C443 1.376 . S
C443 H430 0.930 . S
C443 C442 1.376 . S
C443 C444 1.388 . S
C444 H431 0.930 . S
C444 C443 1.388 . S
C444 C445 1.390 . S
C445 C444 1.390 . S
C445 C446 1.394 . S
C445 C451 1.465 . S
C446 C441 1.399 . S
C446 C445 1.394 . S
C446 C447 1.516 . S
C447 C446 1.516 . S
C447 C448 1.502 . S
C447 C449 1.561 . S
C447 C450 1.526 . S
C448 H432 0.959 . S
C448 H433 0.959 . S
C448 H434 0.961 . S
C448 C447 1.502 . S
C449 H435 0.960 . S
C449 H436 0.961 . S
C449 H437 0.959 . S
C449 C447 1.561 . S
C450 C447 1.526 . S
C450 C451 1.396 . S
C450 C455 1.390 1_565 S
C451 C445 1.465 . S
C451 C450 1.396 . S
C451 C452 1.399 . S
C452 H438 0.929 . S
C452 C451 1.399 . S
C452 C453 1.385 1_565 S
C453 H439 0.931 . S
C453 C452 1.385 1_545 S
C453 C454 1.389 . S
C454 C453 1.389 . S
C454 C455 1.387 . S
C455 H440 0.930 . S
C455 C450 1.390 1_545 S
C455 C454 1.387 . S
H456 C468 0.930 . S
H457 C470 0.930 . S
H458 C471 0.930 . S
H459 C475 0.959 . S
H460 C475 0.959 . S
H461 C475 0.961 . S
H462 C476 0.960 . S
H463 C476 0.961 . S
H464 C476 0.959 . S
H465 C479 0.929 . S
H466 C480 0.931 . S
H467 C482 0.930 . S
C468 H456 0.930 . S
C468 C469 1.399 . S
C468 C473 1.399 . S
C469 C468 1.399 . S
C469 C470 1.376 . S
C470 H457 0.930 . S
C470 C469 1.376 . S
C470 C471 1.388 . S
C471 H458 0.930 . S
C471 C470 1.388 . S
C471 C472 1.390 . S
C472 C471 1.390 . S
C472 C473 1.394 . S
C472 C478 1.465 . S
C473 C468 1.399 . S
C473 C472 1.394 . S
C473 C474 1.516 . S
C474 C473 1.516 . S
C474 C475 1.502 . S
C474 C476 1.561 . S
C474 C477 1.526 . S
C475 H459 0.959 . S
C475 H460 0.959 . S
C475 H461 0.961 . S
C475 C474 1.502 . S
C476 H462 0.960 . S
C476 H463 0.961 . S
C476 H464 0.959 . S
C476 C474 1.561 . S
C477 C474 1.526 . S
C477 C478 1.396 . S
C477 C482 1.390 . S
C478 C472 1.465 . S
C478 C477 1.396 . S
C478 C479 1.399 . S
C479 H465 0.929 . S
C479 C478 1.399 . S
C479 C480 1.385 . S
C480 H466 0.931 . S
C480 C479 1.385 . S
C480 C481 1.389 . S
C481 C480 1.389 . S
C481 C482 1.387 . S
C482 H467 0.930 . S
C482 C477 1.390 . S
C482 C481 1.387 . S
H483 C495 0.930 . S
H484 C497 0.930 . S
H485 C498 0.930 . S
H486 C502 0.959 . S
H487 C502 0.959 . S
H488 C502 0.961 . S
H489 C503 0.960 . S
H490 C503 0.961 . S
H491 C503 0.959 . S
H492 C506 0.932 . S
H493 C507 0.931 . S
H494 C509 0.930 . S
C495 H483 0.930 . S
C495 C496 1.399 . S
C495 C500 1.399 . S
C496 C495 1.399 . S
C496 C497 1.376 . S
C497 H484 0.930 . S
C497 C496 1.376 . S
C497 C498 1.388 . S
C498 H485 0.930 . S
C498 C497 1.388 . S
C498 C499 1.390 . S
C499 C498 1.390 . S
C499 C500 1.394 . S
C499 C505 1.465 . S
C500 C495 1.399 . S
C500 C499 1.394 . S
C500 C501 1.516 . S
C501 C500 1.516 . S
C501 C502 1.502 . S
C501 C503 1.561 . S
C501 C504 1.526 . S
C502 H486 0.959 . S
C502 H487 0.959 . S
C502 H488 0.961 . S
C502 C501 1.502 . S
C503 H489 0.960 . S
C503 H490 0.961 . S
C503 H491 0.959 . S
C503 C501 1.561 . S
C504 C501 1.526 . S
C504 C505 1.396 . S
C504 C509 1.390 1_455 S
C505 C499 1.465 . S
C505 C504 1.396 . S
C505 C506 1.399 1_455 S
C506 H492 0.932 . S
C506 C505 1.399 1_655 S
C506 C507 1.385 . S
C507 H493 0.931 . S
C507 C506 1.385 . S
C507 C508 1.389 . S
C508 C507 1.389 . S
C508 C509 1.387 . S
C509 H494 0.930 . S
C509 C504 1.390 1_655 S
C509 C508 1.387 . S
H510 C522 0.930 . S
H511 C524 0.930 1_455 S
H512 C525 0.930 . S
H513 C529 0.959 . S
H514 C529 0.959 . S
H515 C529 0.961 . S
H516 C530 0.960 . S
H517 C530 0.961 . S
H518 C530 0.959 . S
H519 C533 0.929 . S
H520 C534 0.931 . S
H521 C536 0.930 . S
C522 H510 0.930 . S
C522 C523 1.399 . S
C522 C527 1.399 . S
C523 C522 1.399 . S
C523 C524 1.376 . S
C524 H511 0.930 1_655 S
C524 C523 1.376 . S
C524 C525 1.388 . S
C525 H512 0.930 . S
C525 C524 1.388 . S
C525 C526 1.390 . S
C526 C525 1.390 . S
C526 C527 1.394 . S
C526 C532 1.465 . S
C527 C522 1.399 . S
C527 C526 1.394 . S
C527 C528 1.516 . S
C528 C527 1.516 . S
C528 C529 1.502 . S
C528 C530 1.561 . S
C528 C531 1.526 . S
C529 H513 0.959 . S
C529 H514 0.959 . S
C529 H515 0.961 . S
C529 C528 1.502 . S
C530 H516 0.960 . S
C530 H517 0.961 . S
C530 H518 0.959 . S
C530 C528 1.561 . S
C531 C528 1.526 . S
C531 C532 1.396 . S
C531 C536 1.390 1_545 S
C532 C526 1.465 . S
C532 C531 1.396 . S
C532 C533 1.399 . S
C533 H519 0.929 . S
C533 C532 1.399 . S
C533 C534 1.385 1_545 S
C534 H520 0.931 . S
C534 C533 1.385 1_565 S
C534 C535 1.389 . S
C535 C534 1.389 . S
C535 C536 1.387 . S
C536 H521 0.930 . S
C536 C531 1.390 1_565 S
C536 C535 1.387 . S
H537 C549 0.930 . S
H538 C551 0.930 . S
H539 C552 0.930 . S
H540 C556 0.959 . S
H541 C556 0.959 . S
H542 C556 0.961 . S
H543 C557 0.960 . S
H544 C557 0.961 . S
H545 C557 0.959 . S
H546 C560 0.929 . S
H547 C561 0.931 . S
H548 C563 0.930 . S
C549 H537 0.930 . S
C549 C550 1.399 . S
C549 C554 1.399 . S
C550 C549 1.399 . S
C550 C551 1.376 . S
C551 H538 0.930 . S
C551 C550 1.376 . S
C551 C552 1.388 . S
C552 H539 0.930 . S
C552 C551 1.388 . S
C552 C553 1.390 . S
C553 C552 1.390 . S
C553 C554 1.394 . S
C553 C559 1.465 . S
C554 C549 1.399 . S
C554 C553 1.394 . S
C554 C555 1.516 . S
C555 C554 1.516 . S
C555 C556 1.502 . S
C555 C557 1.561 . S
C555 C558 1.526 . S
C556 H540 0.959 . S
C556 H541 0.959 . S
C556 H542 0.961 . S
C556 C555 1.502 . S
C557 H543 0.960 . S
C557 H544 0.961 . S
C557 H545 0.959 . S
C557 C555 1.561 . S
C558 C555 1.526 . S
C558 C559 1.396 . S
C558 C563 1.390 . S
C559 C553 1.465 . S
C559 C558 1.396 . S
C559 C560 1.399 . S
C560 H546 0.929 . S
C560 C559 1.399 . S
C560 C561 1.385 . S
C561 H547 0.931 . S
C561 C560 1.385 . S
C561 C562 1.389 . S
C562 C561 1.389 . S
C562 C563 1.387 . S
C563 H548 0.930 . S
C563 C558 1.390 . S
C563 C562 1.387 . S
H564 C576 0.930 . S
H565 C578 0.930 . S
H566 C579 0.930 . S
H567 C583 0.959 . S
H568 C583 0.959 . S
H569 C583 0.961 . S
H570 C584 0.960 . S
H571 C584 0.961 . S
H572 C584 0.959 . S
H573 C587 0.929 . S
H574 C588 0.931 . S
H575 C590 0.930 . S
C576 H564 0.930 . S
C576 C577 1.399 . S
C576 C581 1.399 . S
C577 C576 1.399 . S
C577 C578 1.376 . S
C578 H565 0.930 . S
C578 C577 1.376 . S
C578 C579 1.388 . S
C579 H566 0.930 . S
C579 C578 1.388 . S
C579 C580 1.390 . S
C580 C579 1.390 . S
C580 C581 1.394 . S
C580 C586 1.465 . S
C581 C576 1.399 . S
C581 C580 1.394 . S
C581 C582 1.516 . S
C582 C581 1.516 . S
C582 C583 1.502 . S
C582 C584 1.561 . S
C582 C585 1.526 . S
C583 H567 0.959 . S
C583 H568 0.959 . S
C583 H569 0.961 . S
C583 C582 1.502 . S
C584 H570 0.960 . S
C584 H571 0.961 . S
C584 H572 0.959 . S
C584 C582 1.561 . S
C585 C582 1.526 . S
C585 C586 1.396 . S
C585 C590 1.390 . S
C586 C580 1.465 . S
C586 C585 1.396 . S
C586 C587 1.399 . S
C587 H573 0.929 . S
C587 C586 1.399 . S
C587 C588 1.385 . S
C588 H574 0.931 . S
C588 C587 1.385 . S
C588 C589 1.389 . S
C589 C588 1.389 . S
C589 C590 1.387 . S
C590 H575 0.930 . S
C590 C585 1.390 . S
C590 C589 1.387 . S
H591 C603 0.930 . S
H592 C605 0.930 . S
H593 C606 0.930 . S
H594 C610 0.959 . S
H595 C610 0.959 . S
H596 C610 0.961 . S
H597 C611 0.960 . S
H598 C611 0.961 . S
H599 C611 0.959 . S
H600 C614 0.929 . S
H601 C615 0.931 . S
H602 C617 0.930 . S
C603 H591 0.930 . S
C603 C604 1.399 . S
C603 C608 1.399 . S
C604 C603 1.399 . S
C604 C605 1.376 . S
C605 H592 0.930 . S
C605 C604 1.376 . S
C605 C606 1.388 . S
C606 H593 0.930 . S
C606 C605 1.388 . S
C606 C607 1.390 . S
C607 C606 1.390 . S
C607 C608 1.394 . S
C607 C613 1.465 . S
C608 C603 1.399 . S
C608 C607 1.394 . S
C608 C609 1.516 . S
C609 C608 1.516 . S
C609 C610 1.502 . S
C609 C611 1.561 . S
C609 C612 1.526 . S
C610 H594 0.959 . S
C610 H595 0.959 . S
C610 H596 0.961 . S
C610 C609 1.502 . S
C611 H597 0.960 . S
C611 H598 0.961 . S
C611 H599 0.959 . S
C611 C609 1.561 . S
C612 C609 1.526 . S
C612 C613 1.396 . S
C612 C617 1.390 . S
C613 C607 1.465 . S
C613 C612 1.396 . S
C613 C614 1.399 . S
C614 H600 0.929 . S
C614 C613 1.399 . S
C614 C615 1.385 . S
C615 H601 0.931 . S
C615 C614 1.385 . S
C615 C616 1.389 . S
C616 C615 1.389 . S
C616 C617 1.387 . S
C617 H602 0.930 . S
C617 C612 1.390 . S
C617 C616 1.387 . S
H618 C630 0.930 . S
H619 C632 0.930 . S
H620 C633 0.930 . S
H621 C637 0.959 . S
H622 C637 0.959 . S
H623 C637 0.961 . S
H624 C638 0.960 . S
H625 C638 0.961 . S
H626 C638 0.959 . S
H627 C641 0.929 . S
H628 C642 0.931 . S
H629 C644 0.930 . S
C630 H618 0.930 . S
C630 C631 1.399 . S
C630 C635 1.399 . S
C631 C630 1.399 . S
C631 C632 1.376 . S
C632 H619 0.930 . S
C632 C631 1.376 . S
C632 C633 1.388 . S
C633 H620 0.930 . S
C633 C632 1.388 . S
C633 C634 1.390 . S
C634 C633 1.390 . S
C634 C635 1.394 . S
C634 C640 1.465 . S
C635 C630 1.399 . S
C635 C634 1.394 . S
C635 C636 1.516 . S
C636 C635 1.516 . S
C636 C637 1.502 . S
C636 C638 1.561 . S
C636 C639 1.526 . S
C637 H621 0.959 . S
C637 H622 0.959 . S
C637 H623 0.961 . S
C637 C636 1.502 . S
C638 H624 0.960 . S
C638 H625 0.961 . S
C638 H626 0.959 . S
C638 C636 1.561 . S
C639 C636 1.526 . S
C639 C640 1.396 . S
C639 C644 1.390 . S
C640 C634 1.465 . S
C640 C639 1.396 . S
C640 C641 1.399 . S
C641 H627 0.929 . S
C641 C640 1.399 . S
C641 C642 1.385 . S
C642 H628 0.931 . S
C642 C641 1.385 . S
C642 C643 1.389 . S
C643 C642 1.389 . S
C643 C644 1.387 . S
C644 H629 0.930 . S
C644 C639 1.390 . S
C644 C643 1.387 . S
H645 C657 0.930 . S
H646 C659 0.930 . S
H647 C660 0.930 . S
H648 C664 0.959 . S
H649 C664 0.959 . S
H650 C664 0.961 . S
H651 C665 0.960 . S
H652 C665 0.961 . S
H653 C665 0.959 . S
H654 C668 0.929 . S
H655 C669 0.931 . S
H656 C671 0.930 . S
C657 H645 0.930 . S
C657 C658 1.399 . S
C657 C662 1.399 . S
C658 C657 1.399 . S
C658 C659 1.376 . S
C659 H646 0.930 . S
C659 C658 1.376 . S
C659 C660 1.388 . S
C660 H647 0.930 . S
C660 C659 1.388 . S
C660 C661 1.390 . S
C661 C660 1.390 . S
C661 C662 1.394 . S
C661 C667 1.465 . S
C662 C657 1.399 . S
C662 C661 1.394 . S
C662 C663 1.516 . S
C663 C662 1.516 . S
C663 C664 1.502 . S
C663 C665 1.561 . S
C663 C666 1.526 . S
C664 H648 0.959 . S
C664 H649 0.959 . S
C664 H650 0.961 . S
C664 C663 1.502 . S
C665 H651 0.960 . S
C665 H652 0.961 . S
C665 H653 0.959 . S
C665 C663 1.561 . S
C666 C663 1.526 . S
C666 C667 1.396 . S
C666 C671 1.390 . S
C667 C661 1.465 . S
C667 C666 1.396 . S
C667 C668 1.399 . S
C668 H654 0.929 . S
C668 C667 1.399 . S
C668 C669 1.385 . S
C669 H655 0.931 . S
C669 C668 1.385 . S
C669 C670 1.389 . S
C670 C669 1.389 . S
C670 C671 1.387 . S
C671 H656 0.930 . S
C671 C666 1.390 . S
C671 C670 1.387 . S
H672 C684 0.930 . S
H673 C686 0.930 . S
H674 C687 0.930 . S
H675 C691 0.959 . S
H676 C691 0.959 . S
H677 C691 0.961 . S
H678 C692 0.960 . S
H679 C692 0.961 . S
H680 C692 0.959 . S
H681 C695 0.929 . S
H682 C696 0.931 . S
H683 C698 0.930 . S
C684 H672 0.930 . S
C684 C685 1.399 . S
C684 C689 1.399 . S
C685 C684 1.399 . S
C685 C686 1.376 . S
C686 H673 0.930 . S
C686 C685 1.376 . S
C686 C687 1.388 . S
C687 H674 0.930 . S
C687 C686 1.388 . S
C687 C688 1.390 . S
C688 C687 1.390 . S
C688 C689 1.394 . S
C688 C694 1.465 . S
C689 C684 1.399 . S
C689 C688 1.394 . S
C689 C690 1.516 . S
C690 C689 1.516 . S
C690 C691 1.502 . S
C690 C692 1.561 . S
C690 C693 1.526 . S
C691 H675 0.959 . S
C691 H676 0.959 . S
C691 H677 0.961 . S
C691 C690 1.502 . S
C692 H678 0.960 . S
C692 H679 0.961 . S
C692 H680 0.959 . S
C692 C690 1.561 . S
C693 C690 1.526 . S
C693 C694 1.396 . S
C693 C698 1.390 . S
C694 C688 1.465 . S
C694 C693 1.396 . S
C694 C695 1.399 . S
C695 H681 0.929 . S
C695 C694 1.399 . S
C695 C696 1.385 . S
C696 H682 0.931 . S
C696 C695 1.385 . S
C696 C697 1.389 . S
C697 C696 1.389 . S
C697 C698 1.387 . S
C698 H683 0.930 . S
C698 C693 1.390 . S
C698 C697 1.387 . S
H699 C711 0.930 . S
H700 C713 0.930 . S
H701 C714 0.930 . S
H702 C718 0.959 . S
H703 C718 0.959 . S
H704 C718 0.961 . S
H705 C719 0.960 . S
H706 C719 0.961 . S
H707 C719 0.959 . S
H708 C722 0.929 . S
H709 C723 0.931 . S
H710 C725 0.930 . S
C711 H699 0.930 . S
C711 C712 1.399 . S
C711 C716 1.399 . S
C712 C711 1.399 . S
C712 C713 1.376 . S
C713 H700 0.930 . S
C713 C712 1.376 . S
C713 C714 1.388 . S
C714 H701 0.930 . S
C714 C713 1.388 . S
C714 C715 1.390 . S
C715 C714 1.390 . S
C715 C716 1.394 . S
C715 C721 1.465 . S
C716 C711 1.399 . S
C716 C715 1.394 . S
C716 C717 1.516 . S
C717 C716 1.516 . S
C717 C718 1.502 . S
C717 C719 1.561 . S
C717 C720 1.526 . S
C718 H702 0.959 . S
C718 H703 0.959 . S
C718 H704 0.961 . S
C718 C717 1.502 . S
C719 H705 0.960 . S
C719 H706 0.961 . S
C719 H707 0.959 . S
C719 C717 1.561 . S
C720 C717 1.526 . S
C720 C721 1.396 . S
C720 C725 1.390 . S
C721 C715 1.465 . S
C721 C720 1.396 . S
C721 C722 1.399 . S
C722 H708 0.929 . S
C722 C721 1.399 . S
C722 C723 1.385 . S
C723 H709 0.931 . S
C723 C722 1.385 . S
C723 C724 1.389 . S
C724 C723 1.389 . S
C724 C725 1.387 . S
C725 H710 0.930 . S
C725 C720 1.390 . S
C725 C724 1.387 . S
H726 C738 0.930 . S
H727 C740 0.930 . S
H728 C741 0.930 . S
H729 C745 0.959 . S
H730 C745 0.959 . S
H731 C745 0.961 . S
H732 C746 0.960 . S
H733 C746 0.961 . S
H734 C746 0.959 . S
H735 C749 0.929 . S
H736 C750 0.931 . S
H737 C752 0.930 . S
C738 H726 0.930 . S
C738 C739 1.399 . S
C738 C743 1.399 . S
C739 C738 1.399 . S
C739 C740 1.376 . S
C740 H727 0.930 . S
C740 C739 1.376 . S
C740 C741 1.388 . S
C741 H728 0.930 . S
C741 C740 1.388 . S
C741 C742 1.390 . S
C742 C741 1.390 . S
C742 C743 1.394 . S
C742 C748 1.465 . S
C743 C738 1.399 . S
C743 C742 1.394 . S
C743 C744 1.516 . S
C744 C743 1.516 . S
C744 C745 1.502 . S
C744 C746 1.561 . S
C744 C747 1.526 . S
C745 H729 0.959 . S
C745 H730 0.959 . S
C745 H731 0.961 . S
C745 C744 1.502 . S
C746 H732 0.960 . S
C746 H733 0.961 . S
C746 H734 0.959 . S
C746 C744 1.561 . S
C747 C744 1.526 . S
C747 C748 1.396 . S
C747 C752 1.390 . S
C748 C742 1.465 . S
C748 C747 1.396 . S
C748 C749 1.399 . S
C749 H735 0.929 . S
C749 C748 1.399 . S
C749 C750 1.385 . S
C750 H736 0.931 . S
C750 C749 1.385 . S
C750 C751 1.389 . S
C751 C750 1.389 . S
C751 C752 1.387 . S
C752 H737 0.930 . S
C752 C747 1.390 . S
C752 C751 1.387 . S
H753 C765 0.930 . S
H754 C767 0.930 . S
H755 C768 0.930 . S
H756 C772 0.959 . S
H757 C772 0.959 . S
H758 C772 0.961 . S
H759 C773 0.960 . S
H760 C773 0.961 . S
H761 C773 0.959 . S
H762 C776 0.929 . S
H763 C777 0.931 . S
H764 C779 0.930 . S
C765 H753 0.930 . S
C765 C766 1.399 . S
C765 C770 1.399 . S
C766 C765 1.399 . S
C766 C767 1.376 . S
C767 H754 0.930 . S
C767 C766 1.376 . S
C767 C768 1.388 . S
C768 H755 0.930 . S
C768 C767 1.388 . S
C768 C769 1.390 . S
C769 C768 1.390 . S
C769 C770 1.394 . S
C769 C775 1.465 . S
C770 C765 1.399 . S
C770 C769 1.394 . S
C770 C771 1.516 . S
C771 C770 1.516 . S
C771 C772 1.502 . S
C771 C773 1.561 . S
C771 C774 1.526 . S
C772 H756 0.959 . S
C772 H757 0.959 . S
C772 H758 0.961 . S
C772 C771 1.502 . S
C773 H759 0.960 . S
C773 H760 0.961 . S
C773 H761 0.959 . S
C773 C771 1.561 . S
C774 C771 1.526 . S
C774 C775 1.396 . S
C774 C779 1.390 . S
C775 C769 1.465 . S
C775 C774 1.396 . S
C775 C776 1.399 . S
C776 H762 0.929 . S
C776 C775 1.399 . S
C776 C777 1.385 . S
C777 H763 0.931 . S
C777 C776 1.385 . S
C777 C778 1.389 . S
C778 C777 1.389 . S
C778 C779 1.387 . S
C779 H764 0.930 . S
C779 C774 1.390 . S
C779 C778 1.387 . S
H780 C792 0.930 . S
H781 C794 0.930 . S
H782 C795 0.930 . S
H783 C799 0.959 . S
H784 C799 0.959 . S
H785 C799 0.961 . S
H786 C800 0.960 . S
H787 C800 0.961 . S
H788 C800 0.959 . S
H789 C803 0.929 . S
H790 C804 0.931 . S
H791 C806 0.930 . S
C792 H780 0.930 . S
C792 C793 1.399 . S
C792 C797 1.399 . S
C793 C792 1.399 . S
C793 C794 1.376 . S
C794 H781 0.930 . S
C794 C793 1.376 . S
C794 C795 1.388 . S
C795 H782 0.930 . S
C795 C794 1.388 . S
C795 C796 1.390 . S
C796 C795 1.390 . S
C796 C797 1.394 . S
C796 C802 1.465 . S
C797 C792 1.399 . S
C797 C796 1.394 . S
C797 C798 1.516 . S
C798 C797 1.516 . S
C798 C799 1.502 . S
C798 C800 1.561 . S
C798 C801 1.526 . S
C799 H783 0.959 . S
C799 H784 0.959 . S
C799 H785 0.961 . S
C799 C798 1.502 . S
C800 H786 0.960 . S
C800 H787 0.961 . S
C800 H788 0.959 . S
C800 C798 1.561 . S
C801 C798 1.526 . S
C801 C802 1.396 . S
C801 C806 1.390 . S
C802 C796 1.465 . S
C802 C801 1.396 . S
C802 C803 1.399 . S
C803 H789 0.929 . S
C803 C802 1.399 . S
C803 C804 1.385 . S
C804 H790 0.931 . S
C804 C803 1.385 . S
C804 C805 1.389 . S
C805 C804 1.389 . S
C805 C806 1.387 . S
C806 H791 0.930 . S
C806 C801 1.390 . S
C806 C805 1.387 . S
H807 C819 0.930 . S
H808 C821 0.930 . S
H809 C822 0.930 . S
H810 C826 0.959 . S
H811 C826 0.959 . S
H812 C826 0.961 . S
H813 C827 0.960 . S
H814 C827 0.961 . S
H815 C827 0.959 . S
H816 C830 0.929 . S
H817 C831 0.931 . S
H818 C833 0.930 . S
C819 H807 0.930 . S
C819 C820 1.399 . S
C819 C824 1.399 . S
C820 C819 1.399 . S
C820 C821 1.376 . S
C821 H808 0.930 . S
C821 C820 1.376 . S
C821 C822 1.388 . S
C822 H809 0.930 . S
C822 C821 1.388 . S
C822 C823 1.390 . S
C823 C822 1.390 . S
C823 C824 1.394 . S
C823 C829 1.465 . S
C824 C819 1.399 . S
C824 C823 1.394 . S
C824 C825 1.516 . S
C825 C824 1.516 . S
C825 C826 1.502 . S
C825 C827 1.561 . S
C825 C828 1.526 . S
C826 H810 0.959 . S
C826 H811 0.959 . S
C826 H812 0.961 . S
C826 C825 1.502 . S
C827 H813 0.960 . S
C827 H814 0.961 . S
C827 H815 0.959 . S
C827 C825 1.561 . S
C828 C825 1.526 . S
C828 C829 1.396 . S
C828 C833 1.390 . S
C829 C823 1.465 . S
C829 C828 1.396 . S
C829 C830 1.399 . S
C830 H816 0.929 . S
C830 C829 1.399 . S
C830 C831 1.385 . S
C831 H817 0.931 . S
C831 C830 1.385 . S
C831 C832 1.389 . S
C832 C831 1.389 . S
C832 C833 1.387 . S
C833 H818 0.930 . S
C833 C828 1.390 . S
C833 C832 1.387 . S
H834 C846 0.930 . S
H835 C848 0.930 . S
H836 C849 0.930 . S
H837 C853 0.959 . S
H838 C853 0.959 . S
H839 C853 0.961 . S
H840 C854 0.960 . S
H841 C854 0.961 . S
H842 C854 0.959 . S
H843 C857 0.929 . S
H844 C858 0.931 . S
H845 C860 0.930 . S
C846 H834 0.930 . S
C846 C847 1.399 . S
C846 C851 1.399 . S
C847 C846 1.399 . S
C847 C848 1.376 . S
C848 H835 0.930 . S
C848 C847 1.376 . S
C848 C849 1.388 . S
C849 H836 0.930 . S
C849 C848 1.388 . S
C849 C850 1.390 . S
C850 C849 1.390 . S
C850 C851 1.394 . S
C850 C856 1.465 . S
C851 C846 1.399 . S
C851 C850 1.394 . S
C851 C852 1.516 . S
C852 C851 1.516 . S
C852 C853 1.502 . S
C852 C854 1.561 . S
C852 C855 1.526 . S
C853 H837 0.959 . S
C853 H838 0.959 . S
C853 H839 0.961 . S
C853 C852 1.502 . S
C854 H840 0.960 . S
C854 H841 0.961 . S
C854 H842 0.959 . S
C854 C852 1.561 . S
C855 C852 1.526 . S
C855 C856 1.396 . S
C855 C860 1.390 . S
C856 C850 1.465 . S
C856 C855 1.396 . S
C856 C857 1.399 . S
C857 H843 0.929 . S
C857 C856 1.399 . S
C857 C858 1.385 . S
C858 H844 0.931 . S
C858 C857 1.385 . S
C858 C859 1.389 . S
C859 C858 1.389 . S
C859 C860 1.387 . S
C860 H845 0.930 . S
C860 C855 1.390 . S
C860 C859 1.387 . S
H861 C873 0.930 . S
H862 C875 0.930 . S
H863 C876 0.930 . S
H864 C880 0.959 . S
H865 C880 0.959 . S
H866 C880 0.961 . S
H867 C881 0.960 . S
H868 C881 0.961 . S
H869 C881 0.959 . S
H870 C884 0.929 . S
H871 C885 0.931 . S
H872 C887 0.930 . S
C873 H861 0.930 . S
C873 C874 1.399 . S
C873 C878 1.399 . S
C874 C873 1.399 . S
C874 C875 1.376 . S
C875 H862 0.930 . S
C875 C874 1.376 . S
C875 C876 1.388 . S
C876 H863 0.930 . S
C876 C875 1.388 . S
C876 C877 1.390 . S
C877 C876 1.390 . S
C877 C878 1.394 . S
C877 C883 1.465 . S
C878 C873 1.399 . S
C878 C877 1.394 . S
C878 C879 1.516 . S
C879 C878 1.516 . S
C879 C880 1.502 . S
C879 C881 1.561 . S
C879 C882 1.526 . S
C880 H864 0.959 . S
C880 H865 0.959 . S
C880 H866 0.961 . S
C880 C879 1.502 . S
C881 H867 0.960 . S
C881 H868 0.961 . S
C881 H869 0.959 . S
C881 C879 1.561 . S
C882 C879 1.526 . S
C882 C883 1.396 . S
C882 C887 1.390 . S
C883 C877 1.465 . S
C883 C882 1.396 . S
C883 C884 1.399 . S
C884 H870 0.929 . S
C884 C883 1.399 . S
C884 C885 1.385 . S
C885 H871 0.931 . S
C885 C884 1.385 . S
C885 C886 1.389 . S
C886 C885 1.389 . S
C886 C887 1.387 . S
C887 H872 0.930 . S
C887 C882 1.390 . S
C887 C886 1.387 . S
H888 C900 0.930 . S
H889 C902 0.930 . S
H890 C903 0.930 . S
H891 C907 0.959 . S
H892 C907 0.959 . S
H893 C907 0.961 . S
H894 C908 0.960 . S
H895 C908 0.961 . S
H896 C908 0.959 . S
H897 C911 0.929 . S
H898 C912 0.931 . S
H899 C914 0.930 . S
C900 H888 0.930 . S
C900 C901 1.399 . S
C900 C905 1.399 . S
C901 C900 1.399 . S
C901 C902 1.376 . S
C902 H889 0.930 . S
C902 C901 1.376 . S
C902 C903 1.388 . S
C903 H890 0.930 . S
C903 C902 1.388 . S
C903 C904 1.390 . S
C904 C903 1.390 . S
C904 C905 1.394 . S
C904 C910 1.465 . S
C905 C900 1.399 . S
C905 C904 1.394 . S
C905 C906 1.516 . S
C906 C905 1.516 . S
C906 C907 1.502 . S
C906 C908 1.561 . S
C906 C909 1.526 . S
C907 H891 0.959 . S
C907 H892 0.959 . S
C907 H893 0.961 . S
C907 C906 1.502 . S
C908 H894 0.960 . S
C908 H895 0.961 . S
C908 H896 0.959 . S
C908 C906 1.561 . S
C909 C906 1.526 . S
C909 C910 1.396 . S
C909 C914 1.390 . S
C910 C904 1.465 . S
C910 C909 1.396 . S
C910 C911 1.399 . S
C911 H897 0.929 . S
C911 C910 1.399 . S
C911 C912 1.385 . S
C912 H898 0.931 . S
C912 C911 1.385 . S
C912 C913 1.389 . S
C913 C912 1.389 . S
C913 C914 1.387 . S
C914 H899 0.930 . S
C914 C909 1.390 . S
C914 C913 1.387 . S
H915 C927 0.930 . S
H916 C929 0.930 . S
H917 C930 0.930 . S
H918 C934 0.959 . S
H919 C934 0.959 . S
H920 C934 0.961 . S
H921 C935 0.960 . S
H922 C935 0.961 . S
H923 C935 0.959 . S
H924 C938 0.929 . S
H925 C939 0.931 . S
H926 C941 0.930 . S
C927 H915 0.930 . S
C927 C928 1.399 . S
C927 C932 1.399 . S
C928 C927 1.399 . S
C928 C929 1.376 . S
C929 H916 0.930 . S
C929 C928 1.376 . S
C929 C930 1.388 . S
C930 H917 0.930 . S
C930 C929 1.388 . S
C930 C931 1.390 . S
C931 C930 1.390 . S
C931 C932 1.394 . S
C931 C937 1.465 . S
C932 C927 1.399 . S
C932 C931 1.394 . S
C932 C933 1.516 . S
C933 C932 1.516 . S
C933 C934 1.502 . S
C933 C935 1.561 . S
C933 C936 1.526 . S
C934 H918 0.959 . S
C934 H919 0.959 . S
C934 H920 0.961 . S
C934 C933 1.502 . S
C935 H921 0.960 . S
C935 H922 0.961 . S
C935 H923 0.959 . S
C935 C933 1.561 . S
C936 C933 1.526 . S
C936 C937 1.396 . S
C936 C941 1.390 . S
C937 C931 1.465 . S
C937 C936 1.396 . S
C937 C938 1.399 . S
C938 H924 0.929 . S
C938 C937 1.399 . S
C938 C939 1.385 . S
C939 H925 0.931 . S
C939 C938 1.385 . S
C939 C940 1.389 . S
C940 C939 1.389 . S
C940 C941 1.387 . S
C941 H926 0.930 . S
C941 C936 1.390 . S
C941 C940 1.387 . S
H942 C954 0.930 . S
H943 C956 0.930 . S
H944 C957 0.930 . S
H945 C961 0.959 . S
H946 C961 0.959 . S
H947 C961 0.961 . S
H948 C962 0.960 . S
H949 C962 0.961 . S
H950 C962 0.959 . S
H951 C965 0.929 . S
H952 C966 0.931 . S
H953 C968 0.930 . S
C954 H942 0.930 . S
C954 C955 1.399 . S
C954 C959 1.399 . S
C955 C954 1.399 . S
C955 C956 1.376 . S
C956 H943 0.930 . S
C956 C955 1.376 . S
C956 C957 1.388 . S
C957 H944 0.930 . S
C957 C956 1.388 . S
C957 C958 1.390 . S
C958 C957 1.390 . S
C958 C959 1.394 . S
C958 C964 1.465 . S
C959 C954 1.399 . S
C959 C958 1.394 . S
C959 C960 1.516 . S
C960 C959 1.516 . S
C960 C961 1.502 . S
C960 C962 1.561 . S
C960 C963 1.526 . S
C961 H945 0.959 . S
C961 H946 0.959 . S
C961 H947 0.961 . S
C961 C960 1.502 . S
C962 H948 0.960 . S
C962 H949 0.961 . S
C962 H950 0.959 . S
C962 C960 1.561 . S
C963 C960 1.526 . S
C963 C964 1.396 . S
C963 C968 1.390 . S
C964 C958 1.465 . S
C964 C963 1.396 . S
C964 C965 1.399 . S
C965 H951 0.929 . S
C965 C964 1.399 . S
C965 C966 1.385 . S
C966 H952 0.931 . S
C966 C965 1.385 . S
C966 C967 1.389 . S
C967 C966 1.389 . S
C967 C968 1.387 . S
C968 H953 0.930 . S
C968 C963 1.390 . S
C968 C967 1.387 . S
H969 C981 0.930 . S
H970 C983 0.930 . S
H971 C984 0.930 . S
H972 C988 0.959 . S
H973 C988 0.959 . S
H974 C988 0.961 . S
H975 C989 0.960 . S
H976 C989 0.961 . S
H977 C989 0.959 . S
H978 C992 0.929 . S
H979 C993 0.931 . S
H980 C995 0.930 . S
C981 H969 0.930 . S
C981 C982 1.399 . S
C981 C986 1.399 . S
C982 C981 1.399 . S
C982 C983 1.376 . S
C983 H970 0.930 . S
C983 C982 1.376 . S
C983 C984 1.388 . S
C984 H971 0.930 . S
C984 C983 1.388 . S
C984 C985 1.390 . S
C985 C984 1.390 . S
C985 C986 1.394 . S
C985 C991 1.465 . S
C986 C981 1.399 . S
C986 C985 1.394 . S
C986 C987 1.516 . S
C987 C986 1.516 . S
C987 C988 1.502 . S
C987 C989 1.561 . S
C987 C990 1.526 . S
C988 H972 0.959 . S
C988 H973 0.959 . S
C988 H974 0.961 . S
C988 C987 1.502 . S
C989 H975 0.960 . S
C989 H976 0.961 . S
C989 H977 0.959 . S
C989 C987 1.561 . S
C990 C987 1.526 . S
C990 C991 1.396 . S
C990 C995 1.390 . S
C991 C985 1.465 . S
C991 C990 1.396 . S
C991 C992 1.399 . S
C992 H978 0.929 . S
C992 C991 1.399 . S
C992 C993 1.385 . S
C993 H979 0.931 . S
C993 C992 1.385 . S
C993 C994 1.389 . S
C994 C993 1.389 . S
C994 C995 1.387 . S
C995 H980 0.930 . S
C995 C990 1.390 . S
C995 C994 1.387 . S
H996 C1008 0.930 . S
H997 C1010 0.930 . S
H998 C1011 0.930 . S
H999 C1015 0.959 . S
H1000 C1015 0.959 . S
H1001 C1015 0.961 . S
H1002 C1016 0.960 . S
H1003 C1016 0.961 . S
H1004 C1016 0.959 . S
H1005 C1019 0.929 . S
H1006 C1020 0.931 . S
H1007 C1022 0.930 . S
C1008 H996 0.930 . S
C1008 C1009 1.399 . S
C1008 C1013 1.399 . S
C1009 C1008 1.399 . S
C1009 C1010 1.376 . S
C1010 H997 0.930 . S
C1010 C1009 1.376 . S
C1010 C1011 1.388 . S
C1011 H998 0.930 . S
C1011 C1010 1.388 . S
C1011 C1012 1.390 . S
C1012 C1011 1.390 . S
C1012 C1013 1.394 . S
C1012 C1018 1.465 . S
C1013 C1008 1.399 . S
C1013 C1012 1.394 . S
C1013 C1014 1.516 . S
C1014 C1013 1.516 . S
C1014 C1015 1.502 . S
C1014 C1016 1.561 . S
C1014 C1017 1.526 . S
C1015 H999 0.959 . S
C1015 H1000 0.959 . S
C1015 H1001 0.961 . S
C1015 C1014 1.502 . S
C1016 H1002 0.960 . S
C1016 H1003 0.961 . S
C1016 H1004 0.959 . S
C1016 C1014 1.561 . S
C1017 C1014 1.526 . S
C1017 C1018 1.396 . S
C1017 C1022 1.390 . S
C1018 C1012 1.465 . S
C1018 C1017 1.396 . S
C1018 C1019 1.399 . S
C1019 H1005 0.929 . S
C1019 C1018 1.399 . S
C1019 C1020 1.385 . S
C1020 H1006 0.931 . S
C1020 C1019 1.385 . S
C1020 C1021 1.389 . S
C1021 C1020 1.389 . S
C1021 C1022 1.387 . S
C1022 H1007 0.930 . S
C1022 C1017 1.390 . S
C1022 C1021 1.387 . S
H1023 C1035 0.930 . S
H1024 C1037 0.930 . S
H1025 C1038 0.930 . S
H1026 C1042 0.959 . S
H1027 C1042 0.959 . S
H1028 C1042 0.961 . S
H1029 C1043 0.960 . S
H1030 C1043 0.961 . S
H1031 C1043 0.959 . S
H1032 C1046 0.929 . S
H1033 C1047 0.931 . S
H1034 C1049 0.930 . S
C1035 H1023 0.930 . S
C1035 C1036 1.399 . S
C1035 C1040 1.399 . S
C1036 C1035 1.399 . S
C1036 C1037 1.376 . S
C1037 H1024 0.930 . S
C1037 C1036 1.376 . S
C1037 C1038 1.388 . S
C1038 H1025 0.930 . S
C1038 C1037 1.388 . S
C1038 C1039 1.390 . S
C1039 C1038 1.390 . S
C1039 C1040 1.394 . S
C1039 C1045 1.465 . S
C1040 C1035 1.399 . S
C1040 C1039 1.394 . S
C1040 C1041 1.516 . S
C1041 C1040 1.516 . S
C1041 C1042 1.502 . S
C1041 C1043 1.561 . S
C1041 C1044 1.526 . S
C1042 H1026 0.959 . S
C1042 H1027 0.959 . S
C1042 H1028 0.961 . S
C1042 C1041 1.502 . S
C1043 H1029 0.960 . S
C1043 H1030 0.961 . S
C1043 H1031 0.959 . S
C1043 C1041 1.561 . S
C1044 C1041 1.526 . S
C1044 C1045 1.396 . S
C1044 C1049 1.390 . S
C1045 C1039 1.465 . S
C1045 C1044 1.396 . S
C1045 C1046 1.399 . S
C1046 H1032 0.929 . S
C1046 C1045 1.399 . S
C1046 C1047 1.385 . S
C1047 H1033 0.931 . S
C1047 C1046 1.385 . S
C1047 C1048 1.389 . S
C1048 C1047 1.389 . S
C1048 C1049 1.387 . S
C1049 H1034 0.930 . S
C1049 C1044 1.390 . S
C1049 C1048 1.387 . S
H1050 C1062 0.930 . S
H1051 C1064 0.930 . S
H1052 C1065 0.930 . S
H1053 C1069 0.959 . S
H1054 C1069 0.959 . S
H1055 C1069 0.961 . S
H1056 C1070 0.960 . S
H1057 C1070 0.961 . S
H1058 C1070 0.959 . S
H1059 C1073 0.929 1_556 S
H1060 C1074 0.931 . S
H1061 C1076 0.930 . S
C1062 H1050 0.930 . S
C1062 C1063 1.399 . S
C1062 C1067 1.399 . S
C1063 C1062 1.399 . S
C1063 C1064 1.376 . S
C1064 H1051 0.930 . S
C1064 C1063 1.376 . S
C1064 C1065 1.388 . S
C1065 H1052 0.930 . S
C1065 C1064 1.388 . S
C1065 C1066 1.390 . S
C1066 C1065 1.390 . S
C1066 C1067 1.394 . S
C1066 C1072 1.465 1_556 S
C1067 C1062 1.399 . S
C1067 C1066 1.394 . S
C1067 C1068 1.516 1_556 S
C1068 C1067 1.516 1_554 S
C1068 C1069 1.502 . S
C1068 C1070 1.561 . S
C1068 C1071 1.526 . S
C1069 H1053 0.959 . S
C1069 H1054 0.959 . S
C1069 H1055 0.961 . S
C1069 C1068 1.502 . S
C1070 H1056 0.960 . S
C1070 H1057 0.961 . S
C1070 H1058 0.959 . S
C1070 C1068 1.561 . S
C1071 C1068 1.526 . S
C1071 C1072 1.396 . S
C1071 C1076 1.390 . S
C1072 C1066 1.465 1_554 S
C1072 C1071 1.396 . S
C1072 C1073 1.399 . S
C1073 H1059 0.929 1_554 S
C1073 C1072 1.399 . S
C1073 C1074 1.385 . S
C1074 H1060 0.931 . S
C1074 C1073 1.385 . S
C1074 C1075 1.389 . S
C1075 C1074 1.389 . S
C1075 C1076 1.387 . S
C1076 H1061 0.930 . S
C1076 C1071 1.390 . S
C1076 C1075 1.387 . S
H1077 C1089 0.930 . S
H1078 C1091 0.930 . S
H1079 C1092 0.930 1_655 S
H1080 C1096 0.959 . S
H1081 C1096 0.959 . S
H1082 C1096 0.961 . S
H1083 C1097 0.960 . S
H1084 C1097 0.961 . S
H1085 C1097 0.959 . S
H1086 C1100 0.929 . S
H1087 C1101 0.931 . S
H1088 C1103 0.930 . S
C1089 H1077 0.930 . S
C1089 C1090 1.399 . S
C1089 C1094 1.399 . S
C1090 C1089 1.399 . S
C1090 C1091 1.376 . S
C1091 H1078 0.930 . S
C1091 C1090 1.376 . S
C1091 C1092 1.388 . S
C1092 H1079 0.930 1_455 S
C1092 C1091 1.388 . S
C1092 C1093 1.390 . S
C1093 C1092 1.390 . S
C1093 C1094 1.394 . S
C1093 C1099 1.465 1_455 S
C1094 C1089 1.399 . S
C1094 C1093 1.394 . S
C1094 C1095 1.516 . S
C1095 C1094 1.516 . S
C1095 C1096 1.502 . S
C1095 C1097 1.561 . S
C1095 C1098 1.526 1_455 S
C1096 H1080 0.959 . S
C1096 H1081 0.959 . S
C1096 H1082 0.961 . S
C1096 C1095 1.502 . S
C1097 H1083 0.960 . S
C1097 H1084 0.961 . S
C1097 H1085 0.959 . S
C1097 C1095 1.561 . S
C1098 C1095 1.526 1_655 S
C1098 C1099 1.396 . S
C1098 C1103 1.390 . S
C1099 C1093 1.465 1_655 S
C1099 C1098 1.396 . S
C1099 C1100 1.399 . S
C1100 H1086 0.929 . S
C1100 C1099 1.399 . S
C1100 C1101 1.385 . S
C1101 H1087 0.931 . S
C1101 C1100 1.385 . S
C1101 C1102 1.389 . S
C1102 C1101 1.389 . S
C1102 C1103 1.387 . S
C1103 H1088 0.930 . S
C1103 C1098 1.390 . S
C1103 C1102 1.387 . S
H1104 C1116 0.930 . S
H1105 C1118 0.930 . S
H1106 C1119 0.930 . S
H1107 C1123 0.959 1_544 S
H1108 C1123 0.959 1_545 S
H1109 C1123 0.961 1_554 S
H1110 C1124 0.960 . S
H1111 C1124 0.961 . S
H1112 C1124 0.959 . S
H1113 C1127 0.929 . S
H1114 C1128 0.931 . S
H1115 C1130 0.930 . S
C1116 H1104 0.930 . S
C1116 C1117 1.399 . S
C1116 C1121 1.399 . S
C1117 C1116 1.399 . S
C1117 C1118 1.376 . S
C1118 H1105 0.930 . S
C1118 C1117 1.376 . S
C1118 C1119 1.388 . S
C1119 H1106 0.930 . S
C1119 C1118 1.388 . S
C1119 C1120 1.390 . S
C1120 C1119 1.390 . S
C1120 C1121 1.394 . S
C1120 C1126 1.465 1_564 S
C1121 C1116 1.399 . S
C1121 C1120 1.394 . S
C1121 C1122 1.516 1_554 S
C1122 C1121 1.516 1_556 S
C1122 C1123 1.502 . S
C1122 C1124 1.561 . S
C1122 C1125 1.526 1_565 S
C1123 H1107 0.959 1_566 S
C1123 H1108 0.959 1_565 S
C1123 H1109 0.961 1_556 S
C1123 C1122 1.502 . S
C1124 H1110 0.960 . S
C1124 H1111 0.961 . S
C1124 H1112 0.959 . S
C1124 C1122 1.561 . S
C1125 C1122 1.526 1_545 S
C1125 C1126 1.396 . S
C1125 C1130 1.390 . S
C1126 C1120 1.465 1_546 S
C1126 C1125 1.396 . S
C1126 C1127 1.399 . S
C1127 H1113 0.929 . S
C1127 C1126 1.399 . S
C1127 C1128 1.385 . S
C1128 H1114 0.931 . S
C1128 C1127 1.385 . S
C1128 C1129 1.389 . S
C1129 C1128 1.389 . S
C1129 C1130 1.387 . S
C1130 H1115 0.930 . S
C1130 C1125 1.390 . S
C1130 C1129 1.387 . S
H1131 C1143 0.930 . S
H1132 C1145 0.930 . S
H1133 C1146 0.930 . S
H1134 C1150 0.959 . S
H1135 C1150 0.959 . S
H1136 C1150 0.961 . S
H1137 C1151 0.960 . S
H1138 C1151 0.961 . S
H1139 C1151 0.959 . S
H1140 C1154 0.929 . S
H1141 C1155 0.931 . S
H1142 C1157 0.930 . S
C1143 H1131 0.930 . S
C1143 C1144 1.399 . S
C1143 C1148 1.399 . S
C1144 C1143 1.399 . S
C1144 C1145 1.376 . S
C1145 H1132 0.930 . S
C1145 C1144 1.376 . S
C1145 C1146 1.388 . S
C1146 H1133 0.930 . S
C1146 C1145 1.388 . S
C1146 C1147 1.390 . S
C1147 C1146 1.390 . S
C1147 C1148 1.394 . S
C1147 C1153 1.465 . S
C1148 C1143 1.399 . S
C1148 C1147 1.394 . S
C1148 C1149 1.516 . S
C1149 C1148 1.516 . S
C1149 C1150 1.502 . S
C1149 C1151 1.561 . S
C1149 C1152 1.526 . S
C1150 H1134 0.959 . S
C1150 H1135 0.959 . S
C1150 H1136 0.961 . S
C1150 C1149 1.502 . S
C1151 H1137 0.960 . S
C1151 H1138 0.961 . S
C1151 H1139 0.959 . S
C1151 C1149 1.561 . S
C1152 C1149 1.526 . S
C1152 C1153 1.396 . S
C1152 C1157 1.390 . S
C1153 C1147 1.465 . S
C1153 C1152 1.396 . S
C1153 C1154 1.399 . S
C1154 H1140 0.929 . S
C1154 C1153 1.399 . S
C1154 C1155 1.385 . S
C1155 H1141 0.931 . S
C1155 C1154 1.385 . S
C1155 C1156 1.389 . S
C1156 C1155 1.389 . S
C1156 C1157 1.387 . S
C1157 H1142 0.930 . S
C1157 C1152 1.390 . S
C1157 C1156 1.387 . S
H1158 C1170 0.930 . S
H1159 C1172 0.930 . S
H1160 C1173 0.930 1_554 S
H1161 C1177 0.959 . S
H1162 C1177 0.959 . S
H1163 C1177 0.961 . S
H1164 C1178 0.960 1_655 S
H1165 C1178 0.961 1_554 S
H1166 C1178 0.959 1_654 S
H1167 C1181 0.929 1_655 S
H1168 C1182 0.931 . S
H1169 C1184 0.930 . S
C1170 H1158 0.930 . S
C1170 C1171 1.399 . S
C1170 C1175 1.399 . S
C1171 C1170 1.399 . S
C1171 C1172 1.376 . S
C1172 H1159 0.930 . S
C1172 C1171 1.376 . S
C1172 C1173 1.388 . S
C1173 H1160 0.930 1_556 S
C1173 C1172 1.388 . S
C1173 C1174 1.390 . S
C1174 C1173 1.390 . S
C1174 C1175 1.394 . S
C1174 C1180 1.465 1_656 S
C1175 C1170 1.399 . S
C1175 C1174 1.394 . S
C1175 C1176 1.516 1_655 S
C1176 C1175 1.516 1_455 S
C1176 C1177 1.502 . S
C1176 C1178 1.561 . S
C1176 C1179 1.526 1_556 S
C1177 H1161 0.959 . S
C1177 H1162 0.959 . S
C1177 H1163 0.961 . S
C1177 C1176 1.502 . S
C1178 H1164 0.960 1_455 S
C1178 H1165 0.961 1_556 S
C1178 H1166 0.959 1_456 S
C1178 C1176 1.561 . S
C1179 C1176 1.526 1_554 S
C1179 C1180 1.396 . S
C1179 C1184 1.390 . S
C1180 C1174 1.465 1_454 S
C1180 C1179 1.396 . S
C1180 C1181 1.399 . S
C1181 H1167 0.929 1_455 S
C1181 C1180 1.399 . S
C1181 C1182 1.385 . S
C1182 H1168 0.931 . S
C1182 C1181 1.385 . S
C1182 C1183 1.389 . S
C1183 C1182 1.389 . S
C1183 C1184 1.387 . S
C1184 H1169 0.930 . S
C1184 C1179 1.390 . S
C1184 C1183 1.387 . S
H1185 C1197 0.930 . S
H1186 C1199 0.930 . S
H1187 C1200 0.930 . S
H1188 C1204 0.959 . S
H1189 C1204 0.959 . S
H1190 C1204 0.961 . S
H1191 C1205 0.960 . S
H1192 C1205 0.961 . S
H1193 C1205 0.959 . S
H1194 C1208 0.929 1_565 S
H1195 C1209 0.931 . S
H1196 C1211 0.930 . S
C1197 H1185 0.930 . S
C1197 C1198 1.399 . S
C1197 C1202 1.399 . S
C1198 C1197 1.399 . S
C1198 C1199 1.376 . S
C1199 H1186 0.930 . S
C1199 C1198 1.376 . S
C1199 C1200 1.388 . S
C1200 H1187 0.930 . S
C1200 C1199 1.388 . S
C1200 C1201 1.390 . S
C1201 C1200 1.390 . S
C1201 C1202 1.394 . S
C1201 C1207 1.465 1_565 S
C1202 C1197 1.399 . S
C1202 C1201 1.394 . S
C1202 C1203 1.516 1_565 S
C1203 C1202 1.516 1_545 S
C1203 C1204 1.502 . S
C1203 C1205 1.561 . S
C1203 C1206 1.526 . S
C1204 H1188 0.959 . S
C1204 H1189 0.959 . S
C1204 H1190 0.961 . S
C1204 C1203 1.502 . S
C1205 H1191 0.960 . S
C1205 H1192 0.961 . S
C1205 H1193 0.959 . S
C1205 C1203 1.561 . S
C1206 C1203 1.526 . S
C1206 C1207 1.396 . S
C1206 C1211 1.390 . S
C1207 C1201 1.465 1_545 S
C1207 C1206 1.396 . S
C1207 C1208 1.399 . S
C1208 H1194 0.929 1_545 S
C1208 C1207 1.399 . S
C1208 C1209 1.385 . S
C1209 H1195 0.931 . S
C1209 C1208 1.385 . S
C1209 C1210 1.389 . S
C1210 C1209 1.389 . S
C1210 C1211 1.387 . S
C1211 H1196 0.930 . S
C1211 C1206 1.390 . S
C1211 C1210 1.387 . S
C253 C82 1.115 . S
C265 C9 1.035 . S
C280 C102 1.124 . S
C292 C29 1.034 1_455 S
C307 C49 1.045 1_545 S
C319 C2 1.094 . S
C334 C69 1.032 . S
C346 C22 1.121 . S
C361 C89 1.038 1_655 S
C373 C42 1.145 . S
C388 C62 1.074 . S
C400 C109 1.083 1_565 S
C415 C162 1.074 . S
C427 C129 1.088 . S
C442 C149 1.163 1_455 S
C454 C182 1.112 . S
C469 C202 1.074 . S
C481 C169 1.107 1_545 S
C496 C189 1.112 . S
C508 C222 1.076 . S
C523 C209 1.035 1_655 S
C535 C122 1.110 . S
C550 C142 1.075 . S
C562 C229 1.113 1_565 S
C577 C84 1.307 . S
C589 C12 1.436 . S
C604 C32 1.396 . S
C616 C104 1.333 . S
C631 C52 1.404 . S
C643 C4 1.342 . S
C658 C72 1.413 . S
C670 C24 1.348 . S
C685 C44 1.218 . S
C697 C92 1.377 . S
C712 C64 1.252 . S
C724 C112 1.370 . S
C739 C164 1.329 . S
C751 C132 1.436 . S
C766 C152 1.404 . S
C778 C184 1.226 . S
C793 C172 1.403 . S
C805 C204 1.226 . S
C820 C224 1.285 . S
C832 C192 1.432 . S
C847 C212 1.420 . S
C859 C124 1.250 . S
C874 C144 1.223 . S
C886 C232 1.374 . S
C901 C219 1.672 . S
C913 C19 1.681 . S
C928 C39 1.651 . S
C940 C239 1.663 . S
C955 C59 1.639 . S
C967 C139 1.650 . S
C982 C79 1.679 . S
C994 C159 1.669 . S
C1009 C99 1.646 . S
C1021 C179 1.659 . S
C1036 C199 1.651 . S
C1048 C119 1.663 . S
C1063 C198 1.800 . S
C1075 C18 1.845 . S
C1090 C218 1.804 . S
C1102 C38 1.867 . S
C1117 C58 1.817 . S
C1129 C238 1.823 . S
C1144 C78 1.825 . S
C1156 C138 1.815 . S
C1171 C158 1.850 . S
C1183 C98 1.799 . S
C1198 C178 1.861 . S
C1210 C118 1.825 . S
