# Generated by pormake.
# Topology ums, (4)-cn, num edge types: 1
# Building blocks:
#     Node 0, Type 0, BuildingBlock: AZAVOO_clean_sbu_0, # of connection points: 4
#     Node 1, Type 0, BuildingBlock: AZAVOO_clean_sbu_0, # of connection points: 4
#     Node 2, Type 0, BuildingBlock: AZAVOO_clean_sbu_0, # of connection points: 4
#     Node 3, Type 0, BuildingBlock: AZAVOO_clean_sbu_0, # of connection points: 4
#     Node 4, Type 0, BuildingBlock: AZAVOO_clean_sbu_0, # of connection points: 4
#     Node 5, Type 0, BuildingBlock: AZAVOO_clean_sbu_0, # of connection points: 4
#     Node 6, Type 0, BuildingBlock: AZAVOO_clean_sbu_0, # of connection points: 4
#     Node 7, Type 0, BuildingBlock: AZAVOO_clean_sbu_0, # of connection points: 4
#     Node 8, Type 0, BuildingBlock: AZAVOO_clean_sbu_0, # of connection points: 4
#     Node 9, Type 0, BuildingBlock: AZAVOO_clean_sbu_0, # of connection points: 4
#     Node 10, Type 0, BuildingBlock: AZAVOO_clean_sbu_0, # of connection points: 4
#     Node 11, Type 0, BuildingBlock: AZAVOO_clean_sbu_0, # of connection points: 4
#     Node 12, Type 0, BuildingBlock: AZAVOO_clean_sbu_0, # of connection points: 4
#     Node 13, Type 0, BuildingBlock: AZAVOO_clean_sbu_0, # of connection points: 4
#     Node 14, Type 0, BuildingBlock: AZAVOO_clean_sbu_0, # of connection points: 4
#     Node 15, Type 0, BuildingBlock: AZAVOO_clean_sbu_0, # of connection points: 4
#     Node 16, Type 0, BuildingBlock: AZAVOO_clean_sbu_0, # of connection points: 4
#     Node 17, Type 0, BuildingBlock: AZAVOO_clean_sbu_0, # of connection points: 4
#     Node 18, Type 0, BuildingBlock: AZAVOO_clean_sbu_0, # of connection points: 4
#     Node 19, Type 0, BuildingBlock: AZAVOO_clean_sbu_0, # of connection points: 4
#     Node 20, Type 0, BuildingBlock: AZAVOO_clean_sbu_0, # of connection points: 4
#     Node 21, Type 0, BuildingBlock: AZAVOO_clean_sbu_0, # of connection points: 4
#     Node 22, Type 0, BuildingBlock: AZAVOO_clean_sbu_0, # of connection points: 4
#     Node 23, Type 0, BuildingBlock: AZAVOO_clean_sbu_0, # of connection points: 4
#     Node 24, Type 0, BuildingBlock: AZAVOO_clean_sbu_0, # of connection points: 4
#     Node 25, Type 0, BuildingBlock: AZAVOO_clean_sbu_0, # of connection points: 4
#     Node 26, Type 0, BuildingBlock: AZAVOO_clean_sbu_0, # of connection points: 4
#     Node 27, Type 0, BuildingBlock: AZAVOO_clean_sbu_0, # of connection points: 4
#     Node 28, Type 0, BuildingBlock: AZAVOO_clean_sbu_0, # of connection points: 4
#     Node 29, Type 0, BuildingBlock: AZAVOO_clean_sbu_0, # of connection points: 4
#     Node 30, Type 0, BuildingBlock: AZAVOO_clean_sbu_0, # of connection points: 4
#     Node 31, Type 0, BuildingBlock: AZAVOO_clean_sbu_0, # of connection points: 4
#     Node 32, Type 0, BuildingBlock: AZAVOO_clean_sbu_0, # of connection points: 4
#     Node 33, Type 0, BuildingBlock: AZAVOO_clean_sbu_0, # of connection points: 4
#     Node 34, Type 0, BuildingBlock: AZAVOO_clean_sbu_0, # of connection points: 4
#     Node 35, Type 0, BuildingBlock: AZAVOO_clean_sbu_0, # of connection points: 4
#     Edge 36, Type (0, 0), BuildingBlock: CIFDUS_clean_linker_0, # of connection points: 2
#     Edge 37, Type (0, 0), BuildingBlock: CIFDUS_clean_linker_0, # of connection points: 2
#     Edge 38, Type (0, 0), BuildingBlock: CIFDUS_clean_linker_0, # of connection points: 2
#     Edge 39, Type (0, 0), BuildingBlock: CIFDUS_clean_linker_0, # of connection points: 2
#     Edge 40, Type (0, 0), BuildingBlock: CIFDUS_clean_linker_0, # of connection points: 2
#     Edge 41, Type (0, 0), BuildingBlock: CIFDUS_clean_linker_0, # of connection points: 2
#     Edge 42, Type (0, 0), BuildingBlock: CIFDUS_clean_linker_0, # of connection points: 2
#     Edge 43, Type (0, 0), BuildingBlock: CIFDUS_clean_linker_0, # of connection points: 2
#     Edge 44, Type (0, 0), BuildingBlock: CIFDUS_clean_linker_0, # of connection points: 2
#     Edge 45, Type (0, 0), BuildingBlock: CIFDUS_clean_linker_0, # of connection points: 2
#     Edge 46, Type (0, 0), BuildingBlock: CIFDUS_clean_linker_0, # of connection points: 2
#     Edge 47, Type (0, 0), BuildingBlock: CIFDUS_clean_linker_0, # of connection points: 2
#     Edge 48, Type (0, 0), BuildingBlock: CIFDUS_clean_linker_0, # of connection points: 2
#     Edge 49, Type (0, 0), BuildingBlock: CIFDUS_clean_linker_0, # of connection points: 2
#     Edge 50, Type (0, 0), BuildingBlock: CIFDUS_clean_linker_0, # of connection points: 2
#     Edge 51, Type (0, 0), BuildingBlock: CIFDUS_clean_linker_0, # of connection points: 2
#     Edge 52, Type (0, 0), BuildingBlock: CIFDUS_clean_linker_0, # of connection points: 2
#     Edge 53, Type (0, 0), BuildingBlock: CIFDUS_clean_linker_0, # of connection points: 2
#     Edge 54, Type (0, 0), BuildingBlock: CIFDUS_clean_linker_0, # of connection points: 2
#     Edge 55, Type (0, 0), BuildingBlock: CIFDUS_clean_linker_0, # of connection points: 2
#     Edge 56, Type (0, 0), BuildingBlock: CIFDUS_clean_linker_0, # of connection points: 2
#     Edge 57, Type (0, 0), BuildingBlock: CIFDUS_clean_linker_0, # of connection points: 2
#     Edge 58, Type (0, 0), BuildingBlock: CIFDUS_clean_linker_0, # of connection points: 2
#     Edge 59, Type (0, 0), BuildingBlock: CIFDUS_clean_linker_0, # of connection points: 2
#     Edge 60, Type (0, 0), BuildingBlock: CIFDUS_clean_linker_0, # of connection points: 2
#     Edge 61, Type (0, 0), BuildingBlock: CIFDUS_clean_linker_0, # of connection points: 2
#     Edge 62, Type (0, 0), BuildingBlock: CIFDUS_clean_linker_0, # of connection points: 2
#     Edge 63, Type (0, 0), BuildingBlock: CIFDUS_clean_linker_0, # of connection points: 2
#     Edge 64, Type (0, 0), BuildingBlock: CIFDUS_clean_linker_0, # of connection points: 2
#     Edge 65, Type (0, 0), BuildingBlock: CIFDUS_clean_linker_0, # of connection points: 2
#     Edge 66, Type (0, 0), BuildingBlock: CIFDUS_clean_linker_0, # of connection points: 2
#     Edge 67, Type (0, 0), BuildingBlock: CIFDUS_clean_linker_0, # of connection points: 2
#     Edge 68, Type (0, 0), BuildingBlock: CIFDUS_clean_linker_0, # of connection points: 2
#     Edge 69, Type (0, 0), BuildingBlock: CIFDUS_clean_linker_0, # of connection points: 2
#     Edge 70, Type (0, 0), BuildingBlock: CIFDUS_clean_linker_0, # of connection points: 2
#     Edge 71, Type (0, 0), BuildingBlock: CIFDUS_clean_linker_0, # of connection points: 2
#     Edge 72, Type (0, 0), BuildingBlock: CIFDUS_clean_linker_0, # of connection points: 2
#     Edge 73, Type (0, 0), BuildingBlock: CIFDUS_clean_linker_0, # of connection points: 2
#     Edge 74, Type (0, 0), BuildingBlock: CIFDUS_clean_linker_0, # of connection points: 2
#     Edge 75, Type (0, 0), BuildingBlock: CIFDUS_clean_linker_0, # of connection points: 2
#     Edge 76, Type (0, 0), BuildingBlock: CIFDUS_clean_linker_0, # of connection points: 2
#     Edge 77, Type (0, 0), BuildingBlock: CIFDUS_clean_linker_0, # of connection points: 2
#     Edge 78, Type (0, 0), BuildingBlock: CIFDUS_clean_linker_0, # of connection points: 2
#     Edge 79, Type (0, 0), BuildingBlock: CIFDUS_clean_linker_0, # of connection points: 2
#     Edge 80, Type (0, 0), BuildingBlock: CIFDUS_clean_linker_0, # of connection points: 2
#     Edge 81, Type (0, 0), BuildingBlock: CIFDUS_clean_linker_0, # of connection points: 2
#     Edge 82, Type (0, 0), BuildingBlock: CIFDUS_clean_linker_0, # of connection points: 2
#     Edge 83, Type (0, 0), BuildingBlock: CIFDUS_clean_linker_0, # of connection points: 2
#     Edge 84, Type (0, 0), BuildingBlock: CIFDUS_clean_linker_0, # of connection points: 2
#     Edge 85, Type (0, 0), BuildingBlock: CIFDUS_clean_linker_0, # of connection points: 2
#     Edge 86, Type (0, 0), BuildingBlock: CIFDUS_clean_linker_0, # of connection points: 2
#     Edge 87, Type (0, 0), BuildingBlock: CIFDUS_clean_linker_0, # of connection points: 2
#     Edge 88, Type (0, 0), BuildingBlock: CIFDUS_clean_linker_0, # of connection points: 2
#     Edge 89, Type (0, 0), BuildingBlock: CIFDUS_clean_linker_0, # of connection points: 2
#     Edge 90, Type (0, 0), BuildingBlock: CIFDUS_clean_linker_0, # of connection points: 2
#     Edge 91, Type (0, 0), BuildingBlock: CIFDUS_clean_linker_0, # of connection points: 2
#     Edge 92, Type (0, 0), BuildingBlock: CIFDUS_clean_linker_0, # of connection points: 2
#     Edge 93, Type (0, 0), BuildingBlock: CIFDUS_clean_linker_0, # of connection points: 2
#     Edge 94, Type (0, 0), BuildingBlock: CIFDUS_clean_linker_0, # of connection points: 2
#     Edge 95, Type (0, 0), BuildingBlock: CIFDUS_clean_linker_0, # of connection points: 2
#     Edge 96, Type (0, 0), BuildingBlock: CIFDUS_clean_linker_0, # of connection points: 2
#     Edge 97, Type (0, 0), BuildingBlock: CIFDUS_clean_linker_0, # of connection points: 2
#     Edge 98, Type (0, 0), BuildingBlock: CIFDUS_clean_linker_0, # of connection points: 2
#     Edge 99, Type (0, 0), BuildingBlock: CIFDUS_clean_linker_0, # of connection points: 2
#     Edge 100, Type (0, 0), BuildingBlock: CIFDUS_clean_linker_0, # of connection points: 2
#     Edge 101, Type (0, 0), BuildingBlock: CIFDUS_clean_linker_0, # of connection points: 2
#     Edge 102, Type (0, 0), BuildingBlock: CIFDUS_clean_linker_0, # of connection points: 2
#     Edge 103, Type (0, 0), BuildingBlock: CIFDUS_clean_linker_0, # of connection points: 2
#     Edge 104, Type (0, 0), BuildingBlock: CIFDUS_clean_linker_0, # of connection points: 2
#     Edge 105, Type (0, 0), BuildingBlock: CIFDUS_clean_linker_0, # of connection points: 2
#     Edge 106, Type (0, 0), BuildingBlock: CIFDUS_clean_linker_0, # of connection points: 2
#     Edge 107, Type (0, 0), BuildingBlock: CIFDUS_clean_linker_0, # of connection points: 2
# Relax obj value: 0.201
# Max RMSD: 0.160
# Mean RMSD: 0.153
data_MOF--net-ums--node1-AZAVOO_clean_sbu_0--edge1-CIFDUS_clean_linker_0
_symmetry_space_group_name_H-M    P1
_symmetry_Int_Tables_number       1
_symmetry_cell_setting            triclinic
loop_
_symmetry_equiv_pos_as_xyz
'x, y, z'
_cell_length_a     89.293649
_cell_length_b     88.361156
_cell_length_c     20.286573
_cell_angle_alpha  88.938949
_cell_angle_beta   90.151937
_cell_angle_gamma 120.34084
loop_
_atom_site_label
_atom_site_type_symbol
_atom_site_fract_x
_atom_site_fract_y
_atom_site_fract_z
_atom_type_partial_charge
Mg0 Mg 0.15233 0.22599 0.21327 0.0
O1 O 0.16273 0.25441 0.1759 0.0
O2 O 0.14043 0.25589 0.13286 0.0
Mg3 Mg 0.11578 0.22945 0.14914 0.0
C4 C 0.15654 0.26292 0.14624 0.0
C5 C 0.19064 0.23513 0.23365 0.0
O6 O 0.18948 0.23316 0.16948 0.0
O7 O 0.14062 0.23083 0.30514 0.0
O8 O 0.11898 0.23337 0.26054 0.0
O9 O 0.15585 0.21949 0.11031 0.0
O10 O 0.13156 0.2169 0.14995 0.0
C11 C 0.12787 0.23349 0.31014 0.0
C12 C 0.14022 0.21637 0.10057 0.0
O13 O 0.17783 0.234 0.26531 0.0
Mg14 Mg 0.7471 0.90912 0.21263 0.0
O15 O 0.71818 0.89074 0.20144 0.0
O16 O 0.70446 0.89372 0.28766 0.0
Mg17 Mg 0.72575 0.90998 0.36345 0.0
C18 C 0.70432 0.88735 0.23155 0.0
C19 C 0.76202 0.90725 0.07687 0.0
O20 O 0.77542 0.91081 0.11418 0.0
O21 O 0.7438 0.93281 0.20021 0.0
O22 O 0.73473 0.9352 0.30006 0.0
O23 O 0.75057 0.88771 0.25415 0.0
O24 O 0.74506 0.90495 0.31469 0.0
C25 C 0.74014 0.94117 0.24166 0.0
C26 C 0.74763 0.89184 0.31161 0.0
O27 O 0.74902 0.90709 0.10253 0.0
Mg28 Mg 0.11773 0.84191 0.23807 0.0
O29 O 0.13048 0.82752 0.19162 0.0
O30 O 0.15877 0.84703 0.17933 0.0
Mg31 Mg 0.16394 0.87376 0.21263 0.0
C32 C 0.14578 0.83159 0.1733 0.0
C33 C 0.08371 0.80603 0.21946 0.0
O34 O 0.08875 0.8104 0.1578 0.0
O35 O 0.12975 0.84364 0.33956 0.0
O36 O 0.15722 0.8646 0.32042 0.0
O37 O 0.11236 0.84838 0.13763 0.0
O38 O 0.13653 0.8652 0.19188 0.0
C39 C 0.14513 0.85403 0.35967 0.0
C40 C 0.12774 0.8621 0.1383 0.0
O41 O 0.09333 0.81592 0.26496 0.0
Mg42 Mg 0.24814 0.16764 0.43474 0.0
O43 O 0.27767 0.1822 0.45329 0.0
O44 O 0.28367 0.1627 0.49934 0.0
Mg45 Mg 0.25874 0.13611 0.50839 0.0
C46 C 0.28839 0.17822 0.4787 0.0
C47 C 0.24927 0.20231 0.39444 0.0
O48 O 0.24917 0.20323 0.45897 0.0
O49 O 0.25011 0.15287 0.34661 0.0
O50 O 0.25621 0.13375 0.39594 0.0
O51 O 0.24461 0.17432 0.5376 0.0
O52 O 0.24411 0.14994 0.50963 0.0
C53 C 0.25309 0.14018 0.34439 0.0
C54 C 0.24368 0.1597 0.55479 0.0
O55 O 0.25036 0.18988 0.36888 0.0
Mg56 Mg 0.83499 0.07286 0.22886 0.0
O57 O 0.82651 0.0905 0.27758 0.0
O58 O 0.8077 0.09174 0.20776 0.0
Mg59 Mg 0.80831 0.07939 0.10906 0.0
C60 C 0.81554 0.09522 0.26308 0.0
C61 C 0.84385 0.06995 0.38688 0.0
O62 O 0.84455 0.05976 0.4333 0.0
O63 O 0.8078 0.04975 0.24088 0.0
O64 O 0.79247 0.05166 0.15711 0.0
O65 O 0.85888 0.09613 0.18467 0.0
O66 O 0.83359 0.08195 0.13517 0.0
C67 C 0.79394 0.04353 0.2072 0.0
C68 C 0.84952 0.0944 0.13331 0.0
O69 O 0.84089 0.06445 0.32817 0.0
Mg70 Mg 0.95777 0.76633 0.26826 0.0
O71 O 0.93666 0.73869 0.30714 0.0
O72 O 0.91608 0.74298 0.35065 0.0
Mg73 Mg 0.92145 0.77045 0.32881 0.0
C74 C 0.92245 0.73319 0.33937 0.0
C75 C 0.98253 0.75179 0.2574 0.0
O76 O 0.97815 0.74872 0.32007 0.0
O77 O 0.94184 0.76317 0.17499 0.0
O78 O 0.91962 0.76466 0.21865 0.0
O79 O 0.96796 0.77142 0.37087 0.0
O80 O 0.94875 0.77805 0.33212 0.0
C81 C 0.92725 0.76253 0.1697 0.0
C82 C 0.95651 0.77593 0.38193 0.0
O83 O 0.97392 0.75617 0.21951 0.0
Mg84 Mg 0.85762 0.74531 0.71651 0.0
O85 O 0.87609 0.75519 0.80556 0.0
O86 O 0.89657 0.78294 0.78287 0.0
Mg87 Mg 0.89033 0.79157 0.68504 0.0
C88 C 0.89006 0.76927 0.82021 0.0
C89 C 0.82882 0.70712 0.74054 0.0
O90 O 0.83152 0.70798 0.67657 0.0
O91 O 0.84373 0.76004 0.74674 0.0
O92 O 0.86467 0.78772 0.72485 0.0
O93 O 0.87616 0.73894 0.66548 0.0
O94 O 0.87678 0.76415 0.6559 0.0
C95 C 0.84932 0.77652 0.74427 0.0
C96 C 0.8836 0.75485 0.64193 0.0
O97 O 0.83823 0.72064 0.77433 0.0
Mg98 Mg 0.24559 0.07649 0.89869 0.0
O99 O 0.23746 0.0839 0.99326 0.0
O100 O 0.21092 0.07995 0.98094 0.0
Mg101 Mg 0.20188 0.06944 0.8769 0.0
C102 C 0.22459 0.08484 0.01505 0.0
C103 C 0.2825 0.08354 0.9248 0.0
O104 O 0.28329 0.0873 0.86146 0.0
O105 O 0.22813 0.04709 0.91665 0.0
O106 O 0.20223 0.04369 0.89207 0.0
O107 O 0.25591 0.10387 0.8614 0.0
O108 O 0.22921 0.08218 0.84406 0.0
C109 C 0.21192 0.03728 0.90581 0.0
C110 C 0.24063 0.09856 0.83741 0.0
O111 O 0.26809 0.07755 0.95484 0.0
Mg112 Mg 0.90412 0.17056 0.68615 0.0
O113 O 0.89207 0.14889 0.76613 0.0
O114 O 0.88948 0.12424 0.72745 0.0
Mg115 Mg 0.9023 0.13122 0.62447 0.0
C116 C 0.88726 0.1327 0.77305 0.0
C117 C 0.91059 0.20501 0.75769 0.0
O118 O 0.9127 0.21157 0.69752 0.0
O119 O 0.93094 0.17485 0.70653 0.0
O120 O 0.92921 0.15048 0.66766 0.0
O121 O 0.87766 0.16046 0.64241 0.0
O122 O 0.89643 0.15259 0.61086 0.0
C123 C 0.93772 0.16546 0.69463 0.0
C124 C 0.88137 0.15101 0.60531 0.0
O125 O 0.90712 0.1893 0.76633 0.0
Mg126 Mg 0.75163 0.81798 0.73238 0.0
O127 O 0.75787 0.83494 0.63893 0.0
O128 O 0.78501 0.8575 0.64435 0.0
Mg129 Mg 0.79532 0.85629 0.74718 0.0
C130 C 0.77065 0.84878 0.6142 0.0
C131 C 0.7133 0.79112 0.70053 0.0
O132 O 0.7116 0.7969 0.75762 0.0
O133 O 0.76951 0.8072 0.70512 0.0
O134 O 0.79511 0.83086 0.72734 0.0
O135 O 0.74179 0.83423 0.77874 0.0
O136 O 0.76876 0.83988 0.78596 0.0
C137 C 0.78595 0.81468 0.71295 0.0
C138 C 0.75747 0.84431 0.79916 0.0
O139 O 0.72847 0.79654 0.67792 0.0
Mg140 Mg 0.18996 0.94012 0.72381 0.0
O141 O 0.17008 0.9134 0.68431 0.0
O142 O 0.14336 0.90156 0.72705 0.0
Mg143 Mg 0.14517 0.92401 0.78969 0.0
C144 C 0.15442 0.90081 0.68932 0.0
C145 C 0.21211 0.92952 0.64555 0.0
O146 O 0.20868 0.92019 0.70039 0.0
O147 O 0.17954 0.9537 0.65794 0.0
O148 O 0.15315 0.93937 0.69277 0.0
O149 O 0.19444 0.92697 0.80951 0.0
O150 O 0.17354 0.93351 0.80849 0.0
C151 C 0.16736 0.95383 0.68953 0.0
C152 C 0.18097 0.92596 0.83759 0.0
O153 O 0.20775 0.94116 0.64147 0.0
Mg154 Mg 0.0793 0.25273 0.76095 0.0
O155 O 0.08716 0.24113 0.67732 0.0
O156 O 0.08204 0.21449 0.70761 0.0
Mg157 Mg 0.06941 0.20858 0.80988 0.0
C158 C 0.08771 0.22726 0.66606 0.0
C159 C 0.08623 0.28927 0.70979 0.0
O160 O 0.08825 0.29229 0.7733 0.0
O161 O 0.05075 0.23547 0.73706 0.0
O162 O 0.04536 0.20893 0.7703 0.0
O163 O 0.10564 0.26324 0.80289 0.0
O164 O 0.08324 0.23707 0.82833 0.0
C165 C 0.04033 0.21907 0.74608 0.0
C166 C 0.09963 0.24818 0.83287 0.0
O167 O 0.08197 0.2741 0.68971 0.0
Mg168 Mg 0.83183 0.59766 0.48505 0.0
O169 O 0.85091 0.62752 0.47912 0.0
O170 O 0.83442 0.63963 0.45984 0.0
Mg171 Mg 0.80618 0.61855 0.44556 0.0
C172 C 0.8491 0.64089 0.47036 0.0
C173 C 0.86026 0.59832 0.58502 0.0
O174 O 0.85712 0.60869 0.62067 0.0
O175 O 0.82119 0.59995 0.58575 0.0
O176 O 0.80471 0.61118 0.55459 0.0
O177 O 0.83533 0.59605 0.37619 0.0
O178 O 0.81563 0.6009 0.42115 0.0
C179 C 0.8105 0.60512 0.59911 0.0
C180 C 0.82331 0.60003 0.36915 0.0
O181 O 0.85228 0.59258 0.53106 0.0
Mg182 Mg 0.42784 0.26427 0.55792 0.0
O183 O 0.39877 0.24468 0.55692 0.0
O184 O 0.38749 0.24492 0.65484 0.0
Mg185 Mg 0.41047 0.26222 0.72227 0.0
C186 C 0.38586 0.23963 0.59574 0.0
C187 C 0.43934 0.2626 0.4176 0.0
O188 O 0.45303 0.26554 0.4519 0.0
O189 O 0.42337 0.28743 0.55882 0.0
O190 O 0.41628 0.28744 0.66435 0.0
O191 O 0.43342 0.24324 0.58692 0.0
O192 O 0.42877 0.25906 0.65843 0.0
C193 C 0.4202 0.29459 0.60675 0.0
C194 C 0.43169 0.24644 0.64752 0.0
O195 O 0.42714 0.26327 0.44667 0.0
Mg196 Mg 0.75196 0.15771 0.51731 0.0
O197 O 0.76645 0.14325 0.4896 0.0
O198 O 0.79391 0.16344 0.46495 0.0
Mg199 Mg 0.79688 0.19062 0.47319 0.0
C200 C 0.78177 0.14747 0.47097 0.0
C201 C 0.72079 0.12033 0.51556 0.0
O202 O 0.7275 0.12241 0.45626 0.0
O203 O 0.76542 0.16658 0.61811 0.0
O204 O 0.79169 0.18774 0.58443 0.0
O205 O 0.7452 0.15754 0.41095 0.0
O206 O 0.7689 0.17864 0.45722 0.0
C207 C 0.78071 0.17923 0.63042 0.0
C208 C 0.75998 0.17188 0.40505 0.0
O209 O 0.72883 0.13231 0.55747 0.0
Mg210 Mg 0.89904 0.50505 0.69932 0.0
O211 O 0.92761 0.51881 0.73474 0.0
O212 O 0.932 0.49763 0.77517 0.0
Mg213 Mg 0.90737 0.47108 0.7649 0.0
C214 C 0.9373 0.51377 0.76252 0.0
C215 C 0.90425 0.54234 0.67852 0.0
O216 O 0.90596 0.54199 0.74277 0.0
O217 O 0.90489 0.49411 0.60716 0.0
O218 O 0.90939 0.47341 0.65229 0.0
O219 O 0.89143 0.5076 0.80171 0.0
O220 O 0.89257 0.48468 0.76544 0.0
C221 C 0.90828 0.48173 0.60216 0.0
C222 C 0.89041 0.49267 0.81345 0.0
O223 O 0.90293 0.52966 0.64523 0.0
Mg224 Mg 0.50687 0.42495 0.56137 0.0
O225 O 0.49404 0.43731 0.61982 0.0
O226 O 0.47641 0.44038 0.54894 0.0
Mg227 Mg 0.48197 0.43486 0.44358 0.0
C228 C 0.48241 0.44124 0.60695 0.0
C229 C 0.51606 0.41424 0.71356 0.0
O230 O 0.51613 0.40104 0.74417 0.0
O231 O 0.48068 0.40036 0.5534 0.0
O232 O 0.46719 0.40498 0.46915 0.0
O233 O 0.53082 0.45069 0.5388 0.0
O234 O 0.5075 0.43922 0.47701 0.0
C235 C 0.46803 0.39499 0.51361 0.0
C236 C 0.52309 0.4519 0.48657 0.0
O237 O 0.51168 0.41237 0.65315 0.0
Mg238 Mg 0.59681 0.08288 0.62593 0.0
O239 O 0.57691 0.0544 0.65929 0.0
O240 O 0.5529 0.05473 0.68781 0.0
Mg241 Mg 0.55626 0.08166 0.66689 0.0
C242 C 0.56141 0.04675 0.68242 0.0
C243 C 0.6236 0.07092 0.63458 0.0
O244 O 0.61722 0.06767 0.69481 0.0
O245 O 0.58357 0.0792 0.52514 0.0
O246 O 0.55943 0.07895 0.55661 0.0
O247 O 0.60388 0.08888 0.73192 0.0
O248 O 0.58404 0.09259 0.68053 0.0
C249 C 0.56907 0.07822 0.51187 0.0
C250 C 0.59159 0.09253 0.73437 0.0
O251 O 0.61613 0.07508 0.59028 0.0
Mg252 Mg 0.49382 0.06621 0.06078 0.0
O253 O 0.50985 0.0714 0.155 0.0
O254 O 0.53578 0.09551 0.1401 0.0
Mg255 Mg 0.53544 0.10706 0.03862 0.0
C256 C 0.52505 0.08231 0.17514 0.0
C257 C 0.4615 0.03014 0.08839 0.0
O258 O 0.46508 0.02882 0.0267 0.0
O259 O 0.48718 0.08738 0.08455 0.0
O260 O 0.5131 0.11148 0.06735 0.0
O261 O 0.50683 0.05243 0.01929 0.0
O262 O 0.51632 0.08072 0.0053 0.0
C263 C 0.49696 0.10406 0.08185 0.0
C264 C 0.51858 0.06764 0.99641 0.0
O265 O 0.47052 0.04471 0.11678 0.0
Mg266 Mg 0.91343 0.42256 0.15856 0.0
O267 O 0.90315 0.43042 0.24655 0.0
O268 O 0.87802 0.42856 0.22066 0.0
Mg269 Mg 0.87184 0.41853 0.11507 0.0
C270 C 0.89037 0.4324 0.261 0.0
C271 C 0.94784 0.42551 0.20916 0.0
O272 O 0.95164 0.42861 0.14601 0.0
O273 O 0.894 0.39334 0.17108 0.0
O274 O 0.86926 0.39176 0.13911 0.0
O275 O 0.9265 0.45036 0.12338 0.0
O276 O 0.89997 0.43007 0.09478 0.0
C277 C 0.87784 0.38448 0.15778 0.0
C278 C 0.91222 0.44626 0.0929 0.0
O279 O 0.93275 0.4215 0.22863 0.0
Mg280 Mg 0.57584 0.52323 0.00638 0.0
O281 O 0.56344 0.5128 0.1104 0.0
O282 O 0.56873 0.4909 0.13189 0.0
Mg283 Mg 0.57986 0.48467 0.04137 0.0
C284 C 0.56292 0.50085 0.14886 0.0
C285 C 0.57835 0.56163 0.04826 0.0
O286 O 0.58383 0.57753 0.02454 0.0
O287 O 0.60299 0.53372 0.04683 0.0
O288 O 0.60617 0.51024 0.05216 0.0
O289 O 0.55075 0.50654 0.95321 0.0
O290 O 0.56915 0.49805 0.98345 0.0
C291 C 0.6124 0.52679 0.05544 0.0
C292 C 0.55482 0.49441 0.95557 0.0
O293 O 0.57937 0.5507 0.01146 0.0
Mg294 Mg 0.41578 0.16487 0.09188 0.0
O295 O 0.42125 0.18147 0.99804 0.0
O296 O 0.44906 0.20273 0.99578 0.0
Mg297 Mg 0.46093 0.20059 0.09396 0.0
C298 C 0.43399 0.19477 0.97018 0.0
C299 C 0.37725 0.13398 0.07455 0.0
O300 O 0.37688 0.13512 0.13895 0.0
O301 O 0.43105 0.15201 0.05788 0.0
O302 O 0.45824 0.17401 0.07083 0.0
O303 O 0.40855 0.18276 0.14073 0.0
O304 O 0.43497 0.18654 0.14074 0.0
C305 C 0.4474 0.15796 0.05866 0.0
C306 C 0.42477 0.19225 0.15615 0.0
O307 O 0.39124 0.14397 0.04325 0.0
Mg308 Mg 0.85109 0.25211 0.06724 0.0
O309 O 0.83508 0.24138 0.97426 0.0
O310 O 0.80853 0.2372 0.98928 0.0
Mg311 Mg 0.80824 0.24663 0.09439 0.0
C312 C 0.81977 0.2362 0.95381 0.0
C313 C 0.88308 0.25068 0.02012 0.0
O314 O 0.87957 0.24184 0.07626 0.0
O315 O 0.85532 0.2794 0.0501 0.0
O316 O 0.82945 0.27571 0.07723 0.0
O317 O 0.84076 0.22471 0.10404 0.0
O318 O 0.82857 0.2406 0.12455 0.0
C319 C 0.84546 0.28562 0.06177 0.0
C320 C 0.8281 0.22582 0.12984 0.0
O321 O 0.87451 0.25811 0.00502 0.0
Mg322 Mg 0.74823 0.61904 0.04799 0.0
O323 O 0.75835 0.61291 0.95418 0.0
O324 O 0.76274 0.5906 0.97746 0.0
Mg325 Mg 0.7551 0.58225 0.08552 0.0
C326 C 0.76326 0.6022 0.93745 0.0
C327 C 0.74382 0.64545 0.94256 0.0
O328 O 0.73347 0.6502 0.91496 0.0
O329 O 0.72186 0.59459 0.03868 0.0
O330 O 0.72608 0.57245 0.06638 0.0
O331 O 0.77553 0.63765 0.08009 0.0
O332 O 0.7609 0.60923 0.10352 0.0
C333 C 0.71609 0.57831 0.04992 0.0
C334 C 0.77517 0.62398 0.10625 0.0
O335 O 0.73789 0.63406 0.98913 0.0
Mg336 Mg 0.49893 0.91069 0.85592 0.0
O337 O 0.50853 0.94005 0.83367 0.0
O338 O 0.48452 0.94127 0.81239 0.0
Mg339 Mg 0.4604 0.91414 0.82035 0.0
C340 C 0.50097 0.94865 0.8182 0.0
C341 C 0.53699 0.91908 0.85066 0.0
O342 O 0.53438 0.92186 0.789 0.0
O343 O 0.48894 0.91231 0.95905 0.0
O344 O 0.46532 0.91363 0.93057 0.0
O345 O 0.50037 0.90716 0.74737 0.0
O346 O 0.47697 0.90326 0.79966 0.0
C347 C 0.47543 0.91312 0.9739 0.0
C348 C 0.48466 0.90421 0.74505 0.0
O349 O 0.52546 0.91635 0.89355 0.0
Mg350 Mg 0.07289 0.5939 0.89857 0.0
O351 O 0.04418 0.57386 0.89152 0.0
O352 O 0.03123 0.57435 0.98476 0.0
Mg353 Mg 0.05329 0.59053 0.05822 0.0
C354 C 0.03061 0.56904 0.9262 0.0
C355 C 0.08692 0.59633 0.75754 0.0
O356 O 0.10116 0.60126 0.79143 0.0
O357 O 0.06747 0.61627 0.89888 0.0
O358 O 0.06023 0.61662 0.00392 0.0
O359 O 0.07908 0.5734 0.92755 0.0
O360 O 0.07298 0.58821 0.999 0.0
C361 C 0.06431 0.6236 0.94607 0.0
C362 C 0.07682 0.5762 0.98814 0.0
O363 O 0.07347 0.59403 0.78757 0.0
Mg364 Mg 0.39838 0.47547 0.88247 0.0
O365 O 0.4174 0.46566 0.85941 0.0
O366 O 0.44226 0.4894 0.82658 0.0
Mg367 Mg 0.4401 0.51385 0.8348 0.0
C368 C 0.43295 0.47288 0.83693 0.0
C369 C 0.36377 0.44548 0.89123 0.0
O370 O 0.36446 0.45778 0.85184 0.0
O371 O 0.41105 0.48685 0.98319 0.0
O372 O 0.43584 0.50979 0.94594 0.0
O373 O 0.3924 0.47186 0.77527 0.0
O374 O 0.41231 0.49682 0.8187 0.0
C375 C 0.42584 0.50054 0.99333 0.0
C376 C 0.40522 0.48765 0.76726 0.0
O377 O 0.37733 0.44866 0.92309 0.0
Mg378 Mg 0.57511 0.83133 0.99321 0.0
O379 O 0.60369 0.8435 0.02604 0.0
O380 O 0.60723 0.82121 0.05922 0.0
Mg381 Mg 0.58229 0.79535 0.04271 0.0
C382 C 0.61297 0.8376 0.05093 0.0
C383 C 0.58312 0.86962 0.9922 0.0
O384 O 0.5864 0.86732 0.05357 0.0
O385 O 0.58007 0.82193 0.89425 0.0
O386 O 0.58429 0.80032 0.93131 0.0
O387 O 0.56897 0.83245 0.09909 0.0
O388 O 0.56827 0.80954 0.05332 0.0
C389 C 0.58328 0.80957 0.88436 0.0
C390 C 0.56769 0.81726 0.10554 0.0
O391 O 0.57986 0.85764 0.95106 0.0
Mg392 Mg 0.16293 0.7432 0.86316 0.0
O393 O 0.15831 0.76347 0.9134 0.0
O394 O 0.14244 0.76884 0.84112 0.0
Mg395 Mg 0.14291 0.75769 0.73965 0.0
C396 C 0.14921 0.77044 0.89809 0.0
C397 C 0.16787 0.73593 0.02125 0.0
O398 O 0.16566 0.72422 0.06685 0.0
O399 O 0.13404 0.72404 0.86762 0.0
O400 O 0.12276 0.72994 0.77909 0.0
O401 O 0.18962 0.76309 0.82481 0.0
O402 O 0.16533 0.75545 0.77235 0.0
C403 C 0.12136 0.72037 0.82936 0.0
C404 C 0.18198 0.76469 0.77296 0.0
O405 O 0.1648 0.73116 0.96162 0.0
Mg406 Mg 0.24488 0.39786 0.99677 0.0
O407 O 0.22163 0.37006 0.01646 0.0
O408 O 0.19916 0.37351 0.042 0.0
Mg409 Mg 0.20763 0.40259 0.03958 0.0
C410 C 0.20572 0.36378 0.03287 0.0
C411 C 0.26885 0.38217 0.9958 0.0
O412 O 0.26265 0.37801 0.05621 0.0
O413 O 0.23385 0.39964 0.89576 0.0
O414 O 0.21197 0.40342 0.9283 0.0
O415 O 0.2508 0.39959 0.10447 0.0
O416 O 0.23416 0.40848 0.057 0.0
C417 C 0.22121 0.40216 0.88327 0.0
C418 C 0.24037 0.40563 0.10986 0.0
O419 O 0.26165 0.38761 0.95509 0.0
Mg420 Mg 0.16033 0.41426 0.45378 0.0
O421 O 0.17925 0.42072 0.53901 0.0
O422 O 0.20383 0.44573 0.51701 0.0
Mg423 Mg 0.20048 0.45536 0.4151 0.0
C424 C 0.19463 0.4324 0.55434 0.0
C425 C 0.13032 0.37815 0.49972 0.0
O426 O 0.13256 0.37505 0.43849 0.0
O427 O 0.15381 0.43533 0.47913 0.0
O428 O 0.17843 0.45968 0.44902 0.0
O429 O 0.17246 0.40042 0.40665 0.0
O430 O 0.18082 0.42838 0.38897 0.0
C431 C 0.16275 0.45194 0.46997 0.0
C432 C 0.18311 0.41538 0.37872 0.0
O433 O 0.13927 0.39367 0.5207 0.0
Mg434 Mg 0.5873 0.74287 0.4602 0.0
O435 O 0.57799 0.7536 0.54275 0.0
O436 O 0.55145 0.74862 0.52068 0.0
Mg437 Mg 0.54318 0.73351 0.42389 0.0
C438 C 0.5649 0.7551 0.55695 0.0
C439 C 0.62391 0.7493 0.50704 0.0
O440 O 0.62615 0.74828 0.44365 0.0
O441 O 0.57023 0.71405 0.49309 0.0
O442 O 0.54402 0.70977 0.46616 0.0
O443 O 0.59629 0.76829 0.40374 0.0
O444 O 0.57047 0.74458 0.39444 0.0
C445 C 0.55379 0.70414 0.48802 0.0
C446 C 0.58096 0.76062 0.37798 0.0
O447 O 0.60953 0.74719 0.52748 0.0
Mg448 Mg 0.23043 0.84343 0.31229 0.0
O449 O 0.21983 0.82431 0.40021 0.0
O450 O 0.22286 0.80116 0.38287 0.0
Mg451 Mg 0.23349 0.80481 0.27624 0.0
C452 C 0.21826 0.80977 0.4192 0.0
C453 C 0.2269 0.87507 0.37218 0.0
O454 O 0.22111 0.87638 0.31402 0.0
O455 O 0.25861 0.85165 0.33589 0.0
O456 O 0.25982 0.82808 0.30577 0.0
O457 O 0.20379 0.82938 0.26783 0.0
O458 O 0.22445 0.82322 0.24748 0.0
C459 C 0.26713 0.84379 0.32639 0.0
C460 C 0.2088 0.81978 0.2384 0.0
O461 O 0.23142 0.8637 0.3821 0.0
Mg462 Mg 0.07355 0.502 0.43745 0.0
O463 O 0.07721 0.51746 0.34226 0.0
O464 O 0.10402 0.54059 0.33665 0.0
Mg465 Mg 0.11703 0.54077 0.43533 0.0
C466 C 0.08891 0.53116 0.31257 0.0
C467 C 0.03502 0.47163 0.41235 0.0
O468 O 0.03226 0.47601 0.47069 0.0
O469 O 0.09112 0.49154 0.40676 0.0
O470 O 0.11731 0.51531 0.41835 0.0
O471 O 0.06404 0.51841 0.48328 0.0
O472 O 0.0914 0.52489 0.48388 0.0
C473 C 0.10764 0.49889 0.40862 0.0
C474 C 0.08009 0.52926 0.4979 0.0
O475 O 0.05033 0.47933 0.38884 0.0
Mg476 Mg 0.50274 0.56314 0.43248 0.0
O477 O 0.48678 0.55528 0.33828 0.0
O478 O 0.46417 0.5593 0.34772 0.0
Mg479 Mg 0.46664 0.57165 0.44907 0.0
C480 C 0.47296 0.55416 0.31545 0.0
C481 C 0.53912 0.56963 0.38078 0.0
O482 O 0.54541 0.58251 0.42288 0.0
O483 O 0.51577 0.59279 0.40896 0.0
O484 O 0.49308 0.5962 0.43008 0.0
O485 O 0.48422 0.53654 0.47797 0.0
O486 O 0.48173 0.56001 0.48619 0.0
C487 C 0.5092 0.60258 0.41727 0.0
C488 C 0.4757 0.54375 0.49955 0.0
O489 O 0.5228 0.55984 0.37597 0.0
Mg490 Mg 0.40587 0.91479 0.39215 0.0
O491 O 0.4183 0.90632 0.31303 0.0
O492 O 0.41325 0.87944 0.33819 0.0
Mg493 Mg 0.39712 0.87056 0.43369 0.0
C494 C 0.42006 0.89316 0.30112 0.0
C495 C 0.41516 0.95241 0.35212 0.0
O496 O 0.41616 0.95336 0.41669 0.0
O497 O 0.37847 0.89706 0.35352 0.0
O498 O 0.37397 0.87056 0.38362 0.0
O499 O 0.43023 0.92497 0.44979 0.0
O500 O 0.40762 0.8981 0.46089 0.0
C501 C 0.36877 0.88039 0.35777 0.0
C502 C 0.42327 0.90945 0.47664 0.0
O503 O 0.41044 0.93776 0.32563 0.0
H504 H 0.23622 0.22238 0.43622 0.0
H505 H 0.24979 0.20524 0.25989 0.0
H506 H 0.23495 0.2168 0.19266 0.0
H507 H 0.21431 0.22735 0.186 0.0
H508 H 0.19887 0.24225 0.3635 0.0
H509 H 0.21845 0.23621 0.42807 0.0
C510 C 0.23629 0.22151 0.38297 0.0
C511 C 0.24387 0.21271 0.35322 0.0
C512 C 0.22718 0.22759 0.34486 0.0
C513 C 0.24388 0.21178 0.28411 0.0
C514 C 0.23534 0.21832 0.24564 0.0
C515 C 0.2155 0.22965 0.23859 0.0
C516 C 0.20494 0.23498 0.27004 0.0
C517 C 0.22633 0.22557 0.27575 0.0
C518 C 0.20669 0.23794 0.3382 0.0
C519 C 0.21785 0.23445 0.3752 0.0
H520 H 0.77401 0.01754 0.12315 0.0
H521 H 0.78311 0.02939 0.3296 0.0
H522 H 0.76419 0.99842 0.35897 0.0
H523 H 0.74894 0.9678 0.32557 0.0
H524 H 0.74259 0.95556 0.11888 0.0
H525 H 0.75624 0.98675 0.08985 0.0
C526 C 0.77143 0.01334 0.17451 0.0
C527 C 0.7799 0.02563 0.22421 0.0
C528 C 0.7612 0.9954 0.19089 0.0
C529 C 0.77674 0.02008 0.29061 0.0
C530 C 0.76598 0.00239 0.30738 0.0
C531 C 0.75012 0.97191 0.27421 0.0
C532 C 0.74485 0.9594 0.22446 0.0
C533 C 0.75869 0.98988 0.25789 0.0
C534 C 0.74665 0.96497 0.15809 0.0
C535 C 0.75452 0.9828 0.14146 0.0
H536 H 0.00924 0.75717 0.33674 0.0
H537 H 0.9958 0.757 0.13211 0.0
H538 H 0.02649 0.77167 0.1011 0.0
H539 H 0.05703 0.78878 0.13421 0.0
H540 H 0.07023 0.79114 0.34009 0.0
H541 H 0.03976 0.77129 0.36841 0.0
C542 C 0.01294 0.75992 0.28512 0.0
C543 C 0.00023 0.75619 0.23689 0.0
C544 C 0.03063 0.76906 0.26802 0.0
C545 C 0.00533 0.75985 0.17027 0.0
C546 C 0.02289 0.76835 0.15257 0.0
C547 C 0.0533 0.78469 0.18516 0.0
C548 C 0.06587 0.79165 0.23508 0.0
C549 C 0.03567 0.77372 0.20134 0.0
C550 C 0.0608 0.78615 0.30079 0.0
C551 C 0.04336 0.77481 0.31704 0.0
H552 H 0.81606 0.76325 0.7017 0.0
H553 H 0.85673 0.80553 0.81086 0.0
H554 H 0.84042 0.82084 0.81076 0.0
H555 H 0.81617 0.82347 0.77214 0.0
H556 H 0.77509 0.78197 0.66138 0.0
H557 H 0.7901 0.76511 0.66886 0.0
C558 C 0.82105 0.77557 0.72696 0.0
C559 C 0.83751 0.78325 0.75669 0.0
C560 C 0.8118 0.78462 0.72484 0.0
C561 C 0.84406 0.79938 0.78806 0.0
C562 C 0.83482 0.8082 0.78747 0.0
C563 C 0.81045 0.81078 0.74906 0.0
C564 C 0.79469 0.80417 0.71493 0.0
C565 C 0.81897 0.80119 0.75435 0.0
C566 C 0.78733 0.78747 0.68713 0.0
C567 C 0.79587 0.77781 0.69172 0.0
H568 H 0.17818 0.01158 0.88943 0.0
H569 H 0.23053 0.02088 0.88526 0.0
H570 H 0.2209 0.99434 0.8225 0.0
H571 H 0.19891 0.972 0.75099 0.0
H572 H 0.14644 0.96223 0.75606 0.0
H573 H 0.15489 0.9855 0.83601 0.0
C574 C 0.18741 0.00754 0.87655 0.0
C575 C 0.20515 0.01853 0.89067 0.0
C576 C 0.18187 0.99241 0.83906 0.0
C577 C 0.21683 0.01285 0.87464 0.0
C578 C 0.21138 0.99774 0.83792 0.0
C579 C 0.18921 0.97468 0.77052 0.0
C580 C 0.1721 0.96558 0.74668 0.0
C581 C 0.19413 0.98799 0.81683 0.0
C582 C 0.15971 0.96912 0.77334 0.0
C583 C 0.16454 0.98245 0.81895 0.0
H584 H 0.01515 0.18463 0.74221 0.0
H585 H 0.02337 0.23701 0.71998 0.0
H586 H 0.9923 0.22502 0.70532 0.0
H587 H 0.96276 0.19972 0.69978 0.0
H588 H 0.95459 0.14733 0.71717 0.0
H589 H 0.98569 0.1593 0.73352 0.0
C590 C 0.01017 0.19344 0.73396 0.0
C591 C 0.02162 0.21171 0.73241 0.0
C592 C 0.99228 0.18647 0.7253 0.0
C593 C 0.01491 0.2229 0.72119 0.0
C594 C 0.99711 0.21606 0.71314 0.0
C595 C 0.96776 0.19092 0.70776 0.0
C596 C 0.95638 0.17267 0.7079 0.0
C597 C 0.98567 0.19788 0.71554 0.0
C598 C 0.9631 0.16143 0.71703 0.0
C599 C 0.98087 0.16827 0.72624 0.0
H600 H 0.87239 0.58046 0.5172 0.0
H601 H 0.87391 0.60173 0.70858 0.0
H602 H 0.88979 0.58799 0.75257 0.0
H603 H 0.90038 0.56738 0.73941 0.0
H604 H 0.89811 0.54558 0.54836 0.0
H605 H 0.88566 0.56236 0.50137 0.0
C606 C 0.87633 0.58224 0.56843 0.0
C607 C 0.87172 0.59189 0.60977 0.0
C608 C 0.8853 0.57418 0.59351 0.0
C609 C 0.87717 0.59428 0.67573 0.0
C610 C 0.88623 0.58639 0.70099 0.0
C611 C 0.89746 0.56652 0.68722 0.0
C612 C 0.89997 0.55502 0.64773 0.0
C613 C 0.88995 0.57593 0.66073 0.0
C614 C 0.8962 0.55419 0.5801 0.0
C615 C 0.88899 0.56373 0.55319 0.0
H616 H 0.42524 0.31328 0.49158 0.0
H617 H 0.42421 0.31742 0.7032 0.0
H618 H 0.43724 0.34907 0.69205 0.0
H619 H 0.453 0.37585 0.62381 0.0
H620 H 0.45357 0.3722 0.41247 0.0
H621 H 0.4365 0.3401 0.42176 0.0
C622 C 0.42752 0.32106 0.53518 0.0
C623 C 0.42407 0.31295 0.59821 0.0
C624 C 0.43513 0.33937 0.52854 0.0
C625 C 0.42685 0.32324 0.65407 0.0
C626 C 0.43442 0.3414 0.64784 0.0
C627 C 0.44903 0.36799 0.57978 0.0
C628 C 0.45466 0.37624 0.51766 0.0
C629 C 0.43925 0.34965 0.5856 0.0
C630 C 0.44933 0.36606 0.46079 0.0
C631 C 0.43969 0.34773 0.46618 0.0
H632 H 0.70448 0.10736 0.63392 0.0
H633 H 0.69601 0.10252 0.42396 0.0
H634 H 0.66481 0.0845 0.44222 0.0
H635 H 0.63978 0.07391 0.51741 0.0
H636 H 0.64822 0.07779 0.72749 0.0
H637 H 0.67944 0.09197 0.70957 0.0
C638 C 0.69581 0.10206 0.59229 0.0
C639 C 0.70253 0.10656 0.52779 0.0
C640 C 0.67783 0.09161 0.60305 0.0
C641 C 0.69119 0.09937 0.47422 0.0
C642 C 0.6733 0.08911 0.48454 0.0
C643 C 0.64844 0.07748 0.55924 0.0
C644 C 0.64169 0.07511 0.62353 0.0
C645 C 0.66644 0.0857 0.54867 0.0
C646 C 0.65304 0.07956 0.67735 0.0
C647 C 0.67095 0.08781 0.66721 0.0
H648 H 0.46378 0.09608 0.05472 0.0
H649 H 0.51338 0.13794 0.11979 0.0
H650 H 0.50263 0.15837 0.11441 0.0
H651 H 0.47971 0.16463 0.08857 0.0
H652 H 0.42978 0.12321 0.02409 0.0
H653 H 0.44025 0.1024 0.03061 0.0
C654 C 0.47211 0.1096 0.06883 0.0
C655 C 0.48934 0.11546 0.08791 0.0
C656 C 0.46594 0.12143 0.06437 0.0
C657 C 0.50007 0.13309 0.105 0.0
C658 C 0.49398 0.14481 0.10156 0.0
C659 C 0.47109 0.1511 0.07518 0.0
C660 C 0.454 0.14557 0.05527 0.0
C661 C 0.47705 0.13919 0.08036 0.0
C662 C 0.44304 0.12789 0.03909 0.0
C663 C 0.44898 0.11595 0.04327 0.0
H664 H 0.83041 0.30357 0.10901 0.0
H665 H 0.87898 0.31102 0.03403 0.0
H666 H 0.89352 0.34183 0.06358 0.0
H667 H 0.89269 0.36658 0.11249 0.0
H668 H 0.84405 0.35969 0.18265 0.0
H669 H 0.82939 0.32859 0.15487 0.0
C670 C 0.84412 0.31195 0.09819 0.0
C671 C 0.85353 0.30488 0.06926 0.0
C672 C 0.8525 0.32967 0.116 0.0
C673 C 0.87134 0.31603 0.05605 0.0
C674 C 0.87974 0.33365 0.07348 0.0
C675 C 0.87894 0.35817 0.12295 0.0
C676 C 0.86951 0.36529 0.1509 0.0
C677 C 0.87051 0.34053 0.10441 0.0
C678 C 0.85161 0.35441 0.16212 0.0
C679 C 0.84321 0.33669 0.14564 0.0
H680 H 0.63748 0.51772 0.05492 0.0
H681 H 0.63025 0.56236 0.06935 0.0
H682 H 0.66156 0.58208 0.06685 0.0
H683 H 0.69091 0.58682 0.05698 0.0
H684 H 0.69848 0.54242 0.04431 0.0
H685 H 0.66707 0.52247 0.04901 0.0
C686 C 0.64272 0.53175 0.05828 0.0
C687 C 0.63143 0.53849 0.06211 0.0
C688 C 0.6608 0.54309 0.05618 0.0
C689 C 0.63855 0.55674 0.06625 0.0
C690 C 0.65649 0.56807 0.06451 0.0
C691 C 0.68572 0.57278 0.05471 0.0
C692 C 0.69706 0.56615 0.04956 0.0
C693 C 0.66771 0.5614 0.05852 0.0
C694 C 0.69007 0.54789 0.04791 0.0
C695 C 0.6721 0.53647 0.05082 0.0
H696 H 0.54898 0.91643 0.97168 0.0
H697 H 0.55486 0.91075 0.76403 0.0
H698 H 0.57155 0.89651 0.78916 0.0
H699 H 0.58073 0.8818 0.87036 0.0
H700 H 0.57577 0.88838 0.07791 0.0
H701 H 0.56278 0.90629 0.05249 0.0
C702 C 0.55423 0.91241 0.93194 0.0
C703 C 0.55036 0.91435 0.86621 0.0
C704 C 0.56386 0.90418 0.94666 0.0
C705 C 0.5575 0.90933 0.81519 0.0
C706 C 0.56699 0.90105 0.82947 0.0
C707 C 0.57713 0.88745 0.90994 0.0
C708 C 0.57892 0.88346 0.97584 0.0
C709 C 0.56966 0.89781 0.89505 0.0
C710 C 0.57445 0.89112 0.02665 0.0
C711 C 0.56691 0.90131 0.01222 0.0
H712 H 0.06676 0.64072 0.82999 0.0
H713 H 0.07301 0.64833 0.04006 0.0
H714 H 0.08936 0.68001 0.02211 0.0
H715 H 0.1067 0.70489 0.94628 0.0
H716 H 0.10054 0.69751 0.73642 0.0
H717 H 0.07915 0.66644 0.75468 0.0
C718 C 0.07128 0.64933 0.87192 0.0
C719 C 0.06904 0.64214 0.93616 0.0
C720 C 0.08093 0.66757 0.86123 0.0
C721 C 0.07466 0.65346 0.99004 0.0
C722 C 0.08417 0.67162 0.97982 0.0
C723 C 0.1003 0.69655 0.90467 0.0
C724 C 0.10536 0.70331 0.84016 0.0
C725 C 0.08815 0.67873 0.91558 0.0
C726 C 0.09685 0.69254 0.78652 0.0
C727 C 0.08473 0.67475 0.79696 0.0
H728 H 0.28554 0.39011 0.87784 0.0
H729 H 0.29324 0.38531 0.08545 0.0
H730 H 0.32462 0.40243 0.06942 0.0
H731 H 0.34938 0.42411 0.00033 0.0
H732 H 0.34086 0.42969 0.79416 0.0
H733 H 0.31055 0.40688 0.80547 0.0
C734 C 0.29408 0.39237 0.91928 0.0
C735 C 0.28704 0.38689 0.98289 0.0
C736 C 0.31209 0.40271 0.91015 0.0
C737 C 0.29829 0.38959 0.0359 0.0
C738 C 0.31629 0.39955 0.02694 0.0
C739 C 0.34097 0.41989 0.9577 0.0
C740 C 0.34717 0.42878 0.89692 0.0
C741 C 0.3233 0.40703 0.96493 0.0
C742 C 0.33623 0.42323 0.84182 0.0
C743 C 0.31888 0.4102 0.84817 0.0
H744 H 0.14053 0.50873 0.44493 0.0
H745 H 0.09262 0.46378 0.38281 0.0
H746 H 0.10489 0.44489 0.40342 0.0
H747 H 0.1293 0.44119 0.43911 0.0
H748 H 0.17713 0.48638 0.49961 0.0
H749 H 0.16456 0.50506 0.48155 0.0
C750 C 0.13278 0.49484 0.43499 0.0
C751 C 0.11568 0.48775 0.41178 0.0
C752 C 0.13976 0.48402 0.44826 0.0
C753 C 0.10584 0.46965 0.40016 0.0
C754 C 0.1128 0.4588 0.41251 0.0
C755 C 0.13681 0.45506 0.44979 0.0
C756 C 0.15405 0.46238 0.47148 0.0
C757 C 0.12968 0.46582 0.43723 0.0
C758 C 0.16379 0.48044 0.48349 0.0
C759 C 0.15667 0.49114 0.47255 0.0
H760 H 0.50161 0.62388 0.48429 0.0
H761 H 0.54289 0.62425 0.37277 0.0
H762 H 0.56162 0.65572 0.39363 0.0
H763 H 0.56538 0.68346 0.43874 0.0
H764 H 0.52341 0.68201 0.54879 0.0
H765 H 0.50595 0.65035 0.53525 0.0
C766 C 0.51466 0.63078 0.46379 0.0
C767 C 0.52068 0.62177 0.42551 0.0
C768 C 0.52533 0.64859 0.47714 0.0
C769 C 0.53782 0.63093 0.40136 0.0
C770 C 0.54855 0.64887 0.41374 0.0
C771 C 0.55263 0.67606 0.46153 0.0
C772 C 0.54571 0.68496 0.49549 0.0
C773 C 0.5424 0.65787 0.45136 0.0
C774 C 0.52903 0.67537 0.52325 0.0
C775 C 0.51898 0.65733 0.51476 0.0
H776 H 0.34785 0.89443 0.36582 0.0
H777 H 0.34806 0.84747 0.3128 0.0
H778 H 0.31663 0.83206 0.29881 0.0
H779 H 0.2891 0.83146 0.30684 0.0
H780 H 0.28834 0.87794 0.36359 0.0
H781 H 0.31998 0.89393 0.37186 0.0
C782 C 0.34103 0.88093 0.34996 0.0
C783 C 0.35026 0.87212 0.33986 0.0
C784 C 0.32286 0.87197 0.34396 0.0
C785 C 0.34123 0.85453 0.32066 0.0
C786 C 0.32326 0.84569 0.31302 0.0
C787 C 0.29578 0.84508 0.32121 0.0
C788 C 0.28626 0.85341 0.33487 0.0
C789 C 0.31392 0.85418 0.32571 0.0
C790 C 0.29527 0.87111 0.35316 0.0
C791 C 0.31339 0.88031 0.35757 0.0
H792 H 0.0912 0.21685 0.88996 0.0
H793 H 0.13414 0.2695 0.85918 0.0
H794 H 0.15232 0.26281 0.93012 0.0
H795 H 0.15448 0.24315 0.01273 0.0
H796 H 0.11072 0.19131 0.04675 0.0
H797 H 0.09457 0.19615 0.95958 0.0
C798 C 0.10462 0.22678 0.89718 0.0
C799 C 0.11121 0.24367 0.8696 0.0
C800 C 0.11492 0.22285 0.93789 0.0
C801 C 0.12867 0.25639 0.88022 0.0
C802 C 0.1391 0.25257 0.92063 0.0
C803 C 0.14172 0.2327 0.99866 0.0
C804 C 0.13379 0.21681 0.03477 0.0
C805 C 0.1322 0.23597 0.95111 0.0
C806 C 0.11707 0.20349 0.01832 0.0
C807 C 0.10778 0.20637 0.96936 0.0
H808 H 0.78587 0.90259 0.0119 0.0
H809 H 0.73394 0.894 0.99524 0.0
H810 H 0.72854 0.87516 0.90122 0.0
H811 H 0.7371 0.85769 0.83476 0.0
H812 H 0.78878 0.86576 0.85504 0.0
H813 H 0.79572 0.88829 0.93569 0.0
C814 C 0.77348 0.89689 0.98693 0.0
C815 C 0.76023 0.89941 0.0115 0.0
C816 C 0.77031 0.88576 0.93382 0.0
C817 C 0.74433 0.89212 0.9779 0.0
C818 C 0.74118 0.88125 0.92426 0.0
C819 C 0.74997 0.8646 0.85601 0.0
C820 C 0.7623 0.85986 0.83941 0.0
C821 C 0.75383 0.8774 0.90355 0.0
C822 C 0.77898 0.86905 0.86694 0.0
C823 C 0.78297 0.88193 0.91344 0.0
H824 H 0.16181 0.88355 0.10638 0.0
H825 H 0.11001 0.86557 0.0357 0.0
H826 H 0.12188 0.88427 0.93713 0.0
H827 H 0.14698 0.90542 0.87096 0.0
H828 H 0.19873 0.92211 0.93864 0.0
H829 H 0.18688 0.90411 0.03905 0.0
C830 C 0.15311 0.88378 0.06983 0.0
C831 C 0.13507 0.8733 0.07867 0.0
C832 C 0.16002 0.89431 0.01288 0.0
C833 C 0.12397 0.87352 0.02994 0.0
C834 C 0.13073 0.88423 0.9737 0.0
C835 C 0.15565 0.90534 0.90806 0.0
C836 C 0.17368 0.91529 0.89816 0.0
C837 C 0.14874 0.89469 0.96473 0.0
C838 C 0.18479 0.91457 0.94559 0.0
C839 C 0.17803 0.90432 0.00289 0.0
H840 H 0.26229 0.13323 0.80839 0.0
H841 H 0.21011 0.09038 0.77847 0.0
H842 H 0.20532 0.10764 0.6956 0.0
H843 H 0.21775 0.13242 0.61741 0.0
H844 H 0.2701 0.17486 0.64201 0.0
H845 H 0.27304 0.16047 0.74186 0.0
C846 C 0.24975 0.12784 0.78482 0.0
C847 C 0.23671 0.11042 0.79867 0.0
C848 C 0.24718 0.13774 0.73591 0.0
C849 C 0.22046 0.10367 0.76833 0.0
C850 C 0.2177 0.11351 0.72064 0.0
C851 C 0.22953 0.13877 0.64638 0.0
C852 C 0.24365 0.15458 0.62356 0.0
C853 C 0.23121 0.1302 0.70202 0.0
C854 C 0.25901 0.16276 0.65999 0.0
C855 C 0.26074 0.15442 0.71636 0.0
H856 H 0.83064 0.07838 0.48952 0.0
H857 H 0.86612 0.10082 0.32514 0.0
H858 H 0.8796 0.12973 0.37551 0.0
H859 H 0.88499 0.14667 0.47696 0.0
H860 H 0.84938 0.12433 0.64096 0.0
H861 H 0.83193 0.09728 0.57988 0.0
C862 C 0.84091 0.08977 0.46377 0.0
C863 C 0.8476 0.08759 0.40436 0.0
C864 C 0.84868 0.10621 0.49351 0.0
C865 C 0.8608 0.1023 0.37088 0.0
C866 C 0.86862 0.11875 0.40008 0.0
C867 C 0.87307 0.13605 0.49821 0.0
C868 C 0.86846 0.13724 0.56323 0.0
C869 C 0.86325 0.1206 0.46295 0.0
C870 C 0.85304 0.12359 0.59077 0.0
C871 C 0.84319 0.10812 0.55607 0.0
H872 H 0.90539 0.74202 0.61914 0.0
H873 H 0.89727 0.78518 0.57108 0.0
H874 H 0.92172 0.79748 0.49547 0.0
H875 H 0.9429 0.79414 0.43214 0.0
H876 H 0.95107 0.75094 0.47493 0.0
H877 H 0.92954 0.74077 0.56425 0.0
C878 C 0.90914 0.7542 0.59262 0.0
C879 C 0.89943 0.76258 0.60059 0.0
C880 C 0.92329 0.76127 0.54835 0.0
C881 C 0.90451 0.77845 0.56627 0.0
C882 C 0.9185 0.78553 0.52272 0.0
C883 C 0.94037 0.78285 0.46261 0.0
C884 C 0.94847 0.77331 0.44734 0.0
C885 C 0.92769 0.77684 0.51217 0.0
C886 C 0.94512 0.75864 0.48661 0.0
C887 C 0.9326 0.75266 0.53693 0.0
H888 H 0.87773 0.74734 0.92799 0.0
H889 H 0.92411 0.79185 0.84737 0.0
H890 H 0.94028 0.7924 0.94519 0.0
H891 H 0.94105 0.7811 0.05638 0.0
H892 H 0.89419 0.73832 0.14077 0.0
H893 H 0.87852 0.73598 0.03873 0.0
C894 C 0.89138 0.75713 0.93176 0.0
C895 C 0.89964 0.76957 0.88047 0.0
C896 C 0.90059 0.75758 0.98877 0.0
C897 C 0.91735 0.78221 0.88635 0.0
C898 C 0.92667 0.7825 0.94217 0.0
C899 C 0.92751 0.77108 0.05163 0.0
C900 C 0.91879 0.75973 0.10516 0.0
C901 C 0.91841 0.77033 0.9939 0.0
C902 C 0.90113 0.74707 0.09958 0.0
C903 C 0.89216 0.7458 0.04152 0.0
H904 H 0.25045 0.09473 0.10478 0.0
H905 H 0.20375 0.09639 0.06522 0.0
H906 H 0.20933 0.115 0.16033 0.0
H907 H 0.2277 0.13117 0.2543 0.0
H908 H 0.27339 0.12807 0.29705 0.0
H909 H 0.26823 0.11002 0.20012 0.0
C910 C 0.24139 0.09902 0.11715 0.0
C911 C 0.2267 0.09413 0.07767 0.0
C912 C 0.24469 0.10977 0.17177 0.0
C913 C 0.2151 0.09981 0.09483 0.0
C914 C 0.21836 0.11061 0.14893 0.0
C915 C 0.23665 0.12676 0.24156 0.0
C916 C 0.25108 0.13117 0.28175 0.0
C917 C 0.23321 0.11583 0.18731 0.0
C918 C 0.26233 0.12498 0.26616 0.0
C919 C 0.25931 0.11457 0.21113 0.0
H920 H 0.84182 0.08292 0.00878 0.0
H921 H 0.87521 0.12879 0.12065 0.0
H922 H 0.88939 0.14504 0.01845 0.0
H923 H 0.89288 0.14577 0.89715 0.0
H924 H 0.86155 0.09866 0.78793 0.0
H925 H 0.84606 0.08326 0.889 0.0
C926 C 0.85206 0.09655 0.01063 0.0
C927 C 0.85729 0.10477 0.07193 0.0
C928 C 0.86064 0.10549 0.95213 0.0
C929 C 0.87088 0.12227 0.07391 0.0
C930 C 0.87901 0.13152 0.01555 0.0
C931 C 0.88264 0.13214 0.89561 0.0
C932 C 0.87833 0.12337 0.83508 0.0
C933 C 0.87411 0.1232 0.95437 0.0
C934 C 0.86518 0.10566 0.8339 0.0
C935 C 0.85626 0.09688 0.89163 0.0
H936 H 0.77071 0.8814 0.33503 0.0
H937 H 0.72734 0.88246 0.42257 0.0
H938 H 0.72993 0.86793 0.52269 0.0
H939 H 0.74518 0.85569 0.58617 0.0
H940 H 0.79077 0.85814 0.5035 0.0
H941 H 0.78676 0.87052 0.4002 0.0
C942 C 0.76176 0.8783 0.37594 0.0
C943 C 0.74872 0.88274 0.3715 0.0
C944 C 0.7638 0.87064 0.43398 0.0
C945 C 0.73743 0.87908 0.4251 0.0
C946 C 0.73892 0.87079 0.48215 0.0
C947 C 0.75412 0.85884 0.54516 0.0
C948 C 0.76811 0.85585 0.55156 0.0
C949 C 0.75212 0.8666 0.48725 0.0
C950 C 0.77989 0.86029 0.49913 0.0
C951 C 0.77758 0.86735 0.4403 0.0
H952 H 0.12191 0.84893 0.4565 0.0
H953 H 0.17605 0.86658 0.42257 0.0
H954 H 0.1833 0.8803 0.53011 0.0
H955 H 0.17506 0.89203 0.62225 0.0
H956 H 0.12129 0.87638 0.6531 0.0
H957 H 0.11306 0.85685 0.55917 0.0
C958 C 0.1352 0.85521 0.47366 0.0
C959 C 0.14845 0.85691 0.4312 0.0
C960 C 0.13939 0.86376 0.53451 0.0
C961 C 0.16563 0.8652 0.45406 0.0
C962 C 0.16981 0.87318 0.51538 0.0
C963 C 0.16148 0.8841 0.60934 0.0
C964 C 0.14885 0.88599 0.64378 0.0
C965 C 0.15692 0.87333 0.55425 0.0
C966 C 0.1313 0.87533 0.62713 0.0
C967 C 0.12659 0.86422 0.57311 0.0
H968 H 0.09511 0.24807 0.5568 0.0
H969 H 0.09904 0.20458 0.63657 0.0
H970 H 0.11352 0.20383 0.53568 0.0
H971 H 0.12428 0.215 0.42297 0.0
H972 H 0.11837 0.25707 0.34144 0.0
H973 H 0.10578 0.25917 0.44528 0.0
C974 C 0.09915 0.23843 0.55226 0.0
C975 C 0.09595 0.22638 0.60414 0.0
C976 C 0.10728 0.23795 0.49396 0.0
C977 C 0.1012 0.21393 0.59718 0.0
C978 C 0.10958 0.21355 0.53964 0.0
C979 C 0.12049 0.2248 0.42863 0.0
C980 C 0.12237 0.23599 0.37531 0.0
C981 C 0.11264 0.22546 0.48761 0.0
C982 C 0.11708 0.24839 0.38225 0.0
C983 C 0.10982 0.24953 0.44137 0.0
H984 H 0.82399 0.62988 0.33483 0.0
H985 H 0.81277 0.57992 0.26035 0.0
H986 H 0.79895 0.5844 0.16313 0.0
H987 H 0.78599 0.60038 0.1105 0.0
H988 H 0.79702 0.65021 0.1861 0.0
H989 H 0.81555 0.64831 0.27104 0.0
C990 C 0.81881 0.62018 0.29653 0.0
C991 C 0.81901 0.60448 0.30465 0.0
C992 C 0.81085 0.62283 0.2415 0.0
C993 C 0.81265 0.59208 0.25464 0.0
C994 C 0.80468 0.5946 0.19949 0.0
C995 C 0.7927 0.61093 0.14493 0.0
C996 C 0.78986 0.62519 0.14349 0.0
C997 C 0.80306 0.60958 0.19401 0.0
C998 C 0.79901 0.63909 0.1867 0.0
C999 C 0.80944 0.63791 0.23557 0.0
H1000 H 0.40715 0.20866 0.1911 0.0
H1001 H 0.45744 0.21292 0.20285 0.0
H1002 H 0.46748 0.23758 0.27626 0.0
H1003 H 0.46069 0.25494 0.34955 0.0
H1004 H 0.41011 0.25004 0.3422 0.0
H1005 H 0.40169 0.22902 0.25359 0.0
C1006 C 0.42038 0.21516 0.20893 0.0
C1007 C 0.43142 0.20877 0.19225 0.0
C1008 C 0.42603 0.22921 0.25225 0.0
C1009 C 0.4486 0.21747 0.21512 0.0
C1010 C 0.45438 0.23158 0.25737 0.0
C1011 C 0.44795 0.24959 0.32765 0.0
C1012 C 0.43594 0.25376 0.35352 0.0
C1013 C 0.44301 0.23714 0.27808 0.0
C1014 C 0.41957 0.24689 0.32382 0.0
C1015 C 0.41468 0.23476 0.27339 0.0
H1016 H 0.79711 0.22179 0.16652 0.0
H1017 H 0.82798 0.1969 0.18008 0.0
H1018 H 0.80768 0.17586 0.26163 0.0
H1019 H 0.78369 0.16761 0.34053 0.0
H1020 H 0.7535 0.19315 0.32836 0.0
H1021 H 0.77088 0.21085 0.23352 0.0
C1022 C 0.79928 0.21162 0.18627 0.0
C1023 C 0.8142 0.21113 0.16825 0.0
C1024 C 0.78772 0.19978 0.23351 0.0
C1025 C 0.81664 0.19762 0.19358 0.0
C1026 C 0.80509 0.18565 0.24042 0.0
C1027 C 0.78075 0.17678 0.31583 0.0
C1028 C 0.76754 0.17929 0.34059 0.0
C1029 C 0.79098 0.18706 0.26248 0.0
C1030 C 0.76364 0.1911 0.30917 0.0
C1031 C 0.77362 0.20124 0.2555 0.0
H1032 H 0.917 0.50438 0.89761 0.0
H1033 H 0.86314 0.46541 0.87372 0.0
H1034 H 0.86469 0.4484 0.9672 0.0
H1035 H 0.88259 0.44227 0.04019 0.0
H1036 H 0.93706 0.48003 0.06083 0.0
H1037 H 0.93417 0.50001 0.98367 0.0
C1038 C 0.9055 0.49252 0.91496 0.0
C1039 C 0.88992 0.48613 0.88026 0.0
C1040 C 0.90676 0.48245 0.96657 0.0
C1041 C 0.87513 0.47058 0.90105 0.0
C1042 C 0.8761 0.46079 0.95376 0.0
C1043 C 0.89377 0.45498 0.02931 0.0
C1044 C 0.91004 0.45952 0.05559 0.0
C1045 C 0.89204 0.46621 0.98462 0.0
C1046 C 0.92439 0.47616 0.04082 0.0
C1047 C 0.92275 0.48758 0.99667 0.0
H1048 H 0.54297 0.48941 0.83108 0.0
H1049 H 0.54428 0.46202 0.00696 0.0
H1050 H 0.53066 0.43431 0.94796 0.0
H1051 H 0.52083 0.41857 0.84479 0.0
H1052 H 0.52358 0.44661 0.66487 0.0
H1053 H 0.53301 0.47341 0.72669 0.0
C1054 C 0.53988 0.47726 0.85655 0.0
C1055 C 0.5443 0.47754 0.92323 0.0
C1056 C 0.53294 0.46161 0.82137 0.0
C1057 C 0.54078 0.46194 0.95571 0.0
C1058 C 0.53311 0.44618 0.92193 0.0
C1059 C 0.52336 0.43049 0.81891 0.0
C1060 C 0.52111 0.43047 0.75018 0.0
C1061 C 0.52954 0.44595 0.85442 0.0
C1062 C 0.52463 0.44611 0.71774 0.0
C1063 C 0.53022 0.46148 0.75312 0.0
H1064 H 0.57524 0.06542 0.81984 0.0
H1065 H 0.58849 0.11894 0.7828 0.0
H1066 H 0.56805 0.11635 0.86844 0.0
H1067 H 0.5436 0.09767 0.93964 0.0
H1068 H 0.5282 0.04327 0.97161 0.0
H1069 H 0.5522 0.04723 0.90107 0.0
C1070 C 0.57404 0.07663 0.83259 0.0
C1071 C 0.58343 0.09245 0.79662 0.0
C1072 C 0.5616 0.07471 0.87929 0.0
C1073 C 0.58151 0.1068 0.81118 0.0
C1074 C 0.56972 0.10523 0.85942 0.0
C1075 C 0.54568 0.08674 0.93281 0.0
C1076 C 0.53411 0.07019 0.96081 0.0
C1077 C 0.55924 0.08906 0.89176 0.0
C1078 C 0.53691 0.05613 0.95037 0.0
C1079 C 0.55062 0.05839 0.91014 0.0
H1080 H 0.55774 0.09169 0.21441 0.0
H1081 H 0.50453 0.06564 0.28199 0.0
H1082 H 0.5134 0.06088 0.39076 0.0
H1083 H 0.53633 0.06535 0.4679 0.0
H1084 H 0.58951 0.09045 0.40069 0.0
H1085 H 0.58055 0.094 0.28991 0.0
C1086 C 0.54812 0.08501 0.25307 0.0
C1087 C 0.53053 0.07927 0.24053 0.0
C1088 C 0.55327 0.08201 0.31519 0.0
C1089 C 0.51814 0.07028 0.29054 0.0
C1090 C 0.5232 0.06753 0.35269 0.0
C1091 C 0.54596 0.07144 0.42885 0.0
C1092 C 0.56358 0.07777 0.44263 0.0
C1093 C 0.54073 0.07349 0.36569 0.0
C1094 C 0.57586 0.08541 0.39131 0.0
C1095 C 0.57076 0.08758 0.32815 0.0
H1096 H 0.91452 0.44256 0.35804 0.0
H1097 H 0.86795 0.44294 0.3029 0.0
H1098 H 0.87059 0.4601 0.39972 0.0
H1099 H 0.88588 0.47463 0.50151 0.0
H1100 H 0.93137 0.4727 0.55928 0.0
H1101 H 0.92969 0.45695 0.45904 0.0
C1102 C 0.90486 0.44628 0.36721 0.0
C1103 C 0.89101 0.44136 0.3231 0.0
C1104 C 0.90646 0.45618 0.42291 0.0
C1105 C 0.87868 0.44639 0.33608 0.0
C1106 C 0.88025 0.45634 0.39124 0.0
C1107 C 0.89562 0.47108 0.49118 0.0
C1108 C 0.90891 0.47505 0.53681 0.0
C1109 C 0.89413 0.46138 0.43485 0.0
C1110 C 0.92116 0.46995 0.52421 0.0
C1111 C 0.92011 0.46082 0.4673 0.0
H1112 H 0.5104 0.46157 0.37992 0.0
H1113 H 0.55796 0.47343 0.47816 0.0
H1114 H 0.57483 0.49174 0.3848 0.0
H1115 H 0.57599 0.50075 0.26867 0.0
H1116 H 0.52906 0.49066 0.17108 0.0
H1117 H 0.51208 0.47562 0.27068 0.0
C1118 C 0.52446 0.46847 0.38144 0.0
C1119 C 0.53284 0.46582 0.43566 0.0
C1120 C 0.53422 0.47924 0.3274 0.0
C1121 C 0.5511 0.47507 0.4371 0.0
C1122 C 0.56082 0.48553 0.38346 0.0
C1123 C 0.56211 0.49575 0.27013 0.0
C1124 C 0.55374 0.49673 0.21292 0.0
C1125 C 0.55251 0.4872 0.32746 0.0
C1126 C 0.53577 0.49017 0.21493 0.0
C1127 C 0.52606 0.48141 0.27163 0.0
H1128 H 0.41059 0.23065 0.75355 0.0
H1129 H 0.45808 0.24012 0.66174 0.0
H1130 H 0.46329 0.22501 0.75351 0.0
H1131 H 0.45464 0.20973 0.8619 0.0
H1132 H 0.40554 0.19748 0.94752 0.0
H1133 H 0.40052 0.21281 0.85638 0.0
C1134 C 0.42202 0.22933 0.7539 0.0
C1135 C 0.43405 0.23659 0.70183 0.0
C1136 C 0.4246 0.22007 0.80561 0.0
C1137 C 0.44869 0.2346 0.70171 0.0
C1138 C 0.45168 0.226 0.75411 0.0
C1139 C 0.4428 0.21033 0.86009 0.0
C1140 C 0.43052 0.20258 0.91128 0.0
C1141 C 0.43977 0.21876 0.80658 0.0
C1142 C 0.41514 0.20326 0.90831 0.0
C1143 C 0.4123 0.21211 0.85646 0.0
H1144 H 0.8125 0.20355 0.67403 0.0
H1145 H 0.75931 0.17125 0.73894 0.0
H1146 H 0.76647 0.18662 0.84379 0.0
H1147 H 0.78774 0.21021 0.9153 0.0
H1148 H 0.84083 0.24196 0.84861 0.0
H1149 H 0.83366 0.22608 0.74554 0.0
C1150 C 0.80244 0.19969 0.71119 0.0
C1151 C 0.78535 0.18624 0.69821 0.0
C1152 C 0.80656 0.20876 0.77064 0.0
C1153 C 0.77259 0.18144 0.74748 0.0
C1154 C 0.77664 0.19037 0.80726 0.0
C1155 C 0.79766 0.21377 0.87779 0.0
C1156 C 0.81476 0.22743 0.8893 0.0
C1157 C 0.79353 0.20428 0.8189 0.0
C1158 C 0.82757 0.23161 0.84086 0.0
C1159 C 0.8235 0.22247 0.78202 0.0
H1160 H 0.78324 0.58901 0.89427 0.0
H1161 H 0.76034 0.61968 0.83065 0.0
H1162 H 0.77366 0.62393 0.72208 0.0
H1163 H 0.79135 0.61867 0.64505 0.0
H1164 H 0.81455 0.58813 0.70686 0.0
H1165 H 0.80162 0.5842 0.81674 0.0
C1166 C 0.78105 0.59651 0.8565 0.0
C1167 C 0.77074 0.60398 0.87065 0.0
C1168 C 0.78885 0.59898 0.79405 0.0
C1169 C 0.76825 0.61385 0.8213 0.0
C1170 C 0.77585 0.61627 0.75913 0.0
C1171 C 0.79365 0.61115 0.68239 0.0
C1172 C 0.80385 0.60361 0.66738 0.0
C1173 C 0.78615 0.60888 0.74501 0.0
C1174 C 0.80678 0.59408 0.71691 0.0
C1175 C 0.79932 0.59177 0.77967 0.0
H1176 H 0.45828 0.92481 0.49129 0.0
H1177 H 0.40934 0.88332 0.56859 0.0
H1178 H 0.42434 0.87691 0.65539 0.0
H1179 H 0.45102 0.88488 0.71527 0.0
H1180 H 0.50024 0.92538 0.63737 0.0
H1181 H 0.48556 0.93026 0.544 0.0
C1182 C 0.45097 0.91429 0.52689 0.0
C1183 C 0.43275 0.90472 0.52433 0.0
C1184 C 0.45971 0.91049 0.5763 0.0
C1185 C 0.42338 0.89091 0.56984 0.0
C1186 C 0.43193 0.88725 0.61955 0.0
C1187 C 0.45852 0.89452 0.67703 0.0
C1188 C 0.47657 0.90482 0.68283 0.0
C1189 C 0.45002 0.89719 0.62402 0.0
C1190 C 0.48629 0.91723 0.63326 0.0
C1191 C 0.47789 0.92012 0.58038 0.0
H1192 H 0.11074 0.59226 0.68961 0.0
H1193 H 0.05827 0.58242 0.67881 0.0
H1194 H 0.05208 0.5621 0.58927 0.0
H1195 H 0.06001 0.54327 0.52878 0.0
H1196 H 0.11218 0.5524 0.54401 0.0
H1197 H 0.12 0.57687 0.61638 0.0
C1198 C 0.09808 0.58603 0.66661 0.0
C1199 C 0.08487 0.58848 0.69208 0.0
C1200 C 0.09442 0.57394 0.6166 0.0
C1201 C 0.06861 0.58052 0.66091 0.0
C1202 C 0.065 0.56879 0.60993 0.0
C1203 C 0.07316 0.55081 0.54704 0.0
C1204 C 0.08537 0.5458 0.53203 0.0
C1205 C 0.07754 0.56473 0.58981 0.0
C1206 C 0.10245 0.55586 0.55522 0.0
C1207 C 0.10696 0.56986 0.59685 0.0
H1208 H 0.41746 0.51944 0.71335 0.0
H1209 H 0.41345 0.46947 0.68218 0.0
H1210 H 0.43432 0.48206 0.59043 0.0
H1211 H 0.45645 0.50851 0.52892 0.0
H1212 H 0.45965 0.55819 0.56353 0.0
H1213 H 0.4362 0.54446 0.64284 0.0
C1214 C 0.42085 0.51126 0.68511 0.0
C1215 C 0.41411 0.49372 0.70372 0.0
C1216 C 0.43283 0.51858 0.6334 0.0
C1217 C 0.41845 0.48305 0.66757 0.0
C1218 C 0.43049 0.49028 0.61576 0.0
C1219 C 0.45179 0.5162 0.55315 0.0
C1220 C 0.45991 0.53435 0.54059 0.0
C1221 C 0.43821 0.50822 0.59967 0.0
C1222 C 0.45367 0.54418 0.57192 0.0
C1223 C 0.44026 0.53638 0.61775 0.0
H1224 H 0.55002 0.78393 0.14675 0.0
H1225 H 0.58988 0.83533 0.20488 0.0
H1226 H 0.59748 0.82243 0.29812 0.0
H1227 H 0.59462 0.79593 0.35524 0.0
H1228 H 0.55403 0.74483 0.2949 0.0
H1229 H 0.54485 0.75818 0.21071 0.0
C1230 C 0.56005 0.79229 0.18104 0.0
C1231 C 0.56935 0.81042 0.16973 0.0
C1232 C 0.5644 0.78481 0.23343 0.0
C1233 C 0.58239 0.82128 0.21373 0.0
C1234 C 0.58688 0.81389 0.26634 0.0
C1235 C 0.58371 0.7878 0.32389 0.0
C1236 C 0.57517 0.76944 0.3308 0.0
C1237 C 0.5783 0.79559 0.27543 0.0
C1238 C 0.56087 0.75901 0.29056 0.0
C1239 C 0.55558 0.7666 0.24225 0.0
H1240 H 0.21623 0.81152 0.12107 0.0
H1241 H 0.17522 0.7947 0.26516 0.0
H1242 H 0.15749 0.76756 0.20457 0.0
H1243 H 0.15559 0.74722 0.11837 0.0
H1244 H 0.19572 0.7651 0.97001 0.0
H1245 H 0.21182 0.79357 0.02337 0.0
C1246 C 0.20331 0.80197 0.13856 0.0
C1247 C 0.19706 0.8048 0.19784 0.0
C1248 C 0.19313 0.78672 0.1027 0.0
C1249 C 0.18023 0.79264 0.21972 0.0
C1250 C 0.17016 0.77716 0.18521 0.0
C1251 C 0.16761 0.75759 0.09681 0.0
C1252 C 0.17461 0.75417 0.04087 0.0
C1253 C 0.1767 0.77386 0.12769 0.0
C1254 C 0.19011 0.76757 0.01285 0.0
C1255 C 0.19939 0.78373 0.04382 0.0
H1256 H 0.2353 0.43144 0.14708 0.0
H1257 H 0.22974 0.38226 0.21322 0.0
H1258 H 0.2123 0.38147 0.308 0.0
H1259 H 0.19564 0.39318 0.36286 0.0
H1260 H 0.20206 0.44278 0.29519 0.0
H1261 H 0.22237 0.44514 0.21062 0.0
C1262 C 0.23058 0.42078 0.18328 0.0
C1263 C 0.23357 0.4069 0.17369 0.0
C1264 C 0.22059 0.42042 0.23674 0.0
C1265 C 0.22759 0.39313 0.22044 0.0
C1266 C 0.21751 0.39261 0.27405 0.0
C1267 C 0.20169 0.40459 0.33012 0.0
C1268 C 0.19714 0.41762 0.3345 0.0
C1269 C 0.21344 0.40591 0.28134 0.0
C1270 C 0.20525 0.43249 0.29258 0.0
C1271 C 0.21684 0.43386 0.24401 0.0
H1272 H 0.23579 0.43171 0.80808 0.0
H1273 H 0.19576 0.37727 0.80988 0.0
H1274 H 0.18386 0.38186 0.70745 0.0
H1275 H 0.18367 0.40179 0.62233 0.0
H1276 H 0.22351 0.45648 0.62042 0.0
H1277 H 0.23662 0.45144 0.71822 0.0
C1278 C 0.22478 0.4208 0.78468 0.0
C1279 C 0.21685 0.4041 0.81502 0.0
C1280 C 0.21777 0.42369 0.72685 0.0
C1281 C 0.20226 0.39012 0.78606 0.0
C1282 C 0.19536 0.39281 0.72811 0.0
C1283 C 0.19518 0.41265 0.64337 0.0
C1284 C 0.20244 0.42955 0.61453 0.0
C1285 C 0.20277 0.40962 0.69898 0.0
C1286 C 0.21757 0.44337 0.64186 0.0
C1287 C 0.22511 0.44049 0.69766 0.0
H1288 H 0.55803 0.79749 0.79252 0.0
H1289 H 0.60982 0.80773 0.82943 0.0
H1290 H 0.60886 0.792 0.73004 0.0
H1291 H 0.59241 0.77324 0.63845 0.0
H1292 H 0.53985 0.76142 0.60442 0.0
H1293 H 0.54188 0.77959 0.69715 0.0
C1294 C 0.56926 0.79671 0.77738 0.0
C1295 C 0.58413 0.80406 0.81705 0.0
C1296 C 0.56829 0.78694 0.72177 0.0
C1297 C 0.5984 0.80246 0.79864 0.0
C1298 C 0.59776 0.79328 0.74236 0.0
C1299 C 0.58136 0.77459 0.65117 0.0
C1300 C 0.56594 0.76577 0.61458 0.0
C1301 C 0.5826 0.78506 0.70459 0.0
C1302 C 0.55185 0.76788 0.63184 0.0
C1303 C 0.55302 0.77837 0.68475 0.0
H1304 H 0.17123 0.7782 0.67393 0.0
H1305 H 0.21507 0.77406 0.73881 0.0
H1306 H 0.23011 0.78713 0.63443 0.0
H1307 H 0.23019 0.79845 0.52159 0.0
H1308 H 0.18738 0.80479 0.46096 0.0
H1309 H 0.17249 0.79206 0.56605 0.0
C1310 C 0.18415 0.78034 0.66551 0.0
C1311 C 0.19196 0.77506 0.71401 0.0
C1312 C 0.19282 0.78806 0.60559 0.0
C1313 C 0.20879 0.77809 0.70251 0.0
C1314 C 0.21735 0.78544 0.64254 0.0
C1315 C 0.2176 0.79699 0.53166 0.0
C1316 C 0.20973 0.80226 0.48351 0.0
C1317 C 0.20938 0.79021 0.5932 0.0
C1318 C 0.1936 0.8007 0.49734 0.0
C1319 C 0.1851 0.79345 0.55739 0.0
H1320 H 0.05809 0.56094 0.10031 0.0
H1321 H 0.10471 0.57215 0.9964 0.0
H1322 H 0.11298 0.55943 0.08755 0.0
H1323 H 0.10727 0.54572 0.19881 0.0
H1324 H 0.05904 0.5315 0.297 0.0
H1325 H 0.05099 0.54456 0.20657 0.0
C1326 C 0.06999 0.56049 0.09784 0.0
C1327 C 0.08086 0.56754 0.04235 0.0
C1328 C 0.07436 0.55258 0.14942 0.0
C1329 C 0.09614 0.56673 0.03887 0.0
C1330 C 0.1009 0.55951 0.09097 0.0
C1331 C 0.09496 0.54539 0.19989 0.0
C1332 C 0.0838 0.53773 0.25434 0.0
C1333 C 0.09016 0.55247 0.14673 0.0
C1334 C 0.0678 0.53723 0.2552 0.0
C1335 C 0.06322 0.54478 0.20372 0.0
H1336 H 0.45877 0.52079 0.03437 0.0
H1337 H 0.40574 0.49569 0.10326 0.0
H1338 H 0.41557 0.5108 0.20857 0.0
H1339 H 0.4394 0.53226 0.27912 0.0
H1340 H 0.49229 0.5561 0.2095 0.0
H1341 H 0.48232 0.54064 0.10571 0.0
C1342 C 0.44933 0.51848 0.07258 0.0
C1343 C 0.43153 0.50719 0.06082 0.0
C1344 C 0.45505 0.52726 0.13237 0.0
C1345 C 0.41952 0.50421 0.11118 0.0
C1346 C 0.42513 0.513 0.1711 0.0
C1347 C 0.44868 0.53417 0.24082 0.0
C1348 C 0.46655 0.54553 0.2514 0.0
C1349 C 0.44286 0.5248 0.18179 0.0
C1350 C 0.47849 0.54756 0.20221 0.0
C1351 C 0.4728 0.53866 0.14303 0.0
H1352 H 0.45865 0.88493 0.05518 0.0
H1353 H 0.47966 0.94077 0.043 0.0
H1354 H 0.46464 0.93964 0.14545 0.0
H1355 H 0.44331 0.92235 0.2319 0.0
H1356 H 0.4215 0.86623 0.24272 0.0
H1357 H 0.43895 0.86783 0.14738 0.0
C1358 C 0.46036 0.89688 0.07647 0.0
C1359 C 0.47051 0.91297 0.04297 0.0
C1360 C 0.4512 0.896 0.13409 0.0
C1361 C 0.47222 0.92833 0.06922 0.0
C1362 C 0.46346 0.92764 0.12717 0.0
C1363 C 0.44236 0.91045 0.21351 0.0
C1364 C 0.4309 0.89416 0.24396 0.0
C1365 C 0.4525 0.91147 0.15889 0.0
C1366 C 0.4301 0.87893 0.22002 0.0
C1367 C 0.44011 0.87983 0.16555 0.0
H1368 H 0.21554 0.3405 0.07341 0.0
H1369 H 0.17069 0.34438 0.02122 0.0
H1370 H 0.15165 0.31346 0.04994 0.0
H1371 H 0.14759 0.28574 0.09395 0.0
H1372 H 0.19212 0.28179 0.15126 0.0
H1373 H 0.2114 0.31232 0.11671 0.0
C1374 C 0.20161 0.33449 0.0676 0.0
C1375 C 0.19453 0.3447 0.04509 0.0
C1376 C 0.19067 0.31676 0.08577 0.0
C1377 C 0.17645 0.33682 0.03865 0.0
C1378 C 0.16555 0.31914 0.05513 0.0
C1379 C 0.16151 0.29149 0.09889 0.0
C1380 C 0.16835 0.28145 0.1255 0.0
C1381 C 0.1725 0.30906 0.07956 0.0
C1382 C 0.18646 0.28921 0.13137 0.0
C1383 C 0.19751 0.30667 0.11144 0.0
H1384 H 0.6784 0.89411 0.20588 0.0
H1385 H 0.69376 0.85552 0.18078 0.0
H1386 H 0.66716 0.83698 0.11972 0.0
H1387 H 0.63951 0.83169 0.07436 0.0
H1388 H 0.62477 0.87101 0.09257 0.0
H1389 H 0.65132 0.88955 0.1539 0.0
C1390 C 0.67575 0.88155 0.18751 0.0
C1391 C 0.68773 0.87593 0.19871 0.0
C1392 C 0.66073 0.87128 0.15033 0.0
C1393 C 0.68453 0.85992 0.17325 0.0
C1394 C 0.66941 0.84939 0.13813 0.0
C1395 C 0.64218 0.84439 0.09117 0.0
C1396 C 0.63016 0.84994 0.07895 0.0
C1397 C 0.65744 0.85496 0.12624 0.0
C1398 C 0.63388 0.86649 0.10072 0.0
C1399 C 0.64897 0.87702 0.13641 0.0
H1400 H 0.17099 0.79129 0.99311 0.0
H1401 H 0.11929 0.77071 0.91711 0.0
H1402 H 0.11285 0.78594 0.00196 0.0
H1403 H 0.12243 0.80638 0.09382 0.0
H1404 H 0.17511 0.82947 0.16245 0.0
H1405 H 0.18074 0.81233 0.08364 0.0
C1406 C 0.15831 0.79011 0.9955 0.0
C1407 C 0.14563 0.77993 0.94908 0.0
C1408 C 0.15487 0.79932 0.04321 0.0
C1409 C 0.1293 0.77862 0.95204 0.0
C1410 C 0.12558 0.78724 0.00074 0.0
C1411 C 0.13499 0.80726 0.09291 0.0
C1412 C 0.14825 0.81899 0.13457 0.0
C1413 C 0.13831 0.79773 0.04631 0.0
C1414 C 0.16463 0.82039 0.13138 0.0
C1415 C 0.16786 0.81057 0.08642 0.0
H1416 H 0.31638 0.17451 0.50118 0.0
H1417 H 0.30094 0.21351 0.48655 0.0
H1418 H 0.32972 0.23604 0.52263 0.0
H1419 H 0.35899 0.24439 0.56402 0.0
H1420 H 0.37464 0.20561 0.57328 0.0
H1421 H 0.34604 0.18319 0.53433 0.0
C1422 C 0.31935 0.18797 0.50528 0.0
C1423 C 0.30647 0.19228 0.49149 0.0
C1424 C 0.33591 0.20085 0.52598 0.0
C1425 C 0.31061 0.20983 0.49649 0.0
C1426 C 0.32704 0.22271 0.51765 0.0
C1427 C 0.35602 0.231 0.55747 0.0
C1428 C 0.36863 0.22645 0.57223 0.0
C1429 C 0.3397 0.21832 0.5336 0.0
C1430 C 0.36495 0.20923 0.56264 0.0
C1431 C 0.34866 0.19648 0.54027 0.0
H1432 H 0.81244 0.14783 0.46091 0.0
H1433 H 0.75791 0.11672 0.41637 0.0
H1434 H 0.76351 0.09753 0.34884 0.0
H1435 H 0.78427 0.09134 0.29332 0.0
H1436 H 0.83847 0.12099 0.34308 0.0
H1437 H 0.83268 0.13893 0.41788 0.0
C1438 C 0.80175 0.13663 0.4375 0.0
C1439 C 0.7848 0.13382 0.44331 0.0
C1440 C 0.80505 0.12556 0.39883 0.0
C1441 C 0.77106 0.11917 0.41311 0.0
C1442 C 0.77427 0.10827 0.37384 0.0
C1443 C 0.79477 0.1017 0.32083 0.0
C1444 C 0.81181 0.10513 0.31185 0.0
C1445 C 0.79127 0.11166 0.36476 0.0
C1446 C 0.82527 0.11824 0.34893 0.0
C1447 C 0.82196 0.1285 0.39156 0.0
H1448 H 0.89949 0.72133 0.4399 0.0
H1449 H 0.92377 0.70424 0.29929 0.0
H1450 H 0.90467 0.6737 0.33597 0.0
H1451 H 0.8785 0.65174 0.39837 0.0
H1452 H 0.85339 0.66958 0.53168 0.0
H1453 H 0.87556 0.70004 0.50827 0.0
C1454 C 0.90069 0.71096 0.41727 0.0
C1455 C 0.91274 0.71498 0.36582 0.0
C1456 C 0.88952 0.69357 0.43754 0.0
C1457 C 0.91447 0.70144 0.3385 0.0
C1458 C 0.90352 0.684 0.35936 0.0
C1459 C 0.87825 0.66234 0.42348 0.0
C1460 C 0.86446 0.65857 0.46679 0.0
C1461 C 0.89065 0.67987 0.40754 0.0
C1462 C 0.86395 0.67229 0.4983 0.0
C1463 C 0.87654 0.68966 0.48463 0.0
H1464 H 0.82124 0.69876 0.87148 0.0
H1465 H 0.8017 0.68067 0.67634 0.0
H1466 H 0.77414 0.65806 0.72315 0.0
H1467 H 0.75419 0.64641 0.81792 0.0
H1468 H 0.77338 0.66358 0.01335 0.0
H1469 H 0.80254 0.68338 0.96844 0.0
C1470 C 0.81104 0.6897 0.83932 0.0
C1471 C 0.81341 0.6917 0.77042 0.0
C1472 C 0.79514 0.67661 0.86662 0.0
C1473 C 0.80019 0.67961 0.72947 0.0
C1474 C 0.78437 0.66667 0.75616 0.0
C1475 C 0.76492 0.65413 0.85066 0.0
C1476 C 0.76182 0.65357 0.91861 0.0
C1477 C 0.7815 0.66548 0.82438 0.0
C1478 C 0.77566 0.66362 0.96092 0.0
C1479 C 0.79224 0.67509 0.93512 0.0
H1480 H 0.34462 0.11295 0.12419 0.0
H1481 H 0.37376 0.12965 0.9415 0.0
H1482 H 0.347 0.11393 0.87919 0.0
H1483 H 0.31527 0.09783 0.87609 0.0
H1484 H 0.28594 0.08158 0.05829 0.0
H1485 H 0.31283 0.09451 0.12104 0.0
C1486 C 0.34514 0.11298 0.07078 0.0
C1487 C 0.36117 0.12267 0.03767 0.0
C1488 C 0.32966 0.10405 0.03503 0.0
C1489 C 0.3616 0.12245 0.96838 0.0
C1490 C 0.34629 0.11347 0.93258 0.0
C1491 C 0.31473 0.0969 0.92951 0.0
C1492 C 0.29861 0.08893 0.96236 0.0
C1493 C 0.33023 0.10459 0.96533 0.0
C1494 C 0.29817 0.08773 0.03165 0.0
C1495 C 0.31355 0.09518 0.06765 0.0
H1496 H 0.90838 0.23466 0.75731 0.0
H1497 H 0.91198 0.19739 0.88725 0.0
H1498 H 0.90672 0.21052 0.98237 0.0
H1499 H 0.89701 0.22964 0.02667 0.0
H1500 H 0.89159 0.2658 0.89669 0.0
H1501 H 0.90207 0.25636 0.80404 0.0
C1502 C 0.90833 0.22964 0.80653 0.0
C1503 C 0.91025 0.21489 0.81506 0.0
C1504 C 0.90488 0.23699 0.86109 0.0
C1505 C 0.91025 0.20857 0.87921 0.0
C1506 C 0.90726 0.21607 0.93372 0.0
C1507 C 0.89847 0.23575 0.97842 0.0
C1508 C 0.89323 0.24817 0.96845 0.0
C1509 C 0.90392 0.22985 0.92499 0.0
C1510 C 0.89536 0.25605 0.90563 0.0
C1511 C 0.90126 0.2506 0.85248 0.0
H1512 H 0.67948 0.77846 0.73305 0.0
H1513 H 0.7125 0.78036 0.57419 0.0
H1514 H 0.68748 0.76644 0.50132 0.0
H1515 H 0.65664 0.75595 0.4802 0.0
H1516 H 0.62387 0.75456 0.63918 0.0
H1517 H 0.64836 0.76596 0.71432 0.0
C1518 C 0.6812 0.77566 0.68271 0.0
C1519 C 0.69788 0.78061 0.65906 0.0
C1520 C 0.6668 0.76785 0.64081 0.0
C1521 C 0.69982 0.77676 0.59374 0.0
C1522 C 0.68552 0.76885 0.55189 0.0
C1523 C 0.65481 0.75798 0.53141 0.0
C1524 C 0.63845 0.75455 0.55369 0.0
C1525 C 0.66901 0.76469 0.57448 0.0
C1526 C 0.63631 0.75716 0.62043 0.0
C1527 C 0.65033 0.76372 0.66355 0.0
H1528 H 0.22626 0.90886 0.64162 0.0
H1529 H 0.20887 0.93679 0.51606 0.0
H1530 H 0.21258 0.9229 0.41911 0.0
H1531 H 0.21853 0.90092 0.37136 0.0
H1532 H 0.23581 0.87317 0.49909 0.0
H1533 H 0.23433 0.88888 0.59354 0.0
C1534 C 0.22353 0.91213 0.59294 0.0
C1535 C 0.21726 0.92378 0.58611 0.0
C1536 C 0.22548 0.90396 0.53774 0.0
C1537 C 0.21384 0.92793 0.52266 0.0
C1538 C 0.21581 0.91988 0.46724 0.0
C1539 C 0.22211 0.89843 0.41975 0.0
C1540 C 0.22713 0.88576 0.42797 0.0
C1541 C 0.22127 0.90757 0.47436 0.0
C1542 C 0.23182 0.88277 0.4911 0.0
C1543 C 0.23099 0.89176 0.54535 0.0
H1544 H 0.11152 0.34348 0.47215 0.0
H1545 H 0.12554 0.37969 0.63204 0.0
H1546 H 0.11167 0.35519 0.71095 0.0
H1547 H 0.09812 0.32363 0.73548 0.0
H1548 H 0.08484 0.28755 0.57548 0.0
H1549 H 0.09575 0.31187 0.49584 0.0
C1550 C 0.11136 0.34604 0.52415 0.0
C1551 C 0.11974 0.36341 0.54613 0.0
C1552 C 0.10361 0.3319 0.5694 0.0
C1553 C 0.11928 0.36646 0.6137 0.0
C1554 C 0.1114 0.35245 0.65897 0.0
C1555 C 0.09742 0.32105 0.68317 0.0
C1556 C 0.09086 0.3038 0.66164 0.0
C1557 C 0.10393 0.33513 0.63753 0.0
C1558 C 0.08994 0.3007 0.59357 0.0
C1559 C 0.09621 0.31461 0.5479 0.0
H1560 H 0.00394 0.57456 0.89887 0.0
H1561 H 0.02019 0.53637 0.88504 0.0
H1562 H 0.99297 0.51605 0.83072 0.0
H1563 H 0.96453 0.5091 0.78811 0.0
H1564 H 0.94879 0.54787 0.79472 0.0
H1565 H 0.97593 0.56817 0.84952 0.0
C1566 C 0.00135 0.56171 0.88438 0.0
C1567 C 0.01376 0.55671 0.89692 0.0
C1568 C 0.98592 0.55035 0.8511 0.0
C1569 C 0.01063 0.54029 0.87651 0.0
C1570 C 0.99514 0.52875 0.84524 0.0
C1571 C 0.96709 0.52205 0.80104 0.0
C1572 C 0.95462 0.52693 0.78743 0.0
C1573 C 0.98271 0.53364 0.83222 0.0
C1574 C 0.95821 0.54382 0.80408 0.0
C1575 C 0.97367 0.55538 0.83598 0.0
H1576 H 0.46625 0.48008 0.82767 0.0
H1577 H 0.41373 0.44151 0.7776 0.0
H1578 H 0.42445 0.4278 0.70232 0.0
H1579 H 0.44888 0.42912 0.64042 0.0
H1580 H 0.50135 0.4666 0.69461 0.0
H1581 H 0.49062 0.47847 0.77852 0.0
C1582 C 0.45717 0.46837 0.80165 0.0
C1583 C 0.43924 0.46186 0.80798 0.0
C1584 C 0.46344 0.46062 0.75815 0.0
C1585 C 0.42759 0.44666 0.77416 0.0
C1586 C 0.43372 0.43896 0.73034 0.0
C1587 C 0.4579 0.43979 0.67112 0.0
C1588 C 0.47583 0.44726 0.66092 0.0
C1589 C 0.45161 0.44623 0.72019 0.0
C1590 C 0.48748 0.46079 0.70162 0.0
C1591 C 0.48135 0.46756 0.74944 0.0
H1592 H 0.53391 0.96741 0.76697 0.0
H1593 H 0.49099 0.97258 0.83529 0.0
H1594 H 0.50611 0.00333 0.80067 0.0
H1595 H 0.53058 0.02823 0.74648 0.0
H1596 H 0.57355 0.02369 0.67427 0.0
H1597 H 0.55933 0.99322 0.71477 0.0
C1598 C 0.52802 0.97537 0.77506 0.0
C1599 C 0.51133 0.96771 0.80359 0.0
C1600 C 0.53667 0.99307 0.75359 0.0
C1601 C 0.50377 0.97812 0.81312 0.0
C1602 C 0.51239 0.99571 0.79323 0.0
C1603 C 0.5369 0.02064 0.73924 0.0
C1604 C 0.55306 0.02825 0.7066 0.0
C1605 C 0.52867 0.00322 0.76239 0.0
C1606 C 0.56106 0.01816 0.69874 0.0
C1607 C 0.55294 0.00074 0.72203 0.0
H1608 H 0.45378 0.02768 0.21938 0.0
H1609 H 0.44176 0.99676 0.04404 0.0
H1610 H 0.42497 0.96994 0.10981 0.0
H1611 H 0.41616 0.95514 0.21808 0.0
H1612 H 0.42871 0.98603 0.39367 0.0
H1613 H 0.44268 0.01294 0.32667 0.0
C1614 C 0.44729 0.0151 0.19536 0.0
C1615 C 0.44922 0.01425 0.12694 0.0
C1616 C 0.43785 0.99968 0.23359 0.0
C1617 C 0.44061 0.99782 0.09667 0.0
C1618 C 0.43104 0.98245 0.13427 0.0
C1619 C 0.42176 0.96774 0.24171 0.0
C1620 C 0.42156 0.96854 0.31088 0.0
C1621 C 0.42996 0.9832 0.20295 0.0
C1622 C 0.42877 0.985 0.34057 0.0
C1623 C 0.4368 0.00043 0.30229 0.0
H1624 H 0.00055 0.45406 0.44355 0.0
H1625 H 0.03644 0.46305 0.28487 0.0
H1626 H 0.01234 0.44773 0.20928 0.0
H1627 H 0.98139 0.4348 0.18522 0.0
H1628 H 0.94546 0.42609 0.34333 0.0
H1629 H 0.96922 0.43802 0.42199 0.0
C1630 C 0.0031 0.45245 0.39268 0.0
C1631 C 0.0203 0.45996 0.36981 0.0
C1632 C 0.98917 0.44376 0.34908 0.0
C1633 C 0.02334 0.45757 0.30382 0.0
C1634 C 0.00956 0.44883 0.26037 0.0
C1635 C 0.97871 0.43526 0.23703 0.0
C1636 C 0.9617 0.4298 0.25804 0.0
C1637 C 0.99246 0.44234 0.28199 0.0
C1638 C 0.95844 0.43031 0.32557 0.0
C1639 C 0.97204 0.4372 0.37067 0.0
H1640 H 0.59158 0.58172 0.15406 0.0
H1641 H 0.54872 0.53248 0.09141 0.0
H1642 H 0.53356 0.52923 0.19597 0.0
H1643 H 0.53066 0.54302 0.29591 0.0
H1644 H 0.57332 0.593 0.35551 0.0
H1645 H 0.59049 0.59332 0.26162 0.0
C1646 C 0.57911 0.57007 0.16423 0.0
C1647 C 0.57125 0.5573 0.11572 0.0
C1648 C 0.57034 0.56864 0.22323 0.0
C1649 C 0.55512 0.54228 0.12882 0.0
C1650 C 0.54637 0.54058 0.18811 0.0
C1651 C 0.54383 0.55385 0.289 0.0
C1652 C 0.55057 0.56816 0.33187 0.0
C1653 C 0.55356 0.55406 0.23435 0.0
C1654 C 0.56774 0.58192 0.32293 0.0
C1655 C 0.57756 0.58215 0.26909 0.0
loop_
_geom_bond_atom_site_label_1
_geom_bond_atom_site_label_2
_geom_bond_distance
_geom_bond_site_symmetry_2
_ccdc_geom_bond_type
Mg0 O1 2.028 . S
Mg0 O7 1.986 . S
Mg0 O9 2.114 . S
Mg0 O10 2.251 . S
Mg0 O13 2.010 . S
O1 Mg0 2.028 . S
O1 C4 1.250 . S
O2 Mg3 2.028 . S
O2 C4 1.248 . S
Mg3 O2 2.028 . S
Mg3 O8 2.032 . S
Mg3 O10 2.079 . S
C4 O1 1.250 . S
C4 O2 1.248 . S
C5 O6 1.264 . S
C5 O13 1.249 . S
O6 C5 1.264 . S
O7 Mg0 1.986 . S
O7 C11 1.246 . S
O8 Mg3 2.032 . S
O8 C11 1.259 . S
O9 Mg0 2.114 . S
O9 C12 1.252 . S
O10 Mg0 2.251 . S
O10 Mg3 2.079 . S
O10 C12 1.273 . S
C11 O7 1.246 . S
C11 O8 1.259 . S
C12 O9 1.252 . S
C12 O10 1.273 . S
O13 Mg0 2.010 . S
O13 C5 1.249 . S
Mg14 O15 2.028 . S
Mg14 O21 1.986 . S
Mg14 O23 2.114 . S
Mg14 O24 2.251 . S
Mg14 O27 2.010 . S
O15 Mg14 2.028 . S
O15 C18 1.250 . S
O16 Mg17 2.028 . S
O16 C18 1.248 . S
Mg17 O16 2.028 . S
Mg17 O22 2.032 . S
Mg17 O24 2.079 . S
C18 O15 1.250 . S
C18 O16 1.248 . S
C19 O20 1.264 . S
C19 O27 1.249 . S
O20 C19 1.264 . S
O21 Mg14 1.986 . S
O21 C25 1.246 . S
O22 Mg17 2.032 . S
O22 C25 1.259 . S
O23 Mg14 2.114 . S
O23 C26 1.252 . S
O24 Mg14 2.251 . S
O24 Mg17 2.079 . S
O24 C26 1.273 . S
C25 O21 1.246 . S
C25 O22 1.259 . S
C26 O23 1.252 . S
C26 O24 1.273 . S
O27 Mg14 2.010 . S
O27 C19 1.249 . S
Mg28 O29 2.028 . S
Mg28 O35 1.986 . S
Mg28 O37 2.114 . S
Mg28 O38 2.251 . S
Mg28 O41 2.010 . S
O29 Mg28 2.028 . S
O29 C32 1.250 . S
O30 Mg31 2.028 . S
O30 C32 1.248 . S
Mg31 O30 2.028 . S
Mg31 O36 2.032 . S
Mg31 O38 2.079 . S
C32 O29 1.250 . S
C32 O30 1.248 . S
C33 O34 1.264 . S
C33 O41 1.249 . S
O34 C33 1.264 . S
O35 Mg28 1.986 . S
O35 C39 1.246 . S
O36 Mg31 2.032 . S
O36 C39 1.259 . S
O37 Mg28 2.114 . S
O37 C40 1.252 . S
O38 Mg28 2.251 . S
O38 Mg31 2.079 . S
O38 C40 1.273 . S
C39 O35 1.246 . S
C39 O36 1.259 . S
C40 O37 1.252 . S
C40 O38 1.273 . S
O41 Mg28 2.010 . S
O41 C33 1.249 . S
Mg42 O43 2.028 . S
Mg42 O49 1.986 . S
Mg42 O51 2.114 . S
Mg42 O52 2.251 . S
Mg42 O55 2.010 . S
O43 Mg42 2.028 . S
O43 C46 1.250 . S
O44 Mg45 2.028 . S
O44 C46 1.248 . S
Mg45 O44 2.028 . S
Mg45 O50 2.032 . S
Mg45 O52 2.079 . S
C46 O43 1.250 . S
C46 O44 1.248 . S
C47 O48 1.264 . S
C47 O55 1.249 . S
O48 C47 1.264 . S
O49 Mg42 1.986 . S
O49 C53 1.246 . S
O50 Mg45 2.032 . S
O50 C53 1.259 . S
O51 Mg42 2.114 . S
O51 C54 1.252 . S
O52 Mg42 2.251 . S
O52 Mg45 2.079 . S
O52 C54 1.273 . S
C53 O49 1.246 . S
C53 O50 1.259 . S
C54 O51 1.252 . S
C54 O52 1.273 . S
O55 Mg42 2.010 . S
O55 C47 1.249 . S
Mg56 O57 2.028 . S
Mg56 O63 1.986 . S
Mg56 O65 2.114 . S
Mg56 O66 2.251 . S
Mg56 O69 2.010 . S
O57 Mg56 2.028 . S
O57 C60 1.250 . S
O58 Mg59 2.028 . S
O58 C60 1.248 . S
Mg59 O58 2.028 . S
Mg59 O64 2.032 . S
Mg59 O66 2.079 . S
C60 O57 1.250 . S
C60 O58 1.248 . S
C61 O62 1.264 . S
C61 O69 1.249 . S
O62 C61 1.264 . S
O63 Mg56 1.986 . S
O63 C67 1.246 . S
O64 Mg59 2.032 . S
O64 C67 1.259 . S
O65 Mg56 2.114 . S
O65 C68 1.252 . S
O66 Mg56 2.251 . S
O66 Mg59 2.079 . S
O66 C68 1.273 . S
C67 O63 1.246 . S
C67 O64 1.259 . S
C68 O65 1.252 . S
C68 O66 1.273 . S
O69 Mg56 2.010 . S
O69 C61 1.249 . S
Mg70 O71 2.028 . S
Mg70 O77 1.986 . S
Mg70 O79 2.114 . S
Mg70 O80 2.251 . S
Mg70 O83 2.010 . S
O71 Mg70 2.028 . S
O71 C74 1.250 . S
O72 Mg73 2.028 . S
O72 C74 1.248 . S
Mg73 O72 2.028 . S
Mg73 O78 2.032 . S
Mg73 O80 2.079 . S
C74 O71 1.250 . S
C74 O72 1.248 . S
C75 O76 1.264 . S
C75 O83 1.249 . S
O76 C75 1.264 . S
O77 Mg70 1.986 . S
O77 C81 1.246 . S
O78 Mg73 2.032 . S
O78 C81 1.259 . S
O79 Mg70 2.114 . S
O79 C82 1.252 . S
O80 Mg70 2.251 . S
O80 Mg73 2.079 . S
O80 C82 1.273 . S
C81 O77 1.246 . S
C81 O78 1.259 . S
C82 O79 1.252 . S
C82 O80 1.273 . S
O83 Mg70 2.010 . S
O83 C75 1.249 . S
Mg84 O85 2.028 . S
Mg84 O91 1.986 . S
Mg84 O93 2.114 . S
Mg84 O94 2.251 . S
Mg84 O97 2.010 . S
O85 Mg84 2.028 . S
O85 C88 1.250 . S
O86 Mg87 2.028 . S
O86 C88 1.248 . S
Mg87 O86 2.028 . S
Mg87 O92 2.032 . S
Mg87 O94 2.079 . S
C88 O85 1.250 . S
C88 O86 1.248 . S
C89 O90 1.264 . S
C89 O97 1.249 . S
O90 C89 1.264 . S
O91 Mg84 1.986 . S
O91 C95 1.246 . S
O92 Mg87 2.032 . S
O92 C95 1.259 . S
O93 Mg84 2.114 . S
O93 C96 1.252 . S
O94 Mg84 2.251 . S
O94 Mg87 2.079 . S
O94 C96 1.273 . S
C95 O91 1.246 . S
C95 O92 1.259 . S
C96 O93 1.252 . S
C96 O94 1.273 . S
O97 Mg84 2.010 . S
O97 C89 1.249 . S
Mg98 O99 2.028 . S
Mg98 O105 1.986 . S
Mg98 O107 2.114 . S
Mg98 O108 2.251 . S
Mg98 O111 2.010 . S
O99 Mg98 2.028 . S
O99 C102 1.250 . S
O100 Mg101 2.028 . S
O100 C102 1.248 . S
Mg101 O100 2.028 . S
Mg101 O106 2.032 . S
Mg101 O108 2.079 . S
C102 O99 1.250 . S
C102 O100 1.248 . S
C103 O104 1.264 . S
C103 O111 1.249 . S
O104 C103 1.264 . S
O105 Mg98 1.986 . S
O105 C109 1.246 . S
O106 Mg101 2.032 . S
O106 C109 1.259 . S
O107 Mg98 2.114 . S
O107 C110 1.252 . S
O108 Mg98 2.251 . S
O108 Mg101 2.079 . S
O108 C110 1.273 . S
C109 O105 1.246 . S
C109 O106 1.259 . S
C110 O107 1.252 . S
C110 O108 1.273 . S
O111 Mg98 2.010 . S
O111 C103 1.249 . S
Mg112 O113 2.028 . S
Mg112 O119 1.986 . S
Mg112 O121 2.114 . S
Mg112 O122 2.251 . S
Mg112 O125 2.010 . S
O113 Mg112 2.028 . S
O113 C116 1.250 . S
O114 Mg115 2.028 . S
O114 C116 1.248 . S
Mg115 O114 2.028 . S
Mg115 O120 2.032 . S
Mg115 O122 2.079 . S
C116 O113 1.250 . S
C116 O114 1.248 . S
C117 O118 1.264 . S
C117 O125 1.249 . S
O118 C117 1.264 . S
O119 Mg112 1.986 . S
O119 C123 1.246 . S
O120 Mg115 2.032 . S
O120 C123 1.259 . S
O121 Mg112 2.114 . S
O121 C124 1.252 . S
O122 Mg112 2.251 . S
O122 Mg115 2.079 . S
O122 C124 1.273 . S
C123 O119 1.246 . S
C123 O120 1.259 . S
C124 O121 1.252 . S
C124 O122 1.273 . S
O125 Mg112 2.010 . S
O125 C117 1.249 . S
Mg126 O127 2.028 . S
Mg126 O133 1.986 . S
Mg126 O135 2.114 . S
Mg126 O136 2.251 . S
Mg126 O139 2.010 . S
O127 Mg126 2.028 . S
O127 C130 1.250 . S
O128 Mg129 2.028 . S
O128 C130 1.248 . S
Mg129 O128 2.028 . S
Mg129 O134 2.032 . S
Mg129 O136 2.079 . S
C130 O127 1.250 . S
C130 O128 1.248 . S
C131 O132 1.264 . S
C131 O139 1.249 . S
O132 C131 1.264 . S
O133 Mg126 1.986 . S
O133 C137 1.246 . S
O134 Mg129 2.032 . S
O134 C137 1.259 . S
O135 Mg126 2.114 . S
O135 C138 1.252 . S
O136 Mg126 2.251 . S
O136 Mg129 2.079 . S
O136 C138 1.273 . S
C137 O133 1.246 . S
C137 O134 1.259 . S
C138 O135 1.252 . S
C138 O136 1.273 . S
O139 Mg126 2.010 . S
O139 C131 1.249 . S
Mg140 O141 2.028 . S
Mg140 O147 1.986 . S
Mg140 O149 2.114 . S
Mg140 O150 2.251 . S
Mg140 O153 2.010 . S
O141 Mg140 2.028 . S
O141 C144 1.250 . S
O142 Mg143 2.028 . S
O142 C144 1.248 . S
Mg143 O142 2.028 . S
Mg143 O148 2.032 . S
Mg143 O150 2.079 . S
C144 O141 1.250 . S
C144 O142 1.248 . S
C145 O146 1.264 . S
C145 O153 1.249 . S
O146 C145 1.264 . S
O147 Mg140 1.986 . S
O147 C151 1.246 . S
O148 Mg143 2.032 . S
O148 C151 1.259 . S
O149 Mg140 2.114 . S
O149 C152 1.252 . S
O150 Mg140 2.251 . S
O150 Mg143 2.079 . S
O150 C152 1.273 . S
C151 O147 1.246 . S
C151 O148 1.259 . S
C152 O149 1.252 . S
C152 O150 1.273 . S
O153 Mg140 2.010 . S
O153 C145 1.249 . S
Mg154 O155 2.028 . S
Mg154 O161 1.986 . S
Mg154 O163 2.114 . S
Mg154 O164 2.251 . S
Mg154 O167 2.010 . S
O155 Mg154 2.028 . S
O155 C158 1.250 . S
O156 Mg157 2.028 . S
O156 C158 1.248 . S
Mg157 O156 2.028 . S
Mg157 O162 2.032 . S
Mg157 O164 2.079 . S
C158 O155 1.250 . S
C158 O156 1.248 . S
C159 O160 1.264 . S
C159 O167 1.249 . S
O160 C159 1.264 . S
O161 Mg154 1.986 . S
O161 C165 1.246 . S
O162 Mg157 2.032 . S
O162 C165 1.259 . S
O163 Mg154 2.114 . S
O163 C166 1.252 . S
O164 Mg154 2.251 . S
O164 Mg157 2.079 . S
O164 C166 1.273 . S
C165 O161 1.246 . S
C165 O162 1.259 . S
C166 O163 1.252 . S
C166 O164 1.273 . S
O167 Mg154 2.010 . S
O167 C159 1.249 . S
Mg168 O169 2.028 . S
Mg168 O175 1.986 . S
Mg168 O177 2.114 . S
Mg168 O178 2.251 . S
Mg168 O181 2.010 . S
O169 Mg168 2.028 . S
O169 C172 1.250 . S
O170 Mg171 2.028 . S
O170 C172 1.248 . S
Mg171 O170 2.028 . S
Mg171 O176 2.032 . S
Mg171 O178 2.079 . S
C172 O169 1.250 . S
C172 O170 1.248 . S
C173 O174 1.264 . S
C173 O181 1.249 . S
O174 C173 1.264 . S
O175 Mg168 1.986 . S
O175 C179 1.246 . S
O176 Mg171 2.032 . S
O176 C179 1.259 . S
O177 Mg168 2.114 . S
O177 C180 1.252 . S
O178 Mg168 2.251 . S
O178 Mg171 2.079 . S
O178 C180 1.273 . S
C179 O175 1.246 . S
C179 O176 1.259 . S
C180 O177 1.252 . S
C180 O178 1.273 . S
O181 Mg168 2.010 . S
O181 C173 1.249 . S
Mg182 O183 2.028 . S
Mg182 O189 1.986 . S
Mg182 O191 2.114 . S
Mg182 O192 2.251 . S
Mg182 O195 2.010 . S
O183 Mg182 2.028 . S
O183 C186 1.250 . S
O184 Mg185 2.028 . S
O184 C186 1.248 . S
Mg185 O184 2.028 . S
Mg185 O190 2.032 . S
Mg185 O192 2.079 . S
C186 O183 1.250 . S
C186 O184 1.248 . S
C187 O188 1.264 . S
C187 O195 1.249 . S
O188 C187 1.264 . S
O189 Mg182 1.986 . S
O189 C193 1.246 . S
O190 Mg185 2.032 . S
O190 C193 1.259 . S
O191 Mg182 2.114 . S
O191 C194 1.252 . S
O192 Mg182 2.251 . S
O192 Mg185 2.079 . S
O192 C194 1.273 . S
C193 O189 1.246 . S
C193 O190 1.259 . S
C194 O191 1.252 . S
C194 O192 1.273 . S
O195 Mg182 2.010 . S
O195 C187 1.249 . S
Mg196 O197 2.028 . S
Mg196 O203 1.986 . S
Mg196 O205 2.114 . S
Mg196 O206 2.251 . S
Mg196 O209 2.010 . S
O197 Mg196 2.028 . S
O197 C200 1.250 . S
O198 Mg199 2.028 . S
O198 C200 1.248 . S
Mg199 O198 2.028 . S
Mg199 O204 2.032 . S
Mg199 O206 2.079 . S
C200 O197 1.250 . S
C200 O198 1.248 . S
C201 O202 1.264 . S
C201 O209 1.249 . S
O202 C201 1.264 . S
O203 Mg196 1.986 . S
O203 C207 1.246 . S
O204 Mg199 2.032 . S
O204 C207 1.259 . S
O205 Mg196 2.114 . S
O205 C208 1.252 . S
O206 Mg196 2.251 . S
O206 Mg199 2.079 . S
O206 C208 1.273 . S
C207 O203 1.246 . S
C207 O204 1.259 . S
C208 O205 1.252 . S
C208 O206 1.273 . S
O209 Mg196 2.010 . S
O209 C201 1.249 . S
Mg210 O211 2.028 . S
Mg210 O217 1.986 . S
Mg210 O219 2.114 . S
Mg210 O220 2.251 . S
Mg210 O223 2.010 . S
O211 Mg210 2.028 . S
O211 C214 1.250 . S
O212 Mg213 2.028 . S
O212 C214 1.248 . S
Mg213 O212 2.028 . S
Mg213 O218 2.032 . S
Mg213 O220 2.079 . S
C214 O211 1.250 . S
C214 O212 1.248 . S
C215 O216 1.264 . S
C215 O223 1.249 . S
O216 C215 1.264 . S
O217 Mg210 1.986 . S
O217 C221 1.246 . S
O218 Mg213 2.032 . S
O218 C221 1.259 . S
O219 Mg210 2.114 . S
O219 C222 1.252 . S
O220 Mg210 2.251 . S
O220 Mg213 2.079 . S
O220 C222 1.273 . S
C221 O217 1.246 . S
C221 O218 1.259 . S
C222 O219 1.252 . S
C222 O220 1.273 . S
O223 Mg210 2.010 . S
O223 C215 1.249 . S
Mg224 O225 2.028 . S
Mg224 O231 1.986 . S
Mg224 O233 2.114 . S
Mg224 O234 2.251 . S
Mg224 O237 2.010 . S
O225 Mg224 2.028 . S
O225 C228 1.250 . S
O226 Mg227 2.028 . S
O226 C228 1.248 . S
Mg227 O226 2.028 . S
Mg227 O232 2.032 . S
Mg227 O234 2.079 . S
C228 O225 1.250 . S
C228 O226 1.248 . S
C229 O230 1.264 . S
C229 O237 1.249 . S
O230 C229 1.264 . S
O231 Mg224 1.986 . S
O231 C235 1.246 . S
O232 Mg227 2.032 . S
O232 C235 1.259 . S
O233 Mg224 2.114 . S
O233 C236 1.252 . S
O234 Mg224 2.251 . S
O234 Mg227 2.079 . S
O234 C236 1.273 . S
C235 O231 1.246 . S
C235 O232 1.259 . S
C236 O233 1.252 . S
C236 O234 1.273 . S
O237 Mg224 2.010 . S
O237 C229 1.249 . S
Mg238 O239 2.028 . S
Mg238 O245 1.986 . S
Mg238 O247 2.114 . S
Mg238 O248 2.251 . S
Mg238 O251 2.010 . S
O239 Mg238 2.028 . S
O239 C242 1.250 . S
O240 Mg241 2.028 . S
O240 C242 1.248 . S
Mg241 O240 2.028 . S
Mg241 O246 2.032 . S
Mg241 O248 2.079 . S
C242 O239 1.250 . S
C242 O240 1.248 . S
C243 O244 1.264 . S
C243 O251 1.249 . S
O244 C243 1.264 . S
O245 Mg238 1.986 . S
O245 C249 1.246 . S
O246 Mg241 2.032 . S
O246 C249 1.259 . S
O247 Mg238 2.114 . S
O247 C250 1.252 . S
O248 Mg238 2.251 . S
O248 Mg241 2.079 . S
O248 C250 1.273 . S
C249 O245 1.246 . S
C249 O246 1.259 . S
C250 O247 1.252 . S
C250 O248 1.273 . S
O251 Mg238 2.010 . S
O251 C243 1.249 . S
Mg252 O253 2.028 . S
Mg252 O259 1.986 . S
Mg252 O261 2.114 . S
Mg252 O262 2.251 . S
Mg252 O265 2.010 . S
O253 Mg252 2.028 . S
O253 C256 1.250 . S
O254 Mg255 2.028 . S
O254 C256 1.248 . S
Mg255 O254 2.028 . S
Mg255 O260 2.032 . S
Mg255 O262 2.079 . S
C256 O253 1.250 . S
C256 O254 1.248 . S
C257 O258 1.264 . S
C257 O265 1.249 . S
O258 C257 1.264 . S
O259 Mg252 1.986 . S
O259 C263 1.246 . S
O260 Mg255 2.032 . S
O260 C263 1.259 . S
O261 Mg252 2.114 . S
O261 C264 1.252 . S
O262 Mg252 2.251 . S
O262 Mg255 2.079 . S
O262 C264 1.273 . S
C263 O259 1.246 . S
C263 O260 1.259 . S
C264 O261 1.252 . S
C264 O262 1.273 . S
O265 Mg252 2.010 . S
O265 C257 1.249 . S
Mg266 O267 2.028 . S
Mg266 O273 1.986 . S
Mg266 O275 2.114 . S
Mg266 O276 2.251 . S
Mg266 O279 2.010 . S
O267 Mg266 2.028 . S
O267 C270 1.250 . S
O268 Mg269 2.028 . S
O268 C270 1.248 . S
Mg269 O268 2.028 . S
Mg269 O274 2.032 . S
Mg269 O276 2.079 . S
C270 O267 1.250 . S
C270 O268 1.248 . S
C271 O272 1.264 . S
C271 O279 1.249 . S
O272 C271 1.264 . S
O273 Mg266 1.986 . S
O273 C277 1.246 . S
O274 Mg269 2.032 . S
O274 C277 1.259 . S
O275 Mg266 2.114 . S
O275 C278 1.252 . S
O276 Mg266 2.251 . S
O276 Mg269 2.079 . S
O276 C278 1.273 . S
C277 O273 1.246 . S
C277 O274 1.259 . S
C278 O275 1.252 . S
C278 O276 1.273 . S
O279 Mg266 2.010 . S
O279 C271 1.249 . S
Mg280 O281 2.028 . S
Mg280 O287 1.986 . S
Mg280 O289 2.114 . S
Mg280 O290 2.251 . S
Mg280 O293 2.010 . S
O281 Mg280 2.028 . S
O281 C284 1.250 . S
O282 Mg283 2.028 . S
O282 C284 1.248 . S
Mg283 O282 2.028 . S
Mg283 O288 2.032 . S
Mg283 O290 2.079 . S
C284 O281 1.250 . S
C284 O282 1.248 . S
C285 O286 1.264 . S
C285 O293 1.249 . S
O286 C285 1.264 . S
O287 Mg280 1.986 . S
O287 C291 1.246 . S
O288 Mg283 2.032 . S
O288 C291 1.259 . S
O289 Mg280 2.114 . S
O289 C292 1.252 . S
O290 Mg280 2.251 . S
O290 Mg283 2.079 . S
O290 C292 1.273 . S
C291 O287 1.246 . S
C291 O288 1.259 . S
C292 O289 1.252 . S
C292 O290 1.273 . S
O293 Mg280 2.010 . S
O293 C285 1.249 . S
Mg294 O295 2.028 1_554 S
Mg294 O301 1.986 . S
Mg294 O303 2.114 . S
Mg294 O304 2.251 . S
Mg294 O307 2.010 . S
O295 Mg294 2.028 1_556 S
O295 C298 1.250 . S
O296 Mg297 2.028 1_556 S
O296 C298 1.248 . S
Mg297 O296 2.028 1_554 S
Mg297 O302 2.032 . S
Mg297 O304 2.079 . S
C298 O295 1.250 . S
C298 O296 1.248 . S
C299 O300 1.264 1_556 S
C299 O307 1.249 1_556 S
O300 C299 1.264 1_554 S
O301 Mg294 1.986 . S
O301 C305 1.246 . S
O302 Mg297 2.032 . S
O302 C305 1.259 . S
O303 Mg294 2.114 . S
O303 C306 1.252 . S
O304 Mg294 2.251 . S
O304 Mg297 2.079 . S
O304 C306 1.273 . S
C305 O301 1.246 . S
C305 O302 1.259 . S
C306 O303 1.252 . S
C306 O304 1.273 . S
O307 Mg294 2.010 . S
O307 C299 1.249 1_554 S
Mg308 O309 2.028 1_554 S
Mg308 O315 1.986 . S
Mg308 O317 2.114 . S
Mg308 O318 2.251 . S
Mg308 O321 2.010 . S
O309 Mg308 2.028 1_556 S
O309 C312 1.250 . S
O310 Mg311 2.028 1_556 S
O310 C312 1.248 . S
Mg311 O310 2.028 1_554 S
Mg311 O316 2.032 . S
Mg311 O318 2.079 . S
C312 O309 1.250 . S
C312 O310 1.248 . S
C313 O314 1.264 . S
C313 O321 1.249 . S
O314 C313 1.264 . S
O315 Mg308 1.986 . S
O315 C319 1.246 . S
O316 Mg311 2.032 . S
O316 C319 1.259 . S
O317 Mg308 2.114 . S
O317 C320 1.252 . S
O318 Mg308 2.251 . S
O318 Mg311 2.079 . S
O318 C320 1.273 . S
C319 O315 1.246 . S
C319 O316 1.259 . S
C320 O317 1.252 . S
C320 O318 1.273 . S
O321 Mg308 2.010 . S
O321 C313 1.249 . S
Mg322 O323 2.028 1_554 S
Mg322 O329 1.986 . S
Mg322 O331 2.114 . S
Mg322 O332 2.251 . S
Mg322 O335 2.010 . S
O323 Mg322 2.028 1_556 S
O323 C326 1.250 . S
O324 Mg325 2.028 1_556 S
O324 C326 1.248 . S
Mg325 O324 2.028 1_554 S
Mg325 O330 2.032 . S
Mg325 O332 2.079 . S
C326 O323 1.250 . S
C326 O324 1.248 . S
C327 O328 1.264 . S
C327 O335 1.249 . S
O328 C327 1.264 . S
O329 Mg322 1.986 . S
O329 C333 1.246 . S
O330 Mg325 2.032 . S
O330 C333 1.259 . S
O331 Mg322 2.114 . S
O331 C334 1.252 . S
O332 Mg322 2.251 . S
O332 Mg325 2.079 . S
O332 C334 1.273 . S
C333 O329 1.246 . S
C333 O330 1.259 . S
C334 O331 1.252 . S
C334 O332 1.273 . S
O335 Mg322 2.010 . S
O335 C327 1.249 . S
Mg336 O337 2.028 . S
Mg336 O343 1.986 . S
Mg336 O345 2.114 . S
Mg336 O346 2.251 . S
Mg336 O349 2.010 . S
O337 Mg336 2.028 . S
O337 C340 1.250 . S
O338 Mg339 2.028 . S
O338 C340 1.248 . S
Mg339 O338 2.028 . S
Mg339 O344 2.032 . S
Mg339 O346 2.079 . S
C340 O337 1.250 . S
C340 O338 1.248 . S
C341 O342 1.264 . S
C341 O349 1.249 . S
O342 C341 1.264 . S
O343 Mg336 1.986 . S
O343 C347 1.246 . S
O344 Mg339 2.032 . S
O344 C347 1.259 . S
O345 Mg336 2.114 . S
O345 C348 1.252 . S
O346 Mg336 2.251 . S
O346 Mg339 2.079 . S
O346 C348 1.273 . S
C347 O343 1.246 . S
C347 O344 1.259 . S
C348 O345 1.252 . S
C348 O346 1.273 . S
O349 Mg336 2.010 . S
O349 C341 1.249 . S
Mg350 O351 2.028 . S
Mg350 O357 1.986 . S
Mg350 O359 2.114 . S
Mg350 O360 2.251 . S
Mg350 O363 2.010 . S
O351 Mg350 2.028 . S
O351 C354 1.250 . S
O352 Mg353 2.028 . S
O352 C354 1.248 . S
Mg353 O352 2.028 . S
Mg353 O358 2.032 . S
Mg353 O360 2.079 . S
C354 O351 1.250 . S
C354 O352 1.248 . S
C355 O356 1.264 . S
C355 O363 1.249 . S
O356 C355 1.264 . S
O357 Mg350 1.986 . S
O357 C361 1.246 . S
O358 Mg353 2.032 . S
O358 C361 1.259 . S
O359 Mg350 2.114 . S
O359 C362 1.252 . S
O360 Mg350 2.251 . S
O360 Mg353 2.079 . S
O360 C362 1.273 . S
C361 O357 1.246 . S
C361 O358 1.259 . S
C362 O359 1.252 . S
C362 O360 1.273 . S
O363 Mg350 2.010 . S
O363 C355 1.249 . S
Mg364 O365 2.028 . S
Mg364 O371 1.986 . S
Mg364 O373 2.114 . S
Mg364 O374 2.251 . S
Mg364 O377 2.010 . S
O365 Mg364 2.028 . S
O365 C368 1.250 . S
O366 Mg367 2.028 . S
O366 C368 1.248 . S
Mg367 O366 2.028 . S
Mg367 O372 2.032 . S
Mg367 O374 2.079 . S
C368 O365 1.250 . S
C368 O366 1.248 . S
C369 O370 1.264 . S
C369 O377 1.249 . S
O370 C369 1.264 . S
O371 Mg364 1.986 . S
O371 C375 1.246 . S
O372 Mg367 2.032 . S
O372 C375 1.259 . S
O373 Mg364 2.114 . S
O373 C376 1.252 . S
O374 Mg364 2.251 . S
O374 Mg367 2.079 . S
O374 C376 1.273 . S
C375 O371 1.246 . S
C375 O372 1.259 . S
C376 O373 1.252 . S
C376 O374 1.273 . S
O377 Mg364 2.010 . S
O377 C369 1.249 . S
Mg378 O379 2.028 . S
Mg378 O385 1.986 . S
Mg378 O387 2.114 1_556 S
Mg378 O388 2.251 1_556 S
Mg378 O391 2.010 . S
O379 Mg378 2.028 . S
O379 C382 1.250 1_556 S
O380 Mg381 2.028 . S
O380 C382 1.248 . S
Mg381 O380 2.028 . S
Mg381 O386 2.032 1_554 S
Mg381 O388 2.079 . S
C382 O379 1.250 1_554 S
C382 O380 1.248 . S
C383 O384 1.264 . S
C383 O391 1.249 . S
O384 C383 1.264 . S
O385 Mg378 1.986 . S
O385 C389 1.246 . S
O386 Mg381 2.032 1_556 S
O386 C389 1.259 . S
O387 Mg378 2.114 1_554 S
O387 C390 1.252 . S
O388 Mg378 2.251 1_554 S
O388 Mg381 2.079 . S
O388 C390 1.273 . S
C389 O385 1.246 . S
C389 O386 1.259 . S
C390 O387 1.252 . S
C390 O388 1.273 . S
O391 Mg378 2.010 . S
O391 C383 1.249 . S
Mg392 O393 2.028 1_556 S
Mg392 O399 1.986 1_556 S
Mg392 O401 2.114 . S
Mg392 O402 2.251 . S
Mg392 O405 2.010 1_556 S
O393 Mg392 2.028 1_554 S
O393 C396 1.250 1_554 S
O394 Mg395 2.028 . S
O394 C396 1.248 . S
Mg395 O394 2.028 . S
Mg395 O400 2.032 . S
Mg395 O402 2.079 . S
C396 O393 1.250 1_556 S
C396 O394 1.248 . S
C397 O398 1.264 . S
C397 O405 1.249 . S
O398 C397 1.264 . S
O399 Mg392 1.986 1_554 S
O399 C403 1.246 1_554 S
O400 Mg395 2.032 . S
O400 C403 1.259 . S
O401 Mg392 2.114 . S
O401 C404 1.252 . S
O402 Mg392 2.251 . S
O402 Mg395 2.079 . S
O402 C404 1.273 . S
C403 O399 1.246 1_556 S
C403 O400 1.259 . S
C404 O401 1.252 . S
C404 O402 1.273 . S
O405 Mg392 2.010 1_554 S
O405 C397 1.249 . S
Mg406 O407 2.028 . S
Mg406 O413 1.986 . S
Mg406 O415 2.114 1_556 S
Mg406 O416 2.251 1_556 S
Mg406 O419 2.010 . S
O407 Mg406 2.028 . S
O407 C410 1.250 1_556 S
O408 Mg409 2.028 . S
O408 C410 1.248 . S
Mg409 O408 2.028 . S
Mg409 O414 2.032 1_554 S
Mg409 O416 2.079 . S
C410 O407 1.250 1_554 S
C410 O408 1.248 . S
C411 O412 1.264 . S
C411 O419 1.249 . S
O412 C411 1.264 . S
O413 Mg406 1.986 . S
O413 C417 1.246 . S
O414 Mg409 2.032 1_556 S
O414 C417 1.259 . S
O415 Mg406 2.114 1_554 S
O415 C418 1.252 . S
O416 Mg406 2.251 1_554 S
O416 Mg409 2.079 . S
O416 C418 1.273 . S
C417 O413 1.246 . S
C417 O414 1.259 . S
C418 O415 1.252 . S
C418 O416 1.273 . S
O419 Mg406 2.010 . S
O419 C411 1.249 . S
Mg420 O421 2.028 . S
Mg420 O427 1.986 . S
Mg420 O429 2.114 . S
Mg420 O430 2.251 . S
Mg420 O433 2.010 . S
O421 Mg420 2.028 . S
O421 C424 1.250 . S
O422 Mg423 2.028 . S
O422 C424 1.248 . S
Mg423 O422 2.028 . S
Mg423 O428 2.032 . S
Mg423 O430 2.079 . S
C424 O421 1.250 . S
C424 O422 1.248 . S
C425 O426 1.264 . S
C425 O433 1.249 . S
O426 C425 1.264 . S
O427 Mg420 1.986 . S
O427 C431 1.246 . S
O428 Mg423 2.032 . S
O428 C431 1.259 . S
O429 Mg420 2.114 . S
O429 C432 1.252 . S
O430 Mg420 2.251 . S
O430 Mg423 2.079 . S
O430 C432 1.273 . S
C431 O427 1.246 . S
C431 O428 1.259 . S
C432 O429 1.252 . S
C432 O430 1.273 . S
O433 Mg420 2.010 . S
O433 C425 1.249 . S
Mg434 O435 2.028 . S
Mg434 O441 1.986 . S
Mg434 O443 2.114 . S
Mg434 O444 2.251 . S
Mg434 O447 2.010 . S
O435 Mg434 2.028 . S
O435 C438 1.250 . S
O436 Mg437 2.028 . S
O436 C438 1.248 . S
Mg437 O436 2.028 . S
Mg437 O442 2.032 . S
Mg437 O444 2.079 . S
C438 O435 1.250 . S
C438 O436 1.248 . S
C439 O440 1.264 . S
C439 O447 1.249 . S
O440 C439 1.264 . S
O441 Mg434 1.986 . S
O441 C445 1.246 . S
O442 Mg437 2.032 . S
O442 C445 1.259 . S
O443 Mg434 2.114 . S
O443 C446 1.252 . S
O444 Mg434 2.251 . S
O444 Mg437 2.079 . S
O444 C446 1.273 . S
C445 O441 1.246 . S
C445 O442 1.259 . S
C446 O443 1.252 . S
C446 O444 1.273 . S
O447 Mg434 2.010 . S
O447 C439 1.249 . S
Mg448 O449 2.028 . S
Mg448 O455 1.986 . S
Mg448 O457 2.114 . S
Mg448 O458 2.251 . S
Mg448 O461 2.010 . S
O449 Mg448 2.028 . S
O449 C452 1.250 . S
O450 Mg451 2.028 . S
O450 C452 1.248 . S
Mg451 O450 2.028 . S
Mg451 O456 2.032 . S
Mg451 O458 2.079 . S
C452 O449 1.250 . S
C452 O450 1.248 . S
C453 O454 1.264 . S
C453 O461 1.249 . S
O454 C453 1.264 . S
O455 Mg448 1.986 . S
O455 C459 1.246 . S
O456 Mg451 2.032 . S
O456 C459 1.259 . S
O457 Mg448 2.114 . S
O457 C460 1.252 . S
O458 Mg448 2.251 . S
O458 Mg451 2.079 . S
O458 C460 1.273 . S
C459 O455 1.246 . S
C459 O456 1.259 . S
C460 O457 1.252 . S
C460 O458 1.273 . S
O461 Mg448 2.010 . S
O461 C453 1.249 . S
Mg462 O463 2.028 . S
Mg462 O469 1.986 . S
Mg462 O471 2.114 . S
Mg462 O472 2.251 . S
Mg462 O475 2.010 . S
O463 Mg462 2.028 . S
O463 C466 1.250 . S
O464 Mg465 2.028 . S
O464 C466 1.248 . S
Mg465 O464 2.028 . S
Mg465 O470 2.032 . S
Mg465 O472 2.079 . S
C466 O463 1.250 . S
C466 O464 1.248 . S
C467 O468 1.264 . S
C467 O475 1.249 . S
O468 C467 1.264 . S
O469 Mg462 1.986 . S
O469 C473 1.246 . S
O470 Mg465 2.032 . S
O470 C473 1.259 . S
O471 Mg462 2.114 . S
O471 C474 1.252 . S
O472 Mg462 2.251 . S
O472 Mg465 2.079 . S
O472 C474 1.273 . S
C473 O469 1.246 . S
C473 O470 1.259 . S
C474 O471 1.252 . S
C474 O472 1.273 . S
O475 Mg462 2.010 . S
O475 C467 1.249 . S
Mg476 O477 2.028 . S
Mg476 O483 1.986 . S
Mg476 O485 2.114 . S
Mg476 O486 2.251 . S
Mg476 O489 2.010 . S
O477 Mg476 2.028 . S
O477 C480 1.250 . S
O478 Mg479 2.028 . S
O478 C480 1.248 . S
Mg479 O478 2.028 . S
Mg479 O484 2.032 . S
Mg479 O486 2.079 . S
C480 O477 1.250 . S
C480 O478 1.248 . S
C481 O482 1.264 . S
C481 O489 1.249 . S
O482 C481 1.264 . S
O483 Mg476 1.986 . S
O483 C487 1.246 . S
O484 Mg479 2.032 . S
O484 C487 1.259 . S
O485 Mg476 2.114 . S
O485 C488 1.252 . S
O486 Mg476 2.251 . S
O486 Mg479 2.079 . S
O486 C488 1.273 . S
C487 O483 1.246 . S
C487 O484 1.259 . S
C488 O485 1.252 . S
C488 O486 1.273 . S
O489 Mg476 2.010 . S
O489 C481 1.249 . S
Mg490 O491 2.028 . S
Mg490 O497 1.986 . S
Mg490 O499 2.114 . S
Mg490 O500 2.251 . S
Mg490 O503 2.010 . S
O491 Mg490 2.028 . S
O491 C494 1.250 . S
O492 Mg493 2.028 . S
O492 C494 1.248 . S
Mg493 O492 2.028 . S
Mg493 O498 2.032 . S
Mg493 O500 2.079 . S
C494 O491 1.250 . S
C494 O492 1.248 . S
C495 O496 1.264 . S
C495 O503 1.249 . S
O496 C495 1.264 . S
O497 Mg490 1.986 . S
O497 C501 1.246 . S
O498 Mg493 2.032 . S
O498 C501 1.259 . S
O499 Mg490 2.114 . S
O499 C502 1.252 . S
O500 Mg490 2.251 . S
O500 Mg493 2.079 . S
O500 C502 1.273 . S
C501 O497 1.246 . S
C501 O498 1.259 . S
C502 O499 1.252 . S
C502 O500 1.273 . S
O503 Mg490 2.010 . S
O503 C495 1.249 . S
H504 C510 0.930 . S
H505 C513 0.930 . S
H506 C514 0.930 . S
H507 C515 0.930 . S
H508 C518 0.930 . S
H509 C519 0.930 . S
C510 H504 0.930 . S
C510 C511 1.355 . S
C510 C512 1.415 . S
C511 C510 1.355 . S
C511 C513 1.419 . S
C512 C510 1.415 . S
C512 C517 1.425 . S
C512 C519 1.409 . S
C513 H505 0.930 . S
C513 C511 1.419 . S
C513 C514 1.362 . S
C514 H506 0.930 . S
C514 C513 1.362 . S
C514 C517 1.409 . S
C515 H507 0.930 . S
C515 C516 1.355 . S
C515 C517 1.415 . S
C516 C515 1.355 . S
C516 C518 1.419 . S
C517 C512 1.425 . S
C517 C514 1.409 . S
C517 C515 1.415 . S
C518 H508 0.930 . S
C518 C516 1.419 . S
C518 C519 1.362 . S
C519 H509 0.930 . S
C519 C512 1.409 . S
C519 C518 1.362 . S
H520 C526 0.930 . S
H521 C529 0.930 . S
H522 C530 0.930 . S
H523 C531 0.930 . S
H524 C534 0.930 . S
H525 C535 0.930 . S
C526 H520 0.930 . S
C526 C527 1.355 . S
C526 C528 1.415 . S
C527 C526 1.355 . S
C527 C529 1.419 . S
C528 C526 1.415 . S
C528 C533 1.425 1_545 S
C528 C535 1.409 . S
C529 H521 0.930 . S
C529 C527 1.419 . S
C529 C530 1.362 1_545 S
C530 H522 0.930 . S
C530 C529 1.362 1_565 S
C530 C533 1.409 . S
C531 H523 0.930 . S
C531 C532 1.355 . S
C531 C533 1.415 . S
C532 C531 1.355 . S
C532 C534 1.419 . S
C533 C528 1.425 1_565 S
C533 C530 1.409 . S
C533 C531 1.415 . S
C534 H524 0.930 . S
C534 C532 1.419 . S
C534 C535 1.362 1_565 S
C535 H525 0.930 . S
C535 C528 1.409 . S
C535 C534 1.362 1_545 S
H536 C542 0.930 . S
H537 C545 0.930 . S
H538 C546 0.930 . S
H539 C547 0.930 . S
H540 C550 0.930 . S
H541 C551 0.930 . S
C542 H536 0.930 . S
C542 C543 1.355 . S
C542 C544 1.415 . S
C543 C542 1.355 . S
C543 C545 1.419 . S
C544 C542 1.415 . S
C544 C549 1.445 1_655 S
C544 C551 1.409 1_655 S
C545 H537 0.930 . S
C545 C543 1.419 . S
C545 C546 1.362 . S
C546 H538 0.930 . S
C546 C545 1.362 . S
C546 C549 1.334 1_655 S
C547 H539 0.930 . S
C547 C548 1.355 . S
C547 C549 1.473 . S
C548 C547 1.355 . S
C548 C550 1.419 . S
C549 C544 1.445 1_455 S
C549 C546 1.334 1_455 S
C549 C547 1.473 . S
C550 H540 0.930 . S
C550 C548 1.419 . S
C550 C551 1.362 . S
C551 H541 0.930 . S
C551 C544 1.409 1_455 S
C551 C550 1.362 . S
H552 C558 0.930 . S
H553 C561 0.930 . S
H554 C562 0.930 . S
H555 C563 0.930 . S
H556 C566 0.930 . S
H557 C567 0.930 . S
C558 H552 0.930 . S
C558 C559 1.355 . S
C558 C560 1.415 . S
C559 C558 1.355 . S
C559 C561 1.419 . S
C560 C558 1.415 . S
C560 C565 1.425 . S
C560 C567 1.409 . S
C561 H553 0.930 . S
C561 C559 1.419 . S
C561 C562 1.362 . S
C562 H554 0.930 . S
C562 C561 1.362 . S
C562 C565 1.409 . S
C563 H555 0.930 . S
C563 C564 1.355 . S
C563 C565 1.415 . S
C564 C563 1.355 . S
C564 C566 1.419 . S
C565 C560 1.425 . S
C565 C562 1.409 . S
C565 C563 1.415 . S
C566 H556 0.930 . S
C566 C564 1.419 . S
C566 C567 1.362 . S
C567 H557 0.930 . S
C567 C560 1.409 . S
C567 C566 1.362 . S
H568 C574 0.930 . S
H569 C577 0.930 . S
H570 C578 0.930 . S
H571 C579 0.930 . S
H572 C582 0.930 . S
H573 C583 0.930 . S
C574 H568 0.930 . S
C574 C575 1.355 . S
C574 C576 1.408 1_545 S
C575 C574 1.355 . S
C575 C577 1.419 . S
C576 C574 1.408 1_565 S
C576 C581 1.429 . S
C576 C583 1.413 . S
C577 H569 0.930 . S
C577 C575 1.419 . S
C577 C578 1.362 . S
C578 H570 0.930 . S
C578 C577 1.362 . S
C578 C581 1.410 1_545 S
C579 H571 0.930 . S
C579 C580 1.355 . S
C579 C581 1.413 . S
C580 C579 1.355 . S
C580 C582 1.419 . S
C581 C576 1.429 . S
C581 C578 1.410 1_565 S
C581 C579 1.413 . S
C582 H572 0.930 . S
C582 C580 1.419 . S
C582 C583 1.362 . S
C583 H573 0.930 . S
C583 C576 1.413 . S
C583 C582 1.362 . S
H584 C590 0.930 . S
H585 C593 0.930 . S
H586 C594 0.919 1_655 S
H587 C595 0.930 . S
H588 C598 0.930 . S
H589 C599 0.930 1_455 S
C590 H584 0.930 . S
C590 C591 1.355 . S
C590 C592 1.415 . S
C591 C590 1.355 . S
C591 C593 1.419 . S
C592 C590 1.415 . S
C592 C597 1.425 1_455 S
C592 C599 1.409 1_455 S
C593 H585 0.930 . S
C593 C591 1.419 . S
C593 C594 1.374 . S
C594 H586 0.919 1_455 S
C594 C593 1.374 . S
C594 C597 1.408 1_455 S
C595 H587 0.930 . S
C595 C596 1.355 . S
C595 C597 1.415 . S
C596 C595 1.355 . S
C596 C598 1.419 . S
C597 C592 1.425 1_655 S
C597 C594 1.408 1_655 S
C597 C595 1.415 . S
C598 H588 0.930 . S
C598 C596 1.419 . S
C598 C599 1.362 . S
C599 H589 0.930 1_655 S
C599 C592 1.409 1_655 S
C599 C598 1.362 . S
H600 C606 0.930 . S
H601 C609 0.930 . S
H602 C610 0.930 . S
H603 C611 0.930 . S
H604 C614 0.930 . S
H605 C615 0.930 . S
C606 H600 0.930 . S
C606 C607 1.355 . S
C606 C608 1.415 . S
C607 C606 1.355 . S
C607 C609 1.419 . S
C608 C606 1.415 . S
C608 C613 1.425 . S
C608 C615 1.409 . S
C609 H601 0.930 . S
C609 C607 1.419 . S
C609 C610 1.362 . S
C610 H602 0.930 . S
C610 C609 1.362 . S
C610 C613 1.409 . S
C611 H603 0.930 . S
C611 C612 1.355 . S
C611 C613 1.415 . S
C612 C611 1.355 . S
C612 C614 1.419 . S
C613 C608 1.425 . S
C613 C610 1.409 . S
C613 C611 1.415 . S
C614 H604 0.930 . S
C614 C612 1.419 . S
C614 C615 1.362 . S
C615 H605 0.930 . S
C615 C608 1.409 . S
C615 C614 1.362 . S
H616 C622 0.930 . S
H617 C625 0.930 . S
H618 C626 0.930 . S
H619 C627 0.930 . S
H620 C630 0.930 . S
H621 C631 0.930 . S
C622 H616 0.930 . S
C622 C623 1.355 . S
C622 C624 1.415 . S
C623 C622 1.355 . S
C623 C625 1.419 . S
C624 C622 1.415 . S
C624 C629 1.425 . S
C624 C631 1.409 . S
C625 H617 0.930 . S
C625 C623 1.419 . S
C625 C626 1.362 . S
C626 H618 0.930 . S
C626 C625 1.362 . S
C626 C629 1.409 . S
C627 H619 0.930 . S
C627 C628 1.355 . S
C627 C629 1.415 . S
C628 C627 1.355 . S
C628 C630 1.419 . S
C629 C624 1.425 . S
C629 C626 1.409 . S
C629 C627 1.415 . S
C630 H620 0.930 . S
C630 C628 1.419 . S
C630 C631 1.362 . S
C631 H621 0.930 . S
C631 C624 1.409 . S
C631 C630 1.362 . S
H632 C638 0.930 . S
H633 C641 0.930 . S
H634 C642 0.930 . S
H635 C643 0.930 . S
H636 C646 0.930 . S
H637 C647 0.930 . S
C638 H632 0.930 . S
C638 C639 1.355 . S
C638 C640 1.415 . S
C639 C638 1.355 . S
C639 C641 1.419 . S
C640 C638 1.415 . S
C640 C645 1.425 . S
C640 C647 1.409 . S
C641 H633 0.930 . S
C641 C639 1.419 . S
C641 C642 1.362 . S
C642 H634 0.930 . S
C642 C641 1.362 . S
C642 C645 1.409 . S
C643 H635 0.930 . S
C643 C644 1.355 . S
C643 C645 1.415 . S
C644 C643 1.355 . S
C644 C646 1.419 . S
C645 C640 1.425 . S
C645 C642 1.409 . S
C645 C643 1.415 . S
C646 H636 0.930 . S
C646 C644 1.419 . S
C646 C647 1.362 . S
C647 H637 0.930 . S
C647 C640 1.409 . S
C647 C646 1.362 . S
H648 C654 0.930 . S
H649 C657 0.930 . S
H650 C658 0.930 . S
H651 C659 0.930 . S
H652 C662 0.930 . S
H653 C663 0.930 . S
C654 H648 0.930 . S
C654 C655 1.355 . S
C654 C656 1.415 . S
C655 C654 1.355 . S
C655 C657 1.419 . S
C656 C654 1.415 . S
C656 C661 1.425 . S
C656 C663 1.409 . S
C657 H649 0.930 . S
C657 C655 1.419 . S
C657 C658 1.362 . S
C658 H650 0.930 . S
C658 C657 1.362 . S
C658 C661 1.409 . S
C659 H651 0.930 . S
C659 C660 1.355 . S
C659 C661 1.415 . S
C660 C659 1.355 . S
C660 C662 1.419 . S
C661 C656 1.425 . S
C661 C658 1.409 . S
C661 C659 1.415 . S
C662 H652 0.930 . S
C662 C660 1.419 . S
C662 C663 1.362 . S
C663 H653 0.930 . S
C663 C656 1.409 . S
C663 C662 1.362 . S
H664 C670 0.930 . S
H665 C673 0.930 . S
H666 C674 0.930 . S
H667 C675 0.930 . S
H668 C678 0.930 . S
H669 C679 0.930 . S
C670 H664 0.930 . S
C670 C671 1.355 . S
C670 C672 1.415 . S
C671 C670 1.355 . S
C671 C673 1.419 . S
C672 C670 1.415 . S
C672 C677 1.425 . S
C672 C679 1.409 . S
C673 H665 0.930 . S
C673 C671 1.419 . S
C673 C674 1.362 . S
C674 H666 0.930 . S
C674 C673 1.362 . S
C674 C677 1.409 . S
C675 H667 0.930 . S
C675 C676 1.355 . S
C675 C677 1.415 . S
C676 C675 1.355 . S
C676 C678 1.419 . S
C677 C672 1.425 . S
C677 C674 1.409 . S
C677 C675 1.415 . S
C678 H668 0.930 . S
C678 C676 1.419 . S
C678 C679 1.362 . S
C679 H669 0.930 . S
C679 C672 1.409 . S
C679 C678 1.362 . S
H680 C686 0.930 . S
H681 C689 0.930 . S
H682 C690 0.930 . S
H683 C691 0.930 . S
H684 C694 0.930 . S
H685 C695 0.930 . S
C686 H680 0.930 . S
C686 C687 1.355 . S
C686 C688 1.415 . S
C687 C686 1.355 . S
C687 C689 1.419 . S
C688 C686 1.415 . S
C688 C693 1.425 . S
C688 C695 1.409 . S
C689 H681 0.930 . S
C689 C687 1.419 . S
C689 C690 1.362 . S
C690 H682 0.930 . S
C690 C689 1.362 . S
C690 C693 1.409 . S
C691 H683 0.930 . S
C691 C692 1.355 . S
C691 C693 1.415 . S
C692 C691 1.355 . S
C692 C694 1.419 . S
C693 C688 1.425 . S
C693 C690 1.409 . S
C693 C691 1.415 . S
C694 H684 0.930 . S
C694 C692 1.419 . S
C694 C695 1.362 . S
C695 H685 0.930 . S
C695 C688 1.409 . S
C695 C694 1.362 . S
H696 C702 0.930 . S
H697 C705 0.930 . S
H698 C706 0.930 . S
H699 C707 0.930 . S
H700 C710 0.930 . S
H701 C711 0.930 1_554 S
C702 H696 0.930 . S
C702 C703 1.355 . S
C702 C704 1.415 . S
C703 C702 1.355 . S
C703 C705 1.419 . S
C704 C702 1.415 . S
C704 C709 1.425 . S
C704 C711 1.409 . S
C705 H697 0.930 . S
C705 C703 1.419 . S
C705 C706 1.362 . S
C706 H698 0.930 . S
C706 C705 1.362 . S
C706 C709 1.409 . S
C707 H699 0.930 . S
C707 C708 1.355 . S
C707 C709 1.415 . S
C708 C707 1.355 . S
C708 C710 1.419 1_556 S
C709 C704 1.425 . S
C709 C706 1.409 . S
C709 C707 1.415 . S
C710 H700 0.930 . S
C710 C708 1.419 1_554 S
C710 C711 1.362 1_554 S
C711 H701 0.930 1_556 S
C711 C704 1.409 . S
C711 C710 1.362 1_556 S
H712 C718 0.930 . S
H713 C721 0.930 . S
H714 C722 0.930 . S
H715 C723 0.930 . S
H716 C726 0.930 . S
H717 C727 0.930 . S
C718 H712 0.930 . S
C718 C719 1.355 . S
C718 C720 1.415 . S
C719 C718 1.355 . S
C719 C721 1.419 . S
C720 C718 1.415 . S
C720 C725 1.425 . S
C720 C727 1.409 . S
C721 H713 0.930 . S
C721 C719 1.419 . S
C721 C722 1.362 . S
C722 H714 0.930 . S
C722 C721 1.362 . S
C722 C725 1.409 . S
C723 H715 0.930 . S
C723 C724 1.355 . S
C723 C725 1.415 . S
C724 C723 1.355 . S
C724 C726 1.419 . S
C725 C720 1.425 . S
C725 C722 1.409 . S
C725 C723 1.415 . S
C726 H716 0.930 . S
C726 C724 1.419 . S
C726 C727 1.362 . S
C727 H717 0.930 . S
C727 C720 1.409 . S
C727 C726 1.362 . S
H728 C734 0.930 . S
H729 C737 0.930 . S
H730 C738 0.930 . S
H731 C739 0.930 . S
H732 C742 0.930 . S
H733 C743 0.930 . S
C734 H728 0.930 . S
C734 C735 1.355 . S
C734 C736 1.415 . S
C735 C734 1.355 . S
C735 C737 1.419 . S
C736 C734 1.415 . S
C736 C741 1.425 . S
C736 C743 1.409 . S
C737 H729 0.930 . S
C737 C735 1.419 . S
C737 C738 1.362 . S
C738 H730 0.930 . S
C738 C737 1.362 . S
C738 C741 1.409 . S
C739 H731 0.930 . S
C739 C740 1.355 . S
C739 C741 1.415 . S
C740 C739 1.355 . S
C740 C742 1.419 . S
C741 C736 1.425 . S
C741 C738 1.409 . S
C741 C739 1.415 . S
C742 H732 0.930 . S
C742 C740 1.419 . S
C742 C743 1.362 . S
C743 H733 0.930 . S
C743 C736 1.409 . S
C743 C742 1.362 . S
H744 C750 0.930 . S
H745 C753 0.930 . S
H746 C754 0.930 . S
H747 C755 0.930 . S
H748 C758 0.930 . S
H749 C759 0.930 . S
C750 H744 0.930 . S
C750 C751 1.355 . S
C750 C752 1.415 . S
C751 C750 1.355 . S
C751 C753 1.419 . S
C752 C750 1.415 . S
C752 C757 1.425 . S
C752 C759 1.409 . S
C753 H745 0.930 . S
C753 C751 1.419 . S
C753 C754 1.362 . S
C754 H746 0.930 . S
C754 C753 1.362 . S
C754 C757 1.409 . S
C755 H747 0.930 . S
C755 C756 1.355 . S
C755 C757 1.415 . S
C756 C755 1.355 . S
C756 C758 1.419 . S
C757 C752 1.425 . S
C757 C754 1.409 . S
C757 C755 1.415 . S
C758 H748 0.930 . S
C758 C756 1.419 . S
C758 C759 1.362 . S
C759 H749 0.930 . S
C759 C752 1.409 . S
C759 C758 1.362 . S
H760 C766 0.930 . S
H761 C769 0.930 . S
H762 C770 0.930 . S
H763 C771 0.930 . S
H764 C774 0.930 . S
H765 C775 0.930 . S
C766 H760 0.930 . S
C766 C767 1.355 . S
C766 C768 1.415 . S
C767 C766 1.355 . S
C767 C769 1.419 . S
C768 C766 1.415 . S
C768 C773 1.425 . S
C768 C775 1.409 . S
C769 H761 0.930 . S
C769 C767 1.419 . S
C769 C770 1.362 . S
C770 H762 0.930 . S
C770 C769 1.362 . S
C770 C773 1.409 . S
C771 H763 0.930 . S
C771 C772 1.355 . S
C771 C773 1.415 . S
C772 C771 1.355 . S
C772 C774 1.419 . S
C773 C768 1.425 . S
C773 C770 1.409 . S
C773 C771 1.415 . S
C774 H764 0.930 . S
C774 C772 1.419 . S
C774 C775 1.362 . S
C775 H765 0.930 . S
C775 C768 1.409 . S
C775 C774 1.362 . S
H776 C782 0.930 . S
H777 C785 0.930 . S
H778 C786 0.930 . S
H779 C787 0.930 . S
H780 C790 0.930 . S
H781 C791 0.930 . S
C782 H776 0.930 . S
C782 C783 1.355 . S
C782 C784 1.415 . S
C783 C782 1.355 . S
C783 C785 1.419 . S
C784 C782 1.415 . S
C784 C789 1.425 . S
C784 C791 1.409 . S
C785 H777 0.930 . S
C785 C783 1.419 . S
C785 C786 1.362 . S
C786 H778 0.930 . S
C786 C785 1.362 . S
C786 C789 1.409 . S
C787 H779 0.930 . S
C787 C788 1.355 . S
C787 C789 1.415 . S
C788 C787 1.355 . S
C788 C790 1.419 . S
C789 C784 1.425 . S
C789 C786 1.409 . S
C789 C787 1.415 . S
C790 H780 0.930 . S
C790 C788 1.419 . S
C790 C791 1.362 . S
C791 H781 0.930 . S
C791 C784 1.409 . S
C791 C790 1.362 . S
H792 C798 0.930 . S
H793 C801 0.930 . S
H794 C802 0.930 . S
H795 C803 0.930 . S
H796 C806 0.930 . S
H797 C807 0.930 . S
C798 H792 0.930 . S
C798 C799 1.355 . S
C798 C800 1.415 . S
C799 C798 1.355 . S
C799 C801 1.419 . S
C800 C798 1.415 . S
C800 C805 1.425 . S
C800 C807 1.409 . S
C801 H793 0.930 . S
C801 C799 1.419 . S
C801 C802 1.362 . S
C802 H794 0.930 . S
C802 C801 1.362 . S
C802 C805 1.409 . S
C803 H795 0.930 . S
C803 C804 1.355 . S
C803 C805 1.415 1_554 S
C804 C803 1.355 . S
C804 C806 1.419 1_554 S
C805 C800 1.425 . S
C805 C802 1.409 . S
C805 C803 1.415 1_556 S
C806 H796 0.930 . S
C806 C804 1.419 1_556 S
C806 C807 1.362 . S
C807 H797 0.930 . S
C807 C800 1.409 . S
C807 C806 1.362 . S
H808 C814 0.930 1_554 S
H809 C817 0.930 . S
H810 C818 0.930 . S
H811 C819 0.930 . S
H812 C822 0.930 . S
H813 C823 0.930 . S
C814 H808 0.930 1_556 S
C814 C815 1.355 . S
C814 C816 1.415 . S
C815 C814 1.355 . S
C815 C817 1.419 . S
C816 C814 1.415 . S
C816 C821 1.425 . S
C816 C823 1.409 . S
C817 H809 0.930 . S
C817 C815 1.419 . S
C817 C818 1.362 . S
C818 H810 0.930 . S
C818 C817 1.362 . S
C818 C821 1.409 . S
C819 H811 0.930 . S
C819 C820 1.355 . S
C819 C821 1.415 . S
C820 C819 1.355 . S
C820 C822 1.419 . S
C821 C816 1.425 . S
C821 C818 1.409 . S
C821 C819 1.415 . S
C822 H812 0.930 . S
C822 C820 1.419 . S
C822 C823 1.362 . S
C823 H813 0.930 . S
C823 C816 1.409 . S
C823 C822 1.362 . S
H824 C830 0.930 . S
H825 C833 0.930 . S
H826 C834 0.930 . S
H827 C835 0.930 . S
H828 C838 0.930 . S
H829 C839 0.930 . S
C830 H824 0.930 . S
C830 C831 1.355 1_556 S
C830 C832 1.415 . S
C831 C830 1.355 1_554 S
C831 C833 1.419 . S
C832 C830 1.415 . S
C832 C837 1.425 . S
C832 C839 1.409 . S
C833 H825 0.930 . S
C833 C831 1.419 . S
C833 C834 1.362 1_554 S
C834 H826 0.930 . S
C834 C833 1.362 1_556 S
C834 C837 1.409 . S
C835 H827 0.930 . S
C835 C836 1.355 . S
C835 C837 1.415 . S
C836 C835 1.355 . S
C836 C838 1.419 . S
C837 C832 1.425 . S
C837 C834 1.409 . S
C837 C835 1.415 . S
C838 H828 0.930 . S
C838 C836 1.419 . S
C838 C839 1.362 . S
C839 H829 0.930 . S
C839 C832 1.409 . S
C839 C838 1.362 . S
H840 C846 0.930 . S
H841 C849 0.930 . S
H842 C850 0.930 . S
H843 C851 0.930 . S
H844 C854 0.930 . S
H845 C855 0.930 . S
C846 H840 0.930 . S
C846 C847 1.355 . S
C846 C848 1.415 . S
C847 C846 1.355 . S
C847 C849 1.419 . S
C848 C846 1.415 . S
C848 C853 1.425 . S
C848 C855 1.409 . S
C849 H841 0.930 . S
C849 C847 1.419 . S
C849 C850 1.362 . S
C850 H842 0.930 . S
C850 C849 1.362 . S
C850 C853 1.409 . S
C851 H843 0.930 . S
C851 C852 1.355 . S
C851 C853 1.415 . S
C852 C851 1.355 . S
C852 C854 1.419 . S
C853 C848 1.425 . S
C853 C850 1.409 . S
C853 C851 1.415 . S
C854 H844 0.930 . S
C854 C852 1.419 . S
C854 C855 1.362 . S
C855 H845 0.930 . S
C855 C848 1.409 . S
C855 C854 1.362 . S
H856 C862 0.930 . S
H857 C865 0.930 . S
H858 C866 0.930 . S
H859 C867 0.930 . S
H860 C870 0.930 . S
H861 C871 0.930 . S
C862 H856 0.930 . S
C862 C863 1.355 . S
C862 C864 1.415 . S
C863 C862 1.355 . S
C863 C865 1.419 . S
C864 C862 1.415 . S
C864 C869 1.425 . S
C864 C871 1.409 . S
C865 H857 0.930 . S
C865 C863 1.419 . S
C865 C866 1.362 . S
C866 H858 0.930 . S
C866 C865 1.362 . S
C866 C869 1.409 . S
C867 H859 0.930 . S
C867 C868 1.355 . S
C867 C869 1.415 . S
C868 C867 1.355 . S
C868 C870 1.419 . S
C869 C864 1.425 . S
C869 C866 1.409 . S
C869 C867 1.415 . S
C870 H860 0.930 . S
C870 C868 1.419 . S
C870 C871 1.362 . S
C871 H861 0.930 . S
C871 C864 1.409 . S
C871 C870 1.362 . S
H872 C878 0.930 . S
H873 C881 0.930 . S
H874 C882 0.930 . S
H875 C883 0.930 . S
H876 C886 0.930 . S
H877 C887 0.930 . S
C878 H872 0.930 . S
C878 C879 1.355 . S
C878 C880 1.415 . S
C879 C878 1.355 . S
C879 C881 1.419 . S
C880 C878 1.415 . S
C880 C885 1.425 . S
C880 C887 1.409 . S
C881 H873 0.930 . S
C881 C879 1.419 . S
C881 C882 1.362 . S
C882 H874 0.930 . S
C882 C881 1.362 . S
C882 C885 1.409 . S
C883 H875 0.930 . S
C883 C884 1.355 . S
C883 C885 1.415 . S
C884 C883 1.355 . S
C884 C886 1.419 . S
C885 C880 1.425 . S
C885 C882 1.409 . S
C885 C883 1.415 . S
C886 H876 0.930 . S
C886 C884 1.419 . S
C886 C887 1.362 . S
C887 H877 0.930 . S
C887 C880 1.409 . S
C887 C886 1.362 . S
H888 C894 0.930 . S
H889 C897 0.930 . S
H890 C898 0.930 . S
H891 C899 0.930 . S
H892 C902 0.930 . S
H893 C903 0.930 . S
C894 H888 0.930 . S
C894 C895 1.355 1_554 S
C894 C896 1.415 . S
C895 C894 1.355 1_556 S
C895 C897 1.419 . S
C896 C894 1.415 . S
C896 C901 1.425 . S
C896 C903 1.409 . S
C897 H889 0.930 . S
C897 C895 1.419 . S
C897 C898 1.362 . S
C898 H890 0.930 . S
C898 C897 1.362 . S
C898 C901 1.409 1_556 S
C899 H891 0.930 . S
C899 C900 1.355 . S
C899 C901 1.415 . S
C900 C899 1.355 . S
C900 C902 1.419 . S
C901 C896 1.425 . S
C901 C898 1.409 1_554 S
C901 C899 1.415 . S
C902 H892 0.930 . S
C902 C900 1.419 . S
C902 C903 1.362 . S
C903 H893 0.930 . S
C903 C896 1.409 . S
C903 C902 1.362 . S
H904 C910 0.930 . S
H905 C913 0.930 1_556 S
H906 C914 0.930 . S
H907 C915 0.930 . S
H908 C918 0.930 . S
H909 C919 0.930 . S
C910 H904 0.930 . S
C910 C911 1.355 . S
C910 C912 1.415 1_556 S
C911 C910 1.355 . S
C911 C913 1.419 1_556 S
C912 C910 1.415 1_554 S
C912 C917 1.425 . S
C912 C919 1.409 . S
C913 H905 0.930 1_554 S
C913 C911 1.419 1_554 S
C913 C914 1.362 . S
C914 H906 0.930 . S
C914 C913 1.362 . S
C914 C917 1.409 . S
C915 H907 0.930 . S
C915 C916 1.355 . S
C915 C917 1.415 . S
C916 C915 1.355 . S
C916 C918 1.419 . S
C917 C912 1.425 . S
C917 C914 1.409 . S
C917 C915 1.415 . S
C918 H908 0.930 . S
C918 C916 1.419 . S
C918 C919 1.362 . S
C919 H909 0.930 . S
C919 C912 1.409 . S
C919 C918 1.362 . S
H920 C926 0.930 . S
H921 C929 0.930 . S
H922 C930 0.930 . S
H923 C931 0.930 . S
H924 C934 0.930 . S
H925 C935 0.930 . S
C926 H920 0.930 . S
C926 C927 1.355 . S
C926 C928 1.415 . S
C927 C926 1.355 . S
C927 C929 1.419 . S
C928 C926 1.415 . S
C928 C933 1.425 . S
C928 C935 1.409 . S
C929 H921 0.930 . S
C929 C927 1.419 . S
C929 C930 1.362 . S
C930 H922 0.930 . S
C930 C929 1.362 . S
C930 C933 1.409 . S
C931 H923 0.930 . S
C931 C932 1.355 1_554 S
C931 C933 1.415 . S
C932 C931 1.355 1_556 S
C932 C934 1.419 . S
C933 C928 1.425 . S
C933 C930 1.409 . S
C933 C931 1.415 . S
C934 H924 0.930 . S
C934 C932 1.419 . S
C934 C935 1.362 1_556 S
C935 H925 0.930 . S
C935 C928 1.409 . S
C935 C934 1.362 1_554 S
H936 C942 0.930 . S
H937 C945 0.930 . S
H938 C946 0.930 . S
H939 C947 0.930 . S
H940 C950 0.930 . S
H941 C951 0.930 . S
C942 H936 0.930 . S
C942 C943 1.355 . S
C942 C944 1.415 . S
C943 C942 1.355 . S
C943 C945 1.419 . S
C944 C942 1.415 . S
C944 C949 1.425 . S
C944 C951 1.409 . S
C945 H937 0.930 . S
C945 C943 1.419 . S
C945 C946 1.362 . S
C946 H938 0.930 . S
C946 C945 1.362 . S
C946 C949 1.409 . S
C947 H939 0.930 . S
C947 C948 1.355 . S
C947 C949 1.415 . S
C948 C947 1.355 . S
C948 C950 1.419 . S
C949 C944 1.425 . S
C949 C946 1.409 . S
C949 C947 1.415 . S
C950 H940 0.930 . S
C950 C948 1.419 . S
C950 C951 1.362 . S
C951 H941 0.930 . S
C951 C944 1.409 . S
C951 C950 1.362 . S
H952 C958 0.930 . S
H953 C961 0.930 . S
H954 C962 0.930 . S
H955 C963 0.930 . S
H956 C966 0.930 . S
H957 C967 0.930 . S
C958 H952 0.930 . S
C958 C959 1.355 . S
C958 C960 1.415 . S
C959 C958 1.355 . S
C959 C961 1.419 . S
C960 C958 1.415 . S
C960 C965 1.425 . S
C960 C967 1.409 . S
C961 H953 0.930 . S
C961 C959 1.419 . S
C961 C962 1.362 . S
C962 H954 0.930 . S
C962 C961 1.362 . S
C962 C965 1.409 . S
C963 H955 0.930 . S
C963 C964 1.355 . S
C963 C965 1.415 . S
C964 C963 1.355 . S
C964 C966 1.419 . S
C965 C960 1.425 . S
C965 C962 1.409 . S
C965 C963 1.415 . S
C966 H956 0.930 . S
C966 C964 1.419 . S
C966 C967 1.362 . S
C967 H957 0.930 . S
C967 C960 1.409 . S
C967 C966 1.362 . S
H968 C974 0.930 . S
H969 C977 0.930 . S
H970 C978 0.930 . S
H971 C979 0.930 . S
H972 C982 0.930 . S
H973 C983 0.930 . S
C974 H968 0.930 . S
C974 C975 1.355 . S
C974 C976 1.415 . S
C975 C974 1.355 . S
C975 C977 1.419 . S
C976 C974 1.415 . S
C976 C981 1.425 . S
C976 C983 1.409 . S
C977 H969 0.930 . S
C977 C975 1.419 . S
C977 C978 1.362 . S
C978 H970 0.930 . S
C978 C977 1.362 . S
C978 C981 1.409 . S
C979 H971 0.930 . S
C979 C980 1.355 . S
C979 C981 1.415 . S
C980 C979 1.355 . S
C980 C982 1.419 . S
C981 C976 1.425 . S
C981 C978 1.409 . S
C981 C979 1.415 . S
C982 H972 0.930 . S
C982 C980 1.419 . S
C982 C983 1.362 . S
C983 H973 0.930 . S
C983 C976 1.409 . S
C983 C982 1.362 . S
H984 C990 0.930 . S
H985 C993 0.930 . S
H986 C994 0.930 . S
H987 C995 0.930 . S
H988 C998 0.930 . S
H989 C999 0.930 . S
C990 H984 0.930 . S
C990 C991 1.355 . S
C990 C992 1.415 . S
C991 C990 1.355 . S
C991 C993 1.419 . S
C992 C990 1.415 . S
C992 C997 1.425 . S
C992 C999 1.409 . S
C993 H985 0.930 . S
C993 C991 1.419 . S
C993 C994 1.362 . S
C994 H986 0.930 . S
C994 C993 1.362 . S
C994 C997 1.409 . S
C995 H987 0.930 . S
C995 C996 1.355 . S
C995 C997 1.415 . S
C996 C995 1.355 . S
C996 C998 1.419 . S
C997 C992 1.425 . S
C997 C994 1.409 . S
C997 C995 1.415 . S
C998 H988 0.930 . S
C998 C996 1.419 . S
C998 C999 1.362 . S
C999 H989 0.930 . S
C999 C992 1.409 . S
C999 C998 1.362 . S
H1000 C1006 0.930 . S
H1001 C1009 0.930 . S
H1002 C1010 0.930 . S
H1003 C1011 0.930 . S
H1004 C1014 0.930 . S
H1005 C1015 0.930 . S
C1006 H1000 0.930 . S
C1006 C1007 1.355 . S
C1006 C1008 1.415 . S
C1007 C1006 1.355 . S
C1007 C1009 1.419 . S
C1008 C1006 1.415 . S
C1008 C1013 1.425 . S
C1008 C1015 1.409 . S
C1009 H1001 0.930 . S
C1009 C1007 1.419 . S
C1009 C1010 1.362 . S
C1010 H1002 0.930 . S
C1010 C1009 1.362 . S
C1010 C1013 1.409 . S
C1011 H1003 0.930 . S
C1011 C1012 1.355 . S
C1011 C1013 1.415 . S
C1012 C1011 1.355 . S
C1012 C1014 1.419 . S
C1013 C1008 1.425 . S
C1013 C1010 1.409 . S
C1013 C1011 1.415 . S
C1014 H1004 0.930 . S
C1014 C1012 1.419 . S
C1014 C1015 1.362 . S
C1015 H1005 0.930 . S
C1015 C1008 1.409 . S
C1015 C1014 1.362 . S
H1016 C1022 0.930 . S
H1017 C1025 0.930 . S
H1018 C1026 0.930 . S
H1019 C1027 0.930 . S
H1020 C1030 0.930 . S
H1021 C1031 0.930 . S
C1022 H1016 0.930 . S
C1022 C1023 1.355 . S
C1022 C1024 1.415 . S
C1023 C1022 1.355 . S
C1023 C1025 1.419 . S
C1024 C1022 1.415 . S
C1024 C1029 1.425 . S
C1024 C1031 1.409 . S
C1025 H1017 0.930 . S
C1025 C1023 1.419 . S
C1025 C1026 1.362 . S
C1026 H1018 0.930 . S
C1026 C1025 1.362 . S
C1026 C1029 1.409 . S
C1027 H1019 0.930 . S
C1027 C1028 1.355 . S
C1027 C1029 1.415 . S
C1028 C1027 1.355 . S
C1028 C1030 1.419 . S
C1029 C1024 1.425 . S
C1029 C1026 1.409 . S
C1029 C1027 1.415 . S
C1030 H1020 0.930 . S
C1030 C1028 1.419 . S
C1030 C1031 1.362 . S
C1031 H1021 0.930 . S
C1031 C1024 1.409 . S
C1031 C1030 1.362 . S
H1032 C1038 0.930 . S
H1033 C1041 0.930 . S
H1034 C1042 0.930 . S
H1035 C1043 0.930 1_554 S
H1036 C1046 0.930 . S
H1037 C1047 0.930 . S
C1038 H1032 0.930 . S
C1038 C1039 1.355 . S
C1038 C1040 1.415 . S
C1039 C1038 1.355 . S
C1039 C1041 1.419 . S
C1040 C1038 1.415 . S
C1040 C1045 1.425 . S
C1040 C1047 1.409 . S
C1041 H1033 0.930 . S
C1041 C1039 1.419 . S
C1041 C1042 1.362 . S
C1042 H1034 0.930 . S
C1042 C1041 1.362 . S
C1042 C1045 1.409 . S
C1043 H1035 0.930 1_556 S
C1043 C1044 1.355 1_556 S
C1043 C1045 1.415 . S
C1044 C1043 1.355 1_554 S
C1044 C1046 1.419 1_554 S
C1045 C1040 1.425 . S
C1045 C1042 1.409 . S
C1045 C1043 1.415 . S
C1046 H1036 0.930 . S
C1046 C1044 1.419 1_556 S
C1046 C1047 1.362 . S
C1047 H1037 0.930 . S
C1047 C1040 1.409 . S
C1047 C1046 1.362 . S
H1048 C1054 0.930 . S
H1049 C1057 0.930 . S
H1050 C1058 0.930 . S
H1051 C1059 0.930 . S
H1052 C1062 0.930 . S
H1053 C1063 0.930 . S
C1054 H1048 0.930 . S
C1054 C1055 1.355 . S
C1054 C1056 1.415 1_554 S
C1055 C1054 1.355 . S
C1055 C1057 1.419 1_554 S
C1056 C1054 1.415 1_556 S
C1056 C1061 1.425 . S
C1056 C1063 1.409 . S
C1057 H1049 0.930 . S
C1057 C1055 1.419 1_556 S
C1057 C1058 1.362 . S
C1058 H1050 0.930 . S
C1058 C1057 1.362 . S
C1058 C1061 1.409 . S
C1059 H1051 0.930 . S
C1059 C1060 1.355 . S
C1059 C1061 1.415 . S
C1060 C1059 1.355 . S
C1060 C1062 1.419 . S
C1061 C1056 1.425 . S
C1061 C1058 1.409 . S
C1061 C1059 1.415 . S
C1062 H1052 0.930 . S
C1062 C1060 1.419 . S
C1062 C1063 1.362 . S
C1063 H1053 0.930 . S
C1063 C1056 1.409 . S
C1063 C1062 1.362 . S
H1064 C1070 0.930 . S
H1065 C1073 0.930 . S
H1066 C1074 0.930 . S
H1067 C1075 0.930 . S
H1068 C1078 0.930 . S
H1069 C1079 0.930 . S
C1070 H1064 0.930 . S
C1070 C1071 1.355 . S
C1070 C1072 1.415 . S
C1071 C1070 1.355 . S
C1071 C1073 1.419 . S
C1072 C1070 1.415 . S
C1072 C1077 1.425 . S
C1072 C1079 1.409 . S
C1073 H1065 0.930 . S
C1073 C1071 1.419 . S
C1073 C1074 1.362 . S
C1074 H1066 0.930 . S
C1074 C1073 1.362 . S
C1074 C1077 1.409 . S
C1075 H1067 0.930 . S
C1075 C1076 1.355 1_556 S
C1075 C1077 1.415 . S
C1076 C1075 1.355 1_554 S
C1076 C1078 1.419 . S
C1077 C1072 1.425 . S
C1077 C1074 1.409 . S
C1077 C1075 1.415 . S
C1078 H1068 0.930 . S
C1078 C1076 1.419 . S
C1078 C1079 1.362 1_554 S
C1079 H1069 0.930 . S
C1079 C1072 1.409 . S
C1079 C1078 1.362 1_556 S
H1080 C1086 0.930 . S
H1081 C1089 0.930 . S
H1082 C1090 0.930 . S
H1083 C1091 0.930 . S
H1084 C1094 0.930 . S
H1085 C1095 0.930 . S
C1086 H1080 0.930 . S
C1086 C1087 1.355 . S
C1086 C1088 1.415 . S
C1087 C1086 1.355 . S
C1087 C1089 1.419 . S
C1088 C1086 1.415 . S
C1088 C1093 1.425 . S
C1088 C1095 1.409 . S
C1089 H1081 0.930 . S
C1089 C1087 1.419 . S
C1089 C1090 1.362 . S
C1090 H1082 0.930 . S
C1090 C1089 1.362 . S
C1090 C1093 1.409 . S
C1091 H1083 0.930 . S
C1091 C1092 1.355 . S
C1091 C1093 1.415 . S
C1092 C1091 1.355 . S
C1092 C1094 1.419 . S
C1093 C1088 1.425 . S
C1093 C1090 1.409 . S
C1093 C1091 1.415 . S
C1094 H1084 0.930 . S
C1094 C1092 1.419 . S
C1094 C1095 1.362 . S
C1095 H1085 0.930 . S
C1095 C1088 1.409 . S
C1095 C1094 1.362 . S
H1096 C1102 0.930 . S
H1097 C1105 0.930 . S
H1098 C1106 0.930 . S
H1099 C1107 0.930 . S
H1100 C1110 0.930 . S
H1101 C1111 0.930 . S
C1102 H1096 0.930 . S
C1102 C1103 1.355 . S
C1102 C1104 1.415 . S
C1103 C1102 1.355 . S
C1103 C1105 1.419 . S
C1104 C1102 1.415 . S
C1104 C1109 1.425 . S
C1104 C1111 1.409 . S
C1105 H1097 0.930 . S
C1105 C1103 1.419 . S
C1105 C1106 1.362 . S
C1106 H1098 0.930 . S
C1106 C1105 1.362 . S
C1106 C1109 1.409 . S
C1107 H1099 0.930 . S
C1107 C1108 1.355 . S
C1107 C1109 1.415 . S
C1108 C1107 1.355 . S
C1108 C1110 1.419 . S
C1109 C1104 1.425 . S
C1109 C1106 1.409 . S
C1109 C1107 1.415 . S
C1110 H1100 0.930 . S
C1110 C1108 1.419 . S
C1110 C1111 1.362 . S
C1111 H1101 0.930 . S
C1111 C1104 1.409 . S
C1111 C1110 1.362 . S
H1112 C1118 0.930 . S
H1113 C1121 0.930 . S
H1114 C1122 0.930 . S
H1115 C1123 0.930 . S
H1116 C1126 0.930 . S
H1117 C1127 0.930 . S
C1118 H1112 0.930 . S
C1118 C1119 1.355 . S
C1118 C1120 1.415 . S
C1119 C1118 1.355 . S
C1119 C1121 1.419 . S
C1120 C1118 1.415 . S
C1120 C1125 1.425 . S
C1120 C1127 1.409 . S
C1121 H1113 0.930 . S
C1121 C1119 1.419 . S
C1121 C1122 1.362 . S
C1122 H1114 0.930 . S
C1122 C1121 1.362 . S
C1122 C1125 1.409 . S
C1123 H1115 0.930 . S
C1123 C1124 1.355 . S
C1123 C1125 1.415 . S
C1124 C1123 1.355 . S
C1124 C1126 1.419 . S
C1125 C1120 1.425 . S
C1125 C1122 1.409 . S
C1125 C1123 1.415 . S
C1126 H1116 0.930 . S
C1126 C1124 1.419 . S
C1126 C1127 1.362 . S
C1127 H1117 0.930 . S
C1127 C1120 1.409 . S
C1127 C1126 1.362 . S
H1128 C1134 0.930 . S
H1129 C1137 0.930 . S
H1130 C1138 0.930 . S
H1131 C1139 0.930 . S
H1132 C1142 0.930 . S
H1133 C1143 0.930 . S
C1134 H1128 0.930 . S
C1134 C1135 1.355 . S
C1134 C1136 1.415 . S
C1135 C1134 1.355 . S
C1135 C1137 1.419 . S
C1136 C1134 1.415 . S
C1136 C1141 1.425 . S
C1136 C1143 1.409 . S
C1137 H1129 0.930 . S
C1137 C1135 1.419 . S
C1137 C1138 1.362 . S
C1138 H1130 0.930 . S
C1138 C1137 1.362 . S
C1138 C1141 1.409 . S
C1139 H1131 0.930 . S
C1139 C1140 1.355 . S
C1139 C1141 1.415 . S
C1140 C1139 1.355 . S
C1140 C1142 1.419 . S
C1141 C1136 1.425 . S
C1141 C1138 1.409 . S
C1141 C1139 1.415 . S
C1142 H1132 0.930 . S
C1142 C1140 1.419 . S
C1142 C1143 1.362 . S
C1143 H1133 0.930 . S
C1143 C1136 1.409 . S
C1143 C1142 1.362 . S
H1144 C1150 0.930 . S
H1145 C1153 0.930 . S
H1146 C1154 0.930 . S
H1147 C1155 0.930 . S
H1148 C1158 0.930 . S
H1149 C1159 0.930 . S
C1150 H1144 0.930 . S
C1150 C1151 1.355 . S
C1150 C1152 1.415 . S
C1151 C1150 1.355 . S
C1151 C1153 1.419 . S
C1152 C1150 1.415 . S
C1152 C1157 1.425 . S
C1152 C1159 1.409 . S
C1153 H1145 0.930 . S
C1153 C1151 1.419 . S
C1153 C1154 1.362 . S
C1154 H1146 0.930 . S
C1154 C1153 1.362 . S
C1154 C1157 1.409 . S
C1155 H1147 0.930 . S
C1155 C1156 1.355 . S
C1155 C1157 1.415 . S
C1156 C1155 1.355 . S
C1156 C1158 1.419 . S
C1157 C1152 1.425 . S
C1157 C1154 1.409 . S
C1157 C1155 1.415 . S
C1158 H1148 0.930 . S
C1158 C1156 1.419 . S
C1158 C1159 1.362 . S
C1159 H1149 0.930 . S
C1159 C1152 1.409 . S
C1159 C1158 1.362 . S
H1160 C1166 0.930 . S
H1161 C1169 0.930 . S
H1162 C1170 0.930 . S
H1163 C1171 0.930 . S
H1164 C1174 0.930 . S
H1165 C1175 0.930 . S
C1166 H1160 0.930 . S
C1166 C1167 1.355 . S
C1166 C1168 1.415 . S
C1167 C1166 1.355 . S
C1167 C1169 1.419 . S
C1168 C1166 1.415 . S
C1168 C1173 1.425 . S
C1168 C1175 1.409 . S
C1169 H1161 0.930 . S
C1169 C1167 1.419 . S
C1169 C1170 1.362 . S
C1170 H1162 0.930 . S
C1170 C1169 1.362 . S
C1170 C1173 1.409 . S
C1171 H1163 0.930 . S
C1171 C1172 1.355 . S
C1171 C1173 1.415 . S
C1172 C1171 1.355 . S
C1172 C1174 1.419 . S
C1173 C1168 1.425 . S
C1173 C1170 1.409 . S
C1173 C1171 1.415 . S
C1174 H1164 0.930 . S
C1174 C1172 1.419 . S
C1174 C1175 1.362 . S
C1175 H1165 0.930 . S
C1175 C1168 1.409 . S
C1175 C1174 1.362 . S
H1176 C1182 0.930 . S
H1177 C1185 0.930 . S
H1178 C1186 0.930 . S
H1179 C1187 0.930 . S
H1180 C1190 0.930 . S
H1181 C1191 0.930 . S
C1182 H1176 0.930 . S
C1182 C1183 1.355 . S
C1182 C1184 1.415 . S
C1183 C1182 1.355 . S
C1183 C1185 1.419 . S
C1184 C1182 1.415 . S
C1184 C1189 1.425 . S
C1184 C1191 1.409 . S
C1185 H1177 0.930 . S
C1185 C1183 1.419 . S
C1185 C1186 1.362 . S
C1186 H1178 0.930 . S
C1186 C1185 1.362 . S
C1186 C1189 1.409 . S
C1187 H1179 0.930 . S
C1187 C1188 1.355 . S
C1187 C1189 1.415 . S
C1188 C1187 1.355 . S
C1188 C1190 1.419 . S
C1189 C1184 1.425 . S
C1189 C1186 1.409 . S
C1189 C1187 1.415 . S
C1190 H1180 0.930 . S
C1190 C1188 1.419 . S
C1190 C1191 1.362 . S
C1191 H1181 0.930 . S
C1191 C1184 1.409 . S
C1191 C1190 1.362 . S
H1192 C1198 0.930 . S
H1193 C1201 0.930 . S
H1194 C1202 0.930 . S
H1195 C1203 0.930 . S
H1196 C1206 0.930 . S
H1197 C1207 0.930 . S
C1198 H1192 0.930 . S
C1198 C1199 1.355 . S
C1198 C1200 1.415 . S
C1199 C1198 1.355 . S
C1199 C1201 1.419 . S
C1200 C1198 1.415 . S
C1200 C1205 1.425 . S
C1200 C1207 1.409 . S
C1201 H1193 0.930 . S
C1201 C1199 1.419 . S
C1201 C1202 1.362 . S
C1202 H1194 0.930 . S
C1202 C1201 1.362 . S
C1202 C1205 1.409 . S
C1203 H1195 0.930 . S
C1203 C1204 1.355 . S
C1203 C1205 1.415 . S
C1204 C1203 1.355 . S
C1204 C1206 1.419 . S
C1205 C1200 1.425 . S
C1205 C1202 1.409 . S
C1205 C1203 1.415 . S
C1206 H1196 0.930 . S
C1206 C1204 1.419 . S
C1206 C1207 1.362 . S
C1207 H1197 0.930 . S
C1207 C1200 1.409 . S
C1207 C1206 1.362 . S
H1208 C1214 0.930 . S
H1209 C1217 0.930 . S
H1210 C1218 0.930 . S
H1211 C1219 0.930 . S
H1212 C1222 0.930 . S
H1213 C1223 0.930 . S
C1214 H1208 0.930 . S
C1214 C1215 1.355 . S
C1214 C1216 1.415 . S
C1215 C1214 1.355 . S
C1215 C1217 1.419 . S
C1216 C1214 1.415 . S
C1216 C1221 1.425 . S
C1216 C1223 1.409 . S
C1217 H1209 0.930 . S
C1217 C1215 1.419 . S
C1217 C1218 1.362 . S
C1218 H1210 0.930 . S
C1218 C1217 1.362 . S
C1218 C1221 1.409 . S
C1219 H1211 0.930 . S
C1219 C1220 1.355 . S
C1219 C1221 1.415 . S
C1220 C1219 1.355 . S
C1220 C1222 1.419 . S
C1221 C1216 1.425 . S
C1221 C1218 1.409 . S
C1221 C1219 1.415 . S
C1222 H1212 0.930 . S
C1222 C1220 1.419 . S
C1222 C1223 1.362 . S
C1223 H1213 0.930 . S
C1223 C1216 1.409 . S
C1223 C1222 1.362 . S
H1224 C1230 0.930 . S
H1225 C1233 0.930 . S
H1226 C1234 0.930 . S
H1227 C1235 0.930 . S
H1228 C1238 0.930 . S
H1229 C1239 0.930 . S
C1230 H1224 0.930 . S
C1230 C1231 1.355 . S
C1230 C1232 1.415 . S
C1231 C1230 1.355 . S
C1231 C1233 1.419 . S
C1232 C1230 1.415 . S
C1232 C1237 1.425 . S
C1232 C1239 1.409 . S
C1233 H1225 0.930 . S
C1233 C1231 1.419 . S
C1233 C1234 1.362 . S
C1234 H1226 0.930 . S
C1234 C1233 1.362 . S
C1234 C1237 1.409 . S
C1235 H1227 0.930 . S
C1235 C1236 1.355 . S
C1235 C1237 1.415 . S
C1236 C1235 1.355 . S
C1236 C1238 1.419 . S
C1237 C1232 1.425 . S
C1237 C1234 1.409 . S
C1237 C1235 1.415 . S
C1238 H1228 0.930 . S
C1238 C1236 1.419 . S
C1238 C1239 1.362 . S
C1239 H1229 0.930 . S
C1239 C1232 1.409 . S
C1239 C1238 1.362 . S
H1240 C1246 0.930 . S
H1241 C1249 0.930 . S
H1242 C1250 0.930 . S
H1243 C1251 0.930 . S
H1244 C1254 0.930 . S
H1245 C1255 0.930 . S
C1246 H1240 0.930 . S
C1246 C1247 1.355 . S
C1246 C1248 1.415 . S
C1247 C1246 1.355 . S
C1247 C1249 1.419 . S
C1248 C1246 1.415 . S
C1248 C1253 1.425 . S
C1248 C1255 1.409 . S
C1249 H1241 0.930 . S
C1249 C1247 1.419 . S
C1249 C1250 1.362 . S
C1250 H1242 0.930 . S
C1250 C1249 1.362 . S
C1250 C1253 1.409 . S
C1251 H1243 0.930 . S
C1251 C1252 1.355 . S
C1251 C1253 1.415 . S
C1252 C1251 1.355 . S
C1252 C1254 1.419 . S
C1253 C1248 1.425 . S
C1253 C1250 1.409 . S
C1253 C1251 1.415 . S
C1254 H1244 0.930 . S
C1254 C1252 1.419 . S
C1254 C1255 1.362 . S
C1255 H1245 0.930 . S
C1255 C1248 1.409 . S
C1255 C1254 1.362 . S
H1256 C1262 0.930 . S
H1257 C1265 0.930 . S
H1258 C1266 0.930 . S
H1259 C1267 0.930 . S
H1260 C1270 0.930 . S
H1261 C1271 0.930 . S
C1262 H1256 0.930 . S
C1262 C1263 1.355 . S
C1262 C1264 1.415 . S
C1263 C1262 1.355 . S
C1263 C1265 1.419 . S
C1264 C1262 1.415 . S
C1264 C1269 1.425 . S
C1264 C1271 1.409 . S
C1265 H1257 0.930 . S
C1265 C1263 1.419 . S
C1265 C1266 1.362 . S
C1266 H1258 0.930 . S
C1266 C1265 1.362 . S
C1266 C1269 1.409 . S
C1267 H1259 0.930 . S
C1267 C1268 1.355 . S
C1267 C1269 1.415 . S
C1268 C1267 1.355 . S
C1268 C1270 1.419 . S
C1269 C1264 1.425 . S
C1269 C1266 1.409 . S
C1269 C1267 1.415 . S
C1270 H1260 0.930 . S
C1270 C1268 1.419 . S
C1270 C1271 1.362 . S
C1271 H1261 0.930 . S
C1271 C1264 1.409 . S
C1271 C1270 1.362 . S
H1272 C1278 0.930 . S
H1273 C1281 0.930 . S
H1274 C1282 0.930 . S
H1275 C1283 0.930 . S
H1276 C1286 0.930 . S
H1277 C1287 0.930 . S
C1278 H1272 0.930 . S
C1278 C1279 1.355 . S
C1278 C1280 1.415 . S
C1279 C1278 1.355 . S
C1279 C1281 1.419 . S
C1280 C1278 1.415 . S
C1280 C1285 1.425 . S
C1280 C1287 1.409 . S
C1281 H1273 0.930 . S
C1281 C1279 1.419 . S
C1281 C1282 1.362 . S
C1282 H1274 0.930 . S
C1282 C1281 1.362 . S
C1282 C1285 1.409 . S
C1283 H1275 0.930 . S
C1283 C1284 1.355 . S
C1283 C1285 1.415 . S
C1284 C1283 1.355 . S
C1284 C1286 1.419 . S
C1285 C1280 1.425 . S
C1285 C1282 1.409 . S
C1285 C1283 1.415 . S
C1286 H1276 0.930 . S
C1286 C1284 1.419 . S
C1286 C1287 1.362 . S
C1287 H1277 0.930 . S
C1287 C1280 1.409 . S
C1287 C1286 1.362 . S
H1288 C1294 0.930 . S
H1289 C1297 0.930 . S
H1290 C1298 0.930 . S
H1291 C1299 0.930 . S
H1292 C1302 0.930 . S
H1293 C1303 0.930 . S
C1294 H1288 0.930 . S
C1294 C1295 1.355 . S
C1294 C1296 1.415 . S
C1295 C1294 1.355 . S
C1295 C1297 1.419 . S
C1296 C1294 1.415 . S
C1296 C1301 1.425 . S
C1296 C1303 1.409 . S
C1297 H1289 0.930 . S
C1297 C1295 1.419 . S
C1297 C1298 1.362 . S
C1298 H1290 0.930 . S
C1298 C1297 1.362 . S
C1298 C1301 1.409 . S
C1299 H1291 0.930 . S
C1299 C1300 1.355 . S
C1299 C1301 1.415 . S
C1300 C1299 1.355 . S
C1300 C1302 1.419 . S
C1301 C1296 1.425 . S
C1301 C1298 1.409 . S
C1301 C1299 1.415 . S
C1302 H1292 0.930 . S
C1302 C1300 1.419 . S
C1302 C1303 1.362 . S
C1303 H1293 0.930 . S
C1303 C1296 1.409 . S
C1303 C1302 1.362 . S
H1304 C1310 0.930 . S
H1305 C1313 0.930 . S
H1306 C1314 0.930 . S
H1307 C1315 0.930 . S
H1308 C1318 0.930 . S
H1309 C1319 0.930 . S
C1310 H1304 0.930 . S
C1310 C1311 1.355 . S
C1310 C1312 1.415 . S
C1311 C1310 1.355 . S
C1311 C1313 1.419 . S
C1312 C1310 1.415 . S
C1312 C1317 1.425 . S
C1312 C1319 1.409 . S
C1313 H1305 0.930 . S
C1313 C1311 1.419 . S
C1313 C1314 1.362 . S
C1314 H1306 0.930 . S
C1314 C1313 1.362 . S
C1314 C1317 1.409 . S
C1315 H1307 0.930 . S
C1315 C1316 1.355 . S
C1315 C1317 1.415 . S
C1316 C1315 1.355 . S
C1316 C1318 1.419 . S
C1317 C1312 1.425 . S
C1317 C1314 1.409 . S
C1317 C1315 1.415 . S
C1318 H1308 0.930 . S
C1318 C1316 1.419 . S
C1318 C1319 1.362 . S
C1319 H1309 0.930 . S
C1319 C1312 1.409 . S
C1319 C1318 1.362 . S
H1320 C1326 0.930 . S
H1321 C1329 0.930 . S
H1322 C1330 0.930 . S
H1323 C1331 0.930 . S
H1324 C1334 0.930 . S
H1325 C1335 0.930 . S
C1326 H1320 0.930 . S
C1326 C1327 1.355 1_554 S
C1326 C1328 1.415 . S
C1327 C1326 1.355 1_556 S
C1327 C1329 1.419 . S
C1328 C1326 1.415 . S
C1328 C1333 1.425 . S
C1328 C1335 1.409 . S
C1329 H1321 0.930 . S
C1329 C1327 1.419 . S
C1329 C1330 1.362 1_556 S
C1330 H1322 0.930 . S
C1330 C1329 1.362 1_554 S
C1330 C1333 1.409 . S
C1331 H1323 0.930 . S
C1331 C1332 1.355 . S
C1331 C1333 1.415 . S
C1332 C1331 1.355 . S
C1332 C1334 1.419 . S
C1333 C1328 1.425 . S
C1333 C1330 1.409 . S
C1333 C1331 1.415 . S
C1334 H1324 0.930 . S
C1334 C1332 1.419 . S
C1334 C1335 1.362 . S
C1335 H1325 0.930 . S
C1335 C1328 1.409 . S
C1335 C1334 1.362 . S
H1336 C1342 0.930 . S
H1337 C1345 0.930 1_556 S
H1338 C1346 0.930 . S
H1339 C1347 0.930 . S
H1340 C1350 0.930 . S
H1341 C1351 0.930 . S
C1342 H1336 0.930 . S
C1342 C1343 1.355 . S
C1342 C1344 1.415 . S
C1343 C1342 1.355 . S
C1343 C1345 1.419 . S
C1344 C1342 1.415 . S
C1344 C1349 1.425 . S
C1344 C1351 1.409 . S
C1345 H1337 0.930 1_554 S
C1345 C1343 1.419 . S
C1345 C1346 1.362 . S
C1346 H1338 0.930 . S
C1346 C1345 1.362 . S
C1346 C1349 1.409 . S
C1347 H1339 0.930 . S
C1347 C1348 1.355 . S
C1347 C1349 1.415 . S
C1348 C1347 1.355 . S
C1348 C1350 1.419 . S
C1349 C1344 1.425 . S
C1349 C1346 1.409 . S
C1349 C1347 1.415 . S
C1350 H1340 0.930 . S
C1350 C1348 1.419 . S
C1350 C1351 1.362 . S
C1351 H1341 0.930 . S
C1351 C1344 1.409 . S
C1351 C1350 1.362 . S
H1352 C1358 0.930 . S
H1353 C1361 0.930 . S
H1354 C1362 0.930 . S
H1355 C1363 0.930 . S
H1356 C1366 0.930 . S
H1357 C1367 0.930 . S
C1358 H1352 0.930 . S
C1358 C1359 1.355 . S
C1358 C1360 1.415 . S
C1359 C1358 1.355 . S
C1359 C1361 1.419 1_554 S
C1360 C1358 1.415 . S
C1360 C1365 1.425 . S
C1360 C1367 1.409 . S
C1361 H1353 0.930 . S
C1361 C1359 1.419 1_556 S
C1361 C1362 1.362 1_556 S
C1362 H1354 0.930 . S
C1362 C1361 1.362 1_554 S
C1362 C1365 1.409 . S
C1363 H1355 0.930 . S
C1363 C1364 1.355 . S
C1363 C1365 1.415 . S
C1364 C1363 1.355 . S
C1364 C1366 1.419 . S
C1365 C1360 1.425 . S
C1365 C1362 1.409 . S
C1365 C1363 1.415 . S
C1366 H1356 0.930 . S
C1366 C1364 1.419 . S
C1366 C1367 1.362 . S
C1367 H1357 0.930 . S
C1367 C1360 1.409 . S
C1367 C1366 1.362 . S
H1368 C1374 0.930 1_556 S
H1369 C1377 0.930 . S
H1370 C1378 0.930 . S
H1371 C1379 0.930 . S
H1372 C1382 0.930 . S
H1373 C1383 0.930 . S
C1374 H1368 0.930 1_554 S
C1374 C1375 1.355 . S
C1374 C1376 1.415 . S
C1375 C1374 1.355 . S
C1375 C1377 1.419 . S
C1376 C1374 1.415 . S
C1376 C1381 1.425 . S
C1376 C1383 1.409 . S
C1377 H1369 0.930 . S
C1377 C1375 1.419 . S
C1377 C1378 1.362 . S
C1378 H1370 0.930 . S
C1378 C1377 1.362 . S
C1378 C1381 1.409 . S
C1379 H1371 0.930 . S
C1379 C1380 1.355 . S
C1379 C1381 1.415 . S
C1380 C1379 1.355 . S
C1380 C1382 1.419 . S
C1381 C1376 1.425 . S
C1381 C1378 1.409 . S
C1381 C1379 1.415 . S
C1382 H1372 0.930 . S
C1382 C1380 1.419 . S
C1382 C1383 1.362 . S
C1383 H1373 0.930 . S
C1383 C1376 1.409 . S
C1383 C1382 1.362 . S
H1384 C1390 0.930 . S
H1385 C1393 0.930 . S
H1386 C1394 0.930 1_556 S
H1387 C1395 0.930 1_556 S
H1388 C1398 0.930 . S
H1389 C1399 0.930 . S
C1390 H1384 0.930 . S
C1390 C1391 1.355 . S
C1390 C1392 1.415 . S
C1391 C1390 1.355 . S
C1391 C1393 1.419 . S
C1392 C1390 1.415 . S
C1392 C1397 1.425 . S
C1392 C1399 1.409 . S
C1393 H1385 0.930 . S
C1393 C1391 1.419 . S
C1393 C1394 1.362 . S
C1394 H1386 0.930 1_554 S
C1394 C1393 1.362 . S
C1394 C1397 1.409 . S
C1395 H1387 0.930 1_554 S
C1395 C1396 1.355 . S
C1395 C1397 1.415 . S
C1396 C1395 1.355 . S
C1396 C1398 1.419 . S
C1397 C1392 1.425 . S
C1397 C1394 1.409 . S
C1397 C1395 1.415 . S
C1398 H1388 0.930 . S
C1398 C1396 1.419 . S
C1398 C1399 1.362 . S
C1399 H1389 0.930 . S
C1399 C1392 1.409 . S
C1399 C1398 1.362 . S
H1400 C1406 0.930 . S
H1401 C1409 0.930 . S
H1402 C1410 0.930 1_556 S
H1403 C1411 0.930 . S
H1404 C1414 0.930 . S
H1405 C1415 0.930 . S
C1406 H1400 0.930 . S
C1406 C1407 1.355 . S
C1406 C1408 1.415 . S
C1407 C1406 1.355 . S
C1407 C1409 1.419 1_554 S
C1408 C1406 1.415 . S
C1408 C1413 1.425 . S
C1408 C1415 1.409 . S
C1409 H1401 0.930 . S
C1409 C1407 1.419 1_556 S
C1409 C1410 1.362 1_556 S
C1410 H1402 0.930 1_554 S
C1410 C1409 1.362 1_554 S
C1410 C1413 1.409 . S
C1411 H1403 0.930 . S
C1411 C1412 1.355 . S
C1411 C1413 1.415 . S
C1412 C1411 1.355 . S
C1412 C1414 1.419 . S
C1413 C1408 1.425 . S
C1413 C1410 1.409 . S
C1413 C1411 1.415 . S
C1414 H1404 0.930 . S
C1414 C1412 1.419 . S
C1414 C1415 1.362 . S
C1415 H1405 0.930 . S
C1415 C1408 1.409 . S
C1415 C1414 1.362 . S
H1416 C1422 0.930 . S
H1417 C1425 0.930 . S
H1418 C1426 0.930 . S
H1419 C1427 0.930 . S
H1420 C1430 0.930 . S
H1421 C1431 0.930 . S
C1422 H1416 0.930 . S
C1422 C1423 1.355 . S
C1422 C1424 1.415 . S
C1423 C1422 1.355 . S
C1423 C1425 1.419 . S
C1424 C1422 1.415 . S
C1424 C1429 1.425 . S
C1424 C1431 1.409 . S
C1425 H1417 0.930 . S
C1425 C1423 1.419 . S
C1425 C1426 1.362 . S
C1426 H1418 0.930 . S
C1426 C1425 1.362 . S
C1426 C1429 1.409 . S
C1427 H1419 0.930 . S
C1427 C1428 1.355 . S
C1427 C1429 1.415 . S
C1428 C1427 1.355 . S
C1428 C1430 1.419 . S
C1429 C1424 1.425 . S
C1429 C1426 1.409 . S
C1429 C1427 1.415 . S
C1430 H1420 0.930 . S
C1430 C1428 1.419 . S
C1430 C1431 1.362 . S
C1431 H1421 0.930 . S
C1431 C1424 1.409 . S
C1431 C1430 1.362 . S
H1432 C1438 0.930 . S
H1433 C1441 0.930 . S
H1434 C1442 0.930 . S
H1435 C1443 0.930 . S
H1436 C1446 0.930 . S
H1437 C1447 0.930 . S
C1438 H1432 0.930 . S
C1438 C1439 1.355 . S
C1438 C1440 1.415 . S
C1439 C1438 1.355 . S
C1439 C1441 1.419 . S
C1440 C1438 1.415 . S
C1440 C1445 1.425 . S
C1440 C1447 1.409 . S
C1441 H1433 0.930 . S
C1441 C1439 1.419 . S
C1441 C1442 1.362 . S
C1442 H1434 0.930 . S
C1442 C1441 1.362 . S
C1442 C1445 1.409 . S
C1443 H1435 0.930 . S
C1443 C1444 1.355 . S
C1443 C1445 1.415 . S
C1444 C1443 1.355 . S
C1444 C1446 1.419 . S
C1445 C1440 1.425 . S
C1445 C1442 1.409 . S
C1445 C1443 1.415 . S
C1446 H1436 0.930 . S
C1446 C1444 1.419 . S
C1446 C1447 1.362 . S
C1447 H1437 0.930 . S
C1447 C1440 1.409 . S
C1447 C1446 1.362 . S
H1448 C1454 0.930 . S
H1449 C1457 0.930 . S
H1450 C1458 0.930 . S
H1451 C1459 0.930 . S
H1452 C1462 0.930 . S
H1453 C1463 0.930 . S
C1454 H1448 0.930 . S
C1454 C1455 1.355 . S
C1454 C1456 1.415 . S
C1455 C1454 1.355 . S
C1455 C1457 1.419 . S
C1456 C1454 1.415 . S
C1456 C1461 1.425 . S
C1456 C1463 1.409 . S
C1457 H1449 0.930 . S
C1457 C1455 1.419 . S
C1457 C1458 1.362 . S
C1458 H1450 0.930 . S
C1458 C1457 1.362 . S
C1458 C1461 1.409 . S
C1459 H1451 0.930 . S
C1459 C1460 1.355 . S
C1459 C1461 1.415 . S
C1460 C1459 1.355 . S
C1460 C1462 1.419 . S
C1461 C1456 1.425 . S
C1461 C1458 1.409 . S
C1461 C1459 1.415 . S
C1462 H1452 0.930 . S
C1462 C1460 1.419 . S
C1462 C1463 1.362 . S
C1463 H1453 0.930 . S
C1463 C1456 1.409 . S
C1463 C1462 1.362 . S
H1464 C1470 0.930 . S
H1465 C1473 0.930 . S
H1466 C1474 0.930 . S
H1467 C1475 0.930 . S
H1468 C1478 0.930 . S
H1469 C1479 0.930 . S
C1470 H1464 0.930 . S
C1470 C1471 1.355 . S
C1470 C1472 1.415 . S
C1471 C1470 1.355 . S
C1471 C1473 1.419 . S
C1472 C1470 1.415 . S
C1472 C1477 1.425 . S
C1472 C1479 1.409 1_556 S
C1473 H1465 0.930 . S
C1473 C1471 1.419 . S
C1473 C1474 1.362 . S
C1474 H1466 0.930 . S
C1474 C1473 1.362 . S
C1474 C1477 1.409 . S
C1475 H1467 0.930 . S
C1475 C1476 1.355 . S
C1475 C1477 1.415 . S
C1476 C1475 1.355 . S
C1476 C1478 1.419 1_556 S
C1477 C1472 1.425 . S
C1477 C1474 1.409 . S
C1477 C1475 1.415 . S
C1478 H1468 0.930 . S
C1478 C1476 1.419 1_554 S
C1478 C1479 1.362 . S
C1479 H1469 0.930 . S
C1479 C1472 1.409 1_554 S
C1479 C1478 1.362 . S
H1480 C1486 0.930 1_554 S
H1481 C1489 0.930 . S
H1482 C1490 0.930 . S
H1483 C1491 0.930 . S
H1484 C1494 0.930 . S
H1485 C1495 0.930 1_554 S
C1486 H1480 0.930 1_556 S
C1486 C1487 1.355 . S
C1486 C1488 1.415 . S
C1487 C1486 1.355 . S
C1487 C1489 1.419 . S
C1488 C1486 1.415 . S
C1488 C1493 1.425 . S
C1488 C1495 1.409 . S
C1489 H1481 0.930 . S
C1489 C1487 1.419 . S
C1489 C1490 1.362 . S
C1490 H1482 0.930 . S
C1490 C1489 1.362 . S
C1490 C1493 1.409 . S
C1491 H1483 0.930 . S
C1491 C1492 1.355 . S
C1491 C1493 1.415 . S
C1492 C1491 1.355 . S
C1492 C1494 1.419 . S
C1493 C1488 1.425 . S
C1493 C1490 1.409 . S
C1493 C1491 1.415 . S
C1494 H1484 0.930 . S
C1494 C1492 1.419 . S
C1494 C1495 1.362 . S
C1495 H1485 0.930 1_556 S
C1495 C1488 1.409 . S
C1495 C1494 1.362 . S
H1496 C1502 0.930 . S
H1497 C1505 0.930 . S
H1498 C1506 0.930 1_554 S
H1499 C1507 0.930 1_554 S
H1500 C1510 0.930 . S
H1501 C1511 0.930 . S
C1502 H1496 0.930 . S
C1502 C1503 1.355 . S
C1502 C1504 1.415 . S
C1503 C1502 1.355 . S
C1503 C1505 1.419 . S
C1504 C1502 1.415 . S
C1504 C1509 1.425 . S
C1504 C1511 1.409 . S
C1505 H1497 0.930 . S
C1505 C1503 1.419 . S
C1505 C1506 1.362 . S
C1506 H1498 0.930 1_556 S
C1506 C1505 1.362 . S
C1506 C1509 1.409 . S
C1507 H1499 0.930 1_556 S
C1507 C1508 1.355 . S
C1507 C1509 1.415 . S
C1508 C1507 1.355 . S
C1508 C1510 1.419 . S
C1509 C1504 1.425 . S
C1509 C1506 1.409 . S
C1509 C1507 1.415 . S
C1510 H1500 0.930 . S
C1510 C1508 1.419 . S
C1510 C1511 1.362 . S
C1511 H1501 0.930 . S
C1511 C1504 1.409 . S
C1511 C1510 1.362 . S
H1512 C1518 0.930 . S
H1513 C1521 0.930 . S
H1514 C1522 0.930 . S
H1515 C1523 0.930 . S
H1516 C1526 0.930 . S
H1517 C1527 0.930 . S
C1518 H1512 0.930 . S
C1518 C1519 1.355 . S
C1518 C1520 1.415 . S
C1519 C1518 1.355 . S
C1519 C1521 1.419 . S
C1520 C1518 1.415 . S
C1520 C1525 1.425 . S
C1520 C1527 1.409 . S
C1521 H1513 0.930 . S
C1521 C1519 1.419 . S
C1521 C1522 1.362 . S
C1522 H1514 0.930 . S
C1522 C1521 1.362 . S
C1522 C1525 1.409 . S
C1523 H1515 0.930 . S
C1523 C1524 1.355 . S
C1523 C1525 1.415 . S
C1524 C1523 1.355 . S
C1524 C1526 1.419 . S
C1525 C1520 1.425 . S
C1525 C1522 1.409 . S
C1525 C1523 1.415 . S
C1526 H1516 0.930 . S
C1526 C1524 1.419 . S
C1526 C1527 1.362 . S
C1527 H1517 0.930 . S
C1527 C1520 1.409 . S
C1527 C1526 1.362 . S
H1528 C1534 0.930 . S
H1529 C1537 0.930 . S
H1530 C1538 0.930 . S
H1531 C1539 0.930 . S
H1532 C1542 0.930 . S
H1533 C1543 0.930 . S
C1534 H1528 0.930 . S
C1534 C1535 1.355 . S
C1534 C1536 1.415 . S
C1535 C1534 1.355 . S
C1535 C1537 1.419 . S
C1536 C1534 1.415 . S
C1536 C1541 1.425 . S
C1536 C1543 1.409 . S
C1537 H1529 0.930 . S
C1537 C1535 1.419 . S
C1537 C1538 1.362 . S
C1538 H1530 0.930 . S
C1538 C1537 1.362 . S
C1538 C1541 1.409 . S
C1539 H1531 0.930 . S
C1539 C1540 1.355 . S
C1539 C1541 1.415 . S
C1540 C1539 1.355 . S
C1540 C1542 1.419 . S
C1541 C1536 1.425 . S
C1541 C1538 1.409 . S
C1541 C1539 1.415 . S
C1542 H1532 0.930 . S
C1542 C1540 1.419 . S
C1542 C1543 1.362 . S
C1543 H1533 0.930 . S
C1543 C1536 1.409 . S
C1543 C1542 1.362 . S
H1544 C1550 0.930 . S
H1545 C1553 0.930 . S
H1546 C1554 0.930 . S
H1547 C1555 0.930 . S
H1548 C1558 0.930 . S
H1549 C1559 0.930 . S
C1550 H1544 0.930 . S
C1550 C1551 1.355 . S
C1550 C1552 1.415 . S
C1551 C1550 1.355 . S
C1551 C1553 1.419 . S
C1552 C1550 1.415 . S
C1552 C1557 1.425 . S
C1552 C1559 1.409 . S
C1553 H1545 0.930 . S
C1553 C1551 1.419 . S
C1553 C1554 1.362 . S
C1554 H1546 0.930 . S
C1554 C1553 1.362 . S
C1554 C1557 1.409 . S
C1555 H1547 0.930 . S
C1555 C1556 1.355 . S
C1555 C1557 1.415 . S
C1556 C1555 1.355 . S
C1556 C1558 1.419 . S
C1557 C1552 1.425 . S
C1557 C1554 1.409 . S
C1557 C1555 1.415 . S
C1558 H1548 0.930 . S
C1558 C1556 1.419 . S
C1558 C1559 1.362 . S
C1559 H1549 0.930 . S
C1559 C1552 1.409 . S
C1559 C1558 1.362 . S
H1560 C1566 0.930 . S
H1561 C1569 0.930 . S
H1562 C1570 0.930 . S
H1563 C1571 0.930 . S
H1564 C1574 0.930 . S
H1565 C1575 0.930 . S
C1566 H1560 0.930 . S
C1566 C1567 1.355 . S
C1566 C1568 1.455 . S
C1567 C1566 1.355 . S
C1567 C1569 1.419 . S
C1568 C1566 1.455 . S
C1568 C1573 1.437 . S
C1568 C1575 1.353 1_455 S
C1569 H1561 0.930 . S
C1569 C1567 1.419 . S
C1569 C1570 1.362 . S
C1570 H1562 0.930 . S
C1570 C1569 1.362 . S
C1570 C1573 1.430 . S
C1571 H1563 0.930 . S
C1571 C1572 1.355 . S
C1571 C1573 1.400 1_655 S
C1572 C1571 1.355 . S
C1572 C1574 1.419 . S
C1573 C1568 1.437 . S
C1573 C1570 1.430 . S
C1573 C1571 1.400 1_455 S
C1574 H1564 0.930 . S
C1574 C1572 1.419 . S
C1574 C1575 1.362 . S
C1575 H1565 0.930 . S
C1575 C1568 1.353 1_655 S
C1575 C1574 1.362 . S
H1576 C1582 0.930 . S
H1577 C1585 0.930 . S
H1578 C1586 0.930 . S
H1579 C1587 0.930 . S
H1580 C1590 0.930 . S
H1581 C1591 0.930 . S
C1582 H1576 0.930 . S
C1582 C1583 1.355 . S
C1582 C1584 1.415 . S
C1583 C1582 1.355 . S
C1583 C1585 1.419 . S
C1584 C1582 1.415 . S
C1584 C1589 1.425 . S
C1584 C1591 1.409 . S
C1585 H1577 0.930 . S
C1585 C1583 1.419 . S
C1585 C1586 1.362 . S
C1586 H1578 0.930 . S
C1586 C1585 1.362 . S
C1586 C1589 1.409 . S
C1587 H1579 0.930 . S
C1587 C1588 1.355 . S
C1587 C1589 1.415 . S
C1588 C1587 1.355 . S
C1588 C1590 1.419 . S
C1589 C1584 1.425 . S
C1589 C1586 1.409 . S
C1589 C1587 1.415 . S
C1590 H1580 0.930 . S
C1590 C1588 1.419 . S
C1590 C1591 1.362 . S
C1591 H1581 0.930 . S
C1591 C1584 1.409 . S
C1591 C1590 1.362 . S
H1592 C1598 0.930 . S
H1593 C1601 0.930 . S
H1594 C1602 0.930 . S
H1595 C1603 0.930 . S
H1596 C1606 0.930 . S
H1597 C1607 0.930 . S
C1598 H1592 0.930 . S
C1598 C1599 1.355 . S
C1598 C1600 1.415 . S
C1599 C1598 1.355 . S
C1599 C1601 1.419 . S
C1600 C1598 1.415 . S
C1600 C1605 1.425 1_565 S
C1600 C1607 1.409 1_565 S
C1601 H1593 0.930 . S
C1601 C1599 1.419 . S
C1601 C1602 1.362 . S
C1602 H1594 0.930 . S
C1602 C1601 1.362 . S
C1602 C1605 1.409 1_565 S
C1603 H1595 0.930 . S
C1603 C1604 1.355 . S
C1603 C1605 1.415 . S
C1604 C1603 1.355 . S
C1604 C1606 1.419 . S
C1605 C1600 1.425 1_545 S
C1605 C1602 1.409 1_545 S
C1605 C1603 1.415 . S
C1606 H1596 0.930 . S
C1606 C1604 1.419 . S
C1606 C1607 1.362 . S
C1607 H1597 0.930 . S
C1607 C1600 1.409 1_545 S
C1607 C1606 1.362 . S
H1608 C1614 0.930 . S
H1609 C1617 0.930 . S
H1610 C1618 0.930 1_565 S
H1611 C1619 0.930 . S
H1612 C1622 0.930 . S
H1613 C1623 0.930 1_545 S
C1614 H1608 0.930 . S
C1614 C1615 1.355 . S
C1614 C1616 1.415 . S
C1615 C1614 1.355 . S
C1615 C1617 1.419 . S
C1616 C1614 1.415 . S
C1616 C1621 1.425 1_545 S
C1616 C1623 1.409 1_545 S
C1617 H1609 0.930 . S
C1617 C1615 1.419 . S
C1617 C1618 1.362 . S
C1618 H1610 0.930 1_545 S
C1618 C1617 1.362 . S
C1618 C1621 1.409 1_545 S
C1619 H1611 0.930 . S
C1619 C1620 1.355 . S
C1619 C1621 1.415 . S
C1620 C1619 1.355 . S
C1620 C1622 1.419 . S
C1621 C1616 1.425 1_565 S
C1621 C1618 1.409 1_565 S
C1621 C1619 1.415 . S
C1622 H1612 0.930 . S
C1622 C1620 1.419 . S
C1622 C1623 1.362 . S
C1623 H1613 0.930 1_565 S
C1623 C1616 1.409 1_565 S
C1623 C1622 1.362 . S
H1624 C1630 0.930 . S
H1625 C1633 0.930 . S
H1626 C1634 0.930 . S
H1627 C1635 0.930 . S
H1628 C1638 0.930 . S
H1629 C1639 0.930 . S
C1630 H1624 0.930 . S
C1630 C1631 1.355 . S
C1630 C1632 1.415 . S
C1631 C1630 1.355 . S
C1631 C1633 1.419 . S
C1632 C1630 1.415 . S
C1632 C1637 1.422 . S
C1632 C1639 1.409 1_455 S
C1633 H1625 0.930 . S
C1633 C1631 1.419 . S
C1633 C1634 1.362 . S
C1634 H1626 0.930 . S
C1634 C1633 1.362 . S
C1634 C1637 1.421 . S
C1635 H1627 0.930 . S
C1635 C1636 1.355 . S
C1635 C1637 1.406 1_655 S
C1636 C1635 1.355 . S
C1636 C1638 1.419 . S
C1637 C1632 1.422 . S
C1637 C1634 1.421 . S
C1637 C1635 1.406 1_455 S
C1638 H1628 0.930 . S
C1638 C1636 1.419 . S
C1638 C1639 1.362 . S
C1639 H1629 0.930 . S
C1639 C1632 1.409 1_655 S
C1639 C1638 1.362 . S
H1640 C1646 0.930 . S
H1641 C1649 0.930 . S
H1642 C1650 0.930 . S
H1643 C1651 0.930 . S
H1644 C1654 0.930 . S
H1645 C1655 0.930 . S
C1646 H1640 0.930 . S
C1646 C1647 1.355 . S
C1646 C1648 1.415 . S
C1647 C1646 1.355 . S
C1647 C1649 1.419 . S
C1648 C1646 1.415 . S
C1648 C1653 1.425 . S
C1648 C1655 1.409 . S
C1649 H1641 0.930 . S
C1649 C1647 1.419 . S
C1649 C1650 1.362 . S
C1650 H1642 0.930 . S
C1650 C1649 1.362 . S
C1650 C1653 1.409 . S
C1651 H1643 0.930 . S
C1651 C1652 1.355 . S
C1651 C1653 1.415 . S
C1652 C1651 1.355 . S
C1652 C1654 1.419 . S
C1653 C1648 1.425 . S
C1653 C1650 1.409 . S
C1653 C1651 1.415 . S
C1654 H1644 0.930 . S
C1654 C1652 1.419 . S
C1654 C1655 1.362 . S
C1655 H1645 0.930 . S
C1655 C1648 1.409 . S
C1655 C1654 1.362 . S
C511 C47 1.155 . S
C516 C5 0.992 . S
C527 C67 1.255 . S
C532 C25 1.266 . S
C543 C75 0.994 . S
C548 C33 1.147 . S
C559 C95 1.226 . S
C564 C137 1.250 . S
C575 C109 1.232 . S
C580 C151 1.192 . S
C591 C165 1.297 . S
C596 C123 1.283 . S
C607 C173 0.990 . S
C612 C215 1.160 . S
C623 C193 1.215 . S
C628 C235 1.187 . S
C639 C201 1.042 . S
C644 C243 1.139 . S
C655 C263 1.220 . S
C660 C305 1.256 . S
C671 C319 1.242 . S
C676 C277 1.196 . S
C687 C291 1.291 . S
C692 C333 1.245 . S
C703 C341 1.162 . S
C708 C383 1.000 . S
C719 C361 1.187 . S
C724 C403 1.215 . S
C735 C411 1.163 . S
C740 C369 0.984 . S
C751 C473 1.302 . S
C756 C431 1.262 . S
C767 C487 1.228 . S
C772 C445 1.185 . S
C783 C501 1.222 . S
C788 C459 1.244 . S
C799 C166 1.228 . S
C804 C12 1.237 . S
C815 C19 1.070 1_556 S
C820 C138 1.153 . S
C831 C40 1.173 . S
C836 C152 1.159 . S
C847 C110 1.176 . S
C852 C54 1.156 . S
C863 C61 1.051 . S
C868 C124 1.157 . S
C879 C96 1.236 . S
C884 C82 1.222 . S
C895 C88 1.377 . S
C900 C81 1.352 . S
C911 C102 1.431 . S
C916 C53 1.413 . S
C927 C68 1.383 . S
C932 C116 1.370 . S
C943 C26 1.401 . S
C948 C130 1.391 . S
C959 C39 1.402 . S
C964 C144 1.428 . S
C975 C158 1.393 . S
C980 C11 1.365 . S
C991 C180 1.203 . S
C996 C334 1.231 . S
C1007 C306 1.142 . S
C1012 C187 1.087 . S
C1023 C320 1.158 . S
C1028 C208 1.185 . S
C1039 C222 1.185 . S
C1044 C278 1.158 . S
C1055 C292 1.159 . S
C1060 C229 1.124 . S
C1071 C250 1.198 . S
C1076 C264 1.240 . S
C1087 C256 1.399 . S
C1092 C249 1.400 . S
C1103 C270 1.417 . S
C1108 C221 1.392 . S
C1119 C236 1.379 . S
C1124 C284 1.378 . S
C1135 C194 1.387 . S
C1140 C298 1.391 . S
C1151 C207 1.396 . S
C1156 C312 1.401 . S
C1167 C326 1.415 . S
C1172 C179 1.411 . S
C1183 C502 1.236 . S
C1188 C348 1.211 . S
C1199 C355 1.104 . S
C1204 C474 1.153 . S
C1215 C376 1.145 . S
C1220 C488 1.177 . S
C1231 C390 1.139 . S
C1236 C446 1.178 . S
C1247 C460 1.159 . S
C1252 C397 0.999 . S
C1263 C418 1.223 . S
C1268 C432 1.228 . S
C1279 C417 1.375 . S
C1284 C424 1.402 . S
C1295 C389 1.410 . S
C1300 C438 1.426 . S
C1311 C404 1.357 . S
C1316 C452 1.357 . S
C1327 C362 1.380 . S
C1332 C466 1.379 . S
C1343 C375 1.397 1_554 S
C1348 C480 1.401 . S
C1359 C347 1.352 1_554 S
C1364 C494 1.373 . S
C1375 C410 1.665 . S
C1380 C4 1.628 . S
C1391 C18 1.785 . S
C1396 C382 1.653 . S
C1407 C396 1.780 1_554 S
C1412 C32 1.650 . S
C1423 C46 1.698 . S
C1428 C186 1.786 . S
C1439 C200 1.679 . S
C1444 C60 1.784 . S
C1455 C74 1.697 . S
C1460 C172 1.621 . S
C1471 C89 1.006 . S
C1476 C327 1.012 1_556 S
C1487 C299 1.092 . S
C1492 C103 1.132 . S
C1503 C117 1.062 . S
C1508 C313 1.117 1_556 S
C1519 C131 1.000 . S
C1524 C439 1.069 . S
C1535 C145 1.131 . S
C1540 C453 1.109 . S
C1551 C425 1.099 . S
C1556 C159 1.145 . S
C1567 C354 1.781 . S
C1572 C214 1.697 . S
C1583 C368 1.634 . S
C1588 C228 1.783 . S
C1599 C340 1.630 . S
C1604 C242 1.696 . S
C1615 C257 1.082 . S
C1620 C495 1.023 . S
C1631 C467 1.003 . S
C1636 C271 1.072 . S
C1647 C285 1.061 . S
C1652 C481 1.005 . S
