# Generated by pormake.
# Topology sml, (6)-cn, num edge types: 1
# Building blocks:
#     Node 0, Type 0, BuildingBlock: MIFKUJ_clean_sbu_0, # of connection points: 6
#     Node 1, Type 0, BuildingBlock: MIFKUJ_clean_sbu_0, # of connection points: 6
#     Node 2, Type 0, BuildingBlock: MIFKUJ_clean_sbu_0, # of connection points: 6
#     Node 3, Type 0, BuildingBlock: MIFKUJ_clean_sbu_0, # of connection points: 6
#     Node 4, Type 0, BuildingBlock: MIFKUJ_clean_sbu_0, # of connection points: 6
#     Node 5, Type 0, BuildingBlock: MIFKUJ_clean_sbu_0, # of connection points: 6
#     Edge 6, Type (0, 0), BuildingBlock: TEMPAE_clean_linker_10, # of connection points: 2
#     Edge 7, Type (0, 0), BuildingBlock: TEMPAE_clean_linker_10, # of connection points: 2
#     Edge 8, Type (0, 0), BuildingBlock: TEMPAE_clean_linker_10, # of connection points: 2
#     Edge 9, Type (0, 0), BuildingBlock: TEMPAE_clean_linker_10, # of connection points: 2
#     Edge 10, Type (0, 0), BuildingBlock: TEMPAE_clean_linker_10, # of connection points: 2
#     Edge 11, Type (0, 0), BuildingBlock: TEMPAE_clean_linker_10, # of connection points: 2
#     Edge 12, Type (0, 0), BuildingBlock: TEMPAE_clean_linker_10, # of connection points: 2
#     Edge 13, Type (0, 0), BuildingBlock: TEMPAE_clean_linker_10, # of connection points: 2
#     Edge 14, Type (0, 0), BuildingBlock: TEMPAE_clean_linker_10, # of connection points: 2
#     Edge 15, Type (0, 0), BuildingBlock: TEMPAE_clean_linker_10, # of connection points: 2
#     Edge 16, Type (0, 0), BuildingBlock: TEMPAE_clean_linker_10, # of connection points: 2
#     Edge 17, Type (0, 0), BuildingBlock: TEMPAE_clean_linker_10, # of connection points: 2
#     Edge 18, Type (0, 0), BuildingBlock: TEMPAE_clean_linker_10, # of connection points: 2
#     Edge 19, Type (0, 0), BuildingBlock: TEMPAE_clean_linker_10, # of connection points: 2
#     Edge 20, Type (0, 0), BuildingBlock: TEMPAE_clean_linker_10, # of connection points: 2
#     Edge 21, Type (0, 0), BuildingBlock: TEMPAE_clean_linker_10, # of connection points: 2
#     Edge 22, Type (0, 0), BuildingBlock: TEMPAE_clean_linker_10, # of connection points: 2
#     Edge 23, Type (0, 0), BuildingBlock: TEMPAE_clean_linker_10, # of connection points: 2
# Relax obj value: 0.138
# Max RMSD: 0.177
# Mean RMSD: 0.177
data_MOF--net-sml--node1-MIFKUJ_clean_sbu_0--edge1-TEMPAE_clean_linker_10
_symmetry_space_group_name_H-M    P1
_symmetry_Int_Tables_number       1
_symmetry_cell_setting            triclinic
loop_
_symmetry_equiv_pos_as_xyz
'x, y, z'
_cell_length_a     38.73545
_cell_length_b     38.745235
_cell_length_c     18.342245
_cell_angle_alpha  90.032541
_cell_angle_beta   89.923753
_cell_angle_gamma 119.97994
loop_
_atom_site_label
_atom_site_type_symbol
_atom_site_fract_x
_atom_site_fract_y
_atom_site_fract_z
_atom_type_partial_charge
Zn0 Zn 0.21454 0.42614 0.07401 0.0
Zn1 Zn 0.19175 0.41189 0.90881 0.0
C2 C 0.22477 0.49757 0.1291 0.0
O3 O 0.25822 0.49857 0.14595 0.0
C4 C 0.19929 0.34362 0.88552 0.0
O5 O 0.16448 0.33226 0.85534 0.0
O6 O 0.23028 0.41847 0.17476 0.0
O7 O 0.16534 0.37247 0.05046 0.0
O8 O 0.13936 0.38961 0.9611 0.0
C9 C 0.20126 0.4021 0.21925 0.0
O10 O 0.16502 0.39021 0.19584 0.0
O11 O 0.19886 0.46822 0.09206 0.0
C12 C 0.21504 0.41793 0.76429 0.0
O13 O 0.24737 0.42492 0.79964 0.0
O14 O 0.18436 0.41192 0.80019 0.0
O15 O 0.23175 0.46835 0.93082 0.0
O16 O 0.26399 0.45202 0.00885 0.0
O17 O 0.21611 0.37632 0.92069 0.0
C18 C 0.13481 0.36878 0.01748 0.0
C19 C 0.26441 0.47482 0.95849 0.0
Zn20 Zn 0.79959 0.22299 0.43404 0.0
Zn21 Zn 0.78589 0.20357 0.27138 0.0
C22 C 0.73699 0.23389 0.48158 0.0
O23 O 0.76878 0.26712 0.50176 0.0
C24 C 0.85937 0.20795 0.23552 0.0
O25 O 0.83398 0.17353 0.20608 0.0
O26 O 0.81993 0.23724 0.53723 0.0
O27 O 0.80259 0.17343 0.40839 0.0
O28 O 0.757 0.15058 0.32253 0.0
C29 C 0.80953 0.20849 0.58163 0.0
O30 O 0.78956 0.17176 0.55733 0.0
O31 O 0.74171 0.20825 0.44624 0.0
C32 C 0.79924 0.22773 0.12668 0.0
O33 O 0.82538 0.25973 0.16183 0.0
O34 O 0.77495 0.19709 0.16305 0.0
O35 O 0.77297 0.24544 0.30285 0.0
O36 O 0.82663 0.27306 0.37091 0.0
O37 O 0.84581 0.22568 0.27464 0.0
C38 C 0.7746 0.14412 0.37469 0.0
C39 C 0.80241 0.27646 0.32897 0.0
Zn40 Zn 0.57698 0.79117 0.74592 0.0
Zn41 Zn 0.59466 0.78548 0.58316 0.0
C42 C 0.50174 0.72922 0.78413 0.0
O43 O 0.5005 0.76154 0.80118 0.0
C44 C 0.66154 0.86124 0.55348 0.0
O45 O 0.67229 0.83776 0.52131 0.0
O46 O 0.58111 0.80939 0.84975 0.0
O47 O 0.63095 0.79545 0.73019 0.0
O48 O 0.61752 0.75608 0.63561 0.0
C49 C 0.58418 0.78521 0.89248 0.0
O50 O 0.58641 0.75509 0.86482 0.0
O51 O 0.53283 0.73314 0.75262 0.0
C52 C 0.58031 0.79401 0.43858 0.0
O53 O 0.56727 0.81518 0.47235 0.0
O54 O 0.59439 0.77619 0.47575 0.0
O55 O 0.53804 0.76919 0.60563 0.0
O56 O 0.55518 0.81874 0.68152 0.0
O57 O 0.6297 0.84549 0.59131 0.0
C58 C 0.63651 0.77056 0.69442 0.0
C59 C 0.53207 0.79607 0.63182 0.0
Zn60 Zn 0.79293 0.57316 0.06998 0.0
Zn61 Zn 0.81499 0.59161 0.9079 0.0
C62 C 0.78826 0.49744 0.08474 0.0
O63 O 0.75008 0.48576 0.08573 0.0
C64 C 0.805 0.65852 0.88335 0.0
O65 O 0.84046 0.67157 0.85448 0.0
O66 O 0.7787 0.57405 0.17472 0.0
O67 O 0.83877 0.6292 0.05383 0.0
O68 O 0.86659 0.61501 0.96344 0.0
C69 C 0.80699 0.57901 0.21656 0.0
O70 O 0.84053 0.58466 0.18793 0.0
O71 O 0.81339 0.53398 0.07321 0.0
C72 C 0.79432 0.57766 0.76263 0.0
O73 O 0.75957 0.56305 0.79512 0.0
O74 O 0.82589 0.59309 0.80092 0.0
O75 O 0.77461 0.53439 0.92657 0.0
O76 O 0.74276 0.54942 0.00784 0.0
O77 O 0.78855 0.62521 0.91648 0.0
C78 C 0.86998 0.63477 0.02083 0.0
C79 C 0.742 0.52756 0.95541 0.0
Zn80 Zn 0.21475 0.78815 0.41464 0.0
Zn81 Zn 0.22276 0.81067 0.25293 0.0
C82 C 0.27767 0.77769 0.45651 0.0
O83 O 0.24569 0.74408 0.47454 0.0
C84 C 0.1467 0.80205 0.22599 0.0
O85 O 0.16981 0.83729 0.19695 0.0
O86 O 0.19655 0.77507 0.51895 0.0
O87 O 0.20851 0.83634 0.39535 0.0
O88 O 0.25162 0.86287 0.30623 0.0
C89 C 0.22001 0.8034 0.56067 0.0
O90 O 0.24917 0.836 0.53172 0.0
O91 O 0.27324 0.80389 0.42257 0.0
C92 C 0.21585 0.7887 0.10724 0.0
O93 O 0.19631 0.75396 0.13986 0.0
O94 O 0.2321 0.82029 0.14551 0.0
O95 O 0.2387 0.77005 0.27579 0.0
O96 O 0.18883 0.73812 0.3516 0.0
O97 O 0.16281 0.7853 0.26057 0.0
C98 C 0.23498 0.86707 0.36245 0.0
C99 C 0.21189 0.7374 0.30283 0.0
Zn100 Zn 0.42697 0.21248 0.74514 0.0
Zn101 Zn 0.41332 0.22093 0.58093 0.0
C102 C 0.49967 0.27353 0.79453 0.0
O103 O 0.50055 0.24098 0.81107 0.0
C104 C 0.34439 0.14498 0.56265 0.0
O105 O 0.33218 0.16796 0.53331 0.0
O106 O 0.41994 0.18986 0.8466 0.0
O107 O 0.37337 0.2083 0.72194 0.0
O108 O 0.39107 0.25134 0.63225 0.0
C109 C 0.40255 0.2014 0.89106 0.0
O110 O 0.38921 0.22456 0.86763 0.0
O111 O 0.46945 0.27014 0.76066 0.0
C112 C 0.4179 0.20221 0.4363 0.0
O113 O 0.42469 0.17674 0.47174 0.0
O114 O 0.41259 0.22735 0.4721 0.0
O115 O 0.46981 0.2372 0.60232 0.0
O116 O 0.45269 0.18853 0.6806 0.0
O117 O 0.37791 0.16133 0.59502 0.0
C118 C 0.36972 0.23495 0.68812 0.0
C119 C 0.47619 0.21118 0.6312 0.0
C120 C 0.31854 0.22957 0.77846 0.0
C121 C 0.342 0.24792 0.71652 0.0
C122 C 0.29454 0.24338 0.80964 0.0
C123 C 0.29332 0.27595 0.7775 0.0
C124 C 0.31604 0.29395 0.71385 0.0
C125 C 0.34021 0.27984 0.68432 0.0
C126 C 0.27084 0.22338 0.87752 0.0
C127 C 0.31514 0.32843 0.67738 0.0
C128 C 0.20552 0.29154 0.8155 0.0
C129 C 0.2219 0.32336 0.8652 0.0
C130 C 0.22817 0.27538 0.78758 0.0
C131 C 0.26818 0.29117 0.8102 0.0
C132 C 0.28449 0.32228 0.8624 0.0
C133 C 0.2612 0.33808 0.88915 0.0
C134 C 0.20967 0.24231 0.73189 0.0
C135 C 0.32694 0.3397 0.88838 0.0
H136 H 0.31924 0.20458 0.80338 0.0
H137 H 0.3581 0.2942 0.63643 0.0
H138 H 0.27946 0.24552 0.92217 0.0
H139 H 0.23861 0.21125 0.86708 0.0
H140 H 0.27543 0.19872 0.89637 0.0
H141 H 0.33368 0.33848 0.62719 0.0
H142 H 0.28406 0.3198 0.66283 0.0
H143 H 0.3261 0.35394 0.71567 0.0
H144 H 0.17524 0.27997 0.79639 0.0
H145 H 0.27419 0.3627 0.92736 0.0
H146 H 0.21258 0.21652 0.74967 0.0
H147 H 0.22568 0.25281 0.6792 0.0
H148 H 0.17762 0.23201 0.72267 0.0
H149 H 0.33201 0.31573 0.9093 0.0
H150 H 0.33446 0.36222 0.93207 0.0
H151 H 0.34771 0.35405 0.84204 0.0
C152 C 0.06058 0.34062 0.01727 0.0
C153 C 0.0944 0.34194 0.0479 0.0
C154 C 0.02271 0.31769 0.04917 0.0
C155 C 0.01856 0.29577 0.11361 0.0
C156 C 0.05242 0.29638 0.14402 0.0
C157 C 0.08978 0.31911 0.11048 0.0
C158 C 0.9872 0.31734 0.01447 0.0
C159 C 0.04932 0.27352 0.2127 0.0
C160 C 0.92763 0.26864 0.23209 0.0
C161 C 0.90159 0.2291 0.21105 0.0
C162 C 0.96607 0.29044 0.20191 0.0
C163 C 0.97878 0.27233 0.1493 0.0
C164 C 0.95306 0.23211 0.12943 0.0
C165 C 0.91488 0.21099 0.16061 0.0
C166 C 0.99269 0.33321 0.22484 0.0
C167 C 0.96538 0.21171 0.07348 0.0
H168 H 0.06372 0.35801 0.96888 0.0
H169 H 0.11554 0.31942 0.13417 0.0
H170 H 0.96397 0.28629 0.00159 0.0
H171 H 0.97383 0.32937 0.05322 0.0
H172 H 0.99521 0.33522 0.96354 0.0
H173 H 0.07853 0.27725 0.22963 0.0
H174 H 0.03751 0.28371 0.25788 0.0
H175 H 0.02807 0.24133 0.20442 0.0
H176 H 0.91763 0.28298 0.2707 0.0
H177 H 0.89501 0.18051 0.14375 0.0
H178 H 0.9988 0.35318 0.17733 0.0
H179 H 0.02178 0.33768 0.24419 0.0
H180 H 0.97916 0.34233 0.26883 0.0
H181 H 0.9703 0.22691 0.02006 0.0
H182 H 0.94263 0.17978 0.06641 0.0
H183 H 0.99396 0.21379 0.08955 0.0
C184 C 0.77981 0.09595 0.45903 0.0
C185 C 0.76093 0.1028 0.40001 0.0
C186 C 0.76536 0.0575 0.48755 0.0
C187 C 0.73155 0.02487 0.45565 0.0
C188 C 0.71294 0.03137 0.39491 0.0
C189 C 0.72775 0.07023 0.368 0.0
C190 C 0.78599 0.05188 0.55247 0.0
C191 C 0.67708 0.99728 0.35879 0.0
C192 C 0.71316 0.91976 0.48338 0.0
C193 C 0.6822 0.90432 0.53498 0.0
C194 C 0.72994 0.9591 0.4581 0.0
C195 C 0.7157 0.98386 0.48541 0.0
C196 C 0.68548 0.96897 0.53947 0.0
C197 C 0.669 0.92934 0.56345 0.0
C198 C 0.762 0.97374 0.40029 0.0
C199 C 0.6698 0.99458 0.57053 0.0
H200 H 0.8057 0.12076 0.48381 0.0
H201 H 0.71296 0.07512 0.32236 0.0
H202 H 0.7646 0.03841 0.59826 0.0
H203 H 0.79676 0.03101 0.53845 0.0
H204 H 0.81173 0.08039 0.57141 0.0
H205 H 0.66651 0.00717 0.3112 0.0
H206 H 0.68442 0.97444 0.34021 0.0
H207 H 0.65231 0.98271 0.39863 0.0
H208 H 0.72358 0.90072 0.46085 0.0
H209 H 0.6451 0.91771 0.60326 0.0
H210 H 0.78874 1.00153 0.41857 0.0
H211 H 0.75115 0.98093 0.34977 0.0
H212 H 0.77097 0.95135 0.38694 0.0
H213 H 0.69475 0.02286 0.59196 0.0
H214 H 0.64788 0.97936 0.61507 0.0
H215 H 0.6552 1.00248 0.52681 0.0
C216 C 0.68154 0.77037 0.79237 0.0
C217 C 0.66356 0.75711 0.72381 0.0
C218 C 0.70534 0.7562 0.82298 0.0
C219 C 0.71145 0.72813 0.78414 0.0
C220 C 0.69382 0.71497 0.71457 0.0
C221 C 0.6701 0.72959 0.68529 0.0
C222 C 0.7236 0.77096 0.89725 0.0
C223 C 0.6997 0.68512 0.67132 0.0
C224 C 0.79998 0.71453 0.82639 0.0
C225 C 0.78206 0.6788 0.8662 0.0
C226 C 0.77758 0.73152 0.80119 0.0
C227 C 0.73621 0.71236 0.81605 0.0
C228 C 0.71823 0.67715 0.85868 0.0
C229 C 0.74137 0.66082 0.88333 0.0
C230 C 0.79794 0.76923 0.75637 0.0
C231 C 0.67423 0.6559 0.87595 0.0
H232 H 0.6766 0.79151 0.82283 0.0
H233 H 0.65633 0.71909 0.63241 0.0
H234 H 0.7128 0.74554 0.93569 0.0
H235 H 0.75648 0.78481 0.89392 0.0
H236 H 0.71631 0.79313 0.92007 0.0
H237 H 0.68427 0.67818 0.61779 0.0
H238 H 0.73194 0.69674 0.66172 0.0
H239 H 0.68825 0.65702 0.70273 0.0
H240 H 0.8314 0.72874 0.81301 0.0
H241 H 0.72723 0.63319 0.91394 0.0
H242 H 0.79183 0.79207 0.77964 0.0
H243 H 0.78588 0.76298 0.70007 0.0
H244 H 0.83073 0.78182 0.75352 0.0
H245 H 0.66601 0.67684 0.90114 0.0
H246 H 0.6653 0.63029 0.91345 0.0
H247 H 0.65685 0.64473 0.8248 0.0
C248 C 0.08684 0.79763 0.16515 0.0
C249 C 0.10374 0.77949 0.20689 0.0
C250 C 0.0479 0.77548 0.13774 0.0
C251 C 0.02523 0.73413 0.15233 0.0
C252 C 0.04146 0.71594 0.19699 0.0
C253 C 0.0805 0.73884 0.22382 0.0
C254 C 0.03162 0.79605 0.09077 0.0
C255 C 0.01819 0.67195 0.21403 0.0
C256 C 0.91315 0.67986 0.12074 0.0
C257 C 0.90983 0.66188 0.0526 0.0
C258 C 0.95046 0.70354 0.15377 0.0
C259 C 0.98539 0.70956 0.11779 0.0
C260 C 0.98233 0.69198 0.04858 0.0
C261 C 0.94462 0.66835 0.01688 0.0
C262 C 0.95246 0.72172 0.22759 0.0
C263 C 0.01889 0.69779 0.00831 0.0
H264 H 0.10448 0.82902 0.1519 0.0
H265 H 0.09327 0.72451 0.25591 0.0
H266 H 0.02701 0.78415 0.0344 0.0
H267 H 1.0022 0.78996 0.11165 0.0
H268 H 0.05192 0.82882 0.08865 0.0
H269 H 0.03394 0.6629 0.25347 0.0
H270 H 0.98853 0.66385 0.23678 0.0
H271 H 0.01304 0.65458 0.1631 0.0
H272 H 0.88648 0.67495 0.14903 0.0
H273 H 0.94241 0.65459 0.96433 0.0
H274 H 0.9717 0.75458 0.22475 0.0
H275 H 0.96612 0.71072 0.26774 0.0
H276 H 0.92259 0.71459 0.24797 0.0
H277 H 0.03979 0.73001 -0.00062 0.0
H278 H 0.0115 0.68247 0.95462 0.0
H279 H 0.03478 0.68617 0.04157 0.0
C280 C 0.3412 0.07868 0.56171 0.0
C281 C 0.32394 0.10196 0.544 0.0
C282 C 0.32522 0.03964 0.53495 0.0
C283 C 0.29115 0.02346 0.48945 0.0
C284 C 0.27265 0.0462 0.47386 0.0
C285 C 0.28923 0.08511 0.50134 0.0
C286 C 0.3457 0.01627 0.55314 0.0
C287 C 0.2362 0.02999 0.42584 0.0
C288 C 0.27654 0.94169 0.35669 0.0
C289 C 0.24787 0.90727 0.39279 0.0
C290 C 0.2906 0.97968 0.38727 0.0
C291 C 0.2758 0.98338 0.45577 0.0
C292 C 0.24654 0.94883 0.49207 0.0
C293 C 0.23286 0.91126 0.46011 0.0
C294 C 0.32165 0.01588 0.34661 0.0
C295 C 0.23005 0.9515 0.56518 0.0
H296 H 0.36807 0.09142 0.59444 0.0
H297 H 0.27562 0.10279 0.48733 0.0
H298 H 0.32396 0.98678 0.57614 0.0
H299 H 0.35804 0.01078 0.50266 0.0
H300 H 0.37038 0.03211 0.59278 0.0
H301 H 0.22394 0.05046 0.42259 0.0
H302 H 0.24388 0.02512 0.36992 0.0
H303 H 0.21259 1.00072 0.44662 0.0
H304 H 0.28833 0.93896 0.30474 0.0
H305 H 0.21081 0.8849 0.48867 0.0
H306 H 0.34904 0.03185 0.3801 0.0
H307 H 0.31056 0.03689 0.33662 0.0
H308 H 0.32968 0.00803 0.29342 0.0
H309 H 0.2545 0.9653 0.6057 0.0
H310 H 0.20708 0.92185 0.58593 0.0
H311 H 0.21664 0.9709 0.56105 0.0
C312 C 0.23624 0.39958 0.64995 0.0
C313 C 0.21409 0.41451 0.6844 0.0
C314 C 0.23598 0.39596 0.57392 0.0
C315 C 0.21389 0.40863 0.53149 0.0
C316 C 0.19183 0.4242 0.56611 0.0
C317 C 0.19169 0.42635 0.64247 0.0
C318 C 0.25879 0.37804 0.53916 0.0
C319 C 0.16868 0.43888 0.52246 0.0
C320 C 0.24001 0.43389 0.33178 0.0
C321 C 0.20789 0.40131 0.2979 0.0
C322 C 0.24274 0.43644 0.40809 0.0
C323 C 0.21326 0.4051 0.45087 0.0
C324 C 0.18203 0.37112 0.41652 0.0
C325 C 0.17934 0.36997 0.34031 0.0
C326 C 0.27595 0.47353 0.44285 0.0
C327 C 0.15073 0.33658 0.46023 0.0
H328 H 0.2532 0.38995 0.68266 0.0
H329 H 0.1748 0.43813 0.66933 0.0
H330 H 0.2379 0.35059 0.50906 0.0
H331 H 0.28055 0.39907 0.49899 0.0
H332 H 0.27509 0.37039 0.57993 0.0
H333 H 0.15458 0.45177 0.55758 0.0
H334 H 0.18872 0.4619 0.48291 0.0
H335 H 0.145 0.41397 0.49061 0.0
H336 H 0.2617 0.45839 0.29877 0.0
H337 H 0.15451 0.34479 0.31377 0.0
H338 H 0.29253 0.46557 0.48227 0.0
H339 H 0.26316 0.48914 0.4738 0.0
H340 H 0.29732 0.49448 0.40194 0.0
H341 H 0.16507 0.32654 0.50083 0.0
H342 H 0.13078 0.31087 0.42515 0.0
H343 H 0.13224 0.34616 0.49081 0.0
C344 C 0.76806 0.20172 0.00482 0.0
C345 C 0.8017 0.22645 0.04662 0.0
C346 C 0.77071 0.2007 0.92853 0.0
C347 C 0.80811 0.2241 0.89386 0.0
C348 C 0.84221 0.24883 0.93611 0.0
C349 C 0.83849 0.25001 0.01194 0.0
C350 C 0.73351 0.1747 0.88501 0.0
C351 C 0.88282 0.27328 0.90158 0.0
C352 C 0.81812 0.18876 0.70626 0.0
C353 C 0.81397 0.21549 0.66084 0.0
C354 C 0.81773 0.19213 0.78234 0.0
C355 C 0.81165 0.22213 0.81347 0.0
C356 C 0.80803 0.24959 0.76772 0.0
C357 C 0.80982 0.24629 0.69177 0.0
C358 C 0.82297 0.16308 0.82933 0.0
C359 C 0.80077 0.28149 0.79891 0.0
H360 H 0.73961 0.18365 0.03168 0.0
H361 H 0.86472 0.26872 0.04435 0.0
H362 H 0.72906 0.19286 0.8433 0.0
H363 H 0.73677 0.15146 0.85567 0.0
H364 H 0.70647 0.15984 0.91991 0.0
H365 H 0.90559 0.2935 0.94134 0.0
H366 H 0.89259 0.25307 0.87846 0.0
H367 H 0.88161 0.29143 0.85601 0.0
H368 H 0.82133 0.16495 0.68215 0.0
H369 H 0.80598 0.26659 0.65654 0.0
H370 H 0.79517 0.14411 0.86031 0.0
H371 H 0.84706 0.17944 0.86972 0.0
H372 H 0.83032 0.14345 0.79668 0.0
H373 H 0.77242 0.26744 0.83016 0.0
H374 H 0.79908 0.30078 0.75593 0.0
H375 H 0.82492 0.30051 0.83746 0.0
C376 C 0.60919 0.78883 0.32059 0.0
C377 C 0.57995 0.79269 0.35856 0.0
C378 C 0.6102 0.78961 0.2442 0.0
C379 C 0.58058 0.79323 0.20537 0.0
C380 C 0.55067 0.7966 0.24364 0.0
C381 C 0.55104 0.79683 0.31999 0.0
C382 C 0.64297 0.78669 0.20507 0.0
C383 C 0.51795 0.79933 0.20402 0.0
C384 C 0.59981 0.82513 0.0069 0.0
C385 C 0.58178 0.78812 0.97187 0.0
C386 C 0.59968 0.82737 0.0833 0.0
C387 C 0.57999 0.79176 0.12466 0.0
C388 C 0.56043 0.75442 0.08901 0.0
C389 C 0.56209 0.75306 0.01299 0.0
C390 C 0.62151 0.86763 0.1198 0.0
C391 C 0.5381 0.71588 0.13112 0.0
H392 H 0.63181 0.78613 0.35065 0.0
H393 H 0.52831 0.79962 0.34961 0.0
H394 H 0.62999 0.75916 0.17165 0.0
H395 H 0.65892 0.81229 0.16734 0.0
H396 H 0.66493 0.78624 0.24339 0.0
H397 H 0.49684 0.80162 0.24206 0.0
H398 H 0.53099 0.82569 0.16755 0.0
H399 H 0.501 0.77263 0.16917 0.0
H400 H 0.61514 0.85215 0.97473 0.0
H401 H 0.54768 0.72444 0.98551 0.0
H402 H 0.64556 0.86922 0.15495 0.0
H403 H 0.60089 0.87197 0.15559 0.0
H404 H 0.63493 0.89245 0.07976 0.0
H405 H 0.55917 0.71158 0.16555 0.0
H406 H 0.52223 0.68961 0.09473 0.0
H407 H 0.51601 0.71704 0.16813 0.0
C408 C 0.82819 0.6071 0.64477 0.0
C409 C 0.79608 0.57664 0.68277 0.0
C410 C 0.8288 0.6074 0.56835 0.0
C411 C 0.79711 0.57586 0.52964 0.0
C412 C 0.76504 0.54459 0.56802 0.0
C413 C 0.76464 0.54568 0.6443 0.0
C414 C 0.86307 0.64165 0.52903 0.0
C415 C 0.73137 0.50986 0.52861 0.0
C416 C 0.78094 0.59197 0.33147 0.0
C417 C 0.80232 0.57657 0.29606 0.0
C418 C 0.77905 0.59208 0.40788 0.0
C419 C 0.79793 0.57522 0.44895 0.0
C420 C 0.81828 0.5583 0.41298 0.0
C421 C 0.82077 0.55979 0.33687 0.0
C422 C 0.75783 0.61112 0.44466 0.0
C423 C 0.83767 0.53891 0.45479 0.0
H424 H 0.85226 0.63123 0.67478 0.0
H425 H 0.73993 0.52199 0.674 0.0
H426 H 0.87927 0.63047 0.49549 0.0
H427 H 0.85157 0.65597 0.49137 0.0
H428 H 0.88453 0.66458 0.56722 0.0
H429 H 0.70923 0.48745 0.56679 0.0
H430 H 0.71579 0.52061 0.49244 0.0
H431 H 0.74341 0.49499 0.49349 0.0
H432 H 0.76693 0.60513 0.29955 0.0
H433 H 0.83695 0.54749 0.30913 0.0
H434 H 0.77902 0.63597 0.48 0.0
H435 H 0.73368 0.58917 0.4803 0.0
H436 H 0.74473 0.62292 0.4048 0.0
H437 H 0.86231 0.56149 0.4887 0.0
H438 H 0.84988 0.52472 0.41819 0.0
H439 H 0.81575 0.51589 0.49227 0.0
C440 C 0.18133 0.7776 0.67636 0.0
C441 C 0.21794 0.79887 0.64031 0.0
C442 C 0.17978 0.77523 0.75283 0.0
C443 C 0.21576 0.79354 0.79325 0.0
C444 C 0.25279 0.81395 0.7566 0.0
C445 C 0.25338 0.81685 0.68057 0.0
C446 C 0.13975 0.75394 0.7904 0.0
C447 C 0.29181 0.83283 0.79762 0.0
C448 C 0.21751 0.82272 0.99108 0.0
C449 C 0.21676 0.79054 0.0272 0.0
C450 C 0.21603 0.82351 0.91475 0.0
C451 C 0.21494 0.79191 0.87402 0.0
C452 C 0.21476 0.75963 0.91041 0.0
C453 C 0.21509 0.75907 0.98677 0.0
C454 C 0.21545 0.85802 0.87772 0.0
C455 C 0.21484 0.72603 0.86874 0.0
H456 H 0.15399 0.76386 0.64494 0.0
H457 H 0.28174 0.83285 0.6524 0.0
H458 H 0.13755 0.72929 0.82451 0.0
H459 H 0.13656 0.77486 0.82737 0.0
H460 H 0.1146 0.74149 0.75106 0.0
H461 H 0.31801 0.84569 0.7605 0.0
H462 H 0.29399 0.85688 0.83352 0.0
H463 H 0.29323 0.81038 0.8331 0.0
H464 H 0.21826 0.84678 0.02256 0.0
H465 H 0.21464 0.73424 0.01494 0.0
H466 H 0.1893 0.8468 0.84094 0.0
H467 H 0.24251 0.87465 0.84357 0.0
H468 H 0.21421 0.87905 0.91742 0.0
H469 H 0.18826 0.71125 0.83298 0.0
H470 H 0.21493 0.70327 0.90542 0.0
H471 H 0.2415 0.73805 0.83297 0.0
C472 C 0.42567 0.23391 0.31449 0.0
C473 C 0.41443 0.19973 0.35635 0.0
C474 C 0.42352 0.2317 0.23812 0.0
C475 C 0.40861 0.19422 0.20337 0.0
C476 C 0.39651 0.15952 0.2457 0.0
C477 C 0.40009 0.16279 0.32176 0.0
C478 C 0.43751 0.26948 0.19462 0.0
C479 C 0.3793 0.11891 0.2108 0.0
C480 C 0.37001 0.19005 0.01211 0.0
C481 C 0.40179 0.19379 0.96971 0.0
C482 C 0.371 0.18814 0.0883 0.0
C483 C 0.40521 0.19144 0.12271 0.0
C484 C 0.43698 0.1942 0.07992 0.0
C485 C 0.43461 0.19476 0.00361 0.0
C486 C 0.33602 0.18393 0.13197 0.0
C487 C 0.4743 0.19865 0.11473 0.0
H488 H 0.43698 0.26247 0.3414 0.0
H489 H 0.39094 0.13625 0.35436 0.0
H490 H 0.46079 0.27304 0.15509 0.0
H491 H 0.41237 0.26773 0.16276 0.0
H492 H 0.44987 0.29638 0.22984 0.0
H493 H 0.3716 0.09494 0.25157 0.0
H494 H 0.352 0.11208 0.17991 0.0
H495 H 0.40084 0.1186 0.1713 0.0
H496 H 0.3446 0.18924 0.9856 0.0
H497 H 0.45942 0.19823 0.97065 0.0
H498 H 0.34495 0.2118 0.16272 0.0
H499 H 0.32641 0.15953 0.17242 0.0
H500 H 0.31019 0.17769 0.09684 0.0
H501 H 0.48946 0.22699 0.14584 0.0
H502 H 0.49552 0.19875 0.07382 0.0
H503 H 0.46667 0.17412 0.154 0.0
C504 C 0.24251 0.55571 0.21011 0.0
C505 C 0.21756 0.52951 0.15603 0.0
C506 C 0.23747 0.58699 0.23573 0.0
C507 C 0.20692 0.59261 0.20616 0.0
C508 C 0.18096 0.56575 0.15272 0.0
C509 C 0.18646 0.53432 0.12849 0.0
C510 C 0.26566 0.61473 0.29311 0.0
C511 C 0.14823 0.57098 0.11957 0.0
C512 C 0.1836 0.6632 0.31209 0.0
C513 C 0.20809 0.69944 0.27642 0.0
C514 C 0.18172 0.62772 0.28839 0.0
C515 C 0.20459 0.62854 0.22731 0.0
C516 C 0.22822 0.66479 0.1897 0.0
C517 C 0.2299 0.69972 0.21497 0.0
C518 C 0.15636 0.58966 0.33012 0.0
C519 C 0.25286 0.66703 0.12403 0.0
H520 H 0.2663 0.55194 0.23248 0.0
H521 H 0.167 0.51411 0.08688 0.0
H522 H 0.28404 0.645 0.26975 0.0
H523 H 0.24864 0.61724 0.3395 0.0
H524 H 0.28595 0.60456 0.31429 0.0
H525 H 0.12874 0.54594 0.08281 0.0
H526 H 0.1296 0.57338 0.16303 0.0
H527 H 0.16153 0.59911 0.08783 0.0
H528 H 0.16663 0.66271 0.3595 0.0
H529 H 0.24874 0.72747 0.18659 0.0
H530 H 0.17579 0.58005 0.35707 0.0
H531 H 0.13647 0.56547 0.29237 0.0
H532 H 0.13785 0.59322 0.37247 0.0
H533 H 0.27686 0.66102 0.14093 0.0
H534 H 0.26679 0.69668 0.09712 0.0
H535 H 0.23413 0.64398 0.08347 0.0
C536 C 0.66213 0.19224 0.4795 0.0
C537 C 0.69687 0.22643 0.5029 0.0
C538 C 0.62421 0.18547 0.5001 0.0
C539 C 0.62106 0.21344 0.54532 0.0
C540 C 0.65606 0.24764 0.56989 0.0
C541 C 0.69342 0.25374 0.54826 0.0
C542 C 0.58753 0.14877 0.47255 0.0
C543 C 0.65409 0.27822 0.6182 0.0
C544 C 0.53032 0.2263 0.54143 0.0
C545 C 0.51115 0.20822 0.60707 0.0
C546 C 0.56508 0.22657 0.51919 0.0
C547 C 0.5814 0.20856 0.56388 0.0
C548 C 0.56148 0.18902 0.62902 0.0
C549 C 0.52643 0.18893 0.64974 0.0
C550 C 0.58515 0.2475 0.44911 0.0
C551 C 0.57807 0.16962 0.67822 0.0
H552 H 0.66453 0.17094 0.44464 0.0
H553 H 0.72004 0.28013 0.56709 0.0
H554 H 0.56813 0.13163 0.51896 0.0
H555 H 0.57 0.15764 0.43736 0.0
H556 H 0.59502 0.12897 0.44072 0.0
H557 H 0.68408 0.30219 0.6354 0.0
H558 H 0.63904 0.29205 0.58882 0.0
H559 H 0.63619 0.26367 0.6677 0.0
H560 H 0.51841 0.24083 0.50757 0.0
H561 H 0.51175 0.17488 0.70046 0.0
H562 H 0.59114 0.22767 0.41424 0.0
H563 H 0.6143 0.27423 0.46157 0.0
H564 H 0.5669 0.25707 0.41762 0.0
H565 H 0.5845 0.14908 0.6465 0.0
H566 H 0.55733 0.1527 0.72339 0.0
H567 H 0.60665 0.19281 0.70209 0.0
C568 C 0.33758 0.52429 0.97097 0.0
C569 C 0.30217 0.50857 0.93068 0.0
C570 C 0.37249 0.55825 0.94643 0.0
C571 C 0.37192 0.57653 0.87981 0.0
C572 C 0.33671 0.55961 0.8375 0.0
C573 C 0.30232 0.52604 0.86356 0.0
C574 C 0.40943 0.57556 0.99321 0.0
C575 C 0.33483 0.57791 0.76596 0.0
C576 C 0.43913 0.6878 0.85418 0.0
C577 C 0.46899 0.68976 0.80801 0.0
C578 C 0.40815 0.65122 0.8794 0.0
C579 C 0.40659 0.61545 0.85748 0.0
C580 C 0.43674 0.61709 0.81128 0.0
C581 C 0.46774 0.6543 0.78728 0.0
C582 C 0.37674 0.65088 0.92884 0.0
C583 C 0.43586 0.57953 0.78633 0.0
H584 H 0.33769 0.51089 0.02276 0.0
H585 H 0.27523 0.51375 0.8315 0.0
H586 H 0.43562 0.58078 0.96019 0.0
H587 H 0.41571 0.60486 0.01502 0.0
H588 H 0.40623 0.55586 0.0398 0.0
H589 H 0.30644 0.55903 0.73645 0.0
H590 H 0.33765 0.60745 0.77614 0.0
H591 H 0.35998 0.58276 0.73018 0.0
H592 H 0.43997 0.715 0.87116 0.0
H593 H 0.49079 0.65558 0.7519 0.0
H594 H 0.37424 0.63425 0.97964 0.0
H595 H 0.34728 0.63534 0.90149 0.0
H596 H 0.38336 0.68138 0.94373 0.0
H597 H 0.43438 0.5613 0.83411 0.0
H598 H 0.46239 0.5859 0.75309 0.0
H599 H 0.4087 0.56129 0.75331 0.0
C600 C 0.84193 0.33855 0.25721 0.0
C601 C 0.80979 0.3155 0.30358 0.0
C602 C 0.84448 0.37152 0.22015 0.0
C603 C 0.81479 0.38214 0.23188 0.0
C604 C 0.78382 0.36037 0.28281 0.0
C605 C 0.78124 0.32676 0.31688 0.0
C606 C 0.87729 0.39319 0.16495 0.0
C607 C 0.75228 0.37137 0.29877 0.0
C608 C 0.82778 0.48186 0.17163 0.0
C609 C 0.80125 0.47018 0.11281 0.0
C610 C 0.83372 0.4538 0.20978 0.0
C611 C 0.81369 0.41352 0.18668 0.0
C612 C 0.78916 0.40236 0.12383 0.0
C613 C 0.78251 0.43068 0.08866 0.0
C614 C 0.85896 0.46672 0.27785 0.0
C615 C 0.76825 0.36004 0.0959 0.0
H616 H 0.86366 0.32932 0.24645 0.0
H617 H 0.75631 0.3086 0.35262 0.0
H618 H 0.86428 0.38699 0.10935 0.0
H619 H 0.89212 0.42586 0.17349 0.0
H620 H 0.90013 0.38386 0.16743 0.0
H621 H 0.73339 0.35468 0.34614 0.0
H622 H 0.76627 0.40377 0.30999 0.0
H623 H 0.73273 0.36476 0.25049 0.0
H624 H 0.8417 0.51233 0.19102 0.0
H625 H 0.76184 0.42174 0.04333 0.0
H626 H 0.8801 0.45529 0.27789 0.0
H627 H 0.8394 0.45402 0.3263 0.0
H628 H 0.87607 0.49967 0.28369 0.0
H629 H 0.7894 0.34864 0.09247 0.0
H630 H 0.75479 0.35749 0.04129 0.0
H631 H 0.7442 0.34057 0.13435 0.0
C632 C 0.35264 0.81811 0.45581 0.0
C633 C 0.31727 0.78553 0.48171 0.0
C634 C 0.39003 0.82484 0.47986 0.0
C635 C 0.3919 0.7986 0.53146 0.0
C636 C 0.35622 0.76637 0.55914 0.0
C637 C 0.31947 0.76014 0.5337 0.0
C638 C 0.42747 0.85933 0.44874 0.0
C639 C 0.3568 0.7378 0.61454 0.0
C640 C 0.4785 0.77951 0.54031 0.0
C641 C 0.49833 0.80004 0.60385 0.0
C642 C 0.44523 0.78074 0.51401 0.0
C643 C 0.43078 0.8025 0.55279 0.0
C644 C 0.45128 0.82436 0.61575 0.0
C645 C 0.48503 0.82305 0.64039 0.0
C646 C 0.42456 0.75729 0.44629 0.0
C647 C 0.4366 0.84772 0.65873 0.0
H648 H 0.35114 0.83794 0.41591 0.0
H649 H 0.29232 0.73518 0.55485 0.0
H650 H 0.44749 0.87783 0.49336 0.0
H651 H 0.44388 0.84787 0.41649 0.0
H652 H 0.42102 0.87854 0.41296 0.0
H653 H 0.32646 0.71584 0.63414 0.0
H654 H 0.3705 0.72127 0.59006 0.0
H655 H 0.37525 0.75443 0.66219 0.0
H656 H 0.48866 0.76184 0.51126 0.0
H657 H 0.50021 0.83903 0.68941 0.0
H658 H 0.41937 0.77614 0.40738 0.0
H659 H 0.39501 0.73177 0.4612 0.0
H660 H 0.442 0.74556 0.41819 0.0
H661 H 0.43133 0.86737 0.62203 0.0
H662 H 0.45798 0.86626 0.70187 0.0
H663 H 0.4077 0.82688 0.6849 0.0
C664 C 0.66855 0.47976 0.96907 0.0
C665 C 0.70404 0.49332 0.92954 0.0
C666 C 0.63314 0.44587 0.94642 0.0
C667 C 0.6332 0.42543 0.88237 0.0
C668 C 0.66857 0.43996 0.84081 0.0
C669 C 0.70355 0.47345 0.8652 0.0
C670 C 0.59608 0.43108 0.99248 0.0
C671 C 0.66989 0.41933 0.77181 0.0
C672 C 0.56186 0.31438 0.86569 0.0
C673 C 0.5329 0.31279 0.81774 0.0
C674 C 0.59397 0.35085 0.88843 0.0
C675 C 0.59755 0.38683 0.8622 0.0
C676 C 0.56823 0.38558 0.81439 0.0
C677 C 0.53608 0.34851 0.79292 0.0
C678 C 0.62444 0.35081 0.93978 0.0
C679 C 0.57129 0.42336 0.78484 0.0
H680 H 0.66867 0.49496 0.01878 0.0
H681 H 0.73074 0.48379 0.83396 0.0
H682 H 0.57052 0.42646 0.95827 0.0
H683 H 0.58827 0.40183 0.01676 0.0
H684 H 0.60001 0.45206 0.03725 0.0
H685 H 0.69848 0.43672 0.7419 0.0
H686 H 0.66604 0.38971 0.78548 0.0
H687 H 0.6451 0.41429 0.73499 0.0
H688 H 0.55952 0.28697 0.88573 0.0
H689 H 0.5138 0.3475 0.75593 0.0
H690 H 0.62779 0.36916 0.98859 0.0
H691 H 0.65393 0.36433 0.91246 0.0
H692 H 0.61626 0.32032 0.95798 0.0
H693 H 0.57376 0.44335 0.83033 0.0
H694 H 0.5452 0.4174 0.75073 0.0
H695 H 0.5987 0.43957 0.75136 0.0
loop_
_geom_bond_atom_site_label_1
_geom_bond_atom_site_label_2
_geom_bond_distance
_geom_bond_site_symmetry_2
_ccdc_geom_bond_type
Zn0 O6 1.969 . S
Zn0 O7 1.965 . S
Zn0 O11 2.024 . S
Zn0 O16 1.969 . S
Zn1 O8 1.969 . S
Zn1 O14 1.969 . S
Zn1 O15 1.965 . S
Zn1 O17 2.024 . S
C2 O3 1.229 . S
C2 O11 1.058 . S
O3 C2 1.229 . S
C4 O5 1.229 . S
C4 O17 1.058 . S
O5 C4 1.229 . S
O6 Zn0 1.969 . S
O6 C9 1.267 . S
O7 Zn0 1.965 . S
O7 C18 1.260 . S
O8 Zn1 1.969 . S
O8 C18 1.258 1_556 S
C9 O6 1.267 . S
C9 O10 1.228 . S
O10 C9 1.228 . S
O11 Zn0 2.024 . S
O11 C2 1.058 . S
C12 O13 1.228 . S
C12 O14 1.267 . S
O13 C12 1.228 . S
O14 Zn1 1.969 . S
O14 C12 1.267 . S
O15 Zn1 1.965 . S
O15 C19 1.260 . S
O16 Zn0 1.969 . S
O16 C19 1.258 1_554 S
O17 Zn1 2.024 . S
O17 C4 1.058 . S
C18 O7 1.260 . S
C18 O8 1.258 1_554 S
C19 O15 1.260 . S
C19 O16 1.258 1_556 S
Zn20 O26 1.969 . S
Zn20 O27 1.965 . S
Zn20 O31 2.024 . S
Zn20 O36 1.969 . S
Zn21 O28 1.969 . S
Zn21 O34 1.969 . S
Zn21 O35 1.965 . S
Zn21 O37 2.024 . S
C22 O23 1.229 . S
C22 O31 1.058 . S
O23 C22 1.229 . S
C24 O25 1.229 . S
C24 O37 1.058 . S
O25 C24 1.229 . S
O26 Zn20 1.969 . S
O26 C29 1.267 . S
O27 Zn20 1.965 . S
O27 C38 1.260 . S
O28 Zn21 1.969 . S
O28 C38 1.258 . S
C29 O26 1.267 . S
C29 O30 1.228 . S
O30 C29 1.228 . S
O31 Zn20 2.024 . S
O31 C22 1.058 . S
C32 O33 1.228 . S
C32 O34 1.267 . S
O33 C32 1.228 . S
O34 Zn21 1.969 . S
O34 C32 1.267 . S
O35 Zn21 1.965 . S
O35 C39 1.260 . S
O36 Zn20 1.969 . S
O36 C39 1.258 . S
O37 Zn21 2.024 . S
O37 C24 1.058 . S
C38 O27 1.260 . S
C38 O28 1.258 . S
C39 O35 1.260 . S
C39 O36 1.258 . S
Zn40 O46 1.969 . S
Zn40 O47 1.965 . S
Zn40 O51 2.024 . S
Zn40 O56 1.969 . S
Zn41 O48 1.969 . S
Zn41 O54 1.969 . S
Zn41 O55 1.965 . S
Zn41 O57 2.024 . S
C42 O43 1.229 . S
C42 O51 1.058 . S
O43 C42 1.229 . S
C44 O45 1.229 . S
C44 O57 1.058 . S
O45 C44 1.229 . S
O46 Zn40 1.969 . S
O46 C49 1.267 . S
O47 Zn40 1.965 . S
O47 C58 1.260 . S
O48 Zn41 1.969 . S
O48 C58 1.258 . S
C49 O46 1.267 . S
C49 O50 1.228 . S
O50 C49 1.228 . S
O51 Zn40 2.024 . S
O51 C42 1.058 . S
C52 O53 1.228 . S
C52 O54 1.267 . S
O53 C52 1.228 . S
O54 Zn41 1.969 . S
O54 C52 1.267 . S
O55 Zn41 1.965 . S
O55 C59 1.260 . S
O56 Zn40 1.969 . S
O56 C59 1.258 . S
O57 Zn41 2.024 . S
O57 C44 1.058 . S
C58 O47 1.260 . S
C58 O48 1.258 . S
C59 O55 1.260 . S
C59 O56 1.258 . S
Zn60 O66 1.969 . S
Zn60 O67 1.965 . S
Zn60 O71 2.024 . S
Zn60 O76 1.969 . S
Zn61 O68 1.969 . S
Zn61 O74 1.969 . S
Zn61 O75 1.965 . S
Zn61 O77 2.024 . S
C62 O63 1.229 . S
C62 O71 1.058 . S
O63 C62 1.229 . S
C64 O65 1.229 . S
C64 O77 1.058 . S
O65 C64 1.229 . S
O66 Zn60 1.969 . S
O66 C69 1.267 . S
O67 Zn60 1.965 . S
O67 C78 1.260 . S
O68 Zn61 1.969 . S
O68 C78 1.258 1_556 S
C69 O66 1.267 . S
C69 O70 1.228 . S
O70 C69 1.228 . S
O71 Zn60 2.024 . S
O71 C62 1.058 . S
C72 O73 1.228 . S
C72 O74 1.267 . S
O73 C72 1.228 . S
O74 Zn61 1.969 . S
O74 C72 1.267 . S
O75 Zn61 1.965 . S
O75 C79 1.260 . S
O76 Zn60 1.969 . S
O76 C79 1.258 1_554 S
O77 Zn61 2.024 . S
O77 C64 1.058 . S
C78 O67 1.260 . S
C78 O68 1.258 1_554 S
C79 O75 1.260 . S
C79 O76 1.258 1_556 S
Zn80 O86 1.969 . S
Zn80 O87 1.965 . S
Zn80 O91 2.024 . S
Zn80 O96 1.969 . S
Zn81 O88 1.969 . S
Zn81 O94 1.969 . S
Zn81 O95 1.965 . S
Zn81 O97 2.024 . S
C82 O83 1.229 . S
C82 O91 1.058 . S
O83 C82 1.229 . S
C84 O85 1.229 . S
C84 O97 1.058 . S
O85 C84 1.229 . S
O86 Zn80 1.969 . S
O86 C89 1.267 . S
O87 Zn80 1.965 . S
O87 C98 1.260 . S
O88 Zn81 1.969 . S
O88 C98 1.258 . S
C89 O86 1.267 . S
C89 O90 1.228 . S
O90 C89 1.228 . S
O91 Zn80 2.024 . S
O91 C82 1.058 . S
C92 O93 1.228 . S
C92 O94 1.267 . S
O93 C92 1.228 . S
O94 Zn81 1.969 . S
O94 C92 1.267 . S
O95 Zn81 1.965 . S
O95 C99 1.260 . S
O96 Zn80 1.969 . S
O96 C99 1.258 . S
O97 Zn81 2.024 . S
O97 C84 1.058 . S
C98 O87 1.260 . S
C98 O88 1.258 . S
C99 O95 1.260 . S
C99 O96 1.258 . S
Zn100 O106 1.969 . S
Zn100 O107 1.965 . S
Zn100 O111 2.024 . S
Zn100 O116 1.969 . S
Zn101 O108 1.969 . S
Zn101 O114 1.969 . S
Zn101 O115 1.965 . S
Zn101 O117 2.024 . S
C102 O103 1.229 . S
C102 O111 1.058 . S
O103 C102 1.229 . S
C104 O105 1.229 . S
C104 O117 1.058 . S
O105 C104 1.229 . S
O106 Zn100 1.969 . S
O106 C109 1.267 . S
O107 Zn100 1.965 . S
O107 C118 1.260 . S
O108 Zn101 1.969 . S
O108 C118 1.258 . S
C109 O106 1.267 . S
C109 O110 1.228 . S
O110 C109 1.228 . S
O111 Zn100 2.024 . S
O111 C102 1.058 . S
C112 O113 1.228 . S
C112 O114 1.267 . S
O113 C112 1.228 . S
O114 Zn101 1.969 . S
O114 C112 1.267 . S
O115 Zn101 1.965 . S
O115 C119 1.260 . S
O116 Zn100 1.969 . S
O116 C119 1.258 . S
O117 Zn101 2.024 . S
O117 C104 1.058 . S
C118 O107 1.260 . S
C118 O108 1.258 . S
C119 O115 1.260 . S
C119 O116 1.258 . S
C120 C121 1.391 . S
C120 C122 1.394 . S
C120 H136 0.931 . S
C121 C120 1.391 . S
C121 C125 1.376 . S
C122 C120 1.394 . S
C122 C123 1.369 . S
C122 C126 1.531 . S
C123 C122 1.369 . S
C123 C124 1.410 . S
C123 C131 1.503 . S
C124 C123 1.410 . S
C124 C125 1.392 . S
C124 C127 1.511 . S
C125 C121 1.376 . S
C125 C124 1.392 . S
C125 H137 0.929 . S
C126 C122 1.531 . S
C126 H138 0.960 . S
C126 H139 0.962 . S
C126 H140 0.960 . S
C127 C124 1.511 . S
C127 H141 0.961 . S
C127 H142 0.961 . S
C127 H143 0.961 . S
C128 C129 1.370 . S
C128 C130 1.363 . S
C128 H144 0.931 . S
C129 C128 1.370 . S
C129 C133 1.408 . S
C130 C128 1.363 . S
C130 C131 1.370 . S
C130 C134 1.524 . S
C131 C123 1.503 . S
C131 C130 1.370 . S
C131 C132 1.403 . S
C132 C131 1.403 . S
C132 C133 1.404 . S
C132 C135 1.539 . S
C133 C129 1.408 . S
C133 C132 1.404 . S
C133 H145 0.930 . S
C134 C130 1.524 . S
C134 H146 0.956 . S
C134 H147 0.961 . S
C134 H148 0.961 . S
C135 C132 1.539 . S
C135 H149 0.958 . S
C135 H150 0.961 1_556 S
C135 H151 0.960 . S
H136 C120 0.931 . S
H137 C125 0.929 . S
H138 C126 0.960 . S
H139 C126 0.962 . S
H140 C126 0.960 . S
H141 C127 0.961 . S
H142 C127 0.961 . S
H143 C127 0.961 . S
H144 C128 0.931 . S
H145 C133 0.930 . S
H146 C134 0.956 . S
H147 C134 0.961 . S
H148 C134 0.961 . S
H149 C135 0.958 . S
H150 C135 0.961 1_554 S
H151 C135 0.960 . S
C152 C153 1.391 . S
C152 C154 1.394 . S
C152 H168 0.931 1_554 S
C153 C152 1.391 . S
C153 C157 1.376 . S
C154 C152 1.394 . S
C154 C155 1.369 . S
C154 C158 1.531 . S
C155 C154 1.369 . S
C155 C156 1.410 . S
C155 C163 1.503 . S
C156 C155 1.410 . S
C156 C157 1.392 . S
C156 C159 1.511 . S
C157 C153 1.376 . S
C157 C156 1.392 . S
C157 H169 0.929 . S
C158 C154 1.531 . S
C158 H170 0.960 1_455 S
C158 H171 0.962 . S
C158 H172 0.960 1_554 S
C159 C156 1.511 . S
C159 H173 0.961 . S
C159 H174 0.961 . S
C159 H175 0.961 . S
C160 C161 1.370 . S
C160 C162 1.363 . S
C160 H176 0.931 . S
C161 C160 1.370 . S
C161 C165 1.408 . S
C162 C160 1.363 . S
C162 C163 1.370 1_655 S
C162 C166 1.524 1_655 S
C163 C155 1.503 . S
C163 C162 1.370 1_455 S
C163 C164 1.403 1_455 S
C164 C163 1.403 1_655 S
C164 C165 1.404 . S
C164 C167 1.539 . S
C165 C161 1.408 . S
C165 C164 1.404 . S
C165 H177 0.930 . S
C166 C162 1.524 1_455 S
C166 H178 0.956 . S
C166 H179 0.961 . S
C166 H180 0.961 1_455 S
C167 C164 1.539 . S
C167 H181 0.958 . S
C167 H182 0.961 . S
C167 H183 0.960 1_655 S
H168 C152 0.931 1_556 S
H169 C157 0.929 . S
H170 C158 0.960 1_655 S
H171 C158 0.962 . S
H172 C158 0.960 1_556 S
H173 C159 0.961 . S
H174 C159 0.961 . S
H175 C159 0.961 . S
H176 C160 0.931 . S
H177 C165 0.930 . S
H178 C166 0.956 . S
H179 C166 0.961 . S
H180 C166 0.961 1_655 S
H181 C167 0.958 . S
H182 C167 0.961 . S
H183 C167 0.960 1_455 S
C184 C185 1.391 . S
C184 C186 1.394 . S
C184 H200 0.931 . S
C185 C184 1.391 . S
C185 C189 1.376 . S
C186 C184 1.394 . S
C186 C187 1.369 . S
C186 C190 1.531 . S
C187 C186 1.369 . S
C187 C188 1.410 . S
C187 C195 1.503 . S
C188 C187 1.410 . S
C188 C189 1.392 . S
C188 C191 1.511 . S
C189 C185 1.376 . S
C189 C188 1.392 . S
C189 H201 0.929 . S
C190 C186 1.531 . S
C190 H202 0.960 . S
C190 H203 0.962 . S
C190 H204 0.960 . S
C191 C188 1.511 . S
C191 H205 0.961 . S
C191 H206 0.931 1_545 S
C191 H207 0.961 . S
C192 C193 1.370 . S
C192 C194 1.363 . S
C192 H208 0.931 . S
C193 C192 1.370 . S
C193 C197 1.408 . S
C194 C192 1.363 . S
C194 C195 1.370 1_565 S
C194 C198 1.524 . S
C195 C187 1.503 . S
C195 C194 1.370 1_545 S
C195 C196 1.403 1_545 S
C196 C195 1.403 1_565 S
C196 C197 1.404 . S
C196 C199 1.539 1_565 S
C197 C193 1.408 . S
C197 C196 1.404 . S
C197 H209 0.930 . S
C198 C194 1.524 . S
C198 H210 0.956 1_565 S
C198 H211 0.961 . S
C198 H212 0.961 . S
C199 C196 1.539 1_545 S
C199 H213 0.958 . S
C199 H214 0.961 . S
C199 H215 0.960 . S
H200 C184 0.931 . S
H201 C189 0.929 . S
H202 C190 0.960 . S
H203 C190 0.962 . S
H204 C190 0.960 . S
H205 C191 0.961 . S
H206 C191 0.931 1_565 S
H207 C191 0.961 . S
H208 C192 0.931 . S
H209 C197 0.930 . S
H210 C198 0.956 1_545 S
H211 C198 0.961 . S
H212 C198 0.961 . S
H213 C199 0.958 . S
H214 C199 0.961 . S
H215 C199 0.960 . S
C216 C217 1.391 . S
C216 C218 1.394 . S
C216 H232 0.931 . S
C217 C216 1.391 . S
C217 C221 1.376 . S
C218 C216 1.394 . S
C218 C219 1.369 . S
C218 C222 1.531 . S
C219 C218 1.369 . S
C219 C220 1.410 . S
C219 C227 1.503 . S
C220 C219 1.410 . S
C220 C221 1.392 . S
C220 C223 1.511 . S
C221 C217 1.376 . S
C221 C220 1.392 . S
C221 H233 0.929 . S
C222 C218 1.531 . S
C222 H234 0.960 . S
C222 H235 0.962 . S
C222 H236 0.960 . S
C223 C220 1.511 . S
C223 H237 0.961 . S
C223 H238 0.961 . S
C223 H239 0.961 . S
C224 C225 1.370 . S
C224 C226 1.363 . S
C224 H240 0.931 . S
C225 C224 1.370 . S
C225 C229 1.408 . S
C226 C224 1.363 . S
C226 C227 1.370 . S
C226 C230 1.524 . S
C227 C219 1.503 . S
C227 C226 1.370 . S
C227 C228 1.403 . S
C228 C227 1.403 . S
C228 C229 1.404 . S
C228 C231 1.539 . S
C229 C225 1.408 . S
C229 C228 1.404 . S
C229 H241 0.930 . S
C230 C226 1.524 . S
C230 H242 0.956 . S
C230 H243 0.961 . S
C230 H244 0.961 . S
C231 C228 1.539 . S
C231 H245 0.958 . S
C231 H246 0.961 . S
C231 H247 0.960 . S
H232 C216 0.931 . S
H233 C221 0.929 . S
H234 C222 0.960 . S
H235 C222 0.962 . S
H236 C222 0.960 . S
H237 C223 0.961 . S
H238 C223 0.961 . S
H239 C223 0.961 . S
H240 C224 0.931 . S
H241 C229 0.930 . S
H242 C230 0.956 . S
H243 C230 0.961 . S
H244 C230 0.961 . S
H245 C231 0.958 . S
H246 C231 0.961 . S
H247 C231 0.960 . S
C248 C249 1.391 . S
C248 C250 1.394 . S
C248 H264 0.931 . S
C249 C248 1.391 . S
C249 C253 1.376 . S
C250 C248 1.394 . S
C250 C251 1.369 . S
C250 C254 1.531 . S
C251 C250 1.369 . S
C251 C252 1.410 . S
C251 C259 1.503 1_455 S
C252 C251 1.410 . S
C252 C253 1.392 . S
C252 C255 1.511 1_455 S
C253 C249 1.376 . S
C253 C252 1.392 . S
C253 H265 0.929 . S
C254 C250 1.531 . S
C254 H266 0.960 1_455 S
C254 H267 0.962 1_455 S
C254 H268 0.960 . S
C255 C252 1.511 1_655 S
C255 H269 0.961 . S
C255 H270 0.961 . S
C255 H271 0.961 . S
C256 C257 1.370 . S
C256 C258 1.363 . S
C256 H272 0.931 . S
C257 C256 1.370 . S
C257 C261 1.408 . S
C258 C256 1.363 . S
C258 C259 1.370 . S
C258 C262 1.524 . S
C259 C251 1.503 1_655 S
C259 C258 1.370 . S
C259 C260 1.403 . S
C260 C259 1.403 . S
C260 C261 1.404 . S
C260 C263 1.539 . S
C261 C257 1.408 . S
C261 C260 1.404 . S
C261 H273 0.930 1_554 S
C262 C258 1.524 . S
C262 H274 0.956 . S
C262 H275 0.961 . S
C262 H276 0.961 . S
C263 C260 1.539 . S
C263 H277 0.958 1_554 S
C263 H278 0.961 1_554 S
C263 H279 0.960 1_655 S
H264 C248 0.931 . S
H265 C253 0.929 . S
H266 C254 0.960 1_655 S
H267 C254 0.962 1_655 S
H268 C254 0.960 . S
H269 C255 0.961 . S
H270 C255 0.961 . S
H271 C255 0.961 . S
H272 C256 0.931 . S
H273 C261 0.930 1_556 S
H274 C262 0.956 . S
H275 C262 0.961 . S
H276 C262 0.961 . S
H277 C263 0.958 1_556 S
H278 C263 0.961 1_556 S
H279 C263 0.960 1_455 S
C280 C281 1.391 . S
C280 C282 1.394 . S
C280 H296 0.931 . S
C281 C280 1.391 . S
C281 C285 1.376 . S
C282 C280 1.394 . S
C282 C283 1.369 1_545 S
C282 C286 1.531 . S
C283 C282 1.369 1_565 S
C283 C284 1.410 1_565 S
C283 C291 1.503 . S
C284 C283 1.410 1_545 S
C284 C285 1.392 . S
C284 C287 1.511 1_545 S
C285 C281 1.376 . S
C285 C284 1.392 . S
C285 H297 0.929 . S
C286 C282 1.531 . S
C286 H298 0.960 1_545 S
C286 H299 0.962 . S
C286 H300 0.960 . S
C287 C284 1.511 1_565 S
C287 H301 0.961 1_565 S
C287 H302 0.961 . S
C287 H303 0.961 . S
C288 C289 1.370 . S
C288 C290 1.363 . S
C288 H304 0.931 . S
C289 C288 1.370 . S
C289 C293 1.408 . S
C290 C288 1.363 . S
C290 C291 1.370 . S
C290 C294 1.524 . S
C291 C283 1.503 . S
C291 C290 1.370 . S
C291 C292 1.403 . S
C292 C291 1.403 . S
C292 C293 1.404 . S
C292 C295 1.539 . S
C293 C289 1.408 . S
C293 C292 1.404 . S
C293 H305 0.930 . S
C294 C290 1.524 . S
C294 H306 0.956 1_565 S
C294 H307 0.961 1_565 S
C294 H308 0.961 . S
C295 C292 1.539 . S
C295 H309 0.958 . S
C295 H310 0.961 . S
C295 H311 0.960 . S
H296 C280 0.931 . S
H297 C285 0.929 . S
H298 C286 0.960 1_565 S
H299 C286 0.962 . S
H300 C286 0.960 . S
H301 C287 0.961 1_545 S
H302 C287 0.961 . S
H303 C287 0.961 . S
H304 C288 0.931 . S
H305 C293 0.930 . S
H306 C294 0.956 1_545 S
H307 C294 0.961 1_545 S
H308 C294 0.961 . S
H309 C295 0.958 . S
H310 C295 0.961 . S
H311 C295 0.960 . S
C312 C313 1.391 . S
C312 C314 1.394 . S
C312 H328 0.931 . S
C313 C312 1.391 . S
C313 C317 1.376 . S
C314 C312 1.394 . S
C314 C315 1.369 . S
C314 C318 1.531 . S
C315 C314 1.369 . S
C315 C316 1.410 . S
C315 C323 1.503 . S
C316 C315 1.410 . S
C316 C317 1.392 . S
C316 C319 1.511 . S
C317 C313 1.376 . S
C317 C316 1.392 . S
C317 H329 0.929 . S
C318 C314 1.531 . S
C318 H330 0.960 . S
C318 H331 0.962 . S
C318 H332 0.960 . S
C319 C316 1.511 . S
C319 H333 0.961 . S
C319 H334 0.961 . S
C319 H335 0.961 . S
C320 C321 1.370 . S
C320 C322 1.363 . S
C320 H336 0.931 . S
C321 C320 1.370 . S
C321 C325 1.408 . S
C322 C320 1.363 . S
C322 C323 1.370 . S
C322 C326 1.524 . S
C323 C315 1.503 . S
C323 C322 1.370 . S
C323 C324 1.403 . S
C324 C323 1.403 . S
C324 C325 1.404 . S
C324 C327 1.539 . S
C325 C321 1.408 . S
C325 C324 1.404 . S
C325 H337 0.930 . S
C326 C322 1.524 . S
C326 H338 0.956 . S
C326 H339 0.961 . S
C326 H340 0.961 . S
C327 C324 1.539 . S
C327 H341 0.958 . S
C327 H342 0.961 . S
C327 H343 0.960 . S
H328 C312 0.931 . S
H329 C317 0.929 . S
H330 C318 0.960 . S
H331 C318 0.962 . S
H332 C318 0.960 . S
H333 C319 0.961 . S
H334 C319 0.961 . S
H335 C319 0.961 . S
H336 C320 0.931 . S
H337 C325 0.930 . S
H338 C326 0.956 . S
H339 C326 0.961 . S
H340 C326 0.961 . S
H341 C327 0.958 . S
H342 C327 0.961 . S
H343 C327 0.960 . S
C344 C345 1.391 1_556 S
C344 C346 1.394 . S
C344 H360 0.931 1_556 S
C345 C344 1.391 1_554 S
C345 C349 1.371 1_554 S
C346 C344 1.394 . S
C346 C347 1.369 . S
C346 C350 1.531 . S
C347 C346 1.369 . S
C347 C348 1.410 . S
C347 C355 1.503 . S
C348 C347 1.410 . S
C348 C349 1.404 . S
C348 C351 1.511 . S
C349 C345 1.371 1_556 S
C349 C348 1.404 . S
C349 H361 0.922 1_556 S
C350 C346 1.531 . S
C350 H362 0.960 . S
C350 H363 0.962 . S
C350 H364 0.960 . S
C351 C348 1.511 . S
C351 H365 0.961 . S
C351 H366 0.961 . S
C351 H367 0.961 . S
C352 C353 1.370 . S
C352 C354 1.363 . S
C352 H368 0.931 . S
C353 C352 1.370 . S
C353 C357 1.408 . S
C354 C352 1.363 . S
C354 C355 1.370 . S
C354 C358 1.524 . S
C355 C347 1.503 . S
C355 C354 1.370 . S
C355 C356 1.403 . S
C356 C355 1.403 . S
C356 C357 1.404 . S
C356 C359 1.539 . S
C357 C353 1.408 . S
C357 C356 1.404 . S
C357 H369 0.930 . S
C358 C354 1.524 . S
C358 H370 0.956 . S
C358 H371 0.961 . S
C358 H372 0.961 . S
C359 C356 1.539 . S
C359 H373 0.958 . S
C359 H374 0.961 . S
C359 H375 0.960 . S
H360 C344 0.931 1_554 S
H361 C349 0.922 1_554 S
H362 C350 0.960 . S
H363 C350 0.962 . S
H364 C350 0.960 . S
H365 C351 0.961 . S
H366 C351 0.961 . S
H367 C351 0.961 . S
H368 C352 0.931 . S
H369 C357 0.930 . S
H370 C358 0.956 . S
H371 C358 0.961 . S
H372 C358 0.961 . S
H373 C359 0.958 . S
H374 C359 0.961 . S
H375 C359 0.960 . S
C376 C377 1.391 . S
C376 C378 1.394 . S
C376 H392 0.931 . S
C377 C376 1.391 . S
C377 C381 1.376 . S
C378 C376 1.394 . S
C378 C379 1.369 . S
C378 C382 1.531 . S
C379 C378 1.369 . S
C379 C380 1.410 . S
C379 C387 1.503 . S
C380 C379 1.410 . S
C380 C381 1.392 . S
C380 C383 1.511 . S
C381 C377 1.376 . S
C381 C380 1.392 . S
C381 H393 0.929 . S
C382 C378 1.531 . S
C382 H394 0.960 . S
C382 H395 0.962 . S
C382 H396 0.960 . S
C383 C380 1.511 . S
C383 H397 0.961 . S
C383 H398 0.961 . S
C383 H399 0.961 . S
C384 C385 1.370 1_554 S
C384 C386 1.363 . S
C384 H400 0.931 1_554 S
C385 C384 1.370 1_556 S
C385 C389 1.408 1_556 S
C386 C384 1.363 . S
C386 C387 1.370 . S
C386 C390 1.524 . S
C387 C379 1.503 . S
C387 C386 1.370 . S
C387 C388 1.403 . S
C388 C387 1.403 . S
C388 C389 1.404 . S
C388 C391 1.539 . S
C389 C385 1.408 1_554 S
C389 C388 1.404 . S
C389 H401 0.930 1_554 S
C390 C386 1.524 . S
C390 H402 0.956 . S
C390 H403 0.961 . S
C390 H404 0.961 . S
C391 C388 1.539 . S
C391 H405 0.958 . S
C391 H406 0.961 . S
C391 H407 0.960 . S
H392 C376 0.931 . S
H393 C381 0.929 . S
H394 C382 0.960 . S
H395 C382 0.962 . S
H396 C382 0.960 . S
H397 C383 0.961 . S
H398 C383 0.961 . S
H399 C383 0.961 . S
H400 C384 0.931 1_556 S
H401 C389 0.930 1_556 S
H402 C390 0.956 . S
H403 C390 0.961 . S
H404 C390 0.961 . S
H405 C391 0.958 . S
H406 C391 0.961 . S
H407 C391 0.960 . S
C408 C409 1.391 . S
C408 C410 1.394 . S
C408 H424 0.931 . S
C409 C408 1.391 . S
C409 C413 1.376 . S
C410 C408 1.394 . S
C410 C411 1.369 . S
C410 C414 1.531 . S
C411 C410 1.369 . S
C411 C412 1.410 . S
C411 C419 1.503 . S
C412 C411 1.410 . S
C412 C413 1.392 . S
C412 C415 1.511 . S
C413 C409 1.376 . S
C413 C412 1.392 . S
C413 H425 0.929 . S
C414 C410 1.531 . S
C414 H426 0.960 . S
C414 H427 0.962 . S
C414 H428 0.960 . S
C415 C412 1.511 . S
C415 H429 0.961 . S
C415 H430 0.961 . S
C415 H431 0.961 . S
C416 C417 1.370 . S
C416 C418 1.363 . S
C416 H432 0.931 . S
C417 C416 1.370 . S
C417 C421 1.408 . S
C418 C416 1.363 . S
C418 C419 1.370 . S
C418 C422 1.524 . S
C419 C411 1.503 . S
C419 C418 1.370 . S
C419 C420 1.403 . S
C420 C419 1.403 . S
C420 C421 1.404 . S
C420 C423 1.539 . S
C421 C417 1.408 . S
C421 C420 1.404 . S
C421 H433 0.930 . S
C422 C418 1.524 . S
C422 H434 0.956 . S
C422 H435 0.961 . S
C422 H436 0.961 . S
C423 C420 1.539 . S
C423 H437 0.958 . S
C423 H438 0.961 . S
C423 H439 0.960 . S
H424 C408 0.931 . S
H425 C413 0.929 . S
H426 C414 0.960 . S
H427 C414 0.962 . S
H428 C414 0.960 . S
H429 C415 0.961 . S
H430 C415 0.961 . S
H431 C415 0.961 . S
H432 C416 0.931 . S
H433 C421 0.930 . S
H434 C422 0.956 . S
H435 C422 0.961 . S
H436 C422 0.961 . S
H437 C423 0.958 . S
H438 C423 0.961 . S
H439 C423 0.960 . S
C440 C441 1.391 . S
C440 C442 1.394 . S
C440 H456 0.931 . S
C441 C440 1.391 . S
C441 C445 1.376 . S
C442 C440 1.394 . S
C442 C443 1.369 . S
C442 C446 1.531 . S
C443 C442 1.369 . S
C443 C444 1.410 . S
C443 C451 1.503 . S
C444 C443 1.410 . S
C444 C445 1.392 . S
C444 C447 1.511 . S
C445 C441 1.376 . S
C445 C444 1.392 . S
C445 H457 0.929 . S
C446 C442 1.531 . S
C446 H458 0.960 . S
C446 H459 0.962 . S
C446 H460 0.960 . S
C447 C444 1.511 . S
C447 H461 0.961 . S
C447 H462 0.961 . S
C447 H463 0.961 . S
C448 C449 1.370 1_556 S
C448 C450 1.363 . S
C448 H464 0.931 . S
C449 C448 1.370 1_554 S
C449 C453 1.408 . S
C450 C448 1.363 . S
C450 C451 1.370 . S
C450 C454 1.524 . S
C451 C443 1.503 . S
C451 C450 1.370 . S
C451 C452 1.403 . S
C452 C451 1.403 . S
C452 C453 1.404 1_556 S
C452 C455 1.539 . S
C453 C449 1.408 . S
C453 C452 1.404 1_554 S
C453 H465 0.930 . S
C454 C450 1.524 . S
C454 H466 0.956 . S
C454 H467 0.961 . S
C454 H468 0.961 . S
C455 C452 1.539 . S
C455 H469 0.958 . S
C455 H470 0.961 . S
C455 H471 0.960 . S
H456 C440 0.931 . S
H457 C445 0.929 . S
H458 C446 0.960 . S
H459 C446 0.962 . S
H460 C446 0.960 . S
H461 C447 0.961 . S
H462 C447 0.961 . S
H463 C447 0.961 . S
H464 C448 0.931 . S
H465 C453 0.930 . S
H466 C454 0.956 . S
H467 C454 0.961 . S
H468 C454 0.961 . S
H469 C455 0.958 . S
H470 C455 0.961 . S
H471 C455 0.960 . S
C472 C473 1.391 . S
C472 C474 1.394 . S
C472 H488 0.931 . S
C473 C472 1.391 . S
C473 C477 1.376 . S
C474 C472 1.394 . S
C474 C475 1.369 . S
C474 C478 1.531 . S
C475 C474 1.369 . S
C475 C476 1.410 . S
C475 C483 1.503 . S
C476 C475 1.410 . S
C476 C477 1.392 . S
C476 C479 1.511 . S
C477 C473 1.376 . S
C477 C476 1.392 . S
C477 H489 0.929 . S
C478 C474 1.531 . S
C478 H490 0.960 . S
C478 H491 0.962 . S
C478 H492 0.960 . S
C479 C476 1.511 . S
C479 H493 0.961 . S
C479 H494 0.961 . S
C479 H495 0.961 . S
C480 C481 1.370 1_554 S
C480 C482 1.363 . S
C480 H496 0.931 1_554 S
C481 C480 1.370 1_556 S
C481 C485 1.408 1_556 S
C482 C480 1.363 . S
C482 C483 1.370 . S
C482 C486 1.524 . S
C483 C475 1.503 . S
C483 C482 1.370 . S
C483 C484 1.403 . S
C484 C483 1.403 . S
C484 C485 1.404 . S
C484 C487 1.539 . S
C485 C481 1.408 1_554 S
C485 C484 1.404 . S
C485 H497 0.930 . S
C486 C482 1.524 . S
C486 H498 0.956 . S
C486 H499 0.961 . S
C486 H500 0.961 . S
C487 C484 1.539 . S
C487 H501 0.958 . S
C487 H502 0.961 . S
C487 H503 0.960 . S
H488 C472 0.931 . S
H489 C477 0.929 . S
H490 C478 0.960 . S
H491 C478 0.962 . S
H492 C478 0.960 . S
H493 C479 0.961 . S
H494 C479 0.961 . S
H495 C479 0.961 . S
H496 C480 0.931 1_556 S
H497 C485 0.930 . S
H498 C486 0.956 . S
H499 C486 0.961 . S
H500 C486 0.961 . S
H501 C487 0.958 . S
H502 C487 0.961 . S
H503 C487 0.960 . S
C504 C505 1.391 . S
C504 C506 1.394 . S
C504 H520 0.931 . S
C505 C504 1.391 . S
C505 C509 1.376 . S
C506 C504 1.394 . S
C506 C507 1.369 . S
C506 C510 1.531 . S
C507 C506 1.369 . S
C507 C508 1.410 . S
C507 C515 1.503 . S
C508 C507 1.410 . S
C508 C509 1.392 . S
C508 C511 1.511 . S
C509 C505 1.376 . S
C509 C508 1.392 . S
C509 H521 0.929 . S
C510 C506 1.531 . S
C510 H522 0.960 . S
C510 H523 0.962 . S
C510 H524 0.960 . S
C511 C508 1.511 . S
C511 H525 0.961 . S
C511 H526 0.961 . S
C511 H527 0.961 . S
C512 C513 1.370 . S
C512 C514 1.363 . S
C512 H528 0.931 . S
C513 C512 1.370 . S
C513 C517 1.408 . S
C514 C512 1.363 . S
C514 C515 1.370 . S
C514 C518 1.524 . S
C515 C507 1.503 . S
C515 C514 1.370 . S
C515 C516 1.403 . S
C516 C515 1.403 . S
C516 C517 1.404 . S
C516 C519 1.539 . S
C517 C513 1.408 . S
C517 C516 1.404 . S
C517 H529 0.930 . S
C518 C514 1.524 . S
C518 H530 0.956 . S
C518 H531 0.961 . S
C518 H532 0.961 . S
C519 C516 1.539 . S
C519 H533 0.958 . S
C519 H534 0.961 . S
C519 H535 0.960 . S
H520 C504 0.931 . S
H521 C509 0.929 . S
H522 C510 0.960 . S
H523 C510 0.962 . S
H524 C510 0.960 . S
H525 C511 0.961 . S
H526 C511 0.961 . S
H527 C511 0.961 . S
H528 C512 0.931 . S
H529 C517 0.930 . S
H530 C518 0.956 . S
H531 C518 0.961 . S
H532 C518 0.961 . S
H533 C519 0.958 . S
H534 C519 0.961 . S
H535 C519 0.960 . S
C536 C537 1.391 . S
C536 C538 1.394 . S
C536 H552 0.931 . S
C537 C536 1.391 . S
C537 C541 1.376 . S
C538 C536 1.394 . S
C538 C539 1.369 . S
C538 C542 1.531 . S
C539 C538 1.369 . S
C539 C540 1.410 . S
C539 C547 1.503 . S
C540 C539 1.410 . S
C540 C541 1.392 . S
C540 C543 1.511 . S
C541 C537 1.376 . S
C541 C540 1.392 . S
C541 H553 0.929 . S
C542 C538 1.531 . S
C542 H554 0.960 . S
C542 H555 0.962 . S
C542 H556 0.960 . S
C543 C540 1.511 . S
C543 H557 0.961 . S
C543 H558 0.961 . S
C543 H559 0.961 . S
C544 C545 1.370 . S
C544 C546 1.363 . S
C544 H560 0.931 . S
C545 C544 1.370 . S
C545 C549 1.408 . S
C546 C544 1.363 . S
C546 C547 1.370 . S
C546 C550 1.524 . S
C547 C539 1.503 . S
C547 C546 1.370 . S
C547 C548 1.403 . S
C548 C547 1.403 . S
C548 C549 1.404 . S
C548 C551 1.539 . S
C549 C545 1.408 . S
C549 C548 1.404 . S
C549 H561 0.930 . S
C550 C546 1.524 . S
C550 H562 0.956 . S
C550 H563 0.961 . S
C550 H564 0.961 . S
C551 C548 1.539 . S
C551 H565 0.958 . S
C551 H566 0.961 . S
C551 H567 0.960 . S
H552 C536 0.931 . S
H553 C541 0.929 . S
H554 C542 0.960 . S
H555 C542 0.962 . S
H556 C542 0.960 . S
H557 C543 0.961 . S
H558 C543 0.961 . S
H559 C543 0.961 . S
H560 C544 0.931 . S
H561 C549 0.930 . S
H562 C550 0.956 . S
H563 C550 0.961 . S
H564 C550 0.961 . S
H565 C551 0.958 . S
H566 C551 0.961 . S
H567 C551 0.960 . S
C568 C569 1.391 . S
C568 C570 1.394 . S
C568 H584 0.931 . S
C569 C568 1.391 . S
C569 C573 1.376 . S
C570 C568 1.394 . S
C570 C571 1.369 . S
C570 C574 1.531 . S
C571 C570 1.369 . S
C571 C572 1.410 . S
C571 C579 1.503 . S
C572 C571 1.410 . S
C572 C573 1.392 . S
C572 C575 1.511 . S
C573 C569 1.376 . S
C573 C572 1.392 . S
C573 H585 0.929 . S
C574 C570 1.531 . S
C574 H586 0.960 . S
C574 H587 0.962 . S
C574 H588 0.960 . S
C575 C572 1.511 . S
C575 H589 0.961 . S
C575 H590 0.961 . S
C575 H591 0.961 . S
C576 C577 1.370 . S
C576 C578 1.363 . S
C576 H592 0.931 . S
C577 C576 1.370 . S
C577 C581 1.408 . S
C578 C576 1.363 . S
C578 C579 1.370 . S
C578 C582 1.524 . S
C579 C571 1.503 . S
C579 C578 1.370 . S
C579 C580 1.403 . S
C580 C579 1.403 . S
C580 C581 1.404 . S
C580 C583 1.539 . S
C581 C577 1.408 . S
C581 C580 1.404 . S
C581 H593 0.930 . S
C582 C578 1.524 . S
C582 H594 0.956 . S
C582 H595 0.961 . S
C582 H596 0.961 . S
C583 C580 1.539 . S
C583 H597 0.958 . S
C583 H598 0.961 . S
C583 H599 0.960 . S
H584 C568 0.931 . S
H585 C573 0.929 . S
H586 C574 0.960 . S
H587 C574 0.962 . S
H588 C574 0.960 . S
H589 C575 0.961 . S
H590 C575 0.961 . S
H591 C575 0.961 . S
H592 C576 0.931 . S
H593 C581 0.930 . S
H594 C582 0.956 . S
H595 C582 0.961 . S
H596 C582 0.961 . S
H597 C583 0.958 . S
H598 C583 0.961 . S
H599 C583 0.960 . S
C600 C601 1.391 . S
C600 C602 1.394 . S
C600 H616 0.931 . S
C601 C600 1.391 . S
C601 C605 1.376 . S
C602 C600 1.394 . S
C602 C603 1.369 . S
C602 C606 1.531 . S
C603 C602 1.369 . S
C603 C604 1.410 . S
C603 C611 1.503 . S
C604 C603 1.410 . S
C604 C605 1.392 . S
C604 C607 1.511 . S
C605 C601 1.376 . S
C605 C604 1.392 . S
C605 H617 0.929 . S
C606 C602 1.531 . S
C606 H618 0.960 . S
C606 H619 0.962 . S
C606 H620 0.960 . S
C607 C604 1.511 . S
C607 H621 0.961 . S
C607 H622 0.961 . S
C607 H623 0.961 . S
C608 C609 1.370 . S
C608 C610 1.363 . S
C608 H624 0.931 . S
C609 C608 1.370 . S
C609 C613 1.408 . S
C610 C608 1.363 . S
C610 C611 1.370 . S
C610 C614 1.524 . S
C611 C603 1.503 . S
C611 C610 1.370 . S
C611 C612 1.403 . S
C612 C611 1.403 . S
C612 C613 1.404 . S
C612 C615 1.539 . S
C613 C609 1.408 . S
C613 C612 1.404 . S
C613 H625 0.930 . S
C614 C610 1.524 . S
C614 H626 0.956 . S
C614 H627 0.961 . S
C614 H628 0.961 . S
C615 C612 1.539 . S
C615 H629 0.958 . S
C615 H630 0.961 . S
C615 H631 0.960 . S
H616 C600 0.931 . S
H617 C605 0.929 . S
H618 C606 0.960 . S
H619 C606 0.962 . S
H620 C606 0.960 . S
H621 C607 0.961 . S
H622 C607 0.961 . S
H623 C607 0.961 . S
H624 C608 0.931 . S
H625 C613 0.930 . S
H626 C614 0.956 . S
H627 C614 0.961 . S
H628 C614 0.961 . S
H629 C615 0.958 . S
H630 C615 0.961 . S
H631 C615 0.960 . S
C632 C633 1.391 . S
C632 C634 1.394 . S
C632 H648 0.931 . S
C633 C632 1.391 . S
C633 C637 1.376 . S
C634 C632 1.394 . S
C634 C635 1.369 . S
C634 C638 1.531 . S
C635 C634 1.369 . S
C635 C636 1.410 . S
C635 C643 1.503 . S
C636 C635 1.410 . S
C636 C637 1.392 . S
C636 C639 1.511 . S
C637 C633 1.376 . S
C637 C636 1.392 . S
C637 H649 0.929 . S
C638 C634 1.531 . S
C638 H650 0.960 . S
C638 H651 0.962 . S
C638 H652 0.960 . S
C639 C636 1.511 . S
C639 H653 0.961 . S
C639 H654 0.961 . S
C639 H655 0.961 . S
C640 C641 1.370 . S
C640 C642 1.363 . S
C640 H656 0.931 . S
C641 C640 1.370 . S
C641 C645 1.408 . S
C642 C640 1.363 . S
C642 C643 1.370 . S
C642 C646 1.524 . S
C643 C635 1.503 . S
C643 C642 1.370 . S
C643 C644 1.403 . S
C644 C643 1.403 . S
C644 C645 1.404 . S
C644 C647 1.539 . S
C645 C641 1.408 . S
C645 C644 1.404 . S
C645 H657 0.930 . S
C646 C642 1.524 . S
C646 H658 0.956 . S
C646 H659 0.961 . S
C646 H660 0.961 . S
C647 C644 1.539 . S
C647 H661 0.958 . S
C647 H662 0.961 . S
C647 H663 0.960 . S
H648 C632 0.931 . S
H649 C637 0.929 . S
H650 C638 0.960 . S
H651 C638 0.962 . S
H652 C638 0.960 . S
H653 C639 0.961 . S
H654 C639 0.961 . S
H655 C639 0.961 . S
H656 C640 0.931 . S
H657 C645 0.930 . S
H658 C646 0.956 . S
H659 C646 0.961 . S
H660 C646 0.961 . S
H661 C647 0.958 . S
H662 C647 0.961 . S
H663 C647 0.960 . S
C664 C665 1.391 . S
C664 C666 1.394 . S
C664 H680 0.931 . S
C665 C664 1.391 . S
C665 C669 1.376 . S
C666 C664 1.394 . S
C666 C667 1.369 . S
C666 C670 1.531 . S
C667 C666 1.369 . S
C667 C668 1.410 . S
C667 C675 1.503 . S
C668 C667 1.410 . S
C668 C669 1.392 . S
C668 C671 1.511 . S
C669 C665 1.376 . S
C669 C668 1.392 . S
C669 H681 0.929 . S
C670 C666 1.531 . S
C670 H682 0.960 . S
C670 H683 0.962 . S
C670 H684 0.960 . S
C671 C668 1.511 . S
C671 H685 0.961 . S
C671 H686 0.961 . S
C671 H687 0.961 . S
C672 C673 1.370 . S
C672 C674 1.363 . S
C672 H688 0.931 . S
C673 C672 1.370 . S
C673 C677 1.408 . S
C674 C672 1.363 . S
C674 C675 1.370 . S
C674 C678 1.524 . S
C675 C667 1.503 . S
C675 C674 1.370 . S
C675 C676 1.403 . S
C676 C675 1.403 . S
C676 C677 1.404 . S
C676 C679 1.539 . S
C677 C673 1.408 . S
C677 C676 1.404 . S
C677 H689 0.930 . S
C678 C674 1.524 . S
C678 H690 0.956 . S
C678 H691 0.961 . S
C678 H692 0.961 . S
C679 C676 1.539 . S
C679 H693 0.958 . S
C679 H694 0.961 . S
C679 H695 0.960 . S
H680 C664 0.931 . S
H681 C669 0.929 . S
H682 C670 0.960 . S
H683 C670 0.962 . S
H684 C670 0.960 . S
H685 C671 0.961 . S
H686 C671 0.961 . S
H687 C671 0.961 . S
H688 C672 0.931 . S
H689 C677 0.930 . S
H690 C678 0.956 . S
H691 C678 0.961 . S
H692 C678 0.961 . S
H693 C679 0.958 . S
H694 C679 0.961 . S
H695 C679 0.960 . S
C121 C118 1.400 . S
C129 C4 1.350 . S
C153 C18 1.400 . S
C161 C24 1.335 . S
C185 C38 1.404 . S
C193 C44 1.344 . S
C217 C58 1.408 . S
C225 C64 1.321 . S
C249 C84 1.291 . S
C257 C78 1.409 . S
C281 C104 1.368 . S
C289 C98 1.406 . S
C313 C12 1.264 . S
C321 C9 1.232 . S
C345 C32 1.239 . S
C353 C29 1.247 . S
C377 C52 1.250 . S
C385 C49 1.242 . S
C409 C72 1.279 . S
C417 C69 1.228 . S
C441 C89 1.240 . S
C449 C92 1.247 . S
C473 C112 1.226 . S
C481 C109 1.253 . S
C505 C2 1.383 . S
C513 C99 1.493 . S
C537 C22 1.407 . S
C545 C119 1.507 . S
C569 C19 1.498 . S
C577 C42 1.433 . S
C601 C39 1.491 . S
C609 C62 1.428 . S
C633 C82 1.456 . S
C641 C59 1.514 . S
C665 C79 1.506 . S
C673 C102 1.438 . S
