# Generated by pormake.
# Topology tfs, (6)-cn, num edge types: 1
# Building blocks:
#     Node 0, Type 0, BuildingBlock: CUWYAW_clean_sbu_0, # of connection points: 6
#     Node 1, Type 0, BuildingBlock: CUWYAW_clean_sbu_0, # of connection points: 6
#     Node 2, Type 0, BuildingBlock: CUWYAW_clean_sbu_0, # of connection points: 6
#     Node 3, Type 0, BuildingBlock: CUWYAW_clean_sbu_0, # of connection points: 6
#     Node 4, Type 0, BuildingBlock: CUWYAW_clean_sbu_0, # of connection points: 6
#     Node 5, Type 0, BuildingBlock: CUWYAW_clean_sbu_0, # of connection points: 6
#     Edge 6, Type (0, 0), BuildingBlock: EZIPEK_clean_linker_0, # of connection points: 2
#     Edge 7, Type (0, 0), BuildingBlock: EZIPEK_clean_linker_0, # of connection points: 2
#     Edge 8, Type (0, 0), BuildingBlock: EZIPEK_clean_linker_0, # of connection points: 2
#     Edge 9, Type (0, 0), BuildingBlock: EZIPEK_clean_linker_0, # of connection points: 2
#     Edge 10, Type (0, 0), BuildingBlock: EZIPEK_clean_linker_0, # of connection points: 2
#     Edge 11, Type (0, 0), BuildingBlock: EZIPEK_clean_linker_0, # of connection points: 2
#     Edge 12, Type (0, 0), BuildingBlock: EZIPEK_clean_linker_0, # of connection points: 2
#     Edge 13, Type (0, 0), BuildingBlock: EZIPEK_clean_linker_0, # of connection points: 2
#     Edge 14, Type (0, 0), BuildingBlock: EZIPEK_clean_linker_0, # of connection points: 2
#     Edge 15, Type (0, 0), BuildingBlock: EZIPEK_clean_linker_0, # of connection points: 2
#     Edge 16, Type (0, 0), BuildingBlock: EZIPEK_clean_linker_0, # of connection points: 2
#     Edge 17, Type (0, 0), BuildingBlock: EZIPEK_clean_linker_0, # of connection points: 2
#     Edge 18, Type (0, 0), BuildingBlock: EZIPEK_clean_linker_0, # of connection points: 2
#     Edge 19, Type (0, 0), BuildingBlock: EZIPEK_clean_linker_0, # of connection points: 2
#     Edge 20, Type (0, 0), BuildingBlock: EZIPEK_clean_linker_0, # of connection points: 2
#     Edge 21, Type (0, 0), BuildingBlock: EZIPEK_clean_linker_0, # of connection points: 2
#     Edge 22, Type (0, 0), BuildingBlock: EZIPEK_clean_linker_0, # of connection points: 2
#     Edge 23, Type (0, 0), BuildingBlock: EZIPEK_clean_linker_0, # of connection points: 2
# Relax obj value: 0.568
# Max RMSD: 0.294
# Mean RMSD: 0.294
data_MOF--net-tfs--node1-CUWYAW_clean_sbu_0--edge1-EZIPEK_clean_linker_0
_symmetry_space_group_name_H-M    P1
_symmetry_Int_Tables_number       1
_symmetry_cell_setting            triclinic
loop_
_symmetry_equiv_pos_as_xyz
'x, y, z'
_cell_length_a     44.522433
_cell_length_b     44.675163
_cell_length_c     10.603113
_cell_angle_alpha  90.225927
_cell_angle_beta   89.754685
_cell_angle_gamma 119.96795
loop_
_atom_site_label
_atom_site_type_symbol
_atom_site_fract_x
_atom_site_fract_y
_atom_site_fract_z
_atom_type_partial_charge
C0 C 0.20383 0.35037 0.92583 0.0
Eu1 Eu 0.19214 0.40055 0.98363 0.0
C2 C 0.23117 0.34101 0.93565 0.0
C3 C 0.2217 0.30671 0.96343 0.0
C4 C 0.2468 0.29668 0.96864 0.0
C5 C 0.28176 0.32079 0.94561 0.0
C6 C 0.29143 0.35523 0.91917 0.0
C7 C 0.2663 0.36534 0.9146 0.0
C8 C 0.19169 0.42297 0.22153 0.0
C9 C 0.11006 0.37646 0.99528 0.0
C10 C 0.158 0.50351 0.06258 0.0
Eu11 Eu 0.16985 0.4538 0.99909 0.0
C12 C 0.17168 0.54081 0.04977 0.0
C13 C 0.20409 0.56256 0.99408 0.0
C14 C 0.2163 0.59809 0.98403 0.0
C15 C 0.19616 0.61206 0.02937 0.0
C16 C 0.16378 0.59019 0.0845 0.0
C17 C 0.15165 0.55481 0.09461 0.0
C18 C 0.17146 0.43194 0.75944 0.0
C19 C 0.25286 0.47929 0.99152 0.0
O20 O 0.18899 0.35149 0.03097 0.0
O21 O 0.20941 0.37541 0.84857 0.0
O22 O 0.2138 0.41435 0.1806 0.0
O23 O 0.16897 0.41661 0.13843 0.0
O24 O 0.1337 0.3696 0.95046 0.0
O25 O 0.11875 0.40691 0.0431 0.0
O26 O 0.17585 0.4938 0.13182 0.0
O27 O 0.14563 0.48482 0.96064 0.0
O28 O 0.14911 0.44033 0.79941 0.0
O29 O 0.19356 0.43817 0.84458 0.0
O30 O 0.2285 0.48771 0.00714 0.0
O31 O 0.24558 0.44713 0.97255 0.0
H32 H 0.19477 0.28758 0.97991 0.0
H33 H 0.23895 0.27002 0.98922 0.0
H34 H 0.31834 0.37415 0.90145 0.0
H35 H 0.27427 0.392 0.89358 0.0
H36 H 0.21984 0.55209 0.95883 0.0
H37 H 0.24138 0.61469 0.94131 0.0
H38 H 0.14797 0.60056 0.11991 0.0
H39 H 0.12657 0.53834 0.13772 0.0
C40 C 0.85654 0.19782 0.93296 0.0
Eu41 Eu 0.79531 0.18788 0.99443 0.0
C42 C 0.89326 0.2242 0.9467 0.0
C43 C 0.90321 0.2568 0.99874 0.0
C44 C 0.93841 0.28154 0.01017 0.0
C45 C 0.96393 0.27387 0.96994 0.0
C46 C 0.95389 0.24119 0.91894 0.0
C47 C 0.91877 0.21653 0.90743 0.0
C48 C 0.77474 0.18593 0.23807 0.0
C49 C 0.73775 0.10713 0.99962 0.0
C50 C 0.65953 0.15587 0.09123 0.0
Eu51 Eu 0.72044 0.16649 0.02287 0.0
C52 C 0.63521 0.16856 0.06599 0.0
C53 C 0.60114 0.1448 0.02925 0.0
C54 C 0.57694 0.15557 0.01056 0.0
C55 C 0.58637 0.19024 0.02947 0.0
C56 C 0.62049 0.21422 0.06463 0.0
C57 C 0.64484 0.2035 0.08233 0.0
C58 C 0.7413 0.17081 0.77678 0.0
C59 C 0.77822 0.24878 0.01727 0.0
O60 O 0.84019 0.18234 0.03631 0.0
O61 O 0.83785 0.20545 0.85927 0.0
O62 O 0.80446 0.20922 0.19346 0.0
O63 O 0.7576 0.16382 0.15393 0.0
O64 O 0.76621 0.13073 0.94287 0.0
O65 O 0.7181 0.11613 0.06356 0.0
O66 O 0.68815 0.17636 0.15199 0.0
O67 O 0.66424 0.13882 1.00021 0.0
O68 O 0.71065 0.14891 0.81775 0.0
O69 O 0.75834 0.19116 0.86498 0.0
O70 O 0.74667 0.22462 0.05091 0.0
O71 O 0.8016 0.24093 0.97745 0.0
H72 H 0.88379 0.26308 0.02985 0.0
H73 H 0.94577 0.3067 0.04942 0.0
H74 H 0.97326 0.23491 0.88725 0.0
H75 H 0.9115 0.19146 0.86738 0.0
H76 H 0.59312 0.11775 0.01648 0.0
H77 H 0.55069 0.13678 0.98351 0.0
H78 H 0.62814 0.24111 0.07929 0.0
H79 H 0.67097 0.22244 0.11013 0.0
C80 C 0.66722 0.8547 0.96326 0.0
Eu81 Eu 0.6144 0.79405 0.01508 0.0
C82 C 0.67665 0.89141 0.96922 0.0
C83 C 0.67217 0.9061 0.08029 0.0
C84 C 0.68227 0.94119 0.08436 0.0
C85 C 0.69672 0.96197 0.97739 0.0
C86 C 0.70089 0.94733 0.86619 0.0
C87 C 0.69103 0.91231 0.86232 0.0
C88 C 0.5894 0.77155 0.25096 0.0
C89 C 0.63449 0.73371 0.03257 0.0
C90 C 0.50484 0.65926 0.07144 0.0
Eu91 Eu 0.55833 0.72002 0.02478 0.0
C92 C 0.46733 0.63732 0.04475 0.0
C93 C 0.45592 0.61564 0.93796 0.0
C94 C 0.42071 0.59169 0.92175 0.0
C95 C 0.39639 0.58894 0.01211 0.0
C96 C 0.40746 0.61124 0.11654 0.0
C97 C 0.44264 0.63516 0.13296 0.0
C98 C 0.58241 0.74373 0.78756 0.0
C99 C 0.53747 0.78079 0.0154 0.0
O100 O 0.66336 0.83873 0.07034 0.0
O101 O 0.64388 0.83544 0.87985 0.0
O102 O 0.59861 0.8022 0.20899 0.0
O103 O 0.59554 0.75464 0.16898 0.0
O104 O 0.64306 0.76422 0.98509 0.0
O105 O 0.60329 0.71329 0.07831 0.0
O106 O 0.51447 0.68614 0.14452 0.0
O107 O 0.52663 0.66534 0.97893 0.0
O108 O 0.57245 0.71268 0.82571 0.0
O109 O 0.57656 0.75981 0.87296 0.0
O110 O 0.5273 0.74793 0.0372 0.0
O111 O 0.57006 0.80397 0.9924 0.0
H112 H 0.66101 0.89057 0.16403 0.0
H113 H 0.6788 0.95216 0.17072 0.0
H114 H 0.71197 0.96308 0.78284 0.0
H115 H 0.69476 0.90155 0.77586 0.0
H116 H 0.47426 0.61633 0.86897 0.0
H117 H 0.41258 0.57447 0.84108 0.0
H118 H 0.38898 0.60925 0.18757 0.0
H119 H 0.45059 0.65115 0.21696 0.0
C120 C 0.81537 0.66146 1.00434 0.0
Eu121 Eu 0.8229 0.60825 0.05216 0.0
C122 C 0.78873 0.67152 0.01705 0.0
C123 C 0.75633 0.64912 0.07161 0.0
C124 C 0.73099 0.65889 0.07969 0.0
C125 C 0.73784 0.69111 0.03326 0.0
C126 C 0.77036 0.71356 0.97997 0.0
C127 C 0.79565 0.70381 0.97199 0.0
C128 C 0.82106 0.58371 0.28785 0.0
C129 C 0.90366 0.6281 0.06119 0.0
C130 C 0.84837 0.49959 0.12052 0.0
Eu131 Eu 0.84113 0.55233 0.06278 0.0
C132 C 0.83356 0.46223 0.09803 0.0
C133 C 0.82943 0.44851 0.97551 0.0
C134 C 0.81891 0.41357 0.95797 0.0
C135 C 0.81224 0.39192 0.06249 0.0
C136 C 0.81524 0.40534 0.18453 0.0
C137 C 0.82589 0.44024 0.2021 0.0
C138 C 0.84122 0.57525 0.82434 0.0
C139 C 0.75928 0.53142 0.04815 0.0
O140 O 0.82846 0.65772 0.10913 0.0
O141 O 0.80907 0.63712 0.92227 0.0
O142 O 0.79945 0.59288 0.24698 0.0
O143 O 0.84397 0.58986 0.20535 0.0
O144 O 0.88119 0.63627 0.01512 0.0
O145 O 0.8932 0.59749 0.11064 0.0
O146 O 0.83001 0.50924 0.18799 0.0
O147 O 0.8646 0.52056 0.02691 0.0
O148 O 0.86213 0.56497 0.86304 0.0
O149 O 0.81944 0.57018 0.90987 0.0
O150 O 0.78207 0.5212 0.06859 0.0
O151 O 0.76859 0.56404 0.02863 0.0
H152 H 0.7506 0.62406 0.1067 0.0
H153 H 0.70594 0.64123 0.12054 0.0
H154 H 0.77597 0.73843 0.94332 0.0
H155 H 0.82051 0.72135 0.92955 0.0
H156 H 0.83512 0.46489 0.89352 0.0
H157 H 0.8167 0.40356 0.86316 0.0
H158 H 0.81018 0.38896 0.26614 0.0
H159 H 0.82903 0.45029 0.29728 0.0
C160 C 0.15759 0.79933 0.94175 0.0
Eu161 Eu 0.22304 0.82091 0.98585 0.0
C162 C 0.12189 0.77278 0.97748 0.0
C163 C 0.09983 0.78331 0.03212 0.0
C164 C 0.0649 0.75941 0.05463 0.0
C165 C 0.05139 0.72456 0.02234 0.0
C166 C 0.07349 0.71368 0.97095 0.0
C167 C 0.1085 0.73759 0.94866 0.0
C168 C 0.25064 0.8337 0.22247 0.0
C169 C 0.27976 0.8995 0.97288 0.0
C170 C 0.36212 0.86001 0.03829 0.0
Eu171 Eu 0.29666 0.83742 0.99298 0.0
C172 C 0.38656 0.84705 0.03227 0.0
C173 C 0.376 0.81346 0.98929 0.0
C174 C 0.39985 0.80174 0.98329 0.0
C175 C 0.43439 0.82353 0.02007 0.0
C176 C 0.44483 0.85707 0.06283 0.0
C177 C 0.42104 0.86876 0.06882 0.0
C178 C 0.26817 0.82235 0.75843 0.0
C179 C 0.2409 0.75787 1.00082 0.0
O180 O 0.17587 0.82279 0.02603 0.0
O181 O 0.17622 0.78973 0.87571 0.0
O182 O 0.22835 0.84211 0.18405 0.0
O183 O 0.25527 0.81662 0.13768 0.0
O184 O 0.24928 0.87675 0.92711 0.0
O185 O 0.30039 0.88956 0.02288 0.0
O186 O 0.33789 0.84636 0.12449 0.0
O187 O 0.35045 0.86379 0.93025 0.0
O188 O 0.2893 0.81269 0.80074 0.0
O189 O 0.2642 0.84085 0.83969 0.0
O190 O 0.27364 0.7806 0.02294 0.0
O191 O 0.2175 0.76716 0.97667 0.0
H192 H 0.1094 0.81028 0.05412 0.0
H193 H 0.04816 0.76825 0.09365 0.0
H194 H 0.06338 0.68687 0.945 0.0
H195 H 0.12477 0.72866 0.90598 0.0
H196 H 0.34942 0.79642 0.96057 0.0
H197 H 0.39141 0.77573 0.95051 0.0
H198 H 0.47138 0.87412 0.09184 0.0
H199 H 0.42955 0.89475 0.10201 0.0
C200 C 0.35932 0.153 0.89553 0.0
Eu201 Eu 0.40342 0.21679 0.95844 0.0
C202 C 0.34968 0.11662 0.91156 0.0
C203 C 0.37145 0.10693 0.97257 0.0
C204 C 0.3612 0.07184 0.98498 0.0
C205 C 0.32914 0.04627 0.93666 0.0
C206 C 0.30751 0.05613 0.87612 0.0
C207 C 0.31773 0.09104 0.86372 0.0
C208 C 0.41768 0.24318 0.19734 0.0
C209 C 0.38219 0.27422 0.95431 0.0
C210 C 0.50489 0.35498 0.02311 0.0
Eu211 Eu 0.46147 0.2902 0.97092 0.0
C212 C 0.5423 0.37972 0.02081 0.0
C213 C 0.56649 0.36892 0.99709 0.0
C214 C 0.60206 0.39296 0.99851 0.0
C215 C 0.61369 0.42798 0.02337 0.0
C216 C 0.58942 0.4387 0.04588 0.0
C217 C 0.55396 0.41471 0.04462 0.0
C218 C 0.44754 0.2626 0.73447 0.0
C219 C 0.48399 0.23313 0.97763 0.0
O220 O 0.35517 0.16864 0.99282 0.0
O221 O 0.3876 0.17286 0.83179 0.0
O222 O 0.38692 0.22124 0.15705 0.0
O223 O 0.4397 0.24813 0.11276 0.0
O224 O 0.37384 0.24367 0.90806 0.0
O225 O 0.41324 0.29469 1.00169 0.0
O226 O 0.49417 0.33007 0.10583 0.0
O227 O 0.48969 0.34432 0.91386 0.0
O228 O 0.47846 0.28373 0.776 0.0
O229 O 0.42534 0.25868 0.81699 0.0
O230 O 0.49473 0.26616 0.99519 0.0
O231 O 0.45099 0.20994 0.95763 0.0
H232 H 0.39621 0.1264 0.01015 0.0
H233 H 0.37819 0.06461 0.03195 0.0
H234 H 0.28273 0.03676 0.83837 0.0
H235 H 0.30063 0.0981 0.81641 0.0
H236 H 0.55786 0.34196 0.97846 0.0
H237 H 0.6205 0.3843 0.98119 0.0
H238 H 0.598 0.46561 0.06536 0.0
H239 H 0.53561 0.42344 0.06312 0.0
C240 C 0.34371 0.29032 0.83443 0.0
C241 C 0.35646 0.28612 0.95171 0.0
C242 C 0.32301 0.30818 0.06342 0.0
C243 C 0.30812 0.30964 0.94727 0.0
N244 N 0.30035 0.29792 0.72405 0.0
N245 N 0.35379 0.28512 0.17907 0.0
C246 C 0.31736 0.29951 0.83319 0.0
C247 C 0.34502 0.29358 0.06669 0.0
N248 N 0.35776 0.28689 0.72414 0.0
N249 N 0.31652 0.32124 0.17031 0.0
H250 H 0.36905 0.27353 0.18522 0.0
H251 H 0.34341 0.28655 0.26553 0.0
H252 H 0.29994 0.33144 0.17197 0.0
H253 H 0.32958 0.32451 0.25497 0.0
H254 H 0.3525 0.29351 0.63624 0.0
H255 H 0.37695 0.28005 0.72091 0.0
H256 H 0.30294 0.28691 0.64095 0.0
H257 H 0.2816 0.30535 0.71865 0.0
C258 C 0.0544 0.33385 0.10166 0.0
C259 C 0.07282 0.34973 0.98907 0.0
C260 C 0.01917 0.31811 0.86645 0.0
C261 C 1.00134 0.30038 0.97742 0.0
N262 N 1.00229 0.28743 0.19725 0.0
N263 N 0.0741 0.35471 0.76226 0.0
C264 C 0.01903 0.30723 0.09433 0.0
C265 C 0.05561 0.34105 0.87076 0.0
N266 N 0.07068 0.34441 0.21568 0.0
N267 N 1.00094 0.31402 0.75798 0.0
H268 H 0.10028 0.37333 0.76166 0.0
H269 H 0.06412 0.34613 0.67236 0.0
H270 H 0.97425 0.29741 0.75102 0.0
H271 H 0.01158 0.32901 0.67761 0.0
H272 H 0.05784 0.33686 0.30198 0.0
H273 H 0.09693 0.36259 0.22455 0.0
H274 H 0.01461 0.2884 0.2816 0.0
H275 H 0.97632 0.26799 0.19564 0.0
C276 C 0.69442 0.04565 0.94391 0.0
C277 C 0.72764 0.07008 0.99134 0.0
C278 C 0.74169 0.02385 0.01819 0.0
C279 C 0.70744 0.99922 0.9817 0.0
N280 N 0.64956 0.98553 0.92533 0.0
N281 N 0.78104 0.08191 0.09219 0.0
C282 C 0.68331 0.00981 0.94917 0.0
C283 C 0.7509 0.05909 0.03289 0.0
N284 N 0.67407 0.05676 0.88832 0.0
N285 N 0.76558 0.01359 0.03711 0.0
H286 H 0.78878 0.10788 0.10578 0.0
H287 H 0.79706 0.07461 0.13763 0.0
H288 H 0.7595 0.98785 0.03142 0.0
H289 H 0.79195 0.03078 0.04915 0.0
H290 H 0.65144 0.04055 0.8392 0.0
H291 H 0.6813 0.08274 0.8809 0.0
H292 H 0.62979 0.99139 0.9161 0.0
H293 H 0.64069 0.95905 0.92402 0.0
C294 C 0.69169 0.69757 0.92323 0.0
C295 C 0.7105 0.70094 0.03513 0.0
C296 C 0.67716 0.72286 0.14851 0.0
C297 C 0.66042 0.72215 0.03395 0.0
N298 N 0.65351 0.71199 0.80961 0.0
N299 N 0.72449 0.72011 0.25059 0.0
C300 C 0.66826 0.71047 0.92045 0.0
C301 C 0.70405 0.71437 0.1471 0.0
N302 N 0.6954 0.68092 0.82089 0.0
N303 N 0.66716 0.73142 0.25869 0.0
H304 H 0.74402 0.71371 0.25344 0.0
H305 H 0.72383 0.73333 0.33063 0.0
H306 H 0.64863 0.73917 0.26256 0.0
H307 H 0.67548 0.72879 0.34739 0.0
H308 H 0.67974 0.67414 0.74126 0.0
H309 H 0.71247 0.67131 0.81907 0.0
H310 H 0.6614 0.70819 0.72135 0.0
H311 H 0.63457 0.71911 0.80486 0.0
C312 C 0.99248 0.69107 0.92417 0.0
C313 C 0.01351 0.69999 0.0335 0.0
C314 C 0.96187 0.66477 0.1633 0.0
C315 C 0.94141 0.6532 0.05221 0.0
N316 N 0.9385 0.65019 0.82475 0.0
N317 N 0.01949 0.6922 0.25484 0.0
C318 C 0.95702 0.66504 0.93197 0.0
C319 C 0.99855 0.68595 0.15261 0.0
N320 N 1.0062 0.70806 0.81324 0.0
N321 N 0.94613 0.65666 0.27901 0.0
H322 H 0.04639 0.70794 0.25063 0.0
H323 H 0.01059 0.67974 0.3411 0.0
H324 H 0.91935 0.64155 0.29054 0.0
H325 H 0.95919 0.66728 0.36312 0.0
H326 H 0.99124 0.70551 0.73434 0.0
H327 H 0.03217 0.72706 0.80304 0.0
H328 H 0.9495 0.65509 0.73497 0.0
H329 H 0.9128 0.63035 0.82605 0.0
C330 C 0.29269 0.95565 0.07343 0.0
C331 C 0.29193 0.93695 0.96372 0.0
C332 C 0.31946 0.99065 0.84091 0.0
C333 C 0.31784 0.00892 0.94814 0.0
N334 N 0.29911 0.00874 0.1619 0.0
N335 N 0.30044 0.93524 0.7396 0.0
C336 C 0.30357 0.99143 0.0635 0.0
C337 C 0.30405 0.95405 0.84629 0.0
N338 N 0.28306 0.93917 0.18725 0.0
N339 N 0.33674 0.00851 0.7352 0.0
H340 H 0.2903 0.90857 0.74037 0.0
H341 H 0.30514 0.94551 0.64899 0.0
H342 H 0.34833 0.03531 0.72801 0.0
H343 H 0.34213 0.99734 0.6585 0.0
H344 H 0.28713 0.95197 0.27317 0.0
H345 H 0.27259 0.91258 0.19678 0.0
H346 H 0.28531 0.99675 0.24349 0.0
H347 H 0.30716 0.03503 0.15878 0.0
C348 C 0.22122 0.70064 0.89548 0.0
C349 C 0.22997 0.72068 0.00753 0.0
C350 C 0.22129 0.67057 0.13066 0.0
C351 C 0.2089 0.64972 0.0207 0.0
N352 N 0.19228 0.64348 0.80174 0.0
N353 N 0.23491 0.7244 0.2342 0.0
C354 C 0.20753 0.66436 0.90386 0.0
C355 C 0.22915 0.70557 0.12593 0.0
N356 N 0.22753 0.71652 0.78075 0.0
N357 N 0.22648 0.65714 0.23864 0.0
H358 H 0.24148 0.7503 0.23436 0.0
H359 H 0.2307 0.71377 0.32418 0.0
H360 H 0.22099 0.63161 0.24558 0.0
H361 H 0.23889 0.67193 0.31795 0.0
H362 H 0.22491 0.70383 0.69542 0.0
H363 H 0.2388 0.74319 0.77135 0.0
H364 H 0.18702 0.65214 0.71818 0.0
H365 H 0.18231 0.61681 0.80371 0.0
C366 C 0.53039 0.22358 0.88431 0.0
C367 C 0.50965 0.22147 0.98966 0.0
C368 C 0.53803 0.19737 0.11901 0.0
C369 C 0.56005 0.20119 0.01567 0.0
N370 N 0.58016 0.22075 0.80429 0.0
N371 N 0.49654 0.21134 0.21142 0.0
C372 C 0.55704 0.21508 0.89934 0.0
C373 C 0.51417 0.20962 0.10818 0.0
N374 N 0.52411 0.23313 0.76944 0.0
N375 N 0.53964 0.18155 0.22696 0.0
H376 H 0.47862 0.21983 0.20666 0.0
H377 H 0.50134 0.20682 0.30334 0.0
H378 H 0.55782 0.17366 0.24075 0.0
H379 H 0.52167 0.17422 0.30005 0.0
H380 H 0.53535 0.23146 0.68543 0.0
H381 H 0.5059 0.24098 0.75653 0.0
H382 H 0.58203 0.23426 0.72219 0.0
H383 H 0.59918 0.21369 0.81039 0.0
C384 C 0.33667 0.56284 0.91749 0.0
C385 C 0.35976 0.56062 1.00367 0.0
C386 C 0.31223 0.50666 0.08819 0.0
C387 C 0.28974 0.50716 0.99476 0.0
N388 N 0.28197 0.53247 0.80592 0.0
N389 N 0.37139 0.52715 0.15333 0.0
C390 C 0.30233 0.53442 0.90532 0.0
C391 C 0.34808 0.53152 0.08369 0.0
N392 N 0.3473 0.59243 0.84968 0.0
N393 N 0.29913 0.48359 0.18531 0.0
H394 H 0.39795 0.54479 0.15292 0.0
H395 H 0.36485 0.50453 0.2024 0.0
H396 H 0.27288 0.46571 0.1945 0.0
H397 H 0.31367 0.48452 0.26346 0.0
H398 H 0.33058 0.59711 0.79571 0.0
H399 H 0.37238 0.61356 0.85521 0.0
H400 H 0.29088 0.54972 0.73069 0.0
H401 H 0.257 0.51171 0.79256 0.0
C402 C 0.82889 0.34611 0.07724 0.0
C403 C 0.80387 0.35554 0.04514 0.0
C404 C 0.76401 0.29608 0.97761 0.0
C405 C 0.78733 0.2857 0.02484 0.0
N406 N 0.83894 0.30047 0.14612 0.0
N407 N 0.74544 0.33866 0.98394 0.0
C408 C 0.81906 0.31062 0.08142 0.0
C409 C 0.77078 0.33028 1.00069 0.0
N410 N 0.86232 0.3711 0.10163 0.0
N411 N 0.73616 0.27393 0.906 0.0
H412 H 0.74949 0.3635 0.99896 0.0
H413 H 0.71966 0.32036 0.96586 0.0
H414 H 0.73044 0.24896 0.88307 0.0
H415 H 0.7206 0.28147 0.85846 0.0
H416 H 0.88246 0.3658 0.11214 0.0
H417 H 0.87061 0.39745 0.09914 0.0
H418 H 0.86031 0.31737 0.20002 0.0
H419 H 0.83211 0.27475 0.15813 0.0
C420 C 0.46941 0.80204 0.13147 0.0
C421 C 0.45977 0.81118 0.01693 0.0
C422 C 0.49951 0.79813 0.8996 0.0
C423 C 0.51119 0.79184 0.0155 0.0
N424 N 0.51272 0.7948 0.24256 0.0
N425 N 0.4684 0.82249 0.79366 0.0
C426 C 0.49759 0.79563 0.1318 0.0
C427 C 0.47551 0.8104 0.90116 0.0
N428 N 0.45118 0.79882 0.23955 0.0
N429 N 0.51086 0.79173 0.78818 0.0
H430 H 0.45062 0.83122 0.79093 0.0
H431 H 0.48183 0.82622 0.70923 0.0
H432 H 0.52933 0.7839 0.78359 0.0
H433 H 0.5004 0.79192 0.70077 0.0
H434 H 0.45458 0.78863 0.32292 0.0
H435 H 0.43043 0.80346 0.24308 0.0
H436 H 0.5062 0.80076 0.32985 0.0
H437 H 0.53436 0.79167 0.24582 0.0
C438 C 0.70192 0.49415 0.1532 0.0
C439 C 0.72206 0.50502 0.04121 0.0
C440 C 0.67076 0.46653 0.91586 0.0
C441 C 0.65138 0.45361 0.02901 0.0
N442 N 0.64957 0.45057 0.25615 0.0
N443 N 0.7274 0.49932 0.81729 0.0
C444 C 0.6673 0.46612 0.14803 0.0
C445 C 0.70697 0.49051 0.92278 0.0
N446 N 0.71551 0.51141 0.26376 0.0
N447 N 0.65428 0.45682 0.80197 0.0
H448 H 0.75371 0.51779 0.81812 0.0
H449 H 0.71893 0.48683 0.73078 0.0
H450 H 0.62788 0.43906 0.79321 0.0
H451 H 0.66606 0.46814 0.71667 0.0
H452 H 0.70105 0.50706 0.34598 0.0
H453 H 0.7406 0.53238 0.27045 0.0
H454 H 0.66096 0.45601 0.34507 0.0
H455 H 0.62413 0.42997 0.25611 0.0
C456 C 0.16651 0.39719 0.56471 0.0
C457 C 0.17797 0.42987 0.62242 0.0
C458 C 0.20086 0.45828 0.41807 0.0
C459 C 0.18616 0.42545 0.35866 0.0
N460 N 0.15161 0.3634 0.37177 0.0
N461 N 0.20272 0.49156 0.60227 0.0
C462 C 0.16798 0.39482 0.43103 0.0
C463 C 0.19417 0.46045 0.54846 0.0
N464 N 0.15513 0.36844 0.63793 0.0
N465 N 0.22224 0.48736 0.35088 0.0
H466 H 0.19962 0.49454 0.6982 0.0
H467 H 0.2108 0.51411 0.55066 0.0
H468 H 0.22752 0.48673 0.2554 0.0
H469 H 0.23692 0.5117 0.39154 0.0
H470 H 0.14999 0.34449 0.60349 0.0
H471 H 0.15376 0.36926 0.7356 0.0
H472 H 0.13448 0.34045 0.41712 0.0
H473 H 0.15295 0.36048 0.27462 0.0
C474 C 0.76224 0.20752 0.57761 0.0
C475 C 0.7512 0.1754 0.63969 0.0
C476 C 0.75863 0.15111 0.44013 0.0
C477 C 0.76623 0.18197 0.37592 0.0
N478 N 0.77061 0.23794 0.38005 0.0
N479 N 0.73536 0.11523 0.62567 0.0
C480 C 0.76706 0.20982 0.44403 0.0
C481 C 0.74811 0.14676 0.56925 0.0
N482 N 0.76789 0.23596 0.64519 0.0
N483 N 0.76369 0.12678 0.38046 0.0
H484 H 0.73029 0.11124 0.72187 0.0
H485 H 0.72788 0.09247 0.57566 0.0
H486 H 0.77279 0.12951 0.28824 0.0
H487 H 0.7624 0.10556 0.42596 0.0
H488 H 0.7808 0.26095 0.60896 0.0
H489 H 0.76154 0.23526 0.73979 0.0
H490 H 0.76706 0.25718 0.42099 0.0
H491 H 0.77412 0.24072 0.28285 0.0
C492 C 0.5532 0.74081 0.58222 0.0
C493 C 0.58432 0.7523 0.65143 0.0
C494 C 0.61874 0.77764 0.45898 0.0
C495 C 0.58758 0.76436 0.38841 0.0
N496 N 0.52528 0.73165 0.37831 0.0
N497 N 0.64658 0.77988 0.65791 0.0
C498 C 0.55483 0.74553 0.44895 0.0
C499 C 0.61706 0.77035 0.59039 0.0
N500 N 0.52211 0.72613 0.64473 0.0
N501 N 0.64994 0.7979 0.40057 0.0
H502 H 0.64648 0.77721 0.75531 0.0
H503 H 0.67097 0.78896 0.61786 0.0
H504 H 0.65246 0.80229 0.30361 0.0
H505 H 0.67335 0.81191 0.44803 0.0
H506 H 0.49877 0.72066 0.60335 0.0
H507 H 0.51975 0.72145 0.74156 0.0
H508 H 0.50071 0.71422 0.41245 0.0
H509 H 0.52552 0.73619 0.28209 0.0
C510 C 0.84719 0.60991 0.62979 0.0
C511 C 0.83465 0.57721 0.68791 0.0
C512 C 0.81107 0.54852 0.48444 0.0
C513 C 0.82642 0.58129 0.42477 0.0
N514 N 0.86284 0.64321 0.43626 0.0
N515 N 0.80718 0.51517 0.67027 0.0
C516 C 0.84556 0.612 0.49628 0.0
C517 C 0.8173 0.54642 0.61504 0.0
N518 N 0.85983 0.63898 0.70254 0.0
N519 N 0.78974 0.51945 0.41696 0.0
H520 H 0.80932 0.51225 0.76678 0.0
H521 H 0.79834 0.49226 0.61985 0.0
H522 H 0.78549 0.51995 0.32067 0.0
H523 H 0.77439 0.49523 0.45733 0.0
H524 H 0.8658 0.66312 0.66798 0.0
H525 H 0.86152 0.63841 0.80012 0.0
H526 H 0.88063 0.66604 0.48088 0.0
H527 H 0.86159 0.646 0.33914 0.0
C528 C 0.28585 0.856 0.42041 0.0
C529 C 0.25579 0.83013 0.35858 0.0
C530 C 0.23302 0.80001 0.56004 0.0
C531 C 0.2637 0.82515 0.62103 0.0
N532 N 0.32125 0.87477 0.60923 0.0
N533 N 0.20257 0.77533 0.36362 0.0
C534 C 0.29067 0.85252 0.55111 0.0
C535 C 0.22985 0.8015 0.42684 0.0
N536 N 0.3094 0.88441 0.35462 0.0
N537 N 0.20661 0.77507 0.63016 0.0
H538 H 0.19884 0.77587 0.2668 0.0
H539 H 0.18487 0.75189 0.40449 0.0
H540 H 0.20877 0.77232 0.72655 0.0
H541 H 0.18194 0.75836 0.59536 0.0
H542 H 0.32946 0.90642 0.39629 0.0
H543 H 0.30778 0.88684 0.2577 0.0
H544 H 0.34349 0.89259 0.5614 0.0
H545 H 0.32524 0.87428 0.7058 0.0
C546 C 0.43512 0.22707 0.53652 0.0
C547 C 0.43973 0.25744 0.5972 0.0
C548 C 0.4336 0.27998 0.39347 0.0
C549 C 0.42619 0.24844 0.3344 0.0
N550 N 0.41646 0.19037 0.35051 0.0
N551 N 0.43997 0.31148 0.58796 0.0
C552 C 0.42596 0.22151 0.40628 0.0
C553 C 0.43804 0.28354 0.52682 0.0
N554 N 0.44052 0.20398 0.60266 0.0
N555 N 0.43715 0.30687 0.32159 0.0
H556 H 0.44434 0.31564 0.68465 0.0
H557 H 0.43469 0.32927 0.54526 0.0
H558 H 0.43329 0.3049 0.2246 0.0
H559 H 0.44643 0.33182 0.35573 0.0
H560 H 0.44173 0.18344 0.56137 0.0
H561 H 0.44628 0.20676 0.6986 0.0
H562 H 0.4116 0.16837 0.40036 0.0
H563 H 0.4115 0.18581 0.25425 0.0
loop_
_geom_bond_atom_site_label_1
_geom_bond_atom_site_label_2
_geom_bond_distance
_geom_bond_site_symmetry_2
_ccdc_geom_bond_type
C0 Eu1 2.835 1_556 S
C0 C2 1.500 . S
C0 O20 1.257 . S
C0 O21 1.260 1_556 S
Eu1 C0 2.835 1_554 S
Eu1 O20 2.473 1_554 S
Eu1 O21 2.480 . S
Eu1 O22 2.430 . S
Eu1 O23 2.670 . S
Eu1 O24 2.394 . S
Eu1 O29 2.355 1_554 S
Eu1 O31 2.374 . S
C2 C0 1.500 . S
C2 C3 1.377 1_556 S
C2 C7 1.377 . S
C3 C2 1.377 1_554 S
C3 C4 1.395 . S
C3 H32 0.931 . S
C4 C3 1.395 . S
C4 C5 1.383 1_554 S
C4 H33 0.931 . S
C5 C4 1.383 1_556 S
C5 C6 1.394 . S
C6 C5 1.394 . S
C6 C7 1.378 . S
C6 H34 0.931 . S
C7 C2 1.377 . S
C7 C6 1.378 . S
C7 H35 0.931 . S
C8 O22 1.259 . S
C8 O23 1.270 . S
C9 O24 1.251 . S
C9 O25 1.251 . S
C10 Eu11 2.835 1_554 S
C10 C12 1.500 . S
C10 O26 1.257 . S
C10 O27 1.260 1_554 S
Eu11 C10 2.835 1_556 S
Eu11 O23 2.355 1_556 S
Eu11 O25 2.374 1_556 S
Eu11 O26 2.473 1_556 S
Eu11 O27 2.480 . S
Eu11 O28 2.430 . S
Eu11 O29 2.670 . S
Eu11 O30 2.394 . S
C12 C10 1.500 . S
C12 C13 1.377 1_554 S
C12 C17 1.377 . S
C13 C12 1.377 1_556 S
C13 C14 1.395 . S
C13 H36 0.931 . S
C14 C13 1.395 . S
C14 C15 1.383 1_556 S
C14 H37 0.931 . S
C15 C14 1.383 1_554 S
C15 C16 1.394 . S
C16 C15 1.394 . S
C16 C17 1.378 . S
C16 H38 0.931 . S
C17 C12 1.377 . S
C17 C16 1.378 . S
C17 H39 0.931 . S
C18 O28 1.259 . S
C18 O29 1.270 . S
C19 O30 1.251 . S
C19 O31 1.251 1_556 S
O20 C0 1.257 . S
O20 Eu1 2.473 1_556 S
O21 C0 1.260 1_554 S
O21 Eu1 2.480 . S
O22 Eu1 2.430 . S
O22 C8 1.259 . S
O23 Eu1 2.670 . S
O23 C8 1.270 . S
O23 Eu11 2.355 1_554 S
O24 Eu1 2.394 . S
O24 C9 1.251 . S
O25 C9 1.251 . S
O25 Eu11 2.374 1_554 S
O26 C10 1.257 . S
O26 Eu11 2.473 1_554 S
O27 C10 1.260 1_556 S
O27 Eu11 2.480 . S
O28 Eu11 2.430 . S
O28 C18 1.259 . S
O29 Eu1 2.355 1_556 S
O29 Eu11 2.670 . S
O29 C18 1.270 . S
O30 Eu11 2.394 . S
O30 C19 1.251 . S
O31 Eu1 2.374 . S
O31 C19 1.251 1_554 S
H32 C3 0.931 . S
H33 C4 0.931 . S
H34 C6 0.931 . S
H35 C7 0.931 . S
H36 C13 0.931 . S
H37 C14 0.931 . S
H38 C16 0.931 . S
H39 C17 0.931 . S
C40 Eu41 2.835 1_556 S
C40 C42 1.500 . S
C40 O60 1.257 . S
C40 O61 1.260 1_556 S
Eu41 C40 2.835 1_554 S
Eu41 O60 2.473 1_554 S
Eu41 O61 2.480 . S
Eu41 O62 2.430 . S
Eu41 O63 2.670 . S
Eu41 O64 2.394 . S
Eu41 O69 2.355 1_554 S
Eu41 O71 2.374 . S
C42 C40 1.500 . S
C42 C43 1.377 1_556 S
C42 C47 1.377 . S
C43 C42 1.377 1_554 S
C43 C44 1.395 . S
C43 H72 0.931 . S
C44 C43 1.395 . S
C44 C45 1.383 1_554 S
C44 H73 0.931 . S
C45 C44 1.383 1_556 S
C45 C46 1.394 . S
C46 C45 1.394 . S
C46 C47 1.378 . S
C46 H74 0.931 . S
C47 C42 1.377 . S
C47 C46 1.378 . S
C47 H75 0.931 . S
C48 O62 1.259 . S
C48 O63 1.270 . S
C49 O64 1.251 . S
C49 O65 1.251 . S
C50 Eu51 2.835 1_554 S
C50 C52 1.500 . S
C50 O66 1.257 . S
C50 O67 1.260 1_554 S
Eu51 C50 2.835 1_556 S
Eu51 O63 2.355 1_556 S
Eu51 O65 2.374 1_556 S
Eu51 O66 2.473 1_556 S
Eu51 O67 2.480 . S
Eu51 O68 2.430 . S
Eu51 O69 2.670 . S
Eu51 O70 2.394 . S
C52 C50 1.500 . S
C52 C53 1.377 1_554 S
C52 C57 1.377 . S
C53 C52 1.377 1_556 S
C53 C54 1.395 . S
C53 H76 0.931 . S
C54 C53 1.395 . S
C54 C55 1.383 1_556 S
C54 H77 0.931 . S
C55 C54 1.383 1_554 S
C55 C56 1.394 . S
C56 C55 1.394 . S
C56 C57 1.378 . S
C56 H78 0.931 . S
C57 C52 1.377 . S
C57 C56 1.378 . S
C57 H79 0.931 . S
C58 O68 1.259 . S
C58 O69 1.270 . S
C59 O70 1.251 . S
C59 O71 1.251 1_556 S
O60 C40 1.257 . S
O60 Eu41 2.473 1_556 S
O61 C40 1.260 1_554 S
O61 Eu41 2.480 . S
O62 Eu41 2.430 . S
O62 C48 1.259 . S
O63 Eu41 2.670 . S
O63 C48 1.270 . S
O63 Eu51 2.355 1_554 S
O64 Eu41 2.394 . S
O64 C49 1.251 . S
O65 C49 1.251 . S
O65 Eu51 2.374 1_554 S
O66 C50 1.257 . S
O66 Eu51 2.473 1_554 S
O67 C50 1.260 1_556 S
O67 Eu51 2.480 . S
O68 Eu51 2.430 . S
O68 C58 1.259 . S
O69 Eu41 2.355 1_556 S
O69 Eu51 2.670 . S
O69 C58 1.270 . S
O70 Eu51 2.394 . S
O70 C59 1.251 . S
O71 Eu41 2.374 . S
O71 C59 1.251 1_554 S
H72 C43 0.931 . S
H73 C44 0.931 . S
H74 C46 0.931 . S
H75 C47 0.931 . S
H76 C53 0.931 . S
H77 C54 0.931 . S
H78 C56 0.931 . S
H79 C57 0.931 . S
C80 Eu81 2.835 1_556 S
C80 C82 1.500 . S
C80 O100 1.257 . S
C80 O101 1.260 1_556 S
Eu81 C80 2.835 1_554 S
Eu81 O100 2.473 1_554 S
Eu81 O101 2.480 . S
Eu81 O102 2.430 . S
Eu81 O103 2.670 . S
Eu81 O104 2.394 . S
Eu81 O109 2.355 1_554 S
Eu81 O111 2.374 . S
C82 C80 1.500 . S
C82 C83 1.377 1_556 S
C82 C87 1.377 . S
C83 C82 1.377 1_554 S
C83 C84 1.395 . S
C83 H112 0.931 . S
C84 C83 1.395 . S
C84 C85 1.383 1_554 S
C84 H113 0.931 . S
C85 C84 1.383 1_556 S
C85 C86 1.394 . S
C86 C85 1.394 . S
C86 C87 1.378 . S
C86 H114 0.931 . S
C87 C82 1.377 . S
C87 C86 1.378 . S
C87 H115 0.931 . S
C88 O102 1.259 . S
C88 O103 1.270 . S
C89 O104 1.251 . S
C89 O105 1.251 . S
C90 Eu91 2.835 1_554 S
C90 C92 1.500 . S
C90 O106 1.257 . S
C90 O107 1.260 1_554 S
Eu91 C90 2.835 1_556 S
Eu91 O103 2.355 1_556 S
Eu91 O105 2.374 1_556 S
Eu91 O106 2.473 1_556 S
Eu91 O107 2.480 . S
Eu91 O108 2.430 . S
Eu91 O109 2.670 . S
Eu91 O110 2.394 . S
C92 C90 1.500 . S
C92 C93 1.377 1_554 S
C92 C97 1.377 . S
C93 C92 1.377 1_556 S
C93 C94 1.395 . S
C93 H116 0.931 . S
C94 C93 1.395 . S
C94 C95 1.383 1_556 S
C94 H117 0.931 . S
C95 C94 1.383 1_554 S
C95 C96 1.394 . S
C96 C95 1.394 . S
C96 C97 1.378 . S
C96 H118 0.931 . S
C97 C92 1.377 . S
C97 C96 1.378 . S
C97 H119 0.931 . S
C98 O108 1.259 . S
C98 O109 1.270 . S
C99 O110 1.251 . S
C99 O111 1.251 1_556 S
O100 C80 1.257 . S
O100 Eu81 2.473 1_556 S
O101 C80 1.260 1_554 S
O101 Eu81 2.480 . S
O102 Eu81 2.430 . S
O102 C88 1.259 . S
O103 Eu81 2.670 . S
O103 C88 1.270 . S
O103 Eu91 2.355 1_554 S
O104 Eu81 2.394 . S
O104 C89 1.251 . S
O105 C89 1.251 . S
O105 Eu91 2.374 1_554 S
O106 C90 1.257 . S
O106 Eu91 2.473 1_554 S
O107 C90 1.260 1_556 S
O107 Eu91 2.480 . S
O108 Eu91 2.430 . S
O108 C98 1.259 . S
O109 Eu81 2.355 1_556 S
O109 Eu91 2.670 . S
O109 C98 1.270 . S
O110 Eu91 2.394 . S
O110 C99 1.251 . S
O111 Eu81 2.374 . S
O111 C99 1.251 1_554 S
H112 C83 0.931 . S
H113 C84 0.931 . S
H114 C86 0.931 . S
H115 C87 0.931 . S
H116 C93 0.931 . S
H117 C94 0.931 . S
H118 C96 0.931 . S
H119 C97 0.931 . S
C120 Eu121 2.835 1_556 S
C120 C122 1.500 . S
C120 O140 1.257 . S
C120 O141 1.260 1_556 S
Eu121 C120 2.835 1_554 S
Eu121 O140 2.473 1_554 S
Eu121 O141 2.480 . S
Eu121 O142 2.430 . S
Eu121 O143 2.670 . S
Eu121 O144 2.394 . S
Eu121 O149 2.355 1_554 S
Eu121 O151 2.374 . S
C122 C120 1.500 . S
C122 C123 1.377 1_556 S
C122 C127 1.377 . S
C123 C122 1.377 1_554 S
C123 C124 1.395 . S
C123 H152 0.931 . S
C124 C123 1.395 . S
C124 C125 1.383 1_554 S
C124 H153 0.931 . S
C125 C124 1.383 1_556 S
C125 C126 1.394 . S
C126 C125 1.394 . S
C126 C127 1.378 . S
C126 H154 0.931 . S
C127 C122 1.377 . S
C127 C126 1.378 . S
C127 H155 0.931 . S
C128 O142 1.259 . S
C128 O143 1.270 . S
C129 O144 1.251 . S
C129 O145 1.251 . S
C130 Eu131 2.835 1_554 S
C130 C132 1.500 . S
C130 O146 1.257 . S
C130 O147 1.260 1_554 S
Eu131 C130 2.835 1_556 S
Eu131 O143 2.355 1_556 S
Eu131 O145 2.374 1_556 S
Eu131 O146 2.473 1_556 S
Eu131 O147 2.480 . S
Eu131 O148 2.430 . S
Eu131 O149 2.670 . S
Eu131 O150 2.394 . S
C132 C130 1.500 . S
C132 C133 1.377 1_554 S
C132 C137 1.377 . S
C133 C132 1.377 1_556 S
C133 C134 1.395 . S
C133 H156 0.931 . S
C134 C133 1.395 . S
C134 C135 1.383 1_556 S
C134 H157 0.931 . S
C135 C134 1.383 1_554 S
C135 C136 1.394 . S
C136 C135 1.394 . S
C136 C137 1.378 . S
C136 H158 0.931 . S
C137 C132 1.377 . S
C137 C136 1.378 . S
C137 H159 0.931 . S
C138 O148 1.259 . S
C138 O149 1.270 . S
C139 O150 1.251 . S
C139 O151 1.251 1_556 S
O140 C120 1.257 . S
O140 Eu121 2.473 1_556 S
O141 C120 1.260 1_554 S
O141 Eu121 2.480 . S
O142 Eu121 2.430 . S
O142 C128 1.259 . S
O143 Eu121 2.670 . S
O143 C128 1.270 . S
O143 Eu131 2.355 1_554 S
O144 Eu121 2.394 . S
O144 C129 1.251 . S
O145 C129 1.251 . S
O145 Eu131 2.374 1_554 S
O146 C130 1.257 . S
O146 Eu131 2.473 1_554 S
O147 C130 1.260 1_556 S
O147 Eu131 2.480 . S
O148 Eu131 2.430 . S
O148 C138 1.259 . S
O149 Eu121 2.355 1_556 S
O149 Eu131 2.670 . S
O149 C138 1.270 . S
O150 Eu131 2.394 . S
O150 C139 1.251 . S
O151 Eu121 2.374 . S
O151 C139 1.251 1_554 S
H152 C123 0.931 . S
H153 C124 0.931 . S
H154 C126 0.931 . S
H155 C127 0.931 . S
H156 C133 0.931 . S
H157 C134 0.931 . S
H158 C136 0.931 . S
H159 C137 0.931 . S
C160 Eu161 2.835 1_556 S
C160 C162 1.500 . S
C160 O180 1.257 . S
C160 O181 1.260 1_556 S
Eu161 C160 2.835 1_554 S
Eu161 O180 2.473 1_554 S
Eu161 O181 2.480 . S
Eu161 O182 2.430 . S
Eu161 O183 2.670 . S
Eu161 O184 2.394 . S
Eu161 O189 2.355 1_554 S
Eu161 O191 2.374 . S
C162 C160 1.500 . S
C162 C163 1.377 1_556 S
C162 C167 1.377 . S
C163 C162 1.377 1_554 S
C163 C164 1.395 . S
C163 H192 0.931 . S
C164 C163 1.395 . S
C164 C165 1.383 1_554 S
C164 H193 0.931 . S
C165 C164 1.383 1_556 S
C165 C166 1.394 . S
C166 C165 1.394 . S
C166 C167 1.378 . S
C166 H194 0.931 . S
C167 C162 1.377 . S
C167 C166 1.378 . S
C167 H195 0.931 . S
C168 O182 1.259 . S
C168 O183 1.270 . S
C169 O184 1.251 . S
C169 O185 1.251 . S
C170 Eu171 2.835 1_554 S
C170 C172 1.500 . S
C170 O186 1.257 . S
C170 O187 1.260 1_554 S
Eu171 C170 2.835 1_556 S
Eu171 O183 2.355 1_556 S
Eu171 O185 2.374 1_556 S
Eu171 O186 2.473 1_556 S
Eu171 O187 2.480 . S
Eu171 O188 2.430 . S
Eu171 O189 2.670 . S
Eu171 O190 2.394 . S
C172 C170 1.500 . S
C172 C173 1.377 1_554 S
C172 C177 1.377 . S
C173 C172 1.377 1_556 S
C173 C174 1.395 . S
C173 H196 0.931 . S
C174 C173 1.395 . S
C174 C175 1.383 1_556 S
C174 H197 0.931 . S
C175 C174 1.383 1_554 S
C175 C176 1.394 . S
C176 C175 1.394 . S
C176 C177 1.378 . S
C176 H198 0.931 . S
C177 C172 1.377 . S
C177 C176 1.378 . S
C177 H199 0.931 . S
C178 O188 1.259 . S
C178 O189 1.270 . S
C179 O190 1.251 . S
C179 O191 1.251 1_556 S
O180 C160 1.257 . S
O180 Eu161 2.473 1_556 S
O181 C160 1.260 1_554 S
O181 Eu161 2.480 . S
O182 Eu161 2.430 . S
O182 C168 1.259 . S
O183 Eu161 2.670 . S
O183 C168 1.270 . S
O183 Eu171 2.355 1_554 S
O184 Eu161 2.394 . S
O184 C169 1.251 . S
O185 C169 1.251 . S
O185 Eu171 2.374 1_554 S
O186 C170 1.257 . S
O186 Eu171 2.473 1_554 S
O187 C170 1.260 1_556 S
O187 Eu171 2.480 . S
O188 Eu171 2.430 . S
O188 C178 1.259 . S
O189 Eu161 2.355 1_556 S
O189 Eu171 2.670 . S
O189 C178 1.270 . S
O190 Eu171 2.394 . S
O190 C179 1.251 . S
O191 Eu161 2.374 . S
O191 C179 1.251 1_554 S
H192 C163 0.931 . S
H193 C164 0.931 . S
H194 C166 0.931 . S
H195 C167 0.931 . S
H196 C173 0.931 . S
H197 C174 0.931 . S
H198 C176 0.931 . S
H199 C177 0.931 . S
C200 Eu201 2.835 1_556 S
C200 C202 1.500 . S
C200 O220 1.257 . S
C200 O221 1.260 1_556 S
Eu201 C200 2.835 1_554 S
Eu201 O220 2.473 1_554 S
Eu201 O221 2.480 . S
Eu201 O222 2.430 . S
Eu201 O223 2.670 . S
Eu201 O224 2.394 . S
Eu201 O229 2.355 1_554 S
Eu201 O231 2.374 . S
C202 C200 1.500 . S
C202 C203 1.377 1_556 S
C202 C207 1.377 . S
C203 C202 1.377 1_554 S
C203 C204 1.395 . S
C203 H232 0.931 . S
C204 C203 1.395 . S
C204 C205 1.383 1_554 S
C204 H233 0.931 . S
C205 C204 1.383 1_556 S
C205 C206 1.394 . S
C206 C205 1.394 . S
C206 C207 1.378 . S
C206 H234 0.931 . S
C207 C202 1.377 . S
C207 C206 1.378 . S
C207 H235 0.931 . S
C208 O222 1.259 . S
C208 O223 1.270 . S
C209 O224 1.251 . S
C209 O225 1.251 . S
C210 Eu211 2.835 1_554 S
C210 C212 1.500 . S
C210 O226 1.257 . S
C210 O227 1.260 1_554 S
Eu211 C210 2.835 1_556 S
Eu211 O223 2.355 1_556 S
Eu211 O225 2.374 1_556 S
Eu211 O226 2.473 1_556 S
Eu211 O227 2.480 . S
Eu211 O228 2.430 . S
Eu211 O229 2.670 . S
Eu211 O230 2.394 . S
C212 C210 1.500 . S
C212 C213 1.377 1_554 S
C212 C217 1.377 . S
C213 C212 1.377 1_556 S
C213 C214 1.395 . S
C213 H236 0.931 . S
C214 C213 1.395 . S
C214 C215 1.383 1_556 S
C214 H237 0.931 . S
C215 C214 1.383 1_554 S
C215 C216 1.394 . S
C216 C215 1.394 . S
C216 C217 1.378 . S
C216 H238 0.931 . S
C217 C212 1.377 . S
C217 C216 1.378 . S
C217 H239 0.931 . S
C218 O228 1.259 . S
C218 O229 1.270 . S
C219 O230 1.251 . S
C219 O231 1.251 1_556 S
O220 C200 1.257 . S
O220 Eu201 2.473 1_556 S
O221 C200 1.260 1_554 S
O221 Eu201 2.480 . S
O222 Eu201 2.430 . S
O222 C208 1.259 . S
O223 Eu201 2.670 . S
O223 C208 1.270 . S
O223 Eu211 2.355 1_554 S
O224 Eu201 2.394 . S
O224 C209 1.251 . S
O225 C209 1.251 . S
O225 Eu211 2.374 1_554 S
O226 C210 1.257 . S
O226 Eu211 2.473 1_554 S
O227 C210 1.260 1_556 S
O227 Eu211 2.480 . S
O228 Eu211 2.430 . S
O228 C218 1.259 . S
O229 Eu201 2.355 1_556 S
O229 Eu211 2.670 . S
O229 C218 1.270 . S
O230 Eu211 2.394 . S
O230 C219 1.251 . S
O231 Eu201 2.374 . S
O231 C219 1.251 1_554 S
H232 C203 0.931 . S
H233 C204 0.931 . S
H234 C206 0.931 . S
H235 C207 0.931 . S
H236 C213 0.931 . S
H237 C214 0.931 . S
H238 C216 0.931 . S
H239 C217 0.931 . S
C240 C241 1.363 . S
C240 C246 1.379 . S
C240 N248 1.356 . S
C241 C240 1.363 . S
C241 C247 1.363 1_556 S
C242 C243 1.363 1_554 S
C242 C247 1.379 . S
C242 N249 1.356 . S
C243 C242 1.363 1_556 S
C243 C246 1.363 . S
N244 C246 1.356 . S
N244 H256 0.984 . S
N244 H257 0.985 . S
N245 C247 1.356 . S
N245 H250 0.984 . S
N245 H251 0.985 . S
C246 C240 1.379 . S
C246 C243 1.363 . S
C246 N244 1.356 . S
C247 C241 1.363 1_554 S
C247 C242 1.379 . S
C247 N245 1.356 . S
N248 C240 1.356 . S
N248 H254 0.984 . S
N248 H255 0.984 . S
N249 C242 1.356 . S
N249 H252 0.984 . S
N249 H253 0.985 . S
H250 N245 0.984 . S
H251 N245 0.985 . S
H252 N249 0.984 . S
H253 N249 0.985 . S
H254 N248 0.984 . S
H255 N248 0.984 . S
H256 N244 0.984 . S
H257 N244 0.985 . S
C258 C259 1.363 1_554 S
C258 C264 1.379 . S
C258 N266 1.356 . S
C259 C258 1.363 1_556 S
C259 C265 1.363 . S
C260 C261 1.363 . S
C260 C265 1.379 . S
C260 N267 1.356 . S
C261 C260 1.363 . S
C261 C264 1.363 1_556 S
N262 C264 1.356 . S
N262 H274 0.984 . S
N262 H275 0.985 . S
N263 C265 1.356 . S
N263 H268 0.984 . S
N263 H269 0.985 . S
C264 C258 1.379 . S
C264 C261 1.363 1_554 S
C264 N262 1.356 . S
C265 C259 1.363 . S
C265 C260 1.379 . S
C265 N263 1.356 . S
N266 C258 1.356 . S
N266 H272 0.984 . S
N266 H273 0.984 . S
N267 C260 1.356 . S
N267 H270 0.980 1_455 S
N267 H271 0.985 . S
H268 N263 0.984 . S
H269 N263 0.985 . S
H270 N267 0.980 1_655 S
H271 N267 0.985 . S
H272 N266 0.984 . S
H273 N266 0.984 . S
H274 N262 0.984 . S
H275 N262 0.985 . S
C276 C277 1.363 . S
C276 C282 1.379 . S
C276 N284 1.356 . S
C277 C276 1.363 . S
C277 C283 1.363 1_556 S
C278 C279 1.363 1_554 S
C278 C283 1.379 . S
C278 N285 1.356 . S
C279 C278 1.363 1_556 S
C279 C282 1.363 . S
N280 C282 1.356 . S
N280 H292 0.984 . S
N280 H293 0.985 1_545 S
N281 C283 1.356 . S
N281 H286 0.984 . S
N281 H287 0.985 . S
C282 C276 1.379 . S
C282 C279 1.363 . S
C282 N280 1.356 . S
C283 C277 1.363 1_554 S
C283 C278 1.379 . S
C283 N281 1.356 . S
N284 C276 1.356 . S
N284 H290 0.984 . S
N284 H291 0.984 . S
N285 C278 1.356 . S
N285 H288 0.984 . S
N285 H289 0.985 . S
H286 N281 0.984 . S
H287 N281 0.985 . S
H288 N285 0.984 . S
H289 N285 0.985 . S
H290 N284 0.984 . S
H291 N284 0.984 . S
H292 N280 0.984 . S
H293 N280 0.985 1_565 S
C294 C295 1.363 . S
C294 C300 1.379 . S
C294 N302 1.356 . S
C295 C294 1.363 . S
C295 C301 1.363 1_556 S
C296 C297 1.363 1_554 S
C296 C301 1.379 . S
C296 N303 1.356 . S
C297 C296 1.363 1_556 S
C297 C300 1.363 . S
N298 C300 1.356 . S
N298 H310 0.984 . S
N298 H311 0.985 . S
N299 C301 1.356 . S
N299 H304 0.984 . S
N299 H305 0.985 . S
C300 C294 1.379 . S
C300 C297 1.363 . S
C300 N298 1.356 . S
C301 C295 1.363 1_554 S
C301 C296 1.379 . S
C301 N299 1.356 . S
N302 C294 1.356 . S
N302 H308 0.984 . S
N302 H309 0.984 . S
N303 C296 1.356 . S
N303 H306 0.984 . S
N303 H307 0.985 . S
H304 N299 0.984 . S
H305 N299 0.985 . S
H306 N303 0.984 . S
H307 N303 0.985 . S
H308 N302 0.984 . S
H309 N302 0.984 . S
H310 N298 0.984 . S
H311 N298 0.985 . S
C312 C313 1.363 . S
C312 C318 1.379 . S
C312 N320 1.356 . S
C313 C312 1.363 . S
C313 C319 1.363 1_556 S
C314 C315 1.363 1_554 S
C314 C319 1.379 . S
C314 N321 1.356 . S
C315 C314 1.363 1_556 S
C315 C318 1.363 . S
N316 C318 1.356 . S
N316 H328 0.984 . S
N316 H329 0.985 . S
N317 C319 1.356 . S
N317 H322 0.984 1_655 S
N317 H323 0.985 . S
C318 C312 1.379 . S
C318 C315 1.363 . S
C318 N316 1.356 . S
C319 C313 1.363 1_554 S
C319 C314 1.379 . S
C319 N317 1.356 . S
N320 C312 1.356 . S
N320 H326 0.984 . S
N320 H327 0.984 . S
N321 C314 1.356 . S
N321 H324 0.984 . S
N321 H325 0.985 . S
H322 N317 0.984 1_455 S
H323 N317 0.985 . S
H324 N321 0.984 . S
H325 N321 0.985 . S
H326 N320 0.984 . S
H327 N320 0.984 . S
H328 N316 0.984 . S
H329 N316 0.985 . S
C330 C331 1.363 1_554 S
C330 C336 1.379 . S
C330 N338 1.356 . S
C331 C330 1.363 1_556 S
C331 C337 1.363 . S
C332 C333 1.363 . S
C332 C337 1.379 . S
C332 N339 1.356 . S
C333 C332 1.363 . S
C333 C336 1.363 1_556 S
N334 C336 1.356 . S
N334 H346 0.984 . S
N334 H347 0.985 . S
N335 C337 1.356 . S
N335 H340 0.984 . S
N335 H341 0.985 . S
C336 C330 1.379 . S
C336 C333 1.363 1_554 S
C336 N334 1.356 . S
C337 C331 1.363 . S
C337 C332 1.379 . S
C337 N335 1.356 . S
N338 C330 1.356 . S
N338 H344 0.984 . S
N338 H345 0.984 . S
N339 C332 1.356 . S
N339 H342 0.984 1_565 S
N339 H343 0.985 . S
H340 N335 0.984 . S
H341 N335 0.985 . S
H342 N339 0.984 1_545 S
H343 N339 0.985 . S
H344 N338 0.984 . S
H345 N338 0.984 . S
H346 N334 0.984 . S
H347 N334 0.985 . S
C348 C349 1.363 1_556 S
C348 C354 1.379 . S
C348 N356 1.356 . S
C349 C348 1.363 1_554 S
C349 C355 1.363 . S
C350 C351 1.363 . S
C350 C355 1.379 . S
C350 N357 1.356 . S
C351 C350 1.363 . S
C351 C354 1.363 1_554 S
N352 C354 1.356 . S
N352 H364 0.984 . S
N352 H365 0.985 . S
N353 C355 1.356 . S
N353 H358 0.984 . S
N353 H359 0.985 . S
C354 C348 1.379 . S
C354 C351 1.363 1_556 S
C354 N352 1.356 . S
C355 C349 1.363 . S
C355 C350 1.379 . S
C355 N353 1.356 . S
N356 C348 1.356 . S
N356 H362 0.984 . S
N356 H363 0.984 . S
N357 C350 1.356 . S
N357 H360 0.984 . S
N357 H361 0.985 . S
H358 N353 0.984 . S
H359 N353 0.985 . S
H360 N357 0.984 . S
H361 N357 0.985 . S
H362 N356 0.984 . S
H363 N356 0.984 . S
H364 N352 0.984 . S
H365 N352 0.985 . S
C366 C367 1.363 1_556 S
C366 C372 1.379 . S
C366 N374 1.356 . S
C367 C366 1.363 1_554 S
C367 C373 1.363 . S
C368 C369 1.363 . S
C368 C373 1.379 . S
C368 N375 1.356 . S
C369 C368 1.363 . S
C369 C372 1.363 1_554 S
N370 C372 1.356 . S
N370 H382 0.984 . S
N370 H383 0.985 . S
N371 C373 1.356 . S
N371 H376 0.984 . S
N371 H377 0.985 . S
C372 C366 1.379 . S
C372 C369 1.363 1_556 S
C372 N370 1.356 . S
C373 C367 1.363 . S
C373 C368 1.379 . S
C373 N371 1.356 . S
N374 C366 1.356 . S
N374 H380 0.984 . S
N374 H381 0.984 . S
N375 C368 1.356 . S
N375 H378 0.984 . S
N375 H379 0.985 . S
H376 N371 0.984 . S
H377 N371 0.985 . S
H378 N375 0.984 . S
H379 N375 0.985 . S
H380 N374 0.984 . S
H381 N374 0.984 . S
H382 N370 0.984 . S
H383 N370 0.985 . S
C384 C385 1.363 1_556 S
C384 C390 1.379 . S
C384 N392 1.356 . S
C385 C384 1.363 1_554 S
C385 C391 1.363 . S
C386 C387 1.363 . S
C386 C391 1.379 . S
C386 N393 1.356 . S
C387 C386 1.363 . S
C387 C390 1.363 1_554 S
N388 C390 1.356 . S
N388 H400 0.984 . S
N388 H401 0.985 . S
N389 C391 1.356 . S
N389 H394 0.984 . S
N389 H395 0.985 . S
C390 C384 1.379 . S
C390 C387 1.363 1_556 S
C390 N388 1.356 . S
C391 C385 1.363 . S
C391 C386 1.379 . S
C391 N389 1.356 . S
N392 C384 1.356 . S
N392 H398 0.984 . S
N392 H399 0.984 . S
N393 C386 1.356 . S
N393 H396 0.984 . S
N393 H397 0.985 . S
H394 N389 0.984 . S
H395 N389 0.985 . S
H396 N393 0.984 . S
H397 N393 0.985 . S
H398 N392 0.984 . S
H399 N392 0.984 . S
H400 N388 0.984 . S
H401 N388 0.985 . S
C402 C403 1.363 . S
C402 C408 1.379 . S
C402 N410 1.356 . S
C403 C402 1.363 . S
C403 C409 1.363 1_554 S
C404 C405 1.363 1_556 S
C404 C409 1.379 . S
C404 N411 1.356 . S
C405 C404 1.363 1_554 S
C405 C408 1.363 . S
N406 C408 1.356 . S
N406 H418 0.984 . S
N406 H419 0.985 . S
N407 C409 1.356 . S
N407 H412 0.984 . S
N407 H413 0.985 . S
C408 C402 1.379 . S
C408 C405 1.363 . S
C408 N406 1.356 . S
C409 C403 1.363 1_556 S
C409 C404 1.379 . S
C409 N407 1.356 . S
N410 C402 1.356 . S
N410 H416 0.984 . S
N410 H417 0.984 . S
N411 C404 1.356 . S
N411 H414 0.984 . S
N411 H415 0.985 . S
H412 N407 0.984 . S
H413 N407 0.985 . S
H414 N411 0.984 . S
H415 N411 0.985 . S
H416 N410 0.984 . S
H417 N410 0.984 . S
H418 N406 0.984 . S
H419 N406 0.985 . S
C420 C421 1.363 . S
C420 C426 1.379 . S
C420 N428 1.356 . S
C421 C420 1.363 . S
C421 C427 1.363 . S
C422 C423 1.363 . S
C422 C427 1.379 . S
C422 N429 1.356 1_554 S
C423 C422 1.363 . S
C423 C426 1.363 . S
N424 C426 1.356 . S
N424 H436 0.984 . S
N424 H437 0.985 1_554 S
N425 C427 1.356 . S
N425 H430 0.984 . S
N425 H431 0.985 . S
C426 C420 1.379 . S
C426 C423 1.363 . S
C426 N424 1.356 . S
C427 C421 1.363 . S
C427 C422 1.379 . S
C427 N425 1.356 . S
N428 C420 1.356 . S
N428 H434 0.984 . S
N428 H435 0.984 . S
N429 C422 1.356 1_556 S
N429 H432 0.985 . S
N429 H433 0.984 1_556 S
H430 N425 0.984 . S
H431 N425 0.985 . S
H432 N429 0.985 . S
H433 N429 0.984 1_554 S
H434 N428 0.984 . S
H435 N428 0.984 . S
H436 N424 0.984 . S
H437 N424 0.985 1_556 S
C438 C439 1.363 . S
C438 C444 1.379 . S
C438 N446 1.356 . S
C439 C438 1.363 . S
C439 C445 1.363 1_554 S
C440 C441 1.363 1_556 S
C440 C445 1.379 . S
C440 N447 1.356 . S
C441 C440 1.363 1_554 S
C441 C444 1.363 . S
N442 C444 1.356 . S
N442 H454 0.984 . S
N442 H455 0.985 . S
N443 C445 1.356 . S
N443 H448 0.984 . S
N443 H449 0.985 . S
C444 C438 1.379 . S
C444 C441 1.363 . S
C444 N442 1.356 . S
C445 C439 1.363 1_556 S
C445 C440 1.379 . S
C445 N443 1.356 . S
N446 C438 1.356 . S
N446 H452 0.984 . S
N446 H453 0.984 . S
N447 C440 1.356 . S
N447 H450 0.984 . S
N447 H451 0.985 . S
H448 N443 0.984 . S
H449 N443 0.985 . S
H450 N447 0.984 . S
H451 N447 0.985 . S
H452 N446 0.984 . S
H453 N446 0.984 . S
H454 N442 0.984 . S
H455 N442 0.985 . S
C456 C457 1.363 . S
C456 C462 1.379 . S
C456 N464 1.356 . S
C457 C456 1.363 . S
C457 C463 1.363 . S
C458 C459 1.363 . S
C458 C463 1.379 . S
C458 N465 1.356 . S
C459 C458 1.363 . S
C459 C462 1.363 . S
N460 C462 1.356 . S
N460 H472 0.984 . S
N460 H473 0.985 . S
N461 C463 1.356 . S
N461 H466 0.984 . S
N461 H467 0.985 . S
C462 C456 1.379 . S
C462 C459 1.363 . S
C462 N460 1.356 . S
C463 C457 1.363 . S
C463 C458 1.379 . S
C463 N461 1.356 . S
N464 C456 1.356 . S
N464 H470 0.984 . S
N464 H471 0.984 . S
N465 C458 1.356 . S
N465 H468 0.984 . S
N465 H469 0.985 . S
H466 N461 0.984 . S
H467 N461 0.985 . S
H468 N465 0.984 . S
H469 N465 0.985 . S
H470 N464 0.984 . S
H471 N464 0.984 . S
H472 N460 0.984 . S
H473 N460 0.985 . S
C474 C475 1.363 . S
C474 C480 1.379 . S
C474 N482 1.356 . S
C475 C474 1.363 . S
C475 C481 1.363 . S
C476 C477 1.363 . S
C476 C481 1.379 . S
C476 N483 1.356 . S
C477 C476 1.363 . S
C477 C480 1.363 . S
N478 C480 1.356 . S
N478 H490 0.984 . S
N478 H491 0.985 . S
N479 C481 1.356 . S
N479 H484 0.984 . S
N479 H485 0.985 . S
C480 C474 1.379 . S
C480 C477 1.363 . S
C480 N478 1.356 . S
C481 C475 1.363 . S
C481 C476 1.379 . S
C481 N479 1.356 . S
N482 C474 1.356 . S
N482 H488 0.984 . S
N482 H489 0.984 . S
N483 C476 1.356 . S
N483 H486 0.984 . S
N483 H487 0.985 . S
H484 N479 0.984 . S
H485 N479 0.985 . S
H486 N483 0.984 . S
H487 N483 0.985 . S
H488 N482 0.984 . S
H489 N482 0.984 . S
H490 N478 0.984 . S
H491 N478 0.985 . S
C492 C493 1.363 . S
C492 C498 1.379 . S
C492 N500 1.356 . S
C493 C492 1.363 . S
C493 C499 1.363 . S
C494 C495 1.363 . S
C494 C499 1.379 . S
C494 N501 1.356 . S
C495 C494 1.363 . S
C495 C498 1.363 . S
N496 C498 1.356 . S
N496 H508 0.984 . S
N496 H509 0.985 . S
N497 C499 1.356 . S
N497 H502 0.984 . S
N497 H503 0.985 . S
C498 C492 1.379 . S
C498 C495 1.363 . S
C498 N496 1.356 . S
C499 C493 1.363 . S
C499 C494 1.379 . S
C499 N497 1.356 . S
N500 C492 1.356 . S
N500 H506 0.984 . S
N500 H507 0.984 . S
N501 C494 1.356 . S
N501 H504 0.984 . S
N501 H505 0.985 . S
H502 N497 0.984 . S
H503 N497 0.985 . S
H504 N501 0.984 . S
H505 N501 0.985 . S
H506 N500 0.984 . S
H507 N500 0.984 . S
H508 N496 0.984 . S
H509 N496 0.985 . S
C510 C511 1.363 . S
C510 C516 1.379 . S
C510 N518 1.356 . S
C511 C510 1.363 . S
C511 C517 1.363 . S
C512 C513 1.363 . S
C512 C517 1.379 . S
C512 N519 1.356 . S
C513 C512 1.363 . S
C513 C516 1.363 . S
N514 C516 1.356 . S
N514 H526 0.984 . S
N514 H527 0.985 . S
N515 C517 1.356 . S
N515 H520 0.984 . S
N515 H521 0.985 . S
C516 C510 1.379 . S
C516 C513 1.363 . S
C516 N514 1.356 . S
C517 C511 1.363 . S
C517 C512 1.379 . S
C517 N515 1.356 . S
N518 C510 1.356 . S
N518 H524 0.984 . S
N518 H525 0.984 . S
N519 C512 1.356 . S
N519 H522 0.984 . S
N519 H523 0.985 . S
H520 N515 0.984 . S
H521 N515 0.985 . S
H522 N519 0.984 . S
H523 N519 0.985 . S
H524 N518 0.984 . S
H525 N518 0.984 . S
H526 N514 0.984 . S
H527 N514 0.985 . S
C528 C529 1.363 . S
C528 C534 1.379 . S
C528 N536 1.356 . S
C529 C528 1.363 . S
C529 C535 1.363 . S
C530 C531 1.363 . S
C530 C535 1.379 . S
C530 N537 1.356 . S
C531 C530 1.363 . S
C531 C534 1.363 . S
N532 C534 1.356 . S
N532 H544 0.984 . S
N532 H545 0.985 . S
N533 C535 1.356 . S
N533 H538 0.984 . S
N533 H539 0.985 . S
C534 C528 1.379 . S
C534 C531 1.363 . S
C534 N532 1.356 . S
C535 C529 1.363 . S
C535 C530 1.379 . S
C535 N533 1.356 . S
N536 C528 1.356 . S
N536 H542 0.984 . S
N536 H543 0.984 . S
N537 C530 1.356 . S
N537 H540 0.984 . S
N537 H541 0.985 . S
H538 N533 0.984 . S
H539 N533 0.985 . S
H540 N537 0.984 . S
H541 N537 0.985 . S
H542 N536 0.984 . S
H543 N536 0.984 . S
H544 N532 0.984 . S
H545 N532 0.985 . S
C546 C547 1.363 . S
C546 C552 1.379 . S
C546 N554 1.356 . S
C547 C546 1.363 . S
C547 C553 1.363 . S
C548 C549 1.363 . S
C548 C553 1.379 . S
C548 N555 1.356 . S
C549 C548 1.363 . S
C549 C552 1.363 . S
N550 C552 1.356 . S
N550 H562 0.984 . S
N550 H563 0.985 . S
N551 C553 1.356 . S
N551 H556 0.984 . S
N551 H557 0.985 . S
C552 C546 1.379 . S
C552 C549 1.363 . S
C552 N550 1.356 . S
C553 C547 1.363 . S
C553 C548 1.379 . S
C553 N551 1.356 . S
N554 C546 1.356 . S
N554 H560 0.984 . S
N554 H561 0.984 . S
N555 C548 1.356 . S
N555 H558 0.984 . S
N555 H559 0.985 . S
H556 N551 0.984 . S
H557 N551 0.985 . S
H558 N555 0.984 . S
H559 N555 0.985 . S
H560 N554 0.984 . S
H561 N554 0.984 . S
H562 N550 0.984 . S
H563 N550 0.985 . S
C241 C209 2.263 1_556 S
C243 C5 1.939 . S
C259 C9 2.263 1_556 S
C261 C45 1.939 1_455 S
C277 C49 2.263 1_556 S
C279 C85 1.939 1_545 S
C295 C125 1.939 . S
C297 C89 2.263 1_556 S
C313 C165 1.939 1_655 S
C315 C129 2.263 1_556 S
C331 C169 2.263 1_556 S
C333 C205 1.939 1_565 S
C349 C179 1.851 1_554 S
C351 C15 1.835 . S
C367 C219 1.851 1_554 S
C369 C55 1.835 . S
C385 C95 1.835 . S
C387 C19 1.851 1_554 S
C403 C135 1.835 . S
C405 C59 1.851 1_554 S
C421 C175 1.835 . S
C423 C99 1.851 1_554 S
C439 C139 1.851 1_554 S
C441 C215 1.835 . S
C457 C18 1.433 . S
C459 C8 1.433 . S
C475 C58 1.433 . S
C477 C48 1.433 . S
C493 C98 1.433 . S
C495 C88 1.433 . S
C511 C138 1.433 . S
C513 C128 1.433 . S
C529 C168 1.433 . S
C531 C178 1.433 . S
C547 C218 1.433 . S
C549 C208 1.433 . S
