# Generated by pormake.
# Topology vbe, (5)-cn, num edge types: 1
# Building blocks:
#     Node 0, Type 0, BuildingBlock: XOMCOT_clean_sbu_0, # of connection points: 5
#     Node 1, Type 0, BuildingBlock: XOMCOT_clean_sbu_0, # of connection points: 5
#     Node 2, Type 0, BuildingBlock: XOMCOT_clean_sbu_0, # of connection points: 5
#     Node 3, Type 0, BuildingBlock: XOMCOT_clean_sbu_0, # of connection points: 5
#     Node 4, Type 0, BuildingBlock: XOMCOT_clean_sbu_0, # of connection points: 5
#     Node 5, Type 0, BuildingBlock: XOMCOT_clean_sbu_0, # of connection points: 5
#     Node 6, Type 0, BuildingBlock: XOMCOT_clean_sbu_0, # of connection points: 5
#     Node 7, Type 0, BuildingBlock: XOMCOT_clean_sbu_0, # of connection points: 5
#     Node 8, Type 0, BuildingBlock: XOMCOT_clean_sbu_0, # of connection points: 5
#     Node 9, Type 0, BuildingBlock: XOMCOT_clean_sbu_0, # of connection points: 5
#     Node 10, Type 0, BuildingBlock: XOMCOT_clean_sbu_0, # of connection points: 5
#     Node 11, Type 0, BuildingBlock: XOMCOT_clean_sbu_0, # of connection points: 5
#     Node 12, Type 0, BuildingBlock: XOMCOT_clean_sbu_0, # of connection points: 5
#     Node 13, Type 0, BuildingBlock: XOMCOT_clean_sbu_0, # of connection points: 5
#     Node 14, Type 0, BuildingBlock: XOMCOT_clean_sbu_0, # of connection points: 5
#     Node 15, Type 0, BuildingBlock: XOMCOT_clean_sbu_0, # of connection points: 5
#     Edge 16, Type (0, 0), BuildingBlock: CIFDUS_clean_linker_0, # of connection points: 2
#     Edge 17, Type (0, 0), BuildingBlock: CIFDUS_clean_linker_0, # of connection points: 2
#     Edge 18, Type (0, 0), BuildingBlock: CIFDUS_clean_linker_0, # of connection points: 2
#     Edge 19, Type (0, 0), BuildingBlock: CIFDUS_clean_linker_0, # of connection points: 2
#     Edge 20, Type (0, 0), BuildingBlock: CIFDUS_clean_linker_0, # of connection points: 2
#     Edge 21, Type (0, 0), BuildingBlock: CIFDUS_clean_linker_0, # of connection points: 2
#     Edge 22, Type (0, 0), BuildingBlock: CIFDUS_clean_linker_0, # of connection points: 2
#     Edge 23, Type (0, 0), BuildingBlock: CIFDUS_clean_linker_0, # of connection points: 2
#     Edge 24, Type (0, 0), BuildingBlock: CIFDUS_clean_linker_0, # of connection points: 2
#     Edge 25, Type (0, 0), BuildingBlock: CIFDUS_clean_linker_0, # of connection points: 2
#     Edge 26, Type (0, 0), BuildingBlock: CIFDUS_clean_linker_0, # of connection points: 2
#     Edge 27, Type (0, 0), BuildingBlock: CIFDUS_clean_linker_0, # of connection points: 2
#     Edge 28, Type (0, 0), BuildingBlock: CIFDUS_clean_linker_0, # of connection points: 2
#     Edge 29, Type (0, 0), BuildingBlock: CIFDUS_clean_linker_0, # of connection points: 2
#     Edge 30, Type (0, 0), BuildingBlock: CIFDUS_clean_linker_0, # of connection points: 2
#     Edge 31, Type (0, 0), BuildingBlock: CIFDUS_clean_linker_0, # of connection points: 2
#     Edge 32, Type (0, 0), BuildingBlock: CIFDUS_clean_linker_0, # of connection points: 2
#     Edge 33, Type (0, 0), BuildingBlock: CIFDUS_clean_linker_0, # of connection points: 2
#     Edge 34, Type (0, 0), BuildingBlock: CIFDUS_clean_linker_0, # of connection points: 2
#     Edge 35, Type (0, 0), BuildingBlock: CIFDUS_clean_linker_0, # of connection points: 2
#     Edge 36, Type (0, 0), BuildingBlock: CIFDUS_clean_linker_0, # of connection points: 2
#     Edge 37, Type (0, 0), BuildingBlock: CIFDUS_clean_linker_0, # of connection points: 2
#     Edge 38, Type (0, 0), BuildingBlock: CIFDUS_clean_linker_0, # of connection points: 2
#     Edge 39, Type (0, 0), BuildingBlock: CIFDUS_clean_linker_0, # of connection points: 2
#     Edge 40, Type (0, 0), BuildingBlock: CIFDUS_clean_linker_0, # of connection points: 2
#     Edge 41, Type (0, 0), BuildingBlock: CIFDUS_clean_linker_0, # of connection points: 2
#     Edge 42, Type (0, 0), BuildingBlock: CIFDUS_clean_linker_0, # of connection points: 2
#     Edge 43, Type (0, 0), BuildingBlock: CIFDUS_clean_linker_0, # of connection points: 2
#     Edge 44, Type (0, 0), BuildingBlock: CIFDUS_clean_linker_0, # of connection points: 2
#     Edge 45, Type (0, 0), BuildingBlock: CIFDUS_clean_linker_0, # of connection points: 2
#     Edge 46, Type (0, 0), BuildingBlock: CIFDUS_clean_linker_0, # of connection points: 2
#     Edge 47, Type (0, 0), BuildingBlock: CIFDUS_clean_linker_0, # of connection points: 2
#     Edge 48, Type (0, 0), BuildingBlock: CIFDUS_clean_linker_0, # of connection points: 2
#     Edge 49, Type (0, 0), BuildingBlock: CIFDUS_clean_linker_0, # of connection points: 2
#     Edge 50, Type (0, 0), BuildingBlock: CIFDUS_clean_linker_0, # of connection points: 2
#     Edge 51, Type (0, 0), BuildingBlock: CIFDUS_clean_linker_0, # of connection points: 2
#     Edge 52, Type (0, 0), BuildingBlock: CIFDUS_clean_linker_0, # of connection points: 2
#     Edge 53, Type (0, 0), BuildingBlock: CIFDUS_clean_linker_0, # of connection points: 2
#     Edge 54, Type (0, 0), BuildingBlock: CIFDUS_clean_linker_0, # of connection points: 2
#     Edge 55, Type (0, 0), BuildingBlock: CIFDUS_clean_linker_0, # of connection points: 2
# Relax obj value: 0.345
# Max RMSD: 0.245
# Mean RMSD: 0.245
data_MOF--net-vbe--node1-XOMCOT_clean_sbu_0--edge1-CIFDUS_clean_linker_0
_symmetry_space_group_name_H-M    P1
_symmetry_Int_Tables_number       1
_symmetry_cell_setting            triclinic
loop_
_symmetry_equiv_pos_as_xyz
'x, y, z'
_cell_length_a     42.988128
_cell_length_b     32.186849
_cell_length_c     48.980389
_cell_angle_alpha  90.024301
_cell_angle_beta   89.921077
_cell_angle_gamma 90.220798
loop_
_atom_site_label
_atom_site_type_symbol
_atom_site_fract_x
_atom_site_fract_y
_atom_site_fract_z
_atom_type_partial_charge
Co0 Co 0.06143 0.09913 0.36761 0.0
C1 C 0.03552 0.04853 0.41244 0.0
C2 C 0.0069 0.04473 0.37689 0.0
C3 C 0.99183 0.02491 0.39802 0.0
N4 N 0.03476 0.05875 0.38572 0.0
N5 N 0.00982 0.02759 0.42047 0.0
H6 H 0.05288 0.05995 0.42648 0.0
H7 H 0.99677 0.05133 0.35722 0.0
C8 C 0.03999 0.04814 0.31851 0.0
O9 O 0.04689 0.01268 0.33027 0.0
N10 N 0.08743 0.14019 0.3501 0.0
C11 C 0.11582 0.15275 0.35836 0.0
C12 C 0.12733 0.18073 0.33963 0.0
C13 C 0.08179 0.16098 0.32682 0.0
N14 N 0.10594 0.18572 0.31975 0.0
C15 C 0.10964 0.04679 0.38878 0.0
C16 C 0.13983 0.03627 0.3394 0.0
C17 C 0.15477 0.02358 0.3634 0.0
C18 C 0.13879 0.0278 0.38823 0.0
C19 C 0.11059 0.05473 0.34083 0.0
N20 N 0.09597 0.06044 0.36534 0.0
H21 H 0.0993 0.05319 0.40831 0.0
H22 H 0.10106 0.06774 0.32235 0.0
H23 H 0.12754 0.14167 0.37646 0.0
H24 H 0.06083 0.15724 0.31498 0.0
O25 O 0.07082 0.12576 0.40224 0.0
O26 O 0.03102 0.14084 0.37512 0.0
O27 O 0.04478 0.08255 0.33081 0.0
C28 C 0.04656 0.14868 0.39726 0.0
H29 H 0.96867 0.01172 0.39717 0.0
H30 H 0.14977 0.196 0.34055 0.0
H31 H 0.15147 0.03472 0.31981 0.0
H32 H 0.14928 0.01824 0.4073 0.0
Co33 Co 0.42994 0.90659 0.35977 0.0
C34 C 0.45337 0.94201 0.41056 0.0
C35 C 0.48101 0.9625 0.37659 0.0
C36 C 0.49444 0.97693 0.40035 0.0
N37 N 0.45524 0.94073 0.38316 0.0
N38 N 0.47711 0.96359 0.42162 0.0
H39 H 0.43557 0.92621 0.42226 0.0
H40 H 0.4903 0.96595 0.35619 0.0
C41 C 0.43286 0.94296 0.30311 0.0
O42 O 0.40427 0.93049 0.29821 0.0
N43 N 0.40437 0.87104 0.337 0.0
C44 C 0.37418 0.86139 0.34101 0.0
C45 C 0.36504 0.83336 0.32151 0.0
C46 C 0.41346 0.84758 0.31556 0.0
N47 N 0.38963 0.82491 0.30534 0.0
C48 C 0.37675 0.93218 0.39049 0.0
C49 C 0.35599 0.9925 0.35494 0.0
C50 C 0.33663 0.97943 0.37624 0.0
C51 C 0.34783 0.95044 0.39494 0.0
C52 C 0.38519 0.9742 0.35166 0.0
N53 N 0.39418 0.94195 0.36798 0.0
H54 H 0.38401 0.90813 0.40434 0.0
H55 H 0.39986 0.98584 0.33566 0.0
H56 H 0.35964 0.87299 0.35723 0.0
H57 H 0.4368 0.84807 0.30725 0.0
O58 O 0.42523 0.86559 0.38858 0.0
O59 O 0.4632 0.86679 0.3579 0.0
O60 O 0.44427 0.94046 0.32714 0.0
C61 C 0.45043 0.84897 0.3789 0.0
H62 H 0.51614 0.99393 0.40191 0.0
H63 H 0.34208 0.81972 0.31974 0.0
H64 H 0.34834 0.01602 0.34066 0.0
H65 H 0.33355 0.9401 0.4119 0.0
Co66 Co 0.56081 0.88799 0.1217 0.0
C67 C 0.53818 0.94149 0.07744 0.0
C68 C 0.50795 0.9443 0.11207 0.0
C69 C 0.49432 0.9657 0.09096 0.0
N70 N 0.53586 0.92984 0.10378 0.0
N71 N 0.51332 0.96346 0.06915 0.0
H72 H 0.55635 0.93142 0.06386 0.0
H73 H 0.49677 0.93688 0.13118 0.0
C74 C 0.54004 0.9406 0.17041 0.0
O75 O 0.55017 0.97566 0.15988 0.0
N76 N 0.58518 0.84567 0.13904 0.0
C77 C 0.61032 0.82658 0.12841 0.0
C78 C 0.61979 0.79615 0.14626 0.0
C79 C 0.57978 0.82718 0.16317 0.0
N80 N 0.60061 0.79698 0.16798 0.0
C81 C 0.61177 0.93407 0.09896 0.0
C82 C 0.64042 0.9526 0.14796 0.0
C83 C 0.65534 0.96361 0.12353 0.0
C84 C 0.64045 0.95449 0.09883 0.0
C85 C 0.61149 0.93258 0.14717 0.0
N86 N 0.59721 0.9241 0.12286 0.0
H87 H 0.60245 0.92391 0.07975 0.0
H88 H 0.60148 0.92188 0.16614 0.0
H89 H 0.62082 0.834 0.10893 0.0
H90 H 0.56077 0.83494 0.17673 0.0
O91 O 0.56774 0.8596 0.08706 0.0
O92 O 0.52822 0.84855 0.11535 0.0
O93 O 0.54475 0.90606 0.15838 0.0
C94 C 0.5426 0.83865 0.093 0.0
H95 H 0.47117 0.9788 0.09097 0.0
H96 H 0.63937 0.77544 0.14374 0.0
H97 H 0.65135 0.95848 0.16751 0.0
H98 H 0.65167 0.96095 0.07947 0.0
Co99 Co 0.93429 0.09103 0.13048 0.0
C100 C 0.95099 0.0388 0.08335 0.0
C101 C 0.98356 0.03231 0.11605 0.0
C102 C 0.99539 0.01261 0.09341 0.0
N103 N 0.95542 0.04824 0.1099 0.0
N104 N 0.97486 0.01696 0.07288 0.0
H105 H 0.93278 0.05177 0.07091 0.0
H106 H 0.99607 0.0379 0.13483 0.0
C107 C 0.9521 0.0297 0.17508 0.0
O108 O 0.94246 -0.00238 0.16076 0.0
N109 N 0.91399 0.13444 0.1506 0.0
C110 C 0.88921 0.1567 0.14236 0.0
C111 C 0.88406 0.18794 0.16101 0.0
C112 C 0.9235 0.15199 0.17407 0.0
N113 N 0.90558 0.1846 0.18084 0.0
C114 C 0.87887 0.05409 0.10799 0.0
C115 C 0.85252 0.03214 0.15746 0.0
C116 C 0.83548 0.02539 0.1335 0.0
C117 C 0.84909 0.0365 0.1085 0.0
C118 C 0.88214 0.04993 0.15603 0.0
N119 N 0.89542 0.05972 0.13147 0.0
H120 H 0.88778 0.06515 0.08879 0.0
H121 H 0.89356 0.05784 0.17493 0.0
H122 H 0.87634 0.15122 0.12373 0.0
H123 H 0.94377 0.14228 0.18541 0.0
O124 O 0.92827 0.12359 0.09746 0.0
O125 O 0.96945 0.12682 0.12466 0.0
O126 O 0.94931 0.06656 0.16581 0.0
C127 C 0.955 0.14066 0.10329 0.0
H128 H 0.01819 -0.00129 0.09166 0.0
H129 H 0.86607 0.21134 0.16011 0.0
H130 H 0.8425 0.02553 0.1773 0.0
H131 H 0.8366 0.03244 0.08949 0.0
Co132 Co 0.94844 0.90825 0.63451 0.0
C133 C 0.96933 0.95819 0.58734 0.0
C134 C 0.99686 0.97064 0.62278 0.0
C135 C 0.01043 0.9902 0.60082 0.0
N136 N 0.97065 0.95116 0.61451 0.0
N137 N 0.99318 0.98206 0.57851 0.0
H138 H 0.95334 0.94262 0.57374 0.0
H139 H 0.00726 0.96788 0.64274 0.0
C140 C 0.96252 0.96917 0.68029 0.0
O141 O 0.94961 -7e-05 0.66687 0.0
N142 N 0.92706 0.86471 0.65387 0.0
C143 C 0.90246 0.84287 0.64451 0.0
C144 C 0.89595 0.8115 0.6627 0.0
C145 C 0.93509 0.84684 0.67765 0.0
N146 N 0.9164 0.81433 0.68341 0.0
C147 C 0.8953 0.95009 0.611 0.0
C148 C 0.86493 0.963 0.66006 0.0
C149 C 0.84982 0.97416 0.63583 0.0
C150 C 0.86549 0.9676 0.61103 0.0
C151 C 0.89455 0.94551 0.65911 0.0
N152 N 0.90977 0.93988 0.63486 0.0
H153 H 0.90603 0.94308 0.5917 0.0
H154 H 0.90469 0.93476 0.67798 0.0
H155 H 0.8906 0.84877 0.62545 0.0
H156 H 0.95476 0.85636 0.68996 0.0
O157 O 0.94299 0.87586 0.60127 0.0
O158 O 0.9834 0.8721 0.62926 0.0
O159 O 0.9628 0.93249 0.67032 0.0
C160 C 0.96932 0.85831 0.60763 0.0
H161 H 0.0323 0.00695 0.60103 0.0
H162 H 0.87776 0.78829 0.66088 0.0
H163 H 0.85344 0.96607 0.67965 0.0
H164 H 0.85464 0.97531 0.59175 0.0
Co165 Co 0.56669 0.08688 0.63375 0.0
C166 C 0.54931 0.04261 0.5837 0.0
C167 C 0.5213 0.02254 0.61734 0.0
C168 C 0.50927 0.00569 0.59371 0.0
N169 N 0.54684 0.04518 0.61109 0.0
N170 N 0.52681 0.01884 0.57258 0.0
H171 H 0.56548 0.06067 0.57176 0.0
H172 H 0.51027 0.02145 0.63715 0.0
C173 C 0.55509 0.01831 0.67576 0.0
O174 O 0.56822 0.9893 0.66086 0.0
N175 N 0.58595 0.12901 0.65576 0.0
C176 C 0.61196 0.15033 0.64939 0.0
C177 C 0.61809 0.17802 0.67005 0.0
C178 C 0.57626 0.14414 0.67991 0.0
N179 N 0.59564 0.17404 0.68917 0.0
C180 C 0.62188 0.05863 0.60601 0.0
C181 C 0.65342 0.03312 0.65213 0.0
C182 C 0.66843 0.03053 0.62676 0.0
C183 C 0.65217 0.04341 0.6035 0.0
C184 C 0.62296 0.04817 0.65369 0.0
N185 N 0.60718 0.0598 0.63072 0.0
H186 H 0.61107 0.07155 0.58819 0.0
H187 H 0.61266 0.05217 0.67362 0.0
H188 H 0.62541 0.14612 0.63092 0.0
H189 H 0.55566 0.13331 0.6905 0.0
O190 O 0.56858 0.1252 0.60288 0.0
O191 O 0.52927 0.11889 0.632 0.0
O192 O 0.55469 0.05605 0.66785 0.0
C193 C 0.54103 0.13722 0.61079 0.0
H194 H 0.48777 0.98827 0.59201 0.0
H195 H 0.63723 0.19994 0.67071 0.0
H196 H 0.66523 0.02411 0.67072 0.0
H197 H 0.66324 0.04348 0.58362 0.0
Co198 Co 0.44937 0.08619 0.86086 0.0
C199 C 0.46857 0.02677 0.90297 0.0
C200 C 0.50149 0.02972 0.8702 0.0
C201 C 0.51405 0.00623 0.89088 0.0
N202 N 0.47274 0.04208 0.87768 0.0
N203 N 0.49337 0.00495 0.91154 0.0
H204 H 0.44896 0.03392 0.91579 0.0
H205 H 0.51337 0.03962 0.85183 0.0
C206 C 0.46056 0.02393 0.81466 0.0
O207 O 0.46101 0.99169 0.83106 0.0
N208 N 0.42665 0.13077 0.84442 0.0
C209 C 0.40603 0.15621 0.85665 0.0
C210 C 0.39601 0.18491 0.83776 0.0
C211 C 0.4289 0.14393 0.8185 0.0
N212 N 0.4103 0.17661 0.81391 0.0
C213 C 0.3964 0.06098 0.89288 0.0
C214 C 0.36197 0.02863 0.85029 0.0
C215 C 0.34825 0.03043 0.87629 0.0
C216 C 0.36615 0.04657 0.8978 0.0
C217 C 0.3924 0.04289 0.84633 0.0
N218 N 0.4096 0.05825 0.86755 0.0
H219 H 0.4087 0.07594 0.90938 0.0
H220 H 0.40106 0.04369 0.82572 0.0
H221 H 0.39901 0.15425 0.87782 0.0
H222 H 0.44444 0.1308 0.80344 0.0
O223 O 0.45329 0.11947 0.89401 0.0
O224 O 0.48675 0.11908 0.85955 0.0
O225 O 0.45479 0.06035 0.82366 0.0
C226 C 0.47888 0.13384 0.8832 0.0
H227 H 0.53751 0.99417 0.89163 0.0
H228 H 0.37948 0.20969 0.84115 0.0
H229 H 0.34888 0.01815 0.83271 0.0
H230 H 0.35674 0.04893 0.91825 0.0
Co231 Co 0.06799 0.89898 0.86826 0.0
C232 C 0.0521 0.95876 0.91136 0.0
C233 C 0.01934 0.96023 0.87853 0.0
C234 C 0.00759 0.98319 0.89984 0.0
N235 N 0.04749 0.94532 0.88561 0.0
N236 N 0.0282 0.98192 0.92052 0.0
H237 H 0.07039 0.94768 0.92446 0.0
H238 H 0.00688 0.95185 0.86015 0.0
C239 C 0.0551 0.95813 0.8206 0.0
O240 O 0.05897 0.9918 0.83538 0.0
N241 N 0.08785 0.85218 0.85143 0.0
C242 C 0.10968 0.82742 0.86255 0.0
C243 C 0.1186 0.79853 0.84332 0.0
C244 C 0.08371 0.8383 0.82584 0.0
N245 N 0.10236 0.80598 0.82038 0.0
C246 C 0.1245 0.9282 0.89402 0.0
C247 C 0.15529 0.94706 0.84601 0.0
C248 C 0.17164 0.94971 0.87063 0.0
C249 C 0.15575 0.94087 0.89495 0.0
C250 C 0.12413 0.93485 0.846 0.0
N251 N 0.10879 0.92594 0.8698 0.0
H252 H 0.11372 0.91761 0.91263 0.0
H253 H 0.11332 0.92984 0.82647 0.0
H254 H 0.11886 0.83064 0.88299 0.0
H255 H 0.06742 0.85131 0.81144 0.0
O256 O 0.0677 0.86832 0.90265 0.0
O257 O 0.03018 0.86758 0.87163 0.0
O258 O 0.05866 0.92203 0.83089 0.0
C259 C 0.04075 0.85401 0.89473 0.0
H260 H 0.98471 -0.00297 0.9008 0.0
H261 H 0.13625 0.77489 0.84562 0.0
H262 H 0.16683 0.953 0.82672 0.0
H263 H 0.16784 0.94134 0.91433 0.0
Co264 Co 0.57341 0.59973 0.361 0.0
C265 C 0.5566 0.54604 0.40653 0.0
C266 C 0.52112 0.54567 0.37599 0.0
C267 C 0.50927 0.52779 0.39939 0.0
N268 N 0.55097 0.5569 0.38047 0.0
N269 N 0.53159 0.52885 0.41865 0.0
H270 H 0.57729 0.55454 0.41751 0.0
H271 H 0.50787 0.55396 0.35806 0.0
C272 C 0.55587 0.53786 0.31604 0.0
O273 O 0.55549 0.50574 0.33255 0.0
N274 N 0.5955 0.64325 0.34246 0.0
C275 C 0.61875 0.66664 0.35284 0.0
C276 C 0.62619 0.69716 0.33427 0.0
C277 C 0.5891 0.65948 0.31786 0.0
N278 N 0.60761 0.69223 0.3124 0.0
C279 C 0.62857 0.57369 0.38875 0.0
C280 C 0.65788 0.53966 0.34387 0.0
C281 C 0.67423 0.54229 0.36858 0.0
C282 C 0.65887 0.55894 0.39133 0.0
C283 C 0.62736 0.55413 0.3423 0.0
N284 N 0.6128 0.57054 0.36465 0.0
H285 H 0.61855 0.58975 0.40592 0.0
H286 H 0.61659 0.55445 0.3225 0.0
H287 H 0.62899 0.66245 0.3728 0.0
H288 H 0.57054 0.64875 0.30471 0.0
O289 O 0.57409 0.63377 0.39385 0.0
O290 O 0.53701 0.63385 0.36239 0.0
O291 O 0.56359 0.57391 0.32458 0.0
C292 C 0.54798 0.64902 0.38496 0.0
H293 H 0.48525 0.51903 0.40285 0.0
H294 H 0.64372 0.72114 0.3366 0.0
H295 H 0.66901 0.52853 0.32544 0.0
H296 H 0.67042 0.56179 0.41087 0.0
Co297 Co 0.94902 0.39934 0.36481 0.0
C298 C 0.96334 0.46446 0.40499 0.0
C299 C 0.99805 0.46122 0.37375 0.0
C300 C 0.0088 0.48688 0.39419 0.0
N301 N 0.96931 0.44751 0.38039 0.0
N302 N 0.98687 0.48864 0.41382 0.0
H303 H 0.94437 0.4551 0.418 0.0
H304 H 0.0115 0.45026 0.35654 0.0
C305 C 0.96523 0.45156 0.31511 0.0
O306 O 0.95877 0.48636 0.32789 0.0
N307 N 0.92946 0.35063 0.34974 0.0
C308 C 0.9061 0.32841 0.36103 0.0
C309 C 0.89968 0.29496 0.3444 0.0
C310 C 0.93694 0.33073 0.32652 0.0
N311 N 0.91902 0.29683 0.32279 0.0
C312 C 0.89251 0.43519 0.38504 0.0
C313 C 0.86488 0.44648 0.33471 0.0
C314 C 0.84782 0.4553 0.35834 0.0
C315 C 0.86207 0.44989 0.38375 0.0
C316 C 0.89541 0.4323 0.33691 0.0
N317 N 0.90923 0.42764 0.36186 0.0
H318 H 0.90167 0.42729 0.40477 0.0
H319 H 0.90701 0.42267 0.31846 0.0
H320 H 0.89453 0.33606 0.37999 0.0
H321 H 0.95528 0.34037 0.31276 0.0
O322 O 0.94455 0.37489 0.40079 0.0
O323 O 0.98521 0.36704 0.37336 0.0
O324 O 0.96212 0.41648 0.32699 0.0
C325 C 0.97139 0.35763 0.39617 0.0
H326 H 0.03186 0.50034 0.39554 0.0
H327 H 0.88175 0.27173 0.3475 0.0
H328 H 0.85444 0.44943 0.31468 0.0
H329 H 0.84923 0.45476 0.40252 0.0
Co330 Co 0.06488 0.3996 0.12697 0.0
C331 C 0.04253 0.44375 0.07776 0.0
C332 C 0.01831 0.46323 0.1137 0.0
C333 C 1.00393 0.48044 0.09144 0.0
N334 N 0.043 0.44075 0.1053 0.0
N335 N 0.019 0.46785 0.06882 0.0
H336 H 0.05704 0.42551 0.06433 0.0
H337 H 0.00919 0.46416 0.13421 0.0
C338 C 0.05244 0.46362 0.17174 0.0
O339 O 0.06594 0.49403 0.15826 0.0
N340 N 0.08537 0.35796 0.14855 0.0
C341 C 0.11213 0.33814 0.14284 0.0
C342 C 0.11813 0.31052 0.16364 0.0
C343 C 0.07521 0.34199 0.17232 0.0
N344 N 0.09485 0.31304 0.18211 0.0
C345 C 0.11716 0.43885 0.10078 0.0
C346 C 0.15033 0.45446 0.14804 0.0
C347 C 0.1646 0.46243 0.12279 0.0
C348 C 0.14736 0.45496 0.09896 0.0
C349 C 0.12012 0.43833 0.14893 0.0
N350 N 0.10377 0.43086 0.1255 0.0
H351 H 0.10527 0.43073 0.0822 0.0
H352 H 0.11046 0.42995 0.16855 0.0
H353 H 0.12622 0.34346 0.12485 0.0
H354 H 0.05403 0.35174 0.18236 0.0
O355 O 0.07026 0.36412 0.09526 0.0
O356 O 0.02955 0.36339 0.12324 0.0
O357 O 0.05112 0.42706 0.16175 0.0
C358 C 0.04361 0.3477 0.10214 0.0
H359 H 0.9829 0.49881 0.09185 0.0
H360 H 0.13787 0.28983 0.16488 0.0
H361 H 0.16262 0.45976 0.16701 0.0
H362 H 0.15761 0.45961 0.07898 0.0
Co363 Co 0.44551 0.57898 0.1306 0.0
C364 C 0.46678 0.53035 0.08307 0.0
C365 C 0.4939 0.51707 0.11855 0.0
C366 C 0.50805 0.49908 0.09635 0.0
N367 N 0.46762 0.53626 0.11039 0.0
N368 N 0.49112 0.50787 0.07399 0.0
H369 H 0.45084 0.54611 0.06958 0.0
H370 H 0.5042 0.51946 0.13856 0.0
C371 C 0.46117 0.52008 0.17696 0.0
O372 O 0.44775 0.48872 0.1644 0.0
N373 N 0.42437 0.62239 0.15021 0.0
C374 C 0.39803 0.64123 0.14222 0.0
C375 C 0.39108 0.67192 0.16069 0.0
C376 C 0.43328 0.64185 0.17329 0.0
N377 N 0.41317 0.67225 0.1803 0.0
C378 C 0.39286 0.53509 0.10839 0.0
C379 C 0.36243 0.52362 0.15761 0.0
C380 C 0.3471 0.51259 0.13342 0.0
C381 C 0.36284 0.51815 0.10859 0.0
C382 C 0.39228 0.54085 0.15648 0.0
N383 N 0.40736 0.54606 0.13211 0.0
H384 H 0.40368 0.54138 0.089 0.0
H385 H 0.40261 0.55197 0.17521 0.0
H386 H 0.38502 0.63346 0.12403 0.0
H387 H 0.45394 0.63376 0.18467 0.0
O388 O 0.43797 0.60976 0.09722 0.0
O389 O 0.47964 0.61628 0.12364 0.0
O390 O 0.46138 0.55628 0.16628 0.0
C391 C 0.46437 0.62828 0.10217 0.0
H392 H 0.53026 0.48338 0.09646 0.0
H393 H 0.37152 0.69286 0.15937 0.0
H394 H 0.35087 0.52092 0.17719 0.0
H395 H 0.35179 0.5103 0.08939 0.0
Co396 Co 0.44765 0.40803 0.63199 0.0
C397 C 0.46432 0.45563 0.58343 0.0
C398 C 0.49717 0.46601 0.61548 0.0
C399 C 0.5091 0.48234 0.59161 0.0
N400 N 0.46888 0.44952 0.61032 0.0
N401 N 0.48847 0.47512 0.57144 0.0
H402 H 0.44519 0.4426 0.5722 0.0
H403 H 0.50967 0.46268 0.63449 0.0
C404 C 0.46272 0.4751 0.67419 0.0
O405 O 0.45382 0.50575 0.65836 0.0
N406 N 0.42661 0.36613 0.65287 0.0
C407 C 0.40318 0.34188 0.6438 0.0
C408 C 0.39413 0.31583 0.66456 0.0
C409 C 0.43146 0.35497 0.67896 0.0
N410 N 0.41184 0.32434 0.68655 0.0
C411 C 0.39221 0.43461 0.60429 0.0
C412 C 0.3626 0.46671 0.64969 0.0
C413 C 0.34704 0.46683 0.62462 0.0
C414 C 0.36222 0.45071 0.60169 0.0
C415 C 0.39288 0.45117 0.65126 0.0
N416 N 0.40778 0.43637 0.62857 0.0
H417 H 0.40201 0.41855 0.58707 0.0
H418 H 0.40351 0.44911 0.67113 0.0
H419 H 0.39337 0.34313 0.6235 0.0
H420 H 0.44925 0.36827 0.69195 0.0
O421 O 0.44628 0.3708 0.60044 0.0
O422 O 0.48446 0.37469 0.63072 0.0
O423 O 0.45941 0.43738 0.66672 0.0
C424 C 0.47322 0.35753 0.60892 0.0
H425 H 0.53229 0.49489 0.58887 0.0
H426 H 0.37584 0.29265 0.66368 0.0
H427 H 0.35127 0.47793 0.66802 0.0
H428 H 0.35043 0.44872 0.5822 0.0
Co429 Co 0.06848 0.59094 0.63032 0.0
C430 C 0.05186 0.54436 0.58069 0.0
C431 C 0.0168 0.53852 0.61154 0.0
C432 C 0.00572 0.52091 0.58783 0.0
N433 N 0.04598 0.5527 0.60715 0.0
N434 N 0.02792 0.52471 0.56856 0.0
H435 H 0.07156 0.55627 0.56952 0.0
H436 H 1.0035 0.54348 0.63 0.0
C437 C 0.04632 0.52565 0.67104 0.0
O438 O 0.05616 0.49473 0.65583 0.0
N439 N 0.09057 0.62956 0.65308 0.0
C440 C 0.11614 0.65143 0.64599 0.0
C441 C 0.12511 0.67533 0.66789 0.0
C442 C 0.08441 0.63991 0.67911 0.0
N443 N 0.10524 0.66766 0.68859 0.0
C444 C 0.12327 0.55414 0.60675 0.0
C445 C 0.14752 0.52484 0.65521 0.0
C446 C 0.16546 0.52118 0.63138 0.0
C447 C 0.15265 0.53565 0.60683 0.0
C448 C 0.11808 0.54299 0.65414 0.0
N449 N 0.1059 0.55679 0.63003 0.0
H450 H 0.11557 0.56868 0.58822 0.0
H451 H 0.10614 0.54842 0.67317 0.0
H452 H 0.1275 0.64997 0.6263 0.0
H453 H 0.06492 0.62805 0.69078 0.0
O454 O 0.07673 0.62728 0.59929 0.0
O455 O 0.03523 0.63012 0.62614 0.0
O456 O 0.05094 0.56325 0.6638 0.0
C457 C 0.05069 0.64552 0.60573 0.0
H458 H 0.98262 0.50836 0.58461 0.0
H459 H 0.14479 0.69637 0.66872 0.0
H460 H 0.15672 0.51584 0.6749 0.0
H461 H 0.16553 0.53396 0.58787 0.0
Co462 Co 0.94813 0.59242 0.86398 0.0
C463 C 0.96883 0.53215 0.90521 0.0
C464 C 0.99476 0.52622 0.86817 0.0
C465 C 0.00878 0.50233 0.88785 0.0
N466 N 0.96922 0.54434 0.87885 0.0
N467 N 0.99261 0.50646 0.91128 0.0
H468 H 0.95391 0.54579 0.92047 0.0
H469 H 1.00448 0.53299 0.8483 0.0
C470 C 0.9565 0.53864 0.813 0.0
O471 O 0.94918 0.50412 0.82583 0.0
N472 N 0.92812 0.64099 0.84966 0.0
C473 C 0.9056 0.66354 0.86173 0.0
C474 C 0.89945 0.69759 0.84558 0.0
C475 C 0.93547 0.66129 0.82658 0.0
N476 N 0.91818 0.69574 0.82354 0.0
C477 C 0.89384 0.55449 0.88917 0.0
C478 C 0.86082 0.54487 0.84117 0.0
C479 C 0.84669 0.53276 0.86571 0.0
C480 C 0.86351 0.53811 0.89002 0.0
C481 C 0.89088 0.56136 0.84126 0.0
N482 N 0.90754 0.56486 0.86491 0.0
H483 H 0.90575 0.56015 0.90814 0.0
H484 H 0.90013 0.57292 0.82224 0.0
H485 H 0.89467 0.65594 0.881 0.0
H486 H 0.95356 0.65171 0.81259 0.0
O487 O 0.94878 0.61956 0.89962 0.0
O488 O 0.98594 0.6235 0.86823 0.0
O489 O 0.95654 0.57351 0.82544 0.0
C490 C 0.97559 0.63478 0.89197 0.0
H491 H 0.03046 0.48575 0.88551 0.0
H492 H 0.88232 0.72145 0.84944 0.0
H493 H 0.84835 0.54294 0.82201 0.0
H494 H 0.85333 0.52989 0.90953 0.0
Co495 Co 0.56779 0.4065 0.86417 0.0
C496 C 0.54118 0.4584 0.90755 0.0
C497 C 0.51353 0.46078 0.87137 0.0
C498 C 0.49746 0.47997 0.89215 0.0
N499 N 0.54132 0.44796 0.88089 0.0
N500 N 0.51481 0.47807 0.91503 0.0
H501 H 0.55816 0.44739 0.92196 0.0
H502 H 0.50426 0.45346 0.85143 0.0
C503 C 0.55343 0.46406 0.81593 0.0
O504 O 0.55476 0.49806 0.83073 0.0
N505 N 0.5935 0.36443 0.84809 0.0
C506 C 0.62029 0.34934 0.85823 0.0
C507 C 0.63101 0.31898 0.84088 0.0
C508 C 0.58792 0.34286 0.82512 0.0
N509 N 0.61059 0.31498 0.82015 0.0
C510 C 0.61791 0.44517 0.89415 0.0
C511 C 0.65153 0.47034 0.84894 0.0
C512 C 0.66514 0.47458 0.87479 0.0
C513 C 0.64761 0.46248 0.89764 0.0
C514 C 0.6218 0.45306 0.84635 0.0
N515 N 0.60513 0.44076 0.86877 0.0
H516 H 0.60629 0.4326 0.91181 0.0
H517 H 0.61339 0.44704 0.82603 0.0
H518 H 0.63113 0.35953 0.87699 0.0
H519 H 0.56783 0.34772 0.81225 0.0
O520 O 0.56812 0.37459 0.89807 0.0
O521 O 0.53335 0.36849 0.86485 0.0
O522 O 0.55905 0.42859 0.82647 0.0
C523 C 0.54339 0.35618 0.88842 0.0
H524 H 0.474 0.4918 0.89083 0.0
H525 H 0.65195 0.30085 0.84351 0.0
H526 H 0.66416 0.47908 0.83066 0.0
H527 H 0.65743 0.46409 0.91796 0.0
H528 H 0.97618 0.09011 0.20677 0.0
H529 H 0.96351 0.95716 0.20362 0.0
H530 H 0.99042 0.95037 0.24762 0.0
H531 H 0.01744 0.98321 0.28728 0.0
H532 H 0.0282 0.1168 0.28831 0.0
H533 H 1.00221 0.12205 0.24483 0.0
C534 C 0.97903 0.05949 0.21559 0.0
C535 C 0.96763 0.02424 0.20188 0.0
C536 C 0.9944 0.05591 0.24058 0.0
C537 C 0.97195 0.9849 0.21375 0.0
C538 C 0.98739 0.98102 0.23889 0.0
C539 C 0.01423 0.01337 0.27788 0.0
C540 C 0.025 0.04951 0.29123 0.0
C541 C 0.99877 0.01642 0.25253 0.0
C542 C 0.02041 0.08837 0.27873 0.0
C543 C 0.0054 0.09153 0.25375 0.0
H544 H 0.53917 0.98668 0.21787 0.0
H545 H 0.48835 0.89357 0.17256 0.0
H546 H 0.44909 0.89013 0.20813 0.0
H547 H 0.4303 0.91009 0.25294 0.0
H548 H 0.48295 -0.00371 0.302 0.0
H549 H 0.52013 0.0062 0.26436 0.0
C550 C 0.51936 0.96596 0.21585 0.0
C551 C 0.51664 0.94057 0.19257 0.0
C552 C 0.49715 0.96288 0.23707 0.0
C553 C 0.49107 0.91339 0.19029 0.0
C554 C 0.4685 0.9114 0.2106 0.0
C555 C 0.44958 0.93168 0.25523 0.0
C556 C 0.45362 0.95298 0.27995 0.0
C557 C 0.47143 0.93563 0.23415 0.0
C558 C 0.47925 0.97985 0.28297 0.0
C559 C 0.50054 0.98536 0.26151 0.0
H560 H 0.00885 0.92331 0.70152 0.0
H561 H 0.95365 0.03227 0.71736 0.0
H562 H 0.97964 0.04132 0.76161 0.0
H563 H 0.01576 0.01473 0.79723 0.0
H564 H 0.07101 0.90638 0.77956 0.0
H565 H 0.04755 0.90085 0.73452 0.0
C566 C 1.00247 0.94913 0.71461 0.0
C567 C 0.97901 0.97671 0.70638 0.0
C568 C 0.0176 0.95423 0.73971 0.0
C569 C 0.97153 0.01047 0.72333 0.0
C570 C 0.98637 0.01562 0.74861 0.0
C571 C 0.02304 0.9905 0.78325 0.0
C572 C 0.04471 0.96055 0.79188 0.0
C573 C 0.0092 0.98732 0.75721 0.0
C574 C 0.05388 0.9292 0.77363 0.0
C575 C 0.04052 0.92606 0.74783 0.0
H576 H 0.50451 0.05714 0.69494 0.0
H577 H 0.56669 0.95616 0.71309 0.0
H578 H 0.54024 0.94524 0.75711 0.0
H579 H 0.50243 0.96965 0.79221 0.0
H580 H 0.44087 0.07084 0.7724 0.0
H581 H 0.46383 0.07613 0.72709 0.0
C582 C 0.51224 0.03255 0.70846 0.0
C583 C 0.53786 0.00796 0.70107 0.0
C584 C 0.49697 0.02655 0.73342 0.0
C585 C 0.54712 0.97563 0.71846 0.0
C586 C 0.53204 0.9695 0.74361 0.0
C587 C 0.49359 0.9921 0.77769 0.0
C588 C 0.47023 0.02019 0.78576 0.0
C589 C 0.5073 0.99539 0.75157 0.0
C590 C 0.45912 0.04932 0.76682 0.0
C591 C 0.47227 0.05241 0.7409 0.0
H592 H 0.51586 0.4802 0.29407 0.0
H593 H 0.57109 0.58821 0.27379 0.0
H594 H 0.54712 0.59137 0.22893 0.0
H595 H 0.50799 0.56711 0.19673 0.0
H596 H 0.45275 0.45862 0.21527 0.0
H597 H 0.47928 0.45179 0.2594 0.0
C598 C 0.52303 0.50387 0.27961 0.0
C599 C 0.54493 0.53429 0.28746 0.0
C600 C 0.5089 0.50575 0.25365 0.0
C601 C 0.55392 0.56486 0.26849 0.0
C602 C 0.54023 0.56673 0.24278 0.0
C603 C 0.50174 0.54187 0.21038 0.0
C604 C 0.47812 0.51378 0.20294 0.0
C605 C 0.51716 0.53804 0.23543 0.0
C606 C 0.47077 0.48078 0.22061 0.0
C607 C 0.48592 0.47691 0.24584 0.0
H608 H 0.99977 0.5111 0.2887 0.0
H609 H 0.95502 0.39208 0.27732 0.0
H610 H 0.97738 0.38635 0.23191 0.0
H611 H 0.01152 0.41265 0.19661 0.0
H612 H 0.05746 0.53117 0.20627 0.0
H613 H 0.03255 0.53984 0.25108 0.0
C614 C 0.99465 0.48428 0.27605 0.0
C615 C 0.97613 0.45177 0.2865 0.0
C616 C 0.00794 0.48095 0.2498 0.0
C617 C 0.96969 0.4171 0.26998 0.0
C618 C 0.98239 0.41384 0.24395 0.0
C619 C 0.01621 0.44051 0.20841 0.0
C620 C 0.03666 0.471 0.19822 0.0
C621 C 1.00199 0.44512 0.23391 0.0
C622 C 0.04192 0.50713 0.2137 0.0
C623 C 0.0277 0.51204 0.23932 0.0
H624 H 0.51869 0.52393 0.78981 0.0
H625 H 0.56341 0.40543 0.7774 0.0
H626 H 0.53974 0.39939 0.73262 0.0
H627 H 0.50402 0.42473 0.69826 0.0
H628 H 0.4592 0.54334 0.70833 0.0
H629 H 0.48535 0.55253 0.7526 0.0
C630 C 0.52364 0.4972 0.77707 0.0
C631 C 0.54255 0.46494 0.78719 0.0
C632 C 0.50968 0.49368 0.75106 0.0
C633 C 0.54865 0.43045 0.7704 0.0
C634 C 0.53511 0.4269 0.74472 0.0
C635 C 0.49987 0.45269 0.71009 0.0
C636 C 0.47927 0.483 0.70025 0.0
C637 C 0.51507 0.45778 0.73514 0.0
C638 C 0.47481 0.51942 0.71556 0.0
C639 C 0.48974 0.52461 0.74087 0.0
H640 H 0.98682 0.47659 0.7852 0.0
H641 H 0.94991 0.60035 0.77622 0.0
H642 H 0.97358 0.60629 0.73129 0.0
H643 H 0.00761 0.57895 0.6961 0.0
H644 H 0.0452 0.45543 0.70332 0.0
H645 H 0.01826 0.44656 0.74724 0.0
C646 C 0.98355 0.50447 0.77314 0.0
C647 C 0.96697 0.53823 0.78421 0.0
C648 C 0.99761 0.5079 0.74716 0.0
C649 C 0.96301 0.57425 0.7684 0.0
C650 C 0.97652 0.57768 0.74267 0.0
C651 C 0.00995 0.54996 0.7072 0.0
C652 C 0.02877 0.51812 0.69665 0.0
C653 C 0.99446 0.54517 0.73217 0.0
C654 C 0.03097 0.48051 0.71107 0.0
C655 C 0.0156 0.47549 0.73619 0.0
H656 H 0.05955 0.21812 0.28958 0.0
H657 H 0.15948 0.20775 0.29424 0.0
H658 H 0.16485 0.2468 0.25188 0.0
H659 H 0.1412 0.28307 0.21315 0.0
H660 H 0.04129 0.29177 0.20776 0.0
H661 H 0.03587 0.25394 0.25069 0.0
C662 C 0.0825 0.22409 0.28125 0.0
C663 C 0.10904 0.20993 0.29515 0.0
C664 C 0.08543 0.24621 0.25671 0.0
C665 C 0.13864 0.2187 0.28425 0.0
C666 C 0.14175 0.24078 0.25988 0.0
C667 C 0.11825 0.27632 0.22122 0.0
C668 C 0.09172 0.29018 0.20723 0.0
C669 C 0.11531 0.25449 0.24587 0.0
C670 C 0.06212 0.28187 0.21825 0.0
C671 C 0.05899 0.26007 0.24274 0.0
H672 H 0.36517 0.71233 0.20355 0.0
H673 H 0.46415 0.69318 0.21039 0.0
H674 H 0.46581 0.73905 0.25014 0.0
H675 H 0.4388 0.7847 0.28304 0.0
H676 H 0.34019 0.80554 0.27376 0.0
H677 H 0.33891 0.7592 0.23469 0.0
C678 C 0.38725 0.71851 0.21337 0.0
C679 C 0.41447 0.6993 0.20378 0.0
C680 C 0.38811 0.74524 0.2359 0.0
C681 C 0.44272 0.7071 0.2174 0.0
C682 C 0.44373 0.73357 0.24007 0.0
C683 C 0.41711 0.7794 0.27232 0.0
C684 C 0.38958 0.79832 0.28164 0.0
C685 C 0.41653 0.75286 0.2495 0.0
C686 C 0.36162 0.79077 0.26755 0.0
C687 C 0.36086 0.76444 0.24502 0.0
H688 H 0.6061 0.66471 0.26116 0.0
H689 H 0.60767 0.77557 0.31033 0.0
H690 H 0.60475 0.81874 0.26916 0.0
H691 H 0.60139 0.82432 0.21914 0.0
H692 H 0.60415 0.71382 0.16978 0.0
H693 H 0.60575 0.67043 0.211 0.0
C694 C 0.60579 0.69833 0.26264 0.0
C695 C 0.60691 0.7173 0.28837 0.0
C696 C 0.60489 0.72262 0.23899 0.0
C697 C 0.60695 0.76073 0.29049 0.0
C698 C 0.60518 0.78522 0.26708 0.0
C699 C 0.60233 0.79072 0.21765 0.0
C700 C 0.60243 0.77185 0.19189 0.0
C701 C 0.60408 0.76645 0.24125 0.0
C702 C 0.60412 0.72852 0.18967 0.0
C703 C 0.60495 0.70394 0.21311 0.0
H704 H 0.917 0.32151 0.27098 0.0
H705 H 0.91959 0.21337 0.32251 0.0
H706 H 0.91761 0.16798 0.28222 0.0
H707 H 0.91337 0.15972 0.23228 0.0
H708 H 0.90557 0.26801 0.18128 0.0
H709 H 0.91138 0.31328 0.22127 0.0
C710 C 0.91736 0.28799 0.27317 0.0
C711 C 0.91865 0.27042 0.29932 0.0
C712 C 0.91512 0.26247 0.2501 0.0
C713 C 0.91857 0.22713 0.30236 0.0
C714 C 0.91745 0.20138 0.27943 0.0
C715 C 0.91311 0.19325 0.23013 0.0
C716 C 0.90915 0.21086 0.20419 0.0
C717 C 0.91546 0.21875 0.25322 0.0
C718 C 0.90841 0.25417 0.20127 0.0
C719 C 0.91181 0.27987 0.22402 0.0
H720 H 0.92052 0.67378 0.77118 0.0
H721 H 0.91666 0.77935 0.82502 0.0
H722 H 0.9177 0.8266 0.78569 0.0
H723 H 0.91866 0.83722 0.73571 0.0
H724 H 0.918 0.73117 0.6822 0.0
H725 H 0.92009 0.6842 0.72155 0.0
C726 C 0.92012 0.70716 0.77415 0.0
C727 C 0.91871 0.72339 0.80068 0.0
C728 C 0.91993 0.73372 0.75155 0.0
C729 C 0.91762 0.76652 0.8046 0.0
C730 C 0.91831 0.79336 0.7822 0.0
C731 C 0.91918 0.80381 0.73291 0.0
C732 C 0.91836 0.78727 0.70644 0.0
C733 C 0.91934 0.77726 0.75559 0.0
C734 C 0.91854 0.74412 0.7026 0.0
C735 C 0.91975 0.71746 0.725 0.0
H736 H 0.56318 0.28012 0.79253 0.0
H737 H 0.66328 0.28803 0.79611 0.0
H738 H 0.66746 0.24333 0.75602 0.0
H739 H 0.64265 0.2039 0.71925 0.0
H740 H 0.54263 0.19645 0.71501 0.0
H741 H 0.5383 0.239 0.75624 0.0
C742 C 0.58587 0.27221 0.78441 0.0
C743 C 0.61288 0.2875 0.79713 0.0
C744 C 0.58807 0.24663 0.76133 0.0
C745 C 0.64217 0.27633 0.78679 0.0
C746 C 0.64457 0.251 0.7638 0.0
C747 C 0.61993 0.21182 0.72728 0.0
C748 C 0.59302 0.19743 0.71404 0.0
C749 C 0.61768 0.2363 0.75081 0.0
C750 C 0.56368 0.20701 0.72498 0.0
C751 C 0.56121 0.2315 0.74842 0.0
H752 H 0.40375 0.24317 0.69455 0.0
H753 H 0.41809 0.35952 0.73617 0.0
H754 H 0.41663 0.32387 0.7804 0.0
H755 H 0.41264 0.25882 0.8069 0.0
H756 H 0.40228 0.14231 0.76465 0.0
H757 H 0.40039 0.17854 0.72073 0.0
C758 C 0.40623 0.2606 0.71338 0.0
C759 C 0.41081 0.30368 0.71238 0.0
C760 C 0.406 0.23984 0.73842 0.0
C761 C 0.41468 0.32618 0.7367 0.0
C762 C 0.41373 0.30588 0.76186 0.0
C763 C 0.40957 0.24174 0.788 0.0
C764 C 0.40731 0.19832 0.78865 0.0
C765 C 0.40953 0.26268 0.76294 0.0
C766 C 0.40401 0.17589 0.76427 0.0
C767 C 0.40297 0.19651 0.73932 0.0
H768 H 0.11411 0.74784 0.69932 0.0
H769 H 0.09626 0.62911 0.73667 0.0
H770 H 0.09582 0.6615 0.78203 0.0
H771 H 0.09921 0.72454 0.81071 0.0
H772 H 0.11237 0.84371 0.77255 0.0
H773 H 0.11624 0.81064 0.72763 0.0
C774 C 0.11043 0.72924 0.7175 0.0
C775 C 0.10547 0.68641 0.71503 0.0
C776 C 0.10938 0.74822 0.74315 0.0
C777 C 0.10005 0.66228 0.73842 0.0
C778 C 0.09988 0.68073 0.7642 0.0
C779 C 0.1032 0.74286 0.79245 0.0
C780 C 0.10575 0.78611 0.79452 0.0
C781 C 0.10436 0.72373 0.76678 0.0
C782 C 0.11036 0.81023 0.77103 0.0
C783 C 0.11257 0.7914 0.74551 0.0
H784 H 0.0492 0.01422 0.46227 0.0
H785 H 0.95165 0.01667 0.44146 0.0
H786 H 0.93794 0.00227 0.48878 0.0
H787 H 0.95356 0.99157 0.53654 0.0
H788 H 0.05106 0.99116 0.5573 0.0
H789 H 0.06477 0.00377 0.50973 0.0
C790 C 0.02492 0.01201 0.46804 0.0
C791 C 1.00159 0.01678 0.44817 0.0
C792 C 0.01713 0.00467 0.49542 0.0
C793 C 0.97023 0.01274 0.45608 0.0
C794 C 0.9623 0.00486 0.48326 0.0
C795 C 0.97779 0.99405 0.5306 0.0
C796 C 1.00119 0.99065 0.5505 0.0
C797 C 0.98555 0.00111 0.50314 0.0
C798 C 0.03252 0.99438 0.54254 0.0
C799 C 0.04042 0.00121 0.51527 0.0
H800 H 0.50653 0.02729 0.44591 0.0
H801 H 0.46346 0.90848 0.46164 0.0
H802 H 0.47493 0.91523 0.51019 0.0
H803 H 0.49776 0.95469 0.54823 0.0
H804 H 0.54004 0.07409 0.53231 0.0
H805 H 0.52899 0.06689 0.4839 0.0
C806 C 0.49987 0.00282 0.45997 0.0
C807 C 0.48404 0.96765 0.45021 0.0
C808 C 0.50661 0.00683 0.48785 0.0
C809 C 0.47519 0.93627 0.46869 0.0
C810 C 0.48193 0.93995 0.49644 0.0
C811 C 0.50438 0.97917 0.53416 0.0
C812 C 0.52003 0.01453 0.54393 0.0
C813 C 0.49759 0.97513 0.50627 0.0
C814 C 0.52866 0.04598 0.5254 0.0
C815 C 0.52209 0.04212 0.49765 0.0
H816 H 0.4732 0.04104 0.9577 0.0
H817 H 0.52704 0.93843 0.92684 0.0
H818 H 0.53802 0.91597 0.97362 0.0
H819 H 0.53189 0.92566 0.02287 0.0
H820 H 0.47876 0.0291 0.05365 0.0
H821 H 0.46698 0.05064 0.00692 0.0
C822 C 0.48689 0.01336 0.96118 0.0
C823 C 0.49905 0.99106 0.93892 0.0
C824 C 0.49312 0.0009 0.98796 0.0
C825 C 0.51754 0.956 0.94374 0.0
C826 C 0.52372 0.94319 0.9704 0.0
C827 C 0.51813 0.95328 0.01942 0.0
C828 C 0.50645 0.97606 0.04169 0.0
C829 C 0.51171 0.96554 0.99262 0.0
C830 C 0.48785 0.01102 0.03681 0.0
C831 C 0.48125 0.02339 0.01015 0.0
H832 H 0.02912 0.02138 0.04564 0.0
H833 H 0.93144 0.9945 0.03616 0.0
H834 H 0.93895 0.98351 0.98715 0.0
H835 H 0.97357 0.98033 0.94737 0.0
H836 H 0.07126 0.00729 0.9568 0.0
H837 H 0.0636 0.01948 0.00566 0.0
C838 C 0.0096 0.01256 0.03289 0.0
C839 C 0.97982 0.00833 0.04443 0.0
C840 C 0.01408 0.0067 0.0048 0.0
C841 C 0.95455 -0.0021 0.0276 0.0
C842 C 0.95884 0.99169 -0.00034 0.0
C843 C 0.99305 0.98964 0.96002 0.0
C844 C 0.02292 0.99315 0.94854 0.0
C845 C 0.98849 -0.00387 0.98804 0.0
C846 C 0.0481 0.00432 0.9653 0.0
C847 C 0.04372 0.01119 0.99317 0.0
H848 H 0.49631 0.47123 0.44341 0.0
H849 H 0.55678 0.57577 0.45888 0.0
H850 H 0.54902 0.56801 0.50784 0.0
H851 H 0.52416 0.53239 0.54645 0.0
H852 H 0.46451 0.42682 0.53099 0.0
H853 H 0.47225 0.43468 0.48217 0.0
C854 C 0.5077 0.4922 0.45759 0.0
C855 C 0.52733 0.52355 0.44756 0.0
C856 C 0.50303 0.48774 0.48579 0.0
C857 C 0.54211 0.55066 0.46607 0.0
C858 C 0.53747 0.54653 0.4941 0.0
C859 C 0.51303 0.511 0.53239 0.0
C860 C 0.49344 0.4796 0.54249 0.0
C861 C 0.51796 0.5152 0.50421 0.0
C862 C 0.47904 0.45213 0.52394 0.0
C863 C 0.48369 0.45627 0.49591 0.0
H864 H 0.97691 0.53395 0.53758 0.0
H865 H 0.07337 0.49829 0.53516 0.0
H866 H 0.07003 0.48727 0.48582 0.0
H867 H 0.03907 0.48556 0.44382 0.0
H868 H 0.94252 0.52085 0.44616 0.0
H869 H 0.94638 0.53463 0.49519 0.0
C870 C 0.99703 0.52333 0.52624 0.0
C871 C 0.02525 0.51649 0.53986 0.0
C872 C 0.99497 0.51749 0.49794 0.0
C873 C 0.05143 0.50369 0.52494 0.0
C874 C 0.04953 0.49748 0.49681 0.0
C875 C 0.01911 0.49718 0.45496 0.0
C876 C 0.99059 0.50244 0.4415 0.0
C877 C 0.02142 0.50429 0.48311 0.0
C878 C 0.96468 0.51662 0.45626 0.0
C879 C 0.96685 0.52428 0.48422 0.0
H880 H 0.0555 0.46886 0.02412 0.0
H881 H 0.9601 0.47887 0.0507 0.0
H882 H 0.94334 0.48924 0.00375 0.0
H883 H 0.95575 0.49676 0.95527 0.0
H884 H 0.05129 0.48891 0.9286 0.0
H885 H 0.06777 0.4747 0.97518 0.0
C886 C 0.03104 0.47298 0.01958 0.0
C887 C 0.00919 0.47352 0.04096 0.0
C888 C 0.02149 0.47885 0.99245 0.0
C889 C 0.97754 0.4792 0.03477 0.0
C890 C 0.96787 0.48477 0.00786 0.0
C891 C 0.98019 0.4921 0.95961 0.0
C892 C 1.00214 0.49421 0.93834 0.0
C893 C 0.98966 0.48499 0.98658 0.0
C894 C 0.0337 0.48711 0.94435 0.0
C895 C 0.04326 0.47936 0.97112 0.0
H896 H 0.55214 0.49116 0.95835 0.0
H897 H 0.45558 0.48473 0.93449 0.0
H898 H 0.43973 0.49388 0.98186 0.0
H899 H 0.45328 0.50037 0.03052 0.0
H900 H 0.54991 0.5043 0.05412 0.0
H901 H 0.56565 0.4977 0.00655 0.0
C902 C 0.52761 0.4914 0.96343 0.0
C903 C 0.50522 0.48691 0.9427 0.0
C904 C 0.51861 0.4955 0.99081 0.0
C905 C 0.47348 0.48846 0.94979 0.0
C906 C 0.46433 0.49329 0.977 0.0
C907 C 0.47776 0.49992 0.0252 0.0
C908 C 0.50032 0.50248 0.04591 0.0
C909 C 0.4867 0.49633 -0.00229 0.0
C910 C 0.532 0.50153 0.03873 0.0
C911 C 0.54105 0.49819 0.01146 0.0
H912 H 0.20068 0.04208 0.39987 0.0
H913 H 0.18348 0.97508 0.32493 0.0
H914 H 0.23861 0.95806 0.32154 0.0
H915 H 0.29182 0.96224 0.33981 0.0
H916 H 0.30849 0.02457 0.41625 0.0
H917 H 0.25327 0.04324 0.41932 0.0
C918 C 0.20878 0.02305 0.38305 0.0
C919 C 0.18782 0.00996 0.36266 0.0
C920 C 0.24045 0.0129 0.38141 0.0
C921 C 0.19906 0.98607 0.34073 0.0
C922 C 0.23059 0.97621 0.3388 0.0
C923 C 0.28325 0.98024 0.35696 0.0
C924 C 0.30392 0.99274 0.37757 0.0
C925 C 0.25151 0.98974 0.35889 0.0
C926 C 0.2928 0.01516 0.40007 0.0
C927 C 0.26132 0.02562 0.40184 0.0
H928 H 0.78501 0.05239 0.10512 0.0
H929 H 0.8131 0.96214 0.16527 0.0
H930 H 0.75964 0.93652 0.16852 0.0
H931 H 0.7051 0.9387 0.15351 0.0
H932 H 0.67722 0.02825 0.09288 0.0
H933 H 0.73048 0.0549 0.09036 0.0
C934 C 0.77952 0.0268 0.11872 0.0
C935 C 0.80309 0.00911 0.13484 0.0
C936 C 0.74875 0.01216 0.12044 0.0
C937 C 0.79539 0.97653 0.15277 0.0
C938 C 0.76484 0.96178 0.15459 0.0
C939 C 0.71061 0.96444 0.14004 0.0
C940 C 0.68722 0.98157 0.12347 0.0
C941 C 0.74132 0.97937 0.13854 0.0
C942 C 0.69485 0.01439 0.10573 0.0
C943 C 0.72528 0.02966 0.1043 0.0
H944 H 0.71737 0.05208 0.65921 0.0
H945 H 0.6934 0.97748 0.58911 0.0
H946 H 0.74741 0.95474 0.58499 0.0
H947 H 0.80129 0.95466 0.60203 0.0
H948 H 0.82524 0.03017 0.6718 0.0
H949 H 0.77144 0.05347 0.67548 0.0
C950 C 0.72391 0.03056 0.64318 0.0
C951 C 0.70129 0.01633 0.62459 0.0
C952 C 0.75506 0.01773 0.64086 0.0
C953 C 0.71034 0.98908 0.6036 0.0
C954 C 0.74123 0.97598 0.60128 0.0
C955 C 0.79487 0.97669 0.6178 0.0
C956 C 0.81739 0.99048 0.63666 0.0
C957 C 0.7638 0.99008 0.6198 0.0
C958 C 0.8084 0.01856 0.65721 0.0
C959 C 0.77762 0.03204 0.6593 0.0
H960 H 0.31631 0.96731 0.85136 0.0
H961 H 0.30474 0.0659 0.9103 0.0
H962 H 0.2499 0.04787 0.91525 0.0
H963 H 0.20409 0.00651 0.90092 0.0
H964 H 0.21544 0.9115 0.83966 0.0
H965 H 0.27111 0.92632 0.83716 0.0
C966 C 0.30185 0.98519 0.86515 0.0
C967 C 0.31497 0.018 0.88037 0.0
C968 C 0.27002 0.9755 0.86733 0.0
C969 C 0.2957 0.04003 0.89858 0.0
C970 C 0.26412 0.03001 0.90126 0.0
C971 C 0.21887 0.98894 0.8872 0.0
C972 C 0.20566 0.95817 0.87037 0.0
C973 C 0.25092 -0.0019 0.88553 0.0
C974 C 0.22501 0.93571 0.85257 0.0
C975 C 0.25687 0.94406 0.85119 0.0
H976 H 0.81889 0.51773 0.38538 0.0
H977 H 0.80239 0.41864 0.32785 0.0
H978 H 0.7471 0.43601 0.32646 0.0
H979 H 0.70342 0.47844 0.3423 0.0
H980 H 0.72065 0.58022 0.39789 0.0
H981 H 0.77542 0.5618 0.39997 0.0
C982 C 0.80312 0.49998 0.37258 0.0
C983 C 0.81462 0.46707 0.35671 0.0
C984 C 0.77145 0.51022 0.3718 0.0
C985 C 0.79409 0.44447 0.33999 0.0
C986 C 0.76247 0.45419 0.33934 0.0
C987 C 0.71914 0.49693 0.35467 0.0
C988 C 0.70764 0.53047 0.37008 0.0
C989 C 0.75089 0.48696 0.3552 0.0
C990 C 0.72849 0.5536 0.38629 0.0
C991 C 0.75998 0.5434 0.38729 0.0
H992 H 0.29902 0.53708 0.10108 0.0
H993 H 0.32143 0.45508 0.16779 0.0
H994 H 0.26711 0.43266 0.17051 0.0
H995 H 0.21332 0.43626 0.15394 0.0
H996 H 0.19055 0.5195 0.08792 0.0
H997 H 0.245 0.54092 0.08462 0.0
C998 C 0.29207 0.51394 0.116 0.0
C999 C 0.3143 0.49767 0.13415 0.0
C1000 C 0.26073 0.50142 0.11758 0.0
C1001 C 0.30477 0.46827 0.1537 0.0
C1002 C 0.27373 0.45538 0.15523 0.0
C1003 C 0.22013 0.4595 0.13905 0.0
C1004 C 0.19771 0.4763 0.12127 0.0
C1005 C 0.25147 0.47192 0.13738 0.0
C1006 C 0.20726 0.50571 0.1017 0.0
C1007 C 0.23841 0.51813 0.09987 0.0
H1008 H 0.29734 0.44069 0.65421 0.0
H1009 H 0.32403 0.52513 0.59 0.0
H1010 H 0.27023 0.54932 0.58624 0.0
H1011 H 0.21606 0.54735 0.60191 0.0
H1012 H 0.18855 0.45898 0.66386 0.0
H1013 H 0.24228 0.43591 0.66806 0.0
C1014 C 0.29129 0.46453 0.63951 0.0
C1015 C 0.31451 0.48149 0.62258 0.0
C1016 C 0.26024 0.4776 0.6371 0.0
C1017 C 0.30645 0.51178 0.60326 0.0
C1018 C 0.27575 0.52557 0.60113 0.0
C1019 C 0.22154 0.52247 0.61598 0.0
C1020 C 0.19802 0.50518 0.63261 0.0
C1021 C 0.25245 0.50868 0.61794 0.0
C1022 C 0.20607 0.47353 0.65111 0.0
C1023 C 0.23683 0.46008 0.65345 0.0
H1024 H 0.71471 0.45232 0.84351 0.0
H1025 H 0.68991 0.52798 0.91283 0.0
H1026 H 0.74403 0.55106 0.91719 0.0
H1027 H 0.79831 0.5516 0.90013 0.0
H1028 H 0.82224 0.47578 0.83058 0.0
H1029 H 0.76861 0.45134 0.82736 0.0
C1030 C 0.72102 0.4742 0.85942 0.0
C1031 C 0.69811 0.48871 0.87762 0.0
C1032 C 0.75213 0.48737 0.86176 0.0
C1033 C 0.70701 0.51621 0.89856 0.0
C1034 C 0.73797 0.52952 0.90102 0.0
C1035 C 0.79185 0.52933 0.8845 0.0
C1036 C 0.81433 0.51578 0.86552 0.0
C1037 C 0.76075 0.51545 0.88265 0.0
C1038 C 0.80541 0.4872 0.84523 0.0
C1039 C 0.77472 0.4731 0.84339 0.0
H1040 H 0.99178 0.17346 0.41828 0.0
H1041 H 0.08719 0.21087 0.407 0.0
H1042 H 0.0726 0.28382 0.41191 0.0
H1043 H 0.03076 0.3355 0.40694 0.0
H1044 H 0.9354 0.29794 0.41901 0.0
H1045 H 0.95182 0.22654 0.42718 0.0
C1046 C 0.00948 0.19759 0.41833 0.0
C1047 C 0.04034 0.1873 0.41204 0.0
C1048 C 1.0008 0.23938 0.4208 0.0
C1049 C 0.0633 0.21837 0.41202 0.0
C1050 C 0.05488 0.26008 0.41443 0.0
C1051 C 0.0138 0.31197 0.41261 0.0
C1052 C 0.98198 0.32148 0.41185 0.0
C1053 C 0.02342 0.27091 0.41699 0.0
C1054 C 0.96006 0.29115 0.41943 0.0
C1055 C 0.96941 0.2502 0.42378 0.0
H1056 H 0.50963 0.83284 0.39317 0.0
H1057 H 0.41844 0.7777 0.38717 0.0
H1058 H 0.44067 0.70848 0.39384 0.0
H1059 H 0.48711 0.6639 0.39278 0.0
H1060 H 0.57816 0.71903 0.40039 0.0
H1061 H 0.55502 0.78831 0.40263 0.0
C1062 C 0.49468 0.80563 0.39412 0.0
C1063 C 0.46268 0.80975 0.38937 0.0
C1064 C 0.50761 0.76619 0.39821 0.0
C1065 C 0.4432 0.77482 0.39083 0.0
C1066 C 0.45591 0.73536 0.39448 0.0
C1067 C 0.50168 0.69107 0.39603 0.0
C1068 C 0.53414 0.68681 0.39625 0.0
C1069 C 0.48821 0.73062 0.39702 0.0
C1070 C 0.55304 0.72183 0.40044 0.0
C1071 C 0.53985 0.76141 0.40132 0.0
H1072 H 0.48542 0.81384 0.0775 0.0
H1073 H 0.58108 0.77504 0.0809 0.0
H1074 H 0.56486 0.7022 0.07936 0.0
H1075 H 0.52297 0.65129 0.08853 0.0
H1076 H 0.42729 0.69015 0.08418 0.0
H1077 H 0.44383 0.76123 0.074 0.0
C1078 C 0.50268 0.78936 0.07649 0.0
C1079 C 0.53428 0.79943 0.07956 0.0
C1080 C 0.4931 0.74765 0.07607 0.0
C1081 C 0.55662 0.76783 0.07835 0.0
C1082 C 0.5473 0.72617 0.07792 0.0
C1083 C 0.50584 0.6751 0.08432 0.0
C1084 C 0.47406 0.66599 0.08749 0.0
C1085 C 0.51555 0.71586 0.07853 0.0
C1086 C 0.4519 0.69666 0.08181 0.0
C1087 C 0.46135 0.73736 0.07624 0.0
H1088 H 0.01397 0.16075 0.08946 0.0
H1089 H 0.92025 0.20764 0.09025 0.0
H1090 H 0.93986 0.27867 0.08524 0.0
H1091 H 0.98403 0.32724 0.09066 0.0
H1092 H 0.07773 0.28033 0.08848 0.0
H1093 H 0.05794 0.20939 0.08337 0.0
C1094 C 0.9979 0.18647 0.08739 0.0
C1095 C 0.96583 0.17933 0.09042 0.0
C1096 C 0.00939 0.22715 0.0847 0.0
C1097 C 0.94504 0.21257 0.08774 0.0
C1098 C 0.95628 0.2532 0.08524 0.0
C1099 C 1.00002 0.30154 0.08804 0.0
C1100 C 0.03218 0.30862 0.09023 0.0
C1101 C 0.98844 0.26093 0.08516 0.0
C1102 C 0.05286 0.27543 0.08671 0.0
C1103 C 0.04154 0.23486 0.08409 0.0
H1104 H 0.02855 0.83495 0.59709 0.0
H1105 H 0.93336 0.79336 0.59184 0.0
H1106 H 0.95074 0.7216 0.58619 0.0
H1107 H 0.99273 0.67024 0.59218 0.0
H1108 H 0.08801 0.71181 0.59573 0.0
H1109 H 0.0711 0.78411 0.59199 0.0
C1110 C 0.01173 0.81028 0.59365 0.0
C1111 C 0.97978 0.81916 0.59508 0.0
C1112 C 0.02194 0.76912 0.59048 0.0
C1113 C 0.95808 0.7872 0.5906 0.0
C1114 C 0.96802 0.74611 0.5877 0.0
C1115 C 0.00977 0.69514 0.59108 0.0
C1116 C 0.04148 0.68601 0.59442 0.0
C1117 C 0.99983 0.73656 0.58896 0.0
C1118 C 0.06349 0.71824 0.59297 0.0
C1119 C 0.05379 0.75958 0.59116 0.0
H1120 H 0.44845 0.28288 0.59603 0.0
H1121 H 0.53448 0.35175 0.59742 0.0
H1122 H 0.56403 0.28757 0.5916 0.0
H1123 H 0.56547 0.21142 0.59593 0.0
H1124 H 0.47945 0.14278 0.60067 0.0
H1125 H 0.44982 0.20656 0.59373 0.0
C1126 C 0.47358 0.28379 0.59389 0.0
C1127 C 0.48938 0.32169 0.59696 0.0
C1128 C 0.49044 0.2465 0.59215 0.0
C1129 C 0.52196 0.3227 0.59495 0.0
C1130 C 0.53884 0.28601 0.59186 0.0
C1131 C 0.54031 0.2104 0.59435 0.0
C1132 C 0.52456 0.17274 0.59873 0.0
C1133 C 0.52341 0.24756 0.59184 0.0
C1134 C 0.49194 0.17164 0.5973 0.0
C1135 C 0.47501 0.20811 0.59352 0.0
H1136 H 0.45569 0.20513 0.90399 0.0
H1137 H 0.54139 0.14163 0.88633 0.0
H1138 H 0.57079 0.20592 0.89344 0.0
H1139 H 0.57067 0.2822 0.89533 0.0
H1140 H 0.48414 0.34694 0.90609 0.0
H1141 H 0.45651 0.28079 0.91173 0.0
C1142 C 0.4809 0.20523 0.90277 0.0
C1143 C 0.4965 0.16891 0.89484 0.0
C1144 C 0.49741 0.24287 0.90536 0.0
C1145 C 0.52904 0.16937 0.89254 0.0
C1146 C 0.5458 0.20615 0.89643 0.0
C1147 C 0.54602 0.28164 0.90016 0.0
C1148 C 0.52942 0.31904 0.90084 0.0
C1149 C 0.5301 0.24346 0.90157 0.0
C1150 C 0.49732 0.3183 0.90601 0.0
C1151 C 0.48151 0.2805 0.90889 0.0
H1152 H 0.95004 0.7066 0.90868 0.0
H1153 H 0.03673 0.64041 0.90454 0.0
H1154 H 0.0656 0.7049 0.91259 0.0
H1155 H 0.06616 0.78119 0.90982 0.0
H1156 H 0.97948 0.84751 0.90663 0.0
H1157 H 0.95056 0.78266 0.91307 0.0
C1158 C 0.97516 0.70619 0.91085 0.0
C1159 C 0.99134 0.66901 0.90634 0.0
C1160 C 0.9916 0.74384 0.91365 0.0
C1161 C 0.02391 0.66879 0.90827 0.0
C1162 C 0.04039 0.70572 0.91256 0.0
C1163 C 0.04102 0.78148 0.91183 0.0
C1164 C 0.02487 0.81885 0.90802 0.0
C1165 C 0.02456 0.74371 0.91374 0.0
C1166 C 0.99227 0.81897 0.90978 0.0
C1167 C 0.97576 0.78185 0.91317 0.0
loop_
_geom_bond_atom_site_label_1
_geom_bond_atom_site_label_2
_geom_bond_distance
_geom_bond_site_symmetry_2
_ccdc_geom_bond_type
Co0 N4 2.148 . S
Co0 N10 2.128 . S
Co0 N20 2.194 . S
Co0 O25 2.351 . S
Co0 O26 2.155 . S
Co0 O27 2.096 . S
C1 N4 1.301 . S
C1 N5 1.328 . S
C1 H6 0.930 . S
C2 C3 1.333 . S
C2 N4 1.317 . S
C2 H7 0.930 . S
C3 C2 1.333 . S
C3 N5 1.350 . S
C3 H29 0.931 . S
N4 Co0 2.148 . S
N4 C1 1.301 . S
N4 C2 1.317 . S
N5 C1 1.328 . S
N5 C3 1.350 . S
H6 C1 0.930 . S
H7 C2 0.930 . S
C8 O9 1.224 . S
C8 O27 1.247 . S
O9 C8 1.224 . S
N10 Co0 2.128 . S
N10 C11 1.355 . S
N10 C13 1.311 . S
C11 N10 1.355 . S
C11 C12 1.363 . S
C11 H23 0.929 . S
C12 C11 1.363 . S
C12 N14 1.375 . S
C12 H30 0.931 . S
C13 N10 1.311 . S
C13 N14 1.347 . S
C13 H24 0.929 . S
N14 C12 1.375 . S
N14 C13 1.347 . S
C15 C18 1.365 . S
C15 N20 1.328 . S
C15 H21 0.929 . S
C16 C17 1.362 . S
C16 C19 1.378 . S
C16 H31 0.929 . S
C17 C16 1.362 . S
C17 C18 1.366 . S
C18 C15 1.365 . S
C18 C17 1.366 . S
C18 H32 0.930 . S
C19 C16 1.378 . S
C19 N20 1.315 . S
C19 H22 0.930 . S
N20 Co0 2.194 . S
N20 C15 1.328 . S
N20 C19 1.315 . S
H21 C15 0.929 . S
H22 C19 0.930 . S
H23 C11 0.929 . S
H24 C13 0.929 . S
O25 Co0 2.351 . S
O25 C28 1.244 . S
O26 Co0 2.155 . S
O26 C28 1.240 . S
O27 Co0 2.096 . S
O27 C8 1.247 . S
C28 O25 1.244 . S
C28 O26 1.240 . S
H29 C3 0.931 . S
H30 C12 0.931 . S
H31 C16 0.929 . S
H32 C18 0.930 . S
Co33 N37 2.148 . S
Co33 N43 2.128 . S
Co33 N53 2.194 . S
Co33 O58 2.351 . S
Co33 O59 2.155 . S
Co33 O60 2.096 . S
C34 N37 1.301 . S
C34 N38 1.328 . S
C34 H39 0.930 . S
C35 C36 1.333 . S
C35 N37 1.317 . S
C35 H40 0.930 . S
C36 C35 1.333 . S
C36 N38 1.350 . S
C36 H62 0.931 . S
N37 Co33 2.148 . S
N37 C34 1.301 . S
N37 C35 1.317 . S
N38 C34 1.328 . S
N38 C36 1.350 . S
H39 C34 0.930 . S
H40 C35 0.930 . S
C41 O42 1.224 . S
C41 O60 1.247 . S
O42 C41 1.224 . S
N43 Co33 2.128 . S
N43 C44 1.355 . S
N43 C46 1.311 . S
C44 N43 1.355 . S
C44 C45 1.363 . S
C44 H56 0.929 . S
C45 C44 1.363 . S
C45 N47 1.375 . S
C45 H63 0.931 . S
C46 N43 1.311 . S
C46 N47 1.347 . S
C46 H57 0.929 . S
N47 C45 1.375 . S
N47 C46 1.347 . S
C48 C51 1.365 . S
C48 N53 1.328 . S
C48 H54 0.929 . S
C49 C50 1.362 . S
C49 C52 1.378 . S
C49 H64 0.929 . S
C50 C49 1.362 . S
C50 C51 1.366 . S
C51 C48 1.365 . S
C51 C50 1.366 . S
C51 H65 0.930 . S
C52 C49 1.378 . S
C52 N53 1.315 . S
C52 H55 0.930 . S
N53 Co33 2.194 . S
N53 C48 1.328 . S
N53 C52 1.315 . S
H54 C48 0.929 . S
H55 C52 0.930 . S
H56 C44 0.929 . S
H57 C46 0.929 . S
O58 Co33 2.351 . S
O58 C61 1.244 . S
O59 Co33 2.155 . S
O59 C61 1.240 . S
O60 Co33 2.096 . S
O60 C41 1.247 . S
C61 O58 1.244 . S
C61 O59 1.240 . S
H62 C36 0.931 . S
H63 C45 0.931 . S
H64 C49 0.929 . S
H65 C51 0.930 . S
Co66 N70 2.148 . S
Co66 N76 2.128 . S
Co66 N86 2.194 . S
Co66 O91 2.351 . S
Co66 O92 2.155 . S
Co66 O93 2.096 . S
C67 N70 1.301 . S
C67 N71 1.328 . S
C67 H72 0.930 . S
C68 C69 1.333 . S
C68 N70 1.317 . S
C68 H73 0.930 . S
C69 C68 1.333 . S
C69 N71 1.350 . S
C69 H95 0.931 . S
N70 Co66 2.148 . S
N70 C67 1.301 . S
N70 C68 1.317 . S
N71 C67 1.328 . S
N71 C69 1.350 . S
H72 C67 0.930 . S
H73 C68 0.930 . S
C74 O75 1.224 . S
C74 O93 1.247 . S
O75 C74 1.224 . S
N76 Co66 2.128 . S
N76 C77 1.355 . S
N76 C79 1.311 . S
C77 N76 1.355 . S
C77 C78 1.363 . S
C77 H89 0.929 . S
C78 C77 1.363 . S
C78 N80 1.375 . S
C78 H96 0.931 . S
C79 N76 1.311 . S
C79 N80 1.347 . S
C79 H90 0.929 . S
N80 C78 1.375 . S
N80 C79 1.347 . S
C81 C84 1.365 . S
C81 N86 1.328 . S
C81 H87 0.929 . S
C82 C83 1.362 . S
C82 C85 1.378 . S
C82 H97 0.929 . S
C83 C82 1.362 . S
C83 C84 1.366 . S
C84 C81 1.365 . S
C84 C83 1.366 . S
C84 H98 0.930 . S
C85 C82 1.378 . S
C85 N86 1.315 . S
C85 H88 0.930 . S
N86 Co66 2.194 . S
N86 C81 1.328 . S
N86 C85 1.315 . S
H87 C81 0.929 . S
H88 C85 0.930 . S
H89 C77 0.929 . S
H90 C79 0.929 . S
O91 Co66 2.351 . S
O91 C94 1.244 . S
O92 Co66 2.155 . S
O92 C94 1.240 . S
O93 Co66 2.096 . S
O93 C74 1.247 . S
C94 O91 1.244 . S
C94 O92 1.240 . S
H95 C69 0.931 . S
H96 C78 0.931 . S
H97 C82 0.929 . S
H98 C84 0.930 . S
Co99 N103 2.148 . S
Co99 N109 2.128 . S
Co99 N119 2.194 . S
Co99 O124 2.351 . S
Co99 O125 2.155 . S
Co99 O126 2.096 . S
C100 N103 1.301 . S
C100 N104 1.328 . S
C100 H105 0.930 . S
C101 C102 1.333 . S
C101 N103 1.317 . S
C101 H106 0.930 . S
C102 C101 1.333 . S
C102 N104 1.350 . S
C102 H128 0.931 . S
N103 Co99 2.148 . S
N103 C100 1.301 . S
N103 C101 1.317 . S
N104 C100 1.328 . S
N104 C102 1.350 . S
H105 C100 0.930 . S
H106 C101 0.930 . S
C107 O108 1.224 . S
C107 O126 1.247 . S
O108 C107 1.224 . S
N109 Co99 2.128 . S
N109 C110 1.355 . S
N109 C112 1.311 . S
C110 N109 1.355 . S
C110 C111 1.363 . S
C110 H122 0.929 . S
C111 C110 1.363 . S
C111 N113 1.375 . S
C111 H129 0.931 . S
C112 N109 1.311 . S
C112 N113 1.347 . S
C112 H123 0.929 . S
N113 C111 1.375 . S
N113 C112 1.347 . S
C114 C117 1.365 . S
C114 N119 1.328 . S
C114 H120 0.929 . S
C115 C116 1.362 . S
C115 C118 1.378 . S
C115 H130 0.929 . S
C116 C115 1.362 . S
C116 C117 1.366 . S
C117 C114 1.365 . S
C117 C116 1.366 . S
C117 H131 0.930 . S
C118 C115 1.378 . S
C118 N119 1.315 . S
C118 H121 0.930 . S
N119 Co99 2.194 . S
N119 C114 1.328 . S
N119 C118 1.315 . S
H120 C114 0.929 . S
H121 C118 0.930 . S
H122 C110 0.929 . S
H123 C112 0.929 . S
O124 Co99 2.351 . S
O124 C127 1.244 . S
O125 Co99 2.155 . S
O125 C127 1.240 . S
O126 Co99 2.096 . S
O126 C107 1.247 . S
C127 O124 1.244 . S
C127 O125 1.240 . S
H128 C102 0.931 . S
H129 C111 0.931 . S
H130 C115 0.929 . S
H131 C117 0.930 . S
Co132 N136 2.148 . S
Co132 N142 2.128 . S
Co132 N152 2.194 . S
Co132 O157 2.351 . S
Co132 O158 2.155 . S
Co132 O159 2.096 . S
C133 N136 1.301 . S
C133 N137 1.328 . S
C133 H138 0.930 . S
C134 C135 1.333 . S
C134 N136 1.317 . S
C134 H139 0.930 . S
C135 C134 1.333 . S
C135 N137 1.350 . S
C135 H161 0.931 . S
N136 Co132 2.148 . S
N136 C133 1.301 . S
N136 C134 1.317 . S
N137 C133 1.328 . S
N137 C135 1.350 . S
H138 C133 0.930 . S
H139 C134 0.930 . S
C140 O141 1.224 . S
C140 O159 1.247 . S
O141 C140 1.224 . S
N142 Co132 2.128 . S
N142 C143 1.355 . S
N142 C145 1.311 . S
C143 N142 1.355 . S
C143 C144 1.363 . S
C143 H155 0.929 . S
C144 C143 1.363 . S
C144 N146 1.375 . S
C144 H162 0.931 . S
C145 N142 1.311 . S
C145 N146 1.347 . S
C145 H156 0.929 . S
N146 C144 1.375 . S
N146 C145 1.347 . S
C147 C150 1.365 . S
C147 N152 1.328 . S
C147 H153 0.929 . S
C148 C149 1.362 . S
C148 C151 1.378 . S
C148 H163 0.929 . S
C149 C148 1.362 . S
C149 C150 1.366 . S
C150 C147 1.365 . S
C150 C149 1.366 . S
C150 H164 0.930 . S
C151 C148 1.378 . S
C151 N152 1.315 . S
C151 H154 0.930 . S
N152 Co132 2.194 . S
N152 C147 1.328 . S
N152 C151 1.315 . S
H153 C147 0.929 . S
H154 C151 0.930 . S
H155 C143 0.929 . S
H156 C145 0.929 . S
O157 Co132 2.351 . S
O157 C160 1.244 . S
O158 Co132 2.155 . S
O158 C160 1.240 . S
O159 Co132 2.096 . S
O159 C140 1.247 . S
C160 O157 1.244 . S
C160 O158 1.240 . S
H161 C135 0.931 . S
H162 C144 0.931 . S
H163 C148 0.929 . S
H164 C150 0.930 . S
Co165 N169 2.148 . S
Co165 N175 2.128 . S
Co165 N185 2.194 . S
Co165 O190 2.351 . S
Co165 O191 2.155 . S
Co165 O192 2.096 . S
C166 N169 1.301 . S
C166 N170 1.328 . S
C166 H171 0.930 . S
C167 C168 1.333 . S
C167 N169 1.317 . S
C167 H172 0.930 . S
C168 C167 1.333 . S
C168 N170 1.350 . S
C168 H194 0.931 . S
N169 Co165 2.148 . S
N169 C166 1.301 . S
N169 C167 1.317 . S
N170 C166 1.328 . S
N170 C168 1.350 . S
H171 C166 0.930 . S
H172 C167 0.930 . S
C173 O174 1.224 . S
C173 O192 1.247 . S
O174 C173 1.224 . S
N175 Co165 2.128 . S
N175 C176 1.355 . S
N175 C178 1.311 . S
C176 N175 1.355 . S
C176 C177 1.363 . S
C176 H188 0.929 . S
C177 C176 1.363 . S
C177 N179 1.375 . S
C177 H195 0.931 . S
C178 N175 1.311 . S
C178 N179 1.347 . S
C178 H189 0.929 . S
N179 C177 1.375 . S
N179 C178 1.347 . S
C180 C183 1.365 . S
C180 N185 1.328 . S
C180 H186 0.929 . S
C181 C182 1.362 . S
C181 C184 1.378 . S
C181 H196 0.929 . S
C182 C181 1.362 . S
C182 C183 1.366 . S
C183 C180 1.365 . S
C183 C182 1.366 . S
C183 H197 0.930 . S
C184 C181 1.378 . S
C184 N185 1.315 . S
C184 H187 0.930 . S
N185 Co165 2.194 . S
N185 C180 1.328 . S
N185 C184 1.315 . S
H186 C180 0.929 . S
H187 C184 0.930 . S
H188 C176 0.929 . S
H189 C178 0.929 . S
O190 Co165 2.351 . S
O190 C193 1.244 . S
O191 Co165 2.155 . S
O191 C193 1.240 . S
O192 Co165 2.096 . S
O192 C173 1.247 . S
C193 O190 1.244 . S
C193 O191 1.240 . S
H194 C168 0.931 . S
H195 C177 0.931 . S
H196 C181 0.929 . S
H197 C183 0.930 . S
Co198 N202 2.148 . S
Co198 N208 2.128 . S
Co198 N218 2.194 . S
Co198 O223 2.351 . S
Co198 O224 2.155 . S
Co198 O225 2.096 . S
C199 N202 1.301 . S
C199 N203 1.328 . S
C199 H204 0.930 . S
C200 C201 1.333 . S
C200 N202 1.317 . S
C200 H205 0.930 . S
C201 C200 1.333 . S
C201 N203 1.350 . S
C201 H227 0.931 . S
N202 Co198 2.148 . S
N202 C199 1.301 . S
N202 C200 1.317 . S
N203 C199 1.328 . S
N203 C201 1.350 . S
H204 C199 0.930 . S
H205 C200 0.930 . S
C206 O207 1.224 . S
C206 O225 1.247 . S
O207 C206 1.224 . S
N208 Co198 2.128 . S
N208 C209 1.355 . S
N208 C211 1.311 . S
C209 N208 1.355 . S
C209 C210 1.363 . S
C209 H221 0.929 . S
C210 C209 1.363 . S
C210 N212 1.375 . S
C210 H228 0.931 . S
C211 N208 1.311 . S
C211 N212 1.347 . S
C211 H222 0.929 . S
N212 C210 1.375 . S
N212 C211 1.347 . S
C213 C216 1.365 . S
C213 N218 1.328 . S
C213 H219 0.929 . S
C214 C215 1.362 . S
C214 C217 1.378 . S
C214 H229 0.929 . S
C215 C214 1.362 . S
C215 C216 1.366 . S
C216 C213 1.365 . S
C216 C215 1.366 . S
C216 H230 0.930 . S
C217 C214 1.378 . S
C217 N218 1.315 . S
C217 H220 0.930 . S
N218 Co198 2.194 . S
N218 C213 1.328 . S
N218 C217 1.315 . S
H219 C213 0.929 . S
H220 C217 0.930 . S
H221 C209 0.929 . S
H222 C211 0.929 . S
O223 Co198 2.351 . S
O223 C226 1.244 . S
O224 Co198 2.155 . S
O224 C226 1.240 . S
O225 Co198 2.096 . S
O225 C206 1.247 . S
C226 O223 1.244 . S
C226 O224 1.240 . S
H227 C201 0.931 . S
H228 C210 0.931 . S
H229 C214 0.929 . S
H230 C216 0.930 . S
Co231 N235 2.148 . S
Co231 N241 2.128 . S
Co231 N251 2.194 . S
Co231 O256 2.351 . S
Co231 O257 2.155 . S
Co231 O258 2.096 . S
C232 N235 1.301 . S
C232 N236 1.328 . S
C232 H237 0.930 . S
C233 C234 1.333 . S
C233 N235 1.317 . S
C233 H238 0.930 . S
C234 C233 1.333 . S
C234 N236 1.350 . S
C234 H260 0.931 . S
N235 Co231 2.148 . S
N235 C232 1.301 . S
N235 C233 1.317 . S
N236 C232 1.328 . S
N236 C234 1.350 . S
H237 C232 0.930 . S
H238 C233 0.930 . S
C239 O240 1.224 . S
C239 O258 1.247 . S
O240 C239 1.224 . S
N241 Co231 2.128 . S
N241 C242 1.355 . S
N241 C244 1.311 . S
C242 N241 1.355 . S
C242 C243 1.363 . S
C242 H254 0.929 . S
C243 C242 1.363 . S
C243 N245 1.375 . S
C243 H261 0.931 . S
C244 N241 1.311 . S
C244 N245 1.347 . S
C244 H255 0.929 . S
N245 C243 1.375 . S
N245 C244 1.347 . S
C246 C249 1.365 . S
C246 N251 1.328 . S
C246 H252 0.929 . S
C247 C248 1.362 . S
C247 C250 1.378 . S
C247 H262 0.929 . S
C248 C247 1.362 . S
C248 C249 1.366 . S
C249 C246 1.365 . S
C249 C248 1.366 . S
C249 H263 0.930 . S
C250 C247 1.378 . S
C250 N251 1.315 . S
C250 H253 0.930 . S
N251 Co231 2.194 . S
N251 C246 1.328 . S
N251 C250 1.315 . S
H252 C246 0.929 . S
H253 C250 0.930 . S
H254 C242 0.929 . S
H255 C244 0.929 . S
O256 Co231 2.351 . S
O256 C259 1.244 . S
O257 Co231 2.155 . S
O257 C259 1.240 . S
O258 Co231 2.096 . S
O258 C239 1.247 . S
C259 O256 1.244 . S
C259 O257 1.240 . S
H260 C234 0.931 . S
H261 C243 0.931 . S
H262 C247 0.929 . S
H263 C249 0.930 . S
Co264 N268 2.148 . S
Co264 N274 2.128 . S
Co264 N284 2.194 . S
Co264 O289 2.351 . S
Co264 O290 2.155 . S
Co264 O291 2.096 . S
C265 N268 1.301 . S
C265 N269 1.328 . S
C265 H270 0.930 . S
C266 C267 1.333 . S
C266 N268 1.317 . S
C266 H271 0.930 . S
C267 C266 1.333 . S
C267 N269 1.350 . S
C267 H293 0.931 . S
N268 Co264 2.148 . S
N268 C265 1.301 . S
N268 C266 1.317 . S
N269 C265 1.328 . S
N269 C267 1.350 . S
H270 C265 0.930 . S
H271 C266 0.930 . S
C272 O273 1.224 . S
C272 O291 1.247 . S
O273 C272 1.224 . S
N274 Co264 2.128 . S
N274 C275 1.355 . S
N274 C277 1.311 . S
C275 N274 1.355 . S
C275 C276 1.363 . S
C275 H287 0.929 . S
C276 C275 1.363 . S
C276 N278 1.375 . S
C276 H294 0.931 . S
C277 N274 1.311 . S
C277 N278 1.347 . S
C277 H288 0.929 . S
N278 C276 1.375 . S
N278 C277 1.347 . S
C279 C282 1.365 . S
C279 N284 1.328 . S
C279 H285 0.929 . S
C280 C281 1.362 . S
C280 C283 1.378 . S
C280 H295 0.929 . S
C281 C280 1.362 . S
C281 C282 1.366 . S
C282 C279 1.365 . S
C282 C281 1.366 . S
C282 H296 0.930 . S
C283 C280 1.378 . S
C283 N284 1.315 . S
C283 H286 0.930 . S
N284 Co264 2.194 . S
N284 C279 1.328 . S
N284 C283 1.315 . S
H285 C279 0.929 . S
H286 C283 0.930 . S
H287 C275 0.929 . S
H288 C277 0.929 . S
O289 Co264 2.351 . S
O289 C292 1.244 . S
O290 Co264 2.155 . S
O290 C292 1.240 . S
O291 Co264 2.096 . S
O291 C272 1.247 . S
C292 O289 1.244 . S
C292 O290 1.240 . S
H293 C267 0.931 . S
H294 C276 0.931 . S
H295 C280 0.929 . S
H296 C282 0.930 . S
Co297 N301 2.148 . S
Co297 N307 2.128 . S
Co297 N317 2.194 . S
Co297 O322 2.351 . S
Co297 O323 2.155 . S
Co297 O324 2.096 . S
C298 N301 1.301 . S
C298 N302 1.328 . S
C298 H303 0.930 . S
C299 C300 1.333 . S
C299 N301 1.317 . S
C299 H304 0.930 . S
C300 C299 1.333 . S
C300 N302 1.350 . S
C300 H326 0.931 . S
N301 Co297 2.148 . S
N301 C298 1.301 . S
N301 C299 1.317 . S
N302 C298 1.328 . S
N302 C300 1.350 . S
H303 C298 0.930 . S
H304 C299 0.930 . S
C305 O306 1.224 . S
C305 O324 1.247 . S
O306 C305 1.224 . S
N307 Co297 2.128 . S
N307 C308 1.355 . S
N307 C310 1.311 . S
C308 N307 1.355 . S
C308 C309 1.363 . S
C308 H320 0.929 . S
C309 C308 1.363 . S
C309 N311 1.375 . S
C309 H327 0.931 . S
C310 N307 1.311 . S
C310 N311 1.347 . S
C310 H321 0.929 . S
N311 C309 1.375 . S
N311 C310 1.347 . S
C312 C315 1.365 . S
C312 N317 1.328 . S
C312 H318 0.929 . S
C313 C314 1.362 . S
C313 C316 1.378 . S
C313 H328 0.929 . S
C314 C313 1.362 . S
C314 C315 1.366 . S
C315 C312 1.365 . S
C315 C314 1.366 . S
C315 H329 0.930 . S
C316 C313 1.378 . S
C316 N317 1.315 . S
C316 H319 0.930 . S
N317 Co297 2.194 . S
N317 C312 1.328 . S
N317 C316 1.315 . S
H318 C312 0.929 . S
H319 C316 0.930 . S
H320 C308 0.929 . S
H321 C310 0.929 . S
O322 Co297 2.351 . S
O322 C325 1.244 . S
O323 Co297 2.155 . S
O323 C325 1.240 . S
O324 Co297 2.096 . S
O324 C305 1.247 . S
C325 O322 1.244 . S
C325 O323 1.240 . S
H326 C300 0.931 . S
H327 C309 0.931 . S
H328 C313 0.929 . S
H329 C315 0.930 . S
Co330 N334 2.148 . S
Co330 N340 2.128 . S
Co330 N350 2.194 . S
Co330 O355 2.351 . S
Co330 O356 2.155 . S
Co330 O357 2.096 . S
C331 N334 1.301 . S
C331 N335 1.328 . S
C331 H336 0.930 . S
C332 C333 1.333 . S
C332 N334 1.317 . S
C332 H337 0.930 . S
C333 C332 1.333 . S
C333 N335 1.350 . S
C333 H359 0.931 . S
N334 Co330 2.148 . S
N334 C331 1.301 . S
N334 C332 1.317 . S
N335 C331 1.328 . S
N335 C333 1.350 . S
H336 C331 0.930 . S
H337 C332 0.930 . S
C338 O339 1.224 . S
C338 O357 1.247 . S
O339 C338 1.224 . S
N340 Co330 2.128 . S
N340 C341 1.355 . S
N340 C343 1.311 . S
C341 N340 1.355 . S
C341 C342 1.363 . S
C341 H353 0.929 . S
C342 C341 1.363 . S
C342 N344 1.375 . S
C342 H360 0.931 . S
C343 N340 1.311 . S
C343 N344 1.347 . S
C343 H354 0.929 . S
N344 C342 1.375 . S
N344 C343 1.347 . S
C345 C348 1.365 . S
C345 N350 1.328 . S
C345 H351 0.929 . S
C346 C347 1.362 . S
C346 C349 1.378 . S
C346 H361 0.929 . S
C347 C346 1.362 . S
C347 C348 1.366 . S
C348 C345 1.365 . S
C348 C347 1.366 . S
C348 H362 0.930 . S
C349 C346 1.378 . S
C349 N350 1.315 . S
C349 H352 0.930 . S
N350 Co330 2.194 . S
N350 C345 1.328 . S
N350 C349 1.315 . S
H351 C345 0.929 . S
H352 C349 0.930 . S
H353 C341 0.929 . S
H354 C343 0.929 . S
O355 Co330 2.351 . S
O355 C358 1.244 . S
O356 Co330 2.155 . S
O356 C358 1.240 . S
O357 Co330 2.096 . S
O357 C338 1.247 . S
C358 O355 1.244 . S
C358 O356 1.240 . S
H359 C333 0.931 . S
H360 C342 0.931 . S
H361 C346 0.929 . S
H362 C348 0.930 . S
Co363 N367 2.148 . S
Co363 N373 2.128 . S
Co363 N383 2.194 . S
Co363 O388 2.351 . S
Co363 O389 2.155 . S
Co363 O390 2.096 . S
C364 N367 1.301 . S
C364 N368 1.328 . S
C364 H369 0.930 . S
C365 C366 1.333 . S
C365 N367 1.317 . S
C365 H370 0.930 . S
C366 C365 1.333 . S
C366 N368 1.350 . S
C366 H392 0.931 . S
N367 Co363 2.148 . S
N367 C364 1.301 . S
N367 C365 1.317 . S
N368 C364 1.328 . S
N368 C366 1.350 . S
H369 C364 0.930 . S
H370 C365 0.930 . S
C371 O372 1.224 . S
C371 O390 1.247 . S
O372 C371 1.224 . S
N373 Co363 2.128 . S
N373 C374 1.355 . S
N373 C376 1.311 . S
C374 N373 1.355 . S
C374 C375 1.363 . S
C374 H386 0.929 . S
C375 C374 1.363 . S
C375 N377 1.375 . S
C375 H393 0.931 . S
C376 N373 1.311 . S
C376 N377 1.347 . S
C376 H387 0.929 . S
N377 C375 1.375 . S
N377 C376 1.347 . S
C378 C381 1.365 . S
C378 N383 1.328 . S
C378 H384 0.929 . S
C379 C380 1.362 . S
C379 C382 1.378 . S
C379 H394 0.929 . S
C380 C379 1.362 . S
C380 C381 1.366 . S
C381 C378 1.365 . S
C381 C380 1.366 . S
C381 H395 0.930 . S
C382 C379 1.378 . S
C382 N383 1.315 . S
C382 H385 0.930 . S
N383 Co363 2.194 . S
N383 C378 1.328 . S
N383 C382 1.315 . S
H384 C378 0.929 . S
H385 C382 0.930 . S
H386 C374 0.929 . S
H387 C376 0.929 . S
O388 Co363 2.351 . S
O388 C391 1.244 . S
O389 Co363 2.155 . S
O389 C391 1.240 . S
O390 Co363 2.096 . S
O390 C371 1.247 . S
C391 O388 1.244 . S
C391 O389 1.240 . S
H392 C366 0.931 . S
H393 C375 0.931 . S
H394 C379 0.929 . S
H395 C381 0.930 . S
Co396 N400 2.148 . S
Co396 N406 2.128 . S
Co396 N416 2.194 . S
Co396 O421 2.351 . S
Co396 O422 2.155 . S
Co396 O423 2.096 . S
C397 N400 1.301 . S
C397 N401 1.328 . S
C397 H402 0.930 . S
C398 C399 1.333 . S
C398 N400 1.317 . S
C398 H403 0.930 . S
C399 C398 1.333 . S
C399 N401 1.350 . S
C399 H425 0.931 . S
N400 Co396 2.148 . S
N400 C397 1.301 . S
N400 C398 1.317 . S
N401 C397 1.328 . S
N401 C399 1.350 . S
H402 C397 0.930 . S
H403 C398 0.930 . S
C404 O405 1.224 . S
C404 O423 1.247 . S
O405 C404 1.224 . S
N406 Co396 2.128 . S
N406 C407 1.355 . S
N406 C409 1.311 . S
C407 N406 1.355 . S
C407 C408 1.363 . S
C407 H419 0.929 . S
C408 C407 1.363 . S
C408 N410 1.375 . S
C408 H426 0.931 . S
C409 N406 1.311 . S
C409 N410 1.347 . S
C409 H420 0.929 . S
N410 C408 1.375 . S
N410 C409 1.347 . S
C411 C414 1.365 . S
C411 N416 1.328 . S
C411 H417 0.929 . S
C412 C413 1.362 . S
C412 C415 1.378 . S
C412 H427 0.929 . S
C413 C412 1.362 . S
C413 C414 1.366 . S
C414 C411 1.365 . S
C414 C413 1.366 . S
C414 H428 0.930 . S
C415 C412 1.378 . S
C415 N416 1.315 . S
C415 H418 0.930 . S
N416 Co396 2.194 . S
N416 C411 1.328 . S
N416 C415 1.315 . S
H417 C411 0.929 . S
H418 C415 0.930 . S
H419 C407 0.929 . S
H420 C409 0.929 . S
O421 Co396 2.351 . S
O421 C424 1.244 . S
O422 Co396 2.155 . S
O422 C424 1.240 . S
O423 Co396 2.096 . S
O423 C404 1.247 . S
C424 O421 1.244 . S
C424 O422 1.240 . S
H425 C399 0.931 . S
H426 C408 0.931 . S
H427 C412 0.929 . S
H428 C414 0.930 . S
Co429 N433 2.148 . S
Co429 N439 2.128 . S
Co429 N449 2.194 . S
Co429 O454 2.351 . S
Co429 O455 2.155 . S
Co429 O456 2.096 . S
C430 N433 1.301 . S
C430 N434 1.328 . S
C430 H435 0.930 . S
C431 C432 1.333 . S
C431 N433 1.317 . S
C431 H436 0.930 . S
C432 C431 1.333 . S
C432 N434 1.350 . S
C432 H458 0.931 . S
N433 Co429 2.148 . S
N433 C430 1.301 . S
N433 C431 1.317 . S
N434 C430 1.328 . S
N434 C432 1.350 . S
H435 C430 0.930 . S
H436 C431 0.930 . S
C437 O438 1.224 . S
C437 O456 1.247 . S
O438 C437 1.224 . S
N439 Co429 2.128 . S
N439 C440 1.355 . S
N439 C442 1.311 . S
C440 N439 1.355 . S
C440 C441 1.363 . S
C440 H452 0.929 . S
C441 C440 1.363 . S
C441 N443 1.375 . S
C441 H459 0.931 . S
C442 N439 1.311 . S
C442 N443 1.347 . S
C442 H453 0.929 . S
N443 C441 1.375 . S
N443 C442 1.347 . S
C444 C447 1.365 . S
C444 N449 1.328 . S
C444 H450 0.929 . S
C445 C446 1.362 . S
C445 C448 1.378 . S
C445 H460 0.929 . S
C446 C445 1.362 . S
C446 C447 1.366 . S
C447 C444 1.365 . S
C447 C446 1.366 . S
C447 H461 0.930 . S
C448 C445 1.378 . S
C448 N449 1.315 . S
C448 H451 0.930 . S
N449 Co429 2.194 . S
N449 C444 1.328 . S
N449 C448 1.315 . S
H450 C444 0.929 . S
H451 C448 0.930 . S
H452 C440 0.929 . S
H453 C442 0.929 . S
O454 Co429 2.351 . S
O454 C457 1.244 . S
O455 Co429 2.155 . S
O455 C457 1.240 . S
O456 Co429 2.096 . S
O456 C437 1.247 . S
C457 O454 1.244 . S
C457 O455 1.240 . S
H458 C432 0.931 . S
H459 C441 0.931 . S
H460 C445 0.929 . S
H461 C447 0.930 . S
Co462 N466 2.148 . S
Co462 N472 2.128 . S
Co462 N482 2.194 . S
Co462 O487 2.351 . S
Co462 O488 2.155 . S
Co462 O489 2.096 . S
C463 N466 1.301 . S
C463 N467 1.328 . S
C463 H468 0.930 . S
C464 C465 1.333 . S
C464 N466 1.317 . S
C464 H469 0.930 . S
C465 C464 1.333 . S
C465 N467 1.350 . S
C465 H491 0.931 . S
N466 Co462 2.148 . S
N466 C463 1.301 . S
N466 C464 1.317 . S
N467 C463 1.328 . S
N467 C465 1.350 . S
H468 C463 0.930 . S
H469 C464 0.930 . S
C470 O471 1.224 . S
C470 O489 1.247 . S
O471 C470 1.224 . S
N472 Co462 2.128 . S
N472 C473 1.355 . S
N472 C475 1.311 . S
C473 N472 1.355 . S
C473 C474 1.363 . S
C473 H485 0.929 . S
C474 C473 1.363 . S
C474 N476 1.375 . S
C474 H492 0.931 . S
C475 N472 1.311 . S
C475 N476 1.347 . S
C475 H486 0.929 . S
N476 C474 1.375 . S
N476 C475 1.347 . S
C477 C480 1.365 . S
C477 N482 1.328 . S
C477 H483 0.929 . S
C478 C479 1.362 . S
C478 C481 1.378 . S
C478 H493 0.929 . S
C479 C478 1.362 . S
C479 C480 1.366 . S
C480 C477 1.365 . S
C480 C479 1.366 . S
C480 H494 0.930 . S
C481 C478 1.378 . S
C481 N482 1.315 . S
C481 H484 0.930 . S
N482 Co462 2.194 . S
N482 C477 1.328 . S
N482 C481 1.315 . S
H483 C477 0.929 . S
H484 C481 0.930 . S
H485 C473 0.929 . S
H486 C475 0.929 . S
O487 Co462 2.351 . S
O487 C490 1.244 . S
O488 Co462 2.155 . S
O488 C490 1.240 . S
O489 Co462 2.096 . S
O489 C470 1.247 . S
C490 O487 1.244 . S
C490 O488 1.240 . S
H491 C465 0.931 . S
H492 C474 0.931 . S
H493 C478 0.929 . S
H494 C480 0.930 . S
Co495 N499 2.148 . S
Co495 N505 2.128 . S
Co495 N515 2.194 . S
Co495 O520 2.351 . S
Co495 O521 2.155 . S
Co495 O522 2.096 . S
C496 N499 1.301 . S
C496 N500 1.328 . S
C496 H501 0.930 . S
C497 C498 1.333 . S
C497 N499 1.317 . S
C497 H502 0.930 . S
C498 C497 1.333 . S
C498 N500 1.350 . S
C498 H524 0.931 . S
N499 Co495 2.148 . S
N499 C496 1.301 . S
N499 C497 1.317 . S
N500 C496 1.328 . S
N500 C498 1.350 . S
H501 C496 0.930 . S
H502 C497 0.930 . S
C503 O504 1.224 . S
C503 O522 1.247 . S
O504 C503 1.224 . S
N505 Co495 2.128 . S
N505 C506 1.355 . S
N505 C508 1.311 . S
C506 N505 1.355 . S
C506 C507 1.363 . S
C506 H518 0.929 . S
C507 C506 1.363 . S
C507 N509 1.375 . S
C507 H525 0.931 . S
C508 N505 1.311 . S
C508 N509 1.347 . S
C508 H519 0.929 . S
N509 C507 1.375 . S
N509 C508 1.347 . S
C510 C513 1.365 . S
C510 N515 1.328 . S
C510 H516 0.929 . S
C511 C512 1.362 . S
C511 C514 1.378 . S
C511 H526 0.929 . S
C512 C511 1.362 . S
C512 C513 1.366 . S
C513 C510 1.365 . S
C513 C512 1.366 . S
C513 H527 0.930 . S
C514 C511 1.378 . S
C514 N515 1.315 . S
C514 H517 0.930 . S
N515 Co495 2.194 . S
N515 C510 1.328 . S
N515 C514 1.315 . S
H516 C510 0.929 . S
H517 C514 0.930 . S
H518 C506 0.929 . S
H519 C508 0.929 . S
O520 Co495 2.351 . S
O520 C523 1.244 . S
O521 Co495 2.155 . S
O521 C523 1.240 . S
O522 Co495 2.096 . S
O522 C503 1.247 . S
C523 O520 1.244 . S
C523 O521 1.240 . S
H524 C498 0.931 . S
H525 C507 0.931 . S
H526 C511 0.929 . S
H527 C513 0.930 . S
H528 C534 0.930 . S
H529 C537 0.930 . S
H530 C538 0.924 1_465 S
H531 C539 0.930 . S
H532 C542 0.930 . S
H533 C543 0.924 1_655 S
C534 H528 0.930 . S
C534 C535 1.355 . S
C534 C536 1.415 . S
C535 C534 1.355 . S
C535 C537 1.419 . S
C536 C534 1.415 . S
C536 C541 1.425 1_655 S
C536 C543 1.406 1_655 S
C537 H529 0.930 . S
C537 C535 1.419 . S
C537 C538 1.373 . S
C538 H530 0.924 1_645 S
C538 C537 1.373 . S
C538 C541 1.406 1_655 S
C539 H531 0.930 . S
C539 C540 1.355 . S
C539 C541 1.415 . S
C540 C539 1.355 . S
C540 C542 1.419 . S
C541 C536 1.425 1_455 S
C541 C538 1.406 1_455 S
C541 C539 1.415 . S
C542 H532 0.930 . S
C542 C540 1.419 . S
C542 C543 1.373 . S
C543 H533 0.924 1_455 S
C543 C536 1.406 1_455 S
C543 C542 1.373 . S
H544 C550 0.930 . S
H545 C553 0.930 . S
H546 C554 0.930 . S
H547 C555 0.930 . S
H548 C558 0.930 . S
H549 C559 0.930 . S
C550 H544 0.930 . S
C550 C551 1.355 . S
C550 C552 1.415 . S
C551 C550 1.355 . S
C551 C553 1.419 . S
C552 C550 1.415 . S
C552 C557 1.425 . S
C552 C559 1.409 . S
C553 H545 0.930 . S
C553 C551 1.419 . S
C553 C554 1.362 . S
C554 H546 0.930 . S
C554 C553 1.362 . S
C554 C557 1.409 . S
C555 H547 0.930 . S
C555 C556 1.355 . S
C555 C557 1.415 . S
C556 C555 1.355 . S
C556 C558 1.419 . S
C557 C552 1.425 . S
C557 C554 1.409 . S
C557 C555 1.415 . S
C558 H548 0.930 . S
C558 C556 1.419 . S
C558 C559 1.362 . S
C559 H549 0.930 . S
C559 C552 1.409 . S
C559 C558 1.362 . S
H560 C566 0.930 . S
H561 C569 0.930 . S
H562 C570 0.930 . S
H563 C571 0.930 . S
H564 C574 0.930 . S
H565 C575 0.930 . S
C566 H560 0.930 . S
C566 C567 1.355 . S
C566 C568 1.415 1_655 S
C567 C566 1.355 . S
C567 C569 1.419 . S
C568 C566 1.415 1_455 S
C568 C573 1.425 1_455 S
C568 C575 1.409 . S
C569 H561 0.930 . S
C569 C567 1.419 . S
C569 C570 1.362 . S
C570 H562 0.930 . S
C570 C569 1.362 . S
C570 C573 1.409 . S
C571 H563 0.930 . S
C571 C572 1.355 . S
C571 C573 1.415 1_455 S
C572 C571 1.355 . S
C572 C574 1.419 . S
C573 C568 1.425 1_655 S
C573 C570 1.409 . S
C573 C571 1.415 1_655 S
C574 H564 0.930 . S
C574 C572 1.419 . S
C574 C575 1.362 . S
C575 H565 0.930 . S
C575 C568 1.409 . S
C575 C574 1.362 . S
H576 C582 0.930 . S
H577 C585 0.930 . S
H578 C586 0.930 . S
H579 C587 0.930 . S
H580 C590 0.930 . S
H581 C591 0.930 . S
C582 H576 0.930 . S
C582 C583 1.355 . S
C582 C584 1.415 . S
C583 C582 1.355 . S
C583 C585 1.419 . S
C584 C582 1.415 . S
C584 C589 1.425 . S
C584 C591 1.409 . S
C585 H577 0.930 . S
C585 C583 1.419 . S
C585 C586 1.362 . S
C586 H578 0.930 . S
C586 C585 1.362 . S
C586 C589 1.409 . S
C587 H579 0.930 . S
C587 C588 1.355 . S
C587 C589 1.415 . S
C588 C587 1.355 . S
C588 C590 1.419 . S
C589 C584 1.425 . S
C589 C586 1.409 . S
C589 C587 1.415 . S
C590 H580 0.930 . S
C590 C588 1.419 . S
C590 C591 1.362 . S
C591 H581 0.930 . S
C591 C584 1.409 . S
C591 C590 1.362 . S
H592 C598 0.930 . S
H593 C601 0.930 . S
H594 C602 0.930 . S
H595 C603 0.930 . S
H596 C606 0.930 . S
H597 C607 0.930 . S
C598 H592 0.930 . S
C598 C599 1.355 . S
C598 C600 1.415 . S
C599 C598 1.355 . S
C599 C601 1.419 . S
C600 C598 1.415 . S
C600 C605 1.425 . S
C600 C607 1.409 . S
C601 H593 0.930 . S
C601 C599 1.419 . S
C601 C602 1.362 . S
C602 H594 0.930 . S
C602 C601 1.362 . S
C602 C605 1.409 . S
C603 H595 0.930 . S
C603 C604 1.355 . S
C603 C605 1.415 . S
C604 C603 1.355 . S
C604 C606 1.419 . S
C605 C600 1.425 . S
C605 C602 1.409 . S
C605 C603 1.415 . S
C606 H596 0.930 . S
C606 C604 1.419 . S
C606 C607 1.362 . S
C607 H597 0.930 . S
C607 C600 1.409 . S
C607 C606 1.362 . S
H608 C614 0.930 . S
H609 C617 0.930 . S
H610 C618 0.930 . S
H611 C619 0.930 . S
H612 C622 0.930 . S
H613 C623 0.930 . S
C614 H608 0.930 . S
C614 C615 1.355 . S
C614 C616 1.415 . S
C615 C614 1.355 . S
C615 C617 1.419 . S
C616 C614 1.415 . S
C616 C621 1.425 1_655 S
C616 C623 1.409 1_655 S
C617 H609 0.930 . S
C617 C615 1.419 . S
C617 C618 1.362 . S
C618 H610 0.930 . S
C618 C617 1.362 . S
C618 C621 1.409 1_655 S
C619 H611 0.930 . S
C619 C620 1.355 . S
C619 C621 1.415 . S
C620 C619 1.355 . S
C620 C622 1.419 . S
C621 C616 1.425 1_455 S
C621 C618 1.409 1_455 S
C621 C619 1.415 . S
C622 H612 0.930 . S
C622 C620 1.419 . S
C622 C623 1.362 . S
C623 H613 0.930 . S
C623 C616 1.409 1_455 S
C623 C622 1.362 . S
H624 C630 0.930 . S
H625 C633 0.930 . S
H626 C634 0.930 . S
H627 C635 0.930 . S
H628 C638 0.930 . S
H629 C639 0.930 . S
C630 H624 0.930 . S
C630 C631 1.355 . S
C630 C632 1.415 . S
C631 C630 1.355 . S
C631 C633 1.419 . S
C632 C630 1.415 . S
C632 C637 1.425 . S
C632 C639 1.409 . S
C633 H625 0.930 . S
C633 C631 1.419 . S
C633 C634 1.362 . S
C634 H626 0.930 . S
C634 C633 1.362 . S
C634 C637 1.409 . S
C635 H627 0.930 . S
C635 C636 1.355 . S
C635 C637 1.415 . S
C636 C635 1.355 . S
C636 C638 1.419 . S
C637 C632 1.425 . S
C637 C634 1.409 . S
C637 C635 1.415 . S
C638 H628 0.930 . S
C638 C636 1.419 . S
C638 C639 1.362 . S
C639 H629 0.930 . S
C639 C632 1.409 . S
C639 C638 1.362 . S
H640 C646 0.930 . S
H641 C649 0.930 . S
H642 C650 0.930 . S
H643 C651 0.930 . S
H644 C654 0.930 . S
H645 C655 0.930 . S
C646 H640 0.930 . S
C646 C647 1.355 . S
C646 C648 1.415 . S
C647 C646 1.355 . S
C647 C649 1.419 1_655 S
C648 C646 1.415 . S
C648 C653 1.425 1_655 S
C648 C655 1.409 . S
C649 H641 0.930 . S
C649 C647 1.419 1_455 S
C649 C650 1.362 . S
C650 H642 0.930 . S
C650 C649 1.362 . S
C650 C653 1.409 . S
C651 H643 0.930 . S
C651 C652 1.355 . S
C651 C653 1.415 . S
C652 C651 1.355 . S
C652 C654 1.419 1_455 S
C653 C648 1.425 1_455 S
C653 C650 1.409 . S
C653 C651 1.415 . S
C654 H644 0.930 . S
C654 C652 1.419 1_655 S
C654 C655 1.362 . S
C655 H645 0.930 . S
C655 C648 1.409 . S
C655 C654 1.362 . S
H656 C662 0.930 . S
H657 C665 0.930 . S
H658 C666 0.930 . S
H659 C667 0.930 . S
H660 C670 0.930 . S
H661 C671 0.930 . S
C662 H656 0.930 . S
C662 C663 1.355 . S
C662 C664 1.415 . S
C663 C662 1.355 . S
C663 C665 1.419 . S
C664 C662 1.415 . S
C664 C669 1.425 . S
C664 C671 1.409 . S
C665 H657 0.930 . S
C665 C663 1.419 . S
C665 C666 1.362 . S
C666 H658 0.930 . S
C666 C665 1.362 . S
C666 C669 1.409 . S
C667 H659 0.930 . S
C667 C668 1.355 . S
C667 C669 1.415 . S
C668 C667 1.355 . S
C668 C670 1.419 . S
C669 C664 1.425 . S
C669 C666 1.409 . S
C669 C667 1.415 . S
C670 H660 0.930 . S
C670 C668 1.419 . S
C670 C671 1.362 . S
C671 H661 0.930 . S
C671 C664 1.409 . S
C671 C670 1.362 . S
H672 C678 0.930 . S
H673 C681 0.930 . S
H674 C682 0.930 . S
H675 C683 0.930 . S
H676 C686 0.930 . S
H677 C687 0.930 . S
C678 H672 0.930 . S
C678 C679 1.355 . S
C678 C680 1.415 . S
C679 C678 1.355 . S
C679 C681 1.419 . S
C680 C678 1.415 . S
C680 C685 1.425 . S
C680 C687 1.409 . S
C681 H673 0.930 . S
C681 C679 1.419 . S
C681 C682 1.362 . S
C682 H674 0.930 . S
C682 C681 1.362 . S
C682 C685 1.409 . S
C683 H675 0.930 . S
C683 C684 1.355 . S
C683 C685 1.415 . S
C684 C683 1.355 . S
C684 C686 1.419 . S
C685 C680 1.425 . S
C685 C682 1.409 . S
C685 C683 1.415 . S
C686 H676 0.930 . S
C686 C684 1.419 . S
C686 C687 1.362 . S
C687 H677 0.930 . S
C687 C680 1.409 . S
C687 C686 1.362 . S
H688 C694 0.930 . S
H689 C697 0.930 . S
H690 C698 0.930 . S
H691 C699 0.930 . S
H692 C702 0.930 . S
H693 C703 0.930 . S
C694 H688 0.930 . S
C694 C695 1.355 . S
C694 C696 1.415 . S
C695 C694 1.355 . S
C695 C697 1.419 . S
C696 C694 1.415 . S
C696 C701 1.425 . S
C696 C703 1.409 . S
C697 H689 0.930 . S
C697 C695 1.419 . S
C697 C698 1.362 . S
C698 H690 0.930 . S
C698 C697 1.362 . S
C698 C701 1.409 . S
C699 H691 0.930 . S
C699 C700 1.355 . S
C699 C701 1.415 . S
C700 C699 1.355 . S
C700 C702 1.419 . S
C701 C696 1.425 . S
C701 C698 1.409 . S
C701 C699 1.415 . S
C702 H692 0.930 . S
C702 C700 1.419 . S
C702 C703 1.362 . S
C703 H693 0.930 . S
C703 C696 1.409 . S
C703 C702 1.362 . S
H704 C710 0.930 . S
H705 C713 0.930 . S
H706 C714 0.930 . S
H707 C715 0.930 . S
H708 C718 0.930 . S
H709 C719 0.930 . S
C710 H704 0.930 . S
C710 C711 1.355 . S
C710 C712 1.415 . S
C711 C710 1.355 . S
C711 C713 1.419 . S
C712 C710 1.415 . S
C712 C717 1.425 . S
C712 C719 1.409 . S
C713 H705 0.930 . S
C713 C711 1.419 . S
C713 C714 1.362 . S
C714 H706 0.930 . S
C714 C713 1.362 . S
C714 C717 1.409 . S
C715 H707 0.930 . S
C715 C716 1.355 . S
C715 C717 1.415 . S
C716 C715 1.355 . S
C716 C718 1.419 . S
C717 C712 1.425 . S
C717 C714 1.409 . S
C717 C715 1.415 . S
C718 H708 0.930 . S
C718 C716 1.419 . S
C718 C719 1.362 . S
C719 H709 0.930 . S
C719 C712 1.409 . S
C719 C718 1.362 . S
H720 C726 0.930 . S
H721 C729 0.930 . S
H722 C730 0.930 . S
H723 C731 0.930 . S
H724 C734 0.930 . S
H725 C735 0.930 . S
C726 H720 0.930 . S
C726 C727 1.355 . S
C726 C728 1.415 . S
C727 C726 1.355 . S
C727 C729 1.419 . S
C728 C726 1.415 . S
C728 C733 1.425 . S
C728 C735 1.409 . S
C729 H721 0.930 . S
C729 C727 1.419 . S
C729 C730 1.362 . S
C730 H722 0.930 . S
C730 C729 1.362 . S
C730 C733 1.409 . S
C731 H723 0.930 . S
C731 C732 1.355 . S
C731 C733 1.415 . S
C732 C731 1.355 . S
C732 C734 1.419 . S
C733 C728 1.425 . S
C733 C730 1.409 . S
C733 C731 1.415 . S
C734 H724 0.930 . S
C734 C732 1.419 . S
C734 C735 1.362 . S
C735 H725 0.930 . S
C735 C728 1.409 . S
C735 C734 1.362 . S
H736 C742 0.930 . S
H737 C745 0.930 . S
H738 C746 0.930 . S
H739 C747 0.930 . S
H740 C750 0.930 . S
H741 C751 0.930 . S
C742 H736 0.930 . S
C742 C743 1.355 . S
C742 C744 1.415 . S
C743 C742 1.355 . S
C743 C745 1.419 . S
C744 C742 1.415 . S
C744 C749 1.425 . S
C744 C751 1.409 . S
C745 H737 0.930 . S
C745 C743 1.419 . S
C745 C746 1.362 . S
C746 H738 0.930 . S
C746 C745 1.362 . S
C746 C749 1.409 . S
C747 H739 0.930 . S
C747 C748 1.355 . S
C747 C749 1.415 . S
C748 C747 1.355 . S
C748 C750 1.419 . S
C749 C744 1.425 . S
C749 C746 1.409 . S
C749 C747 1.415 . S
C750 H740 0.930 . S
C750 C748 1.419 . S
C750 C751 1.362 . S
C751 H741 0.930 . S
C751 C744 1.409 . S
C751 C750 1.362 . S
H752 C758 0.930 . S
H753 C761 0.930 . S
H754 C762 0.930 . S
H755 C763 0.930 . S
H756 C766 0.930 . S
H757 C767 0.930 . S
C758 H752 0.930 . S
C758 C759 1.355 . S
C758 C760 1.415 . S
C759 C758 1.355 . S
C759 C761 1.419 . S
C760 C758 1.415 . S
C760 C765 1.425 . S
C760 C767 1.409 . S
C761 H753 0.930 . S
C761 C759 1.419 . S
C761 C762 1.362 . S
C762 H754 0.930 . S
C762 C761 1.362 . S
C762 C765 1.409 . S
C763 H755 0.930 . S
C763 C764 1.355 . S
C763 C765 1.415 . S
C764 C763 1.355 . S
C764 C766 1.419 . S
C765 C760 1.425 . S
C765 C762 1.409 . S
C765 C763 1.415 . S
C766 H756 0.930 . S
C766 C764 1.419 . S
C766 C767 1.362 . S
C767 H757 0.930 . S
C767 C760 1.409 . S
C767 C766 1.362 . S
H768 C774 0.930 . S
H769 C777 0.930 . S
H770 C778 0.930 . S
H771 C779 0.930 . S
H772 C782 0.930 . S
H773 C783 0.930 . S
C774 H768 0.930 . S
C774 C775 1.355 . S
C774 C776 1.415 . S
C775 C774 1.355 . S
C775 C777 1.419 . S
C776 C774 1.415 . S
C776 C781 1.425 . S
C776 C783 1.409 . S
C777 H769 0.930 . S
C777 C775 1.419 . S
C777 C778 1.362 . S
C778 H770 0.930 . S
C778 C777 1.362 . S
C778 C781 1.409 . S
C779 H771 0.930 . S
C779 C780 1.355 . S
C779 C781 1.415 . S
C780 C779 1.355 . S
C780 C782 1.419 . S
C781 C776 1.425 . S
C781 C778 1.409 . S
C781 C779 1.415 . S
C782 H772 0.930 . S
C782 C780 1.419 . S
C782 C783 1.362 . S
C783 H773 0.930 . S
C783 C776 1.409 . S
C783 C782 1.362 . S
H784 C790 0.930 1_565 S
H785 C793 0.930 . S
H786 C794 0.930 . S
H787 C795 0.930 1_545 S
H788 C798 0.930 . S
H789 C799 0.930 . S
C790 H784 0.930 1_545 S
C790 C791 1.355 . S
C790 C792 1.415 1_545 S
C791 C790 1.355 . S
C791 C793 1.419 1_455 S
C792 C790 1.415 1_565 S
C792 C797 1.425 1_465 S
C792 C799 1.409 . S
C793 H785 0.930 . S
C793 C791 1.419 1_655 S
C793 C794 1.362 . S
C794 H786 0.930 . S
C794 C793 1.362 . S
C794 C797 1.409 . S
C795 H787 0.930 1_565 S
C795 C796 1.355 . S
C795 C797 1.415 1_565 S
C796 C795 1.355 . S
C796 C798 1.419 1_655 S
C797 C792 1.425 1_645 S
C797 C794 1.409 . S
C797 C795 1.415 1_545 S
C798 H788 0.930 . S
C798 C796 1.419 1_455 S
C798 C799 1.362 . S
C799 H789 0.930 . S
C799 C792 1.409 . S
C799 C798 1.362 . S
H800 C806 0.930 1_545 S
H801 C809 0.930 . S
H802 C810 0.930 . S
H803 C811 0.930 1_565 S
H804 C814 0.930 . S
H805 C815 0.930 . S
C806 H800 0.930 1_565 S
C806 C807 1.355 . S
C806 C808 1.415 1_565 S
C807 C806 1.355 . S
C807 C809 1.419 . S
C808 C806 1.415 1_545 S
C808 C813 1.425 1_545 S
C808 C815 1.409 . S
C809 H801 0.930 . S
C809 C807 1.419 . S
C809 C810 1.362 . S
C810 H802 0.930 . S
C810 C809 1.362 . S
C810 C813 1.409 . S
C811 H803 0.930 1_545 S
C811 C812 1.355 . S
C811 C813 1.415 1_545 S
C812 C811 1.355 . S
C812 C814 1.419 . S
C813 C808 1.425 1_565 S
C813 C810 1.409 . S
C813 C811 1.415 1_565 S
C814 H804 0.930 . S
C814 C812 1.419 . S
C814 C815 1.362 . S
C815 H805 0.930 . S
C815 C808 1.409 . S
C815 C814 1.362 . S
H816 C822 0.930 . S
H817 C825 0.930 . S
H818 C826 0.930 . S
H819 C827 0.930 . S
H820 C830 0.930 . S
H821 C831 0.930 . S
C822 H816 0.930 . S
C822 C823 1.355 . S
C822 C824 1.415 1_556 S
C823 C822 1.355 . S
C823 C825 1.419 1_545 S
C824 C822 1.415 1_554 S
C824 C829 1.425 1_544 S
C824 C831 1.409 . S
C825 H817 0.930 . S
C825 C823 1.419 1_565 S
C825 C826 1.362 . S
C826 H818 0.930 . S
C826 C825 1.362 . S
C826 C829 1.409 . S
C827 H819 0.930 . S
C827 C828 1.355 . S
C827 C829 1.415 1_554 S
C828 C827 1.355 . S
C828 C830 1.419 1_565 S
C829 C824 1.425 1_566 S
C829 C826 1.409 . S
C829 C827 1.415 1_556 S
C830 H820 0.930 . S
C830 C828 1.419 1_545 S
C830 C831 1.362 . S
C831 H821 0.930 . S
C831 C824 1.409 . S
C831 C830 1.362 . S
H832 C838 0.930 1_455 S
H833 C841 0.930 . S
H834 C842 0.930 . S
H835 C843 0.930 1_655 S
H836 C846 0.930 . S
H837 C847 0.930 . S
C838 H832 0.930 1_655 S
C838 C839 1.355 . S
C838 C840 1.415 1_655 S
C839 C838 1.355 . S
C839 C841 1.419 1_545 S
C840 C838 1.415 1_455 S
C840 C845 1.425 1_444 S
C840 C847 1.409 1_554 S
C841 H833 0.930 . S
C841 C839 1.419 1_565 S
C841 C842 1.362 . S
C842 H834 0.930 . S
C842 C841 1.362 . S
C842 C845 1.409 1_554 S
C843 H835 0.930 1_455 S
C843 C844 1.355 . S
C843 C845 1.415 1_455 S
C844 C843 1.355 . S
C844 C846 1.419 1_565 S
C845 C840 1.425 1_666 S
C845 C842 1.409 1_556 S
C845 C843 1.415 1_655 S
C846 H836 0.930 . S
C846 C844 1.419 1_545 S
C846 C847 1.362 . S
C847 H837 0.930 . S
C847 C840 1.409 1_556 S
C847 C846 1.362 . S
H848 C854 0.930 . S
H849 C857 0.930 . S
H850 C858 0.930 . S
H851 C859 0.930 . S
H852 C862 0.930 . S
H853 C863 0.930 . S
C854 H848 0.930 . S
C854 C855 1.355 . S
C854 C856 1.415 . S
C855 C854 1.355 . S
C855 C857 1.419 . S
C856 C854 1.415 . S
C856 C861 1.425 . S
C856 C863 1.409 . S
C857 H849 0.930 . S
C857 C855 1.419 . S
C857 C858 1.362 . S
C858 H850 0.930 . S
C858 C857 1.362 . S
C858 C861 1.409 . S
C859 H851 0.930 . S
C859 C860 1.355 . S
C859 C861 1.415 . S
C860 C859 1.355 . S
C860 C862 1.419 . S
C861 C856 1.425 . S
C861 C858 1.409 . S
C861 C859 1.415 . S
C862 H852 0.930 . S
C862 C860 1.419 . S
C862 C863 1.362 . S
C863 H853 0.930 . S
C863 C856 1.409 . S
C863 C862 1.362 . S
H864 C870 0.931 1_655 S
H865 C873 0.930 . S
H866 C874 0.930 . S
H867 C875 0.931 1_455 S
H868 C878 0.930 . S
H869 C879 0.930 . S
C870 H864 0.931 1_455 S
C870 C871 1.353 . S
C870 C872 1.415 1_455 S
C871 C870 1.353 . S
C871 C873 1.419 . S
C872 C870 1.415 1_655 S
C872 C877 1.425 1_655 S
C872 C879 1.409 . S
C873 H865 0.930 . S
C873 C871 1.419 . S
C873 C874 1.362 . S
C874 H866 0.930 . S
C874 C873 1.362 . S
C874 C877 1.409 . S
C875 H867 0.931 1_655 S
C875 C876 1.353 . S
C875 C877 1.415 1_655 S
C876 C875 1.353 . S
C876 C878 1.419 . S
C877 C872 1.425 1_455 S
C877 C874 1.409 . S
C877 C875 1.415 1_455 S
C878 H868 0.930 . S
C878 C876 1.419 . S
C878 C879 1.362 . S
C879 H869 0.930 . S
C879 C872 1.409 . S
C879 C878 1.362 . S
H880 C886 0.930 . S
H881 C889 0.930 . S
H882 C890 0.930 . S
H883 C891 0.930 . S
H884 C894 0.930 . S
H885 C895 0.930 . S
C886 H880 0.930 . S
C886 C887 1.355 . S
C886 C888 1.415 . S
C887 C886 1.355 . S
C887 C889 1.419 1_455 S
C888 C886 1.415 . S
C888 C893 1.425 1_454 S
C888 C895 1.409 1_554 S
C889 H881 0.930 . S
C889 C887 1.419 1_655 S
C889 C890 1.362 . S
C890 H882 0.930 . S
C890 C889 1.362 . S
C890 C893 1.409 1_554 S
C891 H883 0.930 . S
C891 C892 1.355 . S
C891 C893 1.415 . S
C892 C891 1.355 . S
C892 C894 1.419 1_655 S
C893 C888 1.425 1_656 S
C893 C890 1.409 1_556 S
C893 C891 1.415 . S
C894 H884 0.930 . S
C894 C892 1.419 1_455 S
C894 C895 1.362 . S
C895 H885 0.930 . S
C895 C888 1.409 1_556 S
C895 C894 1.362 . S
H896 C902 0.930 . S
H897 C905 0.930 . S
H898 C906 0.930 . S
H899 C907 0.930 . S
H900 C910 0.930 . S
H901 C911 0.930 . S
C902 H896 0.930 . S
C902 C903 1.355 . S
C902 C904 1.408 1_556 S
C903 C902 1.355 . S
C903 C905 1.419 . S
C904 C902 1.408 1_554 S
C904 C909 1.425 1_554 S
C904 C911 1.416 . S
C905 H897 0.930 . S
C905 C903 1.419 . S
C905 C906 1.362 . S
C906 H898 0.930 . S
C906 C905 1.362 . S
C906 C909 1.416 . S
C907 H899 0.930 . S
C907 C908 1.355 . S
C907 C909 1.408 1_554 S
C908 C907 1.355 . S
C908 C910 1.419 . S
C909 C904 1.425 1_556 S
C909 C906 1.416 . S
C909 C907 1.408 1_556 S
C910 H900 0.930 . S
C910 C908 1.419 . S
C910 C911 1.362 . S
C911 H901 0.930 . S
C911 C904 1.416 . S
C911 C910 1.362 . S
H912 C918 0.930 . S
H913 C921 0.930 . S
H914 C922 0.930 . S
H915 C923 0.930 . S
H916 C926 0.930 . S
H917 C927 0.930 . S
C918 H912 0.930 . S
C918 C919 1.355 . S
C918 C920 1.415 . S
C919 C918 1.355 . S
C919 C921 1.419 . S
C920 C918 1.415 . S
C920 C925 1.425 1_545 S
C920 C927 1.409 . S
C921 H913 0.930 . S
C921 C919 1.419 . S
C921 C922 1.362 1_545 S
C922 H914 0.930 . S
C922 C921 1.362 1_565 S
C922 C925 1.409 . S
C923 H915 0.930 . S
C923 C924 1.355 . S
C923 C925 1.415 . S
C924 C923 1.355 . S
C924 C926 1.419 . S
C925 C920 1.425 1_565 S
C925 C922 1.409 . S
C925 C923 1.415 . S
C926 H916 0.930 . S
C926 C924 1.419 . S
C926 C927 1.362 1_565 S
C927 H917 0.930 . S
C927 C920 1.409 . S
C927 C926 1.362 1_545 S
H928 C934 0.930 . S
H929 C937 0.930 . S
H930 C938 0.930 . S
H931 C939 0.930 . S
H932 C942 0.930 . S
H933 C943 0.930 . S
C934 H928 0.930 . S
C934 C935 1.355 . S
C934 C936 1.415 . S
C935 C934 1.355 . S
C935 C937 1.419 . S
C936 C934 1.415 . S
C936 C941 1.425 1_545 S
C936 C943 1.409 . S
C937 H929 0.930 . S
C937 C935 1.419 . S
C937 C938 1.362 1_545 S
C938 H930 0.930 . S
C938 C937 1.362 1_565 S
C938 C941 1.409 . S
C939 H931 0.930 . S
C939 C940 1.355 . S
C939 C941 1.415 . S
C940 C939 1.355 . S
C940 C942 1.419 . S
C941 C936 1.425 1_565 S
C941 C938 1.409 . S
C941 C939 1.415 . S
C942 H932 0.930 . S
C942 C940 1.419 . S
C942 C943 1.362 1_565 S
C943 H933 0.930 . S
C943 C936 1.409 . S
C943 C942 1.362 1_545 S
H944 C950 0.930 . S
H945 C953 0.930 . S
H946 C954 0.930 . S
H947 C955 0.930 . S
H948 C958 0.930 . S
H949 C959 0.930 . S
C950 H944 0.930 . S
C950 C951 1.355 . S
C950 C952 1.415 . S
C951 C950 1.355 . S
C951 C953 1.419 . S
C952 C950 1.415 . S
C952 C957 1.425 1_545 S
C952 C959 1.409 . S
C953 H945 0.930 . S
C953 C951 1.419 . S
C953 C954 1.362 1_545 S
C954 H946 0.930 . S
C954 C953 1.362 1_565 S
C954 C957 1.409 . S
C955 H947 0.930 . S
C955 C956 1.355 . S
C955 C957 1.415 . S
C956 C955 1.355 . S
C956 C958 1.419 . S
C957 C952 1.425 1_565 S
C957 C954 1.409 . S
C957 C955 1.415 . S
C958 H948 0.930 . S
C958 C956 1.419 . S
C958 C959 1.362 1_565 S
C959 H949 0.930 . S
C959 C952 1.409 . S
C959 C958 1.362 1_545 S
H960 C966 0.930 1_565 S
H961 C969 0.930 . S
H962 C970 0.930 . S
H963 C971 0.930 1_545 S
H964 C974 0.930 . S
H965 C975 0.930 . S
C966 H960 0.930 1_545 S
C966 C967 1.355 . S
C966 C968 1.415 1_545 S
C967 C966 1.355 . S
C967 C969 1.419 . S
C968 C966 1.415 1_565 S
C968 C973 1.425 1_565 S
C968 C975 1.409 . S
C969 H961 0.930 . S
C969 C967 1.419 . S
C969 C970 1.362 . S
C970 H962 0.930 . S
C970 C969 1.362 . S
C970 C973 1.409 . S
C971 H963 0.930 1_565 S
C971 C972 1.355 . S
C971 C973 1.415 1_565 S
C972 C971 1.355 . S
C972 C974 1.419 . S
C973 C968 1.425 1_545 S
C973 C970 1.409 . S
C973 C971 1.415 1_545 S
C974 H964 0.930 . S
C974 C972 1.419 . S
C974 C975 1.362 . S
C975 H965 0.930 . S
C975 C968 1.409 . S
C975 C974 1.362 . S
H976 C982 0.930 . S
H977 C985 0.930 . S
H978 C986 0.930 . S
H979 C987 0.930 . S
H980 C990 0.930 . S
H981 C991 0.930 . S
C982 H976 0.930 . S
C982 C983 1.355 . S
C982 C984 1.415 . S
C983 C982 1.355 . S
C983 C985 1.419 . S
C984 C982 1.415 . S
C984 C989 1.425 . S
C984 C991 1.409 . S
C985 H977 0.930 . S
C985 C983 1.419 . S
C985 C986 1.362 . S
C986 H978 0.930 . S
C986 C985 1.362 . S
C986 C989 1.409 . S
C987 H979 0.930 . S
C987 C988 1.355 . S
C987 C989 1.415 . S
C988 C987 1.355 . S
C988 C990 1.419 . S
C989 C984 1.425 . S
C989 C986 1.409 . S
C989 C987 1.415 . S
C990 H980 0.930 . S
C990 C988 1.419 . S
C990 C991 1.362 . S
C991 H981 0.930 . S
C991 C984 1.409 . S
C991 C990 1.362 . S
H992 C998 0.930 . S
H993 C1001 0.930 . S
H994 C1002 0.930 . S
H995 C1003 0.930 . S
H996 C1006 0.930 . S
H997 C1007 0.930 . S
C998 H992 0.930 . S
C998 C999 1.355 . S
C998 C1000 1.415 . S
C999 C998 1.355 . S
C999 C1001 1.419 . S
C1000 C998 1.415 . S
C1000 C1005 1.425 . S
C1000 C1007 1.409 . S
C1001 H993 0.930 . S
C1001 C999 1.419 . S
C1001 C1002 1.362 . S
C1002 H994 0.930 . S
C1002 C1001 1.362 . S
C1002 C1005 1.409 . S
C1003 H995 0.930 . S
C1003 C1004 1.355 . S
C1003 C1005 1.415 . S
C1004 C1003 1.355 . S
C1004 C1006 1.419 . S
C1005 C1000 1.425 . S
C1005 C1002 1.409 . S
C1005 C1003 1.415 . S
C1006 H996 0.930 . S
C1006 C1004 1.419 . S
C1006 C1007 1.362 . S
C1007 H997 0.930 . S
C1007 C1000 1.409 . S
C1007 C1006 1.362 . S
H1008 C1014 0.930 . S
H1009 C1017 0.930 . S
H1010 C1018 0.930 . S
H1011 C1019 0.930 . S
H1012 C1022 0.930 . S
H1013 C1023 0.930 . S
C1014 H1008 0.930 . S
C1014 C1015 1.355 . S
C1014 C1016 1.415 . S
C1015 C1014 1.355 . S
C1015 C1017 1.419 . S
C1016 C1014 1.415 . S
C1016 C1021 1.425 . S
C1016 C1023 1.409 . S
C1017 H1009 0.930 . S
C1017 C1015 1.419 . S
C1017 C1018 1.362 . S
C1018 H1010 0.930 . S
C1018 C1017 1.362 . S
C1018 C1021 1.409 . S
C1019 H1011 0.930 . S
C1019 C1020 1.355 . S
C1019 C1021 1.415 . S
C1020 C1019 1.355 . S
C1020 C1022 1.419 . S
C1021 C1016 1.425 . S
C1021 C1018 1.409 . S
C1021 C1019 1.415 . S
C1022 H1012 0.930 . S
C1022 C1020 1.419 . S
C1022 C1023 1.362 . S
C1023 H1013 0.930 . S
C1023 C1016 1.409 . S
C1023 C1022 1.362 . S
H1024 C1030 0.930 . S
H1025 C1033 0.930 . S
H1026 C1034 0.930 . S
H1027 C1035 0.930 . S
H1028 C1038 0.930 . S
H1029 C1039 0.930 . S
C1030 H1024 0.930 . S
C1030 C1031 1.355 . S
C1030 C1032 1.415 . S
C1031 C1030 1.355 . S
C1031 C1033 1.419 . S
C1032 C1030 1.415 . S
C1032 C1037 1.425 . S
C1032 C1039 1.409 . S
C1033 H1025 0.930 . S
C1033 C1031 1.419 . S
C1033 C1034 1.362 . S
C1034 H1026 0.930 . S
C1034 C1033 1.362 . S
C1034 C1037 1.409 . S
C1035 H1027 0.930 . S
C1035 C1036 1.355 . S
C1035 C1037 1.415 . S
C1036 C1035 1.355 . S
C1036 C1038 1.419 . S
C1037 C1032 1.425 . S
C1037 C1034 1.409 . S
C1037 C1035 1.415 . S
C1038 H1028 0.930 . S
C1038 C1036 1.419 . S
C1038 C1039 1.362 . S
C1039 H1029 0.930 . S
C1039 C1032 1.409 . S
C1039 C1038 1.362 . S
H1040 C1046 0.930 . S
H1041 C1049 0.930 . S
H1042 C1050 0.930 . S
H1043 C1051 0.930 . S
H1044 C1054 0.930 . S
H1045 C1055 0.930 . S
C1046 H1040 0.930 . S
C1046 C1047 1.355 . S
C1046 C1048 1.415 1_455 S
C1047 C1046 1.355 . S
C1047 C1049 1.419 . S
C1048 C1046 1.415 1_655 S
C1048 C1053 1.425 1_655 S
C1048 C1055 1.409 . S
C1049 H1041 0.930 . S
C1049 C1047 1.419 . S
C1049 C1050 1.362 . S
C1050 H1042 0.930 . S
C1050 C1049 1.362 . S
C1050 C1053 1.409 . S
C1051 H1043 0.930 . S
C1051 C1052 1.355 . S
C1051 C1053 1.415 1_655 S
C1052 C1051 1.355 . S
C1052 C1054 1.419 . S
C1053 C1048 1.425 1_455 S
C1053 C1050 1.409 . S
C1053 C1051 1.415 1_455 S
C1054 H1044 0.930 . S
C1054 C1052 1.419 . S
C1054 C1055 1.362 . S
C1055 H1045 0.930 . S
C1055 C1048 1.409 . S
C1055 C1054 1.362 . S
H1056 C1062 0.930 . S
H1057 C1065 0.930 . S
H1058 C1066 0.930 . S
H1059 C1067 0.930 . S
H1060 C1070 0.930 . S
H1061 C1071 0.930 . S
C1062 H1056 0.930 . S
C1062 C1063 1.355 . S
C1062 C1064 1.415 . S
C1063 C1062 1.355 . S
C1063 C1065 1.419 . S
C1064 C1062 1.415 . S
C1064 C1069 1.425 . S
C1064 C1071 1.409 . S
C1065 H1057 0.930 . S
C1065 C1063 1.419 . S
C1065 C1066 1.362 . S
C1066 H1058 0.930 . S
C1066 C1065 1.362 . S
C1066 C1069 1.409 . S
C1067 H1059 0.930 . S
C1067 C1068 1.355 . S
C1067 C1069 1.415 . S
C1068 C1067 1.355 . S
C1068 C1070 1.419 . S
C1069 C1064 1.425 . S
C1069 C1066 1.409 . S
C1069 C1067 1.415 . S
C1070 H1060 0.930 . S
C1070 C1068 1.419 . S
C1070 C1071 1.362 . S
C1071 H1061 0.930 . S
C1071 C1064 1.409 . S
C1071 C1070 1.362 . S
H1072 C1078 0.930 . S
H1073 C1081 0.930 . S
H1074 C1082 0.930 . S
H1075 C1083 0.930 . S
H1076 C1086 0.930 . S
H1077 C1087 0.930 . S
C1078 H1072 0.930 . S
C1078 C1079 1.355 . S
C1078 C1080 1.415 . S
C1079 C1078 1.355 . S
C1079 C1081 1.419 . S
C1080 C1078 1.415 . S
C1080 C1085 1.425 . S
C1080 C1087 1.409 . S
C1081 H1073 0.930 . S
C1081 C1079 1.419 . S
C1081 C1082 1.362 . S
C1082 H1074 0.930 . S
C1082 C1081 1.362 . S
C1082 C1085 1.409 . S
C1083 H1075 0.930 . S
C1083 C1084 1.355 . S
C1083 C1085 1.415 . S
C1084 C1083 1.355 . S
C1084 C1086 1.419 . S
C1085 C1080 1.425 . S
C1085 C1082 1.409 . S
C1085 C1083 1.415 . S
C1086 H1076 0.930 . S
C1086 C1084 1.419 . S
C1086 C1087 1.362 . S
C1087 H1077 0.930 . S
C1087 C1080 1.409 . S
C1087 C1086 1.362 . S
H1088 C1094 0.930 . S
H1089 C1097 0.930 . S
H1090 C1098 0.930 . S
H1091 C1099 0.930 . S
H1092 C1102 0.930 . S
H1093 C1103 0.930 . S
C1094 H1088 0.930 . S
C1094 C1095 1.355 . S
C1094 C1096 1.415 1_655 S
C1095 C1094 1.355 . S
C1095 C1097 1.419 . S
C1096 C1094 1.415 1_455 S
C1096 C1101 1.425 1_455 S
C1096 C1103 1.409 . S
C1097 H1089 0.930 . S
C1097 C1095 1.419 . S
C1097 C1098 1.362 . S
C1098 H1090 0.930 . S
C1098 C1097 1.362 . S
C1098 C1101 1.409 . S
C1099 H1091 0.930 . S
C1099 C1100 1.355 . S
C1099 C1101 1.415 1_455 S
C1100 C1099 1.355 . S
C1100 C1102 1.419 . S
C1101 C1096 1.425 1_655 S
C1101 C1098 1.409 . S
C1101 C1099 1.415 1_655 S
C1102 H1092 0.930 . S
C1102 C1100 1.419 . S
C1102 C1103 1.362 . S
C1103 H1093 0.930 . S
C1103 C1096 1.409 . S
C1103 C1102 1.362 . S
H1104 C1110 0.930 . S
H1105 C1113 0.930 . S
H1106 C1114 0.930 . S
H1107 C1115 0.930 . S
H1108 C1118 0.930 . S
H1109 C1119 0.930 . S
C1110 H1104 0.930 . S
C1110 C1111 1.355 . S
C1110 C1112 1.415 1_655 S
C1111 C1110 1.355 . S
C1111 C1113 1.419 . S
C1112 C1110 1.415 1_455 S
C1112 C1117 1.425 1_455 S
C1112 C1119 1.409 . S
C1113 H1105 0.930 . S
C1113 C1111 1.419 . S
C1113 C1114 1.362 . S
C1114 H1106 0.930 . S
C1114 C1113 1.362 . S
C1114 C1117 1.409 . S
C1115 H1107 0.930 . S
C1115 C1116 1.355 . S
C1115 C1117 1.415 1_455 S
C1116 C1115 1.355 . S
C1116 C1118 1.419 . S
C1117 C1112 1.425 1_655 S
C1117 C1114 1.409 . S
C1117 C1115 1.415 1_655 S
C1118 H1108 0.930 . S
C1118 C1116 1.419 . S
C1118 C1119 1.362 . S
C1119 H1109 0.930 . S
C1119 C1112 1.409 . S
C1119 C1118 1.362 . S
H1120 C1126 0.930 . S
H1121 C1129 0.930 . S
H1122 C1130 0.930 . S
H1123 C1131 0.930 . S
H1124 C1134 0.930 . S
H1125 C1135 0.930 . S
C1126 H1120 0.930 . S
C1126 C1127 1.355 . S
C1126 C1128 1.415 . S
C1127 C1126 1.355 . S
C1127 C1129 1.419 . S
C1128 C1126 1.415 . S
C1128 C1133 1.425 . S
C1128 C1135 1.409 . S
C1129 H1121 0.930 . S
C1129 C1127 1.419 . S
C1129 C1130 1.362 . S
C1130 H1122 0.930 . S
C1130 C1129 1.362 . S
C1130 C1133 1.409 . S
C1131 H1123 0.930 . S
C1131 C1132 1.355 . S
C1131 C1133 1.415 . S
C1132 C1131 1.355 . S
C1132 C1134 1.419 . S
C1133 C1128 1.425 . S
C1133 C1130 1.409 . S
C1133 C1131 1.415 . S
C1134 H1124 0.930 . S
C1134 C1132 1.419 . S
C1134 C1135 1.362 . S
C1135 H1125 0.930 . S
C1135 C1128 1.409 . S
C1135 C1134 1.362 . S
H1136 C1142 0.930 . S
H1137 C1145 0.930 . S
H1138 C1146 0.930 . S
H1139 C1147 0.930 . S
H1140 C1150 0.930 . S
H1141 C1151 0.930 . S
C1142 H1136 0.930 . S
C1142 C1143 1.355 . S
C1142 C1144 1.415 . S
C1143 C1142 1.355 . S
C1143 C1145 1.419 . S
C1144 C1142 1.415 . S
C1144 C1149 1.425 . S
C1144 C1151 1.409 . S
C1145 H1137 0.930 . S
C1145 C1143 1.419 . S
C1145 C1146 1.362 . S
C1146 H1138 0.930 . S
C1146 C1145 1.362 . S
C1146 C1149 1.409 . S
C1147 H1139 0.930 . S
C1147 C1148 1.355 . S
C1147 C1149 1.415 . S
C1148 C1147 1.355 . S
C1148 C1150 1.419 . S
C1149 C1144 1.425 . S
C1149 C1146 1.409 . S
C1149 C1147 1.415 . S
C1150 H1140 0.930 . S
C1150 C1148 1.419 . S
C1150 C1151 1.362 . S
C1151 H1141 0.930 . S
C1151 C1144 1.409 . S
C1151 C1150 1.362 . S
H1152 C1158 0.930 . S
H1153 C1161 0.930 . S
H1154 C1162 0.930 . S
H1155 C1163 0.930 . S
H1156 C1166 0.930 . S
H1157 C1167 0.930 . S
C1158 H1152 0.930 . S
C1158 C1159 1.355 . S
C1158 C1160 1.415 . S
C1159 C1158 1.355 . S
C1159 C1161 1.419 . S
C1160 C1158 1.415 . S
C1160 C1165 1.425 1_655 S
C1160 C1167 1.409 . S
C1161 H1153 0.930 . S
C1161 C1159 1.419 . S
C1161 C1162 1.362 1_655 S
C1162 H1154 0.930 . S
C1162 C1161 1.362 1_455 S
C1162 C1165 1.409 . S
C1163 H1155 0.930 . S
C1163 C1164 1.355 . S
C1163 C1165 1.415 . S
C1164 C1163 1.355 . S
C1164 C1166 1.419 . S
C1165 C1160 1.425 1_455 S
C1165 C1162 1.409 . S
C1165 C1163 1.415 . S
C1166 H1156 0.930 . S
C1166 C1164 1.419 . S
C1166 C1167 1.362 1_455 S
C1167 H1157 0.930 . S
C1167 C1160 1.409 . S
C1167 C1166 1.362 1_655 S
C535 C107 1.575 . S
C540 C8 1.535 . S
C551 C74 1.544 . S
C556 C41 1.572 . S
C567 C140 1.558 . S
C572 C239 1.530 . S
C583 C173 1.543 . S
C588 C206 1.542 . S
C599 C272 1.544 . S
C604 C371 1.541 . S
C615 C305 1.526 . S
C620 C338 1.568 . S
C631 C503 1.559 . S
C636 C404 1.560 . S
C647 C470 1.557 . S
C652 C437 1.562 . S
C663 N14 0.640 . S
C668 N344 0.621 . S
C679 N377 0.617 . S
C684 N47 0.635 . S
C695 N278 0.600 . S
C700 N80 0.587 . S
C711 N311 0.604 . S
C716 N113 0.590 . S
C727 N476 0.581 . S
C732 N146 0.591 . S
C743 N509 0.597 . S
C748 N179 0.585 . S
C759 N410 0.699 . S
C764 N212 0.695 . S
C775 N443 0.697 . S
C780 N245 0.691 . S
C791 N5 1.449 . S
C796 N137 1.449 . S
C807 N38 1.486 . S
C812 N170 1.486 . S
C823 N203 1.454 . S
C828 N71 1.454 . S
C839 N104 1.487 . S
C844 N236 1.487 . S
C855 N269 1.466 . S
C860 N401 1.466 . S
C871 N434 1.479 . S
C876 N302 1.479 . S
C887 N335 1.455 . S
C892 N467 1.455 . S
C903 N500 1.457 . S
C908 N368 1.457 . S
C919 C17 1.374 . S
C924 C50 1.387 . S
C935 C116 1.375 . S
C940 C83 1.389 . S
C951 C182 1.389 . S
C956 C149 1.375 . S
C967 C215 1.407 . S
C972 C248 1.410 . S
C983 C314 1.406 . S
C988 C281 1.410 . S
C999 C380 1.377 . S
C1004 C347 1.392 . S
C1015 C413 1.374 . S
C1020 C446 1.368 . S
C1031 C512 1.373 . S
C1036 C479 1.368 . S
C1047 C28 0.800 . S
C1052 C325 0.932 . S
C1063 C61 0.763 . S
C1068 C292 0.913 . S
C1079 C94 0.810 . S
C1084 C391 0.932 . S
C1095 C127 0.897 . S
C1100 C358 0.887 . S
C1111 C160 0.916 . S
C1116 C457 0.861 . S
C1127 C424 0.824 . S
C1132 C193 0.790 . S
C1143 C226 0.789 . S
C1148 C523 0.826 . S
C1159 C490 0.763 . S
C1164 C259 0.871 . S
