# Generated by pormake.
# Topology uku, (4)-cn, num edge types: 1
# Building blocks:
#     Node 0, Type 0, BuildingBlock: QUQFOY_clean_sbu_3, # of connection points: 4
#     Node 1, Type 0, BuildingBlock: QUQFOY_clean_sbu_3, # of connection points: 4
#     Node 2, Type 0, BuildingBlock: QUQFOY_clean_sbu_3, # of connection points: 4
#     Node 3, Type 0, BuildingBlock: QUQFOY_clean_sbu_3, # of connection points: 4
#     Node 4, Type 0, BuildingBlock: QUQFOY_clean_sbu_3, # of connection points: 4
#     Node 5, Type 0, BuildingBlock: QUQFOY_clean_sbu_3, # of connection points: 4
#     Node 6, Type 0, BuildingBlock: QUQFOY_clean_sbu_3, # of connection points: 4
#     Node 7, Type 0, BuildingBlock: QUQFOY_clean_sbu_3, # of connection points: 4
#     Node 8, Type 0, BuildingBlock: QUQFOY_clean_sbu_3, # of connection points: 4
#     Node 9, Type 0, BuildingBlock: QUQFOY_clean_sbu_3, # of connection points: 4
#     Node 10, Type 0, BuildingBlock: QUQFOY_clean_sbu_3, # of connection points: 4
#     Node 11, Type 0, BuildingBlock: QUQFOY_clean_sbu_3, # of connection points: 4
#     Edge 12, Type (0, 0), BuildingBlock: TEMPAE_clean_linker_10, # of connection points: 2
#     Edge 13, Type (0, 0), BuildingBlock: TEMPAE_clean_linker_10, # of connection points: 2
#     Edge 14, Type (0, 0), BuildingBlock: TEMPAE_clean_linker_10, # of connection points: 2
#     Edge 15, Type (0, 0), BuildingBlock: TEMPAE_clean_linker_10, # of connection points: 2
#     Edge 16, Type (0, 0), BuildingBlock: TEMPAE_clean_linker_10, # of connection points: 2
#     Edge 17, Type (0, 0), BuildingBlock: TEMPAE_clean_linker_10, # of connection points: 2
#     Edge 18, Type (0, 0), BuildingBlock: TEMPAE_clean_linker_10, # of connection points: 2
#     Edge 19, Type (0, 0), BuildingBlock: TEMPAE_clean_linker_10, # of connection points: 2
#     Edge 20, Type (0, 0), BuildingBlock: TEMPAE_clean_linker_10, # of connection points: 2
#     Edge 21, Type (0, 0), BuildingBlock: TEMPAE_clean_linker_10, # of connection points: 2
#     Edge 22, Type (0, 0), BuildingBlock: TEMPAE_clean_linker_10, # of connection points: 2
#     Edge 23, Type (0, 0), BuildingBlock: TEMPAE_clean_linker_10, # of connection points: 2
#     Edge 24, Type (0, 0), BuildingBlock: TEMPAE_clean_linker_10, # of connection points: 2
#     Edge 25, Type (0, 0), BuildingBlock: TEMPAE_clean_linker_10, # of connection points: 2
#     Edge 26, Type (0, 0), BuildingBlock: TEMPAE_clean_linker_10, # of connection points: 2
#     Edge 27, Type (0, 0), BuildingBlock: TEMPAE_clean_linker_10, # of connection points: 2
#     Edge 28, Type (0, 0), BuildingBlock: TEMPAE_clean_linker_10, # of connection points: 2
#     Edge 29, Type (0, 0), BuildingBlock: TEMPAE_clean_linker_10, # of connection points: 2
#     Edge 30, Type (0, 0), BuildingBlock: TEMPAE_clean_linker_10, # of connection points: 2
#     Edge 31, Type (0, 0), BuildingBlock: TEMPAE_clean_linker_10, # of connection points: 2
#     Edge 32, Type (0, 0), BuildingBlock: TEMPAE_clean_linker_10, # of connection points: 2
#     Edge 33, Type (0, 0), BuildingBlock: TEMPAE_clean_linker_10, # of connection points: 2
#     Edge 34, Type (0, 0), BuildingBlock: TEMPAE_clean_linker_10, # of connection points: 2
#     Edge 35, Type (0, 0), BuildingBlock: TEMPAE_clean_linker_10, # of connection points: 2
# Relax obj value: 0.368
# Max RMSD: 0.260
# Mean RMSD: 0.260
data_MOF--net-uku--node1-QUQFOY_clean_sbu_3--edge1-TEMPAE_clean_linker_10
_symmetry_space_group_name_H-M    P1
_symmetry_Int_Tables_number       1
_symmetry_cell_setting            triclinic
loop_
_symmetry_equiv_pos_as_xyz
'x, y, z'
_cell_length_a     41.861381
_cell_length_b     41.847677
_cell_length_c     41.870267
_cell_angle_alpha  89.968948
_cell_angle_beta   89.994823
_cell_angle_gamma 90.011927
loop_
_atom_site_label
_atom_site_type_symbol
_atom_site_fract_x
_atom_site_fract_y
_atom_site_fract_z
_atom_type_partial_charge
C0 C 0.03734 0.17184 0.7145 0.0
O1 O 0.02966 0.1434 0.72184 0.0
Cd2 Cd 0.03186 0.09927 0.68433 0.0
O3 O 0.04572 0.1788 0.68619 0.0
Cd4 Cd 0.0531 0.1546 0.63378 0.0
C5 C 0.11146 0.10948 0.66544 0.0
O6 O 0.01165 0.1137 0.6334 0.0
O7 O 0.04855 0.10999 0.59752 0.0
O8 O 0.02267 0.20007 0.6158 0.0
C9 C 0.02325 0.09864 0.60969 0.0
O10 O 0.08885 0.09232 0.67646 0.0
C11 C 0.04056 0.2065 0.59219 0.0
O12 O 0.10607 0.13604 0.65139 0.0
O13 O 0.0657 0.18969 0.58887 0.0
C14 C 0.95101 0.79326 0.69946 0.0
O15 O 0.96437 0.81954 0.70679 0.0
Cd16 Cd 0.96542 0.86595 0.67205 0.0
O17 O 0.93814 0.78945 0.67227 0.0
Cd18 Cd 0.92857 0.81635 0.62165 0.0
C19 C 0.88324 0.86931 0.66214 0.0
O20 O 0.97522 0.85025 0.61875 0.0
O21 O 0.93778 0.86036 0.58496 0.0
O22 O 0.94931 0.76723 0.60054 0.0
C23 C 0.96466 0.86809 0.59656 0.0
O24 O 0.90958 0.88143 0.67145 0.0
C25 C 0.92882 0.76443 0.57839 0.0
O26 O 0.88227 0.84342 0.64595 0.0
O27 O 0.90638 0.785 0.5776 0.0
C28 C 0.04461 0.81194 0.28731 0.0
O29 O 0.03326 0.83915 0.28003 0.0
Cd30 Cd 0.03337 0.88387 0.31691 0.0
O31 O 0.05535 0.80659 0.31516 0.0
Cd32 Cd 0.06298 0.83079 0.36735 0.0
C33 C 0.11477 0.88084 0.33153 0.0
O34 O 0.01812 0.86719 0.36879 0.0
O35 O 0.05433 0.87437 0.4047 0.0
O36 O 0.03752 0.78199 0.38358 0.0
C37 C 0.02828 0.88354 0.39225 0.0
O38 O 0.09002 0.89529 0.32123 0.0
C39 C 0.05572 0.77664 0.4072 0.0
O40 O 0.11277 0.8545 0.34686 0.0
O41 O 0.07895 0.79586 0.41148 0.0
C42 C 0.95357 0.18809 0.29036 0.0
O43 O 0.96672 0.16163 0.28337 0.0
Cd44 Cd 0.96507 0.11505 0.31785 0.0
O45 O 0.93925 0.19177 0.31684 0.0
Cd46 Cd 0.92624 0.16343 0.36594 0.0
C47 C 0.88282 0.11152 0.32218 0.0
O48 O 0.97298 0.12954 0.37203 0.0
O49 O 0.93258 0.11862 0.40204 0.0
O50 O 0.9447 0.21211 0.39023 0.0
C51 C 0.96066 0.11157 0.3932 0.0
O52 O 0.9095 0.09899 0.31457 0.0
C53 C 0.9225 0.21393 0.41078 0.0
O54 O 0.88129 0.13735 0.33839 0.0
O55 O 0.90037 0.19311 0.40914 0.0
C56 C 0.71228 0.03328 0.17822 0.0
O57 O 0.71887 0.02203 0.15082 0.0
Cd58 Cd 0.68263 0.02527 0.10578 0.0
O59 O 0.68529 0.04601 0.1837 0.0
Cd60 Cd 0.63422 0.05835 0.15886 0.0
C61 C 0.67487 0.1075 0.10944 0.0
O62 O 0.62956 0.01404 0.12207 0.0
O63 O 0.59671 0.05304 0.11495 0.0
O64 O 0.61326 0.03537 0.20719 0.0
C65 C 0.60712 0.02618 0.10562 0.0
O66 O 0.68336 0.08224 0.0947 0.0
C67 C 0.59185 0.05638 0.21152 0.0
O68 O 0.65896 0.10624 0.13547 0.0
O69 O 0.59131 0.07984 0.19214 0.0
C70 C 0.28665 0.95312 0.18768 0.0
O71 O 0.27847 0.96426 0.16066 0.0
Cd72 Cd 0.31295 0.96284 0.11416 0.0
O73 O 0.31446 0.9418 0.19195 0.0
Cd74 Cd 0.36474 0.93313 0.16414 0.0
C75 C 0.32591 0.8814 0.11666 0.0
O76 O 0.3662 0.97753 0.12658 0.0
O77 O 0.39901 0.93871 0.11795 0.0
O78 O 0.38673 0.95883 0.21059 0.0
C79 C 0.38798 0.96551 0.10914 0.0
O80 O 0.31561 0.90622 0.10235 0.0
C81 C 0.40954 0.93925 0.21441 0.0
O82 O 0.34213 0.88333 0.14244 0.0
O83 O 0.41052 0.91526 0.19572 0.0
C84 C 0.7117 0.95485 0.80075 0.0
O85 O 0.71896 0.96481 0.82848 0.0
Cd86 Cd 0.68204 0.96423 0.87301 0.0
O87 O 0.68353 0.94547 0.79457 0.0
Cd88 Cd 0.63126 0.93941 0.81934 0.0
C89 C 0.66493 0.88374 0.86647 0.0
O90 O 0.63048 0.98233 0.85838 0.0
O91 O 0.59537 0.94503 0.8643 0.0
O92 O 0.61251 0.96857 0.77346 0.0
C93 C 0.60733 0.97094 0.87444 0.0
O94 O 0.67579 0.9074 0.88224 0.0
C95 C 0.58888 0.95043 0.76785 0.0
O96 O 0.65001 0.88758 0.84011 0.0
O97 O 0.58616 0.92545 0.78506 0.0
C98 C 0.29007 0.03902 0.80008 0.0
O99 O 0.28303 0.02262 0.82466 0.0
Cd100 Cd 0.31407 0.02516 0.8732 0.0
O101 O 0.31577 0.05517 0.799 0.0
Cd102 Cd 0.36486 0.06751 0.82816 0.0
C103 C 0.31513 0.1085 0.87626 0.0
O104 O 0.36936 0.02058 0.8615 0.0
O105 O 0.40022 0.0601 0.87337 0.0
O106 O 0.38803 0.04905 0.77913 0.0
C107 C 0.39009 0.0324 0.88029 0.0
O108 O 0.3056 0.08114 0.88568 0.0
C109 C 0.40924 0.07062 0.77726 0.0
O110 O 0.3364 0.11153 0.85456 0.0
O111 O 0.40885 0.09237 0.79855 0.0
C112 C 0.18395 0.70836 0.04172 0.0
O113 O 0.15718 0.71629 0.02982 0.0
Cd114 Cd 0.11095 0.6814 0.031 0.0
O115 O 0.18814 0.68056 0.05311 0.0
Cd116 Cd 0.16124 0.62963 0.06076 0.0
C117 C 0.11399 0.66858 0.11255 0.0
O118 O 0.12363 0.62815 0.01653 0.0
O119 O 0.11529 0.59505 0.05521 0.0
O120 O 0.20803 0.6098 0.03418 0.0
C121 C 0.10633 0.6062 0.02852 0.0
O122 O 0.09974 0.67892 0.08772 0.0
C123 C 0.2125 0.58628 0.05277 0.0
O124 O 0.1396 0.65206 0.11063 0.0
O125 O 0.19395 0.58381 0.07678 0.0
C126 C 0.18241 0.29333 0.94823 0.0
O127 O 0.16005 0.28824 0.9681 0.0
Cd128 Cd 0.11275 0.3218 0.96553 0.0
O129 O 0.18295 0.31879 0.93176 0.0
Cd130 Cd 0.15752 0.37031 0.92458 0.0
C131 C 0.10753 0.32447 0.88246 0.0
O132 O 0.12493 0.37677 0.97209 0.0
O133 O 0.11229 0.40544 0.93101 0.0
O134 O 0.20703 0.38989 0.94549 0.0
C135 C 0.10634 0.39735 0.9596 0.0
O136 O 0.09687 0.316 0.90972 0.0
C137 C 0.21036 0.41233 0.92537 0.0
O138 O 0.13161 0.34306 0.87978 0.0
O139 O 0.18984 0.41403 0.90292 0.0
C140 C 0.80115 0.70545 0.9402 0.0
O141 O 0.82812 0.71354 0.95155 0.0
Cd142 Cd 0.87369 0.678 0.95466 0.0
O143 O 0.79609 0.6769 0.93127 0.0
Cd144 Cd 0.82279 0.62519 0.92838 0.0
C145 C 0.87268 0.65798 0.87472 0.0
O146 O 0.85941 0.62664 0.97353 0.0
O147 O 0.86816 0.59062 0.93776 0.0
O148 O 0.77551 0.60586 0.95489 0.0
C149 C 0.87666 0.60363 0.96374 0.0
O150 O 0.88678 0.66997 0.89888 0.0
C151 C 0.77176 0.58163 0.93707 0.0
O152 O 0.84634 0.64278 0.87743 0.0
O153 O 0.79078 0.5787 0.91349 0.0
C154 C 0.81386 0.28886 0.04542 0.0
O155 O 0.84156 0.28328 0.03431 0.0
Cd156 Cd 0.8849 0.32149 0.03564 0.0
O157 O 0.80704 0.31593 0.05737 0.0
Cd158 Cd 0.82999 0.36846 0.06818 0.0
C159 C 0.88215 0.33181 0.11759 0.0
O160 O 0.86506 0.37279 0.02267 0.0
O161 O 0.87253 0.40751 0.05984 0.0
O162 O 0.78017 0.38638 0.04577 0.0
C163 C 0.88109 0.39637 0.03303 0.0
O164 O 0.89696 0.32339 0.09236 0.0
C165 C 0.77568 0.40876 0.06569 0.0
O166 O 0.85524 0.34619 0.11634 0.0
O167 O 0.79565 0.41117 0.08851 0.0
C168 C 0.94814 0.25971 0.43864 0.0
C169 C 0.92752 0.23329 0.43968 0.0
C170 C 0.96462 0.26948 0.46614 0.0
C171 C 0.96148 0.25126 0.49439 0.0
C172 C 0.9368 0.22814 0.49668 0.0
C173 C 0.91955 0.2199 0.46924 0.0
C174 C 0.98809 0.29671 0.46382 0.0
C175 C 0.93179 0.20871 0.52668 0.0
C176 C 0.03427 0.2179 0.53474 0.0
C177 C 0.02848 0.22701 0.56632 0.0
C178 C 0.01411 0.22818 0.51014 0.0
C179 C 0.98853 0.24931 0.51727 0.0
C180 C 0.986 0.26256 0.54823 0.0
C181 C 0.00555 0.25059 0.57271 0.0
C182 C 0.01794 0.21324 0.47747 0.0
C183 C 0.96107 0.28723 0.55642 0.0
H184 H 0.95364 0.27079 0.41588 0.0
H185 H 0.90313 0.19987 0.47019 0.0
H186 H 0.99165 0.30837 0.48736 0.0
H187 H 0.0115 0.28759 0.45542 0.0
H188 H 0.97976 0.31484 0.44631 0.0
H189 H 0.91058 0.19284 0.52498 0.0
H190 H 0.95315 0.19367 0.53127 0.0
H191 H 0.92858 0.22471 0.5475 0.0
H192 H 0.05216 0.19983 0.52977 0.0
H193 H 0.00147 0.25819 0.59714 0.0
H194 H 0.02035 0.23204 0.45901 0.0
H195 H -0.00355 0.19885 0.47157 0.0
H196 H 0.03921 0.19742 0.476 0.0
H197 H 0.95162 0.29954 0.53492 0.0
H198 H 0.9713 0.30539 0.57285 0.0
H199 H 0.94097 0.2756 0.56919 0.0
C200 C 0.04869 0.76354 0.46415 0.0
C201 C 0.04518 0.75436 0.43227 0.0
C202 C 0.02793 0.75172 0.48755 0.0
C203 C 0.00418 0.72907 0.47886 0.0
C204 C 0.00463 0.71555 0.44793 0.0
C205 C 0.02467 0.72897 0.42462 0.0
C206 C 0.02877 0.76676 0.52037 0.0
C207 C 0.98203 0.6892 0.43834 0.0
C208 C 0.95775 0.71865 0.55402 0.0
C209 C 0.93641 0.74429 0.55061 0.0
C210 C 0.9768 0.70887 0.52824 0.0
C211 C 0.97535 0.7263 0.49937 0.0
C212 C 0.95003 0.74829 0.49441 0.0
C213 C 0.9303 0.75653 0.52013 0.0
C214 C 0.00097 0.68265 0.53324 0.0
C215 C 0.94671 0.76675 0.46357 0.0
H216 H 0.06481 0.78293 0.47012 0.0
H217 H 0.02248 0.72126 0.39999 0.0
H218 H 0.00628 0.78012 0.52474 0.0
H219 H 0.03078 0.74807 0.53899 0.0
H220 H 0.04912 0.78356 0.52327 0.0
H221 H 0.99454 0.6717 0.42281 0.0
H222 H 0.97202 0.67641 0.45931 0.0
H223 H 0.96208 0.69935 0.42415 0.0
H224 H 0.9618 0.70837 0.57745 0.0
H225 H 0.91329 0.77587 0.5173 0.0
H226 H 0.02268 0.69263 0.54466 0.0
H227 H 0.00796 0.67136 0.51029 0.0
H228 H 0.99125 0.66401 0.54946 0.0
H229 H 0.96781 0.78248 0.46021 0.0
H230 H 0.92489 0.78184 0.46316 0.0
H231 H 0.9457 0.75011 0.44303 0.0
C232 C 0.46784 0.94223 0.22218 0.0
C233 C 0.43724 0.94866 0.23389 0.0
C234 C 0.49378 0.9613 0.23119 0.0
C235 C 0.48905 0.98634 0.25357 0.0
C236 C 0.45943 0.98897 0.2696 0.0
C237 C 0.43349 0.97058 0.25896 0.0
C238 C 0.52503 0.95726 0.21353 0.0
C239 C 0.45405 0.01315 0.29573 0.0
C240 C 0.5682 0.02741 0.25776 0.0
C241 C 0.56455 0.04904 0.23242 0.0
C242 C 0.54193 0.01002 0.26924 0.0
C243 C 0.51212 0.01332 0.25374 0.0
C244 C 0.50752 0.03855 0.23156 0.0
C245 C 0.53386 0.05666 0.22167 0.0
C246 C 0.54702 0.98581 0.29543 0.0
C247 C 0.47592 0.04357 0.21484 0.0
H248 H 0.4708 0.92505 0.20303 0.0
H249 H 0.40987 0.97507 0.26861 0.0
H250 H 0.53 0.97889 0.19898 0.0
H251 H 0.54496 0.95435 0.23067 0.0
H252 H 0.52485 0.9362 0.19738 0.0
H253 H 0.43825 0.00298 0.31448 0.0
H254 H 0.47679 0.02093 0.30694 0.0
H255 H 0.44175 0.0344 0.28577 0.0
H256 H 0.59191 0.02211 0.26677 0.0
H257 H 0.53094 0.07377 0.20243 0.0
H258 H 0.55636 0.9633 0.28505 0.0
H259 H 0.52445 0.98042 0.30827 0.0
H260 H 0.565 0.99462 0.31284 0.0
H261 H 0.47018 0.02235 0.2 0.0
H262 H 0.47611 0.06498 0.19914 0.0
H263 H 0.45652 0.04645 0.23259 0.0
C264 C 0.53097 0.95556 0.75824 0.0
C265 C 0.56214 0.96245 0.74841 0.0
C266 C 0.50582 0.97618 0.75048 0.0
C267 C 0.51197 0.00344 0.73123 0.0
C268 C 0.5422 0.00701 0.71659 0.0
C269 C 0.56729 0.98683 0.72597 0.0
C270 C 0.47383 0.97101 0.76644 0.0
C271 C 0.5491 0.03383 0.69354 0.0
C272 C 0.43405 0.04689 0.72883 0.0
C273 C 0.43716 0.06534 0.75661 0.0
C274 C 0.46035 0.03022 0.71641 0.0
C275 C 0.48957 0.03089 0.7333 0.0
C276 C 0.49384 0.05327 0.7584 0.0
C277 C 0.46754 0.07081 0.76934 0.0
C278 C 0.45573 0.00928 0.68749 0.0
C279 C 0.52483 0.05542 0.77678 0.0
H280 H 0.52686 0.93645 0.77525 0.0
H281 H 0.59134 0.99174 0.71767 0.0
H282 H 0.46887 0.99092 0.78325 0.0
H283 H 0.45449 0.97073 0.7484 0.0
H284 H 0.47286 0.9482 0.78 0.0
H285 H 0.56564 0.02557 0.67452 0.0
H286 H 0.52699 0.04317 0.68225 0.0
H287 H 0.56113 0.05366 0.70635 0.0
H288 H 0.4106 0.04327 0.71842 0.0
H289 H 0.47002 0.08543 0.79057 0.0
H290 H 0.44547 0.986 0.69492 0.0
H291 H 0.47866 0.00476 0.67495 0.0
H292 H 0.43866 0.02049 0.67054 0.0
H293 H 0.52928 0.03257 0.78951 0.0
H294 H 0.5246 0.07504 0.79464 0.0
H295 H 0.54506 0.05949 0.76023 0.0
C296 C 0.22 0.47034 0.92821 0.0
C297 C 0.23138 0.43936 0.93338 0.0
C298 C 0.22986 0.49547 0.94797 0.0
C299 C 0.25259 0.48944 0.97238 0.0
C300 C 0.26867 0.45976 0.97317 0.0
C301 C 0.25733 0.43465 0.95408 0.0
C302 C 0.21249 0.52704 0.94562 0.0
C303 C 0.29529 0.4533 -0.00346 0.0
C304 C 0.25746 0.56497 0.02023 0.0
C305 C 0.23255 0.55949 0.04198 0.0
C306 C 0.26827 0.54043 0.00012 0.0
C307 C 0.2526 0.51051 0.00093 0.0
C308 C 0.23058 0.50381 0.02585 0.0
C309 C 0.22136 0.52836 0.0466 0.0
C310 C 0.29405 0.54772 0.97605 0.0
C311 C 0.21345 0.47208 0.02806 0.0
H312 H 0.20028 0.47412 0.91185 0.0
H313 H 0.2668 0.41077 0.95751 0.0
H314 H 0.19767 0.53071 0.96731 0.0
H315 H 0.22982 0.54699 0.94424 0.0
H316 H 0.19664 0.52826 0.92437 0.0
H317 H 0.3129 0.43639 0.98614 0.0
H318 H 0.30782 0.47562 0.00351 0.0
H319 H 0.28539 0.44202 0.01838 0.0
H320 H 0.26674 0.58898 0.01715 0.0
H321 H 0.20235 0.52404 0.06366 0.0
H322 H 0.28353 0.5606 0.95542 0.0
H323 H 0.30585 0.52569 0.9672 0.0
H324 H 0.31241 0.56363 0.98674 0.0
H325 H 0.19839 0.46852 0.00653 0.0
H326 H 0.19788 0.47048 0.04949 0.0
H327 H 0.23092 0.45224 0.02902 0.0
C328 C 0.76374 0.52373 0.94427 0.0
C329 C 0.75208 0.55475 0.94837 0.0
C330 C 0.75462 0.49927 0.96519 0.0
C331 C 0.73212 0.50587 0.9897 0.0
C332 C 0.71611 0.53563 0.99002 0.0
C333 C 0.72691 0.56015 0.96981 0.0
C334 C 0.7723 0.4678 0.96356 0.0
C335 C 0.68979 0.54281 0.01351 0.0
C336 C 0.72859 0.42977 0.03608 0.0
C337 C 0.754 0.43515 0.05726 0.0
C338 C 0.71669 0.45472 0.0171 0.0
C339 C 0.73185 0.48488 0.01834 0.0
C340 C 0.7539 0.49144 0.04322 0.0
C341 C 0.7642 0.46645 0.06295 0.0
C342 C 0.69051 0.44774 0.99339 0.0
C343 C 0.77015 0.52355 0.04617 0.0
H344 H 0.78296 0.51946 0.92744 0.0
H345 H 0.71727 0.58405 0.97249 0.0
H346 H 0.78652 0.46429 0.98567 0.0
H347 H 0.75515 0.44773 0.96177 0.0
H348 H 0.78875 0.46653 0.94278 0.0
H349 H 0.67082 0.55721 0.00181 0.0
H350 H 0.67891 0.52073 0.02343 0.0
H351 H 0.69942 0.55734 0.03346 0.0
H352 H 0.71995 0.40563 0.0323 0.0
H353 H 0.78344 0.47075 0.07975 0.0
H354 H 0.70091 0.43676 0.97164 0.0
H355 H 0.67756 0.4698 0.98635 0.0
H356 H 0.67319 0.43038 0.00355 0.0
H357 H 0.78491 0.52816 0.02461 0.0
H358 H 0.78586 0.52497 0.06751 0.0
H359 H 0.7521 0.54281 0.04784 0.0
C360 C 0.15267 0.06735 0.67029 0.0
C361 C 0.14416 0.09958 0.67329 0.0
C362 C 0.18 0.05536 0.68543 0.0
C363 C 0.19841 0.07593 0.7049 0.0
C364 C 0.19121 0.10903 0.70599 0.0
C365 C 0.16427 0.12057 0.68973 0.0
C366 C 0.18759 0.02021 0.68266 0.0
C367 C 0.21 0.13168 0.72683 0.0
C368 C 0.23394 0.04199 0.78085 0.0
C369 C 0.26666 0.04306 0.77407 0.0
C370 C 0.21144 0.05191 0.75814 0.0
C371 C 0.22194 0.06229 0.72766 0.0
C372 C 0.25481 0.06128 0.71994 0.0
C373 C 0.27688 0.05212 0.74345 0.0
C374 C 0.17657 0.05298 0.76744 0.0
C375 C 0.26677 0.07107 0.68737 0.0
H376 H 0.13698 0.05119 0.65748 0.0
H377 H 0.15735 0.14541 0.6923 0.0
H378 H 0.21368 0.01642 0.67993 0.0
H379 H 0.17996 0.00774 0.70478 0.0
H380 H 0.17509 0.00903 0.6621 0.0
H381 H 0.20349 0.15704 0.72246 0.0
H382 H 0.2053 0.12607 0.75232 0.0
H383 H 0.236 0.12876 0.72274 0.0
H384 H 0.22601 0.03528 0.80458 0.0
H385 H 0.30222 0.0528 0.73812 0.0
H386 H 0.16211 0.03877 0.7504 0.0
H387 H 0.1678 0.07799 0.76634 0.0
H388 H 0.17235 0.04362 0.79191 0.0
H389 H 0.25216 0.05978 0.66834 0.0
H390 H 0.2922 0.06444 0.68371 0.0
H391 H 0.26449 0.09733 0.68457 0.0
C392 C 0.76796 0.94262 0.78586 0.0
C393 C 0.73669 0.94983 0.77644 0.0
C394 C 0.79041 0.93157 0.76361 0.0
C395 C 0.78151 0.92843 0.73111 0.0
C396 C 0.75062 0.93775 0.72113 0.0
C397 C 0.72841 0.94798 0.74402 0.0
C398 C 0.82309 0.92157 0.77522 0.0
C399 C 0.74062 0.93569 0.68655 0.0
C400 C 0.8525 0.91788 0.67639 0.0
C401 C 0.8537 0.88454 0.67349 0.0
C402 C 0.8277 0.93279 0.69317 0.0
C403 C 0.80414 0.91374 0.70812 0.0
C404 C 0.80422 0.88015 0.70366 0.0
C405 C 0.8289 0.86593 0.68597 0.0
C406 C 0.82788 0.96871 0.69654 0.0
C407 C 0.77968 0.85902 0.71956 0.0
H408 H 0.77435 0.94375 0.81093 0.0
H409 H 0.70424 0.95372 0.73666 0.0
H410 H 0.82652 0.89563 0.77095 0.0
H411 H 0.84193 0.93438 0.7617 0.0
H412 H 0.82651 0.92638 0.80109 0.0
H413 H 0.71726 0.9475 0.68219 0.0
H414 H 0.7589 0.9469 0.67095 0.0
H415 H 0.73862 0.91025 0.67939 0.0
H416 H 0.87169 0.93225 0.66652 0.0
H417 H 0.83006 0.84013 0.68395 0.0
H418 H 0.83511 0.97525 0.72117 0.0
H419 H 0.80361 0.97857 0.6925 0.0
H420 H 0.84472 0.98022 0.67955 0.0
H421 H 0.78294 0.85994 0.74585 0.0
H422 H 0.7816 0.83373 0.71172 0.0
H423 H 0.7552 0.8677 0.71433 0.0
C424 C 0.27316 0.94639 0.24531 0.0
C425 C 0.26297 0.9495 0.21352 0.0
C426 C 0.25167 0.93783 0.26954 0.0
C427 C 0.21948 0.93145 0.26156 0.0
C428 C 0.20881 0.93583 0.22973 0.0
C429 C 0.23065 0.94519 0.20613 0.0
C430 C 0.26366 0.93441 0.30337 0.0
C431 C 0.17466 0.929 0.22022 0.0
C432 C 0.16855 0.87281 0.30787 0.0
C433 C 0.14592 0.8934 0.32128 0.0
C434 C 0.19401 0.88502 0.28978 0.0
C435 C 0.1971 0.91854 0.28585 0.0
C436 C 0.17609 0.93938 0.30211 0.0
C437 C 0.15041 0.92652 0.31929 0.0
C438 C 0.21578 0.862 0.27254 0.0
C439 C 0.17923 0.97522 0.29941 0.0
H440 H 0.29816 0.94992 0.25112 0.0
H441 H 0.22276 0.94733 0.18156 0.0
H442 H 0.24742 0.94681 0.32025 0.0
H443 H 0.26401 0.90878 0.31015 0.0
H444 H 0.28815 0.9442 0.30631 0.0
H445 H 0.17008 0.93423 0.19462 0.0
H446 H 0.16906 0.90347 0.22477 0.0
H447 H 0.15802 0.94348 0.23488 0.0
H448 H 0.16483 0.8472 0.30917 0.0
H449 H 0.13287 0.94241 0.32985 0.0
H450 H 0.24115 0.86863 0.27624 0.0
H451 H 0.21098 0.86322 0.2465 0.0
H452 H 0.21224 0.83695 0.2806 0.0
H453 H 0.20456 0.98264 0.3018 0.0
H454 H 0.16483 0.98781 0.3178 0.0
H455 H 0.17085 0.98305 0.27551 0.0
C456 C 0.76895 0.04145 0.19409 0.0
C457 C 0.73717 0.03599 0.20294 0.0
C458 C 0.79158 0.05116 0.21679 0.0
C459 C 0.78227 0.05463 0.24915 0.0
C460 C 0.75081 0.0467 0.25857 0.0
C461 C 0.72847 0.03789 0.23524 0.0
C462 C 0.82485 0.05973 0.20576 0.0
C463 C 0.74032 0.04906 0.29298 0.0
C464 C 0.85201 0.06357 0.30586 0.0
C465 C 0.85375 0.09687 0.309 0.0
C466 C 0.8275 0.04923 0.28816 0.0
C467 C 0.80489 0.0688 0.27246 0.0
C468 C 0.80565 0.10239 0.27688 0.0
C469 C 0.82992 0.11603 0.29554 0.0
C470 C 0.82683 0.0133 0.2849 0.0
C471 C 0.78218 0.12409 0.26014 0.0
H472 H 0.77563 0.04028 0.1691 0.0
H473 H 0.70388 0.03348 0.24212 0.0
H474 H 0.82911 0.08562 0.20966 0.0
H475 H 0.84293 0.04652 0.21991 0.0
H476 H 0.82865 0.05435 0.18006 0.0
H477 H 0.71662 0.03778 0.29697 0.0
H478 H 0.75807 0.03749 0.30892 0.0
H479 H 0.73874 0.07455 0.30004 0.0
H480 H 0.87044 0.04877 0.31649 0.0
H481 H 0.83151 0.14179 0.29775 0.0
H482 H 0.83439 0.00648 0.26045 0.0
H483 H 0.80223 0.00409 0.28847 0.0
H484 H 0.843 0.00143 0.30228 0.0
H485 H 0.78577 0.12248 0.23392 0.0
H486 H 0.78492 0.14946 0.26747 0.0
H487 H 0.75733 0.11644 0.2652 0.0
C488 C 0.69216 0.14224 0.06453 0.0
C489 C 0.68708 0.13821 0.09739 0.0
C490 C 0.7093 0.16852 0.05286 0.0
C491 C 0.72234 0.19073 0.07469 0.0
C492 C 0.71578 0.18771 0.10777 0.0
C493 C 0.69782 0.16159 0.11872 0.0
C494 C 0.71496 0.17146 0.01736 0.0
C495 C 0.72962 0.21074 0.13183 0.0
C496 C 0.80028 0.23152 0.05334 0.0
C497 C 0.79017 0.26296 0.04803 0.0
C498 C 0.77827 0.20761 0.06145 0.0
C499 C 0.74535 0.21524 0.06342 0.0
C500 C 0.73483 0.24652 0.05612 0.0
C501 C 0.75746 0.27017 0.04896 0.0
C502 C 0.79044 0.17459 0.0695 0.0
C503 C 0.69985 0.25524 0.05696 0.0
H504 H 0.68361 0.12421 0.04801 0.0
H505 H 0.69411 0.15831 0.14414 0.0
H506 H 0.71061 0.19634 0.00927 0.0
H507 H 0.74023 0.16566 0.01191 0.0
H508 H 0.69942 0.15508 0.00342 0.0
H509 H 0.72041 0.20639 0.15634 0.0
H510 H 0.75603 0.20832 0.1322 0.0
H511 H 0.72409 0.23573 0.12498 0.0
H512 H 0.82558 0.226 0.05295 0.0
H513 H 0.74963 0.2945 0.04469 0.0
H514 H 0.77846 0.15646 0.05436 0.0
H515 H 0.78467 0.16885 0.09474 0.0
H516 H 0.81668 0.17242 0.06615 0.0
H517 H 0.68564 0.23771 0.04306 0.0
H518 H 0.69537 0.27953 0.04721 0.0
H519 H 0.69106 0.25447 0.08194 0.0
C520 C 0.20169 0.76461 0.04981 0.0
C521 C 0.20946 0.73228 0.04617 0.0
C522 C 0.22475 0.78672 0.05986 0.0
C523 C 0.25645 0.7763 0.06567 0.0
C524 C 0.26487 0.74407 0.06009 0.0
C525 C 0.24115 0.72233 0.05074 0.0
C526 C 0.2148 0.8209 0.06581 0.0
C527 C 0.29859 0.73233 0.0651 0.0
C528 C 0.31417 0.8454 0.07127 0.0
C529 C 0.31529 0.85032 0.10434 0.0
C530 C 0.29719 0.81964 0.05833 0.0
C531 C 0.28015 0.79905 0.079 0.0
C532 C 0.28298 0.80271 0.11255 0.0
C533 C 0.30094 0.82821 0.12488 0.0
C534 C 0.29564 0.8159 0.0225 0.0
C535 C 0.26486 0.78143 0.13537 0.0
H536 H 0.17719 0.77232 0.04655 0.0
H537 H 0.24726 0.69733 0.04775 0.0
H538 H 0.21833 0.8269 0.09139 0.0
H539 H 0.22991 0.83744 0.05165 0.0
H540 H 0.18938 0.82525 0.05955 0.0
H541 H 0.302 0.70758 0.05614 0.0
H542 H 0.31586 0.7483 0.05287 0.0
H543 H 0.30441 0.73273 0.09094 0.0
H544 H 0.32541 0.86258 0.05545 0.0
H545 H 0.30156 0.83233 0.15044 0.0
H546 H 0.27191 0.82386 0.0138 0.0
H547 H 0.29852 0.79046 0.01563 0.0
H548 H 0.31428 0.83027 0.01022 0.0
H549 H 0.23887 0.78617 0.13305 0.0
H550 H 0.27194 0.7855 0.16062 0.0
H551 H 0.2688 0.75592 0.12945 0.0
C552 C 0.78487 0.76187 0.93002 0.0
C553 C 0.77632 0.72977 0.93404 0.0
C554 C 0.76241 0.78444 0.91964 0.0
C555 C 0.73049 0.77475 0.91381 0.0
C556 C 0.72135 0.74269 0.91929 0.0
C557 C 0.74448 0.72047 0.92904 0.0
C558 C 0.77314 0.81842 0.91382 0.0
C559 C 0.68738 0.73173 0.91413 0.0
C560 C 0.67486 0.84559 0.91058 0.0
C561 C 0.67387 0.85168 0.87769 0.0
C562 C 0.69097 0.81886 0.92264 0.0
C563 C 0.70714 0.79833 0.90126 0.0
C564 C 0.70415 0.80305 0.86785 0.0
C565 C 0.68716 0.82962 0.85641 0.0
C566 C 0.69278 0.81412 0.95835 0.0
C567 C 0.7213 0.78182 0.8443 0.0
H568 H 0.80948 0.76911 0.9336 0.0
H569 H 0.73773 0.69567 0.93228 0.0
H570 H 0.7692 0.82486 0.88841 0.0
H571 H 0.75878 0.83514 0.92852 0.0
H572 H 0.79879 0.82205 0.91957 0.0
H573 H 0.6836 0.70667 0.92207 0.0
H574 H 0.67057 0.74746 0.92725 0.0
H575 H 0.68126 0.73342 0.88841 0.0
H576 H 0.66441 0.8627 0.927 0.0
H577 H 0.68665 0.83457 0.83099 0.0
H578 H 0.71681 0.82123 0.96697 0.0
H579 H 0.68927 0.7886 0.96463 0.0
H580 H 0.67467 0.82866 0.97119 0.0
H581 H 0.7474 0.78619 0.84593 0.0
H582 H 0.71358 0.78636 0.81932 0.0
H583 H 0.71717 0.75627 0.85 0.0
C584 C 0.26585 0.1353 0.89452 0.0
C585 C 0.29885 0.13675 0.88928 0.0
C586 C 0.24916 0.16164 0.90643 0.0
C587 C 0.26611 0.18981 0.91429 0.0
C588 C 0.29968 0.19109 0.91003 0.0
C589 C 0.31566 0.16462 0.89693 0.0
C590 C 0.21323 0.15966 0.90948 0.0
C591 C 0.31857 0.22044 0.91907 0.0
C592 C 0.21699 0.26524 0.90948 0.0
C593 C 0.20611 0.26839 0.94099 0.0
C594 C 0.23738 0.24031 0.90072 0.0
C595 C 0.24801 0.21857 0.92428 0.0
C596 C 0.23845 0.22257 0.95652 0.0
C597 C 0.21699 0.24716 0.96443 0.0
C598 C 0.24599 0.23621 0.86589 0.0
C599 C 0.25016 0.20036 0.9824 0.0
H600 H 0.25286 0.11372 0.88838 0.0
H601 H 0.34127 0.16549 0.89317 0.0
H602 H 0.20588 0.16456 0.93444 0.0
H603 H 0.2019 0.1781 0.89414 0.0
H604 H 0.20377 0.13588 0.90245 0.0
H605 H 0.34474 0.21644 0.91731 0.0
H606 H 0.31206 0.2406 0.90316 0.0
H607 H 0.31267 0.22777 0.94386 0.0
H608 H 0.20832 0.28149 0.89124 0.0
H609 H 0.20876 0.2498 0.98883 0.0
H610 H 0.236 0.21335 0.85691 0.0
H611 H 0.27228 0.23503 0.86295 0.0
H612 H 0.2367 0.25597 0.85079 0.0
H613 H 0.23909 0.17648 0.97937 0.0
H614 H 0.24421 0.20934 0.00665 0.0
H615 H 0.27642 0.19721 0.98063 0.0
C616 C 0.05369 0.79537 0.23088 0.0
C617 C 0.04866 0.78695 0.26284 0.0
C618 C 0.06293 0.77232 0.2084 0.0
C619 C 0.06646 0.74003 0.21807 0.0
C620 C 0.05962 0.73113 0.24991 0.0
C621 C 0.05115 0.75479 0.27204 0.0
C622 C 0.07031 0.78276 0.17466 0.0
C623 C 0.06222 0.69684 0.26084 0.0
C624 C 0.06902 0.68321 0.14809 0.0
C625 C 0.10201 0.67977 0.14359 0.0
C626 C 0.05694 0.70083 0.17381 0.0
C627 C 0.07847 0.71603 0.19493 0.0
C628 C 0.11178 0.71083 0.1917 0.0
C629 C 0.12319 0.69236 0.16615 0.0
C630 C 0.02125 0.70499 0.17702 0.0
C631 C 0.1355 0.7269 0.21361 0.0
H632 H 0.05206 0.82023 0.22379 0.0
H633 H 0.04707 0.74821 0.29676 0.0
H634 H 0.09571 0.77762 0.16906 0.0
H635 H 0.0555 0.76912 0.15745 0.0
H636 H 0.06592 0.80868 0.1709 0.0
H637 H 0.053 0.69344 0.28549 0.0
H638 H 0.04879 0.68091 0.24446 0.0
H639 H 0.08758 0.68919 0.26023 0.0
H640 H 0.05268 0.67331 0.13059 0.0
H641 H 0.14871 0.68997 0.1624 0.0
H642 H 0.01452 0.72954 0.1696 0.0
H643 H 0.01372 0.70194 0.20224 0.0
H644 H 0.00785 0.68773 0.16196 0.0
H645 H 0.13512 0.75307 0.20932 0.0
H646 H 0.16024 0.7181 0.20977 0.0
H647 H 0.1289 0.72293 0.23895 0.0
C648 C 0.04923 0.18822 0.77046 0.0
C649 C 0.04028 0.19664 0.73935 0.0
C650 C 0.0578 0.21174 0.79273 0.0
C651 C 0.05656 0.2444 0.78384 0.0
C652 C 0.04556 0.25307 0.7531 0.0
C653 C 0.03795 0.22903 0.73105 0.0
C654 C 0.06981 0.20153 0.82519 0.0
C655 C 0.04298 0.28765 0.74311 0.0
C656 C 0.06091 0.30138 0.85388 0.0
C657 C 0.09346 0.30926 0.85406 0.0
C658 C 0.04806 0.28185 0.82993 0.0
C659 C 0.06851 0.26919 0.80621 0.0
C660 C 0.10113 0.2783 0.80545 0.0
C661 C 0.11315 0.29864 0.82923 0.0
C662 C 0.01299 0.2735 0.83095 0.0
C663 C 0.12379 0.26491 0.78079 0.0
H664 H 0.05134 0.1632 0.77682 0.0
H665 H 0.03084 0.23558 0.70702 0.0
H666 H 0.09505 0.20911 0.82812 0.0
H667 H 0.05577 0.21335 0.84429 0.0
H668 H 0.0684 0.17525 0.82868 0.0
H669 H 0.03058 0.29043 0.71981 0.0
H670 H 0.02988 0.30159 0.76145 0.0
H671 H 0.06721 0.29816 0.74102 0.0
H672 H 0.04566 0.30978 0.87307 0.0
H673 H 0.13839 0.30446 0.82959 0.0
H674 H 0.01008 0.24816 0.83815 0.0
H675 H 0.0021 0.27622 0.80694 0.0
H676 H -0.00037 0.28867 0.84815 0.0
H677 H 0.12607 0.2387 0.78418 0.0
H678 H 0.14796 0.27577 0.78238 0.0
H679 H 0.11429 0.26892 0.7564 0.0
C680 C 0.91882 0.66607 0.83863 0.0
C681 C 0.88566 0.66608 0.84317 0.0
C682 C 0.93255 0.68168 0.81241 0.0
C683 C 0.9126 0.69853 0.79098 0.0
C684 C 0.87893 0.69654 0.79417 0.0
C685 C 0.8658 0.6799 0.82014 0.0
C686 C 0.96846 0.68225 0.80916 0.0
C687 C 0.85686 0.71449 0.77199 0.0
C688 C 0.94315 0.77615 0.75584 0.0
C689 C 0.94666 0.768 0.72362 0.0
C690 C 0.93284 0.75342 0.77819 0.0
C691 C 0.92676 0.72165 0.76812 0.0
C692 C 0.93246 0.7128 0.73605 0.0
C693 C 0.94192 0.73623 0.71403 0.0
C694 C 0.92675 0.76388 0.81218 0.0
C695 C 0.9273 0.67895 0.72471 0.0
H696 H 0.93411 0.65525 0.85654 0.0
H697 H 0.84018 0.68017 0.82396 0.0
H698 H 0.97566 0.67904 0.78386 0.0
H699 H 0.97768 0.70578 0.81715 0.0
H700 H 0.97998 0.66336 0.82382 0.0
H701 H 0.83142 0.70791 0.77573 0.0
H702 H 0.85951 0.74055 0.77614 0.0
H703 H 0.86322 0.70982 0.74672 0.0
H704 H 0.94654 0.80074 0.76324 0.0
H705 H 0.94484 0.72985 0.6891 0.0
H706 H 0.94056 0.74879 0.82901 0.0
H707 H 0.90107 0.76077 0.81801 0.0
H708 H 0.93332 0.78928 0.81625 0.0
H709 H 0.93864 0.66172 0.74137 0.0
H710 H 0.93709 0.67502 0.70036 0.0
H711 H 0.90135 0.67358 0.72425 0.0
C712 C 0.94724 0.24557 0.27618 0.0
C713 C 0.95104 0.21375 0.26636 0.0
C714 C 0.93918 0.26954 0.25419 0.0
C715 C 0.93388 0.2612 0.2219 0.0
C716 C 0.93911 0.22935 0.21163 0.0
C717 C 0.94808 0.20606 0.23398 0.0
C718 C 0.93494 0.30342 0.26579 0.0
C719 C 0.93333 0.21944 0.17743 0.0
C720 C 0.87461 0.30632 0.17063 0.0
C721 C 0.89499 0.32052 0.14827 0.0
C722 C 0.88705 0.28813 0.19588 0.0
C723 C 0.92062 0.28496 0.19915 0.0
C724 C 0.94122 0.30179 0.17832 0.0
C725 C 0.92813 0.31898 0.15275 0.0
C726 C 0.86428 0.2702 0.21738 0.0
C727 C 0.97707 0.29995 0.18173 0.0
H728 H 0.94973 0.25156 0.30125 0.0
H729 H 0.95074 0.18142 0.22641 0.0
H730 H 0.9471 0.32043 0.24948 0.0
H731 H 0.90918 0.30961 0.2659 0.0
H732 H 0.94446 0.30679 0.29032 0.0
H733 H 0.93948 0.19398 0.17314 0.0
H734 H 0.90779 0.22308 0.17131 0.0
H735 H 0.94763 0.23448 0.16096 0.0
H736 H 0.84899 0.30728 0.16692 0.0
H737 H 0.94387 0.33016 0.13546 0.0
H738 H 0.87021 0.27451 0.24282 0.0
H739 H 0.86667 0.24415 0.21301 0.0
H740 H 0.83901 0.27715 0.21325 0.0
H741 H 0.98421 0.30263 0.20712 0.0
H742 H 0.98935 0.31859 0.16736 0.0
H743 H 0.98553 0.2762 0.17355 0.0
C744 C 0.02893 0.04856 0.57776 0.0
C745 C 0.01262 0.06599 0.60134 0.0
C746 C 0.02218 0.01617 0.57246 0.0
C747 C -0.00147 0.00093 0.59115 0.0
C748 C 0.9808 0.01881 0.61376 0.0
C749 C 0.9881 0.05117 0.61862 0.0
C750 C 0.04142 -0.00204 0.54797 0.0
C751 C 0.95497 0.00345 0.63375 0.0
C752 C 0.9625 0.92095 0.56904 0.0
C753 C 0.97744 0.90057 0.59112 0.0
C754 C 0.97025 0.95351 0.56759 0.0
C755 C 0.99352 0.9659 0.58869 0.0
C756 C 0.01027 0.94504 0.60943 0.0
C757 C 0.002 0.91257 0.61041 0.0
C758 C 0.95217 0.97493 0.54485 0.0
C759 C 0.0357 0.95733 0.63186 0.0
H760 H 0.0478 0.05991 0.56413 0.0
H761 H 0.9753 0.06454 0.63672 0.0
H762 H 0.05785 0.98124 0.56036 0.0
H763 H 0.02558 0.98341 0.5325 0.0
H764 H 0.05585 0.01409 0.53259 0.0
H765 H 0.94195 0.02112 0.64866 0.0
H766 H 0.93751 0.991 0.61817 0.0
H767 H 0.96571 0.98522 0.64973 0.0
H768 H 0.94369 0.91176 0.5538 0.0
H769 H 0.01377 0.89693 0.62737 0.0
H770 H 0.96883 0.99065 0.53151 0.0
H771 H 0.93584 0.99062 0.55862 0.0
H772 H 0.93776 0.96107 0.52739 0.0
H773 H 0.05342 0.97192 0.61859 0.0
H774 H 0.04846 0.93767 0.64431 0.0
H775 H 0.0246 0.97303 0.6501 0.0
C776 C 0.00034 0.06794 0.38391 0.0
C777 C 0.97402 0.07978 0.40083 0.0
C778 C 0.00961 0.03587 0.38692 0.0
C779 C 0.99214 0.01529 0.40736 0.0
C780 C 0.96699 0.02766 0.42618 0.0
C781 C 0.95821 0.0598 0.42268 0.0
C782 C 0.03693 0.02359 0.36683 0.0
C783 C 0.94806 0.00657 0.44854 0.0
C784 C 0.9915 0.92897 0.38028 0.0
C785 C 0.01555 0.9157 0.39938 0.0
C786 C 0.98271 0.96112 0.38362 0.0
C787 C -0.00164 0.98038 0.40663 0.0
C788 C 0.02129 0.96665 0.42727 0.0
C789 C 0.02964 0.93442 0.42338 0.0
C790 C 0.95773 0.97485 0.36149 0.0
C791 C 0.03816 0.98632 0.45237 0.0
H792 H 0.01276 0.08329 0.36714 0.0
H793 H 0.93803 0.06891 0.4361 0.0
H794 H 0.05415 0.0102 0.38189 0.0
H795 H 0.02764 0.00677 0.34857 0.0
H796 H 0.04988 0.04318 0.35443 0.0
H797 H 0.93244 0.02067 0.4647 0.0
H798 H 0.9328 0.99018 0.43436 0.0
H799 H 0.9642 0.99158 0.46326 0.0
H800 H 0.9804 0.91459 0.36182 0.0
H801 H 0.04809 0.92423 0.43843 0.0
H802 H 0.9689 0.99284 0.34552 0.0
H803 H 0.93893 0.98726 0.37545 0.0
H804 H 0.94625 0.95622 0.34648 0.0
H805 H 0.05434 0.0037 0.44057 0.0
H806 H 0.05254 0.97129 0.46886 0.0
H807 H 0.0207 0.00024 0.46662 0.0
C808 C 0.57684 0.96634 0.92548 0.0
C809 C 0.60012 0.98209 0.90714 0.0
C810 C 0.57311 0.97305 0.95807 0.0
C811 C 0.59312 -0.00394 0.97257 0.0
C812 C 0.61527 0.01344 0.95377 0.0
C813 C 0.61852 0.00623 0.92123 0.0
C814 C 0.54898 0.95428 0.97727 0.0
C815 C 0.63669 0.03855 0.96836 0.0
C816 C 0.57693 0.03089 0.05443 0.0
C817 C 0.59961 0.01469 0.07311 0.0
C818 C 0.57332 0.024 0.02187 0.0
C819 C 0.59286 0.00036 0.00774 0.0
C820 C 0.61425 0.98246 0.02693 0.0
C821 C 0.61736 0.98984 0.05944 0.0
C822 C 0.54995 0.04329 0.00227 0.0
C823 C 0.63512 0.95667 0.01275 0.0
H824 H 0.56232 0.94783 0.91467 0.0
H825 H 0.6364 0.01861 0.90715 0.0
H826 H 0.56168 0.93769 0.99359 0.0
H827 H 0.53436 0.97048 0.9923 0.0
H828 H 0.53275 0.94007 0.96182 0.0
H829 H 0.65081 0.05161 0.95006 0.0
H830 H 0.62228 0.05608 0.98205 0.0
H831 H 0.65349 0.02709 0.98536 0.0
H832 H 0.56288 0.04994 0.06494 0.0
H833 H 0.63476 0.97711 0.07378 0.0
H834 H 0.53523 0.02744 0.98698 0.0
H835 H 0.5633 0.05962 0.9862 0.0
H836 H 0.53378 0.05785 0.01747 0.0
H837 H 0.62046 0.93962 -0.00126 0.0
H838 H 0.64843 0.94316 0.03132 0.0
H839 H 0.65265 0.96761 -0.00387 0.0
C840 C 0.3767 0.00275 0.06383 0.0
C841 C 0.3946 0.97753 0.0766 0.0
C842 C 0.37961 0.01123 0.03155 0.0
C843 C 0.40094 0.99407 0.01166 0.0
C844 C 0.42029 0.96969 0.02479 0.0
C845 C 0.41689 0.96172 0.05714 0.0
C846 C 0.35889 0.0377 0.01842 0.0
C847 C 0.44353 0.9511 0.0044 0.0
C848 C 0.37752 0.99395 0.92423 0.0
C849 C 0.39641 0.01885 0.91225 0.0
C850 C 0.3798 0.98464 0.95635 0.0
C851 C 0.40155 0.00058 0.97681 0.0
C852 C 0.42211 0.02431 0.96433 0.0
C853 C 0.41926 0.03319 0.93218 0.0
C854 C 0.35777 0.9589 0.96877 0.0
C855 C 0.44592 0.04152 0.98529 0.0
H856 H 0.35953 0.01511 0.07876 0.0
H857 H 0.43099 0.94232 0.06692 0.0
H858 H 0.37382 0.05567 0.00589 0.0
H859 H 0.34191 0.02774 0.00067 0.0
H860 H 0.34499 0.04997 0.03741 0.0
H861 H 0.4588 0.93487 0.01883 0.0
H862 H 0.43014 0.93655 0.98675 0.0
H863 H 0.45917 0.96759 0.99076 0.0
H864 H 0.35991 0.98272 0.90893 0.0
H865 H 0.43418 0.05225 0.92295 0.0
H866 H 0.34053 0.96947 0.9859 0.0
H867 H 0.37161 0.94045 0.98185 0.0
H868 H 0.34414 0.94709 0.94931 0.0
H869 H 0.43297 0.05689 0.00256 0.0
H870 H 0.46247 0.05678 0.97122 0.0
H871 H 0.46022 0.02419 -0.00067 0.0
C872 C 0.92159 0.61745 0.00058 0.0
C873 C 0.90901 0.59776 0.97663 0.0
C874 C 0.95384 0.61523 0.00942 0.0
C875 C 0.9739 0.59284 0.99388 0.0
C876 C 0.96091 0.57165 0.97102 0.0
C877 C 0.92859 0.57435 0.96268 0.0
C878 C 0.96678 0.63784 0.03437 0.0
C879 C 0.98146 0.54723 0.95419 0.0
C880 C 0.06115 0.61687 0.99093 0.0
C881 C 0.07378 0.59947 0.01657 0.0
C882 C 0.02886 0.61393 0.98247 0.0
C883 C 0.0088 0.59314 0.00014 0.0
C884 C 0.02181 0.57421 0.0249 0.0
C885 C 0.05418 0.57759 0.03281 0.0
C886 C 0.0159 0.63407 0.95548 0.0
C887 C 0.00126 0.55159 0.04411 0.0
H888 H 0.90657 0.63546 0.01155 0.0
H889 H 0.91896 0.55885 0.94431 0.0
H890 H 0.97972 0.62432 0.05314 0.0
H891 H 0.98415 0.65446 0.02318 0.0
H892 H 0.94762 0.65216 0.04586 0.0
H893 H 0.96704 0.53016 0.93988 0.0
H894 H -0.00163 0.55963 0.93797 0.0
H895 H -0.00408 0.53353 0.97167 0.0
H896 H 0.0762 0.63368 0.97819 0.0
H897 H 0.06382 0.56387 0.05255 0.0
H898 H -0.00148 0.65165 0.96505 0.0
H899 H 0.00297 0.61883 0.93808 0.0
H900 H 0.03504 0.64727 0.94267 0.0
H901 H 0.98493 0.56558 0.0596 0.0
H902 H 0.01574 0.53553 0.0595 0.0
H903 H 0.9862 0.53672 0.02817 0.0
C904 C 0.06399 0.3889 0.00076 0.0
C905 C 0.07532 0.40573 0.97415 0.0
C906 C 0.03231 0.39248 0.01104 0.0
C907 C 0.01166 0.41349 0.99437 0.0
C908 C 0.0237 0.43243 0.96913 0.0
C909 C 0.05541 0.42824 0.95923 0.0
C910 C 0.02039 0.3722 0.03841 0.0
C911 C 0.00261 0.4555 0.9511 0.0
C912 C 0.92551 0.38622 -0.00534 0.0
C913 C 0.91272 0.40446 0.01962 0.0
C914 C 0.9574 0.39004 0.98524 0.0
C915 C 0.97686 0.41274 0.00108 0.0
C916 C 0.96351 0.43274 0.02479 0.0
C917 C 0.93155 0.4283 0.03386 0.0
C918 C 0.9707 0.36859 0.95945 0.0
C919 C 0.98336 0.45765 0.04172 0.0
H920 H 0.07932 0.37163 0.01251 0.0
H921 H 0.06417 0.44164 0.93887 0.0
H922 H 0.00752 0.38719 0.05606 0.0
H923 H 0.00323 0.35418 0.02927 0.0
H924 H 0.04012 0.35948 0.05081 0.0
H925 H 0.01682 0.47279 0.93681 0.0
H926 H 0.98695 0.44193 0.93459 0.0
H927 H 0.98693 0.469 0.96765 0.0
H928 H 0.91103 0.36794 0.98341 0.0
H929 H 0.92169 0.44272 0.05297 0.0
H930 H 0.98898 0.35245 0.96985 0.0
H931 H 0.98262 0.38308 0.94073 0.0
H932 H 0.9519 0.35375 0.94801 0.0
H933 H 0.00053 0.44565 0.05796 0.0
H934 H 0.96842 0.47424 0.05606 0.0
H935 H -0.0025 0.47182 0.02433 0.0
loop_
_geom_bond_atom_site_label_1
_geom_bond_atom_site_label_2
_geom_bond_distance
_geom_bond_site_symmetry_2
_ccdc_geom_bond_type
C0 O1 1.306 . S
C0 O3 1.160 . S
O1 C0 1.306 . S
O1 Cd2 2.228 . S
Cd2 O1 2.228 . S
Cd2 O6 2.273 . S
Cd2 O10 2.277 . S
O3 C0 1.160 . S
O3 Cd4 2.203 . S
Cd4 O3 2.203 . S
Cd4 O6 2.411 . S
Cd4 O7 2.333 . S
Cd4 O8 2.352 . S
Cd4 O12 2.277 . S
Cd4 O13 2.356 . S
C5 O10 1.209 . S
C5 O12 1.226 . S
O6 Cd2 2.273 . S
O6 Cd4 2.411 . S
O6 C9 1.320 . S
O7 Cd4 2.333 . S
O7 C9 1.214 . S
O8 Cd4 2.352 . S
O8 C11 1.258 . S
C9 O6 1.320 . S
C9 O7 1.214 . S
O10 Cd2 2.277 . S
O10 C5 1.209 . S
C11 O8 1.258 . S
C11 O13 1.282 . S
O12 Cd4 2.277 . S
O12 C5 1.226 . S
O13 Cd4 2.356 . S
O13 C11 1.282 . S
C14 O15 1.306 . S
C14 O17 1.160 . S
O15 C14 1.306 . S
O15 Cd16 2.228 . S
Cd16 O15 2.228 . S
Cd16 O20 2.273 . S
Cd16 O24 2.277 . S
O17 C14 1.160 . S
O17 Cd18 2.203 . S
Cd18 O17 2.203 . S
Cd18 O20 2.411 . S
Cd18 O21 2.333 . S
Cd18 O22 2.352 . S
Cd18 O26 2.277 . S
Cd18 O27 2.356 . S
C19 O24 1.209 . S
C19 O26 1.226 . S
O20 Cd16 2.273 . S
O20 Cd18 2.411 . S
O20 C23 1.320 . S
O21 Cd18 2.333 . S
O21 C23 1.214 . S
O22 Cd18 2.352 . S
O22 C25 1.258 . S
C23 O20 1.320 . S
C23 O21 1.214 . S
O24 Cd16 2.277 . S
O24 C19 1.209 . S
C25 O22 1.258 . S
C25 O27 1.282 . S
O26 Cd18 2.277 . S
O26 C19 1.226 . S
O27 Cd18 2.356 . S
O27 C25 1.282 . S
C28 O29 1.306 . S
C28 O31 1.160 . S
O29 C28 1.306 . S
O29 Cd30 2.228 . S
Cd30 O29 2.228 . S
Cd30 O34 2.273 . S
Cd30 O38 2.277 . S
O31 C28 1.160 . S
O31 Cd32 2.203 . S
Cd32 O31 2.203 . S
Cd32 O34 2.411 . S
Cd32 O35 2.333 . S
Cd32 O36 2.352 . S
Cd32 O40 2.277 . S
Cd32 O41 2.356 . S
C33 O38 1.209 . S
C33 O40 1.226 . S
O34 Cd30 2.273 . S
O34 Cd32 2.411 . S
O34 C37 1.320 . S
O35 Cd32 2.333 . S
O35 C37 1.214 . S
O36 Cd32 2.352 . S
O36 C39 1.258 . S
C37 O34 1.320 . S
C37 O35 1.214 . S
O38 Cd30 2.277 . S
O38 C33 1.209 . S
C39 O36 1.258 . S
C39 O41 1.282 . S
O40 Cd32 2.277 . S
O40 C33 1.226 . S
O41 Cd32 2.356 . S
O41 C39 1.282 . S
C42 O43 1.306 . S
C42 O45 1.160 . S
O43 C42 1.306 . S
O43 Cd44 2.228 . S
Cd44 O43 2.228 . S
Cd44 O48 2.273 . S
Cd44 O52 2.277 . S
O45 C42 1.160 . S
O45 Cd46 2.203 . S
Cd46 O45 2.203 . S
Cd46 O48 2.411 . S
Cd46 O49 2.333 . S
Cd46 O50 2.352 . S
Cd46 O54 2.277 . S
Cd46 O55 2.356 . S
C47 O52 1.209 . S
C47 O54 1.226 . S
O48 Cd44 2.273 . S
O48 Cd46 2.411 . S
O48 C51 1.320 . S
O49 Cd46 2.333 . S
O49 C51 1.214 . S
O50 Cd46 2.352 . S
O50 C53 1.258 . S
C51 O48 1.320 . S
C51 O49 1.214 . S
O52 Cd44 2.277 . S
O52 C47 1.209 . S
C53 O50 1.258 . S
C53 O55 1.282 . S
O54 Cd46 2.277 . S
O54 C47 1.226 . S
O55 Cd46 2.356 . S
O55 C53 1.282 . S
C56 O57 1.306 . S
C56 O59 1.160 . S
O57 C56 1.306 . S
O57 Cd58 2.228 . S
Cd58 O57 2.228 . S
Cd58 O62 2.273 . S
Cd58 O66 2.277 . S
O59 C56 1.160 . S
O59 Cd60 2.203 . S
Cd60 O59 2.203 . S
Cd60 O62 2.411 . S
Cd60 O63 2.333 . S
Cd60 O64 2.352 . S
Cd60 O68 2.277 . S
Cd60 O69 2.356 . S
C61 O66 1.209 . S
C61 O68 1.226 . S
O62 Cd58 2.273 . S
O62 Cd60 2.411 . S
O62 C65 1.320 . S
O63 Cd60 2.333 . S
O63 C65 1.214 . S
O64 Cd60 2.352 . S
O64 C67 1.258 . S
C65 O62 1.320 . S
C65 O63 1.214 . S
O66 Cd58 2.277 . S
O66 C61 1.209 . S
C67 O64 1.258 . S
C67 O69 1.282 . S
O68 Cd60 2.277 . S
O68 C61 1.226 . S
O69 Cd60 2.356 . S
O69 C67 1.282 . S
C70 O71 1.306 . S
C70 O73 1.160 . S
O71 C70 1.306 . S
O71 Cd72 2.228 . S
Cd72 O71 2.228 . S
Cd72 O76 2.273 . S
Cd72 O80 2.277 . S
O73 C70 1.160 . S
O73 Cd74 2.203 . S
Cd74 O73 2.203 . S
Cd74 O76 2.411 . S
Cd74 O77 2.333 . S
Cd74 O78 2.352 . S
Cd74 O82 2.277 . S
Cd74 O83 2.356 . S
C75 O80 1.209 . S
C75 O82 1.226 . S
O76 Cd72 2.273 . S
O76 Cd74 2.411 . S
O76 C79 1.320 . S
O77 Cd74 2.333 . S
O77 C79 1.214 . S
O78 Cd74 2.352 . S
O78 C81 1.258 . S
C79 O76 1.320 . S
C79 O77 1.214 . S
O80 Cd72 2.277 . S
O80 C75 1.209 . S
C81 O78 1.258 . S
C81 O83 1.282 . S
O82 Cd74 2.277 . S
O82 C75 1.226 . S
O83 Cd74 2.356 . S
O83 C81 1.282 . S
C84 O85 1.306 . S
C84 O87 1.160 . S
O85 C84 1.306 . S
O85 Cd86 2.228 . S
Cd86 O85 2.228 . S
Cd86 O90 2.273 . S
Cd86 O94 2.277 . S
O87 C84 1.160 . S
O87 Cd88 2.203 . S
Cd88 O87 2.203 . S
Cd88 O90 2.411 . S
Cd88 O91 2.333 . S
Cd88 O92 2.352 . S
Cd88 O96 2.277 . S
Cd88 O97 2.356 . S
C89 O94 1.209 . S
C89 O96 1.226 . S
O90 Cd86 2.273 . S
O90 Cd88 2.411 . S
O90 C93 1.320 . S
O91 Cd88 2.333 . S
O91 C93 1.214 . S
O92 Cd88 2.352 . S
O92 C95 1.258 . S
C93 O90 1.320 . S
C93 O91 1.214 . S
O94 Cd86 2.277 . S
O94 C89 1.209 . S
C95 O92 1.258 . S
C95 O97 1.282 . S
O96 Cd88 2.277 . S
O96 C89 1.226 . S
O97 Cd88 2.356 . S
O97 C95 1.282 . S
C98 O99 1.306 . S
C98 O101 1.160 . S
O99 C98 1.306 . S
O99 Cd100 2.228 . S
Cd100 O99 2.228 . S
Cd100 O104 2.273 . S
Cd100 O108 2.277 . S
O101 C98 1.160 . S
O101 Cd102 2.203 . S
Cd102 O101 2.203 . S
Cd102 O104 2.411 . S
Cd102 O105 2.333 . S
Cd102 O106 2.352 . S
Cd102 O110 2.277 . S
Cd102 O111 2.356 . S
C103 O108 1.209 . S
C103 O110 1.226 . S
O104 Cd100 2.273 . S
O104 Cd102 2.411 . S
O104 C107 1.320 . S
O105 Cd102 2.333 . S
O105 C107 1.214 . S
O106 Cd102 2.352 . S
O106 C109 1.258 . S
C107 O104 1.320 . S
C107 O105 1.214 . S
O108 Cd100 2.277 . S
O108 C103 1.209 . S
C109 O106 1.258 . S
C109 O111 1.282 . S
O110 Cd102 2.277 . S
O110 C103 1.226 . S
O111 Cd102 2.356 . S
O111 C109 1.282 . S
C112 O113 1.306 . S
C112 O115 1.160 . S
O113 C112 1.306 . S
O113 Cd114 2.228 . S
Cd114 O113 2.228 . S
Cd114 O118 2.273 . S
Cd114 O122 2.277 . S
O115 C112 1.160 . S
O115 Cd116 2.203 . S
Cd116 O115 2.203 . S
Cd116 O118 2.411 . S
Cd116 O119 2.333 . S
Cd116 O120 2.352 . S
Cd116 O124 2.277 . S
Cd116 O125 2.356 . S
C117 O122 1.209 . S
C117 O124 1.226 . S
O118 Cd114 2.273 . S
O118 Cd116 2.411 . S
O118 C121 1.320 . S
O119 Cd116 2.333 . S
O119 C121 1.214 . S
O120 Cd116 2.352 . S
O120 C123 1.258 . S
C121 O118 1.320 . S
C121 O119 1.214 . S
O122 Cd114 2.277 . S
O122 C117 1.209 . S
C123 O120 1.258 . S
C123 O125 1.282 . S
O124 Cd116 2.277 . S
O124 C117 1.226 . S
O125 Cd116 2.356 . S
O125 C123 1.282 . S
C126 O127 1.306 . S
C126 O129 1.160 . S
O127 C126 1.306 . S
O127 Cd128 2.228 . S
Cd128 O127 2.228 . S
Cd128 O132 2.273 . S
Cd128 O136 2.277 . S
O129 C126 1.160 . S
O129 Cd130 2.203 . S
Cd130 O129 2.203 . S
Cd130 O132 2.411 . S
Cd130 O133 2.333 . S
Cd130 O134 2.352 . S
Cd130 O138 2.277 . S
Cd130 O139 2.356 . S
C131 O136 1.209 . S
C131 O138 1.226 . S
O132 Cd128 2.273 . S
O132 Cd130 2.411 . S
O132 C135 1.320 . S
O133 Cd130 2.333 . S
O133 C135 1.214 . S
O134 Cd130 2.352 . S
O134 C137 1.258 . S
C135 O132 1.320 . S
C135 O133 1.214 . S
O136 Cd128 2.277 . S
O136 C131 1.209 . S
C137 O134 1.258 . S
C137 O139 1.282 . S
O138 Cd130 2.277 . S
O138 C131 1.226 . S
O139 Cd130 2.356 . S
O139 C137 1.282 . S
C140 O141 1.306 . S
C140 O143 1.160 . S
O141 C140 1.306 . S
O141 Cd142 2.228 . S
Cd142 O141 2.228 . S
Cd142 O146 2.273 . S
Cd142 O150 2.277 . S
O143 C140 1.160 . S
O143 Cd144 2.203 . S
Cd144 O143 2.203 . S
Cd144 O146 2.411 . S
Cd144 O147 2.333 . S
Cd144 O148 2.352 . S
Cd144 O152 2.277 . S
Cd144 O153 2.356 . S
C145 O150 1.209 . S
C145 O152 1.226 . S
O146 Cd142 2.273 . S
O146 Cd144 2.411 . S
O146 C149 1.320 . S
O147 Cd144 2.333 . S
O147 C149 1.214 . S
O148 Cd144 2.352 . S
O148 C151 1.258 . S
C149 O146 1.320 . S
C149 O147 1.214 . S
O150 Cd142 2.277 . S
O150 C145 1.209 . S
C151 O148 1.258 . S
C151 O153 1.282 . S
O152 Cd144 2.277 . S
O152 C145 1.226 . S
O153 Cd144 2.356 . S
O153 C151 1.282 . S
C154 O155 1.306 . S
C154 O157 1.160 . S
O155 C154 1.306 . S
O155 Cd156 2.228 . S
Cd156 O155 2.228 . S
Cd156 O160 2.273 . S
Cd156 O164 2.277 . S
O157 C154 1.160 . S
O157 Cd158 2.203 . S
Cd158 O157 2.203 . S
Cd158 O160 2.411 . S
Cd158 O161 2.333 . S
Cd158 O162 2.352 . S
Cd158 O166 2.277 . S
Cd158 O167 2.356 . S
C159 O164 1.209 . S
C159 O166 1.226 . S
O160 Cd156 2.273 . S
O160 Cd158 2.411 . S
O160 C163 1.320 . S
O161 Cd158 2.333 . S
O161 C163 1.214 . S
O162 Cd158 2.352 . S
O162 C165 1.258 . S
C163 O160 1.320 . S
C163 O161 1.214 . S
O164 Cd156 2.277 . S
O164 C159 1.209 . S
C165 O162 1.258 . S
C165 O167 1.282 . S
O166 Cd158 2.277 . S
O166 C159 1.226 . S
O167 Cd158 2.356 . S
O167 C165 1.282 . S
C168 C169 1.391 . S
C168 C170 1.394 . S
C168 H184 0.931 . S
C169 C168 1.391 . S
C169 C173 1.376 . S
C170 C168 1.394 . S
C170 C171 1.369 . S
C170 C174 1.531 . S
C171 C170 1.369 . S
C171 C172 1.410 . S
C171 C179 1.503 1_655 S
C172 C171 1.410 . S
C172 C173 1.392 . S
C172 C175 1.511 1_655 S
C173 C169 1.376 . S
C173 C172 1.392 . S
C173 H185 0.929 . S
C174 C170 1.531 . S
C174 H186 0.960 . S
C174 H187 0.962 . S
C174 H188 0.960 . S
C175 C172 1.511 1_455 S
C175 H189 0.961 . S
C175 H190 0.961 . S
C175 H191 0.961 . S
C176 C177 1.370 . S
C176 C178 1.363 . S
C176 H192 0.931 . S
C177 C176 1.370 . S
C177 C181 1.408 . S
C178 C176 1.363 . S
C178 C179 1.370 . S
C178 C182 1.524 . S
C179 C171 1.503 1_455 S
C179 C178 1.370 . S
C179 C180 1.403 1_455 S
C180 C179 1.403 1_655 S
C180 C181 1.404 1_655 S
C180 C183 1.539 . S
C181 C177 1.408 . S
C181 C180 1.404 1_455 S
C181 H193 0.930 . S
C182 C178 1.524 . S
C182 H194 0.956 . S
C182 H195 0.961 . S
C182 H196 0.961 . S
C183 C180 1.539 . S
C183 H197 0.958 . S
C183 H198 0.961 . S
C183 H199 0.960 . S
H184 C168 0.931 . S
H185 C173 0.929 . S
H186 C174 0.960 . S
H187 C174 0.962 . S
H188 C174 0.960 . S
H189 C175 0.961 . S
H190 C175 0.961 . S
H191 C175 0.961 . S
H192 C176 0.931 . S
H193 C181 0.930 . S
H194 C182 0.956 . S
H195 C182 0.961 . S
H196 C182 0.961 . S
H197 C183 0.958 . S
H198 C183 0.961 . S
H199 C183 0.960 . S
C200 C201 1.391 . S
C200 C202 1.394 . S
C200 H216 0.931 . S
C201 C200 1.391 . S
C201 C205 1.376 . S
C202 C200 1.394 . S
C202 C203 1.369 . S
C202 C206 1.531 . S
C203 C202 1.369 . S
C203 C204 1.410 1_455 S
C203 C211 1.503 1_455 S
C204 C203 1.410 1_655 S
C204 C205 1.392 1_655 S
C204 C207 1.511 . S
C205 C201 1.376 . S
C205 C204 1.392 1_455 S
C205 H217 0.929 . S
C206 C202 1.531 . S
C206 H218 0.960 . S
C206 H219 0.962 . S
C206 H220 0.960 . S
C207 C204 1.511 . S
C207 H221 0.961 . S
C207 H222 0.961 . S
C207 H223 0.961 . S
C208 C209 1.370 . S
C208 C210 1.363 . S
C208 H224 0.931 . S
C209 C208 1.370 . S
C209 C213 1.408 . S
C210 C208 1.363 . S
C210 C211 1.370 . S
C210 C214 1.524 1_655 S
C211 C203 1.503 1_655 S
C211 C210 1.370 . S
C211 C212 1.403 . S
C212 C211 1.403 . S
C212 C213 1.404 . S
C212 C215 1.539 . S
C213 C209 1.408 . S
C213 C212 1.404 . S
C213 H225 0.930 . S
C214 C210 1.524 1_455 S
C214 H226 0.956 . S
C214 H227 0.961 1_455 S
C214 H228 0.961 1_455 S
C215 C212 1.539 . S
C215 H229 0.958 . S
C215 H230 0.961 . S
C215 H231 0.960 . S
H216 C200 0.931 . S
H217 C205 0.929 . S
H218 C206 0.960 . S
H219 C206 0.962 . S
H220 C206 0.960 . S
H221 C207 0.961 . S
H222 C207 0.961 . S
H223 C207 0.961 . S
H224 C208 0.931 . S
H225 C213 0.930 . S
H226 C214 0.956 . S
H227 C214 0.961 1_655 S
H228 C214 0.961 1_655 S
H229 C215 0.958 . S
H230 C215 0.961 . S
H231 C215 0.960 . S
C232 C233 1.391 . S
C232 C234 1.394 . S
C232 H248 0.931 . S
C233 C232 1.391 . S
C233 C237 1.376 . S
C234 C232 1.394 . S
C234 C235 1.369 . S
C234 C238 1.531 . S
C235 C234 1.369 . S
C235 C236 1.410 . S
C235 C243 1.503 1_565 S
C236 C235 1.410 . S
C236 C237 1.392 . S
C236 C239 1.511 1_565 S
C237 C233 1.376 . S
C237 C236 1.392 . S
C237 H249 0.929 . S
C238 C234 1.531 . S
C238 H250 0.960 . S
C238 H251 0.962 . S
C238 H252 0.960 . S
C239 C236 1.511 1_545 S
C239 H253 0.961 . S
C239 H254 0.961 . S
C239 H255 0.961 . S
C240 C241 1.370 . S
C240 C242 1.363 . S
C240 H256 0.931 . S
C241 C240 1.370 . S
C241 C245 1.408 . S
C242 C240 1.363 . S
C242 C243 1.370 . S
C242 C246 1.524 1_545 S
C243 C235 1.503 1_545 S
C243 C242 1.370 . S
C243 C244 1.403 . S
C244 C243 1.403 . S
C244 C245 1.404 . S
C244 C247 1.539 . S
C245 C241 1.408 . S
C245 C244 1.404 . S
C245 H257 0.930 . S
C246 C242 1.524 1_565 S
C246 H258 0.956 . S
C246 H259 0.961 . S
C246 H260 0.961 . S
C247 C244 1.539 . S
C247 H261 0.958 . S
C247 H262 0.961 . S
C247 H263 0.960 . S
H248 C232 0.931 . S
H249 C237 0.929 . S
H250 C238 0.960 . S
H251 C238 0.962 . S
H252 C238 0.960 . S
H253 C239 0.961 . S
H254 C239 0.961 . S
H255 C239 0.961 . S
H256 C240 0.931 . S
H257 C245 0.930 . S
H258 C246 0.956 . S
H259 C246 0.961 . S
H260 C246 0.961 . S
H261 C247 0.958 . S
H262 C247 0.961 . S
H263 C247 0.960 . S
C264 C265 1.391 . S
C264 C266 1.394 . S
C264 H280 0.931 . S
C265 C264 1.391 . S
C265 C269 1.376 . S
C266 C264 1.394 . S
C266 C267 1.369 . S
C266 C270 1.531 . S
C267 C266 1.369 . S
C267 C268 1.410 . S
C267 C275 1.503 1_565 S
C268 C267 1.410 . S
C268 C269 1.392 . S
C268 C271 1.511 1_565 S
C269 C265 1.376 . S
C269 C268 1.392 . S
C269 H281 0.929 . S
C270 C266 1.531 . S
C270 H282 0.960 . S
C270 H283 0.962 . S
C270 H284 0.960 . S
C271 C268 1.511 1_545 S
C271 H285 0.961 . S
C271 H286 0.961 . S
C271 H287 0.961 . S
C272 C273 1.370 . S
C272 C274 1.368 . S
C272 H288 0.931 . S
C273 C272 1.370 . S
C273 C277 1.408 . S
C274 C272 1.368 . S
C274 C275 1.374 . S
C274 C278 1.516 1_545 S
C275 C267 1.503 1_545 S
C275 C274 1.374 . S
C275 C276 1.403 . S
C276 C275 1.403 . S
C276 C277 1.404 . S
C276 C279 1.539 . S
C277 C273 1.408 . S
C277 C276 1.404 . S
C277 H289 0.930 . S
C278 C274 1.516 1_565 S
C278 H290 0.956 . S
C278 H291 0.961 . S
C278 H292 0.961 . S
C279 C276 1.539 . S
C279 H293 0.958 . S
C279 H294 0.961 . S
C279 H295 0.960 . S
H280 C264 0.931 . S
H281 C269 0.929 . S
H282 C270 0.960 . S
H283 C270 0.962 . S
H284 C270 0.960 . S
H285 C271 0.961 . S
H286 C271 0.961 . S
H287 C271 0.961 . S
H288 C272 0.931 . S
H289 C277 0.930 . S
H290 C278 0.956 . S
H291 C278 0.961 . S
H292 C278 0.961 . S
H293 C279 0.958 . S
H294 C279 0.961 . S
H295 C279 0.960 . S
C296 C297 1.391 . S
C296 C298 1.394 . S
C296 H312 0.931 . S
C297 C296 1.391 . S
C297 C301 1.376 . S
C298 C296 1.394 . S
C298 C299 1.369 . S
C298 C302 1.531 1_556 S
C299 C298 1.369 . S
C299 C300 1.410 . S
C299 C307 1.503 1_556 S
C300 C299 1.410 . S
C300 C301 1.392 . S
C300 C303 1.511 . S
C301 C297 1.376 . S
C301 C300 1.392 . S
C301 H313 0.929 . S
C302 C298 1.531 1_554 S
C302 H314 0.960 . S
C302 H315 0.962 . S
C302 H316 0.960 . S
C303 C300 1.511 . S
C303 H317 0.961 . S
C303 H318 0.961 . S
C303 H319 0.961 . S
C304 C305 1.370 . S
C304 C306 1.350 1_554 S
C304 H320 0.931 . S
C305 C304 1.370 . S
C305 C309 1.408 . S
C306 C304 1.350 1_556 S
C306 C307 1.358 1_556 S
C306 C310 1.550 . S
C307 C299 1.503 1_554 S
C307 C306 1.358 1_554 S
C307 C308 1.403 . S
C308 C307 1.403 . S
C308 C309 1.404 . S
C308 C311 1.539 . S
C309 C305 1.408 . S
C309 C308 1.404 . S
C309 H321 0.930 . S
C310 C306 1.550 . S
C310 H322 0.956 . S
C310 H323 0.961 . S
C310 H324 0.961 . S
C311 C308 1.539 . S
C311 H325 0.958 . S
C311 H326 0.961 . S
C311 H327 0.960 . S
H312 C296 0.931 . S
H313 C301 0.929 . S
H314 C302 0.960 . S
H315 C302 0.962 . S
H316 C302 0.960 . S
H317 C303 0.961 . S
H318 C303 0.961 . S
H319 C303 0.961 . S
H320 C304 0.931 . S
H321 C309 0.930 . S
H322 C310 0.956 . S
H323 C310 0.961 . S
H324 C310 0.961 . S
H325 C311 0.958 . S
H326 C311 0.961 . S
H327 C311 0.960 . S
C328 C329 1.391 . S
C328 C330 1.394 . S
C328 H344 0.931 . S
C329 C328 1.391 . S
C329 C333 1.376 . S
C330 C328 1.394 . S
C330 C331 1.369 . S
C330 C334 1.531 . S
C331 C330 1.369 . S
C331 C332 1.410 1_556 S
C331 C339 1.503 1_556 S
C332 C331 1.410 1_554 S
C332 C333 1.392 1_554 S
C332 C335 1.511 . S
C333 C329 1.376 . S
C333 C332 1.392 1_556 S
C333 H345 0.929 . S
C334 C330 1.531 . S
C334 H346 0.960 . S
C334 H347 0.962 . S
C334 H348 0.960 . S
C335 C332 1.511 . S
C335 H349 0.961 . S
C335 H350 0.961 . S
C335 H351 0.961 . S
C336 C337 1.370 . S
C336 C338 1.363 . S
C336 H352 0.931 . S
C337 C336 1.370 . S
C337 C341 1.408 . S
C338 C336 1.363 . S
C338 C339 1.370 . S
C338 C342 1.524 1_554 S
C339 C331 1.503 1_554 S
C339 C338 1.370 . S
C339 C340 1.403 . S
C340 C339 1.403 . S
C340 C341 1.404 . S
C340 C343 1.539 . S
C341 C337 1.408 . S
C341 C340 1.404 . S
C341 H353 0.930 . S
C342 C338 1.524 1_556 S
C342 H354 0.956 . S
C342 H355 0.961 . S
C342 H356 0.961 . S
C343 C340 1.539 . S
C343 H357 0.958 . S
C343 H358 0.961 . S
C343 H359 0.960 . S
H344 C328 0.931 . S
H345 C333 0.929 . S
H346 C334 0.960 . S
H347 C334 0.962 . S
H348 C334 0.960 . S
H349 C335 0.961 . S
H350 C335 0.961 . S
H351 C335 0.961 . S
H352 C336 0.931 . S
H353 C341 0.930 . S
H354 C342 0.956 . S
H355 C342 0.961 . S
H356 C342 0.961 . S
H357 C343 0.958 . S
H358 C343 0.961 . S
H359 C343 0.960 . S
C360 C361 1.391 . S
C360 C362 1.394 . S
C360 H376 0.931 . S
C361 C360 1.391 . S
C361 C365 1.376 . S
C362 C360 1.394 . S
C362 C363 1.369 . S
C362 C366 1.531 . S
C363 C362 1.369 . S
C363 C364 1.410 . S
C363 C371 1.503 . S
C364 C363 1.410 . S
C364 C365 1.392 . S
C364 C367 1.511 . S
C365 C361 1.376 . S
C365 C364 1.392 . S
C365 H377 0.929 . S
C366 C362 1.531 . S
C366 H378 0.960 . S
C366 H379 0.962 . S
C366 H380 0.960 . S
C367 C364 1.511 . S
C367 H381 0.961 . S
C367 H382 0.961 . S
C367 H383 0.961 . S
C368 C369 1.370 . S
C368 C370 1.363 . S
C368 H384 0.931 . S
C369 C368 1.370 . S
C369 C373 1.408 . S
C370 C368 1.363 . S
C370 C371 1.370 . S
C370 C374 1.524 . S
C371 C363 1.503 . S
C371 C370 1.370 . S
C371 C372 1.403 . S
C372 C371 1.403 . S
C372 C373 1.404 . S
C372 C375 1.539 . S
C373 C369 1.408 . S
C373 C372 1.404 . S
C373 H385 0.930 . S
C374 C370 1.524 . S
C374 H386 0.956 . S
C374 H387 0.961 . S
C374 H388 0.961 . S
C375 C372 1.539 . S
C375 H389 0.958 . S
C375 H390 0.961 . S
C375 H391 0.960 . S
H376 C360 0.931 . S
H377 C365 0.929 . S
H378 C366 0.960 . S
H379 C366 0.962 . S
H380 C366 0.960 . S
H381 C367 0.961 . S
H382 C367 0.961 . S
H383 C367 0.961 . S
H384 C368 0.931 . S
H385 C373 0.930 . S
H386 C374 0.956 . S
H387 C374 0.961 . S
H388 C374 0.961 . S
H389 C375 0.958 . S
H390 C375 0.961 . S
H391 C375 0.960 . S
C392 C393 1.391 . S
C392 C394 1.394 . S
C392 H408 0.931 . S
C393 C392 1.391 . S
C393 C397 1.376 . S
C394 C392 1.394 . S
C394 C395 1.369 . S
C394 C398 1.531 . S
C395 C394 1.369 . S
C395 C396 1.410 . S
C395 C403 1.503 . S
C396 C395 1.410 . S
C396 C397 1.392 . S
C396 C399 1.511 . S
C397 C393 1.376 . S
C397 C396 1.392 . S
C397 H409 0.929 . S
C398 C394 1.531 . S
C398 H410 0.960 . S
C398 H411 0.962 . S
C398 H412 0.960 . S
C399 C396 1.511 . S
C399 H413 0.961 . S
C399 H414 0.961 . S
C399 H415 0.961 . S
C400 C401 1.370 . S
C400 C402 1.363 . S
C400 H416 0.931 . S
C401 C400 1.370 . S
C401 C405 1.408 . S
C402 C400 1.363 . S
C402 C403 1.370 . S
C402 C406 1.524 . S
C403 C395 1.503 . S
C403 C402 1.370 . S
C403 C404 1.403 . S
C404 C403 1.403 . S
C404 C405 1.404 . S
C404 C407 1.539 . S
C405 C401 1.408 . S
C405 C404 1.404 . S
C405 H417 0.930 . S
C406 C402 1.524 . S
C406 H418 0.956 . S
C406 H419 0.961 . S
C406 H420 0.961 . S
C407 C404 1.539 . S
C407 H421 0.958 . S
C407 H422 0.961 . S
C407 H423 0.960 . S
H408 C392 0.931 . S
H409 C397 0.929 . S
H410 C398 0.960 . S
H411 C398 0.962 . S
H412 C398 0.960 . S
H413 C399 0.961 . S
H414 C399 0.961 . S
H415 C399 0.961 . S
H416 C400 0.931 . S
H417 C405 0.930 . S
H418 C406 0.956 . S
H419 C406 0.961 . S
H420 C406 0.961 . S
H421 C407 0.958 . S
H422 C407 0.961 . S
H423 C407 0.960 . S
C424 C425 1.391 . S
C424 C426 1.394 . S
C424 H440 0.931 . S
C425 C424 1.391 . S
C425 C429 1.376 . S
C426 C424 1.394 . S
C426 C427 1.369 . S
C426 C430 1.531 . S
C427 C426 1.369 . S
C427 C428 1.410 . S
C427 C435 1.503 . S
C428 C427 1.410 . S
C428 C429 1.392 . S
C428 C431 1.511 . S
C429 C425 1.376 . S
C429 C428 1.392 . S
C429 H441 0.929 . S
C430 C426 1.531 . S
C430 H442 0.960 . S
C430 H443 0.962 . S
C430 H444 0.960 . S
C431 C428 1.511 . S
C431 H445 0.961 . S
C431 H446 0.961 . S
C431 H447 0.961 . S
C432 C433 1.370 . S
C432 C434 1.363 . S
C432 H448 0.931 . S
C433 C432 1.370 . S
C433 C437 1.408 . S
C434 C432 1.363 . S
C434 C435 1.370 . S
C434 C438 1.524 . S
C435 C427 1.503 . S
C435 C434 1.370 . S
C435 C436 1.403 . S
C436 C435 1.403 . S
C436 C437 1.404 . S
C436 C439 1.539 . S
C437 C433 1.408 . S
C437 C436 1.404 . S
C437 H449 0.930 . S
C438 C434 1.524 . S
C438 H450 0.956 . S
C438 H451 0.961 . S
C438 H452 0.961 . S
C439 C436 1.539 . S
C439 H453 0.958 . S
C439 H454 0.961 . S
C439 H455 0.960 . S
H440 C424 0.931 . S
H441 C429 0.929 . S
H442 C430 0.960 . S
H443 C430 0.962 . S
H444 C430 0.960 . S
H445 C431 0.961 . S
H446 C431 0.961 . S
H447 C431 0.961 . S
H448 C432 0.931 . S
H449 C437 0.930 . S
H450 C438 0.956 . S
H451 C438 0.961 . S
H452 C438 0.961 . S
H453 C439 0.958 . S
H454 C439 0.961 . S
H455 C439 0.960 . S
C456 C457 1.391 . S
C456 C458 1.394 . S
C456 H472 0.931 . S
C457 C456 1.391 . S
C457 C461 1.376 . S
C458 C456 1.394 . S
C458 C459 1.369 . S
C458 C462 1.531 . S
C459 C458 1.369 . S
C459 C460 1.410 . S
C459 C467 1.503 . S
C460 C459 1.410 . S
C460 C461 1.392 . S
C460 C463 1.511 . S
C461 C457 1.376 . S
C461 C460 1.392 . S
C461 H473 0.929 . S
C462 C458 1.531 . S
C462 H474 0.960 . S
C462 H475 0.962 . S
C462 H476 0.960 . S
C463 C460 1.511 . S
C463 H477 0.961 . S
C463 H478 0.961 . S
C463 H479 0.961 . S
C464 C465 1.370 . S
C464 C466 1.363 . S
C464 H480 0.931 . S
C465 C464 1.370 . S
C465 C469 1.408 . S
C466 C464 1.363 . S
C466 C467 1.370 . S
C466 C470 1.524 . S
C467 C459 1.503 . S
C467 C466 1.370 . S
C467 C468 1.403 . S
C468 C467 1.403 . S
C468 C469 1.404 . S
C468 C471 1.539 . S
C469 C465 1.408 . S
C469 C468 1.404 . S
C469 H481 0.930 . S
C470 C466 1.524 . S
C470 H482 0.956 . S
C470 H483 0.961 . S
C470 H484 0.961 . S
C471 C468 1.539 . S
C471 H485 0.958 . S
C471 H486 0.961 . S
C471 H487 0.960 . S
H472 C456 0.931 . S
H473 C461 0.929 . S
H474 C462 0.960 . S
H475 C462 0.962 . S
H476 C462 0.960 . S
H477 C463 0.961 . S
H478 C463 0.961 . S
H479 C463 0.961 . S
H480 C464 0.931 . S
H481 C469 0.930 . S
H482 C470 0.956 . S
H483 C470 0.961 . S
H484 C470 0.961 . S
H485 C471 0.958 . S
H486 C471 0.961 . S
H487 C471 0.960 . S
C488 C489 1.391 . S
C488 C490 1.394 . S
C488 H504 0.931 . S
C489 C488 1.391 . S
C489 C493 1.376 . S
C490 C488 1.394 . S
C490 C491 1.369 . S
C490 C494 1.531 . S
C491 C490 1.369 . S
C491 C492 1.410 . S
C491 C499 1.503 . S
C492 C491 1.410 . S
C492 C493 1.392 . S
C492 C495 1.511 . S
C493 C489 1.376 . S
C493 C492 1.392 . S
C493 H505 0.929 . S
C494 C490 1.531 . S
C494 H506 0.960 . S
C494 H507 0.962 . S
C494 H508 0.960 . S
C495 C492 1.511 . S
C495 H509 0.961 . S
C495 H510 0.961 . S
C495 H511 0.961 . S
C496 C497 1.370 . S
C496 C498 1.363 . S
C496 H512 0.931 . S
C497 C496 1.370 . S
C497 C501 1.408 . S
C498 C496 1.363 . S
C498 C499 1.370 . S
C498 C502 1.524 . S
C499 C491 1.503 . S
C499 C498 1.370 . S
C499 C500 1.403 . S
C500 C499 1.403 . S
C500 C501 1.404 . S
C500 C503 1.539 . S
C501 C497 1.408 . S
C501 C500 1.404 . S
C501 H513 0.930 . S
C502 C498 1.524 . S
C502 H514 0.956 . S
C502 H515 0.961 . S
C502 H516 0.961 . S
C503 C500 1.539 . S
C503 H517 0.958 . S
C503 H518 0.961 . S
C503 H519 0.960 . S
H504 C488 0.931 . S
H505 C493 0.929 . S
H506 C494 0.960 . S
H507 C494 0.962 . S
H508 C494 0.960 . S
H509 C495 0.961 . S
H510 C495 0.961 . S
H511 C495 0.961 . S
H512 C496 0.931 . S
H513 C501 0.930 . S
H514 C502 0.956 . S
H515 C502 0.961 . S
H516 C502 0.961 . S
H517 C503 0.958 . S
H518 C503 0.961 . S
H519 C503 0.960 . S
C520 C521 1.391 . S
C520 C522 1.394 . S
C520 H536 0.931 . S
C521 C520 1.391 . S
C521 C525 1.376 . S
C522 C520 1.394 . S
C522 C523 1.369 . S
C522 C526 1.531 . S
C523 C522 1.369 . S
C523 C524 1.410 . S
C523 C531 1.503 . S
C524 C523 1.410 . S
C524 C525 1.392 . S
C524 C527 1.511 . S
C525 C521 1.376 . S
C525 C524 1.392 . S
C525 H537 0.929 . S
C526 C522 1.531 . S
C526 H538 0.960 . S
C526 H539 0.962 . S
C526 H540 0.960 . S
C527 C524 1.511 . S
C527 H541 0.961 . S
C527 H542 0.961 . S
C527 H543 0.961 . S
C528 C529 1.370 . S
C528 C530 1.363 . S
C528 H544 0.931 . S
C529 C528 1.370 . S
C529 C533 1.408 . S
C530 C528 1.363 . S
C530 C531 1.370 . S
C530 C534 1.524 . S
C531 C523 1.503 . S
C531 C530 1.370 . S
C531 C532 1.403 . S
C532 C531 1.403 . S
C532 C533 1.404 . S
C532 C535 1.539 . S
C533 C529 1.408 . S
C533 C532 1.404 . S
C533 H545 0.930 . S
C534 C530 1.524 . S
C534 H546 0.956 . S
C534 H547 0.961 . S
C534 H548 0.961 . S
C535 C532 1.539 . S
C535 H549 0.958 . S
C535 H550 0.961 . S
C535 H551 0.960 . S
H536 C520 0.931 . S
H537 C525 0.929 . S
H538 C526 0.960 . S
H539 C526 0.962 . S
H540 C526 0.960 . S
H541 C527 0.961 . S
H542 C527 0.961 . S
H543 C527 0.961 . S
H544 C528 0.931 . S
H545 C533 0.930 . S
H546 C534 0.956 . S
H547 C534 0.961 . S
H548 C534 0.961 . S
H549 C535 0.958 . S
H550 C535 0.961 . S
H551 C535 0.960 . S
C552 C553 1.391 . S
C552 C554 1.394 . S
C552 H568 0.931 . S
C553 C552 1.391 . S
C553 C557 1.376 . S
C554 C552 1.394 . S
C554 C555 1.369 . S
C554 C558 1.531 . S
C555 C554 1.369 . S
C555 C556 1.410 . S
C555 C563 1.503 . S
C556 C555 1.410 . S
C556 C557 1.392 . S
C556 C559 1.511 . S
C557 C553 1.376 . S
C557 C556 1.392 . S
C557 H569 0.929 . S
C558 C554 1.531 . S
C558 H570 0.960 . S
C558 H571 0.962 . S
C558 H572 0.960 . S
C559 C556 1.511 . S
C559 H573 0.961 . S
C559 H574 0.961 . S
C559 H575 0.961 . S
C560 C561 1.370 . S
C560 C562 1.363 . S
C560 H576 0.931 . S
C561 C560 1.370 . S
C561 C565 1.408 . S
C562 C560 1.363 . S
C562 C563 1.370 . S
C562 C566 1.524 . S
C563 C555 1.503 . S
C563 C562 1.370 . S
C563 C564 1.403 . S
C564 C563 1.403 . S
C564 C565 1.404 . S
C564 C567 1.539 . S
C565 C561 1.408 . S
C565 C564 1.404 . S
C565 H577 0.930 . S
C566 C562 1.524 . S
C566 H578 0.956 . S
C566 H579 0.961 . S
C566 H580 0.961 . S
C567 C564 1.539 . S
C567 H581 0.958 . S
C567 H582 0.961 . S
C567 H583 0.960 . S
H568 C552 0.931 . S
H569 C557 0.929 . S
H570 C558 0.960 . S
H571 C558 0.962 . S
H572 C558 0.960 . S
H573 C559 0.961 . S
H574 C559 0.961 . S
H575 C559 0.961 . S
H576 C560 0.931 . S
H577 C565 0.930 . S
H578 C566 0.956 . S
H579 C566 0.961 . S
H580 C566 0.961 . S
H581 C567 0.958 . S
H582 C567 0.961 . S
H583 C567 0.960 . S
C584 C585 1.391 . S
C584 C586 1.394 . S
C584 H600 0.931 . S
C585 C584 1.391 . S
C585 C589 1.376 . S
C586 C584 1.394 . S
C586 C587 1.369 . S
C586 C590 1.531 . S
C587 C586 1.369 . S
C587 C588 1.410 . S
C587 C595 1.503 . S
C588 C587 1.410 . S
C588 C589 1.392 . S
C588 C591 1.511 . S
C589 C585 1.376 . S
C589 C588 1.392 . S
C589 H601 0.929 . S
C590 C586 1.531 . S
C590 H602 0.960 . S
C590 H603 0.962 . S
C590 H604 0.960 . S
C591 C588 1.511 . S
C591 H605 0.961 . S
C591 H606 0.961 . S
C591 H607 0.961 . S
C592 C593 1.370 . S
C592 C594 1.363 . S
C592 H608 0.931 . S
C593 C592 1.370 . S
C593 C597 1.408 . S
C594 C592 1.363 . S
C594 C595 1.370 . S
C594 C598 1.524 . S
C595 C587 1.503 . S
C595 C594 1.370 . S
C595 C596 1.403 . S
C596 C595 1.403 . S
C596 C597 1.404 . S
C596 C599 1.539 . S
C597 C593 1.408 . S
C597 C596 1.404 . S
C597 H609 0.930 . S
C598 C594 1.524 . S
C598 H610 0.956 . S
C598 H611 0.961 . S
C598 H612 0.961 . S
C599 C596 1.539 . S
C599 H613 0.958 . S
C599 H614 0.961 . S
C599 H615 0.960 . S
H600 C584 0.931 . S
H601 C589 0.929 . S
H602 C590 0.960 . S
H603 C590 0.962 . S
H604 C590 0.960 . S
H605 C591 0.961 . S
H606 C591 0.961 . S
H607 C591 0.961 . S
H608 C592 0.931 . S
H609 C597 0.930 . S
H610 C598 0.956 . S
H611 C598 0.961 . S
H612 C598 0.961 . S
H613 C599 0.958 . S
H614 C599 0.961 . S
H615 C599 0.960 . S
C616 C617 1.391 . S
C616 C618 1.394 . S
C616 H632 0.931 . S
C617 C616 1.391 . S
C617 C621 1.376 . S
C618 C616 1.394 . S
C618 C619 1.369 . S
C618 C622 1.531 . S
C619 C618 1.369 . S
C619 C620 1.410 . S
C619 C627 1.503 . S
C620 C619 1.410 . S
C620 C621 1.392 . S
C620 C623 1.511 . S
C621 C617 1.376 . S
C621 C620 1.392 . S
C621 H633 0.929 . S
C622 C618 1.531 . S
C622 H634 0.960 . S
C622 H635 0.962 . S
C622 H636 0.960 . S
C623 C620 1.511 . S
C623 H637 0.961 . S
C623 H638 0.961 . S
C623 H639 0.961 . S
C624 C625 1.370 . S
C624 C626 1.363 . S
C624 H640 0.931 . S
C625 C624 1.370 . S
C625 C629 1.408 . S
C626 C624 1.363 . S
C626 C627 1.370 . S
C626 C630 1.524 . S
C627 C619 1.503 . S
C627 C626 1.370 . S
C627 C628 1.403 . S
C628 C627 1.403 . S
C628 C629 1.404 . S
C628 C631 1.539 . S
C629 C625 1.408 . S
C629 C628 1.404 . S
C629 H641 0.930 . S
C630 C626 1.524 . S
C630 H642 0.956 . S
C630 H643 0.961 . S
C630 H644 0.961 . S
C631 C628 1.539 . S
C631 H645 0.958 . S
C631 H646 0.961 . S
C631 H647 0.960 . S
H632 C616 0.931 . S
H633 C621 0.929 . S
H634 C622 0.960 . S
H635 C622 0.962 . S
H636 C622 0.960 . S
H637 C623 0.961 . S
H638 C623 0.961 . S
H639 C623 0.961 . S
H640 C624 0.931 . S
H641 C629 0.930 . S
H642 C630 0.956 . S
H643 C630 0.961 . S
H644 C630 0.961 . S
H645 C631 0.958 . S
H646 C631 0.961 . S
H647 C631 0.960 . S
C648 C649 1.391 . S
C648 C650 1.394 . S
C648 H664 0.931 . S
C649 C648 1.391 . S
C649 C653 1.376 . S
C650 C648 1.394 . S
C650 C651 1.369 . S
C650 C654 1.531 . S
C651 C650 1.369 . S
C651 C652 1.410 . S
C651 C659 1.503 . S
C652 C651 1.410 . S
C652 C653 1.392 . S
C652 C655 1.511 . S
C653 C649 1.376 . S
C653 C652 1.392 . S
C653 H665 0.929 . S
C654 C650 1.531 . S
C654 H666 0.960 . S
C654 H667 0.962 . S
C654 H668 0.960 . S
C655 C652 1.511 . S
C655 H669 0.961 . S
C655 H670 0.961 . S
C655 H671 0.961 . S
C656 C657 1.370 . S
C656 C658 1.363 . S
C656 H672 0.931 . S
C657 C656 1.370 . S
C657 C661 1.408 . S
C658 C656 1.363 . S
C658 C659 1.370 . S
C658 C662 1.524 . S
C659 C651 1.503 . S
C659 C658 1.370 . S
C659 C660 1.403 . S
C660 C659 1.403 . S
C660 C661 1.404 . S
C660 C663 1.539 . S
C661 C657 1.408 . S
C661 C660 1.404 . S
C661 H673 0.930 . S
C662 C658 1.524 . S
C662 H674 0.956 . S
C662 H675 0.961 . S
C662 H676 0.961 . S
C663 C660 1.539 . S
C663 H677 0.958 . S
C663 H678 0.961 . S
C663 H679 0.960 . S
H664 C648 0.931 . S
H665 C653 0.929 . S
H666 C654 0.960 . S
H667 C654 0.962 . S
H668 C654 0.960 . S
H669 C655 0.961 . S
H670 C655 0.961 . S
H671 C655 0.961 . S
H672 C656 0.931 . S
H673 C661 0.930 . S
H674 C662 0.956 . S
H675 C662 0.961 . S
H676 C662 0.961 . S
H677 C663 0.958 . S
H678 C663 0.961 . S
H679 C663 0.960 . S
C680 C681 1.391 . S
C680 C682 1.394 . S
C680 H696 0.931 . S
C681 C680 1.391 . S
C681 C685 1.376 . S
C682 C680 1.394 . S
C682 C683 1.369 . S
C682 C686 1.531 . S
C683 C682 1.369 . S
C683 C684 1.410 . S
C683 C691 1.503 . S
C684 C683 1.410 . S
C684 C685 1.392 . S
C684 C687 1.511 . S
C685 C681 1.376 . S
C685 C684 1.392 . S
C685 H697 0.929 . S
C686 C682 1.531 . S
C686 H698 0.960 . S
C686 H699 0.962 . S
C686 H700 0.960 . S
C687 C684 1.511 . S
C687 H701 0.961 . S
C687 H702 0.961 . S
C687 H703 0.961 . S
C688 C689 1.370 . S
C688 C690 1.363 . S
C688 H704 0.931 . S
C689 C688 1.370 . S
C689 C693 1.408 . S
C690 C688 1.363 . S
C690 C691 1.370 . S
C690 C694 1.524 . S
C691 C683 1.503 . S
C691 C690 1.370 . S
C691 C692 1.403 . S
C692 C691 1.403 . S
C692 C693 1.404 . S
C692 C695 1.539 . S
C693 C689 1.408 . S
C693 C692 1.404 . S
C693 H705 0.930 . S
C694 C690 1.524 . S
C694 H706 0.956 . S
C694 H707 0.961 . S
C694 H708 0.961 . S
C695 C692 1.539 . S
C695 H709 0.958 . S
C695 H710 0.961 . S
C695 H711 0.960 . S
H696 C680 0.931 . S
H697 C685 0.929 . S
H698 C686 0.960 . S
H699 C686 0.962 . S
H700 C686 0.960 . S
H701 C687 0.961 . S
H702 C687 0.961 . S
H703 C687 0.961 . S
H704 C688 0.931 . S
H705 C693 0.930 . S
H706 C694 0.956 . S
H707 C694 0.961 . S
H708 C694 0.961 . S
H709 C695 0.958 . S
H710 C695 0.961 . S
H711 C695 0.960 . S
C712 C713 1.391 . S
C712 C714 1.394 . S
C712 H728 0.931 . S
C713 C712 1.391 . S
C713 C717 1.376 . S
C714 C712 1.394 . S
C714 C715 1.369 . S
C714 C718 1.531 . S
C715 C714 1.369 . S
C715 C716 1.410 . S
C715 C723 1.503 . S
C716 C715 1.410 . S
C716 C717 1.392 . S
C716 C719 1.511 . S
C717 C713 1.376 . S
C717 C716 1.392 . S
C717 H729 0.929 . S
C718 C714 1.531 . S
C718 H730 0.960 . S
C718 H731 0.962 . S
C718 H732 0.960 . S
C719 C716 1.511 . S
C719 H733 0.961 . S
C719 H734 0.961 . S
C719 H735 0.961 . S
C720 C721 1.370 . S
C720 C722 1.363 . S
C720 H736 0.931 . S
C721 C720 1.370 . S
C721 C725 1.408 . S
C722 C720 1.363 . S
C722 C723 1.370 . S
C722 C726 1.524 . S
C723 C715 1.503 . S
C723 C722 1.370 . S
C723 C724 1.403 . S
C724 C723 1.403 . S
C724 C725 1.404 . S
C724 C727 1.539 . S
C725 C721 1.408 . S
C725 C724 1.404 . S
C725 H737 0.930 . S
C726 C722 1.524 . S
C726 H738 0.956 . S
C726 H739 0.961 . S
C726 H740 0.961 . S
C727 C724 1.539 . S
C727 H741 0.958 . S
C727 H742 0.961 . S
C727 H743 0.960 . S
H728 C712 0.931 . S
H729 C717 0.929 . S
H730 C718 0.960 . S
H731 C718 0.962 . S
H732 C718 0.960 . S
H733 C719 0.961 . S
H734 C719 0.961 . S
H735 C719 0.961 . S
H736 C720 0.931 . S
H737 C725 0.930 . S
H738 C726 0.956 . S
H739 C726 0.961 . S
H740 C726 0.961 . S
H741 C727 0.958 . S
H742 C727 0.961 . S
H743 C727 0.960 . S
C744 C745 1.391 . S
C744 C746 1.394 . S
C744 H760 0.931 . S
C745 C744 1.391 . S
C745 C749 1.376 . S
C746 C744 1.394 . S
C746 C747 1.369 . S
C746 C750 1.531 1_545 S
C747 C746 1.369 . S
C747 C748 1.410 1_455 S
C747 C755 1.503 1_445 S
C748 C747 1.410 1_655 S
C748 C749 1.392 1_655 S
C748 C751 1.511 . S
C749 C745 1.376 . S
C749 C748 1.392 1_455 S
C749 H761 0.929 1_455 S
C750 C746 1.531 1_565 S
C750 H762 0.960 . S
C750 H763 0.962 . S
C750 H764 0.960 1_565 S
C751 C748 1.511 . S
C751 H765 0.961 . S
C751 H766 0.961 . S
C751 H767 0.961 . S
C752 C753 1.370 . S
C752 C754 1.363 . S
C752 H768 0.931 . S
C753 C752 1.370 . S
C753 C757 1.408 . S
C754 C752 1.363 . S
C754 C755 1.370 . S
C754 C758 1.524 1_655 S
C755 C747 1.503 1_665 S
C755 C754 1.370 . S
C755 C756 1.403 . S
C756 C755 1.403 . S
C756 C757 1.404 . S
C756 C759 1.539 . S
C757 C753 1.408 . S
C757 C756 1.404 . S
C757 H769 0.930 . S
C758 C754 1.524 1_455 S
C758 H770 0.956 . S
C758 H771 0.961 . S
C758 H772 0.961 . S
C759 C756 1.539 . S
C759 H773 0.958 . S
C759 H774 0.961 . S
C759 H775 0.960 1_565 S
H760 C744 0.931 . S
H761 C749 0.929 1_655 S
H762 C750 0.960 . S
H763 C750 0.962 . S
H764 C750 0.960 1_545 S
H765 C751 0.961 . S
H766 C751 0.961 . S
H767 C751 0.961 . S
H768 C752 0.931 . S
H769 C757 0.930 . S
H770 C758 0.956 . S
H771 C758 0.961 . S
H772 C758 0.961 . S
H773 C759 0.958 . S
H774 C759 0.961 . S
H775 C759 0.960 1_545 S
C776 C777 1.391 . S
C776 C778 1.394 . S
C776 H792 0.931 . S
C777 C776 1.391 . S
C777 C781 1.376 . S
C778 C776 1.394 . S
C778 C779 1.378 . S
C778 C782 1.531 . S
C779 C778 1.378 . S
C779 C780 1.411 . S
C779 C787 1.496 1_645 S
C780 C779 1.411 . S
C780 C781 1.392 . S
C780 C783 1.511 1_655 S
C781 C777 1.376 . S
C781 C780 1.392 . S
C781 H793 0.929 . S
C782 C778 1.531 . S
C782 H794 0.970 1_655 S
C782 H795 0.955 1_545 S
C782 H796 0.960 . S
C783 C780 1.511 1_455 S
C783 H797 0.961 . S
C783 H798 0.961 . S
C783 H799 0.961 . S
C784 C785 1.370 . S
C784 C786 1.363 1_455 S
C784 H800 0.931 1_455 S
C785 C784 1.370 . S
C785 C789 1.408 . S
C786 C784 1.363 1_655 S
C786 C787 1.370 1_655 S
C786 C790 1.524 . S
C787 C779 1.496 1_465 S
C787 C786 1.370 1_455 S
C787 C788 1.403 . S
C788 C787 1.403 . S
C788 C789 1.404 . S
C788 C791 1.539 1_565 S
C789 C785 1.408 . S
C789 C788 1.404 . S
C789 H801 0.930 . S
C790 C786 1.524 . S
C790 H802 0.956 . S
C790 H803 0.961 . S
C790 H804 0.961 . S
C791 C788 1.539 1_545 S
C791 H805 0.958 . S
C791 H806 0.961 . S
C791 H807 0.960 . S
H792 C776 0.931 . S
H793 C781 0.929 . S
H794 C782 0.970 1_455 S
H795 C782 0.955 1_565 S
H796 C782 0.960 . S
H797 C783 0.961 . S
H798 C783 0.961 . S
H799 C783 0.961 . S
H800 C784 0.931 1_655 S
H801 C789 0.930 . S
H802 C790 0.956 . S
H803 C790 0.961 . S
H804 C790 0.961 . S
H805 C791 0.958 . S
H806 C791 0.961 . S
H807 C791 0.960 . S
C808 C809 1.391 . S
C808 C810 1.394 . S
C808 H824 0.931 . S
C809 C808 1.391 . S
C809 C813 1.376 . S
C810 C808 1.394 . S
C810 C811 1.369 . S
C810 C814 1.531 1_556 S
C811 C810 1.369 . S
C811 C812 1.410 1_565 S
C811 C819 1.503 1_566 S
C812 C811 1.410 1_545 S
C812 C813 1.392 1_545 S
C812 C815 1.511 . S
C813 C809 1.376 . S
C813 C812 1.392 1_565 S
C813 H825 0.935 . S
C814 C810 1.531 1_554 S
C814 H826 0.960 . S
C814 H827 0.962 . S
C814 H828 0.960 . S
C815 C812 1.511 . S
C815 H829 0.961 . S
C815 H830 0.961 . S
C815 H831 0.961 . S
C816 C817 1.370 . S
C816 C818 1.363 . S
C816 H832 0.931 . S
C817 C816 1.370 . S
C817 C821 1.408 . S
C818 C816 1.363 . S
C818 C819 1.370 . S
C818 C822 1.524 1_554 S
C819 C811 1.503 1_544 S
C819 C818 1.370 . S
C819 C820 1.403 1_545 S
C820 C819 1.403 1_565 S
C820 C821 1.404 1_565 S
C820 C823 1.539 . S
C821 C817 1.408 . S
C821 C820 1.404 1_545 S
C821 H833 0.930 . S
C822 C818 1.524 1_556 S
C822 H834 0.956 . S
C822 H835 0.961 . S
C822 H836 0.961 1_556 S
C823 C820 1.539 . S
C823 H837 0.958 . S
C823 H838 0.961 . S
C823 H839 0.960 . S
H824 C808 0.931 . S
H825 C813 0.935 . S
H826 C814 0.960 . S
H827 C814 0.962 . S
H828 C814 0.960 . S
H829 C815 0.961 . S
H830 C815 0.961 . S
H831 C815 0.961 . S
H832 C816 0.931 . S
H833 C821 0.930 . S
H834 C822 0.956 . S
H835 C822 0.961 . S
H836 C822 0.961 1_554 S
H837 C823 0.958 . S
H838 C823 0.961 . S
H839 C823 0.960 . S
C840 C841 1.391 . S
C840 C842 1.394 1_565 S
C840 H856 0.931 1_565 S
C841 C840 1.391 . S
C841 C845 1.376 . S
C842 C840 1.394 1_545 S
C842 C843 1.369 1_545 S
C842 C846 1.531 . S
C843 C842 1.369 1_565 S
C843 C844 1.410 . S
C843 C851 1.503 1_564 S
C844 C843 1.410 . S
C844 C845 1.392 . S
C844 C847 1.511 1_554 S
C845 C841 1.376 . S
C845 C844 1.392 . S
C845 H857 0.929 . S
C846 C842 1.531 . S
C846 H858 0.960 . S
C846 H859 0.962 . S
C846 H860 0.960 . S
C847 C844 1.511 1_556 S
C847 H861 0.961 . S
C847 H862 0.961 . S
C847 H863 0.961 . S
C848 C849 1.370 . S
C848 C850 1.363 . S
C848 H864 0.931 . S
C849 C848 1.370 . S
C849 C853 1.408 . S
C850 C848 1.363 . S
C850 C851 1.370 . S
C850 C854 1.524 . S
C851 C843 1.503 1_546 S
C851 C850 1.370 . S
C851 C852 1.403 . S
C852 C851 1.403 . S
C852 C853 1.404 . S
C852 C855 1.539 . S
C853 C849 1.408 . S
C853 C852 1.404 . S
C853 H865 0.930 . S
C854 C850 1.524 . S
C854 H866 0.956 1_556 S
C854 H867 0.961 1_545 S
C854 H868 0.961 . S
C855 C852 1.539 . S
C855 H869 0.958 . S
C855 H870 0.961 1_545 S
C855 H871 0.960 1_545 S
H856 C840 0.931 1_545 S
H857 C845 0.929 . S
H858 C846 0.960 . S
H859 C846 0.962 . S
H860 C846 0.960 . S
H861 C847 0.961 . S
H862 C847 0.961 . S
H863 C847 0.961 . S
H864 C848 0.931 . S
H865 C853 0.930 . S
H866 C854 0.956 1_554 S
H867 C854 0.961 1_565 S
H868 C854 0.961 . S
H869 C855 0.958 . S
H870 C855 0.961 1_565 S
H871 C855 0.960 1_565 S
C872 C873 1.391 . S
C872 C874 1.394 . S
C872 H888 0.931 . S
C873 C872 1.391 . S
C873 C877 1.376 . S
C874 C872 1.394 . S
C874 C875 1.369 . S
C874 C878 1.550 . S
C875 C874 1.369 . S
C875 C876 1.410 1_556 S
C875 C883 1.503 1_656 S
C876 C875 1.410 1_554 S
C876 C877 1.392 1_554 S
C876 C879 1.511 . S
C877 C873 1.376 . S
C877 C876 1.392 1_556 S
C877 H889 0.924 1_556 S
C878 C874 1.550 . S
C878 H890 0.944 1_655 S
C878 H891 0.946 1_655 S
C878 H892 0.974 . S
C879 C876 1.511 . S
C879 H893 0.961 . S
C879 H894 0.961 . S
C879 H895 0.961 . S
C880 C881 1.370 . S
C880 C882 1.363 1_554 S
C880 H896 0.918 1_554 S
C881 C880 1.370 . S
C881 C885 1.408 . S
C882 C880 1.363 1_556 S
C882 C883 1.370 1_556 S
C882 C886 1.524 . S
C883 C875 1.503 1_454 S
C883 C882 1.370 1_554 S
C883 C884 1.403 . S
C884 C883 1.403 . S
C884 C885 1.404 . S
C884 C887 1.539 1_455 S
C885 C881 1.408 . S
C885 C884 1.404 . S
C885 H897 0.930 . S
C886 C882 1.524 . S
C886 H898 0.956 . S
C886 H899 0.961 . S
C886 H900 0.961 . S
C887 C884 1.539 1_655 S
C887 H901 0.959 . S
C887 H902 0.961 1_655 S
C887 H903 0.960 . S
H888 C872 0.931 . S
H889 C877 0.924 1_554 S
H890 C878 0.944 1_455 S
H891 C878 0.946 1_455 S
H892 C878 0.974 . S
H893 C879 0.961 . S
H894 C879 0.961 . S
H895 C879 0.961 . S
H896 C880 0.918 1_556 S
H897 C885 0.930 . S
H898 C886 0.956 . S
H899 C886 0.961 . S
H900 C886 0.961 . S
H901 C887 0.959 . S
H902 C887 0.961 1_455 S
H903 C887 0.960 . S
C904 C905 1.421 . S
C904 C906 1.381 1_556 S
C904 H920 0.914 1_556 S
C905 C904 1.421 . S
C905 C909 1.376 . S
C906 C904 1.381 1_554 S
C906 C907 1.369 1_554 S
C906 C910 1.531 . S
C907 C906 1.369 1_556 S
C907 C908 1.410 . S
C907 C915 1.503 1_456 S
C908 C907 1.410 . S
C908 C909 1.392 . S
C908 C911 1.511 1_455 S
C909 C905 1.376 . S
C909 C908 1.392 . S
C909 H921 0.929 . S
C910 C906 1.531 . S
C910 H922 0.960 . S
C910 H923 0.962 . S
C910 H924 0.960 . S
C911 C908 1.511 1_655 S
C911 H925 0.961 . S
C911 H926 0.961 . S
C911 H927 0.961 . S
C912 C913 1.370 . S
C912 C914 1.363 . S
C912 H928 0.931 . S
C913 C912 1.370 . S
C913 C917 1.408 . S
C914 C912 1.363 . S
C914 C915 1.370 . S
C914 C918 1.524 1_554 S
C915 C907 1.503 1_654 S
C915 C914 1.370 . S
C915 C916 1.403 . S
C916 C915 1.403 . S
C916 C917 1.404 . S
C916 C919 1.539 . S
C917 C913 1.408 . S
C917 C916 1.404 . S
C917 H929 0.930 . S
C918 C914 1.524 1_556 S
C918 H930 0.935 1_656 S
C918 H931 0.961 . S
C918 H932 0.961 . S
C919 C916 1.539 . S
C919 H933 0.958 . S
C919 H934 0.961 . S
C919 H935 0.960 1_655 S
H920 C904 0.914 1_554 S
H921 C909 0.929 . S
H922 C910 0.960 . S
H923 C910 0.962 . S
H924 C910 0.960 . S
H925 C911 0.961 . S
H926 C911 0.961 . S
H927 C911 0.961 . S
H928 C912 0.931 . S
H929 C917 0.930 . S
H930 C918 0.935 1_454 S
H931 C918 0.961 . S
H932 C918 0.961 . S
H933 C919 0.958 . S
H934 C919 0.961 . S
H935 C919 0.960 1_455 S
C169 C53 0.951 . S
C177 C11 0.950 . S
C201 C39 0.925 . S
C209 C25 0.953 . S
C233 C81 0.933 . S
C241 C67 0.963 . S
C265 C95 0.936 . S
C273 C109 0.965 . S
C297 C137 0.965 . S
C305 C123 0.977 . S
C329 C151 0.928 . S
C337 C165 0.959 . S
C361 C5 0.967 . S
C369 C98 0.910 . S
C393 C84 0.876 . S
C401 C19 0.957 . S
C425 C70 0.976 . S
C433 C33 0.957 . S
C457 C56 0.895 . S
C465 C47 0.961 . S
C489 C61 0.966 . S
C497 C154 0.947 . S
C521 C112 0.863 . S
C529 C75 0.946 . S
C553 C140 0.882 . S
C561 C89 0.959 . S
C585 C103 0.967 . S
C593 C126 0.947 . S
C617 C28 0.855 . S
C625 C117 0.950 . S
C649 C0 0.872 . S
C657 C131 0.957 . S
C681 C145 0.977 . S
C689 C14 0.925 . S
C713 C42 0.977 . S
C721 C159 0.957 . S
C745 C9 1.255 . S
C753 C23 1.244 . S
C777 C51 1.248 . S
C785 C37 1.237 . S
C809 C93 1.245 . S
C817 C65 1.248 . S
C841 C79 1.221 . S
C849 C107 1.235 . S
C873 C149 1.254 . S
C881 C121 1.241 . S
C905 C135 1.224 . S
C913 C163 1.233 . S
