# Generated by pormake.
# Topology sxg, (6)-cn, num edge types: 1
# Building blocks:
#     Node 0, Type 0, BuildingBlock: UKALOJ_clean_sbu_0, # of connection points: 6
#     Node 1, Type 0, BuildingBlock: UKALOJ_clean_sbu_0, # of connection points: 6
#     Node 2, Type 0, BuildingBlock: UKALOJ_clean_sbu_0, # of connection points: 6
#     Node 3, Type 0, BuildingBlock: UKALOJ_clean_sbu_0, # of connection points: 6
#     Node 4, Type 0, BuildingBlock: UKALOJ_clean_sbu_0, # of connection points: 6
#     Node 5, Type 0, BuildingBlock: UKALOJ_clean_sbu_0, # of connection points: 6
#     Node 6, Type 0, BuildingBlock: UKALOJ_clean_sbu_0, # of connection points: 6
#     Node 7, Type 0, BuildingBlock: UKALOJ_clean_sbu_0, # of connection points: 6
#     Node 8, Type 0, BuildingBlock: UKALOJ_clean_sbu_0, # of connection points: 6
#     Node 9, Type 0, BuildingBlock: UKALOJ_clean_sbu_0, # of connection points: 6
#     Node 10, Type 0, BuildingBlock: UKALOJ_clean_sbu_0, # of connection points: 6
#     Node 11, Type 0, BuildingBlock: UKALOJ_clean_sbu_0, # of connection points: 6
#     Node 12, Type 0, BuildingBlock: UKALOJ_clean_sbu_0, # of connection points: 6
#     Node 13, Type 0, BuildingBlock: UKALOJ_clean_sbu_0, # of connection points: 6
#     Node 14, Type 0, BuildingBlock: UKALOJ_clean_sbu_0, # of connection points: 6
#     Node 15, Type 0, BuildingBlock: UKALOJ_clean_sbu_0, # of connection points: 6
#     Node 16, Type 0, BuildingBlock: UKALOJ_clean_sbu_0, # of connection points: 6
#     Node 17, Type 0, BuildingBlock: UKALOJ_clean_sbu_0, # of connection points: 6
#     Node 18, Type 0, BuildingBlock: UKALOJ_clean_sbu_0, # of connection points: 6
#     Node 19, Type 0, BuildingBlock: UKALOJ_clean_sbu_0, # of connection points: 6
#     Node 20, Type 0, BuildingBlock: UKALOJ_clean_sbu_0, # of connection points: 6
#     Node 21, Type 0, BuildingBlock: UKALOJ_clean_sbu_0, # of connection points: 6
#     Node 22, Type 0, BuildingBlock: UKALOJ_clean_sbu_0, # of connection points: 6
#     Node 23, Type 0, BuildingBlock: UKALOJ_clean_sbu_0, # of connection points: 6
#     Edge 24, Type (0, 0), BuildingBlock: CIFDUS_clean_linker_0, # of connection points: 2
#     Edge 25, Type (0, 0), BuildingBlock: CIFDUS_clean_linker_0, # of connection points: 2
#     Edge 26, Type (0, 0), BuildingBlock: CIFDUS_clean_linker_0, # of connection points: 2
#     Edge 27, Type (0, 0), BuildingBlock: CIFDUS_clean_linker_0, # of connection points: 2
#     Edge 28, Type (0, 0), BuildingBlock: CIFDUS_clean_linker_0, # of connection points: 2
#     Edge 29, Type (0, 0), BuildingBlock: CIFDUS_clean_linker_0, # of connection points: 2
#     Edge 30, Type (0, 0), BuildingBlock: CIFDUS_clean_linker_0, # of connection points: 2
#     Edge 31, Type (0, 0), BuildingBlock: CIFDUS_clean_linker_0, # of connection points: 2
#     Edge 32, Type (0, 0), BuildingBlock: CIFDUS_clean_linker_0, # of connection points: 2
#     Edge 33, Type (0, 0), BuildingBlock: CIFDUS_clean_linker_0, # of connection points: 2
#     Edge 34, Type (0, 0), BuildingBlock: CIFDUS_clean_linker_0, # of connection points: 2
#     Edge 35, Type (0, 0), BuildingBlock: CIFDUS_clean_linker_0, # of connection points: 2
#     Edge 36, Type (0, 0), BuildingBlock: CIFDUS_clean_linker_0, # of connection points: 2
#     Edge 37, Type (0, 0), BuildingBlock: CIFDUS_clean_linker_0, # of connection points: 2
#     Edge 38, Type (0, 0), BuildingBlock: CIFDUS_clean_linker_0, # of connection points: 2
#     Edge 39, Type (0, 0), BuildingBlock: CIFDUS_clean_linker_0, # of connection points: 2
#     Edge 40, Type (0, 0), BuildingBlock: CIFDUS_clean_linker_0, # of connection points: 2
#     Edge 41, Type (0, 0), BuildingBlock: CIFDUS_clean_linker_0, # of connection points: 2
#     Edge 42, Type (0, 0), BuildingBlock: CIFDUS_clean_linker_0, # of connection points: 2
#     Edge 43, Type (0, 0), BuildingBlock: CIFDUS_clean_linker_0, # of connection points: 2
#     Edge 44, Type (0, 0), BuildingBlock: CIFDUS_clean_linker_0, # of connection points: 2
#     Edge 45, Type (0, 0), BuildingBlock: CIFDUS_clean_linker_0, # of connection points: 2
#     Edge 46, Type (0, 0), BuildingBlock: CIFDUS_clean_linker_0, # of connection points: 2
#     Edge 47, Type (0, 0), BuildingBlock: CIFDUS_clean_linker_0, # of connection points: 2
#     Edge 48, Type (0, 0), BuildingBlock: CIFDUS_clean_linker_0, # of connection points: 2
#     Edge 49, Type (0, 0), BuildingBlock: CIFDUS_clean_linker_0, # of connection points: 2
#     Edge 50, Type (0, 0), BuildingBlock: CIFDUS_clean_linker_0, # of connection points: 2
#     Edge 51, Type (0, 0), BuildingBlock: CIFDUS_clean_linker_0, # of connection points: 2
#     Edge 52, Type (0, 0), BuildingBlock: CIFDUS_clean_linker_0, # of connection points: 2
#     Edge 53, Type (0, 0), BuildingBlock: CIFDUS_clean_linker_0, # of connection points: 2
#     Edge 54, Type (0, 0), BuildingBlock: CIFDUS_clean_linker_0, # of connection points: 2
#     Edge 55, Type (0, 0), BuildingBlock: CIFDUS_clean_linker_0, # of connection points: 2
#     Edge 56, Type (0, 0), BuildingBlock: CIFDUS_clean_linker_0, # of connection points: 2
#     Edge 57, Type (0, 0), BuildingBlock: CIFDUS_clean_linker_0, # of connection points: 2
#     Edge 58, Type (0, 0), BuildingBlock: CIFDUS_clean_linker_0, # of connection points: 2
#     Edge 59, Type (0, 0), BuildingBlock: CIFDUS_clean_linker_0, # of connection points: 2
#     Edge 60, Type (0, 0), BuildingBlock: CIFDUS_clean_linker_0, # of connection points: 2
#     Edge 61, Type (0, 0), BuildingBlock: CIFDUS_clean_linker_0, # of connection points: 2
#     Edge 62, Type (0, 0), BuildingBlock: CIFDUS_clean_linker_0, # of connection points: 2
#     Edge 63, Type (0, 0), BuildingBlock: CIFDUS_clean_linker_0, # of connection points: 2
#     Edge 64, Type (0, 0), BuildingBlock: CIFDUS_clean_linker_0, # of connection points: 2
#     Edge 65, Type (0, 0), BuildingBlock: CIFDUS_clean_linker_0, # of connection points: 2
#     Edge 66, Type (0, 0), BuildingBlock: CIFDUS_clean_linker_0, # of connection points: 2
#     Edge 67, Type (0, 0), BuildingBlock: CIFDUS_clean_linker_0, # of connection points: 2
#     Edge 68, Type (0, 0), BuildingBlock: CIFDUS_clean_linker_0, # of connection points: 2
#     Edge 69, Type (0, 0), BuildingBlock: CIFDUS_clean_linker_0, # of connection points: 2
#     Edge 70, Type (0, 0), BuildingBlock: CIFDUS_clean_linker_0, # of connection points: 2
#     Edge 71, Type (0, 0), BuildingBlock: CIFDUS_clean_linker_0, # of connection points: 2
#     Edge 72, Type (0, 0), BuildingBlock: CIFDUS_clean_linker_0, # of connection points: 2
#     Edge 73, Type (0, 0), BuildingBlock: CIFDUS_clean_linker_0, # of connection points: 2
#     Edge 74, Type (0, 0), BuildingBlock: CIFDUS_clean_linker_0, # of connection points: 2
#     Edge 75, Type (0, 0), BuildingBlock: CIFDUS_clean_linker_0, # of connection points: 2
#     Edge 76, Type (0, 0), BuildingBlock: CIFDUS_clean_linker_0, # of connection points: 2
#     Edge 77, Type (0, 0), BuildingBlock: CIFDUS_clean_linker_0, # of connection points: 2
#     Edge 78, Type (0, 0), BuildingBlock: CIFDUS_clean_linker_0, # of connection points: 2
#     Edge 79, Type (0, 0), BuildingBlock: CIFDUS_clean_linker_0, # of connection points: 2
#     Edge 80, Type (0, 0), BuildingBlock: CIFDUS_clean_linker_0, # of connection points: 2
#     Edge 81, Type (0, 0), BuildingBlock: CIFDUS_clean_linker_0, # of connection points: 2
#     Edge 82, Type (0, 0), BuildingBlock: CIFDUS_clean_linker_0, # of connection points: 2
#     Edge 83, Type (0, 0), BuildingBlock: CIFDUS_clean_linker_0, # of connection points: 2
#     Edge 84, Type (0, 0), BuildingBlock: CIFDUS_clean_linker_0, # of connection points: 2
#     Edge 85, Type (0, 0), BuildingBlock: CIFDUS_clean_linker_0, # of connection points: 2
#     Edge 86, Type (0, 0), BuildingBlock: CIFDUS_clean_linker_0, # of connection points: 2
#     Edge 87, Type (0, 0), BuildingBlock: CIFDUS_clean_linker_0, # of connection points: 2
#     Edge 88, Type (0, 0), BuildingBlock: CIFDUS_clean_linker_0, # of connection points: 2
#     Edge 89, Type (0, 0), BuildingBlock: CIFDUS_clean_linker_0, # of connection points: 2
#     Edge 90, Type (0, 0), BuildingBlock: CIFDUS_clean_linker_0, # of connection points: 2
#     Edge 91, Type (0, 0), BuildingBlock: CIFDUS_clean_linker_0, # of connection points: 2
#     Edge 92, Type (0, 0), BuildingBlock: CIFDUS_clean_linker_0, # of connection points: 2
#     Edge 93, Type (0, 0), BuildingBlock: CIFDUS_clean_linker_0, # of connection points: 2
#     Edge 94, Type (0, 0), BuildingBlock: CIFDUS_clean_linker_0, # of connection points: 2
#     Edge 95, Type (0, 0), BuildingBlock: CIFDUS_clean_linker_0, # of connection points: 2
# Relax obj value: 0.305
# Max RMSD: 0.287
# Mean RMSD: 0.287
data_MOF--net-sxg--node1-UKALOJ_clean_sbu_0--edge1-CIFDUS_clean_linker_0
_symmetry_space_group_name_H-M    P1
_symmetry_Int_Tables_number       1
_symmetry_cell_setting            triclinic
loop_
_symmetry_equiv_pos_as_xyz
'x, y, z'
_cell_length_a     42.445228
_cell_length_b     42.445603
_cell_length_c     42.503358
_cell_angle_alpha  90.251993
_cell_angle_beta   90.049746
_cell_angle_gamma 90.089411
loop_
_atom_site_label
_atom_site_type_symbol
_atom_site_fract_x
_atom_site_fract_y
_atom_site_fract_z
_atom_type_partial_charge
Zn0 Zn 0.02268 0.26395 0.19468 0.0
O1 O 0.98702 0.25952 0.22995 0.0
C2 C 0.01021 0.33223 0.19931 0.0
Zn3 Zn 0.05432 0.28699 0.2296 0.0
C4 C 0.99309 0.26826 0.25806 0.0
O5 O 0.0201 0.27952 0.26465 0.0
C6 C 0.08454 0.28203 0.16638 0.0
O7 O 0.07505 0.24385 0.24102 0.0
O8 O 0.0427 0.21957 0.20843 0.0
N9 N 0.08189 0.31155 0.26059 0.0
C10 C 0.11314 0.31734 0.26035 0.0
C11 C 0.09169 0.35248 0.28898 0.0
N12 N 0.06869 0.33315 0.27878 0.0
N13 N 0.11991 0.34351 0.27744 0.0
C14 C 0.96927 0.25255 0.14584 0.0
C15 C 0.98906 0.21581 0.11793 0.0
N16 N 0.99568 0.24273 0.16056 0.0
N17 N 0.00776 0.21974 0.14326 0.0
N18 N 0.96492 0.23641 0.11864 0.0
H19 H 0.94825 0.27675 0.18525 0.0
H20 H 0.9223 0.27076 0.15193 0.0
H21 H 0.95282 0.30012 0.15039 0.0
C22 C 0.94681 0.27632 0.15921 0.0
C23 C 0.13698 0.2956 0.24593 0.0
H24 H 0.12845 0.27094 0.24656 0.0
H25 H 0.15974 0.29729 0.25871 0.0
H26 H 0.14101 0.30192 0.22105 0.0
O27 O 0.08845 0.29397 0.19356 0.0
O28 O 0.0587 0.26827 0.16017 0.0
C29 C 0.06487 0.21844 0.2287 0.0
O30 O 0.00314 0.30845 0.18256 0.0
O31 O 0.03203 0.32984 0.21948 0.0
Zn32 Zn 0.47955 0.72349 0.69194 0.0
O33 O 0.51472 0.73038 0.72688 0.0
C34 C 0.49136 0.65523 0.7009 0.0
Zn35 Zn 0.44746 0.70308 0.72768 0.0
C36 C 0.50815 0.72361 0.75531 0.0
O37 O 0.48118 0.71257 0.76215 0.0
C38 C 0.41758 0.70433 0.66467 0.0
O39 O 0.42748 0.74723 0.73641 0.0
O40 O 0.45998 0.76908 0.70265 0.0
N41 N 0.41937 0.68153 0.75986 0.0
C42 C 0.38789 0.67725 0.76006 0.0
C43 C 0.40801 0.64244 0.78976 0.0
N44 N 0.43177 0.66019 0.77873 0.0
N45 N 0.38012 0.65219 0.77809 0.0
C46 C 0.53351 0.73213 0.64299 0.0
C47 C 0.51396 0.76773 0.61375 0.0
N48 N 0.50673 0.74221 0.65686 0.0
N49 N 0.49477 0.76445 0.63871 0.0
N50 N 0.5383 0.74743 0.61552 0.0
H51 H 0.55364 0.7092 0.68343 0.0
H52 H 0.58038 0.7143 0.6507 0.0
H53 H 0.54989 0.68484 0.64892 0.0
C54 C 0.55571 0.70887 0.65743 0.0
C55 C 0.36492 0.69946 0.74508 0.0
H56 H 0.37422 0.72383 0.74551 0.0
H57 H 0.34203 0.69894 0.75768 0.0
H58 H 0.36087 0.69274 0.72023 0.0
O59 O 0.41344 0.69412 0.69236 0.0
O60 O 0.44371 0.71706 0.65774 0.0
C61 C 0.43794 0.77172 0.72286 0.0
O62 O 0.49898 0.67787 0.68299 0.0
O63 O 0.46915 0.65915 0.7204 0.0
Zn64 Zn 0.55336 0.20359 0.76459 0.0
O65 O 0.57422 0.24764 0.75484 0.0
C66 C 0.58667 0.2046 0.82656 0.0
Zn67 Zn 0.52443 0.22651 0.8023 0.0
C68 C 0.56677 0.27267 0.76963 0.0
O69 O 0.54633 0.27121 0.79166 0.0
C70 C 0.50905 0.15795 0.79236 0.0
O71 O 0.48849 0.2365 0.76985 0.0
O72 O 0.5162 0.2133 0.73249 0.0
N73 N 0.49926 0.24512 0.83958 0.0
C74 C 0.47247 0.23526 0.85369 0.0
C75 C 0.49423 0.26844 0.8845 0.0
N76 N 0.51259 0.26587 0.85877 0.0
N77 N 0.46905 0.24914 0.88224 0.0
C78 C 0.61009 0.17526 0.72716 0.0
C79 C 0.58611 0.146 0.69418 0.0
N80 N 0.57905 0.18176 0.72961 0.0
N81 N 0.56431 0.16397 0.7086 0.0
N82 N 0.61516 0.15238 0.70544 0.0
H83 H 0.62644 0.21155 0.75908 0.0
H84 H 0.65577 0.19655 0.73319 0.0
H85 H 0.64295 0.17248 0.76525 0.0
C86 C 0.63509 0.18983 0.74749 0.0
C87 C 0.44885 0.21365 0.83861 0.0
H88 H 0.45015 0.21518 0.81263 0.0
H89 H 0.42465 0.21972 0.84642 0.0
H90 H 0.45376 0.18901 0.84559 0.0
O91 O 0.50278 0.18128 0.81015 0.0
O92 O 0.53143 0.16028 0.7728 0.0
C93 C 0.49125 0.22733 0.74147 0.0
O94 O 0.58942 0.19424 0.79859 0.0
O95 O 0.56107 0.21764 0.83465 0.0
Zn96 Zn 0.94899 0.80421 0.27637 0.0
O97 O 0.92324 0.7642 0.26521 0.0
C98 C 0.92306 0.7972 0.34022 0.0
Zn99 Zn 0.98043 0.77498 0.30582 0.0
C100 C 0.93123 0.73657 0.27319 0.0
O101 O 0.95567 0.73271 0.2903 0.0
C102 C 0.99953 0.84275 0.30406 0.0
O103 O 0.01266 0.77008 0.26876 0.0
O104 O 0.97898 0.79514 0.23834 0.0
N105 N 0.00813 0.75039 0.33678 0.0
C106 C 0.03617 0.75842 0.34957 0.0
C107 C 0.01538 0.72407 0.37946 0.0
N108 N 0.99542 0.72882 0.35527 0.0
N109 N 0.04097 0.74272 0.37675 0.0
C110 C 0.89066 0.83892 0.25073 0.0
C111 C 0.912 0.87315 0.22106 0.0
N112 N 0.92153 0.83191 0.24877 0.0
N113 N 0.93468 0.85296 0.23 0.0
N114 N 0.88416 0.86516 0.23406 0.0
H115 H 0.87372 0.79401 0.26712 0.0
H116 H 0.84324 0.82141 0.25621 0.0
H117 H 0.86487 0.82652 0.2923 0.0
C118 C 0.86674 0.81903 0.26742 0.0
C119 C 0.0598 0.77983 0.33435 0.0
H120 H 0.05666 0.78001 0.30848 0.0
H121 H 0.08409 0.77208 0.34007 0.0
H122 H 0.05694 0.80423 0.34323 0.0
O123 O 0.00483 0.81745 0.31895 0.0
O124 O 0.97593 0.84407 0.28595 0.0
C125 C 0.00518 0.78123 0.24207 0.0
O126 O 0.91896 0.81278 0.31514 0.0
O127 O 0.94729 0.77992 0.34266 0.0
Zn128 Zn 0.23617 0.05128 0.29959 0.0
O129 O 0.24969 0.07288 0.25845 0.0
C130 C 0.17229 0.07804 0.28881 0.0
Zn131 Zn 0.206 0.01905 0.27135 0.0
C132 C 0.24148 0.06405 0.23109 0.0
O133 O 0.22263 0.04071 0.22804 0.0
C134 C 0.20524 0.00557 0.34032 0.0
O135 O 0.24329 0.98582 0.26972 0.0
O136 O 0.27407 0.01931 0.29491 0.0
N137 N 0.17517 0.98939 0.24836 0.0
C138 C 0.16246 0.96193 0.25825 0.0
C139 C 0.13252 0.97985 0.22237 0.0
N140 N 0.15661 1.0003 0.22588 0.0
N141 N 0.13529 0.95576 0.24277 0.0
C142 C 0.26074 0.11243 0.33061 0.0
C143 C 0.28849 0.09398 0.36796 0.0
N144 N 0.26302 0.08105 0.32606 0.0
N145 N 0.28062 0.0697 0.34907 0.0
N146 N 0.27599 0.12108 0.35721 0.0
H147 H 0.24739 0.12575 0.28351 0.0
H148 H 0.25694 0.15828 0.30934 0.0
H149 H 0.22032 0.1375 0.31357 0.0
C150 C 0.24558 0.13474 0.3079 0.0
C151 C 0.17772 0.9401 0.28139 0.0
H152 H 0.20358 0.94344 0.2817 0.0
H153 H 0.17224 0.91524 0.27525 0.0
H154 H 0.16859 0.94468 0.30537 0.0
O155 O 0.19152 0.99838 0.31475 0.0
O156 O 0.22404 0.02867 0.34083 0.0
C157 C 0.26986 0.99254 0.28196 0.0
O158 O 0.19768 0.08271 0.30391 0.0
O159 O 0.16915 0.05276 0.27309 0.0
Zn160 Zn 0.30558 0.97817 0.76685 0.0
O161 O 0.26905 0.01221 0.76467 0.0
C162 C 0.31371 0.99467 0.83584 0.0
Zn163 Zn 0.27871 0.94834 0.80038 0.0
C164 C 0.24564 0.00853 0.78301 0.0
O165 O 0.24371 0.9837 0.79957 0.0
C166 C 0.3388 0.91795 0.78483 0.0
O167 O 0.25892 0.92655 0.7606 0.0
O168 O 0.28639 0.95394 0.72632 0.0
N169 N 0.25187 0.92217 0.82992 0.0
C170 C 0.25164 0.89104 0.83601 0.0
C171 C 0.22614 0.9139 0.87267 0.0
N172 N 0.23571 0.93629 0.85253 0.0
N173 N 0.23609 0.88526 0.86312 0.0
C174 C 0.35008 0.03321 0.74892 0.0
C175 C 0.38037 0.01124 0.7156 0.0
N176 N 0.33669 0.00533 0.74096 0.0
N177 N 0.35551 0.99191 0.72001 0.0
N178 N 0.37787 0.03713 0.73391 0.0
H179 H 0.30907 0.05515 0.7694 0.0
H180 H 0.34147 0.08158 0.76149 0.0
H181 H 0.34355 0.05512 0.79409 0.0
C182 C 0.33502 0.0576 0.76961 0.0
C183 C 0.26486 0.8664 0.81438 0.0
H184 H 0.26417 0.87447 0.78967 0.0
H185 H 0.25139 0.84407 0.81651 0.0
H186 H 0.28974 0.86173 0.82057 0.0
O187 O 0.31422 0.91415 0.8013 0.0
O188 O 0.34189 0.94311 0.76906 0.0
C189 C 0.26614 0.93241 0.73219 0.0
O190 O 0.32192 0.00186 0.80808 0.0
O191 O 0.29745 0.97012 0.8401 0.0
Zn192 Zn 0.69745 0.47884 0.73339 0.0
O193 O 0.73065 0.51433 0.74349 0.0
C194 C 0.7021 0.49767 0.66531 0.0
Zn195 Zn 0.73275 0.45097 0.70579 0.0
C196 C 0.75819 0.51236 0.73182 0.0
O197 O 0.76559 0.48827 0.71538 0.0
C198 C 0.67128 0.41727 0.70974 0.0
O199 O 0.74578 0.42848 0.74817 0.0
O200 O 0.71042 0.45498 0.77538 0.0
N201 N 0.76651 0.42686 0.68042 0.0
C202 C 0.76914 0.39628 0.67188 0.0
C203 C 0.80058 0.42246 0.64303 0.0
N204 N 0.78653 0.44294 0.6628 0.0
N205 N 0.79009 0.39292 0.64808 0.0
C206 C 0.64646 0.52961 0.74753 0.0
C207 C 0.61504 0.5045 0.7773 0.0
N208 N 0.66093 0.50244 0.75539 0.0
N209 N 0.64139 0.48703 0.77415 0.0
N210 N 0.61738 0.53117 0.76036 0.0
H211 H 0.68743 0.55447 0.73117 0.0
H212 H 0.65294 0.57873 0.7372 0.0
H213 H 0.65486 0.55278 0.70385 0.0
C214 C 0.66146 0.55541 0.72893 0.0
C215 C 0.7492 0.37031 0.68501 0.0
H216 H 0.73991 0.37684 0.7085 0.0
H217 H 0.76297 0.34843 0.6878 0.0
H218 H 0.72954 0.36531 0.66854 0.0
O219 O 0.69839 0.41473 0.69729 0.0
O220 O 0.66444 0.44252 0.72421 0.0
C221 C 0.73254 0.43467 0.77435 0.0
O222 O 0.68728 0.50295 0.69077 0.0
O223 O 0.72081 0.47448 0.6639 0.0
Zn224 Zn 0.77985 0.55544 0.19699 0.0
O225 O 0.76341 0.57281 0.24035 0.0
C226 C 0.84275 0.58292 0.20927 0.0
Zn227 Zn 0.81092 0.52096 0.22073 0.0
C228 C 0.7754 0.56305 0.26596 0.0
O229 O 0.7966 0.54171 0.26503 0.0
C230 C 0.81037 0.51222 0.15109 0.0
O231 O 0.77418 0.48774 0.22407 0.0
O232 O 0.74479 0.52036 0.19677 0.0
N233 N 0.84267 0.49197 0.2426 0.0
C234 C 0.85534 0.46425 0.23348 0.0
C235 C 0.8843 0.4827 0.27012 0.0
N236 N 0.86059 0.50322 0.26555 0.0
N237 N 0.88191 0.45819 0.24997 0.0
C238 C 0.75106 0.61503 0.16577 0.0
C239 C 0.72204 0.59351 0.13092 0.0
N240 N 0.75069 0.58385 0.17154 0.0
N241 N 0.73228 0.57062 0.1501 0.0
N242 N 0.73377 0.62173 0.1398 0.0
H243 H 0.76744 0.62972 0.21144 0.0
H244 H 0.75364 0.66136 0.1865 0.0
H245 H 0.79101 0.64268 0.17889 0.0
C246 C 0.76656 0.63865 0.18696 0.0
C247 C 0.84062 0.44239 0.20991 0.0
H248 H 0.81482 0.44605 0.20863 0.0
H249 H 0.84556 0.41751 0.21614 0.0
H250 H 0.85077 0.44697 0.18642 0.0
O251 O 0.82249 0.50042 0.17573 0.0
O252 O 0.79505 0.53768 0.15362 0.0
C253 C 0.74852 0.49379 0.20988 0.0
O254 O 0.81588 0.58988 0.19807 0.0
O255 O 0.84788 0.55485 0.21801 0.0
Zn256 Zn 0.27288 0.19408 0.01626 0.0
O257 O 0.27298 0.23292 0.98555 0.0
C258 C 0.34343 0.19494 0.00926 0.0
Zn259 Zn 0.29707 0.22439 0.0516 0.0
C260 C 0.28631 0.2588 0.99278 0.0
O261 O 0.29792 0.26252 0.02012 0.0
C262 C 0.28296 0.15891 0.07501 0.0
O263 O 0.25204 0.23791 0.06829 0.0
O264 O 0.2276 0.20774 0.0339 0.0
N265 N 0.31804 0.25123 0.08576 0.0
C266 C 0.33943 0.24322 0.10777 0.0
C267 C 0.32959 0.29209 0.11398 0.0
N268 N 0.31195 0.28162 0.08963 0.0
N269 N 0.34673 0.26829 0.12588 0.0
C270 C 0.26419 0.1573 0.95395 0.0
C271 C 0.22999 0.12303 0.96699 0.0
N272 N 0.25332 0.16545 0.98269 0.0
N273 N 0.2317 0.14436 0.99051 0.0
N274 N 0.25008 0.13072 0.94374 0.0
H275 H 0.29583 0.19683 0.94643 0.0
H276 H 0.28605 0.17449 0.91176 0.0
H277 H 0.31262 0.15819 0.93998 0.0
C278 C 0.29118 0.17287 0.93729 0.0
C279 C 0.35474 0.21152 0.11054 0.0
H280 H 0.34302 0.19813 0.12956 0.0
H281 H 0.37994 0.21421 0.11703 0.0
H282 H 0.35305 0.19785 0.08842 0.0
O283 O 0.29546 0.18508 0.08274 0.0
O284 O 0.27238 0.15545 0.04732 0.0
C285 C 0.22646 0.2273 0.05673 0.0
O286 O 0.31856 0.18171 0.99914 0.0
O287 O 0.34175 0.21263 0.03333 0.0
Zn288 Zn 0.77841 0.29623 0.9722 0.0
O289 O 0.77164 0.2621 0.00736 0.0
C290 C 0.84745 0.28983 0.9842 0.0
Zn291 Zn 0.80142 0.26096 0.94065 0.0
C292 C 0.78139 0.23423 0.00228 0.0
O293 O 0.79388 0.22742 0.97599 0.0
C294 C 0.79735 0.32317 0.90984 0.0
O295 O 0.75704 0.25036 0.92106 0.0
O296 O 0.73325 0.2845 0.95223 0.0
N297 N 0.82357 0.22721 0.91434 0.0
C298 C 0.83151 0.2261 0.88368 0.0
C299 C 0.85858 0.19116 0.90712 0.0
N300 N 0.84008 0.20512 0.92876 0.0
N301 N 0.85392 0.20405 0.87859 0.0
C302 C 0.77247 0.34257 0.028 0.0
C303 C 0.75297 0.38246 0.00505 0.0
N304 N 0.76139 0.33264 0.99978 0.0
N305 N 0.74896 0.35748 0.98581 0.0
N306 N 0.76837 0.37411 0.03154 0.0
H307 H 0.77135 0.29807 0.05204 0.0
H308 H 0.78065 0.33094 0.07677 0.0
H309 H 0.80971 0.31587 0.04956 0.0
C310 C 0.78428 0.32068 0.05301 0.0
C311 C 0.81599 0.2452 0.85851 0.0
H312 H 0.79119 0.25035 0.86497 0.0
H313 H 0.81668 0.23243 0.83568 0.0
H314 H 0.82862 0.26781 0.85568 0.0
O315 O 0.8086 0.2958 0.90535 0.0
O316 O 0.78474 0.32957 0.93612 0.0
C317 C 0.73181 0.26352 0.93056 0.0
O318 O 0.82352 0.306 0.99176 0.0
O319 O 0.8453 0.27035 0.96163 0.0
Zn320 Zn 0.73148 0.69318 0.47361 0.0
O321 O 0.73638 0.72678 0.5105 0.0
C322 C 0.66266 0.69754 0.48544 0.0
Zn323 Zn 0.70895 0.73089 0.44493 0.0
C324 C 0.72713 0.75516 0.50772 0.0
O325 O 0.71441 0.76401 0.48208 0.0
C326 C 0.71624 0.66903 0.40995 0.0
O327 O 0.75307 0.74424 0.42689 0.0
O328 O 0.7761 0.70774 0.45554 0.0
N329 N 0.68546 0.76311 0.41742 0.0
C330 C 0.66054 0.75809 0.39826 0.0
C331 C 0.67029 0.80734 0.39744 0.0
N332 N 0.69144 0.79377 0.41696 0.0
N333 N 0.65083 0.78533 0.38526 0.0
C334 C 0.7422 0.64513 0.52744 0.0
C335 C 0.77351 0.61266 0.5055 0.0
N336 N 0.75164 0.65808 0.50004 0.0
N337 N 0.77146 0.63804 0.48673 0.0
N338 N 0.75514 0.61616 0.53118 0.0
H339 H 0.71091 0.6834 0.54112 0.0
H340 H 0.73123 0.66547 0.57231 0.0
H341 H 0.699 0.6445 0.55406 0.0
C342 C 0.71928 0.66041 0.54967 0.0
C343 C 0.64417 0.72695 0.39359 0.0
H344 H 0.65258 0.71604 0.37142 0.0
H345 H 0.61834 0.7304 0.39156 0.0
H346 H 0.64873 0.71026 0.4128 0.0
O347 O 0.70529 0.69678 0.40759 0.0
O348 O 0.72775 0.6604 0.43606 0.0
C349 C 0.77804 0.73046 0.43607 0.0
O350 O 0.68609 0.68006 0.49142 0.0
O351 O 0.66569 0.71912 0.46522 0.0
Zn352 Zn 0.20532 0.76928 0.55214 0.0
O353 O 0.24892 0.75475 0.57115 0.0
C354 C 0.21517 0.83354 0.58029 0.0
Zn355 Zn 0.23058 0.80174 0.51991 0.0
C356 C 0.27466 0.76711 0.56207 0.0
O357 O 0.27407 0.78853 0.54114 0.0
C358 C 0.16163 0.7996 0.50746 0.0
O359 O 0.23607 0.76555 0.48709 0.0
O360 O 0.20814 0.73356 0.51683 0.0
N361 N 0.25271 0.83353 0.4917 0.0
C362 C 0.24365 0.84617 0.46409 0.0
C363 C 0.27984 0.87551 0.48296 0.0
N364 N 0.27539 0.85163 0.50323 0.0
N365 N 0.25992 0.87291 0.45837 0.0
C366 C 0.15667 0.74588 0.60082 0.0
C367 C 0.16405 0.69624 0.60192 0.0
N368 N 0.18098 0.73954 0.58139 0.0
N369 N 0.18551 0.70867 0.58206 0.0
N370 N 0.14576 0.71916 0.61411 0.0
H371 H 0.15322 0.7895 0.62601 0.0
H372 H 0.11652 0.776 0.60944 0.0
H373 H 0.14615 0.79321 0.58471 0.0
C374 C 0.14225 0.77791 0.60526 0.0
C375 C 0.22045 0.83126 0.44188 0.0
H376 H 0.22006 0.80534 0.44481 0.0
H377 H 0.22657 0.83697 0.41717 0.0
H378 H 0.19647 0.84038 0.44665 0.0
O379 O 0.18675 0.81316 0.49869 0.0
O380 O 0.16233 0.78197 0.5314 0.0
C381 C 0.22307 0.73898 0.49144 0.0
O382 O 0.20405 0.80652 0.58707 0.0
O383 O 0.22588 0.83808 0.5529 0.0
Zn384 Zn 0.95192 0.70865 0.77575 0.0
O385 O 0.93114 0.7495 0.75947 0.0
C386 C 0.92388 0.72188 0.83975 0.0
Zn387 Zn 0.9823 0.73878 0.80634 0.0
C388 C 0.93675 0.77725 0.7692 0.0
O389 O 0.95769 0.78147 0.79055 0.0
C390 C 0.99768 0.66905 0.8077 0.0
O391 O 0.01372 0.74365 0.7694 0.0
O392 O 0.98711 0.71115 0.73898 0.0
N393 N 0.01191 0.76263 0.83682 0.0
C394 C 0.04119 0.75469 0.84656 0.0
C395 C 0.02161 0.78469 0.88168 0.0
N396 N 1.00005 0.7817 0.85852 0.0
N397 N 0.04765 0.76791 0.87479 0.0
C398 C 0.90302 0.65815 0.75486 0.0
C399 C 0.9019 0.66338 0.70504 0.0
N400 N 0.92269 0.68206 0.74759 0.0
N401 N 0.92192 0.68528 0.71662 0.0
N402 N 0.88956 0.64617 0.7286 0.0
H403 H 0.87806 0.65701 0.79849 0.0
H404 H 0.8938 0.6195 0.78648 0.0
H405 H 0.91946 0.64946 0.80229 0.0
C406 C 0.89855 0.6452 0.78736 0.0
C407 C 0.06218 0.73115 0.83052 0.0
H408 H 0.05426 0.72576 0.80633 0.0
H409 H 0.08654 0.74045 0.82921 0.0
H410 H 0.06293 0.70918 0.84457 0.0
O411 O 0.00561 0.69549 0.8194 0.0
O412 O 0.97346 0.66749 0.79044 0.0
C413 C 0.01114 0.72868 0.74363 0.0
O414 O 0.9177 0.70846 0.81355 0.0
O415 O 0.95057 0.73463 0.84359 0.0
Zn416 Zn 0.5213 0.27855 0.30514 0.0
O417 O 0.4858 0.27451 0.27006 0.0
C418 C 0.50727 0.3482 0.30633 0.0
Zn419 Zn 0.55134 0.30703 0.27324 0.0
C420 C 0.49016 0.28823 0.2438 0.0
O421 O 0.51587 0.30283 0.23886 0.0
C422 C 0.58287 0.29713 0.33456 0.0
O423 O 0.57135 0.26528 0.25742 0.0
O424 O 0.5427 0.23539 0.28831 0.0
N425 N 0.57816 0.33312 0.2435 0.0
C426 C 0.60964 0.33686 0.24177 0.0
C427 C 0.5886 0.37475 0.21676 0.0
N428 N 0.56515 0.35644 0.22757 0.0
N429 N 0.61685 0.3633 0.22566 0.0
C430 C 0.46829 0.26379 0.35303 0.0
C431 C 0.49197 0.23184 0.38341 0.0
N432 N 0.49517 0.25503 0.33846 0.0
N433 N 0.50951 0.23473 0.35718 0.0
N434 N 0.46604 0.25006 0.38167 0.0
H435 H 0.45133 0.29402 0.31568 0.0
H436 H 0.4215 0.2779 0.33983 0.0
H437 H 0.44565 0.30899 0.35547 0.0
C438 C 0.44565 0.28768 0.34023 0.0
C439 C 0.63314 0.31352 0.25402 0.0
H440 H 0.62376 0.28927 0.25243 0.0
H441 H 0.65541 0.31482 0.24044 0.0
H442 H 0.63839 0.31855 0.27904 0.0
O443 O 0.58648 0.31109 0.30847 0.0
O444 O 0.55736 0.28241 0.33962 0.0
C445 C 0.5638 0.23805 0.26709 0.0
O446 O 0.50031 0.32249 0.31983 0.0
O447 O 0.5303 0.34874 0.2875 0.0
Zn448 Zn 0.44889 0.79338 0.23452 0.0
O449 O 0.43048 0.74905 0.24695 0.0
C450 C 0.41885 0.78716 0.17117 0.0
Zn451 Zn 0.47984 0.76832 0.20046 0.0
C452 C 0.43705 0.72358 0.23246 0.0
O453 O 0.45711 0.72407 0.21003 0.0
C454 C 0.49289 0.83802 0.20679 0.0
O455 O 0.51298 0.75921 0.23505 0.0
O456 O 0.48657 0.78855 0.26853 0.0
N457 N 0.50781 0.75034 0.16514 0.0
C458 C 0.53627 0.76118 0.15591 0.0
C459 C 0.51335 0.74279 0.11529 0.0
N460 N 0.49388 0.73847 0.13987 0.0
N461 N 0.53996 0.75774 0.12438 0.0
C462 C 0.39101 0.82517 0.26819 0.0
C463 C 0.4144 0.85024 0.30485 0.0
N464 N 0.42152 0.81614 0.26774 0.0
N465 N 0.4358 0.8314 0.29096 0.0
N466 N 0.38599 0.84682 0.29107 0.0
H467 H 0.37096 0.78981 0.23801 0.0
H468 H 0.34266 0.81676 0.25387 0.0
H469 H 0.36861 0.82991 0.22344 0.0
C470 C 0.36689 0.81478 0.24458 0.0
C471 C 0.56154 0.77149 0.17842 0.0
H472 H 0.55947 0.75867 0.20091 0.0
H473 H 0.58523 0.76669 0.16851 0.0
H474 H 0.55943 0.79703 0.18325 0.0
O475 O 0.50226 0.8127 0.19385 0.0
O476 O 0.46777 0.83768 0.22284 0.0
C477 C 0.511 0.77241 0.26182 0.0
O478 O 0.41297 0.79685 0.19891 0.0
O479 O 0.44615 0.7769 0.16515 0.0
Zn480 Zn 0.05431 0.20239 0.73029 0.0
O481 O 0.07376 0.2467 0.74406 0.0
C482 C 0.08614 0.20799 0.66836 0.0
Zn483 Zn 0.02478 0.22855 0.69586 0.0
C484 C 0.0671 0.27234 0.73004 0.0
O485 O 0.04742 0.27191 0.70733 0.0
C486 C 0.00951 0.15919 0.7004 0.0
O487 O 0.991 0.2375 0.73073 0.0
O488 O 0.01744 0.20752 0.76371 0.0
N489 N 0.9976 0.24907 0.66127 0.0
C490 C 0.96809 0.24229 0.65132 0.0
C491 C 0.98976 0.27007 0.6157 0.0
N492 N 0.01084 0.26661 0.6392 0.0
N493 N 0.96274 0.25502 0.62274 0.0
C494 C 0.11289 0.1732 0.76201 0.0
C495 C 0.09188 0.13586 0.78785 0.0
N496 N 0.08145 0.17786 0.76162 0.0
N497 N 0.06851 0.15486 0.77809 0.0
N498 N 0.12008 0.14645 0.77771 0.0
H499 H 0.12717 0.2207 0.75139 0.0
H500 H 0.15886 0.19481 0.76305 0.0
H501 H 0.14158 0.19146 0.7246 0.0
C502 C 0.13648 0.1964 0.74963 0.0
C503 C 0.94598 0.22009 0.66758 0.0
H504 H 0.95205 0.21758 0.69269 0.0
H505 H 0.92138 0.22854 0.66606 0.0
H506 H 0.94704 0.1967 0.65587 0.0
O507 O 0.0017 0.18468 0.68699 0.0
O508 O 0.03392 0.15884 0.71751 0.0
C509 C 0.99328 0.22402 0.75725 0.0
O510 O 0.09003 0.19746 0.69597 0.0
O511 O 0.05988 0.22033 0.66117 0.0
Zn512 Zn 0.77637 0.95437 0.69888 0.0
O513 O 0.75931 0.93352 0.73954 0.0
C514 C 0.83881 0.92913 0.71608 0.0
Zn515 Zn 0.80136 0.98819 0.73085 0.0
C516 C 0.76546 0.94169 0.76765 0.0
O517 O 0.78398 0.96495 0.77265 0.0
C518 C 0.80695 0.00214 0.66106 0.0
O519 O 0.76315 0.01987 0.73219 0.0
O520 O 0.73839 0.9874 0.70002 0.0
N521 N 0.83099 0.01802 0.756 0.0
C522 C 0.84145 0.0472 0.74873 0.0
C523 C 0.87533 0.02697 0.77947 0.0
N524 N 0.85191 0.00578 0.77558 0.0
N525 N 0.8694 0.05321 0.76278 0.0
C526 C 0.75632 0.90422 0.64882 0.0
C527 C 0.70636 0.90379 0.654 0.0
N528 N 0.74916 0.9244 0.67235 0.0
N529 N 0.71812 0.92402 0.67555 0.0
N530 N 0.72987 0.89093 0.63703 0.0
H531 H 0.79984 0.87908 0.64883 0.0
H532 H 0.7881 0.89317 0.61072 0.0
H533 H 0.80376 0.92021 0.63974 0.0
C534 C 0.78886 0.89907 0.63616 0.0
C535 C 0.82626 0.06847 0.72522 0.0
H536 H 0.80138 0.06185 0.72161 0.0
H537 H 0.82697 0.09323 0.7335 0.0
H538 H 0.83936 0.0672 0.70267 0.0
O539 O 0.81567 0.01067 0.68844 0.0
O540 O 0.79225 0.97634 0.65771 0.0
C541 C 0.73915 0.01312 0.71554 0.0
O542 O 0.81478 0.92169 0.69968 0.0
O543 O 0.83946 0.95586 0.72955 0.0
Zn544 Zn 0.69122 0.02207 0.23682 0.0
O545 O 0.73033 0.99192 0.23835 0.0
C546 C 0.68773 0.00839 0.16616 0.0
Zn547 Zn 0.71748 0.05488 0.20592 0.0
C548 C 0.75421 0.9977 0.22129 0.0
O549 O 0.75529 0.02289 0.20532 0.0
C550 C 0.65407 0.07976 0.22261 0.0
O551 O 0.73406 0.0749 0.24746 0.0
O552 O 0.70735 0.04499 0.27991 0.0
N553 N 0.74381 0.08634 0.18157 0.0
C554 C 0.73554 0.10764 0.15973 0.0
C555 C 0.78517 0.11177 0.16655 0.0
N556 N 0.77465 0.08891 0.18582 0.0
N557 N 0.76094 0.12401 0.15028 0.0
C558 C 0.65443 0.96084 0.25199 0.0
C559 C 0.62047 0.97763 0.28483 0.0
N560 N 0.66317 0.99035 0.26038 0.0
N561 N 0.64224 1.00049 0.28117 0.0
N562 N 0.62756 0.95248 0.26675 0.0
H563 H 0.69349 0.95052 0.22064 0.0
H564 H 0.67235 0.91678 0.23445 0.0
H565 H 0.65466 0.94142 0.20537 0.0
C566 C 0.66983 0.94151 0.22666 0.0
C567 C 0.7031 0.11133 0.14625 0.0
H568 H 0.69096 0.13082 0.15873 0.0
H569 H 0.7044 0.11759 0.12096 0.0
H570 H 0.68905 0.08953 0.14882 0.0
O571 O 0.67891 0.08667 0.20744 0.0
O572 O 0.65219 0.05307 0.2358 0.0
C573 C 0.72686 0.06748 0.27542 0.0
O574 O 0.67763 0.99977 0.19293 0.0
O575 O 0.70288 0.03402 0.16408 0.0
Zn576 Zn 0.29526 0.52265 0.27523 0.0
O577 O 0.26243 0.48549 0.27046 0.0
C578 C 0.29445 0.51385 0.3454 0.0
Zn579 Zn 0.26148 0.5538 0.30042 0.0
C580 C 0.23639 0.48886 0.2848 0.0
O581 O 0.23018 0.51492 0.29826 0.0
C582 C 0.32153 0.58718 0.29089 0.0
O583 O 0.24584 0.56998 0.25596 0.0
O584 O 0.2811 0.54139 0.23084 0.0
N585 N 0.22747 0.57868 0.32379 0.0
C586 C 0.22532 0.6092 0.33228 0.0
C587 C 0.19205 0.58385 0.3598 0.0
N588 N 0.20639 0.56307 0.34059 0.0
N589 N 0.20367 0.61302 0.35531 0.0
C590 C 0.34554 0.47027 0.26602 0.0
C591 C 0.37507 0.49078 0.2312 0.0
N592 N 0.331 0.49657 0.25566 0.0
N593 N 0.34935 0.50912 0.23389 0.0
N594 N 0.37362 0.46643 0.25144 0.0
H595 H 0.30526 0.44841 0.28798 0.0
H596 H 0.33913 0.4231 0.28354 0.0
H597 H 0.3389 0.45352 0.31313 0.0
C598 C 0.33131 0.44748 0.28888 0.0
C599 C 0.2431 0.63543 0.31685 0.0
H600 H 0.24704 0.6299 0.29161 0.0
H601 H 0.22994 0.65792 0.31903 0.0
H602 H 0.26627 0.63842 0.32843 0.0
O603 O 0.29432 0.5916 0.30254 0.0
O604 O 0.32825 0.5603 0.27955 0.0
C605 C 0.25863 0.56134 0.23023 0.0
O606 O 0.30691 0.5041 0.32006 0.0
O607 O 0.27619 0.53735 0.34453 0.0
Zn608 Zn 0.23426 0.44693 0.80165 0.0
O609 O 0.24793 0.4318 0.75646 0.0
C610 C 0.17307 0.41421 0.79429 0.0
Zn611 Zn 0.1987 0.47888 0.78073 0.0
C612 C 0.23355 0.44118 0.73196 0.0
O613 O 0.21098 0.46085 0.73481 0.0
C614 C 0.204 0.48628 0.85072 0.0
O615 O 0.23257 0.51525 0.77603 0.0
O616 O 0.26652 0.48439 0.79992 0.0
N617 N 0.16315 0.50618 0.7626 0.0
C618 C 0.15059 0.5338 0.77228 0.0
C619 C 0.11921 0.51402 0.73844 0.0
N620 N 0.14366 0.49409 0.74143 0.0
N621 N 0.12263 0.53901 0.75787 0.0
C622 C 0.26834 0.38829 0.82696 0.0
C623 C 0.29532 0.40901 0.86385 0.0
N624 N 0.26707 0.41977 0.82336 0.0
N625 N 0.28429 0.43257 0.84597 0.0
N626 N 0.2853 0.3808 0.85292 0.0
H627 H 0.25711 0.37585 0.77909 0.0
H628 H 0.27039 0.3434 0.80312 0.0
H629 H 0.23133 0.35925 0.80787 0.0
C630 C 0.25618 0.36533 0.80289 0.0
C631 C 0.16646 0.55618 0.79458 0.0
H632 H 0.19229 0.55288 0.79453 0.0
H633 H 0.16096 0.58091 0.78825 0.0
H634 H 0.15774 0.55181 0.81866 0.0
O635 O 0.18887 0.4971 0.82729 0.0
O636 O 0.22177 0.46272 0.8465 0.0
C637 C 0.25958 0.51099 0.78824 0.0
O638 O 0.20109 0.40996 0.80375 0.0
O639 O 0.16501 0.44141 0.78487 0.0
Zn640 Zn 0.72806 0.81019 0.97846 0.0
O641 O 0.73292 0.77214 0.0091 0.0
C642 C 0.65642 0.80742 0.98751 0.0
Zn643 Zn 0.70128 0.78168 0.94384 0.0
C644 C 0.71751 0.74708 0.00318 0.0
O645 O 0.70212 0.74463 0.97753 0.0
C646 C 0.7132 0.84555 0.9194 0.0
O647 O 0.74408 0.76818 0.92659 0.0
O648 O 0.77364 0.79851 0.95625 0.0
N649 N 0.68107 0.75279 0.91127 0.0
C650 C 0.65545 0.75678 0.89303 0.0
C651 C 0.67773 0.71422 0.87816 0.0
N652 N 0.69484 0.72631 0.90207 0.0
N653 N 0.65284 0.73288 0.87221 0.0
C654 C 0.7378 0.85281 0.03763 0.0
C655 C 0.77184 0.88542 0.02072 0.0
N656 N 0.74822 0.84172 0.00965 0.0
N657 N 0.76959 0.86195 0.99939 0.0
N658 N 0.75174 0.88065 0.04482 0.0
H659 H 0.71655 0.80963 0.0538 0.0
H660 H 0.72196 0.83966 0.08379 0.0
H661 H 0.69153 0.84366 0.05486 0.0
C662 C 0.71579 0.83526 0.05877 0.0
C663 C 0.6341 0.78494 0.89418 0.0
H664 H 0.62525 0.79073 0.87033 0.0
H665 H 0.61356 0.77942 0.90933 0.0
H666 H 0.64607 0.80585 0.90409 0.0
O667 O 0.70166 0.81919 0.91104 0.0
O668 O 0.7236 0.84867 0.94721 0.0
C669 C 0.77108 0.77847 0.93382 0.0
O670 O 0.68172 0.81847 0.99953 0.0
O671 O 0.65782 0.79387 0.96101 0.0
Zn672 Zn 0.22458 0.70169 0.03081 0.0
O673 O 0.23398 0.73625 0.99682 0.0
C674 C 0.15442 0.70528 0.01356 0.0
Zn675 Zn 0.19455 0.73244 0.06077 0.0
C676 C 0.219 0.76186 0.00065 0.0
O677 O 0.2025 0.7659 0.02524 0.0
C678 C 0.19976 0.67154 0.09126 0.0
O679 O 0.23682 0.74448 0.08305 0.0
O680 O 0.2679 0.71356 0.05536 0.0
N681 N 0.17186 0.76636 0.08574 0.0
C682 C 0.16543 0.76964 0.11658 0.0
C683 C 0.13967 0.80495 0.09228 0.0
N684 N 0.15636 0.78878 0.07075 0.0
N685 N 0.14503 0.79353 0.12133 0.0
C686 C 0.23517 0.65542 0.97565 0.0
C687 C 0.25404 0.61601 0.99992 0.0
N688 N 0.24426 0.66569 0.00443 0.0
N689 N 0.25635 0.64116 0.01924 0.0
N690 N 0.24014 0.62399 0.97253 0.0
H691 H 0.23618 0.7001 0.95179 0.0
H692 H 0.23045 0.66667 0.92641 0.0
H693 H 0.19873 0.68033 0.95101 0.0
C694 C 0.22453 0.67685 0.94975 0.0
C695 C 0.17702 0.74784 0.14169 0.0
H696 H 0.20026 0.73788 0.13527 0.0
H697 H 0.17952 0.7603 0.16449 0.0
H698 H 0.15972 0.7285 0.14478 0.0
O699 O 0.18633 0.69791 0.09538 0.0
O700 O 0.2153 0.66697 0.06613 0.0
C701 C 0.26418 0.73377 0.07745 0.0
O702 O 0.18086 0.69317 0.00638 0.0
O703 O 0.15215 0.72146 0.03852 0.0
Zn704 Zn 0.27033 0.30969 0.52377 0.0
O705 O 0.2639 0.27421 0.4887 0.0
C706 C 0.33889 0.30748 0.50665 0.0
Zn707 Zn 0.29853 0.27742 0.55409 0.0
C708 C 0.27841 0.24839 0.49306 0.0
O709 O 0.2929 0.2438 0.51873 0.0
C710 C 0.29129 0.33895 0.58554 0.0
O711 O 0.25526 0.26284 0.57557 0.0
O712 O 0.2283 0.29564 0.54595 0.0
N713 N 0.32452 0.24547 0.5789 0.0
C714 C 0.33348 0.24377 0.60927 0.0
C715 C 0.36067 0.21021 0.58371 0.0
N716 N 0.34123 0.22434 0.56317 0.0
N717 N 0.35657 0.2221 0.61286 0.0
C718 C 0.25187 0.35411 0.46819 0.0
C719 C 0.22529 0.38934 0.49204 0.0
N720 N 0.24719 0.34377 0.49783 0.0
N721 N 0.23027 0.36559 0.51243 0.0
N722 N 0.23857 0.38266 0.46405 0.0
H723 H 0.27221 0.31255 0.44794 0.0
H724 H 0.26498 0.34305 0.4202 0.0
H725 H 0.29704 0.34736 0.44721 0.0
C726 C 0.27267 0.33825 0.44457 0.0
C727 C 0.31814 0.26182 0.63544 0.0
H728 H 0.29298 0.26617 0.62986 0.0
H729 H 0.31996 0.24873 0.65791 0.0
H730 H 0.33005 0.28488 0.63832 0.0
O731 O 0.30443 0.31235 0.58917 0.0
O732 O 0.27675 0.34448 0.56 0.0
C733 C 0.22891 0.27457 0.56718 0.0
O734 O 0.31302 0.32134 0.5008 0.0
O735 O 0.34088 0.29045 0.53101 0.0
Zn736 Zn 0.79363 0.23364 0.44764 0.0
O737 O 0.74896 0.24687 0.43057 0.0
C738 C 0.77871 0.1679 0.4262 0.0
Zn739 Zn 0.76894 0.20577 0.48464 0.0
C740 C 0.72324 0.23762 0.44278 0.0
O741 O 0.72399 0.21924 0.4664 0.0
C742 C 0.83941 0.20572 0.49148 0.0
O743 O 0.76938 0.24543 0.51476 0.0
O744 O 0.79363 0.27351 0.47852 0.0
N745 N 0.74845 0.17718 0.51773 0.0
C746 C 0.75904 0.16787 0.54615 0.0
C747 C 0.72496 0.13414 0.53115 0.0
N748 N 0.72689 0.15641 0.50873 0.0
N749 N 0.74493 0.14081 0.5549 0.0
C750 C 0.8409 0.25182 0.39513 0.0
C751 C 0.82039 0.29295 0.37518 0.0
N752 N 0.81494 0.25864 0.41217 0.0
N753 N 0.80225 0.28423 0.39974 0.0
N754 N 0.8449 0.27307 0.37195 0.0
H755 H 0.87081 0.21484 0.37693 0.0
H756 H 0.88122 0.22954 0.4153 0.0
H757 H 0.84801 0.20376 0.41078 0.0
C758 C 0.86117 0.22323 0.39972 0.0
C759 C 0.78544 0.18329 0.56386 0.0
H760 H 0.78812 0.20809 0.55659 0.0
H761 H 0.78087 0.18273 0.5895 0.0
H762 H 0.80764 0.17023 0.55942 0.0
O763 O 0.81409 0.19431 0.50254 0.0
O764 O 0.83835 0.2217 0.46638 0.0
C765 C 0.78207 0.27117 0.50611 0.0
O766 O 0.7918 0.19329 0.41729 0.0
O767 O 0.76837 0.16622 0.4541 0.0
H768 H 0.13619 0.38583 0.32133 0.0
H769 H 0.16392 0.34938 0.2306 0.0
H770 H 0.20453 0.38915 0.22657 0.0
H771 H 0.22888 0.43819 0.24602 0.0
H772 H 0.1962 0.47887 0.33324 0.0
H773 H 0.16061 0.4344 0.34101 0.0
C774 C 0.15149 0.38627 0.30092 0.0
C775 C 0.14739 0.36367 0.27694 0.0
C776 C 0.17349 0.41075 0.29764 0.0
C777 C 0.16716 0.36504 0.25035 0.0
C778 C 0.19012 0.38847 0.24759 0.0
C779 C 0.21395 0.43723 0.26669 0.0
C780 C 0.21477 0.46194 0.28873 0.0
C781 C 0.19295 0.41193 0.27069 0.0
C782 C 0.19546 0.46042 0.31555 0.0
C783 C 0.17529 0.43489 0.32016 0.0
H784 H 0.26718 0.56115 0.74945 0.0
H785 H 0.30114 0.52006 0.83567 0.0
H786 H 0.33812 0.5636 0.84268 0.0
H787 H 0.36321 0.61132 0.82258 0.0
H788 H 0.33484 0.64725 0.73207 0.0
H789 H 0.29269 0.60908 0.72924 0.0
C790 C 0.28266 0.56189 0.76976 0.0
C791 C 0.28179 0.53739 0.79178 0.0
C792 C 0.30453 0.58652 0.77322 0.0
C793 C 0.30187 0.53846 0.81807 0.0
C794 C 0.32283 0.56343 0.82224 0.0
C795 C 0.34746 0.61114 0.80248 0.0
C796 C 0.35185 0.63318 0.77827 0.0
C797 C 0.32469 0.58734 0.79971 0.0
C798 C 0.33148 0.63212 0.75206 0.0
C799 C 0.3076 0.60955 0.74996 0.0
H800 H 0.6124 0.08967 0.70971 0.0
H801 H 0.67707 0.16663 0.6957 0.0
H802 H 0.7217 0.13036 0.69966 0.0
H803 H 0.7422 0.07651 0.70855 0.0
H804 H 0.67689 0.99908 0.71649 0.0
H805 H 0.63247 0.03563 0.71312 0.0
C806 C 0.63627 0.09844 0.70717 0.0
C807 C 0.64149 0.13098 0.7037 0.0
C808 C 0.66161 0.07732 0.70851 0.0
C809 C 0.67249 0.14198 0.70004 0.0
C810 C 0.69798 0.12116 0.70191 0.0
C811 C 0.7182 0.06779 0.70967 0.0
C812 C 0.71264 0.03534 0.71335 0.0
C813 C 0.69282 0.08884 0.70671 0.0
C814 C 0.68157 0.02404 0.71393 0.0
C815 C 0.65625 0.0449 0.71197 0.0
H816 H 0.86406 0.90356 0.18854 0.0
H817 H 0.84523 0.8752 0.28401 0.0
H818 H 0.80184 0.91186 0.28727 0.0
H819 H 0.77095 0.9545 0.26441 0.0
H820 H 0.79368 0.98846 0.17165 0.0
H821 H 0.83423 0.94792 0.16616 0.0
C822 C 0.85013 0.90521 0.20986 0.0
C823 C 0.85694 0.8853 0.23529 0.0
C824 C 0.82634 0.92797 0.21234 0.0
C825 C 0.83936 0.88838 0.2632 0.0
C826 C 0.8149 0.91005 0.26542 0.0
C827 C 0.78483 0.95299 0.24302 0.0
C828 C 0.77955 0.97435 0.21856 0.0
C829 C 0.8084 0.93016 0.24029 0.0
C830 C 0.79768 0.97239 0.19098 0.0
C831 C 0.8207 0.94914 0.18774 0.0
H832 H 0.23819 0.23422 0.44473 0.0
H833 H 0.3296 0.21232 0.48331 0.0
H834 H 0.33871 0.17399 0.44159 0.0
H835 H 0.31941 0.14391 0.39642 0.0
H836 H 0.22549 0.16073 0.36181 0.0
H837 H 0.2191 0.20415 0.39855 0.0
C838 C 0.26004 0.22103 0.44384 0.0
C839 C 0.28289 0.22559 0.46729 0.0
C840 C 0.26492 0.19836 0.42012 0.0
C841 C 0.31129 0.2086 0.46589 0.0
C842 C 0.31667 0.18686 0.44192 0.0
C843 C 0.29778 0.15748 0.39661 0.0
C844 C 0.27355 0.14963 0.37551 0.0
C845 C 0.29345 0.18115 0.41924 0.0
C846 C 0.24532 0.16704 0.37643 0.0
C847 C 0.2413 0.19157 0.39807 0.0
H848 H 0.19067 0.86913 0.90315 0.0
H849 H 0.28193 0.84057 0.86909 0.0
H850 H 0.28345 0.79796 0.9069 0.0
H851 H 0.26094 0.77143 0.95316 0.0
H852 H 0.17259 0.80441 0.99112 0.0
H853 H 0.1682 0.84288 0.94905 0.0
C854 C 0.21064 0.85323 0.90375 0.0
C855 C 0.2355 0.85747 0.88243 0.0
C856 C 0.21229 0.82997 0.92693 0.0
C857 C 0.26159 0.83707 0.88385 0.0
C858 C 0.26285 0.813 0.90609 0.0
C859 C 0.2408 0.78709 0.95216 0.0
C860 C 0.21743 0.78544 0.97542 0.0
C861 C 0.23864 0.80964 0.92819 0.0
C862 C 0.19129 0.80569 0.97383 0.0
C863 C 0.18858 0.82754 0.94965 0.0
H864 H 0.79309 0.2679 0.56871 0.0
H865 H 0.77689 0.33378 0.49352 0.0
H866 H 0.77882 0.37768 0.53113 0.0
H867 H 0.7829 0.3969 0.58573 0.0
H868 H 0.80462 0.33175 0.66002 0.0
H869 H 0.80273 0.28778 0.62253 0.0
C870 C 0.78995 0.29189 0.56063 0.0
C871 C 0.78433 0.2977 0.52855 0.0
C872 C 0.79191 0.31697 0.58224 0.0
C873 C 0.78105 0.32885 0.51816 0.0
C874 C 0.78214 0.35388 0.53963 0.0
C875 C 0.7875 0.37308 0.5936 0.0
C876 C 0.79255 0.36734 0.6258 0.0
C877 C 0.78729 0.34817 0.57175 0.0
C878 C 0.79901 0.3365 0.63568 0.0
C879 C 0.79833 0.31146 0.61417 0.0
H880 H 0.68916 0.63675 0.09788 0.0
H881 H 0.779 0.66773 0.13438 0.0
H882 H 0.78034 0.71023 0.09697 0.0
H883 H 0.75836 0.73664 0.05089 0.0
H884 H 0.67214 0.70197 0.0094 0.0
H885 H 0.66769 0.66234 0.05077 0.0
C886 C 0.70884 0.65306 0.09792 0.0
C887 C 0.73318 0.64946 0.12018 0.0
C888 C 0.71063 0.67637 0.07467 0.0
C889 C 0.75886 0.67052 0.11929 0.0
C890 C 0.76011 0.69461 0.09713 0.0
C891 C 0.73861 0.72037 0.05089 0.0
C892 C 0.71574 0.72206 0.02707 0.0
C893 C 0.73644 0.69742 0.0744 0.0
C894 C 0.69031 0.70082 0.02728 0.0
C895 C 0.68761 0.67835 0.05105 0.0
H896 H 0.39636 0.30667 0.12993 0.0
H897 H 0.34655 0.23308 0.17826 0.0
H898 H 0.38655 0.23287 0.21997 0.0
H899 H 0.43666 0.25269 0.24157 0.0
H900 H 0.48746 0.32515 0.19169 0.0
H901 H 0.44631 0.3268 0.15172 0.0
C902 C 0.39431 0.29092 0.14985 0.0
C903 C 0.3689 0.26989 0.15129 0.0
C904 C 0.41767 0.29057 0.17323 0.0
C905 C 0.36625 0.24925 0.17684 0.0
C906 C 0.38904 0.24916 0.20056 0.0
C907 C 0.43871 0.26882 0.22195 0.0
C908 C 0.46519 0.28858 0.21954 0.0
C909 C 0.41507 0.26948 0.19881 0.0
C910 C 0.46748 0.30941 0.19397 0.0
C911 C 0.44389 0.31051 0.17114 0.0
H912 H 0.8793 0.25225 0.84651 0.0
H913 H 0.88086 0.15128 0.85588 0.0
H914 H 0.92548 0.14831 0.81927 0.0
H915 H 0.96557 0.17522 0.78682 0.0
H916 H 0.96078 0.2759 0.77499 0.0
H917 H 0.91527 0.27841 0.8103 0.0
C918 C 0.88831 0.22947 0.83952 0.0
C919 C 0.87616 0.2019 0.85316 0.0
C920 C 0.91378 0.22808 0.81866 0.0
C921 C 0.88961 0.17271 0.84524 0.0
C922 C 0.91519 0.17108 0.82457 0.0
C923 C 0.95457 0.19765 0.79225 0.0
C924 C 0.96668 0.22548 0.77917 0.0
C925 C 0.92785 0.19871 0.81165 0.0
C926 C 0.95192 0.25435 0.78534 0.0
C927 C 0.92592 0.25573 0.80533 0.0
H928 H 0.524 0.80972 0.31314 0.0
H929 H 0.56039 0.73225 0.25788 0.0
H930 H 0.60823 0.73183 0.28928 0.0
H931 H 0.63998 0.75309 0.33227 0.0
H932 H 0.60398 0.82816 0.39011 0.0
H933 H 0.55638 0.831 0.35714 0.0
C934 C 0.54225 0.79252 0.30828 0.0
C935 C 0.53843 0.77089 0.28331 0.0
C936 C 0.57002 0.79241 0.32648 0.0
C937 C 0.56257 0.74911 0.27698 0.0
C938 C 0.59008 0.74891 0.29482 0.0
C939 C 0.62151 0.7698 0.3378 0.0
C940 C 0.62496 0.78986 0.36387 0.0
C941 C 0.59406 0.77042 0.31954 0.0
C942 C 0.60161 0.81242 0.37013 0.0
C943 C 0.57435 0.81378 0.35151 0.0
H944 H 0.13456 0.75369 0.66567 0.0
H945 H 0.09964 0.67527 0.61146 0.0
H946 H 0.05372 0.67107 0.64643 0.0
H947 H 0.02292 0.69115 0.69202 0.0
H948 H 0.05859 0.7713 0.74409 0.0
H949 H 0.10409 0.77411 0.70975 0.0
C950 C 0.11659 0.73607 0.66122 0.0
C951 C 0.11992 0.71537 0.63567 0.0
C952 C 0.09018 0.73436 0.68085 0.0
C953 C 0.09731 0.6916 0.63096 0.0
C954 C 0.07102 0.68937 0.65078 0.0
C955 C 0.04049 0.7094 0.69557 0.0
C956 C 0.03717 0.73102 0.72057 0.0
C957 C 0.067 0.71092 0.67565 0.0
C958 C 0.06041 0.75431 0.72509 0.0
C959 C 0.08659 0.75595 0.70551 0.0
H960 H 0.83693 0.63536 0.76208 0.0
H961 H 0.89427 0.59847 0.68707 0.0
H962 H 0.85916 0.5528 0.68189 0.0
H963 H 0.81221 0.52338 0.69903 0.0
H964 H 0.75431 0.56116 0.7736 0.0
H965 H 0.78986 0.6061 0.77912 0.0
C966 C 0.84188 0.61706 0.74494 0.0
C967 C 0.86838 0.61983 0.72536 0.0
C968 C 0.82159 0.591 0.74216 0.0
C969 C 0.87402 0.59662 0.70244 0.0
C970 C 0.85406 0.57052 0.69959 0.0
C971 C 0.80752 0.5413 0.71668 0.0
C972 C 0.78074 0.53874 0.73603 0.0
C973 C 0.82782 0.56739 0.71943 0.0
C974 C 0.77478 0.56245 0.75845 0.0
C975 C 0.79507 0.58823 0.76161 0.0
H976 H 0.63409 0.4038 0.18093 0.0
H977 H 0.66335 0.36551 0.27011 0.0
H978 H 0.70865 0.40012 0.27106 0.0
H979 H 0.73753 0.44504 0.24927 0.0
H980 H 0.70428 0.4886 0.16398 0.0
H981 H 0.66273 0.44899 0.1592 0.0
C982 C 0.65071 0.40274 0.20028 0.0
C983 C 0.64585 0.38096 0.22461 0.0
C984 C 0.67566 0.42436 0.20182 0.0
C985 C 0.66719 0.38041 0.25 0.0
C986 C 0.69288 0.40089 0.25101 0.0
C987 C 0.72125 0.4457 0.22959 0.0
C988 C 0.72372 0.46971 0.20718 0.0
C989 C 0.69698 0.42337 0.22739 0.0
C990 C 0.70249 0.47051 0.1818 0.0
C991 C 0.67887 0.4478 0.17894 0.0
H992 H 0.39235 0.90891 0.28463 0.0
H993 H 0.32397 0.83602 0.30173 0.0
H994 H 0.28123 0.87482 0.29866 0.0
H995 H 0.2636 0.92957 0.28993 0.0
H996 H 0.33279 0.0029 0.27722 0.0
H997 H 0.37516 0.96396 0.27985 0.0
C998 C 0.36807 0.9017 0.288 0.0
C999 C 0.36107 0.86969 0.29258 0.0
C1000 C 0.34392 0.92416 0.28675 0.0
C1001 C 0.32967 0.86045 0.29721 0.0
C1002 C 0.30535 0.88262 0.2956 0.0
C1003 C 0.28797 0.93688 0.28748 0.0
C1004 C 0.29518 0.96887 0.28281 0.0
C1005 C 0.31219 0.91448 0.28992 0.0
C1006 C 0.32679 0.97831 0.28056 0.0
C1007 C 0.35096 0.95611 0.28212 0.0
H1008 H 0.23416 0.05855 0.74459 0.0
H1009 H 0.20454 0.01558 0.83156 0.0
H1010 H 0.16579 0.05714 0.83957 0.0
H1011 H 0.13815 0.10409 0.8205 0.0
H1012 H 0.16396 0.14329 0.7307 0.0
H1013 H 0.20673 0.10591 0.72585 0.0
C1014 C 0.21922 0.05832 0.76528 0.0
C1015 C 0.22198 0.03376 0.78718 0.0
C1016 C 0.19655 0.08208 0.76958 0.0
C1017 C 0.20256 0.03389 0.814 0.0
C1018 C 0.1805 0.05779 0.81875 0.0
C1019 C 0.15351 0.10476 0.80014 0.0
C1020 C 0.1483 0.12746 0.7767 0.0
C1021 C 0.17703 0.08179 0.79651 0.0
C1022 C 0.16808 0.12753 0.75008 0.0
C1023 C 0.19229 0.10549 0.74686 0.0
H1024 H 0.76023 0.8361 0.62864 0.0
H1025 H 0.69058 0.89725 0.58801 0.0
H1026 H 0.6837 0.86076 0.54363 0.0
H1027 H 0.6977 0.81143 0.51651 0.0
H1028 H 0.76583 0.74902 0.55855 0.0
H1029 H 0.7733 0.78597 0.60213 0.0
C1030 C 0.74384 0.84142 0.60982 0.0
C1031 C 0.72626 0.86938 0.61111 0.0
C1032 C 0.73976 0.82012 0.58474 0.0
C1033 C 0.7044 0.87583 0.58721 0.0
C1034 C 0.70054 0.85505 0.56192 0.0
C1035 C 0.71426 0.80598 0.53515 0.0
C1036 C 0.73132 0.77761 0.53416 0.0
C1037 C 0.71812 0.82712 0.56041 0.0
C1038 C 0.75239 0.77069 0.55873 0.0
C1039 C 0.75673 0.79183 0.58366 0.0
H1040 H 0.74871 0.23687 0.05719 0.0
H1041 H 0.81228 0.17818 0.00361 0.0
H1042 H 0.81286 0.13949 0.04578 0.0
H1043 H 0.795 0.12199 0.0979 0.0
H1044 H 0.72981 0.17897 0.15048 0.0
H1045 H 0.73023 0.21896 0.10891 0.0
C1046 C 0.7626 0.21558 0.05473 0.0
C1047 C 0.7803 0.21036 0.02731 0.0
C1048 C 0.76266 0.19327 0.07896 0.0
C1049 C 0.79819 0.18263 0.0244 0.0
C1050 C 0.7987 0.16055 0.04855 0.0
C1051 C 0.7812 0.14337 0.10012 0.0
C1052 C 0.76252 0.14796 0.12683 0.0
C1053 C 0.78107 0.16564 0.07591 0.0
C1054 C 0.74426 0.1753 0.1298 0.0
C1055 C 0.7445 0.19798 0.10613 0.0
H1056 H 0.17448 0.70567 0.46683 0.0
H1057 H 0.27458 0.72106 0.45905 0.0
H1058 H 0.27721 0.68414 0.4148 0.0
H1059 H 0.25137 0.64656 0.37992 0.0
H1060 H 0.15089 0.63328 0.38414 0.0
H1061 H 0.14779 0.67039 0.42855 0.0
C1062 C 0.19682 0.70057 0.45552 0.0
C1063 C 0.22445 0.71535 0.46629 0.0
C1064 C 0.19792 0.68019 0.42942 0.0
C1065 C 0.25319 0.7095 0.45116 0.0
C1066 C 0.25464 0.68859 0.42587 0.0
C1067 C 0.22862 0.65275 0.38952 0.0
C1068 C 0.20123 0.63807 0.37804 0.0
C1069 C 0.22716 0.67393 0.41476 0.0
C1070 C 0.17216 0.64485 0.3923 0.0
C1071 C 0.17046 0.66581 0.41774 0.0
H1072 H 0.25236 0.26656 0.93952 0.0
H1073 H 0.33147 0.30444 0.99115 0.0
H1074 H 0.34113 0.34255 0.94929 0.0
H1075 H 0.32558 0.3665 0.89923 0.0
H1076 H 0.24183 0.33259 0.85212 0.0
H1077 H 0.23668 0.2908 0.88982 0.0
C1078 C 0.27166 0.28323 0.94162 0.0
C1079 C 0.2909 0.283 0.96848 0.0
C1080 C 0.27678 0.30534 0.91778 0.0
C1081 C 0.31592 0.30461 0.97092 0.0
C1082 C 0.32165 0.32617 0.94687 0.0
C1083 C 0.30645 0.34968 0.8969 0.0
C1084 C 0.28488 0.35258 0.87186 0.0
C1085 C 0.30205 0.3269 0.9203 0.0
C1086 C 0.25996 0.33068 0.86969 0.0
C1087 C 0.25641 0.30692 0.89196 0.0
H1088 H 0.5718 0.72166 0.74954 0.0
H1089 H 0.49701 0.73268 0.81742 0.0
H1090 H 0.53548 0.73569 0.86 0.0
H1091 H 0.59033 0.73463 0.87804 0.0
H1092 H 0.66529 0.7223 0.81111 0.0
H1093 H 0.6269 0.71956 0.76792 0.0
C1094 C 0.56405 0.72504 0.77364 0.0
C1095 C 0.53175 0.72722 0.7804 0.0
C1096 C 0.58626 0.72608 0.79809 0.0
C1097 C 0.52183 0.73099 0.81172 0.0
C1098 C 0.54375 0.73265 0.83606 0.0
C1099 C 0.59807 0.73152 0.85393 0.0
C1100 C 0.6303 0.7291 0.84741 0.0
C1101 C 0.57597 0.73009 0.82953 0.0
C1102 C 0.6404 0.72422 0.81636 0.0
C1103 C 0.61854 0.72288 0.79179 0.0
H1104 H 0.06722 0.79354 0.24607 0.0
H1105 H 0.99302 0.77044 0.18052 0.0
H1106 H 0.03017 0.77388 0.13665 0.0
H1107 H 0.08373 0.78267 0.11739 0.0
H1108 H 0.15751 0.80904 0.18185 0.0
H1109 H 0.12049 0.80557 0.22616 0.0
C1110 C 0.05945 0.78886 0.22217 0.0
C1111 C 0.02785 0.78106 0.21626 0.0
C1112 C 0.08066 0.79188 0.19714 0.0
C1113 C 0.01748 0.77605 0.18533 0.0
C1114 C 0.03858 0.77818 0.16038 0.0
C1115 C 0.09143 0.78814 0.14114 0.0
C1116 C 0.12307 0.79578 0.14673 0.0
C1117 C 0.07014 0.78615 0.16605 0.0
C1118 C 0.1332 0.80269 0.17739 0.0
C1119 C 0.11212 0.80066 0.20254 0.0
H1120 H 0.46581 0.18301 0.70364 0.0
H1121 H 0.45696 0.28023 0.73181 0.0
H1122 H 0.41268 0.287 0.69542 0.0
H1123 H 0.37906 0.26588 0.65353 0.0
H1124 H 0.38466 0.16761 0.62827 0.0
H1125 H 0.42794 0.16043 0.66566 0.0
C1126 C 0.45415 0.20565 0.7016 0.0
C1127 C 0.46478 0.23132 0.71965 0.0
C1128 C 0.42816 0.20902 0.68146 0.0
C1129 C 0.44919 0.26034 0.71773 0.0
C1130 C 0.42391 0.26415 0.69705 0.0
C1131 C 0.38866 0.24259 0.65708 0.0
C1132 C 0.37806 0.21711 0.6386 0.0
C1133 C 0.41331 0.23868 0.6787 0.0
C1134 C 0.39223 0.18747 0.64247 0.0
C1135 C 0.41705 0.18342 0.66367 0.0
H1136 H 0.90748 0.26923 0.37939 0.0
H1137 H 0.83448 0.27816 0.30974 0.0
H1138 H 0.87391 0.27592 0.26756 0.0
H1139 H 0.9294 0.27094 0.25074 0.0
H1140 H 0.00236 0.26396 0.3211 0.0
H1141 H 0.96282 0.26522 0.36277 0.0
C1142 C 0.90035 0.27044 0.35493 0.0
C1143 C 0.86827 0.27338 0.34748 0.0
C1144 C 0.92311 0.26919 0.33102 0.0
C1145 C 0.85914 0.27584 0.31583 0.0
C1146 C 0.88163 0.27437 0.29181 0.0
C1147 C 0.93654 0.26934 0.27519 0.0
C1148 C 0.96871 0.26702 0.28284 0.0
C1149 C 0.91369 0.27084 0.29912 0.0
C1150 C 0.97772 0.26564 0.31463 0.0
C1151 C 0.95515 0.26644 0.33848 0.0
H1152 H 0.12673 0.08431 0.24417 0.0
H1153 H 0.1658 0.12991 0.3264 0.0
H1154 H 0.13493 0.17708 0.31551 0.0
H1155 H 0.10063 0.20692 0.28017 0.0
H1156 H 0.06105 0.16165 0.19804 0.0
H1157 H 0.08819 0.11267 0.2115 0.0
C1158 C 0.12801 0.10432 0.26008 0.0
C1159 C 0.14899 0.10378 0.28578 0.0
C1160 C 0.1104 0.13154 0.25348 0.0
C1161 C 0.15032 0.12993 0.30614 0.0
C1162 C 0.13267 0.15692 0.29992 0.0
C1163 C 0.09778 0.1863 0.26526 0.0
C1164 C 0.07918 0.18805 0.2379 0.0
C1165 C 0.11337 0.1583 0.27317 0.0
C1166 C 0.07535 0.16097 0.21914 0.0
C1167 C 0.09089 0.13297 0.22682 0.0
H1168 H 0.38049 0.90835 0.73692 0.0
H1169 H 0.34652 0.86752 0.82335 0.0
H1170 H 0.37501 0.81899 0.81197 0.0
H1171 H 0.40578 0.78666 0.77563 0.0
H1172 H 0.44064 0.82676 0.68929 0.0
H1173 H 0.41569 0.87716 0.70253 0.0
C1174 C 0.37987 0.88907 0.75357 0.0
C1175 C 0.36102 0.8914 0.78076 0.0
C1176 C 0.3961 0.86097 0.74669 0.0
C1177 C 0.36041 0.86616 0.80203 0.0
C1178 C 0.37668 0.83837 0.79553 0.0
C1179 C 0.40803 0.80644 0.7597 0.0
C1180 C 0.42465 0.80286 0.73129 0.0
C1181 C 0.39384 0.83522 0.76754 0.0
C1182 C 0.42782 0.82888 0.71122 0.0
C1183 C 0.41355 0.85767 0.71879 0.0
H1184 H 0.62268 0.40961 0.75067 0.0
H1185 H 0.67335 0.36159 0.67674 0.0
H1186 H 0.64496 0.31286 0.68847 0.0
H1187 H 0.60842 0.2831 0.722 0.0
H1188 H 0.55871 0.33086 0.79682 0.0
H1189 H 0.58421 0.38047 0.78249 0.0
C1190 C 0.62715 0.38867 0.73666 0.0
C1191 C 0.65028 0.38934 0.71282 0.0
C1192 C 0.61123 0.36055 0.74404 0.0
C1193 C 0.65587 0.36179 0.69526 0.0
C1194 C 0.63969 0.33387 0.70206 0.0
C1195 C 0.60303 0.30434 0.73519 0.0
C1196 C 0.58175 0.30308 0.76067 0.0
C1197 C 0.61784 0.3328 0.72685 0.0
C1198 C 0.57504 0.331 0.77726 0.0
C1199 C 0.58959 0.35942 0.76901 0.0
H1200 H 0.82995 0.64459 0.21653 0.0
H1201 H 0.90574 0.57764 0.22389 0.0
H1202 H 0.94019 0.61888 0.24561 0.0
H1203 H 0.94797 0.67437 0.2639 0.0
H1204 H 0.87006 0.73925 0.25645 0.0
H1205 H 0.83733 0.69841 0.23356 0.0
C1206 C 0.85421 0.63906 0.22195 0.0
C1207 C 0.86535 0.60822 0.21785 0.0
C1208 C 0.87343 0.66252 0.23503 0.0
C1209 C 0.89665 0.60135 0.22637 0.0
C1210 C 0.91628 0.62487 0.23904 0.0
C1211 C 0.92377 0.67937 0.25748 0.0
C1212 C 0.91159 0.70994 0.26188 0.0
C1213 C 0.90478 0.65555 0.24389 0.0
C1214 C 0.88022 0.71611 0.2532 0.0
C1215 C 0.86138 0.69274 0.24 0.0
H1216 H 0.22946 0.05567 0.16769 0.0
H1217 H 0.28274 0.11272 0.23342 0.0
H1218 H 0.30234 0.14483 0.19086 0.0
H1219 H 0.302 0.15945 0.13579 0.0
H1220 H 0.2493 0.10392 0.06872 0.0
H1221 H 0.23245 0.06845 0.11072 0.0
C1222 C 0.24549 0.07499 0.1726 0.0
C1223 C 0.25417 0.08182 0.20388 0.0
C1224 C 0.25696 0.09375 0.14775 0.0
C1225 C 0.27523 0.1069 0.20973 0.0
C1226 C 0.28663 0.12539 0.18535 0.0
C1227 C 0.28726 0.13934 0.13016 0.0
C1228 C 0.2769 0.13453 0.09916 0.0
C1229 C 0.27732 0.11937 0.15438 0.0
C1230 C 0.25772 0.10824 0.09242 0.0
C1231 C 0.24788 0.08801 0.11648 0.0
H1232 H 0.26728 0.9418 0.66828 0.0
H1233 H 0.23198 0.87868 0.73948 0.0
H1234 H 0.21036 0.84413 0.69917 0.0
H1235 H 0.20447 0.82951 0.64356 0.0
H1236 H 0.23885 0.89273 0.57206 0.0
H1237 H 0.25702 0.92944 0.61239 0.0
C1238 C 0.25473 0.92058 0.67495 0.0
C1239 C 0.25169 0.91282 0.70693 0.0
C1240 C 0.24195 0.90068 0.65152 0.0
C1241 C 0.23496 0.88533 0.71509 0.0
C1242 C 0.22248 0.86543 0.69202 0.0
C1243 C 0.21539 0.85157 0.63677 0.0
C1244 C 0.22044 0.85808 0.60477 0.0
C1245 C 0.22619 0.87259 0.66013 0.0
C1246 C 0.2347 0.8869 0.5965 0.0
C1247 C 0.24532 0.90794 0.61958 0.0
H1248 H 0.78041 0.39239 0.78021 0.0
H1249 H 0.70851 0.44053 0.83375 0.0
H1250 H 0.72489 0.41272 0.88115 0.0
H1251 H 0.75725 0.37256 0.90659 0.0
H1252 H 0.82834 0.32334 0.85315 0.0
H1253 H 0.81494 0.35419 0.80656 0.0
C1254 C 0.76835 0.39692 0.80225 0.0
C1255 C 0.74306 0.41838 0.8033 0.0
C1256 C 0.77782 0.38074 0.82944 0.0
C1257 C 0.7279 0.42404 0.83216 0.0
C1258 C 0.7373 0.40819 0.85932 0.0
C1259 C 0.77027 0.36891 0.88494 0.0
C1260 C 0.79362 0.3454 0.88331 0.0
C1261 C 0.76198 0.38625 0.85815 0.0
C1262 C 0.81003 0.34095 0.85496 0.0
C1263 C 0.80233 0.35857 0.8283 0.0
H1264 H 0.73183 0.60921 0.27485 0.0
H1265 H 0.7959 0.54895 0.32553 0.0
H1266 H 0.78079 0.57437 0.37502 0.0
H1267 H 0.75186 0.61594 0.40343 0.0
H1268 H 0.68944 0.67729 0.35205 0.0
H1269 H 0.70108 0.64884 0.30347 0.0
C1270 C 0.7424 0.60141 0.29671 0.0
C1271 C 0.76514 0.57723 0.29634 0.0
C1272 C 0.73381 0.6163 0.32504 0.0
C1273 C 0.77845 0.56753 0.32501 0.0
C1274 C 0.7698 0.58207 0.35336 0.0
C1275 C 0.74035 0.62278 0.38172 0.0
C1276 C 0.71969 0.64878 0.38153 0.0
C1277 C 0.74779 0.60675 0.35361 0.0
C1278 C 0.70532 0.65741 0.35303 0.0
C1279 C 0.71212 0.64122 0.32514 0.0
H1280 H 0.21601 0.27492 0.0984 0.0
H1281 H 0.16816 0.2011 0.047 0.0
H1282 H 0.11897 0.21384 0.07413 0.0
H1283 H 0.09075 0.24295 0.11571 0.0
H1284 H 0.13891 0.31666 0.16698 0.0
H1285 H 0.18665 0.30712 0.13642 0.0
C1286 C 0.19478 0.26172 0.09292 0.0
C1287 C 0.19592 0.23683 0.0709 0.0
C1288 C 0.16662 0.2691 0.10868 0.0
C1289 C 0.16804 0.22029 0.06388 0.0
C1290 C 0.13989 0.22753 0.07946 0.0
C1291 C 0.1115 0.25735 0.11982 0.0
C1292 C 0.11135 0.28018 0.14402 0.0
C1293 C 0.13904 0.2515 0.10233 0.0
C1294 C 0.1385 0.29856 0.14896 0.0
C1295 C 0.16584 0.29312 0.13146 0.0
H1296 H 0.72135 0.21699 0.88752 0.0
H1297 H 0.67328 0.28853 0.94167 0.0
H1298 H 0.62338 0.27386 0.91676 0.0
H1299 H 0.59416 0.24316 0.87721 0.0
H1300 H 0.64252 0.1726 0.82216 0.0
H1301 H 0.69151 0.18414 0.85027 0.0
C1302 C 0.69997 0.22937 0.89403 0.0
C1303 C 0.7012 0.25407 0.91632 0.0
C1304 C 0.67139 0.22088 0.87953 0.0
C1305 C 0.67313 0.26958 0.92452 0.0
C1306 C 0.64456 0.26116 0.9103 0.0
C1307 C 0.61524 0.22981 0.87174 0.0
C1308 C 0.61465 0.20709 0.84742 0.0
C1309 C 0.64348 0.2371 0.88752 0.0
C1310 C 0.64232 0.19032 0.84055 0.0
C1311 C 0.67038 0.197 0.85657 0.0
H1312 H 0.79136 0.78482 0.40532 0.0
H1313 H 0.83447 0.69976 0.44016 0.0
H1314 H 0.88485 0.71553 0.41729 0.0
H1315 H 0.91509 0.75086 0.38321 0.0
H1316 H 0.87186 0.83559 0.34779 0.0
H1317 H 0.82319 0.82283 0.37568 0.0
C1318 C 0.81181 0.76977 0.40804 0.0
C1319 C 0.80903 0.7409 0.424 0.0
C1320 C 0.84067 0.77897 0.39484 0.0
C1321 C 0.83589 0.72197 0.42779 0.0
C1322 C 0.86472 0.73099 0.41473 0.0
C1323 C 0.89531 0.76698 0.38218 0.0
C1324 C 0.89694 0.79391 0.36301 0.0
C1325 C 0.86721 0.75914 0.39771 0.0
C1326 C 0.87105 0.81446 0.36196 0.0
C1327 C 0.84318 0.80712 0.37781 0.0
H1328 H 0.41145 0.74405 0.61526 0.0
H1329 H 0.36223 0.67133 0.6662 0.0
H1330 H 0.3137 0.68368 0.63785 0.0
H1331 H 0.28428 0.71832 0.60226 0.0
H1332 H 0.33332 0.79199 0.55241 0.0
H1333 H 0.3829 0.77605 0.57675 0.0
C1334 C 0.39031 0.73038 0.61966 0.0
C1335 C 0.39041 0.70693 0.64299 0.0
C1336 C 0.36232 0.73815 0.60387 0.0
C1337 C 0.36271 0.68966 0.64856 0.0
C1338 C 0.33492 0.69681 0.63245 0.0
C1339 C 0.30582 0.73084 0.59659 0.0
C1340 C 0.30497 0.75657 0.57579 0.0
C1341 C 0.33425 0.72163 0.61075 0.0
C1342 C 0.33321 0.77226 0.56849 0.0
C1343 C 0.36161 0.76313 0.58236 0.0
H1344 H 0.83954 0.8667 0.70115 0.0
H1345 H 0.89317 0.93832 0.74975 0.0
H1346 H 0.92882 0.89824 0.77034 0.0
H1347 H 0.94279 0.84184 0.77762 0.0
H1348 H 0.88771 0.77121 0.72878 0.0
H1349 H 0.85504 0.81162 0.70573 0.0
C1350 C 0.85934 0.87367 0.71578 0.0
C1351 C 0.86349 0.90553 0.72384 0.0
C1352 C 0.87946 0.85046 0.72807 0.0
C1353 C 0.88928 0.91397 0.74306 0.0
C1354 C 0.90965 0.891 0.75507 0.0
C1355 C 0.92371 0.83536 0.76189 0.0
C1356 C 0.91786 0.80333 0.7553 0.0
C1357 C 0.9046 0.859 0.74833 0.0
C1358 C 0.89301 0.79552 0.73458 0.0
C1359 C 0.87413 0.81869 0.72119 0.0
H1360 H 0.65297 0.13975 0.20104 0.0
H1361 H 0.60156 0.07505 0.25988 0.0
H1362 H 0.56782 0.11801 0.27817 0.0
H1363 H 0.55601 0.17517 0.28091 0.0
H1364 H 0.60876 0.23883 0.22178 0.0
H1365 H 0.6387 0.19517 0.20045 0.0
C1366 C 0.63406 0.13484 0.21743 0.0
C1367 C 0.63001 0.10422 0.22913 0.0
C1368 C 0.61517 0.15967 0.22828 0.0
C1369 C 0.60528 0.09841 0.25042 0.0
C1370 C 0.58608 0.12303 0.2611 0.0
C1371 C 0.57392 0.17941 0.26324 0.0
C1372 C 0.58029 0.2104 0.25341 0.0
C1373 C 0.59133 0.15397 0.25081 0.0
C1374 C 0.60345 0.21538 0.23021 0.0
C1375 C 0.62065 0.19036 0.21782 0.0
H1376 H 0.39395 0.71627 0.27906 0.0
H1377 H 0.44263 0.66453 0.20623 0.0
H1378 H 0.41296 0.61699 0.21982 0.0
H1379 H 0.37104 0.59105 0.25041 0.0
H1380 H 0.32176 0.64361 0.32218 0.0
H1381 H 0.35407 0.68989 0.31109 0.0
C1382 C 0.39829 0.69459 0.26619 0.0
C1383 C 0.42047 0.6941 0.24149 0.0
C1384 C 0.38099 0.66749 0.27394 0.0
C1385 C 0.42571 0.66568 0.22525 0.0
C1386 C 0.40872 0.63847 0.23302 0.0
C1387 C 0.36766 0.61248 0.26397 0.0
C1388 C 0.3438 0.61388 0.28701 0.0
C1389 C 0.38604 0.63921 0.25709 0.0
C1390 C 0.33964 0.64195 0.30413 0.0
C1391 C 0.35815 0.66843 0.29779 0.0
H1392 H 0.10919 0.28111 0.77776 0.0
H1393 H 0.05892 0.33123 0.70524 0.0
H1394 H 0.08482 0.38027 0.72101 0.0
H1395 H 0.12405 0.4084 0.75339 0.0
H1396 H 0.17532 0.35783 0.82478 0.0
H1397 H 0.1464 0.30969 0.81176 0.0
C1398 C 0.10376 0.30276 0.76544 0.0
C1399 C 0.08222 0.30234 0.74019 0.0
C1400 C 0.11885 0.33089 0.77453 0.0
C1401 C 0.07547 0.33073 0.72465 0.0
C1402 C 0.09024 0.35885 0.73369 0.0
C1403 C 0.12844 0.387 0.76653 0.0
C1404 C 0.15186 0.38673 0.79002 0.0
C1405 C 0.11221 0.35917 0.7584 0.0
C1406 C 0.15755 0.35866 0.8065 0.0
C1407 C 0.14108 0.33108 0.799 0.0
H1408 H 0.69915 0.84417 0.85717 0.0
H1409 H 0.7425 0.90248 0.92852 0.0
H1410 H 0.76177 0.93846 0.88812 0.0
H1411 H 0.77031 0.95081 0.83177 0.0
H1412 H 0.72705 0.89097 0.76138 0.0
H1413 H 0.70414 0.85842 0.80202 0.0
C1414 C 0.71234 0.86503 0.864 0.0
C1415 C 0.71949 0.87042 0.89582 0.0
C1416 C 0.72393 0.88525 0.84067 0.0
C1417 C 0.73662 0.89766 0.90416 0.0
C1418 C 0.74789 0.91818 0.88104 0.0
C1419 C 0.75576 0.93076 0.8254 0.0
C1420 C 0.75084 0.92332 0.79347 0.0
C1421 C 0.74241 0.91177 0.84909 0.0
C1422 C 0.73161 0.89731 0.78568 0.0
C1423 C 0.71832 0.87856 0.80894 0.0
H1424 H 0.71777 0.06236 0.33973 0.0
H1425 H 0.76965 0.1145 0.2696 0.0
H1426 H 0.79249 0.14769 0.31 0.0
H1427 H 0.79545 0.1649 0.36461 0.0
H1428 H 0.74402 0.1142 0.43581 0.0
H1429 H 0.72409 0.07752 0.39599 0.0
C1430 C 0.7342 0.08084 0.33338 0.0
C1431 C 0.74151 0.08594 0.30148 0.0
C1432 C 0.74757 0.10028 0.35698 0.0
C1433 C 0.76313 0.10998 0.2938 0.0
C1434 C 0.77641 0.12911 0.31695 0.0
C1435 C 0.78027 0.14556 0.37157 0.0
C1436 C 0.77118 0.14254 0.40316 0.0
C1437 C 0.76847 0.12485 0.34853 0.0
C1438 C 0.75149 0.11719 0.41165 0.0
C1439 C 0.73986 0.09626 0.38882 0.0
H1440 H 0.23915 0.62121 0.09591 0.0
H1441 H 0.16595 0.67088 0.14605 0.0
H1442 H 0.17654 0.63964 0.19297 0.0
H1443 H 0.20984 0.60188 0.22117 0.0
H1444 H 0.28402 0.55315 0.17151 0.0
H1445 H 0.26966 0.5803 0.123 0.0
C1446 C 0.22505 0.62481 0.11688 0.0
C1447 C 0.20192 0.64862 0.11746 0.0
C1448 C 0.23173 0.6072 0.14403 0.0
C1449 C 0.18403 0.65295 0.14495 0.0
C1450 C 0.19016 0.63515 0.17187 0.0
C1451 C 0.22274 0.59694 0.1997 0.0
C1452 C 0.2482 0.57567 0.20014 0.0
C1453 C 0.21454 0.61284 0.17193 0.0
C1454 C 0.26444 0.56947 0.17197 0.0
C1455 C 0.25625 0.58503 0.14418 0.0
H1456 H 0.28433 0.40474 0.71816 0.0
H1457 H 0.20317 0.44832 0.67539 0.0
H1458 H 0.21606 0.42327 0.62507 0.0
H1459 H 0.24791 0.38544 0.59447 0.0
H1460 H 0.32847 0.3415 0.63793 0.0
H1461 H 0.31847 0.37056 0.68657 0.0
C1462 C 0.26952 0.409 0.69781 0.0
C1463 C 0.24261 0.4282 0.70071 0.0
C1464 C 0.27697 0.3944 0.66902 0.0
C1465 C 0.22394 0.4336 0.67393 0.0
C1466 C 0.23129 0.41924 0.64512 0.0
C1467 C 0.26369 0.38271 0.61436 0.0
C1468 C 0.28876 0.36102 0.61261 0.0
C1469 C 0.25745 0.39915 0.64253 0.0
C1470 C 0.30879 0.35767 0.63872 0.0
C1471 C 0.30306 0.37428 0.66659 0.0
H1472 H 0.86086 0.72128 0.83051 0.0
H1473 H 0.93128 0.7384 0.90168 0.0
H1474 H 0.89084 0.75841 0.9376 0.0
H1475 H 0.83496 0.77373 0.94784 0.0
H1476 H 0.76643 0.75807 0.87415 0.0
H1477 H 0.80641 0.73556 0.8405 0.0
C1478 C 0.8673 0.72873 0.85411 0.0
C1479 C 0.89897 0.72805 0.86342 0.0
C1480 C 0.84419 0.74123 0.87419 0.0
C1481 C 0.90695 0.73845 0.89395 0.0
C1482 C 0.88387 0.75019 0.91444 0.0
C1483 C 0.82897 0.76561 0.92436 0.0
C1484 C 0.79762 0.76757 0.91379 0.0
C1485 C 0.85238 0.75236 0.90462 0.0
C1486 C 0.79025 0.75669 0.88323 0.0
C1487 C 0.81311 0.74366 0.86379 0.0
H1488 H 0.32766 0.73745 0.06394 0.0
H1489 H 0.25926 0.75626 0.13671 0.0
H1490 H 0.30016 0.77762 0.17064 0.0
H1491 H 0.35547 0.78946 0.18085 0.0
H1492 H 0.42484 0.771 0.10906 0.0
H1493 H 0.38363 0.75191 0.07359 0.0
C1494 C 0.32185 0.74606 0.08728 0.0
C1495 C 0.29042 0.74503 0.09772 0.0
C1496 C 0.34563 0.75888 0.10683 0.0
C1497 C 0.28321 0.75673 0.12794 0.0
C1498 C 0.3066 0.76908 0.14745 0.0
C1499 C 0.36159 0.78192 0.15727 0.0
C1500 C 0.39328 0.78182 0.14778 0.0
C1501 C 0.33788 0.7703 0.1372 0.0
C1502 C 0.40063 0.77151 0.11708 0.0
C1503 C 0.37708 0.76028 0.0968 0.0
H1504 H 0.22019 0.22544 0.60767 0.0
H1505 H 0.17015 0.29892 0.55863 0.0
H1506 H 0.12086 0.28202 0.58258 0.0
H1507 H 0.09246 0.24887 0.62001 0.0
H1508 H 0.14203 0.17585 0.66997 0.0
H1509 H 0.19079 0.1897 0.64265 0.0
C1510 C 0.19849 0.23772 0.60217 0.0
C1511 C 0.19902 0.26363 0.58158 0.0
C1512 C 0.17006 0.22785 0.61605 0.0
C1513 C 0.17057 0.27903 0.57451 0.0
C1514 C 0.14229 0.26934 0.58814 0.0
C1515 C 0.11374 0.23547 0.62444 0.0
C1516 C 0.11364 0.21152 0.64721 0.0
C1517 C 0.1418 0.24402 0.60919 0.0
C1518 C 0.14154 0.19463 0.65281 0.0
C1519 C 0.16946 0.20261 0.63727 0.0
H1520 H 0.58804 0.2573 0.38435 0.0
H1521 H 0.63809 0.33032 0.33457 0.0
H1522 H 0.68557 0.31914 0.36489 0.0
H1523 H 0.71405 0.2857 0.4021 0.0
H1524 H 0.66442 0.21261 0.45211 0.0
H1525 H 0.61548 0.22695 0.42528 0.0
C1526 C 0.60916 0.27117 0.3805 0.0
C1527 C 0.60962 0.29429 0.3568 0.0
C1528 C 0.63654 0.26438 0.39783 0.0
C1529 C 0.6372 0.31205 0.35223 0.0
C1530 C 0.66439 0.30565 0.36957 0.0
C1531 C 0.6925 0.27299 0.4073 0.0
C1532 C 0.69298 0.24784 0.42878 0.0
C1533 C 0.66455 0.28132 0.39179 0.0
C1534 C 0.66474 0.23196 0.43558 0.0
C1535 C 0.63676 0.24013 0.4202 0.0
H1536 H 0.9428 0.29267 0.09768 0.0
H1537 H 0.94043 0.1926 0.07999 0.0
H1538 H 0.90723 0.20111 0.03379 0.0
H1539 H 0.8773 0.23657 0.99992 0.0
H1540 H 0.87396 0.33593 0.0211 0.0
H1541 H 0.91095 0.32824 0.06485 0.0
C1542 C 0.93418 0.27261 0.08451 0.0
C1543 C 0.9433 0.24185 0.093 0.0
C1544 C 0.91459 0.27768 0.05832 0.0
C1545 C 0.93337 0.21639 0.07422 0.0
C1546 C 0.91452 0.22127 0.04776 0.0
C1547 C 0.88528 0.25669 0.01362 0.0
C1548 C 0.87369 0.28694 0.0068 0.0
C1549 C 0.90498 0.25179 0.03963 0.0
C1550 C 0.8832 0.31258 0.02552 0.0
C1551 C 0.90402 0.30809 0.05069 0.0
H1552 H 0.62942 0.74921 0.50004 0.0
H1553 H 0.63781 0.65059 0.52253 0.0
H1554 H 0.59922 0.65715 0.56514 0.0
H1555 H 0.56434 0.69173 0.59657 0.0
H1556 H 0.562 0.79138 0.57717 0.0
H1557 H 0.59699 0.78356 0.53233 0.0
C1558 C 0.62237 0.7289 0.51378 0.0
C1559 C 0.6359 0.69924 0.50765 0.0
C1560 C 0.60172 0.73324 0.53909 0.0
C1561 C 0.62726 0.67349 0.52642 0.0
C1562 C 0.60547 0.67735 0.55094 0.0
C1563 C 0.57227 0.7119 0.58331 0.0
C1564 C 0.56117 0.74234 0.5909 0.0
C1565 C 0.59299 0.70729 0.55785 0.0
C1566 C 0.57045 0.76784 0.57207 0.0
C1567 C 0.59035 0.76336 0.54638 0.0
H1568 H 0.37736 0.24711 0.99802 0.0
H1569 H 0.36879 0.14955 0.9708 0.0
H1570 H 0.40777 0.15755 0.9289 0.0
H1571 H 0.44278 0.19307 0.89907 0.0
H1572 H 0.44638 0.29177 0.92318 0.0
H1573 H 0.411 0.28257 0.96756 0.0
C1574 C 0.38465 0.22737 0.98345 0.0
C1575 C 0.37091 0.19753 0.98804 0.0
C1576 C 0.4057 0.23258 0.95852 0.0
C1577 C 0.37959 0.17253 0.96814 0.0
C1578 C 0.4016 0.17722 0.94401 0.0
C1579 C 0.43513 0.21275 0.91334 0.0
C1580 C 0.44655 0.24335 0.9071 0.0
C1581 C 0.41434 0.20732 0.93859 0.0
C1582 C 0.43764 0.26815 0.9272 0.0
C1583 C 0.41751 0.26287 0.95263 0.0
H1584 H 0.13232 0.74582 0.49256 0.0
H1585 H 0.13485 0.84467 0.46991 0.0
H1586 H 0.09696 0.83568 0.42701 0.0
H1587 H 0.064 0.79924 0.39594 0.0
H1588 H 0.06691 0.69962 0.41487 0.0
H1589 H 0.10186 0.70928 0.45977 0.0
C1590 C 0.12402 0.76553 0.47866 0.0
C1591 C 0.13549 0.79605 0.48488 0.0
C1592 C 0.10379 0.75985 0.45318 0.0
C1593 C 0.12566 0.82115 0.46593 0.0
C1594 C 0.10432 0.81592 0.4413 0.0
C1595 C 0.07316 0.7795 0.40903 0.0
C1596 C 0.06368 0.74855 0.40136 0.0
C1597 C 0.09361 0.78526 0.43444 0.0
C1598 C 0.07426 0.72352 0.42007 0.0
C1599 C 0.09408 0.72908 0.44576 0.0
H1600 H 0.11623 0.93508 0.30021 0.0
H1601 H 0.09755 0.92721 0.20076 0.0
H1602 H 0.05236 0.89312 0.21157 0.0
H1603 H 0.0183 0.86607 0.24904 0.0
H1604 H 0.03958 0.86888 0.34818 0.0
H1605 H 0.0844 0.90425 0.33782 0.0
C1606 C 0.10317 0.92498 0.2808 0.0
C1607 C 0.11091 0.93302 0.24953 0.0
C1608 C 0.07747 0.90504 0.28725 0.0
C1609 C 0.09228 0.92109 0.2249 0.0
C1610 C 0.06643 0.90174 0.2311 0.0
C1611 C 0.03245 0.87485 0.26849 0.0
C1612 C 0.02512 0.86585 0.29947 0.0
C1613 C 0.05867 0.89385 0.26216 0.0
C1614 C 0.0444 0.87618 0.32427 0.0
C1615 C 0.07007 0.89616 0.31827 0.0
H1616 H 0.49369 0.12913 0.73799 0.0
H1617 H 0.47072 0.13074 0.83679 0.0
H1618 H 0.4278 0.09296 0.82734 0.0
H1619 H 0.39678 0.06008 0.7906 0.0
H1620 H 0.41693 0.06273 0.6913 0.0
H1621 H 0.46155 0.09809 0.7013 0.0
C1622 C 0.4797 0.12076 0.75761 0.0
C1623 C 0.48582 0.13216 0.78823 0.0
C1624 C 0.45439 0.10021 0.75175 0.0
C1625 C 0.46677 0.12193 0.81316 0.0
C1626 C 0.44214 0.10053 0.80768 0.0
C1627 C 0.41014 0.06922 0.77101 0.0
C1628 C 0.40278 0.0596 0.74001 0.0
C1629 C 0.43548 0.08985 0.77698 0.0
C1630 C 0.42183 0.07017 0.71521 0.0
C1631 C 0.44735 0.09027 0.72097 0.0
H1632 H 0.6012 0.5555 0.70378 0.0
H1633 H 0.57464 0.55323 0.80154 0.0
H1634 H 0.53036 0.58854 0.79064 0.0
H1635 H 0.50138 0.62225 0.75404 0.0
H1636 H 0.53084 0.62855 0.65715 0.0
H1637 H 0.5723 0.58961 0.66696 0.0
C1638 C 0.58642 0.56351 0.7229 0.0
C1639 C 0.59198 0.55273 0.75375 0.0
C1640 C 0.5614 0.5842 0.71647 0.0
C1641 C 0.57115 0.56169 0.77779 0.0
C1642 C 0.54585 0.58178 0.77152 0.0
C1643 C 0.51642 0.61464 0.73484 0.0
C1644 C 0.51278 0.628 0.70474 0.0
C1645 C 0.54093 0.59336 0.741 0.0
C1646 C 0.53301 0.61844 0.6804 0.0
C1647 C 0.55682 0.59636 0.68609 0.0
H1648 H 0.99398 0.36251 0.25222 0.0
H1649 H 0.97506 0.35973 0.15256 0.0
H1650 H 0.93328 0.39919 0.15942 0.0
H1651 H 0.90214 0.43376 0.19426 0.0
H1652 H 0.91758 0.43134 0.29449 0.0
H1653 H 0.96135 0.39473 0.28693 0.0
C1654 C 0.98115 0.371 0.23186 0.0
C1655 C 0.98806 0.35889 0.20178 0.0
C1656 C 0.95635 0.39231 0.23624 0.0
C1657 C 0.97049 0.36921 0.17582 0.0
C1658 C 0.94649 0.39152 0.17982 0.0
C1659 C 0.91417 0.42439 0.21457 0.0
C1660 C 0.90583 0.43455 0.24509 0.0
C1661 C 0.93894 0.40288 0.21003 0.0
C1662 C 0.92326 0.42355 0.27088 0.0
C1663 C 0.94832 0.40274 0.26654 0.0
H1664 H 0.27875 0.07588 0.95398 0.0
H1665 H 0.24846 0.13909 0.88118 0.0
H1666 H 0.27089 0.10409 0.84088 0.0
H1667 H 0.2958 0.05418 0.82682 0.0
H1668 H 0.32356 0.98901 0.8991 0.0
H1669 H 0.30614 0.02642 0.93968 0.0
C1670 C 0.27707 0.0817 0.92922 0.0
C1671 C 0.26186 0.1096 0.92018 0.0
C1672 C 0.29011 0.06155 0.90646 0.0
C1673 C 0.25999 0.11753 0.88829 0.0
C1674 C 0.27293 0.09767 0.86545 0.0
C1675 C 0.29944 0.04876 0.85144 0.0
C1676 C 0.31204 0.01942 0.86008 0.0
C1677 C 0.28796 0.06961 0.87431 0.0
C1678 C 0.31475 0.01186 0.89206 0.0
C1679 C 0.30437 0.03302 0.91514 0.0
H1680 H 0.74815 0.43291 0.04308 0.0
H1681 H 0.82132 0.36736 0.06861 0.0
H1682 H 0.84201 0.40466 0.1068 0.0
H1683 H 0.83854 0.45605 0.1344 0.0
H1684 H 0.76962 0.52381 0.10314 0.0
H1685 H 0.74973 0.48644 0.06461 0.0
C1686 C 0.76857 0.42663 0.05703 0.0
C1687 C 0.78144 0.39617 0.0543 0.0
C1688 C 0.78188 0.44913 0.07748 0.0
C1689 C 0.80885 0.38926 0.07176 0.0
C1690 C 0.82144 0.41111 0.09315 0.0
C1691 C 0.8195 0.4628 0.11891 0.0
C1692 C 0.80534 0.49261 0.12239 0.0
C1693 C 0.80792 0.44105 0.09651 0.0
C1694 C 0.78111 0.5011 0.10135 0.0
C1695 C 0.76934 0.47955 0.07941 0.0
H1696 H 0.74059 0.61986 0.59345 0.0
H1697 H 0.75002 0.55442 0.51626 0.0
H1698 H 0.7323 0.51147 0.55006 0.0
H1699 H 0.71425 0.49254 0.6022 0.0
H1700 H 0.70167 0.56017 0.67705 0.0
H1701 H 0.7178 0.60255 0.64283 0.0
C1702 C 0.7375 0.5967 0.58339 0.0
C1703 C 0.74573 0.59089 0.55191 0.0
C1704 C 0.72589 0.57242 0.60246 0.0
C1705 C 0.7438 0.55975 0.54039 0.0
C1706 C 0.73336 0.53517 0.55962 0.0
C1707 C 0.71418 0.51669 0.61063 0.0
C1708 C 0.70548 0.52318 0.64194 0.0
C1709 C 0.72414 0.54125 0.59072 0.0
C1710 C 0.70642 0.55452 0.65277 0.0
C1711 C 0.71651 0.57883 0.63334 0.0
H1712 H 0.20348 0.89274 0.43593 0.0
H1713 H 0.3036 0.90943 0.4313 0.0
H1714 H 0.29468 0.95429 0.39654 0.0
H1715 H 0.25879 0.98795 0.36736 0.0
H1716 H 0.15915 0.96816 0.36637 0.0
H1717 H 0.1674 0.92452 0.40343 0.0
C1718 C 0.22344 0.90531 0.42641 0.0
C1719 C 0.25433 0.89713 0.43544 0.0
C1720 C 0.2181 0.9307 0.40603 0.0
C1721 C 0.27973 0.91509 0.42433 0.0
C1722 C 0.27461 0.94073 0.40462 0.0
C1723 C 0.23874 0.97448 0.37576 0.0
C1724 C 0.20824 0.98175 0.36513 0.0
C1725 C 0.24392 0.9488 0.39553 0.0
C1726 C 0.18267 0.96334 0.37498 0.0
C1727 C 0.18748 0.93833 0.39586 0.0
H1728 H 0.03685 0.74098 0.93061 0.0
H1729 H 0.11078 0.772 0.86876 0.0
H1730 H 0.1506 0.75109 0.90492 0.0
H1731 H 0.16414 0.72571 0.95489 0.0
H1732 H 0.09063 0.69814 0.01896 0.0
H1733 H 0.05057 0.71553 0.9811 0.0
C1734 C 0.06173 0.74326 0.9253 0.0
C1735 C 0.07105 0.75774 0.89707 0.0
C1736 C 0.08433 0.73131 0.9463 0.0
C1737 C 0.10323 0.76053 0.89016 0.0
C1738 C 0.12588 0.74859 0.9108 0.0
C1739 C 0.13932 0.72245 0.96005 0.0
C1740 C 0.1302 0.70952 0.98908 0.0
C1741 C 0.11669 0.7338 0.93884 0.0
C1742 C 0.09805 0.70718 0.99635 0.0
C1743 C 0.07526 0.71746 0.97488 0.0
H1744 H 0.40297 0.25733 0.38335 0.0
H1745 H 0.48655 0.26346 0.44041 0.0
H1746 H 0.45533 0.28323 0.48478 0.0
H1747 H 0.40349 0.29962 0.5071 0.0
H1748 H 0.32178 0.2956 0.44711 0.0
H1749 H 0.35303 0.27639 0.40382 0.0
C1750 C 0.41458 0.26405 0.40502 0.0
C1751 C 0.44713 0.25983 0.40816 0.0
C1752 C 0.39679 0.27661 0.42986 0.0
C1753 C 0.46142 0.26658 0.43736 0.0
C1754 C 0.44364 0.27817 0.46265 0.0
C1755 C 0.39285 0.29536 0.48427 0.0
C1756 C 0.36043 0.30081 0.48002 0.0
C1757 C 0.41124 0.28363 0.45911 0.0
C1758 C 0.34681 0.29389 0.4506 0.0
C1759 C 0.36463 0.28199 0.42589 0.0
H1760 H 0.64077 0.83272 0.04532 0.0
H1761 H 0.60818 0.76735 0.97426 0.0
H1762 H 0.57063 0.74523 0.01098 0.0
H1763 H 0.55052 0.74053 0.06458 0.0
H1764 H 0.57775 0.80996 0.13394 0.0
H1765 H 0.6149 0.83283 0.09739 0.0
C1766 C 0.62539 0.81382 0.03781 0.0
C1767 C 0.62821 0.80129 0.00726 0.0
C1768 C 0.60364 0.80087 0.05921 0.0
C1769 C 0.60697 0.77752 0.99765 0.0
C1770 C 0.5856 0.76446 0.01878 0.0
C1771 C 0.56463 0.76058 0.07186 0.0
C1772 C 0.56257 0.77177 0.10301 0.0
C1773 C 0.58448 0.77522 0.04991 0.0
C1774 C 0.58029 0.79873 0.11133 0.0
C1775 C 0.6011 0.81261 0.08995 0.0
H1776 H 0.8376 0.22947 0.54939 0.0
H1777 H 0.90216 0.19439 0.4796 0.0
H1778 H 0.94683 0.20713 0.51449 0.0
H1779 H 0.96699 0.22895 0.56521 0.0
H1780 H 0.90138 0.26733 0.63234 0.0
H1781 H 0.85719 0.25257 0.59823 0.0
C1782 C 0.86136 0.22366 0.54224 0.0
C1783 C 0.86664 0.20972 0.51267 0.0
C1784 C 0.88655 0.23204 0.56184 0.0
C1785 C 0.89764 0.20426 0.5027 0.0
C1786 C 0.92306 0.21178 0.52253 0.0
C1787 C 0.94296 0.23412 0.57211 0.0
C1788 C 0.93717 0.24849 0.60147 0.0
C1789 C 0.91777 0.22585 0.55212 0.0
C1790 C 0.90613 0.25547 0.61025 0.0
C1791 C 0.88099 0.24715 0.59073 0.0
H1792 H 0.92598 0.04183 0.7372 0.0
H1793 H 0.86437 0.11638 0.76773 0.0
H1794 H 0.90115 0.15581 0.74712 0.0
H1795 H 0.95097 0.16882 0.72116 0.0
H1796 H 0.01548 0.09504 0.69501 0.0
H1797 H 0.97733 0.05519 0.71268 0.0
C1798 C 0.92088 0.06675 0.73948 0.0
C1799 C 0.89238 0.07635 0.75347 0.0
C1800 C 0.94233 0.08917 0.72783 0.0
C1801 C 0.88587 0.1086 0.75645 0.0
C1802 C 0.90687 0.13104 0.74468 0.0
C1803 C 0.95626 0.14398 0.71842 0.0
C1804 C 0.98539 0.13471 0.70562 0.0
C1805 C 0.93498 0.12156 0.73005 0.0
C1806 C 0.99278 0.10256 0.7039 0.0
C1807 C 0.97114 0.0799 0.71434 0.0
H1808 H 0.56956 0.96027 0.24329 0.0
H1809 H 0.63753 0.88991 0.26942 0.0
H1810 H 0.60264 0.84821 0.24957 0.0
H1811 H 0.55245 0.83202 0.22609 0.0
H1812 H 0.48253 0.90159 0.20283 0.0
H1813 H 0.5185 0.94373 0.22005 0.0
C1814 C 0.57645 0.93573 0.24477 0.0
C1815 C 0.60604 0.92795 0.25748 0.0
C1816 C 0.55619 0.91204 0.2334 0.0
C1817 C 0.61502 0.89625 0.25929 0.0
C1818 C 0.59511 0.87254 0.24796 0.0
C1819 C 0.54554 0.85648 0.22371 0.0
C1820 C 0.51547 0.86392 0.21198 0.0
C1821 C 0.56578 0.88021 0.23475 0.0
C1822 C 0.50594 0.89552 0.21094 0.0
C1823 C 0.52637 0.91948 0.22107 0.0
H1824 H 0.49266 0.37975 0.25414 0.0
H1825 H 0.46656 0.37075 0.3517 0.0
H1826 H 0.42254 0.40749 0.34345 0.0
H1827 H 0.39156 0.44143 0.30781 0.0
H1828 H 0.41463 0.44403 0.20901 0.0
H1829 H 0.4604 0.41066 0.21852 0.0
C1830 C 0.47778 0.38632 0.27386 0.0
C1831 C 0.48338 0.37335 0.30377 0.0
C1832 C 0.45182 0.40588 0.26851 0.0
C1833 C 0.46309 0.38104 0.32868 0.0
C1834 C 0.43783 0.40177 0.32384 0.0
C1835 C 0.40578 0.43385 0.28813 0.0
C1836 C 0.39897 0.44458 0.25745 0.0
C1837 C 0.43172 0.41399 0.29369 0.0
C1838 C 0.4191 0.43586 0.2327 0.0
C1839 C 0.4453 0.41687 0.23815 0.0
H1840 H 0.10727 0.56882 0.81297 0.0
H1841 H 0.08317 0.56216 0.71451 0.0
H1842 H 0.0403 0.59957 0.72244 0.0
H1843 H 0.01054 0.63467 0.75669 0.0
H1844 H 0.03817 0.64734 0.85352 0.0
H1845 H 0.0796 0.60733 0.84684 0.0
C1846 C 0.0936 0.57634 0.79294 0.0
C1847 C 0.09919 0.5632 0.76286 0.0
C1848 C 0.06941 0.59856 0.79754 0.0
C1849 C 0.07961 0.57206 0.73776 0.0
C1850 C 0.05507 0.59339 0.74229 0.0
C1851 C 0.02527 0.62829 0.77655 0.0
C1852 C 0.02078 0.64315 0.80585 0.0
C1853 C 0.04974 0.60667 0.77205 0.0
C1854 C 0.04082 0.63565 0.83098 0.0
C1855 C 0.06457 0.613 0.82704 0.0
H1856 H 0.69411 0.8947 0.06991 0.0
H1857 H 0.79237 0.92073 0.07218 0.0
H1858 H 0.78027 0.9644 0.10775 0.0
H1859 H 0.74207 0.99519 0.13776 0.0
H1860 H 0.64489 0.96603 0.14139 0.0
H1861 H 0.6562 0.92302 0.10399 0.0
C1862 C 0.71313 0.90899 0.07902 0.0
C1863 C 0.74439 0.90377 0.06883 0.0
C1864 C 0.70601 0.93385 0.09995 0.0
C1865 C 0.76826 0.92401 0.0798 0.0
C1866 C 0.76132 0.94905 0.10002 0.0
C1867 C 0.7232 0.97974 0.12993 0.0
C1868 C 0.69243 0.98438 0.14133 0.0
C1869 C 0.73027 0.95436 0.10994 0.0
C1870 C 0.66853 0.96338 0.13218 0.0
C1871 C 0.67512 0.9387 0.11107 0.0
H1872 H 0.17363 0.5407 0.86863 0.0
H1873 H 0.24556 0.47548 0.89834 0.0
H1874 H 0.26381 0.51293 0.93772 0.0
H1875 H 0.26289 0.56616 0.96051 0.0
H1876 H 0.18779 0.62936 0.93478 0.0
H1877 H 0.16849 0.59164 0.89633 0.0
C1878 C 0.19301 0.5345 0.8839 0.0
C1879 C 0.20846 0.50545 0.87981 0.0
C1880 C 0.20379 0.55639 0.90653 0.0
C1881 C 0.23313 0.49764 0.9006 0.0
C1882 C 0.24393 0.51925 0.92302 0.0
C1883 C 0.24237 0.57178 0.94641 0.0
C1884 C 0.22834 0.60171 0.94933 0.0
C1885 C 0.2301 0.54908 0.9255 0.0
C1886 C 0.20093 0.60788 0.93162 0.0
C1887 C 0.1892 0.58579 0.91005 0.0
H1888 H 0.2682 0.43817 0.47005 0.0
H1889 H 0.22341 0.37648 0.40289 0.0
H1890 H 0.24073 0.41034 0.35963 0.0
H1891 H 0.26895 0.457 0.3412 0.0
H1892 H 0.30834 0.52273 0.40797 0.0
H1893 H 0.29358 0.48754 0.45147 0.0
C1894 C 0.26202 0.43252 0.44591 0.0
C1895 C 0.24514 0.40471 0.43934 0.0
C1896 C 0.27175 0.45236 0.42134 0.0
C1897 C 0.23695 0.39749 0.40818 0.0
C1898 C 0.24689 0.41676 0.38358 0.0
C1899 C 0.27487 0.46325 0.36528 0.0
C1900 C 0.29069 0.49169 0.37155 0.0
C1901 C 0.26469 0.44394 0.38989 0.0
C1902 C 0.29702 0.50041 0.40276 0.0
C1903 C 0.28824 0.48051 0.42751 0.0
H1904 H 0.77043 0.08431 0.5435 0.0
H1905 H 0.74419 0.14846 0.61765 0.0
H1906 H 0.7656 0.11226 0.65705 0.0
H1907 H 0.78895 0.06173 0.66996 0.0
H1908 H 0.81269 0.99527 0.59701 0.0
H1909 H 0.79531 0.03314 0.55698 0.0
C1910 C 0.7694 0.09009 0.56835 0.0
C1911 C 0.75596 0.11885 0.57796 0.0
C1912 C 0.78166 0.06909 0.59069 0.0
C1913 C 0.7547 0.1265 0.61001 0.0
C1914 C 0.76694 0.10588 0.63237 0.0
C1915 C 0.79173 0.05598 0.64535 0.0
C1916 C 0.80338 0.02627 0.63643 0.0
C1917 C 0.7805 0.0772 0.62292 0.0
C1918 C 0.80466 0.01838 0.60435 0.0
C1919 C 0.79437 0.03986 0.58159 0.0
loop_
_geom_bond_atom_site_label_1
_geom_bond_atom_site_label_2
_geom_bond_distance
_geom_bond_site_symmetry_2
_ccdc_geom_bond_type
Zn0 O1 2.055 1_455 S
Zn0 O8 2.046 . S
Zn0 N16 2.036 1_455 S
Zn0 O28 2.053 . S
Zn0 O30 2.078 . S
O1 Zn0 2.055 1_655 S
O1 C4 1.259 1_655 S
C2 O30 1.265 . S
C2 O31 1.244 . S
Zn3 O5 2.046 . S
Zn3 O7 2.055 . S
Zn3 N9 2.036 . S
Zn3 O27 2.066 . S
Zn3 O31 2.053 . S
C4 O1 1.259 1_455 S
C4 O5 1.254 . S
O5 Zn3 2.046 . S
O5 C4 1.254 . S
C6 O27 1.256 . S
C6 O28 1.244 . S
O7 Zn3 2.055 . S
O7 C29 1.259 . S
O8 Zn0 2.046 . S
O8 C29 1.254 . S
N9 Zn3 2.036 . S
N9 C10 1.298 . S
N9 N12 1.398 . S
C10 N9 1.298 . S
C10 N13 1.367 . S
C10 C23 1.481 . S
C11 N12 1.299 . S
C11 N13 1.379 . S
N12 N9 1.398 . S
N12 C11 1.299 . S
N13 C10 1.367 . S
N13 C11 1.379 . S
C14 N16 1.298 . S
C14 N18 1.367 . S
C14 C22 1.481 . S
C15 N17 1.299 1_655 S
C15 N18 1.379 . S
N16 Zn0 2.036 1_655 S
N16 C14 1.298 . S
N16 N17 1.398 1_655 S
N17 C15 1.299 1_455 S
N17 N16 1.398 1_455 S
N18 C14 1.367 . S
N18 C15 1.379 . S
H19 C22 0.980 . S
H20 C22 0.981 . S
H21 C22 0.981 . S
C22 C14 1.481 . S
C22 H19 0.980 . S
C22 H20 0.981 . S
C22 H21 0.981 . S
C23 C10 1.481 . S
C23 H24 0.980 . S
C23 H25 0.981 . S
C23 H26 0.981 . S
H24 C23 0.980 . S
H25 C23 0.981 . S
H26 C23 0.981 . S
O27 Zn3 2.066 . S
O27 C6 1.256 . S
O28 Zn0 2.053 . S
O28 C6 1.244 . S
C29 O7 1.259 . S
C29 O8 1.254 . S
O30 Zn0 2.078 . S
O30 C2 1.265 . S
O31 C2 1.244 . S
O31 Zn3 2.053 . S
Zn32 O33 2.055 . S
Zn32 O40 2.046 . S
Zn32 N48 2.036 . S
Zn32 O60 2.053 . S
Zn32 O62 2.066 . S
O33 Zn32 2.055 . S
O33 C36 1.259 . S
C34 O62 1.256 . S
C34 O63 1.244 . S
Zn35 O37 2.046 . S
Zn35 O39 2.055 . S
Zn35 N41 2.036 . S
Zn35 O59 2.066 . S
Zn35 O63 2.053 . S
C36 O33 1.259 . S
C36 O37 1.254 . S
O37 Zn35 2.046 . S
O37 C36 1.254 . S
C38 O59 1.256 . S
C38 O60 1.244 . S
O39 Zn35 2.055 . S
O39 C61 1.259 . S
O40 Zn32 2.046 . S
O40 C61 1.254 . S
N41 Zn35 2.036 . S
N41 C42 1.298 . S
N41 N44 1.398 . S
C42 N41 1.298 . S
C42 N45 1.367 . S
C42 C55 1.481 . S
C43 N44 1.299 . S
C43 N45 1.379 . S
N44 N41 1.398 . S
N44 C43 1.299 . S
N45 C42 1.367 . S
N45 C43 1.379 . S
C46 N48 1.298 . S
C46 N50 1.367 . S
C46 C54 1.481 . S
C47 N49 1.299 . S
C47 N50 1.379 . S
N48 Zn32 2.036 . S
N48 C46 1.298 . S
N48 N49 1.398 . S
N49 C47 1.299 . S
N49 N48 1.398 . S
N50 C46 1.367 . S
N50 C47 1.379 . S
H51 C54 0.980 . S
H52 C54 0.981 . S
H53 C54 0.981 . S
C54 C46 1.481 . S
C54 H51 0.980 . S
C54 H52 0.981 . S
C54 H53 0.981 . S
C55 C42 1.481 . S
C55 H56 0.980 . S
C55 H57 0.981 . S
C55 H58 0.981 . S
H56 C55 0.980 . S
H57 C55 0.981 . S
H58 C55 0.981 . S
O59 Zn35 2.066 . S
O59 C38 1.256 . S
O60 Zn32 2.053 . S
O60 C38 1.244 . S
C61 O39 1.259 . S
C61 O40 1.254 . S
O62 Zn32 2.066 . S
O62 C34 1.256 . S
O63 C34 1.244 . S
O63 Zn35 2.053 . S
Zn64 O65 2.055 . S
Zn64 O72 2.046 . S
Zn64 N80 2.036 . S
Zn64 O92 2.053 . S
Zn64 O94 2.066 . S
O65 Zn64 2.055 . S
O65 C68 1.259 . S
C66 O94 1.256 . S
C66 O95 1.244 . S
Zn67 O69 2.046 . S
Zn67 O71 2.055 . S
Zn67 N73 2.036 . S
Zn67 O91 2.066 . S
Zn67 O95 2.053 . S
C68 O65 1.259 . S
C68 O69 1.254 . S
O69 Zn67 2.046 . S
O69 C68 1.254 . S
C70 O91 1.256 . S
C70 O92 1.244 . S
O71 Zn67 2.055 . S
O71 C93 1.259 . S
O72 Zn64 2.046 . S
O72 C93 1.254 . S
N73 Zn67 2.036 . S
N73 C74 1.298 . S
N73 N76 1.398 . S
C74 N73 1.298 . S
C74 N77 1.367 . S
C74 C87 1.481 . S
C75 N76 1.299 . S
C75 N77 1.379 . S
N76 N73 1.398 . S
N76 C75 1.299 . S
N77 C74 1.367 . S
N77 C75 1.379 . S
C78 N80 1.298 . S
C78 N82 1.367 . S
C78 C86 1.481 . S
C79 N81 1.299 . S
C79 N82 1.379 . S
N80 Zn64 2.036 . S
N80 C78 1.298 . S
N80 N81 1.398 . S
N81 C79 1.299 . S
N81 N80 1.398 . S
N82 C78 1.367 . S
N82 C79 1.379 . S
H83 C86 0.980 . S
H84 C86 0.981 . S
H85 C86 0.981 . S
C86 C78 1.481 . S
C86 H83 0.980 . S
C86 H84 0.981 . S
C86 H85 0.981 . S
C87 C74 1.481 . S
C87 H88 0.980 . S
C87 H89 0.981 . S
C87 H90 0.981 . S
H88 C87 0.980 . S
H89 C87 0.981 . S
H90 C87 0.981 . S
O91 Zn67 2.066 . S
O91 C70 1.256 . S
O92 Zn64 2.053 . S
O92 C70 1.244 . S
C93 O71 1.259 . S
C93 O72 1.254 . S
O94 Zn64 2.066 . S
O94 C66 1.256 . S
O95 C66 1.244 . S
O95 Zn67 2.053 . S
Zn96 O97 2.055 . S
Zn96 O104 2.046 . S
Zn96 N112 2.036 . S
Zn96 O124 2.053 . S
Zn96 O126 2.066 . S
O97 Zn96 2.055 . S
O97 C100 1.259 . S
C98 O126 1.256 . S
C98 O127 1.244 . S
Zn99 O101 2.046 . S
Zn99 O103 2.055 1_655 S
Zn99 N105 2.036 1_655 S
Zn99 O123 2.078 . S
Zn99 O127 2.053 . S
C100 O97 1.259 . S
C100 O101 1.254 . S
O101 Zn99 2.046 . S
O101 C100 1.254 . S
C102 O123 1.265 . S
C102 O124 1.244 . S
O103 Zn99 2.055 1_455 S
O103 C125 1.259 1_455 S
O104 Zn96 2.046 . S
O104 C125 1.254 . S
N105 Zn99 2.036 1_455 S
N105 C106 1.298 . S
N105 N108 1.398 1_455 S
C106 N105 1.298 . S
C106 N109 1.367 . S
C106 C119 1.481 . S
C107 N108 1.299 1_455 S
C107 N109 1.379 . S
N108 N105 1.398 1_655 S
N108 C107 1.299 1_655 S
N109 C106 1.367 . S
N109 C107 1.379 . S
C110 N112 1.298 . S
C110 N114 1.367 . S
C110 C118 1.481 . S
C111 N113 1.299 . S
C111 N114 1.379 . S
N112 Zn96 2.036 . S
N112 C110 1.298 . S
N112 N113 1.398 . S
N113 C111 1.299 . S
N113 N112 1.398 . S
N114 C110 1.367 . S
N114 C111 1.379 . S
H115 C118 0.980 . S
H116 C118 0.981 . S
H117 C118 0.981 . S
C118 C110 1.481 . S
C118 H115 0.980 . S
C118 H116 0.981 . S
C118 H117 0.981 . S
C119 C106 1.481 . S
C119 H120 0.980 . S
C119 H121 0.981 . S
C119 H122 0.981 . S
H120 C119 0.980 . S
H121 C119 0.981 . S
H122 C119 0.981 . S
O123 Zn99 2.078 . S
O123 C102 1.265 . S
O124 Zn96 2.053 . S
O124 C102 1.244 . S
C125 O103 1.259 1_655 S
C125 O104 1.254 . S
O126 Zn96 2.066 . S
O126 C98 1.256 . S
O127 C98 1.244 . S
O127 Zn99 2.053 . S
Zn128 O129 2.055 . S
Zn128 O136 2.046 . S
Zn128 N144 2.036 . S
Zn128 O156 2.053 . S
Zn128 O158 2.066 . S
O129 Zn128 2.055 . S
O129 C132 1.259 . S
C130 O158 1.256 . S
C130 O159 1.244 . S
Zn131 O133 2.046 . S
Zn131 O135 2.055 1_545 S
Zn131 N137 2.036 1_545 S
Zn131 O155 2.078 . S
Zn131 O159 2.053 . S
C132 O129 1.259 . S
C132 O133 1.254 . S
O133 Zn131 2.046 . S
O133 C132 1.254 . S
C134 O155 1.265 . S
C134 O156 1.244 . S
O135 Zn131 2.055 1_565 S
O135 C157 1.259 1_565 S
O136 Zn128 2.046 . S
O136 C157 1.254 . S
N137 Zn131 2.036 1_565 S
N137 C138 1.298 . S
N137 N140 1.398 1_565 S
C138 N137 1.298 . S
C138 N141 1.367 . S
C138 C151 1.481 . S
C139 N140 1.299 1_565 S
C139 N141 1.379 . S
N140 N137 1.398 1_545 S
N140 C139 1.299 1_545 S
N141 C138 1.367 . S
N141 C139 1.379 . S
C142 N144 1.298 . S
C142 N146 1.367 . S
C142 C150 1.481 . S
C143 N145 1.299 . S
C143 N146 1.379 . S
N144 Zn128 2.036 . S
N144 C142 1.298 . S
N144 N145 1.398 . S
N145 C143 1.299 . S
N145 N144 1.398 . S
N146 C142 1.367 . S
N146 C143 1.379 . S
H147 C150 0.980 . S
H148 C150 0.981 . S
H149 C150 0.981 . S
C150 C142 1.481 . S
C150 H147 0.980 . S
C150 H148 0.981 . S
C150 H149 0.981 . S
C151 C138 1.481 . S
C151 H152 0.980 . S
C151 H153 0.981 . S
C151 H154 0.981 . S
H152 C151 0.980 . S
H153 C151 0.981 . S
H154 C151 0.981 . S
O155 Zn131 2.078 . S
O155 C134 1.265 . S
O156 Zn128 2.053 . S
O156 C134 1.244 . S
C157 O135 1.259 1_545 S
C157 O136 1.254 . S
O158 Zn128 2.066 . S
O158 C130 1.256 . S
O159 C130 1.244 . S
O159 Zn131 2.053 . S
Zn160 O161 2.055 1_565 S
Zn160 O168 2.046 . S
Zn160 N176 2.036 1_565 S
Zn160 O188 2.053 . S
Zn160 O190 2.078 . S
O161 Zn160 2.055 1_545 S
O161 C164 1.259 1_545 S
C162 O190 1.265 . S
C162 O191 1.244 . S
Zn163 O165 2.046 . S
Zn163 O167 2.055 . S
Zn163 N169 2.036 . S
Zn163 O187 2.066 . S
Zn163 O191 2.053 . S
C164 O161 1.259 1_565 S
C164 O165 1.254 . S
O165 Zn163 2.046 . S
O165 C164 1.254 . S
C166 O187 1.256 . S
C166 O188 1.244 . S
O167 Zn163 2.055 . S
O167 C189 1.259 . S
O168 Zn160 2.046 . S
O168 C189 1.254 . S
N169 Zn163 2.036 . S
N169 C170 1.298 . S
N169 N172 1.398 . S
C170 N169 1.298 . S
C170 N173 1.367 . S
C170 C183 1.481 . S
C171 N172 1.299 . S
C171 N173 1.379 . S
N172 N169 1.398 . S
N172 C171 1.299 . S
N173 C170 1.367 . S
N173 C171 1.379 . S
C174 N176 1.298 . S
C174 N178 1.367 . S
C174 C182 1.481 . S
C175 N177 1.299 1_545 S
C175 N178 1.379 . S
N176 Zn160 2.036 1_545 S
N176 C174 1.298 . S
N176 N177 1.398 1_545 S
N177 C175 1.299 1_565 S
N177 N176 1.398 1_565 S
N178 C174 1.367 . S
N178 C175 1.379 . S
H179 C182 0.980 . S
H180 C182 0.981 . S
H181 C182 0.981 . S
C182 C174 1.481 . S
C182 H179 0.980 . S
C182 H180 0.981 . S
C182 H181 0.981 . S
C183 C170 1.481 . S
C183 H184 0.980 . S
C183 H185 0.981 . S
C183 H186 0.981 . S
H184 C183 0.980 . S
H185 C183 0.981 . S
H186 C183 0.981 . S
O187 Zn163 2.066 . S
O187 C166 1.256 . S
O188 Zn160 2.053 . S
O188 C166 1.244 . S
C189 O167 1.259 . S
C189 O168 1.254 . S
O190 Zn160 2.078 . S
O190 C162 1.265 . S
O191 C162 1.244 . S
O191 Zn163 2.053 . S
Zn192 O193 2.055 . S
Zn192 O200 2.046 . S
Zn192 N208 2.036 . S
Zn192 O220 2.053 . S
Zn192 O222 2.066 . S
O193 Zn192 2.055 . S
O193 C196 1.259 . S
C194 O222 1.256 . S
C194 O223 1.244 . S
Zn195 O197 2.046 . S
Zn195 O199 2.055 . S
Zn195 N201 2.036 . S
Zn195 O219 2.066 . S
Zn195 O223 2.053 . S
C196 O193 1.259 . S
C196 O197 1.254 . S
O197 Zn195 2.046 . S
O197 C196 1.254 . S
C198 O219 1.256 . S
C198 O220 1.244 . S
O199 Zn195 2.055 . S
O199 C221 1.259 . S
O200 Zn192 2.046 . S
O200 C221 1.254 . S
N201 Zn195 2.036 . S
N201 C202 1.298 . S
N201 N204 1.398 . S
C202 N201 1.298 . S
C202 N205 1.367 . S
C202 C215 1.481 . S
C203 N204 1.299 . S
C203 N205 1.379 . S
N204 N201 1.398 . S
N204 C203 1.299 . S
N205 C202 1.367 . S
N205 C203 1.379 . S
C206 N208 1.298 . S
C206 N210 1.367 . S
C206 C214 1.481 . S
C207 N209 1.299 . S
C207 N210 1.379 . S
N208 Zn192 2.036 . S
N208 C206 1.298 . S
N208 N209 1.398 . S
N209 C207 1.299 . S
N209 N208 1.398 . S
N210 C206 1.367 . S
N210 C207 1.379 . S
H211 C214 0.980 . S
H212 C214 0.981 . S
H213 C214 0.981 . S
C214 C206 1.481 . S
C214 H211 0.980 . S
C214 H212 0.981 . S
C214 H213 0.981 . S
C215 C202 1.481 . S
C215 H216 0.980 . S
C215 H217 0.981 . S
C215 H218 0.981 . S
H216 C215 0.980 . S
H217 C215 0.981 . S
H218 C215 0.981 . S
O219 Zn195 2.066 . S
O219 C198 1.256 . S
O220 Zn192 2.053 . S
O220 C198 1.244 . S
C221 O199 1.259 . S
C221 O200 1.254 . S
O222 Zn192 2.066 . S
O222 C194 1.256 . S
O223 C194 1.244 . S
O223 Zn195 2.053 . S
Zn224 O225 2.055 . S
Zn224 O232 2.046 . S
Zn224 N240 2.036 . S
Zn224 O252 2.053 . S
Zn224 O254 2.066 . S
O225 Zn224 2.055 . S
O225 C228 1.259 . S
C226 O254 1.256 . S
C226 O255 1.244 . S
Zn227 O229 2.046 . S
Zn227 O231 2.055 . S
Zn227 N233 2.036 . S
Zn227 O251 2.066 . S
Zn227 O255 2.053 . S
C228 O225 1.259 . S
C228 O229 1.254 . S
O229 Zn227 2.046 . S
O229 C228 1.254 . S
C230 O251 1.256 . S
C230 O252 1.244 . S
O231 Zn227 2.055 . S
O231 C253 1.259 . S
O232 Zn224 2.046 . S
O232 C253 1.254 . S
N233 Zn227 2.036 . S
N233 C234 1.298 . S
N233 N236 1.398 . S
C234 N233 1.298 . S
C234 N237 1.367 . S
C234 C247 1.481 . S
C235 N236 1.299 . S
C235 N237 1.379 . S
N236 N233 1.398 . S
N236 C235 1.299 . S
N237 C234 1.367 . S
N237 C235 1.379 . S
C238 N240 1.298 . S
C238 N242 1.367 . S
C238 C246 1.481 . S
C239 N241 1.299 . S
C239 N242 1.379 . S
N240 Zn224 2.036 . S
N240 C238 1.298 . S
N240 N241 1.398 . S
N241 C239 1.299 . S
N241 N240 1.398 . S
N242 C238 1.367 . S
N242 C239 1.379 . S
H243 C246 0.980 . S
H244 C246 0.981 . S
H245 C246 0.981 . S
C246 C238 1.481 . S
C246 H243 0.980 . S
C246 H244 0.981 . S
C246 H245 0.981 . S
C247 C234 1.481 . S
C247 H248 0.980 . S
C247 H249 0.981 . S
C247 H250 0.981 . S
H248 C247 0.980 . S
H249 C247 0.981 . S
H250 C247 0.981 . S
O251 Zn227 2.066 . S
O251 C230 1.256 . S
O252 Zn224 2.053 . S
O252 C230 1.244 . S
C253 O231 1.259 . S
C253 O232 1.254 . S
O254 Zn224 2.066 . S
O254 C226 1.256 . S
O255 C226 1.244 . S
O255 Zn227 2.053 . S
Zn256 O257 2.055 1_554 S
Zn256 O264 2.046 . S
Zn256 N272 2.036 1_554 S
Zn256 O284 2.053 . S
Zn256 O286 2.078 . S
O257 Zn256 2.055 1_556 S
O257 C260 1.259 1_556 S
C258 O286 1.265 . S
C258 O287 1.244 . S
Zn259 O261 2.046 . S
Zn259 O263 2.055 . S
Zn259 N265 2.036 . S
Zn259 O283 2.066 . S
Zn259 O287 2.053 . S
C260 O257 1.259 1_554 S
C260 O261 1.254 . S
O261 Zn259 2.046 . S
O261 C260 1.254 . S
C262 O283 1.256 . S
C262 O284 1.244 . S
O263 Zn259 2.055 . S
O263 C285 1.259 . S
O264 Zn256 2.046 . S
O264 C285 1.254 . S
N265 Zn259 2.036 . S
N265 C266 1.298 . S
N265 N268 1.398 . S
C266 N265 1.298 . S
C266 N269 1.367 . S
C266 C279 1.481 . S
C267 N268 1.299 . S
C267 N269 1.379 . S
N268 N265 1.398 . S
N268 C267 1.299 . S
N269 C266 1.367 . S
N269 C267 1.379 . S
C270 N272 1.298 . S
C270 N274 1.367 . S
C270 C278 1.481 . S
C271 N273 1.299 1_556 S
C271 N274 1.379 . S
N272 Zn256 2.036 1_556 S
N272 C270 1.298 . S
N272 N273 1.398 1_556 S
N273 C271 1.299 1_554 S
N273 N272 1.398 1_554 S
N274 C270 1.367 . S
N274 C271 1.379 . S
H275 C278 0.980 . S
H276 C278 0.981 . S
H277 C278 0.981 . S
C278 C270 1.481 . S
C278 H275 0.980 . S
C278 H276 0.981 . S
C278 H277 0.981 . S
C279 C266 1.481 . S
C279 H280 0.980 . S
C279 H281 0.981 . S
C279 H282 0.981 . S
H280 C279 0.980 . S
H281 C279 0.981 . S
H282 C279 0.981 . S
O283 Zn259 2.066 . S
O283 C262 1.256 . S
O284 Zn256 2.053 . S
O284 C262 1.244 . S
C285 O263 1.259 . S
C285 O264 1.254 . S
O286 Zn256 2.078 . S
O286 C258 1.265 . S
O287 C258 1.244 . S
O287 Zn259 2.053 . S
Zn288 O289 2.055 1_556 S
Zn288 O296 2.046 . S
Zn288 N304 2.036 1_556 S
Zn288 O316 2.053 . S
Zn288 O318 2.078 . S
O289 Zn288 2.055 1_554 S
O289 C292 1.259 1_554 S
C290 O318 1.265 . S
C290 O319 1.244 . S
Zn291 O293 2.046 . S
Zn291 O295 2.055 . S
Zn291 N297 2.036 . S
Zn291 O315 2.066 . S
Zn291 O319 2.053 . S
C292 O289 1.259 1_556 S
C292 O293 1.254 . S
O293 Zn291 2.046 . S
O293 C292 1.254 . S
C294 O315 1.256 . S
C294 O316 1.244 . S
O295 Zn291 2.055 . S
O295 C317 1.259 . S
O296 Zn288 2.046 . S
O296 C317 1.254 . S
N297 Zn291 2.036 . S
N297 C298 1.298 . S
N297 N300 1.398 . S
C298 N297 1.298 . S
C298 N301 1.367 . S
C298 C311 1.481 . S
C299 N300 1.299 . S
C299 N301 1.379 . S
N300 N297 1.398 . S
N300 C299 1.299 . S
N301 C298 1.367 . S
N301 C299 1.379 . S
C302 N304 1.298 . S
C302 N306 1.367 . S
C302 C310 1.481 . S
C303 N305 1.299 1_554 S
C303 N306 1.379 . S
N304 Zn288 2.036 1_554 S
N304 C302 1.298 . S
N304 N305 1.398 1_554 S
N305 C303 1.299 1_556 S
N305 N304 1.398 1_556 S
N306 C302 1.367 . S
N306 C303 1.379 . S
H307 C310 0.980 . S
H308 C310 0.981 . S
H309 C310 0.981 . S
C310 C302 1.481 . S
C310 H307 0.980 . S
C310 H308 0.981 . S
C310 H309 0.981 . S
C311 C298 1.481 . S
C311 H312 0.980 . S
C311 H313 0.981 . S
C311 H314 0.981 . S
H312 C311 0.980 . S
H313 C311 0.981 . S
H314 C311 0.981 . S
O315 Zn291 2.066 . S
O315 C294 1.256 . S
O316 Zn288 2.053 . S
O316 C294 1.244 . S
C317 O295 1.259 . S
C317 O296 1.254 . S
O318 Zn288 2.078 . S
O318 C290 1.265 . S
O319 C290 1.244 . S
O319 Zn291 2.053 . S
Zn320 O321 2.055 . S
Zn320 O328 2.046 . S
Zn320 N336 2.036 . S
Zn320 O348 2.053 . S
Zn320 O350 2.066 . S
O321 Zn320 2.055 . S
O321 C324 1.259 . S
C322 O350 1.256 . S
C322 O351 1.244 . S
Zn323 O325 2.046 . S
Zn323 O327 2.055 . S
Zn323 N329 2.036 . S
Zn323 O347 2.066 . S
Zn323 O351 2.053 . S
C324 O321 1.259 . S
C324 O325 1.254 . S
O325 Zn323 2.046 . S
O325 C324 1.254 . S
C326 O347 1.256 . S
C326 O348 1.244 . S
O327 Zn323 2.055 . S
O327 C349 1.259 . S
O328 Zn320 2.046 . S
O328 C349 1.254 . S
N329 Zn323 2.036 . S
N329 C330 1.298 . S
N329 N332 1.398 . S
C330 N329 1.298 . S
C330 N333 1.367 . S
C330 C343 1.481 . S
C331 N332 1.299 . S
C331 N333 1.379 . S
N332 N329 1.398 . S
N332 C331 1.299 . S
N333 C330 1.367 . S
N333 C331 1.379 . S
C334 N336 1.298 . S
C334 N338 1.367 . S
C334 C342 1.481 . S
C335 N337 1.299 . S
C335 N338 1.379 . S
N336 Zn320 2.036 . S
N336 C334 1.298 . S
N336 N337 1.398 . S
N337 C335 1.299 . S
N337 N336 1.398 . S
N338 C334 1.367 . S
N338 C335 1.379 . S
H339 C342 0.980 . S
H340 C342 0.981 . S
H341 C342 0.981 . S
C342 C334 1.481 . S
C342 H339 0.980 . S
C342 H340 0.981 . S
C342 H341 0.981 . S
C343 C330 1.481 . S
C343 H344 0.980 . S
C343 H345 0.981 . S
C343 H346 0.981 . S
H344 C343 0.980 . S
H345 C343 0.981 . S
H346 C343 0.981 . S
O347 Zn323 2.066 . S
O347 C326 1.256 . S
O348 Zn320 2.053 . S
O348 C326 1.244 . S
C349 O327 1.259 . S
C349 O328 1.254 . S
O350 Zn320 2.066 . S
O350 C322 1.256 . S
O351 C322 1.244 . S
O351 Zn323 2.053 . S
Zn352 O353 2.055 . S
Zn352 O360 2.046 . S
Zn352 N368 2.036 . S
Zn352 O380 2.053 . S
Zn352 O382 2.066 . S
O353 Zn352 2.055 . S
O353 C356 1.259 . S
C354 O382 1.256 . S
C354 O383 1.244 . S
Zn355 O357 2.046 . S
Zn355 O359 2.055 . S
Zn355 N361 2.036 . S
Zn355 O379 2.066 . S
Zn355 O383 2.053 . S
C356 O353 1.259 . S
C356 O357 1.254 . S
O357 Zn355 2.046 . S
O357 C356 1.254 . S
C358 O379 1.256 . S
C358 O380 1.244 . S
O359 Zn355 2.055 . S
O359 C381 1.259 . S
O360 Zn352 2.046 . S
O360 C381 1.254 . S
N361 Zn355 2.036 . S
N361 C362 1.298 . S
N361 N364 1.398 . S
C362 N361 1.298 . S
C362 N365 1.367 . S
C362 C375 1.481 . S
C363 N364 1.299 . S
C363 N365 1.379 . S
N364 N361 1.398 . S
N364 C363 1.299 . S
N365 C362 1.367 . S
N365 C363 1.379 . S
C366 N368 1.298 . S
C366 N370 1.367 . S
C366 C374 1.481 . S
C367 N369 1.299 . S
C367 N370 1.379 . S
N368 Zn352 2.036 . S
N368 C366 1.298 . S
N368 N369 1.398 . S
N369 C367 1.299 . S
N369 N368 1.398 . S
N370 C366 1.367 . S
N370 C367 1.379 . S
H371 C374 0.980 . S
H372 C374 0.981 . S
H373 C374 0.981 . S
C374 C366 1.481 . S
C374 H371 0.980 . S
C374 H372 0.981 . S
C374 H373 0.981 . S
C375 C362 1.481 . S
C375 H376 0.980 . S
C375 H377 0.981 . S
C375 H378 0.981 . S
H376 C375 0.980 . S
H377 C375 0.981 . S
H378 C375 0.981 . S
O379 Zn355 2.066 . S
O379 C358 1.256 . S
O380 Zn352 2.053 . S
O380 C358 1.244 . S
C381 O359 1.259 . S
C381 O360 1.254 . S
O382 Zn352 2.066 . S
O382 C354 1.256 . S
O383 C354 1.244 . S
O383 Zn355 2.053 . S
Zn384 O385 2.055 . S
Zn384 O392 2.046 . S
Zn384 N400 2.036 . S
Zn384 O412 2.053 . S
Zn384 O414 2.066 . S
O385 Zn384 2.055 . S
O385 C388 1.259 . S
C386 O414 1.256 . S
C386 O415 1.244 . S
Zn387 O389 2.046 . S
Zn387 O391 2.055 1_655 S
Zn387 N393 2.036 1_655 S
Zn387 O411 2.078 . S
Zn387 O415 2.053 . S
C388 O385 1.259 . S
C388 O389 1.254 . S
O389 Zn387 2.046 . S
O389 C388 1.254 . S
C390 O411 1.265 . S
C390 O412 1.244 . S
O391 Zn387 2.055 1_455 S
O391 C413 1.259 1_455 S
O392 Zn384 2.046 . S
O392 C413 1.254 . S
N393 Zn387 2.036 1_455 S
N393 C394 1.298 . S
N393 N396 1.398 1_455 S
C394 N393 1.298 . S
C394 N397 1.367 . S
C394 C407 1.481 . S
C395 N396 1.299 1_455 S
C395 N397 1.379 . S
N396 N393 1.398 1_655 S
N396 C395 1.299 1_655 S
N397 C394 1.367 . S
N397 C395 1.379 . S
C398 N400 1.298 . S
C398 N402 1.367 . S
C398 C406 1.481 . S
C399 N401 1.299 . S
C399 N402 1.379 . S
N400 Zn384 2.036 . S
N400 C398 1.298 . S
N400 N401 1.398 . S
N401 C399 1.299 . S
N401 N400 1.398 . S
N402 C398 1.367 . S
N402 C399 1.379 . S
H403 C406 0.980 . S
H404 C406 0.981 . S
H405 C406 0.981 . S
C406 C398 1.481 . S
C406 H403 0.980 . S
C406 H404 0.981 . S
C406 H405 0.981 . S
C407 C394 1.481 . S
C407 H408 0.980 . S
C407 H409 0.981 . S
C407 H410 0.981 . S
H408 C407 0.980 . S
H409 C407 0.981 . S
H410 C407 0.981 . S
O411 Zn387 2.078 . S
O411 C390 1.265 . S
O412 Zn384 2.053 . S
O412 C390 1.244 . S
C413 O391 1.259 1_655 S
C413 O392 1.254 . S
O414 Zn384 2.066 . S
O414 C386 1.256 . S
O415 C386 1.244 . S
O415 Zn387 2.053 . S
Zn416 O417 2.055 . S
Zn416 O424 2.046 . S
Zn416 N432 2.036 . S
Zn416 O444 2.053 . S
Zn416 O446 2.066 . S
O417 Zn416 2.055 . S
O417 C420 1.259 . S
C418 O446 1.256 . S
C418 O447 1.244 . S
Zn419 O421 2.046 . S
Zn419 O423 2.055 . S
Zn419 N425 2.036 . S
Zn419 O443 2.066 . S
Zn419 O447 2.053 . S
C420 O417 1.259 . S
C420 O421 1.254 . S
O421 Zn419 2.046 . S
O421 C420 1.254 . S
C422 O443 1.256 . S
C422 O444 1.244 . S
O423 Zn419 2.055 . S
O423 C445 1.259 . S
O424 Zn416 2.046 . S
O424 C445 1.254 . S
N425 Zn419 2.036 . S
N425 C426 1.298 . S
N425 N428 1.398 . S
C426 N425 1.298 . S
C426 N429 1.367 . S
C426 C439 1.481 . S
C427 N428 1.299 . S
C427 N429 1.379 . S
N428 N425 1.398 . S
N428 C427 1.299 . S
N429 C426 1.367 . S
N429 C427 1.379 . S
C430 N432 1.298 . S
C430 N434 1.367 . S
C430 C438 1.481 . S
C431 N433 1.299 . S
C431 N434 1.379 . S
N432 Zn416 2.036 . S
N432 C430 1.298 . S
N432 N433 1.398 . S
N433 C431 1.299 . S
N433 N432 1.398 . S
N434 C430 1.367 . S
N434 C431 1.379 . S
H435 C438 0.980 . S
H436 C438 0.981 . S
H437 C438 0.981 . S
C438 C430 1.481 . S
C438 H435 0.980 . S
C438 H436 0.981 . S
C438 H437 0.981 . S
C439 C426 1.481 . S
C439 H440 0.980 . S
C439 H441 0.981 . S
C439 H442 0.981 . S
H440 C439 0.980 . S
H441 C439 0.981 . S
H442 C439 0.981 . S
O443 Zn419 2.066 . S
O443 C422 1.256 . S
O444 Zn416 2.053 . S
O444 C422 1.244 . S
C445 O423 1.259 . S
C445 O424 1.254 . S
O446 Zn416 2.066 . S
O446 C418 1.256 . S
O447 C418 1.244 . S
O447 Zn419 2.053 . S
Zn448 O449 2.055 . S
Zn448 O456 2.046 . S
Zn448 N464 2.036 . S
Zn448 O476 2.053 . S
Zn448 O478 2.066 . S
O449 Zn448 2.055 . S
O449 C452 1.259 . S
C450 O478 1.256 . S
C450 O479 1.244 . S
Zn451 O453 2.046 . S
Zn451 O455 2.055 . S
Zn451 N457 2.036 . S
Zn451 O475 2.066 . S
Zn451 O479 2.053 . S
C452 O449 1.259 . S
C452 O453 1.254 . S
O453 Zn451 2.046 . S
O453 C452 1.254 . S
C454 O475 1.256 . S
C454 O476 1.244 . S
O455 Zn451 2.055 . S
O455 C477 1.259 . S
O456 Zn448 2.046 . S
O456 C477 1.254 . S
N457 Zn451 2.036 . S
N457 C458 1.298 . S
N457 N460 1.398 . S
C458 N457 1.298 . S
C458 N461 1.367 . S
C458 C471 1.481 . S
C459 N460 1.299 . S
C459 N461 1.379 . S
N460 N457 1.398 . S
N460 C459 1.299 . S
N461 C458 1.367 . S
N461 C459 1.379 . S
C462 N464 1.298 . S
C462 N466 1.367 . S
C462 C470 1.481 . S
C463 N465 1.299 . S
C463 N466 1.379 . S
N464 Zn448 2.036 . S
N464 C462 1.298 . S
N464 N465 1.398 . S
N465 C463 1.299 . S
N465 N464 1.398 . S
N466 C462 1.367 . S
N466 C463 1.379 . S
H467 C470 0.980 . S
H468 C470 0.981 . S
H469 C470 0.981 . S
C470 C462 1.481 . S
C470 H467 0.980 . S
C470 H468 0.981 . S
C470 H469 0.981 . S
C471 C458 1.481 . S
C471 H472 0.980 . S
C471 H473 0.981 . S
C471 H474 0.981 . S
H472 C471 0.980 . S
H473 C471 0.981 . S
H474 C471 0.981 . S
O475 Zn451 2.066 . S
O475 C454 1.256 . S
O476 Zn448 2.053 . S
O476 C454 1.244 . S
C477 O455 1.259 . S
C477 O456 1.254 . S
O478 Zn448 2.066 . S
O478 C450 1.256 . S
O479 C450 1.244 . S
O479 Zn451 2.053 . S
Zn480 O481 2.055 . S
Zn480 O488 2.046 . S
Zn480 N496 2.036 . S
Zn480 O508 2.053 . S
Zn480 O510 2.066 . S
O481 Zn480 2.055 . S
O481 C484 1.259 . S
C482 O510 1.256 . S
C482 O511 1.244 . S
Zn483 O485 2.046 . S
Zn483 O487 2.055 1_455 S
Zn483 N489 2.036 1_455 S
Zn483 O507 2.078 . S
Zn483 O511 2.053 . S
C484 O481 1.259 . S
C484 O485 1.254 . S
O485 Zn483 2.046 . S
O485 C484 1.254 . S
C486 O507 1.265 . S
C486 O508 1.244 . S
O487 Zn483 2.055 1_655 S
O487 C509 1.259 1_655 S
O488 Zn480 2.046 . S
O488 C509 1.254 . S
N489 Zn483 2.036 1_655 S
N489 C490 1.298 . S
N489 N492 1.398 1_655 S
C490 N489 1.298 . S
C490 N493 1.367 . S
C490 C503 1.481 . S
C491 N492 1.299 1_655 S
C491 N493 1.379 . S
N492 N489 1.398 1_455 S
N492 C491 1.299 1_455 S
N493 C490 1.367 . S
N493 C491 1.379 . S
C494 N496 1.298 . S
C494 N498 1.367 . S
C494 C502 1.481 . S
C495 N497 1.299 . S
C495 N498 1.379 . S
N496 Zn480 2.036 . S
N496 C494 1.298 . S
N496 N497 1.398 . S
N497 C495 1.299 . S
N497 N496 1.398 . S
N498 C494 1.367 . S
N498 C495 1.379 . S
H499 C502 0.980 . S
H500 C502 0.981 . S
H501 C502 0.981 . S
C502 C494 1.481 . S
C502 H499 0.980 . S
C502 H500 0.981 . S
C502 H501 0.981 . S
C503 C490 1.481 . S
C503 H504 0.980 . S
C503 H505 0.981 . S
C503 H506 0.981 . S
H504 C503 0.980 . S
H505 C503 0.981 . S
H506 C503 0.981 . S
O507 Zn483 2.078 . S
O507 C486 1.265 . S
O508 Zn480 2.053 . S
O508 C486 1.244 . S
C509 O487 1.259 1_455 S
C509 O488 1.254 . S
O510 Zn480 2.066 . S
O510 C482 1.256 . S
O511 C482 1.244 . S
O511 Zn483 2.053 . S
Zn512 O513 2.055 . S
Zn512 O520 2.046 . S
Zn512 N528 2.036 . S
Zn512 O540 2.053 . S
Zn512 O542 2.066 . S
O513 Zn512 2.055 . S
O513 C516 1.259 . S
C514 O542 1.256 . S
C514 O543 1.244 . S
Zn515 O517 2.046 . S
Zn515 O519 2.055 1_565 S
Zn515 N521 2.036 1_565 S
Zn515 O539 2.078 . S
Zn515 O543 2.053 . S
C516 O513 1.259 . S
C516 O517 1.254 . S
O517 Zn515 2.046 . S
O517 C516 1.254 . S
C518 O539 1.265 . S
C518 O540 1.244 . S
O519 Zn515 2.055 1_545 S
O519 C541 1.259 1_545 S
O520 Zn512 2.046 . S
O520 C541 1.254 . S
N521 Zn515 2.036 1_545 S
N521 C522 1.298 . S
N521 N524 1.398 1_545 S
C522 N521 1.298 . S
C522 N525 1.367 . S
C522 C535 1.481 . S
C523 N524 1.299 1_545 S
C523 N525 1.379 . S
N524 N521 1.398 1_565 S
N524 C523 1.299 1_565 S
N525 C522 1.367 . S
N525 C523 1.379 . S
C526 N528 1.298 . S
C526 N530 1.367 . S
C526 C534 1.481 . S
C527 N529 1.299 . S
C527 N530 1.379 . S
N528 Zn512 2.036 . S
N528 C526 1.298 . S
N528 N529 1.398 . S
N529 C527 1.299 . S
N529 N528 1.398 . S
N530 C526 1.367 . S
N530 C527 1.379 . S
H531 C534 0.980 . S
H532 C534 0.981 . S
H533 C534 0.981 . S
C534 C526 1.481 . S
C534 H531 0.980 . S
C534 H532 0.981 . S
C534 H533 0.981 . S
C535 C522 1.481 . S
C535 H536 0.980 . S
C535 H537 0.981 . S
C535 H538 0.981 . S
H536 C535 0.980 . S
H537 C535 0.981 . S
H538 C535 0.981 . S
O539 Zn515 2.078 . S
O539 C518 1.265 . S
O540 Zn512 2.053 . S
O540 C518 1.244 . S
C541 O519 1.259 1_565 S
C541 O520 1.254 . S
O542 Zn512 2.066 . S
O542 C514 1.256 . S
O543 C514 1.244 . S
O543 Zn515 2.053 . S
Zn544 O545 2.055 1_545 S
Zn544 O552 2.046 . S
Zn544 N560 2.036 1_545 S
Zn544 O572 2.053 . S
Zn544 O574 2.078 . S
O545 Zn544 2.055 1_565 S
O545 C548 1.259 1_565 S
C546 O574 1.265 . S
C546 O575 1.244 . S
Zn547 O549 2.046 . S
Zn547 O551 2.055 . S
Zn547 N553 2.036 . S
Zn547 O571 2.066 . S
Zn547 O575 2.053 . S
C548 O545 1.259 1_545 S
C548 O549 1.254 . S
O549 Zn547 2.046 . S
O549 C548 1.254 . S
C550 O571 1.256 . S
C550 O572 1.244 . S
O551 Zn547 2.055 . S
O551 C573 1.259 . S
O552 Zn544 2.046 . S
O552 C573 1.254 . S
N553 Zn547 2.036 . S
N553 C554 1.298 . S
N553 N556 1.398 . S
C554 N553 1.298 . S
C554 N557 1.367 . S
C554 C567 1.481 . S
C555 N556 1.299 . S
C555 N557 1.379 . S
N556 N553 1.398 . S
N556 C555 1.299 . S
N557 C554 1.367 . S
N557 C555 1.379 . S
C558 N560 1.298 . S
C558 N562 1.367 . S
C558 C566 1.481 . S
C559 N561 1.299 1_565 S
C559 N562 1.379 . S
N560 Zn544 2.036 1_565 S
N560 C558 1.298 . S
N560 N561 1.398 1_565 S
N561 C559 1.299 1_545 S
N561 N560 1.398 1_545 S
N562 C558 1.367 . S
N562 C559 1.379 . S
H563 C566 0.980 . S
H564 C566 0.981 . S
H565 C566 0.981 . S
C566 C558 1.481 . S
C566 H563 0.980 . S
C566 H564 0.981 . S
C566 H565 0.981 . S
C567 C554 1.481 . S
C567 H568 0.980 . S
C567 H569 0.981 . S
C567 H570 0.981 . S
H568 C567 0.980 . S
H569 C567 0.981 . S
H570 C567 0.981 . S
O571 Zn547 2.066 . S
O571 C550 1.256 . S
O572 Zn544 2.053 . S
O572 C550 1.244 . S
C573 O551 1.259 . S
C573 O552 1.254 . S
O574 Zn544 2.078 . S
O574 C546 1.265 . S
O575 C546 1.244 . S
O575 Zn547 2.053 . S
Zn576 O577 2.055 . S
Zn576 O584 2.046 . S
Zn576 N592 2.036 . S
Zn576 O604 2.053 . S
Zn576 O606 2.066 . S
O577 Zn576 2.055 . S
O577 C580 1.259 . S
C578 O606 1.256 . S
C578 O607 1.244 . S
Zn579 O581 2.046 . S
Zn579 O583 2.055 . S
Zn579 N585 2.036 . S
Zn579 O603 2.066 . S
Zn579 O607 2.053 . S
C580 O577 1.259 . S
C580 O581 1.254 . S
O581 Zn579 2.046 . S
O581 C580 1.254 . S
C582 O603 1.256 . S
C582 O604 1.244 . S
O583 Zn579 2.055 . S
O583 C605 1.259 . S
O584 Zn576 2.046 . S
O584 C605 1.254 . S
N585 Zn579 2.036 . S
N585 C586 1.298 . S
N585 N588 1.398 . S
C586 N585 1.298 . S
C586 N589 1.367 . S
C586 C599 1.481 . S
C587 N588 1.299 . S
C587 N589 1.379 . S
N588 N585 1.398 . S
N588 C587 1.299 . S
N589 C586 1.367 . S
N589 C587 1.379 . S
C590 N592 1.298 . S
C590 N594 1.367 . S
C590 C598 1.481 . S
C591 N593 1.299 . S
C591 N594 1.379 . S
N592 Zn576 2.036 . S
N592 C590 1.298 . S
N592 N593 1.398 . S
N593 C591 1.299 . S
N593 N592 1.398 . S
N594 C590 1.367 . S
N594 C591 1.379 . S
H595 C598 0.980 . S
H596 C598 0.981 . S
H597 C598 0.981 . S
C598 C590 1.481 . S
C598 H595 0.980 . S
C598 H596 0.981 . S
C598 H597 0.981 . S
C599 C586 1.481 . S
C599 H600 0.980 . S
C599 H601 0.981 . S
C599 H602 0.981 . S
H600 C599 0.980 . S
H601 C599 0.981 . S
H602 C599 0.981 . S
O603 Zn579 2.066 . S
O603 C582 1.256 . S
O604 Zn576 2.053 . S
O604 C582 1.244 . S
C605 O583 1.259 . S
C605 O584 1.254 . S
O606 Zn576 2.066 . S
O606 C578 1.256 . S
O607 C578 1.244 . S
O607 Zn579 2.053 . S
Zn608 O609 2.055 . S
Zn608 O616 2.046 . S
Zn608 N624 2.036 . S
Zn608 O636 2.053 . S
Zn608 O638 2.066 . S
O609 Zn608 2.055 . S
O609 C612 1.259 . S
C610 O638 1.256 . S
C610 O639 1.244 . S
Zn611 O613 2.046 . S
Zn611 O615 2.055 . S
Zn611 N617 2.036 . S
Zn611 O635 2.066 . S
Zn611 O639 2.053 . S
C612 O609 1.259 . S
C612 O613 1.254 . S
O613 Zn611 2.046 . S
O613 C612 1.254 . S
C614 O635 1.256 . S
C614 O636 1.244 . S
O615 Zn611 2.055 . S
O615 C637 1.259 . S
O616 Zn608 2.046 . S
O616 C637 1.254 . S
N617 Zn611 2.036 . S
N617 C618 1.298 . S
N617 N620 1.398 . S
C618 N617 1.298 . S
C618 N621 1.367 . S
C618 C631 1.481 . S
C619 N620 1.299 . S
C619 N621 1.379 . S
N620 N617 1.398 . S
N620 C619 1.299 . S
N621 C618 1.367 . S
N621 C619 1.379 . S
C622 N624 1.298 . S
C622 N626 1.367 . S
C622 C630 1.481 . S
C623 N625 1.299 . S
C623 N626 1.379 . S
N624 Zn608 2.036 . S
N624 C622 1.298 . S
N624 N625 1.398 . S
N625 C623 1.299 . S
N625 N624 1.398 . S
N626 C622 1.367 . S
N626 C623 1.379 . S
H627 C630 0.980 . S
H628 C630 0.981 . S
H629 C630 0.981 . S
C630 C622 1.481 . S
C630 H627 0.980 . S
C630 H628 0.981 . S
C630 H629 0.981 . S
C631 C618 1.481 . S
C631 H632 0.980 . S
C631 H633 0.981 . S
C631 H634 0.981 . S
H632 C631 0.980 . S
H633 C631 0.981 . S
H634 C631 0.981 . S
O635 Zn611 2.066 . S
O635 C614 1.256 . S
O636 Zn608 2.053 . S
O636 C614 1.244 . S
C637 O615 1.259 . S
C637 O616 1.254 . S
O638 Zn608 2.066 . S
O638 C610 1.256 . S
O639 C610 1.244 . S
O639 Zn611 2.053 . S
Zn640 O641 2.055 1_556 S
Zn640 O648 2.046 . S
Zn640 N656 2.036 1_556 S
Zn640 O668 2.053 . S
Zn640 O670 2.078 . S
O641 Zn640 2.055 1_554 S
O641 C644 1.259 1_554 S
C642 O670 1.265 . S
C642 O671 1.244 . S
Zn643 O645 2.046 . S
Zn643 O647 2.055 . S
Zn643 N649 2.036 . S
Zn643 O667 2.066 . S
Zn643 O671 2.053 . S
C644 O641 1.259 1_556 S
C644 O645 1.254 . S
O645 Zn643 2.046 . S
O645 C644 1.254 . S
C646 O667 1.256 . S
C646 O668 1.244 . S
O647 Zn643 2.055 . S
O647 C669 1.259 . S
O648 Zn640 2.046 . S
O648 C669 1.254 . S
N649 Zn643 2.036 . S
N649 C650 1.298 . S
N649 N652 1.398 . S
C650 N649 1.298 . S
C650 N653 1.367 . S
C650 C663 1.481 . S
C651 N652 1.299 . S
C651 N653 1.379 . S
N652 N649 1.398 . S
N652 C651 1.299 . S
N653 C650 1.367 . S
N653 C651 1.379 . S
C654 N656 1.298 . S
C654 N658 1.367 . S
C654 C662 1.481 . S
C655 N657 1.299 1_554 S
C655 N658 1.379 . S
N656 Zn640 2.036 1_554 S
N656 C654 1.298 . S
N656 N657 1.398 1_554 S
N657 C655 1.299 1_556 S
N657 N656 1.398 1_556 S
N658 C654 1.367 . S
N658 C655 1.379 . S
H659 C662 0.980 . S
H660 C662 0.981 . S
H661 C662 0.981 . S
C662 C654 1.481 . S
C662 H659 0.980 . S
C662 H660 0.981 . S
C662 H661 0.981 . S
C663 C650 1.481 . S
C663 H664 0.980 . S
C663 H665 0.981 . S
C663 H666 0.981 . S
H664 C663 0.980 . S
H665 C663 0.981 . S
H666 C663 0.981 . S
O667 Zn643 2.066 . S
O667 C646 1.256 . S
O668 Zn640 2.053 . S
O668 C646 1.244 . S
C669 O647 1.259 . S
C669 O648 1.254 . S
O670 Zn640 2.078 . S
O670 C642 1.265 . S
O671 C642 1.244 . S
O671 Zn643 2.053 . S
Zn672 O673 2.055 1_554 S
Zn672 O680 2.046 . S
Zn672 N688 2.036 1_554 S
Zn672 O700 2.053 . S
Zn672 O702 2.078 . S
O673 Zn672 2.055 1_556 S
O673 C676 1.259 1_556 S
C674 O702 1.265 . S
C674 O703 1.244 . S
Zn675 O677 2.046 . S
Zn675 O679 2.055 . S
Zn675 N681 2.036 . S
Zn675 O699 2.066 . S
Zn675 O703 2.053 . S
C676 O673 1.259 1_554 S
C676 O677 1.254 . S
O677 Zn675 2.046 . S
O677 C676 1.254 . S
C678 O699 1.256 . S
C678 O700 1.244 . S
O679 Zn675 2.055 . S
O679 C701 1.259 . S
O680 Zn672 2.046 . S
O680 C701 1.254 . S
N681 Zn675 2.036 . S
N681 C682 1.298 . S
N681 N684 1.398 . S
C682 N681 1.298 . S
C682 N685 1.367 . S
C682 C695 1.481 . S
C683 N684 1.299 . S
C683 N685 1.379 . S
N684 N681 1.398 . S
N684 C683 1.299 . S
N685 C682 1.367 . S
N685 C683 1.379 . S
C686 N688 1.298 . S
C686 N690 1.367 . S
C686 C694 1.481 . S
C687 N689 1.299 1_556 S
C687 N690 1.379 . S
N688 Zn672 2.036 1_556 S
N688 C686 1.298 . S
N688 N689 1.398 1_556 S
N689 C687 1.299 1_554 S
N689 N688 1.398 1_554 S
N690 C686 1.367 . S
N690 C687 1.379 . S
H691 C694 0.980 . S
H692 C694 0.981 . S
H693 C694 0.981 . S
C694 C686 1.481 . S
C694 H691 0.980 . S
C694 H692 0.981 . S
C694 H693 0.981 . S
C695 C682 1.481 . S
C695 H696 0.980 . S
C695 H697 0.981 . S
C695 H698 0.981 . S
H696 C695 0.980 . S
H697 C695 0.981 . S
H698 C695 0.981 . S
O699 Zn675 2.066 . S
O699 C678 1.256 . S
O700 Zn672 2.053 . S
O700 C678 1.244 . S
C701 O679 1.259 . S
C701 O680 1.254 . S
O702 Zn672 2.078 . S
O702 C674 1.265 . S
O703 C674 1.244 . S
O703 Zn675 2.053 . S
Zn704 O705 2.055 . S
Zn704 O712 2.046 . S
Zn704 N720 2.036 . S
Zn704 O732 2.053 . S
Zn704 O734 2.066 . S
O705 Zn704 2.055 . S
O705 C708 1.259 . S
C706 O734 1.256 . S
C706 O735 1.244 . S
Zn707 O709 2.046 . S
Zn707 O711 2.055 . S
Zn707 N713 2.036 . S
Zn707 O731 2.066 . S
Zn707 O735 2.053 . S
C708 O705 1.259 . S
C708 O709 1.254 . S
O709 Zn707 2.046 . S
O709 C708 1.254 . S
C710 O731 1.256 . S
C710 O732 1.244 . S
O711 Zn707 2.055 . S
O711 C733 1.259 . S
O712 Zn704 2.046 . S
O712 C733 1.254 . S
N713 Zn707 2.036 . S
N713 C714 1.298 . S
N713 N716 1.398 . S
C714 N713 1.298 . S
C714 N717 1.367 . S
C714 C727 1.481 . S
C715 N716 1.299 . S
C715 N717 1.379 . S
N716 N713 1.398 . S
N716 C715 1.299 . S
N717 C714 1.367 . S
N717 C715 1.379 . S
C718 N720 1.298 . S
C718 N722 1.367 . S
C718 C726 1.481 . S
C719 N721 1.299 . S
C719 N722 1.379 . S
N720 Zn704 2.036 . S
N720 C718 1.298 . S
N720 N721 1.398 . S
N721 C719 1.299 . S
N721 N720 1.398 . S
N722 C718 1.367 . S
N722 C719 1.379 . S
H723 C726 0.980 . S
H724 C726 0.981 . S
H725 C726 0.981 . S
C726 C718 1.481 . S
C726 H723 0.980 . S
C726 H724 0.981 . S
C726 H725 0.981 . S
C727 C714 1.481 . S
C727 H728 0.980 . S
C727 H729 0.981 . S
C727 H730 0.981 . S
H728 C727 0.980 . S
H729 C727 0.981 . S
H730 C727 0.981 . S
O731 Zn707 2.066 . S
O731 C710 1.256 . S
O732 Zn704 2.053 . S
O732 C710 1.244 . S
C733 O711 1.259 . S
C733 O712 1.254 . S
O734 Zn704 2.066 . S
O734 C706 1.256 . S
O735 C706 1.244 . S
O735 Zn707 2.053 . S
Zn736 O737 2.055 . S
Zn736 O744 2.046 . S
Zn736 N752 2.036 . S
Zn736 O764 2.053 . S
Zn736 O766 2.066 . S
O737 Zn736 2.055 . S
O737 C740 1.259 . S
C738 O766 1.256 . S
C738 O767 1.244 . S
Zn739 O741 2.046 . S
Zn739 O743 2.055 . S
Zn739 N745 2.036 . S
Zn739 O763 2.066 . S
Zn739 O767 2.053 . S
C740 O737 1.259 . S
C740 O741 1.254 . S
O741 Zn739 2.046 . S
O741 C740 1.254 . S
C742 O763 1.256 . S
C742 O764 1.244 . S
O743 Zn739 2.055 . S
O743 C765 1.259 . S
O744 Zn736 2.046 . S
O744 C765 1.254 . S
N745 Zn739 2.036 . S
N745 C746 1.298 . S
N745 N748 1.398 . S
C746 N745 1.298 . S
C746 N749 1.367 . S
C746 C759 1.481 . S
C747 N748 1.299 . S
C747 N749 1.379 . S
N748 N745 1.398 . S
N748 C747 1.299 . S
N749 C746 1.367 . S
N749 C747 1.379 . S
C750 N752 1.298 . S
C750 N754 1.367 . S
C750 C758 1.481 . S
C751 N753 1.299 . S
C751 N754 1.379 . S
N752 Zn736 2.036 . S
N752 C750 1.298 . S
N752 N753 1.398 . S
N753 C751 1.299 . S
N753 N752 1.398 . S
N754 C750 1.367 . S
N754 C751 1.379 . S
H755 C758 0.980 . S
H756 C758 0.981 . S
H757 C758 0.981 . S
C758 C750 1.481 . S
C758 H755 0.980 . S
C758 H756 0.981 . S
C758 H757 0.981 . S
C759 C746 1.481 . S
C759 H760 0.980 . S
C759 H761 0.981 . S
C759 H762 0.981 . S
H760 C759 0.980 . S
H761 C759 0.981 . S
H762 C759 0.981 . S
O763 Zn739 2.066 . S
O763 C742 1.256 . S
O764 Zn736 2.053 . S
O764 C742 1.244 . S
C765 O743 1.259 . S
C765 O744 1.254 . S
O766 Zn736 2.066 . S
O766 C738 1.256 . S
O767 C738 1.244 . S
O767 Zn739 2.053 . S
H768 C774 0.930 . S
H769 C777 0.930 . S
H770 C778 0.930 . S
H771 C779 0.930 . S
H772 C782 0.930 . S
H773 C783 0.930 . S
C774 H768 0.930 . S
C774 C775 1.355 . S
C774 C776 1.415 . S
C775 C774 1.355 . S
C775 C777 1.419 . S
C776 C774 1.415 . S
C776 C781 1.425 . S
C776 C783 1.409 . S
C777 H769 0.930 . S
C777 C775 1.419 . S
C777 C778 1.362 . S
C778 H770 0.930 . S
C778 C777 1.362 . S
C778 C781 1.409 . S
C779 H771 0.930 . S
C779 C780 1.355 . S
C779 C781 1.415 . S
C780 C779 1.355 . S
C780 C782 1.419 . S
C781 C776 1.425 . S
C781 C778 1.409 . S
C781 C779 1.415 . S
C782 H772 0.930 . S
C782 C780 1.419 . S
C782 C783 1.362 . S
C783 H773 0.930 . S
C783 C776 1.409 . S
C783 C782 1.362 . S
H784 C790 0.930 . S
H785 C793 0.930 . S
H786 C794 0.930 . S
H787 C795 0.930 . S
H788 C798 0.930 . S
H789 C799 0.930 . S
C790 H784 0.930 . S
C790 C791 1.355 . S
C790 C792 1.415 . S
C791 C790 1.355 . S
C791 C793 1.419 . S
C792 C790 1.415 . S
C792 C797 1.425 . S
C792 C799 1.409 . S
C793 H785 0.930 . S
C793 C791 1.419 . S
C793 C794 1.362 . S
C794 H786 0.930 . S
C794 C793 1.362 . S
C794 C797 1.409 . S
C795 H787 0.930 . S
C795 C796 1.355 . S
C795 C797 1.415 . S
C796 C795 1.355 . S
C796 C798 1.419 . S
C797 C792 1.425 . S
C797 C794 1.409 . S
C797 C795 1.415 . S
C798 H788 0.930 . S
C798 C796 1.419 . S
C798 C799 1.362 . S
C799 H789 0.930 . S
C799 C792 1.409 . S
C799 C798 1.362 . S
H800 C806 0.930 . S
H801 C809 0.930 . S
H802 C810 0.930 . S
H803 C811 0.930 . S
H804 C814 0.930 1_565 S
H805 C815 0.930 . S
C806 H800 0.930 . S
C806 C807 1.355 . S
C806 C808 1.415 . S
C807 C806 1.355 . S
C807 C809 1.419 . S
C808 C806 1.415 . S
C808 C813 1.425 . S
C808 C815 1.409 . S
C809 H801 0.930 . S
C809 C807 1.419 . S
C809 C810 1.362 . S
C810 H802 0.930 . S
C810 C809 1.362 . S
C810 C813 1.409 . S
C811 H803 0.930 . S
C811 C812 1.355 . S
C811 C813 1.415 . S
C812 C811 1.355 . S
C812 C814 1.419 . S
C813 C808 1.425 . S
C813 C810 1.409 . S
C813 C811 1.415 . S
C814 H804 0.930 1_545 S
C814 C812 1.419 . S
C814 C815 1.362 . S
C815 H805 0.930 . S
C815 C808 1.409 . S
C815 C814 1.362 . S
H816 C822 0.930 . S
H817 C825 0.930 . S
H818 C826 0.930 . S
H819 C827 0.930 . S
H820 C830 0.930 . S
H821 C831 0.930 . S
C822 H816 0.930 . S
C822 C823 1.355 . S
C822 C824 1.415 . S
C823 C822 1.355 . S
C823 C825 1.419 . S
C824 C822 1.415 . S
C824 C829 1.425 . S
C824 C831 1.409 . S
C825 H817 0.930 . S
C825 C823 1.419 . S
C825 C826 1.362 . S
C826 H818 0.930 . S
C826 C825 1.362 . S
C826 C829 1.409 . S
C827 H819 0.930 . S
C827 C828 1.355 . S
C827 C829 1.415 . S
C828 C827 1.355 . S
C828 C830 1.419 . S
C829 C824 1.425 . S
C829 C826 1.409 . S
C829 C827 1.415 . S
C830 H820 0.930 . S
C830 C828 1.419 . S
C830 C831 1.362 . S
C831 H821 0.930 . S
C831 C824 1.409 . S
C831 C830 1.362 . S
H832 C838 0.930 . S
H833 C841 0.930 . S
H834 C842 0.930 . S
H835 C843 0.930 . S
H836 C846 0.930 . S
H837 C847 0.930 . S
C838 H832 0.930 . S
C838 C839 1.355 . S
C838 C840 1.415 . S
C839 C838 1.355 . S
C839 C841 1.419 . S
C840 C838 1.415 . S
C840 C845 1.425 . S
C840 C847 1.409 . S
C841 H833 0.930 . S
C841 C839 1.419 . S
C841 C842 1.362 . S
C842 H834 0.930 . S
C842 C841 1.362 . S
C842 C845 1.409 . S
C843 H835 0.930 . S
C843 C844 1.355 . S
C843 C845 1.415 . S
C844 C843 1.355 . S
C844 C846 1.419 . S
C845 C840 1.425 . S
C845 C842 1.409 . S
C845 C843 1.415 . S
C846 H836 0.930 . S
C846 C844 1.419 . S
C846 C847 1.362 . S
C847 H837 0.930 . S
C847 C840 1.409 . S
C847 C846 1.362 . S
H848 C854 0.930 . S
H849 C857 0.930 . S
H850 C858 0.930 . S
H851 C859 0.930 . S
H852 C862 0.930 . S
H853 C863 0.930 . S
C854 H848 0.930 . S
C854 C855 1.355 . S
C854 C856 1.415 . S
C855 C854 1.355 . S
C855 C857 1.419 . S
C856 C854 1.415 . S
C856 C861 1.425 . S
C856 C863 1.409 . S
C857 H849 0.930 . S
C857 C855 1.419 . S
C857 C858 1.362 . S
C858 H850 0.930 . S
C858 C857 1.362 . S
C858 C861 1.409 . S
C859 H851 0.930 . S
C859 C860 1.355 . S
C859 C861 1.415 . S
C860 C859 1.355 . S
C860 C862 1.419 . S
C861 C856 1.425 . S
C861 C858 1.409 . S
C861 C859 1.415 . S
C862 H852 0.930 . S
C862 C860 1.419 . S
C862 C863 1.362 . S
C863 H853 0.930 . S
C863 C856 1.409 . S
C863 C862 1.362 . S
H864 C870 0.930 . S
H865 C873 0.930 . S
H866 C874 0.930 . S
H867 C875 0.930 . S
H868 C878 0.930 . S
H869 C879 0.930 . S
C870 H864 0.930 . S
C870 C871 1.355 . S
C870 C872 1.415 . S
C871 C870 1.355 . S
C871 C873 1.419 . S
C872 C870 1.415 . S
C872 C877 1.425 . S
C872 C879 1.409 . S
C873 H865 0.930 . S
C873 C871 1.419 . S
C873 C874 1.362 . S
C874 H866 0.930 . S
C874 C873 1.362 . S
C874 C877 1.409 . S
C875 H867 0.930 . S
C875 C876 1.355 . S
C875 C877 1.415 . S
C876 C875 1.355 . S
C876 C878 1.419 . S
C877 C872 1.425 . S
C877 C874 1.409 . S
C877 C875 1.415 . S
C878 H868 0.930 . S
C878 C876 1.419 . S
C878 C879 1.362 . S
C879 H869 0.930 . S
C879 C872 1.409 . S
C879 C878 1.362 . S
H880 C886 0.930 . S
H881 C889 0.930 . S
H882 C890 0.930 . S
H883 C891 0.930 . S
H884 C894 0.930 . S
H885 C895 0.930 . S
C886 H880 0.930 . S
C886 C887 1.355 . S
C886 C888 1.415 . S
C887 C886 1.355 . S
C887 C889 1.419 . S
C888 C886 1.415 . S
C888 C893 1.425 . S
C888 C895 1.409 . S
C889 H881 0.930 . S
C889 C887 1.419 . S
C889 C890 1.362 . S
C890 H882 0.930 . S
C890 C889 1.362 . S
C890 C893 1.409 . S
C891 H883 0.930 . S
C891 C892 1.355 . S
C891 C893 1.415 . S
C892 C891 1.355 . S
C892 C894 1.419 . S
C893 C888 1.425 . S
C893 C890 1.409 . S
C893 C891 1.415 . S
C894 H884 0.930 . S
C894 C892 1.419 . S
C894 C895 1.362 . S
C895 H885 0.930 . S
C895 C888 1.409 . S
C895 C894 1.362 . S
H896 C902 0.930 . S
H897 C905 0.930 . S
H898 C906 0.930 . S
H899 C907 0.930 . S
H900 C910 0.930 . S
H901 C911 0.930 . S
C902 H896 0.930 . S
C902 C903 1.355 . S
C902 C904 1.415 . S
C903 C902 1.355 . S
C903 C905 1.419 . S
C904 C902 1.415 . S
C904 C909 1.425 . S
C904 C911 1.409 . S
C905 H897 0.930 . S
C905 C903 1.419 . S
C905 C906 1.362 . S
C906 H898 0.930 . S
C906 C905 1.362 . S
C906 C909 1.409 . S
C907 H899 0.930 . S
C907 C908 1.355 . S
C907 C909 1.415 . S
C908 C907 1.355 . S
C908 C910 1.419 . S
C909 C904 1.425 . S
C909 C906 1.409 . S
C909 C907 1.415 . S
C910 H900 0.930 . S
C910 C908 1.419 . S
C910 C911 1.362 . S
C911 H901 0.930 . S
C911 C904 1.409 . S
C911 C910 1.362 . S
H912 C918 0.930 . S
H913 C921 0.930 . S
H914 C922 0.930 . S
H915 C923 0.930 . S
H916 C926 0.930 . S
H917 C927 0.930 . S
C918 H912 0.930 . S
C918 C919 1.355 . S
C918 C920 1.415 . S
C919 C918 1.355 . S
C919 C921 1.419 . S
C920 C918 1.415 . S
C920 C925 1.425 . S
C920 C927 1.409 . S
C921 H913 0.930 . S
C921 C919 1.419 . S
C921 C922 1.362 . S
C922 H914 0.930 . S
C922 C921 1.362 . S
C922 C925 1.409 . S
C923 H915 0.930 . S
C923 C924 1.355 . S
C923 C925 1.415 . S
C924 C923 1.355 . S
C924 C926 1.419 . S
C925 C920 1.425 . S
C925 C922 1.409 . S
C925 C923 1.415 . S
C926 H916 0.930 . S
C926 C924 1.419 . S
C926 C927 1.362 . S
C927 H917 0.930 . S
C927 C920 1.409 . S
C927 C926 1.362 . S
H928 C934 0.930 . S
H929 C937 0.930 . S
H930 C938 0.930 . S
H931 C939 0.930 . S
H932 C942 0.930 . S
H933 C943 0.930 . S
C934 H928 0.930 . S
C934 C935 1.355 . S
C934 C936 1.415 . S
C935 C934 1.355 . S
C935 C937 1.419 . S
C936 C934 1.415 . S
C936 C941 1.425 . S
C936 C943 1.409 . S
C937 H929 0.930 . S
C937 C935 1.419 . S
C937 C938 1.362 . S
C938 H930 0.930 . S
C938 C937 1.362 . S
C938 C941 1.409 . S
C939 H931 0.930 . S
C939 C940 1.355 . S
C939 C941 1.415 . S
C940 C939 1.355 . S
C940 C942 1.419 . S
C941 C936 1.425 . S
C941 C938 1.409 . S
C941 C939 1.415 . S
C942 H932 0.930 . S
C942 C940 1.419 . S
C942 C943 1.362 . S
C943 H933 0.930 . S
C943 C936 1.409 . S
C943 C942 1.362 . S
H944 C950 0.930 . S
H945 C953 0.930 . S
H946 C954 0.930 . S
H947 C955 0.930 . S
H948 C958 0.930 . S
H949 C959 0.930 . S
C950 H944 0.930 . S
C950 C951 1.355 . S
C950 C952 1.415 . S
C951 C950 1.355 . S
C951 C953 1.419 . S
C952 C950 1.415 . S
C952 C957 1.425 . S
C952 C959 1.409 . S
C953 H945 0.930 . S
C953 C951 1.419 . S
C953 C954 1.362 . S
C954 H946 0.930 . S
C954 C953 1.362 . S
C954 C957 1.409 . S
C955 H947 0.930 . S
C955 C956 1.355 . S
C955 C957 1.415 . S
C956 C955 1.355 . S
C956 C958 1.419 . S
C957 C952 1.425 . S
C957 C954 1.409 . S
C957 C955 1.415 . S
C958 H948 0.930 . S
C958 C956 1.419 . S
C958 C959 1.362 . S
C959 H949 0.930 . S
C959 C952 1.409 . S
C959 C958 1.362 . S
H960 C966 0.930 . S
H961 C969 0.930 . S
H962 C970 0.930 . S
H963 C971 0.930 . S
H964 C974 0.930 . S
H965 C975 0.930 . S
C966 H960 0.930 . S
C966 C967 1.355 . S
C966 C968 1.415 . S
C967 C966 1.355 . S
C967 C969 1.419 . S
C968 C966 1.415 . S
C968 C973 1.425 . S
C968 C975 1.409 . S
C969 H961 0.930 . S
C969 C967 1.419 . S
C969 C970 1.362 . S
C970 H962 0.930 . S
C970 C969 1.362 . S
C970 C973 1.409 . S
C971 H963 0.930 . S
C971 C972 1.355 . S
C971 C973 1.415 . S
C972 C971 1.355 . S
C972 C974 1.419 . S
C973 C968 1.425 . S
C973 C970 1.409 . S
C973 C971 1.415 . S
C974 H964 0.930 . S
C974 C972 1.419 . S
C974 C975 1.362 . S
C975 H965 0.930 . S
C975 C968 1.409 . S
C975 C974 1.362 . S
H976 C982 0.930 . S
H977 C985 0.930 . S
H978 C986 0.930 . S
H979 C987 0.930 . S
H980 C990 0.930 . S
H981 C991 0.930 . S
C982 H976 0.930 . S
C982 C983 1.355 . S
C982 C984 1.415 . S
C983 C982 1.355 . S
C983 C985 1.419 . S
C984 C982 1.415 . S
C984 C989 1.425 . S
C984 C991 1.409 . S
C985 H977 0.930 . S
C985 C983 1.419 . S
C985 C986 1.362 . S
C986 H978 0.930 . S
C986 C985 1.362 . S
C986 C989 1.409 . S
C987 H979 0.930 . S
C987 C988 1.355 . S
C987 C989 1.415 . S
C988 C987 1.355 . S
C988 C990 1.419 . S
C989 C984 1.425 . S
C989 C986 1.409 . S
C989 C987 1.415 . S
C990 H980 0.930 . S
C990 C988 1.419 . S
C990 C991 1.362 . S
C991 H981 0.930 . S
C991 C984 1.409 . S
C991 C990 1.362 . S
H992 C998 0.930 . S
H993 C1001 0.930 . S
H994 C1002 0.930 . S
H995 C1003 0.930 . S
H996 C1006 0.930 1_545 S
H997 C1007 0.930 . S
C998 H992 0.930 . S
C998 C999 1.355 . S
C998 C1000 1.415 . S
C999 C998 1.355 . S
C999 C1001 1.419 . S
C1000 C998 1.415 . S
C1000 C1005 1.425 . S
C1000 C1007 1.409 . S
C1001 H993 0.930 . S
C1001 C999 1.419 . S
C1001 C1002 1.362 . S
C1002 H994 0.930 . S
C1002 C1001 1.362 . S
C1002 C1005 1.409 . S
C1003 H995 0.930 . S
C1003 C1004 1.355 . S
C1003 C1005 1.415 . S
C1004 C1003 1.355 . S
C1004 C1006 1.419 . S
C1005 C1000 1.425 . S
C1005 C1002 1.409 . S
C1005 C1003 1.415 . S
C1006 H996 0.930 1_565 S
C1006 C1004 1.419 . S
C1006 C1007 1.362 . S
C1007 H997 0.930 . S
C1007 C1000 1.409 . S
C1007 C1006 1.362 . S
H1008 C1014 0.930 . S
H1009 C1017 0.930 . S
H1010 C1018 0.930 . S
H1011 C1019 0.930 . S
H1012 C1022 0.930 . S
H1013 C1023 0.930 . S
C1014 H1008 0.930 . S
C1014 C1015 1.355 . S
C1014 C1016 1.415 . S
C1015 C1014 1.355 . S
C1015 C1017 1.419 . S
C1016 C1014 1.415 . S
C1016 C1021 1.425 . S
C1016 C1023 1.409 . S
C1017 H1009 0.930 . S
C1017 C1015 1.419 . S
C1017 C1018 1.362 . S
C1018 H1010 0.930 . S
C1018 C1017 1.362 . S
C1018 C1021 1.409 . S
C1019 H1011 0.930 . S
C1019 C1020 1.355 . S
C1019 C1021 1.415 . S
C1020 C1019 1.355 . S
C1020 C1022 1.419 . S
C1021 C1016 1.425 . S
C1021 C1018 1.409 . S
C1021 C1019 1.415 . S
C1022 H1012 0.930 . S
C1022 C1020 1.419 . S
C1022 C1023 1.362 . S
C1023 H1013 0.930 . S
C1023 C1016 1.409 . S
C1023 C1022 1.362 . S
H1024 C1030 0.930 . S
H1025 C1033 0.930 . S
H1026 C1034 0.930 . S
H1027 C1035 0.930 . S
H1028 C1038 0.930 . S
H1029 C1039 0.930 . S
C1030 H1024 0.930 . S
C1030 C1031 1.355 . S
C1030 C1032 1.415 . S
C1031 C1030 1.355 . S
C1031 C1033 1.419 . S
C1032 C1030 1.415 . S
C1032 C1037 1.425 . S
C1032 C1039 1.409 . S
C1033 H1025 0.930 . S
C1033 C1031 1.419 . S
C1033 C1034 1.362 . S
C1034 H1026 0.930 . S
C1034 C1033 1.362 . S
C1034 C1037 1.409 . S
C1035 H1027 0.930 . S
C1035 C1036 1.355 . S
C1035 C1037 1.415 . S
C1036 C1035 1.355 . S
C1036 C1038 1.419 . S
C1037 C1032 1.425 . S
C1037 C1034 1.409 . S
C1037 C1035 1.415 . S
C1038 H1028 0.930 . S
C1038 C1036 1.419 . S
C1038 C1039 1.362 . S
C1039 H1029 0.930 . S
C1039 C1032 1.409 . S
C1039 C1038 1.362 . S
H1040 C1046 0.930 . S
H1041 C1049 0.930 1_556 S
H1042 C1050 0.930 . S
H1043 C1051 0.930 . S
H1044 C1054 0.930 . S
H1045 C1055 0.930 . S
C1046 H1040 0.930 . S
C1046 C1047 1.355 . S
C1046 C1048 1.415 . S
C1047 C1046 1.355 . S
C1047 C1049 1.419 . S
C1048 C1046 1.415 . S
C1048 C1053 1.425 . S
C1048 C1055 1.409 . S
C1049 H1041 0.930 1_554 S
C1049 C1047 1.419 . S
C1049 C1050 1.362 . S
C1050 H1042 0.930 . S
C1050 C1049 1.362 . S
C1050 C1053 1.409 . S
C1051 H1043 0.930 . S
C1051 C1052 1.355 . S
C1051 C1053 1.415 . S
C1052 C1051 1.355 . S
C1052 C1054 1.419 . S
C1053 C1048 1.425 . S
C1053 C1050 1.409 . S
C1053 C1051 1.415 . S
C1054 H1044 0.930 . S
C1054 C1052 1.419 . S
C1054 C1055 1.362 . S
C1055 H1045 0.930 . S
C1055 C1048 1.409 . S
C1055 C1054 1.362 . S
H1056 C1062 0.930 . S
H1057 C1065 0.930 . S
H1058 C1066 0.930 . S
H1059 C1067 0.930 . S
H1060 C1070 0.930 . S
H1061 C1071 0.930 . S
C1062 H1056 0.930 . S
C1062 C1063 1.355 . S
C1062 C1064 1.415 . S
C1063 C1062 1.355 . S
C1063 C1065 1.419 . S
C1064 C1062 1.415 . S
C1064 C1069 1.425 . S
C1064 C1071 1.409 . S
C1065 H1057 0.930 . S
C1065 C1063 1.419 . S
C1065 C1066 1.362 . S
C1066 H1058 0.930 . S
C1066 C1065 1.362 . S
C1066 C1069 1.409 . S
C1067 H1059 0.930 . S
C1067 C1068 1.355 . S
C1067 C1069 1.415 . S
C1068 C1067 1.355 . S
C1068 C1070 1.419 . S
C1069 C1064 1.425 . S
C1069 C1066 1.409 . S
C1069 C1067 1.415 . S
C1070 H1060 0.930 . S
C1070 C1068 1.419 . S
C1070 C1071 1.362 . S
C1071 H1061 0.930 . S
C1071 C1064 1.409 . S
C1071 C1070 1.362 . S
H1072 C1078 0.930 . S
H1073 C1081 0.930 . S
H1074 C1082 0.930 . S
H1075 C1083 0.930 . S
H1076 C1086 0.930 . S
H1077 C1087 0.930 . S
C1078 H1072 0.930 . S
C1078 C1079 1.355 . S
C1078 C1080 1.415 . S
C1079 C1078 1.355 . S
C1079 C1081 1.419 . S
C1080 C1078 1.415 . S
C1080 C1085 1.425 . S
C1080 C1087 1.409 . S
C1081 H1073 0.930 . S
C1081 C1079 1.419 . S
C1081 C1082 1.362 . S
C1082 H1074 0.930 . S
C1082 C1081 1.362 . S
C1082 C1085 1.409 . S
C1083 H1075 0.930 . S
C1083 C1084 1.355 . S
C1083 C1085 1.415 . S
C1084 C1083 1.355 . S
C1084 C1086 1.419 . S
C1085 C1080 1.425 . S
C1085 C1082 1.409 . S
C1085 C1083 1.415 . S
C1086 H1076 0.930 . S
C1086 C1084 1.419 . S
C1086 C1087 1.362 . S
C1087 H1077 0.930 . S
C1087 C1080 1.409 . S
C1087 C1086 1.362 . S
H1088 C1094 0.930 . S
H1089 C1097 0.930 . S
H1090 C1098 0.930 . S
H1091 C1099 0.930 . S
H1092 C1102 0.930 . S
H1093 C1103 0.930 . S
C1094 H1088 0.930 . S
C1094 C1095 1.355 . S
C1094 C1096 1.415 . S
C1095 C1094 1.355 . S
C1095 C1097 1.419 . S
C1096 C1094 1.415 . S
C1096 C1101 1.425 . S
C1096 C1103 1.409 . S
C1097 H1089 0.930 . S
C1097 C1095 1.419 . S
C1097 C1098 1.362 . S
C1098 H1090 0.930 . S
C1098 C1097 1.362 . S
C1098 C1101 1.409 . S
C1099 H1091 0.930 . S
C1099 C1100 1.355 . S
C1099 C1101 1.415 . S
C1100 C1099 1.355 . S
C1100 C1102 1.419 . S
C1101 C1096 1.425 . S
C1101 C1098 1.409 . S
C1101 C1099 1.415 . S
C1102 H1092 0.930 . S
C1102 C1100 1.419 . S
C1102 C1103 1.362 . S
C1103 H1093 0.930 . S
C1103 C1096 1.409 . S
C1103 C1102 1.362 . S
H1104 C1110 0.930 . S
H1105 C1113 0.930 1_655 S
H1106 C1114 0.930 . S
H1107 C1115 0.930 . S
H1108 C1118 0.930 . S
H1109 C1119 0.930 . S
C1110 H1104 0.930 . S
C1110 C1111 1.355 . S
C1110 C1112 1.415 . S
C1111 C1110 1.355 . S
C1111 C1113 1.419 . S
C1112 C1110 1.415 . S
C1112 C1117 1.425 . S
C1112 C1119 1.409 . S
C1113 H1105 0.930 1_455 S
C1113 C1111 1.419 . S
C1113 C1114 1.362 . S
C1114 H1106 0.930 . S
C1114 C1113 1.362 . S
C1114 C1117 1.409 . S
C1115 H1107 0.930 . S
C1115 C1116 1.355 . S
C1115 C1117 1.415 . S
C1116 C1115 1.355 . S
C1116 C1118 1.419 . S
C1117 C1112 1.425 . S
C1117 C1114 1.409 . S
C1117 C1115 1.415 . S
C1118 H1108 0.930 . S
C1118 C1116 1.419 . S
C1118 C1119 1.362 . S
C1119 H1109 0.930 . S
C1119 C1112 1.409 . S
C1119 C1118 1.362 . S
H1120 C1126 0.930 . S
H1121 C1129 0.930 . S
H1122 C1130 0.930 . S
H1123 C1131 0.930 . S
H1124 C1134 0.930 . S
H1125 C1135 0.930 . S
C1126 H1120 0.930 . S
C1126 C1127 1.355 . S
C1126 C1128 1.415 . S
C1127 C1126 1.355 . S
C1127 C1129 1.419 . S
C1128 C1126 1.415 . S
C1128 C1133 1.425 . S
C1128 C1135 1.409 . S
C1129 H1121 0.930 . S
C1129 C1127 1.419 . S
C1129 C1130 1.362 . S
C1130 H1122 0.930 . S
C1130 C1129 1.362 . S
C1130 C1133 1.409 . S
C1131 H1123 0.930 . S
C1131 C1132 1.355 . S
C1131 C1133 1.415 . S
C1132 C1131 1.355 . S
C1132 C1134 1.419 . S
C1133 C1128 1.425 . S
C1133 C1130 1.409 . S
C1133 C1131 1.415 . S
C1134 H1124 0.930 . S
C1134 C1132 1.419 . S
C1134 C1135 1.362 . S
C1135 H1125 0.930 . S
C1135 C1128 1.409 . S
C1135 C1134 1.362 . S
H1136 C1142 0.930 . S
H1137 C1145 0.930 . S
H1138 C1146 0.930 . S
H1139 C1147 0.930 . S
H1140 C1150 0.930 1_455 S
H1141 C1151 0.930 . S
C1142 H1136 0.930 . S
C1142 C1143 1.355 . S
C1142 C1144 1.415 . S
C1143 C1142 1.355 . S
C1143 C1145 1.419 . S
C1144 C1142 1.415 . S
C1144 C1149 1.425 . S
C1144 C1151 1.409 . S
C1145 H1137 0.930 . S
C1145 C1143 1.419 . S
C1145 C1146 1.362 . S
C1146 H1138 0.930 . S
C1146 C1145 1.362 . S
C1146 C1149 1.409 . S
C1147 H1139 0.930 . S
C1147 C1148 1.355 . S
C1147 C1149 1.415 . S
C1148 C1147 1.355 . S
C1148 C1150 1.419 . S
C1149 C1144 1.425 . S
C1149 C1146 1.409 . S
C1149 C1147 1.415 . S
C1150 H1140 0.930 1_655 S
C1150 C1148 1.419 . S
C1150 C1151 1.362 . S
C1151 H1141 0.930 . S
C1151 C1144 1.409 . S
C1151 C1150 1.362 . S
H1152 C1158 0.930 . S
H1153 C1161 0.930 . S
H1154 C1162 0.930 . S
H1155 C1163 0.930 . S
H1156 C1166 0.930 . S
H1157 C1167 0.930 . S
C1158 H1152 0.930 . S
C1158 C1159 1.355 . S
C1158 C1160 1.415 . S
C1159 C1158 1.355 . S
C1159 C1161 1.419 . S
C1160 C1158 1.415 . S
C1160 C1165 1.425 . S
C1160 C1167 1.409 . S
C1161 H1153 0.930 . S
C1161 C1159 1.419 . S
C1161 C1162 1.362 . S
C1162 H1154 0.930 . S
C1162 C1161 1.362 . S
C1162 C1165 1.409 . S
C1163 H1155 0.930 . S
C1163 C1164 1.355 . S
C1163 C1165 1.415 . S
C1164 C1163 1.355 . S
C1164 C1166 1.419 . S
C1165 C1160 1.425 . S
C1165 C1162 1.409 . S
C1165 C1163 1.415 . S
C1166 H1156 0.930 . S
C1166 C1164 1.419 . S
C1166 C1167 1.362 . S
C1167 H1157 0.930 . S
C1167 C1160 1.409 . S
C1167 C1166 1.362 . S
H1168 C1174 0.930 . S
H1169 C1177 0.930 . S
H1170 C1178 0.930 . S
H1171 C1179 0.930 . S
H1172 C1182 0.930 . S
H1173 C1183 0.930 . S
C1174 H1168 0.930 . S
C1174 C1175 1.355 . S
C1174 C1176 1.415 . S
C1175 C1174 1.355 . S
C1175 C1177 1.419 . S
C1176 C1174 1.415 . S
C1176 C1181 1.425 . S
C1176 C1183 1.409 . S
C1177 H1169 0.930 . S
C1177 C1175 1.419 . S
C1177 C1178 1.362 . S
C1178 H1170 0.930 . S
C1178 C1177 1.362 . S
C1178 C1181 1.409 . S
C1179 H1171 0.930 . S
C1179 C1180 1.355 . S
C1179 C1181 1.415 . S
C1180 C1179 1.355 . S
C1180 C1182 1.419 . S
C1181 C1176 1.425 . S
C1181 C1178 1.409 . S
C1181 C1179 1.415 . S
C1182 H1172 0.930 . S
C1182 C1180 1.419 . S
C1182 C1183 1.362 . S
C1183 H1173 0.930 . S
C1183 C1176 1.409 . S
C1183 C1182 1.362 . S
H1184 C1190 0.930 . S
H1185 C1193 0.930 . S
H1186 C1194 0.930 . S
H1187 C1195 0.930 . S
H1188 C1198 0.930 . S
H1189 C1199 0.930 . S
C1190 H1184 0.930 . S
C1190 C1191 1.355 . S
C1190 C1192 1.415 . S
C1191 C1190 1.355 . S
C1191 C1193 1.419 . S
C1192 C1190 1.415 . S
C1192 C1197 1.425 . S
C1192 C1199 1.409 . S
C1193 H1185 0.930 . S
C1193 C1191 1.419 . S
C1193 C1194 1.362 . S
C1194 H1186 0.930 . S
C1194 C1193 1.362 . S
C1194 C1197 1.409 . S
C1195 H1187 0.930 . S
C1195 C1196 1.355 . S
C1195 C1197 1.415 . S
C1196 C1195 1.355 . S
C1196 C1198 1.419 . S
C1197 C1192 1.425 . S
C1197 C1194 1.409 . S
C1197 C1195 1.415 . S
C1198 H1188 0.930 . S
C1198 C1196 1.419 . S
C1198 C1199 1.362 . S
C1199 H1189 0.930 . S
C1199 C1192 1.409 . S
C1199 C1198 1.362 . S
H1200 C1206 0.930 . S
H1201 C1209 0.930 . S
H1202 C1210 0.930 . S
H1203 C1211 0.930 . S
H1204 C1214 0.930 . S
H1205 C1215 0.930 . S
C1206 H1200 0.930 . S
C1206 C1207 1.355 . S
C1206 C1208 1.415 . S
C1207 C1206 1.355 . S
C1207 C1209 1.419 . S
C1208 C1206 1.415 . S
C1208 C1213 1.425 . S
C1208 C1215 1.409 . S
C1209 H1201 0.930 . S
C1209 C1207 1.419 . S
C1209 C1210 1.362 . S
C1210 H1202 0.930 . S
C1210 C1209 1.362 . S
C1210 C1213 1.409 . S
C1211 H1203 0.930 . S
C1211 C1212 1.355 . S
C1211 C1213 1.415 . S
C1212 C1211 1.355 . S
C1212 C1214 1.419 . S
C1213 C1208 1.425 . S
C1213 C1210 1.409 . S
C1213 C1211 1.415 . S
C1214 H1204 0.930 . S
C1214 C1212 1.419 . S
C1214 C1215 1.362 . S
C1215 H1205 0.930 . S
C1215 C1208 1.409 . S
C1215 C1214 1.362 . S
H1216 C1222 0.930 . S
H1217 C1225 0.930 . S
H1218 C1226 0.930 . S
H1219 C1227 0.930 . S
H1220 C1230 0.930 . S
H1221 C1231 0.930 . S
C1222 H1216 0.930 . S
C1222 C1223 1.355 . S
C1222 C1224 1.415 . S
C1223 C1222 1.355 . S
C1223 C1225 1.419 . S
C1224 C1222 1.415 . S
C1224 C1229 1.425 . S
C1224 C1231 1.409 . S
C1225 H1217 0.930 . S
C1225 C1223 1.419 . S
C1225 C1226 1.362 . S
C1226 H1218 0.930 . S
C1226 C1225 1.362 . S
C1226 C1229 1.409 . S
C1227 H1219 0.930 . S
C1227 C1228 1.355 . S
C1227 C1229 1.415 . S
C1228 C1227 1.355 . S
C1228 C1230 1.419 . S
C1229 C1224 1.425 . S
C1229 C1226 1.409 . S
C1229 C1227 1.415 . S
C1230 H1220 0.930 . S
C1230 C1228 1.419 . S
C1230 C1231 1.362 . S
C1231 H1221 0.930 . S
C1231 C1224 1.409 . S
C1231 C1230 1.362 . S
H1232 C1238 0.930 . S
H1233 C1241 0.930 . S
H1234 C1242 0.930 . S
H1235 C1243 0.930 . S
H1236 C1246 0.930 . S
H1237 C1247 0.930 . S
C1238 H1232 0.930 . S
C1238 C1239 1.355 . S
C1238 C1240 1.415 . S
C1239 C1238 1.355 . S
C1239 C1241 1.419 . S
C1240 C1238 1.415 . S
C1240 C1245 1.425 . S
C1240 C1247 1.409 . S
C1241 H1233 0.930 . S
C1241 C1239 1.419 . S
C1241 C1242 1.362 . S
C1242 H1234 0.930 . S
C1242 C1241 1.362 . S
C1242 C1245 1.409 . S
C1243 H1235 0.930 . S
C1243 C1244 1.355 . S
C1243 C1245 1.415 . S
C1244 C1243 1.355 . S
C1244 C1246 1.419 . S
C1245 C1240 1.425 . S
C1245 C1242 1.409 . S
C1245 C1243 1.415 . S
C1246 H1236 0.930 . S
C1246 C1244 1.419 . S
C1246 C1247 1.362 . S
C1247 H1237 0.930 . S
C1247 C1240 1.409 . S
C1247 C1246 1.362 . S
H1248 C1254 0.930 . S
H1249 C1257 0.930 . S
H1250 C1258 0.930 . S
H1251 C1259 0.930 . S
H1252 C1262 0.930 . S
H1253 C1263 0.930 . S
C1254 H1248 0.930 . S
C1254 C1255 1.355 . S
C1254 C1256 1.415 . S
C1255 C1254 1.355 . S
C1255 C1257 1.419 . S
C1256 C1254 1.415 . S
C1256 C1261 1.425 . S
C1256 C1263 1.409 . S
C1257 H1249 0.930 . S
C1257 C1255 1.419 . S
C1257 C1258 1.362 . S
C1258 H1250 0.930 . S
C1258 C1257 1.362 . S
C1258 C1261 1.409 . S
C1259 H1251 0.930 . S
C1259 C1260 1.355 . S
C1259 C1261 1.415 . S
C1260 C1259 1.355 . S
C1260 C1262 1.419 . S
C1261 C1256 1.425 . S
C1261 C1258 1.409 . S
C1261 C1259 1.415 . S
C1262 H1252 0.930 . S
C1262 C1260 1.419 . S
C1262 C1263 1.362 . S
C1263 H1253 0.930 . S
C1263 C1256 1.409 . S
C1263 C1262 1.362 . S
H1264 C1270 0.930 . S
H1265 C1273 0.930 . S
H1266 C1274 0.930 . S
H1267 C1275 0.930 . S
H1268 C1278 0.930 . S
H1269 C1279 0.930 . S
C1270 H1264 0.930 . S
C1270 C1271 1.355 . S
C1270 C1272 1.415 . S
C1271 C1270 1.355 . S
C1271 C1273 1.419 . S
C1272 C1270 1.415 . S
C1272 C1277 1.425 . S
C1272 C1279 1.409 . S
C1273 H1265 0.930 . S
C1273 C1271 1.419 . S
C1273 C1274 1.362 . S
C1274 H1266 0.930 . S
C1274 C1273 1.362 . S
C1274 C1277 1.409 . S
C1275 H1267 0.930 . S
C1275 C1276 1.355 . S
C1275 C1277 1.415 . S
C1276 C1275 1.355 . S
C1276 C1278 1.419 . S
C1277 C1272 1.425 . S
C1277 C1274 1.409 . S
C1277 C1275 1.415 . S
C1278 H1268 0.930 . S
C1278 C1276 1.419 . S
C1278 C1279 1.362 . S
C1279 H1269 0.930 . S
C1279 C1272 1.409 . S
C1279 C1278 1.362 . S
H1280 C1286 0.930 . S
H1281 C1289 0.930 . S
H1282 C1290 0.930 . S
H1283 C1291 0.930 . S
H1284 C1294 0.930 . S
H1285 C1295 0.930 . S
C1286 H1280 0.930 . S
C1286 C1287 1.355 . S
C1286 C1288 1.415 . S
C1287 C1286 1.355 . S
C1287 C1289 1.419 . S
C1288 C1286 1.415 . S
C1288 C1293 1.425 . S
C1288 C1295 1.409 . S
C1289 H1281 0.930 . S
C1289 C1287 1.419 . S
C1289 C1290 1.362 . S
C1290 H1282 0.930 . S
C1290 C1289 1.362 . S
C1290 C1293 1.409 . S
C1291 H1283 0.930 . S
C1291 C1292 1.355 . S
C1291 C1293 1.415 . S
C1292 C1291 1.355 . S
C1292 C1294 1.419 . S
C1293 C1288 1.425 . S
C1293 C1290 1.409 . S
C1293 C1291 1.415 . S
C1294 H1284 0.930 . S
C1294 C1292 1.419 . S
C1294 C1295 1.362 . S
C1295 H1285 0.930 . S
C1295 C1288 1.409 . S
C1295 C1294 1.362 . S
H1296 C1302 0.930 . S
H1297 C1305 0.930 . S
H1298 C1306 0.930 . S
H1299 C1307 0.930 . S
H1300 C1310 0.930 . S
H1301 C1311 0.930 . S
C1302 H1296 0.930 . S
C1302 C1303 1.355 . S
C1302 C1304 1.415 . S
C1303 C1302 1.355 . S
C1303 C1305 1.419 . S
C1304 C1302 1.415 . S
C1304 C1309 1.425 . S
C1304 C1311 1.409 . S
C1305 H1297 0.930 . S
C1305 C1303 1.419 . S
C1305 C1306 1.362 . S
C1306 H1298 0.930 . S
C1306 C1305 1.362 . S
C1306 C1309 1.409 . S
C1307 H1299 0.930 . S
C1307 C1308 1.355 . S
C1307 C1309 1.415 . S
C1308 C1307 1.355 . S
C1308 C1310 1.419 . S
C1309 C1304 1.425 . S
C1309 C1306 1.409 . S
C1309 C1307 1.415 . S
C1310 H1300 0.930 . S
C1310 C1308 1.419 . S
C1310 C1311 1.362 . S
C1311 H1301 0.930 . S
C1311 C1304 1.409 . S
C1311 C1310 1.362 . S
H1312 C1318 0.930 . S
H1313 C1321 0.930 . S
H1314 C1322 0.930 . S
H1315 C1323 0.930 . S
H1316 C1326 0.930 . S
H1317 C1327 0.930 . S
C1318 H1312 0.930 . S
C1318 C1319 1.355 . S
C1318 C1320 1.415 . S
C1319 C1318 1.355 . S
C1319 C1321 1.419 . S
C1320 C1318 1.415 . S
C1320 C1325 1.425 . S
C1320 C1327 1.409 . S
C1321 H1313 0.930 . S
C1321 C1319 1.419 . S
C1321 C1322 1.362 . S
C1322 H1314 0.930 . S
C1322 C1321 1.362 . S
C1322 C1325 1.409 . S
C1323 H1315 0.930 . S
C1323 C1324 1.355 . S
C1323 C1325 1.415 . S
C1324 C1323 1.355 . S
C1324 C1326 1.419 . S
C1325 C1320 1.425 . S
C1325 C1322 1.409 . S
C1325 C1323 1.415 . S
C1326 H1316 0.930 . S
C1326 C1324 1.419 . S
C1326 C1327 1.362 . S
C1327 H1317 0.930 . S
C1327 C1320 1.409 . S
C1327 C1326 1.362 . S
H1328 C1334 0.930 . S
H1329 C1337 0.930 . S
H1330 C1338 0.930 . S
H1331 C1339 0.930 . S
H1332 C1342 0.930 . S
H1333 C1343 0.930 . S
C1334 H1328 0.930 . S
C1334 C1335 1.355 . S
C1334 C1336 1.415 . S
C1335 C1334 1.355 . S
C1335 C1337 1.419 . S
C1336 C1334 1.415 . S
C1336 C1341 1.425 . S
C1336 C1343 1.409 . S
C1337 H1329 0.930 . S
C1337 C1335 1.419 . S
C1337 C1338 1.362 . S
C1338 H1330 0.930 . S
C1338 C1337 1.362 . S
C1338 C1341 1.409 . S
C1339 H1331 0.930 . S
C1339 C1340 1.355 . S
C1339 C1341 1.415 . S
C1340 C1339 1.355 . S
C1340 C1342 1.419 . S
C1341 C1336 1.425 . S
C1341 C1338 1.409 . S
C1341 C1339 1.415 . S
C1342 H1332 0.930 . S
C1342 C1340 1.419 . S
C1342 C1343 1.362 . S
C1343 H1333 0.930 . S
C1343 C1336 1.409 . S
C1343 C1342 1.362 . S
H1344 C1350 0.930 . S
H1345 C1353 0.930 . S
H1346 C1354 0.930 . S
H1347 C1355 0.930 . S
H1348 C1358 0.930 . S
H1349 C1359 0.930 . S
C1350 H1344 0.930 . S
C1350 C1351 1.355 . S
C1350 C1352 1.415 . S
C1351 C1350 1.355 . S
C1351 C1353 1.419 . S
C1352 C1350 1.415 . S
C1352 C1357 1.425 . S
C1352 C1359 1.409 . S
C1353 H1345 0.930 . S
C1353 C1351 1.419 . S
C1353 C1354 1.362 . S
C1354 H1346 0.930 . S
C1354 C1353 1.362 . S
C1354 C1357 1.409 . S
C1355 H1347 0.930 . S
C1355 C1356 1.355 . S
C1355 C1357 1.415 . S
C1356 C1355 1.355 . S
C1356 C1358 1.419 . S
C1357 C1352 1.425 . S
C1357 C1354 1.409 . S
C1357 C1355 1.415 . S
C1358 H1348 0.930 . S
C1358 C1356 1.419 . S
C1358 C1359 1.362 . S
C1359 H1349 0.930 . S
C1359 C1352 1.409 . S
C1359 C1358 1.362 . S
H1360 C1366 0.930 . S
H1361 C1369 0.930 . S
H1362 C1370 0.930 . S
H1363 C1371 0.930 . S
H1364 C1374 0.930 . S
H1365 C1375 0.930 . S
C1366 H1360 0.930 . S
C1366 C1367 1.355 . S
C1366 C1368 1.415 . S
C1367 C1366 1.355 . S
C1367 C1369 1.419 . S
C1368 C1366 1.415 . S
C1368 C1373 1.425 . S
C1368 C1375 1.409 . S
C1369 H1361 0.930 . S
C1369 C1367 1.419 . S
C1369 C1370 1.362 . S
C1370 H1362 0.930 . S
C1370 C1369 1.362 . S
C1370 C1373 1.409 . S
C1371 H1363 0.930 . S
C1371 C1372 1.355 . S
C1371 C1373 1.415 . S
C1372 C1371 1.355 . S
C1372 C1374 1.419 . S
C1373 C1368 1.425 . S
C1373 C1370 1.409 . S
C1373 C1371 1.415 . S
C1374 H1364 0.930 . S
C1374 C1372 1.419 . S
C1374 C1375 1.362 . S
C1375 H1365 0.930 . S
C1375 C1368 1.409 . S
C1375 C1374 1.362 . S
H1376 C1382 0.930 . S
H1377 C1385 0.930 . S
H1378 C1386 0.930 . S
H1379 C1387 0.930 . S
H1380 C1390 0.930 . S
H1381 C1391 0.930 . S
C1382 H1376 0.930 . S
C1382 C1383 1.355 . S
C1382 C1384 1.415 . S
C1383 C1382 1.355 . S
C1383 C1385 1.419 . S
C1384 C1382 1.415 . S
C1384 C1389 1.425 . S
C1384 C1391 1.409 . S
C1385 H1377 0.930 . S
C1385 C1383 1.419 . S
C1385 C1386 1.362 . S
C1386 H1378 0.930 . S
C1386 C1385 1.362 . S
C1386 C1389 1.409 . S
C1387 H1379 0.930 . S
C1387 C1388 1.355 . S
C1387 C1389 1.415 . S
C1388 C1387 1.355 . S
C1388 C1390 1.419 . S
C1389 C1384 1.425 . S
C1389 C1386 1.409 . S
C1389 C1387 1.415 . S
C1390 H1380 0.930 . S
C1390 C1388 1.419 . S
C1390 C1391 1.362 . S
C1391 H1381 0.930 . S
C1391 C1384 1.409 . S
C1391 C1390 1.362 . S
H1392 C1398 0.930 . S
H1393 C1401 0.930 . S
H1394 C1402 0.930 . S
H1395 C1403 0.930 . S
H1396 C1406 0.930 . S
H1397 C1407 0.930 . S
C1398 H1392 0.930 . S
C1398 C1399 1.355 . S
C1398 C1400 1.415 . S
C1399 C1398 1.355 . S
C1399 C1401 1.419 . S
C1400 C1398 1.415 . S
C1400 C1405 1.425 . S
C1400 C1407 1.409 . S
C1401 H1393 0.930 . S
C1401 C1399 1.419 . S
C1401 C1402 1.362 . S
C1402 H1394 0.930 . S
C1402 C1401 1.362 . S
C1402 C1405 1.409 . S
C1403 H1395 0.930 . S
C1403 C1404 1.355 . S
C1403 C1405 1.415 . S
C1404 C1403 1.355 . S
C1404 C1406 1.419 . S
C1405 C1400 1.425 . S
C1405 C1402 1.409 . S
C1405 C1403 1.415 . S
C1406 H1396 0.930 . S
C1406 C1404 1.419 . S
C1406 C1407 1.362 . S
C1407 H1397 0.930 . S
C1407 C1400 1.409 . S
C1407 C1406 1.362 . S
H1408 C1414 0.930 . S
H1409 C1417 0.930 . S
H1410 C1418 0.930 . S
H1411 C1419 0.930 . S
H1412 C1422 0.930 . S
H1413 C1423 0.930 . S
C1414 H1408 0.930 . S
C1414 C1415 1.355 . S
C1414 C1416 1.415 . S
C1415 C1414 1.355 . S
C1415 C1417 1.419 . S
C1416 C1414 1.415 . S
C1416 C1421 1.425 . S
C1416 C1423 1.409 . S
C1417 H1409 0.930 . S
C1417 C1415 1.419 . S
C1417 C1418 1.362 . S
C1418 H1410 0.930 . S
C1418 C1417 1.362 . S
C1418 C1421 1.409 . S
C1419 H1411 0.930 . S
C1419 C1420 1.355 . S
C1419 C1421 1.415 . S
C1420 C1419 1.355 . S
C1420 C1422 1.419 . S
C1421 C1416 1.425 . S
C1421 C1418 1.409 . S
C1421 C1419 1.415 . S
C1422 H1412 0.930 . S
C1422 C1420 1.419 . S
C1422 C1423 1.362 . S
C1423 H1413 0.930 . S
C1423 C1416 1.409 . S
C1423 C1422 1.362 . S
H1424 C1430 0.930 . S
H1425 C1433 0.930 . S
H1426 C1434 0.930 . S
H1427 C1435 0.930 . S
H1428 C1438 0.930 . S
H1429 C1439 0.930 . S
C1430 H1424 0.930 . S
C1430 C1431 1.355 . S
C1430 C1432 1.415 . S
C1431 C1430 1.355 . S
C1431 C1433 1.419 . S
C1432 C1430 1.415 . S
C1432 C1437 1.425 . S
C1432 C1439 1.409 . S
C1433 H1425 0.930 . S
C1433 C1431 1.419 . S
C1433 C1434 1.362 . S
C1434 H1426 0.930 . S
C1434 C1433 1.362 . S
C1434 C1437 1.409 . S
C1435 H1427 0.930 . S
C1435 C1436 1.355 . S
C1435 C1437 1.415 . S
C1436 C1435 1.355 . S
C1436 C1438 1.419 . S
C1437 C1432 1.425 . S
C1437 C1434 1.409 . S
C1437 C1435 1.415 . S
C1438 H1428 0.930 . S
C1438 C1436 1.419 . S
C1438 C1439 1.362 . S
C1439 H1429 0.930 . S
C1439 C1432 1.409 . S
C1439 C1438 1.362 . S
H1440 C1446 0.930 . S
H1441 C1449 0.930 . S
H1442 C1450 0.930 . S
H1443 C1451 0.930 . S
H1444 C1454 0.930 . S
H1445 C1455 0.930 . S
C1446 H1440 0.930 . S
C1446 C1447 1.355 . S
C1446 C1448 1.415 . S
C1447 C1446 1.355 . S
C1447 C1449 1.419 . S
C1448 C1446 1.415 . S
C1448 C1453 1.425 . S
C1448 C1455 1.409 . S
C1449 H1441 0.930 . S
C1449 C1447 1.419 . S
C1449 C1450 1.362 . S
C1450 H1442 0.930 . S
C1450 C1449 1.362 . S
C1450 C1453 1.409 . S
C1451 H1443 0.930 . S
C1451 C1452 1.355 . S
C1451 C1453 1.415 . S
C1452 C1451 1.355 . S
C1452 C1454 1.419 . S
C1453 C1448 1.425 . S
C1453 C1450 1.409 . S
C1453 C1451 1.415 . S
C1454 H1444 0.930 . S
C1454 C1452 1.419 . S
C1454 C1455 1.362 . S
C1455 H1445 0.930 . S
C1455 C1448 1.409 . S
C1455 C1454 1.362 . S
H1456 C1462 0.930 . S
H1457 C1465 0.930 . S
H1458 C1466 0.930 . S
H1459 C1467 0.930 . S
H1460 C1470 0.930 . S
H1461 C1471 0.930 . S
C1462 H1456 0.930 . S
C1462 C1463 1.355 . S
C1462 C1464 1.415 . S
C1463 C1462 1.355 . S
C1463 C1465 1.419 . S
C1464 C1462 1.415 . S
C1464 C1469 1.425 . S
C1464 C1471 1.409 . S
C1465 H1457 0.930 . S
C1465 C1463 1.419 . S
C1465 C1466 1.362 . S
C1466 H1458 0.930 . S
C1466 C1465 1.362 . S
C1466 C1469 1.409 . S
C1467 H1459 0.930 . S
C1467 C1468 1.355 . S
C1467 C1469 1.415 . S
C1468 C1467 1.355 . S
C1468 C1470 1.419 . S
C1469 C1464 1.425 . S
C1469 C1466 1.409 . S
C1469 C1467 1.415 . S
C1470 H1460 0.930 . S
C1470 C1468 1.419 . S
C1470 C1471 1.362 . S
C1471 H1461 0.930 . S
C1471 C1464 1.409 . S
C1471 C1470 1.362 . S
H1472 C1478 0.930 . S
H1473 C1481 0.930 . S
H1474 C1482 0.930 . S
H1475 C1483 0.930 . S
H1476 C1486 0.930 . S
H1477 C1487 0.930 . S
C1478 H1472 0.930 . S
C1478 C1479 1.355 . S
C1478 C1480 1.415 . S
C1479 C1478 1.355 . S
C1479 C1481 1.419 . S
C1480 C1478 1.415 . S
C1480 C1485 1.425 . S
C1480 C1487 1.409 . S
C1481 H1473 0.930 . S
C1481 C1479 1.419 . S
C1481 C1482 1.362 . S
C1482 H1474 0.930 . S
C1482 C1481 1.362 . S
C1482 C1485 1.409 . S
C1483 H1475 0.930 . S
C1483 C1484 1.355 . S
C1483 C1485 1.415 . S
C1484 C1483 1.355 . S
C1484 C1486 1.419 . S
C1485 C1480 1.425 . S
C1485 C1482 1.409 . S
C1485 C1483 1.415 . S
C1486 H1476 0.930 . S
C1486 C1484 1.419 . S
C1486 C1487 1.362 . S
C1487 H1477 0.930 . S
C1487 C1480 1.409 . S
C1487 C1486 1.362 . S
H1488 C1494 0.930 . S
H1489 C1497 0.930 . S
H1490 C1498 0.930 . S
H1491 C1499 0.930 . S
H1492 C1502 0.930 . S
H1493 C1503 0.930 . S
C1494 H1488 0.930 . S
C1494 C1495 1.355 . S
C1494 C1496 1.415 . S
C1495 C1494 1.355 . S
C1495 C1497 1.419 . S
C1496 C1494 1.415 . S
C1496 C1501 1.425 . S
C1496 C1503 1.409 . S
C1497 H1489 0.930 . S
C1497 C1495 1.419 . S
C1497 C1498 1.362 . S
C1498 H1490 0.930 . S
C1498 C1497 1.362 . S
C1498 C1501 1.409 . S
C1499 H1491 0.930 . S
C1499 C1500 1.355 . S
C1499 C1501 1.415 . S
C1500 C1499 1.355 . S
C1500 C1502 1.419 . S
C1501 C1496 1.425 . S
C1501 C1498 1.409 . S
C1501 C1499 1.415 . S
C1502 H1492 0.930 . S
C1502 C1500 1.419 . S
C1502 C1503 1.362 . S
C1503 H1493 0.930 . S
C1503 C1496 1.409 . S
C1503 C1502 1.362 . S
H1504 C1510 0.930 . S
H1505 C1513 0.930 . S
H1506 C1514 0.930 . S
H1507 C1515 0.930 . S
H1508 C1518 0.930 . S
H1509 C1519 0.930 . S
C1510 H1504 0.930 . S
C1510 C1511 1.355 . S
C1510 C1512 1.415 . S
C1511 C1510 1.355 . S
C1511 C1513 1.419 . S
C1512 C1510 1.415 . S
C1512 C1517 1.425 . S
C1512 C1519 1.409 . S
C1513 H1505 0.930 . S
C1513 C1511 1.419 . S
C1513 C1514 1.362 . S
C1514 H1506 0.930 . S
C1514 C1513 1.362 . S
C1514 C1517 1.409 . S
C1515 H1507 0.930 . S
C1515 C1516 1.355 . S
C1515 C1517 1.415 . S
C1516 C1515 1.355 . S
C1516 C1518 1.419 . S
C1517 C1512 1.425 . S
C1517 C1514 1.409 . S
C1517 C1515 1.415 . S
C1518 H1508 0.930 . S
C1518 C1516 1.419 . S
C1518 C1519 1.362 . S
C1519 H1509 0.930 . S
C1519 C1512 1.409 . S
C1519 C1518 1.362 . S
H1520 C1526 0.930 . S
H1521 C1529 0.930 . S
H1522 C1530 0.930 . S
H1523 C1531 0.930 . S
H1524 C1534 0.930 . S
H1525 C1535 0.930 . S
C1526 H1520 0.930 . S
C1526 C1527 1.355 . S
C1526 C1528 1.415 . S
C1527 C1526 1.355 . S
C1527 C1529 1.419 . S
C1528 C1526 1.415 . S
C1528 C1533 1.425 . S
C1528 C1535 1.409 . S
C1529 H1521 0.930 . S
C1529 C1527 1.419 . S
C1529 C1530 1.362 . S
C1530 H1522 0.930 . S
C1530 C1529 1.362 . S
C1530 C1533 1.409 . S
C1531 H1523 0.930 . S
C1531 C1532 1.355 . S
C1531 C1533 1.415 . S
C1532 C1531 1.355 . S
C1532 C1534 1.419 . S
C1533 C1528 1.425 . S
C1533 C1530 1.409 . S
C1533 C1531 1.415 . S
C1534 H1524 0.930 . S
C1534 C1532 1.419 . S
C1534 C1535 1.362 . S
C1535 H1525 0.930 . S
C1535 C1528 1.409 . S
C1535 C1534 1.362 . S
H1536 C1542 0.930 . S
H1537 C1545 0.930 . S
H1538 C1546 0.930 . S
H1539 C1547 0.930 . S
H1540 C1550 0.930 . S
H1541 C1551 0.930 . S
C1542 H1536 0.930 . S
C1542 C1543 1.355 . S
C1542 C1544 1.415 . S
C1543 C1542 1.355 . S
C1543 C1545 1.419 . S
C1544 C1542 1.415 . S
C1544 C1549 1.425 . S
C1544 C1551 1.409 . S
C1545 H1537 0.930 . S
C1545 C1543 1.419 . S
C1545 C1546 1.362 . S
C1546 H1538 0.930 . S
C1546 C1545 1.362 . S
C1546 C1549 1.409 . S
C1547 H1539 0.930 . S
C1547 C1548 1.355 . S
C1547 C1549 1.415 . S
C1548 C1547 1.355 . S
C1548 C1550 1.419 . S
C1549 C1544 1.425 . S
C1549 C1546 1.409 . S
C1549 C1547 1.415 . S
C1550 H1540 0.930 . S
C1550 C1548 1.419 . S
C1550 C1551 1.362 . S
C1551 H1541 0.930 . S
C1551 C1544 1.409 . S
C1551 C1550 1.362 . S
H1552 C1558 0.930 . S
H1553 C1561 0.930 . S
H1554 C1562 0.930 . S
H1555 C1563 0.930 . S
H1556 C1566 0.930 . S
H1557 C1567 0.930 . S
C1558 H1552 0.930 . S
C1558 C1559 1.355 . S
C1558 C1560 1.415 . S
C1559 C1558 1.355 . S
C1559 C1561 1.419 . S
C1560 C1558 1.415 . S
C1560 C1565 1.425 . S
C1560 C1567 1.409 . S
C1561 H1553 0.930 . S
C1561 C1559 1.419 . S
C1561 C1562 1.362 . S
C1562 H1554 0.930 . S
C1562 C1561 1.362 . S
C1562 C1565 1.409 . S
C1563 H1555 0.930 . S
C1563 C1564 1.355 . S
C1563 C1565 1.415 . S
C1564 C1563 1.355 . S
C1564 C1566 1.419 . S
C1565 C1560 1.425 . S
C1565 C1562 1.409 . S
C1565 C1563 1.415 . S
C1566 H1556 0.930 . S
C1566 C1564 1.419 . S
C1566 C1567 1.362 . S
C1567 H1557 0.930 . S
C1567 C1560 1.409 . S
C1567 C1566 1.362 . S
H1568 C1574 0.930 . S
H1569 C1577 0.930 . S
H1570 C1578 0.930 . S
H1571 C1579 0.930 . S
H1572 C1582 0.930 . S
H1573 C1583 0.930 . S
C1574 H1568 0.930 . S
C1574 C1575 1.355 . S
C1574 C1576 1.415 . S
C1575 C1574 1.355 . S
C1575 C1577 1.419 . S
C1576 C1574 1.415 . S
C1576 C1581 1.425 . S
C1576 C1583 1.409 . S
C1577 H1569 0.930 . S
C1577 C1575 1.419 . S
C1577 C1578 1.362 . S
C1578 H1570 0.930 . S
C1578 C1577 1.362 . S
C1578 C1581 1.409 . S
C1579 H1571 0.930 . S
C1579 C1580 1.355 . S
C1579 C1581 1.415 . S
C1580 C1579 1.355 . S
C1580 C1582 1.419 . S
C1581 C1576 1.425 . S
C1581 C1578 1.409 . S
C1581 C1579 1.415 . S
C1582 H1572 0.930 . S
C1582 C1580 1.419 . S
C1582 C1583 1.362 . S
C1583 H1573 0.930 . S
C1583 C1576 1.409 . S
C1583 C1582 1.362 . S
H1584 C1590 0.930 . S
H1585 C1593 0.930 . S
H1586 C1594 0.930 . S
H1587 C1595 0.930 . S
H1588 C1598 0.930 . S
H1589 C1599 0.930 . S
C1590 H1584 0.930 . S
C1590 C1591 1.355 . S
C1590 C1592 1.415 . S
C1591 C1590 1.355 . S
C1591 C1593 1.419 . S
C1592 C1590 1.415 . S
C1592 C1597 1.425 . S
C1592 C1599 1.409 . S
C1593 H1585 0.930 . S
C1593 C1591 1.419 . S
C1593 C1594 1.362 . S
C1594 H1586 0.930 . S
C1594 C1593 1.362 . S
C1594 C1597 1.409 . S
C1595 H1587 0.930 . S
C1595 C1596 1.355 . S
C1595 C1597 1.415 . S
C1596 C1595 1.355 . S
C1596 C1598 1.419 . S
C1597 C1592 1.425 . S
C1597 C1594 1.409 . S
C1597 C1595 1.415 . S
C1598 H1588 0.930 . S
C1598 C1596 1.419 . S
C1598 C1599 1.362 . S
C1599 H1589 0.930 . S
C1599 C1592 1.409 . S
C1599 C1598 1.362 . S
H1600 C1606 0.930 . S
H1601 C1609 0.930 . S
H1602 C1610 0.930 . S
H1603 C1611 0.959 . S
H1604 C1614 0.930 . S
H1605 C1615 0.930 . S
C1606 H1600 0.930 . S
C1606 C1607 1.355 . S
C1606 C1608 1.415 . S
C1607 C1606 1.355 . S
C1607 C1609 1.419 . S
C1608 C1606 1.415 . S
C1608 C1613 1.425 . S
C1608 C1615 1.409 . S
C1609 H1601 0.930 . S
C1609 C1607 1.419 . S
C1609 C1610 1.362 . S
C1610 H1602 0.930 . S
C1610 C1609 1.362 . S
C1610 C1613 1.409 . S
C1611 H1603 0.959 . S
C1611 C1612 1.355 . S
C1611 C1613 1.415 . S
C1612 C1611 1.355 . S
C1612 C1614 1.419 . S
C1613 C1608 1.425 . S
C1613 C1610 1.409 . S
C1613 C1611 1.415 . S
C1614 H1604 0.930 . S
C1614 C1612 1.419 . S
C1614 C1615 1.362 . S
C1615 H1605 0.930 . S
C1615 C1608 1.409 . S
C1615 C1614 1.362 . S
H1616 C1622 0.930 . S
H1617 C1625 0.930 . S
H1618 C1626 0.930 . S
H1619 C1627 0.930 . S
H1620 C1630 0.930 . S
H1621 C1631 0.930 . S
C1622 H1616 0.930 . S
C1622 C1623 1.355 . S
C1622 C1624 1.415 . S
C1623 C1622 1.355 . S
C1623 C1625 1.419 . S
C1624 C1622 1.415 . S
C1624 C1629 1.425 . S
C1624 C1631 1.409 . S
C1625 H1617 0.930 . S
C1625 C1623 1.419 . S
C1625 C1626 1.362 . S
C1626 H1618 0.930 . S
C1626 C1625 1.362 . S
C1626 C1629 1.409 . S
C1627 H1619 0.930 . S
C1627 C1628 1.355 . S
C1627 C1629 1.415 . S
C1628 C1627 1.355 . S
C1628 C1630 1.419 . S
C1629 C1624 1.425 . S
C1629 C1626 1.409 . S
C1629 C1627 1.415 . S
C1630 H1620 0.930 . S
C1630 C1628 1.419 . S
C1630 C1631 1.362 . S
C1631 H1621 0.930 . S
C1631 C1624 1.409 . S
C1631 C1630 1.362 . S
H1632 C1638 0.930 . S
H1633 C1641 0.930 . S
H1634 C1642 0.930 . S
H1635 C1643 0.930 . S
H1636 C1646 0.930 . S
H1637 C1647 0.930 . S
C1638 H1632 0.930 . S
C1638 C1639 1.355 . S
C1638 C1640 1.415 . S
C1639 C1638 1.355 . S
C1639 C1641 1.419 . S
C1640 C1638 1.415 . S
C1640 C1645 1.425 . S
C1640 C1647 1.409 . S
C1641 H1633 0.930 . S
C1641 C1639 1.419 . S
C1641 C1642 1.362 . S
C1642 H1634 0.930 . S
C1642 C1641 1.362 . S
C1642 C1645 1.409 . S
C1643 H1635 0.930 . S
C1643 C1644 1.355 . S
C1643 C1645 1.415 . S
C1644 C1643 1.355 . S
C1644 C1646 1.419 . S
C1645 C1640 1.425 . S
C1645 C1642 1.409 . S
C1645 C1643 1.415 . S
C1646 H1636 0.930 . S
C1646 C1644 1.419 . S
C1646 C1647 1.362 . S
C1647 H1637 0.930 . S
C1647 C1640 1.409 . S
C1647 C1646 1.362 . S
H1648 C1654 0.930 . S
H1649 C1657 0.930 . S
H1650 C1658 0.930 . S
H1651 C1659 0.930 . S
H1652 C1662 0.930 . S
H1653 C1663 0.930 . S
C1654 H1648 0.930 . S
C1654 C1655 1.355 . S
C1654 C1656 1.415 . S
C1655 C1654 1.355 . S
C1655 C1657 1.419 . S
C1656 C1654 1.415 . S
C1656 C1661 1.425 . S
C1656 C1663 1.409 . S
C1657 H1649 0.930 . S
C1657 C1655 1.419 . S
C1657 C1658 1.362 . S
C1658 H1650 0.930 . S
C1658 C1657 1.362 . S
C1658 C1661 1.409 . S
C1659 H1651 0.930 . S
C1659 C1660 1.355 . S
C1659 C1661 1.415 . S
C1660 C1659 1.355 . S
C1660 C1662 1.419 . S
C1661 C1656 1.425 . S
C1661 C1658 1.409 . S
C1661 C1659 1.415 . S
C1662 H1652 0.930 . S
C1662 C1660 1.419 . S
C1662 C1663 1.362 . S
C1663 H1653 0.930 . S
C1663 C1656 1.409 . S
C1663 C1662 1.362 . S
H1664 C1670 0.930 . S
H1665 C1673 0.930 . S
H1666 C1674 0.930 . S
H1667 C1675 0.930 . S
H1668 C1678 0.930 1_565 S
H1669 C1679 0.930 . S
C1670 H1664 0.930 . S
C1670 C1671 1.355 . S
C1670 C1672 1.415 . S
C1671 C1670 1.355 . S
C1671 C1673 1.419 . S
C1672 C1670 1.415 . S
C1672 C1677 1.425 . S
C1672 C1679 1.409 . S
C1673 H1665 0.930 . S
C1673 C1671 1.419 . S
C1673 C1674 1.362 . S
C1674 H1666 0.930 . S
C1674 C1673 1.362 . S
C1674 C1677 1.409 . S
C1675 H1667 0.930 . S
C1675 C1676 1.355 . S
C1675 C1677 1.415 . S
C1676 C1675 1.355 . S
C1676 C1678 1.419 . S
C1677 C1672 1.425 . S
C1677 C1674 1.409 . S
C1677 C1675 1.415 . S
C1678 H1668 0.930 1_545 S
C1678 C1676 1.419 . S
C1678 C1679 1.362 . S
C1679 H1669 0.930 . S
C1679 C1672 1.409 . S
C1679 C1678 1.362 . S
H1680 C1686 0.930 . S
H1681 C1689 0.930 . S
H1682 C1690 0.930 . S
H1683 C1691 0.930 . S
H1684 C1694 0.930 . S
H1685 C1695 0.930 . S
C1686 H1680 0.930 . S
C1686 C1687 1.355 . S
C1686 C1688 1.415 . S
C1687 C1686 1.355 . S
C1687 C1689 1.419 . S
C1688 C1686 1.415 . S
C1688 C1693 1.425 . S
C1688 C1695 1.409 . S
C1689 H1681 0.930 . S
C1689 C1687 1.419 . S
C1689 C1690 1.362 . S
C1690 H1682 0.930 . S
C1690 C1689 1.362 . S
C1690 C1693 1.409 . S
C1691 H1683 0.930 . S
C1691 C1692 1.355 . S
C1691 C1693 1.415 . S
C1692 C1691 1.355 . S
C1692 C1694 1.419 . S
C1693 C1688 1.425 . S
C1693 C1690 1.409 . S
C1693 C1691 1.415 . S
C1694 H1684 0.930 . S
C1694 C1692 1.419 . S
C1694 C1695 1.362 . S
C1695 H1685 0.930 . S
C1695 C1688 1.409 . S
C1695 C1694 1.362 . S
H1696 C1702 0.930 . S
H1697 C1705 0.930 . S
H1698 C1706 0.930 . S
H1699 C1707 0.930 . S
H1700 C1710 0.930 . S
H1701 C1711 0.930 . S
C1702 H1696 0.930 . S
C1702 C1703 1.355 . S
C1702 C1704 1.415 . S
C1703 C1702 1.355 . S
C1703 C1705 1.419 . S
C1704 C1702 1.415 . S
C1704 C1709 1.425 . S
C1704 C1711 1.409 . S
C1705 H1697 0.930 . S
C1705 C1703 1.419 . S
C1705 C1706 1.362 . S
C1706 H1698 0.930 . S
C1706 C1705 1.362 . S
C1706 C1709 1.409 . S
C1707 H1699 0.930 . S
C1707 C1708 1.355 . S
C1707 C1709 1.415 . S
C1708 C1707 1.355 . S
C1708 C1710 1.419 . S
C1709 C1704 1.425 . S
C1709 C1706 1.409 . S
C1709 C1707 1.415 . S
C1710 H1700 0.930 . S
C1710 C1708 1.419 . S
C1710 C1711 1.362 . S
C1711 H1701 0.930 . S
C1711 C1704 1.409 . S
C1711 C1710 1.362 . S
H1712 C1718 0.930 . S
H1713 C1721 0.930 . S
H1714 C1722 0.930 . S
H1715 C1723 0.930 . S
H1716 C1726 0.930 . S
H1717 C1727 0.930 . S
C1718 H1712 0.930 . S
C1718 C1719 1.355 . S
C1718 C1720 1.415 . S
C1719 C1718 1.355 . S
C1719 C1721 1.419 . S
C1720 C1718 1.415 . S
C1720 C1725 1.425 . S
C1720 C1727 1.409 . S
C1721 H1713 0.930 . S
C1721 C1719 1.419 . S
C1721 C1722 1.362 . S
C1722 H1714 0.930 . S
C1722 C1721 1.362 . S
C1722 C1725 1.409 . S
C1723 H1715 0.930 . S
C1723 C1724 1.355 . S
C1723 C1725 1.415 . S
C1724 C1723 1.355 . S
C1724 C1726 1.419 . S
C1725 C1720 1.425 . S
C1725 C1722 1.409 . S
C1725 C1723 1.415 . S
C1726 H1716 0.930 . S
C1726 C1724 1.419 . S
C1726 C1727 1.362 . S
C1727 H1717 0.930 . S
C1727 C1720 1.409 . S
C1727 C1726 1.362 . S
H1728 C1734 0.930 . S
H1729 C1737 0.930 . S
H1730 C1738 0.930 . S
H1731 C1739 0.930 . S
H1732 C1742 0.930 1_554 S
H1733 C1743 0.930 . S
C1734 H1728 0.930 . S
C1734 C1735 1.355 . S
C1734 C1736 1.415 . S
C1735 C1734 1.355 . S
C1735 C1737 1.419 . S
C1736 C1734 1.415 . S
C1736 C1741 1.425 . S
C1736 C1743 1.409 . S
C1737 H1729 0.930 . S
C1737 C1735 1.419 . S
C1737 C1738 1.362 . S
C1738 H1730 0.930 . S
C1738 C1737 1.362 . S
C1738 C1741 1.409 . S
C1739 H1731 0.930 . S
C1739 C1740 1.355 . S
C1739 C1741 1.415 . S
C1740 C1739 1.355 . S
C1740 C1742 1.419 . S
C1741 C1736 1.425 . S
C1741 C1738 1.409 . S
C1741 C1739 1.415 . S
C1742 H1732 0.930 1_556 S
C1742 C1740 1.419 . S
C1742 C1743 1.362 . S
C1743 H1733 0.930 . S
C1743 C1736 1.409 . S
C1743 C1742 1.362 . S
H1744 C1750 0.930 . S
H1745 C1753 0.930 . S
H1746 C1754 0.930 . S
H1747 C1755 0.930 . S
H1748 C1758 0.930 . S
H1749 C1759 0.930 . S
C1750 H1744 0.930 . S
C1750 C1751 1.355 . S
C1750 C1752 1.415 . S
C1751 C1750 1.355 . S
C1751 C1753 1.419 . S
C1752 C1750 1.415 . S
C1752 C1757 1.425 . S
C1752 C1759 1.409 . S
C1753 H1745 0.930 . S
C1753 C1751 1.419 . S
C1753 C1754 1.362 . S
C1754 H1746 0.930 . S
C1754 C1753 1.362 . S
C1754 C1757 1.409 . S
C1755 H1747 0.930 . S
C1755 C1756 1.355 . S
C1755 C1757 1.415 . S
C1756 C1755 1.355 . S
C1756 C1758 1.419 . S
C1757 C1752 1.425 . S
C1757 C1754 1.409 . S
C1757 C1755 1.415 . S
C1758 H1748 0.930 . S
C1758 C1756 1.419 . S
C1758 C1759 1.362 . S
C1759 H1749 0.930 . S
C1759 C1752 1.409 . S
C1759 C1758 1.362 . S
H1760 C1766 0.930 . S
H1761 C1769 0.930 1_556 S
H1762 C1770 0.930 . S
H1763 C1771 0.930 . S
H1764 C1774 0.930 . S
H1765 C1775 0.930 . S
C1766 H1760 0.930 . S
C1766 C1767 1.355 . S
C1766 C1768 1.415 . S
C1767 C1766 1.355 . S
C1767 C1769 1.419 . S
C1768 C1766 1.415 . S
C1768 C1773 1.425 . S
C1768 C1775 1.409 . S
C1769 H1761 0.930 1_554 S
C1769 C1767 1.419 . S
C1769 C1770 1.362 . S
C1770 H1762 0.930 . S
C1770 C1769 1.362 . S
C1770 C1773 1.409 . S
C1771 H1763 0.930 . S
C1771 C1772 1.355 . S
C1771 C1773 1.415 . S
C1772 C1771 1.355 . S
C1772 C1774 1.419 . S
C1773 C1768 1.425 . S
C1773 C1770 1.409 . S
C1773 C1771 1.415 . S
C1774 H1764 0.930 . S
C1774 C1772 1.419 . S
C1774 C1775 1.362 . S
C1775 H1765 0.930 . S
C1775 C1768 1.409 . S
C1775 C1774 1.362 . S
H1776 C1782 0.930 . S
H1777 C1785 0.930 . S
H1778 C1786 0.930 . S
H1779 C1787 0.930 . S
H1780 C1790 0.930 . S
H1781 C1791 0.930 . S
C1782 H1776 0.930 . S
C1782 C1783 1.355 . S
C1782 C1784 1.415 . S
C1783 C1782 1.355 . S
C1783 C1785 1.419 . S
C1784 C1782 1.415 . S
C1784 C1789 1.425 . S
C1784 C1791 1.409 . S
C1785 H1777 0.930 . S
C1785 C1783 1.419 . S
C1785 C1786 1.362 . S
C1786 H1778 0.930 . S
C1786 C1785 1.362 . S
C1786 C1789 1.409 . S
C1787 H1779 0.930 . S
C1787 C1788 1.355 . S
C1787 C1789 1.415 . S
C1788 C1787 1.355 . S
C1788 C1790 1.419 . S
C1789 C1784 1.425 . S
C1789 C1786 1.409 . S
C1789 C1787 1.415 . S
C1790 H1780 0.930 . S
C1790 C1788 1.419 . S
C1790 C1791 1.362 . S
C1791 H1781 0.930 . S
C1791 C1784 1.409 . S
C1791 C1790 1.362 . S
H1792 C1798 0.930 . S
H1793 C1801 0.930 . S
H1794 C1802 0.930 . S
H1795 C1803 0.930 . S
H1796 C1806 0.930 1_455 S
H1797 C1807 0.930 . S
C1798 H1792 0.930 . S
C1798 C1799 1.355 . S
C1798 C1800 1.415 . S
C1799 C1798 1.355 . S
C1799 C1801 1.419 . S
C1800 C1798 1.415 . S
C1800 C1805 1.425 . S
C1800 C1807 1.409 . S
C1801 H1793 0.930 . S
C1801 C1799 1.419 . S
C1801 C1802 1.362 . S
C1802 H1794 0.930 . S
C1802 C1801 1.362 . S
C1802 C1805 1.409 . S
C1803 H1795 0.930 . S
C1803 C1804 1.355 . S
C1803 C1805 1.415 . S
C1804 C1803 1.355 . S
C1804 C1806 1.419 . S
C1805 C1800 1.425 . S
C1805 C1802 1.409 . S
C1805 C1803 1.415 . S
C1806 H1796 0.930 1_655 S
C1806 C1804 1.419 . S
C1806 C1807 1.362 . S
C1807 H1797 0.930 . S
C1807 C1800 1.409 . S
C1807 C1806 1.362 . S
H1808 C1814 0.930 . S
H1809 C1817 0.930 . S
H1810 C1818 0.930 . S
H1811 C1819 0.930 . S
H1812 C1822 0.930 . S
H1813 C1823 0.930 . S
C1814 H1808 0.930 . S
C1814 C1815 1.355 . S
C1814 C1816 1.415 . S
C1815 C1814 1.355 . S
C1815 C1817 1.419 . S
C1816 C1814 1.415 . S
C1816 C1821 1.425 . S
C1816 C1823 1.409 . S
C1817 H1809 0.930 . S
C1817 C1815 1.419 . S
C1817 C1818 1.362 . S
C1818 H1810 0.930 . S
C1818 C1817 1.362 . S
C1818 C1821 1.409 . S
C1819 H1811 0.930 . S
C1819 C1820 1.355 . S
C1819 C1821 1.415 . S
C1820 C1819 1.355 . S
C1820 C1822 1.419 . S
C1821 C1816 1.425 . S
C1821 C1818 1.409 . S
C1821 C1819 1.415 . S
C1822 H1812 0.930 . S
C1822 C1820 1.419 . S
C1822 C1823 1.362 . S
C1823 H1813 0.930 . S
C1823 C1816 1.409 . S
C1823 C1822 1.362 . S
H1824 C1830 0.930 . S
H1825 C1833 0.930 . S
H1826 C1834 0.930 . S
H1827 C1835 0.930 . S
H1828 C1838 0.930 . S
H1829 C1839 0.930 . S
C1830 H1824 0.930 . S
C1830 C1831 1.355 . S
C1830 C1832 1.415 . S
C1831 C1830 1.355 . S
C1831 C1833 1.419 . S
C1832 C1830 1.415 . S
C1832 C1837 1.425 . S
C1832 C1839 1.409 . S
C1833 H1825 0.930 . S
C1833 C1831 1.419 . S
C1833 C1834 1.362 . S
C1834 H1826 0.930 . S
C1834 C1833 1.362 . S
C1834 C1837 1.409 . S
C1835 H1827 0.930 . S
C1835 C1836 1.355 . S
C1835 C1837 1.415 . S
C1836 C1835 1.355 . S
C1836 C1838 1.419 . S
C1837 C1832 1.425 . S
C1837 C1834 1.409 . S
C1837 C1835 1.415 . S
C1838 H1828 0.930 . S
C1838 C1836 1.419 . S
C1838 C1839 1.362 . S
C1839 H1829 0.930 . S
C1839 C1832 1.409 . S
C1839 C1838 1.362 . S
H1840 C1846 0.930 . S
H1841 C1849 0.930 . S
H1842 C1850 0.930 . S
H1843 C1851 0.930 . S
H1844 C1854 0.930 . S
H1845 C1855 0.930 . S
C1846 H1840 0.930 . S
C1846 C1847 1.355 . S
C1846 C1848 1.415 . S
C1847 C1846 1.355 . S
C1847 C1849 1.419 . S
C1848 C1846 1.415 . S
C1848 C1853 1.425 . S
C1848 C1855 1.409 . S
C1849 H1841 0.930 . S
C1849 C1847 1.419 . S
C1849 C1850 1.362 . S
C1850 H1842 0.930 . S
C1850 C1849 1.362 . S
C1850 C1853 1.409 . S
C1851 H1843 0.930 . S
C1851 C1852 1.355 . S
C1851 C1853 1.415 . S
C1852 C1851 1.355 . S
C1852 C1854 1.419 . S
C1853 C1848 1.425 . S
C1853 C1850 1.409 . S
C1853 C1851 1.415 . S
C1854 H1844 0.930 . S
C1854 C1852 1.419 . S
C1854 C1855 1.362 . S
C1855 H1845 0.930 . S
C1855 C1848 1.409 . S
C1855 C1854 1.362 . S
H1856 C1862 0.930 . S
H1857 C1865 0.930 . S
H1858 C1866 0.930 . S
H1859 C1867 0.930 . S
H1860 C1870 0.930 . S
H1861 C1871 0.930 . S
C1862 H1856 0.930 . S
C1862 C1863 1.355 . S
C1862 C1864 1.415 . S
C1863 C1862 1.355 . S
C1863 C1865 1.419 . S
C1864 C1862 1.415 . S
C1864 C1869 1.425 . S
C1864 C1871 1.409 . S
C1865 H1857 0.930 . S
C1865 C1863 1.419 . S
C1865 C1866 1.362 . S
C1866 H1858 0.930 . S
C1866 C1865 1.362 . S
C1866 C1869 1.409 . S
C1867 H1859 0.930 . S
C1867 C1868 1.355 . S
C1867 C1869 1.415 . S
C1868 C1867 1.355 . S
C1868 C1870 1.419 . S
C1869 C1864 1.425 . S
C1869 C1866 1.409 . S
C1869 C1867 1.415 . S
C1870 H1860 0.930 . S
C1870 C1868 1.419 . S
C1870 C1871 1.362 . S
C1871 H1861 0.930 . S
C1871 C1864 1.409 . S
C1871 C1870 1.362 . S
H1872 C1878 0.930 . S
H1873 C1881 0.930 . S
H1874 C1882 0.930 . S
H1875 C1883 0.930 . S
H1876 C1886 0.930 . S
H1877 C1887 0.930 . S
C1878 H1872 0.930 . S
C1878 C1879 1.355 . S
C1878 C1880 1.415 . S
C1879 C1878 1.355 . S
C1879 C1881 1.419 . S
C1880 C1878 1.415 . S
C1880 C1885 1.425 . S
C1880 C1887 1.409 . S
C1881 H1873 0.930 . S
C1881 C1879 1.419 . S
C1881 C1882 1.362 . S
C1882 H1874 0.930 . S
C1882 C1881 1.362 . S
C1882 C1885 1.409 . S
C1883 H1875 0.930 . S
C1883 C1884 1.355 . S
C1883 C1885 1.415 . S
C1884 C1883 1.355 . S
C1884 C1886 1.419 . S
C1885 C1880 1.425 . S
C1885 C1882 1.409 . S
C1885 C1883 1.415 . S
C1886 H1876 0.930 . S
C1886 C1884 1.419 . S
C1886 C1887 1.362 . S
C1887 H1877 0.930 . S
C1887 C1880 1.409 . S
C1887 C1886 1.362 . S
H1888 C1894 0.930 . S
H1889 C1897 0.930 . S
H1890 C1898 0.930 . S
H1891 C1899 0.930 . S
H1892 C1902 0.930 . S
H1893 C1903 0.930 . S
C1894 H1888 0.930 . S
C1894 C1895 1.355 . S
C1894 C1896 1.415 . S
C1895 C1894 1.355 . S
C1895 C1897 1.419 . S
C1896 C1894 1.415 . S
C1896 C1901 1.425 . S
C1896 C1903 1.409 . S
C1897 H1889 0.930 . S
C1897 C1895 1.419 . S
C1897 C1898 1.362 . S
C1898 H1890 0.930 . S
C1898 C1897 1.362 . S
C1898 C1901 1.409 . S
C1899 H1891 0.930 . S
C1899 C1900 1.355 . S
C1899 C1901 1.415 . S
C1900 C1899 1.355 . S
C1900 C1902 1.419 . S
C1901 C1896 1.425 . S
C1901 C1898 1.409 . S
C1901 C1899 1.415 . S
C1902 H1892 0.930 . S
C1902 C1900 1.419 . S
C1902 C1903 1.362 . S
C1903 H1893 0.930 . S
C1903 C1896 1.409 . S
C1903 C1902 1.362 . S
H1904 C1910 0.930 . S
H1905 C1913 0.930 . S
H1906 C1914 0.930 . S
H1907 C1915 0.930 . S
H1908 C1918 0.930 1_565 S
H1909 C1919 0.930 . S
C1910 H1904 0.930 . S
C1910 C1911 1.355 . S
C1910 C1912 1.415 . S
C1911 C1910 1.355 . S
C1911 C1913 1.419 . S
C1912 C1910 1.415 . S
C1912 C1917 1.425 . S
C1912 C1919 1.409 . S
C1913 H1905 0.930 . S
C1913 C1911 1.419 . S
C1913 C1914 1.362 . S
C1914 H1906 0.930 . S
C1914 C1913 1.362 . S
C1914 C1917 1.409 . S
C1915 H1907 0.930 . S
C1915 C1916 1.355 . S
C1915 C1917 1.415 . S
C1916 C1915 1.355 . S
C1916 C1918 1.419 . S
C1917 C1912 1.425 . S
C1917 C1914 1.409 . S
C1917 C1915 1.415 . S
C1918 H1908 0.930 1_545 S
C1918 C1916 1.419 . S
C1918 C1919 1.362 . S
C1919 H1909 0.930 . S
C1919 C1912 1.409 . S
C1919 C1918 1.362 . S
C775 N13 1.179 . S
C780 C580 1.307 . S
C791 C637 1.315 . S
C796 N45 1.225 . S
C807 N82 1.253 . S
C812 C541 1.319 1_545 S
C823 N114 1.142 . S
C828 C548 1.295 1_565 S
C839 C708 1.317 . S
C844 N146 1.233 . S
C855 N173 1.205 . S
C860 C676 1.312 1_556 S
C871 C765 1.318 . S
C876 N205 1.264 . S
C887 N242 1.143 . S
C892 C644 1.295 1_554 S
C903 N269 1.241 . S
C908 C420 1.318 . S
C919 N301 1.250 . S
C924 C509 1.310 1_655 S
C935 C477 1.296 . S
C940 N333 1.144 . S
C951 N370 1.155 . S
C956 C413 1.293 1_455 S
C967 N402 1.143 . S
C972 C196 1.296 . S
C983 N429 1.204 . S
C988 C253 1.312 . S
C999 N466 1.265 . S
C1004 C157 1.316 1_565 S
C1015 C164 1.300 1_545 S
C1020 N498 1.154 . S
C1031 N530 1.142 . S
C1036 C324 1.295 . S
C1047 C292 1.319 1_554 S
C1052 N557 1.252 . S
C1063 C381 1.302 . S
C1068 N589 1.217 . S
C1079 C260 1.303 1_556 S
C1084 N626 1.166 . S
C1095 C36 1.319 . S
C1100 N653 1.251 . S
C1111 C125 1.318 1_455 S
C1116 N685 1.245 . S
C1127 C93 1.300 . S
C1132 N717 1.208 . S
C1143 N754 1.262 . S
C1148 C4 1.314 1_655 S
C1159 C130 1.737 . S
C1164 C29 1.772 . S
C1175 C166 1.759 . S
C1180 C61 1.792 . S
C1191 C198 1.790 . S
C1196 C68 1.811 . S
C1207 C226 1.776 . S
C1212 C100 1.795 . S
C1223 C132 1.774 . S
C1228 C262 1.744 . S
C1239 C189 1.778 . S
C1244 C354 1.752 . S
C1255 C221 1.789 . S
C1260 C294 1.754 . S
C1271 C228 1.808 . S
C1276 C326 1.791 . S
C1287 C285 1.810 . S
C1292 C6 1.792 . S
C1303 C317 1.800 . S
C1308 C66 1.771 . S
C1319 C349 1.803 . S
C1324 C98 1.775 . S
C1335 C38 1.758 . S
C1340 C356 1.792 . S
C1351 C514 1.757 . S
C1356 C388 1.782 . S
C1367 C550 1.742 . S
C1372 C445 1.773 . S
C1383 C452 1.800 . S
C1388 C582 1.771 . S
C1399 C484 1.773 . S
C1404 C610 1.737 . S
C1415 C646 1.740 . S
C1420 C516 1.772 . S
C1431 C573 1.779 . S
C1436 C738 1.753 . S
C1447 C678 1.764 . S
C1452 C605 1.796 . S
C1463 C612 1.800 . S
C1468 C710 1.770 . S
C1479 C386 1.767 . S
C1484 C669 1.789 . S
C1495 C701 1.800 . S
C1500 C450 1.782 . S
C1511 C733 1.810 . S
C1516 C482 1.789 . S
C1527 C422 1.779 . S
C1532 C740 1.805 . S
C1543 N18 1.641 . S
C1548 C290 1.670 1_554 S
C1559 C322 1.621 . S
C1564 N50 1.586 . S
C1575 C258 1.672 1_556 S
C1580 N77 1.644 . S
C1591 C358 1.637 . S
C1596 N109 1.601 . S
C1607 N141 1.611 . S
C1612 C102 1.646 1_455 S
C1623 C70 1.616 . S
C1628 N178 1.581 . S
C1639 N210 1.658 . S
C1644 C34 1.676 . S
C1655 C2 1.626 1_655 S
C1660 N237 1.590 . S
C1671 N274 1.601 . S
C1676 C162 1.617 1_545 S
C1687 N306 1.573 . S
C1692 C230 1.602 . S
C1703 N338 1.576 . S
C1708 C194 1.610 . S
C1719 N365 1.651 . S
C1724 C134 1.676 1_565 S
C1735 N397 1.658 . S
C1740 C674 1.675 1_556 S
C1751 N434 1.576 . S
C1756 C706 1.602 . S
C1767 C642 1.621 1_554 S
C1772 N461 1.606 . S
C1783 C742 1.663 . S
C1788 N493 1.650 . S
C1799 N525 1.657 . S
C1804 C486 1.674 1_655 S
C1815 N562 1.657 . S
C1820 C454 1.674 . S
C1831 C418 1.636 . S
C1836 N594 1.600 . S
C1847 N621 1.573 . S
C1852 C390 1.602 1_455 S
C1863 N658 1.573 . S
C1868 C546 1.602 1_565 S
C1879 C614 1.602 . S
C1884 N690 1.573 . S
C1895 N722 1.648 . S
C1900 C578 1.661 . S
C1911 N749 1.624 . S
C1916 C518 1.636 1_545 S
