# Generated by pormake.
# Topology vbv, (6)-cn, num edge types: 1
# Building blocks:
#     Node 0, Type 0, BuildingBlock: IZENUY_clean_sbu_0, # of connection points: 6
#     Node 1, Type 0, BuildingBlock: IZENUY_clean_sbu_0, # of connection points: 6
#     Node 2, Type 0, BuildingBlock: IZENUY_clean_sbu_0, # of connection points: 6
#     Node 3, Type 0, BuildingBlock: IZENUY_clean_sbu_0, # of connection points: 6
#     Node 4, Type 0, BuildingBlock: IZENUY_clean_sbu_0, # of connection points: 6
#     Node 5, Type 0, BuildingBlock: IZENUY_clean_sbu_0, # of connection points: 6
#     Node 6, Type 0, BuildingBlock: IZENUY_clean_sbu_0, # of connection points: 6
#     Node 7, Type 0, BuildingBlock: IZENUY_clean_sbu_0, # of connection points: 6
#     Node 8, Type 0, BuildingBlock: IZENUY_clean_sbu_0, # of connection points: 6
#     Node 9, Type 0, BuildingBlock: IZENUY_clean_sbu_0, # of connection points: 6
#     Node 10, Type 0, BuildingBlock: IZENUY_clean_sbu_0, # of connection points: 6
#     Node 11, Type 0, BuildingBlock: IZENUY_clean_sbu_0, # of connection points: 6
#     Node 12, Type 0, BuildingBlock: IZENUY_clean_sbu_0, # of connection points: 6
#     Node 13, Type 0, BuildingBlock: IZENUY_clean_sbu_0, # of connection points: 6
#     Node 14, Type 0, BuildingBlock: IZENUY_clean_sbu_0, # of connection points: 6
#     Node 15, Type 0, BuildingBlock: IZENUY_clean_sbu_0, # of connection points: 6
#     Edge 16, Type (0, 0), BuildingBlock: XUDNAN_clean_linker_2, # of connection points: 2
#     Edge 17, Type (0, 0), BuildingBlock: XUDNAN_clean_linker_2, # of connection points: 2
#     Edge 18, Type (0, 0), BuildingBlock: XUDNAN_clean_linker_2, # of connection points: 2
#     Edge 19, Type (0, 0), BuildingBlock: XUDNAN_clean_linker_2, # of connection points: 2
#     Edge 20, Type (0, 0), BuildingBlock: XUDNAN_clean_linker_2, # of connection points: 2
#     Edge 21, Type (0, 0), BuildingBlock: XUDNAN_clean_linker_2, # of connection points: 2
#     Edge 22, Type (0, 0), BuildingBlock: XUDNAN_clean_linker_2, # of connection points: 2
#     Edge 23, Type (0, 0), BuildingBlock: XUDNAN_clean_linker_2, # of connection points: 2
#     Edge 24, Type (0, 0), BuildingBlock: XUDNAN_clean_linker_2, # of connection points: 2
#     Edge 25, Type (0, 0), BuildingBlock: XUDNAN_clean_linker_2, # of connection points: 2
#     Edge 26, Type (0, 0), BuildingBlock: XUDNAN_clean_linker_2, # of connection points: 2
#     Edge 27, Type (0, 0), BuildingBlock: XUDNAN_clean_linker_2, # of connection points: 2
#     Edge 28, Type (0, 0), BuildingBlock: XUDNAN_clean_linker_2, # of connection points: 2
#     Edge 29, Type (0, 0), BuildingBlock: XUDNAN_clean_linker_2, # of connection points: 2
#     Edge 30, Type (0, 0), BuildingBlock: XUDNAN_clean_linker_2, # of connection points: 2
#     Edge 31, Type (0, 0), BuildingBlock: XUDNAN_clean_linker_2, # of connection points: 2
#     Edge 32, Type (0, 0), BuildingBlock: XUDNAN_clean_linker_2, # of connection points: 2
#     Edge 33, Type (0, 0), BuildingBlock: XUDNAN_clean_linker_2, # of connection points: 2
#     Edge 34, Type (0, 0), BuildingBlock: XUDNAN_clean_linker_2, # of connection points: 2
#     Edge 35, Type (0, 0), BuildingBlock: XUDNAN_clean_linker_2, # of connection points: 2
#     Edge 36, Type (0, 0), BuildingBlock: XUDNAN_clean_linker_2, # of connection points: 2
#     Edge 37, Type (0, 0), BuildingBlock: XUDNAN_clean_linker_2, # of connection points: 2
#     Edge 38, Type (0, 0), BuildingBlock: XUDNAN_clean_linker_2, # of connection points: 2
#     Edge 39, Type (0, 0), BuildingBlock: XUDNAN_clean_linker_2, # of connection points: 2
#     Edge 40, Type (0, 0), BuildingBlock: XUDNAN_clean_linker_2, # of connection points: 2
#     Edge 41, Type (0, 0), BuildingBlock: XUDNAN_clean_linker_2, # of connection points: 2
#     Edge 42, Type (0, 0), BuildingBlock: XUDNAN_clean_linker_2, # of connection points: 2
#     Edge 43, Type (0, 0), BuildingBlock: XUDNAN_clean_linker_2, # of connection points: 2
#     Edge 44, Type (0, 0), BuildingBlock: XUDNAN_clean_linker_2, # of connection points: 2
#     Edge 45, Type (0, 0), BuildingBlock: XUDNAN_clean_linker_2, # of connection points: 2
#     Edge 46, Type (0, 0), BuildingBlock: XUDNAN_clean_linker_2, # of connection points: 2
#     Edge 47, Type (0, 0), BuildingBlock: XUDNAN_clean_linker_2, # of connection points: 2
#     Edge 48, Type (0, 0), BuildingBlock: XUDNAN_clean_linker_2, # of connection points: 2
#     Edge 49, Type (0, 0), BuildingBlock: XUDNAN_clean_linker_2, # of connection points: 2
#     Edge 50, Type (0, 0), BuildingBlock: XUDNAN_clean_linker_2, # of connection points: 2
#     Edge 51, Type (0, 0), BuildingBlock: XUDNAN_clean_linker_2, # of connection points: 2
#     Edge 52, Type (0, 0), BuildingBlock: XUDNAN_clean_linker_2, # of connection points: 2
#     Edge 53, Type (0, 0), BuildingBlock: XUDNAN_clean_linker_2, # of connection points: 2
#     Edge 54, Type (0, 0), BuildingBlock: XUDNAN_clean_linker_2, # of connection points: 2
#     Edge 55, Type (0, 0), BuildingBlock: XUDNAN_clean_linker_2, # of connection points: 2
#     Edge 56, Type (0, 0), BuildingBlock: XUDNAN_clean_linker_2, # of connection points: 2
#     Edge 57, Type (0, 0), BuildingBlock: XUDNAN_clean_linker_2, # of connection points: 2
#     Edge 58, Type (0, 0), BuildingBlock: XUDNAN_clean_linker_2, # of connection points: 2
#     Edge 59, Type (0, 0), BuildingBlock: XUDNAN_clean_linker_2, # of connection points: 2
#     Edge 60, Type (0, 0), BuildingBlock: XUDNAN_clean_linker_2, # of connection points: 2
#     Edge 61, Type (0, 0), BuildingBlock: XUDNAN_clean_linker_2, # of connection points: 2
#     Edge 62, Type (0, 0), BuildingBlock: XUDNAN_clean_linker_2, # of connection points: 2
#     Edge 63, Type (0, 0), BuildingBlock: XUDNAN_clean_linker_2, # of connection points: 2
# Relax obj value: 0.263
# Max RMSD: 0.241
# Mean RMSD: 0.241
data_MOF--net-vbv--node1-IZENUY_clean_sbu_0--edge1-XUDNAN_clean_linker_2
_symmetry_space_group_name_H-M    P1
_symmetry_Int_Tables_number       1
_symmetry_cell_setting            triclinic
loop_
_symmetry_equiv_pos_as_xyz
'x, y, z'
_cell_length_a     53.388907
_cell_length_b     26.647598
_cell_length_c     46.181116
_cell_angle_alpha  90.072028
_cell_angle_beta   89.982507
_cell_angle_gamma 89.981065
loop_
_atom_site_label
_atom_site_type_symbol
_atom_site_fract_x
_atom_site_fract_y
_atom_site_fract_z
_atom_type_partial_charge
Fe0 Fe 0.12748 0.40082 0.11966 0.0
Fe1 Fe 0.16374 0.31153 0.11205 0.0
O2 O 0.1399 0.35096 0.0986 0.0
Fe3 Fe 0.12798 0.34037 0.06348 0.0
O4 O 0.13961 0.40014 0.05184 0.0
O5 O 0.12237 0.44293 0.08753 0.0
O6 O 0.15797 0.43041 0.12264 0.0
C7 C 0.17837 0.40969 0.12973 0.0
C8 C 0.08496 0.36251 0.0947 0.0
O9 O 0.18 0.36222 0.13214 0.0
C10 C 0.13033 0.24454 0.08205 0.0
O11 O 0.13139 0.3685 0.15503 0.0
O12 O 0.14489 0.29332 0.14276 0.0
O13 O 0.09691 0.36608 0.07122 0.0
O14 O 0.09596 0.37277 0.11817 0.0
C15 C 0.17919 0.31722 0.05655 0.0
O16 O 0.15162 0.25416 0.09338 0.0
O17 O 0.11618 0.27974 0.07397 0.0
C18 C 0.13487 0.32242 0.16087 0.0
O19 O 0.18435 0.32707 0.08242 0.0
O20 O 0.15667 0.31239 0.04872 0.0
C21 C 0.13359 0.44154 0.06303 0.0
Fe22 Fe 0.38628 0.69819 0.06509 0.0
Fe23 Fe 0.38287 0.62288 0.11546 0.0
O24 O 0.37301 0.67925 0.0985 0.0
Fe25 Fe 0.34981 0.71646 0.1152 0.0
O26 O 0.32917 0.7083 0.08471 0.0
O27 O 0.35722 0.72613 0.05131 0.0
O28 O 0.37657 0.64074 0.04785 0.0
C29 C 0.38225 0.59706 0.0557 0.0
C30 C 0.38154 0.79056 0.08868 0.0
O31 O 0.39011 0.58903 0.08125 0.0
C32 C 0.37688 0.69102 0.16262 0.0
O33 O 0.41765 0.67379 0.07375 0.0
O34 O 0.41447 0.64769 0.1187 0.0
O35 O 0.36127 0.77699 0.10072 0.0
O36 O 0.39664 0.75804 0.07936 0.0
C37 C 0.33218 0.61723 0.12446 0.0
O38 O 0.37769 0.64642 0.15277 0.0
O39 O 0.36932 0.72647 0.14678 0.0
C40 C 0.4272 0.66741 0.09863 0.0
O41 O 0.35119 0.59595 0.1135 0.0
O42 O 0.33347 0.66299 0.13209 0.0
C43 C 0.33463 0.72177 0.05936 0.0
Fe44 Fe 0.63427 0.62558 0.4038 0.0
Fe45 Fe 0.66695 0.71405 0.42226 0.0
O46 O 0.64253 0.67164 0.42976 0.0
Fe47 Fe 0.62649 0.67515 0.46312 0.0
O48 O 0.63543 0.61173 0.47228 0.0
O49 O 0.62411 0.57832 0.43085 0.0
O50 O 0.6654 0.59756 0.40549 0.0
C51 C 0.68532 0.62171 0.40052 0.0
C52 C 0.58861 0.66061 0.42184 0.0
O53 O 0.68487 0.66938 0.3996 0.0
C54 C 0.63218 0.77488 0.45428 0.0
O55 O 0.64258 0.66505 0.37208 0.0
O56 O 0.65008 0.73893 0.39154 0.0
O57 O 0.59618 0.65576 0.44774 0.0
O58 O 0.60314 0.65185 0.40089 0.0
C59 C 0.67711 0.69315 0.47822 0.0
O60 O 0.65397 0.76663 0.44424 0.0
O61 O 0.61682 0.73921 0.45646 0.0
C62 C 0.6434 0.71267 0.37015 0.0
O63 O 0.68474 0.69082 0.45247 0.0
O64 O 0.65393 0.69589 0.48387 0.0
C65 C 0.6303 0.57374 0.45728 0.0
Fe66 Fe 0.88114 0.33213 0.46795 0.0
Fe67 Fe 0.88543 0.39179 0.41149 0.0
O68 O 0.87132 0.34258 0.43162 0.0
Fe69 Fe 0.84726 0.30439 0.4168 0.0
O70 O 0.83014 0.30094 0.45103 0.0
O71 O 0.85041 0.35056 0.48159 0.0
O72 O 0.8926 0.39501 0.47481 0.0
C73 C 0.88319 0.43505 0.46583 0.0
C74 C 0.87059 0.23389 0.45002 0.0
O75 O 0.87761 0.43869 0.43945 0.0
C76 C 0.88022 0.31858 0.36861 0.0
O77 O 0.91175 0.31277 0.45535 0.0
O78 O 0.91711 0.37777 0.42605 0.0
O79 O 0.8646 0.24597 0.42443 0.0
O80 O 0.87217 0.267 0.46925 0.0
C81 C 0.83358 0.40031 0.39791 0.0
O82 O 0.89372 0.35067 0.3814 0.0
O83 O 0.86012 0.30273 0.37992 0.0
C84 C 0.92546 0.33837 0.43857 0.0
O85 O 0.85633 0.41199 0.39373 0.0
O86 O 0.82766 0.3585 0.40875 0.0
C87 C 0.83043 0.32967 0.47295 0.0
Fe88 Fe 0.88316 0.70028 0.9641 0.0
Fe89 Fe 0.84643 0.70951 0.91335 0.0
O90 O 0.87199 0.67876 0.93016 0.0
Fe91 Fe 0.8859 0.62631 0.91291 0.0
O92 O 0.89426 0.59262 0.94681 0.0
O93 O 0.87813 0.64038 0.9807 0.0
O94 O 0.85171 0.71694 0.97773 0.0
C95 C 0.8305 0.70161 0.96901 0.0
C96 C 0.92698 0.6793 0.93185 0.0
O97 O 0.82646 0.69233 0.94274 0.0
C98 C 0.87674 0.69543 0.86685 0.0
O99 O 0.88897 0.76266 0.95048 0.0
O100 O 0.85259 0.77199 0.92971 0.0
O101 O 0.91569 0.65783 0.91132 0.0
O102 O 0.9163 0.68679 0.95602 0.0
C103 C 0.83636 0.60741 0.90242 0.0
O104 O 0.86561 0.72726 0.88259 0.0
O105 O 0.88031 0.65083 0.87593 0.0
C106 C 0.87162 0.79086 0.94209 0.0
O107 O 0.83425 0.65296 0.89484 0.0
O108 O 0.85656 0.59183 0.91338 0.0
C109 C 0.88654 0.59873 0.9726 0.0
Fe110 Fe 0.62809 0.34308 0.97049 0.0
Fe111 Fe 0.6627 0.30814 0.92168 0.0
O112 O 0.64042 0.35211 0.93489 0.0
Fe113 Fe 0.63048 0.4049 0.91433 0.0
O114 O 0.63704 0.44912 0.94392 0.0
O115 O 0.61826 0.40698 0.97729 0.0
O116 O 0.65843 0.35714 0.98592 0.0
C117 C 0.67798 0.33374 0.97833 0.0
C118 C 0.58642 0.35626 0.93738 0.0
O119 O 0.67812 0.30328 0.95711 0.0
C120 C 0.63494 0.33153 0.87064 0.0
O121 O 0.63438 0.27639 0.97277 0.0
O122 O 0.64201 0.25458 0.92841 0.0
O123 O 0.597 0.39345 0.9245 0.0
O124 O 0.59795 0.3291 0.95548 0.0
C125 C 0.68346 0.40041 0.90433 0.0
O126 O 0.65148 0.30745 0.88436 0.0
O127 O 0.62376 0.36855 0.88183 0.0
C128 C 0.63442 0.24342 0.95339 0.0
O129 O 0.68545 0.35609 0.91358 0.0
O130 O 0.66226 0.42164 0.90146 0.0
C131 C 0.62895 0.44617 0.96933 0.0
Fe132 Fe 0.38385 0.39185 0.62394 0.0
Fe133 Fe 0.3864 0.34756 0.5621 0.0
O134 O 0.37327 0.34748 0.59783 0.0
Fe135 Fe 0.34953 0.30297 0.60599 0.0
O136 O 0.32734 0.35128 0.61666 0.0
O137 O 0.35203 0.40793 0.6371 0.0
O138 O 0.37924 0.44428 0.59959 0.0
C139 C 0.38721 0.44952 0.57431 0.0
C140 C 0.37625 0.30809 0.65926 0.0
O141 O 0.39646 0.4128 0.56122 0.0
C142 C 0.37819 0.24482 0.57053 0.0
O143 O 0.41732 0.38087 0.61387 0.0
O144 O 0.41639 0.32808 0.57645 0.0
O145 O 0.35894 0.29168 0.64333 0.0
O146 O 0.38902 0.34583 0.6523 0.0
C147 C 0.33661 0.34192 0.55122 0.0
O148 O 0.37971 0.28203 0.55397 0.0
O149 O 0.36974 0.25021 0.59585 0.0
C150 C 0.42773 0.34734 0.59787 0.0
O151 O 0.35646 0.36675 0.54683 0.0
O152 O 0.33564 0.30713 0.56989 0.0
C153 C 0.33034 0.39226 0.63005 0.0
Fe154 Fe 0.13258 0.63291 0.61664 0.0
Fe155 Fe 0.13712 0.69931 0.56333 0.0
O156 O 0.14713 0.68389 0.59854 0.0
Fe157 Fe 0.17113 0.71958 0.61488 0.0
O158 O 0.18569 0.66461 0.63335 0.0
O159 O 0.16221 0.60011 0.62018 0.0
O160 O 0.12786 0.59541 0.58262 0.0
C161 C 0.13955 0.59848 0.55847 0.0
C162 C 0.14007 0.70489 0.66153 0.0
O163 O 0.14817 0.64004 0.55011 0.0
C164 C 0.14005 0.79281 0.58577 0.0
O165 O 0.10172 0.66416 0.61446 0.0
O166 O 0.10546 0.67503 0.56811 0.0
O167 O 0.15151 0.73529 0.64544 0.0
O168 O 0.1356 0.66027 0.65341 0.0
C169 C 0.18877 0.72136 0.56038 0.0
O170 O 0.12587 0.7594 0.57549 0.0
O171 O 0.16062 0.7806 0.59819 0.0
C172 C 0.0923 0.67807 0.59067 0.0
O173 O 0.16666 0.72711 0.55144 0.0
O174 O 0.19265 0.70646 0.5857 0.0
C175 C 0.18278 0.61752 0.6294 0.0
Fe176 Fe 0.62884 0.90504 0.1236 0.0
Fe177 Fe 0.66788 0.82057 0.12091 0.0
O178 O 0.64184 0.85224 0.10592 0.0
Fe179 Fe 0.62849 0.8306 0.07314 0.0
O180 O 0.63527 0.88882 0.05546 0.0
O181 O 0.61945 0.93711 0.0895 0.0
O182 O 0.65828 0.93945 0.12121 0.0
C183 C 0.67935 0.92365 0.12989 0.0
C184 C 0.58662 0.85337 0.10681 0.0
O185 O 0.68234 0.87772 0.13649 0.0
C186 C 0.63808 0.74079 0.09693 0.0
O187 O 0.6362 0.88264 0.16044 0.0
O188 O 0.65093 0.80638 0.15388 0.0
O189 O 0.59644 0.85014 0.08199 0.0
O190 O 0.59881 0.87276 0.12742 0.0
C191 C 0.68053 0.81691 0.06436 0.0
O192 O 0.65857 0.75767 0.10708 0.0
O193 O 0.62118 0.77064 0.08901 0.0
C194 C 0.64092 0.83895 0.17 0.0
O195 O 0.68636 0.83301 0.08905 0.0
O196 O 0.658 0.80697 0.05822 0.0
C197 C 0.62733 0.93086 0.06369 0.0
Fe198 Fe 0.88138 0.19607 0.06739 0.0
Fe199 Fe 0.88538 0.12999 0.12119 0.0
O200 O 0.87294 0.18381 0.10363 0.0
Fe201 Fe 0.85256 0.22453 0.12216 0.0
O202 O 0.82814 0.21645 0.09543 0.0
O203 O 0.85215 0.22726 0.05746 0.0
O204 O 0.86736 0.13773 0.056 0.0
C205 C 0.87484 0.09529 0.0643 0.0
C206 C 0.88349 0.29094 0.0886 0.0
O207 O 0.88797 0.09164 0.0873 0.0
C208 C 0.88443 0.20265 0.1664 0.0
O209 O 0.91224 0.16728 0.07142 0.0
O210 O 0.91733 0.15674 0.11773 0.0
O211 O 0.86434 0.28201 0.10421 0.0
O212 O 0.8954 0.25571 0.0766 0.0
C213 C 0.83526 0.1269 0.13575 0.0
O214 O 0.88441 0.15711 0.15832 0.0
O215 O 0.87544 0.23616 0.15034 0.0
C216 C 0.926 0.1713 0.09356 0.0
O217 O 0.85385 0.10339 0.12518 0.0
O218 O 0.83732 0.17315 0.14242 0.0
C219 C 0.83078 0.2274 0.06913 0.0
Fe220 Fe 0.16764 0.22106 0.40926 0.0
Fe221 Fe 0.1334 0.19628 0.46089 0.0
O222 O 0.14489 0.18249 0.42571 0.0
Fe223 Fe 0.13359 0.12936 0.40669 0.0
O224 O 0.1649 0.10065 0.40646 0.0
O225 O 0.18287 0.16905 0.38987 0.0
O226 O 0.18954 0.20966 0.4383 0.0
C227 C 0.18536 0.22043 0.46442 0.0
C228 C 0.13876 0.20203 0.36202 0.0
O229 O 0.16322 0.2219 0.47431 0.0
C230 C 0.0907 0.17305 0.42798 0.0
O231 O 0.15678 0.27953 0.42637 0.0
O232 O 0.12293 0.2584 0.45052 0.0
O233 O 0.13809 0.15653 0.37019 0.0
O234 O 0.1472 0.23527 0.37885 0.0
C235 C 0.13558 0.09417 0.46469 0.0
O236 O 0.10128 0.17445 0.45264 0.0
O237 O 0.10246 0.15688 0.40606 0.0
C238 C 0.13719 0.2916 0.44027 0.0
O239 O 0.14333 0.13534 0.47462 0.0
O240 O 0.12635 0.09213 0.43943 0.0
C241 C 0.18402 0.12276 0.39626 0.0
Fe242 Fe 0.3872 0.8943 0.39933 0.0
Fe243 Fe 0.34648 0.81753 0.41385 0.0
O244 O 0.37398 0.85046 0.42367 0.0
Fe245 Fe 0.38789 0.83856 0.45761 0.0
O246 O 0.38568 0.90271 0.4683 0.0
O247 O 0.39903 0.93756 0.42797 0.0
O248 O 0.35864 0.93141 0.3993 0.0
C249 C 0.33728 0.91454 0.39283 0.0
C250 C 0.42891 0.84386 0.41915 0.0
O251 O 0.33395 0.86762 0.39034 0.0
C252 C 0.37289 0.74409 0.4472 0.0
O253 O 0.37782 0.85815 0.36661 0.0
O254 O 0.36279 0.7873 0.38425 0.0
O255 O 0.42024 0.84579 0.44467 0.0
O256 O 0.4163 0.85952 0.39791 0.0
C257 C 0.33587 0.84569 0.46882 0.0
O258 O 0.3527 0.7614 0.43677 0.0
O259 O 0.39139 0.77267 0.44934 0.0
C260 C 0.37313 0.81142 0.36394 0.0
O261 O 0.32956 0.84723 0.44261 0.0
O262 O 0.35748 0.83047 0.47625 0.0
C263 C 0.39415 0.93986 0.45491 0.0
Fe264 Fe 0.35335 0.21653 0.9043 0.0
Fe265 Fe 0.38641 0.12336 0.90792 0.0
O266 O 0.37462 0.17912 0.92405 0.0
Fe267 Fe 0.38388 0.1967 0.9594 0.0
O268 O 0.35261 0.22051 0.96986 0.0
O269 O 0.32958 0.20655 0.93094 0.0
O270 O 0.33962 0.16294 0.88487 0.0
C271 C 0.33669 0.11844 0.89402 0.0
C272 C 0.38066 0.29029 0.93661 0.0
O273 O 0.35473 0.09627 0.90652 0.0
C274 C 0.4281 0.17074 0.92998 0.0
O275 O 0.37631 0.22767 0.87597 0.0
O276 O 0.38418 0.1474 0.87035 0.0
O277 O 0.39451 0.2579 0.9481 0.0
O278 O 0.36226 0.27689 0.92112 0.0
C279 C 0.38153 0.09484 0.96702 0.0
O280 O 0.41773 0.14959 0.90855 0.0
O281 O 0.41647 0.17561 0.95388 0.0
C282 C 0.38451 0.19206 0.86056 0.0
O283 O 0.39145 0.08845 0.94232 0.0
O284 O 0.37387 0.13754 0.97431 0.0
C285 C 0.33153 0.21333 0.95778 0.0
Fe286 Fe 0.12958 0.90377 0.9033 0.0
Fe287 Fe 0.13307 0.8428 0.95945 0.0
O288 O 0.14407 0.85617 0.92407 0.0
Fe289 Fe 0.16988 0.82319 0.90939 0.0
O290 O 0.18186 0.87713 0.88846 0.0
O291 O 0.15834 0.94025 0.90276 0.0
O292 O 0.11928 0.94214 0.93446 0.0
C293 C 0.12826 0.94471 0.95977 0.0
C294 C 0.14036 0.82865 0.86148 0.0
O295 O 0.13812 0.90688 0.9712 0.0
C296 C 0.14452 0.74772 0.94307 0.0
O297 O 0.1007 0.86892 0.90305 0.0
O298 O 0.09985 0.8536 0.94997 0.0
O299 O 0.15129 0.79973 0.87911 0.0
O300 O 0.13665 0.8743 0.86813 0.0
C301 C 0.18568 0.84139 0.96464 0.0
O302 O 0.12757 0.77748 0.95102 0.0
O303 O 0.16331 0.76389 0.92897 0.0
C304 C 0.08954 0.85228 0.92515 0.0
O305 O 0.16432 0.82932 0.97435 0.0
O306 O 0.18974 0.84527 0.93796 0.0
C307 C 0.17917 0.92359 0.89387 0.0
Fe308 Fe 0.88758 0.89026 0.62334 0.0
Fe309 Fe 0.87749 0.82664 0.5692 0.0
O310 O 0.87015 0.84314 0.60523 0.0
Fe311 Fe 0.84509 0.8128 0.62299 0.0
O312 O 0.83582 0.86835 0.64466 0.0
O313 O 0.85958 0.92873 0.62768 0.0
O314 O 0.89404 0.92751 0.58996 0.0
C315 C 0.88314 0.92711 0.56541 0.0
C316 C 0.87909 0.81631 0.66671 0.0
O317 O 0.87158 0.889 0.55677 0.0
C318 C 0.86721 0.73415 0.58896 0.0
O319 O 0.91665 0.85396 0.61961 0.0
O320 O 0.91112 0.83851 0.57328 0.0
O321 O 0.86584 0.78898 0.65056 0.0
O322 O 0.88393 0.86152 0.65983 0.0
C323 C 0.82467 0.82668 0.57005 0.0
O324 O 0.88383 0.76279 0.57919 0.0
O325 O 0.84906 0.75186 0.60363 0.0
C326 C 0.92494 0.83816 0.59559 0.0
O327 O 0.84502 0.81197 0.55878 0.0
O328 O 0.82327 0.83555 0.59666 0.0
C329 C 0.83903 0.91438 0.63848 0.0
Fe330 Fe 0.634 0.12765 0.63254 0.0
Fe331 Fe 0.62906 0.17857 0.57339 0.0
O332 O 0.64334 0.17473 0.60778 0.0
Fe333 Fe 0.66664 0.2181 0.61782 0.0
O334 O 0.68391 0.17229 0.64034 0.0
O335 O 0.66553 0.09983 0.63205 0.0
O336 O 0.62485 0.08166 0.60423 0.0
C337 C 0.6324 0.07714 0.57825 0.0
C338 C 0.64106 0.21232 0.66864 0.0
O339 O 0.63896 0.11532 0.56413 0.0
C340 C 0.63266 0.27817 0.5844 0.0
O341 O 0.6026 0.15485 0.63389 0.0
O342 O 0.59804 0.15799 0.58669 0.0
O343 O 0.64787 0.24027 0.64807 0.0
O344 O 0.64105 0.16495 0.66552 0.0
C345 C 0.68038 0.20175 0.56225 0.0
O346 O 0.61829 0.24154 0.58024 0.0
O347 O 0.65395 0.27129 0.59608 0.0
C348 C 0.58922 0.16491 0.61197 0.0
O349 O 0.65749 0.20165 0.55473 0.0
O350 O 0.68646 0.19822 0.58845 0.0
C351 C 0.6852 0.12473 0.63775 0.0
H352 H 0.16311 0.16751 0.06888 0.0
H353 H 0.08445 0.20871 0.06704 0.0
H354 H 0.07536 0.13518 0.03648 0.0
H355 H 0.16781 0.12973 0.9976 0.0
H356 H 0.18817 0.07673 1.00345 0.0
H357 H 0.1886 0.12876 0.02833 0.0
H358 H 0.1791 0.0694 0.07125 0.0
H359 H 0.17927 0.01677 0.04669 0.0
H360 H 0.15241 0.0281 0.06943 0.0
H361 H 0.07575 0.06609 0.99986 0.0
H362 H 0.08441 0.99546 0.96641 0.0
H363 H 0.16193 0.99397 0.99432 0.0
C364 C 0.14384 0.15992 0.06302 0.0
C365 C 0.12449 0.19392 0.07045 0.0
C366 C 0.09959 0.18326 0.06166 0.0
C367 C 0.09424 0.14166 0.04416 0.0
C368 C 0.11389 0.11043 0.03593 0.0
C369 C 0.13809 0.1181 0.04566 0.0
C370 C 0.15584 0.07964 0.03267 0.0
C371 C 0.1763 0.10525 1.01443 0.0
C372 C 0.16733 0.0465 0.05643 0.0
C373 C 0.1379 0.04997 1.01372 0.0
C374 C 0.11385 0.06881 1.01569 0.0
C375 C 0.09439 0.05024 0.9986 0.0
C376 C 0.09949 1.01053 0.97949 0.0
C377 C 0.12372 0.98929 0.97803 0.0
C378 C 0.14315 1.0093 0.99536 0.0
H379 H 0.40231 0.9984 0.96544 0.0
H380 H 0.35747 0.09812 0.01898 0.0
H381 H 0.35556 0.03395 0.05693 0.0
H382 H 0.3696 0.88453 0.98548 0.0
H383 H 0.39739 0.84611 0.98558 0.0
H384 H 0.3957 0.90036 0.96244 0.0
H385 H 0.43657 0.93444 0.98553 0.0
H386 H 0.43811 0.88058 1.00904 0.0
H387 H 0.43817 0.94291 0.02423 0.0
H388 H 0.35691 0.95865 0.08892 0.0
H389 H 0.36039 0.87509 0.11176 0.0
H390 H 0.40523 0.82346 0.03922 0.0
C391 C 0.39211 1.00669 0.98513 0.0
C392 C 0.38018 0.0538 0.98905 0.0
C393 C 0.36695 0.06277 1.01526 0.0
C394 C 0.36575 0.02646 0.03713 0.0
C395 C 0.37789 0.98091 0.03279 0.0
C396 C 0.39074 0.97064 1.00746 0.0
C397 C 0.40156 0.91783 1.00832 0.0
C398 C 0.39039 0.88529 0.98401 0.0
C399 C 0.43032 0.91903 1.00668 0.0
C400 C 0.39269 0.90033 0.03797 0.0
C401 C 0.37907 0.93742 0.05168 0.0
C402 C 0.36779 0.92944 0.07855 0.0
C403 C 0.36995 0.88192 0.09145 0.0
C404 C 0.38347 0.84291 0.07768 0.0
C405 C 0.39538 0.85282 0.05079 0.0
H406 H 0.66437 0.03036 0.5399 0.0
H407 H 0.59135 0.01681 0.58021 0.0
H408 H 0.58252 0.94172 0.55034 0.0
H409 H 0.64818 0.98977 0.46857 0.0
H410 H 0.67615 0.95317 0.46284 0.0
H411 H 0.67682 1.00648 0.48686 0.0
H412 H 0.69326 0.95021 0.52845 0.0
H413 H 0.69292 0.89681 0.50449 0.0
H414 H 0.67607 0.89457 0.53826 0.0
H415 H 0.58062 0.87126 0.51422 0.0
H416 H 0.58813 0.80131 0.48049 0.0
H417 H 0.66393 0.85501 0.46597 0.0
C418 C 0.6466 1.01128 0.54248 0.0
C419 C 0.62845 0.02943 0.56228 0.0
C420 C 0.60553 1.00333 0.56532 0.0
C421 C 0.60029 0.96091 0.54827 0.0
C422 C 0.6184 0.9443 0.52868 0.0
C423 C 0.64136 0.96783 0.52621 0.0
C424 C 0.65805 0.94029 0.50471 0.0
C425 C 0.66522 0.97448 0.47923 0.0
C426 C 0.68146 0.91923 0.51988 0.0
C427 C 0.64066 0.89834 0.495 0.0
C428 C 0.6178 0.90184 0.50891 0.0
C429 C 0.59855 0.86787 0.50344 0.0
C430 C 0.603 0.82827 0.48405 0.0
C431 C 0.62667 0.82221 0.47046 0.0
C432 C 0.64557 0.85853 0.47572 0.0
H433 H 0.87798 0.02851 0.57438 0.0
H434 H 0.89362 0.91707 0.50838 0.0
H435 H 0.8922 0.98258 0.47062 0.0
H436 H 0.83353 0.09636 0.53327 0.0
H437 H 0.84281 0.15693 0.54698 0.0
H438 H 0.84729 0.10176 0.56879 0.0
H439 H 0.89466 0.12292 0.57344 0.0
H440 H 0.89001 0.17816 0.55166 0.0
H441 H 0.91303 0.13215 0.54111 0.0
H442 H 0.88671 0.06103 0.43932 0.0
H443 H 0.87984 0.14627 0.41861 0.0
H444 H 0.86589 0.20275 0.5054 0.0
C445 C 0.88178 0.01833 0.55209 0.0
C446 C 0.88621 0.96807 0.54427 0.0
C447 C 0.89035 0.95567 0.51475 0.0
C448 C 0.88951 0.99252 0.49314 0.0
C449 C 0.88428 0.04164 0.50133 0.0
C450 C 0.88062 0.0546 0.53013 0.0
C451 C 0.87413 0.10949 0.53308 0.0
C452 C 0.84788 0.1165 0.5463 0.0
C453 C 0.89416 0.13731 0.55087 0.0
C454 C 0.87468 0.12514 0.5016 0.0
C455 C 0.8806 0.08584 0.48344 0.0
C456 C 0.88214 0.09224 0.45337 0.0
C457 C 0.87805 0.14053 0.44172 0.0
C458 C 0.87252 0.18132 0.46025 0.0
C459 C 0.8704 0.17273 0.49045 0.0
H460 H 0.90197 1.00633 0.05868 0.0
H461 H 0.83755 0.08646 0.02477 0.0
H462 H 0.83097 0.01985 0.98863 0.0
H463 H 0.92498 0.96274 0.98996 0.0
H464 H 0.93469 0.90206 1.00302 0.0
H465 H 0.93418 0.95509 0.02725 0.0
H466 H 0.90503 0.90674 0.06237 0.0
H467 H 0.90579 0.85336 0.03842 0.0
H468 H 0.87619 0.8804 0.0489 0.0
H469 H 0.83122 0.94506 0.9556 0.0
H470 H 0.83729 0.86469 0.92975 0.0
H471 H 0.90217 0.83344 0.98351 0.0
C472 C 0.88633 1.00949 0.04387 0.0
C473 C 0.87032 0.05186 0.04462 0.0
C474 C 0.8502 0.05465 0.0246 0.0
C475 C 0.84628 0.01697 1.0039 0.0
C476 C 0.86268 0.97642 1.0032 0.0
C477 C 0.88223 0.97215 0.02272 0.0
C478 C 0.89712 0.92456 0.01698 0.0
C479 C 0.92436 0.93687 1.00882 0.0
C480 C 0.89595 0.88917 0.04323 0.0
C481 C 0.88288 0.90305 0.99129 0.0
C482 C 0.86307 0.93357 0.98372 0.0
C483 C 0.84677 0.92091 0.96124 0.0
C484 C 0.85044 0.87526 0.94654 0.0
C485 C 0.87033 0.84271 0.95423 0.0
C486 C 0.88699 0.85761 0.97663 0.0
H487 H 0.62015 0.21177 1.00678 0.0
H488 H 0.63947 0.15616 0.92119 0.0
H489 H 0.63635 0.06895 0.93962 0.0
H490 H 0.65676 0.127 0.04519 0.0
H491 H 0.63526 0.12075 0.07507 0.0
H492 H 0.63591 0.17783 0.05432 0.0
H493 H 0.58846 0.16903 0.04357 0.0
H494 H 0.58756 0.11201 0.06449 0.0
H495 H 0.5768 0.11196 0.02749 0.0
H496 H 0.6347 0.98889 0.96875 0.0
H497 H 0.63453 0.92203 1.00535 0.0
H498 H 0.61724 0.03144 0.07224 0.0
C499 C 0.62335 0.18143 0.99161 0.0
C500 C 0.63005 0.19085 0.96244 0.0
C501 C 0.63421 0.14986 0.94354 0.0
C502 C 0.63249 0.1003 0.95385 0.0
C503 C 0.62652 0.09266 0.983 0.0
C504 C 0.62193 0.1322 1.00153 0.0
C505 C 0.61765 0.11462 0.03232 0.0
C506 C 0.63758 0.13633 0.05292 0.0
C507 C 0.59103 0.12768 0.04256 0.0
C508 C 0.62088 0.0587 0.02845 0.0
C509 C 0.62581 0.04679 0.99981 0.0
C510 C 0.63061 0.99779 0.99113 0.0
C511 C 0.63054 0.96008 1.01222 0.0
C512 C 0.62578 0.9714 0.0418 0.0
C513 C 0.62065 0.02144 0.04985 0.0
H514 H 0.3834 0.03974 0.44433 0.0
H515 H 0.41652 0.93862 0.50706 0.0
H516 H 0.41719 1.00625 0.54339 0.0
H517 H 0.41778 0.15518 0.46996 0.0
H518 H 0.39098 0.1948 0.46356 0.0
H519 H 0.39613 0.1402 0.44126 0.0
H520 H 0.35161 0.10806 0.45415 0.0
H521 H 0.34665 0.16244 0.47654 0.0
H522 H 0.34306 0.10053 0.49168 0.0
H523 H 0.40853 0.08032 0.57518 0.0
H524 H 0.39692 0.16147 0.59801 0.0
H525 H 0.37097 0.2157 0.51471 0.0
C526 C 0.39172 0.03265 0.46532 0.0
C527 C 0.4001 0.98418 0.47285 0.0
C528 C 0.41013 0.97569 0.50086 0.0
C529 C 0.4105 1.01376 0.52171 0.0
C530 C 0.40097 0.06047 0.51422 0.0
C531 C 0.39229 0.07057 0.48654 0.0
C532 C 0.38208 0.12354 0.48475 0.0
C533 C 0.39768 0.15531 0.46363 0.0
C534 C 0.3542 0.12358 0.47629 0.0
C535 C 0.38573 0.14074 0.5158 0.0
C536 C 0.39657 0.10379 0.5325 0.0
C537 C 0.40044 0.11002 0.56223 0.0
C538 C 0.39361 0.15587 0.5751 0.0
C539 C 0.3833 0.19478 0.55811 0.0
C540 C 0.37919 0.18677 0.52816 0.0
H541 H 0.17337 0.87063 0.57333 0.0
H542 H 0.0944 0.8319 0.5742 0.0
H543 H 0.08485 0.90702 0.54549 0.0
H544 H 0.1617 1.01271 0.57663 0.0
H545 H 0.18827 0.02528 0.55367 0.0
H546 H 0.18871 0.97214 0.5778 0.0
H547 H 0.19856 0.91523 0.53457 0.0
H548 H 0.19698 0.9667 0.50949 0.0
H549 H 0.17734 0.91242 0.50417 0.0
H550 H 0.08442 0.9757 0.50934 0.0
H551 H 0.09218 0.04492 0.47493 0.0
H552 H 0.17045 0.04716 0.49984 0.0
C553 C 0.15398 0.87925 0.5686 0.0
C554 C 0.13463 0.84515 0.57618 0.0
C555 C 0.10956 0.85725 0.56876 0.0
C556 C 0.10391 0.89986 0.55231 0.0
C557 C 0.12342 0.93115 0.54382 0.0
C558 C 0.14786 0.9226 0.55245 0.0
C559 C 0.1652 0.96204 0.5394 0.0
C560 C 0.17665 0.99501 0.5633 0.0
C561 C 0.18572 0.9376 0.52076 0.0
C562 C 0.14688 0.99195 0.52093 0.0
C563 C 0.12289 0.97325 0.52389 0.0
C564 C 0.103 0.99155 0.50739 0.0
C565 C 0.10761 0.03055 0.48772 0.0
C566 C 0.1318 0.05158 0.48491 0.0
C567 C 0.15169 0.03217 0.50189 0.0
H568 H 0.62334 0.54928 0.96483 0.0
H569 H 0.6447 0.43062 0.02406 0.0
H570 H 0.65062 0.49264 0.06306 0.0
H571 H 0.66496 0.64712 0.99423 0.0
H572 H 0.64199 0.69609 0.98987 0.0
H573 H 0.64203 0.64298 0.96568 0.0
H574 H 0.59557 0.62548 0.9787 0.0
H575 H 0.59552 0.67819 1.00313 0.0
H576 H 0.5869 0.61682 0.0161 0.0
H577 H 0.65443 0.56799 0.09605 0.0
H578 H 0.65274 0.65083 0.12087 0.0
H579 H 0.62467 0.71833 0.04191 0.0
C580 C 0.62967 0.5367 0.98588 0.0
C581 C 0.63384 0.48529 0.99137 0.0
C582 C 0.64152 0.46993 0.01938 0.0
C583 C 0.64499 0.50486 0.0417 0.0
C584 C 0.6403 0.55517 0.03589 0.0
C585 C 0.63263 0.57112 1.00875 0.0
C586 C 0.6272 0.62693 1.00893 0.0
C587 C 0.64511 0.65492 0.98846 0.0
C588 C 0.59966 0.63745 1.00126 0.0
C589 C 0.63266 0.63941 0.04036 0.0
C590 C 0.64072 0.59781 0.05545 0.0
C591 C 0.64786 0.60081 0.08455 0.0
C592 C 0.64678 0.64774 0.09852 0.0
C593 C 0.63792 0.69041 0.08358 0.0
C594 C 0.63077 0.68591 0.05417 0.0
H595 H 0.90204 0.32005 0.03596 0.0
H596 H 0.87313 0.37853 0.11708 0.0
H597 H 0.8743 0.46439 0.09686 0.0
H598 H 0.94235 0.42846 0.01637 0.0
H599 H 0.93437 0.42388 0.97853 0.0
H600 H 0.93486 0.36829 1.00074 0.0
H601 H 0.88912 0.34905 0.98573 0.0
H602 H 0.8883 0.40484 0.96382 0.0
H603 H 0.86518 0.39562 0.99177 0.0
H604 H 0.87498 0.54159 0.06702 0.0
H605 H 0.87463 0.6067 0.02972 0.0
H606 H 0.90146 0.49885 0.96614 0.0
C607 C 0.89675 0.35113 0.04981 0.0
C608 C 0.88793 0.34281 0.07836 0.0
C609 C 0.88025 0.3842 0.09536 0.0
C610 C 0.88084 0.43302 0.08403 0.0
C611 C 0.88896 0.43972 0.05556 0.0
C612 C 0.8968 0.4 0.03864 0.0
C613 C 0.90235 0.41692 1.00786 0.0
C614 C 0.93014 0.40892 1.00044 0.0
C615 C 0.88521 0.39001 0.98602 0.0
C616 C 0.89604 0.47234 1.01 0.0
C617 C 0.88862 0.4845 0.03785 0.0
C618 C 0.88097 0.53263 0.04522 0.0
C619 C 0.88079 0.56941 0.02367 0.0
C620 C 0.88808 0.55823 0.99476 0.0
C621 C 0.89596 0.50886 0.98796 0.0
H622 H 0.11761 0.50315 0.5616 0.0
H623 H 0.16379 0.5982 0.50677 0.0
H624 H 0.16427 0.53328 0.46939 0.0
H625 H 0.14903 0.38739 0.54236 0.0
H626 H 0.12091 0.35001 0.54282 0.0
H627 H 0.1232 0.40491 0.56543 0.0
H628 H 0.0825 0.43968 0.54229 0.0
H629 H 0.08039 0.38516 0.51927 0.0
H630 H 0.08078 0.44702 0.50354 0.0
H631 H 0.16103 0.45927 0.43785 0.0
H632 H 0.15724 0.37536 0.41578 0.0
H633 H 0.11346 0.32552 0.4896 0.0
C634 C 0.12779 0.51021 0.54174 0.0
C635 C 0.1404 0.55635 0.53724 0.0
C636 C 0.1537 0.56369 0.51091 0.0
C637 C 0.15408 0.527 0.48932 0.0
C638 C 0.14118 0.48261 0.49413 0.0
C639 C 0.1285 0.47353 0.51971 0.0
C640 C 0.11725 0.42112 0.51943 0.0
C641 C 0.12826 0.38896 0.54396 0.0
C642 C 0.08852 0.42341 0.52124 0.0
C643 C 0.12581 0.40252 0.48987 0.0
C644 C 0.13939 0.43896 0.47563 0.0
C645 C 0.15028 0.4304 0.44865 0.0
C646 C 0.14795 0.38268 0.43621 0.0
C647 C 0.13484 0.34401 0.45071 0.0
C648 C 0.12311 0.35459 0.47761 0.0
H649 H 0.39014 0.46934 0.51583 0.0
H650 H 0.37799 0.54041 0.59939 0.0
H651 H 0.37128 0.62151 0.57505 0.0
H652 H 0.42282 0.57227 0.48194 0.0
H653 H 0.40829 0.56353 0.44707 0.0
H654 H 0.41248 0.51074 0.47091 0.0
H655 H 0.36495 0.4919 0.46809 0.0
H656 H 0.36057 0.54491 0.44442 0.0
H657 H 0.34279 0.54033 0.4775 0.0
H658 H 0.36814 0.69444 0.54298 0.0
H659 H 0.36772 0.75701 0.50448 0.0
H660 H 0.37813 0.64078 0.43985 0.0
C661 C 0.38635 0.50212 0.529 0.0
C662 C 0.38488 0.49864 0.5596 0.0
C663 C 0.37938 0.54217 0.57601 0.0
C664 C 0.37547 0.58837 0.56237 0.0
C665 C 0.37682 0.59039 0.53227 0.0
C666 C 0.38206 0.54862 0.51567 0.0
C667 C 0.38212 0.56159 0.48358 0.0
C668 C 0.40797 0.55143 0.47009 0.0
C669 C 0.36137 0.53297 0.46745 0.0
C670 C 0.37649 0.61744 0.48485 0.0
C671 C 0.37354 0.63282 0.51328 0.0
C672 C 0.36976 0.68272 0.52061 0.0
C673 C 0.36915 0.71807 0.49841 0.0
C674 C 0.37155 0.70369 0.46902 0.0
C675 C 0.37533 0.65256 0.46207 0.0
H676 H 0.40397 0.32435 0.98584 0.0
H677 H 0.35964 0.37456 0.9126 0.0
H678 H 0.35691 0.45916 0.93448 0.0
H679 H 0.36893 0.38755 0.03868 0.0
H680 H 0.39517 0.40306 0.06155 0.0
H681 H 0.39644 0.34829 0.03873 0.0
H682 H 0.43728 0.38066 1.01491 0.0
H683 H 0.43639 0.43525 0.03797 0.0
H684 H 0.4379 0.44254 0.99921 0.0
H685 H 0.35658 0.53609 0.96567 0.0
H686 H 0.35896 0.60113 1.00331 0.0
H687 H 0.40217 0.5005 0.05786 0.0
C688 C 0.39426 0.35345 0.97394 0.0
C689 C 0.3823 0.34291 0.94719 0.0
C690 C 0.36917 0.38181 0.93288 0.0
C691 C 0.36748 0.42993 0.94521 0.0
C692 C 0.37886 0.43853 0.97197 0.0
C693 C 0.39208 0.40145 0.98614 0.0
C694 C 0.4011 0.41948 1.01559 0.0
C695 C 0.38973 0.3877 0.04008 0.0
C696 C 0.42987 0.41949 0.01699 0.0
C697 C 0.39071 0.4725 1.0159 0.0
C698 C 0.37811 0.48266 0.9904 0.0
C699 C 0.36655 0.52866 0.98561 0.0
C700 C 0.36803 0.56542 1.00725 0.0
C701 C 0.38086 0.55625 0.03366 0.0
C702 C 0.39224 0.50884 0.038 0.0
H703 H 0.10628 0.53088 0.05656 0.0
H704 H 0.17429 0.45455 0.02969 0.0
H705 H 0.18344 0.52244 0.99537 0.0
H706 H 0.08913 0.57558 0.9863 0.0
H707 H 0.07784 0.63588 0.99831 0.0
H708 H 0.07675 0.58278 0.0224 0.0
H709 H 0.10236 0.63193 0.0607 0.0
H710 H 0.10314 0.68539 0.03687 0.0
H711 H 0.13195 0.65937 0.05059 0.0
H712 H 0.18482 0.59558 0.96223 0.0
H713 H 0.18004 0.67463 0.93511 0.0
H714 H 0.11123 0.70568 0.98213 0.0
C715 C 0.1233 0.52912 0.04384 0.0
C716 C 0.13955 0.48722 0.04584 0.0
C717 C 0.16147 0.48602 0.02846 0.0
C718 C 0.16686 0.52441 1.00881 0.0
C719 C 0.15019 0.56425 1.00655 0.0
C720 C 0.12899 0.56744 0.02374 0.0
C721 C 0.11423 0.61461 0.0164 0.0
C722 C 0.08793 0.6014 1.00518 0.0
C723 C 0.11285 0.64992 0.04271 0.0
C724 C 0.13039 0.63681 0.99243 0.0
C725 C 0.151 0.60695 0.98713 0.0
C726 C 0.16877 0.61943 0.9662 0.0
C727 C 0.1658 0.66436 0.95072 0.0
C728 C 0.14523 0.69658 0.9562 0.0
C729 C 0.12709 0.68188 0.9771 0.0
H730 H 0.87212 0.7122 0.53198 0.0
H731 H 0.85803 0.64347 0.61542 0.0
H732 H 0.85833 0.55937 0.59201 0.0
H733 H 0.83276 0.62387 0.48988 0.0
H734 H 0.85352 0.62589 0.45913 0.0
H735 H 0.85057 0.67984 0.48248 0.0
H736 H 0.89868 0.67928 0.49042 0.0
H737 H 0.90166 0.62495 0.46749 0.0
H738 H 0.91357 0.62331 0.50399 0.0
H739 H 0.86474 0.48365 0.56029 0.0
H740 H 0.87312 0.42074 0.52257 0.0
H741 H 0.8804 0.53878 0.45843 0.0
C742 C 0.86895 0.67936 0.54529 0.0
C743 C 0.86539 0.6839 0.57557 0.0
C744 C 0.86085 0.6405 0.59226 0.0
C745 C 0.86101 0.5928 0.57911 0.0
C746 C 0.86509 0.5896 0.54922 0.0
C747 C 0.8685 0.63183 0.53244 0.0
C748 C 0.87265 0.61828 0.50083 0.0
C749 C 0.85109 0.63815 0.48197 0.0
C750 C 0.89816 0.6376 0.49007 0.0
C751 C 0.87219 0.56148 0.50252 0.0
C752 C 0.86771 0.5459 0.53067 0.0
C753 C 0.8679 0.49544 0.53817 0.0
C754 C 0.87285 0.46001 0.51652 0.0
C755 C 0.87744 0.47476 0.48746 0.0
C756 C 0.87673 0.52631 0.48033 0.0
H757 H 0.6628 0.5295 0.49523 0.0
H758 H 0.59013 0.51091 0.45479 0.0
H759 H 0.58186 0.43725 0.48605 0.0
H760 H 0.67589 0.39466 0.49987 0.0
H761 H 0.69249 0.4001 0.53373 0.0
H762 H 0.69246 0.45164 0.50853 0.0
H763 H 0.67515 0.51022 0.54858 0.0
H764 H 0.67476 0.4588 0.57387 0.0
H765 H 0.64651 0.49383 0.56695 0.0
H766 H 0.58022 0.37049 0.52416 0.0
H767 H 0.58818 0.30312 0.55923 0.0
H768 H 0.66379 0.35909 0.57232 0.0
C769 C 0.6453 0.50938 0.49279 0.0
C770 C 0.62703 0.52564 0.47267 0.0
C771 C 0.60439 0.4986 0.46988 0.0
C772 C 0.59947 0.45713 0.48774 0.0
C773 C 0.61762 0.44269 0.50784 0.0
C774 C 0.64038 0.46703 0.50989 0.0
C775 C 0.65718 0.44198 0.53217 0.0
C776 C 0.68091 0.42083 0.51772 0.0
C777 C 0.66378 0.4784 0.55685 0.0
C778 C 0.64012 0.40022 0.54271 0.0
C779 C 0.61725 0.40205 0.52869 0.0
C780 C 0.59817 0.36825 0.53496 0.0
C781 C 0.6029 0.33018 0.55511 0.0
C782 C 0.62672 0.32532 0.56853 0.0
C783 C 0.64535 0.36179 0.56269 0.0
H784 H 0.14697 0.29158 0.3329 0.0
H785 H 0.1172 0.14124 0.32133 0.0
H786 H 0.10949 0.15933 0.26979 0.0
H787 H 0.10398 0.35487 0.28185 0.0
H788 H 0.12785 0.39681 0.26863 0.0
H789 H 0.12923 0.3739 0.30532 0.0
H790 H 0.17395 0.33981 0.29609 0.0
H791 H 0.17273 0.36264 0.25945 0.0
H792 H 0.17928 0.29736 0.26629 0.0
H793 H 0.10838 0.19017 0.2189 0.0
H794 H 0.11386 0.23211 0.17172 0.0
H795 H 0.14324 0.36392 0.21508 0.0
C796 C 0.13846 0.2627 0.31964 0.0
C797 C 0.13268 0.21485 0.33136 0.0
C798 C 0.12185 0.17808 0.31304 0.0
C799 C 0.1173 0.18807 0.28368 0.0
C800 C 0.12354 0.23518 0.27276 0.0
C801 C 0.13379 0.27205 0.29013 0.0
C802 C 0.13995 0.31862 0.27245 0.0
C803 C 0.12432 0.36372 0.28268 0.0
C804 C 0.16815 0.33027 0.27364 0.0
C805 C 0.13204 0.30171 0.24234 0.0
C806 C 0.1225 0.25347 0.24317 0.0
C807 C 0.11546 0.22818 0.21804 0.0
C808 C 0.11866 0.2523 0.19133 0.0
C809 C 0.12861 0.30148 0.18976 0.0
C810 C 0.13497 0.32684 0.2157 0.0
H811 H 0.37618 0.78162 0.19157 0.0
H812 H 0.38589 0.62154 0.20514 0.0
H813 H 0.38848 0.63592 0.25782 0.0
H814 H 0.41843 0.82255 0.25014 0.0
H815 H 0.3989 0.87523 0.2597 0.0
H816 H 0.39961 0.85284 0.22286 0.0
H817 H 0.3514 0.84206 0.22381 0.0
H818 H 0.35054 0.86416 0.26064 0.0
H819 H 0.33726 0.80397 0.2516 0.0
H820 H 0.386 0.66642 0.30914 0.0
H821 H 0.38094 0.71152 0.3555 0.0
H822 H 0.3744 0.85238 0.30907 0.0
C823 C 0.3792 0.7496 0.20555 0.0
C824 C 0.38078 0.70034 0.19408 0.0
C825 C 0.38466 0.6596 0.21326 0.0
C826 C 0.38615 0.66739 0.24328 0.0
C827 C 0.38401 0.71621 0.25386 0.0
C828 C 0.3809 0.75673 0.23559 0.0
C829 C 0.37833 0.80522 0.25265 0.0
C830 C 0.40012 0.84107 0.24594 0.0
C831 C 0.35287 0.83031 0.24682 0.0
C832 C 0.37992 0.78548 0.28339 0.0
C833 C 0.38321 0.73401 0.28356 0.0
C834 C 0.38376 0.70678 0.30928 0.0
C835 C 0.38076 0.73272 0.3355 0.0
C836 C 0.37742 0.78547 0.33593 0.0
C837 C 0.37731 0.81216 0.30947 0.0
H838 H 0.64791 0.74877 0.19816 0.0
H839 H 0.62574 0.90361 0.21276 0.0
H840 H 0.62185 0.88647 0.26503 0.0
H841 H 0.60643 0.69352 0.25282 0.0
H842 H 0.629 0.64668 0.26337 0.0
H843 H 0.62881 0.67027 0.22682 0.0
H844 H 0.67553 0.69505 0.23174 0.0
H845 H 0.67586 0.67165 0.26829 0.0
H846 H 0.68508 0.73548 0.26106 0.0
H847 H 0.62337 0.85463 0.31593 0.0
H848 H 0.62869 0.80936 0.36207 0.0
H849 H 0.64852 0.6741 0.31488 0.0
C850 C 0.64201 0.77901 0.21228 0.0
C851 C 0.63719 0.82767 0.20123 0.0
C852 C 0.62953 0.86607 0.22057 0.0
C853 C 0.62725 0.85669 0.25035 0.0
C854 C 0.63245 0.80859 0.26051 0.0
C855 C 0.63948 0.77024 0.24208 0.0
C856 C 0.64458 0.72223 0.25876 0.0
C857 C 0.6261 0.68072 0.24991 0.0
C858 C 0.67189 0.70512 0.25472 0.0
C859 C 0.63978 0.73987 0.28951 0.0
C860 C 0.63279 0.78983 0.28996 0.0
C861 C 0.62856 0.81538 0.31583 0.0
C862 C 0.63173 0.78936 0.34193 0.0
C863 C 0.63891 0.73815 0.34209 0.0
C864 C 0.64267 0.71301 0.31545 0.0
H865 H 0.86059 0.17629 0.21669 0.0
H866 H 0.92213 0.26461 0.18315 0.0
H867 H 0.93002 0.29874 0.23227 0.0
H868 H 0.83705 0.27087 0.26218 0.0
H869 H 0.82738 0.22962 0.29099 0.0
H870 H 0.82881 0.20666 0.25436 0.0
H871 H 0.85858 0.1352 0.27045 0.0
H872 H 0.85711 0.15777 0.30722 0.0
H873 H 0.88702 0.15042 0.28959 0.0
H874 H 0.92941 0.32744 0.28453 0.0
H875 H 0.91946 0.35115 0.33492 0.0
H876 H 0.85667 0.24761 0.33426 0.0
C877 C 0.87622 0.20155 0.22 0.0
C878 C 0.89128 0.21681 0.1964 0.0
C879 C 0.9108 0.25171 0.20114 0.0
C880 C 0.91536 0.27131 0.22894 0.0
C881 C 0.89995 0.25625 0.25176 0.0
C882 C 0.88071 0.22223 0.24759 0.0
C883 C 0.86546 0.21581 0.27514 0.0
C884 C 0.83806 0.2317 0.27037 0.0
C885 C 0.86715 0.16157 0.28626 0.0
C886 C 0.87891 0.2519 0.29534 0.0
C887 C 0.89894 0.27435 0.28154 0.0
C888 C 0.91383 0.30987 0.29556 0.0
C889 C 0.908 0.32315 0.32428 0.0
C890 C 0.88723 0.30147 0.3388 0.0
C891 C 0.87271 0.26496 0.32399 0.0
H892 H 0.87162 0.85776 0.72069 0.0
H893 H 0.901 0.72665 0.6767 0.0
H894 H 0.90735 0.68464 0.7238 0.0
H895 H 0.91128 0.84894 0.7874 0.0
H896 H 0.88585 0.86771 0.81071 0.0
H897 H 0.88735 0.89067 0.77404 0.0
H898 H 0.84271 0.85642 0.76455 0.0
H899 H 0.84115 0.83301 0.80103 0.0
H900 H 0.83621 0.79098 0.77096 0.0
H901 H 0.90684 0.65371 0.77477 0.0
H902 H 0.89893 0.63508 0.82621 0.0
H903 H 0.86811 0.78463 0.83786 0.0
C904 C 0.88021 0.82094 0.72119 0.0
C905 C 0.88638 0.79572 0.69519 0.0
C906 C 0.89655 0.74673 0.69646 0.0
C907 C 0.90021 0.72263 0.72309 0.0
C908 C 0.89334 0.74779 0.74835 0.0
C909 C 0.88357 0.79589 0.74771 0.0
C910 C 0.87545 0.81233 0.7778 0.0
C911 C 0.89091 0.8576 0.78809 0.0
C912 C 0.84721 0.82385 0.77862 0.0
C913 C 0.88166 0.76564 0.79523 0.0
C914 C 0.89228 0.72919 0.77785 0.0
C915 C 0.89874 0.68214 0.78867 0.0
C916 C 0.89409 0.67186 0.81798 0.0
C917 C 0.88284 0.70823 0.83625 0.0
C918 C 0.87683 0.75598 0.82461 0.0
H919 H 0.64942 0.2463 0.84081 0.0
H920 H 0.60982 0.38741 0.83012 0.0
H921 H 0.60544 0.37026 0.77785 0.0
H922 H 0.68388 0.25049 0.77584 0.0
H923 H 0.6814 0.1844 0.76799 0.0
H924 H 0.68015 0.20601 0.80491 0.0
H925 H 0.63743 0.16166 0.81192 0.0
H926 H 0.6386 0.13962 0.77503 0.0
H927 H 0.61201 0.17534 0.78747 0.0
H928 H 0.6093 0.34219 0.72589 0.0
H929 H 0.61769 0.30139 0.67873 0.0
H930 H 0.65223 0.17578 0.72298 0.0
C931 C 0.63951 0.27332 0.82757 0.0
C932 C 0.63 0.31835 0.83975 0.0
C933 C 0.61719 0.35259 0.82151 0.0
C934 C 0.61466 0.34323 0.7917 0.0
C935 C 0.62468 0.29905 0.78036 0.0
C936 C 0.6365 0.26423 0.79779 0.0
C937 C 0.64589 0.22001 0.78003 0.0
C938 C 0.67453 0.21496 0.78233 0.0
C939 C 0.63269 0.17127 0.78916 0.0
C940 C 0.63802 0.23594 0.74981 0.0
C941 C 0.62592 0.28181 0.7505 0.0
C942 C 0.61837 0.30589 0.72516 0.0
C943 C 0.6233 0.28255 0.69847 0.0
C944 C 0.63534 0.23524 0.69721 0.0
C945 C 0.64256 0.2115 0.72331 0.0
H946 H 0.38379 0.35005 0.71294 0.0
H947 H 0.3792 0.2075 0.66798 0.0
H948 H 0.38547 0.16274 0.71432 0.0
H949 H 0.42948 0.31319 0.76903 0.0
H950 H 0.41377 0.34805 0.79715 0.0
H951 H 0.41216 0.36917 0.76013 0.0
H952 H 0.36369 0.36804 0.76258 0.0
H953 H 0.36515 0.34707 0.79957 0.0
H954 H 0.34785 0.3112 0.77319 0.0
H955 H 0.39063 0.13341 0.76547 0.0
H956 H 0.38968 0.12077 0.81827 0.0
H957 H 0.38781 0.28222 0.83114 0.0
C958 C 0.38465 0.30944 0.71289 0.0
C959 C 0.38141 0.28207 0.68691 0.0
C960 C 0.38181 0.229 0.68767 0.0
C961 C 0.38548 0.20334 0.71385 0.0
C962 C 0.38834 0.23128 0.73918 0.0
C963 C 0.38768 0.28315 0.73902 0.0
C964 C 0.38867 0.30389 0.76966 0.0
C965 C 0.41244 0.33544 0.77425 0.0
C966 C 0.36493 0.33433 0.77665 0.0
C967 C 0.38968 0.2556 0.78704 0.0
C968 C 0.38999 0.21424 0.76896 0.0
C969 C 0.39044 0.16552 0.77984 0.0
C970 C 0.38996 0.15875 0.80996 0.0
C971 C 0.3886 0.20043 0.82903 0.0
C972 C 0.3889 0.24952 0.81725 0.0
H973 H 0.15608 0.74261 0.83237 0.0
H974 H 0.11086 0.877 0.82241 0.0
H975 H 0.10256 0.8545 0.77169 0.0
H976 H 0.18487 0.74795 0.76386 0.0
H977 H 0.18476 0.68123 0.75735 0.0
H978 H 0.18532 0.70478 0.79389 0.0
H979 H 0.14545 0.65349 0.80583 0.0
H980 H 0.14475 0.6298 0.76925 0.0
H981 H 0.11776 0.66146 0.78398 0.0
H982 H 0.10257 0.82351 0.72108 0.0
H983 H 0.11057 0.78439 0.67342 0.0
H984 H 0.15435 0.66781 0.71476 0.0
C985 C 0.14408 0.76679 0.81965 0.0
C986 C 0.13418 0.81173 0.83154 0.0
C987 C 0.11881 0.84257 0.81394 0.0
C988 C 0.11385 0.83 0.78504 0.0
C989 C 0.12422 0.78615 0.77384 0.0
C990 C 0.1389 0.75475 0.79053 0.0
C991 C 0.14884 0.71133 0.77242 0.0
C992 C 0.17765 0.71136 0.77185 0.0
C993 C 0.13858 0.66103 0.78354 0.0
C994 C 0.138 0.72413 0.74287 0.0
C995 C 0.12371 0.76734 0.74436 0.0
C996 C 0.11328 0.7891 0.71971 0.0
C997 C 0.11788 0.76667 0.69276 0.0
C998 C 0.13252 0.72261 0.69059 0.0
C999 C 0.1424 0.7006 0.71602 0.0
H1000 H 0.22797 0.39635 0.11348 0.0
H1001 H 0.17805 0.49885 0.15819 0.0
H1002 H 0.21269 0.55926 0.16393 0.0
H1003 H 0.28574 0.42672 0.15457 0.0
H1004 H 0.30562 0.42368 0.12305 0.0
H1005 H 0.27774 0.38567 0.12491 0.0
H1006 H 0.26207 0.4237 0.07678 0.0
H1007 H 0.29002 0.46136 0.07461 0.0
H1008 H 0.25965 0.49087 0.07318 0.0
H1009 H 0.25129 0.61052 0.16278 0.0
H1010 H 0.29161 0.65168 0.15414 0.0
H1011 H 0.31811 0.51945 0.1082 0.0
C1012 C 0.22461 0.43096 0.12517 0.0
C1013 C 0.20034 0.44248 0.13594 0.0
C1014 C 0.19645 0.48897 0.1501 0.0
C1015 C 0.21605 0.52354 0.15345 0.0
C1016 C 0.23956 0.51163 0.14221 0.0
C1017 C 0.24403 0.4666 0.12828 0.0
C1018 C 0.27073 0.46527 0.11643 0.0
C1019 C 0.28585 0.4228 0.1306 0.0
C1020 C 0.27061 0.46002 0.08327 0.0
C1021 C 0.28043 0.51668 0.12578 0.0
C1022 C 0.26203 0.54232 0.14081 0.0
C1023 C 0.26589 0.59071 0.1512 0.0
C1024 C 0.28903 0.61386 0.14608 0.0
C1025 C 0.30839 0.5891 0.13054 0.0
C1026 C 0.30393 0.53945 0.12038 0.0
H1027 H 0.69623 0.52141 0.40947 0.0
H1028 H 0.72898 0.66075 0.37898 0.0
H1029 H 0.76943 0.61776 0.37176 0.0
H1030 H 0.7493 0.48033 0.44944 0.0
H1031 H 0.74527 0.41503 0.44039 0.0
H1032 H 0.71852 0.45605 0.44147 0.0
H1033 H 0.70776 0.43003 0.38879 0.0
H1034 H 0.73474 0.38937 0.3879 0.0
H1035 H 0.73099 0.43734 0.36076 0.0
H1036 H 0.80704 0.56068 0.36991 0.0
H1037 H 0.83919 0.49486 0.3752 0.0
H1038 H 0.78254 0.39226 0.40753 0.0
C1039 C 0.71178 0.54272 0.40083 0.0
C1040 C 0.70923 0.59454 0.39456 0.0
C1041 C 0.7303 0.62109 0.38384 0.0
C1042 C 0.75341 0.59693 0.37959 0.0
C1043 C 0.75534 0.54604 0.38619 0.0
C1044 C 0.73511 0.51921 0.39661 0.0
C1045 C 0.74257 0.46546 0.40335 0.0
C1046 C 0.73867 0.45361 0.43561 0.0
C1047 C 0.72816 0.42836 0.38404 0.0
C1048 C 0.77023 0.46649 0.39557 0.0
C1049 C 0.77713 0.51323 0.38543 0.0
C1050 C 0.8018 0.52383 0.37764 0.0
C1051 C 0.81997 0.48603 0.38069 0.0
C1052 C 0.81355 0.43798 0.39161 0.0
C1053 C 0.78817 0.42822 0.3988 0.0
H1054 H 0.78532 0.6239 0.90608 0.0
H1055 H 0.84062 0.50871 0.88808 0.0
H1056 H 0.80685 0.44631 0.88228 0.0
H1057 H 0.74639 0.54602 0.94942 0.0
H1058 H 0.71713 0.57268 0.93746 0.0
H1059 H 0.7452 0.61012 0.93706 0.0
H1060 H 0.73888 0.62845 0.88263 0.0
H1061 H 0.71071 0.59116 0.88272 0.0
H1062 H 0.73555 0.57697 0.85756 0.0
H1063 H 0.7681 0.39562 0.88062 0.0
H1064 H 0.7266 0.35721 0.88623 0.0
H1065 H 0.69483 0.50277 0.90731 0.0
C1066 C 0.7902 0.58573 0.90029 0.0
C1067 C 0.81564 0.57129 0.89703 0.0
C1068 C 0.82134 0.52068 0.89043 0.0
C1069 C 0.80225 0.48501 0.88701 0.0
C1070 C 0.77745 0.5002 0.89061 0.0
C1071 C 0.77128 0.54919 0.89732 0.0
C1072 C 0.74315 0.55422 0.9023 0.0
C1073 C 0.73765 0.57178 0.93341 0.0
C1074 C 0.73138 0.58982 0.87997 0.0
C1075 C 0.73456 0.50033 0.89748 0.0
C1076 C 0.75477 0.47019 0.89047 0.0
C1077 C 0.75212 0.41887 0.88594 0.0
C1078 C 0.72837 0.39739 0.8892 0.0
C1079 C 0.70728 0.42683 0.89705 0.0
C1080 C 0.71041 0.47934 0.90076 0.0
H1081 H 0.23481 0.62811 0.62418 0.0
H1082 H 0.17697 0.52225 0.64906 0.0
H1083 H 0.2089 0.45661 0.65557 0.0
H1084 H 0.27063 0.54091 0.58278 0.0
H1085 H 0.30089 0.56501 0.59307 0.0
H1086 H 0.27403 0.60592 0.59292 0.0
H1087 H 0.28225 0.62875 0.64652 0.0
H1088 H 0.30918 0.58789 0.64682 0.0
H1089 H 0.28457 0.57949 0.67312 0.0
H1090 H 0.24586 0.39991 0.65552 0.0
H1091 H 0.28604 0.35552 0.64934 0.0
H1092 H 0.32185 0.49531 0.62506 0.0
C1093 C 0.229 0.59146 0.63172 0.0
C1094 C 0.2032 0.58076 0.63647 0.0
C1095 C 0.19645 0.53172 0.64543 0.0
C1096 C 0.21452 0.49403 0.64922 0.0
C1097 C 0.23959 0.50532 0.64388 0.0
C1098 C 0.24698 0.55278 0.63538 0.0
C1099 C 0.27516 0.55342 0.62943 0.0
C1100 C 0.28048 0.56713 0.59767 0.0
C1101 C 0.28858 0.58954 0.65022 0.0
C1102 C 0.28225 0.49892 0.63572 0.0
C1103 C 0.26131 0.47212 0.64406 0.0
C1104 C 0.26246 0.42068 0.64943 0.0
C1105 C 0.28543 0.39571 0.6459 0.0
C1106 C 0.30731 0.42184 0.63734 0.0
C1107 C 0.30568 0.47447 0.6325 0.0
H1108 H 0.82173 0.02684 0.12545 0.0
H1109 H 0.79162 0.17016 0.15388 0.0
H1110 H 0.74948 0.13344 0.15604 0.0
H1111 H 0.76974 0.99155 0.0807 0.0
H1112 H 0.77039 0.92599 0.09022 0.0
H1113 H 0.79877 0.96249 0.09147 0.0
H1114 H 0.8053 0.9375 0.14508 0.0
H1115 H 0.77701 0.90067 0.14389 0.0
H1116 H 0.78064 0.94893 0.17095 0.0
H1117 H 0.70983 0.08393 0.15186 0.0
H1118 H 0.67576 0.02219 0.1456 0.0
H1119 H 0.73038 0.90817 0.12291 0.0
C1120 C 0.80635 0.05029 0.13256 0.0
C1121 C 0.81034 0.10164 0.13968 0.0
C1122 C 0.78943 0.13083 0.14853 0.0
C1123 C 0.76524 0.11032 0.14973 0.0
C1124 C 0.76192 0.0601 0.1423 0.0
C1125 C 0.78188 0.03013 0.13421 0.0
C1126 C 0.77283 0.97714 0.12731 0.0
C1127 C 0.77826 0.96351 0.09554 0.0
C1128 C 0.78465 0.93879 0.14805 0.0
C1129 C 0.74475 0.9823 0.13269 0.0
C1130 C 0.73893 0.03073 0.14101 0.0
C1131 C 0.71421 0.0457 0.14576 0.0
C1132 C 0.69493 1.01035 0.14209 0.0
C1133 C 0.70031 0.96011 0.1342 0.0
C1134 C 0.72567 0.94601 0.12956 0.0
H1135 H 0.19678 0.02241 0.40709 0.0
H1136 H 0.22657 0.16251 0.37342 0.0
H1137 H 0.26763 0.12314 0.36698 0.0
H1138 H 0.2517 0.98573 0.44651 0.0
H1139 H 0.24909 0.91998 0.43782 0.0
H1140 H 0.22142 0.95855 0.43919 0.0
H1141 H 0.21057 0.93098 0.38678 0.0
H1142 H 0.23849 0.89295 0.38551 0.0
H1143 H 0.23322 0.94025 0.35832 0.0
H1144 H 0.3064 0.07229 0.36736 0.0
H1145 H 0.3404 1.01017 0.37237 0.0
H1146 H 0.28682 0.90018 0.40331 0.0
C1147 C 0.21185 0.04455 0.39801 0.0
C1148 C 0.20813 0.09577 0.3907 0.0
C1149 C 0.2286 0.12332 0.37915 0.0
C1150 C 0.25217 0.10129 0.37538 0.0
C1151 C 0.25529 0.05125 0.383 0.0
C1152 C 0.23575 0.02288 0.39385 0.0
C1153 C 0.24467 0.96986 0.4006 0.0
C1154 C 0.24152 0.95788 0.43297 0.0
C1155 C 0.23092 0.93122 0.38167 0.0
C1156 C 0.27224 0.97347 0.3923 0.0
C1157 C 0.27785 0.02094 0.38227 0.0
C1158 C 0.3022 0.03471 0.37477 0.0
C1159 C 0.32142 0.99919 0.37771 0.0
C1160 C 0.31626 0.95009 0.38773 0.0
C1161 C 0.29124 0.93703 0.39488 0.0
H1162 H 0.22974 0.90403 0.89852 0.0
H1163 H 0.17657 0.02319 0.88059 0.0
H1164 H 0.21142 0.08363 0.87657 0.0
H1165 H 0.2693 0.97691 0.94358 0.0
H1166 H 0.29842 0.94964 0.93154 0.0
H1167 H 0.27 0.91341 0.93004 0.0
H1168 H 0.27604 0.89712 0.8756 0.0
H1169 H 0.30488 0.93223 0.87654 0.0
H1170 H 0.28054 0.94935 0.85138 0.0
H1171 H 0.25122 0.13129 0.87522 0.0
H1172 H 0.29359 0.16574 0.87921 0.0
H1173 H 0.32234 0.01795 0.90105 0.0
C1174 C 0.22553 0.94268 0.89317 0.0
C1175 C 0.2004 0.95878 0.88938 0.0
C1176 C 0.1956 1.00993 0.88332 0.0
C1177 C 0.2153 0.04452 0.88097 0.0
C1178 C 0.23976 0.02763 0.88509 0.0
C1179 C 0.24503 0.97805 0.89123 0.0
C1180 C 0.27299 0.97077 0.8964 0.0
C1181 C 0.27797 0.9516 0.92724 0.0
C1182 C 0.28428 0.93526 0.87361 0.0
C1183 C 0.28253 0.02413 0.89243 0.0
C1184 C 0.26295 0.05591 0.88551 0.0
C1185 C 0.2667 0.10677 0.88055 0.0
C1186 C 0.29101 0.12592 0.88278 0.0
C1187 C 0.31157 0.09467 0.89028 0.0
C1188 C 0.30716 0.04288 0.89519 0.0
H1189 H 0.78746 0.89934 0.63875 0.0
H1190 H 0.84404 1.01523 0.64736 0.0
H1191 H 0.81088 0.07948 0.65045 0.0
H1192 H 0.74725 0.96917 0.59292 0.0
H1193 H 0.71807 0.94753 0.6081 0.0
H1194 H 0.74543 0.90822 0.60973 0.0
H1195 H 0.74211 0.90113 0.66504 0.0
H1196 H 0.71412 0.93894 0.66414 0.0
H1197 H 0.74009 0.95729 0.68672 0.0
H1198 H 0.77205 0.13197 0.65097 0.0
H1199 H 0.73028 0.17003 0.64739 0.0
H1200 H 0.69734 0.02218 0.63642 0.0
C1201 C 0.79283 0.93813 0.64197 0.0
C1202 C 0.81854 0.95196 0.64335 0.0
C1203 C 0.82465 1.00342 0.64657 0.0
C1204 C 0.80587 0.0403 0.64833 0.0
C1205 C 0.78083 0.0256 0.64654 0.0
C1206 C 0.77419 0.9758 0.64335 0.0
C1207 C 0.7458 0.97089 0.64039 0.0
C1208 C 0.73873 0.94761 0.61102 0.0
C1209 C 0.73489 0.94024 0.66558 0.0
C1210 C 0.73762 0.02567 0.64219 0.0
C1211 C 0.75823 0.05633 0.64603 0.0
C1212 C 0.75579 0.10825 0.64811 0.0
C1213 C 0.7318 0.12957 0.64609 0.0
C1214 C 0.71016 0.09944 0.64181 0.0
C1215 C 0.71329 0.0465 0.63992 0.0
H1216 H 0.31963 0.27733 1.00245 0.0
H1217 H 0.29047 0.15727 0.94855 0.0
H1218 H 0.24829 0.17101 0.96846 0.0
H1219 H 0.27794 0.25494 0.06599 0.0
H1220 H 0.27438 0.32116 0.07293 0.0
H1221 H 0.30291 0.29774 0.05703 0.0
H1222 H 0.2972 0.35989 1.01461 0.0
H1223 H 0.26806 0.38222 0.02943 0.0
H1224 H 0.26902 0.35752 0.99315 0.0
H1225 H 0.20916 0.20298 0.98917 0.0
H1226 H 0.17487 0.24483 1.01545 0.0
H1227 H 0.22863 0.3439 0.05695 0.0
C1228 C 0.30447 0.25299 0.99569 0.0
C1229 C 0.3081 0.21625 0.97412 0.0
C1230 C 0.28786 0.18572 0.96507 0.0
C1231 C 0.26389 0.19322 0.9762 0.0
C1232 C 0.26057 0.23126 0.99641 0.0
C1233 C 0.28026 0.26012 1.00656 0.0
C1234 C 0.27105 0.30031 0.02721 0.0
C1235 C 0.28223 0.29307 0.0576 0.0
C1236 C 0.27667 0.35309 1.01539 0.0
C1237 C 0.24321 0.28943 0.02684 0.0
C1238 C 0.23764 0.24974 1.0087 0.0
C1239 C 0.21321 0.23379 1.00373 0.0
C1240 C 0.19386 0.25816 0.01845 0.0
C1241 C 0.19921 0.29758 0.03805 0.0
C1242 C 0.22415 0.31375 0.04206 0.0
H1243 H 0.28487 0.69943 0.05953 0.0
H1244 H 0.34011 0.79979 0.022 0.0
H1245 H 0.30629 0.84952 0.99977 0.0
H1246 H 0.24416 0.69821 0.9979 0.0
H1247 H 0.21599 0.6952 0.01935 0.0
H1248 H 0.24471 0.66937 0.0332 0.0
H1249 H 0.24016 0.72531 0.07893 0.0
H1250 H 0.21177 0.75238 0.06472 0.0
H1251 H 0.23752 0.7924 0.07492 0.0
H1252 H 0.26738 0.88767 0.98184 0.0
H1253 H 0.22574 0.90262 0.96034 0.0
H1254 H 0.19547 0.77755 1.00912 0.0
C1255 C 0.28976 0.73167 0.04642 0.0
C1256 C 0.31494 0.74588 0.04235 0.0
C1257 C 0.32086 0.78801 0.02501 0.0
C1258 C 0.30181 0.81693 1.01274 0.0
C1259 C 0.27712 0.80287 0.01795 0.0
C1260 C 0.27103 0.76062 0.03375 0.0
C1261 C 0.24307 0.75161 0.03413 0.0
C1262 C 0.23661 0.7006 0.02031 0.0
C1263 C 0.23252 0.75569 0.06502 0.0
C1264 C 0.23446 0.79495 1.01554 0.0
C1265 C 0.2544 0.82466 1.00706 0.0
C1266 C 0.25155 0.86495 0.98829 0.0
C1267 C 0.22791 0.87328 0.97638 0.0
C1268 C 0.20764 0.84133 0.98339 0.0
C1269 C 0.21063 0.80314 1.00412 0.0
H1270 H 0.72641 0.66921 0.48068 0.0
H1271 H 0.66868 0.75861 0.52233 0.0
H1272 H 0.70113 0.80658 0.54828 0.0
H1273 H 0.77011 0.66726 0.5435 0.0
H1274 H 0.79715 0.67076 0.52023 0.0
H1275 H 0.76914 0.63992 0.50778 0.0
H1276 H 0.76874 0.69801 0.46283 0.0
H1277 H 0.79625 0.73018 0.47561 0.0
H1278 H 0.76813 0.76513 0.4678 0.0
H1279 H 0.73927 0.85081 0.56475 0.0
H1280 H 0.78158 0.87734 0.57999 0.0
H1281 H 0.81433 0.75918 0.52742 0.0
C1282 C 0.72066 0.69767 0.49609 0.0
C1283 C 0.69521 0.71019 0.49974 0.0
C1284 C 0.68814 0.74796 0.51971 0.0
C1285 C 0.70641 0.77587 0.53418 0.0
C1286 C 0.73142 0.76475 0.52863 0.0
C1287 C 0.73859 0.72558 0.51082 0.0
C1288 C 0.76675 0.72201 0.50822 0.0
C1289 C 0.77635 0.67204 0.52069 0.0
C1290 C 0.77546 0.72929 0.47674 0.0
C1291 C 0.77424 0.76593 0.52696 0.0
C1292 C 0.75355 0.7903 0.53827 0.0
C1293 C 0.75565 0.83177 0.55639 0.0
C1294 C 0.77964 0.84677 0.56467 0.0
C1295 C 0.80096 0.8201 0.55485 0.0
C1296 C 0.7983 0.78058 0.53486 0.0
H1297 H 0.81998 0.2653 0.51625 0.0
H1298 H 0.78973 0.38846 0.4662 0.0
H1299 H 0.74696 0.36703 0.48317 0.0
H1300 H 0.7739 0.1802 0.49999 0.0
H1301 H 0.77262 0.15045 0.535 0.0
H1302 H 0.80108 0.18017 0.5231 0.0
H1303 H 0.8014 0.23619 0.56912 0.0
H1304 H 0.77325 0.20561 0.58136 0.0
H1305 H 0.77408 0.27297 0.57794 0.0
H1306 H 0.70763 0.32346 0.498 0.0
H1307 H 0.67403 0.27348 0.52088 0.0
H1308 H 0.73006 0.17891 0.56152 0.0
C1309 C 0.80444 0.28929 0.51021 0.0
C1310 C 0.80794 0.32945 0.49082 0.0
C1311 C 0.78725 0.35861 0.48186 0.0
C1312 C 0.76298 0.34621 0.49092 0.0
C1313 C 0.75992 0.30443 0.50864 0.0
C1314 C 0.78011 0.27728 0.51895 0.0
C1315 C 0.77161 0.2326 0.53661 0.0
C1316 C 0.78033 0.18294 0.52285 0.0
C1317 C 0.78061 0.23714 0.56813 0.0
C1318 C 0.7435 0.23859 0.53429 0.0
C1319 C 0.73714 0.27977 0.5177 0.0
C1320 C 0.7123 0.2917 0.51152 0.0
C1321 C 0.69338 0.26251 0.5241 0.0
C1322 C 0.69955 0.22221 0.54273 0.0
C1323 C 0.72491 0.20938 0.54719 0.0
H1324 H 0.82011 0.76931 1.01181 0.0
H1325 H 0.79118 0.63865 0.96667 0.0
H1326 H 0.74949 0.65353 0.98771 0.0
H1327 H 0.77874 0.75584 0.07839 0.0
H1328 H 0.77532 0.82296 0.08137 0.0
H1329 H 0.80388 0.79657 0.06715 0.0
H1330 H 0.79861 0.851 0.02113 0.0
H1331 H 0.76962 0.87619 0.0347 0.0
H1332 H 0.77039 0.84542 0.99992 0.0
H1333 H 0.71043 0.69055 1.00491 0.0
H1334 H 0.67606 0.73833 0.02719 0.0
H1335 H 0.72981 0.84425 0.06275 0.0
C1336 C 0.80523 0.74267 1.00754 0.0
C1337 C 0.80859 0.70292 0.9878 0.0
C1338 C 0.78872 0.66933 0.98185 0.0
C1339 C 0.76504 0.67752 0.99357 0.0
C1340 C 0.7618 0.71907 1.01135 0.0
C1341 C 0.78138 0.75033 0.01911 0.0
C1342 C 0.77222 0.79422 0.03706 0.0
C1343 C 0.78318 0.79225 0.06782 0.0
C1344 C 0.77806 0.84466 0.0223 0.0
C1345 C 0.74441 0.78349 0.0371 0.0
C1346 C 0.73889 0.74011 0.02202 0.0
C1347 C 0.71445 0.72399 0.01739 0.0
C1348 C 0.69507 0.7518 0.02974 0.0
C1349 C 0.70041 0.79476 0.04672 0.0
C1350 C 0.72533 0.81133 0.04996 0.0
H1351 H 0.6893 0.28378 0.02758 0.0
H1352 H 0.71815 0.3888 0.96438 0.0
H1353 H 0.76079 0.37816 0.98417 0.0
H1354 H 0.73534 0.31669 0.0881 0.0
H1355 H 0.73722 0.25187 0.09901 0.0
H1356 H 0.70847 0.27629 0.08416 0.0
H1357 H 0.70903 0.20572 0.04556 0.0
H1358 H 0.73809 0.18197 0.05964 0.0
H1359 H 0.73582 0.19943 0.02203 0.0
H1360 H 0.80011 0.34414 1.00357 0.0
H1361 H 0.83446 0.29706 0.02645 0.0
H1362 H 0.78053 0.21429 0.07816 0.0
C1363 C 0.7045 0.30636 0.01912 0.0
C1364 C 0.70079 0.33807 0.9952 0.0
C1365 C 0.72092 0.36542 0.98331 0.0
C1366 C 0.7451 0.35942 0.9943 0.0
C1367 C 0.74853 0.32605 0.01714 0.0
C1368 C 0.72877 0.30074 0.02991 0.0
C1369 C 0.73795 0.26319 0.05208 0.0
C1370 C 0.72924 0.27792 0.08266 0.0
C1371 C 0.72973 0.20942 0.04434 0.0
C1372 C 0.76593 0.26972 0.04873 0.0
C1373 C 0.77157 0.30632 0.02856 0.0
C1374 C 0.79602 0.31623 0.0199 0.0
C1375 C 0.81534 0.28878 0.03271 0.0
C1376 C 0.81003 0.25209 0.05401 0.0
C1377 C 0.78502 0.24247 0.06209 0.0
H1378 H 0.32622 0.28433 0.50498 0.0
H1379 H 0.29751 0.40441 0.55868 0.0
H1380 H 0.25472 0.3881 0.54043 0.0
H1381 H 0.27994 0.29941 0.44267 0.0
H1382 H 0.27851 0.23233 0.43786 0.0
H1383 H 0.30709 0.26131 0.45017 0.0
H1384 H 0.30698 0.20245 0.49484 0.0
H1385 H 0.2781 0.17439 0.48308 0.0
H1386 H 0.28022 0.20211 0.51863 0.0
H1387 H 0.21489 0.34744 0.52441 0.0
H1388 H 0.18079 0.29585 0.50399 0.0
H1389 H 0.23558 0.20235 0.46016 0.0
C1390 C 0.3111 0.30919 0.5113 0.0
C1391 C 0.31499 0.34678 0.53226 0.0
C1392 C 0.29479 0.37685 0.54169 0.0
C1393 C 0.27045 0.36733 0.53175 0.0
C1394 C 0.26691 0.3278 0.51237 0.0
C1395 C 0.28676 0.30011 0.50155 0.0
C1396 C 0.27773 0.25667 0.48316 0.0
C1397 C 0.28632 0.26283 0.45158 0.0
C1398 C 0.28627 0.20594 0.49569 0.0
C1399 C 0.24973 0.2633 0.48607 0.0
C1400 C 0.24386 0.30433 0.50311 0.0
C1401 C 0.21923 0.31585 0.51054 0.0
C1402 C 0.20003 0.28582 0.49926 0.0
C1403 C 0.20564 0.24505 0.48063 0.0
C1404 C 0.23082 0.23338 0.47432 0.0
H1405 H 0.32816 0.78693 0.51636 0.0
H1406 H 0.29681 0.90961 0.46656 0.0
H1407 H 0.25568 0.89502 0.4891 0.0
H1408 H 0.28262 0.70682 0.50634 0.0
H1409 H 0.28117 0.67844 0.54171 0.0
H1410 H 0.30989 0.7063 0.52937 0.0
H1411 H 0.31141 0.7649 0.574 0.0
H1412 H 0.28322 0.73569 0.58734 0.0
H1413 H 0.28452 0.80286 0.58294 0.0
H1414 H 0.21765 0.8515 0.50299 0.0
H1415 H 0.18394 0.79863 0.52245 0.0
H1416 H 0.23922 0.70446 0.56508 0.0
C1417 C 0.31302 0.81245 0.51151 0.0
C1418 C 0.31545 0.8492 0.48979 0.0
C1419 C 0.29512 0.88128 0.48327 0.0
C1420 C 0.27172 0.87309 0.49577 0.0
C1421 C 0.26926 0.83321 0.51492 0.0
C1422 C 0.28946 0.80459 0.5238 0.0
C1423 C 0.28104 0.76074 0.54229 0.0
C1424 C 0.28917 0.71013 0.52911 0.0
C1425 C 0.29061 0.76642 0.5735 0.0
C1426 C 0.25296 0.76758 0.54069 0.0
C1427 C 0.24667 0.80949 0.52469 0.0
C1428 C 0.22211 0.8202 0.51695 0.0
C1429 C 0.20318 0.78918 0.52751 0.0
C1430 C 0.20905 0.7478 0.54548 0.0
C1431 C 0.23428 0.73642 0.55176 0.0
H1432 H 0.05729 0.30861 0.13575 0.0
H1433 H 0.05316 0.37406 0.04979 0.0
H1434 H 0.01286 0.33229 0.04163 0.0
H1435 H 0.03203 0.19055 0.11735 0.0
H1436 H 0.01341 0.18188 0.14953 0.0
H1437 H 0.04116 0.22028 0.15081 0.0
H1438 H 0.01528 0.2951 0.1703 0.0
H1439 H 0.98746 0.25676 0.16956 0.0
H1440 H 0.98802 0.31583 0.15062 0.0
H1441 H 0.97675 0.27723 0.03942 0.0
H1442 H 0.94149 0.2204 0.04556 0.0
H1443 H 0.96445 0.19082 0.13434 0.0
C1444 C 0.04744 0.31534 0.11563 0.0
C1445 C 0.05846 0.34498 0.09341 0.0
C1446 C 0.04524 0.35174 0.06712 0.0
C1447 C 0.0223 0.32798 0.06221 0.0
C1448 C 0.01245 0.2976 0.08386 0.0
C1449 C 0.02411 0.29182 0.11033 0.0
C1450 C 0.00912 0.25564 0.12931 0.0
C1451 C 0.02488 0.20934 0.13722 0.0
C1452 C 0.99939 0.28244 0.15657 0.0
C1453 C 0.98761 0.2416 0.10904 0.0
C1454 C 0.99035 0.26625 0.08293 0.0
C1455 C 0.97412 0.25833 0.05993 0.0
C1456 C 0.9541 0.22537 0.06371 0.0
C1457 C 0.94979 0.20075 0.09054 0.0
C1458 C 0.96703 0.2089 0.11358 0.0
H1459 H 0.46111 0.70983 0.06068 0.0
H1460 H 0.44988 0.67552 0.15166 0.0
H1461 H 0.48837 0.72213 0.16381 0.0
H1462 H 0.5295 0.69899 0.06179 0.0
H1463 H 0.53373 0.74968 0.03647 0.0
H1464 H 0.50578 0.71192 0.03504 0.0
H1465 H 0.4788 0.79241 0.03977 0.0
H1466 H 0.50666 0.83033 0.04176 0.0
H1467 H 0.48358 0.83373 0.07019 0.0
H1468 H 0.52688 0.77742 0.16651 0.0
H1469 H 0.56526 0.82757 0.15875 0.0
H1470 H 0.55205 0.82394 0.06602 0.0
C1471 C 0.46695 0.71129 0.08312 0.0
C1472 C 0.45239 0.68861 0.10516 0.0
C1473 C 0.46072 0.69201 0.13428 0.0
C1474 C 0.48251 0.71881 0.14147 0.0
C1475 C 0.496 0.74182 0.11932 0.0
C1476 C 0.48879 0.73757 0.09067 0.0
C1477 C 0.5067 0.76564 0.07098 0.0
C1478 C 0.5197 0.72939 0.04983 0.0
C1479 C 0.49312 0.80804 0.05472 0.0
C1480 C 0.52502 0.78651 0.09303 0.0
C1481 C 0.51838 0.7728 0.12082 0.0
C1482 C 0.53232 0.78814 0.14481 0.0
C1483 C 0.554 0.81703 0.14021 0.0
C1484 C 0.5617 0.82994 0.11181 0.0
C1485 C 0.5467 0.81489 0.08803 0.0
H1486 H 0.46305 0.81017 0.45948 0.0
H1487 H 0.45012 0.82112 0.36681 0.0
H1488 H 0.48847 0.77212 0.35775 0.0
H1489 H 0.53118 0.82104 0.45572 0.0
H1490 H 0.53614 0.77731 0.48489 0.0
H1491 H 0.50804 0.81468 0.48392 0.0
H1492 H 0.4814 0.73343 0.48668 0.0
H1493 H 0.50945 0.69583 0.48708 0.0
H1494 H 0.48585 0.68499 0.45987 0.0
H1495 H 0.52719 0.71935 0.35858 0.0
H1496 H 0.56618 0.67338 0.36908 0.0
H1497 H 0.55435 0.69699 0.46119 0.0
C1498 C 0.46843 0.80285 0.43726 0.0
C1499 C 0.45352 0.81971 0.41387 0.0
C1500 C 0.46124 0.80902 0.38513 0.0
C1501 C 0.48294 0.7809 0.37973 0.0
C1502 C 0.49683 0.7639 0.40327 0.0
C1503 C 0.49013 0.77504 0.43145 0.0
C1504 C 0.50853 0.75251 0.45281 0.0
C1505 C 0.52175 0.79385 0.47036 0.0
C1506 C 0.49552 0.71443 0.47278 0.0
C1507 C 0.52649 0.72669 0.4322 0.0
C1508 C 0.51931 0.73355 0.40374 0.0
C1509 C 0.53304 0.71377 0.38078 0.0
C1510 C 0.55512 0.68744 0.387 0.0
C1511 C 0.56332 0.6812 0.41598 0.0
C1512 C 0.54849 0.70048 0.43883 0.0
H1513 H 0.05327 0.18791 0.4688 0.0
H1514 H 0.07152 0.212 0.37827 0.0
H1515 H 0.03238 0.25977 0.37195 0.0
H1516 H 0.98596 0.17027 0.4566 0.0
H1517 H 0.97721 0.20101 0.48988 0.0
H1518 H 1.00677 0.16869 0.48732 0.0
H1519 H 0.02969 0.24997 0.503 0.0
H1520 H 1.00024 0.28276 0.50518 0.0
H1521 H 0.02501 0.30684 0.48261 0.0
H1522 H 0.99279 0.31049 0.37611 0.0
H1523 H 0.95198 0.34884 0.38849 0.0
H1524 H 0.95712 0.28655 0.47504 0.0
C1525 C 0.04885 0.20273 0.44758 0.0
C1526 C 0.06552 0.196 0.42402 0.0
C1527 C 0.05901 0.21607 0.3966 0.0
C1528 C 0.03689 0.24372 0.39282 0.0
C1529 C 0.0211 0.25043 0.41653 0.0
C1530 C 0.02646 0.22956 0.44322 0.0
C1531 C 1.00574 0.24099 0.46481 0.0
C1532 C 0.99317 0.19235 0.47526 0.0
C1533 C 0.01578 0.27198 0.49041 0.0
C1534 C 0.98809 0.27185 0.44615 0.0
C1535 C 0.99756 0.27756 0.41851 0.0
C1536 C 0.98507 0.30589 0.39762 0.0
C1537 C 0.96201 0.32793 0.40492 0.0
C1538 C 0.95138 0.32081 0.4327 0.0
C1539 C 0.96476 0.2926 0.4536 0.0
H1540 H 0.96041 0.7202 0.97125 0.0
H1541 H 0.95097 0.68482 0.87996 0.0
H1542 H 0.99083 0.72647 0.86904 0.0
H1543 H 0.98716 0.84086 0.96204 0.0
H1544 H 0.00962 0.83524 0.991 0.0
H1545 H 0.98062 0.80081 0.99255 0.0
H1546 H 1.0051 0.71739 0.9983 0.0
H1547 H 0.03417 0.75166 0.99718 0.0
H1548 H 0.02876 0.70099 0.97208 0.0
H1549 H 0.02941 0.77663 0.86686 0.0
H1550 H 0.06828 0.82404 0.87423 0.0
H1551 H 0.05507 0.82474 0.96713 0.0
C1552 C 0.96692 0.72059 0.94905 0.0
C1553 C 0.95248 0.69911 0.9265 0.0
C1554 C 0.96166 0.70062 0.89769 0.0
C1555 C 0.98426 0.72448 0.89118 0.0
C1556 C 0.99771 0.74621 0.91371 0.0
C1557 C 0.98975 0.74378 0.94213 0.0
C1558 C 1.00816 0.77008 0.9621 0.0
C1559 C 0.99563 0.81437 0.97785 0.0
C1560 C 0.01973 0.7328 0.98369 0.0
C1561 C 0.02742 0.78818 0.9403 0.0
C1562 C 0.02077 0.77424 0.91253 0.0
C1563 C 0.035 0.78744 0.88851 0.0
C1564 C 0.05699 0.81475 0.89296 0.0
C1565 C 0.06477 0.82826 0.92128 0.0
C1566 C 0.04963 0.81499 0.94525 0.0
H1567 H 0.55126 0.32282 0.97548 0.0
H1568 H 0.56363 0.35276 0.88437 0.0
H1569 H 0.52427 0.30779 0.87249 0.0
H1570 H 0.52893 0.20203 0.96889 0.0
H1571 H 0.50528 0.20632 0.99665 0.0
H1572 H 0.53267 0.24554 0.9985 0.0
H1573 H 0.50494 0.32535 1.00053 0.0
H1574 H 0.47741 0.28631 0.99953 0.0
H1575 H 0.48148 0.33525 0.97306 0.0
H1576 H 0.48682 0.24943 0.87048 0.0
H1577 H 0.44999 0.1955 0.87848 0.0
H1578 H 0.46082 0.20711 0.97143 0.0
C1579 C 0.54522 0.32133 0.9531 0.0
C1580 C 0.56029 0.3417 0.9308 0.0
C1581 C 0.55207 0.33836 0.90176 0.0
C1582 C 0.52991 0.31237 0.89484 0.0
C1583 C 0.51604 0.29083 0.91729 0.0
C1584 C 0.523 0.29636 0.94592 0.0
C1585 C 0.50511 0.26896 0.96597 0.0
C1586 C 0.51882 0.22831 0.98353 0.0
C1587 C 0.49142 0.30619 0.98595 0.0
C1588 C 0.48735 0.24584 0.94414 0.0
C1589 C 0.4941 0.2586 0.91618 0.0
C1590 C 0.48119 0.23988 0.8923 0.0
C1591 C 0.46041 0.20869 0.89711 0.0
C1592 C 0.45247 0.19674 0.92562 0.0
C1593 C 0.46637 0.21538 0.94939 0.0
H1594 H 0.55315 0.18664 0.57049 0.0
H1595 H 0.56935 0.20325 0.66211 0.0
H1596 H 0.53121 0.25454 0.66802 0.0
H1597 H 0.52933 0.31019 0.559 0.0
H1598 H 0.50493 0.29112 0.53436 0.0
H1599 H 0.53324 0.25464 0.53716 0.0
H1600 H 0.50732 0.17509 0.549 0.0
H1601 H 0.4789 0.21111 0.54579 0.0
H1602 H 0.48523 0.17664 0.57853 0.0
H1603 H 0.49189 0.30839 0.66355 0.0
H1604 H 0.45238 0.35107 0.65013 0.0
H1605 H 0.46068 0.29699 0.56199 0.0
C1606 C 0.54851 0.20039 0.5919 0.0
C1607 C 0.56437 0.19029 0.61586 0.0
C1608 C 0.55754 0.20967 0.64341 0.0
C1609 C 0.53592 0.23932 0.64698 0.0
C1610 C 0.521 0.24927 0.62287 0.0
C1611 C 0.52679 0.22968 0.59594 0.0
C1612 C 0.50738 0.24542 0.57364 0.0
C1613 C 0.51944 0.27723 0.54962 0.0
C1614 C 0.49391 0.19932 0.561 0.0
C1615 C 0.48979 0.27683 0.59219 0.0
C1616 C 0.49814 0.27915 0.62046 0.0
C1617 C 0.48515 0.30657 0.64147 0.0
C1618 C 0.46278 0.33113 0.63359 0.0
C1619 C 0.4533 0.3278 0.60498 0.0
C1620 C 0.46732 0.30055 0.58405 0.0
H1621 H 0.05607 0.69915 0.63358 0.0
H1622 H 0.07068 0.70995 0.54108 0.0
H1623 H 0.03158 0.75546 0.53437 0.0
H1624 H 0.98815 0.67977 0.62531 0.0
H1625 H 0.97989 0.71629 0.65677 0.0
H1626 H 0.0096 0.68422 0.65535 0.0
H1627 H 0.0324 0.7682 0.66526 0.0
H1628 H 1.00276 0.80059 0.66639 0.0
H1629 H 0.02687 0.82098 0.64173 0.0
H1630 H 0.99258 0.80135 0.53617 0.0
H1631 H 0.95148 0.83849 0.5458 0.0
H1632 H 0.95808 0.79836 0.63669 0.0
C1633 C 0.05084 0.71063 0.61193 0.0
C1634 C 0.06679 0.70068 0.58793 0.0
C1635 C 0.05914 0.7167 0.55997 0.0
C1636 C 0.03686 0.74301 0.55582 0.0
C1637 C 0.02192 0.75299 0.5797 0.0
C1638 C 0.02813 0.73681 0.60718 0.0
C1639 C 1.00766 0.75193 0.6286 0.0
C1640 C 0.99561 0.70527 0.64232 0.0
C1641 C 0.01805 0.78755 0.65188 0.0
C1642 C 0.98927 0.77902 0.60867 0.0
C1643 C 0.99829 0.77928 0.58065 0.0
C1644 C 0.98517 0.80122 0.55798 0.0
C1645 C 0.96176 0.8223 0.56374 0.0
C1646 C 0.95137 0.82139 0.59197 0.0
C1647 C 0.96559 0.80018 0.61494 0.0
loop_
_geom_bond_atom_site_label_1
_geom_bond_atom_site_label_2
_geom_bond_distance
_geom_bond_site_symmetry_2
_ccdc_geom_bond_type
Fe0 O2 1.918 . S
Fe0 O5 1.997 . S
Fe0 O6 2.002 . S
Fe0 O11 1.976 . S
Fe0 O14 1.996 . S
Fe1 O2 1.918 . S
Fe1 O9 1.997 . S
Fe1 O12 1.996 . S
Fe1 O16 1.976 . S
Fe1 O19 2.002 . S
O2 Fe0 1.918 . S
O2 Fe1 1.918 . S
O2 Fe3 1.918 . S
Fe3 O2 1.918 . S
Fe3 O4 2.002 . S
Fe3 O13 1.976 . S
Fe3 O17 1.996 . S
Fe3 O20 1.997 . S
O4 Fe3 2.002 . S
O4 C21 1.295 . S
O5 Fe0 1.997 . S
O5 C21 1.235 . S
O6 Fe0 2.002 . S
O6 C7 1.295 . S
C7 O6 1.295 . S
C7 O9 1.235 . S
C8 O13 1.287 . S
C8 O14 1.255 . S
O9 Fe1 1.997 . S
O9 C7 1.235 . S
C10 O16 1.287 . S
C10 O17 1.255 . S
O11 Fe0 1.976 . S
O11 C18 1.287 . S
O12 Fe1 1.996 . S
O12 C18 1.255 . S
O13 Fe3 1.976 . S
O13 C8 1.287 . S
O14 Fe0 1.996 . S
O14 C8 1.255 . S
C15 O19 1.295 . S
C15 O20 1.235 . S
O16 Fe1 1.976 . S
O16 C10 1.287 . S
O17 Fe3 1.996 . S
O17 C10 1.255 . S
C18 O11 1.287 . S
C18 O12 1.255 . S
O19 Fe1 2.002 . S
O19 C15 1.295 . S
O20 Fe3 1.997 . S
O20 C15 1.235 . S
C21 O4 1.295 . S
C21 O5 1.235 . S
Fe22 O24 1.918 . S
Fe22 O27 1.997 . S
Fe22 O28 2.002 . S
Fe22 O33 1.976 . S
Fe22 O36 1.996 . S
Fe23 O24 1.918 . S
Fe23 O31 1.997 . S
Fe23 O34 1.996 . S
Fe23 O38 1.976 . S
Fe23 O41 2.002 . S
O24 Fe22 1.918 . S
O24 Fe23 1.918 . S
O24 Fe25 1.918 . S
Fe25 O24 1.918 . S
Fe25 O26 2.002 . S
Fe25 O35 1.976 . S
Fe25 O39 1.996 . S
Fe25 O42 1.997 . S
O26 Fe25 2.002 . S
O26 C43 1.295 . S
O27 Fe22 1.997 . S
O27 C43 1.235 . S
O28 Fe22 2.002 . S
O28 C29 1.295 . S
C29 O28 1.295 . S
C29 O31 1.235 . S
C30 O35 1.287 . S
C30 O36 1.255 . S
O31 Fe23 1.997 . S
O31 C29 1.235 . S
C32 O38 1.287 . S
C32 O39 1.255 . S
O33 Fe22 1.976 . S
O33 C40 1.287 . S
O34 Fe23 1.996 . S
O34 C40 1.255 . S
O35 Fe25 1.976 . S
O35 C30 1.287 . S
O36 Fe22 1.996 . S
O36 C30 1.255 . S
C37 O41 1.295 . S
C37 O42 1.235 . S
O38 Fe23 1.976 . S
O38 C32 1.287 . S
O39 Fe25 1.996 . S
O39 C32 1.255 . S
C40 O33 1.287 . S
C40 O34 1.255 . S
O41 Fe23 2.002 . S
O41 C37 1.295 . S
O42 Fe25 1.997 . S
O42 C37 1.235 . S
C43 O26 1.295 . S
C43 O27 1.235 . S
Fe44 O46 1.918 . S
Fe44 O49 1.997 . S
Fe44 O50 2.002 . S
Fe44 O55 1.976 . S
Fe44 O58 1.996 . S
Fe45 O46 1.918 . S
Fe45 O53 1.997 . S
Fe45 O56 1.996 . S
Fe45 O60 1.976 . S
Fe45 O63 2.002 . S
O46 Fe44 1.918 . S
O46 Fe45 1.918 . S
O46 Fe47 1.918 . S
Fe47 O46 1.918 . S
Fe47 O48 2.002 . S
Fe47 O57 1.976 . S
Fe47 O61 1.996 . S
Fe47 O64 1.997 . S
O48 Fe47 2.002 . S
O48 C65 1.295 . S
O49 Fe44 1.997 . S
O49 C65 1.235 . S
O50 Fe44 2.002 . S
O50 C51 1.295 . S
C51 O50 1.295 . S
C51 O53 1.235 . S
C52 O57 1.287 . S
C52 O58 1.255 . S
O53 Fe45 1.997 . S
O53 C51 1.235 . S
C54 O60 1.287 . S
C54 O61 1.255 . S
O55 Fe44 1.976 . S
O55 C62 1.287 . S
O56 Fe45 1.996 . S
O56 C62 1.255 . S
O57 Fe47 1.976 . S
O57 C52 1.287 . S
O58 Fe44 1.996 . S
O58 C52 1.255 . S
C59 O63 1.295 . S
C59 O64 1.235 . S
O60 Fe45 1.976 . S
O60 C54 1.287 . S
O61 Fe47 1.996 . S
O61 C54 1.255 . S
C62 O55 1.287 . S
C62 O56 1.255 . S
O63 Fe45 2.002 . S
O63 C59 1.295 . S
O64 Fe47 1.997 . S
O64 C59 1.235 . S
C65 O48 1.295 . S
C65 O49 1.235 . S
Fe66 O68 1.918 . S
Fe66 O71 1.997 . S
Fe66 O72 2.002 . S
Fe66 O77 1.976 . S
Fe66 O80 1.996 . S
Fe67 O68 1.918 . S
Fe67 O75 1.997 . S
Fe67 O78 1.996 . S
Fe67 O82 1.976 . S
Fe67 O85 2.002 . S
O68 Fe66 1.918 . S
O68 Fe67 1.918 . S
O68 Fe69 1.918 . S
Fe69 O68 1.918 . S
Fe69 O70 2.002 . S
Fe69 O79 1.976 . S
Fe69 O83 1.996 . S
Fe69 O86 1.997 . S
O70 Fe69 2.002 . S
O70 C87 1.295 . S
O71 Fe66 1.997 . S
O71 C87 1.235 . S
O72 Fe66 2.002 . S
O72 C73 1.295 . S
C73 O72 1.295 . S
C73 O75 1.235 . S
C74 O79 1.287 . S
C74 O80 1.255 . S
O75 Fe67 1.997 . S
O75 C73 1.235 . S
C76 O82 1.287 . S
C76 O83 1.255 . S
O77 Fe66 1.976 . S
O77 C84 1.287 . S
O78 Fe67 1.996 . S
O78 C84 1.255 . S
O79 Fe69 1.976 . S
O79 C74 1.287 . S
O80 Fe66 1.996 . S
O80 C74 1.255 . S
C81 O85 1.295 . S
C81 O86 1.235 . S
O82 Fe67 1.976 . S
O82 C76 1.287 . S
O83 Fe69 1.996 . S
O83 C76 1.255 . S
C84 O77 1.287 . S
C84 O78 1.255 . S
O85 Fe67 2.002 . S
O85 C81 1.295 . S
O86 Fe69 1.997 . S
O86 C81 1.235 . S
C87 O70 1.295 . S
C87 O71 1.235 . S
Fe88 O90 1.918 . S
Fe88 O93 1.997 . S
Fe88 O94 2.002 . S
Fe88 O99 1.976 . S
Fe88 O102 1.996 . S
Fe89 O90 1.918 . S
Fe89 O97 1.997 . S
Fe89 O100 1.996 . S
Fe89 O104 1.976 . S
Fe89 O107 2.002 . S
O90 Fe88 1.918 . S
O90 Fe89 1.918 . S
O90 Fe91 1.918 . S
Fe91 O90 1.918 . S
Fe91 O92 2.002 . S
Fe91 O101 1.976 . S
Fe91 O105 1.996 . S
Fe91 O108 1.997 . S
O92 Fe91 2.002 . S
O92 C109 1.295 . S
O93 Fe88 1.997 . S
O93 C109 1.235 . S
O94 Fe88 2.002 . S
O94 C95 1.295 . S
C95 O94 1.295 . S
C95 O97 1.235 . S
C96 O101 1.287 . S
C96 O102 1.255 . S
O97 Fe89 1.997 . S
O97 C95 1.235 . S
C98 O104 1.287 . S
C98 O105 1.255 . S
O99 Fe88 1.976 . S
O99 C106 1.287 . S
O100 Fe89 1.996 . S
O100 C106 1.255 . S
O101 Fe91 1.976 . S
O101 C96 1.287 . S
O102 Fe88 1.996 . S
O102 C96 1.255 . S
C103 O107 1.295 . S
C103 O108 1.235 . S
O104 Fe89 1.976 . S
O104 C98 1.287 . S
O105 Fe91 1.996 . S
O105 C98 1.255 . S
C106 O99 1.287 . S
C106 O100 1.255 . S
O107 Fe89 2.002 . S
O107 C103 1.295 . S
O108 Fe91 1.997 . S
O108 C103 1.235 . S
C109 O92 1.295 . S
C109 O93 1.235 . S
Fe110 O112 1.918 . S
Fe110 O115 1.997 . S
Fe110 O116 2.002 . S
Fe110 O121 1.976 . S
Fe110 O124 1.996 . S
Fe111 O112 1.918 . S
Fe111 O119 1.997 . S
Fe111 O122 1.996 . S
Fe111 O126 1.976 . S
Fe111 O129 2.002 . S
O112 Fe110 1.918 . S
O112 Fe111 1.918 . S
O112 Fe113 1.918 . S
Fe113 O112 1.918 . S
Fe113 O114 2.002 . S
Fe113 O123 1.976 . S
Fe113 O127 1.996 . S
Fe113 O130 1.997 . S
O114 Fe113 2.002 . S
O114 C131 1.295 . S
O115 Fe110 1.997 . S
O115 C131 1.235 . S
O116 Fe110 2.002 . S
O116 C117 1.295 . S
C117 O116 1.295 . S
C117 O119 1.235 . S
C118 O123 1.287 . S
C118 O124 1.255 . S
O119 Fe111 1.997 . S
O119 C117 1.235 . S
C120 O126 1.287 . S
C120 O127 1.255 . S
O121 Fe110 1.976 . S
O121 C128 1.287 . S
O122 Fe111 1.996 . S
O122 C128 1.255 . S
O123 Fe113 1.976 . S
O123 C118 1.287 . S
O124 Fe110 1.996 . S
O124 C118 1.255 . S
C125 O129 1.295 . S
C125 O130 1.235 . S
O126 Fe111 1.976 . S
O126 C120 1.287 . S
O127 Fe113 1.996 . S
O127 C120 1.255 . S
C128 O121 1.287 . S
C128 O122 1.255 . S
O129 Fe111 2.002 . S
O129 C125 1.295 . S
O130 Fe113 1.997 . S
O130 C125 1.235 . S
C131 O114 1.295 . S
C131 O115 1.235 . S
Fe132 O134 1.918 . S
Fe132 O137 1.997 . S
Fe132 O138 2.002 . S
Fe132 O143 1.976 . S
Fe132 O146 1.996 . S
Fe133 O134 1.918 . S
Fe133 O141 1.997 . S
Fe133 O144 1.996 . S
Fe133 O148 1.976 . S
Fe133 O151 2.002 . S
O134 Fe132 1.918 . S
O134 Fe133 1.918 . S
O134 Fe135 1.918 . S
Fe135 O134 1.918 . S
Fe135 O136 2.002 . S
Fe135 O145 1.976 . S
Fe135 O149 1.996 . S
Fe135 O152 1.997 . S
O136 Fe135 2.002 . S
O136 C153 1.295 . S
O137 Fe132 1.997 . S
O137 C153 1.235 . S
O138 Fe132 2.002 . S
O138 C139 1.295 . S
C139 O138 1.295 . S
C139 O141 1.235 . S
C140 O145 1.287 . S
C140 O146 1.255 . S
O141 Fe133 1.997 . S
O141 C139 1.235 . S
C142 O148 1.287 . S
C142 O149 1.255 . S
O143 Fe132 1.976 . S
O143 C150 1.287 . S
O144 Fe133 1.996 . S
O144 C150 1.255 . S
O145 Fe135 1.976 . S
O145 C140 1.287 . S
O146 Fe132 1.996 . S
O146 C140 1.255 . S
C147 O151 1.295 . S
C147 O152 1.235 . S
O148 Fe133 1.976 . S
O148 C142 1.287 . S
O149 Fe135 1.996 . S
O149 C142 1.255 . S
C150 O143 1.287 . S
C150 O144 1.255 . S
O151 Fe133 2.002 . S
O151 C147 1.295 . S
O152 Fe135 1.997 . S
O152 C147 1.235 . S
C153 O136 1.295 . S
C153 O137 1.235 . S
Fe154 O156 1.918 . S
Fe154 O159 1.997 . S
Fe154 O160 2.002 . S
Fe154 O165 1.976 . S
Fe154 O168 1.996 . S
Fe155 O156 1.918 . S
Fe155 O163 1.997 . S
Fe155 O166 1.996 . S
Fe155 O170 1.976 . S
Fe155 O173 2.002 . S
O156 Fe154 1.918 . S
O156 Fe155 1.918 . S
O156 Fe157 1.918 . S
Fe157 O156 1.918 . S
Fe157 O158 2.002 . S
Fe157 O167 1.976 . S
Fe157 O171 1.996 . S
Fe157 O174 1.997 . S
O158 Fe157 2.002 . S
O158 C175 1.295 . S
O159 Fe154 1.997 . S
O159 C175 1.235 . S
O160 Fe154 2.002 . S
O160 C161 1.295 . S
C161 O160 1.295 . S
C161 O163 1.235 . S
C162 O167 1.287 . S
C162 O168 1.255 . S
O163 Fe155 1.997 . S
O163 C161 1.235 . S
C164 O170 1.287 . S
C164 O171 1.255 . S
O165 Fe154 1.976 . S
O165 C172 1.287 . S
O166 Fe155 1.996 . S
O166 C172 1.255 . S
O167 Fe157 1.976 . S
O167 C162 1.287 . S
O168 Fe154 1.996 . S
O168 C162 1.255 . S
C169 O173 1.295 . S
C169 O174 1.235 . S
O170 Fe155 1.976 . S
O170 C164 1.287 . S
O171 Fe157 1.996 . S
O171 C164 1.255 . S
C172 O165 1.287 . S
C172 O166 1.255 . S
O173 Fe155 2.002 . S
O173 C169 1.295 . S
O174 Fe157 1.997 . S
O174 C169 1.235 . S
C175 O158 1.295 . S
C175 O159 1.235 . S
Fe176 O178 1.918 . S
Fe176 O181 1.997 . S
Fe176 O182 2.002 . S
Fe176 O187 1.976 . S
Fe176 O190 1.996 . S
Fe177 O178 1.918 . S
Fe177 O185 1.997 . S
Fe177 O188 1.996 . S
Fe177 O192 1.976 . S
Fe177 O195 2.002 . S
O178 Fe176 1.918 . S
O178 Fe177 1.918 . S
O178 Fe179 1.918 . S
Fe179 O178 1.918 . S
Fe179 O180 2.002 . S
Fe179 O189 1.976 . S
Fe179 O193 1.996 . S
Fe179 O196 1.997 . S
O180 Fe179 2.002 . S
O180 C197 1.295 . S
O181 Fe176 1.997 . S
O181 C197 1.235 . S
O182 Fe176 2.002 . S
O182 C183 1.295 . S
C183 O182 1.295 . S
C183 O185 1.235 . S
C184 O189 1.287 . S
C184 O190 1.255 . S
O185 Fe177 1.997 . S
O185 C183 1.235 . S
C186 O192 1.287 . S
C186 O193 1.255 . S
O187 Fe176 1.976 . S
O187 C194 1.287 . S
O188 Fe177 1.996 . S
O188 C194 1.255 . S
O189 Fe179 1.976 . S
O189 C184 1.287 . S
O190 Fe176 1.996 . S
O190 C184 1.255 . S
C191 O195 1.295 . S
C191 O196 1.235 . S
O192 Fe177 1.976 . S
O192 C186 1.287 . S
O193 Fe179 1.996 . S
O193 C186 1.255 . S
C194 O187 1.287 . S
C194 O188 1.255 . S
O195 Fe177 2.002 . S
O195 C191 1.295 . S
O196 Fe179 1.997 . S
O196 C191 1.235 . S
C197 O180 1.295 . S
C197 O181 1.235 . S
Fe198 O200 1.918 . S
Fe198 O203 1.997 . S
Fe198 O204 2.002 . S
Fe198 O209 1.976 . S
Fe198 O212 1.996 . S
Fe199 O200 1.918 . S
Fe199 O207 1.997 . S
Fe199 O210 1.996 . S
Fe199 O214 1.976 . S
Fe199 O217 2.002 . S
O200 Fe198 1.918 . S
O200 Fe199 1.918 . S
O200 Fe201 1.918 . S
Fe201 O200 1.918 . S
Fe201 O202 2.002 . S
Fe201 O211 1.976 . S
Fe201 O215 1.996 . S
Fe201 O218 1.997 . S
O202 Fe201 2.002 . S
O202 C219 1.295 . S
O203 Fe198 1.997 . S
O203 C219 1.235 . S
O204 Fe198 2.002 . S
O204 C205 1.295 . S
C205 O204 1.295 . S
C205 O207 1.235 . S
C206 O211 1.287 . S
C206 O212 1.255 . S
O207 Fe199 1.997 . S
O207 C205 1.235 . S
C208 O214 1.287 . S
C208 O215 1.255 . S
O209 Fe198 1.976 . S
O209 C216 1.287 . S
O210 Fe199 1.996 . S
O210 C216 1.255 . S
O211 Fe201 1.976 . S
O211 C206 1.287 . S
O212 Fe198 1.996 . S
O212 C206 1.255 . S
C213 O217 1.295 . S
C213 O218 1.235 . S
O214 Fe199 1.976 . S
O214 C208 1.287 . S
O215 Fe201 1.996 . S
O215 C208 1.255 . S
C216 O209 1.287 . S
C216 O210 1.255 . S
O217 Fe199 2.002 . S
O217 C213 1.295 . S
O218 Fe201 1.997 . S
O218 C213 1.235 . S
C219 O202 1.295 . S
C219 O203 1.235 . S
Fe220 O222 1.918 . S
Fe220 O225 1.997 . S
Fe220 O226 2.002 . S
Fe220 O231 1.976 . S
Fe220 O234 1.996 . S
Fe221 O222 1.918 . S
Fe221 O229 1.997 . S
Fe221 O232 1.996 . S
Fe221 O236 1.976 . S
Fe221 O239 2.002 . S
O222 Fe220 1.918 . S
O222 Fe221 1.918 . S
O222 Fe223 1.918 . S
Fe223 O222 1.918 . S
Fe223 O224 2.002 . S
Fe223 O233 1.976 . S
Fe223 O237 1.996 . S
Fe223 O240 1.997 . S
O224 Fe223 2.002 . S
O224 C241 1.295 . S
O225 Fe220 1.997 . S
O225 C241 1.235 . S
O226 Fe220 2.002 . S
O226 C227 1.295 . S
C227 O226 1.295 . S
C227 O229 1.235 . S
C228 O233 1.287 . S
C228 O234 1.255 . S
O229 Fe221 1.997 . S
O229 C227 1.235 . S
C230 O236 1.287 . S
C230 O237 1.255 . S
O231 Fe220 1.976 . S
O231 C238 1.287 . S
O232 Fe221 1.996 . S
O232 C238 1.255 . S
O233 Fe223 1.976 . S
O233 C228 1.287 . S
O234 Fe220 1.996 . S
O234 C228 1.255 . S
C235 O239 1.295 . S
C235 O240 1.235 . S
O236 Fe221 1.976 . S
O236 C230 1.287 . S
O237 Fe223 1.996 . S
O237 C230 1.255 . S
C238 O231 1.287 . S
C238 O232 1.255 . S
O239 Fe221 2.002 . S
O239 C235 1.295 . S
O240 Fe223 1.997 . S
O240 C235 1.235 . S
C241 O224 1.295 . S
C241 O225 1.235 . S
Fe242 O244 1.918 . S
Fe242 O247 1.997 . S
Fe242 O248 2.002 . S
Fe242 O253 1.976 . S
Fe242 O256 1.996 . S
Fe243 O244 1.918 . S
Fe243 O251 1.997 . S
Fe243 O254 1.996 . S
Fe243 O258 1.976 . S
Fe243 O261 2.002 . S
O244 Fe242 1.918 . S
O244 Fe243 1.918 . S
O244 Fe245 1.918 . S
Fe245 O244 1.918 . S
Fe245 O246 2.002 . S
Fe245 O255 1.976 . S
Fe245 O259 1.996 . S
Fe245 O262 1.997 . S
O246 Fe245 2.002 . S
O246 C263 1.295 . S
O247 Fe242 1.997 . S
O247 C263 1.235 . S
O248 Fe242 2.002 . S
O248 C249 1.295 . S
C249 O248 1.295 . S
C249 O251 1.235 . S
C250 O255 1.287 . S
C250 O256 1.255 . S
O251 Fe243 1.997 . S
O251 C249 1.235 . S
C252 O258 1.287 . S
C252 O259 1.255 . S
O253 Fe242 1.976 . S
O253 C260 1.287 . S
O254 Fe243 1.996 . S
O254 C260 1.255 . S
O255 Fe245 1.976 . S
O255 C250 1.287 . S
O256 Fe242 1.996 . S
O256 C250 1.255 . S
C257 O261 1.295 . S
C257 O262 1.235 . S
O258 Fe243 1.976 . S
O258 C252 1.287 . S
O259 Fe245 1.996 . S
O259 C252 1.255 . S
C260 O253 1.287 . S
C260 O254 1.255 . S
O261 Fe243 2.002 . S
O261 C257 1.295 . S
O262 Fe245 1.997 . S
O262 C257 1.235 . S
C263 O246 1.295 . S
C263 O247 1.235 . S
Fe264 O266 1.918 . S
Fe264 O269 1.997 . S
Fe264 O270 2.002 . S
Fe264 O275 1.976 . S
Fe264 O278 1.996 . S
Fe265 O266 1.918 . S
Fe265 O273 1.997 . S
Fe265 O276 1.996 . S
Fe265 O280 1.976 . S
Fe265 O283 2.002 . S
O266 Fe264 1.918 . S
O266 Fe265 1.918 . S
O266 Fe267 1.918 . S
Fe267 O266 1.918 . S
Fe267 O268 2.002 . S
Fe267 O277 1.976 . S
Fe267 O281 1.996 . S
Fe267 O284 1.997 . S
O268 Fe267 2.002 . S
O268 C285 1.295 . S
O269 Fe264 1.997 . S
O269 C285 1.235 . S
O270 Fe264 2.002 . S
O270 C271 1.295 . S
C271 O270 1.295 . S
C271 O273 1.235 . S
C272 O277 1.287 . S
C272 O278 1.255 . S
O273 Fe265 1.997 . S
O273 C271 1.235 . S
C274 O280 1.287 . S
C274 O281 1.255 . S
O275 Fe264 1.976 . S
O275 C282 1.287 . S
O276 Fe265 1.996 . S
O276 C282 1.255 . S
O277 Fe267 1.976 . S
O277 C272 1.287 . S
O278 Fe264 1.996 . S
O278 C272 1.255 . S
C279 O283 1.295 . S
C279 O284 1.235 . S
O280 Fe265 1.976 . S
O280 C274 1.287 . S
O281 Fe267 1.996 . S
O281 C274 1.255 . S
C282 O275 1.287 . S
C282 O276 1.255 . S
O283 Fe265 2.002 . S
O283 C279 1.295 . S
O284 Fe267 1.997 . S
O284 C279 1.235 . S
C285 O268 1.295 . S
C285 O269 1.235 . S
Fe286 O288 1.918 . S
Fe286 O291 1.997 . S
Fe286 O292 2.002 . S
Fe286 O297 1.976 . S
Fe286 O300 1.996 . S
Fe287 O288 1.918 . S
Fe287 O295 1.997 . S
Fe287 O298 1.996 . S
Fe287 O302 1.976 . S
Fe287 O305 2.002 . S
O288 Fe286 1.918 . S
O288 Fe287 1.918 . S
O288 Fe289 1.918 . S
Fe289 O288 1.918 . S
Fe289 O290 2.002 . S
Fe289 O299 1.976 . S
Fe289 O303 1.996 . S
Fe289 O306 1.997 . S
O290 Fe289 2.002 . S
O290 C307 1.295 . S
O291 Fe286 1.997 . S
O291 C307 1.235 . S
O292 Fe286 2.002 . S
O292 C293 1.295 . S
C293 O292 1.295 . S
C293 O295 1.235 . S
C294 O299 1.287 . S
C294 O300 1.255 . S
O295 Fe287 1.997 . S
O295 C293 1.235 . S
C296 O302 1.287 . S
C296 O303 1.255 . S
O297 Fe286 1.976 . S
O297 C304 1.287 . S
O298 Fe287 1.996 . S
O298 C304 1.255 . S
O299 Fe289 1.976 . S
O299 C294 1.287 . S
O300 Fe286 1.996 . S
O300 C294 1.255 . S
C301 O305 1.295 . S
C301 O306 1.235 . S
O302 Fe287 1.976 . S
O302 C296 1.287 . S
O303 Fe289 1.996 . S
O303 C296 1.255 . S
C304 O297 1.287 . S
C304 O298 1.255 . S
O305 Fe287 2.002 . S
O305 C301 1.295 . S
O306 Fe289 1.997 . S
O306 C301 1.235 . S
C307 O290 1.295 . S
C307 O291 1.235 . S
Fe308 O310 1.918 . S
Fe308 O313 1.997 . S
Fe308 O314 2.002 . S
Fe308 O319 1.976 . S
Fe308 O322 1.996 . S
Fe309 O310 1.918 . S
Fe309 O317 1.997 . S
Fe309 O320 1.996 . S
Fe309 O324 1.976 . S
Fe309 O327 2.002 . S
O310 Fe308 1.918 . S
O310 Fe309 1.918 . S
O310 Fe311 1.918 . S
Fe311 O310 1.918 . S
Fe311 O312 2.002 . S
Fe311 O321 1.976 . S
Fe311 O325 1.996 . S
Fe311 O328 1.997 . S
O312 Fe311 2.002 . S
O312 C329 1.295 . S
O313 Fe308 1.997 . S
O313 C329 1.235 . S
O314 Fe308 2.002 . S
O314 C315 1.295 . S
C315 O314 1.295 . S
C315 O317 1.235 . S
C316 O321 1.287 . S
C316 O322 1.255 . S
O317 Fe309 1.997 . S
O317 C315 1.235 . S
C318 O324 1.287 . S
C318 O325 1.255 . S
O319 Fe308 1.976 . S
O319 C326 1.287 . S
O320 Fe309 1.996 . S
O320 C326 1.255 . S
O321 Fe311 1.976 . S
O321 C316 1.287 . S
O322 Fe308 1.996 . S
O322 C316 1.255 . S
C323 O327 1.295 . S
C323 O328 1.235 . S
O324 Fe309 1.976 . S
O324 C318 1.287 . S
O325 Fe311 1.996 . S
O325 C318 1.255 . S
C326 O319 1.287 . S
C326 O320 1.255 . S
O327 Fe309 2.002 . S
O327 C323 1.295 . S
O328 Fe311 1.997 . S
O328 C323 1.235 . S
C329 O312 1.295 . S
C329 O313 1.235 . S
Fe330 O332 1.918 . S
Fe330 O335 1.997 . S
Fe330 O336 2.002 . S
Fe330 O341 1.976 . S
Fe330 O344 1.996 . S
Fe331 O332 1.918 . S
Fe331 O339 1.997 . S
Fe331 O342 1.996 . S
Fe331 O346 1.976 . S
Fe331 O349 2.002 . S
O332 Fe330 1.918 . S
O332 Fe331 1.918 . S
O332 Fe333 1.918 . S
Fe333 O332 1.918 . S
Fe333 O334 2.002 . S
Fe333 O343 1.976 . S
Fe333 O347 1.996 . S
Fe333 O350 1.997 . S
O334 Fe333 2.002 . S
O334 C351 1.295 . S
O335 Fe330 1.997 . S
O335 C351 1.235 . S
O336 Fe330 2.002 . S
O336 C337 1.295 . S
C337 O336 1.295 . S
C337 O339 1.235 . S
C338 O343 1.287 . S
C338 O344 1.255 . S
O339 Fe331 1.997 . S
O339 C337 1.235 . S
C340 O346 1.287 . S
C340 O347 1.255 . S
O341 Fe330 1.976 . S
O341 C348 1.287 . S
O342 Fe331 1.996 . S
O342 C348 1.255 . S
O343 Fe333 1.976 . S
O343 C338 1.287 . S
O344 Fe330 1.996 . S
O344 C338 1.255 . S
C345 O349 1.295 . S
C345 O350 1.235 . S
O346 Fe331 1.976 . S
O346 C340 1.287 . S
O347 Fe333 1.996 . S
O347 C340 1.255 . S
C348 O341 1.287 . S
C348 O342 1.255 . S
O349 Fe331 2.002 . S
O349 C345 1.295 . S
O350 Fe333 1.997 . S
O350 C345 1.235 . S
C351 O334 1.295 . S
C351 O335 1.235 . S
H352 C364 0.930 . S
H353 C366 0.930 . S
H354 C367 0.930 . S
H355 C371 0.959 . S
H356 C371 0.959 . S
H357 C371 0.961 1_554 S
H358 C372 0.960 1_545 S
H359 C372 0.961 . S
H360 C372 0.959 . S
H361 C375 0.926 1_544 S
H362 C376 0.931 . S
H363 C378 0.930 . S
C364 H352 0.930 . S
C364 C365 1.399 . S
C364 C369 1.399 . S
C365 C364 1.399 . S
C365 C366 1.376 . S
C366 H353 0.930 . S
C366 C365 1.376 . S
C366 C367 1.388 . S
C367 H354 0.930 . S
C367 C366 1.388 . S
C367 C368 1.390 . S
C368 C367 1.390 . S
C368 C369 1.394 . S
C368 C374 1.465 . S
C369 C364 1.399 . S
C369 C368 1.394 . S
C369 C370 1.516 . S
C370 C369 1.516 . S
C370 C371 1.502 1_554 S
C370 C372 1.561 1_545 S
C370 C373 1.537 1_545 S
C371 H355 0.959 . S
C371 H356 0.959 . S
C371 H357 0.961 1_556 S
C371 C370 1.502 1_556 S
C372 H358 0.960 1_565 S
C372 H359 0.961 . S
C372 H360 0.959 . S
C372 C370 1.561 1_565 S
C373 C370 1.537 1_565 S
C373 C374 1.403 1_565 S
C373 C378 1.374 1_554 S
C374 C368 1.465 . S
C374 C373 1.403 1_545 S
C374 C375 1.399 1_544 S
C375 H361 0.926 1_566 S
C375 C374 1.399 1_566 S
C375 C376 1.385 . S
C376 H362 0.931 . S
C376 C375 1.385 . S
C376 C377 1.389 . S
C377 C376 1.389 . S
C377 C378 1.387 . S
C378 H363 0.930 . S
C378 C373 1.374 1_556 S
C378 C377 1.387 . S
H379 C391 0.930 . S
H380 C393 0.927 1_554 S
H381 C394 0.930 . S
H382 C398 0.959 . S
H383 C398 0.959 . S
H384 C398 0.961 . S
H385 C399 0.960 . S
H386 C399 0.961 . S
H387 C399 0.959 . S
H388 C402 0.929 . S
H389 C403 0.931 . S
H390 C405 0.930 . S
C391 H379 0.930 . S
C391 C392 1.399 . S
C391 C396 1.399 1_545 S
C392 C391 1.399 . S
C392 C393 1.396 . S
C393 H380 0.927 1_556 S
C393 C392 1.396 . S
C393 C394 1.372 1_556 S
C394 H381 0.930 . S
C394 C393 1.372 1_554 S
C394 C395 1.390 1_545 S
C395 C394 1.390 1_565 S
C395 C396 1.394 1_554 S
C395 C401 1.465 . S
C396 C391 1.399 1_565 S
C396 C395 1.394 1_556 S
C396 C397 1.516 . S
C397 C396 1.516 . S
C397 C398 1.502 . S
C397 C399 1.561 . S
C397 C400 1.526 1_556 S
C398 H382 0.959 . S
C398 H383 0.959 . S
C398 H384 0.961 . S
C398 C397 1.502 . S
C399 H385 0.960 . S
C399 H386 0.961 . S
C399 H387 0.959 . S
C399 C397 1.561 . S
C400 C397 1.526 1_554 S
C400 C401 1.396 . S
C400 C405 1.390 . S
C401 C395 1.465 . S
C401 C400 1.396 . S
C401 C402 1.399 . S
C402 H388 0.929 . S
C402 C401 1.399 . S
C402 C403 1.385 . S
C403 H389 0.931 . S
C403 C402 1.385 . S
C403 C404 1.389 . S
C404 C403 1.389 . S
C404 C405 1.387 . S
C405 H390 0.930 . S
C405 C400 1.390 . S
C405 C404 1.387 . S
H406 C418 0.930 . S
H407 C420 0.930 . S
H408 C421 0.930 . S
H409 C425 0.959 1_565 S
H410 C425 0.959 . S
H411 C425 0.961 . S
H412 C426 0.960 . S
H413 C426 0.961 . S
H414 C426 0.959 . S
H415 C429 0.929 . S
H416 C430 0.931 . S
H417 C432 0.930 . S
C418 H406 0.930 . S
C418 C419 1.399 . S
C418 C423 1.399 . S
C419 C418 1.399 . S
C419 C420 1.376 . S
C420 H407 0.930 . S
C420 C419 1.376 . S
C420 C421 1.388 1_545 S
C421 H408 0.930 . S
C421 C420 1.388 1_565 S
C421 C422 1.390 . S
C422 C421 1.390 . S
C422 C423 1.394 1_565 S
C422 C428 1.465 . S
C423 C418 1.399 . S
C423 C422 1.394 1_545 S
C423 C424 1.516 1_545 S
C424 C423 1.516 1_565 S
C424 C425 1.502 1_565 S
C424 C426 1.561 1_565 S
C424 C427 1.526 . S
C425 H409 0.959 1_545 S
C425 H410 0.959 . S
C425 H411 0.961 . S
C425 C424 1.502 1_545 S
C426 H412 0.960 . S
C426 H413 0.961 . S
C426 H414 0.959 . S
C426 C424 1.561 1_545 S
C427 C424 1.526 . S
C427 C428 1.396 . S
C427 C432 1.390 . S
C428 C422 1.465 . S
C428 C427 1.396 . S
C428 C429 1.399 . S
C429 H415 0.929 . S
C429 C428 1.399 . S
C429 C430 1.385 . S
C430 H416 0.931 . S
C430 C429 1.385 . S
C430 C431 1.389 . S
C431 C430 1.389 . S
C431 C432 1.387 . S
C432 H417 0.930 . S
C432 C427 1.390 . S
C432 C431 1.387 . S
H433 C445 0.930 . S
H434 C447 0.930 . S
H435 C448 0.930 . S
H436 C452 0.959 . S
H437 C452 0.959 . S
H438 C452 0.961 . S
H439 C453 0.960 . S
H440 C453 0.961 . S
H441 C453 0.959 . S
H442 C456 0.929 . S
H443 C457 0.931 . S
H444 C459 0.930 . S
C445 H433 0.930 . S
C445 C446 1.399 . S
C445 C450 1.399 1_565 S
C446 C445 1.399 . S
C446 C447 1.376 . S
C447 H434 0.930 . S
C447 C446 1.376 . S
C447 C448 1.388 . S
C448 H435 0.930 . S
C448 C447 1.388 . S
C448 C449 1.390 1_565 S
C449 C448 1.390 1_545 S
C449 C450 1.394 . S
C449 C455 1.465 . S
C450 C445 1.399 1_545 S
C450 C449 1.394 . S
C450 C451 1.516 . S
C451 C450 1.516 . S
C451 C452 1.502 . S
C451 C453 1.561 . S
C451 C454 1.526 . S
C452 H436 0.959 . S
C452 H437 0.959 . S
C452 H438 0.961 . S
C452 C451 1.502 . S
C453 H439 0.960 . S
C453 H440 0.961 . S
C453 H441 0.959 . S
C453 C451 1.561 . S
C454 C451 1.526 . S
C454 C455 1.396 . S
C454 C459 1.390 . S
C455 C449 1.465 . S
C455 C454 1.396 . S
C455 C456 1.399 . S
C456 H442 0.929 . S
C456 C455 1.399 . S
C456 C457 1.385 . S
C457 H443 0.931 . S
C457 C456 1.385 . S
C457 C458 1.389 . S
C458 C457 1.389 . S
C458 C459 1.387 . S
C459 H444 0.930 . S
C459 C454 1.390 . S
C459 C458 1.387 . S
H460 C472 0.930 . S
H461 C474 0.937 . S
H462 C475 0.930 . S
H463 C479 0.959 . S
H464 C479 0.959 . S
H465 C479 0.961 . S
H466 C480 0.960 . S
H467 C480 0.961 . S
H468 C480 0.959 1_556 S
H469 C483 0.929 . S
H470 C484 0.931 . S
H471 C486 0.930 . S
C472 H460 0.930 . S
C472 C473 1.399 . S
C472 C477 1.399 1_545 S
C473 C472 1.399 . S
C473 C474 1.346 1_554 S
C474 H461 0.937 . S
C474 C473 1.346 1_556 S
C474 C475 1.413 . S
C475 H462 0.930 . S
C475 C474 1.413 . S
C475 C476 1.391 1_545 S
C476 C475 1.391 1_565 S
C476 C477 1.393 1_556 S
C476 C482 1.464 . S
C477 C472 1.399 1_565 S
C477 C476 1.393 1_554 S
C477 C478 1.516 . S
C478 C477 1.516 . S
C478 C479 1.502 . S
C478 C480 1.561 . S
C478 C481 1.526 1_554 S
C479 H463 0.959 . S
C479 H464 0.959 . S
C479 H465 0.961 . S
C479 C478 1.502 . S
C480 H466 0.960 . S
C480 H467 0.961 . S
C480 H468 0.959 1_554 S
C480 C478 1.561 . S
C481 C478 1.526 1_556 S
C481 C482 1.396 . S
C481 C486 1.390 . S
C482 C476 1.464 . S
C482 C481 1.396 . S
C482 C483 1.399 . S
C483 H469 0.929 . S
C483 C482 1.399 . S
C483 C484 1.385 . S
C484 H470 0.931 . S
C484 C483 1.385 . S
C484 C485 1.389 . S
C485 C484 1.389 . S
C485 C486 1.387 . S
C486 H471 0.930 . S
C486 C481 1.390 . S
C486 C485 1.387 . S
H487 C499 0.930 . S
H488 C501 0.930 . S
H489 C502 0.930 . S
H490 C506 0.959 1_565 S
H491 C506 0.959 1_565 S
H492 C506 0.961 . S
H493 C507 0.960 . S
H494 C507 0.961 . S
H495 C507 0.959 . S
H496 C510 0.929 1_546 S
H497 C511 0.931 . S
H498 C513 0.930 . S
C499 H487 0.930 . S
C499 C500 1.399 . S
C499 C504 1.399 . S
C500 C499 1.399 . S
C500 C501 1.376 . S
C501 H488 0.930 . S
C501 C500 1.376 . S
C501 C502 1.388 . S
C502 H489 0.930 . S
C502 C501 1.388 . S
C502 C503 1.390 . S
C503 C502 1.390 . S
C503 C504 1.394 . S
C503 C509 1.465 . S
C504 C499 1.399 . S
C504 C503 1.394 . S
C504 C505 1.516 . S
C505 C504 1.516 . S
C505 C506 1.502 . S
C505 C507 1.561 1_556 S
C505 C508 1.526 1_556 S
C506 H490 0.959 1_545 S
C506 H491 0.959 1_545 S
C506 H492 0.961 . S
C506 C505 1.502 . S
C507 H493 0.960 . S
C507 H494 0.961 . S
C507 H495 0.959 . S
C507 C505 1.561 1_554 S
C508 C505 1.526 1_554 S
C508 C509 1.396 1_554 S
C508 C513 1.390 1_545 S
C509 C503 1.465 . S
C509 C508 1.396 1_556 S
C509 C510 1.399 1_546 S
C510 H496 0.929 1_564 S
C510 C509 1.399 1_564 S
C510 C511 1.385 . S
C511 H497 0.931 . S
C511 C510 1.385 . S
C511 C512 1.389 . S
C512 C511 1.389 . S
C512 C513 1.387 . S
C513 H498 0.930 . S
C513 C508 1.390 1_565 S
C513 C512 1.387 . S
H514 C526 0.930 . S
H515 C528 0.930 . S
H516 C529 0.930 . S
H517 C533 0.959 . S
H518 C533 0.959 . S
H519 C533 0.961 . S
H520 C534 0.960 1_565 S
H521 C534 0.961 . S
H522 C534 0.970 . S
H523 C537 0.929 . S
H524 C538 0.931 . S
H525 C540 0.930 . S
C526 H514 0.930 . S
C526 C527 1.399 . S
C526 C531 1.399 1_565 S
C527 C526 1.399 . S
C527 C528 1.376 . S
C528 H515 0.930 . S
C528 C527 1.376 . S
C528 C529 1.388 . S
C529 H516 0.930 . S
C529 C528 1.388 . S
C529 C530 1.390 1_565 S
C530 C529 1.390 1_545 S
C530 C531 1.394 . S
C530 C536 1.465 . S
C531 C526 1.399 1_545 S
C531 C530 1.394 . S
C531 C532 1.516 . S
C532 C531 1.516 . S
C532 C533 1.502 . S
C532 C534 1.561 . S
C532 C535 1.526 . S
C533 H517 0.959 . S
C533 H518 0.959 . S
C533 H519 0.961 . S
C533 C532 1.502 . S
C534 H520 0.960 1_545 S
C534 H521 0.961 . S
C534 H522 0.970 . S
C534 C532 1.561 . S
C535 C532 1.526 . S
C535 C536 1.396 . S
C535 C540 1.390 . S
C536 C530 1.465 . S
C536 C535 1.396 . S
C536 C537 1.399 . S
C537 H523 0.929 . S
C537 C536 1.399 . S
C537 C538 1.385 . S
C538 H524 0.931 . S
C538 C537 1.385 . S
C538 C539 1.389 . S
C539 C538 1.389 . S
C539 C540 1.387 . S
C540 H525 0.930 . S
C540 C535 1.390 . S
C540 C539 1.387 . S
H541 C553 0.930 . S
H542 C555 0.930 . S
H543 C556 0.930 . S
H544 C560 0.959 1_565 S
H545 C560 0.959 . S
H546 C560 0.961 1_565 S
H547 C561 0.960 . S
H548 C561 0.961 . S
H549 C561 0.959 . S
H550 C564 0.929 . S
H551 C565 0.931 . S
H552 C567 0.930 . S
C553 H541 0.930 . S
C553 C554 1.399 . S
C553 C558 1.399 . S
C554 C553 1.399 . S
C554 C555 1.376 . S
C555 H542 0.930 . S
C555 C554 1.376 . S
C555 C556 1.388 . S
C556 H543 0.930 . S
C556 C555 1.388 . S
C556 C557 1.390 . S
C557 C556 1.390 . S
C557 C558 1.394 . S
C557 C563 1.465 . S
C558 C553 1.399 . S
C558 C557 1.394 . S
C558 C559 1.516 . S
C559 C558 1.516 . S
C559 C560 1.502 1_565 S
C559 C561 1.561 1_565 S
C559 C562 1.526 1_565 S
C560 H544 0.959 1_545 S
C560 H545 0.959 . S
C560 H546 0.961 1_545 S
C560 C559 1.502 1_545 S
C561 H547 0.960 . S
C561 H548 0.961 . S
C561 H549 0.959 . S
C561 C559 1.561 1_545 S
C562 C559 1.526 1_545 S
C562 C563 1.396 1_545 S
C562 C567 1.390 . S
C563 C557 1.465 . S
C563 C562 1.396 1_565 S
C563 C564 1.399 . S
C564 H550 0.929 . S
C564 C563 1.399 . S
C564 C565 1.385 1_565 S
C565 H551 0.931 . S
C565 C564 1.385 1_545 S
C565 C566 1.389 . S
C566 C565 1.389 . S
C566 C567 1.387 . S
C567 H552 0.930 . S
C567 C562 1.390 . S
C567 C566 1.387 . S
H568 C580 0.930 . S
H569 C582 0.930 1_554 S
H570 C583 0.930 . S
H571 C587 0.959 . S
H572 C587 0.959 . S
H573 C587 0.961 . S
H574 C588 0.960 . S
H575 C588 0.961 . S
H576 C588 0.959 . S
H577 C591 0.929 . S
H578 C592 0.931 . S
H579 C594 0.930 . S
C580 H568 0.930 . S
C580 C581 1.399 . S
C580 C585 1.399 . S
C581 C580 1.399 . S
C581 C582 1.376 . S
C582 H569 0.930 1_556 S
C582 C581 1.376 . S
C582 C583 1.388 1_556 S
C583 H570 0.930 . S
C583 C582 1.388 1_554 S
C583 C584 1.390 . S
C584 C583 1.390 . S
C584 C585 1.394 1_554 S
C584 C590 1.465 . S
C585 C580 1.399 . S
C585 C584 1.394 1_556 S
C585 C586 1.516 . S
C586 C585 1.516 . S
C586 C587 1.502 . S
C586 C588 1.561 . S
C586 C589 1.526 1_556 S
C587 H571 0.959 . S
C587 H572 0.959 . S
C587 H573 0.961 . S
C587 C586 1.502 . S
C588 H574 0.960 . S
C588 H575 0.961 . S
C588 H576 0.959 . S
C588 C586 1.561 . S
C589 C586 1.526 1_554 S
C589 C590 1.396 . S
C589 C594 1.390 . S
C590 C584 1.465 . S
C590 C589 1.396 . S
C590 C591 1.399 . S
C591 H577 0.929 . S
C591 C590 1.399 . S
C591 C592 1.385 . S
C592 H578 0.931 . S
C592 C591 1.385 . S
C592 C593 1.389 . S
C593 C592 1.389 . S
C593 C594 1.387 . S
C594 H579 0.930 . S
C594 C589 1.390 . S
C594 C593 1.387 . S
H595 C607 0.930 . S
H596 C609 0.930 . S
H597 C610 0.930 . S
H598 C614 0.959 . S
H599 C614 0.959 . S
H600 C614 0.961 . S
H601 C615 0.960 . S
H602 C615 0.966 . S
H603 C615 0.959 1_556 S
H604 C618 0.929 . S
H605 C619 0.931 . S
H606 C621 0.930 . S
C607 H595 0.930 . S
C607 C608 1.399 . S
C607 C612 1.399 . S
C608 C607 1.399 . S
C608 C609 1.376 . S
C609 H596 0.930 . S
C609 C608 1.376 . S
C609 C610 1.388 . S
C610 H597 0.930 . S
C610 C609 1.388 . S
C610 C611 1.390 . S
C611 C610 1.390 . S
C611 C612 1.394 . S
C611 C617 1.465 1_554 S
C612 C607 1.399 . S
C612 C611 1.394 . S
C612 C613 1.516 . S
C613 C612 1.516 . S
C613 C614 1.502 . S
C613 C615 1.561 . S
C613 C616 1.526 . S
C614 H598 0.959 . S
C614 H599 0.959 . S
C614 H600 0.961 . S
C614 C613 1.502 . S
C615 H601 0.960 . S
C615 H602 0.966 . S
C615 H603 0.959 1_554 S
C615 C613 1.561 . S
C616 C613 1.526 . S
C616 C617 1.396 1_554 S
C616 C621 1.390 1_554 S
C617 C611 1.465 1_556 S
C617 C616 1.396 1_556 S
C617 C618 1.399 . S
C618 H604 0.929 . S
C618 C617 1.399 . S
C618 C619 1.385 . S
C619 H605 0.931 . S
C619 C618 1.385 . S
C619 C620 1.389 . S
C620 C619 1.389 . S
C620 C621 1.387 . S
C621 H606 0.930 . S
C621 C616 1.390 1_556 S
C621 C620 1.387 . S
H622 C634 0.930 . S
H623 C636 0.930 . S
H624 C637 0.930 . S
H625 C641 0.959 . S
H626 C641 0.959 . S
H627 C641 0.961 . S
H628 C642 0.960 . S
H629 C642 0.961 . S
H630 C642 0.959 . S
H631 C645 0.929 . S
H632 C646 0.931 . S
H633 C648 0.930 . S
C634 H622 0.930 . S
C634 C635 1.399 . S
C634 C639 1.399 . S
C635 C634 1.399 . S
C635 C636 1.376 . S
C636 H623 0.930 . S
C636 C635 1.376 . S
C636 C637 1.388 . S
C637 H624 0.930 . S
C637 C636 1.388 . S
C637 C638 1.390 . S
C638 C637 1.390 . S
C638 C639 1.394 . S
C638 C644 1.465 . S
C639 C634 1.399 . S
C639 C638 1.394 . S
C639 C640 1.516 . S
C640 C639 1.516 . S
C640 C641 1.502 . S
C640 C642 1.561 . S
C640 C643 1.526 . S
C641 H625 0.959 . S
C641 H626 0.959 . S
C641 H627 0.961 . S
C641 C640 1.502 . S
C642 H628 0.960 . S
C642 H629 0.961 . S
C642 H630 0.959 . S
C642 C640 1.561 . S
C643 C640 1.526 . S
C643 C644 1.396 . S
C643 C648 1.390 . S
C644 C638 1.465 . S
C644 C643 1.396 . S
C644 C645 1.399 . S
C645 H631 0.929 . S
C645 C644 1.399 . S
C645 C646 1.385 . S
C646 H632 0.931 . S
C646 C645 1.385 . S
C646 C647 1.389 . S
C647 C646 1.389 . S
C647 C648 1.387 . S
C648 H633 0.930 . S
C648 C643 1.390 . S
C648 C647 1.387 . S
H649 C661 0.930 . S
H650 C663 0.930 . S
H651 C664 0.930 . S
H652 C668 0.959 . S
H653 C668 0.959 . S
H654 C668 0.961 . S
H655 C669 0.960 . S
H656 C669 0.961 . S
H657 C669 0.959 . S
H658 C672 0.929 . S
H659 C673 0.931 . S
H660 C675 0.930 . S
C661 H649 0.930 . S
C661 C662 1.399 . S
C661 C666 1.399 . S
C662 C661 1.399 . S
C662 C663 1.376 . S
C663 H650 0.930 . S
C663 C662 1.376 . S
C663 C664 1.388 . S
C664 H651 0.930 . S
C664 C663 1.388 . S
C664 C665 1.390 . S
C665 C664 1.390 . S
C665 C666 1.394 . S
C665 C671 1.465 . S
C666 C661 1.399 . S
C666 C665 1.394 . S
C666 C667 1.516 . S
C667 C666 1.516 . S
C667 C668 1.502 . S
C667 C669 1.561 . S
C667 C670 1.526 . S
C668 H652 0.959 . S
C668 H653 0.959 . S
C668 H654 0.961 . S
C668 C667 1.502 . S
C669 H655 0.960 . S
C669 H656 0.961 . S
C669 H657 0.959 . S
C669 C667 1.561 . S
C670 C667 1.526 . S
C670 C671 1.396 . S
C670 C675 1.390 . S
C671 C665 1.465 . S
C671 C670 1.396 . S
C671 C672 1.399 . S
C672 H658 0.929 . S
C672 C671 1.399 . S
C672 C673 1.385 . S
C673 H659 0.931 . S
C673 C672 1.385 . S
C673 C674 1.389 . S
C674 C673 1.389 . S
C674 C675 1.387 . S
C675 H660 0.930 . S
C675 C670 1.390 . S
C675 C674 1.387 . S
H676 C688 0.930 . S
H677 C690 0.930 . S
H678 C691 0.930 . S
H679 C695 0.959 . S
H680 C695 0.959 . S
H681 C695 0.961 . S
H682 C696 0.960 . S
H683 C696 0.961 . S
H684 C696 0.959 . S
H685 C699 0.929 . S
H686 C700 0.933 . S
H687 C702 0.930 . S
C688 H676 0.930 . S
C688 C689 1.399 . S
C688 C693 1.399 . S
C689 C688 1.399 . S
C689 C690 1.376 . S
C690 H677 0.930 . S
C690 C689 1.376 . S
C690 C691 1.388 . S
C691 H678 0.930 . S
C691 C690 1.388 . S
C691 C692 1.390 . S
C692 C691 1.390 . S
C692 C693 1.394 . S
C692 C698 1.465 . S
C693 C688 1.399 . S
C693 C692 1.394 . S
C693 C694 1.516 1_556 S
C694 C693 1.516 1_554 S
C694 C695 1.502 . S
C694 C696 1.561 . S
C694 C697 1.526 . S
C695 H679 0.959 . S
C695 H680 0.959 . S
C695 H681 0.961 . S
C695 C694 1.502 . S
C696 H682 0.960 . S
C696 H683 0.961 . S
C696 H684 0.959 . S
C696 C694 1.561 . S
C697 C694 1.526 . S
C697 C698 1.396 1_554 S
C697 C702 1.390 . S
C698 C692 1.465 . S
C698 C697 1.396 1_556 S
C698 C699 1.399 . S
C699 H685 0.929 . S
C699 C698 1.399 . S
C699 C700 1.395 . S
C700 H686 0.933 . S
C700 C699 1.395 . S
C700 C701 1.377 1_556 S
C701 C700 1.377 1_554 S
C701 C702 1.387 . S
C702 H687 0.930 . S
C702 C697 1.390 . S
C702 C701 1.387 . S
H703 C715 0.930 . S
H704 C717 0.930 . S
H705 C718 0.930 . S
H706 C722 0.959 . S
H707 C722 0.959 . S
H708 C722 0.961 . S
H709 C723 0.960 . S
H710 C723 0.961 . S
H711 C723 0.955 1_554 S
H712 C726 0.929 . S
H713 C727 0.931 . S
H714 C729 0.930 . S
C715 H703 0.930 . S
C715 C716 1.399 . S
C715 C720 1.399 1_554 S
C716 C715 1.399 . S
C716 C717 1.376 . S
C717 H704 0.930 . S
C717 C716 1.376 . S
C717 C718 1.388 . S
C718 H705 0.930 . S
C718 C717 1.388 . S
C718 C719 1.390 . S
C719 C718 1.390 . S
C719 C720 1.394 1_554 S
C719 C725 1.465 1_554 S
C720 C715 1.399 1_556 S
C720 C719 1.394 1_556 S
C720 C721 1.516 . S
C721 C720 1.516 . S
C721 C722 1.502 . S
C721 C723 1.561 . S
C721 C724 1.526 . S
C722 H706 0.959 . S
C722 H707 0.959 . S
C722 H708 0.961 . S
C722 C721 1.502 . S
C723 H709 0.960 . S
C723 H710 0.961 . S
C723 H711 0.955 1_556 S
C723 C721 1.561 . S
C724 C721 1.526 . S
C724 C725 1.396 . S
C724 C729 1.390 . S
C725 C719 1.465 1_556 S
C725 C724 1.396 . S
C725 C726 1.399 . S
C726 H712 0.929 . S
C726 C725 1.399 . S
C726 C727 1.385 . S
C727 H713 0.931 . S
C727 C726 1.385 . S
C727 C728 1.389 . S
C728 C727 1.389 . S
C728 C729 1.387 . S
C729 H714 0.930 . S
C729 C724 1.390 . S
C729 C728 1.387 . S
H730 C742 0.930 . S
H731 C744 0.930 . S
H732 C745 0.930 . S
H733 C749 0.959 . S
H734 C749 0.959 . S
H735 C749 0.961 . S
H736 C750 0.960 . S
H737 C750 0.961 . S
H738 C750 0.959 . S
H739 C753 0.929 . S
H740 C754 0.931 . S
H741 C756 0.930 . S
C742 H730 0.930 . S
C742 C743 1.399 . S
C742 C747 1.399 . S
C743 C742 1.399 . S
C743 C744 1.376 . S
C744 H731 0.930 . S
C744 C743 1.376 . S
C744 C745 1.388 . S
C745 H732 0.930 . S
C745 C744 1.388 . S
C745 C746 1.390 . S
C746 C745 1.390 . S
C746 C747 1.394 . S
C746 C752 1.465 . S
C747 C742 1.399 . S
C747 C746 1.394 . S
C747 C748 1.516 . S
C748 C747 1.516 . S
C748 C749 1.502 . S
C748 C750 1.561 . S
C748 C751 1.526 . S
C749 H733 0.959 . S
C749 H734 0.959 . S
C749 H735 0.961 . S
C749 C748 1.502 . S
C750 H736 0.960 . S
C750 H737 0.961 . S
C750 H738 0.959 . S
C750 C748 1.561 . S
C751 C748 1.526 . S
C751 C752 1.396 . S
C751 C756 1.390 . S
C752 C746 1.465 . S
C752 C751 1.396 . S
C752 C753 1.399 . S
C753 H739 0.929 . S
C753 C752 1.399 . S
C753 C754 1.385 . S
C754 H740 0.931 . S
C754 C753 1.385 . S
C754 C755 1.389 . S
C755 C754 1.389 . S
C755 C756 1.387 . S
C756 H741 0.930 . S
C756 C751 1.390 . S
C756 C755 1.387 . S
H757 C769 0.930 . S
H758 C771 0.930 . S
H759 C772 0.930 . S
H760 C776 0.959 . S
H761 C776 0.959 . S
H762 C776 0.961 . S
H763 C777 0.960 . S
H764 C777 0.961 . S
H765 C777 0.959 . S
H766 C780 0.929 . S
H767 C781 0.931 . S
H768 C783 0.930 . S
C769 H757 0.930 . S
C769 C770 1.399 . S
C769 C774 1.399 . S
C770 C769 1.399 . S
C770 C771 1.376 . S
C771 H758 0.930 . S
C771 C770 1.376 . S
C771 C772 1.388 . S
C772 H759 0.930 . S
C772 C771 1.388 . S
C772 C773 1.390 . S
C773 C772 1.390 . S
C773 C774 1.394 . S
C773 C779 1.465 . S
C774 C769 1.399 . S
C774 C773 1.394 . S
C774 C775 1.516 . S
C775 C774 1.516 . S
C775 C776 1.502 . S
C775 C777 1.561 . S
C775 C778 1.526 . S
C776 H760 0.959 . S
C776 H761 0.959 . S
C776 H762 0.961 . S
C776 C775 1.502 . S
C777 H763 0.960 . S
C777 H764 0.961 . S
C777 H765 0.959 . S
C777 C775 1.561 . S
C778 C775 1.526 . S
C778 C779 1.396 . S
C778 C783 1.390 . S
C779 C773 1.465 . S
C779 C778 1.396 . S
C779 C780 1.399 . S
C780 H766 0.929 . S
C780 C779 1.399 . S
C780 C781 1.385 . S
C781 H767 0.931 . S
C781 C780 1.385 . S
C781 C782 1.389 . S
C782 C781 1.389 . S
C782 C783 1.387 . S
C783 H768 0.930 . S
C783 C778 1.390 . S
C783 C782 1.387 . S
H784 C796 0.930 . S
H785 C798 0.930 . S
H786 C799 0.930 . S
H787 C803 0.959 . S
H788 C803 0.959 . S
H789 C803 0.961 . S
H790 C804 0.960 . S
H791 C804 0.961 . S
H792 C804 0.959 . S
H793 C807 0.929 . S
H794 C808 0.931 . S
H795 C810 0.930 . S
C796 H784 0.930 . S
C796 C797 1.399 . S
C796 C801 1.399 . S
C797 C796 1.399 . S
C797 C798 1.376 . S
C798 H785 0.930 . S
C798 C797 1.376 . S
C798 C799 1.388 . S
C799 H786 0.930 . S
C799 C798 1.388 . S
C799 C800 1.390 . S
C800 C799 1.390 . S
C800 C801 1.394 . S
C800 C806 1.465 . S
C801 C796 1.399 . S
C801 C800 1.394 . S
C801 C802 1.516 . S
C802 C801 1.516 . S
C802 C803 1.502 . S
C802 C804 1.561 . S
C802 C805 1.526 . S
C803 H787 0.959 . S
C803 H788 0.959 . S
C803 H789 0.961 . S
C803 C802 1.502 . S
C804 H790 0.960 . S
C804 H791 0.961 . S
C804 H792 0.959 . S
C804 C802 1.561 . S
C805 C802 1.526 . S
C805 C806 1.396 . S
C805 C810 1.390 . S
C806 C800 1.465 . S
C806 C805 1.396 . S
C806 C807 1.399 . S
C807 H793 0.929 . S
C807 C806 1.399 . S
C807 C808 1.385 . S
C808 H794 0.931 . S
C808 C807 1.385 . S
C808 C809 1.389 . S
C809 C808 1.389 . S
C809 C810 1.387 . S
C810 H795 0.930 . S
C810 C805 1.390 . S
C810 C809 1.387 . S
H811 C823 0.930 . S
H812 C825 0.930 . S
H813 C826 0.930 . S
H814 C830 0.959 . S
H815 C830 0.959 . S
H816 C830 0.961 . S
H817 C831 0.960 . S
H818 C831 0.961 . S
H819 C831 0.959 . S
H820 C834 0.929 . S
H821 C835 0.931 . S
H822 C837 0.930 . S
C823 H811 0.930 . S
C823 C824 1.399 . S
C823 C828 1.399 . S
C824 C823 1.399 . S
C824 C825 1.376 . S
C825 H812 0.930 . S
C825 C824 1.376 . S
C825 C826 1.388 . S
C826 H813 0.930 . S
C826 C825 1.388 . S
C826 C827 1.390 . S
C827 C826 1.390 . S
C827 C828 1.394 . S
C827 C833 1.465 . S
C828 C823 1.399 . S
C828 C827 1.394 . S
C828 C829 1.516 . S
C829 C828 1.516 . S
C829 C830 1.502 . S
C829 C831 1.561 . S
C829 C832 1.526 . S
C830 H814 0.959 . S
C830 H815 0.959 . S
C830 H816 0.961 . S
C830 C829 1.502 . S
C831 H817 0.960 . S
C831 H818 0.961 . S
C831 H819 0.959 . S
C831 C829 1.561 . S
C832 C829 1.526 . S
C832 C833 1.396 . S
C832 C837 1.390 . S
C833 C827 1.465 . S
C833 C832 1.396 . S
C833 C834 1.399 . S
C834 H820 0.929 . S
C834 C833 1.399 . S
C834 C835 1.385 . S
C835 H821 0.931 . S
C835 C834 1.385 . S
C835 C836 1.389 . S
C836 C835 1.389 . S
C836 C837 1.387 . S
C837 H822 0.930 . S
C837 C832 1.390 . S
C837 C836 1.387 . S
H838 C850 0.930 . S
H839 C852 0.930 . S
H840 C853 0.930 . S
H841 C857 0.959 . S
H842 C857 0.959 . S
H843 C857 0.961 . S
H844 C858 0.960 . S
H845 C858 0.961 . S
H846 C858 0.959 . S
H847 C861 0.929 . S
H848 C862 0.931 . S
H849 C864 0.930 . S
C850 H838 0.930 . S
C850 C851 1.399 . S
C850 C855 1.399 . S
C851 C850 1.399 . S
C851 C852 1.376 . S
C852 H839 0.930 . S
C852 C851 1.376 . S
C852 C853 1.388 . S
C853 H840 0.930 . S
C853 C852 1.388 . S
C853 C854 1.390 . S
C854 C853 1.390 . S
C854 C855 1.394 . S
C854 C860 1.465 . S
C855 C850 1.399 . S
C855 C854 1.394 . S
C855 C856 1.516 . S
C856 C855 1.516 . S
C856 C857 1.502 . S
C856 C858 1.561 . S
C856 C859 1.526 . S
C857 H841 0.959 . S
C857 H842 0.959 . S
C857 H843 0.961 . S
C857 C856 1.502 . S
C858 H844 0.960 . S
C858 H845 0.961 . S
C858 H846 0.959 . S
C858 C856 1.561 . S
C859 C856 1.526 . S
C859 C860 1.396 . S
C859 C864 1.390 . S
C860 C854 1.465 . S
C860 C859 1.396 . S
C860 C861 1.399 . S
C861 H847 0.929 . S
C861 C860 1.399 . S
C861 C862 1.385 . S
C862 H848 0.931 . S
C862 C861 1.385 . S
C862 C863 1.389 . S
C863 C862 1.389 . S
C863 C864 1.387 . S
C864 H849 0.930 . S
C864 C859 1.390 . S
C864 C863 1.387 . S
H865 C877 0.930 . S
H866 C879 0.930 . S
H867 C880 0.930 . S
H868 C884 0.959 . S
H869 C884 0.959 . S
H870 C884 0.961 . S
H871 C885 0.960 . S
H872 C885 0.961 . S
H873 C885 0.959 . S
H874 C888 0.929 . S
H875 C889 0.931 . S
H876 C891 0.930 . S
C877 H865 0.930 . S
C877 C878 1.399 . S
C877 C882 1.399 . S
C878 C877 1.399 . S
C878 C879 1.376 . S
C879 H866 0.930 . S
C879 C878 1.376 . S
C879 C880 1.388 . S
C880 H867 0.930 . S
C880 C879 1.388 . S
C880 C881 1.390 . S
C881 C880 1.390 . S
C881 C882 1.394 . S
C881 C887 1.465 . S
C882 C877 1.399 . S
C882 C881 1.394 . S
C882 C883 1.516 . S
C883 C882 1.516 . S
C883 C884 1.502 . S
C883 C885 1.561 . S
C883 C886 1.526 . S
C884 H868 0.959 . S
C884 H869 0.959 . S
C884 H870 0.961 . S
C884 C883 1.502 . S
C885 H871 0.960 . S
C885 H872 0.961 . S
C885 H873 0.959 . S
C885 C883 1.561 . S
C886 C883 1.526 . S
C886 C887 1.396 . S
C886 C891 1.390 . S
C887 C881 1.465 . S
C887 C886 1.396 . S
C887 C888 1.399 . S
C888 H874 0.929 . S
C888 C887 1.399 . S
C888 C889 1.385 . S
C889 H875 0.931 . S
C889 C888 1.385 . S
C889 C890 1.389 . S
C890 C889 1.389 . S
C890 C891 1.387 . S
C891 H876 0.930 . S
C891 C886 1.390 . S
C891 C890 1.387 . S
H892 C904 0.930 . S
H893 C906 0.930 . S
H894 C907 0.930 . S
H895 C911 0.959 . S
H896 C911 0.959 . S
H897 C911 0.961 . S
H898 C912 0.960 . S
H899 C912 0.961 . S
H900 C912 0.959 . S
H901 C915 0.929 . S
H902 C916 0.931 . S
H903 C918 0.930 . S
C904 H892 0.930 . S
C904 C905 1.399 . S
C904 C909 1.399 . S
C905 C904 1.399 . S
C905 C906 1.376 . S
C906 H893 0.930 . S
C906 C905 1.376 . S
C906 C907 1.388 . S
C907 H894 0.930 . S
C907 C906 1.388 . S
C907 C908 1.390 . S
C908 C907 1.390 . S
C908 C909 1.394 . S
C908 C914 1.465 . S
C909 C904 1.399 . S
C909 C908 1.394 . S
C909 C910 1.516 . S
C910 C909 1.516 . S
C910 C911 1.502 . S
C910 C912 1.561 . S
C910 C913 1.526 . S
C911 H895 0.959 . S
C911 H896 0.959 . S
C911 H897 0.961 . S
C911 C910 1.502 . S
C912 H898 0.960 . S
C912 H899 0.961 . S
C912 H900 0.959 . S
C912 C910 1.561 . S
C913 C910 1.526 . S
C913 C914 1.396 . S
C913 C918 1.390 . S
C914 C908 1.465 . S
C914 C913 1.396 . S
C914 C915 1.399 . S
C915 H901 0.929 . S
C915 C914 1.399 . S
C915 C916 1.385 . S
C916 H902 0.931 . S
C916 C915 1.385 . S
C916 C917 1.389 . S
C917 C916 1.389 . S
C917 C918 1.387 . S
C918 H903 0.930 . S
C918 C913 1.390 . S
C918 C917 1.387 . S
H919 C931 0.930 . S
H920 C933 0.930 . S
H921 C934 0.930 . S
H922 C938 0.959 . S
H923 C938 0.959 . S
H924 C938 0.961 . S
H925 C939 0.960 . S
H926 C939 0.961 . S
H927 C939 0.959 . S
H928 C942 0.929 . S
H929 C943 0.931 . S
H930 C945 0.930 . S
C931 H919 0.930 . S
C931 C932 1.399 . S
C931 C936 1.399 . S
C932 C931 1.399 . S
C932 C933 1.376 . S
C933 H920 0.930 . S
C933 C932 1.376 . S
C933 C934 1.388 . S
C934 H921 0.930 . S
C934 C933 1.388 . S
C934 C935 1.390 . S
C935 C934 1.390 . S
C935 C936 1.394 . S
C935 C941 1.465 . S
C936 C931 1.399 . S
C936 C935 1.394 . S
C936 C937 1.516 . S
C937 C936 1.516 . S
C937 C938 1.502 . S
C937 C939 1.561 . S
C937 C940 1.526 . S
C938 H922 0.959 . S
C938 H923 0.959 . S
C938 H924 0.961 . S
C938 C937 1.502 . S
C939 H925 0.960 . S
C939 H926 0.961 . S
C939 H927 0.959 . S
C939 C937 1.561 . S
C940 C937 1.526 . S
C940 C941 1.396 . S
C940 C945 1.390 . S
C941 C935 1.465 . S
C941 C940 1.396 . S
C941 C942 1.399 . S
C942 H928 0.929 . S
C942 C941 1.399 . S
C942 C943 1.385 . S
C943 H929 0.931 . S
C943 C942 1.385 . S
C943 C944 1.389 . S
C944 C943 1.389 . S
C944 C945 1.387 . S
C945 H930 0.930 . S
C945 C940 1.390 . S
C945 C944 1.387 . S
H946 C958 0.930 . S
H947 C960 0.930 . S
H948 C961 0.930 . S
H949 C965 0.959 . S
H950 C965 0.959 . S
H951 C965 0.961 . S
H952 C966 0.960 . S
H953 C966 0.961 . S
H954 C966 0.959 . S
H955 C969 0.929 . S
H956 C970 0.931 . S
H957 C972 0.930 . S
C958 H946 0.930 . S
C958 C959 1.399 . S
C958 C963 1.399 . S
C959 C958 1.399 . S
C959 C960 1.376 . S
C960 H947 0.930 . S
C960 C959 1.376 . S
C960 C961 1.388 . S
C961 H948 0.930 . S
C961 C960 1.388 . S
C961 C962 1.390 . S
C962 C961 1.390 . S
C962 C963 1.394 . S
C962 C968 1.465 . S
C963 C958 1.399 . S
C963 C962 1.394 . S
C963 C964 1.516 . S
C964 C963 1.516 . S
C964 C965 1.502 . S
C964 C966 1.561 . S
C964 C967 1.526 . S
C965 H949 0.959 . S
C965 H950 0.959 . S
C965 H951 0.961 . S
C965 C964 1.502 . S
C966 H952 0.960 . S
C966 H953 0.961 . S
C966 H954 0.959 . S
C966 C964 1.561 . S
C967 C964 1.526 . S
C967 C968 1.396 . S
C967 C972 1.390 . S
C968 C962 1.465 . S
C968 C967 1.396 . S
C968 C969 1.399 . S
C969 H955 0.929 . S
C969 C968 1.399 . S
C969 C970 1.385 . S
C970 H956 0.931 . S
C970 C969 1.385 . S
C970 C971 1.389 . S
C971 C970 1.389 . S
C971 C972 1.387 . S
C972 H957 0.930 . S
C972 C967 1.390 . S
C972 C971 1.387 . S
H973 C985 0.930 . S
H974 C987 0.930 . S
H975 C988 0.930 . S
H976 C992 0.959 . S
H977 C992 0.959 . S
H978 C992 0.961 . S
H979 C993 0.960 . S
H980 C993 0.961 . S
H981 C993 0.959 . S
H982 C996 0.929 . S
H983 C997 0.931 . S
H984 C999 0.930 . S
C985 H973 0.930 . S
C985 C986 1.399 . S
C985 C990 1.399 . S
C986 C985 1.399 . S
C986 C987 1.376 . S
C987 H974 0.930 . S
C987 C986 1.376 . S
C987 C988 1.388 . S
C988 H975 0.930 . S
C988 C987 1.388 . S
C988 C989 1.390 . S
C989 C988 1.390 . S
C989 C990 1.394 . S
C989 C995 1.465 . S
C990 C985 1.399 . S
C990 C989 1.394 . S
C990 C991 1.516 . S
C991 C990 1.516 . S
C991 C992 1.502 . S
C991 C993 1.561 . S
C991 C994 1.526 . S
C992 H976 0.959 . S
C992 H977 0.959 . S
C992 H978 0.961 . S
C992 C991 1.502 . S
C993 H979 0.960 . S
C993 H980 0.961 . S
C993 H981 0.959 . S
C993 C991 1.561 . S
C994 C991 1.526 . S
C994 C995 1.396 . S
C994 C999 1.390 . S
C995 C989 1.465 . S
C995 C994 1.396 . S
C995 C996 1.399 . S
C996 H982 0.929 . S
C996 C995 1.399 . S
C996 C997 1.385 . S
C997 H983 0.931 . S
C997 C996 1.385 . S
C997 C998 1.389 . S
C998 C997 1.389 . S
C998 C999 1.387 . S
C999 H984 0.930 . S
C999 C994 1.390 . S
C999 C998 1.387 . S
H1000 C1012 0.930 . S
H1001 C1014 0.930 . S
H1002 C1015 0.930 . S
H1003 C1019 0.959 . S
H1004 C1019 0.959 . S
H1005 C1019 0.961 . S
H1006 C1020 0.960 . S
H1007 C1020 0.961 . S
H1008 C1020 0.959 . S
H1009 C1023 0.929 . S
H1010 C1024 0.931 . S
H1011 C1026 0.930 . S
C1012 H1000 0.930 . S
C1012 C1013 1.399 . S
C1012 C1017 1.399 . S
C1013 C1012 1.399 . S
C1013 C1014 1.376 . S
C1014 H1001 0.930 . S
C1014 C1013 1.376 . S
C1014 C1015 1.388 . S
C1015 H1002 0.930 . S
C1015 C1014 1.388 . S
C1015 C1016 1.390 . S
C1016 C1015 1.390 . S
C1016 C1017 1.394 . S
C1016 C1022 1.465 . S
C1017 C1012 1.399 . S
C1017 C1016 1.394 . S
C1017 C1018 1.516 . S
C1018 C1017 1.516 . S
C1018 C1019 1.502 . S
C1018 C1020 1.561 . S
C1018 C1021 1.526 . S
C1019 H1003 0.959 . S
C1019 H1004 0.959 . S
C1019 H1005 0.961 . S
C1019 C1018 1.502 . S
C1020 H1006 0.960 . S
C1020 H1007 0.961 . S
C1020 H1008 0.959 . S
C1020 C1018 1.561 . S
C1021 C1018 1.526 . S
C1021 C1022 1.396 . S
C1021 C1026 1.390 . S
C1022 C1016 1.465 . S
C1022 C1021 1.396 . S
C1022 C1023 1.399 . S
C1023 H1009 0.929 . S
C1023 C1022 1.399 . S
C1023 C1024 1.385 . S
C1024 H1010 0.931 . S
C1024 C1023 1.385 . S
C1024 C1025 1.389 . S
C1025 C1024 1.389 . S
C1025 C1026 1.387 . S
C1026 H1011 0.930 . S
C1026 C1021 1.390 . S
C1026 C1025 1.387 . S
H1027 C1039 0.930 . S
H1028 C1041 0.930 . S
H1029 C1042 0.930 . S
H1030 C1046 0.959 . S
H1031 C1046 0.959 . S
H1032 C1046 0.961 . S
H1033 C1047 0.960 . S
H1034 C1047 0.961 . S
H1035 C1047 0.959 . S
H1036 C1050 0.929 . S
H1037 C1051 0.931 . S
H1038 C1053 0.930 . S
C1039 H1027 0.930 . S
C1039 C1040 1.399 . S
C1039 C1044 1.399 . S
C1040 C1039 1.399 . S
C1040 C1041 1.376 . S
C1041 H1028 0.930 . S
C1041 C1040 1.376 . S
C1041 C1042 1.388 . S
C1042 H1029 0.930 . S
C1042 C1041 1.388 . S
C1042 C1043 1.390 . S
C1043 C1042 1.390 . S
C1043 C1044 1.394 . S
C1043 C1049 1.465 . S
C1044 C1039 1.399 . S
C1044 C1043 1.394 . S
C1044 C1045 1.516 . S
C1045 C1044 1.516 . S
C1045 C1046 1.502 . S
C1045 C1047 1.561 . S
C1045 C1048 1.526 . S
C1046 H1030 0.959 . S
C1046 H1031 0.959 . S
C1046 H1032 0.961 . S
C1046 C1045 1.502 . S
C1047 H1033 0.960 . S
C1047 H1034 0.961 . S
C1047 H1035 0.959 . S
C1047 C1045 1.561 . S
C1048 C1045 1.526 . S
C1048 C1049 1.396 . S
C1048 C1053 1.390 . S
C1049 C1043 1.465 . S
C1049 C1048 1.396 . S
C1049 C1050 1.399 . S
C1050 H1036 0.929 . S
C1050 C1049 1.399 . S
C1050 C1051 1.385 . S
C1051 H1037 0.931 . S
C1051 C1050 1.385 . S
C1051 C1052 1.389 . S
C1052 C1051 1.389 . S
C1052 C1053 1.387 . S
C1053 H1038 0.930 . S
C1053 C1048 1.390 . S
C1053 C1052 1.387 . S
H1054 C1066 0.930 . S
H1055 C1068 0.930 . S
H1056 C1069 0.930 . S
H1057 C1073 0.959 . S
H1058 C1073 0.959 . S
H1059 C1073 0.961 . S
H1060 C1074 0.960 . S
H1061 C1074 0.961 . S
H1062 C1074 0.959 . S
H1063 C1077 0.929 . S
H1064 C1078 0.931 . S
H1065 C1080 0.930 . S
C1066 H1054 0.930 . S
C1066 C1067 1.399 . S
C1066 C1071 1.399 . S
C1067 C1066 1.399 . S
C1067 C1068 1.376 . S
C1068 H1055 0.930 . S
C1068 C1067 1.376 . S
C1068 C1069 1.388 . S
C1069 H1056 0.930 . S
C1069 C1068 1.388 . S
C1069 C1070 1.390 . S
C1070 C1069 1.390 . S
C1070 C1071 1.394 . S
C1070 C1076 1.465 . S
C1071 C1066 1.399 . S
C1071 C1070 1.394 . S
C1071 C1072 1.516 . S
C1072 C1071 1.516 . S
C1072 C1073 1.502 . S
C1072 C1074 1.561 . S
C1072 C1075 1.526 . S
C1073 H1057 0.959 . S
C1073 H1058 0.959 . S
C1073 H1059 0.961 . S
C1073 C1072 1.502 . S
C1074 H1060 0.960 . S
C1074 H1061 0.961 . S
C1074 H1062 0.959 . S
C1074 C1072 1.561 . S
C1075 C1072 1.526 . S
C1075 C1076 1.396 . S
C1075 C1080 1.390 . S
C1076 C1070 1.465 . S
C1076 C1075 1.396 . S
C1076 C1077 1.399 . S
C1077 H1063 0.929 . S
C1077 C1076 1.399 . S
C1077 C1078 1.385 . S
C1078 H1064 0.931 . S
C1078 C1077 1.385 . S
C1078 C1079 1.389 . S
C1079 C1078 1.389 . S
C1079 C1080 1.387 . S
C1080 H1065 0.930 . S
C1080 C1075 1.390 . S
C1080 C1079 1.387 . S
H1081 C1093 0.930 . S
H1082 C1095 0.930 . S
H1083 C1096 0.930 . S
H1084 C1100 0.959 . S
H1085 C1100 0.959 . S
H1086 C1100 0.961 . S
H1087 C1101 0.960 . S
H1088 C1101 0.961 . S
H1089 C1101 0.959 . S
H1090 C1104 0.929 . S
H1091 C1105 0.931 . S
H1092 C1107 0.930 . S
C1093 H1081 0.930 . S
C1093 C1094 1.399 . S
C1093 C1098 1.399 . S
C1094 C1093 1.399 . S
C1094 C1095 1.376 . S
C1095 H1082 0.930 . S
C1095 C1094 1.376 . S
C1095 C1096 1.388 . S
C1096 H1083 0.930 . S
C1096 C1095 1.388 . S
C1096 C1097 1.390 . S
C1097 C1096 1.390 . S
C1097 C1098 1.394 . S
C1097 C1103 1.465 . S
C1098 C1093 1.399 . S
C1098 C1097 1.394 . S
C1098 C1099 1.516 . S
C1099 C1098 1.516 . S
C1099 C1100 1.502 . S
C1099 C1101 1.561 . S
C1099 C1102 1.526 . S
C1100 H1084 0.959 . S
C1100 H1085 0.959 . S
C1100 H1086 0.961 . S
C1100 C1099 1.502 . S
C1101 H1087 0.960 . S
C1101 H1088 0.961 . S
C1101 H1089 0.959 . S
C1101 C1099 1.561 . S
C1102 C1099 1.526 . S
C1102 C1103 1.396 . S
C1102 C1107 1.390 . S
C1103 C1097 1.465 . S
C1103 C1102 1.396 . S
C1103 C1104 1.399 . S
C1104 H1090 0.929 . S
C1104 C1103 1.399 . S
C1104 C1105 1.385 . S
C1105 H1091 0.931 . S
C1105 C1104 1.385 . S
C1105 C1106 1.389 . S
C1106 C1105 1.389 . S
C1106 C1107 1.387 . S
C1107 H1092 0.930 . S
C1107 C1102 1.390 . S
C1107 C1106 1.387 . S
H1108 C1120 0.930 . S
H1109 C1122 0.930 . S
H1110 C1123 0.930 . S
H1111 C1127 0.959 . S
H1112 C1127 0.959 . S
H1113 C1127 0.961 . S
H1114 C1128 0.960 . S
H1115 C1128 0.961 . S
H1116 C1128 0.959 . S
H1117 C1131 0.929 . S
H1118 C1132 0.931 . S
H1119 C1134 0.930 . S
C1120 H1108 0.930 . S
C1120 C1121 1.399 . S
C1120 C1125 1.399 . S
C1121 C1120 1.399 . S
C1121 C1122 1.376 . S
C1122 H1109 0.930 . S
C1122 C1121 1.376 . S
C1122 C1123 1.388 . S
C1123 H1110 0.930 . S
C1123 C1122 1.388 . S
C1123 C1124 1.390 . S
C1124 C1123 1.390 . S
C1124 C1125 1.394 . S
C1124 C1130 1.465 1_545 S
C1125 C1120 1.399 . S
C1125 C1124 1.394 . S
C1125 C1126 1.526 . S
C1126 C1125 1.526 . S
C1126 C1127 1.493 1_545 S
C1126 C1128 1.571 . S
C1126 C1129 1.516 1_545 S
C1127 H1111 0.959 . S
C1127 H1112 0.959 . S
C1127 H1113 0.961 . S
C1127 C1126 1.493 1_565 S
C1128 H1114 0.960 . S
C1128 H1115 0.961 . S
C1128 H1116 0.959 . S
C1128 C1126 1.571 . S
C1129 C1126 1.516 1_565 S
C1129 C1130 1.396 . S
C1129 C1134 1.390 . S
C1130 C1124 1.465 1_565 S
C1130 C1129 1.396 . S
C1130 C1131 1.399 . S
C1131 H1117 0.929 . S
C1131 C1130 1.399 . S
C1131 C1132 1.385 . S
C1132 H1118 0.931 . S
C1132 C1131 1.385 . S
C1132 C1133 1.389 . S
C1133 C1132 1.389 . S
C1133 C1134 1.387 . S
C1134 H1119 0.930 . S
C1134 C1129 1.390 . S
C1134 C1133 1.387 . S
H1135 C1147 0.930 . S
H1136 C1149 0.930 . S
H1137 C1150 0.930 . S
H1138 C1154 0.959 . S
H1139 C1154 0.959 . S
H1140 C1154 0.961 . S
H1141 C1155 0.960 . S
H1142 C1155 0.961 1_565 S
H1143 C1155 0.959 . S
H1144 C1158 0.929 . S
H1145 C1159 0.931 . S
H1146 C1161 0.930 . S
C1147 H1135 0.930 . S
C1147 C1148 1.399 . S
C1147 C1152 1.399 . S
C1148 C1147 1.399 . S
C1148 C1149 1.376 . S
C1149 H1136 0.930 . S
C1149 C1148 1.376 . S
C1149 C1150 1.388 . S
C1150 H1137 0.930 . S
C1150 C1149 1.388 . S
C1150 C1151 1.390 . S
C1151 C1150 1.390 . S
C1151 C1152 1.394 . S
C1151 C1157 1.465 1_545 S
C1152 C1147 1.399 . S
C1152 C1151 1.394 . S
C1152 C1153 1.516 1_545 S
C1153 C1152 1.516 1_565 S
C1153 C1154 1.502 . S
C1153 C1155 1.561 1_565 S
C1153 C1156 1.526 . S
C1154 H1138 0.959 . S
C1154 H1139 0.959 . S
C1154 H1140 0.961 . S
C1154 C1153 1.502 . S
C1155 H1141 0.960 . S
C1155 H1142 0.961 1_545 S
C1155 H1143 0.959 . S
C1155 C1153 1.561 1_545 S
C1156 C1153 1.526 . S
C1156 C1157 1.396 . S
C1156 C1161 1.390 . S
C1157 C1151 1.465 1_565 S
C1157 C1156 1.396 . S
C1157 C1158 1.399 . S
C1158 H1144 0.929 . S
C1158 C1157 1.399 . S
C1158 C1159 1.385 . S
C1159 H1145 0.931 . S
C1159 C1158 1.385 . S
C1159 C1160 1.389 . S
C1160 C1159 1.389 . S
C1160 C1161 1.387 . S
C1161 H1146 0.930 . S
C1161 C1156 1.390 . S
C1161 C1160 1.387 . S
H1162 C1174 0.930 . S
H1163 C1176 0.930 . S
H1164 C1177 0.930 . S
H1165 C1181 0.959 . S
H1166 C1181 0.959 . S
H1167 C1181 0.961 . S
H1168 C1182 0.960 . S
H1169 C1182 0.961 . S
H1170 C1182 0.959 . S
H1171 C1185 0.929 . S
H1172 C1186 0.931 . S
H1173 C1188 0.930 . S
C1174 H1162 0.930 . S
C1174 C1175 1.399 . S
C1174 C1179 1.399 . S
C1175 C1174 1.399 . S
C1175 C1176 1.376 . S
C1176 H1163 0.930 . S
C1176 C1175 1.376 . S
C1176 C1177 1.388 . S
C1177 H1164 0.930 . S
C1177 C1176 1.388 . S
C1177 C1178 1.390 . S
C1178 C1177 1.390 . S
C1178 C1179 1.394 . S
C1178 C1184 1.465 1_565 S
C1179 C1174 1.399 . S
C1179 C1178 1.394 . S
C1179 C1180 1.516 . S
C1180 C1179 1.516 . S
C1180 C1181 1.502 . S
C1180 C1182 1.561 1_565 S
C1180 C1183 1.526 1_565 S
C1181 H1165 0.959 . S
C1181 H1166 0.959 . S
C1181 H1167 0.961 . S
C1181 C1180 1.502 . S
C1182 H1168 0.960 . S
C1182 H1169 0.961 . S
C1182 H1170 0.959 . S
C1182 C1180 1.561 1_545 S
C1183 C1180 1.526 1_545 S
C1183 C1184 1.396 . S
C1183 C1188 1.390 . S
C1184 C1178 1.465 1_545 S
C1184 C1183 1.396 . S
C1184 C1185 1.399 . S
C1185 H1171 0.929 . S
C1185 C1184 1.399 . S
C1185 C1186 1.385 . S
C1186 H1172 0.931 . S
C1186 C1185 1.385 . S
C1186 C1187 1.389 . S
C1187 C1186 1.389 . S
C1187 C1188 1.387 . S
C1188 H1173 0.930 . S
C1188 C1183 1.390 . S
C1188 C1187 1.387 . S
H1189 C1201 0.930 . S
H1190 C1203 0.930 . S
H1191 C1204 0.930 . S
H1192 C1208 0.946 1_545 S
H1193 C1208 0.952 1_545 S
H1194 C1208 0.975 . S
H1195 C1209 0.960 . S
H1196 C1209 0.961 . S
H1197 C1209 0.959 . S
H1198 C1212 0.929 . S
H1199 C1213 0.931 . S
H1200 C1215 0.930 . S
C1201 H1189 0.930 . S
C1201 C1202 1.399 . S
C1201 C1206 1.399 . S
C1202 C1201 1.399 . S
C1202 C1203 1.376 . S
C1203 H1190 0.930 . S
C1203 C1202 1.376 . S
C1203 C1204 1.388 . S
C1204 H1191 0.930 . S
C1204 C1203 1.388 . S
C1204 C1205 1.390 . S
C1205 C1204 1.390 . S
C1205 C1206 1.394 . S
C1205 C1211 1.465 1_565 S
C1206 C1201 1.399 . S
C1206 C1205 1.394 . S
C1206 C1207 1.516 . S
C1207 C1206 1.516 . S
C1207 C1208 1.508 . S
C1207 C1209 1.561 . S
C1207 C1210 1.526 1_565 S
C1208 H1192 0.946 1_565 S
C1208 H1193 0.952 1_565 S
C1208 H1194 0.975 . S
C1208 C1207 1.508 . S
C1209 H1195 0.960 . S
C1209 H1196 0.961 . S
C1209 H1197 0.959 . S
C1209 C1207 1.561 . S
C1210 C1207 1.526 1_545 S
C1210 C1211 1.396 . S
C1210 C1215 1.390 . S
C1211 C1205 1.465 1_545 S
C1211 C1210 1.396 . S
C1211 C1212 1.399 . S
C1212 H1198 0.929 . S
C1212 C1211 1.399 . S
C1212 C1213 1.385 . S
C1213 H1199 0.931 . S
C1213 C1212 1.385 . S
C1213 C1214 1.389 . S
C1214 C1213 1.389 . S
C1214 C1215 1.387 . S
C1215 H1200 0.930 . S
C1215 C1210 1.390 . S
C1215 C1214 1.387 . S
H1216 C1228 0.930 . S
H1217 C1230 0.930 . S
H1218 C1231 0.930 . S
H1219 C1235 0.959 . S
H1220 C1235 0.959 . S
H1221 C1235 0.945 1_556 S
H1222 C1236 0.960 . S
H1223 C1236 0.961 . S
H1224 C1236 0.959 . S
H1225 C1239 0.929 . S
H1226 C1240 0.931 . S
H1227 C1242 0.930 . S
C1228 H1216 0.930 . S
C1228 C1229 1.399 . S
C1228 C1233 1.399 . S
C1229 C1228 1.399 . S
C1229 C1230 1.376 . S
C1230 H1217 0.930 . S
C1230 C1229 1.376 . S
C1230 C1231 1.388 . S
C1231 H1218 0.930 . S
C1231 C1230 1.388 . S
C1231 C1232 1.390 . S
C1232 C1231 1.390 . S
C1232 C1233 1.394 . S
C1232 C1238 1.465 1_556 S
C1233 C1228 1.399 . S
C1233 C1232 1.394 . S
C1233 C1234 1.516 . S
C1234 C1233 1.516 . S
C1234 C1235 1.502 1_556 S
C1234 C1236 1.561 . S
C1234 C1237 1.526 1_556 S
C1235 H1219 0.959 . S
C1235 H1220 0.959 . S
C1235 H1221 0.945 1_554 S
C1235 C1234 1.502 1_554 S
C1236 H1222 0.960 . S
C1236 H1223 0.961 . S
C1236 H1224 0.959 . S
C1236 C1234 1.561 . S
C1237 C1234 1.526 1_554 S
C1237 C1238 1.396 . S
C1237 C1242 1.390 . S
C1238 C1232 1.465 1_554 S
C1238 C1237 1.396 . S
C1238 C1239 1.399 . S
C1239 H1225 0.929 . S
C1239 C1238 1.399 . S
C1239 C1240 1.385 . S
C1240 H1226 0.931 . S
C1240 C1239 1.385 . S
C1240 C1241 1.389 . S
C1241 C1240 1.389 . S
C1241 C1242 1.387 . S
C1242 H1227 0.930 . S
C1242 C1237 1.390 . S
C1242 C1241 1.387 . S
H1243 C1255 0.930 . S
H1244 C1257 0.930 . S
H1245 C1258 0.930 . S
H1246 C1262 0.959 . S
H1247 C1262 0.959 . S
H1248 C1262 0.961 . S
H1249 C1263 0.960 . S
H1250 C1263 0.961 . S
H1251 C1263 0.959 . S
H1252 C1266 0.917 1_554 S
H1253 C1267 0.931 . S
H1254 C1269 0.930 . S
C1255 H1243 0.930 . S
C1255 C1256 1.399 . S
C1255 C1260 1.399 . S
C1256 C1255 1.399 . S
C1256 C1257 1.376 . S
C1257 H1244 0.930 . S
C1257 C1256 1.376 . S
C1257 C1258 1.388 . S
C1258 H1245 0.930 . S
C1258 C1257 1.388 . S
C1258 C1259 1.390 . S
C1259 C1258 1.390 . S
C1259 C1260 1.394 . S
C1259 C1265 1.476 . S
C1260 C1255 1.399 . S
C1260 C1259 1.394 . S
C1260 C1261 1.516 1_554 S
C1261 C1260 1.516 1_556 S
C1261 C1262 1.502 . S
C1261 C1263 1.561 1_556 S
C1261 C1264 1.526 . S
C1262 H1246 0.959 . S
C1262 H1247 0.959 . S
C1262 H1248 0.961 . S
C1262 C1261 1.502 . S
C1263 H1249 0.960 . S
C1263 H1250 0.961 . S
C1263 H1251 0.959 . S
C1263 C1261 1.561 1_554 S
C1264 C1261 1.526 . S
C1264 C1265 1.386 1_556 S
C1264 C1269 1.390 . S
C1265 C1259 1.476 . S
C1265 C1264 1.386 1_554 S
C1265 C1266 1.397 1_554 S
C1266 H1252 0.917 1_556 S
C1266 C1265 1.397 1_556 S
C1266 C1267 1.401 . S
C1267 H1253 0.931 . S
C1267 C1266 1.401 . S
C1267 C1268 1.389 . S
C1268 C1267 1.389 . S
C1268 C1269 1.387 . S
C1269 H1254 0.930 . S
C1269 C1264 1.390 . S
C1269 C1268 1.387 . S
H1270 C1282 0.930 . S
H1271 C1284 0.930 . S
H1272 C1285 0.930 . S
H1273 C1289 0.959 . S
H1274 C1289 0.959 . S
H1275 C1289 0.961 . S
H1276 C1290 0.960 . S
H1277 C1290 0.961 . S
H1278 C1290 0.959 . S
H1279 C1293 0.929 . S
H1280 C1294 0.931 . S
H1281 C1296 0.930 . S
C1282 H1270 0.930 . S
C1282 C1283 1.399 . S
C1282 C1287 1.399 . S
C1283 C1282 1.399 . S
C1283 C1284 1.376 . S
C1284 H1271 0.930 . S
C1284 C1283 1.376 . S
C1284 C1285 1.388 . S
C1285 H1272 0.930 . S
C1285 C1284 1.388 . S
C1285 C1286 1.390 . S
C1286 C1285 1.390 . S
C1286 C1287 1.394 . S
C1286 C1292 1.465 . S
C1287 C1282 1.399 . S
C1287 C1286 1.394 . S
C1287 C1288 1.516 . S
C1288 C1287 1.516 . S
C1288 C1289 1.502 . S
C1288 C1290 1.561 . S
C1288 C1291 1.526 . S
C1289 H1273 0.959 . S
C1289 H1274 0.959 . S
C1289 H1275 0.961 . S
C1289 C1288 1.502 . S
C1290 H1276 0.960 . S
C1290 H1277 0.961 . S
C1290 H1278 0.959 . S
C1290 C1288 1.561 . S
C1291 C1288 1.526 . S
C1291 C1292 1.396 . S
C1291 C1296 1.390 . S
C1292 C1286 1.465 . S
C1292 C1291 1.396 . S
C1292 C1293 1.399 . S
C1293 H1279 0.929 . S
C1293 C1292 1.399 . S
C1293 C1294 1.385 . S
C1294 H1280 0.931 . S
C1294 C1293 1.385 . S
C1294 C1295 1.389 . S
C1295 C1294 1.389 . S
C1295 C1296 1.387 . S
C1296 H1281 0.930 . S
C1296 C1291 1.390 . S
C1296 C1295 1.387 . S
H1297 C1309 0.930 . S
H1298 C1311 0.930 . S
H1299 C1312 0.930 . S
H1300 C1316 0.959 . S
H1301 C1316 0.959 . S
H1302 C1316 0.961 . S
H1303 C1317 0.960 . S
H1304 C1317 0.961 . S
H1305 C1317 0.959 . S
H1306 C1320 0.929 . S
H1307 C1321 0.931 . S
H1308 C1323 0.930 . S
C1309 H1297 0.930 . S
C1309 C1310 1.399 . S
C1309 C1314 1.399 . S
C1310 C1309 1.399 . S
C1310 C1311 1.376 . S
C1311 H1298 0.930 . S
C1311 C1310 1.376 . S
C1311 C1312 1.388 . S
C1312 H1299 0.930 . S
C1312 C1311 1.388 . S
C1312 C1313 1.390 . S
C1313 C1312 1.390 . S
C1313 C1314 1.394 . S
C1313 C1319 1.465 . S
C1314 C1309 1.399 . S
C1314 C1313 1.394 . S
C1314 C1315 1.516 . S
C1315 C1314 1.516 . S
C1315 C1316 1.502 . S
C1315 C1317 1.561 . S
C1315 C1318 1.526 . S
C1316 H1300 0.959 . S
C1316 H1301 0.959 . S
C1316 H1302 0.961 . S
C1316 C1315 1.502 . S
C1317 H1303 0.960 . S
C1317 H1304 0.961 . S
C1317 H1305 0.959 . S
C1317 C1315 1.561 . S
C1318 C1315 1.526 . S
C1318 C1319 1.396 . S
C1318 C1323 1.390 . S
C1319 C1313 1.465 . S
C1319 C1318 1.396 . S
C1319 C1320 1.399 . S
C1320 H1306 0.929 . S
C1320 C1319 1.399 . S
C1320 C1321 1.385 . S
C1321 H1307 0.931 . S
C1321 C1320 1.385 . S
C1321 C1322 1.389 . S
C1322 C1321 1.389 . S
C1322 C1323 1.387 . S
C1323 H1308 0.930 . S
C1323 C1318 1.390 . S
C1323 C1322 1.387 . S
H1324 C1336 0.930 . S
H1325 C1338 0.929 1_554 S
H1326 C1339 0.930 . S
H1327 C1343 0.959 . S
H1328 C1343 0.959 . S
H1329 C1343 0.961 . S
H1330 C1344 0.960 . S
H1331 C1344 0.961 . S
H1332 C1344 0.959 . S
H1333 C1347 0.929 . S
H1334 C1348 0.931 . S
H1335 C1350 0.930 1_556 S
C1336 H1324 0.930 . S
C1336 C1337 1.399 . S
C1336 C1341 1.399 . S
C1337 C1336 1.399 . S
C1337 C1338 1.380 . S
C1338 H1325 0.929 1_556 S
C1338 C1337 1.380 . S
C1338 C1339 1.386 1_556 S
C1339 H1326 0.930 . S
C1339 C1338 1.386 1_554 S
C1339 C1340 1.390 . S
C1340 C1339 1.390 . S
C1340 C1341 1.394 1_554 S
C1340 C1346 1.465 . S
C1341 C1336 1.399 . S
C1341 C1340 1.394 1_556 S
C1341 C1342 1.516 . S
C1342 C1341 1.516 . S
C1342 C1343 1.502 . S
C1342 C1344 1.561 . S
C1342 C1345 1.526 . S
C1343 H1327 0.959 . S
C1343 H1328 0.959 . S
C1343 H1329 0.961 . S
C1343 C1342 1.502 . S
C1344 H1330 0.960 . S
C1344 H1331 0.961 . S
C1344 H1332 0.959 . S
C1344 C1342 1.561 . S
C1345 C1342 1.526 . S
C1345 C1346 1.396 1_556 S
C1345 C1350 1.390 1_556 S
C1346 C1340 1.465 . S
C1346 C1345 1.396 1_554 S
C1346 C1347 1.399 . S
C1347 H1333 0.929 . S
C1347 C1346 1.399 . S
C1347 C1348 1.385 . S
C1348 H1334 0.931 . S
C1348 C1347 1.385 . S
C1348 C1349 1.389 . S
C1349 C1348 1.389 . S
C1349 C1350 1.387 . S
C1350 H1335 0.930 1_554 S
C1350 C1345 1.390 1_554 S
C1350 C1349 1.387 . S
H1351 C1363 0.930 . S
H1352 C1365 0.930 . S
H1353 C1366 0.930 1_554 S
H1354 C1370 0.966 . S
H1355 C1370 0.959 1_556 S
H1356 C1370 0.958 1_556 S
H1357 C1371 0.960 . S
H1358 C1371 0.961 . S
H1359 C1371 0.959 . S
H1360 C1374 0.929 . S
H1361 C1375 0.931 . S
H1362 C1377 0.930 . S
C1363 H1351 0.930 . S
C1363 C1364 1.399 . S
C1363 C1368 1.399 . S
C1364 C1363 1.399 . S
C1364 C1365 1.376 . S
C1365 H1352 0.930 . S
C1365 C1364 1.376 . S
C1365 C1366 1.388 . S
C1366 H1353 0.930 1_556 S
C1366 C1365 1.388 . S
C1366 C1367 1.390 . S
C1367 C1366 1.390 . S
C1367 C1368 1.394 . S
C1367 C1373 1.465 1_556 S
C1368 C1363 1.399 . S
C1368 C1367 1.394 . S
C1368 C1369 1.516 . S
C1369 C1368 1.516 . S
C1369 C1370 1.499 1_556 S
C1369 C1371 1.561 . S
C1369 C1372 1.526 1_556 S
C1370 H1354 0.966 . S
C1370 H1355 0.959 1_554 S
C1370 H1356 0.958 1_554 S
C1370 C1369 1.499 1_554 S
C1371 H1357 0.960 . S
C1371 H1358 0.961 . S
C1371 H1359 0.959 . S
C1371 C1369 1.561 . S
C1372 C1369 1.526 1_554 S
C1372 C1373 1.396 . S
C1372 C1377 1.390 . S
C1373 C1367 1.465 1_554 S
C1373 C1372 1.396 . S
C1373 C1374 1.399 . S
C1374 H1360 0.929 . S
C1374 C1373 1.399 . S
C1374 C1375 1.385 . S
C1375 H1361 0.931 . S
C1375 C1374 1.385 . S
C1375 C1376 1.389 . S
C1376 C1375 1.389 . S
C1376 C1377 1.387 . S
C1377 H1362 0.930 . S
C1377 C1372 1.390 . S
C1377 C1376 1.387 . S
H1378 C1390 0.930 . S
H1379 C1392 0.930 . S
H1380 C1393 0.930 . S
H1381 C1397 0.959 . S
H1382 C1397 0.959 . S
H1383 C1397 0.961 . S
H1384 C1398 0.960 . S
H1385 C1398 0.961 . S
H1386 C1398 0.959 . S
H1387 C1401 0.929 . S
H1388 C1402 0.931 . S
H1389 C1404 0.930 . S
C1390 H1378 0.930 . S
C1390 C1391 1.399 . S
C1390 C1395 1.399 . S
C1391 C1390 1.399 . S
C1391 C1392 1.376 . S
C1392 H1379 0.930 . S
C1392 C1391 1.376 . S
C1392 C1393 1.388 . S
C1393 H1380 0.930 . S
C1393 C1392 1.388 . S
C1393 C1394 1.390 . S
C1394 C1393 1.390 . S
C1394 C1395 1.394 . S
C1394 C1400 1.465 . S
C1395 C1390 1.399 . S
C1395 C1394 1.394 . S
C1395 C1396 1.516 . S
C1396 C1395 1.516 . S
C1396 C1397 1.502 . S
C1396 C1398 1.561 . S
C1396 C1399 1.526 . S
C1397 H1381 0.959 . S
C1397 H1382 0.959 . S
C1397 H1383 0.961 . S
C1397 C1396 1.502 . S
C1398 H1384 0.960 . S
C1398 H1385 0.961 . S
C1398 H1386 0.959 . S
C1398 C1396 1.561 . S
C1399 C1396 1.526 . S
C1399 C1400 1.396 . S
C1399 C1404 1.390 . S
C1400 C1394 1.465 . S
C1400 C1399 1.396 . S
C1400 C1401 1.399 . S
C1401 H1387 0.929 . S
C1401 C1400 1.399 . S
C1401 C1402 1.385 . S
C1402 H1388 0.931 . S
C1402 C1401 1.385 . S
C1402 C1403 1.389 . S
C1403 C1402 1.389 . S
C1403 C1404 1.387 . S
C1404 H1389 0.930 . S
C1404 C1399 1.390 . S
C1404 C1403 1.387 . S
H1405 C1417 0.930 . S
H1406 C1419 0.930 . S
H1407 C1420 0.930 . S
H1408 C1424 0.959 . S
H1409 C1424 0.959 . S
H1410 C1424 0.961 . S
H1411 C1425 0.960 . S
H1412 C1425 0.961 . S
H1413 C1425 0.959 . S
H1414 C1428 0.929 . S
H1415 C1429 0.931 . S
H1416 C1431 0.930 . S
C1417 H1405 0.930 . S
C1417 C1418 1.399 . S
C1417 C1422 1.399 . S
C1418 C1417 1.399 . S
C1418 C1419 1.376 . S
C1419 H1406 0.930 . S
C1419 C1418 1.376 . S
C1419 C1420 1.388 . S
C1420 H1407 0.930 . S
C1420 C1419 1.388 . S
C1420 C1421 1.390 . S
C1421 C1420 1.390 . S
C1421 C1422 1.394 . S
C1421 C1427 1.465 . S
C1422 C1417 1.399 . S
C1422 C1421 1.394 . S
C1422 C1423 1.516 . S
C1423 C1422 1.516 . S
C1423 C1424 1.502 . S
C1423 C1425 1.561 . S
C1423 C1426 1.526 . S
C1424 H1408 0.959 . S
C1424 H1409 0.959 . S
C1424 H1410 0.961 . S
C1424 C1423 1.502 . S
C1425 H1411 0.960 . S
C1425 H1412 0.961 . S
C1425 H1413 0.959 . S
C1425 C1423 1.561 . S
C1426 C1423 1.526 . S
C1426 C1427 1.396 . S
C1426 C1431 1.390 . S
C1427 C1421 1.465 . S
C1427 C1426 1.396 . S
C1427 C1428 1.399 . S
C1428 H1414 0.929 . S
C1428 C1427 1.399 . S
C1428 C1429 1.385 . S
C1429 H1415 0.931 . S
C1429 C1428 1.385 . S
C1429 C1430 1.389 . S
C1430 C1429 1.389 . S
C1430 C1431 1.387 . S
C1431 H1416 0.930 . S
C1431 C1426 1.390 . S
C1431 C1430 1.387 . S
H1432 C1444 0.930 . S
H1433 C1446 0.930 . S
H1434 C1447 0.930 . S
H1435 C1451 0.959 . S
H1436 C1451 0.959 . S
H1437 C1451 0.961 . S
H1438 C1452 0.960 . S
H1439 C1452 0.961 1_655 S
H1440 C1452 0.959 1_655 S
H1441 C1455 0.929 . S
H1442 C1456 0.931 . S
H1443 C1458 0.930 . S
C1444 H1432 0.930 . S
C1444 C1445 1.399 . S
C1444 C1449 1.399 . S
C1445 C1444 1.399 . S
C1445 C1446 1.376 . S
C1446 H1433 0.930 . S
C1446 C1445 1.376 . S
C1446 C1447 1.388 . S
C1447 H1434 0.930 . S
C1447 C1446 1.388 . S
C1447 C1448 1.390 . S
C1448 C1447 1.390 . S
C1448 C1449 1.394 . S
C1448 C1454 1.465 1_455 S
C1449 C1444 1.399 . S
C1449 C1448 1.394 . S
C1449 C1450 1.516 . S
C1450 C1449 1.516 . S
C1450 C1451 1.502 . S
C1450 C1452 1.561 . S
C1450 C1453 1.526 1_455 S
C1451 H1435 0.959 . S
C1451 H1436 0.959 . S
C1451 H1437 0.961 . S
C1451 C1450 1.502 . S
C1452 H1438 0.960 . S
C1452 H1439 0.961 1_455 S
C1452 H1440 0.959 1_455 S
C1452 C1450 1.561 . S
C1453 C1450 1.526 1_655 S
C1453 C1454 1.396 . S
C1453 C1458 1.390 . S
C1454 C1448 1.465 1_655 S
C1454 C1453 1.396 . S
C1454 C1455 1.399 . S
C1455 H1441 0.929 . S
C1455 C1454 1.399 . S
C1455 C1456 1.385 . S
C1456 H1442 0.931 . S
C1456 C1455 1.385 . S
C1456 C1457 1.389 . S
C1457 C1456 1.389 . S
C1457 C1458 1.387 . S
C1458 H1443 0.930 . S
C1458 C1453 1.390 . S
C1458 C1457 1.387 . S
H1459 C1471 0.930 . S
H1460 C1473 0.930 . S
H1461 C1474 0.930 . S
H1462 C1478 0.959 . S
H1463 C1478 0.959 . S
H1464 C1478 0.961 . S
H1465 C1479 0.960 . S
H1466 C1479 0.961 . S
H1467 C1479 0.959 . S
H1468 C1482 0.929 . S
H1469 C1483 0.931 . S
H1470 C1485 0.930 . S
C1471 H1459 0.930 . S
C1471 C1472 1.399 . S
C1471 C1476 1.399 . S
C1472 C1471 1.399 . S
C1472 C1473 1.376 . S
C1473 H1460 0.930 . S
C1473 C1472 1.376 . S
C1473 C1474 1.388 . S
C1474 H1461 0.930 . S
C1474 C1473 1.388 . S
C1474 C1475 1.390 . S
C1475 C1474 1.390 . S
C1475 C1476 1.394 . S
C1475 C1481 1.465 . S
C1476 C1471 1.399 . S
C1476 C1475 1.394 . S
C1476 C1477 1.516 . S
C1477 C1476 1.516 . S
C1477 C1478 1.502 . S
C1477 C1479 1.561 . S
C1477 C1480 1.526 . S
C1478 H1462 0.959 . S
C1478 H1463 0.959 . S
C1478 H1464 0.961 . S
C1478 C1477 1.502 . S
C1479 H1465 0.960 . S
C1479 H1466 0.961 . S
C1479 H1467 0.959 . S
C1479 C1477 1.561 . S
C1480 C1477 1.526 . S
C1480 C1481 1.396 . S
C1480 C1485 1.390 . S
C1481 C1475 1.465 . S
C1481 C1480 1.396 . S
C1481 C1482 1.399 . S
C1482 H1468 0.929 . S
C1482 C1481 1.399 . S
C1482 C1483 1.385 . S
C1483 H1469 0.931 . S
C1483 C1482 1.385 . S
C1483 C1484 1.389 . S
C1484 C1483 1.389 . S
C1484 C1485 1.387 . S
C1485 H1470 0.930 . S
C1485 C1480 1.390 . S
C1485 C1484 1.387 . S
H1486 C1498 0.930 . S
H1487 C1500 0.930 . S
H1488 C1501 0.930 . S
H1489 C1505 0.959 . S
H1490 C1505 0.959 . S
H1491 C1505 0.961 . S
H1492 C1506 0.960 . S
H1493 C1506 0.961 . S
H1494 C1506 0.959 . S
H1495 C1509 0.929 . S
H1496 C1510 0.931 . S
H1497 C1512 0.930 . S
C1498 H1486 0.930 . S
C1498 C1499 1.399 . S
C1498 C1503 1.399 . S
C1499 C1498 1.399 . S
C1499 C1500 1.376 . S
C1500 H1487 0.930 . S
C1500 C1499 1.376 . S
C1500 C1501 1.388 . S
C1501 H1488 0.930 . S
C1501 C1500 1.388 . S
C1501 C1502 1.390 . S
C1502 C1501 1.390 . S
C1502 C1503 1.394 . S
C1502 C1508 1.465 . S
C1503 C1498 1.399 . S
C1503 C1502 1.394 . S
C1503 C1504 1.516 . S
C1504 C1503 1.516 . S
C1504 C1505 1.502 . S
C1504 C1506 1.561 . S
C1504 C1507 1.526 . S
C1505 H1489 0.959 . S
C1505 H1490 0.959 . S
C1505 H1491 0.961 . S
C1505 C1504 1.502 . S
C1506 H1492 0.960 . S
C1506 H1493 0.961 . S
C1506 H1494 0.959 . S
C1506 C1504 1.561 . S
C1507 C1504 1.526 . S
C1507 C1508 1.396 . S
C1507 C1512 1.390 . S
C1508 C1502 1.465 . S
C1508 C1507 1.396 . S
C1508 C1509 1.399 . S
C1509 H1495 0.929 . S
C1509 C1508 1.399 . S
C1509 C1510 1.385 . S
C1510 H1496 0.931 . S
C1510 C1509 1.385 . S
C1510 C1511 1.389 . S
C1511 C1510 1.389 . S
C1511 C1512 1.387 . S
C1512 H1497 0.930 . S
C1512 C1507 1.390 . S
C1512 C1511 1.387 . S
H1513 C1525 0.930 . S
H1514 C1527 0.930 . S
H1515 C1528 0.930 . S
H1516 C1532 0.959 . S
H1517 C1532 0.959 . S
H1518 C1532 0.961 1_455 S
H1519 C1533 0.960 . S
H1520 C1533 0.961 1_655 S
H1521 C1533 0.959 . S
H1522 C1536 0.929 . S
H1523 C1537 0.931 . S
H1524 C1539 0.930 . S
C1525 H1513 0.930 . S
C1525 C1526 1.399 . S
C1525 C1530 1.399 . S
C1526 C1525 1.399 . S
C1526 C1527 1.376 . S
C1527 H1514 0.930 . S
C1527 C1526 1.376 . S
C1527 C1528 1.388 . S
C1528 H1515 0.930 . S
C1528 C1527 1.388 . S
C1528 C1529 1.390 . S
C1529 C1528 1.390 . S
C1529 C1530 1.394 . S
C1529 C1535 1.465 1_455 S
C1530 C1525 1.399 . S
C1530 C1529 1.394 . S
C1530 C1531 1.506 1_455 S
C1531 C1530 1.506 1_655 S
C1531 C1532 1.505 . S
C1531 C1533 1.558 1_655 S
C1531 C1534 1.535 . S
C1532 H1516 0.959 . S
C1532 H1517 0.959 . S
C1532 H1518 0.961 1_655 S
C1532 C1531 1.505 . S
C1533 H1519 0.960 . S
C1533 H1520 0.961 1_455 S
C1533 H1521 0.959 . S
C1533 C1531 1.558 1_455 S
C1534 C1531 1.535 . S
C1534 C1535 1.396 . S
C1534 C1539 1.390 . S
C1535 C1529 1.465 1_655 S
C1535 C1534 1.396 . S
C1535 C1536 1.399 . S
C1536 H1522 0.929 . S
C1536 C1535 1.399 . S
C1536 C1537 1.385 . S
C1537 H1523 0.931 . S
C1537 C1536 1.385 . S
C1537 C1538 1.389 . S
C1538 C1537 1.389 . S
C1538 C1539 1.387 . S
C1539 H1524 0.930 . S
C1539 C1534 1.390 . S
C1539 C1538 1.387 . S
H1540 C1552 0.930 . S
H1541 C1554 0.930 . S
H1542 C1555 0.930 . S
H1543 C1559 0.959 . S
H1544 C1559 0.959 1_455 S
H1545 C1559 0.961 . S
H1546 C1560 0.960 1_655 S
H1547 C1560 0.961 . S
H1548 C1560 0.959 . S
H1549 C1563 0.929 . S
H1550 C1564 0.931 . S
H1551 C1566 0.930 . S
C1552 H1540 0.930 . S
C1552 C1553 1.399 . S
C1552 C1557 1.399 . S
C1553 C1552 1.399 . S
C1553 C1554 1.376 . S
C1554 H1541 0.930 . S
C1554 C1553 1.376 . S
C1554 C1555 1.388 . S
C1555 H1542 0.930 . S
C1555 C1554 1.388 . S
C1555 C1556 1.390 . S
C1556 C1555 1.390 . S
C1556 C1557 1.394 . S
C1556 C1562 1.465 1_655 S
C1557 C1552 1.399 . S
C1557 C1556 1.394 . S
C1557 C1558 1.516 . S
C1558 C1557 1.516 . S
C1558 C1559 1.502 . S
C1558 C1560 1.561 1_655 S
C1558 C1561 1.526 1_655 S
C1559 H1543 0.959 . S
C1559 H1544 0.959 1_655 S
C1559 H1545 0.961 . S
C1559 C1558 1.502 . S
C1560 H1546 0.960 1_455 S
C1560 H1547 0.961 . S
C1560 H1548 0.959 . S
C1560 C1558 1.561 1_455 S
C1561 C1558 1.526 1_455 S
C1561 C1562 1.396 . S
C1561 C1566 1.390 . S
C1562 C1556 1.465 1_455 S
C1562 C1561 1.396 . S
C1562 C1563 1.399 . S
C1563 H1549 0.929 . S
C1563 C1562 1.399 . S
C1563 C1564 1.385 . S
C1564 H1550 0.931 . S
C1564 C1563 1.385 . S
C1564 C1565 1.389 . S
C1565 C1564 1.389 . S
C1565 C1566 1.387 . S
C1566 H1551 0.930 . S
C1566 C1561 1.390 . S
C1566 C1565 1.387 . S
H1567 C1579 0.930 . S
H1568 C1581 0.930 . S
H1569 C1582 0.930 . S
H1570 C1586 0.959 . S
H1571 C1586 0.959 . S
H1572 C1586 0.961 . S
H1573 C1587 0.960 . S
H1574 C1587 0.961 . S
H1575 C1587 0.959 . S
H1576 C1590 0.929 . S
H1577 C1591 0.931 . S
H1578 C1593 0.930 . S
C1579 H1567 0.930 . S
C1579 C1580 1.399 . S
C1579 C1584 1.399 . S
C1580 C1579 1.399 . S
C1580 C1581 1.376 . S
C1581 H1568 0.930 . S
C1581 C1580 1.376 . S
C1581 C1582 1.388 . S
C1582 H1569 0.930 . S
C1582 C1581 1.388 . S
C1582 C1583 1.390 . S
C1583 C1582 1.390 . S
C1583 C1584 1.394 . S
C1583 C1589 1.465 . S
C1584 C1579 1.399 . S
C1584 C1583 1.394 . S
C1584 C1585 1.516 . S
C1585 C1584 1.516 . S
C1585 C1586 1.502 . S
C1585 C1587 1.561 . S
C1585 C1588 1.526 . S
C1586 H1570 0.959 . S
C1586 H1571 0.959 . S
C1586 H1572 0.961 . S
C1586 C1585 1.502 . S
C1587 H1573 0.960 . S
C1587 H1574 0.961 . S
C1587 H1575 0.959 . S
C1587 C1585 1.561 . S
C1588 C1585 1.526 . S
C1588 C1589 1.396 . S
C1588 C1593 1.390 . S
C1589 C1583 1.465 . S
C1589 C1588 1.396 . S
C1589 C1590 1.399 . S
C1590 H1576 0.929 . S
C1590 C1589 1.399 . S
C1590 C1591 1.385 . S
C1591 H1577 0.931 . S
C1591 C1590 1.385 . S
C1591 C1592 1.389 . S
C1592 C1591 1.389 . S
C1592 C1593 1.387 . S
C1593 H1578 0.930 . S
C1593 C1588 1.390 . S
C1593 C1592 1.387 . S
H1594 C1606 0.930 . S
H1595 C1608 0.930 . S
H1596 C1609 0.930 . S
H1597 C1613 0.959 . S
H1598 C1613 0.959 . S
H1599 C1613 0.961 . S
H1600 C1614 0.960 . S
H1601 C1614 0.961 . S
H1602 C1614 0.959 . S
H1603 C1617 0.929 . S
H1604 C1618 0.931 . S
H1605 C1620 0.930 . S
C1606 H1594 0.930 . S
C1606 C1607 1.399 . S
C1606 C1611 1.399 . S
C1607 C1606 1.399 . S
C1607 C1608 1.376 . S
C1608 H1595 0.930 . S
C1608 C1607 1.376 . S
C1608 C1609 1.388 . S
C1609 H1596 0.930 . S
C1609 C1608 1.388 . S
C1609 C1610 1.390 . S
C1610 C1609 1.390 . S
C1610 C1611 1.394 . S
C1610 C1616 1.465 . S
C1611 C1606 1.399 . S
C1611 C1610 1.394 . S
C1611 C1612 1.516 . S
C1612 C1611 1.516 . S
C1612 C1613 1.502 . S
C1612 C1614 1.561 . S
C1612 C1615 1.526 . S
C1613 H1597 0.959 . S
C1613 H1598 0.959 . S
C1613 H1599 0.961 . S
C1613 C1612 1.502 . S
C1614 H1600 0.960 . S
C1614 H1601 0.961 . S
C1614 H1602 0.959 . S
C1614 C1612 1.561 . S
C1615 C1612 1.526 . S
C1615 C1616 1.396 . S
C1615 C1620 1.390 . S
C1616 C1610 1.465 . S
C1616 C1615 1.396 . S
C1616 C1617 1.399 . S
C1617 H1603 0.929 . S
C1617 C1616 1.399 . S
C1617 C1618 1.385 . S
C1618 H1604 0.931 . S
C1618 C1617 1.385 . S
C1618 C1619 1.389 . S
C1619 C1618 1.389 . S
C1619 C1620 1.387 . S
C1620 H1605 0.930 . S
C1620 C1615 1.390 . S
C1620 C1619 1.387 . S
H1621 C1633 0.930 . S
H1622 C1635 0.930 . S
H1623 C1636 0.930 . S
H1624 C1640 0.959 . S
H1625 C1640 0.959 . S
H1626 C1640 0.961 1_455 S
H1627 C1641 0.960 . S
H1628 C1641 0.961 1_655 S
H1629 C1641 0.959 . S
H1630 C1644 0.929 . S
H1631 C1645 0.931 . S
H1632 C1647 0.930 . S
C1633 H1621 0.930 . S
C1633 C1634 1.399 . S
C1633 C1638 1.399 . S
C1634 C1633 1.399 . S
C1634 C1635 1.376 . S
C1635 H1622 0.930 . S
C1635 C1634 1.376 . S
C1635 C1636 1.388 . S
C1636 H1623 0.930 . S
C1636 C1635 1.388 . S
C1636 C1637 1.390 . S
C1637 C1636 1.390 . S
C1637 C1638 1.394 . S
C1637 C1643 1.465 1_455 S
C1638 C1633 1.399 . S
C1638 C1637 1.394 . S
C1638 C1639 1.543 . S
C1639 C1638 1.543 . S
C1639 C1640 1.493 1_455 S
C1639 C1641 1.572 . S
C1639 C1642 1.499 1_455 S
C1640 H1624 0.959 . S
C1640 H1625 0.959 . S
C1640 H1626 0.961 1_655 S
C1640 C1639 1.493 1_655 S
C1641 H1627 0.960 . S
C1641 H1628 0.961 1_455 S
C1641 H1629 0.959 . S
C1641 C1639 1.572 . S
C1642 C1639 1.499 1_655 S
C1642 C1643 1.396 . S
C1642 C1647 1.390 . S
C1643 C1637 1.465 1_655 S
C1643 C1642 1.396 . S
C1643 C1644 1.399 . S
C1644 H1630 0.929 . S
C1644 C1643 1.399 . S
C1644 C1645 1.385 . S
C1645 H1631 0.931 . S
C1645 C1644 1.385 . S
C1645 C1646 1.389 . S
C1646 C1645 1.389 . S
C1646 C1647 1.387 . S
C1647 H1632 0.930 . S
C1647 C1642 1.390 . S
C1647 C1646 1.387 . S
C365 C10 1.442 . S
C377 C293 1.488 . S
C392 C279 1.484 . S
C404 C30 1.459 . S
C419 C337 1.474 . S
C431 C54 1.386 . S
C446 C315 1.482 . S
C458 C74 1.463 . S
C473 C205 1.477 . S
C485 C106 1.474 . S
C500 C128 1.429 . S
C512 C197 1.492 . S
C527 C263 1.484 . S
C539 C142 1.461 . S
C554 C164 1.406 . S
C566 C235 1.485 . S
C581 C131 1.485 . S
C593 C186 1.458 . S
C608 C206 1.394 . S
C620 C109 1.472 . S
C635 C161 1.471 . S
C647 C238 1.397 . S
C662 C139 1.481 . S
C674 C252 1.386 . S
C689 C272 1.465 . S
C701 C29 1.483 . S
C716 C21 1.482 . S
C728 C296 1.413 . S
C743 C318 1.459 . S
C755 C73 1.485 . S
C770 C65 1.493 . S
C782 C340 1.414 . S
C797 C228 1.444 . S
C809 C18 1.438 . S
C824 C32 1.435 . S
C836 C260 1.456 . S
C851 C194 1.436 . S
C863 C62 1.459 . S
C878 C208 1.465 . S
C890 C76 1.448 . S
C905 C316 1.436 . S
C917 C98 1.443 . S
C932 C120 1.445 . S
C944 C338 1.464 . S
C959 C140 1.451 . S
C971 C282 1.433 . S
C986 C294 1.444 . S
C998 C162 1.464 . S
C1013 C7 1.591 . S
C1025 C37 1.601 . S
C1040 C51 1.589 . S
C1052 C81 1.574 . S
C1067 C103 1.582 . S
C1079 C125 1.584 . S
C1094 C175 1.582 . S
C1106 C153 1.583 . S
C1121 C213 1.578 . S
C1133 C183 1.573 . S
C1148 C241 1.583 . S
C1160 C249 1.572 . S
C1175 C307 1.581 . S
C1187 C271 1.582 . S
C1202 C329 1.608 . S
C1214 C351 1.608 . S
C1229 C285 0.595 . S
C1241 C15 0.513 . S
C1256 C43 0.471 . S
C1268 C301 0.632 . S
C1283 C59 0.478 . S
C1295 C323 0.643 . S
C1310 C87 0.505 . S
C1322 C345 0.631 . S
C1337 C95 0.640 . S
C1349 C191 0.468 . S
C1364 C117 0.604 . S
C1376 C219 0.503 . S
C1391 C147 0.545 . S
C1403 C227 0.567 . S
C1418 C257 0.623 . S
C1430 C169 0.533 . S
C1445 C8 1.530 . S
C1457 C216 1.503 . S
C1472 C40 1.500 . S
C1484 C184 1.532 . S
C1499 C250 1.518 . S
C1511 C52 1.514 . S
C1526 C230 1.510 . S
C1538 C84 1.523 . S
C1553 C96 1.513 . S
C1565 C304 1.496 . S
C1580 C118 1.515 . S
C1592 C274 1.491 . S
C1607 C348 1.480 . S
C1619 C150 1.514 . S
C1634 C172 1.483 . S
C1646 C326 1.494 . S
