# Generated by pormake.
# Topology vbx, (6)-cn, num edge types: 1
# Building blocks:
#     Node 0, Type 0, BuildingBlock: IZENUY_clean_sbu_0, # of connection points: 6
#     Node 1, Type 0, BuildingBlock: IZENUY_clean_sbu_0, # of connection points: 6
#     Node 2, Type 0, BuildingBlock: IZENUY_clean_sbu_0, # of connection points: 6
#     Node 3, Type 0, BuildingBlock: IZENUY_clean_sbu_0, # of connection points: 6
#     Node 4, Type 0, BuildingBlock: IZENUY_clean_sbu_0, # of connection points: 6
#     Node 5, Type 0, BuildingBlock: IZENUY_clean_sbu_0, # of connection points: 6
#     Node 6, Type 0, BuildingBlock: IZENUY_clean_sbu_0, # of connection points: 6
#     Node 7, Type 0, BuildingBlock: IZENUY_clean_sbu_0, # of connection points: 6
#     Node 8, Type 0, BuildingBlock: IZENUY_clean_sbu_0, # of connection points: 6
#     Node 9, Type 0, BuildingBlock: IZENUY_clean_sbu_0, # of connection points: 6
#     Node 10, Type 0, BuildingBlock: IZENUY_clean_sbu_0, # of connection points: 6
#     Node 11, Type 0, BuildingBlock: IZENUY_clean_sbu_0, # of connection points: 6
#     Node 12, Type 0, BuildingBlock: IZENUY_clean_sbu_0, # of connection points: 6
#     Node 13, Type 0, BuildingBlock: IZENUY_clean_sbu_0, # of connection points: 6
#     Node 14, Type 0, BuildingBlock: IZENUY_clean_sbu_0, # of connection points: 6
#     Node 15, Type 0, BuildingBlock: IZENUY_clean_sbu_0, # of connection points: 6
#     Edge 16, Type (0, 0), BuildingBlock: AJUNOK_clean_linker_0, # of connection points: 2
#     Edge 17, Type (0, 0), BuildingBlock: AJUNOK_clean_linker_0, # of connection points: 2
#     Edge 18, Type (0, 0), BuildingBlock: AJUNOK_clean_linker_0, # of connection points: 2
#     Edge 19, Type (0, 0), BuildingBlock: AJUNOK_clean_linker_0, # of connection points: 2
#     Edge 20, Type (0, 0), BuildingBlock: AJUNOK_clean_linker_0, # of connection points: 2
#     Edge 21, Type (0, 0), BuildingBlock: AJUNOK_clean_linker_0, # of connection points: 2
#     Edge 22, Type (0, 0), BuildingBlock: AJUNOK_clean_linker_0, # of connection points: 2
#     Edge 23, Type (0, 0), BuildingBlock: AJUNOK_clean_linker_0, # of connection points: 2
#     Edge 24, Type (0, 0), BuildingBlock: AJUNOK_clean_linker_0, # of connection points: 2
#     Edge 25, Type (0, 0), BuildingBlock: AJUNOK_clean_linker_0, # of connection points: 2
#     Edge 26, Type (0, 0), BuildingBlock: AJUNOK_clean_linker_0, # of connection points: 2
#     Edge 27, Type (0, 0), BuildingBlock: AJUNOK_clean_linker_0, # of connection points: 2
#     Edge 28, Type (0, 0), BuildingBlock: AJUNOK_clean_linker_0, # of connection points: 2
#     Edge 29, Type (0, 0), BuildingBlock: AJUNOK_clean_linker_0, # of connection points: 2
#     Edge 30, Type (0, 0), BuildingBlock: AJUNOK_clean_linker_0, # of connection points: 2
#     Edge 31, Type (0, 0), BuildingBlock: AJUNOK_clean_linker_0, # of connection points: 2
#     Edge 32, Type (0, 0), BuildingBlock: AJUNOK_clean_linker_0, # of connection points: 2
#     Edge 33, Type (0, 0), BuildingBlock: AJUNOK_clean_linker_0, # of connection points: 2
#     Edge 34, Type (0, 0), BuildingBlock: AJUNOK_clean_linker_0, # of connection points: 2
#     Edge 35, Type (0, 0), BuildingBlock: AJUNOK_clean_linker_0, # of connection points: 2
#     Edge 36, Type (0, 0), BuildingBlock: AJUNOK_clean_linker_0, # of connection points: 2
#     Edge 37, Type (0, 0), BuildingBlock: AJUNOK_clean_linker_0, # of connection points: 2
#     Edge 38, Type (0, 0), BuildingBlock: AJUNOK_clean_linker_0, # of connection points: 2
#     Edge 39, Type (0, 0), BuildingBlock: AJUNOK_clean_linker_0, # of connection points: 2
#     Edge 40, Type (0, 0), BuildingBlock: AJUNOK_clean_linker_0, # of connection points: 2
#     Edge 41, Type (0, 0), BuildingBlock: AJUNOK_clean_linker_0, # of connection points: 2
#     Edge 42, Type (0, 0), BuildingBlock: AJUNOK_clean_linker_0, # of connection points: 2
#     Edge 43, Type (0, 0), BuildingBlock: AJUNOK_clean_linker_0, # of connection points: 2
#     Edge 44, Type (0, 0), BuildingBlock: AJUNOK_clean_linker_0, # of connection points: 2
#     Edge 45, Type (0, 0), BuildingBlock: AJUNOK_clean_linker_0, # of connection points: 2
#     Edge 46, Type (0, 0), BuildingBlock: AJUNOK_clean_linker_0, # of connection points: 2
#     Edge 47, Type (0, 0), BuildingBlock: AJUNOK_clean_linker_0, # of connection points: 2
#     Edge 48, Type (0, 0), BuildingBlock: AJUNOK_clean_linker_0, # of connection points: 2
#     Edge 49, Type (0, 0), BuildingBlock: AJUNOK_clean_linker_0, # of connection points: 2
#     Edge 50, Type (0, 0), BuildingBlock: AJUNOK_clean_linker_0, # of connection points: 2
#     Edge 51, Type (0, 0), BuildingBlock: AJUNOK_clean_linker_0, # of connection points: 2
#     Edge 52, Type (0, 0), BuildingBlock: AJUNOK_clean_linker_0, # of connection points: 2
#     Edge 53, Type (0, 0), BuildingBlock: AJUNOK_clean_linker_0, # of connection points: 2
#     Edge 54, Type (0, 0), BuildingBlock: AJUNOK_clean_linker_0, # of connection points: 2
#     Edge 55, Type (0, 0), BuildingBlock: AJUNOK_clean_linker_0, # of connection points: 2
#     Edge 56, Type (0, 0), BuildingBlock: AJUNOK_clean_linker_0, # of connection points: 2
#     Edge 57, Type (0, 0), BuildingBlock: AJUNOK_clean_linker_0, # of connection points: 2
#     Edge 58, Type (0, 0), BuildingBlock: AJUNOK_clean_linker_0, # of connection points: 2
#     Edge 59, Type (0, 0), BuildingBlock: AJUNOK_clean_linker_0, # of connection points: 2
#     Edge 60, Type (0, 0), BuildingBlock: AJUNOK_clean_linker_0, # of connection points: 2
#     Edge 61, Type (0, 0), BuildingBlock: AJUNOK_clean_linker_0, # of connection points: 2
#     Edge 62, Type (0, 0), BuildingBlock: AJUNOK_clean_linker_0, # of connection points: 2
#     Edge 63, Type (0, 0), BuildingBlock: AJUNOK_clean_linker_0, # of connection points: 2
# Relax obj value: 0.241
# Max RMSD: 0.243
# Mean RMSD: 0.243
data_MOF--net-vbx--node1-IZENUY_clean_sbu_0--edge1-AJUNOK_clean_linker_0
_symmetry_space_group_name_H-M    P1
_symmetry_Int_Tables_number       1
_symmetry_cell_setting            triclinic
loop_
_symmetry_equiv_pos_as_xyz
'x, y, z'
_cell_length_a     34.360515
_cell_length_b     20.525562
_cell_length_c     41.626764
_cell_angle_alpha  90.019189
_cell_angle_beta   90.062684
_cell_angle_gamma 89.976577
loop_
_atom_site_label
_atom_site_type_symbol
_atom_site_fract_x
_atom_site_fract_y
_atom_site_fract_z
_atom_type_partial_charge
Fe0 Fe 0.37554 0.45844 0.13372 0.0
Fe1 Fe 0.37676 0.33774 0.09082 0.0
O2 O 0.35185 0.38858 0.11841 0.0
Fe3 Fe 0.30359 0.37074 0.13028 0.0
O4 O 0.28542 0.44957 0.11655 0.0
O5 O 0.33115 0.50691 0.13981 0.0
O6 O 0.37875 0.49299 0.09366 0.0
C7 C 0.39471 0.46463 0.07014 0.0
C8 C 0.3417 0.41025 0.18793 0.0
O9 O 0.40416 0.40499 0.07214 0.0
C10 C 0.33146 0.24659 0.12741 0.0
O11 O 0.42472 0.42373 0.13112 0.0
O12 O 0.41549 0.32077 0.1195 0.0
O13 O 0.31076 0.40013 0.17186 0.0
O14 O 0.37291 0.42682 0.17412 0.0
C15 C 0.30494 0.34051 0.06345 0.0
O16 O 0.35242 0.26135 0.1034 0.0
O17 O 0.31735 0.29088 0.14483 0.0
C18 C 0.43681 0.36537 0.13078 0.0
O19 O 0.34064 0.35202 0.06048 0.0
O20 O 0.28906 0.33717 0.09091 0.0
C21 C 0.29765 0.50312 0.12738 0.0
Fe22 Fe 0.66793 0.59814 0.63274 0.0
Fe23 Fe 0.66666 0.71796 0.58923 0.0
O24 O 0.69155 0.6678 0.6172 0.0
Fe25 Fe 0.73976 0.68607 0.62915 0.0
O26 O 0.75809 0.60705 0.61583 0.0
O27 O 0.71236 0.54986 0.63908 0.0
O28 O 0.66479 0.56285 0.59277 0.0
C29 C 0.64891 0.59077 0.56907 0.0
C30 C 0.70167 0.64752 0.68685 0.0
O31 O 0.63928 0.65035 0.57087 0.0
C32 C 0.71197 0.81005 0.62538 0.0
O33 O 0.61879 0.6329 0.62991 0.0
O34 O 0.62783 0.73566 0.61765 0.0
O35 O 0.73258 0.65744 0.67079 0.0
O36 O 0.6705 0.63039 0.67307 0.0
C37 C 0.73857 0.71503 0.56222 0.0
O38 O 0.69095 0.79454 0.60149 0.0
O39 O 0.72586 0.76625 0.64326 0.0
C40 C 0.6069 0.69136 0.62964 0.0
O41 O 0.70294 0.70301 0.55911 0.0
O42 O 0.75433 0.7189 0.58973 0.0
C43 C 0.7459 0.55359 0.62677 0.0
Fe44 Fe 0.30675 0.6878 0.8841 0.0
Fe45 Fe 0.37899 0.60015 0.88276 0.0
O46 O 0.35479 0.67062 0.8969 0.0
Fe47 Fe 0.37916 0.72283 0.92426 0.0
O48 O 0.34265 0.70954 0.95438 0.0
O49 O 0.29143 0.72214 0.9231 0.0
O50 O 0.28845 0.6092 0.89796 0.0
C51 C 0.30112 0.55506 0.88819 0.0
C52 C 0.33396 0.81251 0.88675 0.0
O53 O 0.33493 0.55098 0.87644 0.0
C54 C 0.43959 0.69415 0.88503 0.0
O55 O 0.31497 0.65747 0.84276 0.0
O56 O 0.37712 0.63005 0.84203 0.0
O57 O 0.35478 0.79847 0.91094 0.0
O58 O 0.32041 0.76768 0.86933 0.0
C59 C 0.39662 0.59757 0.94678 0.0
O60 O 0.42798 0.63553 0.88564 0.0
O61 O 0.41803 0.73902 0.8957 0.0
C62 C 0.34649 0.64722 0.82747 0.0
O63 O 0.38148 0.56739 0.92339 0.0
O64 O 0.40665 0.65665 0.94364 0.0
C65 C 0.30704 0.7214 0.95079 0.0
Fe66 Fe 0.66715 0.45547 0.38181 0.0
Fe67 Fe 0.66656 0.33259 0.42305 0.0
O68 O 0.69121 0.38493 0.396 0.0
Fe69 Fe 0.73933 0.36775 0.38356 0.0
O70 O 0.75754 0.44627 0.39761 0.0
O71 O 0.71123 0.50459 0.37586 0.0
O72 O 0.66432 0.48799 0.42246 0.0
C73 C 0.64887 0.4577 0.44565 0.0
C74 C 0.70002 0.40858 0.32667 0.0
O75 O 0.63881 0.39866 0.44229 0.0
C76 C 0.71219 0.24305 0.38587 0.0
O77 O 0.61819 0.42008 0.38426 0.0
O78 O 0.62809 0.3165 0.39405 0.0
O79 O 0.73145 0.39817 0.34213 0.0
O80 O 0.66933 0.42579 0.34106 0.0
C81 C 0.73832 0.33429 0.45029 0.0
O82 O 0.69116 0.25695 0.40992 0.0
O83 O 0.72577 0.288 0.36859 0.0
C84 C 0.60666 0.36145 0.38327 0.0
O85 O 0.70266 0.34592 0.45352 0.0
O86 O 0.75426 0.33337 0.42274 0.0
C87 C 0.74496 0.50041 0.38779 0.0
Fe88 Fe 0.66699 0.72072 0.92402 0.0
Fe89 Fe 0.66772 0.59981 0.88122 0.0
O90 O 0.69169 0.66941 0.89651 0.0
Fe91 Fe 0.74004 0.6866 0.8847 0.0
O92 O 0.75461 0.72003 0.9241 0.0
O93 O 0.70287 0.70578 0.95441 0.0
O94 O 0.63908 0.65398 0.94268 0.0
C95 C 0.64819 0.59419 0.94477 0.0
C96 C 0.71294 0.81114 0.88749 0.0
O97 O 0.66415 0.56554 0.92133 0.0
C98 C 0.70188 0.64761 0.82703 0.0
O99 O 0.62853 0.73828 0.89523 0.0
O100 O 0.61874 0.6354 0.88364 0.0
O101 O 0.72667 0.76655 0.87007 0.0
O102 O 0.69186 0.79676 0.9115 0.0
C103 C 0.74537 0.55397 0.88802 0.0
O104 O 0.67062 0.63113 0.84077 0.0
O105 O 0.73285 0.65718 0.84316 0.0
C106 C 0.607 0.69398 0.88394 0.0
O107 O 0.71193 0.55056 0.87538 0.0
O108 O 0.75781 0.60769 0.8985 0.0
C109 C 0.73861 0.71686 0.95154 0.0
Fe110 Fe 0.38088 0.33356 0.42303 0.0
Fe111 Fe 0.37904 0.4568 0.3821 0.0
O112 O 0.35523 0.38663 0.39696 0.0
Fe113 Fe 0.30635 0.37073 0.38607 0.0
O114 O 0.29291 0.33572 0.42546 0.0
O115 O 0.34619 0.3461 0.45438 0.0
O116 O 0.40924 0.39947 0.44204 0.0
C117 C 0.39955 0.45876 0.44552 0.0
C118 C 0.33319 0.24546 0.3866 0.0
O119 O 0.38356 0.48923 0.42261 0.0
C120 C 0.34323 0.4112 0.32809 0.0
O121 O 0.41815 0.31774 0.39312 0.0
O122 O 0.42809 0.42115 0.38342 0.0
O123 O 0.31851 0.29103 0.37035 0.0
O124 O 0.35571 0.25831 0.40993 0.0
C125 C 0.30158 0.50308 0.38986 0.0
O126 O 0.37495 0.42702 0.34143 0.0
O127 O 0.3126 0.40147 0.34462 0.0
C128 C 0.4396 0.36251 0.38239 0.0
O129 O 0.33493 0.50644 0.37721 0.0
O130 O 0.28941 0.44963 0.40087 0.0
C131 C 0.31064 0.33325 0.45224 0.0
Fe132 Fe 0.66574 0.45846 0.1318 0.0
Fe133 Fe 0.73793 0.37051 0.12895 0.0
O134 O 0.68941 0.38779 0.11724 0.0
Fe135 Fe 0.66387 0.33569 0.09062 0.0
O136 O 0.63631 0.40233 0.07152 0.0
O137 O 0.66249 0.49134 0.09126 0.0
O138 O 0.71006 0.50718 0.13768 0.0
C139 C 0.74375 0.5032 0.12573 0.0
C140 C 0.60448 0.3655 0.1305 0.0
O141 O 0.75592 0.44948 0.11501 0.0
C142 C 0.71067 0.24559 0.12669 0.0
O143 O 0.66848 0.42817 0.17237 0.0
O144 O 0.73061 0.40024 0.17064 0.0
O145 O 0.62583 0.32029 0.11997 0.0
O146 O 0.61643 0.42391 0.12962 0.0
C147 C 0.7348 0.33435 0.0624 0.0
O148 O 0.72502 0.29026 0.14379 0.0
O149 O 0.68823 0.25982 0.10355 0.0
C150 C 0.69936 0.41044 0.1864 0.0
O151 O 0.75209 0.33642 0.08943 0.0
O152 O 0.69935 0.34789 0.05982 0.0
C153 C 0.64661 0.46129 0.06815 0.0
Fe154 Fe 0.30701 0.68523 0.63004 0.0
Fe155 Fe 0.37958 0.7188 0.58985 0.0
O156 O 0.35512 0.66761 0.61758 0.0
Fe157 Fe 0.37919 0.59771 0.63246 0.0
O158 O 0.33503 0.54873 0.63887 0.0
O159 O 0.28871 0.60629 0.61664 0.0
O160 O 0.29179 0.71846 0.59066 0.0
C161 C 0.30747 0.71561 0.56305 0.0
C162 C 0.34649 0.64648 0.6872 0.0
O163 O 0.34316 0.70419 0.55985 0.0
C164 C 0.43985 0.69148 0.62974 0.0
O165 O 0.32073 0.76531 0.64436 0.0
O166 O 0.35502 0.79504 0.60258 0.0
O167 O 0.37716 0.62902 0.67289 0.0
O168 O 0.31502 0.65611 0.67168 0.0
C169 C 0.39794 0.59213 0.56879 0.0
O170 O 0.41864 0.73606 0.61823 0.0
O171 O 0.42816 0.63293 0.62953 0.0
C172 C 0.33414 0.80971 0.62666 0.0
O173 O 0.40709 0.6519 0.57087 0.0
O174 O 0.38204 0.56352 0.59225 0.0
C175 C 0.30128 0.55242 0.62683 0.0
Fe176 Fe 0.87767 0.9576 0.13275 0.0
Fe177 Fe 0.87862 0.83619 0.09015 0.0
O178 O 0.8539 0.88751 0.11771 0.0
Fe179 Fe 0.80571 0.86998 0.12979 0.0
O180 O 0.78754 0.9487 0.11591 0.0
O181 O 0.83331 1.00643 0.1388 0.0
O182 O 0.88071 0.99159 0.09255 0.0
C183 C 0.89645 0.96288 0.06904 0.0
C184 C 0.84419 0.9097 0.18718 0.0
O185 O 0.90596 0.90325 0.0712 0.0
C186 C 0.83306 0.74544 0.127 0.0
O187 O 0.92676 0.92258 0.13012 0.0
O188 O 0.9175 0.81942 0.11871 0.0
O189 O 0.81314 0.8998 0.17122 0.0
O190 O 0.87527 0.92657 0.17328 0.0
C191 C 0.80686 0.83745 0.06311 0.0
O192 O 0.85422 0.75984 0.10302 0.0
O193 O 0.81941 0.7901 0.14447 0.0
C194 C 0.93856 0.86407 0.13029 0.0
O195 O 0.84237 0.85014 0.05989 0.0
O196 O 0.79101 0.83599 0.09062 0.0
C197 C 0.79983 1.00264 0.12627 0.0
Fe198 Fe 0.16659 0.09695 0.63283 0.0
Fe199 Fe 0.16468 0.21991 0.59156 0.0
O200 O 0.19033 0.16728 0.61794 0.0
Fe201 Fe 0.23905 0.18359 0.62906 0.0
O202 O 0.2563 0.1045 0.61484 0.0
O203 O 0.21077 0.04748 0.63824 0.0
O204 O 0.1627 0.06424 0.59231 0.0
C205 C 0.14694 0.09456 0.56924 0.0
C206 C 0.20163 0.14349 0.68703 0.0
O207 O 0.13662 0.15353 0.57276 0.0
C208 C 0.2125 0.30904 0.62727 0.0
O209 O 0.11744 0.13224 0.63107 0.0
O210 O 0.12723 0.23571 0.62136 0.0
O211 O 0.23233 0.15398 0.67067 0.0
O212 O 0.17014 0.12708 0.67348 0.0
C213 C 0.23538 0.21762 0.56249 0.0
O214 O 0.18967 0.29539 0.60429 0.0
O215 O 0.2269 0.264 0.64409 0.0
C216 C 0.10574 0.1908 0.63195 0.0
O217 O 0.19947 0.20757 0.56022 0.0
O218 O 0.2527 0.21681 0.58947 0.0
C219 C 0.24421 0.05104 0.62577 0.0
Fe220 Fe 0.8814 0.22093 0.9234 0.0
Fe221 Fe 0.80726 0.18572 0.88522 0.0
O222 O 0.85583 0.16884 0.89667 0.0
Fe223 Fe 0.87957 0.09858 0.88171 0.0
O224 O 0.88303 0.06525 0.92214 0.0
O225 O 0.90925 0.15409 0.94203 0.0
O226 O 0.84631 0.20832 0.9545 0.0
C227 C 0.81043 0.21872 0.95208 0.0
C228 C 0.94018 0.19218 0.88257 0.0
O229 O 0.79329 0.21831 0.92498 0.0
C230 C 0.84552 0.14718 0.82743 0.0
O231 O 0.85663 0.29671 0.91087 0.0
O232 O 0.81981 0.26621 0.87067 0.0
O233 O 0.9287 0.13357 0.88385 0.0
O234 O 0.91913 0.23706 0.89385 0.0
C235 C 0.80185 0.05314 0.88799 0.0
O236 O 0.81436 0.15691 0.84337 0.0
O237 O 0.87654 0.12942 0.84125 0.0
C238 C 0.83412 0.31085 0.88777 0.0
O239 O 0.78965 0.10655 0.89892 0.0
O240 O 0.83541 0.04954 0.87579 0.0
C241 C 0.89875 0.09519 0.94536 0.0
Fe242 Fe 0.16733 0.95648 0.38163 0.0
Fe243 Fe 0.16717 0.83609 0.42481 0.0
O244 O 0.19158 0.88713 0.39698 0.0
Fe245 Fe 0.23982 0.86991 0.38488 0.0
O246 O 0.25771 0.94931 0.39817 0.0
O247 O 0.21133 1.00564 0.37519 0.0
O248 O 0.16424 0.99136 0.42171 0.0
C249 C 0.14877 0.96282 0.44539 0.0
C250 C 0.20101 0.9081 0.32728 0.0
O251 O 0.13951 0.90311 0.44344 0.0
C252 C 0.21277 0.74521 0.38828 0.0
O253 O 0.11842 0.92093 0.38456 0.0
O254 O 0.12845 0.81824 0.39631 0.0
O255 O 0.23212 0.89855 0.34324 0.0
O256 O 0.16983 0.92461 0.3412 0.0
C257 C 0.23893 0.83829 0.45182 0.0
O258 O 0.1918 0.7599 0.41229 0.0
O259 O 0.22645 0.78956 0.37067 0.0
C260 C 0.10684 0.86231 0.38494 0.0
O261 O 0.20341 0.85099 0.45503 0.0
O262 O 0.25477 0.83695 0.42427 0.0
C263 C 0.24512 1.00251 0.38712 0.0
Fe264 Fe 0.16577 0.22199 0.92352 0.0
Fe265 Fe 0.16723 0.09944 0.88194 0.0
O266 O 0.191 0.16986 0.89665 0.0
Fe267 Fe 0.23945 0.18699 0.885 0.0
O268 O 0.25357 0.22093 0.92433 0.0
O269 O 0.20139 0.20854 0.95443 0.0
O270 O 0.13768 0.15584 0.94221 0.0
C271 C 0.14768 0.09682 0.9456 0.0
C272 C 0.21244 0.31187 0.88741 0.0
O273 O 0.16353 0.06663 0.92253 0.0
C274 C 0.20171 0.14565 0.82739 0.0
O275 O 0.1277 0.23839 0.89416 0.0
O276 O 0.11826 0.1349 0.88376 0.0
O277 O 0.2264 0.26718 0.8701 0.0
O278 O 0.19057 0.29758 0.91086 0.0
C279 C 0.24513 0.05442 0.88833 0.0
O280 O 0.17041 0.12917 0.84115 0.0
O281 O 0.23244 0.15697 0.84356 0.0
C282 C 0.10676 0.19352 0.88265 0.0
O283 O 0.21137 0.05029 0.8765 0.0
O284 O 0.2574 0.10811 0.899 0.0
C285 C 0.23708 0.22039 0.95161 0.0
Fe286 Fe 0.87946 0.83354 0.42408 0.0
Fe287 Fe 0.8789 0.95542 0.38204 0.0
O288 O 0.85478 0.88536 0.39675 0.0
Fe289 Fe 0.80647 0.86831 0.3846 0.0
O290 O 0.79171 0.8347 0.42375 0.0
O291 O 0.84335 0.84751 0.4545 0.0
O292 O 0.90734 0.89979 0.44292 0.0
C293 C 0.89743 0.95894 0.44594 0.0
C294 C 0.83342 0.74345 0.38752 0.0
O295 O 0.88209 0.98887 0.42256 0.0
C296 C 0.84505 0.90829 0.32734 0.0
O297 O 0.91793 0.8166 0.39528 0.0
O298 O 0.92786 0.91979 0.38456 0.0
O299 O 0.81966 0.78797 0.36998 0.0
O300 O 0.85481 0.75794 0.41128 0.0
C301 C 0.80101 1.00091 0.38767 0.0
O302 O 0.87622 0.92502 0.3413 0.0
O303 O 0.81406 0.89791 0.34324 0.0
C304 C 0.93949 0.86115 0.38435 0.0
O305 O 0.83486 1.00465 0.37602 0.0
O306 O 0.7885 0.94737 0.3983 0.0
C307 C 0.80771 0.83557 0.45123 0.0
Fe308 Fe 0.23848 0.87084 0.12917 0.0
Fe309 Fe 0.16525 0.83757 0.08965 0.0
O310 O 0.19013 0.88841 0.11736 0.0
Fe311 Fe 0.16632 0.95801 0.13287 0.0
O312 O 0.21058 1.00671 0.13909 0.0
O313 O 0.25641 0.94999 0.11566 0.0
O314 O 0.25301 0.8376 0.0897 0.0
C315 C 0.23699 0.84052 0.06223 0.0
C316 C 0.20041 0.90926 0.18699 0.0
O317 O 0.20128 0.85208 0.0593 0.0
C318 C 0.10554 0.86449 0.13011 0.0
O319 O 0.22499 0.79086 0.14358 0.0
O320 O 0.18975 0.76123 0.10219 0.0
O321 O 0.16913 0.92609 0.17326 0.0
O322 O 0.23134 0.89973 0.17084 0.0
C323 C 0.14714 0.96454 0.06919 0.0
O324 O 0.12658 0.82016 0.11824 0.0
O325 O 0.11727 0.923 0.13019 0.0
C326 C 0.21072 0.74657 0.12626 0.0
O327 O 0.1377 0.90487 0.07111 0.0
O328 O 0.16295 0.99283 0.09282 0.0
C329 C 0.24412 1.0033 0.12676 0.0
Fe330 Fe 0.8054 0.18664 0.62985 0.0
Fe331 Fe 0.87842 0.21912 0.59011 0.0
O332 O 0.85352 0.16841 0.61772 0.0
Fe333 Fe 0.87716 0.09839 0.63286 0.0
O334 O 0.83272 0.05017 0.63914 0.0
O335 O 0.787 0.10799 0.61623 0.0
O336 O 0.79073 0.2201 0.59035 0.0
C337 C 0.80659 0.21658 0.56282 0.0
C338 C 0.84424 0.14792 0.68727 0.0
O339 O 0.84226 0.2049 0.55985 0.0
C340 C 0.93832 0.19125 0.63016 0.0
O341 O 0.81941 0.26643 0.64429 0.0
O342 O 0.85418 0.29564 0.60267 0.0
O343 O 0.87498 0.13017 0.67316 0.0
O344 O 0.81286 0.15739 0.67159 0.0
C345 C 0.89608 0.09216 0.56928 0.0
O346 O 0.91712 0.23595 0.61882 0.0
O347 O 0.92636 0.13285 0.6301 0.0
C348 C 0.83344 0.31059 0.62679 0.0
O349 O 0.90574 0.15171 0.57137 0.0
O350 O 0.88004 0.06389 0.59277 0.0
C351 C 0.79932 0.05407 0.62653 0.0
C352 C 0.31778 0.13494 0.10444 0.0
C353 C 0.31497 0.17935 0.13029 0.0
C354 C 0.29605 0.07669 0.10389 0.0
C355 C 0.2703 0.06095 0.12896 0.0
H356 H 0.33547 0.14657 0.0837 0.0
H357 H 0.29808 0.04532 0.08302 0.0
S358 S 0.25659 0.15465 0.20445 0.0
N359 N 0.28768 0.1986 0.18342 0.0
N360 N 0.24659 0.09049 0.18199 0.0
C361 C 0.26891 0.10282 0.15573 0.0
C362 C 0.29132 0.1615 0.15652 0.0
C363 C 0.75705 0.89049 0.65148 0.0
C364 C 0.72878 0.87721 0.62777 0.0
C365 C 0.779 0.94808 0.65106 0.0
C366 C 0.77342 0.99583 0.62723 0.0
H367 H 0.76354 0.85496 0.66997 0.0
H368 H 0.80098 0.95477 0.66945 0.0
S369 S 0.70155 0.98818 0.56079 0.0
N370 N 0.69529 0.9191 0.58045 0.0
N371 N 0.73618 0.02778 0.58019 0.0
C372 C 0.74405 0.98506 0.60427 0.0
C373 C 0.72185 0.92583 0.60443 0.0
C374 C 0.32048 0.92445 0.90944 0.0
C375 C 0.31694 0.87944 0.88388 0.0
C376 C 0.2984 0.98233 0.91029 0.0
C377 C 0.27158 0.99714 0.88582 0.0
H378 H 0.33902 0.91355 0.9298 0.0
H379 H 0.301 1.01408 0.93098 0.0
S380 S 0.25576 0.90201 0.81102 0.0
N381 N 0.28783 0.85883 0.83151 0.0
N382 N 0.2462 0.96637 0.83345 0.0
C383 C 0.2695 0.95479 0.85925 0.0
C384 C 0.29222 0.89643 0.85816 0.0
C385 C 0.74717 0.07258 0.40903 0.0
C386 C 0.77475 0.05847 0.38506 0.0
C387 C 0.7251 0.13049 0.40812 0.0
C388 C 0.72938 0.17622 0.38297 0.0
H389 H 0.74392 0.04021 0.4294 0.0
H390 H 0.70592 0.14078 0.42811 0.0
S391 S 0.79295 0.15594 0.31145 0.0
N392 N 0.80181 0.09091 0.33358 0.0
N393 N 0.76019 0.19841 0.33148 0.0
C394 C 0.75493 0.15999 0.35773 0.0
C395 C 0.77766 0.10165 0.35889 0.0
C396 C 0.74934 0.9807 0.91081 0.0
C397 C 0.77554 0.9956 0.88591 0.0
C398 C 0.72723 0.92283 0.91029 0.0
C399 C 0.73003 0.87801 0.88461 0.0
H400 H 0.74721 1.01247 0.93152 0.0
H401 H 0.70917 0.91186 0.93089 0.0
S402 S 0.78958 0.9005 0.81091 0.0
N403 N 0.79974 0.96477 0.83322 0.0
N404 N 0.75791 0.85748 0.83179 0.0
C405 C 0.75417 0.89503 0.85854 0.0
C406 C 0.777 0.95327 0.85932 0.0
C407 C 0.29899 0.07404 0.40861 0.0
C408 C 0.27109 0.06051 0.38474 0.0
C409 C 0.32088 0.13213 0.40803 0.0
C410 C 0.31611 0.17866 0.38332 0.0
H411 H 0.30271 0.04093 0.42864 0.0
H412 H 0.34037 0.14185 0.42793 0.0
S413 S 0.25142 0.16069 0.31219 0.0
N414 N 0.2431 0.09476 0.3338 0.0
N415 N 0.28441 0.20257 0.33231 0.0
C416 C 0.29018 0.1632 0.35815 0.0
C417 C 0.26764 0.10466 0.35899 0.0
C418 C 0.77964 0.10882 0.15102 0.0
C419 C 0.77374 0.06083 0.12731 0.0
C420 C 0.75727 0.16605 0.15189 0.0
C421 C 0.72815 0.17873 0.12881 0.0
H422 H 0.80218 0.10258 0.16898 0.0
H423 H 0.76403 0.20178 0.17022 0.0
S424 S 0.70005 0.06735 0.06217 0.0
N425 N 0.73546 0.02836 0.08093 0.0
N426 N 0.69378 0.1362 0.08205 0.0
C427 C 0.72099 0.12994 0.10556 0.0
C428 C 0.74365 0.07113 0.10492 0.0
C429 C 0.29638 0.97814 0.60262 0.0
C430 C 0.27068 0.99362 0.6278 0.0
C431 C 0.31876 0.92051 0.60325 0.0
C432 C 0.31677 0.87651 0.62932 0.0
H433 H 0.29792 1.00927 0.58166 0.0
H434 H 0.33639 0.90906 0.58245 0.0
S435 S 0.25886 0.901 0.70377 0.0
N436 N 0.24787 0.96436 0.6811 0.0
N437 N 0.2902 0.85753 0.68271 0.0
C438 C 0.29312 0.89416 0.6556 0.0
C439 C 0.27002 0.95215 0.65472 0.0
C440 C 0.81926 0.63322 0.10432 0.0
C441 C 0.81583 0.67849 0.12977 0.0
C442 C 0.79709 0.57531 0.10359 0.0
C443 C 0.77021 0.56073 0.12804 0.0
H444 H 0.83782 0.64389 0.08399 0.0
H445 H 0.79971 0.54331 0.083 0.0
S446 S 0.75424 0.65709 0.20242 0.0
N447 N 0.78649 0.69975 0.18196 0.0
N448 N 0.74467 0.5925 0.18016 0.0
C449 C 0.76811 0.60355 0.15443 0.0
C450 C 0.79095 0.66182 0.15543 0.0
C451 C 0.28327 0.44402 0.65032 0.0
C452 C 0.27541 0.49394 0.62802 0.0
C453 C 0.26108 0.38667 0.65126 0.0
C454 C 0.23011 0.37574 0.62964 0.0
H455 H 0.30722 0.44879 0.66711 0.0
H456 H 0.2694 0.34951 0.66842 0.0
S457 S 0.19606 0.49279 0.56746 0.0
N458 N 0.23308 0.53021 0.58479 0.0
N459 N 0.19165 0.42214 0.58608 0.0
C460 C 0.22096 0.42641 0.60792 0.0
C461 C 0.24349 0.48535 0.60721 0.0
C462 C 0.76433 0.44659 0.86401 0.0
C463 C 0.77127 0.4956 0.88699 0.0
C464 C 0.7866 0.38933 0.86313 0.0
C465 C 0.81667 0.37763 0.88549 0.0
H466 H 0.74107 0.45203 0.84662 0.0
H467 H 0.77902 0.35283 0.8454 0.0
S468 S 0.84809 0.49225 0.94969 0.0
N469 N 0.81176 0.53032 0.93169 0.0
N470 N 0.85332 0.42234 0.93053 0.0
C471 C 0.82493 0.42745 0.90792 0.0
C472 C 0.80234 0.48631 0.90857 0.0
C473 C 0.24889 0.57587 0.41227 0.0
C474 C 0.27522 0.56056 0.38753 0.0
C475 C 0.22678 0.63376 0.41144 0.0
C476 C 0.22976 0.67822 0.38563 0.0
H477 H 0.2467 0.5445 0.43311 0.0
H478 H 0.20866 0.64512 0.43197 0.0
S479 S 0.28952 0.65434 0.31215 0.0
N480 N 0.29956 0.59043 0.33474 0.0
N481 N 0.25783 0.69781 0.33282 0.0
C482 C 0.25399 0.66073 0.3597 0.0
C483 C 0.27677 0.60244 0.36077 0.0
C484 C 0.28211 0.44794 0.86387 0.0
C485 C 0.27523 0.49672 0.88698 0.0
C486 C 0.25989 0.39061 0.86288 0.0
C487 C 0.22995 0.37864 0.88525 0.0
H488 H 0.30528 0.45363 0.84648 0.0
H489 H 0.26741 0.35427 0.84506 0.0
S490 S 0.19931 0.49211 0.9502 0.0
N491 N 0.23531 0.53059 0.93208 0.0
N492 N 0.19383 0.4226 0.93073 0.0
C493 C 0.22187 0.42817 0.9079 0.0
C494 C 0.2444 0.48706 0.90866 0.0
C495 C 0.78645 0.66448 0.36254 0.0
C496 C 0.81609 0.67664 0.3852 0.0
C497 C 0.76425 0.60716 0.36341 0.0
C498 C 0.77089 0.55861 0.38669 0.0
H499 H 0.77911 0.70068 0.3446 0.0
H500 H 0.74127 0.6013 0.34581 0.0
S501 S 0.84616 0.56363 0.45054 0.0
N502 N 0.85181 0.63301 0.43103 0.0
N503 N 0.81035 0.52501 0.43217 0.0
C504 C 0.80149 0.56839 0.40862 0.0
C505 C 0.82399 0.62727 0.40798 0.0
C506 C 0.24633 0.57645 0.10354 0.0
C507 C 0.27142 0.5607 0.12911 0.0
C508 C 0.22468 0.63481 0.10362 0.0
C509 C 0.22693 0.67924 0.12949 0.0
H510 H 0.24482 0.54505 0.08265 0.0
H511 H 0.20757 0.64653 0.08254 0.0
S512 S 0.28331 0.65437 0.20479 0.0
N513 N 0.29382 0.59014 0.18256 0.0
N514 N 0.25283 0.69845 0.18316 0.0
C515 C 0.24985 0.66132 0.1562 0.0
C516 C 0.27219 0.60256 0.15587 0.0
C517 C 0.81938 0.42207 0.60381 0.0
C518 C 0.81702 0.37786 0.62976 0.0
C519 C 0.79758 0.48029 0.60343 0.0
C520 C 0.77221 0.49613 0.62876 0.0
H521 H 0.83672 0.41029 0.58289 0.0
H522 H 0.79922 0.51151 0.5825 0.0
S523 S 0.75982 0.40306 0.7045 0.0
N524 N 0.79063 0.35899 0.68322 0.0
N525 N 0.74938 0.46701 0.68207 0.0
C526 C 0.77131 0.4545 0.6556 0.0
C527 C 0.79379 0.39589 0.65622 0.0
C528 C 0.40236 0.46468 0.01029 0.0
C529 C 0.40059 0.49989 0.03934 0.0
C530 C 0.4023 0.49651 0.98044 0.0
C531 C 0.40143 0.56488 0.97841 0.0
H532 H 0.40196 0.4119 0.01049 0.0
H533 H 0.40214 0.46722 0.95879 0.0
S534 S 0.4005 0.67993 0.04742 0.0
N535 N 0.4003 0.60705 0.06417 0.0
N536 N 0.40143 0.66696 0.00829 0.0
C537 C 0.40183 0.60076 1.00732 0.0
C538 C 0.40107 0.56829 0.03769 0.0
C539 C 0.64243 0.55864 0.4793 0.0
C540 C 0.64364 0.49029 0.47727 0.0
C541 C 0.64191 0.59048 0.50916 0.0
C542 C 0.64354 0.55532 0.53822 0.0
H543 H 0.64266 0.58793 0.45766 0.0
H544 H 0.64206 0.64326 0.50936 0.0
S545 S 0.64451 0.37529 0.54625 0.0
N546 N 0.64388 0.38823 0.50712 0.0
N547 N 0.64418 0.44817 0.56303 0.0
C548 C 0.64345 0.48691 0.53656 0.0
C549 C 0.64315 0.45442 0.50617 0.0
C550 C 0.64045 0.56238 0.0345 0.0
C551 C 0.64136 0.49399 0.03654 0.0
C552 C 0.6403 0.59425 1.00464 0.0
C553 C 0.64202 0.55906 0.97559 0.0
H554 H 0.64071 0.59165 0.05616 0.0
H555 H 0.64072 0.64702 1.00444 0.0
S556 S 0.6417 0.37909 0.9675 0.0
N557 N 0.64104 0.39198 1.00663 0.0
N558 N 0.64192 0.45194 0.95076 0.0
C559 C 0.64137 0.49067 0.97724 0.0
C560 C 0.64073 0.45817 0.00762 0.0
C561 C 0.40537 0.592 0.50891 0.0
C562 C 0.40427 0.55694 0.53799 0.0
C563 C 0.40539 0.55998 0.47909 0.0
C564 C 0.40529 0.49154 0.47709 0.0
H565 H 0.4043 0.64475 0.50907 0.0
H566 H 0.40452 0.58917 0.45742 0.0
S567 S 0.40755 0.37715 0.54627 0.0
N568 N 0.40629 0.45006 0.56294 0.0
N569 N 0.40754 0.38976 0.50711 0.0
C570 C 0.40676 0.45592 0.50605 0.0
C571 C 0.40592 0.48859 0.5364 0.0
C572 C 0.9031 0.9941 0.97919 0.0
C573 C 0.90334 0.06251 0.97705 0.0
C574 C 0.90291 0.9624 0.00908 0.0
C575 C 0.90213 0.99781 0.0381 0.0
H576 H 0.90223 0.96469 0.95758 0.0
H577 H 0.90163 0.90967 0.00937 0.0
S578 S 0.9037 0.1779 0.04591 0.0
N579 N 0.90437 0.1647 1.00681 0.0
N580 N 0.90303 0.10513 0.06277 0.0
C581 C 0.90333 0.0662 0.03635 0.0
C582 C 0.90424 0.0985 1.00592 0.0
C583 C 0.14238 0.96229 0.50531 0.0
C584 C 0.14322 0.99782 0.47634 0.0
C585 C 0.14225 0.99382 0.53524 0.0
C586 C 0.14213 0.06221 0.53749 0.0
H587 H 0.14356 0.90955 0.50497 0.0
H588 H 0.14308 0.96428 0.5568 0.0
S589 S 0.14183 0.17794 0.4688 0.0
N590 N 0.14243 0.10525 0.45182 0.0
N591 N 0.14117 0.16456 0.50789 0.0
C592 C 0.14124 0.09835 0.50867 0.0
C593 C 0.1421 0.0662 0.47819 0.0
C594 C 0.13994 0.9644 0.00925 0.0
C595 C 0.14168 0.99972 0.03827 0.0
C596 C 0.14065 0.99604 0.97934 0.0
C597 C 0.14215 0.06435 0.97721 0.0
H598 H 0.13988 0.91162 0.00952 0.0
H599 H 0.14082 0.96664 0.95772 0.0
S600 S 0.14298 0.1798 0.04607 0.0
N601 N 0.14243 0.10704 0.06293 0.0
N602 N 0.14247 0.1666 1.00696 0.0
C603 C 0.14161 0.10041 1.00608 0.0
C604 C 0.14173 0.06812 0.03651 0.0
C605 C 0.90376 0.06008 0.47956 0.0
C606 C 0.90242 0.99173 0.47754 0.0
C607 C 0.90399 0.09197 0.50942 0.0
C608 C 0.90191 0.05684 0.53847 0.0
H609 H 0.90384 0.08929 0.45789 0.0
H610 H 0.90395 0.14474 0.50963 0.0
S611 S 0.90074 0.87682 0.54657 0.0
N612 N 0.90178 0.88972 0.50745 0.0
N613 N 0.90096 0.94973 0.56331 0.0
C614 C 0.90198 0.98843 0.53683 0.0
C615 C 0.90258 0.95591 0.50647 0.0
C616 C 0.50037 0.40161 0.15353 0.0
C617 C 0.479 0.354 0.13673 0.0
C618 C 0.54111 0.40169 0.15346 0.0
C619 C 0.56238 0.35413 0.13661 0.0
H620 H 0.48553 0.4414 0.16548 0.0
H621 H 0.55603 0.44151 0.16533 0.0
S622 S 0.52064 0.21265 0.09292 0.0
N623 N 0.4823 0.25325 0.106 0.0
N624 N 0.55901 0.25337 0.10589 0.0
C625 C 0.54153 0.30275 0.12215 0.0
C626 C 0.49981 0.30269 0.1222 0.0
C627 C 0.54383 0.749 0.61786 0.0
C628 C 0.565 0.70325 0.6361 0.0
C629 C 0.50284 0.74907 0.6179 0.0
C630 C 0.48177 0.70332 0.63615 0.0
H631 H 0.55885 0.7817 0.60165 0.0
H632 H 0.48774 0.7818 0.60173 0.0
S633 S 0.52353 0.58315 0.69316 0.0
N634 N 0.56181 0.61853 0.67678 0.0
N635 N 0.48518 0.61826 0.67665 0.0
C636 C 0.50269 0.66178 0.65675 0.0
C637 C 0.54419 0.66185 0.65678 0.0
C638 C 0.54338 0.65939 0.8608 0.0
C639 C 0.56488 0.70603 0.87812 0.0
C640 C 0.50265 0.65939 0.8611 0.0
C641 C 0.48156 0.70604 0.87871 0.0
H642 H 0.55811 0.62019 0.84831 0.0
H643 H 0.48761 0.62024 0.8488 0.0
S644 S 0.5237 0.84502 0.92401 0.0
N645 N 0.56192 0.80511 0.91017 0.0
N646 N 0.4852 0.80508 0.91072 0.0
C647 C 0.50253 0.75662 0.89369 0.0
C648 C 0.54423 0.75662 0.8934 0.0
C649 C 0.54372 0.397 0.35938 0.0
C650 C 0.56477 0.34968 0.37663 0.0
C651 C 0.50301 0.39734 0.35919 0.0
C652 C 0.48154 0.3503 0.37617 0.0
H653 H 0.5588 0.43648 0.34741 0.0
H654 H 0.48827 0.43711 0.34712 0.0
S655 S 0.52257 0.20942 0.42077 0.0
N656 N 0.5611 0.24955 0.40776 0.0
N657 N 0.4844 0.25004 0.40732 0.0
C658 C 0.50212 0.29896 0.39093 0.0
C659 C 0.5438 0.29868 0.39117 0.0
C660 C 1.00159 0.8069 0.11818 0.0
C661 C 0.98048 0.85225 0.13667 0.0
C662 C 0.04256 0.807 0.11813 0.0
C663 C 0.06368 0.85245 0.13658 0.0
H664 H 0.98652 0.77447 0.10183 0.0
H665 H 0.0576 0.77464 0.10175 0.0
S666 S 1.0221 0.97117 0.19436 0.0
N667 N 0.98376 0.93624 0.17774 0.0
N668 N 0.06043 0.9364 0.17768 0.0
C669 C 0.04284 0.89345 0.15747 0.0
C670 C 1.00133 0.89336 0.15751 0.0
C671 C 1.00132 0.15537 0.65399 0.0
C672 C 0.98031 0.20277 0.63674 0.0
C673 C 0.04205 0.15523 0.65444 0.0
C674 C 0.06363 0.20259 0.63776 0.0
H675 H 0.98623 0.11574 0.66582 0.0
H676 H 0.05673 0.11546 0.66655 0.0
S677 S 1.02274 0.34375 0.59328 0.0
N678 N 0.98415 0.30326 0.6059 0.0
N679 N 0.06085 0.30313 0.60684 0.0
C680 C 0.04307 0.25391 0.62296 0.0
C681 C 1.00137 0.25398 0.62244 0.0
C682 C 0.04378 0.25171 0.89339 0.0
C683 C 0.06502 0.2053 0.87567 0.0
C684 C 1.00284 0.25124 0.89342 0.0
C685 C 0.9819 0.20427 0.87577 0.0
H686 H 0.05873 0.28525 0.90927 0.0
H687 H 0.98769 0.28452 0.90927 0.0
S688 S 0.02384 0.08223 0.81992 0.0
N689 N 0.06205 0.11878 0.83587 0.0
N690 N 0.9854 0.11756 0.83613 0.0
C691 C 1.00284 0.16215 0.85553 0.0
C692 C 0.04432 0.16277 0.85542 0.0
C693 C 0.0435 0.89586 0.36098 0.0
C694 C 0.06485 0.84989 0.37884 0.0
C695 C 1.00278 0.89552 0.36079 0.0
C696 C 0.98155 0.84919 0.37845 0.0
H697 H 0.05832 0.93482 0.3484 0.0
H698 H 0.98783 0.93427 0.34811 0.0
S699 S 0.02337 0.71198 0.42524 0.0
N700 N 0.06168 0.75178 0.41156 0.0
N701 N 0.98496 0.75116 0.41121 0.0
C702 C 1.00241 0.79922 0.39403 0.0
C703 C 0.04412 0.79958 0.39423 0.0
C704 C 0.26035 0.26053 0.03792 0.0
C705 C 0.28491 0.3149 0.03497 0.0
C706 C 0.2463 0.22838 0.01065 0.0
C707 C 0.25649 0.24937 0.97961 0.0
H708 H 0.253 0.24135 0.06139 0.0
H709 H 0.22742 0.18662 0.01384 0.0
S710 S 0.31689 0.39322 0.95918 0.0
N711 N 0.31684 0.39096 0.99883 0.0
N712 N 0.29044 0.33039 0.94749 0.0
C713 C 0.28044 0.30441 0.97636 0.0
C714 C 0.29454 0.33733 1.00409 0.0
C715 C 0.79751 0.82772 0.51011 0.0
C716 C 0.78783 0.80667 0.47896 0.0
C717 C 0.78308 0.79553 0.53718 0.0
C718 C 0.75864 0.74106 0.53391 0.0
H719 H 0.81634 0.86948 0.51354 0.0
H720 H 0.79011 0.8147 0.56074 0.0
S721 S 0.72767 0.66288 0.45773 0.0
N722 N 0.7543 0.72571 0.44639 0.0
N723 N 0.72717 0.66509 0.49738 0.0
C724 C 0.74939 0.71871 0.50293 0.0
C725 C 0.7639 0.75167 0.47539 0.0
C726 C 0.28255 0.76162 0.0369 0.0
C727 C 0.25703 0.81472 0.03372 0.0
C728 C 0.29716 0.72968 0.00978 0.0
C729 C 0.2867 0.7496 0.97859 0.0
H730 H 0.29038 0.74333 0.06046 0.0
H731 H 0.31685 0.68903 0.01322 0.0
S732 S 0.22322 0.88939 0.95746 0.0
N733 N 0.22344 0.88802 0.99713 0.0
N734 N 0.25094 0.82787 0.94609 0.0
C735 C 0.26155 0.80309 0.97509 0.0
C736 C 0.24683 0.8358 1.00269 0.0
C737 C 0.76175 0.29584 0.53683 0.0
C738 C 0.7866 0.24178 0.53415 0.0
C739 C 0.74775 0.32753 0.50938 0.0
C740 C 0.75823 0.30641 0.47839 0.0
H741 H 0.75406 0.31509 0.56022 0.0
H742 H 0.72855 0.36895 0.51242 0.0
S743 S 0.81996 0.16378 0.45859 0.0
N744 N 0.81944 0.1662 0.49824 0.0
N745 N 0.79317 0.226 0.44663 0.0
C746 C 0.78265 0.25192 0.4754 0.0
C747 C 0.7967 0.21942 0.50331 0.0
C748 C 0.79845 0.82764 1.00407 0.0
C749 C 0.78721 0.80858 0.03518 0.0
C750 C 0.78428 0.79525 0.97693 0.0
C751 C 0.75858 0.74246 0.98006 0.0
H752 H 0.81844 0.8679 1.00069 0.0
H753 H 0.79253 0.813 0.95339 0.0
S754 S 0.72326 0.66941 0.05615 0.0
N755 N 0.75075 0.73114 0.06759 0.0
N756 N 0.72431 0.66987 0.01649 0.0
C757 C 0.74784 0.72192 0.01102 0.0
C758 C 0.76199 0.75521 0.03863 0.0
C759 C 0.23336 0.27632 0.51023 0.0
C760 C 0.25522 0.24336 0.53391 0.0
C761 C 0.25142 0.30565 0.48389 0.0
C762 C 0.29192 0.30321 0.48037 0.0
H763 H 0.20206 0.2809 0.51237 0.0
H764 H 0.2336 0.33106 0.46643 0.0
S765 S 0.36158 0.21544 0.53355 0.0
N766 N 0.31885 0.20558 0.55092 0.0
N767 N 0.35314 0.2596 0.50115 0.0
C768 C 0.31401 0.2685 0.50337 0.0
C769 C 0.29556 0.23891 0.53023 0.0
C770 C 0.79416 0.30742 0.03061 0.0
C771 C 0.75373 0.30388 0.03442 0.0
C772 C 0.81226 0.2783 1.00418 0.0
C773 C 0.79054 0.24443 0.9807 0.0
H774 H 0.81185 0.33365 0.04786 0.0
H775 H 0.84348 0.28376 1.00179 0.0
S776 S 0.68456 0.21299 0.98211 0.0
N777 N 0.69285 0.25787 0.0143 0.0
N778 N 0.72718 0.20435 0.96437 0.0
C779 C 0.7503 0.23874 0.98475 0.0
C780 C 0.73182 0.26808 0.0117 0.0
C781 C 0.24714 0.82706 0.51095 0.0
C782 C 0.25856 0.80889 0.47972 0.0
C783 C 0.26137 0.79415 0.53797 0.0
C784 C 0.28725 0.7416 0.53464 0.0
H785 H 0.22701 0.86709 0.51452 0.0
H786 H 0.25301 0.81135 0.5616 0.0
S787 S 0.323 0.67059 0.45815 0.0
N788 N 0.29539 0.73241 0.447 0.0
N789 N 0.32176 0.67009 0.49779 0.0
C790 C 0.29807 0.72186 0.50354 0.0
C791 C 0.28394 0.75573 0.47607 0.0
C792 C 0.37259 0.43426 0.24099 0.0
C793 C 0.34075 0.40927 0.22362 0.0
C794 C 0.37292 0.43462 0.27457 0.0
C795 C 0.34143 0.41001 0.29243 0.0
H796 H 0.39762 0.45423 0.22864 0.0
H797 H 0.39819 0.45481 0.28654 0.0
S798 S 0.25162 0.33583 0.25872 0.0
N799 N 0.27724 0.35715 0.22689 0.0
N800 N 0.27786 0.35784 0.29015 0.0
C801 C 0.30943 0.38428 0.27546 0.0
C802 C 0.3091 0.38389 0.24108 0.0
C803 C 0.67105 0.625 0.77374 0.0
C804 C 0.70289 0.64935 0.79136 0.0
C805 C 0.67098 0.62503 0.74015 0.0
C806 C 0.70274 0.64941 0.72253 0.0
H807 H 0.64588 0.6051 0.78593 0.0
H808 H 0.64576 0.60515 0.72797 0.0
S809 S 0.79242 0.72277 0.75695 0.0
N810 N 0.76649 0.70126 0.78857 0.0
N811 N 0.76638 0.70128 0.72533 0.0
C812 C 0.73462 0.67489 0.73977 0.0
C813 C 0.73468 0.67487 0.77413 0.0
C814 C 0.31182 0.64945 0.77418 0.0
C815 C 0.34688 0.64997 0.79177 0.0
C816 C 0.3118 0.64937 0.74042 0.0
C817 C 0.34685 0.64984 0.7229 0.0
H818 H 0.2841 0.6479 0.78654 0.0
H819 H 0.2841 0.64771 0.72802 0.0
S820 S 0.44656 0.65868 0.75745 0.0
N821 N 0.41756 0.65598 0.78897 0.0
N822 N 0.41755 0.65603 0.72588 0.0
C823 C 0.38207 0.65259 0.74024 0.0
C824 C 0.38209 0.6526 0.77452 0.0
C825 C 0.73448 0.40902 0.23956 0.0
C826 C 0.69937 0.40687 0.22209 0.0
C827 C 0.73463 0.40855 0.27334 0.0
C828 C 0.69967 0.40595 0.29096 0.0
H829 H 0.76206 0.41236 0.2271 0.0
H830 H 0.76233 0.41151 0.2857 0.0
S831 S 0.60004 0.39234 0.25671 0.0
N832 N 0.62883 0.39696 0.22511 0.0
N833 N 0.62912 0.39616 0.2882 0.0
C834 C 0.66445 0.40165 0.27373 0.0
C835 C 0.6643 0.4021 0.23946 0.0
C836 C 0.87516 0.9327 0.24042 0.0
C837 C 0.84345 0.90773 0.22285 0.0
C838 C 0.8754 0.93232 0.27403 0.0
C839 C 0.84394 0.90693 0.29166 0.0
H840 H 0.90009 0.95335 0.22818 0.0
H841 H 0.90046 0.95273 0.28621 0.0
S842 S 0.75481 0.83151 0.25732 0.0
N843 N 0.78038 0.8541 0.22569 0.0
N844 N 0.78079 0.85335 0.28891 0.0
C845 C 0.81223 0.88079 0.27445 0.0
C846 C 0.81199 0.8812 0.2401 0.0
C847 C 0.16944 0.12954 0.77405 0.0
C848 C 0.203 0.14622 0.79165 0.0
C849 C 0.16945 0.12896 0.74045 0.0
C850 C 0.20302 0.14505 0.72275 0.0
H851 H 0.14271 0.11657 0.78624 0.0
H852 H 0.14271 0.11559 0.72834 0.0
S853 S 0.29853 0.19388 0.75708 0.0
N854 N 0.27079 0.18036 0.78871 0.0
N855 N 0.27078 0.17928 0.72551 0.0
C856 C 0.23682 0.16229 0.73997 0.0
C857 C 0.23681 0.16289 0.77435 0.0
C858 C 0.80971 0.14787 0.74064 0.0
C859 C 0.84455 0.15169 0.72293 0.0
C860 C 0.81003 0.14758 0.77443 0.0
C861 C 0.84521 0.15116 0.79177 0.0
H862 H 0.78202 0.14356 0.72835 0.0
H863 H 0.78258 0.14306 0.787 0.0
S864 S 0.94409 0.16994 0.75684 0.0
N865 N 0.91493 0.16466 0.72544 0.0
N866 N 0.91551 0.16427 0.78853 0.0
C867 C 0.88009 0.15748 0.7743 0.0
C868 C 0.87977 0.15773 0.74004 0.0
C869 C 0.17063 0.93348 0.27405 0.0
C870 C 0.20183 0.90659 0.29156 0.0
C871 C 0.1705 0.93379 0.24044 0.0
C872 C 0.20156 0.90723 0.22269 0.0
H873 H 0.14607 0.95518 0.28635 0.0
H874 H 0.14582 0.95568 0.22833 0.0
S875 S 0.28914 0.82653 0.25678 0.0
N876 N 0.26393 0.84982 0.28851 0.0
N877 N 0.26369 0.85042 0.22525 0.0
C878 C 0.23275 0.87921 0.23981 0.0
C879 C 0.23288 0.87889 0.27419 0.0
loop_
_geom_bond_atom_site_label_1
_geom_bond_atom_site_label_2
_geom_bond_distance
_geom_bond_site_symmetry_2
_ccdc_geom_bond_type
Fe0 O2 1.918 . S
Fe0 O5 1.997 . S
Fe0 O6 2.002 . S
Fe0 O11 1.976 . S
Fe0 O14 1.996 . S
Fe1 O2 1.918 . S
Fe1 O9 1.997 . S
Fe1 O12 1.996 . S
Fe1 O16 1.976 . S
Fe1 O19 2.002 . S
O2 Fe0 1.918 . S
O2 Fe1 1.918 . S
O2 Fe3 1.918 . S
Fe3 O2 1.918 . S
Fe3 O4 2.002 . S
Fe3 O13 1.976 . S
Fe3 O17 1.996 . S
Fe3 O20 1.997 . S
O4 Fe3 2.002 . S
O4 C21 1.295 . S
O5 Fe0 1.997 . S
O5 C21 1.235 . S
O6 Fe0 2.002 . S
O6 C7 1.295 . S
C7 O6 1.295 . S
C7 O9 1.235 . S
C8 O13 1.287 . S
C8 O14 1.255 . S
O9 Fe1 1.997 . S
O9 C7 1.235 . S
C10 O16 1.287 . S
C10 O17 1.255 . S
O11 Fe0 1.976 . S
O11 C18 1.287 . S
O12 Fe1 1.996 . S
O12 C18 1.255 . S
O13 Fe3 1.976 . S
O13 C8 1.287 . S
O14 Fe0 1.996 . S
O14 C8 1.255 . S
C15 O19 1.295 . S
C15 O20 1.235 . S
O16 Fe1 1.976 . S
O16 C10 1.287 . S
O17 Fe3 1.996 . S
O17 C10 1.255 . S
C18 O11 1.287 . S
C18 O12 1.255 . S
O19 Fe1 2.002 . S
O19 C15 1.295 . S
O20 Fe3 1.997 . S
O20 C15 1.235 . S
C21 O4 1.295 . S
C21 O5 1.235 . S
Fe22 O24 1.918 . S
Fe22 O27 1.997 . S
Fe22 O28 2.002 . S
Fe22 O33 1.976 . S
Fe22 O36 1.996 . S
Fe23 O24 1.918 . S
Fe23 O31 1.997 . S
Fe23 O34 1.996 . S
Fe23 O38 1.976 . S
Fe23 O41 2.002 . S
O24 Fe22 1.918 . S
O24 Fe23 1.918 . S
O24 Fe25 1.918 . S
Fe25 O24 1.918 . S
Fe25 O26 2.002 . S
Fe25 O35 1.976 . S
Fe25 O39 1.996 . S
Fe25 O42 1.997 . S
O26 Fe25 2.002 . S
O26 C43 1.295 . S
O27 Fe22 1.997 . S
O27 C43 1.235 . S
O28 Fe22 2.002 . S
O28 C29 1.295 . S
C29 O28 1.295 . S
C29 O31 1.235 . S
C30 O35 1.287 . S
C30 O36 1.255 . S
O31 Fe23 1.997 . S
O31 C29 1.235 . S
C32 O38 1.287 . S
C32 O39 1.255 . S
O33 Fe22 1.976 . S
O33 C40 1.287 . S
O34 Fe23 1.996 . S
O34 C40 1.255 . S
O35 Fe25 1.976 . S
O35 C30 1.287 . S
O36 Fe22 1.996 . S
O36 C30 1.255 . S
C37 O41 1.295 . S
C37 O42 1.235 . S
O38 Fe23 1.976 . S
O38 C32 1.287 . S
O39 Fe25 1.996 . S
O39 C32 1.255 . S
C40 O33 1.287 . S
C40 O34 1.255 . S
O41 Fe23 2.002 . S
O41 C37 1.295 . S
O42 Fe25 1.997 . S
O42 C37 1.235 . S
C43 O26 1.295 . S
C43 O27 1.235 . S
Fe44 O46 1.918 . S
Fe44 O49 1.997 . S
Fe44 O50 2.002 . S
Fe44 O55 1.976 . S
Fe44 O58 1.996 . S
Fe45 O46 1.918 . S
Fe45 O53 1.997 . S
Fe45 O56 1.996 . S
Fe45 O60 1.976 . S
Fe45 O63 2.002 . S
O46 Fe44 1.918 . S
O46 Fe45 1.918 . S
O46 Fe47 1.918 . S
Fe47 O46 1.918 . S
Fe47 O48 2.002 . S
Fe47 O57 1.976 . S
Fe47 O61 1.996 . S
Fe47 O64 1.997 . S
O48 Fe47 2.002 . S
O48 C65 1.295 . S
O49 Fe44 1.997 . S
O49 C65 1.235 . S
O50 Fe44 2.002 . S
O50 C51 1.295 . S
C51 O50 1.295 . S
C51 O53 1.235 . S
C52 O57 1.287 . S
C52 O58 1.255 . S
O53 Fe45 1.997 . S
O53 C51 1.235 . S
C54 O60 1.287 . S
C54 O61 1.255 . S
O55 Fe44 1.976 . S
O55 C62 1.287 . S
O56 Fe45 1.996 . S
O56 C62 1.255 . S
O57 Fe47 1.976 . S
O57 C52 1.287 . S
O58 Fe44 1.996 . S
O58 C52 1.255 . S
C59 O63 1.295 . S
C59 O64 1.235 . S
O60 Fe45 1.976 . S
O60 C54 1.287 . S
O61 Fe47 1.996 . S
O61 C54 1.255 . S
C62 O55 1.287 . S
C62 O56 1.255 . S
O63 Fe45 2.002 . S
O63 C59 1.295 . S
O64 Fe47 1.997 . S
O64 C59 1.235 . S
C65 O48 1.295 . S
C65 O49 1.235 . S
Fe66 O68 1.918 . S
Fe66 O71 1.997 . S
Fe66 O72 2.002 . S
Fe66 O77 1.976 . S
Fe66 O80 1.996 . S
Fe67 O68 1.918 . S
Fe67 O75 1.997 . S
Fe67 O78 1.996 . S
Fe67 O82 1.976 . S
Fe67 O85 2.002 . S
O68 Fe66 1.918 . S
O68 Fe67 1.918 . S
O68 Fe69 1.918 . S
Fe69 O68 1.918 . S
Fe69 O70 2.002 . S
Fe69 O79 1.976 . S
Fe69 O83 1.996 . S
Fe69 O86 1.997 . S
O70 Fe69 2.002 . S
O70 C87 1.295 . S
O71 Fe66 1.997 . S
O71 C87 1.235 . S
O72 Fe66 2.002 . S
O72 C73 1.295 . S
C73 O72 1.295 . S
C73 O75 1.235 . S
C74 O79 1.287 . S
C74 O80 1.255 . S
O75 Fe67 1.997 . S
O75 C73 1.235 . S
C76 O82 1.287 . S
C76 O83 1.255 . S
O77 Fe66 1.976 . S
O77 C84 1.287 . S
O78 Fe67 1.996 . S
O78 C84 1.255 . S
O79 Fe69 1.976 . S
O79 C74 1.287 . S
O80 Fe66 1.996 . S
O80 C74 1.255 . S
C81 O85 1.295 . S
C81 O86 1.235 . S
O82 Fe67 1.976 . S
O82 C76 1.287 . S
O83 Fe69 1.996 . S
O83 C76 1.255 . S
C84 O77 1.287 . S
C84 O78 1.255 . S
O85 Fe67 2.002 . S
O85 C81 1.295 . S
O86 Fe69 1.997 . S
O86 C81 1.235 . S
C87 O70 1.295 . S
C87 O71 1.235 . S
Fe88 O90 1.918 . S
Fe88 O93 1.997 . S
Fe88 O94 2.002 . S
Fe88 O99 1.976 . S
Fe88 O102 1.996 . S
Fe89 O90 1.918 . S
Fe89 O97 1.997 . S
Fe89 O100 1.996 . S
Fe89 O104 1.976 . S
Fe89 O107 2.002 . S
O90 Fe88 1.918 . S
O90 Fe89 1.918 . S
O90 Fe91 1.918 . S
Fe91 O90 1.918 . S
Fe91 O92 2.002 . S
Fe91 O101 1.976 . S
Fe91 O105 1.996 . S
Fe91 O108 1.997 . S
O92 Fe91 2.002 . S
O92 C109 1.295 . S
O93 Fe88 1.997 . S
O93 C109 1.235 . S
O94 Fe88 2.002 . S
O94 C95 1.295 . S
C95 O94 1.295 . S
C95 O97 1.235 . S
C96 O101 1.287 . S
C96 O102 1.255 . S
O97 Fe89 1.997 . S
O97 C95 1.235 . S
C98 O104 1.287 . S
C98 O105 1.255 . S
O99 Fe88 1.976 . S
O99 C106 1.287 . S
O100 Fe89 1.996 . S
O100 C106 1.255 . S
O101 Fe91 1.976 . S
O101 C96 1.287 . S
O102 Fe88 1.996 . S
O102 C96 1.255 . S
C103 O107 1.295 . S
C103 O108 1.235 . S
O104 Fe89 1.976 . S
O104 C98 1.287 . S
O105 Fe91 1.996 . S
O105 C98 1.255 . S
C106 O99 1.287 . S
C106 O100 1.255 . S
O107 Fe89 2.002 . S
O107 C103 1.295 . S
O108 Fe91 1.997 . S
O108 C103 1.235 . S
C109 O92 1.295 . S
C109 O93 1.235 . S
Fe110 O112 1.918 . S
Fe110 O115 1.997 . S
Fe110 O116 2.002 . S
Fe110 O121 1.976 . S
Fe110 O124 1.996 . S
Fe111 O112 1.918 . S
Fe111 O119 1.997 . S
Fe111 O122 1.996 . S
Fe111 O126 1.976 . S
Fe111 O129 2.002 . S
O112 Fe110 1.918 . S
O112 Fe111 1.918 . S
O112 Fe113 1.918 . S
Fe113 O112 1.918 . S
Fe113 O114 2.002 . S
Fe113 O123 1.976 . S
Fe113 O127 1.996 . S
Fe113 O130 1.997 . S
O114 Fe113 2.002 . S
O114 C131 1.295 . S
O115 Fe110 1.997 . S
O115 C131 1.235 . S
O116 Fe110 2.002 . S
O116 C117 1.295 . S
C117 O116 1.295 . S
C117 O119 1.235 . S
C118 O123 1.287 . S
C118 O124 1.255 . S
O119 Fe111 1.997 . S
O119 C117 1.235 . S
C120 O126 1.287 . S
C120 O127 1.255 . S
O121 Fe110 1.976 . S
O121 C128 1.287 . S
O122 Fe111 1.996 . S
O122 C128 1.255 . S
O123 Fe113 1.976 . S
O123 C118 1.287 . S
O124 Fe110 1.996 . S
O124 C118 1.255 . S
C125 O129 1.295 . S
C125 O130 1.235 . S
O126 Fe111 1.976 . S
O126 C120 1.287 . S
O127 Fe113 1.996 . S
O127 C120 1.255 . S
C128 O121 1.287 . S
C128 O122 1.255 . S
O129 Fe111 2.002 . S
O129 C125 1.295 . S
O130 Fe113 1.997 . S
O130 C125 1.235 . S
C131 O114 1.295 . S
C131 O115 1.235 . S
Fe132 O134 1.918 . S
Fe132 O137 1.997 . S
Fe132 O138 2.002 . S
Fe132 O143 1.976 . S
Fe132 O146 1.996 . S
Fe133 O134 1.918 . S
Fe133 O141 1.997 . S
Fe133 O144 1.996 . S
Fe133 O148 1.976 . S
Fe133 O151 2.002 . S
O134 Fe132 1.918 . S
O134 Fe133 1.918 . S
O134 Fe135 1.918 . S
Fe135 O134 1.918 . S
Fe135 O136 2.002 . S
Fe135 O145 1.976 . S
Fe135 O149 1.996 . S
Fe135 O152 1.997 . S
O136 Fe135 2.002 . S
O136 C153 1.295 . S
O137 Fe132 1.997 . S
O137 C153 1.235 . S
O138 Fe132 2.002 . S
O138 C139 1.295 . S
C139 O138 1.295 . S
C139 O141 1.235 . S
C140 O145 1.287 . S
C140 O146 1.255 . S
O141 Fe133 1.997 . S
O141 C139 1.235 . S
C142 O148 1.287 . S
C142 O149 1.255 . S
O143 Fe132 1.976 . S
O143 C150 1.287 . S
O144 Fe133 1.996 . S
O144 C150 1.255 . S
O145 Fe135 1.976 . S
O145 C140 1.287 . S
O146 Fe132 1.996 . S
O146 C140 1.255 . S
C147 O151 1.295 . S
C147 O152 1.235 . S
O148 Fe133 1.976 . S
O148 C142 1.287 . S
O149 Fe135 1.996 . S
O149 C142 1.255 . S
C150 O143 1.287 . S
C150 O144 1.255 . S
O151 Fe133 2.002 . S
O151 C147 1.295 . S
O152 Fe135 1.997 . S
O152 C147 1.235 . S
C153 O136 1.295 . S
C153 O137 1.235 . S
Fe154 O156 1.918 . S
Fe154 O159 1.997 . S
Fe154 O160 2.002 . S
Fe154 O165 1.976 . S
Fe154 O168 1.996 . S
Fe155 O156 1.918 . S
Fe155 O163 1.997 . S
Fe155 O166 1.996 . S
Fe155 O170 1.976 . S
Fe155 O173 2.002 . S
O156 Fe154 1.918 . S
O156 Fe155 1.918 . S
O156 Fe157 1.918 . S
Fe157 O156 1.918 . S
Fe157 O158 2.002 . S
Fe157 O167 1.976 . S
Fe157 O171 1.996 . S
Fe157 O174 1.997 . S
O158 Fe157 2.002 . S
O158 C175 1.295 . S
O159 Fe154 1.997 . S
O159 C175 1.235 . S
O160 Fe154 2.002 . S
O160 C161 1.295 . S
C161 O160 1.295 . S
C161 O163 1.235 . S
C162 O167 1.287 . S
C162 O168 1.255 . S
O163 Fe155 1.997 . S
O163 C161 1.235 . S
C164 O170 1.287 . S
C164 O171 1.255 . S
O165 Fe154 1.976 . S
O165 C172 1.287 . S
O166 Fe155 1.996 . S
O166 C172 1.255 . S
O167 Fe157 1.976 . S
O167 C162 1.287 . S
O168 Fe154 1.996 . S
O168 C162 1.255 . S
C169 O173 1.295 . S
C169 O174 1.235 . S
O170 Fe155 1.976 . S
O170 C164 1.287 . S
O171 Fe157 1.996 . S
O171 C164 1.255 . S
C172 O165 1.287 . S
C172 O166 1.255 . S
O173 Fe155 2.002 . S
O173 C169 1.295 . S
O174 Fe157 1.997 . S
O174 C169 1.235 . S
C175 O158 1.295 . S
C175 O159 1.235 . S
Fe176 O178 1.918 . S
Fe176 O181 1.997 . S
Fe176 O182 2.002 . S
Fe176 O187 1.976 . S
Fe176 O190 1.996 . S
Fe177 O178 1.918 . S
Fe177 O185 1.997 . S
Fe177 O188 1.996 . S
Fe177 O192 1.976 . S
Fe177 O195 2.002 . S
O178 Fe176 1.918 . S
O178 Fe177 1.918 . S
O178 Fe179 1.918 . S
Fe179 O178 1.918 . S
Fe179 O180 2.002 . S
Fe179 O189 1.976 . S
Fe179 O193 1.996 . S
Fe179 O196 1.997 . S
O180 Fe179 2.002 . S
O180 C197 1.295 . S
O181 Fe176 1.997 . S
O181 C197 1.235 . S
O182 Fe176 2.002 . S
O182 C183 1.295 . S
C183 O182 1.295 . S
C183 O185 1.235 . S
C184 O189 1.287 . S
C184 O190 1.255 . S
O185 Fe177 1.997 . S
O185 C183 1.235 . S
C186 O192 1.287 . S
C186 O193 1.255 . S
O187 Fe176 1.976 . S
O187 C194 1.287 . S
O188 Fe177 1.996 . S
O188 C194 1.255 . S
O189 Fe179 1.976 . S
O189 C184 1.287 . S
O190 Fe176 1.996 . S
O190 C184 1.255 . S
C191 O195 1.295 . S
C191 O196 1.235 . S
O192 Fe177 1.976 . S
O192 C186 1.287 . S
O193 Fe179 1.996 . S
O193 C186 1.255 . S
C194 O187 1.287 . S
C194 O188 1.255 . S
O195 Fe177 2.002 . S
O195 C191 1.295 . S
O196 Fe179 1.997 . S
O196 C191 1.235 . S
C197 O180 1.295 . S
C197 O181 1.235 . S
Fe198 O200 1.918 . S
Fe198 O203 1.997 . S
Fe198 O204 2.002 . S
Fe198 O209 1.976 . S
Fe198 O212 1.996 . S
Fe199 O200 1.918 . S
Fe199 O207 1.997 . S
Fe199 O210 1.996 . S
Fe199 O214 1.976 . S
Fe199 O217 2.002 . S
O200 Fe198 1.918 . S
O200 Fe199 1.918 . S
O200 Fe201 1.918 . S
Fe201 O200 1.918 . S
Fe201 O202 2.002 . S
Fe201 O211 1.976 . S
Fe201 O215 1.996 . S
Fe201 O218 1.997 . S
O202 Fe201 2.002 . S
O202 C219 1.295 . S
O203 Fe198 1.997 . S
O203 C219 1.235 . S
O204 Fe198 2.002 . S
O204 C205 1.295 . S
C205 O204 1.295 . S
C205 O207 1.235 . S
C206 O211 1.287 . S
C206 O212 1.255 . S
O207 Fe199 1.997 . S
O207 C205 1.235 . S
C208 O214 1.287 . S
C208 O215 1.255 . S
O209 Fe198 1.976 . S
O209 C216 1.287 . S
O210 Fe199 1.996 . S
O210 C216 1.255 . S
O211 Fe201 1.976 . S
O211 C206 1.287 . S
O212 Fe198 1.996 . S
O212 C206 1.255 . S
C213 O217 1.295 . S
C213 O218 1.235 . S
O214 Fe199 1.976 . S
O214 C208 1.287 . S
O215 Fe201 1.996 . S
O215 C208 1.255 . S
C216 O209 1.287 . S
C216 O210 1.255 . S
O217 Fe199 2.002 . S
O217 C213 1.295 . S
O218 Fe201 1.997 . S
O218 C213 1.235 . S
C219 O202 1.295 . S
C219 O203 1.235 . S
Fe220 O222 1.918 . S
Fe220 O225 1.997 . S
Fe220 O226 2.002 . S
Fe220 O231 1.976 . S
Fe220 O234 1.996 . S
Fe221 O222 1.918 . S
Fe221 O229 1.997 . S
Fe221 O232 1.996 . S
Fe221 O236 1.976 . S
Fe221 O239 2.002 . S
O222 Fe220 1.918 . S
O222 Fe221 1.918 . S
O222 Fe223 1.918 . S
Fe223 O222 1.918 . S
Fe223 O224 2.002 . S
Fe223 O233 1.976 . S
Fe223 O237 1.996 . S
Fe223 O240 1.997 . S
O224 Fe223 2.002 . S
O224 C241 1.295 . S
O225 Fe220 1.997 . S
O225 C241 1.235 . S
O226 Fe220 2.002 . S
O226 C227 1.295 . S
C227 O226 1.295 . S
C227 O229 1.235 . S
C228 O233 1.287 . S
C228 O234 1.255 . S
O229 Fe221 1.997 . S
O229 C227 1.235 . S
C230 O236 1.287 . S
C230 O237 1.255 . S
O231 Fe220 1.976 . S
O231 C238 1.287 . S
O232 Fe221 1.996 . S
O232 C238 1.255 . S
O233 Fe223 1.976 . S
O233 C228 1.287 . S
O234 Fe220 1.996 . S
O234 C228 1.255 . S
C235 O239 1.295 . S
C235 O240 1.235 . S
O236 Fe221 1.976 . S
O236 C230 1.287 . S
O237 Fe223 1.996 . S
O237 C230 1.255 . S
C238 O231 1.287 . S
C238 O232 1.255 . S
O239 Fe221 2.002 . S
O239 C235 1.295 . S
O240 Fe223 1.997 . S
O240 C235 1.235 . S
C241 O224 1.295 . S
C241 O225 1.235 . S
Fe242 O244 1.918 . S
Fe242 O247 1.997 . S
Fe242 O248 2.002 . S
Fe242 O253 1.976 . S
Fe242 O256 1.996 . S
Fe243 O244 1.918 . S
Fe243 O251 1.997 . S
Fe243 O254 1.996 . S
Fe243 O258 1.976 . S
Fe243 O261 2.002 . S
O244 Fe242 1.918 . S
O244 Fe243 1.918 . S
O244 Fe245 1.918 . S
Fe245 O244 1.918 . S
Fe245 O246 2.002 . S
Fe245 O255 1.976 . S
Fe245 O259 1.996 . S
Fe245 O262 1.997 . S
O246 Fe245 2.002 . S
O246 C263 1.295 . S
O247 Fe242 1.997 . S
O247 C263 1.235 . S
O248 Fe242 2.002 . S
O248 C249 1.295 . S
C249 O248 1.295 . S
C249 O251 1.235 . S
C250 O255 1.287 . S
C250 O256 1.255 . S
O251 Fe243 1.997 . S
O251 C249 1.235 . S
C252 O258 1.287 . S
C252 O259 1.255 . S
O253 Fe242 1.976 . S
O253 C260 1.287 . S
O254 Fe243 1.996 . S
O254 C260 1.255 . S
O255 Fe245 1.976 . S
O255 C250 1.287 . S
O256 Fe242 1.996 . S
O256 C250 1.255 . S
C257 O261 1.295 . S
C257 O262 1.235 . S
O258 Fe243 1.976 . S
O258 C252 1.287 . S
O259 Fe245 1.996 . S
O259 C252 1.255 . S
C260 O253 1.287 . S
C260 O254 1.255 . S
O261 Fe243 2.002 . S
O261 C257 1.295 . S
O262 Fe245 1.997 . S
O262 C257 1.235 . S
C263 O246 1.295 . S
C263 O247 1.235 . S
Fe264 O266 1.918 . S
Fe264 O269 1.997 . S
Fe264 O270 2.002 . S
Fe264 O275 1.976 . S
Fe264 O278 1.996 . S
Fe265 O266 1.918 . S
Fe265 O273 1.997 . S
Fe265 O276 1.996 . S
Fe265 O280 1.976 . S
Fe265 O283 2.002 . S
O266 Fe264 1.918 . S
O266 Fe265 1.918 . S
O266 Fe267 1.918 . S
Fe267 O266 1.918 . S
Fe267 O268 2.002 . S
Fe267 O277 1.976 . S
Fe267 O281 1.996 . S
Fe267 O284 1.997 . S
O268 Fe267 2.002 . S
O268 C285 1.295 . S
O269 Fe264 1.997 . S
O269 C285 1.235 . S
O270 Fe264 2.002 . S
O270 C271 1.295 . S
C271 O270 1.295 . S
C271 O273 1.235 . S
C272 O277 1.287 . S
C272 O278 1.255 . S
O273 Fe265 1.997 . S
O273 C271 1.235 . S
C274 O280 1.287 . S
C274 O281 1.255 . S
O275 Fe264 1.976 . S
O275 C282 1.287 . S
O276 Fe265 1.996 . S
O276 C282 1.255 . S
O277 Fe267 1.976 . S
O277 C272 1.287 . S
O278 Fe264 1.996 . S
O278 C272 1.255 . S
C279 O283 1.295 . S
C279 O284 1.235 . S
O280 Fe265 1.976 . S
O280 C274 1.287 . S
O281 Fe267 1.996 . S
O281 C274 1.255 . S
C282 O275 1.287 . S
C282 O276 1.255 . S
O283 Fe265 2.002 . S
O283 C279 1.295 . S
O284 Fe267 1.997 . S
O284 C279 1.235 . S
C285 O268 1.295 . S
C285 O269 1.235 . S
Fe286 O288 1.918 . S
Fe286 O291 1.997 . S
Fe286 O292 2.002 . S
Fe286 O297 1.976 . S
Fe286 O300 1.996 . S
Fe287 O288 1.918 . S
Fe287 O295 1.997 . S
Fe287 O298 1.996 . S
Fe287 O302 1.976 . S
Fe287 O305 2.002 . S
O288 Fe286 1.918 . S
O288 Fe287 1.918 . S
O288 Fe289 1.918 . S
Fe289 O288 1.918 . S
Fe289 O290 2.002 . S
Fe289 O299 1.976 . S
Fe289 O303 1.996 . S
Fe289 O306 1.997 . S
O290 Fe289 2.002 . S
O290 C307 1.295 . S
O291 Fe286 1.997 . S
O291 C307 1.235 . S
O292 Fe286 2.002 . S
O292 C293 1.295 . S
C293 O292 1.295 . S
C293 O295 1.235 . S
C294 O299 1.287 . S
C294 O300 1.255 . S
O295 Fe287 1.997 . S
O295 C293 1.235 . S
C296 O302 1.287 . S
C296 O303 1.255 . S
O297 Fe286 1.976 . S
O297 C304 1.287 . S
O298 Fe287 1.996 . S
O298 C304 1.255 . S
O299 Fe289 1.976 . S
O299 C294 1.287 . S
O300 Fe286 1.996 . S
O300 C294 1.255 . S
C301 O305 1.295 . S
C301 O306 1.235 . S
O302 Fe287 1.976 . S
O302 C296 1.287 . S
O303 Fe289 1.996 . S
O303 C296 1.255 . S
C304 O297 1.287 . S
C304 O298 1.255 . S
O305 Fe287 2.002 . S
O305 C301 1.295 . S
O306 Fe289 1.997 . S
O306 C301 1.235 . S
C307 O290 1.295 . S
C307 O291 1.235 . S
Fe308 O310 1.918 . S
Fe308 O313 1.997 . S
Fe308 O314 2.002 . S
Fe308 O319 1.976 . S
Fe308 O322 1.996 . S
Fe309 O310 1.918 . S
Fe309 O317 1.997 . S
Fe309 O320 1.996 . S
Fe309 O324 1.976 . S
Fe309 O327 2.002 . S
O310 Fe308 1.918 . S
O310 Fe309 1.918 . S
O310 Fe311 1.918 . S
Fe311 O310 1.918 . S
Fe311 O312 2.002 . S
Fe311 O321 1.976 . S
Fe311 O325 1.996 . S
Fe311 O328 1.997 . S
O312 Fe311 2.002 . S
O312 C329 1.295 . S
O313 Fe308 1.997 . S
O313 C329 1.235 . S
O314 Fe308 2.002 . S
O314 C315 1.295 . S
C315 O314 1.295 . S
C315 O317 1.235 . S
C316 O321 1.287 . S
C316 O322 1.255 . S
O317 Fe309 1.997 . S
O317 C315 1.235 . S
C318 O324 1.287 . S
C318 O325 1.255 . S
O319 Fe308 1.976 . S
O319 C326 1.287 . S
O320 Fe309 1.996 . S
O320 C326 1.255 . S
O321 Fe311 1.976 . S
O321 C316 1.287 . S
O322 Fe308 1.996 . S
O322 C316 1.255 . S
C323 O327 1.295 . S
C323 O328 1.235 . S
O324 Fe309 1.976 . S
O324 C318 1.287 . S
O325 Fe311 1.996 . S
O325 C318 1.255 . S
C326 O319 1.287 . S
C326 O320 1.255 . S
O327 Fe309 2.002 . S
O327 C323 1.295 . S
O328 Fe311 1.997 . S
O328 C323 1.235 . S
C329 O312 1.295 . S
C329 O313 1.235 . S
Fe330 O332 1.918 . S
Fe330 O335 1.997 . S
Fe330 O336 2.002 . S
Fe330 O341 1.976 . S
Fe330 O344 1.996 . S
Fe331 O332 1.918 . S
Fe331 O339 1.997 . S
Fe331 O342 1.996 . S
Fe331 O346 1.976 . S
Fe331 O349 2.002 . S
O332 Fe330 1.918 . S
O332 Fe331 1.918 . S
O332 Fe333 1.918 . S
Fe333 O332 1.918 . S
Fe333 O334 2.002 . S
Fe333 O343 1.976 . S
Fe333 O347 1.996 . S
Fe333 O350 1.997 . S
O334 Fe333 2.002 . S
O334 C351 1.295 . S
O335 Fe330 1.997 . S
O335 C351 1.235 . S
O336 Fe330 2.002 . S
O336 C337 1.295 . S
C337 O336 1.295 . S
C337 O339 1.235 . S
C338 O343 1.287 . S
C338 O344 1.255 . S
O339 Fe331 1.997 . S
O339 C337 1.235 . S
C340 O346 1.287 . S
C340 O347 1.255 . S
O341 Fe330 1.976 . S
O341 C348 1.287 . S
O342 Fe331 1.996 . S
O342 C348 1.255 . S
O343 Fe333 1.976 . S
O343 C338 1.287 . S
O344 Fe330 1.996 . S
O344 C338 1.255 . S
C345 O349 1.295 . S
C345 O350 1.235 . S
O346 Fe331 1.976 . S
O346 C340 1.287 . S
O347 Fe333 1.996 . S
O347 C340 1.255 . S
C348 O341 1.287 . S
C348 O342 1.255 . S
O349 Fe331 2.002 . S
O349 C345 1.295 . S
O350 Fe333 1.997 . S
O350 C345 1.235 . S
C351 O334 1.295 . S
C351 O335 1.235 . S
C352 C353 1.369 . S
C352 C354 1.419 . S
C352 H356 0.930 . S
C353 C352 1.369 . S
C353 C362 1.429 . S
C354 C352 1.419 . S
C354 C355 1.363 . S
C354 H357 0.929 . S
C355 C354 1.363 . S
C355 C361 1.428 . S
H356 C352 0.930 . S
H357 C354 0.929 . S
S358 N359 1.613 . S
S358 N360 1.610 1_545 S
N359 S358 1.613 . S
N359 C362 1.350 . S
N360 S358 1.610 1_565 S
N360 C361 1.351 1_565 S
C361 C355 1.428 . S
C361 N360 1.351 1_545 S
C361 C362 1.434 . S
C362 C353 1.429 . S
C362 N359 1.350 . S
C362 C361 1.434 . S
C363 C364 1.369 . S
C363 C365 1.419 . S
C363 H367 0.930 . S
C364 C363 1.369 . S
C364 C373 1.429 . S
C365 C363 1.419 . S
C365 C366 1.363 . S
C365 H368 0.929 . S
C366 C365 1.363 . S
C366 C372 1.428 . S
H367 C363 0.930 . S
H368 C365 0.929 . S
S369 N370 1.613 1_545 S
S369 N371 1.610 . S
N370 S369 1.613 1_565 S
N370 C373 1.350 . S
N371 S369 1.610 . S
N371 C372 1.351 1_545 S
C372 C366 1.428 . S
C372 N371 1.351 1_565 S
C372 C373 1.434 . S
C373 C364 1.429 . S
C373 N370 1.350 . S
C373 C372 1.434 . S
C374 C375 1.369 . S
C374 C376 1.419 . S
C374 H378 0.930 . S
C375 C374 1.369 . S
C375 C384 1.429 . S
C376 C374 1.419 . S
C376 C377 1.363 . S
C376 H379 0.929 . S
C377 C376 1.363 . S
C377 C383 1.428 . S
H378 C374 0.930 . S
H379 C376 0.929 . S
S380 N381 1.613 . S
S380 N382 1.610 . S
N381 S380 1.613 . S
N381 C384 1.350 . S
N382 S380 1.610 . S
N382 C383 1.351 . S
C383 C377 1.428 . S
C383 N382 1.351 . S
C383 C384 1.434 . S
C384 C375 1.429 . S
C384 N381 1.350 . S
C384 C383 1.434 . S
C385 C386 1.369 . S
C385 C387 1.419 . S
C385 H389 0.930 . S
C386 C385 1.369 . S
C386 C395 1.429 . S
C387 C385 1.419 . S
C387 C388 1.363 . S
C387 H390 0.929 . S
C388 C387 1.363 . S
C388 C394 1.428 . S
H389 C385 0.930 . S
H390 C387 0.929 . S
S391 N392 1.613 . S
S391 N393 1.610 . S
N392 S391 1.613 . S
N392 C395 1.350 . S
N393 S391 1.610 . S
N393 C394 1.351 . S
C394 C388 1.428 . S
C394 N393 1.351 . S
C394 C395 1.434 . S
C395 C386 1.429 . S
C395 N392 1.350 . S
C395 C394 1.434 . S
C396 C397 1.369 . S
C396 C398 1.419 . S
C396 H400 0.930 . S
C397 C396 1.369 . S
C397 C406 1.429 . S
C398 C396 1.419 . S
C398 C399 1.363 . S
C398 H401 0.929 . S
C399 C398 1.363 . S
C399 C405 1.428 . S
H400 C396 0.930 . S
H401 C398 0.929 . S
S402 N403 1.610 1_565 S
S402 N404 1.610 . S
N403 S402 1.610 1_545 S
N403 C406 1.347 1_545 S
N404 S402 1.610 . S
N404 C405 1.351 . S
C405 C399 1.428 . S
C405 N404 1.351 . S
C405 C406 1.434 . S
C406 C397 1.429 . S
C406 N403 1.347 1_565 S
C406 C405 1.434 . S
C407 C408 1.369 . S
C407 C409 1.419 . S
C407 H411 0.930 1_545 S
C408 C407 1.369 . S
C408 C417 1.429 . S
C409 C407 1.419 . S
C409 C410 1.363 . S
C409 H412 0.929 . S
C410 C409 1.363 . S
C410 C416 1.428 . S
H411 C407 0.930 1_565 S
H412 C409 0.929 . S
S413 N414 1.613 . S
S413 N415 1.610 . S
N414 S413 1.613 . S
N414 C417 1.350 . S
N415 S413 1.610 . S
N415 C416 1.351 . S
C416 C410 1.428 . S
C416 N415 1.351 . S
C416 C417 1.434 . S
C417 C408 1.429 . S
C417 N414 1.350 . S
C417 C416 1.434 . S
C418 C419 1.369 . S
C418 C420 1.419 . S
C418 H422 0.930 . S
C419 C418 1.369 . S
C419 C428 1.429 . S
C420 C418 1.419 . S
C420 C421 1.363 . S
C420 H423 0.929 . S
C421 C420 1.363 . S
C421 C427 1.428 . S
H422 C418 0.930 . S
H423 C420 0.929 . S
S424 N425 1.613 . S
S424 N426 1.610 1_565 S
N425 S424 1.613 . S
N425 C428 1.350 1_565 S
N426 S424 1.610 1_545 S
N426 C427 1.351 . S
C427 C421 1.428 . S
C427 N426 1.351 . S
C427 C428 1.434 . S
C428 C419 1.429 . S
C428 N425 1.350 1_545 S
C428 C427 1.434 . S
C429 C430 1.369 . S
C429 C431 1.419 . S
C429 H433 0.930 1_565 S
C430 C429 1.369 . S
C430 C439 1.429 . S
C431 C429 1.419 . S
C431 C432 1.363 . S
C431 H434 0.929 . S
C432 C431 1.363 . S
C432 C438 1.428 . S
H433 C429 0.930 1_545 S
H434 C431 0.929 . S
S435 N436 1.613 . S
S435 N437 1.610 . S
N436 S435 1.613 . S
N436 C439 1.350 . S
N437 S435 1.610 . S
N437 C438 1.351 . S
C438 C432 1.428 . S
C438 N437 1.351 . S
C438 C439 1.434 . S
C439 C430 1.429 . S
C439 N436 1.350 . S
C439 C438 1.434 . S
C440 C441 1.369 . S
C440 C442 1.419 . S
C440 H444 0.930 . S
C441 C440 1.369 . S
C441 C450 1.429 . S
C442 C440 1.419 . S
C442 C443 1.363 . S
C442 H445 0.929 . S
C443 C442 1.363 . S
C443 C449 1.428 . S
H444 C440 0.930 . S
H445 C442 0.929 . S
S446 N447 1.613 . S
S446 N448 1.610 . S
N447 S446 1.613 . S
N447 C450 1.350 . S
N448 S446 1.610 . S
N448 C449 1.351 . S
C449 C443 1.428 . S
C449 N448 1.351 . S
C449 C450 1.434 . S
C450 C441 1.429 . S
C450 N447 1.350 . S
C450 C449 1.434 . S
C451 C452 1.369 . S
C451 C453 1.419 . S
C451 H455 0.930 . S
C452 C451 1.369 . S
C452 C461 1.429 . S
C453 C451 1.419 . S
C453 C454 1.363 . S
C453 H456 0.929 . S
C454 C453 1.363 . S
C454 C460 1.428 . S
H455 C451 0.930 . S
H456 C453 0.929 . S
S457 N458 1.613 . S
S457 N459 1.610 . S
N458 S457 1.613 . S
N458 C461 1.350 . S
N459 S457 1.610 . S
N459 C460 1.351 . S
C460 C454 1.428 . S
C460 N459 1.351 . S
C460 C461 1.434 . S
C461 C452 1.429 . S
C461 N458 1.350 . S
C461 C460 1.434 . S
C462 C463 1.369 . S
C462 C464 1.419 . S
C462 H466 0.930 . S
C463 C462 1.369 . S
C463 C472 1.429 . S
C464 C462 1.419 . S
C464 C465 1.363 . S
C464 H467 0.929 . S
C465 C464 1.363 . S
C465 C471 1.428 . S
H466 C462 0.930 . S
H467 C464 0.929 . S
S468 N469 1.613 . S
S468 N470 1.610 . S
N469 S468 1.613 . S
N469 C472 1.350 . S
N470 S468 1.610 . S
N470 C471 1.351 . S
C471 C465 1.428 . S
C471 N470 1.351 . S
C471 C472 1.434 . S
C472 C463 1.429 . S
C472 N469 1.350 . S
C472 C471 1.434 . S
C473 C474 1.369 . S
C473 C475 1.419 . S
C473 H477 0.930 . S
C474 C473 1.369 . S
C474 C483 1.429 . S
C475 C473 1.419 . S
C475 C476 1.363 . S
C475 H478 0.929 . S
C476 C475 1.363 . S
C476 C482 1.428 . S
H477 C473 0.930 . S
H478 C475 0.929 . S
S479 N480 1.613 . S
S479 N481 1.610 . S
N480 S479 1.613 . S
N480 C483 1.350 . S
N481 S479 1.610 . S
N481 C482 1.351 . S
C482 C476 1.428 . S
C482 N481 1.351 . S
C482 C483 1.434 . S
C483 C474 1.429 . S
C483 N480 1.350 . S
C483 C482 1.434 . S
C484 C485 1.369 . S
C484 C486 1.419 . S
C484 H488 0.930 . S
C485 C484 1.369 . S
C485 C494 1.429 . S
C486 C484 1.419 . S
C486 C487 1.363 . S
C486 H489 0.929 . S
C487 C486 1.363 . S
C487 C493 1.428 . S
H488 C484 0.930 . S
H489 C486 0.929 . S
S490 N491 1.613 . S
S490 N492 1.610 . S
N491 S490 1.613 . S
N491 C494 1.350 . S
N492 S490 1.610 . S
N492 C493 1.351 . S
C493 C487 1.428 . S
C493 N492 1.351 . S
C493 C494 1.434 . S
C494 C485 1.429 . S
C494 N491 1.350 . S
C494 C493 1.434 . S
C495 C496 1.369 . S
C495 C497 1.419 . S
C495 H499 0.930 . S
C496 C495 1.369 . S
C496 C505 1.429 . S
C497 C495 1.419 . S
C497 C498 1.363 . S
C497 H500 0.929 . S
C498 C497 1.363 . S
C498 C504 1.428 . S
H499 C495 0.930 . S
H500 C497 0.929 . S
S501 N502 1.613 . S
S501 N503 1.610 . S
N502 S501 1.613 . S
N502 C505 1.350 . S
N503 S501 1.610 . S
N503 C504 1.351 . S
C504 C498 1.428 . S
C504 N503 1.351 . S
C504 C505 1.434 . S
C505 C496 1.429 . S
C505 N502 1.350 . S
C505 C504 1.434 . S
C506 C507 1.369 . S
C506 C508 1.419 . S
C506 H510 0.930 . S
C507 C506 1.369 . S
C507 C516 1.429 . S
C508 C506 1.419 . S
C508 C509 1.363 . S
C508 H511 0.929 . S
C509 C508 1.363 . S
C509 C515 1.428 . S
H510 C506 0.930 . S
H511 C508 0.929 . S
S512 N513 1.613 . S
S512 N514 1.610 . S
N513 S512 1.613 . S
N513 C516 1.350 . S
N514 S512 1.610 . S
N514 C515 1.351 . S
C515 C509 1.428 . S
C515 N514 1.351 . S
C515 C516 1.434 . S
C516 C507 1.429 . S
C516 N513 1.350 . S
C516 C515 1.434 . S
C517 C518 1.369 . S
C517 C519 1.419 . S
C517 H521 0.930 . S
C518 C517 1.369 . S
C518 C527 1.429 . S
C519 C517 1.419 . S
C519 C520 1.363 . S
C519 H522 0.929 . S
C520 C519 1.363 . S
C520 C526 1.428 . S
H521 C517 0.930 . S
H522 C519 0.929 . S
S523 N524 1.613 . S
S523 N525 1.610 . S
N524 S523 1.613 . S
N524 C527 1.350 . S
N525 S523 1.610 . S
N525 C526 1.351 . S
C526 C520 1.428 . S
C526 N525 1.351 . S
C526 C527 1.434 . S
C527 C518 1.429 . S
C527 N524 1.350 . S
C527 C526 1.434 . S
C528 C529 1.369 . S
C528 C530 1.419 1_554 S
C528 H532 0.930 . S
C529 C528 1.369 . S
C529 C538 1.429 . S
C530 C528 1.419 1_556 S
C530 C531 1.363 . S
C530 H533 0.929 . S
C531 C530 1.363 . S
C531 C537 1.428 . S
H532 C528 0.930 . S
H533 C530 0.929 . S
S534 N535 1.613 . S
S534 N536 1.611 1_554 S
N535 S534 1.613 . S
N535 C538 1.350 . S
N536 S534 1.611 1_556 S
N536 C537 1.351 . S
C537 C531 1.428 . S
C537 N536 1.351 . S
C537 C538 1.434 1_556 S
C538 C529 1.429 . S
C538 N535 1.350 . S
C538 C537 1.434 1_554 S
C539 C540 1.369 . S
C539 C541 1.419 . S
C539 H543 0.930 . S
C540 C539 1.369 . S
C540 C549 1.429 . S
C541 C539 1.419 . S
C541 C542 1.363 . S
C541 H544 0.929 . S
C542 C541 1.363 . S
C542 C548 1.428 . S
H543 C539 0.930 . S
H544 C541 0.929 . S
S545 N546 1.613 . S
S545 N547 1.610 . S
N546 S545 1.613 . S
N546 C549 1.350 . S
N547 S545 1.610 . S
N547 C548 1.351 . S
C548 C542 1.428 . S
C548 N547 1.351 . S
C548 C549 1.434 . S
C549 C540 1.429 . S
C549 N546 1.350 . S
C549 C548 1.434 . S
C550 C551 1.369 . S
C550 C552 1.419 . S
C550 H554 0.930 . S
C551 C550 1.369 . S
C551 C560 1.429 1_554 S
C552 C550 1.419 . S
C552 C553 1.363 1_554 S
C552 H555 0.929 . S
C553 C552 1.363 1_556 S
C553 C559 1.428 . S
H554 C550 0.930 . S
H555 C552 0.929 . S
S556 N557 1.613 . S
S556 N558 1.610 . S
N557 S556 1.613 . S
N557 C560 1.350 . S
N558 S556 1.610 . S
N558 C559 1.351 . S
C559 C553 1.428 . S
C559 N558 1.351 . S
C559 C560 1.434 . S
C560 C551 1.429 1_556 S
C560 N557 1.350 . S
C560 C559 1.434 . S
C561 C562 1.369 . S
C561 C563 1.419 . S
C561 H565 0.930 . S
C562 C561 1.369 . S
C562 C571 1.429 . S
C563 C561 1.419 . S
C563 C564 1.363 . S
C563 H566 0.929 . S
C564 C563 1.363 . S
C564 C570 1.428 . S
H565 C561 0.930 . S
H566 C563 0.929 . S
S567 N568 1.613 . S
S567 N569 1.610 . S
N568 S567 1.613 . S
N568 C571 1.350 . S
N569 S567 1.610 . S
N569 C570 1.351 . S
C570 C564 1.428 . S
C570 N569 1.351 . S
C570 C571 1.434 . S
C571 C562 1.429 . S
C571 N568 1.350 . S
C571 C570 1.434 . S
C572 C573 1.369 1_565 S
C572 C574 1.416 1_556 S
C572 H576 0.930 . S
C573 C572 1.369 1_545 S
C573 C582 1.429 1_556 S
C574 C572 1.416 1_554 S
C574 C575 1.366 . S
C574 H577 0.928 1_554 S
C575 C574 1.366 . S
C575 C581 1.428 1_565 S
H576 C572 0.930 . S
H577 C574 0.928 1_556 S
S578 N579 1.613 . S
S578 N580 1.610 . S
N579 S578 1.613 . S
N579 C582 1.350 . S
N580 S578 1.610 . S
N580 C581 1.351 . S
C581 C575 1.428 1_545 S
C581 N580 1.351 . S
C581 C582 1.434 . S
C582 C573 1.429 1_554 S
C582 N579 1.350 . S
C582 C581 1.434 . S
C583 C584 1.369 . S
C583 C585 1.419 . S
C583 H587 0.930 . S
C584 C583 1.369 . S
C584 C593 1.429 1_565 S
C585 C583 1.419 . S
C585 C586 1.363 1_565 S
C585 H588 0.929 . S
C586 C585 1.363 1_545 S
C586 C592 1.428 . S
H587 C583 0.930 . S
H588 C585 0.929 . S
S589 N590 1.613 . S
S589 N591 1.610 . S
N590 S589 1.613 . S
N590 C593 1.350 . S
N591 S589 1.610 . S
N591 C592 1.351 . S
C592 C586 1.428 . S
C592 N591 1.351 . S
C592 C593 1.434 . S
C593 C584 1.429 1_545 S
C593 N590 1.350 . S
C593 C592 1.434 . S
C594 C595 1.369 . S
C594 C596 1.419 1_564 S
C594 H598 0.930 . S
C595 C594 1.369 . S
C595 C604 1.429 . S
C596 C594 1.419 1_546 S
C596 C597 1.363 . S
C596 H599 0.929 . S
C597 C596 1.363 . S
C597 C603 1.428 . S
H598 C594 0.930 . S
H599 C596 0.929 . S
S600 N601 1.613 1_545 S
S600 N602 1.610 1_554 S
N601 S600 1.613 1_565 S
N601 C604 1.350 . S
N602 S600 1.610 1_556 S
N602 C603 1.351 . S
C603 C597 1.428 . S
C603 N602 1.351 . S
C603 C604 1.434 1_546 S
C604 C595 1.429 . S
C604 N601 1.350 . S
C604 C603 1.434 1_564 S
C605 C606 1.369 1_545 S
C605 C607 1.419 . S
C605 H609 0.930 . S
C606 C605 1.369 1_565 S
C606 C615 1.429 . S
C607 C605 1.419 . S
C607 C608 1.363 . S
C607 H610 0.929 . S
C608 C607 1.363 . S
C608 C614 1.428 1_545 S
H609 C605 0.930 . S
H610 C607 0.929 . S
S611 N612 1.613 . S
S611 N613 1.610 . S
N612 S611 1.613 . S
N612 C615 1.350 . S
N613 S611 1.610 . S
N613 C614 1.351 . S
C614 C608 1.428 1_565 S
C614 N613 1.351 . S
C614 C615 1.434 . S
C615 C606 1.429 . S
C615 N612 1.350 . S
C615 C614 1.434 . S
C616 C617 1.369 . S
C616 C618 1.419 . S
C616 H620 0.930 . S
C617 C616 1.369 . S
C617 C626 1.429 . S
C618 C616 1.419 . S
C618 C619 1.363 . S
C618 H621 0.929 . S
C619 C618 1.363 . S
C619 C625 1.428 . S
H620 C616 0.930 . S
H621 C618 0.929 . S
S622 N623 1.613 . S
S622 N624 1.610 . S
N623 S622 1.613 . S
N623 C626 1.350 . S
N624 S622 1.610 . S
N624 C625 1.351 . S
C625 C619 1.428 . S
C625 N624 1.351 . S
C625 C626 1.434 . S
C626 C617 1.429 . S
C626 N623 1.350 . S
C626 C625 1.434 . S
C627 C628 1.369 . S
C627 C629 1.419 . S
C627 H631 0.930 . S
C628 C627 1.369 . S
C628 C637 1.429 . S
C629 C627 1.419 . S
C629 C630 1.363 . S
C629 H632 0.929 . S
C630 C629 1.363 . S
C630 C636 1.428 . S
H631 C627 0.930 . S
H632 C629 0.929 . S
S633 N634 1.613 . S
S633 N635 1.610 . S
N634 S633 1.613 . S
N634 C637 1.350 . S
N635 S633 1.610 . S
N635 C636 1.351 . S
C636 C630 1.428 . S
C636 N635 1.351 . S
C636 C637 1.434 . S
C637 C628 1.429 . S
C637 N634 1.350 . S
C637 C636 1.434 . S
C638 C639 1.369 . S
C638 C640 1.419 . S
C638 H642 0.930 . S
C639 C638 1.369 . S
C639 C648 1.429 . S
C640 C638 1.419 . S
C640 C641 1.363 . S
C640 H643 0.929 . S
C641 C640 1.363 . S
C641 C647 1.428 . S
H642 C638 0.930 . S
H643 C640 0.929 . S
S644 N645 1.613 . S
S644 N646 1.610 . S
N645 S644 1.613 . S
N645 C648 1.350 . S
N646 S644 1.610 . S
N646 C647 1.351 . S
C647 C641 1.428 . S
C647 N646 1.351 . S
C647 C648 1.434 . S
C648 C639 1.429 . S
C648 N645 1.350 . S
C648 C647 1.434 . S
C649 C650 1.369 . S
C649 C651 1.419 . S
C649 H653 0.930 . S
C650 C649 1.369 . S
C650 C659 1.429 . S
C651 C649 1.419 . S
C651 C652 1.363 . S
C651 H654 0.929 . S
C652 C651 1.363 . S
C652 C658 1.428 . S
H653 C649 0.930 . S
H654 C651 0.929 . S
S655 N656 1.613 . S
S655 N657 1.610 . S
N656 S655 1.613 . S
N656 C659 1.350 . S
N657 S655 1.610 . S
N657 C658 1.351 . S
C658 C652 1.428 . S
C658 N657 1.351 . S
C658 C659 1.434 . S
C659 C650 1.429 . S
C659 N656 1.350 . S
C659 C658 1.434 . S
C660 C661 1.369 . S
C660 C662 1.419 1_655 S
C660 H664 0.930 . S
C661 C660 1.369 . S
C661 C670 1.429 . S
C662 C660 1.419 1_455 S
C662 C663 1.363 . S
C662 H665 0.929 . S
C663 C662 1.363 . S
C663 C669 1.428 . S
H664 C660 0.930 . S
H665 C662 0.929 . S
S666 N667 1.611 . S
S666 N668 1.613 1_655 S
N667 S666 1.611 . S
N667 C670 1.350 . S
N668 S666 1.613 1_455 S
N668 C669 1.351 . S
C669 C663 1.428 . S
C669 N668 1.351 . S
C669 C670 1.434 1_455 S
C670 C661 1.429 . S
C670 N667 1.350 . S
C670 C669 1.434 1_655 S
C671 C672 1.369 . S
C671 C673 1.419 1_655 S
C671 H675 0.930 . S
C672 C671 1.369 . S
C672 C681 1.429 . S
C673 C671 1.419 1_455 S
C673 C674 1.363 . S
C673 H676 0.929 . S
C674 C673 1.363 . S
C674 C680 1.428 . S
H675 C671 0.930 . S
H676 C673 0.929 . S
S677 N678 1.604 1_455 S
S677 N679 1.620 . S
N678 S677 1.604 1_655 S
N678 C681 1.350 . S
N679 S677 1.620 . S
N679 C680 1.351 . S
C680 C674 1.428 . S
C680 N679 1.351 . S
C680 C681 1.434 1_455 S
C681 C672 1.429 . S
C681 N678 1.350 . S
C681 C680 1.434 1_655 S
C682 C683 1.369 . S
C682 C684 1.419 1_455 S
C682 H686 0.930 . S
C683 C682 1.369 . S
C683 C692 1.429 . S
C684 C682 1.419 1_655 S
C684 C685 1.363 . S
C684 H687 0.929 . S
C685 C684 1.363 . S
C685 C691 1.428 . S
H686 C682 0.930 . S
H687 C684 0.929 . S
S688 N689 1.611 1_655 S
S688 N690 1.613 . S
N689 S688 1.611 1_455 S
N689 C692 1.350 . S
N690 S688 1.613 . S
N690 C691 1.351 . S
C691 C685 1.428 . S
C691 N690 1.351 . S
C691 C692 1.434 1_655 S
C692 C683 1.429 . S
C692 N689 1.350 . S
C692 C691 1.434 1_455 S
C693 C694 1.369 . S
C693 C695 1.419 1_455 S
C693 H697 0.930 . S
C694 C693 1.369 . S
C694 C703 1.429 . S
C695 C693 1.419 1_655 S
C695 C696 1.363 . S
C695 H698 0.929 . S
C696 C695 1.363 . S
C696 C702 1.428 . S
H697 C693 0.930 . S
H698 C695 0.929 . S
S699 N700 1.612 1_655 S
S699 N701 1.611 . S
N700 S699 1.612 1_455 S
N700 C703 1.350 . S
N701 S699 1.611 . S
N701 C702 1.351 . S
C702 C696 1.428 . S
C702 N701 1.351 . S
C702 C703 1.434 1_655 S
C703 C694 1.429 . S
C703 N700 1.350 . S
C703 C702 1.434 1_455 S
C704 C705 1.369 . S
C704 C706 1.419 1_554 S
C704 H708 0.930 . S
C705 C704 1.369 . S
C705 C714 1.429 . S
C706 C704 1.419 1_556 S
C706 C707 1.363 . S
C706 H709 0.929 . S
C707 C706 1.363 . S
C707 C713 1.428 . S
H708 C704 0.930 . S
H709 C706 0.929 . S
S710 N711 1.587 1_556 S
S710 N712 1.636 . S
N711 S710 1.587 1_554 S
N711 C714 1.350 . S
N712 S710 1.636 . S
N712 C713 1.351 . S
C713 C707 1.428 . S
C713 N712 1.351 . S
C713 C714 1.434 1_556 S
C714 C705 1.429 . S
C714 N711 1.350 . S
C714 C713 1.434 1_554 S
C715 C716 1.369 . S
C715 C717 1.419 . S
C715 H719 0.930 . S
C716 C715 1.369 . S
C716 C725 1.429 . S
C717 C715 1.419 . S
C717 C718 1.363 . S
C717 H720 0.929 . S
C718 C717 1.363 . S
C718 C724 1.428 . S
H719 C715 0.930 . S
H720 C717 0.929 . S
S721 N722 1.613 . S
S721 N723 1.610 . S
N722 S721 1.613 . S
N722 C725 1.350 . S
N723 S721 1.610 . S
N723 C724 1.351 . S
C724 C718 1.428 . S
C724 N723 1.351 . S
C724 C725 1.434 . S
C725 C716 1.429 . S
C725 N722 1.350 . S
C725 C724 1.434 . S
C726 C727 1.369 . S
C726 C728 1.419 1_554 S
C726 H730 0.930 . S
C727 C726 1.369 . S
C727 C736 1.429 . S
C728 C726 1.419 1_556 S
C728 C729 1.363 . S
C728 H731 0.929 . S
C729 C728 1.363 . S
C729 C735 1.428 . S
H730 C726 0.930 . S
H731 C728 0.929 . S
S732 N733 1.613 1_556 S
S732 N734 1.610 . S
N733 S732 1.613 1_554 S
N733 C736 1.350 . S
N734 S732 1.610 . S
N734 C735 1.351 . S
C735 C729 1.428 . S
C735 N734 1.351 . S
C735 C736 1.434 1_556 S
C736 C727 1.429 . S
C736 N733 1.350 . S
C736 C735 1.434 1_554 S
C737 C738 1.369 . S
C737 C739 1.419 . S
C737 H741 0.930 . S
C738 C737 1.369 . S
C738 C747 1.429 . S
C739 C737 1.419 . S
C739 C740 1.363 . S
C739 H742 0.929 . S
C740 C739 1.363 . S
C740 C746 1.428 . S
H741 C737 0.930 . S
H742 C739 0.929 . S
S743 N744 1.613 . S
S743 N745 1.610 . S
N744 S743 1.613 . S
N744 C747 1.350 . S
N745 S743 1.610 . S
N745 C746 1.351 . S
C746 C740 1.428 . S
C746 N745 1.351 . S
C746 C747 1.434 . S
C747 C738 1.429 . S
C747 N744 1.350 . S
C747 C746 1.434 . S
C748 C749 1.369 . S
C748 C750 1.419 1_554 S
C748 H752 0.930 . S
C749 C748 1.369 . S
C749 C758 1.429 . S
C750 C748 1.419 1_556 S
C750 C751 1.363 . S
C750 H753 0.929 . S
C751 C750 1.363 . S
C751 C757 1.428 . S
H752 C748 0.930 . S
H753 C750 0.929 . S
S754 N755 1.613 . S
S754 N756 1.610 1_554 S
N755 S754 1.613 . S
N755 C758 1.350 . S
N756 S754 1.610 1_556 S
N756 C757 1.351 . S
C757 C751 1.428 . S
C757 N756 1.351 . S
C757 C758 1.434 1_556 S
C758 C749 1.429 . S
C758 N755 1.350 . S
C758 C757 1.434 1_554 S
C759 C760 1.369 . S
C759 C761 1.419 . S
C759 H763 0.930 . S
C760 C759 1.369 . S
C760 C769 1.429 . S
C761 C759 1.419 . S
C761 C762 1.363 . S
C761 H764 0.929 . S
C762 C761 1.363 . S
C762 C768 1.428 . S
H763 C759 0.930 . S
H764 C761 0.929 . S
S765 N766 1.613 . S
S765 N767 1.610 . S
N766 S765 1.613 . S
N766 C769 1.350 . S
N767 S765 1.610 . S
N767 C768 1.351 . S
C768 C762 1.428 . S
C768 N767 1.351 . S
C768 C769 1.434 . S
C769 C760 1.429 . S
C769 N766 1.350 . S
C769 C768 1.434 . S
C770 C771 1.369 . S
C770 C772 1.419 1_554 S
C770 H774 0.930 . S
C771 C770 1.369 . S
C771 C780 1.429 . S
C772 C770 1.419 1_556 S
C772 C773 1.363 . S
C772 H775 0.929 . S
C773 C772 1.363 . S
C773 C779 1.428 . S
H774 C770 0.930 . S
H775 C772 0.929 . S
S776 N777 1.613 1_556 S
S776 N778 1.610 . S
N777 S776 1.613 1_554 S
N777 C780 1.350 . S
N778 S776 1.610 . S
N778 C779 1.351 . S
C779 C773 1.428 . S
C779 N778 1.351 . S
C779 C780 1.434 1_556 S
C780 C771 1.429 . S
C780 N777 1.350 . S
C780 C779 1.434 1_554 S
C781 C782 1.369 . S
C781 C783 1.419 . S
C781 H785 0.930 . S
C782 C781 1.369 . S
C782 C791 1.429 . S
C783 C781 1.419 . S
C783 C784 1.363 . S
C783 H786 0.929 . S
C784 C783 1.363 . S
C784 C790 1.428 . S
H785 C781 0.930 . S
H786 C783 0.929 . S
S787 N788 1.613 . S
S787 N789 1.610 . S
N788 S787 1.613 . S
N788 C791 1.350 . S
N789 S787 1.610 . S
N789 C790 1.351 . S
C790 C784 1.428 . S
C790 N789 1.351 . S
C790 C791 1.434 . S
C791 C782 1.429 . S
C791 N788 1.350 . S
C791 C790 1.434 . S
C792 C793 1.369 . S
C792 C794 1.419 . S
C792 H796 0.930 . S
C793 C792 1.369 . S
C793 C802 1.429 . S
C794 C792 1.419 . S
C794 C795 1.363 . S
C794 H797 0.929 . S
C795 C794 1.363 . S
C795 C801 1.428 . S
H796 C792 0.930 . S
H797 C794 0.929 . S
S798 N799 1.613 . S
S798 N800 1.610 . S
N799 S798 1.613 . S
N799 C802 1.350 . S
N800 S798 1.610 . S
N800 C801 1.351 . S
C801 C795 1.428 . S
C801 N800 1.351 . S
C801 C802 1.434 . S
C802 C793 1.429 . S
C802 N799 1.350 . S
C802 C801 1.434 . S
C803 C804 1.369 . S
C803 C805 1.419 . S
C803 H807 0.930 . S
C804 C803 1.369 . S
C804 C813 1.429 . S
C805 C803 1.419 . S
C805 C806 1.363 . S
C805 H808 0.929 . S
C806 C805 1.363 . S
C806 C812 1.428 . S
H807 C803 0.930 . S
H808 C805 0.929 . S
S809 N810 1.613 . S
S809 N811 1.610 . S
N810 S809 1.613 . S
N810 C813 1.350 . S
N811 S809 1.610 . S
N811 C812 1.351 . S
C812 C806 1.428 . S
C812 N811 1.351 . S
C812 C813 1.434 . S
C813 C804 1.429 . S
C813 N810 1.350 . S
C813 C812 1.434 . S
C814 C815 1.369 . S
C814 C816 1.419 . S
C814 H818 0.930 . S
C815 C814 1.369 . S
C815 C824 1.429 . S
C816 C814 1.419 . S
C816 C817 1.363 . S
C816 H819 0.929 . S
C817 C816 1.363 . S
C817 C823 1.428 . S
H818 C814 0.930 . S
H819 C816 0.929 . S
S820 N821 1.613 . S
S820 N822 1.610 . S
N821 S820 1.613 . S
N821 C824 1.350 . S
N822 S820 1.610 . S
N822 C823 1.351 . S
C823 C817 1.428 . S
C823 N822 1.351 . S
C823 C824 1.434 . S
C824 C815 1.429 . S
C824 N821 1.350 . S
C824 C823 1.434 . S
C825 C826 1.369 . S
C825 C827 1.419 . S
C825 H829 0.930 . S
C826 C825 1.369 . S
C826 C835 1.429 . S
C827 C825 1.419 . S
C827 C828 1.363 . S
C827 H830 0.929 . S
C828 C827 1.363 . S
C828 C834 1.428 . S
H829 C825 0.930 . S
H830 C827 0.929 . S
S831 N832 1.613 . S
S831 N833 1.610 . S
N832 S831 1.613 . S
N832 C835 1.350 . S
N833 S831 1.610 . S
N833 C834 1.351 . S
C834 C828 1.428 . S
C834 N833 1.351 . S
C834 C835 1.434 . S
C835 C826 1.429 . S
C835 N832 1.350 . S
C835 C834 1.434 . S
C836 C837 1.369 . S
C836 C838 1.419 . S
C836 H840 0.930 . S
C837 C836 1.369 . S
C837 C846 1.429 . S
C838 C836 1.419 . S
C838 C839 1.363 . S
C838 H841 0.929 . S
C839 C838 1.363 . S
C839 C845 1.428 . S
H840 C836 0.930 . S
H841 C838 0.929 . S
S842 N843 1.613 . S
S842 N844 1.610 . S
N843 S842 1.613 . S
N843 C846 1.350 . S
N844 S842 1.610 . S
N844 C845 1.351 . S
C845 C839 1.428 . S
C845 N844 1.351 . S
C845 C846 1.434 . S
C846 C837 1.429 . S
C846 N843 1.350 . S
C846 C845 1.434 . S
C847 C848 1.369 . S
C847 C849 1.419 . S
C847 H851 0.930 . S
C848 C847 1.369 . S
C848 C857 1.429 . S
C849 C847 1.419 . S
C849 C850 1.363 . S
C849 H852 0.929 . S
C850 C849 1.363 . S
C850 C856 1.428 . S
H851 C847 0.930 . S
H852 C849 0.929 . S
S853 N854 1.613 . S
S853 N855 1.610 . S
N854 S853 1.613 . S
N854 C857 1.350 . S
N855 S853 1.610 . S
N855 C856 1.351 . S
C856 C850 1.428 . S
C856 N855 1.351 . S
C856 C857 1.434 . S
C857 C848 1.429 . S
C857 N854 1.350 . S
C857 C856 1.434 . S
C858 C859 1.369 . S
C858 C860 1.419 . S
C858 H862 0.930 . S
C859 C858 1.369 . S
C859 C868 1.429 . S
C860 C858 1.419 . S
C860 C861 1.363 . S
C860 H863 0.929 . S
C861 C860 1.363 . S
C861 C867 1.428 . S
H862 C858 0.930 . S
H863 C860 0.929 . S
S864 N865 1.610 1_565 S
S864 N866 1.607 1_565 S
N865 S864 1.610 1_545 S
N865 C868 1.350 . S
N866 S864 1.607 1_545 S
N866 C867 1.351 . S
C867 C861 1.428 . S
C867 N866 1.351 . S
C867 C868 1.434 . S
C868 C859 1.429 . S
C868 N865 1.350 . S
C868 C867 1.434 . S
C869 C870 1.369 . S
C869 C871 1.419 . S
C869 H873 0.930 . S
C870 C869 1.369 . S
C870 C879 1.429 . S
C871 C869 1.419 . S
C871 C872 1.363 . S
C871 H874 0.929 . S
C872 C871 1.363 . S
C872 C878 1.428 . S
H873 C869 0.930 . S
H874 C871 0.929 . S
S875 N876 1.613 . S
S875 N877 1.610 . S
N876 S875 1.613 . S
N876 C879 1.350 . S
N877 S875 1.610 . S
N877 C878 1.351 . S
C878 C872 1.428 . S
C878 N877 1.351 . S
C878 C879 1.434 . S
C879 C870 1.429 . S
C879 N876 1.350 . S
C879 C878 1.434 . S
C353 C10 1.589 . S
C355 C329 1.665 1_545 S
C364 C32 1.588 . S
C366 C351 1.665 1_565 S
C375 C52 1.586 . S
C377 C279 1.665 1_565 S
C386 C301 1.665 1_545 S
C388 C76 1.583 . S
C397 C235 1.670 1_565 S
C399 C96 1.602 . S
C408 C263 1.670 1_545 S
C410 C118 1.595 . S
C419 C197 1.670 1_545 S
C421 C142 1.600 . S
C430 C219 1.670 1_565 S
C432 C172 1.597 . S
C441 C186 1.580 . S
C443 C139 1.665 . S
C452 C175 1.665 . S
C454 C208 1.584 . S
C463 C103 1.665 . S
C465 C238 1.585 . S
C474 C125 1.665 . S
C476 C252 1.582 . S
C485 C51 1.670 . S
C487 C272 1.602 . S
C496 C294 1.603 . S
C498 C87 1.670 . S
C507 C21 1.670 . S
C509 C326 1.598 . S
C518 C348 1.598 . S
C520 C43 1.670 . S
C529 C7 1.409 . S
C531 C59 1.410 . S
C540 C73 1.408 . S
C542 C29 1.407 . S
C551 C153 1.414 . S
C553 C95 1.413 . S
C562 C169 1.416 . S
C564 C117 1.416 . S
C573 C241 1.409 . S
C575 C183 1.407 . S
C584 C249 1.407 . S
C586 C205 1.408 . S
C595 C323 1.416 . S
C597 C271 1.415 . S
C606 C293 1.413 . S
C608 C345 1.413 . S
C617 C18 1.522 . S
C619 C140 1.520 . S
C628 C40 1.519 . S
C630 C164 1.518 . S
C639 C106 1.522 . S
C641 C54 1.523 . S
C650 C84 1.523 . S
C652 C128 1.521 . S
C661 C194 1.520 . S
C663 C318 1.518 . S
C672 C340 1.522 . S
C674 C216 1.523 . S
C683 C282 1.517 . S
C685 C228 1.520 . S
C694 C260 1.523 . S
C696 C304 1.521 . S
C705 C15 1.136 . S
C707 C285 1.160 . S
C716 C307 1.159 . S
C718 C37 1.140 . S
C727 C315 1.158 . S
C729 C65 1.141 . S
C738 C337 1.152 . S
C740 C81 1.145 . S
C749 C191 1.138 . S
C751 C109 1.159 . S
C760 C213 1.152 . S
C762 C131 1.149 . S
C771 C147 1.148 . S
C773 C227 1.150 . S
C782 C257 1.138 . S
C784 C161 1.159 . S
C793 C8 1.449 . S
C795 C120 1.448 . S
C804 C98 1.448 . S
C806 C30 1.450 . S
C815 C62 1.449 . S
C817 C162 1.449 . S
C826 C150 1.449 . S
C828 C74 1.450 . S
C837 C184 1.449 . S
C839 C296 1.448 . S
C848 C274 1.448 . S
C850 C206 1.449 . S
C859 C338 1.448 . S
C861 C230 1.449 . S
C870 C250 1.449 . S
C872 C316 1.448 . S
