# Generated by pormake.
# Topology wme, (6)-cn, num edge types: 1
# Building blocks:
#     Node 0, Type 0, BuildingBlock: CUKXOW_clean_sbu_0, # of connection points: 6
#     Node 1, Type 0, BuildingBlock: CUKXOW_clean_sbu_0, # of connection points: 6
#     Node 2, Type 0, BuildingBlock: CUKXOW_clean_sbu_0, # of connection points: 6
#     Node 3, Type 0, BuildingBlock: CUKXOW_clean_sbu_0, # of connection points: 6
#     Node 4, Type 0, BuildingBlock: CUKXOW_clean_sbu_0, # of connection points: 6
#     Node 5, Type 0, BuildingBlock: CUKXOW_clean_sbu_0, # of connection points: 6
#     Node 6, Type 0, BuildingBlock: CUKXOW_clean_sbu_0, # of connection points: 6
#     Node 7, Type 0, BuildingBlock: CUKXOW_clean_sbu_0, # of connection points: 6
#     Node 8, Type 0, BuildingBlock: CUKXOW_clean_sbu_0, # of connection points: 6
#     Node 9, Type 0, BuildingBlock: CUKXOW_clean_sbu_0, # of connection points: 6
#     Node 10, Type 0, BuildingBlock: CUKXOW_clean_sbu_0, # of connection points: 6
#     Node 11, Type 0, BuildingBlock: CUKXOW_clean_sbu_0, # of connection points: 6
#     Edge 12, Type (0, 0), BuildingBlock: XUDNAN_clean_linker_2, # of connection points: 2
#     Edge 13, Type (0, 0), BuildingBlock: XUDNAN_clean_linker_2, # of connection points: 2
#     Edge 14, Type (0, 0), BuildingBlock: XUDNAN_clean_linker_2, # of connection points: 2
#     Edge 15, Type (0, 0), BuildingBlock: XUDNAN_clean_linker_2, # of connection points: 2
#     Edge 16, Type (0, 0), BuildingBlock: XUDNAN_clean_linker_2, # of connection points: 2
#     Edge 17, Type (0, 0), BuildingBlock: XUDNAN_clean_linker_2, # of connection points: 2
#     Edge 18, Type (0, 0), BuildingBlock: XUDNAN_clean_linker_2, # of connection points: 2
#     Edge 19, Type (0, 0), BuildingBlock: XUDNAN_clean_linker_2, # of connection points: 2
#     Edge 20, Type (0, 0), BuildingBlock: XUDNAN_clean_linker_2, # of connection points: 2
#     Edge 21, Type (0, 0), BuildingBlock: XUDNAN_clean_linker_2, # of connection points: 2
#     Edge 22, Type (0, 0), BuildingBlock: XUDNAN_clean_linker_2, # of connection points: 2
#     Edge 23, Type (0, 0), BuildingBlock: XUDNAN_clean_linker_2, # of connection points: 2
#     Edge 24, Type (0, 0), BuildingBlock: XUDNAN_clean_linker_2, # of connection points: 2
#     Edge 25, Type (0, 0), BuildingBlock: XUDNAN_clean_linker_2, # of connection points: 2
#     Edge 26, Type (0, 0), BuildingBlock: XUDNAN_clean_linker_2, # of connection points: 2
#     Edge 27, Type (0, 0), BuildingBlock: XUDNAN_clean_linker_2, # of connection points: 2
#     Edge 28, Type (0, 0), BuildingBlock: XUDNAN_clean_linker_2, # of connection points: 2
#     Edge 29, Type (0, 0), BuildingBlock: XUDNAN_clean_linker_2, # of connection points: 2
#     Edge 30, Type (0, 0), BuildingBlock: XUDNAN_clean_linker_2, # of connection points: 2
#     Edge 31, Type (0, 0), BuildingBlock: XUDNAN_clean_linker_2, # of connection points: 2
#     Edge 32, Type (0, 0), BuildingBlock: XUDNAN_clean_linker_2, # of connection points: 2
#     Edge 33, Type (0, 0), BuildingBlock: XUDNAN_clean_linker_2, # of connection points: 2
#     Edge 34, Type (0, 0), BuildingBlock: XUDNAN_clean_linker_2, # of connection points: 2
#     Edge 35, Type (0, 0), BuildingBlock: XUDNAN_clean_linker_2, # of connection points: 2
#     Edge 36, Type (0, 0), BuildingBlock: XUDNAN_clean_linker_2, # of connection points: 2
#     Edge 37, Type (0, 0), BuildingBlock: XUDNAN_clean_linker_2, # of connection points: 2
#     Edge 38, Type (0, 0), BuildingBlock: XUDNAN_clean_linker_2, # of connection points: 2
#     Edge 39, Type (0, 0), BuildingBlock: XUDNAN_clean_linker_2, # of connection points: 2
#     Edge 40, Type (0, 0), BuildingBlock: XUDNAN_clean_linker_2, # of connection points: 2
#     Edge 41, Type (0, 0), BuildingBlock: XUDNAN_clean_linker_2, # of connection points: 2
#     Edge 42, Type (0, 0), BuildingBlock: XUDNAN_clean_linker_2, # of connection points: 2
#     Edge 43, Type (0, 0), BuildingBlock: XUDNAN_clean_linker_2, # of connection points: 2
#     Edge 44, Type (0, 0), BuildingBlock: XUDNAN_clean_linker_2, # of connection points: 2
#     Edge 45, Type (0, 0), BuildingBlock: XUDNAN_clean_linker_2, # of connection points: 2
#     Edge 46, Type (0, 0), BuildingBlock: XUDNAN_clean_linker_2, # of connection points: 2
#     Edge 47, Type (0, 0), BuildingBlock: XUDNAN_clean_linker_2, # of connection points: 2
# Relax obj value: 0.055
# Max RMSD: 0.148
# Mean RMSD: 0.148
data_MOF--net-wme--node1-CUKXOW_clean_sbu_0--edge1-XUDNAN_clean_linker_2
_symmetry_space_group_name_H-M    P1
_symmetry_Int_Tables_number       1
_symmetry_cell_setting            triclinic
loop_
_symmetry_equiv_pos_as_xyz
'x, y, z'
_cell_length_a     31.808562
_cell_length_b     31.80443
_cell_length_c     56.381329
_cell_angle_alpha  89.9492
_cell_angle_beta   89.977684
_cell_angle_gamma 119.98758
loop_
_atom_site_label
_atom_site_type_symbol
_atom_site_fract_x
_atom_site_fract_y
_atom_site_fract_z
_atom_type_partial_charge
Tb0 Tb 0.25806 0.3847 0.12268 0.0
C1 C 0.21173 0.31465 0.07952 0.0
Tb2 Tb 0.15854 0.29425 0.12966 0.0
O3 O 0.29257 0.34153 0.11463 0.0
O4 O 0.23124 0.31324 0.13605 0.0
O5 O 0.24337 0.35988 0.08593 0.0
C6 C 0.07675 0.20854 0.13125 0.0
O7 O 0.17822 0.28289 0.09418 0.0
C8 C 0.15833 0.37673 0.12995 0.0
C9 C 0.21198 0.35486 0.17438 0.0
O10 O 0.11552 0.22025 0.14363 0.0
O11 O 0.0844 0.24478 0.1178 0.0
O12 O 0.12735 0.33779 0.14103 0.0
O13 O 0.185 0.36694 0.11709 0.0
O14 O 0.18049 0.31062 0.16665 0.0
O15 O 0.24146 0.3905 0.15987 0.0
C16 C 0.33089 0.47631 0.11888 0.0
O17 O 0.33094 0.443 0.13221 0.0
O18 O 0.28982 0.45799 0.10766 0.0
C19 C 0.2595 0.3027 0.12527 0.0
Tb20 Tb 0.88918 0.25986 0.62385 0.0
C21 C 0.91161 0.21203 0.58087 0.0
Tb22 Tb 0.87032 0.15603 0.63 0.0
O23 O 0.96689 0.29028 0.61814 0.0
O24 O 0.92753 0.22681 0.63776 0.0
O25 O 0.90135 0.24612 0.5873 0.0
C26 C 0.87157 0.07307 0.63251 0.0
O27 O 0.90505 0.176 0.5952 0.0
C28 C 0.79296 0.16527 0.62528 0.0
C29 C 0.86373 0.20949 0.67487 0.0
O30 O 0.84293 0.08073 0.6191 0.0
O31 O 0.89966 0.11217 0.64436 0.0
O32 O 0.79347 0.13114 0.63766 0.0
O33 O 0.83326 0.18944 0.61501 0.0
O34 O 0.87237 0.17525 0.66702 0.0
O35 O 0.8625 0.24218 0.66057 0.0
C36 C 0.87385 0.3345 0.61932 0.0
O37 O 0.90656 0.3339 0.6329 0.0
O38 O 0.85048 0.29354 0.60824 0.0
C39 C 0.96828 0.25406 0.62812 0.0
Tb40 Tb 0.64961 0.88023 0.12667 0.0
C41 C 0.72258 0.91663 0.08451 0.0
Tb42 Tb 0.72959 0.85319 0.127 0.0
O43 O 0.70373 0.95849 0.12816 0.0
O44 O 0.71759 0.90619 0.1425 0.0
O45 O 0.67819 0.90556 0.09117 0.0
C46 C 0.80855 0.8463 0.11982 0.0
O47 O 0.74966 0.90373 0.09709 0.0
C48 C 0.64186 0.78179 0.11871 0.0
C49 C 0.67014 0.83541 0.17351 0.0
O50 O 0.77006 0.82733 0.10666 0.0
O51 O 0.8026 0.8689 0.13758 0.0
O52 O 0.67505 0.77647 0.12932 0.0
O53 O 0.65986 0.82505 0.11155 0.0
O54 O 0.71222 0.84334 0.16458 0.0
O55 O 0.63832 0.84203 0.16092 0.0
C56 C 0.56055 0.86763 0.1239 0.0
O57 O 0.57724 0.845 0.1115 0.0
O58 O 0.5944 0.89841 0.13796 0.0
C59 C 0.73629 0.9505 0.1379 0.0
Tb60 Tb 0.78082 0.64856 0.62722 0.0
C61 C 0.82046 0.72165 0.58504 0.0
Tb62 Tb 0.8893 0.72861 0.6283 0.0
O63 O 0.75845 0.70387 0.62799 0.0
O64 O 0.82355 0.71676 0.64312 0.0
O65 O 0.78672 0.67699 0.5914 0.0
C66 C 0.97854 0.80532 0.62242 0.0
O67 O 0.8601 0.7486 0.59789 0.0
C68 C 0.87166 0.64036 0.62048 0.0
C69 C 0.84491 0.66744 0.67417 0.0
O70 O 0.9585 0.76629 0.60963 0.0
O71 O 0.94806 0.80155 0.63888 0.0
O72 O 0.91015 0.67342 0.63111 0.0
O73 O 0.84683 0.65846 0.61293 0.0
O74 O 0.87897 0.71036 0.6659 0.0
O75 O 0.80803 0.63562 0.66085 0.0
C76 C 0.69688 0.56384 0.62983 0.0
O77 O 0.70921 0.60201 0.64276 0.0
O78 O 0.73179 0.57347 0.61494 0.0
C79 C 0.79858 0.73594 0.63807 0.0
Tb80 Tb 0.14785 0.76527 0.12593 0.0
C81 C 0.13548 0.81243 0.07976 0.0
Tb82 Tb 0.17526 0.87359 0.12792 0.0
O83 O 0.07249 0.74059 0.11729 0.0
O84 O 0.1139 0.80524 0.13616 0.0
O85 O 0.14162 0.77674 0.0882 0.0
C86 C 0.18938 0.96346 0.12144 0.0
O87 O 0.14232 0.85018 0.09283 0.0
C88 C 0.24738 0.8558 0.12806 0.0
C89 C 0.16945 0.82165 0.1757 0.0
O90 O 0.21083 0.94398 0.11013 0.0
O91 O 0.15915 0.932 0.13666 0.0
O92 O 0.24922 0.89319 0.13824 0.0
O93 O 0.20819 0.83305 0.11687 0.0
O94 O 0.168 0.85885 0.16582 0.0
O95 O 0.16813 0.78546 0.16322 0.0
C96 C 0.1499 0.68208 0.12972 0.0
O97 O 0.12006 0.69234 0.14047 0.0
O98 O 0.17875 0.71876 0.11647 0.0
C99 C 0.07392 0.77935 0.12574 0.0
Tb100 Tb 0.39791 0.15943 0.62884 0.0
C101 C 0.34184 0.12809 0.58045 0.0
Tb102 Tb 0.30716 0.17002 0.62265 0.0
O103 O 0.35505 0.08062 0.62376 0.0
O104 O 0.32287 0.1185 0.6375 0.0
O105 O 0.38464 0.14575 0.59105 0.0
C106 C 0.22372 0.16847 0.61366 0.0
O107 O 0.30481 0.12972 0.59047 0.0
C108 C 0.39076 0.25199 0.62309 0.0
C109 C 0.35421 0.18562 0.67343 0.0
O110 O 0.26265 0.18909 0.60071 0.0
O111 O 0.23125 0.14745 0.63166 0.0
O112 O 0.3497 0.2476 0.62949 0.0
O113 O 0.38281 0.21205 0.61444 0.0
O114 O 0.3142 0.17505 0.66129 0.0
O115 O 0.39266 0.18596 0.6639 0.0
C116 C 0.49014 0.17862 0.6303 0.0
O117 O 0.45413 0.14389 0.6419 0.0
O118 O 0.47417 0.20275 0.61845 0.0
C119 C 0.31427 0.07762 0.63008 0.0
Tb120 Tb 0.64825 0.76789 0.39818 0.0
C121 C 0.71614 0.82333 0.4424 0.0
Tb122 Tb 0.73416 0.87736 0.39178 0.0
O123 O 0.69185 0.74001 0.3817 0.0
O124 O 0.72516 0.80757 0.39787 0.0
O125 O 0.67542 0.78495 0.43462 0.0
C126 C 0.81905 0.95724 0.38321 0.0
O127 O 0.74505 0.86119 0.42857 0.0
C128 C 0.64669 0.86904 0.39483 0.0
C129 C 0.67375 0.81469 0.3474 0.0
O130 O 0.79496 0.94743 0.40301 0.0
O131 O 0.79554 0.92185 0.36834 0.0
O132 O 0.68647 0.91053 0.39276 0.0
O133 O 0.65985 0.83816 0.39605 0.0
O134 O 0.71663 0.84952 0.35533 0.0
O135 O 0.6389 0.78291 0.36157 0.0
C136 C 0.5603 0.69523 0.40983 0.0
O137 O 0.59521 0.6899 0.4011 0.0
O138 O 0.57534 0.74109 0.4123 0.0
C139 C 0.7332 0.77975 0.38524 0.0
Tb140 Tb 0.89375 0.64445 0.89571 0.0
C141 C 0.92758 0.71693 0.93799 0.0
Tb142 Tb 0.86995 0.72716 0.89348 0.0
O143 O 0.9724 0.69759 0.89505 0.0
O144 O 0.9221 0.71232 0.87917 0.0
O145 O 0.91639 0.67238 0.93142 0.0
C146 C 0.86922 0.81074 0.89267 0.0
O147 O 0.9157 0.74473 0.92521 0.0
C148 C 0.79644 0.64067 0.90196 0.0
C149 C 0.85102 0.66379 0.84822 0.0
O150 O 0.8416 0.77364 0.90592 0.0
O151 O 0.89725 0.8008 0.88008 0.0
O152 O 0.79273 0.67462 0.89107 0.0
O153 O 0.83922 0.65738 0.90948 0.0
O154 O 0.86143 0.70723 0.85619 0.0
O155 O 0.85397 0.6313 0.86198 0.0
C156 C 0.88554 0.55669 0.89395 0.0
O157 O 0.9108 0.59243 0.87954 0.0
O158 O 0.86572 0.57067 0.90992 0.0
C159 C 0.96602 0.73038 0.88445 0.0
Tb160 Tb 0.26159 0.88264 0.39296 0.0
C161 C 0.23416 0.90837 0.44182 0.0
Tb162 Tb 0.15517 0.85728 0.40134 0.0
O163 O 0.28652 0.96122 0.39306 0.0
O164 O 0.21633 0.91005 0.383 0.0
O165 O 0.26069 0.89256 0.43096 0.0
C166 C 0.06681 0.84599 0.40821 0.0
O167 O 0.19281 0.90212 0.43262 0.0
C168 C 0.17164 0.78437 0.40389 0.0
C169 C 0.18718 0.84502 0.34947 0.0
O170 O 0.08376 0.82062 0.41804 0.0
O171 O 0.10057 0.87936 0.39502 0.0
O172 O 0.13118 0.78075 0.39703 0.0
O173 O 0.19987 0.82739 0.41065 0.0
O174 O 0.15335 0.84652 0.36282 0.0
O175 O 0.23096 0.85639 0.35755 0.0
C176 C 0.33844 0.87063 0.3871 0.0
O177 O 0.29329 0.83682 0.38546 0.0
O178 O 0.34048 0.91166 0.3917 0.0
C179 C 0.24366 0.95404 0.38758 0.0
Tb180 Tb 0.39594 0.26053 0.89847 0.0
C181 C 0.32412 0.20973 0.94115 0.0
Tb182 Tb 0.31044 0.15468 0.89184 0.0
O183 O 0.34831 0.29036 0.90433 0.0
O184 O 0.32422 0.22614 0.88531 0.0
O185 O 0.36818 0.24473 0.93481 0.0
C186 C 0.22686 0.07076 0.88917 0.0
O187 O 0.29541 0.17343 0.92683 0.0
C188 C 0.39742 0.16486 0.8939 0.0
C189 C 0.36882 0.21253 0.8468 0.0
O190 O 0.26251 0.07966 0.90335 0.0
O191 O 0.23809 0.10932 0.87667 0.0
O192 O 0.36081 0.12824 0.88387 0.0
O193 O 0.38257 0.18954 0.90479 0.0
O194 O 0.32772 0.17542 0.85486 0.0
O195 O 0.40227 0.24669 0.86076 0.0
C196 C 0.48489 0.33647 0.90477 0.0
O197 O 0.45403 0.33356 0.88883 0.0
O198 O 0.46553 0.29682 0.91722 0.0
C199 C 0.31071 0.25337 0.89484 0.0
Tb200 Tb 0.14454 0.38364 0.39409 0.0
C201 C 0.12703 0.32203 0.4416 0.0
Tb202 Tb 0.17795 0.30824 0.39607 0.0
O203 O 0.07964 0.33379 0.37344 0.0
O204 O 0.11157 0.30761 0.39677 0.0
O205 O 0.12912 0.36124 0.43171 0.0
C206 C 0.18327 0.22778 0.39022 0.0
O207 O 0.14014 0.29402 0.42991 0.0
C208 C 0.24406 0.39701 0.40828 0.0
C209 C 0.18747 0.36358 0.3479 0.0
O210 O 0.21287 0.26489 0.40291 0.0
O211 O 0.15105 0.23616 0.38074 0.0
O212 O 0.24417 0.35825 0.41544 0.0
O213 O 0.21145 0.3847 0.39287 0.0
O214 O 0.18341 0.3239 0.35791 0.0
O215 O 0.18267 0.39646 0.3603 0.0
C216 C 0.14153 0.46617 0.39629 0.0
O217 O 0.11995 0.43206 0.38066 0.0
O218 O 0.16331 0.45288 0.41152 0.0
C219 C 0.0803 0.29541 0.3808 0.0
Tb220 Tb 0.78096 0.14875 0.89784 0.0
C221 C 0.82339 0.12412 0.9418 0.0
Tb222 Tb 0.88838 0.17414 0.89565 0.0
O223 O 0.75665 0.07025 0.89969 0.0
O224 O 0.82114 0.11944 0.88303 0.0
O225 O 0.79031 0.13534 0.93481 0.0
C226 C 0.97484 0.18162 0.90218 0.0
O227 O 0.86041 0.13107 0.92813 0.0
C228 C 0.87456 0.24809 0.90031 0.0
C229 C 0.84054 0.1828 0.84864 0.0
O230 O 0.95606 0.20181 0.91502 0.0
O231 O 0.94495 0.157 0.88517 0.0
O232 O 0.91217 0.25021 0.8902 0.0
O233 O 0.84889 0.20633 0.90932 0.0
O234 O 0.8767 0.17812 0.85773 0.0
O235 O 0.80234 0.17626 0.86138 0.0
C236 C 0.70486 0.1627 0.89809 0.0
O237 O 0.70288 0.12173 0.8934 0.0
O238 O 0.74932 0.19526 0.90275 0.0
C239 C 0.79609 0.07618 0.88955 0.0
H240 H 0.15925 0.01769 0.14778 0.0
H241 H 0.2451 0.02404 0.0866 0.0
H242 H 0.26911 0.10974 0.0804 0.0
H243 H 0.11835 0.09945 0.12381 0.0
H244 H 0.12324 0.12825 0.15197 0.0
H245 H 0.10943 0.06599 0.15098 0.0
H246 H 0.18308 0.08791 0.17825 0.0
H247 H 0.19676 0.1501 0.1792 0.0
H248 H 0.24241 0.13603 0.16963 0.0
H249 H 0.28777 0.19517 0.08163 0.0
H250 H 0.29916 0.27619 0.09 0.0
H251 H 0.20173 0.2177 0.15028 0.0
C252 C 0.18259 0.03709 0.13294 0.0
C253 C 0.20025 1.0141 0.11762 0.0
C254 C 0.23111 0.04079 0.09855 0.0
C255 C 0.24496 0.08956 0.09484 0.0
C256 C 0.22767 0.11146 0.11036 0.0
C257 C 0.19703 0.08628 0.12899 0.0
C258 C 0.18533 0.11957 0.14341 0.0
C259 C 0.1308 0.10221 0.14247 0.0
C260 C 0.20296 0.12363 0.16915 0.0
C261 C 0.21467 0.16729 0.13014 0.0
C262 C 0.2386 0.16147 0.11108 0.0
C263 C 0.26906 0.20016 0.09644 0.0
C264 C 0.27547 0.24614 0.10141 0.0
C265 C 0.25138 0.25326 0.12078 0.0
C266 C 0.22028 0.21317 0.13525 0.0
H267 H 0.14657 0.14499 0.644 0.0
H268 H 0.20694 0.20972 0.5756 0.0
H269 H 0.14459 0.23343 0.57117 0.0
H270 H 1.01582 0.10101 0.62842 0.0
H271 H 1.00381 0.11544 0.65766 0.0
H272 H 0.04908 0.09785 0.65362 0.0
H273 H 0.11085 0.17762 0.67488 0.0
H274 H 0.06541 0.19525 0.67785 0.0
H275 H 0.12196 0.23503 0.66312 0.0
H276 H 0.08496 0.26053 0.57634 0.0
H277 H 0.02441 0.28238 0.58887 0.0
H278 H 0.99605 0.19622 0.65282 0.0
C279 C 0.14571 0.163 0.62785 0.0
C280 C 0.1815 0.17542 0.61008 0.0
C281 C 0.17984 0.19974 0.58938 0.0
C282 C 0.14456 0.2134 0.5867 0.0
C283 C 0.11078 0.20212 0.6048 0.0
C284 C 0.11035 0.17682 0.62483 0.0
C285 C 0.07131 0.17183 0.64207 0.0
C286 C 0.03271 0.11828 0.64562 0.0
C287 C 0.09374 0.1964 0.66588 0.0
C288 C 0.05068 0.19912 0.62879 0.0
C289 C 0.07441 0.21641 0.60738 0.0
C290 C 0.06535 0.24628 0.59279 0.0
C291 C 0.03094 0.25864 0.60014 0.0
C292 C 1.00485 0.24023 0.62158 0.0
C293 C 1.0147 0.20985 0.63608 0.0
H294 H 0.79149 0.03527 0.11313 0.0
H295 H 0.79855 0.9424 0.16748 0.0
H296 H 0.88719 0.9964 0.17038 0.0
H297 H 0.90365 0.06229 0.08417 0.0
H298 H 0.92114 0.12433 0.0774 0.0
H299 H 0.85783 0.07903 0.07963 0.0
H300 H 0.84475 0.13001 0.11139 0.0
H301 H 0.90775 0.17602 0.1091 0.0
H302 H 0.88245 0.14933 0.13752 0.0
H303 H 0.97396 0.06138 0.16856 0.0
H304 H 0.05425 0.13401 0.16197 0.0
H305 H 0.99253 0.1832 0.10746 0.0
C306 C 0.8118 0.02683 0.1258 0.0
C307 C 0.78847 0.98513 0.14026 0.0
C308 C 0.81601 0.97439 0.15631 0.0
C309 C 0.86629 1.00472 0.15805 0.0
C310 C 0.88847 0.04538 0.14343 0.0
C311 C 0.86228 0.05652 0.12757 0.0
C312 C 0.89534 0.10228 0.11379 0.0
C313 C 0.89444 0.09131 0.08717 0.0
C314 C 0.88176 0.14174 0.11823 0.0
C315 C 0.94393 0.11564 0.12482 0.0
C316 C 0.93909 0.08215 0.14179 0.0
C317 C 0.97842 0.08759 0.1551 0.0
C318 C 0.02392 0.12874 0.15114 0.0
C319 C 0.02967 0.1636 0.13395 0.0
C320 C 0.98922 0.15669 0.1205 0.0
H321 H 0.76773 0.78963 0.61335 0.0
H322 H 0.8697 0.7993 0.66712 0.0
H323 H 0.90204 0.88766 0.67022 0.0
H324 H 0.85041 0.90374 0.58448 0.0
H325 H 0.80396 0.91878 0.57807 0.0
H326 H 0.78864 0.85614 0.5799 0.0
H327 H 0.72374 0.83983 0.61183 0.0
H328 H 0.73831 0.90221 0.61004 0.0
H329 H 0.74089 0.87674 0.63821 0.0
H330 H 0.92006 0.97319 0.66914 0.0
H331 H 0.92425 0.05206 0.66321 0.0
H332 H 0.81387 0.98852 0.60864 0.0
C333 C 0.79661 0.81047 0.62586 0.0
C334 C 0.81611 0.78804 0.64017 0.0
C335 C 0.8544 0.81617 0.65606 0.0
C336 C 0.87299 0.86624 0.65792 0.0
C337 C 0.85316 0.88748 0.64354 0.0
C338 C 0.81604 0.86067 0.62772 0.0
C339 C 0.80148 0.89264 0.61428 0.0
C340 C 0.81176 0.89284 0.5876 0.0
C341 C 0.74793 0.87692 0.61888 0.0
C342 C 0.83531 0.94135 0.62554 0.0
C343 C 0.86493 0.93748 0.64228 0.0
C344 C 0.89767 0.97695 0.65582 0.0
C345 C 0.90003 0.02162 0.65225 0.0
C346 C 0.87017 0.02643 0.63518 0.0
C347 C 0.83758 0.98585 0.62159 0.0
H348 H 0.04958 0.83896 0.15013 0.0
H349 H 1.01875 0.75218 0.08637 0.0
H350 H 0.95525 0.77106 0.07541 0.0
H351 H 0.92968 0.79721 0.16469 0.0
H352 H 0.93741 0.85365 0.176 0.0
H353 H 0.98731 0.84216 0.17679 0.0
H354 H 0.04077 0.92145 0.15326 0.0
H355 H 0.991 0.93339 0.15252 0.0
H356 H 1.01946 0.93108 0.12529 0.0
H357 H 0.88978 0.7895 0.07352 0.0
H358 H 0.82237 0.80443 0.08134 0.0
H359 H 0.89048 0.87672 0.1473 0.0
C360 C 0.03012 0.82515 0.13361 0.0
C361 C 0.03905 0.79457 0.11894 0.0
C362 C 1.01238 0.77585 0.09775 0.0
C363 C 0.97649 0.78663 0.0913 0.0
C364 C 0.96739 0.81575 0.10638 0.0
C365 C 0.99318 0.83477 0.12714 0.0
C366 C 0.97176 0.85996 0.14146 0.0
C367 C 0.95558 0.83684 0.16619 0.0
C368 C 1.0079 0.91472 0.14323 0.0
C369 C 0.92864 0.84991 0.12604 0.0
C370 C 0.92781 0.82544 0.10563 0.0
C371 C 0.89028 0.80927 0.08923 0.0
C372 C 0.85205 0.81769 0.09391 0.0
C373 C 0.85138 0.84163 0.11491 0.0
C374 C 0.8905 0.85869 0.13102 0.0
H375 H 0.02863 0.89276 0.64679 0.0
H376 H 0.04282 0.80796 0.59033 0.0
H377 H 0.12842 0.87051 0.58498 0.0
H378 H 0.11036 1.01303 0.61916 0.0
H379 H 0.1358 0.04186 0.64714 0.0
H380 H 0.07426 0.99199 0.64579 0.0
H381 H 0.09451 0.94577 0.6775 0.0
H382 H 0.15607 0.9954 0.67888 0.0
H383 H 0.14429 0.93495 0.67246 0.0
H384 H 0.21336 0.9374 0.58763 0.0
H385 H 0.29322 1.00799 0.59712 0.0
H386 H 0.22625 0.05373 0.65053 0.0
C387 C 0.04975 0.8878 0.63316 0.0
C388 C 0.02907 0.84539 0.619 0.0
C389 C 0.05782 0.84007 0.60138 0.0
C390 C 0.10654 0.87546 0.59817 0.0
C391 C 0.12612 0.91646 0.61253 0.0
C392 C 0.09874 0.92331 0.62952 0.0
C393 C 0.12967 0.97055 0.64285 0.0
C394 C 0.11143 1.00647 0.63847 0.0
C395 C 0.13122 0.96108 0.6695 0.0
C396 C 0.17881 0.98803 0.63121 0.0
C397 C 0.17565 0.95621 0.61369 0.0
C398 C 0.21628 0.96284 0.60116 0.0
C399 C 0.26152 1.00287 0.60676 0.0
C400 C 0.26579 0.03611 0.62455 0.0
C401 C 0.2238 0.02894 0.63673 0.0
H402 H 1.02141 0.90013 0.40126 0.0
H403 H 0.99443 0.75312 0.41006 0.0
H404 H 0.9075 0.72094 0.40226 0.0
H405 H 0.90947 0.8762 0.43192 0.0
H406 H 0.89973 0.91644 0.41313 0.0
H407 H 0.96049 0.92828 0.41859 0.0
H408 H 0.9745 0.92916 0.37327 0.0
H409 H 0.91345 0.91653 0.36782 0.0
H410 H 0.93373 0.87724 0.35572 0.0
H411 H 0.82535 0.70388 0.39069 0.0
H412 H 0.74818 0.70284 0.38414 0.0
H413 H 0.82426 0.86016 0.38751 0.0
C414 C 0.99694 0.86126 0.40171 0.0
C415 C 1.01449 0.82899 0.40615 0.0
C416 C 0.98161 0.7784 0.40682 0.0
C417 C 0.93225 0.75973 0.4022 0.0
C418 C 0.91602 0.79219 0.39751 0.0
C419 C 0.94689 0.84191 0.39793 0.0
C420 C 0.9188 0.86841 0.39392 0.0
C421 C 0.92233 0.89913 0.41569 0.0
C422 C 0.93617 0.89968 0.37133 0.0
C423 C 0.86771 0.8257 0.3909 0.0
C424 C 0.86733 0.78219 0.39252 0.0
C425 C 0.82497 0.73767 0.38964 0.0
C426 C 0.78138 0.73744 0.38575 0.0
C427 C 0.78035 0.78138 0.38532 0.0
C428 C 0.82417 0.82609 0.38767 0.0
H429 H 0.05017 0.78577 0.90969 0.0
H430 H 0.96266 0.79131 0.85213 0.0
H431 H 1.0182 0.87952 0.84817 0.0
H432 H 0.07878 0.89955 0.936 0.0
H433 H 0.14034 0.91674 0.94365 0.0
H434 H 0.09465 0.85352 0.94197 0.0
H435 H 0.14606 0.83782 0.91162 0.0
H436 H 0.19267 0.90069 0.91342 0.0
H437 H 0.16703 0.8742 0.88506 0.0
H438 H 0.08238 0.96654 0.85035 0.0
H439 H 0.15401 0.04728 0.85746 0.0
H440 H 0.20074 0.9866 0.91363 0.0
C441 C 0.04325 0.80562 0.89609 0.0
C442 C 1.00219 0.78206 0.88124 0.0
C443 C 0.99377 0.80901 0.8638 0.0
C444 C 0.02508 0.85904 0.86141 0.0
C445 C 0.06479 0.88155 0.87656 0.0
C446 C 0.07426 0.85583 0.89347 0.0
C447 C 0.11962 0.88916 0.90745 0.0
C448 C 0.10761 0.88979 0.93383 0.0
C449 C 0.15865 0.87459 0.90418 0.0
C450 C 0.13428 0.93742 0.89557 0.0
C451 C 0.10193 0.93213 0.8779 0.0
C452 C 0.10796 0.97124 0.86418 0.0
C453 C 0.1486 0.01696 0.86839 0.0
C454 C 0.1826 0.02312 0.88615 0.0
C455 C 0.17509 0.98289 0.90002 0.0
H456 H 0.25002 0.20608 0.40868 0.0
H457 H 0.12044 0.1481 0.36512 0.0
H458 H 0.12276 0.07228 0.35968 0.0
H459 H 0.3106 0.15568 0.37536 0.0
H460 H 0.3354 0.14195 0.40101 0.0
H461 H 0.3235 0.19167 0.40189 0.0
H462 H 0.26932 0.15424 0.43907 0.0
H463 H 0.28119 0.10448 0.43833 0.0
H464 H 0.21956 0.09261 0.43796 0.0
H465 H 0.13855 1.00354 0.35888 0.0
H466 H 0.16694 0.94462 0.36267 0.0
H467 H 0.28702 0.04616 0.40655 0.0
C468 C 0.22221 0.17735 0.39801 0.0
C469 C 0.18513 0.18279 0.38721 0.0
C470 C 0.14923 0.14457 0.37343 0.0
C471 C 0.15022 0.10143 0.37027 0.0
C472 C 0.18733 0.09718 0.38104 0.0
C473 C 0.22266 0.13393 0.39467 0.0
C474 C 0.25845 0.11974 0.40424 0.0
C475 C 0.31004 0.15432 0.39507 0.0
C476 C 0.25702 0.11765 0.43152 0.0
C477 C 0.23794 0.06949 0.39363 0.0
C478 C 0.19674 0.05727 0.38044 0.0
C479 C 0.17073 1.01264 0.36914 0.0
C480 C 0.18707 0.97941 0.37147 0.0
C481 C 0.22904 0.99097 0.38492 0.0
C482 C 0.25504 0.03671 0.39601 0.0
H483 H 0.22637 0.19457 0.87007 0.0
H484 H 0.2827 0.28365 0.93315 0.0
H485 H 0.20051 0.26533 0.94397 0.0
H486 H 0.14557 0.23553 0.85536 0.0
H487 H 0.09761 0.17822 0.84447 0.0
H488 H 0.1596 0.19149 0.84327 0.0
H489 H 0.13634 0.11321 0.8669 0.0
H490 H 0.07411 0.09945 0.86834 0.0
H491 H 0.10654 0.10332 0.89522 0.0
H492 H 0.11589 0.24468 0.94656 0.0
H493 H 0.032 0.22598 0.93984 0.0
H494 H 0.0274 0.1528 0.8741 0.0
C495 C 0.22092 0.20931 0.88633 0.0
C496 C 0.26058 0.24002 0.90094 0.0
C497 C 0.25269 0.25986 0.92178 0.0
C498 C 0.2061 0.24945 0.92817 0.0
C499 C 0.16776 0.21978 0.9133 0.0
C500 C 0.1744 0.20017 0.89272 0.0
C501 C 0.1273 0.17364 0.87881 0.0
C502 C 0.13287 0.19608 0.85401 0.0
C503 C 0.11003 0.11914 0.87724 0.0
C504 C 0.09387 0.18292 0.89445 0.0
C505 C 0.11804 0.20876 0.91446 0.0
C506 C 0.09629 0.22403 0.93111 0.0
C507 C 0.04868 0.21337 0.92707 0.0
C508 C 0.02337 0.18802 0.90647 0.0
C509 C 0.04592 0.17187 0.8901 0.0
H510 H 0.04449 0.21861 0.41112 0.0
H511 H 0.03252 0.25885 0.33904 0.0
H512 H 0.96985 0.17349 0.33063 0.0
H513 H 0.02219 0.0959 0.39911 0.0
H514 H 0.98626 0.07086 0.42556 0.0
H515 H 0.03412 0.13343 0.42499 0.0
H516 H 0.97305 0.16086 0.43723 0.0
H517 H 0.92502 0.09854 0.43799 0.0
H518 H 0.91904 0.14185 0.41976 0.0
H519 H 0.90818 0.08375 0.33044 0.0
H520 H 0.84351 1.0 0.33981 0.0
H521 H 0.88972 0.02109 0.41327 0.0
C522 C 0.0291 0.20919 0.39347 0.0
C523 C 0.04345 0.24482 0.37556 0.0
C524 C 0.02187 0.23175 0.35288 0.0
C525 C 0.98662 0.18343 0.34795 0.0
C526 C 0.97296 0.14904 0.36606 0.0
C527 C 0.99301 0.16153 0.38848 0.0
C528 C 0.96869 0.11903 0.40548 0.0
C529 C 1.00498 0.10391 0.4143 0.0
C530 C 0.94504 0.13078 0.42633 0.0
C531 C 0.93098 0.08085 0.38928 0.0
C532 C 0.93508 0.09844 0.36644 0.0
C533 C 0.90455 0.06968 0.34827 0.0
C534 C 0.8681 0.02217 0.35372 0.0
C535 C 0.86169 1.00448 0.37724 0.0
C536 C 0.89388 0.03398 0.39516 0.0
H537 H 0.80642 0.83342 0.91518 0.0
H538 H 0.92672 0.88918 0.86548 0.0
H539 H 0.92072 0.96292 0.85978 0.0
H540 H 0.73665 0.8752 0.88445 0.0
H541 H 0.71568 0.89158 0.91067 0.0
H542 H 0.7306 0.84395 0.91205 0.0
H543 H 0.79139 0.88891 0.94611 0.0
H544 H 0.77635 0.93651 0.94496 0.0
H545 H 0.8386 0.95107 0.94191 0.0
H546 H 0.90007 0.0281 0.85796 0.0
H547 H 0.8679 0.08394 0.86121 0.0
H548 H 0.76081 0.98783 0.91236 0.0
C549 C 0.83174 0.86147 0.90331 0.0
C550 C 0.86706 0.85581 0.89073 0.0
C551 C 0.89944 0.89294 0.87525 0.0
C552 C 0.8963 0.93489 0.8719 0.0
C553 C 0.86066 0.93913 0.88423 0.0
C554 C 0.82913 0.90375 0.89977 0.0
C555 C 0.79369 0.91736 0.91044 0.0
C556 C 0.74104 0.87978 0.90401 0.0
C557 C 0.80042 0.92385 0.93746 0.0
C558 C 0.80981 0.9655 0.89815 0.0
C559 C 0.84864 0.97725 0.8832 0.0
C560 C 0.86992 0.01952 0.86972 0.0
C561 C 0.85142 0.05101 0.87172 0.0
C562 C 0.81213 0.04024 0.88712 0.0
C563 C 0.79075 0.99673 0.90039 0.0
H564 H 0.19482 0.64255 0.10249 0.0
H565 H 0.1091 0.61974 0.16613 0.0
H566 H 0.10989 0.54418 0.17416 0.0
H567 H 0.13368 0.51809 0.08473 0.0
H568 H 0.18684 0.51818 0.07357 0.0
H569 H 0.18425 0.57347 0.07356 0.0
H570 H 0.26406 0.61616 0.09777 0.0
H571 H 0.26668 0.56082 0.09783 0.0
H572 H 0.26806 0.58995 0.12545 0.0
H573 H 0.11665 0.47134 0.1753 0.0
H574 H 0.12252 0.39867 0.16784 0.0
H575 H 0.20098 0.46202 0.10236 0.0
C576 C 0.17675 0.62175 0.11821 0.0
C577 C 0.15208 0.63716 0.13382 0.0
C578 C 0.1282 0.60872 0.15398 0.0
C579 C 0.12869 0.56584 0.15878 0.0
C580 C 0.15295 0.55141 0.14315 0.0
C581 C 0.17626 0.57798 0.12314 0.0
C582 C 0.19644 0.55157 0.10858 0.0
C583 C 0.17394 0.53962 0.08363 0.0
C584 C 0.25213 0.58142 0.10734 0.0
C585 C 0.17971 0.50569 0.12332 0.0
C586 C 0.15555 0.50734 0.14338 0.0
C587 C 0.1355 0.46956 0.15968 0.0
C588 C 0.13898 0.42828 0.1552 0.0
C589 C 0.16199 0.42441 0.13446 0.0
C590 C 0.18358 0.46413 0.11846 0.0
H591 H 0.71019 0.1275 0.65263 0.0
H592 H 0.77976 0.21872 0.59142 0.0
H593 H 0.71308 0.2369 0.58831 0.0
H594 H 0.58891 0.07444 0.62882 0.0
H595 H 0.56079 0.0708 0.65709 0.0
H596 H 0.6159 0.06798 0.65569 0.0
H597 H 0.65703 0.14032 0.68486 0.0
H598 H 0.60212 0.14356 0.68624 0.0
H599 H 0.65853 0.19637 0.67786 0.0
H600 H 0.63962 0.24588 0.59197 0.0
H601 H 0.5594 0.23781 0.59906 0.0
H602 H 0.53243 0.13501 0.65576 0.0
C603 C 0.71135 0.15143 0.63865 0.0
C604 C 0.75122 0.17347 0.62284 0.0
C605 C 0.75089 0.20355 0.60443 0.0
C606 C 0.71287 0.21362 0.60238 0.0
C607 C 0.67465 0.1923 0.61854 0.0
C608 C 0.67305 0.16112 0.63606 0.0
C609 C 0.62616 0.14075 0.65018 0.0
C610 C 0.59617 0.0852 0.64779 0.0
C611 C 0.6366 0.15618 0.67634 0.0
C612 C 0.60164 0.16519 0.63777 0.0
C613 C 0.63072 0.19534 0.61981 0.0
C614 C 0.61645 0.22224 0.60591 0.0
C615 C 0.57087 0.21757 0.61015 0.0
C616 C 0.53971 0.18581 0.62793 0.0
C617 C 0.55553 0.15957 0.64205 0.0
H618 H 0.59634 0.69765 0.1436 0.0
H619 H 0.57396 0.77566 0.0865 0.0
H620 H 0.48946 0.70788 0.08186 0.0
H621 H 0.53251 0.58146 0.11708 0.0
H622 H 0.50781 0.54964 0.14459 0.0
H623 H 0.56467 0.60592 0.14451 0.0
H624 H 0.53053 0.64185 0.1752 0.0
H625 H 0.47351 0.5856 0.1754 0.0
H626 H 0.47498 0.64178 0.16879 0.0
H627 H 0.40791 0.62916 0.08275 0.0
H628 H 0.33796 0.54614 0.08814 0.0
H629 H 0.41593 0.51941 0.1437 0.0
C630 C 0.57352 0.70063 0.13023 0.0
C631 C 0.59114 0.74232 0.11577 0.0
C632 C 0.56053 0.74469 0.09827 0.0
C633 C 0.51267 0.70619 0.0954 0.0
C634 C 0.49633 0.66553 0.11005 0.0
C635 C 0.526 0.66255 0.12707 0.0
C636 C 0.50077 0.61425 0.13989 0.0
C637 C 0.52807 0.58617 0.13629 0.0
C638 C 0.49458 0.62131 0.16639 0.0
C639 C 0.45243 0.58998 0.1272 0.0
C640 C 0.45027 0.62024 0.1102 0.0
C641 C 0.40925 0.6053 0.09605 0.0
C642 C 0.36972 0.55816 0.09924 0.0
C643 C 0.37168 0.52651 0.11631 0.0
C644 C 0.41348 0.54288 0.13051 0.0
H645 H 0.91621 0.59864 0.64305 0.0
H646 H 0.80274 0.56879 0.59202 0.0
H647 H 0.78776 0.48476 0.58742 0.0
H648 H 0.96553 0.53594 0.61346 0.0
H649 H 0.97924 0.51402 0.64019 0.0
H650 H 0.97788 0.56989 0.64066 0.0
H651 H 0.91441 0.5365 0.67464 0.0
H652 H 0.91574 0.48053 0.67438 0.0
H653 H 0.85894 0.47952 0.67077 0.0
H654 H 0.78888 0.40539 0.58725 0.0
H655 H 0.80534 0.33746 0.59148 0.0
H656 H 0.9195 0.42167 0.64211 0.0
C657 C 0.88789 0.57431 0.63104 0.0
C658 C 0.8602 0.58973 0.61803 0.0
C659 C 0.82367 0.55713 0.60242 0.0
C660 C 0.81517 0.50957 0.59965 0.0
C661 C 0.8436 0.49565 0.61264 0.0
C662 C 0.87912 0.52714 0.62807 0.0
C663 C 0.90604 0.50436 0.63937 0.0
C664 C 0.96038 0.53274 0.63303 0.0
C665 C 0.89829 0.49996 0.66639 0.0
C666 C 0.88078 0.45521 0.62759 0.0
C667 C 0.84463 0.45063 0.61236 0.0
C668 C 0.81696 0.40856 0.59919 0.0
C669 C 0.82664 0.37031 0.60165 0.0
C670 C 0.86378 0.37466 0.61705 0.0
C671 C 0.89094 0.41752 0.63021 0.0
H672 H 0.5184 0.91133 0.14874 0.0
H673 H 0.48966 0.80154 0.09559 0.0
H674 H 0.40515 0.784 0.09225 0.0
H675 H 0.39989 0.8467 0.1775 0.0
H676 H 0.3968 0.90098 0.18275 0.0
H677 H 0.45487 0.90401 0.18166 0.0
H678 H 0.48329 0.96963 0.14876 0.0
H679 H 0.42539 0.96687 0.14979 0.0
H680 H 0.44765 0.95715 0.12212 0.0
H681 H 0.32555 0.78088 0.09312 0.0
H682 H 0.25498 0.7925 0.09832 0.0
H683 H 0.33366 0.90233 0.15172 0.0
C684 C 0.49416 0.88354 0.1365 0.0
C685 C 0.51034 0.85785 0.12237 0.0
C686 C 0.47784 0.82172 0.10651 0.0
C687 C 0.42979 0.81138 0.10453 0.0
C688 C 0.41484 0.83739 0.11861 0.0
C689 C 0.44589 0.87265 0.13432 0.0
C690 C 0.42067 0.89593 0.14697 0.0
C691 C 0.4179 0.88631 0.17381 0.0
C692 C 0.44575 0.95063 0.14158 0.0
C693 C 0.37095 0.86873 0.13562 0.0
C694 C 0.36836 0.83497 0.1194 0.0
C695 C 0.32681 0.80667 0.10601 0.0
C696 C 0.28682 0.81323 0.1092 0.0
C697 C 0.28868 0.84752 0.12574 0.0
C698 C 0.3312 0.87546 0.13915 0.0
H699 H 0.66015 0.4795 0.60263 0.0
H700 H 0.63021 0.54233 0.66418 0.0
H701 H 0.55346 0.46636 0.67058 0.0
H702 H 0.53829 0.41566 0.58127 0.0
H703 H 0.53988 0.36256 0.57145 0.0
H704 H 0.595 0.42051 0.57236 0.0
H705 H 0.63477 0.38402 0.59932 0.0
H706 H 0.57964 0.326 0.59826 0.0
H707 H 0.60491 0.35379 0.62646 0.0
H708 H 0.4787 0.38856 0.66924 0.0
H709 H 0.40632 0.31113 0.65971 0.0
H710 H 0.48041 0.29255 0.59952 0.0
C711 C 0.63748 0.47688 0.61753 0.0
C712 C 0.65122 0.51692 0.63296 0.0
C713 C 0.62052 0.51232 0.65214 0.0
C714 C 0.57688 0.46916 0.65601 0.0
C715 C 0.56417 0.43054 0.64056 0.0
C716 C 0.59322 0.43361 0.62167 0.0
C717 C 0.56879 0.38683 0.6072 0.0
C718 C 0.55997 0.39701 0.58155 0.0
C719 C 0.59884 0.36115 0.60786 0.0
C720 C 0.52114 0.35778 0.62066 0.0
C721 C 0.51999 0.384 0.63996 0.0
C722 C 0.47941 0.36727 0.65445 0.0
C723 C 0.43841 0.32302 0.64891 0.0
C724 C 0.43791 0.2952 0.62924 0.0
C725 C 0.48021 0.31242 0.61506 0.0
H726 H 0.43418 0.93496 0.39732 0.0
H727 H 0.33651 0.78743 0.37412 0.0
H728 H 0.40491 0.77142 0.37324 0.0
H729 H 0.53894 0.95472 0.36258 0.0
H730 H 0.58201 0.98895 0.38552 0.0
H731 H 0.52576 0.98949 0.38346 0.0
H732 H 0.50603 0.96052 0.4271 0.0
H733 H 0.5621 0.95967 0.42926 0.0
H734 H 0.50535 0.90572 0.43601 0.0
H735 H 0.48347 0.77142 0.37457 0.0
H736 H 0.56685 0.78664 0.37898 0.0
H737 H 0.61405 0.93279 0.40328 0.0
C738 C 0.42741 0.89949 0.39184 0.0
C739 C 0.38019 0.86247 0.38561 0.0
C740 C 0.37249 0.81632 0.37883 0.0
C741 C 0.41109 0.80689 0.37829 0.0
C742 C 0.45715 0.84396 0.38469 0.0
C743 C 0.46557 0.88933 0.39138 0.0
C744 C 0.51843 0.92226 0.39804 0.0
C745 C 0.54271 0.96647 0.3814 0.0
C746 C 0.52324 0.93795 0.42415 0.0
C747 C 0.53832 0.88827 0.39408 0.0
C748 C 0.5023 0.84338 0.3863 0.0
C749 C 0.51178 0.80615 0.38104 0.0
C750 C 0.55923 0.81488 0.38397 0.0
C751 C 0.59657 0.86014 0.39239 0.0
C752 C 0.58599 0.8975 0.39721 0.0
H753 H 0.70982 0.59935 0.87931 0.0
H754 H 0.7909 0.57025 0.93221 0.0
H755 H 0.72036 0.4876 0.93809 0.0
H756 H 0.59597 0.53937 0.90846 0.0
H757 H 0.56123 0.51616 0.88158 0.0
H758 H 0.61883 0.57164 0.88088 0.0
H759 H 0.64942 0.53567 0.84841 0.0
H760 H 0.5918 0.48011 0.84892 0.0
H761 H 0.64707 0.47863 0.85371 0.0
H762 H 0.6389 0.40933 0.93917 0.0
H763 H 0.55461 0.34137 0.93469 0.0
H764 H 0.52792 0.42288 0.88097 0.0
C765 C 0.71282 0.57548 0.89206 0.0
C766 C 0.75575 0.59082 0.90523 0.0
C767 C 0.75845 0.55874 0.92173 0.0
C768 C 0.71853 0.51194 0.92525 0.0
C769 C 0.67646 0.49803 0.91205 0.0
C770 C 0.67354 0.52886 0.8957 0.0
C771 C 0.62419 0.50575 0.88398 0.0
C772 C 0.59856 0.53497 0.88904 0.0
C773 C 0.62839 0.49967 0.85717 0.0
C774 C 0.59932 0.45722 0.89652 0.0
C775 C 0.63002 0.45333 0.91261 0.0
C776 C 0.61468 0.41197 0.92656 0.0
C777 C 0.56677 0.37368 0.92396 0.0
C778 C 0.53494 0.3771 0.90754 0.0
C779 C 0.55156 0.41936 0.89365 0.0
H780 H 0.19869 0.73302 0.43343 0.0
H781 H 0.1674 0.74905 0.36032 0.0
H782 H 0.16355 0.67217 0.35013 0.0
H783 H 0.26978 0.66731 0.41954 0.0
H784 H 0.24465 0.6285 0.4451 0.0
H785 H 0.25527 0.68975 0.44583 0.0
H786 H 0.16533 0.6565 0.45733 0.0
H787 H 0.15398 0.59517 0.45606 0.0
H788 H 0.11813 0.61276 0.43834 0.0
H789 H 0.1458 0.58805 0.34928 0.0
H790 H 0.12803 0.5044 0.35625 0.0
H791 H 0.17349 0.53996 0.42957 0.0
C792 C 0.19368 0.72139 0.4151 0.0
C793 C 0.18456 0.74744 0.39746 0.0
C794 C 0.17564 0.73019 0.37388 0.0
C795 C 0.17308 0.68635 0.36796 0.0
C796 C 0.17964 0.66007 0.38587 0.0
C797 C 0.19097 0.67723 0.40887 0.0
C798 C 0.19195 0.63927 0.42497 0.0
C799 C 0.24349 0.65728 0.43442 0.0
C800 C 0.15515 0.62511 0.44537 0.0
C801 C 0.17689 0.59753 0.40765 0.0
C802 C 0.17019 0.61069 0.38521 0.0
C803 C 0.15215 0.57761 0.3666 0.0
C804 C 0.14162 0.53 0.37081 0.0
C805 C 0.14954 0.51581 0.3934 0.0
C806 C 0.16754 0.55007 0.41207 0.0
H807 H 0.6073 0.09614 0.89796 0.0
H808 H 0.71066 0.2507 0.89639 0.0
H809 H 0.64312 0.26787 0.89411 0.0
H810 H 0.51892 0.09687 0.8582 0.0
H811 H 0.46728 0.05213 0.8747 0.0
H812 H 0.52368 0.05172 0.87548 0.0
H813 H 0.52448 0.05679 0.92136 0.0
H814 H 0.46803 0.0571 0.92073 0.0
H815 H 0.52011 0.10533 0.93545 0.0
H816 H 0.56482 0.26809 0.88968 0.0
H817 H 0.48026 0.25128 0.88762 0.0
H818 H 0.42717 0.09786 0.89644 0.0
C819 C 0.61554 0.13352 0.89706 0.0
C820 C 0.66401 0.17214 0.89717 0.0
C821 C 0.67365 0.22064 0.89628 0.0
C822 C 0.63559 0.23074 0.89491 0.0
C823 C 0.58813 0.19191 0.89477 0.0
C824 C 0.57788 0.14429 0.89611 0.0
C825 C 0.52355 0.10946 0.8966 0.0
C826 C 0.50742 0.07555 0.87495 0.0
C827 C 0.50815 0.08047 0.91992 0.0
C828 C 0.50494 0.14494 0.8952 0.0
C829 C 0.54286 0.19227 0.89391 0.0
C830 C 0.53489 0.23132 0.8915 0.0
C831 C 0.48686 0.22176 0.89097 0.0
C832 C 0.44762 0.17401 0.89355 0.0
C833 C 0.45674 0.13496 0.89508 0.0
H834 H 0.33729 0.42404 0.42126 0.0
H835 H 0.2465 0.48169 0.39768 0.0
H836 H 0.31611 0.56484 0.40027 0.0
H837 H 0.42084 0.52418 0.45969 0.0
H838 H 0.47351 0.52213 0.44951 0.0
H839 H 0.41495 0.4676 0.44977 0.0
H840 H 0.42384 0.45499 0.40505 0.0
H841 H 0.48236 0.50939 0.40466 0.0
H842 H 0.43572 0.50297 0.38437 0.0
H843 H 0.39538 0.64144 0.40521 0.0
H844 H 0.48151 0.70579 0.40542 0.0
H845 H 0.52427 0.59823 0.41926 0.0
C846 C 0.33192 0.45432 0.41721 0.0
C847 C 0.28584 0.4467 0.41045 0.0
C848 C 0.28072 0.48691 0.40409 0.0
C849 C 0.32025 0.53427 0.40532 0.0
C850 C 0.36515 0.54066 0.41213 0.0
C851 C 0.37155 0.50178 0.4174 0.0
C852 C 0.42483 0.51825 0.4211 0.0
C853 C 0.43406 0.50739 0.44653 0.0
C854 C 0.44273 0.49502 0.40269 0.0
C855 C 0.4473 0.57239 0.41697 0.0
C856 C 0.41197 0.58457 0.41249 0.0
C857 C 0.42341 0.63236 0.40856 0.0
C858 C 0.47236 0.66863 0.40878 0.0
C859 C 0.50925 0.65673 0.41221 0.0
C860 C 0.4966 0.60807 0.4165 0.0
H861 H 0.85484 0.48243 0.92681 0.0
H862 H 0.89517 0.51876 0.85297 0.0
H863 H 0.88056 0.43625 0.84573 0.0
H864 H 0.91598 0.41805 0.93459 0.0
H865 H 0.8719 0.37204 0.954 0.0
H866 H 0.8771 0.43095 0.95274 0.0
H867 H 0.78558 0.39069 0.94248 0.0
H868 H 0.78036 0.33157 0.94351 0.0
H869 H 0.76206 0.35065 0.91728 0.0
H870 H 0.87118 0.35567 0.84681 0.0
H871 H 0.87656 0.2836 0.85701 0.0
H872 H 0.84321 0.29544 0.93038 0.0
C873 C 0.85968 0.47245 0.90908 0.0
C874 C 0.87586 0.50671 0.89037 0.0
C875 C 0.88286 0.49303 0.86751 0.0
C876 C 0.87413 0.44608 0.86317 0.0
C877 C 0.85861 0.41316 0.88192 0.0
C878 C 0.85185 0.4256 0.9045 0.0
C879 C 0.84086 0.38483 0.92195 0.0
C880 C 0.87873 0.40253 0.94199 0.0
C881 C 0.78913 0.36316 0.93189 0.0
C882 C 0.84503 0.34879 0.90581 0.0
C883 C 0.85378 0.36558 0.88267 0.0
C884 C 0.8633 0.34155 0.86473 0.0
C885 C 0.86605 0.30042 0.87068 0.0
C886 C 0.85902 0.28331 0.89432 0.0
C887 C 0.84696 0.3069 0.91204 0.0
H888 H 0.17511 0.29707 0.31351 0.0
H889 H 0.22371 0.44981 0.32426 0.0
H890 H 0.23758 0.4642 0.28126 0.0
H891 H 0.25897 0.31331 0.2652 0.0
H892 H 0.21464 0.26041 0.24936 0.0
H893 H 0.21172 0.2626 0.28122 0.0
H894 H 0.1231 0.24508 0.27834 0.0
H895 H 0.12582 0.24308 0.24649 0.0
H896 H 0.10983 0.2841 0.2605 0.0
H897 H 0.24478 0.46209 0.23721 0.0
H898 H 0.24231 0.44311 0.19465 0.0
H899 H 0.18565 0.2911 0.21191 0.0
C900 C 0.18939 0.33367 0.30685 0.0
C901 C 0.19868 0.3724 0.32229 0.0
C902 C 0.21642 0.41959 0.31281 0.0
C903 C 0.22452 0.42817 0.2884 0.0
C904 C 0.21444 0.38915 0.27365 0.0
C905 C 0.19718 0.3428 0.28245 0.0
C906 C 0.1872 0.30693 0.26255 0.0
C907 C 0.22009 0.2845 0.26472 0.0
C908 C 0.13328 0.26748 0.26194 0.0
C909 C 0.20092 0.34027 0.2412 0.0
C910 C 0.21715 0.38764 0.24806 0.0
C911 C 0.23226 0.42516 0.23161 0.0
C912 C 0.23084 0.41402 0.20748 0.0
C913 C 0.21382 0.36567 0.19999 0.0
C914 C 0.19856 0.32835 0.21712 0.0
H915 H 0.89404 0.17332 0.71095 0.0
H916 H 0.81695 0.25121 0.69701 0.0
H917 H 0.80394 0.25421 0.7401 0.0
H918 H 0.82069 0.10102 0.75926 0.0
H919 H 0.87096 0.10501 0.77587 0.0
H920 H 0.87402 0.109 0.744 0.0
H921 H 0.95396 0.1916 0.74674 0.0
H922 H 0.95111 0.18791 0.77864 0.0
H923 H 0.95528 0.24013 0.76383 0.0
H924 H 0.79611 0.24518 0.78456 0.0
H925 H 0.79772 0.22878 0.82729 0.0
H926 H 0.88406 0.16095 0.81235 0.0
C927 C 0.8743 0.19092 0.71695 0.0
C928 C 0.85624 0.21183 0.70063 0.0
C929 C 0.83117 0.23506 0.7092 0.0
C930 C 0.82354 0.23685 0.73363 0.0
C931 C 0.84182 0.21585 0.74923 0.0
C932 C 0.86706 0.19371 0.74124 0.0
C933 C 0.88358 0.17455 0.7617 0.0
C934 C 0.86095 0.1191 0.76011 0.0
C935 C 0.93929 0.20009 0.76278 0.0
C936 C 0.86318 0.18883 0.78247 0.0
C937 C 0.83897 0.21236 0.77487 0.0
C938 C 0.81534 0.2272 0.79072 0.0
C939 C 0.81633 0.21759 0.81493 0.0
C940 C 0.8413 0.19393 0.82312 0.0
C941 C 0.86533 0.17977 0.80664 0.0
H942 H 0.7367 0.8587 0.20904 0.0
H943 H 0.58179 0.78684 0.1956 0.0
H944 H 0.56591 0.77146 0.23862 0.0
H945 H 0.7333 0.78214 0.25793 0.0
H946 H 0.7807 0.83213 0.27418 0.0
H947 H 0.77959 0.83424 0.24227 0.0
H948 H 0.78017 0.91591 0.24438 0.0
H949 H 0.78102 0.91394 0.27629 0.0
H950 H 0.73399 0.91953 0.26131 0.0
H951 H 0.56716 0.76501 0.28308 0.0
H952 H 0.58499 0.77073 0.3259 0.0
H953 H 0.73943 0.85078 0.31057 0.0
C954 C 0.69941 0.83898 0.21511 0.0
C955 C 0.66038 0.82342 0.19899 0.0
C956 C 0.61215 0.79888 0.20767 0.0
C957 C 0.60283 0.78993 0.23204 0.0
C958 C 0.64216 0.80629 0.24749 0.0
C959 C 0.6895 0.83051 0.23939 0.0
C960 C 0.72526 0.84666 0.2598 0.0
C961 C 0.75655 0.82233 0.25846 0.0
C962 C 0.75697 0.90231 0.26048 0.0
C963 C 0.69066 0.8278 0.28067 0.0
C964 C 0.6429 0.8042 0.27316 0.0
C965 C 0.6044 0.78338 0.28916 0.0
C966 C 0.61494 0.78675 0.31346 0.0
C967 C 0.66362 0.81123 0.32161 0.0
C968 C 0.70187 0.83209 0.30491 0.0
H969 H 0.88285 0.73217 0.71079 0.0
H970 H 0.80397 0.57801 0.6952 0.0
H971 H 0.79618 0.55975 0.73818 0.0
H972 H 0.94781 0.72666 0.76277 0.0
H973 H 0.94208 0.77309 0.77827 0.0
H974 H 0.94419 0.77343 0.74635 0.0
H975 H 0.86271 0.77335 0.74492 0.0
H976 H 0.86003 0.77236 0.77683 0.0
H977 H 0.81038 0.72598 0.75997 0.0
H978 H 0.79668 0.55866 0.78314 0.0
H979 H 0.80496 0.57495 0.82632 0.0
H980 H 0.87895 0.72975 0.81209 0.0
C981 C 0.86478 0.69456 0.71641 0.0
C982 C 0.84449 0.65645 0.69968 0.0
C983 C 0.81998 0.60773 0.70775 0.0
C984 C 0.81534 0.59703 0.7321 0.0
C985 C 0.8349 0.63548 0.74816 0.0
C986 C 0.85909 0.68327 0.74063 0.0
C987 C 0.87493 0.71793 0.76144 0.0
C988 C 0.93055 0.74963 0.76225 0.0
C989 C 0.85054 0.74924 0.76074 0.0
C990 C 0.85594 0.68222 0.78187 0.0
C991 C 0.83327 0.63483 0.77388 0.0
C992 C 0.81414 0.59564 0.78957 0.0
C993 C 0.81891 0.6052 0.81405 0.0
C994 C 0.84202 0.65354 0.82256 0.0
C995 C 0.86023 0.69237 0.80616 0.0
H996 H 0.22418 0.88996 0.2094 0.0
H997 H 0.10747 0.74163 0.20045 0.0
H998 H 0.09794 0.73204 0.24397 0.0
H999 H 0.2772 0.86327 0.26034 0.0
H1000 H 0.2952 0.92032 0.27479 0.0
H1001 H 0.29141 0.91633 0.24292 0.0
H1002 H 0.23242 0.95029 0.24324 0.0
H1003 H 0.23586 0.95418 0.27512 0.0
H1004 H 0.17771 0.92026 0.26075 0.0
H1005 H 0.09725 0.74044 0.28824 0.0
H1006 H 0.11349 0.76232 0.33077 0.0
H1007 H 0.23698 0.90126 0.31151 0.0
C1008 C 0.1967 0.85559 0.21672 0.0
C1009 C 0.16627 0.81657 0.20173 0.0
C1010 C 0.13113 0.77183 0.21176 0.0
C1011 C 0.1253 0.76615 0.23641 0.0
C1012 C 0.1557 0.80524 0.25079 0.0
C1013 C 0.19141 0.84878 0.24139 0.0
C1014 C 0.22098 0.88398 0.26092 0.0
C1015 C 0.27436 0.89671 0.25966 0.0
C1016 C 0.21645 0.92989 0.25994 0.0
C1017 C 0.19591 0.85364 0.2827 0.0
C1018 C 0.15777 0.80865 0.27643 0.0
C1019 C 0.12749 0.77523 0.29339 0.0
C1020 C 0.13683 0.78791 0.31743 0.0
C1021 C 0.17678 0.83296 0.3242 0.0
C1022 C 0.20667 0.86621 0.30664 0.0
H1023 H 0.35851 0.1457 0.81327 0.0
H1024 H 0.39005 0.29399 0.82221 0.0
H1025 H 0.3883 0.30284 0.77864 0.0
H1026 H 0.43557 0.17187 0.76005 0.0
H1027 H 0.39523 0.11392 0.74671 0.0
H1028 H 0.39939 0.1197 0.77853 0.0
H1029 H 0.3064 0.08462 0.78088 0.0
H1030 H 0.30203 0.07937 0.74907 0.0
H1031 H 0.27911 0.11347 0.76443 0.0
H1032 H 0.3731 0.29183 0.7346 0.0
H1033 H 0.36155 0.26745 0.69234 0.0
H1034 H 0.35116 0.13062 0.71132 0.0
C1035 C 0.36575 0.18018 0.80593 0.0
C1036 C 0.37443 0.21926 0.82091 0.0
C1037 C 0.38382 0.26391 0.81089 0.0
C1038 C 0.38252 0.26909 0.78623 0.0
C1039 C 0.37301 0.22963 0.77188 0.0
C1040 C 0.36622 0.1865 0.78129 0.0
C1041 C 0.3585 0.15041 0.76184 0.0
C1042 C 0.39963 0.13827 0.76178 0.0
C1043 C 0.30854 0.10425 0.76421 0.0
C1044 C 0.36081 0.17953 0.74008 0.0
C1045 C 0.36836 0.22483 0.74632 0.0
C1046 C 0.36842 0.25697 0.72945 0.0
C1047 C 0.36181 0.2429 0.70554 0.0
C1048 C 0.35655 0.19781 0.69873 0.0
C1049 C 0.35582 0.16564 0.71619 0.0
H1050 H 0.36233 0.28665 0.97279 0.0
H1051 H 0.23465 0.14626 0.95926 0.0
H1052 H 0.19153 0.16062 0.99154 0.0
H1053 H 0.34808 0.28196 0.03781 0.0
H1054 H 0.36928 0.34601 0.04001 0.0
H1055 H 0.39105 0.32355 0.01648 0.0
H1056 H 0.36289 0.36503 0.98575 0.0
H1057 H 0.33989 0.38652 1.00916 0.0
H1058 H 0.3003 0.35028 0.98548 0.0
H1059 H 0.16026 0.191 0.02368 0.0
H1060 H 0.14578 0.23169 0.05718 0.0
H1061 H 0.29326 0.35243 0.05094 0.0
C1062 C 0.3257 0.25842 0.97695 0.0
C1063 C 0.30212 0.21521 0.96338 0.0
C1064 C 0.25383 0.1796 0.96931 0.0
C1065 C 0.22876 0.1875 0.98758 0.0
C1066 C 0.25243 0.23104 1.0 0.0
C1067 C 0.30005 0.26559 0.9953 0.0
C1068 C 0.31672 0.30923 0.0115 0.0
C1069 C 0.35877 0.31554 0.02739 0.0
C1070 C 0.33078 0.3555 0.99711 0.0
C1071 C 0.2709 0.29384 0.02587 0.0
C1072 C 0.23427 0.24868 0.01879 0.0
C1073 C 0.18871 0.22631 0.02946 0.0
C1074 C 0.18078 0.2499 0.04843 0.0
C1075 C 0.21822 0.29546 0.05667 0.0
C1076 C 0.26359 0.31809 0.04484 0.0
H1077 H 0.07729 0.35601 0.46879 0.0
H1078 H 0.1158 0.24278 0.46568 0.0
H1079 H 0.06211 0.20157 0.49939 0.0
H1080 H 0.07057 0.35724 0.53427 0.0
H1081 H 1.02022 0.36825 0.53407 0.0
H1082 H 0.06357 0.39045 0.51012 0.0
H1083 H 0.99331 0.345 0.48015 0.0
H1084 H 0.94993 0.32182 0.50406 0.0
H1085 H 0.95335 0.28048 0.48335 0.0
H1086 H 1.00053 0.16884 0.53113 0.0
H1087 H 0.9428 0.1522 0.56354 0.0
H1088 H 0.94494 0.28731 0.54828 0.0
C1089 C 0.07515 0.32307 0.47548 0.0
C1090 C 0.10078 0.30268 0.46436 0.0
C1091 C 0.0966 0.25928 0.47369 0.0
C1092 C 0.06595 0.23532 0.49284 0.0
C1093 C 0.03997 0.25533 0.50281 0.0
C1094 C 0.04487 0.29868 0.49489 0.0
C1095 C 1.01277 0.3121 0.50918 0.0
C1096 C 0.04363 0.35984 0.52272 0.0
C1097 C 0.97511 0.31502 0.49323 0.0
C1098 C 0.98871 0.26912 0.52603 0.0
C1099 C 1.00482 0.23676 0.52182 0.0
C1100 C 0.98785 0.19405 0.53476 0.0
C1101 C 0.95467 0.18479 0.55308 0.0
C1102 C 0.93905 0.21836 0.55858 0.0
C1103 C 0.95574 0.26068 0.54448 0.0
H1104 H 0.68082 0.95039 0.05197 0.0
H1105 H 0.81673 0.95663 0.0699 0.0
H1106 H 0.8569 1.01268 0.03673 0.0
H1107 H 0.69649 0.95303 0.98832 0.0
H1108 H 0.66975 0.99049 0.9829 0.0
H1109 H 0.65118 0.95082 1.00832 0.0
H1110 H 0.67291 0.0242 0.03577 0.0
H1111 H 0.69198 0.06415 0.01044 0.0
H1112 H 0.73324 0.07626 0.03477 0.0
H1113 H 0.88291 0.0671 1.00172 0.0
H1114 H 0.8927 0.11499 0.96575 0.0
H1115 H 0.74085 0.07527 0.96963 0.0
C1116 C 0.71896 0.96337 0.04886 0.0
C1117 C 0.74537 0.94864 0.06359 0.0
C1118 C 0.79534 0.96677 0.05887 0.0
C1119 C 0.81871 0.99893 0.04008 0.0
C1120 C 0.7918 1.01285 0.02603 0.0
C1121 C 0.74302 0.9956 0.03003 0.0
C1122 C 0.72268 0.01606 0.01186 0.0
C1123 C 0.68266 0.97516 0.99697 0.0
C1124 C 0.70411 0.04701 0.02394 0.0
C1125 C 0.76767 0.04729 0.99705 0.0
C1126 C 0.80706 0.04488 1.00567 0.0
C1127 C 0.85239 0.06942 0.99482 0.0
C1128 C 0.85754 0.09657 0.97436 0.0
C1129 C 0.81765 0.09918 0.96485 0.0
C1130 C 0.77223 0.07461 0.9766 0.0
H1131 H 0.74426 0.68188 0.55299 0.0
H1132 H 0.87641 0.81581 0.57042 0.0
H1133 H 0.8607 0.85747 0.53786 0.0
H1134 H 0.75545 0.6974 0.48974 0.0
H1135 H 0.69126 0.67205 0.4849 0.0
H1136 H 0.71234 0.65286 0.51004 0.0
H1137 H 0.66292 0.67664 0.53801 0.0
H1138 H 0.64218 0.69649 0.51294 0.0
H1139 H 0.67284 0.73761 0.53712 0.0
H1140 H 0.83223 0.8848 0.50277 0.0
H1141 H 0.79475 0.8943 0.46636 0.0
H1142 H 0.6806 0.74345 0.47171 0.0
C1143 C 0.77002 0.71989 0.54991 0.0
C1144 C 0.81176 0.74526 0.5643 0.0
C1145 C 0.84435 0.79515 0.55963 0.0
C1146 C 0.83565 0.81941 0.54121 0.0
C1147 C 0.79413 0.79349 0.5275 0.0
C1148 C 0.76194 0.7448 0.53151 0.0
C1149 C 0.7207 0.72527 0.51371 0.0
C1150 C 0.71992 0.68449 0.49871 0.0
C1151 C 0.67176 0.70799 0.5262 0.0
C1152 C 0.73515 0.77041 0.49895 0.0
C1153 C 0.77743 0.80944 0.50733 0.0
C1154 C 0.79891 0.85456 0.49611 0.0
C1155 C 0.77724 0.85964 0.47544 0.0
C1156 C 0.73448 0.81981 0.46614 0.0
C1157 C 0.71283 0.77492 0.47844 0.0
H1158 H 0.95466 0.67242 0.97219 0.0
H1159 H 0.97494 0.81262 0.95062 0.0
H1160 H 0.03386 0.85192 0.98283 0.0
H1161 H 0.96248 0.69619 0.03561 0.0
H1162 H 0.99413 0.66362 0.04174 0.0
H1163 H 0.95317 0.64625 0.01692 0.0
H1164 H 0.02247 0.65643 0.98899 0.0
H1165 H 0.06378 0.67464 0.01371 0.0
H1166 H 0.07854 0.71366 0.98816 0.0
H1167 H 0.09088 0.87678 0.01689 0.0
H1168 H 0.13777 0.88486 0.05301 0.0
H1169 H 0.08162 0.72921 0.05332 0.0
C1170 C 0.97121 0.71133 0.97435 0.0
C1171 C 0.95974 0.73925 0.95885 0.0
C1172 C 0.98244 0.79014 0.96232 0.0
C1173 C 1.01635 0.813 0.98051 0.0
C1174 C 0.0273 0.78461 0.9952 0.0
C1175 C 1.00509 0.73486 0.99257 0.0
C1176 C 0.02276 0.71293 0.01131 0.0
C1177 C 0.98062 0.67766 0.02734 0.0
C1178 C 0.04841 0.68794 0.99985 0.0
C1179 C 0.05843 0.75818 0.02477 0.0
C1180 C 0.06053 0.79908 0.01504 0.0
C1181 C 0.08963 0.84504 0.02465 0.0
C1182 C 0.11626 0.84924 0.04517 0.0
C1183 C 0.11374 0.80776 0.05595 0.0
C1184 C 0.08512 0.76174 0.04526 0.0
H1185 H 0.19351 0.94774 0.47241 0.0
H1186 H 0.32379 0.93865 0.46027 0.0
H1187 H 0.36444 0.99546 0.49282 0.0
H1188 H 0.25279 0.07376 0.48745 0.0
H1189 H 0.21162 0.06747 0.51097 0.0
H1190 H 0.19072 0.02487 0.48674 0.0
H1191 H 0.16253 0.95341 0.51642 0.0
H1192 H 0.18286 0.99578 0.54074 0.0
H1193 H 0.20517 0.95397 0.53766 0.0
H1194 H 0.39393 0.05647 0.52444 0.0
H1195 H 0.40758 0.11096 0.55787 0.0
H1196 H 0.2582 0.0796 0.55288 0.0
C1197 C 0.23034 0.95723 0.47681 0.0
C1198 C 0.25521 0.93841 0.46355 0.0
C1199 C 0.30352 0.95206 0.46998 0.0
C1200 C 0.32727 0.9847 0.48846 0.0
C1201 C 0.30232 1.00327 0.50077 0.0
C1202 C 0.25468 0.9895 0.49567 0.0
C1203 C 0.23654 0.01461 0.51241 0.0
C1204 C 0.22206 0.0471 0.49856 0.0
C1205 C 0.19426 0.97721 0.52771 0.0
C1206 C 0.28169 0.04482 0.52738 0.0
C1207 C 0.31916 0.03786 0.52004 0.0
C1208 C 0.36477 0.06196 0.53055 0.0
C1209 C 0.37217 0.09315 0.54954 0.0
C1210 C 0.33405 0.09985 0.55821 0.0
C1211 C 0.28824 0.07559 0.5467 0.0
loop_
_geom_bond_atom_site_label_1
_geom_bond_atom_site_label_2
_geom_bond_distance
_geom_bond_site_symmetry_2
_ccdc_geom_bond_type
Tb0 O3 2.453 . S
Tb0 O4 2.596 . S
Tb0 O5 2.374 . S
Tb0 O13 2.343 . S
Tb0 O15 2.353 . S
Tb0 O17 2.427 . S
Tb0 O18 2.513 . S
C1 O5 1.251 . S
C1 O7 1.263 . S
Tb2 O4 2.343 . S
Tb2 O7 2.353 . S
Tb2 O10 2.427 . S
Tb2 O11 2.513 . S
Tb2 O12 2.453 . S
Tb2 O13 2.596 . S
Tb2 O14 2.374 . S
O3 Tb0 2.453 . S
O3 C19 1.245 . S
O4 Tb0 2.596 . S
O4 Tb2 2.343 . S
O4 C19 1.259 . S
O5 Tb0 2.374 . S
O5 C1 1.251 . S
C6 O10 1.275 . S
C6 O11 1.246 . S
O7 C1 1.263 . S
O7 Tb2 2.353 . S
C8 O12 1.245 . S
C8 O13 1.259 . S
C9 O14 1.250 . S
C9 O15 1.263 . S
O10 Tb2 2.427 . S
O10 C6 1.275 . S
O11 Tb2 2.513 . S
O11 C6 1.246 . S
O12 Tb2 2.453 . S
O12 C8 1.245 . S
O13 Tb0 2.343 . S
O13 Tb2 2.596 . S
O13 C8 1.259 . S
O14 Tb2 2.374 . S
O14 C9 1.250 . S
O15 Tb0 2.353 . S
O15 C9 1.263 . S
C16 O17 1.275 . S
C16 O18 1.246 . S
O17 Tb0 2.427 . S
O17 C16 1.275 . S
O18 Tb0 2.513 . S
O18 C16 1.246 . S
C19 O3 1.245 . S
C19 O4 1.259 . S
Tb20 O23 2.453 . S
Tb20 O24 2.596 . S
Tb20 O25 2.374 . S
Tb20 O33 2.343 . S
Tb20 O35 2.353 . S
Tb20 O37 2.427 . S
Tb20 O38 2.513 . S
C21 O25 1.251 . S
C21 O27 1.263 . S
Tb22 O24 2.343 . S
Tb22 O27 2.353 . S
Tb22 O30 2.427 . S
Tb22 O31 2.513 . S
Tb22 O32 2.453 . S
Tb22 O33 2.596 . S
Tb22 O34 2.374 . S
O23 Tb20 2.453 . S
O23 C39 1.245 . S
O24 Tb20 2.596 . S
O24 Tb22 2.343 . S
O24 C39 1.259 . S
O25 Tb20 2.374 . S
O25 C21 1.251 . S
C26 O30 1.275 . S
C26 O31 1.246 . S
O27 C21 1.263 . S
O27 Tb22 2.353 . S
C28 O32 1.245 . S
C28 O33 1.259 . S
C29 O34 1.250 . S
C29 O35 1.263 . S
O30 Tb22 2.427 . S
O30 C26 1.275 . S
O31 Tb22 2.513 . S
O31 C26 1.246 . S
O32 Tb22 2.453 . S
O32 C28 1.245 . S
O33 Tb20 2.343 . S
O33 Tb22 2.596 . S
O33 C28 1.259 . S
O34 Tb22 2.374 . S
O34 C29 1.250 . S
O35 Tb20 2.353 . S
O35 C29 1.263 . S
C36 O37 1.275 . S
C36 O38 1.246 . S
O37 Tb20 2.427 . S
O37 C36 1.275 . S
O38 Tb20 2.513 . S
O38 C36 1.246 . S
C39 O23 1.245 . S
C39 O24 1.259 . S
Tb40 O43 2.453 . S
Tb40 O44 2.596 . S
Tb40 O45 2.374 . S
Tb40 O53 2.343 . S
Tb40 O55 2.353 . S
Tb40 O57 2.427 . S
Tb40 O58 2.513 . S
C41 O45 1.251 . S
C41 O47 1.263 . S
Tb42 O44 2.343 . S
Tb42 O47 2.353 . S
Tb42 O50 2.427 . S
Tb42 O51 2.513 . S
Tb42 O52 2.453 . S
Tb42 O53 2.596 . S
Tb42 O54 2.374 . S
O43 Tb40 2.453 . S
O43 C59 1.245 . S
O44 Tb40 2.596 . S
O44 Tb42 2.343 . S
O44 C59 1.259 . S
O45 Tb40 2.374 . S
O45 C41 1.251 . S
C46 O50 1.275 . S
C46 O51 1.246 . S
O47 C41 1.263 . S
O47 Tb42 2.353 . S
C48 O52 1.245 . S
C48 O53 1.259 . S
C49 O54 1.250 . S
C49 O55 1.263 . S
O50 Tb42 2.427 . S
O50 C46 1.275 . S
O51 Tb42 2.513 . S
O51 C46 1.246 . S
O52 Tb42 2.453 . S
O52 C48 1.245 . S
O53 Tb40 2.343 . S
O53 Tb42 2.596 . S
O53 C48 1.259 . S
O54 Tb42 2.374 . S
O54 C49 1.250 . S
O55 Tb40 2.353 . S
O55 C49 1.263 . S
C56 O57 1.275 . S
C56 O58 1.246 . S
O57 Tb40 2.427 . S
O57 C56 1.275 . S
O58 Tb40 2.513 . S
O58 C56 1.246 . S
C59 O43 1.245 . S
C59 O44 1.259 . S
Tb60 O63 2.453 . S
Tb60 O64 2.596 . S
Tb60 O65 2.374 . S
Tb60 O73 2.343 . S
Tb60 O75 2.353 . S
Tb60 O77 2.427 . S
Tb60 O78 2.513 . S
C61 O65 1.251 . S
C61 O67 1.263 . S
Tb62 O64 2.343 . S
Tb62 O67 2.353 . S
Tb62 O70 2.427 . S
Tb62 O71 2.513 . S
Tb62 O72 2.453 . S
Tb62 O73 2.596 . S
Tb62 O74 2.374 . S
O63 Tb60 2.453 . S
O63 C79 1.245 . S
O64 Tb60 2.596 . S
O64 Tb62 2.343 . S
O64 C79 1.259 . S
O65 Tb60 2.374 . S
O65 C61 1.251 . S
C66 O70 1.275 . S
C66 O71 1.246 . S
O67 C61 1.263 . S
O67 Tb62 2.353 . S
C68 O72 1.245 . S
C68 O73 1.259 . S
C69 O74 1.250 . S
C69 O75 1.263 . S
O70 Tb62 2.427 . S
O70 C66 1.275 . S
O71 Tb62 2.513 . S
O71 C66 1.246 . S
O72 Tb62 2.453 . S
O72 C68 1.245 . S
O73 Tb60 2.343 . S
O73 Tb62 2.596 . S
O73 C68 1.259 . S
O74 Tb62 2.374 . S
O74 C69 1.250 . S
O75 Tb60 2.353 . S
O75 C69 1.263 . S
C76 O77 1.275 . S
C76 O78 1.246 . S
O77 Tb60 2.427 . S
O77 C76 1.275 . S
O78 Tb60 2.513 . S
O78 C76 1.246 . S
C79 O63 1.245 . S
C79 O64 1.259 . S
Tb80 O83 2.453 . S
Tb80 O84 2.596 . S
Tb80 O85 2.374 . S
Tb80 O93 2.343 . S
Tb80 O95 2.353 . S
Tb80 O97 2.427 . S
Tb80 O98 2.513 . S
C81 O85 1.251 . S
C81 O87 1.263 . S
Tb82 O84 2.343 . S
Tb82 O87 2.353 . S
Tb82 O90 2.427 . S
Tb82 O91 2.513 . S
Tb82 O92 2.453 . S
Tb82 O93 2.596 . S
Tb82 O94 2.374 . S
O83 Tb80 2.453 . S
O83 C99 1.245 . S
O84 Tb80 2.596 . S
O84 Tb82 2.343 . S
O84 C99 1.259 . S
O85 Tb80 2.374 . S
O85 C81 1.251 . S
C86 O90 1.275 . S
C86 O91 1.246 . S
O87 C81 1.263 . S
O87 Tb82 2.353 . S
C88 O92 1.245 . S
C88 O93 1.259 . S
C89 O94 1.250 . S
C89 O95 1.263 . S
O90 Tb82 2.427 . S
O90 C86 1.275 . S
O91 Tb82 2.513 . S
O91 C86 1.246 . S
O92 Tb82 2.453 . S
O92 C88 1.245 . S
O93 Tb80 2.343 . S
O93 Tb82 2.596 . S
O93 C88 1.259 . S
O94 Tb82 2.374 . S
O94 C89 1.250 . S
O95 Tb80 2.353 . S
O95 C89 1.263 . S
C96 O97 1.275 . S
C96 O98 1.246 . S
O97 Tb80 2.427 . S
O97 C96 1.275 . S
O98 Tb80 2.513 . S
O98 C96 1.246 . S
C99 O83 1.245 . S
C99 O84 1.259 . S
Tb100 O103 2.453 . S
Tb100 O104 2.596 . S
Tb100 O105 2.374 . S
Tb100 O113 2.343 . S
Tb100 O115 2.353 . S
Tb100 O117 2.427 . S
Tb100 O118 2.513 . S
C101 O105 1.251 . S
C101 O107 1.263 . S
Tb102 O104 2.343 . S
Tb102 O107 2.353 . S
Tb102 O110 2.427 . S
Tb102 O111 2.513 . S
Tb102 O112 2.453 . S
Tb102 O113 2.596 . S
Tb102 O114 2.374 . S
O103 Tb100 2.453 . S
O103 C119 1.245 . S
O104 Tb100 2.596 . S
O104 Tb102 2.343 . S
O104 C119 1.259 . S
O105 Tb100 2.374 . S
O105 C101 1.251 . S
C106 O110 1.275 . S
C106 O111 1.246 . S
O107 C101 1.263 . S
O107 Tb102 2.353 . S
C108 O112 1.245 . S
C108 O113 1.259 . S
C109 O114 1.250 . S
C109 O115 1.263 . S
O110 Tb102 2.427 . S
O110 C106 1.275 . S
O111 Tb102 2.513 . S
O111 C106 1.246 . S
O112 Tb102 2.453 . S
O112 C108 1.245 . S
O113 Tb100 2.343 . S
O113 Tb102 2.596 . S
O113 C108 1.259 . S
O114 Tb102 2.374 . S
O114 C109 1.250 . S
O115 Tb100 2.353 . S
O115 C109 1.263 . S
C116 O117 1.275 . S
C116 O118 1.246 . S
O117 Tb100 2.427 . S
O117 C116 1.275 . S
O118 Tb100 2.513 . S
O118 C116 1.246 . S
C119 O103 1.245 . S
C119 O104 1.259 . S
Tb120 O123 2.453 . S
Tb120 O124 2.596 . S
Tb120 O125 2.374 . S
Tb120 O133 2.343 . S
Tb120 O135 2.353 . S
Tb120 O137 2.427 . S
Tb120 O138 2.513 . S
C121 O125 1.251 . S
C121 O127 1.263 . S
Tb122 O124 2.343 . S
Tb122 O127 2.353 . S
Tb122 O130 2.427 . S
Tb122 O131 2.513 . S
Tb122 O132 2.453 . S
Tb122 O133 2.596 . S
Tb122 O134 2.374 . S
O123 Tb120 2.453 . S
O123 C139 1.245 . S
O124 Tb120 2.596 . S
O124 Tb122 2.343 . S
O124 C139 1.259 . S
O125 Tb120 2.374 . S
O125 C121 1.251 . S
C126 O130 1.275 . S
C126 O131 1.246 . S
O127 C121 1.263 . S
O127 Tb122 2.353 . S
C128 O132 1.245 . S
C128 O133 1.259 . S
C129 O134 1.250 . S
C129 O135 1.263 . S
O130 Tb122 2.427 . S
O130 C126 1.275 . S
O131 Tb122 2.513 . S
O131 C126 1.246 . S
O132 Tb122 2.453 . S
O132 C128 1.245 . S
O133 Tb120 2.343 . S
O133 Tb122 2.596 . S
O133 C128 1.259 . S
O134 Tb122 2.374 . S
O134 C129 1.250 . S
O135 Tb120 2.353 . S
O135 C129 1.263 . S
C136 O137 1.275 . S
C136 O138 1.246 . S
O137 Tb120 2.427 . S
O137 C136 1.275 . S
O138 Tb120 2.513 . S
O138 C136 1.246 . S
C139 O123 1.245 . S
C139 O124 1.259 . S
Tb140 O143 2.453 . S
Tb140 O144 2.596 . S
Tb140 O145 2.374 . S
Tb140 O153 2.343 . S
Tb140 O155 2.353 . S
Tb140 O157 2.427 . S
Tb140 O158 2.513 . S
C141 O145 1.251 . S
C141 O147 1.263 . S
Tb142 O144 2.343 . S
Tb142 O147 2.353 . S
Tb142 O150 2.427 . S
Tb142 O151 2.513 . S
Tb142 O152 2.453 . S
Tb142 O153 2.596 . S
Tb142 O154 2.374 . S
O143 Tb140 2.453 . S
O143 C159 1.245 . S
O144 Tb140 2.596 . S
O144 Tb142 2.343 . S
O144 C159 1.259 . S
O145 Tb140 2.374 . S
O145 C141 1.251 . S
C146 O150 1.275 . S
C146 O151 1.246 . S
O147 C141 1.263 . S
O147 Tb142 2.353 . S
C148 O152 1.245 . S
C148 O153 1.259 . S
C149 O154 1.250 . S
C149 O155 1.263 . S
O150 Tb142 2.427 . S
O150 C146 1.275 . S
O151 Tb142 2.513 . S
O151 C146 1.246 . S
O152 Tb142 2.453 . S
O152 C148 1.245 . S
O153 Tb140 2.343 . S
O153 Tb142 2.596 . S
O153 C148 1.259 . S
O154 Tb142 2.374 . S
O154 C149 1.250 . S
O155 Tb140 2.353 . S
O155 C149 1.263 . S
C156 O157 1.275 . S
C156 O158 1.246 . S
O157 Tb140 2.427 . S
O157 C156 1.275 . S
O158 Tb140 2.513 . S
O158 C156 1.246 . S
C159 O143 1.245 . S
C159 O144 1.259 . S
Tb160 O163 2.453 . S
Tb160 O164 2.596 . S
Tb160 O165 2.374 . S
Tb160 O173 2.343 . S
Tb160 O175 2.353 . S
Tb160 O177 2.427 . S
Tb160 O178 2.513 . S
C161 O165 1.251 . S
C161 O167 1.263 . S
Tb162 O164 2.343 . S
Tb162 O167 2.353 . S
Tb162 O170 2.427 . S
Tb162 O171 2.513 . S
Tb162 O172 2.453 . S
Tb162 O173 2.596 . S
Tb162 O174 2.374 . S
O163 Tb160 2.453 . S
O163 C179 1.245 . S
O164 Tb160 2.596 . S
O164 Tb162 2.343 . S
O164 C179 1.259 . S
O165 Tb160 2.374 . S
O165 C161 1.251 . S
C166 O170 1.275 . S
C166 O171 1.246 . S
O167 C161 1.263 . S
O167 Tb162 2.353 . S
C168 O172 1.245 . S
C168 O173 1.259 . S
C169 O174 1.250 . S
C169 O175 1.263 . S
O170 Tb162 2.427 . S
O170 C166 1.275 . S
O171 Tb162 2.513 . S
O171 C166 1.246 . S
O172 Tb162 2.453 . S
O172 C168 1.245 . S
O173 Tb160 2.343 . S
O173 Tb162 2.596 . S
O173 C168 1.259 . S
O174 Tb162 2.374 . S
O174 C169 1.250 . S
O175 Tb160 2.353 . S
O175 C169 1.263 . S
C176 O177 1.275 . S
C176 O178 1.246 . S
O177 Tb160 2.427 . S
O177 C176 1.275 . S
O178 Tb160 2.513 . S
O178 C176 1.246 . S
C179 O163 1.245 . S
C179 O164 1.259 . S
Tb180 O183 2.453 . S
Tb180 O184 2.596 . S
Tb180 O185 2.374 . S
Tb180 O193 2.343 . S
Tb180 O195 2.353 . S
Tb180 O197 2.427 . S
Tb180 O198 2.513 . S
C181 O185 1.251 . S
C181 O187 1.263 . S
Tb182 O184 2.343 . S
Tb182 O187 2.353 . S
Tb182 O190 2.427 . S
Tb182 O191 2.513 . S
Tb182 O192 2.453 . S
Tb182 O193 2.596 . S
Tb182 O194 2.374 . S
O183 Tb180 2.453 . S
O183 C199 1.245 . S
O184 Tb180 2.596 . S
O184 Tb182 2.343 . S
O184 C199 1.259 . S
O185 Tb180 2.374 . S
O185 C181 1.251 . S
C186 O190 1.275 . S
C186 O191 1.246 . S
O187 C181 1.263 . S
O187 Tb182 2.353 . S
C188 O192 1.245 . S
C188 O193 1.259 . S
C189 O194 1.250 . S
C189 O195 1.263 . S
O190 Tb182 2.427 . S
O190 C186 1.275 . S
O191 Tb182 2.513 . S
O191 C186 1.246 . S
O192 Tb182 2.453 . S
O192 C188 1.245 . S
O193 Tb180 2.343 . S
O193 Tb182 2.596 . S
O193 C188 1.259 . S
O194 Tb182 2.374 . S
O194 C189 1.250 . S
O195 Tb180 2.353 . S
O195 C189 1.263 . S
C196 O197 1.275 . S
C196 O198 1.246 . S
O197 Tb180 2.427 . S
O197 C196 1.275 . S
O198 Tb180 2.513 . S
O198 C196 1.246 . S
C199 O183 1.245 . S
C199 O184 1.259 . S
Tb200 O203 2.453 . S
Tb200 O204 2.596 . S
Tb200 O205 2.374 . S
Tb200 O213 2.343 . S
Tb200 O215 2.353 . S
Tb200 O217 2.427 . S
Tb200 O218 2.513 . S
C201 O205 1.251 . S
C201 O207 1.263 . S
Tb202 O204 2.343 . S
Tb202 O207 2.353 . S
Tb202 O210 2.427 . S
Tb202 O211 2.513 . S
Tb202 O212 2.453 . S
Tb202 O213 2.596 . S
Tb202 O214 2.374 . S
O203 Tb200 2.453 . S
O203 C219 1.245 . S
O204 Tb200 2.596 . S
O204 Tb202 2.343 . S
O204 C219 1.259 . S
O205 Tb200 2.374 . S
O205 C201 1.251 . S
C206 O210 1.275 . S
C206 O211 1.246 . S
O207 C201 1.263 . S
O207 Tb202 2.353 . S
C208 O212 1.245 . S
C208 O213 1.259 . S
C209 O214 1.250 . S
C209 O215 1.263 . S
O210 Tb202 2.427 . S
O210 C206 1.275 . S
O211 Tb202 2.513 . S
O211 C206 1.246 . S
O212 Tb202 2.453 . S
O212 C208 1.245 . S
O213 Tb200 2.343 . S
O213 Tb202 2.596 . S
O213 C208 1.259 . S
O214 Tb202 2.374 . S
O214 C209 1.250 . S
O215 Tb200 2.353 . S
O215 C209 1.263 . S
C216 O217 1.275 . S
C216 O218 1.246 . S
O217 Tb200 2.427 . S
O217 C216 1.275 . S
O218 Tb200 2.513 . S
O218 C216 1.246 . S
C219 O203 1.245 . S
C219 O204 1.259 . S
Tb220 O223 2.453 . S
Tb220 O224 2.596 . S
Tb220 O225 2.374 . S
Tb220 O233 2.343 . S
Tb220 O235 2.353 . S
Tb220 O237 2.427 . S
Tb220 O238 2.513 . S
C221 O225 1.251 . S
C221 O227 1.263 . S
Tb222 O224 2.343 . S
Tb222 O227 2.353 . S
Tb222 O230 2.427 . S
Tb222 O231 2.513 . S
Tb222 O232 2.453 . S
Tb222 O233 2.596 . S
Tb222 O234 2.374 . S
O223 Tb220 2.453 . S
O223 C239 1.245 . S
O224 Tb220 2.596 . S
O224 Tb222 2.343 . S
O224 C239 1.259 . S
O225 Tb220 2.374 . S
O225 C221 1.251 . S
C226 O230 1.275 . S
C226 O231 1.246 . S
O227 C221 1.263 . S
O227 Tb222 2.353 . S
C228 O232 1.245 . S
C228 O233 1.259 . S
C229 O234 1.250 . S
C229 O235 1.263 . S
O230 Tb222 2.427 . S
O230 C226 1.275 . S
O231 Tb222 2.513 . S
O231 C226 1.246 . S
O232 Tb222 2.453 . S
O232 C228 1.245 . S
O233 Tb220 2.343 . S
O233 Tb222 2.596 . S
O233 C228 1.259 . S
O234 Tb222 2.374 . S
O234 C229 1.250 . S
O235 Tb220 2.353 . S
O235 C229 1.263 . S
C236 O237 1.275 . S
C236 O238 1.246 . S
O237 Tb220 2.427 . S
O237 C236 1.275 . S
O238 Tb220 2.513 . S
O238 C236 1.246 . S
C239 O223 1.245 . S
C239 O224 1.259 . S
H240 C252 0.930 1_565 S
H241 C254 0.930 1_565 S
H242 C255 0.930 . S
H243 C259 0.959 . S
H244 C259 0.959 . S
H245 C259 0.961 . S
H246 C260 0.960 . S
H247 C260 0.961 . S
H248 C260 0.959 . S
H249 C263 0.929 . S
H250 C264 0.931 . S
H251 C266 0.930 . S
C252 H240 0.930 1_545 S
C252 C253 1.399 1_545 S
C252 C257 1.399 . S
C253 C252 1.399 1_565 S
C253 C254 1.376 1_565 S
C254 H241 0.930 1_545 S
C254 C253 1.376 1_545 S
C254 C255 1.388 . S
C255 H242 0.930 . S
C255 C254 1.388 . S
C255 C256 1.390 . S
C256 C255 1.390 . S
C256 C257 1.394 . S
C256 C262 1.465 . S
C257 C252 1.399 . S
C257 C256 1.394 . S
C257 C258 1.516 . S
C258 C257 1.516 . S
C258 C259 1.502 . S
C258 C260 1.561 . S
C258 C261 1.526 . S
C259 H243 0.959 . S
C259 H244 0.959 . S
C259 H245 0.961 . S
C259 C258 1.502 . S
C260 H246 0.960 . S
C260 H247 0.961 . S
C260 H248 0.959 . S
C260 C258 1.561 . S
C261 C258 1.526 . S
C261 C262 1.396 . S
C261 C266 1.390 . S
C262 C256 1.465 . S
C262 C261 1.396 . S
C262 C263 1.399 . S
C263 H249 0.929 . S
C263 C262 1.399 . S
C263 C264 1.385 . S
C264 H250 0.931 . S
C264 C263 1.385 . S
C264 C265 1.389 . S
C265 C264 1.389 . S
C265 C266 1.387 . S
C266 H251 0.930 . S
C266 C261 1.390 . S
C266 C265 1.387 . S
H267 C279 0.930 . S
H268 C281 0.930 . S
H269 C282 0.930 . S
H270 C286 0.959 . S
H271 C286 0.959 1_655 S
H272 C286 0.961 . S
H273 C287 0.960 . S
H274 C287 0.961 . S
H275 C287 0.959 . S
H276 C290 0.929 . S
H277 C291 0.931 . S
H278 C293 0.930 . S
C279 H267 0.930 . S
C279 C280 1.399 . S
C279 C284 1.399 . S
C280 C279 1.399 . S
C280 C281 1.376 . S
C281 H268 0.930 . S
C281 C280 1.376 . S
C281 C282 1.388 . S
C282 H269 0.930 . S
C282 C281 1.388 . S
C282 C283 1.390 . S
C283 C282 1.390 . S
C283 C284 1.394 . S
C283 C289 1.465 . S
C284 C279 1.399 . S
C284 C283 1.394 . S
C284 C285 1.516 . S
C285 C284 1.516 . S
C285 C286 1.502 . S
C285 C287 1.561 . S
C285 C288 1.526 . S
C286 H270 0.959 . S
C286 H271 0.959 1_455 S
C286 H272 0.961 . S
C286 C285 1.502 . S
C287 H273 0.960 . S
C287 H274 0.961 . S
C287 H275 0.959 . S
C287 C285 1.561 . S
C288 C285 1.526 . S
C288 C289 1.396 . S
C288 C293 1.390 1_455 S
C289 C283 1.465 . S
C289 C288 1.396 . S
C289 C290 1.399 . S
C290 H276 0.929 . S
C290 C289 1.399 . S
C290 C291 1.385 1_455 S
C291 H277 0.931 . S
C291 C290 1.385 1_655 S
C291 C292 1.389 . S
C292 C291 1.389 . S
C292 C293 1.387 . S
C293 H278 0.930 . S
C293 C288 1.390 1_655 S
C293 C292 1.387 . S
H294 C306 0.930 . S
H295 C308 0.930 . S
H296 C309 0.930 . S
H297 C313 0.959 . S
H298 C313 0.959 . S
H299 C313 0.961 . S
H300 C314 0.960 . S
H301 C314 0.961 . S
H302 C314 0.959 . S
H303 C317 0.929 . S
H304 C318 0.931 . S
H305 C320 0.930 . S
C306 H294 0.930 . S
C306 C307 1.399 . S
C306 C311 1.399 1_565 S
C307 C306 1.399 . S
C307 C308 1.376 . S
C308 H295 0.930 . S
C308 C307 1.376 . S
C308 C309 1.388 1_565 S
C309 H296 0.930 . S
C309 C308 1.388 1_545 S
C309 C310 1.390 . S
C310 C309 1.390 . S
C310 C311 1.394 . S
C310 C316 1.465 . S
C311 C306 1.399 1_545 S
C311 C310 1.394 . S
C311 C312 1.516 . S
C312 C311 1.516 . S
C312 C313 1.502 . S
C312 C314 1.561 . S
C312 C315 1.526 . S
C313 H297 0.959 . S
C313 H298 0.959 . S
C313 H299 0.961 . S
C313 C312 1.502 . S
C314 H300 0.960 . S
C314 H301 0.961 . S
C314 H302 0.959 . S
C314 C312 1.561 . S
C315 C312 1.526 . S
C315 C316 1.396 . S
C315 C320 1.390 . S
C316 C310 1.465 . S
C316 C315 1.396 . S
C316 C317 1.399 . S
C317 H303 0.929 . S
C317 C316 1.399 . S
C317 C318 1.385 1_655 S
C318 H304 0.931 . S
C318 C317 1.385 1_455 S
C318 C319 1.389 . S
C319 C318 1.389 . S
C319 C320 1.387 1_455 S
C320 H305 0.930 . S
C320 C315 1.390 . S
C320 C319 1.387 1_655 S
H321 C333 0.930 . S
H322 C335 0.930 . S
H323 C336 0.930 . S
H324 C340 0.959 . S
H325 C340 0.959 . S
H326 C340 0.961 . S
H327 C341 0.960 . S
H328 C341 0.961 . S
H329 C341 0.959 . S
H330 C344 0.929 . S
H331 C345 0.931 . S
H332 C347 0.929 . S
C333 H321 0.930 . S
C333 C334 1.399 . S
C333 C338 1.399 . S
C334 C333 1.399 . S
C334 C335 1.376 . S
C335 H322 0.930 . S
C335 C334 1.376 . S
C335 C336 1.388 . S
C336 H323 0.930 . S
C336 C335 1.388 . S
C336 C337 1.390 . S
C337 C336 1.390 . S
C337 C338 1.394 . S
C337 C343 1.465 . S
C338 C333 1.399 . S
C338 C337 1.394 . S
C338 C339 1.516 . S
C339 C338 1.516 . S
C339 C340 1.502 . S
C339 C341 1.561 . S
C339 C342 1.526 . S
C340 H324 0.959 . S
C340 H325 0.959 . S
C340 H326 0.961 . S
C340 C339 1.502 . S
C341 H327 0.960 . S
C341 H328 0.961 . S
C341 H329 0.959 . S
C341 C339 1.561 . S
C342 C339 1.526 . S
C342 C343 1.396 . S
C342 C347 1.390 . S
C343 C337 1.465 . S
C343 C342 1.396 . S
C343 C344 1.399 . S
C344 H330 0.929 . S
C344 C343 1.399 . S
C344 C345 1.385 1_565 S
C345 H331 0.931 . S
C345 C344 1.385 1_545 S
C345 C346 1.389 . S
C346 C345 1.389 . S
C346 C347 1.387 1_545 S
C347 H332 0.929 . S
C347 C342 1.390 . S
C347 C346 1.387 1_565 S
H348 C360 0.930 . S
H349 C362 0.930 . S
H350 C363 0.930 1_455 S
H351 C367 0.959 . S
H352 C367 0.959 . S
H353 C367 0.961 . S
H354 C368 0.960 . S
H355 C368 0.961 . S
H356 C368 0.959 . S
H357 C371 0.929 . S
H358 C372 0.931 . S
H359 C374 0.930 . S
C360 H348 0.930 . S
C360 C361 1.399 1_655 S
C360 C365 1.399 . S
C361 C360 1.399 1_455 S
C361 C362 1.376 . S
C362 H349 0.930 . S
C362 C361 1.376 . S
C362 C363 1.388 1_455 S
C363 H350 0.930 1_655 S
C363 C362 1.388 1_655 S
C363 C364 1.390 . S
C364 C363 1.390 . S
C364 C365 1.394 . S
C364 C370 1.465 . S
C365 C360 1.399 . S
C365 C364 1.394 . S
C365 C366 1.516 . S
C366 C365 1.516 . S
C366 C367 1.502 . S
C366 C368 1.561 . S
C366 C369 1.526 . S
C367 H351 0.959 . S
C367 H352 0.959 . S
C367 H353 0.961 . S
C367 C366 1.502 . S
C368 H354 0.960 . S
C368 H355 0.961 . S
C368 H356 0.959 . S
C368 C366 1.561 . S
C369 C366 1.526 . S
C369 C370 1.396 . S
C369 C374 1.390 . S
C370 C364 1.465 . S
C370 C369 1.396 . S
C370 C371 1.399 . S
C371 H357 0.929 . S
C371 C370 1.399 . S
C371 C372 1.385 . S
C372 H358 0.931 . S
C372 C371 1.385 . S
C372 C373 1.389 . S
C373 C372 1.389 . S
C373 C374 1.387 . S
C374 H359 0.930 . S
C374 C369 1.390 . S
C374 C373 1.387 . S
H375 C387 0.927 . S
H376 C389 0.930 . S
H377 C390 0.930 . S
H378 C394 0.959 . S
H379 C394 0.959 1_545 S
H380 C394 0.961 . S
H381 C395 0.960 . S
H382 C395 0.961 1_545 S
H383 C395 0.959 . S
H384 C398 0.929 . S
H385 C399 0.931 . S
H386 C401 0.930 . S
C387 H375 0.927 . S
C387 C388 1.400 . S
C387 C392 1.401 1_655 S
C388 C387 1.400 . S
C388 C389 1.376 1_655 S
C389 H376 0.930 . S
C389 C388 1.376 1_455 S
C389 C390 1.388 . S
C390 H377 0.930 . S
C390 C389 1.388 . S
C390 C391 1.390 . S
C391 C390 1.390 . S
C391 C392 1.394 . S
C391 C397 1.465 . S
C392 C387 1.401 1_455 S
C392 C391 1.394 . S
C392 C393 1.516 . S
C393 C392 1.516 . S
C393 C394 1.502 . S
C393 C395 1.561 . S
C393 C396 1.526 . S
C394 H378 0.959 . S
C394 H379 0.959 1_565 S
C394 H380 0.961 . S
C394 C393 1.502 . S
C395 H381 0.960 . S
C395 H382 0.961 1_565 S
C395 H383 0.959 . S
C395 C393 1.561 . S
C396 C393 1.526 . S
C396 C397 1.396 . S
C396 C401 1.390 1_565 S
C397 C391 1.465 . S
C397 C396 1.396 . S
C397 C398 1.399 . S
C398 H384 0.929 . S
C398 C397 1.399 . S
C398 C399 1.385 . S
C399 H385 0.931 . S
C399 C398 1.385 . S
C399 C400 1.389 1_565 S
C400 C399 1.389 1_545 S
C400 C401 1.387 . S
C401 H386 0.930 . S
C401 C396 1.390 1_545 S
C401 C400 1.387 . S
H402 C414 0.932 . S
H403 C416 0.930 . S
H404 C417 0.930 . S
H405 C421 0.959 . S
H406 C421 0.959 . S
H407 C421 0.961 . S
H408 C422 0.960 . S
H409 C422 0.961 . S
H410 C422 0.959 . S
H411 C425 0.929 . S
H412 C426 0.931 . S
H413 C428 0.930 . S
C414 H402 0.932 . S
C414 C415 1.409 . S
C414 C419 1.386 1_455 S
C415 C414 1.409 . S
C415 C416 1.376 1_455 S
C416 H403 0.930 . S
C416 C415 1.376 1_655 S
C416 C417 1.388 . S
C417 H404 0.930 . S
C417 C416 1.388 . S
C417 C418 1.390 . S
C418 C417 1.390 . S
C418 C419 1.394 . S
C418 C424 1.465 . S
C419 C414 1.386 1_655 S
C419 C418 1.394 . S
C419 C420 1.516 . S
C420 C419 1.516 . S
C420 C421 1.502 . S
C420 C422 1.561 . S
C420 C423 1.526 . S
C421 H405 0.959 . S
C421 H406 0.959 . S
C421 H407 0.961 . S
C421 C420 1.502 . S
C422 H408 0.960 . S
C422 H409 0.961 . S
C422 H410 0.959 . S
C422 C420 1.561 . S
C423 C420 1.526 . S
C423 C424 1.396 . S
C423 C428 1.390 . S
C424 C418 1.465 . S
C424 C423 1.396 . S
C424 C425 1.399 . S
C425 H411 0.929 . S
C425 C424 1.399 . S
C425 C426 1.385 . S
C426 H412 0.931 . S
C426 C425 1.385 . S
C426 C427 1.389 . S
C427 C426 1.389 . S
C427 C428 1.387 . S
C428 H413 0.930 . S
C428 C423 1.390 . S
C428 C427 1.387 . S
H429 C441 0.930 . S
H430 C443 0.930 1_655 S
H431 C444 0.930 . S
H432 C448 0.959 . S
H433 C448 0.959 . S
H434 C448 0.961 1_655 S
H435 C449 0.960 . S
H436 C449 0.961 . S
H437 C449 0.959 . S
H438 C452 0.929 . S
H439 C453 0.931 1_545 S
H440 C455 0.930 1_545 S
C441 H429 0.930 . S
C441 C442 1.399 . S
C441 C446 1.399 1_655 S
C442 C441 1.399 . S
C442 C443 1.376 1_655 S
C443 H430 0.930 1_455 S
C443 C442 1.376 1_455 S
C443 C444 1.388 . S
C444 H431 0.930 . S
C444 C443 1.388 . S
C444 C445 1.390 . S
C445 C444 1.390 . S
C445 C446 1.394 . S
C445 C451 1.465 . S
C446 C441 1.399 1_455 S
C446 C445 1.394 . S
C446 C447 1.516 . S
C447 C446 1.516 . S
C447 C448 1.502 . S
C447 C449 1.561 . S
C447 C450 1.526 . S
C448 H432 0.959 . S
C448 H433 0.959 . S
C448 H434 0.961 1_455 S
C448 C447 1.502 . S
C449 H435 0.960 . S
C449 H436 0.961 . S
C449 H437 0.959 . S
C449 C447 1.561 . S
C450 C447 1.526 . S
C450 C451 1.396 . S
C450 C455 1.390 . S
C451 C445 1.465 . S
C451 C450 1.396 . S
C451 C452 1.399 . S
C452 H438 0.929 . S
C452 C451 1.399 . S
C452 C453 1.385 . S
C453 H439 0.931 1_565 S
C453 C452 1.385 . S
C453 C454 1.389 1_565 S
C454 C453 1.389 1_545 S
C454 C455 1.387 1_545 S
C455 H440 0.930 1_565 S
C455 C450 1.390 . S
C455 C454 1.387 1_565 S
H456 C468 0.930 . S
H457 C470 0.930 . S
H458 C471 0.930 . S
H459 C475 0.959 . S
H460 C475 0.959 . S
H461 C475 0.961 . S
H462 C476 0.960 . S
H463 C476 0.961 . S
H464 C476 0.959 . S
H465 C479 0.929 . S
H466 C480 0.931 . S
H467 C482 0.930 . S
C468 H456 0.930 . S
C468 C469 1.399 . S
C468 C473 1.399 . S
C469 C468 1.399 . S
C469 C470 1.376 . S
C470 H457 0.930 . S
C470 C469 1.376 . S
C470 C471 1.388 . S
C471 H458 0.930 . S
C471 C470 1.388 . S
C471 C472 1.390 . S
C472 C471 1.390 . S
C472 C473 1.394 . S
C472 C478 1.465 . S
C473 C468 1.399 . S
C473 C472 1.394 . S
C473 C474 1.516 . S
C474 C473 1.516 . S
C474 C475 1.502 . S
C474 C476 1.561 . S
C474 C477 1.526 . S
C475 H459 0.959 . S
C475 H460 0.959 . S
C475 H461 0.961 . S
C475 C474 1.502 . S
C476 H462 0.960 . S
C476 H463 0.961 . S
C476 H464 0.959 . S
C476 C474 1.561 . S
C477 C474 1.526 . S
C477 C478 1.396 . S
C477 C482 1.390 1_545 S
C478 C472 1.465 . S
C478 C477 1.396 . S
C478 C479 1.399 . S
C479 H465 0.929 . S
C479 C478 1.399 . S
C479 C480 1.385 1_545 S
C480 H466 0.931 . S
C480 C479 1.385 1_565 S
C480 C481 1.389 . S
C481 C480 1.389 . S
C481 C482 1.387 . S
C482 H467 0.930 . S
C482 C477 1.390 1_565 S
C482 C481 1.387 . S
H483 C495 0.930 . S
H484 C497 0.930 . S
H485 C498 0.930 . S
H486 C502 0.959 . S
H487 C502 0.959 . S
H488 C502 0.961 . S
H489 C503 0.960 . S
H490 C503 0.961 . S
H491 C503 0.959 . S
H492 C506 0.929 . S
H493 C507 0.931 . S
H494 C509 0.930 . S
C495 H483 0.930 . S
C495 C496 1.399 . S
C495 C500 1.399 . S
C496 C495 1.399 . S
C496 C497 1.376 . S
C497 H484 0.930 . S
C497 C496 1.376 . S
C497 C498 1.388 . S
C498 H485 0.930 . S
C498 C497 1.388 . S
C498 C499 1.390 . S
C499 C498 1.390 . S
C499 C500 1.394 . S
C499 C505 1.465 . S
C500 C495 1.399 . S
C500 C499 1.394 . S
C500 C501 1.516 . S
C501 C500 1.516 . S
C501 C502 1.502 . S
C501 C503 1.561 . S
C501 C504 1.526 . S
C502 H486 0.959 . S
C502 H487 0.959 . S
C502 H488 0.961 . S
C502 C501 1.502 . S
C503 H489 0.960 . S
C503 H490 0.961 . S
C503 H491 0.959 . S
C503 C501 1.561 . S
C504 C501 1.526 . S
C504 C505 1.396 . S
C504 C509 1.390 . S
C505 C499 1.465 . S
C505 C504 1.396 . S
C505 C506 1.399 . S
C506 H492 0.929 . S
C506 C505 1.399 . S
C506 C507 1.385 1_455 S
C507 H493 0.931 . S
C507 C506 1.385 1_655 S
C507 C508 1.389 . S
C508 C507 1.389 . S
C508 C509 1.387 1_655 S
C509 H494 0.930 . S
C509 C504 1.390 . S
C509 C508 1.387 1_455 S
H510 C522 0.930 . S
H511 C524 0.930 . S
H512 C525 0.930 . S
H513 C529 0.959 . S
H514 C529 0.959 . S
H515 C529 0.961 1_455 S
H516 C530 0.960 . S
H517 C530 0.961 . S
H518 C530 0.959 . S
H519 C533 0.929 . S
H520 C534 0.931 1_565 S
H521 C536 0.930 1_565 S
C522 H510 0.930 . S
C522 C523 1.399 . S
C522 C527 1.399 1_455 S
C523 C522 1.399 . S
C523 C524 1.376 . S
C524 H511 0.930 . S
C524 C523 1.376 . S
C524 C525 1.388 1_455 S
C525 H512 0.930 . S
C525 C524 1.388 1_655 S
C525 C526 1.390 . S
C526 C525 1.390 . S
C526 C527 1.394 . S
C526 C532 1.465 . S
C527 C522 1.399 1_655 S
C527 C526 1.394 . S
C527 C528 1.516 . S
C528 C527 1.516 . S
C528 C529 1.502 . S
C528 C530 1.561 . S
C528 C531 1.526 . S
C529 H513 0.959 . S
C529 H514 0.959 . S
C529 H515 0.961 1_655 S
C529 C528 1.502 . S
C530 H516 0.960 . S
C530 H517 0.961 . S
C530 H518 0.959 . S
C530 C528 1.561 . S
C531 C528 1.526 . S
C531 C532 1.396 . S
C531 C536 1.390 . S
C532 C526 1.465 . S
C532 C531 1.396 . S
C532 C533 1.399 . S
C533 H519 0.929 . S
C533 C532 1.399 . S
C533 C534 1.385 . S
C534 H520 0.931 1_545 S
C534 C533 1.385 . S
C534 C535 1.389 1_545 S
C535 C534 1.389 1_565 S
C535 C536 1.387 1_565 S
C536 H521 0.930 1_545 S
C536 C531 1.390 . S
C536 C535 1.387 1_545 S
H537 C549 0.930 . S
H538 C551 0.930 . S
H539 C552 0.930 . S
H540 C556 0.959 . S
H541 C556 0.959 . S
H542 C556 0.961 . S
H543 C557 0.960 . S
H544 C557 0.961 . S
H545 C557 0.959 . S
H546 C560 0.929 . S
H547 C561 0.931 . S
H548 C563 0.930 . S
C549 H537 0.930 . S
C549 C550 1.399 . S
C549 C554 1.399 . S
C550 C549 1.399 . S
C550 C551 1.376 . S
C551 H538 0.930 . S
C551 C550 1.376 . S
C551 C552 1.388 . S
C552 H539 0.930 . S
C552 C551 1.388 . S
C552 C553 1.390 . S
C553 C552 1.390 . S
C553 C554 1.394 . S
C553 C559 1.465 . S
C554 C549 1.399 . S
C554 C553 1.394 . S
C554 C555 1.516 . S
C555 C554 1.516 . S
C555 C556 1.502 . S
C555 C557 1.561 . S
C555 C558 1.526 . S
C556 H540 0.959 . S
C556 H541 0.959 . S
C556 H542 0.961 . S
C556 C555 1.502 . S
C557 H543 0.960 . S
C557 H544 0.961 . S
C557 H545 0.959 . S
C557 C555 1.561 . S
C558 C555 1.526 . S
C558 C559 1.396 . S
C558 C563 1.390 . S
C559 C553 1.465 . S
C559 C558 1.396 . S
C559 C560 1.399 1_565 S
C560 H546 0.929 . S
C560 C559 1.399 1_545 S
C560 C561 1.385 . S
C561 H547 0.931 . S
C561 C560 1.385 . S
C561 C562 1.389 . S
C562 C561 1.389 . S
C562 C563 1.387 1_545 S
C563 H548 0.930 . S
C563 C558 1.390 . S
C563 C562 1.387 1_565 S
H564 C576 0.930 . S
H565 C578 0.930 . S
H566 C579 0.930 . S
H567 C583 0.959 . S
H568 C583 0.959 . S
H569 C583 0.961 . S
H570 C584 0.960 . S
H571 C584 0.961 . S
H572 C584 0.959 . S
H573 C587 0.929 . S
H574 C588 0.931 . S
H575 C590 0.930 . S
C576 H564 0.930 . S
C576 C577 1.399 . S
C576 C581 1.399 . S
C577 C576 1.399 . S
C577 C578 1.376 . S
C578 H565 0.930 . S
C578 C577 1.376 . S
C578 C579 1.388 . S
C579 H566 0.930 . S
C579 C578 1.388 . S
C579 C580 1.390 . S
C580 C579 1.390 . S
C580 C581 1.394 . S
C580 C586 1.465 . S
C581 C576 1.399 . S
C581 C580 1.394 . S
C581 C582 1.516 . S
C582 C581 1.516 . S
C582 C583 1.502 . S
C582 C584 1.561 . S
C582 C585 1.526 . S
C583 H567 0.959 . S
C583 H568 0.959 . S
C583 H569 0.961 . S
C583 C582 1.502 . S
C584 H570 0.960 . S
C584 H571 0.961 . S
C584 H572 0.959 . S
C584 C582 1.561 . S
C585 C582 1.526 . S
C585 C586 1.396 . S
C585 C590 1.390 . S
C586 C580 1.465 . S
C586 C585 1.396 . S
C586 C587 1.399 . S
C587 H573 0.929 . S
C587 C586 1.399 . S
C587 C588 1.385 . S
C588 H574 0.931 . S
C588 C587 1.385 . S
C588 C589 1.389 . S
C589 C588 1.389 . S
C589 C590 1.387 . S
C590 H575 0.930 . S
C590 C585 1.390 . S
C590 C589 1.387 . S
H591 C603 0.930 . S
H592 C605 0.930 . S
H593 C606 0.930 . S
H594 C610 0.959 . S
H595 C610 0.959 . S
H596 C610 0.961 . S
H597 C611 0.960 . S
H598 C611 0.961 . S
H599 C611 0.959 . S
H600 C614 0.929 . S
H601 C615 0.931 . S
H602 C617 0.930 . S
C603 H591 0.930 . S
C603 C604 1.399 . S
C603 C608 1.399 . S
C604 C603 1.399 . S
C604 C605 1.376 . S
C605 H592 0.930 . S
C605 C604 1.376 . S
C605 C606 1.388 . S
C606 H593 0.930 . S
C606 C605 1.388 . S
C606 C607 1.390 . S
C607 C606 1.390 . S
C607 C608 1.394 . S
C607 C613 1.465 . S
C608 C603 1.399 . S
C608 C607 1.394 . S
C608 C609 1.516 . S
C609 C608 1.516 . S
C609 C610 1.502 . S
C609 C611 1.561 . S
C609 C612 1.526 . S
C610 H594 0.959 . S
C610 H595 0.959 . S
C610 H596 0.961 . S
C610 C609 1.502 . S
C611 H597 0.960 . S
C611 H598 0.961 . S
C611 H599 0.959 . S
C611 C609 1.561 . S
C612 C609 1.526 . S
C612 C613 1.396 . S
C612 C617 1.390 . S
C613 C607 1.465 . S
C613 C612 1.396 . S
C613 C614 1.399 . S
C614 H600 0.929 . S
C614 C613 1.399 . S
C614 C615 1.385 . S
C615 H601 0.931 . S
C615 C614 1.385 . S
C615 C616 1.389 . S
C616 C615 1.389 . S
C616 C617 1.387 . S
C617 H602 0.930 . S
C617 C612 1.390 . S
C617 C616 1.387 . S
H618 C630 0.930 . S
H619 C632 0.930 . S
H620 C633 0.930 . S
H621 C637 0.959 . S
H622 C637 0.959 . S
H623 C637 0.961 . S
H624 C638 0.960 . S
H625 C638 0.961 . S
H626 C638 0.959 . S
H627 C641 0.929 . S
H628 C642 0.931 . S
H629 C644 0.930 . S
C630 H618 0.930 . S
C630 C631 1.399 . S
C630 C635 1.399 . S
C631 C630 1.399 . S
C631 C632 1.376 . S
C632 H619 0.930 . S
C632 C631 1.376 . S
C632 C633 1.388 . S
C633 H620 0.930 . S
C633 C632 1.388 . S
C633 C634 1.390 . S
C634 C633 1.390 . S
C634 C635 1.394 . S
C634 C640 1.465 . S
C635 C630 1.399 . S
C635 C634 1.394 . S
C635 C636 1.516 . S
C636 C635 1.516 . S
C636 C637 1.502 . S
C636 C638 1.561 . S
C636 C639 1.526 . S
C637 H621 0.959 . S
C637 H622 0.959 . S
C637 H623 0.961 . S
C637 C636 1.502 . S
C638 H624 0.960 . S
C638 H625 0.961 . S
C638 H626 0.959 . S
C638 C636 1.561 . S
C639 C636 1.526 . S
C639 C640 1.396 . S
C639 C644 1.390 . S
C640 C634 1.465 . S
C640 C639 1.396 . S
C640 C641 1.399 . S
C641 H627 0.929 . S
C641 C640 1.399 . S
C641 C642 1.385 . S
C642 H628 0.931 . S
C642 C641 1.385 . S
C642 C643 1.389 . S
C643 C642 1.389 . S
C643 C644 1.387 . S
C644 H629 0.930 . S
C644 C639 1.390 . S
C644 C643 1.387 . S
H645 C657 0.930 . S
H646 C659 0.930 . S
H647 C660 0.930 . S
H648 C664 0.959 . S
H649 C664 0.959 . S
H650 C664 0.961 . S
H651 C665 0.960 . S
H652 C665 0.961 . S
H653 C665 0.959 . S
H654 C668 0.929 . S
H655 C669 0.931 . S
H656 C671 0.930 . S
C657 H645 0.930 . S
C657 C658 1.399 . S
C657 C662 1.399 . S
C658 C657 1.399 . S
C658 C659 1.376 . S
C659 H646 0.930 . S
C659 C658 1.376 . S
C659 C660 1.388 . S
C660 H647 0.930 . S
C660 C659 1.388 . S
C660 C661 1.390 . S
C661 C660 1.390 . S
C661 C662 1.394 . S
C661 C667 1.465 . S
C662 C657 1.399 . S
C662 C661 1.394 . S
C662 C663 1.516 . S
C663 C662 1.516 . S
C663 C664 1.502 . S
C663 C665 1.561 . S
C663 C666 1.526 . S
C664 H648 0.959 . S
C664 H649 0.959 . S
C664 H650 0.961 . S
C664 C663 1.502 . S
C665 H651 0.960 . S
C665 H652 0.961 . S
C665 H653 0.959 . S
C665 C663 1.561 . S
C666 C663 1.526 . S
C666 C667 1.396 . S
C666 C671 1.390 . S
C667 C661 1.465 . S
C667 C666 1.396 . S
C667 C668 1.399 . S
C668 H654 0.929 . S
C668 C667 1.399 . S
C668 C669 1.385 . S
C669 H655 0.931 . S
C669 C668 1.385 . S
C669 C670 1.389 . S
C670 C669 1.389 . S
C670 C671 1.387 . S
C671 H656 0.930 . S
C671 C666 1.390 . S
C671 C670 1.387 . S
H672 C684 0.930 . S
H673 C686 0.930 . S
H674 C687 0.930 . S
H675 C691 0.959 . S
H676 C691 0.959 . S
H677 C691 0.961 . S
H678 C692 0.960 . S
H679 C692 0.961 . S
H680 C692 0.959 . S
H681 C695 0.929 . S
H682 C696 0.931 . S
H683 C698 0.930 . S
C684 H672 0.930 . S
C684 C685 1.399 . S
C684 C689 1.399 . S
C685 C684 1.399 . S
C685 C686 1.376 . S
C686 H673 0.930 . S
C686 C685 1.376 . S
C686 C687 1.388 . S
C687 H674 0.930 . S
C687 C686 1.388 . S
C687 C688 1.390 . S
C688 C687 1.390 . S
C688 C689 1.394 . S
C688 C694 1.465 . S
C689 C684 1.399 . S
C689 C688 1.394 . S
C689 C690 1.516 . S
C690 C689 1.516 . S
C690 C691 1.502 . S
C690 C692 1.561 . S
C690 C693 1.526 . S
C691 H675 0.959 . S
C691 H676 0.959 . S
C691 H677 0.961 . S
C691 C690 1.502 . S
C692 H678 0.960 . S
C692 H679 0.961 . S
C692 H680 0.959 . S
C692 C690 1.561 . S
C693 C690 1.526 . S
C693 C694 1.396 . S
C693 C698 1.390 . S
C694 C688 1.465 . S
C694 C693 1.396 . S
C694 C695 1.399 . S
C695 H681 0.929 . S
C695 C694 1.399 . S
C695 C696 1.385 . S
C696 H682 0.931 . S
C696 C695 1.385 . S
C696 C697 1.389 . S
C697 C696 1.389 . S
C697 C698 1.387 . S
C698 H683 0.930 . S
C698 C693 1.390 . S
C698 C697 1.387 . S
H699 C711 0.930 . S
H700 C713 0.930 . S
H701 C714 0.930 . S
H702 C718 0.959 . S
H703 C718 0.959 . S
H704 C718 0.961 . S
H705 C719 0.960 . S
H706 C719 0.961 . S
H707 C719 0.959 . S
H708 C722 0.929 . S
H709 C723 0.931 . S
H710 C725 0.930 . S
C711 H699 0.930 . S
C711 C712 1.399 . S
C711 C716 1.399 . S
C712 C711 1.399 . S
C712 C713 1.376 . S
C713 H700 0.930 . S
C713 C712 1.376 . S
C713 C714 1.388 . S
C714 H701 0.930 . S
C714 C713 1.388 . S
C714 C715 1.390 . S
C715 C714 1.390 . S
C715 C716 1.394 . S
C715 C721 1.465 . S
C716 C711 1.399 . S
C716 C715 1.394 . S
C716 C717 1.516 . S
C717 C716 1.516 . S
C717 C718 1.502 . S
C717 C719 1.561 . S
C717 C720 1.526 . S
C718 H702 0.959 . S
C718 H703 0.959 . S
C718 H704 0.961 . S
C718 C717 1.502 . S
C719 H705 0.960 . S
C719 H706 0.961 . S
C719 H707 0.959 . S
C719 C717 1.561 . S
C720 C717 1.526 . S
C720 C721 1.396 . S
C720 C725 1.390 . S
C721 C715 1.465 . S
C721 C720 1.396 . S
C721 C722 1.399 . S
C722 H708 0.929 . S
C722 C721 1.399 . S
C722 C723 1.385 . S
C723 H709 0.931 . S
C723 C722 1.385 . S
C723 C724 1.389 . S
C724 C723 1.389 . S
C724 C725 1.387 . S
C725 H710 0.930 . S
C725 C720 1.390 . S
C725 C724 1.387 . S
H726 C738 0.930 . S
H727 C740 0.930 . S
H728 C741 0.930 . S
H729 C745 0.959 . S
H730 C745 0.959 . S
H731 C745 0.961 . S
H732 C746 0.960 . S
H733 C746 0.961 . S
H734 C746 0.959 . S
H735 C749 0.929 . S
H736 C750 0.931 . S
H737 C752 0.930 . S
C738 H726 0.930 . S
C738 C739 1.399 . S
C738 C743 1.399 . S
C739 C738 1.399 . S
C739 C740 1.376 . S
C740 H727 0.930 . S
C740 C739 1.376 . S
C740 C741 1.388 . S
C741 H728 0.930 . S
C741 C740 1.388 . S
C741 C742 1.390 . S
C742 C741 1.390 . S
C742 C743 1.394 . S
C742 C748 1.465 . S
C743 C738 1.399 . S
C743 C742 1.394 . S
C743 C744 1.516 . S
C744 C743 1.516 . S
C744 C745 1.502 . S
C744 C746 1.561 . S
C744 C747 1.526 . S
C745 H729 0.959 . S
C745 H730 0.959 . S
C745 H731 0.961 . S
C745 C744 1.502 . S
C746 H732 0.960 . S
C746 H733 0.961 . S
C746 H734 0.959 . S
C746 C744 1.561 . S
C747 C744 1.526 . S
C747 C748 1.396 . S
C747 C752 1.390 . S
C748 C742 1.465 . S
C748 C747 1.396 . S
C748 C749 1.399 . S
C749 H735 0.929 . S
C749 C748 1.399 . S
C749 C750 1.385 . S
C750 H736 0.931 . S
C750 C749 1.385 . S
C750 C751 1.389 . S
C751 C750 1.389 . S
C751 C752 1.387 . S
C752 H737 0.930 . S
C752 C747 1.390 . S
C752 C751 1.387 . S
H753 C765 0.930 . S
H754 C767 0.930 . S
H755 C768 0.930 . S
H756 C772 0.959 . S
H757 C772 0.959 . S
H758 C772 0.961 . S
H759 C773 0.960 . S
H760 C773 0.961 . S
H761 C773 0.959 . S
H762 C776 0.929 . S
H763 C777 0.931 . S
H764 C779 0.930 . S
C765 H753 0.930 . S
C765 C766 1.399 . S
C765 C770 1.399 . S
C766 C765 1.399 . S
C766 C767 1.376 . S
C767 H754 0.930 . S
C767 C766 1.376 . S
C767 C768 1.388 . S
C768 H755 0.930 . S
C768 C767 1.388 . S
C768 C769 1.390 . S
C769 C768 1.390 . S
C769 C770 1.394 . S
C769 C775 1.465 . S
C770 C765 1.399 . S
C770 C769 1.394 . S
C770 C771 1.516 . S
C771 C770 1.516 . S
C771 C772 1.502 . S
C771 C773 1.561 . S
C771 C774 1.526 . S
C772 H756 0.959 . S
C772 H757 0.959 . S
C772 H758 0.961 . S
C772 C771 1.502 . S
C773 H759 0.960 . S
C773 H760 0.961 . S
C773 H761 0.959 . S
C773 C771 1.561 . S
C774 C771 1.526 . S
C774 C775 1.396 . S
C774 C779 1.390 . S
C775 C769 1.465 . S
C775 C774 1.396 . S
C775 C776 1.399 . S
C776 H762 0.929 . S
C776 C775 1.399 . S
C776 C777 1.385 . S
C777 H763 0.931 . S
C777 C776 1.385 . S
C777 C778 1.389 . S
C778 C777 1.389 . S
C778 C779 1.387 . S
C779 H764 0.930 . S
C779 C774 1.390 . S
C779 C778 1.387 . S
H780 C792 0.930 . S
H781 C794 0.930 . S
H782 C795 0.930 . S
H783 C799 0.959 . S
H784 C799 0.959 . S
H785 C799 0.961 . S
H786 C800 0.960 . S
H787 C800 0.961 . S
H788 C800 0.959 . S
H789 C803 0.929 . S
H790 C804 0.931 . S
H791 C806 0.930 . S
C792 H780 0.930 . S
C792 C793 1.399 . S
C792 C797 1.399 . S
C793 C792 1.399 . S
C793 C794 1.376 . S
C794 H781 0.930 . S
C794 C793 1.376 . S
C794 C795 1.388 . S
C795 H782 0.930 . S
C795 C794 1.388 . S
C795 C796 1.390 . S
C796 C795 1.390 . S
C796 C797 1.394 . S
C796 C802 1.465 . S
C797 C792 1.399 . S
C797 C796 1.394 . S
C797 C798 1.516 . S
C798 C797 1.516 . S
C798 C799 1.502 . S
C798 C800 1.561 . S
C798 C801 1.526 . S
C799 H783 0.959 . S
C799 H784 0.959 . S
C799 H785 0.961 . S
C799 C798 1.502 . S
C800 H786 0.960 . S
C800 H787 0.961 . S
C800 H788 0.959 . S
C800 C798 1.561 . S
C801 C798 1.526 . S
C801 C802 1.396 . S
C801 C806 1.390 . S
C802 C796 1.465 . S
C802 C801 1.396 . S
C802 C803 1.399 . S
C803 H789 0.929 . S
C803 C802 1.399 . S
C803 C804 1.385 . S
C804 H790 0.931 . S
C804 C803 1.385 . S
C804 C805 1.389 . S
C805 C804 1.389 . S
C805 C806 1.387 . S
C806 H791 0.930 . S
C806 C801 1.390 . S
C806 C805 1.387 . S
H807 C819 0.930 . S
H808 C821 0.930 . S
H809 C822 0.930 . S
H810 C826 0.959 . S
H811 C826 0.959 . S
H812 C826 0.961 . S
H813 C827 0.960 . S
H814 C827 0.961 . S
H815 C827 0.959 . S
H816 C830 0.929 . S
H817 C831 0.931 . S
H818 C833 0.930 . S
C819 H807 0.930 . S
C819 C820 1.399 . S
C819 C824 1.399 . S
C820 C819 1.399 . S
C820 C821 1.376 . S
C821 H808 0.930 . S
C821 C820 1.376 . S
C821 C822 1.388 . S
C822 H809 0.930 . S
C822 C821 1.388 . S
C822 C823 1.390 . S
C823 C822 1.390 . S
C823 C824 1.394 . S
C823 C829 1.465 . S
C824 C819 1.399 . S
C824 C823 1.394 . S
C824 C825 1.516 . S
C825 C824 1.516 . S
C825 C826 1.502 . S
C825 C827 1.561 . S
C825 C828 1.526 . S
C826 H810 0.959 . S
C826 H811 0.959 . S
C826 H812 0.961 . S
C826 C825 1.502 . S
C827 H813 0.960 . S
C827 H814 0.961 . S
C827 H815 0.959 . S
C827 C825 1.561 . S
C828 C825 1.526 . S
C828 C829 1.396 . S
C828 C833 1.390 . S
C829 C823 1.465 . S
C829 C828 1.396 . S
C829 C830 1.399 . S
C830 H816 0.929 . S
C830 C829 1.399 . S
C830 C831 1.385 . S
C831 H817 0.931 . S
C831 C830 1.385 . S
C831 C832 1.389 . S
C832 C831 1.389 . S
C832 C833 1.387 . S
C833 H818 0.930 . S
C833 C828 1.390 . S
C833 C832 1.387 . S
H834 C846 0.930 . S
H835 C848 0.930 . S
H836 C849 0.930 . S
H837 C853 0.959 . S
H838 C853 0.959 . S
H839 C853 0.961 . S
H840 C854 0.960 . S
H841 C854 0.961 . S
H842 C854 0.959 . S
H843 C857 0.929 . S
H844 C858 0.931 . S
H845 C860 0.930 . S
C846 H834 0.930 . S
C846 C847 1.399 . S
C846 C851 1.399 . S
C847 C846 1.399 . S
C847 C848 1.376 . S
C848 H835 0.930 . S
C848 C847 1.376 . S
C848 C849 1.388 . S
C849 H836 0.930 . S
C849 C848 1.388 . S
C849 C850 1.390 . S
C850 C849 1.390 . S
C850 C851 1.394 . S
C850 C856 1.465 . S
C851 C846 1.399 . S
C851 C850 1.394 . S
C851 C852 1.516 . S
C852 C851 1.516 . S
C852 C853 1.502 . S
C852 C854 1.561 . S
C852 C855 1.526 . S
C853 H837 0.959 . S
C853 H838 0.959 . S
C853 H839 0.961 . S
C853 C852 1.502 . S
C854 H840 0.960 . S
C854 H841 0.961 . S
C854 H842 0.959 . S
C854 C852 1.561 . S
C855 C852 1.526 . S
C855 C856 1.396 . S
C855 C860 1.390 . S
C856 C850 1.465 . S
C856 C855 1.396 . S
C856 C857 1.399 . S
C857 H843 0.929 . S
C857 C856 1.399 . S
C857 C858 1.385 . S
C858 H844 0.931 . S
C858 C857 1.385 . S
C858 C859 1.389 . S
C859 C858 1.389 . S
C859 C860 1.387 . S
C860 H845 0.930 . S
C860 C855 1.390 . S
C860 C859 1.387 . S
H861 C873 0.930 . S
H862 C875 0.930 . S
H863 C876 0.930 . S
H864 C880 0.959 . S
H865 C880 0.959 . S
H866 C880 0.961 . S
H867 C881 0.960 . S
H868 C881 0.961 . S
H869 C881 0.959 . S
H870 C884 0.929 . S
H871 C885 0.931 . S
H872 C887 0.930 . S
C873 H861 0.930 . S
C873 C874 1.399 . S
C873 C878 1.399 . S
C874 C873 1.399 . S
C874 C875 1.376 . S
C875 H862 0.930 . S
C875 C874 1.376 . S
C875 C876 1.388 . S
C876 H863 0.930 . S
C876 C875 1.388 . S
C876 C877 1.390 . S
C877 C876 1.390 . S
C877 C878 1.394 . S
C877 C883 1.465 . S
C878 C873 1.399 . S
C878 C877 1.394 . S
C878 C879 1.516 . S
C879 C878 1.516 . S
C879 C880 1.502 . S
C879 C881 1.561 . S
C879 C882 1.526 . S
C880 H864 0.959 . S
C880 H865 0.959 . S
C880 H866 0.961 . S
C880 C879 1.502 . S
C881 H867 0.960 . S
C881 H868 0.961 . S
C881 H869 0.959 . S
C881 C879 1.561 . S
C882 C879 1.526 . S
C882 C883 1.396 . S
C882 C887 1.390 . S
C883 C877 1.465 . S
C883 C882 1.396 . S
C883 C884 1.399 . S
C884 H870 0.929 . S
C884 C883 1.399 . S
C884 C885 1.385 . S
C885 H871 0.931 . S
C885 C884 1.385 . S
C885 C886 1.389 . S
C886 C885 1.389 . S
C886 C887 1.387 . S
C887 H872 0.930 . S
C887 C882 1.390 . S
C887 C886 1.387 . S
H888 C900 0.930 . S
H889 C902 0.930 . S
H890 C903 0.930 . S
H891 C907 0.959 . S
H892 C907 0.959 . S
H893 C907 0.961 . S
H894 C908 0.960 . S
H895 C908 0.961 . S
H896 C908 0.959 . S
H897 C911 0.929 . S
H898 C912 0.931 . S
H899 C914 0.930 . S
C900 H888 0.930 . S
C900 C901 1.399 . S
C900 C905 1.399 . S
C901 C900 1.399 . S
C901 C902 1.376 . S
C902 H889 0.930 . S
C902 C901 1.376 . S
C902 C903 1.388 . S
C903 H890 0.930 . S
C903 C902 1.388 . S
C903 C904 1.390 . S
C904 C903 1.390 . S
C904 C905 1.394 . S
C904 C910 1.465 . S
C905 C900 1.399 . S
C905 C904 1.394 . S
C905 C906 1.516 . S
C906 C905 1.516 . S
C906 C907 1.502 . S
C906 C908 1.561 . S
C906 C909 1.526 . S
C907 H891 0.959 . S
C907 H892 0.959 . S
C907 H893 0.961 . S
C907 C906 1.502 . S
C908 H894 0.960 . S
C908 H895 0.961 . S
C908 H896 0.959 . S
C908 C906 1.561 . S
C909 C906 1.526 . S
C909 C910 1.396 . S
C909 C914 1.390 . S
C910 C904 1.465 . S
C910 C909 1.396 . S
C910 C911 1.399 . S
C911 H897 0.929 . S
C911 C910 1.399 . S
C911 C912 1.385 . S
C912 H898 0.931 . S
C912 C911 1.385 . S
C912 C913 1.389 . S
C913 C912 1.389 . S
C913 C914 1.387 . S
C914 H899 0.930 . S
C914 C909 1.390 . S
C914 C913 1.387 . S
H915 C927 0.930 . S
H916 C929 0.930 . S
H917 C930 0.930 . S
H918 C934 0.959 . S
H919 C934 0.959 . S
H920 C934 0.961 . S
H921 C935 0.960 . S
H922 C935 0.961 . S
H923 C935 0.959 . S
H924 C938 0.929 . S
H925 C939 0.931 . S
H926 C941 0.930 . S
C927 H915 0.930 . S
C927 C928 1.399 . S
C927 C932 1.399 . S
C928 C927 1.399 . S
C928 C929 1.376 . S
C929 H916 0.930 . S
C929 C928 1.376 . S
C929 C930 1.388 . S
C930 H917 0.930 . S
C930 C929 1.388 . S
C930 C931 1.390 . S
C931 C930 1.390 . S
C931 C932 1.394 . S
C931 C937 1.465 . S
C932 C927 1.399 . S
C932 C931 1.394 . S
C932 C933 1.516 . S
C933 C932 1.516 . S
C933 C934 1.502 . S
C933 C935 1.561 . S
C933 C936 1.526 . S
C934 H918 0.959 . S
C934 H919 0.959 . S
C934 H920 0.961 . S
C934 C933 1.502 . S
C935 H921 0.960 . S
C935 H922 0.961 . S
C935 H923 0.959 . S
C935 C933 1.561 . S
C936 C933 1.526 . S
C936 C937 1.396 . S
C936 C941 1.390 . S
C937 C931 1.465 . S
C937 C936 1.396 . S
C937 C938 1.399 . S
C938 H924 0.929 . S
C938 C937 1.399 . S
C938 C939 1.385 . S
C939 H925 0.931 . S
C939 C938 1.385 . S
C939 C940 1.389 . S
C940 C939 1.389 . S
C940 C941 1.387 . S
C941 H926 0.930 . S
C941 C936 1.390 . S
C941 C940 1.387 . S
H942 C954 0.930 . S
H943 C956 0.930 . S
H944 C957 0.930 . S
H945 C961 0.959 . S
H946 C961 0.959 . S
H947 C961 0.961 . S
H948 C962 0.960 . S
H949 C962 0.961 . S
H950 C962 0.959 . S
H951 C965 0.929 . S
H952 C966 0.931 . S
H953 C968 0.930 . S
C954 H942 0.930 . S
C954 C955 1.399 . S
C954 C959 1.399 . S
C955 C954 1.399 . S
C955 C956 1.376 . S
C956 H943 0.930 . S
C956 C955 1.376 . S
C956 C957 1.388 . S
C957 H944 0.930 . S
C957 C956 1.388 . S
C957 C958 1.390 . S
C958 C957 1.390 . S
C958 C959 1.394 . S
C958 C964 1.465 . S
C959 C954 1.399 . S
C959 C958 1.394 . S
C959 C960 1.516 . S
C960 C959 1.516 . S
C960 C961 1.502 . S
C960 C962 1.561 . S
C960 C963 1.526 . S
C961 H945 0.959 . S
C961 H946 0.959 . S
C961 H947 0.961 . S
C961 C960 1.502 . S
C962 H948 0.960 . S
C962 H949 0.961 . S
C962 H950 0.959 . S
C962 C960 1.561 . S
C963 C960 1.526 . S
C963 C964 1.396 . S
C963 C968 1.390 . S
C964 C958 1.465 . S
C964 C963 1.396 . S
C964 C965 1.399 . S
C965 H951 0.929 . S
C965 C964 1.399 . S
C965 C966 1.385 . S
C966 H952 0.931 . S
C966 C965 1.385 . S
C966 C967 1.389 . S
C967 C966 1.389 . S
C967 C968 1.387 . S
C968 H953 0.930 . S
C968 C963 1.390 . S
C968 C967 1.387 . S
H969 C981 0.930 . S
H970 C983 0.930 . S
H971 C984 0.930 . S
H972 C988 0.959 . S
H973 C988 0.959 . S
H974 C988 0.961 . S
H975 C989 0.960 . S
H976 C989 0.961 . S
H977 C989 0.959 . S
H978 C992 0.929 . S
H979 C993 0.931 . S
H980 C995 0.930 . S
C981 H969 0.930 . S
C981 C982 1.399 . S
C981 C986 1.399 . S
C982 C981 1.399 . S
C982 C983 1.376 . S
C983 H970 0.930 . S
C983 C982 1.376 . S
C983 C984 1.388 . S
C984 H971 0.930 . S
C984 C983 1.388 . S
C984 C985 1.390 . S
C985 C984 1.390 . S
C985 C986 1.394 . S
C985 C991 1.465 . S
C986 C981 1.399 . S
C986 C985 1.394 . S
C986 C987 1.516 . S
C987 C986 1.516 . S
C987 C988 1.502 . S
C987 C989 1.561 . S
C987 C990 1.526 . S
C988 H972 0.959 . S
C988 H973 0.959 . S
C988 H974 0.961 . S
C988 C987 1.502 . S
C989 H975 0.960 . S
C989 H976 0.961 . S
C989 H977 0.959 . S
C989 C987 1.561 . S
C990 C987 1.526 . S
C990 C991 1.396 . S
C990 C995 1.390 . S
C991 C985 1.465 . S
C991 C990 1.396 . S
C991 C992 1.399 . S
C992 H978 0.929 . S
C992 C991 1.399 . S
C992 C993 1.385 . S
C993 H979 0.931 . S
C993 C992 1.385 . S
C993 C994 1.389 . S
C994 C993 1.389 . S
C994 C995 1.387 . S
C995 H980 0.930 . S
C995 C990 1.390 . S
C995 C994 1.387 . S
H996 C1008 0.930 . S
H997 C1010 0.930 . S
H998 C1011 0.930 . S
H999 C1015 0.959 . S
H1000 C1015 0.959 . S
H1001 C1015 0.961 . S
H1002 C1016 0.960 . S
H1003 C1016 0.961 . S
H1004 C1016 0.959 . S
H1005 C1019 0.929 . S
H1006 C1020 0.931 . S
H1007 C1022 0.930 . S
C1008 H996 0.930 . S
C1008 C1009 1.399 . S
C1008 C1013 1.399 . S
C1009 C1008 1.399 . S
C1009 C1010 1.376 . S
C1010 H997 0.930 . S
C1010 C1009 1.376 . S
C1010 C1011 1.388 . S
C1011 H998 0.930 . S
C1011 C1010 1.388 . S
C1011 C1012 1.390 . S
C1012 C1011 1.390 . S
C1012 C1013 1.394 . S
C1012 C1018 1.465 . S
C1013 C1008 1.399 . S
C1013 C1012 1.394 . S
C1013 C1014 1.516 . S
C1014 C1013 1.516 . S
C1014 C1015 1.502 . S
C1014 C1016 1.561 . S
C1014 C1017 1.526 . S
C1015 H999 0.959 . S
C1015 H1000 0.959 . S
C1015 H1001 0.961 . S
C1015 C1014 1.502 . S
C1016 H1002 0.960 . S
C1016 H1003 0.961 . S
C1016 H1004 0.959 . S
C1016 C1014 1.561 . S
C1017 C1014 1.526 . S
C1017 C1018 1.396 . S
C1017 C1022 1.390 . S
C1018 C1012 1.465 . S
C1018 C1017 1.396 . S
C1018 C1019 1.399 . S
C1019 H1005 0.929 . S
C1019 C1018 1.399 . S
C1019 C1020 1.385 . S
C1020 H1006 0.931 . S
C1020 C1019 1.385 . S
C1020 C1021 1.389 . S
C1021 C1020 1.389 . S
C1021 C1022 1.387 . S
C1022 H1007 0.930 . S
C1022 C1017 1.390 . S
C1022 C1021 1.387 . S
H1023 C1035 0.930 . S
H1024 C1037 0.930 . S
H1025 C1038 0.930 . S
H1026 C1042 0.959 . S
H1027 C1042 0.959 . S
H1028 C1042 0.961 . S
H1029 C1043 0.960 . S
H1030 C1043 0.961 . S
H1031 C1043 0.959 . S
H1032 C1046 0.929 . S
H1033 C1047 0.931 . S
H1034 C1049 0.930 . S
C1035 H1023 0.930 . S
C1035 C1036 1.399 . S
C1035 C1040 1.399 . S
C1036 C1035 1.399 . S
C1036 C1037 1.376 . S
C1037 H1024 0.930 . S
C1037 C1036 1.376 . S
C1037 C1038 1.388 . S
C1038 H1025 0.930 . S
C1038 C1037 1.388 . S
C1038 C1039 1.390 . S
C1039 C1038 1.390 . S
C1039 C1040 1.394 . S
C1039 C1045 1.465 . S
C1040 C1035 1.399 . S
C1040 C1039 1.394 . S
C1040 C1041 1.516 . S
C1041 C1040 1.516 . S
C1041 C1042 1.502 . S
C1041 C1043 1.561 . S
C1041 C1044 1.526 . S
C1042 H1026 0.959 . S
C1042 H1027 0.959 . S
C1042 H1028 0.961 . S
C1042 C1041 1.502 . S
C1043 H1029 0.960 . S
C1043 H1030 0.961 . S
C1043 H1031 0.959 . S
C1043 C1041 1.561 . S
C1044 C1041 1.526 . S
C1044 C1045 1.396 . S
C1044 C1049 1.390 . S
C1045 C1039 1.465 . S
C1045 C1044 1.396 . S
C1045 C1046 1.399 . S
C1046 H1032 0.929 . S
C1046 C1045 1.399 . S
C1046 C1047 1.385 . S
C1047 H1033 0.931 . S
C1047 C1046 1.385 . S
C1047 C1048 1.389 . S
C1048 C1047 1.389 . S
C1048 C1049 1.387 . S
C1049 H1034 0.930 . S
C1049 C1044 1.390 . S
C1049 C1048 1.387 . S
H1050 C1062 0.930 . S
H1051 C1064 0.930 . S
H1052 C1065 0.930 . S
H1053 C1069 0.959 1_554 S
H1054 C1069 0.959 . S
H1055 C1069 0.961 . S
H1056 C1070 0.960 . S
H1057 C1070 0.961 . S
H1058 C1070 0.959 . S
H1059 C1073 0.929 . S
H1060 C1074 0.931 . S
H1061 C1076 0.930 . S
C1062 H1050 0.930 . S
C1062 C1063 1.399 . S
C1062 C1067 1.399 . S
C1063 C1062 1.399 . S
C1063 C1064 1.376 . S
C1064 H1051 0.930 . S
C1064 C1063 1.376 . S
C1064 C1065 1.388 . S
C1065 H1052 0.930 . S
C1065 C1064 1.388 . S
C1065 C1066 1.390 . S
C1066 C1065 1.390 . S
C1066 C1067 1.394 . S
C1066 C1072 1.465 1_556 S
C1067 C1062 1.399 . S
C1067 C1066 1.394 . S
C1067 C1068 1.516 . S
C1068 C1067 1.516 . S
C1068 C1069 1.502 . S
C1068 C1070 1.561 . S
C1068 C1071 1.526 1_556 S
C1069 H1053 0.959 1_556 S
C1069 H1054 0.959 . S
C1069 H1055 0.961 . S
C1069 C1068 1.502 . S
C1070 H1056 0.960 . S
C1070 H1057 0.961 . S
C1070 H1058 0.959 . S
C1070 C1068 1.561 . S
C1071 C1068 1.526 1_554 S
C1071 C1072 1.396 . S
C1071 C1076 1.390 . S
C1072 C1066 1.465 1_554 S
C1072 C1071 1.396 . S
C1072 C1073 1.399 . S
C1073 H1059 0.929 . S
C1073 C1072 1.399 . S
C1073 C1074 1.385 . S
C1074 H1060 0.931 . S
C1074 C1073 1.385 . S
C1074 C1075 1.389 . S
C1075 C1074 1.389 . S
C1075 C1076 1.387 . S
C1076 H1061 0.930 . S
C1076 C1071 1.390 . S
C1076 C1075 1.387 . S
H1077 C1089 0.930 . S
H1078 C1091 0.930 . S
H1079 C1092 0.935 . S
H1080 C1096 0.959 . S
H1081 C1096 0.959 . S
H1082 C1096 0.961 . S
H1083 C1097 0.960 . S
H1084 C1097 0.961 . S
H1085 C1097 0.965 . S
H1086 C1100 0.929 . S
H1087 C1101 0.931 . S
H1088 C1103 0.930 . S
C1089 H1077 0.930 . S
C1089 C1090 1.399 . S
C1089 C1094 1.399 . S
C1090 C1089 1.399 . S
C1090 C1091 1.376 . S
C1091 H1078 0.930 . S
C1091 C1090 1.376 . S
C1091 C1092 1.382 1_455 S
C1092 H1079 0.935 . S
C1092 C1091 1.382 1_655 S
C1092 C1093 1.395 1_655 S
C1093 C1092 1.395 1_455 S
C1093 C1094 1.401 . S
C1093 C1099 1.456 1_455 S
C1094 C1089 1.399 . S
C1094 C1093 1.401 . S
C1094 C1095 1.516 . S
C1095 C1094 1.516 . S
C1095 C1096 1.502 . S
C1095 C1097 1.561 . S
C1095 C1098 1.526 1_455 S
C1096 H1080 0.959 . S
C1096 H1081 0.959 . S
C1096 H1082 0.961 . S
C1096 C1095 1.502 . S
C1097 H1083 0.960 . S
C1097 H1084 0.961 . S
C1097 H1085 0.965 . S
C1097 C1095 1.561 . S
C1098 C1095 1.526 1_655 S
C1098 C1099 1.396 . S
C1098 C1103 1.390 . S
C1099 C1093 1.456 1_655 S
C1099 C1098 1.396 . S
C1099 C1100 1.399 . S
C1100 H1086 0.929 . S
C1100 C1099 1.399 . S
C1100 C1101 1.385 . S
C1101 H1087 0.931 . S
C1101 C1100 1.385 . S
C1101 C1102 1.389 . S
C1102 C1101 1.389 . S
C1102 C1103 1.387 . S
C1103 H1088 0.930 . S
C1103 C1098 1.390 . S
C1103 C1102 1.387 . S
H1104 C1116 0.930 . S
H1105 C1118 0.930 . S
H1106 C1119 0.930 . S
H1107 C1123 0.959 . S
H1108 C1123 0.959 . S
H1109 C1123 0.961 . S
H1110 C1124 0.960 . S
H1111 C1124 0.961 . S
H1112 C1124 0.959 . S
H1113 C1127 0.902 1_554 S
H1114 C1128 0.931 . S
H1115 C1130 0.930 . S
C1116 H1104 0.930 . S
C1116 C1117 1.399 . S
C1116 C1121 1.399 . S
C1117 C1116 1.399 . S
C1117 C1118 1.376 . S
C1118 H1105 0.930 . S
C1118 C1117 1.376 . S
C1118 C1119 1.388 1_565 S
C1119 H1106 0.930 . S
C1119 C1118 1.388 1_545 S
C1119 C1120 1.391 . S
C1120 C1119 1.391 . S
C1120 C1121 1.380 1_545 S
C1120 C1126 1.476 1_554 S
C1121 C1116 1.399 . S
C1121 C1120 1.380 1_565 S
C1121 C1122 1.516 1_554 S
C1122 C1121 1.516 1_556 S
C1122 C1123 1.502 . S
C1122 C1124 1.561 . S
C1122 C1125 1.526 1_565 S
C1123 H1107 0.959 . S
C1123 H1108 0.959 . S
C1123 H1109 0.961 . S
C1123 C1122 1.502 . S
C1124 H1110 0.960 . S
C1124 H1111 0.961 . S
C1124 H1112 0.959 . S
C1124 C1122 1.561 . S
C1125 C1122 1.526 1_545 S
C1125 C1126 1.396 . S
C1125 C1130 1.390 . S
C1126 C1120 1.476 1_556 S
C1126 C1125 1.396 . S
C1126 C1127 1.400 . S
C1127 H1113 0.902 1_556 S
C1127 C1126 1.400 . S
C1127 C1128 1.412 . S
C1128 H1114 0.931 . S
C1128 C1127 1.412 . S
C1128 C1129 1.389 . S
C1129 C1128 1.389 . S
C1129 C1130 1.387 . S
C1130 H1115 0.930 . S
C1130 C1125 1.390 . S
C1130 C1129 1.387 . S
H1131 C1143 0.930 . S
H1132 C1145 0.930 . S
H1133 C1146 0.930 . S
H1134 C1150 0.959 . S
H1135 C1150 0.959 . S
H1136 C1150 0.961 . S
H1137 C1151 0.960 . S
H1138 C1151 0.961 . S
H1139 C1151 0.959 . S
H1140 C1154 0.929 . S
H1141 C1155 0.931 . S
H1142 C1157 0.930 . S
C1143 H1131 0.930 . S
C1143 C1144 1.399 . S
C1143 C1148 1.399 . S
C1144 C1143 1.399 . S
C1144 C1145 1.376 . S
C1145 H1132 0.930 . S
C1145 C1144 1.376 . S
C1145 C1146 1.388 . S
C1146 H1133 0.930 . S
C1146 C1145 1.388 . S
C1146 C1147 1.390 . S
C1147 C1146 1.390 . S
C1147 C1148 1.394 . S
C1147 C1153 1.465 . S
C1148 C1143 1.399 . S
C1148 C1147 1.394 . S
C1148 C1149 1.516 . S
C1149 C1148 1.516 . S
C1149 C1150 1.502 . S
C1149 C1151 1.561 . S
C1149 C1152 1.526 . S
C1150 H1134 0.959 . S
C1150 H1135 0.959 . S
C1150 H1136 0.961 . S
C1150 C1149 1.502 . S
C1151 H1137 0.960 . S
C1151 H1138 0.961 . S
C1151 H1139 0.959 . S
C1151 C1149 1.561 . S
C1152 C1149 1.526 . S
C1152 C1153 1.396 . S
C1152 C1157 1.390 . S
C1153 C1147 1.465 . S
C1153 C1152 1.396 . S
C1153 C1154 1.399 . S
C1154 H1140 0.929 . S
C1154 C1153 1.399 . S
C1154 C1155 1.385 . S
C1155 H1141 0.931 . S
C1155 C1154 1.385 . S
C1155 C1156 1.389 . S
C1156 C1155 1.389 . S
C1156 C1157 1.387 . S
C1157 H1142 0.930 . S
C1157 C1152 1.390 . S
C1157 C1156 1.387 . S
H1158 C1170 0.930 . S
H1159 C1172 0.930 . S
H1160 C1173 0.930 . S
H1161 C1177 0.959 . S
H1162 C1177 0.959 1_455 S
H1163 C1177 0.961 1_556 S
H1164 C1178 0.960 . S
H1165 C1178 0.961 . S
H1166 C1178 0.959 . S
H1167 C1181 0.929 . S
H1168 C1182 0.931 . S
H1169 C1184 0.930 . S
C1170 H1158 0.930 . S
C1170 C1171 1.399 . S
C1170 C1175 1.399 . S
C1171 C1170 1.399 . S
C1171 C1172 1.376 . S
C1172 H1159 0.930 . S
C1172 C1171 1.376 . S
C1172 C1173 1.388 . S
C1173 H1160 0.930 . S
C1173 C1172 1.388 . S
C1173 C1174 1.390 . S
C1174 C1173 1.390 . S
C1174 C1175 1.394 . S
C1174 C1180 1.465 1_656 S
C1175 C1170 1.399 . S
C1175 C1174 1.394 . S
C1175 C1176 1.516 1_655 S
C1176 C1175 1.516 1_455 S
C1176 C1177 1.502 1_456 S
C1176 C1178 1.561 . S
C1176 C1179 1.526 1_556 S
C1177 H1161 0.959 . S
C1177 H1162 0.959 1_655 S
C1177 H1163 0.961 1_554 S
C1177 C1176 1.502 1_654 S
C1178 H1164 0.960 . S
C1178 H1165 0.961 . S
C1178 H1166 0.959 . S
C1178 C1176 1.561 . S
C1179 C1176 1.526 1_554 S
C1179 C1180 1.396 . S
C1179 C1184 1.390 . S
C1180 C1174 1.465 1_454 S
C1180 C1179 1.396 . S
C1180 C1181 1.399 . S
C1181 H1167 0.929 . S
C1181 C1180 1.399 . S
C1181 C1182 1.385 . S
C1182 H1168 0.931 . S
C1182 C1181 1.385 . S
C1182 C1183 1.389 . S
C1183 C1182 1.389 . S
C1183 C1184 1.387 . S
C1184 H1169 0.930 . S
C1184 C1179 1.390 . S
C1184 C1183 1.387 . S
H1185 C1197 0.930 . S
H1186 C1199 0.930 . S
H1187 C1200 0.930 . S
H1188 C1204 0.959 . S
H1189 C1204 0.959 . S
H1190 C1204 0.961 . S
H1191 C1205 0.960 . S
H1192 C1205 0.961 . S
H1193 C1205 0.959 . S
H1194 C1208 0.929 . S
H1195 C1209 0.931 . S
H1196 C1211 0.930 . S
C1197 H1185 0.930 . S
C1197 C1198 1.399 . S
C1197 C1202 1.399 . S
C1198 C1197 1.399 . S
C1198 C1199 1.376 . S
C1199 H1186 0.930 . S
C1199 C1198 1.376 . S
C1199 C1200 1.388 1_565 S
C1200 H1187 0.930 . S
C1200 C1199 1.388 1_545 S
C1200 C1201 1.390 1_545 S
C1201 C1200 1.390 1_565 S
C1201 C1202 1.394 . S
C1201 C1207 1.465 1_565 S
C1202 C1197 1.399 . S
C1202 C1201 1.394 . S
C1202 C1203 1.516 . S
C1203 C1202 1.516 . S
C1203 C1204 1.502 . S
C1203 C1205 1.561 . S
C1203 C1206 1.526 1_565 S
C1204 H1188 0.959 . S
C1204 H1189 0.959 . S
C1204 H1190 0.961 . S
C1204 C1203 1.502 . S
C1205 H1191 0.960 . S
C1205 H1192 0.961 . S
C1205 H1193 0.959 . S
C1205 C1203 1.561 . S
C1206 C1203 1.526 1_545 S
C1206 C1207 1.396 . S
C1206 C1211 1.390 . S
C1207 C1201 1.465 1_545 S
C1207 C1206 1.396 . S
C1207 C1208 1.399 . S
C1208 H1194 0.929 . S
C1208 C1207 1.399 . S
C1208 C1209 1.385 . S
C1209 H1195 0.931 . S
C1209 C1208 1.385 . S
C1209 C1210 1.389 . S
C1210 C1209 1.389 . S
C1210 C1211 1.387 . S
C1211 H1196 0.930 . S
C1211 C1206 1.390 . S
C1211 C1210 1.387 . S
C253 C86 1.357 . S
C265 C19 1.409 . S
C280 C106 1.350 . S
C292 C39 1.402 . S
C307 C59 1.434 . S
C319 C6 1.399 . S
C334 C79 1.373 . S
C346 C26 1.363 . S
C361 C99 1.434 . S
C373 C46 1.404 . S
C388 C66 1.345 . S
C400 C119 1.373 . S
C415 C166 1.338 . S
C427 C139 1.376 . S
C442 C159 1.371 . S
C454 C186 1.351 . S
C469 C206 1.404 . S
C481 C179 1.399 . S
C496 C199 1.435 . S
C508 C226 1.405 . S
C523 C219 1.372 . S
C535 C126 1.357 . S
C550 C146 1.413 . S
C562 C239 1.408 . S
C577 C96 1.586 . S
C589 C8 1.529 . S
C604 C28 1.505 . S
C616 C116 1.570 . S
C631 C48 1.500 . S
C643 C16 1.568 . S
C658 C68 1.523 . S
C670 C36 1.578 . S
C685 C56 1.589 . S
C697 C88 1.542 . S
C712 C76 1.585 . S
C724 C108 1.525 . S
C739 C176 1.589 . S
C751 C128 1.539 . S
C766 C148 1.511 . S
C778 C196 1.572 . S
C793 C168 1.483 . S
C805 C216 1.567 . S
C820 C236 1.589 . S
C832 C188 1.541 . S
C847 C208 1.522 . S
C859 C136 1.583 . S
C874 C156 1.586 . S
C886 C228 1.531 . S
C901 C209 1.656 . S
C913 C9 1.693 . S
C928 C29 1.671 . S
C940 C229 1.720 . S
C955 C49 1.722 . S
C967 C129 1.700 . S
C982 C69 1.692 . S
C994 C149 1.724 . S
C1009 C89 1.661 . S
C1021 C169 1.712 . S
C1036 C189 1.662 . S
C1048 C109 1.713 . S
C1063 C181 1.838 . S
C1075 C1 1.830 . S
C1090 C201 1.813 . S
C1102 C21 1.842 . S
C1117 C41 1.808 . S
C1129 C221 1.839 . S
C1144 C61 1.816 . S
C1156 C121 1.843 . S
C1171 C141 1.832 . S
C1183 C81 1.836 . S
C1198 C161 1.806 . S
C1210 C101 1.833 . S
