# Generated by pormake.
# Topology snk, (6)-cn, num edge types: 1
# Building blocks:
#     Node 0, Type 0, BuildingBlock: UKALOJ_clean_sbu_0, # of connection points: 6
#     Node 1, Type 0, BuildingBlock: UKALOJ_clean_sbu_0, # of connection points: 6
#     Node 2, Type 0, BuildingBlock: UKALOJ_clean_sbu_0, # of connection points: 6
#     Node 3, Type 0, BuildingBlock: UKALOJ_clean_sbu_0, # of connection points: 6
#     Node 4, Type 0, BuildingBlock: UKALOJ_clean_sbu_0, # of connection points: 6
#     Node 5, Type 0, BuildingBlock: UKALOJ_clean_sbu_0, # of connection points: 6
#     Node 6, Type 0, BuildingBlock: UKALOJ_clean_sbu_0, # of connection points: 6
#     Node 7, Type 0, BuildingBlock: UKALOJ_clean_sbu_0, # of connection points: 6
#     Edge 8, Type (0, 0), None
#     Edge 9, Type (0, 0), None
#     Edge 10, Type (0, 0), None
#     Edge 11, Type (0, 0), None
#     Edge 12, Type (0, 0), None
#     Edge 13, Type (0, 0), None
#     Edge 14, Type (0, 0), None
#     Edge 15, Type (0, 0), None
#     Edge 16, Type (0, 0), None
#     Edge 17, Type (0, 0), None
#     Edge 18, Type (0, 0), None
#     Edge 19, Type (0, 0), None
#     Edge 20, Type (0, 0), None
#     Edge 21, Type (0, 0), None
#     Edge 22, Type (0, 0), None
#     Edge 23, Type (0, 0), None
#     Edge 24, Type (0, 0), None
#     Edge 25, Type (0, 0), None
#     Edge 26, Type (0, 0), None
#     Edge 27, Type (0, 0), None
#     Edge 28, Type (0, 0), None
#     Edge 29, Type (0, 0), None
#     Edge 30, Type (0, 0), None
#     Edge 31, Type (0, 0), None
# Relax obj value: 0.448
# Max RMSD: 0.146
# Mean RMSD: 0.145
data_MOF--net-snk--node1-UKALOJ_clean_sbu_0--edge1-none
_symmetry_space_group_name_H-M    P1
_symmetry_Int_Tables_number       1
_symmetry_cell_setting            triclinic
loop_
_symmetry_equiv_pos_as_xyz
'x, y, z'
_cell_length_a     24.666461
_cell_length_b     24.830534
_cell_length_c     7.0948934
_cell_angle_alpha  77.405548
_cell_angle_beta   77.465835
_cell_angle_gamma 97.033417
loop_
_atom_site_label
_atom_site_type_symbol
_atom_site_fract_x
_atom_site_fract_y
_atom_site_fract_z
_atom_type_partial_charge
Zn0 Zn 0.11502 1.04638 0.48294 0.0
O1 O 0.11178 1.04629 0.78729 0.0
C2 C 0.99017 0.96805 0.59072 0.0
Zn3 Zn 1.05006 0.10206 0.48712 0.0
C4 C 0.08074 0.0735 0.88294 0.0
O5 O 1.04684 0.09928 0.80027 0.0
C6 C 0.08475 0.07515 0.08719 0.0
O7 O 0.12436 0.18425 0.40194 0.0
O8 O 0.18499 0.12768 0.3978 0.0
N9 N 0.98304 0.14748 0.48566 0.0
C10 C 0.96895 0.1841 0.33938 0.0
C11 C 0.89751 0.16037 0.59005 0.0
N12 N 0.93823 0.13276 0.63986 0.0
N13 N 0.91512 0.19284 0.40152 0.0
C14 C 0.1863 0.95714 0.62393 0.0
C15 C 0.26741 0.99181 0.42588 0.0
N16 N 0.18 1.00158 0.48714 0.0
N17 N 0.23052 1.02319 0.36553 0.0
N18 N 0.24111 0.95011 0.58891 0.0
H19 H 0.15381 0.90391 0.92541 0.0
H20 H 0.11588 0.89023 0.7428 0.0
H21 H 0.10714 0.94832 0.84183 0.0
C22 C 0.13872 0.923 0.79449 0.0
C23 C 1.00549 0.20437 0.12962 0.0
H24 H 1.0507 0.2079 0.13065 0.0
H25 H 0.99847 0.24503 0.04795 0.0
H26 H 0.99547 0.17354 0.04461 0.0
O27 O 1.05432 0.103 0.18202 0.0
O28 O 0.118 1.04859 0.17079 0.0
C29 C 0.17689 0.17861 0.38216 0.0
O30 O 1.04283 0.96386 0.5705 0.0
O31 O 0.98069 1.01881 0.57237 0.0
Zn32 Zn 0.28495 0.8016 0.84208 0.0
O33 O 0.23667 0.86472 0.79902 0.0
C34 C 0.3304 0.82282 0.34077 0.0
Zn35 Zn 0.36625 0.83965 0.66017 0.0
C36 C 0.26593 0.90834 0.67498 0.0
O37 O 0.31867 0.90955 0.61363 0.0
C38 C 0.38608 0.73111 0.81679 0.0
O39 O 0.36094 0.83972 -0.00302 0.0
O40 O 0.27385 0.80307 0.14234 0.0
N41 N 0.43502 0.89116 0.59554 0.0
C42 C 0.46945 0.88573 0.71779 0.0
C43 C 0.45254 0.96935 0.66813 0.0
N44 N 0.42555 0.94313 0.56222 0.0
N45 N 0.47815 0.93325 0.77164 0.0
C46 C 0.18959 0.75159 0.79393 0.0
C47 C 0.22042 0.67507 0.81132 0.0
N48 N 0.21685 0.74552 0.93577 0.0
N49 N 0.23358 0.69673 0.95197 0.0
N50 N 0.19564 0.71084 0.70223 0.0
H51 H 0.13782 0.80602 0.91151 0.0
H52 H 0.10344 0.75732 0.80229 0.0
H53 H 0.15473 0.81718 0.64346 0.0
C54 C 0.14369 0.78516 0.78786 0.0
C55 C 0.48108 0.83103 0.83162 0.0
H56 H 0.4427 0.80329 0.92771 0.0
H57 H 0.50532 0.83507 0.94228 0.0
H58 H 0.50449 0.81039 0.72527 0.0
O59 O 0.41121 0.77178 0.67188 0.0
O60 O 0.33639 0.73375 0.9065 0.0
C61 C 0.32157 0.82202 0.15856 0.0
O62 O 0.2918 0.80199 0.50435 0.0
O63 O 0.37761 0.84451 0.3544 0.0
Zn64 Zn 0.61514 0.11502 0.90878 0.0
O65 O 0.55326 0.16646 0.9535 0.0
C66 C 0.594 0.07209 0.40607 0.0
Zn67 Zn 0.57457 1.03592 0.08808 0.0
C68 C 0.5077 0.13818 0.07045 0.0
O69 O 0.50479 0.0853 0.13005 0.0
C70 C 0.68178 1.01389 0.93168 0.0
O71 O 0.57495 1.04167 0.75016 0.0
O72 O 0.61454 0.1277 0.60544 0.0
N73 N 0.5225 0.9672 0.1566 0.0
C74 C 0.52641 0.93628 0.02323 0.0
C75 C 0.44375 0.957 0.07786 0.0
N76 N 0.4709 0.97832 0.19438 0.0
N77 N 0.47882 0.93252 0.96583 0.0
C78 C 0.66963 0.21613 0.91041 0.0
C79 C 0.7494 0.19373 0.91333 0.0
N80 N 0.67519 0.17555 0.81996 0.0
N81 N 0.72537 0.1619 0.81746 0.0
N82 N 0.71199 0.22303 -0.00628 0.0
H83 H 0.61942 0.25503 0.72669 0.0
H84 H 0.66634 0.3034 0.80324 0.0
H85 H 0.60392 0.26174 -0.02217 0.0
C86 C 0.63819 0.26188 0.84943 0.0
C87 C 0.57994 0.92216 0.90924 0.0
H88 H 0.61001 0.95929 0.81677 0.0
H89 H 0.57403 0.89988 0.79507 0.0
H90 H 0.59893 0.89609 0.0149 0.0
O91 O 0.64137 0.9892 0.07862 0.0
O92 O 0.6794 0.06316 0.84357 0.0
C93 C 0.59446 0.08065 0.5886 0.0
O94 O 0.6172 0.10982 0.24237 0.0
O95 O 0.56993 1.02599 0.39268 0.0
Zn96 Zn 0.36402 0.28968 0.24057 0.0
O97 O 0.36515 0.29332 0.93572 0.0
C98 C 0.43976 0.41587 0.13386 0.0
Zn99 Zn 0.3068 0.35304 0.2389 0.0
C100 C 0.33658 0.3231 0.84162 0.0
O101 O 0.30936 0.35579 0.92579 0.0
C102 C 0.33495 0.319 0.6374 0.0
O103 O 0.22415 0.28115 0.3249 0.0
O104 O 0.2803 0.22016 0.32451 0.0
N105 N 0.26126 0.4178 0.24429 0.0
C106 C 0.22617 0.43149 0.3953 0.0
C107 C 0.24971 0.5033 0.14726 0.0
N108 N 0.2759 0.46268 0.09157 0.0
N109 N 0.21856 0.48535 0.33788 0.0
C110 C 0.45739 0.21814 0.10903 0.0
C111 C 0.4209 0.13765 0.30506 0.0
N112 N 0.41058 0.22451 0.23722 0.0
N113 N 0.38808 0.17427 0.3575 0.0
N114 N 0.46491 0.16363 0.14866 0.0
H115 H 0.51619 0.24962 0.8167 0.0
H116 H 0.52161 0.29105 -0.00367 0.0
H117 H 0.46572 0.29331 0.87765 0.0
C118 C 0.49242 0.26509 0.93908 0.0
C119 C 0.20618 0.39447 0.60428 0.0
H120 H 0.20262 0.34968 0.6017 0.0
H121 H 0.16526 0.40097 0.68727 0.0
H122 H 0.23705 0.40447 0.68983 0.0
O123 O 0.30679 0.34901 0.54263 0.0
O124 O 0.36171 0.28609 0.55365 0.0
C125 C 0.229 0.22905 0.34234 0.0
O126 O 0.44605 0.36389 0.15383 0.0
O127 O 0.38821 0.42323 0.15247 0.0
Zn128 Zn 0.785 0.30175 0.34159 0.0
O129 O 0.73683 0.36487 0.29815 0.0
C130 C 0.83055 0.32297 0.8401 0.0
Zn131 Zn 0.86636 0.33969 0.15956 0.0
C132 C 0.76612 0.40851 0.17433 0.0
O133 O 0.81889 0.40975 0.11313 0.0
C134 C 0.88603 0.2311 0.31659 0.0
O135 O 0.86115 0.33978 0.49631 0.0
O136 O 0.77396 0.3034 0.64158 0.0
N137 N 0.93522 0.39102 0.09446 0.0
C138 C 0.97013 0.38557 0.21496 0.0
C139 C 0.95394 0.46942 0.16395 0.0
N140 N 0.92617 0.44312 0.06024 0.0
N141 N 0.97953 0.43323 0.26734 0.0
C142 C 0.69005 0.252 0.29238 0.0
C143 C 0.72166 0.17577 0.30901 0.0
N144 N 0.71665 0.24569 0.4361 0.0
N145 N 0.73363 0.19701 0.4522 0.0
N146 N 0.6969 0.2115 0.19984 0.0
H147 H 0.63754 0.30585 0.40998 0.0
H148 H 0.60372 0.25674 0.30096 0.0
H149 H 0.65449 0.31701 0.14195 0.0
C150 C 0.64372 0.28501 0.28629 0.0
C151 C 0.98142 0.33085 0.32978 0.0
H152 H 0.9429 0.30338 0.4261 0.0
H153 H 1.00568 0.33488 0.44035 0.0
H154 H 1.00466 0.30993 0.22404 0.0
O155 O 0.91114 0.27167 0.17129 0.0
O156 O 0.8364 0.23385 0.40648 0.0
C157 C 0.82173 0.3222 0.65784 0.0
O158 O 0.79194 0.30219 0.00365 0.0
O159 O 0.87776 0.34459 0.85379 0.0
Zn160 Zn 0.86392 0.78959 0.74132 0.0
O161 O 0.86511 0.79326 0.43632 0.0
C162 C 0.93974 0.91578 0.63437 0.0
Zn163 Zn 0.80679 0.85297 0.73932 0.0
C164 C 0.83654 0.82304 0.34218 0.0
O165 O 0.80933 0.85573 0.42631 0.0
C166 C 0.8349 0.81893 0.138 0.0
O167 O 0.7241 0.78116 0.82524 0.0
O168 O 0.78021 0.72015 0.82504 0.0
N169 N 0.76131 0.91767 0.74496 0.0
C170 C 0.72589 0.93091 0.89617 0.0
C171 C 0.75009 1.00339 0.65057 0.0
N172 N 0.77637 0.96294 0.59375 0.0
N173 N 0.71847 0.98488 0.84042 0.0
C174 C 0.95727 0.71804 0.61112 0.0
C175 C 0.92003 0.63723 0.80352 0.0
N176 N 0.91023 0.72427 0.73832 0.0
N177 N 0.88725 0.67385 0.85637 0.0
N178 N 0.96447 0.66342 0.64907 0.0
H179 H 1.01654 0.74984 0.31999 0.0
H180 H 1.02155 0.7909 0.50108 0.0
H181 H 0.96598 0.79348 0.38074 0.0
C182 C 0.99257 0.76515 0.44242 0.0
C183 C 0.70542 0.89331 0.10412 0.0
H184 H 0.70239 0.84866 0.0999 0.0
H185 H 0.66412 0.89933 0.18588 0.0
H186 H 0.7357 0.90322 0.19189 0.0
O187 O 0.80679 0.84897 0.04313 0.0
O188 O 0.8616 0.78596 0.05437 0.0
C189 C 0.72893 0.72906 0.84271 0.0
O190 O 0.94602 0.86379 0.65463 0.0
O191 O 0.8882 0.92314 0.65281 0.0
Zn192 Zn 0.61503 0.54642 -0.01716 0.0
O193 O 0.61178 0.54629 0.28727 0.0
C194 C 0.4902 0.46811 0.09037 0.0
Zn195 Zn 0.55007 0.60209 -0.01294 0.0
C196 C 0.58075 0.57352 0.38287 0.0
O197 O 0.54686 0.5993 0.30018 0.0
C198 C 0.58476 0.5752 0.58709 0.0
O199 O 0.62432 0.68428 0.90204 0.0
O200 O 0.68495 0.62772 0.89791 0.0
N201 N 0.48306 0.64746 -0.01421 0.0
C202 C 0.46905 0.68421 0.83971 0.0
C203 C 0.39747 0.66021 0.08993 0.0
N204 N 0.43817 0.63257 0.13971 0.0
N205 N 0.41519 0.69289 0.90174 0.0
C206 C 0.68644 0.45724 0.12336 0.0
C207 C 0.76756 0.49205 0.92547 0.0
N208 N 0.68011 0.50171 -0.01322 0.0
N209 N 0.73063 0.5234 0.86528 0.0
N210 N 0.74128 0.45027 0.08825 0.0
H211 H 0.65394 0.40389 0.42467 0.0
H212 H 0.6161 0.39025 0.24181 0.0
H213 H 0.60724 0.44829 0.34116 0.0
C214 C 0.63887 0.42301 0.29375 0.0
C215 C 0.5057 0.70467 0.63017 0.0
H216 H 0.55088 0.70803 0.6315 0.0
H217 H 0.49881 0.74547 0.5491 0.0
H218 H 0.49566 0.67405 0.54443 0.0
O219 O 0.55432 0.60306 0.68189 0.0
O220 O 0.61803 0.54867 0.67069 0.0
C221 C 0.67683 0.67864 0.88234 0.0
O222 O 0.54286 0.4639 0.0702 0.0
O223 O 0.48072 0.51887 0.07215 0.0
Zn224 Zn 0.0743 0.53625 0.58652 0.0
O225 O 0.07594 0.54197 0.25512 0.0
C226 C 0.18198 0.51462 0.42829 0.0
Zn227 Zn 0.11529 0.61541 0.40832 0.0
C228 C 0.0943 0.58142 0.09559 0.0
O229 O 0.11273 0.62899 0.11172 0.0
C230 C 0.09454 0.57192 0.89642 0.0
O231 O 1.05352 0.66659 0.45915 0.0
O232 O 1.00398 0.58504 0.62663 0.0
N233 N 0.17533 0.67605 0.31868 0.0
C234 C 0.16947 0.71631 0.41048 0.0
C235 C 0.24902 0.69355 0.41596 0.0
N236 N 0.22542 0.66225 0.31751 0.0
N237 N 0.2114 0.7227 0.49603 0.0
C238 C 1.02715 0.43622 0.52076 0.0
C239 C 0.94432 0.45653 0.57391 0.0
N240 N 1.02278 0.46706 0.65436 0.0
N241 N 0.97102 0.47781 0.69158 0.0
N242 N 0.97981 0.43242 0.46191 0.0
H243 H 0.11062 0.45909 0.31411 0.0
H244 H 0.07514 0.39875 0.29704 0.0
H245 H 0.10008 0.39684 0.51604 0.0
C246 C 0.08087 0.422 0.40882 0.0
C247 C 0.13833 0.7623 0.34935 0.0
H248 H 0.11915 0.75533 0.22763 0.0
H249 H 0.16678 0.80366 0.30182 0.0
H250 H 0.1044 0.76265 0.47804 0.0
O251 O 0.11921 0.6091 0.73376 0.0
O252 O 0.06852 0.52657 0.88527 0.0
C253 C 1.00741 0.6381 0.57127 0.0
O254 O 0.14188 0.49029 0.57706 0.0
O255 O 0.17945 0.5637 0.33841 0.0
loop_
_geom_bond_atom_site_label_1
_geom_bond_atom_site_label_2
_geom_bond_distance
_geom_bond_site_symmetry_2
_ccdc_geom_bond_type
Zn0 O1 2.055 . S
Zn0 O8 2.046 1_565 S
Zn0 N16 2.036 . S
Zn0 O28 2.053 . S
Zn0 O30 2.066 . S
O1 Zn0 2.055 . S
O1 C4 1.259 1_565 S
C2 O30 1.256 1_655 S
C2 O31 1.244 . S
Zn3 O5 2.046 . S
Zn3 O7 2.055 1_655 S
Zn3 N9 2.036 . S
Zn3 O27 2.066 . S
Zn3 O31 2.053 1_545 S
C4 O1 1.259 1_545 S
C4 O5 1.254 1_455 S
O5 Zn3 2.046 . S
O5 C4 1.254 1_655 S
C6 O27 1.256 1_455 S
C6 O28 1.244 1_545 S
O7 Zn3 2.055 1_455 S
O7 C29 1.259 . S
O8 Zn0 2.046 1_545 S
O8 C29 1.254 . S
N9 Zn3 2.036 . S
N9 C10 1.298 . S
N9 N12 1.398 . S
C10 N9 1.298 . S
C10 N13 1.367 . S
C10 C23 1.481 . S
C11 N12 1.299 . S
C11 N13 1.379 . S
N12 N9 1.398 . S
N12 C11 1.299 . S
N13 C10 1.367 . S
N13 C11 1.379 . S
C14 N16 1.298 . S
C14 N18 1.367 . S
C14 C22 1.481 . S
C15 N17 1.299 . S
C15 N18 1.379 . S
N16 Zn0 2.036 . S
N16 C14 1.298 . S
N16 N17 1.398 . S
N17 C15 1.299 . S
N17 N16 1.398 . S
N18 C14 1.367 . S
N18 C15 1.379 . S
H19 C22 0.980 . S
H20 C22 0.981 1_554 S
H21 C22 0.981 . S
C22 C14 1.481 . S
C22 H19 0.980 . S
C22 H20 0.981 1_556 S
C22 H21 0.981 . S
C23 C10 1.481 . S
C23 H24 0.980 . S
C23 H25 0.981 . S
C23 H26 0.981 . S
H24 C23 0.980 . S
H25 C23 0.981 . S
H26 C23 0.981 . S
O27 Zn3 2.066 . S
O27 C6 1.256 1_655 S
O28 Zn0 2.053 . S
O28 C6 1.244 1_565 S
C29 O7 1.259 . S
C29 O8 1.254 . S
O30 Zn0 2.066 . S
O30 C2 1.256 1_455 S
O31 C2 1.244 . S
O31 Zn3 2.053 1_565 S
Zn32 O33 2.055 . S
Zn32 O40 2.046 1_556 S
Zn32 N48 2.036 . S
Zn32 O60 2.053 . S
Zn32 O62 2.066 . S
O33 Zn32 2.055 . S
O33 C36 1.259 . S
C34 O62 1.256 . S
C34 O63 1.244 . S
Zn35 O37 2.046 . S
Zn35 O39 2.055 1_556 S
Zn35 N41 2.036 . S
Zn35 O59 2.066 . S
Zn35 O63 2.053 . S
C36 O33 1.259 . S
C36 O37 1.254 . S
O37 Zn35 2.046 . S
O37 C36 1.254 . S
C38 O59 1.256 . S
C38 O60 1.244 . S
O39 Zn35 2.055 1_554 S
O39 C61 1.259 . S
O40 Zn32 2.046 1_554 S
O40 C61 1.254 . S
N41 Zn35 2.036 . S
N41 C42 1.298 . S
N41 N44 1.398 . S
C42 N41 1.298 . S
C42 N45 1.367 . S
C42 C55 1.481 1_556 S
C43 N44 1.299 . S
C43 N45 1.379 . S
N44 N41 1.398 . S
N44 C43 1.299 . S
N45 C42 1.367 . S
N45 C43 1.379 . S
C46 N48 1.298 . S
C46 N50 1.367 . S
C46 C54 1.481 . S
C47 N49 1.299 . S
C47 N50 1.379 . S
N48 Zn32 2.036 . S
N48 C46 1.298 . S
N48 N49 1.398 . S
N49 C47 1.299 . S
N49 N48 1.398 . S
N50 C46 1.367 . S
N50 C47 1.379 . S
H51 C54 0.980 . S
H52 C54 0.981 . S
H53 C54 0.981 . S
C54 C46 1.481 . S
C54 H51 0.980 . S
C54 H52 0.981 . S
C54 H53 0.981 . S
C55 C42 1.481 1_554 S
C55 H56 0.980 . S
C55 H57 0.981 . S
C55 H58 0.981 . S
H56 C55 0.980 . S
H57 C55 0.981 . S
H58 C55 0.981 . S
O59 Zn35 2.066 . S
O59 C38 1.256 . S
O60 Zn32 2.053 . S
O60 C38 1.244 . S
C61 O39 1.259 . S
C61 O40 1.254 . S
O62 Zn32 2.066 . S
O62 C34 1.256 . S
O63 C34 1.244 . S
O63 Zn35 2.053 . S
Zn64 O65 2.055 1_556 S
Zn64 O72 2.046 . S
Zn64 N80 2.036 . S
Zn64 O92 2.053 1_545 S
Zn64 O94 2.066 1_556 S
O65 Zn64 2.055 1_554 S
O65 C68 1.259 . S
C66 O94 1.256 . S
C66 O95 1.244 1_545 S
Zn67 O69 2.046 1_565 S
Zn67 O71 2.055 1_564 S
Zn67 N73 2.036 . S
Zn67 O91 2.066 1_554 S
Zn67 O95 2.053 . S
C68 O65 1.259 . S
C68 O69 1.254 . S
O69 Zn67 2.046 1_545 S
O69 C68 1.254 . S
C70 O91 1.256 . S
C70 O92 1.244 . S
O71 Zn67 2.055 1_546 S
O71 C93 1.259 . S
O72 Zn64 2.046 . S
O72 C93 1.254 . S
N73 Zn67 2.036 . S
N73 C74 1.298 1_554 S
N73 N76 1.398 . S
C74 N73 1.298 1_556 S
C74 N77 1.367 1_556 S
C74 C87 1.481 . S
C75 N76 1.299 . S
C75 N77 1.379 . S
N76 N73 1.398 . S
N76 C75 1.299 . S
N77 C74 1.367 1_554 S
N77 C75 1.379 . S
C78 N80 1.298 1_554 S
C78 N82 1.367 1_554 S
C78 C86 1.481 . S
C79 N81 1.299 . S
C79 N82 1.379 . S
N80 Zn64 2.036 . S
N80 C78 1.298 1_556 S
N80 N81 1.398 . S
N81 C79 1.299 . S
N81 N80 1.398 . S
N82 C78 1.367 1_556 S
N82 C79 1.379 . S
H83 C86 0.980 . S
H84 C86 0.981 . S
H85 C86 0.981 . S
C86 C78 1.481 . S
C86 H83 0.980 . S
C86 H84 0.981 . S
C86 H85 0.981 . S
C87 C74 1.481 . S
C87 H88 0.980 . S
C87 H89 0.981 . S
C87 H90 0.981 . S
H88 C87 0.980 . S
H89 C87 0.981 . S
H90 C87 0.981 . S
O91 Zn67 2.066 1_556 S
O91 C70 1.256 . S
O92 Zn64 2.053 1_565 S
O92 C70 1.244 . S
C93 O71 1.259 . S
C93 O72 1.254 . S
O94 Zn64 2.066 1_554 S
O94 C66 1.256 . S
O95 C66 1.244 1_565 S
O95 Zn67 2.053 . S
Zn96 O97 2.055 1_554 S
Zn96 O104 2.046 . S
Zn96 N112 2.036 . S
Zn96 O124 2.053 . S
Zn96 O126 2.066 . S
O97 Zn96 2.055 1_556 S
O97 C100 1.259 . S
C98 O126 1.256 . S
C98 O127 1.244 . S
Zn99 O101 2.046 1_554 S
Zn99 O103 2.055 . S
Zn99 N105 2.036 . S
Zn99 O123 2.066 . S
Zn99 O127 2.053 . S
C100 O97 1.259 . S
C100 O101 1.254 . S
O101 Zn99 2.046 1_556 S
O101 C100 1.254 . S
C102 O123 1.256 . S
C102 O124 1.244 . S
O103 Zn99 2.055 . S
O103 C125 1.259 . S
O104 Zn96 2.046 . S
O104 C125 1.254 . S
N105 Zn99 2.036 . S
N105 C106 1.298 . S
N105 N108 1.398 . S
C106 N105 1.298 . S
C106 N109 1.367 . S
C106 C119 1.481 . S
C107 N108 1.299 . S
C107 N109 1.379 . S
N108 N105 1.398 . S
N108 C107 1.299 . S
N109 C106 1.367 . S
N109 C107 1.379 . S
C110 N112 1.298 . S
C110 N114 1.367 . S
C110 C118 1.481 1_554 S
C111 N113 1.299 . S
C111 N114 1.379 . S
N112 Zn96 2.036 . S
N112 C110 1.298 . S
N112 N113 1.398 . S
N113 C111 1.299 . S
N113 N112 1.398 . S
N114 C110 1.367 . S
N114 C111 1.379 . S
H115 C118 0.980 . S
H116 C118 0.981 . S
H117 C118 0.981 . S
C118 C110 1.481 1_556 S
C118 H115 0.980 . S
C118 H116 0.981 . S
C118 H117 0.981 . S
C119 C106 1.481 . S
C119 H120 0.980 . S
C119 H121 0.981 . S
C119 H122 0.981 . S
H120 C119 0.980 . S
H121 C119 0.981 . S
H122 C119 0.981 . S
O123 Zn99 2.066 . S
O123 C102 1.256 . S
O124 Zn96 2.053 . S
O124 C102 1.244 . S
C125 O103 1.259 . S
C125 O104 1.254 . S
O126 Zn96 2.066 . S
O126 C98 1.256 . S
O127 C98 1.244 . S
O127 Zn99 2.053 . S
Zn128 O129 2.055 . S
Zn128 O136 2.046 . S
Zn128 N144 2.036 . S
Zn128 O156 2.053 . S
Zn128 O158 2.066 . S
O129 Zn128 2.055 . S
O129 C132 1.259 . S
C130 O158 1.256 1_556 S
C130 O159 1.244 . S
Zn131 O133 2.046 . S
Zn131 O135 2.055 . S
Zn131 N137 2.036 . S
Zn131 O155 2.066 . S
Zn131 O159 2.053 1_554 S
C132 O129 1.259 . S
C132 O133 1.254 . S
O133 Zn131 2.046 . S
O133 C132 1.254 . S
C134 O155 1.256 . S
C134 O156 1.244 . S
O135 Zn131 2.055 . S
O135 C157 1.259 . S
O136 Zn128 2.046 . S
O136 C157 1.254 . S
N137 Zn131 2.036 . S
N137 C138 1.298 . S
N137 N140 1.398 . S
C138 N137 1.298 . S
C138 N141 1.367 . S
C138 C151 1.481 . S
C139 N140 1.299 . S
C139 N141 1.379 . S
N140 N137 1.398 . S
N140 C139 1.299 . S
N141 C138 1.367 . S
N141 C139 1.379 . S
C142 N144 1.298 . S
C142 N146 1.367 . S
C142 C150 1.481 . S
C143 N145 1.299 . S
C143 N146 1.379 . S
N144 Zn128 2.036 . S
N144 C142 1.298 . S
N144 N145 1.398 . S
N145 C143 1.299 . S
N145 N144 1.398 . S
N146 C142 1.367 . S
N146 C143 1.379 . S
H147 C150 0.980 . S
H148 C150 0.981 . S
H149 C150 0.981 . S
C150 C142 1.481 . S
C150 H147 0.980 . S
C150 H148 0.981 . S
C150 H149 0.981 . S
C151 C138 1.481 . S
C151 H152 0.980 . S
C151 H153 0.981 . S
C151 H154 0.981 . S
H152 C151 0.980 . S
H153 C151 0.981 . S
H154 C151 0.981 . S
O155 Zn131 2.066 . S
O155 C134 1.256 . S
O156 Zn128 2.053 . S
O156 C134 1.244 . S
C157 O135 1.259 . S
C157 O136 1.254 . S
O158 Zn128 2.066 . S
O158 C130 1.256 1_554 S
O159 C130 1.244 . S
O159 Zn131 2.053 1_556 S
Zn160 O161 2.055 . S
Zn160 O168 2.046 . S
Zn160 N176 2.036 . S
Zn160 O188 2.053 1_556 S
Zn160 O190 2.066 . S
O161 Zn160 2.055 . S
O161 C164 1.259 . S
C162 O190 1.256 . S
C162 O191 1.244 . S
Zn163 O165 2.046 . S
Zn163 O167 2.055 . S
Zn163 N169 2.036 . S
Zn163 O187 2.066 1_556 S
Zn163 O191 2.053 . S
C164 O161 1.259 . S
C164 O165 1.254 . S
O165 Zn163 2.046 . S
O165 C164 1.254 . S
C166 O187 1.256 . S
C166 O188 1.244 . S
O167 Zn163 2.055 . S
O167 C189 1.259 . S
O168 Zn160 2.046 . S
O168 C189 1.254 . S
N169 Zn163 2.036 . S
N169 C170 1.298 . S
N169 N172 1.398 . S
C170 N169 1.298 . S
C170 N173 1.367 . S
C170 C183 1.481 1_556 S
C171 N172 1.299 . S
C171 N173 1.379 . S
N172 N169 1.398 . S
N172 C171 1.299 . S
N173 C170 1.367 . S
N173 C171 1.379 . S
C174 N176 1.298 . S
C174 N178 1.367 . S
C174 C182 1.481 . S
C175 N177 1.299 . S
C175 N178 1.379 . S
N176 Zn160 2.036 . S
N176 C174 1.298 . S
N176 N177 1.398 . S
N177 C175 1.299 . S
N177 N176 1.398 . S
N178 C174 1.367 . S
N178 C175 1.379 . S
H179 C182 0.980 . S
H180 C182 0.981 . S
H181 C182 0.981 . S
C182 C174 1.481 . S
C182 H179 0.980 . S
C182 H180 0.981 . S
C182 H181 0.981 . S
C183 C170 1.481 1_554 S
C183 H184 0.980 1_554 S
C183 H185 0.981 . S
C183 H186 0.981 . S
H184 C183 0.980 1_556 S
H185 C183 0.981 . S
H186 C183 0.981 . S
O187 Zn163 2.066 1_554 S
O187 C166 1.256 . S
O188 Zn160 2.053 1_554 S
O188 C166 1.244 . S
C189 O167 1.259 . S
C189 O168 1.254 . S
O190 Zn160 2.066 . S
O190 C162 1.256 . S
O191 C162 1.244 . S
O191 Zn163 2.053 . S
Zn192 O193 2.055 . S
Zn192 O200 2.046 1_554 S
Zn192 N208 2.036 . S
Zn192 O220 2.053 1_554 S
Zn192 O222 2.066 . S
O193 Zn192 2.055 . S
O193 C196 1.259 . S
C194 O222 1.256 . S
C194 O223 1.244 . S
Zn195 O197 2.046 . S
Zn195 O199 2.055 1_554 S
Zn195 N201 2.036 . S
Zn195 O219 2.066 1_554 S
Zn195 O223 2.053 . S
C196 O193 1.259 . S
C196 O197 1.254 . S
O197 Zn195 2.046 . S
O197 C196 1.254 . S
C198 O219 1.256 . S
C198 O220 1.244 . S
O199 Zn195 2.055 1_556 S
O199 C221 1.259 . S
O200 Zn192 2.046 1_556 S
O200 C221 1.254 . S
N201 Zn195 2.036 . S
N201 C202 1.298 1_554 S
N201 N204 1.398 . S
C202 N201 1.298 1_556 S
C202 N205 1.367 . S
C202 C215 1.481 . S
C203 N204 1.299 . S
C203 N205 1.379 1_554 S
N204 N201 1.398 . S
N204 C203 1.299 . S
N205 C202 1.367 . S
N205 C203 1.379 1_556 S
C206 N208 1.298 . S
C206 N210 1.367 . S
C206 C214 1.481 . S
C207 N209 1.299 . S
C207 N210 1.379 1_556 S
N208 Zn192 2.036 . S
N208 C206 1.298 . S
N208 N209 1.398 1_554 S
N209 C207 1.299 . S
N209 N208 1.398 1_556 S
N210 C206 1.367 . S
N210 C207 1.379 1_554 S
H211 C214 0.980 . S
H212 C214 0.981 . S
H213 C214 0.981 . S
C214 C206 1.481 . S
C214 H211 0.980 . S
C214 H212 0.981 . S
C214 H213 0.981 . S
C215 C202 1.481 . S
C215 H216 0.980 . S
C215 H217 0.981 . S
C215 H218 0.981 . S
H216 C215 0.980 . S
H217 C215 0.981 . S
H218 C215 0.981 . S
O219 Zn195 2.066 1_556 S
O219 C198 1.256 . S
O220 Zn192 2.053 1_556 S
O220 C198 1.244 . S
C221 O199 1.259 . S
C221 O200 1.254 . S
O222 Zn192 2.066 . S
O222 C194 1.256 . S
O223 C194 1.244 . S
O223 Zn195 2.053 . S
Zn224 O225 2.055 1_655 S
Zn224 O232 2.046 . S
Zn224 N240 2.036 . S
Zn224 O252 2.053 . S
Zn224 O254 2.066 1_655 S
O225 Zn224 2.055 1_455 S
O225 C228 1.259 . S
C226 O254 1.256 . S
C226 O255 1.244 . S
Zn227 O229 2.046 . S
Zn227 O231 2.055 . S
Zn227 N233 2.036 . S
Zn227 O251 2.066 . S
Zn227 O255 2.053 . S
C228 O225 1.259 . S
C228 O229 1.254 . S
O229 Zn227 2.046 . S
O229 C228 1.254 . S
C230 O251 1.256 . S
C230 O252 1.244 1_455 S
O231 Zn227 2.055 . S
O231 C253 1.259 1_455 S
O232 Zn224 2.046 . S
O232 C253 1.254 . S
N233 Zn227 2.036 . S
N233 C234 1.298 . S
N233 N236 1.398 . S
C234 N233 1.298 . S
C234 N237 1.367 . S
C234 C247 1.481 . S
C235 N236 1.299 . S
C235 N237 1.379 . S
N236 N233 1.398 . S
N236 C235 1.299 . S
N237 C234 1.367 . S
N237 C235 1.379 . S
C238 N240 1.298 . S
C238 N242 1.367 . S
C238 C246 1.481 . S
C239 N241 1.299 . S
C239 N242 1.379 . S
N240 Zn224 2.036 . S
N240 C238 1.298 . S
N240 N241 1.398 . S
N241 C239 1.299 . S
N241 N240 1.398 . S
N242 C238 1.367 . S
N242 C239 1.379 . S
H243 C246 0.980 . S
H244 C246 0.981 . S
H245 C246 0.981 . S
C246 C238 1.481 . S
C246 H243 0.980 . S
C246 H244 0.981 . S
C246 H245 0.981 . S
C247 C234 1.481 . S
C247 H248 0.980 . S
C247 H249 0.981 . S
C247 H250 0.981 . S
H248 C247 0.980 . S
H249 C247 0.981 . S
H250 C247 0.981 . S
O251 Zn227 2.066 . S
O251 C230 1.256 . S
O252 Zn224 2.053 . S
O252 C230 1.244 1_655 S
C253 O231 1.259 1_655 S
C253 O232 1.254 . S
O254 Zn224 2.066 1_455 S
O254 C226 1.256 . S
O255 C226 1.244 . S
O255 Zn227 2.053 . S
C29 C125 4.188 . S
N18 C36 1.699 . S
N45 N77 2.394 1_556 S
C68 N114 1.698 . S
C2 C162 4.941 . S
N13 C134 1.435 . S
N146 N82 2.311 1_554 S
N173 C70 1.435 . S
C221 C189 4.188 . S
C132 N210 1.699 . S
N242 N141 2.396 . S
N178 C253 1.698 . S
C98 C194 4.941 . S
N205 C38 1.435 . S
N50 N237 2.312 . S
N109 C226 1.435 . S
C4 C6 1.591 1_556 S
C34 C61 1.745 . S
C93 C66 1.745 . S
C100 C102 1.591 . S
C130 C157 1.745 . S
C164 C166 1.591 . S
C198 C196 1.591 . S
C230 C228 1.745 1_556 S
