# Generated by pormake.
# Topology uou, (4)-cn, num edge types: 1
# Building blocks:
#     Node 0, Type 0, BuildingBlock: QUQFOY_clean_sbu_1, # of connection points: 4
#     Node 1, Type 0, BuildingBlock: QUQFOY_clean_sbu_1, # of connection points: 4
#     Node 2, Type 0, BuildingBlock: QUQFOY_clean_sbu_1, # of connection points: 4
#     Node 3, Type 0, BuildingBlock: QUQFOY_clean_sbu_1, # of connection points: 4
#     Node 4, Type 0, BuildingBlock: QUQFOY_clean_sbu_1, # of connection points: 4
#     Node 5, Type 0, BuildingBlock: QUQFOY_clean_sbu_1, # of connection points: 4
#     Node 6, Type 0, BuildingBlock: QUQFOY_clean_sbu_1, # of connection points: 4
#     Node 7, Type 0, BuildingBlock: QUQFOY_clean_sbu_1, # of connection points: 4
#     Node 8, Type 0, BuildingBlock: QUQFOY_clean_sbu_1, # of connection points: 4
#     Node 9, Type 0, BuildingBlock: QUQFOY_clean_sbu_1, # of connection points: 4
#     Node 10, Type 0, BuildingBlock: QUQFOY_clean_sbu_1, # of connection points: 4
#     Node 11, Type 0, BuildingBlock: QUQFOY_clean_sbu_1, # of connection points: 4
#     Node 12, Type 0, BuildingBlock: QUQFOY_clean_sbu_1, # of connection points: 4
#     Node 13, Type 0, BuildingBlock: QUQFOY_clean_sbu_1, # of connection points: 4
#     Node 14, Type 0, BuildingBlock: QUQFOY_clean_sbu_1, # of connection points: 4
#     Node 15, Type 0, BuildingBlock: QUQFOY_clean_sbu_1, # of connection points: 4
#     Edge 16, Type (0, 0), BuildingBlock: AJUNOK_clean_linker_0, # of connection points: 2
#     Edge 17, Type (0, 0), BuildingBlock: AJUNOK_clean_linker_0, # of connection points: 2
#     Edge 18, Type (0, 0), BuildingBlock: AJUNOK_clean_linker_0, # of connection points: 2
#     Edge 19, Type (0, 0), BuildingBlock: AJUNOK_clean_linker_0, # of connection points: 2
#     Edge 20, Type (0, 0), BuildingBlock: AJUNOK_clean_linker_0, # of connection points: 2
#     Edge 21, Type (0, 0), BuildingBlock: AJUNOK_clean_linker_0, # of connection points: 2
#     Edge 22, Type (0, 0), BuildingBlock: AJUNOK_clean_linker_0, # of connection points: 2
#     Edge 23, Type (0, 0), BuildingBlock: AJUNOK_clean_linker_0, # of connection points: 2
#     Edge 24, Type (0, 0), BuildingBlock: AJUNOK_clean_linker_0, # of connection points: 2
#     Edge 25, Type (0, 0), BuildingBlock: AJUNOK_clean_linker_0, # of connection points: 2
#     Edge 26, Type (0, 0), BuildingBlock: AJUNOK_clean_linker_0, # of connection points: 2
#     Edge 27, Type (0, 0), BuildingBlock: AJUNOK_clean_linker_0, # of connection points: 2
#     Edge 28, Type (0, 0), BuildingBlock: AJUNOK_clean_linker_0, # of connection points: 2
#     Edge 29, Type (0, 0), BuildingBlock: AJUNOK_clean_linker_0, # of connection points: 2
#     Edge 30, Type (0, 0), BuildingBlock: AJUNOK_clean_linker_0, # of connection points: 2
#     Edge 31, Type (0, 0), BuildingBlock: AJUNOK_clean_linker_0, # of connection points: 2
#     Edge 32, Type (0, 0), BuildingBlock: AJUNOK_clean_linker_0, # of connection points: 2
#     Edge 33, Type (0, 0), BuildingBlock: AJUNOK_clean_linker_0, # of connection points: 2
#     Edge 34, Type (0, 0), BuildingBlock: AJUNOK_clean_linker_0, # of connection points: 2
#     Edge 35, Type (0, 0), BuildingBlock: AJUNOK_clean_linker_0, # of connection points: 2
#     Edge 36, Type (0, 0), BuildingBlock: AJUNOK_clean_linker_0, # of connection points: 2
#     Edge 37, Type (0, 0), BuildingBlock: AJUNOK_clean_linker_0, # of connection points: 2
#     Edge 38, Type (0, 0), BuildingBlock: AJUNOK_clean_linker_0, # of connection points: 2
#     Edge 39, Type (0, 0), BuildingBlock: AJUNOK_clean_linker_0, # of connection points: 2
#     Edge 40, Type (0, 0), BuildingBlock: AJUNOK_clean_linker_0, # of connection points: 2
#     Edge 41, Type (0, 0), BuildingBlock: AJUNOK_clean_linker_0, # of connection points: 2
#     Edge 42, Type (0, 0), BuildingBlock: AJUNOK_clean_linker_0, # of connection points: 2
#     Edge 43, Type (0, 0), BuildingBlock: AJUNOK_clean_linker_0, # of connection points: 2
#     Edge 44, Type (0, 0), BuildingBlock: AJUNOK_clean_linker_0, # of connection points: 2
#     Edge 45, Type (0, 0), BuildingBlock: AJUNOK_clean_linker_0, # of connection points: 2
#     Edge 46, Type (0, 0), BuildingBlock: AJUNOK_clean_linker_0, # of connection points: 2
#     Edge 47, Type (0, 0), BuildingBlock: AJUNOK_clean_linker_0, # of connection points: 2
# Relax obj value: 0.061
# Max RMSD: 0.094
# Mean RMSD: 0.094
data_MOF--net-uou--node1-QUQFOY_clean_sbu_1--edge1-AJUNOK_clean_linker_0
_symmetry_space_group_name_H-M    P1
_symmetry_Int_Tables_number       1
_symmetry_cell_setting            triclinic
loop_
_symmetry_equiv_pos_as_xyz
'x, y, z'
_cell_length_a     30.267634
_cell_length_b     27.826559
_cell_length_c     41.791936
_cell_angle_alpha  89.972915
_cell_angle_beta   89.919196
_cell_angle_gamma 89.999447
loop_
_atom_site_label
_atom_site_type_symbol
_atom_site_fract_x
_atom_site_fract_y
_atom_site_fract_z
_atom_type_partial_charge
O0 O 1.03664 0.10791 0.14887 0.0
Cd1 Cd 0.05207 0.03619 0.14732 0.0
Cd2 Cd 0.12838 0.06951 0.12644 0.0
O3 O 0.10481 0.13431 0.14432 0.0
O4 O 1.01137 0.00525 0.17865 0.0
O5 O 0.08384 0.00883 0.18506 0.0
C6 C 0.04544 -0.00218 0.19653 0.0
C7 C 0.19934 0.03998 0.13749 0.0
C8 C 0.06393 0.1425 0.14911 0.0
C9 C 0.06868 0.01983 0.07907 0.0
O10 O 0.10116 0.04811 0.08337 0.0
O11 O 0.04652 0.00483 0.10296 0.0
O12 O 0.19357 0.07692 0.11932 0.0
O13 O 0.16487 0.02059 0.15037 0.0
O14 O 0.53312 0.88103 0.1483 0.0
Cd15 Cd 0.51795 0.95282 0.14739 0.0
Cd16 Cd 0.44316 0.9205 0.12309 0.0
O17 O 0.46567 0.85459 0.1399 0.0
O18 O 0.55812 0.9823 0.17965 0.0
O19 O 0.48548 0.97956 0.18508 0.0
C20 C 0.52361 0.98982 0.19713 0.0
C21 C 0.37328 0.95203 0.13515 0.0
C22 C 0.50606 0.84634 0.14642 0.0
C23 C 0.50534 0.97279 0.07882 0.0
O24 O 0.4724 0.94454 0.0812 0.0
O25 O 0.52601 0.98589 0.10381 0.0
O26 O 0.37774 0.91615 0.11586 0.0
O27 O 0.40838 0.96889 0.14862 0.0
O28 O 0.54301 0.87439 0.38101 0.0
Cd29 Cd 0.5528 0.94743 0.38262 0.0
Cd30 Cd 0.63002 0.92046 0.40716 0.0
O31 O 0.6113 0.85251 0.39186 0.0
O32 O 0.51078 0.97415 0.35066 0.0
O33 O 0.58338 0.97833 0.34536 0.0
C34 C 0.54455 0.98577 0.33347 0.0
C35 C 0.70127 0.95131 0.39938 0.0
C36 C 0.5719 0.8416 0.38406 0.0
C37 C 0.56392 0.96954 0.45087 0.0
O38 O 0.5991 0.94492 0.44821 0.0
O39 O 0.54131 0.97948 0.42614 0.0
O40 O 0.69337 0.91837 0.42031 0.0
O41 O 0.66909 0.96517 0.38133 0.0
O42 O 1.03701 0.10995 0.38094 0.0
Cd43 Cd 1.02214 0.03793 0.38241 0.0
Cd44 Cd 0.94594 0.07149 0.40394 0.0
O45 O 0.96937 0.13725 0.38767 0.0
O46 O 0.06138 0.00726 0.35008 0.0
O47 O 0.98861 0.01076 0.34543 0.0
C48 C 1.02646 -0.00036 0.3331 0.0
C49 C 0.87337 0.04446 0.39666 0.0
C50 C 1.01013 0.14494 0.38195 0.0
C51 C 1.00623 0.01894 0.45018 0.0
O52 O 0.97373 0.04711 0.44601 0.0
O53 O 1.02916 0.0054 0.42632 0.0
O54 O 0.88258 0.07856 0.41641 0.0
O55 O 0.90496 0.02766 0.37914 0.0
O56 O 0.97333 0.94417 0.94829 0.0
Cd57 Cd 0.94473 0.91994 0.90626 0.0
Cd58 Cd 1.01941 0.95326 0.88228 0.0
O59 O 1.02685 0.98608 0.9259 0.0
O60 O 0.8795 0.9134 0.91372 0.0
O61 O 0.90842 0.96752 0.88106 0.0
C62 C 0.87386 0.94909 0.89444 0.0
C63 C 1.02458 0.99095 0.83275 0.0
C64 C 1.00607 0.97266 0.9508 0.0
C65 C 1.0089 0.84674 0.88299 0.0
O66 O 1.03562 0.88176 0.8812 0.0
O67 O 0.96836 0.85448 0.88937 0.0
O68 O 0.05918 0.98376 0.85013 0.0
O69 O 0.98657 0.97986 0.84478 0.0
O70 O 0.60187 0.04817 0.94645 0.0
Cd71 Cd 0.62973 0.06897 0.90338 0.0
Cd72 Cd 0.5535 0.03582 0.88219 0.0
O73 O 0.54726 0.00506 0.92675 0.0
O74 O 0.69519 0.07445 0.91022 0.0
O75 O 0.66482 0.01892 0.87946 0.0
C76 C 0.69984 0.03702 0.89232 0.0
C77 C 0.54765 -0.00316 0.83317 0.0
C78 C 0.56919 0.02011 0.95069 0.0
C79 C 0.56605 0.14211 0.87983 0.0
O80 O 0.53861 0.10765 0.88005 0.0
O81 O 0.6068 0.1338 0.88506 0.0
O82 O 0.51322 0.00468 0.8507 0.0
O83 O 0.58583 0.00784 0.84488 0.0
O84 O 0.47207 0.04635 0.58403 0.0
Cd85 Cd 0.44376 0.06965 0.62622 0.0
Cd86 Cd 0.5203 0.03691 0.64784 0.0
O87 O 0.52793 0.00531 0.60363 0.0
O88 O 0.38037 0.07576 0.61382 0.0
O89 O 0.40342 0.02485 0.65088 0.0
C90 C 0.37162 0.04134 0.63347 0.0
C91 C 0.52708 -0.00207 0.69685 0.0
C92 C 0.505 0.01879 0.57979 0.0
C93 C 0.50655 0.14377 0.64903 0.0
O94 O 0.5339 0.1092 0.64991 0.0
O95 O 0.46603 0.13553 0.64291 0.0
O96 O 0.5612 0.00689 0.67928 0.0
O97 O 0.48858 0.008 0.68525 0.0
O98 O 0.09812 0.94251 0.58173 0.0
Cd99 Cd 0.12834 0.91793 0.62295 0.0
Cd100 Cd 0.05278 0.94897 0.64757 0.0
O101 O 0.04224 0.98069 0.60384 0.0
O102 O 0.19185 0.91446 0.61028 0.0
O103 O 0.16749 0.96251 0.64861 0.0
C104 C 0.19978 0.94779 0.63091 0.0
C105 C 0.04512 0.98808 0.69648 0.0
C106 C 0.06403 0.96888 0.57906 0.0
C107 C 0.06781 0.8422 0.64695 0.0
O108 O 0.04042 0.87648 0.6498 0.0
O109 O 0.10763 0.851 0.63896 0.0
O110 O 1.01121 0.97749 0.67921 0.0
O111 O 0.08383 0.97932 0.68472 0.0
O112 O 0.5384 0.61453 0.14641 0.0
Cd113 Cd 0.55007 0.54181 0.14494 0.0
Cd114 Cd 0.62863 0.57036 0.12416 0.0
O115 O 0.60741 0.63744 0.13941 0.0
O116 O 0.51049 0.51253 0.17765 0.0
O117 O 0.58343 0.51341 0.18153 0.0
C118 C 0.54552 0.50357 0.19423 0.0
C119 C 0.70027 0.54181 0.1337 0.0
C120 C 0.5672 0.6477 0.14528 0.0
C121 C 0.56705 0.52023 0.07751 0.0
O122 O 0.60127 0.54578 0.08196 0.0
O123 O 0.54236 0.50942 0.10107 0.0
O124 O 0.69261 0.57472 0.11273 0.0
O125 O 0.66749 0.52652 0.15068 0.0
O126 O 1.03263 0.37423 0.14837 0.0
Cd127 Cd 1.02215 0.44716 0.14644 0.0
Cd128 Cd 0.94346 0.41922 0.12525 0.0
O129 O 0.96359 0.35194 0.14087 0.0
O130 O 0.06376 0.47533 0.17811 0.0
O131 O 0.99106 0.47714 0.18368 0.0
C132 C 1.02976 0.48567 0.19547 0.0
C133 C 0.87215 0.4489 0.13443 0.0
C134 C 1.00358 0.34133 0.14716 0.0
C135 C 1.00623 0.46814 0.07871 0.0
O136 O 0.97168 0.44307 0.08307 0.0
O137 O 1.03068 0.47887 0.10236 0.0
O138 O 0.87962 0.41591 0.11349 0.0
O139 O 0.90488 0.46371 0.15158 0.0
O140 O 0.04368 0.37645 0.37995 0.0
Cd141 Cd 0.05618 0.44888 0.38133 0.0
Cd142 Cd 0.13256 0.42021 0.40562 0.0
O143 O 0.11215 0.35355 0.38879 0.0
O144 O 1.01562 0.4774 0.34898 0.0
O145 O 0.08839 0.4775 0.34411 0.0
C146 C 0.05012 0.48663 0.33185 0.0
C147 C 0.20252 0.45242 0.39443 0.0
C148 C 0.0723 0.34324 0.38191 0.0
C149 C 0.06833 0.46968 0.44991 0.0
O150 O 0.10263 0.44342 0.44748 0.0
O151 O 0.04672 0.48121 0.425 0.0
O152 O 0.19781 0.41654 0.41368 0.0
O153 O 0.16763 0.46908 0.38053 0.0
O154 O 0.53867 0.60778 0.38069 0.0
Cd155 Cd 0.5228 0.53614 0.38097 0.0
Cd156 Cd 0.44779 0.56862 0.40517 0.0
O157 O 0.47117 0.63443 0.38871 0.0
O158 O 0.56293 0.50673 0.34862 0.0
O159 O 0.49036 0.51028 0.34303 0.0
C160 C 0.52854 0.49976 0.33101 0.0
C161 C 0.37665 0.53988 0.39387 0.0
C162 C 0.51172 0.64257 0.3826 0.0
C163 C 0.50927 0.51509 0.44927 0.0
O164 O 0.47654 0.54362 0.44694 0.0
O165 O 0.53018 0.50222 0.4243 0.0
O166 O 0.38273 0.57537 0.41322 0.0
O167 O 0.41091 0.52152 0.38004 0.0
O168 O 0.47637 0.44218 0.94591 0.0
Cd169 Cd 0.44571 0.4179 0.90478 0.0
Cd170 Cd 0.52233 0.44671 0.88037 0.0
O171 O 0.53298 0.47913 0.92384 0.0
O172 O 0.3826 0.41409 0.91843 0.0
O173 O 0.40558 0.46258 0.8799 0.0
C174 C 0.37392 0.4476 0.89809 0.0
C175 C 0.52887 0.48509 0.83113 0.0
C176 C 0.51076 0.46806 0.94859 0.0
C177 C 0.50516 0.34067 0.881 0.0
O178 O 0.53371 0.37394 0.87867 0.0
O179 O 0.46543 0.35077 0.8885 0.0
O180 O 0.56319 0.47471 0.84805 0.0
O181 O 0.49042 0.47648 0.8434 0.0
O182 O 0.09923 0.54512 0.94746 0.0
Cd183 Cd 0.13001 0.57036 0.90657 0.0
Cd184 Cd 0.05333 0.54233 0.88176 0.0
O185 O 0.04217 0.50954 0.92514 0.0
O186 O 0.19314 0.5738 0.92009 0.0
O187 O 0.17014 0.5264 0.88106 0.0
C188 C 0.20184 0.5409 0.89932 0.0
C189 C 0.04655 0.50446 0.83233 0.0
C190 C 0.06449 0.51974 0.94995 0.0
C191 C 0.07086 0.64839 0.88352 0.0
O192 O 0.04236 0.6152 0.88045 0.0
O193 O 0.11041 0.63801 0.89125 0.0
O194 O 1.0123 0.51505 0.84933 0.0
O195 O 0.08505 0.51263 0.84458 0.0
O196 O 0.97273 0.54545 0.58246 0.0
Cd197 Cd 0.9454 0.56734 0.62552 0.0
Cd198 Cd 1.0234 0.53786 0.64605 0.0
O199 O 1.02948 0.50559 0.60203 0.0
O200 O 0.88016 0.57401 0.61831 0.0
O201 O 0.90906 0.51869 0.64997 0.0
C202 C 0.87451 0.53758 0.63695 0.0
C203 C 1.02833 0.50074 0.6957 0.0
C204 C 1.00622 0.51854 0.5782 0.0
C205 C 1.00802 0.64319 0.64753 0.0
O206 O 1.03684 0.61007 0.64705 0.0
O207 O 0.96751 0.63299 0.64296 0.0
O208 O 0.06313 0.50812 0.67845 0.0
O209 O 0.99035 0.51112 0.68337 0.0
O210 O 0.60358 0.43794 0.58189 0.0
Cd211 Cd 0.63092 0.41706 0.62511 0.0
Cd212 Cd 0.55316 0.44753 0.64572 0.0
O213 O 0.54712 0.47857 0.60131 0.0
O214 O 0.6965 0.41214 0.61856 0.0
O215 O 0.66541 0.46707 0.64946 0.0
C216 C 0.70071 0.44928 0.63676 0.0
C217 C 0.54759 0.48637 0.69473 0.0
C218 C 0.57019 0.46495 0.57752 0.0
C219 C 0.56838 0.34199 0.64833 0.0
O220 O 0.53977 0.37534 0.64777 0.0
O221 O 0.6089 0.35176 0.64329 0.0
O222 O 0.51297 0.47817 0.67754 0.0
O223 O 0.58571 0.47571 0.68269 0.0
C224 C 0.29083 0.94675 0.13932 0.0
C225 C 0.32947 0.97487 0.13982 0.0
C226 C 0.24875 0.96807 0.14048 0.0
C227 C 0.2438 0.01834 0.14111 0.0
H228 H 0.29312 0.90799 0.13755 0.0
H229 H 0.2199 0.94508 0.13932 0.0
S230 S 0.3344 0.10794 0.14379 0.0
N231 N 0.36001 0.05554 0.14261 0.0
N232 N 0.28103 0.09558 0.14336 0.0
C233 C 0.28213 0.04679 0.14227 0.0
C234 C 0.32494 0.02506 0.14204 0.0
C235 C 0.76585 0.98615 0.36914 0.0
C236 C 0.74495 0.97521 0.39838 0.0
C237 C 0.80776 0.00828 0.36848 0.0
C238 C 0.82908 0.02186 0.39699 0.0
H239 H 0.75014 0.97669 0.34674 0.0
H240 H 0.82328 0.01533 0.34558 0.0
S241 S 0.78763 0.00228 0.47955 0.0
N242 N 0.74875 0.97962 0.45636 0.0
N243 N 0.82611 0.02284 0.45509 0.0
C244 C 0.80805 0.01183 0.42624 0.0
C245 C 0.76632 0.9881 0.42693 0.0
C246 C 0.82446 0.02065 0.88855 0.0
C247 C 0.82941 0.9704 0.88986 0.0
C248 C 0.78236 0.042 0.88854 0.0
C249 C 0.74372 0.01386 0.88874 0.0
H250 H 0.85329 0.04371 0.88907 0.0
H251 H 0.78005 0.08085 0.88885 0.0
S252 S 0.73885 0.88066 0.88967 0.0
N253 N 0.79222 0.89307 0.89013 0.0
N254 N 0.71323 0.93305 0.88868 0.0
C255 C 0.74829 0.96356 0.88845 0.0
C256 C 0.7911 0.94187 0.88941 0.0
C257 C 0.26402 0.98314 0.66108 0.0
C258 C 0.24363 0.9713 0.63187 0.0
C259 C 0.30587 0.00537 0.66173 0.0
C260 C 0.32762 0.01817 0.63317 0.0
H261 H 0.2479 0.97442 0.6835 0.0
H262 H 0.32095 0.01326 0.68462 0.0
S263 S 0.28763 -0.00394 0.55063 0.0
N264 N 0.24841 0.97397 0.57385 0.0
N265 N 0.32567 0.01741 0.57507 0.0
C266 C 0.30715 0.00715 0.60393 0.0
C267 C 0.26548 0.98331 0.60328 0.0
C268 C 0.80828 0.48645 0.10698 0.0
C269 C 0.82846 0.47251 0.13579 0.0
C270 C 0.76738 0.50995 0.10685 0.0
C271 C 0.74436 0.51903 0.13545 0.0
H272 H 0.8246 0.47979 0.08431 0.0
H273 H 0.75321 0.52014 0.08403 0.0
S274 S 0.7825 0.48888 0.21729 0.0
N275 N 0.82285 0.46993 0.19375 0.0
N276 N 0.74447 0.5119 0.19341 0.0
C277 C 0.76382 0.50473 0.16447 0.0
C278 C 0.80633 0.48212 0.16466 0.0
C279 C 0.32706 0.46831 0.38956 0.0
C280 C 0.33213 0.51857 0.38986 0.0
C281 C 0.28493 0.44709 0.39027 0.0
C282 C 0.24636 0.47535 0.3902 0.0
H283 H 0.35585 0.44521 0.39033 0.0
H284 H 0.28253 0.40828 0.39134 0.0
S285 S 0.24176 0.60852 0.3887 0.0
N286 N 0.29512 0.596 0.38901 0.0
N287 N 0.21601 0.55617 0.38884 0.0
C288 C 0.25101 0.52559 0.38892 0.0
C289 C 0.29388 0.54719 0.38918 0.0
C290 C 0.26644 0.50497 0.86969 0.0
C291 C 0.24588 0.5177 0.89872 0.0
C292 C 0.30835 0.48285 0.86937 0.0
C293 C 0.33004 0.47109 0.8981 0.0
H294 H 0.25037 0.51283 0.84714 0.0
H295 H 0.32348 0.47416 0.84659 0.0
S296 S 0.28972 0.49587 0.9803 0.0
N297 N 0.25051 0.51703 0.95676 0.0
N298 N 0.32791 0.47386 0.95617 0.0
C299 C 0.30946 0.48308 0.92716 0.0
C300 C 0.26771 0.50679 0.92747 0.0
C301 C 0.78315 0.44434 0.64102 0.0
C302 C 0.74447 0.47242 0.64095 0.0
C303 C 0.8252 0.46576 0.64162 0.0
C304 C 0.83008 0.51604 0.6411 0.0
H305 H 0.78092 0.40551 0.64012 0.0
H306 H 0.85408 0.44277 0.64093 0.0
S307 S 0.73937 0.60561 0.64202 0.0
N308 N 0.71383 0.55315 0.64203 0.0
N309 N 0.79276 0.5933 0.64175 0.0
C310 C 0.79171 0.54448 0.64173 0.0
C311 C 0.74893 0.5227 0.64205 0.0
C312 C 0.07264 0.98579 0.28438 0.0
C313 C 1.03061 0.98587 0.29889 0.0
C314 C 0.07733 0.9853 0.25102 0.0
C315 C 0.04019 0.98474 0.23081 0.0
H316 H 0.10222 0.9895 0.29872 0.0
H317 H 0.11028 0.98868 0.24112 0.0
S318 S 0.92324 0.97344 0.2569 0.0
N319 N 0.9515 0.97707 0.29056 0.0
N320 N 0.96024 0.97588 0.22788 0.0
C321 C 0.99821 0.97948 0.24504 0.0
C322 C 0.99344 0.98014 0.27907 0.0
C323 C 0.57067 0.00125 0.24561 0.0
C324 C 0.52843 0.00218 0.23152 0.0
C325 C 0.57584 0.00018 0.27892 0.0
C326 C 0.53897 5e-05 0.29946 0.0
H327 H 0.6 -0.00206 0.2309 0.0
H328 H 0.60889 -0.00394 0.28845 0.0
S329 S 0.42176 0.01362 0.27478 0.0
N330 N 0.4495 0.01131 0.24079 0.0
N331 N 0.45915 0.00946 0.30337 0.0
C332 C 0.49683 0.00625 0.28576 0.0
C333 C 0.49158 0.00728 0.25179 0.0
C334 C 0.07656 0.00248 0.75088 0.0
C335 C 0.03964 0.00242 0.73048 0.0
C336 C 0.07148 0.00325 0.78421 0.0
C337 C 1.02927 0.00386 0.79844 0.0
H338 H 0.10959 -0.00148 0.74123 0.0
H339 H 0.10086 -0.00016 0.7988 0.0
S340 S 0.92247 0.01553 0.75561 0.0
N341 N 0.95979 0.01176 0.72688 0.0
N342 N 0.95031 0.01293 0.7895 0.0
C343 C 0.99236 0.00913 0.77832 0.0
C344 C 0.99753 0.00848 0.74433 0.0
C345 C 0.49541 0.98518 0.75148 0.0
C346 C 0.53231 0.98401 0.73097 0.0
C347 C 0.50048 0.98484 0.78481 0.0
C348 C 0.54266 0.98343 0.79897 0.0
H349 H 0.46246 0.98979 0.74186 0.0
H350 H 0.47118 0.98921 0.79943 0.0
S351 S 0.6492 0.96856 0.756 0.0
N352 N 0.61195 0.97275 0.72731 0.0
N353 N 0.62142 0.97236 0.78992 0.0
C354 C 0.57945 0.97697 0.7788 0.0
C355 C 0.57429 0.97719 0.74481 0.0
C356 C 0.49992 0.48989 0.24327 0.0
C357 C 0.54172 0.48957 0.22843 0.0
C358 C 0.49573 0.48895 0.27666 0.0
C359 C 0.53316 0.48753 0.29656 0.0
H360 H 0.47017 0.49419 0.22918 0.0
H361 H 0.46297 0.49258 0.28684 0.0
S362 S 0.64961 0.47519 0.26948 0.0
N363 N 0.62087 0.47965 0.23607 0.0
N364 N 0.61307 0.47766 0.2988 0.0
C365 C 0.57487 0.482 0.28197 0.0
C366 C 0.57914 0.48308 0.24791 0.0
C367 C 1.00317 0.49876 0.28338 0.0
C368 C 0.04534 0.49981 0.29758 0.0
C369 C 0.99814 0.49854 0.25006 0.0
C370 C 1.03508 0.49942 0.22959 0.0
H371 H 0.97381 0.49469 0.29799 0.0
H372 H 0.96517 0.49426 0.24043 0.0
S373 S 0.15204 0.51383 0.25467 0.0
N374 N 0.1242 0.51023 0.28858 0.0
N375 N 0.1148 0.50997 0.22596 0.0
C376 C 0.07709 0.50582 0.24345 0.0
C377 C 0.08221 0.50598 0.27744 0.0
C378 C 0.50102 0.49836 0.74348 0.0
C379 C 0.54301 0.49983 0.72895 0.0
C380 C 0.4964 0.49796 0.77685 0.0
C381 C 0.53359 0.49908 0.797 0.0
H382 H 0.47154 0.49397 0.72911 0.0
H383 H 0.46359 0.49328 0.78676 0.0
S384 S 0.6501 0.51486 0.77095 0.0
N385 N 0.62188 0.51108 0.73728 0.0
N386 N 0.61325 0.51051 0.79997 0.0
C387 C 0.57537 0.506 0.7828 0.0
C388 C 0.58007 0.50634 0.74877 0.0
C389 C 0.07903 0.49083 0.77805 0.0
C390 C 0.04177 0.49043 0.79821 0.0
C391 C 0.07454 0.48979 0.74468 0.0
C392 C 1.03259 0.48841 0.73014 0.0
H393 H 0.11185 0.49526 0.78793 0.0
H394 H 0.10412 0.49348 0.73028 0.0
S395 S 0.92519 0.4757 0.77229 0.0
N396 N 0.96197 0.48016 0.80127 0.0
N397 N 0.95358 0.47843 0.73859 0.0
C398 C 0.9954 0.48287 0.75004 0.0
C399 C 0.99997 0.48384 0.78406 0.0
C400 C 0.07757 0.23123 0.15203 0.0
C401 C 0.0475 0.19269 0.15225 0.0
C402 C 0.06293 0.27898 0.1515 0.0
C403 C 1.01755 0.29041 0.15097 0.0
H404 H 0.11282 0.2246 0.15146 0.0
H405 H 0.08764 0.30711 0.15053 0.0
S406 S 0.92496 0.20304 0.15423 0.0
N407 N 0.96987 0.16942 0.15418 0.0
N408 N 0.94258 0.25913 0.15297 0.0
C409 C 0.98705 0.25234 0.15249 0.0
C410 C 1.00195 0.20359 0.15321 0.0
C411 C 0.49255 0.75747 0.14794 0.0
C412 C 0.52243 0.7961 0.14945 0.0
C413 C 0.50737 0.70977 0.14768 0.0
C414 C 0.55276 0.69852 0.14868 0.0
H415 H 0.45735 0.764 0.14625 0.0
H416 H 0.48287 0.68154 0.14573 0.0
S417 S 0.64475 0.78615 0.15544 0.0
N418 N 0.59979 0.81962 0.15404 0.0
N419 N 0.62741 0.73003 0.15331 0.0
C420 C 0.583 0.73667 0.15136 0.0
C421 C 0.56791 0.78536 0.15183 0.0
C422 C 0.49822 0.73126 0.37893 0.0
C423 C 0.52827 0.69277 0.37991 0.0
C424 C 0.51282 0.77904 0.37917 0.0
C425 C 0.55814 0.79053 0.38071 0.0
H426 H 0.46297 0.72457 0.37853 0.0
H427 H 0.48808 0.80717 0.37907 0.0
S428 S 0.65081 0.70315 0.3816 0.0
N429 N 0.60593 0.66949 0.38076 0.0
N430 N 0.63315 0.75925 0.38147 0.0
C431 C 0.5887 0.75245 0.38068 0.0
C432 C 0.57384 0.70367 0.38019 0.0
C433 C 1.01242 0.28141 0.37791 0.0
C434 C 0.05789 0.29238 0.37861 0.0
C435 C 0.99734 0.23379 0.37806 0.0
C436 C 1.02705 0.19495 0.37867 0.0
H437 H 0.98796 0.30983 0.37822 0.0
H438 H 0.96203 0.22753 0.37837 0.0
S439 S 0.14971 0.20394 0.37786 0.0
N440 N 0.13259 0.26023 0.37795 0.0
N441 N 0.1045 0.1708 0.378 0.0
C442 C 0.07272 0.20533 0.378 0.0
C443 C 0.08805 0.25394 0.37805 0.0
C444 C 1.01106 0.71028 0.87954 0.0
C445 C 0.05652 0.69927 0.8803 0.0
C446 C 0.99603 0.75791 0.8795 0.0
C447 C 1.02577 0.79672 0.87993 0.0
H448 H 0.98658 0.68188 0.87993 0.0
H449 H 0.96072 0.76422 0.87975 0.0
S450 S 0.14842 0.78758 0.87929 0.0
N451 N 0.13125 0.7313 0.87959 0.0
N452 N 0.10325 0.82078 0.87925 0.0
C453 C 0.07143 0.78628 0.87937 0.0
C454 C 0.08672 0.73766 0.87965 0.0
C455 C 0.56494 0.27865 0.87842 0.0
C456 C 0.51957 0.28993 0.87725 0.0
C457 C 0.57972 0.23093 0.87807 0.0
C458 C 0.54982 0.19234 0.8763 0.0
H459 H 0.58942 0.30684 0.88072 0.0
H460 H 0.61488 0.22437 0.88007 0.0
S461 S 0.42766 0.20258 0.86898 0.0
N462 N 0.445 0.25866 0.87168 0.0
N463 N 0.47254 0.169 0.87068 0.0
C464 C 0.5044 0.20318 0.8735 0.0
C465 C 0.48934 0.25188 0.87409 0.0
C466 C 0.49318 0.23268 0.6496 0.0
C467 C 0.52277 0.19398 0.65267 0.0
C468 C 0.50817 0.28032 0.64947 0.0
C469 C 0.55345 0.29142 0.65221 0.0
H470 H 0.45818 0.22626 0.64638 0.0
H471 H 0.484 0.30858 0.64609 0.0
S472 S 0.6443 0.20372 0.66432 0.0
N473 N 0.59945 0.17034 0.66122 0.0
N474 N 0.62741 0.25984 0.66068 0.0
C475 C 0.58325 0.25326 0.65674 0.0
C476 C 0.56797 0.20464 0.65706 0.0
C477 C 0.0821 0.75342 0.64692 0.0
C478 C 0.05224 0.79175 0.65066 0.0
C479 C 0.0676 0.70559 0.64714 0.0
C480 C 1.02257 0.69394 0.65087 0.0
H481 H 0.1169 0.7603 0.64301 0.0
H482 H 0.09193 0.67762 0.64329 0.0
S483 S 0.93122 0.7805 0.66465 0.0
N484 N 0.9756 0.81443 0.66065 0.0
N485 N 0.94859 0.7246 0.66074 0.0
C486 C 0.99253 0.73173 0.65593 0.0
C487 C 1.0073 0.78053 0.65593 0.0
C488 C 1.0004 0.96942 1.01058 0.0
C489 C 1.02209 0.98682 0.98308 0.0
C490 C 1.01618 0.97948 0.04135 0.0
C491 C 0.0544 0.00742 0.04606 0.0
H492 H 0.971 0.94745 1.00845 0.0
H493 H 0.99797 0.96536 0.0616 0.0
S494 S 0.1237 0.06183 0.98206 0.0
N495 N 0.08401 0.03361 0.96265 0.0
N496 N 0.11369 0.05244 0.02037 0.0
C497 C 0.07651 0.02513 0.01877 0.0
C498 C 0.06034 0.01494 0.98738 0.0
C499 C 0.51651 0.97949 0.9883 0.0
C500 C 0.55451 0.00784 0.98369 0.0
C501 C 0.50045 0.96935 0.01902 0.0
C502 C 0.52164 0.98706 0.04658 0.0
H503 H 0.4987 0.96507 0.968 0.0
H504 H 0.47125 0.94703 0.02107 0.0
S505 S 0.62238 0.06341 0.04788 0.0
N506 N 0.61296 0.05375 1.00955 0.0
N507 N 0.58277 0.03474 0.06718 0.0
C508 C 0.55964 0.01564 0.04239 0.0
C509 C 0.57608 0.02593 1.01104 0.0
C510 C 0.55951 0.98329 0.54133 0.0
C511 C 0.51837 0.00536 0.54674 0.0
C512 C 0.57412 0.97274 0.51029 0.0
C513 C 0.54821 0.98368 0.48325 0.0
H514 H 0.58101 0.97448 0.56118 0.0
H515 H 0.60607 0.95569 0.5076 0.0
S516 S 0.43711 0.04045 0.4843 0.0
N517 N 0.45136 0.03705 0.52232 0.0
N518 N 0.47884 0.01727 0.4641 0.0
C519 C 0.50684 0.00558 0.48829 0.0
C520 C 0.49191 0.01631 0.51995 0.0
C521 C 0.0747 0.97225 0.51967 0.0
C522 C 0.04857 0.98304 0.54666 0.0
C523 C 0.06035 0.98299 0.48863 0.0
C524 C 1.01923 0.00504 0.48318 0.0
H525 H 0.10669 0.9553 0.52243 0.0
H526 H 0.08205 0.97442 0.46881 0.0
S527 S 0.9372 0.03916 0.54546 0.0
N528 N 0.97886 0.01607 0.56572 0.0
N529 N 0.95184 0.03617 0.50747 0.0
C530 C 0.99248 0.01567 0.50991 0.0
C531 C 1.00716 0.00478 0.54157 0.0
C532 C 0.51354 0.48345 0.03894 0.0
C533 C 0.55441 0.50603 0.04447 0.0
C534 C 0.4996 0.47206 1.00791 0.0
C535 C 0.52589 0.48273 0.98097 0.0
H536 H 0.49175 0.4748 0.05871 0.0
H537 H 0.46782 0.45467 1.00513 0.0
S538 S 0.63642 0.54075 0.98226 0.0
N539 N 0.62154 0.53798 0.02021 0.0
N540 N 0.59527 0.51663 0.96199 0.0
C541 C 0.56698 0.50513 0.9861 0.0
C542 C 0.58125 0.51668 0.01776 0.0
C543 C 0.0608 0.50372 0.04027 0.0
C544 C 1.0195 0.48197 0.04568 0.0
C545 C 0.07521 0.51492 1.00928 0.0
C546 C 0.04898 0.5049 0.98226 0.0
H547 H 0.08254 0.51191 0.0601 0.0
H548 H 0.10728 0.53173 1.0066 0.0
S549 S 0.93753 0.44898 0.98322 0.0
N550 N 0.9521 0.45135 0.02121 0.0
N551 N 0.97924 0.47235 0.96308 0.0
C552 C 1.00751 0.48323 0.98727 0.0
C553 C 0.99275 0.47187 0.01889 0.0
C554 C 0.06021 0.48048 0.54043 0.0
C555 C 1.02025 0.50537 0.54522 0.0
C556 C 0.07572 0.46997 0.50962 0.0
C557 C 0.052 0.48383 0.48216 0.0
H558 H 0.08007 0.46925 0.56063 0.0
H559 H 0.10662 0.45059 0.50743 0.0
S560 S 0.94496 0.54931 0.48138 0.0
N561 N 0.9569 0.54327 0.51967 0.0
N562 N 0.98605 0.52359 0.46186 0.0
C563 C 1.01187 0.50868 0.48654 0.0
C564 C 0.996 0.51934 0.51798 0.0
C565 C 0.51729 0.5046 0.53976 0.0
C566 C 0.55621 0.47783 0.5445 0.0
C567 C 0.50202 0.51547 0.50898 0.0
C568 C 0.52493 0.50007 0.48148 0.0
H569 H 0.49815 0.51723 0.56 0.0
H570 H 0.47203 0.53646 0.50684 0.0
S571 S 0.62879 0.4288 0.48053 0.0
N572 N 0.61748 0.43607 0.51885 0.0
N573 N 0.58877 0.45644 0.46107 0.0
C574 C 0.56388 0.4731 0.4858 0.0
C575 C 0.57952 0.46208 0.51722 0.0
loop_
_geom_bond_atom_site_label_1
_geom_bond_atom_site_label_2
_geom_bond_distance
_geom_bond_site_symmetry_2
_ccdc_geom_bond_type
O0 Cd1 2.223 1_655 S
O0 C8 1.315 1_655 S
Cd1 O0 2.223 1_455 S
Cd1 O4 2.297 1_455 S
Cd1 O5 2.439 . S
Cd1 O11 2.240 . S
Cd2 O3 2.240 . S
Cd2 O10 2.223 . S
Cd2 O12 2.297 . S
Cd2 O13 2.439 . S
O3 Cd2 2.240 . S
O3 C8 1.279 . S
O4 Cd1 2.297 1_655 S
O4 C6 1.247 1_655 S
O5 Cd1 2.439 . S
O5 C6 1.208 . S
C6 O4 1.247 1_455 S
C6 O5 1.208 . S
C7 O12 1.247 . S
C7 O13 1.208 . S
C8 O0 1.315 1_455 S
C8 O3 1.279 . S
C9 O10 1.315 . S
C9 O11 1.279 . S
O10 Cd2 2.223 . S
O10 C9 1.315 . S
O11 Cd1 2.240 . S
O11 C9 1.279 . S
O12 Cd2 2.297 . S
O12 C7 1.247 . S
O13 Cd2 2.439 . S
O13 C7 1.208 . S
O14 Cd15 2.223 . S
O14 C22 1.315 . S
Cd15 O14 2.223 . S
Cd15 O18 2.297 . S
Cd15 O19 2.439 . S
Cd15 O25 2.240 . S
Cd16 O17 2.240 . S
Cd16 O24 2.223 . S
Cd16 O26 2.297 . S
Cd16 O27 2.439 . S
O17 Cd16 2.240 . S
O17 C22 1.279 . S
O18 Cd15 2.297 . S
O18 C20 1.247 . S
O19 Cd15 2.439 . S
O19 C20 1.208 . S
C20 O18 1.247 . S
C20 O19 1.208 . S
C21 O26 1.247 . S
C21 O27 1.208 . S
C22 O14 1.315 . S
C22 O17 1.279 . S
C23 O24 1.315 . S
C23 O25 1.279 . S
O24 Cd16 2.223 . S
O24 C23 1.315 . S
O25 Cd15 2.240 . S
O25 C23 1.279 . S
O26 Cd16 2.297 . S
O26 C21 1.247 . S
O27 Cd16 2.439 . S
O27 C21 1.208 . S
O28 Cd29 2.223 . S
O28 C36 1.315 . S
Cd29 O28 2.223 . S
Cd29 O32 2.297 . S
Cd29 O33 2.439 . S
Cd29 O39 2.240 . S
Cd30 O31 2.240 . S
Cd30 O38 2.223 . S
Cd30 O40 2.297 . S
Cd30 O41 2.439 . S
O31 Cd30 2.240 . S
O31 C36 1.279 . S
O32 Cd29 2.297 . S
O32 C34 1.247 . S
O33 Cd29 2.439 . S
O33 C34 1.208 . S
C34 O32 1.247 . S
C34 O33 1.208 . S
C35 O40 1.247 . S
C35 O41 1.208 . S
C36 O28 1.315 . S
C36 O31 1.279 . S
C37 O38 1.315 . S
C37 O39 1.279 . S
O38 Cd30 2.223 . S
O38 C37 1.315 . S
O39 Cd29 2.240 . S
O39 C37 1.279 . S
O40 Cd30 2.297 . S
O40 C35 1.247 . S
O41 Cd30 2.439 . S
O41 C35 1.208 . S
O42 Cd43 2.223 1_455 S
O42 C50 1.315 1_455 S
Cd43 O42 2.223 1_655 S
Cd43 O46 2.297 1_655 S
Cd43 O47 2.439 . S
Cd43 O53 2.240 . S
Cd44 O45 2.240 . S
Cd44 O52 2.223 . S
Cd44 O54 2.297 . S
Cd44 O55 2.439 . S
O45 Cd44 2.240 . S
O45 C50 1.279 . S
O46 Cd43 2.297 1_455 S
O46 C48 1.247 1_455 S
O47 Cd43 2.439 . S
O47 C48 1.208 . S
C48 O46 1.247 1_655 S
C48 O47 1.208 . S
C49 O54 1.247 . S
C49 O55 1.208 . S
C50 O42 1.315 1_655 S
C50 O45 1.279 . S
C51 O52 1.315 . S
C51 O53 1.279 . S
O52 Cd44 2.223 . S
O52 C51 1.315 . S
O53 Cd43 2.240 . S
O53 C51 1.279 . S
O54 Cd44 2.297 . S
O54 C49 1.247 . S
O55 Cd44 2.439 . S
O55 C49 1.208 . S
O56 Cd57 2.223 . S
O56 C64 1.315 . S
Cd57 O56 2.223 . S
Cd57 O60 2.297 . S
Cd57 O61 2.439 . S
Cd57 O67 2.240 . S
Cd58 O59 2.240 . S
Cd58 O66 2.223 1_655 S
Cd58 O68 2.297 1_655 S
Cd58 O69 2.439 . S
O59 Cd58 2.240 . S
O59 C64 1.279 . S
O60 Cd57 2.297 . S
O60 C62 1.247 . S
O61 Cd57 2.439 . S
O61 C62 1.208 . S
C62 O60 1.247 . S
C62 O61 1.208 . S
C63 O68 1.247 1_655 S
C63 O69 1.208 . S
C64 O56 1.315 . S
C64 O59 1.279 . S
C65 O66 1.315 1_655 S
C65 O67 1.279 . S
O66 Cd58 2.223 1_455 S
O66 C65 1.315 1_455 S
O67 Cd57 2.240 . S
O67 C65 1.279 . S
O68 Cd58 2.297 1_455 S
O68 C63 1.247 1_455 S
O69 Cd58 2.439 . S
O69 C63 1.208 . S
O70 Cd71 2.223 . S
O70 C78 1.315 . S
Cd71 O70 2.223 . S
Cd71 O74 2.297 . S
Cd71 O75 2.439 . S
Cd71 O81 2.240 . S
Cd72 O73 2.240 . S
Cd72 O80 2.223 . S
Cd72 O82 2.297 . S
Cd72 O83 2.439 . S
O73 Cd72 2.240 . S
O73 C78 1.279 . S
O74 Cd71 2.297 . S
O74 C76 1.247 . S
O75 Cd71 2.439 . S
O75 C76 1.208 . S
C76 O74 1.247 . S
C76 O75 1.208 . S
C77 O82 1.247 . S
C77 O83 1.208 . S
C78 O70 1.315 . S
C78 O73 1.279 . S
C79 O80 1.315 . S
C79 O81 1.279 . S
O80 Cd72 2.223 . S
O80 C79 1.315 . S
O81 Cd71 2.240 . S
O81 C79 1.279 . S
O82 Cd72 2.297 . S
O82 C77 1.247 . S
O83 Cd72 2.439 . S
O83 C77 1.208 . S
O84 Cd85 2.223 . S
O84 C92 1.315 . S
Cd85 O84 2.223 . S
Cd85 O88 2.297 . S
Cd85 O89 2.439 . S
Cd85 O95 2.240 . S
Cd86 O87 2.240 . S
Cd86 O94 2.223 . S
Cd86 O96 2.297 . S
Cd86 O97 2.439 . S
O87 Cd86 2.240 . S
O87 C92 1.279 . S
O88 Cd85 2.297 . S
O88 C90 1.247 . S
O89 Cd85 2.439 . S
O89 C90 1.208 . S
C90 O88 1.247 . S
C90 O89 1.208 . S
C91 O96 1.247 . S
C91 O97 1.208 . S
C92 O84 1.315 . S
C92 O87 1.279 . S
C93 O94 1.315 . S
C93 O95 1.279 . S
O94 Cd86 2.223 . S
O94 C93 1.315 . S
O95 Cd85 2.240 . S
O95 C93 1.279 . S
O96 Cd86 2.297 . S
O96 C91 1.247 . S
O97 Cd86 2.439 . S
O97 C91 1.208 . S
O98 Cd99 2.223 . S
O98 C106 1.315 . S
Cd99 O98 2.223 . S
Cd99 O102 2.297 . S
Cd99 O103 2.439 . S
Cd99 O109 2.240 . S
Cd100 O101 2.240 . S
Cd100 O108 2.223 1_455 S
Cd100 O110 2.297 1_455 S
Cd100 O111 2.439 . S
O101 Cd100 2.240 . S
O101 C106 1.279 . S
O102 Cd99 2.297 . S
O102 C104 1.247 . S
O103 Cd99 2.439 . S
O103 C104 1.208 . S
C104 O102 1.247 . S
C104 O103 1.208 . S
C105 O110 1.247 1_455 S
C105 O111 1.208 . S
C106 O98 1.315 . S
C106 O101 1.279 . S
C107 O108 1.315 1_455 S
C107 O109 1.279 . S
O108 Cd100 2.223 1_655 S
O108 C107 1.315 1_655 S
O109 Cd99 2.240 . S
O109 C107 1.279 . S
O110 Cd100 2.297 1_655 S
O110 C105 1.247 1_655 S
O111 Cd100 2.439 . S
O111 C105 1.208 . S
O112 Cd113 2.223 . S
O112 C120 1.315 . S
Cd113 O112 2.223 . S
Cd113 O116 2.297 . S
Cd113 O117 2.439 . S
Cd113 O123 2.240 . S
Cd114 O115 2.240 . S
Cd114 O122 2.223 . S
Cd114 O124 2.297 . S
Cd114 O125 2.439 . S
O115 Cd114 2.240 . S
O115 C120 1.279 . S
O116 Cd113 2.297 . S
O116 C118 1.247 . S
O117 Cd113 2.439 . S
O117 C118 1.208 . S
C118 O116 1.247 . S
C118 O117 1.208 . S
C119 O124 1.247 . S
C119 O125 1.208 . S
C120 O112 1.315 . S
C120 O115 1.279 . S
C121 O122 1.315 . S
C121 O123 1.279 . S
O122 Cd114 2.223 . S
O122 C121 1.315 . S
O123 Cd113 2.240 . S
O123 C121 1.279 . S
O124 Cd114 2.297 . S
O124 C119 1.247 . S
O125 Cd114 2.439 . S
O125 C119 1.208 . S
O126 Cd127 2.223 1_455 S
O126 C134 1.315 1_455 S
Cd127 O126 2.223 1_655 S
Cd127 O130 2.297 1_655 S
Cd127 O131 2.439 . S
Cd127 O137 2.240 . S
Cd128 O129 2.240 . S
Cd128 O136 2.223 . S
Cd128 O138 2.297 . S
Cd128 O139 2.439 . S
O129 Cd128 2.240 . S
O129 C134 1.279 . S
O130 Cd127 2.297 1_455 S
O130 C132 1.247 1_455 S
O131 Cd127 2.439 . S
O131 C132 1.208 . S
C132 O130 1.247 1_655 S
C132 O131 1.208 . S
C133 O138 1.247 . S
C133 O139 1.208 . S
C134 O126 1.315 1_655 S
C134 O129 1.279 . S
C135 O136 1.315 . S
C135 O137 1.279 . S
O136 Cd128 2.223 . S
O136 C135 1.315 . S
O137 Cd127 2.240 . S
O137 C135 1.279 . S
O138 Cd128 2.297 . S
O138 C133 1.247 . S
O139 Cd128 2.439 . S
O139 C133 1.208 . S
O140 Cd141 2.223 1_655 S
O140 C148 1.315 1_655 S
Cd141 O140 2.223 1_455 S
Cd141 O144 2.297 1_455 S
Cd141 O145 2.439 . S
Cd141 O151 2.240 . S
Cd142 O143 2.240 . S
Cd142 O150 2.223 . S
Cd142 O152 2.297 . S
Cd142 O153 2.439 . S
O143 Cd142 2.240 . S
O143 C148 1.279 . S
O144 Cd141 2.297 1_655 S
O144 C146 1.247 1_655 S
O145 Cd141 2.439 . S
O145 C146 1.208 . S
C146 O144 1.247 1_455 S
C146 O145 1.208 . S
C147 O152 1.247 . S
C147 O153 1.208 . S
C148 O140 1.315 1_455 S
C148 O143 1.279 . S
C149 O150 1.315 . S
C149 O151 1.279 . S
O150 Cd142 2.223 . S
O150 C149 1.315 . S
O151 Cd141 2.240 . S
O151 C149 1.279 . S
O152 Cd142 2.297 . S
O152 C147 1.247 . S
O153 Cd142 2.439 . S
O153 C147 1.208 . S
O154 Cd155 2.223 . S
O154 C162 1.315 . S
Cd155 O154 2.223 . S
Cd155 O158 2.297 . S
Cd155 O159 2.439 . S
Cd155 O165 2.240 . S
Cd156 O157 2.240 . S
Cd156 O164 2.223 . S
Cd156 O166 2.297 . S
Cd156 O167 2.439 . S
O157 Cd156 2.240 . S
O157 C162 1.279 . S
O158 Cd155 2.297 . S
O158 C160 1.247 . S
O159 Cd155 2.439 . S
O159 C160 1.208 . S
C160 O158 1.247 . S
C160 O159 1.208 . S
C161 O166 1.247 . S
C161 O167 1.208 . S
C162 O154 1.315 . S
C162 O157 1.279 . S
C163 O164 1.315 . S
C163 O165 1.279 . S
O164 Cd156 2.223 . S
O164 C163 1.315 . S
O165 Cd155 2.240 . S
O165 C163 1.279 . S
O166 Cd156 2.297 . S
O166 C161 1.247 . S
O167 Cd156 2.439 . S
O167 C161 1.208 . S
O168 Cd169 2.223 . S
O168 C176 1.315 . S
Cd169 O168 2.223 . S
Cd169 O172 2.297 . S
Cd169 O173 2.439 . S
Cd169 O179 2.240 . S
Cd170 O171 2.240 . S
Cd170 O178 2.223 . S
Cd170 O180 2.297 . S
Cd170 O181 2.439 . S
O171 Cd170 2.240 . S
O171 C176 1.279 . S
O172 Cd169 2.297 . S
O172 C174 1.247 . S
O173 Cd169 2.439 . S
O173 C174 1.208 . S
C174 O172 1.247 . S
C174 O173 1.208 . S
C175 O180 1.247 . S
C175 O181 1.208 . S
C176 O168 1.315 . S
C176 O171 1.279 . S
C177 O178 1.315 . S
C177 O179 1.279 . S
O178 Cd170 2.223 . S
O178 C177 1.315 . S
O179 Cd169 2.240 . S
O179 C177 1.279 . S
O180 Cd170 2.297 . S
O180 C175 1.247 . S
O181 Cd170 2.439 . S
O181 C175 1.208 . S
O182 Cd183 2.223 . S
O182 C190 1.315 . S
Cd183 O182 2.223 . S
Cd183 O186 2.297 . S
Cd183 O187 2.439 . S
Cd183 O193 2.240 . S
Cd184 O185 2.240 . S
Cd184 O192 2.223 1_455 S
Cd184 O194 2.297 1_455 S
Cd184 O195 2.439 . S
O185 Cd184 2.240 . S
O185 C190 1.279 . S
O186 Cd183 2.297 . S
O186 C188 1.247 . S
O187 Cd183 2.439 . S
O187 C188 1.208 . S
C188 O186 1.247 . S
C188 O187 1.208 . S
C189 O194 1.247 1_455 S
C189 O195 1.208 . S
C190 O182 1.315 . S
C190 O185 1.279 . S
C191 O192 1.315 1_455 S
C191 O193 1.279 . S
O192 Cd184 2.223 1_655 S
O192 C191 1.315 1_655 S
O193 Cd183 2.240 . S
O193 C191 1.279 . S
O194 Cd184 2.297 1_655 S
O194 C189 1.247 1_655 S
O195 Cd184 2.439 . S
O195 C189 1.208 . S
O196 Cd197 2.223 . S
O196 C204 1.315 . S
Cd197 O196 2.223 . S
Cd197 O200 2.297 . S
Cd197 O201 2.439 . S
Cd197 O207 2.240 . S
Cd198 O199 2.240 . S
Cd198 O206 2.223 1_655 S
Cd198 O208 2.297 1_655 S
Cd198 O209 2.439 . S
O199 Cd198 2.240 . S
O199 C204 1.279 . S
O200 Cd197 2.297 . S
O200 C202 1.247 . S
O201 Cd197 2.439 . S
O201 C202 1.208 . S
C202 O200 1.247 . S
C202 O201 1.208 . S
C203 O208 1.247 1_655 S
C203 O209 1.208 . S
C204 O196 1.315 . S
C204 O199 1.279 . S
C205 O206 1.315 1_655 S
C205 O207 1.279 . S
O206 Cd198 2.223 1_455 S
O206 C205 1.315 1_455 S
O207 Cd197 2.240 . S
O207 C205 1.279 . S
O208 Cd198 2.297 1_455 S
O208 C203 1.247 1_455 S
O209 Cd198 2.439 . S
O209 C203 1.208 . S
O210 Cd211 2.223 . S
O210 C218 1.315 . S
Cd211 O210 2.223 . S
Cd211 O214 2.297 . S
Cd211 O215 2.439 . S
Cd211 O221 2.240 . S
Cd212 O213 2.240 . S
Cd212 O220 2.223 . S
Cd212 O222 2.297 . S
Cd212 O223 2.439 . S
O213 Cd212 2.240 . S
O213 C218 1.279 . S
O214 Cd211 2.297 . S
O214 C216 1.247 . S
O215 Cd211 2.439 . S
O215 C216 1.208 . S
C216 O214 1.247 . S
C216 O215 1.208 . S
C217 O222 1.247 . S
C217 O223 1.208 . S
C218 O210 1.315 . S
C218 O213 1.279 . S
C219 O220 1.315 . S
C219 O221 1.279 . S
O220 Cd212 2.223 . S
O220 C219 1.315 . S
O221 Cd211 2.240 . S
O221 C219 1.279 . S
O222 Cd212 2.297 . S
O222 C217 1.247 . S
O223 Cd212 2.439 . S
O223 C217 1.208 . S
C224 C225 1.369 . S
C224 C226 1.419 . S
C224 H228 0.930 . S
C225 C224 1.369 . S
C225 C234 1.429 1_565 S
C226 C224 1.419 . S
C226 C227 1.363 1_565 S
C226 H229 0.929 . S
C227 C226 1.363 1_545 S
C227 C233 1.428 . S
H228 C224 0.930 . S
H229 C226 0.929 . S
S230 N231 1.613 . S
S230 N232 1.610 . S
N231 S230 1.613 . S
N231 C234 1.350 . S
N232 S230 1.610 . S
N232 C233 1.351 . S
C233 C227 1.428 . S
C233 N232 1.351 . S
C233 C234 1.434 . S
C234 C225 1.429 1_545 S
C234 N231 1.350 . S
C234 C233 1.434 . S
C235 C236 1.369 . S
C235 C237 1.419 . S
C235 H239 0.930 . S
C236 C235 1.369 . S
C236 C245 1.429 1_565 S
C237 C235 1.419 . S
C237 C238 1.363 1_565 S
C237 H240 0.929 . S
C238 C237 1.363 1_545 S
C238 C244 1.428 . S
H239 C235 0.930 . S
H240 C237 0.929 . S
S241 N242 1.613 . S
S241 N243 1.610 . S
N242 S241 1.613 . S
N242 C245 1.350 . S
N243 S241 1.610 . S
N243 C244 1.351 . S
C244 C238 1.428 . S
C244 N243 1.351 . S
C244 C245 1.434 . S
C245 C236 1.429 1_545 S
C245 N242 1.350 . S
C245 C244 1.434 . S
C246 C247 1.369 1_545 S
C246 C248 1.419 . S
C246 H250 0.930 . S
C247 C246 1.369 1_565 S
C247 C256 1.429 . S
C248 C246 1.419 . S
C248 C249 1.363 . S
C248 H251 0.929 . S
C249 C248 1.363 . S
C249 C255 1.428 1_545 S
H250 C246 0.930 . S
H251 C248 0.929 . S
S252 N253 1.613 . S
S252 N254 1.610 . S
N253 S252 1.613 . S
N253 C256 1.350 . S
N254 S252 1.610 . S
N254 C255 1.351 . S
C255 C249 1.428 1_565 S
C255 N254 1.351 . S
C255 C256 1.434 . S
C256 C247 1.429 . S
C256 N253 1.350 . S
C256 C255 1.434 . S
C257 C258 1.369 . S
C257 C259 1.419 1_565 S
C257 H261 0.930 . S
C258 C257 1.369 . S
C258 C267 1.429 . S
C259 C257 1.419 1_545 S
C259 C260 1.363 . S
C259 H262 0.929 . S
C260 C259 1.363 . S
C260 C266 1.428 . S
H261 C257 0.930 . S
H262 C259 0.929 . S
S263 N264 1.613 . S
S263 N265 1.611 1_565 S
N264 S263 1.613 . S
N264 C267 1.350 . S
N265 S263 1.611 1_545 S
N265 C266 1.351 . S
C266 C260 1.428 . S
C266 N265 1.351 . S
C266 C267 1.434 1_545 S
C267 C258 1.429 . S
C267 N264 1.350 . S
C267 C266 1.434 1_565 S
C268 C269 1.369 . S
C268 C270 1.419 . S
C268 H272 0.930 . S
C269 C268 1.369 . S
C269 C278 1.429 . S
C270 C268 1.419 . S
C270 C271 1.363 . S
C270 H273 0.929 . S
C271 C270 1.363 . S
C271 C277 1.428 . S
H272 C268 0.930 . S
H273 C270 0.929 . S
S274 N275 1.613 . S
S274 N276 1.610 . S
N275 S274 1.613 . S
N275 C278 1.350 . S
N276 S274 1.610 . S
N276 C277 1.351 . S
C277 C271 1.428 . S
C277 N276 1.351 . S
C277 C278 1.434 . S
C278 C269 1.429 . S
C278 N275 1.350 . S
C278 C277 1.434 . S
C279 C280 1.369 . S
C279 C281 1.419 . S
C279 H283 0.930 . S
C280 C279 1.369 . S
C280 C289 1.429 . S
C281 C279 1.419 . S
C281 C282 1.363 . S
C281 H284 0.929 . S
C282 C281 1.363 . S
C282 C288 1.428 . S
H283 C279 0.930 . S
H284 C281 0.929 . S
S285 N286 1.613 . S
S285 N287 1.610 . S
N286 S285 1.613 . S
N286 C289 1.350 . S
N287 S285 1.610 . S
N287 C288 1.351 . S
C288 C282 1.428 . S
C288 N287 1.351 . S
C288 C289 1.434 . S
C289 C280 1.429 . S
C289 N286 1.350 . S
C289 C288 1.434 . S
C290 C291 1.369 . S
C290 C292 1.419 . S
C290 H294 0.930 . S
C291 C290 1.369 . S
C291 C300 1.429 . S
C292 C290 1.419 . S
C292 C293 1.363 . S
C292 H295 0.929 . S
C293 C292 1.363 . S
C293 C299 1.428 . S
H294 C290 0.930 . S
H295 C292 0.929 . S
S296 N297 1.613 . S
S296 N298 1.610 . S
N297 S296 1.613 . S
N297 C300 1.350 . S
N298 S296 1.610 . S
N298 C299 1.351 . S
C299 C293 1.428 . S
C299 N298 1.351 . S
C299 C300 1.434 . S
C300 C291 1.429 . S
C300 N297 1.350 . S
C300 C299 1.434 . S
C301 C302 1.369 . S
C301 C303 1.419 . S
C301 H305 0.930 . S
C302 C301 1.369 . S
C302 C311 1.429 . S
C303 C301 1.419 . S
C303 C304 1.363 . S
C303 H306 0.929 . S
C304 C303 1.363 . S
C304 C310 1.428 . S
H305 C301 0.930 . S
H306 C303 0.929 . S
S307 N308 1.613 . S
S307 N309 1.610 . S
N308 S307 1.613 . S
N308 C311 1.350 . S
N309 S307 1.610 . S
N309 C310 1.351 . S
C310 C304 1.428 . S
C310 N309 1.351 . S
C310 C311 1.434 . S
C311 C302 1.429 . S
C311 N308 1.350 . S
C311 C310 1.434 . S
C312 C313 1.369 1_455 S
C312 C314 1.419 . S
C312 H316 0.930 . S
C313 C312 1.369 1_655 S
C313 C322 1.429 . S
C314 C312 1.419 . S
C314 C315 1.363 . S
C314 H317 0.929 . S
C315 C314 1.363 . S
C315 C321 1.428 1_455 S
H316 C312 0.930 . S
H317 C314 0.929 . S
S318 N319 1.613 1_565 S
S318 N320 1.610 1_565 S
N319 S318 1.613 1_545 S
N319 C322 1.350 . S
N320 S318 1.610 1_545 S
N320 C321 1.351 . S
C321 C315 1.428 1_655 S
C321 N320 1.351 . S
C321 C322 1.434 . S
C322 C313 1.429 . S
C322 N319 1.350 . S
C322 C321 1.434 . S
C323 C324 1.369 . S
C323 C325 1.419 . S
C323 H327 0.930 . S
C324 C323 1.369 . S
C324 C333 1.429 . S
C325 C323 1.419 . S
C325 C326 1.363 . S
C325 H328 0.929 . S
C326 C325 1.363 . S
C326 C332 1.428 . S
H327 C323 0.930 . S
H328 C325 0.929 . S
S329 N330 1.613 . S
S329 N331 1.610 . S
N330 S329 1.613 . S
N330 C333 1.350 . S
N331 S329 1.610 . S
N331 C332 1.351 . S
C332 C326 1.428 . S
C332 N331 1.351 . S
C332 C333 1.434 . S
C333 C324 1.429 . S
C333 N330 1.350 . S
C333 C332 1.434 . S
C334 C335 1.369 . S
C334 C336 1.419 . S
C334 H338 0.930 . S
C335 C334 1.369 . S
C335 C344 1.429 1_455 S
C336 C334 1.419 . S
C336 C337 1.363 1_455 S
C336 H339 0.929 . S
C337 C336 1.363 1_655 S
C337 C343 1.428 . S
H338 C334 0.930 . S
H339 C336 0.929 . S
S340 N341 1.613 . S
S340 N342 1.610 . S
N341 S340 1.613 . S
N341 C344 1.350 1_545 S
N342 S340 1.610 . S
N342 C343 1.351 1_545 S
C343 C337 1.428 . S
C343 N342 1.351 1_565 S
C343 C344 1.434 . S
C344 C335 1.429 1_655 S
C344 N341 1.350 1_565 S
C344 C343 1.434 . S
C345 C346 1.369 . S
C345 C347 1.419 . S
C345 H349 0.930 . S
C346 C345 1.369 . S
C346 C355 1.429 . S
C347 C345 1.419 . S
C347 C348 1.363 . S
C347 H350 0.929 . S
C348 C347 1.363 . S
C348 C354 1.428 . S
H349 C345 0.930 . S
H350 C347 0.929 . S
S351 N352 1.613 1_565 S
S351 N353 1.610 1_565 S
N352 S351 1.613 1_545 S
N352 C355 1.350 . S
N353 S351 1.610 1_545 S
N353 C354 1.351 . S
C354 C348 1.428 . S
C354 N353 1.351 . S
C354 C355 1.434 . S
C355 C346 1.429 . S
C355 N352 1.350 . S
C355 C354 1.434 . S
C356 C357 1.369 . S
C356 C358 1.419 . S
C356 H360 0.930 . S
C357 C356 1.369 . S
C357 C366 1.429 . S
C358 C356 1.419 . S
C358 C359 1.363 . S
C358 H361 0.929 . S
C359 C358 1.363 . S
C359 C365 1.428 . S
H360 C356 0.930 . S
H361 C358 0.929 . S
S362 N363 1.613 . S
S362 N364 1.610 . S
N363 S362 1.613 . S
N363 C366 1.350 . S
N364 S362 1.610 . S
N364 C365 1.351 . S
C365 C359 1.428 . S
C365 N364 1.351 . S
C365 C366 1.434 . S
C366 C357 1.429 . S
C366 N363 1.350 . S
C366 C365 1.434 . S
C367 C368 1.369 1_655 S
C367 C369 1.419 . S
C367 H371 0.930 . S
C368 C367 1.369 1_455 S
C368 C377 1.429 . S
C369 C367 1.419 . S
C369 C370 1.363 . S
C369 H372 0.929 . S
C370 C369 1.363 . S
C370 C376 1.428 1_655 S
H371 C367 0.930 . S
H372 C369 0.929 . S
S373 N374 1.613 . S
S373 N375 1.610 . S
N374 S373 1.613 . S
N374 C377 1.350 . S
N375 S373 1.610 . S
N375 C376 1.351 . S
C376 C370 1.428 1_455 S
C376 N375 1.351 . S
C376 C377 1.434 . S
C377 C368 1.429 . S
C377 N374 1.350 . S
C377 C376 1.434 . S
C378 C379 1.369 . S
C378 C380 1.419 . S
C378 H382 0.930 . S
C379 C378 1.369 . S
C379 C388 1.429 . S
C380 C378 1.419 . S
C380 C381 1.363 . S
C380 H383 0.929 . S
C381 C380 1.363 . S
C381 C387 1.428 . S
H382 C378 0.930 . S
H383 C380 0.929 . S
S384 N385 1.613 . S
S384 N386 1.610 . S
N385 S384 1.613 . S
N385 C388 1.350 . S
N386 S384 1.610 . S
N386 C387 1.351 . S
C387 C381 1.428 . S
C387 N386 1.351 . S
C387 C388 1.434 . S
C388 C379 1.429 . S
C388 N385 1.350 . S
C388 C387 1.434 . S
C389 C390 1.369 . S
C389 C391 1.419 . S
C389 H393 0.930 . S
C390 C389 1.369 . S
C390 C399 1.429 1_455 S
C391 C389 1.419 . S
C391 C392 1.363 1_455 S
C391 H394 0.929 . S
C392 C391 1.363 1_655 S
C392 C398 1.428 . S
H393 C389 0.930 . S
H394 C391 0.929 . S
S395 N396 1.613 . S
S395 N397 1.610 . S
N396 S395 1.613 . S
N396 C399 1.350 . S
N397 S395 1.610 . S
N397 C398 1.351 . S
C398 C392 1.428 . S
C398 N397 1.351 . S
C398 C399 1.434 . S
C399 C390 1.429 1_655 S
C399 N396 1.350 . S
C399 C398 1.434 . S
C400 C401 1.369 . S
C400 C402 1.419 . S
C400 H404 0.930 . S
C401 C400 1.369 . S
C401 C410 1.429 1_455 S
C402 C400 1.419 . S
C402 C403 1.363 1_455 S
C402 H405 0.929 . S
C403 C402 1.363 1_655 S
C403 C409 1.428 . S
H404 C400 0.930 . S
H405 C402 0.929 . S
S406 N407 1.613 . S
S406 N408 1.610 . S
N407 S406 1.613 . S
N407 C410 1.350 . S
N408 S406 1.610 . S
N408 C409 1.351 . S
C409 C403 1.428 . S
C409 N408 1.351 . S
C409 C410 1.434 . S
C410 C401 1.429 1_655 S
C410 N407 1.350 . S
C410 C409 1.434 . S
C411 C412 1.369 . S
C411 C413 1.419 . S
C411 H415 0.930 . S
C412 C411 1.369 . S
C412 C421 1.429 . S
C413 C411 1.419 . S
C413 C414 1.363 . S
C413 H416 0.929 . S
C414 C413 1.363 . S
C414 C420 1.428 . S
H415 C411 0.930 . S
H416 C413 0.929 . S
S417 N418 1.613 . S
S417 N419 1.610 . S
N418 S417 1.613 . S
N418 C421 1.350 . S
N419 S417 1.610 . S
N419 C420 1.351 . S
C420 C414 1.428 . S
C420 N419 1.351 . S
C420 C421 1.434 . S
C421 C412 1.429 . S
C421 N418 1.350 . S
C421 C420 1.434 . S
C422 C423 1.369 . S
C422 C424 1.419 . S
C422 H426 0.930 . S
C423 C422 1.369 . S
C423 C432 1.429 . S
C424 C422 1.419 . S
C424 C425 1.363 . S
C424 H427 0.929 . S
C425 C424 1.363 . S
C425 C431 1.428 . S
H426 C422 0.930 . S
H427 C424 0.929 . S
S428 N429 1.613 . S
S428 N430 1.610 . S
N429 S428 1.613 . S
N429 C432 1.350 . S
N430 S428 1.610 . S
N430 C431 1.351 . S
C431 C425 1.428 . S
C431 N430 1.351 . S
C431 C432 1.434 . S
C432 C423 1.429 . S
C432 N429 1.350 . S
C432 C431 1.434 . S
C433 C434 1.369 1_655 S
C433 C435 1.419 . S
C433 H437 0.930 . S
C434 C433 1.369 1_455 S
C434 C443 1.429 . S
C435 C433 1.419 . S
C435 C436 1.363 . S
C435 H438 0.929 . S
C436 C435 1.363 . S
C436 C442 1.428 1_655 S
H437 C433 0.930 . S
H438 C435 0.929 . S
S439 N440 1.613 . S
S439 N441 1.610 . S
N440 S439 1.613 . S
N440 C443 1.350 . S
N441 S439 1.610 . S
N441 C442 1.351 . S
C442 C436 1.428 1_455 S
C442 N441 1.351 . S
C442 C443 1.434 . S
C443 C434 1.429 . S
C443 N440 1.350 . S
C443 C442 1.434 . S
C444 C445 1.369 1_655 S
C444 C446 1.419 . S
C444 H448 0.930 . S
C445 C444 1.369 1_455 S
C445 C454 1.429 . S
C446 C444 1.419 . S
C446 C447 1.363 . S
C446 H449 0.929 . S
C447 C446 1.363 . S
C447 C453 1.428 1_655 S
H448 C444 0.930 . S
H449 C446 0.929 . S
S450 N451 1.613 . S
S450 N452 1.610 . S
N451 S450 1.613 . S
N451 C454 1.350 . S
N452 S450 1.610 . S
N452 C453 1.351 . S
C453 C447 1.428 1_455 S
C453 N452 1.351 . S
C453 C454 1.434 . S
C454 C445 1.429 . S
C454 N451 1.350 . S
C454 C453 1.434 . S
C455 C456 1.369 . S
C455 C457 1.419 . S
C455 H459 0.930 . S
C456 C455 1.369 . S
C456 C465 1.429 . S
C457 C455 1.419 . S
C457 C458 1.363 . S
C457 H460 0.929 . S
C458 C457 1.363 . S
C458 C464 1.428 . S
H459 C455 0.930 . S
H460 C457 0.929 . S
S461 N462 1.613 . S
S461 N463 1.610 . S
N462 S461 1.613 . S
N462 C465 1.350 . S
N463 S461 1.610 . S
N463 C464 1.351 . S
C464 C458 1.428 . S
C464 N463 1.351 . S
C464 C465 1.434 . S
C465 C456 1.429 . S
C465 N462 1.350 . S
C465 C464 1.434 . S
C466 C467 1.369 . S
C466 C468 1.419 . S
C466 H470 0.930 . S
C467 C466 1.369 . S
C467 C476 1.429 . S
C468 C466 1.419 . S
C468 C469 1.363 . S
C468 H471 0.929 . S
C469 C468 1.363 . S
C469 C475 1.428 . S
H470 C466 0.930 . S
H471 C468 0.929 . S
S472 N473 1.613 . S
S472 N474 1.610 . S
N473 S472 1.613 . S
N473 C476 1.350 . S
N474 S472 1.610 . S
N474 C475 1.351 . S
C475 C469 1.428 . S
C475 N474 1.351 . S
C475 C476 1.434 . S
C476 C467 1.429 . S
C476 N473 1.350 . S
C476 C475 1.434 . S
C477 C478 1.369 . S
C477 C479 1.419 . S
C477 H481 0.930 . S
C478 C477 1.369 . S
C478 C487 1.429 1_455 S
C479 C477 1.419 . S
C479 C480 1.363 1_455 S
C479 H482 0.929 . S
C480 C479 1.363 1_655 S
C480 C486 1.428 . S
H481 C477 0.930 . S
H482 C479 0.929 . S
S483 N484 1.613 . S
S483 N485 1.610 . S
N484 S483 1.613 . S
N484 C487 1.350 . S
N485 S483 1.610 . S
N485 C486 1.351 . S
C486 C480 1.428 . S
C486 N485 1.351 . S
C486 C487 1.434 . S
C487 C478 1.429 1_655 S
C487 N484 1.350 . S
C487 C486 1.434 . S
C488 C489 1.369 1_455 S
C488 C490 1.419 1_556 S
C488 H492 0.930 . S
C489 C488 1.369 1_655 S
C489 C498 1.429 1_565 S
C490 C488 1.419 1_554 S
C490 C491 1.363 1_565 S
C490 H493 0.929 . S
C491 C490 1.363 1_545 S
C491 C497 1.428 1_455 S
H492 C488 0.930 . S
H493 C490 0.929 . S
S494 N495 1.613 . S
S494 N496 1.610 1_556 S
N495 S494 1.613 . S
N495 C498 1.350 . S
N496 S494 1.610 1_554 S
N496 C497 1.351 . S
C497 C491 1.428 1_655 S
C497 N496 1.351 . S
C497 C498 1.434 1_554 S
C498 C489 1.429 1_545 S
C498 N495 1.350 . S
C498 C497 1.434 1_556 S
C499 C500 1.369 1_565 S
C499 C501 1.419 1_556 S
C499 H503 0.930 . S
C500 C499 1.369 1_545 S
C500 C509 1.429 . S
C501 C499 1.419 1_554 S
C501 C502 1.363 . S
C501 H504 0.929 . S
C502 C501 1.363 . S
C502 C508 1.428 1_565 S
H503 C499 0.930 . S
H504 C501 0.929 . S
S505 N506 1.613 1_554 S
S505 N507 1.610 . S
N506 S505 1.613 1_556 S
N506 C509 1.350 . S
N507 S505 1.610 . S
N507 C508 1.351 . S
C508 C502 1.428 1_545 S
C508 N507 1.351 . S
C508 C509 1.434 1_554 S
C509 C500 1.429 . S
C509 N506 1.350 . S
C509 C508 1.434 1_556 S
C510 C511 1.369 1_565 S
C510 C512 1.419 . S
C510 H514 0.930 . S
C511 C510 1.369 1_545 S
C511 C520 1.429 . S
C512 C510 1.419 . S
C512 C513 1.363 . S
C512 H515 0.929 . S
C513 C512 1.363 . S
C513 C519 1.428 1_565 S
H514 C510 0.930 . S
H515 C512 0.929 . S
S516 N517 1.613 . S
S516 N518 1.610 . S
N517 S516 1.613 . S
N517 C520 1.350 . S
N518 S516 1.610 . S
N518 C519 1.351 . S
C519 C513 1.428 1_545 S
C519 N518 1.351 . S
C519 C520 1.434 . S
C520 C511 1.429 . S
C520 N517 1.350 . S
C520 C519 1.434 . S
C521 C522 1.369 1_545 S
C521 C523 1.419 . S
C521 H525 0.930 . S
C522 C521 1.369 1_565 S
C522 C531 1.429 1_455 S
C523 C521 1.419 . S
C523 C524 1.363 1_455 S
C523 H526 0.929 . S
C524 C523 1.363 1_655 S
C524 C530 1.428 1_545 S
H525 C521 0.930 . S
H526 C523 0.929 . S
S527 N528 1.613 . S
S527 N529 1.610 . S
N528 S527 1.613 . S
N528 C531 1.350 . S
N529 S527 1.610 . S
N529 C530 1.351 . S
C530 C524 1.428 1_565 S
C530 N529 1.351 . S
C530 C531 1.434 . S
C531 C522 1.429 1_655 S
C531 N528 1.350 . S
C531 C530 1.434 . S
C532 C533 1.369 . S
C532 C534 1.421 . S
C532 H536 0.930 . S
C533 C532 1.369 . S
C533 C542 1.429 1_554 S
C534 C532 1.421 . S
C534 C535 1.361 1_554 S
C534 H537 0.929 . S
C535 C534 1.361 1_556 S
C535 C541 1.428 . S
H536 C532 0.930 . S
H537 C534 0.929 . S
S538 N539 1.613 . S
S538 N540 1.610 . S
N539 S538 1.613 . S
N539 C542 1.350 . S
N540 S538 1.610 . S
N540 C541 1.351 . S
C541 C535 1.428 . S
C541 N540 1.351 . S
C541 C542 1.434 . S
C542 C533 1.429 1_556 S
C542 N539 1.350 . S
C542 C541 1.434 . S
C543 C544 1.369 1_455 S
C543 C545 1.419 1_554 S
C543 H547 0.930 . S
C544 C543 1.369 1_655 S
C544 C553 1.429 . S
C545 C543 1.419 1_556 S
C545 C546 1.363 . S
C545 H548 0.929 . S
C546 C545 1.363 . S
C546 C552 1.428 1_455 S
H547 C543 0.930 . S
H548 C545 0.929 . S
S549 N550 1.613 . S
S549 N551 1.610 1_554 S
N550 S549 1.613 . S
N550 C553 1.350 . S
N551 S549 1.610 1_556 S
N551 C552 1.351 . S
C552 C546 1.428 1_655 S
C552 N551 1.351 . S
C552 C553 1.434 1_556 S
C553 C544 1.429 . S
C553 N550 1.350 . S
C553 C552 1.434 1_554 S
C554 C555 1.369 1_455 S
C554 C556 1.419 . S
C554 H558 0.930 . S
C555 C554 1.369 1_655 S
C555 C564 1.429 . S
C556 C554 1.419 . S
C556 C557 1.363 . S
C556 H559 0.929 . S
C557 C556 1.363 . S
C557 C563 1.428 1_455 S
H558 C554 0.930 . S
H559 C556 0.929 . S
S560 N561 1.613 . S
S560 N562 1.610 . S
N561 S560 1.613 . S
N561 C564 1.350 . S
N562 S560 1.610 . S
N562 C563 1.351 . S
C563 C557 1.428 1_655 S
C563 N562 1.351 . S
C563 C564 1.434 . S
C564 C555 1.429 . S
C564 N561 1.350 . S
C564 C563 1.434 . S
C565 C566 1.369 . S
C565 C567 1.419 . S
C565 H569 0.930 . S
C566 C565 1.369 . S
C566 C575 1.429 . S
C567 C565 1.419 . S
C567 C568 1.363 . S
C567 H570 0.929 . S
C568 C567 1.363 . S
C568 C574 1.428 . S
H569 C565 0.930 . S
H570 C567 0.929 . S
S571 N572 1.613 . S
S571 N573 1.610 . S
N572 S571 1.613 . S
N572 C575 1.350 . S
N573 S571 1.610 . S
N573 C574 1.351 . S
C574 C568 1.428 . S
C574 N573 1.351 . S
C574 C575 1.434 . S
C575 C566 1.429 . S
C575 N572 1.350 . S
C575 C574 1.434 . S
C225 C21 1.527 . S
C227 C7 1.519 . S
C236 C35 1.525 . S
C238 C49 1.519 . S
C247 C62 1.519 . S
C249 C76 1.526 . S
C258 C104 1.520 . S
C260 C90 1.522 . S
C269 C133 1.520 . S
C271 C119 1.525 . S
C280 C161 1.518 . S
C282 C147 1.526 . S
C291 C188 1.518 . S
C293 C174 1.525 . S
C302 C216 1.525 . S
C304 C202 1.519 . S
C313 C48 1.509 . S
C315 C6 1.506 . S
C324 C20 1.511 . S
C326 C34 1.506 . S
C335 C105 1.508 . S
C337 C63 1.508 . S
C346 C91 1.506 . S
C348 C77 1.509 . S
C357 C118 1.508 . S
C359 C160 1.507 . S
C368 C146 1.508 . S
C370 C132 1.507 . S
C379 C217 1.507 . S
C381 C175 1.508 . S
C390 C189 1.508 . S
C392 C203 1.507 . S
C401 C8 1.485 . S
C403 C134 1.487 . S
C412 C22 1.484 . S
C414 C120 1.486 . S
C423 C162 1.487 . S
C425 C36 1.488 . S
C434 C148 1.486 . S
C436 C50 1.485 . S
C445 C191 1.487 . S
C447 C65 1.485 . S
C456 C177 1.484 . S
C458 C79 1.484 . S
C467 C93 1.483 . S
C469 C219 1.484 . S
C478 C107 1.483 . S
C480 C205 1.484 . S
C489 C64 1.580 . S
C491 C9 1.580 . S
C500 C78 1.580 . S
C502 C23 1.580 . S
C511 C92 1.579 . S
C513 C37 1.581 . S
C522 C106 1.581 . S
C524 C51 1.579 . S
C533 C121 1.579 . S
C535 C176 1.581 . S
C544 C135 1.578 . S
C546 C190 1.581 . S
C555 C204 1.578 . S
C557 C149 1.581 . S
C566 C218 1.578 . S
C568 C163 1.581 . S
