# Generated by pormake.
# Topology ums, (4)-cn, num edge types: 1
# Building blocks:
#     Node 0, Type 0, BuildingBlock: NAHDIM_clean_sbu_0, # of connection points: 4
#     Node 1, Type 0, BuildingBlock: NAHDIM_clean_sbu_0, # of connection points: 4
#     Node 2, Type 0, BuildingBlock: NAHDIM_clean_sbu_0, # of connection points: 4
#     Node 3, Type 0, BuildingBlock: NAHDIM_clean_sbu_0, # of connection points: 4
#     Node 4, Type 0, BuildingBlock: NAHDIM_clean_sbu_0, # of connection points: 4
#     Node 5, Type 0, BuildingBlock: NAHDIM_clean_sbu_0, # of connection points: 4
#     Node 6, Type 0, BuildingBlock: NAHDIM_clean_sbu_0, # of connection points: 4
#     Node 7, Type 0, BuildingBlock: NAHDIM_clean_sbu_0, # of connection points: 4
#     Node 8, Type 0, BuildingBlock: NAHDIM_clean_sbu_0, # of connection points: 4
#     Node 9, Type 0, BuildingBlock: NAHDIM_clean_sbu_0, # of connection points: 4
#     Node 10, Type 0, BuildingBlock: NAHDIM_clean_sbu_0, # of connection points: 4
#     Node 11, Type 0, BuildingBlock: NAHDIM_clean_sbu_0, # of connection points: 4
#     Node 12, Type 0, BuildingBlock: NAHDIM_clean_sbu_0, # of connection points: 4
#     Node 13, Type 0, BuildingBlock: NAHDIM_clean_sbu_0, # of connection points: 4
#     Node 14, Type 0, BuildingBlock: NAHDIM_clean_sbu_0, # of connection points: 4
#     Node 15, Type 0, BuildingBlock: NAHDIM_clean_sbu_0, # of connection points: 4
#     Node 16, Type 0, BuildingBlock: NAHDIM_clean_sbu_0, # of connection points: 4
#     Node 17, Type 0, BuildingBlock: NAHDIM_clean_sbu_0, # of connection points: 4
#     Node 18, Type 0, BuildingBlock: NAHDIM_clean_sbu_0, # of connection points: 4
#     Node 19, Type 0, BuildingBlock: NAHDIM_clean_sbu_0, # of connection points: 4
#     Node 20, Type 0, BuildingBlock: NAHDIM_clean_sbu_0, # of connection points: 4
#     Node 21, Type 0, BuildingBlock: NAHDIM_clean_sbu_0, # of connection points: 4
#     Node 22, Type 0, BuildingBlock: NAHDIM_clean_sbu_0, # of connection points: 4
#     Node 23, Type 0, BuildingBlock: NAHDIM_clean_sbu_0, # of connection points: 4
#     Node 24, Type 0, BuildingBlock: NAHDIM_clean_sbu_0, # of connection points: 4
#     Node 25, Type 0, BuildingBlock: NAHDIM_clean_sbu_0, # of connection points: 4
#     Node 26, Type 0, BuildingBlock: NAHDIM_clean_sbu_0, # of connection points: 4
#     Node 27, Type 0, BuildingBlock: NAHDIM_clean_sbu_0, # of connection points: 4
#     Node 28, Type 0, BuildingBlock: NAHDIM_clean_sbu_0, # of connection points: 4
#     Node 29, Type 0, BuildingBlock: NAHDIM_clean_sbu_0, # of connection points: 4
#     Node 30, Type 0, BuildingBlock: NAHDIM_clean_sbu_0, # of connection points: 4
#     Node 31, Type 0, BuildingBlock: NAHDIM_clean_sbu_0, # of connection points: 4
#     Node 32, Type 0, BuildingBlock: NAHDIM_clean_sbu_0, # of connection points: 4
#     Node 33, Type 0, BuildingBlock: NAHDIM_clean_sbu_0, # of connection points: 4
#     Node 34, Type 0, BuildingBlock: NAHDIM_clean_sbu_0, # of connection points: 4
#     Node 35, Type 0, BuildingBlock: NAHDIM_clean_sbu_0, # of connection points: 4
#     Edge 36, Type (0, 0), BuildingBlock: UVAHIK_clean_linker_0, # of connection points: 2
#     Edge 37, Type (0, 0), BuildingBlock: UVAHIK_clean_linker_0, # of connection points: 2
#     Edge 38, Type (0, 0), BuildingBlock: UVAHIK_clean_linker_0, # of connection points: 2
#     Edge 39, Type (0, 0), BuildingBlock: UVAHIK_clean_linker_0, # of connection points: 2
#     Edge 40, Type (0, 0), BuildingBlock: UVAHIK_clean_linker_0, # of connection points: 2
#     Edge 41, Type (0, 0), BuildingBlock: UVAHIK_clean_linker_0, # of connection points: 2
#     Edge 42, Type (0, 0), BuildingBlock: UVAHIK_clean_linker_0, # of connection points: 2
#     Edge 43, Type (0, 0), BuildingBlock: UVAHIK_clean_linker_0, # of connection points: 2
#     Edge 44, Type (0, 0), BuildingBlock: UVAHIK_clean_linker_0, # of connection points: 2
#     Edge 45, Type (0, 0), BuildingBlock: UVAHIK_clean_linker_0, # of connection points: 2
#     Edge 46, Type (0, 0), BuildingBlock: UVAHIK_clean_linker_0, # of connection points: 2
#     Edge 47, Type (0, 0), BuildingBlock: UVAHIK_clean_linker_0, # of connection points: 2
#     Edge 48, Type (0, 0), BuildingBlock: UVAHIK_clean_linker_0, # of connection points: 2
#     Edge 49, Type (0, 0), BuildingBlock: UVAHIK_clean_linker_0, # of connection points: 2
#     Edge 50, Type (0, 0), BuildingBlock: UVAHIK_clean_linker_0, # of connection points: 2
#     Edge 51, Type (0, 0), BuildingBlock: UVAHIK_clean_linker_0, # of connection points: 2
#     Edge 52, Type (0, 0), BuildingBlock: UVAHIK_clean_linker_0, # of connection points: 2
#     Edge 53, Type (0, 0), BuildingBlock: UVAHIK_clean_linker_0, # of connection points: 2
#     Edge 54, Type (0, 0), BuildingBlock: UVAHIK_clean_linker_0, # of connection points: 2
#     Edge 55, Type (0, 0), BuildingBlock: UVAHIK_clean_linker_0, # of connection points: 2
#     Edge 56, Type (0, 0), BuildingBlock: UVAHIK_clean_linker_0, # of connection points: 2
#     Edge 57, Type (0, 0), BuildingBlock: UVAHIK_clean_linker_0, # of connection points: 2
#     Edge 58, Type (0, 0), BuildingBlock: UVAHIK_clean_linker_0, # of connection points: 2
#     Edge 59, Type (0, 0), BuildingBlock: UVAHIK_clean_linker_0, # of connection points: 2
#     Edge 60, Type (0, 0), BuildingBlock: UVAHIK_clean_linker_0, # of connection points: 2
#     Edge 61, Type (0, 0), BuildingBlock: UVAHIK_clean_linker_0, # of connection points: 2
#     Edge 62, Type (0, 0), BuildingBlock: UVAHIK_clean_linker_0, # of connection points: 2
#     Edge 63, Type (0, 0), BuildingBlock: UVAHIK_clean_linker_0, # of connection points: 2
#     Edge 64, Type (0, 0), BuildingBlock: UVAHIK_clean_linker_0, # of connection points: 2
#     Edge 65, Type (0, 0), BuildingBlock: UVAHIK_clean_linker_0, # of connection points: 2
#     Edge 66, Type (0, 0), BuildingBlock: UVAHIK_clean_linker_0, # of connection points: 2
#     Edge 67, Type (0, 0), BuildingBlock: UVAHIK_clean_linker_0, # of connection points: 2
#     Edge 68, Type (0, 0), BuildingBlock: UVAHIK_clean_linker_0, # of connection points: 2
#     Edge 69, Type (0, 0), BuildingBlock: UVAHIK_clean_linker_0, # of connection points: 2
#     Edge 70, Type (0, 0), BuildingBlock: UVAHIK_clean_linker_0, # of connection points: 2
#     Edge 71, Type (0, 0), BuildingBlock: UVAHIK_clean_linker_0, # of connection points: 2
#     Edge 72, Type (0, 0), BuildingBlock: UVAHIK_clean_linker_0, # of connection points: 2
#     Edge 73, Type (0, 0), BuildingBlock: UVAHIK_clean_linker_0, # of connection points: 2
#     Edge 74, Type (0, 0), BuildingBlock: UVAHIK_clean_linker_0, # of connection points: 2
#     Edge 75, Type (0, 0), BuildingBlock: UVAHIK_clean_linker_0, # of connection points: 2
#     Edge 76, Type (0, 0), BuildingBlock: UVAHIK_clean_linker_0, # of connection points: 2
#     Edge 77, Type (0, 0), BuildingBlock: UVAHIK_clean_linker_0, # of connection points: 2
#     Edge 78, Type (0, 0), BuildingBlock: UVAHIK_clean_linker_0, # of connection points: 2
#     Edge 79, Type (0, 0), BuildingBlock: UVAHIK_clean_linker_0, # of connection points: 2
#     Edge 80, Type (0, 0), BuildingBlock: UVAHIK_clean_linker_0, # of connection points: 2
#     Edge 81, Type (0, 0), BuildingBlock: UVAHIK_clean_linker_0, # of connection points: 2
#     Edge 82, Type (0, 0), BuildingBlock: UVAHIK_clean_linker_0, # of connection points: 2
#     Edge 83, Type (0, 0), BuildingBlock: UVAHIK_clean_linker_0, # of connection points: 2
#     Edge 84, Type (0, 0), BuildingBlock: UVAHIK_clean_linker_0, # of connection points: 2
#     Edge 85, Type (0, 0), BuildingBlock: UVAHIK_clean_linker_0, # of connection points: 2
#     Edge 86, Type (0, 0), BuildingBlock: UVAHIK_clean_linker_0, # of connection points: 2
#     Edge 87, Type (0, 0), BuildingBlock: UVAHIK_clean_linker_0, # of connection points: 2
#     Edge 88, Type (0, 0), BuildingBlock: UVAHIK_clean_linker_0, # of connection points: 2
#     Edge 89, Type (0, 0), BuildingBlock: UVAHIK_clean_linker_0, # of connection points: 2
#     Edge 90, Type (0, 0), BuildingBlock: UVAHIK_clean_linker_0, # of connection points: 2
#     Edge 91, Type (0, 0), BuildingBlock: UVAHIK_clean_linker_0, # of connection points: 2
#     Edge 92, Type (0, 0), BuildingBlock: UVAHIK_clean_linker_0, # of connection points: 2
#     Edge 93, Type (0, 0), BuildingBlock: UVAHIK_clean_linker_0, # of connection points: 2
#     Edge 94, Type (0, 0), BuildingBlock: UVAHIK_clean_linker_0, # of connection points: 2
#     Edge 95, Type (0, 0), BuildingBlock: UVAHIK_clean_linker_0, # of connection points: 2
#     Edge 96, Type (0, 0), BuildingBlock: UVAHIK_clean_linker_0, # of connection points: 2
#     Edge 97, Type (0, 0), BuildingBlock: UVAHIK_clean_linker_0, # of connection points: 2
#     Edge 98, Type (0, 0), BuildingBlock: UVAHIK_clean_linker_0, # of connection points: 2
#     Edge 99, Type (0, 0), BuildingBlock: UVAHIK_clean_linker_0, # of connection points: 2
#     Edge 100, Type (0, 0), BuildingBlock: UVAHIK_clean_linker_0, # of connection points: 2
#     Edge 101, Type (0, 0), BuildingBlock: UVAHIK_clean_linker_0, # of connection points: 2
#     Edge 102, Type (0, 0), BuildingBlock: UVAHIK_clean_linker_0, # of connection points: 2
#     Edge 103, Type (0, 0), BuildingBlock: UVAHIK_clean_linker_0, # of connection points: 2
#     Edge 104, Type (0, 0), BuildingBlock: UVAHIK_clean_linker_0, # of connection points: 2
#     Edge 105, Type (0, 0), BuildingBlock: UVAHIK_clean_linker_0, # of connection points: 2
#     Edge 106, Type (0, 0), BuildingBlock: UVAHIK_clean_linker_0, # of connection points: 2
#     Edge 107, Type (0, 0), BuildingBlock: UVAHIK_clean_linker_0, # of connection points: 2
# Relax obj value: 0.133
# Max RMSD: 0.118
# Mean RMSD: 0.113
data_MOF--net-ums--node1-NAHDIM_clean_sbu_0--edge1-UVAHIK_clean_linker_0
_symmetry_space_group_name_H-M    P1
_symmetry_Int_Tables_number       1
_symmetry_cell_setting            triclinic
loop_
_symmetry_equiv_pos_as_xyz
'x, y, z'
_cell_length_a     129.77128
_cell_length_b     129.76748
_cell_length_c     30.56103
_cell_angle_alpha  90.001821
_cell_angle_beta   90.008265
_cell_angle_gamma 120.00312
loop_
_atom_site_label
_atom_site_type_symbol
_atom_site_fract_x
_atom_site_fract_y
_atom_site_fract_z
_atom_type_partial_charge
C0 C 0.1862 0.23895 0.10937 0.0
O1 O 0.1935 0.24997 0.09725 0.0
O2 O 0.18099 0.26148 0.071 0.0
Zn3 Zn 0.1684 0.24421 0.07691 0.0
O4 O 0.15611 0.24344 0.11856 0.0
C5 C 0.15813 0.24578 -0.00021 0.0
O6 O 0.16058 0.25561 0.02056 0.0
O7 O 0.17512 0.23441 0.10194 0.0
C8 C 0.1468 0.23375 0.12854 0.0
O9 O 0.14502 0.22375 0.11095 0.0
C10 C 0.18465 0.26839 0.10392 0.0
O11 O 0.18066 0.264 0.14303 0.0
O12 O 0.16068 0.23853 0.018 0.0
C13 C 0.76365 0.94251 0.15505 0.0
O14 O 0.75773 0.93352 0.18179 0.0
O15 O 0.73449 0.92188 0.09107 0.0
Zn16 Zn 0.75087 0.92385 0.09506 0.0
O17 O 0.75064 0.91235 0.13961 0.0
C18 C 0.74577 0.90933 0.0234 0.0
O19 O 0.73628 0.90382 0.0483 0.0
O20 O 0.76245 0.94067 0.11398 0.0
C21 C 0.7594 0.91064 0.1446 0.0
O22 O 0.76877 0.91632 0.11926 0.0
C23 C 0.72724 0.91839 0.12294 0.0
O24 O 0.73069 0.91661 0.16123 0.0
O25 O 0.75441 0.91918 0.03651 0.0
C26 C 0.05685 0.82466 0.15892 0.0
O27 O 0.06633 0.82771 0.18303 0.0
O28 O 0.07695 0.81734 0.08489 0.0
Zn29 Zn 0.07412 0.83118 0.09125 0.0
O30 O 0.08665 0.84344 0.13061 0.0
C31 C 0.08347 0.8387 0.00657 0.0
O32 O 0.08971 0.83386 0.01999 0.0
O33 O 0.05793 0.82547 0.11752 0.0
C34 C 0.08693 0.85317 0.13894 0.0
O35 O 0.07896 0.85527 0.12097 0.0
C36 C 0.08123 0.81401 0.11562 0.0
O37 O 0.08343 0.81942 0.15367 0.0
O38 O 0.07569 0.83863 0.03199 0.0
C39 C 0.231 0.18379 0.40105 0.0
O40 O 0.2413 0.1906 0.42009 0.0
O41 O 0.25431 0.17871 0.42442 0.0
Zn42 Zn 0.23732 0.16571 0.41592 0.0
O43 O 0.23702 0.15534 0.36664 0.0
C44 C 0.23949 0.15284 0.48325 0.0
O45 O 0.24866 0.15545 0.45791 0.0
O46 O 0.2271 0.17267 0.39824 0.0
C47 C 0.22946 0.14432 0.36324 0.0
O48 O 0.22129 0.13911 0.39361 0.0
C49 C 0.26143 0.18364 0.39265 0.0
O50 O 0.25753 0.18049 0.35243 0.0
O51 O 0.23223 0.15623 0.47172 0.0
C52 C 0.81646 0.05965 0.34183 0.0
O53 O 0.81824 0.06857 0.31645 0.0
O54 O 0.81624 0.08498 0.39817 0.0
Zn55 Zn 0.82802 0.07906 0.39805 0.0
O56 O 0.84046 0.0877 0.35194 0.0
C57 C 0.83943 0.09257 0.47257 0.0
O58 O 0.83799 0.10021 0.44898 0.0
O59 O 0.81972 0.06176 0.38162 0.0
C60 C 0.85157 0.09162 0.35553 0.0
O61 O 0.8559 0.09039 0.39276 0.0
C62 C 0.81853 0.09446 0.37791 0.0
O63 O 0.82843 0.10011 0.35527 0.0
O64 O 0.83578 0.08219 0.45741 0.0
C65 C 0.94019 0.76395 0.34948 0.0
O66 O 0.93118 0.75831 0.32256 0.0
O67 O 0.91894 0.73461 0.41626 0.0
Zn68 Zn 0.92173 0.75129 0.41188 0.0
O69 O 0.9098 0.75124 0.36987 0.0
C70 C 0.90907 0.74816 0.48901 0.0
O71 O 0.90231 0.73814 0.46808 0.0
O72 O 0.93838 0.76243 0.39047 0.0
C73 C 0.90917 0.76055 0.36247 0.0
O74 O 0.91646 0.77046 0.38299 0.0
C75 C 0.91674 0.728 0.38285 0.0
O76 O 0.91683 0.73233 0.34392 0.0
O77 O 0.91867 0.75595 0.47109 0.0
C78 C 0.82332 0.7643 0.84749 0.0
O79 O 0.82649 0.75827 0.82175 0.0
O80 O 0.81505 0.73554 0.9174 0.0
Zn81 Zn 0.82908 0.75213 0.91203 0.0
O82 O 0.84084 0.75165 0.87062 0.0
C83 C 0.83854 0.7492 0.98944 0.0
O84 O 0.83516 0.73911 0.96885 0.0
O85 O 0.82376 0.76326 0.88874 0.0
C86 C 0.85089 0.7608 0.86309 0.0
O87 O 0.85373 0.77082 0.88323 0.0
C88 C 0.81072 0.72876 0.88438 0.0
O89 O 0.81512 0.73287 0.84539 0.0
O90 O 0.83686 0.75703 0.97116 0.0
C91 C 0.23361 0.05616 0.85304 0.0
O92 O 0.23927 0.06532 0.82679 0.0
O93 O 0.26177 0.07848 0.92413 0.0
Zn94 Zn 0.24488 0.07477 0.91535 0.0
O95 O 0.24477 0.086 0.87023 0.0
C96 C 0.2453 0.08893 0.98346 0.0
O97 O 0.25436 0.09623 0.95894 0.0
O98 O 0.23457 0.05786 0.8942 0.0
C99 C 0.23554 0.08686 0.86414 0.0
O100 O 0.22605 0.08043 0.88818 0.0
C101 C 0.26863 0.08016 0.89192 0.0
O102 O 0.26446 0.07901 0.85197 0.0
O103 O 0.23914 0.0781 0.97182 0.0
C104 C 0.94233 0.17553 0.83851 0.0
O105 O 0.93299 0.17171 0.81292 0.0
O106 O 0.92064 0.18154 0.91524 0.0
Zn107 Zn 0.92416 0.16839 0.9031 0.0
O108 O 0.91238 0.15756 0.85811 0.0
C109 C 0.91035 0.15341 0.96955 0.0
O110 O 0.90261 0.15443 0.94486 0.0
O111 O 0.94087 0.17502 0.87979 0.0
C112 C 0.91068 0.1472 0.85028 0.0
O113 O 0.91679 0.14333 0.87215 0.0
C114 C 0.91965 0.1875 0.8842 0.0
O115 O 0.92157 0.18539 0.84386 0.0
O116 O 0.92126 0.159 0.9586 0.0
C117 C 0.76689 0.82458 0.65612 0.0
O118 O 0.76139 0.82832 0.68216 0.0
O119 O 0.73772 0.81592 0.58628 0.0
Zn120 Zn 0.75417 0.83011 0.59373 0.0
O121 O 0.7539 0.84159 0.63781 0.0
C122 C 0.75097 0.84055 0.52016 0.0
O123 O 0.74097 0.83664 0.54191 0.0
O124 O 0.76538 0.82461 0.61498 0.0
C125 C 0.74444 0.84121 0.65113 0.0
O126 O 0.73412 0.8331 0.6353 0.0
C127 C 0.73182 0.80843 0.61607 0.0
O128 O 0.73664 0.80954 0.65483 0.0
O129 O 0.75897 0.83869 0.53583 0.0
C130 C 0.17186 0.93958 0.6594 0.0
O131 O 0.16877 0.93016 0.68393 0.0
O132 O 0.17719 0.91757 0.59457 0.0
Zn133 Zn 0.16418 0.92179 0.59402 0.0
O134 O 0.1507 0.91007 0.63158 0.0
C135 C 0.15688 0.91108 0.51185 0.0
O136 O 0.15981 0.90393 0.53165 0.0
O137 O 0.1706 0.9383 0.61815 0.0
C138 C 0.14207 0.91146 0.64317 0.0
O139 O 0.14173 0.92092 0.62989 0.0
C140 C 0.17817 0.91162 0.62571 0.0
O141 O 0.17092 0.90867 0.6593 0.0
O142 O 0.15806 0.92013 0.53236 0.0
C143 C 0.0586 0.23385 0.64218 0.0
O144 O 0.06792 0.24024 0.66704 0.0
O145 O 0.08 0.26128 0.57187 0.0
Zn146 Zn 0.07649 0.24434 0.57702 0.0
O147 O 0.08839 0.2439 0.61783 0.0
C148 C 0.08796 0.24664 0.49762 0.0
O149 O 0.09492 0.25693 0.51655 0.0
O150 O 0.05997 0.23402 0.60094 0.0
C151 C 0.08833 0.2343 0.62643 0.0
O152 O 0.08036 0.22435 0.60777 0.0
C153 C 0.0846 0.26864 0.60321 0.0
O154 O 0.08656 0.26496 0.64068 0.0
O155 O 0.07869 0.239 0.5177 0.0
C156 C 0.84402 0.56796 0.4953 0.0
O157 O 0.8422 0.57484 0.52191 0.0
O158 O 0.84887 0.59528 0.42623 0.0
Zn159 Zn 0.83538 0.57857 0.43596 0.0
O160 O 0.82467 0.57879 0.48305 0.0
C161 C 0.82117 0.57943 0.37055 0.0
O162 O 0.82309 0.58833 0.39635 0.0
O163 O 0.8417 0.5679 0.45483 0.0
C164 C 0.81474 0.5696 0.49159 0.0
O165 O 0.81144 0.55979 0.46918 0.0
C166 C 0.85317 0.60279 0.45722 0.0
O167 O 0.849 0.59947 0.49703 0.0
O168 O 0.82583 0.57315 0.38041 0.0
C169 C 0.42186 0.27332 0.50825 0.0
O170 O 0.41592 0.26425 0.53468 0.0
O171 O 0.394 0.25079 0.43856 0.0
Zn172 Zn 0.41097 0.25462 0.44617 0.0
O173 O 0.41135 0.2434 0.49059 0.0
C174 C 0.41013 0.24064 0.37692 0.0
O175 O 0.40109 0.23337 0.40157 0.0
O176 O 0.42123 0.2715 0.46719 0.0
C177 C 0.42081 0.24306 0.49787 0.0
O178 O 0.4305 0.25017 0.47579 0.0
C179 C 0.38697 0.24791 0.471 0.0
O180 O 0.39102 0.24793 0.51041 0.0
O181 O 0.41649 0.2514 0.38904 0.0
C182 C 0.72676 0.16154 0.49861 0.0
O183 O 0.736 0.16548 0.52477 0.0
O184 O 0.75114 0.15987 0.43045 0.0
Zn185 Zn 0.74537 0.17163 0.43606 0.0
O186 O 0.75571 0.18442 0.47887 0.0
C187 C 0.7444 0.17335 0.34231 0.0
O188 O 0.73977 0.16175 0.34442 0.0
O189 O 0.72847 0.16319 0.45763 0.0
C190 C 0.76676 0.19115 0.47174 0.0
O191 O 0.7714 0.18977 0.43554 0.0
C192 C 0.75631 0.15782 0.46177 0.0
O193 O 0.75776 0.16335 0.49924 0.0
O194 O 0.74699 0.17932 0.37757 0.0
C195 C 0.89625 0.50213 0.67517 0.0
O196 O 0.90027 0.49686 0.64927 0.0
O197 O 0.92369 0.50507 0.74241 0.0
Zn198 Zn 0.90609 0.49355 0.73915 0.0
O199 O 0.90297 0.48011 0.69869 0.0
C200 C 0.90444 0.49327 0.83305 0.0
O201 O 0.91189 0.50473 0.82838 0.0
O202 O 0.89764 0.50192 0.71629 0.0
C203 C 0.90711 0.47322 0.70555 0.0
O204 O 0.91369 0.47485 0.74041 0.0
C205 C 0.93035 0.50849 0.70883 0.0
O206 O 0.92566 0.50445 0.67013 0.0
O207 O 0.9004 0.48679 0.79914 0.0
C208 C 0.48511 0.3913 0.6902 0.0
O209 O 0.48918 0.40044 0.66356 0.0
O210 O 0.48138 0.41492 0.76234 0.0
Zn211 Zn 0.49375 0.41016 0.75216 0.0
O212 O 0.50501 0.42097 0.70603 0.0
C213 C 0.50872 0.42409 0.8181 0.0
O214 O 0.50762 0.43171 0.793 0.0
O215 O 0.48608 0.39313 0.73129 0.0
C216 C 0.51507 0.42184 0.69921 0.0
O217 O 0.51833 0.41555 0.72316 0.0
C218 C 0.4762 0.41668 0.73031 0.0
O219 O 0.47864 0.41484 0.69034 0.0
O220 O 0.50312 0.41314 0.80771 0.0
C221 C 0.60859 0.09313 0.6758 0.0
O222 O 0.59963 0.0873 0.64882 0.0
O223 O 0.58557 0.06509 0.74477 0.0
Zn224 Zn 0.58963 0.08213 0.73695 0.0
O225 O 0.57858 0.08253 0.69174 0.0
C226 C 0.57547 0.08198 0.80467 0.0
O227 O 0.56796 0.07328 0.77924 0.0
O228 O 0.6066 0.09233 0.71676 0.0
C229 C 0.57801 0.09187 0.68429 0.0
O230 O 0.58482 0.10158 0.70673 0.0
C231 C 0.58274 0.05817 0.71202 0.0
O232 O 0.58306 0.06241 0.67271 0.0
O233 O 0.58636 0.08778 0.79369 0.0
C234 C 0.4916 0.09967 0.17653 0.0
O235 O 0.49531 0.09442 0.14915 0.0
O236 O 0.48392 0.07013 0.24101 0.0
Zn237 Zn 0.49772 0.08687 0.23656 0.0
O238 O 0.50899 0.08698 0.19128 0.0
C239 C 0.50831 0.0835 0.3099 0.0
O240 O 0.50513 0.0738 0.28695 0.0
O241 O 0.49184 0.09793 0.2174 0.0
C242 C 0.52005 0.09448 0.18969 0.0
O243 O 0.52489 0.10265 0.22028 0.0
C244 C 0.47963 0.06367 0.20718 0.0
O245 O 0.48392 0.06823 0.16854 0.0
O246 O 0.50607 0.09129 0.29476 0.0
C247 C 0.90163 0.38505 0.21797 0.0
O248 O 0.91231 0.38969 0.23525 0.0
O249 O 0.92168 0.41478 0.24678 0.0
Zn250 Zn 0.90397 0.40774 0.24152 0.0
O251 O 0.9007 0.41768 0.19968 0.0
C252 C 0.90153 0.40557 0.33447 0.0
O253 O 0.90871 0.40126 0.32922 0.0
O254 O 0.89627 0.39099 0.21833 0.0
C255 C 0.90507 0.42876 0.20627 0.0
O256 O 0.91165 0.43362 0.24119 0.0
C257 C 0.92852 0.41729 0.21394 0.0
O258 O 0.92396 0.41518 0.17436 0.0
O259 O 0.89778 0.40847 0.30089 0.0
C260 C 0.61277 0.52191 0.22931 0.0
O261 O 0.60795 0.52843 0.23914 0.0
O262 O 0.58337 0.51409 0.25612 0.0
Zn263 Zn 0.5893 0.50245 0.2503 0.0
O264 O 0.5803 0.49134 0.20098 0.0
C265 C 0.5747 0.48916 0.31829 0.0
O266 O 0.5676 0.49095 0.2927 0.0
O267 O 0.60669 0.51069 0.23425 0.0
C268 C 0.57686 0.48029 0.20015 0.0
O269 O 0.57908 0.47538 0.23373 0.0
C270 C 0.58047 0.51801 0.22303 0.0
O271 O 0.58198 0.51492 0.18364 0.0
O272 O 0.58546 0.49329 0.30672 0.0
C273 C 0.42963 0.15655 0.00487 0.0
O274 O 0.42299 0.15858 0.03201 0.0
O275 O 0.40112 0.1493 0.9381 0.0
Zn276 Zn 0.41756 0.1635 0.94503 0.0
O277 O 0.417 0.17423 0.99112 0.0
C278 C 0.41416 0.17425 0.87234 0.0
O279 O 0.4043 0.17067 0.89474 0.0
O280 O 0.42899 0.15812 0.9641 0.0
C281 C 0.42475 0.18517 0.99484 0.0
O282 O 0.43355 0.19004 0.9666 0.0
C283 C 0.3938 0.14522 0.96973 0.0
O284 O 0.39721 0.15001 0.00871 0.0
O285 O 0.4221 0.17226 0.8877 0.0
C286 C 0.85465 0.27724 0.96559 0.0
O287 O 0.86177 0.27338 0.95256 0.0
O288 O 0.84849 0.24897 0.93 0.0
Zn289 Zn 0.83618 0.25395 0.93684 0.0
O290 O 0.82368 0.24281 0.97893 0.0
C291 C 0.83458 0.25511 0.8433 0.0
O292 O 0.84615 0.25957 0.84582 0.0
O293 O 0.84348 0.27061 0.96081 0.0
C294 C 0.8135 0.24197 0.98053 0.0
O295 O 0.81116 0.24852 0.95406 0.0
C296 C 0.85214 0.24542 0.96207 0.0
O297 O 0.84786 0.24509 0.00134 0.0
O298 O 0.82852 0.25247 0.87835 0.0
C299 C 0.71632 0.57326 0.95427 0.0
O300 O 0.72009 0.584 0.93875 0.0
O301 O 0.7448 0.59609 0.92707 0.0
Zn302 Zn 0.74044 0.57899 0.93567 0.0
O303 O 0.75042 0.57833 0.98462 0.0
C304 C 0.7549 0.58068 0.86634 0.0
O305 O 0.7617 0.59022 0.88969 0.0
O306 O 0.72327 0.56901 0.95375 0.0
C307 C 0.75359 0.57053 0.9871 0.0
O308 O 0.75045 0.56253 0.95598 0.0
C309 C 0.74731 0.60329 0.9588 0.0
O310 O 0.7467 0.59943 -0.00101 0.0
O311 O 0.74443 0.57353 0.87982 0.0
C312 C 0.50238 0.88826 0.7827 0.0
O313 O 0.49074 0.88296 0.78593 0.0
O314 O 0.51253 0.92504 0.74402 0.0
Zn315 Zn 0.49998 0.90782 0.75005 0.0
O316 O 0.48906 0.9063 0.79938 0.0
C317 C 0.4877 0.91005 0.68027 0.0
O318 O 0.49018 0.91933 0.70478 0.0
O319 O 0.50802 0.89858 0.76592 0.0
C320 C 0.47783 0.89951 0.799 0.0
O321 O 0.47266 0.89299 0.76425 0.0
C322 C 0.51723 0.93181 0.77685 0.0
O323 O 0.51405 0.92741 0.81645 0.0
O324 O 0.49095 0.9028 0.69326 0.0
C325 C 0.09071 0.6031 0.81575 0.0
O326 O 0.08469 0.5943 0.84317 0.0
O327 O 0.06388 0.57888 0.74652 0.0
Zn328 Zn 0.08098 0.58354 0.75744 0.0
O329 O 0.08147 0.57348 0.80653 0.0
C330 C 0.08154 0.56873 0.69384 0.0
O331 O 0.07276 0.56145 0.71946 0.0
O332 O 0.09056 0.6008 0.7752 0.0
C333 C 0.09004 0.57153 0.81221 0.0
O334 O 0.09896 0.57596 0.78442 0.0
C335 C 0.05646 0.57582 0.77775 0.0
O336 O 0.06015 0.57622 0.81806 0.0
O337 O 0.08716 0.57975 0.7031 0.0
C338 C 0.38892 0.49032 0.82249 0.0
O339 O 0.3981 0.4947 0.84907 0.0
O340 O 0.41298 0.48682 0.75838 0.0
Zn341 Zn 0.40756 0.49886 0.75958 0.0
O342 O 0.4182 0.51236 0.79959 0.0
C343 C 0.41182 0.51547 0.68857 0.0
O344 O 0.41343 0.52297 0.72027 0.0
O345 O 0.39071 0.49111 0.78143 0.0
C346 C 0.42938 0.5184 0.79389 0.0
O347 O 0.43414 0.5159 0.76054 0.0
C348 C 0.41719 0.48419 0.79134 0.0
O349 O 0.41794 0.48938 0.82907 0.0
O350 O 0.40888 0.50481 0.698 0.0
C351 C 0.57113 0.85121 0.03683 0.0
O352 O 0.58225 0.85922 0.04489 0.0
O353 O 0.59572 0.84845 0.07071 0.0
Zn354 Zn 0.57913 0.83476 0.06059 0.0
O355 O 0.57984 0.82488 0.01137 0.0
C356 C 0.58103 0.8208 0.12481 0.0
O357 O 0.59021 0.82352 0.09936 0.0
O358 O 0.56768 0.84028 0.04327 0.0
C359 C 0.57123 0.81452 0.00339 0.0
O360 O 0.56161 0.81019 0.02775 0.0
C361 C 0.60271 0.85378 0.03897 0.0
O362 O 0.59883 0.85065 -0.00128 0.0
O363 O 0.57411 0.82474 0.115 0.0
C364 C 0.14903 0.72233 0.98682 0.0
O365 O 0.15231 0.73127 0.9596 0.0
O366 O 0.14483 0.74574 0.05762 0.0
Zn367 Zn 0.15761 0.74157 0.04677 0.0
O368 O 0.1683 0.75204 -0.00132 0.0
C369 C 0.17225 0.7562 0.11222 0.0
O370 O 0.17029 0.76337 0.08767 0.0
O371 O 0.15038 0.72442 0.02773 0.0
C372 C 0.17902 0.75441 0.99477 0.0
O373 O 0.18349 0.75027 0.02384 0.0
C374 C 0.13924 0.74729 0.02653 0.0
O375 O 0.14153 0.74569 0.98602 0.0
O376 O 0.16739 0.74529 0.10162 0.0
C377 C 0.27017 0.42846 -0.0011 0.0
O378 O 0.26102 0.42313 0.97235 0.0
O379 O 0.24588 0.40167 0.06648 0.0
Zn380 Zn 0.25141 0.41913 0.06125 0.0
O381 O 0.24103 0.42162 0.01887 0.0
C382 C 0.25283 0.42138 0.15453 0.0
O383 O 0.25765 0.41462 0.15015 0.0
O384 O 0.26834 0.428 0.0399 0.0
C385 C 0.22993 0.4172 0.02509 0.0
O386 O 0.22503 0.41079 0.06031 0.0
C387 C 0.24214 0.39447 0.03444 0.0
O388 O 0.24189 0.39846 0.99517 0.0
O389 O 0.24984 0.42487 0.12046 0.0
C390 C 0.15732 0.42881 0.49594 0.0
O391 O 0.16358 0.42587 0.47041 0.0
O392 O 0.15427 0.40104 0.56525 0.0
Zn393 Zn 0.16559 0.41863 0.56026 0.0
O394 O 0.17889 0.42153 0.51946 0.0
C395 C 0.16606 0.42069 0.65382 0.0
O396 O 0.15459 0.41332 0.64925 0.0
O397 O 0.15689 0.4267 0.53676 0.0
C398 C 0.18586 0.41749 0.52654 0.0
O399 O 0.18442 0.41117 0.56197 0.0
C400 C 0.14839 0.39459 0.53305 0.0
O401 O 0.14968 0.39948 0.49434 0.0
O402 O 0.17252 0.42465 0.61983 0.0
C403 C 0.57218 0.7218 0.50094 0.0
O404 O 0.57918 0.73053 0.47465 0.0
O405 O 0.5996 0.74394 0.56761 0.0
Zn406 Zn 0.5829 0.74099 0.55996 0.0
O407 O 0.58282 0.75174 0.51279 0.0
C408 C 0.58519 0.75575 0.62923 0.0
O409 O 0.59465 0.76241 0.60531 0.0
O410 O 0.57205 0.72398 0.54145 0.0
C411 C 0.57423 0.7537 0.50782 0.0
O412 O 0.56523 0.7489 0.53522 0.0
C413 C 0.60716 0.74799 0.53671 0.0
O414 O 0.60391 0.74993 0.4983 0.0
O415 O 0.57797 0.74523 0.61642 0.0
C416 C 0.27214 0.84851 0.49284 0.0
O417 O 0.26346 0.84773 0.46823 0.0
O418 O 0.24687 0.8477 0.55244 0.0
Zn419 Zn 0.25227 0.83563 0.54526 0.0
O420 O 0.24364 0.82482 0.49461 0.0
C421 C 0.23698 0.81989 0.60766 0.0
O422 O 0.22969 0.82051 0.57934 0.0
O423 O 0.26968 0.84397 0.53094 0.0
C424 C 0.24163 0.81423 0.49084 0.0
O425 O 0.24521 0.80969 0.52174 0.0
C426 C 0.23753 0.84627 0.5334 0.0
O427 O 0.23162 0.83706 0.50752 0.0
O428 O 0.2481 0.82588 0.60042 0.0
C429 C 0.08753 0.47635 0.31324 0.0
O430 O 0.08017 0.47756 0.3394 0.0
O431 O 0.06208 0.47665 0.25353 0.0
Zn432 Zn 0.0796 0.48851 0.2599 0.0
O433 O 0.08186 0.49958 0.30968 0.0
C434 C 0.07907 0.50314 0.1954 0.0
O435 O 0.07047 0.50164 0.22202 0.0
O436 O 0.08884 0.48028 0.27431 0.0
C437 C 0.09021 0.51033 0.31189 0.0
O438 O 0.09792 0.51487 0.27972 0.0
C439 C 0.05486 0.47441 0.28503 0.0
O440 O 0.05899 0.47945 0.3232 0.0
O441 O 0.08502 0.49807 0.20444 0.0
C442 C 0.50705 0.6041 0.31734 0.0
O443 O 0.50259 0.59477 0.34324 0.0
O444 O 0.50747 0.57868 0.25178 0.0
Zn445 Zn 0.49655 0.58549 0.25533 0.0
O446 O 0.48336 0.57626 0.29822 0.0
C447 C 0.49565 0.58597 0.16162 0.0
O448 O 0.50706 0.58971 0.16583 0.0
O449 O 0.50571 0.60249 0.27619 0.0
C450 C 0.4762 0.56513 0.29612 0.0
O451 O 0.47723 0.55897 0.264 0.0
C452 C 0.51011 0.57428 0.2841 0.0
O453 O 0.50557 0.57406 0.32274 0.0
O454 O 0.48938 0.58407 0.19581 0.0
C455 C 0.39013 0.90292 0.31146 0.0
O456 O 0.3993 0.90781 0.33805 0.0
O457 O 0.41323 0.93052 0.23872 0.0
Zn458 Zn 0.40884 0.9135 0.24886 0.0
O459 O 0.41988 0.91313 0.29428 0.0
C460 C 0.4226 0.91228 0.18241 0.0
O461 O 0.43037 0.92086 0.20763 0.0
O462 O 0.3919 0.90404 0.27035 0.0
C463 C 0.42047 0.90378 0.30114 0.0
O464 O 0.41379 0.89419 0.27792 0.0
C465 C 0.41553 0.93765 0.27053 0.0
O466 O 0.41468 0.93369 0.3107 0.0
O467 O 0.41166 0.90712 0.1929 0.0
C468 C 0.23096 0.20158 0.36987 0.0
C469 C 0.22504 0.18921 0.3767 0.0
C470 C 0.22619 0.20659 0.34174 0.0
C471 C 0.19899 0.2019 0.28755 0.0
H472 H 0.22075 0.22304 0.19921 0.0
C473 C 0.18308 0.22047 0.14738 0.0
C474 C 0.19063 0.23245 0.13589 0.0
C475 C 0.18705 0.21467 0.17543 0.0
C476 C 0.21458 0.21729 0.22394 0.0
H477 H 0.20915 0.17249 0.36131 0.0
H478 H 0.20072 0.18132 0.3126 0.0
H479 H 0.2278 0.21431 0.25364 0.0
H480 H 0.20833 0.24767 0.14437 0.0
H481 H 0.21514 0.2377 0.19389 0.0
H482 H 0.18583 0.20508 0.25862 0.0
C483 C 0.2091 0.18709 0.32882 0.0
C484 C 0.21863 0.21227 0.25507 0.0
C485 C 0.21394 0.18204 0.35662 0.0
C486 C 0.2023 0.23841 0.15231 0.0
C487 C 0.20623 0.23266 0.18062 0.0
C488 C 0.19496 0.20703 0.25667 0.0
C489 C 0.21534 0.19937 0.32026 0.0
C490 C 0.2109 0.20459 0.28732 0.0
C491 C 0.19864 0.22074 0.19288 0.0
C492 C 0.20273 0.21485 0.22461 0.0
H493 H 0.23952 0.20736 0.38488 0.0
H494 H 0.23109 0.21611 0.33617 0.0
H495 H 0.19287 0.19603 0.31221 0.0
H496 H 0.17404 0.21561 0.13512 0.0
H497 H 0.18103 0.20543 0.18353 0.0
C498 C 0.80888 0.04563 0.27841 0.0
C499 C 0.81133 0.04753 0.32344 0.0
C500 C 0.80441 0.0343 0.26042 0.0
C501 C 0.78816 0.00259 0.28867 0.0
H502 H 0.80086 -0.00125 0.17885 0.0
C503 C 0.77321 0.95624 0.21814 0.0
C504 C 0.77081 0.95465 0.17305 0.0
C505 C 0.77902 0.96762 0.23633 0.0
C506 C 0.79714 -0.00031 0.2093 0.0
H507 H 0.81093 0.039 0.38496 0.0
H508 H 0.80305 0.01915 0.35344 0.0
H509 H 0.80911 0.0185 0.21137 0.0
H510 H 0.77297 0.96378 0.11139 0.0
H511 H 0.78297 0.9837 0.14329 0.0
H512 H 0.77605 0.98386 0.2864 0.0
C513 C 0.80456 0.02645 0.33216 0.0
C514 C 0.80188 0.01099 0.22795 0.0
C515 C 0.80911 0.03782 0.35017 0.0
C516 C 0.77471 0.96472 0.14625 0.0
C517 C 0.78048 0.97614 0.16453 0.0
C518 C 0.78339 0.99131 0.26996 0.0
C519 C 0.80222 0.02459 0.28705 0.0
C520 C 0.79741 0.01256 0.26777 0.0
C521 C 0.78251 0.9777 0.20992 0.0
C522 C 0.78781 0.98971 0.23003 0.0
H523 H 0.81049 0.05291 0.25688 0.0
H524 H 0.80253 0.03311 0.22566 0.0
H525 H 0.78441 0.00355 0.31904 0.0
H526 H 0.77044 0.94867 0.23964 0.0
H527 H 0.78069 0.96851 0.27123 0.0
C528 C 0.95413 0.77345 0.28665 0.0
C529 C 0.95232 0.77163 0.33199 0.0
C530 C 0.96558 0.78032 0.26969 0.0
C531 C 0.99683 0.79055 0.29573 0.0
H532 H 0.00316 0.81207 0.19829 0.0
C533 C 0.04403 0.81933 0.22564 0.0
C534 C 0.04506 0.81993 0.17981 0.0
C535 C 0.03287 0.81441 0.24555 0.0
C536 C 0.00151 0.80603 0.22527 0.0
H537 H 0.96111 0.77579 0.39519 0.0
H538 H 0.98115 0.78784 0.36549 0.0
H539 H 0.98336 0.80179 0.23109 0.0
H540 H 0.0352 0.816 0.11892 0.0
H541 H 0.01571 0.80726 0.15368 0.0
H542 H 0.01489 0.79461 0.28954 0.0
C543 C 0.97369 0.78384 0.34308 0.0
C544 C 0.99018 0.80015 0.24408 0.0
C545 C 0.96221 0.77699 0.36008 0.0
C546 C 0.03471 0.81569 0.15432 0.0
C547 C 0.02354 0.81074 0.17425 0.0
C548 C 0.00815 0.79641 0.2769 0.0
C549 C 0.9755 0.78551 0.29767 0.0
C550 C 0.98769 0.79228 0.27927 0.0
C551 C 0.02249 0.80994 0.22009 0.0
C552 C 0.01059 0.80414 0.24123 0.0
H553 H 0.9467 0.76945 0.26408 0.0
H554 H 0.96669 0.78131 0.23454 0.0
H555 H 0.99515 0.78441 0.32237 0.0
H556 H 0.05183 0.82259 0.24625 0.0
H557 H 0.03238 0.81409 0.28094 0.0
C558 C 0.81819 0.77265 0.78275 0.0
C559 C 0.81885 0.77181 0.82841 0.0
C560 C 0.81351 0.77929 0.76443 0.0
C561 C 0.79347 0.79081 0.79023 0.0
H562 H 0.80707 0.8099 0.68588 0.0
C563 C 0.77584 0.82014 0.72057 0.0
C564 C 0.77415 0.81982 0.67506 0.0
C565 C 0.78207 0.81506 0.73922 0.0
C566 C 0.80312 0.80452 0.7148 0.0
H567 H 0.81538 0.77751 0.89068 0.0
H568 H 0.80729 0.7892 0.85863 0.0
H569 H 0.81668 0.79975 0.71922 0.0
H570 H 0.77791 0.81414 0.61329 0.0
H571 H 0.78873 0.80515 0.64602 0.0
H572 H 0.77987 0.79547 0.78569 0.0
C573 C 0.81025 0.78458 0.83703 0.0
C574 C 0.80862 0.79872 0.73392 0.0
C575 C 0.81494 0.77794 0.85538 0.0
C576 C 0.77907 0.81454 0.64846 0.0
C577 C 0.78532 0.80944 0.66719 0.0
C578 C 0.78799 0.79661 0.77116 0.0
C579 C 0.80938 0.78524 0.79134 0.0
C580 C 0.80383 0.79177 0.77178 0.0
C581 C 0.78674 0.80951 0.71285 0.0
C582 C 0.79273 0.80351 0.73319 0.0
H583 H 0.82112 0.76803 0.76102 0.0
H584 H 0.81284 0.7795 0.72915 0.0
H585 H 0.78943 0.78535 0.81889 0.0
H586 H 0.77225 0.82421 0.74201 0.0
H587 H 0.78319 0.81545 0.77442 0.0
C588 C 0.22496 0.0426 0.78888 0.0
C589 C 0.22645 0.04408 0.83443 0.0
C590 C 0.21852 0.03126 0.77065 0.0
C591 C 0.19636 6e-05 0.79622 0.0
H592 H 0.20896 0.99357 0.69125 0.0
C593 C 0.17826 0.95277 0.72534 0.0
C594 C 0.17717 0.95151 0.67961 0.0
C595 C 0.18373 0.96404 0.74454 0.0
C596 C 0.20525 0.99528 0.72023 0.0
H597 H 0.22221 0.03482 0.89666 0.0
H598 H 0.21106 0.01493 0.86467 0.0
H599 H 0.21962 0.0132 0.72477 0.0
H600 H 0.18077 0.96109 0.6182 0.0
H601 H 0.1903 0.98079 0.6518 0.0
H602 H 0.18203 0.98205 0.79175 0.0
C603 C 0.21477 0.02258 0.84313 0.0
C604 C 0.21135 0.00653 0.73947 0.0
C605 C 0.22121 0.03397 0.86144 0.0
C606 C 0.1815 0.96176 0.65352 0.0
C607 C 0.18702 0.97304 0.67274 0.0
C608 C 0.19026 0.98878 0.77699 0.0
C609 C 0.21345 0.02111 0.79748 0.0
C610 C 0.20697 0.00907 0.77759 0.0
C611 C 0.18828 0.9743 0.71844 0.0
C612 C 0.19463 0.98629 0.73872 0.0
H613 H 0.22879 0.0502 0.76711 0.0
H614 H 0.21748 0.03046 0.73544 0.0
H615 H 0.19268 0.00177 0.82526 0.0
H616 H 0.175 0.94505 0.74639 0.0
H617 H 0.18467 0.96473 0.77981 0.0
C618 C 0.04534 0.22657 0.7078 0.0
C619 C 0.04667 0.22688 0.66209 0.0
C620 C 0.03406 0.22035 0.72681 0.0
C621 C 0.00254 0.20925 0.70239 0.0
H622 H 0.997 0.19044 0.80754 0.0
C623 C 0.95561 0.18048 0.77345 0.0
C624 C 0.95433 0.18062 0.81907 0.0
C625 C 0.96688 0.18561 0.7545 0.0
C626 C -0.00156 0.19576 0.77845 0.0
H627 H 0.03721 0.22071 0.60049 0.0
H628 H 0.01751 0.20979 0.63377 0.0
H629 H 0.01667 0.2002 0.7736 0.0
H630 H 0.96388 0.18612 0.88067 0.0
H631 H 0.98363 0.19524 0.84745 0.0
H632 H 0.98439 0.20494 0.70735 0.0
C633 C 0.0252 0.21448 0.65484 0.0
C634 C 0.00969 0.20133 0.75897 0.0
C635 C 0.03649 0.22068 0.63581 0.0
C636 C 0.96457 0.18586 0.84542 0.0
C637 C 0.97588 0.19103 0.8264 0.0
C638 C 0.99131 0.20371 0.72187 0.0
C639 C 0.02386 0.21431 0.70054 0.0
C640 C 0.01186 0.20814 0.72075 0.0
C641 C 0.97716 0.19104 0.78068 0.0
C642 C 0.98912 0.1969 0.76011 0.0
H643 H 0.053 0.23125 0.72901 0.0
H644 H 0.03332 0.2205 0.76208 0.0
H645 H 0.00398 0.21461 0.67341 0.0
H646 H 0.9479 0.17645 0.75219 0.0
H647 H 0.96755 0.18529 0.71926 0.0
C648 C 0.8515 0.55365 0.48445 0.0
C649 C 0.84877 0.56051 0.51258 0.0
C650 C 0.85617 0.5468 0.50119 0.0
C651 C 0.85882 0.53306 0.60324 0.0
H652 H 0.88566 0.5337 0.54489 0.0
C653 C 0.88654 0.51457 0.68336 0.0
C654 C 0.8903 0.50831 0.6564 0.0
C655 C 0.88109 0.52054 0.66526 0.0
C656 C 0.87807 0.5333 0.56128 0.0
H657 H 0.84871 0.56551 0.58034 0.0
H658 H 0.85689 0.55365 0.60933 0.0
H659 H 0.87667 0.54466 0.51373 0.0
H660 H 0.89118 0.5033 0.58931 0.0
H661 H 0.88157 0.51358 0.5579 0.0
H662 H 0.86022 0.52173 0.65086 0.0
C663 C 0.85532 0.55345 0.57444 0.0
C664 C 0.87292 0.53957 0.5434 0.0
C665 C 0.85071 0.56032 0.55774 0.0
C666 C 0.88844 0.50809 0.61102 0.0
C667 C 0.88298 0.51404 0.59294 0.0
C668 C 0.86395 0.52676 0.62107 0.0
C669 C 0.85814 0.54665 0.54638 0.0
C670 C 0.86329 0.53958 0.56434 0.0
C671 C 0.87929 0.52037 0.61981 0.0
C672 C 0.87367 0.52687 0.60043 0.0
H673 H 0.85009 0.5536 0.4495 0.0
H674 H 0.85816 0.54155 0.4788 0.0
H675 H 0.85129 0.53275 0.61979 0.0
H676 H 0.88788 0.51494 0.71844 0.0
H677 H 0.87848 0.52546 0.68681 0.0
C678 C 0.4349 0.29538 0.49872 0.0
C679 C 0.42901 0.28545 0.5264 0.0
C680 C 0.44141 0.30683 0.51629 0.0
C681 C 0.45612 0.32305 0.61763 0.0
H682 H 0.4526 0.34839 0.56582 0.0
C683 C 0.47403 0.3691 0.69973 0.0
C684 C 0.47926 0.3791 0.67213 0.0
C685 C 0.46821 0.35762 0.68205 0.0
C686 C 0.45379 0.34144 0.58036 0.0
H687 H 0.42544 0.27975 0.59422 0.0
H688 H 0.43672 0.2997 0.62468 0.0
H689 H 0.44206 0.32851 0.53414 0.0
H690 H 0.48269 0.38487 0.60438 0.0
H691 H 0.4727 0.36492 0.57375 0.0
H692 H 0.46785 0.336 0.66393 0.0
C693 C 0.4364 0.29863 0.58947 0.0
C694 C 0.44776 0.33006 0.56217 0.0
C695 C 0.42988 0.2872 0.57195 0.0
C696 C 0.47869 0.37737 0.6266 0.0
C697 C 0.4729 0.36593 0.60898 0.0
C698 C 0.46218 0.33445 0.6358 0.0
C699 C 0.4422 0.30858 0.56186 0.0
C700 C 0.44884 0.32073 0.58063 0.0
C701 C 0.46751 0.35592 0.63644 0.0
C702 C 0.46108 0.34378 0.61736 0.0
H703 H 0.43443 0.29432 0.4635 0.0
H704 H 0.44589 0.31431 0.49418 0.0
H705 H 0.45725 0.31607 0.63226 0.0
H706 H 0.4743 0.37014 0.73495 0.0
H707 H 0.46405 0.35008 0.70407 0.0
C708 C 0.7128 0.15376 0.56226 0.0
C709 C 0.71457 0.15504 0.51676 0.0
C710 C 0.70134 0.14739 0.5796 0.0
C711 C 0.67098 0.12412 0.55134 0.0
H712 H 0.662 0.13581 0.65283 0.0
C713 C 0.62267 0.10171 0.61291 0.0
C714 C 0.62077 0.10048 0.65835 0.0
C715 C 0.63412 0.10855 0.596 0.0
C716 C 0.66442 0.13236 0.6248 0.0
H717 H 0.70567 0.15073 0.45376 0.0
H718 H 0.68562 0.13961 0.48412 0.0
H719 H 0.68196 0.14754 0.62225 0.0
H720 H 0.62943 0.10549 0.72172 0.0
H721 H 0.6495 0.11733 0.69211 0.0
H722 H 0.65351 0.10891 0.55399 0.0
C723 C 0.69314 0.14347 0.50632 0.0
C724 C 0.67584 0.13909 0.60725 0.0
C725 C 0.70461 0.14989 0.48896 0.0
C726 C 0.6306 0.10629 0.68655 0.0
C727 C 0.64208 0.11312 0.66959 0.0
C728 C 0.65958 0.11738 0.56895 0.0
C729 C 0.69138 0.14211 0.55183 0.0
C730 C 0.67923 0.13505 0.57028 0.0
C731 C 0.64397 0.1143 0.62409 0.0
C732 C 0.65616 0.12143 0.60582 0.0
H733 H 0.72029 0.15762 0.5846 0.0
H734 H 0.70028 0.14639 0.61478 0.0
H735 H 0.6734 0.12068 0.5233 0.0
H736 H 0.61529 0.09742 0.59025 0.0
H737 H 0.63524 0.10943 0.56083 0.0
C738 C 0.48704 0.1092 0.11425 0.0
C739 C 0.48671 0.10701 0.15941 0.0
C740 C 0.4819 0.11556 0.09731 0.0
C741 C 0.47098 0.13603 0.12724 0.0
H742 H 0.45205 0.12355 0.02186 0.0
C743 C 0.43815 0.15071 0.06702 0.0
C744 C 0.43738 0.15213 0.02176 0.0
C745 C 0.44506 0.14609 0.08324 0.0
C746 C 0.45744 0.12726 0.05092 0.0
H747 H 0.48096 0.11002 0.22237 0.0
H748 H 0.47182 0.12103 0.19264 0.0
H749 H 0.46242 0.11385 0.05175 0.0
H750 H 0.44348 0.15006 0.95803 0.0
H751 H 0.45561 0.14201 0.98644 0.0
H752 H 0.46584 0.14935 0.12662 0.0
C753 C 0.47618 0.11792 0.17041 0.0
C754 C 0.46339 0.1217 0.06809 0.0
C755 C 0.48136 0.11156 0.18742 0.0
C756 C 0.44385 0.14903 0.99307 0.0
C757 C 0.45075 0.14437 0.00931 0.0
C758 C 0.46502 0.14159 0.11006 0.0
C759 C 0.47627 0.11986 0.12508 0.0
C760 C 0.47019 0.12599 0.10653 0.0
C761 C 0.45135 0.14276 0.05457 0.0
C762 C 0.45814 0.13723 0.07182 0.0
H763 H 0.49118 0.10591 0.09177 0.0
H764 H 0.48231 0.11708 0.06234 0.0
H765 H 0.47628 0.13965 0.15655 0.0
H766 H 0.43329 0.15302 0.09005 0.0
H767 H 0.44522 0.14483 0.11822 0.0
C768 C 0.85204 0.29322 0.00091 0.0
C769 C 0.8595 0.28874 0.98884 0.0
C770 C 0.85649 0.3037 0.02528 0.0
C771 C 0.88028 0.32211 0.10246 0.0
H772 H 0.87255 0.34654 0.0735 0.0
C773 C 0.90315 0.36802 0.18681 0.0
C774 C 0.89633 0.37347 0.19506 0.0
C775 C 0.89843 0.35751 0.16252 0.0
C776 C 0.87465 0.33973 0.08246 0.0
H777 H 0.87756 0.29188 0.99216 0.0
H778 H 0.8853 0.31016 0.03477 0.0
H779 H 0.86482 0.32872 0.02824 0.0
H780 H 0.87906 0.37196 0.18546 0.0
H781 H 0.87072 0.35346 0.14404 0.0
H782 H 0.88997 0.33298 0.15696 0.0
C783 C 0.87599 0.3055 0.02562 0.0
C784 C 0.87026 0.32954 0.0564 0.0
C785 C 0.87156 0.29508 0.00097 0.0
C786 C 0.88458 0.36802 0.17943 0.0
C787 C 0.87982 0.35746 0.1554 0.0
C788 C 0.8846 0.33224 0.12871 0.0
C789 C 0.86848 0.30986 0.03837 0.0
C790 C 0.87308 0.32066 0.06602 0.0
C791 C 0.88674 0.35215 0.1462 0.0
C792 C 0.88188 0.34121 0.11894 0.0
H793 H 0.8427 0.28855 0.99205 0.0
H794 H 0.85048 0.30682 0.03488 0.0
H795 H 0.88244 0.31531 0.11107 0.0
H796 H 0.91226 0.37202 0.19818 0.0
H797 H 0.90407 0.35377 0.15558 0.0
C798 C 0.62983 0.53921 0.19226 0.0
C799 C 0.62434 0.52731 0.2063 0.0
C800 C 0.63989 0.5439 0.16551 0.0
C801 C 0.66453 0.53983 0.12825 0.0
H802 H 0.66355 0.55672 0.02504 0.0
C803 C 0.70071 0.55546 0.99471 0.0
C804 C 0.70482 0.56693 0.97771 0.0
C805 C 0.69052 0.55004 0.02091 0.0
C806 C 0.66405 0.55215 0.05391 0.0
H807 H 0.62548 0.51119 0.2051 0.0
H808 H 0.64316 0.51946 0.15867 0.0
H809 H 0.64711 0.54891 0.0769 0.0
H810 H 0.70127 0.58157 0.97387 0.0
H811 H 0.68369 0.57225 0.02002 0.0
H812 H 0.68157 0.54326 0.10579 0.0
C813 C 0.63961 0.52511 0.16826 0.0
C814 C 0.65462 0.54767 0.08361 0.0
C815 C 0.62948 0.52038 0.19475 0.0
C816 C 0.69832 0.5727 0.98628 0.0
C817 C 0.68819 0.56733 0.01266 0.0
C818 C 0.67403 0.5444 0.0987 0.0
C819 C 0.64474 0.53683 0.15254 0.0
C820 C 0.65479 0.54153 0.12118 0.0
C821 C 0.68425 0.556 0.03084 0.0
C822 C 0.67392 0.55067 0.06126 0.0
H823 H 0.62613 0.54481 0.20064 0.0
H824 H 0.64378 0.55302 0.15442 0.0
H825 H 0.66493 0.53519 0.1571 0.0
H826 H 0.70549 0.55075 0.98854 0.0
H827 H 0.68761 0.54122 0.03367 0.0
C828 C 0.52145 0.89002 0.80884 0.0
C829 C 0.50902 0.88317 0.80447 0.0
C830 C 0.52762 0.88595 0.83422 0.0
C831 C 0.52643 0.85961 0.88265 0.0
H832 H 0.54829 0.88212 0.96772 0.0
C833 C 0.55109 0.84637 0.0081 0.0
C834 C 0.56313 0.85475 0.01561 0.0
C835 C 0.54384 0.84953 0.98463 0.0
C836 C 0.54233 0.87576 0.94386 0.0
H837 H 0.4934 0.86638 0.82147 0.0
H838 H 0.50428 0.85919 0.86544 0.0
H839 H 0.53715 0.88796 0.91953 0.0
H840 H 0.57692 0.87308 0.00506 0.0
H841 H 0.56441 0.8785 0.96347 0.0
H842 H 0.53183 0.84749 0.9061 0.0
C843 C 0.50918 0.86776 0.84938 0.0
C844 C 0.53594 0.87911 0.91632 0.0
C845 C 0.50297 0.87189 0.82429 0.0
C846 C 0.56767 0.86642 9e-05 0.0
C847 C 0.56046 0.86955 0.97636 0.0
C848 C 0.53293 0.85628 0.90993 0.0
C849 C 0.52152 0.87489 0.85542 0.0
C850 C 0.52801 0.87111 0.88519 0.0
C851 C 0.54848 0.86112 0.96792 0.0
C852 C 0.54104 0.86436 0.94063 0.0
H853 H 0.5264 0.89874 0.79391 0.0
H854 H 0.53716 0.89154 0.83779 0.0
H855 H 0.52041 0.85329 0.85878 0.0
H856 H 0.54731 0.83731 0.01982 0.0
H857 H 0.5346 0.84287 0.9794 0.0
C858 C 0.09819 0.61762 0.87758 0.0
C859 C 0.09747 0.61544 0.83231 0.0
C860 C 0.10437 0.62923 0.89369 0.0
C861 C 0.11457 0.66012 0.86253 0.0
H862 H 0.13477 0.66767 0.96491 0.0
C863 C 0.14322 0.70817 0.92414 0.0
C864 C 0.14375 0.71008 0.96956 0.0
C865 C 0.13804 0.69666 0.90725 0.0
C866 C 0.12906 0.66568 0.93659 0.0
H867 H 0.10276 0.62374 0.76842 0.0
H868 H 0.11359 0.64408 0.79669 0.0
H869 H 0.12502 0.64754 0.93502 0.0
H870 H 0.13934 0.70141 0.03293 0.0
H871 H 0.13009 0.68123 0.00335 0.0
H872 H 0.11846 0.67818 0.86433 0.0
C873 C 0.10929 0.63677 0.81962 0.0
C874 C 0.12351 0.65416 0.91942 0.0
C875 C 0.10314 0.62513 0.80346 0.0
C876 C 0.13908 0.70022 0.99779 0.0
C877 C 0.13384 0.68867 0.98083 0.0
C878 C 0.12009 0.67162 0.87977 0.0
C879 C 0.10994 0.63893 0.86492 0.0
C880 C 0.11618 0.65125 0.88227 0.0
C881 C 0.13321 0.68677 0.93534 0.0
C882 C 0.12739 0.67453 0.91704 0.0
H883 H 0.09393 0.61036 0.90073 0.0
H884 H 0.10459 0.63061 0.92871 0.0
H885 H 0.10883 0.65811 0.8343 0.0
H886 H 0.14682 0.71557 0.90145 0.0
H887 H 0.13789 0.69553 0.8721 0.0
C888 C 0.29229 0.44053 0.00909 0.0
C889 C 0.2824 0.43494 0.98108 0.0
C890 C 0.30381 0.44665 0.99197 0.0
C891 C 0.32107 0.44908 0.89256 0.0
H892 H 0.34437 0.47935 0.94267 0.0
C893 C 0.36678 0.47913 0.81223 0.0
C894 C 0.37668 0.48435 0.84031 0.0
C895 C 0.35525 0.47327 0.82929 0.0
C896 C 0.33799 0.47085 0.92859 0.0
H897 H 0.27685 0.43143 0.91312 0.0
H898 H 0.29691 0.44221 0.88334 0.0
H899 H 0.32431 0.4687 0.97299 0.0
H900 H 0.38224 0.48759 0.90831 0.0
H901 H 0.36213 0.47731 0.93798 0.0
H902 H 0.33475 0.45122 0.84815 0.0
C903 C 0.29578 0.44173 0.91854 0.0
C904 C 0.32651 0.46475 0.94599 0.0
C905 C 0.28427 0.4356 0.93563 0.0
C906 C 0.3748 0.48368 0.88576 0.0
C907 C 0.36328 0.47785 0.90279 0.0
C908 C 0.33255 0.45518 0.87513 0.0
C909 C 0.30569 0.44731 0.94649 0.0
C910 C 0.31791 0.45379 0.92817 0.0
C911 C 0.35337 0.47254 0.87477 0.0
C912 C 0.34114 0.46613 0.89297 0.0
H913 H 0.29114 0.44015 0.04427 0.0
H914 H 0.31127 0.45074 0.01439 0.0
H915 H 0.31471 0.44056 0.87852 0.0
H916 H 0.36793 0.47952 0.77705 0.0
H917 H 0.34779 0.4694 0.80685 0.0
C918 C 0.09349 0.46759 0.37409 0.0
C919 C 0.09458 0.47111 0.33005 0.0
C920 C 0.10046 0.46313 0.391 0.0
C921 C 0.11802 0.44919 0.36007 0.0
H922 H 0.13259 0.46044 0.47392 0.0
C923 C 0.15161 0.43697 0.43216 0.0
C924 C 0.15058 0.43415 0.47694 0.0
C925 C 0.14505 0.44173 0.41373 0.0
C926 C 0.12848 0.45711 0.44233 0.0
H927 H 0.1037 0.47251 0.26897 0.0
H928 H 0.11592 0.46467 0.29866 0.0
H929 H 0.12054 0.46812 0.44214 0.0
H930 H 0.14189 0.43415 0.53755 0.0
H931 H 0.13031 0.44231 0.50525 0.0
H932 H 0.12585 0.43808 0.36042 0.0
C933 C 0.10962 0.46534 0.31998 0.0
C934 C 0.12159 0.46152 0.4241 0.0
C935 C 0.10266 0.46987 0.30304 0.0
C936 C 0.14292 0.43627 0.50298 0.0
C937 C 0.13632 0.44101 0.4845 0.0
C938 C 0.12488 0.44474 0.37837 0.0
C939 C 0.10866 0.46204 0.36427 0.0
C940 C 0.11624 0.45756 0.38289 0.0
C941 C 0.13728 0.44375 0.43961 0.0
C942 C 0.13015 0.44861 0.41981 0.0
H943 H 0.08732 0.46838 0.39579 0.0
H944 H 0.09939 0.46048 0.42506 0.0
H945 H 0.11389 0.44587 0.32848 0.0
H946 H 0.15748 0.4355 0.41121 0.0
H947 H 0.14614 0.44391 0.37921 0.0
C948 C 0.51896 0.6263 0.30924 0.0
C949 C 0.5134 0.6162 0.33624 0.0
C950 C 0.52495 0.6377 0.32757 0.0
C951 C 0.53883 0.65348 0.43083 0.0
H952 H 0.53645 0.67928 0.37711 0.0
C953 C 0.55826 0.69989 0.51114 0.0
C954 C 0.56474 0.70966 0.48324 0.0
C955 C 0.55153 0.68841 0.49394 0.0
C956 C 0.53726 0.67217 0.39231 0.0
H957 H 0.50969 0.61015 0.40363 0.0
H958 H 0.51995 0.62998 0.43541 0.0
H959 H 0.52571 0.6594 0.34524 0.0
H960 H 0.56911 0.71505 0.41539 0.0
H961 H 0.55742 0.69508 0.38558 0.0
H962 H 0.55036 0.66627 0.47795 0.0
C963 C 0.51987 0.62912 0.40015 0.0
C964 C 0.53114 0.66079 0.37399 0.0
C965 C 0.51393 0.61774 0.38187 0.0
C966 C 0.56423 0.70773 0.43783 0.0
C967 C 0.55747 0.69629 0.42067 0.0
C968 C 0.54491 0.66485 0.44925 0.0
C969 C 0.52548 0.63924 0.37326 0.0
C970 C 0.5319 0.65132 0.39292 0.0
C971 C 0.5511 0.6865 0.44851 0.0
C972 C 0.54424 0.67432 0.43004 0.0
H973 H 0.51874 0.62541 0.27396 0.0
H974 H 0.52931 0.64531 0.30593 0.0
H975 H 0.53976 0.64643 0.44587 0.0
H976 H 0.55846 0.70109 0.54627 0.0
H977 H 0.54662 0.68103 0.51615 0.0
C978 C 0.36799 0.89324 0.30267 0.0
C979 C 0.37794 0.89657 0.3296 0.0
C980 C 0.35655 0.88771 0.32059 0.0
C981 C 0.34088 0.8836 0.42606 0.0
H982 H 0.31408 0.85857 0.36322 0.0
C983 C 0.29394 0.85584 0.50203 0.0
C984 C 0.28438 0.85411 0.47536 0.0
C985 C 0.30544 0.86091 0.48476 0.0
C986 C 0.32148 0.86561 0.38099 0.0
H987 H 0.38368 0.89643 0.39619 0.0
H988 H 0.36376 0.88657 0.42715 0.0
H989 H 0.33398 0.8674 0.33174 0.0
H990 H 0.27939 0.85637 0.40976 0.0
H991 H 0.2994 0.86515 0.37981 0.0
H992 H 0.32835 0.8817 0.47547 0.0
C993 C 0.36478 0.88847 0.39242 0.0
C994 C 0.33287 0.87069 0.36293 0.0
C995 C 0.3762 0.89406 0.37459 0.0
C996 C 0.28655 0.85757 0.43121 0.0
C997 C 0.298 0.86254 0.41392 0.0
C998 C 0.3295 0.87846 0.44425 0.0
C999 C 0.35482 0.88534 0.36575 0.0
C1000 C 0.34271 0.87979 0.38516 0.0
C1001 C 0.30756 0.86423 0.44046 0.0
C1002 C 0.31968 0.86946 0.42179 0.0
H1003 H 0.36905 0.89509 0.2679 0.0
H1004 H 0.34909 0.88555 0.29917 0.0
H1005 H 0.34822 0.89072 0.44374 0.0
H1006 H 0.29255 0.85326 0.53617 0.0
H1007 H 0.31264 0.86205 0.50589 0.0
C1008 C 0.10531 0.24502 0.67834 0.0
C1009 C 0.09685 0.23432 0.65862 0.0
C1010 C 0.11305 0.24508 0.71011 0.0
C1011 C 0.11573 0.22596 0.79217 0.0
H1012 H 0.14807 0.25239 0.80022 0.0
C1013 C 0.14723 0.23197 0.93729 0.0
C1014 C 0.15245 0.24336 0.95622 0.0
C1015 C 0.14141 0.22977 0.89685 0.0
C1016 C 0.13907 0.24493 0.79832 0.0
H1017 H 0.09004 0.21528 0.6562 0.0
H1018 H 0.10365 0.21539 0.71181 0.0
H1019 H 0.13608 0.25047 0.73601 0.0
H1020 H 0.15597 0.26142 0.94717 0.0
H1021 H 0.14593 0.2576 0.87699 0.0
H1022 H 0.11868 0.22061 0.85514 0.0
C1023 C 0.1042 0.22373 0.70282 0.0
C1024 C 0.1322 0.24385 0.76165 0.0
C1025 C 0.09644 0.22367 0.67087 0.0
C1026 C 0.152 0.25254 0.93356 0.0
C1027 C 0.14634 0.25038 0.89313 0.0
C1028 C 0.12264 0.22702 0.82886 0.0
C1029 C 0.11254 0.23443 0.72296 0.0
C1030 C 0.12033 0.23456 0.75877 0.0
C1031 C 0.1409 0.23897 0.87448 0.0
C1032 C 0.13426 0.23673 0.83285 0.0
H1033 H 0.10586 0.25338 0.66975 0.0
H1034 H 0.11922 0.25345 0.72551 0.0
H1035 H 0.1066 0.21874 0.79109 0.0
H1036 H 0.14743 0.22472 0.95406 0.0
H1037 H 0.1373 0.22089 0.88311 0.0
C1038 C 0.7357 0.89443 0.96427 0.0
C1039 C 0.74623 0.90382 0.98171 0.0
C1040 C 0.73597 0.88855 0.92656 0.0
C1041 C 0.75433 0.89046 0.83092 0.0
H1042 H 0.73365 0.85617 0.83136 0.0
C1043 C 0.75604 0.85854 0.70125 0.0
C1044 C 0.74501 0.84941 0.68584 0.0
C1045 C 0.75656 0.86589 0.73564 0.0
C1046 C 0.73939 0.86575 0.83056 0.0
H1047 H 0.7653 0.91465 0.97266 0.0
H1048 H 0.76583 0.90414 0.90685 0.0
H1049 H 0.73411 0.86772 0.89469 0.0
H1050 H 0.72587 0.84104 0.69369 0.0
H1051 H 0.72679 0.85383 0.75377 0.0
H1052 H 0.75972 0.88833 0.76673 0.0
C1053 C 0.75733 0.90145 0.92217 0.0
C1054 C 0.73964 0.87239 0.86681 0.0
C1055 C 0.75704 0.90744 0.9599 0.0
C1056 C 0.73451 0.84795 0.70489 0.0
C1057 C 0.73503 0.85524 0.73943 0.0
C1058 C 0.75413 0.88377 0.79462 0.0
C1059 C 0.7468 0.8918 0.90553 0.0
C1060 C 0.747 0.88483 0.86728 0.0
C1061 C 0.74606 0.86419 0.75549 0.0
C1062 C 0.74655 0.87137 0.79397 0.0
H1063 H 0.7272 0.89154 0.97993 0.0
H1064 H 0.72765 0.88138 0.91402 0.0
H1065 H 0.76003 0.90003 0.8301 0.0
H1066 H 0.7643 0.85992 0.68718 0.0
H1067 H 0.76518 0.87268 0.74755 0.0
C1068 C 0.08152 0.85214 0.95219 0.0
C1069 C 0.08599 0.8446 0.96342 0.0
C1070 C 0.08477 0.8584 0.91259 0.0
C1071 C 0.09796 0.85948 0.80396 0.0
H1072 H 0.11066 0.89354 0.8122 0.0
C1073 C 0.13318 0.89253 0.68592 0.0
C1074 C 0.13293 0.90283 0.6734 0.0
C1075 C 0.12507 0.8847 0.71648 0.0
C1076 C 0.10692 0.88402 0.80902 0.0
H1077 H 0.09696 0.83736 0.94126 0.0
H1078 H 0.10259 0.84823 0.87257 0.0
H1079 H 0.1004 0.88089 0.87483 0.0
H1080 H 0.12375 0.91279 0.68225 0.0
H1081 H 0.10954 0.89903 0.73586 0.0
H1082 H 0.10483 0.86264 0.73868 0.0
C1083 C 0.09655 0.84928 0.89408 0.0
C1084 C 0.10104 0.87677 0.84492 0.0
C1085 C 0.0934 0.84313 0.93367 0.0
C1086 C 0.12419 0.90495 0.69132 0.0
C1087 C 0.11608 0.89711 0.72212 0.0
C1088 C 0.10381 0.86671 0.76808 0.0
C1089 C 0.09242 0.85712 0.88336 0.0
C1090 C 0.09683 0.86447 0.84319 0.0
C1091 C 0.11652 0.88696 0.73534 0.0
C1092 C 0.10869 0.87911 0.77069 0.0
H1093 H 0.07578 0.85345 0.97446 0.0
H1094 H 0.0814 0.86433 0.90503 0.0
H1095 H 0.09462 0.85 0.80143 0.0
H1096 H 0.13979 0.89062 0.67274 0.0
H1097 H 0.12578 0.87706 0.72643 0.0
C1098 C 0.22519 0.09557 0.82159 0.0
C1099 C 0.23538 0.09465 0.82916 0.0
C1100 C 0.22497 0.10267 0.78753 0.0
C1101 C 0.24483 0.12721 0.71325 0.0
H1102 H 0.21722 0.11453 0.63715 0.0
C1103 C 0.24723 0.14454 0.53951 0.0
C1104 C 0.2381 0.14654 0.52505 0.0
C1105 C 0.24625 0.13888 0.57928 0.0
C1106 C 0.22492 0.11826 0.65851 0.0
H1107 H 0.25338 0.10052 0.80713 0.0
H1108 H 0.25296 0.11273 0.74764 0.0
H1109 H 0.21678 0.10346 0.70252 0.0
H1110 H 0.22069 0.14403 0.54079 0.0
H1111 H 0.21894 0.13395 0.6106 0.0
H1112 H 0.25309 0.14183 0.6686 0.0
C1113 C 0.24518 0.10814 0.76835 0.0
C1114 C 0.22467 0.11194 0.69595 0.0
C1115 C 0.2454 0.10107 0.80232 0.0
C1116 C 0.22788 0.14263 0.55111 0.0
C1117 C 0.22686 0.13684 0.59093 0.0
C1118 C 0.24509 0.13349 0.67582 0.0
C1119 C 0.23496 0.109 0.76044 0.0
C1120 C 0.23472 0.11623 0.72321 0.0
C1121 C 0.2361 0.13501 0.6055 0.0
C1122 C 0.23524 0.12896 0.64757 0.0
H1123 H 0.21733 0.09076 0.84178 0.0
H1124 H 0.21701 0.10323 0.78253 0.0
H1125 H 0.25262 0.13089 0.7341 0.0
H1126 H 0.25521 0.14742 0.52025 0.0
H1127 H 0.25343 0.13742 0.58931 0.0
C1128 C 0.84763 0.10702 0.53428 0.0
C1129 C 0.84532 0.09617 0.51572 0.0
C1130 C 0.85343 0.11072 0.57445 0.0
C1131 C 0.87428 0.10766 0.64566 0.0
H1132 H 0.86417 0.12306 0.73042 0.0
C1133 C 0.90028 0.1284 0.80616 0.0
C1134 C 0.90208 0.13976 0.81617 0.0
C1135 C 0.89234 0.12155 0.77307 0.0
C1136 C 0.86714 0.11882 0.70701 0.0
H1137 H 0.84719 0.08061 0.52489 0.0
H1138 H 0.85748 0.08717 0.59535 0.0
H1139 H 0.85198 0.11368 0.66593 0.0
H1140 H 0.89689 0.15279 0.79958 0.0
H1141 H 0.88321 0.14096 0.74181 0.0
H1142 H 0.88964 0.11314 0.68607 0.0
C1143 C 0.85477 0.09278 0.57859 0.0
C1144 C 0.86014 0.11344 0.67015 0.0
C1145 C 0.84885 0.08902 0.53841 0.0
C1146 C 0.89569 0.14407 0.7928 0.0
C1147 C 0.88777 0.13724 0.75986 0.0
C1148 C 0.88131 0.11309 0.68253 0.0
C1149 C 0.85712 0.10368 0.59695 0.0
C1150 C 0.86378 0.10805 0.63858 0.0
C1151 C 0.88603 0.12592 0.74948 0.0
C1152 C 0.87795 0.11898 0.71306 0.0
H1153 H 0.84502 0.11274 0.5177 0.0
H1154 H 0.85527 0.11924 0.58744 0.0
H1155 H 0.87735 0.10365 0.62169 0.0
H1156 H 0.90504 0.12481 0.82367 0.0
H1157 H 0.89111 0.11283 0.76606 0.0
C1158 C 0.8697 0.77049 0.81888 0.0
C1159 C 0.85899 0.76023 0.83037 0.0
C1160 C 0.87703 0.76998 0.7864 0.0
C1161 C 0.8829 0.74887 0.72467 0.0
H1162 H 0.8945 0.77305 0.63418 0.0
C1163 C 0.89538 0.741 0.55322 0.0
C1164 C 0.90533 0.75026 0.5322 0.0
C1165 C 0.89149 0.74293 0.59327 0.0
C1166 C 0.89152 0.76635 0.65958 0.0
H1167 H 0.84769 0.74137 0.81737 0.0
H1168 H 0.86038 0.74052 0.76072 0.0
H1169 H 0.88448 0.77516 0.69826 0.0
H1170 H 0.91911 0.7688 0.537 0.0
H1171 H 0.91222 0.7722 0.60726 0.0
H1172 H 0.88962 0.73988 0.68539 0.0
C1173 C 0.86321 0.74893 0.77707 0.0
C1174 C 0.88577 0.76755 0.69629 0.0
C1175 C 0.85588 0.74943 0.80936 0.0
C1176 C 0.91141 0.76149 0.55241 0.0
C1177 C 0.90745 0.76345 0.59249 0.0
C1178 C 0.88862 0.74766 0.68799 0.0
C1179 C 0.87382 0.7592 0.76496 0.0
C1180 C 0.88115 0.75867 0.72872 0.0
C1181 C 0.89741 0.75418 0.61323 0.0
C1182 C 0.89273 0.75624 0.65456 0.0
H1183 H 0.87236 0.77894 0.83454 0.0
H1184 H 0.88521 0.77803 0.77803 0.0
H1185 H 0.87966 0.742 0.74953 0.0
H1186 H 0.8905 0.73224 0.53858 0.0
H1187 H 0.88362 0.73566 0.60807 0.0
C1188 C 0.84984 0.76263 0.05231 0.0
C1189 C 0.84439 0.75132 0.03264 0.0
C1190 C 0.85578 0.76457 0.09235 0.0
C1191 C 0.85844 0.74875 0.18861 0.0
H1192 H 0.89051 0.7756 0.19747 0.0
C1193 C 0.89269 0.74953 0.30883 0.0
C1194 C 0.90064 0.76026 0.3297 0.0
C1195 C 0.88492 0.74925 0.27669 0.0
C1196 C 0.88149 0.76818 0.19589 0.0
H1197 H 0.84069 0.73314 0.03997 0.0
H1198 H 0.85102 0.73653 0.10934 0.0
H1199 H 0.87836 0.77373 0.13369 0.0
H1200 H 0.90654 0.7791 0.33366 0.0
H1201 H 0.89291 0.7786 0.27736 0.0
H1202 H 0.86164 0.74303 0.25018 0.0
C1203 C 0.85064 0.74388 0.09417 0.0
C1204 C 0.87453 0.76712 0.15936 0.0
C1205 C 0.8448 0.74197 0.05417 0.0
C1206 C 0.90054 0.77069 0.31813 0.0
C1207 C 0.89277 0.77042 0.28578 0.0
C1208 C 0.86537 0.74982 0.22508 0.0
C1209 C 0.85627 0.75521 0.11358 0.0
C1210 C 0.86305 0.75722 0.15483 0.0
C1211 C 0.88492 0.7597 0.26457 0.0
C1212 C 0.87708 0.75938 0.2286 0.0
H1213 H 0.84967 0.77001 0.03649 0.0
H1214 H 0.85999 0.77339 0.10669 0.0
H1215 H 0.84953 0.74115 0.1864 0.0
H1216 H 0.89254 0.74133 0.31691 0.0
H1217 H 0.87912 0.74088 0.26051 0.0
C1218 C 0.24884 0.10565 0.03295 0.0
C1219 C 0.24229 0.09346 0.02296 0.0
C1220 C 0.24602 0.11015 0.06954 0.0
C1221 C 0.23163 0.10205 0.17696 0.0
H1222 H 0.23251 0.13225 0.16539 0.0
C1223 C 0.22179 0.1253 0.32077 0.0
C1224 C 0.2298 0.13758 0.32478 0.0
C1225 C 0.2221 0.11906 0.28387 0.0
C1226 C 0.23229 0.12384 0.1692 0.0
H1227 H 0.22768 0.07639 0.04385 0.0
H1228 H 0.22276 0.08434 0.10828 0.0
H1229 H 0.23511 0.12278 0.10085 0.0
H1230 H 0.24447 0.1529 0.29341 0.0
H1231 H 0.24502 0.14206 0.22951 0.0
H1232 H 0.22901 0.10327 0.24564 0.0
C1233 C 0.2301 0.09036 0.08761 0.0
C1234 C 0.23377 0.11842 0.13226 0.0
C1235 C 0.23289 0.08583 0.05069 0.0
C1236 C 0.23814 0.14346 0.29132 0.0
C1237 C 0.2384 0.13726 0.25451 0.0
C1238 C 0.23015 0.1075 0.21407 0.0
C1239 C 0.23659 0.10259 0.09716 0.0
C1240 C 0.23374 0.10761 0.13585 0.0
C1241 C 0.23036 0.12501 0.25022 0.0
C1242 C 0.23073 0.11859 0.21066 0.0
H1243 H 0.25616 0.11177 0.01242 0.0
H1244 H 0.25134 0.11958 0.07647 0.0
H1245 H 0.23162 0.09375 0.18074 0.0
H1246 H 0.21526 0.1205 0.34602 0.0
H1247 H 0.21575 0.10963 0.28134 0.0
C1248 C 0.87183 0.10264 0.3208 0.0
C1249 C 0.85938 0.09717 0.31725 0.0
C1250 C 0.87906 0.10784 0.2841 0.0
C1251 C 0.87805 0.10737 0.16337 0.0
H1252 H 0.90426 0.13985 0.17004 0.0
C1253 C 0.89402 0.13819 0.01562 0.0
C1254 C 0.90625 0.14591 0.0092 0.0
C1255 C 0.8899 0.13131 0.0534 0.0
C1256 C 0.89713 0.1307 0.16783 0.0
H1257 H 0.84478 0.09284 0.27241 0.0
H1258 H 0.85734 0.10186 0.20892 0.0
H1259 H 0.89404 0.12943 0.23706 0.0
H1260 H 0.92379 0.15242 0.03718 0.0
H1261 H 0.9165 0.1404 0.10402 0.0
H1262 H 0.88081 0.10874 0.09415 0.0
C1263 C 0.86153 0.10205 0.23981 0.0
C1264 C 0.89128 0.12474 0.20615 0.0
C1265 C 0.85433 0.09696 0.27635 0.0
C1266 C 0.91431 0.14653 0.04126 0.0
C1267 C 0.91015 0.1397 0.07949 0.0
C1268 C 0.88387 0.1133 0.12521 0.0
C1269 C 0.87396 0.10752 0.2432 0.0
C1270 C 0.88142 0.11316 0.20405 0.0
C1271 C 0.89789 0.13204 0.08587 0.0
C1272 C 0.8932 0.12516 0.12688 0.0
H1273 H 0.87598 0.10296 0.3519 0.0
H1274 H 0.88863 0.112 0.28759 0.0
H1275 H 0.87064 0.09836 0.16089 0.0
H1276 H 0.88757 0.13748 0.99153 0.0
H1277 H 0.88039 0.12564 0.05769 0.0
C1278 C 0.76915 0.9015 0.18846 0.0
C1279 C 0.75928 0.90298 0.18062 0.0
C1280 C 0.76922 0.8948 0.22423 0.0
C1281 C 0.75528 0.88456 0.33221 0.0
H1282 H 0.76592 0.8615 0.32426 0.0
C1283 C 0.74386 0.84955 0.4644 0.0
C1284 C 0.75287 0.84744 0.47947 0.0
C1285 C 0.74562 0.85651 0.42744 0.0
C1286 C 0.76308 0.86803 0.32704 0.0
H1287 H 0.74162 0.89827 0.20335 0.0
H1288 H 0.74171 0.88656 0.26521 0.0
H1289 H 0.76711 0.87331 0.25982 0.0
H1290 H 0.77071 0.85073 0.46677 0.0
H1291 H 0.77379 0.86298 0.40158 0.0
H1292 H 0.75111 0.87926 0.39901 0.0
C1293 C 0.74948 0.89074 0.24424 0.0
C1294 C 0.76375 0.87477 0.29022 0.0
C1295 C 0.7494 0.89739 0.20859 0.0
C1296 C 0.76361 0.85223 0.456 0.0
C1297 C 0.76536 0.8592 0.41867 0.0
C1298 C 0.75461 0.87786 0.36881 0.0
C1299 C 0.75945 0.88951 0.25286 0.0
C1300 C 0.75962 0.88293 0.29227 0.0
C1301 C 0.75643 0.86154 0.40449 0.0
C1302 C 0.75826 0.86935 0.36642 0.0
H1303 H 0.7769 0.90569 0.16745 0.0
H1304 H 0.77704 0.89404 0.23015 0.0
H1305 H 0.75232 0.891 0.33513 0.0
H1306 H 0.73543 0.84593 0.48143 0.0
H1307 H 0.73848 0.85796 0.4168 0.0
C1308 C 0.09549 0.87201 0.18289 0.0
C1309 C 0.09574 0.86171 0.17033 0.0
C1310 C 0.10343 0.87969 0.21443 0.0
C1311 C 0.13156 0.88746 0.27208 0.0
H1312 H 0.11815 0.89698 0.36655 0.0
C1313 C 0.15197 0.89902 0.44354 0.0
C1314 C 0.15175 0.90817 0.46733 0.0
C1315 C 0.14646 0.89558 0.40278 0.0
C1316 C 0.12211 0.89461 0.34001 0.0
H1317 H 0.10471 0.85156 0.18024 0.0
H1318 H 0.11842 0.86486 0.23531 0.0
H1319 H 0.10597 0.88679 0.30283 0.0
H1320 H 0.14584 0.92113 0.4665 0.0
H1321 H 0.1361 0.91503 0.39499 0.0
H1322 H 0.14757 0.89492 0.30997 0.0
C1323 C 0.11221 0.8671 0.22052 0.0
C1324 C 0.11512 0.88877 0.30349 0.0
C1325 C 0.10427 0.85942 0.18915 0.0
C1326 C 0.14615 0.91403 0.44894 0.0
C1327 C 0.14053 0.91052 0.40815 0.0
C1328 C 0.13853 0.89329 0.30857 0.0
C1329 C 0.1118 0.87726 0.23387 0.0
C1330 C 0.11968 0.88485 0.26968 0.0
C1331 C 0.14053 0.90117 0.38487 0.0
C1332 C 0.13377 0.89663 0.34346 0.0
H1333 H 0.08905 0.87404 0.1689 0.0
H1334 H 0.10297 0.8875 0.22378 0.0
H1335 H 0.1354 0.88477 0.24614 0.0
H1336 H 0.15624 0.89434 0.4567 0.0
H1337 H 0.14648 0.88824 0.38599 0.0
C1338 C 0.08554 0.23241 0.4374 0.0
C1339 C 0.09119 0.24404 0.45431 0.0
C1340 C 0.08922 0.23002 0.39749 0.0
C1341 C 0.10605 0.24453 0.2968 0.0
H1342 H 0.11372 0.21923 0.29517 0.0
C1343 C 0.14022 0.2446 0.17845 0.0
C1344 C 0.1383 0.2338 0.16064 0.0
C1345 C 0.13251 0.24473 0.20991 0.0
C1346 C 0.11141 0.22618 0.29471 0.0
H1347 H 0.10488 0.26233 0.44211 0.0
H1348 H 0.11124 0.25818 0.37284 0.0
H1349 H 0.10341 0.22139 0.35825 0.0
H1350 H 0.12661 0.21465 0.16136 0.0
H1351 H 0.11308 0.21488 0.21648 0.0
H1352 H 0.11431 0.24953 0.23388 0.0
C1353 C 0.10394 0.2509 0.39015 0.0
C1354 C 0.10551 0.22741 0.33085 0.0
C1355 C 0.10035 0.25326 0.43006 0.0
C1356 C 0.12836 0.22312 0.17454 0.0
C1357 C 0.12063 0.22324 0.2062 0.0
C1358 C 0.11191 0.24328 0.26069 0.0
C1359 C 0.09851 0.23925 0.37361 0.0
C1360 C 0.10308 0.23681 0.33277 0.0
C1361 C 0.12267 0.23406 0.22438 0.0
C1362 C 0.11497 0.23431 0.2598 0.0
H1363 H 0.07845 0.22512 0.4554 0.0
H1364 H 0.08485 0.22096 0.38539 0.0
H1365 H 0.1041 0.25173 0.29708 0.0
H1366 H 0.14779 0.253 0.16854 0.0
H1367 H 0.13445 0.2532 0.22378 0.0
C1368 C 0.80811 0.58363 0.32288 0.0
C1369 C 0.81369 0.57693 0.33109 0.0
C1370 C 0.80107 0.58146 0.28582 0.0
C1371 C 0.79584 0.56903 0.17505 0.0
H1372 H 0.76675 0.57038 0.1854 0.0
C1373 C 0.76437 0.56203 0.02835 0.0
C1374 C 0.76036 0.57027 0.0256 0.0
C1375 C 0.77051 0.56167 0.06544 0.0
C1376 C 0.77488 0.57004 0.18195 0.0
H1377 H 0.81624 0.56266 0.30673 0.0
H1378 H 0.80384 0.55885 0.24156 0.0
H1379 H 0.77797 0.57158 0.25095 0.0
H1380 H 0.75979 0.58469 0.05939 0.0
H1381 H 0.77049 0.58408 0.12372 0.0
H1382 H 0.79278 0.56765 0.10579 0.0
C1383 C 0.80501 0.56583 0.26393 0.0
C1384 C 0.78131 0.57072 0.21947 0.0
C1385 C 0.81205 0.56797 0.30129 0.0
C1386 C 0.76271 0.5782 0.06048 0.0
C1387 C 0.76877 0.5778 0.09752 0.0
C1388 C 0.78939 0.56833 0.13739 0.0
C1389 C 0.79941 0.57254 0.25595 0.0
C1390 C 0.792 0.5705 0.21639 0.0
C1391 C 0.77267 0.56949 0.10056 0.0
C1392 C 0.77898 0.5691 0.14044 0.0
H1393 H 0.8092 0.59062 0.34506 0.0
H1394 H 0.79705 0.58693 0.28023 0.0
H1395 H 0.80409 0.56891 0.17162 0.0
H1396 H 0.76271 0.55581 0.00199 0.0
H1397 H 0.77338 0.55515 0.06698 0.0
C1398 C 0.41535 0.1864 0.0644 0.0
C1399 C 0.42418 0.19208 0.03231 0.0
C1400 C 0.41505 0.19264 0.10102 0.0
C1401 C 0.42448 0.22243 0.14383 0.0
H1402 H 0.4185 0.20635 0.25579 0.0
C1403 C 0.4224 0.2437 0.30932 0.0
C1404 C 0.41286 0.23616 0.33666 0.0
C1405 C 0.42495 0.23919 0.27177 0.0
C1406 C 0.42012 0.21094 0.22474 0.0
H1407 H 0.43947 0.20887 0.01301 0.0
H1408 H 0.43891 0.21982 0.07735 0.0
H1409 H 0.42075 0.19691 0.19052 0.0
H1410 H 0.39843 0.21802 0.34569 0.0
H1411 H 0.40282 0.21025 0.28053 0.0
H1412 H 0.42361 0.23639 0.17826 0.0
C1413 C 0.43223 0.21052 0.07392 0.0
C1414 C 0.4214 0.20553 0.18739 0.0
C1415 C 0.43257 0.20423 0.03722 0.0
C1416 C 0.40588 0.22408 0.32553 0.0
C1417 C 0.40845 0.21959 0.28828 0.0
C1418 C 0.42317 0.22786 0.18136 0.0
C1419 C 0.42356 0.20472 0.10645 0.0
C1420 C 0.42333 0.21109 0.14639 0.0
C1421 C 0.41805 0.22706 0.26115 0.0
C1422 C 0.4207 0.22203 0.22202 0.0
H1423 H 0.40871 0.17706 0.06159 0.0
H1424 H 0.40813 0.18799 0.12515 0.0
H1425 H 0.42593 0.2269 0.1126 0.0
H1426 H 0.42794 0.25306 0.31703 0.0
H1427 H 0.43244 0.24514 0.2515 0.0
C1428 C 0.79327 0.23298 0.01486 0.0
C1429 C 0.80451 0.23389 0.01245 0.0
C1430 C 0.78491 0.22556 0.04584 0.0
C1431 C 0.7726 0.21554 0.13321 0.0
H1432 H 0.76993 0.18527 0.16324 0.0
C1433 C 0.75423 0.19209 0.2981 0.0
C1434 C 0.74807 0.17959 0.29972 0.0
C1435 C 0.75908 0.19805 0.25882 0.0
C1436 C 0.7704 0.1936 0.15486 0.0
H1437 H 0.81575 0.22761 0.04041 0.0
H1438 H 0.80128 0.21481 0.09463 0.0
H1439 H 0.7823 0.19662 0.10169 0.0
H1440 H 0.74158 0.16354 0.26079 0.0
H1441 H 0.74993 0.17396 0.19204 0.0
H1442 H 0.76071 0.21252 0.18652 0.0
C1443 C 0.79883 0.21969 0.07221 0.0
C1444 C 0.77763 0.20019 0.11991 0.0
C1445 C 0.80717 0.22711 0.0413 0.0
C1446 C 0.74635 0.17318 0.26073 0.0
C1447 C 0.75119 0.17915 0.22138 0.0
C1448 C 0.76536 0.20894 0.16817 0.0
C1449 C 0.78762 0.21886 0.07499 0.0
C1450 C 0.77901 0.21135 0.10927 0.0
C1451 C 0.75787 0.19165 0.2202 0.0
C1452 C 0.76436 0.19801 0.17995 0.0
H1453 H 0.79093 0.23806 0.99299 0.0
H1454 H 0.77632 0.22503 0.04687 0.0
H1455 H 0.77352 0.22414 0.12602 0.0
H1456 H 0.75571 0.19731 0.32751 0.0
H1457 H 0.76427 0.20767 0.25923 0.0
C1458 C 0.90753 0.4946 0.91428 0.0
C1459 C 0.90198 0.48772 0.87693 0.0
C1460 C 0.90634 0.48915 0.95487 0.0
C1461 C 0.88901 0.46063 0.01517 0.0
H1462 H 0.91872 0.47111 0.07697 0.0
C1463 C 0.89613 0.43091 0.1367 0.0
C1464 C 0.90319 0.43616 0.17395 0.0
C1465 C 0.89484 0.43792 0.10496 0.0
C1466 C 0.9103 0.4682 0.06063 0.0
H1467 H 0.89032 0.46977 0.85338 0.0
H1468 H 0.88835 0.46028 0.92388 0.0
H1469 H 0.91827 0.48222 0.01357 0.0
H1470 H 0.91416 0.45287 0.20772 0.0
H1471 H 0.91187 0.46512 0.15225 0.0
H1472 H 0.88113 0.44638 0.06159 0.0
C1473 C 0.89355 0.46989 0.92201 0.0
C1474 C 0.91004 0.47458 0.02427 0.0
C1475 C 0.89474 0.47533 0.88146 0.0
C1476 C 0.9087 0.44856 0.17929 0.0
C1477 C 0.90743 0.45558 0.14745 0.0
C1478 C 0.88927 0.45423 0.05153 0.0
C1479 C 0.89955 0.4767 0.95898 0.0
C1480 C 0.89944 0.47073 0.00059 0.0
C1481 C 0.90059 0.45035 0.10971 0.0
C1482 C 0.89998 0.45781 0.07412 0.0
H1483 H 0.91311 0.50418 0.91197 0.0
H1484 H 0.91093 0.49466 0.98289 0.0
H1485 H 0.88066 0.45754 0.99804 0.0
H1486 H 0.89176 0.42138 0.13158 0.0
H1487 H 0.88964 0.43362 0.076 0.0
C1488 C 0.56571 0.46074 0.16064 0.0
C1489 C 0.57058 0.47316 0.16115 0.0
C1490 C 0.55977 0.45412 0.12347 0.0
C1491 C 0.55697 0.45731 0.00482 0.0
H1492 H 0.52569 0.42933 0.01624 0.0
C1493 C 0.52346 0.44066 0.86475 0.0
C1494 C 0.51647 0.42837 0.85712 0.0
C1495 C 0.53078 0.44492 0.90141 0.0
C1496 C 0.53451 0.437 0.01255 0.0
H1497 H 0.57304 0.48835 0.12305 0.0
H1498 H 0.56271 0.47684 0.05867 0.0
H1499 H 0.53732 0.43903 0.0819 0.0
H1500 H 0.5117 0.41089 0.88203 0.0
H1501 H 0.52456 0.41841 0.9467 0.0
H1502 H 0.55408 0.45551 0.93571 0.0
C1503 C 0.56358 0.47222 0.08671 0.0
C1504 C 0.54115 0.44255 0.0501 0.0
C1505 C 0.56942 0.47881 0.12378 0.0
C1506 C 0.51699 0.42041 0.88705 0.0
C1507 C 0.5243 0.4247 0.92408 0.0
C1508 C 0.55035 0.45178 0.96742 0.0
C1509 C 0.5587 0.45982 0.08608 0.0
C1510 C 0.55231 0.45297 0.04659 0.0
C1511 C 0.5313 0.43701 0.93149 0.0
C1512 C 0.53891 0.44177 0.97091 0.0
H1513 H 0.56645 0.45613 0.18895 0.0
H1514 H 0.55611 0.44457 0.12382 0.0
H1515 H 0.56565 0.46518 0.00109 0.0
H1516 H 0.52327 0.44705 0.84242 0.0
H1517 H 0.5359 0.45445 0.90661 0.0
C1518 C 0.57901 0.09369 0.87414 0.0
C1519 C 0.57112 0.08495 0.84476 0.0
C1520 C 0.57468 0.09636 0.91193 0.0
C1521 C 0.54718 0.09374 0.95793 0.0
H1522 H 0.56142 0.09536 0.07116 0.0
C1523 C 0.5214 0.08665 0.11667 0.0
C1524 C 0.52712 0.09442 0.15184 0.0
C1525 C 0.52781 0.0869 0.07975 0.0
C1526 C 0.55746 0.09511 0.03968 0.0
H1527 H 0.55255 0.07216 0.83203 0.0
H1528 H 0.54509 0.07675 0.89758 0.0
H1529 H 0.5709 0.09346 0.00471 0.0
H1530 H 0.54412 0.10839 0.17622 0.0
H1531 H 0.55539 0.10873 0.11135 0.0
H1532 H 0.5336 0.09508 0.99269 0.0
C1533 C 0.55458 0.08166 0.89133 0.0
C1534 C 0.56288 0.09404 0.0017 0.0
C1535 C 0.55888 0.07896 0.85387 0.0
C1536 C 0.53946 0.1023 0.14961 0.0
C1537 C 0.54592 0.10248 0.1126 0.0
C1538 C 0.54177 0.09479 0.99574 0.0
C1539 C 0.5624 0.0904 0.92071 0.0
C1540 C 0.55761 0.09303 0.96055 0.0
C1541 C 0.54011 0.09488 0.0771 0.0
C1542 C 0.54668 0.09517 0.03706 0.0
H1543 H 0.5885 0.09846 0.868 0.0
H1544 H 0.58091 0.10317 0.93396 0.0
H1545 H 0.54305 0.09326 0.92659 0.0
H1546 H 0.51191 0.08044 0.11731 0.0
H1547 H 0.52313 0.08078 0.05322 0.0
C1548 C 0.51545 0.07581 0.37056 0.0
C1549 C 0.51443 0.0852 0.35232 0.0
C1550 C 0.52137 0.07729 0.41012 0.0
C1551 C 0.54439 0.09989 0.4801 0.0
H1552 H 0.53187 0.07428 0.56519 0.0
C1553 C 0.56946 0.10212 0.64011 0.0
C1554 C 0.5699 0.09177 0.65009 0.0
C1555 C 0.56195 0.102 0.60703 0.0
C1556 C 0.53551 0.08149 0.54166 0.0
H1557 H 0.5188 0.10352 0.36141 0.0
H1558 H 0.52928 0.10615 0.43083 0.0
H1559 H 0.51997 0.0729 0.50138 0.0
H1560 H 0.56273 0.07316 0.63339 0.0
H1561 H 0.54977 0.07299 0.57568 0.0
H1562 H 0.56007 0.10833 0.51984 0.0
C1563 C 0.52547 0.09764 0.41427 0.0
C1564 C 0.52869 0.08071 0.50519 0.0
C1565 C 0.51943 0.09612 0.37468 0.0
C1566 C 0.56259 0.08128 0.62664 0.0
C1567 C 0.55509 0.08116 0.59373 0.0
C1568 C 0.55124 0.10067 0.51662 0.0
C1569 C 0.52649 0.08822 0.43236 0.0
C1570 C 0.53316 0.08977 0.47351 0.0
C1571 C 0.55469 0.09151 0.58344 0.0
C1572 C 0.54697 0.09134 0.54727 0.0
H1573 H 0.5117 0.06728 0.35421 0.0
H1574 H 0.52217 0.06993 0.42286 0.0
H1575 H 0.5481 0.10697 0.45605 0.0
H1576 H 0.57497 0.11034 0.65765 0.0
H1577 H 0.56177 0.11009 0.60006 0.0
C1578 C 0.90469 0.40694 0.41562 0.0
C1579 C 0.89924 0.40862 0.37869 0.0
C1580 C 0.90387 0.41133 0.45647 0.0
C1581 C 0.88795 0.42381 0.51836 0.0
H1582 H 0.91829 0.44233 0.57714 0.0
C1583 C 0.89759 0.46193 0.63698 0.0
C1584 C 0.90478 0.46369 0.67379 0.0
C1585 C 0.89573 0.45329 0.60592 0.0
C1586 C 0.9097 0.43702 0.56169 0.0
H1587 H 0.88808 0.41562 0.35619 0.0
H1588 H 0.88676 0.42335 0.42716 0.0
H1589 H 0.91682 0.43019 0.51415 0.0
H1590 H 0.91544 0.45754 0.70738 0.0
H1591 H 0.91217 0.4424 0.65299 0.0
H1592 H 0.88093 0.43097 0.56519 0.0
C1593 C 0.8916 0.41858 0.42475 0.0
C1594 C 0.90884 0.43004 0.52556 0.0
C1595 C 0.89242 0.4142 0.38394 0.0
C1596 C 0.90989 0.45644 0.67929 0.0
C1597 C 0.90805 0.4478 0.64809 0.0
C1598 C 0.8888 0.4308 0.5545 0.0
C1599 C 0.89757 0.41746 0.46124 0.0
C1600 C 0.89802 0.42357 0.50289 0.0
C1601 C 0.90103 0.4462 0.61087 0.0
C1602 C 0.89975 0.43769 0.57594 0.0
H1603 H 0.90994 0.4026 0.41276 0.0
H1604 H 0.90842 0.41017 0.48411 0.0
H1605 H 0.87944 0.41877 0.50202 0.0
H1606 H 0.89351 0.46736 0.63173 0.0
H1607 H 0.89043 0.45241 0.57731 0.0
C1608 C 0.519 0.43594 0.63749 0.0
C1609 C 0.52284 0.42966 0.66396 0.0
C1610 C 0.52616 0.44317 0.60362 0.0
C1611 C 0.55065 0.44788 0.53057 0.0
H1612 H 0.55113 0.47741 0.50539 0.0
C1613 C 0.57698 0.47939 0.38576 0.0
C1614 C 0.57019 0.48284 0.36028 0.0
C1615 C 0.57255 0.4735 0.42567 0.0
C1616 C 0.55107 0.46919 0.51204 0.0
H1617 H 0.53727 0.42613 0.67587 0.0
H1618 H 0.54986 0.43889 0.6167 0.0
H1619 H 0.54105 0.46616 0.57083 0.0
H1620 H 0.55348 0.48284 0.35661 0.0
H1621 H 0.54587 0.47268 0.42592 0.0
H1622 H 0.56059 0.45092 0.47121 0.0
C1623 C 0.54124 0.4381 0.622 0.0
C1624 C 0.54528 0.46272 0.54942 0.0
C1625 C 0.53405 0.43084 0.65598 0.0
C1626 C 0.55895 0.48031 0.37542 0.0
C1627 C 0.55461 0.47457 0.41531 0.0
C1628 C 0.55652 0.4544 0.49318 0.0
C1629 C 0.53736 0.44434 0.59544 0.0
C1630 C 0.54472 0.45184 0.55851 0.0
C1631 C 0.56136 0.47113 0.44091 0.0
C1632 C 0.55651 0.46496 0.48304 0.0
H1633 H 0.5104 0.4352 0.64258 0.0
H1634 H 0.5228 0.44767 0.58327 0.0
H1635 H 0.55031 0.43949 0.53651 0.0
H1636 H 0.58567 0.4812 0.37486 0.0
H1637 H 0.57794 0.47094 0.44486 0.0
C1638 C 0.43149 0.23496 0.5419 0.0
C1639 C 0.42094 0.23499 0.53172 0.0
C1640 C 0.43161 0.22754 0.57488 0.0
C1641 C 0.41167 0.20078 0.63986 0.0
H1642 H 0.43692 0.21422 0.72633 0.0
C1643 C 0.40625 0.18104 0.81132 0.0
C1644 C 0.4158 0.1804 0.83003 0.0
C1645 C 0.40765 0.1869 0.77168 0.0
C1646 C 0.42992 0.21027 0.70205 0.0
H1647 H 0.40222 0.22717 0.54782 0.0
H1648 H 0.40245 0.21437 0.60536 0.0
H1649 H 0.43796 0.22596 0.66227 0.0
H1650 H 0.43432 0.18536 0.82171 0.0
H1651 H 0.43678 0.19574 0.75215 0.0
H1652 H 0.40346 0.18524 0.68021 0.0
C1653 C 0.4106 0.21994 0.58757 0.0
C1654 C 0.43051 0.21699 0.66537 0.0
C1655 C 0.41049 0.22735 0.55476 0.0
C1656 C 0.42679 0.18572 0.80808 0.0
C1657 C 0.42822 0.19168 0.7684 0.0
C1658 C 0.41107 0.19409 0.67651 0.0
C1659 C 0.42116 0.21998 0.59815 0.0
C1660 C 0.42125 0.21241 0.63442 0.0
C1661 C 0.41864 0.19231 0.74982 0.0
C1662 C 0.42004 0.19887 0.7085 0.0
H1663 H 0.43969 0.24072 0.52467 0.0
H1664 H 0.43986 0.2277 0.58208 0.0
H1665 H 0.40452 0.19691 0.61611 0.0
H1666 H 0.39766 0.17704 0.82734 0.0
H1667 H 0.40015 0.1874 0.75854 0.0
C1668 C 0.76934 0.20143 0.54356 0.0
C1669 C 0.77436 0.20002 0.50487 0.0
C1670 C 0.77654 0.2094 0.57583 0.0
C1671 C 0.80713 0.22402 0.61745 0.0
H1672 H 0.79686 0.24256 0.6851 0.0
C1673 C 0.83494 0.25321 0.76177 0.0
C1674 C 0.82849 0.25181 0.8004 0.0
C1675 C 0.82902 0.24883 0.72199 0.0
C1676 C 0.79983 0.23741 0.66657 0.0
H1677 H 0.79087 0.20609 0.46929 0.0
H1678 H 0.80346 0.22004 0.5257 0.0
H1679 H 0.78519 0.23118 0.62197 0.0
H1680 H 0.81079 0.24521 0.82716 0.0
H1681 H 0.80049 0.2375 0.75801 0.0
H1682 H 0.82158 0.22998 0.66262 0.0
C1683 C 0.79394 0.21489 0.53117 0.0
C1684 C 0.79315 0.23089 0.63045 0.0
C1685 C 0.78673 0.20693 0.49879 0.0
C1686 C 0.81603 0.24642 0.79804 0.0
C1687 C 0.81012 0.24206 0.7583 0.0
C1688 C 0.8138 0.23053 0.65357 0.0
C1689 C 0.78894 0.21613 0.57021 0.0
C1690 C 0.79661 0.22395 0.60596 0.0
C1691 C 0.81653 0.24299 0.71999 0.0
C1692 C 0.81012 0.23713 0.679 0.0
H1693 H 0.75984 0.19624 0.5493 0.0
H1694 H 0.77242 0.21001 0.60577 0.0
H1695 H 0.80995 0.21864 0.59963 0.0
H1696 H 0.84455 0.25738 0.76242 0.0
H1697 H 0.83421 0.24983 0.69292 0.0
C1698 C 0.75311 0.56778 0.80203 0.0
C1699 C 0.75943 0.5786 0.82485 0.0
C1700 C 0.75761 0.56599 0.76289 0.0
C1701 C 0.77842 0.58243 0.67331 0.0
H1702 H 0.78066 0.55396 0.65765 0.0
C1703 C 0.81074 0.58049 0.55057 0.0
C1704 C 0.80708 0.56997 0.5267 0.0
C1705 C 0.80364 0.58088 0.58405 0.0
C1706 C 0.77992 0.56188 0.66116 0.0
H1707 H 0.77537 0.59602 0.82439 0.0
H1708 H 0.78314 0.5929 0.75648 0.0
H1709 H 0.77029 0.55574 0.72147 0.0
H1710 H 0.79305 0.5516 0.51911 0.0
H1711 H 0.78059 0.55233 0.57759 0.0
H1712 H 0.78816 0.58868 0.61353 0.0
C1713 C 0.77469 0.58583 0.76854 0.0
C1714 C 0.77399 0.56288 0.69769 0.0
C1715 C 0.77027 0.58758 0.80767 0.0
C1716 C 0.79613 0.55984 0.53695 0.0
C1717 C 0.78901 0.56024 0.57056 0.0
C1718 C 0.7843 0.58142 0.63681 0.0
C1719 C 0.76843 0.57504 0.74571 0.0
C1720 C 0.77344 0.5733 0.70462 0.0
C1721 C 0.7927 0.57077 0.59445 0.0
C1722 C 0.78537 0.57125 0.63084 0.0
H1723 H 0.74474 0.56069 0.81451 0.0
H1724 H 0.75259 0.55759 0.74586 0.0
H1725 H 0.77793 0.59047 0.6774 0.0
H1726 H 0.81915 0.58843 0.54365 0.0
H1727 H 0.80685 0.58907 0.60232 0.0
C1728 C 0.43528 0.91392 0.361 0.0
C1729 C 0.42838 0.90368 0.33576 0.0
C1730 C 0.44254 0.91382 0.39444 0.0
C1731 C 0.4462 0.89371 0.46916 0.0
H1732 H 0.4768 0.92185 0.49091 0.0
C1733 C 0.4773 0.89784 0.61375 0.0
C1734 C 0.48153 0.9084 0.63802 0.0
C1735 C 0.47147 0.89649 0.57379 0.0
C1736 C 0.46827 0.91393 0.48523 0.0
H1737 H 0.42379 0.88532 0.32551 0.0
H1738 H 0.43658 0.88519 0.38396 0.0
H1739 H 0.46551 0.9209 0.42583 0.0
H1740 H 0.48302 0.92583 0.63934 0.0
H1741 H 0.47295 0.92348 0.56998 0.0
H1742 H 0.44896 0.88684 0.52914 0.0
C1743 C 0.43626 0.89326 0.37803 0.0
C1744 C 0.46179 0.91339 0.44805 0.0
C1745 C 0.42898 0.89335 0.34445 0.0
C1746 C 0.47987 0.91758 0.6215 0.0
C1747 C 0.47418 0.91627 0.58156 0.0
C1748 C 0.45273 0.89423 0.50636 0.0
C1749 C 0.4431 0.90349 0.40344 0.0
C1750 C 0.45055 0.90341 0.44018 0.0
C1751 C 0.46992 0.90574 0.55725 0.0
C1752 C 0.46368 0.90448 0.51529 0.0
H1753 H 0.435 0.92201 0.35529 0.0
H1754 H 0.44753 0.9218 0.4139 0.0
H1755 H 0.43753 0.88593 0.46418 0.0
H1756 H 0.47843 0.89061 0.62571 0.0
H1757 H 0.46828 0.88828 0.55561 0.0
C1758 C 0.0788 0.55168 0.64789 0.0
C1759 C 0.08468 0.56401 0.65521 0.0
C1760 C 0.08149 0.54704 0.61135 0.0
C1761 C 0.09338 0.5545 0.50013 0.0
H1762 H 0.09397 0.52502 0.51123 0.0
C1763 C 0.09954 0.52979 0.35233 0.0
C1764 C 0.09129 0.51752 0.35098 0.0
C1765 C 0.10046 0.53647 0.38961 0.0
C1766 C 0.09381 0.53324 0.50761 0.0
H1767 H 0.09807 0.58118 0.62998 0.0
H1768 H 0.10278 0.57301 0.56568 0.0
H1769 H 0.09273 0.53505 0.57672 0.0
H1770 H 0.07759 0.50264 0.38767 0.0
H1771 H 0.07922 0.51426 0.45234 0.0
H1772 H 0.09422 0.5525 0.43078 0.0
C1773 C 0.09605 0.56697 0.58835 0.0
C1774 C 0.0931 0.53899 0.54507 0.0
C1775 C 0.09338 0.57163 0.6252 0.0
C1776 C 0.08404 0.51207 0.38761 0.0
C1777 C 0.08503 0.51871 0.42484 0.0
C1778 C 0.09413 0.54875 0.46254 0.0
C1779 C 0.09012 0.55461 0.58113 0.0
C1780 C 0.09253 0.54949 0.5417 0.0
C1781 C 0.09325 0.53096 0.4263 0.0
C1782 C 0.09401 0.53789 0.46592 0.0
H1783 H 0.07204 0.54555 0.67029 0.0
H1784 H 0.0766 0.5375 0.60633 0.0
H1785 H 0.09289 0.56254 0.49648 0.0
H1786 H 0.10524 0.53424 0.32458 0.0
H1787 H 0.10689 0.5459 0.38993 0.0
C1788 C 0.41315 0.5116 0.60911 0.0
C1789 C 0.4149 0.51968 0.64289 0.0
C1790 C 0.41741 0.51568 0.56701 0.0
C1791 C 0.42965 0.54221 0.4945 0.0
H1792 H 0.44712 0.52819 0.44307 0.0
C1793 C 0.46603 0.56598 0.36437 0.0
C1794 C 0.46712 0.55921 0.33066 0.0
C1795 C 0.45788 0.56045 0.39822 0.0
C1796 C 0.4421 0.53207 0.4565 0.0
H1797 H 0.42198 0.53833 0.65838 0.0
H1798 H 0.42957 0.54547 0.58509 0.0
H1799 H 0.43578 0.51978 0.50983 0.0
H1800 H 0.46026 0.54132 0.30549 0.0
H1801 H 0.44596 0.53164 0.36476 0.0
H1802 H 0.4363 0.55472 0.44168 0.0
C1803 C 0.42479 0.53596 0.591 0.0
C1804 C 0.43559 0.52724 0.4948 0.0
C1805 C 0.42049 0.53188 0.63311 0.0
C1806 C 0.45968 0.54679 0.33106 0.0
C1807 C 0.45152 0.54124 0.36508 0.0
C1808 C 0.43619 0.54705 0.45618 0.0
C1809 C 0.42356 0.52793 0.55773 0.0
C1810 C 0.42945 0.53237 0.51468 0.0
C1811 C 0.45062 0.54801 0.39924 0.0
C1812 C 0.44266 0.54216 0.4372 0.0
H1813 H 0.40877 0.50213 0.61544 0.0
H1814 H 0.41612 0.50925 0.54191 0.0
H1815 H 0.42487 0.54626 0.50863 0.0
H1816 H 0.47163 0.57557 0.36508 0.0
H1817 H 0.45753 0.56591 0.42434 0.0
C1818 C 0.56939 0.8105 0.19245 0.0
C1819 C 0.57899 0.81338 0.16412 0.0
C1820 C 0.56768 0.80355 0.22973 0.0
C1821 C 0.57584 0.78229 0.27634 0.0
H1822 H 0.56872 0.7914 0.38825 0.0
C1823 C 0.58308 0.76456 0.438 0.0
C1824 C 0.5741 0.76071 0.46988 0.0
C1825 C 0.58272 0.77065 0.40098 0.0
C1826 C 0.57056 0.78867 0.35711 0.0
H1827 H 0.59434 0.81125 0.15277 0.0
H1828 H 0.59144 0.79931 0.21759 0.0
H1829 H 0.5696 0.8025 0.3223 0.0
H1830 H 0.55783 0.76046 0.48836 0.0
H1831 H 0.55725 0.77119 0.42345 0.0
H1832 H 0.57703 0.76862 0.31109 0.0
C1833 C 0.58511 0.80224 0.21083 0.0
C1834 C 0.57105 0.795 0.31937 0.0
C1835 C 0.58682 0.80916 0.17376 0.0
C1836 C 0.56487 0.7633 0.46434 0.0
C1837 C 0.56456 0.76947 0.4273 0.0
C1838 C 0.5754 0.776 0.31396 0.0
C1839 C 0.57552 0.79932 0.23921 0.0
C1840 C 0.57391 0.79201 0.27871 0.0
C1841 C 0.57341 0.77308 0.39501 0.0
C1842 C 0.57297 0.77926 0.35486 0.0
H1843 H 0.5632 0.81362 0.18588 0.0
H1844 H 0.56016 0.80138 0.25085 0.0
H1845 H 0.5778 0.77959 0.24536 0.0
H1846 H 0.59033 0.76275 0.44129 0.0
H1847 H 0.58977 0.7735 0.377 0.0
C1848 C 0.23289 0.81263 0.41671 0.0
C1849 C 0.23539 0.80718 0.45166 0.0
C1850 C 0.22701 0.80611 0.37955 0.0
C1851 C 0.2066 0.776 0.34078 0.0
H1852 H 0.21707 0.79069 0.22672 0.0
C1853 C 0.18201 0.75346 0.17885 0.0
C1854 C 0.18016 0.76096 0.15072 0.0
C1855 C 0.18954 0.75817 0.21517 0.0
C1856 C 0.21402 0.78648 0.25834 0.0
H1857 H 0.23363 0.79059 0.47508 0.0
H1858 H 0.22324 0.77914 0.40983 0.0
H1859 H 0.22889 0.80065 0.29129 0.0
H1860 H 0.18474 0.77925 0.13863 0.0
H1861 H 0.19771 0.78738 0.20167 0.0
H1862 H 0.19153 0.76197 0.30776 0.0
C1863 C 0.22586 0.78847 0.41144 0.0
C1864 C 0.22079 0.79218 0.29528 0.0
C1865 C 0.23184 0.79504 0.44865 0.0
C1866 C 0.18598 0.77322 0.15953 0.0
C1867 C 0.19351 0.77791 0.19553 0.0
C1868 C 0.19979 0.77029 0.3037 0.0
C1869 C 0.22344 0.79397 0.37646 0.0
C1870 C 0.21699 0.78716 0.337 0.0
C1871 C 0.1954 0.77046 0.22371 0.0
C1872 C 0.20328 0.77564 0.26227 0.0
H1873 H 0.23548 0.82196 0.41796 0.0
H1874 H 0.2251 0.81054 0.35344 0.0
H1875 H 0.20344 0.77195 0.37258 0.0
H1876 H 0.17764 0.74397 0.17289 0.0
H1877 H 0.19086 0.75223 0.23628 0.0
C1878 C 0.25132 0.41845 0.23581 0.0
C1879 C 0.24951 0.42363 0.19834 0.0
C1880 C 0.24688 0.41937 0.27639 0.0
C1881 C 0.23429 0.43545 0.33646 0.0
H1882 H 0.21625 0.40554 0.39837 0.0
C1883 C 0.19675 0.42652 0.45684 0.0
C1884 C 0.19523 0.41962 0.49434 0.0
C1885 C 0.20523 0.42816 0.42537 0.0
C1886 C 0.22143 0.41402 0.38202 0.0
H1887 H 0.24216 0.43436 0.17452 0.0
H1888 H 0.23434 0.43588 0.24507 0.0
H1889 H 0.22815 0.40664 0.33509 0.0
H1890 H 0.20164 0.40929 0.5287 0.0
H1891 H 0.2165 0.4122 0.4736 0.0
H1892 H 0.22727 0.44273 0.38272 0.0
C1893 C 0.23926 0.43118 0.24326 0.0
C1894 C 0.22826 0.41465 0.34573 0.0
C1895 C 0.24368 0.43024 0.20271 0.0
C1896 C 0.20255 0.41461 0.50009 0.0
C1897 C 0.21104 0.41624 0.46848 0.0
C1898 C 0.22746 0.43481 0.37276 0.0
C1899 C 0.24057 0.42553 0.28035 0.0
C1900 C 0.23457 0.42531 0.32197 0.0
C1901 C 0.21239 0.42296 0.43059 0.0
C1902 C 0.22074 0.42402 0.39534 0.0
H1903 H 0.25584 0.41335 0.23361 0.0
H1904 H 0.24817 0.41506 0.30451 0.0
H1905 H 0.23921 0.44383 0.31926 0.0
H1906 H 0.19126 0.43051 0.45137 0.0
H1907 H 0.20592 0.43323 0.39627 0.0
C1908 C 0.22797 0.4261 0.95515 0.0
C1909 C 0.22262 0.41909 0.99241 0.0
C1910 C 0.22109 0.42762 0.92349 0.0
C1911 C 0.19079 0.41308 0.87924 0.0
H1912 H 0.20222 0.44313 0.81871 0.0
C1913 C 0.16476 0.41744 0.73493 0.0
C1914 C 0.17165 0.42299 0.69761 0.0
C1915 C 0.17022 0.41832 0.77528 0.0
C1916 C 0.19892 0.43468 0.83525 0.0
H1917 H 0.20584 0.40835 0.02604 0.0
H1918 H 0.1938 0.41101 0.97064 0.0
H1919 H 0.21323 0.44198 0.88153 0.0
H1920 H 0.18965 0.43435 0.67392 0.0
H1921 H 0.19915 0.43578 0.744 0.0
H1922 H 0.17669 0.40568 0.83231 0.0
C1923 C 0.20333 0.41526 0.96584 0.0
C1924 C 0.20523 0.43402 0.87119 0.0
C1925 C 0.21023 0.41377 0.99763 0.0
C1926 C 0.18407 0.42994 0.70199 0.0
C1927 C 0.18953 0.43082 0.7423 0.0
C1928 C 0.18449 0.41374 0.84329 0.0
C1929 C 0.20868 0.42214 0.92827 0.0
C1930 C 0.20136 0.42315 0.89304 0.0
C1931 C 0.18268 0.42478 0.77917 0.0
C1932 C 0.18861 0.42449 0.82035 0.0
H1933 H 0.23749 0.43033 0.95008 0.0
H1934 H 0.22547 0.43282 0.89463 0.0
H1935 H 0.18765 0.40455 0.89501 0.0
H1936 H 0.15516 0.41208 0.73275 0.0
H1937 H 0.16469 0.41372 0.80325 0.0
C1938 C 0.58246 0.81211 0.94152 0.0
C1939 C 0.57211 0.80742 0.9672 0.0
C1940 C 0.58337 0.80547 0.9074 0.0
C1941 C 0.56543 0.78057 0.83267 0.0
H1942 H 0.59555 0.78179 0.81298 0.0
C1943 C 0.57262 0.75403 0.69449 0.0
C1944 C 0.58314 0.76054 0.67015 0.0
C1945 C 0.5708 0.75878 0.73293 0.0
C1946 C 0.5871 0.78141 0.81793 0.0
H1947 H 0.55458 0.79206 0.97718 0.0
H1948 H 0.55621 0.78041 0.91758 0.0
H1949 H 0.59322 0.79187 0.87623 0.0
H1950 H 0.59998 0.77713 0.66711 0.0
H1951 H 0.59679 0.78536 0.73371 0.0
H1952 H 0.55938 0.7702 0.77392 0.0
C1953 C 0.56358 0.78928 0.9237 0.0
C1954 C 0.58577 0.78719 0.85412 0.0
C1955 C 0.56267 0.79593 0.95795 0.0
C1956 C 0.59179 0.77185 0.68509 0.0
C1957 C 0.59 0.77655 0.72347 0.0
C1958 C 0.56676 0.77476 0.79642 0.0
C1959 C 0.57396 0.79397 0.89812 0.0
C1960 C 0.575 0.78703 0.86149 0.0
C1961 C 0.57951 0.77008 0.74785 0.0
C1962 C 0.57768 0.7753 0.78826 0.0
H1963 H 0.58988 0.82095 0.94764 0.0
H1964 H 0.59141 0.80943 0.88785 0.0
H1965 H 0.55705 0.78036 0.83725 0.0
H1966 H 0.56579 0.74529 0.6838 0.0
H1967 H 0.56265 0.75356 0.7512 0.0
C1968 C 0.19831 0.76501 0.95366 0.0
C1969 C 0.18609 0.76114 0.95634 0.0
C1970 C 0.20482 0.77098 0.91638 0.0
C1971 C 0.20093 0.77441 0.79957 0.0
H1972 H 0.23073 0.80426 0.80777 0.0
C1973 C 0.21981 0.80619 0.65443 0.0
C1974 C 0.23216 0.81248 0.64732 0.0
C1975 C 0.21508 0.79935 0.692 0.0
C1976 C 0.22253 0.79583 0.80492 0.0
H1977 H 0.17115 0.7606 0.92226 0.0
H1978 H 0.18248 0.77092 0.85737 0.0
H1979 H 0.22082 0.79342 0.87453 0.0
H1980 H 0.24924 0.81643 0.67399 0.0
H1981 H 0.24091 0.80431 0.73987 0.0
H1982 H 0.20253 0.77676 0.73024 0.0
C1983 C 0.18701 0.76929 0.88393 0.0
C1984 C 0.21685 0.78965 0.84313 0.0
C1985 C 0.18054 0.76345 0.92125 0.0
C1986 C 0.23968 0.81169 0.67859 0.0
C1987 C 0.23492 0.80481 0.71637 0.0
C1988 C 0.20662 0.78052 0.7615 0.0
C1989 C 0.19918 0.77304 0.88098 0.0
C1990 C 0.20586 0.77903 0.84077 0.0
C1991 C 0.22255 0.79856 0.72343 0.0
C1992 C 0.21733 0.79145 0.76374 0.0
H1993 H 0.20283 0.76337 0.98023 0.0
H1994 H 0.2142 0.77376 0.91485 0.0
H1995 H 0.19258 0.76611 0.79681 0.0
H1996 H 0.21375 0.80663 0.63114 0.0
H1997 H 0.20553 0.79485 0.69679 0.0
C1998 C 0.08144 0.56156 0.88356 0.0
C1999 C 0.09012 0.56472 0.85086 0.0
C2000 C 0.08163 0.55546 0.92081 0.0
C2001 C 0.09192 0.53587 0.96351 0.0
H2002 H 0.08635 0.5461 0.0759 0.0
C2003 C 0.09096 0.51263 0.12736 0.0
C2004 C 0.08167 0.51065 0.15602 0.0
C2005 C 0.09328 0.51979 0.09026 0.0
C2006 C 0.08785 0.54308 0.04475 0.0
H2007 H 0.10571 0.5638 0.83128 0.0
H2008 H 0.10596 0.553 0.8966 0.0
H2009 H 0.08795 0.55749 0.01038 0.0
H2010 H 0.0675 0.51458 0.16807 0.0
H2011 H 0.07144 0.52687 0.10351 0.0
H2012 H 0.09151 0.52127 0.99788 0.0
C2013 C 0.09904 0.55529 0.8932 0.0
C2014 C 0.08878 0.54961 0.00727 0.0
C2015 C 0.09891 0.5615 0.85596 0.0
C2016 C 0.07476 0.51596 0.14683 0.0
C2017 C 0.07708 0.52309 0.10993 0.0
C2018 C 0.09094 0.52928 0.00111 0.0
C2019 C 0.09046 0.55232 0.92615 0.0
C2020 C 0.09058 0.54594 0.96617 0.0
C2021 C 0.08638 0.52513 0.08128 0.0
C2022 C 0.08864 0.53269 0.04198 0.0
H2023 H 0.07453 0.56389 0.88065 0.0
H2024 H 0.07479 0.55312 0.94536 0.0
H2025 H 0.09327 0.53281 0.93218 0.0
H2026 H 0.09644 0.50867 0.13361 0.0
H2027 H 0.10055 0.52126 0.06891 0.0
C2028 C 0.44939 0.53417 0.8208 0.0
C2029 C 0.43695 0.52776 0.82566 0.0
C2030 C 0.45655 0.54255 0.85219 0.0
C2031 C 0.45572 0.56046 0.94552 0.0
H2032 H 0.48324 0.55886 0.98557 0.0
C2033 C 0.4775 0.57753 0.11414 0.0
C2034 C 0.48988 0.58249 0.11815 0.0
C2035 C 0.47183 0.57288 0.07419 0.0
C2036 C 0.47573 0.5596 0.97427 0.0
H2037 H 0.42227 0.52534 0.86675 0.0
H2038 H 0.43473 0.53982 0.9216 0.0
H2039 H 0.47187 0.5469 0.92328 0.0
H2040 H 0.50609 0.58703 0.08272 0.0
H2041 H 0.4962 0.57898 0.0129 0.0
H2042 H 0.45943 0.57294 0.99738 0.0
C2043 C 0.43896 0.5385 0.89331 0.0
C2044 C 0.4692 0.55273 0.93853 0.0
C2045 C 0.43182 0.53012 0.86199 0.0
C2046 C 0.49653 0.5832 0.08083 0.0
C2047 C 0.49086 0.57853 0.04087 0.0
C2048 C 0.46226 0.56733 0.98131 0.0
C2049 C 0.45142 0.54471 0.88906 0.0
C2050 C 0.459 0.55291 0.92423 0.0
C2051 C 0.47842 0.57308 0.03735 0.0
C2052 C 0.47221 0.56682 0.99656 0.0
H2053 H 0.45362 0.5326 0.79307 0.0
H2054 H 0.46611 0.54729 0.84771 0.0
H2055 H 0.44802 0.56095 0.93483 0.0
H2056 H 0.4721 0.57685 0.14223 0.0
H2057 H 0.46223 0.56864 0.07275 0.0
C2058 C 0.47652 0.90502 0.87625 0.0
C2059 C 0.47076 0.89884 0.83794 0.0
C2060 C 0.46997 0.9044 0.91328 0.0
C2061 C 0.4407 0.89878 0.94904 0.0
H2062 H 0.4526 0.8968 0.06333 0.0
C2063 C 0.41862 0.9007 0.11236 0.0
C2064 C 0.42671 0.90872 0.14314 0.0
C2065 C 0.42275 0.89762 0.07501 0.0
C2066 C 0.44917 0.89737 0.03164 0.0
H2067 H 0.45355 0.88718 0.80842 0.0
H2068 H 0.44206 0.88615 0.87344 0.0
H2069 H 0.46213 0.89481 0.9977 0.0
H2070 H 0.44544 0.91969 0.15913 0.0
H2071 H 0.45257 0.91436 0.09442 0.0
H2072 H 0.42792 0.90164 0.98325 0.0
C2073 C 0.45167 0.89148 0.87458 0.0
C2074 C 0.45463 0.89624 0.99409 0.0
C2075 C 0.45826 0.89204 0.83746 0.0
C2076 C 0.43896 0.91349 0.1361 0.0
C2077 C 0.44306 0.91036 0.09915 0.0
C2078 C 0.43522 0.8999 0.98674 0.0
C2079 C 0.45748 0.89762 0.91292 0.0
C2080 C 0.45067 0.89727 0.9524 0.0
C2081 C 0.43502 0.90242 0.06816 0.0
C2082 C 0.43963 0.89955 0.02838 0.0
H2083 H 0.48613 0.91036 0.87776 0.0
H2084 H 0.4747 0.9094 0.94206 0.0
H2085 H 0.43749 0.89966 0.91734 0.0
H2086 H 0.40912 0.89688 0.11692 0.0
H2087 H 0.41636 0.89145 0.05167 0.0
C2088 C 0.2372 0.37734 0.08445 0.0
C2089 C 0.23772 0.38166 0.04185 0.0
C2090 C 0.23262 0.3652 0.09183 0.0
C2091 C 0.22577 0.33705 0.03783 0.0
H2092 H 0.20321 0.3226 0.13289 0.0
C2093 C 0.19528 0.28623 0.0554 0.0
C2094 C 0.19255 0.28134 0.09772 0.0
C2095 C 0.20189 0.29854 0.04946 0.0
C2096 C 0.20965 0.32651 0.10668 0.0
H2097 H 0.23403 0.37664 0.97349 0.0
H2098 H 0.22599 0.35541 0.98646 0.0
H2099 H 0.21267 0.34396 0.12071 0.0
H2100 H 0.19503 0.28552 0.16699 0.0
H2101 H 0.20676 0.307 0.15662 0.0
H2102 H 0.2227 0.31958 0.02368 0.0
C2103 C 0.22921 0.36145 0.01408 0.0
C2104 C 0.21505 0.33875 0.09964 0.0
C2105 C 0.23375 0.3736 0.0067 0.0
C2106 C 0.19691 0.28901 0.13396 0.0
C2107 C 0.20357 0.30132 0.128 0.0
C2108 C 0.2204 0.32479 0.04499 0.0
C2109 C 0.22849 0.35711 0.05679 0.0
C2110 C 0.2231 0.34415 0.06497 0.0
C2111 C 0.20597 0.30625 0.08569 0.0
C2112 C 0.2122 0.31936 0.07932 0.0
H2113 H 0.24023 0.38331 0.11228 0.0
H2114 H 0.23232 0.36214 0.12504 0.0
H2115 H 0.23206 0.34099 0.01119 0.0
H2116 H 0.19203 0.28057 0.02676 0.0
H2117 H 0.20345 0.30202 0.01642 0.0
C2118 C 0.7108 0.91591 0.07333 0.0
C2119 C 0.71465 0.91495 0.11536 0.0
C2120 C 0.69872 0.91137 0.06476 0.0
C2121 C 0.66921 0.90037 0.11629 0.0
H2122 H 0.65775 0.88048 0.01278 0.0
C2123 C 0.61984 0.86506 0.09012 0.0
C2124 C 0.61525 0.86292 0.04734 0.0
C2125 C 0.6319 0.873 0.09771 0.0
C2126 C 0.66079 0.88617 0.04137 0.0
H2127 H 0.70889 0.90901 0.18185 0.0
H2128 H 0.68779 0.90102 0.16676 0.0
H2129 H 0.67898 0.89175 0.02755 0.0
H2130 H 0.6196 0.86783 0.97918 0.0
H2131 H 0.6406 0.88184 0.9925 0.0
H2132 H 0.65095 0.89461 0.1304 0.0
C2133 C 0.69412 0.90534 0.14051 0.0
C2134 C 0.67298 0.89263 0.04986 0.0
C2135 C 0.70622 0.90987 0.1491 0.0
C2136 C 0.62288 0.8692 0.01249 0.0
C2137 C 0.63493 0.87719 0.02011 0.0
C2138 C 0.65699 0.89392 0.1077 0.0
C2139 C 0.69022 0.90579 0.09799 0.0
C2140 C 0.67733 0.8997 0.08765 0.0
C2141 C 0.63963 0.87903 0.06272 0.0
C2142 C 0.65263 0.88663 0.07039 0.0
H2143 H 0.71707 0.91985 0.04664 0.0
H2144 H 0.69601 0.91202 0.03183 0.0
H2145 H 0.6723 0.90584 0.14543 0.0
H2146 H 0.6142 0.86035 0.11771 0.0
H2147 H 0.63523 0.87409 0.13087 0.0
C2148 C 0.12969 0.75492 0.07855 0.0
C2149 C 0.13098 0.75177 0.03574 0.0
C2150 C 0.12262 0.76003 0.08679 0.0
C2151 C 0.11079 0.77711 0.03128 0.0
H2152 H 0.09225 0.77085 0.13754 0.0
C2153 C 0.08337 0.79996 0.06527 0.0
C2154 C 0.08467 0.8049 0.10725 0.0
C2155 C 0.08754 0.79214 0.05632 0.0
C2156 C 0.09743 0.77272 0.10781 0.0
H2157 H 0.12549 0.75108 0.96825 0.0
H2158 H 0.11301 0.75983 0.98274 0.0
H2159 H 0.10212 0.75942 0.12193 0.0
H2160 H 0.091 0.80515 0.17317 0.0
H2161 H 0.09835 0.79154 0.15744 0.0
H2162 H 0.10625 0.79051 0.01739 0.0
C2163 C 0.11765 0.75856 0.00983 0.0
C2164 C 0.10309 0.76619 0.09888 0.0
C2165 C 0.12475 0.75348 0.00156 0.0
C2166 C 0.08987 0.80152 0.14047 0.0
C2167 C 0.09403 0.79366 0.13153 0.0
C2168 C 0.10511 0.78361 0.04014 0.0
C2169 C 0.11665 0.76207 0.05244 0.0
C2170 C 0.10994 0.7684 0.06071 0.0
C2171 C 0.09309 0.78905 0.08916 0.0
C2172 C 0.09847 0.78158 0.0787 0.0
H2173 H 0.13438 0.75374 0.10564 0.0
H2174 H 0.12217 0.76275 0.1199 0.0
H2175 H 0.11617 0.77921 0.00198 0.0
H2176 H 0.07935 0.80234 0.03897 0.0
H2177 H 0.08654 0.7886 0.02352 0.0
C2178 C 0.27827 0.19531 0.44442 0.0
C2179 C 0.27412 0.19223 0.40123 0.0
C2180 C 0.29037 0.20273 0.45287 0.0
C2181 C 0.31908 0.22437 0.40216 0.0
H2182 H 0.33238 0.21408 0.49451 0.0
C2183 C 0.36952 0.24208 0.42144 0.0
C2184 C 0.37416 0.24358 0.46401 0.0
C2185 C 0.35728 0.23704 0.41479 0.0
C2186 C 0.3288 0.21721 0.4691 0.0
H2187 H 0.2794 0.19485 0.33296 0.0
H2188 H 0.30057 0.20774 0.34777 0.0
H2189 H 0.31107 0.20309 0.48096 0.0
H2190 H 0.36966 0.24146 0.53303 0.0
H2191 H 0.34834 0.23284 0.52142 0.0
H2192 H 0.33689 0.23841 0.39001 0.0
C2193 C 0.29443 0.20448 0.37508 0.0
C2194 C 0.31657 0.21089 0.4613 0.0
C2195 C 0.28231 0.19704 0.3666 0.0
C2196 C 0.36636 0.24034 0.49981 0.0
C2197 C 0.35413 0.23533 0.49315 0.0
C2198 C 0.33133 0.23071 0.41002 0.0
C2199 C 0.29862 0.20726 0.41835 0.0
C2200 C 0.31157 0.21435 0.42759 0.0
C2201 C 0.34942 0.23343 0.45055 0.0
C2202 C 0.33635 0.22715 0.44342 0.0
H2203 H 0.27219 0.19182 0.47187 0.0
H2204 H 0.29329 0.20486 0.48653 0.0
H2205 H 0.31547 0.22733 0.37628 0.0
H2206 H 0.37529 0.24447 0.39313 0.0
H2207 H 0.35394 0.2356 0.38155 0.0
C2208 C 0.7688 0.14923 0.4868 0.0
C2209 C 0.76126 0.14985 0.45521 0.0
C2210 C 0.77411 0.14231 0.47937 0.0
C2211 C 0.77213 0.11755 0.41416 0.0
H2212 H 0.80617 0.13305 0.43424 0.0
C2213 C 0.79994 0.09364 0.40592 0.0
C2214 C 0.81084 0.09977 0.38353 0.0
C2215 C 0.79317 0.09911 0.4139 0.0
C2216 C 0.79667 0.12862 0.42836 0.0
H2217 H 0.75305 0.14338 0.3917 0.0
H2218 H 0.76231 0.13125 0.37893 0.0
H2219 H 0.7955 0.14359 0.45113 0.0
H2220 H 0.82302 0.11634 0.35096 0.0
H2221 H 0.81126 0.12586 0.36521 0.0
H2222 H 0.77338 0.10258 0.39117 0.0
C2223 C 0.76409 0.13611 0.4094 0.0
C2224 C 0.79055 0.1346 0.43843 0.0
C2225 C 0.75885 0.14312 0.41663 0.0
C2226 C 0.81468 0.11137 0.36839 0.0
C2227 C 0.80799 0.11686 0.37675 0.0
C2228 C 0.77825 0.1115 0.40453 0.0
C2229 C 0.77192 0.13579 0.44039 0.0
C2230 C 0.77823 0.12917 0.43119 0.0
C2231 C 0.79725 0.11085 0.40006 0.0
C2232 C 0.7906 0.11703 0.41117 0.0
H2233 H 0.77081 0.15428 0.5169 0.0
H2234 H 0.78002 0.14213 0.50402 0.0
H2235 H 0.76263 0.11313 0.40848 0.0
H2236 H 0.79672 0.08468 0.41791 0.0
H2237 H 0.78493 0.09429 0.43208 0.0
C2238 C 0.91031 0.70782 0.35158 0.0
C2239 C 0.91296 0.71526 0.38826 0.0
C2240 C 0.90571 0.69558 0.35683 0.0
C2241 C 0.90104 0.67237 0.43853 0.0
H2242 H 0.87414 0.65204 0.36462 0.0
C2243 C 0.86669 0.62374 0.48202 0.0
C2244 C 0.86207 0.61536 0.44795 0.0
C2245 C 0.8744 0.63577 0.47295 0.0
C2246 C 0.88176 0.65756 0.38507 0.0
H2247 H 0.91323 0.71574 0.45925 0.0
H2248 H 0.90505 0.69443 0.46838 0.0
H2249 H 0.88504 0.6734 0.35173 0.0
H2250 H 0.86225 0.61298 0.37771 0.0
H2251 H 0.87573 0.63397 0.36196 0.0
H2252 H 0.89749 0.6565 0.47262 0.0
C2253 C 0.90667 0.69804 0.43552 0.0
C2254 C 0.88803 0.66982 0.37765 0.0
C2255 C 0.9113 0.71026 0.43028 0.0
C2256 C 0.86561 0.61921 0.40472 0.0
C2257 C 0.87328 0.63125 0.39564 0.0
C2258 C 0.89473 0.6601 0.44604 0.0
C2259 C 0.90363 0.69052 0.39888 0.0
C2260 C 0.89765 0.6774 0.40463 0.0
C2261 C 0.87762 0.63968 0.42959 0.0
C2262 C 0.88493 0.65258 0.41972 0.0
H2263 H 0.91156 0.71139 0.31875 0.0
H2264 H 0.90365 0.69007 0.32792 0.0
H2265 H 0.90852 0.67793 0.45948 0.0
H2266 H 0.86416 0.62107 0.51569 0.0
H2267 H 0.87749 0.64207 0.49979 0.0
C2268 C 0.79701 0.70847 0.85407 0.0
C2269 C 0.80172 0.71606 0.89039 0.0
C2270 C 0.78939 0.69626 0.8599 0.0
C2271 C 0.77068 0.6733 0.9419 0.0
H2272 H 0.77757 0.65287 0.86996 0.0
C2273 C 0.75504 0.62422 0.98477 0.0
C2274 C 0.75151 0.616 0.95018 0.0
C2275 C 0.75976 0.63634 0.97627 0.0
C2276 C 0.77539 0.65842 0.88988 0.0
H2277 H 0.80179 0.71685 0.96134 0.0
H2278 H 0.78866 0.69556 0.97148 0.0
H2279 H 0.78817 0.67421 0.85696 0.0
H2280 H 0.74978 0.61403 0.87959 0.0
H2281 H 0.75793 0.63515 0.86487 0.0
H2282 H 0.75807 0.65745 0.97545 0.0
C2283 C 0.79072 0.69904 0.93846 0.0
C2284 C 0.78146 0.67066 0.88239 0.0
C2285 C 0.79831 0.71125 0.93263 0.0
C2286 C 0.75248 0.62013 0.907 0.0
C2287 C 0.75721 0.63224 0.89852 0.0
C2288 C 0.76461 0.66102 0.94947 0.0
C2289 C 0.78635 0.69137 0.90218 0.0
C2290 C 0.77926 0.67827 0.90852 0.0
C2291 C 0.76107 0.64051 0.93301 0.0
C2292 C 0.76698 0.65346 0.92375 0.0
H2293 H 0.79939 0.7119 0.82108 0.0
H2294 H 0.78601 0.69062 0.83125 0.0
H2295 H 0.76867 0.6789 0.96226 0.0
H2296 H 0.7544 0.62133 0.01841 0.0
H2297 H 0.76276 0.6425 0.00354 0.0
C2298 C 0.3729 0.1321 0.99592 0.0
C2299 C 0.38125 0.13604 0.96171 0.0
C2300 C 0.36085 0.12428 0.98755 0.0
C2301 C 0.33911 0.11546 0.89842 0.0
H2302 H 0.31838 0.0904 0.97839 0.0
C2303 C 0.28902 0.08623 0.8638 0.0
C2304 C 0.28139 0.08431 0.89932 0.0
C2305 C 0.30123 0.09103 0.87048 0.0
C2306 C 0.32405 0.09741 0.95587 0.0
H2307 H 0.38356 0.13446 0.89217 0.0
H2308 H 0.36256 0.12077 0.87769 0.0
H2309 H 0.3398 0.10148 0.99194 0.0
H2310 H 0.28055 0.08557 0.96991 0.0
H2311 H 0.30184 0.0941 0.98146 0.0
H2312 H 0.32341 0.11163 0.86291 0.0
C2313 C 0.36531 0.12386 0.91088 0.0
C2314 C 0.33631 0.10374 0.96362 0.0
C2315 C 0.37735 0.13165 0.91924 0.0
C2316 C 0.28618 0.08694 0.94181 0.0
C2317 C 0.29839 0.09176 0.94847 0.0
C2318 C 0.32687 0.10915 0.89073 0.0
C2319 C 0.35689 0.12025 0.94479 0.0
C2320 C 0.34397 0.11292 0.9352 0.0
C2321 C 0.30609 0.09404 0.91282 0.0
C2322 C 0.31918 0.10013 0.91958 0.0
H2323 H 0.3756 0.13529 0.02903 0.0
H2324 H 0.35458 0.12176 0.01433 0.0
H2325 H 0.34473 0.12261 0.8763 0.0
H2326 H 0.2856 0.08422 0.83068 0.0
H2327 H 0.30688 0.09249 0.84238 0.0
C2328 C 0.91177 0.19701 0.93542 0.0
C2329 C 0.91522 0.19582 0.89296 0.0
C2330 C 0.90649 0.20395 0.94294 0.0
C2331 C 0.88919 0.21509 0.88522 0.0
H2332 H 0.89466 0.23396 0.99014 0.0
C2333 C 0.86564 0.2421 0.91295 0.0
C2334 C 0.86084 0.24138 0.95481 0.0
C2335 C 0.87342 0.23779 0.90546 0.0
C2336 C 0.89299 0.22866 0.96083 0.0
H2337 H 0.91636 0.20147 0.82546 0.0
H2338 H 0.90728 0.21371 0.8387 0.0
H2339 H 0.90652 0.22441 0.97679 0.0
H2340 H 0.86067 0.23583 0.02189 0.0
H2341 H 0.87413 0.22815 0.00865 0.0
H2342 H 0.87556 0.21914 0.86951 0.0
C2343 C 0.90845 0.20908 0.86604 0.0
C2344 C 0.89978 0.22321 0.95316 0.0
C2345 C 0.91371 0.20212 0.8585 0.0
C2346 C 0.86421 0.23651 0.98925 0.0
C2347 C 0.87198 0.23218 0.98172 0.0
C2348 C 0.88242 0.22053 0.89286 0.0
C2349 C 0.90456 0.20989 0.90818 0.0
C2350 C 0.8979 0.21629 0.91539 0.0
C2351 C 0.87656 0.23264 0.93961 0.0
C2352 C 0.88417 0.22732 0.93087 0.0
H2353 H 0.91281 0.19228 0.96272 0.0
H2354 H 0.90351 0.2043 0.97572 0.0
H2355 H 0.88735 0.20964 0.85622 0.0
H2356 H 0.86331 0.24589 0.88576 0.0
H2357 H 0.87694 0.23845 0.8728 0.0
C2358 C 0.71413 0.79835 0.56664 0.0
C2359 C 0.71921 0.79939 0.60819 0.0
C2360 C 0.702 0.79061 0.55987 0.0
C2361 C 0.67377 0.77666 0.61947 0.0
H2362 H 0.66122 0.75921 0.51119 0.0
C2363 C 0.62332 0.74972 0.58642 0.0
C2364 C 0.61969 0.75134 0.54488 0.0
C2365 C 0.63532 0.75371 0.59499 0.0
C2366 C 0.66459 0.76407 0.54153 0.0
H2367 H 0.71561 0.79277 0.67485 0.0
H2368 H 0.69439 0.77919 0.66294 0.0
H2369 H 0.68262 0.76945 0.52485 0.0
H2370 H 0.62578 0.75809 0.47937 0.0
H2371 H 0.64668 0.76519 0.49447 0.0
H2372 H 0.65582 0.77158 0.63568 0.0
C2373 C 0.6998 0.78448 0.63573 0.0
C2374 C 0.67684 0.76992 0.54937 0.0
C2375 C 0.71197 0.79221 0.64249 0.0
C2376 C 0.62827 0.7567 0.51173 0.0
C2377 C 0.64026 0.7607 0.52031 0.0
C2378 C 0.66153 0.77082 0.61161 0.0
C2379 C 0.69466 0.78373 0.59451 0.0
C2380 C 0.68158 0.77646 0.5881 0.0
C2381 C 0.64395 0.75942 0.56222 0.0
C2382 C 0.65682 0.76463 0.57222 0.0
H2383 H 0.71946 0.80374 0.53946 0.0
H2384 H 0.6983 0.79035 0.52786 0.0
H2385 H 0.67715 0.78175 0.64935 0.0
H2386 H 0.61693 0.74556 0.61263 0.0
H2387 H 0.63785 0.75244 0.62744 0.0
C2388 C 0.19409 0.9099 0.58563 0.0
C2389 C 0.18644 0.90694 0.62184 0.0
C2390 C 0.20098 0.90449 0.57965 0.0
C2391 C 0.20028 0.87672 0.60514 0.0
H2392 H 0.23281 0.89291 0.56262 0.0
C2393 C 0.22142 0.85141 0.52798 0.0
C2394 C 0.2328 0.8543 0.54289 0.0
C2395 C 0.21654 0.8585 0.53914 0.0
C2396 C 0.22375 0.8883 0.57475 0.0
H2397 H 0.18044 0.89638 0.68123 0.0
H2398 H 0.19243 0.88692 0.67063 0.0
H2399 H 0.22324 0.90449 0.58181 0.0
H2400 H 0.24813 0.8671 0.58015 0.0
H2401 H 0.23959 0.87959 0.59929 0.0
H2402 H 0.2007 0.86055 0.59765 0.0
C2403 C 0.19301 0.89336 0.64672 0.0
C2404 C 0.21827 0.8949 0.58545 0.0
C2405 C 0.18619 0.89882 0.65285 0.0
C2406 C 0.23933 0.86463 0.56824 0.0
C2407 C 0.23447 0.8718 0.57907 0.0
C2408 C 0.20571 0.87013 0.59406 0.0
C2409 C 0.20029 0.89595 0.60961 0.0
C2410 C 0.20645 0.88916 0.60055 0.0
C2411 C 0.22296 0.86869 0.56514 0.0
C2412 C 0.21746 0.87584 0.5784 0.0
H2413 H 0.19452 0.91615 0.5612 0.0
H2414 H 0.20645 0.9066 0.55059 0.0
H2415 H 0.19113 0.87203 0.61622 0.0
H2416 H 0.21616 0.84354 0.50833 0.0
H2417 H 0.20771 0.85599 0.52745 0.0
C2418 C 0.13903 0.37649 0.58077 0.0
C2419 C 0.14029 0.38166 0.53927 0.0
C2420 C 0.1316 0.36427 0.58667 0.0
C2421 C 0.11794 0.33596 0.52635 0.0
H2422 H 0.09904 0.32357 0.63179 0.0
C2423 C 0.08786 0.28558 0.55467 0.0
C2424 C 0.08877 0.28141 0.59615 0.0
C2425 C 0.09277 0.29776 0.54701 0.0
C2426 C 0.10431 0.3269 0.60228 0.0
H2427 H 0.13458 0.37807 0.47153 0.0
H2428 H 0.12153 0.35671 0.48194 0.0
H2429 H 0.11024 0.34501 0.61935 0.0
H2430 H 0.09518 0.28675 0.66251 0.0
H2431 H 0.10379 0.30799 0.64906 0.0
H2432 H 0.11218 0.31787 0.50959 0.0
C2433 C 0.12641 0.36211 0.5098 0.0
C2434 C 0.11074 0.33917 0.59516 0.0
C2435 C 0.13385 0.37435 0.50389 0.0
C2436 C 0.09433 0.28966 0.63017 0.0
C2437 C 0.09921 0.30184 0.62252 0.0
C2438 C 0.11151 0.32368 0.53345 0.0
C2439 C 0.12524 0.35692 0.55124 0.0
C2440 C 0.11775 0.34385 0.55739 0.0
C2441 C 0.09865 0.30604 0.58067 0.0
C2442 C 0.10474 0.31902 0.57175 0.0
H2443 H 0.14388 0.38186 0.60874 0.0
H2444 H 0.13105 0.36054 0.61887 0.0
H2445 H 0.12339 0.33927 0.49721 0.0
H2446 H 0.0836 0.27946 0.52777 0.0
H2447 H 0.09205 0.30071 0.51457 0.0
C2448 C 0.0354 0.56741 0.80301 0.0
C2449 C 0.04365 0.57092 0.76854 0.0
C2450 C 0.02322 0.56196 0.79437 0.0
C2451 C 0.0013 0.54431 0.71006 0.0
H2452 H 0.98015 0.55083 0.77917 0.0
C2453 C 0.95075 0.52073 0.67666 0.0
C2454 C 0.9433 0.51674 0.71358 0.0
C2455 C 0.96301 0.52829 0.68139 0.0
C2456 C 0.98593 0.54885 0.7598 0.0
H2457 H 0.04557 0.5718 0.69787 0.0
H2458 H 0.0243 0.56234 0.68285 0.0
H2459 H 0.00159 0.56254 0.79101 0.0
H2460 H 0.94288 0.51768 0.78442 0.0
H2461 H 0.96424 0.53071 0.79266 0.0
H2462 H 0.98566 0.53046 0.67945 0.0
C2463 C 0.02727 0.56368 0.71657 0.0
C2464 C -0.00179 0.55557 0.76655 0.0
C2465 C 0.03946 0.56916 0.7252 0.0
C2466 C 0.94836 0.5206 0.75527 0.0
C2467 C 0.96061 0.52814 0.75999 0.0
C2468 C 0.98902 0.53757 0.70338 0.0
C2469 C 0.019 0.55988 0.75106 0.0
C2470 C 0.00602 0.55329 0.74206 0.0
C2471 C 0.96809 0.53204 0.72314 0.0
C2472 C 0.98118 0.53967 0.72849 0.0
H2473 H 0.03833 0.56864 0.83677 0.0
H2474 H 0.01708 0.55903 0.82167 0.0
H2475 H 0.00707 0.54222 0.6911 0.0
H2476 H 0.94712 0.51797 0.64407 0.0
H2477 H 0.96851 0.53125 0.6523 0.0
C2478 C 0.42136 0.47073 0.74544 0.0
C2479 C 0.42173 0.47582 0.78642 0.0
C2480 C 0.42618 0.46331 0.74002 0.0
C2481 C 0.43577 0.4448 0.79969 0.0
H2482 H 0.45555 0.45037 0.69737 0.0
C2483 C 0.46701 0.42528 0.77977 0.0
C2484 C 0.46833 0.42172 0.73768 0.0
C2485 C 0.46035 0.43092 0.78608 0.0
C2486 C 0.44991 0.44856 0.72577 0.0
H2487 H 0.4272 0.47688 0.85413 0.0
H2488 H 0.43568 0.46395 0.84455 0.0
H2489 H 0.44575 0.46199 0.7079 0.0
H2490 H 0.4633 0.42086 0.6695 0.0
H2491 H 0.45154 0.43053 0.68064 0.0
H2492 H 0.44002 0.4314 0.81765 0.0
C2493 C 0.43158 0.46564 0.8167 0.0
C2494 C 0.4443 0.45524 0.73183 0.0
C2495 C 0.42678 0.4731 0.82212 0.0
C2496 C 0.46254 0.42357 0.7023 0.0
C2497 C 0.45585 0.42918 0.70864 0.0
C2498 C 0.44137 0.43808 0.79357 0.0
C2499 C 0.43146 0.46079 0.77545 0.0
C2500 C 0.43719 0.45346 0.76889 0.0
C2501 C 0.45484 0.43311 0.75047 0.0
C2502 C 0.44853 0.43991 0.75656 0.0
H2503 H 0.41748 0.47258 0.71728 0.0
H2504 H 0.42579 0.45956 0.70798 0.0
H2505 H 0.43024 0.44314 0.82833 0.0
H2506 H 0.47137 0.424 0.80773 0.0
H2507 H 0.45985 0.43393 0.81866 0.0
C2508 C 0.5288 0.94932 0.7277 0.0
C2509 C 0.52562 0.94466 0.77022 0.0
C2510 C 0.53614 0.96153 0.72113 0.0
C2511 C 0.55753 0.98963 0.77601 0.0
H2512 H 0.5479 0.00392 0.6851 0.0
C2513 C 0.57627 0.04042 0.76069 0.0
C2514 C 0.5781 0.04528 0.71838 0.0
C2515 C 0.57092 0.02812 0.76662 0.0
C2516 C 0.55083 7e-05 0.71017 0.0
H2517 H 0.52792 0.94914 0.83927 0.0
H2518 H 0.54065 0.9705 0.82774 0.0
H2519 H 0.53663 0.98252 0.6963 0.0
H2520 H 0.5762 0.04107 0.64909 0.0
H2521 H 0.56702 0.01966 0.65944 0.0
H2522 H 0.57167 0.00727 0.79012 0.0
C2523 C 0.53755 0.96468 0.7995 0.0
C2524 C 0.54436 0.98778 0.71662 0.0
C2525 C 0.5302 0.95245 0.80609 0.0
C2526 C 0.57484 0.03761 0.68213 0.0
C2527 C 0.56951 0.02533 0.68806 0.0
C2528 C 0.56402 0.00195 0.76953 0.0
C2529 C 0.54047 0.96937 0.75691 0.0
C2530 C 0.54761 0.98242 0.74966 0.0
C2531 C 0.5673 0.02042 0.73036 0.0
C2532 C 0.56072 0.00731 0.73658 0.0
H2533 H 0.5255 0.94356 0.69933 0.0
H2534 H 0.53839 0.96483 0.68794 0.0
H2535 H 0.56033 0.98575 0.80142 0.0
H2536 H 0.57867 0.04608 0.78932 0.0
H2537 H 0.56925 0.02462 0.79964 0.0
C2538 C 0.46637 0.04357 0.17446 0.0
C2539 C 0.47073 0.05088 0.21166 0.0
C2540 C 0.45879 0.0313 0.17885 0.0
C2541 C 0.43926 0.00775 0.25738 0.0
H2542 H 0.44688 0.98779 0.18582 0.0
C2543 C 0.42302 0.95845 0.29731 0.0
C2544 C 0.41988 0.95041 0.26229 0.0
C2545 C 0.42787 0.97062 0.28947 0.0
C2546 C 0.44449 0.99321 0.20557 0.0
H2547 H 0.47021 0.05109 0.28262 0.0
H2548 H 0.45709 0.02971 0.29024 0.0
H2549 H 0.45766 0.00923 0.1749 0.0
H2550 H 0.41902 0.94881 0.19151 0.0
H2551 H 0.4274 0.97002 0.17789 0.0
H2552 H 0.42624 0.99169 0.28862 0.0
C2553 C 0.45943 0.03345 0.25766 0.0
C2554 C 0.45067 0.00551 0.1993 0.0
C2555 C 0.46701 0.04572 0.25328 0.0
C2556 C 0.4214 0.95477 0.21925 0.0
C2557 C 0.42626 0.96693 0.21142 0.0
C2558 C 0.43307 0.99543 0.26368 0.0
C2559 C 0.45539 0.02608 0.22052 0.0
C2560 C 0.44822 0.01294 0.2254 0.0
C2561 C 0.4297 0.97502 0.24642 0.0
C2562 C 0.43571 0.98803 0.23813 0.0
H2563 H 0.46901 0.04727 0.14191 0.0
H2564 H 0.45568 0.02589 0.14958 0.0
H2565 H 0.43704 0.01322 0.27762 0.0
H2566 H 0.42196 0.95539 0.33086 0.0
H2567 H 0.43054 0.97663 0.31716 0.0
C2568 C 0.03395 0.46429 0.31305 0.0
C2569 C 0.04188 0.46708 0.27785 0.0
C2570 C 0.02168 0.4582 0.30596 0.0
C2571 C -0.00171 0.43971 0.22538 0.0
H2572 H 0.98005 0.45111 0.2887 0.0
C2573 C 0.94917 0.42496 0.18478 0.0
C2574 C 0.94148 0.4225 0.22056 0.0
C2575 C 0.96143 0.43 0.19134 0.0
C2576 C 0.98499 0.44774 0.2711 0.0
H2577 H 0.04312 0.46537 0.20769 0.0
H2578 H 0.02169 0.45486 0.19525 0.0
H2579 H 0.00137 0.46036 0.30121 0.0
H2580 H 0.94062 0.42329 0.29135 0.0
H2581 H 0.96193 0.43203 0.30269 0.0
H2582 H 0.98185 0.42715 0.19496 0.0
C2583 C 0.02496 0.45727 0.22842 0.0
C2584 C 0.99721 0.45302 0.27834 0.0
C2585 C 0.03725 0.46333 0.23554 0.0
C2586 C 0.94629 0.42512 0.26302 0.0
C2587 C 0.95852 0.43018 0.26954 0.0
C2588 C 0.98605 0.43444 0.21804 0.0
C2589 C 0.01704 0.45479 0.26348 0.0
C2590 C 0.00401 0.44905 0.25571 0.0
C2591 C 0.96624 0.43273 0.2338 0.0
C2592 C 0.97926 0.43837 0.24097 0.0
H2593 H 0.03722 0.46697 0.3461 0.0
H2594 H 0.01582 0.45622 0.3338 0.0
H2595 H 0.00325 0.43636 0.20775 0.0
H2596 H 0.94575 0.42305 0.15166 0.0
H2597 H 0.96717 0.43197 0.16313 0.0
C2598 C 0.57167 0.52724 0.27116 0.0
C2599 C 0.5747 0.52527 0.22905 0.0
C2600 C 0.56547 0.53338 0.27674 0.0
C2601 C 0.54568 0.5413 0.21707 0.0
H2602 H 0.55202 0.56268 0.31496 0.0
C2603 C 0.52236 0.56895 0.23596 0.0
C2604 C 0.51811 0.56934 0.2779 0.0
C2605 C 0.52975 0.56413 0.22982 0.0
C2606 C 0.55009 0.55666 0.28767 0.0
H2607 H 0.57394 0.52856 0.15986 0.0
H2608 H 0.56331 0.53946 0.16965 0.0
H2609 H 0.56437 0.5536 0.30412 0.0
H2610 H 0.51839 0.56505 0.34634 0.0
H2611 H 0.53129 0.55658 0.33552 0.0
H2612 H 0.5314 0.54435 0.20065 0.0
C2613 C 0.56552 0.53604 0.19832 0.0
C2614 C 0.55716 0.55145 0.28145 0.0
C2615 C 0.57168 0.52986 0.19272 0.0
C2616 C 0.52151 0.56489 0.31362 0.0
C2617 C 0.52896 0.5601 0.30748 0.0
C2618 C 0.53865 0.54654 0.2232 0.0
C2619 C 0.5622 0.53774 0.24036 0.0
C2620 C 0.555 0.54366 0.24618 0.0
C2621 C 0.53311 0.55961 0.26547 0.0
C2622 C 0.54074 0.55424 0.25866 0.0
H2623 H 0.57383 0.52379 0.29986 0.0
H2624 H 0.56294 0.5344 0.30953 0.0
H2625 H 0.54362 0.53517 0.19005 0.0
H2626 H 0.51994 0.57234 0.20773 0.0
H2627 H 0.53292 0.56401 0.19714 0.0
loop_
_geom_bond_atom_site_label_1
_geom_bond_atom_site_label_2
_geom_bond_distance
_geom_bond_site_symmetry_2
_ccdc_geom_bond_type
C0 O1 1.160 . S
C0 O7 1.185 . S
O1 C0 1.160 . S
O2 Zn3 1.899 . S
O2 C10 1.284 . S
Zn3 O2 1.899 . S
Zn3 O4 2.032 . S
Zn3 O7 2.086 . S
Zn3 O12 1.977 . S
O4 Zn3 2.032 . S
O4 C8 1.278 . S
C5 O6 1.203 . S
C5 O12 1.267 . S
O6 C5 1.203 . S
O7 C0 1.185 . S
O7 Zn3 2.086 . S
C8 O4 1.278 . S
C8 O9 1.211 . S
O9 C8 1.211 . S
C10 O2 1.284 . S
C10 O11 1.273 . S
O11 C10 1.273 . S
O12 Zn3 1.977 . S
O12 C5 1.267 . S
C13 O14 1.160 . S
C13 O20 1.185 . S
O14 C13 1.160 . S
O15 Zn16 1.899 . S
O15 C23 1.284 . S
Zn16 O15 1.899 . S
Zn16 O17 2.032 . S
Zn16 O20 2.086 . S
Zn16 O25 1.977 . S
O17 Zn16 2.032 . S
O17 C21 1.278 . S
C18 O19 1.203 . S
C18 O25 1.267 . S
O19 C18 1.203 . S
O20 C13 1.185 . S
O20 Zn16 2.086 . S
C21 O17 1.278 . S
C21 O22 1.211 . S
O22 C21 1.211 . S
C23 O15 1.284 . S
C23 O24 1.273 . S
O24 C23 1.273 . S
O25 Zn16 1.977 . S
O25 C18 1.267 . S
C26 O27 1.160 . S
C26 O33 1.185 . S
O27 C26 1.160 . S
O28 Zn29 1.899 . S
O28 C36 1.284 . S
Zn29 O28 1.899 . S
Zn29 O30 2.032 . S
Zn29 O33 2.086 . S
Zn29 O38 1.977 . S
O30 Zn29 2.032 . S
O30 C34 1.278 . S
C31 O32 1.203 . S
C31 O38 1.267 . S
O32 C31 1.203 . S
O33 C26 1.185 . S
O33 Zn29 2.086 . S
C34 O30 1.278 . S
C34 O35 1.211 . S
O35 C34 1.211 . S
C36 O28 1.284 . S
C36 O37 1.273 . S
O37 C36 1.273 . S
O38 Zn29 1.977 . S
O38 C31 1.267 . S
C39 O40 1.160 . S
C39 O46 1.185 . S
O40 C39 1.160 . S
O41 Zn42 1.899 . S
O41 C49 1.284 . S
Zn42 O41 1.899 . S
Zn42 O43 2.032 . S
Zn42 O46 2.086 . S
Zn42 O51 1.977 . S
O43 Zn42 2.032 . S
O43 C47 1.278 . S
C44 O45 1.203 . S
C44 O51 1.267 . S
O45 C44 1.203 . S
O46 C39 1.185 . S
O46 Zn42 2.086 . S
C47 O43 1.278 . S
C47 O48 1.211 . S
O48 C47 1.211 . S
C49 O41 1.284 . S
C49 O50 1.273 . S
O50 C49 1.273 . S
O51 Zn42 1.977 . S
O51 C44 1.267 . S
C52 O53 1.160 . S
C52 O59 1.185 . S
O53 C52 1.160 . S
O54 Zn55 1.899 . S
O54 C62 1.284 . S
Zn55 O54 1.899 . S
Zn55 O56 2.032 . S
Zn55 O59 2.086 . S
Zn55 O64 1.977 . S
O56 Zn55 2.032 . S
O56 C60 1.278 . S
C57 O58 1.203 . S
C57 O64 1.267 . S
O58 C57 1.203 . S
O59 C52 1.185 . S
O59 Zn55 2.086 . S
C60 O56 1.278 . S
C60 O61 1.211 . S
O61 C60 1.211 . S
C62 O54 1.284 . S
C62 O63 1.273 . S
O63 C62 1.273 . S
O64 Zn55 1.977 . S
O64 C57 1.267 . S
C65 O66 1.160 . S
C65 O72 1.185 . S
O66 C65 1.160 . S
O67 Zn68 1.899 . S
O67 C75 1.284 . S
Zn68 O67 1.899 . S
Zn68 O69 2.032 . S
Zn68 O72 2.086 . S
Zn68 O77 1.977 . S
O69 Zn68 2.032 . S
O69 C73 1.278 . S
C70 O71 1.203 . S
C70 O77 1.267 . S
O71 C70 1.203 . S
O72 C65 1.185 . S
O72 Zn68 2.086 . S
C73 O69 1.278 . S
C73 O74 1.211 . S
O74 C73 1.211 . S
C75 O67 1.284 . S
C75 O76 1.273 . S
O76 C75 1.273 . S
O77 Zn68 1.977 . S
O77 C70 1.267 . S
C78 O79 1.160 . S
C78 O85 1.185 . S
O79 C78 1.160 . S
O80 Zn81 1.899 . S
O80 C88 1.284 . S
Zn81 O80 1.899 . S
Zn81 O82 2.032 . S
Zn81 O85 2.086 . S
Zn81 O90 1.977 . S
O82 Zn81 2.032 . S
O82 C86 1.278 . S
C83 O84 1.203 . S
C83 O90 1.267 . S
O84 C83 1.203 . S
O85 C78 1.185 . S
O85 Zn81 2.086 . S
C86 O82 1.278 . S
C86 O87 1.211 . S
O87 C86 1.211 . S
C88 O80 1.284 . S
C88 O89 1.273 . S
O89 C88 1.273 . S
O90 Zn81 1.977 . S
O90 C83 1.267 . S
C91 O92 1.160 . S
C91 O98 1.185 . S
O92 C91 1.160 . S
O93 Zn94 1.899 . S
O93 C101 1.284 . S
Zn94 O93 1.899 . S
Zn94 O95 2.032 . S
Zn94 O98 2.086 . S
Zn94 O103 1.977 . S
O95 Zn94 2.032 . S
O95 C99 1.278 . S
C96 O97 1.203 . S
C96 O103 1.267 . S
O97 C96 1.203 . S
O98 C91 1.185 . S
O98 Zn94 2.086 . S
C99 O95 1.278 . S
C99 O100 1.211 . S
O100 C99 1.211 . S
C101 O93 1.284 . S
C101 O102 1.273 . S
O102 C101 1.273 . S
O103 Zn94 1.977 . S
O103 C96 1.267 . S
C104 O105 1.160 . S
C104 O111 1.185 . S
O105 C104 1.160 . S
O106 Zn107 1.899 . S
O106 C114 1.284 . S
Zn107 O106 1.899 . S
Zn107 O108 2.032 . S
Zn107 O111 2.086 . S
Zn107 O116 1.977 . S
O108 Zn107 2.032 . S
O108 C112 1.278 . S
C109 O110 1.203 . S
C109 O116 1.267 . S
O110 C109 1.203 . S
O111 C104 1.185 . S
O111 Zn107 2.086 . S
C112 O108 1.278 . S
C112 O113 1.211 . S
O113 C112 1.211 . S
C114 O106 1.284 . S
C114 O115 1.273 . S
O115 C114 1.273 . S
O116 Zn107 1.977 . S
O116 C109 1.267 . S
C117 O118 1.160 . S
C117 O124 1.185 . S
O118 C117 1.160 . S
O119 Zn120 1.899 . S
O119 C127 1.284 . S
Zn120 O119 1.899 . S
Zn120 O121 2.032 . S
Zn120 O124 2.086 . S
Zn120 O129 1.977 . S
O121 Zn120 2.032 . S
O121 C125 1.278 . S
C122 O123 1.203 . S
C122 O129 1.267 . S
O123 C122 1.203 . S
O124 C117 1.185 . S
O124 Zn120 2.086 . S
C125 O121 1.278 . S
C125 O126 1.211 . S
O126 C125 1.211 . S
C127 O119 1.284 . S
C127 O128 1.273 . S
O128 C127 1.273 . S
O129 Zn120 1.977 . S
O129 C122 1.267 . S
C130 O131 1.160 . S
C130 O137 1.185 . S
O131 C130 1.160 . S
O132 Zn133 1.899 . S
O132 C140 1.284 . S
Zn133 O132 1.899 . S
Zn133 O134 2.032 . S
Zn133 O137 2.086 . S
Zn133 O142 1.977 . S
O134 Zn133 2.032 . S
O134 C138 1.278 . S
C135 O136 1.203 . S
C135 O142 1.267 . S
O136 C135 1.203 . S
O137 C130 1.185 . S
O137 Zn133 2.086 . S
C138 O134 1.278 . S
C138 O139 1.211 . S
O139 C138 1.211 . S
C140 O132 1.284 . S
C140 O141 1.273 . S
O141 C140 1.273 . S
O142 Zn133 1.977 . S
O142 C135 1.267 . S
C143 O144 1.160 . S
C143 O150 1.185 . S
O144 C143 1.160 . S
O145 Zn146 1.899 . S
O145 C153 1.284 . S
Zn146 O145 1.899 . S
Zn146 O147 2.032 . S
Zn146 O150 2.086 . S
Zn146 O155 1.977 . S
O147 Zn146 2.032 . S
O147 C151 1.278 . S
C148 O149 1.203 . S
C148 O155 1.267 . S
O149 C148 1.203 . S
O150 C143 1.185 . S
O150 Zn146 2.086 . S
C151 O147 1.278 . S
C151 O152 1.211 . S
O152 C151 1.211 . S
C153 O145 1.284 . S
C153 O154 1.273 . S
O154 C153 1.273 . S
O155 Zn146 1.977 . S
O155 C148 1.267 . S
C156 O157 1.160 . S
C156 O163 1.185 . S
O157 C156 1.160 . S
O158 Zn159 1.899 . S
O158 C166 1.284 . S
Zn159 O158 1.899 . S
Zn159 O160 2.032 . S
Zn159 O163 2.086 . S
Zn159 O168 1.977 . S
O160 Zn159 2.032 . S
O160 C164 1.278 . S
C161 O162 1.203 . S
C161 O168 1.267 . S
O162 C161 1.203 . S
O163 C156 1.185 . S
O163 Zn159 2.086 . S
C164 O160 1.278 . S
C164 O165 1.211 . S
O165 C164 1.211 . S
C166 O158 1.284 . S
C166 O167 1.273 . S
O167 C166 1.273 . S
O168 Zn159 1.977 . S
O168 C161 1.267 . S
C169 O170 1.160 . S
C169 O176 1.185 . S
O170 C169 1.160 . S
O171 Zn172 1.899 . S
O171 C179 1.284 . S
Zn172 O171 1.899 . S
Zn172 O173 2.032 . S
Zn172 O176 2.086 . S
Zn172 O181 1.977 . S
O173 Zn172 2.032 . S
O173 C177 1.278 . S
C174 O175 1.203 . S
C174 O181 1.267 . S
O175 C174 1.203 . S
O176 C169 1.185 . S
O176 Zn172 2.086 . S
C177 O173 1.278 . S
C177 O178 1.211 . S
O178 C177 1.211 . S
C179 O171 1.284 . S
C179 O180 1.273 . S
O180 C179 1.273 . S
O181 Zn172 1.977 . S
O181 C174 1.267 . S
C182 O183 1.160 . S
C182 O189 1.185 . S
O183 C182 1.160 . S
O184 Zn185 1.899 . S
O184 C192 1.284 . S
Zn185 O184 1.899 . S
Zn185 O186 2.032 . S
Zn185 O189 2.086 . S
Zn185 O194 1.977 . S
O186 Zn185 2.032 . S
O186 C190 1.278 . S
C187 O188 1.203 . S
C187 O194 1.267 . S
O188 C187 1.203 . S
O189 C182 1.185 . S
O189 Zn185 2.086 . S
C190 O186 1.278 . S
C190 O191 1.211 . S
O191 C190 1.211 . S
C192 O184 1.284 . S
C192 O193 1.273 . S
O193 C192 1.273 . S
O194 Zn185 1.977 . S
O194 C187 1.267 . S
C195 O196 1.160 . S
C195 O202 1.185 . S
O196 C195 1.160 . S
O197 Zn198 1.899 . S
O197 C205 1.284 . S
Zn198 O197 1.899 . S
Zn198 O199 2.032 . S
Zn198 O202 2.086 . S
Zn198 O207 1.977 . S
O199 Zn198 2.032 . S
O199 C203 1.278 . S
C200 O201 1.203 . S
C200 O207 1.267 . S
O201 C200 1.203 . S
O202 C195 1.185 . S
O202 Zn198 2.086 . S
C203 O199 1.278 . S
C203 O204 1.211 . S
O204 C203 1.211 . S
C205 O197 1.284 . S
C205 O206 1.273 . S
O206 C205 1.273 . S
O207 Zn198 1.977 . S
O207 C200 1.267 . S
C208 O209 1.160 . S
C208 O215 1.185 . S
O209 C208 1.160 . S
O210 Zn211 1.899 . S
O210 C218 1.284 . S
Zn211 O210 1.899 . S
Zn211 O212 2.032 . S
Zn211 O215 2.086 . S
Zn211 O220 1.977 . S
O212 Zn211 2.032 . S
O212 C216 1.278 . S
C213 O214 1.203 . S
C213 O220 1.267 . S
O214 C213 1.203 . S
O215 C208 1.185 . S
O215 Zn211 2.086 . S
C216 O212 1.278 . S
C216 O217 1.211 . S
O217 C216 1.211 . S
C218 O210 1.284 . S
C218 O219 1.273 . S
O219 C218 1.273 . S
O220 Zn211 1.977 . S
O220 C213 1.267 . S
C221 O222 1.160 . S
C221 O228 1.185 . S
O222 C221 1.160 . S
O223 Zn224 1.899 . S
O223 C231 1.284 . S
Zn224 O223 1.899 . S
Zn224 O225 2.032 . S
Zn224 O228 2.086 . S
Zn224 O233 1.977 . S
O225 Zn224 2.032 . S
O225 C229 1.278 . S
C226 O227 1.203 . S
C226 O233 1.267 . S
O227 C226 1.203 . S
O228 C221 1.185 . S
O228 Zn224 2.086 . S
C229 O225 1.278 . S
C229 O230 1.211 . S
O230 C229 1.211 . S
C231 O223 1.284 . S
C231 O232 1.273 . S
O232 C231 1.273 . S
O233 Zn224 1.977 . S
O233 C226 1.267 . S
C234 O235 1.160 . S
C234 O241 1.185 . S
O235 C234 1.160 . S
O236 Zn237 1.899 . S
O236 C244 1.284 . S
Zn237 O236 1.899 . S
Zn237 O238 2.032 . S
Zn237 O241 2.086 . S
Zn237 O246 1.977 . S
O238 Zn237 2.032 . S
O238 C242 1.278 . S
C239 O240 1.203 . S
C239 O246 1.267 . S
O240 C239 1.203 . S
O241 C234 1.185 . S
O241 Zn237 2.086 . S
C242 O238 1.278 . S
C242 O243 1.211 . S
O243 C242 1.211 . S
C244 O236 1.284 . S
C244 O245 1.273 . S
O245 C244 1.273 . S
O246 Zn237 1.977 . S
O246 C239 1.267 . S
C247 O248 1.160 . S
C247 O254 1.185 . S
O248 C247 1.160 . S
O249 Zn250 1.899 . S
O249 C257 1.284 . S
Zn250 O249 1.899 . S
Zn250 O251 2.032 . S
Zn250 O254 2.086 . S
Zn250 O259 1.977 . S
O251 Zn250 2.032 . S
O251 C255 1.278 . S
C252 O253 1.203 . S
C252 O259 1.267 . S
O253 C252 1.203 . S
O254 C247 1.185 . S
O254 Zn250 2.086 . S
C255 O251 1.278 . S
C255 O256 1.211 . S
O256 C255 1.211 . S
C257 O249 1.284 . S
C257 O258 1.273 . S
O258 C257 1.273 . S
O259 Zn250 1.977 . S
O259 C252 1.267 . S
C260 O261 1.160 . S
C260 O267 1.185 . S
O261 C260 1.160 . S
O262 Zn263 1.899 . S
O262 C270 1.284 . S
Zn263 O262 1.899 . S
Zn263 O264 2.032 . S
Zn263 O267 2.086 . S
Zn263 O272 1.977 . S
O264 Zn263 2.032 . S
O264 C268 1.278 . S
C265 O266 1.203 . S
C265 O272 1.267 . S
O266 C265 1.203 . S
O267 C260 1.185 . S
O267 Zn263 2.086 . S
C268 O264 1.278 . S
C268 O269 1.211 . S
O269 C268 1.211 . S
C270 O262 1.284 . S
C270 O271 1.273 . S
O271 C270 1.273 . S
O272 Zn263 1.977 . S
O272 C265 1.267 . S
C273 O274 1.160 . S
C273 O280 1.185 1_554 S
O274 C273 1.160 . S
O275 Zn276 1.899 . S
O275 C283 1.284 . S
Zn276 O275 1.899 . S
Zn276 O277 2.032 1_556 S
Zn276 O280 2.086 . S
Zn276 O285 1.977 . S
O277 Zn276 2.032 1_554 S
O277 C281 1.278 . S
C278 O279 1.203 . S
C278 O285 1.267 . S
O279 C278 1.203 . S
O280 C273 1.185 1_556 S
O280 Zn276 2.086 . S
C281 O277 1.278 . S
C281 O282 1.211 . S
O282 C281 1.211 . S
C283 O275 1.284 . S
C283 O284 1.273 1_556 S
O284 C283 1.273 1_554 S
O285 Zn276 1.977 . S
O285 C278 1.267 . S
C286 O287 1.160 . S
C286 O293 1.185 1_554 S
O287 C286 1.160 . S
O288 Zn289 1.899 . S
O288 C296 1.284 . S
Zn289 O288 1.899 . S
Zn289 O290 2.032 1_556 S
Zn289 O293 2.086 . S
Zn289 O298 1.977 . S
O290 Zn289 2.032 1_554 S
O290 C294 1.278 . S
C291 O292 1.203 . S
C291 O298 1.267 . S
O292 C291 1.203 . S
O293 C286 1.185 1_556 S
O293 Zn289 2.086 . S
C294 O290 1.278 . S
C294 O295 1.211 . S
O295 C294 1.211 . S
C296 O288 1.284 . S
C296 O297 1.273 1_556 S
O297 C296 1.273 1_554 S
O298 Zn289 1.977 . S
O298 C291 1.267 . S
C299 O300 1.160 . S
C299 O306 1.185 1_554 S
O300 C299 1.160 . S
O301 Zn302 1.899 . S
O301 C309 1.284 . S
Zn302 O301 1.899 . S
Zn302 O303 2.032 1_556 S
Zn302 O306 2.086 . S
Zn302 O311 1.977 . S
O303 Zn302 2.032 1_554 S
O303 C307 1.278 . S
C304 O305 1.203 . S
C304 O311 1.267 . S
O305 C304 1.203 . S
O306 C299 1.185 1_556 S
O306 Zn302 2.086 . S
C307 O303 1.278 . S
C307 O308 1.211 . S
O308 C307 1.211 . S
C309 O301 1.284 . S
C309 O310 1.273 1_556 S
O310 C309 1.273 1_554 S
O311 Zn302 1.977 . S
O311 C304 1.267 . S
C312 O313 1.160 . S
C312 O319 1.185 . S
O313 C312 1.160 . S
O314 Zn315 1.899 . S
O314 C322 1.284 . S
Zn315 O314 1.899 . S
Zn315 O316 2.032 . S
Zn315 O319 2.086 . S
Zn315 O324 1.977 . S
O316 Zn315 2.032 . S
O316 C320 1.278 . S
C317 O318 1.203 . S
C317 O324 1.267 . S
O318 C317 1.203 . S
O319 C312 1.185 . S
O319 Zn315 2.086 . S
C320 O316 1.278 . S
C320 O321 1.211 . S
O321 C320 1.211 . S
C322 O314 1.284 . S
C322 O323 1.273 . S
O323 C322 1.273 . S
O324 Zn315 1.977 . S
O324 C317 1.267 . S
C325 O326 1.160 . S
C325 O332 1.185 . S
O326 C325 1.160 . S
O327 Zn328 1.899 . S
O327 C335 1.284 . S
Zn328 O327 1.899 . S
Zn328 O329 2.032 . S
Zn328 O332 2.086 . S
Zn328 O337 1.977 . S
O329 Zn328 2.032 . S
O329 C333 1.278 . S
C330 O331 1.203 . S
C330 O337 1.267 . S
O331 C330 1.203 . S
O332 C325 1.185 . S
O332 Zn328 2.086 . S
C333 O329 1.278 . S
C333 O334 1.211 . S
O334 C333 1.211 . S
C335 O327 1.284 . S
C335 O336 1.273 . S
O336 C335 1.273 . S
O337 Zn328 1.977 . S
O337 C330 1.267 . S
C338 O339 1.160 . S
C338 O345 1.185 . S
O339 C338 1.160 . S
O340 Zn341 1.899 . S
O340 C348 1.284 . S
Zn341 O340 1.899 . S
Zn341 O342 2.032 . S
Zn341 O345 2.086 . S
Zn341 O350 1.977 . S
O342 Zn341 2.032 . S
O342 C346 1.278 . S
C343 O344 1.203 . S
C343 O350 1.267 . S
O344 C343 1.203 . S
O345 C338 1.185 . S
O345 Zn341 2.086 . S
C346 O342 1.278 . S
C346 O347 1.211 . S
O347 C346 1.211 . S
C348 O340 1.284 . S
C348 O349 1.273 . S
O349 C348 1.273 . S
O350 Zn341 1.977 . S
O350 C343 1.267 . S
C351 O352 1.160 . S
C351 O358 1.185 1_556 S
O352 C351 1.160 . S
O353 Zn354 1.899 . S
O353 C361 1.284 . S
Zn354 O353 1.899 . S
Zn354 O355 2.032 1_554 S
Zn354 O358 2.086 . S
Zn354 O363 1.977 . S
O355 Zn354 2.032 1_556 S
O355 C359 1.278 . S
C356 O357 1.203 . S
C356 O363 1.267 . S
O357 C356 1.203 . S
O358 C351 1.185 1_554 S
O358 Zn354 2.086 . S
C359 O355 1.278 . S
C359 O360 1.211 . S
O360 C359 1.211 . S
C361 O353 1.284 . S
C361 O362 1.273 1_554 S
O362 C361 1.273 1_556 S
O363 Zn354 1.977 . S
O363 C356 1.267 . S
C364 O365 1.160 . S
C364 O371 1.185 1_556 S
O365 C364 1.160 . S
O366 Zn367 1.899 . S
O366 C374 1.284 . S
Zn367 O366 1.899 . S
Zn367 O368 2.032 1_554 S
Zn367 O371 2.086 . S
Zn367 O376 1.977 . S
O368 Zn367 2.032 1_556 S
O368 C372 1.278 . S
C369 O370 1.203 . S
C369 O376 1.267 . S
O370 C369 1.203 . S
O371 C364 1.185 1_554 S
O371 Zn367 2.086 . S
C372 O368 1.278 . S
C372 O373 1.211 . S
O373 C372 1.211 . S
C374 O366 1.284 . S
C374 O375 1.273 1_554 S
O375 C374 1.273 1_556 S
O376 Zn367 1.977 . S
O376 C369 1.267 . S
C377 O378 1.160 . S
C377 O384 1.185 1_556 S
O378 C377 1.160 . S
O379 Zn380 1.899 . S
O379 C387 1.284 . S
Zn380 O379 1.899 . S
Zn380 O381 2.032 1_554 S
Zn380 O384 2.086 . S
Zn380 O389 1.977 . S
O381 Zn380 2.032 1_556 S
O381 C385 1.278 . S
C382 O383 1.203 . S
C382 O389 1.267 . S
O383 C382 1.203 . S
O384 C377 1.185 1_554 S
O384 Zn380 2.086 . S
C385 O381 1.278 . S
C385 O386 1.211 . S
O386 C385 1.211 . S
C387 O379 1.284 . S
C387 O388 1.273 1_554 S
O388 C387 1.273 1_556 S
O389 Zn380 1.977 . S
O389 C382 1.267 . S
C390 O391 1.160 . S
C390 O397 1.185 . S
O391 C390 1.160 . S
O392 Zn393 1.899 . S
O392 C400 1.284 . S
Zn393 O392 1.899 . S
Zn393 O394 2.032 . S
Zn393 O397 2.086 . S
Zn393 O402 1.977 . S
O394 Zn393 2.032 . S
O394 C398 1.278 . S
C395 O396 1.203 . S
C395 O402 1.267 . S
O396 C395 1.203 . S
O397 C390 1.185 . S
O397 Zn393 2.086 . S
C398 O394 1.278 . S
C398 O399 1.211 . S
O399 C398 1.211 . S
C400 O392 1.284 . S
C400 O401 1.273 . S
O401 C400 1.273 . S
O402 Zn393 1.977 . S
O402 C395 1.267 . S
C403 O404 1.160 . S
C403 O410 1.185 . S
O404 C403 1.160 . S
O405 Zn406 1.899 . S
O405 C413 1.284 . S
Zn406 O405 1.899 . S
Zn406 O407 2.032 . S
Zn406 O410 2.086 . S
Zn406 O415 1.977 . S
O407 Zn406 2.032 . S
O407 C411 1.278 . S
C408 O409 1.203 . S
C408 O415 1.267 . S
O409 C408 1.203 . S
O410 C403 1.185 . S
O410 Zn406 2.086 . S
C411 O407 1.278 . S
C411 O412 1.211 . S
O412 C411 1.211 . S
C413 O405 1.284 . S
C413 O414 1.273 . S
O414 C413 1.273 . S
O415 Zn406 1.977 . S
O415 C408 1.267 . S
C416 O417 1.160 . S
C416 O423 1.185 . S
O417 C416 1.160 . S
O418 Zn419 1.899 . S
O418 C426 1.284 . S
Zn419 O418 1.899 . S
Zn419 O420 2.032 . S
Zn419 O423 2.086 . S
Zn419 O428 1.977 . S
O420 Zn419 2.032 . S
O420 C424 1.278 . S
C421 O422 1.203 . S
C421 O428 1.267 . S
O422 C421 1.203 . S
O423 C416 1.185 . S
O423 Zn419 2.086 . S
C424 O420 1.278 . S
C424 O425 1.211 . S
O425 C424 1.211 . S
C426 O418 1.284 . S
C426 O427 1.273 . S
O427 C426 1.273 . S
O428 Zn419 1.977 . S
O428 C421 1.267 . S
C429 O430 1.160 . S
C429 O436 1.185 . S
O430 C429 1.160 . S
O431 Zn432 1.899 . S
O431 C439 1.284 . S
Zn432 O431 1.899 . S
Zn432 O433 2.032 . S
Zn432 O436 2.086 . S
Zn432 O441 1.977 . S
O433 Zn432 2.032 . S
O433 C437 1.278 . S
C434 O435 1.203 . S
C434 O441 1.267 . S
O435 C434 1.203 . S
O436 C429 1.185 . S
O436 Zn432 2.086 . S
C437 O433 1.278 . S
C437 O438 1.211 . S
O438 C437 1.211 . S
C439 O431 1.284 . S
C439 O440 1.273 . S
O440 C439 1.273 . S
O441 Zn432 1.977 . S
O441 C434 1.267 . S
C442 O443 1.160 . S
C442 O449 1.185 . S
O443 C442 1.160 . S
O444 Zn445 1.899 . S
O444 C452 1.284 . S
Zn445 O444 1.899 . S
Zn445 O446 2.032 . S
Zn445 O449 2.086 . S
Zn445 O454 1.977 . S
O446 Zn445 2.032 . S
O446 C450 1.278 . S
C447 O448 1.203 . S
C447 O454 1.267 . S
O448 C447 1.203 . S
O449 C442 1.185 . S
O449 Zn445 2.086 . S
C450 O446 1.278 . S
C450 O451 1.211 . S
O451 C450 1.211 . S
C452 O444 1.284 . S
C452 O453 1.273 . S
O453 C452 1.273 . S
O454 Zn445 1.977 . S
O454 C447 1.267 . S
C455 O456 1.160 . S
C455 O462 1.185 . S
O456 C455 1.160 . S
O457 Zn458 1.899 . S
O457 C465 1.284 . S
Zn458 O457 1.899 . S
Zn458 O459 2.032 . S
Zn458 O462 2.086 . S
Zn458 O467 1.977 . S
O459 Zn458 2.032 . S
O459 C463 1.278 . S
C460 O461 1.203 . S
C460 O467 1.267 . S
O461 C460 1.203 . S
O462 C455 1.185 . S
O462 Zn458 2.086 . S
C463 O459 1.278 . S
C463 O464 1.211 . S
O464 C463 1.211 . S
C465 O457 1.284 . S
C465 O466 1.273 . S
O466 C465 1.273 . S
O467 Zn458 1.977 . S
O467 C460 1.267 . S
C468 C469 1.349 . S
C468 C470 1.327 . S
C468 H493 0.950 . S
C469 C468 1.349 . S
C469 C485 1.349 . S
C470 C468 1.327 . S
C470 C489 1.429 . S
C470 H494 0.950 . S
C471 C488 1.574 . S
C471 C490 1.368 . S
C471 H495 0.949 . S
H472 C476 0.949 . S
C473 C474 1.349 . S
C473 C475 1.327 . S
C473 H496 0.950 . S
C474 C473 1.349 . S
C474 C486 1.349 . S
C475 C473 1.327 . S
C475 C491 1.429 . S
C475 H497 0.950 . S
C476 H472 0.949 . S
C476 C484 1.574 . S
C476 C492 1.368 . S
H477 C485 0.950 . S
H478 C483 0.950 . S
H479 C484 0.949 . S
H480 C486 0.950 . S
H481 C487 0.950 . S
H482 C488 0.949 . S
C483 H478 0.950 . S
C483 C485 1.327 . S
C483 C489 1.429 . S
C484 C476 1.574 . S
C484 H479 0.949 . S
C484 C490 1.368 . S
C485 C469 1.349 . S
C485 H477 0.950 . S
C485 C483 1.327 . S
C486 C474 1.349 . S
C486 H480 0.950 . S
C486 C487 1.327 . S
C487 H481 0.950 . S
C487 C486 1.327 . S
C487 C491 1.429 . S
C488 C471 1.574 . S
C488 H482 0.949 . S
C488 C492 1.368 . S
C489 C470 1.429 . S
C489 C483 1.429 . S
C489 C490 1.523 . S
C490 C471 1.368 . S
C490 C484 1.368 . S
C490 C489 1.523 . S
C491 C475 1.429 . S
C491 C487 1.429 . S
C491 C492 1.523 . S
C492 C476 1.368 . S
C492 C488 1.368 . S
C492 C491 1.523 . S
H493 C468 0.950 . S
H494 C470 0.950 . S
H495 C471 0.949 . S
H496 C473 0.950 . S
H497 C475 0.950 . S
C498 C499 1.349 . S
C498 C500 1.327 . S
C498 H523 0.950 . S
C499 C498 1.349 . S
C499 C515 1.349 . S
C500 C498 1.327 . S
C500 C519 1.429 . S
C500 H524 0.950 . S
C501 C518 1.574 1_545 S
C501 C520 1.368 . S
C501 H525 0.949 . S
H502 C506 0.949 . S
C503 C504 1.349 . S
C503 C505 1.327 . S
C503 H526 0.950 . S
C504 C503 1.349 . S
C504 C516 1.349 . S
C505 C503 1.327 . S
C505 C521 1.429 . S
C505 H527 0.950 . S
C506 H502 0.949 . S
C506 C514 1.574 1_565 S
C506 C522 1.368 . S
H507 C515 0.950 . S
H508 C513 0.950 . S
H509 C514 0.949 . S
H510 C516 0.950 . S
H511 C517 0.950 . S
H512 C518 0.949 . S
C513 H508 0.950 . S
C513 C515 1.327 . S
C513 C519 1.429 . S
C514 C506 1.574 1_545 S
C514 H509 0.949 . S
C514 C520 1.368 . S
C515 C499 1.349 . S
C515 H507 0.950 . S
C515 C513 1.327 . S
C516 C504 1.349 . S
C516 H510 0.950 . S
C516 C517 1.327 . S
C517 H511 0.950 . S
C517 C516 1.327 . S
C517 C521 1.429 . S
C518 C501 1.574 1_565 S
C518 H512 0.949 . S
C518 C522 1.368 . S
C519 C500 1.429 . S
C519 C513 1.429 . S
C519 C520 1.523 . S
C520 C501 1.368 . S
C520 C514 1.368 . S
C520 C519 1.523 . S
C521 C505 1.429 . S
C521 C517 1.429 . S
C521 C522 1.523 . S
C522 C506 1.368 . S
C522 C518 1.368 . S
C522 C521 1.523 . S
H523 C498 0.950 . S
H524 C500 0.950 . S
H525 C501 0.949 . S
H526 C503 0.950 . S
H527 C505 0.950 . S
C528 C529 1.349 . S
C528 C530 1.327 . S
C528 H553 0.950 . S
C529 C528 1.349 . S
C529 C545 1.349 . S
C530 C528 1.327 . S
C530 C549 1.429 . S
C530 H554 0.950 . S
C531 C548 1.574 1_655 S
C531 C550 1.368 . S
C531 H555 0.949 . S
H532 C536 0.949 . S
C533 C534 1.349 . S
C533 C535 1.327 . S
C533 H556 0.950 . S
C534 C533 1.349 . S
C534 C546 1.349 . S
C535 C533 1.327 . S
C535 C551 1.429 . S
C535 H557 0.950 . S
C536 H532 0.949 . S
C536 C544 1.574 1_455 S
C536 C552 1.368 . S
H537 C545 0.950 . S
H538 C543 0.950 . S
H539 C544 0.949 . S
H540 C546 0.950 . S
H541 C547 0.950 . S
H542 C548 0.949 . S
C543 H538 0.950 . S
C543 C545 1.327 . S
C543 C549 1.429 . S
C544 C536 1.574 1_655 S
C544 H539 0.949 . S
C544 C550 1.368 . S
C545 C529 1.349 . S
C545 H537 0.950 . S
C545 C543 1.327 . S
C546 C534 1.349 . S
C546 H540 0.950 . S
C546 C547 1.327 . S
C547 H541 0.950 . S
C547 C546 1.327 . S
C547 C551 1.429 . S
C548 C531 1.574 1_455 S
C548 H542 0.949 . S
C548 C552 1.368 . S
C549 C530 1.429 . S
C549 C543 1.429 . S
C549 C550 1.523 . S
C550 C531 1.368 . S
C550 C544 1.368 . S
C550 C549 1.523 . S
C551 C535 1.429 . S
C551 C547 1.429 . S
C551 C552 1.523 . S
C552 C536 1.368 . S
C552 C548 1.368 . S
C552 C551 1.523 . S
H553 C528 0.950 . S
H554 C530 0.950 . S
H555 C531 0.949 . S
H556 C533 0.950 . S
H557 C535 0.950 . S
C558 C559 1.349 . S
C558 C560 1.327 . S
C558 H583 0.950 . S
C559 C558 1.349 . S
C559 C575 1.349 . S
C560 C558 1.327 . S
C560 C579 1.429 . S
C560 H584 0.950 . S
C561 C578 1.574 . S
C561 C580 1.368 . S
C561 H585 0.949 . S
H562 C566 0.949 . S
C563 C564 1.349 . S
C563 C565 1.327 . S
C563 H586 0.950 . S
C564 C563 1.349 . S
C564 C576 1.349 . S
C565 C563 1.327 . S
C565 C581 1.429 . S
C565 H587 0.950 . S
C566 H562 0.949 . S
C566 C574 1.574 . S
C566 C582 1.368 . S
H567 C575 0.950 . S
H568 C573 0.950 . S
H569 C574 0.949 . S
H570 C576 0.950 . S
H571 C577 0.950 . S
H572 C578 0.949 . S
C573 H568 0.950 . S
C573 C575 1.327 . S
C573 C579 1.429 . S
C574 C566 1.574 . S
C574 H569 0.949 . S
C574 C580 1.368 . S
C575 C559 1.349 . S
C575 H567 0.950 . S
C575 C573 1.327 . S
C576 C564 1.349 . S
C576 H570 0.950 . S
C576 C577 1.327 . S
C577 H571 0.950 . S
C577 C576 1.327 . S
C577 C581 1.429 . S
C578 C561 1.574 . S
C578 H572 0.949 . S
C578 C582 1.368 . S
C579 C560 1.429 . S
C579 C573 1.429 . S
C579 C580 1.523 . S
C580 C561 1.368 . S
C580 C574 1.368 . S
C580 C579 1.523 . S
C581 C565 1.429 . S
C581 C577 1.429 . S
C581 C582 1.523 . S
C582 C566 1.368 . S
C582 C578 1.368 . S
C582 C581 1.523 . S
H583 C558 0.950 . S
H584 C560 0.950 . S
H585 C561 0.949 . S
H586 C563 0.950 . S
H587 C565 0.950 . S
C588 C589 1.349 . S
C588 C590 1.327 . S
C588 H613 0.950 . S
C589 C588 1.349 . S
C589 C605 1.349 . S
C590 C588 1.327 . S
C590 C609 1.429 . S
C590 H614 0.950 . S
C591 C608 1.574 1_545 S
C591 C610 1.368 . S
C591 H615 0.949 . S
H592 C596 0.949 . S
C593 C594 1.349 . S
C593 C595 1.327 . S
C593 H616 0.950 . S
C594 C593 1.349 . S
C594 C606 1.349 . S
C595 C593 1.327 . S
C595 C611 1.429 . S
C595 H617 0.950 . S
C596 H592 0.949 . S
C596 C604 1.574 1_565 S
C596 C612 1.368 . S
H597 C605 0.950 . S
H598 C603 0.950 . S
H599 C604 0.949 . S
H600 C606 0.950 . S
H601 C607 0.950 . S
H602 C608 0.949 . S
C603 H598 0.950 . S
C603 C605 1.327 . S
C603 C609 1.429 . S
C604 C596 1.574 1_545 S
C604 H599 0.949 . S
C604 C610 1.368 . S
C605 C589 1.349 . S
C605 H597 0.950 . S
C605 C603 1.327 . S
C606 C594 1.349 . S
C606 H600 0.950 . S
C606 C607 1.327 . S
C607 H601 0.950 . S
C607 C606 1.327 . S
C607 C611 1.429 . S
C608 C591 1.574 1_565 S
C608 H602 0.949 . S
C608 C612 1.368 . S
C609 C590 1.429 . S
C609 C603 1.429 . S
C609 C610 1.523 . S
C610 C591 1.368 . S
C610 C604 1.368 . S
C610 C609 1.523 . S
C611 C595 1.429 . S
C611 C607 1.429 . S
C611 C612 1.523 . S
C612 C596 1.368 . S
C612 C608 1.368 . S
C612 C611 1.523 . S
H613 C588 0.950 . S
H614 C590 0.950 . S
H615 C591 0.949 . S
H616 C593 0.950 . S
H617 C595 0.950 . S
C618 C619 1.349 . S
C618 C620 1.327 . S
C618 H643 0.950 . S
C619 C618 1.349 . S
C619 C635 1.349 . S
C620 C618 1.327 . S
C620 C639 1.429 . S
C620 H644 0.950 . S
C621 C638 1.574 1_455 S
C621 C640 1.368 . S
C621 H645 0.949 . S
H622 C626 0.949 . S
C623 C624 1.349 . S
C623 C625 1.327 . S
C623 H646 0.950 . S
C624 C623 1.349 . S
C624 C636 1.349 . S
C625 C623 1.327 . S
C625 C641 1.429 . S
C625 H647 0.950 . S
C626 H622 0.949 . S
C626 C634 1.574 1_655 S
C626 C642 1.368 . S
H627 C635 0.950 . S
H628 C633 0.950 . S
H629 C634 0.949 . S
H630 C636 0.950 . S
H631 C637 0.950 . S
H632 C638 0.949 . S
C633 H628 0.950 . S
C633 C635 1.327 . S
C633 C639 1.429 . S
C634 C626 1.574 1_455 S
C634 H629 0.949 . S
C634 C640 1.368 . S
C635 C619 1.349 . S
C635 H627 0.950 . S
C635 C633 1.327 . S
C636 C624 1.349 . S
C636 H630 0.950 . S
C636 C637 1.327 . S
C637 H631 0.950 . S
C637 C636 1.327 . S
C637 C641 1.429 . S
C638 C621 1.574 1_655 S
C638 H632 0.949 . S
C638 C642 1.368 . S
C639 C620 1.429 . S
C639 C633 1.429 . S
C639 C640 1.523 . S
C640 C621 1.368 . S
C640 C634 1.368 . S
C640 C639 1.523 . S
C641 C625 1.429 . S
C641 C637 1.429 . S
C641 C642 1.523 . S
C642 C626 1.368 . S
C642 C638 1.368 . S
C642 C641 1.523 . S
H643 C618 0.950 . S
H644 C620 0.950 . S
H645 C621 0.949 . S
H646 C623 0.950 . S
H647 C625 0.950 . S
C648 C649 1.349 . S
C648 C650 1.327 . S
C648 H673 0.950 . S
C649 C648 1.349 . S
C649 C665 1.349 . S
C650 C648 1.327 . S
C650 C669 1.429 . S
C650 H674 0.950 . S
C651 C668 1.574 . S
C651 C670 1.368 . S
C651 H675 0.949 . S
H652 C656 0.949 . S
C653 C654 1.349 . S
C653 C655 1.327 . S
C653 H676 0.950 . S
C654 C653 1.349 . S
C654 C666 1.349 . S
C655 C653 1.327 . S
C655 C671 1.429 . S
C655 H677 0.950 . S
C656 H652 0.949 . S
C656 C664 1.574 . S
C656 C672 1.368 . S
H657 C665 0.950 . S
H658 C663 0.950 . S
H659 C664 0.949 . S
H660 C666 0.950 . S
H661 C667 0.950 . S
H662 C668 0.949 . S
C663 H658 0.950 . S
C663 C665 1.327 . S
C663 C669 1.429 . S
C664 C656 1.574 . S
C664 H659 0.949 . S
C664 C670 1.368 . S
C665 C649 1.349 . S
C665 H657 0.950 . S
C665 C663 1.327 . S
C666 C654 1.349 . S
C666 H660 0.950 . S
C666 C667 1.327 . S
C667 H661 0.950 . S
C667 C666 1.327 . S
C667 C671 1.429 . S
C668 C651 1.574 . S
C668 H662 0.949 . S
C668 C672 1.368 . S
C669 C650 1.429 . S
C669 C663 1.429 . S
C669 C670 1.523 . S
C670 C651 1.368 . S
C670 C664 1.368 . S
C670 C669 1.523 . S
C671 C655 1.429 . S
C671 C667 1.429 . S
C671 C672 1.523 . S
C672 C656 1.368 . S
C672 C668 1.368 . S
C672 C671 1.523 . S
H673 C648 0.950 . S
H674 C650 0.950 . S
H675 C651 0.949 . S
H676 C653 0.950 . S
H677 C655 0.950 . S
C678 C679 1.349 . S
C678 C680 1.327 . S
C678 H703 0.950 . S
C679 C678 1.349 . S
C679 C695 1.349 . S
C680 C678 1.327 . S
C680 C699 1.429 . S
C680 H704 0.950 . S
C681 C698 1.574 . S
C681 C700 1.368 . S
C681 H705 0.949 . S
H682 C686 0.949 . S
C683 C684 1.349 . S
C683 C685 1.327 . S
C683 H706 0.950 . S
C684 C683 1.349 . S
C684 C696 1.349 . S
C685 C683 1.327 . S
C685 C701 1.429 . S
C685 H707 0.950 . S
C686 H682 0.949 . S
C686 C694 1.574 . S
C686 C702 1.368 . S
H687 C695 0.950 . S
H688 C693 0.950 . S
H689 C694 0.949 . S
H690 C696 0.950 . S
H691 C697 0.950 . S
H692 C698 0.949 . S
C693 H688 0.950 . S
C693 C695 1.327 . S
C693 C699 1.429 . S
C694 C686 1.574 . S
C694 H689 0.949 . S
C694 C700 1.368 . S
C695 C679 1.349 . S
C695 H687 0.950 . S
C695 C693 1.327 . S
C696 C684 1.349 . S
C696 H690 0.950 . S
C696 C697 1.327 . S
C697 H691 0.950 . S
C697 C696 1.327 . S
C697 C701 1.429 . S
C698 C681 1.574 . S
C698 H692 0.949 . S
C698 C702 1.368 . S
C699 C680 1.429 . S
C699 C693 1.429 . S
C699 C700 1.523 . S
C700 C681 1.368 . S
C700 C694 1.368 . S
C700 C699 1.523 . S
C701 C685 1.429 . S
C701 C697 1.429 . S
C701 C702 1.523 . S
C702 C686 1.368 . S
C702 C698 1.368 . S
C702 C701 1.523 . S
H703 C678 0.950 . S
H704 C680 0.950 . S
H705 C681 0.949 . S
H706 C683 0.950 . S
H707 C685 0.950 . S
C708 C709 1.349 . S
C708 C710 1.327 . S
C708 H733 0.950 . S
C709 C708 1.349 . S
C709 C725 1.349 . S
C710 C708 1.327 . S
C710 C729 1.429 . S
C710 H734 0.950 . S
C711 C728 1.574 . S
C711 C730 1.368 . S
C711 H735 0.949 . S
H712 C716 0.949 . S
C713 C714 1.349 . S
C713 C715 1.327 . S
C713 H736 0.950 . S
C714 C713 1.349 . S
C714 C726 1.349 . S
C715 C713 1.327 . S
C715 C731 1.429 . S
C715 H737 0.950 . S
C716 H712 0.949 . S
C716 C724 1.574 . S
C716 C732 1.368 . S
H717 C725 0.950 . S
H718 C723 0.950 . S
H719 C724 0.949 . S
H720 C726 0.950 . S
H721 C727 0.950 . S
H722 C728 0.949 . S
C723 H718 0.950 . S
C723 C725 1.327 . S
C723 C729 1.429 . S
C724 C716 1.574 . S
C724 H719 0.949 . S
C724 C730 1.368 . S
C725 C709 1.349 . S
C725 H717 0.950 . S
C725 C723 1.327 . S
C726 C714 1.349 . S
C726 H720 0.950 . S
C726 C727 1.327 . S
C727 H721 0.950 . S
C727 C726 1.327 . S
C727 C731 1.429 . S
C728 C711 1.574 . S
C728 H722 0.949 . S
C728 C732 1.368 . S
C729 C710 1.429 . S
C729 C723 1.429 . S
C729 C730 1.523 . S
C730 C711 1.368 . S
C730 C724 1.368 . S
C730 C729 1.523 . S
C731 C715 1.429 . S
C731 C727 1.429 . S
C731 C732 1.523 . S
C732 C716 1.368 . S
C732 C728 1.368 . S
C732 C731 1.523 . S
H733 C708 0.950 . S
H734 C710 0.950 . S
H735 C711 0.949 . S
H736 C713 0.950 . S
H737 C715 0.950 . S
C738 C739 1.349 . S
C738 C740 1.327 . S
C738 H763 0.950 . S
C739 C738 1.349 . S
C739 C755 1.349 . S
C740 C738 1.327 . S
C740 C759 1.429 . S
C740 H764 0.950 . S
C741 C758 1.574 . S
C741 C760 1.368 . S
C741 H765 0.949 . S
H742 C746 0.949 . S
C743 C744 1.349 . S
C743 C745 1.327 . S
C743 H766 0.950 . S
C744 C743 1.349 . S
C744 C756 1.349 . S
C745 C743 1.327 . S
C745 C761 1.429 . S
C745 H767 0.950 . S
C746 H742 0.949 . S
C746 C754 1.574 . S
C746 C762 1.368 . S
H747 C755 0.950 . S
H748 C753 0.950 . S
H749 C754 0.949 . S
H750 C756 0.950 . S
H751 C757 0.950 . S
H752 C758 0.949 . S
C753 H748 0.950 . S
C753 C755 1.327 . S
C753 C759 1.429 . S
C754 C746 1.574 . S
C754 H749 0.949 . S
C754 C760 1.368 . S
C755 C739 1.349 . S
C755 H747 0.950 . S
C755 C753 1.327 . S
C756 C744 1.349 . S
C756 H750 0.950 . S
C756 C757 1.327 . S
C757 H751 0.950 . S
C757 C756 1.327 . S
C757 C761 1.429 . S
C758 C741 1.574 . S
C758 H752 0.949 . S
C758 C762 1.368 . S
C759 C740 1.429 . S
C759 C753 1.429 . S
C759 C760 1.523 . S
C760 C741 1.368 . S
C760 C754 1.368 . S
C760 C759 1.523 . S
C761 C745 1.429 . S
C761 C757 1.429 . S
C761 C762 1.523 . S
C762 C746 1.368 . S
C762 C758 1.368 . S
C762 C761 1.523 . S
H763 C738 0.950 . S
H764 C740 0.950 . S
H765 C741 0.949 . S
H766 C743 0.950 . S
H767 C745 0.950 . S
C768 C769 1.349 . S
C768 C770 1.327 . S
C768 H793 0.950 . S
C769 C768 1.349 . S
C769 C785 1.349 . S
C770 C768 1.327 . S
C770 C789 1.429 . S
C770 H794 0.950 . S
C771 C788 1.574 . S
C771 C790 1.368 . S
C771 H795 0.949 . S
H772 C776 0.949 . S
C773 C774 1.349 . S
C773 C775 1.327 . S
C773 H796 0.950 . S
C774 C773 1.349 . S
C774 C786 1.349 . S
C775 C773 1.327 . S
C775 C791 1.429 . S
C775 H797 0.950 . S
C776 H772 0.949 . S
C776 C784 1.574 . S
C776 C792 1.368 . S
H777 C785 0.950 . S
H778 C783 0.950 . S
H779 C784 0.949 . S
H780 C786 0.950 . S
H781 C787 0.950 . S
H782 C788 0.949 . S
C783 H778 0.950 . S
C783 C785 1.327 . S
C783 C789 1.429 . S
C784 C776 1.574 . S
C784 H779 0.949 . S
C784 C790 1.368 . S
C785 C769 1.349 . S
C785 H777 0.950 . S
C785 C783 1.327 . S
C786 C774 1.349 . S
C786 H780 0.950 . S
C786 C787 1.327 . S
C787 H781 0.950 . S
C787 C786 1.327 . S
C787 C791 1.429 . S
C788 C771 1.574 . S
C788 H782 0.949 . S
C788 C792 1.368 . S
C789 C770 1.429 . S
C789 C783 1.429 . S
C789 C790 1.523 . S
C790 C771 1.368 . S
C790 C784 1.368 . S
C790 C789 1.523 . S
C791 C775 1.429 . S
C791 C787 1.429 . S
C791 C792 1.523 . S
C792 C776 1.368 . S
C792 C788 1.368 . S
C792 C791 1.523 . S
H793 C768 0.950 . S
H794 C770 0.950 . S
H795 C771 0.949 . S
H796 C773 0.950 . S
H797 C775 0.950 . S
C798 C799 1.349 . S
C798 C800 1.327 . S
C798 H823 0.950 . S
C799 C798 1.349 . S
C799 C815 1.349 . S
C800 C798 1.327 . S
C800 C819 1.429 . S
C800 H824 0.950 . S
C801 C818 1.574 . S
C801 C820 1.368 . S
C801 H825 0.949 . S
H802 C806 0.949 . S
C803 C804 1.349 . S
C803 C805 1.327 . S
C803 H826 0.950 . S
C804 C803 1.349 . S
C804 C816 1.349 . S
C805 C803 1.327 . S
C805 C821 1.429 . S
C805 H827 0.950 . S
C806 H802 0.949 . S
C806 C814 1.574 . S
C806 C822 1.368 . S
H807 C815 0.950 . S
H808 C813 0.950 . S
H809 C814 0.949 . S
H810 C816 0.950 . S
H811 C817 0.950 . S
H812 C818 0.949 . S
C813 H808 0.950 . S
C813 C815 1.327 . S
C813 C819 1.429 . S
C814 C806 1.574 . S
C814 H809 0.949 . S
C814 C820 1.368 . S
C815 C799 1.349 . S
C815 H807 0.950 . S
C815 C813 1.327 . S
C816 C804 1.349 . S
C816 H810 0.950 . S
C816 C817 1.327 . S
C817 H811 0.950 . S
C817 C816 1.327 . S
C817 C821 1.429 . S
C818 C801 1.574 . S
C818 H812 0.949 . S
C818 C822 1.368 . S
C819 C800 1.429 . S
C819 C813 1.429 . S
C819 C820 1.523 . S
C820 C801 1.368 . S
C820 C814 1.368 . S
C820 C819 1.523 . S
C821 C805 1.429 . S
C821 C817 1.429 . S
C821 C822 1.523 . S
C822 C806 1.368 . S
C822 C818 1.368 . S
C822 C821 1.523 . S
H823 C798 0.950 . S
H824 C800 0.950 . S
H825 C801 0.949 . S
H826 C803 0.950 . S
H827 C805 0.950 . S
C828 C829 1.349 . S
C828 C830 1.327 . S
C828 H853 0.950 . S
C829 C828 1.349 . S
C829 C845 1.349 . S
C830 C828 1.327 . S
C830 C849 1.429 . S
C830 H854 0.950 . S
C831 C848 1.574 . S
C831 C850 1.368 . S
C831 H855 0.949 . S
H832 C836 0.949 . S
C833 C834 1.349 . S
C833 C835 1.327 . S
C833 H856 0.950 . S
C834 C833 1.349 . S
C834 C846 1.349 . S
C835 C833 1.327 . S
C835 C851 1.429 . S
C835 H857 0.950 . S
C836 H832 0.949 . S
C836 C844 1.574 . S
C836 C852 1.368 . S
H837 C845 0.950 . S
H838 C843 0.950 . S
H839 C844 0.949 . S
H840 C846 0.950 . S
H841 C847 0.950 . S
H842 C848 0.949 . S
C843 H838 0.950 . S
C843 C845 1.327 . S
C843 C849 1.429 . S
C844 C836 1.574 . S
C844 H839 0.949 . S
C844 C850 1.368 . S
C845 C829 1.349 . S
C845 H837 0.950 . S
C845 C843 1.327 . S
C846 C834 1.349 . S
C846 H840 0.950 . S
C846 C847 1.327 . S
C847 H841 0.950 . S
C847 C846 1.327 . S
C847 C851 1.429 . S
C848 C831 1.574 . S
C848 H842 0.949 . S
C848 C852 1.368 . S
C849 C830 1.429 . S
C849 C843 1.429 . S
C849 C850 1.523 . S
C850 C831 1.368 . S
C850 C844 1.368 . S
C850 C849 1.523 . S
C851 C835 1.429 . S
C851 C847 1.429 . S
C851 C852 1.523 . S
C852 C836 1.368 . S
C852 C848 1.368 . S
C852 C851 1.523 . S
H853 C828 0.950 . S
H854 C830 0.950 . S
H855 C831 0.949 . S
H856 C833 0.950 . S
H857 C835 0.950 . S
C858 C859 1.349 . S
C858 C860 1.327 . S
C858 H883 0.950 . S
C859 C858 1.349 . S
C859 C875 1.349 . S
C860 C858 1.327 . S
C860 C879 1.429 . S
C860 H884 0.950 . S
C861 C878 1.574 . S
C861 C880 1.368 . S
C861 H885 0.949 . S
H862 C866 0.949 . S
C863 C864 1.349 . S
C863 C865 1.327 . S
C863 H886 0.950 . S
C864 C863 1.349 . S
C864 C876 1.349 . S
C865 C863 1.327 . S
C865 C881 1.429 . S
C865 H887 0.950 . S
C866 H862 0.949 . S
C866 C874 1.574 . S
C866 C882 1.368 . S
H867 C875 0.950 . S
H868 C873 0.950 . S
H869 C874 0.949 . S
H870 C876 0.950 1_554 S
H871 C877 0.950 . S
H872 C878 0.949 . S
C873 H868 0.950 . S
C873 C875 1.327 . S
C873 C879 1.429 . S
C874 C866 1.574 . S
C874 H869 0.949 . S
C874 C880 1.368 . S
C875 C859 1.349 . S
C875 H867 0.950 . S
C875 C873 1.327 . S
C876 C864 1.349 . S
C876 H870 0.950 1_556 S
C876 C877 1.327 . S
C877 H871 0.950 . S
C877 C876 1.327 . S
C877 C881 1.429 . S
C878 C861 1.574 . S
C878 H872 0.949 . S
C878 C882 1.368 . S
C879 C860 1.429 . S
C879 C873 1.429 . S
C879 C880 1.523 . S
C880 C861 1.368 . S
C880 C874 1.368 . S
C880 C879 1.523 . S
C881 C865 1.429 . S
C881 C877 1.429 . S
C881 C882 1.523 . S
C882 C866 1.368 . S
C882 C878 1.368 . S
C882 C881 1.523 . S
H883 C858 0.950 . S
H884 C860 0.950 . S
H885 C861 0.949 . S
H886 C863 0.950 . S
H887 C865 0.950 . S
C888 C889 1.349 . S
C888 C890 1.327 . S
C888 H913 0.950 1_556 S
C889 C888 1.349 . S
C889 C905 1.349 . S
C890 C888 1.327 . S
C890 C909 1.429 . S
C890 H914 0.950 . S
C891 C908 1.574 . S
C891 C910 1.368 . S
C891 H915 0.949 . S
H892 C896 0.949 . S
C893 C894 1.349 . S
C893 C895 1.327 . S
C893 H916 0.950 . S
C894 C893 1.349 . S
C894 C906 1.349 . S
C895 C893 1.327 . S
C895 C911 1.429 . S
C895 H917 0.950 . S
C896 H892 0.949 . S
C896 C904 1.574 . S
C896 C912 1.368 . S
H897 C905 0.950 . S
H898 C903 0.950 . S
H899 C904 0.949 . S
H900 C906 0.950 . S
H901 C907 0.950 . S
H902 C908 0.949 . S
C903 H898 0.950 . S
C903 C905 1.327 . S
C903 C909 1.429 . S
C904 C896 1.574 . S
C904 H899 0.949 . S
C904 C910 1.368 . S
C905 C889 1.349 . S
C905 H897 0.950 . S
C905 C903 1.327 . S
C906 C894 1.349 . S
C906 H900 0.950 . S
C906 C907 1.327 . S
C907 H901 0.950 . S
C907 C906 1.327 . S
C907 C911 1.429 . S
C908 C891 1.574 . S
C908 H902 0.949 . S
C908 C912 1.368 . S
C909 C890 1.429 . S
C909 C903 1.429 . S
C909 C910 1.523 . S
C910 C891 1.368 . S
C910 C904 1.368 . S
C910 C909 1.523 . S
C911 C895 1.429 . S
C911 C907 1.429 . S
C911 C912 1.523 . S
C912 C896 1.368 . S
C912 C908 1.368 . S
C912 C911 1.523 . S
H913 C888 0.950 1_554 S
H914 C890 0.950 . S
H915 C891 0.949 . S
H916 C893 0.950 . S
H917 C895 0.950 . S
C918 C919 1.349 . S
C918 C920 1.327 . S
C918 H943 0.950 . S
C919 C918 1.349 . S
C919 C935 1.349 . S
C920 C918 1.327 . S
C920 C939 1.429 . S
C920 H944 0.950 . S
C921 C938 1.574 . S
C921 C940 1.368 . S
C921 H945 0.949 . S
H922 C926 0.949 . S
C923 C924 1.349 . S
C923 C925 1.327 . S
C923 H946 0.950 . S
C924 C923 1.349 . S
C924 C936 1.349 . S
C925 C923 1.327 . S
C925 C941 1.429 . S
C925 H947 0.950 . S
C926 H922 0.949 . S
C926 C934 1.574 . S
C926 C942 1.368 . S
H927 C935 0.950 . S
H928 C933 0.950 . S
H929 C934 0.949 . S
H930 C936 0.950 . S
H931 C937 0.950 . S
H932 C938 0.949 . S
C933 H928 0.950 . S
C933 C935 1.327 . S
C933 C939 1.429 . S
C934 C926 1.574 . S
C934 H929 0.949 . S
C934 C940 1.368 . S
C935 C919 1.349 . S
C935 H927 0.950 . S
C935 C933 1.327 . S
C936 C924 1.349 . S
C936 H930 0.950 . S
C936 C937 1.327 . S
C937 H931 0.950 . S
C937 C936 1.327 . S
C937 C941 1.429 . S
C938 C921 1.574 . S
C938 H932 0.949 . S
C938 C942 1.368 . S
C939 C920 1.429 . S
C939 C933 1.429 . S
C939 C940 1.523 . S
C940 C921 1.368 . S
C940 C934 1.368 . S
C940 C939 1.523 . S
C941 C925 1.429 . S
C941 C937 1.429 . S
C941 C942 1.523 . S
C942 C926 1.368 . S
C942 C938 1.368 . S
C942 C941 1.523 . S
H943 C918 0.950 . S
H944 C920 0.950 . S
H945 C921 0.949 . S
H946 C923 0.950 . S
H947 C925 0.950 . S
C948 C949 1.349 . S
C948 C950 1.327 . S
C948 H973 0.950 . S
C949 C948 1.349 . S
C949 C965 1.349 . S
C950 C948 1.327 . S
C950 C969 1.429 . S
C950 H974 0.950 . S
C951 C968 1.574 . S
C951 C970 1.368 . S
C951 H975 0.949 . S
H952 C956 0.949 . S
C953 C954 1.349 . S
C953 C955 1.327 . S
C953 H976 0.950 . S
C954 C953 1.349 . S
C954 C966 1.349 . S
C955 C953 1.327 . S
C955 C971 1.429 . S
C955 H977 0.950 . S
C956 H952 0.949 . S
C956 C964 1.574 . S
C956 C972 1.368 . S
H957 C965 0.950 . S
H958 C963 0.950 . S
H959 C964 0.949 . S
H960 C966 0.950 . S
H961 C967 0.950 . S
H962 C968 0.949 . S
C963 H958 0.950 . S
C963 C965 1.327 . S
C963 C969 1.429 . S
C964 C956 1.574 . S
C964 H959 0.949 . S
C964 C970 1.368 . S
C965 C949 1.349 . S
C965 H957 0.950 . S
C965 C963 1.327 . S
C966 C954 1.349 . S
C966 H960 0.950 . S
C966 C967 1.327 . S
C967 H961 0.950 . S
C967 C966 1.327 . S
C967 C971 1.429 . S
C968 C951 1.574 . S
C968 H962 0.949 . S
C968 C972 1.368 . S
C969 C950 1.429 . S
C969 C963 1.429 . S
C969 C970 1.523 . S
C970 C951 1.368 . S
C970 C964 1.368 . S
C970 C969 1.523 . S
C971 C955 1.429 . S
C971 C967 1.429 . S
C971 C972 1.523 . S
C972 C956 1.368 . S
C972 C968 1.368 . S
C972 C971 1.523 . S
H973 C948 0.950 . S
H974 C950 0.950 . S
H975 C951 0.949 . S
H976 C953 0.950 . S
H977 C955 0.950 . S
C978 C979 1.349 . S
C978 C980 1.327 . S
C978 H1003 0.950 . S
C979 C978 1.349 . S
C979 C995 1.349 . S
C980 C978 1.327 . S
C980 C999 1.429 . S
C980 H1004 0.950 . S
C981 C998 1.574 . S
C981 C1000 1.368 . S
C981 H1005 0.949 . S
H982 C986 0.949 . S
C983 C984 1.349 . S
C983 C985 1.327 . S
C983 H1006 0.950 . S
C984 C983 1.349 . S
C984 C996 1.349 . S
C985 C983 1.327 . S
C985 C1001 1.429 . S
C985 H1007 0.950 . S
C986 H982 0.949 . S
C986 C994 1.574 . S
C986 C1002 1.368 . S
H987 C995 0.950 . S
H988 C993 0.950 . S
H989 C994 0.949 . S
H990 C996 0.950 . S
H991 C997 0.950 . S
H992 C998 0.949 . S
C993 H988 0.950 . S
C993 C995 1.327 . S
C993 C999 1.429 . S
C994 C986 1.574 . S
C994 H989 0.949 . S
C994 C1000 1.368 . S
C995 C979 1.349 . S
C995 H987 0.950 . S
C995 C993 1.327 . S
C996 C984 1.349 . S
C996 H990 0.950 . S
C996 C997 1.327 . S
C997 H991 0.950 . S
C997 C996 1.327 . S
C997 C1001 1.429 . S
C998 C981 1.574 . S
C998 H992 0.949 . S
C998 C1002 1.368 . S
C999 C980 1.429 . S
C999 C993 1.429 . S
C999 C1000 1.523 . S
C1000 C981 1.368 . S
C1000 C994 1.368 . S
C1000 C999 1.523 . S
C1001 C985 1.429 . S
C1001 C997 1.429 . S
C1001 C1002 1.523 . S
C1002 C986 1.368 . S
C1002 C998 1.368 . S
C1002 C1001 1.523 . S
H1003 C978 0.950 . S
H1004 C980 0.950 . S
H1005 C981 0.949 . S
H1006 C983 0.950 . S
H1007 C985 0.950 . S
C1008 C1009 1.349 . S
C1008 C1010 1.327 . S
C1008 H1033 0.950 . S
C1009 C1008 1.349 . S
C1009 C1025 1.349 . S
C1010 C1008 1.327 . S
C1010 C1029 1.429 . S
C1010 H1034 0.950 . S
C1011 C1028 1.574 . S
C1011 C1030 1.368 . S
C1011 H1035 0.949 . S
H1012 C1016 0.949 . S
C1013 C1014 1.349 . S
C1013 C1015 1.327 1_554 S
C1013 H1036 0.950 . S
C1014 C1013 1.349 . S
C1014 C1026 1.349 . S
C1015 C1013 1.327 1_556 S
C1015 C1031 1.429 . S
C1015 H1037 0.950 . S
C1016 H1012 0.949 . S
C1016 C1024 1.574 . S
C1016 C1032 1.368 . S
H1017 C1025 0.950 . S
H1018 C1023 0.950 . S
H1019 C1024 0.949 . S
H1020 C1026 0.950 . S
H1021 C1027 0.950 . S
H1022 C1028 0.949 . S
C1023 H1018 0.950 . S
C1023 C1025 1.327 . S
C1023 C1029 1.429 . S
C1024 C1016 1.574 . S
C1024 H1019 0.949 . S
C1024 C1030 1.368 . S
C1025 C1009 1.349 . S
C1025 H1017 0.950 . S
C1025 C1023 1.327 . S
C1026 C1014 1.349 . S
C1026 H1020 0.950 . S
C1026 C1027 1.327 . S
C1027 H1021 0.950 . S
C1027 C1026 1.327 . S
C1027 C1031 1.429 1_554 S
C1028 C1011 1.574 . S
C1028 H1022 0.949 . S
C1028 C1032 1.368 . S
C1029 C1010 1.429 . S
C1029 C1023 1.429 . S
C1029 C1030 1.523 . S
C1030 C1011 1.368 . S
C1030 C1024 1.368 . S
C1030 C1029 1.523 . S
C1031 C1015 1.429 . S
C1031 C1027 1.429 1_556 S
C1031 C1032 1.523 . S
C1032 C1016 1.368 . S
C1032 C1028 1.368 . S
C1032 C1031 1.523 . S
H1033 C1008 0.950 . S
H1034 C1010 0.950 . S
H1035 C1011 0.949 . S
H1036 C1013 0.950 . S
H1037 C1015 0.950 . S
C1038 C1039 1.349 . S
C1038 C1040 1.327 1_554 S
C1038 H1063 0.950 . S
C1039 C1038 1.349 . S
C1039 C1055 1.349 . S
C1040 C1038 1.327 1_556 S
C1040 C1059 1.429 . S
C1040 H1064 0.950 . S
C1041 C1058 1.574 . S
C1041 C1060 1.368 . S
C1041 H1065 0.949 . S
H1042 C1046 0.949 . S
C1043 C1044 1.349 . S
C1043 C1045 1.327 . S
C1043 H1066 0.950 . S
C1044 C1043 1.349 . S
C1044 C1056 1.349 . S
C1045 C1043 1.327 . S
C1045 C1061 1.429 . S
C1045 H1067 0.950 . S
C1046 H1042 0.949 . S
C1046 C1054 1.574 . S
C1046 C1062 1.368 . S
H1047 C1055 0.950 . S
H1048 C1053 0.950 . S
H1049 C1054 0.949 . S
H1050 C1056 0.950 . S
H1051 C1057 0.950 . S
H1052 C1058 0.949 . S
C1053 H1048 0.950 . S
C1053 C1055 1.327 1_556 S
C1053 C1059 1.429 . S
C1054 C1046 1.574 . S
C1054 H1049 0.949 . S
C1054 C1060 1.368 . S
C1055 C1039 1.349 . S
C1055 H1047 0.950 . S
C1055 C1053 1.327 1_554 S
C1056 C1044 1.349 . S
C1056 H1050 0.950 . S
C1056 C1057 1.327 . S
C1057 H1051 0.950 . S
C1057 C1056 1.327 . S
C1057 C1061 1.429 . S
C1058 C1041 1.574 . S
C1058 H1052 0.949 . S
C1058 C1062 1.368 . S
C1059 C1040 1.429 . S
C1059 C1053 1.429 . S
C1059 C1060 1.523 . S
C1060 C1041 1.368 . S
C1060 C1054 1.368 . S
C1060 C1059 1.523 . S
C1061 C1045 1.429 . S
C1061 C1057 1.429 . S
C1061 C1062 1.523 . S
C1062 C1046 1.368 . S
C1062 C1058 1.368 . S
C1062 C1061 1.523 . S
H1063 C1038 0.950 . S
H1064 C1040 0.950 . S
H1065 C1041 0.949 . S
H1066 C1043 0.950 . S
H1067 C1045 0.950 . S
C1068 C1069 1.349 . S
C1068 C1070 1.327 1_554 S
C1068 H1093 0.950 . S
C1069 C1068 1.349 . S
C1069 C1085 1.349 . S
C1070 C1068 1.327 1_556 S
C1070 C1089 1.429 . S
C1070 H1094 0.950 . S
C1071 C1088 1.574 . S
C1071 C1090 1.368 . S
C1071 H1095 0.949 . S
H1072 C1076 0.949 . S
C1073 C1074 1.349 . S
C1073 C1075 1.327 . S
C1073 H1096 0.950 . S
C1074 C1073 1.349 . S
C1074 C1086 1.349 . S
C1075 C1073 1.327 . S
C1075 C1091 1.429 . S
C1075 H1097 0.950 . S
C1076 H1072 0.949 . S
C1076 C1084 1.574 . S
C1076 C1092 1.368 . S
H1077 C1085 0.950 . S
H1078 C1083 0.950 . S
H1079 C1084 0.949 . S
H1080 C1086 0.950 . S
H1081 C1087 0.950 . S
H1082 C1088 0.949 . S
C1083 H1078 0.950 . S
C1083 C1085 1.327 . S
C1083 C1089 1.429 1_554 S
C1084 C1076 1.574 . S
C1084 H1079 0.949 . S
C1084 C1090 1.368 . S
C1085 C1069 1.349 . S
C1085 H1077 0.950 . S
C1085 C1083 1.327 . S
C1086 C1074 1.349 . S
C1086 H1080 0.950 . S
C1086 C1087 1.327 . S
C1087 H1081 0.950 . S
C1087 C1086 1.327 . S
C1087 C1091 1.429 . S
C1088 C1071 1.574 . S
C1088 H1082 0.949 . S
C1088 C1092 1.368 . S
C1089 C1070 1.429 . S
C1089 C1083 1.429 1_556 S
C1089 C1090 1.523 . S
C1090 C1071 1.368 . S
C1090 C1084 1.368 . S
C1090 C1089 1.523 . S
C1091 C1075 1.429 . S
C1091 C1087 1.429 . S
C1091 C1092 1.523 . S
C1092 C1076 1.368 . S
C1092 C1088 1.368 . S
C1092 C1091 1.523 . S
H1093 C1068 0.950 . S
H1094 C1070 0.950 . S
H1095 C1071 0.949 . S
H1096 C1073 0.950 . S
H1097 C1075 0.950 . S
C1098 C1099 1.349 . S
C1098 C1100 1.327 . S
C1098 H1123 0.950 . S
C1099 C1098 1.349 . S
C1099 C1115 1.349 . S
C1100 C1098 1.327 . S
C1100 C1119 1.429 . S
C1100 H1124 0.950 . S
C1101 C1118 1.574 . S
C1101 C1120 1.368 . S
C1101 H1125 0.949 . S
H1102 C1106 0.949 . S
C1103 C1104 1.349 . S
C1103 C1105 1.327 . S
C1103 H1126 0.950 . S
C1104 C1103 1.349 . S
C1104 C1116 1.349 . S
C1105 C1103 1.327 . S
C1105 C1121 1.429 . S
C1105 H1127 0.950 . S
C1106 H1102 0.949 . S
C1106 C1114 1.574 . S
C1106 C1122 1.368 . S
H1107 C1115 0.950 . S
H1108 C1113 0.950 . S
H1109 C1114 0.949 . S
H1110 C1116 0.950 . S
H1111 C1117 0.950 . S
H1112 C1118 0.949 . S
C1113 H1108 0.950 . S
C1113 C1115 1.327 . S
C1113 C1119 1.429 . S
C1114 C1106 1.574 . S
C1114 H1109 0.949 . S
C1114 C1120 1.368 . S
C1115 C1099 1.349 . S
C1115 H1107 0.950 . S
C1115 C1113 1.327 . S
C1116 C1104 1.349 . S
C1116 H1110 0.950 . S
C1116 C1117 1.327 . S
C1117 H1111 0.950 . S
C1117 C1116 1.327 . S
C1117 C1121 1.429 . S
C1118 C1101 1.574 . S
C1118 H1112 0.949 . S
C1118 C1122 1.368 . S
C1119 C1100 1.429 . S
C1119 C1113 1.429 . S
C1119 C1120 1.523 . S
C1120 C1101 1.368 . S
C1120 C1114 1.368 . S
C1120 C1119 1.523 . S
C1121 C1105 1.429 . S
C1121 C1117 1.429 . S
C1121 C1122 1.523 . S
C1122 C1106 1.368 . S
C1122 C1118 1.368 . S
C1122 C1121 1.523 . S
H1123 C1098 0.950 . S
H1124 C1100 0.950 . S
H1125 C1101 0.949 . S
H1126 C1103 0.950 . S
H1127 C1105 0.950 . S
C1128 C1129 1.349 . S
C1128 C1130 1.327 . S
C1128 H1153 0.950 . S
C1129 C1128 1.349 . S
C1129 C1145 1.349 . S
C1130 C1128 1.327 . S
C1130 C1149 1.429 . S
C1130 H1154 0.950 . S
C1131 C1148 1.574 . S
C1131 C1150 1.368 . S
C1131 H1155 0.949 . S
H1132 C1136 0.949 . S
C1133 C1134 1.349 . S
C1133 C1135 1.327 . S
C1133 H1156 0.950 . S
C1134 C1133 1.349 . S
C1134 C1146 1.349 . S
C1135 C1133 1.327 . S
C1135 C1151 1.429 . S
C1135 H1157 0.950 . S
C1136 H1132 0.949 . S
C1136 C1144 1.574 . S
C1136 C1152 1.368 . S
H1137 C1145 0.950 . S
H1138 C1143 0.950 . S
H1139 C1144 0.949 . S
H1140 C1146 0.950 . S
H1141 C1147 0.950 . S
H1142 C1148 0.949 . S
C1143 H1138 0.950 . S
C1143 C1145 1.327 . S
C1143 C1149 1.429 . S
C1144 C1136 1.574 . S
C1144 H1139 0.949 . S
C1144 C1150 1.368 . S
C1145 C1129 1.349 . S
C1145 H1137 0.950 . S
C1145 C1143 1.327 . S
C1146 C1134 1.349 . S
C1146 H1140 0.950 . S
C1146 C1147 1.327 . S
C1147 H1141 0.950 . S
C1147 C1146 1.327 . S
C1147 C1151 1.429 . S
C1148 C1131 1.574 . S
C1148 H1142 0.949 . S
C1148 C1152 1.368 . S
C1149 C1130 1.429 . S
C1149 C1143 1.429 . S
C1149 C1150 1.523 . S
C1150 C1131 1.368 . S
C1150 C1144 1.368 . S
C1150 C1149 1.523 . S
C1151 C1135 1.429 . S
C1151 C1147 1.429 . S
C1151 C1152 1.523 . S
C1152 C1136 1.368 . S
C1152 C1148 1.368 . S
C1152 C1151 1.523 . S
H1153 C1128 0.950 . S
H1154 C1130 0.950 . S
H1155 C1131 0.949 . S
H1156 C1133 0.950 . S
H1157 C1135 0.950 . S
C1158 C1159 1.349 . S
C1158 C1160 1.327 . S
C1158 H1183 0.950 . S
C1159 C1158 1.349 . S
C1159 C1175 1.349 . S
C1160 C1158 1.327 . S
C1160 C1179 1.429 . S
C1160 H1184 0.950 . S
C1161 C1178 1.574 . S
C1161 C1180 1.368 . S
C1161 H1185 0.949 . S
H1162 C1166 0.949 . S
C1163 C1164 1.349 . S
C1163 C1165 1.327 . S
C1163 H1186 0.950 . S
C1164 C1163 1.349 . S
C1164 C1176 1.349 . S
C1165 C1163 1.327 . S
C1165 C1181 1.429 . S
C1165 H1187 0.950 . S
C1166 H1162 0.949 . S
C1166 C1174 1.574 . S
C1166 C1182 1.368 . S
H1167 C1175 0.950 . S
H1168 C1173 0.950 . S
H1169 C1174 0.949 . S
H1170 C1176 0.950 . S
H1171 C1177 0.950 . S
H1172 C1178 0.949 . S
C1173 H1168 0.950 . S
C1173 C1175 1.327 . S
C1173 C1179 1.429 . S
C1174 C1166 1.574 . S
C1174 H1169 0.949 . S
C1174 C1180 1.368 . S
C1175 C1159 1.349 . S
C1175 H1167 0.950 . S
C1175 C1173 1.327 . S
C1176 C1164 1.349 . S
C1176 H1170 0.950 . S
C1176 C1177 1.327 . S
C1177 H1171 0.950 . S
C1177 C1176 1.327 . S
C1177 C1181 1.429 . S
C1178 C1161 1.574 . S
C1178 H1172 0.949 . S
C1178 C1182 1.368 . S
C1179 C1160 1.429 . S
C1179 C1173 1.429 . S
C1179 C1180 1.523 . S
C1180 C1161 1.368 . S
C1180 C1174 1.368 . S
C1180 C1179 1.523 . S
C1181 C1165 1.429 . S
C1181 C1177 1.429 . S
C1181 C1182 1.523 . S
C1182 C1166 1.368 . S
C1182 C1178 1.368 . S
C1182 C1181 1.523 . S
H1183 C1158 0.950 . S
H1184 C1160 0.950 . S
H1185 C1161 0.949 . S
H1186 C1163 0.950 . S
H1187 C1165 0.950 . S
C1188 C1189 1.349 . S
C1188 C1190 1.327 1_556 S
C1188 H1213 0.951 . S
C1189 C1188 1.349 . S
C1189 C1205 1.349 . S
C1190 C1188 1.327 1_554 S
C1190 C1209 1.429 . S
C1190 H1214 0.950 . S
C1191 C1208 1.574 . S
C1191 C1210 1.368 . S
C1191 H1215 0.949 . S
H1192 C1196 0.949 . S
C1193 C1194 1.349 . S
C1193 C1195 1.327 . S
C1193 H1216 0.950 . S
C1194 C1193 1.349 . S
C1194 C1206 1.349 . S
C1195 C1193 1.327 . S
C1195 C1211 1.429 . S
C1195 H1217 0.950 . S
C1196 H1192 0.949 . S
C1196 C1204 1.574 . S
C1196 C1212 1.368 . S
H1197 C1205 0.950 . S
H1198 C1203 0.950 . S
H1199 C1204 0.949 . S
H1200 C1206 0.950 . S
H1201 C1207 0.950 . S
H1202 C1208 0.949 . S
C1203 H1198 0.950 . S
C1203 C1205 1.327 . S
C1203 C1209 1.429 1_556 S
C1204 C1196 1.574 . S
C1204 H1199 0.949 . S
C1204 C1210 1.368 . S
C1205 C1189 1.349 . S
C1205 H1197 0.950 . S
C1205 C1203 1.327 . S
C1206 C1194 1.349 . S
C1206 H1200 0.950 . S
C1206 C1207 1.327 . S
C1207 H1201 0.950 . S
C1207 C1206 1.327 . S
C1207 C1211 1.429 . S
C1208 C1191 1.574 . S
C1208 H1202 0.949 . S
C1208 C1212 1.368 . S
C1209 C1190 1.429 . S
C1209 C1203 1.429 1_554 S
C1209 C1210 1.523 . S
C1210 C1191 1.368 . S
C1210 C1204 1.368 . S
C1210 C1209 1.523 . S
C1211 C1195 1.429 . S
C1211 C1207 1.429 . S
C1211 C1212 1.523 . S
C1212 C1196 1.368 . S
C1212 C1208 1.368 . S
C1212 C1211 1.523 . S
H1213 C1188 0.951 . S
H1214 C1190 0.950 . S
H1215 C1191 0.949 . S
H1216 C1193 0.950 . S
H1217 C1195 0.950 . S
C1218 C1219 1.349 . S
C1218 C1220 1.327 . S
C1218 H1243 0.950 . S
C1219 C1218 1.349 . S
C1219 C1235 1.349 . S
C1220 C1218 1.327 . S
C1220 C1239 1.429 1_556 S
C1220 H1244 0.950 . S
C1221 C1238 1.574 . S
C1221 C1240 1.368 . S
C1221 H1245 0.949 . S
H1222 C1226 0.949 . S
C1223 C1224 1.349 . S
C1223 C1225 1.327 . S
C1223 H1246 0.950 . S
C1224 C1223 1.349 . S
C1224 C1236 1.349 . S
C1225 C1223 1.327 . S
C1225 C1241 1.429 . S
C1225 H1247 0.950 . S
C1226 H1222 0.949 . S
C1226 C1234 1.574 . S
C1226 C1242 1.368 . S
H1227 C1235 0.950 . S
H1228 C1233 0.950 . S
H1229 C1234 0.949 . S
H1230 C1236 0.950 . S
H1231 C1237 0.950 . S
H1232 C1238 0.949 . S
C1233 H1228 0.950 . S
C1233 C1235 1.327 1_554 S
C1233 C1239 1.429 . S
C1234 C1226 1.574 . S
C1234 H1229 0.949 . S
C1234 C1240 1.368 . S
C1235 C1219 1.349 . S
C1235 H1227 0.950 . S
C1235 C1233 1.327 1_556 S
C1236 C1224 1.349 . S
C1236 H1230 0.950 . S
C1236 C1237 1.327 . S
C1237 H1231 0.950 . S
C1237 C1236 1.327 . S
C1237 C1241 1.429 . S
C1238 C1221 1.574 . S
C1238 H1232 0.949 . S
C1238 C1242 1.368 . S
C1239 C1220 1.429 1_554 S
C1239 C1233 1.429 . S
C1239 C1240 1.523 . S
C1240 C1221 1.368 . S
C1240 C1234 1.368 . S
C1240 C1239 1.523 . S
C1241 C1225 1.429 . S
C1241 C1237 1.429 . S
C1241 C1242 1.523 . S
C1242 C1226 1.368 . S
C1242 C1238 1.368 . S
C1242 C1241 1.523 . S
H1243 C1218 0.950 . S
H1244 C1220 0.950 . S
H1245 C1221 0.949 . S
H1246 C1223 0.950 . S
H1247 C1225 0.950 . S
C1248 C1249 1.349 . S
C1248 C1250 1.327 . S
C1248 H1273 0.950 . S
C1249 C1248 1.349 . S
C1249 C1265 1.349 . S
C1250 C1248 1.327 . S
C1250 C1269 1.429 . S
C1250 H1274 0.950 . S
C1251 C1268 1.574 . S
C1251 C1270 1.368 . S
C1251 H1275 0.949 . S
H1252 C1256 0.949 . S
C1253 C1254 1.349 . S
C1253 C1255 1.327 . S
C1253 H1276 0.950 . S
C1254 C1253 1.349 . S
C1254 C1266 1.349 1_556 S
C1255 C1253 1.327 . S
C1255 C1271 1.429 1_556 S
C1255 H1277 0.950 . S
C1256 H1252 0.949 . S
C1256 C1264 1.574 . S
C1256 C1272 1.368 . S
H1257 C1265 0.950 . S
H1258 C1263 0.950 . S
H1259 C1264 0.949 . S
H1260 C1266 0.950 . S
H1261 C1267 0.950 . S
H1262 C1268 0.949 . S
C1263 H1258 0.950 . S
C1263 C1265 1.327 . S
C1263 C1269 1.429 . S
C1264 C1256 1.574 . S
C1264 H1259 0.949 . S
C1264 C1270 1.368 . S
C1265 C1249 1.349 . S
C1265 H1257 0.950 . S
C1265 C1263 1.327 . S
C1266 C1254 1.349 1_554 S
C1266 H1260 0.950 . S
C1266 C1267 1.327 . S
C1267 H1261 0.950 . S
C1267 C1266 1.327 . S
C1267 C1271 1.429 . S
C1268 C1251 1.574 . S
C1268 H1262 0.949 . S
C1268 C1272 1.368 . S
C1269 C1250 1.429 . S
C1269 C1263 1.429 . S
C1269 C1270 1.523 . S
C1270 C1251 1.368 . S
C1270 C1264 1.368 . S
C1270 C1269 1.523 . S
C1271 C1255 1.429 1_554 S
C1271 C1267 1.429 . S
C1271 C1272 1.523 . S
C1272 C1256 1.368 . S
C1272 C1268 1.368 . S
C1272 C1271 1.523 . S
H1273 C1248 0.950 . S
H1274 C1250 0.950 . S
H1275 C1251 0.949 . S
H1276 C1253 0.950 . S
H1277 C1255 0.950 . S
C1278 C1279 1.349 . S
C1278 C1280 1.327 . S
C1278 H1303 0.950 . S
C1279 C1278 1.349 . S
C1279 C1295 1.349 . S
C1280 C1278 1.327 . S
C1280 C1299 1.429 . S
C1280 H1304 0.950 . S
C1281 C1298 1.574 . S
C1281 C1300 1.368 . S
C1281 H1305 0.949 . S
H1282 C1286 0.949 . S
C1283 C1284 1.349 . S
C1283 C1285 1.327 . S
C1283 H1306 0.950 . S
C1284 C1283 1.349 . S
C1284 C1296 1.349 . S
C1285 C1283 1.327 . S
C1285 C1301 1.429 . S
C1285 H1307 0.950 . S
C1286 H1282 0.949 . S
C1286 C1294 1.574 . S
C1286 C1302 1.368 . S
H1287 C1295 0.950 . S
H1288 C1293 0.950 . S
H1289 C1294 0.949 . S
H1290 C1296 0.950 . S
H1291 C1297 0.950 . S
H1292 C1298 0.949 . S
C1293 H1288 0.950 . S
C1293 C1295 1.327 . S
C1293 C1299 1.429 . S
C1294 C1286 1.574 . S
C1294 H1289 0.949 . S
C1294 C1300 1.368 . S
C1295 C1279 1.349 . S
C1295 H1287 0.950 . S
C1295 C1293 1.327 . S
C1296 C1284 1.349 . S
C1296 H1290 0.950 . S
C1296 C1297 1.327 . S
C1297 H1291 0.950 . S
C1297 C1296 1.327 . S
C1297 C1301 1.429 . S
C1298 C1281 1.574 . S
C1298 H1292 0.949 . S
C1298 C1302 1.368 . S
C1299 C1280 1.429 . S
C1299 C1293 1.429 . S
C1299 C1300 1.523 . S
C1300 C1281 1.368 . S
C1300 C1294 1.368 . S
C1300 C1299 1.523 . S
C1301 C1285 1.429 . S
C1301 C1297 1.429 . S
C1301 C1302 1.523 . S
C1302 C1286 1.368 . S
C1302 C1298 1.368 . S
C1302 C1301 1.523 . S
H1303 C1278 0.950 . S
H1304 C1280 0.950 . S
H1305 C1281 0.949 . S
H1306 C1283 0.950 . S
H1307 C1285 0.950 . S
C1308 C1309 1.349 . S
C1308 C1310 1.327 . S
C1308 H1333 0.950 . S
C1309 C1308 1.349 . S
C1309 C1325 1.349 . S
C1310 C1308 1.327 . S
C1310 C1329 1.429 . S
C1310 H1334 0.950 . S
C1311 C1328 1.574 . S
C1311 C1330 1.368 . S
C1311 H1335 0.949 . S
H1312 C1316 0.949 . S
C1313 C1314 1.349 . S
C1313 C1315 1.327 . S
C1313 H1336 0.950 . S
C1314 C1313 1.349 . S
C1314 C1326 1.349 . S
C1315 C1313 1.327 . S
C1315 C1331 1.429 . S
C1315 H1337 0.950 . S
C1316 H1312 0.949 . S
C1316 C1324 1.574 . S
C1316 C1332 1.368 . S
H1317 C1325 0.950 . S
H1318 C1323 0.950 . S
H1319 C1324 0.949 . S
H1320 C1326 0.950 . S
H1321 C1327 0.950 . S
H1322 C1328 0.949 . S
C1323 H1318 0.950 . S
C1323 C1325 1.327 . S
C1323 C1329 1.429 . S
C1324 C1316 1.574 . S
C1324 H1319 0.949 . S
C1324 C1330 1.368 . S
C1325 C1309 1.349 . S
C1325 H1317 0.950 . S
C1325 C1323 1.327 . S
C1326 C1314 1.349 . S
C1326 H1320 0.950 . S
C1326 C1327 1.327 . S
C1327 H1321 0.950 . S
C1327 C1326 1.327 . S
C1327 C1331 1.429 . S
C1328 C1311 1.574 . S
C1328 H1322 0.949 . S
C1328 C1332 1.368 . S
C1329 C1310 1.429 . S
C1329 C1323 1.429 . S
C1329 C1330 1.523 . S
C1330 C1311 1.368 . S
C1330 C1324 1.368 . S
C1330 C1329 1.523 . S
C1331 C1315 1.429 . S
C1331 C1327 1.429 . S
C1331 C1332 1.523 . S
C1332 C1316 1.368 . S
C1332 C1328 1.368 . S
C1332 C1331 1.523 . S
H1333 C1308 0.950 . S
H1334 C1310 0.950 . S
H1335 C1311 0.949 . S
H1336 C1313 0.950 . S
H1337 C1315 0.950 . S
C1338 C1339 1.349 . S
C1338 C1340 1.327 . S
C1338 H1363 0.950 . S
C1339 C1338 1.349 . S
C1339 C1355 1.349 . S
C1340 C1338 1.327 . S
C1340 C1359 1.429 . S
C1340 H1364 0.950 . S
C1341 C1358 1.574 . S
C1341 C1360 1.368 . S
C1341 H1365 0.949 . S
H1342 C1346 0.949 . S
C1343 C1344 1.349 . S
C1343 C1345 1.327 . S
C1343 H1366 0.950 . S
C1344 C1343 1.349 . S
C1344 C1356 1.349 . S
C1345 C1343 1.327 . S
C1345 C1361 1.429 . S
C1345 H1367 0.950 . S
C1346 H1342 0.949 . S
C1346 C1354 1.574 . S
C1346 C1362 1.368 . S
H1347 C1355 0.950 . S
H1348 C1353 0.950 . S
H1349 C1354 0.949 . S
H1350 C1356 0.950 . S
H1351 C1357 0.950 . S
H1352 C1358 0.949 . S
C1353 H1348 0.950 . S
C1353 C1355 1.327 . S
C1353 C1359 1.429 . S
C1354 C1346 1.574 . S
C1354 H1349 0.949 . S
C1354 C1360 1.368 . S
C1355 C1339 1.349 . S
C1355 H1347 0.950 . S
C1355 C1353 1.327 . S
C1356 C1344 1.349 . S
C1356 H1350 0.950 . S
C1356 C1357 1.327 . S
C1357 H1351 0.950 . S
C1357 C1356 1.327 . S
C1357 C1361 1.429 . S
C1358 C1341 1.574 . S
C1358 H1352 0.949 . S
C1358 C1362 1.368 . S
C1359 C1340 1.429 . S
C1359 C1353 1.429 . S
C1359 C1360 1.523 . S
C1360 C1341 1.368 . S
C1360 C1354 1.368 . S
C1360 C1359 1.523 . S
C1361 C1345 1.429 . S
C1361 C1357 1.429 . S
C1361 C1362 1.523 . S
C1362 C1346 1.368 . S
C1362 C1358 1.368 . S
C1362 C1361 1.523 . S
H1363 C1338 0.950 . S
H1364 C1340 0.950 . S
H1365 C1341 0.949 . S
H1366 C1343 0.950 . S
H1367 C1345 0.950 . S
C1368 C1369 1.349 . S
C1368 C1370 1.327 . S
C1368 H1393 0.950 . S
C1369 C1368 1.349 . S
C1369 C1385 1.349 . S
C1370 C1368 1.327 . S
C1370 C1389 1.429 . S
C1370 H1394 0.950 . S
C1371 C1388 1.574 . S
C1371 C1390 1.368 . S
C1371 H1395 0.949 . S
H1372 C1376 0.949 . S
C1373 C1374 1.349 . S
C1373 C1375 1.327 . S
C1373 H1396 0.950 . S
C1374 C1373 1.349 . S
C1374 C1386 1.349 . S
C1375 C1373 1.327 . S
C1375 C1391 1.429 . S
C1375 H1397 0.950 . S
C1376 H1372 0.949 . S
C1376 C1384 1.574 . S
C1376 C1392 1.368 . S
H1377 C1385 0.950 . S
H1378 C1383 0.950 . S
H1379 C1384 0.949 . S
H1380 C1386 0.950 . S
H1381 C1387 0.950 . S
H1382 C1388 0.949 . S
C1383 H1378 0.950 . S
C1383 C1385 1.327 . S
C1383 C1389 1.429 . S
C1384 C1376 1.574 . S
C1384 H1379 0.949 . S
C1384 C1390 1.368 . S
C1385 C1369 1.349 . S
C1385 H1377 0.950 . S
C1385 C1383 1.327 . S
C1386 C1374 1.349 . S
C1386 H1380 0.950 . S
C1386 C1387 1.327 . S
C1387 H1381 0.950 . S
C1387 C1386 1.327 . S
C1387 C1391 1.429 . S
C1388 C1371 1.574 . S
C1388 H1382 0.949 . S
C1388 C1392 1.368 . S
C1389 C1370 1.429 . S
C1389 C1383 1.429 . S
C1389 C1390 1.523 . S
C1390 C1371 1.368 . S
C1390 C1384 1.368 . S
C1390 C1389 1.523 . S
C1391 C1375 1.429 . S
C1391 C1387 1.429 . S
C1391 C1392 1.523 . S
C1392 C1376 1.368 . S
C1392 C1388 1.368 . S
C1392 C1391 1.523 . S
H1393 C1368 0.950 . S
H1394 C1370 0.950 . S
H1395 C1371 0.949 . S
H1396 C1373 0.950 . S
H1397 C1375 0.950 . S
C1398 C1399 1.349 . S
C1398 C1400 1.327 . S
C1398 H1423 0.950 . S
C1399 C1398 1.349 . S
C1399 C1415 1.349 . S
C1400 C1398 1.327 . S
C1400 C1419 1.429 . S
C1400 H1424 0.950 . S
C1401 C1418 1.574 . S
C1401 C1420 1.368 . S
C1401 H1425 0.949 . S
H1402 C1406 0.949 . S
C1403 C1404 1.349 . S
C1403 C1405 1.327 . S
C1403 H1426 0.950 . S
C1404 C1403 1.349 . S
C1404 C1416 1.349 . S
C1405 C1403 1.327 . S
C1405 C1421 1.429 . S
C1405 H1427 0.950 . S
C1406 H1402 0.949 . S
C1406 C1414 1.574 . S
C1406 C1422 1.368 . S
H1407 C1415 0.950 . S
H1408 C1413 0.950 . S
H1409 C1414 0.949 . S
H1410 C1416 0.950 . S
H1411 C1417 0.950 . S
H1412 C1418 0.949 . S
C1413 H1408 0.950 . S
C1413 C1415 1.327 . S
C1413 C1419 1.429 . S
C1414 C1406 1.574 . S
C1414 H1409 0.949 . S
C1414 C1420 1.368 . S
C1415 C1399 1.349 . S
C1415 H1407 0.950 . S
C1415 C1413 1.327 . S
C1416 C1404 1.349 . S
C1416 H1410 0.950 . S
C1416 C1417 1.327 . S
C1417 H1411 0.950 . S
C1417 C1416 1.327 . S
C1417 C1421 1.429 . S
C1418 C1401 1.574 . S
C1418 H1412 0.949 . S
C1418 C1422 1.368 . S
C1419 C1400 1.429 . S
C1419 C1413 1.429 . S
C1419 C1420 1.523 . S
C1420 C1401 1.368 . S
C1420 C1414 1.368 . S
C1420 C1419 1.523 . S
C1421 C1405 1.429 . S
C1421 C1417 1.429 . S
C1421 C1422 1.523 . S
C1422 C1406 1.368 . S
C1422 C1418 1.368 . S
C1422 C1421 1.523 . S
H1423 C1398 0.950 . S
H1424 C1400 0.950 . S
H1425 C1401 0.949 . S
H1426 C1403 0.950 . S
H1427 C1405 0.950 . S
C1428 C1429 1.349 . S
C1428 C1430 1.327 . S
C1428 H1453 0.950 . S
C1429 C1428 1.349 . S
C1429 C1445 1.349 . S
C1430 C1428 1.327 . S
C1430 C1449 1.429 . S
C1430 H1454 0.950 . S
C1431 C1448 1.574 . S
C1431 C1450 1.368 . S
C1431 H1455 0.949 . S
H1432 C1436 0.949 . S
C1433 C1434 1.349 . S
C1433 C1435 1.327 . S
C1433 H1456 0.950 . S
C1434 C1433 1.349 . S
C1434 C1446 1.349 . S
C1435 C1433 1.327 . S
C1435 C1451 1.429 . S
C1435 H1457 0.950 . S
C1436 H1432 0.949 . S
C1436 C1444 1.574 . S
C1436 C1452 1.368 . S
H1437 C1445 0.950 . S
H1438 C1443 0.950 . S
H1439 C1444 0.949 . S
H1440 C1446 0.950 . S
H1441 C1447 0.950 . S
H1442 C1448 0.949 . S
C1443 H1438 0.950 . S
C1443 C1445 1.327 . S
C1443 C1449 1.429 . S
C1444 C1436 1.574 . S
C1444 H1439 0.949 . S
C1444 C1450 1.368 . S
C1445 C1429 1.349 . S
C1445 H1437 0.950 . S
C1445 C1443 1.327 . S
C1446 C1434 1.349 . S
C1446 H1440 0.950 . S
C1446 C1447 1.327 . S
C1447 H1441 0.950 . S
C1447 C1446 1.327 . S
C1447 C1451 1.429 . S
C1448 C1431 1.574 . S
C1448 H1442 0.949 . S
C1448 C1452 1.368 . S
C1449 C1430 1.429 . S
C1449 C1443 1.429 . S
C1449 C1450 1.523 . S
C1450 C1431 1.368 . S
C1450 C1444 1.368 . S
C1450 C1449 1.523 . S
C1451 C1435 1.429 . S
C1451 C1447 1.429 . S
C1451 C1452 1.523 . S
C1452 C1436 1.368 . S
C1452 C1448 1.368 . S
C1452 C1451 1.523 . S
H1453 C1428 0.950 . S
H1454 C1430 0.950 . S
H1455 C1431 0.949 . S
H1456 C1433 0.950 . S
H1457 C1435 0.950 . S
C1458 C1459 1.349 . S
C1458 C1460 1.327 . S
C1458 H1483 0.950 . S
C1459 C1458 1.349 . S
C1459 C1475 1.349 . S
C1460 C1458 1.327 . S
C1460 C1479 1.429 . S
C1460 H1484 0.950 . S
C1461 C1478 1.574 . S
C1461 C1480 1.368 . S
C1461 H1485 0.949 . S
H1462 C1466 0.935 1_554 S
C1463 C1464 1.349 . S
C1463 C1465 1.327 . S
C1463 H1486 0.950 . S
C1464 C1463 1.349 . S
C1464 C1476 1.349 . S
C1465 C1463 1.327 . S
C1465 C1481 1.429 . S
C1465 H1487 0.950 1_554 S
C1466 H1462 0.935 1_556 S
C1466 C1474 1.574 . S
C1466 C1482 1.368 . S
H1467 C1475 0.950 . S
H1468 C1473 0.950 . S
H1469 C1474 0.949 . S
H1470 C1476 0.950 . S
H1471 C1477 0.950 . S
H1472 C1478 0.949 . S
C1473 H1468 0.950 . S
C1473 C1475 1.327 . S
C1473 C1479 1.429 . S
C1474 C1466 1.574 . S
C1474 H1469 0.949 . S
C1474 C1480 1.368 . S
C1475 C1459 1.349 . S
C1475 H1467 0.950 . S
C1475 C1473 1.327 . S
C1476 C1464 1.349 . S
C1476 H1470 0.950 . S
C1476 C1477 1.327 . S
C1477 H1471 0.950 . S
C1477 C1476 1.327 . S
C1477 C1481 1.429 . S
C1478 C1461 1.574 . S
C1478 H1472 0.949 . S
C1478 C1482 1.368 . S
C1479 C1460 1.429 . S
C1479 C1473 1.429 . S
C1479 C1480 1.523 . S
C1480 C1461 1.368 . S
C1480 C1474 1.368 . S
C1480 C1479 1.523 . S
C1481 C1465 1.429 . S
C1481 C1477 1.429 . S
C1481 C1482 1.523 1_554 S
C1482 C1466 1.368 . S
C1482 C1478 1.368 . S
C1482 C1481 1.523 1_556 S
H1483 C1458 0.950 . S
H1484 C1460 0.950 . S
H1485 C1461 0.949 . S
H1486 C1463 0.950 . S
H1487 C1465 0.950 1_556 S
C1488 C1489 1.349 . S
C1488 C1490 1.327 . S
C1488 H1513 0.950 . S
C1489 C1488 1.349 . S
C1489 C1505 1.349 . S
C1490 C1488 1.327 . S
C1490 C1509 1.429 . S
C1490 H1514 0.950 . S
C1491 C1508 1.574 . S
C1491 C1510 1.368 . S
C1491 H1515 0.949 . S
H1492 C1496 0.949 . S
C1493 C1494 1.349 . S
C1493 C1495 1.327 . S
C1493 H1516 0.950 . S
C1494 C1493 1.349 . S
C1494 C1506 1.349 . S
C1495 C1493 1.327 . S
C1495 C1511 1.429 . S
C1495 H1517 0.950 . S
C1496 H1492 0.949 . S
C1496 C1504 1.574 . S
C1496 C1512 1.368 . S
H1497 C1505 0.950 . S
H1498 C1503 0.950 1_556 S
H1499 C1504 0.949 1_554 S
H1500 C1506 0.950 . S
H1501 C1507 0.950 . S
H1502 C1508 0.949 . S
C1503 H1498 0.950 1_554 S
C1503 C1505 1.327 . S
C1503 C1509 1.429 . S
C1504 C1496 1.574 . S
C1504 H1499 0.949 1_556 S
C1504 C1510 1.368 . S
C1505 C1489 1.349 . S
C1505 H1497 0.950 . S
C1505 C1503 1.327 . S
C1506 C1494 1.349 . S
C1506 H1500 0.950 . S
C1506 C1507 1.327 . S
C1507 H1501 0.950 . S
C1507 C1506 1.327 . S
C1507 C1511 1.429 . S
C1508 C1491 1.574 . S
C1508 H1502 0.949 . S
C1508 C1512 1.368 . S
C1509 C1490 1.429 . S
C1509 C1503 1.429 . S
C1509 C1510 1.523 1_554 S
C1510 C1491 1.368 . S
C1510 C1504 1.368 . S
C1510 C1509 1.523 1_556 S
C1511 C1495 1.429 . S
C1511 C1507 1.429 . S
C1511 C1512 1.523 . S
C1512 C1496 1.368 . S
C1512 C1508 1.368 . S
C1512 C1511 1.523 . S
H1513 C1488 0.950 . S
H1514 C1490 0.950 . S
H1515 C1491 0.949 . S
H1516 C1493 0.950 . S
H1517 C1495 0.950 . S
C1518 C1519 1.349 . S
C1518 C1520 1.327 . S
C1518 H1543 0.950 . S
C1519 C1518 1.349 . S
C1519 C1535 1.349 . S
C1520 C1518 1.327 . S
C1520 C1539 1.429 . S
C1520 H1544 0.950 . S
C1521 C1538 1.574 . S
C1521 C1540 1.368 . S
C1521 H1545 0.949 . S
H1522 C1526 0.949 . S
C1523 C1524 1.349 . S
C1523 C1525 1.327 . S
C1523 H1546 0.950 . S
C1524 C1523 1.349 . S
C1524 C1536 1.349 . S
C1525 C1523 1.327 . S
C1525 C1541 1.429 . S
C1525 H1547 0.953 . S
C1526 H1522 0.949 . S
C1526 C1534 1.574 . S
C1526 C1542 1.368 . S
H1527 C1535 0.950 . S
H1528 C1533 0.950 . S
H1529 C1534 0.949 . S
H1530 C1536 0.950 . S
H1531 C1537 0.950 . S
H1532 C1538 0.949 . S
C1533 H1528 0.950 . S
C1533 C1535 1.327 . S
C1533 C1539 1.429 . S
C1534 C1526 1.574 . S
C1534 H1529 0.949 . S
C1534 C1540 1.368 . S
C1535 C1519 1.349 . S
C1535 H1527 0.950 . S
C1535 C1533 1.327 . S
C1536 C1524 1.349 . S
C1536 H1530 0.950 . S
C1536 C1537 1.327 . S
C1537 H1531 0.950 . S
C1537 C1536 1.327 . S
C1537 C1541 1.429 . S
C1538 C1521 1.574 . S
C1538 H1532 0.949 . S
C1538 C1542 1.368 . S
C1539 C1520 1.429 . S
C1539 C1533 1.429 . S
C1539 C1540 1.523 . S
C1540 C1521 1.368 . S
C1540 C1534 1.368 . S
C1540 C1539 1.523 . S
C1541 C1525 1.429 . S
C1541 C1537 1.429 . S
C1541 C1542 1.523 1_554 S
C1542 C1526 1.368 . S
C1542 C1538 1.368 . S
C1542 C1541 1.523 1_556 S
H1543 C1518 0.950 . S
H1544 C1520 0.950 . S
H1545 C1521 0.949 . S
H1546 C1523 0.950 . S
H1547 C1525 0.953 . S
C1548 C1549 1.349 . S
C1548 C1550 1.327 . S
C1548 H1573 0.950 . S
C1549 C1548 1.349 . S
C1549 C1565 1.349 . S
C1550 C1548 1.327 . S
C1550 C1569 1.429 . S
C1550 H1574 0.950 . S
C1551 C1568 1.574 . S
C1551 C1570 1.368 . S
C1551 H1575 0.949 . S
H1552 C1556 0.949 . S
C1553 C1554 1.349 . S
C1553 C1555 1.327 . S
C1553 H1576 0.950 . S
C1554 C1553 1.349 . S
C1554 C1566 1.349 . S
C1555 C1553 1.327 . S
C1555 C1571 1.429 . S
C1555 H1577 0.950 . S
C1556 H1552 0.949 . S
C1556 C1564 1.574 . S
C1556 C1572 1.368 . S
H1557 C1565 0.950 . S
H1558 C1563 0.950 . S
H1559 C1564 0.949 . S
H1560 C1566 0.950 . S
H1561 C1567 0.950 . S
H1562 C1568 0.949 . S
C1563 H1558 0.950 . S
C1563 C1565 1.327 . S
C1563 C1569 1.429 . S
C1564 C1556 1.574 . S
C1564 H1559 0.949 . S
C1564 C1570 1.368 . S
C1565 C1549 1.349 . S
C1565 H1557 0.950 . S
C1565 C1563 1.327 . S
C1566 C1554 1.349 . S
C1566 H1560 0.950 . S
C1566 C1567 1.327 . S
C1567 H1561 0.950 . S
C1567 C1566 1.327 . S
C1567 C1571 1.429 . S
C1568 C1551 1.574 . S
C1568 H1562 0.949 . S
C1568 C1572 1.368 . S
C1569 C1550 1.429 . S
C1569 C1563 1.429 . S
C1569 C1570 1.523 . S
C1570 C1551 1.368 . S
C1570 C1564 1.368 . S
C1570 C1569 1.523 . S
C1571 C1555 1.429 . S
C1571 C1567 1.429 . S
C1571 C1572 1.523 . S
C1572 C1556 1.368 . S
C1572 C1568 1.368 . S
C1572 C1571 1.523 . S
H1573 C1548 0.950 . S
H1574 C1550 0.950 . S
H1575 C1551 0.949 . S
H1576 C1553 0.950 . S
H1577 C1555 0.950 . S
C1578 C1579 1.349 . S
C1578 C1580 1.327 . S
C1578 H1603 0.950 . S
C1579 C1578 1.349 . S
C1579 C1595 1.349 . S
C1580 C1578 1.327 . S
C1580 C1599 1.429 . S
C1580 H1604 0.950 . S
C1581 C1598 1.574 . S
C1581 C1600 1.368 . S
C1581 H1605 0.949 . S
H1582 C1586 0.949 . S
C1583 C1584 1.349 . S
C1583 C1585 1.327 . S
C1583 H1606 0.950 . S
C1584 C1583 1.349 . S
C1584 C1596 1.349 . S
C1585 C1583 1.327 . S
C1585 C1601 1.429 . S
C1585 H1607 0.950 . S
C1586 H1582 0.949 . S
C1586 C1594 1.574 . S
C1586 C1602 1.368 . S
H1587 C1595 0.950 . S
H1588 C1593 0.950 . S
H1589 C1594 0.949 . S
H1590 C1596 0.950 . S
H1591 C1597 0.950 . S
H1592 C1598 0.949 . S
C1593 H1588 0.950 . S
C1593 C1595 1.327 . S
C1593 C1599 1.429 . S
C1594 C1586 1.574 . S
C1594 H1589 0.949 . S
C1594 C1600 1.368 . S
C1595 C1579 1.349 . S
C1595 H1587 0.950 . S
C1595 C1593 1.327 . S
C1596 C1584 1.349 . S
C1596 H1590 0.950 . S
C1596 C1597 1.327 . S
C1597 H1591 0.950 . S
C1597 C1596 1.327 . S
C1597 C1601 1.429 . S
C1598 C1581 1.574 . S
C1598 H1592 0.949 . S
C1598 C1602 1.368 . S
C1599 C1580 1.429 . S
C1599 C1593 1.429 . S
C1599 C1600 1.523 . S
C1600 C1581 1.368 . S
C1600 C1594 1.368 . S
C1600 C1599 1.523 . S
C1601 C1585 1.429 . S
C1601 C1597 1.429 . S
C1601 C1602 1.523 . S
C1602 C1586 1.368 . S
C1602 C1598 1.368 . S
C1602 C1601 1.523 . S
H1603 C1578 0.950 . S
H1604 C1580 0.950 . S
H1605 C1581 0.949 . S
H1606 C1583 0.950 . S
H1607 C1585 0.950 . S
C1608 C1609 1.349 . S
C1608 C1610 1.327 . S
C1608 H1633 0.950 . S
C1609 C1608 1.349 . S
C1609 C1625 1.349 . S
C1610 C1608 1.327 . S
C1610 C1629 1.429 . S
C1610 H1634 0.950 . S
C1611 C1628 1.574 . S
C1611 C1630 1.368 . S
C1611 H1635 0.949 . S
H1612 C1616 0.949 . S
C1613 C1614 1.349 . S
C1613 C1615 1.327 . S
C1613 H1636 0.950 . S
C1614 C1613 1.349 . S
C1614 C1626 1.349 . S
C1615 C1613 1.327 . S
C1615 C1631 1.429 . S
C1615 H1637 0.950 . S
C1616 H1612 0.949 . S
C1616 C1624 1.574 . S
C1616 C1632 1.368 . S
H1617 C1625 0.950 . S
H1618 C1623 0.950 . S
H1619 C1624 0.949 . S
H1620 C1626 0.950 . S
H1621 C1627 0.950 . S
H1622 C1628 0.949 . S
C1623 H1618 0.950 . S
C1623 C1625 1.327 . S
C1623 C1629 1.429 . S
C1624 C1616 1.574 . S
C1624 H1619 0.949 . S
C1624 C1630 1.368 . S
C1625 C1609 1.349 . S
C1625 H1617 0.950 . S
C1625 C1623 1.327 . S
C1626 C1614 1.349 . S
C1626 H1620 0.950 . S
C1626 C1627 1.327 . S
C1627 H1621 0.950 . S
C1627 C1626 1.327 . S
C1627 C1631 1.429 . S
C1628 C1611 1.574 . S
C1628 H1622 0.949 . S
C1628 C1632 1.368 . S
C1629 C1610 1.429 . S
C1629 C1623 1.429 . S
C1629 C1630 1.523 . S
C1630 C1611 1.368 . S
C1630 C1624 1.368 . S
C1630 C1629 1.523 . S
C1631 C1615 1.429 . S
C1631 C1627 1.429 . S
C1631 C1632 1.523 . S
C1632 C1616 1.368 . S
C1632 C1628 1.368 . S
C1632 C1631 1.523 . S
H1633 C1608 0.950 . S
H1634 C1610 0.950 . S
H1635 C1611 0.949 . S
H1636 C1613 0.950 . S
H1637 C1615 0.950 . S
C1638 C1639 1.349 . S
C1638 C1640 1.327 . S
C1638 H1663 0.950 . S
C1639 C1638 1.349 . S
C1639 C1655 1.349 . S
C1640 C1638 1.327 . S
C1640 C1659 1.429 . S
C1640 H1664 0.950 . S
C1641 C1658 1.574 . S
C1641 C1660 1.368 . S
C1641 H1665 0.949 . S
H1642 C1646 0.949 . S
C1643 C1644 1.349 . S
C1643 C1645 1.327 . S
C1643 H1666 0.950 . S
C1644 C1643 1.349 . S
C1644 C1656 1.349 . S
C1645 C1643 1.327 . S
C1645 C1661 1.429 . S
C1645 H1667 0.950 . S
C1646 H1642 0.949 . S
C1646 C1654 1.574 . S
C1646 C1662 1.368 . S
H1647 C1655 0.950 . S
H1648 C1653 0.950 . S
H1649 C1654 0.949 . S
H1650 C1656 0.950 . S
H1651 C1657 0.950 . S
H1652 C1658 0.949 . S
C1653 H1648 0.950 . S
C1653 C1655 1.327 . S
C1653 C1659 1.429 . S
C1654 C1646 1.574 . S
C1654 H1649 0.949 . S
C1654 C1660 1.368 . S
C1655 C1639 1.349 . S
C1655 H1647 0.950 . S
C1655 C1653 1.327 . S
C1656 C1644 1.349 . S
C1656 H1650 0.950 . S
C1656 C1657 1.327 . S
C1657 H1651 0.950 . S
C1657 C1656 1.327 . S
C1657 C1661 1.429 . S
C1658 C1641 1.574 . S
C1658 H1652 0.949 . S
C1658 C1662 1.368 . S
C1659 C1640 1.429 . S
C1659 C1653 1.429 . S
C1659 C1660 1.523 . S
C1660 C1641 1.368 . S
C1660 C1654 1.368 . S
C1660 C1659 1.523 . S
C1661 C1645 1.429 . S
C1661 C1657 1.429 . S
C1661 C1662 1.523 . S
C1662 C1646 1.368 . S
C1662 C1658 1.368 . S
C1662 C1661 1.523 . S
H1663 C1638 0.950 . S
H1664 C1640 0.950 . S
H1665 C1641 0.949 . S
H1666 C1643 0.950 . S
H1667 C1645 0.950 . S
C1668 C1669 1.349 . S
C1668 C1670 1.327 . S
C1668 H1693 0.950 . S
C1669 C1668 1.349 . S
C1669 C1685 1.349 . S
C1670 C1668 1.327 . S
C1670 C1689 1.429 . S
C1670 H1694 0.950 . S
C1671 C1688 1.574 . S
C1671 C1690 1.368 . S
C1671 H1695 0.949 . S
H1672 C1676 0.949 . S
C1673 C1674 1.349 . S
C1673 C1675 1.327 . S
C1673 H1696 0.950 . S
C1674 C1673 1.349 . S
C1674 C1686 1.349 . S
C1675 C1673 1.327 . S
C1675 C1691 1.429 . S
C1675 H1697 0.950 . S
C1676 H1672 0.949 . S
C1676 C1684 1.574 . S
C1676 C1692 1.368 . S
H1677 C1685 0.950 . S
H1678 C1683 0.950 . S
H1679 C1684 0.949 . S
H1680 C1686 0.950 . S
H1681 C1687 0.950 . S
H1682 C1688 0.949 . S
C1683 H1678 0.950 . S
C1683 C1685 1.327 . S
C1683 C1689 1.429 . S
C1684 C1676 1.574 . S
C1684 H1679 0.949 . S
C1684 C1690 1.368 . S
C1685 C1669 1.349 . S
C1685 H1677 0.950 . S
C1685 C1683 1.327 . S
C1686 C1674 1.349 . S
C1686 H1680 0.950 . S
C1686 C1687 1.327 . S
C1687 H1681 0.950 . S
C1687 C1686 1.327 . S
C1687 C1691 1.429 . S
C1688 C1671 1.574 . S
C1688 H1682 0.949 . S
C1688 C1692 1.368 . S
C1689 C1670 1.429 . S
C1689 C1683 1.429 . S
C1689 C1690 1.523 . S
C1690 C1671 1.368 . S
C1690 C1684 1.368 . S
C1690 C1689 1.523 . S
C1691 C1675 1.429 . S
C1691 C1687 1.429 . S
C1691 C1692 1.523 . S
C1692 C1676 1.368 . S
C1692 C1688 1.368 . S
C1692 C1691 1.523 . S
H1693 C1668 0.950 . S
H1694 C1670 0.950 . S
H1695 C1671 0.949 . S
H1696 C1673 0.950 . S
H1697 C1675 0.950 . S
C1698 C1699 1.349 . S
C1698 C1700 1.327 . S
C1698 H1723 0.950 . S
C1699 C1698 1.349 . S
C1699 C1715 1.349 . S
C1700 C1698 1.327 . S
C1700 C1719 1.429 . S
C1700 H1724 0.950 . S
C1701 C1718 1.574 . S
C1701 C1720 1.368 . S
C1701 H1725 0.949 . S
H1702 C1706 0.949 . S
C1703 C1704 1.349 . S
C1703 C1705 1.327 . S
C1703 H1726 0.950 . S
C1704 C1703 1.349 . S
C1704 C1716 1.349 . S
C1705 C1703 1.327 . S
C1705 C1721 1.429 . S
C1705 H1727 0.950 . S
C1706 H1702 0.949 . S
C1706 C1714 1.574 . S
C1706 C1722 1.368 . S
H1707 C1715 0.950 . S
H1708 C1713 0.950 . S
H1709 C1714 0.949 . S
H1710 C1716 0.950 . S
H1711 C1717 0.950 . S
H1712 C1718 0.949 . S
C1713 H1708 0.950 . S
C1713 C1715 1.327 . S
C1713 C1719 1.429 . S
C1714 C1706 1.574 . S
C1714 H1709 0.949 . S
C1714 C1720 1.368 . S
C1715 C1699 1.349 . S
C1715 H1707 0.950 . S
C1715 C1713 1.327 . S
C1716 C1704 1.349 . S
C1716 H1710 0.950 . S
C1716 C1717 1.327 . S
C1717 H1711 0.950 . S
C1717 C1716 1.327 . S
C1717 C1721 1.429 . S
C1718 C1701 1.574 . S
C1718 H1712 0.949 . S
C1718 C1722 1.368 . S
C1719 C1700 1.429 . S
C1719 C1713 1.429 . S
C1719 C1720 1.523 . S
C1720 C1701 1.368 . S
C1720 C1714 1.368 . S
C1720 C1719 1.523 . S
C1721 C1705 1.429 . S
C1721 C1717 1.429 . S
C1721 C1722 1.523 . S
C1722 C1706 1.368 . S
C1722 C1718 1.368 . S
C1722 C1721 1.523 . S
H1723 C1698 0.950 . S
H1724 C1700 0.950 . S
H1725 C1701 0.949 . S
H1726 C1703 0.950 . S
H1727 C1705 0.950 . S
C1728 C1729 1.349 . S
C1728 C1730 1.327 . S
C1728 H1753 0.950 . S
C1729 C1728 1.349 . S
C1729 C1745 1.349 . S
C1730 C1728 1.327 . S
C1730 C1749 1.429 . S
C1730 H1754 0.950 . S
C1731 C1748 1.574 . S
C1731 C1750 1.368 . S
C1731 H1755 0.949 . S
H1732 C1736 0.949 . S
C1733 C1734 1.349 . S
C1733 C1735 1.327 . S
C1733 H1756 0.950 . S
C1734 C1733 1.349 . S
C1734 C1746 1.349 . S
C1735 C1733 1.327 . S
C1735 C1751 1.429 . S
C1735 H1757 0.950 . S
C1736 H1732 0.949 . S
C1736 C1744 1.574 . S
C1736 C1752 1.368 . S
H1737 C1745 0.950 . S
H1738 C1743 0.950 . S
H1739 C1744 0.949 . S
H1740 C1746 0.950 . S
H1741 C1747 0.950 . S
H1742 C1748 0.949 . S
C1743 H1738 0.950 . S
C1743 C1745 1.327 . S
C1743 C1749 1.429 . S
C1744 C1736 1.574 . S
C1744 H1739 0.949 . S
C1744 C1750 1.368 . S
C1745 C1729 1.349 . S
C1745 H1737 0.950 . S
C1745 C1743 1.327 . S
C1746 C1734 1.349 . S
C1746 H1740 0.950 . S
C1746 C1747 1.327 . S
C1747 H1741 0.950 . S
C1747 C1746 1.327 . S
C1747 C1751 1.429 . S
C1748 C1731 1.574 . S
C1748 H1742 0.949 . S
C1748 C1752 1.368 . S
C1749 C1730 1.429 . S
C1749 C1743 1.429 . S
C1749 C1750 1.523 . S
C1750 C1731 1.368 . S
C1750 C1744 1.368 . S
C1750 C1749 1.523 . S
C1751 C1735 1.429 . S
C1751 C1747 1.429 . S
C1751 C1752 1.523 . S
C1752 C1736 1.368 . S
C1752 C1748 1.368 . S
C1752 C1751 1.523 . S
H1753 C1728 0.950 . S
H1754 C1730 0.950 . S
H1755 C1731 0.949 . S
H1756 C1733 0.950 . S
H1757 C1735 0.950 . S
C1758 C1759 1.349 . S
C1758 C1760 1.327 . S
C1758 H1783 0.950 . S
C1759 C1758 1.349 . S
C1759 C1775 1.349 . S
C1760 C1758 1.327 . S
C1760 C1779 1.429 . S
C1760 H1784 0.950 . S
C1761 C1778 1.574 . S
C1761 C1780 1.368 . S
C1761 H1785 0.949 . S
H1762 C1766 0.949 . S
C1763 C1764 1.349 . S
C1763 C1765 1.327 . S
C1763 H1786 0.950 . S
C1764 C1763 1.349 . S
C1764 C1776 1.349 . S
C1765 C1763 1.327 . S
C1765 C1781 1.429 . S
C1765 H1787 0.950 . S
C1766 H1762 0.949 . S
C1766 C1774 1.574 . S
C1766 C1782 1.368 . S
H1767 C1775 0.950 . S
H1768 C1773 0.950 . S
H1769 C1774 0.949 . S
H1770 C1776 0.950 . S
H1771 C1777 0.950 . S
H1772 C1778 0.949 . S
C1773 H1768 0.950 . S
C1773 C1775 1.327 . S
C1773 C1779 1.429 . S
C1774 C1766 1.574 . S
C1774 H1769 0.949 . S
C1774 C1780 1.368 . S
C1775 C1759 1.349 . S
C1775 H1767 0.950 . S
C1775 C1773 1.327 . S
C1776 C1764 1.349 . S
C1776 H1770 0.950 . S
C1776 C1777 1.327 . S
C1777 H1771 0.950 . S
C1777 C1776 1.327 . S
C1777 C1781 1.429 . S
C1778 C1761 1.574 . S
C1778 H1772 0.949 . S
C1778 C1782 1.368 . S
C1779 C1760 1.429 . S
C1779 C1773 1.429 . S
C1779 C1780 1.523 . S
C1780 C1761 1.368 . S
C1780 C1774 1.368 . S
C1780 C1779 1.523 . S
C1781 C1765 1.429 . S
C1781 C1777 1.429 . S
C1781 C1782 1.523 . S
C1782 C1766 1.368 . S
C1782 C1778 1.368 . S
C1782 C1781 1.523 . S
H1783 C1758 0.950 . S
H1784 C1760 0.950 . S
H1785 C1761 0.949 . S
H1786 C1763 0.950 . S
H1787 C1765 0.950 . S
C1788 C1789 1.349 . S
C1788 C1790 1.327 . S
C1788 H1813 0.950 . S
C1789 C1788 1.349 . S
C1789 C1805 1.349 . S
C1790 C1788 1.327 . S
C1790 C1809 1.429 . S
C1790 H1814 0.950 . S
C1791 C1808 1.574 . S
C1791 C1810 1.368 . S
C1791 H1815 0.949 . S
H1792 C1796 0.949 . S
C1793 C1794 1.349 . S
C1793 C1795 1.327 . S
C1793 H1816 0.950 . S
C1794 C1793 1.349 . S
C1794 C1806 1.349 . S
C1795 C1793 1.327 . S
C1795 C1811 1.429 . S
C1795 H1817 0.950 . S
C1796 H1792 0.949 . S
C1796 C1804 1.574 . S
C1796 C1812 1.368 . S
H1797 C1805 0.950 . S
H1798 C1803 0.950 . S
H1799 C1804 0.949 . S
H1800 C1806 0.950 . S
H1801 C1807 0.950 . S
H1802 C1808 0.949 . S
C1803 H1798 0.950 . S
C1803 C1805 1.327 . S
C1803 C1809 1.429 . S
C1804 C1796 1.574 . S
C1804 H1799 0.949 . S
C1804 C1810 1.368 . S
C1805 C1789 1.349 . S
C1805 H1797 0.950 . S
C1805 C1803 1.327 . S
C1806 C1794 1.349 . S
C1806 H1800 0.950 . S
C1806 C1807 1.327 . S
C1807 H1801 0.950 . S
C1807 C1806 1.327 . S
C1807 C1811 1.429 . S
C1808 C1791 1.574 . S
C1808 H1802 0.949 . S
C1808 C1812 1.368 . S
C1809 C1790 1.429 . S
C1809 C1803 1.429 . S
C1809 C1810 1.523 . S
C1810 C1791 1.368 . S
C1810 C1804 1.368 . S
C1810 C1809 1.523 . S
C1811 C1795 1.429 . S
C1811 C1807 1.429 . S
C1811 C1812 1.523 . S
C1812 C1796 1.368 . S
C1812 C1808 1.368 . S
C1812 C1811 1.523 . S
H1813 C1788 0.950 . S
H1814 C1790 0.950 . S
H1815 C1791 0.949 . S
H1816 C1793 0.950 . S
H1817 C1795 0.950 . S
C1818 C1819 1.349 . S
C1818 C1820 1.327 . S
C1818 H1843 0.950 . S
C1819 C1818 1.349 . S
C1819 C1835 1.349 . S
C1820 C1818 1.327 . S
C1820 C1839 1.429 . S
C1820 H1844 0.950 . S
C1821 C1838 1.574 . S
C1821 C1840 1.368 . S
C1821 H1845 0.949 . S
H1822 C1826 0.949 . S
C1823 C1824 1.349 . S
C1823 C1825 1.327 . S
C1823 H1846 0.950 . S
C1824 C1823 1.349 . S
C1824 C1836 1.349 . S
C1825 C1823 1.327 . S
C1825 C1841 1.429 . S
C1825 H1847 0.950 . S
C1826 H1822 0.949 . S
C1826 C1834 1.574 . S
C1826 C1842 1.368 . S
H1827 C1835 0.950 . S
H1828 C1833 0.950 . S
H1829 C1834 0.949 . S
H1830 C1836 0.950 . S
H1831 C1837 0.950 . S
H1832 C1838 0.949 . S
C1833 H1828 0.950 . S
C1833 C1835 1.327 . S
C1833 C1839 1.429 . S
C1834 C1826 1.574 . S
C1834 H1829 0.949 . S
C1834 C1840 1.368 . S
C1835 C1819 1.349 . S
C1835 H1827 0.950 . S
C1835 C1833 1.327 . S
C1836 C1824 1.349 . S
C1836 H1830 0.950 . S
C1836 C1837 1.327 . S
C1837 H1831 0.950 . S
C1837 C1836 1.327 . S
C1837 C1841 1.429 . S
C1838 C1821 1.574 . S
C1838 H1832 0.949 . S
C1838 C1842 1.368 . S
C1839 C1820 1.429 . S
C1839 C1833 1.429 . S
C1839 C1840 1.523 . S
C1840 C1821 1.368 . S
C1840 C1834 1.368 . S
C1840 C1839 1.523 . S
C1841 C1825 1.429 . S
C1841 C1837 1.429 . S
C1841 C1842 1.523 . S
C1842 C1826 1.368 . S
C1842 C1838 1.368 . S
C1842 C1841 1.523 . S
H1843 C1818 0.950 . S
H1844 C1820 0.950 . S
H1845 C1821 0.949 . S
H1846 C1823 0.950 . S
H1847 C1825 0.950 . S
C1848 C1849 1.349 . S
C1848 C1850 1.327 . S
C1848 H1873 0.950 . S
C1849 C1848 1.349 . S
C1849 C1865 1.349 . S
C1850 C1848 1.327 . S
C1850 C1869 1.429 . S
C1850 H1874 0.950 . S
C1851 C1868 1.574 . S
C1851 C1870 1.368 . S
C1851 H1875 0.949 . S
H1852 C1856 0.949 . S
C1853 C1854 1.349 . S
C1853 C1855 1.327 . S
C1853 H1876 0.950 . S
C1854 C1853 1.349 . S
C1854 C1866 1.349 . S
C1855 C1853 1.327 . S
C1855 C1871 1.429 . S
C1855 H1877 0.950 . S
C1856 H1852 0.949 . S
C1856 C1864 1.574 . S
C1856 C1872 1.368 . S
H1857 C1865 0.950 . S
H1858 C1863 0.950 . S
H1859 C1864 0.949 . S
H1860 C1866 0.950 . S
H1861 C1867 0.950 . S
H1862 C1868 0.949 . S
C1863 H1858 0.950 . S
C1863 C1865 1.327 . S
C1863 C1869 1.429 . S
C1864 C1856 1.574 . S
C1864 H1859 0.949 . S
C1864 C1870 1.368 . S
C1865 C1849 1.349 . S
C1865 H1857 0.950 . S
C1865 C1863 1.327 . S
C1866 C1854 1.349 . S
C1866 H1860 0.950 . S
C1866 C1867 1.327 . S
C1867 H1861 0.950 . S
C1867 C1866 1.327 . S
C1867 C1871 1.429 . S
C1868 C1851 1.574 . S
C1868 H1862 0.949 . S
C1868 C1872 1.368 . S
C1869 C1850 1.429 . S
C1869 C1863 1.429 . S
C1869 C1870 1.523 . S
C1870 C1851 1.368 . S
C1870 C1864 1.368 . S
C1870 C1869 1.523 . S
C1871 C1855 1.429 . S
C1871 C1867 1.429 . S
C1871 C1872 1.523 . S
C1872 C1856 1.368 . S
C1872 C1868 1.368 . S
C1872 C1871 1.523 . S
H1873 C1848 0.950 . S
H1874 C1850 0.950 . S
H1875 C1851 0.949 . S
H1876 C1853 0.950 . S
H1877 C1855 0.950 . S
C1878 C1879 1.349 . S
C1878 C1880 1.327 . S
C1878 H1903 0.950 . S
C1879 C1878 1.349 . S
C1879 C1895 1.349 . S
C1880 C1878 1.327 . S
C1880 C1899 1.429 . S
C1880 H1904 0.950 . S
C1881 C1898 1.574 . S
C1881 C1900 1.368 . S
C1881 H1905 0.949 . S
H1882 C1886 0.949 . S
C1883 C1884 1.349 . S
C1883 C1885 1.327 . S
C1883 H1906 0.950 . S
C1884 C1883 1.349 . S
C1884 C1896 1.349 . S
C1885 C1883 1.327 . S
C1885 C1901 1.429 . S
C1885 H1907 0.950 . S
C1886 H1882 0.949 . S
C1886 C1894 1.574 . S
C1886 C1902 1.368 . S
H1887 C1895 0.950 . S
H1888 C1893 0.950 . S
H1889 C1894 0.949 . S
H1890 C1896 0.950 . S
H1891 C1897 0.950 . S
H1892 C1898 0.949 . S
C1893 H1888 0.950 . S
C1893 C1895 1.327 . S
C1893 C1899 1.429 . S
C1894 C1886 1.574 . S
C1894 H1889 0.949 . S
C1894 C1900 1.368 . S
C1895 C1879 1.349 . S
C1895 H1887 0.950 . S
C1895 C1893 1.327 . S
C1896 C1884 1.349 . S
C1896 H1890 0.950 . S
C1896 C1897 1.327 . S
C1897 H1891 0.950 . S
C1897 C1896 1.327 . S
C1897 C1901 1.429 . S
C1898 C1881 1.574 . S
C1898 H1892 0.949 . S
C1898 C1902 1.368 . S
C1899 C1880 1.429 . S
C1899 C1893 1.429 . S
C1899 C1900 1.523 . S
C1900 C1881 1.368 . S
C1900 C1894 1.368 . S
C1900 C1899 1.523 . S
C1901 C1885 1.429 . S
C1901 C1897 1.429 . S
C1901 C1902 1.523 . S
C1902 C1886 1.368 . S
C1902 C1898 1.368 . S
C1902 C1901 1.523 . S
H1903 C1878 0.950 . S
H1904 C1880 0.950 . S
H1905 C1881 0.949 . S
H1906 C1883 0.950 . S
H1907 C1885 0.950 . S
C1908 C1909 1.349 . S
C1908 C1910 1.327 . S
C1908 H1933 0.950 . S
C1909 C1908 1.349 . S
C1909 C1925 1.349 . S
C1910 C1908 1.327 . S
C1910 C1929 1.429 . S
C1910 H1934 0.950 . S
C1911 C1928 1.574 . S
C1911 C1930 1.368 . S
C1911 H1935 0.949 . S
H1912 C1916 0.949 . S
C1913 C1914 1.349 . S
C1913 C1915 1.327 . S
C1913 H1936 0.950 . S
C1914 C1913 1.349 . S
C1914 C1926 1.349 . S
C1915 C1913 1.327 . S
C1915 C1931 1.429 . S
C1915 H1937 0.950 . S
C1916 H1912 0.949 . S
C1916 C1924 1.574 . S
C1916 C1932 1.368 . S
H1917 C1925 0.950 . S
H1918 C1923 0.950 . S
H1919 C1924 0.949 . S
H1920 C1926 0.950 . S
H1921 C1927 0.950 . S
H1922 C1928 0.949 . S
C1923 H1918 0.950 . S
C1923 C1925 1.327 . S
C1923 C1929 1.429 . S
C1924 C1916 1.574 . S
C1924 H1919 0.949 . S
C1924 C1930 1.368 . S
C1925 C1909 1.349 . S
C1925 H1917 0.950 . S
C1925 C1923 1.327 . S
C1926 C1914 1.349 . S
C1926 H1920 0.950 . S
C1926 C1927 1.327 . S
C1927 H1921 0.950 . S
C1927 C1926 1.327 . S
C1927 C1931 1.429 . S
C1928 C1911 1.574 . S
C1928 H1922 0.949 . S
C1928 C1932 1.368 . S
C1929 C1910 1.429 . S
C1929 C1923 1.429 . S
C1929 C1930 1.523 . S
C1930 C1911 1.368 . S
C1930 C1924 1.368 . S
C1930 C1929 1.523 . S
C1931 C1915 1.429 . S
C1931 C1927 1.429 . S
C1931 C1932 1.523 . S
C1932 C1916 1.368 . S
C1932 C1928 1.368 . S
C1932 C1931 1.523 . S
H1933 C1908 0.950 . S
H1934 C1910 0.950 . S
H1935 C1911 0.949 . S
H1936 C1913 0.950 . S
H1937 C1915 0.950 . S
C1938 C1939 1.349 . S
C1938 C1940 1.327 . S
C1938 H1963 0.950 . S
C1939 C1938 1.349 . S
C1939 C1955 1.349 . S
C1940 C1938 1.327 . S
C1940 C1959 1.429 . S
C1940 H1964 0.950 . S
C1941 C1958 1.574 . S
C1941 C1960 1.368 . S
C1941 H1965 0.949 . S
H1942 C1946 0.949 . S
C1943 C1944 1.349 . S
C1943 C1945 1.327 . S
C1943 H1966 0.950 . S
C1944 C1943 1.349 . S
C1944 C1956 1.349 . S
C1945 C1943 1.327 . S
C1945 C1961 1.429 . S
C1945 H1967 0.950 . S
C1946 H1942 0.949 . S
C1946 C1954 1.574 . S
C1946 C1962 1.368 . S
H1947 C1955 0.950 . S
H1948 C1953 0.950 . S
H1949 C1954 0.949 . S
H1950 C1956 0.950 . S
H1951 C1957 0.950 . S
H1952 C1958 0.949 . S
C1953 H1948 0.950 . S
C1953 C1955 1.327 . S
C1953 C1959 1.429 . S
C1954 C1946 1.574 . S
C1954 H1949 0.949 . S
C1954 C1960 1.368 . S
C1955 C1939 1.349 . S
C1955 H1947 0.950 . S
C1955 C1953 1.327 . S
C1956 C1944 1.349 . S
C1956 H1950 0.950 . S
C1956 C1957 1.327 . S
C1957 H1951 0.950 . S
C1957 C1956 1.327 . S
C1957 C1961 1.429 . S
C1958 C1941 1.574 . S
C1958 H1952 0.949 . S
C1958 C1962 1.368 . S
C1959 C1940 1.429 . S
C1959 C1953 1.429 . S
C1959 C1960 1.523 . S
C1960 C1941 1.368 . S
C1960 C1954 1.368 . S
C1960 C1959 1.523 . S
C1961 C1945 1.429 . S
C1961 C1957 1.429 . S
C1961 C1962 1.523 . S
C1962 C1946 1.368 . S
C1962 C1958 1.368 . S
C1962 C1961 1.523 . S
H1963 C1938 0.950 . S
H1964 C1940 0.950 . S
H1965 C1941 0.949 . S
H1966 C1943 0.950 . S
H1967 C1945 0.950 . S
C1968 C1969 1.349 . S
C1968 C1970 1.327 . S
C1968 H1993 0.950 . S
C1969 C1968 1.349 . S
C1969 C1985 1.349 . S
C1970 C1968 1.327 . S
C1970 C1989 1.429 . S
C1970 H1994 0.950 . S
C1971 C1988 1.574 . S
C1971 C1990 1.368 . S
C1971 H1995 0.949 . S
H1972 C1976 0.949 . S
C1973 C1974 1.349 . S
C1973 C1975 1.327 . S
C1973 H1996 0.950 . S
C1974 C1973 1.349 . S
C1974 C1986 1.349 . S
C1975 C1973 1.327 . S
C1975 C1991 1.429 . S
C1975 H1997 0.950 . S
C1976 H1972 0.949 . S
C1976 C1984 1.574 . S
C1976 C1992 1.368 . S
H1977 C1985 0.950 . S
H1978 C1983 0.950 . S
H1979 C1984 0.949 . S
H1980 C1986 0.950 . S
H1981 C1987 0.950 . S
H1982 C1988 0.949 . S
C1983 H1978 0.950 . S
C1983 C1985 1.327 . S
C1983 C1989 1.429 . S
C1984 C1976 1.574 . S
C1984 H1979 0.949 . S
C1984 C1990 1.368 . S
C1985 C1969 1.349 . S
C1985 H1977 0.950 . S
C1985 C1983 1.327 . S
C1986 C1974 1.349 . S
C1986 H1980 0.950 . S
C1986 C1987 1.327 . S
C1987 H1981 0.950 . S
C1987 C1986 1.327 . S
C1987 C1991 1.429 . S
C1988 C1971 1.574 . S
C1988 H1982 0.949 . S
C1988 C1992 1.368 . S
C1989 C1970 1.429 . S
C1989 C1983 1.429 . S
C1989 C1990 1.523 . S
C1990 C1971 1.368 . S
C1990 C1984 1.368 . S
C1990 C1989 1.523 . S
C1991 C1975 1.429 . S
C1991 C1987 1.429 . S
C1991 C1992 1.523 . S
C1992 C1976 1.368 . S
C1992 C1988 1.368 . S
C1992 C1991 1.523 . S
H1993 C1968 0.950 . S
H1994 C1970 0.950 . S
H1995 C1971 0.949 . S
H1996 C1973 0.950 . S
H1997 C1975 0.950 . S
C1998 C1999 1.349 . S
C1998 C2000 1.327 . S
C1998 H2023 0.950 . S
C1999 C1998 1.349 . S
C1999 C2015 1.349 . S
C2000 C1998 1.327 . S
C2000 C2019 1.429 . S
C2000 H2024 0.950 1_556 S
C2001 C2018 1.574 . S
C2001 C2020 1.368 . S
C2001 H2025 0.949 1_554 S
H2002 C2006 0.949 . S
C2003 C2004 1.349 . S
C2003 C2005 1.327 . S
C2003 H2026 0.950 . S
C2004 C2003 1.349 . S
C2004 C2016 1.349 . S
C2005 C2003 1.327 . S
C2005 C2021 1.429 . S
C2005 H2027 0.950 . S
C2006 H2002 0.949 . S
C2006 C2014 1.574 . S
C2006 C2022 1.368 . S
H2007 C2015 0.950 . S
H2008 C2013 0.950 . S
H2009 C2014 0.949 . S
H2010 C2016 0.950 . S
H2011 C2017 0.950 . S
H2012 C2018 0.949 . S
C2013 H2008 0.950 . S
C2013 C2015 1.327 . S
C2013 C2019 1.429 . S
C2014 C2006 1.574 . S
C2014 H2009 0.949 . S
C2014 C2020 1.368 . S
C2015 C1999 1.349 . S
C2015 H2007 0.950 . S
C2015 C2013 1.327 . S
C2016 C2004 1.349 . S
C2016 H2010 0.950 . S
C2016 C2017 1.327 . S
C2017 H2011 0.950 . S
C2017 C2016 1.327 . S
C2017 C2021 1.429 . S
C2018 C2001 1.574 . S
C2018 H2012 0.949 . S
C2018 C2022 1.368 . S
C2019 C2000 1.429 . S
C2019 C2013 1.429 . S
C2019 C2020 1.523 1_556 S
C2020 C2001 1.368 . S
C2020 C2014 1.368 . S
C2020 C2019 1.523 1_554 S
C2021 C2005 1.429 . S
C2021 C2017 1.429 . S
C2021 C2022 1.523 . S
C2022 C2006 1.368 . S
C2022 C2018 1.368 . S
C2022 C2021 1.523 . S
H2023 C1998 0.950 . S
H2024 C2000 0.950 1_554 S
H2025 C2001 0.949 1_556 S
H2026 C2003 0.950 . S
H2027 C2005 0.950 . S
C2028 C2029 1.349 . S
C2028 C2030 1.327 . S
C2028 H2053 0.950 . S
C2029 C2028 1.349 . S
C2029 C2045 1.349 . S
C2030 C2028 1.327 . S
C2030 C2049 1.429 . S
C2030 H2054 0.950 . S
C2031 C2048 1.574 . S
C2031 C2050 1.368 . S
C2031 H2055 0.949 . S
H2032 C2036 0.949 . S
C2033 C2034 1.349 . S
C2033 C2035 1.327 . S
C2033 H2056 0.950 . S
C2034 C2033 1.349 . S
C2034 C2046 1.349 . S
C2035 C2033 1.327 . S
C2035 C2051 1.429 . S
C2035 H2057 0.950 . S
C2036 H2032 0.949 . S
C2036 C2044 1.574 . S
C2036 C2052 1.368 . S
H2037 C2045 0.950 . S
H2038 C2043 0.950 . S
H2039 C2044 0.949 . S
H2040 C2046 0.950 . S
H2041 C2047 0.950 . S
H2042 C2048 0.949 . S
C2043 H2038 0.950 . S
C2043 C2045 1.327 . S
C2043 C2049 1.429 . S
C2044 C2036 1.574 . S
C2044 H2039 0.949 . S
C2044 C2050 1.368 . S
C2045 C2029 1.349 . S
C2045 H2037 0.950 . S
C2045 C2043 1.327 . S
C2046 C2034 1.349 . S
C2046 H2040 0.950 . S
C2046 C2047 1.327 . S
C2047 H2041 0.950 . S
C2047 C2046 1.327 . S
C2047 C2051 1.429 . S
C2048 C2031 1.574 . S
C2048 H2042 0.949 . S
C2048 C2052 1.368 . S
C2049 C2030 1.429 . S
C2049 C2043 1.429 . S
C2049 C2050 1.523 1_556 S
C2050 C2031 1.368 . S
C2050 C2044 1.368 . S
C2050 C2049 1.523 1_554 S
C2051 C2035 1.429 . S
C2051 C2047 1.429 . S
C2051 C2052 1.523 . S
C2052 C2036 1.368 . S
C2052 C2048 1.368 . S
C2052 C2051 1.523 . S
H2053 C2028 0.950 . S
H2054 C2030 0.950 . S
H2055 C2031 0.949 . S
H2056 C2033 0.950 . S
H2057 C2035 0.950 . S
C2058 C2059 1.349 . S
C2058 C2060 1.327 . S
C2058 H2083 0.950 . S
C2059 C2058 1.349 . S
C2059 C2075 1.349 . S
C2060 C2058 1.327 . S
C2060 C2079 1.429 . S
C2060 H2084 0.950 . S
C2061 C2078 1.574 . S
C2061 C2080 1.368 . S
C2061 H2085 0.949 . S
H2062 C2066 0.949 . S
C2063 C2064 1.349 . S
C2063 C2065 1.327 . S
C2063 H2086 0.950 . S
C2064 C2063 1.349 . S
C2064 C2076 1.349 . S
C2065 C2063 1.327 . S
C2065 C2081 1.429 . S
C2065 H2087 0.950 . S
C2066 H2062 0.949 . S
C2066 C2074 1.574 . S
C2066 C2082 1.368 . S
H2067 C2075 0.950 . S
H2068 C2073 0.950 . S
H2069 C2074 0.949 . S
H2070 C2076 0.950 . S
H2071 C2077 0.950 . S
H2072 C2078 0.949 . S
C2073 H2068 0.950 . S
C2073 C2075 1.327 . S
C2073 C2079 1.429 . S
C2074 C2066 1.574 . S
C2074 H2069 0.949 . S
C2074 C2080 1.368 . S
C2075 C2059 1.349 . S
C2075 H2067 0.950 . S
C2075 C2073 1.327 . S
C2076 C2064 1.349 . S
C2076 H2070 0.950 . S
C2076 C2077 1.327 . S
C2077 H2071 0.950 . S
C2077 C2076 1.327 . S
C2077 C2081 1.429 . S
C2078 C2061 1.574 . S
C2078 H2072 0.949 . S
C2078 C2082 1.368 . S
C2079 C2060 1.429 . S
C2079 C2073 1.429 . S
C2079 C2080 1.523 1_556 S
C2080 C2061 1.368 . S
C2080 C2074 1.368 . S
C2080 C2079 1.523 1_554 S
C2081 C2065 1.429 . S
C2081 C2077 1.429 . S
C2081 C2082 1.523 . S
C2082 C2066 1.368 . S
C2082 C2078 1.368 . S
C2082 C2081 1.523 . S
H2083 C2058 0.950 . S
H2084 C2060 0.950 . S
H2085 C2061 0.949 . S
H2086 C2063 0.950 . S
H2087 C2065 0.950 . S
C2088 C2089 1.349 . S
C2088 C2090 1.327 . S
C2088 H2113 0.950 . S
C2089 C2088 1.349 . S
C2089 C2105 1.336 1_554 S
C2090 C2088 1.327 . S
C2090 C2109 1.429 . S
C2090 H2114 0.950 . S
C2091 C2108 1.574 . S
C2091 C2110 1.368 . S
C2091 H2115 0.949 . S
H2092 C2096 0.949 . S
C2093 C2094 1.349 . S
C2093 C2095 1.327 . S
C2093 H2116 0.950 . S
C2094 C2093 1.349 . S
C2094 C2106 1.349 . S
C2095 C2093 1.327 . S
C2095 C2111 1.429 . S
C2095 H2117 0.950 . S
C2096 H2092 0.949 . S
C2096 C2104 1.574 . S
C2096 C2112 1.368 . S
H2097 C2105 0.969 . S
H2098 C2103 0.950 1_556 S
H2099 C2104 0.949 . S
H2100 C2106 0.950 . S
H2101 C2107 0.950 . S
H2102 C2108 0.949 . S
C2103 H2098 0.950 1_554 S
C2103 C2105 1.322 1_554 S
C2103 C2109 1.429 . S
C2104 C2096 1.574 . S
C2104 H2099 0.949 . S
C2104 C2110 1.368 . S
C2105 C2089 1.336 1_556 S
C2105 H2097 0.969 . S
C2105 C2103 1.322 1_556 S
C2106 C2094 1.349 . S
C2106 H2100 0.950 . S
C2106 C2107 1.327 . S
C2107 H2101 0.950 . S
C2107 C2106 1.327 . S
C2107 C2111 1.429 . S
C2108 C2091 1.574 . S
C2108 H2102 0.949 . S
C2108 C2112 1.368 . S
C2109 C2090 1.429 . S
C2109 C2103 1.429 . S
C2109 C2110 1.523 . S
C2110 C2091 1.368 . S
C2110 C2104 1.368 . S
C2110 C2109 1.523 . S
C2111 C2095 1.429 . S
C2111 C2107 1.429 . S
C2111 C2112 1.523 . S
C2112 C2096 1.368 . S
C2112 C2108 1.368 . S
C2112 C2111 1.523 . S
H2113 C2088 0.950 . S
H2114 C2090 0.950 . S
H2115 C2091 0.949 . S
H2116 C2093 0.950 . S
H2117 C2095 0.950 . S
C2118 C2119 1.349 . S
C2118 C2120 1.327 . S
C2118 H2143 0.950 . S
C2119 C2118 1.349 . S
C2119 C2135 1.349 . S
C2120 C2118 1.327 . S
C2120 C2139 1.429 . S
C2120 H2144 0.950 . S
C2121 C2138 1.574 . S
C2121 C2140 1.368 . S
C2121 H2145 0.949 . S
H2122 C2126 0.949 . S
C2123 C2124 1.349 . S
C2123 C2125 1.327 . S
C2123 H2146 0.950 . S
C2124 C2123 1.349 . S
C2124 C2136 1.349 1_554 S
C2125 C2123 1.327 . S
C2125 C2141 1.429 . S
C2125 H2147 0.950 . S
C2126 H2122 0.949 . S
C2126 C2134 1.574 . S
C2126 C2142 1.368 . S
H2127 C2135 0.950 . S
H2128 C2133 0.950 . S
H2129 C2134 0.949 . S
H2130 C2136 0.950 . S
H2131 C2137 0.950 1_556 S
H2132 C2138 0.949 . S
C2133 H2128 0.950 . S
C2133 C2135 1.327 . S
C2133 C2139 1.429 . S
C2134 C2126 1.574 . S
C2134 H2129 0.949 . S
C2134 C2140 1.368 . S
C2135 C2119 1.349 . S
C2135 H2127 0.950 . S
C2135 C2133 1.327 . S
C2136 C2124 1.349 1_556 S
C2136 H2130 0.950 . S
C2136 C2137 1.327 1_556 S
C2137 H2131 0.950 1_554 S
C2137 C2136 1.327 1_554 S
C2137 C2141 1.429 . S
C2138 C2121 1.574 . S
C2138 H2132 0.949 . S
C2138 C2142 1.368 . S
C2139 C2120 1.429 . S
C2139 C2133 1.429 . S
C2139 C2140 1.523 . S
C2140 C2121 1.368 . S
C2140 C2134 1.368 . S
C2140 C2139 1.523 . S
C2141 C2125 1.429 . S
C2141 C2137 1.429 . S
C2141 C2142 1.523 . S
C2142 C2126 1.368 . S
C2142 C2138 1.368 . S
C2142 C2141 1.523 . S
H2143 C2118 0.950 . S
H2144 C2120 0.950 . S
H2145 C2121 0.949 . S
H2146 C2123 0.950 . S
H2147 C2125 0.950 . S
C2148 C2149 1.349 . S
C2148 C2150 1.327 . S
C2148 H2173 0.950 . S
C2149 C2148 1.349 . S
C2149 C2165 1.349 1_554 S
C2150 C2148 1.327 . S
C2150 C2169 1.429 . S
C2150 H2174 0.950 . S
C2151 C2168 1.574 . S
C2151 C2170 1.368 . S
C2151 H2175 0.969 . S
H2152 C2156 0.949 . S
C2153 C2154 1.349 . S
C2153 C2155 1.327 . S
C2153 H2176 0.950 . S
C2154 C2153 1.349 . S
C2154 C2166 1.349 . S
C2155 C2153 1.327 . S
C2155 C2171 1.429 . S
C2155 H2177 0.950 . S
C2156 H2152 0.949 . S
C2156 C2164 1.574 . S
C2156 C2172 1.368 . S
H2157 C2165 0.950 . S
H2158 C2163 0.950 1_556 S
H2159 C2164 0.949 . S
H2160 C2166 0.950 . S
H2161 C2167 0.950 . S
H2162 C2168 0.949 . S
C2163 H2158 0.950 1_554 S
C2163 C2165 1.327 1_554 S
C2163 C2169 1.429 . S
C2164 C2156 1.574 . S
C2164 H2159 0.949 . S
C2164 C2170 1.368 . S
C2165 C2149 1.349 1_556 S
C2165 H2157 0.950 . S
C2165 C2163 1.327 1_556 S
C2166 C2154 1.349 . S
C2166 H2160 0.950 . S
C2166 C2167 1.327 . S
C2167 H2161 0.950 . S
C2167 C2166 1.327 . S
C2167 C2171 1.429 . S
C2168 C2151 1.574 . S
C2168 H2162 0.949 . S
C2168 C2172 1.368 . S
C2169 C2150 1.429 . S
C2169 C2163 1.429 . S
C2169 C2170 1.523 . S
C2170 C2151 1.368 . S
C2170 C2164 1.368 . S
C2170 C2169 1.523 . S
C2171 C2155 1.429 . S
C2171 C2167 1.429 . S
C2171 C2172 1.523 . S
C2172 C2156 1.368 . S
C2172 C2168 1.368 . S
C2172 C2171 1.523 . S
H2173 C2148 0.950 . S
H2174 C2150 0.950 . S
H2175 C2151 0.969 . S
H2176 C2153 0.950 . S
H2177 C2155 0.950 . S
C2178 C2179 1.349 . S
C2178 C2180 1.327 . S
C2178 H2203 0.950 . S
C2179 C2178 1.349 . S
C2179 C2195 1.349 . S
C2180 C2178 1.327 . S
C2180 C2199 1.429 . S
C2180 H2204 0.950 . S
C2181 C2198 1.574 . S
C2181 C2200 1.368 . S
C2181 H2205 0.949 . S
H2182 C2186 0.949 . S
C2183 C2184 1.349 . S
C2183 C2185 1.327 . S
C2183 H2206 0.950 . S
C2184 C2183 1.349 . S
C2184 C2196 1.349 . S
C2185 C2183 1.327 . S
C2185 C2201 1.429 . S
C2185 H2207 0.950 . S
C2186 H2182 0.949 . S
C2186 C2194 1.574 . S
C2186 C2202 1.368 . S
H2187 C2195 0.950 . S
H2188 C2193 0.950 . S
H2189 C2194 0.949 . S
H2190 C2196 0.950 . S
H2191 C2197 0.950 . S
H2192 C2198 0.949 . S
C2193 H2188 0.950 . S
C2193 C2195 1.327 . S
C2193 C2199 1.429 . S
C2194 C2186 1.574 . S
C2194 H2189 0.949 . S
C2194 C2200 1.368 . S
C2195 C2179 1.349 . S
C2195 H2187 0.950 . S
C2195 C2193 1.327 . S
C2196 C2184 1.349 . S
C2196 H2190 0.950 . S
C2196 C2197 1.327 . S
C2197 H2191 0.950 . S
C2197 C2196 1.327 . S
C2197 C2201 1.429 . S
C2198 C2181 1.574 . S
C2198 H2192 0.949 . S
C2198 C2202 1.368 . S
C2199 C2180 1.429 . S
C2199 C2193 1.429 . S
C2199 C2200 1.523 . S
C2200 C2181 1.368 . S
C2200 C2194 1.368 . S
C2200 C2199 1.523 . S
C2201 C2185 1.429 . S
C2201 C2197 1.429 . S
C2201 C2202 1.523 . S
C2202 C2186 1.368 . S
C2202 C2198 1.368 . S
C2202 C2201 1.523 . S
H2203 C2178 0.950 . S
H2204 C2180 0.950 . S
H2205 C2181 0.949 . S
H2206 C2183 0.950 . S
H2207 C2185 0.950 . S
C2208 C2209 1.349 . S
C2208 C2210 1.327 . S
C2208 H2233 0.950 . S
C2209 C2208 1.349 . S
C2209 C2225 1.349 . S
C2210 C2208 1.327 . S
C2210 C2229 1.429 . S
C2210 H2234 0.950 . S
C2211 C2228 1.574 . S
C2211 C2230 1.368 . S
C2211 H2235 0.949 . S
H2212 C2216 0.949 . S
C2213 C2214 1.349 . S
C2213 C2215 1.327 . S
C2213 H2236 0.950 . S
C2214 C2213 1.349 . S
C2214 C2226 1.349 . S
C2215 C2213 1.327 . S
C2215 C2231 1.429 . S
C2215 H2237 0.950 . S
C2216 H2212 0.949 . S
C2216 C2224 1.574 . S
C2216 C2232 1.368 . S
H2217 C2225 0.950 . S
H2218 C2223 0.950 . S
H2219 C2224 0.949 . S
H2220 C2226 0.950 . S
H2221 C2227 0.950 . S
H2222 C2228 0.949 . S
C2223 H2218 0.950 . S
C2223 C2225 1.327 . S
C2223 C2229 1.429 . S
C2224 C2216 1.574 . S
C2224 H2219 0.949 . S
C2224 C2230 1.368 . S
C2225 C2209 1.349 . S
C2225 H2217 0.950 . S
C2225 C2223 1.327 . S
C2226 C2214 1.349 . S
C2226 H2220 0.950 . S
C2226 C2227 1.327 . S
C2227 H2221 0.950 . S
C2227 C2226 1.327 . S
C2227 C2231 1.429 . S
C2228 C2211 1.574 . S
C2228 H2222 0.949 . S
C2228 C2232 1.368 . S
C2229 C2210 1.429 . S
C2229 C2223 1.429 . S
C2229 C2230 1.523 . S
C2230 C2211 1.368 . S
C2230 C2224 1.368 . S
C2230 C2229 1.523 . S
C2231 C2215 1.429 . S
C2231 C2227 1.429 . S
C2231 C2232 1.523 . S
C2232 C2216 1.368 . S
C2232 C2228 1.368 . S
C2232 C2231 1.523 . S
H2233 C2208 0.950 . S
H2234 C2210 0.950 . S
H2235 C2211 0.949 . S
H2236 C2213 0.950 . S
H2237 C2215 0.950 . S
C2238 C2239 1.349 . S
C2238 C2240 1.327 . S
C2238 H2263 0.950 . S
C2239 C2238 1.349 . S
C2239 C2255 1.349 . S
C2240 C2238 1.327 . S
C2240 C2259 1.429 . S
C2240 H2264 0.950 . S
C2241 C2258 1.574 . S
C2241 C2260 1.368 . S
C2241 H2265 0.949 . S
H2242 C2246 0.949 . S
C2243 C2244 1.349 . S
C2243 C2245 1.327 . S
C2243 H2266 0.950 . S
C2244 C2243 1.349 . S
C2244 C2256 1.349 . S
C2245 C2243 1.327 . S
C2245 C2261 1.429 . S
C2245 H2267 0.950 . S
C2246 H2242 0.949 . S
C2246 C2254 1.574 . S
C2246 C2262 1.368 . S
H2247 C2255 0.950 . S
H2248 C2253 0.950 . S
H2249 C2254 0.949 . S
H2250 C2256 0.950 . S
H2251 C2257 0.950 . S
H2252 C2258 0.949 . S
C2253 H2248 0.950 . S
C2253 C2255 1.327 . S
C2253 C2259 1.429 . S
C2254 C2246 1.574 . S
C2254 H2249 0.949 . S
C2254 C2260 1.368 . S
C2255 C2239 1.349 . S
C2255 H2247 0.950 . S
C2255 C2253 1.327 . S
C2256 C2244 1.349 . S
C2256 H2250 0.950 . S
C2256 C2257 1.327 . S
C2257 H2251 0.950 . S
C2257 C2256 1.327 . S
C2257 C2261 1.429 . S
C2258 C2241 1.574 . S
C2258 H2252 0.949 . S
C2258 C2262 1.368 . S
C2259 C2240 1.429 . S
C2259 C2253 1.429 . S
C2259 C2260 1.523 . S
C2260 C2241 1.368 . S
C2260 C2254 1.368 . S
C2260 C2259 1.523 . S
C2261 C2245 1.429 . S
C2261 C2257 1.429 . S
C2261 C2262 1.523 . S
C2262 C2246 1.368 . S
C2262 C2258 1.368 . S
C2262 C2261 1.523 . S
H2263 C2238 0.950 . S
H2264 C2240 0.950 . S
H2265 C2241 0.949 . S
H2266 C2243 0.950 . S
H2267 C2245 0.950 . S
C2268 C2269 1.349 . S
C2268 C2270 1.327 . S
C2268 H2293 0.950 . S
C2269 C2268 1.349 . S
C2269 C2285 1.349 . S
C2270 C2268 1.327 . S
C2270 C2289 1.429 . S
C2270 H2294 0.950 . S
C2271 C2288 1.574 . S
C2271 C2290 1.368 . S
C2271 H2295 0.949 . S
H2272 C2276 0.949 . S
C2273 C2274 1.349 1_554 S
C2273 C2275 1.327 1_554 S
C2273 H2296 0.950 . S
C2274 C2273 1.349 1_556 S
C2274 C2286 1.349 . S
C2275 C2273 1.327 1_556 S
C2275 C2291 1.429 . S
C2275 H2297 0.950 1_556 S
C2276 H2272 0.949 . S
C2276 C2284 1.574 . S
C2276 C2292 1.368 . S
H2277 C2285 0.950 . S
H2278 C2283 0.950 . S
H2279 C2284 0.949 . S
H2280 C2286 0.950 . S
H2281 C2287 0.950 . S
H2282 C2288 0.949 . S
C2283 H2278 0.950 . S
C2283 C2285 1.327 . S
C2283 C2289 1.429 . S
C2284 C2276 1.574 . S
C2284 H2279 0.949 . S
C2284 C2290 1.368 . S
C2285 C2269 1.349 . S
C2285 H2277 0.950 . S
C2285 C2283 1.327 . S
C2286 C2274 1.349 . S
C2286 H2280 0.950 . S
C2286 C2287 1.327 . S
C2287 H2281 0.950 . S
C2287 C2286 1.327 . S
C2287 C2291 1.429 . S
C2288 C2271 1.574 . S
C2288 H2282 0.949 . S
C2288 C2292 1.368 . S
C2289 C2270 1.429 . S
C2289 C2283 1.429 . S
C2289 C2290 1.523 . S
C2290 C2271 1.368 . S
C2290 C2284 1.368 . S
C2290 C2289 1.523 . S
C2291 C2275 1.429 . S
C2291 C2287 1.429 . S
C2291 C2292 1.523 . S
C2292 C2276 1.368 . S
C2292 C2288 1.368 . S
C2292 C2291 1.523 . S
H2293 C2268 0.950 . S
H2294 C2270 0.950 . S
H2295 C2271 0.949 . S
H2296 C2273 0.950 . S
H2297 C2275 0.950 1_554 S
C2298 C2299 1.349 1_554 S
C2298 C2300 1.327 1_554 S
C2298 H2323 0.950 . S
C2299 C2298 1.349 1_556 S
C2299 C2315 1.349 . S
C2300 C2298 1.327 1_556 S
C2300 C2319 1.429 . S
C2300 H2324 0.950 1_556 S
C2301 C2318 1.574 . S
C2301 C2320 1.368 . S
C2301 H2325 0.949 . S
H2302 C2306 0.949 . S
C2303 C2304 1.349 . S
C2303 C2305 1.327 . S
C2303 H2326 0.950 . S
C2304 C2303 1.349 . S
C2304 C2316 1.349 . S
C2305 C2303 1.327 . S
C2305 C2321 1.429 . S
C2305 H2327 0.950 . S
C2306 H2302 0.949 . S
C2306 C2314 1.574 . S
C2306 C2322 1.368 . S
H2307 C2315 0.950 . S
H2308 C2313 0.950 . S
H2309 C2314 0.949 1_554 S
H2310 C2316 0.950 . S
H2311 C2317 0.950 . S
H2312 C2318 0.949 . S
C2313 H2308 0.950 . S
C2313 C2315 1.327 . S
C2313 C2319 1.429 . S
C2314 C2306 1.574 . S
C2314 H2309 0.949 1_556 S
C2314 C2320 1.368 . S
C2315 C2299 1.349 . S
C2315 H2307 0.950 . S
C2315 C2313 1.327 . S
C2316 C2304 1.349 . S
C2316 H2310 0.950 . S
C2316 C2317 1.327 . S
C2317 H2311 0.950 . S
C2317 C2316 1.327 . S
C2317 C2321 1.429 . S
C2318 C2301 1.574 . S
C2318 H2312 0.949 . S
C2318 C2322 1.368 . S
C2319 C2300 1.429 . S
C2319 C2313 1.429 . S
C2319 C2320 1.523 . S
C2320 C2301 1.368 . S
C2320 C2314 1.368 . S
C2320 C2319 1.523 . S
C2321 C2305 1.429 . S
C2321 C2317 1.429 . S
C2321 C2322 1.523 . S
C2322 C2306 1.368 . S
C2322 C2318 1.368 . S
C2322 C2321 1.523 . S
H2323 C2298 0.950 . S
H2324 C2300 0.950 1_554 S
H2325 C2301 0.949 . S
H2326 C2303 0.950 . S
H2327 C2305 0.950 . S
C2328 C2329 1.349 . S
C2328 C2330 1.327 . S
C2328 H2353 0.950 . S
C2329 C2328 1.349 . S
C2329 C2345 1.349 . S
C2330 C2328 1.327 . S
C2330 C2349 1.429 . S
C2330 H2354 0.950 . S
C2331 C2348 1.574 . S
C2331 C2350 1.368 . S
C2331 H2355 0.949 . S
H2332 C2336 0.964 . S
C2333 C2334 1.349 . S
C2333 C2335 1.327 . S
C2333 H2356 0.950 . S
C2334 C2333 1.349 . S
C2334 C2346 1.349 1_556 S
C2335 C2333 1.327 . S
C2335 C2351 1.429 . S
C2335 H2357 0.950 . S
C2336 H2332 0.964 . S
C2336 C2344 1.574 . S
C2336 C2352 1.368 . S
H2337 C2345 0.950 . S
H2338 C2343 0.950 . S
H2339 C2344 0.949 . S
H2340 C2346 0.950 . S
H2341 C2347 0.950 1_554 S
H2342 C2348 0.949 . S
C2343 H2338 0.950 . S
C2343 C2345 1.327 . S
C2343 C2349 1.429 . S
C2344 C2336 1.574 . S
C2344 H2339 0.949 . S
C2344 C2350 1.368 . S
C2345 C2329 1.349 . S
C2345 H2337 0.950 . S
C2345 C2343 1.327 . S
C2346 C2334 1.349 1_554 S
C2346 H2340 0.950 . S
C2346 C2347 1.327 1_554 S
C2347 H2341 0.950 1_556 S
C2347 C2346 1.327 1_556 S
C2347 C2351 1.429 . S
C2348 C2331 1.574 . S
C2348 H2342 0.949 . S
C2348 C2352 1.368 . S
C2349 C2330 1.429 . S
C2349 C2343 1.429 . S
C2349 C2350 1.523 . S
C2350 C2331 1.368 . S
C2350 C2344 1.368 . S
C2350 C2349 1.523 . S
C2351 C2335 1.429 . S
C2351 C2347 1.429 . S
C2351 C2352 1.523 . S
C2352 C2336 1.368 . S
C2352 C2348 1.368 . S
C2352 C2351 1.523 . S
H2353 C2328 0.950 . S
H2354 C2330 0.950 . S
H2355 C2331 0.949 . S
H2356 C2333 0.950 . S
H2357 C2335 0.950 . S
C2358 C2359 1.349 . S
C2358 C2360 1.327 . S
C2358 H2383 0.950 . S
C2359 C2358 1.349 . S
C2359 C2375 1.349 . S
C2360 C2358 1.327 . S
C2360 C2379 1.429 . S
C2360 H2384 0.950 . S
C2361 C2378 1.574 . S
C2361 C2380 1.368 . S
C2361 H2385 0.949 . S
H2362 C2366 0.949 . S
C2363 C2364 1.349 . S
C2363 C2365 1.327 . S
C2363 H2386 0.950 . S
C2364 C2363 1.349 . S
C2364 C2376 1.349 . S
C2365 C2363 1.327 . S
C2365 C2381 1.429 . S
C2365 H2387 0.950 . S
C2366 H2362 0.949 . S
C2366 C2374 1.574 . S
C2366 C2382 1.368 . S
H2367 C2375 0.950 . S
H2368 C2373 0.950 . S
H2369 C2374 0.949 . S
H2370 C2376 0.950 . S
H2371 C2377 0.950 . S
H2372 C2378 0.949 . S
C2373 H2368 0.950 . S
C2373 C2375 1.327 . S
C2373 C2379 1.429 . S
C2374 C2366 1.574 . S
C2374 H2369 0.949 . S
C2374 C2380 1.368 . S
C2375 C2359 1.349 . S
C2375 H2367 0.950 . S
C2375 C2373 1.327 . S
C2376 C2364 1.349 . S
C2376 H2370 0.950 . S
C2376 C2377 1.327 . S
C2377 H2371 0.950 . S
C2377 C2376 1.327 . S
C2377 C2381 1.429 . S
C2378 C2361 1.574 . S
C2378 H2372 0.949 . S
C2378 C2382 1.368 . S
C2379 C2360 1.429 . S
C2379 C2373 1.429 . S
C2379 C2380 1.523 . S
C2380 C2361 1.368 . S
C2380 C2374 1.368 . S
C2380 C2379 1.523 . S
C2381 C2365 1.429 . S
C2381 C2377 1.429 . S
C2381 C2382 1.523 . S
C2382 C2366 1.368 . S
C2382 C2378 1.368 . S
C2382 C2381 1.523 . S
H2383 C2358 0.950 . S
H2384 C2360 0.950 . S
H2385 C2361 0.949 . S
H2386 C2363 0.950 . S
H2387 C2365 0.950 . S
C2388 C2389 1.349 . S
C2388 C2390 1.327 . S
C2388 H2413 0.950 . S
C2389 C2388 1.349 . S
C2389 C2405 1.349 . S
C2390 C2388 1.327 . S
C2390 C2409 1.429 . S
C2390 H2414 0.950 . S
C2391 C2408 1.574 . S
C2391 C2410 1.368 . S
C2391 H2415 0.949 . S
H2392 C2396 0.949 . S
C2393 C2394 1.349 . S
C2393 C2395 1.327 . S
C2393 H2416 0.950 . S
C2394 C2393 1.349 . S
C2394 C2406 1.349 . S
C2395 C2393 1.327 . S
C2395 C2411 1.429 . S
C2395 H2417 0.950 . S
C2396 H2392 0.949 . S
C2396 C2404 1.574 . S
C2396 C2412 1.368 . S
H2397 C2405 0.950 . S
H2398 C2403 0.950 . S
H2399 C2404 0.949 . S
H2400 C2406 0.950 . S
H2401 C2407 0.950 . S
H2402 C2408 0.949 . S
C2403 H2398 0.950 . S
C2403 C2405 1.327 . S
C2403 C2409 1.429 . S
C2404 C2396 1.574 . S
C2404 H2399 0.949 . S
C2404 C2410 1.368 . S
C2405 C2389 1.349 . S
C2405 H2397 0.950 . S
C2405 C2403 1.327 . S
C2406 C2394 1.349 . S
C2406 H2400 0.950 . S
C2406 C2407 1.327 . S
C2407 H2401 0.950 . S
C2407 C2406 1.327 . S
C2407 C2411 1.429 . S
C2408 C2391 1.574 . S
C2408 H2402 0.949 . S
C2408 C2412 1.368 . S
C2409 C2390 1.429 . S
C2409 C2403 1.429 . S
C2409 C2410 1.523 . S
C2410 C2391 1.368 . S
C2410 C2404 1.368 . S
C2410 C2409 1.523 . S
C2411 C2395 1.429 . S
C2411 C2407 1.429 . S
C2411 C2412 1.523 . S
C2412 C2396 1.368 . S
C2412 C2408 1.368 . S
C2412 C2411 1.523 . S
H2413 C2388 0.950 . S
H2414 C2390 0.950 . S
H2415 C2391 0.949 . S
H2416 C2393 0.950 . S
H2417 C2395 0.950 . S
C2418 C2419 1.349 . S
C2418 C2420 1.327 . S
C2418 H2443 0.950 . S
C2419 C2418 1.349 . S
C2419 C2435 1.349 . S
C2420 C2418 1.327 . S
C2420 C2439 1.429 . S
C2420 H2444 0.950 . S
C2421 C2438 1.574 . S
C2421 C2440 1.368 . S
C2421 H2445 0.949 . S
H2422 C2426 0.949 . S
C2423 C2424 1.349 . S
C2423 C2425 1.327 . S
C2423 H2446 0.950 . S
C2424 C2423 1.349 . S
C2424 C2436 1.349 . S
C2425 C2423 1.327 . S
C2425 C2441 1.429 . S
C2425 H2447 0.950 . S
C2426 H2422 0.949 . S
C2426 C2434 1.574 . S
C2426 C2442 1.368 . S
H2427 C2435 0.950 . S
H2428 C2433 0.950 . S
H2429 C2434 0.949 . S
H2430 C2436 0.950 . S
H2431 C2437 0.950 . S
H2432 C2438 0.949 . S
C2433 H2428 0.950 . S
C2433 C2435 1.327 . S
C2433 C2439 1.429 . S
C2434 C2426 1.574 . S
C2434 H2429 0.949 . S
C2434 C2440 1.368 . S
C2435 C2419 1.349 . S
C2435 H2427 0.950 . S
C2435 C2433 1.327 . S
C2436 C2424 1.349 . S
C2436 H2430 0.950 . S
C2436 C2437 1.327 . S
C2437 H2431 0.950 . S
C2437 C2436 1.327 . S
C2437 C2441 1.429 . S
C2438 C2421 1.574 . S
C2438 H2432 0.949 . S
C2438 C2442 1.368 . S
C2439 C2420 1.429 . S
C2439 C2433 1.429 . S
C2439 C2440 1.523 . S
C2440 C2421 1.368 . S
C2440 C2434 1.368 . S
C2440 C2439 1.523 . S
C2441 C2425 1.429 . S
C2441 C2437 1.429 . S
C2441 C2442 1.523 . S
C2442 C2426 1.368 . S
C2442 C2438 1.368 . S
C2442 C2441 1.523 . S
H2443 C2418 0.950 . S
H2444 C2420 0.950 . S
H2445 C2421 0.949 . S
H2446 C2423 0.950 . S
H2447 C2425 0.950 . S
C2448 C2449 1.349 . S
C2448 C2450 1.327 . S
C2448 H2473 0.950 . S
C2449 C2448 1.349 . S
C2449 C2465 1.349 . S
C2450 C2448 1.327 . S
C2450 C2469 1.429 . S
C2450 H2474 0.950 . S
C2451 C2468 1.574 1_455 S
C2451 C2470 1.368 . S
C2451 H2475 0.949 . S
H2452 C2456 0.949 . S
C2453 C2454 1.349 . S
C2453 C2455 1.327 . S
C2453 H2476 0.950 . S
C2454 C2453 1.349 . S
C2454 C2466 1.349 . S
C2455 C2453 1.327 . S
C2455 C2471 1.429 . S
C2455 H2477 0.950 . S
C2456 H2452 0.949 . S
C2456 C2464 1.574 1_655 S
C2456 C2472 1.368 . S
H2457 C2465 0.950 . S
H2458 C2463 0.950 . S
H2459 C2464 0.949 . S
H2460 C2466 0.950 . S
H2461 C2467 0.950 . S
H2462 C2468 0.949 . S
C2463 H2458 0.950 . S
C2463 C2465 1.327 . S
C2463 C2469 1.429 . S
C2464 C2456 1.574 1_455 S
C2464 H2459 0.949 . S
C2464 C2470 1.368 . S
C2465 C2449 1.349 . S
C2465 H2457 0.950 . S
C2465 C2463 1.327 . S
C2466 C2454 1.349 . S
C2466 H2460 0.950 . S
C2466 C2467 1.327 . S
C2467 H2461 0.950 . S
C2467 C2466 1.327 . S
C2467 C2471 1.429 . S
C2468 C2451 1.574 1_655 S
C2468 H2462 0.949 . S
C2468 C2472 1.368 . S
C2469 C2450 1.429 . S
C2469 C2463 1.429 . S
C2469 C2470 1.523 . S
C2470 C2451 1.368 . S
C2470 C2464 1.368 . S
C2470 C2469 1.523 . S
C2471 C2455 1.429 . S
C2471 C2467 1.429 . S
C2471 C2472 1.523 . S
C2472 C2456 1.368 . S
C2472 C2468 1.368 . S
C2472 C2471 1.523 . S
H2473 C2448 0.950 . S
H2474 C2450 0.950 . S
H2475 C2451 0.949 . S
H2476 C2453 0.950 . S
H2477 C2455 0.950 . S
C2478 C2479 1.349 . S
C2478 C2480 1.327 . S
C2478 H2503 0.950 . S
C2479 C2478 1.349 . S
C2479 C2495 1.349 . S
C2480 C2478 1.327 . S
C2480 C2499 1.429 . S
C2480 H2504 0.950 . S
C2481 C2498 1.574 . S
C2481 C2500 1.368 . S
C2481 H2505 0.949 . S
H2482 C2486 0.949 . S
C2483 C2484 1.349 . S
C2483 C2485 1.327 . S
C2483 H2506 0.950 . S
C2484 C2483 1.349 . S
C2484 C2496 1.349 . S
C2485 C2483 1.327 . S
C2485 C2501 1.429 . S
C2485 H2507 0.950 . S
C2486 H2482 0.949 . S
C2486 C2494 1.574 . S
C2486 C2502 1.368 . S
H2487 C2495 0.950 . S
H2488 C2493 0.950 . S
H2489 C2494 0.949 . S
H2490 C2496 0.950 . S
H2491 C2497 0.950 . S
H2492 C2498 0.949 . S
C2493 H2488 0.950 . S
C2493 C2495 1.327 . S
C2493 C2499 1.429 . S
C2494 C2486 1.574 . S
C2494 H2489 0.949 . S
C2494 C2500 1.368 . S
C2495 C2479 1.349 . S
C2495 H2487 0.950 . S
C2495 C2493 1.327 . S
C2496 C2484 1.349 . S
C2496 H2490 0.950 . S
C2496 C2497 1.327 . S
C2497 H2491 0.950 . S
C2497 C2496 1.327 . S
C2497 C2501 1.429 . S
C2498 C2481 1.574 . S
C2498 H2492 0.949 . S
C2498 C2502 1.368 . S
C2499 C2480 1.429 . S
C2499 C2493 1.429 . S
C2499 C2500 1.523 . S
C2500 C2481 1.368 . S
C2500 C2494 1.368 . S
C2500 C2499 1.523 . S
C2501 C2485 1.429 . S
C2501 C2497 1.429 . S
C2501 C2502 1.523 . S
C2502 C2486 1.368 . S
C2502 C2498 1.368 . S
C2502 C2501 1.523 . S
H2503 C2478 0.950 . S
H2504 C2480 0.950 . S
H2505 C2481 0.949 . S
H2506 C2483 0.950 . S
H2507 C2485 0.950 . S
C2508 C2509 1.349 . S
C2508 C2510 1.327 . S
C2508 H2533 0.950 . S
C2509 C2508 1.349 . S
C2509 C2525 1.349 . S
C2510 C2508 1.327 . S
C2510 C2529 1.429 . S
C2510 H2534 0.950 . S
C2511 C2528 1.574 1_565 S
C2511 C2530 1.368 . S
C2511 H2535 0.949 . S
H2512 C2516 0.949 . S
C2513 C2514 1.349 . S
C2513 C2515 1.327 . S
C2513 H2536 0.950 . S
C2514 C2513 1.349 . S
C2514 C2526 1.349 . S
C2515 C2513 1.327 . S
C2515 C2531 1.429 . S
C2515 H2537 0.950 . S
C2516 H2512 0.949 . S
C2516 C2524 1.574 1_545 S
C2516 C2532 1.368 . S
H2517 C2525 0.950 . S
H2518 C2523 0.950 . S
H2519 C2524 0.949 . S
H2520 C2526 0.950 . S
H2521 C2527 0.950 . S
H2522 C2528 0.949 . S
C2523 H2518 0.950 . S
C2523 C2525 1.327 . S
C2523 C2529 1.429 . S
C2524 C2516 1.574 1_565 S
C2524 H2519 0.949 . S
C2524 C2530 1.368 . S
C2525 C2509 1.349 . S
C2525 H2517 0.950 . S
C2525 C2523 1.327 . S
C2526 C2514 1.349 . S
C2526 H2520 0.950 . S
C2526 C2527 1.327 . S
C2527 H2521 0.950 . S
C2527 C2526 1.327 . S
C2527 C2531 1.429 . S
C2528 C2511 1.574 1_545 S
C2528 H2522 0.949 . S
C2528 C2532 1.368 . S
C2529 C2510 1.429 . S
C2529 C2523 1.429 . S
C2529 C2530 1.523 . S
C2530 C2511 1.368 . S
C2530 C2524 1.368 . S
C2530 C2529 1.523 . S
C2531 C2515 1.429 . S
C2531 C2527 1.429 . S
C2531 C2532 1.523 . S
C2532 C2516 1.368 . S
C2532 C2528 1.368 . S
C2532 C2531 1.523 . S
H2533 C2508 0.950 . S
H2534 C2510 0.950 . S
H2535 C2511 0.949 . S
H2536 C2513 0.950 . S
H2537 C2515 0.950 . S
C2538 C2539 1.349 . S
C2538 C2540 1.327 . S
C2538 H2563 0.950 . S
C2539 C2538 1.349 . S
C2539 C2555 1.349 . S
C2540 C2538 1.327 . S
C2540 C2559 1.429 . S
C2540 H2564 0.950 . S
C2541 C2558 1.574 1_545 S
C2541 C2560 1.368 . S
C2541 H2565 0.949 . S
H2542 C2546 0.949 . S
C2543 C2544 1.349 . S
C2543 C2545 1.327 . S
C2543 H2566 0.950 . S
C2544 C2543 1.349 . S
C2544 C2556 1.349 . S
C2545 C2543 1.327 . S
C2545 C2561 1.429 . S
C2545 H2567 0.950 . S
C2546 H2542 0.949 . S
C2546 C2554 1.574 1_565 S
C2546 C2562 1.368 . S
H2547 C2555 0.950 . S
H2548 C2553 0.950 . S
H2549 C2554 0.949 . S
H2550 C2556 0.950 . S
H2551 C2557 0.950 . S
H2552 C2558 0.949 . S
C2553 H2548 0.950 . S
C2553 C2555 1.327 . S
C2553 C2559 1.429 . S
C2554 C2546 1.574 1_545 S
C2554 H2549 0.949 . S
C2554 C2560 1.368 . S
C2555 C2539 1.349 . S
C2555 H2547 0.950 . S
C2555 C2553 1.327 . S
C2556 C2544 1.349 . S
C2556 H2550 0.950 . S
C2556 C2557 1.327 . S
C2557 H2551 0.950 . S
C2557 C2556 1.327 . S
C2557 C2561 1.429 . S
C2558 C2541 1.574 1_565 S
C2558 H2552 0.949 . S
C2558 C2562 1.368 . S
C2559 C2540 1.429 . S
C2559 C2553 1.429 . S
C2559 C2560 1.523 . S
C2560 C2541 1.368 . S
C2560 C2554 1.368 . S
C2560 C2559 1.523 . S
C2561 C2545 1.429 . S
C2561 C2557 1.429 . S
C2561 C2562 1.523 . S
C2562 C2546 1.368 . S
C2562 C2558 1.368 . S
C2562 C2561 1.523 . S
H2563 C2538 0.950 . S
H2564 C2540 0.950 . S
H2565 C2541 0.949 . S
H2566 C2543 0.950 . S
H2567 C2545 0.950 . S
C2568 C2569 1.349 . S
C2568 C2570 1.327 . S
C2568 H2593 0.950 . S
C2569 C2568 1.349 . S
C2569 C2585 1.349 . S
C2570 C2568 1.327 . S
C2570 C2589 1.429 . S
C2570 H2594 0.950 . S
C2571 C2588 1.574 1_455 S
C2571 C2590 1.368 . S
C2571 H2595 0.949 . S
H2572 C2576 0.949 . S
C2573 C2574 1.349 . S
C2573 C2575 1.327 . S
C2573 H2596 0.950 . S
C2574 C2573 1.349 . S
C2574 C2586 1.349 . S
C2575 C2573 1.327 . S
C2575 C2591 1.429 . S
C2575 H2597 0.950 . S
C2576 H2572 0.949 . S
C2576 C2584 1.574 1_655 S
C2576 C2592 1.368 . S
H2577 C2585 0.950 . S
H2578 C2583 0.950 . S
H2579 C2584 0.949 . S
H2580 C2586 0.950 . S
H2581 C2587 0.950 . S
H2582 C2588 0.949 . S
C2583 H2578 0.950 . S
C2583 C2585 1.327 . S
C2583 C2589 1.429 . S
C2584 C2576 1.574 1_455 S
C2584 H2579 0.949 . S
C2584 C2590 1.368 . S
C2585 C2569 1.349 . S
C2585 H2577 0.950 . S
C2585 C2583 1.327 . S
C2586 C2574 1.349 . S
C2586 H2580 0.950 . S
C2586 C2587 1.327 . S
C2587 H2581 0.950 . S
C2587 C2586 1.327 . S
C2587 C2591 1.429 . S
C2588 C2571 1.574 1_655 S
C2588 H2582 0.949 . S
C2588 C2592 1.368 . S
C2589 C2570 1.429 . S
C2589 C2583 1.429 . S
C2589 C2590 1.523 . S
C2590 C2571 1.368 . S
C2590 C2584 1.368 . S
C2590 C2589 1.523 . S
C2591 C2575 1.429 . S
C2591 C2587 1.429 . S
C2591 C2592 1.523 . S
C2592 C2576 1.368 . S
C2592 C2588 1.368 . S
C2592 C2591 1.523 . S
H2593 C2568 0.950 . S
H2594 C2570 0.950 . S
H2595 C2571 0.949 . S
H2596 C2573 0.950 . S
H2597 C2575 0.950 . S
C2598 C2599 1.349 . S
C2598 C2600 1.327 . S
C2598 H2623 0.950 . S
C2599 C2598 1.349 . S
C2599 C2615 1.349 . S
C2600 C2598 1.327 . S
C2600 C2619 1.429 . S
C2600 H2624 0.950 . S
C2601 C2618 1.574 . S
C2601 C2620 1.368 . S
C2601 H2625 0.949 . S
H2602 C2606 0.949 . S
C2603 C2604 1.349 . S
C2603 C2605 1.327 . S
C2603 H2626 0.950 . S
C2604 C2603 1.349 . S
C2604 C2616 1.349 . S
C2605 C2603 1.327 . S
C2605 C2621 1.429 . S
C2605 H2627 0.950 . S
C2606 H2602 0.949 . S
C2606 C2614 1.574 . S
C2606 C2622 1.368 . S
H2607 C2615 0.950 . S
H2608 C2613 0.950 . S
H2609 C2614 0.949 . S
H2610 C2616 0.950 . S
H2611 C2617 0.950 . S
H2612 C2618 0.949 . S
C2613 H2608 0.950 . S
C2613 C2615 1.327 . S
C2613 C2619 1.429 . S
C2614 C2606 1.574 . S
C2614 H2609 0.949 . S
C2614 C2620 1.368 . S
C2615 C2599 1.349 . S
C2615 H2607 0.950 . S
C2615 C2613 1.327 . S
C2616 C2604 1.349 . S
C2616 H2610 0.950 . S
C2616 C2617 1.327 . S
C2617 H2611 0.950 . S
C2617 C2616 1.327 . S
C2617 C2621 1.429 . S
C2618 C2601 1.574 . S
C2618 H2612 0.949 . S
C2618 C2622 1.368 . S
C2619 C2600 1.429 . S
C2619 C2613 1.429 . S
C2619 C2620 1.523 . S
C2620 C2601 1.368 . S
C2620 C2614 1.368 . S
C2620 C2619 1.523 . S
C2621 C2605 1.429 . S
C2621 C2617 1.429 . S
C2621 C2622 1.523 . S
C2622 C2606 1.368 . S
C2622 C2618 1.368 . S
C2622 C2621 1.523 . S
H2623 C2598 0.950 . S
H2624 C2600 0.950 . S
H2625 C2601 0.949 . S
H2626 C2603 0.950 . S
H2627 C2605 0.950 . S
C469 C39 1.149 . S
C474 C0 1.149 . S
C499 C52 1.150 . S
C504 C13 1.149 . S
C529 C65 1.150 . S
C534 C26 1.150 . S
C559 C78 1.149 . S
C564 C117 1.150 . S
C589 C91 1.149 . S
C594 C130 1.150 . S
C619 C143 1.150 . S
C624 C104 1.149 . S
C649 C156 1.126 . S
C654 C195 1.124 . S
C679 C169 1.126 . S
C684 C208 1.124 . S
C709 C182 1.126 . S
C714 C221 1.124 . S
C739 C234 1.118 . S
C744 C273 1.119 . S
C769 C286 1.120 . S
C774 C247 1.117 . S
C799 C260 1.118 . S
C804 C299 1.119 . S
C829 C312 1.117 . S
C834 C351 1.118 . S
C859 C325 1.118 . S
C864 C364 1.119 . S
C889 C377 1.120 . S
C894 C338 1.117 . S
C919 C429 1.125 . S
C924 C390 1.126 . S
C949 C442 1.125 . S
C954 C403 1.126 . S
C979 C455 1.124 . S
C984 C416 1.126 . S
C1009 C151 1.224 . S
C1014 C5 1.175 . S
C1039 C18 1.175 . S
C1044 C125 1.224 . S
C1069 C31 1.175 . S
C1074 C138 1.224 . S
C1099 C99 1.242 . S
C1104 C44 1.192 . S
C1129 C57 1.193 . S
C1134 C112 1.242 . S
C1159 C86 1.241 . S
C1164 C70 1.192 . S
C1189 C83 1.175 . S
C1194 C73 1.224 . S
C1219 C96 1.175 . S
C1224 C47 1.224 . S
C1249 C60 1.224 . S
C1254 C109 1.175 . S
C1279 C21 1.242 . S
C1284 C122 1.192 . S
C1309 C34 1.242 . S
C1314 C135 1.192 . S
C1339 C148 1.193 . S
C1344 C8 1.242 . S
C1369 C161 1.124 . S
C1374 C307 1.164 . S
C1399 C281 1.166 . S
C1404 C174 1.121 . S
C1429 C294 1.166 . S
C1434 C187 1.121 . S
C1459 C200 1.170 . S
C1464 C255 1.214 . S
C1489 C268 1.214 . S
C1494 C213 1.170 . S
C1519 C226 1.170 . S
C1524 C242 1.214 . S
C1549 C239 1.163 . S
C1554 C229 1.206 . S
C1579 C252 1.163 . S
C1584 C203 1.207 . S
C1609 C216 1.207 . S
C1614 C265 1.163 . S
C1639 C177 1.262 . S
C1644 C278 1.218 . S
C1669 C190 1.262 . S
C1674 C291 1.217 . S
C1699 C304 1.215 . S
C1704 C164 1.265 . S
C1729 C463 1.207 . S
C1734 C317 1.163 . S
C1759 C330 1.164 . S
C1764 C437 1.207 . S
C1789 C343 1.163 . S
C1794 C450 1.207 . S
C1819 C356 1.215 . S
C1824 C411 1.265 . S
C1849 C424 1.262 . S
C1854 C369 1.217 . S
C1879 C382 1.214 . S
C1884 C398 1.264 . S
C1909 C385 1.166 . S
C1914 C395 1.121 . S
C1939 C359 1.166 . S
C1944 C408 1.121 . S
C1969 C372 1.166 . S
C1974 C421 1.121 . S
C1999 C333 1.214 . S
C2004 C434 1.170 . S
C2029 C346 1.214 . S
C2034 C447 1.170 . S
C2059 C320 1.215 . S
C2064 C460 1.171 . S
C2089 C387 1.368 . S
C2094 C10 1.369 . S
C2119 C23 1.367 . S
C2124 C361 1.368 . S
C2149 C374 1.368 . S
C2154 C36 1.368 . S
C2179 C49 1.367 . S
C2184 C179 1.367 . S
C2209 C192 1.367 . S
C2214 C62 1.367 . S
C2239 C75 1.367 . S
C2244 C166 1.368 . S
C2269 C88 1.367 . S
C2274 C309 1.369 . S
C2299 C283 1.367 . S
C2304 C101 1.368 . S
C2329 C114 1.367 . S
C2334 C296 1.369 . S
C2359 C127 1.367 . S
C2364 C413 1.367 . S
C2389 C140 1.367 . S
C2394 C426 1.367 . S
C2419 C400 1.367 . S
C2424 C153 1.367 . S
C2449 C335 1.355 . S
C2454 C205 1.355 . S
C2479 C348 1.356 . S
C2484 C218 1.356 . S
C2509 C322 1.356 . S
C2514 C231 1.355 . S
C2539 C244 1.355 . S
C2544 C465 1.355 . S
C2569 C439 1.355 . S
C2574 C257 1.356 . S
C2599 C270 1.355 . S
C2604 C452 1.355 . S
