# Generated by pormake.
# Topology cbo, (4)-cn, num edge types: 1
# Building blocks:
#     Node 0, Type 0, BuildingBlock: CEKHIL_clean_sbu_0, # of connection points: 4
#     Node 1, Type 0, BuildingBlock: CEKHIL_clean_sbu_0, # of connection points: 4
#     Node 2, Type 0, BuildingBlock: CEKHIL_clean_sbu_0, # of connection points: 4
#     Node 3, Type 0, BuildingBlock: CEKHIL_clean_sbu_0, # of connection points: 4
#     Node 4, Type 0, BuildingBlock: CEKHIL_clean_sbu_0, # of connection points: 4
#     Node 5, Type 0, BuildingBlock: CEKHIL_clean_sbu_0, # of connection points: 4
#     Node 6, Type 0, BuildingBlock: CEKHIL_clean_sbu_0, # of connection points: 4
#     Node 7, Type 0, BuildingBlock: CEKHIL_clean_sbu_0, # of connection points: 4
#     Node 8, Type 0, BuildingBlock: CEKHIL_clean_sbu_0, # of connection points: 4
#     Node 9, Type 0, BuildingBlock: CEKHIL_clean_sbu_0, # of connection points: 4
#     Node 10, Type 0, BuildingBlock: CEKHIL_clean_sbu_0, # of connection points: 4
#     Node 11, Type 0, BuildingBlock: CEKHIL_clean_sbu_0, # of connection points: 4
#     Node 12, Type 0, BuildingBlock: CEKHIL_clean_sbu_0, # of connection points: 4
#     Node 13, Type 0, BuildingBlock: CEKHIL_clean_sbu_0, # of connection points: 4
#     Node 14, Type 0, BuildingBlock: CEKHIL_clean_sbu_0, # of connection points: 4
#     Node 15, Type 0, BuildingBlock: CEKHIL_clean_sbu_0, # of connection points: 4
#     Node 16, Type 0, BuildingBlock: CEKHIL_clean_sbu_0, # of connection points: 4
#     Node 17, Type 0, BuildingBlock: CEKHIL_clean_sbu_0, # of connection points: 4
#     Node 18, Type 0, BuildingBlock: CEKHIL_clean_sbu_0, # of connection points: 4
#     Node 19, Type 0, BuildingBlock: CEKHIL_clean_sbu_0, # of connection points: 4
#     Node 20, Type 0, BuildingBlock: CEKHIL_clean_sbu_0, # of connection points: 4
#     Node 21, Type 0, BuildingBlock: CEKHIL_clean_sbu_0, # of connection points: 4
#     Node 22, Type 0, BuildingBlock: CEKHIL_clean_sbu_0, # of connection points: 4
#     Node 23, Type 0, BuildingBlock: CEKHIL_clean_sbu_0, # of connection points: 4
#     Edge 24, Type (0, 0), BuildingBlock: KIFKEQ_clean_linker_1, # of connection points: 2
#     Edge 25, Type (0, 0), BuildingBlock: KIFKEQ_clean_linker_1, # of connection points: 2
#     Edge 26, Type (0, 0), BuildingBlock: KIFKEQ_clean_linker_1, # of connection points: 2
#     Edge 27, Type (0, 0), BuildingBlock: KIFKEQ_clean_linker_1, # of connection points: 2
#     Edge 28, Type (0, 0), BuildingBlock: KIFKEQ_clean_linker_1, # of connection points: 2
#     Edge 29, Type (0, 0), BuildingBlock: KIFKEQ_clean_linker_1, # of connection points: 2
#     Edge 30, Type (0, 0), BuildingBlock: KIFKEQ_clean_linker_1, # of connection points: 2
#     Edge 31, Type (0, 0), BuildingBlock: KIFKEQ_clean_linker_1, # of connection points: 2
#     Edge 32, Type (0, 0), BuildingBlock: KIFKEQ_clean_linker_1, # of connection points: 2
#     Edge 33, Type (0, 0), BuildingBlock: KIFKEQ_clean_linker_1, # of connection points: 2
#     Edge 34, Type (0, 0), BuildingBlock: KIFKEQ_clean_linker_1, # of connection points: 2
#     Edge 35, Type (0, 0), BuildingBlock: KIFKEQ_clean_linker_1, # of connection points: 2
#     Edge 36, Type (0, 0), BuildingBlock: KIFKEQ_clean_linker_1, # of connection points: 2
#     Edge 37, Type (0, 0), BuildingBlock: KIFKEQ_clean_linker_1, # of connection points: 2
#     Edge 38, Type (0, 0), BuildingBlock: KIFKEQ_clean_linker_1, # of connection points: 2
#     Edge 39, Type (0, 0), BuildingBlock: KIFKEQ_clean_linker_1, # of connection points: 2
#     Edge 40, Type (0, 0), BuildingBlock: KIFKEQ_clean_linker_1, # of connection points: 2
#     Edge 41, Type (0, 0), BuildingBlock: KIFKEQ_clean_linker_1, # of connection points: 2
#     Edge 42, Type (0, 0), BuildingBlock: KIFKEQ_clean_linker_1, # of connection points: 2
#     Edge 43, Type (0, 0), BuildingBlock: KIFKEQ_clean_linker_1, # of connection points: 2
#     Edge 44, Type (0, 0), BuildingBlock: KIFKEQ_clean_linker_1, # of connection points: 2
#     Edge 45, Type (0, 0), BuildingBlock: KIFKEQ_clean_linker_1, # of connection points: 2
#     Edge 46, Type (0, 0), BuildingBlock: KIFKEQ_clean_linker_1, # of connection points: 2
#     Edge 47, Type (0, 0), BuildingBlock: KIFKEQ_clean_linker_1, # of connection points: 2
#     Edge 48, Type (0, 0), BuildingBlock: KIFKEQ_clean_linker_1, # of connection points: 2
#     Edge 49, Type (0, 0), BuildingBlock: KIFKEQ_clean_linker_1, # of connection points: 2
#     Edge 50, Type (0, 0), BuildingBlock: KIFKEQ_clean_linker_1, # of connection points: 2
#     Edge 51, Type (0, 0), BuildingBlock: KIFKEQ_clean_linker_1, # of connection points: 2
#     Edge 52, Type (0, 0), BuildingBlock: KIFKEQ_clean_linker_1, # of connection points: 2
#     Edge 53, Type (0, 0), BuildingBlock: KIFKEQ_clean_linker_1, # of connection points: 2
#     Edge 54, Type (0, 0), BuildingBlock: KIFKEQ_clean_linker_1, # of connection points: 2
#     Edge 55, Type (0, 0), BuildingBlock: KIFKEQ_clean_linker_1, # of connection points: 2
#     Edge 56, Type (0, 0), BuildingBlock: KIFKEQ_clean_linker_1, # of connection points: 2
#     Edge 57, Type (0, 0), BuildingBlock: KIFKEQ_clean_linker_1, # of connection points: 2
#     Edge 58, Type (0, 0), BuildingBlock: KIFKEQ_clean_linker_1, # of connection points: 2
#     Edge 59, Type (0, 0), BuildingBlock: KIFKEQ_clean_linker_1, # of connection points: 2
#     Edge 60, Type (0, 0), BuildingBlock: KIFKEQ_clean_linker_1, # of connection points: 2
#     Edge 61, Type (0, 0), BuildingBlock: KIFKEQ_clean_linker_1, # of connection points: 2
#     Edge 62, Type (0, 0), BuildingBlock: KIFKEQ_clean_linker_1, # of connection points: 2
#     Edge 63, Type (0, 0), BuildingBlock: KIFKEQ_clean_linker_1, # of connection points: 2
#     Edge 64, Type (0, 0), BuildingBlock: KIFKEQ_clean_linker_1, # of connection points: 2
#     Edge 65, Type (0, 0), BuildingBlock: KIFKEQ_clean_linker_1, # of connection points: 2
#     Edge 66, Type (0, 0), BuildingBlock: KIFKEQ_clean_linker_1, # of connection points: 2
#     Edge 67, Type (0, 0), BuildingBlock: KIFKEQ_clean_linker_1, # of connection points: 2
#     Edge 68, Type (0, 0), BuildingBlock: KIFKEQ_clean_linker_1, # of connection points: 2
#     Edge 69, Type (0, 0), BuildingBlock: KIFKEQ_clean_linker_1, # of connection points: 2
#     Edge 70, Type (0, 0), BuildingBlock: KIFKEQ_clean_linker_1, # of connection points: 2
#     Edge 71, Type (0, 0), BuildingBlock: KIFKEQ_clean_linker_1, # of connection points: 2
# Relax obj value: 0.197
# Max RMSD: 0.203
# Mean RMSD: 0.197
data_MOF--net-cbo--node1-CEKHIL_clean_sbu_0--edge1-KIFKEQ_clean_linker_1
_symmetry_space_group_name_H-M    P1
_symmetry_Int_Tables_number       1
_symmetry_cell_setting            triclinic
loop_
_symmetry_equiv_pos_as_xyz
'x, y, z'
_cell_length_a     52.768832
_cell_length_b     52.26108
_cell_length_c     51.683828
_cell_angle_alpha  89.99615
_cell_angle_beta   90.008147
_cell_angle_gamma 89.964203
loop_
_atom_site_label
_atom_site_type_symbol
_atom_site_fract_x
_atom_site_fract_y
_atom_site_fract_z
_atom_type_partial_charge
Co0 Co 0.09672 0.18542 0.3184 0.0
O1 O 0.06122 0.19195 0.32271 0.0
O2 O 0.07811 0.15343 0.31769 0.0
C3 C 0.10375 0.21623 0.28886 0.0
O4 O 0.13249 0.17193 0.31187 0.0
Co5 Co 0.13553 0.22768 0.33405 0.0
O6 O 0.15981 0.20477 0.3162 0.0
C7 C 0.10982 0.19783 0.37437 0.0
C8 C 0.05791 0.16747 0.32051 0.0
C9 C 0.15487 0.18169 0.30998 0.0
O10 O 0.10126 0.18235 0.35709 0.0
O11 O 0.12169 0.21848 0.36889 0.0
O12 O 0.09417 0.19442 0.28182 0.0
O13 O 0.10601 0.21959 0.3135 0.0
Co14 Co 0.40625 0.81441 0.81687 0.0
O15 O 0.44219 0.80974 0.81915 0.0
O16 O 0.42314 0.84747 0.8169 0.0
C17 C 0.39947 0.78458 0.78622 0.0
O18 O 0.36943 0.82589 0.81268 0.0
Co19 Co 0.37088 0.76909 0.83218 0.0
O20 O 0.34475 0.79082 0.81552 0.0
C21 C 0.39611 0.79904 0.87283 0.0
C22 C 0.44415 0.83442 0.81811 0.0
C23 C 0.34779 0.81454 0.81059 0.0
O24 O 0.4034 0.81548 0.85585 0.0
O25 O 0.38506 0.77802 0.86698 0.0
O26 O 0.40734 0.80727 0.77979 0.0
O27 O 0.39885 0.78 0.81075 0.0
Co28 Co 0.59687 0.30965 0.67479 0.0
O29 O 0.56198 0.3024 0.66746 0.0
O30 O 0.57718 0.34097 0.67614 0.0
C31 C 0.60353 0.2777 0.70312 0.0
O32 O 0.63171 0.32382 0.68422 0.0
Co33 Co 0.63785 0.26945 0.65902 0.0
O34 O 0.66141 0.29379 0.67584 0.0
C35 C 0.61195 0.29947 0.61915 0.0
C36 C 0.55776 0.32667 0.67053 0.0
C37 C 0.65479 0.31571 0.6843 0.0
O38 O 0.60348 0.31478 0.63662 0.0
O39 O 0.62352 0.27859 0.62439 0.0
O40 O 0.59252 0.29867 0.71061 0.0
O41 O 0.60716 0.27562 0.67851 0.0
Co42 Co 0.90277 0.68504 0.17342 0.0
O43 O 0.93767 0.6926 0.16647 0.0
O44 O 0.92256 0.65373 0.17386 0.0
C45 C 0.89602 0.71605 0.20278 0.0
O46 O 0.86789 0.67056 0.1823 0.0
Co47 Co 0.86187 0.72574 0.15882 0.0
O48 O 0.8383 0.70096 0.17494 0.0
C49 C 0.88774 0.69691 0.11804 0.0
C50 C 0.94197 0.66827 0.16883 0.0
C51 C 0.84483 0.67875 0.18266 0.0
O52 O 0.8963 0.68114 0.13506 0.0
O53 O 0.87609 0.71758 0.12391 0.0
O54 O 0.907 0.69485 0.20962 0.0
O55 O 0.89247 0.71892 0.17824 0.0
Co56 Co 0.32915 0.09906 0.18303 0.0
O57 O 0.33691 0.0634 0.18632 0.0
O58 O 0.33219 0.08374 0.14898 0.0
C59 C 0.29748 0.10016 0.21223 0.0
O60 O 0.32019 0.13571 0.17257 0.0
Co61 Co 0.33745 0.13485 0.23032 0.0
O62 O 0.31887 0.15986 0.20862 0.0
C63 C 0.3815 0.11813 0.19965 0.0
C64 C 0.33678 0.06248 0.16125 0.0
C65 C 0.31536 0.15691 0.18439 0.0
O66 O 0.36651 0.10741 0.18327 0.0
O67 O 0.37374 0.12856 0.22062 0.0
O68 O 0.29328 0.09233 0.18878 0.0
O69 O 0.321 0.10411 0.21799 0.0
Co70 Co 0.17076 0.89383 0.68338 0.0
O71 O 0.16389 0.92953 0.68812 0.0
O72 O 0.16905 0.91063 0.65005 0.0
C73 C 0.20162 0.89019 0.71322 0.0
O74 O 0.17915 0.8577 0.67132 0.0
Co75 Co 0.15912 0.8562 0.72811 0.0
O76 O 0.1745 0.83037 0.70474 0.0
C77 C 0.11703 0.87804 0.69849 0.0
C78 C 0.16468 0.93146 0.6631 0.0
C79 C 0.18064 0.83521 0.68139 0.0
O80 O 0.13318 0.88668 0.68204 0.0
O81 O 0.12359 0.86742 0.71978 0.0
O82 O 0.20652 0.8992 0.69035 0.0
O83 O 0.17784 0.8867 0.71832 0.0
Co84 Co 0.83003 0.39481 0.81447 0.0
O85 O 0.83297 0.43115 0.81101 0.0
O86 O 0.83114 0.4104 0.84842 0.0
C87 C 0.79891 0.38999 0.78518 0.0
O88 O 0.82529 0.3576 0.82525 0.0
Co89 Co 0.84321 0.35977 0.76801 0.0
O90 O 0.82699 0.33299 0.78959 0.0
C91 C 0.88447 0.38328 0.79785 0.0
C92 C 0.83221 0.43208 0.83608 0.0
C93 C 0.82264 0.33592 0.81367 0.0
O94 O 0.86811 0.39105 0.81455 0.0
O95 O 0.87823 0.37231 0.77664 0.0
O96 O 0.79375 0.39731 0.80858 0.0
O97 O 0.82275 0.38846 0.77946 0.0
Co98 Co 0.66919 0.60117 0.31284 0.0
O99 O 0.66584 0.56486 0.30923 0.0
O100 O 0.6682 0.58535 0.34673 0.0
C101 C 0.70014 0.60576 0.2833 0.0
O102 O 0.67438 0.63832 0.32373 0.0
Co103 Co 0.65595 0.63649 0.26661 0.0
O104 O 0.67257 0.66305 0.28814 0.0
C105 C 0.61469 0.61349 0.29687 0.0
C106 C 0.66679 0.56376 0.33427 0.0
C107 C 0.67708 0.66002 0.31219 0.0
O108 O 0.63115 0.60535 0.31329 0.0
O109 O 0.62083 0.6245 0.27564 0.0
O110 O 0.70539 0.5983 0.30663 0.0
O111 O 0.67627 0.60758 0.27778 0.0
Co112 Co 0.19789 0.33644 0.09705 0.0
O113 O 0.20275 0.34557 0.06129 0.0
O114 O 0.16558 0.33852 0.08 0.0
C115 C 0.22754 0.30561 0.0998 0.0
O116 O 0.18518 0.32533 0.1324 0.0
Co117 Co 0.23971 0.34572 0.13803 0.0
O118 O 0.21683 0.32675 0.16159 0.0
C119 C 0.20967 0.38933 0.11947 0.0
C120 C 0.17824 0.3441 0.05919 0.0
C121 C 0.1942 0.32124 0.15513 0.0
O122 O 0.19565 0.37376 0.10663 0.0
O123 O 0.22933 0.38221 0.13208 0.0
O124 O 0.20557 0.30093 0.0895 0.0
O125 O 0.23206 0.32945 0.10503 0.0
Co126 Co 0.69747 0.16034 0.89621 0.0
O127 O 0.70123 0.15122 0.93209 0.0
O128 O 0.66465 0.15886 0.91239 0.0
C129 C 0.72777 0.19056 0.8945 0.0
O130 O 0.686 0.17148 0.86047 0.0
Co131 Co 0.74065 0.15069 0.85663 0.0
O132 O 0.7183 0.16919 0.83207 0.0
C133 C 0.71095 0.10732 0.8763 0.0
C134 C 0.67671 0.15316 0.93355 0.0
C135 C 0.69558 0.1751 0.83789 0.0
O136 O 0.69514 0.12306 0.88655 0.0
O137 O 0.73167 0.11445 0.86564 0.0
O138 O 0.70555 0.1958 0.90394 0.0
O139 O 0.73189 0.16667 0.88938 0.0
Co140 Co 0.80294 0.83408 0.39694 0.0
O141 O 0.79876 0.84354 0.43271 0.0
O142 O 0.83544 0.83467 0.41382 0.0
C143 C 0.77183 0.80472 0.39471 0.0
O144 O 0.81488 0.82232 0.36148 0.0
Co145 Co 0.76101 0.8447 0.35623 0.0
O146 O 0.78307 0.82494 0.33254 0.0
C147 C 0.79322 0.88713 0.374 0.0
C148 C 0.82317 0.84085 0.4347 0.0
C149 C 0.80556 0.81861 0.33879 0.0
O150 O 0.80669 0.87122 0.38708 0.0
O151 O 0.7732 0.88065 0.36166 0.0
O152 O 0.79368 0.79898 0.40472 0.0
O153 O 0.76843 0.82869 0.38934 0.0
Co154 Co 0.30429 0.65773 0.59986 0.0
O155 O 0.29976 0.64799 0.56422 0.0
O156 O 0.3367 0.65644 0.58278 0.0
C157 C 0.27352 0.68756 0.60169 0.0
O158 O 0.31651 0.66964 0.6352 0.0
Co159 Co 0.26221 0.64829 0.64072 0.0
O160 O 0.28389 0.66989 0.66318 0.0
C161 C 0.29194 0.60487 0.62097 0.0
C162 C 0.32418 0.65034 0.56201 0.0
C163 C 0.30675 0.67521 0.65732 0.0
O164 O 0.30735 0.62059 0.61007 0.0
O165 O 0.27148 0.61202 0.63215 0.0
O166 O 0.2954 0.69296 0.59159 0.0
O167 O 0.26999 0.66374 0.60753 0.0
Co168 Co 0.89922 0.82095 0.66878 0.0
O169 O 0.93395 0.8183 0.65799 0.0
O170 O 0.9151 0.85437 0.66971 0.0
C171 C 0.89977 0.78805 0.69679 0.0
O172 O 0.86412 0.83047 0.68239 0.0
Co173 Co 0.862 0.77635 0.65683 0.0
O174 O 0.83923 0.79551 0.68043 0.0
C175 C 0.87892 0.8103 0.61493 0.0
C176 C 0.9357 0.84264 0.6625 0.0
C177 C 0.84333 0.81852 0.68751 0.0
O178 O 0.88824 0.8259 0.63168 0.0
O179 O 0.87002 0.78829 0.62088 0.0
O180 O 0.90837 0.81033 0.70353 0.0
O181 O 0.89393 0.78562 0.67262 0.0
Co182 Co 0.59969 0.17841 0.1662 0.0
O183 O 0.56571 0.18363 0.15407 0.0
O184 O 0.58111 0.14646 0.16732 0.0
C185 C 0.60064 0.21224 0.19294 0.0
O186 O 0.63326 0.16634 0.18158 0.0
Co187 Co 0.64118 0.21904 0.1543 0.0
O188 O 0.66266 0.19731 0.17681 0.0
C189 C 0.62183 0.18606 0.11282 0.0
C190 C 0.56175 0.15966 0.15921 0.0
C191 C 0.65561 0.17557 0.18534 0.0
O192 O 0.61151 0.17137 0.12977 0.0
O193 O 0.63204 0.20755 0.11847 0.0
O194 O 0.58997 0.19104 0.20012 0.0
O195 O 0.60797 0.21324 0.16909 0.0
Co196 Co 0.3988 0.67398 0.32787 0.0
O197 O 0.43333 0.67527 0.33962 0.0
O198 O 0.4138 0.64018 0.32622 0.0
C199 C 0.40112 0.70779 0.30111 0.0
O200 O 0.3638 0.66579 0.31308 0.0
Co201 Co 0.36219 0.71904 0.34031 0.0
O202 O 0.33908 0.70077 0.31639 0.0
C203 C 0.37777 0.68361 0.38154 0.0
C204 C 0.43454 0.65105 0.33426 0.0
C205 C 0.34305 0.67803 0.30843 0.0
O206 O 0.3868 0.66816 0.36449 0.0
O207 O 0.36959 0.70603 0.37605 0.0
O208 O 0.40933 0.68554 0.29382 0.0
O209 O 0.39434 0.70957 0.32508 0.0
Co210 Co 0.10052 0.32339 0.82616 0.0
O211 O 0.0661 0.32239 0.83819 0.0
O212 O 0.08568 0.35726 0.82429 0.0
C213 C 0.09782 0.28928 0.79987 0.0
O214 O 0.1355 0.33122 0.8111 0.0
Co215 Co 0.13693 0.27811 0.83879 0.0
O216 O 0.16018 0.29624 0.81492 0.0
C217 C 0.1215 0.31391 0.87973 0.0
C218 C 0.06498 0.34658 0.83268 0.0
C219 C 0.15626 0.3189 0.8067 0.0
O220 O 0.11281 0.32946 0.8626 0.0
O221 O 0.12933 0.29133 0.87439 0.0
O222 O 0.08968 0.31148 0.7923 0.0
O223 O 0.10476 0.2878 0.8238 0.0
Co224 Co 0.66758 0.86926 0.84831 0.0
O225 O 0.6341 0.86931 0.86317 0.0
O226 O 0.64291 0.87903 0.82245 0.0
C227 C 0.68079 0.83118 0.86393 0.0
O228 O 0.69938 0.87019 0.82583 0.0
Co229 Co 0.71531 0.86959 0.88383 0.0
O230 O 0.7336 0.86331 0.85092 0.0
C231 C 0.68618 0.91712 0.87635 0.0
C232 C 0.62594 0.87594 0.84043 0.0
C233 C 0.72333 0.86621 0.82877 0.0
O234 O 0.67257 0.90623 0.85881 0.0
O235 O 0.70247 0.90504 0.89006 0.0
O236 O 0.6664 0.8321 0.84354 0.0
O237 O 0.68375 0.85269 0.87581 0.0
Co238 Co 0.83321 0.12657 0.34431 0.0
O239 O 0.86626 0.12752 0.36006 0.0
O240 O 0.85892 0.1202 0.31849 0.0
C241 C 0.81725 0.16253 0.36207 0.0
O242 O 0.80205 0.12531 0.32104 0.0
Co243 Co 0.78524 0.11988 0.3787 0.0
O244 O 0.76672 0.12444 0.34558 0.0
C245 C 0.81869 0.076 0.3696 0.0
C246 C 0.87526 0.12298 0.33713 0.0
C247 C 0.77777 0.12534 0.32366 0.0
O248 O 0.83043 0.08873 0.35196 0.0
O249 O 0.802 0.08596 0.38447 0.0
O250 O 0.83221 0.16389 0.34216 0.0
O251 O 0.81533 0.14012 0.37245 0.0
Co252 Co 0.16822 0.62947 0.14501 0.0
O253 O 0.13596 0.6304 0.12796 0.0
O254 O 0.14131 0.62253 0.16968 0.0
C255 C 0.18402 0.66587 0.12793 0.0
O256 O 0.19885 0.62814 0.16915 0.0
Co257 Co 0.21694 0.62395 0.11136 0.0
O258 O 0.23415 0.63096 0.14477 0.0
C259 C 0.18466 0.57906 0.12028 0.0
C260 C 0.12583 0.62555 0.15028 0.0
C261 C 0.22309 0.63026 0.16672 0.0
O262 O 0.17174 0.59173 0.1371 0.0
O263 O 0.20174 0.58923 0.10601 0.0
O264 O 0.16874 0.66685 0.14761 0.0
O265 O 0.18652 0.64356 0.11753 0.0
Co266 Co 0.3325 0.36555 0.64416 0.0
O267 O 0.36496 0.36465 0.62754 0.0
O268 O 0.35893 0.37424 0.66879 0.0
C269 C 0.31793 0.32798 0.62854 0.0
O270 O 0.30158 0.36717 0.66795 0.0
Co271 Co 0.28377 0.36769 0.61007 0.0
O272 O 0.26657 0.36168 0.64361 0.0
C273 C 0.31427 0.41435 0.6174 0.0
C274 C 0.37471 0.37069 0.64974 0.0
C275 C 0.27744 0.36403 0.66553 0.0
O276 O 0.32813 0.4028 0.6343 0.0
O277 O 0.29727 0.40293 0.60403 0.0
O278 O 0.33288 0.32829 0.64851 0.0
O279 O 0.31493 0.34973 0.61716 0.0
Co280 Co 0.84841 0.65414 0.88055 0.0
O281 O 0.86417 0.62105 0.8812 0.0
O282 O 0.8242 0.62883 0.8919 0.0
C283 C 0.8627 0.66596 0.8413 0.0
O284 O 0.82529 0.68542 0.88118 0.0
Co285 Co 0.88118 0.70352 0.87808 0.0
O286 O 0.84811 0.7207 0.87233 0.0
C287 C 0.87793 0.6742 0.92673 0.0
C288 C 0.84239 0.6123 0.88876 0.0
C289 C 0.82699 0.70953 0.87632 0.0
O290 O 0.85989 0.66051 0.91726 0.0
O291 O 0.89031 0.69062 0.91338 0.0
O292 O 0.84277 0.65149 0.84321 0.0
O293 O 0.87446 0.67054 0.86268 0.0
Co294 Co 0.35603 0.83878 0.11096 0.0
O295 O 0.37452 0.87027 0.11303 0.0
O296 O 0.33444 0.86708 0.10076 0.0
C297 C 0.3681 0.82325 0.14976 0.0
O298 O 0.33063 0.8094 0.10771 0.0
Co299 Co 0.38583 0.78724 0.11053 0.0
O300 O 0.35152 0.7723 0.11407 0.0
C301 C 0.38548 0.81974 0.06407 0.0
C302 C 0.35388 0.88163 0.10565 0.0
C303 C 0.33107 0.78488 0.11064 0.0
O304 O 0.36793 0.83378 0.07406 0.0
O305 O 0.39677 0.80195 0.07661 0.0
O306 O 0.34969 0.83969 0.14835 0.0
O307 O 0.38005 0.81909 0.12841 0.0
Co308 Co 0.14548 0.15555 0.61286 0.0
O309 O 0.1269 0.12412 0.61457 0.0
O310 O 0.16731 0.12725 0.6034 0.0
C311 C 0.13235 0.17126 0.65117 0.0
O312 O 0.17106 0.18478 0.61019 0.0
Co313 Co 0.11605 0.20728 0.61141 0.0
O314 O 0.15033 0.22207 0.61584 0.0
C315 C 0.11724 0.1744 0.56523 0.0
C316 C 0.14774 0.11274 0.60786 0.0
C317 C 0.17075 0.20929 0.61302 0.0
O318 O 0.13459 0.16041 0.57563 0.0
O319 O 0.10572 0.19227 0.57743 0.0
O320 O 0.15078 0.15479 0.6504 0.0
O321 O 0.12104 0.17539 0.62946 0.0
Co322 Co 0.65128 0.34107 0.38193 0.0
O323 O 0.63541 0.37412 0.3813 0.0
O324 O 0.67535 0.3669 0.39249 0.0
C325 C 0.6374 0.32769 0.34302 0.0
O326 O 0.67436 0.30972 0.38384 0.0
Co327 Co 0.61804 0.29187 0.38146 0.0
O328 O 0.65104 0.27437 0.37664 0.0
C329 C 0.62115 0.3232 0.42864 0.0
C330 C 0.65712 0.38324 0.38864 0.0
C331 C 0.67231 0.28541 0.38011 0.0
O332 O 0.63965 0.33601 0.41883 0.0
O333 O 0.60847 0.30661 0.41583 0.0
O334 O 0.65706 0.34256 0.34453 0.0
O335 O 0.62548 0.32388 0.36447 0.0
H336 H 0.18778 0.33424 0.20557 0.0
H337 H 0.16466 0.27959 0.14774 0.0
H338 H 0.16252 0.31197 0.23792 0.0
H339 H 0.14125 0.25575 0.18024 0.0
H340 H 0.0889 0.22288 0.23898 0.0
H341 H 0.10742 0.25126 0.20681 0.0
H342 H 0.16217 0.27697 0.2636 0.0
H343 H 0.14197 0.25048 0.29598 0.0
C344 C 0.17732 0.3173 0.19993 0.0
C345 C 0.17801 0.30857 0.17432 0.0
C346 C 0.16303 0.30431 0.21848 0.0
C347 C 0.14988 0.28172 0.212 0.0
C348 C 0.15052 0.27327 0.18609 0.0
C349 C 0.16411 0.2868 0.1674 0.0
C350 C 0.10469 0.23493 0.24452 0.0
C351 C 0.11412 0.2344 0.26987 0.0
C352 C 0.11554 0.25105 0.22603 0.0
C353 C 0.13665 0.26637 0.23228 0.0
C354 C 0.14571 0.26599 0.25792 0.0
C355 C 0.13429 0.25052 0.27657 0.0
H356 H 0.37847 0.73783 0.79543 0.0
H357 H 0.39618 0.79089 0.73391 0.0
H358 H 0.35804 0.70948 0.7643 0.0
H359 H 0.37549 0.76263 0.70281 0.0
H360 H 0.35437 0.6952 0.6509 0.0
H361 H 0.37898 0.71991 0.68211 0.0
H362 H 0.31895 0.71157 0.73827 0.0
H363 H 0.29449 0.68668 0.70739 0.0
C364 C 0.37813 0.74337 0.77523 0.0
C365 C 0.38879 0.76663 0.7671 0.0
C366 C 0.36633 0.72719 0.75744 0.0
C367 C 0.36506 0.7339 0.73115 0.0
C368 C 0.3764 0.75683 0.72291 0.0
C369 C 0.38812 0.77306 0.74073 0.0
C370 C 0.34651 0.69843 0.66998 0.0
C371 C 0.32241 0.68897 0.6766 0.0
C372 C 0.36056 0.71271 0.68778 0.0
C373 C 0.35088 0.71768 0.71261 0.0
C374 C 0.32705 0.70779 0.71939 0.0
C375 C 0.31296 0.69364 0.7016 0.0
H376 H 0.58704 0.26794 0.7519 0.0
H377 H 0.64449 0.24666 0.69656 0.0
H378 H 0.60648 0.24007 0.784 0.0
H379 H 0.66536 0.22067 0.72898 0.0
H380 H 0.69255 0.16338 0.78671 0.0
H381 H 0.66728 0.18485 0.75376 0.0
H382 H 0.63982 0.23795 0.81173 0.0
H383 H 0.66343 0.21493 0.84469 0.0
C384 C 0.60394 0.25734 0.7467 0.0
C385 C 0.61433 0.2595 0.72184 0.0
C386 C 0.61531 0.24155 0.76516 0.0
C387 C 0.63784 0.2282 0.75941 0.0
C388 C 0.64785 0.23012 0.73422 0.0
C389 C 0.636 0.24528 0.71556 0.0
C390 C 0.68082 0.17949 0.79227 0.0
C391 C 0.67981 0.18755 0.81811 0.0
C392 C 0.66647 0.192 0.77339 0.0
C393 C 0.65148 0.21341 0.77983 0.0
C394 C 0.65053 0.22126 0.80591 0.0
C395 C 0.66425 0.20822 0.82486 0.0
H396 H 0.85568 0.748 0.19691 0.0
H397 H 0.91215 0.72378 0.2521 0.0
H398 H 0.83526 0.7737 0.22986 0.0
H399 H 0.89314 0.75128 0.28481 0.0
H400 H 0.83644 0.77766 0.34557 0.0
H401 H 0.85965 0.75426 0.31248 0.0
H402 H 0.83479 0.80924 0.25508 0.0
H403 H 0.80993 0.83109 0.28803 0.0
C404 C 0.86405 0.74865 0.21601 0.0
C405 C 0.88535 0.73377 0.22205 0.0
C406 C 0.85247 0.76363 0.23498 0.0
C407 C 0.86239 0.7647 0.26027 0.0
C408 C 0.88444 0.75053 0.26587 0.0
C409 C 0.89555 0.73494 0.24706 0.0
C410 C 0.83613 0.78467 0.32584 0.0
C411 C 0.82137 0.80597 0.3192 0.0
C412 C 0.84959 0.77142 0.30682 0.0
C413 C 0.84917 0.77966 0.28085 0.0
C414 C 0.8351 0.80174 0.2746 0.0
C415 C 0.82102 0.81448 0.29349 0.0
H416 H 0.24683 0.09803 0.20223 0.0
H417 H 0.30074 0.11896 0.26144 0.0
H418 H 0.21239 0.1144 0.22886 0.0
H419 H 0.26618 0.13477 0.28846 0.0
H420 H 0.20481 0.19474 0.30702 0.0
H421 H 0.23886 0.1716 0.28616 0.0
H422 H 0.18744 0.1098 0.26819 0.0
H423 H 0.15282 0.13341 0.28871 0.0
C424 C 0.25128 0.10575 0.22114 0.0
C425 C 0.27651 0.10749 0.22964 0.0
C426 C 0.2315 0.11495 0.2365 0.0
C427 C 0.23652 0.12604 0.26073 0.0
C428 C 0.2617 0.12671 0.2697 0.0
C429 C 0.2815 0.11757 0.25429 0.0
C430 C 0.20066 0.17613 0.29885 0.0
C431 C 0.17593 0.16607 0.29939 0.0
C432 C 0.22035 0.16272 0.28706 0.0
C433 C 0.21592 0.13883 0.27549 0.0
C434 C 0.1914 0.12831 0.2767 0.0
C435 C 0.1716 0.14177 0.28858 0.0
H436 H 0.29902 0.79758 0.80663 0.0
H437 H 0.34575 0.86409 0.7926 0.0
H438 H 0.26333 0.8188 0.78641 0.0
H439 H 0.30952 0.8857 0.77283 0.0
H440 H 0.25221 0.89589 0.70557 0.0
H441 H 0.28667 0.88069 0.73266 0.0
H442 H 0.23245 0.85273 0.78857 0.0
H443 H 0.19774 0.86751 0.76093 0.0
C444 C 0.30164 0.81692 0.7996 0.0
C445 C 0.32545 0.82899 0.801 0.0
C446 C 0.281 0.8292 0.78817 0.0
C447 C 0.28354 0.85392 0.77786 0.0
C448 C 0.30703 0.86649 0.78026 0.0
C449 C 0.32777 0.85416 0.79172 0.0
C450 C 0.2476 0.88669 0.72375 0.0
C451 C 0.22225 0.88269 0.73103 0.0
C452 C 0.26741 0.87818 0.73943 0.0
C453 C 0.26238 0.86547 0.76282 0.0
C454 C 0.23698 0.8622 0.77052 0.0
C455 C 0.2171 0.87073 0.75477 0.0
H456 H 0.80061 0.35463 0.74635 0.0
H457 H 0.75135 0.40926 0.78355 0.0
H458 H 0.76534 0.33952 0.72018 0.0
H459 H 0.71641 0.39584 0.75605 0.0
H460 H 0.65254 0.34326 0.72885 0.0
H461 H 0.68773 0.36349 0.75136 0.0
H462 H 0.73718 0.34527 0.68706 0.0
H463 H 0.70224 0.32337 0.66576 0.0
C464 C 0.78231 0.36379 0.74845 0.0
C465 C 0.77856 0.38286 0.76709 0.0
C466 C 0.76203 0.35531 0.73329 0.0
C467 C 0.73772 0.36628 0.73596 0.0
C468 C 0.73451 0.38634 0.75384 0.0
C469 C 0.7546 0.39424 0.76947 0.0
C470 C 0.67089 0.34399 0.71948 0.0
C471 C 0.67479 0.33174 0.69571 0.0
C472 C 0.69115 0.35568 0.73229 0.0
C473 C 0.71562 0.35592 0.72125 0.0
C474 C 0.71895 0.34488 0.69664 0.0
C475 C 0.69886 0.33259 0.68422 0.0
H476 H 0.84693 0.65019 0.22657 0.0
H477 H 0.79735 0.67173 0.16394 0.0
H478 H 0.81153 0.63011 0.24886 0.0
H479 H 0.76215 0.65001 0.185 0.0
H480 H 0.69884 0.64138 0.24466 0.0
H481 H 0.73422 0.65591 0.21829 0.0
H482 H 0.78224 0.59832 0.25339 0.0
H483 H 0.74725 0.58545 0.28106 0.0
C484 C 0.82856 0.64982 0.21722 0.0
C485 C 0.82476 0.66253 0.19368 0.0
C486 C 0.80817 0.63823 0.22991 0.0
C487 C 0.78365 0.63855 0.21897 0.0
C488 C 0.78042 0.64996 0.19451 0.0
C489 C 0.80065 0.66215 0.18223 0.0
C490 C 0.71696 0.63181 0.24653 0.0
C491 C 0.72045 0.61255 0.26503 0.0
C492 C 0.7373 0.63996 0.23126 0.0
C493 C 0.76141 0.62848 0.23369 0.0
C494 C 0.76432 0.60821 0.25138 0.0
C495 C 0.74419 0.60063 0.26712 0.0
H496 H 0.30252 0.15939 0.13279 0.0
H497 H 0.3057 0.20502 0.20252 0.0
H498 H 0.28487 0.19598 0.10944 0.0
H499 H 0.28776 0.24107 0.17942 0.0
H500 H 0.27127 0.30848 0.12833 0.0
H501 H 0.29572 0.27282 0.14615 0.0
H502 H 0.24495 0.21931 0.1091 0.0
H503 H 0.22098 0.25477 0.09097 0.0
C504 C 0.29955 0.17717 0.14313 0.0
C505 C 0.30542 0.17912 0.16959 0.0
C506 C 0.28937 0.19812 0.12976 0.0
C507 C 0.28493 0.22148 0.14255 0.0
C508 C 0.2913 0.22354 0.16884 0.0
C509 C 0.30139 0.20267 0.18217 0.0
C510 C 0.2656 0.2891 0.12372 0.0
C511 C 0.24411 0.28444 0.10843 0.0
C512 C 0.2795 0.26866 0.13403 0.0
C513 C 0.27218 0.24319 0.1292 0.0
C514 C 0.2513 0.23864 0.113 0.0
C515 C 0.23743 0.25901 0.10275 0.0
H516 H 0.80768 0.33411 0.86456 0.0
H517 H 0.8159 0.287 0.79627 0.0
H518 H 0.78846 0.29811 0.88734 0.0
H519 H 0.79628 0.25144 0.81881 0.0
H520 H 0.77343 0.18582 0.8698 0.0
H521 H 0.80026 0.22028 0.85334 0.0
H522 H 0.74808 0.27611 0.88446 0.0
H523 H 0.72169 0.24181 0.9013 0.0
C524 C 0.80561 0.31607 0.85446 0.0
C525 C 0.81316 0.31358 0.82848 0.0
C526 C 0.79448 0.29547 0.86749 0.0
C527 C 0.7907 0.27194 0.85486 0.0
C528 C 0.79917 0.26918 0.82924 0.0
C529 C 0.81026 0.28971 0.81623 0.0
C530 C 0.76791 0.20546 0.8734 0.0
C531 C 0.74537 0.21112 0.88666 0.0
C532 C 0.7832 0.22519 0.86388 0.0
C533 C 0.77625 0.25096 0.86747 0.0
C534 C 0.75418 0.25652 0.88162 0.0
C535 C 0.73894 0.23683 0.89111 0.0
H536 H 0.77642 0.75351 0.40262 0.0
H537 H 0.72728 0.81006 0.36795 0.0
H538 H 0.7501 0.71952 0.38518 0.0
H539 H 0.70042 0.77588 0.35087 0.0
H540 H 0.68541 0.70857 0.2944 0.0
H541 H 0.70483 0.74409 0.31716 0.0
H542 H 0.70954 0.69819 0.38652 0.0
H543 H 0.69057 0.6622 0.36351 0.0
C544 C 0.75973 0.7587 0.3916 0.0
C545 C 0.75404 0.78447 0.38646 0.0
C546 C 0.7445 0.73917 0.38175 0.0
C547 C 0.72317 0.74493 0.36654 0.0
C548 C 0.71692 0.77078 0.36224 0.0
C549 C 0.7322 0.79037 0.37212 0.0
C550 C 0.69034 0.70601 0.31458 0.0
C551 C 0.68664 0.68234 0.32701 0.0
C552 C 0.70131 0.72654 0.32771 0.0
C553 C 0.70884 0.724 0.35366 0.0
C554 C 0.70427 0.70066 0.36643 0.0
C555 C 0.6933 0.68006 0.35326 0.0
H556 H 0.22104 0.83638 0.64886 0.0
H557 H 0.16327 0.78636 0.67911 0.0
H558 H 0.24115 0.80029 0.62741 0.0
H559 H 0.18187 0.7504 0.65595 0.0
H560 H 0.23869 0.68655 0.64075 0.0
H561 H 0.2145 0.72226 0.65767 0.0
H562 H 0.24282 0.77024 0.59578 0.0
H563 H 0.26876 0.73485 0.58048 0.0
C564 C 0.21229 0.81768 0.65027 0.0
C565 C 0.19077 0.81403 0.6657 0.0
C566 C 0.22369 0.7969 0.63782 0.0
C567 C 0.21336 0.77208 0.63991 0.0
C568 C 0.19095 0.7689 0.65438 0.0
C569 C 0.18006 0.78955 0.66747 0.0
C570 C 0.23963 0.70471 0.63074 0.0
C571 C 0.25588 0.70804 0.60956 0.0
C572 C 0.22552 0.72528 0.64029 0.0
C573 C 0.22671 0.74953 0.62836 0.0
C574 C 0.2419 0.75226 0.60611 0.0
C575 C 0.2566 0.73187 0.59709 0.0
H576 H 0.9068 0.69029 0.8311 0.0
H577 H 0.83393 0.67245 0.7976 0.0
H578 H 0.91679 0.71713 0.79407 0.0
H579 H 0.84367 0.70007 0.76062 0.0
H580 H 0.8793 0.74031 0.68933 0.0
H581 H 0.8713 0.7076 0.72238 0.0
H582 H 0.90092 0.7585 0.78092 0.0
H583 H 0.90931 0.79059 0.74819 0.0
C584 C 0.89297 0.692 0.81569 0.0
C585 C 0.86949 0.67955 0.81732 0.0
C586 C 0.89864 0.70747 0.79454 0.0
C587 C 0.88084 0.71108 0.77465 0.0
C588 C 0.85781 0.69758 0.77561 0.0
C589 C 0.8522 0.68186 0.79679 0.0
C590 C 0.88421 0.74433 0.70927 0.0
C591 C 0.89507 0.76791 0.71618 0.0
C592 C 0.87952 0.72571 0.72816 0.0
C593 C 0.88573 0.73038 0.75421 0.0
C594 C 0.89644 0.75405 0.76097 0.0
C595 C 0.9011 0.77255 0.7422 0.0
H596 H 0.64194 0.24339 0.19776 0.0
H597 H 0.56804 0.22787 0.22967 0.0
H598 H 0.65035 0.27352 0.23292 0.0
H599 H 0.57526 0.2593 0.26346 0.0
H600 H 0.60674 0.28627 0.33909 0.0
H601 H 0.59776 0.2609 0.30122 0.0
H602 H 0.64322 0.31217 0.25466 0.0
H603 H 0.65369 0.3367 0.29352 0.0
C604 C 0.62729 0.24699 0.21198 0.0
C605 C 0.60453 0.23318 0.2114 0.0
C606 C 0.63199 0.26434 0.23206 0.0
C607 C 0.61369 0.26856 0.25148 0.0
C608 C 0.59022 0.25592 0.24954 0.0
C609 C 0.5859 0.23808 0.23003 0.0
C610 C 0.61484 0.2922 0.32082 0.0
C611 C 0.63097 0.31343 0.3193 0.0
C612 C 0.60944 0.27776 0.29888 0.0
C613 C 0.61945 0.28457 0.2746 0.0
C614 C 0.63537 0.30614 0.27301 0.0
C615 C 0.64124 0.32031 0.29522 0.0
H616 H 0.36348 0.74379 0.29838 0.0
H617 H 0.43241 0.7186 0.26151 0.0
H618 H 0.35569 0.77343 0.26268 0.0
H619 H 0.42606 0.74948 0.22705 0.0
H620 H 0.39296 0.77797 0.15301 0.0
H621 H 0.40113 0.75251 0.19105 0.0
H622 H 0.3651 0.81013 0.23867 0.0
H623 H 0.35527 0.83488 0.19974 0.0
C624 C 0.37726 0.74511 0.28292 0.0
C625 C 0.39829 0.72871 0.28233 0.0
C626 C 0.37292 0.76219 0.2625 0.0
C627 C 0.38993 0.76354 0.24151 0.0
C628 C 0.41196 0.74835 0.24222 0.0
C629 C 0.41583 0.73082 0.26212 0.0
C630 C 0.38675 0.78525 0.17155 0.0
C631 C 0.37351 0.80843 0.1734 0.0
C632 C 0.3917 0.77074 0.19356 0.0
C633 C 0.38422 0.77936 0.21821 0.0
C634 C 0.37098 0.80271 0.22006 0.0
C635 C 0.36547 0.81699 0.19781 0.0
H636 H 0.14404 0.16019 0.70158 0.0
H637 H 0.10733 0.21649 0.65327 0.0
H638 H 0.13351 0.18551 0.73992 0.0
H639 H 0.09852 0.24251 0.69072 0.0
H640 H 0.06684 0.27818 0.76002 0.0
H641 H 0.07322 0.2465 0.72629 0.0
H642 H 0.14294 0.22253 0.76325 0.0
H643 H 0.13509 0.25293 0.7982 0.0
C644 C 0.1339 0.17806 0.69917 0.0
C645 C 0.12638 0.18632 0.67449 0.0
C646 C 0.12799 0.19267 0.72109 0.0
C647 C 0.11488 0.21605 0.71861 0.0
C648 C 0.10784 0.2243 0.6937 0.0
C649 C 0.11318 0.20946 0.67203 0.0
C650 C 0.08329 0.26579 0.76107 0.0
C651 C 0.10063 0.26811 0.78143 0.0
C652 C 0.08716 0.2478 0.7416 0.0
C653 C 0.10902 0.23234 0.7415 0.0
C654 C 0.12583 0.23394 0.76263 0.0
C655 C 0.12146 0.25147 0.78262 0.0
H656 H 0.70921 0.86208 0.77772 0.0
H657 H 0.77504 0.86618 0.82737 0.0
H658 H 0.73689 0.85568 0.74032 0.0
H659 H 0.80242 0.85954 0.79024 0.0
H660 H 0.84829 0.86146 0.71768 0.0
H661 H 0.81789 0.87788 0.74928 0.0
H662 H 0.76413 0.81996 0.72614 0.0
H663 H 0.79416 0.80381 0.69446 0.0
C664 C 0.72953 0.8619 0.78065 0.0
C665 C 0.73986 0.86442 0.80561 0.0
C666 C 0.74537 0.85815 0.75923 0.0
C667 C 0.77185 0.85709 0.76231 0.0
C668 C 0.78215 0.8606 0.78711 0.0
C669 C 0.76637 0.86415 0.80848 0.0
C670 C 0.82979 0.85258 0.71896 0.0
C671 C 0.8238 0.83112 0.70376 0.0
C672 C 0.81244 0.86188 0.73717 0.0
C673 C 0.7887 0.85005 0.74039 0.0
C674 C 0.78216 0.82963 0.72405 0.0
C675 C 0.79951 0.82024 0.70601 0.0
H676 H 0.64544 0.15105 0.23047 0.0
H677 H 0.70625 0.16945 0.17799 0.0
H678 H 0.67595 0.13548 0.26198 0.0
H679 H 0.73694 0.15198 0.20844 0.0
H680 H 0.78592 0.15508 0.28133 0.0
H681 H 0.75681 0.16317 0.24581 0.0
H682 H 0.70491 0.10711 0.27742 0.0
H683 H 0.73337 0.10082 0.31396 0.0
C684 C 0.66536 0.15088 0.22537 0.0
C685 C 0.67356 0.16154 0.20195 0.0
C686 C 0.68298 0.14185 0.2434 0.0
C687 C 0.70921 0.14266 0.23811 0.0
C688 C 0.7171 0.15173 0.21373 0.0
C689 C 0.69951 0.16146 0.19607 0.0
C690 C 0.76837 0.14436 0.28043 0.0
C691 C 0.76174 0.12752 0.30041 0.0
C692 C 0.75164 0.14881 0.25993 0.0
C693 C 0.72816 0.13597 0.25857 0.0
C694 C 0.72234 0.11799 0.278 0.0
C695 C 0.73875 0.11415 0.29888 0.0
H696 H 0.34636 0.63385 0.27976 0.0
H697 H 0.29496 0.69529 0.29945 0.0
H698 H 0.31563 0.61774 0.24841 0.0
H699 H 0.26467 0.6795 0.26792 0.0
H700 H 0.20828 0.63852 0.21712 0.0
H701 H 0.23566 0.64535 0.25471 0.0
H702 H 0.30166 0.63412 0.20659 0.0
H703 H 0.2746 0.62694 0.16941 0.0
C704 C 0.32842 0.64372 0.2777 0.0
C705 C 0.32332 0.66607 0.29191 0.0
C706 C 0.31086 0.63456 0.25963 0.0
C707 C 0.2878 0.64748 0.25548 0.0
C708 C 0.28213 0.66895 0.27075 0.0
C709 C 0.29967 0.67814 0.28871 0.0
C710 C 0.22862 0.63718 0.21467 0.0
C711 C 0.2392 0.63242 0.19017 0.0
C712 C 0.24431 0.64118 0.23618 0.0
C713 C 0.27086 0.6403 0.23365 0.0
C714 C 0.28132 0.63459 0.20935 0.0
C715 C 0.26573 0.63073 0.18792 0.0
H716 H 0.22599 0.3677 0.66777 0.0
H717 H 0.29194 0.35719 0.71626 0.0
H718 H 0.19864 0.36143 0.70488 0.0
H719 H 0.26425 0.35124 0.7538 0.0
H720 H 0.2045 0.30167 0.79857 0.0
H721 H 0.23514 0.31717 0.76725 0.0
H722 H 0.18428 0.37854 0.74628 0.0
H723 H 0.15319 0.36273 0.77743 0.0
C724 C 0.23471 0.36434 0.68644 0.0
C725 C 0.26122 0.36265 0.68894 0.0
C726 C 0.21896 0.36102 0.70782 0.0
C727 C 0.22922 0.35582 0.73233 0.0
C728 C 0.25576 0.35502 0.73511 0.0
C729 C 0.27162 0.35852 0.71363 0.0
C730 C 0.19988 0.31867 0.78755 0.0
C731 C 0.17615 0.33071 0.79027 0.0
C732 C 0.21762 0.3277 0.76972 0.0
C733 C 0.2121 0.34897 0.75411 0.0
C734 C 0.18895 0.36188 0.75779 0.0
C735 C 0.17118 0.35288 0.77573 0.0
H736 H 0.77756 0.69349 0.87151 0.0
H737 H 0.82356 0.7614 0.88003 0.0
H738 H 0.73933 0.72025 0.87057 0.0
H739 H 0.78563 0.78777 0.87922 0.0
H740 H 0.71381 0.82596 0.90393 0.0
H741 H 0.74739 0.79429 0.90845 0.0
H742 H 0.72054 0.7554 0.84007 0.0
H743 H 0.6868 0.7873 0.83537 0.0
C744 C 0.77952 0.71404 0.8733 0.0
C745 C 0.80362 0.7253 0.87588 0.0
C746 C 0.75767 0.72931 0.87265 0.0
C747 C 0.75954 0.75602 0.87506 0.0
C748 C 0.78359 0.76719 0.87771 0.0
C749 C 0.80535 0.75206 0.87799 0.0
C750 C 0.71478 0.81046 0.89005 0.0
C751 C 0.69788 0.80933 0.86908 0.0
C752 C 0.73406 0.79237 0.89262 0.0
C753 C 0.73677 0.77264 0.87439 0.0
C754 C 0.71884 0.77042 0.85441 0.0
C755 C 0.69957 0.78869 0.85172 0.0
H756 H 0.19111 0.71081 0.15424 0.0
H757 H 0.21588 0.66898 0.08674 0.0
H758 H 0.22445 0.74249 0.14688 0.0
H759 H 0.24878 0.70078 0.07914 0.0
H760 H 0.32593 0.73379 0.10272 0.0
H761 H 0.28767 0.70834 0.10381 0.0
H762 H 0.24319 0.77636 0.11773 0.0
H763 H 0.28203 0.80225 0.11686 0.0
C764 C 0.2033 0.7087 0.13751 0.0
C765 C 0.20117 0.68722 0.12128 0.0
C766 C 0.22231 0.72691 0.13323 0.0
C767 C 0.23946 0.72392 0.11264 0.0
C768 C 0.23615 0.70333 0.09546 0.0
C769 C 0.21727 0.68516 0.09977 0.0
C770 C 0.30805 0.7435 0.10589 0.0
C771 C 0.3071 0.7701 0.10982 0.0
C772 C 0.28602 0.72886 0.10626 0.0
C773 C 0.26236 0.74034 0.11067 0.0
C774 C 0.2612 0.767 0.11434 0.0
C775 C 0.28339 0.7818 0.11372 0.0
H776 H 0.28781 0.32202 0.58644 0.0
H777 H 0.31006 0.2847 0.65748 0.0
H778 H 0.25493 0.29001 0.57991 0.0
H779 H 0.27673 0.25271 0.65107 0.0
H780 H 0.21934 0.19158 0.62133 0.0
H781 H 0.2585 0.21702 0.62238 0.0
H782 H 0.21524 0.28508 0.60513 0.0
H783 H 0.17664 0.2601 0.604 0.0
C784 C 0.28592 0.30674 0.60047 0.0
C785 C 0.30124 0.30607 0.62266 0.0
C786 C 0.26705 0.28844 0.59675 0.0
C787 C 0.26301 0.26912 0.61519 0.0
C788 C 0.27948 0.26735 0.6365 0.0
C789 C 0.29848 0.2857 0.64021 0.0
C790 C 0.21832 0.21194 0.61754 0.0
C791 C 0.19486 0.22381 0.61264 0.0
C792 C 0.24067 0.22647 0.61826 0.0
C793 C 0.23993 0.25298 0.61362 0.0
C794 C 0.21652 0.26464 0.60835 0.0
C795 C 0.19432 0.25029 0.60794 0.0
H796 H 0.72228 0.30048 0.37735 0.0
H797 H 0.67462 0.2334 0.38263 0.0
H798 H 0.75985 0.27286 0.37605 0.0
H799 H 0.71181 0.2062 0.38117 0.0
H800 H 0.78215 0.1633 0.40071 0.0
H801 H 0.74902 0.19504 0.40781 0.0
H802 H 0.77884 0.24071 0.3452 0.0
H803 H 0.81223 0.20901 0.33822 0.0
C804 C 0.7198 0.27993 0.37838 0.0
C805 C 0.6954 0.26919 0.38005 0.0
C806 C 0.74129 0.26415 0.37753 0.0
C807 C 0.73878 0.23738 0.3787 0.0
C808 C 0.71443 0.22675 0.38067 0.0
C809 C 0.69305 0.24241 0.38128 0.0
C810 C 0.78188 0.18028 0.38869 0.0
C811 C 0.7996 0.18351 0.36871 0.0
C812 C 0.76285 0.19841 0.3927 0.0
C813 C 0.76113 0.2202 0.37684 0.0
C814 C 0.77974 0.22418 0.35781 0.0
C815 C 0.79879 0.20597 0.35375 0.0
H816 H 0.14298 0.14618 0.52866 0.0
H817 H 0.07861 0.1966 0.53835 0.0
H818 H 0.13748 0.14834 0.48163 0.0
H819 H 0.07343 0.19871 0.49172 0.0
H820 H 0.10697 0.23081 0.41475 0.0
H821 H 0.10524 0.22061 0.46065 0.0
H822 H 0.10491 0.13994 0.4427 0.0
H823 H 0.10628 0.15017 0.39629 0.0
C824 C 0.12738 0.15724 0.52087 0.0
C825 C 0.11158 0.17164 0.53728 0.0
C826 C 0.1242 0.15839 0.49398 0.0
C827 C 0.10526 0.17399 0.48317 0.0
C828 C 0.0884 0.18684 0.49961 0.0
C829 C 0.09145 0.18562 0.52634 0.0
C830 C 0.10628 0.21089 0.42052 0.0
C831 C 0.10676 0.19129 0.40197 0.0
C832 C 0.10516 0.20506 0.44678 0.0
C833 C 0.10487 0.1795 0.45513 0.0
C834 C 0.10513 0.15979 0.43666 0.0
C835 C 0.10576 0.16565 0.41021 0.0
H836 H 0.42423 0.7969 0.03787 0.0
H837 H 0.36096 0.84849 0.02706 0.0
H838 H 0.43059 0.79525 0.99137 0.0
H839 H 0.36757 0.84673 0.98019 0.0
H840 H 0.39885 0.84623 0.89587 0.0
H841 H 0.3997 0.85544 0.94246 0.0
H842 H 0.40116 0.77439 0.9586 0.0
H843 H 0.40008 0.7652 0.91248 0.0
C844 C 0.41186 0.8082 0.02565 0.0
C845 C 0.39173 0.82244 0.03624 0.0
C846 C 0.41557 0.80722 -0.00101 0.0
C847 C 0.39937 0.82056 0.98223 0.0
C848 C 0.38037 0.83631 0.99274 0.0
C849 C 0.37655 0.83722 0.01956 0.0
C850 C 0.39972 0.83044 0.90943 0.0
C851 C 0.39934 0.80498 0.90058 0.0
C852 C 0.40004 0.83572 0.93601 0.0
C853 C 0.40055 0.81563 0.95405 0.0
C854 C 0.40104 0.79026 0.94511 0.0
C855 C 0.40028 0.78499 0.9187 0.0
H856 H 0.64742 0.35029 0.46562 0.0
H857 H 0.58154 0.30216 0.455 0.0
H858 H 0.64125 0.34834 0.51254 0.0
H859 H 0.57566 0.3003 0.50157 0.0
H860 H 0.60769 0.26686 0.57872 0.0
H861 H 0.60621 0.27727 0.53288 0.0
H862 H 0.60887 0.35784 0.55113 0.0
H863 H 0.60999 0.34738 0.59752 0.0
C864 C 0.63137 0.33976 0.47318 0.0
C865 C 0.61531 0.32592 0.45654 0.0
C866 C 0.62779 0.33877 0.50001 0.0
C867 C 0.60818 0.3239 0.51054 0.0
C868 C 0.59111 0.31162 0.49388 0.0
C869 C 0.59457 0.31268 0.46719 0.0
C870 C 0.60771 0.28681 0.57302 0.0
C871 C 0.60901 0.30631 0.59164 0.0
C872 C 0.60671 0.29277 0.5468 0.0
C873 C 0.60735 0.31835 0.53856 0.0
C874 C 0.60836 0.33798 0.5571 0.0
C875 C 0.60886 0.332 0.58352 0.0
H876 H 0.89156 0.64963 0.09523 0.0
H877 H 0.88991 0.73057 0.07823 0.0
H878 H 0.89247 0.64025 0.04863 0.0
H879 H 0.89106 0.72124 0.03217 0.0
H880 H 0.91542 0.69897 0.9531 0.0
H881 H 0.92142 0.70119 -0.00037 0.0
H882 H 0.8599 0.64797 0.01084 0.0
H883 H 0.85368 0.64559 0.96397 0.0
C884 C 0.89175 0.66536 0.08158 0.0
C885 C 0.89057 0.69082 0.0903 0.0
C886 C 0.89213 0.65999 0.05502 0.0
C887 C 0.89191 0.68003 0.0369 0.0
C888 C 0.89151 0.70543 0.04573 0.0
C889 C 0.89069 0.71076 0.0721 0.0
C890 C 0.9033 0.68743 0.96533 0.0
C891 C 0.88372 0.67246 0.95475 0.0
C892 C 0.90681 0.68873 0.99201 0.0
C893 C 0.89094 0.67499 0.00876 0.0
C894 C 0.87244 0.65869 -0.00172 0.0
C895 C 0.86881 0.65746 0.97147 0.0
H896 H 0.41612 0.15078 0.22058 0.0
H897 H 0.40863 0.09045 0.1638 0.0
H898 H 0.45992 0.15736 0.2073 0.0
H899 H 0.45301 0.09697 0.15093 0.0
H900 H 0.5459 0.11129 0.17262 0.0
H901 H 0.50202 0.09771 0.18077 0.0
H902 H 0.4751 0.17155 0.15567 0.0
H903 H 0.51844 0.18504 0.14703 0.0
C904 C 0.42388 0.13864 0.20555 0.0
C905 C 0.40879 0.12017 0.19315 0.0
C906 C 0.44892 0.1425 0.19793 0.0
C907 C 0.4596 0.12773 0.17808 0.0
C908 C 0.44505 0.10853 0.16632 0.0
C909 C 0.41972 0.10491 0.17364 0.0
C910 C 0.53056 0.12435 0.16819 0.0
C911 C 0.53566 0.14932 0.15941 0.0
C912 C 0.50554 0.11657 0.17286 0.0
C913 C 0.48543 0.13375 0.16903 0.0
C914 C 0.49041 0.15808 0.15886 0.0
C915 C 0.51523 0.16573 0.1539 0.0
H916 H 0.97728 0.82906 0.63483 0.0
H917 H 0.95094 0.8834 0.69171 0.0
H918 H 0.0208 0.84326 0.64182 0.0
H919 H 0.99473 0.89734 0.69908 0.0
H920 H 0.09576 0.88486 0.65068 0.0
H921 H 0.05093 0.88215 0.63911 0.0
H922 H 0.03163 0.87096 0.71945 0.0
H923 H 0.07642 0.87334 0.73111 0.0
C924 C 0.98077 0.84449 0.64837 0.0
C925 C 0.96078 0.85511 0.66276 0.0
C926 C 0.00566 0.85265 0.65234 0.0
C927 C 0.01112 0.87126 0.67112 0.0
C928 C 0.991 0.88286 0.68457 0.0
C929 C 0.96597 0.87504 0.68021 0.0
C930 C 0.08195 0.88217 0.66595 0.0
C931 C 0.0897 0.87906 0.69181 0.0
C932 C 0.0563 0.88059 0.65928 0.0
C933 C 0.03784 0.87637 0.67837 0.0
C934 C 0.04545 0.87449 0.70436 0.0
C935 C 0.07111 0.87564 0.711 0.0
H936 H 0.02344 0.33502 0.86136 0.0
H937 H 0.05061 0.38739 0.80303 0.0
H938 H 0.98031 0.35046 0.85469 0.0
H939 H 0.00719 0.40265 0.79606 0.0
H940 H 0.92498 0.37947 0.76497 0.0
H941 H 0.96979 0.37744 0.77645 0.0
H942 H 0.95077 0.38933 0.85676 0.0
H943 H 0.90588 0.39159 0.84538 0.0
C944 C 0.02025 0.35031 0.84757 0.0
C945 C 0.04032 0.35994 0.83264 0.0
C946 C 0.99557 0.35921 0.84381 0.0
C947 C 0.99039 0.37762 0.82472 0.0
C948 C 0.01067 0.38834 0.8108 0.0
C949 C 0.0355 0.37975 0.81492 0.0
C950 C 0.93034 0.38207 0.78503 0.0
C951 C 0.9118 0.3854 0.80428 0.0
C952 C 0.95604 0.38112 0.79156 0.0
C953 C 0.96373 0.38316 0.81751 0.0
C954 C 0.94533 0.3876 0.83663 0.0
C955 C 0.91964 0.38893 0.83006 0.0
H956 H 0.4486 0.61008 0.30471 0.0
H957 H 0.47659 0.66312 0.362 0.0
H958 H 0.49194 0.59495 0.29707 0.0
H959 H 0.51967 0.64776 0.3547 0.0
H960 H 0.59384 0.60577 0.34473 0.0
H961 H 0.54913 0.60857 0.35673 0.0
H962 H 0.52913 0.62023 0.27663 0.0
H963 H 0.57378 0.61771 0.26454 0.0
C964 C 0.46389 0.61791 0.31624 0.0
C965 C 0.45929 0.63785 0.33387 0.0
C966 C 0.48867 0.60939 0.31173 0.0
C967 C 0.50915 0.6203 0.32518 0.0
C968 C 0.50425 0.63888 0.34417 0.0
C969 C 0.4796 0.64773 0.34831 0.0
C970 C 0.5799 0.60849 0.32959 0.0
C971 C 0.58743 0.61179 0.30368 0.0
C972 C 0.55432 0.61014 0.33651 0.0
C973 C 0.5357 0.61465 0.31763 0.0
C974 C 0.54306 0.61651 0.29157 0.0
C975 C 0.56866 0.61526 0.28468 0.0
H976 H 0.22351 0.42564 0.15481 0.0
H977 H 0.17968 0.415 0.08497 0.0
H978 H 0.21246 0.47103 0.15487 0.0
H979 H 0.16893 0.46053 0.08498 0.0
H980 H 0.19423 0.5479 0.07913 0.0
H981 H 0.19662 0.50124 0.07917 0.0
H982 H 0.17229 0.49993 0.15888 0.0
H983 H 0.16954 0.5467 0.15883 0.0
C984 C 0.2115 0.43296 0.13951 0.0
C985 C 0.20259 0.41674 0.11982 0.0
C986 C 0.20499 0.45888 0.1397 0.0
C987 C 0.18977 0.46919 0.11999 0.0
C988 C 0.18071 0.45301 0.10038 0.0
C989 C 0.18685 0.42698 0.10042 0.0
C990 C 0.18889 0.53763 0.09651 0.0
C991 C 0.18182 0.55095 0.11901 0.0
C992 C 0.19019 0.51095 0.09649 0.0
C993 C 0.18484 0.49707 0.11909 0.0
C994 C 0.17669 0.51026 0.14127 0.0
C995 C 0.17493 0.53697 0.14116 0.0
H996 H 0.65634 0.95179 0.85002 0.0
H997 H 0.71394 0.94656 0.90943 0.0
H998 H 0.65996 -0.00143 0.85101 0.0
H999 H 0.71755 0.99283 0.90996 0.0
H1000 H 0.74386 0.06758 0.87044 0.0
H1001 H 0.73454 0.02197 0.87208 0.0
H1002 H 0.65536 0.03853 0.88456 0.0
H1003 H 0.66463 0.08452 0.88328 0.0
C1004 C 0.66943 0.96052 0.86353 0.0
C1005 C 0.68509 0.94532 0.87938 0.0
C1006 C 0.67145 0.98725 0.86409 0.0
C1007 C 0.6893 -0.00089 0.88029 0.0
C1008 C 0.70391 0.98405 0.89704 0.0
C1009 C 0.70173 0.95751 0.89673 0.0
C1010 C 0.72444 0.0616 0.87348 0.0
C1011 C 0.70501 0.07968 0.87684 0.0
C1012 C 0.71915 0.03549 0.87453 0.0
C1013 C 0.69428 0.02687 0.87858 0.0
C1014 C 0.67468 0.04481 0.88139 0.0
C1015 C 0.68004 0.07103 0.88079 0.0
H1016 H 0.81122 0.04531 0.41152 0.0
H1017 H 0.83377 0.04343 0.33118 0.0
H1018 H 0.80973 -0.00134 0.41223 0.0
H1019 H 0.832 0.99663 0.33189 0.0
H1020 H 0.7803 0.923 0.33795 0.0
H1021 H 0.79238 0.96801 0.3369 0.0
H1022 H 0.83653 0.95772 0.40644 0.0
H1023 H 0.82466 0.91245 0.40748 0.0
C1024 C 0.81633 0.0349 0.39416 0.0
C1025 C 0.8224 0.04801 0.37123 0.0
C1026 C 0.81558 0.00821 0.39461 0.0
C1027 C 0.82053 0.99411 0.37205 0.0
C1028 C 0.82792 0.00712 0.34949 0.0
C1029 C 0.82909 0.03386 0.34914 0.0
C1030 C 0.7927 0.93026 0.35296 0.0
C1031 C 0.80136 0.9142 0.37292 0.0
C1032 C 0.79982 0.95596 0.35218 0.0
C1033 C 0.81546 0.96626 0.37153 0.0
C1034 C 0.82444 0.9502 0.3913 0.0
C1035 C 0.81764 0.92434 0.39186 0.0
H1036 H 0.2867 0.44503 0.58527 0.0
H1037 H 0.34521 0.44789 0.6439 0.0
H1038 H 0.28392 0.49137 0.58578 0.0
H1039 H 0.34244 0.49477 0.64393 0.0
H1040 H 0.33798 0.58176 0.61249 0.0
H1041 H 0.34688 0.53568 0.61042 0.0
H1042 H 0.26805 0.51965 0.62543 0.0
H1043 H 0.25912 0.56529 0.6279 0.0
C1044 C 0.2993 0.45547 0.598 0.0
C1045 C 0.31594 0.44259 0.61485 0.0
C1046 C 0.29761 0.48206 0.59827 0.0
C1047 C 0.31271 0.49649 0.61512 0.0
C1048 C 0.33058 0.48395 0.63079 0.0
C1049 C 0.33211 0.45716 0.63076 0.0
C1050 C 0.32259 0.56837 0.61542 0.0
C1051 C 0.29782 0.57718 0.62028 0.0
C1052 C 0.32774 0.54208 0.61435 0.0
C1053 C 0.30811 0.52428 0.61759 0.0
C1054 C 0.28346 0.53307 0.62265 0.0
C1055 C 0.2784 0.5592 0.62417 0.0
H1056 H 0.80465 0.86093 0.47963 0.0
H1057 H 0.87057 0.824 0.44696 0.0
H1058 H 0.82341 0.85762 0.52275 0.0
H1059 H 0.88911 0.82042 0.49015 0.0
H1060 H 0.88059 0.77998 0.57232 0.0
H1061 H 0.87174 0.79213 0.52768 0.0
H1062 H 0.8628 0.87087 0.55121 0.0
H1063 H 0.87218 0.85877 0.5961 0.0
C1064 C 0.82333 0.85253 0.48161 0.0
C1065 C 0.83604 0.84248 0.46 0.0
C1066 C 0.83412 0.8508 0.50624 0.0
C1067 C 0.85762 0.83866 0.5097 0.0
C1068 C 0.87091 0.82978 0.48794 0.0
C1069 C 0.86031 0.83187 0.46327 0.0
C1070 C 0.87718 0.79996 0.56791 0.0
C1071 C 0.8769 0.81841 0.58766 0.0
C1072 C 0.87229 0.80693 0.54235 0.0
C1073 C 0.86657 0.83242 0.53608 0.0
C1074 C 0.86715 0.85109 0.55563 0.0
C1075 C 0.87259 0.84418 0.58121 0.0
H1076 H 0.69467 0.1329 0.97858 0.0
H1077 H 0.62911 0.16985 0.94516 0.0
H1078 H 0.67561 0.13649 0.02152 0.0
H1079 H 0.61029 0.17376 0.98822 0.0
H1080 H 0.62069 0.21574 0.06981 0.0
H1081 H 0.62875 0.20262 0.02529 0.0
H1082 H 0.63555 0.12402 0.05004 0.0
H1083 H 0.62689 0.13712 0.09481 0.0
C1084 C 0.67599 0.14132 0.98036 0.0
C1085 C 0.66349 0.15136 0.95861 0.0
C1086 C 0.66502 0.1432 0.00488 0.0
C1087 C 0.64157 0.1555 0.00808 0.0
C1088 C 0.62843 0.16426 0.98618 0.0
C1089 C 0.6392 0.16198 0.9616 0.0
C1090 C 0.62344 0.1956 0.06568 0.0
C1091 C 0.62336 0.17745 0.08571 0.0
C1092 C 0.62785 0.18808 0.04021 0.0
C1093 C 0.63276 0.16233 0.03433 0.0
C1094 C 0.63179 0.14398 0.05417 0.0
C1095 C 0.62679 0.15146 0.07967 0.0
H1096 H 0.37049 0.63484 0.39942 0.0
H1097 H 0.37966 0.71306 0.42477 0.0
H1098 H 0.3616 0.62187 0.44416 0.0
H1099 H 0.3713 0.70003 0.46924 0.0
H1100 H 0.37158 0.66678 0.54923 0.0
H1101 H 0.38934 0.67093 0.50575 0.0
H1102 H 0.3229 0.6346 0.4738 0.0
H1103 H 0.30492 0.63071 0.51721 0.0
C1104 C 0.37111 0.64912 0.4146 0.0
C1105 C 0.37555 0.67499 0.40865 0.0
C1106 C 0.36597 0.64172 0.4401 0.0
C1107 C 0.36582 0.65996 0.46007 0.0
C1108 C 0.37154 0.68555 0.45425 0.0
C1109 C 0.37614 0.69302 0.42878 0.0
C1110 C 0.361 0.65918 0.533 0.0
C1111 C 0.33673 0.6487 0.53654 0.0
C1112 C 0.37115 0.66161 0.50815 0.0
C1113 C 0.35741 0.6532 0.4865 0.0
C1114 C 0.33395 0.64108 0.49022 0.0
C1115 C 0.32361 0.639 0.51502 0.0
H1116 H 0.19816 0.36234 0.01408 0.0
H1117 H 0.12976 0.33077 0.04712 0.0
H1118 H 0.17927 0.35978 0.97097 0.0
H1119 H 0.11107 0.32798 0.00396 0.0
H1120 H 0.13109 0.36235 0.89725 0.0
H1121 H 0.14086 0.37502 0.94191 0.0
H1122 H 0.12697 0.29763 0.96741 0.0
H1123 H 0.11774 0.2849 0.92304 0.0
C1124 C 0.17894 0.35532 0.01218 0.0
C1125 C 0.16554 0.34645 0.03388 0.0
C1126 C 0.16808 0.35404 0.98756 0.0
C1127 C 0.1438 0.34356 0.98424 0.0
C1128 C 0.12987 0.33603 0.00608 0.0
C1129 C 0.14057 0.33766 0.03073 0.0
C1130 C 0.1297 0.34822 0.91252 0.0
C1131 C 0.1239 0.32261 0.90675 0.0
C1132 C 0.13535 0.35544 0.93796 0.0
C1133 C 0.13463 0.33728 0.95799 0.0
C1134 C 0.12742 0.31204 0.95235 0.0
C1135 C 0.12233 0.30473 0.92695 0.0
H1136 H 0.60243 0.87494 0.79334 0.0
H1137 H 0.5874 0.88056 0.87529 0.0
H1138 H 0.55696 0.87063 0.78505 0.0
H1139 H 0.54198 0.87663 0.8669 0.0
H1140 H 0.4588 0.88055 0.83885 0.0
H1141 H 0.50245 0.89699 0.84218 0.0
H1142 H 0.52958 0.8315 0.79947 0.0
H1143 H 0.48655 0.81493 0.79678 0.0
C1144 C 0.5894 0.87589 0.8095 0.0
C1145 C 0.59847 0.87776 0.83499 0.0
C1146 C 0.56341 0.87341 0.80475 0.0
C1147 C 0.54601 0.87322 0.82535 0.0
C1148 C 0.55496 0.87692 0.85066 0.0
C1149 C 0.58096 0.87897 0.85545 0.0
C1150 C 0.47412 0.86999 0.82988 0.0
C1151 C 0.46943 0.84643 0.81773 0.0
C1152 C 0.499 0.87931 0.83183 0.0
C1153 C 0.51932 0.86554 0.82097 0.0
C1154 C 0.51429 0.84265 0.80775 0.0
C1155 C 0.48968 0.83309 0.80638 0.0
H1156 H 0.91305 0.1158 0.37237 0.0
H1157 H 0.89974 0.13049 0.29125 0.0
H1158 H 0.95858 0.12176 0.36569 0.0
H1159 H 0.94526 0.137 0.28478 0.0
H1160 H 0.0151 0.19139 0.30519 0.0
H1161 H 0.97178 0.17529 0.30646 0.0
H1162 H 0.99862 0.1035 0.33736 0.0
H1163 H 0.0425 0.11946 0.33538 0.0
C1164 C 0.9199 0.11989 0.35305 0.0
C1165 C 0.90286 0.12291 0.33236 0.0
C1166 C 0.94594 0.12312 0.34923 0.0
C1167 C 0.95531 0.12989 0.32476 0.0
C1168 C 0.93842 0.13178 0.30383 0.0
C1169 C 0.91243 0.12804 0.30754 0.0
C1170 C 0.01183 0.17207 0.31203 0.0
C1171 C 0.03209 0.15668 0.32031 0.0
C1172 C 0.98708 0.16281 0.31255 0.0
C1173 C 0.98196 0.13816 0.32188 0.0
C1174 C 0.00219 0.12257 0.33 0.0
C1175 C 0.02718 0.13165 0.32885 0.0
H1176 H 0.09769 0.62103 0.19497 0.0
H1177 H 0.09077 0.63005 0.11214 0.0
H1178 H 0.05171 0.62727 0.1994 0.0
H1179 H 0.04534 0.63635 0.11669 0.0
H1180 H 0.98077 0.69069 0.14335 0.0
H1181 H 0.02422 0.6757 0.13916 0.0
H1182 H 0.00598 0.60831 0.18369 0.0
H1183 H 0.96183 0.62322 0.18757 0.0
C1184 C 0.08636 0.62386 0.17773 0.0
C1185 C 0.09792 0.62544 0.15326 0.0
C1186 C 0.06009 0.62732 0.18027 0.0
C1187 C 0.04512 0.63256 0.15839 0.0
C1188 C 0.05652 0.63263 0.13388 0.0
C1189 C 0.08256 0.62902 0.13132 0.0
C1190 C 0.98591 0.6726 0.15216 0.0
C1191 C 0.96792 0.6581 0.16575 0.0
C1192 C 0.01076 0.66398 0.14966 0.0
C1193 C 0.01839 0.64083 0.16103 0.0
C1194 C 0.00051 0.62625 0.17478 0.0
C1195 C 0.97532 0.63469 0.17686 0.0
H1196 H 0.40217 0.3754 0.69484 0.0
H1197 H 0.4103 0.36684 0.61208 0.0
H1198 H 0.44804 0.36896 0.69997 0.0
H1199 H 0.45564 0.36036 0.61732 0.0
H1200 H 0.5189 0.30487 0.64457 0.0
H1201 H 0.47573 0.32051 0.6399 0.0
H1202 H 0.49433 0.3873 0.68518 0.0
H1203 H 0.5382 0.37172 0.68958 0.0
C1204 C 0.41376 0.37269 0.67776 0.0
C1205 C 0.40256 0.37121 0.6531 0.0
C1206 C 0.43997 0.3691 0.68071 0.0
C1207 C 0.45522 0.36385 0.65905 0.0
C1208 C 0.44422 0.36406 0.63434 0.0
C1209 C 0.41823 0.36777 0.63139 0.0
C1210 C 0.5139 0.32295 0.65347 0.0
C1211 C 0.53191 0.3371 0.6674 0.0
C1212 C 0.48921 0.33195 0.65069 0.0
C1213 C 0.48178 0.35515 0.66208 0.0
C1214 C 0.49965 0.36935 0.67623 0.0
C1215 C 0.52468 0.36052 0.67861 0.0
H1216 H 0.87781 0.57524 0.89626 0.0
H1217 H 0.79748 0.58676 0.88514 0.0
H1218 H 0.87225 0.52925 0.88995 0.0
H1219 H 0.79206 0.54072 0.87837 0.0
H1220 H 0.8136 0.47617 0.81677 0.0
H1221 H 0.81261 0.51808 0.83722 0.0
H1222 H 0.84746 0.48652 0.90573 0.0
H1223 H 0.84783 0.44391 0.88534 0.0
C1224 C 0.85889 0.56784 0.89314 0.0
C1225 C 0.83812 0.58452 0.89082 0.0
C1226 C 0.8557 0.54154 0.88972 0.0
C1227 C 0.83178 0.5316 0.88352 0.0
C1228 C 0.8107 0.54804 0.88311 0.0
C1229 C 0.8138 0.57431 0.88701 0.0
C1230 C 0.82084 0.47807 0.83629 0.0
C1231 C 0.831 0.45692 0.84943 0.0
C1232 C 0.82 0.50198 0.84809 0.0
C1233 C 0.82975 0.50539 0.87309 0.0
C1234 C 0.83968 0.48422 0.88648 0.0
C1235 C 0.83994 0.45999 0.87484 0.0
H1236 H 0.31173 0.91205 0.09974 0.0
H1237 H 0.39274 0.91511 0.11162 0.0
H1238 H 0.30904 0.95821 0.10795 0.0
H1239 H 0.38995 0.96087 0.11977 0.0
H1240 H 0.36332 0.02219 0.17952 0.0
H1241 H 0.36842 0.9802 0.15997 0.0
H1242 H 0.3251 0.00471 0.09356 0.0
H1243 H 0.32028 0.04742 0.11316 0.0
C1244 C 0.32899 0.92264 0.10345 0.0
C1245 C 0.35238 0.90989 0.10548 0.0
C1246 C 0.32745 0.94904 0.10804 0.0
C1247 C 0.34926 0.96295 0.1148 0.0
C1248 C 0.37282 0.9505 0.1149 0.0
C1249 C 0.37438 0.92428 0.11024 0.0
C1250 C 0.35512 0.01878 0.16061 0.0
C1251 C 0.34141 0.03801 0.14784 0.0
C1252 C 0.35815 0.99478 0.14936 0.0
C1253 C 0.34723 0.98927 0.12522 0.0
C1254 C 0.3337 0.00855 0.11219 0.0
C1255 C 0.33108 0.03291 0.12331 0.0
H1256 H 0.18046 0.94686 0.61495 0.0
H1257 H 0.14038 0.97247 0.68307 0.0
H1258 H 0.17585 0.98978 0.59586 0.0
H1259 H 0.13546 0.01473 0.66397 0.0
H1260 H 0.10913 0.0792 0.61502 0.0
H1261 H 0.1123 0.03356 0.62372 0.0
H1262 H 0.19295 0.03642 0.61033 0.0
H1263 H 0.18992 0.08248 0.60166 0.0
C1264 C 0.17044 0.96154 0.62565 0.0
C1265 C 0.16079 0.95644 0.65047 0.0
C1266 C 0.16792 0.98601 0.6148 0.0
C1267 C 0.15518 0.0054 0.62842 0.0
C1268 C 0.14511 2e-05 0.65296 0.0
C1269 C 0.14805 0.97588 0.66394 0.0
C1270 C 0.12751 0.0701 0.61342 0.0
C1271 C 0.14936 0.08452 0.60807 0.0
C1272 C 0.12927 0.04396 0.61841 0.0
C1273 C 0.15288 0.03164 0.61798 0.0
C1274 C 0.17452 0.04554 0.61068 0.0
C1275 C 0.17278 0.07187 0.60582 0.0
H1276 H 0.62153 0.42027 0.3955 0.0
H1277 H 0.70178 0.409 0.38356 0.0
H1278 H 0.62676 0.46619 0.3883 0.0
H1279 H 0.70685 0.45495 0.37583 0.0
H1280 H 0.68455 0.51951 0.31444 0.0
H1281 H 0.68548 0.47748 0.33472 0.0
H1282 H 0.65195 0.50907 0.40387 0.0
H1283 H 0.65167 0.55178 0.38368 0.0
C1284 C 0.64037 0.42772 0.39196 0.0
C1285 C 0.66122 0.41111 0.38979 0.0
C1286 C 0.64336 0.45398 0.38802 0.0
C1287 C 0.66715 0.46396 0.38139 0.0
C1288 C 0.68831 0.44761 0.38092 0.0
C1289 C 0.68541 0.42139 0.38538 0.0
C1290 C 0.67757 0.51759 0.33406 0.0
C1291 C 0.66785 0.53879 0.34746 0.0
C1292 C 0.67837 0.4936 0.34574 0.0
C1293 C 0.669 0.49017 0.37089 0.0
C1294 C 0.65944 0.51137 0.3845 0.0
C1295 C 0.65922 0.53567 0.37298 0.0
loop_
_geom_bond_atom_site_label_1
_geom_bond_atom_site_label_2
_geom_bond_distance
_geom_bond_site_symmetry_2
_ccdc_geom_bond_type
Co0 O1 2.216 . S
Co0 O2 2.091 . S
Co0 O4 2.004 . S
Co0 O10 2.021 . S
Co0 O12 2.137 . S
Co0 O13 2.244 . S
O1 Co0 2.216 . S
O1 C8 1.247 . S
O2 Co0 2.091 . S
O2 C8 1.261 . S
C3 O12 1.247 . S
C3 O13 1.272 . S
O4 Co0 2.004 . S
O4 C9 1.259 . S
Co5 O6 2.061 . S
Co5 O11 2.052 . S
Co5 O13 2.135 . S
O6 Co5 2.061 . S
O6 C9 1.235 . S
C7 O10 1.238 . S
C7 O11 1.241 . S
C8 O1 1.247 . S
C8 O2 1.261 . S
C9 O4 1.259 . S
C9 O6 1.235 . S
O10 Co0 2.021 . S
O10 C7 1.238 . S
O11 Co5 2.052 . S
O11 C7 1.241 . S
O12 Co0 2.137 . S
O12 C3 1.247 . S
O13 Co0 2.244 . S
O13 C3 1.272 . S
O13 Co5 2.135 . S
Co14 O15 2.216 . S
Co14 O16 2.091 . S
Co14 O18 2.004 . S
Co14 O24 2.021 . S
Co14 O26 2.137 . S
Co14 O27 2.244 . S
O15 Co14 2.216 . S
O15 C22 1.247 . S
O16 Co14 2.091 . S
O16 C22 1.261 . S
C17 O26 1.247 . S
C17 O27 1.272 . S
O18 Co14 2.004 . S
O18 C23 1.259 . S
Co19 O20 2.061 . S
Co19 O25 2.052 . S
Co19 O27 2.135 . S
O20 Co19 2.061 . S
O20 C23 1.235 . S
C21 O24 1.238 . S
C21 O25 1.241 . S
C22 O15 1.247 . S
C22 O16 1.261 . S
C23 O18 1.259 . S
C23 O20 1.235 . S
O24 Co14 2.021 . S
O24 C21 1.238 . S
O25 Co19 2.052 . S
O25 C21 1.241 . S
O26 Co14 2.137 . S
O26 C17 1.247 . S
O27 Co14 2.244 . S
O27 C17 1.272 . S
O27 Co19 2.135 . S
Co28 O29 2.216 . S
Co28 O30 2.091 . S
Co28 O32 2.004 . S
Co28 O38 2.021 . S
Co28 O40 2.137 . S
Co28 O41 2.244 . S
O29 Co28 2.216 . S
O29 C36 1.247 . S
O30 Co28 2.091 . S
O30 C36 1.261 . S
C31 O40 1.247 . S
C31 O41 1.272 . S
O32 Co28 2.004 . S
O32 C37 1.259 . S
Co33 O34 2.061 . S
Co33 O39 2.052 . S
Co33 O41 2.135 . S
O34 Co33 2.061 . S
O34 C37 1.235 . S
C35 O38 1.238 . S
C35 O39 1.241 . S
C36 O29 1.247 . S
C36 O30 1.261 . S
C37 O32 1.259 . S
C37 O34 1.235 . S
O38 Co28 2.021 . S
O38 C35 1.238 . S
O39 Co33 2.052 . S
O39 C35 1.241 . S
O40 Co28 2.137 . S
O40 C31 1.247 . S
O41 Co28 2.244 . S
O41 C31 1.272 . S
O41 Co33 2.135 . S
Co42 O43 2.216 . S
Co42 O44 2.091 . S
Co42 O46 2.004 . S
Co42 O52 2.021 . S
Co42 O54 2.137 . S
Co42 O55 2.244 . S
O43 Co42 2.216 . S
O43 C50 1.247 . S
O44 Co42 2.091 . S
O44 C50 1.261 . S
C45 O54 1.247 . S
C45 O55 1.272 . S
O46 Co42 2.004 . S
O46 C51 1.259 . S
Co47 O48 2.061 . S
Co47 O53 2.052 . S
Co47 O55 2.135 . S
O48 Co47 2.061 . S
O48 C51 1.235 . S
C49 O52 1.238 . S
C49 O53 1.241 . S
C50 O43 1.247 . S
C50 O44 1.261 . S
C51 O46 1.259 . S
C51 O48 1.235 . S
O52 Co42 2.021 . S
O52 C49 1.238 . S
O53 Co47 2.052 . S
O53 C49 1.241 . S
O54 Co42 2.137 . S
O54 C45 1.247 . S
O55 Co42 2.244 . S
O55 C45 1.272 . S
O55 Co47 2.135 . S
Co56 O57 2.216 . S
Co56 O58 2.091 . S
Co56 O60 2.004 . S
Co56 O66 2.021 . S
Co56 O68 2.137 . S
Co56 O69 2.244 . S
O57 Co56 2.216 . S
O57 C64 1.247 . S
O58 Co56 2.091 . S
O58 C64 1.261 . S
C59 O68 1.247 . S
C59 O69 1.272 . S
O60 Co56 2.004 . S
O60 C65 1.259 . S
Co61 O62 2.061 . S
Co61 O67 2.052 . S
Co61 O69 2.135 . S
O62 Co61 2.061 . S
O62 C65 1.235 . S
C63 O66 1.238 . S
C63 O67 1.241 . S
C64 O57 1.247 . S
C64 O58 1.261 . S
C65 O60 1.259 . S
C65 O62 1.235 . S
O66 Co56 2.021 . S
O66 C63 1.238 . S
O67 Co61 2.052 . S
O67 C63 1.241 . S
O68 Co56 2.137 . S
O68 C59 1.247 . S
O69 Co56 2.244 . S
O69 C59 1.272 . S
O69 Co61 2.135 . S
Co70 O71 2.216 . S
Co70 O72 2.091 . S
Co70 O74 2.004 . S
Co70 O80 2.021 . S
Co70 O82 2.137 . S
Co70 O83 2.244 . S
O71 Co70 2.216 . S
O71 C78 1.247 . S
O72 Co70 2.091 . S
O72 C78 1.261 . S
C73 O82 1.247 . S
C73 O83 1.272 . S
O74 Co70 2.004 . S
O74 C79 1.259 . S
Co75 O76 2.061 . S
Co75 O81 2.052 . S
Co75 O83 2.135 . S
O76 Co75 2.061 . S
O76 C79 1.235 . S
C77 O80 1.238 . S
C77 O81 1.241 . S
C78 O71 1.247 . S
C78 O72 1.261 . S
C79 O74 1.259 . S
C79 O76 1.235 . S
O80 Co70 2.021 . S
O80 C77 1.238 . S
O81 Co75 2.052 . S
O81 C77 1.241 . S
O82 Co70 2.137 . S
O82 C73 1.247 . S
O83 Co70 2.244 . S
O83 C73 1.272 . S
O83 Co75 2.135 . S
Co84 O85 2.216 . S
Co84 O86 2.091 . S
Co84 O88 2.004 . S
Co84 O94 2.021 . S
Co84 O96 2.137 . S
Co84 O97 2.244 . S
O85 Co84 2.216 . S
O85 C92 1.247 . S
O86 Co84 2.091 . S
O86 C92 1.261 . S
C87 O96 1.247 . S
C87 O97 1.272 . S
O88 Co84 2.004 . S
O88 C93 1.259 . S
Co89 O90 2.061 . S
Co89 O95 2.052 . S
Co89 O97 2.135 . S
O90 Co89 2.061 . S
O90 C93 1.235 . S
C91 O94 1.238 . S
C91 O95 1.241 . S
C92 O85 1.247 . S
C92 O86 1.261 . S
C93 O88 1.259 . S
C93 O90 1.235 . S
O94 Co84 2.021 . S
O94 C91 1.238 . S
O95 Co89 2.052 . S
O95 C91 1.241 . S
O96 Co84 2.137 . S
O96 C87 1.247 . S
O97 Co84 2.244 . S
O97 C87 1.272 . S
O97 Co89 2.135 . S
Co98 O99 2.216 . S
Co98 O100 2.091 . S
Co98 O102 2.004 . S
Co98 O108 2.021 . S
Co98 O110 2.137 . S
Co98 O111 2.244 . S
O99 Co98 2.216 . S
O99 C106 1.247 . S
O100 Co98 2.091 . S
O100 C106 1.261 . S
C101 O110 1.247 . S
C101 O111 1.272 . S
O102 Co98 2.004 . S
O102 C107 1.259 . S
Co103 O104 2.061 . S
Co103 O109 2.052 . S
Co103 O111 2.135 . S
O104 Co103 2.061 . S
O104 C107 1.235 . S
C105 O108 1.238 . S
C105 O109 1.241 . S
C106 O99 1.247 . S
C106 O100 1.261 . S
C107 O102 1.259 . S
C107 O104 1.235 . S
O108 Co98 2.021 . S
O108 C105 1.238 . S
O109 Co103 2.052 . S
O109 C105 1.241 . S
O110 Co98 2.137 . S
O110 C101 1.247 . S
O111 Co98 2.244 . S
O111 C101 1.272 . S
O111 Co103 2.135 . S
Co112 O113 2.216 . S
Co112 O114 2.091 . S
Co112 O116 2.004 . S
Co112 O122 2.021 . S
Co112 O124 2.137 . S
Co112 O125 2.244 . S
O113 Co112 2.216 . S
O113 C120 1.247 . S
O114 Co112 2.091 . S
O114 C120 1.261 . S
C115 O124 1.247 . S
C115 O125 1.272 . S
O116 Co112 2.004 . S
O116 C121 1.259 . S
Co117 O118 2.061 . S
Co117 O123 2.052 . S
Co117 O125 2.135 . S
O118 Co117 2.061 . S
O118 C121 1.235 . S
C119 O122 1.238 . S
C119 O123 1.241 . S
C120 O113 1.247 . S
C120 O114 1.261 . S
C121 O116 1.259 . S
C121 O118 1.235 . S
O122 Co112 2.021 . S
O122 C119 1.238 . S
O123 Co117 2.052 . S
O123 C119 1.241 . S
O124 Co112 2.137 . S
O124 C115 1.247 . S
O125 Co112 2.244 . S
O125 C115 1.272 . S
O125 Co117 2.135 . S
Co126 O127 2.216 . S
Co126 O128 2.091 . S
Co126 O130 2.004 . S
Co126 O136 2.021 . S
Co126 O138 2.137 . S
Co126 O139 2.244 . S
O127 Co126 2.216 . S
O127 C134 1.247 . S
O128 Co126 2.091 . S
O128 C134 1.261 . S
C129 O138 1.247 . S
C129 O139 1.272 . S
O130 Co126 2.004 . S
O130 C135 1.259 . S
Co131 O132 2.061 . S
Co131 O137 2.052 . S
Co131 O139 2.135 . S
O132 Co131 2.061 . S
O132 C135 1.235 . S
C133 O136 1.238 . S
C133 O137 1.241 . S
C134 O127 1.247 . S
C134 O128 1.261 . S
C135 O130 1.259 . S
C135 O132 1.235 . S
O136 Co126 2.021 . S
O136 C133 1.238 . S
O137 Co131 2.052 . S
O137 C133 1.241 . S
O138 Co126 2.137 . S
O138 C129 1.247 . S
O139 Co126 2.244 . S
O139 C129 1.272 . S
O139 Co131 2.135 . S
Co140 O141 2.216 . S
Co140 O142 2.091 . S
Co140 O144 2.004 . S
Co140 O150 2.021 . S
Co140 O152 2.137 . S
Co140 O153 2.244 . S
O141 Co140 2.216 . S
O141 C148 1.247 . S
O142 Co140 2.091 . S
O142 C148 1.261 . S
C143 O152 1.247 . S
C143 O153 1.272 . S
O144 Co140 2.004 . S
O144 C149 1.259 . S
Co145 O146 2.061 . S
Co145 O151 2.052 . S
Co145 O153 2.135 . S
O146 Co145 2.061 . S
O146 C149 1.235 . S
C147 O150 1.238 . S
C147 O151 1.241 . S
C148 O141 1.247 . S
C148 O142 1.261 . S
C149 O144 1.259 . S
C149 O146 1.235 . S
O150 Co140 2.021 . S
O150 C147 1.238 . S
O151 Co145 2.052 . S
O151 C147 1.241 . S
O152 Co140 2.137 . S
O152 C143 1.247 . S
O153 Co140 2.244 . S
O153 C143 1.272 . S
O153 Co145 2.135 . S
Co154 O155 2.216 . S
Co154 O156 2.091 . S
Co154 O158 2.004 . S
Co154 O164 2.021 . S
Co154 O166 2.137 . S
Co154 O167 2.244 . S
O155 Co154 2.216 . S
O155 C162 1.247 . S
O156 Co154 2.091 . S
O156 C162 1.261 . S
C157 O166 1.247 . S
C157 O167 1.272 . S
O158 Co154 2.004 . S
O158 C163 1.259 . S
Co159 O160 2.061 . S
Co159 O165 2.052 . S
Co159 O167 2.135 . S
O160 Co159 2.061 . S
O160 C163 1.235 . S
C161 O164 1.238 . S
C161 O165 1.241 . S
C162 O155 1.247 . S
C162 O156 1.261 . S
C163 O158 1.259 . S
C163 O160 1.235 . S
O164 Co154 2.021 . S
O164 C161 1.238 . S
O165 Co159 2.052 . S
O165 C161 1.241 . S
O166 Co154 2.137 . S
O166 C157 1.247 . S
O167 Co154 2.244 . S
O167 C157 1.272 . S
O167 Co159 2.135 . S
Co168 O169 2.216 . S
Co168 O170 2.091 . S
Co168 O172 2.004 . S
Co168 O178 2.021 . S
Co168 O180 2.137 . S
Co168 O181 2.244 . S
O169 Co168 2.216 . S
O169 C176 1.247 . S
O170 Co168 2.091 . S
O170 C176 1.261 . S
C171 O180 1.247 . S
C171 O181 1.272 . S
O172 Co168 2.004 . S
O172 C177 1.259 . S
Co173 O174 2.061 . S
Co173 O179 2.052 . S
Co173 O181 2.135 . S
O174 Co173 2.061 . S
O174 C177 1.235 . S
C175 O178 1.238 . S
C175 O179 1.241 . S
C176 O169 1.247 . S
C176 O170 1.261 . S
C177 O172 1.259 . S
C177 O174 1.235 . S
O178 Co168 2.021 . S
O178 C175 1.238 . S
O179 Co173 2.052 . S
O179 C175 1.241 . S
O180 Co168 2.137 . S
O180 C171 1.247 . S
O181 Co168 2.244 . S
O181 C171 1.272 . S
O181 Co173 2.135 . S
Co182 O183 2.216 . S
Co182 O184 2.091 . S
Co182 O186 2.004 . S
Co182 O192 2.021 . S
Co182 O194 2.137 . S
Co182 O195 2.244 . S
O183 Co182 2.216 . S
O183 C190 1.247 . S
O184 Co182 2.091 . S
O184 C190 1.261 . S
C185 O194 1.247 . S
C185 O195 1.272 . S
O186 Co182 2.004 . S
O186 C191 1.259 . S
Co187 O188 2.061 . S
Co187 O193 2.052 . S
Co187 O195 2.135 . S
O188 Co187 2.061 . S
O188 C191 1.235 . S
C189 O192 1.238 . S
C189 O193 1.241 . S
C190 O183 1.247 . S
C190 O184 1.261 . S
C191 O186 1.259 . S
C191 O188 1.235 . S
O192 Co182 2.021 . S
O192 C189 1.238 . S
O193 Co187 2.052 . S
O193 C189 1.241 . S
O194 Co182 2.137 . S
O194 C185 1.247 . S
O195 Co182 2.244 . S
O195 C185 1.272 . S
O195 Co187 2.135 . S
Co196 O197 2.216 . S
Co196 O198 2.091 . S
Co196 O200 2.004 . S
Co196 O206 2.021 . S
Co196 O208 2.137 . S
Co196 O209 2.244 . S
O197 Co196 2.216 . S
O197 C204 1.247 . S
O198 Co196 2.091 . S
O198 C204 1.261 . S
C199 O208 1.247 . S
C199 O209 1.272 . S
O200 Co196 2.004 . S
O200 C205 1.259 . S
Co201 O202 2.061 . S
Co201 O207 2.052 . S
Co201 O209 2.135 . S
O202 Co201 2.061 . S
O202 C205 1.235 . S
C203 O206 1.238 . S
C203 O207 1.241 . S
C204 O197 1.247 . S
C204 O198 1.261 . S
C205 O200 1.259 . S
C205 O202 1.235 . S
O206 Co196 2.021 . S
O206 C203 1.238 . S
O207 Co201 2.052 . S
O207 C203 1.241 . S
O208 Co196 2.137 . S
O208 C199 1.247 . S
O209 Co196 2.244 . S
O209 C199 1.272 . S
O209 Co201 2.135 . S
Co210 O211 2.216 . S
Co210 O212 2.091 . S
Co210 O214 2.004 . S
Co210 O220 2.021 . S
Co210 O222 2.137 . S
Co210 O223 2.244 . S
O211 Co210 2.216 . S
O211 C218 1.247 . S
O212 Co210 2.091 . S
O212 C218 1.261 . S
C213 O222 1.247 . S
C213 O223 1.272 . S
O214 Co210 2.004 . S
O214 C219 1.259 . S
Co215 O216 2.061 . S
Co215 O221 2.052 . S
Co215 O223 2.135 . S
O216 Co215 2.061 . S
O216 C219 1.235 . S
C217 O220 1.238 . S
C217 O221 1.241 . S
C218 O211 1.247 . S
C218 O212 1.261 . S
C219 O214 1.259 . S
C219 O216 1.235 . S
O220 Co210 2.021 . S
O220 C217 1.238 . S
O221 Co215 2.052 . S
O221 C217 1.241 . S
O222 Co210 2.137 . S
O222 C213 1.247 . S
O223 Co210 2.244 . S
O223 C213 1.272 . S
O223 Co215 2.135 . S
Co224 O225 2.216 . S
Co224 O226 2.091 . S
Co224 O228 2.004 . S
Co224 O234 2.021 . S
Co224 O236 2.137 . S
Co224 O237 2.244 . S
O225 Co224 2.216 . S
O225 C232 1.247 . S
O226 Co224 2.091 . S
O226 C232 1.261 . S
C227 O236 1.247 . S
C227 O237 1.272 . S
O228 Co224 2.004 . S
O228 C233 1.259 . S
Co229 O230 2.061 . S
Co229 O235 2.052 . S
Co229 O237 2.135 . S
O230 Co229 2.061 . S
O230 C233 1.235 . S
C231 O234 1.238 . S
C231 O235 1.241 . S
C232 O225 1.247 . S
C232 O226 1.261 . S
C233 O228 1.259 . S
C233 O230 1.235 . S
O234 Co224 2.021 . S
O234 C231 1.238 . S
O235 Co229 2.052 . S
O235 C231 1.241 . S
O236 Co224 2.137 . S
O236 C227 1.247 . S
O237 Co224 2.244 . S
O237 C227 1.272 . S
O237 Co229 2.135 . S
Co238 O239 2.216 . S
Co238 O240 2.091 . S
Co238 O242 2.004 . S
Co238 O248 2.021 . S
Co238 O250 2.137 . S
Co238 O251 2.244 . S
O239 Co238 2.216 . S
O239 C246 1.247 . S
O240 Co238 2.091 . S
O240 C246 1.261 . S
C241 O250 1.247 . S
C241 O251 1.272 . S
O242 Co238 2.004 . S
O242 C247 1.259 . S
Co243 O244 2.061 . S
Co243 O249 2.052 . S
Co243 O251 2.135 . S
O244 Co243 2.061 . S
O244 C247 1.235 . S
C245 O248 1.238 . S
C245 O249 1.241 . S
C246 O239 1.247 . S
C246 O240 1.261 . S
C247 O242 1.259 . S
C247 O244 1.235 . S
O248 Co238 2.021 . S
O248 C245 1.238 . S
O249 Co243 2.052 . S
O249 C245 1.241 . S
O250 Co238 2.137 . S
O250 C241 1.247 . S
O251 Co238 2.244 . S
O251 C241 1.272 . S
O251 Co243 2.135 . S
Co252 O253 2.216 . S
Co252 O254 2.091 . S
Co252 O256 2.004 . S
Co252 O262 2.021 . S
Co252 O264 2.137 . S
Co252 O265 2.244 . S
O253 Co252 2.216 . S
O253 C260 1.247 . S
O254 Co252 2.091 . S
O254 C260 1.261 . S
C255 O264 1.247 . S
C255 O265 1.272 . S
O256 Co252 2.004 . S
O256 C261 1.259 . S
Co257 O258 2.061 . S
Co257 O263 2.052 . S
Co257 O265 2.135 . S
O258 Co257 2.061 . S
O258 C261 1.235 . S
C259 O262 1.238 . S
C259 O263 1.241 . S
C260 O253 1.247 . S
C260 O254 1.261 . S
C261 O256 1.259 . S
C261 O258 1.235 . S
O262 Co252 2.021 . S
O262 C259 1.238 . S
O263 Co257 2.052 . S
O263 C259 1.241 . S
O264 Co252 2.137 . S
O264 C255 1.247 . S
O265 Co252 2.244 . S
O265 C255 1.272 . S
O265 Co257 2.135 . S
Co266 O267 2.216 . S
Co266 O268 2.091 . S
Co266 O270 2.004 . S
Co266 O276 2.021 . S
Co266 O278 2.137 . S
Co266 O279 2.244 . S
O267 Co266 2.216 . S
O267 C274 1.247 . S
O268 Co266 2.091 . S
O268 C274 1.261 . S
C269 O278 1.247 . S
C269 O279 1.272 . S
O270 Co266 2.004 . S
O270 C275 1.259 . S
Co271 O272 2.061 . S
Co271 O277 2.052 . S
Co271 O279 2.135 . S
O272 Co271 2.061 . S
O272 C275 1.235 . S
C273 O276 1.238 . S
C273 O277 1.241 . S
C274 O267 1.247 . S
C274 O268 1.261 . S
C275 O270 1.259 . S
C275 O272 1.235 . S
O276 Co266 2.021 . S
O276 C273 1.238 . S
O277 Co271 2.052 . S
O277 C273 1.241 . S
O278 Co266 2.137 . S
O278 C269 1.247 . S
O279 Co266 2.244 . S
O279 C269 1.272 . S
O279 Co271 2.135 . S
Co280 O281 2.216 . S
Co280 O282 2.091 . S
Co280 O284 2.004 . S
Co280 O290 2.021 . S
Co280 O292 2.137 . S
Co280 O293 2.244 . S
O281 Co280 2.216 . S
O281 C288 1.247 . S
O282 Co280 2.091 . S
O282 C288 1.261 . S
C283 O292 1.247 . S
C283 O293 1.272 . S
O284 Co280 2.004 . S
O284 C289 1.259 . S
Co285 O286 2.061 . S
Co285 O291 2.052 . S
Co285 O293 2.135 . S
O286 Co285 2.061 . S
O286 C289 1.235 . S
C287 O290 1.238 . S
C287 O291 1.241 . S
C288 O281 1.247 . S
C288 O282 1.261 . S
C289 O284 1.259 . S
C289 O286 1.235 . S
O290 Co280 2.021 . S
O290 C287 1.238 . S
O291 Co285 2.052 . S
O291 C287 1.241 . S
O292 Co280 2.137 . S
O292 C283 1.247 . S
O293 Co280 2.244 . S
O293 C283 1.272 . S
O293 Co285 2.135 . S
Co294 O295 2.216 . S
Co294 O296 2.091 . S
Co294 O298 2.004 . S
Co294 O304 2.021 . S
Co294 O306 2.137 . S
Co294 O307 2.244 . S
O295 Co294 2.216 . S
O295 C302 1.247 . S
O296 Co294 2.091 . S
O296 C302 1.261 . S
C297 O306 1.247 . S
C297 O307 1.272 . S
O298 Co294 2.004 . S
O298 C303 1.259 . S
Co299 O300 2.061 . S
Co299 O305 2.052 . S
Co299 O307 2.135 . S
O300 Co299 2.061 . S
O300 C303 1.235 . S
C301 O304 1.238 . S
C301 O305 1.241 . S
C302 O295 1.247 . S
C302 O296 1.261 . S
C303 O298 1.259 . S
C303 O300 1.235 . S
O304 Co294 2.021 . S
O304 C301 1.238 . S
O305 Co299 2.052 . S
O305 C301 1.241 . S
O306 Co294 2.137 . S
O306 C297 1.247 . S
O307 Co294 2.244 . S
O307 C297 1.272 . S
O307 Co299 2.135 . S
Co308 O309 2.216 . S
Co308 O310 2.091 . S
Co308 O312 2.004 . S
Co308 O318 2.021 . S
Co308 O320 2.137 . S
Co308 O321 2.244 . S
O309 Co308 2.216 . S
O309 C316 1.247 . S
O310 Co308 2.091 . S
O310 C316 1.261 . S
C311 O320 1.247 . S
C311 O321 1.272 . S
O312 Co308 2.004 . S
O312 C317 1.259 . S
Co313 O314 2.061 . S
Co313 O319 2.052 . S
Co313 O321 2.135 . S
O314 Co313 2.061 . S
O314 C317 1.235 . S
C315 O318 1.238 . S
C315 O319 1.241 . S
C316 O309 1.247 . S
C316 O310 1.261 . S
C317 O312 1.259 . S
C317 O314 1.235 . S
O318 Co308 2.021 . S
O318 C315 1.238 . S
O319 Co313 2.052 . S
O319 C315 1.241 . S
O320 Co308 2.137 . S
O320 C311 1.247 . S
O321 Co308 2.244 . S
O321 C311 1.272 . S
O321 Co313 2.135 . S
Co322 O323 2.216 . S
Co322 O324 2.091 . S
Co322 O326 2.004 . S
Co322 O332 2.021 . S
Co322 O334 2.137 . S
Co322 O335 2.244 . S
O323 Co322 2.216 . S
O323 C330 1.247 . S
O324 Co322 2.091 . S
O324 C330 1.261 . S
C325 O334 1.247 . S
C325 O335 1.272 . S
O326 Co322 2.004 . S
O326 C331 1.259 . S
Co327 O328 2.061 . S
Co327 O333 2.052 . S
Co327 O335 2.135 . S
O328 Co327 2.061 . S
O328 C331 1.235 . S
C329 O332 1.238 . S
C329 O333 1.241 . S
C330 O323 1.247 . S
C330 O324 1.261 . S
C331 O326 1.259 . S
C331 O328 1.235 . S
O332 Co322 2.021 . S
O332 C329 1.238 . S
O333 Co327 2.052 . S
O333 C329 1.241 . S
O334 Co322 2.137 . S
O334 C325 1.247 . S
O335 Co322 2.244 . S
O335 C325 1.272 . S
O335 Co327 2.135 . S
H336 C344 0.950 . S
H337 C349 0.950 . S
H338 C346 0.950 . S
H339 C348 0.950 . S
H340 C350 0.950 . S
H341 C352 0.950 . S
H342 C354 0.950 . S
H343 C355 0.950 . S
C344 H336 0.950 . S
C344 C345 1.386 . S
C344 C346 1.391 . S
C345 C344 1.386 . S
C345 C349 1.393 . S
C346 H338 0.950 . S
C346 C344 1.391 . S
C346 C347 1.400 . S
C347 C346 1.400 . S
C347 C348 1.398 . S
C347 C353 1.491 . S
C348 H339 0.950 . S
C348 C347 1.398 . S
C348 C349 1.391 . S
C349 H337 0.950 . S
C349 C345 1.393 . S
C349 C348 1.391 . S
C350 H340 0.950 . S
C350 C351 1.386 . S
C350 C352 1.391 . S
C351 C350 1.386 . S
C351 C355 1.393 . S
C352 H341 0.950 . S
C352 C350 1.391 . S
C352 C353 1.400 . S
C353 C347 1.491 . S
C353 C352 1.400 . S
C353 C354 1.398 . S
C354 H342 0.950 . S
C354 C353 1.398 . S
C354 C355 1.391 . S
C355 H343 0.950 . S
C355 C351 1.393 . S
C355 C354 1.391 . S
H356 C364 0.950 . S
H357 C369 0.950 . S
H358 C366 0.950 . S
H359 C368 0.950 . S
H360 C370 0.950 . S
H361 C372 0.950 . S
H362 C374 0.950 . S
H363 C375 0.950 . S
C364 H356 0.950 . S
C364 C365 1.386 . S
C364 C366 1.391 . S
C365 C364 1.386 . S
C365 C369 1.393 . S
C366 H358 0.950 . S
C366 C364 1.391 . S
C366 C367 1.400 . S
C367 C366 1.400 . S
C367 C368 1.398 . S
C367 C373 1.491 . S
C368 H359 0.950 . S
C368 C367 1.398 . S
C368 C369 1.391 . S
C369 H357 0.950 . S
C369 C365 1.393 . S
C369 C368 1.391 . S
C370 H360 0.950 . S
C370 C371 1.386 . S
C370 C372 1.391 . S
C371 C370 1.386 . S
C371 C375 1.393 . S
C372 H361 0.950 . S
C372 C370 1.391 . S
C372 C373 1.400 . S
C373 C367 1.491 . S
C373 C372 1.400 . S
C373 C374 1.398 . S
C374 H362 0.950 . S
C374 C373 1.398 . S
C374 C375 1.391 . S
C375 H363 0.950 . S
C375 C371 1.393 . S
C375 C374 1.391 . S
H376 C384 0.950 . S
H377 C389 0.950 . S
H378 C386 0.950 . S
H379 C388 0.950 . S
H380 C390 0.950 . S
H381 C392 0.950 . S
H382 C394 0.950 . S
H383 C395 0.950 . S
C384 H376 0.950 . S
C384 C385 1.386 . S
C384 C386 1.391 . S
C385 C384 1.386 . S
C385 C389 1.393 . S
C386 H378 0.950 . S
C386 C384 1.391 . S
C386 C387 1.400 . S
C387 C386 1.400 . S
C387 C388 1.398 . S
C387 C393 1.491 . S
C388 H379 0.950 . S
C388 C387 1.398 . S
C388 C389 1.391 . S
C389 H377 0.950 . S
C389 C385 1.393 . S
C389 C388 1.391 . S
C390 H380 0.950 . S
C390 C391 1.386 . S
C390 C392 1.391 . S
C391 C390 1.386 . S
C391 C395 1.393 . S
C392 H381 0.950 . S
C392 C390 1.391 . S
C392 C393 1.400 . S
C393 C387 1.491 . S
C393 C392 1.400 . S
C393 C394 1.398 . S
C394 H382 0.950 . S
C394 C393 1.398 . S
C394 C395 1.391 . S
C395 H383 0.950 . S
C395 C391 1.393 . S
C395 C394 1.391 . S
H396 C404 0.950 . S
H397 C409 0.950 . S
H398 C406 0.950 . S
H399 C408 0.950 . S
H400 C410 0.950 . S
H401 C412 0.950 . S
H402 C414 0.950 . S
H403 C415 0.950 . S
C404 H396 0.950 . S
C404 C405 1.386 . S
C404 C406 1.391 . S
C405 C404 1.386 . S
C405 C409 1.393 . S
C406 H398 0.950 . S
C406 C404 1.391 . S
C406 C407 1.400 . S
C407 C406 1.400 . S
C407 C408 1.398 . S
C407 C413 1.491 . S
C408 H399 0.950 . S
C408 C407 1.398 . S
C408 C409 1.391 . S
C409 H397 0.950 . S
C409 C405 1.393 . S
C409 C408 1.391 . S
C410 H400 0.950 . S
C410 C411 1.386 . S
C410 C412 1.391 . S
C411 C410 1.386 . S
C411 C415 1.393 . S
C412 H401 0.950 . S
C412 C410 1.391 . S
C412 C413 1.400 . S
C413 C407 1.491 . S
C413 C412 1.400 . S
C413 C414 1.398 . S
C414 H402 0.950 . S
C414 C413 1.398 . S
C414 C415 1.391 . S
C415 H403 0.950 . S
C415 C411 1.393 . S
C415 C414 1.391 . S
H416 C424 0.950 . S
H417 C429 0.950 . S
H418 C426 0.950 . S
H419 C428 0.950 . S
H420 C430 0.950 . S
H421 C432 0.950 . S
H422 C434 0.950 . S
H423 C435 0.950 . S
C424 H416 0.950 . S
C424 C425 1.386 . S
C424 C426 1.391 . S
C425 C424 1.386 . S
C425 C429 1.393 . S
C426 H418 0.950 . S
C426 C424 1.391 . S
C426 C427 1.400 . S
C427 C426 1.400 . S
C427 C428 1.398 . S
C427 C433 1.491 . S
C428 H419 0.950 . S
C428 C427 1.398 . S
C428 C429 1.391 . S
C429 H417 0.950 . S
C429 C425 1.393 . S
C429 C428 1.391 . S
C430 H420 0.950 . S
C430 C431 1.386 . S
C430 C432 1.391 . S
C431 C430 1.386 . S
C431 C435 1.393 . S
C432 H421 0.950 . S
C432 C430 1.391 . S
C432 C433 1.400 . S
C433 C427 1.491 . S
C433 C432 1.400 . S
C433 C434 1.398 . S
C434 H422 0.950 . S
C434 C433 1.398 . S
C434 C435 1.391 . S
C435 H423 0.950 . S
C435 C431 1.393 . S
C435 C434 1.391 . S
H436 C444 0.950 . S
H437 C449 0.950 . S
H438 C446 0.950 . S
H439 C448 0.950 . S
H440 C450 0.950 . S
H441 C452 0.950 . S
H442 C454 0.950 . S
H443 C455 0.950 . S
C444 H436 0.950 . S
C444 C445 1.386 . S
C444 C446 1.391 . S
C445 C444 1.386 . S
C445 C449 1.393 . S
C446 H438 0.950 . S
C446 C444 1.391 . S
C446 C447 1.400 . S
C447 C446 1.400 . S
C447 C448 1.398 . S
C447 C453 1.491 . S
C448 H439 0.950 . S
C448 C447 1.398 . S
C448 C449 1.391 . S
C449 H437 0.950 . S
C449 C445 1.393 . S
C449 C448 1.391 . S
C450 H440 0.950 . S
C450 C451 1.386 . S
C450 C452 1.391 . S
C451 C450 1.386 . S
C451 C455 1.393 . S
C452 H441 0.950 . S
C452 C450 1.391 . S
C452 C453 1.400 . S
C453 C447 1.491 . S
C453 C452 1.400 . S
C453 C454 1.398 . S
C454 H442 0.950 . S
C454 C453 1.398 . S
C454 C455 1.391 . S
C455 H443 0.950 . S
C455 C451 1.393 . S
C455 C454 1.391 . S
H456 C464 0.950 . S
H457 C469 0.950 . S
H458 C466 0.950 . S
H459 C468 0.950 . S
H460 C470 0.950 . S
H461 C472 0.950 . S
H462 C474 0.950 . S
H463 C475 0.950 . S
C464 H456 0.950 . S
C464 C465 1.386 . S
C464 C466 1.391 . S
C465 C464 1.386 . S
C465 C469 1.393 . S
C466 H458 0.950 . S
C466 C464 1.391 . S
C466 C467 1.400 . S
C467 C466 1.400 . S
C467 C468 1.398 . S
C467 C473 1.491 . S
C468 H459 0.950 . S
C468 C467 1.398 . S
C468 C469 1.391 . S
C469 H457 0.950 . S
C469 C465 1.393 . S
C469 C468 1.391 . S
C470 H460 0.950 . S
C470 C471 1.386 . S
C470 C472 1.391 . S
C471 C470 1.386 . S
C471 C475 1.393 . S
C472 H461 0.950 . S
C472 C470 1.391 . S
C472 C473 1.400 . S
C473 C467 1.491 . S
C473 C472 1.400 . S
C473 C474 1.398 . S
C474 H462 0.950 . S
C474 C473 1.398 . S
C474 C475 1.391 . S
C475 H463 0.950 . S
C475 C471 1.393 . S
C475 C474 1.391 . S
H476 C484 0.950 . S
H477 C489 0.950 . S
H478 C486 0.950 . S
H479 C488 0.950 . S
H480 C490 0.950 . S
H481 C492 0.950 . S
H482 C494 0.950 . S
H483 C495 0.950 . S
C484 H476 0.950 . S
C484 C485 1.386 . S
C484 C486 1.391 . S
C485 C484 1.386 . S
C485 C489 1.393 . S
C486 H478 0.950 . S
C486 C484 1.391 . S
C486 C487 1.400 . S
C487 C486 1.400 . S
C487 C488 1.398 . S
C487 C493 1.491 . S
C488 H479 0.950 . S
C488 C487 1.398 . S
C488 C489 1.391 . S
C489 H477 0.950 . S
C489 C485 1.393 . S
C489 C488 1.391 . S
C490 H480 0.950 . S
C490 C491 1.386 . S
C490 C492 1.391 . S
C491 C490 1.386 . S
C491 C495 1.393 . S
C492 H481 0.950 . S
C492 C490 1.391 . S
C492 C493 1.400 . S
C493 C487 1.491 . S
C493 C492 1.400 . S
C493 C494 1.398 . S
C494 H482 0.950 . S
C494 C493 1.398 . S
C494 C495 1.391 . S
C495 H483 0.950 . S
C495 C491 1.393 . S
C495 C494 1.391 . S
H496 C504 0.950 . S
H497 C509 0.950 . S
H498 C506 0.950 . S
H499 C508 0.950 . S
H500 C510 0.950 . S
H501 C512 0.950 . S
H502 C514 0.950 . S
H503 C515 0.950 . S
C504 H496 0.950 . S
C504 C505 1.386 . S
C504 C506 1.391 . S
C505 C504 1.386 . S
C505 C509 1.393 . S
C506 H498 0.950 . S
C506 C504 1.391 . S
C506 C507 1.400 . S
C507 C506 1.400 . S
C507 C508 1.398 . S
C507 C513 1.491 . S
C508 H499 0.950 . S
C508 C507 1.398 . S
C508 C509 1.391 . S
C509 H497 0.950 . S
C509 C505 1.393 . S
C509 C508 1.391 . S
C510 H500 0.950 . S
C510 C511 1.386 . S
C510 C512 1.391 . S
C511 C510 1.386 . S
C511 C515 1.393 . S
C512 H501 0.950 . S
C512 C510 1.391 . S
C512 C513 1.400 . S
C513 C507 1.491 . S
C513 C512 1.400 . S
C513 C514 1.398 . S
C514 H502 0.950 . S
C514 C513 1.398 . S
C514 C515 1.391 . S
C515 H503 0.950 . S
C515 C511 1.393 . S
C515 C514 1.391 . S
H516 C524 0.950 . S
H517 C529 0.950 . S
H518 C526 0.950 . S
H519 C528 0.950 . S
H520 C530 0.950 . S
H521 C532 0.950 . S
H522 C534 0.950 . S
H523 C535 0.950 . S
C524 H516 0.950 . S
C524 C525 1.386 . S
C524 C526 1.391 . S
C525 C524 1.386 . S
C525 C529 1.393 . S
C526 H518 0.950 . S
C526 C524 1.391 . S
C526 C527 1.400 . S
C527 C526 1.400 . S
C527 C528 1.398 . S
C527 C533 1.491 . S
C528 H519 0.950 . S
C528 C527 1.398 . S
C528 C529 1.391 . S
C529 H517 0.950 . S
C529 C525 1.393 . S
C529 C528 1.391 . S
C530 H520 0.950 . S
C530 C531 1.386 . S
C530 C532 1.391 . S
C531 C530 1.386 . S
C531 C535 1.393 . S
C532 H521 0.950 . S
C532 C530 1.391 . S
C532 C533 1.400 . S
C533 C527 1.491 . S
C533 C532 1.400 . S
C533 C534 1.398 . S
C534 H522 0.950 . S
C534 C533 1.398 . S
C534 C535 1.391 . S
C535 H523 0.950 . S
C535 C531 1.393 . S
C535 C534 1.391 . S
H536 C544 0.950 . S
H537 C549 0.950 . S
H538 C546 0.950 . S
H539 C548 0.950 . S
H540 C550 0.950 . S
H541 C552 0.950 . S
H542 C554 0.950 . S
H543 C555 0.950 . S
C544 H536 0.950 . S
C544 C545 1.386 . S
C544 C546 1.391 . S
C545 C544 1.386 . S
C545 C549 1.393 . S
C546 H538 0.950 . S
C546 C544 1.391 . S
C546 C547 1.400 . S
C547 C546 1.400 . S
C547 C548 1.398 . S
C547 C553 1.491 . S
C548 H539 0.950 . S
C548 C547 1.398 . S
C548 C549 1.391 . S
C549 H537 0.950 . S
C549 C545 1.393 . S
C549 C548 1.391 . S
C550 H540 0.950 . S
C550 C551 1.386 . S
C550 C552 1.391 . S
C551 C550 1.386 . S
C551 C555 1.393 . S
C552 H541 0.950 . S
C552 C550 1.391 . S
C552 C553 1.400 . S
C553 C547 1.491 . S
C553 C552 1.400 . S
C553 C554 1.398 . S
C554 H542 0.950 . S
C554 C553 1.398 . S
C554 C555 1.391 . S
C555 H543 0.950 . S
C555 C551 1.393 . S
C555 C554 1.391 . S
H556 C564 0.950 . S
H557 C569 0.950 . S
H558 C566 0.950 . S
H559 C568 0.950 . S
H560 C570 0.950 . S
H561 C572 0.950 . S
H562 C574 0.950 . S
H563 C575 0.950 . S
C564 H556 0.950 . S
C564 C565 1.386 . S
C564 C566 1.391 . S
C565 C564 1.386 . S
C565 C569 1.393 . S
C566 H558 0.950 . S
C566 C564 1.391 . S
C566 C567 1.400 . S
C567 C566 1.400 . S
C567 C568 1.398 . S
C567 C573 1.491 . S
C568 H559 0.950 . S
C568 C567 1.398 . S
C568 C569 1.391 . S
C569 H557 0.950 . S
C569 C565 1.393 . S
C569 C568 1.391 . S
C570 H560 0.950 . S
C570 C571 1.386 . S
C570 C572 1.391 . S
C571 C570 1.386 . S
C571 C575 1.393 . S
C572 H561 0.950 . S
C572 C570 1.391 . S
C572 C573 1.400 . S
C573 C567 1.491 . S
C573 C572 1.400 . S
C573 C574 1.398 . S
C574 H562 0.950 . S
C574 C573 1.398 . S
C574 C575 1.391 . S
C575 H563 0.950 . S
C575 C571 1.393 . S
C575 C574 1.391 . S
H576 C584 0.950 . S
H577 C589 0.950 . S
H578 C586 0.950 . S
H579 C588 0.950 . S
H580 C590 0.950 . S
H581 C592 0.950 . S
H582 C594 0.950 . S
H583 C595 0.950 . S
C584 H576 0.950 . S
C584 C585 1.386 . S
C584 C586 1.391 . S
C585 C584 1.386 . S
C585 C589 1.393 . S
C586 H578 0.950 . S
C586 C584 1.391 . S
C586 C587 1.400 . S
C587 C586 1.400 . S
C587 C588 1.398 . S
C587 C593 1.491 . S
C588 H579 0.950 . S
C588 C587 1.398 . S
C588 C589 1.391 . S
C589 H577 0.950 . S
C589 C585 1.393 . S
C589 C588 1.391 . S
C590 H580 0.950 . S
C590 C591 1.386 . S
C590 C592 1.391 . S
C591 C590 1.386 . S
C591 C595 1.393 . S
C592 H581 0.950 . S
C592 C590 1.391 . S
C592 C593 1.400 . S
C593 C587 1.491 . S
C593 C592 1.400 . S
C593 C594 1.398 . S
C594 H582 0.950 . S
C594 C593 1.398 . S
C594 C595 1.391 . S
C595 H583 0.950 . S
C595 C591 1.393 . S
C595 C594 1.391 . S
H596 C604 0.950 . S
H597 C609 0.950 . S
H598 C606 0.950 . S
H599 C608 0.950 . S
H600 C610 0.950 . S
H601 C612 0.950 . S
H602 C614 0.950 . S
H603 C615 0.950 . S
C604 H596 0.950 . S
C604 C605 1.386 . S
C604 C606 1.391 . S
C605 C604 1.386 . S
C605 C609 1.393 . S
C606 H598 0.950 . S
C606 C604 1.391 . S
C606 C607 1.400 . S
C607 C606 1.400 . S
C607 C608 1.398 . S
C607 C613 1.491 . S
C608 H599 0.950 . S
C608 C607 1.398 . S
C608 C609 1.391 . S
C609 H597 0.950 . S
C609 C605 1.393 . S
C609 C608 1.391 . S
C610 H600 0.950 . S
C610 C611 1.386 . S
C610 C612 1.391 . S
C611 C610 1.386 . S
C611 C615 1.393 . S
C612 H601 0.950 . S
C612 C610 1.391 . S
C612 C613 1.400 . S
C613 C607 1.491 . S
C613 C612 1.400 . S
C613 C614 1.398 . S
C614 H602 0.950 . S
C614 C613 1.398 . S
C614 C615 1.391 . S
C615 H603 0.950 . S
C615 C611 1.393 . S
C615 C614 1.391 . S
H616 C624 0.950 . S
H617 C629 0.950 . S
H618 C626 0.950 . S
H619 C628 0.950 . S
H620 C630 0.950 . S
H621 C632 0.950 . S
H622 C634 0.950 . S
H623 C635 0.950 . S
C624 H616 0.950 . S
C624 C625 1.386 . S
C624 C626 1.391 . S
C625 C624 1.386 . S
C625 C629 1.393 . S
C626 H618 0.950 . S
C626 C624 1.391 . S
C626 C627 1.400 . S
C627 C626 1.400 . S
C627 C628 1.398 . S
C627 C633 1.491 . S
C628 H619 0.950 . S
C628 C627 1.398 . S
C628 C629 1.391 . S
C629 H617 0.950 . S
C629 C625 1.393 . S
C629 C628 1.391 . S
C630 H620 0.950 . S
C630 C631 1.386 . S
C630 C632 1.391 . S
C631 C630 1.386 . S
C631 C635 1.393 . S
C632 H621 0.950 . S
C632 C630 1.391 . S
C632 C633 1.400 . S
C633 C627 1.491 . S
C633 C632 1.400 . S
C633 C634 1.398 . S
C634 H622 0.950 . S
C634 C633 1.398 . S
C634 C635 1.391 . S
C635 H623 0.950 . S
C635 C631 1.393 . S
C635 C634 1.391 . S
H636 C644 0.950 . S
H637 C649 0.950 . S
H638 C646 0.950 . S
H639 C648 0.950 . S
H640 C650 0.950 . S
H641 C652 0.950 . S
H642 C654 0.950 . S
H643 C655 0.950 . S
C644 H636 0.950 . S
C644 C645 1.386 . S
C644 C646 1.391 . S
C645 C644 1.386 . S
C645 C649 1.393 . S
C646 H638 0.950 . S
C646 C644 1.391 . S
C646 C647 1.400 . S
C647 C646 1.400 . S
C647 C648 1.398 . S
C647 C653 1.491 . S
C648 H639 0.950 . S
C648 C647 1.398 . S
C648 C649 1.391 . S
C649 H637 0.950 . S
C649 C645 1.393 . S
C649 C648 1.391 . S
C650 H640 0.950 . S
C650 C651 1.386 . S
C650 C652 1.391 . S
C651 C650 1.386 . S
C651 C655 1.393 . S
C652 H641 0.950 . S
C652 C650 1.391 . S
C652 C653 1.400 . S
C653 C647 1.491 . S
C653 C652 1.400 . S
C653 C654 1.398 . S
C654 H642 0.950 . S
C654 C653 1.398 . S
C654 C655 1.391 . S
C655 H643 0.950 . S
C655 C651 1.393 . S
C655 C654 1.391 . S
H656 C664 0.950 . S
H657 C669 0.950 . S
H658 C666 0.950 . S
H659 C668 0.950 . S
H660 C670 0.950 . S
H661 C672 0.950 . S
H662 C674 0.950 . S
H663 C675 0.950 . S
C664 H656 0.950 . S
C664 C665 1.386 . S
C664 C666 1.391 . S
C665 C664 1.386 . S
C665 C669 1.393 . S
C666 H658 0.950 . S
C666 C664 1.391 . S
C666 C667 1.400 . S
C667 C666 1.400 . S
C667 C668 1.398 . S
C667 C673 1.491 . S
C668 H659 0.950 . S
C668 C667 1.398 . S
C668 C669 1.391 . S
C669 H657 0.950 . S
C669 C665 1.393 . S
C669 C668 1.391 . S
C670 H660 0.950 . S
C670 C671 1.386 . S
C670 C672 1.391 . S
C671 C670 1.386 . S
C671 C675 1.393 . S
C672 H661 0.950 . S
C672 C670 1.391 . S
C672 C673 1.400 . S
C673 C667 1.491 . S
C673 C672 1.400 . S
C673 C674 1.398 . S
C674 H662 0.950 . S
C674 C673 1.398 . S
C674 C675 1.391 . S
C675 H663 0.950 . S
C675 C671 1.393 . S
C675 C674 1.391 . S
H676 C684 0.950 . S
H677 C689 0.950 . S
H678 C686 0.950 . S
H679 C688 0.950 . S
H680 C690 0.950 . S
H681 C692 0.950 . S
H682 C694 0.950 . S
H683 C695 0.950 . S
C684 H676 0.950 . S
C684 C685 1.386 . S
C684 C686 1.391 . S
C685 C684 1.386 . S
C685 C689 1.393 . S
C686 H678 0.950 . S
C686 C684 1.391 . S
C686 C687 1.400 . S
C687 C686 1.400 . S
C687 C688 1.398 . S
C687 C693 1.491 . S
C688 H679 0.950 . S
C688 C687 1.398 . S
C688 C689 1.391 . S
C689 H677 0.950 . S
C689 C685 1.393 . S
C689 C688 1.391 . S
C690 H680 0.950 . S
C690 C691 1.386 . S
C690 C692 1.391 . S
C691 C690 1.386 . S
C691 C695 1.393 . S
C692 H681 0.950 . S
C692 C690 1.391 . S
C692 C693 1.400 . S
C693 C687 1.491 . S
C693 C692 1.400 . S
C693 C694 1.398 . S
C694 H682 0.950 . S
C694 C693 1.398 . S
C694 C695 1.391 . S
C695 H683 0.950 . S
C695 C691 1.393 . S
C695 C694 1.391 . S
H696 C704 0.950 . S
H697 C709 0.950 . S
H698 C706 0.950 . S
H699 C708 0.950 . S
H700 C710 0.950 . S
H701 C712 0.950 . S
H702 C714 0.950 . S
H703 C715 0.950 . S
C704 H696 0.950 . S
C704 C705 1.386 . S
C704 C706 1.391 . S
C705 C704 1.386 . S
C705 C709 1.393 . S
C706 H698 0.950 . S
C706 C704 1.391 . S
C706 C707 1.400 . S
C707 C706 1.400 . S
C707 C708 1.398 . S
C707 C713 1.491 . S
C708 H699 0.950 . S
C708 C707 1.398 . S
C708 C709 1.391 . S
C709 H697 0.950 . S
C709 C705 1.393 . S
C709 C708 1.391 . S
C710 H700 0.950 . S
C710 C711 1.386 . S
C710 C712 1.391 . S
C711 C710 1.386 . S
C711 C715 1.393 . S
C712 H701 0.950 . S
C712 C710 1.391 . S
C712 C713 1.400 . S
C713 C707 1.491 . S
C713 C712 1.400 . S
C713 C714 1.398 . S
C714 H702 0.950 . S
C714 C713 1.398 . S
C714 C715 1.391 . S
C715 H703 0.950 . S
C715 C711 1.393 . S
C715 C714 1.391 . S
H716 C724 0.950 . S
H717 C729 0.950 . S
H718 C726 0.950 . S
H719 C728 0.950 . S
H720 C730 0.950 . S
H721 C732 0.950 . S
H722 C734 0.950 . S
H723 C735 0.950 . S
C724 H716 0.950 . S
C724 C725 1.386 . S
C724 C726 1.391 . S
C725 C724 1.386 . S
C725 C729 1.393 . S
C726 H718 0.950 . S
C726 C724 1.391 . S
C726 C727 1.400 . S
C727 C726 1.400 . S
C727 C728 1.398 . S
C727 C733 1.491 . S
C728 H719 0.950 . S
C728 C727 1.398 . S
C728 C729 1.391 . S
C729 H717 0.950 . S
C729 C725 1.393 . S
C729 C728 1.391 . S
C730 H720 0.950 . S
C730 C731 1.386 . S
C730 C732 1.391 . S
C731 C730 1.386 . S
C731 C735 1.393 . S
C732 H721 0.950 . S
C732 C730 1.391 . S
C732 C733 1.400 . S
C733 C727 1.491 . S
C733 C732 1.400 . S
C733 C734 1.398 . S
C734 H722 0.950 . S
C734 C733 1.398 . S
C734 C735 1.391 . S
C735 H723 0.950 . S
C735 C731 1.393 . S
C735 C734 1.391 . S
H736 C744 0.950 . S
H737 C749 0.950 . S
H738 C746 0.950 . S
H739 C748 0.950 . S
H740 C750 0.950 . S
H741 C752 0.950 . S
H742 C754 0.950 . S
H743 C755 0.950 . S
C744 H736 0.950 . S
C744 C745 1.386 . S
C744 C746 1.391 . S
C745 C744 1.386 . S
C745 C749 1.393 . S
C746 H738 0.950 . S
C746 C744 1.391 . S
C746 C747 1.400 . S
C747 C746 1.400 . S
C747 C748 1.398 . S
C747 C753 1.491 . S
C748 H739 0.950 . S
C748 C747 1.398 . S
C748 C749 1.391 . S
C749 H737 0.950 . S
C749 C745 1.393 . S
C749 C748 1.391 . S
C750 H740 0.950 . S
C750 C751 1.386 . S
C750 C752 1.391 . S
C751 C750 1.386 . S
C751 C755 1.393 . S
C752 H741 0.950 . S
C752 C750 1.391 . S
C752 C753 1.400 . S
C753 C747 1.491 . S
C753 C752 1.400 . S
C753 C754 1.398 . S
C754 H742 0.950 . S
C754 C753 1.398 . S
C754 C755 1.391 . S
C755 H743 0.950 . S
C755 C751 1.393 . S
C755 C754 1.391 . S
H756 C764 0.950 . S
H757 C769 0.950 . S
H758 C766 0.950 . S
H759 C768 0.950 . S
H760 C770 0.950 . S
H761 C772 0.950 . S
H762 C774 0.950 . S
H763 C775 0.950 . S
C764 H756 0.950 . S
C764 C765 1.386 . S
C764 C766 1.391 . S
C765 C764 1.386 . S
C765 C769 1.393 . S
C766 H758 0.950 . S
C766 C764 1.391 . S
C766 C767 1.400 . S
C767 C766 1.400 . S
C767 C768 1.398 . S
C767 C773 1.491 . S
C768 H759 0.950 . S
C768 C767 1.398 . S
C768 C769 1.391 . S
C769 H757 0.950 . S
C769 C765 1.393 . S
C769 C768 1.391 . S
C770 H760 0.950 . S
C770 C771 1.386 . S
C770 C772 1.391 . S
C771 C770 1.386 . S
C771 C775 1.393 . S
C772 H761 0.950 . S
C772 C770 1.391 . S
C772 C773 1.400 . S
C773 C767 1.491 . S
C773 C772 1.400 . S
C773 C774 1.398 . S
C774 H762 0.950 . S
C774 C773 1.398 . S
C774 C775 1.391 . S
C775 H763 0.950 . S
C775 C771 1.393 . S
C775 C774 1.391 . S
H776 C784 0.950 . S
H777 C789 0.950 . S
H778 C786 0.950 . S
H779 C788 0.950 . S
H780 C790 0.950 . S
H781 C792 0.950 . S
H782 C794 0.950 . S
H783 C795 0.950 . S
C784 H776 0.950 . S
C784 C785 1.386 . S
C784 C786 1.391 . S
C785 C784 1.386 . S
C785 C789 1.393 . S
C786 H778 0.950 . S
C786 C784 1.391 . S
C786 C787 1.400 . S
C787 C786 1.400 . S
C787 C788 1.398 . S
C787 C793 1.491 . S
C788 H779 0.950 . S
C788 C787 1.398 . S
C788 C789 1.391 . S
C789 H777 0.950 . S
C789 C785 1.393 . S
C789 C788 1.391 . S
C790 H780 0.950 . S
C790 C791 1.386 . S
C790 C792 1.391 . S
C791 C790 1.386 . S
C791 C795 1.393 . S
C792 H781 0.950 . S
C792 C790 1.391 . S
C792 C793 1.400 . S
C793 C787 1.491 . S
C793 C792 1.400 . S
C793 C794 1.398 . S
C794 H782 0.950 . S
C794 C793 1.398 . S
C794 C795 1.391 . S
C795 H783 0.950 . S
C795 C791 1.393 . S
C795 C794 1.391 . S
H796 C804 0.950 . S
H797 C809 0.950 . S
H798 C806 0.950 . S
H799 C808 0.950 . S
H800 C810 0.950 . S
H801 C812 0.950 . S
H802 C814 0.950 . S
H803 C815 0.950 . S
C804 H796 0.950 . S
C804 C805 1.386 . S
C804 C806 1.391 . S
C805 C804 1.386 . S
C805 C809 1.393 . S
C806 H798 0.950 . S
C806 C804 1.391 . S
C806 C807 1.400 . S
C807 C806 1.400 . S
C807 C808 1.398 . S
C807 C813 1.491 . S
C808 H799 0.950 . S
C808 C807 1.398 . S
C808 C809 1.391 . S
C809 H797 0.950 . S
C809 C805 1.393 . S
C809 C808 1.391 . S
C810 H800 0.950 . S
C810 C811 1.386 . S
C810 C812 1.391 . S
C811 C810 1.386 . S
C811 C815 1.393 . S
C812 H801 0.950 . S
C812 C810 1.391 . S
C812 C813 1.400 . S
C813 C807 1.491 . S
C813 C812 1.400 . S
C813 C814 1.398 . S
C814 H802 0.950 . S
C814 C813 1.398 . S
C814 C815 1.391 . S
C815 H803 0.950 . S
C815 C811 1.393 . S
C815 C814 1.391 . S
H816 C824 0.950 . S
H817 C829 0.950 . S
H818 C826 0.950 . S
H819 C828 0.950 . S
H820 C830 0.950 . S
H821 C832 0.950 . S
H822 C834 0.950 . S
H823 C835 0.950 . S
C824 H816 0.950 . S
C824 C825 1.386 . S
C824 C826 1.391 . S
C825 C824 1.386 . S
C825 C829 1.393 . S
C826 H818 0.950 . S
C826 C824 1.391 . S
C826 C827 1.400 . S
C827 C826 1.400 . S
C827 C828 1.398 . S
C827 C833 1.491 . S
C828 H819 0.950 . S
C828 C827 1.398 . S
C828 C829 1.391 . S
C829 H817 0.950 . S
C829 C825 1.393 . S
C829 C828 1.391 . S
C830 H820 0.950 . S
C830 C831 1.386 . S
C830 C832 1.391 . S
C831 C830 1.386 . S
C831 C835 1.393 . S
C832 H821 0.950 . S
C832 C830 1.391 . S
C832 C833 1.400 . S
C833 C827 1.491 . S
C833 C832 1.400 . S
C833 C834 1.398 . S
C834 H822 0.950 . S
C834 C833 1.398 . S
C834 C835 1.391 . S
C835 H823 0.950 . S
C835 C831 1.393 . S
C835 C834 1.391 . S
H836 C844 0.950 . S
H837 C849 0.950 . S
H838 C846 0.950 . S
H839 C848 0.950 . S
H840 C850 0.950 . S
H841 C852 0.950 . S
H842 C854 0.950 . S
H843 C855 0.950 . S
C844 H836 0.950 . S
C844 C845 1.386 . S
C844 C846 1.391 . S
C845 C844 1.386 . S
C845 C849 1.393 . S
C846 H838 0.950 . S
C846 C844 1.391 . S
C846 C847 1.400 1_554 S
C847 C846 1.400 1_556 S
C847 C848 1.398 . S
C847 C853 1.491 . S
C848 H839 0.950 . S
C848 C847 1.398 . S
C848 C849 1.391 1_556 S
C849 H837 0.950 . S
C849 C845 1.393 . S
C849 C848 1.391 1_554 S
C850 H840 0.950 . S
C850 C851 1.386 . S
C850 C852 1.391 . S
C851 C850 1.386 . S
C851 C855 1.393 . S
C852 H841 0.950 . S
C852 C850 1.391 . S
C852 C853 1.400 . S
C853 C847 1.491 . S
C853 C852 1.400 . S
C853 C854 1.398 . S
C854 H842 0.950 . S
C854 C853 1.398 . S
C854 C855 1.391 . S
C855 H843 0.950 . S
C855 C851 1.393 . S
C855 C854 1.391 . S
H856 C864 0.950 . S
H857 C869 0.950 . S
H858 C866 0.950 . S
H859 C868 0.950 . S
H860 C870 0.950 . S
H861 C872 0.950 . S
H862 C874 0.950 . S
H863 C875 0.950 . S
C864 H856 0.950 . S
C864 C865 1.386 . S
C864 C866 1.391 . S
C865 C864 1.386 . S
C865 C869 1.393 . S
C866 H858 0.950 . S
C866 C864 1.391 . S
C866 C867 1.400 . S
C867 C866 1.400 . S
C867 C868 1.398 . S
C867 C873 1.491 . S
C868 H859 0.950 . S
C868 C867 1.398 . S
C868 C869 1.391 . S
C869 H857 0.950 . S
C869 C865 1.393 . S
C869 C868 1.391 . S
C870 H860 0.950 . S
C870 C871 1.386 . S
C870 C872 1.391 . S
C871 C870 1.386 . S
C871 C875 1.393 . S
C872 H861 0.950 . S
C872 C870 1.391 . S
C872 C873 1.400 . S
C873 C867 1.491 . S
C873 C872 1.400 . S
C873 C874 1.398 . S
C874 H862 0.950 . S
C874 C873 1.398 . S
C874 C875 1.391 . S
C875 H863 0.950 . S
C875 C871 1.393 . S
C875 C874 1.391 . S
H876 C884 0.950 . S
H877 C889 0.950 . S
H878 C886 0.950 . S
H879 C888 0.950 . S
H880 C890 0.950 . S
H881 C892 0.950 . S
H882 C894 0.950 . S
H883 C895 0.950 . S
C884 H876 0.950 . S
C884 C885 1.386 . S
C884 C886 1.391 . S
C885 C884 1.386 . S
C885 C889 1.393 . S
C886 H878 0.950 . S
C886 C884 1.391 . S
C886 C887 1.400 . S
C887 C886 1.400 . S
C887 C888 1.398 . S
C887 C893 1.491 . S
C888 H879 0.950 . S
C888 C887 1.398 . S
C888 C889 1.391 . S
C889 H877 0.950 . S
C889 C885 1.393 . S
C889 C888 1.391 . S
C890 H880 0.950 . S
C890 C891 1.386 . S
C890 C892 1.391 . S
C891 C890 1.386 . S
C891 C895 1.393 . S
C892 H881 0.950 . S
C892 C890 1.391 . S
C892 C893 1.400 1_556 S
C893 C887 1.491 . S
C893 C892 1.400 1_554 S
C893 C894 1.398 . S
C894 H882 0.950 . S
C894 C893 1.398 . S
C894 C895 1.391 1_554 S
C895 H883 0.950 . S
C895 C891 1.393 . S
C895 C894 1.391 1_556 S
H896 C904 0.950 . S
H897 C909 0.950 . S
H898 C906 0.950 . S
H899 C908 0.950 . S
H900 C910 0.950 . S
H901 C912 0.950 . S
H902 C914 0.950 . S
H903 C915 0.950 . S
C904 H896 0.950 . S
C904 C905 1.386 . S
C904 C906 1.391 . S
C905 C904 1.386 . S
C905 C909 1.393 . S
C906 H898 0.950 . S
C906 C904 1.391 . S
C906 C907 1.400 . S
C907 C906 1.400 . S
C907 C908 1.398 . S
C907 C913 1.491 . S
C908 H899 0.950 . S
C908 C907 1.398 . S
C908 C909 1.391 . S
C909 H897 0.950 . S
C909 C905 1.393 . S
C909 C908 1.391 . S
C910 H900 0.950 . S
C910 C911 1.386 . S
C910 C912 1.391 . S
C911 C910 1.386 . S
C911 C915 1.393 . S
C912 H901 0.950 . S
C912 C910 1.391 . S
C912 C913 1.400 . S
C913 C907 1.491 . S
C913 C912 1.400 . S
C913 C914 1.398 . S
C914 H902 0.950 . S
C914 C913 1.398 . S
C914 C915 1.391 . S
C915 H903 0.950 . S
C915 C911 1.393 . S
C915 C914 1.391 . S
H916 C924 0.950 . S
H917 C929 0.950 . S
H918 C926 0.950 . S
H919 C928 0.937 1_455 S
H920 C930 0.950 . S
H921 C932 0.950 . S
H922 C934 0.950 . S
H923 C935 0.950 . S
C924 H916 0.950 . S
C924 C925 1.386 . S
C924 C926 1.391 1_655 S
C925 C924 1.386 . S
C925 C929 1.393 . S
C926 H918 0.950 . S
C926 C924 1.391 1_455 S
C926 C927 1.400 . S
C927 C926 1.400 . S
C927 C928 1.366 1_455 S
C927 C933 1.491 . S
C928 H919 0.937 1_655 S
C928 C927 1.366 1_655 S
C928 C929 1.436 . S
C929 H917 0.950 . S
C929 C925 1.393 . S
C929 C928 1.436 . S
C930 H920 0.950 . S
C930 C931 1.386 . S
C930 C932 1.391 . S
C931 C930 1.386 . S
C931 C935 1.393 . S
C932 H921 0.950 . S
C932 C930 1.391 . S
C932 C933 1.400 . S
C933 C927 1.491 . S
C933 C932 1.400 . S
C933 C934 1.398 . S
C934 H922 0.950 . S
C934 C933 1.398 . S
C934 C935 1.391 . S
C935 H923 0.950 . S
C935 C931 1.393 . S
C935 C934 1.391 . S
H936 C944 0.950 . S
H937 C949 0.950 . S
H938 C946 0.950 . S
H939 C948 0.950 . S
H940 C950 0.950 . S
H941 C952 0.950 . S
H942 C954 0.950 . S
H943 C955 0.950 . S
C944 H936 0.950 . S
C944 C945 1.386 . S
C944 C946 1.391 1_455 S
C945 C944 1.386 . S
C945 C949 1.393 . S
C946 H938 0.950 . S
C946 C944 1.391 1_655 S
C946 C947 1.400 . S
C947 C946 1.400 . S
C947 C948 1.398 . S
C947 C953 1.491 . S
C948 H939 0.950 . S
C948 C947 1.398 . S
C948 C949 1.391 1_655 S
C949 H937 0.950 . S
C949 C945 1.393 . S
C949 C948 1.391 1_455 S
C950 H940 0.950 . S
C950 C951 1.386 . S
C950 C952 1.391 . S
C951 C950 1.386 . S
C951 C955 1.393 . S
C952 H941 0.950 . S
C952 C950 1.391 . S
C952 C953 1.400 . S
C953 C947 1.491 . S
C953 C952 1.400 . S
C953 C954 1.398 . S
C954 H942 0.950 . S
C954 C953 1.398 . S
C954 C955 1.391 . S
C955 H943 0.950 . S
C955 C951 1.393 . S
C955 C954 1.391 . S
H956 C964 0.950 . S
H957 C969 0.950 . S
H958 C966 0.950 . S
H959 C968 0.950 . S
H960 C970 0.950 . S
H961 C972 0.950 . S
H962 C974 0.950 . S
H963 C975 0.950 . S
C964 H956 0.950 . S
C964 C965 1.386 . S
C964 C966 1.391 . S
C965 C964 1.386 . S
C965 C969 1.393 . S
C966 H958 0.950 . S
C966 C964 1.391 . S
C966 C967 1.400 . S
C967 C966 1.400 . S
C967 C968 1.398 . S
C967 C973 1.491 . S
C968 H959 0.950 . S
C968 C967 1.398 . S
C968 C969 1.391 . S
C969 H957 0.950 . S
C969 C965 1.393 . S
C969 C968 1.391 . S
C970 H960 0.950 . S
C970 C971 1.386 . S
C970 C972 1.391 . S
C971 C970 1.386 . S
C971 C975 1.393 . S
C972 H961 0.950 . S
C972 C970 1.391 . S
C972 C973 1.400 . S
C973 C967 1.491 . S
C973 C972 1.400 . S
C973 C974 1.398 . S
C974 H962 0.950 . S
C974 C973 1.398 . S
C974 C975 1.391 . S
C975 H963 0.950 . S
C975 C971 1.393 . S
C975 C974 1.391 . S
H976 C984 0.950 . S
H977 C989 0.950 . S
H978 C986 0.950 . S
H979 C988 0.950 . S
H980 C990 0.950 . S
H981 C992 0.950 . S
H982 C994 0.950 . S
H983 C995 0.950 . S
C984 H976 0.950 . S
C984 C985 1.386 . S
C984 C986 1.391 . S
C985 C984 1.386 . S
C985 C989 1.393 . S
C986 H978 0.950 . S
C986 C984 1.391 . S
C986 C987 1.400 . S
C987 C986 1.400 . S
C987 C988 1.398 . S
C987 C993 1.491 . S
C988 H979 0.950 . S
C988 C987 1.398 . S
C988 C989 1.391 . S
C989 H977 0.950 . S
C989 C985 1.393 . S
C989 C988 1.391 . S
C990 H980 0.950 . S
C990 C991 1.386 . S
C990 C992 1.391 . S
C991 C990 1.386 . S
C991 C995 1.393 . S
C992 H981 0.950 . S
C992 C990 1.391 . S
C992 C993 1.400 . S
C993 C987 1.491 . S
C993 C992 1.400 . S
C993 C994 1.398 . S
C994 H982 0.950 . S
C994 C993 1.398 . S
C994 C995 1.391 . S
C995 H983 0.950 . S
C995 C991 1.393 . S
C995 C994 1.391 . S
H996 C1004 0.950 . S
H997 C1009 0.950 . S
H998 C1006 0.950 1_545 S
H999 C1008 0.941 1_545 S
H1000 C1010 0.950 . S
H1001 C1012 0.950 . S
H1002 C1014 0.950 . S
H1003 C1015 0.950 . S
C1004 H996 0.950 . S
C1004 C1005 1.386 . S
C1004 C1006 1.391 . S
C1005 C1004 1.386 . S
C1005 C1009 1.393 . S
C1006 H998 0.950 1_565 S
C1006 C1004 1.391 . S
C1006 C1007 1.400 1_565 S
C1007 C1006 1.400 1_545 S
C1007 C1008 1.392 1_545 S
C1007 C1013 1.491 . S
C1008 H999 0.941 1_565 S
C1008 C1007 1.392 1_565 S
C1008 C1009 1.406 . S
C1009 H997 0.950 . S
C1009 C1005 1.393 . S
C1009 C1008 1.406 . S
C1010 H1000 0.950 . S
C1010 C1011 1.386 . S
C1010 C1012 1.391 . S
C1011 C1010 1.386 . S
C1011 C1015 1.393 . S
C1012 H1001 0.950 . S
C1012 C1010 1.391 . S
C1012 C1013 1.400 . S
C1013 C1007 1.491 . S
C1013 C1012 1.400 . S
C1013 C1014 1.398 . S
C1014 H1002 0.950 . S
C1014 C1013 1.398 . S
C1014 C1015 1.391 . S
C1015 H1003 0.950 . S
C1015 C1011 1.393 . S
C1015 C1014 1.391 . S
H1016 C1024 0.950 . S
H1017 C1029 0.950 . S
H1018 C1026 0.950 1_565 S
H1019 C1028 0.950 1_565 S
H1020 C1030 0.950 . S
H1021 C1032 0.950 . S
H1022 C1034 0.950 . S
H1023 C1035 0.950 . S
C1024 H1016 0.950 . S
C1024 C1025 1.386 . S
C1024 C1026 1.391 . S
C1025 C1024 1.386 . S
C1025 C1029 1.393 . S
C1026 H1018 0.950 1_545 S
C1026 C1024 1.391 . S
C1026 C1027 1.400 1_545 S
C1027 C1026 1.400 1_565 S
C1027 C1028 1.398 1_565 S
C1027 C1033 1.491 . S
C1028 H1019 0.950 1_545 S
C1028 C1027 1.398 1_545 S
C1028 C1029 1.391 . S
C1029 H1017 0.950 . S
C1029 C1025 1.393 . S
C1029 C1028 1.391 . S
C1030 H1020 0.950 . S
C1030 C1031 1.386 . S
C1030 C1032 1.391 . S
C1031 C1030 1.386 . S
C1031 C1035 1.393 . S
C1032 H1021 0.950 . S
C1032 C1030 1.391 . S
C1032 C1033 1.400 . S
C1033 C1027 1.491 . S
C1033 C1032 1.400 . S
C1033 C1034 1.398 . S
C1034 H1022 0.950 . S
C1034 C1033 1.398 . S
C1034 C1035 1.391 . S
C1035 H1023 0.950 . S
C1035 C1031 1.393 . S
C1035 C1034 1.391 . S
H1036 C1044 0.950 . S
H1037 C1049 0.950 . S
H1038 C1046 0.950 . S
H1039 C1048 0.950 . S
H1040 C1050 0.950 . S
H1041 C1052 0.950 . S
H1042 C1054 0.950 . S
H1043 C1055 0.950 . S
C1044 H1036 0.950 . S
C1044 C1045 1.386 . S
C1044 C1046 1.391 . S
C1045 C1044 1.386 . S
C1045 C1049 1.393 . S
C1046 H1038 0.950 . S
C1046 C1044 1.391 . S
C1046 C1047 1.400 . S
C1047 C1046 1.400 . S
C1047 C1048 1.398 . S
C1047 C1053 1.491 . S
C1048 H1039 0.950 . S
C1048 C1047 1.398 . S
C1048 C1049 1.391 . S
C1049 H1037 0.950 . S
C1049 C1045 1.393 . S
C1049 C1048 1.391 . S
C1050 H1040 0.950 . S
C1050 C1051 1.386 . S
C1050 C1052 1.391 . S
C1051 C1050 1.386 . S
C1051 C1055 1.393 . S
C1052 H1041 0.950 . S
C1052 C1050 1.391 . S
C1052 C1053 1.400 . S
C1053 C1047 1.491 . S
C1053 C1052 1.400 . S
C1053 C1054 1.398 . S
C1054 H1042 0.950 . S
C1054 C1053 1.398 . S
C1054 C1055 1.391 . S
C1055 H1043 0.950 . S
C1055 C1051 1.393 . S
C1055 C1054 1.391 . S
H1056 C1064 0.950 . S
H1057 C1069 0.950 . S
H1058 C1066 0.950 . S
H1059 C1068 0.950 . S
H1060 C1070 0.950 . S
H1061 C1072 0.950 . S
H1062 C1074 0.950 . S
H1063 C1075 0.950 . S
C1064 H1056 0.950 . S
C1064 C1065 1.386 . S
C1064 C1066 1.391 . S
C1065 C1064 1.386 . S
C1065 C1069 1.393 . S
C1066 H1058 0.950 . S
C1066 C1064 1.391 . S
C1066 C1067 1.400 . S
C1067 C1066 1.400 . S
C1067 C1068 1.398 . S
C1067 C1073 1.491 . S
C1068 H1059 0.950 . S
C1068 C1067 1.398 . S
C1068 C1069 1.391 . S
C1069 H1057 0.950 . S
C1069 C1065 1.393 . S
C1069 C1068 1.391 . S
C1070 H1060 0.950 . S
C1070 C1071 1.386 . S
C1070 C1072 1.391 . S
C1071 C1070 1.386 . S
C1071 C1075 1.393 . S
C1072 H1061 0.950 . S
C1072 C1070 1.391 . S
C1072 C1073 1.400 . S
C1073 C1067 1.491 . S
C1073 C1072 1.400 . S
C1073 C1074 1.398 . S
C1074 H1062 0.950 . S
C1074 C1073 1.398 . S
C1074 C1075 1.391 . S
C1075 H1063 0.950 . S
C1075 C1071 1.393 . S
C1075 C1074 1.391 . S
H1076 C1084 0.950 . S
H1077 C1089 0.950 . S
H1078 C1086 0.950 . S
H1079 C1088 0.941 1_554 S
H1080 C1090 0.950 . S
H1081 C1092 0.950 . S
H1082 C1094 0.950 . S
H1083 C1095 0.950 . S
C1084 H1076 0.950 . S
C1084 C1085 1.386 . S
C1084 C1086 1.391 1_556 S
C1085 C1084 1.386 . S
C1085 C1089 1.393 . S
C1086 H1078 0.950 . S
C1086 C1084 1.391 1_554 S
C1086 C1087 1.400 . S
C1087 C1086 1.400 . S
C1087 C1088 1.373 1_554 S
C1087 C1093 1.491 . S
C1088 H1079 0.941 1_556 S
C1088 C1087 1.373 1_556 S
C1088 C1089 1.426 . S
C1089 H1077 0.950 . S
C1089 C1085 1.393 . S
C1089 C1088 1.426 . S
C1090 H1080 0.950 . S
C1090 C1091 1.386 . S
C1090 C1092 1.391 . S
C1091 C1090 1.386 . S
C1091 C1095 1.393 . S
C1092 H1081 0.950 . S
C1092 C1090 1.391 . S
C1092 C1093 1.400 . S
C1093 C1087 1.491 . S
C1093 C1092 1.400 . S
C1093 C1094 1.398 . S
C1094 H1082 0.950 . S
C1094 C1093 1.398 . S
C1094 C1095 1.391 . S
C1095 H1083 0.950 . S
C1095 C1091 1.393 . S
C1095 C1094 1.391 . S
H1096 C1104 0.950 . S
H1097 C1109 0.950 . S
H1098 C1106 0.950 . S
H1099 C1108 0.950 . S
H1100 C1110 0.950 . S
H1101 C1112 0.950 . S
H1102 C1114 0.950 . S
H1103 C1115 0.950 . S
C1104 H1096 0.950 . S
C1104 C1105 1.386 . S
C1104 C1106 1.391 . S
C1105 C1104 1.386 . S
C1105 C1109 1.393 . S
C1106 H1098 0.950 . S
C1106 C1104 1.391 . S
C1106 C1107 1.400 . S
C1107 C1106 1.400 . S
C1107 C1108 1.398 . S
C1107 C1113 1.491 . S
C1108 H1099 0.950 . S
C1108 C1107 1.398 . S
C1108 C1109 1.391 . S
C1109 H1097 0.950 . S
C1109 C1105 1.393 . S
C1109 C1108 1.391 . S
C1110 H1100 0.950 . S
C1110 C1111 1.386 . S
C1110 C1112 1.391 . S
C1111 C1110 1.386 . S
C1111 C1115 1.393 . S
C1112 H1101 0.950 . S
C1112 C1110 1.391 . S
C1112 C1113 1.400 . S
C1113 C1107 1.491 . S
C1113 C1112 1.400 . S
C1113 C1114 1.398 . S
C1114 H1102 0.950 . S
C1114 C1113 1.398 . S
C1114 C1115 1.391 . S
C1115 H1103 0.950 . S
C1115 C1111 1.393 . S
C1115 C1114 1.391 . S
H1116 C1124 0.950 . S
H1117 C1129 0.950 . S
H1118 C1126 0.950 . S
H1119 C1128 0.950 . S
H1120 C1130 0.950 . S
H1121 C1132 0.950 . S
H1122 C1134 0.950 . S
H1123 C1135 0.950 . S
C1124 H1116 0.950 . S
C1124 C1125 1.386 . S
C1124 C1126 1.391 1_554 S
C1125 C1124 1.386 . S
C1125 C1129 1.393 . S
C1126 H1118 0.950 . S
C1126 C1124 1.391 1_556 S
C1126 C1127 1.400 . S
C1127 C1126 1.400 . S
C1127 C1128 1.398 . S
C1127 C1133 1.491 . S
C1128 H1119 0.950 . S
C1128 C1127 1.398 . S
C1128 C1129 1.391 1_556 S
C1129 H1117 0.950 . S
C1129 C1125 1.393 . S
C1129 C1128 1.391 1_554 S
C1130 H1120 0.950 . S
C1130 C1131 1.386 . S
C1130 C1132 1.391 . S
C1131 C1130 1.386 . S
C1131 C1135 1.393 . S
C1132 H1121 0.950 . S
C1132 C1130 1.391 . S
C1132 C1133 1.400 . S
C1133 C1127 1.491 . S
C1133 C1132 1.400 . S
C1133 C1134 1.398 . S
C1134 H1122 0.950 . S
C1134 C1133 1.398 . S
C1134 C1135 1.391 . S
C1135 H1123 0.950 . S
C1135 C1131 1.393 . S
C1135 C1134 1.391 . S
H1136 C1144 0.950 . S
H1137 C1149 0.950 . S
H1138 C1146 0.950 . S
H1139 C1148 0.950 . S
H1140 C1150 0.950 . S
H1141 C1152 0.950 . S
H1142 C1154 0.950 . S
H1143 C1155 0.950 . S
C1144 H1136 0.950 . S
C1144 C1145 1.386 . S
C1144 C1146 1.391 . S
C1145 C1144 1.386 . S
C1145 C1149 1.393 . S
C1146 H1138 0.950 . S
C1146 C1144 1.391 . S
C1146 C1147 1.400 . S
C1147 C1146 1.400 . S
C1147 C1148 1.398 . S
C1147 C1153 1.491 . S
C1148 H1139 0.950 . S
C1148 C1147 1.398 . S
C1148 C1149 1.391 . S
C1149 H1137 0.950 . S
C1149 C1145 1.393 . S
C1149 C1148 1.391 . S
C1150 H1140 0.950 . S
C1150 C1151 1.386 . S
C1150 C1152 1.391 . S
C1151 C1150 1.386 . S
C1151 C1155 1.393 . S
C1152 H1141 0.950 . S
C1152 C1150 1.391 . S
C1152 C1153 1.400 . S
C1153 C1147 1.491 . S
C1153 C1152 1.400 . S
C1153 C1154 1.398 . S
C1154 H1142 0.950 . S
C1154 C1153 1.398 . S
C1154 C1155 1.391 . S
C1155 H1143 0.950 . S
C1155 C1151 1.393 . S
C1155 C1154 1.391 . S
H1156 C1164 0.950 . S
H1157 C1169 0.950 . S
H1158 C1166 0.950 . S
H1159 C1168 0.950 . S
H1160 C1170 0.950 . S
H1161 C1172 0.950 1_655 S
H1162 C1174 0.950 1_655 S
H1163 C1175 0.950 . S
C1164 H1156 0.950 . S
C1164 C1165 1.386 . S
C1164 C1166 1.391 . S
C1165 C1164 1.386 . S
C1165 C1169 1.393 . S
C1166 H1158 0.950 . S
C1166 C1164 1.391 . S
C1166 C1167 1.400 . S
C1167 C1166 1.400 . S
C1167 C1168 1.398 . S
C1167 C1173 1.491 . S
C1168 H1159 0.950 . S
C1168 C1167 1.398 . S
C1168 C1169 1.391 . S
C1169 H1157 0.950 . S
C1169 C1165 1.393 . S
C1169 C1168 1.391 . S
C1170 H1160 0.950 . S
C1170 C1171 1.386 . S
C1170 C1172 1.391 . S
C1171 C1170 1.386 . S
C1171 C1175 1.393 . S
C1172 H1161 0.950 1_455 S
C1172 C1170 1.391 . S
C1172 C1173 1.400 1_455 S
C1173 C1167 1.491 . S
C1173 C1172 1.400 1_655 S
C1173 C1174 1.398 1_655 S
C1174 H1162 0.950 1_455 S
C1174 C1173 1.398 1_455 S
C1174 C1175 1.391 . S
C1175 H1163 0.950 . S
C1175 C1171 1.393 . S
C1175 C1174 1.391 . S
H1176 C1184 0.950 . S
H1177 C1189 0.950 . S
H1178 C1186 0.950 . S
H1179 C1188 0.950 . S
H1180 C1190 0.950 . S
H1181 C1192 0.950 . S
H1182 C1194 0.950 . S
H1183 C1195 0.950 . S
C1184 H1176 0.950 . S
C1184 C1185 1.386 . S
C1184 C1186 1.391 . S
C1185 C1184 1.386 . S
C1185 C1189 1.393 . S
C1186 H1178 0.950 . S
C1186 C1184 1.391 . S
C1186 C1187 1.400 . S
C1187 C1186 1.400 . S
C1187 C1188 1.398 . S
C1187 C1193 1.491 . S
C1188 H1179 0.950 . S
C1188 C1187 1.398 . S
C1188 C1189 1.391 . S
C1189 H1177 0.950 . S
C1189 C1185 1.393 . S
C1189 C1188 1.391 . S
C1190 H1180 0.950 . S
C1190 C1191 1.386 . S
C1190 C1192 1.391 1_655 S
C1191 C1190 1.386 . S
C1191 C1195 1.393 . S
C1192 H1181 0.950 . S
C1192 C1190 1.391 1_455 S
C1192 C1193 1.400 . S
C1193 C1187 1.491 . S
C1193 C1192 1.400 . S
C1193 C1194 1.398 1_455 S
C1194 H1182 0.950 . S
C1194 C1193 1.398 1_655 S
C1194 C1195 1.391 . S
C1195 H1183 0.950 . S
C1195 C1191 1.393 . S
C1195 C1194 1.391 . S
H1196 C1204 0.950 . S
H1197 C1209 0.950 . S
H1198 C1206 0.950 . S
H1199 C1208 0.950 . S
H1200 C1210 0.950 . S
H1201 C1212 0.950 . S
H1202 C1214 0.950 . S
H1203 C1215 0.950 . S
C1204 H1196 0.950 . S
C1204 C1205 1.386 . S
C1204 C1206 1.391 . S
C1205 C1204 1.386 . S
C1205 C1209 1.393 . S
C1206 H1198 0.950 . S
C1206 C1204 1.391 . S
C1206 C1207 1.400 . S
C1207 C1206 1.400 . S
C1207 C1208 1.398 . S
C1207 C1213 1.491 . S
C1208 H1199 0.950 . S
C1208 C1207 1.398 . S
C1208 C1209 1.391 . S
C1209 H1197 0.950 . S
C1209 C1205 1.393 . S
C1209 C1208 1.391 . S
C1210 H1200 0.950 . S
C1210 C1211 1.386 . S
C1210 C1212 1.391 . S
C1211 C1210 1.386 . S
C1211 C1215 1.393 . S
C1212 H1201 0.950 . S
C1212 C1210 1.391 . S
C1212 C1213 1.400 . S
C1213 C1207 1.491 . S
C1213 C1212 1.400 . S
C1213 C1214 1.398 . S
C1214 H1202 0.950 . S
C1214 C1213 1.398 . S
C1214 C1215 1.391 . S
C1215 H1203 0.950 . S
C1215 C1211 1.393 . S
C1215 C1214 1.391 . S
H1216 C1224 0.950 . S
H1217 C1229 0.950 . S
H1218 C1226 0.950 . S
H1219 C1228 0.950 . S
H1220 C1230 0.950 . S
H1221 C1232 0.950 . S
H1222 C1234 0.950 . S
H1223 C1235 0.950 . S
C1224 H1216 0.950 . S
C1224 C1225 1.386 . S
C1224 C1226 1.391 . S
C1225 C1224 1.386 . S
C1225 C1229 1.393 . S
C1226 H1218 0.950 . S
C1226 C1224 1.391 . S
C1226 C1227 1.400 . S
C1227 C1226 1.400 . S
C1227 C1228 1.398 . S
C1227 C1233 1.491 . S
C1228 H1219 0.950 . S
C1228 C1227 1.398 . S
C1228 C1229 1.391 . S
C1229 H1217 0.950 . S
C1229 C1225 1.393 . S
C1229 C1228 1.391 . S
C1230 H1220 0.950 . S
C1230 C1231 1.386 . S
C1230 C1232 1.391 . S
C1231 C1230 1.386 . S
C1231 C1235 1.393 . S
C1232 H1221 0.950 . S
C1232 C1230 1.391 . S
C1232 C1233 1.400 . S
C1233 C1227 1.491 . S
C1233 C1232 1.400 . S
C1233 C1234 1.398 . S
C1234 H1222 0.950 . S
C1234 C1233 1.398 . S
C1234 C1235 1.391 . S
C1235 H1223 0.950 . S
C1235 C1231 1.393 . S
C1235 C1234 1.391 . S
H1236 C1244 0.950 . S
H1237 C1249 0.950 . S
H1238 C1246 0.950 . S
H1239 C1248 0.950 . S
H1240 C1250 0.950 . S
H1241 C1252 0.950 . S
H1242 C1254 0.960 . S
H1243 C1255 0.950 . S
C1244 H1236 0.950 . S
C1244 C1245 1.386 . S
C1244 C1246 1.391 . S
C1245 C1244 1.386 . S
C1245 C1249 1.393 . S
C1246 H1238 0.950 . S
C1246 C1244 1.391 . S
C1246 C1247 1.400 . S
C1247 C1246 1.400 . S
C1247 C1248 1.398 . S
C1247 C1253 1.491 . S
C1248 H1239 0.950 . S
C1248 C1247 1.398 . S
C1248 C1249 1.391 . S
C1249 H1237 0.950 . S
C1249 C1245 1.393 . S
C1249 C1248 1.391 . S
C1250 H1240 0.950 . S
C1250 C1251 1.386 . S
C1250 C1252 1.391 1_545 S
C1251 C1250 1.386 . S
C1251 C1255 1.393 . S
C1252 H1241 0.950 . S
C1252 C1250 1.391 1_565 S
C1252 C1253 1.400 . S
C1253 C1247 1.491 . S
C1253 C1252 1.400 . S
C1253 C1254 1.398 1_565 S
C1254 H1242 0.960 . S
C1254 C1253 1.398 1_545 S
C1254 C1255 1.391 . S
C1255 H1243 0.950 . S
C1255 C1251 1.393 . S
C1255 C1254 1.391 . S
H1256 C1264 0.950 . S
H1257 C1269 0.950 . S
H1258 C1266 0.950 1_545 S
H1259 C1268 0.950 1_545 S
H1260 C1270 0.950 . S
H1261 C1272 0.950 . S
H1262 C1274 0.950 . S
H1263 C1275 0.950 . S
C1264 H1256 0.950 . S
C1264 C1265 1.386 . S
C1264 C1266 1.391 . S
C1265 C1264 1.386 . S
C1265 C1269 1.393 . S
C1266 H1258 0.950 1_565 S
C1266 C1264 1.391 . S
C1266 C1267 1.400 1_565 S
C1267 C1266 1.400 1_545 S
C1267 C1268 1.398 1_545 S
C1267 C1273 1.491 . S
C1268 H1259 0.950 1_565 S
C1268 C1267 1.398 1_565 S
C1268 C1269 1.391 . S
C1269 H1257 0.950 . S
C1269 C1265 1.393 . S
C1269 C1268 1.391 . S
C1270 H1260 0.950 . S
C1270 C1271 1.386 . S
C1270 C1272 1.391 . S
C1271 C1270 1.386 . S
C1271 C1275 1.393 . S
C1272 H1261 0.950 . S
C1272 C1270 1.391 . S
C1272 C1273 1.400 . S
C1273 C1267 1.491 . S
C1273 C1272 1.400 . S
C1273 C1274 1.398 . S
C1274 H1262 0.950 . S
C1274 C1273 1.398 . S
C1274 C1275 1.391 . S
C1275 H1263 0.950 . S
C1275 C1271 1.393 . S
C1275 C1274 1.391 . S
H1276 C1284 0.950 . S
H1277 C1289 0.950 . S
H1278 C1286 0.950 . S
H1279 C1288 0.950 . S
H1280 C1290 0.950 . S
H1281 C1292 0.950 . S
H1282 C1294 0.950 . S
H1283 C1295 0.950 . S
C1284 H1276 0.950 . S
C1284 C1285 1.386 . S
C1284 C1286 1.391 . S
C1285 C1284 1.386 . S
C1285 C1289 1.393 . S
C1286 H1278 0.950 . S
C1286 C1284 1.391 . S
C1286 C1287 1.400 . S
C1287 C1286 1.400 . S
C1287 C1288 1.398 . S
C1287 C1293 1.491 . S
C1288 H1279 0.950 . S
C1288 C1287 1.398 . S
C1288 C1289 1.391 . S
C1289 H1277 0.950 . S
C1289 C1285 1.393 . S
C1289 C1288 1.391 . S
C1290 H1280 0.950 . S
C1290 C1291 1.386 . S
C1290 C1292 1.391 . S
C1291 C1290 1.386 . S
C1291 C1295 1.393 . S
C1292 H1281 0.950 . S
C1292 C1290 1.391 . S
C1292 C1293 1.400 . S
C1293 C1287 1.491 . S
C1293 C1292 1.400 . S
C1293 C1294 1.398 . S
C1294 H1282 0.950 . S
C1294 C1293 1.398 . S
C1294 C1295 1.391 . S
C1295 H1283 0.950 . S
C1295 C1291 1.393 . S
C1295 C1294 1.391 . S
C345 C121 1.052 . S
C351 C3 1.039 . S
C365 C17 1.056 . S
C371 C163 1.055 . S
C385 C31 1.066 . S
C391 C135 1.029 . S
C405 C45 1.039 . S
C411 C149 1.049 . S
C425 C59 1.038 . S
C431 C9 1.017 . S
C445 C23 1.021 . S
C451 C73 1.013 . S
C465 C87 1.015 . S
C471 C37 1.029 . S
C485 C51 0.999 . S
C491 C101 1.039 . S
C505 C65 1.020 . S
C511 C115 1.053 . S
C525 C93 1.021 . S
C531 C129 1.051 . S
C545 C143 1.061 . S
C551 C107 1.044 . S
C565 C79 1.019 . S
C571 C157 1.058 . S
C585 C283 1.052 . S
C591 C171 1.023 . S
C605 C185 1.046 . S
C611 C325 1.030 . S
C625 C199 1.033 . S
C631 C297 1.031 . S
C645 C311 1.029 . S
C651 C213 1.043 . S
C665 C233 0.998 . S
C671 C177 0.989 . S
C685 C191 1.020 . S
C691 C247 0.979 . S
C705 C205 0.994 . S
C711 C261 0.988 . S
C725 C275 0.977 . S
C731 C219 1.012 . S
C745 C289 1.023 . S
C751 C227 1.018 . S
C765 C255 1.020 . S
C771 C303 1.022 . S
C785 C269 1.019 . S
C791 C317 0.987 . S
C805 C331 0.999 . S
C811 C241 1.011 . S
C825 C315 1.360 . S
C831 C7 1.356 . S
C845 C301 1.338 . S
C851 C21 1.365 . S
C865 C329 1.360 . S
C871 C35 1.355 . S
C885 C49 1.350 . S
C891 C287 1.356 . S
C905 C63 1.360 . S
C911 C190 1.383 . S
C925 C176 1.383 . S
C931 C77 1.354 . S
C945 C218 1.377 . S
C951 C91 1.351 . S
C965 C204 1.378 . S
C971 C105 1.370 . S
C985 C119 1.385 . S
C991 C259 1.358 . S
C1005 C231 1.350 . S
C1011 C133 1.372 . S
C1025 C245 1.357 . S
C1031 C147 1.367 . S
C1045 C273 1.349 . S
C1051 C161 1.379 . S
C1065 C148 1.425 . S
C1071 C175 1.412 . S
C1085 C134 1.427 . S
C1091 C189 1.414 . S
C1105 C203 1.415 . S
C1111 C162 1.428 . S
C1125 C120 1.426 . S
C1131 C217 1.396 . S
C1145 C232 1.444 . S
C1151 C22 1.438 . S
C1165 C246 1.448 . S
C1171 C8 1.446 . S
C1185 C260 1.442 . S
C1191 C50 1.445 . S
C1205 C274 1.440 . S
C1211 C36 1.440 . S
C1225 C288 1.417 . S
C1231 C92 1.418 . S
C1245 C302 1.413 . S
C1251 C64 1.414 . S
C1265 C78 1.412 . S
C1271 C316 1.412 . S
C1285 C330 1.419 . S
C1291 C106 1.416 . S
