# Generated by pormake.
# Topology lvt, (4)-cn, num edge types: 1
# Building blocks:
#     Node 0, Type 0, BuildingBlock: KOZSID_clean_sbu_0, # of connection points: 4
#     Node 1, Type 0, BuildingBlock: KOZSID_clean_sbu_0, # of connection points: 4
#     Node 2, Type 0, BuildingBlock: KOZSID_clean_sbu_0, # of connection points: 4
#     Node 3, Type 0, BuildingBlock: KOZSID_clean_sbu_0, # of connection points: 4
#     Node 4, Type 0, BuildingBlock: KOZSID_clean_sbu_0, # of connection points: 4
#     Node 5, Type 0, BuildingBlock: KOZSID_clean_sbu_0, # of connection points: 4
#     Node 6, Type 0, BuildingBlock: KOZSID_clean_sbu_0, # of connection points: 4
#     Node 7, Type 0, BuildingBlock: KOZSID_clean_sbu_0, # of connection points: 4
#     Edge 8, Type (0, 0), BuildingBlock: KIFKEQ_clean_linker_1, # of connection points: 2
#     Edge 9, Type (0, 0), BuildingBlock: KIFKEQ_clean_linker_1, # of connection points: 2
#     Edge 10, Type (0, 0), BuildingBlock: KIFKEQ_clean_linker_1, # of connection points: 2
#     Edge 11, Type (0, 0), BuildingBlock: KIFKEQ_clean_linker_1, # of connection points: 2
#     Edge 12, Type (0, 0), BuildingBlock: KIFKEQ_clean_linker_1, # of connection points: 2
#     Edge 13, Type (0, 0), BuildingBlock: KIFKEQ_clean_linker_1, # of connection points: 2
#     Edge 14, Type (0, 0), BuildingBlock: KIFKEQ_clean_linker_1, # of connection points: 2
#     Edge 15, Type (0, 0), BuildingBlock: KIFKEQ_clean_linker_1, # of connection points: 2
#     Edge 16, Type (0, 0), BuildingBlock: KIFKEQ_clean_linker_1, # of connection points: 2
#     Edge 17, Type (0, 0), BuildingBlock: KIFKEQ_clean_linker_1, # of connection points: 2
#     Edge 18, Type (0, 0), BuildingBlock: KIFKEQ_clean_linker_1, # of connection points: 2
#     Edge 19, Type (0, 0), BuildingBlock: KIFKEQ_clean_linker_1, # of connection points: 2
#     Edge 20, Type (0, 0), BuildingBlock: KIFKEQ_clean_linker_1, # of connection points: 2
#     Edge 21, Type (0, 0), BuildingBlock: KIFKEQ_clean_linker_1, # of connection points: 2
#     Edge 22, Type (0, 0), BuildingBlock: KIFKEQ_clean_linker_1, # of connection points: 2
#     Edge 23, Type (0, 0), BuildingBlock: KIFKEQ_clean_linker_1, # of connection points: 2
# Relax obj value: 0.003
# Max RMSD: 0.029
# Mean RMSD: 0.020
data_MOF--net-lvt--node1-KOZSID_clean_sbu_0--edge1-KIFKEQ_clean_linker_1
_symmetry_space_group_name_H-M    P1
_symmetry_Int_Tables_number       1
_symmetry_cell_setting            triclinic
loop_
_symmetry_equiv_pos_as_xyz
'x, y, z'
_cell_length_a     43.729856
_cell_length_b     43.768754
_cell_length_c     40.168411
_cell_angle_alpha  83.710586
_cell_angle_beta   93.055674
_cell_angle_gamma 87.031272
loop_
_atom_site_label
_atom_site_type_symbol
_atom_site_fract_x
_atom_site_fract_y
_atom_site_fract_z
_atom_type_partial_charge
C0 C 0.04874 0.94771 0.51938 0.0
C1 C 0.05651 0.91999 0.5072 0.0
C2 C 0.03943 0.91961 0.47789 0.0
C3 C 0.02203 0.94681 0.47393 0.0
N4 N 0.02706 0.96476 0.49882 0.0
Co5 Co 1.00483 0.0052 0.50396 0.0
N6 N 0.97823 1.00345 0.46196 0.0
C7 C 0.97854 0.98061 0.44184 0.0
C8 C 0.95754 0.98556 0.415 0.0
C9 C 0.94314 0.01345 0.41783 0.0
C10 C 0.95646 0.02409 0.44622 0.0
N11 N 0.9826 0.04565 0.5091 0.0
C12 C 0.96091 0.0627 0.48852 0.0
C13 C 0.95308 0.09038 0.50075 0.0
C14 C 0.97013 0.09074 0.53008 0.0
C15 C 0.98756 0.06357 0.53403 0.0
N16 N 0.03145 0.00697 0.54594 0.0
C17 C 0.03114 0.02981 0.56607 0.0
C18 C 0.05218 0.02489 0.59287 0.0
C19 C 0.06661 0.99703 0.59001 0.0
C20 C 0.05327 0.98637 0.56164 0.0
N21 N 0.03543 0.02749 0.47687 0.0
C22 C 0.07691 0.06065 0.4371 0.0
C23 C 0.06788 0.07047 0.46724 0.0
C24 C 0.04748 0.05367 0.48658 0.0
C25 C 0.06514 0.03361 0.42751 0.0
C26 C 0.04457 0.01761 0.44751 0.0
N27 N 0.97426 0.9829 0.53108 0.0
C28 C 0.94513 0.97647 0.58084 0.0
C29 C 0.93322 0.94944 0.57132 0.0
C30 C 0.94194 0.93983 0.54093 0.0
C31 C 0.96213 0.95676 0.52139 0.0
C32 C 0.96538 0.99264 0.56059 0.0
H33 H 0.96782 0.94799 0.4987 0.0
H34 H 0.9737 0.01288 0.56948 0.0
H35 H 0.04171 0.06246 0.50922 0.0
H36 H 0.03613 0.99745 0.43851 0.0
C37 C 0.99934 0.95514 0.44833 0.0
C38 C 0.0617 0.95625 0.55119 0.0
C39 C 0.94804 0.05422 0.45665 0.0
C40 C 0.01029 0.05526 0.55961 0.0
H41 H 0.0723 0.9015 0.51858 0.0
H42 H 0.03904 0.90124 0.46191 0.0
H43 H 0.95342 0.97081 0.39549 0.0
H44 H 0.92508 0.02479 0.40069 0.0
H45 H 0.93726 0.10886 0.48938 0.0
H46 H 0.97048 0.10909 0.54609 0.0
H47 H 0.0563 0.03965 0.61238 0.0
H48 H 0.08471 0.98571 0.60711 0.0
H49 H 0.07672 0.09098 0.47612 0.0
H50 H 0.07121 0.02512 0.40426 0.0
H51 H 0.93875 0.98537 0.60377 0.0
H52 H 0.93378 0.91891 0.53241 0.0
C53 C 0.1927 0.78847 0.73312 0.0
C54 C 0.16471 0.79619 0.74577 0.0
C55 C 0.16303 0.77788 0.77524 0.0
C56 C 0.18976 0.75983 0.77882 0.0
N57 N 0.20864 0.7656 0.75355 0.0
Co58 Co 0.2485 0.74254 0.74752 0.0
N59 N 0.24556 0.71514 0.79068 0.0
C60 C 0.22282 0.71604 0.81216 0.0
C61 C 0.22783 0.69572 0.84061 0.0
C62 C 0.25569 0.68121 0.83744 0.0
C63 C 0.26601 0.69346 0.80697 0.0
N64 N 0.28806 0.71913 0.74117 0.0
C65 C 0.30422 0.69666 0.76184 0.0
C66 C 0.33072 0.68667 0.74776 0.0
C67 C 0.33168 0.70383 0.7174 0.0
C68 C 0.30574 0.72313 0.7146 0.0
N69 N 0.2519 0.77038 0.70482 0.0
C70 C 0.27512 0.76997 0.68386 0.0
C71 C 0.27173 0.79242 0.65716 0.0
C72 C 0.24456 0.80798 0.66104 0.0
C73 C 0.23269 0.79382 0.68983 0.0
N74 N 0.27138 0.77168 0.77276 0.0
C75 C 0.30566 0.81082 0.81013 0.0
C76 C 0.31537 0.80229 0.77963 0.0
C77 C 0.29821 0.78278 0.76171 0.0
C78 C 0.27802 0.79974 0.82115 0.0
C79 C 0.2613 0.78063 0.80214 0.0
N80 N 0.22554 0.71332 0.72216 0.0
C81 C 0.21584 0.68926 0.67133 0.0
C82 C 0.19074 0.6746 0.68456 0.0
C83 C 0.18389 0.67927 0.71734 0.0
C84 C 0.20126 0.69859 0.73538 0.0
C85 C 0.23287 0.70804 0.69043 0.0
H86 H 0.1944 0.70135 0.75993 0.0
H87 H 0.25164 0.71831 0.67871 0.0
H88 H 0.30727 0.77684 0.73906 0.0
H89 H 0.24044 0.77307 0.81189 0.0
C90 C 0.19749 0.73692 0.80533 0.0
C91 C 0.20266 0.80286 0.70118 0.0
C92 C 0.29594 0.68472 0.79531 0.0
C93 C 0.29905 0.74726 0.6891 0.0
H94 H 0.14698 0.81294 0.73469 0.0
H95 H 0.14429 0.77741 0.79181 0.0
H96 H 0.21328 0.69238 0.86153 0.0
H97 H 0.26732 0.66401 0.85584 0.0
H98 H 0.34791 0.66923 0.75866 0.0
H99 H 0.34968 0.70307 0.69998 0.0
H100 H 0.28696 0.79667 0.637 0.0
H101 H 0.23446 0.82732 0.64426 0.0
H102 H 0.33613 0.81068 0.76932 0.0
H103 H 0.26944 0.80524 0.8447 0.0
H104 H 0.22214 0.68689 0.646 0.0
H105 H 0.16523 0.66801 0.72931 0.0
C106 C 0.45729 0.05582 0.01208 0.0
C107 C 0.44486 0.08395 0.9965 0.0
C108 C 0.45843 0.08917 0.96679 0.0
C109 C 0.47844 0.06417 0.96597 0.0
N110 N 0.47825 0.04303 0.99316 0.0
Co111 Co 0.50565 1.00447 0.00322 0.0
N112 N 0.52675 0.01301 0.96017 0.0
C113 C 0.52058 0.03728 0.93643 0.0
C114 C 0.53697 0.03595 0.90849 0.0
C115 C 0.55448 0.00903 0.91445 0.0
C116 C 0.54799 0.99554 0.94605 0.0
N117 N 0.53339 0.96626 0.01363 0.0
C118 C 0.55494 0.95384 0.99516 0.0
C119 C 0.56951 0.9273 0.01225 0.0
C120 C 0.55613 0.92228 0.04211 0.0
C121 C 0.53446 0.94608 0.04176 0.0
N122 N 0.48416 0.99555 0.0459 0.0
C123 C 0.48932 0.9706 0.06894 0.0
C124 C 0.47105 0.97073 0.0956 0.0
C125 C 0.45335 0.99754 0.08947 0.0
C126 C 0.46206 0.01238 0.05941 0.0
N127 N 0.47537 0.98076 0.97941 0.0
C128 C 0.43542 0.94555 0.94365 0.0
C129 C 0.44854 0.93411 0.9753 0.0
C130 C 0.46841 0.95185 0.99251 0.0
C131 C 0.44207 0.9752 0.93054 0.0
C132 C 0.46165 0.99236 0.94882 0.0
N133 N 0.53594 0.02822 0.02707 0.0
C134 C 0.56574 0.03617 0.07768 0.0
C135 C 0.57553 0.06397 0.06264 0.0
C136 C 0.56583 0.07318 0.02919 0.0
C137 C 0.5461 0.05521 0.01208 0.0
C138 C 0.5464 0.01869 0.05954 0.0
H139 H 0.53905 0.0639 0.9869 0.0
H140 H 0.54 0.99769 0.0725 0.0
H141 H 0.47821 0.94147 0.01613 0.0
H142 H 0.46557 0.01486 0.93752 0.0
C143 C 0.49829 0.06034 0.94051 0.0
C144 C 0.44944 0.04291 0.04544 0.0
C145 C 0.56168 0.96563 0.96101 0.0
C146 C 0.51324 0.94877 0.0662 0.0
H147 H 0.42817 0.09948 0.00586 0.0
H148 H 0.45465 0.10914 0.94831 0.0
H149 H 0.53571 0.0522 0.88605 0.0
H150 H 0.56972 1.00015 0.89702 0.0
H151 H 0.58754 0.91271 0.00374 0.0
H152 H 0.56107 0.90311 0.06141 0.0
H153 H 0.47121 0.95379 0.11738 0.0
H154 H 0.43639 0.00559 0.10566 0.0
H155 H 0.4442 0.91117 0.98641 0.0
H156 H 0.43207 0.98522 0.90628 0.0
H157 H 0.57309 0.02779 0.1034 0.0
H158 H 0.57273 0.09463 0.01647 0.0
C159 C 0.27449 0.28985 0.1893 0.0
C160 C 0.26263 0.30204 0.15755 0.0
C161 C 0.23546 0.28895 0.15217 0.0
C162 C 0.23238 0.26929 0.18056 0.0
N163 N 0.25577 0.26919 0.20402 0.0
Co164 Co 0.26191 0.24113 0.24721 0.0
N165 N 0.22223 0.22127 0.23872 0.0
C166 C 0.20184 0.22857 0.21216 0.0
C167 C 0.17558 0.21291 0.21424 0.0
C168 C 0.17909 0.19482 0.2442 0.0
C169 C 0.20758 0.2003 0.25862 0.0
N170 N 0.26863 0.21234 0.28976 0.0
C171 C 0.25022 0.19129 0.30422 0.0
C172 C 0.26402 0.17584 0.33367 0.0
C173 C 0.29179 0.18805 0.33842 0.0
C174 C 0.2935 0.20998 0.31158 0.0
N175 N 0.30093 0.26178 0.25644 0.0
C176 C 0.32018 0.25595 0.28417 0.0
C177 C 0.34453 0.27442 0.28416 0.0
C178 C 0.3408 0.29303 0.25453 0.0
C179 C 0.31446 0.28454 0.23785 0.0
N180 N 0.2393 0.27158 0.27156 0.0
C181 C 0.20504 0.31182 0.3078 0.0
C182 C 0.23139 0.29516 0.32244 0.0
C183 C 0.2481 0.27552 0.30401 0.0
C184 C 0.19658 0.30854 0.27437 0.0
C185 C 0.21384 0.28843 0.25689 0.0
N186 N 0.28459 0.21066 0.22282 0.0
C187 C 0.33122 0.18056 0.215 0.0
C188 C 0.31852 0.17092 0.18548 0.0
C189 C 0.28817 0.18093 0.17555 0.0
C190 C 0.2718 0.20054 0.1944 0.0
C191 C 0.314 0.20007 0.23316 0.0
H192 H 0.24891 0.2074 0.18523 0.0
H193 H 0.32522 0.20663 0.25522 0.0
H194 H 0.26793 0.26356 0.31672 0.0
H195 H 0.2059 0.2866 0.23167 0.0
C196 C 0.20789 0.25051 0.18585 0.0
C197 C 0.30394 0.29801 0.20396 0.0
C198 C 0.21916 0.18597 0.29181 0.0
C199 C 0.31621 0.23123 0.30834 0.0
H200 H 0.27268 0.31833 0.13971 0.0
H201 H 0.22003 0.29291 0.12995 0.0
H202 H 0.15594 0.21489 0.1964 0.0
H203 H 0.16224 0.17978 0.25446 0.0
H204 H 0.25462 0.15813 0.35044 0.0
H205 H 0.30823 0.18245 0.3596 0.0
H206 H 0.3632 0.27389 0.30307 0.0
H207 H 0.3561 0.31048 0.24591 0.0
H208 H 0.23924 0.29734 0.34807 0.0
H209 H 0.17626 0.32084 0.26193 0.0
H210 H 0.35468 0.17374 0.22378 0.0
H211 H 0.27694 0.17365 0.15331 0.0
C212 C 0.77695 0.21559 0.31617 0.0
C213 C 0.76464 0.20099 0.34446 0.0
C214 C 0.73741 0.21652 0.34817 0.0
C215 C 0.7344 0.23934 0.32182 0.0
N216 N 0.75795 0.23924 0.3013 0.0
Co217 Co 0.76164 0.26737 0.25889 0.0
N218 N 0.72212 0.29081 0.26513 0.0
C219 C 0.70476 0.2872 0.29199 0.0
C220 C 0.67908 0.30684 0.28942 0.0
C221 C 0.67993 0.32386 0.25895 0.0
C222 C 0.70608 0.31342 0.24455 0.0
N223 N 0.76452 0.29458 0.2156 0.0
C224 C 0.74388 0.31593 0.199 0.0
C225 C 0.75403 0.32768 0.16825 0.0
C226 C 0.782 0.31331 0.1653 0.0
C227 C 0.78721 0.29348 0.1941 0.0
N228 N 0.80178 0.24465 0.25332 0.0
C229 C 0.8211 0.25106 0.22863 0.0
C230 C 0.84812 0.23345 0.23266 0.0
C231 C 0.84616 0.21482 0.26187 0.0
C232 C 0.81773 0.22189 0.27389 0.0
N233 N 0.73909 0.23816 0.23352 0.0
C234 C 0.7058 0.19851 0.19622 0.0
C235 C 0.73407 0.20853 0.1862 0.0
C236 C 0.75034 0.22796 0.20522 0.0
C237 C 0.69465 0.20844 0.2254 0.0
C238 C 0.71141 0.22822 0.24338 0.0
N239 N 0.78433 0.29669 0.28442 0.0
C240 C 0.82378 0.33337 0.28811 0.0
C241 C 0.8188 0.3355 0.32182 0.0
C242 C 0.7959 0.31843 0.33635 0.0
C243 C 0.77881 0.29969 0.31727 0.0
C244 C 0.80665 0.31381 0.27012 0.0
H245 H 0.76141 0.28776 0.32986 0.0
H246 H 0.81223 0.31277 0.24479 0.0
H247 H 0.77192 0.23459 0.19651 0.0
H248 H 0.70135 0.23542 0.26503 0.0
C249 C 0.71102 0.26264 0.31706 0.0
C250 C 0.8073 0.20696 0.30536 0.0
C251 C 0.71411 0.32502 0.21086 0.0
C252 C 0.81309 0.27346 0.20173 0.0
H253 H 0.77457 0.18149 0.36112 0.0
H254 H 0.72199 0.21212 0.36812 0.0
H255 H 0.66124 0.30783 0.307 0.0
H256 H 0.66285 0.34148 0.24819 0.0
H257 H 0.74229 0.34455 0.14958 0.0
H258 H 0.79657 0.31655 0.14439 0.0
H259 H 0.86713 0.2343 0.21646 0.0
H260 H 0.86395 0.19824 0.27316 0.0
H261 H 0.74379 0.20115 0.16395 0.0
H262 H 0.67271 0.20152 0.23399 0.0
H263 H 0.8414 0.34615 0.27585 0.0
H264 H 0.79097 0.31973 0.36232 0.0
C265 C 0.69373 0.72655 0.76837 0.0
C266 C 0.66534 0.72173 0.75329 0.0
C267 C 0.66178 0.74153 0.72451 0.0
C268 C 0.68798 0.75738 0.72369 0.0
N269 N 0.70833 0.74867 0.75 0.0
Co270 Co 0.74847 0.76724 0.75961 0.0
N271 N 0.7429 0.79675 0.71745 0.0
C272 C 0.71876 0.79941 0.69461 0.0
C273 C 0.72177 0.82089 0.66768 0.0
C274 C 0.74978 0.8323 0.67328 0.0
C275 C 0.76234 0.81695 0.70338 0.0
N276 N 0.78831 0.78625 0.76955 0.0
C277 C 0.80331 0.80779 0.75079 0.0
C278 C 0.83103 0.81358 0.76672 0.0
C279 C 0.8337 0.79505 0.79644 0.0
C280 C 0.80767 0.77893 0.797 0.0
N281 N 0.75445 0.73718 0.80131 0.0
C282 C 0.7789 0.73415 0.82377 0.0
C283 C 0.77663 0.7116 0.84986 0.0
C284 C 0.74895 0.69961 0.84391 0.0
C285 C 0.7358 0.71576 0.81451 0.0
N286 N 0.77015 0.73718 0.734 0.0
C287 C 0.80262 0.69724 0.69585 0.0
C288 C 0.81437 0.70321 0.72737 0.0
C289 C 0.79797 0.72313 0.74579 0.0
C290 C 0.77403 0.71115 0.68406 0.0
C291 C 0.75823 0.73068 0.70347 0.0
N292 N 0.72667 0.79735 0.78533 0.0
C293 C 0.71903 0.81879 0.83762 0.0
C294 C 0.69302 0.8363 0.82357 0.0
C295 C 0.68461 0.83473 0.78983 0.0
C296 C 0.70146 0.81511 0.7714 0.0
C297 C 0.73562 0.79999 0.81811 0.0
H298 H 0.69328 0.81444 0.74611 0.0
H299 H 0.75541 0.7876 0.8303 0.0
H300 H 0.80848 0.72714 0.76931 0.0
H301 H 0.73652 0.74048 0.69312 0.0
C302 C 0.69394 0.78081 0.69882 0.0
C303 C 0.70519 0.71046 0.80078 0.0
C304 C 0.79307 0.82194 0.71709 0.0
C305 C 0.80251 0.75442 0.82095 0.0
H306 H 0.64867 0.7059 0.76242 0.0
H307 H 0.64218 0.7444 0.70659 0.0
H308 H 0.70573 0.82712 0.64625 0.0
H309 H 0.76001 0.84967 0.65682 0.0
H310 H 0.84809 0.82887 0.75745 0.0
H311 H 0.85298 0.79262 0.81478 0.0
H312 H 0.79283 0.70517 0.87111 0.0
H313 H 0.73928 0.6814 0.85975 0.0
H314 H 0.83655 0.69318 0.7375 0.0
H315 H 0.76375 0.70688 0.66 0.0
H316 H 0.72667 0.81969 0.86358 0.0
H317 H 0.66454 0.84791 0.77791 0.0
C318 C 0.45864 0.5193 0.94289 0.0
C319 C 0.4497 0.50867 0.91275 0.0
C320 C 0.4673 0.48234 0.91074 0.0
C321 C 0.48593 0.47848 0.93959 0.0
N322 N 0.48102 0.50045 0.96022 0.0
Co323 Co 0.50454 0.50474 0.00365 0.0
N324 N 0.53131 0.46674 0.99999 0.0
C325 C 0.52916 0.44774 0.97569 0.0
C326 C 0.54956 0.4226 0.98072 0.0
C327 C 0.56545 0.42541 0.01029 0.0
C328 C 0.5538 0.45228 0.02156 0.0
N329 N 0.52892 0.50984 0.0463 0.0
C330 C 0.55236 0.49188 0.06286 0.0
C331 C 0.56296 0.50396 0.09157 0.0
C332 C 0.54534 0.5303 0.09347 0.0
C333 C 0.52517 0.53286 0.06586 0.0
N334 N 0.477 0.54203 0.008 0.0
C335 C 0.47731 0.55938 0.03386 0.0
C336 C 0.45561 0.58345 0.02989 0.0
C337 C 0.44064 0.5815 0.99958 0.0
C338 C 0.45419 0.55628 0.98673 0.0
N339 N 0.47574 0.47859 0.02935 0.0
C340 C 0.43726 0.4399 0.06701 0.0
C341 C 0.45057 0.46437 0.08067 0.0
C342 C 0.46918 0.48352 0.06144 0.0
C343 C 0.44308 0.43536 0.03403 0.0
C344 C 0.46248 0.45458 0.01592 0.0
N345 N 0.53326 0.53083 0.97802 0.0
C346 C 0.55804 0.57894 0.96775 0.0
C347 C 0.57165 0.56924 0.93966 0.0
C348 C 0.56606 0.53967 0.93155 0.0
C349 C 0.54703 0.52103 0.95089 0.0
C350 C 0.53917 0.55958 0.98638 0.0
H351 H 0.54352 0.49888 0.94316 0.0
H352 H 0.52947 0.56848 0.00736 0.0
H353 H 0.47808 0.50206 0.07325 0.0
H354 H 0.46659 0.4493 0.99124 0.0
C355 C 0.50806 0.45438 0.94823 0.0
C356 C 0.4455 0.54764 0.95363 0.0
C357 C 0.56435 0.4626 0.05329 0.0
C358 C 0.50044 0.5546 0.05954 0.0
H359 H 0.43241 0.51903 0.89403 0.0
H360 H 0.46676 0.4679 0.89053 0.0
H361 H 0.55239 0.40428 0.9649 0.0
H362 H 0.58338 0.40936 0.02238 0.0
H363 H 0.58105 0.4943 0.1097 0.0
H364 H 0.5464 0.54522 0.11324 0.0
H365 H 0.45189 0.60101 0.04648 0.0
H366 H 0.42232 0.59728 0.98786 0.0
H367 H 0.44634 0.46894 0.10605 0.0
H368 H 0.43329 0.41656 0.02249 0.0
H369 H 0.56204 0.60136 0.97559 0.0
H370 H 0.57578 0.53106 0.90991 0.0
C371 C 0.05152 0.51407 0.55884 0.0
C372 C 0.06301 0.49987 0.58995 0.0
C373 C 0.0489 0.47289 0.59546 0.0
C374 C 0.02951 0.47215 0.5677 0.0
N375 N 0.03052 0.49691 0.54452 0.0
Co376 Co 1.00455 0.50581 0.50135 0.0
N377 N 0.98183 0.46743 0.51109 0.0
C378 C 0.98546 0.44702 0.53903 0.0
C379 C 0.96655 0.42304 0.53882 0.0
C380 C 0.95011 0.42816 0.50874 0.0
C381 C 0.96019 0.45495 0.49211 0.0
N382 N 0.97883 0.51449 0.45797 0.0
C383 C 0.95818 0.49709 0.44346 0.0
C384 C 0.94738 0.51081 0.4119 0.0
C385 C 0.96151 0.53776 0.40632 0.0
C386 C 0.9803 0.53893 0.43446 0.0
N387 N 0.02702 0.54438 0.49181 0.0
C388 C 0.02286 0.56523 0.46426 0.0
C389 C 0.04121 0.58961 0.46487 0.0
C390 C 0.05781 0.58435 0.49485 0.0
C391 C 0.04842 0.55702 0.51098 0.0
N392 N 0.03536 0.48222 0.47795 0.0
C393 C 0.07514 0.44671 0.44211 0.0
C394 C 0.06439 0.47646 0.42909 0.0
C395 C 0.0449 0.49371 0.44734 0.0
C396 C 0.06639 0.43541 0.47388 0.0
C397 C 0.04664 0.45337 0.49119 0.0
N398 N 0.97368 0.5294 0.52471 0.0
C399 C 0.94032 0.57499 0.52698 0.0
C400 C 0.93284 0.56482 0.55963 0.0
C401 C 0.9457 0.5362 0.57409 0.0
C402 C 0.96568 0.51899 0.55633 0.0
C403 C 0.96058 0.55714 0.51019 0.0
H404 H 0.97469 0.49754 0.56896 0.0
H405 H 0.96551 0.56643 0.48559 0.0
H406 H 0.03759 0.51614 0.43591 0.0
H407 H 0.04042 0.44319 0.51498 0.0
C408 C 0.00806 0.45001 0.56413 0.0
C409 C 0.06 0.54452 0.54481 0.0
C410 C 0.94921 0.46693 0.45791 0.0
C411 C 1.00096 0.56168 0.43863 0.0
H412 H 0.07922 0.50843 0.60744 0.0
H413 H 0.05158 0.45636 0.61768 0.0
H414 H 0.96536 0.40376 0.55795 0.0
H415 H 0.933 0.4135 0.49982 0.0
H416 H 0.93155 0.502 0.3942 0.0
H417 H 0.95913 0.55409 0.38393 0.0
H418 H 0.04209 0.60913 0.44598 0.0
H419 H 0.07464 0.59918 0.50399 0.0
H420 H 0.07101 0.48651 0.40487 0.0
H421 H 0.07403 0.41245 0.48504 0.0
H422 H 0.93056 0.59667 0.51423 0.0
H423 H 0.94101 0.52725 0.59941 0.0
H424 H 0.12521 0.03896 0.40365 0.0
H425 H 0.07665 0.12325 0.42219 0.0
H426 H 0.16014 0.06861 0.36933 0.0
H427 H 0.11111 0.1529 0.38748 0.0
H428 H 0.19549 0.19947 0.35012 0.0
H429 H 0.16212 0.16884 0.38579 0.0
H430 H 0.1636 0.09932 0.31715 0.0
H431 H 0.19794 0.12968 0.28241 0.0
C432 C 0.1218 0.06382 0.40015 0.0
C433 C 0.09815 0.07869 0.4158 0.0
C434 C 0.14183 0.08087 0.38039 0.0
C435 C 0.13862 0.11327 0.37556 0.0
C436 C 0.11479 0.12807 0.39109 0.0
C437 C 0.09492 0.11104 0.41098 0.0
C438 C 0.18869 0.17755 0.3429 0.0
C439 C 0.19901 0.16695 0.31351 0.0
C440 C 0.16939 0.16007 0.36312 0.0
C441 C 0.15987 0.13158 0.35436 0.0
C442 C 0.17063 0.12091 0.325 0.0
C443 C 0.19009 0.13835 0.30491 0.0
H444 H 0.1185 0.93276 0.53828 0.0
H445 H 0.05244 0.93018 0.61439 0.0
H446 H 0.15257 0.89528 0.57466 0.0
H447 H 0.0871 0.89375 0.65137 0.0
H448 H 0.18058 0.85949 0.71491 0.0
H449 H 0.14603 0.89687 0.67893 0.0
H450 H 0.14484 0.83563 0.60176 0.0
H451 H 0.17824 0.79773 0.63832 0.0
C452 C 0.11136 0.92414 0.56281 0.0
C453 C 0.0828 0.93402 0.57348 0.0
C454 C 0.13079 0.90282 0.58356 0.0
C455 C 0.12236 0.8917 0.61572 0.0
C456 C 0.09411 0.90211 0.62671 0.0
C457 C 0.07436 0.92284 0.60563 0.0
C458 C 0.17262 0.85399 0.69039 0.0
C459 C 0.18181 0.82573 0.6794 0.0
C460 C 0.15297 0.8753 0.66986 0.0
C461 C 0.14289 0.86905 0.63764 0.0
C462 C 0.15245 0.841 0.62646 0.0
C463 C 0.17146 0.81939 0.6473 0.0
H464 H 0.43832 0.93605 0.8778 0.0
H465 H 0.38789 0.91175 0.96542 0.0
H466 H 0.40661 0.90373 0.84584 0.0
H467 H 0.35604 0.87947 0.93335 0.0
H468 H 0.28555 0.85447 0.84993 0.0
H469 H 0.31637 0.88671 0.88271 0.0
H470 H 0.39896 0.84586 0.84798 0.0
H471 H 0.36853 0.8126 0.81641 0.0
C472 C 0.4203 0.92397 0.89014 0.0
C473 C 0.41558 0.92645 0.92411 0.0
C474 C 0.40231 0.9053 0.87193 0.0
C475 C 0.37887 0.88904 0.88711 0.0
C476 C 0.37382 0.89186 0.92094 0.0
C477 C 0.39216 0.91016 0.93934 0.0
C478 C 0.31027 0.8519 0.8496 0.0
C479 C 0.32436 0.83081 0.83023 0.0
C480 C 0.32792 0.87055 0.86831 0.0
C481 C 0.36005 0.86892 0.86776 0.0
C482 C 0.3742 0.84795 0.8485 0.0
C483 C 0.35664 0.82898 0.83022 0.0
H484 H 0.31829 0.17374 0.11682 0.0
H485 H 0.36076 0.12328 0.20747 0.0
H486 H 0.34921 0.14232 0.0833 0.0
H487 H 0.39198 0.0922 0.17384 0.0
H488 H 0.46651 0.06781 0.10222 0.0
H489 H 0.43447 0.09811 0.13629 0.0
H490 H 0.3559 0.08916 0.06887 0.0
H491 H 0.38821 0.05893 0.03491 0.0
C492 C 0.33394 0.15574 0.12966 0.0
C493 C 0.33695 0.15114 0.16496 0.0
C494 C 0.35174 0.13774 0.11039 0.0
C495 C 0.37314 0.11477 0.12586 0.0
C496 C 0.37605 0.11001 0.16111 0.0
C497 C 0.35815 0.1279 0.1804 0.0
C498 C 0.44236 0.07238 0.09486 0.0
C499 C 0.42974 0.06133 0.06596 0.0
C500 C 0.42398 0.08955 0.11438 0.0
C501 C 0.3926 0.0961 0.10531 0.0
C502 C 0.38004 0.08487 0.07634 0.0
C503 C 0.39842 0.06752 0.05696 0.0
H504 H 0.93497 0.9394 0.64027 0.0
H505 H 0.88368 0.91798 0.55165 0.0
H506 H 0.90117 0.90918 0.67542 0.0
H507 H 0.85033 0.88732 0.58689 0.0
H508 H 0.81887 0.80793 0.66008 0.0
H509 H 0.8525 0.8389 0.62489 0.0
H510 H 0.84742 0.90956 0.69186 0.0
H511 H 0.81375 0.87839 0.72688 0.0
C512 C 0.91635 0.92854 0.6282 0.0
C513 C 0.91221 0.93125 0.59296 0.0
C514 C 0.89699 0.91111 0.64843 0.0
C515 C 0.87306 0.89572 0.63402 0.0
C516 C 0.86882 0.89846 0.59884 0.0
C517 C 0.88804 0.91605 0.5786 0.0
C518 C 0.82506 0.83008 0.66716 0.0
C519 C 0.81403 0.84074 0.69623 0.0
C520 C 0.84414 0.8479 0.64699 0.0
C521 C 0.85271 0.87675 0.65554 0.0
C522 C 0.84161 0.88732 0.68476 0.0
C523 C 0.82232 0.86957 0.70477 0.0
H524 H 0.89114 0.07769 0.46923 0.0
H525 H 0.95761 0.08035 0.39357 0.0
H526 H 0.8571 0.11499 0.43258 0.0
H527 H 0.92304 0.11664 0.35634 0.0
H528 H 0.83081 0.15087 0.29149 0.0
H529 H 0.86528 0.11373 0.32786 0.0
H530 H 0.86357 0.17415 0.40579 0.0
H531 H 0.8302 0.21181 0.3689 0.0
C532 C 0.89838 0.08631 0.44475 0.0
C533 C 0.92704 0.07649 0.43427 0.0
C534 C 0.87898 0.10753 0.42384 0.0
C535 C 0.88753 0.11863 0.39171 0.0
C536 C 0.91591 0.10831 0.38095 0.0
C537 C 0.93562 0.08766 0.40218 0.0
C538 C 0.83811 0.15624 0.31628 0.0
C539 C 0.8281 0.1842 0.32739 0.0
C540 C 0.85772 0.13507 0.33702 0.0
C541 C 0.86699 0.14114 0.36957 0.0
C542 C 0.8566 0.16889 0.38086 0.0
C543 C 0.8376 0.19037 0.35983 0.0
H544 H 0.6774 0.14684 0.21928 0.0
H545 H 0.69352 0.20414 0.12823 0.0
H546 H 0.64713 0.11388 0.18704 0.0
H547 H 0.6623 0.17194 0.09588 0.0
H548 H 0.62695 0.09257 0.043 0.0
H549 H 0.65934 0.12406 0.07501 0.0
H550 H 0.5999 0.11181 0.15752 0.0
H551 H 0.56838 0.0795 0.12587 0.0
C552 C 0.67423 0.15251 0.19234 0.0
C553 C 0.68783 0.17809 0.17632 0.0
C554 C 0.65672 0.1337 0.17379 0.0
C555 C 0.65196 0.1402 0.1387 0.0
C556 C 0.66577 0.16579 0.12271 0.0
C557 C 0.68362 0.18437 0.14126 0.0
C558 C 0.62086 0.09669 0.06797 0.0
C559 C 0.5952 0.08343 0.08196 0.0
C560 C 0.63935 0.11487 0.08635 0.0
C561 C 0.63242 0.12059 0.11905 0.0
C562 C 0.6065 0.10747 0.1328 0.0
C563 C 0.58828 0.089 0.1146 0.0
H564 H 0.61739 0.97888 0.93677 0.0
H565 H 0.55089 0.90938 0.94124 0.0
H566 H 0.64943 0.94788 0.90317 0.0
H567 H 0.58338 0.87784 0.90869 0.0
H568 H 0.67048 0.81894 0.88435 0.0
H569 H 0.63888 0.85021 0.91793 0.0
H570 H 0.64231 0.92835 0.84302 0.0
H571 H 0.67348 0.89691 0.80912 0.0
C572 C 0.6097 0.95697 0.93049 0.0
C573 C 0.58159 0.9466 0.9412 0.0
C574 C 0.62796 0.93928 0.91134 0.0
C575 C 0.61883 0.91052 0.9033 0.0
C576 C 0.59101 0.89987 0.91466 0.0
C577 C 0.57245 0.91786 0.93319 0.0
C578 C 0.66455 0.84283 0.87516 0.0
C579 C 0.67443 0.85554 0.84417 0.0
C580 C 0.64636 0.86063 0.89425 0.0
C581 C 0.63819 0.89167 0.88306 0.0
C582 C 0.64842 0.90452 0.85229 0.0
C583 C 0.66609 0.88653 0.83286 0.0
H584 H 0.56303 0.63163 0.92216 0.0
H585 H 0.62466 0.55382 0.90992 0.0
H586 H 0.59494 0.66544 0.88858 0.0
H587 H 0.65651 0.58768 0.87617 0.0
H588 H 0.68907 0.65301 0.78901 0.0
H589 H 0.65656 0.61878 0.82207 0.0
H590 H 0.64484 0.68719 0.89093 0.0
H591 H 0.6769 0.72136 0.85733 0.0
C592 C 0.58353 0.62173 0.9126 0.0
C593 C 0.59123 0.58991 0.91893 0.0
C594 C 0.60185 0.64117 0.89326 0.0
C595 C 0.62838 0.62936 0.87964 0.0
C596 C 0.63602 0.59754 0.88582 0.0
C597 C 0.61772 0.57809 0.90521 0.0
C598 C 0.67936 0.66058 0.81118 0.0
C599 C 0.68523 0.68972 0.82066 0.0
C600 C 0.66095 0.641 0.83025 0.0
C601 C 0.64801 0.65019 0.85922 0.0
C602 C 0.65403 0.67949 0.86857 0.0
C603 C 0.67248 0.699 0.84951 0.0
H604 H 0.66021 0.31009 0.18165 0.0
H605 H 0.7178 0.38614 0.19013 0.0
H606 H 0.62377 0.34341 0.14368 0.0
H607 H 0.6814 0.41978 0.15239 0.0
H608 H 0.62673 0.46029 0.05476 0.0
H609 H 0.66291 0.42714 0.09332 0.0
H610 H 0.58679 0.38725 0.14319 0.0
H611 H 0.55089 0.42024 0.10417 0.0
C612 C 0.66488 0.33404 0.1754 0.0
C613 C 0.69174 0.34563 0.18846 0.0
C614 C 0.64404 0.35316 0.15383 0.0
C615 C 0.64969 0.38428 0.14487 0.0
C616 C 0.67655 0.39585 0.15835 0.0
C617 C 0.6973 0.37673 0.18003 0.0
C618 C 0.61795 0.44437 0.07404 0.0
C619 C 0.58626 0.44258 0.07669 0.0
C620 C 0.63855 0.42554 0.09621 0.0
C621 C 0.62777 0.40452 0.12141 0.0
C622 C 0.59588 0.40288 0.12387 0.0
C623 C 0.57533 0.42179 0.10174 0.0
H624 H 0.83053 0.39598 0.30623 0.0
H625 H 0.84965 0.31895 0.38248 0.0
H626 H 0.86175 0.42807 0.33937 0.0
H627 H 0.88133 0.35084 0.41527 0.0
H628 H 0.96476 0.41097 0.43792 0.0
H629 H 0.93287 0.37894 0.40541 0.0
H630 H 0.85828 0.44823 0.39933 0.0
H631 H 0.88988 0.4797 0.43291 0.0
C632 C 0.8415 0.38593 0.33001 0.0
C633 C 0.83765 0.35502 0.34184 0.0
C634 C 0.8592 0.40429 0.34901 0.0
C635 C 0.87395 0.3919 0.37985 0.0
C636 C 0.87033 0.36092 0.39152 0.0
C637 C 0.8521 0.34276 0.37287 0.0
C638 C 0.9415 0.41921 0.42969 0.0
C639 C 0.9298 0.44785 0.43762 0.0
C640 C 0.92328 0.40093 0.41119 0.0
C641 C 0.89317 0.41119 0.39976 0.0
C642 C 0.88151 0.43992 0.40757 0.0
C643 C 0.89953 0.45789 0.4267 0.0
H644 H 0.8115 0.7071 0.62869 0.0
H645 H 0.83403 0.64204 0.71644 0.0
H646 H 0.84169 0.67483 0.5951 0.0
H647 H 0.86459 0.61 0.68296 0.0
H648 H 0.88989 0.54574 0.60387 0.0
H649 H 0.85789 0.57722 0.63635 0.0
H650 H 0.89679 0.65914 0.59076 0.0
H651 H 0.92936 0.62777 0.55885 0.0
C652 C 0.82272 0.68581 0.64075 0.0
C653 C 0.82036 0.67714 0.67524 0.0
C654 C 0.84025 0.66747 0.62158 0.0
C655 C 0.85559 0.63987 0.63637 0.0
C656 C 0.85287 0.63099 0.67076 0.0
C657 C 0.83558 0.64948 0.69 0.0
C658 C 0.8919 0.57043 0.60094 0.0
C659 C 0.91237 0.5841 0.57866 0.0
C660 C 0.87346 0.58848 0.61954 0.0
C661 C 0.87478 0.62068 0.61615 0.0
C662 C 0.8949 0.63442 0.59362 0.0
C663 C 0.91353 0.61638 0.57522 0.0
H664 H 0.4516 0.40816 0.12862 0.0
H665 H 0.3789 0.42484 0.0508 0.0
H666 H 0.41949 0.37358 0.16188 0.0
H667 H 0.34646 0.3909 0.08449 0.0
H668 H 0.29103 0.3585 0.17965 0.0
H669 H 0.32311 0.39276 0.14584 0.0
H670 H 0.39408 0.31985 0.15138 0.0
H671 H 0.36144 0.28522 0.18393 0.0
C672 C 0.42869 0.40453 0.11876 0.0
C673 C 0.41769 0.41913 0.08717 0.0
C674 C 0.41041 0.38469 0.13769 0.0
C675 C 0.38052 0.37965 0.12574 0.0
C676 C 0.36939 0.39452 0.09431 0.0
C677 C 0.38794 0.41378 0.07502 0.0
C678 C 0.31338 0.3498 0.17334 0.0
C679 C 0.3237 0.31919 0.18409 0.0
C680 C 0.33168 0.36934 0.15407 0.0
C681 C 0.36101 0.35889 0.14599 0.0
C682 C 0.3716 0.32848 0.15737 0.0
C683 C 0.35299 0.30873 0.17593 0.0
H684 H 0.29401 0.62305 0.81381 0.0
H685 H 0.34807 0.7008 0.82721 0.0
H686 H 0.33041 0.58973 0.85185 0.0
H687 H 0.3844 0.66785 0.86567 0.0
H688 H 0.45898 0.59297 0.90586 0.0
H689 H 0.42318 0.62595 0.86674 0.0
H690 H 0.34708 0.58074 0.91098 0.0
H691 H 0.3832 0.54757 0.94955 0.0
C692 C 0.31374 0.63289 0.82506 0.0
C693 C 0.31834 0.66435 0.81788 0.0
C694 C 0.33447 0.61396 0.84695 0.0
C695 C 0.36031 0.62611 0.86198 0.0
C696 C 0.36497 0.65764 0.85431 0.0
C697 C 0.34418 0.67655 0.83246 0.0
C698 C 0.43456 0.59029 0.90706 0.0
C699 C 0.42363 0.56798 0.93051 0.0
C700 C 0.41405 0.60918 0.88487 0.0
C701 C 0.3822 0.60603 0.88566 0.0
C702 C 0.37143 0.58355 0.90934 0.0
C703 C 0.39198 0.56471 0.93155 0.0
H704 H 0.20936 0.63755 0.63722 0.0
H705 H 0.12863 0.667 0.68548 0.0
H706 H 0.17812 0.6075 0.60284 0.0
H707 H 0.09788 0.63491 0.65314 0.0
H708 H 0.04375 0.59906 0.56757 0.0
H709 H 0.07535 0.63073 0.60028 0.0
H710 H 0.15134 0.56307 0.60211 0.0
H711 H 0.11999 0.53267 0.56754 0.0
C712 C 0.18498 0.63766 0.64065 0.0
C713 C 0.17171 0.655 0.66427 0.0
C714 C 0.16703 0.61989 0.6212 0.0
C715 C 0.13528 0.61854 0.62503 0.0
C716 C 0.12209 0.63561 0.64891 0.0
C717 C 0.13995 0.65371 0.66803 0.0
C718 C 0.06728 0.59119 0.57493 0.0
C719 C 0.07943 0.56341 0.56531 0.0
C720 C 0.08539 0.60913 0.59397 0.0
C721 C 0.11604 0.59954 0.60424 0.0
C722 C 0.12808 0.5716 0.59441 0.0
C723 C 0.11007 0.55394 0.57491 0.0
H724 H 0.17895 0.36965 0.28756 0.0
H725 H 0.18874 0.29963 0.37251 0.0
H726 H 0.14845 0.40265 0.31991 0.0
H727 H 0.15782 0.33227 0.4047 0.0
H728 H 0.12629 0.40968 0.46432 0.0
H729 H 0.1581 0.37786 0.43198 0.0
H730 H 0.09967 0.40785 0.34298 0.0
H731 H 0.06832 0.44004 0.37525 0.0
C732 C 0.17437 0.3612 0.31306 0.0
C733 C 0.18636 0.33203 0.32745 0.0
C734 C 0.15681 0.3801 0.33164 0.0
C735 C 0.15059 0.37022 0.36503 0.0
C736 C 0.16256 0.34096 0.37933 0.0
C737 C 0.18027 0.32218 0.36083 0.0
C738 C 0.1202 0.40937 0.43787 0.0
C739 C 0.09479 0.42745 0.42238 0.0
C740 C 0.1384 0.39106 0.41929 0.0
C741 C 0.13152 0.39017 0.38477 0.0
C742 C 0.10607 0.40831 0.36933 0.0
C743 C 0.08801 0.42676 0.38786 0.0
loop_
_geom_bond_atom_site_label_1
_geom_bond_atom_site_label_2
_geom_bond_distance
_geom_bond_site_symmetry_2
_ccdc_geom_bond_type
C0 C1 1.443 . S
C0 N4 1.376 . S
C0 C38 1.389 . S
C1 C0 1.443 . S
C1 C2 1.340 . S
C1 H41 0.951 . S
C2 C1 1.340 . S
C2 C3 1.439 . S
C2 H42 0.950 . S
C3 C2 1.439 . S
C3 N4 1.374 . S
C3 C37 1.395 1_455 S
N4 C0 1.376 . S
N4 C3 1.374 . S
N4 Co5 2.003 1_565 S
Co5 N4 2.003 1_545 S
Co5 N6 1.993 1_445 S
Co5 N11 2.013 1_455 S
Co5 N16 1.992 . S
Co5 N21 2.285 . S
Co5 N27 2.280 1_445 S
N6 Co5 1.993 1_665 S
N6 C7 1.378 . S
N6 C10 1.381 1_565 S
C7 N6 1.378 . S
C7 C8 1.446 . S
C7 C37 1.391 . S
C8 C7 1.446 . S
C8 C9 1.339 1_565 S
C8 H43 0.949 . S
C9 C8 1.339 1_545 S
C9 C10 1.439 . S
C9 H44 0.950 . S
C10 N6 1.381 1_545 S
C10 C9 1.439 . S
C10 C39 1.392 . S
N11 Co5 2.013 1_655 S
N11 C12 1.376 . S
N11 C15 1.374 . S
C12 N11 1.376 . S
C12 C13 1.443 . S
C12 C39 1.389 . S
C13 C12 1.443 . S
C13 C14 1.340 . S
C13 H45 0.951 . S
C14 C13 1.340 . S
C14 C15 1.439 . S
C14 H46 0.950 . S
C15 N11 1.374 . S
C15 C14 1.439 . S
C15 C40 1.395 1_655 S
N16 Co5 1.992 . S
N16 C17 1.394 . S
N16 C20 1.367 1_545 S
C17 N16 1.394 . S
C17 C18 1.446 . S
C17 C40 1.391 . S
C18 C17 1.446 . S
C18 C19 1.339 1_545 S
C18 H47 0.949 . S
C19 C18 1.339 1_565 S
C19 C20 1.439 . S
C19 H48 0.950 . S
C20 N16 1.367 1_565 S
C20 C19 1.439 . S
C20 C38 1.392 . S
N21 Co5 2.285 . S
N21 C24 1.332 . S
N21 C26 1.332 . S
C22 C23 1.386 . S
C22 C25 1.388 . S
C23 C22 1.386 . S
C23 C24 1.382 . S
C23 H49 0.950 . S
C24 N21 1.332 . S
C24 C23 1.382 . S
C24 H35 0.952 . S
C25 C22 1.388 . S
C25 C26 1.382 . S
C25 H50 0.950 . S
C26 N21 1.332 . S
C26 C25 1.382 . S
C26 H36 0.948 . S
N27 Co5 2.280 1_665 S
N27 C31 1.332 . S
N27 C32 1.332 . S
C28 C29 1.388 . S
C28 C32 1.382 . S
C28 H51 0.950 . S
C29 C28 1.388 . S
C29 C30 1.386 . S
C30 C29 1.386 . S
C30 C31 1.382 . S
C30 H52 0.950 . S
C31 N27 1.332 . S
C31 C30 1.382 . S
C31 H33 0.952 . S
C32 N27 1.332 . S
C32 C28 1.382 . S
C32 H34 0.948 . S
H33 C31 0.952 . S
H34 C32 0.948 . S
H35 C24 0.952 . S
H36 C26 0.948 . S
C37 C3 1.395 1_655 S
C37 C7 1.391 . S
C38 C0 1.389 . S
C38 C20 1.392 . S
C39 C10 1.392 . S
C39 C12 1.389 . S
C40 C15 1.395 1_455 S
C40 C17 1.391 . S
H41 C1 0.951 . S
H42 C2 0.950 . S
H43 C8 0.949 . S
H44 C9 0.950 . S
H45 C13 0.951 . S
H46 C14 0.950 . S
H47 C18 0.949 . S
H48 C19 0.950 . S
H49 C23 0.950 . S
H50 C25 0.950 . S
H51 C28 0.950 . S
H52 C30 0.950 . S
C53 C54 1.443 . S
C53 N57 1.376 . S
C53 C91 1.389 . S
C54 C53 1.443 . S
C54 C55 1.340 . S
C54 H94 0.951 . S
C55 C54 1.340 . S
C55 C56 1.439 . S
C55 H95 0.950 . S
C56 C55 1.439 . S
C56 N57 1.374 . S
C56 C90 1.395 . S
N57 C53 1.376 . S
N57 C56 1.374 . S
N57 Co58 2.008 . S
Co58 N57 2.008 . S
Co58 N59 1.995 . S
Co58 N64 2.008 . S
Co58 N69 1.995 . S
Co58 N74 2.282 . S
Co58 N80 2.282 . S
N59 Co58 1.995 . S
N59 C60 1.376 . S
N59 C63 1.383 . S
C60 N59 1.376 . S
C60 C61 1.446 . S
C60 C90 1.391 . S
C61 C60 1.446 . S
C61 C62 1.339 . S
C61 H96 0.949 . S
C62 C61 1.339 . S
C62 C63 1.439 . S
C62 H97 0.950 . S
C63 N59 1.383 . S
C63 C62 1.439 . S
C63 C92 1.392 . S
N64 Co58 2.008 . S
N64 C65 1.376 . S
N64 C68 1.374 . S
C65 N64 1.376 . S
C65 C66 1.443 . S
C65 C92 1.389 . S
C66 C65 1.443 . S
C66 C67 1.340 . S
C66 H98 0.951 . S
C67 C66 1.340 . S
C67 C68 1.439 . S
C67 H99 0.950 . S
C68 N64 1.374 . S
C68 C67 1.439 . S
C68 C93 1.395 . S
N69 Co58 1.995 . S
N69 C70 1.376 . S
N69 C73 1.383 . S
C70 N69 1.376 . S
C70 C71 1.446 . S
C70 C93 1.391 . S
C71 C70 1.446 . S
C71 C72 1.339 . S
C71 H100 0.949 . S
C72 C71 1.339 . S
C72 C73 1.439 . S
C72 H101 0.950 . S
C73 N69 1.383 . S
C73 C72 1.439 . S
C73 C91 1.392 . S
N74 Co58 2.282 . S
N74 C77 1.332 . S
N74 C79 1.332 . S
C75 C76 1.386 . S
C75 C78 1.388 . S
C76 C75 1.386 . S
C76 C77 1.382 . S
C76 H102 0.950 . S
C77 N74 1.332 . S
C77 C76 1.382 . S
C77 H88 0.952 . S
C78 C75 1.388 . S
C78 C79 1.382 . S
C78 H103 0.950 . S
C79 N74 1.332 . S
C79 C78 1.382 . S
C79 H89 0.948 . S
N80 Co58 2.282 . S
N80 C84 1.332 . S
N80 C85 1.332 . S
C81 C82 1.388 . S
C81 C85 1.382 . S
C81 H104 0.950 . S
C82 C81 1.388 . S
C82 C83 1.386 . S
C83 C82 1.386 . S
C83 C84 1.382 . S
C83 H105 0.950 . S
C84 N80 1.332 . S
C84 C83 1.382 . S
C84 H86 0.952 . S
C85 N80 1.332 . S
C85 C81 1.382 . S
C85 H87 0.948 . S
H86 C84 0.952 . S
H87 C85 0.948 . S
H88 C77 0.952 . S
H89 C79 0.948 . S
C90 C56 1.395 . S
C90 C60 1.391 . S
C91 C53 1.389 . S
C91 C73 1.392 . S
C92 C63 1.392 . S
C92 C65 1.389 . S
C93 C68 1.395 . S
C93 C70 1.391 . S
H94 C54 0.951 . S
H95 C55 0.950 . S
H96 C61 0.949 . S
H97 C62 0.950 . S
H98 C66 0.951 . S
H99 C67 0.950 . S
H100 C71 0.949 . S
H101 C72 0.950 . S
H102 C76 0.950 . S
H103 C78 0.950 . S
H104 C81 0.950 . S
H105 C83 0.950 . S
C106 C107 1.437 1_554 S
C106 N110 1.376 1_554 S
C106 C144 1.389 . S
C107 C106 1.437 1_556 S
C107 C108 1.364 . S
C107 H147 0.937 1_556 S
C108 C107 1.364 . S
C108 C109 1.439 . S
C108 H148 0.950 . S
C109 C108 1.439 . S
C109 N110 1.374 . S
C109 C143 1.395 . S
N110 C106 1.376 1_556 S
N110 C109 1.374 . S
N110 Co111 2.018 1_556 S
Co111 N110 2.018 1_554 S
Co111 N112 1.992 1_554 S
Co111 N117 1.998 1_545 S
Co111 N122 1.998 1_545 S
Co111 N127 2.273 1_544 S
Co111 N133 2.292 . S
N112 Co111 1.992 1_556 S
N112 C113 1.376 . S
N112 C116 1.383 1_545 S
C113 N112 1.376 . S
C113 C114 1.446 . S
C113 C143 1.391 . S
C114 C113 1.446 . S
C114 C115 1.357 . S
C114 H149 0.949 . S
C115 C114 1.357 . S
C115 C116 1.432 1_545 S
C115 H150 0.939 1_545 S
C116 N112 1.383 1_565 S
C116 C115 1.432 1_565 S
C116 C145 1.392 . S
N117 Co111 1.998 1_565 S
N117 C118 1.376 1_554 S
N117 C121 1.374 . S
C118 N117 1.376 1_556 S
C118 C119 1.443 1_556 S
C118 C145 1.389 . S
C119 C118 1.443 1_554 S
C119 C120 1.340 . S
C119 H151 0.951 1_554 S
C120 C119 1.340 . S
C120 C121 1.439 . S
C120 H152 0.950 . S
C121 N117 1.374 . S
C121 C120 1.439 . S
C121 C146 1.395 . S
N122 Co111 1.998 1_565 S
N122 C123 1.376 . S
N122 C126 1.383 1_565 S
C123 N122 1.376 . S
C123 C124 1.446 . S
C123 C146 1.391 . S
C124 C123 1.446 . S
C124 C125 1.336 1_565 S
C124 H153 0.949 . S
C125 C124 1.336 1_545 S
C125 C126 1.439 . S
C125 H154 0.951 . S
C126 N122 1.383 1_545 S
C126 C125 1.439 . S
C126 C144 1.392 . S
N127 Co111 2.273 1_566 S
N127 C130 1.332 . S
N127 C132 1.332 . S
C128 C129 1.386 . S
C128 C131 1.388 . S
C129 C128 1.386 . S
C129 C130 1.382 . S
C129 H155 0.950 . S
C130 N127 1.332 . S
C130 C129 1.382 . S
C130 H141 0.952 1_556 S
C131 C128 1.388 . S
C131 C132 1.382 . S
C131 H156 0.950 . S
C132 N127 1.332 . S
C132 C131 1.382 . S
C132 H142 0.948 . S
N133 Co111 2.292 . S
N133 C137 1.332 . S
N133 C138 1.332 . S
C134 C135 1.388 . S
C134 C138 1.382 . S
C134 H157 0.950 . S
C135 C134 1.388 . S
C135 C136 1.386 . S
C136 C135 1.386 . S
C136 C137 1.382 . S
C136 H158 0.950 . S
C137 N133 1.332 . S
C137 C136 1.382 . S
C137 H139 0.952 1_554 S
C138 N133 1.332 . S
C138 C134 1.382 . S
C138 H140 0.948 . S
H139 C137 0.952 1_556 S
H140 C138 0.948 . S
H141 C130 0.952 1_554 S
H142 C132 0.948 . S
C143 C109 1.395 . S
C143 C113 1.391 . S
C144 C106 1.389 . S
C144 C126 1.392 . S
C145 C116 1.392 . S
C145 C118 1.389 . S
C146 C121 1.395 . S
C146 C123 1.391 . S
H147 C107 0.937 1_554 S
H148 C108 0.950 . S
H149 C114 0.949 . S
H150 C115 0.939 1_565 S
H151 C119 0.951 1_556 S
H152 C120 0.950 . S
H153 C124 0.949 . S
H154 C125 0.951 . S
H155 C129 0.950 . S
H156 C131 0.950 . S
H157 C134 0.950 . S
H158 C136 0.950 . S
C159 C160 1.443 . S
C159 N163 1.376 . S
C159 C197 1.389 . S
C160 C159 1.443 . S
C160 C161 1.340 . S
C160 H200 0.951 . S
C161 C160 1.340 . S
C161 C162 1.439 . S
C161 H201 0.950 . S
C162 C161 1.439 . S
C162 N163 1.374 . S
C162 C196 1.395 . S
N163 C159 1.376 . S
N163 C162 1.374 . S
N163 Co164 2.008 . S
Co164 N163 2.008 . S
Co164 N165 1.995 . S
Co164 N170 2.008 . S
Co164 N175 1.995 . S
Co164 N180 2.282 . S
Co164 N186 2.282 . S
N165 Co164 1.995 . S
N165 C166 1.376 . S
N165 C169 1.383 . S
C166 N165 1.376 . S
C166 C167 1.446 . S
C166 C196 1.391 . S
C167 C166 1.446 . S
C167 C168 1.339 . S
C167 H202 0.949 . S
C168 C167 1.339 . S
C168 C169 1.439 . S
C168 H203 0.950 . S
C169 N165 1.383 . S
C169 C168 1.439 . S
C169 C198 1.392 . S
N170 Co164 2.008 . S
N170 C171 1.376 . S
N170 C174 1.374 . S
C171 N170 1.376 . S
C171 C172 1.443 . S
C171 C198 1.389 . S
C172 C171 1.443 . S
C172 C173 1.340 . S
C172 H204 0.951 . S
C173 C172 1.340 . S
C173 C174 1.439 . S
C173 H205 0.950 . S
C174 N170 1.374 . S
C174 C173 1.439 . S
C174 C199 1.395 . S
N175 Co164 1.995 . S
N175 C176 1.376 . S
N175 C179 1.383 . S
C176 N175 1.376 . S
C176 C177 1.446 . S
C176 C199 1.391 . S
C177 C176 1.446 . S
C177 C178 1.339 . S
C177 H206 0.949 . S
C178 C177 1.339 . S
C178 C179 1.439 . S
C178 H207 0.950 . S
C179 N175 1.383 . S
C179 C178 1.439 . S
C179 C197 1.392 . S
N180 Co164 2.282 . S
N180 C183 1.332 . S
N180 C185 1.332 . S
C181 C182 1.386 . S
C181 C184 1.388 . S
C182 C181 1.386 . S
C182 C183 1.382 . S
C182 H208 0.950 . S
C183 N180 1.332 . S
C183 C182 1.382 . S
C183 H194 0.952 . S
C184 C181 1.388 . S
C184 C185 1.382 . S
C184 H209 0.950 . S
C185 N180 1.332 . S
C185 C184 1.382 . S
C185 H195 0.948 . S
N186 Co164 2.282 . S
N186 C190 1.332 . S
N186 C191 1.332 . S
C187 C188 1.388 . S
C187 C191 1.382 . S
C187 H210 0.950 . S
C188 C187 1.388 . S
C188 C189 1.386 . S
C189 C188 1.386 . S
C189 C190 1.382 . S
C189 H211 0.950 . S
C190 N186 1.332 . S
C190 C189 1.382 . S
C190 H192 0.952 . S
C191 N186 1.332 . S
C191 C187 1.382 . S
C191 H193 0.948 . S
H192 C190 0.952 . S
H193 C191 0.948 . S
H194 C183 0.952 . S
H195 C185 0.948 . S
C196 C162 1.395 . S
C196 C166 1.391 . S
C197 C159 1.389 . S
C197 C179 1.392 . S
C198 C169 1.392 . S
C198 C171 1.389 . S
C199 C174 1.395 . S
C199 C176 1.391 . S
H200 C160 0.951 . S
H201 C161 0.950 . S
H202 C167 0.949 . S
H203 C168 0.950 . S
H204 C172 0.951 . S
H205 C173 0.950 . S
H206 C177 0.949 . S
H207 C178 0.950 . S
H208 C182 0.950 . S
H209 C184 0.950 . S
H210 C187 0.950 . S
H211 C189 0.950 . S
C212 C213 1.443 . S
C212 N216 1.376 . S
C212 C250 1.389 . S
C213 C212 1.443 . S
C213 C214 1.340 . S
C213 H253 0.951 . S
C214 C213 1.340 . S
C214 C215 1.439 . S
C214 H254 0.950 . S
C215 C214 1.439 . S
C215 N216 1.374 . S
C215 C249 1.395 . S
N216 C212 1.376 . S
N216 C215 1.374 . S
N216 Co217 2.008 . S
Co217 N216 2.008 . S
Co217 N218 1.995 . S
Co217 N223 2.008 . S
Co217 N228 1.995 . S
Co217 N233 2.282 . S
Co217 N239 2.282 . S
N218 Co217 1.995 . S
N218 C219 1.376 . S
N218 C222 1.383 . S
C219 N218 1.376 . S
C219 C220 1.446 . S
C219 C249 1.391 . S
C220 C219 1.446 . S
C220 C221 1.339 . S
C220 H255 0.949 . S
C221 C220 1.339 . S
C221 C222 1.439 . S
C221 H256 0.950 . S
C222 N218 1.383 . S
C222 C221 1.439 . S
C222 C251 1.392 . S
N223 Co217 2.008 . S
N223 C224 1.376 . S
N223 C227 1.374 . S
C224 N223 1.376 . S
C224 C225 1.443 . S
C224 C251 1.389 . S
C225 C224 1.443 . S
C225 C226 1.340 . S
C225 H257 0.951 . S
C226 C225 1.340 . S
C226 C227 1.439 . S
C226 H258 0.950 . S
C227 N223 1.374 . S
C227 C226 1.439 . S
C227 C252 1.395 . S
N228 Co217 1.995 . S
N228 C229 1.376 . S
N228 C232 1.383 . S
C229 N228 1.376 . S
C229 C230 1.446 . S
C229 C252 1.391 . S
C230 C229 1.446 . S
C230 C231 1.339 . S
C230 H259 0.949 . S
C231 C230 1.339 . S
C231 C232 1.439 . S
C231 H260 0.950 . S
C232 N228 1.383 . S
C232 C231 1.439 . S
C232 C250 1.392 . S
N233 Co217 2.282 . S
N233 C236 1.332 . S
N233 C238 1.332 . S
C234 C235 1.386 . S
C234 C237 1.388 . S
C235 C234 1.386 . S
C235 C236 1.382 . S
C235 H261 0.950 . S
C236 N233 1.332 . S
C236 C235 1.382 . S
C236 H247 0.952 . S
C237 C234 1.388 . S
C237 C238 1.382 . S
C237 H262 0.950 . S
C238 N233 1.332 . S
C238 C237 1.382 . S
C238 H248 0.948 . S
N239 Co217 2.282 . S
N239 C243 1.332 . S
N239 C244 1.332 . S
C240 C241 1.388 . S
C240 C244 1.382 . S
C240 H263 0.950 . S
C241 C240 1.388 . S
C241 C242 1.386 . S
C242 C241 1.386 . S
C242 C243 1.382 . S
C242 H264 0.950 . S
C243 N239 1.332 . S
C243 C242 1.382 . S
C243 H245 0.952 . S
C244 N239 1.332 . S
C244 C240 1.382 . S
C244 H246 0.948 . S
H245 C243 0.952 . S
H246 C244 0.948 . S
H247 C236 0.952 . S
H248 C238 0.948 . S
C249 C215 1.395 . S
C249 C219 1.391 . S
C250 C212 1.389 . S
C250 C232 1.392 . S
C251 C222 1.392 . S
C251 C224 1.389 . S
C252 C227 1.395 . S
C252 C229 1.391 . S
H253 C213 0.951 . S
H254 C214 0.950 . S
H255 C220 0.949 . S
H256 C221 0.950 . S
H257 C225 0.951 . S
H258 C226 0.950 . S
H259 C230 0.949 . S
H260 C231 0.950 . S
H261 C235 0.950 . S
H262 C237 0.950 . S
H263 C240 0.950 . S
H264 C242 0.950 . S
C265 C266 1.443 . S
C265 N269 1.376 . S
C265 C303 1.389 . S
C266 C265 1.443 . S
C266 C267 1.340 . S
C266 H306 0.951 . S
C267 C266 1.340 . S
C267 C268 1.439 . S
C267 H307 0.950 . S
C268 C267 1.439 . S
C268 N269 1.374 . S
C268 C302 1.395 . S
N269 C265 1.376 . S
N269 C268 1.374 . S
N269 Co270 2.008 . S
Co270 N269 2.008 . S
Co270 N271 1.995 . S
Co270 N276 2.008 . S
Co270 N281 1.995 . S
Co270 N286 2.282 . S
Co270 N292 2.282 . S
N271 Co270 1.995 . S
N271 C272 1.376 . S
N271 C275 1.383 . S
C272 N271 1.376 . S
C272 C273 1.446 . S
C272 C302 1.391 . S
C273 C272 1.446 . S
C273 C274 1.339 . S
C273 H308 0.949 . S
C274 C273 1.339 . S
C274 C275 1.439 . S
C274 H309 0.950 . S
C275 N271 1.383 . S
C275 C274 1.439 . S
C275 C304 1.392 . S
N276 Co270 2.008 . S
N276 C277 1.376 . S
N276 C280 1.374 . S
C277 N276 1.376 . S
C277 C278 1.443 . S
C277 C304 1.389 . S
C278 C277 1.443 . S
C278 C279 1.340 . S
C278 H310 0.951 . S
C279 C278 1.340 . S
C279 C280 1.439 . S
C279 H311 0.950 . S
C280 N276 1.374 . S
C280 C279 1.439 . S
C280 C305 1.395 . S
N281 Co270 1.995 . S
N281 C282 1.376 . S
N281 C285 1.383 . S
C282 N281 1.376 . S
C282 C283 1.446 . S
C282 C305 1.391 . S
C283 C282 1.446 . S
C283 C284 1.339 . S
C283 H312 0.949 . S
C284 C283 1.339 . S
C284 C285 1.439 . S
C284 H313 0.950 . S
C285 N281 1.383 . S
C285 C284 1.439 . S
C285 C303 1.392 . S
N286 Co270 2.282 . S
N286 C289 1.332 . S
N286 C291 1.332 . S
C287 C288 1.386 . S
C287 C290 1.388 . S
C288 C287 1.386 . S
C288 C289 1.382 . S
C288 H314 0.950 . S
C289 N286 1.332 . S
C289 C288 1.382 . S
C289 H300 0.952 . S
C290 C287 1.388 . S
C290 C291 1.382 . S
C290 H315 0.950 . S
C291 N286 1.332 . S
C291 C290 1.382 . S
C291 H301 0.948 . S
N292 Co270 2.282 . S
N292 C296 1.332 . S
N292 C297 1.332 . S
C293 C294 1.388 . S
C293 C297 1.382 . S
C293 H316 0.950 . S
C294 C293 1.388 . S
C294 C295 1.386 . S
C295 C294 1.386 . S
C295 C296 1.382 . S
C295 H317 0.950 . S
C296 N292 1.332 . S
C296 C295 1.382 . S
C296 H298 0.952 . S
C297 N292 1.332 . S
C297 C293 1.382 . S
C297 H299 0.948 . S
H298 C296 0.952 . S
H299 C297 0.948 . S
H300 C289 0.952 . S
H301 C291 0.948 . S
C302 C268 1.395 . S
C302 C272 1.391 . S
C303 C265 1.389 . S
C303 C285 1.392 . S
C304 C275 1.392 . S
C304 C277 1.389 . S
C305 C280 1.395 . S
C305 C282 1.391 . S
H306 C266 0.951 . S
H307 C267 0.950 . S
H308 C273 0.949 . S
H309 C274 0.950 . S
H310 C278 0.951 . S
H311 C279 0.950 . S
H312 C283 0.949 . S
H313 C284 0.950 . S
H314 C288 0.950 . S
H315 C290 0.950 . S
H316 C293 0.950 . S
H317 C295 0.950 . S
C318 C319 1.443 . S
C318 N322 1.376 . S
C318 C356 1.389 . S
C319 C318 1.443 . S
C319 C320 1.340 . S
C319 H359 0.951 . S
C320 C319 1.340 . S
C320 C321 1.439 . S
C320 H360 0.950 . S
C321 C320 1.439 . S
C321 N322 1.374 . S
C321 C355 1.395 . S
N322 C318 1.376 . S
N322 C321 1.374 . S
N322 Co323 1.998 1_556 S
Co323 N322 1.998 1_554 S
Co323 N324 1.992 1_554 S
Co323 N329 2.019 . S
Co323 N334 1.997 . S
Co323 N339 2.287 . S
Co323 N345 2.278 1_554 S
N324 Co323 1.992 1_556 S
N324 C325 1.376 . S
N324 C328 1.383 1_556 S
C325 N324 1.376 . S
C325 C326 1.446 . S
C325 C355 1.391 . S
C326 C325 1.446 . S
C326 C327 1.339 1_556 S
C326 H361 0.949 . S
C327 C326 1.339 1_554 S
C327 C328 1.439 . S
C327 H362 0.950 . S
C328 N324 1.383 1_554 S
C328 C327 1.439 . S
C328 C357 1.392 . S
N329 Co323 2.019 . S
N329 C330 1.376 . S
N329 C333 1.374 . S
C330 N329 1.376 . S
C330 C331 1.443 . S
C330 C357 1.389 . S
C331 C330 1.443 . S
C331 C332 1.340 . S
C331 H363 0.951 . S
C332 C331 1.340 . S
C332 C333 1.439 . S
C332 H364 0.950 . S
C333 N329 1.374 . S
C333 C332 1.439 . S
C333 C358 1.395 . S
N334 Co323 1.997 . S
N334 C335 1.376 . S
N334 C338 1.383 1_554 S
C335 N334 1.376 . S
C335 C336 1.446 . S
C335 C358 1.391 . S
C336 C335 1.446 . S
C336 C337 1.339 1_554 S
C336 H365 0.949 . S
C337 C336 1.339 1_556 S
C337 C338 1.439 . S
C337 H366 0.950 . S
C338 N334 1.383 1_556 S
C338 C337 1.439 . S
C338 C356 1.392 . S
N339 Co323 2.287 . S
N339 C342 1.332 . S
N339 C344 1.332 . S
C340 C341 1.386 . S
C340 C343 1.388 . S
C341 C340 1.386 . S
C341 C342 1.382 . S
C341 H367 0.950 . S
C342 N339 1.332 . S
C342 C341 1.382 . S
C342 H353 0.952 . S
C343 C340 1.388 . S
C343 C344 1.382 . S
C343 H368 0.950 . S
C344 N339 1.332 . S
C344 C343 1.382 . S
C344 H354 0.948 . S
N345 Co323 2.278 1_556 S
N345 C349 1.332 . S
N345 C350 1.332 . S
C346 C347 1.388 . S
C346 C350 1.382 . S
C346 H369 0.950 . S
C347 C346 1.388 . S
C347 C348 1.386 . S
C348 C347 1.386 . S
C348 C349 1.382 . S
C348 H370 0.950 . S
C349 N345 1.332 . S
C349 C348 1.382 . S
C349 H351 0.952 . S
C350 N345 1.332 . S
C350 C346 1.382 . S
C350 H352 0.948 . S
H351 C349 0.952 . S
H352 C350 0.948 . S
H353 C342 0.952 . S
H354 C344 0.948 . S
C355 C321 1.395 . S
C355 C325 1.391 . S
C356 C318 1.389 . S
C356 C338 1.392 . S
C357 C328 1.392 . S
C357 C330 1.389 . S
C358 C333 1.395 . S
C358 C335 1.391 . S
H359 C319 0.951 . S
H360 C320 0.950 . S
H361 C326 0.949 . S
H362 C327 0.950 . S
H363 C331 0.951 . S
H364 C332 0.950 . S
H365 C336 0.949 . S
H366 C337 0.950 . S
H367 C341 0.950 . S
H368 C343 0.950 . S
H369 C346 0.950 . S
H370 C348 0.950 . S
C371 C372 1.443 . S
C371 N375 1.376 . S
C371 C409 1.389 . S
C372 C371 1.443 . S
C372 C373 1.340 . S
C372 H412 0.951 . S
C373 C372 1.340 . S
C373 C374 1.439 . S
C373 H413 0.950 . S
C374 C373 1.439 . S
C374 N375 1.374 . S
C374 C408 1.383 1_455 S
N375 C371 1.376 . S
N375 C374 1.374 . S
N375 Co376 2.008 . S
Co376 N375 2.008 . S
Co376 N377 1.995 1_455 S
Co376 N382 2.008 1_455 S
Co376 N387 1.995 . S
Co376 N392 2.282 . S
Co376 N398 2.282 1_455 S
N377 Co376 1.995 1_655 S
N377 C378 1.376 . S
N377 C381 1.383 . S
C378 N377 1.376 . S
C378 C379 1.446 . S
C378 C408 1.401 . S
C379 C378 1.446 . S
C379 C380 1.339 . S
C379 H414 0.949 . S
C380 C379 1.339 . S
C380 C381 1.439 . S
C380 H415 0.950 . S
C381 N377 1.383 . S
C381 C380 1.439 . S
C381 C410 1.392 . S
N382 Co376 2.008 1_655 S
N382 C383 1.376 . S
N382 C386 1.374 . S
C383 N382 1.376 . S
C383 C384 1.443 . S
C383 C410 1.389 . S
C384 C383 1.443 . S
C384 C385 1.340 . S
C384 H416 0.951 . S
C385 C384 1.340 . S
C385 C386 1.439 . S
C385 H417 0.950 . S
C386 N382 1.374 . S
C386 C385 1.439 . S
C386 C411 1.378 1_655 S
N387 Co376 1.995 . S
N387 C388 1.376 . S
N387 C391 1.383 . S
C388 N387 1.376 . S
C388 C389 1.446 . S
C388 C411 1.406 . S
C389 C388 1.446 . S
C389 C390 1.339 . S
C389 H418 0.949 . S
C390 C389 1.339 . S
C390 C391 1.439 . S
C390 H419 0.950 . S
C391 N387 1.383 . S
C391 C390 1.439 . S
C391 C409 1.392 . S
N392 Co376 2.282 . S
N392 C395 1.332 . S
N392 C397 1.332 . S
C393 C394 1.386 . S
C393 C396 1.388 . S
C394 C393 1.386 . S
C394 C395 1.382 . S
C394 H420 0.950 . S
C395 N392 1.332 . S
C395 C394 1.382 . S
C395 H406 0.952 . S
C396 C393 1.388 . S
C396 C397 1.382 . S
C396 H421 0.950 . S
C397 N392 1.332 . S
C397 C396 1.382 . S
C397 H407 0.948 . S
N398 Co376 2.282 1_655 S
N398 C402 1.332 . S
N398 C403 1.332 . S
C399 C400 1.388 . S
C399 C403 1.382 . S
C399 H422 0.950 . S
C400 C399 1.388 . S
C400 C401 1.386 . S
C401 C400 1.386 . S
C401 C402 1.382 . S
C401 H423 0.950 . S
C402 N398 1.332 . S
C402 C401 1.382 . S
C402 H404 0.952 . S
C403 N398 1.332 . S
C403 C399 1.382 . S
C403 H405 0.948 . S
H404 C402 0.952 . S
H405 C403 0.948 . S
H406 C395 0.952 . S
H407 C397 0.948 . S
C408 C374 1.383 1_655 S
C408 C378 1.401 . S
C409 C371 1.389 . S
C409 C391 1.392 . S
C410 C381 1.392 . S
C410 C383 1.389 . S
C411 C386 1.378 1_455 S
C411 C388 1.406 . S
H412 C372 0.951 . S
H413 C373 0.950 . S
H414 C379 0.949 . S
H415 C380 0.950 . S
H416 C384 0.951 . S
H417 C385 0.950 . S
H418 C389 0.949 . S
H419 C390 0.950 . S
H420 C394 0.950 . S
H421 C396 0.950 . S
H422 C399 0.950 . S
H423 C401 0.950 . S
H424 C432 0.950 . S
H425 C437 0.950 . S
H426 C434 0.950 . S
H427 C436 0.950 . S
H428 C438 0.950 . S
H429 C440 0.950 . S
H430 C442 0.950 . S
H431 C443 0.950 . S
C432 H424 0.950 . S
C432 C433 1.386 . S
C432 C434 1.391 . S
C433 C432 1.386 . S
C433 C437 1.393 . S
C434 H426 0.950 . S
C434 C432 1.391 . S
C434 C435 1.400 . S
C435 C434 1.400 . S
C435 C436 1.398 . S
C435 C441 1.491 . S
C436 H427 0.950 . S
C436 C435 1.398 . S
C436 C437 1.391 . S
C437 H425 0.950 . S
C437 C433 1.393 . S
C437 C436 1.391 . S
C438 H428 0.950 . S
C438 C439 1.386 . S
C438 C440 1.391 . S
C439 C438 1.386 . S
C439 C443 1.393 . S
C440 H429 0.950 . S
C440 C438 1.391 . S
C440 C441 1.400 . S
C441 C435 1.491 . S
C441 C440 1.400 . S
C441 C442 1.398 . S
C442 H430 0.950 . S
C442 C441 1.398 . S
C442 C443 1.391 . S
C443 H431 0.950 . S
C443 C439 1.393 . S
C443 C442 1.391 . S
H444 C452 0.950 . S
H445 C457 0.950 . S
H446 C454 0.950 . S
H447 C456 0.950 . S
H448 C458 0.950 . S
H449 C460 0.950 . S
H450 C462 0.950 . S
H451 C463 0.950 . S
C452 H444 0.950 . S
C452 C453 1.386 . S
C452 C454 1.391 . S
C453 C452 1.386 . S
C453 C457 1.393 . S
C454 H446 0.950 . S
C454 C452 1.391 . S
C454 C455 1.400 . S
C455 C454 1.400 . S
C455 C456 1.398 . S
C455 C461 1.491 . S
C456 H447 0.950 . S
C456 C455 1.398 . S
C456 C457 1.391 . S
C457 H445 0.950 . S
C457 C453 1.393 . S
C457 C456 1.391 . S
C458 H448 0.950 . S
C458 C459 1.386 . S
C458 C460 1.391 . S
C459 C458 1.386 . S
C459 C463 1.393 . S
C460 H449 0.950 . S
C460 C458 1.391 . S
C460 C461 1.400 . S
C461 C455 1.491 . S
C461 C460 1.400 . S
C461 C462 1.398 . S
C462 H450 0.950 . S
C462 C461 1.398 . S
C462 C463 1.391 . S
C463 H451 0.950 . S
C463 C459 1.393 . S
C463 C462 1.391 . S
H464 C472 0.950 . S
H465 C477 0.950 . S
H466 C474 0.950 . S
H467 C476 0.950 . S
H468 C478 0.950 . S
H469 C480 0.950 . S
H470 C482 0.950 . S
H471 C483 0.950 . S
C472 H464 0.950 . S
C472 C473 1.386 . S
C472 C474 1.391 . S
C473 C472 1.386 . S
C473 C477 1.393 . S
C474 H466 0.950 . S
C474 C472 1.391 . S
C474 C475 1.400 . S
C475 C474 1.400 . S
C475 C476 1.398 . S
C475 C481 1.491 . S
C476 H467 0.950 . S
C476 C475 1.398 . S
C476 C477 1.391 . S
C477 H465 0.950 . S
C477 C473 1.393 . S
C477 C476 1.391 . S
C478 H468 0.950 . S
C478 C479 1.386 . S
C478 C480 1.391 . S
C479 C478 1.386 . S
C479 C483 1.393 . S
C480 H469 0.950 . S
C480 C478 1.391 . S
C480 C481 1.400 . S
C481 C475 1.491 . S
C481 C480 1.400 . S
C481 C482 1.398 . S
C482 H470 0.950 . S
C482 C481 1.398 . S
C482 C483 1.391 . S
C483 H471 0.950 . S
C483 C479 1.393 . S
C483 C482 1.391 . S
H484 C492 0.950 . S
H485 C497 0.950 . S
H486 C494 0.950 . S
H487 C496 0.950 . S
H488 C498 0.950 . S
H489 C500 0.950 . S
H490 C502 0.950 . S
H491 C503 0.950 . S
C492 H484 0.950 . S
C492 C493 1.386 . S
C492 C494 1.391 . S
C493 C492 1.386 . S
C493 C497 1.393 . S
C494 H486 0.950 . S
C494 C492 1.391 . S
C494 C495 1.400 . S
C495 C494 1.400 . S
C495 C496 1.398 . S
C495 C501 1.491 . S
C496 H487 0.950 . S
C496 C495 1.398 . S
C496 C497 1.391 . S
C497 H485 0.950 . S
C497 C493 1.393 . S
C497 C496 1.391 . S
C498 H488 0.950 . S
C498 C499 1.386 . S
C498 C500 1.391 . S
C499 C498 1.386 . S
C499 C503 1.393 . S
C500 H489 0.950 . S
C500 C498 1.391 . S
C500 C501 1.400 . S
C501 C495 1.491 . S
C501 C500 1.400 . S
C501 C502 1.398 . S
C502 H490 0.950 . S
C502 C501 1.398 . S
C502 C503 1.391 . S
C503 H491 0.950 . S
C503 C499 1.393 . S
C503 C502 1.391 . S
H504 C512 0.950 . S
H505 C517 0.950 . S
H506 C514 0.950 . S
H507 C516 0.950 . S
H508 C518 0.950 . S
H509 C520 0.950 . S
H510 C522 0.950 . S
H511 C523 0.950 . S
C512 H504 0.950 . S
C512 C513 1.386 . S
C512 C514 1.391 . S
C513 C512 1.386 . S
C513 C517 1.393 . S
C514 H506 0.950 . S
C514 C512 1.391 . S
C514 C515 1.400 . S
C515 C514 1.400 . S
C515 C516 1.398 . S
C515 C521 1.491 . S
C516 H507 0.950 . S
C516 C515 1.398 . S
C516 C517 1.391 . S
C517 H505 0.950 . S
C517 C513 1.393 . S
C517 C516 1.391 . S
C518 H508 0.950 . S
C518 C519 1.386 . S
C518 C520 1.391 . S
C519 C518 1.386 . S
C519 C523 1.393 . S
C520 H509 0.950 . S
C520 C518 1.391 . S
C520 C521 1.400 . S
C521 C515 1.491 . S
C521 C520 1.400 . S
C521 C522 1.398 . S
C522 H510 0.950 . S
C522 C521 1.398 . S
C522 C523 1.391 . S
C523 H511 0.950 . S
C523 C519 1.393 . S
C523 C522 1.391 . S
H524 C532 0.950 . S
H525 C537 0.950 . S
H526 C534 0.950 . S
H527 C536 0.950 . S
H528 C538 0.950 . S
H529 C540 0.950 . S
H530 C542 0.950 . S
H531 C543 0.950 . S
C532 H524 0.950 . S
C532 C533 1.386 . S
C532 C534 1.391 . S
C533 C532 1.386 . S
C533 C537 1.393 . S
C534 H526 0.950 . S
C534 C532 1.391 . S
C534 C535 1.400 . S
C535 C534 1.400 . S
C535 C536 1.398 . S
C535 C541 1.491 . S
C536 H527 0.950 . S
C536 C535 1.398 . S
C536 C537 1.391 . S
C537 H525 0.950 . S
C537 C533 1.393 . S
C537 C536 1.391 . S
C538 H528 0.950 . S
C538 C539 1.386 . S
C538 C540 1.391 . S
C539 C538 1.386 . S
C539 C543 1.393 . S
C540 H529 0.950 . S
C540 C538 1.391 . S
C540 C541 1.400 . S
C541 C535 1.491 . S
C541 C540 1.400 . S
C541 C542 1.398 . S
C542 H530 0.950 . S
C542 C541 1.398 . S
C542 C543 1.391 . S
C543 H531 0.950 . S
C543 C539 1.393 . S
C543 C542 1.391 . S
H544 C552 0.950 . S
H545 C557 0.950 . S
H546 C554 0.950 . S
H547 C556 0.950 . S
H548 C558 0.950 . S
H549 C560 0.950 . S
H550 C562 0.950 . S
H551 C563 0.950 . S
C552 H544 0.950 . S
C552 C553 1.386 . S
C552 C554 1.391 . S
C553 C552 1.386 . S
C553 C557 1.393 . S
C554 H546 0.950 . S
C554 C552 1.391 . S
C554 C555 1.400 . S
C555 C554 1.400 . S
C555 C556 1.398 . S
C555 C561 1.491 . S
C556 H547 0.950 . S
C556 C555 1.398 . S
C556 C557 1.391 . S
C557 H545 0.950 . S
C557 C553 1.393 . S
C557 C556 1.391 . S
C558 H548 0.950 . S
C558 C559 1.386 . S
C558 C560 1.391 . S
C559 C558 1.386 . S
C559 C563 1.393 . S
C560 H549 0.950 . S
C560 C558 1.391 . S
C560 C561 1.400 . S
C561 C555 1.491 . S
C561 C560 1.400 . S
C561 C562 1.398 . S
C562 H550 0.950 . S
C562 C561 1.398 . S
C562 C563 1.391 . S
C563 H551 0.950 . S
C563 C559 1.393 . S
C563 C562 1.391 . S
H564 C572 0.950 . S
H565 C577 0.950 . S
H566 C574 0.950 . S
H567 C576 0.950 . S
H568 C578 0.950 . S
H569 C580 0.950 . S
H570 C582 0.950 . S
H571 C583 0.950 . S
C572 H564 0.950 . S
C572 C573 1.386 . S
C572 C574 1.391 . S
C573 C572 1.386 . S
C573 C577 1.393 . S
C574 H566 0.950 . S
C574 C572 1.391 . S
C574 C575 1.400 . S
C575 C574 1.400 . S
C575 C576 1.398 . S
C575 C581 1.491 . S
C576 H567 0.950 . S
C576 C575 1.398 . S
C576 C577 1.391 . S
C577 H565 0.950 . S
C577 C573 1.393 . S
C577 C576 1.391 . S
C578 H568 0.950 . S
C578 C579 1.386 . S
C578 C580 1.391 . S
C579 C578 1.386 . S
C579 C583 1.393 . S
C580 H569 0.950 . S
C580 C578 1.391 . S
C580 C581 1.400 . S
C581 C575 1.491 . S
C581 C580 1.400 . S
C581 C582 1.398 . S
C582 H570 0.950 . S
C582 C581 1.398 . S
C582 C583 1.391 . S
C583 H571 0.950 . S
C583 C579 1.393 . S
C583 C582 1.391 . S
H584 C592 0.950 . S
H585 C597 0.950 . S
H586 C594 0.950 . S
H587 C596 0.950 . S
H588 C598 0.950 . S
H589 C600 0.950 . S
H590 C602 0.950 . S
H591 C603 0.950 . S
C592 H584 0.950 . S
C592 C593 1.386 . S
C592 C594 1.391 . S
C593 C592 1.386 . S
C593 C597 1.393 . S
C594 H586 0.950 . S
C594 C592 1.391 . S
C594 C595 1.400 . S
C595 C594 1.400 . S
C595 C596 1.398 . S
C595 C601 1.491 . S
C596 H587 0.950 . S
C596 C595 1.398 . S
C596 C597 1.391 . S
C597 H585 0.950 . S
C597 C593 1.393 . S
C597 C596 1.391 . S
C598 H588 0.950 . S
C598 C599 1.386 . S
C598 C600 1.391 . S
C599 C598 1.386 . S
C599 C603 1.393 . S
C600 H589 0.950 . S
C600 C598 1.391 . S
C600 C601 1.400 . S
C601 C595 1.491 . S
C601 C600 1.400 . S
C601 C602 1.398 . S
C602 H590 0.950 . S
C602 C601 1.398 . S
C602 C603 1.391 . S
C603 H591 0.950 . S
C603 C599 1.393 . S
C603 C602 1.391 . S
H604 C612 0.950 . S
H605 C617 0.950 . S
H606 C614 0.950 . S
H607 C616 0.950 . S
H608 C618 0.950 . S
H609 C620 0.950 . S
H610 C622 0.950 . S
H611 C623 0.950 . S
C612 H604 0.950 . S
C612 C613 1.386 . S
C612 C614 1.391 . S
C613 C612 1.386 . S
C613 C617 1.393 . S
C614 H606 0.950 . S
C614 C612 1.391 . S
C614 C615 1.400 . S
C615 C614 1.400 . S
C615 C616 1.398 . S
C615 C621 1.491 . S
C616 H607 0.950 . S
C616 C615 1.398 . S
C616 C617 1.391 . S
C617 H605 0.950 . S
C617 C613 1.393 . S
C617 C616 1.391 . S
C618 H608 0.950 . S
C618 C619 1.386 . S
C618 C620 1.391 . S
C619 C618 1.386 . S
C619 C623 1.393 . S
C620 H609 0.950 . S
C620 C618 1.391 . S
C620 C621 1.400 . S
C621 C615 1.491 . S
C621 C620 1.400 . S
C621 C622 1.398 . S
C622 H610 0.950 . S
C622 C621 1.398 . S
C622 C623 1.391 . S
C623 H611 0.950 . S
C623 C619 1.393 . S
C623 C622 1.391 . S
H624 C632 0.950 . S
H625 C637 0.950 . S
H626 C634 0.950 . S
H627 C636 0.950 . S
H628 C638 0.950 . S
H629 C640 0.950 . S
H630 C642 0.950 . S
H631 C643 0.950 . S
C632 H624 0.950 . S
C632 C633 1.386 . S
C632 C634 1.391 . S
C633 C632 1.386 . S
C633 C637 1.393 . S
C634 H626 0.950 . S
C634 C632 1.391 . S
C634 C635 1.400 . S
C635 C634 1.400 . S
C635 C636 1.398 . S
C635 C641 1.491 . S
C636 H627 0.950 . S
C636 C635 1.398 . S
C636 C637 1.391 . S
C637 H625 0.950 . S
C637 C633 1.393 . S
C637 C636 1.391 . S
C638 H628 0.950 . S
C638 C639 1.386 . S
C638 C640 1.391 . S
C639 C638 1.386 . S
C639 C643 1.393 . S
C640 H629 0.950 . S
C640 C638 1.391 . S
C640 C641 1.400 . S
C641 C635 1.491 . S
C641 C640 1.400 . S
C641 C642 1.398 . S
C642 H630 0.950 . S
C642 C641 1.398 . S
C642 C643 1.391 . S
C643 H631 0.950 . S
C643 C639 1.393 . S
C643 C642 1.391 . S
H644 C652 0.950 . S
H645 C657 0.950 . S
H646 C654 0.950 . S
H647 C656 0.950 . S
H648 C658 0.950 . S
H649 C660 0.950 . S
H650 C662 0.950 . S
H651 C663 0.950 . S
C652 H644 0.950 . S
C652 C653 1.386 . S
C652 C654 1.391 . S
C653 C652 1.386 . S
C653 C657 1.393 . S
C654 H646 0.950 . S
C654 C652 1.391 . S
C654 C655 1.400 . S
C655 C654 1.400 . S
C655 C656 1.398 . S
C655 C661 1.491 . S
C656 H647 0.950 . S
C656 C655 1.398 . S
C656 C657 1.391 . S
C657 H645 0.950 . S
C657 C653 1.393 . S
C657 C656 1.391 . S
C658 H648 0.950 . S
C658 C659 1.386 . S
C658 C660 1.391 . S
C659 C658 1.386 . S
C659 C663 1.393 . S
C660 H649 0.950 . S
C660 C658 1.391 . S
C660 C661 1.400 . S
C661 C655 1.491 . S
C661 C660 1.400 . S
C661 C662 1.398 . S
C662 H650 0.950 . S
C662 C661 1.398 . S
C662 C663 1.391 . S
C663 H651 0.950 . S
C663 C659 1.393 . S
C663 C662 1.391 . S
H664 C672 0.950 . S
H665 C677 0.950 . S
H666 C674 0.950 . S
H667 C676 0.950 . S
H668 C678 0.950 . S
H669 C680 0.950 . S
H670 C682 0.950 . S
H671 C683 0.950 . S
C672 H664 0.950 . S
C672 C673 1.386 . S
C672 C674 1.391 . S
C673 C672 1.386 . S
C673 C677 1.393 . S
C674 H666 0.950 . S
C674 C672 1.391 . S
C674 C675 1.400 . S
C675 C674 1.400 . S
C675 C676 1.398 . S
C675 C681 1.491 . S
C676 H667 0.950 . S
C676 C675 1.398 . S
C676 C677 1.391 . S
C677 H665 0.950 . S
C677 C673 1.393 . S
C677 C676 1.391 . S
C678 H668 0.950 . S
C678 C679 1.386 . S
C678 C680 1.391 . S
C679 C678 1.386 . S
C679 C683 1.393 . S
C680 H669 0.950 . S
C680 C678 1.391 . S
C680 C681 1.400 . S
C681 C675 1.491 . S
C681 C680 1.400 . S
C681 C682 1.398 . S
C682 H670 0.950 . S
C682 C681 1.398 . S
C682 C683 1.391 . S
C683 H671 0.950 . S
C683 C679 1.393 . S
C683 C682 1.391 . S
H684 C692 0.950 . S
H685 C697 0.950 . S
H686 C694 0.950 . S
H687 C696 0.950 . S
H688 C698 0.950 . S
H689 C700 0.950 . S
H690 C702 0.950 . S
H691 C703 0.950 . S
C692 H684 0.950 . S
C692 C693 1.386 . S
C692 C694 1.391 . S
C693 C692 1.386 . S
C693 C697 1.393 . S
C694 H686 0.950 . S
C694 C692 1.391 . S
C694 C695 1.400 . S
C695 C694 1.400 . S
C695 C696 1.398 . S
C695 C701 1.491 . S
C696 H687 0.950 . S
C696 C695 1.398 . S
C696 C697 1.391 . S
C697 H685 0.950 . S
C697 C693 1.393 . S
C697 C696 1.391 . S
C698 H688 0.950 . S
C698 C699 1.386 . S
C698 C700 1.391 . S
C699 C698 1.386 . S
C699 C703 1.393 . S
C700 H689 0.950 . S
C700 C698 1.391 . S
C700 C701 1.400 . S
C701 C695 1.491 . S
C701 C700 1.400 . S
C701 C702 1.398 . S
C702 H690 0.950 . S
C702 C701 1.398 . S
C702 C703 1.391 . S
C703 H691 0.950 . S
C703 C699 1.393 . S
C703 C702 1.391 . S
H704 C712 0.950 . S
H705 C717 0.950 . S
H706 C714 0.950 . S
H707 C716 0.950 . S
H708 C718 0.950 . S
H709 C720 0.950 . S
H710 C722 0.950 . S
H711 C723 0.950 . S
C712 H704 0.950 . S
C712 C713 1.386 . S
C712 C714 1.391 . S
C713 C712 1.386 . S
C713 C717 1.393 . S
C714 H706 0.950 . S
C714 C712 1.391 . S
C714 C715 1.400 . S
C715 C714 1.400 . S
C715 C716 1.398 . S
C715 C721 1.491 . S
C716 H707 0.950 . S
C716 C715 1.398 . S
C716 C717 1.391 . S
C717 H705 0.950 . S
C717 C713 1.393 . S
C717 C716 1.391 . S
C718 H708 0.950 . S
C718 C719 1.386 . S
C718 C720 1.391 . S
C719 C718 1.386 . S
C719 C723 1.393 . S
C720 H709 0.950 . S
C720 C718 1.391 . S
C720 C721 1.400 . S
C721 C715 1.491 . S
C721 C720 1.400 . S
C721 C722 1.398 . S
C722 H710 0.950 . S
C722 C721 1.398 . S
C722 C723 1.391 . S
C723 H711 0.950 . S
C723 C719 1.393 . S
C723 C722 1.391 . S
H724 C732 0.950 . S
H725 C737 0.950 . S
H726 C734 0.950 . S
H727 C736 0.950 . S
H728 C738 0.950 . S
H729 C740 0.950 . S
H730 C742 0.950 . S
H731 C743 0.950 . S
C732 H724 0.950 . S
C732 C733 1.386 . S
C732 C734 1.391 . S
C733 C732 1.386 . S
C733 C737 1.393 . S
C734 H726 0.950 . S
C734 C732 1.391 . S
C734 C735 1.400 . S
C735 C734 1.400 . S
C735 C736 1.398 . S
C735 C741 1.491 . S
C736 H727 0.950 . S
C736 C735 1.398 . S
C736 C737 1.391 . S
C737 H725 0.950 . S
C737 C733 1.393 . S
C737 C736 1.391 . S
C738 H728 0.950 . S
C738 C739 1.386 . S
C738 C740 1.391 . S
C739 C738 1.386 . S
C739 C743 1.393 . S
C740 H729 0.950 . S
C740 C738 1.391 . S
C740 C741 1.400 . S
C741 C735 1.491 . S
C741 C740 1.400 . S
C741 C742 1.398 . S
C742 H730 0.950 . S
C742 C741 1.398 . S
C742 C743 1.391 . S
C743 H731 0.950 . S
C743 C739 1.393 . S
C743 C742 1.391 . S
C433 C22 1.566 . S
C439 C198 1.566 . S
C453 C38 1.599 . S
C459 C91 1.599 . S
C473 C128 1.397 . S
C479 C75 1.394 . S
C493 C188 1.465 . S
C499 C144 1.464 . S
C513 C29 1.563 . S
C519 C304 1.569 . S
C533 C39 1.602 . S
C539 C250 1.598 . S
C553 C234 1.398 . S
C559 C135 1.397 . S
C573 C145 1.465 . S
C579 C294 1.466 . S
C593 C347 1.520 . S
C599 C303 1.520 . S
C613 C251 1.641 . S
C619 C357 1.640 . S
C633 C241 1.534 . S
C639 C410 1.536 . S
C653 C287 1.336 . S
C659 C400 1.337 . S
C673 C340 1.521 . S
C679 C197 1.524 . S
C693 C92 1.640 . S
C699 C356 1.638 . S
C713 C82 1.534 . S
C719 C409 1.533 . S
C733 C181 1.337 . S
C739 C393 1.334 . S
