# Generated by pormake.
# Topology kag, (6)-cn, num edge types: 1
# Building blocks:
#     Node 0, Type 0, BuildingBlock: KUMBUR_clean_sbu_1, # of connection points: 6
#     Node 1, Type 0, BuildingBlock: KUMBUR_clean_sbu_1, # of connection points: 6
#     Node 2, Type 0, BuildingBlock: KUMBUR_clean_sbu_1, # of connection points: 6
#     Edge 3, Type (0, 0), BuildingBlock: CIFDUS_clean_linker_0, # of connection points: 2
#     Edge 4, Type (0, 0), BuildingBlock: CIFDUS_clean_linker_0, # of connection points: 2
#     Edge 5, Type (0, 0), BuildingBlock: CIFDUS_clean_linker_0, # of connection points: 2
#     Edge 6, Type (0, 0), BuildingBlock: CIFDUS_clean_linker_0, # of connection points: 2
#     Edge 7, Type (0, 0), BuildingBlock: CIFDUS_clean_linker_0, # of connection points: 2
#     Edge 8, Type (0, 0), BuildingBlock: CIFDUS_clean_linker_0, # of connection points: 2
#     Edge 9, Type (0, 0), BuildingBlock: CIFDUS_clean_linker_0, # of connection points: 2
#     Edge 10, Type (0, 0), BuildingBlock: CIFDUS_clean_linker_0, # of connection points: 2
#     Edge 11, Type (0, 0), BuildingBlock: CIFDUS_clean_linker_0, # of connection points: 2
# Relax obj value: 0.111
# Max RMSD: 0.191
# Mean RMSD: 0.135
data_MOF--net-kag--node1-KUMBUR_clean_sbu_1--edge1-CIFDUS_clean_linker_0
_symmetry_space_group_name_H-M    P1
_symmetry_Int_Tables_number       1
_symmetry_cell_setting            triclinic
loop_
_symmetry_equiv_pos_as_xyz
'x, y, z'
_cell_length_a     26.704807
_cell_length_b     36.481962
_cell_length_c     12.886744
_cell_angle_alpha  107.54233
_cell_angle_beta   96.584235
_cell_angle_gamma 96.396122
loop_
_atom_site_label
_atom_site_type_symbol
_atom_site_fract_x
_atom_site_fract_y
_atom_site_fract_z
_atom_type_partial_charge
Tb0 Tb 0.07951 0.56998 0.10135 0.0
C1 C 0.11269 0.40506 0.79964 0.0
N2 N 0.07543 0.42688 0.78964 0.0
C3 C 0.07347 0.40704 0.59369 0.0
C4 C 0.13274 0.38407 0.70686 0.0
C5 C 1.05415 0.42669 0.68791 0.0
C6 C 0.11329 0.38591 0.60328 0.0
C7 C 0.16842 0.38062 0.91719 0.0
C8 C 0.13048 0.40341 0.90345 0.0
C9 C 0.1883 0.35953 0.82491 0.0
C10 C 0.17084 0.3615 0.7202 0.0
Tb11 Tb 1.04629 0.45629 0.94944 0.0
N12 N 0.11139 0.42509 0.9914 0.0
C13 C 0.18501 0.37959 0.0232 0.0
C14 C 0.12546 0.42256 0.09415 0.0
C15 C 0.16312 0.4004 0.11186 0.0
H16 H 1.02069 0.44005 0.67877 0.0
H17 H 0.17488 0.39907 0.19369 0.0
H18 H 1.04755 0.57993 0.34513 0.0
H19 H 1.02444 0.63857 0.79356 0.0
H20 H 0.10779 0.43761 0.16248 0.0
H21 H 0.21416 0.36244 0.03722 0.0
H22 H 0.07913 0.60385 0.88266 0.0
H23 H 1.05678 0.40742 0.51347 0.0
H24 H 0.21691 0.34137 0.83351 0.0
H25 H 0.1866 0.34506 0.64987 0.0
H26 H 0.98478 0.6112 0.4553 0.0
H27 H 0.12776 0.37029 0.53 0.0
H28 H 0.9521 0.66452 0.87859 0.0
N29 N 1.01992 0.59438 0.20371 0.0
C30 C 0.98931 0.61548 0.16154 0.0
C31 C 0.98522 0.61223 0.37234 0.0
C32 C 0.95403 0.63484 0.22245 0.0
C33 C 1.02016 0.59403 0.30942 0.0
C34 C 0.95157 0.63236 0.32817 0.0
N35 N 1.03301 0.60279 0.00751 0.0
C36 C 1.04522 0.61155 0.91637 0.0
C37 C 0.96521 0.64184 0.01475 0.0
C38 C 0.99521 0.619 0.05907 0.0
C39 C 0.97445 0.64732 0.91547 0.0
C40 C 1.01513 0.63259 0.86703 0.0
H41 H 0.92491 0.64681 0.37748 0.0
H42 H 0.89687 0.67261 0.22369 0.0
H43 H 0.90568 0.67797 0.04093 0.0
O44 O 0.11013 0.62881 0.14046 0.0
O45 O 1.00184 0.53906 0.10011 0.0
O46 O 0.98236 0.48958 0.93562 0.0
O47 O 0.13191 0.59639 0.24772 0.0
O48 O 0.09229 0.54853 0.92945 0.0
O49 O 1.03036 0.49483 0.85199 0.0
O50 O 1.00562 0.4187 0.01662 0.0
O51 O 0.13 0.48042 0.99717 0.0
O52 O 0.14582 0.54735 0.02978 0.0
O53 O 1.00138 0.4052 0.841 0.0
O54 O 1.0366 0.47728 0.1225 0.0
O55 O 0.09881 0.53044 0.19307 0.0
C56 C 0.96748 0.51491 0.01893 0.0
C57 C 0.1931 0.64803 0.2407 0.0
C58 C 0.25203 0.70097 0.22265 0.0
C59 C 0.29333 0.68493 0.25899 0.0
C60 C 0.23468 0.63284 0.28016 0.0
C61 C 0.28453 0.65128 0.28904 0.0
C62 C 0.20218 0.68254 0.21444 0.0
C63 C 0.06383 0.52248 0.84277 0.0
C64 C 0.13991 0.62929 0.22796 0.0
C65 C 0.92382 0.65716 0.17778 0.0
C66 C 0.92891 0.66024 0.07364 0.0
C67 C 0.16153 0.51306 0.0113 0.0
C68 C 0.93114 0.37963 0.90647 0.0
C69 C 0.8663 0.33165 0.92918 0.0
C70 C 0.82831 0.34826 0.88248 0.0
C71 C 0.89321 0.39585 0.85872 0.0
C72 C 0.91756 0.34776 0.94146 0.0
C73 C 0.84183 0.38028 0.84746 0.0
C74 C 0.06618 0.50334 0.20667 0.0
C75 C 0.9854 0.39452 0.92031 0.0
H76 H 0.33216 0.69873 0.26561 0.0
H77 H 0.22882 0.60668 0.30327 0.0
H78 H 0.31643 0.63941 0.31911 0.0
H79 H 0.17029 0.69478 0.18536 0.0
H80 H 0.78848 0.336 0.87104 0.0
H81 H 0.9034 0.4201 0.82955 0.0
H82 H 0.94714 0.3355 0.9789 0.0
H83 H 0.81251 0.39277 0.81055 0.0
Tb84 Tb 0.48185 0.98797 0.92302 0.0
C85 C 0.7025 0.96985 0.09339 0.0
N86 N 0.67467 0.9966 0.14625 0.0
C87 C 0.70009 0.98464 0.31619 0.0
C88 C 0.72989 0.94899 0.15012 0.0
C89 C 0.67349 1.00456 0.25635 0.0
C90 C 0.72832 0.95664 0.26282 0.0
C91 C 0.73031 0.93491 0.92347 0.0
C92 C 0.70195 0.96258 0.98101 0.0
C93 C 0.75778 0.91406 0.97964 0.0
C94 C 0.75746 0.92101 0.09258 0.0
Tb95 Tb 0.63165 0.02646 0.04038 0.0
N96 N 0.67391 0.98272 0.92862 0.0
C97 C 0.7308 0.92937 0.81147 0.0
C98 C 0.67743 0.97924 0.82112 0.0
C99 C 0.70488 0.95205 0.76061 0.0
H100 H 0.65298 0.02691 0.29845 0.0
H101 H 0.70678 0.94912 0.67508 0.0
H102 H 0.45711 0.96686 0.65211 0.0
H103 H 0.4033 0.0824 0.25555 0.0
H104 H 0.66103 0.99798 0.78122 0.0
H105 H 0.75221 0.90847 0.76437 0.0
H106 H 0.45607 0.03378 0.17602 0.0
H107 H 0.69899 0.99103 0.40349 0.0
H108 H 0.77959 0.8926 0.93655 0.0
H109 H 0.77874 0.90464 0.13467 0.0
H110 H 0.40597 0.98991 0.51884 0.0
H111 H 0.74882 0.94119 0.30934 0.0
H112 H 0.34889 0.10852 0.13512 0.0
N113 N 0.43359 1.00465 0.79197 0.0
C114 C 0.40308 0.03149 0.82999 0.0
C115 C 0.40501 1.00201 0.60617 0.0
C116 C 0.37232 0.04488 0.75703 0.0
C117 C 0.43463 0.9895 0.68175 0.0
C118 C 0.37379 0.02992 0.64396 0.0
N119 N 0.43468 0.03309 0.01074 0.0
C120 C 0.43396 0.04524 0.12166 0.0
C121 C 0.37187 0.07369 0.98527 0.0
C122 C 0.40317 0.04587 0.94279 0.0
C123 C 0.37247 0.08721 0.0992 0.0
C124 C 0.40333 0.07267 0.16747 0.0
H125 H 0.35079 0.03952 0.58523 0.0
H126 H 0.31742 0.08344 0.74443 0.0
H127 H 0.31681 0.1085 0.94414 0.0
O128 O 0.44859 0.946 0.98539 0.0
O129 O 0.50761 0.05007 0.94522 0.0
O130 O 0.57612 0.06672 0.08389 0.0
O131 O 0.42231 0.94524 0.81993 0.0
O132 O 0.51029 0.98867 0.09067 0.0
O133 O 0.5803 0.03721 0.16308 0.0
O134 O 0.67862 0.06793 0.99828 0.0
O135 O 0.60129 0.96591 0.02887 0.0
O136 O 0.54194 0.953 0.87819 0.0
O137 O 0.68928 0.06449 0.16312 0.0
O138 O 0.60144 0.03159 0.87962 0.0
O139 O 0.53487 0.9808 0.80341 0.0
C140 C 0.54393 0.07634 0.01481 0.0
C141 C 0.36421 0.91697 0.91074 0.0
C142 C 0.30692 0.86989 0.95818 0.0
C143 C 0.26692 0.89109 0.94621 0.0
C144 C 0.32427 0.938 0.89904 0.0
C145 C 0.27567 0.92492 0.91662 0.0
C146 C 0.35541 0.88326 0.94031 0.0
C147 C 0.54482 0.01103 0.17352 0.0
C148 C 0.41613 0.92909 0.89555 0.0
C149 C 0.34133 0.07277 0.79915 0.0
C150 C 0.34101 0.08707 0.91292 0.0
C151 C 0.56792 0.94066 0.94997 0.0
C152 C 0.76087 0.09013 0.09932 0.0
C153 C 0.83085 0.1345 0.077 0.0
C154 C 0.86548 0.11133 0.10485 0.0
C155 C 0.79548 0.06716 0.12733 0.0
C156 C 0.77863 0.12321 0.07341 0.0
C157 C 0.84772 0.07781 0.12976 0.0
C158 C 0.56729 0.00949 0.79558 0.0
C159 C 0.70581 0.08146 0.09582 0.0
H160 H 0.22896 0.88141 0.95896 0.0
H161 H 0.33064 0.96434 0.87694 0.0
H162 H 0.24472 0.94107 0.90754 0.0
H163 H 0.38702 0.86783 0.95168 0.0
H164 H 0.90609 0.11928 0.10851 0.0
H165 H 0.78228 0.04128 0.14715 0.0
H166 H 0.75116 0.14004 0.04901 0.0
H167 H 0.87455 0.06015 0.15144 0.0
Tb168 Tb 0.54347 0.44945 0.96884 0.0
C169 C 0.69961 0.59912 0.1583 0.0
N170 N 0.653 0.59152 0.18724 0.0
C171 C 0.68937 0.61719 0.3785 0.0
C172 C 0.74332 0.61483 0.23897 0.0
C173 C 0.6471 0.60122 0.29563 0.0
C174 C 0.73773 0.62377 0.35013 0.0
C175 C 0.75175 0.59526 0.01382 0.0
C176 C 0.70379 0.58935 0.04671 0.0
C177 C 0.79532 0.61064 0.094 0.0
C178 C 0.79119 0.62048 0.20622 0.0
Tb179 Tb 0.5878 0.56631 0.04319 0.0
N180 N 0.66118 0.57247 0.97071 0.0
C181 C 0.75464 0.58488 0.90118 0.0
C182 C 0.66335 0.56476 0.86113 0.0
C183 C 0.71011 0.57008 0.82456 0.0
H184 H 0.60984 0.59754 0.31906 0.0
H185 H 0.71164 0.56332 0.73734 0.0
H186 H 0.54349 0.40879 0.6986 0.0
H187 H 0.39974 0.43839 0.22447 0.0
H188 H 0.62919 0.55604 0.80191 0.0
H189 H 0.79087 0.58881 0.87266 0.0
H190 H 0.48593 0.45686 0.18688 0.0
H191 H 0.68458 0.62462 0.46429 0.0
H192 H 0.8324 0.61434 0.06946 0.0
H193 H 0.82528 0.63196 0.26708 0.0
H194 H 0.48017 0.37369 0.53399 0.0
H195 H 0.77041 0.63592 0.4146 0.0
H196 H 0.33051 0.40324 0.06952 0.0
N197 N 0.48922 0.41567 0.80906 0.0
C198 C 0.44053 0.40452 0.82173 0.0
C199 C 0.46832 0.38272 0.61427 0.0
C200 C 0.40339 0.38299 0.73037 0.0
C201 C 0.50397 0.40357 0.70761 0.0
C202 C 0.41766 0.37277 0.62547 0.0
N203 N 0.46479 0.43546 0.0131 0.0
C204 C 0.45572 0.44277 0.11904 0.0
C205 C 0.37871 0.40195 0.94466 0.0
C206 C 0.42825 0.41376 0.92735 0.0
C207 C 0.3682 0.41166 0.05278 0.0
C208 C 0.40707 0.43175 0.14042 0.0
H209 H 0.39026 0.35626 0.55313 0.0
H210 H 0.32447 0.35539 0.67765 0.0
H211 H 0.30307 0.37209 0.86544 0.0
O212 O 0.56872 0.41957 0.07774 0.0
O213 O 0.47991 0.48491 0.9776 0.0
O214 O 0.50474 0.55251 0.04178 0.0
O215 O 0.5467 0.38935 0.90577 0.0
O216 O 0.57569 0.48729 0.13695 0.0
O217 O 0.55295 0.54852 0.17009 0.0
O218 O 0.58406 0.60814 0.9608 0.0
O219 O 0.64377 0.52678 0.06864 0.0
O220 O 0.62128 0.46664 0.93606 0.0
O221 O 0.58122 0.62414 0.13344 0.0
O222 O 0.54958 0.53203 0.87511 0.0
O223 O 0.57232 0.47058 0.84116 0.0
C224 C 0.46938 0.521 0.00843 0.0
C225 C 0.6005 0.35982 0.00519 0.0
C226 C 0.62345 0.29797 0.02306 0.0
C227 C 0.67364 0.31053 0.01094 0.0
C228 C 0.65092 0.37132 0.99469 0.0
C229 C 0.68713 0.34676 0.99744 0.0
C230 C 0.58666 0.32293 0.01874 0.0
C231 C 0.55849 0.51741 0.19991 0.0
C232 C 0.56201 0.38588 1.00106 0.0
C233 C 0.35362 0.37175 0.74686 0.0
C234 C 0.3414 0.38112 0.85377 0.0
C235 C 0.65668 0.49602 0.99752 0.0
C236 C 0.5442 0.6631 0.03528 0.0
C237 C 0.52713 0.7262 0.01636 0.0
C238 C 0.47456 0.71265 0.00337 0.0
C239 C 0.49161 0.65069 0.02142 0.0
C240 C 0.56189 0.70101 0.03321 0.0
C241 C 0.45714 0.6754 0.00604 0.0
C242 C 0.55917 0.49938 0.80726 0.0
C243 C 0.58085 0.63643 0.04853 0.0
H244 H 0.70267 0.29208 0.0112 0.0
H245 H 0.66223 0.39927 0.9841 0.0
H246 H 0.72599 0.35595 0.98929 0.0
H247 H 0.54774 0.31409 0.02782 0.0
H248 H 0.44663 0.73111 0.99253 0.0
H249 H 0.4772 0.62184 0.02211 0.0
H250 H 0.60254 0.71052 0.04267 0.0
H251 H 0.41657 0.6656 0.99598 0.0
H252 H 0.9947 0.49644 0.65278 0.0
H253 H 0.14933 0.55344 0.78309 0.0
H254 H 0.16384 0.55354 0.59929 0.0
H255 H 0.13354 0.53512 0.39902 0.0
H256 H 0.98082 0.47356 0.26822 0.0
H257 H 0.96534 0.47634 0.45309 0.0
C258 C 1.0318 0.5084 0.64071 0.0
C259 C 0.07109 0.52423 0.73146 0.0
C260 C 1.04048 0.5071 0.53402 0.0
C261 C 0.11838 0.54089 0.71478 0.0
C262 C 0.12685 0.54074 0.60944 0.0
C263 C 0.09698 0.52221 0.41111 0.0
C264 C 1.05856 0.50397 0.31961 0.0
C265 C 0.08838 0.52351 0.51806 0.0
C266 C 1.01135 0.48737 0.33677 0.0
C267 C 1.00227 0.48918 0.44273 0.0
H268 H 0.57809 0.0644 0.37684 0.0
H269 H 0.50956 0.9448 0.21361 0.0
H270 H 0.51201 0.93331 0.39093 0.0
H271 H 0.53589 0.95656 0.59194 0.0
H272 H 0.60124 0.07666 0.7572 0.0
H273 H 0.59963 0.08826 0.57964 0.0
C274 C 0.56356 0.0359 0.3804 0.0
C275 C 0.5437 1.00553 0.28236 0.0
C276 C 0.56524 0.02941 0.48282 0.0
C277 C 0.52468 0.96878 0.288 0.0
C278 C 0.52642 0.96207 0.38929 0.0
C279 C 0.54902 0.98542 0.58917 0.0
C280 C 0.56791 0.01581 0.68756 0.0
C281 C 0.54684 0.99209 0.48714 0.0
C282 C 0.58649 0.05273 0.68248 0.0
C283 C 0.58528 0.05946 0.58106 0.0
H284 H 0.51791 0.54383 0.69169 0.0
H285 H 0.6069 0.45032 0.65911 0.0
H286 H 0.61305 0.44699 0.46961 0.0
H287 H 0.59549 0.47147 0.31374 0.0
H288 H 0.51047 0.56716 0.34675 0.0
H289 H 0.50134 0.56917 0.53517 0.0
C290 C 0.53832 0.52251 0.64288 0.0
C291 C 0.56062 0.49661 0.68952 0.0
C292 C 0.54309 0.52147 0.53403 0.0
C293 C 0.58768 0.46969 0.62504 0.0
C294 C 0.59186 0.46808 0.51666 0.0
C295 C 0.57488 0.4928 0.36185 0.0
C296 C 0.55382 0.51921 0.31563 0.0
C297 C 0.56992 0.49389 0.47035 0.0
C298 C 0.52744 0.54666 0.38007 0.0
C299 C 0.52201 0.54772 0.48787 0.0
H300 H 0.25017 0.56582 0.1166 0.0
H301 H 0.19958 0.45524 0.86608 0.0
H302 H 0.28719 0.4475 0.84288 0.0
H303 H 0.38002 0.47234 0.89118 0.0
H304 H 0.43234 0.58301 0.14197 0.0
H305 H 0.34403 0.5912 0.16355 0.0
C306 C 0.25823 0.53995 0.05736 0.0
C307 C 0.21704 0.51029 0.99655 0.0
C308 C 0.30997 0.53592 0.04323 0.0
C309 C 0.22938 0.47751 0.91876 0.0
C310 C 0.28009 0.47338 0.904 0.0
C311 C 0.37246 0.49784 0.95263 0.0
C312 C 0.41402 0.52647 0.01638 0.0
C313 C 0.32097 0.50218 0.96633 0.0
C314 C 0.40206 0.56023 0.09131 0.0
C315 C 0.35111 0.56489 0.10441 0.0
H316 H 0.79446 0.20318 0.13688 0.0
H317 H 0.90483 0.14562 0.95386 0.0
H318 H 0.92552 0.20187 0.89216 0.0
H319 H 0.90874 0.26575 0.88237 0.0
H320 H 0.79615 0.32191 0.05975 0.0
H321 H 0.77779 0.2667 0.12746 0.0
C322 C 0.82283 0.20275 0.08282 0.0
C323 C 0.84774 0.17005 0.04919 0.0
C324 C 0.83321 0.23447 0.04487 0.0
C325 C 0.88543 0.17051 0.98177 0.0
C326 C 0.89683 0.20245 0.94545 0.0
C327 C 0.88026 0.26584 0.93607 0.0
C328 C 0.8534 0.29753 0.96554 0.0
C329 C 0.87039 0.23429 0.97519 0.0
C330 C 0.81641 0.29738 0.03442 0.0
C331 C 0.80641 0.26611 0.074 0.0
H332 H 0.61536 0.90326 0.08203 0.0
H333 H 0.49544 0.88345 0.80752 0.0
H334 H 0.47323 0.81637 0.80303 0.0
H335 H 0.48645 0.76296 0.87722 0.0
H336 H 0.60702 0.781 0.14864 0.0
H337 H 0.63099 0.84824 0.15185 0.0
C338 C 0.58454 0.88424 0.02082 0.0
C339 C 0.55689 0.89895 0.94584 0.0
C340 C 0.5722 0.845 0.01741 0.0
C341 C 0.51726 0.87346 0.86697 0.0
C342 C 0.5045 0.83484 0.86407 0.0
C343 C 0.51794 0.78153 0.93752 0.0
C344 C 0.54455 0.76658 0.01313 0.0
C345 C 0.53145 0.82029 0.93911 0.0
C346 C 0.58593 0.79125 0.08882 0.0
C347 C 0.59946 0.82995 0.09122 0.0
H348 H 0.87991 0.4824 0.85903 0.0
H349 H 0.92546 0.54443 0.20525 0.0
H350 H 0.83648 0.54469 0.2298 0.0
H351 H 0.74377 0.52679 0.15517 0.0
H352 H 0.69694 0.46176 0.81152 0.0
H353 H 0.7865 0.46197 0.78553 0.0
C354 C 0.87059 0.49551 0.94031 0.0
C355 C 0.91088 0.51367 0.02994 0.0
C356 C 0.81811 0.49468 0.95497 0.0
C357 C 0.89659 0.53096 0.13368 0.0
C358 C 0.8451 0.53074 0.1483 0.0
C359 C 0.753 0.51261 0.0744 0.0
C360 C 0.71263 0.49449 0.98534 0.0
C361 C 0.80526 0.51271 0.05983 0.0
C362 C 0.72637 0.47587 0.88207 0.0
C363 C 0.778 0.4762 0.86691 0.0
H364 H 0.30751 0.71273 0.06967 0.0
H365 H 0.21285 0.76766 0.30127 0.0
H366 H 0.22022 0.82465 0.23803 0.0
H367 H 0.25331 0.85854 0.11602 0.0
H368 H 0.34456 0.80199 0.87781 0.0
H369 H 0.33899 0.74604 0.9445 0.0
C370 C 0.28908 0.73745 0.10684 0.0
C371 C 0.26008 0.73641 0.19028 0.0
C372 C 0.29254 0.76962 0.06836 0.0
C373 C 0.23549 0.76812 0.23696 0.0
C374 C 0.23956 0.80055 0.20064 0.0
C375 C 0.27128 0.83372 0.07757 0.0
C376 C 0.29942 0.83455 0.99242 0.0
C377 C 0.26763 0.80148 0.11572 0.0
C378 C 0.32317 0.80234 0.94454 0.0
C379 C 0.31995 0.77027 0.98241 0.0
H380 H 0.53997 0.23981 0.93044 0.0
H381 H 0.68049 0.26847 0.15943 0.0
H382 H 0.66798 0.20398 0.17979 0.0
H383 H 0.61933 0.13793 0.12774 0.0
H384 H 0.47908 0.10828 0.89754 0.0
H385 H 0.48898 0.17398 0.88425 0.0
C386 C 0.56745 0.23217 0.98606 0.0
C387 C 0.61145 0.25932 0.04236 0.0
C388 C 0.56014 0.19446 0.99739 0.0
C389 C 0.64669 0.24834 0.11338 0.0
C390 C 0.63949 0.21132 0.12556 0.0
C391 C 0.59053 0.14585 0.07553 0.0
C392 C 0.54835 0.11774 0.01423 0.0
C393 C 0.59672 0.18388 0.06708 0.0
C394 C 0.51191 0.12893 0.94629 0.0
C395 C 0.51759 0.16671 0.93831 0.0
loop_
_geom_bond_atom_site_label_1
_geom_bond_atom_site_label_2
_geom_bond_distance
_geom_bond_site_symmetry_2
_ccdc_geom_bond_type
Tb0 N29 2.617 1_455 S
Tb0 N35 2.572 1_455 S
Tb0 O44 2.465 1_554 S
Tb0 O45 2.387 1_455 S
Tb0 O47 2.428 . S
Tb0 O48 2.308 1_454 S
Tb0 O52 2.349 . S
Tb0 O55 2.393 . S
Tb0 C64 2.802 . S
C1 N2 1.379 . S
C1 C4 1.416 . S
C1 C8 1.424 . S
N2 C1 1.379 . S
N2 C5 1.334 . S
N2 Tb11 2.617 1_455 S
C3 C5 1.390 . S
C3 C6 1.339 . S
C3 H23 0.930 . S
C4 C1 1.416 . S
C4 C6 1.416 . S
C4 C10 1.448 . S
C5 N2 1.334 . S
C5 C3 1.390 . S
C5 H16 0.930 1_455 S
C6 C3 1.339 . S
C6 C4 1.416 . S
C6 H27 0.930 . S
C7 C8 1.413 . S
C7 C9 1.427 . S
C7 C13 1.416 1_556 S
C8 C1 1.424 . S
C8 C7 1.413 . S
C8 N12 1.361 . S
C9 C7 1.427 . S
C9 C10 1.328 . S
C9 H24 0.929 . S
C10 C4 1.448 . S
C10 C9 1.328 . S
C10 H25 0.930 . S
Tb11 N2 2.617 1_655 S
Tb11 N12 2.572 1_655 S
Tb11 O46 2.349 . S
Tb11 O49 2.393 . S
Tb11 O50 2.465 1_556 S
Tb11 O51 2.387 1_655 S
Tb11 O53 2.428 . S
Tb11 O54 2.308 1_656 S
Tb11 C75 2.802 . S
N12 C8 1.361 . S
N12 Tb11 2.572 1_455 S
N12 C14 1.340 1_556 S
C13 C7 1.416 1_554 S
C13 C15 1.332 . S
C13 H21 0.931 . S
C14 N12 1.340 1_554 S
C14 C15 1.407 . S
C14 H20 0.930 . S
C15 C13 1.332 . S
C15 C14 1.407 . S
C15 H17 0.929 . S
H16 C5 0.930 1_655 S
H17 C15 0.929 . S
H18 C33 0.930 . S
H19 C40 0.929 . S
H20 C14 0.930 . S
H21 C13 0.931 . S
H22 C36 0.930 . S
H23 C3 0.930 . S
H24 C9 0.929 . S
H25 C10 0.930 . S
H26 C31 0.930 . S
H27 C6 0.930 . S
H28 C39 0.931 . S
N29 Tb0 2.617 1_655 S
N29 C30 1.379 . S
N29 C33 1.334 1_655 S
C30 N29 1.379 . S
C30 C32 1.416 . S
C30 C38 1.424 . S
C31 H26 0.930 . S
C31 C33 1.390 1_655 S
C31 C34 1.339 . S
C32 C30 1.416 . S
C32 C34 1.416 . S
C32 C65 1.448 . S
C33 H18 0.930 . S
C33 N29 1.334 1_455 S
C33 C31 1.390 1_455 S
C34 C31 1.339 . S
C34 C32 1.416 . S
C34 H41 0.930 . S
N35 Tb0 2.572 1_655 S
N35 C36 1.340 1_554 S
N35 C38 1.361 . S
C36 H22 0.930 . S
C36 N35 1.340 1_556 S
C36 C40 1.407 . S
C37 C38 1.413 . S
C37 C39 1.416 1_554 S
C37 C66 1.427 . S
C38 C30 1.424 . S
C38 N35 1.361 . S
C38 C37 1.413 . S
C39 H28 0.931 . S
C39 C37 1.416 1_556 S
C39 C40 1.332 . S
C40 H19 0.929 . S
C40 C36 1.407 . S
C40 C39 1.332 . S
H41 C34 0.930 . S
H42 C65 0.930 . S
H43 C66 0.929 . S
O44 Tb0 2.465 1_556 S
O44 C64 1.264 1_556 S
O45 Tb0 2.387 1_655 S
O45 C56 1.264 1_554 S
O46 Tb11 2.349 . S
O46 C56 1.243 . S
O47 Tb0 2.428 . S
O47 C64 1.256 . S
O48 Tb0 2.308 1_656 S
O48 C63 1.266 . S
O49 Tb11 2.393 . S
O49 C63 1.248 . S
O50 Tb11 2.465 1_554 S
O50 C75 1.264 1_554 S
O51 Tb11 2.387 1_455 S
O51 C67 1.264 1_556 S
O52 Tb0 2.349 . S
O52 C67 1.243 . S
O53 Tb11 2.428 . S
O53 C75 1.256 . S
O54 Tb11 2.308 1_454 S
O54 C74 1.266 . S
O55 Tb0 2.393 . S
O55 C74 1.248 . S
C56 O45 1.264 1_556 S
C56 O46 1.243 . S
C57 C60 1.399 . S
C57 C62 1.383 . S
C57 C64 1.496 . S
C58 C59 1.399 . S
C58 C62 1.389 . S
C59 C58 1.399 . S
C59 C61 1.380 . S
C59 H76 0.929 . S
C60 C57 1.399 . S
C60 C61 1.392 . S
C60 H77 0.929 . S
C61 C59 1.380 . S
C61 C60 1.392 . S
C61 H78 0.929 . S
C62 C57 1.383 . S
C62 C58 1.389 . S
C62 H79 0.931 1_554 S
C63 O48 1.266 . S
C63 O49 1.248 . S
C64 Tb0 2.802 . S
C64 O44 1.264 1_554 S
C64 O47 1.256 . S
C64 C57 1.496 . S
C65 C32 1.448 . S
C65 H42 0.930 . S
C65 C66 1.328 . S
C66 C37 1.427 . S
C66 H43 0.929 . S
C66 C65 1.328 . S
C67 O51 1.264 1_554 S
C67 O52 1.243 . S
C68 C71 1.399 . S
C68 C72 1.383 . S
C68 C75 1.496 . S
C69 C70 1.399 . S
C69 C72 1.389 . S
C70 C69 1.399 . S
C70 C73 1.380 . S
C70 H80 0.929 . S
C71 C68 1.399 . S
C71 C73 1.392 . S
C71 H81 0.929 . S
C72 C68 1.383 . S
C72 C69 1.389 . S
C72 H82 0.931 1_556 S
C73 C70 1.380 . S
C73 C71 1.392 . S
C73 H83 0.929 . S
C74 O54 1.266 . S
C74 O55 1.248 . S
C75 Tb11 2.802 . S
C75 O50 1.264 1_556 S
C75 O53 1.256 . S
C75 C68 1.496 . S
H76 C59 0.929 . S
H77 C60 0.929 . S
H78 C61 0.929 . S
H79 C62 0.931 1_556 S
H80 C70 0.929 . S
H81 C71 0.929 . S
H82 C72 0.931 1_554 S
H83 C73 0.929 . S
Tb84 N113 2.617 . S
Tb84 N119 2.572 1_566 S
Tb84 O128 2.465 1_556 S
Tb84 O129 2.387 1_565 S
Tb84 O131 2.428 . S
Tb84 O132 2.308 1_566 S
Tb84 O136 2.349 . S
Tb84 O139 2.393 . S
Tb84 C148 2.802 . S
C85 N86 1.379 1_565 S
C85 C88 1.416 . S
C85 C92 1.424 . S
N86 C85 1.379 1_545 S
N86 C89 1.334 . S
N86 Tb95 2.617 . S
C87 C89 1.390 . S
C87 C90 1.339 1_545 S
C87 H107 0.930 . S
C88 C85 1.416 . S
C88 C90 1.416 . S
C88 C94 1.448 . S
C89 N86 1.334 . S
C89 C87 1.390 . S
C89 H100 0.930 . S
C90 C87 1.339 1_565 S
C90 C88 1.416 . S
C90 H111 0.930 . S
C91 C92 1.413 1_556 S
C91 C93 1.427 1_556 S
C91 C97 1.416 . S
C92 C85 1.424 . S
C92 C91 1.413 1_554 S
C92 N96 1.361 1_554 S
C93 C91 1.427 1_554 S
C93 C94 1.328 . S
C93 H108 0.929 . S
C94 C88 1.448 . S
C94 C93 1.328 . S
C94 H109 0.930 . S
Tb95 N86 2.617 . S
Tb95 N96 2.572 1_544 S
Tb95 O130 2.349 . S
Tb95 O133 2.393 . S
Tb95 O134 2.465 1_554 S
Tb95 O135 2.387 1_545 S
Tb95 O137 2.428 . S
Tb95 O138 2.308 1_544 S
Tb95 C159 2.802 . S
N96 C92 1.361 1_556 S
N96 Tb95 2.572 1_566 S
N96 C98 1.340 . S
C97 C91 1.416 . S
C97 C99 1.332 . S
C97 H105 0.931 . S
C98 N96 1.340 . S
C98 C99 1.407 . S
C98 H104 0.930 . S
C99 C97 1.332 . S
C99 C98 1.407 . S
C99 H101 0.929 . S
H100 C89 0.930 . S
H101 C99 0.929 . S
H102 C117 0.930 . S
H103 C124 0.929 . S
H104 C98 0.930 . S
H105 C97 0.931 . S
H106 C120 0.930 . S
H107 C87 0.930 . S
H108 C93 0.929 . S
H109 C94 0.930 . S
H110 C115 0.930 . S
H111 C90 0.930 . S
H112 C123 0.931 . S
N113 Tb84 2.617 . S
N113 C114 1.379 1_565 S
N113 C117 1.334 . S
C114 N113 1.379 1_545 S
C114 C116 1.416 . S
C114 C122 1.424 . S
C115 H110 0.930 . S
C115 C117 1.390 . S
C115 C118 1.339 1_565 S
C116 C114 1.416 . S
C116 C118 1.416 . S
C116 C149 1.448 . S
C117 H102 0.930 . S
C117 N113 1.334 . S
C117 C115 1.390 . S
C118 C115 1.339 1_545 S
C118 C116 1.416 . S
C118 H125 0.930 . S
N119 Tb84 2.572 1_544 S
N119 C120 1.340 . S
N119 C122 1.361 1_554 S
C120 H106 0.930 . S
C120 N119 1.340 . S
C120 C124 1.407 . S
C121 C122 1.413 1_554 S
C121 C123 1.416 . S
C121 C150 1.427 1_554 S
C122 C114 1.424 . S
C122 N119 1.361 1_556 S
C122 C121 1.413 1_556 S
C123 H112 0.931 . S
C123 C121 1.416 . S
C123 C124 1.332 . S
C124 H103 0.929 . S
C124 C120 1.407 . S
C124 C123 1.332 . S
H125 C118 0.930 . S
H126 C149 0.930 . S
H127 C150 0.929 . S
O128 Tb84 2.465 1_554 S
O128 C148 1.264 1_554 S
O129 Tb84 2.387 1_545 S
O129 C140 1.264 1_556 S
O130 Tb95 2.349 . S
O130 C140 1.243 . S
O131 Tb84 2.428 . S
O131 C148 1.256 . S
O132 Tb84 2.308 1_544 S
O132 C147 1.266 . S
O133 Tb95 2.393 . S
O133 C147 1.248 . S
O134 Tb95 2.465 1_556 S
O134 C159 1.264 1_556 S
O135 Tb95 2.387 1_565 S
O135 C151 1.264 1_554 S
O136 Tb84 2.349 . S
O136 C151 1.243 . S
O137 Tb95 2.428 . S
O137 C159 1.256 . S
O138 Tb95 2.308 1_566 S
O138 C158 1.266 . S
O139 Tb84 2.393 . S
O139 C158 1.248 . S
C140 O129 1.264 1_554 S
C140 O130 1.243 . S
C141 C144 1.399 . S
C141 C146 1.383 1_556 S
C141 C148 1.496 . S
C142 C143 1.399 1_554 S
C142 C146 1.389 . S
C143 C142 1.399 1_556 S
C143 C145 1.380 . S
C143 H160 0.929 . S
C144 C141 1.399 . S
C144 C145 1.392 . S
C144 H161 0.929 . S
C145 C143 1.380 . S
C145 C144 1.392 . S
C145 H162 0.929 . S
C146 C141 1.383 1_554 S
C146 C142 1.389 . S
C146 H163 0.931 . S
C147 O132 1.266 . S
C147 O133 1.248 . S
C148 Tb84 2.802 . S
C148 O128 1.264 1_556 S
C148 O131 1.256 . S
C148 C141 1.496 . S
C149 C116 1.448 . S
C149 H126 0.930 . S
C149 C150 1.328 . S
C150 C121 1.427 1_556 S
C150 H127 0.929 . S
C150 C149 1.328 . S
C151 O135 1.264 1_556 S
C151 O136 1.243 . S
C152 C155 1.399 . S
C152 C156 1.383 1_554 S
C152 C159 1.496 . S
C153 C154 1.399 1_556 S
C153 C156 1.389 . S
C154 C153 1.399 1_554 S
C154 C157 1.380 . S
C154 H164 0.929 . S
C155 C152 1.399 . S
C155 C157 1.392 . S
C155 H165 0.929 . S
C156 C152 1.383 1_556 S
C156 C153 1.389 . S
C156 H166 0.931 . S
C157 C154 1.380 . S
C157 C155 1.392 . S
C157 H167 0.929 . S
C158 O138 1.266 . S
C158 O139 1.248 . S
C159 Tb95 2.802 . S
C159 O134 1.264 1_554 S
C159 O137 1.256 . S
C159 C152 1.496 . S
H160 C143 0.929 . S
H161 C144 0.929 . S
H162 C145 0.929 . S
H163 C146 0.931 . S
H164 C154 0.929 . S
H165 C155 0.929 . S
H166 C156 0.931 . S
H167 C157 0.929 . S
Tb168 N197 2.617 . S
Tb168 N203 2.572 . S
Tb168 O212 2.465 1_556 S
Tb168 O213 2.387 . S
Tb168 O215 2.428 . S
Tb168 O216 2.308 1_556 S
Tb168 O220 2.349 . S
Tb168 O223 2.393 . S
Tb168 C232 2.802 . S
C169 N170 1.379 . S
C169 C172 1.416 . S
C169 C176 1.424 . S
N170 C169 1.379 . S
N170 C173 1.334 . S
N170 Tb179 2.617 . S
C171 C173 1.390 . S
C171 C174 1.339 . S
C171 H191 0.930 . S
C172 C169 1.416 . S
C172 C174 1.416 . S
C172 C178 1.448 . S
C173 N170 1.334 . S
C173 C171 1.390 . S
C173 H184 0.930 . S
C174 C171 1.339 . S
C174 C172 1.416 . S
C174 H195 0.930 . S
C175 C176 1.413 . S
C175 C177 1.427 . S
C175 C181 1.413 1_554 S
C176 C169 1.424 . S
C176 C175 1.413 . S
C176 N180 1.361 . S
C177 C175 1.427 . S
C177 C178 1.328 . S
C177 H192 0.929 . S
C178 C172 1.448 . S
C178 C177 1.328 . S
C178 H193 0.930 . S
Tb179 N170 2.617 . S
Tb179 N180 2.572 . S
Tb179 O214 2.349 . S
Tb179 O217 2.393 . S
Tb179 O218 2.465 1_554 S
Tb179 O219 2.387 . S
Tb179 O221 2.428 . S
Tb179 O222 2.308 1_554 S
Tb179 C243 2.802 . S
N180 C176 1.361 . S
N180 Tb179 2.572 . S
N180 C182 1.340 1_554 S
C181 C175 1.413 1_556 S
C181 C183 1.334 . S
C181 H189 0.932 . S
C182 N180 1.340 1_556 S
C182 C183 1.407 . S
C182 H188 0.930 . S
C183 C181 1.334 . S
C183 C182 1.407 . S
C183 H185 0.929 . S
H184 C173 0.930 . S
H185 C183 0.929 . S
H186 C201 0.930 . S
H187 C208 0.929 . S
H188 C182 0.930 . S
H189 C181 0.932 . S
H190 C204 0.930 . S
H191 C171 0.930 . S
H192 C177 0.929 . S
H193 C178 0.930 . S
H194 C199 0.930 . S
H195 C174 0.930 . S
H196 C207 0.931 . S
N197 Tb168 2.617 . S
N197 C198 1.379 . S
N197 C201 1.334 . S
C198 N197 1.379 . S
C198 C200 1.416 . S
C198 C206 1.424 . S
C199 H194 0.930 . S
C199 C201 1.390 . S
C199 C202 1.339 . S
C200 C198 1.416 . S
C200 C202 1.416 . S
C200 C233 1.448 . S
C201 H186 0.930 . S
C201 N197 1.334 . S
C201 C199 1.390 . S
C202 C199 1.339 . S
C202 C200 1.416 . S
C202 H209 0.930 . S
N203 Tb168 2.572 . S
N203 C204 1.340 1_556 S
N203 C206 1.361 . S
C204 H190 0.930 . S
C204 N203 1.340 1_554 S
C204 C208 1.407 . S
C205 C206 1.413 . S
C205 C207 1.416 1_556 S
C205 C234 1.427 . S
C206 C198 1.424 . S
C206 N203 1.361 . S
C206 C205 1.413 . S
C207 H196 0.931 . S
C207 C205 1.416 1_554 S
C207 C208 1.332 . S
C208 H187 0.929 . S
C208 C204 1.407 . S
C208 C207 1.332 . S
H209 C202 0.930 . S
H210 C233 0.930 . S
H211 C234 0.929 . S
O212 Tb168 2.465 1_554 S
O212 C232 1.264 1_554 S
O213 Tb168 2.387 . S
O213 C224 1.264 . S
O214 Tb179 2.349 . S
O214 C224 1.243 1_554 S
O215 Tb168 2.428 . S
O215 C232 1.256 . S
O216 Tb168 2.308 1_554 S
O216 C231 1.266 . S
O217 Tb179 2.393 . S
O217 C231 1.248 . S
O218 Tb179 2.465 1_556 S
O218 C243 1.264 1_556 S
O219 Tb179 2.387 . S
O219 C235 1.264 . S
O220 Tb168 2.349 . S
O220 C235 1.243 1_556 S
O221 Tb179 2.428 . S
O221 C243 1.256 . S
O222 Tb179 2.308 1_556 S
O222 C242 1.266 . S
O223 Tb168 2.393 . S
O223 C242 1.248 . S
C224 O213 1.264 . S
C224 O214 1.243 1_556 S
C225 C228 1.399 . S
C225 C230 1.373 1_556 S
C225 C232 1.496 . S
C226 C227 1.399 . S
C226 C230 1.392 1_556 S
C227 C226 1.399 . S
C227 C229 1.380 . S
C227 H244 0.929 . S
C228 C225 1.399 . S
C228 C229 1.392 . S
C228 H245 0.929 . S
C229 C227 1.380 . S
C229 C228 1.392 . S
C229 H246 0.929 . S
C230 C225 1.373 1_554 S
C230 C226 1.392 1_554 S
C230 H247 0.939 . S
C231 O216 1.266 . S
C231 O217 1.248 . S
C232 Tb168 2.802 . S
C232 O212 1.264 1_556 S
C232 O215 1.256 . S
C232 C225 1.496 . S
C233 C200 1.448 . S
C233 H210 0.930 . S
C233 C234 1.328 . S
C234 C205 1.427 . S
C234 H211 0.929 . S
C234 C233 1.328 . S
C235 O219 1.264 . S
C235 O220 1.243 1_554 S
C236 C239 1.399 . S
C236 C240 1.382 . S
C236 C243 1.496 . S
C237 C238 1.399 . S
C237 C240 1.390 . S
C238 C237 1.399 . S
C238 C241 1.380 . S
C238 H248 0.929 . S
C239 C236 1.399 . S
C239 C241 1.392 . S
C239 H249 0.929 . S
C240 C236 1.382 . S
C240 C237 1.390 . S
C240 H250 0.932 1_554 S
C241 C238 1.380 . S
C241 C239 1.392 . S
C241 H251 0.929 . S
C242 O222 1.266 . S
C242 O223 1.248 . S
C243 Tb179 2.802 . S
C243 O218 1.264 1_554 S
C243 O221 1.256 . S
C243 C236 1.496 . S
H244 C227 0.929 . S
H245 C228 0.929 . S
H246 C229 0.929 . S
H247 C230 0.939 . S
H248 C238 0.929 . S
H249 C239 0.929 . S
H250 C240 0.932 1_556 S
H251 C241 0.929 . S
H252 C258 0.930 . S
H253 C261 0.930 . S
H254 C262 0.930 . S
H255 C263 0.930 . S
H256 C266 0.930 . S
H257 C267 0.930 . S
C258 H252 0.930 . S
C258 C259 1.355 1_655 S
C258 C260 1.415 . S
C259 C258 1.355 1_455 S
C259 C261 1.419 . S
C260 C258 1.415 . S
C260 C265 1.425 1_655 S
C260 C267 1.409 . S
C261 H253 0.930 . S
C261 C259 1.419 . S
C261 C262 1.362 . S
C262 H254 0.930 . S
C262 C261 1.362 . S
C262 C265 1.409 . S
C263 H255 0.930 . S
C263 C264 1.354 1_455 S
C263 C265 1.415 . S
C264 C263 1.354 1_655 S
C264 C266 1.420 . S
C265 C260 1.425 1_455 S
C265 C262 1.409 . S
C265 C263 1.415 . S
C266 H256 0.930 . S
C266 C264 1.420 . S
C266 C267 1.362 . S
C267 H257 0.930 . S
C267 C260 1.409 . S
C267 C266 1.362 . S
H268 C274 0.930 . S
H269 C277 0.930 . S
H270 C278 0.930 . S
H271 C279 0.930 . S
H272 C282 0.930 . S
H273 C283 0.930 . S
C274 H268 0.930 . S
C274 C275 1.355 . S
C274 C276 1.415 . S
C275 C274 1.355 . S
C275 C277 1.419 1_545 S
C276 C274 1.415 . S
C276 C281 1.425 1_545 S
C276 C283 1.409 . S
C277 H269 0.930 . S
C277 C275 1.419 1_565 S
C277 C278 1.362 . S
C278 H270 0.930 . S
C278 C277 1.362 . S
C278 C281 1.409 . S
C279 H271 0.930 . S
C279 C280 1.355 . S
C279 C281 1.415 . S
C280 C279 1.355 . S
C280 C282 1.419 1_565 S
C281 C276 1.425 1_565 S
C281 C278 1.409 . S
C281 C279 1.415 . S
C282 H272 0.930 . S
C282 C280 1.419 1_545 S
C282 C283 1.362 . S
C283 H273 0.930 . S
C283 C276 1.409 . S
C283 C282 1.362 . S
H284 C290 0.930 . S
H285 C293 0.930 . S
H286 C294 0.930 . S
H287 C295 0.930 . S
H288 C298 0.930 . S
H289 C299 0.930 . S
C290 H284 0.930 . S
C290 C291 1.355 . S
C290 C292 1.415 . S
C291 C290 1.355 . S
C291 C293 1.419 . S
C292 C290 1.415 . S
C292 C297 1.425 . S
C292 C299 1.409 . S
C293 H285 0.930 . S
C293 C291 1.419 . S
C293 C294 1.362 . S
C294 H286 0.930 . S
C294 C293 1.362 . S
C294 C297 1.409 . S
C295 H287 0.930 . S
C295 C296 1.355 . S
C295 C297 1.415 . S
C296 C295 1.355 . S
C296 C298 1.419 . S
C297 C292 1.425 . S
C297 C294 1.409 . S
C297 C295 1.415 . S
C298 H288 0.930 . S
C298 C296 1.419 . S
C298 C299 1.362 . S
C299 H289 0.930 . S
C299 C292 1.409 . S
C299 C298 1.362 . S
H300 C306 0.930 . S
H301 C309 0.930 . S
H302 C310 0.930 . S
H303 C311 0.930 . S
H304 C314 0.930 . S
H305 C315 0.930 . S
C306 H300 0.930 . S
C306 C307 1.355 1_556 S
C306 C308 1.415 . S
C307 C306 1.355 1_554 S
C307 C309 1.419 . S
C308 C306 1.415 . S
C308 C313 1.425 1_556 S
C308 C315 1.409 . S
C309 H301 0.930 . S
C309 C307 1.419 . S
C309 C310 1.362 . S
C310 H302 0.930 . S
C310 C309 1.362 . S
C310 C313 1.409 . S
C311 H303 0.930 . S
C311 C312 1.355 1_554 S
C311 C313 1.415 . S
C312 C311 1.355 1_556 S
C312 C314 1.419 . S
C313 C308 1.425 1_554 S
C313 C310 1.409 . S
C313 C311 1.415 . S
C314 H304 0.930 . S
C314 C312 1.419 . S
C314 C315 1.362 . S
C315 H305 0.930 . S
C315 C308 1.409 . S
C315 C314 1.362 . S
H316 C322 0.930 . S
H317 C325 0.930 . S
H318 C326 0.930 . S
H319 C327 0.930 . S
H320 C330 0.930 . S
H321 C331 0.930 . S
C322 H316 0.930 . S
C322 C323 1.355 1_554 S
C322 C324 1.415 . S
C323 C322 1.355 1_556 S
C323 C325 1.419 . S
C324 C322 1.415 . S
C324 C329 1.425 1_554 S
C324 C331 1.409 . S
C325 H317 0.930 . S
C325 C323 1.419 . S
C325 C326 1.362 . S
C326 H318 0.930 . S
C326 C325 1.362 . S
C326 C329 1.409 . S
C327 H319 0.930 . S
C327 C328 1.355 1_556 S
C327 C329 1.415 . S
C328 C327 1.355 1_554 S
C328 C330 1.419 . S
C329 C324 1.425 1_556 S
C329 C326 1.409 . S
C329 C327 1.415 . S
C330 H320 0.930 . S
C330 C328 1.419 . S
C330 C331 1.362 . S
C331 H321 0.930 . S
C331 C324 1.409 . S
C331 C330 1.362 . S
H332 C338 0.930 . S
H333 C341 0.930 . S
H334 C342 0.930 . S
H335 C343 0.930 . S
H336 C346 0.930 . S
H337 C347 0.930 . S
C338 H332 0.930 . S
C338 C339 1.355 1_554 S
C338 C340 1.415 1_554 S
C339 C338 1.355 1_556 S
C339 C341 1.419 . S
C340 C338 1.415 1_556 S
C340 C345 1.425 . S
C340 C347 1.409 1_556 S
C341 H333 0.930 . S
C341 C339 1.419 . S
C341 C342 1.362 . S
C342 H334 0.930 . S
C342 C341 1.362 . S
C342 C345 1.409 . S
C343 H335 0.930 . S
C343 C344 1.355 . S
C343 C345 1.415 . S
C344 C343 1.355 . S
C344 C346 1.419 1_556 S
C345 C340 1.425 . S
C345 C342 1.409 . S
C345 C343 1.415 . S
C346 H336 0.930 . S
C346 C344 1.419 1_554 S
C346 C347 1.362 . S
C347 H337 0.930 . S
C347 C340 1.409 1_554 S
C347 C346 1.362 . S
H348 C354 0.930 . S
H349 C357 0.930 . S
H350 C358 0.930 . S
H351 C359 0.930 . S
H352 C362 0.930 . S
H353 C363 0.930 . S
C354 H348 0.930 . S
C354 C355 1.355 1_554 S
C354 C356 1.415 . S
C355 C354 1.355 1_556 S
C355 C357 1.419 . S
C356 C354 1.415 . S
C356 C361 1.425 1_554 S
C356 C363 1.409 . S
C357 H349 0.930 . S
C357 C355 1.419 . S
C357 C358 1.362 . S
C358 H350 0.930 . S
C358 C357 1.362 . S
C358 C361 1.409 . S
C359 H351 0.930 . S
C359 C360 1.355 1_556 S
C359 C361 1.415 . S
C360 C359 1.355 1_554 S
C360 C362 1.419 . S
C361 C356 1.425 1_556 S
C361 C358 1.409 . S
C361 C359 1.415 . S
C362 H352 0.930 . S
C362 C360 1.419 . S
C362 C363 1.362 . S
C363 H353 0.930 . S
C363 C356 1.409 . S
C363 C362 1.362 . S
H364 C370 0.930 . S
H365 C373 0.930 . S
H366 C374 0.930 . S
H367 C375 0.930 . S
H368 C378 0.930 . S
H369 C379 0.930 . S
C370 H364 0.930 . S
C370 C371 1.355 . S
C370 C372 1.415 . S
C371 C370 1.355 . S
C371 C373 1.419 1_556 S
C372 C370 1.415 . S
C372 C377 1.425 1_556 S
C372 C379 1.409 . S
C373 H365 0.930 . S
C373 C371 1.419 1_554 S
C373 C374 1.362 . S
C374 H366 0.930 . S
C374 C373 1.362 . S
C374 C377 1.409 . S
C375 H367 0.930 . S
C375 C376 1.355 . S
C375 C377 1.415 . S
C376 C375 1.355 . S
C376 C378 1.419 1_554 S
C377 C372 1.425 1_554 S
C377 C374 1.409 . S
C377 C375 1.415 . S
C378 H368 0.930 . S
C378 C376 1.419 1_556 S
C378 C379 1.362 . S
C379 H369 0.930 . S
C379 C372 1.409 . S
C379 C378 1.362 . S
H380 C386 0.930 . S
H381 C389 0.930 . S
H382 C390 0.930 . S
H383 C391 0.930 . S
H384 C394 0.930 . S
H385 C395 0.930 . S
C386 H380 0.930 . S
C386 C387 1.355 1_556 S
C386 C388 1.415 1_556 S
C387 C386 1.355 1_554 S
C387 C389 1.419 . S
C388 C386 1.415 1_554 S
C388 C393 1.425 . S
C388 C395 1.409 1_554 S
C389 H381 0.930 . S
C389 C387 1.419 . S
C389 C390 1.362 . S
C390 H382 0.930 . S
C390 C389 1.362 . S
C390 C393 1.409 . S
C391 H383 0.930 . S
C391 C392 1.355 . S
C391 C393 1.415 . S
C392 C391 1.355 . S
C392 C394 1.419 1_554 S
C393 C388 1.425 . S
C393 C390 1.409 . S
C393 C391 1.415 . S
C394 H384 0.930 . S
C394 C392 1.419 1_556 S
C394 C395 1.362 . S
C395 H385 0.930 . S
C395 C388 1.409 1_556 S
C395 C394 1.362 . S
C259 C63 1.502 1_455 S
C264 C74 1.502 1_655 S
C275 C147 1.505 . S
C280 C158 1.505 . S
C291 C242 1.439 . S
C296 C231 1.439 . S
C307 C67 2.335 . S
C312 C224 2.348 . S
C323 C153 0.918 . S
C328 C69 0.919 1_554 S
C339 C151 1.676 . S
C344 C237 1.498 1_556 S
C355 C56 2.337 . S
C360 C235 2.345 . S
C371 C58 0.700 1_556 S
C376 C142 0.694 . S
C387 C226 1.605 1_554 S
C392 C140 1.667 . S
