# Generated by pormake.
# Topology vby, (6)-cn, num edge types: 1
# Building blocks:
#     Node 0, Type 0, BuildingBlock: HISSIN_clean_sbu_0, # of connection points: 6
#     Node 1, Type 0, BuildingBlock: HISSIN_clean_sbu_0, # of connection points: 6
#     Node 2, Type 0, BuildingBlock: HISSIN_clean_sbu_0, # of connection points: 6
#     Node 3, Type 0, BuildingBlock: HISSIN_clean_sbu_0, # of connection points: 6
#     Node 4, Type 0, BuildingBlock: HISSIN_clean_sbu_0, # of connection points: 6
#     Node 5, Type 0, BuildingBlock: HISSIN_clean_sbu_0, # of connection points: 6
#     Node 6, Type 0, BuildingBlock: HISSIN_clean_sbu_0, # of connection points: 6
#     Node 7, Type 0, BuildingBlock: HISSIN_clean_sbu_0, # of connection points: 6
#     Edge 8, Type (0, 0), BuildingBlock: ZUJKAS_clean_linker_0, # of connection points: 2
#     Edge 9, Type (0, 0), BuildingBlock: ZUJKAS_clean_linker_0, # of connection points: 2
#     Edge 10, Type (0, 0), BuildingBlock: ZUJKAS_clean_linker_0, # of connection points: 2
#     Edge 11, Type (0, 0), BuildingBlock: ZUJKAS_clean_linker_0, # of connection points: 2
#     Edge 12, Type (0, 0), BuildingBlock: ZUJKAS_clean_linker_0, # of connection points: 2
#     Edge 13, Type (0, 0), BuildingBlock: ZUJKAS_clean_linker_0, # of connection points: 2
#     Edge 14, Type (0, 0), BuildingBlock: ZUJKAS_clean_linker_0, # of connection points: 2
#     Edge 15, Type (0, 0), BuildingBlock: ZUJKAS_clean_linker_0, # of connection points: 2
#     Edge 16, Type (0, 0), BuildingBlock: ZUJKAS_clean_linker_0, # of connection points: 2
#     Edge 17, Type (0, 0), BuildingBlock: ZUJKAS_clean_linker_0, # of connection points: 2
#     Edge 18, Type (0, 0), BuildingBlock: ZUJKAS_clean_linker_0, # of connection points: 2
#     Edge 19, Type (0, 0), BuildingBlock: ZUJKAS_clean_linker_0, # of connection points: 2
#     Edge 20, Type (0, 0), BuildingBlock: ZUJKAS_clean_linker_0, # of connection points: 2
#     Edge 21, Type (0, 0), BuildingBlock: ZUJKAS_clean_linker_0, # of connection points: 2
#     Edge 22, Type (0, 0), BuildingBlock: ZUJKAS_clean_linker_0, # of connection points: 2
#     Edge 23, Type (0, 0), BuildingBlock: ZUJKAS_clean_linker_0, # of connection points: 2
#     Edge 24, Type (0, 0), BuildingBlock: ZUJKAS_clean_linker_0, # of connection points: 2
#     Edge 25, Type (0, 0), BuildingBlock: ZUJKAS_clean_linker_0, # of connection points: 2
#     Edge 26, Type (0, 0), BuildingBlock: ZUJKAS_clean_linker_0, # of connection points: 2
#     Edge 27, Type (0, 0), BuildingBlock: ZUJKAS_clean_linker_0, # of connection points: 2
#     Edge 28, Type (0, 0), BuildingBlock: ZUJKAS_clean_linker_0, # of connection points: 2
#     Edge 29, Type (0, 0), BuildingBlock: ZUJKAS_clean_linker_0, # of connection points: 2
#     Edge 30, Type (0, 0), BuildingBlock: ZUJKAS_clean_linker_0, # of connection points: 2
#     Edge 31, Type (0, 0), BuildingBlock: ZUJKAS_clean_linker_0, # of connection points: 2
# Relax obj value: 0.194
# Max RMSD: 0.213
# Mean RMSD: 0.213
data_MOF--net-vby--node1-HISSIN_clean_sbu_0--edge1-ZUJKAS_clean_linker_0
_symmetry_space_group_name_H-M    P1
_symmetry_Int_Tables_number       1
_symmetry_cell_setting            triclinic
loop_
_symmetry_equiv_pos_as_xyz
'x, y, z'
_cell_length_a     19.962363
_cell_length_b     122.65043
_cell_length_c     39.01155
_cell_angle_alpha  90.016421
_cell_angle_beta   91.764782
_cell_angle_gamma 89.955085
loop_
_atom_site_label
_atom_site_type_symbol
_atom_site_fract_x
_atom_site_fract_y
_atom_site_fract_z
_atom_type_partial_charge
Eu0 Eu 0.11031 0.36675 -0.00083 0.0
Eu1 Eu 0.11497 0.39396 0.99417 0.0
C2 C 0.10136 0.37924 0.92818 0.0
C3 C 0.14486 0.33512 0.00603 0.0
C4 C 0.17397 0.32986 0.97812 0.0
C5 C 0.17095 0.31917 0.04133 0.0
C6 C 0.19997 0.31932 0.98158 0.0
C7 C 0.14462 0.32972 0.03784 0.0
C8 C 0.19732 0.31374 0.01298 0.0
C9 C 0.10659 0.34539 0.00054 0.0
O10 O 1.00467 0.38994 0.98877 0.0
O11 O 1.00395 0.37201 0.00717 0.0
C12 C 0.97273 0.38108 -0.00178 0.0
O13 O 0.13495 0.37322 0.05224 0.0
O14 O 0.09472 0.40889 0.96495 0.0
O15 O 0.15008 0.40967 0.01378 0.0
O16 O 0.08277 0.38985 0.0473 0.0
C17 C 0.10621 0.38174 0.06613 0.0
O18 O 0.21806 0.37077 0.98892 0.0
O19 O 0.22036 0.38857 0.00738 0.0
O20 O 0.13837 0.38685 0.94272 0.0
O21 O 0.09347 0.3515 0.02691 0.0
O22 O 0.11868 0.35112 0.97325 0.0
O23 O 0.07154 0.37197 0.94696 0.0
C24 C 0.09704 0.42617 0.99373 0.0
C25 C 0.09827 0.43094 0.02656 0.0
C26 C 0.06385 0.44368 0.96926 0.0
C27 C 0.08367 0.44204 0.03056 0.0
C28 C 0.07824 0.43261 0.96529 0.0
C29 C 0.06818 0.4486 0.00181 0.0
C30 C 0.12458 0.41514 0.98779 0.0
C31 C 0.25108 0.3796 -0.00168 0.0
H32 H 0.17443 0.3337 0.95314 0.0
H33 H 0.16769 0.31507 0.06581 0.0
H34 H 0.22081 0.31543 0.95936 0.0
H35 H 0.12166 0.33347 0.05972 0.0
H36 H 0.11319 0.42622 0.04899 0.0
H37 H 0.05101 0.44846 0.94666 0.0
H38 H 0.08781 0.44559 0.05595 0.0
H39 H 0.07746 0.42919 0.93966 0.0
Eu40 Eu 0.9552 0.61979 0.99042 0.0
Eu41 Eu 0.95939 0.64702 0.99493 0.0
C42 C 0.96582 0.63437 0.9243 0.0
C43 C 0.97428 0.58766 0.99168 0.0
C44 C 0.98552 0.58069 0.96392 0.0
C45 C 0.99947 0.57259 0.0307 0.0
C46 C 1.00238 0.56975 0.96937 0.0
C47 C 0.98251 0.58356 0.02521 0.0
C48 C 1.00829 0.56549 0.00281 0.0
C49 C 0.94556 0.59858 0.98464 0.0
O50 O 0.85091 0.64292 0.98334 0.0
O51 O 0.85042 0.62513 0.00181 0.0
C52 C 0.81879 0.63408 0.99245 0.0
O53 O 0.99018 0.62413 0.04404 0.0
O54 O 0.94521 0.66263 0.96927 0.0
O55 O 0.98178 0.66227 0.02226 0.0
O56 O 0.93696 0.64065 0.04756 0.0
C57 C 0.96682 0.63222 0.06225 0.0
O58 O 0.06516 0.6238 0.98673 0.0
O59 O 0.06661 0.64183 0.00414 0.0
O60 O 0.99566 0.64176 0.94355 0.0
O61 O 0.92144 0.60414 0.00999 0.0
O62 O 0.97395 0.60475 0.96203 0.0
O63 O 0.92975 0.62673 0.93819 0.0
C64 C 0.92686 0.67866 0.00273 0.0
C65 C 0.94909 0.68546 0.02969 0.0
C66 C 0.85136 0.6931 0.98277 0.0
C67 C 0.92372 0.69604 0.03281 0.0
C68 C 0.87666 0.68251 0.97969 0.0
C69 C 0.87584 0.7001 0.00885 0.0
C70 C 0.96322 0.66836 -0.0038 0.0
C71 C 0.09748 0.63274 0.99602 0.0
H72 H 0.97849 0.58359 0.93782 0.0
H73 H 1.00451 0.56963 0.0568 0.0
H74 H 1.00774 0.56453 0.94724 0.0
H75 H 0.97388 0.58873 0.04716 0.0
H76 H 0.98812 0.68276 0.04765 0.0
H77 H 0.81499 0.69597 0.96366 0.0
H78 H 0.94287 0.70113 0.05357 0.0
H79 H 0.8588 0.67752 0.9584 0.0
Eu80 Eu 0.11198 0.61966 0.49292 0.0
Eu81 Eu 0.10731 0.64687 0.49746 0.0
C82 C 0.10244 0.63204 0.56461 0.0
C83 C 0.09409 0.58746 0.49289 0.0
C84 C 0.09603 0.58262 0.52561 0.0
C85 C 0.05997 0.57002 0.46824 0.0
C86 C 0.08131 0.57152 0.52946 0.0
C87 C 0.07447 0.58109 0.46441 0.0
C88 C 0.06504 0.56503 0.50065 0.0
C89 C 0.12187 0.59846 0.48703 0.0
O90 O 0.2154 0.64281 0.48796 0.0
O91 O 0.21719 0.62502 0.50647 0.0
C92 C 0.24817 0.63397 0.49755 0.0
O93 O 0.13586 0.62667 0.44142 0.0
O94 O 0.08646 0.66212 0.52452 0.0
O95 O 0.11898 0.66248 0.47192 0.0
O96 O 0.06913 0.64159 0.44524 0.0
C97 C 0.099 0.63427 0.42667 0.0
O98 O 1.00166 0.62364 0.48708 0.0
O99 O 1.00077 0.64163 0.50482 0.0
O100 O 0.13156 0.6405 0.55068 0.0
O101 O 0.09279 0.60468 0.46383 0.0
O102 O 0.14648 0.60398 0.51313 0.0
O103 O 0.079 0.62392 0.54582 0.0
C104 C 0.13874 0.67856 0.50543 0.0
C105 C 0.19155 0.68197 0.48493 0.0
C106 C 0.13917 0.69642 0.53265 0.0
C107 C 0.2168 0.69259 0.48774 0.0
C108 C 0.1139 0.68582 0.52979 0.0
C109 C 0.18967 0.70004 0.51101 0.0
C110 C 0.10263 0.66821 0.4986 0.0
C111 C 0.96963 0.63255 0.49607 0.0
H112 H 0.11162 0.58728 0.54806 0.0
H113 H 0.04652 0.56529 0.4456 0.0
H114 H 0.086 0.56792 0.55476 0.0
H115 H 0.07316 0.58455 0.43886 0.0
H116 H 0.21156 0.6766 0.46572 0.0
H117 H 0.11795 0.70187 0.55128 0.0
H118 H 0.25535 0.69511 0.47049 0.0
H119 H 0.07292 0.68343 0.54575 0.0
Eu120 Eu 0.96198 0.36643 0.49528 0.0
Eu121 Eu 0.95764 0.39364 0.49241 0.0
C122 C 0.9695 0.3808 0.5636 0.0
C123 C 0.92729 0.33481 0.49826 0.0
C124 C 0.91586 0.33034 0.53074 0.0
C125 C 0.88167 0.31831 0.47184 0.0
C126 C 0.88831 0.31988 0.53369 0.0
C127 C 0.90913 0.32873 0.46891 0.0
C128 C 0.87194 0.31366 0.50425 0.0
C129 C 0.9654 0.34508 0.49427 0.0
O130 O 0.06758 0.3896 0.48841 0.0
O131 O 0.06904 0.37153 0.50545 0.0
C132 C 0.09994 0.38063 0.49759 0.0
O133 O 0.99858 0.37207 0.4444 0.0
O134 O 0.92527 0.40925 0.51307 0.0
O135 O 0.9753 0.40875 0.46438 0.0
O136 O 0.93167 0.387 0.43985 0.0
C137 C 0.96798 0.37947 0.42551 0.0
O138 O 0.85346 0.37062 0.48398 0.0
O139 O 0.85291 0.38828 0.50367 0.0
O140 O 0.99246 0.38903 0.54585 0.0
O141 O 0.95065 0.3511 0.46753 0.0
O142 O 0.98111 0.35089 0.52141 0.0
O143 O 0.94015 0.37241 0.54847 0.0
C144 C 0.9774 0.42578 0.49444 0.0
C145 C 0.99249 0.43246 0.46653 0.0
C146 C 0.99882 0.44118 0.53273 0.0
C147 C 1.00937 0.44341 0.4715 0.0
C148 C 0.98182 0.43019 0.52772 0.0
C149 C 1.01142 0.44798 0.50459 0.0
C150 C 0.94823 0.41488 0.48757 0.0
C151 C 0.8213 0.37939 0.49374 0.0
H152 H 0.92986 0.33476 0.55388 0.0
H153 H 0.87082 0.31372 0.44861 0.0
H154 H 0.8808 0.3166 0.55904 0.0
H155 H 0.91847 0.33186 0.44353 0.0
H156 H 0.98835 0.42933 0.44056 0.0
H157 H 1.00078 0.44439 0.5586 0.0
H158 H 1.01765 0.4484 0.44914 0.0
H159 H 0.97005 0.42527 0.54978 0.0
Eu160 Eu 0.60698 0.86698 0.01388 0.0
Eu161 Eu 0.61184 0.89422 0.01801 0.0
C162 C 0.59998 0.88169 0.94637 0.0
C163 C 0.63891 0.83533 0.00634 0.0
C164 C 0.61652 0.82851 0.97942 0.0
C165 C 0.71437 0.82087 0.02628 0.0
C166 C 0.6418 0.81793 0.97631 0.0
C167 C 0.68917 0.83147 0.02934 0.0
C168 C 0.68975 0.81387 0.00024 0.0
C169 C 0.60272 0.84564 0.01286 0.0
O170 O 0.50193 0.89026 0.02221 0.0
O171 O 0.49984 0.87223 0.00485 0.0
C172 C 0.4693 0.88134 0.01307 0.0
O173 O 0.57152 0.87233 0.06533 0.0
O174 O 0.64515 0.90985 -0.00204 0.0
O175 O 0.59411 0.90928 0.04633 0.0
O176 O 0.63774 0.88734 0.07027 0.0
C177 C 0.60179 0.87972 0.08438 0.0
O178 O 0.7156 0.87103 0.02524 0.0
O179 O 0.71648 0.88881 0.00661 0.0
O180 O 0.57659 0.88981 0.96447 0.0
O181 O 0.62107 0.85139 0.03969 0.0
O182 O 0.58399 0.85171 0.98678 0.0
O183 O 0.62966 0.87327 0.96119 0.0
C184 C 0.59334 0.92643 0.01672 0.0
C185 C 0.57072 0.93263 0.04433 0.0
C186 C 0.58236 0.94251 0.98023 0.0
C187 C 0.55551 0.94369 0.04018 0.0
C188 C 0.59773 0.93143 0.98441 0.0
C189 C 0.56291 0.94884 0.00832 0.0
C190 C 0.62179 0.91544 0.02345 0.0
C191 C 0.74789 0.87983 0.016 0.0
H192 H 0.57745 0.83122 0.96149 0.0
H193 H 0.7508 0.81801 0.04535 0.0
H194 H 0.62253 0.81283 0.95559 0.0
H195 H 0.70715 0.83646 0.0506 0.0
H196 H 0.56752 0.92906 0.06962 0.0
H197 H 0.58903 0.94623 0.9554 0.0
H198 H 0.53964 0.94828 0.06221 0.0
H199 H 0.61578 0.92692 0.96267 0.0
Eu200 Eu 0.45203 0.11991 0.01417 0.0
Eu201 Eu 0.45468 0.14688 0.0028 0.0
C202 C 0.46998 0.13002 0.93996 0.0
C203 C 0.46998 0.08788 0.018 0.0
C204 C 0.48089 0.08388 0.98486 0.0
C205 C 0.49567 0.0699 0.04122 0.0
C206 C 0.49802 0.07291 0.97995 0.0
C207 C 0.4786 0.08083 0.04609 0.0
C208 C 0.50447 0.06574 0.00805 0.0
C209 C 0.44218 0.09886 0.02395 0.0
O210 O 0.35001 0.14298 0.01904 0.0
O211 O 0.34721 0.12543 -0.00097 0.0
C212 C 0.31632 0.13425 0.00937 0.0
O213 O 0.42749 0.12752 0.06484 0.0
O214 O 0.41888 0.16088 0.97275 0.0
O215 O 0.49227 0.16327 0.0142 0.0
O216 O 0.47784 0.14418 0.05901 0.0
C217 C 0.45464 0.13635 0.07827 0.0
O218 O 0.56116 0.12459 0.02145 0.0
O219 O 0.5608 0.14137 0.99466 0.0
O220 O 0.43998 0.13881 0.95111 0.0
O221 O 0.47462 0.10537 0.04508 0.0
O222 O 0.41395 0.10402 -0.00195 0.0
O223 O 0.49014 0.12227 0.96106 0.0
C224 C 0.42405 0.17857 -0.00241 0.0
C225 C 0.41582 0.18245 0.03111 0.0
C226 C 0.38268 0.19588 0.97517 0.0
C227 C 0.39167 0.19304 0.03655 0.0
C228 C 0.40669 0.18535 0.96979 0.0
C229 C 0.37535 0.19993 0.00859 0.0
C230 C 0.45481 0.16789 0.99038 0.0
C231 C 0.59283 0.13297 0.00835 0.0
H232 H 0.47446 0.08913 0.96269 0.0
H233 H 0.49916 0.06461 0.06344 0.0
H234 H 0.50531 0.07002 0.9541 0.0
H235 H 0.46962 0.08368 0.07184 0.0
H236 H 0.42889 0.17737 0.05303 0.0
H237 H 0.37189 0.20098 0.95301 0.0
H238 H 0.38601 0.19585 0.06262 0.0
H239 H 0.41328 0.18257 0.94373 0.0
Eu240 Eu 0.60943 0.11977 0.51102 0.0
Eu241 Eu 0.60488 0.14696 0.51298 0.0
C242 C 0.60283 0.13273 0.58049 0.0
C243 C 0.58955 0.08759 0.50563 0.0
C244 C 0.55813 0.08194 0.53203 0.0
C245 C 0.58603 0.07099 0.47123 0.0
C246 C 0.54237 0.07089 0.52841 0.0
C247 C 0.60203 0.08206 0.47489 0.0
C248 C 0.55792 0.0652 0.49838 0.0
C249 C 0.61924 0.09848 0.51251 0.0
O250 O 0.71381 0.14259 0.52204 0.0
O251 O 0.71338 0.12534 0.49907 0.0
C252 C 0.74547 0.13403 0.51035 0.0
O253 O 0.57203 0.12528 0.45883 0.0
O254 O 0.61986 0.16183 0.54288 0.0
O255 O 0.58245 0.16289 0.49015 0.0
O256 O 0.62327 0.14202 0.45833 0.0
C257 C 0.59343 0.13385 0.44218 0.0
O258 O 0.49971 0.12362 0.51706 0.0
O259 O 0.49744 0.14198 0.50364 0.0
O260 O 0.57101 0.14043 0.5634 0.0
O261 O 0.6383 0.10444 0.48684 0.0
O262 O 0.59596 0.10431 0.53749 0.0
O263 O 0.63851 0.12554 0.56423 0.0
C264 C 0.63894 0.17861 0.51395 0.0
C265 C 0.65139 0.18311 0.48162 0.0
C266 C 0.68294 0.19513 0.54089 0.0
C267 C 0.6786 0.1936 0.47901 0.0
C268 C 0.65578 0.18469 0.54348 0.0
C269 C 0.69369 0.19981 0.50862 0.0
C270 C 0.6016 0.16826 0.51766 0.0
C271 C 0.46697 0.13272 0.51001 0.0
H272 H 0.54848 0.0859 0.55619 0.0
H273 H 0.5991 0.06683 0.44787 0.0
H274 H 0.51982 0.0667 0.5496 0.0
H275 H 0.62715 0.08612 0.45426 0.0
H276 H 0.63855 0.17867 0.45834 0.0
H277 H 0.69285 0.19972 0.56422 0.0
H278 H 0.68695 0.19691 0.45376 0.0
H279 H 0.6457 0.18151 0.56872 0.0
Eu280 Eu 0.46047 0.86671 0.51141 0.0
Eu281 Eu 0.455 0.89391 0.51568 0.0
C282 C 0.46793 0.87934 0.5821 0.0
C283 C 0.42948 0.83502 0.50337 0.0
C284 C 0.37656 0.83159 0.52377 0.0
C285 C 0.42928 0.81717 0.47607 0.0
C286 C 0.35136 0.82097 0.52087 0.0
C287 C 0.45451 0.82777 0.47902 0.0
C288 C 0.37865 0.81353 0.49761 0.0
C289 C 0.46548 0.84538 0.51029 0.0
O290 O 0.56547 0.89005 0.52157 0.0
O291 O 0.56706 0.872 0.50447 0.0
C292 C 0.59783 0.88114 0.51298 0.0
O293 O 0.4364 0.87304 0.45811 0.0
O294 O 0.47308 0.90891 0.54489 0.0
O295 O 0.42048 0.90955 0.49526 0.0
O296 O 0.48865 0.88964 0.46291 0.0
C297 C 0.46553 0.88149 0.44415 0.0
O298 O 0.35236 0.87073 0.52098 0.0
O299 O 0.35013 0.88844 0.50181 0.0
O300 O 0.43106 0.88691 0.56721 0.0
O301 O 0.48182 0.85146 0.48441 0.0
O302 O 0.44884 0.8511 0.53693 0.0
O303 O 0.49817 0.87203 0.56366 0.0
C304 C 0.47248 0.92604 0.5156 0.0
C305 C 0.48481 0.92995 0.48252 0.0
C306 C 0.49632 0.94409 0.53866 0.0
C307 C 0.50176 0.94092 0.47756 0.0
C308 C 0.47953 0.93317 0.54358 0.0
C309 C 0.50648 0.94818 0.50553 0.0
C310 C 0.44428 0.91509 0.5215 0.0
C311 C 0.31933 0.87951 0.51106 0.0
H312 H 0.35641 0.83695 0.54297 0.0
H313 H 0.45063 0.81173 0.45744 0.0
H314 H 0.31272 0.81844 0.53804 0.0
H315 H 0.49557 0.83017 0.46313 0.0
H316 H 0.4795 0.92464 0.46042 0.0
H317 H 0.49834 0.94943 0.56077 0.0
H318 H 0.51009 0.94375 0.45175 0.0
H319 H 0.46935 0.93038 0.56926 0.0
H320 H 0.33488 0.39714 0.00414 0.0
H321 H 0.45698 0.39729 0.0033 0.0
H322 H 0.45838 0.36227 0.99317 0.0
H323 H 0.33576 0.36207 0.99298 0.0
H324 H 0.5488 0.38832 0.04599 0.0
H325 H 0.57609 0.37095 0.91591 0.0
H326 H 0.49651 0.37551 0.93128 0.0
H327 H 0.52918 0.36235 0.94358 0.0
C328 C 0.361 0.38945 0.00163 0.0
C329 C 0.32539 0.37959 -0.00157 0.0
C330 C 0.43093 0.38956 0.00116 0.0
C331 C 0.46694 0.37982 -0.00243 0.0
C332 C 0.43168 0.36993 0.99503 0.0
H333 H 0.88894 0.3637 0.00603 0.0
H334 H 0.76664 0.36374 0.00617 0.0
C335 C 0.36154 0.36982 0.99515 0.0
C336 C 0.54137 0.38007 -0.00275 0.0
H337 H 0.67601 0.37272 0.95033 0.0
C338 C 0.57654 0.38497 0.02496 0.0
C339 C 0.57764 0.37573 0.96973 0.0
C340 C 0.54295 0.37094 0.93828 0.0
C341 C 0.64686 0.38548 0.02616 0.0
C342 C 0.68289 0.381 -0.00109 0.0
C343 C 0.648 0.37612 0.9712 0.0
C344 C 0.75704 0.38114 -0.001 0.0
C345 C 0.68237 0.39061 0.0568 0.0
C346 C 0.79206 0.39094 0.99468 0.0
C347 C 0.86219 0.39096 0.99438 0.0
C348 C 0.89843 0.38118 -0.00142 0.0
C349 C 0.86285 0.3714 0.00291 0.0
C350 C 0.79288 0.37138 0.00292 0.0
H351 H 0.64795 0.39211 0.07814 0.0
H352 H 0.72414 0.38531 0.06626 0.0
H353 H 0.70419 0.39853 0.04911 0.0
H354 H 0.76509 0.39855 0.9913 0.0
H355 H 0.88791 0.39864 0.99098 0.0
H356 H 0.18258 0.61523 0.99132 0.0
H357 H 0.3053 0.61549 0.99208 0.0
H358 H 0.30303 0.65051 0.00175 0.0
H359 H 0.18101 0.65033 0.00193 0.0
H360 H 0.38957 0.62504 0.94834 0.0
H361 H 0.43344 0.64245 0.07815 0.0
H362 H 0.3526 0.63742 0.06354 0.0
H363 H 0.37984 0.65084 0.05148 0.0
C364 C 0.20821 0.62298 0.99387 0.0
C365 C 0.17183 0.63275 -0.00316 0.0
C366 C 0.27837 0.62311 0.99428 0.0
C367 C 0.31349 0.633 -0.00236 0.0
C368 C 0.27724 0.64276 0.00014 0.0
H369 H 0.7333 0.65156 0.985 0.0
H370 H 0.61041 0.65134 0.98553 0.0
C371 C 0.20727 0.64263 3e-05 0.0
C372 C 0.38789 0.63318 -0.00274 0.0
H373 H 0.52774 0.64188 0.04206 0.0
C374 C 0.41975 0.62866 0.96895 0.0
C375 C 0.42735 0.6379 0.02417 0.0
C376 C 0.39663 0.64233 0.0562 0.0
C377 C 0.48979 0.6289 0.96657 0.0
C378 C 0.52894 0.63376 0.99322 0.0
C379 C 0.49734 0.63826 0.02154 0.0
C380 C 0.60306 0.63391 0.99264 0.0
C381 C 0.52155 0.6241 0.93538 0.0
C382 C 0.63932 0.62419 -0.0032 0.0
C383 C 0.70928 0.62428 -0.00327 0.0
C384 C 0.74446 0.6341 0.9924 0.0
C385 C 0.70785 0.64385 0.98825 0.0
C386 C 0.6377 0.64375 0.9886 0.0
H387 H 0.48414 0.62255 0.91427 0.0
H388 H 0.56095 0.62962 0.92587 0.0
H389 H 0.54577 0.61624 0.94245 0.0
H390 H 0.61343 0.61653 0.00032 0.0
H391 H 0.7357 0.61661 -2e-05 0.0
H392 H 0.88453 0.61501 0.48955 0.0
H393 H 0.76162 0.6152 0.48972 0.0
H394 H 0.76386 0.65009 0.5029 0.0
H395 H 0.88611 0.65002 0.50291 0.0
H396 H 0.67761 0.62507 0.54552 0.0
H397 H 0.63663 0.64349 0.41623 0.0
H398 H 0.7131 0.63644 0.42867 0.0
H399 H 0.69787 0.64994 0.4443 0.0
C400 C 0.85891 0.62273 0.49241 0.0
C401 C 0.89531 0.6325 0.49616 0.0
C402 C 0.78875 0.62281 0.49255 0.0
C403 C 0.7539 0.63267 0.496 0.0
C404 C 0.78994 0.64241 0.49985 0.0
H405 H 0.33323 0.65142 0.4914 0.0
H406 H 0.45601 0.65113 0.49246 0.0
C407 C 0.85989 0.64234 0.49999 0.0
C408 C 0.67977 0.63283 0.49614 0.0
H409 H 0.54128 0.64123 0.44988 0.0
C410 C 0.64761 0.62854 0.52459 0.0
C411 C 0.64116 0.63749 0.46894 0.0
C412 C 0.67361 0.64205 0.43762 0.0
C413 C 0.57754 0.62893 0.5268 0.0
C414 C 0.53861 0.63346 0.49935 0.0
C415 C 0.57105 0.63776 0.47091 0.0
C416 C 0.46417 0.63366 0.49932 0.0
C417 C 0.54618 0.62475 0.55896 0.0
C418 C 0.42791 0.62393 0.50237 0.0
C419 C 0.35794 0.62408 0.5021 0.0
C420 C 0.32251 0.63395 0.49818 0.0
C421 C 0.35888 0.64368 0.49453 0.0
C422 C 0.42906 0.64353 0.49512 0.0
H423 H 0.58255 0.62479 0.58111 0.0
H424 H 0.50196 0.62972 0.5657 0.0
H425 H 0.52953 0.61621 0.55477 0.0
H426 H 0.45372 0.61619 0.50462 0.0
H427 H 0.33166 0.61641 0.50453 0.0
H428 H 0.73598 0.36194 0.48557 0.0
H429 H 0.6131 0.36214 0.48621 0.0
H430 H 0.61575 0.39689 0.5025 0.0
H431 H 0.73804 0.39682 0.50208 0.0
H432 H 0.5305 0.3715 0.54348 0.0
H433 H 0.4863 0.39103 0.41603 0.0
H434 H 0.563 0.38387 0.42733 0.0
H435 H 0.54829 0.39723 0.44427 0.0
C436 C 0.71045 0.36963 0.48918 0.0
C437 C 0.74697 0.37936 0.49373 0.0
C438 C 0.6403 0.36972 0.48959 0.0
C439 C 0.60557 0.37954 0.4941 0.0
C440 C 0.64173 0.38925 0.49864 0.0
H441 H 0.18487 0.39815 0.49312 0.0
H442 H 0.30757 0.3979 0.49388 0.0
C443 C 0.71169 0.38917 0.49853 0.0
C444 C 0.53145 0.37968 0.49474 0.0
H445 H 0.39184 0.3884 0.45003 0.0
C446 C 0.49999 0.37514 0.52302 0.0
C447 C 0.49216 0.38455 0.46817 0.0
C448 C 0.52381 0.3894 0.43705 0.0
C449 C 0.42999 0.37548 0.5257 0.0
C450 C 0.39039 0.38022 0.49886 0.0
C451 C 0.42212 0.38477 0.47059 0.0
C452 C 0.31597 0.38039 0.49929 0.0
C453 C 0.39942 0.37101 0.55769 0.0
C454 C 0.27983 0.37063 0.50173 0.0
C455 C 0.20985 0.37075 0.50163 0.0
C456 C 0.1743 0.38063 0.4985 0.0
C457 C 0.21058 0.3904 0.49562 0.0
C458 C 0.28074 0.39027 0.49603 0.0
H459 H 0.43629 0.37087 0.57962 0.0
H460 H 0.35533 0.3759 0.56511 0.0
H461 H 0.38277 0.3625 0.55289 0.0
H462 H 0.30571 0.36287 0.50327 0.0
H463 H 0.18367 0.36305 0.50346 0.0
H464 H 0.83155 0.89721 0.00799 0.0
H465 H 0.95384 0.89717 0.00747 0.0
H466 H 0.95561 0.86239 0.02325 0.0
H467 H 0.8328 0.8623 0.02393 0.0
H468 H 0.04592 0.88844 0.06271 0.0
H469 H 0.07041 0.86846 0.93556 0.0
H470 H 0.99441 0.87524 0.94781 0.0
H471 H 1.0154 0.86212 0.96534 0.0
C472 C 0.85771 0.88952 0.01128 0.0
C473 C 0.8222 0.87974 0.0159 0.0
C474 C 0.92766 0.88954 0.01104 0.0
C475 C 0.96355 0.87978 0.01504 0.0
C476 C 0.9286 0.87 0.01979 0.0
H477 H 0.38545 0.86377 0.00817 0.0
H478 H 0.26342 0.86363 0.00948 0.0
C479 C 0.85848 0.86997 0.0203 0.0
C480 C 0.03768 0.87991 0.01459 0.0
H481 H 0.1704 0.87237 0.96683 0.0
C482 C 0.07332 0.88494 0.04179 0.0
C483 C 0.07295 0.87531 0.98727 0.0
C484 C 0.03664 0.87002 0.95714 0.0
C485 C 0.14368 0.88535 0.04268 0.0
C486 C 0.17915 0.88088 0.01509 0.0
C487 C 0.14325 0.87583 0.9879 0.0
C488 C 0.2535 0.88113 0.01421 0.0
C489 C 0.17924 0.89031 0.07362 0.0
C490 C 0.28873 0.89104 0.01594 0.0
C491 C 0.35883 0.89115 0.01553 0.0
C492 C 0.39498 0.88136 0.01278 0.0
C493 C 0.35937 0.87148 0.01026 0.0
C494 C 0.28947 0.87137 0.01101 0.0
H495 H 0.14676 0.89044 0.09624 0.0
H496 H 0.22585 0.88577 0.08053 0.0
H497 H 0.19292 0.89886 0.06774 0.0
H498 H 0.26203 0.8987 0.01747 0.0
H499 H 0.3846 0.89891 0.01718 0.0
H500 H 0.23143 0.11686 0.00155 0.0
H501 H 0.10888 0.11688 0.00193 0.0
H502 H 0.10933 0.15163 0.01807 0.0
H503 H 0.23225 0.15172 0.01805 0.0
H504 H 1.02386 0.12718 0.06029 0.0
H505 H 0.98251 0.14387 0.92854 0.0
H506 H 0.05789 0.13652 0.94102 0.0
H507 H 0.04532 0.15013 0.95626 0.0
C508 C 0.20566 0.12453 0.00515 0.0
C509 C 0.24186 0.1343 0.0097 0.0
C510 C 0.13557 0.1245 0.00543 0.0
C511 C 0.10017 0.13425 0.00985 0.0
C512 C 0.13586 0.14403 0.01445 0.0
H513 H 0.67611 0.15022 -0.00289 0.0
H514 H 0.79847 0.1504 -0.00123 0.0
C515 C 0.20609 0.14405 0.0145 0.0
C516 C 1.02585 0.13416 0.00979 0.0
H517 H 0.88681 0.14041 0.96052 0.0
C518 C 0.9937 0.13006 0.03853 0.0
C519 C 0.98693 0.13798 0.98143 0.0
C520 C 1.01948 0.14235 0.94987 0.0
C521 C 0.92336 0.12982 0.03987 0.0
C522 C 0.8841 0.13346 0.01119 0.0
C523 C 0.91663 0.13758 0.98246 0.0
C524 C 0.80936 0.13323 0.01055 0.0
C525 C 0.89204 0.12594 0.0724 0.0
C526 C 0.77425 0.1235 0.0162 0.0
C527 C 0.70402 0.12339 0.01569 0.0
C528 C 0.66733 0.13298 0.00881 0.0
C529 C 0.70262 0.14267 0.00245 0.0
C530 C 0.77274 0.14279 0.00338 0.0
H531 H 0.92743 0.12666 0.09483 0.0
H532 H 0.84602 0.13064 0.07783 0.0
H533 H 0.87831 0.11721 0.06959 0.0
H534 H 0.80111 0.11594 0.02077 0.0
H535 H 0.67853 0.11576 0.0203 0.0
H536 H 0.38229 0.11508 0.51077 0.0
H537 H 0.25951 0.11526 0.50946 0.0
H538 H 0.26102 0.15042 0.50804 0.0
H539 H 0.38307 0.15033 0.50845 0.0
H540 H 0.17308 0.12376 0.55448 0.0
H541 H 0.134 0.14402 0.42853 0.0
H542 H 0.21437 0.13869 0.44281 0.0
H543 H 0.18652 0.1518 0.45751 0.0
C544 C 0.35648 0.12285 0.50999 0.0
C545 C 0.39263 0.13268 0.50941 0.0
C546 C 0.28629 0.12294 0.50924 0.0
C547 C 0.25098 0.13285 0.50793 0.0
C548 C 0.28702 0.14267 0.50802 0.0
H549 H 0.83151 0.15119 0.52226 0.0
H550 H 0.95439 0.15087 0.52213 0.0
C551 C 0.35698 0.14259 0.50846 0.0
C552 C 0.17654 0.13298 0.50757 0.0
H553 H 0.0383 0.14267 0.46348 0.0
C554 C 0.14364 0.12783 0.53445 0.0
C555 C 0.13806 0.13828 0.48139 0.0
C556 C 0.16999 0.14341 0.45076 0.0
C557 C 0.07348 0.12802 0.53618 0.0
C558 C 0.03531 0.13347 0.51033 0.0
C559 C 0.06795 0.13859 0.48341 0.0
C560 C 0.96118 0.13368 0.51036 0.0
C561 C 0.04049 0.12253 0.56586 0.0
C562 C 0.92462 0.12415 0.5034 0.0
C563 C 0.85464 0.12431 0.50321 0.0
C564 C 0.81978 0.13401 0.51012 0.0
C565 C 0.85671 0.14357 0.51697 0.0
C566 C 0.92685 0.14342 0.51686 0.0
H567 H 0.07719 0.12038 0.58676 0.0
H568 H 1.00131 0.1279 0.57644 0.0
H569 H 1.01572 0.11493 0.55671 0.0
H570 H 0.9503 0.11659 0.49798 0.0
H571 H 0.82797 0.11678 0.49786 0.0
H572 H 0.68197 0.86364 0.50936 0.0
H573 H 0.80407 0.86364 0.50974 0.0
H574 H 0.80478 0.89875 0.5158 0.0
H575 H 0.68216 0.89882 0.51641 0.0
H576 H 0.88875 0.87224 0.46525 0.0
H577 H 0.93444 0.89105 0.59316 0.0
H578 H 0.8529 0.88623 0.57892 0.0
H579 H 0.88296 0.89926 0.56484 0.0
C580 C 0.70791 0.87138 0.51091 0.0
C581 C 0.67213 0.88124 0.51303 0.0
C582 C 0.77787 0.87136 0.51111 0.0
C583 C 0.81376 0.88117 0.51336 0.0
C584 C 0.77828 0.89105 0.51496 0.0
H585 H 0.23526 0.89692 0.50166 0.0
H586 H 0.11293 0.89706 0.50177 0.0
C587 C 0.70812 0.89108 0.51509 0.0
C588 C 0.8882 0.88099 0.51316 0.0
H589 H 1.02939 0.88878 0.55852 0.0
C590 C 0.91945 0.87581 0.48575 0.0
C591 C 0.92831 0.88562 0.53997 0.0
C592 C 0.89804 0.89076 0.57105 0.0
C593 C 0.98956 0.87527 0.4842 0.0
C594 C 1.02943 0.87998 0.5108 0.0
C595 C 0.99845 0.88518 0.53815 0.0
C596 C 0.10356 0.87973 0.51044 0.0
C597 C 1.0207 0.86981 0.45391 0.0
C598 C 0.13875 0.86992 0.51549 0.0
C599 C 0.20891 0.8698 0.51564 0.0
C600 C 0.24498 0.87949 0.51057 0.0
C601 C 0.20925 0.88929 0.50546 0.0
C602 C 0.13928 0.88941 0.50559 0.0
H603 H 0.98334 0.86818 0.43283 0.0
H604 H 0.06147 0.87494 0.44385 0.0
H605 H 0.04309 0.86192 0.46221 0.0
H606 H 0.11193 0.86239 0.51959 0.0
H607 H 0.23478 0.86212 0.51968 0.0
H608 H 0.09075 0.55181 0.96764 0.0
H609 H 0.09981 0.532 0.97251 0.0
H610 H 0.96238 0.53233 0.05562 0.0
H611 H 0.95072 0.5521 0.04999 0.0
H612 H 0.14086 0.51864 0.02566 0.0
H613 H 0.87387 0.5107 0.98973 0.0
H614 H 0.91225 0.52388 0.98442 0.0
H615 H 0.88636 0.51955 0.02601 0.0
C616 C 0.0621 0.54768 0.98685 0.0
C617 C 1.01944 0.55358 0.00817 0.0
C618 C 0.06769 0.53635 0.98975 0.0
C619 C 1.03074 0.53064 0.01396 0.0
C620 C 0.99023 0.53653 0.03623 0.0
H621 H 1.00086 0.46013 0.05052 0.0
H622 H 0.99245 0.48004 0.05626 0.0
C623 C 0.98439 0.54787 0.03328 0.0
C624 C 1.03424 0.51854 0.01545 0.0
H625 H 0.94015 0.49541 0.00531 0.0
C626 C 0.09693 0.51357 0.02129 0.0
C627 C 0.97686 0.51191 0.00976 0.0
C628 C 0.90859 0.51675 0.00182 0.0
C629 C 0.10386 0.50217 0.02147 0.0
C630 C 0.0467 0.49556 0.01528 0.0
C631 C 0.9838 0.5005 0.01016 0.0
C632 C 0.05186 0.48353 0.01215 0.0
C633 C 0.1723 0.49726 0.02832 0.0
C634 C 0.08718 0.47893 0.98519 0.0
C635 C 0.09188 0.46762 0.9818 0.0
C636 C 0.06119 0.46064 0.00527 0.0
C637 C 1.02544 0.46528 0.03219 0.0
C638 C 1.02041 0.47663 0.03544 0.0
H639 H 0.20706 0.50316 0.04115 0.0
H640 H 0.16902 0.48986 0.04456 0.0
H641 H 0.19405 0.49485 0.00359 0.0
H642 H 0.11102 0.4841 0.96666 0.0
H643 H 0.12052 0.46433 0.96104 0.0
H644 H 0.94822 0.46188 0.54837 0.0
H645 H 0.95788 0.48176 0.55154 0.0
H646 H 0.10632 0.48113 0.47367 0.0
H647 H 0.09835 0.46125 0.47083 0.0
H648 H 0.0783 0.49595 0.56289 0.0
H649 H 0.94924 0.50116 0.43563 0.0
H650 H 0.94402 0.48872 0.46022 0.0
H651 H 1.01815 0.4917 0.43704 0.0
C652 C 0.98402 0.46593 0.53242 0.0
C653 C 1.02218 0.45994 0.50915 0.0
C654 C 0.98911 0.4773 0.53414 0.0
C655 C 1.03205 0.4829 0.51249 0.0
C656 C 0.07209 0.47696 0.49021 0.0
H657 H 0.11674 0.54939 0.45934 0.0
H658 H 0.10706 0.52963 0.46438 0.0
C659 C 0.06729 0.4656 0.48857 0.0
C660 C 1.03335 0.49499 0.51217 0.0
H661 H 0.99588 0.51697 0.46144 0.0
C662 C 0.05999 0.50058 0.54085 0.0
C663 C 1.00922 0.50097 0.48338 0.0
C664 C 0.978 0.49538 0.45236 0.0
C665 C 0.06524 0.51202 0.54104 0.0
C666 C 0.04172 0.51801 0.51204 0.0
C667 C 1.01399 0.51239 0.48363 0.0
C668 C 0.04773 0.53008 0.50985 0.0
C669 C 0.09804 0.51755 0.57176 0.0
C670 C 1.01709 0.53695 0.53359 0.0
C671 C 1.02259 0.5483 0.53077 0.0
C672 C 0.05802 0.55299 0.50386 0.0
C673 C 0.08815 0.54607 0.48005 0.0
C674 C 0.083 0.53476 0.483 0.0
H675 H 0.12831 0.51174 0.58768 0.0
H676 H 0.13101 0.52431 0.56373 0.0
H677 H 0.05869 0.52101 0.58803 0.0
H678 H 0.98827 0.53354 0.55406 0.0
H679 H 0.99829 0.55342 0.54932 0.0
H680 H 0.60814 0.96447 0.05319 0.0
H681 H 0.59782 0.98425 0.04791 0.0
H682 H 0.49228 0.9804 0.9506 0.0
H683 H 0.50134 0.9605 0.95595 0.0
H684 H 0.64588 0.9976 0.99278 0.0
H685 H 0.37003 1.00076 0.00726 0.0
H686 H 0.41717 0.98882 0.0204 0.0
H687 H 0.39852 0.99124 0.97576 0.0
C688 C 0.58178 0.9678 0.03088 0.0
C689 C 0.55494 0.96088 0.00514 0.0
C690 C 0.57645 0.97911 0.02778 0.0
C691 C 0.54378 0.98378 -0.00096 0.0
C692 C 0.51699 0.97695 0.9732 0.0
H693 H 0.45084 0.05239 0.95785 0.0
H694 H 0.4643 0.03264 0.95216 0.0
C695 C 0.52261 0.96559 0.97619 0.0
C696 C 0.53903 0.99583 -0.00388 0.0
H697 H 0.42855 0.01708 -0.00229 0.0
C698 C 0.59837 1.00187 0.99371 0.0
C699 C 0.47697 1.00136 -0.00285 0.0
C700 C 0.4119 0.99526 0.00052 0.0
C701 C 0.5974 0.01332 0.99247 0.0
C702 C 0.53549 0.01889 0.99453 0.0
C703 C 0.47599 0.01282 -0.00383 0.0
C704 C 0.53143 0.03099 -0.00354 0.0
C705 C 0.66268 0.01933 0.98865 0.0
C706 C 0.56488 0.03666 0.02316 0.0
C707 C 0.55791 0.04796 0.02626 0.0
C708 C 0.51665 0.05385 0.00295 0.0
C709 C 0.48386 0.04816 0.97595 0.0
C710 C 0.49103 0.03685 0.97282 0.0
H711 H 0.70086 0.0141 0.97661 0.0
H712 H 0.65564 0.02681 0.97294 0.0
H713 H 0.68267 0.02174 0.01441 0.0
H714 H 0.59523 0.03231 0.04215 0.0
H715 H 0.58433 0.05206 0.04721 0.0
H716 H 0.59024 0.05028 0.54803 0.0
H717 H 0.5812 0.03047 0.54494 0.0
H718 H 0.49875 0.03291 0.44172 0.0
H719 H 0.50839 0.05283 0.44453 0.0
H720 H 0.47246 0.0176 0.53549 0.0
H721 H 0.64781 0.01098 0.42965 0.0
H722 H 0.64126 0.02387 0.45157 0.0
H723 H 0.57972 0.02007 0.41913 0.0
C724 C 0.56964 0.04663 0.52474 0.0
C725 C 0.54985 0.05315 0.49654 0.0
C726 C 0.56487 0.03528 0.52294 0.0
C727 C 0.54029 0.03017 0.49293 0.0
C728 C 0.51945 0.03665 0.46486 0.0
H729 H 0.45504 0.96127 0.45399 0.0
H730 H 0.46446 0.98111 0.44898 0.0
C731 C 0.52466 0.04803 0.46655 0.0
C732 C 0.53539 0.01808 0.49164 0.0
H733 H 0.58999 0.99544 0.44949 0.0
C734 C 0.49821 0.01277 0.51667 0.0
C735 C 0.56902 0.01176 0.46707 0.0
C736 C 0.61222 0.01693 0.44051 0.0
C737 C 0.49382 1.00136 0.51785 0.0
C738 C 0.5278 0.99506 0.49351 0.0
C739 C 0.56404 1.00032 0.46809 0.0
C740 C 0.52718 0.98299 0.49475 0.0
C741 C 0.45273 0.99608 0.54511 0.0
C742 C 0.56099 0.97748 0.52159 0.0
C743 C 0.55645 0.96614 0.52434 0.0
C744 C 0.51768 0.96008 0.50035 0.0
C745 C 0.48591 0.96563 0.47272 0.0
C746 C 0.49084 0.97698 0.4699 0.0
H747 H 0.41952 1.00204 0.55773 0.0
H748 H 0.42148 0.9894 0.53394 0.0
H749 H 0.48687 0.99247 0.56504 0.0
H750 H 0.59003 0.98198 0.54076 0.0
H751 H 0.58262 0.96214 0.54556 0.0
H752 H 0.16902 0.29746 0.9671 0.0
H753 H 0.20067 0.27826 0.97088 0.0
H754 H 0.30382 0.28432 0.06778 0.0
H755 H 0.2715 0.3036 0.06432 0.0
H756 H 0.32336 0.269 0.97339 0.0
H757 H 0.18866 0.25841 0.09128 0.0
H758 H 0.17427 0.27103 0.06844 0.0
H759 H 0.24678 0.26949 0.09653 0.0
C760 C 0.19878 0.29474 0.98916 0.0
C761 C 0.21789 0.30208 0.01538 0.0
C762 C 0.21656 0.28374 0.99136 0.0
C763 C 0.25381 0.27979 0.01983 0.0
C764 C 0.27365 0.28711 0.04595 0.0
H765 H 0.42224 0.21467 0.05674 0.0
H766 H 0.39287 0.23401 0.06151 0.0
C767 C 0.25542 0.29813 0.04388 0.0
C768 C 0.27309 0.26807 0.02137 0.0
H769 H 0.25752 0.24466 0.06813 0.0
C770 C 0.3089 0.2637 0.99413 0.0
C771 C 0.25435 0.26112 0.04847 0.0
C772 C 0.21338 0.2652 0.0777 0.0
C773 C 0.32621 0.25261 0.99316 0.0
C774 C 0.30686 0.24566 0.02001 0.0
C775 C 0.27225 0.25003 0.04761 0.0
C776 C 0.3206 0.23378 0.01909 0.0
C777 C 0.36525 0.24838 0.96341 0.0
C778 C 0.2882 0.22719 0.99433 0.0
C779 C 0.30427 0.21614 0.99174 0.0
C780 C 0.35334 0.21142 0.01381 0.0
C781 C 0.38387 0.21798 0.03949 0.0
C782 C 0.36746 0.22905 0.04216 0.0
H783 H 0.38847 0.25509 0.94881 0.0
H784 H 0.40526 0.24268 0.97249 0.0
H785 H 0.33092 0.24384 0.94565 0.0
H786 H 0.25108 0.23066 0.97664 0.0
H787 H 0.2787 0.21131 0.97214 0.0
H788 H 0.61116 0.796 0.98646 0.0
H789 H 0.64367 0.7768 0.98795 0.0
H790 H 0.84726 0.78593 0.01441 0.0
H791 H 0.81538 0.80521 0.01262 0.0
H792 H 0.73956 0.7655 0.95058 0.0
H793 H 0.80051 0.76431 0.0904 0.0
H794 H 0.75418 0.77537 0.07042 0.0
H795 H 0.84371 0.77468 0.06729 0.0
C796 C 0.66311 0.79397 0.99214 0.0
C797 C 0.71063 0.80219 -0.00055 0.0
C798 C 0.68148 0.78296 0.9932 0.0
C799 C 0.74761 0.77992 0.00184 0.0
C800 C 0.79559 0.78808 0.00843 0.0
H801 H 0.95434 0.71797 0.02271 0.0
H802 H 0.92176 0.73717 0.02121 0.0
C803 C 0.77728 0.79911 0.00736 0.0
C804 C 0.76613 0.7682 0.00379 0.0
H805 H 0.82589 0.74847 0.05852 0.0
C806 C 0.75821 0.76176 0.9742 0.0
C807 C 0.79039 0.76334 0.03465 0.0
C808 C 0.79723 0.76973 0.06762 0.0
C809 C 0.77505 0.75063 0.97445 0.0
C810 C 0.79931 0.74576 0.00531 0.0
C811 C 0.80723 0.75221 0.03491 0.0
C812 C 0.81787 0.73404 0.00726 0.0
C813 C 0.76824 0.74423 0.94148 0.0
C814 C 0.76992 0.72587 0.00063 0.0
C815 C 0.78827 0.71485 0.0017 0.0
C816 C 0.85491 0.71178 0.00964 0.0
C817 C 0.90239 0.72 0.017 0.0
C818 C 0.88398 0.731 0.01593 0.0
H819 H 0.76498 0.74966 0.9187 0.0
H820 H 0.81128 0.73859 0.93868 0.0
H821 H 0.72174 0.73928 0.94179 0.0
H822 H 0.71826 0.72803 0.99463 0.0
H823 H 0.75021 0.70875 -0.0036 0.0
H824 H 0.11016 0.71811 0.5167 0.0
H825 H 0.14323 0.73726 0.51439 0.0
H826 H 0.34909 0.72769 0.50257 0.0
H827 H 0.31654 0.70846 0.50515 0.0
H828 H 0.23344 0.74906 0.5561 0.0
H829 H 0.31384 0.74824 0.42111 0.0
H830 H 0.26499 0.73744 0.43941 0.0
H831 H 0.35367 0.73823 0.44849 0.0
C832 C 0.16266 0.72005 0.51406 0.0
C833 C 0.2107 0.71171 0.51111 0.0
C834 C 0.18139 0.73101 0.51251 0.0
C835 C 0.24842 0.73391 0.50776 0.0
C836 C 0.29681 0.72564 0.50548 0.0
H837 H 0.45823 0.79547 0.49191 0.0
H838 H 0.42518 0.77632 0.49414 0.0
C839 C 0.27813 0.71465 0.50701 0.0
C840 C 0.26743 0.74559 0.50542 0.0
H841 H 0.33497 0.76452 0.45232 0.0
C842 C 0.25543 0.75245 0.53338 0.0
C843 C 0.29603 0.75 0.47572 0.0
C844 C 0.30743 0.74314 0.44432 0.0
C845 C 0.27237 0.76357 0.5327 0.0
C846 C 0.30097 0.76798 0.503 0.0
C847 C 0.31298 0.76112 0.47504 0.0
C848 C 0.31996 0.77967 0.50067 0.0
C849 C 0.26096 0.77043 0.5641 0.0
C850 C 0.27154 0.78793 0.50291 0.0
C851 C 0.2902 0.79892 0.50142 0.0
C852 C 0.35765 0.80186 0.49741 0.0
C853 C 0.40571 0.79353 0.49449 0.0
C854 C 0.38701 0.78256 0.49599 0.0
H855 H 0.2545 0.76534 0.5873 0.0
H856 H 0.30342 0.77613 0.56901 0.0
H857 H 0.21474 0.77535 0.55991 0.0
H858 H 0.21925 0.78588 0.50577 0.0
H859 H 0.25176 0.80511 0.50326 0.0
H860 H 0.77555 0.30318 0.46482 0.0
H861 H 0.74506 0.28387 0.46617 0.0
H862 H 0.88535 0.27872 0.55085 0.0
H863 H 0.91684 0.29797 0.54943 0.0
H864 H 0.83234 0.26609 0.45717 0.0
H865 H 0.71312 0.2643 0.58377 0.0
H866 H 0.72753 0.27698 0.56168 0.0
H867 H 0.79527 0.27028 0.58463 0.0
C868 C 0.79984 0.29796 0.48382 0.0
C869 C 0.84868 0.30216 0.50704 0.0
C870 C 0.78216 0.28693 0.48461 0.0
C871 C 0.81245 0.27988 0.50881 0.0
C872 C 0.86036 0.28405 0.53239 0.0
H873 H 0.78888 0.21029 0.54881 0.0
H874 H 0.81949 0.2296 0.5477 0.0
C875 C 0.87819 0.29508 0.53159 0.0
C876 C 0.79631 0.26806 0.50826 0.0
H877 H 0.73346 0.2474 0.55635 0.0
C878 C 0.81039 0.26201 0.47877 0.0
C879 C 0.76798 0.26274 0.53653 0.0
C880 C 0.74948 0.2689 0.56836 0.0
C881 C 0.79789 0.25074 0.477 0.0
C882 C 0.76947 0.24543 0.50525 0.0
C883 C 0.75543 0.25148 0.53475 0.0
C884 C 0.75314 0.23361 0.50466 0.0
C885 C 0.81659 0.24459 0.44519 0.0
C886 C 0.70573 0.22944 0.48079 0.0
C887 C 0.6879 0.21842 0.48143 0.0
C888 C 0.71684 0.21133 0.50612 0.0
C889 C 0.76507 0.21553 0.52968 0.0
C890 C 0.7828 0.22655 0.52903 0.0
H891 H 0.85342 0.24916 0.42999 0.0
H892 H 0.83805 0.23648 0.45186 0.0
H893 H 0.77098 0.24329 0.42872 0.0
H894 H 0.68118 0.23478 0.46219 0.0
H895 H 0.64971 0.21553 0.46332 0.0
H896 H 0.04647 0.39769 0.10354 0.0
H897 H 1.02482 0.39759 0.16482 0.0
H898 H 0.12098 0.36622 0.17496 0.0
H899 H 0.14348 0.36625 0.11369 0.0
H900 H 0.94939 0.3819 0.19973 0.0
H901 H 0.21068 0.38438 0.2523 0.0
H902 H 0.18854 0.38767 0.20827 0.0
H903 H 0.19614 0.37368 0.22149 0.0
C904 C 0.06371 0.39081 0.11879 0.0
C905 C 0.0969 0.38198 0.10366 0.0
C906 C 0.05113 0.39077 0.15382 0.0
C907 C 0.07188 0.38196 0.17445 0.0
C908 C 0.10559 0.37319 0.15957 0.0
H909 H 1.03321 0.36439 0.38735 0.0
H910 H 0.05501 0.36507 0.32615 0.0
C911 C 0.11817 0.37321 0.12451 0.0
C912 C 0.05558 0.38174 0.21122 0.0
H913 H 0.12584 0.38078 0.29202 0.0
C914 C 0.98789 0.38171 0.21997 0.0
C915 C 0.10598 0.38148 0.23746 0.0
C916 C 0.17945 0.3819 0.22955 0.0
C917 C 0.96917 0.38119 0.25432 0.0
C918 C 1.01959 0.3809 0.28059 0.0
C919 C 0.08729 0.38098 0.27181 0.0
C920 C 1.00342 0.38038 0.31738 0.0
C921 C 0.89567 0.38066 0.26213 0.0
C922 C 0.96709 0.38877 0.33277 0.0
C923 C 0.95418 0.38839 0.36779 0.0
C924 C 0.97801 0.37965 0.38808 0.0
C925 C 1.0141 0.37124 0.37249 0.0
C926 C 1.02673 0.37161 0.33751 0.0
H927 H 0.86475 0.3781 0.23937 0.0
H928 H 0.88672 0.37491 0.28347 0.0
H929 H 0.87838 0.38887 0.26996 0.0
H930 H 0.94981 0.39572 0.31784 0.0
H931 H 0.92671 0.39504 0.37905 0.0
H932 H 0.92746 0.64754 0.10867 0.0
H933 H 0.95046 0.6477 0.17063 0.0
H934 H 0.05195 0.61678 0.16338 0.0
H935 H 1.02978 0.61656 0.10144 0.0
H936 H 0.91509 0.63202 0.22111 0.0
H937 H 0.19094 0.63675 0.21263 0.0
H938 H 0.13387 0.6393 0.1767 0.0
H939 H 0.15552 0.62556 0.18854 0.0
C940 C 0.95452 0.64075 0.12021 0.0
C941 C 0.97712 0.63207 0.10001 0.0
C942 C 0.96759 0.64086 0.15562 0.0
C943 C 1.00383 0.63234 0.17142 0.0
C944 C 1.02502 0.62354 0.15153 0.0
H945 H 0.1426 0.61922 0.38047 0.0
H946 H 0.11863 0.61874 0.31859 0.0
C947 C 1.01192 0.6234 0.11615 0.0
C948 C 1.01934 0.63265 0.20876 0.0
H949 H 0.14881 0.63378 0.26792 0.0
C950 C 0.96612 0.63244 0.2314 0.0
C951 C 0.08603 0.63317 0.222 0.0
C952 C 0.14497 0.6338 0.19878 0.0
C953 C 0.97785 0.63256 0.26706 0.0
C954 C 0.04455 0.63314 0.28033 0.0
C955 C 0.09777 0.63333 0.25766 0.0
C956 C 0.06014 0.6336 0.31768 0.0
C957 C 0.9188 0.63183 0.2902 0.0
C958 C 0.0364 0.64224 0.33751 0.0
C959 C 0.04985 0.64254 0.37285 0.0
C960 C 0.08785 0.63423 0.38898 0.0
C961 C 0.1131 0.62574 0.36888 0.0
C962 C 0.09943 0.62544 0.33352 0.0
H963 H 0.87371 0.6285 0.27647 0.0
H964 H 0.93064 0.62661 0.31284 0.0
H965 H 0.90626 0.64011 0.29951 0.0
H966 H 1.00734 0.64877 0.32565 0.0
H967 H 1.03007 0.64924 0.38751 0.0
H968 H 0.92416 0.61907 0.87707 0.0
H969 H 0.94887 0.61849 0.816 0.0
H970 H 0.05589 0.64891 0.82593 0.0
H971 H 1.03242 0.6495 0.88694 0.0
H972 H 0.91778 0.63331 0.7636 0.0
H973 H 0.19315 0.62889 0.78251 0.0
H974 H 0.13568 0.62691 0.81679 0.0
H975 H 0.15876 0.64045 0.80404 0.0
C976 C 0.95281 0.62565 0.86625 0.0
C977 C 0.97674 0.63429 0.88695 0.0
C978 C 0.96692 0.6253 0.83137 0.0
C979 C 1.00535 0.63354 0.81663 0.0
C980 C 1.02756 0.64233 0.83698 0.0
H981 H 0.13989 0.64754 0.61211 0.0
H982 H 0.11627 0.64772 0.67331 0.0
C983 C 1.01368 0.64268 0.87183 0.0
C984 C 1.02177 0.63302 0.77989 0.0
H985 H 0.15264 0.63222 0.72554 0.0
C986 C 0.96908 0.633 0.75525 0.0
C987 C 0.08881 0.63263 0.76913 0.0
C988 C 0.1474 0.63212 0.79447 0.0
C989 C 0.98164 0.63284 0.72005 0.0
C990 C 0.04865 0.63252 0.70931 0.0
C991 C 0.10135 0.6325 0.73392 0.0
C992 C 0.06499 0.63218 0.67257 0.0
C993 C 0.92316 0.63325 0.69462 0.0
C994 C 0.04534 0.62327 0.65214 0.0
C995 C 0.0588 0.62312 0.61722 0.0
C996 C 0.09245 0.63189 0.60208 0.0
C997 C 0.11375 0.64067 0.62289 0.0
C998 C 0.10029 0.6408 0.65786 0.0
H999 H 0.87655 0.63608 0.7067 0.0
H1000 H 0.93406 0.63875 0.67288 0.0
H1001 H 0.91388 0.62496 0.68415 0.0
H1002 H 1.01919 0.61644 0.66318 0.0
H1003 H 0.04198 0.6162 0.60205 0.0
H1004 H 1.03312 0.3962 0.60353 0.0
H1005 H 0.05524 0.39569 0.66544 0.0
H1006 H 0.95052 0.36504 0.67139 0.0
H1007 H 0.92897 0.36537 0.60936 0.0
H1008 H 0.96713 0.39481 0.7191 0.0
H1009 H 0.13127 0.35824 0.71863 0.0
H1010 H 0.10806 0.36561 0.68001 0.0
H1011 H 0.05016 0.35622 0.69846 0.0
C1012 C 1.01465 0.38934 0.61794 0.0
C1013 C 0.97963 0.38079 0.60139 0.0
C1014 C 1.02737 0.38907 0.65335 0.0
C1015 C 1.00559 0.38024 0.67289 0.0
C1016 C 0.9691 0.37182 0.65665 0.0
H1017 H 1.03128 0.3643 0.88936 0.0
H1018 H 1.00837 0.3647 0.82743 0.0
C1019 C 0.95644 0.37207 0.62121 0.0
C1020 C 1.0208 0.37989 0.7103 0.0
H1021 H 0.10132 0.36499 0.77305 0.0
C1022 C 0.99667 0.38832 0.7309 0.0
C1023 C 0.05945 0.37141 0.72559 0.0
C1024 C 0.08932 0.3624 0.70454 0.0
C1025 C 1.00922 0.38841 0.76651 0.0
C1026 C 0.0477 0.37992 0.78177 0.0
C1027 C 0.07178 0.37148 0.76121 0.0
C1028 C 0.06318 0.37962 0.81911 0.0
C1029 C 0.98014 0.39747 0.78761 0.0
C1030 C 0.10268 0.38778 0.83479 0.0
C1031 C 0.11604 0.38758 0.87018 0.0
C1032 C 0.09019 0.37919 0.89049 0.0
C1033 C 0.05176 0.3709 0.87452 0.0
C1034 C 0.03862 0.3711 0.83914 0.0
H1035 H 0.93943 0.40188 0.77335 0.0
H1036 H 0.96 0.39423 0.8118 0.0
H1037 H 1.0202 0.40342 0.79443 0.0
H1038 H 0.12307 0.39432 0.81965 0.0
H1039 H 0.14598 0.39406 0.88162 0.0
H1040 H 0.53506 0.8647 0.12208 0.0
H1041 H 0.51268 0.86533 0.18325 0.0
H1042 H 0.623 0.89545 0.1928 0.0
H1043 H 0.64535 0.89495 0.13145 0.0
H1044 H 0.60525 0.86626 0.24034 0.0
H1045 H 0.43833 0.90255 0.23298 0.0
H1046 H 0.46013 0.8948 0.19557 0.0
H1047 H 0.51912 0.90424 0.21459 0.0
C1048 C 0.55476 0.87146 0.13713 0.0
C1049 C 0.59172 0.87981 0.12181 0.0
C1050 C 0.54192 0.87179 0.1721 0.0
C1051 C 0.56532 0.88051 0.19237 0.0
C1052 C 0.60351 0.88874 0.17741 0.0
H1053 H 0.5273 0.89721 0.40675 0.0
H1054 H 0.55106 0.89684 0.34572 0.0
C1055 C 0.61658 0.8884 0.14241 0.0
C1056 C 0.54967 0.88094 0.22919 0.0
H1057 H 0.46489 0.89562 0.28832 0.0
C1058 C 0.57447 0.87266 0.25088 0.0
C1059 C 0.50951 0.88931 0.24275 0.0
C1060 C 0.47966 0.8982 0.2203 0.0
C1061 C 0.56097 0.87259 0.28597 0.0
C1062 C 0.52042 0.88092 0.29951 0.0
C1063 C 0.49582 0.88923 0.27783 0.0
C1064 C 0.50366 0.88123 0.33624 0.0
C1065 C 0.59144 0.86374 0.30837 0.0
C1066 C 0.46774 0.87268 0.35097 0.0
C1067 C 0.45412 0.87284 0.38591 0.0
C1068 C 0.47579 0.88161 0.4067 0.0
C1069 C 0.51002 0.89031 0.39157 0.0
C1070 C 0.52368 0.89012 0.35667 0.0
H1071 H 0.6345 0.85974 0.29608 0.0
H1072 H 0.60879 0.86707 0.3336 0.0
H1073 H 0.55306 0.85742 0.31297 0.0
H1074 H 0.45054 0.86585 0.33547 0.0
H1075 H 0.42732 0.86604 0.39666 0.0
H1076 H 0.5079 0.15328 0.11611 0.0
H1077 H 0.52945 0.15389 0.17814 0.0
H1078 H 0.44271 0.12191 0.18813 0.0
H1079 H 0.42002 0.12126 0.12629 0.0
H1080 H 0.40202 0.1366 0.23813 0.0
H1081 H 0.67903 0.13662 0.22759 0.0
H1082 H 0.63625 0.14735 0.20447 0.0
H1083 H 0.62303 0.1334 0.19182 0.0
C1084 C 0.49295 0.1464 0.13148 0.0
C1085 C 0.46261 0.13719 0.11611 0.0
C1086 C 0.50576 0.14674 0.16693 0.0
C1087 C 0.48893 0.13786 0.18764 0.0
C1088 C 0.45652 0.12883 0.17257 0.0
H1089 H 0.53423 0.11856 0.40017 0.0
H1090 H 0.50893 0.11995 0.33871 0.0
C1091 C 0.44357 0.12848 0.13718 0.0
C1092 C 0.50565 0.13787 0.22496 0.0
H1093 H 0.63688 0.13836 0.28329 0.0
C1094 C 0.45335 0.13699 0.24803 0.0
C1095 C 0.57269 0.13839 0.23779 0.0
C1096 C 0.63113 0.1389 0.21419 0.0
C1097 C 0.46622 0.13667 0.2836 0.0
C1098 C 0.53328 0.13705 0.2964 0.0
C1099 C 0.58554 0.13808 0.27338 0.0
C1100 C 0.55027 0.13614 0.33358 0.0
C1101 C 0.40784 0.13605 0.3072 0.0
C1102 C 0.58399 0.14464 0.3509 0.0
C1103 C 0.59902 0.14386 0.38609 0.0
C1104 C 0.58091 0.13451 0.40456 0.0
C1105 C 0.54855 0.1259 0.38687 0.0
C1106 C 0.53361 0.12671 0.35173 0.0
H1107 H 0.36043 0.13879 0.29423 0.0
H1108 H 0.40102 0.12747 0.31542 0.0
H1109 H 0.41703 0.14111 0.33049 0.0
H1110 H 0.59777 0.15196 0.33727 0.0
H1111 H 0.62406 0.15063 0.39885 0.0
H1112 H 0.53843 0.11388 0.90689 0.0
H1113 H 0.56749 0.11337 0.84629 0.0
H1114 H 0.46123 0.14357 0.82875 0.0
H1115 H 0.43252 0.14424 0.889 0.0
H1116 H 0.48428 0.11364 0.78573 0.0
H1117 H 0.64954 0.14992 0.79394 0.0
H1118 H 0.62239 0.14273 0.83143 0.0
H1119 H 0.56731 0.15228 0.8098 0.0
C1120 C 0.52097 0.12039 0.89011 0.0
C1121 C 0.48356 0.12915 0.90291 0.0
C1122 C 0.53769 0.12008 0.85551 0.0
C1123 C 0.51764 0.12854 0.83325 0.0
C1124 C 0.47848 0.13708 0.8457 0.0
H1125 H 0.53629 0.14666 0.62217 0.0
H1126 H 0.51984 0.14492 0.68368 0.0
C1127 C 0.46178 0.13741 0.88016 0.0
C1128 C 0.53748 0.12853 0.79695 0.0
H1129 H 0.61828 0.14375 0.73772 0.0
C1130 C 0.51423 0.12014 0.77524 0.0
C1131 C 0.57679 0.13701 0.78345 0.0
C1132 C 0.60606 0.14594 0.80591 0.0
C1133 C 0.52683 0.12025 0.73999 0.0
C1134 C 0.56447 0.12891 0.72634 0.0
C1135 C 0.58921 0.13714 0.74825 0.0
C1136 C 0.576 0.1299 0.68913 0.0
C1137 C 0.49763 0.11136 0.7174 0.0
C1138 C 0.614 0.12211 0.6719 0.0
C1139 C 0.62365 0.12308 0.63665 0.0
C1140 C 0.59553 0.13189 0.61807 0.0
C1141 C 0.5585 0.13976 0.63562 0.0
C1142 C 0.54904 0.13879 0.6708 0.0
H1143 H 0.45898 0.10655 0.73061 0.0
H1144 H 0.47481 0.11484 0.6935 0.0
H1145 H 0.53823 0.10571 0.71008 0.0
H1146 H 0.63621 0.11528 0.68573 0.0
H1147 H 0.65258 0.11689 0.62394 0.0
H1148 H 0.53686 0.86442 0.62146 0.0
H1149 H 0.55837 0.86486 0.68344 0.0
H1150 H 0.44477 0.89466 0.69026 0.0
H1151 H 0.42324 0.89434 0.62815 0.0
H1152 H 0.57325 0.89506 0.72462 0.0
H1153 H 0.425 0.85866 0.75988 0.0
H1154 H 0.4833 0.85644 0.72638 0.0
H1155 H 0.41359 0.86551 0.71915 0.0
C1156 C 0.51596 0.87103 0.63612 0.0
C1157 C 0.47816 0.87933 0.61985 0.0
C1158 C 0.52808 0.87124 0.67157 0.0
C1159 C 0.50249 0.87972 0.69143 0.0
C1160 C 0.46464 0.88801 0.67535 0.0
H1161 H 0.53669 0.89725 0.90693 0.0
H1162 H 0.51511 0.89697 0.84499 0.0
C1163 C 0.45228 0.8878 0.63988 0.0
C1164 C 0.51737 0.88014 0.72881 0.0
H1165 H 0.49501 0.8664 0.80364 0.0
C1166 C 0.5559 0.88884 0.74198 0.0
C1167 C 0.49487 0.87197 0.75126 0.0
C1168 C 0.45141 0.86266 0.7386 0.0
C1169 C 0.57362 0.88948 0.77702 0.0
C1170 C 0.55104 0.88131 0.79951 0.0
C1171 C 0.51241 0.87263 0.78631 0.0
C1172 C 0.56624 0.88167 0.83691 0.0
C1173 C 0.61762 0.89875 0.78952 0.0
C1174 C 0.60123 0.87306 0.85302 0.0
C1175 C 0.61332 0.87315 0.8885 0.0
C1176 C 0.59028 0.88183 0.90857 0.0
C1177 C 0.55554 0.89047 0.89227 0.0
C1178 C 0.54342 0.89036 0.85681 0.0
H1179 H 0.64519 0.90252 0.76825 0.0
H1180 H 0.58589 0.90514 0.80094 0.0
H1181 H 0.65451 0.89594 0.8095 0.0
H1182 H 0.61898 0.86625 0.83811 0.0
H1183 H 0.64006 0.86635 0.9002 0.0
loop_
_geom_bond_atom_site_label_1
_geom_bond_atom_site_label_2
_geom_bond_distance
_geom_bond_site_symmetry_2
_ccdc_geom_bond_type
Eu0 C9 2.828 . S
Eu0 O11 2.392 1_455 S
Eu0 O13 2.418 . S
Eu0 O18 2.373 . S
Eu0 O21 2.488 . S
Eu0 O22 2.471 1_554 S
Eu0 O23 2.349 1_554 S
Eu1 O10 2.373 1_454 S
Eu1 O14 2.488 1_554 S
Eu1 O15 2.471 . S
Eu1 O16 2.349 . S
Eu1 O19 2.392 . S
Eu1 O20 2.418 1_554 S
Eu1 C30 2.828 . S
C2 O20 1.244 . S
C2 O23 1.265 . S
C3 C4 1.379 1_554 S
C3 C7 1.373 . S
C3 C9 1.505 . S
C4 C3 1.379 1_556 S
C4 C6 1.369 . S
C4 H32 0.930 . S
C5 C7 1.383 . S
C5 C8 1.382 1_554 S
C5 H33 0.930 . S
C6 C4 1.369 . S
C6 C8 1.392 . S
C6 H34 0.930 . S
C7 C3 1.373 . S
C7 C5 1.383 . S
C7 H35 0.931 . S
C8 C5 1.382 1_556 S
C8 C6 1.392 . S
C9 Eu0 2.828 . S
C9 C3 1.505 . S
C9 O21 1.249 . S
C9 O22 1.244 1_554 S
O10 Eu1 2.373 1_656 S
O10 C12 1.258 1_556 S
O11 Eu0 2.392 1_655 S
O11 C12 1.242 . S
C12 O10 1.258 1_554 S
C12 O11 1.242 . S
O13 Eu0 2.418 . S
O13 C17 1.244 . S
O14 Eu1 2.488 1_556 S
O14 C30 1.249 1_556 S
O15 Eu1 2.471 . S
O15 C30 1.244 . S
O16 Eu1 2.349 . S
O16 C17 1.265 . S
C17 O13 1.244 . S
C17 O16 1.265 . S
O18 Eu0 2.373 . S
O18 C31 1.258 . S
O19 Eu1 2.392 . S
O19 C31 1.242 . S
O20 Eu1 2.418 1_556 S
O20 C2 1.244 . S
O21 Eu0 2.488 . S
O21 C9 1.249 . S
O22 Eu0 2.471 1_556 S
O22 C9 1.244 1_556 S
O23 Eu0 2.349 1_556 S
O23 C2 1.265 . S
C24 C25 1.379 . S
C24 C28 1.373 1_554 S
C24 C30 1.505 1_655 S
C25 C24 1.379 . S
C25 C27 1.369 . S
C25 H36 0.930 . S
C26 C28 1.383 . S
C26 C29 1.382 1_556 S
C26 H37 0.930 . S
C27 C25 1.369 . S
C27 C29 1.392 . S
C27 H38 0.930 . S
C28 C24 1.373 1_556 S
C28 C26 1.383 . S
C28 H39 0.939 . S
C29 C26 1.382 1_554 S
C29 C27 1.392 . S
C30 Eu1 2.828 . S
C30 O14 1.249 1_554 S
C30 O15 1.244 . S
C30 C24 1.505 1_455 S
C31 O18 1.258 . S
C31 O19 1.242 . S
H32 C4 0.930 . S
H33 C5 0.930 . S
H34 C6 0.930 . S
H35 C7 0.931 . S
H36 C25 0.930 . S
H37 C26 0.930 . S
H38 C27 0.930 . S
H39 C28 0.939 . S
Eu40 C49 2.828 . S
Eu40 O51 2.392 . S
Eu40 O53 2.418 . S
Eu40 O58 2.373 1_655 S
Eu40 O61 2.488 . S
Eu40 O62 2.471 1_554 S
Eu40 O63 2.349 1_554 S
Eu41 O50 2.372 1_554 S
Eu41 O54 2.483 1_554 S
Eu41 O55 2.480 . S
Eu41 O56 2.361 . S
Eu41 O59 2.392 1_655 S
Eu41 O60 2.402 1_554 S
Eu41 C70 2.830 . S
C42 O60 1.244 . S
C42 O63 1.265 . S
C43 C44 1.379 1_554 S
C43 C47 1.373 . S
C43 C49 1.505 1_455 S
C44 C43 1.379 1_556 S
C44 C46 1.369 . S
C44 H72 0.930 . S
C45 C47 1.383 . S
C45 C48 1.382 1_554 S
C45 H73 0.930 . S
C46 C44 1.369 . S
C46 C48 1.392 . S
C46 H74 0.930 . S
C47 C43 1.373 . S
C47 C45 1.383 . S
C47 H75 0.940 . S
C48 C45 1.382 1_556 S
C48 C46 1.392 . S
C49 Eu40 2.828 . S
C49 C43 1.505 1_655 S
C49 O61 1.249 . S
C49 O62 1.244 1_554 S
O50 Eu41 2.372 1_556 S
O50 C52 1.258 1_556 S
O51 Eu40 2.392 . S
O51 C52 1.242 . S
C52 O50 1.258 1_554 S
C52 O51 1.242 . S
O53 Eu40 2.418 . S
O53 C57 1.244 . S
O54 Eu41 2.483 1_556 S
O54 C70 1.249 1_556 S
O55 Eu41 2.480 . S
O55 C70 1.244 . S
O56 Eu41 2.361 . S
O56 C57 1.265 . S
C57 O53 1.244 . S
C57 O56 1.265 . S
O58 Eu40 2.373 1_455 S
O58 C71 1.258 . S
O59 Eu41 2.392 1_455 S
O59 C71 1.242 . S
O60 Eu41 2.402 1_556 S
O60 C42 1.244 . S
O61 Eu40 2.488 . S
O61 C49 1.249 . S
O62 Eu40 2.471 1_556 S
O62 C49 1.244 1_556 S
O63 Eu40 2.349 1_556 S
O63 C42 1.265 . S
C64 C65 1.379 . S
C64 C68 1.373 1_554 S
C64 C70 1.505 . S
C65 C64 1.379 . S
C65 C67 1.369 . S
C65 H76 0.930 . S
C66 C68 1.383 . S
C66 C69 1.382 1_556 S
C66 H77 0.930 . S
C67 C65 1.369 . S
C67 C69 1.392 . S
C67 H78 0.930 . S
C68 C64 1.373 1_556 S
C68 C66 1.383 . S
C68 H79 0.931 . S
C69 C66 1.382 1_554 S
C69 C67 1.392 . S
C70 Eu41 2.830 . S
C70 O54 1.249 1_554 S
C70 O55 1.244 . S
C70 C64 1.505 . S
C71 O58 1.258 . S
C71 O59 1.242 . S
H72 C44 0.930 . S
H73 C45 0.930 . S
H74 C46 0.930 . S
H75 C47 0.940 . S
H76 C65 0.930 . S
H77 C66 0.930 . S
H78 C67 0.930 . S
H79 C68 0.931 . S
Eu80 C89 2.828 . S
Eu80 O91 2.392 . S
Eu80 O93 2.418 . S
Eu80 O98 2.373 1_455 S
Eu80 O101 2.488 . S
Eu80 O102 2.471 . S
Eu80 O103 2.349 . S
Eu81 O90 2.373 . S
Eu81 O94 2.488 . S
Eu81 O95 2.471 . S
Eu81 O96 2.349 . S
Eu81 O99 2.392 1_455 S
Eu81 O100 2.418 . S
Eu81 C110 2.828 . S
C82 O100 1.244 . S
C82 O103 1.265 . S
C83 C84 1.379 . S
C83 C87 1.373 . S
C83 C89 1.505 1_655 S
C84 C83 1.379 . S
C84 C86 1.369 . S
C84 H112 0.930 . S
C85 C87 1.383 . S
C85 C88 1.382 . S
C85 H113 0.930 . S
C86 C84 1.369 . S
C86 C88 1.392 . S
C86 H114 0.930 . S
C87 C83 1.373 . S
C87 C85 1.383 . S
C87 H115 0.939 . S
C88 C85 1.382 . S
C88 C86 1.392 . S
C89 Eu80 2.828 . S
C89 C83 1.505 1_455 S
C89 O101 1.249 . S
C89 O102 1.244 . S
O90 Eu81 2.373 . S
O90 C92 1.258 . S
O91 Eu80 2.392 . S
O91 C92 1.242 . S
C92 O90 1.258 . S
C92 O91 1.242 . S
O93 Eu80 2.418 . S
O93 C97 1.244 . S
O94 Eu81 2.488 . S
O94 C110 1.249 . S
O95 Eu81 2.471 . S
O95 C110 1.244 . S
O96 Eu81 2.349 . S
O96 C97 1.265 . S
C97 O93 1.244 . S
C97 O96 1.265 . S
O98 Eu80 2.373 1_655 S
O98 C111 1.258 . S
O99 Eu81 2.392 1_655 S
O99 C111 1.242 . S
O100 Eu81 2.418 . S
O100 C82 1.244 . S
O101 Eu80 2.488 . S
O101 C89 1.249 . S
O102 Eu80 2.471 . S
O102 C89 1.244 . S
O103 Eu80 2.349 . S
O103 C82 1.265 . S
C104 C105 1.379 . S
C104 C108 1.373 . S
C104 C110 1.505 . S
C105 C104 1.379 . S
C105 C107 1.369 . S
C105 H116 0.930 . S
C106 C108 1.383 . S
C106 C109 1.382 . S
C106 H117 0.930 . S
C107 C105 1.369 . S
C107 C109 1.392 . S
C107 H118 0.930 . S
C108 C104 1.373 . S
C108 C106 1.383 . S
C108 H119 0.931 . S
C109 C106 1.382 . S
C109 C107 1.392 . S
C110 Eu81 2.828 . S
C110 O94 1.249 . S
C110 O95 1.244 . S
C110 C104 1.505 . S
C111 O98 1.258 . S
C111 O99 1.242 . S
H112 C84 0.930 . S
H113 C85 0.930 . S
H114 C86 0.930 . S
H115 C87 0.939 . S
H116 C105 0.930 . S
H117 C106 0.930 . S
H118 C107 0.930 . S
H119 C108 0.931 . S
Eu120 C129 2.828 . S
Eu120 O131 2.392 1_655 S
Eu120 O133 2.418 . S
Eu120 O138 2.373 . S
Eu120 O141 2.488 . S
Eu120 O142 2.471 . S
Eu120 O143 2.349 . S
Eu121 O130 2.373 1_655 S
Eu121 O134 2.488 . S
Eu121 O135 2.471 . S
Eu121 O136 2.349 . S
Eu121 O139 2.392 . S
Eu121 O140 2.418 . S
Eu121 C150 2.828 . S
C122 O140 1.244 . S
C122 O143 1.265 . S
C123 C124 1.379 . S
C123 C127 1.373 . S
C123 C129 1.505 . S
C124 C123 1.379 . S
C124 C126 1.369 . S
C124 H152 0.930 . S
C125 C127 1.383 . S
C125 C128 1.382 . S
C125 H153 0.930 . S
C126 C124 1.369 . S
C126 C128 1.392 . S
C126 H154 0.930 . S
C127 C123 1.373 . S
C127 C125 1.383 . S
C127 H155 0.931 . S
C128 C125 1.382 . S
C128 C126 1.392 . S
C129 Eu120 2.828 . S
C129 C123 1.505 . S
C129 O141 1.249 . S
C129 O142 1.244 . S
O130 Eu121 2.373 1_455 S
O130 C132 1.258 . S
O131 Eu120 2.392 1_455 S
O131 C132 1.242 . S
C132 O130 1.258 . S
C132 O131 1.242 . S
O133 Eu120 2.418 . S
O133 C137 1.244 . S
O134 Eu121 2.488 . S
O134 C150 1.249 . S
O135 Eu121 2.471 . S
O135 C150 1.244 . S
O136 Eu121 2.349 . S
O136 C137 1.265 . S
C137 O133 1.244 . S
C137 O136 1.265 . S
O138 Eu120 2.373 . S
O138 C151 1.258 . S
O139 Eu121 2.392 . S
O139 C151 1.242 . S
O140 Eu121 2.418 . S
O140 C122 1.244 . S
O141 Eu120 2.488 . S
O141 C129 1.249 . S
O142 Eu120 2.471 . S
O142 C129 1.244 . S
O143 Eu120 2.349 . S
O143 C122 1.265 . S
C144 C145 1.379 . S
C144 C148 1.373 . S
C144 C150 1.505 1_455 S
C145 C144 1.379 . S
C145 C147 1.369 . S
C145 H156 0.930 . S
C146 C148 1.383 . S
C146 C149 1.382 . S
C146 H157 0.930 . S
C147 C145 1.369 . S
C147 C149 1.392 . S
C147 H158 0.930 . S
C148 C144 1.373 . S
C148 C146 1.383 . S
C148 H159 0.939 . S
C149 C146 1.382 . S
C149 C147 1.392 . S
C150 Eu121 2.828 . S
C150 O134 1.249 . S
C150 O135 1.244 . S
C150 C144 1.505 1_655 S
C151 O138 1.258 . S
C151 O139 1.242 . S
H152 C124 0.930 . S
H153 C125 0.930 . S
H154 C126 0.930 . S
H155 C127 0.931 . S
H156 C145 0.930 . S
H157 C146 0.930 . S
H158 C147 0.930 . S
H159 C148 0.939 . S
Eu160 C169 2.828 . S
Eu160 O171 2.392 . S
Eu160 O173 2.418 . S
Eu160 O178 2.373 . S
Eu160 O181 2.488 . S
Eu160 O182 2.471 1_554 S
Eu160 O183 2.349 1_554 S
Eu161 O170 2.373 1_554 S
Eu161 O174 2.488 1_554 S
Eu161 O175 2.471 . S
Eu161 O176 2.349 . S
Eu161 O179 2.392 . S
Eu161 O180 2.418 1_554 S
Eu161 C190 2.828 . S
C162 O180 1.244 . S
C162 O183 1.265 . S
C163 C164 1.379 1_554 S
C163 C167 1.373 . S
C163 C169 1.505 . S
C164 C163 1.379 1_556 S
C164 C166 1.369 . S
C164 H192 0.930 . S
C165 C167 1.383 . S
C165 C168 1.382 1_554 S
C165 H193 0.930 . S
C166 C164 1.369 . S
C166 C168 1.392 . S
C166 H194 0.930 . S
C167 C163 1.373 . S
C167 C165 1.383 . S
C167 H195 0.931 . S
C168 C165 1.382 1_556 S
C168 C166 1.392 . S
C169 Eu160 2.828 . S
C169 C163 1.505 . S
C169 O181 1.249 . S
C169 O182 1.244 1_554 S
O170 Eu161 2.373 1_556 S
O170 C172 1.258 1_556 S
O171 Eu160 2.392 . S
O171 C172 1.242 . S
C172 O170 1.258 1_554 S
C172 O171 1.242 . S
O173 Eu160 2.418 . S
O173 C177 1.244 . S
O174 Eu161 2.488 1_556 S
O174 C190 1.249 1_556 S
O175 Eu161 2.471 . S
O175 C190 1.244 . S
O176 Eu161 2.349 . S
O176 C177 1.265 . S
C177 O173 1.244 . S
C177 O176 1.265 . S
O178 Eu160 2.373 . S
O178 C191 1.258 . S
O179 Eu161 2.392 . S
O179 C191 1.242 . S
O180 Eu161 2.418 1_556 S
O180 C162 1.244 . S
O181 Eu160 2.488 . S
O181 C169 1.249 . S
O182 Eu160 2.471 1_556 S
O182 C169 1.244 1_556 S
O183 Eu160 2.349 1_556 S
O183 C162 1.265 . S
C184 C185 1.379 . S
C184 C188 1.373 1_554 S
C184 C190 1.505 . S
C185 C184 1.379 . S
C185 C187 1.369 . S
C185 H196 0.930 . S
C186 C188 1.383 . S
C186 C189 1.382 1_556 S
C186 H197 0.930 . S
C187 C185 1.369 . S
C187 C189 1.392 . S
C187 H198 0.930 . S
C188 C184 1.373 1_556 S
C188 C186 1.383 . S
C188 H199 0.931 . S
C189 C186 1.382 1_554 S
C189 C187 1.392 . S
C190 Eu161 2.828 . S
C190 O174 1.249 1_554 S
C190 O175 1.244 . S
C190 C184 1.505 . S
C191 O178 1.258 . S
C191 O179 1.242 . S
H192 C164 0.930 . S
H193 C165 0.930 . S
H194 C166 0.930 . S
H195 C167 0.931 . S
H196 C185 0.930 . S
H197 C186 0.930 . S
H198 C187 0.930 . S
H199 C188 0.931 . S
Eu200 C209 2.828 . S
Eu200 O211 2.392 . S
Eu200 O213 2.418 . S
Eu200 O218 2.373 . S
Eu200 O221 2.488 . S
Eu200 O222 2.471 1_554 S
Eu200 O223 2.349 1_554 S
Eu201 O210 2.372 1_554 S
Eu201 O214 2.483 1_554 S
Eu201 O215 2.481 . S
Eu201 O216 2.362 . S
Eu201 O219 2.392 . S
Eu201 O220 2.402 1_554 S
Eu201 C230 2.830 . S
C202 O220 1.244 . S
C202 O223 1.265 . S
C203 C204 1.379 1_554 S
C203 C207 1.373 . S
C203 C209 1.505 . S
C204 C203 1.379 1_556 S
C204 C206 1.369 . S
C204 H232 0.930 . S
C205 C207 1.383 . S
C205 C208 1.382 1_554 S
C205 H233 0.930 . S
C206 C204 1.369 . S
C206 C208 1.392 . S
C206 H234 0.930 . S
C207 C203 1.373 . S
C207 C205 1.383 . S
C207 H235 0.931 . S
C208 C205 1.382 1_556 S
C208 C206 1.392 . S
C209 Eu200 2.828 . S
C209 C203 1.505 . S
C209 O221 1.249 . S
C209 O222 1.244 1_554 S
O210 Eu201 2.372 1_556 S
O210 C212 1.258 1_556 S
O211 Eu200 2.392 . S
O211 C212 1.242 . S
C212 O210 1.258 1_554 S
C212 O211 1.242 . S
O213 Eu200 2.418 . S
O213 C217 1.244 . S
O214 Eu201 2.483 1_556 S
O214 C230 1.249 1_556 S
O215 Eu201 2.481 . S
O215 C230 1.244 . S
O216 Eu201 2.362 . S
O216 C217 1.265 . S
C217 O213 1.244 . S
C217 O216 1.265 . S
O218 Eu200 2.373 . S
O218 C231 1.258 . S
O219 Eu201 2.392 . S
O219 C231 1.242 . S
O220 Eu201 2.402 1_556 S
O220 C202 1.244 . S
O221 Eu200 2.488 . S
O221 C209 1.249 . S
O222 Eu200 2.471 1_556 S
O222 C209 1.244 1_556 S
O223 Eu200 2.349 1_556 S
O223 C202 1.265 . S
C224 C225 1.379 . S
C224 C228 1.373 1_554 S
C224 C230 1.505 . S
C225 C224 1.379 . S
C225 C227 1.369 . S
C225 H236 0.930 . S
C226 C228 1.383 . S
C226 C229 1.382 1_556 S
C226 H237 0.930 . S
C227 C225 1.369 . S
C227 C229 1.392 . S
C227 H238 0.930 . S
C228 C224 1.373 1_556 S
C228 C226 1.383 . S
C228 H239 0.931 . S
C229 C226 1.382 1_554 S
C229 C227 1.392 . S
C230 Eu201 2.830 . S
C230 O214 1.249 1_554 S
C230 O215 1.244 . S
C230 C224 1.505 . S
C231 O218 1.258 . S
C231 O219 1.242 . S
H232 C204 0.930 . S
H233 C205 0.930 . S
H234 C206 0.930 . S
H235 C207 0.931 . S
H236 C225 0.930 . S
H237 C226 0.930 . S
H238 C227 0.930 . S
H239 C228 0.931 . S
Eu240 C249 2.828 . S
Eu240 O251 2.392 . S
Eu240 O253 2.418 . S
Eu240 O258 2.373 . S
Eu240 O261 2.488 . S
Eu240 O262 2.471 . S
Eu240 O263 2.349 . S
Eu241 O250 2.373 . S
Eu241 O254 2.488 . S
Eu241 O255 2.471 . S
Eu241 O256 2.349 . S
Eu241 O259 2.392 . S
Eu241 O260 2.418 . S
Eu241 C270 2.828 . S
C242 O260 1.244 . S
C242 O263 1.265 . S
C243 C244 1.379 . S
C243 C247 1.373 . S
C243 C249 1.505 . S
C244 C243 1.379 . S
C244 C246 1.369 . S
C244 H272 0.930 . S
C245 C247 1.383 . S
C245 C248 1.382 . S
C245 H273 0.930 . S
C246 C244 1.369 . S
C246 C248 1.392 . S
C246 H274 0.930 . S
C247 C243 1.373 . S
C247 C245 1.383 . S
C247 H275 0.931 . S
C248 C245 1.382 . S
C248 C246 1.392 . S
C249 Eu240 2.828 . S
C249 C243 1.505 . S
C249 O261 1.249 . S
C249 O262 1.244 . S
O250 Eu241 2.373 . S
O250 C252 1.258 . S
O251 Eu240 2.392 . S
O251 C252 1.242 . S
C252 O250 1.258 . S
C252 O251 1.242 . S
O253 Eu240 2.418 . S
O253 C257 1.244 . S
O254 Eu241 2.488 . S
O254 C270 1.249 . S
O255 Eu241 2.471 . S
O255 C270 1.244 . S
O256 Eu241 2.349 . S
O256 C257 1.265 . S
C257 O253 1.244 . S
C257 O256 1.265 . S
O258 Eu240 2.373 . S
O258 C271 1.258 . S
O259 Eu241 2.392 . S
O259 C271 1.242 . S
O260 Eu241 2.418 . S
O260 C242 1.244 . S
O261 Eu240 2.488 . S
O261 C249 1.249 . S
O262 Eu240 2.471 . S
O262 C249 1.244 . S
O263 Eu240 2.349 . S
O263 C242 1.265 . S
C264 C265 1.379 . S
C264 C268 1.373 . S
C264 C270 1.505 . S
C265 C264 1.379 . S
C265 C267 1.369 . S
C265 H276 0.930 . S
C266 C268 1.383 . S
C266 C269 1.382 . S
C266 H277 0.930 . S
C267 C265 1.369 . S
C267 C269 1.392 . S
C267 H278 0.930 . S
C268 C264 1.373 . S
C268 C266 1.383 . S
C268 H279 0.931 . S
C269 C266 1.382 . S
C269 C267 1.392 . S
C270 Eu241 2.828 . S
C270 O254 1.249 . S
C270 O255 1.244 . S
C270 C264 1.505 . S
C271 O258 1.258 . S
C271 O259 1.242 . S
H272 C244 0.930 . S
H273 C245 0.930 . S
H274 C246 0.930 . S
H275 C247 0.931 . S
H276 C265 0.930 . S
H277 C266 0.930 . S
H278 C267 0.930 . S
H279 C268 0.931 . S
Eu280 C289 2.828 . S
Eu280 O291 2.392 . S
Eu280 O293 2.418 . S
Eu280 O298 2.373 . S
Eu280 O301 2.488 . S
Eu280 O302 2.471 . S
Eu280 O303 2.349 . S
Eu281 O290 2.373 . S
Eu281 O294 2.488 . S
Eu281 O295 2.471 . S
Eu281 O296 2.349 . S
Eu281 O299 2.392 . S
Eu281 O300 2.418 . S
Eu281 C310 2.828 . S
C282 O300 1.244 . S
C282 O303 1.265 . S
C283 C284 1.379 . S
C283 C287 1.373 . S
C283 C289 1.505 . S
C284 C283 1.379 . S
C284 C286 1.369 . S
C284 H312 0.930 . S
C285 C287 1.383 . S
C285 C288 1.382 . S
C285 H313 0.930 . S
C286 C284 1.369 . S
C286 C288 1.392 . S
C286 H314 0.930 . S
C287 C283 1.373 . S
C287 C285 1.383 . S
C287 H315 0.931 . S
C288 C285 1.382 . S
C288 C286 1.392 . S
C289 Eu280 2.828 . S
C289 C283 1.505 . S
C289 O301 1.249 . S
C289 O302 1.244 . S
O290 Eu281 2.373 . S
O290 C292 1.258 . S
O291 Eu280 2.392 . S
O291 C292 1.242 . S
C292 O290 1.258 . S
C292 O291 1.242 . S
O293 Eu280 2.418 . S
O293 C297 1.244 . S
O294 Eu281 2.488 . S
O294 C310 1.249 . S
O295 Eu281 2.471 . S
O295 C310 1.244 . S
O296 Eu281 2.349 . S
O296 C297 1.265 . S
C297 O293 1.244 . S
C297 O296 1.265 . S
O298 Eu280 2.373 . S
O298 C311 1.258 . S
O299 Eu281 2.392 . S
O299 C311 1.242 . S
O300 Eu281 2.418 . S
O300 C282 1.244 . S
O301 Eu280 2.488 . S
O301 C289 1.249 . S
O302 Eu280 2.471 . S
O302 C289 1.244 . S
O303 Eu280 2.349 . S
O303 C282 1.265 . S
C304 C305 1.379 . S
C304 C308 1.373 . S
C304 C310 1.505 . S
C305 C304 1.379 . S
C305 C307 1.369 . S
C305 H316 0.930 . S
C306 C308 1.383 . S
C306 C309 1.382 . S
C306 H317 0.930 . S
C307 C305 1.369 . S
C307 C309 1.392 . S
C307 H318 0.930 . S
C308 C304 1.373 . S
C308 C306 1.383 . S
C308 H319 0.931 . S
C309 C306 1.382 . S
C309 C307 1.392 . S
C310 Eu281 2.828 . S
C310 O294 1.249 . S
C310 O295 1.244 . S
C310 C304 1.505 . S
C311 O298 1.258 . S
C311 O299 1.242 . S
H312 C284 0.930 . S
H313 C285 0.930 . S
H314 C286 0.930 . S
H315 C287 0.931 . S
H316 C305 0.930 . S
H317 C306 0.930 . S
H318 C307 0.930 . S
H319 C308 0.931 . S
H320 C328 0.929 1_556 S
H321 C330 0.922 1_556 S
H322 C332 0.930 . S
H323 C335 0.929 . S
H324 C338 0.930 . S
H325 C340 0.960 . S
H326 C340 0.960 . S
H327 C340 0.960 . S
C328 H320 0.929 1_554 S
C328 C329 1.377 . S
C328 C330 1.386 . S
C329 C328 1.377 . S
C329 C335 1.390 . S
C330 H321 0.922 1_554 S
C330 C328 1.386 . S
C330 C331 1.379 . S
C331 C330 1.379 . S
C331 C332 1.400 . S
C331 C336 1.490 . S
C332 H322 0.930 . S
C332 C331 1.400 . S
C332 C335 1.386 . S
H333 C349 0.930 . S
H334 C350 0.931 . S
C335 H323 0.929 . S
C335 C329 1.390 . S
C335 C332 1.386 . S
C336 C331 1.490 . S
C336 C338 1.395 . S
C336 C339 1.403 1_554 S
H337 C343 0.930 . S
C338 H324 0.930 . S
C338 C336 1.395 . S
C338 C341 1.403 . S
C339 C336 1.403 1_556 S
C339 C340 1.524 . S
C339 C343 1.400 . S
C340 H325 0.960 . S
C340 H326 0.960 . S
C340 H327 0.960 . S
C340 C339 1.524 . S
C341 C338 1.403 . S
C341 C342 1.392 . S
C341 C345 1.495 . S
C342 C341 1.392 . S
C342 C343 1.385 1_554 S
C342 C344 1.478 . S
C343 H337 0.930 . S
C343 C339 1.400 . S
C343 C342 1.385 1_556 S
C344 C342 1.478 . S
C344 C346 1.373 1_554 S
C344 C350 1.383 . S
C345 C341 1.495 . S
C345 H351 0.959 . S
C345 H352 0.961 . S
C345 H353 0.960 . S
C346 C344 1.373 1_556 S
C346 C347 1.397 . S
C346 H354 0.937 . S
C347 C346 1.397 . S
C347 C348 1.383 1_556 S
C347 H355 0.929 . S
C348 C347 1.383 1_554 S
C348 C349 1.377 . S
C349 H333 0.930 . S
C349 C348 1.377 . S
C349 C350 1.379 . S
C350 H334 0.931 . S
C350 C344 1.383 . S
C350 C349 1.379 . S
H351 C345 0.959 . S
H352 C345 0.961 . S
H353 C345 0.960 . S
H354 C346 0.937 . S
H355 C347 0.929 . S
H356 C364 0.929 . S
H357 C366 0.930 . S
H358 C368 0.930 . S
H359 C371 0.929 . S
H360 C374 0.930 . S
H361 C376 0.960 . S
H362 C376 0.960 . S
H363 C376 0.960 . S
C364 H356 0.929 . S
C364 C365 1.377 . S
C364 C366 1.384 . S
C365 C364 1.377 . S
C365 C371 1.390 . S
C366 H357 0.930 . S
C366 C364 1.384 . S
C366 C367 1.372 . S
C367 C366 1.372 . S
C367 C368 1.400 . S
C367 C372 1.490 . S
C368 H358 0.930 . S
C368 C367 1.400 . S
C368 C371 1.386 . S
H369 C385 0.930 . S
H370 C386 0.931 . S
C371 H359 0.929 . S
C371 C365 1.390 . S
C371 C368 1.386 . S
C372 C367 1.490 . S
C372 C374 1.395 1_554 S
C372 C375 1.403 . S
H373 C379 0.930 . S
C374 H360 0.930 . S
C374 C372 1.395 1_556 S
C374 C377 1.403 . S
C375 C372 1.403 . S
C375 C376 1.524 . S
C375 C379 1.400 . S
C376 H361 0.960 . S
C376 H362 0.960 . S
C376 H363 0.960 . S
C376 C375 1.524 . S
C377 C374 1.403 . S
C377 C378 1.392 1_556 S
C377 C381 1.495 . S
C378 C377 1.392 1_554 S
C378 C379 1.385 . S
C378 C380 1.478 . S
C379 H373 0.930 . S
C379 C375 1.400 . S
C379 C378 1.385 . S
C380 C378 1.478 . S
C380 C382 1.381 . S
C380 C386 1.383 1_554 S
C381 C377 1.495 . S
C381 H387 0.959 . S
C381 H388 0.961 . S
C381 H389 0.960 . S
C382 C380 1.381 . S
C382 C383 1.394 . S
C382 H390 0.930 . S
C383 C382 1.394 . S
C383 C384 1.383 . S
C383 H391 0.929 . S
C384 C383 1.383 . S
C384 C385 1.377 1_554 S
C385 H369 0.930 . S
C385 C384 1.377 1_556 S
C385 C386 1.379 . S
C386 H370 0.931 . S
C386 C380 1.383 1_556 S
C386 C385 1.379 . S
H387 C381 0.959 . S
H388 C381 0.961 . S
H389 C381 0.960 . S
H390 C382 0.930 . S
H391 C383 0.929 . S
H392 C400 0.929 . S
H393 C402 0.930 . S
H394 C404 0.930 . S
H395 C407 0.929 . S
H396 C410 0.930 . S
H397 C412 0.960 . S
H398 C412 0.960 . S
H399 C412 0.960 . S
C400 H392 0.929 . S
C400 C401 1.377 . S
C400 C402 1.384 . S
C401 C400 1.377 . S
C401 C407 1.390 . S
C402 H393 0.930 . S
C402 C400 1.384 . S
C402 C403 1.372 . S
C403 C402 1.372 . S
C403 C404 1.400 . S
C403 C408 1.490 . S
C404 H394 0.930 . S
C404 C403 1.400 . S
C404 C407 1.386 . S
H405 C421 0.930 . S
H406 C422 0.931 . S
C407 H395 0.929 . S
C407 C401 1.390 . S
C407 C404 1.386 . S
C408 C403 1.490 . S
C408 C410 1.395 . S
C408 C411 1.403 . S
H409 C415 0.930 . S
C410 H396 0.930 . S
C410 C408 1.395 . S
C410 C413 1.403 . S
C411 C408 1.403 . S
C411 C412 1.524 . S
C411 C415 1.400 . S
C412 H397 0.960 . S
C412 H398 0.960 . S
C412 H399 0.960 . S
C412 C411 1.524 . S
C413 C410 1.403 . S
C413 C414 1.392 . S
C413 C417 1.495 . S
C414 C413 1.392 . S
C414 C415 1.385 . S
C414 C416 1.478 . S
C415 H409 0.930 . S
C415 C411 1.400 . S
C415 C414 1.385 . S
C416 C414 1.478 . S
C416 C418 1.381 . S
C416 C422 1.383 . S
C417 C413 1.495 . S
C417 H423 0.959 . S
C417 H424 0.961 . S
C417 H425 0.960 . S
C418 C416 1.381 . S
C418 C419 1.394 . S
C418 H426 0.930 . S
C419 C418 1.394 . S
C419 C420 1.383 . S
C419 H427 0.929 . S
C420 C419 1.383 . S
C420 C421 1.377 . S
C421 H405 0.930 . S
C421 C420 1.377 . S
C421 C422 1.379 . S
C422 H406 0.931 . S
C422 C416 1.383 . S
C422 C421 1.379 . S
H423 C417 0.959 . S
H424 C417 0.961 . S
H425 C417 0.960 . S
H426 C418 0.930 . S
H427 C419 0.929 . S
H428 C436 0.929 . S
H429 C438 0.930 . S
H430 C440 0.930 . S
H431 C443 0.929 . S
H432 C446 0.930 . S
H433 C448 0.960 . S
H434 C448 0.960 . S
H435 C448 0.960 . S
C436 H428 0.929 . S
C436 C437 1.377 . S
C436 C438 1.384 . S
C437 C436 1.377 . S
C437 C443 1.390 . S
C438 H429 0.930 . S
C438 C436 1.384 . S
C438 C439 1.372 . S
C439 C438 1.372 . S
C439 C440 1.400 . S
C439 C444 1.490 . S
C440 H430 0.930 . S
C440 C439 1.400 . S
C440 C443 1.386 . S
H441 C457 0.930 . S
H442 C458 0.931 . S
C443 H431 0.929 . S
C443 C437 1.390 . S
C443 C440 1.386 . S
C444 C439 1.490 . S
C444 C446 1.395 . S
C444 C447 1.403 . S
H445 C451 0.930 . S
C446 H432 0.930 . S
C446 C444 1.395 . S
C446 C449 1.403 . S
C447 C444 1.403 . S
C447 C448 1.524 . S
C447 C451 1.400 . S
C448 H433 0.960 . S
C448 H434 0.960 . S
C448 H435 0.960 . S
C448 C447 1.524 . S
C449 C446 1.403 . S
C449 C450 1.392 . S
C449 C453 1.495 . S
C450 C449 1.392 . S
C450 C451 1.385 . S
C450 C452 1.478 . S
C451 H445 0.930 . S
C451 C447 1.400 . S
C451 C450 1.385 . S
C452 C450 1.478 . S
C452 C454 1.381 . S
C452 C458 1.383 . S
C453 C449 1.495 . S
C453 H459 0.959 . S
C453 H460 0.961 . S
C453 H461 0.960 . S
C454 C452 1.381 . S
C454 C455 1.394 . S
C454 H462 0.930 . S
C455 C454 1.394 . S
C455 C456 1.383 . S
C455 H463 0.929 . S
C456 C455 1.383 . S
C456 C457 1.377 . S
C457 H441 0.930 . S
C457 C456 1.377 . S
C457 C458 1.379 . S
C458 H442 0.931 . S
C458 C452 1.383 . S
C458 C457 1.379 . S
H459 C453 0.959 . S
H460 C453 0.961 . S
H461 C453 0.960 . S
H462 C454 0.930 . S
H463 C455 0.929 . S
H464 C472 0.929 . S
H465 C474 0.930 . S
H466 C476 0.930 . S
H467 C479 0.929 . S
H468 C482 0.930 1_655 S
H469 C484 0.960 . S
H470 C484 0.960 1_656 S
H471 C484 0.960 1_655 S
C472 H464 0.929 . S
C472 C473 1.377 1_556 S
C472 C474 1.384 . S
C473 C472 1.377 1_554 S
C473 C479 1.390 . S
C474 H465 0.930 . S
C474 C472 1.384 . S
C474 C475 1.372 1_556 S
C475 C474 1.372 1_554 S
C475 C476 1.400 . S
C475 C480 1.490 . S
C476 H466 0.930 . S
C476 C475 1.400 . S
C476 C479 1.386 . S
H477 C493 0.930 . S
H478 C494 0.931 . S
C479 H467 0.929 . S
C479 C473 1.390 . S
C479 C476 1.386 . S
C480 C475 1.490 . S
C480 C482 1.395 1_655 S
C480 C483 1.403 1_655 S
H481 C487 0.930 . S
C482 H468 0.930 1_455 S
C482 C480 1.395 1_455 S
C482 C485 1.403 . S
C483 C480 1.403 1_455 S
C483 C484 1.524 . S
C483 C487 1.400 . S
C484 H469 0.960 . S
C484 H470 0.960 1_454 S
C484 H471 0.960 1_455 S
C484 C483 1.524 . S
C485 C482 1.403 . S
C485 C486 1.392 . S
C485 C489 1.495 . S
C486 C485 1.392 . S
C486 C487 1.385 . S
C486 C488 1.478 . S
C487 H481 0.930 . S
C487 C483 1.400 . S
C487 C486 1.385 . S
C488 C486 1.478 . S
C488 C490 1.381 1_554 S
C488 C494 1.383 . S
C489 C485 1.495 . S
C489 H495 0.959 . S
C489 H496 0.961 . S
C489 H497 0.960 1_554 S
C490 C488 1.381 1_556 S
C490 C491 1.394 . S
C490 H498 0.930 . S
C491 C490 1.394 . S
C491 C492 1.383 1_556 S
C491 H499 0.929 . S
C492 C491 1.383 1_554 S
C492 C493 1.377 . S
C493 H477 0.930 . S
C493 C492 1.377 . S
C493 C494 1.379 . S
C494 H478 0.931 . S
C494 C488 1.383 . S
C494 C493 1.379 . S
H495 C489 0.959 . S
H496 C489 0.961 . S
H497 C489 0.960 1_556 S
H498 C490 0.930 . S
H499 C491 0.929 . S
H500 C508 0.929 . S
H501 C510 0.930 . S
H502 C512 0.930 . S
H503 C515 0.929 . S
H504 C518 0.930 . S
H505 C520 0.960 1_655 S
H506 C520 0.960 . S
H507 C520 0.960 . S
C508 H500 0.929 . S
C508 C509 1.377 . S
C508 C510 1.384 . S
C509 C508 1.377 . S
C509 C515 1.390 1_554 S
C510 H501 0.930 . S
C510 C508 1.384 . S
C510 C511 1.372 . S
C511 C510 1.372 . S
C511 C512 1.400 1_554 S
C511 C516 1.490 . S
C512 H502 0.930 . S
C512 C511 1.400 1_556 S
C512 C515 1.386 . S
H513 C529 0.930 . S
H514 C530 0.931 . S
C515 H503 0.929 . S
C515 C509 1.390 1_556 S
C515 C512 1.386 . S
C516 C511 1.490 . S
C516 C518 1.395 1_455 S
C516 C519 1.403 1_454 S
H517 C523 0.930 . S
C518 H504 0.930 . S
C518 C516 1.395 1_655 S
C518 C521 1.403 . S
C519 C516 1.403 1_656 S
C519 C520 1.524 1_655 S
C519 C523 1.400 . S
C520 H505 0.960 1_455 S
C520 H506 0.960 . S
C520 H507 0.960 . S
C520 C519 1.524 1_455 S
C521 C518 1.403 . S
C521 C522 1.392 . S
C521 C525 1.495 . S
C522 C521 1.392 . S
C522 C523 1.385 1_554 S
C522 C524 1.478 . S
C523 H517 0.930 . S
C523 C519 1.400 . S
C523 C522 1.385 1_556 S
C524 C522 1.478 . S
C524 C526 1.381 . S
C524 C530 1.383 1_554 S
C525 C521 1.495 . S
C525 H531 0.959 . S
C525 H532 0.961 . S
C525 H533 0.960 . S
C526 C524 1.381 . S
C526 C527 1.394 . S
C526 H534 0.930 . S
C527 C526 1.394 . S
C527 C528 1.383 . S
C527 H535 0.929 . S
C528 C527 1.383 . S
C528 C529 1.377 1_554 S
C529 H513 0.930 . S
C529 C528 1.377 1_556 S
C529 C530 1.379 . S
C530 H514 0.931 . S
C530 C524 1.383 1_556 S
C530 C529 1.379 . S
H531 C525 0.959 . S
H532 C525 0.961 . S
H533 C525 0.960 . S
H534 C526 0.930 . S
H535 C527 0.929 . S
H536 C544 0.929 . S
H537 C546 0.930 . S
H538 C548 0.930 . S
H539 C551 0.929 . S
H540 C554 0.930 . S
H541 C556 0.960 . S
H542 C556 0.960 . S
H543 C556 0.960 . S
C544 H536 0.929 . S
C544 C545 1.377 . S
C544 C546 1.384 . S
C545 C544 1.377 . S
C545 C551 1.390 . S
C546 H537 0.930 . S
C546 C544 1.384 . S
C546 C547 1.372 . S
C547 C546 1.372 . S
C547 C548 1.400 . S
C547 C552 1.490 . S
C548 H538 0.930 . S
C548 C547 1.400 . S
C548 C551 1.386 . S
H549 C565 0.930 . S
H550 C566 0.931 . S
C551 H539 0.929 . S
C551 C545 1.390 . S
C551 C548 1.386 . S
C552 C547 1.490 . S
C552 C554 1.395 . S
C552 C555 1.403 . S
H553 C559 0.930 . S
C554 H540 0.930 . S
C554 C552 1.395 . S
C554 C557 1.403 . S
C555 C552 1.403 . S
C555 C556 1.524 . S
C555 C559 1.400 . S
C556 H541 0.960 . S
C556 H542 0.960 . S
C556 H543 0.960 . S
C556 C555 1.524 . S
C557 C554 1.403 . S
C557 C558 1.392 1_455 S
C557 C561 1.495 1_455 S
C558 C557 1.392 1_655 S
C558 C559 1.385 1_655 S
C558 C560 1.478 . S
C559 H553 0.930 . S
C559 C555 1.400 . S
C559 C558 1.385 1_455 S
C560 C558 1.478 . S
C560 C562 1.381 . S
C560 C566 1.383 . S
C561 C557 1.495 1_655 S
C561 H567 0.959 1_655 S
C561 H568 0.961 . S
C561 H569 0.960 . S
C562 C560 1.381 . S
C562 C563 1.394 . S
C562 H570 0.930 . S
C563 C562 1.394 . S
C563 C564 1.383 . S
C563 H571 0.929 . S
C564 C563 1.383 . S
C564 C565 1.377 . S
C565 H549 0.930 . S
C565 C564 1.377 . S
C565 C566 1.379 . S
C566 H550 0.931 . S
C566 C560 1.383 . S
C566 C565 1.379 . S
H567 C561 0.959 1_455 S
H568 C561 0.961 . S
H569 C561 0.960 . S
H570 C562 0.930 . S
H571 C563 0.929 . S
H572 C580 0.929 . S
H573 C582 0.930 . S
H574 C584 0.930 . S
H575 C587 0.929 . S
H576 C590 0.930 . S
H577 C592 0.960 . S
H578 C592 0.960 . S
H579 C592 0.960 . S
C580 H572 0.929 . S
C580 C581 1.377 . S
C580 C582 1.384 . S
C581 C580 1.377 . S
C581 C587 1.390 . S
C582 H573 0.930 . S
C582 C580 1.384 . S
C582 C583 1.372 . S
C583 C582 1.372 . S
C583 C584 1.400 . S
C583 C588 1.490 . S
C584 H574 0.930 . S
C584 C583 1.400 . S
C584 C587 1.386 . S
H585 C601 0.930 . S
H586 C602 0.931 . S
C587 H575 0.929 . S
C587 C581 1.390 . S
C587 C584 1.386 . S
C588 C583 1.490 . S
C588 C590 1.395 . S
C588 C591 1.403 . S
H589 C595 0.930 1_455 S
C590 H576 0.930 . S
C590 C588 1.395 . S
C590 C593 1.403 . S
C591 C588 1.403 . S
C591 C592 1.524 . S
C591 C595 1.400 . S
C592 H577 0.960 . S
C592 H578 0.960 . S
C592 H579 0.960 . S
C592 C591 1.524 . S
C593 C590 1.403 . S
C593 C594 1.392 1_655 S
C593 C597 1.495 . S
C594 C593 1.392 1_455 S
C594 C595 1.385 1_455 S
C594 C596 1.478 . S
C595 H589 0.930 1_655 S
C595 C591 1.400 . S
C595 C594 1.385 1_655 S
C596 C594 1.478 . S
C596 C598 1.381 . S
C596 C602 1.383 . S
C597 C593 1.495 . S
C597 H603 0.959 . S
C597 H604 0.961 1_655 S
C597 H605 0.960 1_655 S
C598 C596 1.381 . S
C598 C599 1.394 . S
C598 H606 0.930 . S
C599 C598 1.394 . S
C599 C600 1.383 . S
C599 H607 0.929 . S
C600 C599 1.383 . S
C600 C601 1.377 . S
C601 H585 0.930 . S
C601 C600 1.377 . S
C601 C602 1.379 . S
C602 H586 0.931 . S
C602 C596 1.383 . S
C602 C601 1.379 . S
H603 C597 0.959 . S
H604 C597 0.961 1_455 S
H605 C597 0.960 1_455 S
H606 C598 0.930 . S
H607 C599 0.929 . S
H608 C616 0.929 . S
H609 C618 0.930 . S
H610 C620 0.930 1_655 S
H611 C623 0.929 . S
H612 C626 0.930 . S
H613 C628 0.960 . S
H614 C628 0.960 . S
H615 C628 0.969 . S
C616 H608 0.929 . S
C616 C617 1.377 . S
C616 C618 1.384 . S
C617 C616 1.377 . S
C617 C623 1.390 1_556 S
C618 H609 0.930 . S
C618 C616 1.384 . S
C618 C619 1.370 . S
C619 C618 1.370 . S
C619 C620 1.401 1_556 S
C619 C624 1.490 1_556 S
C620 H610 0.930 1_455 S
C620 C619 1.401 1_554 S
C620 C623 1.386 . S
H621 C637 0.930 . S
H622 C638 0.931 . S
C623 H611 0.929 . S
C623 C617 1.390 1_554 S
C623 C620 1.386 . S
C624 C619 1.490 1_554 S
C624 C626 1.395 . S
C624 C627 1.403 1_454 S
H625 C631 0.930 1_556 S
C626 H612 0.930 . S
C626 C624 1.395 . S
C626 C629 1.403 . S
C627 C624 1.403 1_656 S
C627 C628 1.524 . S
C627 C631 1.400 1_556 S
C628 H613 0.960 . S
C628 H614 0.960 . S
C628 H615 0.969 . S
C628 C627 1.524 . S
C629 C626 1.403 . S
C629 C630 1.392 1_455 S
C629 C633 1.495 . S
C630 C629 1.392 1_655 S
C630 C631 1.385 . S
C630 C632 1.478 . S
C631 H625 0.930 1_554 S
C631 C627 1.400 1_554 S
C631 C630 1.385 . S
C632 C630 1.478 . S
C632 C634 1.381 1_554 S
C632 C638 1.383 . S
C633 C629 1.495 . S
C633 H639 0.959 . S
C633 H640 0.961 . S
C633 H641 0.960 . S
C634 C632 1.381 1_556 S
C634 C635 1.394 . S
C634 H642 0.930 1_655 S
C635 C634 1.394 . S
C635 C636 1.383 1_556 S
C635 H643 0.929 . S
C636 C635 1.383 1_554 S
C636 C637 1.377 . S
C637 H621 0.930 . S
C637 C636 1.377 . S
C637 C638 1.379 . S
C638 H622 0.931 . S
C638 C632 1.383 . S
C638 C637 1.379 . S
H639 C633 0.959 . S
H640 C633 0.961 . S
H641 C633 0.960 . S
H642 C634 0.930 1_455 S
H643 C635 0.929 . S
H644 C652 0.929 . S
H645 C654 0.930 1_655 S
H646 C656 0.930 . S
H647 C659 0.929 . S
H648 C662 0.930 . S
H649 C664 0.960 . S
H650 C664 0.960 . S
H651 C664 0.960 . S
C652 H644 0.929 . S
C652 C653 1.377 . S
C652 C654 1.384 . S
C653 C652 1.377 . S
C653 C659 1.390 . S
C654 H645 0.930 1_455 S
C654 C652 1.384 . S
C654 C655 1.372 . S
C655 C654 1.372 . S
C655 C656 1.400 . S
C655 C660 1.490 . S
C656 H646 0.930 . S
C656 C655 1.400 . S
C656 C659 1.386 . S
H657 C673 0.930 . S
H658 C674 0.931 1_455 S
C659 H647 0.929 . S
C659 C653 1.390 . S
C659 C656 1.386 . S
C660 C655 1.490 . S
C660 C662 1.395 . S
C660 C663 1.403 1_455 S
H661 C667 0.930 . S
C662 H648 0.930 . S
C662 C660 1.395 . S
C662 C665 1.403 . S
C663 C660 1.403 1_655 S
C663 C664 1.524 . S
C663 C667 1.400 . S
C664 H649 0.960 . S
C664 H650 0.960 . S
C664 H651 0.960 . S
C664 C663 1.524 . S
C665 C662 1.403 . S
C665 C666 1.392 1_455 S
C665 C669 1.495 . S
C666 C665 1.392 1_655 S
C666 C667 1.385 . S
C666 C668 1.478 . S
C667 H661 0.930 . S
C667 C663 1.400 . S
C667 C666 1.385 . S
C668 C666 1.478 . S
C668 C670 1.381 . S
C668 C674 1.383 . S
C669 C665 1.495 . S
C669 H675 0.959 . S
C669 H676 0.961 . S
C669 H677 0.960 . S
C670 C668 1.381 . S
C670 C671 1.394 . S
C670 H678 0.930 . S
C671 C670 1.394 . S
C671 C672 1.383 . S
C671 H679 0.929 . S
C672 C671 1.383 . S
C672 C673 1.377 . S
C673 H657 0.930 . S
C673 C672 1.377 . S
C673 C674 1.379 . S
C674 H658 0.931 1_655 S
C674 C668 1.383 . S
C674 C673 1.379 . S
H675 C669 0.959 . S
H676 C669 0.961 . S
H677 C669 0.960 . S
H678 C670 0.930 . S
H679 C671 0.929 . S
H680 C688 0.929 . S
H681 C690 0.930 . S
H682 C692 0.930 . S
H683 C695 0.929 . S
H684 C698 0.930 . S
H685 C700 0.960 1_545 S
H686 C700 0.960 . S
H687 C700 0.960 . S
C688 H680 0.929 . S
C688 C689 1.377 . S
C688 C690 1.384 . S
C689 C688 1.377 . S
C689 C695 1.390 1_554 S
C690 H681 0.930 . S
C690 C688 1.384 . S
C690 C691 1.372 . S
C691 C690 1.372 . S
C691 C692 1.400 1_554 S
C691 C696 1.490 . S
C692 H682 0.930 . S
C692 C691 1.400 1_556 S
C692 C695 1.386 . S
H693 C709 0.930 . S
H694 C710 0.931 . S
C695 H683 0.929 . S
C695 C689 1.390 1_556 S
C695 C692 1.386 . S
C696 C691 1.490 . S
C696 C698 1.395 . S
C696 C699 1.403 . S
H697 C703 0.930 . S
C698 H684 0.930 . S
C698 C696 1.395 . S
C698 C701 1.403 1_565 S
C699 C696 1.403 . S
C699 C700 1.524 . S
C699 C703 1.400 1_565 S
C700 H685 0.960 1_565 S
C700 H686 0.960 . S
C700 H687 0.960 . S
C700 C699 1.524 . S
C701 C698 1.403 1_545 S
C701 C702 1.392 . S
C701 C705 1.495 1_554 S
C702 C701 1.392 . S
C702 C703 1.385 . S
C702 C704 1.478 . S
C703 H697 0.930 . S
C703 C699 1.400 1_545 S
C703 C702 1.385 . S
C704 C702 1.478 . S
C704 C706 1.386 . S
C704 C710 1.377 1_554 S
C705 C701 1.495 1_556 S
C705 H711 0.959 1_545 S
C705 H712 0.961 . S
C705 H713 0.960 1_556 S
C706 C704 1.386 . S
C706 C707 1.394 . S
C706 H714 0.930 . S
C707 C706 1.394 . S
C707 C708 1.383 1_554 S
C707 H715 0.929 . S
C708 C707 1.383 1_556 S
C708 C709 1.377 . S
C709 H693 0.930 . S
C709 C708 1.377 . S
C709 C710 1.379 . S
C710 H694 0.931 . S
C710 C704 1.377 1_556 S
C710 C709 1.379 . S
H711 C705 0.959 1_565 S
H712 C705 0.961 . S
H713 C705 0.960 1_554 S
H714 C706 0.930 . S
H715 C707 0.929 . S
H716 C724 0.929 . S
H717 C726 0.930 . S
H718 C728 0.930 . S
H719 C731 0.929 . S
H720 C734 0.930 . S
H721 C736 0.960 . S
H722 C736 0.960 . S
H723 C736 0.960 . S
C724 H716 0.929 . S
C724 C725 1.377 . S
C724 C726 1.384 . S
C725 C724 1.377 . S
C725 C731 1.390 . S
C726 H717 0.930 . S
C726 C724 1.384 . S
C726 C727 1.372 . S
C727 C726 1.372 . S
C727 C728 1.400 . S
C727 C732 1.490 . S
C728 H718 0.930 . S
C728 C727 1.400 . S
C728 C731 1.386 . S
H729 C745 0.930 . S
H730 C746 0.931 . S
C731 H719 0.929 . S
C731 C725 1.390 . S
C731 C728 1.386 . S
C732 C727 1.490 . S
C732 C734 1.395 . S
C732 C735 1.403 . S
H733 C739 0.930 . S
C734 H720 0.930 . S
C734 C732 1.395 . S
C734 C737 1.403 1_545 S
C735 C732 1.403 . S
C735 C736 1.524 . S
C735 C739 1.400 1_545 S
C736 H721 0.960 . S
C736 H722 0.960 . S
C736 H723 0.960 . S
C736 C735 1.524 . S
C737 C734 1.403 1_565 S
C737 C738 1.392 . S
C737 C741 1.495 . S
C738 C737 1.392 . S
C738 C739 1.385 . S
C738 C740 1.478 . S
C739 H733 0.930 . S
C739 C735 1.400 1_565 S
C739 C738 1.385 . S
C740 C738 1.478 . S
C740 C742 1.381 . S
C740 C746 1.383 . S
C741 C737 1.495 . S
C741 H747 0.959 . S
C741 H748 0.961 . S
C741 H749 0.960 . S
C742 C740 1.381 . S
C742 C743 1.394 . S
C742 H750 0.930 . S
C743 C742 1.394 . S
C743 C744 1.383 . S
C743 H751 0.929 . S
C744 C743 1.383 . S
C744 C745 1.377 . S
C745 H729 0.930 . S
C745 C744 1.377 . S
C745 C746 1.379 . S
C746 H730 0.931 . S
C746 C740 1.383 . S
C746 C745 1.379 . S
H747 C741 0.959 . S
H748 C741 0.961 . S
H749 C741 0.960 . S
H750 C742 0.930 . S
H751 C743 0.929 . S
H752 C760 0.929 . S
H753 C762 0.930 . S
H754 C764 0.930 . S
H755 C767 0.929 . S
H756 C770 0.930 . S
H757 C772 0.960 . S
H758 C772 0.960 . S
H759 C772 0.960 . S
C760 H752 0.929 . S
C760 C761 1.377 . S
C760 C762 1.384 . S
C761 C760 1.377 . S
C761 C767 1.390 1_556 S
C762 H753 0.930 . S
C762 C760 1.384 . S
C762 C763 1.376 . S
C763 C762 1.376 . S
C763 C764 1.396 1_556 S
C763 C768 1.490 1_556 S
C764 H754 0.930 . S
C764 C763 1.396 1_554 S
C764 C767 1.386 . S
H765 C781 0.930 . S
H766 C782 0.931 . S
C767 H755 0.929 . S
C767 C761 1.390 1_554 S
C767 C764 1.386 . S
C768 C763 1.490 1_554 S
C768 C770 1.395 1_554 S
C768 C771 1.403 . S
H769 C775 0.930 . S
C770 H756 0.930 . S
C770 C768 1.395 1_556 S
C770 C773 1.403 . S
C771 C768 1.403 . S
C771 C772 1.524 . S
C771 C775 1.400 . S
C772 H757 0.960 . S
C772 H758 0.960 . S
C772 H759 0.960 . S
C772 C771 1.524 . S
C773 C770 1.403 . S
C773 C774 1.392 1_556 S
C773 C777 1.495 . S
C774 C773 1.392 1_554 S
C774 C775 1.385 . S
C774 C776 1.478 . S
C775 H769 0.930 . S
C775 C771 1.400 . S
C775 C774 1.385 . S
C776 C774 1.478 . S
C776 C778 1.381 1_554 S
C776 C782 1.383 . S
C777 C773 1.495 . S
C777 H783 0.959 . S
C777 H784 0.961 . S
C777 H785 0.960 . S
C778 C776 1.381 1_556 S
C778 C779 1.394 . S
C778 H786 0.930 . S
C779 C778 1.394 . S
C779 C780 1.383 1_556 S
C779 H787 0.929 . S
C780 C779 1.383 1_554 S
C780 C781 1.377 . S
C781 H765 0.930 . S
C781 C780 1.377 . S
C781 C782 1.379 . S
C782 H766 0.931 . S
C782 C776 1.383 . S
C782 C781 1.379 . S
H783 C777 0.959 . S
H784 C777 0.961 . S
H785 C777 0.960 . S
H786 C778 0.930 . S
H787 C779 0.929 . S
H788 C796 0.929 . S
H789 C798 0.930 . S
H790 C800 0.930 . S
H791 C803 0.929 . S
H792 C806 0.930 . S
H793 C808 0.960 . S
H794 C808 0.960 . S
H795 C808 0.960 . S
C796 H788 0.929 . S
C796 C797 1.377 . S
C796 C798 1.384 . S
C797 C796 1.377 . S
C797 C803 1.390 1_556 S
C798 H789 0.930 . S
C798 C796 1.384 . S
C798 C799 1.366 1_556 S
C799 C798 1.366 1_554 S
C799 C800 1.405 . S
C799 C804 1.491 . S
C800 H790 0.930 . S
C800 C799 1.405 . S
C800 C803 1.386 . S
H801 C817 0.930 . S
H802 C818 0.931 . S
C803 H791 0.929 . S
C803 C797 1.390 1_554 S
C803 C800 1.386 . S
C804 C799 1.491 . S
C804 C806 1.395 1_554 S
C804 C807 1.403 . S
H805 C811 0.930 . S
C806 H792 0.930 . S
C806 C804 1.395 1_556 S
C806 C809 1.403 . S
C807 C804 1.403 . S
C807 C808 1.524 . S
C807 C811 1.400 . S
C808 H793 0.960 . S
C808 H794 0.960 . S
C808 H795 0.960 . S
C808 C807 1.524 . S
C809 C806 1.403 . S
C809 C810 1.392 1_556 S
C809 C813 1.495 . S
C810 C809 1.392 1_554 S
C810 C811 1.385 . S
C810 C812 1.478 . S
C811 H805 0.930 . S
C811 C807 1.400 . S
C811 C810 1.385 . S
C812 C810 1.478 . S
C812 C814 1.381 . S
C812 C818 1.383 . S
C813 C809 1.495 . S
C813 H819 0.959 . S
C813 H820 0.961 . S
C813 H821 0.960 . S
C814 C812 1.381 . S
C814 C815 1.394 . S
C814 H822 0.930 1_554 S
C815 C814 1.394 . S
C815 C816 1.383 . S
C815 H823 0.929 . S
C816 C815 1.383 . S
C816 C817 1.377 . S
C817 H801 0.930 . S
C817 C816 1.377 . S
C817 C818 1.379 . S
C818 H802 0.931 . S
C818 C812 1.383 . S
C818 C817 1.379 . S
H819 C813 0.959 . S
H820 C813 0.961 . S
H821 C813 0.960 . S
H822 C814 0.930 1_556 S
H823 C815 0.929 . S
H824 C832 0.929 . S
H825 C834 0.930 . S
H826 C836 0.930 . S
H827 C839 0.929 . S
H828 C842 0.930 . S
H829 C844 0.960 . S
H830 C844 0.960 . S
H831 C844 0.960 . S
C832 H824 0.929 . S
C832 C833 1.377 . S
C832 C834 1.384 . S
C833 C832 1.377 . S
C833 C839 1.390 . S
C834 H825 0.930 . S
C834 C832 1.384 . S
C834 C835 1.372 . S
C835 C834 1.372 . S
C835 C836 1.400 . S
C835 C840 1.490 . S
C836 H826 0.930 . S
C836 C835 1.400 . S
C836 C839 1.386 . S
H837 C853 0.930 . S
H838 C854 0.931 . S
C839 H827 0.929 . S
C839 C833 1.390 . S
C839 C836 1.386 . S
C840 C835 1.490 . S
C840 C842 1.395 . S
C840 C843 1.403 . S
H841 C847 0.930 . S
C842 H828 0.930 . S
C842 C840 1.395 . S
C842 C845 1.403 . S
C843 C840 1.403 . S
C843 C844 1.524 . S
C843 C847 1.400 . S
C844 H829 0.960 . S
C844 H830 0.960 . S
C844 H831 0.960 . S
C844 C843 1.524 . S
C845 C842 1.403 . S
C845 C846 1.392 . S
C845 C849 1.495 . S
C846 C845 1.392 . S
C846 C847 1.385 . S
C846 C848 1.478 . S
C847 H841 0.930 . S
C847 C843 1.400 . S
C847 C846 1.385 . S
C848 C846 1.478 . S
C848 C850 1.381 . S
C848 C854 1.383 . S
C849 C845 1.495 . S
C849 H855 0.959 . S
C849 H856 0.961 . S
C849 H857 0.960 . S
C850 C848 1.381 . S
C850 C851 1.394 . S
C850 H858 0.930 . S
C851 C850 1.394 . S
C851 C852 1.383 . S
C851 H859 0.929 . S
C852 C851 1.383 . S
C852 C853 1.377 . S
C853 H837 0.930 . S
C853 C852 1.377 . S
C853 C854 1.379 . S
C854 H838 0.931 . S
C854 C848 1.383 . S
C854 C853 1.379 . S
H855 C849 0.959 . S
H856 C849 0.961 . S
H857 C849 0.960 . S
H858 C850 0.930 . S
H859 C851 0.929 . S
H860 C868 0.929 . S
H861 C870 0.930 . S
H862 C872 0.930 . S
H863 C875 0.929 . S
H864 C878 0.930 . S
H865 C880 0.960 . S
H866 C880 0.960 . S
H867 C880 0.960 . S
C868 H860 0.929 . S
C868 C869 1.377 . S
C868 C870 1.384 . S
C869 C868 1.377 . S
C869 C875 1.390 . S
C870 H861 0.930 . S
C870 C868 1.384 . S
C870 C871 1.372 . S
C871 C870 1.372 . S
C871 C872 1.400 . S
C871 C876 1.490 . S
C872 H862 0.930 . S
C872 C871 1.400 . S
C872 C875 1.386 . S
H873 C889 0.930 . S
H874 C890 0.931 . S
C875 H863 0.929 . S
C875 C869 1.390 . S
C875 C872 1.386 . S
C876 C871 1.490 . S
C876 C878 1.395 . S
C876 C879 1.403 . S
H877 C883 0.930 . S
C878 H864 0.930 . S
C878 C876 1.395 . S
C878 C881 1.403 . S
C879 C876 1.403 . S
C879 C880 1.524 . S
C879 C883 1.400 . S
C880 H865 0.960 . S
C880 H866 0.960 . S
C880 H867 0.960 . S
C880 C879 1.524 . S
C881 C878 1.403 . S
C881 C882 1.392 . S
C881 C885 1.495 . S
C882 C881 1.392 . S
C882 C883 1.385 . S
C882 C884 1.478 . S
C883 H877 0.930 . S
C883 C879 1.400 . S
C883 C882 1.385 . S
C884 C882 1.478 . S
C884 C886 1.381 . S
C884 C890 1.383 . S
C885 C881 1.495 . S
C885 H891 0.959 . S
C885 H892 0.961 . S
C885 H893 0.960 . S
C886 C884 1.381 . S
C886 C887 1.394 . S
C886 H894 0.930 . S
C887 C886 1.394 . S
C887 C888 1.383 . S
C887 H895 0.929 . S
C888 C887 1.383 . S
C888 C889 1.377 . S
C889 H873 0.930 . S
C889 C888 1.377 . S
C889 C890 1.379 . S
C890 H874 0.931 . S
C890 C884 1.383 . S
C890 C889 1.379 . S
H891 C885 0.959 . S
H892 C885 0.961 . S
H893 C885 0.960 . S
H894 C886 0.930 . S
H895 C887 0.929 . S
H896 C904 0.929 . S
H897 C906 0.930 1_655 S
H898 C908 0.930 . S
H899 C911 0.929 . S
H900 C914 0.930 . S
H901 C916 0.960 . S
H902 C916 0.960 . S
H903 C916 0.960 . S
C904 H896 0.929 . S
C904 C905 1.377 . S
C904 C906 1.384 . S
C905 C904 1.377 . S
C905 C911 1.390 . S
C906 H897 0.930 1_455 S
C906 C904 1.384 . S
C906 C907 1.372 . S
C907 C906 1.372 . S
C907 C908 1.400 . S
C907 C912 1.490 . S
C908 H898 0.930 . S
C908 C907 1.400 . S
C908 C911 1.386 . S
H909 C925 0.930 . S
H910 C926 0.931 . S
C911 H899 0.929 . S
C911 C905 1.390 . S
C911 C908 1.386 . S
C912 C907 1.490 . S
C912 C914 1.395 1_455 S
C912 C915 1.403 . S
H913 C919 0.930 . S
C914 H900 0.930 . S
C914 C912 1.395 1_655 S
C914 C917 1.403 . S
C915 C912 1.403 . S
C915 C916 1.524 . S
C915 C919 1.400 . S
C916 H901 0.960 . S
C916 H902 0.960 . S
C916 H903 0.960 . S
C916 C915 1.524 . S
C917 C914 1.403 . S
C917 C918 1.392 . S
C917 C921 1.495 . S
C918 C917 1.392 . S
C918 C919 1.385 1_655 S
C918 C920 1.478 . S
C919 H913 0.930 . S
C919 C915 1.400 . S
C919 C918 1.385 1_455 S
C920 C918 1.478 . S
C920 C922 1.381 . S
C920 C926 1.383 . S
C921 C917 1.495 . S
C921 H927 0.959 . S
C921 H928 0.961 . S
C921 H929 0.960 . S
C922 C920 1.381 . S
C922 C923 1.394 . S
C922 H930 0.930 . S
C923 C922 1.394 . S
C923 C924 1.383 . S
C923 H931 0.929 . S
C924 C923 1.383 . S
C924 C925 1.377 . S
C925 H909 0.930 . S
C925 C924 1.377 . S
C925 C926 1.379 . S
C926 H910 0.931 . S
C926 C920 1.383 . S
C926 C925 1.379 . S
H927 C921 0.959 . S
H928 C921 0.961 . S
H929 C921 0.960 . S
H930 C922 0.930 . S
H931 C923 0.929 . S
H932 C940 0.929 . S
H933 C942 0.930 . S
H934 C944 0.930 1_455 S
H935 C947 0.929 . S
H936 C950 0.930 . S
H937 C952 0.960 . S
H938 C952 0.960 . S
H939 C952 0.960 . S
C940 H932 0.929 . S
C940 C941 1.377 . S
C940 C942 1.384 . S
C941 C940 1.377 . S
C941 C947 1.390 . S
C942 H933 0.930 . S
C942 C940 1.384 . S
C942 C943 1.372 . S
C943 C942 1.372 . S
C943 C944 1.400 . S
C943 C948 1.490 . S
C944 H934 0.930 1_655 S
C944 C943 1.400 . S
C944 C947 1.386 . S
H945 C961 0.930 . S
H946 C962 0.931 . S
C947 H935 0.929 . S
C947 C941 1.390 . S
C947 C944 1.386 . S
C948 C943 1.490 . S
C948 C950 1.395 . S
C948 C951 1.403 1_655 S
H949 C955 0.930 . S
C950 H936 0.930 . S
C950 C948 1.395 . S
C950 C953 1.403 . S
C951 C948 1.403 1_455 S
C951 C952 1.524 . S
C951 C955 1.400 . S
C952 H937 0.960 . S
C952 H938 0.960 . S
C952 H939 0.960 . S
C952 C951 1.524 . S
C953 C950 1.403 . S
C953 C954 1.385 1_655 S
C953 C957 1.495 . S
C954 C953 1.385 1_455 S
C954 C955 1.391 . S
C954 C956 1.479 . S
C955 H949 0.930 . S
C955 C951 1.400 . S
C955 C954 1.391 . S
C956 C954 1.479 . S
C956 C958 1.381 . S
C956 C962 1.383 . S
C957 C953 1.495 . S
C957 H963 0.959 . S
C957 H964 0.961 . S
C957 H965 0.960 . S
C958 C956 1.381 . S
C958 C959 1.394 . S
C958 H966 0.930 1_455 S
C959 C958 1.394 . S
C959 C960 1.383 . S
C959 H967 0.929 . S
C960 C959 1.383 . S
C960 C961 1.377 . S
C961 H945 0.930 . S
C961 C960 1.377 . S
C961 C962 1.379 . S
C962 H946 0.931 . S
C962 C956 1.383 . S
C962 C961 1.379 . S
H963 C957 0.959 . S
H964 C957 0.961 . S
H965 C957 0.960 . S
H966 C958 0.930 1_655 S
H967 C959 0.929 . S
H968 C976 0.929 . S
H969 C978 0.930 . S
H970 C980 0.930 . S
H971 C983 0.929 1_455 S
H972 C986 0.930 . S
H973 C988 0.960 . S
H974 C988 0.960 . S
H975 C988 0.960 . S
C976 H968 0.929 . S
C976 C977 1.377 . S
C976 C978 1.384 . S
C977 C976 1.377 . S
C977 C983 1.390 . S
C978 H969 0.930 . S
C978 C976 1.384 . S
C978 C979 1.372 . S
C979 C978 1.372 . S
C979 C980 1.400 1_655 S
C979 C984 1.490 . S
C980 H970 0.930 . S
C980 C979 1.400 1_455 S
C980 C983 1.386 1_455 S
H981 C997 0.930 . S
H982 C998 0.931 . S
C983 H971 0.929 1_655 S
C983 C977 1.390 . S
C983 C980 1.386 1_655 S
C984 C979 1.490 . S
C984 C986 1.395 . S
C984 C987 1.403 1_655 S
H985 C991 0.930 . S
C986 H972 0.930 . S
C986 C984 1.395 . S
C986 C989 1.403 . S
C987 C984 1.403 1_455 S
C987 C988 1.524 . S
C987 C991 1.400 . S
C988 H973 0.960 . S
C988 H974 0.960 . S
C988 H975 0.960 . S
C988 C987 1.524 . S
C989 C986 1.403 . S
C989 C990 1.392 1_655 S
C989 C993 1.495 . S
C990 C989 1.392 1_455 S
C990 C991 1.385 . S
C990 C992 1.478 . S
C991 H985 0.930 . S
C991 C987 1.400 . S
C991 C990 1.385 . S
C992 C990 1.478 . S
C992 C994 1.381 1_455 S
C992 C998 1.383 . S
C993 C989 1.495 . S
C993 H999 0.959 . S
C993 H1000 0.961 . S
C993 H1001 0.960 . S
C994 C992 1.381 1_655 S
C994 C995 1.394 1_655 S
C994 H1002 0.930 . S
C995 C994 1.394 1_455 S
C995 C996 1.383 . S
C995 H1003 0.929 1_455 S
C996 C995 1.383 . S
C996 C997 1.377 . S
C997 H981 0.930 . S
C997 C996 1.377 . S
C997 C998 1.379 . S
C998 H982 0.931 . S
C998 C992 1.383 . S
C998 C997 1.379 . S
H999 C993 0.959 . S
H1000 C993 0.961 . S
H1001 C993 0.960 . S
H1002 C994 0.930 . S
H1003 C995 0.929 1_655 S
H1004 C1012 0.929 1_455 S
H1005 C1014 0.930 . S
H1006 C1016 0.930 . S
H1007 C1019 0.929 . S
H1008 C1022 0.930 . S
H1009 C1024 0.960 . S
H1010 C1024 0.960 . S
H1011 C1024 0.960 . S
C1012 H1004 0.929 1_655 S
C1012 C1013 1.377 . S
C1012 C1014 1.384 1_655 S
C1013 C1012 1.377 . S
C1013 C1019 1.390 . S
C1014 H1005 0.930 . S
C1014 C1012 1.384 1_455 S
C1014 C1015 1.372 1_455 S
C1015 C1014 1.372 1_655 S
C1015 C1016 1.400 . S
C1015 C1020 1.490 . S
C1016 H1006 0.930 . S
C1016 C1015 1.400 . S
C1016 C1019 1.386 . S
H1017 C1033 0.930 1_655 S
H1018 C1034 0.931 . S
C1019 H1007 0.929 . S
C1019 C1013 1.390 . S
C1019 C1016 1.386 . S
C1020 C1015 1.490 . S
C1020 C1022 1.395 . S
C1020 C1023 1.403 1_655 S
H1021 C1027 0.930 . S
C1022 H1008 0.930 . S
C1022 C1020 1.395 . S
C1022 C1025 1.403 . S
C1023 C1020 1.403 1_455 S
C1023 C1024 1.524 . S
C1023 C1027 1.400 . S
C1024 H1009 0.960 . S
C1024 H1010 0.960 . S
C1024 H1011 0.960 . S
C1024 C1023 1.524 . S
C1025 C1022 1.403 . S
C1025 C1026 1.392 1_655 S
C1025 C1029 1.495 . S
C1026 C1025 1.392 1_455 S
C1026 C1027 1.385 . S
C1026 C1028 1.478 . S
C1027 H1021 0.930 . S
C1027 C1023 1.400 . S
C1027 C1026 1.385 . S
C1028 C1026 1.478 . S
C1028 C1030 1.381 . S
C1028 C1034 1.383 1_455 S
C1029 C1025 1.495 . S
C1029 H1035 0.959 . S
C1029 H1036 0.961 . S
C1029 H1037 0.960 . S
C1030 C1028 1.381 . S
C1030 C1031 1.394 . S
C1030 H1038 0.930 . S
C1031 C1030 1.394 . S
C1031 C1032 1.383 . S
C1031 H1039 0.929 . S
C1032 C1031 1.383 . S
C1032 C1033 1.377 . S
C1033 H1017 0.930 1_455 S
C1033 C1032 1.377 . S
C1033 C1034 1.379 1_455 S
C1034 H1018 0.931 . S
C1034 C1028 1.383 1_655 S
C1034 C1033 1.379 1_655 S
H1035 C1029 0.959 . S
H1036 C1029 0.961 . S
H1037 C1029 0.960 . S
H1038 C1030 0.930 . S
H1039 C1031 0.929 . S
H1040 C1048 0.929 . S
H1041 C1050 0.930 . S
H1042 C1052 0.930 . S
H1043 C1055 0.929 . S
H1044 C1058 0.930 . S
H1045 C1060 0.960 . S
H1046 C1060 0.960 . S
H1047 C1060 0.960 . S
C1048 H1040 0.929 . S
C1048 C1049 1.377 . S
C1048 C1050 1.384 . S
C1049 C1048 1.377 . S
C1049 C1055 1.390 . S
C1050 H1041 0.930 . S
C1050 C1048 1.384 . S
C1050 C1051 1.372 . S
C1051 C1050 1.372 . S
C1051 C1052 1.400 . S
C1051 C1056 1.490 . S
C1052 H1042 0.930 . S
C1052 C1051 1.400 . S
C1052 C1055 1.386 . S
H1053 C1069 0.930 . S
H1054 C1070 0.931 . S
C1055 H1043 0.929 . S
C1055 C1049 1.390 . S
C1055 C1052 1.386 . S
C1056 C1051 1.490 . S
C1056 C1058 1.395 . S
C1056 C1059 1.403 . S
H1057 C1063 0.930 . S
C1058 H1044 0.930 . S
C1058 C1056 1.395 . S
C1058 C1061 1.403 . S
C1059 C1056 1.403 . S
C1059 C1060 1.524 . S
C1059 C1063 1.400 . S
C1060 H1045 0.960 . S
C1060 H1046 0.960 . S
C1060 H1047 0.960 . S
C1060 C1059 1.524 . S
C1061 C1058 1.403 . S
C1061 C1062 1.392 . S
C1061 C1065 1.495 . S
C1062 C1061 1.392 . S
C1062 C1063 1.385 . S
C1062 C1064 1.478 . S
C1063 H1057 0.930 . S
C1063 C1059 1.400 . S
C1063 C1062 1.385 . S
C1064 C1062 1.478 . S
C1064 C1066 1.381 . S
C1064 C1070 1.383 . S
C1065 C1061 1.495 . S
C1065 H1071 0.959 . S
C1065 H1072 0.961 . S
C1065 H1073 0.960 . S
C1066 C1064 1.381 . S
C1066 C1067 1.394 . S
C1066 H1074 0.930 . S
C1067 C1066 1.394 . S
C1067 C1068 1.383 . S
C1067 H1075 0.929 . S
C1068 C1067 1.383 . S
C1068 C1069 1.377 . S
C1069 H1053 0.930 . S
C1069 C1068 1.377 . S
C1069 C1070 1.379 . S
C1070 H1054 0.931 . S
C1070 C1064 1.383 . S
C1070 C1069 1.379 . S
H1071 C1065 0.959 . S
H1072 C1065 0.961 . S
H1073 C1065 0.960 . S
H1074 C1066 0.930 . S
H1075 C1067 0.929 . S
H1076 C1084 0.929 . S
H1077 C1086 0.930 . S
H1078 C1088 0.930 . S
H1079 C1091 0.929 . S
H1080 C1094 0.930 . S
H1081 C1096 0.960 . S
H1082 C1096 0.960 . S
H1083 C1096 0.960 . S
C1084 H1076 0.929 . S
C1084 C1085 1.377 . S
C1084 C1086 1.384 . S
C1085 C1084 1.377 . S
C1085 C1091 1.390 . S
C1086 H1077 0.930 . S
C1086 C1084 1.384 . S
C1086 C1087 1.372 . S
C1087 C1086 1.372 . S
C1087 C1088 1.400 . S
C1087 C1092 1.490 . S
C1088 H1078 0.930 . S
C1088 C1087 1.400 . S
C1088 C1091 1.386 . S
H1089 C1105 0.930 . S
H1090 C1106 0.931 . S
C1091 H1079 0.929 . S
C1091 C1085 1.390 . S
C1091 C1088 1.386 . S
C1092 C1087 1.490 . S
C1092 C1094 1.395 . S
C1092 C1095 1.403 . S
H1093 C1099 0.930 . S
C1094 H1080 0.930 . S
C1094 C1092 1.395 . S
C1094 C1097 1.403 . S
C1095 C1092 1.403 . S
C1095 C1096 1.524 . S
C1095 C1099 1.400 . S
C1096 H1081 0.960 . S
C1096 H1082 0.960 . S
C1096 H1083 0.960 . S
C1096 C1095 1.524 . S
C1097 C1094 1.403 . S
C1097 C1098 1.392 . S
C1097 C1101 1.495 . S
C1098 C1097 1.392 . S
C1098 C1099 1.385 . S
C1098 C1100 1.478 . S
C1099 H1093 0.930 . S
C1099 C1095 1.400 . S
C1099 C1098 1.385 . S
C1100 C1098 1.478 . S
C1100 C1102 1.381 . S
C1100 C1106 1.383 . S
C1101 C1097 1.495 . S
C1101 H1107 0.959 . S
C1101 H1108 0.961 . S
C1101 H1109 0.960 . S
C1102 C1100 1.381 . S
C1102 C1103 1.394 . S
C1102 H1110 0.930 . S
C1103 C1102 1.394 . S
C1103 C1104 1.383 . S
C1103 H1111 0.929 . S
C1104 C1103 1.383 . S
C1104 C1105 1.377 . S
C1105 H1089 0.930 . S
C1105 C1104 1.377 . S
C1105 C1106 1.379 . S
C1106 H1090 0.931 . S
C1106 C1100 1.383 . S
C1106 C1105 1.379 . S
H1107 C1101 0.959 . S
H1108 C1101 0.961 . S
H1109 C1101 0.960 . S
H1110 C1102 0.930 . S
H1111 C1103 0.929 . S
H1112 C1120 0.929 . S
H1113 C1122 0.930 . S
H1114 C1124 0.930 . S
H1115 C1127 0.929 . S
H1116 C1130 0.930 . S
H1117 C1132 0.960 . S
H1118 C1132 0.960 . S
H1119 C1132 0.960 . S
C1120 H1112 0.929 . S
C1120 C1121 1.377 . S
C1120 C1122 1.384 . S
C1121 C1120 1.377 . S
C1121 C1127 1.390 . S
C1122 H1113 0.930 . S
C1122 C1120 1.384 . S
C1122 C1123 1.372 . S
C1123 C1122 1.372 . S
C1123 C1124 1.400 . S
C1123 C1128 1.490 . S
C1124 H1114 0.930 . S
C1124 C1123 1.400 . S
C1124 C1127 1.386 . S
H1125 C1141 0.930 . S
H1126 C1142 0.931 . S
C1127 H1115 0.929 . S
C1127 C1121 1.390 . S
C1127 C1124 1.386 . S
C1128 C1123 1.490 . S
C1128 C1130 1.395 . S
C1128 C1131 1.403 . S
H1129 C1135 0.930 . S
C1130 H1116 0.930 . S
C1130 C1128 1.395 . S
C1130 C1133 1.403 . S
C1131 C1128 1.403 . S
C1131 C1132 1.524 . S
C1131 C1135 1.400 . S
C1132 H1117 0.960 . S
C1132 H1118 0.960 . S
C1132 H1119 0.960 . S
C1132 C1131 1.524 . S
C1133 C1130 1.403 . S
C1133 C1134 1.392 . S
C1133 C1137 1.495 . S
C1134 C1133 1.392 . S
C1134 C1135 1.385 . S
C1134 C1136 1.478 . S
C1135 H1129 0.930 . S
C1135 C1131 1.400 . S
C1135 C1134 1.385 . S
C1136 C1134 1.478 . S
C1136 C1138 1.381 . S
C1136 C1142 1.383 . S
C1137 C1133 1.495 . S
C1137 H1143 0.959 . S
C1137 H1144 0.961 . S
C1137 H1145 0.960 . S
C1138 C1136 1.381 . S
C1138 C1139 1.394 . S
C1138 H1146 0.930 . S
C1139 C1138 1.394 . S
C1139 C1140 1.383 . S
C1139 H1147 0.929 . S
C1140 C1139 1.383 . S
C1140 C1141 1.377 . S
C1141 H1125 0.930 . S
C1141 C1140 1.377 . S
C1141 C1142 1.379 . S
C1142 H1126 0.931 . S
C1142 C1136 1.383 . S
C1142 C1141 1.379 . S
H1143 C1137 0.959 . S
H1144 C1137 0.961 . S
H1145 C1137 0.960 . S
H1146 C1138 0.930 . S
H1147 C1139 0.929 . S
H1148 C1156 0.929 . S
H1149 C1158 0.930 . S
H1150 C1160 0.930 . S
H1151 C1163 0.929 . S
H1152 C1166 0.930 . S
H1153 C1168 0.960 . S
H1154 C1168 0.960 . S
H1155 C1168 0.960 . S
C1156 H1148 0.929 . S
C1156 C1157 1.377 . S
C1156 C1158 1.384 . S
C1157 C1156 1.377 . S
C1157 C1163 1.390 . S
C1158 H1149 0.930 . S
C1158 C1156 1.384 . S
C1158 C1159 1.372 . S
C1159 C1158 1.372 . S
C1159 C1160 1.400 . S
C1159 C1164 1.490 . S
C1160 H1150 0.930 . S
C1160 C1159 1.400 . S
C1160 C1163 1.386 . S
H1161 C1177 0.930 . S
H1162 C1178 0.931 . S
C1163 H1151 0.929 . S
C1163 C1157 1.390 . S
C1163 C1160 1.386 . S
C1164 C1159 1.490 . S
C1164 C1166 1.395 . S
C1164 C1167 1.403 . S
H1165 C1171 0.930 . S
C1166 H1152 0.930 . S
C1166 C1164 1.395 . S
C1166 C1169 1.403 . S
C1167 C1164 1.403 . S
C1167 C1168 1.524 . S
C1167 C1171 1.400 . S
C1168 H1153 0.960 . S
C1168 H1154 0.960 . S
C1168 H1155 0.960 . S
C1168 C1167 1.524 . S
C1169 C1166 1.403 . S
C1169 C1170 1.392 . S
C1169 C1173 1.495 . S
C1170 C1169 1.392 . S
C1170 C1171 1.385 . S
C1170 C1172 1.478 . S
C1171 H1165 0.930 . S
C1171 C1167 1.400 . S
C1171 C1170 1.385 . S
C1172 C1170 1.478 . S
C1172 C1174 1.381 . S
C1172 C1178 1.383 . S
C1173 C1169 1.495 . S
C1173 H1179 0.959 . S
C1173 H1180 0.961 . S
C1173 H1181 0.960 . S
C1174 C1172 1.381 . S
C1174 C1175 1.394 . S
C1174 H1182 0.930 . S
C1175 C1174 1.394 . S
C1175 C1176 1.383 . S
C1175 H1183 0.929 . S
C1176 C1175 1.383 . S
C1176 C1177 1.377 . S
C1177 H1161 0.930 . S
C1177 C1176 1.377 . S
C1177 C1178 1.379 . S
C1178 H1162 0.931 . S
C1178 C1172 1.383 . S
C1178 C1177 1.379 . S
H1179 C1173 0.959 . S
H1180 C1173 0.961 . S
H1181 C1173 0.960 . S
H1182 C1174 0.930 . S
H1183 C1175 0.929 . S
C329 C31 2.342 . S
C348 C12 2.345 . S
C365 C71 2.345 . S
C384 C52 2.334 . S
C401 C111 2.346 . S
C420 C92 2.348 . S
C437 C151 2.346 . S
C456 C132 2.348 . S
C473 C191 2.344 . S
C492 C172 2.350 . S
C509 C212 2.341 . S
C528 C231 2.330 . S
C545 C271 2.344 . S
C564 C252 2.330 . S
C581 C292 2.343 . S
C600 C311 2.347 . S
C617 C48 2.399 . S
C636 C29 2.374 . S
C653 C149 2.393 . S
C672 C88 2.386 . S
C689 C189 2.401 . S
C708 C208 2.419 . S
C725 C248 2.395 . S
C744 C309 2.369 . S
C761 C8 1.733 . S
C780 C229 1.716 . S
C797 C168 1.733 . S
C816 C69 1.724 . S
C833 C109 1.736 . S
C852 C288 1.750 . S
C869 C128 1.738 . S
C888 C269 1.756 . S
C905 C17 1.593 . S
C924 C137 1.598 . S
C941 C57 1.523 . S
C960 C97 1.514 . S
C977 C42 1.591 . S
C996 C82 1.563 . S
C1013 C122 1.518 . S
C1032 C2 1.493 . S
C1049 C177 1.586 . S
C1068 C297 1.559 . S
C1085 C217 1.524 . S
C1104 C257 1.496 . S
C1121 C202 1.582 . S
C1140 C242 1.609 . S
C1157 C282 1.522 . S
C1176 C162 1.497 . S
