# Generated by pormake.
# Topology dia-g, (3)-cn, num edge types: 1
# Building blocks:
#     Node 0, Type 0, BuildingBlock: OLANEW_clean_sbu_2, # of connection points: 3
#     Node 1, Type 0, BuildingBlock: OLANEW_clean_sbu_2, # of connection points: 3
#     Node 2, Type 0, BuildingBlock: OLANEW_clean_sbu_2, # of connection points: 3
#     Node 3, Type 0, BuildingBlock: OLANEW_clean_sbu_2, # of connection points: 3
#     Node 4, Type 0, BuildingBlock: OLANEW_clean_sbu_2, # of connection points: 3
#     Node 5, Type 0, BuildingBlock: OLANEW_clean_sbu_2, # of connection points: 3
#     Node 6, Type 0, BuildingBlock: OLANEW_clean_sbu_2, # of connection points: 3
#     Node 7, Type 0, BuildingBlock: OLANEW_clean_sbu_2, # of connection points: 3
#     Node 8, Type 0, BuildingBlock: OLANEW_clean_sbu_2, # of connection points: 3
#     Node 9, Type 0, BuildingBlock: OLANEW_clean_sbu_2, # of connection points: 3
#     Node 10, Type 0, BuildingBlock: OLANEW_clean_sbu_2, # of connection points: 3
#     Node 11, Type 0, BuildingBlock: OLANEW_clean_sbu_2, # of connection points: 3
#     Node 12, Type 0, BuildingBlock: OLANEW_clean_sbu_2, # of connection points: 3
#     Node 13, Type 0, BuildingBlock: OLANEW_clean_sbu_2, # of connection points: 3
#     Node 14, Type 0, BuildingBlock: OLANEW_clean_sbu_2, # of connection points: 3
#     Node 15, Type 0, BuildingBlock: OLANEW_clean_sbu_2, # of connection points: 3
#     Edge 16, Type (0, 0), BuildingBlock: UVAHIK_clean_linker_0, # of connection points: 2
#     Edge 17, Type (0, 0), BuildingBlock: UVAHIK_clean_linker_0, # of connection points: 2
#     Edge 18, Type (0, 0), BuildingBlock: UVAHIK_clean_linker_0, # of connection points: 2
#     Edge 19, Type (0, 0), BuildingBlock: UVAHIK_clean_linker_0, # of connection points: 2
#     Edge 20, Type (0, 0), BuildingBlock: UVAHIK_clean_linker_0, # of connection points: 2
#     Edge 21, Type (0, 0), BuildingBlock: UVAHIK_clean_linker_0, # of connection points: 2
#     Edge 22, Type (0, 0), BuildingBlock: UVAHIK_clean_linker_0, # of connection points: 2
#     Edge 23, Type (0, 0), BuildingBlock: UVAHIK_clean_linker_0, # of connection points: 2
#     Edge 24, Type (0, 0), BuildingBlock: UVAHIK_clean_linker_0, # of connection points: 2
#     Edge 25, Type (0, 0), BuildingBlock: UVAHIK_clean_linker_0, # of connection points: 2
#     Edge 26, Type (0, 0), BuildingBlock: UVAHIK_clean_linker_0, # of connection points: 2
#     Edge 27, Type (0, 0), BuildingBlock: UVAHIK_clean_linker_0, # of connection points: 2
#     Edge 28, Type (0, 0), BuildingBlock: UVAHIK_clean_linker_0, # of connection points: 2
#     Edge 29, Type (0, 0), BuildingBlock: UVAHIK_clean_linker_0, # of connection points: 2
#     Edge 30, Type (0, 0), BuildingBlock: UVAHIK_clean_linker_0, # of connection points: 2
#     Edge 31, Type (0, 0), BuildingBlock: UVAHIK_clean_linker_0, # of connection points: 2
#     Edge 32, Type (0, 0), BuildingBlock: UVAHIK_clean_linker_0, # of connection points: 2
#     Edge 33, Type (0, 0), BuildingBlock: UVAHIK_clean_linker_0, # of connection points: 2
#     Edge 34, Type (0, 0), BuildingBlock: UVAHIK_clean_linker_0, # of connection points: 2
#     Edge 35, Type (0, 0), BuildingBlock: UVAHIK_clean_linker_0, # of connection points: 2
#     Edge 36, Type (0, 0), BuildingBlock: UVAHIK_clean_linker_0, # of connection points: 2
#     Edge 37, Type (0, 0), BuildingBlock: UVAHIK_clean_linker_0, # of connection points: 2
#     Edge 38, Type (0, 0), BuildingBlock: UVAHIK_clean_linker_0, # of connection points: 2
#     Edge 39, Type (0, 0), BuildingBlock: UVAHIK_clean_linker_0, # of connection points: 2
# Relax obj value: 0.011
# Max RMSD: 0.036
# Mean RMSD: 0.036
data_MOF--net-dia-g--node1-OLANEW_clean_sbu_2--edge1-UVAHIK_clean_linker_0
_symmetry_space_group_name_H-M    P1
_symmetry_Int_Tables_number       1
_symmetry_cell_setting            triclinic
loop_
_symmetry_equiv_pos_as_xyz
'x, y, z'
_cell_length_a     73.690662
_cell_length_b     73.685424
_cell_length_c     108.78956
_cell_angle_alpha  89.992338
_cell_angle_beta   89.992038
_cell_angle_gamma 89.935357
loop_
_atom_site_label
_atom_site_type_symbol
_atom_site_fract_x
_atom_site_fract_y
_atom_site_fract_z
_atom_type_partial_charge
O0 O 0.12034 0.14427 0.42814 0.0
Cd1 Cd 0.1209 0.14767 0.40581 0.0
O2 O 0.11119 0.11622 0.42565 0.0
Cd3 Cd 0.10034 0.09035 0.43218 0.0
O4 O 0.08343 0.06663 0.43582 0.0
C5 C 0.06679 0.06925 0.43833 0.0
O6 O 0.06071 0.086 0.43898 0.0
C7 C 0.1157 0.12914 0.43276 0.0
C8 C 0.15639 0.14813 0.39692 0.0
O9 O 0.14821 0.16289 0.39982 0.0
O10 O 0.14774 0.13317 0.39818 0.0
O11 O 0.84864 0.62187 0.68177 0.0
Cd12 Cd 0.84387 0.62088 0.65957 0.0
O13 O 0.87519 0.60934 0.67892 0.0
Cd14 Cd 0.90228 0.59857 0.68289 0.0
O15 O 0.92668 0.58215 0.6854 0.0
C16 C 0.92479 0.56592 0.68914 0.0
O17 O 0.9084 0.55993 0.6916 0.0
C18 C 0.86339 0.61585 0.68626 0.0
C19 C 0.84525 0.65563 0.64946 0.0
O20 O 0.83016 0.64874 0.65301 0.0
O21 O 0.85966 0.64602 0.65063 0.0
O22 O 0.37545 0.34826 0.93078 0.0
Cd23 Cd 0.37468 0.34336 0.90858 0.0
O24 O 0.38989 0.37374 0.92746 0.0
Cd25 Cd 0.40519 0.39803 0.93256 0.0
O26 O 0.42241 0.42173 0.93553 0.0
C27 C 0.43925 0.41947 0.93751 0.0
O28 O 0.44577 0.40287 0.93795 0.0
C29 C 0.38288 0.36253 0.93497 0.0
C30 C 0.33935 0.34453 0.89945 0.0
O31 O 0.34654 0.32949 0.90286 0.0
O32 O 0.34889 0.35899 0.90036 0.0
O33 O 0.64782 0.88027 0.18067 0.0
Cd34 Cd 0.65199 0.88106 0.15839 0.0
O35 O 0.62152 0.8934 0.17805 0.0
Cd36 Cd 0.59476 0.90498 0.18199 0.0
O37 O 0.57064 0.92176 0.18465 0.0
C38 C 0.57284 0.93866 0.18645 0.0
O39 O 0.58942 0.94518 0.18685 0.0
C40 C 0.63334 0.88668 0.18529 0.0
C41 C 0.6522 0.84617 0.14845 0.0
O42 O 0.66699 0.85391 0.15176 0.0
O43 O 0.63732 0.85498 0.14981 0.0
O44 O 0.1221 0.3554 0.81971 0.0
Cd45 Cd 0.12193 0.35177 0.84203 0.0
O46 O 0.10577 0.38002 0.82198 0.0
Cd47 Cd 0.08919 0.40291 0.81576 0.0
O48 O 0.0705 0.42526 0.81204 0.0
C49 C 0.05352 0.42237 0.81264 0.0
O50 O 0.04778 0.40593 0.81524 0.0
C51 C 0.11398 0.36891 0.81496 0.0
C52 C 0.15703 0.35059 0.85158 0.0
O53 O 0.14874 0.336 0.84849 0.0
O54 O 0.1487 0.36572 0.85017 0.0
O55 O 0.64923 0.62735 0.06937 0.0
Cd56 Cd 0.65395 0.62832 0.09158 0.0
O57 O 0.62413 0.61223 0.07264 0.0
Cd58 Cd 0.6003 0.59627 0.06746 0.0
O59 O 0.57706 0.57847 0.06443 0.0
C60 C 0.57967 0.56151 0.06324 0.0
O61 O 0.59636 0.55522 0.06364 0.0
C62 C 0.6352 0.61952 0.06515 0.0
C63 C 0.6536 0.66379 0.10051 0.0
O64 O 0.66847 0.65618 0.09721 0.0
O65 O 0.6389 0.65461 0.09959 0.0
O66 O 0.37789 0.1479 0.32274 0.0
Cd67 Cd 0.37693 0.15162 0.34504 0.0
O68 O 0.3884 0.12034 0.32542 0.0
Cd69 Cd 0.40038 0.09496 0.31887 0.0
O70 O 0.4177 0.07172 0.31462 0.0
C71 C 0.4347 0.07438 0.31377 0.0
O72 O 0.44098 0.09093 0.31521 0.0
C73 C 0.38328 0.13294 0.31823 0.0
C74 C 0.34131 0.15099 0.35369 0.0
O75 O 0.34899 0.16598 0.35074 0.0
O76 O 0.35052 0.13632 0.35259 0.0
O77 O 0.85863 0.87344 0.57007 0.0
Cd78 Cd 0.85547 0.87315 0.59242 0.0
O79 O 0.88293 0.89023 0.57217 0.0
Cd80 Cd 0.90532 0.90732 0.56582 0.0
O81 O 0.92721 0.9265 0.56206 0.0
C82 C 0.92446 0.94328 0.56401 0.0
O83 O 0.90846 0.94853 0.56799 0.0
C84 C 0.87184 0.8819 0.56523 0.0
C85 C 0.8537 0.83784 0.60156 0.0
O86 O 0.83924 0.84656 0.59869 0.0
O87 O 0.86898 0.84585 0.60014 0.0
O88 O 0.62491 0.64362 0.92913 0.0
Cd89 Cd 0.62536 0.64689 0.90678 0.0
O90 O 0.60913 0.61868 0.92689 0.0
Cd91 Cd 0.59302 0.59541 0.93297 0.0
O92 O 0.57561 0.57201 0.93649 0.0
C93 C 0.55848 0.574 0.93645 0.0
O94 O 0.55166 0.59025 0.93455 0.0
C95 C 0.61695 0.63006 0.93391 0.0
C96 C 0.66077 0.64821 0.89777 0.0
O97 O 0.65223 0.66277 0.90065 0.0
O98 O 0.65252 0.63303 0.89912 0.0
O99 O 0.34707 0.12144 0.18256 0.0
Cd100 Cd 0.34244 0.12081 0.16034 0.0
O101 O 0.37322 0.10812 0.17969 0.0
Cd102 Cd 0.39994 0.09624 0.18335 0.0
O103 O 0.42361 0.07877 0.18581 0.0
C104 C 0.42095 0.06175 0.18639 0.0
O105 O 0.40425 0.0556 0.18565 0.0
C106 C 0.3616 0.1149 0.18705 0.0
C107 C 0.34393 0.15568 0.15042 0.0
O108 O 0.32881 0.14877 0.15389 0.0
O109 O 0.35832 0.14605 0.15159 0.0
O110 O 0.87384 0.85167 0.42953 0.0
Cd111 Cd 0.87256 0.84749 0.40727 0.0
O112 O 0.89016 0.87611 0.42657 0.0
Cd113 Cd 0.90706 0.89903 0.43224 0.0
O114 O 0.92533 0.92169 0.43597 0.0
C115 C 0.94238 0.91903 0.43594 0.0
O116 O 0.94857 0.90259 0.43386 0.0
C117 C 0.8823 0.86522 0.43391 0.0
C118 C 0.83693 0.84784 0.39863 0.0
O119 O 0.84468 0.83294 0.40172 0.0
O120 O 0.84605 0.86257 0.39962 0.0
O121 O 0.14427 0.37431 0.67919 0.0
Cd122 Cd 0.14828 0.37379 0.6569 0.0
O123 O 0.11996 0.39098 0.67654 0.0
Cd124 Cd 0.09717 0.40794 0.68246 0.0
O125 O 0.07457 0.4263 0.68626 0.0
C126 C 0.07675 0.44328 0.68484 0.0
O127 O 0.09269 0.44933 0.68131 0.0
C128 C 0.13081 0.38276 0.68374 0.0
C129 C 0.1496 0.33842 0.64781 0.0
O130 O 0.16414 0.34679 0.65092 0.0
O131 O 0.13445 0.3468 0.64899 0.0
O132 O 0.61797 0.85293 0.3211 0.0
Cd133 Cd 0.61815 0.84914 0.34341 0.0
O134 O 0.60758 0.88054 0.32376 0.0
Cd135 Cd 0.59573 0.90602 0.31727 0.0
O136 O 0.578 0.92911 0.31345 0.0
C137 C 0.56133 0.92595 0.31138 0.0
O138 O 0.55567 0.90905 0.3113 0.0
C139 C 0.61277 0.86796 0.31657 0.0
C140 C 0.6534 0.84902 0.35274 0.0
O141 O 0.64554 0.8342 0.34964 0.0
O142 O 0.64456 0.86389 0.35145 0.0
O143 O 0.15282 0.12084 0.56845 0.0
Cd144 Cd 0.1574 0.12081 0.59069 0.0
O145 O 0.12608 0.10891 0.57153 0.0
Cd146 Cd 0.09885 0.09848 0.56767 0.0
O147 O 0.07407 0.08275 0.56504 0.0
C148 C 0.07541 0.06675 0.56076 0.0
O149 O 0.09155 0.06049 0.55785 0.0
C150 C 0.13802 0.11482 0.56407 0.0
C151 C 0.15621 0.1559 0.60026 0.0
O152 O 0.17127 0.14875 0.59688 0.0
O153 O 0.14173 0.14643 0.59914 0.0
O154 O 0.88074 0.65227 0.82143 0.0
Cd155 Cd 0.88002 0.65666 0.84368 0.0
O156 O 0.88921 0.62412 0.82457 0.0
Cd157 Cd 0.89942 0.59769 0.81857 0.0
O158 O 0.91504 0.5731 0.81487 0.0
C159 C 0.93159 0.57475 0.81177 0.0
O160 O 0.93844 0.59112 0.81061 0.0
C161 C 0.88508 0.63681 0.81716 0.0
C162 C 0.84459 0.65528 0.85266 0.0
O163 O 0.85178 0.67039 0.84944 0.0
O164 O 0.8542 0.64084 0.85167 0.0
O165 O 0.3576 0.37335 0.07089 0.0
Cd166 Cd 0.35414 0.37313 0.09323 0.0
O167 O 0.38244 0.38926 0.07318 0.0
Cd168 Cd 0.4057 0.40546 0.06721 0.0
O169 O 0.42907 0.42299 0.06388 0.0
C170 C 0.42684 0.44007 0.06322 0.0
O171 O 0.41038 0.44675 0.06431 0.0
C172 C 0.37117 0.38134 0.06614 0.0
C173 C 0.35242 0.33785 0.10244 0.0
O174 O 0.33797 0.34648 0.09946 0.0
O175 O 0.36769 0.34593 0.10108 0.0
C176 C 0.12219 0.10402 0.54487 0.0
C177 C 0.13487 0.11543 0.55061 0.0
C178 C 0.11906 0.10522 0.53221 0.0
C179 C 0.12724 0.1358 0.50538 0.0
H180 H 0.11416 0.09298 0.48673 0.0
C181 C 0.11018 0.14107 0.45389 0.0
C182 C 0.1156 0.12677 0.44622 0.0
C183 C 0.11106 0.13925 0.46666 0.0
C184 C 0.118 0.10506 0.49174 0.0
H185 H 0.15502 0.13632 0.54739 0.0
H186 H 0.15034 0.13777 0.52534 0.0
H187 H 0.11965 0.09042 0.50865 0.0
H188 H 0.12655 0.09951 0.44578 0.0
H189 H 0.1288 0.09649 0.46801 0.0
H190 H 0.12676 0.15024 0.48839 0.0
C191 C 0.14207 0.12849 0.53064 0.0
C192 C 0.12086 0.10365 0.50441 0.0
C193 C 0.14493 0.1275 0.54331 0.0
C194 C 0.12189 0.11058 0.45152 0.0
C195 C 0.12314 0.10888 0.46429 0.0
C196 C 0.12472 0.13714 0.49269 0.0
C197 C 0.1289 0.11755 0.52492 0.0
C198 C 0.12557 0.119 0.51142 0.0
C199 C 0.11786 0.12324 0.47206 0.0
C200 C 0.12007 0.1218 0.48566 0.0
H201 H 0.1149 0.09387 0.55003 0.0
H202 H 0.1088 0.09655 0.52821 0.0
H203 H 0.13048 0.14803 0.51043 0.0
H204 H 0.10521 0.15367 0.45 0.0
H205 H 0.10645 0.15047 0.47228 0.0
C206 C 0.85669 0.62976 0.70669 0.0
C207 C 0.86663 0.61718 0.69968 0.0
C208 C 0.85961 0.63143 0.71932 0.0
C209 C 0.88045 0.60776 0.74615 0.0
H210 H 0.87511 0.65527 0.76099 0.0
C211 C 0.87867 0.61751 0.79881 0.0
C212 C 0.88525 0.63379 0.80377 0.0
C213 C 0.87759 0.61517 0.78608 0.0
C214 C 0.87698 0.64192 0.75702 0.0
H215 H 0.88646 0.5955 0.70079 0.0
H216 H 0.89261 0.59929 0.72254 0.0
H217 H 0.87154 0.65194 0.739 0.0
H218 H 0.89628 0.66023 0.79943 0.0
H219 H 0.89529 0.65592 0.77723 0.0
H220 H 0.88679 0.59792 0.76412 0.0
C221 C 0.88242 0.60785 0.71831 0.0
C222 C 0.87456 0.63994 0.74437 0.0
C223 C 0.87925 0.60598 0.7057 0.0
C224 C 0.89109 0.64756 0.79581 0.0
C225 C 0.89036 0.64511 0.78308 0.0
C226 C 0.88319 0.6098 0.75879 0.0
C227 C 0.8727 0.62067 0.7253 0.0
C228 C 0.87602 0.6228 0.73875 0.0
C229 C 0.88331 0.62899 0.77802 0.0
C230 C 0.8813 0.62688 0.76444 0.0
H231 H 0.84666 0.63845 0.7024 0.0
H232 H 0.85144 0.64108 0.72438 0.0
H233 H 0.88151 0.59429 0.74224 0.0
H234 H 0.87366 0.60685 0.80476 0.0
H235 H 0.87172 0.60273 0.7826 0.0
C236 C 0.38239 0.38333 0.9532 0.0
C237 C 0.38347 0.36569 0.94837 0.0
C238 C 0.38225 0.38613 0.96591 0.0
C239 C 0.39368 0.36422 0.99547 0.0
H240 H 0.35871 0.39811 0.00904 0.0
C241 C 0.39085 0.38108 0.04734 0.0
C242 C 0.37348 0.38142 0.05265 0.0
C243 C 0.39288 0.38034 0.03457 0.0
C244 C 0.36852 0.38858 0.00539 0.0
H245 H 0.38504 0.33713 0.95302 0.0
H246 H 0.38472 0.34199 0.97522 0.0
H247 H 0.36089 0.39431 0.98681 0.0
H248 H 0.34463 0.38107 0.04882 0.0
H249 H 0.34815 0.3797 0.02652 0.0
H250 H 0.40101 0.35816 0.01407 0.0
C251 C 0.38429 0.35369 0.9692 0.0
C252 C 0.3699 0.38653 0.99265 0.0
C253 C 0.38433 0.3509 0.9565 0.0
C254 C 0.35819 0.38096 0.04496 0.0
C255 C 0.36021 0.38031 0.0322 0.0
C256 C 0.39236 0.36632 0.00821 0.0
C257 C 0.38316 0.37134 0.97405 0.0
C258 C 0.38237 0.3742 0.98756 0.0
C259 C 0.37757 0.3799 0.02686 0.0
C260 C 0.37964 0.37839 0.01332 0.0
H261 H 0.38107 0.39495 0.94718 0.0
H262 H 0.38139 0.39989 0.96937 0.0
H263 H 0.40354 0.35474 0.99182 0.0
H264 H 0.40288 0.38078 0.05304 0.0
H265 H 0.40644 0.38005 0.03073 0.0
C266 C 0.64072 0.8733 0.2058 0.0
C267 C 0.63043 0.88558 0.19878 0.0
C268 C 0.63811 0.87184 0.21847 0.0
C269 C 0.61702 0.89555 0.24527 0.0
H270 H 0.62409 0.84857 0.26054 0.0
C271 C 0.61857 0.88707 0.29804 0.0
C272 C 0.61274 0.8706 0.30315 0.0
C273 C 0.61977 0.88914 0.2853 0.0
C274 C 0.62172 0.86176 0.25646 0.0
H275 H 0.61027 0.90695 0.19993 0.0
H276 H 0.60459 0.90341 0.22172 0.0
H277 H 0.62737 0.85155 0.23852 0.0
H278 H 0.60314 0.84354 0.29905 0.0
H279 H 0.60423 0.84736 0.27682 0.0
H280 H 0.61036 0.90553 0.26315 0.0
C281 C 0.61487 0.89498 0.21749 0.0
C282 C 0.62399 0.86356 0.24378 0.0
C283 C 0.61776 0.89668 0.20483 0.0
C284 C 0.60776 0.85636 0.29531 0.0
C285 C 0.60855 0.85854 0.28256 0.0
C286 C 0.61438 0.89367 0.25794 0.0
C287 C 0.62496 0.88247 0.22449 0.0
C288 C 0.6219 0.88052 0.238 0.0
C289 C 0.61486 0.87487 0.27735 0.0
C290 C 0.61688 0.87678 0.26375 0.0
H291 H 0.65082 0.8647 0.20149 0.0
H292 H 0.64658 0.86244 0.22353 0.0
H293 H 0.61549 0.9089 0.24125 0.0
H294 H 0.62288 0.89813 0.30391 0.0
H295 H 0.62507 0.90178 0.28172 0.0
C296 C 0.1145 0.38876 0.79626 0.0
C297 C 0.11402 0.37133 0.80149 0.0
C298 C 0.11529 0.39092 0.78351 0.0
C299 C 0.10629 0.36731 0.75427 0.0
H300 H 0.14102 0.40139 0.7407 0.0
C301 C 0.1106 0.38289 0.70225 0.0
C302 C 0.12813 0.38307 0.69719 0.0
C303 C 0.10817 0.38242 0.715 0.0
C304 C 0.13128 0.39181 0.74436 0.0
H305 H 0.11415 0.34252 0.79751 0.0
H306 H 0.11549 0.34628 0.77522 0.0
H307 H 0.13791 0.39854 0.76298 0.0
H308 H 0.15685 0.38273 0.70142 0.0
H309 H 0.15264 0.38196 0.7237 0.0
H310 H 0.09988 0.36036 0.73566 0.0
C311 C 0.11502 0.35827 0.78097 0.0
C312 C 0.12937 0.3903 0.75711 0.0
C313 C 0.11438 0.35612 0.79372 0.0
C314 C 0.14318 0.38274 0.7051 0.0
C315 C 0.14077 0.38241 0.71783 0.0
C316 C 0.1081 0.36892 0.74153 0.0
C317 C 0.11558 0.3757 0.77572 0.0
C318 C 0.11698 0.37791 0.7622 0.0
C319 C 0.12324 0.38216 0.72292 0.0
C320 C 0.12073 0.38107 0.73644 0.0
H321 H 0.11483 0.40072 0.80203 0.0
H322 H 0.1157 0.40452 0.77973 0.0
H323 H 0.09652 0.35776 0.75793 0.0
H324 H 0.09875 0.38253 0.69639 0.0
H325 H 0.0945 0.38224 0.71865 0.0
C326 C 0.6173 0.61053 0.95278 0.0
C327 C 0.61679 0.62785 0.9474 0.0
C328 C 0.618 0.60861 0.96556 0.0
C329 C 0.60931 0.63302 0.99463 0.0
H330 H 0.64367 0.59867 0.00838 0.0
C331 C 0.6145 0.61946 0.04687 0.0
C332 C 0.63213 0.6188 0.05174 0.0
C333 C 0.61177 0.61949 0.03415 0.0
C334 C 0.63403 0.60834 0.00468 0.0
H335 H 0.61679 0.65674 0.95114 0.0
H336 H 0.61807 0.65341 0.97345 0.0
H337 H 0.64029 0.60099 0.98612 0.0
H338 H 0.66074 0.61785 0.04717 0.0
H339 H 0.656 0.61795 0.02496 0.0
H340 H 0.60335 0.64068 0.01319 0.0
C341 C 0.61764 0.6413 0.96781 0.0
C342 C 0.63197 0.60954 0.99193 0.0
C343 C 0.61703 0.64321 0.95504 0.0
C344 C 0.64699 0.61823 0.04366 0.0
C345 C 0.64426 0.61815 0.03095 0.0
C346 C 0.6113 0.63176 0.00738 0.0
C347 C 0.61823 0.62397 0.97322 0.0
C348 C 0.61971 0.62202 0.98677 0.0
C349 C 0.62662 0.61887 0.02605 0.0
C350 C 0.62383 0.61953 0.01254 0.0
H351 H 0.61776 0.59846 0.94713 0.0
H352 H 0.61844 0.59508 0.96945 0.0
H353 H 0.59963 0.64266 0.99093 0.0
H354 H 0.60282 0.62053 0.05286 0.0
H355 H 0.59801 0.62003 0.03065 0.0
C356 C 0.35462 0.12821 0.20764 0.0
C357 C 0.36476 0.11593 0.20051 0.0
C358 C 0.35747 0.12962 0.22029 0.0
C359 C 0.37894 0.10573 0.24687 0.0
H360 H 0.37215 0.15264 0.2623 0.0
C361 C 0.37763 0.11389 0.29966 0.0
C362 C 0.38346 0.13033 0.3048 0.0
C363 C 0.37647 0.11189 0.2869 0.0
C364 C 0.37445 0.13947 0.25817 0.0
H365 H 0.3849 0.09452 0.20146 0.0
H366 H 0.39098 0.09796 0.2232 0.0
H367 H 0.36861 0.14979 0.24029 0.0
H368 H 0.39312 0.1574 0.30078 0.0
H369 H 0.39209 0.1537 0.27853 0.0
H370 H 0.38578 0.09564 0.26469 0.0
C371 C 0.38065 0.10643 0.21907 0.0
C372 C 0.37203 0.13775 0.2455 0.0
C373 C 0.37752 0.10478 0.20644 0.0
C374 C 0.38851 0.14461 0.297 0.0
C375 C 0.38775 0.14249 0.28425 0.0
C376 C 0.38173 0.10753 0.25953 0.0
C377 C 0.37071 0.11894 0.22618 0.0
C378 C 0.374 0.12082 0.23967 0.0
C379 C 0.38141 0.1262 0.279 0.0
C380 C 0.37933 0.12439 0.2654 0.0
H381 H 0.34447 0.13685 0.20343 0.0
H382 H 0.34911 0.13902 0.22544 0.0
H383 H 0.38039 0.0924 0.24281 0.0
H384 H 0.37327 0.10282 0.30549 0.0
H385 H 0.37115 0.09928 0.2833 0.0
C386 C 0.88319 0.85297 0.45529 0.0
C387 C 0.88303 0.86798 0.44734 0.0
C388 C 0.88325 0.85545 0.46803 0.0
C389 C 0.86994 0.88805 0.49181 0.0
H390 H 0.90068 0.85878 0.51293 0.0
C391 C 0.85857 0.88147 0.54413 0.0
C392 C 0.87395 0.88206 0.55173 0.0
C393 C 0.86043 0.88094 0.53135 0.0
C394 C 0.89213 0.86716 0.50715 0.0
H395 H 0.88201 0.89735 0.44647 0.0
H396 H 0.88237 0.90173 0.46872 0.0
H397 H 0.90297 0.85563 0.49062 0.0
H398 H 0.90336 0.88181 0.55196 0.0
H399 H 0.90665 0.88112 0.52961 0.0
H400 H 0.85902 0.89949 0.50834 0.0
C401 C 0.88265 0.88803 0.4651 0.0
C402 C 0.89332 0.86524 0.49439 0.0
C403 C 0.88274 0.88554 0.45236 0.0
C404 C 0.89126 0.88195 0.54632 0.0
C405 C 0.89314 0.88127 0.53354 0.0
C406 C 0.86865 0.88987 0.50457 0.0
C407 C 0.88288 0.87301 0.47307 0.0
C408 C 0.88217 0.87558 0.48659 0.0
C409 C 0.87774 0.88072 0.52592 0.0
C410 C 0.87966 0.87937 0.51237 0.0
H411 H 0.88328 0.83928 0.45166 0.0
H412 H 0.88317 0.84361 0.47393 0.0
H413 H 0.86107 0.8961 0.48604 0.0
H414 H 0.84506 0.88141 0.54807 0.0
H415 H 0.84832 0.88027 0.52573 0.0
C416 C 0.97394 0.93159 0.437 0.0
C417 C 0.95509 0.93437 0.4377 0.0
C418 C 0.98593 0.94618 0.43814 0.0
C419 C 0.98783 0.99593 0.43473 0.0
H420 H 0.03345 0.99111 0.45221 0.0
C421 C 0.03562 0.05681 0.44191 0.0
C422 C 0.05419 0.05375 0.43978 0.0
C423 C 0.0235 0.04228 0.44258 0.0
C424 C 0.02082 0.99261 0.44722 0.0
H425 H 0.93408 0.95462 0.44045 0.0
H426 H 0.95501 0.98002 0.44258 0.0
H427 H 0.01224 0.96568 0.45177 0.0
H428 H 0.07465 0.03296 0.43697 0.0
H429 H 0.05346 0.0076 0.43807 0.0
H430 H 0.99642 0.02278 0.43011 0.0
C431 C 0.96051 0.9666 0.44095 0.0
C432 C 0.00868 0.97805 0.44696 0.0
C433 C 0.94852 0.95202 0.4398 0.0
C434 C 0.06043 0.03579 0.43862 0.0
C435 C 0.0483 0.02125 0.43932 0.0
C436 C -5e-05 0.01048 0.43501 0.0
C437 C 0.97935 0.96388 0.44003 0.0
C438 C 0.99207 0.97951 0.44067 0.0
C439 C 0.02966 0.02434 0.44116 0.0
C440 C 0.01661 0.00898 0.44121 0.0
H441 H 0.97946 0.91818 0.43537 0.0
H442 H 0.00035 0.94363 0.43724 0.0
H443 H 0.97531 0.99741 0.42962 0.0
H444 H 0.03036 0.07046 0.4429 0.0
H445 H 0.00927 0.0451 0.4442 0.0
C446 C 0.06362 0.47466 0.68449 0.0
C447 C 0.0614 0.45599 0.68665 0.0
C448 C 0.04897 0.48659 0.68573 0.0
C449 C 0.99893 0.48743 0.68544 0.0
H450 H 0.00515 0.53542 0.69945 0.0
C451 C 0.93832 0.53543 0.69361 0.0
C452 C 0.94066 0.55365 0.69014 0.0
C453 C 0.95312 0.52358 0.694 0.0
C454 C 0.00324 0.52211 0.69542 0.0
H455 H 0.0421 0.43525 0.69207 0.0
H456 H 0.01661 0.45608 0.69435 0.0
H457 H 0.03087 0.51453 0.69874 0.0
H458 H 0.96048 0.57381 0.68458 0.0
H459 H 0.9863 0.55309 0.68519 0.0
H460 H 0.97136 0.49502 0.68206 0.0
C461 C 0.02962 0.46147 0.69152 0.0
C462 C 0.01797 0.51015 0.69501 0.0
C463 C 0.04427 0.44954 0.69027 0.0
C464 C 0.9582 0.55985 0.6873 0.0
C465 C 0.97302 0.548 0.68771 0.0
C466 C 0.98422 0.49937 0.68587 0.0
C467 C 0.03176 0.48011 0.68916 0.0
C468 C 0.01601 0.49269 0.68997 0.0
C469 C 0.97062 0.52969 0.69095 0.0
C470 C 0.98621 0.51688 0.69082 0.0
H471 H 0.07663 0.48008 0.68167 0.0
H472 H 0.05105 0.50082 0.68371 0.0
H473 H 0.99702 0.4742 0.6813 0.0
H474 H 0.92501 0.53022 0.69591 0.0
H475 H 0.95086 0.50962 0.6967 0.0
C476 C 0.52742 0.56024 0.93743 0.0
C477 C 0.54637 0.55813 0.93798 0.0
C478 C 0.51599 0.54517 0.93834 0.0
C479 C 0.5158 0.49558 0.93394 0.0
H480 H 0.47047 0.49796 0.95198 0.0
C481 C 0.47024 0.43274 0.94047 0.0
C482 C 0.4515 0.43528 0.93877 0.0
C483 C 0.48192 0.44763 0.94116 0.0
C484 C 0.48301 0.49713 0.94682 0.0
H485 H 0.56814 0.53856 0.94021 0.0
H486 H 0.54819 0.51232 0.94193 0.0
H487 H 0.49073 0.52414 0.95185 0.0
H488 H 0.4303 0.45551 0.93669 0.0
H489 H 0.45071 0.48147 0.93781 0.0
H490 H 0.50806 0.46865 0.92883 0.0
C491 C 0.54218 0.52559 0.9406 0.0
C492 C 0.49462 0.51213 0.94674 0.0
C493 C 0.55361 0.54066 0.93969 0.0
C494 C 0.44466 0.45307 0.938 0.0
C495 C 0.45635 0.46796 0.93871 0.0
C496 C 0.50421 0.48059 0.93403 0.0
C497 C 0.52324 0.52765 0.93983 0.0
C498 C 0.51112 0.51155 0.94026 0.0
C499 C 0.47513 0.46541 0.9402 0.0
C500 C 0.48765 0.48121 0.94042 0.0
H501 H 0.52139 0.57351 0.9361 0.0
H502 H 0.50148 0.54722 0.93758 0.0
H503 H 0.52826 0.49478 0.92868 0.0
H504 H 0.47595 0.41922 0.94115 0.0
H505 H 0.49629 0.4452 0.94248 0.0
C506 C 0.53924 0.94408 0.18718 0.0
C507 C 0.55702 0.95094 0.18761 0.0
C508 C 0.52434 0.95579 0.18783 0.0
C509 C 0.51086 0.00239 0.19695 0.0
H510 H 0.47036 0.99377 0.17496 0.0
C511 C 0.4543 0.05541 0.18833 0.0
C512 C 0.43639 0.04897 0.18747 0.0
C513 C 0.46887 0.04326 0.18898 0.0
C514 C 0.48146 0.99625 0.18127 0.0
H515 H 0.57306 0.9755 0.18921 0.0
H516 H 0.5471 0.99592 0.19019 0.0
H517 H 0.49598 0.97286 0.17502 0.0
H518 H 0.41974 0.02472 0.18683 0.0
H519 H 0.44513 0.00358 0.18803 0.0
H520 H 0.49637 0.02592 0.20308 0.0
C521 C 0.54466 0.98147 0.18951 0.0
C522 C 0.49614 0.98424 0.18131 0.0
C523 C 0.55955 0.96975 0.18887 0.0
C524 C 0.43337 0.03014 0.18743 0.0
C525 C 0.44792 0.01801 0.18805 0.0
C526 C 0.49618 0.01442 0.19688 0.0
C527 C 0.52687 0.97464 0.18891 0.0
C528 C 0.51105 0.98719 0.18913 0.0
C529 C 0.46584 0.02443 0.18876 0.0
C530 C 0.48133 0.01151 0.18902 0.0
H531 H 0.53681 0.92965 0.18627 0.0
H532 H 0.51081 0.95007 0.18753 0.0
H533 H 0.522 0.00491 0.20321 0.0
H534 H 0.4571 0.06983 0.18838 0.0
H535 H 0.48253 0.04864 0.1894 0.0
C536 C 0.96182 0.56051 0.80749 0.0
C537 C 0.94326 0.55855 0.81018 0.0
C538 C 0.97308 0.54529 0.80663 0.0
C539 C 0.97626 0.49774 0.8169 0.0
H540 H 0.01492 0.49496 0.79278 0.0
C541 C 0.02169 0.43434 0.81224 0.0
C542 C 0.04042 0.43743 0.81099 0.0
C543 C 0.00934 0.44867 0.81123 0.0
C544 C 0.00427 0.49561 0.79962 0.0
H545 H 0.9219 0.53901 0.81374 0.0
H546 H 0.94153 0.51245 0.8121 0.0
H547 H 0.99409 0.52074 0.79253 0.0
H548 H 0.06083 0.45798 0.80745 0.0
H549 H 0.03929 0.48299 0.80579 0.0
H550 H 0.98651 0.47272 0.82407 0.0
C551 C 0.94742 0.52578 0.81085 0.0
C552 C 0.99234 0.51037 0.79948 0.0
C553 C 0.93615 0.541 0.81172 0.0
C554 C 0.04649 0.45512 0.80847 0.0
C555 C 0.03414 0.46945 0.80744 0.0
C556 C 0.98817 0.48298 0.81703 0.0
C557 C 0.96606 0.52776 0.80842 0.0
C558 C 0.97827 0.51168 0.80818 0.0
C559 C 0.01543 0.46642 0.80892 0.0
C560 C 0.00238 0.48179 0.80844 0.0
H561 H 0.96775 0.57383 0.80626 0.0
H562 H 0.98741 0.54733 0.80489 0.0
H563 H 0.96577 0.49846 0.82386 0.0
H564 H 0.01653 0.42086 0.81413 0.0
H565 H 0.995 0.44584 0.81225 0.0
C566 C 0.44024 0.47123 0.06161 0.0
C567 C 0.44264 0.45231 0.06183 0.0
C568 C 0.4552 0.48282 0.06083 0.0
C569 C 0.50435 0.48418 0.06704 0.0
H570 H 0.50285 0.52794 0.04725 0.0
C571 C 0.56704 0.53012 0.06107 0.0
C572 C 0.56413 0.54893 0.06192 0.0
C573 C 0.55237 0.51817 0.0603 0.0
C574 C 0.50342 0.51585 0.0529 0.0
H575 H 0.46266 0.43071 0.06113 0.0
H576 H 0.48873 0.45093 0.05965 0.0
H577 H 0.47696 0.5073 0.04719 0.0
H578 H 0.54351 0.56996 0.06244 0.0
H579 H 0.51793 0.54909 0.06121 0.0
H580 H 0.53071 0.49276 0.07283 0.0
C581 C 0.47528 0.45681 0.06027 0.0
C582 C 0.48859 0.50403 0.05287 0.0
C583 C 0.46033 0.44522 0.06104 0.0
C584 C 0.54623 0.55555 0.06179 0.0
C585 C 0.53156 0.54359 0.06101 0.0
C586 C 0.51916 0.49599 0.06707 0.0
C587 C 0.47291 0.47575 0.06026 0.0
C588 C 0.48885 0.48809 0.05998 0.0
C589 C 0.53445 0.52475 0.06036 0.0
C590 C 0.51885 0.51199 0.06004 0.0
H591 H 0.4268 0.47714 0.06222 0.0
H592 H 0.4529 0.49734 0.06099 0.0
H593 H 0.50488 0.47218 0.07278 0.0
H594 H 0.58065 0.52457 0.06109 0.0
H595 H 0.55507 0.50375 0.05964 0.0
C596 C 0.46618 0.06193 0.31162 0.0
C597 C 0.44733 0.05901 0.31178 0.0
C598 C 0.47819 0.04736 0.31034 0.0
C599 C 0.48093 0.99787 0.31494 0.0
H600 H 0.52523 0.00226 0.29592 0.0
C601 C 0.52967 0.93746 0.30825 0.0
C602 C 0.54826 0.94106 0.3098 0.0
C603 C 0.51716 0.95166 0.30744 0.0
C604 C 0.51297 0.00088 0.30133 0.0
H605 H 0.42631 0.03853 0.31039 0.0
H606 H 0.44727 0.01313 0.308 0.0
H607 H 0.50359 0.02736 0.2963 0.0
H608 H 0.56832 0.96245 0.31142 0.0
H609 H 0.54645 0.98725 0.31008 0.0
H610 H 0.49035 0.97147 0.32006 0.0
C611 C 0.45277 0.02667 0.30907 0.0
C612 C 0.50058 0.01526 0.30156 0.0
C613 C 0.44075 0.04124 0.31037 0.0
C614 C 0.5541 0.95921 0.31023 0.0
C615 C 0.54157 0.97342 0.30939 0.0
C616 C 0.49329 0.9835 0.31469 0.0
C617 C 0.47164 0.02954 0.30916 0.0
C618 C 0.48446 0.01397 0.30843 0.0
C619 C 0.52294 0.9698 0.30813 0.0
C620 C 0.50951 0.98487 0.30796 0.0
H621 H 0.47171 0.07544 0.3127 0.0
H622 H 0.49263 0.05005 0.3106 0.0
H623 H 0.46881 0.99653 0.3205 0.0
H624 H 0.52472 0.92364 0.30782 0.0
H625 H 0.50292 0.94843 0.30629 0.0
C626 C 0.04193 0.06152 0.56294 0.0
C627 C 0.0592 0.055 0.55968 0.0
C628 C 0.02679 0.05013 0.56246 0.0
C629 C 0.01015 0.00677 0.54936 0.0
H630 H 0.97631 0.0086 0.57663 0.0
C631 C 0.95651 0.95107 0.55829 0.0
C632 C 0.93926 0.95664 0.56232 0.0
C633 C 0.97065 0.96361 0.55719 0.0
C634 C 0.98548 0.00808 0.56886 0.0
H635 H 0.07404 0.03145 0.55313 0.0
H636 H 0.0477 0.01155 0.55244 0.0
H637 H 0.0018 0.02958 0.57605 0.0
H638 H 0.92323 0.97985 0.56811 0.0
H639 H 0.94785 0.0017 0.56611 0.0
H640 H 0.99391 0.98507 0.54227 0.0
C641 C 0.0458 0.02554 0.55523 0.0
C642 C 0.0001 0.02012 0.56852 0.0
C643 C 0.06093 0.03693 0.5557 0.0
C644 C 0.93638 0.97507 0.56503 0.0
C645 C 0.95051 0.9876 0.56395 0.0
C646 C 0.99553 0.99469 0.54971 0.0
C647 C 0.02857 0.03195 0.55871 0.0
C648 C 0.01266 0.01956 0.5588 0.0
C649 C 0.96785 0.98199 0.56011 0.0
C650 C 0.98308 0.99516 0.55949 0.0
H651 H 0.0401 0.0754 0.56599 0.0
H652 H 0.01367 0.05558 0.56503 0.0
H653 H 0.01942 0.00615 0.54165 0.0
H654 H 0.95919 0.93697 0.55613 0.0
H655 H 0.98389 0.95881 0.55433 0.0
C656 C 0.31366 0.13407 0.36063 0.0
C657 C 0.32234 0.15065 0.35817 0.0
C658 C 0.2957 0.13374 0.36476 0.0
C659 C 0.25397 0.16172 0.36605 0.0
H660 H 0.2397 0.1274 0.39128 0.0
C661 C 0.18434 0.16491 0.39038 0.0
C662 C 0.1753 0.14837 0.39232 0.0
C663 C 0.20223 0.16513 0.3861 0.0
C664 C 0.24344 0.13694 0.38414 0.0
H665 H 0.319 0.1799 0.35819 0.0
H666 H 0.28778 0.17934 0.36557 0.0
H667 H 0.27105 0.12795 0.38412 0.0
H668 H 0.17794 0.11908 0.39128 0.0
H669 H 0.20915 0.11948 0.38379 0.0
H670 H 0.22636 0.17078 0.36615 0.0
C671 C 0.29474 0.16657 0.36412 0.0
C672 C 0.2614 0.13724 0.38003 0.0
C673 C 0.31268 0.16689 0.35996 0.0
C674 C 0.18453 0.13205 0.38989 0.0
C675 C 0.20245 0.13228 0.38567 0.0
C676 C 0.23602 0.16145 0.3702 0.0
C677 C 0.28601 0.14998 0.36655 0.0
C678 C 0.26689 0.14964 0.37093 0.0
C679 C 0.21149 0.14881 0.38373 0.0
C680 C 0.23055 0.14906 0.37929 0.0
H681 H 0.32069 0.1213 0.35929 0.0
H682 H 0.28932 0.12072 0.36638 0.0
H683 H 0.25765 0.17123 0.35889 0.0
H684 H 0.17762 0.17772 0.39218 0.0
H685 H 0.20889 0.17808 0.38483 0.0
C686 C 0.86277 0.68209 0.64122 0.0
C687 C 0.84602 0.67418 0.64427 0.0
C688 C 0.86353 0.69971 0.63648 0.0
C689 C 0.83692 0.74224 0.63439 0.0
H690 H 0.87096 0.75379 0.60836 0.0
C691 C 0.8359 0.8108 0.60862 0.0
C692 C 0.85276 0.81907 0.60638 0.0
C693 C 0.83503 0.79309 0.61319 0.0
C694 C 0.8615 0.75081 0.61571 0.0
H695 H 0.8169 0.6785 0.64461 0.0
H696 H 0.8182 0.7091 0.63616 0.0
H697 H 0.86945 0.72289 0.61632 0.0
H698 H 0.88193 0.81521 0.60716 0.0
H699 H 0.88038 0.78431 0.61515 0.0
H700 H 0.82892 0.77016 0.63371 0.0
C701 C 0.83079 0.70182 0.63763 0.0
C702 C 0.86065 0.73311 0.62028 0.0
C703 C 0.83003 0.68423 0.6424 0.0
C704 C 0.86873 0.80923 0.60877 0.0
C705 C 0.86784 0.79149 0.61328 0.0
C706 C 0.83773 0.75992 0.62978 0.0
C707 C 0.84755 0.7098 0.63464 0.0
C708 C 0.84836 0.72861 0.6297 0.0
C709 C 0.85099 0.78323 0.61556 0.0
C710 C 0.85005 0.76441 0.6204 0.0
H711 H 0.87535 0.67475 0.64259 0.0
H712 H 0.87668 0.70552 0.63444 0.0
H713 H 0.82752 0.73932 0.64178 0.0
H714 H 0.82335 0.81801 0.60686 0.0
H715 H 0.82183 0.78704 0.61472 0.0
C716 C 0.31239 0.36185 0.8917 0.0
C717 C 0.32058 0.34516 0.89461 0.0
C718 C 0.29468 0.36245 0.88713 0.0
C719 C 0.25246 0.33536 0.88507 0.0
H720 H 0.24047 0.36932 0.85906 0.0
C721 C 0.18427 0.33326 0.85888 0.0
C722 C 0.17569 0.34997 0.8566 0.0
C723 C 0.2019 0.33268 0.8636 0.0
C724 C 0.24357 0.35989 0.86641 0.0
H725 H 0.31661 0.316 0.89496 0.0
H726 H 0.28583 0.31703 0.88681 0.0
H727 H 0.27134 0.36823 0.86708 0.0
H728 H 0.17892 0.37921 0.85751 0.0
H729 H 0.20968 0.37819 0.86577 0.0
H730 H 0.22469 0.32693 0.88429 0.0
C731 C 0.29297 0.32968 0.88824 0.0
C732 C 0.26126 0.35928 0.87102 0.0
C733 C 0.31067 0.32909 0.89285 0.0
C734 C 0.18514 0.3661 0.85914 0.0
C735 C 0.2028 0.36553 0.86381 0.0
C736 C 0.2348 0.33593 0.88042 0.0
C737 C 0.28475 0.34638 0.88533 0.0
C738 C 0.26592 0.34701 0.88042 0.0
C739 C 0.21137 0.34881 0.8661 0.0
C740 C 0.23015 0.34821 0.87104 0.0
H741 H 0.31963 0.37449 0.893 0.0
H742 H 0.28868 0.37555 0.88516 0.0
H743 H 0.2555 0.32596 0.89244 0.0
H744 H 0.17737 0.32058 0.857 0.0
H745 H 0.20821 0.3196 0.86514 0.0
C746 C 0.66876 0.81851 0.14107 0.0
C747 C 0.65229 0.82758 0.14329 0.0
C748 C 0.66884 0.80092 0.13627 0.0
C749 C 0.64041 0.76013 0.13323 0.0
H750 H 0.67433 0.7472 0.10741 0.0
C751 C 0.6369 0.69127 0.10805 0.0
C752 C 0.6534 0.68262 0.10526 0.0
C753 C 0.63671 0.70903 0.11256 0.0
C754 C 0.66492 0.75051 0.11472 0.0
H755 H 0.62299 0.8253 0.14218 0.0
H756 H 0.62315 0.79459 0.13379 0.0
H757 H 0.67415 0.77803 0.11555 0.0
H758 H 0.68266 0.68582 0.10507 0.0
H759 H 0.68235 0.71667 0.11312 0.0
H760 H 0.63128 0.73261 0.13251 0.0
C761 C 0.63599 0.80105 0.13585 0.0
C762 C 0.6648 0.7682 0.11937 0.0
C763 C 0.63591 0.81868 0.14059 0.0
C764 C 0.66971 0.69212 0.10708 0.0
C765 C 0.66952 0.70985 0.11163 0.0
C766 C 0.64057 0.74243 0.12862 0.0
C767 C 0.65246 0.79197 0.13364 0.0
C768 C 0.65254 0.7732 0.12867 0.0
C769 C 0.65302 0.71854 0.11442 0.0
C770 C 0.65282 0.7374 0.11931 0.0
H771 H 0.68162 0.82498 0.14306 0.0
H772 H 0.68174 0.79421 0.13479 0.0
H773 H 0.63098 0.7635 0.14052 0.0
H774 H 0.62409 0.68436 0.1067 0.0
H775 H 0.62375 0.71539 0.11444 0.0
C776 C 0.81757 0.63778 0.86006 0.0
C777 C 0.82574 0.65453 0.85733 0.0
C778 C 0.79973 0.63706 0.86439 0.0
C779 C 0.7573 0.66396 0.86591 0.0
H780 H 0.74458 0.62975 0.89159 0.0
C781 C 0.68815 0.66566 0.89093 0.0
C782 C 0.6796 0.6489 0.89305 0.0
C783 C 0.70594 0.66631 0.8865 0.0
C784 C 0.74788 0.63925 0.88433 0.0
H785 H 0.82161 0.68368 0.8571 0.0
H786 H 0.79061 0.68245 0.86484 0.0
H787 H 0.77573 0.63101 0.88408 0.0
H788 H 0.68304 0.61968 0.89218 0.0
H789 H 0.71409 0.62084 0.88444 0.0
H790 H 0.72946 0.67228 0.86625 0.0
C791 C 0.79787 0.66983 0.86344 0.0
C792 C 0.76573 0.63996 0.88001 0.0
C793 C 0.81569 0.67055 0.85906 0.0
C794 C 0.68924 0.63281 0.89066 0.0
C795 C 0.70707 0.63347 0.88629 0.0
C796 C 0.73947 0.66329 0.87027 0.0
C797 C 0.78965 0.65308 0.86614 0.0
C798 C 0.77066 0.65232 0.87074 0.0
C799 C 0.71561 0.65022 0.88416 0.0
C800 C 0.73456 0.65092 0.87952 0.0
H801 H 0.82491 0.62518 0.85877 0.0
H802 H 0.79374 0.62391 0.86621 0.0
H803 H 0.76055 0.67343 0.85863 0.0
H804 H 0.68111 0.6783 0.89269 0.0
H805 H 0.71222 0.67942 0.88508 0.0
C806 C 0.3675 0.30934 0.10979 0.0
C807 C 0.35152 0.31911 0.10729 0.0
C808 C 0.36665 0.29162 0.11434 0.0
C809 C 0.3365 0.26001 0.13077 0.0
H810 H 0.36844 0.22303 0.1175 0.0
C811 C 0.32878 0.18432 0.14338 0.0
C812 C 0.34475 0.17427 0.14529 0.0
C813 C 0.32957 0.20193 0.13863 0.0
C814 C 0.35958 0.23323 0.12141 0.0
H815 H 0.32211 0.31792 0.10764 0.0
H816 H 0.32064 0.28699 0.11557 0.0
H817 H 0.36995 0.25391 0.10951 0.0
H818 H 0.3741 0.17485 0.14375 0.0
H819 H 0.3755 0.20565 0.13565 0.0
H820 H 0.32622 0.23943 0.14275 0.0
C821 C 0.33383 0.29309 0.11409 0.0
C822 C 0.36043 0.25093 0.11682 0.0
C823 C 0.33467 0.31078 0.10948 0.0
C824 C 0.36153 0.1822 0.14233 0.0
C825 C 0.36233 0.19983 0.13762 0.0
C826 C 0.33569 0.24234 0.1354 0.0
C827 C 0.3498 0.28331 0.11656 0.0
C828 C 0.3489 0.26451 0.12144 0.0
C829 C 0.34636 0.20992 0.13572 0.0
C830 C 0.34721 0.22873 0.13078 0.0
H831 H 0.3807 0.31537 0.10822 0.0
H832 H 0.3792 0.28451 0.11628 0.0
H833 H 0.32762 0.27024 0.13465 0.0
H834 H 0.31563 0.17857 0.14551 0.0
H835 H 0.31699 0.2092 0.13711 0.0
C836 C 0.80853 0.83171 0.39224 0.0
C837 C 0.81801 0.84803 0.39405 0.0
C838 C 0.79069 0.83189 0.38788 0.0
C839 C 0.75764 0.86088 0.37136 0.0
H840 H 0.72244 0.82712 0.38471 0.0
C841 C 0.6811 0.86537 0.36021 0.0
C842 C 0.67215 0.84897 0.35763 0.0
C843 C 0.69885 0.86532 0.36473 0.0
C844 C 0.73216 0.83651 0.38081 0.0
H845 H 0.81614 0.87735 0.39278 0.0
H846 H 0.78495 0.87768 0.38535 0.0
H847 H 0.75346 0.82697 0.39251 0.0
H848 H 0.67482 0.81965 0.35781 0.0
H849 H 0.70581 0.81958 0.36569 0.0
H850 H 0.73627 0.87049 0.35972 0.0
C851 C 0.79139 0.86472 0.38711 0.0
C852 C 0.74995 0.83642 0.38527 0.0
C853 C 0.80925 0.86453 0.39144 0.0
C854 C 0.68132 0.83252 0.35972 0.0
C855 C 0.69904 0.83247 0.3643 0.0
C856 C 0.73983 0.86102 0.36694 0.0
C857 C 0.78189 0.84839 0.38525 0.0
C858 C 0.76292 0.84858 0.38058 0.0
C859 C 0.70802 0.84887 0.36683 0.0
C860 C 0.7269 0.84882 0.3716 0.0
H861 H 0.81491 0.81876 0.39413 0.0
H862 H 0.78388 0.81906 0.38639 0.0
H863 H 0.76734 0.87023 0.3674 0.0
H864 H 0.67441 0.87828 0.35871 0.0
H865 H 0.70533 0.87818 0.36672 0.0
C866 C 0.16705 0.31103 0.64093 0.0
C867 C 0.1503 0.31964 0.64299 0.0
C868 C 0.16771 0.29332 0.63633 0.0
C869 C 0.14054 0.2516 0.63346 0.0
H870 H 0.17491 0.23951 0.60773 0.0
C871 C 0.13885 0.18278 0.6081 0.0
C872 C 0.15556 0.17458 0.60526 0.0
C873 C 0.13823 0.20046 0.61274 0.0
C874 C 0.16539 0.24259 0.61502 0.0
H875 H 0.12109 0.3164 0.64187 0.0
H876 H 0.12225 0.28551 0.63384 0.0
H877 H 0.17384 0.27036 0.6158 0.0
H878 H 0.18473 0.17847 0.60515 0.0
H879 H 0.18366 0.20918 0.61342 0.0
H880 H 0.13216 0.22383 0.63276 0.0
C881 C 0.13487 0.29241 0.63586 0.0
C882 C 0.16477 0.26028 0.61963 0.0
C883 C 0.13422 0.31015 0.6404 0.0
C884 C 0.17163 0.18442 0.60719 0.0
C885 C 0.17101 0.20208 0.61187 0.0
C886 C 0.14121 0.23389 0.62888 0.0
C887 C 0.15162 0.28381 0.63376 0.0
C888 C 0.15232 0.26499 0.62889 0.0
C889 C 0.1543 0.21033 0.61468 0.0
C890 C 0.15363 0.22917 0.6196 0.0
H891 H 0.17969 0.31795 0.64284 0.0
H892 H 0.18082 0.28699 0.63494 0.0
H893 H 0.13098 0.25475 0.64072 0.0
H894 H 0.12621 0.1756 0.60667 0.0
H895 H 0.12511 0.20648 0.61463 0.0
loop_
_geom_bond_atom_site_label_1
_geom_bond_atom_site_label_2
_geom_bond_distance
_geom_bond_site_symmetry_2
_ccdc_geom_bond_type
O0 Cd1 2.300 . S
O0 C7 1.275 . S
Cd1 O0 2.300 . S
Cd1 O9 2.381 . S
Cd1 O10 2.378 . S
O2 Cd3 2.385 . S
O2 C7 1.255 . S
Cd3 O2 2.385 . S
Cd3 O4 2.317 . S
O4 Cd3 2.317 . S
O4 C5 1.232 . S
C5 O4 1.232 . S
C5 O6 1.218 . S
O6 C5 1.218 . S
C7 O0 1.275 . S
C7 O2 1.255 . S
C8 O9 1.258 . S
C8 O10 1.256 . S
O9 Cd1 2.381 . S
O9 C8 1.258 . S
O10 Cd1 2.378 . S
O10 C8 1.256 . S
O11 Cd12 2.300 . S
O11 C18 1.275 . S
Cd12 O11 2.300 . S
Cd12 O20 2.381 . S
Cd12 O21 2.378 . S
O13 Cd14 2.385 . S
O13 C18 1.255 . S
Cd14 O13 2.385 . S
Cd14 O15 2.317 . S
O15 Cd14 2.317 . S
O15 C16 1.232 . S
C16 O15 1.232 . S
C16 O17 1.218 . S
O17 C16 1.218 . S
C18 O11 1.275 . S
C18 O13 1.255 . S
C19 O20 1.258 . S
C19 O21 1.256 . S
O20 Cd12 2.381 . S
O20 C19 1.258 . S
O21 Cd12 2.378 . S
O21 C19 1.256 . S
O22 Cd23 2.300 . S
O22 C29 1.275 . S
Cd23 O22 2.300 . S
Cd23 O31 2.381 . S
Cd23 O32 2.378 . S
O24 Cd25 2.385 . S
O24 C29 1.255 . S
Cd25 O24 2.385 . S
Cd25 O26 2.317 . S
O26 Cd25 2.317 . S
O26 C27 1.232 . S
C27 O26 1.232 . S
C27 O28 1.218 . S
O28 C27 1.218 . S
C29 O22 1.275 . S
C29 O24 1.255 . S
C30 O31 1.258 . S
C30 O32 1.256 . S
O31 Cd23 2.381 . S
O31 C30 1.258 . S
O32 Cd23 2.378 . S
O32 C30 1.256 . S
O33 Cd34 2.300 . S
O33 C40 1.275 . S
Cd34 O33 2.300 . S
Cd34 O42 2.381 . S
Cd34 O43 2.378 . S
O35 Cd36 2.385 . S
O35 C40 1.255 . S
Cd36 O35 2.385 . S
Cd36 O37 2.317 . S
O37 Cd36 2.317 . S
O37 C38 1.232 . S
C38 O37 1.232 . S
C38 O39 1.218 . S
O39 C38 1.218 . S
C40 O33 1.275 . S
C40 O35 1.255 . S
C41 O42 1.258 . S
C41 O43 1.256 . S
O42 Cd34 2.381 . S
O42 C41 1.258 . S
O43 Cd34 2.378 . S
O43 C41 1.256 . S
O44 Cd45 2.300 . S
O44 C51 1.275 . S
Cd45 O44 2.300 . S
Cd45 O53 2.381 . S
Cd45 O54 2.378 . S
O46 Cd47 2.385 . S
O46 C51 1.255 . S
Cd47 O46 2.385 . S
Cd47 O48 2.317 . S
O48 Cd47 2.317 . S
O48 C49 1.232 . S
C49 O48 1.232 . S
C49 O50 1.218 . S
O50 C49 1.218 . S
C51 O44 1.275 . S
C51 O46 1.255 . S
C52 O53 1.258 . S
C52 O54 1.256 . S
O53 Cd45 2.381 . S
O53 C52 1.258 . S
O54 Cd45 2.378 . S
O54 C52 1.256 . S
O55 Cd56 2.300 . S
O55 C62 1.275 . S
Cd56 O55 2.300 . S
Cd56 O64 2.381 . S
Cd56 O65 2.378 . S
O57 Cd58 2.385 . S
O57 C62 1.255 . S
Cd58 O57 2.385 . S
Cd58 O59 2.317 . S
O59 Cd58 2.317 . S
O59 C60 1.232 . S
C60 O59 1.232 . S
C60 O61 1.218 . S
O61 C60 1.218 . S
C62 O55 1.275 . S
C62 O57 1.255 . S
C63 O64 1.258 . S
C63 O65 1.256 . S
O64 Cd56 2.381 . S
O64 C63 1.258 . S
O65 Cd56 2.378 . S
O65 C63 1.256 . S
O66 Cd67 2.300 . S
O66 C73 1.275 . S
Cd67 O66 2.300 . S
Cd67 O75 2.381 . S
Cd67 O76 2.378 . S
O68 Cd69 2.385 . S
O68 C73 1.255 . S
Cd69 O68 2.385 . S
Cd69 O70 2.317 . S
O70 Cd69 2.317 . S
O70 C71 1.232 . S
C71 O70 1.232 . S
C71 O72 1.218 . S
O72 C71 1.218 . S
C73 O66 1.275 . S
C73 O68 1.255 . S
C74 O75 1.258 . S
C74 O76 1.256 . S
O75 Cd67 2.381 . S
O75 C74 1.258 . S
O76 Cd67 2.378 . S
O76 C74 1.256 . S
O77 Cd78 2.300 . S
O77 C84 1.275 . S
Cd78 O77 2.300 . S
Cd78 O86 2.381 . S
Cd78 O87 2.378 . S
O79 Cd80 2.385 . S
O79 C84 1.255 . S
Cd80 O79 2.385 . S
Cd80 O81 2.317 . S
O81 Cd80 2.317 . S
O81 C82 1.232 . S
C82 O81 1.232 . S
C82 O83 1.218 . S
O83 C82 1.218 . S
C84 O77 1.275 . S
C84 O79 1.255 . S
C85 O86 1.258 . S
C85 O87 1.256 . S
O86 Cd78 2.381 . S
O86 C85 1.258 . S
O87 Cd78 2.378 . S
O87 C85 1.256 . S
O88 Cd89 2.300 . S
O88 C95 1.275 . S
Cd89 O88 2.300 . S
Cd89 O97 2.381 . S
Cd89 O98 2.378 . S
O90 Cd91 2.385 . S
O90 C95 1.255 . S
Cd91 O90 2.385 . S
Cd91 O92 2.317 . S
O92 Cd91 2.317 . S
O92 C93 1.232 . S
C93 O92 1.232 . S
C93 O94 1.218 . S
O94 C93 1.218 . S
C95 O88 1.275 . S
C95 O90 1.255 . S
C96 O97 1.258 . S
C96 O98 1.256 . S
O97 Cd89 2.381 . S
O97 C96 1.258 . S
O98 Cd89 2.378 . S
O98 C96 1.256 . S
O99 Cd100 2.300 . S
O99 C106 1.275 . S
Cd100 O99 2.300 . S
Cd100 O108 2.381 . S
Cd100 O109 2.378 . S
O101 Cd102 2.385 . S
O101 C106 1.255 . S
Cd102 O101 2.385 . S
Cd102 O103 2.317 . S
O103 Cd102 2.317 . S
O103 C104 1.232 . S
C104 O103 1.232 . S
C104 O105 1.218 . S
O105 C104 1.218 . S
C106 O99 1.275 . S
C106 O101 1.255 . S
C107 O108 1.258 . S
C107 O109 1.256 . S
O108 Cd100 2.381 . S
O108 C107 1.258 . S
O109 Cd100 2.378 . S
O109 C107 1.256 . S
O110 Cd111 2.300 . S
O110 C117 1.275 . S
Cd111 O110 2.300 . S
Cd111 O119 2.381 . S
Cd111 O120 2.378 . S
O112 Cd113 2.385 . S
O112 C117 1.255 . S
Cd113 O112 2.385 . S
Cd113 O114 2.317 . S
O114 Cd113 2.317 . S
O114 C115 1.232 . S
C115 O114 1.232 . S
C115 O116 1.218 . S
O116 C115 1.218 . S
C117 O110 1.275 . S
C117 O112 1.255 . S
C118 O119 1.258 . S
C118 O120 1.256 . S
O119 Cd111 2.381 . S
O119 C118 1.258 . S
O120 Cd111 2.378 . S
O120 C118 1.256 . S
O121 Cd122 2.300 . S
O121 C128 1.275 . S
Cd122 O121 2.300 . S
Cd122 O130 2.381 . S
Cd122 O131 2.378 . S
O123 Cd124 2.385 . S
O123 C128 1.255 . S
Cd124 O123 2.385 . S
Cd124 O125 2.317 . S
O125 Cd124 2.317 . S
O125 C126 1.232 . S
C126 O125 1.232 . S
C126 O127 1.218 . S
O127 C126 1.218 . S
C128 O121 1.275 . S
C128 O123 1.255 . S
C129 O130 1.258 . S
C129 O131 1.256 . S
O130 Cd122 2.381 . S
O130 C129 1.258 . S
O131 Cd122 2.378 . S
O131 C129 1.256 . S
O132 Cd133 2.300 . S
O132 C139 1.275 . S
Cd133 O132 2.300 . S
Cd133 O141 2.381 . S
Cd133 O142 2.378 . S
O134 Cd135 2.385 . S
O134 C139 1.255 . S
Cd135 O134 2.385 . S
Cd135 O136 2.317 . S
O136 Cd135 2.317 . S
O136 C137 1.232 . S
C137 O136 1.232 . S
C137 O138 1.218 . S
O138 C137 1.218 . S
C139 O132 1.275 . S
C139 O134 1.255 . S
C140 O141 1.258 . S
C140 O142 1.256 . S
O141 Cd133 2.381 . S
O141 C140 1.258 . S
O142 Cd133 2.378 . S
O142 C140 1.256 . S
O143 Cd144 2.300 . S
O143 C150 1.275 . S
Cd144 O143 2.300 . S
Cd144 O152 2.381 . S
Cd144 O153 2.378 . S
O145 Cd146 2.385 . S
O145 C150 1.255 . S
Cd146 O145 2.385 . S
Cd146 O147 2.317 . S
O147 Cd146 2.317 . S
O147 C148 1.232 . S
C148 O147 1.232 . S
C148 O149 1.218 . S
O149 C148 1.218 . S
C150 O143 1.275 . S
C150 O145 1.255 . S
C151 O152 1.258 . S
C151 O153 1.256 . S
O152 Cd144 2.381 . S
O152 C151 1.258 . S
O153 Cd144 2.378 . S
O153 C151 1.256 . S
O154 Cd155 2.300 . S
O154 C161 1.275 . S
Cd155 O154 2.300 . S
Cd155 O163 2.381 . S
Cd155 O164 2.378 . S
O156 Cd157 2.385 . S
O156 C161 1.255 . S
Cd157 O156 2.385 . S
Cd157 O158 2.317 . S
O158 Cd157 2.317 . S
O158 C159 1.232 . S
C159 O158 1.232 . S
C159 O160 1.218 . S
O160 C159 1.218 . S
C161 O154 1.275 . S
C161 O156 1.255 . S
C162 O163 1.258 . S
C162 O164 1.256 . S
O163 Cd155 2.381 . S
O163 C162 1.258 . S
O164 Cd155 2.378 . S
O164 C162 1.256 . S
O165 Cd166 2.300 . S
O165 C172 1.275 . S
Cd166 O165 2.300 . S
Cd166 O174 2.381 . S
Cd166 O175 2.378 . S
O167 Cd168 2.385 . S
O167 C172 1.255 . S
Cd168 O167 2.385 . S
Cd168 O169 2.317 . S
O169 Cd168 2.317 . S
O169 C170 1.232 . S
C170 O169 1.232 . S
C170 O171 1.218 . S
O171 C170 1.218 . S
C172 O165 1.275 . S
C172 O167 1.255 . S
C173 O174 1.258 . S
C173 O175 1.256 . S
O174 Cd166 2.381 . S
O174 C173 1.258 . S
O175 Cd166 2.378 . S
O175 C173 1.256 . S
C176 C177 1.349 . S
C176 C178 1.327 . S
C176 H201 0.950 . S
C177 C176 1.349 . S
C177 C193 1.349 . S
C178 C176 1.327 . S
C178 C197 1.429 . S
C178 H202 0.950 . S
C179 C196 1.574 . S
C179 C198 1.368 . S
C179 H203 0.949 . S
H180 C184 0.949 . S
C181 C182 1.349 . S
C181 C183 1.327 . S
C181 H204 0.950 . S
C182 C181 1.349 . S
C182 C194 1.349 . S
C183 C181 1.327 . S
C183 C199 1.429 . S
C183 H205 0.950 . S
C184 H180 0.949 . S
C184 C192 1.574 . S
C184 C200 1.368 . S
H185 C193 0.950 . S
H186 C191 0.950 . S
H187 C192 0.949 . S
H188 C194 0.950 . S
H189 C195 0.950 . S
H190 C196 0.949 . S
C191 H186 0.950 . S
C191 C193 1.327 . S
C191 C197 1.429 . S
C192 C184 1.574 . S
C192 H187 0.949 . S
C192 C198 1.368 . S
C193 C177 1.349 . S
C193 H185 0.950 . S
C193 C191 1.327 . S
C194 C182 1.349 . S
C194 H188 0.950 . S
C194 C195 1.327 . S
C195 H189 0.950 . S
C195 C194 1.327 . S
C195 C199 1.429 . S
C196 C179 1.574 . S
C196 H190 0.949 . S
C196 C200 1.368 . S
C197 C178 1.429 . S
C197 C191 1.429 . S
C197 C198 1.523 . S
C198 C179 1.368 . S
C198 C192 1.368 . S
C198 C197 1.523 . S
C199 C183 1.429 . S
C199 C195 1.429 . S
C199 C200 1.523 . S
C200 C184 1.368 . S
C200 C196 1.368 . S
C200 C199 1.523 . S
H201 C176 0.950 . S
H202 C178 0.950 . S
H203 C179 0.949 . S
H204 C181 0.950 . S
H205 C183 0.950 . S
C206 C207 1.349 . S
C206 C208 1.327 . S
C206 H231 0.950 . S
C207 C206 1.349 . S
C207 C223 1.349 . S
C208 C206 1.327 . S
C208 C227 1.429 . S
C208 H232 0.950 . S
C209 C226 1.574 . S
C209 C228 1.368 . S
C209 H233 0.949 . S
H210 C214 0.949 . S
C211 C212 1.349 . S
C211 C213 1.327 . S
C211 H234 0.950 . S
C212 C211 1.349 . S
C212 C224 1.349 . S
C213 C211 1.327 . S
C213 C229 1.429 . S
C213 H235 0.950 . S
C214 H210 0.949 . S
C214 C222 1.574 . S
C214 C230 1.368 . S
H215 C223 0.950 . S
H216 C221 0.950 . S
H217 C222 0.949 . S
H218 C224 0.950 . S
H219 C225 0.950 . S
H220 C226 0.949 . S
C221 H216 0.950 . S
C221 C223 1.327 . S
C221 C227 1.429 . S
C222 C214 1.574 . S
C222 H217 0.949 . S
C222 C228 1.368 . S
C223 C207 1.349 . S
C223 H215 0.950 . S
C223 C221 1.327 . S
C224 C212 1.349 . S
C224 H218 0.950 . S
C224 C225 1.327 . S
C225 H219 0.950 . S
C225 C224 1.327 . S
C225 C229 1.429 . S
C226 C209 1.574 . S
C226 H220 0.949 . S
C226 C230 1.368 . S
C227 C208 1.429 . S
C227 C221 1.429 . S
C227 C228 1.523 . S
C228 C209 1.368 . S
C228 C222 1.368 . S
C228 C227 1.523 . S
C229 C213 1.429 . S
C229 C225 1.429 . S
C229 C230 1.523 . S
C230 C214 1.368 . S
C230 C226 1.368 . S
C230 C229 1.523 . S
H231 C206 0.950 . S
H232 C208 0.950 . S
H233 C209 0.949 . S
H234 C211 0.950 . S
H235 C213 0.950 . S
C236 C237 1.349 . S
C236 C238 1.327 . S
C236 H261 0.950 . S
C237 C236 1.349 . S
C237 C253 1.349 . S
C238 C236 1.327 . S
C238 C257 1.429 . S
C238 H262 0.950 . S
C239 C256 1.574 1_556 S
C239 C258 1.368 . S
C239 H263 0.949 . S
H240 C244 0.949 . S
C241 C242 1.349 . S
C241 C243 1.327 . S
C241 H264 0.950 . S
C242 C241 1.349 . S
C242 C254 1.349 . S
C243 C241 1.327 . S
C243 C259 1.429 . S
C243 H265 0.950 . S
C244 H240 0.949 . S
C244 C252 1.574 1_554 S
C244 C260 1.368 . S
H245 C253 0.950 . S
H246 C251 0.950 . S
H247 C252 0.949 . S
H248 C254 0.950 . S
H249 C255 0.950 . S
H250 C256 0.949 . S
C251 H246 0.950 . S
C251 C253 1.327 . S
C251 C257 1.429 . S
C252 C244 1.574 1_556 S
C252 H247 0.949 . S
C252 C258 1.368 . S
C253 C237 1.349 . S
C253 H245 0.950 . S
C253 C251 1.327 . S
C254 C242 1.349 . S
C254 H248 0.950 . S
C254 C255 1.327 . S
C255 H249 0.950 . S
C255 C254 1.327 . S
C255 C259 1.429 . S
C256 C239 1.574 1_554 S
C256 H250 0.949 . S
C256 C260 1.368 . S
C257 C238 1.429 . S
C257 C251 1.429 . S
C257 C258 1.523 . S
C258 C239 1.368 . S
C258 C252 1.368 . S
C258 C257 1.523 . S
C259 C243 1.429 . S
C259 C255 1.429 . S
C259 C260 1.523 . S
C260 C244 1.368 . S
C260 C256 1.368 . S
C260 C259 1.523 . S
H261 C236 0.950 . S
H262 C238 0.950 . S
H263 C239 0.949 . S
H264 C241 0.950 . S
H265 C243 0.950 . S
C266 C267 1.349 . S
C266 C268 1.327 . S
C266 H291 0.950 . S
C267 C266 1.349 . S
C267 C283 1.349 . S
C268 C266 1.327 . S
C268 C287 1.429 . S
C268 H292 0.950 . S
C269 C286 1.574 . S
C269 C288 1.368 . S
C269 H293 0.949 . S
H270 C274 0.949 . S
C271 C272 1.349 . S
C271 C273 1.327 . S
C271 H294 0.950 . S
C272 C271 1.349 . S
C272 C284 1.349 . S
C273 C271 1.327 . S
C273 C289 1.429 . S
C273 H295 0.950 . S
C274 H270 0.949 . S
C274 C282 1.574 . S
C274 C290 1.368 . S
H275 C283 0.950 . S
H276 C281 0.950 . S
H277 C282 0.949 . S
H278 C284 0.950 . S
H279 C285 0.950 . S
H280 C286 0.949 . S
C281 H276 0.950 . S
C281 C283 1.327 . S
C281 C287 1.429 . S
C282 C274 1.574 . S
C282 H277 0.949 . S
C282 C288 1.368 . S
C283 C267 1.349 . S
C283 H275 0.950 . S
C283 C281 1.327 . S
C284 C272 1.349 . S
C284 H278 0.950 . S
C284 C285 1.327 . S
C285 H279 0.950 . S
C285 C284 1.327 . S
C285 C289 1.429 . S
C286 C269 1.574 . S
C286 H280 0.949 . S
C286 C290 1.368 . S
C287 C268 1.429 . S
C287 C281 1.429 . S
C287 C288 1.523 . S
C288 C269 1.368 . S
C288 C282 1.368 . S
C288 C287 1.523 . S
C289 C273 1.429 . S
C289 C285 1.429 . S
C289 C290 1.523 . S
C290 C274 1.368 . S
C290 C286 1.368 . S
C290 C289 1.523 . S
H291 C266 0.950 . S
H292 C268 0.950 . S
H293 C269 0.949 . S
H294 C271 0.950 . S
H295 C273 0.950 . S
C296 C297 1.349 . S
C296 C298 1.327 . S
C296 H321 0.950 . S
C297 C296 1.349 . S
C297 C313 1.349 . S
C298 C296 1.327 . S
C298 C317 1.429 . S
C298 H322 0.950 . S
C299 C316 1.574 . S
C299 C318 1.368 . S
C299 H323 0.949 . S
H300 C304 0.949 . S
C301 C302 1.349 . S
C301 C303 1.327 . S
C301 H324 0.950 . S
C302 C301 1.349 . S
C302 C314 1.349 . S
C303 C301 1.327 . S
C303 C319 1.429 . S
C303 H325 0.950 . S
C304 H300 0.949 . S
C304 C312 1.574 . S
C304 C320 1.368 . S
H305 C313 0.950 . S
H306 C311 0.950 . S
H307 C312 0.949 . S
H308 C314 0.950 . S
H309 C315 0.950 . S
H310 C316 0.949 . S
C311 H306 0.950 . S
C311 C313 1.327 . S
C311 C317 1.429 . S
C312 C304 1.574 . S
C312 H307 0.949 . S
C312 C318 1.368 . S
C313 C297 1.349 . S
C313 H305 0.950 . S
C313 C311 1.327 . S
C314 C302 1.349 . S
C314 H308 0.950 . S
C314 C315 1.327 . S
C315 H309 0.950 . S
C315 C314 1.327 . S
C315 C319 1.429 . S
C316 C299 1.574 . S
C316 H310 0.949 . S
C316 C320 1.368 . S
C317 C298 1.429 . S
C317 C311 1.429 . S
C317 C318 1.523 . S
C318 C299 1.368 . S
C318 C312 1.368 . S
C318 C317 1.523 . S
C319 C303 1.429 . S
C319 C315 1.429 . S
C319 C320 1.523 . S
C320 C304 1.368 . S
C320 C316 1.368 . S
C320 C319 1.523 . S
H321 C296 0.950 . S
H322 C298 0.950 . S
H323 C299 0.949 . S
H324 C301 0.950 . S
H325 C303 0.950 . S
C326 C327 1.349 . S
C326 C328 1.327 . S
C326 H351 0.950 . S
C327 C326 1.349 . S
C327 C343 1.349 . S
C328 C326 1.327 . S
C328 C347 1.429 . S
C328 H352 0.950 . S
C329 C346 1.574 1_556 S
C329 C348 1.368 . S
C329 H353 0.949 . S
H330 C334 0.949 . S
C331 C332 1.349 . S
C331 C333 1.327 . S
C331 H354 0.950 . S
C332 C331 1.349 . S
C332 C344 1.349 . S
C333 C331 1.327 . S
C333 C349 1.429 . S
C333 H355 0.950 . S
C334 H330 0.949 . S
C334 C342 1.574 1_554 S
C334 C350 1.368 . S
H335 C343 0.950 . S
H336 C341 0.950 . S
H337 C342 0.949 . S
H338 C344 0.950 . S
H339 C345 0.950 . S
H340 C346 0.949 . S
C341 H336 0.950 . S
C341 C343 1.327 . S
C341 C347 1.429 . S
C342 C334 1.574 1_556 S
C342 H337 0.949 . S
C342 C348 1.368 . S
C343 C327 1.349 . S
C343 H335 0.950 . S
C343 C341 1.327 . S
C344 C332 1.349 . S
C344 H338 0.950 . S
C344 C345 1.327 . S
C345 H339 0.950 . S
C345 C344 1.327 . S
C345 C349 1.429 . S
C346 C329 1.574 1_554 S
C346 H340 0.949 . S
C346 C350 1.368 . S
C347 C328 1.429 . S
C347 C341 1.429 . S
C347 C348 1.523 . S
C348 C329 1.368 . S
C348 C342 1.368 . S
C348 C347 1.523 . S
C349 C333 1.429 . S
C349 C345 1.429 . S
C349 C350 1.523 . S
C350 C334 1.368 . S
C350 C346 1.368 . S
C350 C349 1.523 . S
H351 C326 0.950 . S
H352 C328 0.950 . S
H353 C329 0.949 . S
H354 C331 0.950 . S
H355 C333 0.950 . S
C356 C357 1.349 . S
C356 C358 1.327 . S
C356 H381 0.950 . S
C357 C356 1.349 . S
C357 C373 1.349 . S
C358 C356 1.327 . S
C358 C377 1.429 . S
C358 H382 0.950 . S
C359 C376 1.574 . S
C359 C378 1.368 . S
C359 H383 0.949 . S
H360 C364 0.949 . S
C361 C362 1.349 . S
C361 C363 1.327 . S
C361 H384 0.950 . S
C362 C361 1.349 . S
C362 C374 1.349 . S
C363 C361 1.327 . S
C363 C379 1.429 . S
C363 H385 0.950 . S
C364 H360 0.949 . S
C364 C372 1.574 . S
C364 C380 1.368 . S
H365 C373 0.950 . S
H366 C371 0.950 . S
H367 C372 0.949 . S
H368 C374 0.950 . S
H369 C375 0.950 . S
H370 C376 0.949 . S
C371 H366 0.950 . S
C371 C373 1.327 . S
C371 C377 1.429 . S
C372 C364 1.574 . S
C372 H367 0.949 . S
C372 C378 1.368 . S
C373 C357 1.349 . S
C373 H365 0.950 . S
C373 C371 1.327 . S
C374 C362 1.349 . S
C374 H368 0.950 . S
C374 C375 1.327 . S
C375 H369 0.950 . S
C375 C374 1.327 . S
C375 C379 1.429 . S
C376 C359 1.574 . S
C376 H370 0.949 . S
C376 C380 1.368 . S
C377 C358 1.429 . S
C377 C371 1.429 . S
C377 C378 1.523 . S
C378 C359 1.368 . S
C378 C372 1.368 . S
C378 C377 1.523 . S
C379 C363 1.429 . S
C379 C375 1.429 . S
C379 C380 1.523 . S
C380 C364 1.368 . S
C380 C376 1.368 . S
C380 C379 1.523 . S
H381 C356 0.950 . S
H382 C358 0.950 . S
H383 C359 0.949 . S
H384 C361 0.950 . S
H385 C363 0.950 . S
C386 C387 1.349 . S
C386 C388 1.327 . S
C386 H411 0.950 . S
C387 C386 1.349 . S
C387 C403 1.349 . S
C388 C386 1.327 . S
C388 C407 1.429 . S
C388 H412 0.950 . S
C389 C406 1.574 . S
C389 C408 1.368 . S
C389 H413 0.949 . S
H390 C394 0.949 . S
C391 C392 1.349 . S
C391 C393 1.327 . S
C391 H414 0.950 . S
C392 C391 1.349 . S
C392 C404 1.349 . S
C393 C391 1.327 . S
C393 C409 1.429 . S
C393 H415 0.950 . S
C394 H390 0.949 . S
C394 C402 1.574 . S
C394 C410 1.368 . S
H395 C403 0.950 . S
H396 C401 0.950 . S
H397 C402 0.949 . S
H398 C404 0.950 . S
H399 C405 0.950 . S
H400 C406 0.949 . S
C401 H396 0.950 . S
C401 C403 1.327 . S
C401 C407 1.429 . S
C402 C394 1.574 . S
C402 H397 0.949 . S
C402 C408 1.368 . S
C403 C387 1.349 . S
C403 H395 0.950 . S
C403 C401 1.327 . S
C404 C392 1.349 . S
C404 H398 0.950 . S
C404 C405 1.327 . S
C405 H399 0.950 . S
C405 C404 1.327 . S
C405 C409 1.429 . S
C406 C389 1.574 . S
C406 H400 0.949 . S
C406 C410 1.368 . S
C407 C388 1.429 . S
C407 C401 1.429 . S
C407 C408 1.523 . S
C408 C389 1.368 . S
C408 C402 1.368 . S
C408 C407 1.523 . S
C409 C393 1.429 . S
C409 C405 1.429 . S
C409 C410 1.523 . S
C410 C394 1.368 . S
C410 C406 1.368 . S
C410 C409 1.523 . S
H411 C386 0.950 . S
H412 C388 0.950 . S
H413 C389 0.949 . S
H414 C391 0.950 . S
H415 C393 0.950 . S
C416 C417 1.349 . S
C416 C418 1.327 . S
C416 H441 0.950 . S
C417 C416 1.349 . S
C417 C433 1.349 . S
C418 C416 1.327 . S
C418 C437 1.429 . S
C418 H442 0.950 . S
C419 C436 1.526 1_665 S
C419 C438 1.370 . S
C419 H443 0.949 . S
H420 C424 0.949 . S
C421 C422 1.349 . S
C421 C423 1.327 . S
C421 H444 0.950 . S
C422 C421 1.349 . S
C422 C434 1.349 . S
C423 C421 1.327 . S
C423 C439 1.429 . S
C423 H445 0.950 . S
C424 H420 0.949 . S
C424 C432 1.526 1_445 S
C424 C440 1.370 . S
H425 C433 0.950 . S
H426 C431 0.950 . S
H427 C432 0.956 . S
H428 C434 0.950 . S
H429 C435 0.950 . S
H430 C436 0.956 . S
C431 H426 0.950 . S
C431 C433 1.327 . S
C431 C437 1.429 . S
C432 C424 1.526 1_665 S
C432 H427 0.956 . S
C432 C438 1.411 . S
C433 C417 1.349 . S
C433 H425 0.950 . S
C433 C431 1.327 . S
C434 C422 1.349 . S
C434 H428 0.950 . S
C434 C435 1.327 . S
C435 H429 0.950 . S
C435 C434 1.327 . S
C435 C439 1.429 . S
C436 C419 1.526 1_445 S
C436 H430 0.956 . S
C436 C440 1.411 . S
C437 C418 1.429 . S
C437 C431 1.429 . S
C437 C438 1.523 . S
C438 C419 1.370 . S
C438 C432 1.411 . S
C438 C437 1.523 . S
C439 C423 1.429 . S
C439 C435 1.429 . S
C439 C440 1.523 . S
C440 C424 1.370 . S
C440 C436 1.411 . S
C440 C439 1.523 . S
H441 C416 0.950 . S
H442 C418 0.950 . S
H443 C419 0.949 . S
H444 C421 0.950 . S
H445 C423 0.950 . S
C446 C447 1.349 . S
C446 C448 1.327 . S
C446 H471 0.950 . S
C447 C446 1.349 . S
C447 C463 1.349 . S
C448 C446 1.327 . S
C448 C467 1.429 . S
C448 H472 0.950 . S
C449 C466 1.572 1_455 S
C449 C468 1.370 . S
C449 H473 0.949 . S
H450 C454 0.949 . S
C451 C452 1.349 . S
C451 C453 1.327 . S
C451 H474 0.950 . S
C452 C451 1.349 . S
C452 C464 1.349 . S
C453 C451 1.327 . S
C453 C469 1.429 . S
C453 H475 0.950 . S
C454 H450 0.949 . S
C454 C462 1.572 1_655 S
C454 C470 1.370 . S
H455 C463 0.950 . S
H456 C461 0.950 . S
H457 C462 0.949 . S
H458 C464 0.950 . S
H459 C465 0.950 . S
H460 C466 0.949 . S
C461 H456 0.950 . S
C461 C463 1.327 . S
C461 C467 1.429 . S
C462 C454 1.572 1_455 S
C462 H457 0.949 . S
C462 C468 1.368 . S
C463 C447 1.349 . S
C463 H455 0.950 . S
C463 C461 1.327 . S
C464 C452 1.349 . S
C464 H458 0.950 . S
C464 C465 1.327 . S
C465 H459 0.950 . S
C465 C464 1.327 . S
C465 C469 1.429 . S
C466 C449 1.572 1_655 S
C466 H460 0.949 . S
C466 C470 1.368 . S
C467 C448 1.429 . S
C467 C461 1.429 . S
C467 C468 1.523 . S
C468 C449 1.370 . S
C468 C462 1.368 . S
C468 C467 1.523 . S
C469 C453 1.429 . S
C469 C465 1.429 . S
C469 C470 1.523 . S
C470 C454 1.370 . S
C470 C466 1.368 . S
C470 C469 1.523 . S
H471 C446 0.950 . S
H472 C448 0.950 . S
H473 C449 0.949 . S
H474 C451 0.950 . S
H475 C453 0.950 . S
C476 C477 1.349 . S
C476 C478 1.327 . S
C476 H501 0.950 . S
C477 C476 1.349 . S
C477 C493 1.349 . S
C478 C476 1.327 . S
C478 C497 1.429 . S
C478 H502 0.950 . S
C479 C496 1.574 . S
C479 C498 1.368 . S
C479 H503 0.949 . S
H480 C484 0.949 . S
C481 C482 1.349 . S
C481 C483 1.327 . S
C481 H504 0.950 . S
C482 C481 1.349 . S
C482 C494 1.349 . S
C483 C481 1.327 . S
C483 C499 1.429 . S
C483 H505 0.950 . S
C484 H480 0.949 . S
C484 C492 1.574 . S
C484 C500 1.368 . S
H485 C493 0.950 . S
H486 C491 0.950 . S
H487 C492 0.949 . S
H488 C494 0.950 . S
H489 C495 0.950 . S
H490 C496 0.949 . S
C491 H486 0.950 . S
C491 C493 1.327 . S
C491 C497 1.429 . S
C492 C484 1.574 . S
C492 H487 0.949 . S
C492 C498 1.368 . S
C493 C477 1.349 . S
C493 H485 0.950 . S
C493 C491 1.327 . S
C494 C482 1.349 . S
C494 H488 0.950 . S
C494 C495 1.327 . S
C495 H489 0.950 . S
C495 C494 1.327 . S
C495 C499 1.429 . S
C496 C479 1.574 . S
C496 H490 0.949 . S
C496 C500 1.368 . S
C497 C478 1.429 . S
C497 C491 1.429 . S
C497 C498 1.523 . S
C498 C479 1.368 . S
C498 C492 1.368 . S
C498 C497 1.523 . S
C499 C483 1.429 . S
C499 C495 1.429 . S
C499 C500 1.523 . S
C500 C484 1.368 . S
C500 C496 1.368 . S
C500 C499 1.523 . S
H501 C476 0.950 . S
H502 C478 0.950 . S
H503 C479 0.949 . S
H504 C481 0.950 . S
H505 C483 0.950 . S
C506 C507 1.349 . S
C506 C508 1.327 . S
C506 H531 0.950 . S
C507 C506 1.349 . S
C507 C523 1.349 . S
C508 C506 1.327 . S
C508 C527 1.429 . S
C508 H532 0.950 . S
C509 C526 1.526 1_565 S
C509 C528 1.412 . S
C509 H533 0.956 . S
H510 C514 0.956 . S
C511 C512 1.349 . S
C511 C513 1.327 . S
C511 H534 0.950 . S
C512 C511 1.349 . S
C512 C524 1.349 . S
C513 C511 1.327 . S
C513 C529 1.429 . S
C513 H535 0.950 . S
C514 H510 0.956 . S
C514 C522 1.526 1_545 S
C514 C530 1.412 . S
H515 C523 0.950 . S
H516 C521 0.950 . S
H517 C522 0.949 . S
H518 C524 0.950 . S
H519 C525 0.950 . S
H520 C526 0.949 . S
C521 H516 0.950 . S
C521 C523 1.327 . S
C521 C527 1.429 . S
C522 C514 1.526 1_565 S
C522 H517 0.949 . S
C522 C528 1.368 . S
C523 C507 1.349 . S
C523 H515 0.950 . S
C523 C521 1.327 . S
C524 C512 1.349 . S
C524 H518 0.950 . S
C524 C525 1.327 . S
C525 H519 0.950 . S
C525 C524 1.327 . S
C525 C529 1.429 . S
C526 C509 1.526 1_545 S
C526 H520 0.949 . S
C526 C530 1.368 . S
C527 C508 1.429 . S
C527 C521 1.429 . S
C527 C528 1.523 . S
C528 C509 1.412 . S
C528 C522 1.368 . S
C528 C527 1.523 . S
C529 C513 1.429 . S
C529 C525 1.429 . S
C529 C530 1.523 . S
C530 C514 1.412 . S
C530 C526 1.368 . S
C530 C529 1.523 . S
H531 C506 0.950 . S
H532 C508 0.950 . S
H533 C509 0.956 . S
H534 C511 0.950 . S
H535 C513 0.950 . S
C536 C537 1.349 . S
C536 C538 1.327 . S
C536 H561 0.950 . S
C537 C536 1.349 . S
C537 C553 1.349 . S
C538 C536 1.327 . S
C538 C557 1.429 . S
C538 H562 0.950 . S
C539 C556 1.526 1_655 S
C539 C558 1.368 . S
C539 H563 0.949 . S
H540 C544 0.949 . S
C541 C542 1.349 . S
C541 C543 1.327 . S
C541 H564 0.950 . S
C542 C541 1.349 . S
C542 C554 1.349 . S
C543 C541 1.327 . S
C543 C559 1.429 . S
C543 H565 0.950 . S
C544 H540 0.949 . S
C544 C552 1.526 1_455 S
C544 C560 1.368 . S
H545 C553 0.950 . S
H546 C551 0.950 . S
H547 C552 0.956 . S
H548 C554 0.950 . S
H549 C555 0.950 . S
H550 C556 0.956 . S
C551 H546 0.950 . S
C551 C553 1.327 . S
C551 C557 1.429 . S
C552 C544 1.526 1_655 S
C552 H547 0.956 . S
C552 C558 1.412 . S
C553 C537 1.349 . S
C553 H545 0.950 . S
C553 C551 1.327 . S
C554 C542 1.349 . S
C554 H548 0.950 . S
C554 C555 1.327 . S
C555 H549 0.950 . S
C555 C554 1.327 . S
C555 C559 1.429 . S
C556 C539 1.526 1_455 S
C556 H550 0.956 . S
C556 C560 1.412 . S
C557 C538 1.429 . S
C557 C551 1.429 . S
C557 C558 1.523 . S
C558 C539 1.368 . S
C558 C552 1.412 . S
C558 C557 1.523 . S
C559 C543 1.429 . S
C559 C555 1.429 . S
C559 C560 1.523 . S
C560 C544 1.368 . S
C560 C556 1.412 . S
C560 C559 1.523 . S
H561 C536 0.950 . S
H562 C538 0.950 . S
H563 C539 0.949 . S
H564 C541 0.950 . S
H565 C543 0.950 . S
C566 C567 1.349 . S
C566 C568 1.327 . S
C566 H591 0.950 . S
C567 C566 1.349 . S
C567 C583 1.349 . S
C568 C566 1.327 . S
C568 C587 1.429 . S
C568 H592 0.950 . S
C569 C586 1.574 . S
C569 C588 1.368 . S
C569 H593 0.949 . S
H570 C574 0.949 . S
C571 C572 1.349 . S
C571 C573 1.327 . S
C571 H594 0.950 . S
C572 C571 1.349 . S
C572 C584 1.349 . S
C573 C571 1.327 . S
C573 C589 1.429 . S
C573 H595 0.950 . S
C574 H570 0.949 . S
C574 C582 1.574 . S
C574 C590 1.368 . S
H575 C583 0.950 . S
H576 C581 0.950 . S
H577 C582 0.949 . S
H578 C584 0.950 . S
H579 C585 0.950 . S
H580 C586 0.949 . S
C581 H576 0.950 . S
C581 C583 1.327 . S
C581 C587 1.429 . S
C582 C574 1.574 . S
C582 H577 0.949 . S
C582 C588 1.368 . S
C583 C567 1.349 . S
C583 H575 0.950 . S
C583 C581 1.327 . S
C584 C572 1.349 . S
C584 H578 0.950 . S
C584 C585 1.327 . S
C585 H579 0.950 . S
C585 C584 1.327 . S
C585 C589 1.429 . S
C586 C569 1.574 . S
C586 H580 0.949 . S
C586 C590 1.368 . S
C587 C568 1.429 . S
C587 C581 1.429 . S
C587 C588 1.523 . S
C588 C569 1.368 . S
C588 C582 1.368 . S
C588 C587 1.523 . S
C589 C573 1.429 . S
C589 C585 1.429 . S
C589 C590 1.523 . S
C590 C574 1.368 . S
C590 C586 1.368 . S
C590 C589 1.523 . S
H591 C566 0.950 . S
H592 C568 0.950 . S
H593 C569 0.949 . S
H594 C571 0.950 . S
H595 C573 0.950 . S
C596 C597 1.349 . S
C596 C598 1.327 . S
C596 H621 0.950 . S
C597 C596 1.349 . S
C597 C613 1.349 . S
C598 C596 1.327 . S
C598 C617 1.429 . S
C598 H622 0.950 . S
C599 C616 1.572 1_545 S
C599 C618 1.370 . S
C599 H623 0.949 . S
H600 C604 0.949 . S
C601 C602 1.349 . S
C601 C603 1.327 . S
C601 H624 0.950 . S
C602 C601 1.349 . S
C602 C614 1.349 . S
C603 C601 1.327 . S
C603 C619 1.429 . S
C603 H625 0.950 . S
C604 H600 0.949 . S
C604 C612 1.572 1_565 S
C604 C620 1.370 . S
H605 C613 0.950 . S
H606 C611 0.950 . S
H607 C612 0.949 . S
H608 C614 0.950 . S
H609 C615 0.950 . S
H610 C616 0.949 . S
C611 H606 0.950 . S
C611 C613 1.327 . S
C611 C617 1.429 . S
C612 C604 1.572 1_545 S
C612 H607 0.949 . S
C612 C618 1.368 . S
C613 C597 1.349 . S
C613 H605 0.950 . S
C613 C611 1.327 . S
C614 C602 1.349 . S
C614 H608 0.950 . S
C614 C615 1.327 . S
C615 H609 0.950 . S
C615 C614 1.327 . S
C615 C619 1.429 . S
C616 C599 1.572 1_565 S
C616 H610 0.949 . S
C616 C620 1.368 . S
C617 C598 1.429 . S
C617 C611 1.429 . S
C617 C618 1.523 . S
C618 C599 1.370 . S
C618 C612 1.368 . S
C618 C617 1.523 . S
C619 C603 1.429 . S
C619 C615 1.429 . S
C619 C620 1.523 . S
C620 C604 1.370 . S
C620 C616 1.368 . S
C620 C619 1.523 . S
H621 C596 0.950 . S
H622 C598 0.950 . S
H623 C599 0.949 . S
H624 C601 0.950 . S
H625 C603 0.950 . S
C626 C627 1.349 . S
C626 C628 1.327 . S
C626 H651 0.950 . S
C627 C626 1.349 . S
C627 C643 1.349 . S
C628 C626 1.327 . S
C628 C647 1.429 . S
C628 H652 0.950 . S
C629 C646 1.526 1_445 S
C629 C648 1.411 . S
C629 H653 0.956 . S
H630 C634 0.956 . S
C631 C632 1.349 . S
C631 C633 1.327 . S
C631 H654 0.950 . S
C632 C631 1.349 . S
C632 C644 1.349 . S
C633 C631 1.327 . S
C633 C649 1.429 . S
C633 H655 0.950 . S
C634 H630 0.956 . S
C634 C642 1.526 1_665 S
C634 C650 1.411 . S
H635 C643 0.950 . S
H636 C641 0.950 . S
H637 C642 0.949 . S
H638 C644 0.950 . S
H639 C645 0.950 . S
H640 C646 0.949 . S
C641 H636 0.950 . S
C641 C643 1.327 . S
C641 C647 1.429 . S
C642 C634 1.526 1_445 S
C642 H637 0.949 . S
C642 C648 1.370 . S
C643 C627 1.349 . S
C643 H635 0.950 . S
C643 C641 1.327 . S
C644 C632 1.349 . S
C644 H638 0.950 . S
C644 C645 1.327 . S
C645 H639 0.950 . S
C645 C644 1.327 . S
C645 C649 1.429 . S
C646 C629 1.526 1_665 S
C646 H640 0.949 . S
C646 C650 1.370 . S
C647 C628 1.429 . S
C647 C641 1.429 . S
C647 C648 1.523 . S
C648 C629 1.411 . S
C648 C642 1.370 . S
C648 C647 1.523 . S
C649 C633 1.429 . S
C649 C645 1.429 . S
C649 C650 1.523 . S
C650 C634 1.411 . S
C650 C646 1.370 . S
C650 C649 1.523 . S
H651 C626 0.950 . S
H652 C628 0.950 . S
H653 C629 0.956 . S
H654 C631 0.950 . S
H655 C633 0.950 . S
C656 C657 1.349 . S
C656 C658 1.327 . S
C656 H681 0.950 . S
C657 C656 1.349 . S
C657 C673 1.349 . S
C658 C656 1.327 . S
C658 C677 1.429 . S
C658 H682 0.950 . S
C659 C676 1.574 . S
C659 C678 1.368 . S
C659 H683 0.949 . S
H660 C664 0.949 . S
C661 C662 1.349 . S
C661 C663 1.327 . S
C661 H684 0.950 . S
C662 C661 1.349 . S
C662 C674 1.349 . S
C663 C661 1.327 . S
C663 C679 1.429 . S
C663 H685 0.950 . S
C664 H660 0.949 . S
C664 C672 1.574 . S
C664 C680 1.368 . S
H665 C673 0.950 . S
H666 C671 0.950 . S
H667 C672 0.949 . S
H668 C674 0.950 . S
H669 C675 0.950 . S
H670 C676 0.949 . S
C671 H666 0.950 . S
C671 C673 1.327 . S
C671 C677 1.429 . S
C672 C664 1.574 . S
C672 H667 0.949 . S
C672 C678 1.368 . S
C673 C657 1.349 . S
C673 H665 0.950 . S
C673 C671 1.327 . S
C674 C662 1.349 . S
C674 H668 0.950 . S
C674 C675 1.327 . S
C675 H669 0.950 . S
C675 C674 1.327 . S
C675 C679 1.429 . S
C676 C659 1.574 . S
C676 H670 0.949 . S
C676 C680 1.368 . S
C677 C658 1.429 . S
C677 C671 1.429 . S
C677 C678 1.523 . S
C678 C659 1.368 . S
C678 C672 1.368 . S
C678 C677 1.523 . S
C679 C663 1.429 . S
C679 C675 1.429 . S
C679 C680 1.523 . S
C680 C664 1.368 . S
C680 C676 1.368 . S
C680 C679 1.523 . S
H681 C656 0.950 . S
H682 C658 0.950 . S
H683 C659 0.949 . S
H684 C661 0.950 . S
H685 C663 0.950 . S
C686 C687 1.349 . S
C686 C688 1.327 . S
C686 H711 0.950 . S
C687 C686 1.349 . S
C687 C703 1.349 . S
C688 C686 1.327 . S
C688 C707 1.429 . S
C688 H712 0.950 . S
C689 C706 1.574 . S
C689 C708 1.368 . S
C689 H713 0.949 . S
H690 C694 0.949 . S
C691 C692 1.349 . S
C691 C693 1.327 . S
C691 H714 0.950 . S
C692 C691 1.349 . S
C692 C704 1.349 . S
C693 C691 1.327 . S
C693 C709 1.429 . S
C693 H715 0.950 . S
C694 H690 0.949 . S
C694 C702 1.574 . S
C694 C710 1.368 . S
H695 C703 0.950 . S
H696 C701 0.950 . S
H697 C702 0.949 . S
H698 C704 0.950 . S
H699 C705 0.950 . S
H700 C706 0.949 . S
C701 H696 0.950 . S
C701 C703 1.327 . S
C701 C707 1.429 . S
C702 C694 1.574 . S
C702 H697 0.949 . S
C702 C708 1.368 . S
C703 C687 1.349 . S
C703 H695 0.950 . S
C703 C701 1.327 . S
C704 C692 1.349 . S
C704 H698 0.950 . S
C704 C705 1.327 . S
C705 H699 0.950 . S
C705 C704 1.327 . S
C705 C709 1.429 . S
C706 C689 1.574 . S
C706 H700 0.949 . S
C706 C710 1.368 . S
C707 C688 1.429 . S
C707 C701 1.429 . S
C707 C708 1.523 . S
C708 C689 1.368 . S
C708 C702 1.368 . S
C708 C707 1.523 . S
C709 C693 1.429 . S
C709 C705 1.429 . S
C709 C710 1.523 . S
C710 C694 1.368 . S
C710 C706 1.368 . S
C710 C709 1.523 . S
H711 C686 0.950 . S
H712 C688 0.950 . S
H713 C689 0.949 . S
H714 C691 0.950 . S
H715 C693 0.950 . S
C716 C717 1.349 . S
C716 C718 1.327 . S
C716 H741 0.950 . S
C717 C716 1.349 . S
C717 C733 1.349 . S
C718 C716 1.327 . S
C718 C737 1.429 . S
C718 H742 0.950 . S
C719 C736 1.574 . S
C719 C738 1.368 . S
C719 H743 0.949 . S
H720 C724 0.949 . S
C721 C722 1.349 . S
C721 C723 1.327 . S
C721 H744 0.950 . S
C722 C721 1.349 . S
C722 C734 1.349 . S
C723 C721 1.327 . S
C723 C739 1.429 . S
C723 H745 0.950 . S
C724 H720 0.949 . S
C724 C732 1.574 . S
C724 C740 1.368 . S
H725 C733 0.950 . S
H726 C731 0.950 . S
H727 C732 0.949 . S
H728 C734 0.950 . S
H729 C735 0.950 . S
H730 C736 0.949 . S
C731 H726 0.950 . S
C731 C733 1.327 . S
C731 C737 1.429 . S
C732 C724 1.574 . S
C732 H727 0.949 . S
C732 C738 1.368 . S
C733 C717 1.349 . S
C733 H725 0.950 . S
C733 C731 1.327 . S
C734 C722 1.349 . S
C734 H728 0.950 . S
C734 C735 1.327 . S
C735 H729 0.950 . S
C735 C734 1.327 . S
C735 C739 1.429 . S
C736 C719 1.574 . S
C736 H730 0.949 . S
C736 C740 1.368 . S
C737 C718 1.429 . S
C737 C731 1.429 . S
C737 C738 1.523 . S
C738 C719 1.368 . S
C738 C732 1.368 . S
C738 C737 1.523 . S
C739 C723 1.429 . S
C739 C735 1.429 . S
C739 C740 1.523 . S
C740 C724 1.368 . S
C740 C736 1.368 . S
C740 C739 1.523 . S
H741 C716 0.950 . S
H742 C718 0.950 . S
H743 C719 0.949 . S
H744 C721 0.950 . S
H745 C723 0.950 . S
C746 C747 1.349 . S
C746 C748 1.327 . S
C746 H771 0.950 . S
C747 C746 1.349 . S
C747 C763 1.349 . S
C748 C746 1.327 . S
C748 C767 1.429 . S
C748 H772 0.950 . S
C749 C766 1.574 . S
C749 C768 1.368 . S
C749 H773 0.949 . S
H750 C754 0.949 . S
C751 C752 1.349 . S
C751 C753 1.327 . S
C751 H774 0.950 . S
C752 C751 1.349 . S
C752 C764 1.349 . S
C753 C751 1.327 . S
C753 C769 1.429 . S
C753 H775 0.950 . S
C754 H750 0.949 . S
C754 C762 1.574 . S
C754 C770 1.368 . S
H755 C763 0.950 . S
H756 C761 0.950 . S
H757 C762 0.949 . S
H758 C764 0.950 . S
H759 C765 0.950 . S
H760 C766 0.949 . S
C761 H756 0.950 . S
C761 C763 1.327 . S
C761 C767 1.429 . S
C762 C754 1.574 . S
C762 H757 0.949 . S
C762 C768 1.368 . S
C763 C747 1.349 . S
C763 H755 0.950 . S
C763 C761 1.327 . S
C764 C752 1.349 . S
C764 H758 0.950 . S
C764 C765 1.327 . S
C765 H759 0.950 . S
C765 C764 1.327 . S
C765 C769 1.429 . S
C766 C749 1.574 . S
C766 H760 0.949 . S
C766 C770 1.368 . S
C767 C748 1.429 . S
C767 C761 1.429 . S
C767 C768 1.523 . S
C768 C749 1.368 . S
C768 C762 1.368 . S
C768 C767 1.523 . S
C769 C753 1.429 . S
C769 C765 1.429 . S
C769 C770 1.523 . S
C770 C754 1.368 . S
C770 C766 1.368 . S
C770 C769 1.523 . S
H771 C746 0.950 . S
H772 C748 0.950 . S
H773 C749 0.949 . S
H774 C751 0.950 . S
H775 C753 0.950 . S
C776 C777 1.349 . S
C776 C778 1.327 . S
C776 H801 0.950 . S
C777 C776 1.349 . S
C777 C793 1.349 . S
C778 C776 1.327 . S
C778 C797 1.429 . S
C778 H802 0.950 . S
C779 C796 1.574 . S
C779 C798 1.368 . S
C779 H803 0.949 . S
H780 C784 0.949 . S
C781 C782 1.349 . S
C781 C783 1.327 . S
C781 H804 0.950 . S
C782 C781 1.349 . S
C782 C794 1.349 . S
C783 C781 1.327 . S
C783 C799 1.429 . S
C783 H805 0.950 . S
C784 H780 0.949 . S
C784 C792 1.574 . S
C784 C800 1.368 . S
H785 C793 0.950 . S
H786 C791 0.950 . S
H787 C792 0.949 . S
H788 C794 0.950 . S
H789 C795 0.950 . S
H790 C796 0.949 . S
C791 H786 0.950 . S
C791 C793 1.327 . S
C791 C797 1.429 . S
C792 C784 1.574 . S
C792 H787 0.949 . S
C792 C798 1.368 . S
C793 C777 1.349 . S
C793 H785 0.950 . S
C793 C791 1.327 . S
C794 C782 1.349 . S
C794 H788 0.950 . S
C794 C795 1.327 . S
C795 H789 0.950 . S
C795 C794 1.327 . S
C795 C799 1.429 . S
C796 C779 1.574 . S
C796 H790 0.949 . S
C796 C800 1.368 . S
C797 C778 1.429 . S
C797 C791 1.429 . S
C797 C798 1.523 . S
C798 C779 1.368 . S
C798 C792 1.368 . S
C798 C797 1.523 . S
C799 C783 1.429 . S
C799 C795 1.429 . S
C799 C800 1.523 . S
C800 C784 1.368 . S
C800 C796 1.368 . S
C800 C799 1.523 . S
H801 C776 0.950 . S
H802 C778 0.950 . S
H803 C779 0.949 . S
H804 C781 0.950 . S
H805 C783 0.950 . S
C806 C807 1.349 . S
C806 C808 1.327 . S
C806 H831 0.950 . S
C807 C806 1.349 . S
C807 C823 1.349 . S
C808 C806 1.327 . S
C808 C827 1.429 . S
C808 H832 0.950 . S
C809 C826 1.574 . S
C809 C828 1.368 . S
C809 H833 0.949 . S
H810 C814 0.949 . S
C811 C812 1.349 . S
C811 C813 1.327 . S
C811 H834 0.950 . S
C812 C811 1.349 . S
C812 C824 1.349 . S
C813 C811 1.327 . S
C813 C829 1.429 . S
C813 H835 0.950 . S
C814 H810 0.949 . S
C814 C822 1.574 . S
C814 C830 1.368 . S
H815 C823 0.950 . S
H816 C821 0.950 . S
H817 C822 0.949 . S
H818 C824 0.950 . S
H819 C825 0.950 . S
H820 C826 0.949 . S
C821 H816 0.950 . S
C821 C823 1.327 . S
C821 C827 1.429 . S
C822 C814 1.574 . S
C822 H817 0.949 . S
C822 C828 1.368 . S
C823 C807 1.349 . S
C823 H815 0.950 . S
C823 C821 1.327 . S
C824 C812 1.349 . S
C824 H818 0.950 . S
C824 C825 1.327 . S
C825 H819 0.950 . S
C825 C824 1.327 . S
C825 C829 1.429 . S
C826 C809 1.574 . S
C826 H820 0.949 . S
C826 C830 1.368 . S
C827 C808 1.429 . S
C827 C821 1.429 . S
C827 C828 1.523 . S
C828 C809 1.368 . S
C828 C822 1.368 . S
C828 C827 1.523 . S
C829 C813 1.429 . S
C829 C825 1.429 . S
C829 C830 1.523 . S
C830 C814 1.368 . S
C830 C826 1.368 . S
C830 C829 1.523 . S
H831 C806 0.950 . S
H832 C808 0.950 . S
H833 C809 0.949 . S
H834 C811 0.950 . S
H835 C813 0.950 . S
C836 C837 1.349 . S
C836 C838 1.327 . S
C836 H861 0.950 . S
C837 C836 1.349 . S
C837 C853 1.349 . S
C838 C836 1.327 . S
C838 C857 1.429 . S
C838 H862 0.950 . S
C839 C856 1.574 . S
C839 C858 1.368 . S
C839 H863 0.949 . S
H840 C844 0.949 . S
C841 C842 1.349 . S
C841 C843 1.327 . S
C841 H864 0.950 . S
C842 C841 1.349 . S
C842 C854 1.349 . S
C843 C841 1.327 . S
C843 C859 1.429 . S
C843 H865 0.950 . S
C844 H840 0.949 . S
C844 C852 1.574 . S
C844 C860 1.368 . S
H845 C853 0.950 . S
H846 C851 0.950 . S
H847 C852 0.949 . S
H848 C854 0.950 . S
H849 C855 0.950 . S
H850 C856 0.949 . S
C851 H846 0.950 . S
C851 C853 1.327 . S
C851 C857 1.429 . S
C852 C844 1.574 . S
C852 H847 0.949 . S
C852 C858 1.368 . S
C853 C837 1.349 . S
C853 H845 0.950 . S
C853 C851 1.327 . S
C854 C842 1.349 . S
C854 H848 0.950 . S
C854 C855 1.327 . S
C855 H849 0.950 . S
C855 C854 1.327 . S
C855 C859 1.429 . S
C856 C839 1.574 . S
C856 H850 0.949 . S
C856 C860 1.368 . S
C857 C838 1.429 . S
C857 C851 1.429 . S
C857 C858 1.523 . S
C858 C839 1.368 . S
C858 C852 1.368 . S
C858 C857 1.523 . S
C859 C843 1.429 . S
C859 C855 1.429 . S
C859 C860 1.523 . S
C860 C844 1.368 . S
C860 C856 1.368 . S
C860 C859 1.523 . S
H861 C836 0.950 . S
H862 C838 0.950 . S
H863 C839 0.949 . S
H864 C841 0.950 . S
H865 C843 0.950 . S
C866 C867 1.349 . S
C866 C868 1.327 . S
C866 H891 0.950 . S
C867 C866 1.349 . S
C867 C883 1.349 . S
C868 C866 1.327 . S
C868 C887 1.429 . S
C868 H892 0.950 . S
C869 C886 1.574 . S
C869 C888 1.368 . S
C869 H893 0.949 . S
H870 C874 0.949 . S
C871 C872 1.349 . S
C871 C873 1.327 . S
C871 H894 0.950 . S
C872 C871 1.349 . S
C872 C884 1.349 . S
C873 C871 1.327 . S
C873 C889 1.429 . S
C873 H895 0.950 . S
C874 H870 0.949 . S
C874 C882 1.574 . S
C874 C890 1.368 . S
H875 C883 0.950 . S
H876 C881 0.950 . S
H877 C882 0.949 . S
H878 C884 0.950 . S
H879 C885 0.950 . S
H880 C886 0.949 . S
C881 H876 0.950 . S
C881 C883 1.327 . S
C881 C887 1.429 . S
C882 C874 1.574 . S
C882 H877 0.949 . S
C882 C888 1.368 . S
C883 C867 1.349 . S
C883 H875 0.950 . S
C883 C881 1.327 . S
C884 C872 1.349 . S
C884 H878 0.950 . S
C884 C885 1.327 . S
C885 H879 0.950 . S
C885 C884 1.327 . S
C885 C889 1.429 . S
C886 C869 1.574 . S
C886 H880 0.949 . S
C886 C890 1.368 . S
C887 C868 1.429 . S
C887 C881 1.429 . S
C887 C888 1.523 . S
C888 C869 1.368 . S
C888 C882 1.368 . S
C888 C887 1.523 . S
C889 C873 1.429 . S
C889 C885 1.429 . S
C889 C890 1.523 . S
C890 C874 1.368 . S
C890 C886 1.368 . S
C890 C889 1.523 . S
H891 C866 0.950 . S
H892 C868 0.950 . S
H893 C869 0.949 . S
H894 C871 0.950 . S
H895 C873 0.950 . S
C177 C150 1.532 . S
C182 C7 1.532 . S
C207 C18 1.531 . S
C212 C161 1.531 . S
C237 C29 1.532 . S
C242 C172 1.532 . S
C267 C40 1.531 . S
C272 C139 1.531 . S
C297 C51 1.531 . S
C302 C128 1.531 . S
C327 C95 1.532 . S
C332 C62 1.532 . S
C357 C106 1.531 . S
C362 C73 1.531 . S
C387 C117 1.532 . S
C392 C84 1.532 . S
C417 C115 1.342 . S
C422 C5 1.342 . S
C447 C126 1.342 . S
C452 C16 1.342 . S
C477 C93 1.342 . S
C482 C27 1.342 . S
C507 C38 1.342 . S
C512 C104 1.342 . S
C537 C159 1.342 . S
C542 C49 1.342 . S
C567 C170 1.342 . S
C572 C60 1.342 . S
C597 C71 1.342 . S
C602 C137 1.342 . S
C627 C148 1.342 . S
C632 C82 1.342 . S
C657 C74 1.650 . S
C662 C8 1.650 . S
C687 C19 1.650 . S
C692 C85 1.650 . S
C717 C30 1.650 . S
C722 C52 1.650 . S
C747 C41 1.650 . S
C752 C63 1.650 . S
C777 C162 1.650 . S
C782 C96 1.650 . S
C807 C173 1.650 . S
C812 C107 1.650 . S
C837 C118 1.650 . S
C842 C140 1.650 . S
C867 C129 1.650 . S
C872 C151 1.650 . S
