# Generated by pormake.
# Topology smg, (6)-cn, num edge types: 1
# Building blocks:
#     Node 0, Type 0, BuildingBlock: OJICUG_clean_sbu_0, # of connection points: 6
#     Node 1, Type 0, BuildingBlock: OJICUG_clean_sbu_0, # of connection points: 6
#     Node 2, Type 0, BuildingBlock: OJICUG_clean_sbu_0, # of connection points: 6
#     Node 3, Type 0, BuildingBlock: OJICUG_clean_sbu_0, # of connection points: 6
#     Node 4, Type 0, BuildingBlock: OJICUG_clean_sbu_0, # of connection points: 6
#     Node 5, Type 0, BuildingBlock: OJICUG_clean_sbu_0, # of connection points: 6
#     Node 6, Type 0, BuildingBlock: OJICUG_clean_sbu_0, # of connection points: 6
#     Node 7, Type 0, BuildingBlock: OJICUG_clean_sbu_0, # of connection points: 6
#     Node 8, Type 0, BuildingBlock: OJICUG_clean_sbu_0, # of connection points: 6
#     Node 9, Type 0, BuildingBlock: OJICUG_clean_sbu_0, # of connection points: 6
#     Node 10, Type 0, BuildingBlock: OJICUG_clean_sbu_0, # of connection points: 6
#     Node 11, Type 0, BuildingBlock: OJICUG_clean_sbu_0, # of connection points: 6
#     Node 12, Type 0, BuildingBlock: OJICUG_clean_sbu_0, # of connection points: 6
#     Node 13, Type 0, BuildingBlock: OJICUG_clean_sbu_0, # of connection points: 6
#     Node 14, Type 0, BuildingBlock: OJICUG_clean_sbu_0, # of connection points: 6
#     Node 15, Type 0, BuildingBlock: OJICUG_clean_sbu_0, # of connection points: 6
#     Node 16, Type 0, BuildingBlock: OJICUG_clean_sbu_0, # of connection points: 6
#     Node 17, Type 0, BuildingBlock: OJICUG_clean_sbu_0, # of connection points: 6
#     Edge 18, Type (0, 0), BuildingBlock: OJICUG_clean_linker_0, # of connection points: 2
#     Edge 19, Type (0, 0), BuildingBlock: OJICUG_clean_linker_0, # of connection points: 2
#     Edge 20, Type (0, 0), BuildingBlock: OJICUG_clean_linker_0, # of connection points: 2
#     Edge 21, Type (0, 0), BuildingBlock: OJICUG_clean_linker_0, # of connection points: 2
#     Edge 22, Type (0, 0), BuildingBlock: OJICUG_clean_linker_0, # of connection points: 2
#     Edge 23, Type (0, 0), BuildingBlock: OJICUG_clean_linker_0, # of connection points: 2
#     Edge 24, Type (0, 0), BuildingBlock: OJICUG_clean_linker_0, # of connection points: 2
#     Edge 25, Type (0, 0), BuildingBlock: OJICUG_clean_linker_0, # of connection points: 2
#     Edge 26, Type (0, 0), BuildingBlock: OJICUG_clean_linker_0, # of connection points: 2
#     Edge 27, Type (0, 0), BuildingBlock: OJICUG_clean_linker_0, # of connection points: 2
#     Edge 28, Type (0, 0), BuildingBlock: OJICUG_clean_linker_0, # of connection points: 2
#     Edge 29, Type (0, 0), BuildingBlock: OJICUG_clean_linker_0, # of connection points: 2
#     Edge 30, Type (0, 0), BuildingBlock: OJICUG_clean_linker_0, # of connection points: 2
#     Edge 31, Type (0, 0), BuildingBlock: OJICUG_clean_linker_0, # of connection points: 2
#     Edge 32, Type (0, 0), BuildingBlock: OJICUG_clean_linker_0, # of connection points: 2
#     Edge 33, Type (0, 0), BuildingBlock: OJICUG_clean_linker_0, # of connection points: 2
#     Edge 34, Type (0, 0), BuildingBlock: OJICUG_clean_linker_0, # of connection points: 2
#     Edge 35, Type (0, 0), BuildingBlock: OJICUG_clean_linker_0, # of connection points: 2
#     Edge 36, Type (0, 0), BuildingBlock: OJICUG_clean_linker_0, # of connection points: 2
#     Edge 37, Type (0, 0), BuildingBlock: OJICUG_clean_linker_0, # of connection points: 2
#     Edge 38, Type (0, 0), BuildingBlock: OJICUG_clean_linker_0, # of connection points: 2
#     Edge 39, Type (0, 0), BuildingBlock: OJICUG_clean_linker_0, # of connection points: 2
#     Edge 40, Type (0, 0), BuildingBlock: OJICUG_clean_linker_0, # of connection points: 2
#     Edge 41, Type (0, 0), BuildingBlock: OJICUG_clean_linker_0, # of connection points: 2
#     Edge 42, Type (0, 0), BuildingBlock: OJICUG_clean_linker_0, # of connection points: 2
#     Edge 43, Type (0, 0), BuildingBlock: OJICUG_clean_linker_0, # of connection points: 2
#     Edge 44, Type (0, 0), BuildingBlock: OJICUG_clean_linker_0, # of connection points: 2
#     Edge 45, Type (0, 0), BuildingBlock: OJICUG_clean_linker_0, # of connection points: 2
#     Edge 46, Type (0, 0), BuildingBlock: OJICUG_clean_linker_0, # of connection points: 2
#     Edge 47, Type (0, 0), BuildingBlock: OJICUG_clean_linker_0, # of connection points: 2
#     Edge 48, Type (0, 0), BuildingBlock: OJICUG_clean_linker_0, # of connection points: 2
#     Edge 49, Type (0, 0), BuildingBlock: OJICUG_clean_linker_0, # of connection points: 2
#     Edge 50, Type (0, 0), BuildingBlock: OJICUG_clean_linker_0, # of connection points: 2
#     Edge 51, Type (0, 0), BuildingBlock: OJICUG_clean_linker_0, # of connection points: 2
#     Edge 52, Type (0, 0), BuildingBlock: OJICUG_clean_linker_0, # of connection points: 2
#     Edge 53, Type (0, 0), BuildingBlock: OJICUG_clean_linker_0, # of connection points: 2
#     Edge 54, Type (0, 0), BuildingBlock: OJICUG_clean_linker_0, # of connection points: 2
#     Edge 55, Type (0, 0), BuildingBlock: OJICUG_clean_linker_0, # of connection points: 2
#     Edge 56, Type (0, 0), BuildingBlock: OJICUG_clean_linker_0, # of connection points: 2
#     Edge 57, Type (0, 0), BuildingBlock: OJICUG_clean_linker_0, # of connection points: 2
#     Edge 58, Type (0, 0), BuildingBlock: OJICUG_clean_linker_0, # of connection points: 2
#     Edge 59, Type (0, 0), BuildingBlock: OJICUG_clean_linker_0, # of connection points: 2
#     Edge 60, Type (0, 0), BuildingBlock: OJICUG_clean_linker_0, # of connection points: 2
#     Edge 61, Type (0, 0), BuildingBlock: OJICUG_clean_linker_0, # of connection points: 2
#     Edge 62, Type (0, 0), BuildingBlock: OJICUG_clean_linker_0, # of connection points: 2
#     Edge 63, Type (0, 0), BuildingBlock: OJICUG_clean_linker_0, # of connection points: 2
#     Edge 64, Type (0, 0), BuildingBlock: OJICUG_clean_linker_0, # of connection points: 2
#     Edge 65, Type (0, 0), BuildingBlock: OJICUG_clean_linker_0, # of connection points: 2
#     Edge 66, Type (0, 0), BuildingBlock: OJICUG_clean_linker_0, # of connection points: 2
#     Edge 67, Type (0, 0), BuildingBlock: OJICUG_clean_linker_0, # of connection points: 2
#     Edge 68, Type (0, 0), BuildingBlock: OJICUG_clean_linker_0, # of connection points: 2
#     Edge 69, Type (0, 0), BuildingBlock: OJICUG_clean_linker_0, # of connection points: 2
#     Edge 70, Type (0, 0), BuildingBlock: OJICUG_clean_linker_0, # of connection points: 2
#     Edge 71, Type (0, 0), BuildingBlock: OJICUG_clean_linker_0, # of connection points: 2
# Relax obj value: 0.210
# Max RMSD: 0.238
# Mean RMSD: 0.238
data_MOF--net-smg--node1-OJICUG_clean_sbu_0--edge1-OJICUG_clean_linker_0
_symmetry_space_group_name_H-M    P1
_symmetry_Int_Tables_number       1
_symmetry_cell_setting            triclinic
loop_
_symmetry_equiv_pos_as_xyz
'x, y, z'
_cell_length_a     34.480704
_cell_length_b     34.479574
_cell_length_c     34.496824
_cell_angle_alpha  89.91977
_cell_angle_beta   90.084581
_cell_angle_gamma 120.05522
loop_
_atom_site_label
_atom_site_type_symbol
_atom_site_fract_x
_atom_site_fract_y
_atom_site_fract_z
_atom_type_partial_charge
Sc0 Sc -0.00889 0.66996 0.23786 0.0
Sc1 Sc 0.93766 0.55735 0.21894 0.0
Sc2 Sc 0.04587 0.6121 0.25718 0.0
O3 O -0.00844 0.6123 0.23806 0.0
C4 C 0.09235 0.70685 0.22206 0.0
C5 C 0.96139 0.63282 0.15537 0.0
C6 C 0.01738 0.54684 0.18425 0.0
C7 C 0.89028 0.60424 0.25409 0.0
C8 C 0.02112 0.66348 0.32063 0.0
C9 C 0.96709 0.52067 0.29136 0.0
O10 O 0.06263 0.71241 0.23823 0.0
O11 O 0.93289 0.59556 0.17096 0.0
O12 O 0.04494 0.56958 0.21098 0.0
O13 O 0.91944 0.63956 0.23744 0.0
O14 O 0.04939 0.65414 0.3055 0.0
O15 O 0.93942 0.51572 0.26472 0.0
O16 O -0.00762 0.66794 0.30047 0.0
O17 O 0.89425 0.56967 0.25573 0.0
O18 O 0.00628 0.55482 0.29364 0.0
O19 O -0.00996 0.66633 0.17527 0.0
O20 O 0.08901 0.66856 0.22073 0.0
O21 O 0.9779 0.54104 0.18217 0.0
Sc22 Sc 0.43027 0.38215 0.21717 0.0
Sc23 Sc 0.3776 0.43725 0.25577 0.0
Sc24 Sc 0.31763 0.32474 0.23642 0.0
O25 O 0.37601 0.38218 0.2365 0.0
C26 C 0.35436 0.33197 0.15373 0.0
C27 C 0.44321 0.47358 0.18309 0.0
C28 C 0.28328 0.39115 0.22042 0.0
C29 C 0.46774 0.44717 0.29011 0.0
C30 C 0.38185 0.28762 0.25241 0.0
C31 C 0.32481 0.36147 0.319 0.0
O32 O 0.39133 0.33974 0.16925 0.0
O33 O 0.42114 0.47883 0.21008 0.0
O34 O 0.27677 0.35553 0.23674 0.0
O35 O 0.47243 0.42482 0.26304 0.0
O36 O 0.3465 0.2821 0.23625 0.0
O37 O 0.33442 0.39908 0.30362 0.0
O38 O 0.41693 0.32586 0.25372 0.0
O39 O 0.43405 0.45288 0.29259 0.0
O40 O 0.3199 0.32803 0.29903 0.0
O41 O 0.44773 0.43918 0.1805 0.0
O42 O 0.32106 0.32729 0.17378 0.0
O43 O 0.322 0.42555 0.21895 0.0
Sc44 Sc 0.60681 0.05073 0.21778 0.0
Sc45 Sc 0.55217 0.94234 0.25572 0.0
Sc46 Sc 0.66487 -0.00376 0.2371 0.0
O47 O 0.60709 -0.00355 0.23687 0.0
C48 C 0.65809 0.02601 0.15428 0.0
C49 C 0.5157 0.97176 0.18309 0.0
C50 C 0.59991 0.89539 0.22099 0.0
C51 C 0.54075 0.02175 0.29014 0.0
C52 C 0.70151 0.09734 0.25287 0.0
C53 C 0.62772 0.96655 0.31969 0.0
O54 O 0.64902 0.05443 0.16953 0.0
O55 O 0.51084 0.94382 0.20947 0.0
O56 O 0.63496 0.92467 0.23783 0.0
O57 O 0.56405 0.04961 0.2638 0.0
O58 O 0.70708 0.06776 0.23647 0.0
O59 O 0.59026 0.93822 0.30423 0.0
O60 O 0.66317 0.09389 0.25437 0.0
O61 O 0.53492 0.98224 0.2921 0.0
O62 O 0.66122 -0.00484 0.29971 0.0
O63 O 0.54963 0.01114 0.18121 0.0
O64 O 0.66268 -0.00267 0.17443 0.0
O65 O 0.56516 0.89906 0.21921 0.0
Sc66 Sc -0.00636 0.32427 0.73695 0.0
Sc67 Sc 0.04723 0.43676 0.75635 0.0
Sc68 Sc 0.93952 0.38258 0.71726 0.0
O69 O -0.00653 0.38205 0.73675 0.0
C70 C 0.96478 0.33169 0.65398 0.0
C71 C 0.09458 0.3898 0.72136 0.0
C72 C 0.01879 0.47396 0.68369 0.0
C73 C 0.02209 0.36118 0.81966 0.0
C74 C 0.89245 0.2878 0.75207 0.0
C75 C 0.9674 0.44737 0.79045 0.0
O76 O -0.00679 0.32682 0.67427 0.0
O77 O 0.09073 0.42445 0.71968 0.0
O78 O 0.97967 0.43979 0.68094 0.0
O79 O -0.00624 0.32763 0.79959 0.0
O80 O 0.896 0.32618 0.75356 0.0
O81 O 0.00673 0.45284 0.79303 0.0
O82 O 0.92207 0.28214 0.73584 0.0
O83 O 0.05148 0.39798 0.80404 0.0
O84 O 0.94027 0.42513 0.76331 0.0
O85 O 0.06533 0.35455 0.73805 0.0
O86 O 0.93612 0.34043 0.66915 0.0
O87 O 0.046 0.47884 0.71075 0.0
Sc88 Sc 0.55464 0.61219 0.75771 0.0
Sc89 Sc 0.60685 0.557 0.71829 0.0
Sc90 Sc 0.66702 0.66969 0.73684 0.0
O91 O 0.60868 0.61217 0.73773 0.0
C92 C 0.60232 0.70666 0.72207 0.0
C93 C 0.51637 0.54704 0.6848 0.0
C94 C 0.6577 0.63188 0.65441 0.0
C95 C 0.54222 0.52085 0.79155 0.0
C96 C 0.63232 0.66463 0.81999 0.0
C97 C 0.70154 0.60338 0.7528 0.0
O98 O 0.56725 0.66839 0.72133 0.0
O99 O 0.55003 0.54132 0.682 0.0
O100 O 0.66333 0.66562 0.6743 0.0
O101 O 0.53774 0.55525 0.79432 0.0
O102 O 0.66501 0.66851 0.7995 0.0
O103 O 0.66286 0.56896 0.75458 0.0
O104 O 0.59422 0.65466 0.80545 0.0
O105 O 0.56388 0.51552 0.76426 0.0
O106 O 0.70787 0.63883 0.73625 0.0
O107 O 0.51192 0.5694 0.71203 0.0
O108 O 0.63823 0.71235 0.7372 0.0
O109 O 0.64946 0.59487 0.67013 0.0
Sc110 Sc 0.37791 0.94461 0.75682 0.0
Sc111 Sc 0.43239 0.05256 0.71804 0.0
Sc112 Sc 0.3198 -0.00101 0.73723 0.0
O113 O 0.37755 -0.0013 0.73736 0.0
C114 C 0.2831 0.89775 0.72202 0.0
C115 C 0.44341 0.97275 0.68409 0.0
C116 C 0.35651 0.02789 0.65439 0.0
C117 C 0.46918 0.02386 0.79088 0.0
C118 C 0.32705 0.96987 0.82021 0.0
C119 C 0.38505 0.0999 0.75277 0.0
O120 O 0.32143 0.90119 0.72051 0.0
O121 O 0.44917 0.01222 0.68176 0.0
O122 O 0.32309 -0.00049 0.67457 0.0
O123 O 0.43518 0.98456 0.79316 0.0
O124 O 0.32232 -0.0016 0.79993 0.0
O125 O 0.41977 0.09617 0.75444 0.0
O126 O 0.33587 0.94126 0.80503 0.0
O127 O 0.47403 0.05142 0.76415 0.0
O128 O 0.34987 0.07058 0.73609 0.0
O129 O 0.42047 0.94529 0.7108 0.0
O130 O 0.27756 0.92745 0.73824 0.0
O131 O 0.39399 0.05642 0.66969 0.0
Sc132 Sc 0.65872 0.0032 0.57018 0.0
Sc133 Sc 0.604 0.89035 0.55177 0.0
Sc134 Sc 0.71243 0.9444 0.58964 0.0
O135 O 0.65838 0.94514 0.57049 0.0
C136 C 0.75976 0.03872 0.55412 0.0
C137 C 0.62846 0.96586 0.48765 0.0
C138 C 0.68284 0.87796 0.51754 0.0
C139 C 0.55763 0.93874 0.58654 0.0
C140 C 0.68879 -0.00349 0.65288 0.0
C141 C 0.63301 0.85404 0.62478 0.0
O142 O 0.73037 0.04483 0.57025 0.0
O143 O 0.60012 0.92841 0.50312 0.0
O144 O 0.71069 0.90103 0.54396 0.0
O145 O 0.5872 0.97389 0.56999 0.0
O146 O 0.71705 0.98735 0.63752 0.0
O147 O 0.60521 0.84907 0.59823 0.0
O148 O 0.66014 0.00125 0.63284 0.0
O149 O 0.56098 0.9038 0.58815 0.0
O150 O 0.67248 0.88781 0.62658 0.0
O151 O 0.65719 -0.00068 0.50758 0.0
O152 O 0.75583 0.00018 0.55277 0.0
O153 O 0.64352 0.87259 0.51544 0.0
Sc154 Sc 0.98551 0.65713 0.57126 0.0
Sc155 Sc 0.09799 0.71684 0.55206 0.0
Sc156 Sc 0.04317 0.76966 0.59094 0.0
O157 O 0.04306 0.71542 0.57139 0.0
C158 C 0.94844 0.72133 0.55604 0.0
C159 C 0.02223 0.6653 0.4885 0.0
C160 C 0.10841 0.80744 0.51815 0.0
C161 C 0.05133 0.6221 0.58662 0.0
C162 C -0.00684 0.69334 0.65421 0.0
C163 C 0.13461 0.78218 0.62493 0.0
O164 O 0.94305 0.68612 0.57234 0.0
O165 O 0.05967 0.67434 0.50391 0.0
O166 O 0.08575 0.81195 0.54505 0.0
O167 O 0.01598 0.616 0.57009 0.0
O168 O 0.00101 0.73048 0.63894 0.0
O169 O 0.13959 0.75981 0.59804 0.0
O170 O -0.01166 0.66012 0.63393 0.0
O171 O 0.08583 0.66073 0.58844 0.0
O172 O 0.10043 0.78709 0.6274 0.0
O173 O -0.01128 0.66006 0.50859 0.0
O174 O -0.0133 0.75639 0.55454 0.0
O175 O 0.11417 0.77377 0.5157 0.0
Sc176 Sc 0.33489 0.33426 0.56926 0.0
Sc177 Sc 0.27474 0.38669 0.55054 0.0
Sc178 Sc 0.22248 0.27901 0.58978 0.0
O179 O 0.27653 0.33328 0.56994 0.0
C180 C 0.27048 0.23266 0.55432 0.0
C181 C 0.32589 0.36294 0.48674 0.0
C182 C 0.18422 0.30616 0.51694 0.0
C183 C 0.36937 0.43487 0.58539 0.0
C184 C 0.29993 0.30417 0.65227 0.0
C185 C 0.20983 0.3577 0.62365 0.0
O186 O 0.30617 0.26279 0.56979 0.0
O187 O 0.31734 0.39153 0.5023 0.0
O188 O 0.17989 0.27919 0.54406 0.0
O189 O 0.37569 0.40601 0.56846 0.0
O190 O 0.26193 0.27598 0.63758 0.0
O191 O 0.23169 0.38494 0.59649 0.0
O192 O 0.33265 0.33328 0.63191 0.0
O193 O 0.33071 0.43062 0.58706 0.0
O194 O 0.20533 0.31878 0.62636 0.0
O195 O 0.33139 0.33477 0.50673 0.0
O196 O 0.23537 0.23574 0.55337 0.0
O197 O 0.21784 0.34565 0.51419 0.0
Sc198 Sc 0.71391 0.76972 0.09004 0.0
Sc199 Sc 0.6063 0.71599 0.05075 0.0
Sc200 Sc 0.65985 0.65722 0.0706 0.0
O201 O 0.65999 0.71517 0.07058 0.0
C202 C 0.76085 0.72185 0.05558 0.0
C203 C 0.68615 0.80675 0.01677 0.0
C204 C 0.632 0.66584 -0.01235 0.0
C205 C 0.6344 0.78157 0.12336 0.0
C206 C 0.68829 0.69342 0.15353 0.0
C207 C 0.55885 0.62143 0.08558 0.0
O208 O 0.7574 0.75673 0.05383 0.0
O209 O 0.64682 0.77284 0.01423 0.0
O210 O 0.66017 0.66056 0.00794 0.0
O211 O 0.67362 0.78679 0.12614 0.0
O212 O 0.65984 0.66014 0.13324 0.0
O213 O 0.56266 0.65991 0.08725 0.0
O214 O 0.71706 0.7309 0.13836 0.0
O215 O 0.60721 0.75903 0.09637 0.0
O216 O 0.58821 0.61561 0.069 0.0
O217 O 0.71333 0.8116 0.04386 0.0
O218 O 0.73138 0.68684 0.07234 0.0
O219 O 0.60258 0.67332 0.00302 0.0
Sc220 Sc 0.21745 0.94546 0.08987 0.0
Sc221 Sc 0.27254 0.89252 0.05161 0.0
Sc222 Sc 0.33016 0.00518 0.07099 0.0
O223 O 0.27257 0.94689 0.0708 0.0
C224 C 0.26418 0.04008 0.05481 0.0
C225 C 0.18126 0.8799 0.01719 0.0
C226 C 0.32404 0.96889 -0.01182 0.0
C227 C 0.20693 0.85498 0.1243 0.0
C228 C 0.29286 -0.00267 0.15358 0.0
C229 C 0.36723 0.94081 0.08679 0.0
O230 O 0.22965 0.00145 0.0533 0.0
O231 O 0.21542 0.87493 0.01507 0.0
O232 O 0.3284 0.00204 0.0083 0.0
O233 O 0.20102 0.88858 0.12642 0.0
O234 O 0.32643 0.00261 0.13359 0.0
O235 O 0.32897 0.90576 0.08801 0.0
O236 O 0.25539 0.98807 0.13813 0.0
O237 O 0.22992 0.85051 0.09767 0.0
O238 O 0.37278 0.97635 0.07102 0.0
O239 O 0.1761 0.90238 0.04384 0.0
O240 O 0.29971 0.04636 0.07113 0.0
O241 O 0.31468 0.93125 0.00338 0.0
Sc242 Sc 0.0454 0.27844 0.08876 0.0
Sc243 Sc 0.09799 0.38635 0.04992 0.0
Sc244 Sc 0.98549 0.33117 0.07029 0.0
O245 O 0.0438 0.33203 0.06964 0.0
C246 C 0.95065 0.23032 0.05416 0.0
C247 C 0.1103 0.30762 0.01555 0.0
C248 C 0.02089 0.36132 -0.01265 0.0
C249 C 0.13604 0.35864 0.12247 0.0
C250 C -0.00648 0.30147 0.15271 0.0
C251 C 0.05009 0.43261 0.08582 0.0
O252 O -0.01072 0.23454 0.05245 0.0
O253 O 0.11507 0.34667 0.01307 0.0
O254 O -0.01194 0.33236 0.00767 0.0
O255 O 0.10233 0.31921 0.12505 0.0
O256 O -0.0116 0.33 0.13287 0.0
O257 O 0.08517 0.42948 0.08667 0.0
O258 O 0.00298 0.27353 0.13715 0.0
O259 O 0.14054 0.38583 0.09551 0.0
O260 O 0.01446 0.40269 0.07011 0.0
O261 O 0.08825 0.28026 0.04259 0.0
O262 O 0.9444 0.25947 0.07063 0.0
O263 O 0.05866 0.38979 0.00221 0.0
Sc264 Sc 0.3254 0.33798 0.9028 0.0
Sc265 Sc 0.27093 0.22541 0.88343 0.0
Sc266 Sc 0.37812 0.27856 0.92356 0.0
O267 O 0.32478 0.27978 0.90336 0.0
C268 C 0.42656 0.37326 0.8889 0.0
C269 C 0.29802 0.30139 0.81986 0.0
C270 C 0.3505 0.2134 0.85064 0.0
C271 C 0.22418 0.27363 0.91747 0.0
C272 C 0.35343 0.33094 0.98601 0.0
C273 C 0.29764 0.18779 0.95693 0.0
O274 O 0.39701 0.37932 0.90475 0.0
O275 O 0.2683 0.26446 0.83511 0.0
O276 O 0.37745 0.23566 0.87787 0.0
O277 O 0.25386 0.30861 0.90079 0.0
O278 O 0.38153 0.32106 0.97137 0.0
O279 O 0.2708 0.18315 0.9296 0.0
O280 O 0.32503 0.33556 0.96546 0.0
O281 O 0.22739 0.23861 0.91928 0.0
O282 O 0.33698 0.2216 0.95977 0.0
O283 O 0.32612 0.33474 0.84023 0.0
O284 O 0.4225 0.33468 0.88742 0.0
O285 O 0.31137 0.20834 0.84761 0.0
Sc286 Sc 0.76595 0.04906 0.88406 0.0
Sc287 Sc 0.71207 0.10305 0.92265 0.0
Sc288 Sc 0.65334 0.99037 0.90357 0.0
O289 O 0.71128 0.04831 0.90345 0.0
C290 C 0.68988 -0.00258 0.82077 0.0
C291 C 0.77731 0.13987 0.84971 0.0
C292 C 0.6173 0.05552 0.88776 0.0
C293 C 0.80309 0.11465 0.95667 0.0
C294 C 0.71868 0.95452 0.91928 0.0
C295 C 0.66053 0.02718 0.98631 0.0
O296 O 0.72737 0.00647 0.83605 0.0
O297 O 0.75478 0.14472 0.87652 0.0
O298 O 0.61144 0.02 0.90381 0.0
O299 O 0.80787 0.09206 0.92988 0.0
O300 O 0.68307 0.94854 0.90333 0.0
O301 O 0.66987 0.06474 0.97098 0.0
O302 O 0.75345 -0.007 0.9206 0.0
O303 O 0.76917 0.11999 0.95903 0.0
O304 O 0.65567 -0.0062 0.96625 0.0
O305 O 0.78267 0.10595 0.84743 0.0
O306 O 0.65657 -0.00741 0.84091 0.0
O307 O 0.65575 0.09031 0.88633 0.0
Sc308 Sc 0.93949 0.71507 0.88479 0.0
Sc309 Sc 0.88549 0.60731 0.92391 0.0
Sc310 Sc -0.00181 0.6614 0.90493 0.0
O311 O 0.94024 0.66127 0.90453 0.0
C312 C -0.008 0.69108 0.822 0.0
C313 C 0.84875 0.63541 0.85069 0.0
C314 C 0.93313 0.56031 0.88912 0.0
C315 C 0.87392 0.68684 0.95748 0.0
C316 C 0.03392 0.76268 0.92013 0.0
C317 C 0.96121 0.63199 -0.01243 0.0
O318 O 0.98222 0.71909 0.83697 0.0
O319 O 0.84374 0.60823 0.87781 0.0
O320 O 0.96842 0.5898 0.90558 0.0
O321 O 0.89639 0.71402 0.93045 0.0
O322 O 0.04 0.73302 0.90447 0.0
O323 O 0.92384 0.60339 0.9722 0.0
O324 O -0.00457 0.75887 0.92127 0.0
O325 O 0.86865 0.6476 0.9602 0.0
O326 O -0.00543 0.66057 0.96751 0.0
O327 O 0.88276 0.67465 0.84815 0.0
O328 O -0.00363 0.66235 0.84226 0.0
O329 O 0.8983 0.56386 0.88759 0.0
Sc330 Sc 0.32405 0.99025 0.40392 0.0
Sc331 Sc 0.37932 0.10305 0.42246 0.0
Sc332 Sc 0.27065 0.04949 0.38508 0.0
O333 O 0.32469 0.04845 0.40384 0.0
C334 C 0.29365 -0.00273 0.32144 0.0
C335 C 0.42521 0.05444 0.38725 0.0
C336 C 0.35008 0.13982 0.3499 0.0
C337 C 0.35492 0.0274 0.48641 0.0
C338 C 0.22321 0.9551 0.42046 0.0
C339 C 0.30096 0.11574 0.45735 0.0
O340 O 0.32227 -0.00768 0.34132 0.0
O341 O 0.422 0.08947 0.3858 0.0
O342 O 0.31053 0.10617 0.3482 0.0
O343 O 0.32594 -0.00597 0.46654 0.0
O344 O 0.22731 -0.00631 0.42197 0.0
O345 O 0.34023 0.12095 0.45914 0.0
O346 O 0.2524 0.94887 0.40408 0.0
O347 O 0.38332 0.06478 0.47087 0.0
O348 O 0.27288 0.0928 0.43103 0.0
O349 O 0.39556 0.01925 0.4037 0.0
O350 O 0.2656 0.00664 0.33695 0.0
O351 O 0.37803 0.14455 0.37624 0.0
Sc352 Sc 0.88773 0.27757 0.4229 0.0
Sc353 Sc 0.94121 0.22334 0.38406 0.0
Sc354 Sc 0.00023 0.33597 0.40328 0.0
O355 O 0.94221 0.27812 0.40342 0.0
C356 C 0.93536 0.3723 0.38802 0.0
C357 C 0.85017 0.21203 0.35019 0.0
C358 C -0.00759 0.29934 0.32052 0.0
C359 C 0.87601 0.18647 0.45695 0.0
C360 C 0.96424 0.32924 0.48612 0.0
C361 C 0.03602 0.2708 0.4188 0.0
O362 O 0.90049 0.3339 0.38655 0.0
O363 O 0.88397 0.20649 0.34776 0.0
O364 O -0.00261 0.33267 0.3407 0.0
O365 O 0.87076 0.22046 0.4593 0.0
O366 O -0.00262 0.33369 0.46594 0.0
O367 O -0.00244 0.23604 0.42043 0.0
O368 O 0.92656 0.31984 0.47101 0.0
O369 O 0.89851 0.1816 0.43012 0.0
O370 O 0.04184 0.30605 0.40228 0.0
O371 O 0.84566 0.23482 0.37697 0.0
O372 O 0.97078 0.37801 0.40412 0.0
O373 O 0.9834 0.26182 0.33576 0.0
Sc374 Sc 0.70937 0.608 0.42405 0.0
Sc375 Sc 0.76335 0.71597 0.38534 0.0
Sc376 Sc 0.65065 0.6617 0.40392 0.0
O377 O 0.70862 0.66187 0.40444 0.0
C378 C 0.61501 0.5606 0.38856 0.0
C379 C 0.77522 0.6367 0.35163 0.0
C380 C 0.68772 0.69148 0.32141 0.0
C381 C 0.80005 0.68759 0.45849 0.0
C382 C 0.6569 0.632 0.48676 0.0
C383 C 0.7154 0.76271 0.41999 0.0
O384 O 0.6535 0.5644 0.38731 0.0
O385 O 0.78047 0.67594 0.34909 0.0
O386 O 0.65433 0.66267 0.34133 0.0
O387 O 0.76612 0.64826 0.46085 0.0
O388 O 0.65254 0.66073 0.46651 0.0
O389 O 0.75026 0.75923 0.42165 0.0
O390 O 0.66648 0.60384 0.4718 0.0
O391 O 0.80492 0.71495 0.43157 0.0
O392 O 0.68027 0.73327 0.40331 0.0
O393 O 0.75261 0.60928 0.37846 0.0
O394 O 0.60897 0.5901 0.40454 0.0
O395 O 0.72512 0.71987 0.33689 0.0
C396 C 0.01234 0.47671 0.09852 0.0
C397 C 0.04798 0.46904 0.10636 0.0
H398 H 0.97498 0.50747 0.1167 0.0
C399 C 0.07706 0.49185 0.13728 0.0
H400 H -0.01033 0.46011 0.07455 0.0
C401 C 0.06849 0.5191 0.16169 0.0
C402 C 0.0307 0.52388 0.15551 0.0
H403 H 0.10474 0.48654 0.14404 0.0
H404 H 0.09015 0.5345 0.18647 0.0
C405 C 0.00378 0.50376 0.1228 0.0
C406 C 0.47191 0.55283 0.16102 0.0
C407 C 0.46685 0.51018 0.15466 0.0
H408 H 0.50491 0.62186 0.14374 0.0
C409 C 0.48714 0.50357 0.12206 0.0
H410 H 0.45638 0.55895 0.18572 0.0
C411 C 0.51453 0.5394 0.09801 0.0
C412 C 0.52237 0.58273 0.106 0.0
H413 H 0.48325 0.471 0.11582 0.0
H414 H 0.5312 0.53345 0.07409 0.0
C415 C 0.49949 0.58885 0.13687 0.0
C416 C 0.48532 0.98697 0.12285 0.0
C417 C 0.47905 0.95911 0.15474 0.0
H418 H 0.45504 0.00227 0.07583 0.0
C419 C 0.43656 0.92103 0.16067 0.0
H420 H 0.51773 0.01609 0.11695 0.0
C421 C 0.40037 0.913 0.13687 0.0
C422 C 0.40614 0.9429 0.10679 0.0
H423 H 0.43068 0.89866 0.18482 0.0
H424 H 0.36749 0.88494 0.14344 0.0
C425 C 0.44933 0.97895 0.09916 0.0
C426 C 0.48512 0.08129 0.33632 0.0
C427 C 0.46153 0.05191 0.36685 0.0
H428 H 0.52885 0.0948 0.28787 0.0
C429 C 0.46862 0.01588 0.37463 0.0
H430 H 0.4803 0.10929 0.32961 0.0
C431 C 0.49603 0.00738 0.35073 0.0
C432 C 0.51712 0.03477 0.31849 0.0
H433 H 0.45142 -0.00707 0.39829 0.0
H434 H 0.49933 0.97833 0.35681 0.0
C435 C 0.51274 0.0728 0.31232 0.0
C436 C 0.91642 0.44138 0.31336 0.0
C437 C 0.95424 0.48395 0.31966 0.0
H438 H 0.88033 0.37227 0.33046 0.0
C439 C 0.98153 0.49034 0.35201 0.0
H440 H 0.89448 0.43541 0.28885 0.0
C441 C 0.97322 0.45438 0.37584 0.0
C442 C 0.93747 0.41112 0.36788 0.0
H443 H 0.0104 0.52283 0.35819 0.0
H444 H -0.00388 0.46018 0.39955 0.0
C445 C 0.90812 0.40522 0.3373 0.0
C446 C 0.54693 0.47526 0.31197 0.0
C447 C 0.50418 0.46972 0.31882 0.0
H448 H 0.61601 0.50832 0.32915 0.0
C449 C 0.49731 0.48867 0.35222 0.0
H450 H 0.55322 0.46072 0.28662 0.0
C451 C 0.53305 0.51545 0.37657 0.0
C452 C 0.57651 0.52404 0.36805 0.0
H453 H 0.46465 0.48428 0.35883 0.0
H454 H 0.52695 0.53125 0.40111 0.0
C455 C 0.58288 0.50227 0.33642 0.0
C456 C 0.97088 0.51615 0.8767 0.0
C457 C 0.93551 0.52411 0.86844 0.0
H458 H 0.00848 0.48553 0.85879 0.0
C459 C 0.90712 0.50196 0.83698 0.0
H460 H -0.00697 0.53226 0.90108 0.0
C461 C 0.91612 0.47509 0.8125 0.0
C462 C 0.95368 0.47004 0.81914 0.0
H463 H 0.87966 0.50751 0.82989 0.0
H464 H 0.89499 0.46018 0.78734 0.0
C465 C 0.97989 0.48948 0.85233 0.0
C466 C 0.51343 0.44154 0.81343 0.0
C467 C 0.51894 0.48432 0.82008 0.0
H468 H 0.47995 0.37242 0.83046 0.0
C469 C 0.49929 0.49111 0.85305 0.0
H470 H 0.5285 0.43529 0.78845 0.0
C471 C 0.47192 0.45529 0.87712 0.0
C472 C 0.46347 0.41183 0.86875 0.0
H473 H 0.50357 0.52377 0.85952 0.0
H474 H 0.45563 0.46134 0.90129 0.0
C475 C 0.48587 0.40554 0.8376 0.0
C476 C 0.49931 0.00983 0.85183 0.0
C477 C 0.50584 0.03688 0.81927 0.0
H478 H 0.52932 -0.00465 0.89958 0.0
C479 C 0.54851 0.07449 0.81283 0.0
H480 H 0.46674 0.98114 0.85813 0.0
C481 C 0.58463 0.08277 0.83682 0.0
C482 C 0.57858 0.05358 0.86759 0.0
H483 H 0.55457 0.09625 0.78815 0.0
H484 H 0.61765 0.11035 0.82987 0.0
C485 C 0.53523 0.01811 0.87571 0.0
C486 C 0.49847 0.91257 0.63809 0.0
C487 C 0.52142 0.94135 0.60704 0.0
H488 H 0.45565 0.89995 0.68707 0.0
C489 C 0.514 0.9771 0.59891 0.0
H490 H 0.50358 0.88481 0.64509 0.0
C491 C 0.48698 0.98599 0.62296 0.0
C492 C 0.4666 0.95928 0.6557 0.0
H493 H 0.53071 -0.00041 0.57486 0.0
H494 H 0.48343 0.01485 0.61659 0.0
C495 C 0.47123 0.92145 0.66223 0.0
C496 C 0.00584 0.50409 0.62227 0.0
C497 C 0.03213 0.51072 0.65538 0.0
H498 H -0.00777 0.53405 0.57396 0.0
C499 C 0.06932 0.55352 0.66236 0.0
H500 H 0.97752 0.47143 0.61557 0.0
C501 C 0.07789 0.58965 0.63829 0.0
C502 C 0.04941 0.58348 0.60691 0.0
H503 H 0.09049 0.55965 0.68748 0.0
H504 H 0.10506 0.62275 0.64564 0.0
C505 C 0.01442 0.54003 0.5983 0.0
C506 C 0.45129 0.48022 0.59763 0.0
C507 C 0.4077 0.47108 0.6064 0.0
H508 H 0.51973 0.51154 0.61531 0.0
C509 C 0.40108 0.49188 0.63864 0.0
H510 H 0.4576 0.46516 0.57265 0.0
C511 C 0.43694 0.51855 0.66333 0.0
C512 C 0.47985 0.52469 0.65611 0.0
H513 H 0.36784 0.48535 0.64614 0.0
H514 H 0.43049 0.53235 0.68908 0.0
C515 C 0.48693 0.50666 0.6222 0.0
C516 C 0.67699 0.80622 0.43276 0.0
C517 C 0.71292 0.79897 0.44052 0.0
H518 H 0.6395 0.83695 0.45073 0.0
C519 C 0.74216 0.82223 0.47122 0.0
H520 H 0.65413 0.78924 0.40899 0.0
C521 C 0.73365 0.84972 0.49536 0.0
C522 C 0.69573 0.85428 0.48918 0.0
H523 H 0.77007 0.81726 0.47793 0.0
H524 H 0.75557 0.86561 0.5199 0.0
C525 C 0.66846 0.83349 0.45681 0.0
C526 C 0.16468 0.92297 0.47248 0.0
C527 C 0.18653 0.91661 0.44091 0.0
H528 H 0.12264 0.89317 0.52201 0.0
C529 C 0.17768 0.87309 0.43223 0.0
H530 H 0.17091 0.95613 0.47987 0.0
C531 C 0.15048 0.83726 0.45633 0.0
C532 C 0.13137 0.84407 0.48966 0.0
H533 H 0.19351 0.86698 0.40772 0.0
H534 H 0.14586 0.80453 0.44958 0.0
C535 C 0.13725 0.88692 0.4967 0.0
C536 C 0.06871 0.24535 0.4712 0.0
C537 C 0.07474 0.27324 0.43938 0.0
H538 H 0.09881 0.23397 0.52101 0.0
C539 C 0.11809 0.30834 0.43066 0.0
H540 H 0.03568 0.21812 0.47865 0.0
C541 C 0.15402 0.31766 0.45492 0.0
C542 C 0.1475 0.29201 0.48844 0.0
H543 H 0.12397 0.33008 0.40599 0.0
H544 H 0.18659 0.34606 0.4481 0.0
C545 C 0.10485 0.25465 0.49556 0.0
C546 C 0.15366 0.41662 0.66982 0.0
C547 C 0.13103 0.3877 0.70086 0.0
H548 H 0.19647 0.42978 0.62078 0.0
C549 C 0.13904 0.35234 0.70898 0.0
H550 H 0.1481 0.4441 0.66285 0.0
C551 C 0.16634 0.34392 0.6849 0.0
C552 C 0.18637 0.37072 0.65212 0.0
H553 H 0.12257 0.32979 0.73305 0.0
H554 H 0.17034 0.31533 0.69123 0.0
C555 C 0.18115 0.4082 0.64562 0.0
C556 C 0.63978 0.78865 0.70965 0.0
C557 C 0.60401 0.74532 0.70202 0.0
H558 H 0.67671 0.85693 0.69155 0.0
C559 C 0.57423 0.73916 0.67172 0.0
H560 H 0.66298 0.79463 0.73317 0.0
C561 C 0.58224 0.77511 0.64761 0.0
C562 C 0.62015 0.8177 0.65349 0.0
H563 H 0.5464 0.70615 0.66516 0.0
H564 H 0.56005 0.76892 0.62324 0.0
C565 C 0.64777 0.8244 0.68567 0.0
C566 C 0.21382 0.81043 0.64698 0.0
C567 C 0.17132 0.80576 0.65331 0.0
H568 H 0.28289 0.84309 0.66417 0.0
C569 C 0.16502 0.82645 0.68578 0.0
H570 H 0.21972 0.7946 0.62239 0.0
C571 C 0.201 0.85382 0.70971 0.0
C572 C 0.2442 0.86126 0.70174 0.0
H573 H 0.13258 0.82289 0.69198 0.0
H574 H 0.19528 0.87079 0.73352 0.0
C575 C 0.25 0.83799 0.67103 0.0
C576 C 0.57424 0.83691 0.16889 0.0
C577 C 0.6025 0.85923 0.20038 0.0
H578 H 0.56222 0.79474 0.11955 0.0
C579 C 0.63789 0.85136 0.20887 0.0
H580 H 0.54679 0.8424 0.1616 0.0
C581 C 0.64697 0.82452 0.18478 0.0
C582 C 0.62081 0.80476 0.15164 0.0
H583 H 0.65996 0.8676 0.23327 0.0
H584 H 0.67554 0.8206 0.19146 0.0
C585 C 0.58331 0.80984 0.1447 0.0
C586 C 0.15172 0.73976 0.1707 0.0
C587 C 0.12873 0.74567 0.20161 0.0
H588 H 0.19464 0.76989 0.12173 0.0
C589 C 0.13627 0.78889 0.20959 0.0
H590 H 0.14652 0.70684 0.16383 0.0
C591 C 0.16342 0.82479 0.18549 0.0
C592 C 0.18378 0.81837 0.15283 0.0
H593 H 0.11953 0.7947 0.23354 0.0
H594 H 0.16704 0.85724 0.19171 0.0
C595 C 0.17908 0.77586 0.14649 0.0
C596 C 0.1656 0.34668 0.18459 0.0
C597 C 0.17264 0.37235 0.15098 0.0
H598 H 0.19506 0.3335 0.23352 0.0
C599 C 0.21563 0.40908 0.14375 0.0
H600 H 0.13276 0.31878 0.19148 0.0
C601 C 0.25159 0.41767 0.16807 0.0
C602 C 0.24498 0.38965 0.19993 0.0
H603 H 0.22204 0.42975 0.11822 0.0
H604 H 0.28486 0.44435 0.16053 0.0
C605 C 0.20134 0.35528 0.20879 0.0
C606 C 0.15455 0.32174 0.95465 0.0
C607 C 0.13358 0.29446 0.98697 0.0
H608 H 0.19865 0.33575 0.90676 0.0
C609 C 0.13756 0.25616 -0.00708 0.0
H610 H 0.15155 0.35101 0.94874 0.0
C611 C 0.16467 0.24729 0.96863 0.0
C612 C 0.18817 0.27654 0.93803 0.0
H613 H 0.1215 0.23418 0.01737 0.0
H614 H 0.16919 0.21906 0.9752 0.0
C615 C 0.18147 0.31286 0.93045 0.0
C616 C 0.67325 0.83661 0.95515 0.0
C617 C 0.69965 0.84332 -0.01178 0.0
H618 H 0.65946 0.86645 0.90684 0.0
C619 C 0.73698 0.88608 -0.00502 0.0
H620 H 0.64483 0.80395 0.9486 0.0
C621 C 0.74551 0.92214 0.97081 0.0
C622 C 0.71685 0.91591 0.93955 0.0
H623 H 0.75824 0.89228 0.02005 0.0
H624 H 0.77277 0.95525 0.97802 0.0
C625 C 0.68178 0.87247 0.9311 0.0
C626 C 0.10202 0.85077 -0.00509 0.0
C627 C 0.1448 0.85612 -0.01131 0.0
H628 H 0.03297 0.81706 0.97764 0.0
C629 C 0.15164 0.83573 0.95627 0.0
H630 H 0.09573 0.86636 0.01947 0.0
C631 C 0.1159 0.80789 0.93233 0.0
C632 C 0.07244 0.7997 0.94026 0.0
H633 H 0.18431 0.83984 0.95015 0.0
H634 H 0.12202 0.79112 0.90859 0.0
C635 C 0.06608 0.82274 0.97085 0.0
C636 C 0.33844 0.17115 0.7889 0.0
C637 C 0.36425 0.1904 0.82231 0.0
H638 H 0.32571 0.12849 0.74012 0.0
C639 C 0.40151 0.18497 0.82943 0.0
H640 H 0.31009 0.17538 0.78207 0.0
C641 C 0.41062 0.15801 0.80515 0.0
C642 C 0.38263 0.13613 0.7734 0.0
H643 H 0.42234 0.1997 0.85479 0.0
H644 H 0.43783 0.15219 0.81259 0.0
C645 C 0.34755 0.1444 0.76472 0.0
C646 C 0.80543 0.21898 0.82745 0.0
C647 C 0.80061 0.17642 0.82116 0.0
H648 H 0.8382 0.288 0.8101 0.0
C649 C 0.821 0.16991 0.78857 0.0
H650 H 0.78984 0.22504 0.85214 0.0
C651 C 0.84829 0.20576 0.7645 0.0
C652 C 0.85594 0.24904 0.77245 0.0
H653 H 0.81729 0.13741 0.78239 0.0
H654 H 0.86506 0.19989 0.74061 0.0
C655 C 0.83292 0.25504 0.80327 0.0
C656 C 0.7694 0.58491 0.8289 0.0
C657 C 0.81229 0.62201 0.82208 0.0
H658 H 0.70028 0.54945 0.81187 0.0
C659 C 0.81926 0.64826 0.78888 0.0
H660 H 0.76302 0.56377 0.85409 0.0
C661 C 0.78353 0.63984 0.76471 0.0
C662 C 0.73997 0.60504 0.7732 0.0
H663 H 0.85202 0.6765 0.78229 0.0
H664 H 0.78974 0.66205 0.74033 0.0
C665 C 0.73348 0.5765 0.80462 0.0
C666 C 0.84623 0.73827 0.97923 0.0
C667 C 0.85091 0.70049 0.98589 0.0
H668 H 0.81419 0.77516 -0.00353 0.0
C669 C 0.83096 0.67414 0.01891 0.0
H670 H 0.8615 0.75951 0.9542 0.0
C671 C 0.80432 0.68335 0.04314 0.0
C672 C 0.79685 0.71905 0.03491 0.0
H673 H 0.83458 0.64535 0.02538 0.0
H674 H 0.78791 0.66114 0.06742 0.0
C675 C 0.81937 0.74747 0.00356 0.0
C676 C 0.24679 0.10824 0.97821 0.0
C677 C 0.28369 0.15113 0.98546 0.0
H678 H 0.21117 0.03898 -0.00507 0.0
C679 C 0.3093 0.15796 0.01908 0.0
H680 H 0.22615 0.10196 0.95269 0.0
C681 C 0.30049 0.12211 0.04325 0.0
C682 C 0.26594 0.07855 0.03436 0.0
H683 H 0.33735 0.19071 0.026 0.0
H684 H 0.32224 0.12823 0.06796 0.0
C685 C 0.23799 0.07217 0.0025 0.0
C686 C 0.88251 0.14372 0.97836 0.0
C687 C 0.83968 0.13799 0.98513 0.0
H688 H 0.95166 0.17739 -0.00467 0.0
C689 C 0.83285 0.15753 0.01816 0.0
H690 H 0.88878 0.12878 0.9533 0.0
C691 C 0.86864 0.18493 0.04222 0.0
C692 C 0.91214 0.19356 0.0338 0.0
H693 H 0.80013 0.15307 0.0247 0.0
H694 H 0.86251 0.20106 0.06649 0.0
C695 C 0.91851 0.17134 0.00253 0.0
C696 C 0.2504 0.14399 0.48016 0.0
C697 C 0.28854 0.13968 0.48582 0.0
H698 H 0.21432 0.17671 0.49781 0.0
C699 C 0.31656 0.16113 0.51765 0.0
H700 H 0.22789 0.12757 0.45607 0.0
C701 C 0.30859 0.18889 0.54155 0.0
C702 C 0.27246 0.19594 0.53419 0.0
H703 H 0.34571 0.15788 0.52335 0.0
H704 H 0.33203 0.20643 0.56484 0.0
C705 C 0.24243 0.17193 0.50418 0.0
C706 C 0.84696 0.10705 0.47874 0.0
C707 C 0.85253 0.14985 0.48538 0.0
H708 H 0.81326 0.03788 0.4957 0.0
C709 C 0.83263 0.15659 0.51821 0.0
H710 H 0.86217 0.10083 0.45384 0.0
C711 C 0.80504 0.12074 0.54215 0.0
C712 C 0.79659 0.07727 0.53384 0.0
H713 H 0.83694 0.18926 0.52466 0.0
H714 H 0.78864 0.1268 0.56624 0.0
C715 C 0.81916 0.07099 0.5028 0.0
C716 C 0.86636 0.68268 0.54355 0.0
C717 C 0.9095 0.71871 0.53567 0.0
H718 H 0.79804 0.64481 0.52563 0.0
C719 C 0.91522 0.74785 0.50496 0.0
H720 H 0.86069 0.65993 0.56735 0.0
C721 C 0.87906 0.73906 0.48081 0.0
C722 C 0.83666 0.70097 0.48703 0.0
H723 H 0.94806 0.77585 0.49818 0.0
H724 H 0.88493 0.76085 0.45622 0.0
C725 C 0.8304 0.6739 0.51951 0.0
C726 C 0.84537 0.64125 0.26613 0.0
C727 C 0.85378 0.60622 0.27459 0.0
H728 H 0.81384 0.67813 0.28358 0.0
C729 C 0.83157 0.57769 0.30597 0.0
H730 H 0.8615 0.66348 0.24179 0.0
C731 C 0.80413 0.58623 0.33014 0.0
C732 C 0.79858 0.62344 0.32328 0.0
H733 H 0.83746 0.55049 0.31321 0.0
H734 H 0.78916 0.56501 0.35525 0.0
C735 C 0.81815 0.6498 0.29019 0.0
C736 C 0.3434 0.20562 0.2653 0.0
C737 C 0.37953 0.24881 0.27277 0.0
H738 H 0.30603 0.13739 0.28349 0.0
C739 C 0.40931 0.25473 0.303 0.0
H740 H 0.32017 0.19979 0.24186 0.0
C741 C 0.40109 0.21872 0.32711 0.0
C742 C 0.36294 0.17626 0.32131 0.0
H743 H 0.43742 0.28762 0.30945 0.0
H744 H 0.42336 0.22472 0.35136 0.0
C745 C 0.33519 0.16981 0.28928 0.0
C746 C 0.77085 0.18392 0.32845 0.0
C747 C 0.81337 0.18874 0.32184 0.0
H748 H 0.70172 0.15131 0.31142 0.0
C749 C 0.81963 0.16845 0.28906 0.0
H750 H 0.76499 0.19944 0.35331 0.0
C751 C 0.78361 0.14132 0.26507 0.0
C752 C 0.7404 0.1337 0.27329 0.0
H753 H 0.85207 0.17215 0.28263 0.0
H754 H 0.78932 0.12466 0.24099 0.0
C755 C 0.73462 0.15657 0.30435 0.0
C756 C 0.0561 0.66612 0.42462 0.0
C757 C 0.01974 0.66312 0.44554 0.0
H758 H 0.08561 0.67003 0.36966 0.0
C759 C 0.984 0.66214 0.42489 0.0
H760 H 0.08449 0.66732 0.43927 0.0
C761 C 0.98475 0.66387 0.38415 0.0
C762 C 0.02128 0.66666 0.3635 0.0
H763 H 0.95575 0.66046 0.44012 0.0
H764 H 0.95648 0.66222 0.3689 0.0
C765 C 0.05691 0.66799 0.38439 0.0
C766 C 0.32813 0.32726 0.42338 0.0
C767 C 0.32709 0.36208 0.44378 0.0
H768 H 0.32744 0.29907 0.36763 0.0
C769 C 0.32309 0.39481 0.42268 0.0
H770 H 0.33054 0.30115 0.43878 0.0
C771 C 0.32046 0.39314 0.38248 0.0
C772 C 0.32198 0.35882 0.36186 0.0
H773 H 0.32173 0.42195 0.43718 0.0
H774 H 0.31776 0.41934 0.36755 0.0
C775 C 0.32561 0.32565 0.38271 0.0
C776 C 0.66422 0.00316 0.42402 0.0
C777 C 0.62845 0.96844 0.4447 0.0
H778 H 0.69269 0.02966 0.36808 0.0
C779 C 0.59383 0.93305 0.4238 0.0
H780 H 0.69173 0.03064 0.43925 0.0
C781 C 0.59479 0.93208 0.38355 0.0
C782 C 0.63029 0.96657 0.36264 0.0
H783 H 0.56579 0.90554 0.43851 0.0
H784 H 0.56718 0.90412 0.36884 0.0
C785 C 0.66512 0.00224 0.38331 0.0
C786 C 0.65834 0.9895 0.04999 0.0
C787 C 0.65771 0.02441 0.02926 0.0
H788 H 0.65971 0.96274 0.10602 0.0
C789 C 0.65866 0.05985 0.05012 0.0
H790 H 0.65822 0.96197 0.0348 0.0
C791 C 0.66037 0.06072 0.09037 0.0
C792 C 0.66093 0.02604 0.11135 0.0
H793 H 0.65845 0.08751 0.03538 0.0
H794 H 0.66089 0.08875 0.10502 0.0
C795 C 0.65992 0.9903 0.09073 0.0
C796 C -0.00277 0.66977 0.0917 0.0
C797 C 0.96156 0.63505 0.11244 0.0
H798 H 0.02575 0.69591 0.0357 0.0
C799 C 0.92724 0.59925 0.09166 0.0
H800 H 0.02452 0.69756 0.10686 0.0
C801 C 0.92839 0.59788 0.05147 0.0
C802 C 0.96376 0.63239 0.03049 0.0
H803 H 0.8993 0.57171 0.10643 0.0
H804 H 0.90101 0.5696 0.03686 0.0
C805 C -0.00169 0.66847 0.05102 0.0
C806 C 0.38972 0.33663 0.08978 0.0
C807 C 0.35221 0.33073 0.11075 0.0
H808 H 0.42 0.34292 0.03479 0.0
C809 C 0.3154 0.32753 0.09017 0.0
H810 H 0.41906 0.33987 0.10435 0.0
C811 C 0.31607 0.32946 0.04944 0.0
C812 C 0.3536 0.33472 0.02878 0.0
H813 H 0.28624 0.32364 0.10544 0.0
H814 H 0.28692 0.32576 0.03419 0.0
C815 C 0.39045 0.33874 0.04959 0.0
C816 C -0.00019 0.32797 0.59059 0.0
C817 C 0.96525 0.32947 0.61102 0.0
H818 H 0.02727 0.32742 0.53474 0.0
C819 C 0.93222 0.3329 0.58987 0.0
H820 H 0.02613 0.32595 0.606 0.0
C821 C 0.93337 0.33463 0.54965 0.0
C822 C 0.96741 0.33269 0.52898 0.0
H823 H 0.90521 0.33455 0.60433 0.0
H824 H 0.90696 0.33702 0.53477 0.0
C825 C 0.00086 0.32953 0.54984 0.0
C826 C 0.65248 0.59609 0.59053 0.0
C827 C 0.65849 0.63368 0.61144 0.0
H828 H 0.64575 0.5656 0.53553 0.0
C829 C 0.66133 0.67032 0.59087 0.0
H830 H 0.64955 0.56691 0.60514 0.0
C831 C 0.6589 0.66942 0.55019 0.0
C832 C 0.65354 0.63185 0.52955 0.0
H833 H 0.66528 0.69952 0.60611 0.0
H834 H 0.66232 0.69846 0.53495 0.0
C835 C 0.64994 0.59515 0.55034 0.0
C836 C 0.3184 -0.00791 0.59096 0.0
C837 C 0.35384 0.02742 0.61141 0.0
H838 H 0.29104 0.9637 0.53517 0.0
C839 C 0.38977 0.06115 0.59028 0.0
H840 H 0.29049 0.96524 0.60635 0.0
C841 C 0.39048 0.05984 0.55004 0.0
C842 C 0.35519 0.02487 0.52935 0.0
H843 H 0.41788 0.08881 0.60479 0.0
H844 H 0.41885 0.08679 0.53516 0.0
C845 C 0.31906 -0.00917 0.55024 0.0
C846 C 0.32389 0.00512 0.88367 0.0
C847 C 0.32453 0.97014 0.86318 0.0
H848 H 0.32396 0.03283 0.93955 0.0
C849 C 0.32683 0.93645 0.88429 0.0
H850 H 0.32274 0.03193 0.8683 0.0
C851 C 0.3284 0.93743 0.92454 0.0
C852 C 0.32745 0.97198 0.94528 0.0
H853 H 0.32772 0.90907 0.86978 0.0
H854 H 0.32992 0.91052 0.93938 0.0
C855 C 0.32531 0.00602 0.92443 0.0
C856 C 0.04988 0.39848 0.92377 0.0
C857 C 0.01742 0.36136 0.94455 0.0
H858 H 0.07739 0.42706 0.86903 0.0
C859 C -0.01419 0.32336 0.92389 0.0
H860 H 0.07473 0.42839 0.93859 0.0
C861 C -0.01258 0.32244 0.8832 0.0
C862 C 0.02074 0.35947 0.86265 0.0
H863 H 0.96068 0.294 0.93913 0.0
H864 H 0.9627 0.29286 0.86794 0.0
C865 C 0.0516 0.39752 0.8836 0.0
C866 C 0.6673 0.66182 0.88357 0.0
C867 C 0.6364 0.66912 0.8627 0.0
H868 H 0.68991 0.65421 0.93974 0.0
C869 C 0.60502 0.67559 0.88327 0.0
H870 H 0.69159 0.65623 0.86847 0.0
C871 C 0.60349 0.6736 0.92347 0.0
C872 C 0.63346 0.66529 0.94466 0.0
H873 H 0.58082 0.68148 0.86825 0.0
H874 H 0.5785 0.6787 0.93787 0.0
C875 C 0.66587 0.65996 0.9243 0.0
C876 C 0.72366 -0.00137 0.71662 0.0
C877 C 0.68887 -0.00085 0.6958 0.0
H878 H 0.75048 -0.00372 0.77145 0.0
C879 C 0.65301 -0.0023 0.71654 0.0
H880 H 0.75178 -0.00052 0.70186 0.0
C881 C 0.65217 -0.00432 0.75726 0.0
C882 C 0.68715 -0.00497 0.77783 0.0
H883 H 0.62536 -0.00255 0.70136 0.0
H884 H 0.62454 -0.00477 0.77256 0.0
C885 C 0.72274 -0.00354 0.75684 0.0
C886 C -0.00242 0.72815 0.71844 0.0
C887 C -0.00811 0.69087 0.6972 0.0
H888 H 0.00365 0.75793 0.77366 0.0
C889 C -0.01117 0.65398 0.71752 0.0
H890 H 0.00068 0.75753 0.70408 0.0
C891 C -0.00926 0.65434 0.75825 0.0
C892 C -0.00419 0.69163 0.7792 0.0
H893 H 0.9851 0.625 0.70204 0.0
H894 H -0.01284 0.62512 0.77329 0.0
C895 C -0.00035 0.72857 0.75865 0.0
C896 C 0.33409 0.3417 0.71605 0.0
C897 C 0.30379 0.30342 0.69496 0.0
H898 H 0.35578 0.37167 0.77236 0.0
C899 C 0.27266 0.26511 0.7153 0.0
H900 H 0.35818 0.37192 0.70112 0.0
C901 C 0.27072 0.26521 0.7555 0.0
C902 C 0.30001 0.3036 0.77688 0.0
H903 H 0.24894 0.23494 0.70009 0.0
H904 H 0.24594 0.23479 0.76973 0.0
C905 C 0.33225 0.34178 0.75676 0.0
C906 C -0.00904 0.26597 0.21621 0.0
C907 C -0.00919 0.30108 0.19561 0.0
H908 H -0.00711 0.23861 0.2709 0.0
C909 C -0.00753 0.33691 0.21654 0.0
H910 H -0.0101 0.23784 0.20126 0.0
C911 C -0.0056 0.33746 0.25725 0.0
C912 C -0.00529 0.30218 0.2776 0.0
H913 H -0.007 0.36479 0.20152 0.0
H914 H -0.00491 0.36512 0.2727 0.0
C915 C -0.007 0.26657 0.25643 0.0
C916 C 0.65119 0.65559 0.25758 0.0
C917 C 0.68514 0.69175 0.27849 0.0
H918 H 0.62568 0.62711 0.20141 0.0
C919 C 0.72001 0.72719 0.25787 0.0
H920 H 0.62413 0.62748 0.27263 0.0
C921 C 0.72135 0.72656 0.21766 0.0
C922 C 0.68772 0.69062 0.19648 0.0
H923 H 0.74688 0.7556 0.27278 0.0
H924 H 0.74896 0.7548 0.20321 0.0
C925 C 0.65245 0.65504 0.21686 0.0
C926 C 0.32955 -0.00332 0.25775 0.0
C927 C 0.2935 -0.00524 0.27852 0.0
H928 H 0.35829 -0.00016 0.20175 0.0
C929 C 0.25854 -0.00499 0.25776 0.0
H930 H 0.35733 -0.00285 0.27289 0.0
C931 C 0.25949 -0.0026 0.21753 0.0
C932 C 0.29534 -0.00062 0.19653 0.0
H933 H 0.23026 -0.00622 0.27258 0.0
H934 H 0.23163 -0.00266 0.20292 0.0
C935 C 0.33046 -0.00103 0.21706 0.0
loop_
_geom_bond_atom_site_label_1
_geom_bond_atom_site_label_2
_geom_bond_distance
_geom_bond_site_symmetry_2
_ccdc_geom_bond_type
Sc0 O3 2.025 . S
Sc0 O10 2.105 . S
Sc0 O13 2.105 1_455 S
Sc0 O16 2.105 . S
Sc0 O19 2.105 1_455 S
Sc1 O3 2.025 1_655 S
Sc1 O11 2.105 . S
Sc1 O15 2.105 . S
Sc1 O17 2.105 . S
Sc1 O21 2.105 . S
Sc2 O3 2.025 . S
Sc2 O12 2.105 . S
Sc2 O14 2.105 . S
Sc2 O18 2.105 . S
Sc2 O20 2.105 . S
O3 Sc0 2.025 . S
O3 Sc1 2.025 1_455 S
O3 Sc2 2.025 . S
C4 O10 1.268 . S
C4 O20 1.268 . S
C5 O11 1.268 . S
C5 O19 1.268 . S
C6 O12 1.268 . S
C6 O21 1.268 1_455 S
C7 O13 1.268 . S
C7 O17 1.268 . S
C8 O14 1.268 . S
C8 O16 1.268 . S
C9 O15 1.268 . S
C9 O18 1.268 1_655 S
O10 Sc0 2.105 . S
O10 C4 1.268 . S
O11 Sc1 2.105 . S
O11 C5 1.268 . S
O12 Sc2 2.105 . S
O12 C6 1.268 . S
O13 Sc0 2.105 1_655 S
O13 C7 1.268 . S
O14 Sc2 2.105 . S
O14 C8 1.268 . S
O15 Sc1 2.105 . S
O15 C9 1.268 . S
O16 Sc0 2.105 . S
O16 C8 1.268 . S
O17 Sc1 2.105 . S
O17 C7 1.268 . S
O18 Sc2 2.105 . S
O18 C9 1.268 1_455 S
O19 Sc0 2.105 1_655 S
O19 C5 1.268 . S
O20 Sc2 2.105 . S
O20 C4 1.268 . S
O21 Sc1 2.105 . S
O21 C6 1.268 1_655 S
Sc22 O25 2.025 . S
Sc22 O32 2.105 . S
Sc22 O35 2.105 . S
Sc22 O38 2.105 . S
Sc22 O41 2.105 . S
Sc23 O25 2.025 . S
Sc23 O33 2.105 . S
Sc23 O37 2.105 . S
Sc23 O39 2.105 . S
Sc23 O43 2.105 . S
Sc24 O25 2.025 . S
Sc24 O34 2.105 . S
Sc24 O36 2.105 . S
Sc24 O40 2.105 . S
Sc24 O42 2.105 . S
O25 Sc22 2.025 . S
O25 Sc23 2.025 . S
O25 Sc24 2.025 . S
C26 O32 1.268 . S
C26 O42 1.268 . S
C27 O33 1.268 . S
C27 O41 1.268 . S
C28 O34 1.268 . S
C28 O43 1.268 . S
C29 O35 1.268 . S
C29 O39 1.268 . S
C30 O36 1.268 . S
C30 O38 1.268 . S
C31 O37 1.268 . S
C31 O40 1.268 . S
O32 Sc22 2.105 . S
O32 C26 1.268 . S
O33 Sc23 2.105 . S
O33 C27 1.268 . S
O34 Sc24 2.105 . S
O34 C28 1.268 . S
O35 Sc22 2.105 . S
O35 C29 1.268 . S
O36 Sc24 2.105 . S
O36 C30 1.268 . S
O37 Sc23 2.105 . S
O37 C31 1.268 . S
O38 Sc22 2.105 . S
O38 C30 1.268 . S
O39 Sc23 2.105 . S
O39 C29 1.268 . S
O40 Sc24 2.105 . S
O40 C31 1.268 . S
O41 Sc22 2.105 . S
O41 C27 1.268 . S
O42 Sc24 2.105 . S
O42 C26 1.268 . S
O43 Sc23 2.105 . S
O43 C28 1.268 . S
Sc44 O47 2.025 . S
Sc44 O54 2.105 . S
Sc44 O57 2.105 . S
Sc44 O60 2.105 . S
Sc44 O63 2.105 . S
Sc45 O47 2.025 1_565 S
Sc45 O55 2.105 . S
Sc45 O59 2.105 . S
Sc45 O61 2.105 . S
Sc45 O65 2.105 . S
Sc46 O47 2.025 . S
Sc46 O56 2.105 1_545 S
Sc46 O58 2.105 . S
Sc46 O62 2.105 1_545 S
Sc46 O64 2.105 . S
O47 Sc44 2.025 . S
O47 Sc45 2.025 1_545 S
O47 Sc46 2.025 . S
C48 O54 1.268 . S
C48 O64 1.268 . S
C49 O55 1.268 . S
C49 O63 1.268 1_565 S
C50 O56 1.268 . S
C50 O65 1.268 . S
C51 O57 1.268 . S
C51 O61 1.268 1_545 S
C52 O58 1.268 . S
C52 O60 1.268 . S
C53 O59 1.268 . S
C53 O62 1.268 . S
O54 Sc44 2.105 . S
O54 C48 1.268 . S
O55 Sc45 2.105 . S
O55 C49 1.268 . S
O56 Sc46 2.105 1_565 S
O56 C50 1.268 . S
O57 Sc44 2.105 . S
O57 C51 1.268 . S
O58 Sc46 2.105 . S
O58 C52 1.268 . S
O59 Sc45 2.105 . S
O59 C53 1.268 . S
O60 Sc44 2.105 . S
O60 C52 1.268 . S
O61 Sc45 2.105 . S
O61 C51 1.268 1_565 S
O62 Sc46 2.105 1_565 S
O62 C53 1.268 . S
O63 Sc44 2.105 . S
O63 C49 1.268 1_545 S
O64 Sc46 2.105 . S
O64 C48 1.268 . S
O65 Sc45 2.105 . S
O65 C50 1.268 . S
Sc66 O69 2.025 . S
Sc66 O76 2.105 1_455 S
Sc66 O79 2.105 . S
Sc66 O82 2.105 1_455 S
Sc66 O85 2.105 . S
Sc67 O69 2.025 . S
Sc67 O77 2.105 . S
Sc67 O81 2.105 . S
Sc67 O83 2.105 . S
Sc67 O87 2.105 . S
Sc68 O69 2.025 1_655 S
Sc68 O78 2.105 . S
Sc68 O80 2.105 . S
Sc68 O84 2.105 . S
Sc68 O86 2.105 . S
O69 Sc66 2.025 . S
O69 Sc67 2.025 . S
O69 Sc68 2.025 1_455 S
C70 O76 1.268 . S
C70 O86 1.268 . S
C71 O77 1.268 . S
C71 O85 1.268 . S
C72 O78 1.268 1_455 S
C72 O87 1.268 . S
C73 O79 1.268 . S
C73 O83 1.268 . S
C74 O80 1.268 . S
C74 O82 1.268 . S
C75 O81 1.268 1_655 S
C75 O84 1.268 . S
O76 Sc66 2.105 1_655 S
O76 C70 1.268 . S
O77 Sc67 2.105 . S
O77 C71 1.268 . S
O78 Sc68 2.105 . S
O78 C72 1.268 1_655 S
O79 Sc66 2.105 . S
O79 C73 1.268 . S
O80 Sc68 2.105 . S
O80 C74 1.268 . S
O81 Sc67 2.105 . S
O81 C75 1.268 1_455 S
O82 Sc66 2.105 1_655 S
O82 C74 1.268 . S
O83 Sc67 2.105 . S
O83 C73 1.268 . S
O84 Sc68 2.105 . S
O84 C75 1.268 . S
O85 Sc66 2.105 . S
O85 C71 1.268 . S
O86 Sc68 2.105 . S
O86 C70 1.268 . S
O87 Sc67 2.105 . S
O87 C72 1.268 . S
Sc88 O91 2.025 . S
Sc88 O98 2.105 . S
Sc88 O101 2.105 . S
Sc88 O104 2.105 . S
Sc88 O107 2.105 . S
Sc89 O91 2.025 . S
Sc89 O99 2.105 . S
Sc89 O103 2.105 . S
Sc89 O105 2.105 . S
Sc89 O109 2.105 . S
Sc90 O91 2.025 . S
Sc90 O100 2.105 . S
Sc90 O102 2.105 . S
Sc90 O106 2.105 . S
Sc90 O108 2.105 . S
O91 Sc88 2.025 . S
O91 Sc89 2.025 . S
O91 Sc90 2.025 . S
C92 O98 1.268 . S
C92 O108 1.268 . S
C93 O99 1.268 . S
C93 O107 1.268 . S
C94 O100 1.268 . S
C94 O109 1.268 . S
C95 O101 1.268 . S
C95 O105 1.268 . S
C96 O102 1.268 . S
C96 O104 1.268 . S
C97 O103 1.268 . S
C97 O106 1.268 . S
O98 Sc88 2.105 . S
O98 C92 1.268 . S
O99 Sc89 2.105 . S
O99 C93 1.268 . S
O100 Sc90 2.105 . S
O100 C94 1.268 . S
O101 Sc88 2.105 . S
O101 C95 1.268 . S
O102 Sc90 2.105 . S
O102 C96 1.268 . S
O103 Sc89 2.105 . S
O103 C97 1.268 . S
O104 Sc88 2.105 . S
O104 C96 1.268 . S
O105 Sc89 2.105 . S
O105 C95 1.268 . S
O106 Sc90 2.105 . S
O106 C97 1.268 . S
O107 Sc88 2.105 . S
O107 C93 1.268 . S
O108 Sc90 2.105 . S
O108 C92 1.268 . S
O109 Sc89 2.105 . S
O109 C94 1.268 . S
Sc110 O113 2.025 1_565 S
Sc110 O120 2.105 . S
Sc110 O123 2.105 . S
Sc110 O126 2.105 . S
Sc110 O129 2.105 . S
Sc111 O113 2.025 . S
Sc111 O121 2.105 . S
Sc111 O125 2.105 . S
Sc111 O127 2.105 . S
Sc111 O131 2.105 . S
Sc112 O113 2.025 . S
Sc112 O122 2.105 . S
Sc112 O124 2.105 1_545 S
Sc112 O128 2.105 . S
Sc112 O130 2.105 1_545 S
O113 Sc110 2.025 1_545 S
O113 Sc111 2.025 . S
O113 Sc112 2.025 . S
C114 O120 1.268 . S
C114 O130 1.268 . S
C115 O121 1.268 1_565 S
C115 O129 1.268 . S
C116 O122 1.268 . S
C116 O131 1.268 . S
C117 O123 1.268 1_545 S
C117 O127 1.268 . S
C118 O124 1.268 . S
C118 O126 1.268 . S
C119 O125 1.268 . S
C119 O128 1.268 . S
O120 Sc110 2.105 . S
O120 C114 1.268 . S
O121 Sc111 2.105 . S
O121 C115 1.268 1_545 S
O122 Sc112 2.105 . S
O122 C116 1.268 . S
O123 Sc110 2.105 . S
O123 C117 1.268 1_565 S
O124 Sc112 2.105 1_565 S
O124 C118 1.268 . S
O125 Sc111 2.105 . S
O125 C119 1.268 . S
O126 Sc110 2.105 . S
O126 C118 1.268 . S
O127 Sc111 2.105 . S
O127 C117 1.268 . S
O128 Sc112 2.105 . S
O128 C119 1.268 . S
O129 Sc110 2.105 . S
O129 C115 1.268 . S
O130 Sc112 2.105 1_565 S
O130 C114 1.268 . S
O131 Sc111 2.105 . S
O131 C116 1.268 . S
Sc132 O135 2.025 . S
Sc132 O142 2.105 1_565 S
Sc132 O145 2.105 . S
Sc132 O148 2.105 1_565 S
Sc132 O151 2.105 . S
Sc133 O135 2.025 . S
Sc133 O143 2.105 . S
Sc133 O147 2.105 . S
Sc133 O149 2.105 . S
Sc133 O153 2.105 . S
Sc134 O135 2.025 . S
Sc134 O144 2.105 . S
Sc134 O146 2.105 . S
Sc134 O150 2.105 . S
Sc134 O152 2.105 . S
O135 Sc132 2.025 . S
O135 Sc133 2.025 . S
O135 Sc134 2.025 . S
C136 O142 1.268 . S
C136 O152 1.268 1_545 S
C137 O143 1.268 . S
C137 O151 1.268 . S
C138 O144 1.268 . S
C138 O153 1.268 . S
C139 O145 1.268 . S
C139 O149 1.268 . S
C140 O146 1.268 . S
C140 O148 1.268 1_565 S
C141 O147 1.268 . S
C141 O150 1.268 . S
O142 Sc132 2.105 1_545 S
O142 C136 1.268 . S
O143 Sc133 2.105 . S
O143 C137 1.268 . S
O144 Sc134 2.105 . S
O144 C138 1.268 . S
O145 Sc132 2.105 . S
O145 C139 1.268 . S
O146 Sc134 2.105 . S
O146 C140 1.268 . S
O147 Sc133 2.105 . S
O147 C141 1.268 . S
O148 Sc132 2.105 1_545 S
O148 C140 1.268 1_545 S
O149 Sc133 2.105 . S
O149 C139 1.268 . S
O150 Sc134 2.105 . S
O150 C141 1.268 . S
O151 Sc132 2.105 . S
O151 C137 1.268 . S
O152 Sc134 2.105 . S
O152 C136 1.268 1_565 S
O153 Sc133 2.105 . S
O153 C138 1.268 . S
Sc154 O157 2.025 . S
Sc154 O164 2.105 1_455 S
Sc154 O167 2.105 . S
Sc154 O170 2.105 . S
Sc154 O173 2.105 . S
Sc155 O157 2.025 . S
Sc155 O165 2.105 . S
Sc155 O169 2.105 . S
Sc155 O171 2.105 . S
Sc155 O175 2.105 . S
Sc156 O157 2.025 . S
Sc156 O166 2.105 . S
Sc156 O168 2.105 . S
Sc156 O172 2.105 . S
Sc156 O174 2.105 . S
O157 Sc154 2.025 . S
O157 Sc155 2.025 . S
O157 Sc156 2.025 . S
C158 O164 1.268 . S
C158 O174 1.268 1_655 S
C159 O165 1.268 . S
C159 O173 1.268 . S
C160 O166 1.268 . S
C160 O175 1.268 . S
C161 O167 1.268 . S
C161 O171 1.268 . S
C162 O168 1.268 . S
C162 O170 1.268 . S
C163 O169 1.268 . S
C163 O172 1.268 . S
O164 Sc154 2.105 1_655 S
O164 C158 1.268 . S
O165 Sc155 2.105 . S
O165 C159 1.268 . S
O166 Sc156 2.105 . S
O166 C160 1.268 . S
O167 Sc154 2.105 . S
O167 C161 1.268 . S
O168 Sc156 2.105 . S
O168 C162 1.268 . S
O169 Sc155 2.105 . S
O169 C163 1.268 . S
O170 Sc154 2.105 . S
O170 C162 1.268 . S
O171 Sc155 2.105 . S
O171 C161 1.268 . S
O172 Sc156 2.105 . S
O172 C163 1.268 . S
O173 Sc154 2.105 . S
O173 C159 1.268 . S
O174 Sc156 2.105 . S
O174 C158 1.268 1_455 S
O175 Sc155 2.105 . S
O175 C160 1.268 . S
Sc176 O179 2.025 . S
Sc176 O186 2.105 . S
Sc176 O189 2.105 . S
Sc176 O192 2.105 . S
Sc176 O195 2.105 . S
Sc177 O179 2.025 . S
Sc177 O187 2.105 . S
Sc177 O191 2.105 . S
Sc177 O193 2.105 . S
Sc177 O197 2.105 . S
Sc178 O179 2.025 . S
Sc178 O188 2.105 . S
Sc178 O190 2.105 . S
Sc178 O194 2.105 . S
Sc178 O196 2.105 . S
O179 Sc176 2.025 . S
O179 Sc177 2.025 . S
O179 Sc178 2.025 . S
C180 O186 1.268 . S
C180 O196 1.268 . S
C181 O187 1.268 . S
C181 O195 1.268 . S
C182 O188 1.268 . S
C182 O197 1.268 . S
C183 O189 1.268 . S
C183 O193 1.268 . S
C184 O190 1.268 . S
C184 O192 1.268 . S
C185 O191 1.268 . S
C185 O194 1.268 . S
O186 Sc176 2.105 . S
O186 C180 1.268 . S
O187 Sc177 2.105 . S
O187 C181 1.268 . S
O188 Sc178 2.105 . S
O188 C182 1.268 . S
O189 Sc176 2.105 . S
O189 C183 1.268 . S
O190 Sc178 2.105 . S
O190 C184 1.268 . S
O191 Sc177 2.105 . S
O191 C185 1.268 . S
O192 Sc176 2.105 . S
O192 C184 1.268 . S
O193 Sc177 2.105 . S
O193 C183 1.268 . S
O194 Sc178 2.105 . S
O194 C185 1.268 . S
O195 Sc176 2.105 . S
O195 C181 1.268 . S
O196 Sc178 2.105 . S
O196 C180 1.268 . S
O197 Sc177 2.105 . S
O197 C182 1.268 . S
Sc198 O201 2.025 . S
Sc198 O208 2.105 . S
Sc198 O211 2.105 . S
Sc198 O214 2.105 . S
Sc198 O217 2.105 . S
Sc199 O201 2.025 . S
Sc199 O209 2.105 . S
Sc199 O213 2.105 . S
Sc199 O215 2.105 . S
Sc199 O219 2.105 . S
Sc200 O201 2.025 . S
Sc200 O210 2.105 . S
Sc200 O212 2.105 . S
Sc200 O216 2.105 . S
Sc200 O218 2.105 . S
O201 Sc198 2.025 . S
O201 Sc199 2.025 . S
O201 Sc200 2.025 . S
C202 O208 1.268 . S
C202 O218 1.268 . S
C203 O209 1.268 . S
C203 O217 1.268 . S
C204 O210 1.268 . S
C204 O219 1.268 . S
C205 O211 1.268 . S
C205 O215 1.268 . S
C206 O212 1.268 . S
C206 O214 1.268 . S
C207 O213 1.268 . S
C207 O216 1.268 . S
O208 Sc198 2.105 . S
O208 C202 1.268 . S
O209 Sc199 2.105 . S
O209 C203 1.268 . S
O210 Sc200 2.105 . S
O210 C204 1.268 . S
O211 Sc198 2.105 . S
O211 C205 1.268 . S
O212 Sc200 2.105 . S
O212 C206 1.268 . S
O213 Sc199 2.105 . S
O213 C207 1.268 . S
O214 Sc198 2.105 . S
O214 C206 1.268 . S
O215 Sc199 2.105 . S
O215 C205 1.268 . S
O216 Sc200 2.105 . S
O216 C207 1.268 . S
O217 Sc198 2.105 . S
O217 C203 1.268 . S
O218 Sc200 2.105 . S
O218 C202 1.268 . S
O219 Sc199 2.105 . S
O219 C204 1.268 . S
Sc220 O223 2.025 . S
Sc220 O230 2.105 . S
Sc220 O233 2.105 . S
Sc220 O236 2.105 . S
Sc220 O239 2.105 . S
Sc221 O223 2.025 . S
Sc221 O231 2.105 . S
Sc221 O235 2.105 . S
Sc221 O237 2.105 . S
Sc221 O241 2.105 . S
Sc222 O223 2.025 . S
Sc222 O232 2.105 . S
Sc222 O234 2.105 1_565 S
Sc222 O238 2.105 . S
Sc222 O240 2.105 1_565 S
O223 Sc220 2.025 . S
O223 Sc221 2.025 . S
O223 Sc222 2.025 . S
C224 O230 1.268 1_545 S
C224 O240 1.268 . S
C225 O231 1.268 . S
C225 O239 1.268 . S
C226 O232 1.268 . S
C226 O241 1.268 . S
C227 O233 1.268 . S
C227 O237 1.268 . S
C228 O234 1.268 1_565 S
C228 O236 1.268 . S
C229 O235 1.268 . S
C229 O238 1.268 . S
O230 Sc220 2.105 . S
O230 C224 1.268 1_565 S
O231 Sc221 2.105 . S
O231 C225 1.268 . S
O232 Sc222 2.105 . S
O232 C226 1.268 . S
O233 Sc220 2.105 . S
O233 C227 1.268 . S
O234 Sc222 2.105 1_545 S
O234 C228 1.268 1_545 S
O235 Sc221 2.105 . S
O235 C229 1.268 . S
O236 Sc220 2.105 . S
O236 C228 1.268 . S
O237 Sc221 2.105 . S
O237 C227 1.268 . S
O238 Sc222 2.105 . S
O238 C229 1.268 . S
O239 Sc220 2.105 . S
O239 C225 1.268 . S
O240 Sc222 2.105 1_545 S
O240 C224 1.268 . S
O241 Sc221 2.105 . S
O241 C226 1.268 . S
Sc242 O245 2.025 . S
Sc242 O252 2.105 . S
Sc242 O255 2.105 . S
Sc242 O258 2.105 . S
Sc242 O261 2.105 . S
Sc243 O245 2.025 . S
Sc243 O253 2.105 . S
Sc243 O257 2.105 . S
Sc243 O259 2.105 . S
Sc243 O263 2.105 . S
Sc244 O245 2.025 . S
Sc244 O254 2.105 . S
Sc244 O256 2.105 . S
Sc244 O260 2.105 . S
Sc244 O262 2.105 1_455 S
O245 Sc242 2.025 . S
O245 Sc243 2.025 . S
O245 Sc244 2.025 . S
C246 O252 1.268 1_655 S
C246 O262 1.268 . S
C247 O253 1.268 . S
C247 O261 1.268 . S
C248 O254 1.268 . S
C248 O263 1.268 . S
C249 O255 1.268 . S
C249 O259 1.268 . S
C250 O256 1.268 . S
C250 O258 1.268 . S
C251 O257 1.268 . S
C251 O260 1.268 . S
O252 Sc242 2.105 . S
O252 C246 1.268 1_455 S
O253 Sc243 2.105 . S
O253 C247 1.268 . S
O254 Sc244 2.105 . S
O254 C248 1.268 . S
O255 Sc242 2.105 . S
O255 C249 1.268 . S
O256 Sc244 2.105 . S
O256 C250 1.268 . S
O257 Sc243 2.105 . S
O257 C251 1.268 . S
O258 Sc242 2.105 . S
O258 C250 1.268 . S
O259 Sc243 2.105 . S
O259 C249 1.268 . S
O260 Sc244 2.105 . S
O260 C251 1.268 . S
O261 Sc242 2.105 . S
O261 C247 1.268 . S
O262 Sc244 2.105 1_655 S
O262 C246 1.268 . S
O263 Sc243 2.105 . S
O263 C248 1.268 . S
Sc264 O267 2.025 . S
Sc264 O274 2.105 . S
Sc264 O277 2.105 . S
Sc264 O280 2.105 . S
Sc264 O283 2.105 . S
Sc265 O267 2.025 . S
Sc265 O275 2.105 . S
Sc265 O279 2.105 . S
Sc265 O281 2.105 . S
Sc265 O285 2.105 . S
Sc266 O267 2.025 . S
Sc266 O276 2.105 . S
Sc266 O278 2.105 . S
Sc266 O282 2.105 . S
Sc266 O284 2.105 . S
O267 Sc264 2.025 . S
O267 Sc265 2.025 . S
O267 Sc266 2.025 . S
C268 O274 1.268 . S
C268 O284 1.268 . S
C269 O275 1.268 . S
C269 O283 1.268 . S
C270 O276 1.268 . S
C270 O285 1.268 . S
C271 O277 1.268 . S
C271 O281 1.268 . S
C272 O278 1.268 . S
C272 O280 1.268 . S
C273 O279 1.268 . S
C273 O282 1.268 . S
O274 Sc264 2.105 . S
O274 C268 1.268 . S
O275 Sc265 2.105 . S
O275 C269 1.268 . S
O276 Sc266 2.105 . S
O276 C270 1.268 . S
O277 Sc264 2.105 . S
O277 C271 1.268 . S
O278 Sc266 2.105 . S
O278 C272 1.268 . S
O279 Sc265 2.105 . S
O279 C273 1.268 . S
O280 Sc264 2.105 . S
O280 C272 1.268 . S
O281 Sc265 2.105 . S
O281 C271 1.268 . S
O282 Sc266 2.105 . S
O282 C273 1.268 . S
O283 Sc264 2.105 . S
O283 C269 1.268 . S
O284 Sc266 2.105 . S
O284 C268 1.268 . S
O285 Sc265 2.105 . S
O285 C270 1.268 . S
Sc286 O289 2.025 . S
Sc286 O296 2.105 . S
Sc286 O299 2.105 . S
Sc286 O302 2.105 . S
Sc286 O305 2.105 . S
Sc287 O289 2.025 . S
Sc287 O297 2.105 . S
Sc287 O301 2.105 . S
Sc287 O303 2.105 . S
Sc287 O307 2.105 . S
Sc288 O289 2.025 . S
Sc288 O298 2.105 . S
Sc288 O300 2.105 1_545 S
Sc288 O304 2.105 . S
Sc288 O306 2.105 . S
O289 Sc286 2.025 . S
O289 Sc287 2.025 . S
O289 Sc288 2.025 . S
C290 O296 1.268 . S
C290 O306 1.268 . S
C291 O297 1.268 . S
C291 O305 1.268 . S
C292 O298 1.268 . S
C292 O307 1.268 . S
C293 O299 1.268 . S
C293 O303 1.268 . S
C294 O300 1.268 . S
C294 O302 1.268 1_565 S
C295 O301 1.268 . S
C295 O304 1.268 . S
O296 Sc286 2.105 . S
O296 C290 1.268 . S
O297 Sc287 2.105 . S
O297 C291 1.268 . S
O298 Sc288 2.105 . S
O298 C292 1.268 . S
O299 Sc286 2.105 . S
O299 C293 1.268 . S
O300 Sc288 2.105 1_565 S
O300 C294 1.268 . S
O301 Sc287 2.105 . S
O301 C295 1.268 . S
O302 Sc286 2.105 . S
O302 C294 1.268 1_545 S
O303 Sc287 2.105 . S
O303 C293 1.268 . S
O304 Sc288 2.105 . S
O304 C295 1.268 . S
O305 Sc286 2.105 . S
O305 C291 1.268 . S
O306 Sc288 2.105 . S
O306 C290 1.268 . S
O307 Sc287 2.105 . S
O307 C292 1.268 . S
Sc308 O311 2.025 . S
Sc308 O318 2.105 . S
Sc308 O321 2.105 . S
Sc308 O324 2.105 . S
Sc308 O327 2.105 . S
Sc309 O311 2.025 . S
Sc309 O319 2.105 . S
Sc309 O323 2.105 . S
Sc309 O325 2.105 . S
Sc309 O329 2.105 . S
Sc310 O311 2.025 . S
Sc310 O320 2.105 . S
Sc310 O322 2.105 1_655 S
Sc310 O326 2.105 . S
Sc310 O328 2.105 1_655 S
O311 Sc308 2.025 . S
O311 Sc309 2.025 . S
O311 Sc310 2.025 . S
C312 O318 1.268 . S
C312 O328 1.268 1_655 S
C313 O319 1.268 . S
C313 O327 1.268 . S
C314 O320 1.268 . S
C314 O329 1.268 . S
C315 O321 1.268 . S
C315 O325 1.268 . S
C316 O322 1.268 . S
C316 O324 1.268 1_455 S
C317 O323 1.268 . S
C317 O326 1.268 . S
O318 Sc308 2.105 . S
O318 C312 1.268 . S
O319 Sc309 2.105 . S
O319 C313 1.268 . S
O320 Sc310 2.105 . S
O320 C314 1.268 . S
O321 Sc308 2.105 . S
O321 C315 1.268 . S
O322 Sc310 2.105 1_455 S
O322 C316 1.268 . S
O323 Sc309 2.105 . S
O323 C317 1.268 . S
O324 Sc308 2.105 . S
O324 C316 1.268 1_655 S
O325 Sc309 2.105 . S
O325 C315 1.268 . S
O326 Sc310 2.105 . S
O326 C317 1.268 . S
O327 Sc308 2.105 . S
O327 C313 1.268 . S
O328 Sc310 2.105 1_455 S
O328 C312 1.268 1_455 S
O329 Sc309 2.105 . S
O329 C314 1.268 . S
Sc330 O333 2.025 . S
Sc330 O340 2.105 . S
Sc330 O343 2.105 . S
Sc330 O346 2.105 1_545 S
Sc330 O349 2.105 . S
Sc331 O333 2.025 . S
Sc331 O341 2.105 . S
Sc331 O345 2.105 . S
Sc331 O347 2.105 . S
Sc331 O351 2.105 . S
Sc332 O333 2.025 . S
Sc332 O342 2.105 . S
Sc332 O344 2.105 . S
Sc332 O348 2.105 . S
Sc332 O350 2.105 . S
O333 Sc330 2.025 . S
O333 Sc331 2.025 . S
O333 Sc332 2.025 . S
C334 O340 1.268 . S
C334 O350 1.268 . S
C335 O341 1.268 . S
C335 O349 1.268 . S
C336 O342 1.268 . S
C336 O351 1.268 . S
C337 O343 1.268 . S
C337 O347 1.268 . S
C338 O344 1.268 1_565 S
C338 O346 1.268 . S
C339 O345 1.268 . S
C339 O348 1.268 . S
O340 Sc330 2.105 . S
O340 C334 1.268 . S
O341 Sc331 2.105 . S
O341 C335 1.268 . S
O342 Sc332 2.105 . S
O342 C336 1.268 . S
O343 Sc330 2.105 . S
O343 C337 1.268 . S
O344 Sc332 2.105 . S
O344 C338 1.268 1_545 S
O345 Sc331 2.105 . S
O345 C339 1.268 . S
O346 Sc330 2.105 1_565 S
O346 C338 1.268 . S
O347 Sc331 2.105 . S
O347 C337 1.268 . S
O348 Sc332 2.105 . S
O348 C339 1.268 . S
O349 Sc330 2.105 . S
O349 C335 1.268 . S
O350 Sc332 2.105 . S
O350 C334 1.268 . S
O351 Sc331 2.105 . S
O351 C336 1.268 . S
Sc352 O355 2.025 . S
Sc352 O362 2.105 . S
Sc352 O365 2.105 . S
Sc352 O368 2.105 . S
Sc352 O371 2.105 . S
Sc353 O355 2.025 . S
Sc353 O363 2.105 . S
Sc353 O367 2.105 . S
Sc353 O369 2.105 . S
Sc353 O373 2.105 . S
Sc354 O355 2.025 . S
Sc354 O364 2.105 1_655 S
Sc354 O366 2.105 . S
Sc354 O370 2.105 1_655 S
Sc354 O372 2.105 . S
O355 Sc352 2.025 . S
O355 Sc353 2.025 . S
O355 Sc354 2.025 . S
C356 O362 1.268 . S
C356 O372 1.268 . S
C357 O363 1.268 . S
C357 O371 1.268 . S
C358 O364 1.268 1_655 S
C358 O373 1.268 . S
C359 O365 1.268 . S
C359 O369 1.268 . S
C360 O366 1.268 . S
C360 O368 1.268 . S
C361 O367 1.268 1_455 S
C361 O370 1.268 . S
O362 Sc352 2.105 . S
O362 C356 1.268 . S
O363 Sc353 2.105 . S
O363 C357 1.268 . S
O364 Sc354 2.105 1_455 S
O364 C358 1.268 1_455 S
O365 Sc352 2.105 . S
O365 C359 1.268 . S
O366 Sc354 2.105 . S
O366 C360 1.268 . S
O367 Sc353 2.105 . S
O367 C361 1.268 1_655 S
O368 Sc352 2.105 . S
O368 C360 1.268 . S
O369 Sc353 2.105 . S
O369 C359 1.268 . S
O370 Sc354 2.105 1_455 S
O370 C361 1.268 . S
O371 Sc352 2.105 . S
O371 C357 1.268 . S
O372 Sc354 2.105 . S
O372 C356 1.268 . S
O373 Sc353 2.105 . S
O373 C358 1.268 . S
Sc374 O377 2.025 . S
Sc374 O384 2.105 . S
Sc374 O387 2.105 . S
Sc374 O390 2.105 . S
Sc374 O393 2.105 . S
Sc375 O377 2.025 . S
Sc375 O385 2.105 . S
Sc375 O389 2.105 . S
Sc375 O391 2.105 . S
Sc375 O395 2.105 . S
Sc376 O377 2.025 . S
Sc376 O386 2.105 . S
Sc376 O388 2.105 . S
Sc376 O392 2.105 . S
Sc376 O394 2.105 . S
O377 Sc374 2.025 . S
O377 Sc375 2.025 . S
O377 Sc376 2.025 . S
C378 O384 1.268 . S
C378 O394 1.268 . S
C379 O385 1.268 . S
C379 O393 1.268 . S
C380 O386 1.268 . S
C380 O395 1.268 . S
C381 O387 1.268 . S
C381 O391 1.268 . S
C382 O388 1.268 . S
C382 O390 1.268 . S
C383 O389 1.268 . S
C383 O392 1.268 . S
O384 Sc374 2.105 . S
O384 C378 1.268 . S
O385 Sc375 2.105 . S
O385 C379 1.268 . S
O386 Sc376 2.105 . S
O386 C380 1.268 . S
O387 Sc374 2.105 . S
O387 C381 1.268 . S
O388 Sc376 2.105 . S
O388 C382 1.268 . S
O389 Sc375 2.105 . S
O389 C383 1.268 . S
O390 Sc374 2.105 . S
O390 C382 1.268 . S
O391 Sc375 2.105 . S
O391 C381 1.268 . S
O392 Sc376 2.105 . S
O392 C383 1.268 . S
O393 Sc374 2.105 . S
O393 C379 1.268 . S
O394 Sc376 2.105 . S
O394 C378 1.268 . S
O395 Sc375 2.105 . S
O395 C380 1.268 . S
C396 C397 1.387 . S
C396 H400 0.950 . S
C396 C405 1.390 . S
C397 C396 1.387 . S
C397 C399 1.387 . S
H398 C405 0.950 1_655 S
C399 C397 1.387 . S
C399 C401 1.390 . S
C399 H403 0.950 . S
H400 C396 0.950 . S
C401 C399 1.390 . S
C401 C402 1.387 . S
C401 H404 0.950 . S
C402 C401 1.387 . S
C402 C405 1.387 . S
H403 C399 0.950 . S
H404 C401 0.950 . S
C405 C396 1.390 . S
C405 H398 0.950 1_455 S
C405 C402 1.387 . S
C406 C407 1.387 . S
C406 H410 0.950 . S
C406 C415 1.390 . S
C407 C406 1.387 . S
C407 C409 1.387 . S
H408 C415 0.950 . S
C409 C407 1.387 . S
C409 C411 1.390 . S
C409 H413 0.950 . S
H410 C406 0.950 . S
C411 C409 1.390 . S
C411 C412 1.387 . S
C411 H414 0.950 . S
C412 C411 1.387 . S
C412 C415 1.387 . S
H413 C409 0.950 . S
H414 C411 0.950 . S
C415 C406 1.390 . S
C415 H408 0.950 . S
C415 C412 1.387 . S
C416 C417 1.387 . S
C416 H420 0.950 1_565 S
C416 C425 1.390 . S
C417 C416 1.387 . S
C417 C419 1.387 . S
H418 C425 0.950 . S
C419 C417 1.387 . S
C419 C421 1.390 . S
C419 H423 0.950 . S
H420 C416 0.950 1_545 S
C421 C419 1.390 . S
C421 C422 1.387 . S
C421 H424 0.950 . S
C422 C421 1.387 . S
C422 C425 1.387 . S
H423 C419 0.950 . S
H424 C421 0.950 . S
C425 C416 1.390 . S
C425 H418 0.950 . S
C425 C422 1.387 . S
C426 C427 1.387 . S
C426 H430 0.950 . S
C426 C435 1.390 . S
C427 C426 1.387 . S
C427 C429 1.387 . S
H428 C435 0.950 . S
C429 C427 1.387 . S
C429 C431 1.390 . S
C429 H433 0.950 . S
H430 C426 0.950 . S
C431 C429 1.390 . S
C431 C432 1.387 . S
C431 H434 0.966 . S
C432 C431 1.387 . S
C432 C435 1.387 . S
H433 C429 0.950 . S
H434 C431 0.966 . S
C435 C426 1.390 . S
C435 H428 0.950 . S
C435 C432 1.387 . S
C436 C437 1.387 . S
C436 H440 0.950 . S
C436 C445 1.390 . S
C437 C436 1.387 . S
C437 C439 1.387 . S
H438 C445 0.950 . S
C439 C437 1.387 . S
C439 C441 1.390 . S
C439 H443 0.950 1_655 S
H440 C436 0.950 . S
C441 C439 1.390 . S
C441 C442 1.387 . S
C441 H444 0.950 . S
C442 C441 1.387 . S
C442 C445 1.387 . S
H443 C439 0.950 1_455 S
H444 C441 0.950 . S
C445 C436 1.390 . S
C445 H438 0.950 . S
C445 C442 1.387 . S
C446 C447 1.387 . S
C446 H450 0.950 . S
C446 C455 1.390 . S
C447 C446 1.387 . S
C447 C449 1.387 . S
H448 C455 0.950 . S
C449 C447 1.387 . S
C449 C451 1.390 . S
C449 H453 0.950 . S
H450 C446 0.950 . S
C451 C449 1.390 . S
C451 C452 1.387 . S
C451 H454 0.950 . S
C452 C451 1.387 . S
C452 C455 1.387 . S
H453 C449 0.950 . S
H454 C451 0.950 . S
C455 C446 1.390 . S
C455 H448 0.950 . S
C455 C452 1.387 . S
C456 C457 1.387 . S
C456 H460 0.950 . S
C456 C465 1.390 . S
C457 C456 1.387 . S
C457 C459 1.387 . S
H458 C465 0.950 . S
C459 C457 1.387 . S
C459 C461 1.390 . S
C459 H463 0.950 . S
H460 C456 0.950 . S
C461 C459 1.390 . S
C461 C462 1.387 . S
C461 H464 0.950 . S
C462 C461 1.387 . S
C462 C465 1.387 . S
H463 C459 0.950 . S
H464 C461 0.950 . S
C465 C456 1.390 . S
C465 H458 0.950 . S
C465 C462 1.387 . S
C466 C467 1.387 . S
C466 H470 0.950 . S
C466 C475 1.390 . S
C467 C466 1.387 . S
C467 C469 1.387 . S
H468 C475 0.950 . S
C469 C467 1.387 . S
C469 C471 1.390 . S
C469 H473 0.950 . S
H470 C466 0.950 . S
C471 C469 1.390 . S
C471 C472 1.387 . S
C471 H474 0.950 . S
C472 C471 1.387 . S
C472 C475 1.387 . S
H473 C469 0.950 . S
H474 C471 0.950 . S
C475 C466 1.390 . S
C475 H468 0.950 . S
C475 C472 1.387 . S
C476 C477 1.387 . S
C476 H480 0.950 . S
C476 C485 1.390 . S
C477 C476 1.387 . S
C477 C479 1.387 . S
H478 C485 0.950 . S
C479 C477 1.387 . S
C479 C481 1.390 . S
C479 H483 0.950 . S
H480 C476 0.950 . S
C481 C479 1.390 . S
C481 C482 1.387 . S
C481 H484 0.950 . S
C482 C481 1.387 . S
C482 C485 1.387 . S
H483 C479 0.950 . S
H484 C481 0.950 . S
C485 C476 1.390 . S
C485 H478 0.950 . S
C485 C482 1.387 . S
C486 C487 1.387 . S
C486 H490 0.950 . S
C486 C495 1.390 . S
C487 C486 1.387 . S
C487 C489 1.387 . S
H488 C495 0.950 . S
C489 C487 1.387 . S
C489 C491 1.390 . S
C489 H493 0.950 . S
H490 C486 0.950 . S
C491 C489 1.390 . S
C491 C492 1.387 . S
C491 H494 0.950 1_565 S
C492 C491 1.387 . S
C492 C495 1.387 . S
H493 C489 0.950 . S
H494 C491 0.950 1_545 S
C495 C486 1.390 . S
C495 H488 0.950 . S
C495 C492 1.387 . S
C496 C497 1.387 . S
C496 H500 0.950 1_455 S
C496 C505 1.390 . S
C497 C496 1.387 . S
C497 C499 1.387 . S
H498 C505 0.950 . S
C499 C497 1.387 . S
C499 C501 1.390 . S
C499 H503 0.950 . S
H500 C496 0.950 1_655 S
C501 C499 1.390 . S
C501 C502 1.387 . S
C501 H504 0.950 . S
C502 C501 1.387 . S
C502 C505 1.387 . S
H503 C499 0.950 . S
H504 C501 0.950 . S
C505 C496 1.390 . S
C505 H498 0.950 . S
C505 C502 1.387 . S
C506 C507 1.387 . S
C506 H510 0.950 . S
C506 C515 1.390 . S
C507 C506 1.387 . S
C507 C509 1.387 . S
H508 C515 0.950 . S
C509 C507 1.387 . S
C509 C511 1.390 . S
C509 H513 0.950 . S
H510 C506 0.950 . S
C511 C509 1.390 . S
C511 C512 1.387 . S
C511 H514 0.950 . S
C512 C511 1.387 . S
C512 C515 1.387 . S
H513 C509 0.950 . S
H514 C511 0.950 . S
C515 C506 1.390 . S
C515 H508 0.950 . S
C515 C512 1.387 . S
C516 C517 1.387 . S
C516 H520 0.950 . S
C516 C525 1.390 . S
C517 C516 1.387 . S
C517 C519 1.387 . S
H518 C525 0.950 . S
C519 C517 1.387 . S
C519 C521 1.390 . S
C519 H523 0.950 . S
H520 C516 0.950 . S
C521 C519 1.390 . S
C521 C522 1.387 . S
C521 H524 0.950 . S
C522 C521 1.387 . S
C522 C525 1.387 . S
H523 C519 0.950 . S
H524 C521 0.950 . S
C525 C516 1.390 . S
C525 H518 0.950 . S
C525 C522 1.387 . S
C526 C527 1.387 . S
C526 H530 0.950 . S
C526 C535 1.390 . S
C527 C526 1.387 . S
C527 C529 1.387 . S
H528 C535 0.950 . S
C529 C527 1.387 . S
C529 C531 1.390 . S
C529 H533 0.950 . S
H530 C526 0.950 . S
C531 C529 1.390 . S
C531 C532 1.387 . S
C531 H534 0.950 . S
C532 C531 1.387 . S
C532 C535 1.387 . S
H533 C529 0.950 . S
H534 C531 0.950 . S
C535 C526 1.390 . S
C535 H528 0.950 . S
C535 C532 1.387 . S
C536 C537 1.387 . S
C536 H540 0.950 . S
C536 C545 1.390 . S
C537 C536 1.387 . S
C537 C539 1.387 . S
H538 C545 0.950 . S
C539 C537 1.387 . S
C539 C541 1.390 . S
C539 H543 0.950 . S
H540 C536 0.950 . S
C541 C539 1.390 . S
C541 C542 1.387 . S
C541 H544 0.950 . S
C542 C541 1.387 . S
C542 C545 1.387 . S
H543 C539 0.950 . S
H544 C541 0.950 . S
C545 C536 1.390 . S
C545 H538 0.950 . S
C545 C542 1.387 . S
C546 C547 1.387 . S
C546 H550 0.950 . S
C546 C555 1.390 . S
C547 C546 1.387 . S
C547 C549 1.387 . S
H548 C555 0.950 . S
C549 C547 1.387 . S
C549 C551 1.390 . S
C549 H553 0.950 . S
H550 C546 0.950 . S
C551 C549 1.390 . S
C551 C552 1.387 . S
C551 H554 0.950 . S
C552 C551 1.387 . S
C552 C555 1.387 . S
H553 C549 0.950 . S
H554 C551 0.950 . S
C555 C546 1.390 . S
C555 H548 0.950 . S
C555 C552 1.387 . S
C556 C557 1.387 . S
C556 H560 0.950 . S
C556 C565 1.390 . S
C557 C556 1.387 . S
C557 C559 1.387 . S
H558 C565 0.950 . S
C559 C557 1.387 . S
C559 C561 1.390 . S
C559 H563 0.950 . S
H560 C556 0.950 . S
C561 C559 1.390 . S
C561 C562 1.387 . S
C561 H564 0.950 . S
C562 C561 1.387 . S
C562 C565 1.387 . S
H563 C559 0.950 . S
H564 C561 0.950 . S
C565 C556 1.390 . S
C565 H558 0.950 . S
C565 C562 1.387 . S
C566 C567 1.387 . S
C566 H570 0.950 . S
C566 C575 1.390 . S
C567 C566 1.387 . S
C567 C569 1.387 . S
H568 C575 0.950 . S
C569 C567 1.387 . S
C569 C571 1.390 . S
C569 H573 0.950 . S
H570 C566 0.950 . S
C571 C569 1.390 . S
C571 C572 1.387 . S
C571 H574 0.950 . S
C572 C571 1.387 . S
C572 C575 1.387 . S
H573 C569 0.950 . S
H574 C571 0.950 . S
C575 C566 1.390 . S
C575 H568 0.950 . S
C575 C572 1.387 . S
C576 C577 1.387 . S
C576 H580 0.950 . S
C576 C585 1.390 . S
C577 C576 1.387 . S
C577 C579 1.387 . S
H578 C585 0.950 . S
C579 C577 1.387 . S
C579 C581 1.390 . S
C579 H583 0.950 . S
H580 C576 0.950 . S
C581 C579 1.390 . S
C581 C582 1.387 . S
C581 H584 0.950 . S
C582 C581 1.387 . S
C582 C585 1.387 . S
H583 C579 0.950 . S
H584 C581 0.950 . S
C585 C576 1.390 . S
C585 H578 0.950 . S
C585 C582 1.387 . S
C586 C587 1.387 . S
C586 H590 0.950 . S
C586 C595 1.390 . S
C587 C586 1.387 . S
C587 C589 1.387 . S
H588 C595 0.950 . S
C589 C587 1.387 . S
C589 C591 1.390 . S
C589 H593 0.950 . S
H590 C586 0.950 . S
C591 C589 1.390 . S
C591 C592 1.387 . S
C591 H594 0.950 . S
C592 C591 1.387 . S
C592 C595 1.387 . S
H593 C589 0.950 . S
H594 C591 0.950 . S
C595 C586 1.390 . S
C595 H588 0.950 . S
C595 C592 1.387 . S
C596 C597 1.387 . S
C596 H600 0.950 . S
C596 C605 1.390 . S
C597 C596 1.387 . S
C597 C599 1.387 . S
H598 C605 0.950 . S
C599 C597 1.387 . S
C599 C601 1.390 . S
C599 H603 0.950 . S
H600 C596 0.950 . S
C601 C599 1.390 . S
C601 C602 1.387 . S
C601 H604 0.950 . S
C602 C601 1.387 . S
C602 C605 1.387 . S
H603 C599 0.950 . S
H604 C601 0.950 . S
C605 C596 1.390 . S
C605 H598 0.950 . S
C605 C602 1.387 . S
C606 C607 1.387 1_556 S
C606 H610 0.950 . S
C606 C615 1.390 . S
C607 C606 1.387 1_554 S
C607 C609 1.387 . S
H608 C615 0.950 . S
C609 C607 1.387 . S
C609 C611 1.390 . S
C609 H613 0.950 . S
H610 C606 0.950 . S
C611 C609 1.390 . S
C611 C612 1.387 1_554 S
C611 H614 0.950 . S
C612 C611 1.387 1_556 S
C612 C615 1.387 . S
H613 C609 0.950 . S
H614 C611 0.950 . S
C615 C606 1.390 . S
C615 H608 0.950 . S
C615 C612 1.387 . S
C616 C617 1.387 1_556 S
C616 H620 0.950 . S
C616 C625 1.390 . S
C617 C616 1.387 1_554 S
C617 C619 1.387 . S
H618 C625 0.950 . S
C619 C617 1.387 . S
C619 C621 1.390 . S
C619 H623 0.950 . S
H620 C616 0.950 . S
C621 C619 1.390 . S
C621 C622 1.387 1_554 S
C621 H624 0.950 . S
C622 C621 1.387 1_556 S
C622 C625 1.387 . S
H623 C619 0.950 . S
H624 C621 0.950 . S
C625 C616 1.390 . S
C625 H618 0.950 . S
C625 C622 1.387 . S
C626 C627 1.387 . S
C626 H630 0.950 . S
C626 C635 1.390 . S
C627 C626 1.387 . S
C627 C629 1.387 1_554 S
H628 C635 0.950 . S
C629 C627 1.387 1_556 S
C629 C631 1.390 . S
C629 H633 0.950 . S
H630 C626 0.950 . S
C631 C629 1.390 . S
C631 C632 1.387 . S
C631 H634 0.950 . S
C632 C631 1.387 . S
C632 C635 1.387 1_556 S
H633 C629 0.950 . S
H634 C631 0.950 . S
C635 C626 1.390 . S
C635 H628 0.950 . S
C635 C632 1.387 1_554 S
C636 C637 1.387 . S
C636 H640 0.950 . S
C636 C645 1.390 . S
C637 C636 1.387 . S
C637 C639 1.387 . S
H638 C645 0.950 . S
C639 C637 1.387 . S
C639 C641 1.390 . S
C639 H643 0.950 . S
H640 C636 0.950 . S
C641 C639 1.390 . S
C641 C642 1.387 . S
C641 H644 0.950 . S
C642 C641 1.387 . S
C642 C645 1.387 . S
H643 C639 0.950 . S
H644 C641 0.950 . S
C645 C636 1.390 . S
C645 H638 0.950 . S
C645 C642 1.387 . S
C646 C647 1.387 . S
C646 H650 0.950 . S
C646 C655 1.390 . S
C647 C646 1.387 . S
C647 C649 1.387 . S
H648 C655 0.950 . S
C649 C647 1.387 . S
C649 C651 1.390 . S
C649 H653 0.950 . S
H650 C646 0.950 . S
C651 C649 1.390 . S
C651 C652 1.387 . S
C651 H654 0.950 . S
C652 C651 1.387 . S
C652 C655 1.387 . S
H653 C649 0.950 . S
H654 C651 0.950 . S
C655 C646 1.390 . S
C655 H648 0.950 . S
C655 C652 1.387 . S
C656 C657 1.387 . S
C656 H660 0.950 . S
C656 C665 1.390 . S
C657 C656 1.387 . S
C657 C659 1.387 . S
H658 C665 0.950 . S
C659 C657 1.387 . S
C659 C661 1.390 . S
C659 H663 0.950 . S
H660 C656 0.950 . S
C661 C659 1.390 . S
C661 C662 1.387 . S
C661 H664 0.950 . S
C662 C661 1.387 . S
C662 C665 1.387 . S
H663 C659 0.950 . S
H664 C661 0.950 . S
C665 C656 1.390 . S
C665 H658 0.950 . S
C665 C662 1.387 . S
C666 C667 1.387 . S
C666 H670 0.950 . S
C666 C675 1.390 . S
C667 C666 1.387 . S
C667 C669 1.387 1_556 S
H668 C675 0.950 . S
C669 C667 1.387 1_554 S
C669 C671 1.390 . S
C669 H673 0.950 . S
H670 C666 0.950 . S
C671 C669 1.390 . S
C671 C672 1.387 . S
C671 H674 0.950 . S
C672 C671 1.387 . S
C672 C675 1.387 1_554 S
H673 C669 0.950 . S
H674 C671 0.950 . S
C675 C666 1.390 . S
C675 H668 0.950 . S
C675 C672 1.387 1_556 S
C676 C677 1.387 . S
C676 H680 0.950 . S
C676 C685 1.390 1_556 S
C677 C676 1.387 . S
C677 C679 1.387 1_556 S
H678 C685 0.950 1_556 S
C679 C677 1.387 1_554 S
C679 C681 1.390 . S
C679 H683 0.950 . S
H680 C676 0.950 . S
C681 C679 1.390 . S
C681 C682 1.387 . S
C681 H684 0.950 . S
C682 C681 1.387 . S
C682 C685 1.387 . S
H683 C679 0.950 . S
H684 C681 0.950 . S
C685 C676 1.390 1_554 S
C685 H678 0.950 1_554 S
C685 C682 1.387 . S
C686 C687 1.387 . S
C686 H690 0.950 . S
C686 C695 1.390 1_556 S
C687 C686 1.387 . S
C687 C689 1.387 1_556 S
H688 C695 0.950 1_556 S
C689 C687 1.387 1_554 S
C689 C691 1.390 . S
C689 H693 0.950 . S
H690 C686 0.950 . S
C691 C689 1.390 . S
C691 C692 1.387 . S
C691 H694 0.950 . S
C692 C691 1.387 . S
C692 C695 1.387 . S
H693 C689 0.950 . S
H694 C691 0.950 . S
C695 C686 1.390 1_554 S
C695 H688 0.950 1_554 S
C695 C692 1.387 . S
C696 C697 1.387 . S
C696 H700 0.950 . S
C696 C705 1.390 . S
C697 C696 1.387 . S
C697 C699 1.387 . S
H698 C705 0.950 . S
C699 C697 1.387 . S
C699 C701 1.390 . S
C699 H703 0.950 . S
H700 C696 0.950 . S
C701 C699 1.390 . S
C701 C702 1.387 . S
C701 H704 0.950 . S
C702 C701 1.387 . S
C702 C705 1.387 . S
H703 C699 0.950 . S
H704 C701 0.950 . S
C705 C696 1.390 . S
C705 H698 0.950 . S
C705 C702 1.387 . S
C706 C707 1.387 . S
C706 H710 0.950 . S
C706 C715 1.390 . S
C707 C706 1.387 . S
C707 C709 1.387 . S
H708 C715 0.950 . S
C709 C707 1.387 . S
C709 C711 1.390 . S
C709 H713 0.950 . S
H710 C706 0.950 . S
C711 C709 1.390 . S
C711 C712 1.387 . S
C711 H714 0.950 . S
C712 C711 1.387 . S
C712 C715 1.387 . S
H713 C709 0.950 . S
H714 C711 0.950 . S
C715 C706 1.390 . S
C715 H708 0.950 . S
C715 C712 1.387 . S
C716 C717 1.387 . S
C716 H720 0.950 . S
C716 C725 1.390 . S
C717 C716 1.387 . S
C717 C719 1.387 . S
H718 C725 0.950 . S
C719 C717 1.387 . S
C719 C721 1.390 . S
C719 H723 0.950 . S
H720 C716 0.950 . S
C721 C719 1.390 . S
C721 C722 1.387 . S
C721 H724 0.950 . S
C722 C721 1.387 . S
C722 C725 1.387 . S
H723 C719 0.950 . S
H724 C721 0.950 . S
C725 C716 1.390 . S
C725 H718 0.950 . S
C725 C722 1.387 . S
C726 C727 1.387 . S
C726 H730 0.950 . S
C726 C735 1.390 . S
C727 C726 1.387 . S
C727 C729 1.387 . S
H728 C735 0.950 . S
C729 C727 1.387 . S
C729 C731 1.390 . S
C729 H733 0.950 . S
H730 C726 0.950 . S
C731 C729 1.390 . S
C731 C732 1.387 . S
C731 H734 0.950 . S
C732 C731 1.387 . S
C732 C735 1.387 . S
H733 C729 0.950 . S
H734 C731 0.950 . S
C735 C726 1.390 . S
C735 H728 0.950 . S
C735 C732 1.387 . S
C736 C737 1.387 . S
C736 H740 0.950 . S
C736 C745 1.390 . S
C737 C736 1.387 . S
C737 C739 1.387 . S
H738 C745 0.950 . S
C739 C737 1.387 . S
C739 C741 1.390 . S
C739 H743 0.950 . S
H740 C736 0.950 . S
C741 C739 1.390 . S
C741 C742 1.387 . S
C741 H744 0.950 . S
C742 C741 1.387 . S
C742 C745 1.387 . S
H743 C739 0.950 . S
H744 C741 0.950 . S
C745 C736 1.390 . S
C745 H738 0.950 . S
C745 C742 1.387 . S
C746 C747 1.387 . S
C746 H750 0.950 . S
C746 C755 1.390 . S
C747 C746 1.387 . S
C747 C749 1.387 . S
H748 C755 0.950 . S
C749 C747 1.387 . S
C749 C751 1.390 . S
C749 H753 0.950 . S
H750 C746 0.950 . S
C751 C749 1.390 . S
C751 C752 1.387 . S
C751 H754 0.950 . S
C752 C751 1.387 . S
C752 C755 1.387 . S
H753 C749 0.950 . S
H754 C751 0.950 . S
C755 C746 1.390 . S
C755 H748 0.950 . S
C755 C752 1.387 . S
C756 C757 1.387 . S
C756 H760 0.950 . S
C756 C765 1.390 . S
C757 C756 1.387 . S
C757 C759 1.387 . S
H758 C765 0.950 . S
C759 C757 1.387 . S
C759 C761 1.390 . S
C759 H763 0.950 1_455 S
H760 C756 0.950 . S
C761 C759 1.390 . S
C761 C762 1.387 . S
C761 H764 0.950 1_455 S
C762 C761 1.387 . S
C762 C765 1.387 . S
H763 C759 0.950 1_655 S
H764 C761 0.950 1_655 S
C765 C756 1.390 . S
C765 H758 0.950 . S
C765 C762 1.387 . S
C766 C767 1.387 . S
C766 H770 0.950 . S
C766 C775 1.390 . S
C767 C766 1.387 . S
C767 C769 1.387 . S
H768 C775 0.950 . S
C769 C767 1.387 . S
C769 C771 1.390 . S
C769 H773 0.950 . S
H770 C766 0.950 . S
C771 C769 1.390 . S
C771 C772 1.387 . S
C771 H774 0.950 . S
C772 C771 1.387 . S
C772 C775 1.387 . S
H773 C769 0.950 . S
H774 C771 0.950 . S
C775 C766 1.390 . S
C775 H768 0.950 . S
C775 C772 1.387 . S
C776 C777 1.387 . S
C776 H780 0.950 1_565 S
C776 C785 1.390 . S
C777 C776 1.387 . S
C777 C779 1.387 . S
H778 C785 0.950 1_545 S
C779 C777 1.387 . S
C779 C781 1.390 . S
C779 H783 0.950 . S
H780 C776 0.950 1_545 S
C781 C779 1.390 . S
C781 C782 1.387 . S
C781 H784 0.950 . S
C782 C781 1.387 . S
C782 C785 1.387 . S
H783 C779 0.950 . S
H784 C781 0.950 . S
C785 C776 1.390 . S
C785 H778 0.950 1_565 S
C785 C782 1.387 . S
C786 C787 1.387 . S
C786 H790 0.950 1_545 S
C786 C795 1.390 . S
C787 C786 1.387 . S
C787 C789 1.387 . S
H788 C795 0.950 1_565 S
C789 C787 1.387 . S
C789 C791 1.390 . S
C789 H793 0.950 . S
H790 C786 0.950 1_565 S
C791 C789 1.390 . S
C791 C792 1.387 . S
C791 H794 0.950 . S
C792 C791 1.387 . S
C792 C795 1.387 . S
H793 C789 0.950 . S
H794 C791 0.950 . S
C795 C786 1.390 . S
C795 H788 0.950 1_545 S
C795 C792 1.387 . S
C796 C797 1.387 . S
C796 H800 0.950 . S
C796 C805 1.390 . S
C797 C796 1.387 . S
C797 C799 1.387 . S
H798 C805 0.950 . S
C799 C797 1.387 . S
C799 C801 1.390 . S
C799 H803 0.950 . S
H800 C796 0.950 . S
C801 C799 1.390 . S
C801 C802 1.387 . S
C801 H804 0.950 . S
C802 C801 1.387 . S
C802 C805 1.387 . S
H803 C799 0.950 . S
H804 C801 0.950 . S
C805 C796 1.390 . S
C805 H798 0.950 . S
C805 C802 1.387 . S
C806 C807 1.387 . S
C806 H810 0.950 . S
C806 C815 1.390 . S
C807 C806 1.387 . S
C807 C809 1.387 . S
H808 C815 0.950 . S
C809 C807 1.387 . S
C809 C811 1.390 . S
C809 H813 0.950 . S
H810 C806 0.950 . S
C811 C809 1.390 . S
C811 C812 1.387 . S
C811 H814 0.950 . S
C812 C811 1.387 . S
C812 C815 1.387 . S
H813 C809 0.950 . S
H814 C811 0.950 . S
C815 C806 1.390 . S
C815 H808 0.950 . S
C815 C812 1.387 . S
C816 C817 1.387 . S
C816 H820 0.950 1_655 S
C816 C825 1.390 . S
C817 C816 1.387 . S
C817 C819 1.387 . S
H818 C825 0.950 1_455 S
C819 C817 1.387 . S
C819 C821 1.390 . S
C819 H823 0.950 . S
H820 C816 0.950 1_455 S
C821 C819 1.390 . S
C821 C822 1.387 . S
C821 H824 0.950 . S
C822 C821 1.387 . S
C822 C825 1.387 . S
H823 C819 0.950 . S
H824 C821 0.950 . S
C825 C816 1.390 . S
C825 H818 0.950 1_655 S
C825 C822 1.387 . S
C826 C827 1.387 . S
C826 H830 0.950 . S
C826 C835 1.390 . S
C827 C826 1.387 . S
C827 C829 1.387 . S
H828 C835 0.950 . S
C829 C827 1.387 . S
C829 C831 1.390 . S
C829 H833 0.950 . S
H830 C826 0.950 . S
C831 C829 1.390 . S
C831 C832 1.387 . S
C831 H834 0.950 . S
C832 C831 1.387 . S
C832 C835 1.387 . S
H833 C829 0.950 . S
H834 C831 0.950 . S
C835 C826 1.390 . S
C835 H828 0.950 . S
C835 C832 1.387 . S
C836 C837 1.387 . S
C836 H840 0.950 1_545 S
C836 C845 1.390 . S
C837 C836 1.387 . S
C837 C839 1.387 . S
H838 C845 0.950 1_565 S
C839 C837 1.387 . S
C839 C841 1.390 . S
C839 H843 0.950 . S
H840 C836 0.950 1_565 S
C841 C839 1.390 . S
C841 C842 1.387 . S
C841 H844 0.950 . S
C842 C841 1.387 . S
C842 C845 1.387 . S
H843 C839 0.950 . S
H844 C841 0.950 . S
C845 C836 1.390 . S
C845 H838 0.950 1_545 S
C845 C842 1.387 . S
C846 C847 1.387 . S
C846 H850 0.950 1_565 S
C846 C855 1.390 . S
C847 C846 1.387 . S
C847 C849 1.387 . S
H848 C855 0.950 1_545 S
C849 C847 1.387 . S
C849 C851 1.390 . S
C849 H853 0.950 . S
H850 C846 0.950 1_545 S
C851 C849 1.390 . S
C851 C852 1.387 . S
C851 H854 0.950 . S
C852 C851 1.387 . S
C852 C855 1.387 . S
H853 C849 0.950 . S
H854 C851 0.950 . S
C855 C846 1.390 . S
C855 H848 0.950 1_565 S
C855 C852 1.387 . S
C856 C857 1.387 . S
C856 H860 0.950 . S
C856 C865 1.390 . S
C857 C856 1.387 . S
C857 C859 1.387 . S
H858 C865 0.950 . S
C859 C857 1.387 . S
C859 C861 1.390 . S
C859 H863 0.950 . S
H860 C856 0.950 . S
C861 C859 1.390 . S
C861 C862 1.387 . S
C861 H864 0.950 . S
C862 C861 1.387 . S
C862 C865 1.387 . S
H863 C859 0.950 . S
H864 C861 0.950 . S
C865 C856 1.390 . S
C865 H858 0.950 . S
C865 C862 1.387 . S
C866 C867 1.387 . S
C866 H870 0.950 . S
C866 C875 1.390 . S
C867 C866 1.387 . S
C867 C869 1.387 . S
H868 C875 0.950 . S
C869 C867 1.387 . S
C869 C871 1.390 . S
C869 H873 0.950 . S
H870 C866 0.950 . S
C871 C869 1.390 . S
C871 C872 1.387 . S
C871 H874 0.950 . S
C872 C871 1.387 . S
C872 C875 1.387 . S
H873 C869 0.950 . S
H874 C871 0.950 . S
C875 C866 1.390 . S
C875 H868 0.950 . S
C875 C872 1.387 . S
C876 C877 1.387 . S
C876 H880 0.950 . S
C876 C885 1.390 . S
C877 C876 1.387 . S
C877 C879 1.387 . S
H878 C885 0.950 . S
C879 C877 1.387 . S
C879 C881 1.390 . S
C879 H883 0.950 . S
H880 C876 0.950 . S
C881 C879 1.390 . S
C881 C882 1.387 . S
C881 H884 0.950 . S
C882 C881 1.387 . S
C882 C885 1.387 . S
H883 C879 0.950 . S
H884 C881 0.950 . S
C885 C876 1.390 . S
C885 H878 0.950 . S
C885 C882 1.387 . S
C886 C887 1.387 . S
C886 H890 0.950 . S
C886 C895 1.390 . S
C887 C886 1.387 . S
C887 C889 1.387 1_455 S
H888 C895 0.950 . S
C889 C887 1.387 1_655 S
C889 C891 1.390 . S
C889 H893 0.950 . S
H890 C886 0.950 . S
C891 C889 1.390 . S
C891 C892 1.387 1_655 S
C891 H894 0.950 . S
C892 C891 1.387 1_455 S
C892 C895 1.387 . S
H893 C889 0.950 . S
H894 C891 0.950 . S
C895 C886 1.390 . S
C895 H888 0.950 . S
C895 C892 1.387 . S
C896 C897 1.387 . S
C896 H900 0.950 . S
C896 C905 1.390 . S
C897 C896 1.387 . S
C897 C899 1.387 . S
H898 C905 0.950 . S
C899 C897 1.387 . S
C899 C901 1.390 . S
C899 H903 0.950 . S
H900 C896 0.950 . S
C901 C899 1.390 . S
C901 C902 1.387 . S
C901 H904 0.950 . S
C902 C901 1.387 . S
C902 C905 1.387 . S
H903 C899 0.950 . S
H904 C901 0.950 . S
C905 C896 1.390 . S
C905 H898 0.950 . S
C905 C902 1.387 . S
C906 C907 1.387 1_655 S
C906 H910 0.950 . S
C906 C915 1.390 . S
C907 C906 1.387 1_455 S
C907 C909 1.387 . S
H908 C915 0.950 . S
C909 C907 1.387 . S
C909 C911 1.390 . S
C909 H913 0.950 . S
H910 C906 0.950 . S
C911 C909 1.390 . S
C911 C912 1.387 . S
C911 H914 0.950 . S
C912 C911 1.387 . S
C912 C915 1.387 1_455 S
H913 C909 0.950 . S
H914 C911 0.950 . S
C915 C906 1.390 . S
C915 H908 0.950 . S
C915 C912 1.387 1_655 S
C916 C917 1.387 . S
C916 H920 0.950 . S
C916 C925 1.390 . S
C917 C916 1.387 . S
C917 C919 1.387 . S
H918 C925 0.950 . S
C919 C917 1.387 . S
C919 C921 1.390 . S
C919 H923 0.950 . S
H920 C916 0.950 . S
C921 C919 1.390 . S
C921 C922 1.387 . S
C921 H924 0.950 . S
C922 C921 1.387 . S
C922 C925 1.387 . S
H923 C919 0.950 . S
H924 C921 0.950 . S
C925 C916 1.390 . S
C925 H918 0.950 . S
C925 C922 1.387 . S
C926 C927 1.387 . S
C926 H930 0.950 . S
C926 C935 1.390 . S
C927 C926 1.387 . S
C927 C929 1.387 . S
H928 C935 0.948 . S
C929 C927 1.387 . S
C929 C931 1.390 . S
C929 H933 0.950 . S
H930 C926 0.950 . S
C931 C929 1.390 . S
C931 C932 1.387 . S
C931 H934 0.950 . S
C932 C931 1.387 . S
C932 C935 1.387 . S
H933 C929 0.950 . S
H934 C931 0.950 . S
C935 C926 1.390 . S
C935 H928 0.948 . S
C935 C932 1.387 . S
C397 C251 1.300 . S
C402 C6 1.315 . S
C407 C27 1.318 . S
C412 C207 1.302 . S
C417 C49 1.315 . S
C422 C229 1.300 . S
C427 C335 1.300 . S
C432 C51 1.318 . S
C437 C9 1.318 . S
C442 C356 1.300 . S
C447 C29 1.318 . S
C452 C378 1.300 . S
C457 C314 1.298 . S
C462 C75 1.315 . S
C467 C95 1.316 . S
C472 C268 1.302 . S
C477 C117 1.318 . S
C482 C292 1.300 . S
C487 C139 1.300 . S
C492 C115 1.315 . S
C497 C72 1.318 . S
C502 C161 1.301 . S
C507 C183 1.298 . S
C512 C93 1.316 . S
C517 C383 1.299 . S
C522 C138 1.315 . S
C527 C338 1.298 . S
C532 C160 1.315 . S
C537 C361 1.300 . S
C542 C182 1.318 . S
C547 C71 1.300 . S
C552 C185 1.318 . S
C557 C92 1.299 . S
C562 C141 1.315 . S
C567 C163 1.316 . S
C572 C114 1.298 . S
C577 C50 1.302 . S
C582 C205 1.317 . S
C587 C4 1.299 . S
C592 C227 1.315 . S
C597 C249 1.318 . S
C602 C28 1.299 . S
C607 C247 1.317 . S
C612 C271 1.299 . S
C617 C203 1.318 . S
C622 C294 1.300 . S
C627 C225 1.317 . S
C632 C316 1.302 . S
C637 C270 1.317 . S
C642 C119 1.302 . S
C647 C291 1.316 . S
C652 C74 1.298 . S
C657 C313 1.318 . S
C662 C97 1.300 . S
C667 C315 1.318 . S
C672 C202 1.300 . S
C677 C273 1.315 . S
C682 C224 1.298 . S
C687 C293 1.315 . S
C692 C246 1.298 . S
C697 C339 1.317 . S
C702 C180 1.302 . S
C707 C359 1.318 . S
C712 C136 1.302 . S
C717 C158 1.300 . S
C722 C381 1.318 . S
C727 C7 1.300 . S
C732 C379 1.318 . S
C737 C30 1.301 . S
C742 C336 1.318 . S
C747 C357 1.317 . S
C752 C52 1.302 . S
C757 C159 1.516 . S
C762 C8 1.516 . S
C767 C181 1.517 . S
C772 C31 1.517 . S
C777 C137 1.517 . S
C782 C53 1.517 . S
C787 C295 1.517 1_554 S
C792 C48 1.517 . S
C797 C5 1.517 . S
C802 C317 1.517 1_554 S
C807 C26 1.516 . S
C812 C272 1.516 1_554 S
C817 C70 1.516 . S
C822 C360 1.516 . S
C827 C94 1.517 . S
C832 C382 1.517 . S
C837 C116 1.516 . S
C842 C337 1.516 . S
C847 C118 1.516 . S
C852 C226 1.516 1_556 S
C857 C248 1.517 1_556 S
C862 C73 1.517 . S
C867 C96 1.516 . S
C872 C204 1.516 1_556 S
C877 C140 1.516 1_545 S
C882 C290 1.516 . S
C887 C162 1.516 . S
C892 C312 1.516 1_455 S
C897 C184 1.517 . S
C902 C269 1.517 . S
C907 C250 1.517 . S
C912 C358 1.517 1_455 S
C917 C380 1.516 . S
C922 C206 1.516 . S
C927 C334 1.516 . S
C932 C228 1.516 1_545 S
