# Generated by pormake.
# Topology wip, (6)-cn, num edge types: 1
# Building blocks:
#     Node 0, Type 0, BuildingBlock: BETFAJ_clean_sbu_0, # of connection points: 6
#     Node 1, Type 0, BuildingBlock: BETFAJ_clean_sbu_0, # of connection points: 6
#     Node 2, Type 0, BuildingBlock: BETFAJ_clean_sbu_0, # of connection points: 6
#     Node 3, Type 0, BuildingBlock: BETFAJ_clean_sbu_0, # of connection points: 6
#     Node 4, Type 0, BuildingBlock: BETFAJ_clean_sbu_0, # of connection points: 6
#     Node 5, Type 0, BuildingBlock: BETFAJ_clean_sbu_0, # of connection points: 6
#     Node 6, Type 0, BuildingBlock: BETFAJ_clean_sbu_0, # of connection points: 6
#     Node 7, Type 0, BuildingBlock: BETFAJ_clean_sbu_0, # of connection points: 6
#     Node 8, Type 0, BuildingBlock: BETFAJ_clean_sbu_0, # of connection points: 6
#     Node 9, Type 0, BuildingBlock: BETFAJ_clean_sbu_0, # of connection points: 6
#     Node 10, Type 0, BuildingBlock: BETFAJ_clean_sbu_0, # of connection points: 6
#     Node 11, Type 0, BuildingBlock: BETFAJ_clean_sbu_0, # of connection points: 6
#     Node 12, Type 0, BuildingBlock: BETFAJ_clean_sbu_0, # of connection points: 6
#     Node 13, Type 0, BuildingBlock: BETFAJ_clean_sbu_0, # of connection points: 6
#     Node 14, Type 0, BuildingBlock: BETFAJ_clean_sbu_0, # of connection points: 6
#     Node 15, Type 0, BuildingBlock: BETFAJ_clean_sbu_0, # of connection points: 6
#     Node 16, Type 0, BuildingBlock: BETFAJ_clean_sbu_0, # of connection points: 6
#     Node 17, Type 0, BuildingBlock: BETFAJ_clean_sbu_0, # of connection points: 6
#     Node 18, Type 0, BuildingBlock: BETFAJ_clean_sbu_0, # of connection points: 6
#     Node 19, Type 0, BuildingBlock: BETFAJ_clean_sbu_0, # of connection points: 6
#     Node 20, Type 0, BuildingBlock: BETFAJ_clean_sbu_0, # of connection points: 6
#     Node 21, Type 0, BuildingBlock: BETFAJ_clean_sbu_0, # of connection points: 6
#     Node 22, Type 0, BuildingBlock: BETFAJ_clean_sbu_0, # of connection points: 6
#     Node 23, Type 0, BuildingBlock: BETFAJ_clean_sbu_0, # of connection points: 6
#     Node 24, Type 0, BuildingBlock: BETFAJ_clean_sbu_0, # of connection points: 6
#     Node 25, Type 0, BuildingBlock: BETFAJ_clean_sbu_0, # of connection points: 6
#     Node 26, Type 0, BuildingBlock: BETFAJ_clean_sbu_0, # of connection points: 6
#     Node 27, Type 0, BuildingBlock: BETFAJ_clean_sbu_0, # of connection points: 6
#     Node 28, Type 0, BuildingBlock: BETFAJ_clean_sbu_0, # of connection points: 6
#     Node 29, Type 0, BuildingBlock: BETFAJ_clean_sbu_0, # of connection points: 6
#     Node 30, Type 0, BuildingBlock: BETFAJ_clean_sbu_0, # of connection points: 6
#     Node 31, Type 0, BuildingBlock: BETFAJ_clean_sbu_0, # of connection points: 6
#     Edge 32, Type (0, 0), BuildingBlock: XIVTED_clean_linker_0, # of connection points: 2
#     Edge 33, Type (0, 0), BuildingBlock: XIVTED_clean_linker_0, # of connection points: 2
#     Edge 34, Type (0, 0), BuildingBlock: XIVTED_clean_linker_0, # of connection points: 2
#     Edge 35, Type (0, 0), BuildingBlock: XIVTED_clean_linker_0, # of connection points: 2
#     Edge 36, Type (0, 0), BuildingBlock: XIVTED_clean_linker_0, # of connection points: 2
#     Edge 37, Type (0, 0), BuildingBlock: XIVTED_clean_linker_0, # of connection points: 2
#     Edge 38, Type (0, 0), BuildingBlock: XIVTED_clean_linker_0, # of connection points: 2
#     Edge 39, Type (0, 0), BuildingBlock: XIVTED_clean_linker_0, # of connection points: 2
#     Edge 40, Type (0, 0), BuildingBlock: XIVTED_clean_linker_0, # of connection points: 2
#     Edge 41, Type (0, 0), BuildingBlock: XIVTED_clean_linker_0, # of connection points: 2
#     Edge 42, Type (0, 0), BuildingBlock: XIVTED_clean_linker_0, # of connection points: 2
#     Edge 43, Type (0, 0), BuildingBlock: XIVTED_clean_linker_0, # of connection points: 2
#     Edge 44, Type (0, 0), BuildingBlock: XIVTED_clean_linker_0, # of connection points: 2
#     Edge 45, Type (0, 0), BuildingBlock: XIVTED_clean_linker_0, # of connection points: 2
#     Edge 46, Type (0, 0), BuildingBlock: XIVTED_clean_linker_0, # of connection points: 2
#     Edge 47, Type (0, 0), BuildingBlock: XIVTED_clean_linker_0, # of connection points: 2
#     Edge 48, Type (0, 0), BuildingBlock: XIVTED_clean_linker_0, # of connection points: 2
#     Edge 49, Type (0, 0), BuildingBlock: XIVTED_clean_linker_0, # of connection points: 2
#     Edge 50, Type (0, 0), BuildingBlock: XIVTED_clean_linker_0, # of connection points: 2
#     Edge 51, Type (0, 0), BuildingBlock: XIVTED_clean_linker_0, # of connection points: 2
#     Edge 52, Type (0, 0), BuildingBlock: XIVTED_clean_linker_0, # of connection points: 2
#     Edge 53, Type (0, 0), BuildingBlock: XIVTED_clean_linker_0, # of connection points: 2
#     Edge 54, Type (0, 0), BuildingBlock: XIVTED_clean_linker_0, # of connection points: 2
#     Edge 55, Type (0, 0), BuildingBlock: XIVTED_clean_linker_0, # of connection points: 2
#     Edge 56, Type (0, 0), BuildingBlock: XIVTED_clean_linker_0, # of connection points: 2
#     Edge 57, Type (0, 0), BuildingBlock: XIVTED_clean_linker_0, # of connection points: 2
#     Edge 58, Type (0, 0), BuildingBlock: XIVTED_clean_linker_0, # of connection points: 2
#     Edge 59, Type (0, 0), BuildingBlock: XIVTED_clean_linker_0, # of connection points: 2
#     Edge 60, Type (0, 0), BuildingBlock: XIVTED_clean_linker_0, # of connection points: 2
#     Edge 61, Type (0, 0), BuildingBlock: XIVTED_clean_linker_0, # of connection points: 2
#     Edge 62, Type (0, 0), BuildingBlock: XIVTED_clean_linker_0, # of connection points: 2
#     Edge 63, Type (0, 0), BuildingBlock: XIVTED_clean_linker_0, # of connection points: 2
#     Edge 64, Type (0, 0), BuildingBlock: XIVTED_clean_linker_0, # of connection points: 2
#     Edge 65, Type (0, 0), BuildingBlock: XIVTED_clean_linker_0, # of connection points: 2
#     Edge 66, Type (0, 0), BuildingBlock: XIVTED_clean_linker_0, # of connection points: 2
#     Edge 67, Type (0, 0), BuildingBlock: XIVTED_clean_linker_0, # of connection points: 2
#     Edge 68, Type (0, 0), BuildingBlock: XIVTED_clean_linker_0, # of connection points: 2
#     Edge 69, Type (0, 0), BuildingBlock: XIVTED_clean_linker_0, # of connection points: 2
#     Edge 70, Type (0, 0), BuildingBlock: XIVTED_clean_linker_0, # of connection points: 2
#     Edge 71, Type (0, 0), BuildingBlock: XIVTED_clean_linker_0, # of connection points: 2
#     Edge 72, Type (0, 0), BuildingBlock: XIVTED_clean_linker_0, # of connection points: 2
#     Edge 73, Type (0, 0), BuildingBlock: XIVTED_clean_linker_0, # of connection points: 2
#     Edge 74, Type (0, 0), BuildingBlock: XIVTED_clean_linker_0, # of connection points: 2
#     Edge 75, Type (0, 0), BuildingBlock: XIVTED_clean_linker_0, # of connection points: 2
#     Edge 76, Type (0, 0), BuildingBlock: XIVTED_clean_linker_0, # of connection points: 2
#     Edge 77, Type (0, 0), BuildingBlock: XIVTED_clean_linker_0, # of connection points: 2
#     Edge 78, Type (0, 0), BuildingBlock: XIVTED_clean_linker_0, # of connection points: 2
#     Edge 79, Type (0, 0), BuildingBlock: XIVTED_clean_linker_0, # of connection points: 2
#     Edge 80, Type (0, 0), BuildingBlock: XIVTED_clean_linker_0, # of connection points: 2
#     Edge 81, Type (0, 0), BuildingBlock: XIVTED_clean_linker_0, # of connection points: 2
#     Edge 82, Type (0, 0), BuildingBlock: XIVTED_clean_linker_0, # of connection points: 2
#     Edge 83, Type (0, 0), BuildingBlock: XIVTED_clean_linker_0, # of connection points: 2
#     Edge 84, Type (0, 0), BuildingBlock: XIVTED_clean_linker_0, # of connection points: 2
#     Edge 85, Type (0, 0), BuildingBlock: XIVTED_clean_linker_0, # of connection points: 2
#     Edge 86, Type (0, 0), BuildingBlock: XIVTED_clean_linker_0, # of connection points: 2
#     Edge 87, Type (0, 0), BuildingBlock: XIVTED_clean_linker_0, # of connection points: 2
#     Edge 88, Type (0, 0), BuildingBlock: XIVTED_clean_linker_0, # of connection points: 2
#     Edge 89, Type (0, 0), BuildingBlock: XIVTED_clean_linker_0, # of connection points: 2
#     Edge 90, Type (0, 0), BuildingBlock: XIVTED_clean_linker_0, # of connection points: 2
#     Edge 91, Type (0, 0), BuildingBlock: XIVTED_clean_linker_0, # of connection points: 2
#     Edge 92, Type (0, 0), BuildingBlock: XIVTED_clean_linker_0, # of connection points: 2
#     Edge 93, Type (0, 0), BuildingBlock: XIVTED_clean_linker_0, # of connection points: 2
#     Edge 94, Type (0, 0), BuildingBlock: XIVTED_clean_linker_0, # of connection points: 2
#     Edge 95, Type (0, 0), BuildingBlock: XIVTED_clean_linker_0, # of connection points: 2
#     Edge 96, Type (0, 0), BuildingBlock: XIVTED_clean_linker_0, # of connection points: 2
#     Edge 97, Type (0, 0), BuildingBlock: XIVTED_clean_linker_0, # of connection points: 2
#     Edge 98, Type (0, 0), BuildingBlock: XIVTED_clean_linker_0, # of connection points: 2
#     Edge 99, Type (0, 0), BuildingBlock: XIVTED_clean_linker_0, # of connection points: 2
#     Edge 100, Type (0, 0), BuildingBlock: XIVTED_clean_linker_0, # of connection points: 2
#     Edge 101, Type (0, 0), BuildingBlock: XIVTED_clean_linker_0, # of connection points: 2
#     Edge 102, Type (0, 0), BuildingBlock: XIVTED_clean_linker_0, # of connection points: 2
#     Edge 103, Type (0, 0), BuildingBlock: XIVTED_clean_linker_0, # of connection points: 2
#     Edge 104, Type (0, 0), BuildingBlock: XIVTED_clean_linker_0, # of connection points: 2
#     Edge 105, Type (0, 0), BuildingBlock: XIVTED_clean_linker_0, # of connection points: 2
#     Edge 106, Type (0, 0), BuildingBlock: XIVTED_clean_linker_0, # of connection points: 2
#     Edge 107, Type (0, 0), BuildingBlock: XIVTED_clean_linker_0, # of connection points: 2
#     Edge 108, Type (0, 0), BuildingBlock: XIVTED_clean_linker_0, # of connection points: 2
#     Edge 109, Type (0, 0), BuildingBlock: XIVTED_clean_linker_0, # of connection points: 2
#     Edge 110, Type (0, 0), BuildingBlock: XIVTED_clean_linker_0, # of connection points: 2
#     Edge 111, Type (0, 0), BuildingBlock: XIVTED_clean_linker_0, # of connection points: 2
#     Edge 112, Type (0, 0), BuildingBlock: XIVTED_clean_linker_0, # of connection points: 2
#     Edge 113, Type (0, 0), BuildingBlock: XIVTED_clean_linker_0, # of connection points: 2
#     Edge 114, Type (0, 0), BuildingBlock: XIVTED_clean_linker_0, # of connection points: 2
#     Edge 115, Type (0, 0), BuildingBlock: XIVTED_clean_linker_0, # of connection points: 2
#     Edge 116, Type (0, 0), BuildingBlock: XIVTED_clean_linker_0, # of connection points: 2
#     Edge 117, Type (0, 0), BuildingBlock: XIVTED_clean_linker_0, # of connection points: 2
#     Edge 118, Type (0, 0), BuildingBlock: XIVTED_clean_linker_0, # of connection points: 2
#     Edge 119, Type (0, 0), BuildingBlock: XIVTED_clean_linker_0, # of connection points: 2
#     Edge 120, Type (0, 0), BuildingBlock: XIVTED_clean_linker_0, # of connection points: 2
#     Edge 121, Type (0, 0), BuildingBlock: XIVTED_clean_linker_0, # of connection points: 2
#     Edge 122, Type (0, 0), BuildingBlock: XIVTED_clean_linker_0, # of connection points: 2
#     Edge 123, Type (0, 0), BuildingBlock: XIVTED_clean_linker_0, # of connection points: 2
#     Edge 124, Type (0, 0), BuildingBlock: XIVTED_clean_linker_0, # of connection points: 2
#     Edge 125, Type (0, 0), BuildingBlock: XIVTED_clean_linker_0, # of connection points: 2
#     Edge 126, Type (0, 0), BuildingBlock: XIVTED_clean_linker_0, # of connection points: 2
#     Edge 127, Type (0, 0), BuildingBlock: XIVTED_clean_linker_0, # of connection points: 2
# Relax obj value: 0.347
# Max RMSD: 0.295
# Mean RMSD: 0.231
data_MOF--net-wip--node1-BETFAJ_clean_sbu_0--edge1-XIVTED_clean_linker_0
_symmetry_space_group_name_H-M    P1
_symmetry_Int_Tables_number       1
_symmetry_cell_setting            triclinic
loop_
_symmetry_equiv_pos_as_xyz
'x, y, z'
_cell_length_a     66.207935
_cell_length_b     62.763413
_cell_length_c     35.426904
_cell_angle_alpha  94.428149
_cell_angle_beta   85.786946
_cell_angle_gamma 88.393433
loop_
_atom_site_label
_atom_site_type_symbol
_atom_site_fract_x
_atom_site_fract_y
_atom_site_fract_z
_atom_type_partial_charge
Sm0 Sm 0.05231 0.39417 0.12119 0.0
Sm1 Sm 0.07589 0.43156 0.07689 0.0
C2 C 0.04541 0.36179 0.16354 0.0
C3 C 0.03803 0.35987 0.20371 0.0
C4 C 0.05165 0.35354 0.22969 0.0
C5 C 0.04543 0.35311 0.26823 0.0
C6 C 0.02535 0.35888 0.2818 0.0
C7 C 0.0116 0.36471 0.25556 0.0
C8 C 0.01786 0.36523 0.21702 0.0
C9 C 0.02792 0.43052 0.12175 0.0
C10 C 0.06988 0.43729 0.16889 0.0
C11 C 0.08939 0.45952 0.02867 0.0
C12 C 0.0869 0.46942 0.992 0.0
C13 C 0.08372 0.45722 0.95798 0.0
C14 C 0.08345 0.46686 0.92326 0.0
C15 C 0.08638 0.48899 0.92144 0.0
C16 C 0.08933 0.50108 0.95579 0.0
C17 C 0.08957 0.49147 0.99033 0.0
C18 C 0.09945 0.40144 0.10921 0.0
C19 C 0.04682 0.39647 0.03094 0.0
O20 O 0.06311 0.37024 0.15842 0.0
O21 O 0.03243 0.36836 0.1403 0.0
O22 O 0.04516 0.42673 0.10458 0.0
O23 O 0.02238 0.41347 0.13781 0.0
O24 O 0.06426 0.41707 0.1684 0.0
O25 O 0.07298 0.44761 0.13768 0.0
O26 O 0.07639 0.46486 0.05798 0.0
O27 O 0.09586 0.43948 0.02709 0.0
O28 O 0.08341 0.39778 0.09244 0.0
O29 O 0.10462 0.42094 0.10456 0.0
O30 O 0.05687 0.41443 0.03229 0.0
O31 O 0.04481 0.38424 0.05983 0.0
H32 H 0.06731 0.34933 0.22031 0.0
H33 H 0.05653 0.34879 0.28752 0.0
H34 H 0.99594 0.36889 0.26478 0.0
H35 H 0.00693 0.37012 0.19782 0.0
H36 H 0.08168 0.44016 0.95809 0.0
H37 H 0.08085 0.45691 0.89785 0.0
H38 H 0.09202 0.51802 0.95601 0.0
H39 H 0.09235 0.50129 1.01582 0.0
Sm40 Sm 0.83026 0.81269 0.37297 0.0
Sm41 Sm 0.79924 0.84 0.33515 0.0
C42 C 0.85666 0.79721 0.41786 0.0
C43 C 0.85665 0.79086 0.45734 0.0
C44 C 0.84712 0.80368 0.48824 0.0
C45 C 0.84717 0.79717 0.52525 0.0
C46 C 0.85676 0.77768 0.53225 0.0
C47 C 0.86624 0.76491 0.50113 0.0
C48 C 0.86619 0.77144 0.46421 0.0
C49 C 0.79553 0.79161 0.35732 0.0
C50 C 0.79453 0.84228 0.42644 0.0
C51 C 0.77218 0.85646 0.29233 0.0
C52 C 0.76283 0.85416 0.25535 0.0
C53 C 0.77417 0.84807 0.22086 0.0
C54 C 0.76491 0.84728 0.18625 0.0
C55 C 0.74408 0.85255 0.18532 0.0
C56 C 0.73287 0.8585 0.22008 0.0
C57 C 0.74211 0.85928 0.25449 0.0
C58 C 0.83248 0.86087 0.36075 0.0
C59 C 0.83138 0.80657 0.28319 0.0
O60 O 0.8543 0.81756 0.41317 0.0
O61 O 0.84672 0.78516 0.39441 0.0
O62 O 0.79631 0.81099 0.36937 0.0
O63 O 0.8137 0.78314 0.35194 0.0
O64 O 0.81236 0.83193 0.42392 0.0
O65 O 0.7848 0.84568 0.39606 0.0
O66 O 0.76766 0.8426 0.31716 0.0
O67 O 0.79102 0.86225 0.29235 0.0
O68 O 0.8327 0.84261 0.34313 0.0
O69 O 0.8143 0.86944 0.36263 0.0
O70 O 0.81303 0.81564 0.28766 0.0
O71 O 0.84336 0.8065 0.3114 0.0
H72 H 0.83965 0.81875 0.48384 0.0
H73 H 0.83992 0.80756 0.54843 0.0
H74 H 0.8735 0.74967 0.50518 0.0
H75 H 0.87355 0.76122 0.44087 0.0
H76 H 0.79019 0.84403 0.22061 0.0
H77 H 0.77405 0.84237 0.16028 0.0
H78 H 0.71694 0.86303 0.22076 0.0
H79 H 0.73305 0.86423 0.28059 0.0
Sm80 Sm 0.43255 0.59108 0.65913 0.0
Sm81 Sm 0.40877 0.55574 0.60888 0.0
C82 C 0.43929 0.6219 0.71175 0.0
C83 C 0.44457 0.62216 0.75167 0.0
C84 C 0.43516 0.60858 0.77688 0.0
C85 C 0.44067 0.60852 0.81426 0.0
C86 C 0.45572 0.62202 0.82737 0.0
C87 C 0.46502 0.63569 0.80207 0.0
C88 C 0.45949 0.63573 0.76463 0.0
C89 C 0.45807 0.55641 0.63705 0.0
C90 C 0.41629 0.54623 0.69525 0.0
C91 C 0.39488 0.52966 0.55419 0.0
C92 C 0.39793 0.52113 0.51329 0.0
C93 C 0.41683 0.51313 0.49651 0.0
C94 C 0.41878 0.50383 0.45878 0.0
C95 C 0.4019 0.50216 0.43657 0.0
C96 C 0.3831 0.5106 0.4534 0.0
C97 C 0.38117 0.51988 0.49105 0.0
C98 C 0.38538 0.58347 0.66124 0.0
C99 C 0.43877 0.59119 0.56738 0.0
O100 O 0.42123 0.61548 0.70482 0.0
O101 O 0.45325 0.61436 0.68573 0.0
O102 O 0.43999 0.55884 0.6285 0.0
O103 O 0.46331 0.57326 0.6571 0.0
O104 O 0.42204 0.5663 0.70091 0.0
O105 O 0.41246 0.53731 0.6614 0.0
O106 O 0.40765 0.52343 0.57821 0.0
O107 O 0.38852 0.54965 0.56168 0.0
O108 O 0.40087 0.58838 0.64051 0.0
O109 O 0.38058 0.56417 0.6503 0.0
O110 O 0.42835 0.5735 0.56529 0.0
O111 O 0.44043 0.60284 0.59982 0.0
H112 H 0.42356 0.59794 0.76771 0.0
H113 H 0.43296 0.59801 0.83299 0.0
H114 H 0.47684 0.6461 0.81095 0.0
H115 H 0.46702 0.64626 0.74567 0.0
H116 H 0.4301 0.51386 0.51263 0.0
H117 H 0.43364 0.49796 0.44705 0.0
H118 H 0.36962 0.50951 0.4379 0.0
H119 H 0.36636 0.52574 0.50312 0.0
Sm120 Sm 0.67717 0.18152 0.84057 0.0
Sm121 Sm 0.70256 0.14513 0.87406 0.0
C122 C 0.66189 0.21321 0.80546 0.0
C123 C 0.66388 0.22202 0.76829 0.0
C124 C 0.6828 0.22293 0.74791 0.0
C125 C 0.68412 0.23116 0.7123 0.0
C126 C 0.66653 0.23831 0.69646 0.0
C127 C 0.64763 0.23709 0.71679 0.0
C128 C 0.64635 0.22907 0.75248 0.0
C129 C 0.65476 0.14949 0.86874 0.0
C130 C 0.70702 0.14813 0.78253 0.0
C131 C 0.71486 0.11235 0.91036 0.0
C132 C 0.7239 0.10966 0.94628 0.0
C133 C 0.73252 0.08981 0.95302 0.0
C134 C 0.74196 0.08737 0.98651 0.0
C135 C 0.74293 0.10479 1.01376 0.0
C136 C 0.73411 0.12465 1.00682 0.0
C137 C 0.72475 0.12707 0.9733 0.0
C138 C 0.72355 0.18122 0.85954 0.0
C139 C 0.68066 0.18489 0.93363 0.0
O140 O 0.6771 0.21542 0.82696 0.0
O141 O 0.65388 0.19442 0.80592 0.0
O142 O 0.67214 0.14679 0.85104 0.0
O143 O 0.6476 0.16839 0.86373 0.0
O144 O 0.69746 0.16702 0.78844 0.0
O145 O 0.70815 0.13495 0.80986 0.0
O146 O 0.69606 0.11965 0.91291 0.0
O147 O 0.72634 0.12125 0.88487 0.0
O148 O 0.70532 0.18023 0.87135 0.0
O149 O 0.73209 0.16225 0.8581 0.0
O150 O 0.69027 0.16582 0.92924 0.0
O151 O 0.67526 0.19492 0.90395 0.0
H152 H 0.69649 0.21727 0.75943 0.0
H153 H 0.69884 0.23177 0.69701 0.0
H154 H 0.63389 0.24271 0.7054 0.0
H155 H 0.63163 0.22836 0.76779 0.0
H156 H 0.73213 0.07627 0.9322 0.0
H157 H 0.74879 0.07194 0.99077 0.0
H158 H 0.73428 0.1383 0.02744 0.0
H159 H 0.71827 0.14255 0.96836 0.0
Sm160 Sm 0.05687 0.5989 0.63529 0.0
Sm161 Sm 0.08023 0.56459 0.58226 0.0
C162 C 0.03674 0.62428 0.68924 0.0
C163 C 0.02976 0.62475 0.72963 0.0
C164 C 0.03267 0.607 0.75061 0.0
C165 C 0.02666 0.6082 0.78949 0.0
C166 C 0.01766 0.62719 0.80795 0.0
C167 C 0.01456 0.64478 0.78646 0.0
C168 C 0.02059 0.64356 0.74772 0.0
C169 C 0.08759 0.61358 0.58813 0.0
C170 C 0.08367 0.56246 0.67502 0.0
C171 C 0.10483 0.54006 0.53387 0.0
C172 C 0.10201 0.52878 0.4966 0.0
C173 C 0.11777 0.5275 0.46771 0.0
C174 C 0.11478 0.51783 0.43163 0.0
C175 C 0.09598 0.50922 0.42388 0.0
C176 C 0.08026 0.51054 0.45299 0.0
C177 C 0.08321 0.5203 0.48888 0.0
C178 C 0.04165 0.5537 0.60454 0.0
C179 C 0.04416 0.59313 0.54914 0.0
O180 O 0.02783 0.61107 0.66577 0.0
O181 O 0.05638 0.62476 0.6816 0.0
O182 O 0.0888 0.5969 0.6057 0.0
O183 O 0.07024 0.62341 0.59668 0.0
O184 O 0.0712 0.57941 0.67953 0.0
O185 O 0.09047 0.55422 0.64051 0.0
O186 O 0.10432 0.56095 0.5348 0.0
O187 O 0.09484 0.53292 0.56332 0.0
O188 O 0.05372 0.5634 0.6251 0.0
O189 O 0.05004 0.54935 0.57042 0.0
O190 O 0.06233 0.58372 0.54101 0.0
O191 O 0.03689 0.59753 0.58474 0.0
H192 H 0.03975 0.59233 0.73703 0.0
H193 H 0.02945 0.59442 0.8052 0.0
H194 H 0.00736 0.65951 0.79953 0.0
H195 H 0.0182 0.6574 0.73188 0.0
H196 H 0.13233 0.53412 0.47297 0.0
H197 H 0.12724 0.51694 0.40991 0.0
H198 H 0.0655 0.50439 0.44783 0.0
H199 H 0.07068 0.52142 0.51048 0.0
Sm200 Sm 0.65171 0.80298 0.89076 0.0
Sm201 Sm 0.68129 0.82872 0.84402 0.0
C202 C 0.63189 0.78045 0.94089 0.0
C203 C 0.63324 0.77498 0.98043 0.0
C204 C 0.64977 0.78096 1.00109 0.0
C205 C 0.65082 0.77537 0.03853 0.0
C206 C 0.63533 0.76372 0.05602 0.0
C207 C 0.61884 0.75781 0.03498 0.0
C208 C 0.61783 0.76339 0.99765 0.0
C209 C 0.63361 0.828 0.84038 0.0
C210 C 0.67765 0.83929 0.93718 0.0
C211 C 0.70036 0.85706 0.80382 0.0
C212 C 0.70875 0.85791 0.76438 0.0
C213 C 0.70162 0.84463 0.73488 0.0
C214 C 0.71014 0.84518 0.69765 0.0
C215 C 0.72603 0.85891 0.68933 0.0
C216 C 0.73299 0.87229 0.71903 0.0
C217 C 0.7244 0.87179 0.75621 0.0
C218 C 0.69816 0.79179 0.86668 0.0
C219 C 0.66295 0.78612 0.8035 0.0
O220 O 0.64617 0.7722 0.91598 0.0
O221 O 0.62703 0.8004 0.93604 0.0
O222 O 0.6479 0.83362 0.86063 0.0
O223 O 0.62748 0.80948 0.8491 0.0
O224 O 0.66327 0.82519 0.93858 0.0
O225 O 0.68651 0.84417 0.90433 0.0
O226 O 0.68064 0.85655 0.80912 0.0
O227 O 0.70968 0.84393 0.82414 0.0
O228 O 0.68582 0.80446 0.8867 0.0
O229 O 0.70214 0.79859 0.83322 0.0
O230 O 0.66867 0.80577 0.79811 0.0
O231 O 0.65944 0.77972 0.838 0.0
H232 H 0.66184 0.78994 0.98829 0.0
H233 H 0.66363 0.78041 0.0539 0.0
H234 H 0.6068 0.74856 0.04715 0.0
H235 H 0.605 0.75854 0.98212 0.0
H236 H 0.68963 0.83367 0.74069 0.0
H237 H 0.70461 0.83447 0.67555 0.0
H238 H 0.74504 0.88321 0.71353 0.0
H239 H 0.73008 0.88215 0.77865 0.0
Sm240 Sm 0.45382 0.40104 0.11021 0.0
Sm241 Sm 0.41938 0.42537 0.07551 0.0
C242 C 0.4825 0.38345 0.14726 0.0
C243 C 0.49185 0.38489 0.18357 0.0
C244 C 0.4853 0.40034 0.21295 0.0
C245 C 0.49367 0.40037 0.24814 0.0
C246 C 0.50868 0.38493 0.25434 0.0
C247 C 0.51551 0.36992 0.22427 0.0
C248 C 0.50714 0.36989 0.18927 0.0
C249 C 0.42424 0.37672 0.07825 0.0
C250 C 0.4203 0.42938 0.16823 0.0
C251 C 0.38984 0.43531 0.03269 0.0
C252 C 0.38895 0.44571 0.99666 0.0
C253 C 0.39268 0.4338 0.9614 0.0
C254 C 0.39392 0.44404 0.92766 0.0
C255 C 0.39137 0.46639 0.92845 0.0
C256 C 0.38658 0.47812 0.96355 0.0
C257 C 0.38534 0.46791 0.99725 0.0
C258 C 0.44803 0.45174 0.09931 0.0
C259 C 0.46135 0.40743 1.02061 0.0
O260 O 0.48579 0.39894 0.12512 0.0
O261 O 0.46389 0.37694 0.14797 0.0
O262 O 0.42131 0.39373 0.09953 0.0
O263 O 0.44341 0.3716 0.07461 0.0
O264 O 0.43902 0.4214 0.16207 0.0
O265 O 0.40797 0.42968 0.14013 0.0
O266 O 0.39889 0.41644 0.03052 0.0
O267 O 0.39442 0.44739 0.06239 0.0
O268 O 0.4517 0.43289 0.08481 0.0
O269 O 0.42949 0.45818 0.09629 0.0
O270 O 0.4423 0.41515 1.0223 0.0
O271 O 0.4699 0.4026 0.05148 0.0
H272 H 0.47352 0.41208 0.20887 0.0
H273 H 0.48797 0.41206 0.27078 0.0
H274 H 0.52729 0.35807 0.22784 0.0
H275 H 0.51242 0.35793 0.16674 0.0
H276 H 0.39525 0.41662 0.95986 0.0
H277 H 0.39766 0.43452 0.90111 0.0
H278 H 0.38405 0.4953 0.96507 0.0
H279 H 0.38205 0.4775 0.02386 0.0
Sm280 Sm 0.82614 0.17392 0.48887 0.0
Sm281 Sm 0.79762 0.14451 0.44456 0.0
C282 C 0.84225 0.20108 0.53888 0.0
C283 C 0.83812 0.21108 0.57836 0.0
C284 C 0.84375 0.2322 0.58704 0.0
C285 C 0.84052 0.24192 0.62413 0.0
C286 C 0.83157 0.23079 0.65378 0.0
C287 C 0.8258 0.20961 0.64489 0.0
C288 C 0.82899 0.1999 0.60767 0.0
C289 C 0.84617 0.14192 0.44034 0.0
C290 C 0.79267 0.14422 0.53563 0.0
C291 C 0.78159 0.11692 0.39589 0.0
C292 C 0.78463 0.11009 0.35535 0.0
C293 C 0.80035 0.1182 0.33255 0.0
C294 C 0.80143 0.11395 0.29314 0.0
C295 C 0.78657 0.10177 0.27592 0.0
C296 C 0.77136 0.09292 0.29922 0.0
C297 C 0.77043 0.09705 0.3386 0.0
C298 C 0.77954 0.1831 0.47489 0.0
C299 C 0.82376 0.18054 0.39976 0.0
O300 O 0.8305 0.20719 0.51327 0.0
O301 O 0.84696 0.18054 0.53459 0.0
O302 O 0.82964 0.13989 0.46051 0.0
O303 O 0.85397 0.15991 0.45136 0.0
O304 O 0.80494 0.16048 0.53607 0.0
O305 O 0.78912 0.13322 0.50366 0.0
O306 O 0.79589 0.11155 0.41732 0.0
O307 O 0.77472 0.1366 0.40374 0.0
O308 O 0.79743 0.17984 0.46086 0.0
O309 O 0.77036 0.16503 0.47347 0.0
O310 O 0.81474 0.16195 0.39744 0.0
O311 O 0.82744 0.19048 0.43287 0.0
H312 H 0.85086 0.24117 0.56506 0.0
H313 H 0.84545 0.25809 0.62967 0.0
H314 H 0.81861 0.20054 0.66663 0.0
H315 H 0.82437 0.18363 0.60186 0.0
H316 H 0.81134 0.12842 0.34512 0.0
H317 H 0.81351 0.12075 0.27614 0.0
H318 H 0.75948 0.08377 0.28702 0.0
H319 H 0.75809 0.09083 0.35585 0.0
Sm320 Sm 0.92678 0.57187 0.28521 0.0
Sm321 Sm 0.94857 0.60752 0.24351 0.0
C322 C 0.91288 0.54316 0.33141 0.0
C323 C 0.91574 0.53326 0.36767 0.0
C324 C 0.91123 0.51169 0.37043 0.0
C325 C 0.91202 0.50226 0.40498 0.0
C326 C 0.91738 0.51413 0.43799 0.0
C327 C 0.92217 0.53575 0.435 0.0
C328 C 0.92137 0.54519 0.4003 0.0
C329 C 0.90141 0.60062 0.25324 0.0
C330 C 0.95535 0.60521 0.33374 0.0
C331 C 0.95953 0.64114 0.20755 0.0
C332 C 0.96362 0.64311 0.16647 0.0
C333 C 0.95147 0.63277 0.14023 0.0
C334 C 0.95678 0.63236 0.10129 0.0
C335 C 0.97445 0.64211 0.08765 0.0
C336 C 0.98627 0.65297 0.11395 0.0
C337 C 0.9809 0.65343 0.153 0.0
C338 C 0.97018 0.56992 0.23566 0.0
C339 C 0.93 0.56711 0.19398 0.0
O340 O 0.92605 0.53825 0.30229 0.0
O341 O 0.90637 0.56316 0.33372 0.0
O342 O 0.91708 0.60532 0.27046 0.0
O343 O 0.89781 0.58066 0.25673 0.0
O344 O 0.94281 0.58924 0.3337 0.0
O345 O 0.95964 0.61555 0.30316 0.0
O346 O 0.94074 0.63793 0.21922 0.0
O347 O 0.9725 0.62899 0.22291 0.0
O348 O 0.95985 0.57668 0.26619 0.0
O349 O 0.97016 0.58353 0.20996 0.0
O350 O 0.93372 0.58782 0.1957 0.0
O351 O 0.92981 0.556 0.22432 0.0
H352 H 0.90662 0.50217 0.34589 0.0
H353 H 0.9079 0.48573 0.40593 0.0
H354 H 0.92664 0.54541 0.45945 0.0
H355 H 0.9249 0.56188 0.39913 0.0
H356 H 0.93812 0.62451 0.14979 0.0
H357 H 0.94714 0.62416 0.08188 0.0
H358 H 8e-05 0.66046 0.10449 0.0
H359 H 0.99061 0.66126 0.17273 0.0
Sm360 Sm 0.19536 0.15246 1.02087 0.0
Sm361 Sm 0.1655 0.18047 0.98204 0.0
C362 C 0.22149 0.13506 0.06439 0.0
C363 C 0.23048 0.13683 0.1017 0.0
C364 C 0.25094 0.1308 0.10321 0.0
C365 C 0.2598 0.13107 0.13796 0.0
C366 C 0.24843 0.13741 0.17238 0.0
C367 C 0.22785 0.14356 0.1708 0.0
C368 C 0.21898 0.14329 0.13586 0.0
C369 C 0.16192 0.13245 0.99444 0.0
C370 C 0.16373 0.18681 0.07172 0.0
C371 C 0.13981 0.19663 0.93656 0.0
C372 C 0.13992 0.20254 0.89682 0.0
C373 C 0.1482 0.18875 0.86603 0.0
C374 C 0.14812 0.19486 0.82875 0.0
C375 C 0.13975 0.21489 0.8214 0.0
C376 C 0.13159 0.22863 0.85243 0.0
C377 C 0.13166 0.22251 0.88959 0.0
C378 C 0.20059 0.20063 0.99876 0.0
C379 C 0.20067 0.14963 0.92982 0.0
O380 O 0.22662 0.14897 0.03999 0.0
O381 O 0.20253 0.1298 0.06365 0.0
O382 O 0.16194 0.15072 1.01198 0.0
O383 O 0.17989 0.12344 0.99308 0.0
O384 O 0.18184 0.17718 0.06787 0.0
O385 O 0.15201 0.18721 0.04319 0.0
O386 O 0.14126 0.17631 0.94208 0.0
O387 O 0.15034 0.20841 0.95937 0.0
O388 O 0.19945 0.18133 0.98642 0.0
O389 O 0.18257 0.20948 1.00394 0.0
O390 O 0.18317 0.16055 0.93169 0.0
O391 O 0.21009 0.14614 0.96048 0.0
H392 H 0.26009 0.12555 0.07737 0.0
H393 H 0.27554 0.12587 0.13781 0.0
H394 H 0.21863 0.14878 0.19654 0.0
H395 H 0.20313 0.14802 0.13557 0.0
H396 H 0.15467 0.17323 0.87072 0.0
H397 H 0.15434 0.18374 0.80566 0.0
H398 H 0.12533 0.2443 0.8481 0.0
H399 H 0.12528 0.23347 0.91283 0.0
Sm400 Sm 0.58851 0.43529 0.74221 0.0
Sm401 Sm 0.56232 0.40633 0.69341 0.0
C402 C 0.60418 0.45967 0.79728 0.0
C403 C 0.60064 0.46829 0.83802 0.0
C404 C 0.58252 0.47931 0.85231 0.0
C405 C 0.58027 0.48868 0.88992 0.0
C406 C 0.59604 0.48736 0.91453 0.0
C407 C 0.61399 0.47592 0.90025 0.0
C408 C 0.61624 0.4666 0.86266 0.0
C409 C 0.61021 0.40561 0.69058 0.0
C410 C 0.55552 0.40309 0.7832 0.0
C411 C 0.54755 0.38076 0.63982 0.0
C412 C 0.55033 0.3767 0.59842 0.0
C413 C 0.56407 0.3884 0.57694 0.0
C414 C 0.56394 0.38726 0.53737 0.0
C415 C 0.55008 0.37435 0.51879 0.0
C416 C 0.53717 0.36175 0.54043 0.0
C417 C 0.53726 0.36298 0.57993 0.0
C418 C 0.54105 0.44174 0.72862 0.0
C419 C 0.5866 0.44642 0.65602 0.0
O420 O 0.5927 0.46717 0.77238 0.0
O421 O 0.60871 0.43922 0.7901 0.0
O422 O 0.59398 0.40214 0.71052 0.0
O423 O 0.61673 0.42407 0.70246 0.0
O424 O 0.56663 0.42019 0.78577 0.0
O425 O 0.55364 0.39226 0.75025 0.0
O426 O 0.56238 0.37487 0.65959 0.0
O427 O 0.5396 0.39956 0.65178 0.0
O428 O 0.5592 0.44119 0.71475 0.0
O429 O 0.53408 0.4226 0.72585 0.0
O430 O 0.57874 0.42733 0.65042 0.0
O431 O 0.58926 0.45512 0.69046 0.0
H432 H 0.57013 0.48092 0.83429 0.0
H433 H 0.56606 0.49697 0.8997 0.0
H434 H 0.62663 0.47465 0.91776 0.0
H435 H 0.63044 0.45839 0.85254 0.0
H436 H 0.5743 0.39904 0.59083 0.0
H437 H 0.57425 0.39694 0.52142 0.0
H438 H 0.52617 0.35181 0.52705 0.0
H439 H 0.52644 0.35398 0.59615 0.0
Sm440 Sm 0.27681 0.84266 0.47406 0.0
Sm441 Sm 0.30187 0.80443 0.50578 0.0
C442 C 0.2661 0.87696 0.44044 0.0
C443 C 0.26855 0.88536 0.40302 0.0
C444 C 0.27894 0.87332 0.37227 0.0
C445 C 0.27883 0.88025 0.33572 0.0
C446 C 0.26836 0.89936 0.32948 0.0
C447 C 0.25897 0.9119 0.36089 0.0
C448 C 0.25901 0.90489 0.39733 0.0
C449 C 0.25498 0.80927 0.49878 0.0
C450 C 0.29538 0.80176 0.4142 0.0
C451 C 0.31496 0.77166 0.54083 0.0
C452 C 0.31164 0.76247 0.57792 0.0
C453 C 0.29912 0.74493 0.58169 0.0
C454 C 0.2966 0.73563 0.61625 0.0
C455 C 0.30666 0.74357 0.64772 0.0
C456 C 0.31909 0.76119 0.64397 0.0
C457 C 0.32158 0.77051 0.60947 0.0
C458 C 0.32487 0.83371 0.47079 0.0
C459 C 0.27501 0.84034 0.56594 0.0
O460 O 0.28233 0.87588 0.45936 0.0
O461 O 0.25497 0.8601 0.44241 0.0
O462 O 0.27228 0.80852 0.48193 0.0
O463 O 0.24681 0.82835 0.4982 0.0
O464 O 0.28865 0.82205 0.41887 0.0
O465 O 0.29949 0.79071 0.44349 0.0
O466 O 0.30021 0.77034 0.51807 0.0
O467 O 0.32415 0.7899 0.54053 0.0
O468 O 0.30852 0.83807 0.49126 0.0
O469 O 0.33097 0.81424 0.47477 0.0
O470 O 0.28511 0.82169 0.56008 0.0
O471 O 0.2717 0.85264 0.53811 0.0
H472 H 0.28645 0.85821 0.37633 0.0
H473 H 0.28608 0.8701 0.3122 0.0
H474 H 0.25112 0.92688 0.35718 0.0
H475 H 0.25101 0.91441 0.4209 0.0
H476 H 0.29142 0.73823 0.55782 0.0
H477 H 0.28676 0.72219 0.61831 0.0
H478 H 0.32735 0.76747 0.66743 0.0
H479 H 0.33155 0.78383 0.60747 0.0
Sm480 Sm 0.93291 0.4442 0.77447 0.0
Sm481 Sm 0.94565 0.40314 0.72607 0.0
C482 C 0.91424 0.47675 0.81603 0.0
C483 C 0.91178 0.48475 0.85629 0.0
C484 C 0.91057 0.47077 0.8854 0.0
C485 C 0.90983 0.47882 0.92346 0.0
C486 C 0.91054 0.50098 0.93307 0.0
C487 C 0.91155 0.51485 0.90363 0.0
C488 C 0.91209 0.5068 0.86571 0.0
C489 C 0.97093 0.44447 0.73889 0.0
C490 C 0.96055 0.41002 0.81364 0.0
C491 C 0.96409 0.37147 0.68165 0.0
C492 C 0.97152 0.36988 0.64122 0.0
C493 C 0.97381 0.38845 0.62186 0.0
C494 C 0.97979 0.38704 0.58304 0.0
C495 C 0.98352 0.36699 0.56259 0.0
C496 C 0.98138 0.34841 0.58228 0.0
C497 C 0.9754 0.34986 0.62122 0.0
C498 C 0.90856 0.40262 0.76773 0.0
C499 C 0.92465 0.44101 0.68253 0.0
O500 O 0.90516 0.45913 0.80595 0.0
O501 O 0.93255 0.47761 0.79982 0.0
O502 O 0.95556 0.43699 0.72434 0.0
O503 O 0.96634 0.45202 0.77378 0.0
O504 O 0.94665 0.42568 0.82062 0.0
O505 O 0.96427 0.40029 0.77909 0.0
O506 O 0.97368 0.38449 0.70427 0.0
O507 O 0.9444 0.3733 0.68832 0.0
O508 O 0.92452 0.41041 0.77843 0.0
O509 O 0.91206 0.39292 0.7341 0.0
O510 O 0.9366 0.42369 0.6788 0.0
O511 O 0.91905 0.45039 0.71677 0.0
H512 H 0.91055 0.45364 0.87876 0.0
H513 H 0.9088 0.46766 0.94529 0.0
H514 H 0.91257 0.53194 0.90971 0.0
H515 H 0.91328 0.51782 0.84361 0.0
H516 H 0.97082 0.40407 0.63674 0.0
H517 H 0.98156 0.4017 0.5691 0.0
H518 H 0.98386 0.33271 0.56745 0.0
H519 H 0.97353 0.33534 0.6356 0.0
Sm520 Sm 0.31263 0.15826 0.51172 0.0
Sm521 Sm 0.34217 0.18812 0.4642 0.0
C522 C 0.29995 0.1292 0.55758 0.0
C523 C 0.2901 0.12916 0.59618 0.0
C524 C 0.29556 0.14367 0.6256 0.0
C525 C 0.28625 0.14331 0.66219 0.0
C526 C 0.27118 0.1286 0.66998 0.0
C527 C 0.26564 0.1142 0.64041 0.0
C528 C 0.27509 0.11444 0.60383 0.0
C529 C 0.29048 0.19153 0.48659 0.0
C530 C 0.3281 0.20411 0.55113 0.0
C531 C 0.36158 0.21092 0.4141 0.0
C532 C 0.3601 0.21689 0.3749 0.0
C533 C 0.3423 0.21402 0.3561 0.0
C534 C 0.34139 0.21971 0.3187 0.0
C535 C 0.35831 0.22822 0.29937 0.0
C536 C 0.37606 0.23104 0.31853 0.0
C537 C 0.37691 0.22543 0.35585 0.0
C538 C 0.36026 0.16176 0.51235 0.0
C539 C 0.31553 0.15132 0.41891 0.0
O540 O 0.31849 0.13584 0.55505 0.0
O541 O 0.28895 0.13626 0.53167 0.0
O542 O 0.30929 0.18776 0.48132 0.0
O543 O 0.28256 0.17771 0.50834 0.0
O544 O 0.32183 0.18453 0.55643 0.0
O545 O 0.33354 0.21047 0.51717 0.0
O546 O 0.34764 0.21914 0.43978 0.0
O547 O 0.36628 0.1908 0.41797 0.0
O548 O 0.34587 0.15676 0.4918 0.0
O549 O 0.36664 0.1804 0.50458 0.0
O550 O 0.32643 0.1686 0.4182 0.0
O551 O 0.31039 0.14235 0.45083 0.0
H552 H 0.307 0.15532 0.62033 0.0
H553 H 0.29061 0.15482 0.68426 0.0
H554 H 0.25415 0.10261 0.64566 0.0
H555 H 0.27069 0.10313 0.58149 0.0
H556 H 0.32917 0.20731 0.37027 0.0
H557 H 0.32756 0.21711 0.30472 0.0
H558 H 0.38927 0.23783 0.30483 0.0
H559 H 0.39077 0.22779 0.36989 0.0
Sm560 Sm 0.5691 0.5589 0.27515 0.0
Sm561 Sm 0.54473 0.59373 0.23924 0.0
C562 C 0.5977 0.53666 0.30443 0.0
C563 C 0.60251 0.53059 0.34217 0.0
C564 C 0.60288 0.54575 0.37344 0.0
C565 C 0.60556 0.5391 0.40963 0.0
C566 C 0.60771 0.51719 0.4152 0.0
C567 C 0.60784 0.50221 0.38347 0.0
C568 C 0.6054 0.50887 0.34742 0.0
C569 C 0.53349 0.54565 0.25069 0.0
C570 C 0.53201 0.58369 0.32881 0.0
C571 C 0.51809 0.61778 0.2078 0.0
C572 C 0.51057 0.61749 0.1696 0.0
C573 C 0.51647 0.6008 0.14197 0.0
C574 C 0.51002 0.60097 0.10525 0.0
C575 C 0.4975 0.61785 0.09534 0.0
C576 C 0.4915 0.63446 0.12333 0.0
C577 C 0.49799 0.63427 0.16008 0.0
C578 C 0.57909 0.60665 0.27381 0.0
C579 C 0.57481 0.56211 0.18066 0.0
O580 O 0.59961 0.55673 0.29714 0.0
O581 O 0.58151 0.52814 0.29143 0.0
O582 O 0.54532 0.55773 0.23342 0.0
O583 O 0.54099 0.53915 0.28096 0.0
O584 O 0.5493 0.57243 0.32884 0.0
O585 O 0.52633 0.59183 0.29754 0.0
O586 O 0.51295 0.60183 0.22785 0.0
O587 O 0.53711 0.62256 0.20983 0.0
O588 O 0.56617 0.59413 0.28523 0.0
O589 O 0.5733 0.61489 0.24374 0.0
O590 O 0.55922 0.57588 0.18442 0.0
O591 O 0.58266 0.55508 0.21116 0.0
H592 H 0.60065 0.56265 0.37014 0.0
H593 H 0.60565 0.5511 0.43326 0.0
H594 H 0.60901 0.48521 0.38654 0.0
H595 H 0.60507 0.49692 0.32371 0.0
H596 H 0.52628 0.58775 0.14868 0.0
H597 H 0.5152 0.58807 0.08442 0.0
H598 H 0.48166 0.64756 0.11695 0.0
H599 H 0.49329 0.6473 0.18101 0.0
Sm600 Sm 0.20319 0.85467 0.92054 0.0
Sm601 Sm 0.18287 0.81515 0.88198 0.0
C602 C 0.21275 0.89185 0.95369 0.0
C603 C 0.22188 0.8978 0.98937 0.0
C604 C 0.21667 0.91749 1.00961 0.0
C605 C 0.22392 0.92233 0.04528 0.0
C606 C 0.23651 0.90751 0.06114 0.0
C607 C 0.24201 0.88799 0.04028 0.0
C608 C 0.2347 0.88314 1.00482 0.0
C609 C 0.22784 0.81874 0.91169 0.0
C610 C 0.19123 0.8143 0.97059 0.0
C611 C 0.1723 0.78277 0.83547 0.0
C612 C 0.17709 0.7735 0.79555 0.0
C613 C 0.18273 0.75173 0.7884 0.0
C614 C 0.18621 0.74237 0.75105 0.0
C615 C 0.18406 0.7545 0.71957 0.0
C616 C 0.1787 0.77643 0.7269 0.0
C617 C 0.1753 0.78579 0.76428 0.0
C618 C 0.1569 0.84186 0.9316 0.0
C619 C 0.20458 0.84999 0.82724 0.0
O620 O 0.19461 0.88419 0.9575 0.0
O621 O 0.22455 0.88106 0.92721 0.0
O622 O 0.21543 0.82404 0.88798 0.0
O623 O 0.22873 0.83373 0.93889 0.0
O624 O 0.1934 0.83529 0.97123 0.0
O625 O 0.18995 0.80211 0.9386 0.0
O626 O 0.18627 0.78086 0.85955 0.0
O627 O 0.16235 0.80127 0.84047 0.0
O628 O 0.17091 0.84803 0.9086 0.0
O629 O 0.15484 0.82149 0.92432 0.0
O630 O 0.19344 0.833 0.82982 0.0
O631 O 0.20978 0.86144 0.85766 0.0
H632 H 0.20665 0.9289 0.9982 0.0
H633 H 0.21949 0.93753 0.06064 0.0
H634 H 0.25133 0.87606 0.05199 0.0
H635 H 0.23865 0.8677 0.98992 0.0
H636 H 0.18428 0.74183 0.81183 0.0
H637 H 0.19068 0.72558 0.74694 0.0
H638 H 0.17662 0.78638 0.70376 0.0
H639 H 0.17099 0.80263 0.7686 0.0
Sm640 Sm 0.55202 0.89914 0.6113 0.0
Sm641 Sm 0.58089 0.9251 0.56371 0.0
C642 C 0.53432 0.87492 0.66131 0.0
C643 C 0.53326 0.87393 0.70264 0.0
C644 C 0.54879 0.88181 0.72423 0.0
C645 C 0.54599 0.88398 0.76391 0.0
C646 C 0.52758 0.87841 0.78242 0.0
C647 C 0.51253 0.86954 0.76059 0.0
C648 C 0.51535 0.86738 0.72107 0.0
C649 C 0.53488 0.93772 0.59526 0.0
C650 C 0.58098 0.9346 0.65397 0.0
C651 C 0.60002 0.9481 0.51301 0.0
C652 C 0.59811 0.958 0.47657 0.0
C653 C 0.59223 0.94636 0.44383 0.0
C654 C 0.59181 0.95593 0.40927 0.0
C655 C 0.59716 0.97738 0.40669 0.0
C656 C 0.60291 0.98894 0.43964 0.0
C657 C 0.6034 0.97937 0.47402 0.0
C658 C 0.59944 0.89184 0.59704 0.0
C659 C 0.54498 0.89764 0.52311 0.0
O660 O 0.5516 0.86958 0.64223 0.0
O661 O 0.5257 0.89197 0.64993 0.0
O662 O 0.55298 0.9346 0.60307 0.0
O663 O 0.52582 0.91965 0.59311 0.0
O664 O 0.57022 0.9172 0.65642 0.0
O665 O 0.58503 0.94302 0.62128 0.0
O666 O 0.58923 0.95666 0.54316 0.0
O667 O 0.60165 0.9272 0.51203 0.0
O668 O 0.58261 0.89099 0.58187 0.0
O669 O 0.60802 0.90939 0.58893 0.0
O670 O 0.55698 0.91406 0.52277 0.0
O671 O 0.54294 0.88617 0.55277 0.0
H672 H 0.56272 0.88699 0.7104 0.0
H673 H 0.55785 0.8909 0.77993 0.0
H674 H 0.49836 0.86469 0.77406 0.0
H675 H 0.5032 0.86132 0.70481 0.0
H676 H 0.58806 0.92983 0.44483 0.0
H677 H 0.58707 0.94659 0.38468 0.0
H678 H 0.6074 0.00536 0.43878 0.0
H679 H 0.6082 0.98865 0.49865 0.0
Sm680 Sm 0.33086 0.30878 0.87272 0.0
Sm681 Sm 0.30154 0.33829 0.836 0.0
C682 C 0.35642 0.29104 0.91667 0.0
C683 C 0.3564 0.28535 0.95646 0.0
C684 C 0.34841 0.29945 0.98701 0.0
C685 C 0.34816 0.29346 0.02435 0.0
C686 C 0.35598 0.27326 0.03199 0.0
C687 C 0.36402 0.25926 1.00125 0.0
C688 C 0.36421 0.26524 0.96397 0.0
C689 C 0.29518 0.28989 0.85618 0.0
C690 C 0.2967 0.33998 0.927 0.0
C691 C 0.27619 0.35665 0.79219 0.0
C692 C 0.26851 0.35457 0.75355 0.0
C693 C 0.2555 0.33821 0.74282 0.0
C694 C 0.24746 0.33727 0.7072 0.0
C695 C 0.25217 0.35263 0.68115 0.0
C696 C 0.26524 0.36896 0.69195 0.0
C697 C 0.27325 0.36993 0.72765 0.0
C698 C 0.33561 0.35692 0.86255 0.0
C699 C 0.33198 0.30344 0.78316 0.0
O700 O 0.35605 0.31135 0.91083 0.0
O701 O 0.34481 0.27998 0.89484 0.0
O702 O 0.29679 0.30903 0.86917 0.0
O703 O 0.31299 0.28065 0.84989 0.0
O704 O 0.31393 0.32851 0.92411 0.0
O705 O 0.28716 0.34428 0.89683 0.0
O706 O 0.27066 0.34264 0.81621 0.0
O707 O 0.29497 0.36222 0.79479 0.0
O708 O 0.33506 0.33893 0.84417 0.0
O709 O 0.31785 0.36645 0.86458 0.0
O710 O 0.31419 0.31372 0.78786 0.0
O711 O 0.34387 0.30229 0.81128 0.0
H712 H 0.34237 0.3151 0.98204 0.0
H713 H 0.34207 0.30477 0.04728 0.0
H714 H 0.36992 0.24348 1.00591 0.0
H715 H 0.37037 0.25406 0.94088 0.0
H716 H 0.25128 0.32623 0.7621 0.0
H717 H 0.23718 0.32466 0.70045 0.0
H718 H 0.26945 0.38096 0.67271 0.0
H719 H 0.28306 0.38286 0.73515 0.0
Sm720 Sm 0.93189 0.07874 0.16146 0.0
Sm721 Sm 0.90439 0.05217 0.11284 0.0
C722 C 0.94778 0.1031 0.21541 0.0
C723 C 0.94629 0.10613 0.25697 0.0
C724 C 0.93334 0.09382 0.27894 0.0
C725 C 0.9344 0.09452 0.31832 0.0
C726 C 0.94838 0.1076 0.33622 0.0
C727 C 0.96063 0.12061 0.31412 0.0
C728 C 0.9596 0.11982 0.27483 0.0
C729 C 0.95226 0.04378 0.12306 0.0
C730 C 0.9082 0.03764 0.19678 0.0
C731 C 0.88685 0.02986 0.05764 0.0
C732 C 0.89024 0.02132 1.01704 0.0
C733 C 0.90966 0.01524 1.00025 0.0
C734 C 0.91223 0.00587 0.96269 0.0
C735 C 0.89546 0.00233 0.94077 0.0
C736 C 0.8761 0.00895 0.95757 0.0
C737 C 0.87356 0.01826 0.99511 0.0
C738 C 0.88418 0.08135 0.16732 0.0
C739 C 0.93825 0.08346 0.07214 0.0
O740 O 0.93215 0.10925 0.19796 0.0
O741 O 0.95576 0.08471 0.20112 0.0
O742 O 0.93418 0.04418 0.13745 0.0
O743 O 0.95932 0.06288 0.12624 0.0
O744 O 0.91727 0.05598 0.20351 0.0
O745 O 0.90343 0.03085 0.1624 0.0
O746 O 0.89763 0.02116 0.08234 0.0
O747 O 0.88413 0.05059 0.06489 0.0
O748 O 0.90009 0.08482 0.14659 0.0
O749 O 0.87717 0.06319 0.1552 0.0
O750 O 0.92661 0.06678 0.06919 0.0
O751 O 0.94053 0.09371 0.10544 0.0
H752 H 0.92293 0.08316 0.26554 0.0
H753 H 0.9246 0.08451 0.33463 0.0
H754 H 0.97171 0.13066 0.32692 0.0
H755 H 0.96981 0.12929 0.2582 0.0
H756 H 0.92285 0.01749 1.01631 0.0
H757 H 0.92743 0.0014 0.95083 0.0
H758 H 0.86276 0.00638 0.94213 0.0
H759 H 0.8584 0.02272 1.00731 0.0
Sm760 Sm 0.2062 0.68773 0.35718 0.0
Sm761 Sm 0.21713 0.64281 0.38954 0.0
C762 C 0.2084 0.72463 0.32616 0.0
C763 C 0.20589 0.73276 0.28908 0.0
C764 C 0.21069 0.75388 0.28328 0.0
C765 C 0.20836 0.76191 0.24814 0.0
C766 C 0.20114 0.74892 0.21819 0.0
C767 C 0.1965 0.72763 0.22414 0.0
C768 C 0.19888 0.7196 0.25935 0.0
C769 C 0.17382 0.66235 0.36921 0.0
C770 C 0.22565 0.64743 0.29774 0.0
C771 C 0.21661 0.60666 0.42346 0.0
C772 C 0.21996 0.60089 0.46188 0.0
C773 C 0.22446 0.57961 0.46837 0.0
C774 C 0.22812 0.5742 0.50488 0.0
C775 C 0.22718 0.59002 0.53537 0.0
C776 C 0.22254 0.61133 0.52865 0.0
C777 C 0.21905 0.61672 0.49219 0.0
C778 C 0.24746 0.67197 0.38773 0.0
C779 C 0.20185 0.68501 0.45 0.0
O780 O 0.22412 0.7117 0.32791 0.0
O781 O 0.19191 0.71842 0.34433 0.0
O782 O 0.19167 0.65551 0.35794 0.0
O783 O 0.17231 0.6828 0.36586 0.0
O784 O 0.22009 0.66789 0.30362 0.0
O785 O 0.22444 0.63401 0.32498 0.0
O786 O 0.20044 0.61866 0.42051 0.0
O787 O 0.23255 0.61284 0.4037 0.0
O788 O 0.22879 0.6753 0.39354 0.0
O789 O 0.25129 0.65159 0.3882 0.0
O790 O 0.20375 0.6638 0.44388 0.0
O791 O 0.20479 0.69767 0.42182 0.0
H792 H 0.21628 0.76416 0.30594 0.0
H793 H 0.21242 0.77824 0.24432 0.0
H794 H 0.19075 0.71727 0.20181 0.0
H795 H 0.19517 0.70319 0.26344 0.0
H796 H 0.22525 0.56722 0.4452 0.0
H797 H 0.23158 0.55765 0.50933 0.0
H798 H 0.22204 0.62392 0.55144 0.0
H799 H 0.21581 0.63329 0.48761 0.0
Sm800 Sm 0.54851 0.07598 0.12468 0.0
Sm801 Sm 0.58039 0.04872 0.07106 0.0
C802 C 0.52085 0.09352 0.17646 0.0
C803 C 0.51375 0.0923 0.21634 0.0
C804 C 0.52039 0.07568 0.23716 0.0
C805 C 0.51392 0.07534 0.27559 0.0
C806 C 0.50074 0.09163 0.29367 0.0
C807 C 0.494 0.10808 0.27235 0.0
C808 C 0.50047 0.10838 0.23403 0.0
C809 C 0.5804 0.09762 0.09348 0.0
C810 C 0.58191 0.0461 0.16227 0.0
C811 C 0.60896 0.03525 1.01757 0.0
C812 C 0.60977 0.02702 0.97755 0.0
C813 C 0.59583 0.03446 0.95318 0.0
C814 C 0.59602 0.02558 0.9158 0.0
C815 C 0.61001 0.00899 0.90231 0.0
C816 C 0.62417 0.00184 0.92663 0.0
C817 C 0.62406 0.01084 0.96396 0.0
C818 C 0.54903 0.02616 0.09856 0.0
C819 C 0.54049 0.07273 0.0355 0.0
O820 O 0.51747 0.07705 0.15308 0.0
O821 O 0.5388 0.10126 0.17012 0.0
O822 O 0.58172 0.07955 0.10647 0.0
O823 O 0.56189 0.10525 0.09835 0.0
O824 O 0.5636 0.05516 0.16546 0.0
O825 O 0.59326 0.04443 0.12957 0.0
O826 O 0.60328 0.05533 0.02507 0.0
O827 O 0.60081 0.02282 0.04199 0.0
O828 O 0.54763 0.04495 0.08858 0.0
O829 O 0.56707 0.01773 0.0902 0.0
O830 O 0.55864 0.06288 0.02861 0.0
O831 O 0.53259 0.07783 0.07039 0.0
H832 H 0.53066 0.06311 0.22379 0.0
H833 H 0.51923 0.06235 0.29112 0.0
H834 H 0.48415 0.12106 0.28549 0.0
H835 H 0.4953 0.12137 0.2183 0.0
H836 H 0.58454 0.04683 0.96321 0.0
H837 H 0.58475 0.0312 0.89787 0.0
H838 H 0.6352 0.98917 0.91687 0.0
H839 H 0.63491 0.0049 0.98243 0.0
Sm840 Sm 0.15304 0.30229 0.3902 0.0
Sm841 Sm 0.18299 0.33148 0.34336 0.0
C842 C 0.1325 0.28119 0.44156 0.0
C843 C 0.13449 0.27396 0.47986 0.0
C844 C 0.15315 0.27393 0.49631 0.0
C845 C 0.1545 0.26739 0.53309 0.0
C846 C 0.1372 0.26079 0.55415 0.0
C847 C 0.1186 0.26073 0.5372 0.0
C848 C 0.11728 0.26726 0.50054 0.0
C849 C 0.13555 0.33083 0.34491 0.0
C850 C 0.18366 0.33496 0.43516 0.0
C851 C 0.19525 0.36078 0.29762 0.0
C852 C 0.20746 0.36146 0.26147 0.0
C853 C 0.22166 0.34501 0.24868 0.0
C854 C 0.23207 0.34509 0.21289 0.0
C855 C 0.2283 0.36153 0.18919 0.0
C856 C 0.21417 0.37807 0.20237 0.0
C857 C 0.20385 0.37802 0.23822 0.0
C858 C 0.20468 0.29699 0.36498 0.0
C859 C 0.16595 0.28615 0.30352 0.0
O860 O 0.14448 0.27173 0.4137 0.0
O861 O 0.13027 0.30189 0.43939 0.0
O862 O 0.15022 0.33463 0.36535 0.0
O863 O 0.12874 0.31212 0.35088 0.0
O864 O 0.1727 0.31773 0.43445 0.0
O865 O 0.18676 0.34601 0.40488 0.0
O866 O 0.1781 0.35114 0.29536 0.0
O867 O 0.20481 0.35609 0.32716 0.0
O868 O 0.18595 0.30112 0.37152 0.0
O869 O 0.21268 0.31108 0.34385 0.0
O870 O 0.17281 0.30556 0.29859 0.0
O871 O 0.1603 0.27976 0.33732 0.0
H872 H 0.16661 0.27907 0.48081 0.0
H873 H 0.16903 0.26787 0.54525 0.0
H874 H 0.10502 0.25542 0.55211 0.0
H875 H 0.10275 0.26711 0.48832 0.0
H876 H 0.22441 0.3319 0.26604 0.0
H877 H 0.24263 0.33195 0.20335 0.0
H878 H 0.21107 0.39104 0.18495 0.0
H879 H 0.19279 0.39075 0.24758 0.0
Sm880 Sm 0.95165 0.90128 0.61531 0.0
Sm881 Sm 0.91958 0.92986 0.58184 0.0
C882 C 0.97828 0.88113 0.65347 0.0
C883 C 0.98614 0.88195 0.69124 0.0
C884 C 0.98062 0.89878 0.71879 0.0
C885 C 0.98811 0.89898 0.75479 0.0
C886 C 0.00125 0.88236 0.76374 0.0
C887 C 0.00687 0.86572 0.73568 0.0
C888 C -0.00065 0.86552 0.69984 0.0
C889 C 0.92318 0.88053 0.57394 0.0
C890 C 0.91729 0.92893 0.67421 0.0
C891 C 0.89117 0.94488 0.54112 0.0
C892 C 0.88846 0.94549 0.50055 0.0
C893 C 0.90206 0.93418 0.47345 0.0
C894 C 0.90234 0.93852 0.43534 0.0
C895 C 0.8889 0.95409 0.42385 0.0
C896 C 0.87419 0.96403 0.45062 0.0
C897 C 0.87407 0.95984 0.4888 0.0
C898 C 0.9476 0.95215 0.61857 0.0
C899 C 0.96182 0.91189 0.5286 0.0
O900 O 0.98292 0.89689 0.63265 0.0
O901 O 0.95953 0.87532 0.65138 0.0
O902 O 0.91983 0.89626 0.59811 0.0
O903 O 0.94213 0.87451 0.5723 0.0
O904 O 0.9352 0.91885 0.66899 0.0
O905 O 0.90643 0.93263 0.64508 0.0
O906 O 0.89043 0.92617 0.55495 0.0
O907 O 0.90597 0.95627 0.55322 0.0
O908 O 0.95134 0.93501 0.59784 0.0
O909 O 0.92902 0.95915 0.61748 0.0
O910 O 0.94265 0.91909 0.52917 0.0
O911 O 0.96971 0.90645 0.55976 0.0
H912 H 0.97045 0.91164 0.71253 0.0
H913 H 0.98331 0.91193 0.77579 0.0
H914 H 0.01722 0.85287 0.74129 0.0
H915 H 0.00386 0.85248 0.67878 0.0
H916 H 0.91319 0.92293 0.48205 0.0
H917 H 0.91371 0.93051 0.41518 0.0
H918 H 0.86378 0.97621 0.4426 0.0
H919 H 0.86352 0.96874 0.50944 0.0
Sm920 Sm 0.31473 0.67293 0.98164 0.0
Sm921 Sm 0.29475 0.63307 0.94323 0.0
C922 C 0.32524 0.70559 0.02776 0.0
C923 C 0.32072 0.71504 0.06746 0.0
C924 C 0.31129 0.70341 0.09582 0.0
C925 C 0.30778 0.71253 0.1334 0.0
C926 C 0.31356 0.73357 0.14358 0.0
C927 C 0.3229 0.74512 0.11484 0.0
C928 C 0.32641 0.73598 0.0774 0.0
C929 C 0.3405 0.64751 0.92954 0.0
C930 C 0.29441 0.63722 0.03632 0.0
C931 C 0.28688 0.59547 0.9097 0.0
C932 C 0.2815 0.58832 0.8712 0.0
C933 C 0.2938 0.5928 0.83889 0.0
C934 C 0.28737 0.5881 0.80263 0.0
C935 C 0.26845 0.57904 0.79796 0.0
C936 C 0.25649 0.5739 0.83021 0.0
C937 C 0.26301 0.57841 0.8665 0.0
C938 C 0.26942 0.66842 0.95435 0.0
C939 C 0.30477 0.67407 0.89359 0.0
O940 O 0.31094 0.70711 1.00426 0.0
O941 O 0.33515 0.68707 0.02321 0.0
O942 O 0.32708 0.64071 0.953 0.0
O943 O 0.34224 0.66786 0.93768 0.0
O944 O 0.30585 0.65397 0.03342 0.0
O945 O 0.2883 0.62629 1.00611 0.0
O946 O 0.30529 0.60211 0.91292 0.0
O947 O 0.27317 0.60749 0.93046 0.0
O948 O 0.28232 0.66314 0.97722 0.0
O949 O 0.26845 0.65361 0.92679 0.0
O950 O 0.30308 0.65298 0.89244 0.0
O951 O 0.30642 0.68601 0.92576 0.0
H952 H 0.30668 0.68724 0.08897 0.0
H953 H 0.30034 0.70315 0.15437 0.0
H954 H 0.32791 0.76117 0.12135 0.0
H955 H 0.33379 0.74526 0.05617 0.0
H956 H 0.30808 0.60059 0.84155 0.0
H957 H 0.2968 0.59247 0.77833 0.0
H958 H 0.24193 0.56674 0.82739 0.0
H959 H 0.2533 0.57481 0.891 0.0
Sm960 Sm 0.40989 0.06306 0.78937 0.0
Sm961 Sm 0.43907 0.08979 0.74342 0.0
C962 C 0.39109 0.03952 0.83968 0.0
C963 C 0.39329 0.02974 0.87627 0.0
C964 C 0.39773 0.0419 0.90957 0.0
C965 C 0.39842 0.03238 0.94417 0.0
C966 C 0.39481 0.01045 0.94631 0.0
C967 C 0.39051 -0.00161 0.91281 0.0
C968 C 0.38973 0.0079 0.87839 0.0
C969 C 0.39151 0.09646 0.75617 0.0
C970 C 0.44519 0.09071 0.8317 0.0
C971 C 0.45686 0.11486 0.695 0.0
C972 C 0.45812 0.11639 0.65382 0.0
C973 C 0.44264 0.10889 0.63177 0.0
C974 C 0.44564 0.107 0.59213 0.0
C975 C 0.46419 0.11256 0.5741 0.0
C976 C 0.47915 0.12119 0.59642 0.0
C977 C 0.47615 0.123 0.63592 0.0
C978 C 0.45617 0.0511 0.75925 0.0
C979 C 0.41069 0.05435 0.69876 0.0
O980 O 0.40209 0.03124 0.80955 0.0
O981 O 0.38888 0.06038 0.84055 0.0
O982 O 0.40818 0.0973 0.77193 0.0
O983 O 0.3829 0.07882 0.76373 0.0
O984 O 0.43336 0.07415 0.83118 0.0
O985 O 0.44741 0.10246 0.80249 0.0
O986 O 0.43945 0.11982 0.71387 0.0
O987 O 0.46555 0.09768 0.70579 0.0
O988 O 0.43822 0.05428 0.75071 0.0
O989 O 0.46518 0.0692 0.76195 0.0
O990 O 0.4216 0.07171 0.69722 0.0
O991 O 0.40611 0.04571 0.7311 0.0
H992 H 0.40054 0.05879 0.909 0.0
H993 H 0.40202 0.04216 0.96915 0.0
H994 H 0.38736 0.98157 0.91326 0.0
H995 H 0.38605 -0.00182 0.85337 0.0
H996 H 0.42859 0.10375 0.64522 0.0
H997 H 0.43383 0.10026 0.57577 0.0
H998 H 0.49342 0.12605 0.58336 0.0
H999 H 0.48825 0.12881 0.65256 0.0
Sm1000 Sm 0.6974 0.65376 0.51971 0.0
Sm1001 Sm 0.66705 0.68217 0.48188 0.0
C1002 C 0.72377 0.63705 0.56355 0.0
C1003 C 0.73182 0.63915 0.60189 0.0
C1004 C 0.74334 0.65664 0.6136 0.0
C1005 C 0.75247 0.65722 0.64821 0.0
C1006 C 0.75038 0.64034 0.67213 0.0
C1007 C 0.73842 0.62312 0.66076 0.0
C1008 C 0.72936 0.62252 0.6261 0.0
C1009 C 0.665 0.63325 0.49036 0.0
C1010 C 0.66434 0.68635 0.57181 0.0
C1011 C 0.64136 0.69934 0.43738 0.0
C1012 C 0.6413 0.70541 0.39788 0.0
C1013 C 0.65411 0.6949 0.36847 0.0
C1014 C 0.65392 0.70108 0.33127 0.0
C1015 C 0.64095 0.71795 0.3227 0.0
C1016 C 0.62823 0.72845 0.35245 0.0
C1017 C 0.62841 0.72223 0.38955 0.0
C1018 C 0.70175 0.7024 0.50105 0.0
C1019 C 0.70289 0.65266 0.4286 0.0
O1020 O 0.72838 0.65151 0.53984 0.0
O1021 O 0.70532 0.63035 0.56109 0.0
O1022 O 0.66423 0.65133 0.5089 0.0
O1023 O 0.68304 0.62455 0.49037 0.0
O1024 O 0.68258 0.67701 0.56801 0.0
O1025 O 0.65296 0.6873 0.54287 0.0
O1026 O 0.64257 0.67894 0.44228 0.0
O1027 O 0.65246 0.71065 0.45982 0.0
O1028 O 0.70083 0.68334 0.48733 0.0
O1029 O 0.68363 0.71098 0.50645 0.0
O1030 O 0.68521 0.66331 0.43096 0.0
O1031 O 0.71236 0.64878 0.45907 0.0
H1032 H 0.74562 0.66975 0.59576 0.0
H1033 H 0.76126 0.67092 0.65615 0.0
H1034 H 0.7366 0.60971 0.67805 0.0
H1035 H 0.72078 0.60871 0.61775 0.0
H1036 H 0.66423 0.68193 0.37425 0.0
H1037 H 0.66377 0.69244 0.30916 0.0
H1038 H 0.61829 0.74172 0.34723 0.0
H1039 H 0.61851 0.73067 0.41186 0.0
Sm1040 Sm 0.09108 0.93625 0.25078 0.0
Sm1041 Sm 0.06437 0.90836 0.20227 0.0
C1042 C 0.10797 0.95978 0.30539 0.0
C1043 C 0.10486 0.96837 0.34604 0.0
C1044 C 0.08563 0.97502 0.36314 0.0
C1045 C 0.08341 0.98427 0.40082 0.0
C1046 C 0.10034 0.98712 0.42257 0.0
C1047 C 0.11949 0.98001 0.40543 0.0
C1048 C 0.12169 0.97081 0.36779 0.0
C1049 C 0.11204 0.90597 0.19944 0.0
C1050 C 0.05727 0.90522 0.29207 0.0
C1051 C 0.04858 0.88323 0.14912 0.0
C1052 C 0.04924 0.87978 0.10758 0.0
C1053 C 0.06144 0.89209 0.08424 0.0
C1054 C 0.05949 0.89097 0.04504 0.0
C1055 C 0.04533 0.87746 0.02863 0.0
C1056 C 0.0338 0.86451 0.05211 0.0
C1057 C 0.03573 0.86572 0.09121 0.0
C1058 C 0.04386 0.94429 0.23728 0.0
C1059 C 0.08946 0.94793 0.16478 0.0
O1060 O 0.09651 0.96779 0.28099 0.0
O1061 O 0.11161 0.93918 0.29823 0.0
O1062 O 0.09578 0.90291 0.21953 0.0
O1063 O 0.1189 0.92435 0.21077 0.0
O1064 O 0.06854 0.92221 0.29449 0.0
O1065 O 0.05557 0.89425 0.25915 0.0
O1066 O 0.0647 0.87772 0.16579 0.0
O1067 O 0.0403 0.90146 0.16344 0.0
O1068 O 0.06199 0.94341 0.22322 0.0
O1069 O 0.03674 0.92521 0.23556 0.0
O1070 O 0.08087 0.92923 0.15906 0.0
O1071 O 0.0926 0.95621 0.19927 0.0
H1072 H 0.07233 0.97326 0.34726 0.0
H1073 H 0.06835 0.98914 0.41292 0.0
H1074 H 0.13297 0.98205 0.4207 0.0
H1075 H 0.13671 0.96593 0.35538 0.0
H1076 H 0.07195 0.90305 0.0965 0.0
H1077 H 0.06878 0.90094 0.0277 0.0
H1078 H 0.02258 0.85414 0.04058 0.0
H1079 H 0.02605 0.85626 0.10888 0.0
Sm1080 Sm 0.79174 0.34289 0.9829 0.0
Sm1081 Sm 0.81968 0.30748 1.01192 0.0
C1082 C 0.77724 0.37483 0.947 0.0
C1083 C 0.77071 0.37695 0.90877 0.0
C1084 C 0.76177 0.39619 0.89965 0.0
C1085 C 0.75529 0.39806 0.8633 0.0
C1086 C 0.75785 0.38072 0.83557 0.0
C1087 C 0.76674 0.36144 0.84501 0.0
C1088 C 0.77301 0.35954 0.88137 0.0
C1089 C 0.77254 0.30622 1.00017 0.0
C1090 C 0.81328 0.30367 0.92094 0.0
C1091 C 0.83818 0.27776 0.04727 0.0
C1092 C 0.83644 0.26783 0.08346 0.0
C1093 C 0.82382 0.27698 0.11435 0.0
C1094 C 0.82315 0.26787 0.14921 0.0
C1095 C 0.8351 0.24945 0.15365 0.0
C1096 C 0.84757 0.24029 0.12238 0.0
C1097 C 0.84821 0.24942 0.08761 0.0
C1098 C 0.83928 0.34109 0.98206 0.0
C1099 C 0.78873 0.33856 0.07266 0.0
O1100 O 0.79662 0.37094 0.94917 0.0
O1101 O 0.76589 0.36313 0.96829 0.0
O1102 O 0.79021 0.30757 0.98538 0.0
O1103 O 0.76347 0.32499 1.00349 0.0
O1104 O 0.80388 0.32283 0.9267 0.0
O1105 O 0.81939 0.29332 0.94964 0.0
O1106 O 0.8242 0.27346 0.02376 0.0
O1107 O 0.84311 0.29785 0.0492 0.0
O1108 O 0.82291 0.34261 1.00313 0.0
O1109 O 0.84689 0.3218 0.98121 0.0
O1110 O 0.79821 0.31977 0.06407 0.0
O1111 O 0.78777 0.35287 0.04721 0.0
H1112 H 0.75981 0.40975 0.92061 0.0
H1113 H 0.7486 0.41315 0.85668 0.0
H1114 H 0.76864 0.34772 0.82439 0.0
H1115 H 0.77955 0.34446 0.88815 0.0
H1116 H 0.81465 0.29126 0.11161 0.0
H1117 H 0.8132 0.27515 0.17257 0.0
H1118 H 0.85714 0.22628 0.12495 0.0
H1119 H 0.85813 0.24225 0.06407 0.0
Sm1120 Sm 0.40969 0.93771 0.28256 0.0
Sm1121 Sm 0.44089 0.90952 0.22987 0.0
C1122 C 0.38129 0.95108 0.33631 0.0
C1123 C 0.3815 0.9629 0.3736 0.0
C1124 C 0.36607 0.96032 0.40197 0.0
C1125 C 0.36668 0.97103 0.43798 0.0
C1126 C 0.38269 0.98453 0.44589 0.0
C1127 C 0.39813 0.98698 0.41728 0.0
C1128 C 0.39758 0.97618 0.38151 0.0
C1129 C 0.44168 0.95971 0.25656 0.0
C1130 C 0.44916 0.91301 0.31885 0.0
C1131 C 0.46778 0.89083 0.17779 0.0
C1132 C 0.47584 0.89308 0.13872 0.0
C1133 C 0.47084 0.91108 0.11974 0.0
C1134 C 0.47802 0.91241 0.08189 0.0
C1135 C 0.49032 0.89577 0.06254 0.0
C1136 C 0.49552 0.87797 0.0821 0.0
C1137 C 0.48832 0.87666 0.11984 0.0
C1138 C 0.4078 0.88925 0.26049 0.0
C1139 C 0.40947 0.94114 0.19139 0.0
O1140 O 0.38968 0.93186 0.33359 0.0
O1141 O 0.38631 0.96183 0.30704 0.0
O1142 O 0.44263 0.94068 0.2655 0.0
O1143 O 0.42398 0.96873 0.26617 0.0
O1144 O 0.43139 0.92367 0.32539 0.0
O1145 O 0.45676 0.90703 0.2841 0.0
O1146 O 0.47233 0.90567 0.20347 0.0
O1147 O 0.44896 0.88509 0.18211 0.0
O1148 O 0.40742 0.9072 0.24704 0.0
O1149 O 0.42607 0.88091 0.25674 0.0
O1150 O 0.42763 0.93177 0.18917 0.0
O1151 O 0.3976 0.9426 0.22349 0.0
H1152 H 0.35365 0.94994 0.39634 0.0
H1153 H 0.35458 0.9689 0.4595 0.0
H1154 H 0.41085 -0.00305 0.42277 0.0
H1155 H 0.40982 0.97807 0.3601 0.0
H1156 H 0.46126 0.92396 0.13406 0.0
H1157 H 0.47391 0.92642 0.06775 0.0
H1158 H 0.50467 0.86473 0.06792 0.0
H1159 H 0.49225 0.86263 0.13414 0.0
Sm1160 Sm 0.81536 0.66396 1.01001 0.0
Sm1161 Sm 0.84443 0.69037 0.96339 0.0
C1162 C 0.79742 0.63545 0.05131 0.0
C1163 C 0.78703 0.63528 0.08957 0.0
C1164 C 0.79282 0.61985 0.11369 0.0
C1165 C 0.78352 0.61973 0.15043 0.0
C1166 C 0.76814 0.63497 0.16362 0.0
C1167 C 0.76236 0.6504 0.13935 0.0
C1168 C 0.77176 0.65061 0.10276 0.0
C1169 C 0.79752 0.70041 0.98757 0.0
C1170 C 0.83241 0.70768 0.04991 0.0
C1171 C 0.86444 0.71256 0.9129 0.0
C1172 C 0.8632 0.71793 0.87322 0.0
C1173 C 0.84549 0.7148 0.85424 0.0
C1174 C 0.84453 0.72052 0.81686 0.0
C1175 C 0.8613 0.72939 0.79764 0.0
C1176 C 0.87903 0.7323 0.81685 0.0
C1177 C 0.87994 0.72664 0.85418 0.0
C1178 C 0.86254 0.66524 1.01381 0.0
C1179 C 0.81909 0.65338 0.91708 0.0
O1180 O 0.81691 0.63847 0.05001 0.0
O1181 O 0.78826 0.64572 0.02631 0.0
O1182 O 0.81034 0.68827 0.96754 0.0
O1183 O 0.79346 0.69323 1.0207 0.0
O1184 O 0.8271 0.68792 0.05556 0.0
O1185 O 0.83603 0.71391 1.01534 0.0
O1186 O 0.8502 0.72098 0.93775 0.0
O1187 O 0.86921 0.69263 0.91805 0.0
O1188 O 0.84863 0.65961 0.9928 0.0
O1189 O 0.86826 0.6841 1.0062 0.0
O1190 O 0.83253 0.66846 0.91558 0.0
O1191 O 0.81094 0.64773 0.94997 0.0
H1192 H 0.80462 0.60793 0.10413 0.0
H1193 H 0.7882 0.60756 0.16835 0.0
H1194 H 0.75078 0.66256 0.14889 0.0
H1195 H 0.76716 0.66288 0.08496 0.0
H1196 H 0.83241 0.70798 0.86837 0.0
H1197 H 0.83071 0.7178 0.80289 0.0
H1198 H 0.89215 0.73932 0.80329 0.0
H1199 H 0.89373 0.72924 0.86833 0.0
Sm1200 Sm 0.07688 0.06115 0.78175 0.0
Sm1201 Sm 0.0421 0.08562 0.74862 0.0
C1202 C 0.10732 0.04987 0.82154 0.0
C1203 C 0.10962 0.04283 0.8596 0.0
C1204 C 0.09541 0.04923 0.89001 0.0
C1205 C 0.09661 0.04063 0.92502 0.0
C1206 C 0.11197 0.02539 0.93007 0.0
C1207 C 0.12659 0.01966 0.89989 0.0
C1208 C 0.1254 0.02832 0.86494 0.0
C1209 C 0.04858 0.03523 0.75413 0.0
C1210 C 0.0348 0.07766 0.83749 0.0
C1211 C 0.01281 0.10242 0.71203 0.0
C1212 C 0.00472 0.10162 0.67453 0.0
C1213 C 0.01198 0.08641 0.64525 0.0
C1214 C 0.00447 0.08656 0.60933 0.0
C1215 C 0.98961 0.10195 0.60226 0.0
C1216 C 0.98219 0.11688 0.63206 0.0
C1217 C 0.98971 0.11672 0.66782 0.0
C1218 C 0.07082 0.11004 0.78282 0.0
C1219 C 0.07692 0.05979 0.68937 0.0
O1220 O 0.1011 0.06966 0.81972 0.0
O1221 O 0.09857 0.03651 0.79838 0.0
O1222 O 0.04471 0.05327 0.77188 0.0
O1223 O 0.06756 0.02946 0.75366 0.0
O1224 O 0.05408 0.07056 0.83568 0.0
O1225 O 0.02612 0.08252 0.8068 0.0
O1226 O 0.01062 0.08546 0.73103 0.0
O1227 O 0.03052 0.11092 0.71465 0.0
O1228 O 0.07429 0.09352 0.7604 0.0
O1229 O 0.05154 0.11469 0.7863 0.0
O1230 O 0.0581 0.06747 0.69543 0.0
O1231 O 0.08892 0.05869 0.71775 0.0
H1232 H 0.08303 0.06037 0.88638 0.0
H1233 H 0.08501 0.04519 0.94757 0.0
H1234 H 0.13873 0.00816 0.90309 0.0
H1235 H 0.1365 0.02323 0.84175 0.0
H1236 H 0.02358 0.07461 0.65007 0.0
H1237 H 0.01062 0.07496 0.58692 0.0
H1238 H 0.97053 0.12871 0.62778 0.0
H1239 H 0.98389 0.12851 0.69022 0.0
Sm1240 Sm 0.69436 0.34646 0.40473 0.0
Sm1241 Sm 0.6652 0.31573 0.36478 0.0
C1242 C 0.71138 0.37508 0.45019 0.0
C1243 C 0.71206 0.38095 0.49087 0.0
C1244 C 0.69888 0.37205 0.51779 0.0
C1245 C 0.70206 0.37501 0.55645 0.0
C1246 C 0.71855 0.38673 0.56845 0.0
C1247 C 0.73094 0.39659 0.54144 0.0
C1248 C 0.72772 0.39368 0.50296 0.0
C1249 C 0.71268 0.30811 0.37368 0.0
C1250 C 0.67163 0.30908 0.45259 0.0
C1251 C 0.64843 0.28913 0.31483 0.0
C1252 C 0.65276 0.27909 0.27528 0.0
C1253 C 0.67181 0.2696 0.26249 0.0
C1254 C 0.67523 0.25961 0.22549 0.0
C1255 C 0.65975 0.25892 0.2001 0.0
C1256 C 0.6408 0.26871 0.21296 0.0
C1257 C 0.63737 0.27858 0.24996 0.0
C1258 C 0.64575 0.34719 0.41522 0.0
C1259 C 0.69734 0.34499 0.31434 0.0
O1260 O 0.69439 0.37889 0.43492 0.0
O1261 O 0.71984 0.35651 0.43824 0.0
O1262 O 0.69507 0.31099 0.38925 0.0
O1263 O 0.72151 0.32637 0.37411 0.0
O1264 O 0.68044 0.32785 0.4536 0.0
O1265 O 0.66632 0.29925 0.42043 0.0
O1266 O 0.65956 0.28271 0.34123 0.0
O1267 O 0.64425 0.30978 0.31876 0.0
O1268 O 0.66148 0.34977 0.39305 0.0
O1269 O 0.63812 0.329 0.40493 0.0
O1270 O 0.6866 0.32767 0.31677 0.0
O1271 O 0.69968 0.35793 0.34473 0.0
H1272 H 0.68675 0.36209 0.5088 0.0
H1273 H 0.69232 0.36716 0.57663 0.0
H1274 H 0.74357 0.40596 0.54996 0.0
H1275 H 0.73803 0.40063 0.48248 0.0
H1276 H 0.68408 0.26983 0.28111 0.0
H1277 H 0.69012 0.25259 0.21668 0.0
H1278 H 0.62839 0.26836 0.19467 0.0
H1279 H 0.62252 0.28567 0.25897 0.0
H1280 H 0.06253 0.42245 0.23901 0.0
H1281 H 0.10785 0.52276 0.35386 0.0
H1282 H 0.08515 0.4772 0.18458 0.0
H1283 H 0.07643 0.47222 0.40676 0.0
H1284 H 0.10148 0.50571 0.29142 0.0
H1285 H 0.06904 0.43997 0.30033 0.0
C1286 C 0.06883 0.43821 0.23985 0.0
C1287 C 0.07327 0.44835 0.20636 0.0
C1288 C 0.09597 0.49838 0.31671 0.0
C1289 C 0.0809 0.46855 0.27706 0.0
C1290 C 0.09972 0.50802 0.35236 0.0
C1291 C 0.09264 0.49893 0.38565 0.0
C1292 C 0.0852 0.47942 0.3143 0.0
C1293 C 0.08197 0.47995 0.38194 0.0
C1294 C 0.07254 0.44823 0.27504 0.0
C1295 C 0.08144 0.46878 0.20956 0.0
N1296 N 0.07863 0.47083 0.347 0.0
N1297 N 0.08505 0.47818 0.24428 0.0
H1298 H 0.70771 0.85721 0.62205 0.0
H1299 H 0.81248 0.84723 0.49335 0.0
H1300 H 0.76647 0.86028 0.66709 0.0
H1301 H 0.75414 0.85076 0.4469 0.0
H1302 H 0.79578 0.85318 0.55715 0.0
H1303 H 0.72422 0.85561 0.55771 0.0
C1304 C 0.72408 0.85755 0.61842 0.0
C1305 C 0.73571 0.85883 0.65007 0.0
C1306 C 0.7866 0.85281 0.53305 0.0
C1307 C 0.75472 0.85712 0.57648 0.0
C1308 C 0.79614 0.84935 0.49657 0.0
C1309 C 0.78467 0.84829 0.46475 0.0
C1310 C 0.76538 0.85508 0.53789 0.0
C1311 C 0.76357 0.85148 0.47064 0.0
C1312 C 0.73349 0.85677 0.58169 0.0
C1313 C 0.75686 0.85952 0.64362 0.0
N1314 N 0.75458 0.85454 0.50653 0.0
N1315 N 0.76566 0.85854 0.60762 0.0
H1316 H 0.42658 0.55727 0.76725 0.0
H1317 H 0.37963 0.45467 0.85694 0.0
H1318 H 0.39956 0.50677 0.70028 0.0
H1319 H 0.41114 0.5035 0.91942 0.0
H1320 H 0.38625 0.47333 0.79925 0.0
H1321 H 0.42053 0.53764 0.82321 0.0
C1322 C 0.41939 0.54201 0.76421 0.0
C1323 C 0.41352 0.53371 0.72889 0.0
C1324 C 0.39169 0.47994 0.82562 0.0
C1325 C 0.40649 0.51104 0.79332 0.0
C1326 C 0.38797 0.46927 0.85853 0.0
C1327 C 0.39473 0.47759 0.89317 0.0
C1328 C 0.40228 0.49903 0.82737 0.0
C1329 C 0.40529 0.49668 0.89359 0.0
C1330 C 0.41595 0.53077 0.79631 0.0
C1331 C 0.40437 0.51377 0.72688 0.0
N1332 N 0.40872 0.50672 0.86126 0.0
N1333 N 0.40107 0.50313 0.75871 0.0
H1334 H 0.79438 0.13273 0.22684 0.0
H1335 H 0.74148 0.07085 0.05827 0.0
H1336 H 0.77584 0.06739 0.22944 0.0
H1337 H 0.76715 0.133 0.05067 0.0
H1338 H 0.75634 0.06808 0.11883 0.0
H1339 H 0.78745 0.1318 0.16022 0.0
C1340 C 0.78925 0.11801 0.21327 0.0
C1341 C 0.78548 0.10017 0.23404 0.0
C1342 C 0.75887 0.08225 0.10377 0.0
C1343 C 0.77697 0.09923 0.15775 0.0
C1344 C 0.75044 0.08382 0.06908 0.0
C1345 C 0.75288 0.10229 0.04947 0.0
C1346 C 0.76973 0.09933 0.11913 0.0
C1347 C 0.76448 0.11866 0.06516 0.0
C1348 C 0.78512 0.11756 0.1752 0.0
C1349 C 0.77854 0.08169 0.21484 0.0
N1350 N 0.77232 0.11686 0.09916 0.0
N1351 N 0.77427 0.08178 0.17792 0.0
H1352 H 0.93177 0.52411 0.17236 0.0
H1353 H 0.89307 0.53851 0.96746 0.0
H1354 H 0.91904 0.58565 0.13101 0.0
H1355 H 0.92926 0.48339 0.99091 0.0
H1356 H 0.89679 0.554 0.03176 0.0
H1357 H 0.9254 0.50696 0.1099 0.0
C1358 C 0.9275 0.53399 0.15029 0.0
C1359 C 0.9259 0.55633 0.15689 0.0
C1360 C 0.90384 0.53848 1.0228 0.0
C1361 C 0.91844 0.53685 0.08583 0.0
C1362 C 0.90182 0.52963 0.986 0.0
C1363 C 0.91108 0.50968 0.97334 0.0
C1364 C 0.91499 0.52723 0.04746 0.0
C1365 C 0.9217 0.49871 0.99931 0.0
C1366 C 0.92395 0.52421 0.11469 0.0
C1367 C 0.92048 0.56838 0.12719 0.0
N1368 N 0.9234 0.50765 0.0351 0.0
N1369 N 0.91685 0.55848 0.09303 0.0
H1370 H 0.18311 0.14508 0.86241 0.0
H1371 H 0.28862 0.13128 0.73782 0.0
H1372 H 0.2407 0.13882 0.91092 0.0
H1373 H 0.23065 0.12611 0.69024 0.0
H1374 H 0.27139 0.13353 0.80154 0.0
H1375 H 0.20018 0.13737 0.79918 0.0
C1376 C 0.19935 0.14197 0.85976 0.0
C1377 C 0.21054 0.1428 0.89194 0.0
C1378 C 0.26244 0.13173 0.77718 0.0
C1379 C 0.2302 0.13402 0.81962 0.0
C1380 C 0.27226 0.13058 0.74082 0.0
C1381 C 0.26103 0.12864 0.70872 0.0
C1382 C 0.24121 0.13115 0.78149 0.0
C1383 C 0.23989 0.12748 0.71422 0.0
C1384 C 0.20908 0.1375 0.82365 0.0
C1385 C 0.23149 0.13835 0.88687 0.0
N1386 N 0.23065 0.12894 0.74991 0.0
N1387 N 0.24068 0.13437 0.85134 0.0
H1388 H 0.5876 0.53428 0.48208 0.0
H1389 H 0.5981 0.42925 0.5847 0.0
H1390 H 0.62923 0.4827 0.43708 0.0
H1391 H 0.58818 0.48977 0.65094 0.0
H1392 H 0.60662 0.44824 0.52847 0.0
H1393 H 0.58538 0.5186 0.54327 0.0
C1394 C 0.59658 0.51992 0.48509 0.0
C1395 C 0.6084 0.50965 0.45396 0.0
C1396 C 0.60277 0.45737 0.55538 0.0
C1397 C 0.60536 0.4914 0.52364 0.0
C1398 C 0.5978 0.44656 0.58743 0.0
C1399 C 0.59247 0.45799 0.62249 0.0
C1400 C 0.60187 0.47979 0.55812 0.0
C1401 C 0.59233 0.48041 0.6244 0.0
C1402 C 0.59519 0.51094 0.52004 0.0
C1403 C 0.61944 0.49088 0.45976 0.0
N1404 N 0.59668 0.49065 0.59244 0.0
N1405 N 0.61738 0.48217 0.49367 0.0
H1406 H 0.29615 0.89563 0.26733 0.0
H1407 H 0.21351 0.92464 0.12411 0.0
H1408 H 0.23425 0.91594 0.30194 0.0
H1409 H 0.27362 0.89919 0.08761 0.0
H1410 H 0.22273 0.92693 0.18969 0.0
H1411 H 0.28985 0.90163 0.20171 0.0
C1412 C 0.28129 0.90148 0.26121 0.0
C1413 C 0.26568 0.90515 0.29024 0.0
C1414 C 0.23399 0.92104 0.16733 0.0
C1415 C 0.25841 0.91216 0.21528 0.0
C1416 C 0.22878 0.91989 0.12981 0.0
C1417 C 0.24277 0.91153 0.10035 0.0
C1418 C 0.25332 0.91373 0.17551 0.0
C1419 C 0.26225 0.90537 0.10953 0.0
C1420 C 0.27773 0.90499 0.22378 0.0
C1421 C 0.24683 0.91309 0.28069 0.0
N1422 N 0.2669 0.90642 0.14634 0.0
N1423 N 0.24369 0.91615 0.24404 0.0
H1424 H 0.60548 0.02751 0.83571 0.0
H1425 H 0.58521 0.91706 0.72105 0.0
H1426 H 0.61175 0.96615 0.88157 0.0
H1427 H 0.59253 0.97595 0.66692 0.0
H1428 H 0.59487 0.93497 0.78015 0.0
H1429 H 0.60072 0.00923 0.77353 0.0
C1430 C 0.60597 0.01019 0.83259 0.0
C1431 C 0.60894 -0.00169 0.8638 0.0
C1432 C 0.5945 0.94397 0.75533 0.0
C1433 C 0.60346 0.97734 0.79302 0.0
C1434 C 0.58886 0.93378 0.7216 0.0
C1435 C 0.58789 0.9451 0.68914 0.0
C1436 C 0.59895 0.96574 0.7568 0.0
C1437 C 0.59308 0.96665 0.69134 0.0
C1438 C 0.60335 -0.00022 0.79712 0.0
C1439 C 0.60966 0.97592 0.85819 0.0
N1440 N 0.59821 0.97636 0.72477 0.0
N1441 N 0.60675 0.96617 0.82357 0.0
H1442 H 0.31469 0.34093 0.99396 0.0
H1443 H 0.21194 0.37042 0.12301 0.0
H1444 H 0.25752 0.35417 0.94786 0.0
H1445 H 0.26819 0.35141 0.16709 0.0
H1446 H 0.22896 0.36806 0.05911 0.0
H1447 H 0.29852 0.34826 0.0578 0.0
C1448 C 0.29872 0.34542 0.99724 0.0
C1449 C 0.28738 0.34662 0.96548 0.0
C1450 C 0.2376 0.3645 0.08278 0.0
C1451 C 0.26872 0.35518 0.03875 0.0
C1452 C 0.22792 0.36596 0.11931 0.0
C1453 C 0.23864 0.36104 0.15047 0.0
C1454 C 0.25817 0.35812 0.07733 0.0
C1455 C 0.25926 0.35507 0.14387 0.0
C1456 C 0.28949 0.34966 0.03378 0.0
C1457 C 0.26683 0.35298 0.97153 0.0
N1458 N 0.26833 0.35374 0.10806 0.0
N1459 N 0.25811 0.35687 1.00749 0.0
H1460 H 0.87977 0.00705 0.20494 0.0
H1461 H 0.92448 0.96567 0.38948 0.0
H1462 H 0.92914 0.03664 0.25983 0.0
H1463 H 0.8607 0.96217 0.373 0.0
H1464 H 0.92928 0.98439 0.33171 0.0
H1465 H 0.87506 0.98398 0.25781 0.0
C1466 C 0.88962 0.00863 0.22803 0.0
C1467 C 0.9048 0.02379 0.22821 0.0
C1468 C 0.91428 0.9793 0.34054 0.0
C1469 C 0.89981 -0.00267 0.28776 0.0
C1470 C 0.91156 0.96842 0.37321 0.0
C1471 C 0.89216 0.96237 0.38596 0.0
C1472 C 0.89753 0.98397 0.3202 0.0
C1473 C 0.87587 0.96669 0.36413 0.0
C1474 C 0.8869 0.99554 0.25806 0.0
C1475 C 0.91715 0.02527 0.25875 0.0
N1476 N 0.87891 0.97728 0.3322 0.0
N1477 N 0.91448 0.01209 0.28716 0.0
H1478 H 0.25815 0.56442 0.55541 0.0
H1479 H 0.23065 0.58996 0.77832 0.0
H1480 H 0.20644 0.60349 0.60297 0.0
H1481 H 0.28854 0.56307 0.73082 0.0
H1482 H 0.21896 0.58936 0.71446 0.0
H1483 H 0.26685 0.55824 0.61975 0.0
C1484 C 0.24849 0.57146 0.5794 0.0
C1485 C 0.23164 0.58463 0.57392 0.0
C1486 C 0.23416 0.58341 0.71802 0.0
C1487 C 0.24156 0.57776 0.64742 0.0
C1488 C 0.24079 0.58359 0.75448 0.0
C1489 C 0.26062 0.57662 0.75982 0.0
C1490 C 0.24743 0.57614 0.68665 0.0
C1491 C 0.27321 0.56882 0.72786 0.0
C1492 C 0.25353 0.56804 0.61607 0.0
C1493 C 0.21973 0.5935 0.60598 0.0
N1494 N 0.26643 0.56886 0.69258 0.0
N1495 N 0.22496 0.58997 0.64137 0.0
H1496 H 0.39439 0.01488 0.68587 0.0
H1497 H 0.3919 0.02611 0.46275 0.0
H1498 H 0.41151 0.07112 0.62999 0.0
H1499 H 0.37584 0.96859 0.51548 0.0
H1500 H 0.39644 0.0437 0.52518 0.0
H1501 H 0.38485 -0.00161 0.62503 0.0
C1502 C 0.39606 0.02379 0.6609 0.0
C1503 C 0.404 0.04431 0.66293 0.0
C1504 C 0.39182 0.02726 0.52323 0.0
C1505 C 0.3931 0.02562 0.59348 0.0
C1506 C 0.38929 0.0172 0.48756 0.0
C1507 C 0.38369 -0.00419 0.48395 0.0
C1508 C 0.38883 0.01583 0.55563 0.0
C1509 C 0.38012 0.98513 0.51707 0.0
C1510 C 0.39063 0.01438 0.62621 0.0
C1511 C 0.40578 0.05516 0.62974 0.0
N1512 N 0.38292 0.99521 0.55157 0.0
N1513 N 0.40045 0.04566 0.59643 0.0
H1514 H 0.72776 0.64045 0.18592 0.0
H1515 H 0.74297 0.642 0.40822 0.0
H1516 H 0.78586 0.62946 0.23007 0.0
H1517 H 0.68494 0.649 0.36166 0.0
H1518 H 0.75893 0.63529 0.34356 0.0
H1519 H 0.71178 0.64211 0.25041 0.0
C1520 C 0.73716 0.63841 0.20923 0.0
C1521 C 0.7582 0.63496 0.2026 0.0
C1522 C 0.74269 0.63818 0.34755 0.0
C1523 C 0.73997 0.63672 0.27671 0.0
C1524 C 0.73357 0.64192 0.38445 0.0
C1525 C 0.71264 0.64639 0.39031 0.0
C1526 C 0.73077 0.63889 0.31639 0.0
C1527 C 0.70118 0.6461 0.35848 0.0
C1528 C 0.72802 0.63923 0.24607 0.0
C1529 C 0.76958 0.63203 0.23387 0.0
N1530 N 0.71041 0.64257 0.32296 0.0
N1531 N 0.76034 0.63312 0.2696 0.0
H1532 H 0.09604 0.99081 0.16292 0.0
H1533 H 0.11829 0.98276 0.93705 0.0
H1534 H 0.09608 0.93208 0.091 0.0
H1535 H 0.10482 0.04262 1.00377 0.0
H1536 H 0.11531 0.96413 0.99497 0.0
H1537 H 0.104 0.01019 0.10643 0.0
C1538 C 0.09785 0.98199 0.13531 0.0
C1539 C 0.09519 0.95985 0.13155 0.0
C1540 C 0.11312 0.98136 0.99702 0.0
C1541 C 0.10435 0.98181 0.06712 0.0
C1542 C 0.11499 0.99203 0.96397 0.0
C1543 C 0.11177 0.01429 0.96556 0.0
C1544 C 0.10801 0.99298 0.03204 0.0
C1545 C 0.10719 0.02542 1.00124 0.0
C1546 C 0.10231 0.99305 0.10313 0.0
C1547 C 0.09767 0.94919 0.09515 0.0
N1548 N 0.10539 0.01463 0.03311 0.0
N1549 N 0.1021 0.96027 0.06437 0.0
H1550 H 0.75604 0.37984 0.59261 0.0
H1551 H 0.72228 0.39803 0.81423 0.0
H1552 H 0.69385 0.39372 0.63458 0.0
H1553 H 0.77917 0.3679 0.76852 0.0
H1554 H 0.71224 0.40036 0.74927 0.0
H1555 H 0.76545 0.37934 0.65768 0.0
C1556 C 0.74438 0.38301 0.61562 0.0
C1557 C 0.72415 0.387 0.60822 0.0
C1558 C 0.72689 0.39323 0.75356 0.0
C1559 C 0.73481 0.38619 0.68298 0.0
C1560 C 0.73268 0.39202 0.79052 0.0
C1561 C 0.75156 0.3827 0.79668 0.0
C1562 C 0.74021 0.38531 0.72267 0.0
C1563 C 0.76439 0.37499 0.76504 0.0
C1564 C 0.74974 0.38255 0.65278 0.0
C1565 C 0.7096 0.39053 0.63912 0.0
N1566 N 0.75851 0.37652 0.72945 0.0
N1567 N 0.71523 0.39013 0.67527 0.0
H1568 H 0.141 0.37309 0.32955 0.0
H1569 H 0.10052 0.35803 0.11958 0.0
H1570 H 0.11923 0.3137 0.28133 0.0
H1571 H 0.11427 0.41914 0.17396 0.0
H1572 H 0.1096 0.34097 0.1767 0.0
H1573 H 0.1333 0.38992 0.27142 0.0
C1574 C 0.13461 0.3636 0.30681 0.0
C1575 C 0.13084 0.34192 0.31045 0.0
C1576 C 0.11067 0.35812 0.1761 0.0
C1577 C 0.12197 0.36105 0.24355 0.0
C1578 C 0.10551 0.36784 0.14341 0.0
C1579 C 0.10622 0.3901 0.14208 0.0
C1580 C 0.11695 0.37069 0.20761 0.0
C1581 C 0.11323 0.40195 0.17368 0.0
C1582 C 0.1302 0.3732 0.27357 0.0
C1583 C 0.12239 0.33046 0.27998 0.0
N1584 N 0.11816 0.39218 0.205 0.0
N1585 N 0.11835 0.34008 0.24799 0.0
H1586 H 0.93495 0.86604 0.50063 0.0
H1587 H 0.82437 0.88395 0.42883 0.0
H1588 H 0.88202 0.8849 0.57519 0.0
H1589 H 0.8729 0.85001 0.35914 0.0
H1590 H 0.84666 0.88835 0.48062 0.0
H1591 H 0.91356 0.86263 0.447 0.0
C1592 C 0.91876 0.86917 0.50578 0.0
C1593 C 0.91019 0.87587 0.54233 0.0
C1594 C 0.85252 0.88008 0.45394 0.0
C1595 C 0.88574 0.87237 0.48108 0.0
C1596 C 0.83987 0.87777 0.42418 0.0
C1597 C 0.84682 0.86652 0.3897 0.0
C1598 C 0.87237 0.87128 0.44911 0.0
C1599 C 0.86699 0.85874 0.38536 0.0
C1600 C 0.9066 0.86738 0.47512 0.0
C1601 C 0.88921 0.87986 0.54737 0.0
N1602 N 0.87907 0.86119 0.41481 0.0
N1603 N 0.87771 0.87822 0.51706 0.0
H1604 H 0.35343 0.66786 0.86733 0.0
H1605 H 0.37296 0.56251 0.72327 0.0
H1606 H 0.34415 0.60429 0.90171 0.0
H1607 H 0.38194 0.62631 0.68987 0.0
H1608 H 0.3624 0.57724 0.78789 0.0
H1609 H 0.36399 0.65287 0.80313 0.0
C1610 C 0.3536 0.65065 0.86154 0.0
C1611 C 0.34751 0.63742 0.89045 0.0
C1612 C 0.3667 0.58809 0.76661 0.0
C1613 C 0.35988 0.61989 0.81558 0.0
C1614 C 0.37275 0.57969 0.72943 0.0
C1615 C 0.37876 0.59311 0.70076 0.0
C1616 C 0.3663 0.61029 0.77576 0.0
C1617 C 0.37785 0.61525 0.7109 0.0
C1618 C 0.35962 0.64209 0.82451 0.0
C1619 C 0.34817 0.61524 0.88051 0.0
N1620 N 0.37185 0.62308 0.74737 0.0
N1621 N 0.3542 0.60723 0.84411 0.0
H1622 H 0.6389 0.17231 0.93189 0.0
H1623 H 0.61967 0.08285 0.07304 0.0
H1624 H 0.65664 0.10751 0.88989 0.0
H1625 H 0.57538 0.13131 0.05155 0.0
H1626 H 0.6418 0.09388 1.01912 0.0
H1627 H 0.62531 0.15957 0.9906 0.0
C1628 C 0.64015 0.1553 0.93501 0.0
C1629 C 0.64879 0.14089 0.9055 0.0
C1630 C 0.62724 0.10199 0.02654 0.0
C1631 C 0.63279 0.12625 0.9734 0.0
C1632 C 0.61469 0.09585 0.05719 0.0
C1633 C 0.59546 0.1058 0.06593 0.0
C1634 C 0.6207 0.11878 1.00605 0.0
C1635 C 0.58992 0.12295 0.04545 0.0
C1636 C 0.63236 0.14812 0.96877 0.0
C1637 C 0.65004 0.1191 0.91187 0.0
N1638 N 0.60247 0.12887 1.01651 0.0
N1639 N 0.64181 0.1123 0.94523 0.0
H1640 H 0.12424 0.59409 0.55913 0.0
H1641 H 0.14813 0.68429 0.42184 0.0
H1642 H 0.08203 0.64568 0.54321 0.0
H1643 H 0.16867 0.61976 0.38406 0.0
H1644 H 0.12807 0.67096 0.47405 0.0
H1645 H 0.14506 0.60354 0.50232 0.0
C1646 C 0.1193 0.60724 0.54361 0.0
C1647 C 0.10129 0.61899 0.55564 0.0
C1648 C 0.13694 0.65962 0.45444 0.0
C1649 C 0.12501 0.63003 0.49186 0.0
C1650 C 0.14842 0.6672 0.42436 0.0
C1651 C 0.16051 0.65312 0.39879 0.0
C1652 C 0.13742 0.63774 0.45952 0.0
C1653 C 0.16006 0.63117 0.40386 0.0
C1654 C 0.13112 0.61255 0.5113 0.0
C1655 C 0.09577 0.63616 0.53507 0.0
N1656 N 0.14884 0.62406 0.43407 0.0
N1657 N 0.10761 0.6412 0.50447 0.0
H1658 H 0.62317 0.90751 0.65153 0.0
H1659 H 0.61168 0.81012 0.78455 0.0
H1660 H 0.58786 0.85268 0.6231 0.0
H1661 H 0.64198 0.86802 0.81576 0.0
H1662 H 0.60307 0.82489 0.72562 0.0
H1663 H 0.63074 0.89265 0.71045 0.0
C1664 C 0.61699 0.89223 0.65752 0.0
C1665 C 0.60454 0.88151 0.63215 0.0
C1666 C 0.6116 0.83441 0.74526 0.0
C1667 C 0.61341 0.86416 0.70064 0.0
C1668 C 0.61652 0.82601 0.77912 0.0
C1669 C 0.62781 0.83774 0.80524 0.0
C1670 C 0.61798 0.8548 0.73707 0.0
C1671 C 0.63361 0.85821 0.79633 0.0
C1672 C 0.6213 0.88379 0.69153 0.0
C1673 C 0.59712 0.86176 0.64198 0.0
N1674 N 0.6287 0.86602 0.76307 0.0
N1675 N 0.60166 0.85374 0.67537 0.0
H1676 H 0.38291 0.38067 0.08195 0.0
H1677 H 0.37566 0.34465 0.86114 0.0
H1678 H 0.43472 0.35871 1.00669 0.0
H1679 H 0.32743 0.37818 0.93226 0.0
H1680 H 0.39723 0.34739 0.91474 0.0
H1681 H 0.36136 0.37583 0.02865 0.0
C1682 C 0.38965 0.37447 0.05435 0.0
C1683 C 0.41059 0.37026 0.04858 0.0
C1684 C 0.38197 0.35428 0.9185 0.0
C1685 C 0.38624 0.36506 0.98747 0.0
C1686 C 0.36976 0.35286 0.88787 0.0
C1687 C 0.34979 0.36117 0.89233 0.0
C1688 C 0.37404 0.36391 0.95386 0.0
C1689 C 0.34277 0.37158 0.92755 0.0
C1690 C 0.37742 0.37191 0.02388 0.0
C1691 C 0.41862 0.36221 1.01233 0.0
N1692 N 0.35481 0.37246 0.95705 0.0
N1693 N 0.40648 0.36008 0.98305 0.0
H1694 H 0.83466 0.10295 0.40536 0.0
H1695 H 0.89436 0.1205 0.20255 0.0
H1696 H 0.87129 0.15712 0.3847 0.0
H1697 H 0.86032 0.06457 0.22341 0.0
H1698 H 0.8858 0.13426 0.26899 0.0
H1699 H 0.84351 0.08857 0.33917 0.0
C1700 C 0.84446 0.11187 0.38706 0.0
C1701 C 0.85196 0.13146 0.40098 0.0
C1702 C 0.88021 0.11894 0.25907 0.0
C1703 C 0.86238 0.11499 0.32468 0.0
C1704 C 0.88526 0.11101 0.22105 0.0
C1705 C 0.87842 0.09113 0.20711 0.0
C1706 C 0.86802 0.10706 0.28366 0.0
C1707 C 0.86605 0.07995 0.23254 0.0
C1708 C 0.84963 0.10361 0.34918 0.0
C1709 C 0.86502 0.14199 0.37568 0.0
N1710 N 0.86133 0.08798 0.26923 0.0
N1711 N 0.86965 0.13377 0.33914 0.0
H1712 H 0.90301 0.64345 0.23803 0.0
H1713 H 0.85611 0.62412 0.03434 0.0
H1714 H 0.88195 0.58284 0.19389 0.0
H1715 H 0.88111 0.68371 0.07387 0.0
H1716 H 0.86425 0.60914 0.09378 0.0
H1717 H 0.8938 0.65913 0.17967 0.0
C1718 C 0.89661 0.63341 0.21604 0.0
C1719 C 0.8939 0.61163 0.22057 0.0
C1720 C 0.86795 0.62551 0.08949 0.0
C1721 C 0.88268 0.62956 0.15397 0.0
C1722 C 0.86324 0.63407 0.05552 0.0
C1723 C 0.86781 0.65524 0.04901 0.0
C1724 C 0.87732 0.6382 0.1174 0.0
C1725 C 0.87734 0.66728 0.07745 0.0
C1726 C 0.89121 0.64238 0.18278 0.0
C1727 C 0.88459 0.59966 0.19173 0.0
N1728 N 0.8817 0.65866 0.11023 0.0
N1729 N 0.87949 0.60868 0.15982 0.0
H1730 H 0.05966 0.12604 0.85528 0.0
H1731 H 0.1706 0.1105 0.92539 0.0
H1732 H 0.11229 0.1084 0.7791 0.0
H1733 H 0.12163 0.14348 0.99543 0.0
H1734 H 0.14866 0.1069 0.87289 0.0
H1735 H 0.08152 0.13125 0.90763 0.0
C1736 C 0.07589 0.12364 0.84944 0.0
C1737 C 0.08422 0.11658 0.81289 0.0
C1738 C 0.14265 0.11481 0.89978 0.0
C1739 C 0.10928 0.12216 0.87285 0.0
C1740 C 0.15508 0.11664 0.92993 0.0
C1741 C 0.14787 0.12732 0.96479 0.0
C1742 C 0.12274 0.12344 0.90465 0.0
C1743 C 0.12772 0.13512 0.96897 0.0
C1744 C 0.08835 0.12647 0.87943 0.0
C1745 C 0.10531 0.11371 0.80696 0.0
N1746 N 0.11584 0.13306 0.93921 0.0
N1747 N 0.11712 0.11625 0.83675 0.0
H1748 H 0.6567 0.38661 0.45013 0.0
H1749 H 0.60021 0.36657 0.65475 0.0
H1750 H 0.62305 0.33061 0.4726 0.0
H1751 H 0.63482 0.42226 0.63519 0.0
H1752 H 0.60844 0.35331 0.588 0.0
H1753 H 0.64915 0.40018 0.51718 0.0
C1754 C 0.64796 0.37704 0.46902 0.0
C1755 C 0.64092 0.35719 0.4553 0.0
C1756 C 0.61426 0.36846 0.59826 0.0
C1757 C 0.63168 0.37289 0.53248 0.0
C1758 C 0.60937 0.37612 0.63647 0.0
C1759 C 0.61636 0.39583 0.65086 0.0
C1760 C 0.62644 0.38046 0.57385 0.0
C1761 C 0.62893 0.40701 0.62571 0.0
C1762 C 0.64346 0.38488 0.50739 0.0
C1763 C 0.62896 0.34597 0.48137 0.0
N1764 N 0.63343 0.39929 0.58876 0.0
N1765 N 0.62484 0.35386 0.51822 0.0
H1766 H 0.33885 0.81229 0.40512 0.0
H1767 H 0.37029 0.90809 0.28324 0.0
H1768 H 0.32565 0.87659 0.45497 0.0
H1769 H 0.40811 0.85224 0.29494 0.0
H1770 H 0.3457 0.89622 0.33259 0.0
H1771 H 0.35469 0.82645 0.34916 0.0
C1772 C 0.33908 0.8295 0.40421 0.0
C1773 C 0.33127 0.84332 0.43522 0.0
C1774 C 0.35937 0.88665 0.32402 0.0
C1775 C 0.34972 0.85958 0.37074 0.0
C1776 C 0.37333 0.8933 0.29598 0.0
C1777 C 0.39146 0.88134 0.28578 0.0
C1778 C 0.36333 0.86751 0.34045 0.0
C1779 C 0.39449 0.8621 0.30231 0.0
C1780 C 0.34813 0.83751 0.3721 0.0
C1781 C 0.33166 0.86544 0.43178 0.0
N1782 N 0.38057 0.85579 0.32875 0.0
N1783 N 0.34114 0.87301 0.40014 0.0
H1784 H 0.89988 0.42268 0.83783 0.0
H1785 H 0.84886 0.3245 0.91035 0.0
H1786 H 0.87888 0.37319 0.76045 0.0
H1787 H 0.83969 0.38492 0.97703 0.0
H1788 H 0.85816 0.34307 0.8548 0.0
H1789 H 0.87635 0.41141 0.88816 0.0
C1790 C 0.88988 0.40982 0.83116 0.0
C1791 C 0.89146 0.39868 0.79506 0.0
C1792 C 0.85374 0.35241 0.88126 0.0
C1793 C 0.8649 0.38539 0.85275 0.0
C1794 C 0.84842 0.3418 0.91319 0.0
C1795 C 0.84328 0.35321 0.94839 0.0
C1796 C 0.85498 0.37468 0.88462 0.0
C1797 C 0.84349 0.37558 0.95035 0.0
C1798 C 0.87644 0.40341 0.85993 0.0
C1799 C 0.87826 0.38207 0.78798 0.0
N1800 N 0.84975 0.38565 0.91894 0.0
N1801 N 0.86584 0.37558 0.81687 0.0
H1802 H 0.37727 0.18094 0.57343 0.0
H1803 H 0.3697 0.08025 0.69895 0.0
H1804 H 0.35598 0.11991 0.53187 0.0
H1805 H 0.40242 0.13623 0.73213 0.0
H1806 H 0.3631 0.09535 0.63964 0.0
H1807 H 0.38544 0.16567 0.63215 0.0
C1808 C 0.37432 0.16426 0.57655 0.0
C1809 C 0.36559 0.1518 0.54762 0.0
C1810 C 0.37177 0.10439 0.6597 0.0
C1811 C 0.37494 0.13412 0.61557 0.0
C1812 C 0.37551 0.09583 0.69393 0.0
C1813 C 0.38694 0.10682 0.72078 0.0
C1814 C 0.3791 0.12447 0.65197 0.0
C1815 C 0.3939 0.12696 0.71217 0.0
C1816 C 0.379 0.15556 0.61028 0.0
C1817 C 0.36227 0.13027 0.55355 0.0
N1818 N 0.38984 0.13514 0.67865 0.0
N1819 N 0.36679 0.12219 0.58684 0.0
H1820 H 0.57019 0.6347 0.33481 0.0
H1821 H 0.67567 0.61043 0.42283 0.0
H1822 H 0.61941 0.59723 0.27416 0.0
H1823 H 0.62513 0.64493 0.48565 0.0
H1824 H 0.6559 0.60662 0.36736 0.0
H1825 H 0.5912 0.6414 0.38831 0.0
C1826 C 0.58574 0.62856 0.33233 0.0
C1827 C 0.59336 0.61591 0.2998 0.0
C1828 C 0.64904 0.61491 0.39329 0.0
C1829 C 0.61712 0.62251 0.36148 0.0
C1830 C 0.66025 0.61691 0.42516 0.0
C1831 C 0.65202 0.62811 0.45887 0.0
C1832 C 0.62936 0.62405 0.39514 0.0
C1833 C 0.63203 0.63624 0.46014 0.0
C1834 C 0.5976 0.63206 0.36307 0.0
C1835 C 0.61324 0.60756 0.29842 0.0
N1836 N 0.62141 0.63416 0.42865 0.0
N1837 N 0.62442 0.61088 0.32896 0.0
H1838 H 0.15624 0.88514 0.95857 0.0
H1839 H 0.10362 0.86571 0.16624 0.0
H1840 H 0.1389 0.82328 0.99202 0.0
H1841 H 0.13425 0.92331 0.14188 0.0
H1842 H 0.11326 0.85096 0.1006 0.0
H1843 H 0.14537 0.90058 0.02337 0.0
C1844 C 0.15039 0.87475 0.97947 0.0
C1845 C 0.14909 0.85273 0.96967 0.0
C1846 C 0.11786 0.86686 0.10963 0.0
C1847 C 0.13582 0.87043 0.044 0.0
C1848 C 0.11225 0.87531 0.14717 0.0
C1849 C 0.118 0.89585 0.15997 0.0
C1850 C 0.12923 0.87903 0.08426 0.0
C1851 C 0.1295 0.90735 0.13371 0.0
C1852 C 0.144 0.88359 1.01649 0.0
C1853 C 0.14043 0.84031 0.9979 0.0
N1854 N 0.1346 0.8989 0.09743 0.0
N1855 N 0.13424 0.84924 0.03339 0.0
H1856 H 0.00596 0.56367 0.1952 0.0
H1857 H 0.99233 0.43825 0.1631 0.0
H1858 H 0.95982 0.53016 0.25649 0.0
H1859 H 0.04283 0.47048 0.11194 0.0
H1860 H 0.97993 0.47193 0.19648 0.0
H1861 H 0.02064 0.52965 0.16674 0.0
C1862 C -0.00077 0.54901 0.20337 0.0
C1863 C 0.98167 0.54958 0.22812 0.0
C1864 C 0.9937 0.47171 0.17795 0.0
C1865 C 0.99793 0.51068 0.19467 0.0
C1866 C 0.00069 0.45254 0.15851 0.0
C1867 C 0.01875 0.4516 0.13501 0.0
C1868 C 0.0048 0.49015 0.17374 0.0
C1869 C 0.02892 0.47053 0.12998 0.0
C1870 C 0.0075 0.52962 0.18684 0.0
C1871 C 0.97344 0.53029 0.23774 0.0
N1872 N 0.02184 0.48909 0.14944 0.0
N1873 N 0.98149 0.51153 0.22046 0.0
H1874 H 0.79331 0.7483 0.3479 0.0
H1875 H 0.70395 0.74573 0.51159 0.0
H1876 H 0.76121 0.80481 0.40143 0.0
H1877 H 0.73679 0.68941 0.45912 0.0
H1878 H 0.72588 0.76786 0.47364 0.0
H1879 H 0.77181 0.72632 0.3869 0.0
C1880 C 0.78141 0.75604 0.36725 0.0
C1881 C 0.77918 0.77839 0.37182 0.0
C1882 C 0.72843 0.75067 0.47073 0.0
C1883 C 0.75495 0.75346 0.41719 0.0
C1884 C 0.7161 0.73806 0.49276 0.0
C1885 C 0.71837 0.71572 0.488 0.0
C1886 C 0.74308 0.74081 0.44384 0.0
C1887 C 0.7344 0.70659 0.4634 0.0
C1888 C 0.76934 0.74352 0.38988 0.0
C1889 C 0.76351 0.78762 0.39717 0.0
N1890 N 0.74598 0.71918 0.44177 0.0
N1891 N 0.75214 0.77511 0.41931 0.0
H1892 H 0.49964 0.44267 0.72829 0.0
H1893 H 0.49853 0.55237 0.62835 0.0
H1894 H 0.55177 0.48151 0.71053 0.0
H1895 H 0.44517 0.51563 0.64649 0.0
H1896 H 0.51877 0.52417 0.65235 0.0
H1897 H 0.47919 0.46865 0.69819 0.0
C1898 C 0.50668 0.4569 0.71887 0.0
C1899 C 0.52751 0.45982 0.72153 0.0
C1900 C 0.50268 0.52205 0.65065 0.0
C1901 C 0.50436 0.4892 0.68617 0.0
C1902 C 0.49119 0.53797 0.63628 0.0
C1903 C 0.47014 0.53641 0.63597 0.0
C1904 C 0.49299 0.50452 0.66525 0.0
C1905 C 0.46132 0.51754 0.64665 0.0
C1906 C 0.49507 0.47155 0.70117 0.0
C1907 C 0.53581 0.47854 0.70887 0.0
N1908 N 0.47275 0.50243 0.66168 0.0
N1909 N 0.52427 0.49238 0.69136 0.0
H1910 H 0.76077 0.18353 0.88782 0.0
H1911 H 0.73425 0.30245 0.97744 0.0
H1912 H 0.70982 0.22206 0.86005 0.0
H1913 H 0.78742 0.26588 1.00059 0.0
H1914 H 0.72327 0.27159 0.939 0.0
H1915 H 0.77134 0.21365 0.9287 0.0
C1916 C 0.75222 0.19858 0.88927 0.0
C1917 C 0.73428 0.20037 0.87099 0.0
C1918 C 0.73719 0.27019 0.95301 0.0
C1919 C 0.74568 0.23435 0.91863 0.0
C1920 C 0.74321 0.28765 0.97561 0.0
C1921 C 0.76188 0.28664 0.9916 0.0
C1922 C 0.75 0.25182 0.94664 0.0
C1923 C 0.77302 0.2672 0.98825 0.0
C1924 C 0.758 0.21561 0.9132 0.0
C1925 C 0.72365 0.2201 0.87399 0.0
N1926 N 0.7671 0.2506 0.96547 0.0
N1927 N 0.72932 0.23628 0.89797 0.0
H1928 H 0.97574 0.44293 0.66156 0.0
H1929 H 0.02715 0.55492 0.67803 0.0
H1930 H 0.0004 0.47019 0.76331 0.0
H1931 H 0.02466 0.51898 0.56955 0.0
H1932 H 0.0126 0.52509 0.70923 0.0
H1933 H 0.99225 0.47019 0.6258 0.0
C1934 C 0.98515 0.45423 0.67612 0.0
C1935 C 0.98629 0.45481 0.71558 0.0
C1936 C 0.01514 0.52377 0.67857 0.0
C1937 C 0.00453 0.48607 0.67535 0.0
C1938 C 0.02309 0.5409 0.66075 0.0
C1939 C 0.02741 0.53913 0.62134 0.0
C1940 C 0.01133 0.50492 0.65671 0.0
C1941 C 0.02171 0.52079 0.60012 0.0
C1942 C 0.99434 0.4699 0.65579 0.0
C1943 C -0.0012 0.46956 0.73304 0.0
N1944 N 0.01411 0.50416 0.6182 0.0
N1945 N 0.00711 0.48499 0.71289 0.0
H1946 H 0.76489 0.72334 0.02308 0.0
H1947 H 0.73033 0.76819 0.83111 0.0
H1948 H 0.79841 0.71095 0.91411 0.0
H1949 H 0.69727 0.78152 0.94033 0.0
H1950 H 0.75501 0.74645 0.86077 0.0
H1951 H 0.74006 0.74492 0.99345 0.0
C1952 C 0.76711 0.72533 0.99297 0.0
C1953 C 0.78368 0.71532 0.97097 0.0
C1954 C 0.74232 0.75405 0.87825 0.0
C1955 C 0.75524 0.73976 0.93678 0.0
C1956 C 0.72818 0.76636 0.86128 0.0
C1957 C 0.7118 0.77671 0.88334 0.0
C1958 C 0.74008 0.75208 0.91758 0.0
C1959 C 0.70971 0.77382 0.9223 0.0
C1960 C 0.75288 0.73756 0.97603 0.0
C1961 C 0.78584 0.7184 0.93209 0.0
N1962 N 0.72375 0.76186 0.93822 0.0
N1963 N 0.77172 0.73027 0.9162 0.0
H1964 H 0.44931 0.49441 0.09706 0.0
H1965 H 0.51816 0.5077 0.26854 0.0
H1966 H 0.47885 0.44049 0.14105 0.0
H1967 H 0.51576 0.55544 0.1873 0.0
H1968 H 0.49829 0.48434 0.2284 0.0
H1969 H 0.46974 0.51852 0.13476 0.0
C1970 C 0.46041 0.48771 0.11423 0.0
C1971 C 0.46267 0.4656 0.11609 0.0
C1972 C 0.50209 0.49997 0.21955 0.0
C1973 C 0.48532 0.49279 0.15971 0.0
C1974 C 0.51315 0.51338 0.24256 0.0
C1975 C 0.51864 0.53335 0.23082 0.0
C1976 C 0.4963 0.50686 0.18515 0.0
C1977 C 0.51185 0.54004 0.19702 0.0
C1978 C 0.47194 0.5014 0.13568 0.0
C1979 C 0.47702 0.4575 0.13868 0.0
N1980 N 0.50097 0.52673 0.17515 0.0
N1981 N 0.4877 0.47119 0.16027 0.0
H1982 H 0.79578 0.22192 0.46665 0.0
H1983 H 0.69746 0.26868 0.3787 0.0
H1984 H 0.73921 0.18953 0.46429 0.0
H1985 H 0.75305 0.30256 0.38507 0.0
H1986 H 0.71321 0.23869 0.40686 0.0
H1987 H 0.78036 0.25185 0.4377 0.0
C1988 C 0.77995 0.22134 0.46088 0.0
C1989 C 0.76879 0.20316 0.46774 0.0
C1990 C 0.72207 0.25255 0.40171 0.0
C1991 C 0.75119 0.23712 0.43364 0.0
C1992 C 0.71318 0.26956 0.38514 0.0
C1993 C 0.72393 0.28817 0.37969 0.0
C1994 C 0.74191 0.25413 0.41294 0.0
C1995 C 0.74422 0.28851 0.38869 0.0
C1996 C 0.77123 0.23832 0.4439 0.0
C1997 C 0.74838 0.20322 0.45954 0.0
N1998 N 0.75248 0.27183 0.40529 0.0
N1999 N 0.7403 0.21984 0.44253 0.0
H2000 H 0.29084 0.24705 0.8428 0.0
H2001 H 0.20415 0.24364 1.01131 0.0
H2002 H 0.26202 0.30347 0.90339 0.0
H2003 H 0.2342 0.18734 0.95256 0.0
H2004 H 0.22596 0.26592 0.97341 0.0
H2005 H 0.26894 0.22488 0.88071 0.0
C2006 C 0.27956 0.25476 0.86349 0.0
C2007 C 0.27839 0.27709 0.87031 0.0
C2008 C 0.22793 0.2487 0.96908 0.0
C2009 C 0.25371 0.25189 0.91444 0.0
C2010 C 0.21568 0.23599 0.99105 0.0
C2011 C 0.21724 0.21365 0.98473 0.0
C2012 C 0.24179 0.23896 0.9406 0.0
C2013 C 0.23243 0.20452 0.95822 0.0
C2014 C 0.26726 0.24211 0.88547 0.0
C2015 C 0.26349 0.28629 0.89734 0.0
N2016 N 0.24396 0.21724 0.93672 0.0
N2017 N 0.25189 0.27363 0.91881 0.0
H2018 H 0.26078 0.70622 0.35333 0.0
H2019 H 0.2582 0.77773 0.54594 0.0
H2020 H 0.26022 0.67613 0.4585 0.0
H2021 H 0.22948 0.7955 0.44733 0.0
H2022 H 0.26152 0.74068 0.51822 0.0
H2023 H 0.25742 0.74115 0.38911 0.0
C2024 C 0.26104 0.70706 0.38395 0.0
C2025 C 0.2602 0.68845 0.40315 0.0
C2026 C 0.25397 0.7526 0.50321 0.0
C2027 C 0.25555 0.72788 0.44411 0.0
C2028 C 0.25149 0.77355 0.51946 0.0
C2029 C 0.24394 0.7896 0.49837 0.0
C2030 C 0.249 0.74812 0.46574 0.0
C2031 C 0.23556 0.78352 0.46424 0.0
C2032 C 0.25846 0.7269 0.40436 0.0
C2033 C 0.26078 0.69027 0.44279 0.0
N2034 N 0.23908 0.76335 0.44809 0.0
N2035 N 0.25777 0.70973 0.46228 0.0
H2036 H 0.30346 0.21891 0.43363 0.0
H2037 H 0.19179 0.26974 0.4181 0.0
H2038 H 0.25032 0.20116 0.50028 0.0
H2039 H 0.24472 0.28684 0.35015 0.0
H2040 H 0.21294 0.24431 0.44847 0.0
H2041 H 0.28231 0.24428 0.40307 0.0
C2042 C 0.28739 0.22051 0.44203 0.0
C2043 C 0.2786 0.20802 0.46953 0.0
C2044 C 0.21991 0.25355 0.42676 0.0
C2045 C 0.2543 0.23673 0.43464 0.0
C2046 C 0.20781 0.26796 0.40934 0.0
C2047 C 0.21654 0.2803 0.38155 0.0
C2048 C 0.24086 0.25152 0.41625 0.0
C2049 C 0.2374 0.27757 0.37144 0.0
C2050 C 0.27529 0.23489 0.42451 0.0
C2051 C 0.25769 0.21054 0.47921 0.0
N2052 N 0.24885 0.26352 0.3888 0.0
N2053 N 0.24626 0.22457 0.46178 0.0
H2054 H 0.24981 0.682 0.89579 0.0
H2055 H 0.24686 0.80524 0.97105 0.0
H2056 H 0.27126 0.7047 1.00326 0.0
H2057 H 0.22605 0.78238 0.86313 0.0
H2058 H 0.25616 0.76875 0.98296 0.0
H2059 H 0.24043 0.71847 0.88419 0.0
C2060 C 0.25238 0.69468 0.91724 0.0
C2061 C 0.26155 0.69034 0.95048 0.0
C2062 C 0.24963 0.77164 0.9566 0.0
C2063 C 0.2509 0.73235 0.93705 0.0
C2064 C 0.24441 0.79252 0.94959 0.0
C2065 C 0.23548 0.79681 0.91608 0.0
C2066 C 0.24601 0.75483 0.92986 0.0
C2067 C 0.23265 0.7797 0.88947 0.0
C2068 C 0.24711 0.71556 0.91039 0.0
C2069 C 0.2645 0.70742 0.97709 0.0
N2070 N 0.23783 0.7594 0.897 0.0
N2071 N 0.25926 0.72774 0.96972 0.0
H2072 H 0.49723 0.04401 0.75513 0.0
H2073 H 0.49389 0.94507 0.59924 0.0
H2074 H 0.44198 0.01521 0.72273 0.0
H2075 H 0.54924 0.97341 0.63225 0.0
H2076 H 0.47454 0.97162 0.64253 0.0
H2077 H 0.51665 0.01746 0.71193 0.0
C2078 C 0.4892 0.0318 0.73957 0.0
C2079 C 0.46795 0.03197 0.74222 0.0
C2080 C 0.49091 0.97216 0.64005 0.0
C2081 C 0.49003 0.00191 0.69199 0.0
C2082 C 0.50196 0.95718 0.61496 0.0
C2083 C 0.52321 0.95688 0.61243 0.0
C2084 C 0.5012 0.98695 0.66277 0.0
C2085 C 0.53287 0.97297 0.63344 0.0
C2086 C 0.50029 0.01681 0.71454 0.0
C2087 C 0.45834 0.01576 0.72143 0.0
N2088 N 0.5218 0.98719 0.65807 0.0
N2089 N 0.46945 0.00155 0.69683 0.0
H2090 H 0.00263 0.947 0.24865 0.0
H2091 H 0.99351 0.0415 0.11124 0.0
H2092 H 0.05382 0.98114 0.2048 0.0
H2093 H 0.94269 0.00604 0.15276 0.0
H2094 H 0.01612 0.01848 0.14292 0.0
H2095 H 0.98021 0.96975 0.21608 0.0
C2096 C 0.0091 0.95965 0.23295 0.0
C2097 C 0.03015 0.96196 0.22895 0.0
C2098 C 5e-05 0.01558 0.14474 0.0
C2099 C 0.00469 0.9876 0.1907 0.0
C2100 C 0.98717 0.0285 0.12616 0.0
C2101 C 0.96615 0.02594 0.12993 0.0
C2102 C 0.99182 -1e-05 0.16718 0.0
C2103 C 0.95877 0.00877 0.14943 0.0
C2104 C 0.99633 0.97241 0.21387 0.0
C2105 C 0.0377 0.97866 0.20841 0.0
N2106 N 0.97156 -0.00333 0.16787 0.0
N2107 N 0.025 0.99064 0.18957 0.0
H2108 H 0.43919 -0.00199 0.22668 0.0
H2109 H 0.5525 0.989 0.13198 0.0
H2110 H 0.48036 0.94463 0.23723 0.0
H2111 H 0.50971 0.03981 0.11463 0.0
H2112 H 0.52645 0.97269 0.17148 0.0
H2113 H 0.46533 0.01423 0.18735 0.0
C2114 C 0.45382 0.98978 0.22082 0.0
C2115 C 0.45774 0.96997 0.23493 0.0
C2116 C 0.52273 0.98738 0.15901 0.0
C2117 C 0.48753 0.98826 0.18989 0.0
C2118 C 0.53754 -0.00336 0.13641 0.0
C2119 C 0.53314 0.01578 0.1204 0.0
C2120 C 0.50346 -0.00259 0.16556 0.0
C2121 C 0.51367 0.02514 0.12695 0.0
C2122 C 0.46868 -0.00102 0.19825 0.0
C2123 C 0.47681 0.95987 0.22652 0.0
N2124 N 0.49948 0.01586 0.14921 0.0
N2125 N 0.49107 0.96914 0.20439 0.0
H2126 H 0.93974 0.98603 0.66984 0.0
H2127 H 0.05518 -0.0036 0.71578 0.0
H2128 H 0.98779 0.94212 0.62143 0.0
H2129 H 0.00779 0.04297 0.75646 0.0
H2130 H 0.03009 0.97412 0.68668 0.0
H2131 H 0.9639 0.00487 0.70761 0.0
C2132 C 0.95544 0.98039 0.66721 0.0
C2133 C 0.96199 0.96279 0.6422 0.0
C2134 C 0.02515 0.98915 0.70211 0.0
C2135 C 0.98958 0.98413 0.68519 0.0
C2136 C 0.03943 0.00185 0.7187 0.0
C2137 C 0.03342 0.02152 0.73819 0.0
C2138 C 0.0048 -0.0037 0.70503 0.0
C2139 C 0.01294 0.02792 0.74135 0.0
C2140 C 0.96918 0.99109 0.68882 0.0
C2141 C 0.9823 0.9558 0.64022 0.0
N2142 N -0.0007 0.01533 0.72469 0.0
N2143 N 0.9955 0.96664 0.66133 0.0
H2144 H 0.05929 0.40119 0.95692 0.0
H2145 H 0.94944 0.41323 0.89009 0.0
H2146 H 0.00783 0.38319 0.02769 0.0
H2147 H -0.00051 0.39322 0.80915 0.0
H2148 H 0.97057 0.40544 0.94186 0.0
H2149 H 0.0381 0.40098 0.90287 0.0
C2150 C 0.04364 0.3967 0.96085 0.0
C2151 C 0.03539 0.3919 0.99677 0.0
C2152 C 0.97683 0.40254 0.91275 0.0
C2153 C 0.01083 0.39256 0.93537 0.0
C2154 C 0.96483 0.40707 0.88318 0.0
C2155 C 0.97268 0.40385 0.84515 0.0
C2156 C 0.99707 0.39533 0.9044 0.0
C2157 C 0.99275 0.39582 0.83798 0.0
C2158 C 0.03154 0.39667 0.93003 0.0
C2159 C 0.0149 0.3866 1.00037 0.0
N2160 N 0.00434 0.39218 0.86728 0.0
N2161 N 0.00322 0.38748 0.97028 0.0
H2162 H 0.83144 0.75132 0.0522 0.0
H2163 H 0.85357 0.76882 0.27133 0.0
H2164 H 0.83914 0.69901 0.12264 0.0
H2165 H 0.82097 0.81512 0.21303 0.0
H2166 H 0.85641 0.74482 0.21277 0.0
H2167 H 0.83507 0.77653 0.10738 0.0
C2168 C 0.83397 0.74514 0.07924 0.0
C2169 C 0.83476 0.72305 0.08296 0.0
C2170 C 0.84892 0.76038 0.21276 0.0
C2171 C 0.83925 0.75178 0.14595 0.0
C2172 C 0.84751 0.77415 0.24594 0.0
C2173 C 0.837 0.79392 0.24691 0.0
C2174 C 0.84006 0.76667 0.18033 0.0
C2175 C 0.82912 0.79995 0.21345 0.0
C2176 C 0.83604 0.75953 0.11067 0.0
C2177 C 0.83814 0.71593 0.11866 0.0
N2178 N 0.83076 0.78636 0.18155 0.0
N2179 N 0.84029 0.73026 0.14881 0.0
H2180 H 0.54186 0.58174 0.40287 0.0
H2181 H 0.42855 0.58603 0.49391 0.0
H2182 H 0.49122 0.59389 0.33673 0.0
H2183 H 0.47785 0.60497 0.56058 0.0
H2184 H 0.45123 0.5864 0.43605 0.0
H2185 H 0.51902 0.58715 0.46102 0.0
C2186 C 0.52596 0.58555 0.40051 0.0
C2187 C 0.51851 0.58734 0.36467 0.0
C2188 C 0.45704 0.59083 0.46326 0.0
C2189 C 0.49219 0.59331 0.43131 0.0
C2190 C 0.44405 0.59074 0.49633 0.0
C2191 C 0.45118 0.59581 0.53223 0.0
C2192 C 0.47758 0.59535 0.46592 0.0
C2193 C 0.47157 0.60138 0.53354 0.0
C2194 C 0.51295 0.58876 0.43377 0.0
C2195 C 0.49773 0.59241 0.3636 0.0
N2196 N 0.48412 0.60065 0.501 0.0
N2197 N 0.48532 0.59496 0.39624 0.0
H2198 H 0.69272 0.26806 0.67252 0.0
H2199 H 0.65262 0.27165 0.46602 0.0
H2200 H 0.64327 0.23004 0.63654 0.0
H2201 H 0.68622 0.32188 0.5203 0.0
H2202 H 0.65146 0.25346 0.52502 0.0
H2203 H 0.69365 0.28488 0.61253 0.0
C2204 C 0.68219 0.26313 0.65179 0.0
C2205 C 0.66787 0.24771 0.65942 0.0
C2206 C 0.65899 0.26852 0.52386 0.0
C2207 C 0.66873 0.26694 0.59096 0.0
C2208 C 0.65966 0.27889 0.49028 0.0
C2209 C 0.66955 0.29829 0.48816 0.0
C2210 C 0.6685 0.27753 0.55518 0.0
C2211 C 0.6784 0.30697 0.52049 0.0
C2212 C 0.6826 0.27284 0.61773 0.0
C2213 C 0.65441 0.24204 0.63179 0.0
N2214 N 0.67777 0.29647 0.55252 0.0
N2215 N 0.65517 0.25165 0.59865 0.0
H2216 H 0.99126 0.67263 0.04448 0.0
H2217 H -4e-05 0.59693 0.85058 0.0
H2218 H 0.97249 0.60722 0.03646 0.0
H2219 H 0.02163 0.66121 0.86009 0.0
H2220 H 0.9897 0.60037 0.91856 0.0
H2221 H 0.00223 0.66882 0.97683 0.0
C2222 C 0.9895 0.65744 0.02857 0.0
C2223 C 0.98087 0.64025 0.0463 0.0
C2224 C 0.9967 0.61373 0.90577 0.0
C2225 C 0.99329 0.63581 0.96859 0.0
C2226 C 0.00268 0.61172 0.86696 0.0
C2227 C 0.01162 0.62882 0.84944 0.0
C2228 C -0.00032 0.63298 0.92735 0.0
C2229 C 0.0145 0.64771 0.87214 0.0
C2230 C 0.99569 0.6553 0.98986 0.0
C2231 C 0.97874 0.62104 0.02399 0.0
N2232 N 0.00854 0.64928 0.90982 0.0
N2233 N 0.9849 0.61935 0.98638 0.0
H2234 H 0.673 0.72036 0.26895 0.0
H2235 H 0.60418 0.76333 0.11172 0.0
H2236 H 0.60813 0.7308 0.28567 0.0
H2237 H 0.66858 0.75026 0.09165 0.0
H2238 H 0.60566 0.75215 0.17593 0.0
H2239 H 0.67195 0.73162 0.20448 0.0
C2240 C 0.65851 0.72488 0.2591 0.0
C2241 C 0.64063 0.72461 0.28307 0.0
C2242 C 0.61949 0.75172 0.15754 0.0
C2243 C 0.63938 0.73783 0.20911 0.0
C2244 C 0.61865 0.75802 0.12068 0.0
C2245 C 0.63626 0.75765 0.0959 0.0
C2246 C 0.63809 0.74496 0.17007 0.0
C2247 C 0.65462 0.75102 0.1097 0.0
C2248 C 0.65795 0.73146 0.22228 0.0
C2249 C 0.62237 0.73102 0.26865 0.0
N2250 N 0.65504 0.74489 0.14573 0.0
N2251 N 0.62224 0.73733 0.23277 0.0
H2252 H 0.54489 0.34125 0.46556 0.0
H2253 H 0.51883 0.41806 0.30417 0.0
H2254 H 0.54921 0.40986 0.47857 0.0
H2255 H 0.51662 0.34923 0.29115 0.0
H2256 H 0.53136 0.4155 0.36707 0.0
H2257 H 0.53649 0.34386 0.40004 0.0
C2258 C 0.54422 0.35685 0.45451 0.0
C2259 C 0.54765 0.37537 0.47763 0.0
C2260 C 0.52824 0.40096 0.35032 0.0
C2261 C 0.53792 0.37852 0.40266 0.0
C2262 C 0.52096 0.40242 0.31453 0.0
C2263 C 0.51668 0.38384 0.29229 0.0
C2264 C 0.53116 0.38077 0.36408 0.0
C2265 C 0.51997 0.36398 0.307 0.0
C2266 C 0.53944 0.35835 0.41708 0.0
C2267 C 0.54684 0.39515 0.46168 0.0
N2268 N 0.52693 0.36299 0.34194 0.0
N2269 N 0.54187 0.39623 0.42529 0.0
H2270 H 0.80764 0.32131 0.85346 0.0
H2271 H 0.8357 0.21272 0.72172 0.0
H2272 H 0.8256 0.26207 0.89764 0.0
H2273 H 0.82046 0.27279 0.67748 0.0
H2274 H 0.83123 0.23018 0.78615 0.0
H2275 H 0.8117 0.3037 0.78915 0.0
C2276 C 0.81239 0.30458 0.84977 0.0
C2277 C 0.81619 0.29321 0.88136 0.0
C2278 C 0.82886 0.23956 0.76236 0.0
C2279 C 0.82096 0.2728 0.80715 0.0
C2280 C 0.83128 0.22953 0.72541 0.0
C2281 C 0.82851 0.24119 0.69367 0.0
C2282 C 0.82354 0.26149 0.76805 0.0
C2283 C 0.82308 0.26309 0.70072 0.0
C2284 C 0.81476 0.29452 0.81287 0.0
C2285 C 0.82252 0.27157 0.87437 0.0
N2286 N 0.82078 0.27245 0.73693 0.0
N2287 N 0.82464 0.26212 0.8382 0.0
H2288 H 0.05575 0.59573 0.47338 0.0
H2289 H 0.94367 0.59862 0.40752 0.0
H2290 H 0.00313 0.60135 0.55332 0.0
H2291 H 0.99423 0.61907 0.33709 0.0
H2292 H 0.96523 0.59814 0.46071 0.0
H2293 H 0.03384 0.60234 0.42219 0.0
C2294 C 0.03962 0.59841 0.48023 0.0
C2295 C 0.0313 0.59794 0.51781 0.0
C2296 C 0.97155 0.60306 0.43382 0.0
C2297 C 0.00609 0.60532 0.45919 0.0
C2298 C 0.95922 0.60341 0.40343 0.0
C2299 C 0.96708 0.60904 0.36777 0.0
C2300 C 0.99212 0.60786 0.42845 0.0
C2301 C 0.98744 0.6149 0.36415 0.0
C2302 C 0.02713 0.60229 0.451 0.0
C2303 C 0.01027 0.60161 0.52489 0.0
N2304 N -0.00067 0.61383 0.39388 0.0
N2305 N 0.99841 0.60491 0.49589 0.0
H2306 H 0.16459 0.24272 0.30133 0.0
H2307 H 0.14424 0.2261 0.08156 0.0
H2308 H 0.16185 0.29524 0.22984 0.0
H2309 H 0.17221 0.17776 0.14259 0.0
H2310 H 0.14263 0.25065 0.13939 0.0
H2311 H 0.16009 0.21785 0.24633 0.0
C2312 C 0.16303 0.24903 0.27404 0.0
C2313 C 0.1638 0.27107 0.27004 0.0
C2314 C 0.1488 0.23454 0.14015 0.0
C2315 C 0.15831 0.24268 0.20716 0.0
C2316 C 0.14948 0.22048 0.10742 0.0
C2317 C 0.15835 0.19993 0.10749 0.0
C2318 C 0.15675 0.22778 0.17311 0.0
C2319 C 0.16528 0.19351 0.14144 0.0
C2320 C 0.16044 0.23482 0.2427 0.0
C2321 C 0.16164 0.27833 0.23401 0.0
N2322 N 0.16438 0.2074 0.17287 0.0
N2323 N 0.15893 0.26416 0.20388 0.0
H2324 H 0.45018 0.40729 0.94626 0.0
H2325 H 0.5645 0.4085 0.857 0.0
H2326 H 0.50247 0.40231 1.01136 0.0
H2327 H 0.51615 0.38968 0.78783 0.0
H2328 H 0.54118 0.40822 0.91367 0.0
H2329 H 0.47298 0.40328 0.88752 0.0
C2330 C 0.46636 0.40539 0.94829 0.0
C2331 C 0.47433 0.40517 0.98402 0.0
C2332 C 0.53565 0.40384 0.8862 0.0
C2333 C 0.50046 0.40068 0.91702 0.0
C2334 C 0.54904 0.40388 0.8538 0.0
C2335 C 0.5424 0.39879 0.81759 0.0
C2336 C 0.51518 0.39921 0.88265 0.0
C2337 C 0.52203 0.39329 0.81523 0.0
C2338 C 0.47935 0.40297 0.91476 0.0
C2339 C 0.49548 0.40253 0.98472 0.0
N2340 N 0.50907 0.39392 0.84724 0.0
N2341 N 0.50769 0.40056 0.95199 0.0
H2342 H 0.3063 0.70069 0.65759 0.0
H2343 H 0.30128 0.71695 0.88454 0.0
H2344 H 0.30304 0.76258 0.72044 0.0
H2345 H 0.30705 0.65523 0.82105 0.0
H2346 H 0.30056 0.73396 0.82492 0.0
H2347 H 0.30479 0.68376 0.71743 0.0
C2348 C 0.30506 0.71074 0.68398 0.0
C2349 C 0.30484 0.73311 0.68395 0.0
C2350 C 0.30199 0.7167 0.82403 0.0
C2351 C 0.30341 0.71379 0.75266 0.0
C2352 C 0.30247 0.70697 0.85808 0.0
C2353 C 0.30432 0.68462 0.8578 0.0
C2354 C 0.3034 0.70401 0.78944 0.0
C2355 C 0.30557 0.6725 0.82266 0.0
C2356 C 0.30436 0.70105 0.71816 0.0
C2357 C 0.30354 0.74528 0.71907 0.0
N2358 N 0.30513 0.68236 0.78991 0.0
N2359 N 0.30292 0.73547 0.75198 0.0
H2360 H 0.03659 0.33102 0.33362 0.0
H2361 H 0.96921 0.39169 0.50889 0.0
H2362 H -0.00051 0.38784 0.32481 0.0
H2363 H 0.01094 0.33897 0.5208 0.0
H2364 H 0.97919 0.38956 0.441 0.0
H2365 H 0.02648 0.33273 0.40159 0.0
C2366 C 0.02638 0.34391 0.3459 0.0
C2367 C 0.01892 0.35931 0.32319 0.0
C2368 C 0.98618 0.37845 0.45843 0.0
C2369 C 0.00706 0.3612 0.40125 0.0
C2370 C 0.98057 0.37974 0.49735 0.0
C2371 C 0.9893 0.36557 0.52089 0.0
C2372 C 0.00062 0.36283 0.4426 0.0
C2373 C 0.00362 0.3501 0.50388 0.0
C2374 C 0.02053 0.3448 0.38476 0.0
C2375 C 0.00543 0.3754 0.34085 0.0
N2376 N 0.00884 0.34917 0.46587 0.0
N2377 N -2e-05 0.37592 0.3787 0.0
H2378 H 0.32601 0.28058 0.09018 0.0
H2379 H 0.38791 0.22161 0.24086 0.0
H2380 H 0.38561 0.25109 0.06463 0.0
H2381 H 0.32724 0.24831 0.26653 0.0
H2382 H 0.38721 0.23255 0.17634 0.0
H2383 H 0.32615 0.26943 0.15492 0.0
C2384 C 0.33918 0.27187 0.09818 0.0
C2385 C 0.35582 0.26677 0.07172 0.0
C2386 C 0.37402 0.23601 0.19601 0.0
C2387 C 0.35599 0.25376 0.14591 0.0
C2388 C 0.37444 0.22986 0.23301 0.0
C2389 C 0.35765 0.23413 0.25941 0.0
C2390 C 0.35669 0.24664 0.18504 0.0
C2391 C 0.34049 0.24451 0.24716 0.0
C2392 C 0.33919 0.26538 0.13512 0.0
C2393 C 0.37232 0.25516 0.08374 0.0
N2394 N 0.34048 0.25048 0.21098 0.0
N2395 N 0.37199 0.24911 0.11983 0.0
H2396 H 0.48622 0.58419 0.04781 0.0
H2397 H 0.46518 0.65599 0.87611 0.0
H2398 H 0.49386 0.65239 0.0526 0.0
H2399 H 0.46014 0.5874 0.86963 0.0
H2400 H 0.47528 0.65506 0.94095 0.0
H2401 H 0.4762 0.58513 0.98293 0.0
C2402 C 0.48589 0.59937 0.03523 0.0
C2403 C 0.49095 0.61824 0.05591 0.0
C2404 C 0.47196 0.64021 0.92536 0.0
C2405 C 0.47922 0.61946 0.98141 0.0
C2406 C 0.46629 0.6407 0.88817 0.0
C2407 C 0.46178 0.62174 0.86715 0.0
C2408 C 0.47318 0.6206 0.94188 0.0
C2409 C 0.46318 0.60248 0.88476 0.0
C2410 C 0.48005 0.5999 0.99817 0.0
C2411 C 0.48986 0.63747 0.03811 0.0
N2412 N 0.46876 0.60241 0.92097 0.0
N2413 N 0.48416 0.63757 1.00198 0.0
H2414 H 0.19998 0.77188 0.65465 0.0
H2415 H 0.19061 0.66575 0.51543 0.0
H2416 H 0.175 0.71361 0.69215 0.0
H2417 H 0.20603 0.727 0.47595 0.0
H2418 H 0.18653 0.68236 0.58063 0.0
H2419 H 0.20393 0.75519 0.58974 0.0
C2420 C 0.19519 0.75563 0.64943 0.0
C2421 C 0.18705 0.74429 0.67948 0.0
C2422 C 0.19076 0.69218 0.5577 0.0
C2423 C 0.19187 0.72483 0.60447 0.0
C2424 C 0.19311 0.68268 0.52036 0.0
C2425 C 0.19861 0.69494 0.48986 0.0
C2426 C 0.19408 0.71413 0.56491 0.0
C2427 C 0.20163 0.71686 0.49831 0.0
C2428 C 0.19757 0.74605 0.61218 0.0
C2429 C 0.18161 0.72304 0.67042 0.0
N2430 N 0.19941 0.72568 0.53486 0.0
N2431 N 0.1841 0.71408 0.63396 0.0
H2432 H 0.43901 0.91488 0.39681 0.0
H2433 H 0.55361 0.90324 0.44836 0.0
H2434 H 0.48933 0.90165 0.31287 0.0
H2435 H 0.50471 0.8877 0.52758 0.0
H2436 H 0.52964 0.90546 0.39941 0.0
H2437 H 0.46199 0.90812 0.44681 0.0
C2438 C 0.45478 0.91055 0.38884 0.0
C2439 C 0.46215 0.90884 0.35043 0.0
C2440 C 0.52413 0.90126 0.42731 0.0
C2441 C 0.48847 0.9013 0.40734 0.0
C2442 C 0.53786 0.89986 0.45522 0.0
C2443 C 0.53122 0.89493 0.49193 0.0
C2444 C 0.50341 0.8983 0.43627 0.0
C2445 C 0.51052 0.89112 0.4994 0.0
C2446 C 0.46785 0.90658 0.41734 0.0
C2447 C 0.48279 0.90311 0.3419 0.0
N2448 N 0.49728 0.89317 0.47197 0.0
N2449 N 0.49514 0.89976 0.36996 0.0
H2450 H 0.32811 0.24766 0.55351 0.0
H2451 H 0.35177 0.26432 0.77167 0.0
H2452 H 0.33318 0.19514 0.62442 0.0
H2453 H 0.32174 0.31242 0.71312 0.0
H2454 H 0.35266 0.23993 0.71378 0.0
H2455 H 0.33262 0.27265 0.60846 0.0
C2456 C 0.33016 0.24139 0.58066 0.0
C2457 C 0.33006 0.21931 0.58452 0.0
C2458 C 0.34616 0.25595 0.71356 0.0
C2459 C 0.33562 0.2478 0.64727 0.0
C2460 C 0.34589 0.26993 0.74633 0.0
C2461 C 0.33668 0.29037 0.74703 0.0
C2462 C 0.33746 0.26266 0.68128 0.0
C2463 C 0.32894 0.29675 0.7137 0.0
C2464 C 0.33276 0.25565 0.61195 0.0
C2465 C 0.33286 0.21207 0.62036 0.0
N2466 N 0.32946 0.28293 0.6822 0.0
N2467 N 0.33561 0.22629 0.65039 0.0
H2468 H 0.93016 0.07747 0.99792 0.0
H2469 H 0.04555 0.07959 0.91248 0.0
H2470 H 0.97777 0.09656 0.06873 0.0
H2471 H 0.99365 0.07995 0.84558 0.0
H2472 H 0.02222 0.08374 0.97063 0.0
H2473 H 0.95415 0.07691 0.94217 0.0
C2474 C 0.94561 0.08199 1.00167 0.0
C2475 C 0.95183 0.08738 0.0381 0.0
C2476 C 0.01605 0.08297 0.9431 0.0
C2477 C 0.97984 0.08603 0.97402 0.0
C2478 C 0.02936 0.08045 0.90993 0.0
C2479 C 0.02165 0.07942 0.87388 0.0
C2480 C 0.99493 0.08416 0.94012 0.0
C2481 C 0.00046 0.08077 0.87249 0.0
C2482 C 0.9594 0.08153 0.96977 0.0
C2483 C 0.9722 0.09272 0.04113 0.0
N2484 N 0.988 0.08295 0.90484 0.0
N2485 N 0.98555 0.09167 1.0096 0.0
H2486 H 0.1834 0.83365 0.04194 0.0
H2487 H 0.20983 0.72916 0.14663 0.0
H2488 H 0.1987 0.77217 0.98186 0.0
H2489 H 0.18624 0.7886 0.20501 0.0
H2490 H 0.20599 0.74438 0.08594 0.0
H2491 H 0.18467 0.81728 0.10196 0.0
C2492 C 0.187 0.81667 0.04139 0.0
C2493 C 0.191 0.80424 1.00688 0.0
C2494 C 0.20159 0.75405 0.11205 0.0
C2495 C 0.19255 0.78539 0.07557 0.0
C2496 C 0.20369 0.74534 0.14672 0.0
C2497 C 0.19844 0.75765 0.18103 0.0
C2498 C 0.19424 0.77524 0.11168 0.0
C2499 C 0.19083 0.77864 0.17934 0.0
C2500 C 0.18767 0.80732 0.07569 0.0
C2501 C 0.19541 0.7823 1.00786 0.0
N2502 N 0.18903 0.78676 0.1453 0.0
N2503 N 0.1962 0.77358 0.0417 0.0
H2504 H 0.52421 0.08209 0.35106 0.0
H2505 H 0.43893 0.11872 0.51725 0.0
H2506 H 0.46346 0.10251 0.33041 0.0
H2507 H 0.49926 0.09612 0.53616 0.0
H2508 H 0.44695 0.11154 0.44875 0.0
H2509 H 0.51462 0.08547 0.41908 0.0
C2510 C 0.50877 0.08703 0.36078 0.0
C2511 C 0.49465 0.09212 0.33493 0.0
C2512 C 0.45842 0.10815 0.46794 0.0
C2513 C 0.48365 0.09641 0.41299 0.0
C2514 C 0.45382 0.11218 0.50702 0.0
C2515 C 0.46852 0.10825 0.53246 0.0
C2516 C 0.47782 0.10007 0.45426 0.0
C2517 C 0.4876 0.09987 0.5176 0.0
C2518 C 0.50334 0.08912 0.3997 0.0
C2519 C 0.47494 0.09876 0.34932 0.0
N2520 N 0.4917 0.09612 0.47955 0.0
N2521 N 0.47005 0.10081 0.38738 0.0
H2522 H 0.16755 0.23736 0.58324 0.0
H2523 H 0.10955 0.23713 0.79033 0.0
H2524 H 0.10947 0.26905 0.6156 0.0
H2525 H 0.16893 0.20765 0.76153 0.0
H2526 H 0.10936 0.24855 0.72612 0.0
H2527 H 0.16853 0.2262 0.64786 0.0
C2528 C 0.15505 0.24211 0.60389 0.0
C2529 C 0.13835 0.25413 0.59365 0.0
C2530 C 0.12246 0.23959 0.73377 0.0
C2531 C 0.1393 0.24114 0.66785 0.0
C2532 C 0.12264 0.23314 0.77063 0.0
C2533 C 0.13934 0.22146 0.78171 0.0
C2534 C 0.13909 0.23437 0.70738 0.0
C2535 C 0.15563 0.21643 0.75436 0.0
C2536 C 0.15558 0.23559 0.64079 0.0
C2537 C 0.12251 0.2595 0.62175 0.0
N2538 N 0.15511 0.22293 0.71858 0.0
N2539 N 0.12338 0.25298 0.65736 0.0
H2540 H 0.03863 0.84349 0.97805 0.0
H2541 H 0.01373 0.91612 0.8097 0.0
H2542 H 0.04296 0.91215 0.98621 0.0
H2543 H 0.00612 0.84792 0.80575 0.0
H2544 H 0.02612 0.91499 0.87298 0.0
H2545 H 0.02889 0.84472 0.9131 0.0
C2546 C 0.0376 0.85883 0.96614 0.0
C2547 C 0.04151 0.87775 0.98779 0.0
C2548 C 0.02179 0.90028 0.85819 0.0
C2549 C 0.03035 0.87929 0.9132 0.0
C2550 C 0.01458 0.90093 0.82214 0.0
C2551 C 0.00887 0.88208 0.80224 0.0
C2552 C 0.02328 0.88065 0.87455 0.0
C2553 C 0.01061 0.86281 0.81966 0.0
C2554 C 0.03207 0.85952 0.92899 0.0
C2555 C 0.04026 0.89713 0.97055 0.0
N2556 N 0.01761 0.86261 0.85473 0.0
N2557 N 0.03467 0.89742 0.93439 0.0
H2558 H 0.30361 0.75906 0.39139 0.0
H2559 H 0.30288 0.77546 0.16836 0.0
H2560 H 0.29298 0.81999 0.3464 0.0
H2561 H 0.3161 0.71449 0.21125 0.0
H2562 H 0.29848 0.79161 0.23349 0.0
H2563 H 0.30747 0.74218 0.32632 0.0
C2564 C 0.30215 0.76895 0.36794 0.0
C2565 C 0.29798 0.79108 0.37472 0.0
C2566 C 0.30234 0.77468 0.22875 0.0
C2567 C 0.30236 0.77171 0.29969 0.0
C2568 C 0.30498 0.76541 0.19136 0.0
C2569 C 0.31005 0.74348 0.18379 0.0
C2570 C 0.30473 0.76208 0.25936 0.0
C2571 C 0.31204 0.73137 0.21531 0.0
C2572 C 0.30432 0.75925 0.33069 0.0
C2573 C 0.29612 0.80291 0.3429 0.0
N2574 N 0.30945 0.74081 0.2515 0.0
N2575 N 0.29833 0.79313 0.30703 0.0
H2576 H 0.43636 0.08385 0.90583 0.0
H2577 H 0.55099 0.07302 0.95793 0.0
H2578 H 0.48526 0.10131 0.82835 0.0
H2579 H 0.50006 0.08258 0.04152 0.0
H2580 H 0.52806 0.0805 0.90823 0.0
H2581 H 0.46019 0.08095 0.95479 0.0
C2582 C 0.45207 0.08752 0.8994 0.0
C2583 C 0.45876 0.09316 0.86316 0.0
C2584 C 0.52206 0.08107 0.93757 0.0
C2585 C 0.48643 0.08904 0.91877 0.0
C2586 C 0.5351 0.07667 0.96588 0.0
C2587 C 0.52753 0.07714 1.00409 0.0
C2588 C 0.5013 0.08557 0.94756 0.0
C2589 C 0.50675 0.08207 1.01264 0.0
C2590 C 0.46573 0.08573 0.92729 0.0
C2591 C 0.47941 0.09734 0.85619 0.0
N2592 N 0.49445 0.08589 0.98474 0.0
N2593 N 0.4926 0.09491 0.88357 0.0
H2594 H 0.6731 0.67652 0.64229 0.0
H2595 H 0.65688 0.79553 0.73091 0.0
H2596 H 0.64318 0.72468 0.58377 0.0
H2597 H 0.66241 0.74247 0.80047 0.0
H2598 H 0.65285 0.77019 0.67602 0.0
H2599 H 0.66969 0.70035 0.70049 0.0
C2600 C 0.66541 0.69197 0.64197 0.0
C2601 C 0.65836 0.69865 0.60828 0.0
C2602 C 0.65478 0.76413 0.70338 0.0
C2603 C 0.655 0.72626 0.67438 0.0
C2604 C 0.65727 0.77855 0.73462 0.0
C2605 C 0.66018 0.77106 0.77022 0.0
C2606 C 0.65557 0.74206 0.70763 0.0
C2607 C 0.66027 0.74892 0.77352 0.0
C2608 C 0.66352 0.70558 0.67514 0.0
C2609 C 0.64864 0.71886 0.60928 0.0
N2610 N 0.65824 0.73519 0.74253 0.0
N2611 N 0.64758 0.73215 0.64167 0.0
H2612 H 0.01832 0.89041 0.29547 0.0
H2613 H 0.00305 0.9101 0.52229 0.0
H2614 H 0.06461 0.91314 0.36648 0.0
H2615 H 0.95203 0.90923 0.45315 0.0
H2616 H 0.02591 0.90592 0.46512 0.0
H2617 H 0.99427 0.8914 0.35224 0.0
C2618 C 0.02359 0.89505 0.32306 0.0
C2619 C 0.04364 0.90147 0.3262 0.0
C2620 C 0.00974 0.90665 0.46225 0.0
C2621 C 0.01611 0.90295 0.39114 0.0
C2622 C 0.99657 0.90902 0.49503 0.0
C2623 C 0.97545 0.91009 0.4928 0.0
C2624 C 0.00196 0.90504 0.42638 0.0
C2625 C 0.96817 0.90865 0.45635 0.0
C2626 C 0.00977 0.89591 0.35536 0.0
C2627 C 0.0494 0.90789 0.36262 0.0
N2628 N 0.98139 0.90609 0.42458 0.0
N2629 N 0.03579 0.90842 0.39344 0.0
H2630 H 0.83422 0.26987 0.22529 0.0
H2631 H 0.82901 0.16096 0.32838 0.0
H2632 H 0.83497 0.20698 0.16643 0.0
H2633 H 0.82903 0.22309 0.38975 0.0
H2634 H 0.83307 0.17779 0.26887 0.0
H2635 H 0.83347 0.25339 0.28578 0.0
C2636 C 0.83415 0.25261 0.22508 0.0
C2637 C 0.83464 0.23979 0.19069 0.0
C2638 C 0.83229 0.18781 0.29527 0.0
C2639 C 0.83403 0.22084 0.25977 0.0
C2640 C 0.82995 0.17819 0.32934 0.0
C2641 C 0.82849 0.19068 0.36408 0.0
C2642 C 0.83305 0.21016 0.29577 0.0
C2643 C 0.83013 0.21289 0.36356 0.0
C2644 C 0.83388 0.24322 0.25961 0.0
C2645 C 0.83484 0.2175 0.19214 0.0
N2646 N 0.83214 0.22197 0.32987 0.0
N2647 N 0.83449 0.20877 0.22605 0.0
H2648 H 0.55298 0.87186 0.83886 0.0
H2649 H 0.46827 0.90917 1.00583 0.0
H2650 H 0.49286 0.89539 0.82078 0.0
H2651 H 0.5273 0.88337 0.0259 0.0
H2652 H 0.47833 0.90718 0.93802 0.0
H2653 H 0.54509 0.87857 0.90753 0.0
C2654 C 0.53818 0.87853 0.84932 0.0
C2655 C 0.52347 0.88281 0.82409 0.0
C2656 C 0.48915 0.90205 0.95724 0.0
C2657 C 0.51433 0.8905 0.90244 0.0
C2658 C 0.48345 0.90335 0.99605 0.0
C2659 C 0.49691 0.89631 1.02164 0.0
C2660 C 0.50845 0.89362 0.94376 0.0
C2661 C 0.51631 0.88863 1.00715 0.0
C2662 C 0.53365 0.8823 0.88849 0.0
C2663 C 0.50451 0.8914 0.8392 0.0
N2664 N 0.52146 0.88739 0.96917 0.0
N2665 N 0.50048 0.89489 0.87731 0.0
H2666 H 0.82631 0.78201 0.59017 0.0
H2667 H 0.89097 0.72442 0.73879 0.0
H2668 H 0.88768 0.75723 0.56471 0.0
H2669 H 0.82961 0.74891 0.76554 0.0
H2670 H 0.88977 0.73613 0.67483 0.0
H2671 H 0.82707 0.77011 0.65427 0.0
C2672 C 0.84 0.77418 0.59801 0.0
C2673 C 0.85695 0.77064 0.5717 0.0
C2674 C 0.87654 0.73894 0.69463 0.0
C2675 C 0.85782 0.75671 0.64529 0.0
C2676 C 0.87724 0.73234 0.73133 0.0
C2677 C 0.8604 0.73575 0.75791 0.0
C2678 C 0.85887 0.74913 0.68409 0.0
C2679 C 0.84292 0.74574 0.74607 0.0
C2680 C 0.84036 0.76726 0.63463 0.0
C2681 C 0.87412 0.76008 0.58361 0.0
N2682 N 0.84264 0.75213 0.71019 0.0
N2683 N 0.8741 0.75355 0.61938 0.0
H2684 H 0.98199 0.13749 0.56475 0.0
H2685 H 0.95 0.07213 0.37661 0.0
H2686 H 0.98032 0.06862 0.55208 0.0
H2687 H 0.95407 0.14079 0.38899 0.0
H2688 H 0.95853 0.07056 0.44236 0.0
H2689 H 0.96967 0.13897 0.50182 0.0
C2690 C 0.97888 0.12266 0.54885 0.0
C2691 C 0.98215 0.10289 0.56384 0.0
C2692 C 0.95743 0.08598 0.43077 0.0
C2693 C 0.96821 0.10448 0.49132 0.0
C2694 C 0.95238 0.08691 0.39333 0.0
C2695 C 0.9514 0.10663 0.3772 0.0
C2696 C 0.9615 0.1049 0.4523 0.0
C2697 C 0.95493 0.12522 0.40008 0.0
C2698 C 0.97193 0.12352 0.51279 0.0
C2699 C 0.97822 0.0842 0.54153 0.0
N2700 N 0.9599 0.12389 0.43636 0.0
N2701 N 0.97145 0.08545 0.5064 0.0
H2702 H 0.66127 0.22386 0.95573 0.0
H2703 H 0.68173 0.2215 0.17666 0.0
H2704 H 0.69174 0.17109 1.00155 0.0
H2705 H 0.64566 0.27096 0.13296 0.0
H2706 H 0.6867 0.20362 0.11257 0.0
H2707 H 0.65628 0.24179 1.01982 0.0
C2708 C 0.6669 0.21597 0.97917 0.0
C2709 C 0.67699 0.19583 0.97285 0.0
C2710 C 0.67769 0.21838 0.11696 0.0
C2711 C 0.67137 0.21652 0.04689 0.0
C2712 C 0.67494 0.22874 0.15365 0.0
C2713 C 0.66321 0.24789 0.16067 0.0
C2714 C 0.66877 0.22719 0.08656 0.0
C2715 C 0.6546 0.25615 0.12938 0.0
C2716 C 0.66404 0.22627 1.0159 0.0
C2717 C 0.6839 0.18655 1.00471 0.0
N2718 N 0.65758 0.24584 0.09393 0.0
N2719 N 0.68102 0.19695 0.04011 0.0
H2720 H 0.09879 0.52109 0.68215 0.0
H2721 H 0.07259 0.52967 0.90885 0.0
H2722 H 0.07657 0.5784 0.74908 0.0
H2723 H 0.10032 0.4727 0.84833 0.0
H2724 H 0.07398 0.5471 0.8497 0.0
H2725 H 0.10006 0.50276 0.74119 0.0
C2726 C 0.0945 0.52995 0.70911 0.0
C2727 C 0.08759 0.55145 0.71023 0.0
C2728 C 0.07983 0.53079 0.84919 0.0
C2729 C 0.08863 0.53035 0.77819 0.0
C2730 C 0.07914 0.52076 0.88329 0.0
C2731 C 0.0865 0.49955 0.88431 0.0
C2732 C 0.08787 0.51972 0.81509 0.0
C2733 C 0.09427 0.48894 0.84938 0.0
C2734 C 0.09507 0.5194 0.74288 0.0
C2735 C 0.08196 0.56187 0.74632 0.0
N2736 N 0.09476 0.49908 0.81643 0.0
N2737 N 0.08251 0.55128 0.77842 0.0
H2738 H 0.71434 0.85791 0.94887 0.0
H2739 H 0.70566 0.83976 0.17154 0.0
H2740 H 0.66115 0.8355 1.00945 0.0
H2741 H 0.75922 0.86379 0.11472 0.0
H2742 H 0.68897 0.83967 0.11249 0.0
H2743 H 0.73049 0.86243 1.00914 0.0
C2744 C 0.70585 0.85439 0.97483 0.0
C2745 C 0.68627 0.84633 0.97381 0.0
C2746 C 0.70436 0.84504 0.11283 0.0
C2747 C 0.70492 0.85104 0.04301 0.0
C2748 C 0.71393 0.84518 0.14678 0.0
C2749 C 0.73396 0.85189 0.14857 0.0
C2750 C 0.71476 0.8516 0.0799 0.0
C2751 C 0.74389 0.85826 0.11489 0.0
C2752 C 0.71519 0.85677 1.00925 0.0
C2753 C 0.67624 0.84175 1.00854 0.0
N2754 N 0.73421 0.85796 0.08208 0.0
N2755 N 0.68568 0.84402 0.04141 0.0
H2756 H 0.42653 0.46742 0.40794 0.0
H2757 H 0.39073 0.461 0.19424 0.0
H2758 H 0.38134 0.51124 0.37335 0.0
H2759 H 0.43677 0.41999 0.23348 0.0
H2760 H 0.38533 0.47871 0.25921 0.0
H2761 H 0.42931 0.44962 0.34407 0.0
C2762 C 0.41727 0.47352 0.38699 0.0
C2763 C 0.40375 0.49114 0.39671 0.0
C2764 C 0.39651 0.46572 0.25354 0.0
C2765 C 0.40665 0.47019 0.32232 0.0
C2766 C 0.39948 0.45547 0.21644 0.0
C2767 C 0.41428 0.4389 0.20797 0.0
C2768 C 0.40836 0.45933 0.28253 0.0
C2769 C 0.4253 0.43273 0.23815 0.0
C2770 C 0.41875 0.46313 0.35029 0.0
C2771 C 0.39186 0.49767 0.3678 0.0
N2772 N 0.42218 0.44288 0.2736 0.0
N2773 N 0.39362 0.4873 0.33216 0.0
H2774 H 0.80474 0.14817 0.60836 0.0
H2775 H 0.69585 0.15704 0.71228 0.0
H2776 H 0.75319 0.13221 0.54552 0.0
H2777 H 0.74473 0.12863 0.76715 0.0
H2778 H 0.71671 0.15275 0.65163 0.0
H2779 H 0.78362 0.14574 0.66793 0.0
C2780 C 0.78905 0.14389 0.60706 0.0
C2781 C 0.78081 0.14017 0.57178 0.0
C2782 C 0.72275 0.14719 0.67685 0.0
C2783 C 0.75637 0.1381 0.63997 0.0
C2784 C 0.71086 0.1496 0.71147 0.0
C2785 C 0.71843 0.14291 0.74483 0.0
C2786 C 0.7427 0.13876 0.67567 0.0
C2787 C 0.73814 0.13368 0.74208 0.0
C2788 C 0.77703 0.1425 0.64107 0.0
C2789 C 0.76029 0.1349 0.57197 0.0
N2790 N 0.74971 0.13223 0.70834 0.0
N2791 N 0.74871 0.1344 0.60543 0.0
H2792 H 0.93086 0.4238 0.60925 0.0
H2793 H 0.90642 0.53193 0.5111 0.0
H2794 H 0.90986 0.48221 0.67426 0.0
H2795 H 0.92916 0.47286 0.45033 0.0
H2796 H 0.90659 0.51448 0.57075 0.0
H2797 H 0.92855 0.4416 0.55105 0.0
C2798 C 0.92552 0.44036 0.6114 0.0
C2799 C 0.92052 0.45143 0.64709 0.0
C2800 C 0.9115 0.50535 0.54433 0.0
C2801 C 0.91806 0.47224 0.57955 0.0
C2802 C 0.91157 0.51536 0.51013 0.0
C2803 C 0.91774 0.50395 0.47515 0.0
C2804 C 0.91768 0.4837 0.54385 0.0
C2805 C 0.92393 0.48236 0.47615 0.0
C2806 C 0.92429 0.45058 0.57791 0.0
C2807 C 0.91375 0.47293 0.64756 0.0
N2808 N 0.92374 0.47305 0.50969 0.0
N2809 N 0.91283 0.48264 0.61439 0.0
H2810 H 0.23225 0.12644 0.24244 0.0
H2811 H 0.33242 0.1553 0.3476 0.0
H2812 H 0.28701 0.14894 0.18734 0.0
H2813 H 0.27936 0.13168 0.40655 0.0
H2814 H 0.31635 0.15036 0.2881 0.0
H2815 H 0.249 0.12666 0.30208 0.0
C2816 C 0.24774 0.1315 0.24278 0.0
C2817 C 0.25817 0.13763 0.20943 0.0
C2818 C 0.30821 0.14597 0.31384 0.0
C2819 C 0.27757 0.13765 0.27785 0.0
C2820 C 0.31748 0.14866 0.34795 0.0
C2821 C 0.3073 0.14383 0.38231 0.0
C2822 C 0.28838 0.13859 0.31366 0.0
C2823 C 0.28789 0.13539 0.38077 0.0
C2824 C 0.25735 0.13145 0.27686 0.0
C2825 C 0.27835 0.14374 0.21185 0.0
N2826 N 0.27897 0.13326 0.34711 0.0
N2827 N 0.28727 0.14362 0.24525 0.0
H2828 H 0.61103 0.47405 0.98052 0.0
H2829 H 0.56477 0.57632 0.11312 0.0
H2830 H 0.57652 0.52589 0.94033 0.0
H2831 H 0.59823 0.5251 0.15747 0.0
H2832 H 0.57057 0.55847 0.04959 0.0
H2833 H 0.60789 0.4925 0.04443 0.0
C2834 C 0.60287 0.48933 0.98487 0.0
C2835 C 0.59401 0.49825 0.95438 0.0
C2836 C 0.57682 0.55111 0.07303 0.0
C2837 C 0.59026 0.51958 0.02839 0.0
C2838 C 0.57358 0.56139 0.10959 0.0
C2839 C 0.58103 0.55234 0.14121 0.0
C2840 C 0.58759 0.53137 0.06732 0.0
C2841 C 0.59229 0.53287 0.13419 0.0
C2842 C 0.60101 0.49983 1.02162 0.0
C2843 C 0.58338 0.51803 0.96257 0.0
N2844 N 0.59512 0.52302 0.09818 0.0
N2845 N 0.58185 0.52791 0.99844 0.0
H2846 H 0.24227 0.86493 0.80944 0.0
H2847 H 0.23762 0.85956 0.58508 0.0
H2848 H 0.1889 0.84295 0.75769 0.0
H2849 H 0.28954 0.8338 0.63498 0.0
H2850 H 0.21978 0.86491 0.64876 0.0
H2851 H 0.25991 0.86518 0.74589 0.0
C2852 C 0.23406 0.86074 0.78474 0.0
C2853 C 0.21399 0.85406 0.78899 0.0
C2854 C 0.23518 0.85839 0.6457 0.0
C2855 C 0.2341 0.85447 0.71621 0.0
C2856 C 0.24544 0.85549 0.60948 0.0
C2857 C 0.26517 0.84632 0.60468 0.0
C2858 C 0.24491 0.8527 0.67756 0.0
C2859 C 0.27439 0.84096 0.63735 0.0
C2860 C 0.24422 0.86067 0.74854 0.0
C2861 C 0.20431 0.84833 0.75581 0.0
N2862 N 0.26426 0.84437 0.67238 0.0
N2863 N 0.2144 0.84877 0.72086 0.0
H2864 H 0.58396 0.0182 0.39633 0.0
H2865 H 0.60563 0.00962 0.16905 0.0
H2866 H 0.60891 0.96067 0.33342 0.0
H2867 H 0.5727 0.06174 0.23503 0.0
H2868 H 0.61093 0.99273 0.22844 0.0
H2869 H 0.58332 0.03547 0.33719 0.0
C2870 C 0.58946 0.00919 0.37011 0.0
C2871 C 0.59654 0.98788 0.37014 0.0
C2872 C 0.60275 0.00799 0.22982 0.0
C2873 C 0.59569 0.00772 0.30152 0.0
C2874 C 0.59993 0.01773 0.19599 0.0
C2875 C 0.58874 0.03714 0.19706 0.0
C2876 C 0.59446 0.01787 0.26485 0.0
C2877 C 0.58138 0.04675 0.23275 0.0
C2878 C 0.589 0.01907 0.33616 0.0
C2879 C 0.60312 0.97703 0.33487 0.0
N2880 N 0.58431 0.03704 0.26495 0.0
N2881 N 0.60256 0.98704 0.30205 0.0
H2882 H 0.1936 0.30614 0.48401 0.0
H2883 H 0.23954 0.38573 0.63966 0.0
H2884 H 0.19964 0.37297 0.46597 0.0
H2885 H 0.24498 0.31686 0.63491 0.0
H2886 H 0.2242 0.38283 0.57841 0.0
H2887 H 0.21085 0.31127 0.54142 0.0
C2888 C 0.19839 0.32208 0.49224 0.0
C2889 C 0.19475 0.33924 0.47007 0.0
C2890 C 0.22885 0.36841 0.5908 0.0
C2891 C 0.21515 0.34521 0.53693 0.0
C2892 C 0.2377 0.37001 0.62577 0.0
C2893 C 0.24346 0.35149 0.64306 0.0
C2894 C 0.22561 0.34815 0.57297 0.0
C2895 C 0.24042 0.33162 0.62356 0.0
C2896 C 0.20849 0.32494 0.52518 0.0
C2897 C 0.20198 0.3593 0.48219 0.0
N2898 N 0.23167 0.33053 0.58995 0.0
N2899 N 0.21171 0.3618 0.51505 0.0
H2900 H 0.92206 0.96914 0.91324 0.0
H2901 H 0.88805 0.96078 0.6988 0.0
H2902 H 0.87467 0.00983 0.87739 0.0
H2903 H 0.93294 0.91922 0.74037 0.0
H2904 H 0.88198 0.97858 0.76334 0.0
H2905 H 0.92588 0.95099 0.84958 0.0
C2906 C 0.91252 0.97445 0.89202 0.0
C2907 C 0.89805 0.99125 0.90121 0.0
C2908 C 0.89304 0.96545 0.7583 0.0
C2909 C 0.9022 0.97002 0.82733 0.0
C2910 C 0.89641 0.95514 0.72144 0.0
C2911 C 0.91103 0.93836 0.71377 0.0
C2912 C 0.9044 0.95898 0.78785 0.0
C2913 C 0.92156 0.93207 0.74448 0.0
C2914 C 0.91461 0.96388 0.85551 0.0
C2915 C 0.88591 -0.00311 0.87213 0.0
N2916 N 0.91811 0.94236 0.77975 0.0
N2917 N 0.88829 0.98639 0.83668 0.0
H2918 H 0.20957 0.6523 0.23009 0.0
H2919 H 0.31143 0.64394 0.10463 0.0
H2920 H 0.26269 0.62758 0.27741 0.0
H2921 H 0.2571 0.62195 0.05637 0.0
H2922 H 0.29453 0.64224 0.16851 0.0
H2923 H 0.22673 0.64558 0.16614 0.0
C2924 C 0.22471 0.64504 0.22691 0.0
C2925 C 0.23458 0.64009 0.25902 0.0
C2926 C 0.28647 0.63743 0.1439 0.0
C2927 C 0.25465 0.63332 0.1861 0.0
C2928 C 0.29609 0.63837 0.10744 0.0
C2929 C 0.28577 0.63284 0.07497 0.0
C2930 C 0.26612 0.63167 0.14802 0.0
C2931 C 0.26577 0.62605 0.08048 0.0
C2932 C 0.2345 0.64128 0.19047 0.0
C2933 C 0.2544 0.6312 0.25334 0.0
N2934 N 0.25649 0.62607 0.11618 0.0
N2935 N 0.26393 0.62848 0.21767 0.0
H2936 H 0.38466 0.97685 0.18367 0.0
H2937 H 0.41079 0.97076 0.95734 0.0
H2938 H 0.42129 0.92704 0.1187 0.0
H2939 H 0.38095 0.02619 1.01925 0.0
H2940 H 0.41179 0.95353 1.01646 0.0
H2941 H 0.37984 0.99397 0.12427 0.0
C2942 C 0.39135 0.96931 0.15696 0.0
C2943 C 0.4034 0.95047 0.15626 0.0
C2944 C 0.40497 0.96946 1.01729 0.0
C2945 C 0.39816 0.97001 0.0884 0.0
C2946 C 0.40429 0.97931 0.98332 0.0
C2947 C 0.39571 2e-05 0.98296 0.0
C2948 C 0.39696 0.98021 0.05168 0.0
C2949 C 0.3879 0.01031 1.01801 0.0
C2950 C 0.38877 0.97918 0.12312 0.0
C2951 C 0.41196 0.9416 0.12081 0.0
N2952 N 0.38868 0.00032 0.05086 0.0
N2953 N 0.40922 0.95141 0.08861 0.0
H2954 H 0.7833 0.63286 0.90586 0.0
H2955 H 0.7887 0.65381 0.68446 0.0
H2956 H 0.83487 0.65818 0.84477 0.0
H2957 H 0.73696 0.62665 0.74187 0.0
H2958 H 0.80613 0.65393 0.74278 0.0
H2959 H 0.76685 0.62789 0.84596 0.0
C2960 C 0.79139 0.63691 0.87984 0.0
C2961 C 0.81056 0.64596 0.88061 0.0
C2962 C 0.79098 0.64788 0.74272 0.0
C2963 C 0.79158 0.64074 0.8119 0.0
C2964 C 0.78089 0.64799 0.70937 0.0
C2965 C 0.76117 0.64036 0.708 0.0
C2966 C 0.78137 0.64016 0.77544 0.0
C2967 C 0.75216 0.63256 0.74128 0.0
C2968 C 0.78188 0.63426 0.84564 0.0
C2969 C 0.8201 0.65118 0.84585 0.0
N2970 N 0.76226 0.63276 0.77356 0.0
N2971 N 0.81049 0.64867 0.81322 0.0
H2972 H 0.12128 0.97856 0.48527 0.0
H2973 H 0.06104 0.07019 0.62416 0.0
H2974 H 0.07448 0.02074 0.45152 0.0
H2975 H 0.10688 0.0288 0.66315 0.0
H2976 H 0.06742 0.05297 0.56039 0.0
H2977 H 0.11766 -0.00302 0.54924 0.0
C2978 C 0.1103 0.99172 0.49105 0.0
C2979 C 0.09814 -0.00208 0.46241 0.0
C2980 C 0.07625 0.04764 0.58264 0.0
C2981 C 0.09387 0.01917 0.53637 0.0
C2982 C 0.07264 0.05756 0.61933 0.0
C2983 C 0.08339 0.05101 0.64952 0.0
C2984 C 0.09074 0.03077 0.57535 0.0
C2985 C 0.0983 0.03456 0.64092 0.0
C2986 C 0.10819 0.00219 0.52781 0.0
C2987 C 0.08401 0.01498 0.47236 0.0
N2988 N 0.10143 0.02493 0.60478 0.0
N2989 N 0.08232 0.0249 0.50817 0.0
H2990 H 0.72072 0.37887 0.29224 0.0
H2991 H 0.77853 0.30828 0.12112 0.0
H2992 H 0.70224 0.31616 0.25244 0.0
H2993 H 0.77044 0.3759 0.10959 0.0
H2994 H 0.75608 0.31201 0.1788 0.0
H2995 H 0.74333 0.37946 0.23354 0.0
C2996 C 0.72119 0.36538 0.27118 0.0
C2997 C 0.70946 0.34744 0.2776 0.0
C2998 C 0.75929 0.32609 0.16384 0.0
C2999 C 0.73567 0.34783 0.21115 0.0
C3000 C 0.7723 0.32405 0.13088 0.0
C3001 C 0.77652 0.34181 0.11009 0.0
C3002 C 0.75048 0.34611 0.17703 0.0
C3003 C 0.76764 0.36175 0.12454 0.0
C3004 C 0.7341 0.36575 0.23775 0.0
C3005 C 0.71086 0.33039 0.24917 0.0
N3006 N 0.75508 0.3634 0.15724 0.0
N3007 N 0.72385 0.33091 0.21774 0.0
loop_
_geom_bond_atom_site_label_1
_geom_bond_atom_site_label_2
_geom_bond_distance
_geom_bond_site_symmetry_2
_ccdc_geom_bond_type
Sm0 C2 2.846 . S
Sm0 O20 2.543 . S
Sm0 O21 2.450 . S
Sm0 O22 2.681 . S
Sm0 O23 2.464 . S
Sm0 O24 2.396 . S
Sm0 O28 2.386 . S
Sm0 O31 2.408 . S
Sm1 C11 2.846 . S
Sm1 O22 2.386 . S
Sm1 O25 2.408 . S
Sm1 O26 2.543 . S
Sm1 O27 2.450 . S
Sm1 O28 2.681 . S
Sm1 O29 2.464 . S
Sm1 O30 2.396 . S
C2 Sm0 2.846 . S
C2 C3 1.506 . S
C2 O20 1.261 . S
C2 O21 1.242 . S
C3 C2 1.506 . S
C3 C4 1.358 . S
C3 C8 1.382 . S
C4 C3 1.358 . S
C4 C5 1.385 . S
C4 H32 0.930 . S
C5 C4 1.385 . S
C5 C6 1.395 . S
C5 H33 0.929 . S
C6 C5 1.395 . S
C6 C7 1.335 . S
C7 C6 1.335 . S
C7 C8 1.398 . S
C7 H34 0.930 1_455 S
C8 C3 1.382 . S
C8 C7 1.398 . S
C8 H35 0.901 1_455 S
C9 O22 1.271 . S
C9 O23 1.251 . S
C10 O24 1.252 . S
C10 O25 1.272 . S
C11 Sm1 2.846 . S
C11 C12 1.506 1_554 S
C11 O26 1.261 . S
C11 O27 1.242 . S
C12 C11 1.506 1_556 S
C12 C13 1.358 . S
C12 C17 1.382 . S
C13 C12 1.358 . S
C13 C14 1.385 . S
C13 H36 0.930 . S
C14 C13 1.385 . S
C14 C15 1.395 . S
C14 H37 0.929 . S
C15 C14 1.395 . S
C15 C16 1.335 . S
C16 C15 1.335 . S
C16 C17 1.398 . S
C16 H38 0.930 . S
C17 C12 1.382 . S
C17 C16 1.398 . S
C17 H39 0.929 . S
C18 O28 1.271 . S
C18 O29 1.251 . S
C19 O30 1.252 . S
C19 O31 1.272 . S
O20 Sm0 2.543 . S
O20 C2 1.261 . S
O21 Sm0 2.450 . S
O21 C2 1.242 . S
O22 Sm0 2.681 . S
O22 Sm1 2.386 . S
O22 C9 1.271 . S
O23 Sm0 2.464 . S
O23 C9 1.251 . S
O24 Sm0 2.396 . S
O24 C10 1.252 . S
O25 Sm1 2.408 . S
O25 C10 1.272 . S
O26 Sm1 2.543 . S
O26 C11 1.261 . S
O27 Sm1 2.450 . S
O27 C11 1.242 . S
O28 Sm0 2.386 . S
O28 Sm1 2.681 . S
O28 C18 1.271 . S
O29 Sm1 2.464 . S
O29 C18 1.251 . S
O30 Sm1 2.396 . S
O30 C19 1.252 . S
O31 Sm0 2.408 . S
O31 C19 1.272 . S
H32 C4 0.930 . S
H33 C5 0.929 . S
H34 C7 0.930 1_655 S
H35 C8 0.901 1_655 S
H36 C13 0.930 . S
H37 C14 0.929 . S
H38 C16 0.930 . S
H39 C17 0.929 . S
Sm40 C42 2.846 . S
Sm40 O60 2.543 . S
Sm40 O61 2.450 . S
Sm40 O62 2.681 . S
Sm40 O63 2.464 . S
Sm40 O64 2.396 . S
Sm40 O68 2.386 . S
Sm40 O71 2.408 . S
Sm41 C51 2.846 . S
Sm41 O62 2.386 . S
Sm41 O65 2.408 . S
Sm41 O66 2.543 . S
Sm41 O67 2.450 . S
Sm41 O68 2.681 . S
Sm41 O69 2.464 . S
Sm41 O70 2.396 . S
C42 Sm40 2.846 . S
C42 C43 1.506 . S
C42 O60 1.261 . S
C42 O61 1.242 . S
C43 C42 1.506 . S
C43 C44 1.358 . S
C43 C48 1.382 . S
C44 C43 1.358 . S
C44 C45 1.385 . S
C44 H72 0.930 . S
C45 C44 1.385 . S
C45 C46 1.395 . S
C45 H73 0.929 . S
C46 C45 1.395 . S
C46 C47 1.335 . S
C47 C46 1.335 . S
C47 C48 1.398 . S
C47 H74 0.930 . S
C48 C43 1.382 . S
C48 C47 1.398 . S
C48 H75 0.929 . S
C49 O62 1.271 . S
C49 O63 1.251 . S
C50 O64 1.252 . S
C50 O65 1.272 . S
C51 Sm41 2.846 . S
C51 C52 1.506 . S
C51 O66 1.261 . S
C51 O67 1.242 . S
C52 C51 1.506 . S
C52 C53 1.358 . S
C52 C57 1.382 . S
C53 C52 1.358 . S
C53 C54 1.385 . S
C53 H76 0.930 . S
C54 C53 1.385 . S
C54 C55 1.395 . S
C54 H77 0.929 . S
C55 C54 1.395 . S
C55 C56 1.335 . S
C56 C55 1.335 . S
C56 C57 1.398 . S
C56 H78 0.930 . S
C57 C52 1.382 . S
C57 C56 1.398 . S
C57 H79 0.929 . S
C58 O68 1.271 . S
C58 O69 1.251 . S
C59 O70 1.252 . S
C59 O71 1.272 . S
O60 Sm40 2.543 . S
O60 C42 1.261 . S
O61 Sm40 2.450 . S
O61 C42 1.242 . S
O62 Sm40 2.681 . S
O62 Sm41 2.386 . S
O62 C49 1.271 . S
O63 Sm40 2.464 . S
O63 C49 1.251 . S
O64 Sm40 2.396 . S
O64 C50 1.252 . S
O65 Sm41 2.408 . S
O65 C50 1.272 . S
O66 Sm41 2.543 . S
O66 C51 1.261 . S
O67 Sm41 2.450 . S
O67 C51 1.242 . S
O68 Sm40 2.386 . S
O68 Sm41 2.681 . S
O68 C58 1.271 . S
O69 Sm41 2.464 . S
O69 C58 1.251 . S
O70 Sm41 2.396 . S
O70 C59 1.252 . S
O71 Sm40 2.408 . S
O71 C59 1.272 . S
H72 C44 0.930 . S
H73 C45 0.929 . S
H74 C47 0.930 . S
H75 C48 0.929 . S
H76 C53 0.930 . S
H77 C54 0.929 . S
H78 C56 0.930 . S
H79 C57 0.929 . S
Sm80 C82 2.846 . S
Sm80 O100 2.543 . S
Sm80 O101 2.450 . S
Sm80 O102 2.681 . S
Sm80 O103 2.464 . S
Sm80 O104 2.396 . S
Sm80 O108 2.386 . S
Sm80 O111 2.408 . S
Sm81 C91 2.846 . S
Sm81 O102 2.386 . S
Sm81 O105 2.408 . S
Sm81 O106 2.543 . S
Sm81 O107 2.450 . S
Sm81 O108 2.681 . S
Sm81 O109 2.464 . S
Sm81 O110 2.396 . S
C82 Sm80 2.846 . S
C82 C83 1.506 . S
C82 O100 1.261 . S
C82 O101 1.242 . S
C83 C82 1.506 . S
C83 C84 1.358 . S
C83 C88 1.382 . S
C84 C83 1.358 . S
C84 C85 1.385 . S
C84 H112 0.930 . S
C85 C84 1.385 . S
C85 C86 1.395 . S
C85 H113 0.929 . S
C86 C85 1.395 . S
C86 C87 1.335 . S
C87 C86 1.335 . S
C87 C88 1.398 . S
C87 H114 0.930 . S
C88 C83 1.382 . S
C88 C87 1.398 . S
C88 H115 0.929 . S
C89 O102 1.271 . S
C89 O103 1.251 . S
C90 O104 1.252 . S
C90 O105 1.272 . S
C91 Sm81 2.846 . S
C91 C92 1.506 . S
C91 O106 1.261 . S
C91 O107 1.242 . S
C92 C91 1.506 . S
C92 C93 1.358 . S
C92 C97 1.382 . S
C93 C92 1.358 . S
C93 C94 1.385 . S
C93 H116 0.930 . S
C94 C93 1.385 . S
C94 C95 1.395 . S
C94 H117 0.929 . S
C95 C94 1.395 . S
C95 C96 1.335 . S
C96 C95 1.335 . S
C96 C97 1.398 . S
C96 H118 0.930 . S
C97 C92 1.382 . S
C97 C96 1.398 . S
C97 H119 0.929 . S
C98 O108 1.271 . S
C98 O109 1.251 . S
C99 O110 1.252 . S
C99 O111 1.272 . S
O100 Sm80 2.543 . S
O100 C82 1.261 . S
O101 Sm80 2.450 . S
O101 C82 1.242 . S
O102 Sm80 2.681 . S
O102 Sm81 2.386 . S
O102 C89 1.271 . S
O103 Sm80 2.464 . S
O103 C89 1.251 . S
O104 Sm80 2.396 . S
O104 C90 1.252 . S
O105 Sm81 2.408 . S
O105 C90 1.272 . S
O106 Sm81 2.543 . S
O106 C91 1.261 . S
O107 Sm81 2.450 . S
O107 C91 1.242 . S
O108 Sm80 2.386 . S
O108 Sm81 2.681 . S
O108 C98 1.271 . S
O109 Sm81 2.464 . S
O109 C98 1.251 . S
O110 Sm81 2.396 . S
O110 C99 1.252 . S
O111 Sm80 2.408 . S
O111 C99 1.272 . S
H112 C84 0.930 . S
H113 C85 0.929 . S
H114 C87 0.930 . S
H115 C88 0.929 . S
H116 C93 0.930 . S
H117 C94 0.929 . S
H118 C96 0.930 . S
H119 C97 0.929 . S
Sm120 C122 2.846 . S
Sm120 O140 2.543 . S
Sm120 O141 2.450 . S
Sm120 O142 2.681 . S
Sm120 O143 2.464 . S
Sm120 O144 2.396 . S
Sm120 O148 2.386 . S
Sm120 O151 2.408 . S
Sm121 C131 2.846 . S
Sm121 O142 2.386 . S
Sm121 O145 2.408 . S
Sm121 O146 2.543 . S
Sm121 O147 2.450 . S
Sm121 O148 2.681 . S
Sm121 O149 2.464 . S
Sm121 O150 2.396 . S
C122 Sm120 2.846 . S
C122 C123 1.506 . S
C122 O140 1.261 . S
C122 O141 1.242 . S
C123 C122 1.506 . S
C123 C124 1.358 . S
C123 C128 1.382 . S
C124 C123 1.358 . S
C124 C125 1.385 . S
C124 H152 0.930 . S
C125 C124 1.385 . S
C125 C126 1.395 . S
C125 H153 0.929 . S
C126 C125 1.395 . S
C126 C127 1.335 . S
C127 C126 1.335 . S
C127 C128 1.398 . S
C127 H154 0.930 . S
C128 C123 1.382 . S
C128 C127 1.398 . S
C128 H155 0.929 . S
C129 O142 1.271 . S
C129 O143 1.251 . S
C130 O144 1.252 . S
C130 O145 1.272 . S
C131 Sm121 2.846 . S
C131 C132 1.506 . S
C131 O146 1.261 . S
C131 O147 1.242 . S
C132 C131 1.506 . S
C132 C133 1.358 1_556 S
C132 C137 1.382 1_556 S
C133 C132 1.358 1_554 S
C133 C134 1.385 . S
C133 H156 0.930 . S
C134 C133 1.385 . S
C134 C135 1.395 . S
C134 H157 0.929 . S
C135 C134 1.395 . S
C135 C136 1.335 . S
C136 C135 1.335 . S
C136 C137 1.398 . S
C136 H158 0.930 . S
C137 C132 1.382 1_554 S
C137 C136 1.398 . S
C137 H159 0.929 1_554 S
C138 O148 1.271 . S
C138 O149 1.251 . S
C139 O150 1.252 . S
C139 O151 1.272 . S
O140 Sm120 2.543 . S
O140 C122 1.261 . S
O141 Sm120 2.450 . S
O141 C122 1.242 . S
O142 Sm120 2.681 . S
O142 Sm121 2.386 . S
O142 C129 1.271 . S
O143 Sm120 2.464 . S
O143 C129 1.251 . S
O144 Sm120 2.396 . S
O144 C130 1.252 . S
O145 Sm121 2.408 . S
O145 C130 1.272 . S
O146 Sm121 2.543 . S
O146 C131 1.261 . S
O147 Sm121 2.450 . S
O147 C131 1.242 . S
O148 Sm120 2.386 . S
O148 Sm121 2.681 . S
O148 C138 1.271 . S
O149 Sm121 2.464 . S
O149 C138 1.251 . S
O150 Sm121 2.396 . S
O150 C139 1.252 . S
O151 Sm120 2.408 . S
O151 C139 1.272 . S
H152 C124 0.930 . S
H153 C125 0.929 . S
H154 C127 0.930 . S
H155 C128 0.929 . S
H156 C133 0.930 . S
H157 C134 0.929 . S
H158 C136 0.930 . S
H159 C137 0.929 1_556 S
Sm160 C162 2.846 . S
Sm160 O180 2.543 . S
Sm160 O181 2.450 . S
Sm160 O182 2.681 . S
Sm160 O183 2.464 . S
Sm160 O184 2.396 . S
Sm160 O188 2.386 . S
Sm160 O191 2.408 . S
Sm161 C171 2.846 . S
Sm161 O182 2.386 . S
Sm161 O185 2.408 . S
Sm161 O186 2.543 . S
Sm161 O187 2.450 . S
Sm161 O188 2.681 . S
Sm161 O189 2.464 . S
Sm161 O190 2.396 . S
C162 Sm160 2.846 . S
C162 C163 1.506 . S
C162 O180 1.261 . S
C162 O181 1.242 . S
C163 C162 1.506 . S
C163 C164 1.358 . S
C163 C168 1.382 . S
C164 C163 1.358 . S
C164 C165 1.385 . S
C164 H192 0.930 . S
C165 C164 1.385 . S
C165 C166 1.395 . S
C165 H193 0.929 . S
C166 C165 1.395 . S
C166 C167 1.335 . S
C167 C166 1.335 . S
C167 C168 1.398 . S
C167 H194 0.930 . S
C168 C163 1.382 . S
C168 C167 1.398 . S
C168 H195 0.929 . S
C169 O182 1.271 . S
C169 O183 1.251 . S
C170 O184 1.252 . S
C170 O185 1.272 . S
C171 Sm161 2.846 . S
C171 C172 1.506 . S
C171 O186 1.261 . S
C171 O187 1.242 . S
C172 C171 1.506 . S
C172 C173 1.358 . S
C172 C177 1.382 . S
C173 C172 1.358 . S
C173 C174 1.385 . S
C173 H196 0.930 . S
C174 C173 1.385 . S
C174 C175 1.395 . S
C174 H197 0.929 . S
C175 C174 1.395 . S
C175 C176 1.335 . S
C176 C175 1.335 . S
C176 C177 1.398 . S
C176 H198 0.930 . S
C177 C172 1.382 . S
C177 C176 1.398 . S
C177 H199 0.929 . S
C178 O188 1.271 . S
C178 O189 1.251 . S
C179 O190 1.252 . S
C179 O191 1.272 . S
O180 Sm160 2.543 . S
O180 C162 1.261 . S
O181 Sm160 2.450 . S
O181 C162 1.242 . S
O182 Sm160 2.681 . S
O182 Sm161 2.386 . S
O182 C169 1.271 . S
O183 Sm160 2.464 . S
O183 C169 1.251 . S
O184 Sm160 2.396 . S
O184 C170 1.252 . S
O185 Sm161 2.408 . S
O185 C170 1.272 . S
O186 Sm161 2.543 . S
O186 C171 1.261 . S
O187 Sm161 2.450 . S
O187 C171 1.242 . S
O188 Sm160 2.386 . S
O188 Sm161 2.681 . S
O188 C178 1.271 . S
O189 Sm161 2.464 . S
O189 C178 1.251 . S
O190 Sm161 2.396 . S
O190 C179 1.252 . S
O191 Sm160 2.408 . S
O191 C179 1.272 . S
H192 C164 0.930 . S
H193 C165 0.929 . S
H194 C167 0.930 . S
H195 C168 0.929 . S
H196 C173 0.930 . S
H197 C174 0.929 . S
H198 C176 0.930 . S
H199 C177 0.929 . S
Sm200 C202 2.846 . S
Sm200 O220 2.543 . S
Sm200 O221 2.450 . S
Sm200 O222 2.681 . S
Sm200 O223 2.464 . S
Sm200 O224 2.396 . S
Sm200 O228 2.386 . S
Sm200 O231 2.408 . S
Sm201 C211 2.846 . S
Sm201 O222 2.386 . S
Sm201 O225 2.408 . S
Sm201 O226 2.543 . S
Sm201 O227 2.450 . S
Sm201 O228 2.681 . S
Sm201 O229 2.464 . S
Sm201 O230 2.396 . S
C202 Sm200 2.846 . S
C202 C203 1.506 . S
C202 O220 1.261 . S
C202 O221 1.242 . S
C203 C202 1.506 . S
C203 C204 1.358 . S
C203 C208 1.382 . S
C204 C203 1.358 . S
C204 C205 1.385 1_556 S
C204 H232 0.930 . S
C205 C204 1.385 1_554 S
C205 C206 1.395 . S
C205 H233 0.929 . S
C206 C205 1.395 . S
C206 C207 1.335 . S
C207 C206 1.335 . S
C207 C208 1.398 1_554 S
C207 H234 0.930 . S
C208 C203 1.382 . S
C208 C207 1.398 1_556 S
C208 H235 0.929 . S
C209 O222 1.271 . S
C209 O223 1.251 . S
C210 O224 1.252 . S
C210 O225 1.272 . S
C211 Sm201 2.846 . S
C211 C212 1.506 . S
C211 O226 1.261 . S
C211 O227 1.242 . S
C212 C211 1.506 . S
C212 C213 1.358 . S
C212 C217 1.382 . S
C213 C212 1.358 . S
C213 C214 1.385 . S
C213 H236 0.930 . S
C214 C213 1.385 . S
C214 C215 1.395 . S
C214 H237 0.929 . S
C215 C214 1.395 . S
C215 C216 1.335 . S
C216 C215 1.335 . S
C216 C217 1.398 . S
C216 H238 0.930 . S
C217 C212 1.382 . S
C217 C216 1.398 . S
C217 H239 0.929 . S
C218 O228 1.271 . S
C218 O229 1.251 . S
C219 O230 1.252 . S
C219 O231 1.272 . S
O220 Sm200 2.543 . S
O220 C202 1.261 . S
O221 Sm200 2.450 . S
O221 C202 1.242 . S
O222 Sm200 2.681 . S
O222 Sm201 2.386 . S
O222 C209 1.271 . S
O223 Sm200 2.464 . S
O223 C209 1.251 . S
O224 Sm200 2.396 . S
O224 C210 1.252 . S
O225 Sm201 2.408 . S
O225 C210 1.272 . S
O226 Sm201 2.543 . S
O226 C211 1.261 . S
O227 Sm201 2.450 . S
O227 C211 1.242 . S
O228 Sm200 2.386 . S
O228 Sm201 2.681 . S
O228 C218 1.271 . S
O229 Sm201 2.464 . S
O229 C218 1.251 . S
O230 Sm201 2.396 . S
O230 C219 1.252 . S
O231 Sm200 2.408 . S
O231 C219 1.272 . S
H232 C204 0.930 . S
H233 C205 0.929 . S
H234 C207 0.930 . S
H235 C208 0.929 . S
H236 C213 0.930 . S
H237 C214 0.929 . S
H238 C216 0.930 . S
H239 C217 0.929 . S
Sm240 C242 2.846 . S
Sm240 O260 2.543 . S
Sm240 O261 2.450 . S
Sm240 O262 2.681 . S
Sm240 O263 2.464 . S
Sm240 O264 2.396 . S
Sm240 O268 2.386 . S
Sm240 O271 2.408 . S
Sm241 C251 2.846 1_554 S
Sm241 O262 2.386 . S
Sm241 O265 2.408 . S
Sm241 O266 2.543 1_554 S
Sm241 O267 2.456 . S
Sm241 O268 2.681 . S
Sm241 O269 2.464 . S
Sm241 O270 2.396 . S
C242 Sm240 2.846 . S
C242 C243 1.506 . S
C242 O260 1.261 . S
C242 O261 1.242 . S
C243 C242 1.506 . S
C243 C244 1.358 . S
C243 C248 1.382 . S
C244 C243 1.358 . S
C244 C245 1.385 . S
C244 H272 0.930 . S
C245 C244 1.385 . S
C245 C246 1.395 . S
C245 H273 0.929 . S
C246 C245 1.395 . S
C246 C247 1.335 . S
C247 C246 1.335 . S
C247 C248 1.398 . S
C247 H274 0.930 . S
C248 C243 1.382 . S
C248 C247 1.398 . S
C248 H275 0.929 . S
C249 O262 1.271 . S
C249 O263 1.251 . S
C250 O264 1.252 . S
C250 O265 1.272 . S
C251 Sm241 2.846 1_556 S
C251 C252 1.506 . S
C251 O266 1.261 . S
C251 O267 1.237 1_556 S
C252 C251 1.506 . S
C252 C253 1.358 . S
C252 C257 1.382 . S
C253 C252 1.358 . S
C253 C254 1.385 . S
C253 H276 0.930 . S
C254 C253 1.385 . S
C254 C255 1.395 . S
C254 H277 0.929 . S
C255 C254 1.395 . S
C255 C256 1.335 . S
C256 C255 1.335 . S
C256 C257 1.398 . S
C256 H278 0.930 . S
C257 C252 1.382 . S
C257 C256 1.398 . S
C257 H279 0.929 . S
C258 O268 1.271 . S
C258 O269 1.251 . S
C259 O270 1.252 . S
C259 O271 1.272 . S
O260 Sm240 2.543 . S
O260 C242 1.261 . S
O261 Sm240 2.450 . S
O261 C242 1.242 . S
O262 Sm240 2.681 . S
O262 Sm241 2.386 . S
O262 C249 1.271 . S
O263 Sm240 2.464 . S
O263 C249 1.251 . S
O264 Sm240 2.396 . S
O264 C250 1.252 . S
O265 Sm241 2.408 . S
O265 C250 1.272 . S
O266 Sm241 2.543 1_556 S
O266 C251 1.261 . S
O267 Sm241 2.456 . S
O267 C251 1.237 1_554 S
O268 Sm240 2.386 . S
O268 Sm241 2.681 . S
O268 C258 1.271 . S
O269 Sm241 2.464 . S
O269 C258 1.251 . S
O270 Sm241 2.396 . S
O270 C259 1.252 . S
O271 Sm240 2.408 . S
O271 C259 1.272 . S
H272 C244 0.930 . S
H273 C245 0.929 . S
H274 C247 0.930 . S
H275 C248 0.929 . S
H276 C253 0.930 . S
H277 C254 0.929 . S
H278 C256 0.930 . S
H279 C257 0.929 . S
Sm280 C282 2.846 . S
Sm280 O300 2.543 . S
Sm280 O301 2.450 . S
Sm280 O302 2.681 . S
Sm280 O303 2.464 . S
Sm280 O304 2.396 . S
Sm280 O308 2.386 . S
Sm280 O311 2.408 . S
Sm281 C291 2.846 . S
Sm281 O302 2.386 . S
Sm281 O305 2.408 . S
Sm281 O306 2.543 . S
Sm281 O307 2.450 . S
Sm281 O308 2.681 . S
Sm281 O309 2.464 . S
Sm281 O310 2.396 . S
C282 Sm280 2.846 . S
C282 C283 1.506 . S
C282 O300 1.261 . S
C282 O301 1.242 . S
C283 C282 1.506 . S
C283 C284 1.358 . S
C283 C288 1.382 . S
C284 C283 1.358 . S
C284 C285 1.385 . S
C284 H312 0.930 . S
C285 C284 1.385 . S
C285 C286 1.395 . S
C285 H313 0.929 . S
C286 C285 1.395 . S
C286 C287 1.335 . S
C287 C286 1.335 . S
C287 C288 1.398 . S
C287 H314 0.930 . S
C288 C283 1.382 . S
C288 C287 1.398 . S
C288 H315 0.929 . S
C289 O302 1.271 . S
C289 O303 1.251 . S
C290 O304 1.252 . S
C290 O305 1.272 . S
C291 Sm281 2.846 . S
C291 C292 1.506 . S
C291 O306 1.261 . S
C291 O307 1.242 . S
C292 C291 1.506 . S
C292 C293 1.358 . S
C292 C297 1.382 . S
C293 C292 1.358 . S
C293 C294 1.385 . S
C293 H316 0.930 . S
C294 C293 1.385 . S
C294 C295 1.395 . S
C294 H317 0.929 . S
C295 C294 1.395 . S
C295 C296 1.335 . S
C296 C295 1.335 . S
C296 C297 1.398 . S
C296 H318 0.930 . S
C297 C292 1.382 . S
C297 C296 1.398 . S
C297 H319 0.929 . S
C298 O308 1.271 . S
C298 O309 1.251 . S
C299 O310 1.252 . S
C299 O311 1.272 . S
O300 Sm280 2.543 . S
O300 C282 1.261 . S
O301 Sm280 2.450 . S
O301 C282 1.242 . S
O302 Sm280 2.681 . S
O302 Sm281 2.386 . S
O302 C289 1.271 . S
O303 Sm280 2.464 . S
O303 C289 1.251 . S
O304 Sm280 2.396 . S
O304 C290 1.252 . S
O305 Sm281 2.408 . S
O305 C290 1.272 . S
O306 Sm281 2.543 . S
O306 C291 1.261 . S
O307 Sm281 2.450 . S
O307 C291 1.242 . S
O308 Sm280 2.386 . S
O308 Sm281 2.681 . S
O308 C298 1.271 . S
O309 Sm281 2.464 . S
O309 C298 1.251 . S
O310 Sm281 2.396 . S
O310 C299 1.252 . S
O311 Sm280 2.408 . S
O311 C299 1.272 . S
H312 C284 0.930 . S
H313 C285 0.929 . S
H314 C287 0.930 . S
H315 C288 0.929 . S
H316 C293 0.930 . S
H317 C294 0.929 . S
H318 C296 0.930 . S
H319 C297 0.929 . S
Sm320 C322 2.846 . S
Sm320 O340 2.543 . S
Sm320 O341 2.450 . S
Sm320 O342 2.681 . S
Sm320 O343 2.464 . S
Sm320 O344 2.396 . S
Sm320 O348 2.386 . S
Sm320 O351 2.408 . S
Sm321 C331 2.846 . S
Sm321 O342 2.386 . S
Sm321 O345 2.408 . S
Sm321 O346 2.543 . S
Sm321 O347 2.450 . S
Sm321 O348 2.681 . S
Sm321 O349 2.464 . S
Sm321 O350 2.396 . S
C322 Sm320 2.846 . S
C322 C323 1.506 . S
C322 O340 1.261 . S
C322 O341 1.242 . S
C323 C322 1.506 . S
C323 C324 1.358 . S
C323 C328 1.382 . S
C324 C323 1.358 . S
C324 C325 1.385 . S
C324 H352 0.930 . S
C325 C324 1.385 . S
C325 C326 1.395 . S
C325 H353 0.929 . S
C326 C325 1.395 . S
C326 C327 1.335 . S
C327 C326 1.335 . S
C327 C328 1.398 . S
C327 H354 0.930 . S
C328 C323 1.382 . S
C328 C327 1.398 . S
C328 H355 0.929 . S
C329 O342 1.271 . S
C329 O343 1.251 . S
C330 O344 1.252 . S
C330 O345 1.272 . S
C331 Sm321 2.846 . S
C331 C332 1.506 . S
C331 O346 1.261 . S
C331 O347 1.242 . S
C332 C331 1.506 . S
C332 C333 1.358 . S
C332 C337 1.382 . S
C333 C332 1.358 . S
C333 C334 1.385 . S
C333 H356 0.930 . S
C334 C333 1.385 . S
C334 C335 1.395 1_554 S
C334 H357 0.929 1_554 S
C335 C334 1.395 1_556 S
C335 C336 1.335 1_556 S
C336 C335 1.335 1_554 S
C336 C337 1.398 . S
C336 H358 0.930 1_654 S
C337 C332 1.382 . S
C337 C336 1.398 . S
C337 H359 0.899 1_655 S
C338 O348 1.271 . S
C338 O349 1.251 . S
C339 O350 1.252 . S
C339 O351 1.272 . S
O340 Sm320 2.543 . S
O340 C322 1.261 . S
O341 Sm320 2.450 . S
O341 C322 1.242 . S
O342 Sm320 2.681 . S
O342 Sm321 2.386 . S
O342 C329 1.271 . S
O343 Sm320 2.464 . S
O343 C329 1.251 . S
O344 Sm320 2.396 . S
O344 C330 1.252 . S
O345 Sm321 2.408 . S
O345 C330 1.272 . S
O346 Sm321 2.543 . S
O346 C331 1.261 . S
O347 Sm321 2.450 . S
O347 C331 1.242 . S
O348 Sm320 2.386 . S
O348 Sm321 2.681 . S
O348 C338 1.271 . S
O349 Sm321 2.464 . S
O349 C338 1.251 . S
O350 Sm321 2.396 . S
O350 C339 1.252 . S
O351 Sm320 2.408 . S
O351 C339 1.272 . S
H352 C324 0.930 . S
H353 C325 0.929 . S
H354 C327 0.930 . S
H355 C328 0.929 . S
H356 C333 0.930 . S
H357 C334 0.929 1_556 S
H358 C336 0.930 1_456 S
H359 C337 0.899 1_455 S
Sm360 C362 2.846 1_556 S
Sm360 O380 2.543 1_556 S
Sm360 O381 2.450 1_556 S
Sm360 O382 2.681 . S
Sm360 O383 2.464 . S
Sm360 O384 2.396 1_556 S
Sm360 O388 2.386 . S
Sm360 O391 2.408 . S
Sm361 C371 2.846 . S
Sm361 O382 2.386 . S
Sm361 O385 2.408 . S
Sm361 O386 2.543 . S
Sm361 O387 2.450 . S
Sm361 O388 2.681 . S
Sm361 O389 2.464 . S
Sm361 O390 2.396 . S
C362 Sm360 2.846 1_554 S
C362 C363 1.506 . S
C362 O380 1.261 . S
C362 O381 1.242 . S
C363 C362 1.506 . S
C363 C364 1.358 . S
C363 C368 1.382 . S
C364 C363 1.358 . S
C364 C365 1.385 . S
C364 H392 0.930 . S
C365 C364 1.385 . S
C365 C366 1.395 . S
C365 H393 0.929 . S
C366 C365 1.395 . S
C366 C367 1.335 . S
C367 C366 1.335 . S
C367 C368 1.398 . S
C367 H394 0.930 . S
C368 C363 1.382 . S
C368 C367 1.398 . S
C368 H395 0.929 . S
C369 O382 1.271 . S
C369 O383 1.251 . S
C370 O384 1.252 . S
C370 O385 1.272 1_554 S
C371 Sm361 2.846 . S
C371 C372 1.506 . S
C371 O386 1.261 . S
C371 O387 1.242 . S
C372 C371 1.506 . S
C372 C373 1.358 . S
C372 C377 1.382 . S
C373 C372 1.358 . S
C373 C374 1.385 . S
C373 H396 0.930 . S
C374 C373 1.385 . S
C374 C375 1.395 . S
C374 H397 0.929 . S
C375 C374 1.395 . S
C375 C376 1.335 . S
C376 C375 1.335 . S
C376 C377 1.398 . S
C376 H398 0.930 . S
C377 C372 1.382 . S
C377 C376 1.398 . S
C377 H399 0.929 . S
C378 O388 1.271 . S
C378 O389 1.251 . S
C379 O390 1.252 . S
C379 O391 1.272 . S
O380 Sm360 2.543 1_554 S
O380 C362 1.261 . S
O381 Sm360 2.450 1_554 S
O381 C362 1.242 . S
O382 Sm360 2.681 . S
O382 Sm361 2.386 . S
O382 C369 1.271 . S
O383 Sm360 2.464 . S
O383 C369 1.251 . S
O384 Sm360 2.396 1_554 S
O384 C370 1.252 . S
O385 Sm361 2.408 . S
O385 C370 1.272 1_556 S
O386 Sm361 2.543 . S
O386 C371 1.261 . S
O387 Sm361 2.450 . S
O387 C371 1.242 . S
O388 Sm360 2.386 . S
O388 Sm361 2.681 . S
O388 C378 1.271 . S
O389 Sm361 2.464 . S
O389 C378 1.251 . S
O390 Sm361 2.396 . S
O390 C379 1.252 . S
O391 Sm360 2.408 . S
O391 C379 1.272 . S
H392 C364 0.930 . S
H393 C365 0.929 . S
H394 C367 0.930 . S
H395 C368 0.929 . S
H396 C373 0.930 . S
H397 C374 0.929 . S
H398 C376 0.930 . S
H399 C377 0.929 . S
Sm400 C402 2.846 . S
Sm400 O420 2.543 . S
Sm400 O421 2.450 . S
Sm400 O422 2.681 . S
Sm400 O423 2.464 . S
Sm400 O424 2.396 . S
Sm400 O428 2.386 . S
Sm400 O431 2.408 . S
Sm401 C411 2.846 . S
Sm401 O422 2.386 . S
Sm401 O425 2.408 . S
Sm401 O426 2.543 . S
Sm401 O427 2.450 . S
Sm401 O428 2.681 . S
Sm401 O429 2.464 . S
Sm401 O430 2.396 . S
C402 Sm400 2.846 . S
C402 C403 1.506 . S
C402 O420 1.261 . S
C402 O421 1.242 . S
C403 C402 1.506 . S
C403 C404 1.358 . S
C403 C408 1.382 . S
C404 C403 1.358 . S
C404 C405 1.385 . S
C404 H432 0.930 . S
C405 C404 1.385 . S
C405 C406 1.395 . S
C405 H433 0.929 . S
C406 C405 1.395 . S
C406 C407 1.335 . S
C407 C406 1.335 . S
C407 C408 1.398 . S
C407 H434 0.930 . S
C408 C403 1.382 . S
C408 C407 1.398 . S
C408 H435 0.929 . S
C409 O422 1.271 . S
C409 O423 1.251 . S
C410 O424 1.252 . S
C410 O425 1.272 . S
C411 Sm401 2.846 . S
C411 C412 1.506 . S
C411 O426 1.261 . S
C411 O427 1.242 . S
C412 C411 1.506 . S
C412 C413 1.358 . S
C412 C417 1.382 . S
C413 C412 1.358 . S
C413 C414 1.385 . S
C413 H436 0.930 . S
C414 C413 1.385 . S
C414 C415 1.395 . S
C414 H437 0.929 . S
C415 C414 1.395 . S
C415 C416 1.335 . S
C416 C415 1.335 . S
C416 C417 1.398 . S
C416 H438 0.930 . S
C417 C412 1.382 . S
C417 C416 1.398 . S
C417 H439 0.929 . S
C418 O428 1.271 . S
C418 O429 1.251 . S
C419 O430 1.252 . S
C419 O431 1.272 . S
O420 Sm400 2.543 . S
O420 C402 1.261 . S
O421 Sm400 2.450 . S
O421 C402 1.242 . S
O422 Sm400 2.681 . S
O422 Sm401 2.386 . S
O422 C409 1.271 . S
O423 Sm400 2.464 . S
O423 C409 1.251 . S
O424 Sm400 2.396 . S
O424 C410 1.252 . S
O425 Sm401 2.408 . S
O425 C410 1.272 . S
O426 Sm401 2.543 . S
O426 C411 1.261 . S
O427 Sm401 2.450 . S
O427 C411 1.242 . S
O428 Sm400 2.386 . S
O428 Sm401 2.681 . S
O428 C418 1.271 . S
O429 Sm401 2.464 . S
O429 C418 1.251 . S
O430 Sm401 2.396 . S
O430 C419 1.252 . S
O431 Sm400 2.408 . S
O431 C419 1.272 . S
H432 C404 0.930 . S
H433 C405 0.929 . S
H434 C407 0.930 . S
H435 C408 0.929 . S
H436 C413 0.930 . S
H437 C414 0.929 . S
H438 C416 0.930 . S
H439 C417 0.929 . S
Sm440 C442 2.846 . S
Sm440 O460 2.543 . S
Sm440 O461 2.450 . S
Sm440 O462 2.681 . S
Sm440 O463 2.464 . S
Sm440 O464 2.396 . S
Sm440 O468 2.386 . S
Sm440 O471 2.408 . S
Sm441 C451 2.846 . S
Sm441 O462 2.386 . S
Sm441 O465 2.408 . S
Sm441 O466 2.543 . S
Sm441 O467 2.450 . S
Sm441 O468 2.681 . S
Sm441 O469 2.464 . S
Sm441 O470 2.396 . S
C442 Sm440 2.846 . S
C442 C443 1.506 . S
C442 O460 1.261 . S
C442 O461 1.242 . S
C443 C442 1.506 . S
C443 C444 1.358 . S
C443 C448 1.382 . S
C444 C443 1.358 . S
C444 C445 1.385 . S
C444 H472 0.930 . S
C445 C444 1.385 . S
C445 C446 1.395 . S
C445 H473 0.929 . S
C446 C445 1.395 . S
C446 C447 1.335 . S
C447 C446 1.335 . S
C447 C448 1.398 . S
C447 H474 0.930 . S
C448 C443 1.382 . S
C448 C447 1.398 . S
C448 H475 0.929 . S
C449 O462 1.271 . S
C449 O463 1.251 . S
C450 O464 1.252 . S
C450 O465 1.272 . S
C451 Sm441 2.846 . S
C451 C452 1.506 . S
C451 O466 1.261 . S
C451 O467 1.242 . S
C452 C451 1.506 . S
C452 C453 1.358 . S
C452 C457 1.382 . S
C453 C452 1.358 . S
C453 C454 1.385 . S
C453 H476 0.930 . S
C454 C453 1.385 . S
C454 C455 1.395 . S
C454 H477 0.929 . S
C455 C454 1.395 . S
C455 C456 1.335 . S
C456 C455 1.335 . S
C456 C457 1.398 . S
C456 H478 0.930 . S
C457 C452 1.382 . S
C457 C456 1.398 . S
C457 H479 0.929 . S
C458 O468 1.271 . S
C458 O469 1.251 . S
C459 O470 1.252 . S
C459 O471 1.272 . S
O460 Sm440 2.543 . S
O460 C442 1.261 . S
O461 Sm440 2.450 . S
O461 C442 1.242 . S
O462 Sm440 2.681 . S
O462 Sm441 2.386 . S
O462 C449 1.271 . S
O463 Sm440 2.464 . S
O463 C449 1.251 . S
O464 Sm440 2.396 . S
O464 C450 1.252 . S
O465 Sm441 2.408 . S
O465 C450 1.272 . S
O466 Sm441 2.543 . S
O466 C451 1.261 . S
O467 Sm441 2.450 . S
O467 C451 1.242 . S
O468 Sm440 2.386 . S
O468 Sm441 2.681 . S
O468 C458 1.271 . S
O469 Sm441 2.464 . S
O469 C458 1.251 . S
O470 Sm441 2.396 . S
O470 C459 1.252 . S
O471 Sm440 2.408 . S
O471 C459 1.272 . S
H472 C444 0.930 . S
H473 C445 0.929 . S
H474 C447 0.930 . S
H475 C448 0.929 . S
H476 C453 0.930 . S
H477 C454 0.929 . S
H478 C456 0.930 . S
H479 C457 0.929 . S
Sm480 C482 2.846 . S
Sm480 O500 2.543 . S
Sm480 O501 2.450 . S
Sm480 O502 2.681 . S
Sm480 O503 2.464 . S
Sm480 O504 2.396 . S
Sm480 O508 2.386 . S
Sm480 O511 2.408 . S
Sm481 C491 2.846 . S
Sm481 O502 2.386 . S
Sm481 O505 2.408 . S
Sm481 O506 2.543 . S
Sm481 O507 2.450 . S
Sm481 O508 2.681 . S
Sm481 O509 2.464 . S
Sm481 O510 2.396 . S
C482 Sm480 2.846 . S
C482 C483 1.506 . S
C482 O500 1.261 . S
C482 O501 1.242 . S
C483 C482 1.506 . S
C483 C484 1.358 . S
C483 C488 1.382 . S
C484 C483 1.358 . S
C484 C485 1.385 . S
C484 H512 0.930 . S
C485 C484 1.385 . S
C485 C486 1.395 . S
C485 H513 0.929 . S
C486 C485 1.395 . S
C486 C487 1.335 . S
C487 C486 1.335 . S
C487 C488 1.398 . S
C487 H514 0.930 . S
C488 C483 1.382 . S
C488 C487 1.398 . S
C488 H515 0.929 . S
C489 O502 1.271 . S
C489 O503 1.251 . S
C490 O504 1.252 . S
C490 O505 1.272 . S
C491 Sm481 2.846 . S
C491 C492 1.506 . S
C491 O506 1.261 . S
C491 O507 1.242 . S
C492 C491 1.506 . S
C492 C493 1.358 . S
C492 C497 1.382 . S
C493 C492 1.358 . S
C493 C494 1.385 . S
C493 H516 0.930 . S
C494 C493 1.385 . S
C494 C495 1.395 . S
C494 H517 0.929 . S
C495 C494 1.395 . S
C495 C496 1.335 . S
C496 C495 1.335 . S
C496 C497 1.398 . S
C496 H518 0.930 . S
C497 C492 1.382 . S
C497 C496 1.398 . S
C497 H519 0.929 . S
C498 O508 1.271 . S
C498 O509 1.251 . S
C499 O510 1.252 . S
C499 O511 1.272 . S
O500 Sm480 2.543 . S
O500 C482 1.261 . S
O501 Sm480 2.450 . S
O501 C482 1.242 . S
O502 Sm480 2.681 . S
O502 Sm481 2.386 . S
O502 C489 1.271 . S
O503 Sm480 2.464 . S
O503 C489 1.251 . S
O504 Sm480 2.396 . S
O504 C490 1.252 . S
O505 Sm481 2.408 . S
O505 C490 1.272 . S
O506 Sm481 2.543 . S
O506 C491 1.261 . S
O507 Sm481 2.450 . S
O507 C491 1.242 . S
O508 Sm480 2.386 . S
O508 Sm481 2.681 . S
O508 C498 1.271 . S
O509 Sm481 2.464 . S
O509 C498 1.251 . S
O510 Sm481 2.396 . S
O510 C499 1.252 . S
O511 Sm480 2.408 . S
O511 C499 1.272 . S
H512 C484 0.930 . S
H513 C485 0.929 . S
H514 C487 0.930 . S
H515 C488 0.929 . S
H516 C493 0.930 . S
H517 C494 0.929 . S
H518 C496 0.930 . S
H519 C497 0.929 . S
Sm520 C522 2.846 . S
Sm520 O540 2.543 . S
Sm520 O541 2.450 . S
Sm520 O542 2.681 . S
Sm520 O543 2.464 . S
Sm520 O544 2.396 . S
Sm520 O548 2.386 . S
Sm520 O551 2.408 . S
Sm521 C531 2.846 . S
Sm521 O542 2.386 . S
Sm521 O545 2.408 . S
Sm521 O546 2.543 . S
Sm521 O547 2.450 . S
Sm521 O548 2.681 . S
Sm521 O549 2.464 . S
Sm521 O550 2.396 . S
C522 Sm520 2.846 . S
C522 C523 1.506 . S
C522 O540 1.261 . S
C522 O541 1.242 . S
C523 C522 1.506 . S
C523 C524 1.358 . S
C523 C528 1.382 . S
C524 C523 1.358 . S
C524 C525 1.385 . S
C524 H552 0.930 . S
C525 C524 1.385 . S
C525 C526 1.395 . S
C525 H553 0.929 . S
C526 C525 1.395 . S
C526 C527 1.335 . S
C527 C526 1.335 . S
C527 C528 1.398 . S
C527 H554 0.930 . S
C528 C523 1.382 . S
C528 C527 1.398 . S
C528 H555 0.929 . S
C529 O542 1.271 . S
C529 O543 1.251 . S
C530 O544 1.252 . S
C530 O545 1.272 . S
C531 Sm521 2.846 . S
C531 C532 1.506 . S
C531 O546 1.261 . S
C531 O547 1.242 . S
C532 C531 1.506 . S
C532 C533 1.358 . S
C532 C537 1.382 . S
C533 C532 1.358 . S
C533 C534 1.385 . S
C533 H556 0.930 . S
C534 C533 1.385 . S
C534 C535 1.395 . S
C534 H557 0.929 . S
C535 C534 1.395 . S
C535 C536 1.335 . S
C536 C535 1.335 . S
C536 C537 1.398 . S
C536 H558 0.930 . S
C537 C532 1.382 . S
C537 C536 1.398 . S
C537 H559 0.929 . S
C538 O548 1.271 . S
C538 O549 1.251 . S
C539 O550 1.252 . S
C539 O551 1.272 . S
O540 Sm520 2.543 . S
O540 C522 1.261 . S
O541 Sm520 2.450 . S
O541 C522 1.242 . S
O542 Sm520 2.681 . S
O542 Sm521 2.386 . S
O542 C529 1.271 . S
O543 Sm520 2.464 . S
O543 C529 1.251 . S
O544 Sm520 2.396 . S
O544 C530 1.252 . S
O545 Sm521 2.408 . S
O545 C530 1.272 . S
O546 Sm521 2.543 . S
O546 C531 1.261 . S
O547 Sm521 2.450 . S
O547 C531 1.242 . S
O548 Sm520 2.386 . S
O548 Sm521 2.681 . S
O548 C538 1.271 . S
O549 Sm521 2.464 . S
O549 C538 1.251 . S
O550 Sm521 2.396 . S
O550 C539 1.252 . S
O551 Sm520 2.408 . S
O551 C539 1.272 . S
H552 C524 0.930 . S
H553 C525 0.929 . S
H554 C527 0.930 . S
H555 C528 0.929 . S
H556 C533 0.930 . S
H557 C534 0.929 . S
H558 C536 0.930 . S
H559 C537 0.929 . S
Sm560 C562 2.846 . S
Sm560 O580 2.543 . S
Sm560 O581 2.450 . S
Sm560 O582 2.681 . S
Sm560 O583 2.464 . S
Sm560 O584 2.396 . S
Sm560 O588 2.386 . S
Sm560 O591 2.408 . S
Sm561 C571 2.846 . S
Sm561 O582 2.386 . S
Sm561 O585 2.408 . S
Sm561 O586 2.543 . S
Sm561 O587 2.450 . S
Sm561 O588 2.681 . S
Sm561 O589 2.464 . S
Sm561 O590 2.396 . S
C562 Sm560 2.846 . S
C562 C563 1.506 . S
C562 O580 1.261 . S
C562 O581 1.242 . S
C563 C562 1.506 . S
C563 C564 1.358 . S
C563 C568 1.382 . S
C564 C563 1.358 . S
C564 C565 1.385 . S
C564 H592 0.930 . S
C565 C564 1.385 . S
C565 C566 1.395 . S
C565 H593 0.929 . S
C566 C565 1.395 . S
C566 C567 1.335 . S
C567 C566 1.335 . S
C567 C568 1.398 . S
C567 H594 0.930 . S
C568 C563 1.382 . S
C568 C567 1.398 . S
C568 H595 0.929 . S
C569 O582 1.271 . S
C569 O583 1.251 . S
C570 O584 1.252 . S
C570 O585 1.272 . S
C571 Sm561 2.846 . S
C571 C572 1.506 . S
C571 O586 1.261 . S
C571 O587 1.242 . S
C572 C571 1.506 . S
C572 C573 1.358 . S
C572 C577 1.382 . S
C573 C572 1.358 . S
C573 C574 1.385 . S
C573 H596 0.930 . S
C574 C573 1.385 . S
C574 C575 1.395 . S
C574 H597 0.929 . S
C575 C574 1.395 . S
C575 C576 1.335 . S
C576 C575 1.335 . S
C576 C577 1.398 . S
C576 H598 0.930 . S
C577 C572 1.382 . S
C577 C576 1.398 . S
C577 H599 0.929 . S
C578 O588 1.271 . S
C578 O589 1.251 . S
C579 O590 1.252 . S
C579 O591 1.272 . S
O580 Sm560 2.543 . S
O580 C562 1.261 . S
O581 Sm560 2.450 . S
O581 C562 1.242 . S
O582 Sm560 2.681 . S
O582 Sm561 2.386 . S
O582 C569 1.271 . S
O583 Sm560 2.464 . S
O583 C569 1.251 . S
O584 Sm560 2.396 . S
O584 C570 1.252 . S
O585 Sm561 2.408 . S
O585 C570 1.272 . S
O586 Sm561 2.543 . S
O586 C571 1.261 . S
O587 Sm561 2.450 . S
O587 C571 1.242 . S
O588 Sm560 2.386 . S
O588 Sm561 2.681 . S
O588 C578 1.271 . S
O589 Sm561 2.464 . S
O589 C578 1.251 . S
O590 Sm561 2.396 . S
O590 C579 1.252 . S
O591 Sm560 2.408 . S
O591 C579 1.272 . S
H592 C564 0.930 . S
H593 C565 0.929 . S
H594 C567 0.930 . S
H595 C568 0.929 . S
H596 C573 0.930 . S
H597 C574 0.929 . S
H598 C576 0.930 . S
H599 C577 0.929 . S
Sm600 C602 2.846 . S
Sm600 O620 2.543 . S
Sm600 O621 2.450 . S
Sm600 O622 2.681 . S
Sm600 O623 2.464 . S
Sm600 O624 2.396 . S
Sm600 O628 2.386 . S
Sm600 O631 2.408 . S
Sm601 C611 2.846 . S
Sm601 O622 2.386 . S
Sm601 O625 2.408 . S
Sm601 O626 2.543 . S
Sm601 O627 2.450 . S
Sm601 O628 2.681 . S
Sm601 O629 2.464 . S
Sm601 O630 2.396 . S
C602 Sm600 2.846 . S
C602 C603 1.506 1_556 S
C602 O620 1.261 . S
C602 O621 1.242 . S
C603 C602 1.506 1_554 S
C603 C604 1.358 . S
C603 C608 1.382 . S
C604 C603 1.358 . S
C604 C605 1.385 . S
C604 H632 0.930 . S
C605 C604 1.385 . S
C605 C606 1.395 . S
C605 H633 0.929 . S
C606 C605 1.395 . S
C606 C607 1.335 . S
C607 C606 1.335 . S
C607 C608 1.398 . S
C607 H634 0.930 . S
C608 C603 1.382 . S
C608 C607 1.398 . S
C608 H635 0.929 . S
C609 O622 1.271 . S
C609 O623 1.251 . S
C610 O624 1.252 . S
C610 O625 1.272 . S
C611 Sm601 2.846 . S
C611 C612 1.506 . S
C611 O626 1.261 . S
C611 O627 1.242 . S
C612 C611 1.506 . S
C612 C613 1.358 . S
C612 C617 1.382 . S
C613 C612 1.358 . S
C613 C614 1.385 . S
C613 H636 0.930 . S
C614 C613 1.385 . S
C614 C615 1.395 . S
C614 H637 0.929 . S
C615 C614 1.395 . S
C615 C616 1.335 . S
C616 C615 1.335 . S
C616 C617 1.398 . S
C616 H638 0.930 . S
C617 C612 1.382 . S
C617 C616 1.398 . S
C617 H639 0.929 . S
C618 O628 1.271 . S
C618 O629 1.251 . S
C619 O630 1.252 . S
C619 O631 1.272 . S
O620 Sm600 2.543 . S
O620 C602 1.261 . S
O621 Sm600 2.450 . S
O621 C602 1.242 . S
O622 Sm600 2.681 . S
O622 Sm601 2.386 . S
O622 C609 1.271 . S
O623 Sm600 2.464 . S
O623 C609 1.251 . S
O624 Sm600 2.396 . S
O624 C610 1.252 . S
O625 Sm601 2.408 . S
O625 C610 1.272 . S
O626 Sm601 2.543 . S
O626 C611 1.261 . S
O627 Sm601 2.450 . S
O627 C611 1.242 . S
O628 Sm600 2.386 . S
O628 Sm601 2.681 . S
O628 C618 1.271 . S
O629 Sm601 2.464 . S
O629 C618 1.251 . S
O630 Sm601 2.396 . S
O630 C619 1.252 . S
O631 Sm600 2.408 . S
O631 C619 1.272 . S
H632 C604 0.930 . S
H633 C605 0.929 . S
H634 C607 0.930 . S
H635 C608 0.929 . S
H636 C613 0.930 . S
H637 C614 0.929 . S
H638 C616 0.930 . S
H639 C617 0.929 . S
Sm640 C642 2.846 . S
Sm640 O660 2.543 . S
Sm640 O661 2.450 . S
Sm640 O662 2.681 . S
Sm640 O663 2.464 . S
Sm640 O664 2.396 . S
Sm640 O668 2.386 . S
Sm640 O671 2.408 . S
Sm641 C651 2.846 . S
Sm641 O662 2.386 . S
Sm641 O665 2.408 . S
Sm641 O666 2.543 . S
Sm641 O667 2.450 . S
Sm641 O668 2.681 . S
Sm641 O669 2.464 . S
Sm641 O670 2.396 . S
C642 Sm640 2.846 . S
C642 C643 1.506 . S
C642 O660 1.261 . S
C642 O661 1.242 . S
C643 C642 1.506 . S
C643 C644 1.358 . S
C643 C648 1.382 . S
C644 C643 1.358 . S
C644 C645 1.385 . S
C644 H672 0.930 . S
C645 C644 1.385 . S
C645 C646 1.395 . S
C645 H673 0.929 . S
C646 C645 1.395 . S
C646 C647 1.335 . S
C647 C646 1.335 . S
C647 C648 1.398 . S
C647 H674 0.930 . S
C648 C643 1.382 . S
C648 C647 1.398 . S
C648 H675 0.929 . S
C649 O662 1.271 . S
C649 O663 1.251 . S
C650 O664 1.252 . S
C650 O665 1.272 . S
C651 Sm641 2.846 . S
C651 C652 1.506 . S
C651 O666 1.261 . S
C651 O667 1.242 . S
C652 C651 1.506 . S
C652 C653 1.358 . S
C652 C657 1.382 . S
C653 C652 1.358 . S
C653 C654 1.385 . S
C653 H676 0.930 . S
C654 C653 1.385 . S
C654 C655 1.395 . S
C654 H677 0.929 . S
C655 C654 1.395 . S
C655 C656 1.335 . S
C656 C655 1.335 . S
C656 C657 1.398 . S
C656 H678 0.930 . S
C657 C652 1.382 . S
C657 C656 1.398 . S
C657 H679 0.929 . S
C658 O668 1.271 . S
C658 O669 1.251 . S
C659 O670 1.252 . S
C659 O671 1.272 . S
O660 Sm640 2.543 . S
O660 C642 1.261 . S
O661 Sm640 2.450 . S
O661 C642 1.242 . S
O662 Sm640 2.681 . S
O662 Sm641 2.386 . S
O662 C649 1.271 . S
O663 Sm640 2.464 . S
O663 C649 1.251 . S
O664 Sm640 2.396 . S
O664 C650 1.252 . S
O665 Sm641 2.408 . S
O665 C650 1.272 . S
O666 Sm641 2.543 . S
O666 C651 1.261 . S
O667 Sm641 2.450 . S
O667 C651 1.242 . S
O668 Sm640 2.386 . S
O668 Sm641 2.681 . S
O668 C658 1.271 . S
O669 Sm641 2.464 . S
O669 C658 1.251 . S
O670 Sm641 2.396 . S
O670 C659 1.252 . S
O671 Sm640 2.408 . S
O671 C659 1.272 . S
H672 C644 0.930 . S
H673 C645 0.929 . S
H674 C647 0.930 . S
H675 C648 0.929 . S
H676 C653 0.930 . S
H677 C654 0.929 . S
H678 C656 0.930 . S
H679 C657 0.929 . S
Sm680 C682 2.846 . S
Sm680 O700 2.543 . S
Sm680 O701 2.450 . S
Sm680 O702 2.681 . S
Sm680 O703 2.464 . S
Sm680 O704 2.396 . S
Sm680 O708 2.386 . S
Sm680 O711 2.408 . S
Sm681 C691 2.846 . S
Sm681 O702 2.386 . S
Sm681 O705 2.408 . S
Sm681 O706 2.543 . S
Sm681 O707 2.450 . S
Sm681 O708 2.681 . S
Sm681 O709 2.464 . S
Sm681 O710 2.396 . S
C682 Sm680 2.846 . S
C682 C683 1.506 . S
C682 O700 1.261 . S
C682 O701 1.242 . S
C683 C682 1.506 . S
C683 C684 1.358 1_556 S
C683 C688 1.382 1_556 S
C684 C683 1.358 1_554 S
C684 C685 1.385 . S
C684 H712 0.930 . S
C685 C684 1.385 . S
C685 C686 1.395 . S
C685 H713 0.929 . S
C686 C685 1.395 . S
C686 C687 1.335 . S
C687 C686 1.335 . S
C687 C688 1.398 . S
C687 H714 0.930 . S
C688 C683 1.382 1_554 S
C688 C687 1.398 . S
C688 H715 0.929 1_554 S
C689 O702 1.271 . S
C689 O703 1.251 . S
C690 O704 1.252 . S
C690 O705 1.272 . S
C691 Sm681 2.846 . S
C691 C692 1.506 . S
C691 O706 1.261 . S
C691 O707 1.242 . S
C692 C691 1.506 . S
C692 C693 1.358 . S
C692 C697 1.382 . S
C693 C692 1.358 . S
C693 C694 1.385 . S
C693 H716 0.930 . S
C694 C693 1.385 . S
C694 C695 1.395 . S
C694 H717 0.929 . S
C695 C694 1.395 . S
C695 C696 1.335 . S
C696 C695 1.335 . S
C696 C697 1.398 . S
C696 H718 0.930 . S
C697 C692 1.382 . S
C697 C696 1.398 . S
C697 H719 0.929 . S
C698 O708 1.271 . S
C698 O709 1.251 . S
C699 O710 1.252 . S
C699 O711 1.272 . S
O700 Sm680 2.543 . S
O700 C682 1.261 . S
O701 Sm680 2.450 . S
O701 C682 1.242 . S
O702 Sm680 2.681 . S
O702 Sm681 2.386 . S
O702 C689 1.271 . S
O703 Sm680 2.464 . S
O703 C689 1.251 . S
O704 Sm680 2.396 . S
O704 C690 1.252 . S
O705 Sm681 2.408 . S
O705 C690 1.272 . S
O706 Sm681 2.543 . S
O706 C691 1.261 . S
O707 Sm681 2.450 . S
O707 C691 1.242 . S
O708 Sm680 2.386 . S
O708 Sm681 2.681 . S
O708 C698 1.271 . S
O709 Sm681 2.464 . S
O709 C698 1.251 . S
O710 Sm681 2.396 . S
O710 C699 1.252 . S
O711 Sm680 2.408 . S
O711 C699 1.272 . S
H712 C684 0.930 . S
H713 C685 0.929 . S
H714 C687 0.930 . S
H715 C688 0.929 1_556 S
H716 C693 0.930 . S
H717 C694 0.929 . S
H718 C696 0.930 . S
H719 C697 0.929 . S
Sm720 C722 2.846 . S
Sm720 O740 2.543 . S
Sm720 O741 2.450 . S
Sm720 O742 2.681 . S
Sm720 O743 2.464 . S
Sm720 O744 2.396 . S
Sm720 O748 2.386 . S
Sm720 O751 2.408 . S
Sm721 C731 2.846 . S
Sm721 O742 2.386 . S
Sm721 O745 2.408 . S
Sm721 O746 2.543 . S
Sm721 O747 2.450 . S
Sm721 O748 2.681 . S
Sm721 O749 2.464 . S
Sm721 O750 2.396 . S
C722 Sm720 2.846 . S
C722 C723 1.506 . S
C722 O740 1.261 . S
C722 O741 1.242 . S
C723 C722 1.506 . S
C723 C724 1.358 . S
C723 C728 1.393 . S
C724 C723 1.358 . S
C724 C725 1.385 . S
C724 H752 0.930 . S
C725 C724 1.385 . S
C725 C726 1.395 . S
C725 H753 0.929 . S
C726 C725 1.395 . S
C726 C727 1.335 1_655 S
C727 C726 1.335 1_455 S
C727 C728 1.395 1_455 S
C727 H754 0.930 . S
C728 C723 1.393 . S
C728 C727 1.395 1_655 S
C728 H755 0.921 1_655 S
C729 O742 1.271 . S
C729 O743 1.251 . S
C730 O744 1.252 . S
C730 O745 1.272 . S
C731 Sm721 2.846 . S
C731 C732 1.506 1_554 S
C731 O746 1.261 . S
C731 O747 1.242 . S
C732 C731 1.506 1_556 S
C732 C733 1.358 . S
C732 C737 1.382 . S
C733 C732 1.358 . S
C733 C734 1.385 . S
C733 H756 0.930 . S
C734 C733 1.385 . S
C734 C735 1.395 . S
C734 H757 0.929 . S
C735 C734 1.395 . S
C735 C736 1.335 . S
C736 C735 1.335 . S
C736 C737 1.398 . S
C736 H758 0.930 . S
C737 C732 1.382 . S
C737 C736 1.398 . S
C737 H759 0.929 1_556 S
C738 O748 1.271 . S
C738 O749 1.251 . S
C739 O750 1.252 . S
C739 O751 1.272 . S
O740 Sm720 2.543 . S
O740 C722 1.261 . S
O741 Sm720 2.450 . S
O741 C722 1.242 . S
O742 Sm720 2.681 . S
O742 Sm721 2.386 . S
O742 C729 1.271 . S
O743 Sm720 2.464 . S
O743 C729 1.251 . S
O744 Sm720 2.396 . S
O744 C730 1.252 . S
O745 Sm721 2.408 . S
O745 C730 1.272 . S
O746 Sm721 2.543 . S
O746 C731 1.261 . S
O747 Sm721 2.450 . S
O747 C731 1.242 . S
O748 Sm720 2.386 . S
O748 Sm721 2.681 . S
O748 C738 1.271 . S
O749 Sm721 2.464 . S
O749 C738 1.251 . S
O750 Sm721 2.396 . S
O750 C739 1.252 . S
O751 Sm720 2.408 . S
O751 C739 1.272 . S
H752 C724 0.930 . S
H753 C725 0.929 . S
H754 C727 0.930 . S
H755 C728 0.921 1_455 S
H756 C733 0.930 . S
H757 C734 0.929 . S
H758 C736 0.930 . S
H759 C737 0.929 1_554 S
Sm760 C762 2.846 . S
Sm760 O780 2.543 . S
Sm760 O781 2.450 . S
Sm760 O782 2.681 . S
Sm760 O783 2.464 . S
Sm760 O784 2.396 . S
Sm760 O788 2.386 . S
Sm760 O791 2.408 . S
Sm761 C771 2.846 . S
Sm761 O782 2.386 . S
Sm761 O785 2.408 . S
Sm761 O786 2.543 . S
Sm761 O787 2.450 . S
Sm761 O788 2.681 . S
Sm761 O789 2.464 . S
Sm761 O790 2.396 . S
C762 Sm760 2.846 . S
C762 C763 1.506 . S
C762 O780 1.261 . S
C762 O781 1.242 . S
C763 C762 1.506 . S
C763 C764 1.358 . S
C763 C768 1.382 . S
C764 C763 1.358 . S
C764 C765 1.385 . S
C764 H792 0.930 . S
C765 C764 1.385 . S
C765 C766 1.395 . S
C765 H793 0.929 . S
C766 C765 1.395 . S
C766 C767 1.335 . S
C767 C766 1.335 . S
C767 C768 1.398 . S
C767 H794 0.930 . S
C768 C763 1.382 . S
C768 C767 1.398 . S
C768 H795 0.929 . S
C769 O782 1.271 . S
C769 O783 1.251 . S
C770 O784 1.252 . S
C770 O785 1.272 . S
C771 Sm761 2.846 . S
C771 C772 1.506 . S
C771 O786 1.261 . S
C771 O787 1.242 . S
C772 C771 1.506 . S
C772 C773 1.358 . S
C772 C777 1.382 . S
C773 C772 1.358 . S
C773 C774 1.385 . S
C773 H796 0.930 . S
C774 C773 1.385 . S
C774 C775 1.395 . S
C774 H797 0.929 . S
C775 C774 1.395 . S
C775 C776 1.335 . S
C776 C775 1.335 . S
C776 C777 1.398 . S
C776 H798 0.930 . S
C777 C772 1.382 . S
C777 C776 1.398 . S
C777 H799 0.929 . S
C778 O788 1.271 . S
C778 O789 1.251 . S
C779 O790 1.252 . S
C779 O791 1.272 . S
O780 Sm760 2.543 . S
O780 C762 1.261 . S
O781 Sm760 2.450 . S
O781 C762 1.242 . S
O782 Sm760 2.681 . S
O782 Sm761 2.386 . S
O782 C769 1.271 . S
O783 Sm760 2.464 . S
O783 C769 1.251 . S
O784 Sm760 2.396 . S
O784 C770 1.252 . S
O785 Sm761 2.408 . S
O785 C770 1.272 . S
O786 Sm761 2.543 . S
O786 C771 1.261 . S
O787 Sm761 2.450 . S
O787 C771 1.242 . S
O788 Sm760 2.386 . S
O788 Sm761 2.681 . S
O788 C778 1.271 . S
O789 Sm761 2.464 . S
O789 C778 1.251 . S
O790 Sm761 2.396 . S
O790 C779 1.252 . S
O791 Sm760 2.408 . S
O791 C779 1.272 . S
H792 C764 0.930 . S
H793 C765 0.929 . S
H794 C767 0.930 . S
H795 C768 0.929 . S
H796 C773 0.930 . S
H797 C774 0.929 . S
H798 C776 0.930 . S
H799 C777 0.929 . S
Sm800 C802 2.846 . S
Sm800 O820 2.543 . S
Sm800 O821 2.450 . S
Sm800 O822 2.681 . S
Sm800 O823 2.464 . S
Sm800 O824 2.396 . S
Sm800 O828 2.386 . S
Sm800 O831 2.408 . S
Sm801 C811 2.846 1_554 S
Sm801 O822 2.386 . S
Sm801 O825 2.408 . S
Sm801 O826 2.543 1_554 S
Sm801 O827 2.450 1_544 S
Sm801 O828 2.681 . S
Sm801 O829 2.464 . S
Sm801 O830 2.396 . S
C802 Sm800 2.846 . S
C802 C803 1.506 . S
C802 O820 1.261 . S
C802 O821 1.242 . S
C803 C802 1.506 . S
C803 C804 1.358 . S
C803 C808 1.382 . S
C804 C803 1.358 . S
C804 C805 1.385 . S
C804 H832 0.930 . S
C805 C804 1.385 . S
C805 C806 1.395 . S
C805 H833 0.929 . S
C806 C805 1.395 . S
C806 C807 1.335 . S
C807 C806 1.335 . S
C807 C808 1.398 . S
C807 H834 0.930 . S
C808 C803 1.382 . S
C808 C807 1.398 . S
C808 H835 0.929 . S
C809 O822 1.271 . S
C809 O823 1.251 . S
C810 O824 1.252 . S
C810 O825 1.272 . S
C811 Sm801 2.846 1_556 S
C811 C812 1.506 . S
C811 O826 1.261 . S
C811 O827 1.242 1_545 S
C812 C811 1.506 . S
C812 C813 1.358 . S
C812 C817 1.382 1_545 S
C813 C812 1.358 . S
C813 C814 1.385 . S
C813 H836 0.930 . S
C814 C813 1.385 . S
C814 C815 1.395 1_545 S
C814 H837 0.929 . S
C815 C814 1.395 1_565 S
C815 C816 1.335 . S
C816 C815 1.335 . S
C816 C817 1.398 . S
C816 H838 0.930 . S
C817 C812 1.382 1_565 S
C817 C816 1.398 . S
C817 H839 0.929 . S
C818 O828 1.271 . S
C818 O829 1.251 . S
C819 O830 1.252 . S
C819 O831 1.272 . S
O820 Sm800 2.543 . S
O820 C802 1.261 . S
O821 Sm800 2.450 . S
O821 C802 1.242 . S
O822 Sm800 2.681 . S
O822 Sm801 2.386 . S
O822 C809 1.271 . S
O823 Sm800 2.464 . S
O823 C809 1.251 . S
O824 Sm800 2.396 . S
O824 C810 1.252 . S
O825 Sm801 2.408 . S
O825 C810 1.272 . S
O826 Sm801 2.543 1_556 S
O826 C811 1.261 . S
O827 Sm801 2.450 1_566 S
O827 C811 1.242 1_565 S
O828 Sm800 2.386 . S
O828 Sm801 2.681 . S
O828 C818 1.271 . S
O829 Sm801 2.464 . S
O829 C818 1.251 . S
O830 Sm801 2.396 . S
O830 C819 1.252 . S
O831 Sm800 2.408 . S
O831 C819 1.272 . S
H832 C804 0.930 . S
H833 C805 0.929 . S
H834 C807 0.930 . S
H835 C808 0.929 . S
H836 C813 0.930 . S
H837 C814 0.929 . S
H838 C816 0.930 . S
H839 C817 0.929 . S
Sm840 C842 2.846 . S
Sm840 O860 2.543 . S
Sm840 O861 2.450 . S
Sm840 O862 2.681 . S
Sm840 O863 2.464 . S
Sm840 O864 2.396 . S
Sm840 O868 2.386 . S
Sm840 O871 2.408 . S
Sm841 C851 2.846 . S
Sm841 O862 2.386 . S
Sm841 O865 2.408 . S
Sm841 O866 2.543 . S
Sm841 O867 2.450 . S
Sm841 O868 2.681 . S
Sm841 O869 2.464 . S
Sm841 O870 2.396 . S
C842 Sm840 2.846 . S
C842 C843 1.506 . S
C842 O860 1.261 . S
C842 O861 1.242 . S
C843 C842 1.506 . S
C843 C844 1.358 . S
C843 C848 1.382 . S
C844 C843 1.358 . S
C844 C845 1.385 . S
C844 H872 0.930 . S
C845 C844 1.385 . S
C845 C846 1.395 . S
C845 H873 0.929 . S
C846 C845 1.395 . S
C846 C847 1.335 . S
C847 C846 1.335 . S
C847 C848 1.398 . S
C847 H874 0.930 . S
C848 C843 1.382 . S
C848 C847 1.398 . S
C848 H875 0.929 . S
C849 O862 1.271 . S
C849 O863 1.251 . S
C850 O864 1.252 . S
C850 O865 1.272 . S
C851 Sm841 2.846 . S
C851 C852 1.506 . S
C851 O866 1.261 . S
C851 O867 1.242 . S
C852 C851 1.506 . S
C852 C853 1.358 . S
C852 C857 1.382 . S
C853 C852 1.358 . S
C853 C854 1.385 . S
C853 H876 0.930 . S
C854 C853 1.385 . S
C854 C855 1.395 . S
C854 H877 0.929 . S
C855 C854 1.395 . S
C855 C856 1.335 . S
C856 C855 1.335 . S
C856 C857 1.398 . S
C856 H878 0.930 . S
C857 C852 1.382 . S
C857 C856 1.398 . S
C857 H879 0.929 . S
C858 O868 1.271 . S
C858 O869 1.251 . S
C859 O870 1.252 . S
C859 O871 1.272 . S
O860 Sm840 2.543 . S
O860 C842 1.261 . S
O861 Sm840 2.450 . S
O861 C842 1.242 . S
O862 Sm840 2.681 . S
O862 Sm841 2.386 . S
O862 C849 1.271 . S
O863 Sm840 2.464 . S
O863 C849 1.251 . S
O864 Sm840 2.396 . S
O864 C850 1.252 . S
O865 Sm841 2.408 . S
O865 C850 1.272 . S
O866 Sm841 2.543 . S
O866 C851 1.261 . S
O867 Sm841 2.450 . S
O867 C851 1.242 . S
O868 Sm840 2.386 . S
O868 Sm841 2.681 . S
O868 C858 1.271 . S
O869 Sm841 2.464 . S
O869 C858 1.251 . S
O870 Sm841 2.396 . S
O870 C859 1.252 . S
O871 Sm840 2.408 . S
O871 C859 1.272 . S
H872 C844 0.930 . S
H873 C845 0.929 . S
H874 C847 0.930 . S
H875 C848 0.929 . S
H876 C853 0.930 . S
H877 C854 0.929 . S
H878 C856 0.930 . S
H879 C857 0.929 . S
Sm880 C882 2.846 . S
Sm880 O900 2.543 . S
Sm880 O901 2.450 . S
Sm880 O902 2.681 . S
Sm880 O903 2.464 . S
Sm880 O904 2.396 . S
Sm880 O908 2.386 . S
Sm880 O911 2.408 . S
Sm881 C891 2.846 . S
Sm881 O902 2.386 . S
Sm881 O905 2.408 . S
Sm881 O906 2.543 . S
Sm881 O907 2.450 1_565 S
Sm881 O908 2.681 . S
Sm881 O909 2.464 1_565 S
Sm881 O910 2.396 . S
C882 Sm880 2.846 . S
C882 C883 1.506 . S
C882 O900 1.261 . S
C882 O901 1.242 . S
C883 C882 1.506 . S
C883 C884 1.358 . S
C883 C888 1.382 . S
C884 C883 1.358 . S
C884 C885 1.385 . S
C884 H912 0.930 . S
C885 C884 1.385 . S
C885 C886 1.395 . S
C885 H913 0.929 . S
C886 C885 1.395 . S
C886 C887 1.335 . S
C887 C886 1.335 . S
C887 C888 1.398 . S
C887 H914 0.930 . S
C888 C883 1.382 . S
C888 C887 1.398 . S
C888 H915 0.929 . S
C889 O902 1.271 . S
C889 O903 1.251 . S
C890 O904 1.252 . S
C890 O905 1.272 . S
C891 Sm881 2.846 . S
C891 C892 1.506 1_565 S
C891 O906 1.261 . S
C891 O907 1.242 1_565 S
C892 C891 1.506 1_545 S
C892 C893 1.358 1_545 S
C892 C897 1.382 . S
C893 C892 1.358 1_565 S
C893 C894 1.385 . S
C893 H916 0.930 . S
C894 C893 1.385 . S
C894 C895 1.395 1_565 S
C894 H917 0.929 . S
C895 C894 1.395 1_545 S
C895 C896 1.335 . S
C896 C895 1.335 . S
C896 C897 1.398 . S
C896 H918 0.930 . S
C897 C892 1.382 . S
C897 C896 1.398 . S
C897 H919 0.929 . S
C898 O908 1.271 . S
C898 O909 1.251 1_565 S
C899 O910 1.252 . S
C899 O911 1.272 . S
O900 Sm880 2.543 . S
O900 C882 1.261 . S
O901 Sm880 2.450 . S
O901 C882 1.242 . S
O902 Sm880 2.681 . S
O902 Sm881 2.386 . S
O902 C889 1.271 . S
O903 Sm880 2.464 . S
O903 C889 1.251 . S
O904 Sm880 2.396 . S
O904 C890 1.252 . S
O905 Sm881 2.408 . S
O905 C890 1.272 . S
O906 Sm881 2.543 . S
O906 C891 1.261 . S
O907 Sm881 2.450 1_545 S
O907 C891 1.242 1_545 S
O908 Sm880 2.386 . S
O908 Sm881 2.681 . S
O908 C898 1.271 . S
O909 Sm881 2.464 1_545 S
O909 C898 1.251 1_545 S
O910 Sm881 2.396 . S
O910 C899 1.252 . S
O911 Sm880 2.408 . S
O911 C899 1.272 . S
H912 C884 0.930 . S
H913 C885 0.929 . S
H914 C887 0.930 . S
H915 C888 0.929 . S
H916 C893 0.930 . S
H917 C894 0.929 . S
H918 C896 0.930 . S
H919 C897 0.929 . S
Sm920 C922 2.846 1_556 S
Sm920 O940 2.543 1_556 S
Sm920 O941 2.450 1_556 S
Sm920 O942 2.681 . S
Sm920 O943 2.464 . S
Sm920 O944 2.396 . S
Sm920 O948 2.386 . S
Sm920 O951 2.408 . S
Sm921 C931 2.846 . S
Sm921 O942 2.386 . S
Sm921 O945 2.408 . S
Sm921 O946 2.543 . S
Sm921 O947 2.450 . S
Sm921 O948 2.681 . S
Sm921 O949 2.464 . S
Sm921 O950 2.396 . S
C922 Sm920 2.846 1_554 S
C922 C923 1.506 . S
C922 O940 1.261 . S
C922 O941 1.242 . S
C923 C922 1.506 . S
C923 C924 1.358 . S
C923 C928 1.382 . S
C924 C923 1.358 . S
C924 C925 1.385 . S
C924 H952 0.930 . S
C925 C924 1.385 . S
C925 C926 1.395 . S
C925 H953 0.929 . S
C926 C925 1.395 . S
C926 C927 1.335 . S
C927 C926 1.335 . S
C927 C928 1.398 . S
C927 H954 0.930 . S
C928 C923 1.382 . S
C928 C927 1.398 . S
C928 H955 0.929 . S
C929 O942 1.271 . S
C929 O943 1.251 . S
C930 O944 1.252 . S
C930 O945 1.272 . S
C931 Sm921 2.846 . S
C931 C932 1.506 . S
C931 O946 1.261 . S
C931 O947 1.242 . S
C932 C931 1.506 . S
C932 C933 1.358 . S
C932 C937 1.382 . S
C933 C932 1.358 . S
C933 C934 1.385 . S
C933 H956 0.930 . S
C934 C933 1.385 . S
C934 C935 1.395 . S
C934 H957 0.929 . S
C935 C934 1.395 . S
C935 C936 1.335 . S
C936 C935 1.335 . S
C936 C937 1.398 . S
C936 H958 0.930 . S
C937 C932 1.382 . S
C937 C936 1.398 . S
C937 H959 0.929 . S
C938 O948 1.271 . S
C938 O949 1.251 . S
C939 O950 1.252 . S
C939 O951 1.272 . S
O940 Sm920 2.543 1_554 S
O940 C922 1.261 . S
O941 Sm920 2.450 1_554 S
O941 C922 1.242 . S
O942 Sm920 2.681 . S
O942 Sm921 2.386 . S
O942 C929 1.271 . S
O943 Sm920 2.464 . S
O943 C929 1.251 . S
O944 Sm920 2.396 . S
O944 C930 1.252 . S
O945 Sm921 2.408 . S
O945 C930 1.272 . S
O946 Sm921 2.543 . S
O946 C931 1.261 . S
O947 Sm921 2.450 . S
O947 C931 1.242 . S
O948 Sm920 2.386 . S
O948 Sm921 2.681 . S
O948 C938 1.271 . S
O949 Sm921 2.464 . S
O949 C938 1.251 . S
O950 Sm921 2.396 . S
O950 C939 1.252 . S
O951 Sm920 2.408 . S
O951 C939 1.272 . S
H952 C924 0.930 . S
H953 C925 0.929 . S
H954 C927 0.930 . S
H955 C928 0.929 . S
H956 C933 0.930 . S
H957 C934 0.929 . S
H958 C936 0.930 . S
H959 C937 0.929 . S
Sm960 C962 2.846 . S
Sm960 O980 2.543 . S
Sm960 O981 2.450 . S
Sm960 O982 2.681 . S
Sm960 O983 2.464 . S
Sm960 O984 2.396 . S
Sm960 O988 2.386 . S
Sm960 O991 2.408 . S
Sm961 C971 2.846 . S
Sm961 O982 2.386 . S
Sm961 O985 2.408 . S
Sm961 O986 2.543 . S
Sm961 O987 2.450 . S
Sm961 O988 2.681 . S
Sm961 O989 2.464 . S
Sm961 O990 2.396 . S
C962 Sm960 2.846 . S
C962 C963 1.506 . S
C962 O980 1.261 . S
C962 O981 1.242 . S
C963 C962 1.506 . S
C963 C964 1.358 . S
C963 C968 1.382 . S
C964 C963 1.358 . S
C964 C965 1.385 . S
C964 H992 0.930 . S
C965 C964 1.385 . S
C965 C966 1.395 . S
C965 H993 0.929 . S
C966 C965 1.395 . S
C966 C967 1.335 . S
C967 C966 1.335 . S
C967 C968 1.398 . S
C967 H994 0.930 . S
C968 C963 1.382 . S
C968 C967 1.398 . S
C968 H995 0.929 . S
C969 O982 1.271 . S
C969 O983 1.251 . S
C970 O984 1.252 . S
C970 O985 1.272 . S
C971 Sm961 2.846 . S
C971 C972 1.506 . S
C971 O986 1.261 . S
C971 O987 1.242 . S
C972 C971 1.506 . S
C972 C973 1.358 . S
C972 C977 1.382 . S
C973 C972 1.358 . S
C973 C974 1.385 . S
C973 H996 0.930 . S
C974 C973 1.385 . S
C974 C975 1.395 . S
C974 H997 0.929 . S
C975 C974 1.395 . S
C975 C976 1.335 . S
C976 C975 1.335 . S
C976 C977 1.398 . S
C976 H998 0.930 . S
C977 C972 1.382 . S
C977 C976 1.398 . S
C977 H999 0.929 . S
C978 O988 1.271 . S
C978 O989 1.251 . S
C979 O990 1.252 . S
C979 O991 1.272 . S
O980 Sm960 2.543 . S
O980 C962 1.261 . S
O981 Sm960 2.450 . S
O981 C962 1.242 . S
O982 Sm960 2.681 . S
O982 Sm961 2.386 . S
O982 C969 1.271 . S
O983 Sm960 2.464 . S
O983 C969 1.251 . S
O984 Sm960 2.396 . S
O984 C970 1.252 . S
O985 Sm961 2.408 . S
O985 C970 1.272 . S
O986 Sm961 2.543 . S
O986 C971 1.261 . S
O987 Sm961 2.450 . S
O987 C971 1.242 . S
O988 Sm960 2.386 . S
O988 Sm961 2.681 . S
O988 C978 1.271 . S
O989 Sm961 2.464 . S
O989 C978 1.251 . S
O990 Sm961 2.396 . S
O990 C979 1.252 . S
O991 Sm960 2.408 . S
O991 C979 1.272 . S
H992 C964 0.930 . S
H993 C965 0.929 . S
H994 C967 0.930 . S
H995 C968 0.929 . S
H996 C973 0.930 . S
H997 C974 0.929 . S
H998 C976 0.930 . S
H999 C977 0.929 . S
Sm1000 C1002 2.846 . S
Sm1000 O1020 2.543 . S
Sm1000 O1021 2.450 . S
Sm1000 O1022 2.681 . S
Sm1000 O1023 2.464 . S
Sm1000 O1024 2.396 . S
Sm1000 O1028 2.386 . S
Sm1000 O1031 2.408 . S
Sm1001 C1011 2.846 . S
Sm1001 O1022 2.386 . S
Sm1001 O1025 2.408 . S
Sm1001 O1026 2.543 . S
Sm1001 O1027 2.450 . S
Sm1001 O1028 2.681 . S
Sm1001 O1029 2.464 . S
Sm1001 O1030 2.396 . S
C1002 Sm1000 2.846 . S
C1002 C1003 1.506 . S
C1002 O1020 1.261 . S
C1002 O1021 1.242 . S
C1003 C1002 1.506 . S
C1003 C1004 1.358 . S
C1003 C1008 1.382 . S
C1004 C1003 1.358 . S
C1004 C1005 1.385 . S
C1004 H1032 0.930 . S
C1005 C1004 1.385 . S
C1005 C1006 1.395 . S
C1005 H1033 0.929 . S
C1006 C1005 1.395 . S
C1006 C1007 1.335 . S
C1007 C1006 1.335 . S
C1007 C1008 1.398 . S
C1007 H1034 0.930 . S
C1008 C1003 1.382 . S
C1008 C1007 1.398 . S
C1008 H1035 0.929 . S
C1009 O1022 1.271 . S
C1009 O1023 1.251 . S
C1010 O1024 1.252 . S
C1010 O1025 1.272 . S
C1011 Sm1001 2.846 . S
C1011 C1012 1.506 . S
C1011 O1026 1.261 . S
C1011 O1027 1.242 . S
C1012 C1011 1.506 . S
C1012 C1013 1.358 . S
C1012 C1017 1.382 . S
C1013 C1012 1.358 . S
C1013 C1014 1.385 . S
C1013 H1036 0.930 . S
C1014 C1013 1.385 . S
C1014 C1015 1.395 . S
C1014 H1037 0.929 . S
C1015 C1014 1.395 . S
C1015 C1016 1.335 . S
C1016 C1015 1.335 . S
C1016 C1017 1.398 . S
C1016 H1038 0.930 . S
C1017 C1012 1.382 . S
C1017 C1016 1.398 . S
C1017 H1039 0.929 . S
C1018 O1028 1.271 . S
C1018 O1029 1.251 . S
C1019 O1030 1.252 . S
C1019 O1031 1.272 . S
O1020 Sm1000 2.543 . S
O1020 C1002 1.261 . S
O1021 Sm1000 2.450 . S
O1021 C1002 1.242 . S
O1022 Sm1000 2.681 . S
O1022 Sm1001 2.386 . S
O1022 C1009 1.271 . S
O1023 Sm1000 2.464 . S
O1023 C1009 1.251 . S
O1024 Sm1000 2.396 . S
O1024 C1010 1.252 . S
O1025 Sm1001 2.408 . S
O1025 C1010 1.272 . S
O1026 Sm1001 2.543 . S
O1026 C1011 1.261 . S
O1027 Sm1001 2.450 . S
O1027 C1011 1.242 . S
O1028 Sm1000 2.386 . S
O1028 Sm1001 2.681 . S
O1028 C1018 1.271 . S
O1029 Sm1001 2.464 . S
O1029 C1018 1.251 . S
O1030 Sm1001 2.396 . S
O1030 C1019 1.252 . S
O1031 Sm1000 2.408 . S
O1031 C1019 1.272 . S
H1032 C1004 0.930 . S
H1033 C1005 0.929 . S
H1034 C1007 0.930 . S
H1035 C1008 0.929 . S
H1036 C1013 0.930 . S
H1037 C1014 0.929 . S
H1038 C1016 0.930 . S
H1039 C1017 0.929 . S
Sm1040 C1042 2.846 . S
Sm1040 O1060 2.543 . S
Sm1040 O1061 2.450 . S
Sm1040 O1062 2.681 . S
Sm1040 O1063 2.464 . S
Sm1040 O1064 2.396 . S
Sm1040 O1068 2.386 . S
Sm1040 O1071 2.408 . S
Sm1041 C1051 2.846 . S
Sm1041 O1062 2.386 . S
Sm1041 O1065 2.408 . S
Sm1041 O1066 2.543 . S
Sm1041 O1067 2.450 . S
Sm1041 O1068 2.681 . S
Sm1041 O1069 2.464 . S
Sm1041 O1070 2.396 . S
C1042 Sm1040 2.846 . S
C1042 C1043 1.506 . S
C1042 O1060 1.261 . S
C1042 O1061 1.242 . S
C1043 C1042 1.506 . S
C1043 C1044 1.358 . S
C1043 C1048 1.382 . S
C1044 C1043 1.358 . S
C1044 C1045 1.385 . S
C1044 H1072 0.930 . S
C1045 C1044 1.385 . S
C1045 C1046 1.395 . S
C1045 H1073 0.929 . S
C1046 C1045 1.395 . S
C1046 C1047 1.335 . S
C1047 C1046 1.335 . S
C1047 C1048 1.398 . S
C1047 H1074 0.930 . S
C1048 C1043 1.382 . S
C1048 C1047 1.398 . S
C1048 H1075 0.929 . S
C1049 O1062 1.271 . S
C1049 O1063 1.251 . S
C1050 O1064 1.252 . S
C1050 O1065 1.272 . S
C1051 Sm1041 2.846 . S
C1051 C1052 1.506 . S
C1051 O1066 1.261 . S
C1051 O1067 1.242 . S
C1052 C1051 1.506 . S
C1052 C1053 1.358 . S
C1052 C1057 1.391 . S
C1053 C1052 1.358 . S
C1053 C1054 1.385 1_554 S
C1053 H1076 0.930 . S
C1054 C1053 1.385 1_556 S
C1054 C1055 1.395 . S
C1054 H1077 0.929 . S
C1055 C1054 1.395 . S
C1055 C1056 1.335 1_455 S
C1056 C1055 1.335 1_655 S
C1056 C1057 1.396 1_656 S
C1056 H1078 0.930 . S
C1057 C1052 1.391 . S
C1057 C1056 1.396 1_454 S
C1057 H1079 0.923 1_455 S
C1058 O1068 1.271 . S
C1058 O1069 1.251 . S
C1059 O1070 1.252 . S
C1059 O1071 1.272 . S
O1060 Sm1040 2.543 . S
O1060 C1042 1.261 . S
O1061 Sm1040 2.450 . S
O1061 C1042 1.242 . S
O1062 Sm1040 2.681 . S
O1062 Sm1041 2.386 . S
O1062 C1049 1.271 . S
O1063 Sm1040 2.464 . S
O1063 C1049 1.251 . S
O1064 Sm1040 2.396 . S
O1064 C1050 1.252 . S
O1065 Sm1041 2.408 . S
O1065 C1050 1.272 . S
O1066 Sm1041 2.543 . S
O1066 C1051 1.261 . S
O1067 Sm1041 2.450 . S
O1067 C1051 1.242 . S
O1068 Sm1040 2.386 . S
O1068 Sm1041 2.681 . S
O1068 C1058 1.271 . S
O1069 Sm1041 2.464 . S
O1069 C1058 1.251 . S
O1070 Sm1041 2.396 . S
O1070 C1059 1.252 . S
O1071 Sm1040 2.408 . S
O1071 C1059 1.272 . S
H1072 C1044 0.930 . S
H1073 C1045 0.929 . S
H1074 C1047 0.930 . S
H1075 C1048 0.929 . S
H1076 C1053 0.930 . S
H1077 C1054 0.929 . S
H1078 C1056 0.930 . S
H1079 C1057 0.923 1_655 S
Sm1080 C1082 2.846 . S
Sm1080 O1100 2.543 . S
Sm1080 O1101 2.450 . S
Sm1080 O1102 2.681 . S
Sm1080 O1103 2.464 . S
Sm1080 O1104 2.396 . S
Sm1080 O1108 2.386 . S
Sm1080 O1111 2.408 . S
Sm1081 C1091 2.846 1_556 S
Sm1081 O1102 2.386 . S
Sm1081 O1105 2.408 . S
Sm1081 O1106 2.543 1_556 S
Sm1081 O1107 2.450 1_556 S
Sm1081 O1108 2.681 . S
Sm1081 O1109 2.464 . S
Sm1081 O1110 2.396 1_556 S
C1082 Sm1080 2.846 . S
C1082 C1083 1.506 . S
C1082 O1100 1.261 . S
C1082 O1101 1.242 . S
C1083 C1082 1.506 . S
C1083 C1084 1.358 . S
C1083 C1088 1.382 . S
C1084 C1083 1.358 . S
C1084 C1085 1.385 . S
C1084 H1112 0.930 . S
C1085 C1084 1.385 . S
C1085 C1086 1.395 . S
C1085 H1113 0.929 . S
C1086 C1085 1.395 . S
C1086 C1087 1.335 . S
C1087 C1086 1.335 . S
C1087 C1088 1.398 . S
C1087 H1114 0.930 . S
C1088 C1083 1.382 . S
C1088 C1087 1.398 . S
C1088 H1115 0.929 . S
C1089 O1102 1.271 . S
C1089 O1103 1.251 . S
C1090 O1104 1.252 . S
C1090 O1105 1.272 . S
C1091 Sm1081 2.846 1_554 S
C1091 C1092 1.506 . S
C1091 O1106 1.261 . S
C1091 O1107 1.242 . S
C1092 C1091 1.506 . S
C1092 C1093 1.358 . S
C1092 C1097 1.382 . S
C1093 C1092 1.358 . S
C1093 C1094 1.385 . S
C1093 H1116 0.930 . S
C1094 C1093 1.385 . S
C1094 C1095 1.395 . S
C1094 H1117 0.929 . S
C1095 C1094 1.395 . S
C1095 C1096 1.335 . S
C1096 C1095 1.335 . S
C1096 C1097 1.398 . S
C1096 H1118 0.930 . S
C1097 C1092 1.382 . S
C1097 C1096 1.398 . S
C1097 H1119 0.929 . S
C1098 O1108 1.271 . S
C1098 O1109 1.251 . S
C1099 O1110 1.252 . S
C1099 O1111 1.272 1_554 S
O1100 Sm1080 2.543 . S
O1100 C1082 1.261 . S
O1101 Sm1080 2.450 . S
O1101 C1082 1.242 . S
O1102 Sm1080 2.681 . S
O1102 Sm1081 2.386 . S
O1102 C1089 1.271 . S
O1103 Sm1080 2.464 . S
O1103 C1089 1.251 . S
O1104 Sm1080 2.396 . S
O1104 C1090 1.252 . S
O1105 Sm1081 2.408 . S
O1105 C1090 1.272 . S
O1106 Sm1081 2.543 1_554 S
O1106 C1091 1.261 . S
O1107 Sm1081 2.450 1_554 S
O1107 C1091 1.242 . S
O1108 Sm1080 2.386 . S
O1108 Sm1081 2.681 . S
O1108 C1098 1.271 . S
O1109 Sm1081 2.464 . S
O1109 C1098 1.251 . S
O1110 Sm1081 2.396 1_554 S
O1110 C1099 1.252 . S
O1111 Sm1080 2.408 . S
O1111 C1099 1.272 1_556 S
H1112 C1084 0.930 . S
H1113 C1085 0.929 . S
H1114 C1087 0.930 . S
H1115 C1088 0.929 . S
H1116 C1093 0.930 . S
H1117 C1094 0.929 . S
H1118 C1096 0.930 . S
H1119 C1097 0.929 . S
Sm1120 C1122 2.846 . S
Sm1120 O1140 2.543 . S
Sm1120 O1141 2.450 1_565 S
Sm1120 O1142 2.681 . S
Sm1120 O1143 2.464 . S
Sm1120 O1144 2.396 . S
Sm1120 O1148 2.386 . S
Sm1120 O1151 2.408 . S
Sm1121 C1131 2.846 . S
Sm1121 O1142 2.386 . S
Sm1121 O1145 2.408 . S
Sm1121 O1146 2.543 . S
Sm1121 O1147 2.450 . S
Sm1121 O1148 2.681 . S
Sm1121 O1149 2.464 . S
Sm1121 O1150 2.396 . S
C1122 Sm1120 2.846 . S
C1122 C1123 1.506 . S
C1122 O1140 1.261 . S
C1122 O1141 1.242 1_565 S
C1123 C1122 1.506 . S
C1123 C1124 1.358 . S
C1123 C1128 1.382 1_565 S
C1124 C1123 1.358 . S
C1124 C1125 1.385 . S
C1124 H1152 0.930 . S
C1125 C1124 1.385 . S
C1125 C1126 1.395 1_565 S
C1125 H1153 0.929 . S
C1126 C1125 1.395 1_545 S
C1126 C1127 1.335 . S
C1127 C1126 1.335 . S
C1127 C1128 1.398 . S
C1127 H1154 0.930 . S
C1128 C1123 1.382 1_545 S
C1128 C1127 1.398 . S
C1128 H1155 0.929 . S
C1129 O1142 1.271 . S
C1129 O1143 1.251 . S
C1130 O1144 1.252 . S
C1130 O1145 1.272 . S
C1131 Sm1121 2.846 . S
C1131 C1132 1.506 . S
C1131 O1146 1.261 . S
C1131 O1147 1.242 . S
C1132 C1131 1.506 . S
C1132 C1133 1.358 . S
C1132 C1137 1.382 . S
C1133 C1132 1.358 . S
C1133 C1134 1.385 . S
C1133 H1156 0.930 . S
C1134 C1133 1.385 . S
C1134 C1135 1.395 . S
C1134 H1157 0.929 . S
C1135 C1134 1.395 . S
C1135 C1136 1.335 . S
C1136 C1135 1.335 . S
C1136 C1137 1.398 . S
C1136 H1158 0.930 . S
C1137 C1132 1.382 . S
C1137 C1136 1.398 . S
C1137 H1159 0.929 . S
C1138 O1148 1.271 . S
C1138 O1149 1.251 . S
C1139 O1150 1.252 . S
C1139 O1151 1.272 . S
O1140 Sm1120 2.543 . S
O1140 C1122 1.261 . S
O1141 Sm1120 2.450 1_545 S
O1141 C1122 1.242 1_545 S
O1142 Sm1120 2.681 . S
O1142 Sm1121 2.386 . S
O1142 C1129 1.271 . S
O1143 Sm1120 2.464 . S
O1143 C1129 1.251 . S
O1144 Sm1120 2.396 . S
O1144 C1130 1.252 . S
O1145 Sm1121 2.408 . S
O1145 C1130 1.272 . S
O1146 Sm1121 2.543 . S
O1146 C1131 1.261 . S
O1147 Sm1121 2.450 . S
O1147 C1131 1.242 . S
O1148 Sm1120 2.386 . S
O1148 Sm1121 2.681 . S
O1148 C1138 1.271 . S
O1149 Sm1121 2.464 . S
O1149 C1138 1.251 . S
O1150 Sm1121 2.396 . S
O1150 C1139 1.252 . S
O1151 Sm1120 2.408 . S
O1151 C1139 1.272 . S
H1152 C1124 0.930 . S
H1153 C1125 0.929 . S
H1154 C1127 0.930 . S
H1155 C1128 0.929 . S
H1156 C1133 0.930 . S
H1157 C1134 0.929 . S
H1158 C1136 0.930 . S
H1159 C1137 0.929 . S
Sm1160 C1162 2.846 . S
Sm1160 O1180 2.543 . S
Sm1160 O1181 2.450 . S
Sm1160 O1182 2.681 1_554 S
Sm1160 O1183 2.464 1_554 S
Sm1160 O1184 2.396 . S
Sm1160 O1188 2.386 . S
Sm1160 O1191 2.408 1_554 S
Sm1161 C1171 2.846 . S
Sm1161 O1182 2.386 . S
Sm1161 O1185 2.408 1_556 S
Sm1161 O1186 2.543 . S
Sm1161 O1187 2.450 . S
Sm1161 O1188 2.681 1_556 S
Sm1161 O1189 2.464 . S
Sm1161 O1190 2.396 . S
C1162 Sm1160 2.846 . S
C1162 C1163 1.506 . S
C1162 O1180 1.261 . S
C1162 O1181 1.242 . S
C1163 C1162 1.506 . S
C1163 C1164 1.358 . S
C1163 C1168 1.382 . S
C1164 C1163 1.358 . S
C1164 C1165 1.385 . S
C1164 H1192 0.930 . S
C1165 C1164 1.385 . S
C1165 C1166 1.395 . S
C1165 H1193 0.929 . S
C1166 C1165 1.395 . S
C1166 C1167 1.335 . S
C1167 C1166 1.335 . S
C1167 C1168 1.398 . S
C1167 H1194 0.930 . S
C1168 C1163 1.382 . S
C1168 C1167 1.398 . S
C1168 H1195 0.929 . S
C1169 O1182 1.271 . S
C1169 O1183 1.251 . S
C1170 O1184 1.252 . S
C1170 O1185 1.272 . S
C1171 Sm1161 2.846 . S
C1171 C1172 1.506 . S
C1171 O1186 1.261 . S
C1171 O1187 1.242 . S
C1172 C1171 1.506 . S
C1172 C1173 1.358 . S
C1172 C1177 1.382 . S
C1173 C1172 1.358 . S
C1173 C1174 1.385 . S
C1173 H1196 0.930 . S
C1174 C1173 1.385 . S
C1174 C1175 1.395 . S
C1174 H1197 0.929 . S
C1175 C1174 1.395 . S
C1175 C1176 1.335 . S
C1176 C1175 1.335 . S
C1176 C1177 1.398 . S
C1176 H1198 0.930 . S
C1177 C1172 1.382 . S
C1177 C1176 1.398 . S
C1177 H1199 0.929 . S
C1178 O1188 1.271 1_556 S
C1178 O1189 1.251 . S
C1179 O1190 1.252 . S
C1179 O1191 1.272 . S
O1180 Sm1160 2.543 . S
O1180 C1162 1.261 . S
O1181 Sm1160 2.450 . S
O1181 C1162 1.242 . S
O1182 Sm1160 2.681 1_556 S
O1182 Sm1161 2.386 . S
O1182 C1169 1.271 . S
O1183 Sm1160 2.464 1_556 S
O1183 C1169 1.251 . S
O1184 Sm1160 2.396 . S
O1184 C1170 1.252 . S
O1185 Sm1161 2.408 1_554 S
O1185 C1170 1.272 . S
O1186 Sm1161 2.543 . S
O1186 C1171 1.261 . S
O1187 Sm1161 2.450 . S
O1187 C1171 1.242 . S
O1188 Sm1160 2.386 . S
O1188 Sm1161 2.681 1_554 S
O1188 C1178 1.271 1_554 S
O1189 Sm1161 2.464 . S
O1189 C1178 1.251 . S
O1190 Sm1161 2.396 . S
O1190 C1179 1.252 . S
O1191 Sm1160 2.408 1_556 S
O1191 C1179 1.272 . S
H1192 C1164 0.930 . S
H1193 C1165 0.929 . S
H1194 C1167 0.930 . S
H1195 C1168 0.929 . S
H1196 C1173 0.930 . S
H1197 C1174 0.929 . S
H1198 C1176 0.930 . S
H1199 C1177 0.929 . S
Sm1200 C1202 2.846 . S
Sm1200 O1220 2.543 . S
Sm1200 O1221 2.450 1_545 S
Sm1200 O1222 2.681 . S
Sm1200 O1223 2.464 1_545 S
Sm1200 O1224 2.396 . S
Sm1200 O1228 2.386 . S
Sm1200 O1231 2.408 . S
Sm1201 C1211 2.846 . S
Sm1201 O1222 2.386 . S
Sm1201 O1225 2.408 . S
Sm1201 O1226 2.543 . S
Sm1201 O1227 2.450 . S
Sm1201 O1228 2.681 . S
Sm1201 O1229 2.464 . S
Sm1201 O1230 2.396 . S
C1202 Sm1200 2.846 . S
C1202 C1203 1.506 1_545 S
C1202 O1220 1.261 . S
C1202 O1221 1.242 1_545 S
C1203 C1202 1.506 1_565 S
C1203 C1204 1.358 1_565 S
C1203 C1208 1.382 . S
C1204 C1203 1.358 1_545 S
C1204 C1205 1.385 . S
C1204 H1232 0.930 . S
C1205 C1204 1.385 . S
C1205 C1206 1.395 1_545 S
C1205 H1233 0.929 . S
C1206 C1205 1.395 1_565 S
C1206 C1207 1.335 . S
C1207 C1206 1.335 . S
C1207 C1208 1.398 . S
C1207 H1234 0.930 . S
C1208 C1203 1.382 . S
C1208 C1207 1.398 . S
C1208 H1235 0.929 . S
C1209 O1222 1.271 . S
C1209 O1223 1.251 1_545 S
C1210 O1224 1.252 . S
C1210 O1225 1.272 . S
C1211 Sm1201 2.846 . S
C1211 C1212 1.506 . S
C1211 O1226 1.261 . S
C1211 O1227 1.242 . S
C1212 C1211 1.506 . S
C1212 C1213 1.358 . S
C1212 C1217 1.382 . S
C1213 C1212 1.358 . S
C1213 C1214 1.385 . S
C1213 H1236 0.930 . S
C1214 C1213 1.385 . S
C1214 C1215 1.395 . S
C1214 H1237 0.929 . S
C1215 C1214 1.395 . S
C1215 C1216 1.335 . S
C1216 C1215 1.335 . S
C1216 C1217 1.398 . S
C1216 H1238 0.930 . S
C1217 C1212 1.382 . S
C1217 C1216 1.398 . S
C1217 H1239 0.929 . S
C1218 O1228 1.271 . S
C1218 O1229 1.251 . S
C1219 O1230 1.252 . S
C1219 O1231 1.272 . S
O1220 Sm1200 2.543 . S
O1220 C1202 1.261 . S
O1221 Sm1200 2.450 1_565 S
O1221 C1202 1.242 1_565 S
O1222 Sm1200 2.681 . S
O1222 Sm1201 2.386 . S
O1222 C1209 1.271 . S
O1223 Sm1200 2.464 1_565 S
O1223 C1209 1.251 1_565 S
O1224 Sm1200 2.396 . S
O1224 C1210 1.252 . S
O1225 Sm1201 2.408 . S
O1225 C1210 1.272 . S
O1226 Sm1201 2.543 . S
O1226 C1211 1.261 . S
O1227 Sm1201 2.450 . S
O1227 C1211 1.242 . S
O1228 Sm1200 2.386 . S
O1228 Sm1201 2.681 . S
O1228 C1218 1.271 . S
O1229 Sm1201 2.464 . S
O1229 C1218 1.251 . S
O1230 Sm1201 2.396 . S
O1230 C1219 1.252 . S
O1231 Sm1200 2.408 . S
O1231 C1219 1.272 . S
H1232 C1204 0.930 . S
H1233 C1205 0.929 . S
H1234 C1207 0.930 . S
H1235 C1208 0.929 . S
H1236 C1213 0.930 . S
H1237 C1214 0.929 . S
H1238 C1216 0.930 . S
H1239 C1217 0.929 . S
Sm1240 C1242 2.846 . S
Sm1240 O1260 2.543 . S
Sm1240 O1261 2.450 . S
Sm1240 O1262 2.681 . S
Sm1240 O1263 2.464 . S
Sm1240 O1264 2.396 . S
Sm1240 O1268 2.386 . S
Sm1240 O1271 2.408 . S
Sm1241 C1251 2.846 . S
Sm1241 O1262 2.386 . S
Sm1241 O1265 2.408 . S
Sm1241 O1266 2.543 . S
Sm1241 O1267 2.450 . S
Sm1241 O1268 2.681 . S
Sm1241 O1269 2.464 . S
Sm1241 O1270 2.396 . S
C1242 Sm1240 2.846 . S
C1242 C1243 1.506 . S
C1242 O1260 1.261 . S
C1242 O1261 1.242 . S
C1243 C1242 1.506 . S
C1243 C1244 1.358 . S
C1243 C1248 1.382 . S
C1244 C1243 1.358 . S
C1244 C1245 1.385 . S
C1244 H1272 0.930 . S
C1245 C1244 1.385 . S
C1245 C1246 1.395 . S
C1245 H1273 0.929 . S
C1246 C1245 1.395 . S
C1246 C1247 1.335 . S
C1247 C1246 1.335 . S
C1247 C1248 1.398 . S
C1247 H1274 0.930 . S
C1248 C1243 1.382 . S
C1248 C1247 1.398 . S
C1248 H1275 0.929 . S
C1249 O1262 1.271 . S
C1249 O1263 1.251 . S
C1250 O1264 1.252 . S
C1250 O1265 1.272 . S
C1251 Sm1241 2.846 . S
C1251 C1252 1.506 . S
C1251 O1266 1.261 . S
C1251 O1267 1.242 . S
C1252 C1251 1.506 . S
C1252 C1253 1.358 . S
C1252 C1257 1.382 . S
C1253 C1252 1.358 . S
C1253 C1254 1.385 . S
C1253 H1276 0.930 . S
C1254 C1253 1.385 . S
C1254 C1255 1.395 . S
C1254 H1277 0.929 . S
C1255 C1254 1.395 . S
C1255 C1256 1.335 . S
C1256 C1255 1.335 . S
C1256 C1257 1.398 . S
C1256 H1278 0.930 . S
C1257 C1252 1.382 . S
C1257 C1256 1.398 . S
C1257 H1279 0.929 . S
C1258 O1268 1.271 . S
C1258 O1269 1.251 . S
C1259 O1270 1.252 . S
C1259 O1271 1.272 . S
O1260 Sm1240 2.543 . S
O1260 C1242 1.261 . S
O1261 Sm1240 2.450 . S
O1261 C1242 1.242 . S
O1262 Sm1240 2.681 . S
O1262 Sm1241 2.386 . S
O1262 C1249 1.271 . S
O1263 Sm1240 2.464 . S
O1263 C1249 1.251 . S
O1264 Sm1240 2.396 . S
O1264 C1250 1.252 . S
O1265 Sm1241 2.408 . S
O1265 C1250 1.272 . S
O1266 Sm1241 2.543 . S
O1266 C1251 1.261 . S
O1267 Sm1241 2.450 . S
O1267 C1251 1.242 . S
O1268 Sm1240 2.386 . S
O1268 Sm1241 2.681 . S
O1268 C1258 1.271 . S
O1269 Sm1241 2.464 . S
O1269 C1258 1.251 . S
O1270 Sm1241 2.396 . S
O1270 C1259 1.252 . S
O1271 Sm1240 2.408 . S
O1271 C1259 1.272 . S
H1272 C1244 0.930 . S
H1273 C1245 0.929 . S
H1274 C1247 0.930 . S
H1275 C1248 0.929 . S
H1276 C1253 0.930 . S
H1277 C1254 0.929 . S
H1278 C1256 0.930 . S
H1279 C1257 0.929 . S
H1280 C1286 0.930 . S
H1281 C1290 0.930 . S
H1282 C1295 0.929 . S
H1283 C1293 0.929 . S
H1284 C1288 0.929 . S
H1285 C1294 0.929 . S
C1286 H1280 0.930 . S
C1286 C1287 1.367 . S
C1286 C1294 1.378 . S
C1287 C1286 1.367 . S
C1287 C1295 1.433 . S
C1288 H1284 0.929 . S
C1288 C1290 1.378 . S
C1288 C1292 1.350 . S
C1289 C1292 1.463 . S
C1289 C1294 1.350 . S
C1289 N1297 1.427 . S
C1290 H1281 0.930 . S
C1290 C1288 1.378 . S
C1290 C1291 1.367 . S
C1291 C1290 1.367 . S
C1291 C1293 1.433 . S
C1292 C1288 1.350 . S
C1292 C1289 1.463 . S
C1292 N1296 1.427 . S
C1293 H1283 0.929 . S
C1293 C1291 1.433 . S
C1293 N1296 1.384 . S
C1294 H1285 0.929 . S
C1294 C1286 1.378 . S
C1294 C1289 1.350 . S
C1295 H1282 0.929 . S
C1295 C1287 1.433 . S
C1295 N1297 1.384 . S
N1296 C1292 1.427 . S
N1296 C1293 1.384 . S
N1297 C1289 1.427 . S
N1297 C1295 1.384 . S
H1298 C1304 0.930 . S
H1299 C1308 0.930 . S
H1300 C1313 0.929 . S
H1301 C1311 0.929 . S
H1302 C1306 0.929 . S
H1303 C1312 0.929 . S
C1304 H1298 0.930 . S
C1304 C1305 1.367 . S
C1304 C1312 1.378 . S
C1305 C1304 1.367 . S
C1305 C1313 1.433 . S
C1306 H1302 0.929 . S
C1306 C1308 1.378 . S
C1306 C1310 1.350 . S
C1307 C1310 1.463 . S
C1307 C1312 1.350 . S
C1307 N1315 1.427 . S
C1308 H1299 0.930 . S
C1308 C1306 1.378 . S
C1308 C1309 1.367 . S
C1309 C1308 1.367 . S
C1309 C1311 1.433 . S
C1310 C1306 1.350 . S
C1310 C1307 1.463 . S
C1310 N1314 1.427 . S
C1311 H1301 0.929 . S
C1311 C1309 1.433 . S
C1311 N1314 1.384 . S
C1312 H1303 0.929 . S
C1312 C1304 1.378 . S
C1312 C1307 1.350 . S
C1313 H1300 0.929 . S
C1313 C1305 1.433 . S
C1313 N1315 1.384 . S
N1314 C1310 1.427 . S
N1314 C1311 1.384 . S
N1315 C1307 1.427 . S
N1315 C1313 1.384 . S
H1316 C1322 0.930 . S
H1317 C1326 0.930 . S
H1318 C1331 0.929 . S
H1319 C1329 0.929 . S
H1320 C1324 0.929 . S
H1321 C1330 0.929 . S
C1322 H1316 0.930 . S
C1322 C1323 1.367 . S
C1322 C1330 1.378 . S
C1323 C1322 1.367 . S
C1323 C1331 1.433 . S
C1324 H1320 0.929 . S
C1324 C1326 1.378 . S
C1324 C1328 1.350 . S
C1325 C1328 1.463 . S
C1325 C1330 1.350 . S
C1325 N1333 1.427 . S
C1326 H1317 0.930 . S
C1326 C1324 1.378 . S
C1326 C1327 1.367 . S
C1327 C1326 1.367 . S
C1327 C1329 1.433 . S
C1328 C1324 1.350 . S
C1328 C1325 1.463 . S
C1328 N1332 1.427 . S
C1329 H1319 0.929 . S
C1329 C1327 1.433 . S
C1329 N1332 1.384 . S
C1330 H1321 0.929 . S
C1330 C1322 1.378 . S
C1330 C1325 1.350 . S
C1331 H1318 0.929 . S
C1331 C1323 1.433 . S
C1331 N1333 1.384 . S
N1332 C1328 1.427 . S
N1332 C1329 1.384 . S
N1333 C1325 1.427 . S
N1333 C1331 1.384 . S
H1334 C1340 0.930 . S
H1335 C1344 0.930 . S
H1336 C1349 0.929 . S
H1337 C1347 0.929 . S
H1338 C1342 0.929 . S
H1339 C1348 0.929 . S
C1340 H1334 0.930 . S
C1340 C1341 1.367 . S
C1340 C1348 1.378 . S
C1341 C1340 1.367 . S
C1341 C1349 1.433 . S
C1342 H1338 0.929 . S
C1342 C1344 1.378 . S
C1342 C1346 1.350 . S
C1343 C1346 1.463 . S
C1343 C1348 1.350 . S
C1343 N1351 1.427 . S
C1344 H1335 0.930 . S
C1344 C1342 1.378 . S
C1344 C1345 1.367 . S
C1345 C1344 1.367 . S
C1345 C1347 1.433 . S
C1346 C1342 1.350 . S
C1346 C1343 1.463 . S
C1346 N1350 1.427 . S
C1347 H1337 0.929 . S
C1347 C1345 1.433 . S
C1347 N1350 1.384 . S
C1348 H1339 0.929 . S
C1348 C1340 1.378 . S
C1348 C1343 1.350 . S
C1349 H1336 0.929 . S
C1349 C1341 1.433 . S
C1349 N1351 1.384 . S
N1350 C1346 1.427 . S
N1350 C1347 1.384 . S
N1351 C1343 1.427 . S
N1351 C1349 1.384 . S
H1352 C1358 0.930 . S
H1353 C1362 0.930 . S
H1354 C1367 0.929 . S
H1355 C1365 0.929 . S
H1356 C1360 0.929 . S
H1357 C1366 0.929 . S
C1358 H1352 0.930 . S
C1358 C1359 1.367 . S
C1358 C1366 1.378 . S
C1359 C1358 1.367 . S
C1359 C1367 1.433 . S
C1360 H1356 0.929 . S
C1360 C1362 1.378 1_554 S
C1360 C1364 1.350 . S
C1361 C1364 1.463 . S
C1361 C1366 1.350 . S
C1361 N1369 1.427 . S
C1362 H1353 0.930 . S
C1362 C1360 1.378 1_556 S
C1362 C1363 1.367 . S
C1363 C1362 1.367 . S
C1363 C1365 1.433 . S
C1364 C1360 1.350 . S
C1364 C1361 1.463 . S
C1364 N1368 1.427 . S
C1365 H1355 0.929 . S
C1365 C1363 1.433 . S
C1365 N1368 1.384 1_556 S
C1366 H1357 0.929 . S
C1366 C1358 1.378 . S
C1366 C1361 1.350 . S
C1367 H1354 0.929 . S
C1367 C1359 1.433 . S
C1367 N1369 1.384 . S
N1368 C1364 1.427 . S
N1368 C1365 1.384 1_554 S
N1369 C1361 1.427 . S
N1369 C1367 1.384 . S
H1370 C1376 0.930 . S
H1371 C1380 0.930 . S
H1372 C1385 0.929 . S
H1373 C1383 0.929 . S
H1374 C1378 0.929 . S
H1375 C1384 0.929 . S
C1376 H1370 0.930 . S
C1376 C1377 1.367 . S
C1376 C1384 1.378 . S
C1377 C1376 1.367 . S
C1377 C1385 1.433 . S
C1378 H1374 0.929 . S
C1378 C1380 1.378 . S
C1378 C1382 1.350 . S
C1379 C1382 1.463 . S
C1379 C1384 1.350 . S
C1379 N1387 1.427 . S
C1380 H1371 0.930 . S
C1380 C1378 1.378 . S
C1380 C1381 1.367 . S
C1381 C1380 1.367 . S
C1381 C1383 1.433 . S
C1382 C1378 1.350 . S
C1382 C1379 1.463 . S
C1382 N1386 1.427 . S
C1383 H1373 0.929 . S
C1383 C1381 1.433 . S
C1383 N1386 1.384 . S
C1384 H1375 0.929 . S
C1384 C1376 1.378 . S
C1384 C1379 1.350 . S
C1385 H1372 0.929 . S
C1385 C1377 1.433 . S
C1385 N1387 1.384 . S
N1386 C1382 1.427 . S
N1386 C1383 1.384 . S
N1387 C1379 1.427 . S
N1387 C1385 1.384 . S
H1388 C1394 0.930 . S
H1389 C1398 0.930 . S
H1390 C1403 0.929 . S
H1391 C1401 0.929 . S
H1392 C1396 0.929 . S
H1393 C1402 0.929 . S
C1394 H1388 0.930 . S
C1394 C1395 1.367 . S
C1394 C1402 1.378 . S
C1395 C1394 1.367 . S
C1395 C1403 1.433 . S
C1396 H1392 0.929 . S
C1396 C1398 1.378 . S
C1396 C1400 1.350 . S
C1397 C1400 1.463 . S
C1397 C1402 1.350 . S
C1397 N1405 1.427 . S
C1398 H1389 0.930 . S
C1398 C1396 1.378 . S
C1398 C1399 1.367 . S
C1399 C1398 1.367 . S
C1399 C1401 1.433 . S
C1400 C1396 1.350 . S
C1400 C1397 1.463 . S
C1400 N1404 1.427 . S
C1401 H1391 0.929 . S
C1401 C1399 1.433 . S
C1401 N1404 1.384 . S
C1402 H1393 0.929 . S
C1402 C1394 1.378 . S
C1402 C1397 1.350 . S
C1403 H1390 0.929 . S
C1403 C1395 1.433 . S
C1403 N1405 1.384 . S
N1404 C1400 1.427 . S
N1404 C1401 1.384 . S
N1405 C1397 1.427 . S
N1405 C1403 1.384 . S
H1406 C1412 0.930 . S
H1407 C1416 0.930 . S
H1408 C1421 0.929 . S
H1409 C1419 0.929 . S
H1410 C1414 0.929 . S
H1411 C1420 0.929 . S
C1412 H1406 0.930 . S
C1412 C1413 1.367 . S
C1412 C1420 1.378 . S
C1413 C1412 1.367 . S
C1413 C1421 1.433 . S
C1414 H1410 0.929 . S
C1414 C1416 1.378 . S
C1414 C1418 1.350 . S
C1415 C1418 1.463 . S
C1415 C1420 1.350 . S
C1415 N1423 1.427 . S
C1416 H1407 0.930 . S
C1416 C1414 1.378 . S
C1416 C1417 1.367 . S
C1417 C1416 1.367 . S
C1417 C1419 1.433 . S
C1418 C1414 1.350 . S
C1418 C1415 1.463 . S
C1418 N1422 1.427 . S
C1419 H1409 0.929 . S
C1419 C1417 1.433 . S
C1419 N1422 1.384 . S
C1420 H1411 0.929 . S
C1420 C1412 1.378 . S
C1420 C1415 1.350 . S
C1421 H1408 0.929 . S
C1421 C1413 1.433 . S
C1421 N1423 1.384 . S
N1422 C1418 1.427 . S
N1422 C1419 1.384 . S
N1423 C1415 1.427 . S
N1423 C1421 1.384 . S
H1424 C1430 0.930 1_545 S
H1425 C1434 0.930 . S
H1426 C1439 0.929 . S
H1427 C1437 0.929 . S
H1428 C1432 0.929 . S
H1429 C1438 0.929 . S
C1430 H1424 0.930 1_565 S
C1430 C1431 1.367 . S
C1430 C1438 1.378 . S
C1431 C1430 1.367 . S
C1431 C1439 1.433 . S
C1432 H1428 0.929 . S
C1432 C1434 1.378 . S
C1432 C1436 1.350 . S
C1433 C1436 1.463 . S
C1433 C1438 1.350 . S
C1433 N1441 1.427 . S
C1434 H1425 0.930 . S
C1434 C1432 1.378 . S
C1434 C1435 1.367 . S
C1435 C1434 1.367 . S
C1435 C1437 1.433 . S
C1436 C1432 1.350 . S
C1436 C1433 1.463 . S
C1436 N1440 1.427 . S
C1437 H1427 0.929 . S
C1437 C1435 1.433 . S
C1437 N1440 1.384 . S
C1438 H1429 0.929 . S
C1438 C1430 1.378 . S
C1438 C1433 1.350 . S
C1439 H1426 0.929 . S
C1439 C1431 1.433 . S
C1439 N1441 1.384 . S
N1440 C1436 1.427 . S
N1440 C1437 1.384 . S
N1441 C1433 1.427 . S
N1441 C1439 1.384 . S
H1442 C1448 0.930 . S
H1443 C1452 0.930 . S
H1444 C1457 0.929 . S
H1445 C1455 0.929 . S
H1446 C1450 0.929 . S
H1447 C1456 0.929 . S
C1448 H1442 0.930 . S
C1448 C1449 1.367 . S
C1448 C1456 1.378 . S
C1449 C1448 1.367 . S
C1449 C1457 1.433 . S
C1450 H1446 0.929 . S
C1450 C1452 1.378 . S
C1450 C1454 1.350 . S
C1451 C1454 1.463 . S
C1451 C1456 1.350 1_554 S
C1451 N1459 1.427 1_554 S
C1452 H1443 0.930 . S
C1452 C1450 1.378 . S
C1452 C1453 1.367 . S
C1453 C1452 1.367 . S
C1453 C1455 1.433 . S
C1454 C1450 1.350 . S
C1454 C1451 1.463 . S
C1454 N1458 1.427 . S
C1455 H1445 0.929 . S
C1455 C1453 1.433 . S
C1455 N1458 1.384 . S
C1456 H1447 0.929 . S
C1456 C1448 1.378 . S
C1456 C1451 1.350 1_556 S
C1457 H1444 0.929 . S
C1457 C1449 1.433 . S
C1457 N1459 1.384 . S
N1458 C1454 1.427 . S
N1458 C1455 1.384 . S
N1459 C1451 1.427 1_556 S
N1459 C1457 1.384 . S
H1460 C1466 0.930 . S
H1461 C1470 0.930 1_565 S
H1462 C1475 0.929 . S
H1463 C1473 0.929 . S
H1464 C1468 0.929 . S
H1465 C1474 0.929 . S
C1466 H1460 0.930 . S
C1466 C1467 1.367 . S
C1466 C1474 1.378 . S
C1467 C1466 1.367 . S
C1467 C1475 1.433 . S
C1468 H1464 0.929 . S
C1468 C1470 1.378 . S
C1468 C1472 1.350 . S
C1469 C1472 1.463 . S
C1469 C1474 1.350 . S
C1469 N1477 1.427 . S
C1470 H1461 0.930 1_545 S
C1470 C1468 1.378 . S
C1470 C1471 1.367 . S
C1471 C1470 1.367 . S
C1471 C1473 1.433 . S
C1472 C1468 1.350 . S
C1472 C1469 1.463 . S
C1472 N1476 1.427 . S
C1473 H1463 0.929 . S
C1473 C1471 1.433 . S
C1473 N1476 1.384 . S
C1474 H1465 0.929 . S
C1474 C1466 1.378 . S
C1474 C1469 1.350 . S
C1475 H1462 0.929 . S
C1475 C1467 1.433 . S
C1475 N1477 1.384 . S
N1476 C1472 1.427 . S
N1476 C1473 1.384 . S
N1477 C1469 1.427 . S
N1477 C1475 1.384 . S
H1478 C1484 0.930 . S
H1479 C1488 0.930 . S
H1480 C1493 0.929 . S
H1481 C1491 0.929 . S
H1482 C1486 0.929 . S
H1483 C1492 0.929 . S
C1484 H1478 0.930 . S
C1484 C1485 1.367 . S
C1484 C1492 1.378 . S
C1485 C1484 1.367 . S
C1485 C1493 1.433 . S
C1486 H1482 0.929 . S
C1486 C1488 1.378 . S
C1486 C1490 1.350 . S
C1487 C1490 1.463 . S
C1487 C1492 1.350 . S
C1487 N1495 1.427 . S
C1488 H1479 0.930 . S
C1488 C1486 1.378 . S
C1488 C1489 1.367 . S
C1489 C1488 1.367 . S
C1489 C1491 1.433 . S
C1490 C1486 1.350 . S
C1490 C1487 1.463 . S
C1490 N1494 1.427 . S
C1491 H1481 0.929 . S
C1491 C1489 1.433 . S
C1491 N1494 1.384 . S
C1492 H1483 0.929 . S
C1492 C1484 1.378 . S
C1492 C1487 1.350 . S
C1493 H1480 0.929 . S
C1493 C1485 1.433 . S
C1493 N1495 1.384 . S
N1494 C1490 1.427 . S
N1494 C1491 1.384 . S
N1495 C1487 1.427 . S
N1495 C1493 1.384 . S
H1496 C1502 0.930 . S
H1497 C1506 0.930 . S
H1498 C1511 0.929 . S
H1499 C1509 0.921 1_565 S
H1500 C1504 0.929 . S
H1501 C1510 0.929 . S
C1502 H1496 0.930 . S
C1502 C1503 1.367 . S
C1502 C1510 1.378 . S
C1503 C1502 1.367 . S
C1503 C1511 1.433 . S
C1504 H1500 0.929 . S
C1504 C1506 1.378 . S
C1504 C1508 1.350 . S
C1505 C1508 1.463 . S
C1505 C1510 1.350 . S
C1505 N1513 1.427 . S
C1506 H1497 0.930 . S
C1506 C1504 1.378 . S
C1506 C1507 1.367 . S
C1507 C1506 1.367 . S
C1507 C1509 1.438 . S
C1508 C1504 1.350 . S
C1508 C1505 1.463 . S
C1508 N1512 1.427 . S
C1509 H1499 0.921 1_545 S
C1509 C1507 1.438 . S
C1509 N1512 1.387 . S
C1510 H1501 0.929 . S
C1510 C1502 1.378 . S
C1510 C1505 1.350 . S
C1511 H1498 0.929 . S
C1511 C1503 1.433 . S
C1511 N1513 1.384 . S
N1512 C1508 1.427 . S
N1512 C1509 1.387 . S
N1513 C1505 1.427 . S
N1513 C1511 1.384 . S
H1514 C1520 0.930 . S
H1515 C1524 0.930 . S
H1516 C1529 0.929 . S
H1517 C1527 0.929 . S
H1518 C1522 0.929 . S
H1519 C1528 0.929 . S
C1520 H1514 0.930 . S
C1520 C1521 1.367 . S
C1520 C1528 1.378 . S
C1521 C1520 1.367 . S
C1521 C1529 1.433 . S
C1522 H1518 0.929 . S
C1522 C1524 1.378 . S
C1522 C1526 1.350 . S
C1523 C1526 1.463 . S
C1523 C1528 1.350 . S
C1523 N1531 1.427 . S
C1524 H1515 0.930 . S
C1524 C1522 1.378 . S
C1524 C1525 1.367 . S
C1525 C1524 1.367 . S
C1525 C1527 1.433 . S
C1526 C1522 1.350 . S
C1526 C1523 1.463 . S
C1526 N1530 1.427 . S
C1527 H1517 0.929 . S
C1527 C1525 1.433 . S
C1527 N1530 1.384 . S
C1528 H1519 0.929 . S
C1528 C1520 1.378 . S
C1528 C1523 1.350 . S
C1529 H1516 0.929 . S
C1529 C1521 1.433 . S
C1529 N1531 1.384 . S
N1530 C1526 1.427 . S
N1530 C1527 1.384 . S
N1531 C1523 1.427 . S
N1531 C1529 1.384 . S
H1532 C1538 0.930 . S
H1533 C1542 0.930 . S
H1534 C1547 0.929 . S
H1535 C1545 0.929 1_545 S
H1536 C1540 0.929 . S
H1537 C1546 0.929 . S
C1538 H1532 0.930 . S
C1538 C1539 1.367 . S
C1538 C1546 1.378 . S
C1539 C1538 1.367 . S
C1539 C1547 1.433 . S
C1540 H1536 0.929 . S
C1540 C1542 1.378 . S
C1540 C1544 1.350 1_556 S
C1541 C1544 1.463 . S
C1541 C1546 1.350 . S
C1541 N1549 1.427 . S
C1542 H1533 0.930 . S
C1542 C1540 1.378 . S
C1542 C1543 1.367 . S
C1543 C1542 1.367 . S
C1543 C1545 1.433 . S
C1544 C1540 1.350 1_554 S
C1544 C1541 1.463 . S
C1544 N1548 1.427 . S
C1545 H1535 0.929 1_565 S
C1545 C1543 1.433 . S
C1545 N1548 1.384 1_556 S
C1546 H1537 0.929 . S
C1546 C1538 1.378 . S
C1546 C1541 1.350 . S
C1547 H1534 0.929 . S
C1547 C1539 1.433 . S
C1547 N1549 1.384 . S
N1548 C1544 1.427 . S
N1548 C1545 1.384 1_554 S
N1549 C1541 1.427 . S
N1549 C1547 1.384 . S
H1550 C1556 0.930 . S
H1551 C1560 0.930 . S
H1552 C1565 0.929 . S
H1553 C1563 0.929 . S
H1554 C1558 0.929 . S
H1555 C1564 0.929 . S
C1556 H1550 0.930 . S
C1556 C1557 1.367 . S
C1556 C1564 1.378 . S
C1557 C1556 1.367 . S
C1557 C1565 1.433 . S
C1558 H1554 0.929 . S
C1558 C1560 1.378 . S
C1558 C1562 1.350 . S
C1559 C1562 1.463 . S
C1559 C1564 1.350 . S
C1559 N1567 1.427 . S
C1560 H1551 0.930 . S
C1560 C1558 1.378 . S
C1560 C1561 1.367 . S
C1561 C1560 1.367 . S
C1561 C1563 1.433 . S
C1562 C1558 1.350 . S
C1562 C1559 1.463 . S
C1562 N1566 1.427 . S
C1563 H1553 0.929 . S
C1563 C1561 1.433 . S
C1563 N1566 1.384 . S
C1564 H1555 0.929 . S
C1564 C1556 1.378 . S
C1564 C1559 1.350 . S
C1565 H1552 0.929 . S
C1565 C1557 1.433 . S
C1565 N1567 1.384 . S
N1566 C1562 1.427 . S
N1566 C1563 1.384 . S
N1567 C1559 1.427 . S
N1567 C1565 1.384 . S
H1568 C1574 0.930 . S
H1569 C1578 0.930 . S
H1570 C1583 0.929 . S
H1571 C1581 0.929 . S
H1572 C1576 0.929 . S
H1573 C1582 0.929 . S
C1574 H1568 0.930 . S
C1574 C1575 1.367 . S
C1574 C1582 1.378 . S
C1575 C1574 1.367 . S
C1575 C1583 1.433 . S
C1576 H1572 0.929 . S
C1576 C1578 1.378 . S
C1576 C1580 1.350 . S
C1577 C1580 1.463 . S
C1577 C1582 1.350 . S
C1577 N1585 1.427 . S
C1578 H1569 0.930 . S
C1578 C1576 1.378 . S
C1578 C1579 1.367 . S
C1579 C1578 1.367 . S
C1579 C1581 1.433 . S
C1580 C1576 1.350 . S
C1580 C1577 1.463 . S
C1580 N1584 1.427 . S
C1581 H1571 0.929 . S
C1581 C1579 1.433 . S
C1581 N1584 1.384 . S
C1582 H1573 0.929 . S
C1582 C1574 1.378 . S
C1582 C1577 1.350 . S
C1583 H1570 0.929 . S
C1583 C1575 1.433 . S
C1583 N1585 1.384 . S
N1584 C1580 1.427 . S
N1584 C1581 1.384 . S
N1585 C1577 1.427 . S
N1585 C1583 1.384 . S
H1586 C1592 0.930 . S
H1587 C1596 0.930 . S
H1588 C1601 0.929 . S
H1589 C1599 0.929 . S
H1590 C1594 0.929 . S
H1591 C1600 0.929 . S
C1592 H1586 0.930 . S
C1592 C1593 1.367 . S
C1592 C1600 1.378 . S
C1593 C1592 1.367 . S
C1593 C1601 1.433 . S
C1594 H1590 0.929 . S
C1594 C1596 1.378 . S
C1594 C1598 1.350 . S
C1595 C1598 1.463 . S
C1595 C1600 1.350 . S
C1595 N1603 1.427 . S
C1596 H1587 0.930 . S
C1596 C1594 1.378 . S
C1596 C1597 1.367 . S
C1597 C1596 1.367 . S
C1597 C1599 1.433 . S
C1598 C1594 1.350 . S
C1598 C1595 1.463 . S
C1598 N1602 1.427 . S
C1599 H1589 0.929 . S
C1599 C1597 1.433 . S
C1599 N1602 1.384 . S
C1600 H1591 0.929 . S
C1600 C1592 1.378 . S
C1600 C1595 1.350 . S
C1601 H1588 0.929 . S
C1601 C1593 1.433 . S
C1601 N1603 1.384 . S
N1602 C1598 1.427 . S
N1602 C1599 1.384 . S
N1603 C1595 1.427 . S
N1603 C1601 1.384 . S
H1604 C1610 0.930 . S
H1605 C1614 0.930 . S
H1606 C1619 0.929 . S
H1607 C1617 0.929 . S
H1608 C1612 0.929 . S
H1609 C1618 0.929 . S
C1610 H1604 0.930 . S
C1610 C1611 1.367 . S
C1610 C1618 1.378 . S
C1611 C1610 1.367 . S
C1611 C1619 1.433 . S
C1612 H1608 0.929 . S
C1612 C1614 1.378 . S
C1612 C1616 1.350 . S
C1613 C1616 1.463 . S
C1613 C1618 1.350 . S
C1613 N1621 1.427 . S
C1614 H1605 0.930 . S
C1614 C1612 1.378 . S
C1614 C1615 1.367 . S
C1615 C1614 1.367 . S
C1615 C1617 1.433 . S
C1616 C1612 1.350 . S
C1616 C1613 1.463 . S
C1616 N1620 1.427 . S
C1617 H1607 0.929 . S
C1617 C1615 1.433 . S
C1617 N1620 1.384 . S
C1618 H1609 0.929 . S
C1618 C1610 1.378 . S
C1618 C1613 1.350 . S
C1619 H1606 0.929 . S
C1619 C1611 1.433 . S
C1619 N1621 1.384 . S
N1620 C1616 1.427 . S
N1620 C1617 1.384 . S
N1621 C1613 1.427 . S
N1621 C1619 1.384 . S
H1622 C1628 0.930 . S
H1623 C1632 0.930 . S
H1624 C1637 0.929 . S
H1625 C1635 0.929 . S
H1626 C1630 0.929 . S
H1627 C1636 0.929 . S
C1628 H1622 0.930 . S
C1628 C1629 1.367 . S
C1628 C1636 1.378 . S
C1629 C1628 1.367 . S
C1629 C1637 1.433 . S
C1630 H1626 0.929 . S
C1630 C1632 1.378 1_556 S
C1630 C1634 1.350 . S
C1631 C1634 1.463 . S
C1631 C1636 1.350 . S
C1631 N1639 1.427 . S
C1632 H1623 0.930 . S
C1632 C1630 1.378 1_554 S
C1632 C1633 1.367 . S
C1633 C1632 1.367 . S
C1633 C1635 1.433 . S
C1634 C1630 1.350 . S
C1634 C1631 1.463 . S
C1634 N1638 1.427 . S
C1635 H1625 0.929 . S
C1635 C1633 1.433 . S
C1635 N1638 1.384 1_554 S
C1636 H1627 0.929 . S
C1636 C1628 1.378 . S
C1636 C1631 1.350 . S
C1637 H1624 0.929 . S
C1637 C1629 1.433 . S
C1637 N1639 1.384 . S
N1638 C1634 1.427 . S
N1638 C1635 1.384 1_556 S
N1639 C1631 1.427 . S
N1639 C1637 1.384 . S
H1640 C1646 0.930 . S
H1641 C1650 0.930 . S
H1642 C1655 0.929 . S
H1643 C1653 0.929 . S
H1644 C1648 0.929 . S
H1645 C1654 0.929 . S
C1646 H1640 0.930 . S
C1646 C1647 1.367 . S
C1646 C1654 1.378 . S
C1647 C1646 1.367 . S
C1647 C1655 1.433 . S
C1648 H1644 0.929 . S
C1648 C1650 1.378 . S
C1648 C1652 1.350 . S
C1649 C1652 1.463 . S
C1649 C1654 1.350 . S
C1649 N1657 1.427 . S
C1650 H1641 0.930 . S
C1650 C1648 1.378 . S
C1650 C1651 1.367 . S
C1651 C1650 1.367 . S
C1651 C1653 1.433 . S
C1652 C1648 1.350 . S
C1652 C1649 1.463 . S
C1652 N1656 1.427 . S
C1653 H1643 0.929 . S
C1653 C1651 1.433 . S
C1653 N1656 1.384 . S
C1654 H1645 0.929 . S
C1654 C1646 1.378 . S
C1654 C1649 1.350 . S
C1655 H1642 0.929 . S
C1655 C1647 1.433 . S
C1655 N1657 1.384 . S
N1656 C1652 1.427 . S
N1656 C1653 1.384 . S
N1657 C1649 1.427 . S
N1657 C1655 1.384 . S
H1658 C1664 0.930 . S
H1659 C1668 0.930 . S
H1660 C1673 0.929 . S
H1661 C1671 0.929 . S
H1662 C1666 0.929 . S
H1663 C1672 0.929 . S
C1664 H1658 0.930 . S
C1664 C1665 1.367 . S
C1664 C1672 1.378 . S
C1665 C1664 1.367 . S
C1665 C1673 1.433 . S
C1666 H1662 0.929 . S
C1666 C1668 1.378 . S
C1666 C1670 1.350 . S
C1667 C1670 1.463 . S
C1667 C1672 1.350 . S
C1667 N1675 1.427 . S
C1668 H1659 0.930 . S
C1668 C1666 1.378 . S
C1668 C1669 1.367 . S
C1669 C1668 1.367 . S
C1669 C1671 1.433 . S
C1670 C1666 1.350 . S
C1670 C1667 1.463 . S
C1670 N1674 1.427 . S
C1671 H1661 0.929 . S
C1671 C1669 1.433 . S
C1671 N1674 1.384 . S
C1672 H1663 0.929 . S
C1672 C1664 1.378 . S
C1672 C1667 1.350 . S
C1673 H1660 0.929 . S
C1673 C1665 1.433 . S
C1673 N1675 1.384 . S
N1674 C1670 1.427 . S
N1674 C1671 1.384 . S
N1675 C1667 1.427 . S
N1675 C1673 1.384 . S
H1676 C1682 0.930 . S
H1677 C1686 0.930 . S
H1678 C1691 0.929 . S
H1679 C1689 0.929 . S
H1680 C1684 0.929 . S
H1681 C1690 0.929 . S
C1682 H1676 0.930 . S
C1682 C1683 1.367 . S
C1682 C1690 1.378 . S
C1683 C1682 1.367 . S
C1683 C1691 1.433 1_554 S
C1684 H1680 0.929 . S
C1684 C1686 1.378 . S
C1684 C1688 1.350 . S
C1685 C1688 1.463 . S
C1685 C1690 1.350 1_556 S
C1685 N1693 1.427 . S
C1686 H1677 0.930 . S
C1686 C1684 1.378 . S
C1686 C1687 1.367 . S
C1687 C1686 1.367 . S
C1687 C1689 1.433 . S
C1688 C1684 1.350 . S
C1688 C1685 1.463 . S
C1688 N1692 1.427 . S
C1689 H1679 0.929 . S
C1689 C1687 1.433 . S
C1689 N1692 1.384 . S
C1690 H1681 0.929 . S
C1690 C1682 1.378 . S
C1690 C1685 1.350 1_554 S
C1691 H1678 0.929 . S
C1691 C1683 1.433 1_556 S
C1691 N1693 1.384 . S
N1692 C1688 1.427 . S
N1692 C1689 1.384 . S
N1693 C1685 1.427 . S
N1693 C1691 1.384 . S
H1694 C1700 0.930 . S
H1695 C1704 0.930 . S
H1696 C1709 0.929 . S
H1697 C1707 0.929 . S
H1698 C1702 0.929 . S
H1699 C1708 0.929 . S
C1700 H1694 0.930 . S
C1700 C1701 1.367 . S
C1700 C1708 1.378 . S
C1701 C1700 1.367 . S
C1701 C1709 1.433 . S
C1702 H1698 0.929 . S
C1702 C1704 1.378 . S
C1702 C1706 1.350 . S
C1703 C1706 1.463 . S
C1703 C1708 1.350 . S
C1703 N1711 1.427 . S
C1704 H1695 0.930 . S
C1704 C1702 1.378 . S
C1704 C1705 1.367 . S
C1705 C1704 1.367 . S
C1705 C1707 1.433 . S
C1706 C1702 1.350 . S
C1706 C1703 1.463 . S
C1706 N1710 1.427 . S
C1707 H1697 0.929 . S
C1707 C1705 1.433 . S
C1707 N1710 1.384 . S
C1708 H1699 0.929 . S
C1708 C1700 1.378 . S
C1708 C1703 1.350 . S
C1709 H1696 0.929 . S
C1709 C1701 1.433 . S
C1709 N1711 1.384 . S
N1710 C1706 1.427 . S
N1710 C1707 1.384 . S
N1711 C1703 1.427 . S
N1711 C1709 1.384 . S
H1712 C1718 0.930 . S
H1713 C1722 0.930 . S
H1714 C1727 0.929 . S
H1715 C1725 0.929 . S
H1716 C1720 0.929 . S
H1717 C1726 0.929 . S
C1718 H1712 0.930 . S
C1718 C1719 1.367 . S
C1718 C1726 1.378 . S
C1719 C1718 1.367 . S
C1719 C1727 1.433 . S
C1720 H1716 0.929 . S
C1720 C1722 1.378 . S
C1720 C1724 1.350 . S
C1721 C1724 1.463 . S
C1721 C1726 1.350 . S
C1721 N1729 1.427 . S
C1722 H1713 0.930 . S
C1722 C1720 1.378 . S
C1722 C1723 1.367 . S
C1723 C1722 1.367 . S
C1723 C1725 1.433 . S
C1724 C1720 1.350 . S
C1724 C1721 1.463 . S
C1724 N1728 1.427 . S
C1725 H1715 0.929 . S
C1725 C1723 1.433 . S
C1725 N1728 1.384 . S
C1726 H1717 0.929 . S
C1726 C1718 1.378 . S
C1726 C1721 1.350 . S
C1727 H1714 0.929 . S
C1727 C1719 1.433 . S
C1727 N1729 1.384 . S
N1728 C1724 1.427 . S
N1728 C1725 1.384 . S
N1729 C1721 1.427 . S
N1729 C1727 1.384 . S
H1730 C1736 0.930 . S
H1731 C1740 0.930 . S
H1732 C1745 0.929 . S
H1733 C1743 0.929 . S
H1734 C1738 0.929 . S
H1735 C1744 0.929 . S
C1736 H1730 0.930 . S
C1736 C1737 1.367 . S
C1736 C1744 1.378 . S
C1737 C1736 1.367 . S
C1737 C1745 1.433 . S
C1738 H1734 0.929 . S
C1738 C1740 1.378 . S
C1738 C1742 1.350 . S
C1739 C1742 1.463 . S
C1739 C1744 1.350 . S
C1739 N1747 1.427 . S
C1740 H1731 0.930 . S
C1740 C1738 1.378 . S
C1740 C1741 1.367 . S
C1741 C1740 1.367 . S
C1741 C1743 1.433 . S
C1742 C1738 1.350 . S
C1742 C1739 1.463 . S
C1742 N1746 1.427 . S
C1743 H1733 0.929 . S
C1743 C1741 1.433 . S
C1743 N1746 1.384 . S
C1744 H1735 0.929 . S
C1744 C1736 1.378 . S
C1744 C1739 1.350 . S
C1745 H1732 0.929 . S
C1745 C1737 1.433 . S
C1745 N1747 1.384 . S
N1746 C1742 1.427 . S
N1746 C1743 1.384 . S
N1747 C1739 1.427 . S
N1747 C1745 1.384 . S
H1748 C1754 0.930 . S
H1749 C1758 0.930 . S
H1750 C1763 0.929 . S
H1751 C1761 0.929 . S
H1752 C1756 0.929 . S
H1753 C1762 0.929 . S
C1754 H1748 0.930 . S
C1754 C1755 1.367 . S
C1754 C1762 1.378 . S
C1755 C1754 1.367 . S
C1755 C1763 1.433 . S
C1756 H1752 0.929 . S
C1756 C1758 1.378 . S
C1756 C1760 1.350 . S
C1757 C1760 1.463 . S
C1757 C1762 1.350 . S
C1757 N1765 1.427 . S
C1758 H1749 0.930 . S
C1758 C1756 1.378 . S
C1758 C1759 1.367 . S
C1759 C1758 1.367 . S
C1759 C1761 1.433 . S
C1760 C1756 1.350 . S
C1760 C1757 1.463 . S
C1760 N1764 1.427 . S
C1761 H1751 0.929 . S
C1761 C1759 1.433 . S
C1761 N1764 1.384 . S
C1762 H1753 0.929 . S
C1762 C1754 1.378 . S
C1762 C1757 1.350 . S
C1763 H1750 0.929 . S
C1763 C1755 1.433 . S
C1763 N1765 1.384 . S
N1764 C1760 1.427 . S
N1764 C1761 1.384 . S
N1765 C1757 1.427 . S
N1765 C1763 1.384 . S
H1766 C1772 0.930 . S
H1767 C1776 0.930 . S
H1768 C1781 0.929 . S
H1769 C1779 0.929 . S
H1770 C1774 0.929 . S
H1771 C1780 0.929 . S
C1772 H1766 0.930 . S
C1772 C1773 1.367 . S
C1772 C1780 1.378 . S
C1773 C1772 1.367 . S
C1773 C1781 1.433 . S
C1774 H1770 0.929 . S
C1774 C1776 1.378 . S
C1774 C1778 1.350 . S
C1775 C1778 1.463 . S
C1775 C1780 1.350 . S
C1775 N1783 1.427 . S
C1776 H1767 0.930 . S
C1776 C1774 1.378 . S
C1776 C1777 1.367 . S
C1777 C1776 1.367 . S
C1777 C1779 1.433 . S
C1778 C1774 1.350 . S
C1778 C1775 1.463 . S
C1778 N1782 1.427 . S
C1779 H1769 0.929 . S
C1779 C1777 1.433 . S
C1779 N1782 1.384 . S
C1780 H1771 0.929 . S
C1780 C1772 1.378 . S
C1780 C1775 1.350 . S
C1781 H1768 0.929 . S
C1781 C1773 1.433 . S
C1781 N1783 1.384 . S
N1782 C1778 1.427 . S
N1782 C1779 1.384 . S
N1783 C1775 1.427 . S
N1783 C1781 1.384 . S
H1784 C1790 0.930 . S
H1785 C1794 0.930 . S
H1786 C1799 0.929 . S
H1787 C1797 0.929 . S
H1788 C1792 0.929 . S
H1789 C1798 0.929 . S
C1790 H1784 0.930 . S
C1790 C1791 1.367 . S
C1790 C1798 1.378 . S
C1791 C1790 1.367 . S
C1791 C1799 1.433 . S
C1792 H1788 0.929 . S
C1792 C1794 1.378 . S
C1792 C1796 1.350 . S
C1793 C1796 1.463 . S
C1793 C1798 1.350 . S
C1793 N1801 1.427 . S
C1794 H1785 0.930 . S
C1794 C1792 1.378 . S
C1794 C1795 1.367 . S
C1795 C1794 1.367 . S
C1795 C1797 1.433 . S
C1796 C1792 1.350 . S
C1796 C1793 1.463 . S
C1796 N1800 1.427 . S
C1797 H1787 0.929 . S
C1797 C1795 1.433 . S
C1797 N1800 1.384 . S
C1798 H1789 0.929 . S
C1798 C1790 1.378 . S
C1798 C1793 1.350 . S
C1799 H1786 0.929 . S
C1799 C1791 1.433 . S
C1799 N1801 1.384 . S
N1800 C1796 1.427 . S
N1800 C1797 1.384 . S
N1801 C1793 1.427 . S
N1801 C1799 1.384 . S
H1802 C1808 0.930 . S
H1803 C1812 0.930 . S
H1804 C1817 0.929 . S
H1805 C1815 0.929 . S
H1806 C1810 0.929 . S
H1807 C1816 0.929 . S
C1808 H1802 0.930 . S
C1808 C1809 1.367 . S
C1808 C1816 1.378 . S
C1809 C1808 1.367 . S
C1809 C1817 1.433 . S
C1810 H1806 0.929 . S
C1810 C1812 1.378 . S
C1810 C1814 1.350 . S
C1811 C1814 1.463 . S
C1811 C1816 1.350 . S
C1811 N1819 1.427 . S
C1812 H1803 0.930 . S
C1812 C1810 1.378 . S
C1812 C1813 1.367 . S
C1813 C1812 1.367 . S
C1813 C1815 1.433 . S
C1814 C1810 1.350 . S
C1814 C1811 1.463 . S
C1814 N1818 1.427 . S
C1815 H1805 0.929 . S
C1815 C1813 1.433 . S
C1815 N1818 1.384 . S
C1816 H1807 0.929 . S
C1816 C1808 1.378 . S
C1816 C1811 1.350 . S
C1817 H1804 0.929 . S
C1817 C1809 1.433 . S
C1817 N1819 1.384 . S
N1818 C1814 1.427 . S
N1818 C1815 1.384 . S
N1819 C1811 1.427 . S
N1819 C1817 1.384 . S
H1820 C1826 0.930 . S
H1821 C1830 0.930 . S
H1822 C1835 0.929 . S
H1823 C1833 0.929 . S
H1824 C1828 0.929 . S
H1825 C1834 0.929 . S
C1826 H1820 0.930 . S
C1826 C1827 1.367 . S
C1826 C1834 1.378 . S
C1827 C1826 1.367 . S
C1827 C1835 1.433 . S
C1828 H1824 0.929 . S
C1828 C1830 1.378 . S
C1828 C1832 1.350 . S
C1829 C1832 1.463 . S
C1829 C1834 1.350 . S
C1829 N1837 1.427 . S
C1830 H1821 0.930 . S
C1830 C1828 1.378 . S
C1830 C1831 1.367 . S
C1831 C1830 1.367 . S
C1831 C1833 1.433 . S
C1832 C1828 1.350 . S
C1832 C1829 1.463 . S
C1832 N1836 1.427 . S
C1833 H1823 0.929 . S
C1833 C1831 1.433 . S
C1833 N1836 1.384 . S
C1834 H1825 0.929 . S
C1834 C1826 1.378 . S
C1834 C1829 1.350 . S
C1835 H1822 0.929 . S
C1835 C1827 1.433 . S
C1835 N1837 1.384 . S
N1836 C1832 1.427 . S
N1836 C1833 1.384 . S
N1837 C1829 1.427 . S
N1837 C1835 1.384 . S
H1838 C1844 0.930 . S
H1839 C1848 0.930 . S
H1840 C1853 0.929 . S
H1841 C1851 0.929 . S
H1842 C1846 0.929 . S
H1843 C1852 0.929 . S
C1844 H1838 0.930 . S
C1844 C1845 1.367 . S
C1844 C1852 1.378 . S
C1845 C1844 1.367 . S
C1845 C1853 1.433 . S
C1846 H1842 0.929 . S
C1846 C1848 1.378 . S
C1846 C1850 1.350 . S
C1847 C1850 1.463 . S
C1847 C1852 1.350 1_554 S
C1847 N1855 1.427 . S
C1848 H1839 0.930 . S
C1848 C1846 1.378 . S
C1848 C1849 1.367 . S
C1849 C1848 1.367 . S
C1849 C1851 1.433 . S
C1850 C1846 1.350 . S
C1850 C1847 1.463 . S
C1850 N1854 1.427 . S
C1851 H1841 0.929 . S
C1851 C1849 1.433 . S
C1851 N1854 1.384 . S
C1852 H1843 0.929 . S
C1852 C1844 1.378 . S
C1852 C1847 1.350 1_556 S
C1853 H1840 0.929 . S
C1853 C1845 1.433 . S
C1853 N1855 1.384 1_556 S
N1854 C1850 1.427 . S
N1854 C1851 1.384 . S
N1855 C1847 1.427 . S
N1855 C1853 1.384 1_554 S
H1856 C1862 0.930 . S
H1857 C1866 0.930 . S
H1858 C1871 0.929 . S
H1859 C1869 0.929 . S
H1860 C1864 0.929 . S
H1861 C1870 0.929 . S
C1862 H1856 0.930 . S
C1862 C1863 1.367 . S
C1862 C1870 1.378 1_655 S
C1863 C1862 1.367 . S
C1863 C1871 1.433 . S
C1864 H1860 0.929 . S
C1864 C1866 1.378 1_655 S
C1864 C1868 1.350 1_655 S
C1865 C1868 1.463 1_655 S
C1865 C1870 1.350 1_655 S
C1865 N1873 1.427 . S
C1866 H1857 0.930 . S
C1866 C1864 1.378 1_455 S
C1866 C1867 1.367 . S
C1867 C1866 1.367 . S
C1867 C1869 1.433 . S
C1868 C1864 1.350 1_455 S
C1868 C1865 1.463 1_455 S
C1868 N1872 1.427 . S
C1869 H1859 0.929 . S
C1869 C1867 1.433 . S
C1869 N1872 1.384 . S
C1870 H1861 0.929 . S
C1870 C1862 1.378 1_455 S
C1870 C1865 1.350 1_455 S
C1871 H1858 0.929 . S
C1871 C1863 1.433 . S
C1871 N1873 1.384 . S
N1872 C1868 1.427 . S
N1872 C1869 1.384 . S
N1873 C1865 1.427 . S
N1873 C1871 1.384 . S
H1874 C1880 0.930 . S
H1875 C1884 0.930 . S
H1876 C1889 0.929 . S
H1877 C1887 0.929 . S
H1878 C1882 0.929 . S
H1879 C1888 0.929 . S
C1880 H1874 0.930 . S
C1880 C1881 1.367 . S
C1880 C1888 1.378 . S
C1881 C1880 1.367 . S
C1881 C1889 1.433 . S
C1882 H1878 0.929 . S
C1882 C1884 1.378 . S
C1882 C1886 1.350 . S
C1883 C1886 1.463 . S
C1883 C1888 1.350 . S
C1883 N1891 1.427 . S
C1884 H1875 0.930 . S
C1884 C1882 1.378 . S
C1884 C1885 1.367 . S
C1885 C1884 1.367 . S
C1885 C1887 1.433 . S
C1886 C1882 1.350 . S
C1886 C1883 1.463 . S
C1886 N1890 1.427 . S
C1887 H1877 0.929 . S
C1887 C1885 1.433 . S
C1887 N1890 1.384 . S
C1888 H1879 0.929 . S
C1888 C1880 1.378 . S
C1888 C1883 1.350 . S
C1889 H1876 0.929 . S
C1889 C1881 1.433 . S
C1889 N1891 1.384 . S
N1890 C1886 1.427 . S
N1890 C1887 1.384 . S
N1891 C1883 1.427 . S
N1891 C1889 1.384 . S
H1892 C1898 0.930 . S
H1893 C1902 0.930 . S
H1894 C1907 0.929 . S
H1895 C1905 0.929 . S
H1896 C1900 0.929 . S
H1897 C1906 0.929 . S
C1898 H1892 0.930 . S
C1898 C1899 1.367 . S
C1898 C1906 1.378 . S
C1899 C1898 1.367 . S
C1899 C1907 1.433 . S
C1900 H1896 0.929 . S
C1900 C1902 1.378 . S
C1900 C1904 1.350 . S
C1901 C1904 1.463 . S
C1901 C1906 1.350 . S
C1901 N1909 1.427 . S
C1902 H1893 0.930 . S
C1902 C1900 1.378 . S
C1902 C1903 1.367 . S
C1903 C1902 1.367 . S
C1903 C1905 1.433 . S
C1904 C1900 1.350 . S
C1904 C1901 1.463 . S
C1904 N1908 1.427 . S
C1905 H1895 0.929 . S
C1905 C1903 1.433 . S
C1905 N1908 1.384 . S
C1906 H1897 0.929 . S
C1906 C1898 1.378 . S
C1906 C1901 1.350 . S
C1907 H1894 0.929 . S
C1907 C1899 1.433 . S
C1907 N1909 1.384 . S
N1908 C1904 1.427 . S
N1908 C1905 1.384 . S
N1909 C1901 1.427 . S
N1909 C1907 1.384 . S
H1910 C1916 0.930 . S
H1911 C1920 0.930 . S
H1912 C1925 0.929 . S
H1913 C1923 0.929 . S
H1914 C1918 0.929 . S
H1915 C1924 0.929 . S
C1916 H1910 0.930 . S
C1916 C1917 1.367 . S
C1916 C1924 1.378 . S
C1917 C1916 1.367 . S
C1917 C1925 1.433 . S
C1918 H1914 0.929 . S
C1918 C1920 1.378 . S
C1918 C1922 1.350 . S
C1919 C1922 1.463 . S
C1919 C1924 1.350 . S
C1919 N1927 1.427 . S
C1920 H1911 0.930 . S
C1920 C1918 1.378 . S
C1920 C1921 1.367 . S
C1921 C1920 1.367 . S
C1921 C1923 1.433 . S
C1922 C1918 1.350 . S
C1922 C1919 1.463 . S
C1922 N1926 1.427 . S
C1923 H1913 0.929 . S
C1923 C1921 1.433 . S
C1923 N1926 1.384 . S
C1924 H1915 0.929 . S
C1924 C1916 1.378 . S
C1924 C1919 1.350 . S
C1925 H1912 0.929 . S
C1925 C1917 1.433 . S
C1925 N1927 1.384 . S
N1926 C1922 1.427 . S
N1926 C1923 1.384 . S
N1927 C1919 1.427 . S
N1927 C1925 1.384 . S
H1928 C1934 0.930 . S
H1929 C1938 0.930 . S
H1930 C1943 0.929 . S
H1931 C1941 0.929 . S
H1932 C1936 0.925 1_655 S
H1933 C1942 0.929 1_455 S
C1934 H1928 0.930 . S
C1934 C1935 1.367 . S
C1934 C1942 1.377 . S
C1935 C1934 1.367 . S
C1935 C1943 1.433 . S
C1936 H1932 0.925 1_455 S
C1936 C1938 1.380 . S
C1936 C1940 1.351 . S
C1937 C1940 1.463 1_655 S
C1937 C1942 1.350 . S
C1937 N1945 1.427 . S
C1938 H1929 0.930 . S
C1938 C1936 1.380 . S
C1938 C1939 1.367 . S
C1939 C1938 1.367 . S
C1939 C1941 1.433 . S
C1940 C1936 1.351 . S
C1940 C1937 1.463 1_455 S
C1940 N1944 1.427 . S
C1941 H1931 0.929 . S
C1941 C1939 1.433 . S
C1941 N1944 1.384 . S
C1942 H1933 0.929 1_655 S
C1942 C1934 1.377 . S
C1942 C1937 1.350 . S
C1943 H1930 0.929 . S
C1943 C1935 1.433 . S
C1943 N1945 1.384 . S
N1944 C1940 1.427 . S
N1944 C1941 1.384 . S
N1945 C1937 1.427 . S
N1945 C1943 1.384 . S
H1946 C1952 0.930 . S
H1947 C1956 0.930 . S
H1948 C1961 0.929 . S
H1949 C1959 0.929 . S
H1950 C1954 0.929 . S
H1951 C1960 0.929 . S
C1952 H1946 0.930 . S
C1952 C1953 1.367 . S
C1952 C1960 1.378 . S
C1953 C1952 1.367 . S
C1953 C1961 1.433 . S
C1954 H1950 0.929 . S
C1954 C1956 1.378 . S
C1954 C1958 1.350 . S
C1955 C1958 1.463 . S
C1955 C1960 1.350 . S
C1955 N1963 1.427 . S
C1956 H1947 0.930 . S
C1956 C1954 1.378 . S
C1956 C1957 1.367 . S
C1957 C1956 1.367 . S
C1957 C1959 1.433 . S
C1958 C1954 1.350 . S
C1958 C1955 1.463 . S
C1958 N1962 1.427 . S
C1959 H1949 0.929 . S
C1959 C1957 1.433 . S
C1959 N1962 1.384 . S
C1960 H1951 0.929 . S
C1960 C1952 1.378 . S
C1960 C1955 1.350 . S
C1961 H1948 0.929 . S
C1961 C1953 1.433 . S
C1961 N1963 1.384 . S
N1962 C1958 1.427 . S
N1962 C1959 1.384 . S
N1963 C1955 1.427 . S
N1963 C1961 1.384 . S
H1964 C1970 0.930 . S
H1965 C1974 0.930 . S
H1966 C1979 0.929 . S
H1967 C1977 0.929 . S
H1968 C1972 0.929 . S
H1969 C1978 0.929 . S
C1970 H1964 0.930 . S
C1970 C1971 1.367 . S
C1970 C1978 1.378 . S
C1971 C1970 1.367 . S
C1971 C1979 1.433 . S
C1972 H1968 0.929 . S
C1972 C1974 1.378 . S
C1972 C1976 1.350 . S
C1973 C1976 1.463 . S
C1973 C1978 1.350 . S
C1973 N1981 1.427 . S
C1974 H1965 0.930 . S
C1974 C1972 1.378 . S
C1974 C1975 1.367 . S
C1975 C1974 1.367 . S
C1975 C1977 1.433 . S
C1976 C1972 1.350 . S
C1976 C1973 1.463 . S
C1976 N1980 1.427 . S
C1977 H1967 0.929 . S
C1977 C1975 1.433 . S
C1977 N1980 1.384 . S
C1978 H1969 0.929 . S
C1978 C1970 1.378 . S
C1978 C1973 1.350 . S
C1979 H1966 0.929 . S
C1979 C1971 1.433 . S
C1979 N1981 1.384 . S
N1980 C1976 1.427 . S
N1980 C1977 1.384 . S
N1981 C1973 1.427 . S
N1981 C1979 1.384 . S
H1982 C1988 0.930 . S
H1983 C1992 0.930 . S
H1984 C1997 0.929 . S
H1985 C1995 0.929 . S
H1986 C1990 0.929 . S
H1987 C1996 0.929 . S
C1988 H1982 0.930 . S
C1988 C1989 1.367 . S
C1988 C1996 1.378 . S
C1989 C1988 1.367 . S
C1989 C1997 1.433 . S
C1990 H1986 0.929 . S
C1990 C1992 1.378 . S
C1990 C1994 1.350 . S
C1991 C1994 1.463 . S
C1991 C1996 1.350 . S
C1991 N1999 1.427 . S
C1992 H1983 0.930 . S
C1992 C1990 1.378 . S
C1992 C1993 1.367 . S
C1993 C1992 1.367 . S
C1993 C1995 1.433 . S
C1994 C1990 1.350 . S
C1994 C1991 1.463 . S
C1994 N1998 1.427 . S
C1995 H1985 0.929 . S
C1995 C1993 1.433 . S
C1995 N1998 1.384 . S
C1996 H1987 0.929 . S
C1996 C1988 1.378 . S
C1996 C1991 1.350 . S
C1997 H1984 0.929 . S
C1997 C1989 1.433 . S
C1997 N1999 1.384 . S
N1998 C1994 1.427 . S
N1998 C1995 1.384 . S
N1999 C1991 1.427 . S
N1999 C1997 1.384 . S
H2000 C2006 0.930 . S
H2001 C2010 0.930 . S
H2002 C2015 0.929 . S
H2003 C2013 0.929 . S
H2004 C2008 0.929 . S
H2005 C2014 0.929 . S
C2006 H2000 0.930 . S
C2006 C2007 1.367 . S
C2006 C2014 1.378 . S
C2007 C2006 1.367 . S
C2007 C2015 1.433 . S
C2008 H2004 0.929 . S
C2008 C2010 1.378 . S
C2008 C2012 1.350 . S
C2009 C2012 1.463 . S
C2009 C2014 1.350 . S
C2009 N2017 1.427 . S
C2010 H2001 0.930 . S
C2010 C2008 1.378 . S
C2010 C2011 1.367 . S
C2011 C2010 1.367 . S
C2011 C2013 1.433 . S
C2012 C2008 1.350 . S
C2012 C2009 1.463 . S
C2012 N2016 1.427 . S
C2013 H2003 0.929 . S
C2013 C2011 1.433 . S
C2013 N2016 1.384 . S
C2014 H2005 0.929 . S
C2014 C2006 1.378 . S
C2014 C2009 1.350 . S
C2015 H2002 0.929 . S
C2015 C2007 1.433 . S
C2015 N2017 1.384 . S
N2016 C2012 1.427 . S
N2016 C2013 1.384 . S
N2017 C2009 1.427 . S
N2017 C2015 1.384 . S
H2018 C2024 0.930 . S
H2019 C2028 0.930 . S
H2020 C2033 0.929 . S
H2021 C2031 0.929 . S
H2022 C2026 0.929 . S
H2023 C2032 0.929 . S
C2024 H2018 0.930 . S
C2024 C2025 1.367 . S
C2024 C2032 1.378 . S
C2025 C2024 1.367 . S
C2025 C2033 1.433 . S
C2026 H2022 0.929 . S
C2026 C2028 1.378 . S
C2026 C2030 1.350 . S
C2027 C2030 1.463 . S
C2027 C2032 1.350 . S
C2027 N2035 1.427 . S
C2028 H2019 0.930 . S
C2028 C2026 1.378 . S
C2028 C2029 1.367 . S
C2029 C2028 1.367 . S
C2029 C2031 1.433 . S
C2030 C2026 1.350 . S
C2030 C2027 1.463 . S
C2030 N2034 1.427 . S
C2031 H2021 0.929 . S
C2031 C2029 1.433 . S
C2031 N2034 1.384 . S
C2032 H2023 0.929 . S
C2032 C2024 1.378 . S
C2032 C2027 1.350 . S
C2033 H2020 0.929 . S
C2033 C2025 1.433 . S
C2033 N2035 1.384 . S
N2034 C2030 1.427 . S
N2034 C2031 1.384 . S
N2035 C2027 1.427 . S
N2035 C2033 1.384 . S
H2036 C2042 0.930 . S
H2037 C2046 0.930 . S
H2038 C2051 0.929 . S
H2039 C2049 0.929 . S
H2040 C2044 0.929 . S
H2041 C2050 0.929 . S
C2042 H2036 0.930 . S
C2042 C2043 1.367 . S
C2042 C2050 1.378 . S
C2043 C2042 1.367 . S
C2043 C2051 1.433 . S
C2044 H2040 0.929 . S
C2044 C2046 1.378 . S
C2044 C2048 1.350 . S
C2045 C2048 1.463 . S
C2045 C2050 1.350 . S
C2045 N2053 1.427 . S
C2046 H2037 0.930 . S
C2046 C2044 1.378 . S
C2046 C2047 1.367 . S
C2047 C2046 1.367 . S
C2047 C2049 1.433 . S
C2048 C2044 1.350 . S
C2048 C2045 1.463 . S
C2048 N2052 1.427 . S
C2049 H2039 0.929 . S
C2049 C2047 1.433 . S
C2049 N2052 1.384 . S
C2050 H2041 0.929 . S
C2050 C2042 1.378 . S
C2050 C2045 1.350 . S
C2051 H2038 0.929 . S
C2051 C2043 1.433 . S
C2051 N2053 1.384 . S
N2052 C2048 1.427 . S
N2052 C2049 1.384 . S
N2053 C2045 1.427 . S
N2053 C2051 1.384 . S
H2054 C2060 0.930 . S
H2055 C2064 0.930 . S
H2056 C2069 0.929 . S
H2057 C2067 0.929 . S
H2058 C2062 0.929 . S
H2059 C2068 0.929 . S
C2060 H2054 0.930 . S
C2060 C2061 1.367 . S
C2060 C2068 1.378 . S
C2061 C2060 1.367 . S
C2061 C2069 1.433 . S
C2062 H2058 0.929 . S
C2062 C2064 1.378 . S
C2062 C2066 1.350 . S
C2063 C2066 1.463 . S
C2063 C2068 1.350 . S
C2063 N2071 1.427 . S
C2064 H2055 0.930 . S
C2064 C2062 1.378 . S
C2064 C2065 1.367 . S
C2065 C2064 1.367 . S
C2065 C2067 1.433 . S
C2066 C2062 1.350 . S
C2066 C2063 1.463 . S
C2066 N2070 1.427 . S
C2067 H2057 0.929 . S
C2067 C2065 1.433 . S
C2067 N2070 1.384 . S
C2068 H2059 0.929 . S
C2068 C2060 1.378 . S
C2068 C2063 1.350 . S
C2069 H2056 0.929 . S
C2069 C2061 1.433 . S
C2069 N2071 1.384 . S
N2070 C2066 1.427 . S
N2070 C2067 1.384 . S
N2071 C2063 1.427 . S
N2071 C2069 1.384 . S
H2072 C2078 0.930 . S
H2073 C2082 0.930 . S
H2074 C2087 0.929 . S
H2075 C2085 0.929 . S
H2076 C2080 0.929 . S
H2077 C2086 0.929 . S
C2078 H2072 0.930 . S
C2078 C2079 1.367 . S
C2078 C2086 1.378 . S
C2079 C2078 1.367 . S
C2079 C2087 1.433 . S
C2080 H2076 0.929 . S
C2080 C2082 1.378 . S
C2080 C2084 1.350 . S
C2081 C2084 1.463 1_545 S
C2081 C2086 1.350 . S
C2081 N2089 1.427 . S
C2082 H2073 0.930 . S
C2082 C2080 1.378 . S
C2082 C2083 1.367 . S
C2083 C2082 1.367 . S
C2083 C2085 1.433 . S
C2084 C2080 1.350 . S
C2084 C2081 1.463 1_565 S
C2084 N2088 1.427 . S
C2085 H2075 0.929 . S
C2085 C2083 1.433 . S
C2085 N2088 1.384 . S
C2086 H2077 0.929 . S
C2086 C2078 1.378 . S
C2086 C2081 1.350 . S
C2087 H2074 0.929 . S
C2087 C2079 1.433 . S
C2087 N2089 1.384 . S
N2088 C2084 1.427 . S
N2088 C2085 1.384 . S
N2089 C2081 1.427 . S
N2089 C2087 1.384 . S
H2090 C2096 0.930 1_655 S
H2091 C2100 0.930 1_455 S
H2092 C2105 0.929 . S
H2093 C2103 0.929 . S
H2094 C2098 0.929 . S
H2095 C2104 0.929 . S
C2096 H2090 0.930 1_455 S
C2096 C2097 1.367 . S
C2096 C2104 1.378 1_455 S
C2097 C2096 1.367 . S
C2097 C2105 1.433 . S
C2098 H2094 0.929 . S
C2098 C2100 1.378 1_455 S
C2098 C2102 1.350 1_455 S
C2099 C2102 1.463 1_465 S
C2099 C2104 1.350 1_455 S
C2099 N2107 1.427 . S
C2100 H2091 0.930 1_655 S
C2100 C2098 1.378 1_655 S
C2100 C2101 1.367 . S
C2101 C2100 1.367 . S
C2101 C2103 1.433 . S
C2102 C2098 1.350 1_655 S
C2102 C2099 1.463 1_645 S
C2102 N2106 1.427 . S
C2103 H2093 0.929 . S
C2103 C2101 1.433 . S
C2103 N2106 1.384 . S
C2104 H2095 0.929 . S
C2104 C2096 1.378 1_655 S
C2104 C2099 1.350 1_655 S
C2105 H2092 0.929 . S
C2105 C2097 1.433 . S
C2105 N2107 1.384 . S
N2106 C2102 1.427 . S
N2106 C2103 1.384 . S
N2107 C2099 1.427 . S
N2107 C2105 1.384 . S
H2108 C2114 0.930 . S
H2109 C2118 0.930 . S
H2110 C2123 0.929 . S
H2111 C2121 0.929 . S
H2112 C2116 0.929 . S
H2113 C2122 0.929 . S
C2114 H2108 0.930 . S
C2114 C2115 1.367 1_545 S
C2114 C2122 1.378 . S
C2115 C2114 1.367 1_565 S
C2115 C2123 1.433 . S
C2116 H2112 0.929 . S
C2116 C2118 1.378 . S
C2116 C2120 1.350 1_565 S
C2117 C2120 1.463 1_565 S
C2117 C2122 1.350 1_565 S
C2117 N2125 1.427 . S
C2118 H2109 0.930 . S
C2118 C2116 1.378 . S
C2118 C2119 1.367 1_565 S
C2119 C2118 1.367 1_545 S
C2119 C2121 1.433 . S
C2120 C2116 1.350 1_545 S
C2120 C2117 1.463 1_545 S
C2120 N2124 1.427 . S
C2121 H2111 0.929 . S
C2121 C2119 1.433 . S
C2121 N2124 1.384 . S
C2122 H2113 0.929 . S
C2122 C2114 1.378 . S
C2122 C2117 1.350 1_545 S
C2123 H2110 0.929 . S
C2123 C2115 1.433 . S
C2123 N2125 1.384 . S
N2124 C2120 1.427 . S
N2124 C2121 1.384 . S
N2125 C2117 1.427 . S
N2125 C2123 1.384 . S
H2126 C2132 0.930 . S
H2127 C2136 0.930 . S
H2128 C2141 0.929 . S
H2129 C2139 0.929 . S
H2130 C2134 0.929 . S
H2131 C2140 0.929 . S
C2132 H2126 0.930 . S
C2132 C2133 1.367 1_545 S
C2132 C2140 1.378 . S
C2133 C2132 1.367 1_565 S
C2133 C2141 1.433 . S
C2134 H2130 0.929 . S
C2134 C2136 1.378 . S
C2134 C2138 1.350 1_565 S
C2135 C2138 1.463 1_665 S
C2135 C2140 1.350 1_565 S
C2135 N2143 1.427 . S
C2136 H2127 0.930 . S
C2136 C2134 1.378 . S
C2136 C2137 1.367 1_565 S
C2137 C2136 1.367 1_545 S
C2137 C2139 1.433 . S
C2138 C2134 1.350 1_545 S
C2138 C2135 1.463 1_445 S
C2138 N2142 1.427 . S
C2139 H2129 0.929 . S
C2139 C2137 1.433 . S
C2139 N2142 1.384 . S
C2140 H2131 0.929 . S
C2140 C2132 1.378 . S
C2140 C2135 1.350 1_545 S
C2141 H2128 0.929 . S
C2141 C2133 1.433 . S
C2141 N2143 1.384 . S
N2142 C2138 1.427 . S
N2142 C2139 1.384 . S
N2143 C2135 1.427 . S
N2143 C2141 1.384 . S
H2144 C2150 0.930 . S
H2145 C2154 0.930 . S
H2146 C2159 0.929 . S
H2147 C2157 0.929 1_455 S
H2148 C2152 0.929 . S
H2149 C2158 0.929 . S
C2150 H2144 0.930 . S
C2150 C2151 1.367 . S
C2150 C2158 1.378 . S
C2151 C2150 1.367 . S
C2151 C2159 1.433 1_556 S
C2152 H2148 0.929 . S
C2152 C2154 1.378 . S
C2152 C2156 1.350 . S
C2153 C2156 1.463 1_455 S
C2153 C2158 1.350 . S
C2153 N2161 1.408 1_455 S
C2154 H2145 0.930 . S
C2154 C2152 1.378 . S
C2154 C2155 1.367 . S
C2155 C2154 1.367 . S
C2155 C2157 1.433 . S
C2156 C2152 1.350 . S
C2156 C2153 1.463 1_655 S
C2156 N2160 1.427 1_655 S
C2157 H2147 0.929 1_655 S
C2157 C2155 1.433 . S
C2157 N2160 1.384 1_655 S
C2158 H2149 0.929 . S
C2158 C2150 1.378 . S
C2158 C2153 1.350 . S
C2159 H2146 0.929 . S
C2159 C2151 1.433 1_554 S
C2159 N2161 1.355 1_454 S
N2160 C2156 1.427 1_455 S
N2160 C2157 1.384 1_455 S
N2161 C2153 1.408 1_655 S
N2161 C2159 1.355 1_656 S
H2162 C2168 0.930 . S
H2163 C2172 0.930 . S
H2164 C2177 0.929 . S
H2165 C2175 0.929 . S
H2166 C2170 0.929 . S
H2167 C2176 0.929 . S
C2168 H2162 0.930 . S
C2168 C2169 1.367 . S
C2168 C2176 1.378 . S
C2169 C2168 1.367 . S
C2169 C2177 1.433 . S
C2170 H2166 0.929 . S
C2170 C2172 1.378 . S
C2170 C2174 1.350 . S
C2171 C2174 1.463 . S
C2171 C2176 1.350 . S
C2171 N2179 1.427 . S
C2172 H2163 0.930 . S
C2172 C2170 1.378 . S
C2172 C2173 1.367 . S
C2173 C2172 1.367 . S
C2173 C2175 1.433 . S
C2174 C2170 1.350 . S
C2174 C2171 1.463 . S
C2174 N2178 1.427 . S
C2175 H2165 0.929 . S
C2175 C2173 1.433 . S
C2175 N2178 1.384 . S
C2176 H2167 0.929 . S
C2176 C2168 1.378 . S
C2176 C2171 1.350 . S
C2177 H2164 0.929 . S
C2177 C2169 1.433 . S
C2177 N2179 1.384 . S
N2178 C2174 1.427 . S
N2178 C2175 1.384 . S
N2179 C2171 1.427 . S
N2179 C2177 1.384 . S
H2180 C2186 0.930 . S
H2181 C2190 0.930 . S
H2182 C2195 0.929 . S
H2183 C2193 0.929 . S
H2184 C2188 0.929 . S
H2185 C2194 0.929 . S
C2186 H2180 0.930 . S
C2186 C2187 1.367 . S
C2186 C2194 1.378 . S
C2187 C2186 1.367 . S
C2187 C2195 1.433 . S
C2188 H2184 0.929 . S
C2188 C2190 1.378 . S
C2188 C2192 1.350 . S
C2189 C2192 1.463 . S
C2189 C2194 1.350 . S
C2189 N2197 1.427 . S
C2190 H2181 0.930 . S
C2190 C2188 1.378 . S
C2190 C2191 1.367 . S
C2191 C2190 1.367 . S
C2191 C2193 1.433 . S
C2192 C2188 1.350 . S
C2192 C2189 1.463 . S
C2192 N2196 1.427 . S
C2193 H2183 0.929 . S
C2193 C2191 1.433 . S
C2193 N2196 1.384 . S
C2194 H2185 0.929 . S
C2194 C2186 1.378 . S
C2194 C2189 1.350 . S
C2195 H2182 0.929 . S
C2195 C2187 1.433 . S
C2195 N2197 1.384 . S
N2196 C2192 1.427 . S
N2196 C2193 1.384 . S
N2197 C2189 1.427 . S
N2197 C2195 1.384 . S
H2198 C2204 0.930 . S
H2199 C2208 0.930 . S
H2200 C2213 0.929 . S
H2201 C2211 0.929 . S
H2202 C2206 0.929 . S
H2203 C2212 0.929 . S
C2204 H2198 0.930 . S
C2204 C2205 1.367 . S
C2204 C2212 1.378 . S
C2205 C2204 1.367 . S
C2205 C2213 1.433 . S
C2206 H2202 0.929 . S
C2206 C2208 1.378 . S
C2206 C2210 1.350 . S
C2207 C2210 1.463 . S
C2207 C2212 1.350 . S
C2207 N2215 1.427 . S
C2208 H2199 0.930 . S
C2208 C2206 1.378 . S
C2208 C2209 1.367 . S
C2209 C2208 1.367 . S
C2209 C2211 1.433 . S
C2210 C2206 1.350 . S
C2210 C2207 1.463 . S
C2210 N2214 1.427 . S
C2211 H2201 0.929 . S
C2211 C2209 1.433 . S
C2211 N2214 1.384 . S
C2212 H2203 0.929 . S
C2212 C2204 1.378 . S
C2212 C2207 1.350 . S
C2213 H2200 0.929 . S
C2213 C2205 1.433 . S
C2213 N2215 1.384 . S
N2214 C2210 1.427 . S
N2214 C2211 1.384 . S
N2215 C2207 1.427 . S
N2215 C2213 1.384 . S
H2216 C2222 0.930 . S
H2217 C2226 0.930 . S
H2218 C2231 0.929 . S
H2219 C2229 0.929 . S
H2220 C2224 0.929 1_655 S
H2221 C2230 0.929 . S
C2222 H2216 0.930 . S
C2222 C2223 1.367 1_455 S
C2222 C2230 1.378 . S
C2223 C2222 1.367 1_655 S
C2223 C2231 1.433 . S
C2224 H2220 0.929 1_455 S
C2224 C2226 1.378 . S
C2224 C2228 1.350 . S
C2225 C2228 1.463 . S
C2225 C2230 1.350 . S
C2225 N2233 1.427 1_455 S
C2226 H2217 0.930 . S
C2226 C2224 1.378 . S
C2226 C2227 1.367 . S
C2227 C2226 1.367 . S
C2227 C2229 1.433 . S
C2228 C2224 1.350 . S
C2228 C2225 1.463 . S
C2228 N2232 1.427 . S
C2229 H2219 0.929 . S
C2229 C2227 1.433 . S
C2229 N2232 1.384 . S
C2230 H2221 0.929 . S
C2230 C2222 1.378 . S
C2230 C2225 1.350 . S
C2231 H2218 0.929 . S
C2231 C2223 1.433 . S
C2231 N2233 1.384 . S
N2232 C2228 1.427 . S
N2232 C2229 1.384 . S
N2233 C2225 1.427 1_655 S
N2233 C2231 1.384 . S
H2234 C2240 0.930 . S
H2235 C2244 0.930 . S
H2236 C2249 0.929 . S
H2237 C2247 0.929 . S
H2238 C2242 0.929 . S
H2239 C2248 0.929 . S
C2240 H2234 0.930 . S
C2240 C2241 1.367 . S
C2240 C2248 1.378 . S
C2241 C2240 1.367 . S
C2241 C2249 1.433 . S
C2242 H2238 0.929 . S
C2242 C2244 1.378 . S
C2242 C2246 1.350 . S
C2243 C2246 1.463 . S
C2243 C2248 1.350 . S
C2243 N2251 1.427 . S
C2244 H2235 0.930 . S
C2244 C2242 1.378 . S
C2244 C2245 1.367 . S
C2245 C2244 1.367 . S
C2245 C2247 1.433 . S
C2246 C2242 1.350 . S
C2246 C2243 1.463 . S
C2246 N2250 1.427 . S
C2247 H2237 0.929 . S
C2247 C2245 1.433 . S
C2247 N2250 1.384 . S
C2248 H2239 0.929 . S
C2248 C2240 1.378 . S
C2248 C2243 1.350 . S
C2249 H2236 0.929 . S
C2249 C2241 1.433 . S
C2249 N2251 1.384 . S
N2250 C2246 1.427 . S
N2250 C2247 1.384 . S
N2251 C2243 1.427 . S
N2251 C2249 1.384 . S
H2252 C2258 0.930 . S
H2253 C2262 0.930 . S
H2254 C2267 0.929 . S
H2255 C2265 0.929 . S
H2256 C2260 0.929 . S
H2257 C2266 0.929 . S
C2258 H2252 0.930 . S
C2258 C2259 1.367 . S
C2258 C2266 1.378 . S
C2259 C2258 1.367 . S
C2259 C2267 1.433 . S
C2260 H2256 0.929 . S
C2260 C2262 1.378 . S
C2260 C2264 1.350 . S
C2261 C2264 1.463 . S
C2261 C2266 1.350 . S
C2261 N2269 1.427 . S
C2262 H2253 0.930 . S
C2262 C2260 1.378 . S
C2262 C2263 1.367 . S
C2263 C2262 1.367 . S
C2263 C2265 1.433 . S
C2264 C2260 1.350 . S
C2264 C2261 1.463 . S
C2264 N2268 1.427 . S
C2265 H2255 0.929 . S
C2265 C2263 1.433 . S
C2265 N2268 1.384 . S
C2266 H2257 0.929 . S
C2266 C2258 1.378 . S
C2266 C2261 1.350 . S
C2267 H2254 0.929 . S
C2267 C2259 1.433 . S
C2267 N2269 1.384 . S
N2268 C2264 1.427 . S
N2268 C2265 1.384 . S
N2269 C2261 1.427 . S
N2269 C2267 1.384 . S
H2270 C2276 0.930 . S
H2271 C2280 0.930 . S
H2272 C2285 0.929 . S
H2273 C2283 0.929 . S
H2274 C2278 0.929 . S
H2275 C2284 0.929 . S
C2276 H2270 0.930 . S
C2276 C2277 1.367 . S
C2276 C2284 1.378 . S
C2277 C2276 1.367 . S
C2277 C2285 1.433 . S
C2278 H2274 0.929 . S
C2278 C2280 1.378 . S
C2278 C2282 1.350 . S
C2279 C2282 1.463 . S
C2279 C2284 1.350 . S
C2279 N2287 1.427 . S
C2280 H2271 0.930 . S
C2280 C2278 1.378 . S
C2280 C2281 1.367 . S
C2281 C2280 1.367 . S
C2281 C2283 1.433 . S
C2282 C2278 1.350 . S
C2282 C2279 1.463 . S
C2282 N2286 1.427 . S
C2283 H2273 0.929 . S
C2283 C2281 1.433 . S
C2283 N2286 1.384 . S
C2284 H2275 0.929 . S
C2284 C2276 1.378 . S
C2284 C2279 1.350 . S
C2285 H2272 0.929 . S
C2285 C2277 1.433 . S
C2285 N2287 1.384 . S
N2286 C2282 1.427 . S
N2286 C2283 1.384 . S
N2287 C2279 1.427 . S
N2287 C2285 1.384 . S
H2288 C2294 0.930 . S
H2289 C2298 0.930 . S
H2290 C2303 0.929 . S
H2291 C2301 0.929 . S
H2292 C2296 0.929 . S
H2293 C2302 0.929 . S
C2294 H2288 0.930 . S
C2294 C2295 1.367 . S
C2294 C2302 1.378 . S
C2295 C2294 1.367 . S
C2295 C2303 1.433 . S
C2296 H2292 0.929 . S
C2296 C2298 1.378 . S
C2296 C2300 1.350 . S
C2297 C2300 1.463 1_455 S
C2297 C2302 1.350 . S
C2297 N2305 1.417 1_455 S
C2298 H2289 0.930 . S
C2298 C2296 1.378 . S
C2298 C2299 1.367 . S
C2299 C2298 1.367 . S
C2299 C2301 1.433 . S
C2300 C2296 1.350 . S
C2300 C2297 1.463 1_655 S
C2300 N2304 1.427 . S
C2301 H2291 0.929 . S
C2301 C2299 1.433 . S
C2301 N2304 1.384 . S
C2302 H2293 0.929 . S
C2302 C2294 1.378 . S
C2302 C2297 1.350 . S
C2303 H2290 0.929 . S
C2303 C2295 1.433 . S
C2303 N2305 1.350 1_455 S
N2304 C2300 1.427 . S
N2304 C2301 1.384 . S
N2305 C2297 1.417 1_655 S
N2305 C2303 1.350 1_655 S
H2306 C2312 0.930 . S
H2307 C2316 0.930 . S
H2308 C2321 0.929 . S
H2309 C2319 0.929 . S
H2310 C2314 0.929 . S
H2311 C2320 0.929 . S
C2312 H2306 0.930 . S
C2312 C2313 1.367 . S
C2312 C2320 1.378 . S
C2313 C2312 1.367 . S
C2313 C2321 1.433 . S
C2314 H2310 0.929 . S
C2314 C2316 1.378 . S
C2314 C2318 1.350 . S
C2315 C2318 1.463 . S
C2315 C2320 1.350 . S
C2315 N2323 1.427 . S
C2316 H2307 0.930 . S
C2316 C2314 1.378 . S
C2316 C2317 1.367 . S
C2317 C2316 1.367 . S
C2317 C2319 1.433 . S
C2318 C2314 1.350 . S
C2318 C2315 1.463 . S
C2318 N2322 1.427 . S
C2319 H2309 0.929 . S
C2319 C2317 1.433 . S
C2319 N2322 1.384 . S
C2320 H2311 0.929 . S
C2320 C2312 1.378 . S
C2320 C2315 1.350 . S
C2321 H2308 0.929 . S
C2321 C2313 1.433 . S
C2321 N2323 1.384 . S
N2322 C2318 1.427 . S
N2322 C2319 1.384 . S
N2323 C2315 1.427 . S
N2323 C2321 1.384 . S
H2324 C2330 0.930 . S
H2325 C2334 0.930 . S
H2326 C2339 0.929 . S
H2327 C2337 0.929 . S
H2328 C2332 0.929 . S
H2329 C2338 0.929 . S
C2330 H2324 0.930 . S
C2330 C2331 1.367 . S
C2330 C2338 1.378 . S
C2331 C2330 1.367 . S
C2331 C2339 1.433 . S
C2332 H2328 0.929 . S
C2332 C2334 1.378 . S
C2332 C2336 1.350 . S
C2333 C2336 1.463 . S
C2333 C2338 1.350 . S
C2333 N2341 1.427 . S
C2334 H2325 0.930 . S
C2334 C2332 1.378 . S
C2334 C2335 1.367 . S
C2335 C2334 1.367 . S
C2335 C2337 1.433 . S
C2336 C2332 1.350 . S
C2336 C2333 1.463 . S
C2336 N2340 1.427 . S
C2337 H2327 0.929 . S
C2337 C2335 1.433 . S
C2337 N2340 1.384 . S
C2338 H2329 0.929 . S
C2338 C2330 1.378 . S
C2338 C2333 1.350 . S
C2339 H2326 0.929 . S
C2339 C2331 1.433 . S
C2339 N2341 1.384 . S
N2340 C2336 1.427 . S
N2340 C2337 1.384 . S
N2341 C2333 1.427 . S
N2341 C2339 1.384 . S
H2342 C2348 0.930 . S
H2343 C2352 0.930 . S
H2344 C2357 0.929 . S
H2345 C2355 0.929 . S
H2346 C2350 0.929 . S
H2347 C2356 0.929 . S
C2348 H2342 0.930 . S
C2348 C2349 1.367 . S
C2348 C2356 1.378 . S
C2349 C2348 1.367 . S
C2349 C2357 1.433 . S
C2350 H2346 0.929 . S
C2350 C2352 1.378 . S
C2350 C2354 1.350 . S
C2351 C2354 1.463 . S
C2351 C2356 1.350 . S
C2351 N2359 1.427 . S
C2352 H2343 0.930 . S
C2352 C2350 1.378 . S
C2352 C2353 1.367 . S
C2353 C2352 1.367 . S
C2353 C2355 1.433 . S
C2354 C2350 1.350 . S
C2354 C2351 1.463 . S
C2354 N2358 1.427 . S
C2355 H2345 0.929 . S
C2355 C2353 1.433 . S
C2355 N2358 1.384 . S
C2356 H2347 0.929 . S
C2356 C2348 1.378 . S
C2356 C2351 1.350 . S
C2357 H2344 0.929 . S
C2357 C2349 1.433 . S
C2357 N2359 1.384 . S
N2358 C2354 1.427 . S
N2358 C2355 1.384 . S
N2359 C2351 1.427 . S
N2359 C2357 1.384 . S
H2360 C2366 0.930 . S
H2361 C2370 0.930 . S
H2362 C2375 0.929 . S
H2363 C2373 0.929 . S
H2364 C2368 0.929 . S
H2365 C2374 0.929 . S
C2366 H2360 0.930 . S
C2366 C2367 1.367 . S
C2366 C2374 1.378 . S
C2367 C2366 1.367 . S
C2367 C2375 1.433 1_455 S
C2368 H2364 0.929 . S
C2368 C2370 1.378 . S
C2368 C2372 1.350 . S
C2369 C2372 1.463 . S
C2369 C2374 1.350 1_655 S
C2369 N2377 1.427 . S
C2370 H2361 0.930 . S
C2370 C2368 1.378 . S
C2370 C2371 1.367 . S
C2371 C2370 1.367 . S
C2371 C2373 1.433 . S
C2372 C2368 1.350 . S
C2372 C2369 1.463 . S
C2372 N2376 1.427 . S
C2373 H2363 0.929 . S
C2373 C2371 1.433 . S
C2373 N2376 1.384 . S
C2374 H2365 0.929 . S
C2374 C2366 1.378 . S
C2374 C2369 1.350 1_455 S
C2375 H2362 0.929 . S
C2375 C2367 1.433 1_655 S
C2375 N2377 1.384 . S
N2376 C2372 1.427 . S
N2376 C2373 1.384 . S
N2377 C2369 1.427 . S
N2377 C2375 1.384 . S
H2378 C2384 0.930 . S
H2379 C2388 0.930 . S
H2380 C2393 0.929 . S
H2381 C2391 0.929 . S
H2382 C2386 0.929 . S
H2383 C2392 0.929 . S
C2384 H2378 0.930 . S
C2384 C2385 1.367 . S
C2384 C2392 1.378 . S
C2385 C2384 1.367 . S
C2385 C2393 1.433 . S
C2386 H2382 0.929 . S
C2386 C2388 1.378 . S
C2386 C2390 1.350 . S
C2387 C2390 1.463 . S
C2387 C2392 1.350 . S
C2387 N2395 1.427 . S
C2388 H2379 0.930 . S
C2388 C2386 1.378 . S
C2388 C2389 1.367 . S
C2389 C2388 1.367 . S
C2389 C2391 1.433 . S
C2390 C2386 1.350 . S
C2390 C2387 1.463 . S
C2390 N2394 1.427 . S
C2391 H2381 0.929 . S
C2391 C2389 1.433 . S
C2391 N2394 1.384 . S
C2392 H2383 0.929 . S
C2392 C2384 1.378 . S
C2392 C2387 1.350 . S
C2393 H2380 0.929 . S
C2393 C2385 1.433 . S
C2393 N2395 1.384 . S
N2394 C2390 1.427 . S
N2394 C2391 1.384 . S
N2395 C2387 1.427 . S
N2395 C2393 1.384 . S
H2396 C2402 0.930 . S
H2397 C2406 0.930 . S
H2398 C2411 0.929 1_554 S
H2399 C2409 0.929 . S
H2400 C2404 0.929 . S
H2401 C2410 0.929 . S
C2402 H2396 0.930 . S
C2402 C2403 1.367 . S
C2402 C2410 1.378 1_554 S
C2403 C2402 1.367 . S
C2403 C2411 1.433 1_554 S
C2404 H2400 0.929 . S
C2404 C2406 1.378 . S
C2404 C2408 1.350 . S
C2405 C2408 1.463 . S
C2405 C2410 1.350 . S
C2405 N2413 1.427 . S
C2406 H2397 0.930 . S
C2406 C2404 1.378 . S
C2406 C2407 1.367 . S
C2407 C2406 1.367 . S
C2407 C2409 1.433 . S
C2408 C2404 1.350 . S
C2408 C2405 1.463 . S
C2408 N2412 1.427 . S
C2409 H2399 0.929 . S
C2409 C2407 1.433 . S
C2409 N2412 1.384 . S
C2410 H2401 0.929 . S
C2410 C2402 1.378 1_556 S
C2410 C2405 1.350 . S
C2411 H2398 0.929 1_556 S
C2411 C2403 1.433 1_556 S
C2411 N2413 1.384 . S
N2412 C2408 1.427 . S
N2412 C2409 1.384 . S
N2413 C2405 1.427 . S
N2413 C2411 1.384 . S
H2414 C2420 0.930 . S
H2415 C2424 0.930 . S
H2416 C2429 0.929 . S
H2417 C2427 0.929 . S
H2418 C2422 0.929 . S
H2419 C2428 0.929 . S
C2420 H2414 0.930 . S
C2420 C2421 1.367 . S
C2420 C2428 1.378 . S
C2421 C2420 1.367 . S
C2421 C2429 1.433 . S
C2422 H2418 0.929 . S
C2422 C2424 1.378 . S
C2422 C2426 1.350 . S
C2423 C2426 1.463 . S
C2423 C2428 1.350 . S
C2423 N2431 1.427 . S
C2424 H2415 0.930 . S
C2424 C2422 1.378 . S
C2424 C2425 1.367 . S
C2425 C2424 1.367 . S
C2425 C2427 1.433 . S
C2426 C2422 1.350 . S
C2426 C2423 1.463 . S
C2426 N2430 1.427 . S
C2427 H2417 0.929 . S
C2427 C2425 1.433 . S
C2427 N2430 1.384 . S
C2428 H2419 0.929 . S
C2428 C2420 1.378 . S
C2428 C2423 1.350 . S
C2429 H2416 0.929 . S
C2429 C2421 1.433 . S
C2429 N2431 1.384 . S
N2430 C2426 1.427 . S
N2430 C2427 1.384 . S
N2431 C2423 1.427 . S
N2431 C2429 1.384 . S
H2432 C2438 0.930 . S
H2433 C2442 0.930 . S
H2434 C2447 0.929 . S
H2435 C2445 0.929 . S
H2436 C2440 0.929 . S
H2437 C2446 0.929 . S
C2438 H2432 0.930 . S
C2438 C2439 1.367 . S
C2438 C2446 1.378 . S
C2439 C2438 1.367 . S
C2439 C2447 1.433 . S
C2440 H2436 0.929 . S
C2440 C2442 1.378 . S
C2440 C2444 1.350 . S
C2441 C2444 1.463 . S
C2441 C2446 1.350 . S
C2441 N2449 1.427 . S
C2442 H2433 0.930 . S
C2442 C2440 1.378 . S
C2442 C2443 1.367 . S
C2443 C2442 1.367 . S
C2443 C2445 1.433 . S
C2444 C2440 1.350 . S
C2444 C2441 1.463 . S
C2444 N2448 1.427 . S
C2445 H2435 0.929 . S
C2445 C2443 1.433 . S
C2445 N2448 1.384 . S
C2446 H2437 0.929 . S
C2446 C2438 1.378 . S
C2446 C2441 1.350 . S
C2447 H2434 0.929 . S
C2447 C2439 1.433 . S
C2447 N2449 1.384 . S
N2448 C2444 1.427 . S
N2448 C2445 1.384 . S
N2449 C2441 1.427 . S
N2449 C2447 1.384 . S
H2450 C2456 0.930 . S
H2451 C2460 0.930 . S
H2452 C2465 0.929 . S
H2453 C2463 0.929 . S
H2454 C2458 0.929 . S
H2455 C2464 0.929 . S
C2456 H2450 0.930 . S
C2456 C2457 1.367 . S
C2456 C2464 1.378 . S
C2457 C2456 1.367 . S
C2457 C2465 1.433 . S
C2458 H2454 0.929 . S
C2458 C2460 1.378 . S
C2458 C2462 1.350 . S
C2459 C2462 1.463 . S
C2459 C2464 1.350 . S
C2459 N2467 1.427 . S
C2460 H2451 0.930 . S
C2460 C2458 1.378 . S
C2460 C2461 1.367 . S
C2461 C2460 1.367 . S
C2461 C2463 1.433 . S
C2462 C2458 1.350 . S
C2462 C2459 1.463 . S
C2462 N2466 1.427 . S
C2463 H2453 0.929 . S
C2463 C2461 1.433 . S
C2463 N2466 1.384 . S
C2464 H2455 0.929 . S
C2464 C2456 1.378 . S
C2464 C2459 1.350 . S
C2465 H2452 0.929 . S
C2465 C2457 1.433 . S
C2465 N2467 1.384 . S
N2466 C2462 1.427 . S
N2466 C2463 1.384 . S
N2467 C2459 1.427 . S
N2467 C2465 1.384 . S
H2468 C2474 0.932 . S
H2469 C2478 0.930 . S
H2470 C2483 0.929 1_455 S
H2471 C2481 0.929 . S
H2472 C2476 0.929 . S
H2473 C2482 0.929 . S
C2474 H2468 0.932 . S
C2474 C2475 1.367 1_556 S
C2474 C2482 1.378 . S
C2475 C2474 1.367 1_554 S
C2475 C2483 1.433 . S
C2476 H2472 0.929 . S
C2476 C2478 1.378 . S
C2476 C2480 1.350 . S
C2477 C2480 1.463 1_655 S
C2477 C2482 1.350 . S
C2477 N2485 1.427 1_655 S
C2478 H2469 0.930 . S
C2478 C2476 1.378 . S
C2478 C2479 1.367 . S
C2479 C2478 1.367 . S
C2479 C2481 1.433 . S
C2480 C2476 1.350 . S
C2480 C2477 1.463 1_455 S
C2480 N2484 1.438 . S
C2481 H2471 0.929 . S
C2481 C2479 1.433 . S
C2481 N2484 1.393 . S
C2482 H2473 0.929 . S
C2482 C2474 1.378 . S
C2482 C2477 1.350 . S
C2483 H2470 0.929 1_655 S
C2483 C2475 1.433 . S
C2483 N2485 1.384 1_654 S
N2484 C2480 1.438 . S
N2484 C2481 1.393 . S
N2485 C2477 1.427 1_455 S
N2485 C2483 1.384 1_456 S
H2486 C2492 0.930 . S
H2487 C2496 0.930 . S
H2488 C2501 0.929 . S
H2489 C2499 0.929 . S
H2490 C2494 0.929 . S
H2491 C2500 0.929 . S
C2492 H2486 0.930 . S
C2492 C2493 1.367 1_554 S
C2492 C2500 1.378 . S
C2493 C2492 1.367 1_556 S
C2493 C2501 1.433 . S
C2494 H2490 0.929 . S
C2494 C2496 1.378 . S
C2494 C2498 1.350 . S
C2495 C2498 1.463 . S
C2495 C2500 1.350 . S
C2495 N2503 1.427 . S
C2496 H2487 0.930 . S
C2496 C2494 1.378 . S
C2496 C2497 1.367 . S
C2497 C2496 1.367 . S
C2497 C2499 1.433 . S
C2498 C2494 1.350 . S
C2498 C2495 1.463 . S
C2498 N2502 1.427 . S
C2499 H2489 0.929 . S
C2499 C2497 1.433 . S
C2499 N2502 1.384 . S
C2500 H2491 0.929 . S
C2500 C2492 1.378 . S
C2500 C2495 1.350 . S
C2501 H2488 0.929 . S
C2501 C2493 1.433 . S
C2501 N2503 1.384 1_556 S
N2502 C2498 1.427 . S
N2502 C2499 1.384 . S
N2503 C2495 1.427 . S
N2503 C2501 1.384 1_554 S
H2504 C2510 0.930 . S
H2505 C2514 0.930 . S
H2506 C2519 0.929 . S
H2507 C2517 0.929 . S
H2508 C2512 0.929 . S
H2509 C2518 0.929 . S
C2510 H2504 0.930 . S
C2510 C2511 1.367 . S
C2510 C2518 1.378 . S
C2511 C2510 1.367 . S
C2511 C2519 1.433 . S
C2512 H2508 0.929 . S
C2512 C2514 1.378 . S
C2512 C2516 1.350 . S
C2513 C2516 1.463 . S
C2513 C2518 1.350 . S
C2513 N2521 1.427 . S
C2514 H2505 0.930 . S
C2514 C2512 1.378 . S
C2514 C2515 1.367 . S
C2515 C2514 1.367 . S
C2515 C2517 1.433 . S
C2516 C2512 1.350 . S
C2516 C2513 1.463 . S
C2516 N2520 1.427 . S
C2517 H2507 0.929 . S
C2517 C2515 1.433 . S
C2517 N2520 1.384 . S
C2518 H2509 0.929 . S
C2518 C2510 1.378 . S
C2518 C2513 1.350 . S
C2519 H2506 0.929 . S
C2519 C2511 1.433 . S
C2519 N2521 1.384 . S
N2520 C2516 1.427 . S
N2520 C2517 1.384 . S
N2521 C2513 1.427 . S
N2521 C2519 1.384 . S
H2522 C2528 0.930 . S
H2523 C2532 0.930 . S
H2524 C2537 0.929 . S
H2525 C2535 0.929 . S
H2526 C2530 0.929 . S
H2527 C2536 0.929 . S
C2528 H2522 0.930 . S
C2528 C2529 1.367 . S
C2528 C2536 1.378 . S
C2529 C2528 1.367 . S
C2529 C2537 1.433 . S
C2530 H2526 0.929 . S
C2530 C2532 1.378 . S
C2530 C2534 1.350 . S
C2531 C2534 1.463 . S
C2531 C2536 1.350 . S
C2531 N2539 1.427 . S
C2532 H2523 0.930 . S
C2532 C2530 1.378 . S
C2532 C2533 1.367 . S
C2533 C2532 1.367 . S
C2533 C2535 1.433 . S
C2534 C2530 1.350 . S
C2534 C2531 1.463 . S
C2534 N2538 1.427 . S
C2535 H2525 0.929 . S
C2535 C2533 1.433 . S
C2535 N2538 1.384 . S
C2536 H2527 0.929 . S
C2536 C2528 1.378 . S
C2536 C2531 1.350 . S
C2537 H2524 0.929 . S
C2537 C2529 1.433 . S
C2537 N2539 1.384 . S
N2538 C2534 1.427 . S
N2538 C2535 1.384 . S
N2539 C2531 1.427 . S
N2539 C2537 1.384 . S
H2540 C2546 0.930 . S
H2541 C2550 0.930 . S
H2542 C2555 0.929 . S
H2543 C2553 0.929 . S
H2544 C2548 0.929 . S
H2545 C2554 0.929 . S
C2546 H2540 0.930 . S
C2546 C2547 1.367 1_655 S
C2546 C2554 1.378 . S
C2547 C2546 1.367 1_455 S
C2547 C2555 1.433 . S
C2548 H2544 0.929 . S
C2548 C2550 1.378 . S
C2548 C2552 1.350 . S
C2549 C2552 1.463 . S
C2549 C2554 1.350 . S
C2549 N2557 1.427 1_655 S
C2550 H2541 0.930 . S
C2550 C2548 1.378 . S
C2550 C2551 1.367 . S
C2551 C2550 1.367 . S
C2551 C2553 1.433 . S
C2552 C2548 1.350 . S
C2552 C2549 1.463 . S
C2552 N2556 1.427 . S
C2553 H2543 0.929 . S
C2553 C2551 1.433 . S
C2553 N2556 1.384 . S
C2554 H2545 0.929 . S
C2554 C2546 1.378 . S
C2554 C2549 1.350 . S
C2555 H2542 0.929 . S
C2555 C2547 1.433 . S
C2555 N2557 1.384 . S
N2556 C2552 1.427 . S
N2556 C2553 1.384 . S
N2557 C2549 1.427 1_455 S
N2557 C2555 1.384 . S
H2558 C2564 0.930 . S
H2559 C2568 0.930 . S
H2560 C2573 0.929 . S
H2561 C2571 0.929 . S
H2562 C2566 0.929 . S
H2563 C2572 0.929 . S
C2564 H2558 0.930 . S
C2564 C2565 1.367 . S
C2564 C2572 1.378 . S
C2565 C2564 1.367 . S
C2565 C2573 1.433 . S
C2566 H2562 0.929 . S
C2566 C2568 1.378 . S
C2566 C2570 1.350 . S
C2567 C2570 1.463 . S
C2567 C2572 1.350 . S
C2567 N2575 1.427 . S
C2568 H2559 0.930 . S
C2568 C2566 1.378 . S
C2568 C2569 1.367 . S
C2569 C2568 1.367 . S
C2569 C2571 1.433 . S
C2570 C2566 1.350 . S
C2570 C2567 1.463 . S
C2570 N2574 1.427 . S
C2571 H2561 0.929 . S
C2571 C2569 1.433 . S
C2571 N2574 1.384 . S
C2572 H2563 0.929 . S
C2572 C2564 1.378 . S
C2572 C2567 1.350 . S
C2573 H2560 0.929 . S
C2573 C2565 1.433 . S
C2573 N2575 1.384 . S
N2574 C2570 1.427 . S
N2574 C2571 1.384 . S
N2575 C2567 1.427 . S
N2575 C2573 1.384 . S
H2576 C2582 0.930 . S
H2577 C2586 0.930 . S
H2578 C2591 0.929 . S
H2579 C2589 0.929 . S
H2580 C2584 0.929 . S
H2581 C2590 0.929 . S
C2582 H2576 0.930 . S
C2582 C2583 1.367 . S
C2582 C2590 1.378 . S
C2583 C2582 1.367 . S
C2583 C2591 1.433 . S
C2584 H2580 0.929 . S
C2584 C2586 1.378 . S
C2584 C2588 1.350 . S
C2585 C2588 1.463 . S
C2585 C2590 1.350 . S
C2585 N2593 1.427 . S
C2586 H2577 0.930 . S
C2586 C2584 1.378 . S
C2586 C2587 1.367 . S
C2587 C2586 1.367 . S
C2587 C2589 1.433 . S
C2588 C2584 1.350 . S
C2588 C2585 1.463 . S
C2588 N2592 1.427 . S
C2589 H2579 0.929 . S
C2589 C2587 1.433 . S
C2589 N2592 1.384 . S
C2590 H2581 0.929 . S
C2590 C2582 1.378 . S
C2590 C2585 1.350 . S
C2591 H2578 0.929 . S
C2591 C2583 1.433 . S
C2591 N2593 1.384 . S
N2592 C2588 1.427 . S
N2592 C2589 1.384 . S
N2593 C2585 1.427 . S
N2593 C2591 1.384 . S
H2594 C2600 0.930 . S
H2595 C2604 0.930 . S
H2596 C2609 0.929 . S
H2597 C2607 0.929 . S
H2598 C2602 0.929 . S
H2599 C2608 0.929 . S
C2600 H2594 0.930 . S
C2600 C2601 1.367 . S
C2600 C2608 1.378 . S
C2601 C2600 1.367 . S
C2601 C2609 1.433 . S
C2602 H2598 0.929 . S
C2602 C2604 1.378 . S
C2602 C2606 1.350 . S
C2603 C2606 1.463 . S
C2603 C2608 1.350 . S
C2603 N2611 1.427 . S
C2604 H2595 0.930 . S
C2604 C2602 1.378 . S
C2604 C2605 1.367 . S
C2605 C2604 1.367 . S
C2605 C2607 1.433 . S
C2606 C2602 1.350 . S
C2606 C2603 1.463 . S
C2606 N2610 1.427 . S
C2607 H2597 0.929 . S
C2607 C2605 1.433 . S
C2607 N2610 1.384 . S
C2608 H2599 0.929 . S
C2608 C2600 1.378 . S
C2608 C2603 1.350 . S
C2609 H2596 0.929 . S
C2609 C2601 1.433 . S
C2609 N2611 1.384 . S
N2610 C2606 1.427 . S
N2610 C2607 1.384 . S
N2611 C2603 1.427 . S
N2611 C2609 1.384 . S
H2612 C2618 0.930 . S
H2613 C2622 0.930 . S
H2614 C2627 0.929 . S
H2615 C2625 0.929 . S
H2616 C2620 0.929 1_455 S
H2617 C2626 0.934 . S
C2618 H2612 0.930 . S
C2618 C2619 1.367 . S
C2618 C2626 1.374 1_455 S
C2619 C2618 1.367 . S
C2619 C2627 1.433 . S
C2620 H2616 0.929 1_655 S
C2620 C2622 1.378 . S
C2620 C2624 1.350 . S
C2621 C2624 1.463 1_455 S
C2621 C2626 1.349 1_455 S
C2621 N2629 1.427 . S
C2622 H2613 0.930 . S
C2622 C2620 1.378 . S
C2622 C2623 1.367 . S
C2623 C2622 1.367 . S
C2623 C2625 1.433 . S
C2624 C2620 1.350 . S
C2624 C2621 1.463 1_655 S
C2624 N2628 1.427 . S
C2625 H2615 0.929 . S
C2625 C2623 1.433 . S
C2625 N2628 1.384 . S
C2626 H2617 0.934 . S
C2626 C2618 1.374 1_655 S
C2626 C2621 1.349 1_655 S
C2627 H2614 0.929 . S
C2627 C2619 1.433 . S
C2627 N2629 1.384 . S
N2628 C2624 1.427 . S
N2628 C2625 1.384 . S
N2629 C2621 1.427 . S
N2629 C2627 1.384 . S
H2630 C2636 0.930 . S
H2631 C2640 0.930 . S
H2632 C2645 0.929 . S
H2633 C2643 0.929 . S
H2634 C2638 0.929 . S
H2635 C2644 0.929 . S
C2636 H2630 0.930 . S
C2636 C2637 1.367 . S
C2636 C2644 1.378 . S
C2637 C2636 1.367 . S
C2637 C2645 1.433 . S
C2638 H2634 0.929 . S
C2638 C2640 1.378 . S
C2638 C2642 1.350 . S
C2639 C2642 1.463 . S
C2639 C2644 1.350 . S
C2639 N2647 1.427 . S
C2640 H2631 0.930 . S
C2640 C2638 1.378 . S
C2640 C2641 1.367 . S
C2641 C2640 1.367 . S
C2641 C2643 1.433 . S
C2642 C2638 1.350 . S
C2642 C2639 1.463 . S
C2642 N2646 1.427 . S
C2643 H2633 0.929 . S
C2643 C2641 1.433 . S
C2643 N2646 1.384 . S
C2644 H2635 0.929 . S
C2644 C2636 1.378 . S
C2644 C2639 1.350 . S
C2645 H2632 0.929 . S
C2645 C2637 1.433 . S
C2645 N2647 1.384 . S
N2646 C2642 1.427 . S
N2646 C2643 1.384 . S
N2647 C2639 1.427 . S
N2647 C2645 1.384 . S
H2648 C2654 0.930 . S
H2649 C2658 0.930 . S
H2650 C2663 0.929 . S
H2651 C2661 0.929 . S
H2652 C2656 0.929 . S
H2653 C2662 0.929 . S
C2654 H2648 0.930 . S
C2654 C2655 1.367 . S
C2654 C2662 1.378 . S
C2655 C2654 1.367 . S
C2655 C2663 1.433 . S
C2656 H2652 0.929 . S
C2656 C2658 1.378 . S
C2656 C2660 1.350 . S
C2657 C2660 1.463 . S
C2657 C2662 1.350 . S
C2657 N2665 1.427 . S
C2658 H2649 0.930 . S
C2658 C2656 1.378 . S
C2658 C2659 1.367 1_556 S
C2659 C2658 1.367 1_554 S
C2659 C2661 1.433 . S
C2660 C2656 1.350 . S
C2660 C2657 1.463 . S
C2660 N2664 1.427 . S
C2661 H2651 0.929 . S
C2661 C2659 1.433 . S
C2661 N2664 1.384 1_554 S
C2662 H2653 0.929 . S
C2662 C2654 1.378 . S
C2662 C2657 1.350 . S
C2663 H2650 0.929 . S
C2663 C2655 1.433 . S
C2663 N2665 1.384 . S
N2664 C2660 1.427 . S
N2664 C2661 1.384 1_556 S
N2665 C2657 1.427 . S
N2665 C2663 1.384 . S
H2666 C2672 0.930 . S
H2667 C2676 0.930 . S
H2668 C2681 0.929 . S
H2669 C2679 0.929 . S
H2670 C2674 0.929 . S
H2671 C2680 0.929 . S
C2672 H2666 0.930 . S
C2672 C2673 1.367 . S
C2672 C2680 1.378 . S
C2673 C2672 1.367 . S
C2673 C2681 1.433 . S
C2674 H2670 0.929 . S
C2674 C2676 1.378 . S
C2674 C2678 1.350 . S
C2675 C2678 1.463 . S
C2675 C2680 1.350 . S
C2675 N2683 1.427 . S
C2676 H2667 0.930 . S
C2676 C2674 1.378 . S
C2676 C2677 1.367 . S
C2677 C2676 1.367 . S
C2677 C2679 1.433 . S
C2678 C2674 1.350 . S
C2678 C2675 1.463 . S
C2678 N2682 1.427 . S
C2679 H2669 0.929 . S
C2679 C2677 1.433 . S
C2679 N2682 1.384 . S
C2680 H2671 0.929 . S
C2680 C2672 1.378 . S
C2680 C2675 1.350 . S
C2681 H2668 0.929 . S
C2681 C2673 1.433 . S
C2681 N2683 1.384 . S
N2682 C2678 1.427 . S
N2682 C2679 1.384 . S
N2683 C2675 1.427 . S
N2683 C2681 1.384 . S
H2684 C2690 0.930 . S
H2685 C2694 0.930 . S
H2686 C2699 0.929 . S
H2687 C2697 0.929 . S
H2688 C2692 0.929 . S
H2689 C2698 0.929 . S
C2690 H2684 0.930 . S
C2690 C2691 1.367 . S
C2690 C2698 1.378 . S
C2691 C2690 1.367 . S
C2691 C2699 1.433 . S
C2692 H2688 0.929 . S
C2692 C2694 1.378 . S
C2692 C2696 1.350 1_655 S
C2693 C2696 1.463 . S
C2693 C2698 1.350 . S
C2693 N2701 1.427 . S
C2694 H2685 0.930 . S
C2694 C2692 1.378 . S
C2694 C2695 1.367 . S
C2695 C2694 1.367 . S
C2695 C2697 1.433 1_655 S
C2696 C2692 1.350 1_455 S
C2696 C2693 1.463 . S
C2696 N2700 1.427 . S
C2697 H2687 0.929 . S
C2697 C2695 1.433 1_455 S
C2697 N2700 1.384 . S
C2698 H2689 0.929 . S
C2698 C2690 1.378 . S
C2698 C2693 1.350 . S
C2699 H2686 0.929 . S
C2699 C2691 1.433 . S
C2699 N2701 1.384 . S
N2700 C2696 1.427 . S
N2700 C2697 1.384 . S
N2701 C2693 1.427 . S
N2701 C2699 1.384 . S
H2702 C2708 0.930 . S
H2703 C2712 0.930 . S
H2704 C2717 0.929 . S
H2705 C2715 0.929 . S
H2706 C2710 0.929 . S
H2707 C2716 0.929 . S
C2708 H2702 0.930 . S
C2708 C2709 1.367 . S
C2708 C2716 1.378 1_556 S
C2709 C2708 1.367 . S
C2709 C2717 1.433 1_556 S
C2710 H2706 0.929 . S
C2710 C2712 1.378 . S
C2710 C2714 1.350 . S
C2711 C2714 1.463 . S
C2711 C2716 1.350 . S
C2711 N2719 1.427 . S
C2712 H2703 0.930 . S
C2712 C2710 1.378 . S
C2712 C2713 1.367 . S
C2713 C2712 1.367 . S
C2713 C2715 1.433 . S
C2714 C2710 1.350 . S
C2714 C2711 1.463 . S
C2714 N2718 1.427 . S
C2715 H2705 0.929 . S
C2715 C2713 1.433 . S
C2715 N2718 1.384 . S
C2716 H2707 0.929 . S
C2716 C2708 1.378 1_554 S
C2716 C2711 1.350 . S
C2717 H2704 0.929 . S
C2717 C2709 1.433 1_554 S
C2717 N2719 1.384 . S
N2718 C2714 1.427 . S
N2718 C2715 1.384 . S
N2719 C2711 1.427 . S
N2719 C2717 1.384 . S
H2720 C2726 0.930 . S
H2721 C2730 0.930 . S
H2722 C2735 0.929 . S
H2723 C2733 0.929 . S
H2724 C2728 0.929 . S
H2725 C2734 0.929 . S
C2726 H2720 0.930 . S
C2726 C2727 1.367 . S
C2726 C2734 1.378 . S
C2727 C2726 1.367 . S
C2727 C2735 1.433 . S
C2728 H2724 0.929 . S
C2728 C2730 1.378 . S
C2728 C2732 1.350 . S
C2729 C2732 1.463 . S
C2729 C2734 1.350 . S
C2729 N2737 1.427 . S
C2730 H2721 0.930 . S
C2730 C2728 1.378 . S
C2730 C2731 1.367 . S
C2731 C2730 1.367 . S
C2731 C2733 1.433 . S
C2732 C2728 1.350 . S
C2732 C2729 1.463 . S
C2732 N2736 1.427 . S
C2733 H2723 0.929 . S
C2733 C2731 1.433 . S
C2733 N2736 1.384 . S
C2734 H2725 0.929 . S
C2734 C2726 1.378 . S
C2734 C2729 1.350 . S
C2735 H2722 0.929 . S
C2735 C2727 1.433 . S
C2735 N2737 1.384 . S
N2736 C2732 1.427 . S
N2736 C2733 1.384 . S
N2737 C2729 1.427 . S
N2737 C2735 1.384 . S
H2738 C2744 0.930 . S
H2739 C2748 0.930 . S
H2740 C2753 0.929 . S
H2741 C2751 0.929 . S
H2742 C2746 0.929 . S
H2743 C2752 0.929 . S
C2744 H2738 0.930 . S
C2744 C2745 1.367 . S
C2744 C2752 1.378 . S
C2745 C2744 1.367 . S
C2745 C2753 1.433 . S
C2746 H2742 0.929 . S
C2746 C2748 1.378 . S
C2746 C2750 1.350 . S
C2747 C2750 1.463 . S
C2747 C2752 1.350 1_554 S
C2747 N2755 1.427 . S
C2748 H2739 0.930 . S
C2748 C2746 1.378 . S
C2748 C2749 1.367 . S
C2749 C2748 1.367 . S
C2749 C2751 1.433 . S
C2750 C2746 1.350 . S
C2750 C2747 1.463 . S
C2750 N2754 1.427 . S
C2751 H2741 0.929 . S
C2751 C2749 1.433 . S
C2751 N2754 1.384 . S
C2752 H2743 0.929 . S
C2752 C2744 1.378 . S
C2752 C2747 1.350 1_556 S
C2753 H2740 0.929 . S
C2753 C2745 1.433 . S
C2753 N2755 1.384 1_556 S
N2754 C2750 1.427 . S
N2754 C2751 1.384 . S
N2755 C2747 1.427 . S
N2755 C2753 1.384 1_554 S
H2756 C2762 0.930 . S
H2757 C2766 0.930 . S
H2758 C2771 0.929 . S
H2759 C2769 0.929 . S
H2760 C2764 0.929 . S
H2761 C2770 0.929 . S
C2762 H2756 0.930 . S
C2762 C2763 1.367 . S
C2762 C2770 1.378 . S
C2763 C2762 1.367 . S
C2763 C2771 1.433 . S
C2764 H2760 0.929 . S
C2764 C2766 1.378 . S
C2764 C2768 1.350 . S
C2765 C2768 1.463 . S
C2765 C2770 1.350 . S
C2765 N2773 1.427 . S
C2766 H2757 0.930 . S
C2766 C2764 1.378 . S
C2766 C2767 1.367 . S
C2767 C2766 1.367 . S
C2767 C2769 1.433 . S
C2768 C2764 1.350 . S
C2768 C2765 1.463 . S
C2768 N2772 1.427 . S
C2769 H2759 0.929 . S
C2769 C2767 1.433 . S
C2769 N2772 1.384 . S
C2770 H2761 0.929 . S
C2770 C2762 1.378 . S
C2770 C2765 1.350 . S
C2771 H2758 0.929 . S
C2771 C2763 1.433 . S
C2771 N2773 1.384 . S
N2772 C2768 1.427 . S
N2772 C2769 1.384 . S
N2773 C2765 1.427 . S
N2773 C2771 1.384 . S
H2774 C2780 0.930 . S
H2775 C2784 0.930 . S
H2776 C2789 0.929 . S
H2777 C2787 0.929 . S
H2778 C2782 0.929 . S
H2779 C2788 0.929 . S
C2780 H2774 0.930 . S
C2780 C2781 1.367 . S
C2780 C2788 1.378 . S
C2781 C2780 1.367 . S
C2781 C2789 1.433 . S
C2782 H2778 0.929 . S
C2782 C2784 1.378 . S
C2782 C2786 1.350 . S
C2783 C2786 1.463 . S
C2783 C2788 1.350 . S
C2783 N2791 1.427 . S
C2784 H2775 0.930 . S
C2784 C2782 1.378 . S
C2784 C2785 1.367 . S
C2785 C2784 1.367 . S
C2785 C2787 1.433 . S
C2786 C2782 1.350 . S
C2786 C2783 1.463 . S
C2786 N2790 1.427 . S
C2787 H2777 0.929 . S
C2787 C2785 1.433 . S
C2787 N2790 1.384 . S
C2788 H2779 0.929 . S
C2788 C2780 1.378 . S
C2788 C2783 1.350 . S
C2789 H2776 0.929 . S
C2789 C2781 1.433 . S
C2789 N2791 1.384 . S
N2790 C2786 1.427 . S
N2790 C2787 1.384 . S
N2791 C2783 1.427 . S
N2791 C2789 1.384 . S
H2792 C2798 0.930 . S
H2793 C2802 0.930 . S
H2794 C2807 0.929 . S
H2795 C2805 0.929 . S
H2796 C2800 0.929 . S
H2797 C2806 0.929 . S
C2798 H2792 0.930 . S
C2798 C2799 1.367 . S
C2798 C2806 1.378 . S
C2799 C2798 1.367 . S
C2799 C2807 1.433 . S
C2800 H2796 0.929 . S
C2800 C2802 1.378 . S
C2800 C2804 1.350 . S
C2801 C2804 1.463 . S
C2801 C2806 1.350 . S
C2801 N2809 1.427 . S
C2802 H2793 0.930 . S
C2802 C2800 1.378 . S
C2802 C2803 1.367 . S
C2803 C2802 1.367 . S
C2803 C2805 1.433 . S
C2804 C2800 1.350 . S
C2804 C2801 1.463 . S
C2804 N2808 1.427 . S
C2805 H2795 0.929 . S
C2805 C2803 1.433 . S
C2805 N2808 1.384 . S
C2806 H2797 0.929 . S
C2806 C2798 1.378 . S
C2806 C2801 1.350 . S
C2807 H2794 0.929 . S
C2807 C2799 1.433 . S
C2807 N2809 1.384 . S
N2808 C2804 1.427 . S
N2808 C2805 1.384 . S
N2809 C2801 1.427 . S
N2809 C2807 1.384 . S
H2810 C2816 0.930 . S
H2811 C2820 0.930 . S
H2812 C2825 0.929 . S
H2813 C2823 0.929 . S
H2814 C2818 0.929 . S
H2815 C2824 0.929 . S
C2816 H2810 0.930 . S
C2816 C2817 1.367 . S
C2816 C2824 1.378 . S
C2817 C2816 1.367 . S
C2817 C2825 1.433 . S
C2818 H2814 0.929 . S
C2818 C2820 1.378 . S
C2818 C2822 1.350 . S
C2819 C2822 1.463 . S
C2819 C2824 1.350 . S
C2819 N2827 1.427 . S
C2820 H2811 0.930 . S
C2820 C2818 1.378 . S
C2820 C2821 1.367 . S
C2821 C2820 1.367 . S
C2821 C2823 1.433 . S
C2822 C2818 1.350 . S
C2822 C2819 1.463 . S
C2822 N2826 1.427 . S
C2823 H2813 0.929 . S
C2823 C2821 1.433 . S
C2823 N2826 1.384 . S
C2824 H2815 0.929 . S
C2824 C2816 1.378 . S
C2824 C2819 1.350 . S
C2825 H2812 0.929 . S
C2825 C2817 1.433 . S
C2825 N2827 1.384 . S
N2826 C2822 1.427 . S
N2826 C2823 1.384 . S
N2827 C2819 1.427 . S
N2827 C2825 1.384 . S
H2828 C2834 0.930 . S
H2829 C2838 0.930 . S
H2830 C2843 0.929 . S
H2831 C2841 0.929 . S
H2832 C2836 0.929 . S
H2833 C2842 0.929 . S
C2834 H2828 0.930 . S
C2834 C2835 1.367 . S
C2834 C2842 1.378 1_556 S
C2835 C2834 1.367 . S
C2835 C2843 1.433 . S
C2836 H2832 0.929 . S
C2836 C2838 1.378 . S
C2836 C2840 1.350 . S
C2837 C2840 1.463 . S
C2837 C2842 1.350 . S
C2837 N2845 1.427 1_554 S
C2838 H2829 0.930 . S
C2838 C2836 1.378 . S
C2838 C2839 1.367 . S
C2839 C2838 1.367 . S
C2839 C2841 1.433 . S
C2840 C2836 1.350 . S
C2840 C2837 1.463 . S
C2840 N2844 1.427 . S
C2841 H2831 0.929 . S
C2841 C2839 1.433 . S
C2841 N2844 1.384 . S
C2842 H2833 0.929 . S
C2842 C2834 1.378 1_554 S
C2842 C2837 1.350 . S
C2843 H2830 0.929 . S
C2843 C2835 1.433 . S
C2843 N2845 1.384 . S
N2844 C2840 1.427 . S
N2844 C2841 1.384 . S
N2845 C2837 1.427 1_556 S
N2845 C2843 1.384 . S
H2846 C2852 0.930 . S
H2847 C2856 0.930 . S
H2848 C2861 0.929 . S
H2849 C2859 0.929 . S
H2850 C2854 0.929 . S
H2851 C2860 0.929 . S
C2852 H2846 0.930 . S
C2852 C2853 1.367 . S
C2852 C2860 1.378 . S
C2853 C2852 1.367 . S
C2853 C2861 1.433 . S
C2854 H2850 0.929 . S
C2854 C2856 1.378 . S
C2854 C2858 1.350 . S
C2855 C2858 1.463 . S
C2855 C2860 1.350 . S
C2855 N2863 1.427 . S
C2856 H2847 0.930 . S
C2856 C2854 1.378 . S
C2856 C2857 1.367 . S
C2857 C2856 1.367 . S
C2857 C2859 1.433 . S
C2858 C2854 1.350 . S
C2858 C2855 1.463 . S
C2858 N2862 1.427 . S
C2859 H2849 0.929 . S
C2859 C2857 1.433 . S
C2859 N2862 1.384 . S
C2860 H2851 0.929 . S
C2860 C2852 1.378 . S
C2860 C2855 1.350 . S
C2861 H2848 0.929 . S
C2861 C2853 1.433 . S
C2861 N2863 1.384 . S
N2862 C2858 1.427 . S
N2862 C2859 1.384 . S
N2863 C2855 1.427 . S
N2863 C2861 1.384 . S
H2864 C2870 0.945 . S
H2865 C2874 0.930 1_565 S
H2866 C2879 0.929 . S
H2867 C2877 0.929 . S
H2868 C2872 0.929 . S
H2869 C2878 0.929 . S
C2870 H2864 0.945 . S
C2870 C2871 1.367 . S
C2870 C2878 1.378 1_565 S
C2871 C2870 1.367 . S
C2871 C2879 1.433 . S
C2872 H2868 0.929 . S
C2872 C2874 1.378 1_565 S
C2872 C2876 1.350 1_565 S
C2873 C2876 1.463 1_565 S
C2873 C2878 1.350 1_565 S
C2873 N2881 1.427 . S
C2874 H2865 0.930 1_545 S
C2874 C2872 1.378 1_545 S
C2874 C2875 1.367 . S
C2875 C2874 1.367 . S
C2875 C2877 1.433 . S
C2876 C2872 1.350 1_545 S
C2876 C2873 1.463 1_545 S
C2876 N2880 1.427 . S
C2877 H2867 0.929 . S
C2877 C2875 1.433 . S
C2877 N2880 1.384 . S
C2878 H2869 0.929 . S
C2878 C2870 1.378 1_545 S
C2878 C2873 1.350 1_545 S
C2879 H2866 0.929 . S
C2879 C2871 1.433 . S
C2879 N2881 1.384 . S
N2880 C2876 1.427 . S
N2880 C2877 1.384 . S
N2881 C2873 1.427 . S
N2881 C2879 1.384 . S
H2882 C2888 0.930 . S
H2883 C2892 0.930 . S
H2884 C2897 0.929 . S
H2885 C2895 0.929 . S
H2886 C2890 0.929 . S
H2887 C2896 0.929 . S
C2888 H2882 0.930 . S
C2888 C2889 1.367 . S
C2888 C2896 1.378 . S
C2889 C2888 1.367 . S
C2889 C2897 1.433 . S
C2890 H2886 0.929 . S
C2890 C2892 1.378 . S
C2890 C2894 1.350 . S
C2891 C2894 1.463 . S
C2891 C2896 1.350 . S
C2891 N2899 1.427 . S
C2892 H2883 0.930 . S
C2892 C2890 1.378 . S
C2892 C2893 1.367 . S
C2893 C2892 1.367 . S
C2893 C2895 1.433 . S
C2894 C2890 1.350 . S
C2894 C2891 1.463 . S
C2894 N2898 1.427 . S
C2895 H2885 0.929 . S
C2895 C2893 1.433 . S
C2895 N2898 1.384 . S
C2896 H2887 0.929 . S
C2896 C2888 1.378 . S
C2896 C2891 1.350 . S
C2897 H2884 0.929 . S
C2897 C2889 1.433 . S
C2897 N2899 1.384 . S
N2898 C2894 1.427 . S
N2898 C2895 1.384 . S
N2899 C2891 1.427 . S
N2899 C2897 1.384 . S
H2900 C2906 0.930 . S
H2901 C2910 0.930 . S
H2902 C2915 0.929 . S
H2903 C2913 0.929 . S
H2904 C2908 0.929 . S
H2905 C2914 0.929 1_565 S
C2906 H2900 0.930 . S
C2906 C2907 1.367 . S
C2906 C2914 1.378 . S
C2907 C2906 1.367 . S
C2907 C2915 1.433 . S
C2908 H2904 0.929 . S
C2908 C2910 1.378 . S
C2908 C2912 1.350 . S
C2909 C2912 1.463 . S
C2909 C2914 1.350 . S
C2909 N2917 1.427 . S
C2910 H2901 0.930 . S
C2910 C2908 1.378 . S
C2910 C2911 1.367 1_545 S
C2911 C2910 1.367 1_565 S
C2911 C2913 1.433 . S
C2912 C2908 1.350 . S
C2912 C2909 1.463 . S
C2912 N2916 1.427 1_545 S
C2913 H2903 0.929 . S
C2913 C2911 1.433 . S
C2913 N2916 1.384 . S
C2914 H2905 0.929 1_545 S
C2914 C2906 1.378 . S
C2914 C2909 1.350 . S
C2915 H2902 0.929 . S
C2915 C2907 1.433 . S
C2915 N2917 1.384 . S
N2916 C2912 1.427 1_565 S
N2916 C2913 1.384 . S
N2917 C2909 1.427 . S
N2917 C2915 1.384 . S
H2918 C2924 0.930 . S
H2919 C2928 0.930 . S
H2920 C2933 0.929 . S
H2921 C2931 0.929 . S
H2922 C2926 0.929 . S
H2923 C2932 0.929 . S
C2924 H2918 0.930 . S
C2924 C2925 1.367 . S
C2924 C2932 1.378 . S
C2925 C2924 1.367 . S
C2925 C2933 1.433 . S
C2926 H2922 0.929 . S
C2926 C2928 1.378 . S
C2926 C2930 1.350 . S
C2927 C2930 1.463 . S
C2927 C2932 1.350 . S
C2927 N2935 1.427 . S
C2928 H2919 0.930 . S
C2928 C2926 1.378 . S
C2928 C2929 1.367 . S
C2929 C2928 1.367 . S
C2929 C2931 1.433 . S
C2930 C2926 1.350 . S
C2930 C2927 1.463 . S
C2930 N2934 1.427 . S
C2931 H2921 0.929 . S
C2931 C2929 1.433 . S
C2931 N2934 1.384 . S
C2932 H2923 0.929 . S
C2932 C2924 1.378 . S
C2932 C2927 1.350 . S
C2933 H2920 0.929 . S
C2933 C2925 1.433 . S
C2933 N2935 1.384 . S
N2934 C2930 1.427 . S
N2934 C2931 1.384 . S
N2935 C2927 1.427 . S
N2935 C2933 1.384 . S
H2936 C2942 0.930 1_545 S
H2937 C2946 0.934 . S
H2938 C2951 0.929 . S
H2939 C2949 0.929 1_556 S
H2940 C2944 0.929 . S
H2941 C2950 0.929 . S
C2942 H2936 0.930 1_565 S
C2942 C2943 1.367 . S
C2942 C2950 1.378 1_565 S
C2943 C2942 1.367 . S
C2943 C2951 1.433 . S
C2944 H2940 0.929 . S
C2944 C2946 1.378 1_564 S
C2944 C2948 1.350 1_565 S
C2945 C2948 1.463 1_565 S
C2945 C2950 1.350 1_565 S
C2945 N2953 1.427 . S
C2946 H2937 0.934 . S
C2946 C2944 1.378 1_546 S
C2946 C2947 1.367 . S
C2947 C2946 1.367 . S
C2947 C2949 1.433 1_556 S
C2948 C2944 1.350 1_545 S
C2948 C2945 1.463 1_545 S
C2948 N2952 1.427 . S
C2949 H2939 0.929 1_554 S
C2949 C2947 1.433 1_554 S
C2949 N2952 1.384 . S
C2950 H2941 0.929 . S
C2950 C2942 1.378 1_545 S
C2950 C2945 1.350 1_545 S
C2951 H2938 0.929 . S
C2951 C2943 1.433 . S
C2951 N2953 1.384 . S
N2952 C2948 1.427 . S
N2952 C2949 1.384 . S
N2953 C2945 1.427 . S
N2953 C2951 1.384 . S
H2954 C2960 0.930 . S
H2955 C2964 0.930 . S
H2956 C2969 0.929 . S
H2957 C2967 0.929 . S
H2958 C2962 0.929 . S
H2959 C2968 0.929 . S
C2960 H2954 0.930 . S
C2960 C2961 1.367 . S
C2960 C2968 1.378 . S
C2961 C2960 1.367 . S
C2961 C2969 1.433 . S
C2962 H2958 0.929 . S
C2962 C2964 1.378 . S
C2962 C2966 1.350 . S
C2963 C2966 1.463 . S
C2963 C2968 1.350 . S
C2963 N2971 1.427 . S
C2964 H2955 0.930 . S
C2964 C2962 1.378 . S
C2964 C2965 1.367 . S
C2965 C2964 1.367 . S
C2965 C2967 1.433 . S
C2966 C2962 1.350 . S
C2966 C2963 1.463 . S
C2966 N2970 1.427 . S
C2967 H2957 0.929 . S
C2967 C2965 1.433 . S
C2967 N2970 1.384 . S
C2968 H2959 0.929 . S
C2968 C2960 1.378 . S
C2968 C2963 1.350 . S
C2969 H2956 0.929 . S
C2969 C2961 1.433 . S
C2969 N2971 1.384 . S
N2970 C2966 1.427 . S
N2970 C2967 1.384 . S
N2971 C2963 1.427 . S
N2971 C2969 1.384 . S
H2972 C2978 0.930 . S
H2973 C2982 0.930 . S
H2974 C2987 0.929 . S
H2975 C2985 0.926 1_565 S
H2976 C2980 0.929 . S
H2977 C2986 0.929 . S
C2978 H2972 0.930 . S
C2978 C2979 1.367 . S
C2978 C2986 1.378 . S
C2979 C2978 1.367 . S
C2979 C2987 1.433 . S
C2980 H2976 0.929 . S
C2980 C2982 1.378 . S
C2980 C2984 1.350 1_545 S
C2981 C2984 1.463 . S
C2981 C2986 1.350 . S
C2981 N2989 1.427 . S
C2982 H2973 0.930 . S
C2982 C2980 1.378 . S
C2982 C2983 1.367 . S
C2983 C2982 1.367 . S
C2983 C2985 1.433 . S
C2984 C2980 1.350 1_565 S
C2984 C2981 1.463 . S
C2984 N2988 1.427 . S
C2985 H2975 0.926 1_545 S
C2985 C2983 1.433 . S
C2985 N2988 1.384 1_545 S
C2986 H2977 0.929 . S
C2986 C2978 1.378 . S
C2986 C2981 1.350 . S
C2987 H2974 0.929 . S
C2987 C2979 1.433 . S
C2987 N2989 1.384 . S
N2988 C2984 1.427 . S
N2988 C2985 1.384 1_565 S
N2989 C2981 1.427 . S
N2989 C2987 1.384 . S
H2990 C2996 0.930 . S
H2991 C3000 0.930 . S
H2992 C3005 0.929 . S
H2993 C3003 0.929 . S
H2994 C2998 0.929 . S
H2995 C3004 0.929 . S
C2996 H2990 0.930 . S
C2996 C2997 1.367 . S
C2996 C3004 1.378 . S
C2997 C2996 1.367 . S
C2997 C3005 1.433 . S
C2998 H2994 0.929 . S
C2998 C3000 1.378 . S
C2998 C3002 1.350 . S
C2999 C3002 1.463 . S
C2999 C3004 1.350 . S
C2999 N3007 1.427 . S
C3000 H2991 0.930 . S
C3000 C2998 1.378 . S
C3000 C3001 1.367 . S
C3001 C3000 1.367 . S
C3001 C3003 1.433 . S
C3002 C2998 1.350 . S
C3002 C2999 1.463 . S
C3002 N3006 1.427 . S
C3003 H2993 0.929 . S
C3003 C3001 1.433 . S
C3003 N3006 1.384 . S
C3004 H2995 0.929 . S
C3004 C2996 1.378 . S
C3004 C2999 1.350 . S
C3005 H2992 0.929 . S
C3005 C2997 1.433 . S
C3005 N3007 1.384 . S
N3006 C3002 1.427 . S
N3006 C3003 1.384 . S
N3007 C2999 1.427 . S
N3007 C3005 1.384 . S
C1287 C10 0.327 . S
C1291 C175 0.219 . S
C1305 C215 0.280 . S
C1309 C50 0.325 . S
C1323 C90 0.242 . S
C1327 C255 0.291 . S
C1341 C295 0.359 . S
C1345 C135 0.423 . S
C1359 C339 0.303 . S
C1363 C486 0.196 . S
C1377 C379 0.316 . S
C1381 C526 0.281 . S
C1395 C566 0.257 . S
C1399 C419 0.283 . S
C1413 C446 0.424 . S
C1417 C606 0.348 . S
C1431 C815 0.228 . S
C1435 C650 0.313 . S
C1449 C690 0.308 . S
C1453 C855 0.279 . S
C1467 C730 0.284 . S
C1471 C895 0.248 . S
C1485 C775 0.410 . S
C1489 C935 0.330 . S
C1503 C979 0.298 . S
C1507 C1126 0.201 . S
C1521 C1166 0.276 . S
C1525 C1019 0.306 . S
C1539 C1059 0.254 . S
C1543 C1206 0.248 . S
C1557 C1246 0.332 . S
C1561 C1086 0.414 . S
C1575 C849 1.888 . S
C1579 C18 1.861 . S
C1593 C889 1.413 . S
C1597 C58 1.402 . S
C1611 C929 1.931 . S
C1615 C98 1.909 . S
C1629 C129 1.339 . S
C1633 C809 1.357 . S
C1647 C169 1.355 . S
C1651 C769 1.338 . S
C1665 C658 1.856 . S
C1669 C209 1.883 . S
C1683 C249 1.425 . S
C1687 C698 1.417 . S
C1701 C289 1.941 . S
C1705 C738 1.921 . S
C1719 C329 1.852 . S
C1723 C1178 1.881 1_554 S
C1737 C1218 1.413 . S
C1741 C369 1.402 . S
C1755 C1258 1.926 . S
C1759 C409 1.905 . S
C1773 C458 1.340 . S
C1777 C1138 1.358 . S
C1791 C498 1.359 . S
C1795 C1098 1.340 . S
C1809 C538 1.885 . S
C1813 C969 1.859 . S
C1827 C578 1.410 . S
C1831 C1009 1.401 . S
C1845 C618 1.942 . S
C1849 C1049 1.922 . S
C1863 C338 0.784 . S
C1867 C9 0.784 . S
C1881 C49 0.731 . S
C1885 C1018 0.731 . S
C1899 C418 0.699 . S
C1903 C89 0.699 . S
C1917 C138 0.690 . S
C1921 C1089 0.690 . S
C1935 C489 0.482 . S
C1939 C178 0.482 . S
C1953 C1169 0.573 . S
C1957 C218 0.573 . S
C1971 C258 0.510 . S
C1975 C569 0.510 . S
C1989 C298 0.716 . S
C1993 C1249 0.716 . S
C2007 C689 0.732 . S
C2011 C378 0.732 . S
C2025 C778 0.739 . S
C2029 C449 0.739 . S
C2043 C529 0.588 . S
C2047 C858 0.587 . S
C2061 C938 0.669 . S
C2065 C609 0.669 . S
C2079 C978 0.774 . S
C2083 C649 0.774 . S
C2097 C1058 0.703 . S
C2101 C729 0.703 . S
C2115 C1129 0.472 . S
C2119 C818 0.472 . S
C2133 C898 0.503 . S
C2137 C1209 0.503 . S
C2151 C19 2.205 1_556 S
C2155 C490 2.224 . S
C2169 C1170 1.931 . S
C2173 C59 1.920 . S
C2187 C570 2.225 . S
C2191 C99 2.206 . S
C2205 C126 1.323 . S
C2209 C1250 1.359 . S
C2223 C335 0.816 . S
C2227 C166 0.814 . S
C2241 C1015 0.983 . S
C2245 C206 0.988 . S
C2259 C415 0.759 . S
C2263 C246 0.743 . S
C2277 C1090 1.633 . S
C2281 C286 1.614 . S
C2295 C179 2.223 . S
C2299 C330 2.201 . S
C2313 C859 1.930 . S
C2317 C370 1.916 . S
C2331 C259 2.226 1_556 S
C2335 C410 2.205 . S
C2349 C455 1.323 . S
C2353 C939 1.359 . S
C2367 C6 0.834 . S
C2371 C495 0.822 . S
C2385 C686 0.987 . S
C2389 C535 0.988 . S
C2403 C575 0.743 . S
C2407 C86 0.756 . S
C2421 C615 1.610 . S
C2425 C779 1.642 . S
C2439 C1130 2.223 . S
C2443 C659 2.201 . S
C2457 C530 1.930 . S
C2461 C699 1.918 . S
C2475 C739 2.201 . S
C2479 C1210 2.226 . S
C2493 C610 1.365 . S
C2497 C766 1.336 . S
C2511 C806 0.821 . S
C2515 C975 0.833 . S
C2529 C846 0.970 . S
C2533 C375 0.983 . S
C2547 C1055 0.755 . S
C2551 C886 0.743 . S
C2565 C450 1.632 . S
C2569 C926 1.608 . S
C2583 C970 2.208 . S
C2587 C819 2.221 1_556 S
C2601 C1010 1.921 . S
C2605 C219 1.935 . S
C2619 C1050 2.198 . S
C2623 C899 2.222 . S
C2637 C1095 1.331 . S
C2641 C299 1.365 . S
C2655 C646 0.833 . S
C2659 C1135 0.824 . S
C2673 C46 0.989 . S
C2677 C1175 0.987 . S
C2691 C1215 0.768 . S
C2695 C726 0.755 . S
C2709 C139 1.635 . S
C2713 C1255 1.602 . S
C2727 C170 2.375 . S
C2731 C15 2.334 . S
C2745 C210 2.295 . S
C2749 C55 2.276 . S
C2763 C95 2.297 . S
C2767 C250 2.334 . S
C2781 C290 3.142 . S
C2785 C130 3.150 . S
C2799 C499 2.376 . S
C2803 C326 2.335 . S
C2817 C366 2.276 . S
C2821 C539 2.295 . S
C2835 C406 2.302 . S
C2839 C579 2.336 . S
C2853 C619 3.139 . S
C2857 C459 3.149 . S
C2871 C655 2.333 . S
C2875 C810 2.375 . S
C2889 C850 2.295 . S
C2893 C695 2.278 . S
C2907 C735 2.296 . S
C2911 C890 2.335 . S
C2925 C770 3.150 . S
C2929 C930 3.142 1_554 S
C2943 C1139 2.375 . S
C2947 C966 2.333 . S
C2961 C1179 2.298 . S
C2965 C1006 2.272 . S
C2979 C1046 2.302 . S
C2983 C1219 2.335 . S
C2997 C1259 3.142 . S
C3001 C1099 3.149 . S
