# Generated by pormake.
# Topology xff, (7)-cn, num edge types: 1
# Building blocks:
#     Node 0, Type 0, BuildingBlock: HICVOG_clean_sbu_0, # of connection points: 7
#     Node 1, Type 0, BuildingBlock: HICVOG_clean_sbu_0, # of connection points: 7
#     Node 2, Type 0, BuildingBlock: HICVOG_clean_sbu_0, # of connection points: 7
#     Node 3, Type 0, BuildingBlock: HICVOG_clean_sbu_0, # of connection points: 7
#     Node 4, Type 0, BuildingBlock: HICVOG_clean_sbu_0, # of connection points: 7
#     Node 5, Type 0, BuildingBlock: HICVOG_clean_sbu_0, # of connection points: 7
#     Node 6, Type 0, BuildingBlock: HICVOG_clean_sbu_0, # of connection points: 7
#     Node 7, Type 0, BuildingBlock: HICVOG_clean_sbu_0, # of connection points: 7
#     Node 8, Type 0, BuildingBlock: HICVOG_clean_sbu_0, # of connection points: 7
#     Node 9, Type 0, BuildingBlock: HICVOG_clean_sbu_0, # of connection points: 7
#     Node 10, Type 0, BuildingBlock: HICVOG_clean_sbu_0, # of connection points: 7
#     Node 11, Type 0, BuildingBlock: HICVOG_clean_sbu_0, # of connection points: 7
#     Node 12, Type 0, BuildingBlock: HICVOG_clean_sbu_0, # of connection points: 7
#     Node 13, Type 0, BuildingBlock: HICVOG_clean_sbu_0, # of connection points: 7
#     Node 14, Type 0, BuildingBlock: HICVOG_clean_sbu_0, # of connection points: 7
#     Node 15, Type 0, BuildingBlock: HICVOG_clean_sbu_0, # of connection points: 7
#     Edge 16, Type (0, 0), BuildingBlock: CIFDUS_clean_linker_0, # of connection points: 2
#     Edge 17, Type (0, 0), BuildingBlock: CIFDUS_clean_linker_0, # of connection points: 2
#     Edge 18, Type (0, 0), BuildingBlock: CIFDUS_clean_linker_0, # of connection points: 2
#     Edge 19, Type (0, 0), BuildingBlock: CIFDUS_clean_linker_0, # of connection points: 2
#     Edge 20, Type (0, 0), BuildingBlock: CIFDUS_clean_linker_0, # of connection points: 2
#     Edge 21, Type (0, 0), BuildingBlock: CIFDUS_clean_linker_0, # of connection points: 2
#     Edge 22, Type (0, 0), BuildingBlock: CIFDUS_clean_linker_0, # of connection points: 2
#     Edge 23, Type (0, 0), BuildingBlock: CIFDUS_clean_linker_0, # of connection points: 2
#     Edge 24, Type (0, 0), BuildingBlock: CIFDUS_clean_linker_0, # of connection points: 2
#     Edge 25, Type (0, 0), BuildingBlock: CIFDUS_clean_linker_0, # of connection points: 2
#     Edge 26, Type (0, 0), BuildingBlock: CIFDUS_clean_linker_0, # of connection points: 2
#     Edge 27, Type (0, 0), BuildingBlock: CIFDUS_clean_linker_0, # of connection points: 2
#     Edge 28, Type (0, 0), BuildingBlock: CIFDUS_clean_linker_0, # of connection points: 2
#     Edge 29, Type (0, 0), BuildingBlock: CIFDUS_clean_linker_0, # of connection points: 2
#     Edge 30, Type (0, 0), BuildingBlock: CIFDUS_clean_linker_0, # of connection points: 2
#     Edge 31, Type (0, 0), BuildingBlock: CIFDUS_clean_linker_0, # of connection points: 2
#     Edge 32, Type (0, 0), BuildingBlock: CIFDUS_clean_linker_0, # of connection points: 2
#     Edge 33, Type (0, 0), BuildingBlock: CIFDUS_clean_linker_0, # of connection points: 2
#     Edge 34, Type (0, 0), BuildingBlock: CIFDUS_clean_linker_0, # of connection points: 2
#     Edge 35, Type (0, 0), BuildingBlock: CIFDUS_clean_linker_0, # of connection points: 2
#     Edge 36, Type (0, 0), BuildingBlock: CIFDUS_clean_linker_0, # of connection points: 2
#     Edge 37, Type (0, 0), BuildingBlock: CIFDUS_clean_linker_0, # of connection points: 2
#     Edge 38, Type (0, 0), BuildingBlock: CIFDUS_clean_linker_0, # of connection points: 2
#     Edge 39, Type (0, 0), BuildingBlock: CIFDUS_clean_linker_0, # of connection points: 2
#     Edge 40, Type (0, 0), BuildingBlock: CIFDUS_clean_linker_0, # of connection points: 2
#     Edge 41, Type (0, 0), BuildingBlock: CIFDUS_clean_linker_0, # of connection points: 2
#     Edge 42, Type (0, 0), BuildingBlock: CIFDUS_clean_linker_0, # of connection points: 2
#     Edge 43, Type (0, 0), BuildingBlock: CIFDUS_clean_linker_0, # of connection points: 2
#     Edge 44, Type (0, 0), BuildingBlock: CIFDUS_clean_linker_0, # of connection points: 2
#     Edge 45, Type (0, 0), BuildingBlock: CIFDUS_clean_linker_0, # of connection points: 2
#     Edge 46, Type (0, 0), BuildingBlock: CIFDUS_clean_linker_0, # of connection points: 2
#     Edge 47, Type (0, 0), BuildingBlock: CIFDUS_clean_linker_0, # of connection points: 2
#     Edge 48, Type (0, 0), BuildingBlock: CIFDUS_clean_linker_0, # of connection points: 2
#     Edge 49, Type (0, 0), BuildingBlock: CIFDUS_clean_linker_0, # of connection points: 2
#     Edge 50, Type (0, 0), BuildingBlock: CIFDUS_clean_linker_0, # of connection points: 2
#     Edge 51, Type (0, 0), BuildingBlock: CIFDUS_clean_linker_0, # of connection points: 2
#     Edge 52, Type (0, 0), BuildingBlock: CIFDUS_clean_linker_0, # of connection points: 2
#     Edge 53, Type (0, 0), BuildingBlock: CIFDUS_clean_linker_0, # of connection points: 2
#     Edge 54, Type (0, 0), BuildingBlock: CIFDUS_clean_linker_0, # of connection points: 2
#     Edge 55, Type (0, 0), BuildingBlock: CIFDUS_clean_linker_0, # of connection points: 2
#     Edge 56, Type (0, 0), BuildingBlock: CIFDUS_clean_linker_0, # of connection points: 2
#     Edge 57, Type (0, 0), BuildingBlock: CIFDUS_clean_linker_0, # of connection points: 2
#     Edge 58, Type (0, 0), BuildingBlock: CIFDUS_clean_linker_0, # of connection points: 2
#     Edge 59, Type (0, 0), BuildingBlock: CIFDUS_clean_linker_0, # of connection points: 2
#     Edge 60, Type (0, 0), BuildingBlock: CIFDUS_clean_linker_0, # of connection points: 2
#     Edge 61, Type (0, 0), BuildingBlock: CIFDUS_clean_linker_0, # of connection points: 2
#     Edge 62, Type (0, 0), BuildingBlock: CIFDUS_clean_linker_0, # of connection points: 2
#     Edge 63, Type (0, 0), BuildingBlock: CIFDUS_clean_linker_0, # of connection points: 2
#     Edge 64, Type (0, 0), BuildingBlock: CIFDUS_clean_linker_0, # of connection points: 2
#     Edge 65, Type (0, 0), BuildingBlock: CIFDUS_clean_linker_0, # of connection points: 2
#     Edge 66, Type (0, 0), BuildingBlock: CIFDUS_clean_linker_0, # of connection points: 2
#     Edge 67, Type (0, 0), BuildingBlock: CIFDUS_clean_linker_0, # of connection points: 2
#     Edge 68, Type (0, 0), BuildingBlock: CIFDUS_clean_linker_0, # of connection points: 2
#     Edge 69, Type (0, 0), BuildingBlock: CIFDUS_clean_linker_0, # of connection points: 2
#     Edge 70, Type (0, 0), BuildingBlock: CIFDUS_clean_linker_0, # of connection points: 2
#     Edge 71, Type (0, 0), BuildingBlock: CIFDUS_clean_linker_0, # of connection points: 2
# Relax obj value: 0.372
# Max RMSD: 0.250
# Mean RMSD: 0.250
data_MOF--net-xff--node1-HICVOG_clean_sbu_0--edge1-CIFDUS_clean_linker_0
_symmetry_space_group_name_H-M    P1
_symmetry_Int_Tables_number       1
_symmetry_cell_setting            triclinic
loop_
_symmetry_equiv_pos_as_xyz
'x, y, z'
_cell_length_a     26.207067
_cell_length_b     26.287485
_cell_length_c     60.77363
_cell_angle_alpha  90.155903
_cell_angle_beta   90.446297
_cell_angle_gamma 90.219609
loop_
_atom_site_label
_atom_site_type_symbol
_atom_site_fract_x
_atom_site_fract_y
_atom_site_fract_z
_atom_type_partial_charge
Zn0 Zn 0.20072 0.09392 0.04644 0.0
C1 C 0.21014 0.22837 0.01334 0.0
N2 N 0.19621 0.24456 0.03339 0.0
C3 C 0.19781 0.20253 0.04555 0.0
N4 N 0.21195 0.16162 0.03382 0.0
N5 N 0.22017 0.17698 0.01333 0.0
C6 C 0.20071 0.14643 0.9522 0.0
O7 O 0.15957 0.14578 0.96442 0.0
O8 O 0.2347 0.08857 0.07631 0.0
Zn9 Zn 0.25107 0.12688 0.99343 0.0
N10 N 0.1278 0.09218 0.0505 0.0
C11 C 0.0456 0.11195 0.03601 0.0
C12 C 0.09831 0.10856 0.03346 0.0
C13 C 0.10667 0.078 0.06989 0.0
N14 N 0.02446 0.09871 0.0555 0.0
C15 C 0.05356 0.08134 0.07251 0.0
O16 O 0.22509 0.05132 0.99474 0.0
C17 C 0.21924 1.01718 0.0095 0.0
O18 O 0.21616 0.02907 0.02968 0.0
H19 H 0.11582 0.11976 0.01815 0.0
H20 H 0.13112 0.06587 0.08331 0.0
C21 C 0.35663 0.15794 0.99242 0.0
C22 C 0.40711 0.16008 0.00065 0.0
C23 C 0.38718 0.09241 0.02511 0.0
C24 C 0.337 0.09215 0.01752 0.0
N25 N 0.32264 0.12493 0.00142 0.0
N26 N 0.42065 0.12657 0.01673 0.0
H27 H 0.34373 0.18214 0.97924 0.0
C28 C 0.27269 0.06049 0.08098 0.0
O29 O 0.29226 0.03133 0.06565 0.0
O30 O 0.24427 0.14481 0.9615 0.0
H31 H 0.30949 0.06652 0.0246 0.0
H32 H 1.02171 0.1255 0.02268 0.0
H33 H 0.3992 0.06653 0.03793 0.0
Zn34 Zn 0.69736 0.46582 0.30068 0.0
C35 C 0.5585 0.48055 0.26904 0.0
N36 N 0.54317 0.46218 0.28845 0.0
C37 C 0.5862 0.45988 0.30034 0.0
N38 N 0.62717 0.47582 0.28883 0.0
N39 N 0.61021 0.48964 0.26902 0.0
C40 C 0.66207 0.46449 0.20845 0.0
O41 O 0.69174 0.43778 0.22153 0.0
O42 O 0.70895 0.50472 0.32915 0.0
Zn43 Zn 0.65597 0.52218 0.24746 0.0
N44 N 0.70232 0.39362 0.30668 0.0
C45 C 0.72664 0.31194 0.29353 0.0
C46 C 0.7216 0.36416 0.29035 0.0
C47 C 0.68684 0.3728 0.32602 0.0
N48 N 0.71207 0.29121 0.31293 0.0
C49 C 0.69184 0.32005 0.32931 0.0
O50 O 0.73489 0.51206 0.2501 0.0
C51 C 0.77088 0.49935 0.26327 0.0
O52 O 0.76053 0.48277 0.28235 0.0
H53 H 0.73314 0.38126 0.27499 0.0
H54 H 0.67206 0.39717 0.33884 0.0
C55 C 0.60958 0.61988 0.24029 0.0
C56 C 0.60802 0.67328 0.24159 0.0
C57 C 0.68685 0.67292 0.26117 0.0
C58 C 0.68767 0.62012 0.26021 0.0
N59 N 0.64922 0.5947 0.24976 0.0
N60 N 0.6471 0.69814 0.25197 0.0
H61 H 0.5802 0.59841 0.23176 0.0
C62 C 0.70891 0.5531 0.32981 0.0
O63 O 0.69807 0.57887 0.3119 0.0
O64 O 0.63768 0.5018 0.21646 0.0
H65 H 0.71906 0.59959 0.26754 0.0
H66 H 0.74228 0.28807 0.28074 0.0
H67 H 0.71731 0.69376 0.2693 0.0
Zn68 Zn 0.34782 0.96465 0.54836 0.0
C69 C 0.31543 0.83161 0.51569 0.0
N70 N 0.34128 0.81351 0.53311 0.0
C71 C 0.35269 0.85496 0.54483 0.0
N72 N 0.33486 0.89761 0.53519 0.0
N73 N 0.31074 0.8838 0.51673 0.0
C74 C 0.30801 0.93674 0.45767 0.0
O75 O 0.34464 0.95824 0.46934 0.0
O76 O 0.31179 0.96946 0.57761 0.0
Zn77 Zn 0.26977 0.93478 0.49983 0.0
N78 N 0.42118 0.97113 0.55185 0.0
C79 C 0.49871 0.99703 0.5349 0.0
C80 C 0.44631 0.98789 0.53376 0.0
C81 C 0.44663 0.96207 0.57103 0.0
N82 N 0.52409 0.98881 0.5541 0.0
C83 C 0.49958 0.9711 0.57219 0.0
O84 O 0.28806 1.01355 0.50058 0.0
C85 C 0.30878 0.04493 0.51407 0.0
O86 O 0.32978 0.02887 0.5316 0.0
H87 H 0.42552 0.99483 0.51862 0.0
H88 H 0.42575 0.94926 0.58529 0.0
C89 C 0.16762 0.89546 0.50506 0.0
C90 C 0.11687 0.89826 0.51233 0.0
C91 C 0.13557 0.97702 0.52984 0.0
C92 C 0.18571 0.97402 0.52269 0.0
N93 N 0.20071 0.93354 0.51038 0.0
N94 N 0.10239 0.93925 0.52448 0.0
H95 H 0.18062 0.86415 0.49498 0.0
C96 C 0.26646 0.95244 0.57926 0.0
O97 O 0.24466 0.93054 0.56215 0.0
O98 O 0.27013 0.91759 0.46763 0.0
H99 H 0.21244 1.00388 0.52693 0.0
H100 H 0.519 1.01091 0.52067 0.0
H101 H 0.12305 1.00906 0.53959 0.0
Zn102 Zn 0.87323 0.58564 0.79676 0.0
C103 C 1.0003 0.55137 0.76181 0.0
N104 N 1.02099 0.572 0.78006 0.0
C105 C 0.98087 0.58031 0.79283 0.0
N106 N 0.9369 0.56579 0.78307 0.0
N107 N 0.94796 0.54648 0.76342 0.0
C108 C 0.89839 0.55555 0.70398 0.0
O109 O 0.89535 0.59707 0.71598 0.0
O110 O 0.87027 0.55762 0.82745 0.0
Zn111 Zn 0.89206 0.51074 0.74643 0.0
N112 N 0.8774 0.65862 0.79955 0.0
C113 C 0.8697 0.74081 0.78353 0.0
C114 C 0.86841 0.68787 0.78154 0.0
C115 C 0.88851 0.68002 0.81939 0.0
N116 N 0.87973 0.76226 0.80348 0.0
C117 C 0.88975 0.73307 0.82143 0.0
O118 O 0.81471 0.53415 0.74944 0.0
C119 C 0.78615 0.55468 0.76395 0.0
O120 O 0.80552 0.57256 0.78158 0.0
H121 H 0.85981 0.67013 0.76585 0.0
H122 H 0.89504 0.65597 0.83356 0.0
C123 C 0.92728 0.40612 0.75071 0.0
C124 C 0.92249 0.35534 0.75788 0.0
C125 C 0.84404 0.37622 0.77491 0.0
C126 C 0.84921 0.42631 0.76801 0.0
N127 N 0.89038 0.44035 0.75593 0.0
N128 N 0.88062 0.34207 0.76972 0.0
H129 H 0.95933 0.41832 0.7409 0.0
C130 C 0.86067 0.51197 0.83289 0.0
O131 O 0.85036 0.47814 0.81753 0.0
O132 O 0.90291 0.51295 0.71364 0.0
H133 H 0.82037 0.45373 0.77224 0.0
H134 H 0.86213 0.76465 0.7694 0.0
H135 H 0.81132 0.36454 0.78443 0.0
Zn136 Zn 0.78136 0.887 0.99225 0.0
C137 C 0.86273 0.82099 0.94455 0.0
N138 N 0.86154 0.77788 0.95597 0.0
C139 C 0.83986 0.79122 0.97512 0.0
N140 N 0.82721 0.84213 0.97524 0.0
N141 N 0.84324 0.85995 0.956 0.0
C142 C 0.78348 0.95524 0.90762 0.0
O143 O 0.76086 0.98355 0.92244 0.0
O144 O 0.78225 0.87753 0.02533 0.0
Zn145 Zn 0.85564 0.92758 0.94337 0.0
N146 N 0.71381 0.87478 0.98042 0.0
C147 C 0.65733 0.89087 0.95045 0.0
C148 C 0.70432 0.89782 0.96085 0.0
C149 C 0.67817 0.84461 0.99007 0.0
N150 N 0.62201 0.86013 0.95983 0.0
C151 C 0.63105 0.83619 0.97932 0.0
O152 O 0.8356 0.99178 0.96 0.0
C153 C 0.81014 1.00163 0.97719 0.0
O154 O 0.79129 0.96555 0.98872 0.0
H155 H 0.73336 0.92126 0.95344 0.0
H156 H 0.68652 0.82759 0.00586 0.0
C157 C 0.9499 0.94301 0.91989 0.0
C158 C 1.00265 0.93713 0.91671 0.0
C159 C 1.01094 0.90529 0.953 0.0
C160 C 0.95857 0.91112 0.9561 0.0
N161 N 0.92901 0.92936 0.93944 0.0
N162 N 0.03173 0.918 0.93336 0.0
H163 H 0.92548 0.9565 0.90672 0.0
C164 C 0.82198 0.88944 0.0364 0.0
O165 O 0.86476 0.89835 0.02594 0.0
O166 O 0.82326 0.93048 0.91297 0.0
H167 H 0.94128 0.89981 0.97144 0.0
H168 H 0.6492 0.90917 0.93489 0.0
H169 H 0.03476 0.89015 0.96602 0.0
Zn170 Zn 0.36762 0.60513 0.69256 0.0
C171 C 0.49833 0.57231 0.72636 0.0
N172 N 0.5168 0.59428 0.70813 0.0
C173 C 0.47532 0.60209 0.69576 0.0
N174 N 0.43274 0.5867 0.70597 0.0
N175 N 0.4461 0.56624 0.72508 0.0
C176 C 0.38637 0.56375 0.78272 0.0
O177 O 0.36411 0.59855 0.77052 0.0
O178 O 0.3622 0.5762 0.66203 0.0
Zn179 Zn 0.39477 0.52392 0.7406 0.0
N180 N 0.37088 0.67828 0.68917 0.0
C181 C 0.39077 0.75953 0.70448 0.0
C182 C 0.38469 0.70703 0.70687 0.0
C183 C 0.36287 0.69989 0.66912 0.0
N184 N 0.3828 0.78114 0.68447 0.0
C185 C 0.36905 0.75258 0.66669 0.0
O186 O 0.31477 0.53755 0.73671 0.0
C187 C 0.28452 0.56211 0.72395 0.0
O188 O 0.30219 0.58805 0.70811 0.0
H189 H 0.39156 0.68914 0.72263 0.0
H190 H 0.35227 0.6763 0.65518 0.0
C191 C 0.43651 0.42281 0.73944 0.0
C192 C 0.44389 0.37464 0.72986 0.0
C193 C 0.3864 0.3967 0.70104 0.0
C194 C 0.37919 0.44423 0.71064 0.0
N195 N 0.40432 0.45626 0.72957 0.0
N196 N 0.41856 0.36317 0.71081 0.0
H197 H 0.45695 0.4344 0.75416 0.0
C198 C 0.33514 0.53882 0.65553 0.0
O199 O 0.30579 0.5149 0.66957 0.0
O200 O 0.40738 0.52622 0.77324 0.0
H201 H 0.35425 0.47172 0.70299 0.0
H202 H 0.40188 0.78291 0.71841 0.0
H203 H 0.36686 0.3866 0.6859 0.0
Zn204 Zn 0.76588 0.12534 0.49436 0.0
C205 C 0.68546 0.19651 0.44729 0.0
N206 N 0.69127 0.2389 0.4592 0.0
C207 C 0.71389 0.22307 0.47782 0.0
N208 N 0.72152 0.17137 0.47744 0.0
N209 N 0.70242 0.15522 0.45831 0.0
C210 C 0.75615 0.05914 0.40814 0.0
O211 O 0.78391 0.03056 0.42122 0.0
O212 O 0.76862 0.14158 0.52661 0.0
Zn213 Zn 0.69051 0.08581 0.44645 0.0
N214 N 0.83245 0.13084 0.48184 0.0
C215 C 0.88831 0.10135 0.45401 0.0
C216 C 0.84042 0.10183 0.46369 0.0
C217 C 0.87015 0.16015 0.49068 0.0
N218 N 0.92607 0.13073 0.46269 0.0
C219 C 0.91846 0.16053 0.48074 0.0
O220 O 0.7148 0.02152 0.4627 0.0
C221 C 0.73724 1.01136 0.48079 0.0
O222 O 0.75344 0.04733 0.49323 0.0
H223 H 0.80976 0.07892 0.45699 0.0
H224 H 0.86243 0.18234 0.50528 0.0
C225 C 0.59536 0.09697 0.4243 0.0
C226 C 0.54268 0.09076 0.42092 0.0
C227 C 0.53659 0.05097 0.45581 0.0
C228 C 0.58909 0.05703 0.45903 0.0
N229 N 0.61742 0.07946 0.44311 0.0
N230 N 0.5147 0.06739 0.43677 0.0
H231 H 0.619 0.11394 0.41175 0.0
C232 C 0.72842 0.14788 0.53781 0.0
O233 O 0.68398 0.14991 0.52772 0.0
O234 O 0.7177 0.08248 0.4157 0.0
H235 H 0.60726 0.0435 0.47394 0.0
H236 H 0.89537 0.07817 0.43962 0.0
H237 H 0.51351 0.03278 0.46823 0.0
Zn238 Zn 0.18789 0.45525 0.19271 0.0
C239 C 0.05765 0.47843 0.22774 0.0
N240 N 0.03835 0.45775 0.20919 0.0
C241 C 0.07896 0.45173 0.1964 0.0
N242 N 0.12209 0.46731 0.20663 0.0
N243 N 0.10976 0.48496 0.2264 0.0
C244 C 0.14678 0.49799 0.28764 0.0
O245 O 0.14427 0.45149 0.27974 0.0
O246 O 0.19006 0.48898 0.16282 0.0
Zn247 Zn 0.16217 0.52706 0.24213 0.0
N248 N 0.19009 0.38287 0.18847 0.0
C249 C 0.211 0.30152 0.20297 0.0
C250 C 0.20661 0.35402 0.20561 0.0
C251 C 0.17657 0.3614 0.16893 0.0
N252 N 0.19886 0.2801 0.18326 0.0
C253 C 0.18125 0.30865 0.16619 0.0
O254 O 0.24047 0.50756 0.24113 0.0
C255 C 0.27097 0.48801 0.22715 0.0
O256 O 0.25388 0.46984 0.20916 0.0
H257 H 0.21686 0.37185 0.2211 0.0
H258 H 0.16411 0.38537 0.15547 0.0
C259 C 0.11486 0.62114 0.23219 0.0
C260 C 0.10965 0.66854 0.22171 0.0
C261 C 0.19128 0.65715 0.20561 0.0
C262 C 0.19595 0.61023 0.21598 0.0
N263 N 0.15762 0.59321 0.22897 0.0
N264 N 0.14846 0.68506 0.20871 0.0
H265 H 0.08596 0.60624 0.24302 0.0
C266 C 0.21527 0.52882 0.15803 0.0
O267 O 0.24445 0.55022 0.17311 0.0
O268 O 0.14904 0.53526 0.27443 0.0
H269 H 0.22971 0.58748 0.21365 0.0
H270 H 0.22463 0.27807 0.21637 0.0
H271 H 0.22136 0.67129 0.19515 0.0
Zn272 Zn 0.72552 0.58724 0.54777 0.0
C273 C 0.74062 0.72361 0.51588 0.0
N274 N 0.7237 0.74038 0.53537 0.0
C275 C 0.72166 0.69849 0.54767 0.0
N276 N 0.73611 0.65673 0.53629 0.0
N277 N 0.74867 0.67192 0.51616 0.0
C278 C 0.74997 0.64178 0.45367 0.0
O279 O 0.70527 0.63817 0.46318 0.0
O280 O 0.76399 0.57665 0.57647 0.0
Zn281 Zn 0.78673 0.62352 0.49754 0.0
N282 N 0.65343 0.58412 0.55293 0.0
C283 C 0.57039 0.56438 0.53922 0.0
C284 C 0.62309 0.56632 0.53636 0.0
C285 C 0.63333 0.60113 0.57209 0.0
N286 N 0.55025 0.58049 0.55852 0.0
C287 C 0.58034 0.59941 0.57498 0.0
O288 O 0.7655 0.54717 0.49627 0.0
C289 C 0.75192 0.51232 0.50965 0.0
O290 O 0.73922 0.52377 0.52916 0.0
H291 H 0.63976 0.55381 0.52106 0.0
H292 H 0.65846 0.61462 0.58509 0.0
C293 C 0.89055 0.65626 0.50354 0.0
C294 C 0.94022 0.65314 0.51238 0.0
C295 C 0.91616 0.57893 0.53195 0.0
C296 C 0.86681 0.58287 0.52354 0.0
N297 N 0.85512 0.62105 0.50934 0.0
N298 N 0.95158 0.61412 0.52625 0.0
H299 H 0.8799 0.68601 0.49215 0.0
C300 C 0.77057 0.53296 0.58496 0.0
O301 O 0.751 0.49285 0.57503 0.0
O302 O 0.79002 0.64284 0.46559 0.0
H303 H 0.83814 0.55559 0.5283 0.0
H304 H 0.54572 0.54993 0.52627 0.0
H305 H 0.92613 0.54851 0.54312 0.0
Zn306 Zn 0.1879 1.01846 0.74657 0.0
C307 C 0.10864 0.95636 0.79596 0.0
N308 N 0.06643 0.96682 0.78446 0.0
C309 C 0.08423 0.98427 0.76525 0.0
N310 N 0.1366 0.98495 0.76504 0.0
N311 N 0.15126 0.96715 0.78454 0.0
C312 C 0.20544 0.02924 0.83144 0.0
O313 O 0.17742 0.05297 0.81672 0.0
O314 O 0.16895 0.02236 0.71456 0.0
Zn315 Zn 0.21931 0.95377 0.79676 0.0
N316 N 0.19468 0.08745 0.7573 0.0
C317 C 0.24175 0.14978 0.77745 0.0
C318 C 0.23592 0.10006 0.7699 0.0
C319 C 0.15847 0.12249 0.75218 0.0
N320 N 0.20572 0.1848 0.77235 0.0
C321 C 0.1638 0.17273 0.75998 0.0
O322 O 0.28469 0.97057 0.78024 0.0
C323 C 0.29612 0.97807 0.76025 0.0
O324 O 0.26169 0.9888 0.746 0.0
H325 H 0.26415 0.07188 0.77405 0.0
H326 H 0.1264 0.11112 0.74196 0.0
C327 C 0.23543 0.85826 0.81909 0.0
C328 C 0.23043 0.80529 0.82121 0.0
C329 C 0.20023 0.80005 0.78443 0.0
C330 C 0.20458 0.85273 0.78245 0.0
N331 N 0.22129 0.88081 0.79991 0.0
N332 N 0.21255 0.77759 0.80384 0.0
H333 H 0.2478 0.88157 0.83286 0.0
C334 C 0.17119 0.98302 0.70242 0.0
O335 O 0.17526 0.93813 0.7117 0.0
O336 O 0.22599 0.98697 0.82657 0.0
H337 H 0.19353 0.87138 0.76731 0.0
H338 H 0.2745 0.16046 0.7874 0.0
H339 H 0.18629 0.77728 0.77079 0.0
Zn340 Zn 0.79388 0.39196 0.9904 0.0
C341 C 0.81007 0.31673 0.04722 0.0
N342 N 0.80779 0.27342 0.03582 0.0
C343 C 0.8062 0.28913 0.01482 0.0
N344 N 0.8073 0.34136 0.01351 0.0
N345 N 0.80975 0.35787 0.03417 0.0
C346 C 0.74956 0.44491 0.08361 0.0
O347 O 0.71733 0.46528 0.06954 0.0
O348 O 0.82232 0.37264 0.96082 0.0
Zn349 Zn 0.82086 0.42589 0.04635 0.0
N350 N 0.72079 0.39566 0.9864 0.0
C351 C 0.64748 0.44553 0.97858 0.0
C352 C 0.70004 0.44147 0.98135 0.0
C353 C 0.69117 0.35338 0.98853 0.0
N354 N 0.61779 0.40358 0.98101 0.0
C355 C 0.6378 0.35718 0.98598 0.0
O356 O 0.79564 0.48926 0.03002 0.0
C357 C 0.80816 0.50184 0.01062 0.0
O358 O 0.81734 0.46768 -0.00387 0.0
H359 H 0.72415 0.47458 0.97941 0.0
H360 H 0.70952 0.31756 0.99189 0.0
C361 C 0.91395 0.42326 0.07109 0.0
C362 C 0.96606 0.43194 0.0752 0.0
C363 C 0.97596 0.4588 0.03824 0.0
C364 C 0.92408 0.45028 0.03426 0.0
N365 N 0.89394 0.43344 0.05084 0.0
N366 N 0.99563 0.45001 0.05863 0.0
H367 H 0.8892 0.41016 0.08408 0.0
C368 C 0.86059 0.39782 0.95406 0.0
O369 O 0.88618 0.42626 0.96815 0.0
O370 O 0.79189 0.4278 0.07685 0.0
H371 H 0.90792 0.45755 0.01819 0.0
H372 H 0.63031 0.48173 0.97457 0.0
H373 H 1.00032 0.47281 0.02529 0.0
Zn374 Zn 0.36967 0.04344 0.2454 0.0
C375 C 0.44005 0.10134 0.29901 0.0
N376 N 0.48347 0.10082 0.28775 0.0
C377 C 0.46895 0.08669 0.26738 0.0
N378 N 0.41705 0.07799 0.26628 0.0
N379 N 0.39964 0.08875 0.28628 0.0
C380 C 0.30275 0.04112 0.33473 0.0
O381 O 0.28152 1.0097 0.32049 0.0
O382 O 0.381 0.05994 0.21346 0.0
Zn383 Zn 0.33108 0.10625 0.29697 0.0
N384 N 0.37628 0.97175 0.2503 0.0
C385 C 0.34978 0.90161 0.27205 0.0
C386 C 0.34858 0.9533 0.26734 0.0
C387 C 0.40527 0.94064 0.23768 0.0
N388 N 0.38035 0.87082 0.26008 0.0
C389 C 0.40884 0.88886 0.24313 0.0
O390 O 0.26594 0.08483 0.28084 0.0
C391 C 0.25547 0.06491 0.2623 0.0
O392 O 0.29129 0.05153 0.24941 0.0
H393 H 0.32557 0.97867 0.27714 0.0
H394 H 0.42563 0.95622 0.22383 0.0
C395 C 0.34451 0.20132 0.31852 0.0
C396 C 0.34167 0.25428 0.32102 0.0
C397 C 0.31243 0.26097 0.28408 0.0
C398 C 0.31483 0.20816 0.28177 0.0
N399 N 0.33027 0.17945 0.29912 0.0
N400 N 0.32518 0.28274 0.30369 0.0
H401 H 0.35602 0.17745 0.33215 0.0
C402 C 0.35502 0.09769 0.20676 0.0
O403 O 0.33332 0.12709 0.22147 0.0
O404 O 0.32398 0.08161 0.32796 0.0
H405 H 0.30393 0.19008 0.26642 0.0
H406 H 0.32766 0.88623 0.28546 0.0
H407 H 0.29974 0.2844 0.27051 0.0
Zn408 Zn 0.25786 0.42984 0.49468 0.0
C409 C 0.31979 0.3588 0.44212 0.0
N410 N 0.31725 0.31586 0.45376 0.0
C411 C 0.29937 0.33118 0.47328 0.0
N412 N 0.29067 0.38283 0.47357 0.0
N413 N 0.30447 0.3997 0.45385 0.0
C414 C 0.23214 0.48074 0.4131 0.0
O415 O 0.20621 0.47011 0.43092 0.0
O416 O 0.27203 0.40948 0.52589 0.0
Zn417 Zn 0.31701 0.46994 0.44307 0.0
N418 N 0.18503 0.42956 0.48963 0.0
C419 C 0.11298 0.47668 0.47724 0.0
C420 C 0.16542 0.47185 0.47991 0.0
C421 C 0.15408 0.39125 0.49652 0.0
N422 N 0.08208 0.43858 0.48406 0.0
C423 C 0.10097 0.39568 0.49354 0.0
O424 O 0.30031 0.53336 0.46144 0.0
C425 C 0.28669 0.54383 0.48095 0.0
O426 O 0.27457 0.50799 0.49413 0.0
H427 H 0.19016 0.50199 0.47439 0.0
H428 H 0.17065 0.35836 0.50446 0.0
C429 C 0.41278 0.45784 0.42002 0.0
C430 C 0.46614 0.46137 0.41814 0.0
C431 C 0.47101 0.49575 0.45422 0.0
C432 C 0.41815 0.49204 0.45605 0.0
N433 N 0.39004 0.47372 0.43887 0.0
N434 N 0.49372 0.48077 0.4353 0.0
H435 H 0.38949 0.44385 0.4065 0.0
C436 C 0.31285 0.42847 0.53382 0.0
O437 O 0.34474 0.45118 0.52041 0.0
O438 O 0.28065 0.48168 0.41406 0.0
H439 H 0.39953 0.50377 0.47104 0.0
H440 H 0.09691 0.51028 0.46969 0.0
H441 H 0.49382 0.51066 0.4677 0.0
Zn442 Zn 0.86534 0.03592 0.24601 0.0
C443 C 0.94256 0.07517 0.19221 0.0
N444 N 0.98522 0.07176 0.20421 0.0
C445 C 0.96825 0.06227 0.22453 0.0
N446 N 0.91595 0.05969 0.22492 0.0
N447 N 0.90027 0.06783 0.20437 0.0
C448 C 0.85163 0.99457 0.15938 0.0
O449 O 0.87717 0.97433 0.17584 0.0
O450 O 0.88708 0.04682 0.27744 0.0
Zn451 Zn 0.82993 0.07127 0.19247 0.0
N452 N 0.85799 0.96354 0.24186 0.0
C453 C 0.80618 0.88927 0.23988 0.0
C454 C 0.81119 0.94143 0.24328 0.0
C455 C 0.90024 0.93554 0.23761 0.0
N456 N 0.84827 0.8613 0.23543 0.0
C457 C 0.89559 0.88275 0.23416 0.0
O458 O 0.7685 0.04289 0.20975 0.0
C459 C 0.75686 0.05773 0.229 0.0
O460 O 0.79205 0.06634 0.24323 0.0
H461 H 0.77808 0.96396 0.24717 0.0
H462 H 0.93682 0.95455 0.23745 0.0
C463 C 0.81612 0.16691 0.16976 0.0
C464 C 0.81064 0.21992 0.16869 0.0
C465 C 0.79866 0.22297 0.20717 0.0
C466 C 0.80686 0.17061 0.20836 0.0
N467 N 0.81527 0.14346 0.18964 0.0
N468 N 0.80147 0.24665 0.1874 0.0
H469 H 0.82347 0.14485 0.15506 0.0
C470 C 0.8678 0.08474 0.28728 0.0
O471 O 0.84381 0.11933 0.27561 0.0
O472 O 0.82818 0.03636 0.16237 0.0
H473 H 0.80741 0.15204 0.22416 0.0
H474 H 0.7692 0.87104 0.24088 0.0
H475 H 0.79171 0.24484 0.22195 0.0
Zn476 Zn 0.23399 0.62635 -0.00061 0.0
C477 C 0.22489 0.70017 0.94158 0.0
N478 N 0.22462 0.74368 0.95279 0.0
C479 C 0.22346 0.7287 0.97387 0.0
N480 N 0.22393 0.67647 0.9755 0.0
N481 N 0.22391 0.65934 0.95487 0.0
C482 C 0.2866 0.57182 0.90619 0.0
O483 O 0.3162 0.54822 0.92037 0.0
O484 O 0.19731 0.64174 0.02774 0.0
Zn485 Zn 0.21561 0.59058 0.94311 0.0
N486 N 0.3049 0.62772 0.00817 0.0
C487 C 0.36815 0.59417 0.03222 0.0
C488 C 0.31859 0.59363 0.02386 0.0
C489 C 0.33884 0.66238 0.00032 0.0
N490 N 0.40178 0.62939 0.02479 0.0
C491 C 0.38882 0.66412 0.00911 0.0
O492 O 0.24588 0.5298 0.95945 0.0
C493 C 0.23063 0.51603 0.9783 0.0
O494 O 0.21816 0.54932 0.99267 0.0
H495 H 0.29087 0.56664 0.02997 0.0
H496 H 0.32654 0.68803 0.98753 0.0
C497 C 0.12149 0.57489 0.91955 0.0
C498 C 0.0692 0.56439 0.91726 0.0
C499 C 0.06228 0.55895 0.95602 0.0
C500 C 0.11415 0.57033 0.95825 0.0
N501 N 0.14289 0.57753 0.93999 0.0
N502 N 0.04098 0.55605 0.9356 0.0
H503 H 0.14499 0.58055 0.9052 0.0
C504 C 0.16248 0.61095 0.03364 0.0
O505 O 0.14011 0.58266 0.01853 0.0
O506 O 0.24463 0.59063 0.91257 0.0
H507 H 0.13138 0.57314 0.97438 0.0
H508 H 0.37969 0.56728 0.04473 0.0
H509 H 0.0391 0.55257 0.97041 0.0
Zn510 Zn 0.72283 0.96499 0.6933 0.0
C511 C 0.58509 0.98983 0.72224 0.0
N512 N 0.57143 0.99196 0.70095 0.0
C513 C 0.61561 0.99054 0.69035 0.0
N514 N 0.6558 0.98703 0.70418 0.0
N515 N 0.6374 0.98835 0.72458 0.0
C516 C 0.71666 0.92402 0.78013 0.0
O517 O 0.75142 0.91604 0.76507 0.0
O518 O 0.73537 0.99434 0.66328 0.0
Zn519 Zn 0.68468 1.00058 0.74984 0.0
N520 N 0.72077 0.89172 0.68971 0.0
C521 C 0.73525 0.80907 0.70428 0.0
C522 C 0.73393 0.86178 0.707 0.0
C523 C 0.70801 0.87105 0.66983 0.0
N524 N 0.72359 0.78845 0.68433 0.0
C525 C 0.70959 0.81796 0.66694 0.0
O526 O 0.76263 1.0075 0.74343 0.0
C527 C 0.79793 1.00062 0.72934 0.0
O528 O 0.78721 0.98387 0.71026 0.0
H529 H 0.74398 0.87885 0.72265 0.0
H530 H 0.69848 0.89588 0.65624 0.0
C531 C 0.64095 0.10138 0.75238 0.0
C532 C 0.63099 0.14787 0.76306 0.0
C533 C 0.67934 0.11972 0.79395 0.0
C534 C 0.6887 0.07377 0.78335 0.0
N535 N 0.66903 0.06539 0.76291 0.0
N536 N 0.65065 0.15542 0.78365 0.0
H537 H 0.62551 0.09286 0.73625 0.0
C538 C 0.74045 0.0417 0.65972 0.0
O539 O 0.73481 0.07423 0.67596 0.0
O540 O 0.67831 0.95138 0.77521 0.0
H541 H 0.71151 0.04487 0.79131 0.0
H542 H 0.74608 0.78474 0.71785 0.0
H543 H 0.69455 0.12694 0.81026 0.0
H544 H 0.24624 0.24954 0.14412 0.0
H545 H 0.09638 0.31564 0.1401 0.0
H546 H 0.08472 0.28075 0.1029 0.0
H547 H 0.12112 0.23806 0.07035 0.0
H548 H 0.27495 0.18158 0.07334 0.0
H549 H 0.28177 0.20632 0.11204 0.0
C550 C 0.21078 0.25548 0.13516 0.0
C551 C 0.17211 0.28473 0.14462 0.0
C552 C 0.20529 0.23693 0.11366 0.0
C553 C 0.1266 0.29326 0.1329 0.0
C554 C 0.11999 0.27328 0.11174 0.0
C555 C 0.15524 0.2295 0.07985 0.0
C556 C 0.19654 0.20564 0.06957 0.0
C557 C 0.15947 0.24574 0.10181 0.0
C558 C 0.24179 0.19729 0.08142 0.0
C559 C 0.24598 0.21227 0.10337 0.0
H560 H 0.53693 0.51699 0.39728 0.0
H561 H 0.45455 0.37539 0.39315 0.0
H562 H 0.49306 0.35715 0.35736 0.0
H563 H 0.5427 0.3871 0.32538 0.0
H564 H 0.61104 0.53553 0.32768 0.0
H565 H 0.58838 0.54499 0.36626 0.0
C566 C 0.52807 0.48182 0.38865 0.0
C567 C 0.49238 0.44788 0.39752 0.0
C568 C 0.54924 0.47254 0.36791 0.0
C569 C 0.48093 0.40253 0.38624 0.0
C570 C 0.50324 0.39204 0.3659 0.0
C571 C 0.55431 0.42045 0.33474 0.0
C572 C 0.58298 0.45876 0.32444 0.0
C573 C 0.53647 0.42747 0.3563 0.0
C574 C 0.59468 0.50335 0.3361 0.0
C575 C 0.57968 0.50952 0.35789 0.0
H576 H 0.2887 0.84865 0.57853 0.0
H577 H 0.44727 0.83825 0.56178 0.0
H578 H 0.46672 0.80402 0.59847 0.0
H579 H 0.43783 0.77584 0.63517 0.0
H580 H 0.27805 0.7835 0.65082 0.0
H581 H 0.25981 0.82216 0.61506 0.0
C582 C 0.32797 0.84245 0.58348 0.0
C583 C 0.36709 0.84956 0.56813 0.0
C584 C 0.33852 0.82248 0.60441 0.0
C585 C 0.41711 0.83581 0.57383 0.0
C586 C 0.42808 0.81586 0.59469 0.0
C587 C 0.39923 0.78676 0.63073 0.0
C588 C 0.35921 0.77733 0.64542 0.0
C589 C 0.38909 0.80897 0.61011 0.0
C590 C 0.30922 0.79079 0.63964 0.0
C591 C 0.29891 0.81317 0.6193 0.0
H592 H 0.06568 0.63817 0.88635 0.0
H593 H 1.01825 0.48425 0.89949 0.0
H594 H 0.98255 0.47691 0.86223 0.0
H595 H 0.96915 0.5131 0.82532 0.0
H596 H 1.01555 0.66708 0.81211 0.0
H597 H 0.04709 0.67624 0.85007 0.0
C598 C 0.04718 0.60328 0.88098 0.0
C599 C 0.04494 0.56156 0.89534 0.0
C600 C 0.02586 0.59984 0.85975 0.0
C601 C 1.02045 0.51664 0.88855 0.0
C602 C 1.00015 0.51248 0.8673 0.0
C603 C 0.98403 0.54933 0.83113 0.0
C604 C 0.98793 0.5902 0.81644 0.0
C605 C 1.00265 0.55382 0.85277 0.0
C606 C 1.01051 0.63589 0.82352 0.0
C607 C 0.0289 0.6409 0.84509 0.0
H608 H 0.81709 0.77688 0.84539 0.0
H609 H 0.97697 0.74059 0.84585 0.0
H610 H 0.98505 0.7712 0.88397 0.0
H611 H 0.94368 0.80075 0.91832 0.0
H612 H 0.78232 0.83122 0.91776 0.0
H613 H 0.77716 0.81016 0.87867 0.0
C614 C 0.85376 0.77659 0.85382 0.0
C615 C 0.89641 0.75677 0.84315 0.0
C616 C 0.85756 0.79301 0.87571 0.0
C617 C 0.94376 0.75564 0.85405 0.0
C618 C 0.94827 0.77312 0.87575 0.0
C619 C 0.90796 0.80428 0.90932 0.0
C620 C 0.8638 0.81926 0.92047 0.0
C621 C 0.90514 0.79098 0.88691 0.0
C622 C 0.81705 0.82155 0.90914 0.0
C623 C 0.81396 0.80893 0.88691 0.0
H624 H 0.51838 0.67397 0.66969 0.0
H625 H 0.44962 0.52489 0.66942 0.0
H626 H 0.4716 0.51326 0.6309 0.0
H627 H 0.51596 0.54236 0.59822 0.0
H628 H 0.59441 0.68647 0.59905 0.0
H629 H 0.56241 0.70421 0.63611 0.0
C630 C 0.50685 0.63989 0.66082 0.0
C631 C 0.47999 0.60148 0.6718 0.0
C632 C 0.52162 0.6326 0.63886 0.0
C633 C 0.46783 0.55602 0.66079 0.0
C634 C 0.48107 0.54902 0.63891 0.0
C635 C 0.52533 0.57793 0.60644 0.0
C636 C 0.55755 0.613 0.59621 0.0
C637 C 0.50841 0.58675 0.62787 0.0
C638 C 0.57012 0.65878 0.60694 0.0
C639 C 0.55172 0.66888 0.62803 0.0
H640 H 0.61469 0.24324 0.42187 0.0
H641 H 0.76127 0.17024 0.42026 0.0
H642 H 0.77412 0.19882 0.38261 0.0
H643 H 0.74736 0.25081 0.35135 0.0
H644 H 0.6064 0.33419 0.35441 0.0
H645 H 0.58695 0.29513 0.38998 0.0
C646 C 0.64825 0.23178 0.41279 0.0
C647 C 0.6853 0.20138 0.42318 0.0
C648 C 0.65666 0.25107 0.39153 0.0
C649 C 0.73044 0.18998 0.41196 0.0
C650 C 0.73838 0.20751 0.39063 0.0
C651 C 0.71217 0.26006 0.35974 0.0
C652 C 0.67857 0.29562 0.35043 0.0
C653 C 0.70216 0.23869 0.38039 0.0
C654 C 0.63324 0.30758 0.36149 0.0
C655 C 0.62202 0.28499 0.38173 0.0
H656 H 0.02474 0.49834 0.09792 0.0
H657 H 0.95668 0.3495 0.10212 0.0
H658 H 0.99123 0.33918 0.13949 0.0
H659 H 0.03684 0.37553 0.17192 0.0
H660 H 0.09746 0.52763 0.16823 0.0
H661 H 0.06934 0.53429 0.12997 0.0
C662 C 1.0181 0.46344 0.10697 0.0
C663 C 0.9884 0.42465 0.0974 0.0
C664 C 0.03707 0.45845 0.12852 0.0
C665 C 0.97916 0.37992 0.10934 0.0
C666 C 0.99907 0.37403 0.13063 0.0
C667 C 0.04549 0.40923 0.16237 0.0
C668 C 0.07199 0.44989 0.17236 0.0
C669 C 0.0278 0.41328 0.14048 0.0
C670 C 0.08013 0.49469 0.16038 0.0
C671 C 0.06325 0.49883 0.13864 0.0
H672 H 0.76366 0.74317 0.64749 0.0
H673 H 0.6327 0.83924 0.63773 0.0
H674 H 0.61951 0.80341 0.60086 0.0
H675 H 0.65067 0.7507 0.5701 0.0
H676 H 0.78951 0.66614 0.5782 0.0
H677 H 0.79368 0.69003 0.61708 0.0
C678 C 0.73186 0.75573 0.63737 0.0
C679 C 0.69939 0.79405 0.64521 0.0
C680 C 0.7256 0.73609 0.61597 0.0
C681 C 0.65859 0.81034 0.63189 0.0
C682 C 0.65098 0.7897 0.61086 0.0
C683 C 0.68072 0.73603 0.58067 0.0
C684 C 0.71754 0.70315 0.57179 0.0
C685 C 0.68492 0.75329 0.60255 0.0
C686 C 0.75803 0.68696 0.58521 0.0
C687 C 0.76129 0.70209 0.60726 0.0
H688 H 0.07428 0.02207 0.82546 0.0
H689 H 0.12887 0.86884 0.81874 0.0
H690 H 0.10662 0.85108 0.85708 0.0
H691 H 0.06158 0.87692 0.8911 0.0
H692 H 0.99697 0.02718 0.89527 0.0
H693 H 0.03266 0.04873 0.8594 0.0
C694 C 0.08266 0.98529 0.83269 0.0
C695 C 0.10573 0.94756 0.8198 0.0
C696 C 0.06664 0.97472 0.85413 0.0
C697 C 0.1144 0.89934 0.82884 0.0
C698 C 0.1004 0.88893 0.85059 0.0
C699 C 0.05593 0.91448 0.88415 0.0
C700 C 0.02651 0.95043 0.89558 0.0
C701 C 0.07523 0.92598 0.86319 0.0
C702 C 1.01897 0.99887 0.88654 0.0
C703 C 0.03948 1.01119 0.86612 0.0
H704 H 0.74062 0.26458 0.14225 0.0
H705 H 0.90147 0.23613 0.14952 0.0
H706 H 0.9172 0.2703 0.11284 0.0
H707 H 0.88363 0.30071 0.07731 0.0
H708 H 0.72255 0.3269 0.06948 0.0
H709 H 0.70809 0.30283 0.10786 0.0
C710 C 0.77905 0.26682 0.1358 0.0
C711 C 0.81979 0.24687 0.14801 0.0
C712 C 0.78764 0.28667 0.11473 0.0
C713 C 0.86959 0.25011 0.1399 0.0
C714 C 0.8786 0.27013 0.11908 0.0
C715 C 0.84579 0.30281 0.08437 0.0
C716 C 0.80435 0.31675 0.07108 0.0
C717 C 0.83778 0.28751 0.10615 0.0
C718 C 0.75501 0.31754 0.07984 0.0
C719 C 0.74671 0.30313 0.10161 0.0
H720 H 0.47825 0.0341 0.39619 0.0
H721 H 0.55359 0.18003 0.39839 0.0
H722 H 0.52089 0.19998 0.36158 0.0
H723 H 0.47885 0.17143 0.32712 0.0
H724 H 0.41195 0.02183 0.32385 0.0
H725 H 0.43354 1.00725 0.3625 0.0
C726 C 0.48677 0.07055 0.3887 0.0
C727 C 0.51848 0.10541 0.39983 0.0
C728 C 0.46942 0.08086 0.36727 0.0
C729 C 0.52973 0.15238 0.38995 0.0
C730 C 0.51099 0.16379 0.36894 0.0
C731 C 0.46736 0.13655 0.33524 0.0
C732 C 0.44148 0.09875 0.32314 0.0
C733 C 0.48176 0.1278 0.35723 0.0
C734 C 0.42943 0.05241 0.33327 0.0
C735 C 0.44261 0.04375 0.35522 0.0
H736 H 0.28183 0.32196 0.34159 0.0
H737 H 0.42264 0.23948 0.34899 0.0
H738 H 0.43261 0.27188 0.38662 0.0
H739 H 0.3961 0.31665 0.41871 0.0
H740 H 0.24778 0.38347 0.41275 0.0
H741 H 0.24626 0.36682 0.37324 0.0
C742 C 0.31519 0.31201 0.35133 0.0
C743 C 0.35138 0.27844 0.34265 0.0
C744 C 0.31953 0.32915 0.37315 0.0
C745 C 0.39407 0.26498 0.35548 0.0
C746 C 0.39974 0.28349 0.37696 0.0
C747 C 0.36448 0.32911 0.40847 0.0
C748 C 0.32423 0.35633 0.41803 0.0
C749 C 0.36205 0.31468 0.38616 0.0
C750 C 0.28167 0.36872 0.4051 0.0
C751 C 0.28005 0.35713 0.3827 0.0
H752 H 0.98567 1.00699 0.16601 0.0
H753 H 0.9151 0.15388 0.1661 0.0
H754 H 0.93634 0.16532 0.12709 0.0
H755 H 0.98543 0.13789 0.09483 0.0
H756 H 0.0679 0.9964 0.09727 0.0
H757 H 0.03254 0.97826 0.13357 0.0
C758 C 0.97352 0.04072 0.15717 0.0
C759 C 0.94542 0.07817 0.16818 0.0
C760 C 0.98955 0.04836 0.1355 0.0
C761 C 0.93236 0.12295 0.15718 0.0
C762 C 0.94607 0.13 0.13519 0.0
C763 C 0.99496 0.10281 0.10325 0.0
C764 C 0.02937 0.06865 0.09362 0.0
C765 C 0.97582 0.0935 0.12438 0.0
C766 C 0.04198 0.02348 0.10461 0.0
C767 C 1.02169 1.01307 0.12528 0.0
H768 H 0.29878 0.73158 0.91506 0.0
H769 H 0.14389 0.67718 0.9154 0.0
H770 H 0.13362 0.70035 0.87655 0.0
H771 H 0.16613 0.74537 0.84396 0.0
H772 H 0.31756 0.80982 0.84563 0.0
H773 H 0.33242 0.77338 0.88216 0.0
C774 C 0.26352 0.72313 0.90627 0.0
C775 C 0.22292 0.70038 0.91751 0.0
C776 C 0.25718 0.73942 0.8845 0.0
C777 C 0.17644 0.69175 0.90654 0.0
C778 C 0.17027 0.7062 0.88455 0.0
C779 C 0.20255 0.75067 0.85229 0.0
C780 C 0.24076 0.7801 0.84235 0.0
C781 C 0.21 0.73124 0.87355 0.0
C782 C 0.28765 0.78747 0.85319 0.0
C783 C 0.29611 0.76663 0.87399 0.0
H784 H 0.56071 0.03894 0.59315 0.0
H785 H 0.50394 0.88569 0.59681 0.0
H786 H 0.54486 0.87439 0.63275 0.0
H787 H 0.58872 0.91197 0.66483 0.0
H788 H 0.63443 0.06911 0.66324 0.0
H789 H 0.60874 0.07502 0.62454 0.0
C790 C 0.55815 1.00292 0.60176 0.0
C791 C 0.52849 0.9633 0.59279 0.0
C792 C 0.58112 0.99738 0.62257 0.0
C793 C 0.52528 0.91683 0.60391 0.0
C794 C 0.54922 0.91035 0.62427 0.0
C795 C 0.595 0.94671 0.6556 0.0
C796 C 0.61631 0.9892 0.66628 0.0
C797 C 0.57625 0.95078 0.634 0.0
C798 C 0.62132 0.0351 0.6548 0.0
C799 C 0.60544 0.03876 0.63287 0.0
H800 H 0.26695 0.93123 0.02583 0.0
H801 H 0.15238 0.9803 0.97927 0.0
H802 H 0.13425 0.89183 0.96947 0.0
H803 H 0.15484 0.80199 0.97167 0.0
H804 H 0.28061 0.75153 0.0119 0.0
H805 H 0.28869 0.83774 0.02764 0.0
C806 C 0.23807 0.92235 0.01353 0.0
C807 C 0.21117 0.96264 0.00316 0.0
C808 C 0.22914 0.87083 0.00729 0.0
C809 C 0.17401 0.95044 0.98725 0.0
C810 C 0.16329 0.89971 0.98183 0.0
C811 C 0.18316 0.80927 0.98445 0.0
C812 C 0.21651 0.76956 0.99078 0.0
C813 C 0.19089 0.85975 0.99154 0.0
C814 C 0.25348 0.78036 0.00703 0.0
C815 C 0.25885 0.83026 0.01562 0.0
H816 H 0.98563 0.54788 0.21978 0.0
H817 H 0.03905 0.44593 0.27004 0.0
H818 H 0.95371 0.44494 0.28648 0.0
H819 H 0.85984 0.46206 0.28278 0.0
H820 H 0.80716 0.55594 0.2291 0.0
H821 H 0.89498 0.56986 0.2176 0.0
C822 C 0.97932 0.52741 0.23502 0.0
C823 C 1.01981 0.49823 0.24394 0.0
C824 C 0.929 0.52352 0.24315 0.0
C825 C 1.00987 0.4704 0.26319 0.0
C826 C 0.9603 0.46863 0.27221 0.0
C827 C 0.86751 0.48579 0.26862 0.0
C828 C 0.82595 0.50735 0.25673 0.0
C829 C 0.91889 0.49309 0.26171 0.0
C830 C 0.83747 0.53808 0.23847 0.0
C831 C 0.88804 0.54645 0.23194 0.0
H832 H 0.36526 0.278 0.49856 0.0
H833 H 0.2069 0.28672 0.48031 0.0
H834 H 0.19482 0.19726 0.49046 0.0
H835 H 0.23267 0.11217 0.50013 0.0
H836 H 0.39177 0.10566 0.51842 0.0
H837 H 0.4004 0.19703 0.51227 0.0
C838 C 0.3274 0.2612 0.49797 0.0
C839 C 0.28652 0.29053 0.48956 0.0
C840 C 0.32149 0.20871 0.50287 0.0
C841 C 0.23846 0.26659 0.48784 0.0
C842 C 0.23199 0.21459 0.493 0.0
C843 C 0.26922 0.13078 0.50269 0.0
C844 C 0.31187 0.10125 0.50932 0.0
C845 C 0.27373 0.18453 0.49971 0.0
C846 C 0.35848 0.12677 0.51308 0.0
C847 C 0.3634 0.17935 0.50969 0.0
H848 H 0.71343 0.48669 0.74661 0.0
H849 H 0.72979 0.63693 0.77453 0.0
H850 H 0.63827 0.65087 0.77064 0.0
H851 H 0.55446 0.62452 0.756 0.0
H852 H 0.53561 0.47544 0.72788 0.0
H853 H 0.62522 0.4561 0.73608 0.0
C854 C 0.69694 0.52249 0.75177 0.0
C855 C 0.72935 0.56112 0.76048 0.0
C856 C 0.64305 0.53005 0.75 0.0
C857 C 0.7065 0.60668 0.76757 0.0
C858 C 0.6538 0.61464 0.76547 0.0
C859 C 0.56906 0.58666 0.75282 0.0
C860 C 0.53698 0.551 0.74199 0.0
C861 C 0.62165 0.57691 0.75655 0.0
C862 C 0.55801 0.50303 0.73709 0.0
C863 C 0.6101 0.49255 0.74116 0.0
H864 H 0.73708 0.21465 0.01454 0.0
H865 H 0.86666 0.2694 0.97849 0.0
H866 H 0.87831 0.18403 0.9625 0.0
H867 H 0.85893 0.09023 0.96338 0.0
H868 H 0.73522 0.03712 0.00397 0.0
H869 H 0.715 0.12449 0.01393 0.0
C870 C 0.76668 0.20854 0.00243 0.0
C871 C 0.80021 0.24914 -0.00258 0.0
C872 C 0.77557 0.15859 0.99487 0.0
C873 C 0.8392 0.23979 0.98218 0.0
C874 C 0.84664 0.19038 0.97351 0.0
C875 C 0.82742 0.09776 0.97435 0.0
C876 C 0.79904 0.05629 0.98306 0.0
C877 C 0.81641 0.14887 0.98051 0.0
C878 C 0.75833 0.06745 -0.00279 0.0
C879 C 0.7464 0.11772 0.00281 0.0
H880 H 0.0473 0.60939 0.73175 0.0
H881 H 0.04321 0.45787 0.75783 0.0
H882 H 0.13365 0.44679 0.7492 0.0
H883 H 0.21847 0.48602 0.73955 0.0
H884 H 0.22026 0.63955 0.71462 0.0
H885 H 0.128 0.64439 0.71803 0.0
C886 C 0.06531 0.57275 0.73431 0.0
C887 C 0.03711 0.53393 0.74481 0.0
C888 C 0.11852 0.56811 0.73064 0.0
C889 C 0.06252 0.48765 0.74884 0.0
C890 C 0.11515 0.48205 0.74462 0.0
C891 C 0.19868 0.52054 0.73492 0.0
C892 C 0.22729 0.56274 0.72716 0.0
C893 C 0.14433 0.52297 0.73652 0.0
C894 C 0.2001 0.60656 0.72082 0.0
C895 C 0.1469 0.60935 0.72262 0.0
H896 H 0.69857 0.92099 0.4628 0.0
H897 H 0.80406 0.97765 0.5121 0.0
H898 H 0.82525 0.89096 0.52255 0.0
H899 H 0.80765 0.79959 0.52096 0.0
H900 H 0.69522 0.74124 0.47553 0.0
H901 H 0.68516 0.82649 0.45961 0.0
C902 C 0.72634 0.91443 0.47578 0.0
C903 C 0.74905 0.95677 0.48677 0.0
C904 C 0.73805 0.86356 0.48214 0.0
C905 C 0.78514 0.94669 0.50348 0.0
C906 C 0.79772 0.89677 0.50941 0.0
C907 C 0.7827 0.80496 0.50682 0.0
C908 C 0.75344 0.76309 0.49911 0.0
C909 C 0.77393 0.85493 0.49914 0.0
C910 C 0.71987 0.77167 0.48132 0.0
C911 C 0.71298 0.82108 0.47266 0.0
H912 H 0.34137 0.55858 0.24387 0.0
H913 H 0.32834 0.40431 0.22019 0.0
H914 H 0.41947 0.3913 0.22648 0.0
H915 H 0.50209 0.42081 0.24175 0.0
H916 H 0.51696 0.57434 0.26532 0.0
H917 H 0.42785 0.59121 0.25529 0.0
C918 C 0.35851 0.52213 0.24014 0.0
C919 C 0.32725 0.48214 0.23192 0.0
C920 C 0.4121 0.51514 0.24323 0.0
C921 C 0.35086 0.43563 0.22672 0.0
C922 C 0.4033 0.42819 0.23021 0.0
C923 C 0.48672 0.45885 0.24353 0.0
C924 C 0.5177 0.497 0.2533 0.0
C925 C 0.4344 0.46745 0.23859 0.0
C926 C 0.49554 0.54509 0.25666 0.0
C927 C 0.44377 0.55423 0.25154 0.0
H928 H 0.71381 0.42666 0.53081 0.0
H929 H 0.79891 0.47223 0.47354 0.0
H930 H 0.80649 0.38352 0.46232 0.0
H931 H 0.78207 0.29394 0.46635 0.0
H932 H 0.68746 0.24826 0.52035 0.0
H933 H 0.69293 0.33437 0.53582 0.0
C934 C 0.73417 0.41726 0.51589 0.0
C935 C 0.75526 0.45701 0.50296 0.0
C936 C 0.73779 0.36544 0.50919 0.0
C937 C 0.78158 0.4433 0.48374 0.0
C938 C 0.78634 0.39222 0.47736 0.0
C939 C 0.76457 0.30216 0.48209 0.0
C940 C 0.73602 0.26338 0.49254 0.0
C941 C 0.76407 0.35302 0.48975 0.0
C942 C 0.71183 0.27583 0.51241 0.0
C943 C 0.71365 0.3259 0.5209 0.0
H944 H 0.38468 1.01942 0.7783 0.0
H945 H 0.3297 0.92037 0.72653 0.0
H946 H 0.41714 0.90596 0.71447 0.0
H947 H 0.5074 0.92623 0.71637 0.0
H948 H 0.56415 0.03612 0.76328 0.0
H949 H 0.4791 0.03991 0.78017 0.0
C950 C 0.39206 0.99462 0.76441 0.0
C951 C 0.35035 0.97104 0.75325 0.0
C952 C 0.443 0.98804 0.75692 0.0
C953 C 0.36065 0.93931 0.73524 0.0
C954 C 0.41079 0.93082 0.72844 0.0
C955 C 0.50177 0.95045 0.73064 0.0
C956 C 0.5429 0.98086 0.73843 0.0
C957 C 0.45205 0.95547 0.73893 0.0
C958 C 0.53419 1.01183 0.75692 0.0
C959 C 0.48495 1.0146 0.76633 0.0
H960 H 0.90216 0.71475 0.98429 0.0
H961 H 0.75153 0.7683 -0.00081 0.0
H962 H 0.7287 0.68313 0.01312 0.0
H963 H 0.74958 0.58923 0.01656 0.0
H964 H 0.8966 0.53757 0.99439 0.0
H965 H 0.92237 0.62509 0.98719 0.0
C966 C 0.8645 0.7084 0.9911 0.0
C967 C 0.82887 0.74876 0.99095 0.0
C968 C 0.85063 0.65852 -0.00294 0.0
C969 C 0.78024 0.73903 -0.00039 0.0
C970 C 0.76696 0.68969 0.0071 0.0
C971 C 0.78724 0.59735 0.01019 0.0
C972 C 0.82119 0.55643 0.006 0.0
C973 C 0.80134 0.64849 0.00515 0.0
C974 C 0.86965 0.56779 -0.00238 0.0
C975 C 0.88454 0.61805 0.99362 0.0
H976 H 0.04278 0.99406 0.22204 0.0
H977 H 0.98609 0.11301 0.26384 0.0
H978 H 0.0715 0.12296 0.28051 0.0
H979 H 0.16594 0.10691 0.27867 0.0
H980 H 0.22101 0.99523 0.23244 0.0
H981 H 0.13365 0.97452 0.22171 0.0
C982 C 0.0485 1.02067 0.23553 0.0
C983 C 1.00735 0.05191 0.24195 0.0
C984 C 0.09852 0.02915 0.24353 0.0
C985 C 1.01616 0.08724 0.25899 0.0
C986 C 0.0656 0.09388 0.26808 0.0
C987 C 0.15881 0.07786 0.26632 0.0
C988 C 0.20077 0.05315 0.25624 0.0
C989 C 0.10769 0.06669 0.25972 0.0
C990 C 0.1902 1.01558 0.24029 0.0
C991 C 0.13997 1.00332 0.23424 0.0
H992 H 0.24909 0.75859 0.52673 0.0
H993 H 0.33715 0.81232 0.47205 0.0
H994 H 0.3349 0.72662 0.45571 0.0
H995 H 0.31929 0.63274 0.46009 0.0
H996 H 0.23924 0.58033 0.51763 0.0
H997 H 0.22824 0.66793 0.52982 0.0
C998 C 0.26573 0.75222 0.51066 0.0
C999 C 0.29211 0.7929 0.50045 0.0
C1000 C 0.26786 0.70187 0.50236 0.0
C1001 C 0.31498 0.7829 0.48002 0.0
C1002 C 0.31493 0.73319 0.47099 0.0
C1003 C 0.29926 0.64039 0.47527 0.0
C1004 C 0.28073 0.5989 0.48798 0.0
C1005 C 0.29354 0.69175 0.48253 0.0
C1006 C 0.2547 0.61051 0.50754 0.0
C1007 C 0.24798 0.66099 0.5145 0.0
H1008 H 0.66692 1.00397 0.22031 0.0
H1009 H 0.72444 0.14308 0.24922 0.0
H1010 H 0.63784 0.16878 0.25833 0.0
H1011 H 0.5473 0.14951 0.26125 0.0
H1012 H 0.48877 1.0054 0.23904 0.0
H1013 H 0.57255 0.98472 0.22322 0.0
C1014 C 0.66029 0.04001 0.22849 0.0
C1015 C 0.70262 0.07157 0.2341 0.0
C1016 C 0.60973 0.05395 0.23454 0.0
C1017 C 0.69312 0.11787 0.24487 0.0
C1018 C 0.64338 0.13276 0.24998 0.0
C1019 C 0.55223 0.11404 0.25234 0.0
C1020 C 0.51064 0.07962 0.2508 0.0
C1021 C 0.60155 0.10091 0.2452 0.0
C1022 C 0.51871 0.0335 0.23966 0.0
C1023 C 0.56736 0.02126 0.23117 0.0
H1024 H 0.14251 0.2996 0.00332 0.0
H1025 H 0.29469 0.25198 0.98782 0.0
H1026 H 0.314 0.33743 0.97363 0.0
H1027 H 0.29067 0.43046 0.97107 0.0
H1028 H 0.14278 0.47739 0.99406 0.0
H1029 H 0.1192 0.38886 0.00051 0.0
C1030 C 0.17942 0.30725 -0.00398 0.0
C1031 C 0.21656 0.26832 -0.00395 0.0
C1032 C 0.19159 0.35771 0.99016 0.0
C1033 C 0.26459 0.27983 0.98716 0.0
C1034 C 0.27601 0.32951 0.97967 0.0
C1035 C 0.25327 0.42111 0.97742 0.0
C1036 C 0.21859 0.46094 0.98221 0.0
C1037 C 0.24045 0.36946 0.98197 0.0
C1038 C 0.17041 0.44797 0.99051 0.0
C1039 C 0.15673 0.39715 0.99403 0.0
H1040 H 1.01249 0.05395 0.77267 0.0
H1041 H 0.06535 0.95051 0.72294 0.0
H1042 H 0.97987 0.94944 0.70601 0.0
H1043 H 0.88625 0.96595 0.70954 0.0
H1044 H 0.83386 0.06061 0.76287 0.0
H1045 H 0.92197 0.07606 0.77442 0.0
C1046 C 1.00594 0.03298 0.75749 0.0
C1047 C 0.04603 1.00316 0.74889 0.0
C1048 C 0.95567 0.02913 0.74909 0.0
C1049 C 0.0362 0.97514 0.72958 0.0
C1050 C 0.98665 0.97342 0.72028 0.0
C1051 C 0.89409 0.99042 0.72355 0.0
C1052 C 0.85275 1.01171 0.7354 0.0
C1053 C 0.94544 0.99822 0.73055 0.0
C1054 C 0.86423 0.04316 0.75355 0.0
C1055 C 0.91487 0.05228 0.76011 0.0
H1056 H 0.27019 0.09952 0.92667 0.0
H1057 H 0.12051 0.16706 0.92455 0.0
H1058 H 0.10959 0.13894 0.88629 0.0
H1059 H 0.14101 0.09058 0.85418 0.0
H1060 H 0.2875 1.01673 0.85825 0.0
H1061 H 0.30123 0.05172 0.89507 0.0
C1062 C 0.23553 0.10899 0.91774 0.0
C1063 C 0.19643 0.13586 0.92834 0.0
C1064 C 0.22876 0.09099 0.89617 0.0
C1065 C 0.15129 0.14673 0.91667 0.0
C1066 C 0.14496 0.13045 0.89485 0.0
C1067 C 0.17606 0.08261 0.86311 0.0
C1068 C 0.21332 0.05135 0.85354 0.0
C1069 C 0.18314 0.10182 0.88455 0.0
C1070 C 0.25822 0.04054 0.86535 0.0
C1071 C 0.26617 0.06067 0.88636 0.0
H1072 H 0.66498 0.48001 0.10489 0.0
H1073 H 0.80745 0.40147 0.11573 0.0
H1074 H 0.78921 0.3947 0.15474 0.0
H1075 H 0.7362 0.41585 0.18619 0.0
H1076 H 0.59732 0.50084 0.17661 0.0
H1077 H 0.61054 0.49998 0.13675 0.0
C1078 C 0.69192 0.46132 0.11579 0.0
C1079 C 0.73736 0.44108 0.1073 0.0
C1080 C 0.68189 0.45874 0.13847 0.0
C1081 C 0.77204 0.41726 0.12172 0.0
C1082 C 0.76171 0.41334 0.14409 0.0
C1083 C 0.70831 0.43351 0.17539 0.0
C1084 C 0.66579 0.45828 0.18433 0.0
C1085 C 0.71711 0.43447 0.15268 0.0
C1086 C 0.6304 0.48151 0.1701 0.0
C1087 C 0.63806 0.48122 0.14734 0.0
H1088 H 0.26837 0.9552 0.35535 0.0
H1089 H 0.34444 0.09886 0.36745 0.0
H1090 H 0.35686 0.07652 0.40585 0.0
H1091 H 0.34555 1.01737 0.43616 0.0
H1092 H 0.2624 0.87736 0.42595 0.0
H1093 H 0.25347 0.89691 0.3866 0.0
C1094 C 0.28737 0.98169 0.36643 0.0
C1095 C 0.30607 0.0283 0.35839 0.0
C1096 C 0.2934 0.96915 0.38879 0.0
C1097 C 0.33002 0.06249 0.37306 0.0
C1098 C 0.3373 0.04977 0.39507 0.0
C1099 C 0.32602 0.99077 0.42527 0.0
C1100 C 0.30531 0.94566 0.43377 0.0
C1101 C 0.31935 1.00321 0.40307 0.0
C1102 C 0.27895 0.91217 0.41964 0.0
C1103 C 0.2737 0.92345 0.39723 0.0
H1104 H 0.8225 0.60605 0.60789 0.0
H1105 H 0.78231 0.44688 0.60959 0.0
H1106 H 0.8237 0.43858 0.64551 0.0
H1107 H 0.86538 0.47788 0.67771 0.0
H1108 H 0.90076 0.63833 0.67702 0.0
H1109 H 0.8673 0.6448 0.63949 0.0
C1110 C 0.82247 0.56968 0.61617 0.0
C1111 C 0.79841 0.52748 0.60619 0.0
C1112 C 0.8456 0.56537 0.63703 0.0
C1113 C 0.80009 0.48018 0.61692 0.0
C1114 C 0.82378 0.47536 0.6375 0.0
C1115 C 0.86664 0.5141 0.66922 0.0
C1116 C 0.8856 0.55757 0.68018 0.0
C1117 C 0.84592 0.51787 0.64787 0.0
C1118 C 0.88637 0.60429 0.66898 0.0
C1119 C 0.86702 0.60807 0.64754 0.0
H1120 H 0.89617 0.88865 0.06802 0.0
H1121 H 0.73794 0.9262 0.05712 0.0
H1122 H 0.73333 0.96366 0.09389 0.0
H1123 H 0.77555 0.98964 0.12867 0.0
H1124 H 0.93079 0.9437 0.14107 0.0
H1125 H 0.93565 0.90647 0.10427 0.0
C1126 C 0.86052 0.90442 0.07384 0.0
C1127 C 0.81753 0.90468 0.05983 0.0
C1128 C 0.85787 0.92518 0.09519 0.0
C1129 C 0.7715 0.92505 0.06763 0.0
C1130 C 0.76894 0.94692 0.0886 0.0
C1131 C 0.81034 0.97139 0.12327 0.0
C1132 C 0.85311 0.97039 0.13736 0.0
C1133 C 0.81208 0.94791 0.10242 0.0
C1134 C 0.89759 0.94559 0.1304 0.0
C1135 C 0.90033 0.92409 0.10938 0.0
H1136 H 0.31509 0.61543 0.80526 0.0
H1137 H 0.44043 0.51138 0.81408 0.0
H1138 H 0.42243 0.50657 0.85356 0.0
H1139 H 0.36794 0.52889 0.88517 0.0
H1140 H 0.23788 0.62614 0.87458 0.0
H1141 H 0.26115 0.63721 0.83629 0.0
C1142 C 0.33897 0.59218 0.81583 0.0
C1143 C 0.37918 0.564 0.8068 0.0
C1144 C 0.32736 0.58829 0.83821 0.0
C1145 C 0.40925 0.53347 0.82069 0.0
C1146 C 0.39888 0.53062 0.84322 0.0
C1147 C 0.34486 0.55261 0.87449 0.0
C1148 C 0.3016 0.57738 0.88288 0.0
C1149 C 0.35749 0.55729 0.85211 0.0
C1150 C 0.2718 0.60748 0.86871 0.0
C1151 C 0.28493 0.61357 0.84673 0.0
H1152 H 0.69889 0.12479 0.6402 0.0
H1153 H 0.79866 0.99768 0.62852 0.0
H1154 H 0.80845 0.02349 0.59016 0.0
H1155 H 0.78429 0.07865 0.55948 0.0
H1156 H 0.67491 0.19831 0.56942 0.0
H1157 H 0.67297 0.17929 0.60897 0.0
C1158 C 0.72316 0.10322 0.62925 0.0
C1159 C 0.74835 0.05967 0.63707 0.0
C1160 C 0.72659 0.11688 0.60696 0.0
C1161 C 0.77897 0.03134 0.62275 0.0
C1162 C 0.78454 0.04606 0.60087 0.0
C1163 C 0.76075 0.10112 0.57041 0.0
C1164 C 0.73045 0.14035 0.56179 0.0
C1165 C 0.758 0.08831 0.59274 0.0
C1166 C 0.69886 0.16825 0.57587 0.0
C1167 C 0.69769 0.15727 0.5984 0.0
H1168 H 0.25091 0.5441 0.37916 0.0
H1169 H 0.1555 0.41876 0.39893 0.0
H1170 H 0.11857 0.41359 0.36184 0.0
H1171 H 0.11774 0.44164 0.32301 0.0
H1172 H 0.20754 0.57238 0.30452 0.0
H1173 H 0.24162 0.57917 0.34185 0.0
C1174 C 0.22161 0.51611 0.37533 0.0
C1175 C 0.2062 0.48157 0.39153 0.0
C1176 C 0.19951 0.5144 0.35421 0.0
C1177 C 0.16777 0.44581 0.38662 0.0
C1178 C 0.14684 0.44271 0.36542 0.0
C1179 C 0.14415 0.47202 0.3273 0.0
C1180 C 0.1603 0.50622 0.31103 0.0
C1181 C 0.16296 0.47637 0.34898 0.0
C1182 C 0.19425 0.54571 0.31679 0.0
C1183 C 0.2141 0.54944 0.3381 0.0
H1184 H 0.78208 0.54129 0.36087 0.0
H1185 H 0.64434 0.62382 0.34628 0.0
H1186 H 0.64561 0.66128 0.38326 0.0
H1187 H 0.68328 0.66562 0.42071 0.0
H1188 H 0.82576 0.58935 0.43374 0.0
H1189 H 0.82604 0.55531 0.39637 0.0
C1190 C 0.75276 0.56792 0.3658 0.0
C1191 C 0.71284 0.57941 0.35117 0.0
C1192 C 0.75476 0.59055 0.38676 0.0
C1193 C 0.67538 0.6145 0.35742 0.0
C1194 C 0.67604 0.63577 0.37854 0.0
C1195 C 0.71478 0.64233 0.41518 0.0
C1196 C 0.75426 0.62984 0.42998 0.0
C1197 C 0.71518 0.62348 0.39348 0.0
C1198 C 0.79508 0.59986 0.42262 0.0
C1199 C 0.79507 0.57996 0.4013 0.0
H1200 H 0.27343 0.02476 0.61099 0.0
H1201 H 0.19922 0.88271 0.59497 0.0
H1202 H 0.16077 0.8801 0.63152 0.0
H1203 H 0.15276 0.91604 0.66899 0.0
H1204 H 0.22002 0.0626 0.68334 0.0
H1205 H 0.25563 0.06625 0.64644 0.0
C1206 C 0.24859 0.99345 0.61552 0.0
C1207 C 0.24007 0.9534 0.60061 0.0
C1208 C 0.22508 0.99321 0.63622 0.0
C1209 C 0.20676 0.91369 0.60635 0.0
C1210 C 0.18476 0.91218 0.62722 0.0
C1211 C 0.17445 0.94911 0.66385 0.0
C1212 C 0.18396 0.98878 0.6789 0.0
C1213 C 0.19423 0.95142 0.64242 0.0
C1214 C 0.21184 0.03165 0.67203 0.0
C1215 C 0.23265 0.03361 0.65098 0.0
H1216 H 0.89023 0.48535 0.93516 0.0
H1217 H 0.83928 0.33311 0.91979 0.0
H1218 H 0.83646 0.35442 0.8805 0.0
H1219 H 0.8439 0.4182 0.85089 0.0
H1220 H 0.8866 0.57251 0.86766 0.0
H1221 H 0.89662 0.54861 0.90607 0.0
C1222 C 0.87944 0.45648 0.92319 0.0
C1223 C 0.86566 0.40752 0.93027 0.0
C1224 C 0.87553 0.46971 0.90092 0.0
C1225 C 0.85048 0.37093 0.91464 0.0
C1226 C 0.84854 0.38323 0.89224 0.0
C1227 C 0.85532 0.44658 0.86296 0.0
C1228 C 0.86465 0.49702 0.85632 0.0
C1229 C 0.86007 0.43283 0.88524 0.0
C1230 C 0.87902 0.53342 0.87224 0.0
C1231 C 0.88499 0.51979 0.89425 0.0
H1232 H 0.3938 0.04671 0.17133 0.0
H1233 H 0.2783 0.15524 0.1898 0.0
H1234 H 0.24157 0.15117 0.15298 0.0
H1235 H 0.23868 0.11313 0.11632 0.0
H1236 H 0.35762 1.01053 0.09616 0.0
H1237 H 0.39552 1.01466 0.13304 0.0
C1238 C 0.3611 0.07006 0.16718 0.0
C1239 C 0.33877 0.10097 0.18341 0.0
C1240 C 0.3402 0.06799 0.14579 0.0
C1241 C 0.29646 0.13115 0.17771 0.0
C1242 C 0.27512 0.12866 0.15665 0.0
C1243 C 0.2736 0.09264 0.11976 0.0
C1244 C 0.29558 0.06222 0.10336 0.0
C1245 C 0.29618 0.09667 0.14069 0.0
C1246 C 0.33985 0.03439 0.10844 0.0
C1247 C 0.36172 0.03692 0.12951 0.0
H1248 H 0.3676 0.5018 0.55428 0.0
H1249 H 0.26742 0.37482 0.56697 0.0
H1250 H 0.26693 0.39658 0.60622 0.0
H1251 H 0.29106 0.4551 0.63644 0.0
H1252 H 0.38477 0.58632 0.62219 0.0
H1253 H 0.39179 0.55936 0.58405 0.0
C1254 C 0.34634 0.47827 0.56566 0.0
C1255 C 0.31784 0.43658 0.55779 0.0
C1256 C 0.34465 0.49215 0.5879 0.0
C1257 C 0.28979 0.40704 0.5727 0.0
C1258 C 0.28929 0.41964 0.59508 0.0
C1259 C 0.31297 0.47777 0.62498 0.0
C1260 C 0.33783 0.52234 0.63228 0.0
C1261 C 0.31577 0.46277 0.6028 0.0
C1262 C 0.36582 0.55144 0.61715 0.0
C1263 C 0.36979 0.53616 0.59528 0.0
H1264 H 0.84486 0.03194 0.3879 0.0
H1265 H 0.69996 0.10532 0.37624 0.0
H1266 H 0.72507 0.12551 0.33885 0.0
H1267 H 0.78636 0.12009 0.30904 0.0
H1268 H 0.92792 0.03983 0.31867 0.0
H1269 H 0.9063 0.02505 0.35736 0.0
C1270 C 0.81872 0.05205 0.37712 0.0
C1271 C 0.77085 0.06758 0.38498 0.0
C1272 C 0.83298 0.06271 0.35534 0.0
C1273 C 0.73728 0.09336 0.37074 0.0
C1274 C 0.75158 0.10502 0.34932 0.0
C1275 C 0.81297 0.10018 0.3197 0.0
C1276 C 0.85897 0.08166 0.31117 0.0
C1277 C 0.79927 0.08993 0.34147 0.0
C1278 C 0.89246 0.05479 0.325 0.0
C1279 C 0.87993 0.04606 0.34703 0.0
H1280 H 0.21041 0.65415 0.06927 0.0
H1281 H 0.11024 0.53024 0.05051 0.0
H1282 H 0.11999 0.49292 0.08688 0.0
H1283 H 0.16157 0.49187 0.12305 0.0
H1284 H 0.25668 0.61818 0.14322 0.0
H1285 H 0.24553 0.65722 0.10703 0.0
C1286 C 0.18984 0.61956 0.07327 0.0
C1287 C 0.15993 0.59499 0.05702 0.0
C1288 C 0.19547 0.5981 0.09434 0.0
C1289 C 0.13353 0.55015 0.06258 0.0
C1290 C 0.13932 0.52847 0.08338 0.0
C1291 C 0.17901 0.52847 0.11975 0.0
C1292 C 0.20944 0.55221 0.13596 0.0
C1293 C 0.17098 0.55155 0.09922 0.0
C1294 C 0.23303 0.59894 0.13108 0.0
C1295 C 0.22642 0.62149 0.11042 0.0
H1296 H 0.82643 0.90937 0.87213 0.0
H1297 H 0.69233 0.99157 0.89222 0.0
H1298 H 0.65701 0.98434 0.85502 0.0
H1299 H 0.66605 0.95811 0.8164 0.0
H1300 H 0.7994 0.87386 0.79673 0.0
H1301 H 0.83212 0.87689 0.83436 0.0
C1302 C 0.78905 0.92491 0.86851 0.0
C1303 C 0.76203 0.95073 0.88503 0.0
C1304 C 0.76851 0.91976 0.8472 0.0
C1305 C 0.71413 0.97165 0.87985 0.0
C1306 C 0.69373 0.96727 0.85859 0.0
C1307 C 0.7017 0.93934 0.8204 0.0
C1308 C 0.73029 0.91608 0.80363 0.0
C1309 C 0.72071 0.94166 0.84209 0.0
C1310 C 0.77654 0.89215 0.80922 0.0
C1311 C 0.7955 0.89408 0.83075 0.0
H1312 H 0.53979 0.34953 0.97164 0.0
H1313 H 0.65511 0.26492 0.00717 0.0
H1314 H 0.59528 0.19565 0.01243 0.0
H1315 H 0.50903 0.16083 0.00911 0.0
H1316 H 0.3917 0.24934 0.97662 0.0
H1317 H 0.45372 0.31443 0.9681 0.0
C1318 C 0.55216 0.31599 0.98052 0.0
C1319 C 0.60258 0.31292 0.98867 0.0
C1320 C 0.517 0.27656 0.98415 0.0
C1321 C 0.61739 0.2687 9e-05 0.0
C1322 C 0.58282 0.2289 0.00338 0.0
C1323 C 0.4967 0.19414 6e-05 0.0
C1324 C 0.44518 0.19905 0.99349 0.0
C1325 C 0.53237 0.23272 -0.00428 0.0
C1326 C 0.43069 0.2429 0.9817 0.0
C1327 C 0.4663 0.2809 0.97693 0.0
H1328 H 0.60911 0.7703 0.22712 0.0
H1329 H 0.50705 0.64423 0.23882 0.0
H1330 H 0.43398 0.70029 0.23557 0.0
H1331 H 0.40092 0.78735 0.23706 0.0
H1332 H 0.50382 0.91394 0.22764 0.0
H1333 H 0.57413 0.85562 0.22178 0.0
C1334 C 0.57081 0.75488 0.2285 0.0
C1335 C 0.56378 0.7033 0.23379 0.0
C1336 C 0.52893 0.78769 0.2272 0.0
C1337 C 0.51389 0.68367 0.23496 0.0
C1338 C 0.4719 0.71592 0.23325 0.0
C1339 C 0.43849 0.8021 0.23315 0.0
C1340 C 0.44713 0.85489 0.23315 0.0
C1341 C 0.47923 0.76835 0.23055 0.0
C1342 C 0.4958 0.87356 0.22771 0.0
C1343 C 0.53634 0.84015 0.2246 0.0
H1344 H 0.13286 0.79575 0.50952 0.0
H1345 H 1.01536 0.91016 0.50554 0.0
H1346 H 0.95007 0.84405 0.50291 0.0
H1347 H 0.92606 0.75467 0.50565 0.0
H1348 H 0.04294 0.63985 0.51057 0.0
H1349 H 0.10898 0.7055 0.50874 0.0
C1350 C 0.09314 0.80628 0.50749 0.0
C1351 C 0.07897 0.85781 0.50771 0.0
C1352 C 0.05568 0.76808 0.50636 0.0
C1353 C 0.02717 0.8707 0.50557 0.0
C1354 C 0.98981 0.83297 0.50406 0.0
C1355 C 0.96589 0.74369 0.50566 0.0
C1356 C 0.97953 0.69235 0.50813 0.0
C1357 C 1.00355 0.78158 0.50498 0.0
C1358 C 0.03147 0.67918 0.50877 0.0
C1359 C 0.06924 0.71665 0.50773 0.0
H1360 H 0.06045 0.16064 0.75448 0.0
H1361 H 0.17944 0.27473 0.75685 0.0
H1362 H 0.11563 0.3418 0.75422 0.0
H1363 H 0.02605 0.36796 0.75465 0.0
H1364 H 0.90729 0.25379 0.75274 0.0
H1365 H 0.97131 0.18682 0.75144 0.0
C1366 C 0.07274 0.20002 0.75382 0.0
C1367 C 0.12486 0.21247 0.75579 0.0
C1368 C 0.03585 0.2385 0.75254 0.0
C1369 C 0.13958 0.264 0.7555 0.0
C1370 C 0.10313 0.30245 0.75397 0.0
C1371 C 1.01403 0.32863 0.75335 0.0
C1372 C 0.96183 0.31609 0.75378 0.0
C1373 C 0.05109 0.29017 0.75294 0.0
C1374 C 0.94723 0.26457 0.75259 0.0
C1375 C 0.9838 0.22619 0.75185 0.0
H1376 H 0.52862 0.84386 0.97467 0.0
H1377 H 0.64542 0.748 0.0028 0.0
H1378 H 0.58057 0.68718 0.01439 0.0
H1379 H 0.49137 0.65961 0.0153 0.0
H1380 H 0.37421 0.7571 0.98812 0.0
H1381 H 0.43877 0.8179 0.97703 0.0
C1382 C 0.53989 0.80976 0.98343 0.0
C1383 C 0.59182 0.8009 0.98802 0.0
C1384 C 0.50243 0.77467 0.98992 0.0
C1385 C 0.60575 0.75654 -0.00055 0.0
C1386 C 0.56867 0.72138 0.00589 0.0
C1387 C 0.47963 0.69414 0.007 0.0
C1388 C 0.4276 0.70248 0.00217 0.0
C1389 C 0.51695 0.72988 0.00104 0.0
C1390 C 0.41367 0.74798 0.9915 0.0
C1391 C 0.45071 0.78344 0.98533 0.0
H1392 H 0.57793 0.22057 0.78449 0.0
H1393 H 0.61203 0.16699 0.71892 0.0
H1394 H 0.557 0.23206 0.70333 0.0
H1395 H 0.49907 0.30418 0.70815 0.0
H1396 H 0.46621 0.3586 0.77362 0.0
H1397 H 0.52197 0.29389 0.78927 0.0
C1398 C 0.57365 0.22312 0.76676 0.0
C1399 C 0.59856 0.188 0.75304 0.0
C1400 C 0.5425 0.26117 0.75781 0.0
C1401 C 0.59237 0.1922 0.73008 0.0
C1402 C 0.56121 0.22987 0.72106 0.0
C1403 C 0.50407 0.30188 0.72585 0.0
C1404 C 0.47881 0.33655 0.73963 0.0
C1405 C 0.53592 0.26436 0.73478 0.0
C1406 C 0.48593 0.33321 0.76254 0.0
C1407 C 0.5175 0.29588 0.77154 0.0
H1408 H 0.11577 0.29355 0.48948 0.0
H1409 H 1.00461 0.4055 0.50875 0.0
H1410 H 0.93845 0.34004 0.50965 0.0
H1411 H 0.91016 0.25489 0.49918 0.0
H1412 H 1.02046 0.14341 0.47834 0.0
H1413 H 0.0893 0.20497 0.48406 0.0
C1414 C 0.07754 0.30335 0.4946 0.0
C1415 C 0.06501 0.3543 0.49893 0.0
C1416 C 0.03939 0.26581 0.49446 0.0
C1417 C 1.015 0.36651 0.50516 0.0
C1418 C 0.97714 0.32917 0.50562 0.0
C1419 C 0.94932 0.24331 0.49659 0.0
C1420 C 0.96011 0.19462 0.48827 0.0
C1421 C 0.98852 0.27915 0.49943 0.0
C1422 C 1.01113 0.18089 0.48455 0.0
C1423 C 0.05051 0.21603 0.4878 0.0
H1424 H 0.10326 0.77015 0.21486 0.0
H1425 H 1.0118 0.64084 0.2344 0.0
H1426 H 0.93926 0.69606 0.24018 0.0
H1427 H 0.90154 0.78088 0.24016 0.0
H1428 H 0.99081 0.90919 0.21778 0.0
H1429 H 0.06397 0.85427 0.21274 0.0
C1430 C 0.06749 0.75379 0.22032 0.0
C1431 C 0.064 0.7013 0.22469 0.0
C1432 C 0.02525 0.78566 0.22322 0.0
C1433 C 1.01689 0.68111 0.2316 0.0
C1434 C 0.97487 0.7127 0.23471 0.0
C1435 C 0.93684 0.79705 0.23407 0.0
C1436 C 0.94046 0.84964 0.22998 0.0
C1437 C 0.97874 0.76504 0.2307 0.0
C1438 C 0.98674 0.86944 0.22194 0.0
C1439 C 0.02876 0.83783 0.21876 0.0
loop_
_geom_bond_atom_site_label_1
_geom_bond_atom_site_label_2
_geom_bond_distance
_geom_bond_site_symmetry_2
_ccdc_geom_bond_type
Zn0 N4 2.020 . S
Zn0 O8 2.019 . S
Zn0 N10 2.119 . S
Zn0 O18 1.975 . S
C1 N2 1.334 . S
C1 N5 1.336 . S
N2 C1 1.334 . S
N2 C3 1.334 . S
C3 N2 1.334 . S
C3 N4 1.336 . S
N4 Zn0 2.020 . S
N4 C3 1.336 . S
N4 N5 1.354 . S
N5 C1 1.336 . S
N5 N4 1.354 . S
N5 Zn9 2.020 . S
C6 O7 1.244 . S
C6 O30 1.257 . S
O7 C6 1.244 . S
O8 Zn0 2.019 . S
O8 C28 1.257 . S
Zn9 N5 2.020 . S
Zn9 O16 1.975 . S
Zn9 N25 2.119 . S
Zn9 O30 2.019 1_554 S
N10 Zn0 2.119 . S
N10 C12 1.334 . S
N10 C13 1.328 . S
C11 C12 1.391 . S
C11 N14 1.329 . S
C11 H32 0.930 . S
C12 N10 1.334 . S
C12 C11 1.391 . S
C12 H19 0.930 . S
C13 N10 1.328 . S
C13 C15 1.392 . S
C13 H20 0.930 . S
N14 C11 1.329 . S
N14 C15 1.331 . S
C15 C13 1.392 . S
C15 N14 1.331 . S
O16 Zn9 1.975 . S
O16 C17 1.252 . S
C17 O16 1.252 . S
C17 O18 1.252 . S
O18 Zn0 1.975 . S
O18 C17 1.252 . S
H19 C12 0.930 . S
H20 C13 0.930 . S
C21 C22 1.392 . S
C21 N25 1.328 1_556 S
C21 H27 0.930 . S
C22 C21 1.392 . S
C22 N26 1.331 1_556 S
C23 C24 1.391 . S
C23 N26 1.329 . S
C23 H33 0.930 . S
C24 C23 1.391 . S
C24 N25 1.334 . S
C24 H31 0.930 . S
N25 Zn9 2.119 . S
N25 C21 1.328 1_554 S
N25 C24 1.334 . S
N26 C22 1.331 1_554 S
N26 C23 1.329 . S
H27 C21 0.930 . S
C28 O8 1.257 . S
C28 O29 1.244 . S
O29 C28 1.244 . S
O30 C6 1.257 . S
O30 Zn9 2.019 1_556 S
H31 C24 0.930 . S
H32 C11 0.930 . S
H33 C23 0.930 . S
Zn34 N38 2.020 . S
Zn34 O42 2.019 . S
Zn34 N44 2.119 . S
Zn34 O52 1.975 . S
C35 N36 1.334 . S
C35 N39 1.336 . S
N36 C35 1.334 . S
N36 C37 1.334 . S
C37 N36 1.334 . S
C37 N38 1.336 . S
N38 Zn34 2.020 . S
N38 C37 1.336 . S
N38 N39 1.354 . S
N39 C35 1.336 . S
N39 N38 1.354 . S
N39 Zn43 2.020 . S
C40 O41 1.244 . S
C40 O64 1.257 . S
O41 C40 1.244 . S
O42 Zn34 2.019 . S
O42 C62 1.257 . S
Zn43 N39 2.020 . S
Zn43 O50 1.975 . S
Zn43 N59 2.119 . S
Zn43 O64 2.019 . S
N44 Zn34 2.119 . S
N44 C46 1.334 . S
N44 C47 1.328 . S
C45 C46 1.391 . S
C45 N48 1.329 . S
C45 H66 0.930 . S
C46 N44 1.334 . S
C46 C45 1.391 . S
C46 H53 0.930 . S
C47 N44 1.328 . S
C47 C49 1.392 . S
C47 H54 0.930 . S
N48 C45 1.329 . S
N48 C49 1.331 . S
C49 C47 1.392 . S
C49 N48 1.331 . S
O50 Zn43 1.975 . S
O50 C51 1.252 . S
C51 O50 1.252 . S
C51 O52 1.252 . S
O52 Zn34 1.975 . S
O52 C51 1.252 . S
H53 C46 0.930 . S
H54 C47 0.930 . S
C55 C56 1.392 . S
C55 N59 1.328 . S
C55 H61 0.930 . S
C56 C55 1.392 . S
C56 N60 1.331 . S
C57 C58 1.391 . S
C57 N60 1.329 . S
C57 H67 0.930 . S
C58 C57 1.391 . S
C58 N59 1.334 . S
C58 H65 0.930 . S
N59 Zn43 2.119 . S
N59 C55 1.328 . S
N59 C58 1.334 . S
N60 C56 1.331 . S
N60 C57 1.329 . S
H61 C55 0.930 . S
C62 O42 1.257 . S
C62 O63 1.244 . S
O63 C62 1.244 . S
O64 C40 1.257 . S
O64 Zn43 2.019 . S
H65 C58 0.930 . S
H66 C45 0.930 . S
H67 C57 0.930 . S
Zn68 N72 2.020 . S
Zn68 O76 2.019 . S
Zn68 N78 2.119 . S
Zn68 O86 1.975 . S
C69 N70 1.334 . S
C69 N73 1.336 . S
N70 C69 1.334 . S
N70 C71 1.334 . S
C71 N70 1.334 . S
C71 N72 1.336 . S
N72 Zn68 2.020 . S
N72 C71 1.336 . S
N72 N73 1.354 . S
N73 C69 1.336 . S
N73 N72 1.354 . S
N73 Zn77 2.020 . S
C74 O75 1.244 . S
C74 O98 1.257 . S
O75 C74 1.244 . S
O76 Zn68 2.019 . S
O76 C96 1.257 . S
Zn77 N73 2.020 . S
Zn77 O84 1.975 . S
Zn77 N93 2.119 . S
Zn77 O98 2.019 . S
N78 Zn68 2.119 . S
N78 C80 1.334 . S
N78 C81 1.328 . S
C79 C80 1.391 . S
C79 N82 1.329 . S
C79 H100 0.930 . S
C80 N78 1.334 . S
C80 C79 1.391 . S
C80 H87 0.930 . S
C81 N78 1.328 . S
C81 C83 1.392 . S
C81 H88 0.930 . S
N82 C79 1.329 . S
N82 C83 1.331 . S
C83 C81 1.392 . S
C83 N82 1.331 . S
O84 Zn77 1.975 . S
O84 C85 1.252 . S
C85 O84 1.252 . S
C85 O86 1.252 . S
O86 Zn68 1.975 . S
O86 C85 1.252 . S
H87 C80 0.930 . S
H88 C81 0.930 . S
C89 C90 1.392 . S
C89 N93 1.328 . S
C89 H95 0.930 . S
C90 C89 1.392 . S
C90 N94 1.331 . S
C91 C92 1.391 . S
C91 N94 1.329 . S
C91 H101 0.930 . S
C92 C91 1.391 . S
C92 N93 1.334 . S
C92 H99 0.930 . S
N93 Zn77 2.119 . S
N93 C89 1.328 . S
N93 C92 1.334 . S
N94 C90 1.331 . S
N94 C91 1.329 . S
H95 C89 0.930 . S
C96 O76 1.257 . S
C96 O97 1.244 . S
O97 C96 1.244 . S
O98 C74 1.257 . S
O98 Zn77 2.019 . S
H99 C92 0.930 . S
H100 C79 0.930 . S
H101 C91 0.930 . S
Zn102 N106 2.020 . S
Zn102 O110 2.019 . S
Zn102 N112 2.119 . S
Zn102 O120 1.975 . S
C103 N104 1.332 1_655 S
C103 N107 1.336 . S
N104 C103 1.332 1_455 S
N104 C105 1.331 1_455 S
C105 N104 1.331 1_655 S
C105 N106 1.336 . S
N106 Zn102 2.020 . S
N106 C105 1.336 . S
N106 N107 1.354 . S
N107 C103 1.336 . S
N107 N106 1.354 . S
N107 Zn111 2.020 . S
C108 O109 1.244 . S
C108 O132 1.257 . S
O109 C108 1.244 . S
O110 Zn102 2.019 . S
O110 C130 1.257 . S
Zn111 N107 2.020 . S
Zn111 O118 1.975 . S
Zn111 N127 2.119 . S
Zn111 O132 2.019 . S
N112 Zn102 2.119 . S
N112 C114 1.334 . S
N112 C115 1.328 . S
C113 C114 1.391 . S
C113 N116 1.329 . S
C113 H134 0.930 . S
C114 N112 1.334 . S
C114 C113 1.391 . S
C114 H121 0.930 . S
C115 N112 1.328 . S
C115 C117 1.392 . S
C115 H122 0.930 . S
N116 C113 1.329 . S
N116 C117 1.331 . S
C117 C115 1.392 . S
C117 N116 1.331 . S
O118 Zn111 1.975 . S
O118 C119 1.252 . S
C119 O118 1.252 . S
C119 O120 1.252 . S
O120 Zn102 1.975 . S
O120 C119 1.252 . S
H121 C114 0.930 . S
H122 C115 0.930 . S
C123 C124 1.392 . S
C123 N127 1.328 . S
C123 H129 0.930 . S
C124 C123 1.392 . S
C124 N128 1.331 . S
C125 C126 1.391 . S
C125 N128 1.329 . S
C125 H135 0.930 . S
C126 C125 1.391 . S
C126 N127 1.334 . S
C126 H133 0.930 . S
N127 Zn111 2.119 . S
N127 C123 1.328 . S
N127 C126 1.334 . S
N128 C124 1.331 . S
N128 C125 1.329 . S
H129 C123 0.930 . S
C130 O110 1.257 . S
C130 O131 1.244 . S
O131 C130 1.244 . S
O132 C108 1.257 . S
O132 Zn111 2.019 . S
H133 C126 0.930 . S
H134 C113 0.930 . S
H135 C125 0.930 . S
Zn136 N140 2.020 . S
Zn136 O144 2.019 1_556 S
Zn136 N146 2.119 . S
Zn136 O154 1.975 . S
C137 N138 1.334 . S
C137 N141 1.336 . S
N138 C137 1.334 . S
N138 C139 1.334 . S
C139 N138 1.334 . S
C139 N140 1.336 . S
N140 Zn136 2.020 . S
N140 C139 1.336 . S
N140 N141 1.354 . S
N141 C137 1.336 . S
N141 N140 1.354 . S
N141 Zn145 2.020 . S
C142 O143 1.244 . S
C142 O166 1.257 . S
O143 C142 1.244 . S
O144 Zn136 2.019 1_554 S
O144 C164 1.257 . S
Zn145 N141 2.020 . S
Zn145 O152 1.975 . S
Zn145 N161 2.119 . S
Zn145 O166 2.019 . S
N146 Zn136 2.119 . S
N146 C148 1.334 . S
N146 C149 1.328 1_556 S
C147 C148 1.391 . S
C147 N150 1.329 . S
C147 H168 0.930 . S
C148 N146 1.334 . S
C148 C147 1.391 . S
C148 H155 0.930 . S
C149 N146 1.328 1_554 S
C149 C151 1.392 . S
C149 H156 0.930 . S
N150 C147 1.329 . S
N150 C151 1.331 1_556 S
C151 C149 1.392 . S
C151 N150 1.331 1_554 S
O152 Zn145 1.975 . S
O152 C153 1.252 . S
C153 O152 1.252 . S
C153 O154 1.252 . S
O154 Zn136 1.975 . S
O154 C153 1.252 . S
H155 C148 0.930 . S
H156 C149 0.930 . S
C157 C158 1.392 . S
C157 N161 1.328 . S
C157 H163 0.930 . S
C158 C157 1.392 . S
C158 N162 1.331 . S
C159 C160 1.391 . S
C159 N162 1.329 . S
C159 H169 0.930 . S
C160 C159 1.391 . S
C160 N161 1.334 . S
C160 H167 0.930 . S
N161 Zn145 2.119 . S
N161 C157 1.328 . S
N161 C160 1.334 . S
N162 C158 1.331 . S
N162 C159 1.329 . S
H163 C157 0.930 . S
C164 O144 1.257 . S
C164 O165 1.244 . S
O165 C164 1.244 . S
O166 C142 1.257 . S
O166 Zn145 2.019 . S
H167 C160 0.930 . S
H168 C147 0.930 . S
H169 C159 0.930 . S
Zn170 N174 2.020 . S
Zn170 O178 2.019 . S
Zn170 N180 2.119 . S
Zn170 O188 1.975 . S
C171 N172 1.334 . S
C171 N175 1.336 . S
N172 C171 1.334 . S
N172 C173 1.334 . S
C173 N172 1.334 . S
C173 N174 1.336 . S
N174 Zn170 2.020 . S
N174 C173 1.336 . S
N174 N175 1.354 . S
N175 C171 1.336 . S
N175 N174 1.354 . S
N175 Zn179 2.020 . S
C176 O177 1.244 . S
C176 O200 1.257 . S
O177 C176 1.244 . S
O178 Zn170 2.019 . S
O178 C198 1.257 . S
Zn179 N175 2.020 . S
Zn179 O186 1.975 . S
Zn179 N195 2.119 . S
Zn179 O200 2.019 . S
N180 Zn170 2.119 . S
N180 C182 1.334 . S
N180 C183 1.328 . S
C181 C182 1.391 . S
C181 N184 1.329 . S
C181 H202 0.930 . S
C182 N180 1.334 . S
C182 C181 1.391 . S
C182 H189 0.930 . S
C183 N180 1.328 . S
C183 C185 1.392 . S
C183 H190 0.930 . S
N184 C181 1.329 . S
N184 C185 1.331 . S
C185 C183 1.392 . S
C185 N184 1.331 . S
O186 Zn179 1.975 . S
O186 C187 1.252 . S
C187 O186 1.252 . S
C187 O188 1.252 . S
O188 Zn170 1.975 . S
O188 C187 1.252 . S
H189 C182 0.930 . S
H190 C183 0.930 . S
C191 C192 1.392 . S
C191 N195 1.328 . S
C191 H197 0.930 . S
C192 C191 1.392 . S
C192 N196 1.331 . S
C193 C194 1.391 . S
C193 N196 1.329 . S
C193 H203 0.930 . S
C194 C193 1.391 . S
C194 N195 1.334 . S
C194 H201 0.930 . S
N195 Zn179 2.119 . S
N195 C191 1.328 . S
N195 C194 1.334 . S
N196 C192 1.331 . S
N196 C193 1.329 . S
H197 C191 0.930 . S
C198 O178 1.257 . S
C198 O199 1.244 . S
O199 C198 1.244 . S
O200 C176 1.257 . S
O200 Zn179 2.019 . S
H201 C194 0.930 . S
H202 C181 0.930 . S
H203 C193 0.930 . S
Zn204 N208 2.020 . S
Zn204 O212 2.019 . S
Zn204 N214 2.119 . S
Zn204 O222 1.975 . S
C205 N206 1.334 . S
C205 N209 1.336 . S
N206 C205 1.334 . S
N206 C207 1.334 . S
C207 N206 1.334 . S
C207 N208 1.336 . S
N208 Zn204 2.020 . S
N208 C207 1.336 . S
N208 N209 1.354 . S
N209 C205 1.336 . S
N209 N208 1.354 . S
N209 Zn213 2.020 . S
C210 O211 1.244 . S
C210 O234 1.257 . S
O211 C210 1.244 . S
O212 Zn204 2.019 . S
O212 C232 1.257 . S
Zn213 N209 2.020 . S
Zn213 O220 1.975 . S
Zn213 N229 2.119 . S
Zn213 O234 2.019 . S
N214 Zn204 2.119 . S
N214 C216 1.334 . S
N214 C217 1.328 . S
C215 C216 1.391 . S
C215 N218 1.329 . S
C215 H236 0.930 . S
C216 N214 1.334 . S
C216 C215 1.391 . S
C216 H223 0.930 . S
C217 N214 1.328 . S
C217 C219 1.392 . S
C217 H224 0.930 . S
N218 C215 1.329 . S
N218 C219 1.331 . S
C219 C217 1.392 . S
C219 N218 1.331 . S
O220 Zn213 1.975 . S
O220 C221 1.252 . S
C221 O220 1.252 . S
C221 O222 1.252 . S
O222 Zn204 1.975 . S
O222 C221 1.252 . S
H223 C216 0.930 . S
H224 C217 0.930 . S
C225 C226 1.392 . S
C225 N229 1.328 . S
C225 H231 0.930 . S
C226 C225 1.392 . S
C226 N230 1.331 . S
C227 C228 1.391 . S
C227 N230 1.329 . S
C227 H237 0.930 . S
C228 C227 1.391 . S
C228 N229 1.334 . S
C228 H235 0.930 . S
N229 Zn213 2.119 . S
N229 C225 1.328 . S
N229 C228 1.334 . S
N230 C226 1.331 . S
N230 C227 1.329 . S
H231 C225 0.930 . S
C232 O212 1.257 . S
C232 O233 1.244 . S
O233 C232 1.244 . S
O234 C210 1.257 . S
O234 Zn213 2.019 . S
H235 C228 0.930 . S
H236 C215 0.930 . S
H237 C227 0.930 . S
Zn238 N242 2.020 . S
Zn238 O246 2.019 . S
Zn238 N248 2.119 . S
Zn238 O256 1.975 . S
C239 N240 1.332 1_455 S
C239 N243 1.336 . S
N240 C239 1.332 1_655 S
N240 C241 1.331 1_655 S
C241 N240 1.331 1_455 S
C241 N242 1.336 . S
N242 Zn238 2.020 . S
N242 C241 1.336 . S
N242 N243 1.354 . S
N243 C239 1.336 . S
N243 N242 1.354 . S
N243 Zn247 2.020 . S
C244 O245 1.244 . S
C244 O268 1.257 . S
O245 C244 1.244 . S
O246 Zn238 2.019 . S
O246 C266 1.257 . S
Zn247 N243 2.020 . S
Zn247 O254 1.975 . S
Zn247 N263 2.119 . S
Zn247 O268 2.019 . S
N248 Zn238 2.119 . S
N248 C250 1.334 . S
N248 C251 1.328 . S
C249 C250 1.391 . S
C249 N252 1.329 . S
C249 H270 0.930 . S
C250 N248 1.334 . S
C250 C249 1.391 . S
C250 H257 0.930 . S
C251 N248 1.328 . S
C251 C253 1.392 . S
C251 H258 0.930 . S
N252 C249 1.329 . S
N252 C253 1.331 . S
C253 C251 1.392 . S
C253 N252 1.331 . S
O254 Zn247 1.975 . S
O254 C255 1.252 . S
C255 O254 1.252 . S
C255 O256 1.252 . S
O256 Zn238 1.975 . S
O256 C255 1.252 . S
H257 C250 0.930 . S
H258 C251 0.930 . S
C259 C260 1.392 . S
C259 N263 1.328 . S
C259 H265 0.930 . S
C260 C259 1.392 . S
C260 N264 1.331 . S
C261 C262 1.391 . S
C261 N264 1.329 . S
C261 H271 0.930 . S
C262 C261 1.391 . S
C262 N263 1.334 . S
C262 H269 0.930 . S
N263 Zn247 2.119 . S
N263 C259 1.328 . S
N263 C262 1.334 . S
N264 C260 1.331 . S
N264 C261 1.329 . S
H265 C259 0.930 . S
C266 O246 1.257 . S
C266 O267 1.244 . S
O267 C266 1.244 . S
O268 C244 1.257 . S
O268 Zn247 2.019 . S
H269 C262 0.930 . S
H270 C249 0.930 . S
H271 C261 0.930 . S
Zn272 N276 2.020 . S
Zn272 O280 2.019 . S
Zn272 N282 2.119 . S
Zn272 O290 1.975 . S
C273 N274 1.334 . S
C273 N277 1.336 . S
N274 C273 1.334 . S
N274 C275 1.334 . S
C275 N274 1.334 . S
C275 N276 1.336 . S
N276 Zn272 2.020 . S
N276 C275 1.336 . S
N276 N277 1.354 . S
N277 C273 1.336 . S
N277 N276 1.354 . S
N277 Zn281 2.020 . S
C278 O279 1.244 . S
C278 O302 1.257 . S
O279 C278 1.244 . S
O280 Zn272 2.019 . S
O280 C300 1.257 . S
Zn281 N277 2.020 . S
Zn281 O288 1.975 . S
Zn281 N297 2.119 . S
Zn281 O302 2.019 . S
N282 Zn272 2.119 . S
N282 C284 1.334 . S
N282 C285 1.328 . S
C283 C284 1.391 . S
C283 N286 1.329 . S
C283 H304 0.930 . S
C284 N282 1.334 . S
C284 C283 1.391 . S
C284 H291 0.930 . S
C285 N282 1.328 . S
C285 C287 1.392 . S
C285 H292 0.930 . S
N286 C283 1.329 . S
N286 C287 1.331 . S
C287 C285 1.392 . S
C287 N286 1.331 . S
O288 Zn281 1.975 . S
O288 C289 1.252 . S
C289 O288 1.252 . S
C289 O290 1.252 . S
O290 Zn272 1.975 . S
O290 C289 1.252 . S
H291 C284 0.930 . S
H292 C285 0.930 . S
C293 C294 1.392 . S
C293 N297 1.328 . S
C293 H299 0.930 . S
C294 C293 1.392 . S
C294 N298 1.331 . S
C295 C296 1.391 . S
C295 N298 1.329 . S
C295 H305 0.930 . S
C296 C295 1.391 . S
C296 N297 1.334 . S
C296 H303 0.930 . S
N297 Zn281 2.119 . S
N297 C293 1.328 . S
N297 C296 1.334 . S
N298 C294 1.331 . S
N298 C295 1.329 . S
H299 C293 0.930 . S
C300 O280 1.257 . S
C300 O301 1.244 . S
O301 C300 1.244 . S
O302 C278 1.257 . S
O302 Zn281 2.019 . S
H303 C296 0.930 . S
H304 C283 0.930 . S
H305 C295 0.930 . S
Zn306 N310 2.020 . S
Zn306 O314 2.019 . S
Zn306 N316 2.119 . S
Zn306 O324 1.975 . S
C307 N308 1.331 1_455 S
C307 N311 1.336 . S
N308 C307 1.331 1_655 S
N308 C309 1.332 1_665 S
C309 N308 1.332 1_445 S
C309 N310 1.336 . S
N310 Zn306 2.020 . S
N310 C309 1.336 . S
N310 N311 1.354 1_545 S
N311 C307 1.336 . S
N311 N310 1.354 1_565 S
N311 Zn315 2.020 . S
C312 O313 1.244 . S
C312 O336 1.257 1_545 S
O313 C312 1.244 . S
O314 Zn306 2.019 . S
O314 C334 1.257 1_545 S
Zn315 N311 2.020 . S
Zn315 O322 1.975 1_565 S
Zn315 N331 2.119 . S
Zn315 O336 2.019 . S
N316 Zn306 2.119 . S
N316 C318 1.334 . S
N316 C319 1.328 . S
C317 C318 1.391 . S
C317 N320 1.329 . S
C317 H338 0.930 . S
C318 N316 1.334 . S
C318 C317 1.391 . S
C318 H325 0.930 . S
C319 N316 1.328 . S
C319 C321 1.392 . S
C319 H326 0.930 . S
N320 C317 1.329 . S
N320 C321 1.331 . S
C321 C319 1.392 . S
C321 N320 1.331 . S
O322 Zn315 1.975 1_545 S
O322 C323 1.252 . S
C323 O322 1.252 . S
C323 O324 1.252 . S
O324 Zn306 1.975 . S
O324 C323 1.252 . S
H325 C318 0.930 . S
H326 C319 0.930 . S
C327 C328 1.392 . S
C327 N331 1.328 . S
C327 H333 0.930 . S
C328 C327 1.392 . S
C328 N332 1.331 . S
C329 C330 1.391 . S
C329 N332 1.329 . S
C329 H339 0.930 . S
C330 C329 1.391 . S
C330 N331 1.334 . S
C330 H337 0.930 . S
N331 Zn315 2.119 . S
N331 C327 1.328 . S
N331 C330 1.334 . S
N332 C328 1.331 . S
N332 C329 1.329 . S
H333 C327 0.930 . S
C334 O314 1.257 1_565 S
C334 O335 1.244 . S
O335 C334 1.244 . S
O336 C312 1.257 1_565 S
O336 Zn315 2.019 . S
H337 C330 0.930 . S
H338 C317 0.930 . S
H339 C329 0.930 . S
Zn340 N344 2.020 . S
Zn340 O348 2.019 1_554 S
Zn340 N350 2.119 . S
Zn340 O358 1.975 . S
C341 N342 1.334 . S
C341 N345 1.336 . S
N342 C341 1.334 . S
N342 C343 1.334 . S
C343 N342 1.334 . S
C343 N344 1.336 . S
N344 Zn340 2.020 . S
N344 C343 1.336 . S
N344 N345 1.354 . S
N345 C341 1.336 . S
N345 N344 1.354 . S
N345 Zn349 2.020 . S
C346 O347 1.244 . S
C346 O370 1.257 . S
O347 C346 1.244 . S
O348 Zn340 2.019 1_556 S
O348 C368 1.257 . S
Zn349 N345 2.020 . S
Zn349 O356 1.975 . S
Zn349 N365 2.119 . S
Zn349 O370 2.019 . S
N350 Zn340 2.119 . S
N350 C352 1.334 . S
N350 C353 1.328 1_554 S
C351 C352 1.391 . S
C351 N354 1.329 . S
C351 H372 0.930 . S
C352 N350 1.334 . S
C352 C351 1.391 . S
C352 H359 0.930 . S
C353 N350 1.328 1_556 S
C353 C355 1.392 . S
C353 H360 0.930 . S
N354 C351 1.329 . S
N354 C355 1.331 1_554 S
C355 C353 1.392 . S
C355 N354 1.331 1_556 S
O356 Zn349 1.975 . S
O356 C357 1.252 . S
C357 O356 1.252 . S
C357 O358 1.252 . S
O358 Zn340 1.975 . S
O358 C357 1.252 . S
H359 C352 0.930 . S
H360 C353 0.930 . S
C361 C362 1.392 . S
C361 N365 1.328 . S
C361 H367 0.930 . S
C362 C361 1.392 . S
C362 N366 1.331 . S
C363 C364 1.391 . S
C363 N366 1.329 . S
C363 H373 0.930 . S
C364 C363 1.391 . S
C364 N365 1.334 . S
C364 H371 0.930 . S
N365 Zn349 2.119 . S
N365 C361 1.328 . S
N365 C364 1.334 . S
N366 C362 1.331 . S
N366 C363 1.329 . S
H367 C361 0.930 . S
C368 O348 1.257 . S
C368 O369 1.244 . S
O369 C368 1.244 . S
O370 C346 1.257 . S
O370 Zn349 2.019 . S
H371 C364 0.930 . S
H372 C351 0.930 . S
H373 C363 0.930 . S
Zn374 N378 2.020 . S
Zn374 O382 2.019 . S
Zn374 N384 2.119 . S
Zn374 O392 1.975 . S
C375 N376 1.334 . S
C375 N379 1.336 . S
N376 C375 1.334 . S
N376 C377 1.334 1_545 S
C377 N376 1.334 1_565 S
C377 N378 1.336 . S
N378 Zn374 2.020 . S
N378 C377 1.336 . S
N378 N379 1.354 1_565 S
N379 C375 1.336 . S
N379 N378 1.354 1_545 S
N379 Zn383 2.020 . S
C380 O381 1.244 . S
C380 O404 1.257 1_565 S
O381 C380 1.244 . S
O382 Zn374 2.019 . S
O382 C402 1.257 1_565 S
Zn383 N379 2.020 . S
Zn383 O390 1.975 1_545 S
Zn383 N399 2.119 . S
Zn383 O404 2.019 . S
N384 Zn374 2.119 . S
N384 C386 1.334 . S
N384 C387 1.328 . S
C385 C386 1.391 . S
C385 N388 1.329 . S
C385 H406 0.930 . S
C386 N384 1.334 . S
C386 C385 1.391 . S
C386 H393 0.930 . S
C387 N384 1.328 . S
C387 C389 1.392 . S
C387 H394 0.930 . S
N388 C385 1.329 . S
N388 C389 1.331 . S
C389 C387 1.392 . S
C389 N388 1.331 . S
O390 Zn383 1.975 1_565 S
O390 C391 1.252 . S
C391 O390 1.252 . S
C391 O392 1.252 . S
O392 Zn374 1.975 . S
O392 C391 1.252 . S
H393 C386 0.930 . S
H394 C387 0.930 . S
C395 C396 1.392 . S
C395 N399 1.328 . S
C395 H401 0.930 . S
C396 C395 1.392 . S
C396 N400 1.331 . S
C397 C398 1.391 . S
C397 N400 1.329 . S
C397 H407 0.930 . S
C398 C397 1.391 . S
C398 N399 1.334 . S
C398 H405 0.930 . S
N399 Zn383 2.119 . S
N399 C395 1.328 . S
N399 C398 1.334 . S
N400 C396 1.331 . S
N400 C397 1.329 . S
H401 C395 0.930 . S
C402 O382 1.257 1_545 S
C402 O403 1.244 . S
O403 C402 1.244 . S
O404 C380 1.257 1_545 S
O404 Zn383 2.019 . S
H405 C398 0.930 . S
H406 C385 0.930 . S
H407 C397 0.930 . S
Zn408 N412 2.020 . S
Zn408 O416 2.019 . S
Zn408 N418 2.119 . S
Zn408 O426 1.975 . S
C409 N410 1.334 . S
C409 N413 1.336 . S
N410 C409 1.334 . S
N410 C411 1.334 . S
C411 N410 1.334 . S
C411 N412 1.336 . S
N412 Zn408 2.020 . S
N412 C411 1.336 . S
N412 N413 1.354 . S
N413 C409 1.336 . S
N413 N412 1.354 . S
N413 Zn417 2.020 . S
C414 O415 1.244 . S
C414 O438 1.257 . S
O415 C414 1.244 . S
O416 Zn408 2.019 . S
O416 C436 1.257 . S
Zn417 N413 2.020 . S
Zn417 O424 1.975 . S
Zn417 N433 2.119 . S
Zn417 O438 2.019 . S
N418 Zn408 2.119 . S
N418 C420 1.334 . S
N418 C421 1.328 . S
C419 C420 1.391 . S
C419 N422 1.329 . S
C419 H440 0.930 . S
C420 N418 1.334 . S
C420 C419 1.391 . S
C420 H427 0.930 . S
C421 N418 1.328 . S
C421 C423 1.392 . S
C421 H428 0.930 . S
N422 C419 1.329 . S
N422 C423 1.331 . S
C423 C421 1.392 . S
C423 N422 1.331 . S
O424 Zn417 1.975 . S
O424 C425 1.252 . S
C425 O424 1.252 . S
C425 O426 1.252 . S
O426 Zn408 1.975 . S
O426 C425 1.252 . S
H427 C420 0.930 . S
H428 C421 0.930 . S
C429 C430 1.392 . S
C429 N433 1.328 . S
C429 H435 0.930 . S
C430 C429 1.392 . S
C430 N434 1.331 . S
C431 C432 1.391 . S
C431 N434 1.329 . S
C431 H441 0.930 . S
C432 C431 1.391 . S
C432 N433 1.334 . S
C432 H439 0.930 . S
N433 Zn417 2.119 . S
N433 C429 1.328 . S
N433 C432 1.334 . S
N434 C430 1.331 . S
N434 C431 1.329 . S
H435 C429 0.930 . S
C436 O416 1.257 . S
C436 O437 1.244 . S
O437 C436 1.244 . S
O438 C414 1.257 . S
O438 Zn417 2.019 . S
H439 C432 0.930 . S
H440 C419 0.930 . S
H441 C431 0.930 . S
Zn442 N446 2.020 . S
Zn442 O450 2.019 . S
Zn442 N452 2.119 . S
Zn442 O460 1.975 . S
C443 N444 1.331 1_655 S
C443 N447 1.336 . S
N444 C443 1.331 1_455 S
N444 C445 1.332 1_445 S
C445 N444 1.332 1_665 S
C445 N446 1.336 . S
N446 Zn442 2.020 . S
N446 C445 1.336 . S
N446 N447 1.354 1_565 S
N447 C443 1.336 . S
N447 N446 1.354 1_545 S
N447 Zn451 2.020 . S
C448 O449 1.244 . S
C448 O472 1.257 1_565 S
O449 C448 1.244 . S
O450 Zn442 2.019 . S
O450 C470 1.257 1_565 S
Zn451 N447 2.020 . S
Zn451 O458 1.975 1_545 S
Zn451 N467 2.119 . S
Zn451 O472 2.019 . S
N452 Zn442 2.119 . S
N452 C454 1.334 . S
N452 C455 1.328 . S
C453 C454 1.391 . S
C453 N456 1.329 . S
C453 H474 0.930 . S
C454 N452 1.334 . S
C454 C453 1.391 . S
C454 H461 0.930 . S
C455 N452 1.328 . S
C455 C457 1.392 . S
C455 H462 0.930 . S
N456 C453 1.329 . S
N456 C457 1.331 . S
C457 C455 1.392 . S
C457 N456 1.331 . S
O458 Zn451 1.975 1_565 S
O458 C459 1.252 . S
C459 O458 1.252 . S
C459 O460 1.252 . S
O460 Zn442 1.975 . S
O460 C459 1.252 . S
H461 C454 0.930 . S
H462 C455 0.930 . S
C463 C464 1.392 . S
C463 N467 1.328 . S
C463 H469 0.930 . S
C464 C463 1.392 . S
C464 N468 1.331 . S
C465 C466 1.391 . S
C465 N468 1.329 . S
C465 H475 0.930 . S
C466 C465 1.391 . S
C466 N467 1.334 . S
C466 H473 0.930 . S
N467 Zn451 2.119 . S
N467 C463 1.328 . S
N467 C466 1.334 . S
N468 C464 1.331 . S
N468 C465 1.329 . S
H469 C463 0.930 . S
C470 O450 1.257 1_545 S
C470 O471 1.244 . S
O471 C470 1.244 . S
O472 C448 1.257 1_545 S
O472 Zn451 2.019 . S
H473 C466 0.930 . S
H474 C453 0.930 . S
H475 C465 0.930 . S
Zn476 N480 2.020 . S
Zn476 O484 2.019 1_556 S
Zn476 N486 2.119 . S
Zn476 O494 1.975 . S
C477 N478 1.334 . S
C477 N481 1.336 . S
N478 C477 1.334 . S
N478 C479 1.334 . S
C479 N478 1.334 . S
C479 N480 1.336 . S
N480 Zn476 2.020 . S
N480 C479 1.336 . S
N480 N481 1.354 . S
N481 C477 1.336 . S
N481 N480 1.354 . S
N481 Zn485 2.020 . S
C482 O483 1.244 . S
C482 O506 1.257 . S
O483 C482 1.244 . S
O484 Zn476 2.019 1_554 S
O484 C504 1.257 . S
Zn485 N481 2.020 . S
Zn485 O492 1.975 . S
Zn485 N501 2.119 . S
Zn485 O506 2.019 . S
N486 Zn476 2.119 . S
N486 C488 1.334 . S
N486 C489 1.328 1_556 S
C487 C488 1.391 . S
C487 N490 1.329 . S
C487 H508 0.930 . S
C488 N486 1.334 . S
C488 C487 1.391 . S
C488 H495 0.930 . S
C489 N486 1.328 1_554 S
C489 C491 1.392 . S
C489 H496 0.930 . S
N490 C487 1.329 . S
N490 C491 1.331 1_556 S
C491 C489 1.392 . S
C491 N490 1.331 1_554 S
O492 Zn485 1.975 . S
O492 C493 1.252 . S
C493 O492 1.252 . S
C493 O494 1.252 . S
O494 Zn476 1.975 . S
O494 C493 1.252 . S
H495 C488 0.930 . S
H496 C489 0.930 . S
C497 C498 1.392 . S
C497 N501 1.328 . S
C497 H503 0.930 . S
C498 C497 1.392 . S
C498 N502 1.331 . S
C499 C500 1.391 . S
C499 N502 1.329 . S
C499 H509 0.930 . S
C500 C499 1.391 . S
C500 N501 1.334 . S
C500 H507 0.930 . S
N501 Zn485 2.119 . S
N501 C497 1.328 . S
N501 C500 1.334 . S
N502 C498 1.331 . S
N502 C499 1.329 . S
H503 C497 0.930 . S
C504 O484 1.257 . S
C504 O505 1.244 . S
O505 C504 1.244 . S
O506 C482 1.257 . S
O506 Zn485 2.019 . S
H507 C500 0.930 . S
H508 C487 0.930 . S
H509 C499 0.930 . S
Zn510 N514 2.020 . S
Zn510 O518 2.019 . S
Zn510 N520 2.119 . S
Zn510 O528 1.975 1_565 S
C511 N512 1.334 1_545 S
C511 N515 1.336 . S
N512 C511 1.334 1_565 S
N512 C513 1.334 . S
C513 N512 1.334 . S
C513 N514 1.336 . S
N514 Zn510 2.020 . S
N514 C513 1.336 . S
N514 N515 1.354 1_565 S
N515 C511 1.336 . S
N515 N514 1.354 1_545 S
N515 Zn519 2.020 . S
C516 O517 1.244 . S
C516 O540 1.257 1_565 S
O517 C516 1.244 . S
O518 Zn510 2.019 . S
O518 C538 1.257 1_565 S
Zn519 N515 2.020 . S
Zn519 O526 1.975 . S
Zn519 N535 2.119 . S
Zn519 O540 2.019 . S
N520 Zn510 2.119 . S
N520 C522 1.334 . S
N520 C523 1.328 . S
C521 C522 1.391 . S
C521 N524 1.329 . S
C521 H542 0.930 . S
C522 N520 1.334 . S
C522 C521 1.391 . S
C522 H529 0.930 . S
C523 N520 1.328 . S
C523 C525 1.392 . S
C523 H530 0.930 . S
N524 C521 1.329 . S
N524 C525 1.331 . S
C525 C523 1.392 . S
C525 N524 1.331 . S
O526 Zn519 1.975 . S
O526 C527 1.252 . S
C527 O526 1.252 . S
C527 O528 1.252 . S
O528 Zn510 1.975 1_545 S
O528 C527 1.252 . S
H529 C522 0.930 . S
H530 C523 0.930 . S
C531 C532 1.392 . S
C531 N535 1.328 . S
C531 H537 0.930 . S
C532 C531 1.392 . S
C532 N536 1.331 . S
C533 C534 1.391 . S
C533 N536 1.329 . S
C533 H543 0.930 . S
C534 C533 1.391 . S
C534 N535 1.334 . S
C534 H541 0.930 . S
N535 Zn519 2.119 . S
N535 C531 1.328 . S
N535 C534 1.334 . S
N536 C532 1.331 . S
N536 C533 1.329 . S
H537 C531 0.930 . S
C538 O518 1.257 1_545 S
C538 O539 1.244 . S
O539 C538 1.244 . S
O540 C516 1.257 1_545 S
O540 Zn519 2.019 . S
H541 C534 0.930 . S
H542 C521 0.930 . S
H543 C533 0.930 . S
H544 C550 0.930 . S
H545 C553 0.930 . S
H546 C554 0.930 . S
H547 C555 0.930 . S
H548 C558 0.930 . S
H549 C559 0.930 . S
C550 H544 0.930 . S
C550 C551 1.355 . S
C550 C552 1.415 . S
C551 C550 1.355 . S
C551 C553 1.419 . S
C552 C550 1.415 . S
C552 C557 1.425 . S
C552 C559 1.409 . S
C553 H545 0.930 . S
C553 C551 1.419 . S
C553 C554 1.362 . S
C554 H546 0.930 . S
C554 C553 1.362 . S
C554 C557 1.409 . S
C555 H547 0.930 . S
C555 C556 1.355 . S
C555 C557 1.415 . S
C556 C555 1.355 . S
C556 C558 1.419 . S
C557 C552 1.425 . S
C557 C554 1.409 . S
C557 C555 1.415 . S
C558 H548 0.930 . S
C558 C556 1.419 . S
C558 C559 1.362 . S
C559 H549 0.930 . S
C559 C552 1.409 . S
C559 C558 1.362 . S
H560 C566 0.930 . S
H561 C569 0.930 . S
H562 C570 0.930 . S
H563 C571 0.930 . S
H564 C574 0.930 . S
H565 C575 0.930 . S
C566 H560 0.930 . S
C566 C567 1.355 . S
C566 C568 1.415 . S
C567 C566 1.355 . S
C567 C569 1.419 . S
C568 C566 1.415 . S
C568 C573 1.425 . S
C568 C575 1.409 . S
C569 H561 0.930 . S
C569 C567 1.419 . S
C569 C570 1.362 . S
C570 H562 0.930 . S
C570 C569 1.362 . S
C570 C573 1.409 . S
C571 H563 0.930 . S
C571 C572 1.355 . S
C571 C573 1.415 . S
C572 C571 1.355 . S
C572 C574 1.419 . S
C573 C568 1.425 . S
C573 C570 1.409 . S
C573 C571 1.415 . S
C574 H564 0.930 . S
C574 C572 1.419 . S
C574 C575 1.362 . S
C575 H565 0.930 . S
C575 C568 1.409 . S
C575 C574 1.362 . S
H576 C582 0.930 . S
H577 C585 0.930 . S
H578 C586 0.930 . S
H579 C587 0.930 . S
H580 C590 0.930 . S
H581 C591 0.930 . S
C582 H576 0.930 . S
C582 C583 1.355 . S
C582 C584 1.415 . S
C583 C582 1.355 . S
C583 C585 1.419 . S
C584 C582 1.415 . S
C584 C589 1.425 . S
C584 C591 1.409 . S
C585 H577 0.930 . S
C585 C583 1.419 . S
C585 C586 1.362 . S
C586 H578 0.930 . S
C586 C585 1.362 . S
C586 C589 1.409 . S
C587 H579 0.930 . S
C587 C588 1.355 . S
C587 C589 1.415 . S
C588 C587 1.355 . S
C588 C590 1.419 . S
C589 C584 1.425 . S
C589 C586 1.409 . S
C589 C587 1.415 . S
C590 H580 0.930 . S
C590 C588 1.419 . S
C590 C591 1.362 . S
C591 H581 0.930 . S
C591 C584 1.409 . S
C591 C590 1.362 . S
H592 C598 0.930 . S
H593 C601 0.930 . S
H594 C602 0.930 1_655 S
H595 C603 0.930 . S
H596 C606 0.930 . S
H597 C607 0.930 . S
C598 H592 0.930 . S
C598 C599 1.355 . S
C598 C600 1.415 . S
C599 C598 1.355 . S
C599 C601 1.419 . S
C600 C598 1.415 . S
C600 C605 1.425 . S
C600 C607 1.409 . S
C601 H593 0.930 . S
C601 C599 1.419 . S
C601 C602 1.362 . S
C602 H594 0.930 1_455 S
C602 C601 1.362 . S
C602 C605 1.409 . S
C603 H595 0.930 . S
C603 C604 1.355 . S
C603 C605 1.415 1_655 S
C604 C603 1.355 . S
C604 C606 1.419 1_655 S
C605 C600 1.425 . S
C605 C602 1.409 . S
C605 C603 1.415 1_455 S
C606 H596 0.930 . S
C606 C604 1.419 1_455 S
C606 C607 1.362 . S
C607 H597 0.930 . S
C607 C600 1.409 . S
C607 C606 1.362 . S
H608 C614 0.930 . S
H609 C617 0.930 . S
H610 C618 0.930 . S
H611 C619 0.930 . S
H612 C622 0.930 . S
H613 C623 0.930 . S
C614 H608 0.930 . S
C614 C615 1.355 . S
C614 C616 1.415 . S
C615 C614 1.355 . S
C615 C617 1.419 . S
C616 C614 1.415 . S
C616 C621 1.425 . S
C616 C623 1.409 . S
C617 H609 0.930 . S
C617 C615 1.419 . S
C617 C618 1.362 . S
C618 H610 0.930 . S
C618 C617 1.362 . S
C618 C621 1.409 . S
C619 H611 0.930 . S
C619 C620 1.355 . S
C619 C621 1.415 . S
C620 C619 1.355 . S
C620 C622 1.419 . S
C621 C616 1.425 . S
C621 C618 1.409 . S
C621 C619 1.415 . S
C622 H612 0.930 . S
C622 C620 1.419 . S
C622 C623 1.362 . S
C623 H613 0.930 . S
C623 C616 1.409 . S
C623 C622 1.362 . S
H624 C630 0.930 . S
H625 C633 0.930 . S
H626 C634 0.930 . S
H627 C635 0.930 . S
H628 C638 0.930 . S
H629 C639 0.930 . S
C630 H624 0.930 . S
C630 C631 1.355 . S
C630 C632 1.415 . S
C631 C630 1.355 . S
C631 C633 1.419 . S
C632 C630 1.415 . S
C632 C637 1.425 . S
C632 C639 1.409 . S
C633 H625 0.930 . S
C633 C631 1.419 . S
C633 C634 1.362 . S
C634 H626 0.930 . S
C634 C633 1.362 . S
C634 C637 1.409 . S
C635 H627 0.930 . S
C635 C636 1.355 . S
C635 C637 1.415 . S
C636 C635 1.355 . S
C636 C638 1.419 . S
C637 C632 1.425 . S
C637 C634 1.409 . S
C637 C635 1.415 . S
C638 H628 0.930 . S
C638 C636 1.419 . S
C638 C639 1.362 . S
C639 H629 0.930 . S
C639 C632 1.409 . S
C639 C638 1.362 . S
H640 C646 0.930 . S
H641 C649 0.930 . S
H642 C650 0.930 . S
H643 C651 0.930 . S
H644 C654 0.930 . S
H645 C655 0.930 . S
C646 H640 0.930 . S
C646 C647 1.355 . S
C646 C648 1.415 . S
C647 C646 1.355 . S
C647 C649 1.419 . S
C648 C646 1.415 . S
C648 C653 1.425 . S
C648 C655 1.409 . S
C649 H641 0.930 . S
C649 C647 1.419 . S
C649 C650 1.362 . S
C650 H642 0.930 . S
C650 C649 1.362 . S
C650 C653 1.409 . S
C651 H643 0.930 . S
C651 C652 1.355 . S
C651 C653 1.415 . S
C652 C651 1.355 . S
C652 C654 1.419 . S
C653 C648 1.425 . S
C653 C650 1.409 . S
C653 C651 1.415 . S
C654 H644 0.930 . S
C654 C652 1.419 . S
C654 C655 1.362 . S
C655 H645 0.930 . S
C655 C648 1.409 . S
C655 C654 1.362 . S
H656 C662 0.930 . S
H657 C665 0.930 . S
H658 C666 0.930 . S
H659 C667 0.930 . S
H660 C670 0.930 . S
H661 C671 0.930 . S
C662 H656 0.930 . S
C662 C663 1.355 . S
C662 C664 1.415 . S
C663 C662 1.355 . S
C663 C665 1.419 . S
C664 C662 1.415 . S
C664 C669 1.425 . S
C664 C671 1.409 1_655 S
C665 H657 0.930 . S
C665 C663 1.419 . S
C665 C666 1.362 . S
C666 H658 0.930 . S
C666 C665 1.362 . S
C666 C669 1.409 . S
C667 H659 0.930 . S
C667 C668 1.355 1_655 S
C667 C669 1.415 . S
C668 C667 1.355 1_455 S
C668 C670 1.419 . S
C669 C664 1.425 . S
C669 C666 1.409 . S
C669 C667 1.415 . S
C670 H660 0.930 . S
C670 C668 1.419 . S
C670 C671 1.362 . S
C671 H661 0.930 . S
C671 C664 1.409 1_455 S
C671 C670 1.362 . S
H672 C678 0.930 . S
H673 C681 0.930 . S
H674 C682 0.930 . S
H675 C683 0.930 . S
H676 C686 0.930 . S
H677 C687 0.930 . S
C678 H672 0.930 . S
C678 C679 1.355 . S
C678 C680 1.415 . S
C679 C678 1.355 . S
C679 C681 1.419 . S
C680 C678 1.415 . S
C680 C685 1.425 . S
C680 C687 1.409 . S
C681 H673 0.930 . S
C681 C679 1.419 . S
C681 C682 1.362 . S
C682 H674 0.930 . S
C682 C681 1.362 . S
C682 C685 1.409 . S
C683 H675 0.930 . S
C683 C684 1.355 . S
C683 C685 1.415 . S
C684 C683 1.355 . S
C684 C686 1.419 . S
C685 C680 1.425 . S
C685 C682 1.409 . S
C685 C683 1.415 . S
C686 H676 0.930 . S
C686 C684 1.419 . S
C686 C687 1.362 . S
C687 H677 0.930 . S
C687 C680 1.409 . S
C687 C686 1.362 . S
H688 C694 0.930 . S
H689 C697 0.930 . S
H690 C698 0.930 . S
H691 C699 0.930 . S
H692 C702 0.930 . S
H693 C703 0.930 . S
C694 H688 0.930 . S
C694 C695 1.355 1_545 S
C694 C696 1.415 1_445 S
C695 C694 1.355 1_565 S
C695 C697 1.419 . S
C696 C694 1.415 1_665 S
C696 C701 1.425 . S
C696 C703 1.409 1_565 S
C697 H689 0.930 . S
C697 C695 1.419 . S
C697 C698 1.362 1_455 S
C698 H690 0.930 . S
C698 C697 1.362 1_655 S
C698 C701 1.409 . S
C699 H691 0.930 . S
C699 C700 1.355 . S
C699 C701 1.415 . S
C700 C699 1.355 . S
C700 C702 1.419 1_565 S
C701 C696 1.425 . S
C701 C698 1.409 . S
C701 C699 1.415 . S
C702 H692 0.930 . S
C702 C700 1.419 1_545 S
C702 C703 1.362 . S
C703 H693 0.930 . S
C703 C696 1.409 1_545 S
C703 C702 1.362 . S
H704 C710 0.930 . S
H705 C713 0.930 . S
H706 C714 0.930 . S
H707 C715 0.930 . S
H708 C718 0.930 . S
H709 C719 0.930 . S
C710 H704 0.930 . S
C710 C711 1.355 . S
C710 C712 1.415 . S
C711 C710 1.355 . S
C711 C713 1.419 . S
C712 C710 1.415 . S
C712 C717 1.425 . S
C712 C719 1.409 . S
C713 H705 0.930 . S
C713 C711 1.419 . S
C713 C714 1.362 . S
C714 H706 0.930 . S
C714 C713 1.362 . S
C714 C717 1.409 . S
C715 H707 0.930 . S
C715 C716 1.355 . S
C715 C717 1.415 . S
C716 C715 1.355 . S
C716 C718 1.419 . S
C717 C712 1.425 . S
C717 C714 1.409 . S
C717 C715 1.415 . S
C718 H708 0.930 . S
C718 C716 1.419 . S
C718 C719 1.362 . S
C719 H709 0.930 . S
C719 C712 1.409 . S
C719 C718 1.362 . S
H720 C726 0.930 . S
H721 C729 0.930 . S
H722 C730 0.930 . S
H723 C731 0.930 . S
H724 C734 0.930 . S
H725 C735 0.930 . S
C726 H720 0.930 . S
C726 C727 1.355 . S
C726 C728 1.415 . S
C727 C726 1.355 . S
C727 C729 1.419 . S
C728 C726 1.415 . S
C728 C733 1.425 . S
C728 C735 1.409 . S
C729 H721 0.930 . S
C729 C727 1.419 . S
C729 C730 1.362 . S
C730 H722 0.930 . S
C730 C729 1.362 . S
C730 C733 1.409 . S
C731 H723 0.930 . S
C731 C732 1.355 . S
C731 C733 1.415 . S
C732 C731 1.355 . S
C732 C734 1.419 . S
C733 C728 1.425 . S
C733 C730 1.409 . S
C733 C731 1.415 . S
C734 H724 0.930 . S
C734 C732 1.419 . S
C734 C735 1.362 . S
C735 H725 0.930 . S
C735 C728 1.409 . S
C735 C734 1.362 . S
H736 C742 0.930 . S
H737 C745 0.930 . S
H738 C746 0.930 . S
H739 C747 0.930 . S
H740 C750 0.930 . S
H741 C751 0.930 . S
C742 H736 0.930 . S
C742 C743 1.355 . S
C742 C744 1.415 . S
C743 C742 1.355 . S
C743 C745 1.419 . S
C744 C742 1.415 . S
C744 C749 1.425 . S
C744 C751 1.409 . S
C745 H737 0.930 . S
C745 C743 1.419 . S
C745 C746 1.362 . S
C746 H738 0.930 . S
C746 C745 1.362 . S
C746 C749 1.409 . S
C747 H739 0.930 . S
C747 C748 1.355 . S
C747 C749 1.415 . S
C748 C747 1.355 . S
C748 C750 1.419 . S
C749 C744 1.425 . S
C749 C746 1.409 . S
C749 C747 1.415 . S
C750 H740 0.930 . S
C750 C748 1.419 . S
C750 C751 1.362 . S
C751 H741 0.930 . S
C751 C744 1.409 . S
C751 C750 1.362 . S
H752 C758 0.930 . S
H753 C761 0.930 . S
H754 C762 0.930 . S
H755 C763 0.930 . S
H756 C766 0.930 . S
H757 C767 0.930 . S
C758 H752 0.930 . S
C758 C759 1.355 1_455 S
C758 C760 1.415 . S
C759 C758 1.355 1_655 S
C759 C761 1.419 . S
C760 C758 1.415 . S
C760 C765 1.425 . S
C760 C767 1.409 . S
C761 H753 0.930 . S
C761 C759 1.419 . S
C761 C762 1.362 . S
C762 H754 0.930 . S
C762 C761 1.362 . S
C762 C765 1.409 1_655 S
C763 H755 0.930 . S
C763 C764 1.355 . S
C763 C765 1.415 . S
C764 C763 1.355 . S
C764 C766 1.419 . S
C765 C760 1.425 . S
C765 C762 1.409 1_455 S
C765 C763 1.415 . S
C766 H756 0.930 . S
C766 C764 1.419 . S
C766 C767 1.362 . S
C767 H757 0.930 . S
C767 C760 1.409 . S
C767 C766 1.362 . S
H768 C774 0.930 . S
H769 C777 0.930 . S
H770 C778 0.930 . S
H771 C779 0.930 . S
H772 C782 0.930 . S
H773 C783 0.930 . S
C774 H768 0.930 . S
C774 C775 1.355 . S
C774 C776 1.415 . S
C775 C774 1.355 . S
C775 C777 1.419 . S
C776 C774 1.415 . S
C776 C781 1.425 . S
C776 C783 1.409 . S
C777 H769 0.930 . S
C777 C775 1.419 . S
C777 C778 1.362 . S
C778 H770 0.930 . S
C778 C777 1.362 . S
C778 C781 1.409 . S
C779 H771 0.930 . S
C779 C780 1.355 . S
C779 C781 1.415 . S
C780 C779 1.355 . S
C780 C782 1.419 . S
C781 C776 1.425 . S
C781 C778 1.409 . S
C781 C779 1.415 . S
C782 H772 0.930 . S
C782 C780 1.419 . S
C782 C783 1.362 . S
C783 H773 0.930 . S
C783 C776 1.409 . S
C783 C782 1.362 . S
H784 C790 0.930 1_545 S
H785 C793 0.930 . S
H786 C794 0.930 . S
H787 C795 0.930 . S
H788 C798 0.930 . S
H789 C799 0.930 . S
C790 H784 0.930 1_565 S
C790 C791 1.355 . S
C790 C792 1.415 . S
C791 C790 1.355 . S
C791 C793 1.419 . S
C792 C790 1.415 . S
C792 C797 1.425 . S
C792 C799 1.409 1_565 S
C793 H785 0.930 . S
C793 C791 1.419 . S
C793 C794 1.362 . S
C794 H786 0.930 . S
C794 C793 1.362 . S
C794 C797 1.409 . S
C795 H787 0.930 . S
C795 C796 1.355 . S
C795 C797 1.415 . S
C796 C795 1.355 . S
C796 C798 1.419 1_565 S
C797 C792 1.425 . S
C797 C794 1.409 . S
C797 C795 1.415 . S
C798 H788 0.930 . S
C798 C796 1.419 1_545 S
C798 C799 1.362 . S
C799 H789 0.930 . S
C799 C792 1.409 1_545 S
C799 C798 1.362 . S
H800 C806 0.930 . S
H801 C809 0.930 . S
H802 C810 0.930 . S
H803 C811 0.930 . S
H804 C814 0.930 . S
H805 C815 0.930 . S
C806 H800 0.930 . S
C806 C807 1.355 . S
C806 C808 1.415 . S
C807 C806 1.355 . S
C807 C809 1.419 . S
C808 C806 1.415 . S
C808 C813 1.425 . S
C808 C815 1.409 . S
C809 H801 0.930 . S
C809 C807 1.419 . S
C809 C810 1.362 . S
C810 H802 0.930 . S
C810 C809 1.362 . S
C810 C813 1.409 . S
C811 H803 0.930 . S
C811 C812 1.355 . S
C811 C813 1.415 1_556 S
C812 C811 1.355 . S
C812 C814 1.419 . S
C813 C808 1.425 . S
C813 C810 1.409 . S
C813 C811 1.415 1_554 S
C814 H804 0.930 . S
C814 C812 1.419 . S
C814 C815 1.362 1_556 S
C815 H805 0.930 . S
C815 C808 1.409 . S
C815 C814 1.362 1_554 S
H816 C822 0.930 . S
H817 C825 0.930 . S
H818 C826 0.930 . S
H819 C827 0.930 . S
H820 C830 0.930 . S
H821 C831 0.930 . S
C822 H816 0.930 . S
C822 C823 1.355 . S
C822 C824 1.415 . S
C823 C822 1.355 . S
C823 C825 1.419 . S
C824 C822 1.415 . S
C824 C829 1.425 . S
C824 C831 1.409 . S
C825 H817 0.930 . S
C825 C823 1.419 . S
C825 C826 1.362 . S
C826 H818 0.930 . S
C826 C825 1.362 . S
C826 C829 1.409 . S
C827 H819 0.930 . S
C827 C828 1.355 . S
C827 C829 1.415 . S
C828 C827 1.355 . S
C828 C830 1.419 . S
C829 C824 1.425 . S
C829 C826 1.409 . S
C829 C827 1.415 . S
C830 H820 0.930 . S
C830 C828 1.419 . S
C830 C831 1.362 . S
C831 H821 0.930 . S
C831 C824 1.409 . S
C831 C830 1.362 . S
H832 C838 0.930 . S
H833 C841 0.930 . S
H834 C842 0.930 . S
H835 C843 0.930 . S
H836 C846 0.930 . S
H837 C847 0.930 . S
C838 H832 0.930 . S
C838 C839 1.355 . S
C838 C840 1.415 . S
C839 C838 1.355 . S
C839 C841 1.419 . S
C840 C838 1.415 . S
C840 C845 1.425 . S
C840 C847 1.409 . S
C841 H833 0.930 . S
C841 C839 1.419 . S
C841 C842 1.362 . S
C842 H834 0.930 . S
C842 C841 1.362 . S
C842 C845 1.409 . S
C843 H835 0.930 . S
C843 C844 1.355 . S
C843 C845 1.415 . S
C844 C843 1.355 . S
C844 C846 1.419 . S
C845 C840 1.425 . S
C845 C842 1.409 . S
C845 C843 1.415 . S
C846 H836 0.930 . S
C846 C844 1.419 . S
C846 C847 1.362 . S
C847 H837 0.930 . S
C847 C840 1.409 . S
C847 C846 1.362 . S
H848 C854 0.930 . S
H849 C857 0.930 . S
H850 C858 0.930 . S
H851 C859 0.930 . S
H852 C862 0.930 . S
H853 C863 0.930 . S
C854 H848 0.930 . S
C854 C855 1.355 . S
C854 C856 1.415 . S
C855 C854 1.355 . S
C855 C857 1.419 . S
C856 C854 1.415 . S
C856 C861 1.425 . S
C856 C863 1.409 . S
C857 H849 0.930 . S
C857 C855 1.419 . S
C857 C858 1.362 . S
C858 H850 0.930 . S
C858 C857 1.362 . S
C858 C861 1.409 . S
C859 H851 0.930 . S
C859 C860 1.355 . S
C859 C861 1.415 . S
C860 C859 1.355 . S
C860 C862 1.419 . S
C861 C856 1.425 . S
C861 C858 1.409 . S
C861 C859 1.415 . S
C862 H852 0.930 . S
C862 C860 1.419 . S
C862 C863 1.362 . S
C863 H853 0.930 . S
C863 C856 1.409 . S
C863 C862 1.362 . S
H864 C870 0.930 . S
H865 C873 0.930 . S
H866 C874 0.930 . S
H867 C875 0.930 1_554 S
H868 C878 0.930 . S
H869 C879 0.930 . S
C870 H864 0.930 . S
C870 C871 1.355 1_556 S
C870 C872 1.415 . S
C871 C870 1.355 1_554 S
C871 C873 1.419 . S
C872 C870 1.415 . S
C872 C877 1.425 1_556 S
C872 C879 1.409 . S
C873 H865 0.930 . S
C873 C871 1.419 . S
C873 C874 1.362 . S
C874 H866 0.930 . S
C874 C873 1.362 . S
C874 C877 1.409 . S
C875 H867 0.930 1_556 S
C875 C876 1.355 . S
C875 C877 1.415 1_556 S
C876 C875 1.355 . S
C876 C878 1.419 . S
C877 C872 1.425 1_554 S
C877 C874 1.409 . S
C877 C875 1.415 1_554 S
C878 H868 0.930 . S
C878 C876 1.419 . S
C878 C879 1.362 . S
C879 H869 0.930 . S
C879 C872 1.409 . S
C879 C878 1.362 . S
H880 C886 0.930 . S
H881 C889 0.930 . S
H882 C890 0.930 . S
H883 C891 0.930 . S
H884 C894 0.930 . S
H885 C895 0.930 . S
C886 H880 0.930 . S
C886 C887 1.355 . S
C886 C888 1.415 . S
C887 C886 1.355 . S
C887 C889 1.419 . S
C888 C886 1.415 . S
C888 C893 1.425 . S
C888 C895 1.409 . S
C889 H881 0.930 . S
C889 C887 1.419 . S
C889 C890 1.362 . S
C890 H882 0.930 . S
C890 C889 1.362 . S
C890 C893 1.409 . S
C891 H883 0.930 . S
C891 C892 1.355 . S
C891 C893 1.415 . S
C892 C891 1.355 . S
C892 C894 1.419 . S
C893 C888 1.425 . S
C893 C890 1.409 . S
C893 C891 1.415 . S
C894 H884 0.930 . S
C894 C892 1.419 . S
C894 C895 1.362 . S
C895 H885 0.930 . S
C895 C888 1.409 . S
C895 C894 1.362 . S
H896 C902 0.930 . S
H897 C905 0.930 . S
H898 C906 0.930 . S
H899 C907 0.930 . S
H900 C910 0.930 . S
H901 C911 0.930 . S
C902 H896 0.930 . S
C902 C903 1.355 . S
C902 C904 1.415 . S
C903 C902 1.355 . S
C903 C905 1.419 . S
C904 C902 1.415 . S
C904 C909 1.425 . S
C904 C911 1.409 . S
C905 H897 0.930 . S
C905 C903 1.419 . S
C905 C906 1.362 . S
C906 H898 0.930 . S
C906 C905 1.362 . S
C906 C909 1.409 . S
C907 H899 0.930 . S
C907 C908 1.355 . S
C907 C909 1.415 . S
C908 C907 1.355 . S
C908 C910 1.419 . S
C909 C904 1.425 . S
C909 C906 1.409 . S
C909 C907 1.415 . S
C910 H900 0.930 . S
C910 C908 1.419 . S
C910 C911 1.362 . S
C911 H901 0.930 . S
C911 C904 1.409 . S
C911 C910 1.362 . S
H912 C918 0.930 . S
H913 C921 0.930 . S
H914 C922 0.930 . S
H915 C923 0.930 . S
H916 C926 0.930 . S
H917 C927 0.930 . S
C918 H912 0.930 . S
C918 C919 1.355 . S
C918 C920 1.415 . S
C919 C918 1.355 . S
C919 C921 1.419 . S
C920 C918 1.415 . S
C920 C925 1.425 . S
C920 C927 1.409 . S
C921 H913 0.930 . S
C921 C919 1.419 . S
C921 C922 1.362 . S
C922 H914 0.930 . S
C922 C921 1.362 . S
C922 C925 1.409 . S
C923 H915 0.930 . S
C923 C924 1.355 . S
C923 C925 1.415 . S
C924 C923 1.355 . S
C924 C926 1.419 . S
C925 C920 1.425 . S
C925 C922 1.409 . S
C925 C923 1.415 . S
C926 H916 0.930 . S
C926 C924 1.419 . S
C926 C927 1.362 . S
C927 H917 0.930 . S
C927 C920 1.409 . S
C927 C926 1.362 . S
H928 C934 0.930 . S
H929 C937 0.930 . S
H930 C938 0.930 . S
H931 C939 0.930 . S
H932 C942 0.930 . S
H933 C943 0.930 . S
C934 H928 0.930 . S
C934 C935 1.355 . S
C934 C936 1.415 . S
C935 C934 1.355 . S
C935 C937 1.419 . S
C936 C934 1.415 . S
C936 C941 1.425 . S
C936 C943 1.409 . S
C937 H929 0.930 . S
C937 C935 1.419 . S
C937 C938 1.362 . S
C938 H930 0.930 . S
C938 C937 1.362 . S
C938 C941 1.409 . S
C939 H931 0.930 . S
C939 C940 1.355 . S
C939 C941 1.415 . S
C940 C939 1.355 . S
C940 C942 1.419 . S
C941 C936 1.425 . S
C941 C938 1.409 . S
C941 C939 1.415 . S
C942 H932 0.930 . S
C942 C940 1.419 . S
C942 C943 1.362 . S
C943 H933 0.930 . S
C943 C936 1.409 . S
C943 C942 1.362 . S
H944 C950 0.930 . S
H945 C953 0.930 . S
H946 C954 0.930 . S
H947 C955 0.930 . S
H948 C958 0.930 . S
H949 C959 0.930 . S
C950 H944 0.930 . S
C950 C951 1.355 . S
C950 C952 1.415 . S
C951 C950 1.355 . S
C951 C953 1.419 1_545 S
C952 C950 1.415 . S
C952 C957 1.425 . S
C952 C959 1.409 . S
C953 H945 0.930 . S
C953 C951 1.419 1_565 S
C953 C954 1.362 . S
C954 H946 0.930 . S
C954 C953 1.362 . S
C954 C957 1.409 1_565 S
C955 H947 0.930 . S
C955 C956 1.355 1_565 S
C955 C957 1.415 1_565 S
C956 C955 1.355 1_545 S
C956 C958 1.419 . S
C957 C952 1.425 . S
C957 C954 1.409 1_545 S
C957 C955 1.415 1_545 S
C958 H948 0.930 . S
C958 C956 1.419 . S
C958 C959 1.362 . S
C959 H949 0.930 . S
C959 C952 1.409 . S
C959 C958 1.362 . S
H960 C966 0.930 . S
H961 C969 0.930 . S
H962 C970 0.929 . S
H963 C971 0.930 . S
H964 C974 0.930 . S
H965 C975 0.930 . S
C966 H960 0.930 . S
C966 C967 1.355 . S
C966 C968 1.415 1_556 S
C967 C966 1.355 . S
C967 C969 1.419 . S
C968 C966 1.415 1_554 S
C968 C973 1.425 . S
C968 C975 1.409 . S
C969 H961 0.930 . S
C969 C967 1.419 . S
C969 C970 1.378 . S
C970 H962 0.929 . S
C970 C969 1.378 . S
C970 C973 1.397 1_556 S
C971 H963 0.930 . S
C971 C972 1.355 . S
C971 C973 1.415 . S
C972 C971 1.355 . S
C972 C974 1.419 . S
C973 C968 1.425 . S
C973 C970 1.397 1_554 S
C973 C971 1.415 . S
C974 H964 0.930 . S
C974 C972 1.419 . S
C974 C975 1.362 . S
C975 H965 0.930 . S
C975 C968 1.409 . S
C975 C974 1.362 . S
H976 C982 0.930 . S
H977 C985 0.930 . S
H978 C986 0.930 . S
H979 C987 0.946 . S
H980 C990 0.930 . S
H981 C991 0.930 . S
C982 H976 0.930 . S
C982 C983 1.355 . S
C982 C984 1.415 . S
C983 C982 1.355 . S
C983 C985 1.419 1_565 S
C984 C982 1.415 . S
C984 C989 1.431 . S
C984 C991 1.409 . S
C985 H977 0.930 . S
C985 C983 1.419 1_545 S
C985 C986 1.362 . S
C986 H978 0.930 . S
C986 C985 1.362 . S
C986 C989 1.404 1_545 S
C987 H979 0.946 . S
C987 C988 1.339 1_545 S
C987 C989 1.414 1_545 S
C988 C987 1.339 1_565 S
C988 C990 1.419 . S
C989 C984 1.431 . S
C989 C986 1.404 1_565 S
C989 C987 1.414 1_565 S
C990 H980 0.930 . S
C990 C988 1.419 . S
C990 C991 1.362 . S
C991 H981 0.930 . S
C991 C984 1.409 . S
C991 C990 1.362 . S
H992 C998 0.930 . S
H993 C1001 0.930 . S
H994 C1002 0.930 . S
H995 C1003 0.930 . S
H996 C1006 0.930 . S
H997 C1007 0.930 . S
C998 H992 0.930 . S
C998 C999 1.355 . S
C998 C1000 1.415 . S
C999 C998 1.355 . S
C999 C1001 1.419 . S
C1000 C998 1.415 . S
C1000 C1005 1.425 . S
C1000 C1007 1.409 . S
C1001 H993 0.930 . S
C1001 C999 1.419 . S
C1001 C1002 1.362 . S
C1002 H994 0.930 . S
C1002 C1001 1.362 . S
C1002 C1005 1.409 . S
C1003 H995 0.930 . S
C1003 C1004 1.355 . S
C1003 C1005 1.415 . S
C1004 C1003 1.355 . S
C1004 C1006 1.419 . S
C1005 C1000 1.425 . S
C1005 C1002 1.409 . S
C1005 C1003 1.415 . S
C1006 H996 0.930 . S
C1006 C1004 1.419 . S
C1006 C1007 1.362 . S
C1007 H997 0.930 . S
C1007 C1000 1.409 . S
C1007 C1006 1.362 . S
H1008 C1014 0.930 . S
H1009 C1017 0.930 . S
H1010 C1018 0.930 . S
H1011 C1019 0.930 . S
H1012 C1022 0.930 . S
H1013 C1023 0.930 . S
C1014 H1008 0.930 . S
C1014 C1015 1.355 . S
C1014 C1016 1.415 . S
C1015 C1014 1.355 . S
C1015 C1017 1.419 1_565 S
C1016 C1014 1.415 . S
C1016 C1021 1.425 . S
C1016 C1023 1.409 . S
C1017 H1009 0.930 . S
C1017 C1015 1.419 1_545 S
C1017 C1018 1.362 . S
C1018 H1010 0.930 . S
C1018 C1017 1.362 . S
C1018 C1021 1.409 1_545 S
C1019 H1011 0.930 . S
C1019 C1020 1.355 1_545 S
C1019 C1021 1.415 1_545 S
C1020 C1019 1.355 1_565 S
C1020 C1022 1.419 . S
C1021 C1016 1.425 . S
C1021 C1018 1.409 1_565 S
C1021 C1019 1.415 1_565 S
C1022 H1012 0.930 . S
C1022 C1020 1.419 . S
C1022 C1023 1.362 . S
C1023 H1013 0.930 . S
C1023 C1016 1.409 . S
C1023 C1022 1.362 . S
H1024 C1030 0.930 . S
H1025 C1033 0.930 . S
H1026 C1034 0.930 . S
H1027 C1035 0.930 1_554 S
H1028 C1038 0.930 . S
H1029 C1039 0.930 . S
C1030 H1024 0.930 . S
C1030 C1031 1.355 1_556 S
C1030 C1032 1.415 . S
C1031 C1030 1.355 1_554 S
C1031 C1033 1.419 . S
C1032 C1030 1.415 . S
C1032 C1037 1.425 1_556 S
C1032 C1039 1.409 . S
C1033 H1025 0.930 . S
C1033 C1031 1.419 . S
C1033 C1034 1.362 . S
C1034 H1026 0.930 . S
C1034 C1033 1.362 . S
C1034 C1037 1.409 . S
C1035 H1027 0.930 1_556 S
C1035 C1036 1.355 . S
C1035 C1037 1.415 1_556 S
C1036 C1035 1.355 . S
C1036 C1038 1.419 . S
C1037 C1032 1.425 1_554 S
C1037 C1034 1.409 . S
C1037 C1035 1.415 1_554 S
C1038 H1028 0.930 . S
C1038 C1036 1.419 . S
C1038 C1039 1.362 . S
C1039 H1029 0.930 . S
C1039 C1032 1.409 . S
C1039 C1038 1.362 . S
H1040 C1046 0.930 1_565 S
H1041 C1049 0.930 . S
H1042 C1050 0.930 . S
H1043 C1051 0.930 . S
H1044 C1054 0.930 . S
H1045 C1055 0.930 . S
C1046 H1040 0.930 1_545 S
C1046 C1047 1.355 . S
C1046 C1048 1.415 . S
C1047 C1046 1.355 . S
C1047 C1049 1.419 . S
C1048 C1046 1.415 . S
C1048 C1053 1.425 . S
C1048 C1055 1.409 . S
C1049 H1041 0.930 . S
C1049 C1047 1.419 . S
C1049 C1050 1.362 . S
C1050 H1042 0.930 . S
C1050 C1049 1.362 . S
C1050 C1053 1.409 . S
C1051 H1043 0.930 . S
C1051 C1052 1.355 . S
C1051 C1053 1.415 . S
C1052 C1051 1.355 . S
C1052 C1054 1.419 . S
C1053 C1048 1.425 . S
C1053 C1050 1.409 . S
C1053 C1051 1.415 . S
C1054 H1044 0.930 . S
C1054 C1052 1.419 . S
C1054 C1055 1.362 . S
C1055 H1045 0.930 . S
C1055 C1048 1.409 . S
C1055 C1054 1.362 . S
H1056 C1062 0.930 . S
H1057 C1065 0.930 . S
H1058 C1066 0.930 . S
H1059 C1067 0.930 . S
H1060 C1070 0.930 1_565 S
H1061 C1071 0.930 . S
C1062 H1056 0.930 . S
C1062 C1063 1.355 . S
C1062 C1064 1.415 . S
C1063 C1062 1.355 . S
C1063 C1065 1.419 . S
C1064 C1062 1.415 . S
C1064 C1069 1.425 . S
C1064 C1071 1.409 . S
C1065 H1057 0.930 . S
C1065 C1063 1.419 . S
C1065 C1066 1.362 . S
C1066 H1058 0.930 . S
C1066 C1065 1.362 . S
C1066 C1069 1.409 . S
C1067 H1059 0.930 . S
C1067 C1068 1.355 . S
C1067 C1069 1.415 . S
C1068 C1067 1.355 . S
C1068 C1070 1.419 . S
C1069 C1064 1.425 . S
C1069 C1066 1.409 . S
C1069 C1067 1.415 . S
C1070 H1060 0.930 1_545 S
C1070 C1068 1.419 . S
C1070 C1071 1.362 . S
C1071 H1061 0.930 . S
C1071 C1064 1.409 . S
C1071 C1070 1.362 . S
H1072 C1078 0.930 . S
H1073 C1081 0.930 . S
H1074 C1082 0.930 . S
H1075 C1083 0.930 . S
H1076 C1086 0.930 . S
H1077 C1087 0.930 . S
C1078 H1072 0.930 . S
C1078 C1079 1.355 . S
C1078 C1080 1.415 . S
C1079 C1078 1.355 . S
C1079 C1081 1.419 . S
C1080 C1078 1.415 . S
C1080 C1085 1.425 . S
C1080 C1087 1.409 . S
C1081 H1073 0.930 . S
C1081 C1079 1.419 . S
C1081 C1082 1.362 . S
C1082 H1074 0.930 . S
C1082 C1081 1.362 . S
C1082 C1085 1.409 . S
C1083 H1075 0.930 . S
C1083 C1084 1.355 . S
C1083 C1085 1.415 . S
C1084 C1083 1.355 . S
C1084 C1086 1.419 . S
C1085 C1080 1.425 . S
C1085 C1082 1.409 . S
C1085 C1083 1.415 . S
C1086 H1076 0.930 . S
C1086 C1084 1.419 . S
C1086 C1087 1.362 . S
C1087 H1077 0.930 . S
C1087 C1080 1.409 . S
C1087 C1086 1.362 . S
H1088 C1094 0.930 . S
H1089 C1097 0.930 . S
H1090 C1098 0.930 . S
H1091 C1099 0.930 . S
H1092 C1102 0.930 . S
H1093 C1103 0.930 . S
C1094 H1088 0.930 . S
C1094 C1095 1.355 . S
C1094 C1096 1.415 . S
C1095 C1094 1.355 . S
C1095 C1097 1.419 . S
C1096 C1094 1.415 . S
C1096 C1101 1.425 . S
C1096 C1103 1.409 . S
C1097 H1089 0.930 . S
C1097 C1095 1.419 . S
C1097 C1098 1.362 . S
C1098 H1090 0.930 . S
C1098 C1097 1.362 . S
C1098 C1101 1.409 . S
C1099 H1091 0.930 . S
C1099 C1100 1.355 . S
C1099 C1101 1.415 . S
C1100 C1099 1.355 . S
C1100 C1102 1.419 . S
C1101 C1096 1.425 . S
C1101 C1098 1.409 . S
C1101 C1099 1.415 . S
C1102 H1092 0.930 . S
C1102 C1100 1.419 . S
C1102 C1103 1.362 . S
C1103 H1093 0.930 . S
C1103 C1096 1.409 . S
C1103 C1102 1.362 . S
H1104 C1110 0.930 . S
H1105 C1113 0.930 . S
H1106 C1114 0.930 . S
H1107 C1115 0.930 . S
H1108 C1118 0.930 . S
H1109 C1119 0.930 . S
C1110 H1104 0.930 . S
C1110 C1111 1.355 . S
C1110 C1112 1.415 . S
C1111 C1110 1.355 . S
C1111 C1113 1.419 . S
C1112 C1110 1.415 . S
C1112 C1117 1.425 . S
C1112 C1119 1.409 . S
C1113 H1105 0.930 . S
C1113 C1111 1.419 . S
C1113 C1114 1.362 . S
C1114 H1106 0.930 . S
C1114 C1113 1.362 . S
C1114 C1117 1.409 . S
C1115 H1107 0.930 . S
C1115 C1116 1.355 . S
C1115 C1117 1.415 . S
C1116 C1115 1.355 . S
C1116 C1118 1.419 . S
C1117 C1112 1.425 . S
C1117 C1114 1.409 . S
C1117 C1115 1.415 . S
C1118 H1108 0.930 . S
C1118 C1116 1.419 . S
C1118 C1119 1.362 . S
C1119 H1109 0.930 . S
C1119 C1112 1.409 . S
C1119 C1118 1.362 . S
H1120 C1126 0.930 . S
H1121 C1129 0.930 . S
H1122 C1130 0.930 . S
H1123 C1131 0.930 . S
H1124 C1134 0.930 . S
H1125 C1135 0.930 . S
C1126 H1120 0.930 . S
C1126 C1127 1.355 . S
C1126 C1128 1.415 . S
C1127 C1126 1.355 . S
C1127 C1129 1.419 . S
C1128 C1126 1.415 . S
C1128 C1133 1.425 . S
C1128 C1135 1.409 . S
C1129 H1121 0.930 . S
C1129 C1127 1.419 . S
C1129 C1130 1.362 . S
C1130 H1122 0.930 . S
C1130 C1129 1.362 . S
C1130 C1133 1.409 . S
C1131 H1123 0.930 . S
C1131 C1132 1.355 . S
C1131 C1133 1.415 . S
C1132 C1131 1.355 . S
C1132 C1134 1.419 . S
C1133 C1128 1.425 . S
C1133 C1130 1.409 . S
C1133 C1131 1.415 . S
C1134 H1124 0.930 . S
C1134 C1132 1.419 . S
C1134 C1135 1.362 . S
C1135 H1125 0.930 . S
C1135 C1128 1.409 . S
C1135 C1134 1.362 . S
H1136 C1142 0.930 . S
H1137 C1145 0.930 . S
H1138 C1146 0.930 . S
H1139 C1147 0.930 . S
H1140 C1150 0.930 . S
H1141 C1151 0.930 . S
C1142 H1136 0.930 . S
C1142 C1143 1.355 . S
C1142 C1144 1.415 . S
C1143 C1142 1.355 . S
C1143 C1145 1.419 . S
C1144 C1142 1.415 . S
C1144 C1149 1.425 . S
C1144 C1151 1.409 . S
C1145 H1137 0.930 . S
C1145 C1143 1.419 . S
C1145 C1146 1.362 . S
C1146 H1138 0.930 . S
C1146 C1145 1.362 . S
C1146 C1149 1.409 . S
C1147 H1139 0.930 . S
C1147 C1148 1.355 . S
C1147 C1149 1.415 . S
C1148 C1147 1.355 . S
C1148 C1150 1.419 . S
C1149 C1144 1.425 . S
C1149 C1146 1.409 . S
C1149 C1147 1.415 . S
C1150 H1140 0.930 . S
C1150 C1148 1.419 . S
C1150 C1151 1.362 . S
C1151 H1141 0.930 . S
C1151 C1144 1.409 . S
C1151 C1150 1.362 . S
H1152 C1158 0.930 . S
H1153 C1161 0.930 1_565 S
H1154 C1162 0.930 . S
H1155 C1163 0.930 . S
H1156 C1166 0.930 . S
H1157 C1167 0.930 . S
C1158 H1152 0.930 . S
C1158 C1159 1.355 . S
C1158 C1160 1.415 . S
C1159 C1158 1.355 . S
C1159 C1161 1.419 . S
C1160 C1158 1.415 . S
C1160 C1165 1.425 . S
C1160 C1167 1.409 . S
C1161 H1153 0.930 1_545 S
C1161 C1159 1.419 . S
C1161 C1162 1.362 . S
C1162 H1154 0.930 . S
C1162 C1161 1.362 . S
C1162 C1165 1.409 . S
C1163 H1155 0.930 . S
C1163 C1164 1.355 . S
C1163 C1165 1.415 . S
C1164 C1163 1.355 . S
C1164 C1166 1.419 . S
C1165 C1160 1.425 . S
C1165 C1162 1.409 . S
C1165 C1163 1.415 . S
C1166 H1156 0.930 . S
C1166 C1164 1.419 . S
C1166 C1167 1.362 . S
C1167 H1157 0.930 . S
C1167 C1160 1.409 . S
C1167 C1166 1.362 . S
H1168 C1174 0.930 . S
H1169 C1177 0.930 . S
H1170 C1178 0.930 . S
H1171 C1179 0.930 . S
H1172 C1182 0.930 . S
H1173 C1183 0.930 . S
C1174 H1168 0.930 . S
C1174 C1175 1.355 . S
C1174 C1176 1.415 . S
C1175 C1174 1.355 . S
C1175 C1177 1.419 . S
C1176 C1174 1.415 . S
C1176 C1181 1.425 . S
C1176 C1183 1.409 . S
C1177 H1169 0.930 . S
C1177 C1175 1.419 . S
C1177 C1178 1.362 . S
C1178 H1170 0.930 . S
C1178 C1177 1.362 . S
C1178 C1181 1.409 . S
C1179 H1171 0.930 . S
C1179 C1180 1.355 . S
C1179 C1181 1.415 . S
C1180 C1179 1.355 . S
C1180 C1182 1.419 . S
C1181 C1176 1.425 . S
C1181 C1178 1.409 . S
C1181 C1179 1.415 . S
C1182 H1172 0.930 . S
C1182 C1180 1.419 . S
C1182 C1183 1.362 . S
C1183 H1173 0.930 . S
C1183 C1176 1.409 . S
C1183 C1182 1.362 . S
H1184 C1190 0.930 . S
H1185 C1193 0.930 . S
H1186 C1194 0.930 . S
H1187 C1195 0.930 . S
H1188 C1198 0.930 . S
H1189 C1199 0.930 . S
C1190 H1184 0.930 . S
C1190 C1191 1.355 . S
C1190 C1192 1.415 . S
C1191 C1190 1.355 . S
C1191 C1193 1.419 . S
C1192 C1190 1.415 . S
C1192 C1197 1.425 . S
C1192 C1199 1.409 . S
C1193 H1185 0.930 . S
C1193 C1191 1.419 . S
C1193 C1194 1.362 . S
C1194 H1186 0.930 . S
C1194 C1193 1.362 . S
C1194 C1197 1.409 . S
C1195 H1187 0.930 . S
C1195 C1196 1.355 . S
C1195 C1197 1.415 . S
C1196 C1195 1.355 . S
C1196 C1198 1.419 . S
C1197 C1192 1.425 . S
C1197 C1194 1.409 . S
C1197 C1195 1.415 . S
C1198 H1188 0.930 . S
C1198 C1196 1.419 . S
C1198 C1199 1.362 . S
C1199 H1189 0.930 . S
C1199 C1192 1.409 . S
C1199 C1198 1.362 . S
H1200 C1206 0.930 . S
H1201 C1209 0.930 . S
H1202 C1210 0.930 . S
H1203 C1211 0.930 . S
H1204 C1214 0.930 . S
H1205 C1215 0.930 . S
C1206 H1200 0.930 . S
C1206 C1207 1.355 . S
C1206 C1208 1.415 . S
C1207 C1206 1.355 . S
C1207 C1209 1.419 . S
C1208 C1206 1.415 . S
C1208 C1213 1.425 . S
C1208 C1215 1.409 . S
C1209 H1201 0.930 . S
C1209 C1207 1.419 . S
C1209 C1210 1.362 . S
C1210 H1202 0.930 . S
C1210 C1209 1.362 . S
C1210 C1213 1.409 . S
C1211 H1203 0.930 . S
C1211 C1212 1.355 . S
C1211 C1213 1.415 . S
C1212 C1211 1.355 . S
C1212 C1214 1.419 . S
C1213 C1208 1.425 . S
C1213 C1210 1.409 . S
C1213 C1211 1.415 . S
C1214 H1204 0.930 . S
C1214 C1212 1.419 . S
C1214 C1215 1.362 . S
C1215 H1205 0.930 . S
C1215 C1208 1.409 . S
C1215 C1214 1.362 . S
H1216 C1222 0.930 . S
H1217 C1225 0.930 . S
H1218 C1226 0.930 . S
H1219 C1227 0.930 . S
H1220 C1230 0.930 . S
H1221 C1231 0.930 . S
C1222 H1216 0.930 . S
C1222 C1223 1.355 . S
C1222 C1224 1.415 . S
C1223 C1222 1.355 . S
C1223 C1225 1.419 . S
C1224 C1222 1.415 . S
C1224 C1229 1.425 . S
C1224 C1231 1.409 . S
C1225 H1217 0.930 . S
C1225 C1223 1.419 . S
C1225 C1226 1.362 . S
C1226 H1218 0.930 . S
C1226 C1225 1.362 . S
C1226 C1229 1.409 . S
C1227 H1219 0.930 . S
C1227 C1228 1.355 . S
C1227 C1229 1.415 . S
C1228 C1227 1.355 . S
C1228 C1230 1.419 . S
C1229 C1224 1.425 . S
C1229 C1226 1.409 . S
C1229 C1227 1.415 . S
C1230 H1220 0.930 . S
C1230 C1228 1.419 . S
C1230 C1231 1.362 . S
C1231 H1221 0.930 . S
C1231 C1224 1.409 . S
C1231 C1230 1.362 . S
H1232 C1238 0.930 . S
H1233 C1241 0.930 . S
H1234 C1242 0.930 . S
H1235 C1243 0.930 . S
H1236 C1246 0.930 . S
H1237 C1247 0.930 . S
C1238 H1232 0.930 . S
C1238 C1239 1.355 . S
C1238 C1240 1.415 . S
C1239 C1238 1.355 . S
C1239 C1241 1.419 . S
C1240 C1238 1.415 . S
C1240 C1245 1.425 . S
C1240 C1247 1.409 . S
C1241 H1233 0.930 . S
C1241 C1239 1.419 . S
C1241 C1242 1.362 . S
C1242 H1234 0.930 . S
C1242 C1241 1.362 . S
C1242 C1245 1.409 . S
C1243 H1235 0.930 . S
C1243 C1244 1.355 . S
C1243 C1245 1.415 . S
C1244 C1243 1.355 . S
C1244 C1246 1.419 . S
C1245 C1240 1.425 . S
C1245 C1242 1.409 . S
C1245 C1243 1.415 . S
C1246 H1236 0.930 . S
C1246 C1244 1.419 . S
C1246 C1247 1.362 . S
C1247 H1237 0.930 . S
C1247 C1240 1.409 . S
C1247 C1246 1.362 . S
H1248 C1254 0.930 . S
H1249 C1257 0.930 . S
H1250 C1258 0.930 . S
H1251 C1259 0.930 . S
H1252 C1262 0.930 . S
H1253 C1263 0.930 . S
C1254 H1248 0.930 . S
C1254 C1255 1.355 . S
C1254 C1256 1.415 . S
C1255 C1254 1.355 . S
C1255 C1257 1.419 . S
C1256 C1254 1.415 . S
C1256 C1261 1.425 . S
C1256 C1263 1.409 . S
C1257 H1249 0.930 . S
C1257 C1255 1.419 . S
C1257 C1258 1.362 . S
C1258 H1250 0.930 . S
C1258 C1257 1.362 . S
C1258 C1261 1.409 . S
C1259 H1251 0.930 . S
C1259 C1260 1.355 . S
C1259 C1261 1.415 . S
C1260 C1259 1.355 . S
C1260 C1262 1.419 . S
C1261 C1256 1.425 . S
C1261 C1258 1.409 . S
C1261 C1259 1.415 . S
C1262 H1252 0.930 . S
C1262 C1260 1.419 . S
C1262 C1263 1.362 . S
C1263 H1253 0.930 . S
C1263 C1256 1.409 . S
C1263 C1262 1.362 . S
H1264 C1270 0.930 . S
H1265 C1273 0.930 . S
H1266 C1274 0.930 . S
H1267 C1275 0.930 . S
H1268 C1278 0.930 . S
H1269 C1279 0.930 . S
C1270 H1264 0.930 . S
C1270 C1271 1.355 . S
C1270 C1272 1.415 . S
C1271 C1270 1.355 . S
C1271 C1273 1.419 . S
C1272 C1270 1.415 . S
C1272 C1277 1.425 . S
C1272 C1279 1.409 1_545 S
C1273 H1265 0.930 . S
C1273 C1271 1.419 . S
C1273 C1274 1.362 . S
C1274 H1266 0.930 . S
C1274 C1273 1.362 . S
C1274 C1277 1.409 . S
C1275 H1267 0.930 . S
C1275 C1276 1.355 . S
C1275 C1277 1.415 . S
C1276 C1275 1.355 . S
C1276 C1278 1.419 1_545 S
C1277 C1272 1.425 . S
C1277 C1274 1.409 . S
C1277 C1275 1.415 . S
C1278 H1268 0.930 . S
C1278 C1276 1.419 1_565 S
C1278 C1279 1.362 . S
C1279 H1269 0.930 . S
C1279 C1272 1.409 1_565 S
C1279 C1278 1.362 . S
H1280 C1286 0.930 . S
H1281 C1289 0.930 . S
H1282 C1290 0.930 . S
H1283 C1291 0.930 . S
H1284 C1294 0.930 . S
H1285 C1295 0.930 . S
C1286 H1280 0.930 . S
C1286 C1287 1.355 . S
C1286 C1288 1.415 . S
C1287 C1286 1.355 . S
C1287 C1289 1.419 . S
C1288 C1286 1.415 . S
C1288 C1293 1.425 . S
C1288 C1295 1.409 . S
C1289 H1281 0.930 . S
C1289 C1287 1.419 . S
C1289 C1290 1.362 . S
C1290 H1282 0.930 . S
C1290 C1289 1.362 . S
C1290 C1293 1.409 . S
C1291 H1283 0.930 . S
C1291 C1292 1.355 . S
C1291 C1293 1.415 . S
C1292 C1291 1.355 . S
C1292 C1294 1.419 . S
C1293 C1288 1.425 . S
C1293 C1290 1.409 . S
C1293 C1291 1.415 . S
C1294 H1284 0.930 . S
C1294 C1292 1.419 . S
C1294 C1295 1.362 . S
C1295 H1285 0.930 . S
C1295 C1288 1.409 . S
C1295 C1294 1.362 . S
H1296 C1302 0.930 . S
H1297 C1305 0.930 . S
H1298 C1306 0.930 . S
H1299 C1307 0.930 . S
H1300 C1310 0.930 . S
H1301 C1311 0.930 . S
C1302 H1296 0.930 . S
C1302 C1303 1.355 . S
C1302 C1304 1.415 . S
C1303 C1302 1.355 . S
C1303 C1305 1.419 . S
C1304 C1302 1.415 . S
C1304 C1309 1.425 . S
C1304 C1311 1.409 . S
C1305 H1297 0.930 . S
C1305 C1303 1.419 . S
C1305 C1306 1.362 . S
C1306 H1298 0.930 . S
C1306 C1305 1.362 . S
C1306 C1309 1.409 . S
C1307 H1299 0.930 . S
C1307 C1308 1.355 . S
C1307 C1309 1.415 . S
C1308 C1307 1.355 . S
C1308 C1310 1.419 . S
C1309 C1304 1.425 . S
C1309 C1306 1.409 . S
C1309 C1307 1.415 . S
C1310 H1300 0.930 . S
C1310 C1308 1.419 . S
C1310 C1311 1.362 . S
C1311 H1301 0.930 . S
C1311 C1304 1.409 . S
C1311 C1310 1.362 . S
H1312 C1318 0.930 . S
H1313 C1321 0.930 . S
H1314 C1322 0.930 . S
H1315 C1323 0.930 . S
H1316 C1326 0.930 . S
H1317 C1327 0.930 . S
C1318 H1312 0.930 . S
C1318 C1319 1.355 . S
C1318 C1320 1.415 . S
C1319 C1318 1.355 . S
C1319 C1321 1.419 . S
C1320 C1318 1.415 . S
C1320 C1325 1.425 . S
C1320 C1327 1.409 . S
C1321 H1313 0.930 . S
C1321 C1319 1.419 . S
C1321 C1322 1.362 . S
C1322 H1314 0.930 . S
C1322 C1321 1.362 . S
C1322 C1325 1.409 . S
C1323 H1315 0.930 . S
C1323 C1324 1.355 . S
C1323 C1325 1.415 . S
C1324 C1323 1.355 . S
C1324 C1326 1.419 . S
C1325 C1320 1.425 . S
C1325 C1322 1.409 . S
C1325 C1323 1.415 . S
C1326 H1316 0.930 . S
C1326 C1324 1.419 . S
C1326 C1327 1.362 . S
C1327 H1317 0.930 . S
C1327 C1320 1.409 . S
C1327 C1326 1.362 . S
H1328 C1334 0.930 . S
H1329 C1337 0.930 . S
H1330 C1338 0.930 . S
H1331 C1339 0.930 . S
H1332 C1342 0.930 . S
H1333 C1343 0.930 . S
C1334 H1328 0.930 . S
C1334 C1335 1.355 . S
C1334 C1336 1.415 . S
C1335 C1334 1.355 . S
C1335 C1337 1.419 . S
C1336 C1334 1.415 . S
C1336 C1341 1.425 . S
C1336 C1343 1.409 . S
C1337 H1329 0.930 . S
C1337 C1335 1.419 . S
C1337 C1338 1.362 . S
C1338 H1330 0.930 . S
C1338 C1337 1.362 . S
C1338 C1341 1.409 . S
C1339 H1331 0.930 . S
C1339 C1340 1.355 . S
C1339 C1341 1.415 . S
C1340 C1339 1.355 . S
C1340 C1342 1.419 . S
C1341 C1336 1.425 . S
C1341 C1338 1.409 . S
C1341 C1339 1.415 . S
C1342 H1332 0.930 . S
C1342 C1340 1.419 . S
C1342 C1343 1.362 . S
C1343 H1333 0.930 . S
C1343 C1336 1.409 . S
C1343 C1342 1.362 . S
H1344 C1350 0.930 . S
H1345 C1353 0.930 . S
H1346 C1354 0.930 . S
H1347 C1355 0.930 . S
H1348 C1358 0.930 . S
H1349 C1359 0.930 . S
C1350 H1344 0.930 . S
C1350 C1351 1.355 . S
C1350 C1352 1.415 . S
C1351 C1350 1.355 . S
C1351 C1353 1.419 1_455 S
C1352 C1350 1.415 . S
C1352 C1357 1.425 1_455 S
C1352 C1359 1.409 . S
C1353 H1345 0.930 . S
C1353 C1351 1.419 1_655 S
C1353 C1354 1.362 . S
C1354 H1346 0.930 . S
C1354 C1353 1.362 . S
C1354 C1357 1.409 . S
C1355 H1347 0.930 . S
C1355 C1356 1.355 . S
C1355 C1357 1.415 . S
C1356 C1355 1.355 . S
C1356 C1358 1.419 1_655 S
C1357 C1352 1.425 1_655 S
C1357 C1354 1.409 . S
C1357 C1355 1.415 . S
C1358 H1348 0.930 . S
C1358 C1356 1.419 1_455 S
C1358 C1359 1.362 . S
C1359 H1349 0.930 . S
C1359 C1352 1.409 . S
C1359 C1358 1.362 . S
H1360 C1366 0.930 . S
H1361 C1369 0.930 . S
H1362 C1370 0.930 . S
H1363 C1371 0.930 . S
H1364 C1374 0.930 . S
H1365 C1375 0.930 . S
C1366 H1360 0.930 . S
C1366 C1367 1.355 . S
C1366 C1368 1.415 1_455 S
C1367 C1366 1.355 . S
C1367 C1369 1.419 . S
C1368 C1366 1.415 1_655 S
C1368 C1373 1.425 1_655 S
C1368 C1375 1.409 . S
C1369 H1361 0.930 . S
C1369 C1367 1.419 . S
C1369 C1370 1.362 . S
C1370 H1362 0.930 . S
C1370 C1369 1.362 . S
C1370 C1373 1.409 . S
C1371 H1363 0.930 . S
C1371 C1372 1.355 . S
C1371 C1373 1.415 1_655 S
C1372 C1371 1.355 . S
C1372 C1374 1.419 . S
C1373 C1368 1.425 1_455 S
C1373 C1370 1.409 . S
C1373 C1371 1.415 1_455 S
C1374 H1364 0.930 . S
C1374 C1372 1.419 . S
C1374 C1375 1.362 . S
C1375 H1365 0.930 . S
C1375 C1368 1.409 . S
C1375 C1374 1.362 . S
H1376 C1382 0.930 . S
H1377 C1385 0.930 1_556 S
H1378 C1386 0.930 1_556 S
H1379 C1387 0.947 . S
H1380 C1390 0.930 . S
H1381 C1391 0.930 . S
C1382 H1376 0.930 . S
C1382 C1383 1.355 . S
C1382 C1384 1.415 . S
C1383 C1382 1.355 . S
C1383 C1385 1.419 . S
C1384 C1382 1.415 . S
C1384 C1389 1.425 . S
C1384 C1391 1.409 . S
C1385 H1377 0.930 1_554 S
C1385 C1383 1.419 . S
C1385 C1386 1.362 . S
C1386 H1378 0.930 1_554 S
C1386 C1385 1.362 . S
C1386 C1389 1.409 . S
C1387 H1379 0.947 . S
C1387 C1388 1.355 . S
C1387 C1389 1.415 . S
C1388 C1387 1.355 . S
C1388 C1390 1.419 . S
C1389 C1384 1.425 . S
C1389 C1386 1.409 . S
C1389 C1387 1.415 . S
C1390 H1380 0.930 . S
C1390 C1388 1.419 . S
C1390 C1391 1.362 . S
C1391 H1381 0.930 . S
C1391 C1384 1.409 . S
C1391 C1390 1.362 . S
H1392 C1398 0.930 . S
H1393 C1401 0.930 . S
H1394 C1402 0.930 . S
H1395 C1403 0.930 . S
H1396 C1406 0.930 . S
H1397 C1407 0.930 . S
C1398 H1392 0.930 . S
C1398 C1399 1.355 . S
C1398 C1400 1.415 . S
C1399 C1398 1.355 . S
C1399 C1401 1.419 . S
C1400 C1398 1.415 . S
C1400 C1405 1.425 . S
C1400 C1407 1.409 . S
C1401 H1393 0.930 . S
C1401 C1399 1.419 . S
C1401 C1402 1.362 . S
C1402 H1394 0.930 . S
C1402 C1401 1.362 . S
C1402 C1405 1.409 . S
C1403 H1395 0.930 . S
C1403 C1404 1.355 . S
C1403 C1405 1.415 . S
C1404 C1403 1.355 . S
C1404 C1406 1.419 . S
C1405 C1400 1.425 . S
C1405 C1402 1.409 . S
C1405 C1403 1.415 . S
C1406 H1396 0.930 . S
C1406 C1404 1.419 . S
C1406 C1407 1.362 . S
C1407 H1397 0.930 . S
C1407 C1400 1.409 . S
C1407 C1406 1.362 . S
H1408 C1414 0.930 . S
H1409 C1417 0.930 . S
H1410 C1418 0.930 . S
H1411 C1419 0.930 . S
H1412 C1422 0.930 . S
H1413 C1423 0.930 . S
C1414 H1408 0.930 . S
C1414 C1415 1.355 . S
C1414 C1416 1.415 . S
C1415 C1414 1.355 . S
C1415 C1417 1.419 1_455 S
C1416 C1414 1.415 . S
C1416 C1421 1.425 1_455 S
C1416 C1423 1.409 . S
C1417 H1409 0.930 . S
C1417 C1415 1.419 1_655 S
C1417 C1418 1.362 . S
C1418 H1410 0.930 . S
C1418 C1417 1.362 . S
C1418 C1421 1.409 . S
C1419 H1411 0.930 . S
C1419 C1420 1.355 . S
C1419 C1421 1.415 . S
C1420 C1419 1.355 . S
C1420 C1422 1.419 1_655 S
C1421 C1416 1.425 1_655 S
C1421 C1418 1.409 . S
C1421 C1419 1.415 . S
C1422 H1412 0.930 . S
C1422 C1420 1.419 1_455 S
C1422 C1423 1.362 . S
C1423 H1413 0.930 . S
C1423 C1416 1.409 . S
C1423 C1422 1.362 . S
H1424 C1430 0.930 . S
H1425 C1433 0.930 . S
H1426 C1434 0.930 . S
H1427 C1435 0.930 . S
H1428 C1438 0.930 . S
H1429 C1439 0.930 . S
C1430 H1424 0.930 . S
C1430 C1431 1.355 . S
C1430 C1432 1.415 . S
C1431 C1430 1.355 . S
C1431 C1433 1.419 . S
C1432 C1430 1.415 . S
C1432 C1437 1.425 1_455 S
C1432 C1439 1.409 . S
C1433 H1425 0.930 . S
C1433 C1431 1.419 . S
C1433 C1434 1.362 1_455 S
C1434 H1426 0.930 . S
C1434 C1433 1.362 1_655 S
C1434 C1437 1.409 . S
C1435 H1427 0.930 . S
C1435 C1436 1.355 . S
C1435 C1437 1.415 . S
C1436 C1435 1.355 . S
C1436 C1438 1.419 . S
C1437 C1432 1.425 1_655 S
C1437 C1434 1.409 . S
C1437 C1435 1.415 . S
C1438 H1428 0.930 . S
C1438 C1436 1.419 . S
C1438 C1439 1.362 1_655 S
C1439 H1429 0.930 . S
C1439 C1432 1.409 . S
C1439 C1438 1.362 1_455 S
C551 C253 1.477 . S
C556 C3 1.442 . S
C567 C430 1.477 . S
C572 C37 1.444 . S
C583 C71 1.476 . S
C588 C185 1.483 . S
C599 C498 1.504 . S
C604 C105 1.441 . S
C615 C117 1.482 . S
C620 C137 1.425 . S
C631 C173 1.483 . S
C636 C287 1.487 . S
C647 C205 1.420 . S
C652 C49 1.488 . S
C663 C362 1.477 . S
C668 C241 1.454 . S
C679 C525 1.477 . S
C684 C275 1.450 . S
C695 C307 1.473 . S
C700 C158 1.506 . S
C711 C464 1.482 . S
C716 C341 1.475 . S
C727 C226 1.490 . S
C732 C375 1.420 . S
C743 C396 1.488 . S
C748 C409 1.420 . S
C759 C443 1.487 . S
C764 C15 1.497 . S
C775 C477 1.481 . S
C780 C328 1.504 . S
C791 C83 1.477 . S
C796 C513 1.455 . S
C807 C17 2.193 1_565 S
C812 C479 2.127 . S
C823 C239 2.126 1_655 S
C828 C51 2.214 . S
C839 C411 2.081 . S
C844 C85 2.220 1_545 S
C855 C119 2.200 . S
C860 C171 2.142 . S
C871 C343 2.079 . S
C876 C153 2.216 1_545 S
C887 C103 2.119 1_455 S
C892 C187 2.194 . S
C903 C221 2.219 1_565 S
C908 C273 2.115 . S
C919 C255 2.221 . S
C924 C35 2.083 . S
C935 C289 2.220 . S
C940 C207 2.109 . S
C951 C323 2.196 . S
C956 C511 2.140 . S
C967 C139 2.105 . S
C972 C357 2.198 . S
C983 C445 2.098 1_455 S
C988 C391 2.222 . S
C999 C69 2.139 . S
C1004 C425 2.205 . S
C1015 C459 2.194 . S
C1020 C377 2.132 . S
C1031 C1 2.100 . S
C1036 C493 2.199 . S
C1047 C309 2.140 1_655 S
C1052 C527 2.203 . S
C1063 C6 1.339 . S
C1068 C312 1.350 . S
C1079 C346 1.352 . S
C1084 C40 1.342 . S
C1095 C380 1.350 . S
C1100 C74 1.331 . S
C1111 C300 1.328 . S
C1116 C108 1.276 . S
C1127 C164 1.319 . S
C1132 C448 1.346 . S
C1143 C176 1.333 . S
C1148 C482 1.350 . S
C1159 C538 1.349 . S
C1164 C232 1.338 . S
C1175 C414 1.335 . S
C1180 C244 1.291 . S
C1191 C62 1.340 . S
C1196 C278 1.305 . S
C1207 C96 1.328 . S
C1212 C334 1.276 . S
C1223 C368 1.306 . S
C1228 C130 1.341 . S
C1239 C402 1.276 . S
C1244 C28 1.325 . S
C1255 C436 1.341 . S
C1260 C198 1.350 . S
C1271 C210 1.344 . S
C1276 C470 1.314 . S
C1287 C504 1.270 . S
C1292 C266 1.324 . S
C1303 C142 1.324 . S
C1308 C516 1.271 . S
C1319 C355 0.862 . S
C1324 C22 0.915 . S
C1335 C56 0.860 . S
C1340 C389 0.917 . S
C1351 C90 0.975 . S
C1356 C294 0.956 . S
C1367 C321 1.002 . S
C1372 C124 0.919 . S
C1383 C151 0.865 . S
C1388 C491 0.911 . S
C1399 C532 0.825 . S
C1404 C192 0.984 . S
C1415 C423 0.952 . S
C1420 C219 0.979 . S
C1431 C260 0.925 . S
C1436 C457 0.854 . S
