# Generated by pormake.
# Topology yfm, (5)-cn, num edge types: 1
# Building blocks:
#     Node 0, Type 0, BuildingBlock: BEQFEK_clean_sbu_0, # of connection points: 5
#     Node 1, Type 0, BuildingBlock: BEQFEK_clean_sbu_0, # of connection points: 5
#     Node 2, Type 0, BuildingBlock: BEQFEK_clean_sbu_0, # of connection points: 5
#     Node 3, Type 0, BuildingBlock: BEQFEK_clean_sbu_0, # of connection points: 5
#     Node 4, Type 0, BuildingBlock: BEQFEK_clean_sbu_0, # of connection points: 5
#     Node 5, Type 0, BuildingBlock: BEQFEK_clean_sbu_0, # of connection points: 5
#     Node 6, Type 0, BuildingBlock: BEQFEK_clean_sbu_0, # of connection points: 5
#     Node 7, Type 0, BuildingBlock: BEQFEK_clean_sbu_0, # of connection points: 5
#     Node 8, Type 0, BuildingBlock: BEQFEK_clean_sbu_0, # of connection points: 5
#     Node 9, Type 0, BuildingBlock: BEQFEK_clean_sbu_0, # of connection points: 5
#     Node 10, Type 0, BuildingBlock: BEQFEK_clean_sbu_0, # of connection points: 5
#     Node 11, Type 0, BuildingBlock: BEQFEK_clean_sbu_0, # of connection points: 5
#     Node 12, Type 0, BuildingBlock: BEQFEK_clean_sbu_0, # of connection points: 5
#     Node 13, Type 0, BuildingBlock: BEQFEK_clean_sbu_0, # of connection points: 5
#     Node 14, Type 0, BuildingBlock: BEQFEK_clean_sbu_0, # of connection points: 5
#     Node 15, Type 0, BuildingBlock: BEQFEK_clean_sbu_0, # of connection points: 5
#     Node 16, Type 0, BuildingBlock: BEQFEK_clean_sbu_0, # of connection points: 5
#     Node 17, Type 0, BuildingBlock: BEQFEK_clean_sbu_0, # of connection points: 5
#     Node 18, Type 0, BuildingBlock: BEQFEK_clean_sbu_0, # of connection points: 5
#     Node 19, Type 0, BuildingBlock: BEQFEK_clean_sbu_0, # of connection points: 5
#     Node 20, Type 0, BuildingBlock: BEQFEK_clean_sbu_0, # of connection points: 5
#     Node 21, Type 0, BuildingBlock: BEQFEK_clean_sbu_0, # of connection points: 5
#     Node 22, Type 0, BuildingBlock: BEQFEK_clean_sbu_0, # of connection points: 5
#     Node 23, Type 0, BuildingBlock: BEQFEK_clean_sbu_0, # of connection points: 5
#     Node 24, Type 0, BuildingBlock: BEQFEK_clean_sbu_0, # of connection points: 5
#     Node 25, Type 0, BuildingBlock: BEQFEK_clean_sbu_0, # of connection points: 5
#     Node 26, Type 0, BuildingBlock: BEQFEK_clean_sbu_0, # of connection points: 5
#     Node 27, Type 0, BuildingBlock: BEQFEK_clean_sbu_0, # of connection points: 5
#     Node 28, Type 0, BuildingBlock: BEQFEK_clean_sbu_0, # of connection points: 5
#     Node 29, Type 0, BuildingBlock: BEQFEK_clean_sbu_0, # of connection points: 5
#     Node 30, Type 0, BuildingBlock: BEQFEK_clean_sbu_0, # of connection points: 5
#     Node 31, Type 0, BuildingBlock: BEQFEK_clean_sbu_0, # of connection points: 5
#     Edge 32, Type (0, 0), BuildingBlock: OJICUG_clean_linker_0, # of connection points: 2
#     Edge 33, Type (0, 0), BuildingBlock: OJICUG_clean_linker_0, # of connection points: 2
#     Edge 34, Type (0, 0), BuildingBlock: OJICUG_clean_linker_0, # of connection points: 2
#     Edge 35, Type (0, 0), BuildingBlock: OJICUG_clean_linker_0, # of connection points: 2
#     Edge 36, Type (0, 0), BuildingBlock: OJICUG_clean_linker_0, # of connection points: 2
#     Edge 37, Type (0, 0), BuildingBlock: OJICUG_clean_linker_0, # of connection points: 2
#     Edge 38, Type (0, 0), BuildingBlock: OJICUG_clean_linker_0, # of connection points: 2
#     Edge 39, Type (0, 0), BuildingBlock: OJICUG_clean_linker_0, # of connection points: 2
#     Edge 40, Type (0, 0), BuildingBlock: OJICUG_clean_linker_0, # of connection points: 2
#     Edge 41, Type (0, 0), BuildingBlock: OJICUG_clean_linker_0, # of connection points: 2
#     Edge 42, Type (0, 0), BuildingBlock: OJICUG_clean_linker_0, # of connection points: 2
#     Edge 43, Type (0, 0), BuildingBlock: OJICUG_clean_linker_0, # of connection points: 2
#     Edge 44, Type (0, 0), BuildingBlock: OJICUG_clean_linker_0, # of connection points: 2
#     Edge 45, Type (0, 0), BuildingBlock: OJICUG_clean_linker_0, # of connection points: 2
#     Edge 46, Type (0, 0), BuildingBlock: OJICUG_clean_linker_0, # of connection points: 2
#     Edge 47, Type (0, 0), BuildingBlock: OJICUG_clean_linker_0, # of connection points: 2
#     Edge 48, Type (0, 0), BuildingBlock: OJICUG_clean_linker_0, # of connection points: 2
#     Edge 49, Type (0, 0), BuildingBlock: OJICUG_clean_linker_0, # of connection points: 2
#     Edge 50, Type (0, 0), BuildingBlock: OJICUG_clean_linker_0, # of connection points: 2
#     Edge 51, Type (0, 0), BuildingBlock: OJICUG_clean_linker_0, # of connection points: 2
#     Edge 52, Type (0, 0), BuildingBlock: OJICUG_clean_linker_0, # of connection points: 2
#     Edge 53, Type (0, 0), BuildingBlock: OJICUG_clean_linker_0, # of connection points: 2
#     Edge 54, Type (0, 0), BuildingBlock: OJICUG_clean_linker_0, # of connection points: 2
#     Edge 55, Type (0, 0), BuildingBlock: OJICUG_clean_linker_0, # of connection points: 2
#     Edge 56, Type (0, 0), BuildingBlock: OJICUG_clean_linker_0, # of connection points: 2
#     Edge 57, Type (0, 0), BuildingBlock: OJICUG_clean_linker_0, # of connection points: 2
#     Edge 58, Type (0, 0), BuildingBlock: OJICUG_clean_linker_0, # of connection points: 2
#     Edge 59, Type (0, 0), BuildingBlock: OJICUG_clean_linker_0, # of connection points: 2
#     Edge 60, Type (0, 0), BuildingBlock: OJICUG_clean_linker_0, # of connection points: 2
#     Edge 61, Type (0, 0), BuildingBlock: OJICUG_clean_linker_0, # of connection points: 2
#     Edge 62, Type (0, 0), BuildingBlock: OJICUG_clean_linker_0, # of connection points: 2
#     Edge 63, Type (0, 0), BuildingBlock: OJICUG_clean_linker_0, # of connection points: 2
#     Edge 64, Type (0, 0), BuildingBlock: OJICUG_clean_linker_0, # of connection points: 2
#     Edge 65, Type (0, 0), BuildingBlock: OJICUG_clean_linker_0, # of connection points: 2
#     Edge 66, Type (0, 0), BuildingBlock: OJICUG_clean_linker_0, # of connection points: 2
#     Edge 67, Type (0, 0), BuildingBlock: OJICUG_clean_linker_0, # of connection points: 2
#     Edge 68, Type (0, 0), BuildingBlock: OJICUG_clean_linker_0, # of connection points: 2
#     Edge 69, Type (0, 0), BuildingBlock: OJICUG_clean_linker_0, # of connection points: 2
#     Edge 70, Type (0, 0), BuildingBlock: OJICUG_clean_linker_0, # of connection points: 2
#     Edge 71, Type (0, 0), BuildingBlock: OJICUG_clean_linker_0, # of connection points: 2
#     Edge 72, Type (0, 0), BuildingBlock: OJICUG_clean_linker_0, # of connection points: 2
#     Edge 73, Type (0, 0), BuildingBlock: OJICUG_clean_linker_0, # of connection points: 2
#     Edge 74, Type (0, 0), BuildingBlock: OJICUG_clean_linker_0, # of connection points: 2
#     Edge 75, Type (0, 0), BuildingBlock: OJICUG_clean_linker_0, # of connection points: 2
#     Edge 76, Type (0, 0), BuildingBlock: OJICUG_clean_linker_0, # of connection points: 2
#     Edge 77, Type (0, 0), BuildingBlock: OJICUG_clean_linker_0, # of connection points: 2
#     Edge 78, Type (0, 0), BuildingBlock: OJICUG_clean_linker_0, # of connection points: 2
#     Edge 79, Type (0, 0), BuildingBlock: OJICUG_clean_linker_0, # of connection points: 2
#     Edge 80, Type (0, 0), BuildingBlock: OJICUG_clean_linker_0, # of connection points: 2
#     Edge 81, Type (0, 0), BuildingBlock: OJICUG_clean_linker_0, # of connection points: 2
#     Edge 82, Type (0, 0), BuildingBlock: OJICUG_clean_linker_0, # of connection points: 2
#     Edge 83, Type (0, 0), BuildingBlock: OJICUG_clean_linker_0, # of connection points: 2
#     Edge 84, Type (0, 0), BuildingBlock: OJICUG_clean_linker_0, # of connection points: 2
#     Edge 85, Type (0, 0), BuildingBlock: OJICUG_clean_linker_0, # of connection points: 2
#     Edge 86, Type (0, 0), BuildingBlock: OJICUG_clean_linker_0, # of connection points: 2
#     Edge 87, Type (0, 0), BuildingBlock: OJICUG_clean_linker_0, # of connection points: 2
#     Edge 88, Type (0, 0), BuildingBlock: OJICUG_clean_linker_0, # of connection points: 2
#     Edge 89, Type (0, 0), BuildingBlock: OJICUG_clean_linker_0, # of connection points: 2
#     Edge 90, Type (0, 0), BuildingBlock: OJICUG_clean_linker_0, # of connection points: 2
#     Edge 91, Type (0, 0), BuildingBlock: OJICUG_clean_linker_0, # of connection points: 2
#     Edge 92, Type (0, 0), BuildingBlock: OJICUG_clean_linker_0, # of connection points: 2
#     Edge 93, Type (0, 0), BuildingBlock: OJICUG_clean_linker_0, # of connection points: 2
#     Edge 94, Type (0, 0), BuildingBlock: OJICUG_clean_linker_0, # of connection points: 2
#     Edge 95, Type (0, 0), BuildingBlock: OJICUG_clean_linker_0, # of connection points: 2
#     Edge 96, Type (0, 0), BuildingBlock: OJICUG_clean_linker_0, # of connection points: 2
#     Edge 97, Type (0, 0), BuildingBlock: OJICUG_clean_linker_0, # of connection points: 2
#     Edge 98, Type (0, 0), BuildingBlock: OJICUG_clean_linker_0, # of connection points: 2
#     Edge 99, Type (0, 0), BuildingBlock: OJICUG_clean_linker_0, # of connection points: 2
#     Edge 100, Type (0, 0), BuildingBlock: OJICUG_clean_linker_0, # of connection points: 2
#     Edge 101, Type (0, 0), BuildingBlock: OJICUG_clean_linker_0, # of connection points: 2
#     Edge 102, Type (0, 0), BuildingBlock: OJICUG_clean_linker_0, # of connection points: 2
#     Edge 103, Type (0, 0), BuildingBlock: OJICUG_clean_linker_0, # of connection points: 2
#     Edge 104, Type (0, 0), BuildingBlock: OJICUG_clean_linker_0, # of connection points: 2
#     Edge 105, Type (0, 0), BuildingBlock: OJICUG_clean_linker_0, # of connection points: 2
#     Edge 106, Type (0, 0), BuildingBlock: OJICUG_clean_linker_0, # of connection points: 2
#     Edge 107, Type (0, 0), BuildingBlock: OJICUG_clean_linker_0, # of connection points: 2
#     Edge 108, Type (0, 0), BuildingBlock: OJICUG_clean_linker_0, # of connection points: 2
#     Edge 109, Type (0, 0), BuildingBlock: OJICUG_clean_linker_0, # of connection points: 2
#     Edge 110, Type (0, 0), BuildingBlock: OJICUG_clean_linker_0, # of connection points: 2
#     Edge 111, Type (0, 0), BuildingBlock: OJICUG_clean_linker_0, # of connection points: 2
# Relax obj value: 0.539
# Max RMSD: 0.236
# Mean RMSD: 0.236
data_MOF--net-yfm--node1-BEQFEK_clean_sbu_0--edge1-OJICUG_clean_linker_0
_symmetry_space_group_name_H-M    P1
_symmetry_Int_Tables_number       1
_symmetry_cell_setting            triclinic
loop_
_symmetry_equiv_pos_as_xyz
'x, y, z'
_cell_length_a     48.55179
_cell_length_b     48.571593
_cell_length_c     39.298296
_cell_angle_alpha  89.998742
_cell_angle_beta   90.015008
_cell_angle_gamma 89.990012
loop_
_atom_site_label
_atom_site_type_symbol
_atom_site_fract_x
_atom_site_fract_y
_atom_site_fract_z
_atom_type_partial_charge
Co0 Co 0.23533 0.14015 0.13044 0.0
Co1 Co 0.2411 0.11098 0.05825 0.0
C2 C 0.28737 0.11199 0.10877 0.0
O3 O 0.2728 0.12506 0.13017 0.0
O4 O 0.27795 0.10575 0.07951 0.0
C5 C 0.25335 0.17254 0.18667 0.0
O6 O 0.27652 0.17276 0.1694 0.0
C7 C 0.26548 0.0928 0.99265 0.0
C8 C 0.22951 0.09117 0.95838 0.0
C9 C 0.25788 0.08801 0.95898 0.0
N10 N 0.24286 0.0993 0.01085 0.0
N11 N 0.22139 0.09798 0.99017 0.0
C12 C 0.29331 0.08862 0.00816 0.0
H13 H 0.30165 0.10876 0.01663 0.0
H14 H 0.30799 0.07871 0.99041 0.0
H15 H 0.29121 0.07504 0.03068 0.0
C16 C 0.22173 0.18736 0.0878 0.0
N17 N 0.22801 0.1606 0.0911 0.0
N18 N 0.23102 0.1494 0.06078 0.0
C19 C 0.22756 0.16938 0.03711 0.0
C20 C 0.22116 0.19388 0.05356 0.0
C21 C 0.21861 0.20671 0.11719 0.0
H22 H 0.20459 0.19757 0.13639 0.0
H23 H 0.23901 0.20981 0.12933 0.0
H24 H 0.21046 0.22698 0.10909 0.0
O25 O 0.2101 0.10907 0.13379 0.0
O26 O 0.21507 0.08605 0.08512 0.0
H27 H 0.21417 0.15406 0.98903 0.0
H28 H 0.2334 0.18571 0.98646 0.0
C29 C 0.23186 0.1656 0.99974 0.0
H30 H 0.25087 0.15349 0.9952 0.0
H31 H 0.20119 0.10214 0.99762 0.0
O32 O 0.23212 0.16156 0.17338 0.0
C33 C 0.20461 0.08855 0.11489 0.0
Co34 Co 0.11151 0.98419 0.37958 0.0
Co35 Co 0.14047 0.99109 0.30758 0.0
C36 C 0.13894 0.03687 0.35855 0.0
O37 O 0.12613 0.0219 0.37978 0.0
O38 O 0.14521 0.02784 0.32912 0.0
C39 C 0.07847 0.00129 0.43559 0.0
O40 O 0.07785 0.02453 0.41851 0.0
C41 C 0.15905 0.01597 0.24249 0.0
C42 C 0.15939 0.98057 0.20732 0.0
C43 C 0.1633 0.00881 0.20858 0.0
N44 N 0.15209 0.99325 0.26021 0.0
N45 N 0.15267 0.97211 0.239 0.0
C46 C 0.16407 0.04343 0.25858 0.0
H47 H 0.17713 0.04059 0.28145 0.0
H48 H 0.14411 0.05251 0.26655 0.0
H49 H 0.17487 0.05783 0.24128 0.0
C50 C 0.06442 0.97025 0.33694 0.0
N51 N 0.09113 0.97678 0.34023 0.0
N52 N 0.10213 0.98058 0.30995 0.0
C53 C 0.08202 0.9776 0.28635 0.0
C54 C 0.05766 0.9705 0.30274 0.0
C55 C 0.04524 0.96648 0.3664 0.0
H56 H 0.05497 0.95297 0.38571 0.0
H57 H 0.04122 0.9868 0.3783 0.0
H58 H 0.02536 0.95738 0.35842 0.0
O59 O 0.14288 0.95939 0.38281 0.0
O60 O 0.16585 0.96525 0.33427 0.0
H61 H 0.09649 0.96571 0.2373 0.0
H62 H 0.06523 0.98561 0.23637 0.0
C63 C 0.08546 0.98322 0.24919 0.0
H64 H 0.0979 0.00212 0.24547 0.0
H65 H 0.14799 0.9519 0.24601 0.0
O66 O 0.09008 0.9804 0.42232 0.0
C67 C 0.16352 0.95446 0.36389 0.0
Co68 Co 0.26921 0.86174 0.62841 0.0
Co69 Co 0.26153 0.89128 0.55682 0.0
C70 C 0.21576 0.88804 0.60745 0.0
O71 O 0.23109 0.87545 0.62852 0.0
O72 O 0.22464 0.89488 0.57816 0.0
C73 C 0.25236 0.82778 0.68383 0.0
O74 O 0.22934 0.82663 0.66632 0.0
C75 C 0.23646 0.90977 0.49173 0.0
C76 C 0.27205 0.91127 0.45688 0.0
C77 C 0.2437 0.91446 0.45792 0.0
N78 N 0.25926 0.90326 0.50958 0.0
N79 N 0.28051 0.90453 0.48856 0.0
C80 C 0.20875 0.91385 0.50761 0.0
H81 H 0.21106 0.92673 0.53072 0.0
H82 H 0.2002 0.89357 0.51517 0.0
H83 H 0.19416 0.92442 0.49032 0.0
C84 C 0.28448 0.81553 0.58483 0.0
N85 N 0.27734 0.84203 0.58868 0.0
N86 N 0.27282 0.8532 0.55865 0.0
C87 C 0.27565 0.83335 0.53472 0.0
C88 C 0.2836 0.80899 0.55054 0.0
C89 C 0.28927 0.79622 0.61392 0.0
H90 H 0.30075 0.80689 0.63442 0.0
H91 H 0.26911 0.78941 0.62421 0.0
H92 H 0.30114 0.77788 0.60589 0.0
O93 O 0.29325 0.89361 0.63223 0.0
O94 O 0.28685 0.91689 0.58401 0.0
H95 H 0.28578 0.84853 0.48539 0.0
H96 H 0.26664 0.81681 0.48484 0.0
C97 C 0.26889 0.83696 0.49787 0.0
H98 H 0.24959 0.84897 0.49514 0.0
H99 H 0.30078 0.90027 0.49569 0.0
O100 O 0.27308 0.84005 0.67104 0.0
C101 C 0.29773 0.91451 0.61359 0.0
Co102 Co 0.38933 0.01758 0.87976 0.0
Co103 Co 0.36026 0.01105 0.8077 0.0
C104 C 0.36231 0.96486 0.85799 0.0
O105 O 0.375 0.97978 0.87939 0.0
O106 O 0.35582 0.97408 0.82873 0.0
C107 C 0.42266 0.9999 0.93526 0.0
O108 O 0.42346 0.97696 0.91757 0.0
C109 C 0.34214 0.98661 0.7421 0.0
C110 C 0.34055 0.02252 0.70779 0.0
C111 C 0.33741 0.99418 0.70841 0.0
N112 N 0.34857 0.00923 0.7603 0.0
N113 N 0.34728 0.03068 0.73959 0.0
C114 C 0.3381 0.95875 0.75757 0.0
H115 H 0.32473 0.96078 0.78029 0.0
H116 H 0.35833 0.9504 0.7657 0.0
H117 H 0.32804 0.94414 0.73985 0.0
C118 C 0.43627 0.03201 0.83712 0.0
N119 N 0.40957 0.02543 0.84043 0.0
N120 N 0.39853 0.02171 0.81015 0.0
C121 C 0.4186 0.02474 0.78652 0.0
C122 C 0.44299 0.03182 0.8029 0.0
C123 C 0.45549 0.03565 0.86656 0.0
H124 H 0.46003 0.01521 0.87785 0.0
H125 H 0.47513 0.04533 0.8587 0.0
H126 H 0.44559 0.04861 0.8863 0.0
O127 O 0.35787 0.04223 0.88334 0.0
O128 O 0.33486 0.03665 0.83475 0.0
H129 H 0.40355 0.03639 0.73764 0.0
H130 H 0.43529 0.01722 0.73637 0.0
C131 C 0.41509 0.01913 0.74938 0.0
H132 H 0.40305 0.99996 0.74572 0.0
H133 H 0.35145 0.05086 0.74702 0.0
O134 O 0.41084 0.02091 0.92256 0.0
C135 C 0.33721 0.04726 0.86447 0.0
Co136 Co 0.23413 0.85915 0.88533 0.0
Co137 Co 0.24073 0.88804 0.95755 0.0
C138 C 0.28661 0.88684 0.90674 0.0
O139 O 0.27173 0.87403 0.8854 0.0
O140 O 0.2775 0.893 0.93616 0.0
C141 C 0.2518 0.82665 0.82906 0.0
O142 O 0.27494 0.82612 0.84638 0.0
C143 C 0.26544 0.90629 0.02299 0.0
C144 C 0.22974 0.90732 0.05769 0.0
C145 C 0.25805 0.91082 0.05678 0.0
N146 N 0.24275 0.8996 1.00501 0.0
N147 N 0.22144 0.90056 0.02595 0.0
C148 C 0.29312 0.91077 1.00723 0.0
H149 H 0.29072 0.92414 0.98457 0.0
H150 H 0.30172 0.89069 0.99895 0.0
H151 H 0.30772 0.92102 0.02481 0.0
C152 C 0.22072 0.81184 0.9279 0.0
N153 N 0.22686 0.83864 0.92465 0.0
N154 N 0.23048 0.84966 0.95496 0.0
C155 C 0.22774 0.82951 0.97854 0.0
C156 C 0.22103 0.80506 0.96209 0.0
C157 C 0.2173 0.79262 0.89843 0.0
H158 H 0.20371 0.80216 0.87905 0.0
H159 H 0.23771 0.78888 0.88662 0.0
H160 H 0.20844 0.77262 0.9064 0.0
O161 O 0.20912 0.89039 0.8822 0.0
O162 O 0.21479 0.9133 0.93082 0.0
H163 H 0.21586 0.8443 0.02745 0.0
H164 H 0.23546 0.81282 0.02865 0.0
C165 C 0.23329 0.83302 0.0157 0.0
H166 H 0.25231 0.84529 0.01942 0.0
H167 H 0.20122 0.89617 0.01871 0.0
O168 O 0.23069 0.83787 0.84231 0.0
C169 C 0.20405 0.91097 0.90116 0.0
Co170 Co 0.38994 0.98091 0.13593 0.0
Co171 Co 0.36077 0.98767 0.20789 0.0
C172 C 0.36296 0.03372 0.15739 0.0
O173 O 0.37565 0.01873 0.13608 0.0
O174 O 0.35643 0.02458 0.18668 0.0
C175 C 0.42322 0.99839 0.08035 0.0
O176 O 0.4241 0.02135 0.09799 0.0
C177 C 0.34274 0.01244 0.27338 0.0
C178 C 0.34104 0.97665 0.30788 0.0
C179 C 0.33803 0.00501 0.30712 0.0
N180 N 0.34906 0.98971 0.25529 0.0
N181 N 0.34769 0.96835 0.27611 0.0
C182 C 0.33882 0.04026 0.25777 0.0
H183 H 0.32547 0.03822 0.23503 0.0
H184 H 0.35909 0.0485 0.24964 0.0
H185 H 0.32881 0.05497 0.27539 0.0
C186 C 0.43684 0.96663 0.17876 0.0
N187 N 0.41014 0.97315 0.17535 0.0
N188 N 0.39905 0.97695 0.20558 0.0
C189 C 0.41909 0.97401 0.22927 0.0
C190 C 0.44351 0.96692 0.213 0.0
C191 C 0.45613 0.96301 0.14939 0.0
H192 H 0.44632 0.94994 0.12968 0.0
H193 H 0.46055 0.98344 0.13801 0.0
H194 H 0.47581 0.95347 0.15734 0.0
O195 O 0.35844 0.95633 0.13238 0.0
O196 O 0.33534 0.96205 0.18086 0.0
H197 H 0.4039 0.96257 0.27816 0.0
H198 H 0.4357 0.98163 0.27946 0.0
C199 C 0.41552 0.97975 0.26638 0.0
H200 H 0.40354 0.99898 0.2699 0.0
H201 H 0.35177 0.94812 0.26879 0.0
O202 O 0.41144 0.97741 0.09315 0.0
C203 C 0.33772 0.95138 0.15117 0.0
Co204 Co 0.27062 0.13792 0.38751 0.0
Co205 Co 0.2631 0.10825 0.45908 0.0
C206 C 0.2172 0.1117 0.40851 0.0
O207 O 0.23247 0.12432 0.38743 0.0
O208 O 0.22615 0.10478 0.43775 0.0
C209 C 0.25382 0.17172 0.33191 0.0
O210 O 0.23073 0.17279 0.34928 0.0
C211 C 0.23793 0.08992 0.52423 0.0
C212 C 0.27359 0.08767 0.55891 0.0
C213 C 0.24519 0.08492 0.55797 0.0
N214 N 0.26078 0.09616 0.50633 0.0
N215 N 0.28206 0.09445 0.52725 0.0
C216 C 0.21013 0.08633 0.50841 0.0
H217 H 0.20196 0.10674 0.5007 0.0
H218 H 0.19534 0.07613 0.52577 0.0
H219 H 0.21217 0.07331 0.4854 0.0
C220 C 0.28567 0.18418 0.43114 0.0
N221 N 0.27884 0.1576 0.42727 0.0
N222 N 0.27455 0.14632 0.45729 0.0
C223 C 0.27735 0.16613 0.48127 0.0
C224 C 0.28495 0.19063 0.46549 0.0
C225 C 0.28942 0.20368 0.40199 0.0
H226 H 0.30183 0.19369 0.38179 0.0
H227 H 0.26895 0.20892 0.39124 0.0
H228 H 0.2998 0.22294 0.40993 0.0
O229 O 0.29456 0.10594 0.3836 0.0
O230 O 0.28827 0.08257 0.43176 0.0
H231 H 0.28744 0.15027 0.53029 0.0
H232 H 0.26899 0.18239 0.53149 0.0
C233 C 0.27074 0.16233 0.51813 0.0
H234 H 0.25121 0.1507 0.52085 0.0
H235 H 0.30237 0.09841 0.52009 0.0
O236 O 0.27457 0.15962 0.34488 0.0
C237 C 0.29904 0.08498 0.40214 0.0
Co238 Co 0.11217 0.01691 0.63654 0.0
Co239 Co 0.14106 0.00946 0.70854 0.0
C240 C 0.13864 0.96371 0.65764 0.0
O241 O 0.1261 0.97893 0.63641 0.0
O242 O 0.14513 0.97262 0.68705 0.0
C243 C 0.07876 0.0003 0.5806 0.0
O244 O 0.07777 0.97708 0.59771 0.0
C245 C 0.15931 0.98425 0.77366 0.0
C246 C 0.16019 0.01964 0.80884 0.0
C247 C 0.16371 0.99134 0.80758 0.0
N248 N 0.15266 0.00708 0.75595 0.0
N249 N 0.15355 0.0282 0.77717 0.0
C250 C 0.16389 0.95672 0.75757 0.0
H251 H 0.17695 0.95935 0.73467 0.0
H252 H 0.14378 0.94796 0.74963 0.0
H253 H 0.17449 0.94215 0.77486 0.0
C254 C 0.06533 0.03154 0.67918 0.0
N255 N 0.09196 0.02471 0.67589 0.0
N256 N 0.10289 0.02059 0.70616 0.0
C257 C 0.08277 0.0236 0.72974 0.0
C258 C 0.0585 0.0311 0.71336 0.0
C259 C 0.04621 0.03558 0.64971 0.0
H260 H 0.04167 0.0153 0.63802 0.0
H261 H 0.02656 0.04522 0.65761 0.0
H262 H 0.05622 0.04876 0.63026 0.0
O263 O 0.14396 0.04114 0.63324 0.0
O264 O 0.16688 0.03488 0.68176 0.0
H265 H 0.06581 0.01531 0.77956 0.0
H266 H 0.09824 0.99839 0.77023 0.0
C267 C 0.08608 0.01753 0.76681 0.0
H268 H 0.09738 0.03473 0.779 0.0
H269 H 0.14915 0.04848 0.77018 0.0
O270 O 0.09077 0.02099 0.5938 0.0
C271 C 0.16471 0.0457 0.65214 0.0
Co272 Co 0.769 0.86198 0.88659 0.0
Co273 Co 0.76168 0.89147 0.95835 0.0
C274 C 0.71591 0.88891 0.90766 0.0
O275 O 0.73108 0.8762 0.88655 0.0
O276 O 0.72485 0.89559 0.93698 0.0
C277 C 0.75159 0.8287 0.83077 0.0
O278 O 0.7286 0.82776 0.84834 0.0
C279 C 0.73676 0.90947 0.02373 0.0
C280 C 0.77257 0.91161 0.05819 0.0
C281 C 0.74416 0.91432 0.05745 0.0
N282 N 0.75954 0.90336 1.00564 0.0
N283 N 0.78091 0.90499 0.02644 0.0
C284 C 0.70887 0.91304 0.00811 0.0
H285 H 0.70085 0.89267 1.00002 0.0
H286 H 0.69405 0.92292 0.02571 0.0
H287 H 0.71075 0.92636 0.98534 0.0
C288 C 0.78356 0.81544 0.93017 0.0
N289 N 0.77682 0.84205 0.92631 0.0
N290 N 0.77251 0.85328 0.95636 0.0
C291 C 0.77513 0.83341 0.9803 0.0
C292 C 0.78266 0.80894 0.96447 0.0
C293 C 0.788 0.79605 0.90108 0.0
H294 H 0.76771 0.78949 0.89091 0.0
H295 H 0.79966 0.77757 0.9091 0.0
H296 H 0.79952 0.80656 0.8805 0.0
O297 O 0.79344 0.89359 0.883 0.0
O298 O 0.7873 0.91683 0.9313 0.0
H299 H 0.76661 0.81708 0.03042 0.0
H300 H 0.74916 0.84899 0.01995 0.0
C301 C 0.76858 0.83717 0.01718 0.0
H302 H 0.78541 0.84901 0.02939 0.0
H303 H 0.80119 0.90108 0.01911 0.0
O304 O 0.77256 0.84044 0.84371 0.0
C305 C 0.79815 0.91439 0.90173 0.0
Co306 Co 0.89023 0.01772 0.63613 0.0
Co307 Co 0.86122 0.01116 0.70817 0.0
C308 C 0.86293 0.96509 0.65766 0.0
O309 O 0.87571 0.97998 0.63632 0.0
O310 O 0.85656 0.97427 0.68698 0.0
C311 C 0.92325 0.00025 0.58025 0.0
O312 O 0.9239 0.97713 0.59758 0.0
C313 C 0.843 0.98662 0.77364 0.0
C314 C 0.84183 0.02241 0.80818 0.0
C315 C 0.83844 0.99409 0.80738 0.0
N316 N 0.84959 0.00927 0.75556 0.0
N317 N 0.84855 0.03063 0.77641 0.0
C318 C 0.83863 0.95888 0.75799 0.0
H319 H 0.82528 0.96116 0.73528 0.0
H320 H 0.85876 0.95032 0.74982 0.0
H321 H 0.8284 0.94432 0.77562 0.0
C322 C 0.93733 0.03174 0.67875 0.0
N323 N 0.91058 0.02536 0.67545 0.0
N324 N 0.89955 0.02166 0.70573 0.0
C325 C 0.91966 0.02455 0.72935 0.0
C326 C 0.94408 0.03148 0.71296 0.0
C327 C 0.95657 0.03523 0.64931 0.0
H328 H 0.96063 0.01481 0.63772 0.0
H329 H 0.97643 0.04442 0.65723 0.0
H330 H 0.94688 0.04856 0.62977 0.0
O331 O 0.85881 0.04245 0.63266 0.0
O332 O 0.83583 0.03683 0.68124 0.0
H333 H 0.93636 0.01682 0.77946 0.0
H334 H 0.90395 0.99984 0.77014 0.0
C335 C 0.91615 0.01892 0.76649 0.0
H336 H 0.90479 0.03627 0.77828 0.0
H337 H 0.85288 0.05083 0.76908 0.0
O338 O 0.91165 0.02123 0.59332 0.0
C339 C 0.83815 0.04746 0.65153 0.0
Co340 Co 0.73268 0.13892 0.38643 0.0
Co341 Co 0.73984 0.10998 0.45845 0.0
C342 C 0.78571 0.11222 0.40766 0.0
O343 O 0.77059 0.12483 0.38639 0.0
O344 O 0.7767 0.10574 0.43702 0.0
C345 C 0.74964 0.17232 0.33072 0.0
O346 O 0.77274 0.17327 0.34809 0.0
C347 C 0.76496 0.09177 0.52366 0.0
C348 C 0.72949 0.09083 0.55872 0.0
C349 C 0.7578 0.08737 0.55755 0.0
N350 N 0.74215 0.09838 0.50587 0.0
N351 N 0.72097 0.09745 0.52702 0.0
C352 C 0.79255 0.08726 0.50766 0.0
H353 H 0.79 0.07413 0.48481 0.0
H354 H 0.80125 0.10737 0.49967 0.0
H355 H 0.80713 0.07676 0.52502 0.0
C356 C 0.71818 0.18579 0.42908 0.0
N357 N 0.72494 0.15915 0.42579 0.0
N358 N 0.72891 0.14819 0.45606 0.0
C359 C 0.72585 0.16828 0.47966 0.0
C360 C 0.71849 0.19258 0.46327 0.0
C361 C 0.71426 0.20494 0.39962 0.0
H362 H 0.70106 0.19502 0.38014 0.0
H363 H 0.7346 0.20938 0.38798 0.0
H364 H 0.70473 0.22463 0.40754 0.0
O365 O 0.70825 0.1073 0.38311 0.0
O366 O 0.71424 0.08436 0.43166 0.0
H367 H 0.71443 0.1536 0.52878 0.0
H368 H 0.73386 0.18516 0.52959 0.0
C369 C 0.73171 0.16491 0.51677 0.0
H370 H 0.75083 0.15275 0.52033 0.0
H371 H 0.7007 0.10181 0.51997 0.0
O372 O 0.72883 0.16035 0.34369 0.0
C373 C 0.70346 0.08662 0.40201 0.0
Co374 Co 0.6115 0.98216 0.13656 0.0
Co375 Co 0.64042 0.98928 0.20864 0.0
C376 C 0.6381 0.03521 0.15801 0.0
O377 O 0.62556 0.02008 0.1367 0.0
O378 O 0.64455 0.0262 0.18739 0.0
C379 C 0.5782 0.99925 0.08075 0.0
O380 O 0.57722 0.02231 0.09817 0.0
C381 C 0.65855 0.01409 0.27406 0.0
C382 C 0.66006 0.97837 0.30869 0.0
C383 C 0.66326 0.00671 0.30782 0.0
N384 N 0.65207 0.99137 0.25606 0.0
N385 N 0.65331 0.97005 0.27695 0.0
C386 C 0.66269 0.04184 0.25834 0.0
H387 H 0.64247 0.05029 0.25034 0.0
H388 H 0.67295 0.05647 0.27586 0.0
H389 H 0.6759 0.03962 0.23551 0.0
C390 C 0.56465 0.96747 0.17918 0.0
N391 N 0.59129 0.97429 0.17589 0.0
N392 N 0.60225 0.97822 0.20618 0.0
C393 C 0.58217 0.97507 0.22977 0.0
C394 C 0.55787 0.9677 0.21337 0.0
C395 C 0.54551 0.96358 0.1497 0.0
H396 H 0.55549 0.9505 0.13015 0.0
H397 H 0.54098 0.98393 0.13816 0.0
H398 H 0.52586 0.95394 0.15757 0.0
O399 O 0.64322 0.95783 0.13316 0.0
O400 O 0.66615 0.96393 0.18171 0.0
H401 H 0.59708 0.96365 0.2788 0.0
H402 H 0.56531 0.98277 0.2798 0.0
C403 C 0.58556 0.98085 0.2669 0.0
H404 H 0.59756 6e-05 0.2705 0.0
H405 H 0.64912 0.94982 0.26969 0.0
O406 O 0.59011 0.97841 0.09374 0.0
C407 C 0.66395 0.95317 0.15205 0.0
Co408 Co 0.76715 0.1395 0.12989 0.0
Co409 Co 0.76035 0.1105 0.05787 0.0
C410 C 0.71442 0.11225 0.10861 0.0
O411 O 0.7294 0.12501 0.12989 0.0
O412 O 0.72351 0.10588 0.07925 0.0
C413 C 0.7498 0.17262 0.18567 0.0
O414 O 0.72669 0.17333 0.16831 0.0
C415 C 0.73554 0.09223 0.99252 0.0
C416 C 0.77119 0.09125 0.95774 0.0
C417 C 0.74287 0.08776 0.9587 0.0
N418 N 0.75826 0.09888 0.01047 0.0
N419 N 0.77954 0.09793 0.98947 0.0
C420 C 0.70788 0.08774 0.00834 0.0
H421 H 0.69921 0.10784 0.01643 0.0
H422 H 0.69332 0.07735 0.99084 0.0
H423 H 0.71032 0.07451 0.03112 0.0
C424 C 0.78117 0.18653 0.08725 0.0
N425 N 0.7747 0.15982 0.09055 0.0
N426 N 0.7709 0.14881 0.06027 0.0
C427 C 0.7738 0.16891 0.03667 0.0
C428 C 0.78086 0.19329 0.05305 0.0
C429 C 0.78484 0.20573 0.1167 0.0
H430 H 0.79817 0.19597 0.13619 0.0
H431 H 0.76446 0.20991 0.12835 0.0
H432 H 0.79413 0.22553 0.10878 0.0
O433 O 0.79191 0.10811 0.13324 0.0
O434 O 0.78616 0.08512 0.08469 0.0
H435 H 0.78545 0.15415 0.98766 0.0
H436 H 0.76591 0.18565 0.98663 0.0
C437 C 0.76809 0.16544 0.99953 0.0
H438 H 0.74903 0.15321 0.99591 0.0
H439 H 0.79976 0.10233 0.99667 0.0
O440 O 0.77076 0.16094 0.17266 0.0
C441 C 0.79689 0.08747 0.11435 0.0
Co442 Co 0.6111 0.01742 0.87982 0.0
Co443 Co 0.64016 0.011 0.80775 0.0
C444 C 0.63851 0.96488 0.85822 0.0
O445 O 0.62568 0.97972 0.87957 0.0
O446 O 0.6449 0.97411 0.82894 0.0
C447 C 0.5781 0.99979 0.93563 0.0
O448 O 0.57749 0.97672 0.91821 0.0
C449 C 0.65839 0.98645 0.74227 0.0
C450 C 0.65961 0.02223 0.70772 0.0
C451 C 0.66298 0.99391 0.70852 0.0
N452 N 0.6518 0.0091 0.76034 0.0
N453 N 0.65287 0.03047 0.73949 0.0
C454 C 0.66275 0.95871 0.75792 0.0
H455 H 0.67614 0.96099 0.7806 0.0
H456 H 0.64263 0.95018 0.76615 0.0
H457 H 0.67294 0.94412 0.7403 0.0
C458 C 0.56406 0.03157 0.83721 0.0
N459 N 0.59078 0.02509 0.8405 0.0
N460 N 0.60182 0.02147 0.81021 0.0
C461 C 0.58173 0.02451 0.78659 0.0
C462 C 0.55733 0.03146 0.803 0.0
C463 C 0.54484 0.03509 0.86667 0.0
H464 H 0.54071 0.01466 0.87822 0.0
H465 H 0.52501 0.04437 0.85878 0.0
H466 H 0.55457 0.04836 0.88624 0.0
O467 O 0.64247 0.04221 0.8833 0.0
O468 O 0.66546 0.03674 0.83471 0.0
H469 H 0.59664 0.03648 0.73777 0.0
H470 H 0.56505 0.01708 0.73641 0.0
C471 C 0.58526 0.01908 0.74941 0.0
H472 H 0.59743 1e-05 0.74561 0.0
H473 H 0.64856 0.05066 0.74681 0.0
O474 O 0.58966 0.02082 0.92265 0.0
C475 C 0.66309 0.04733 0.86443 0.0
Co476 Co 0.73267 0.86187 0.62949 0.0
Co477 Co 0.73987 0.89124 0.55763 0.0
C478 C 0.78568 0.88891 0.6083 0.0
O479 O 0.77056 0.87619 0.62946 0.0
O480 O 0.7767 0.89548 0.57896 0.0
C481 C 0.75018 0.8287 0.68537 0.0
O482 O 0.77317 0.8278 0.6678 0.0
C483 C 0.76471 0.9094 0.49225 0.0
C484 C 0.72892 0.91119 0.45771 0.0
C485 C 0.7573 0.91417 0.45851 0.0
N486 N 0.74196 0.90308 0.51029 0.0
N487 N 0.7206 0.9045 0.48945 0.0
C488 C 0.79253 0.91327 0.50791 0.0
H489 H 0.80079 0.89298 0.51595 0.0
H490 H 0.80725 0.92335 0.49035 0.0
H491 H 0.79048 0.92653 0.53072 0.0
C492 C 0.71816 0.81522 0.58609 0.0
N493 N 0.72489 0.84184 0.58984 0.0
N494 N 0.72913 0.85301 0.55973 0.0
C495 C 0.72645 0.83309 0.53587 0.0
C496 C 0.71897 0.80864 0.55181 0.0
C497 C 0.71371 0.79591 0.61525 0.0
H498 H 0.73399 0.78944 0.62554 0.0
H499 H 0.70213 0.77737 0.60727 0.0
H500 H 0.70211 0.80646 0.63574 0.0
O501 O 0.70814 0.89343 0.63301 0.0
O502 O 0.71421 0.9166 0.58465 0.0
H503 H 0.73494 0.81665 0.4858 0.0
H504 H 0.75215 0.84874 0.49599 0.0
C505 C 0.73285 0.83677 0.49894 0.0
H506 H 0.71588 0.84843 0.48676 0.0
H507 H 0.70035 0.90041 0.49674 0.0
O508 O 0.72918 0.84039 0.67241 0.0
C509 C 0.70338 0.9142 0.61423 0.0
Co510 Co 0.88957 0.98292 0.3794 0.0
Co511 Co 0.86053 0.99001 0.30741 0.0
C512 C 0.86265 0.03587 0.35813 0.0
O513 O 0.8753 0.02078 0.3794 0.0
O514 O 0.85622 0.02686 0.32875 0.0
C515 C 0.9229 5e-05 0.43516 0.0
O516 O 0.92375 0.02315 0.41781 0.0
C517 C 0.84209 0.01486 0.24215 0.0
C518 C 0.84116 0.97929 0.20727 0.0
C519 C 0.83757 0.00758 0.20832 0.0
N520 N 0.84884 0.99215 0.26002 0.0
N521 N 0.84793 0.97091 0.23897 0.0
C522 C 0.83755 0.04248 0.25804 0.0
H523 H 0.82447 0.03999 0.28094 0.0
H524 H 0.85767 0.05124 0.26594 0.0
H525 H 0.82699 0.05699 0.24064 0.0
C526 C 0.93649 0.96865 0.33667 0.0
N527 N 0.90979 0.97522 0.34002 0.0
N528 N 0.89879 0.97922 0.30977 0.0
C529 C 0.9189 0.97642 0.28615 0.0
C530 C 0.94327 0.96917 0.30248 0.0
C531 C 0.95569 0.96482 0.36611 0.0
H532 H 0.94577 0.95175 0.38571 0.0
H533 H 0.96023 0.98518 0.37759 0.0
H534 H 0.97533 0.95516 0.35819 0.0
O535 O 0.858 0.95842 0.38281 0.0
O536 O 0.83498 0.96446 0.33433 0.0
H537 H 0.9042 0.96526 0.23694 0.0
H538 H 0.93571 0.98479 0.23626 0.0
C539 C 0.91548 0.9825 0.2491 0.0
H540 H 0.90323 0.00158 0.24574 0.0
H541 H 0.8524 0.95068 0.2461 0.0
O542 O 0.91103 0.97919 0.42216 0.0
C543 C 0.83727 0.95367 0.36396 0.0
Co544 Co 0.737 0.6433 0.63013 0.0
Co545 Co 0.74011 0.61136 0.5596 0.0
C546 C 0.78732 0.61272 0.61004 0.0
O547 O 0.77419 0.6279 0.63072 0.0
O548 O 0.77669 0.60523 0.58184 0.0
C549 C 0.75365 0.67713 0.68594 0.0
O550 O 0.77768 0.6763 0.67063 0.0
C551 C 0.76493 0.59211 0.49461 0.0
C552 C 0.72909 0.58926 0.46029 0.0
C553 C 0.75751 0.58661 0.46102 0.0
N554 N 0.74215 0.5985 0.51258 0.0
N555 N 0.72076 0.59646 0.49186 0.0
C556 C 0.79279 0.58875 0.51036 0.0
H557 H 0.80053 0.60914 0.51879 0.0
H558 H 0.80782 0.57913 0.49283 0.0
H559 H 0.79092 0.57521 0.53293 0.0
C560 C 0.72433 0.68937 0.58583 0.0
N561 N 0.72974 0.66254 0.59009 0.0
N562 N 0.73145 0.65029 0.56024 0.0
C563 C 0.72787 0.66967 0.53581 0.0
C564 C 0.72286 0.69488 0.5514 0.0
C565 C 0.72275 0.70967 0.61443 0.0
H566 H 0.7432 0.71115 0.62686 0.0
H567 H 0.71665 0.7304 0.60549 0.0
H568 H 0.70768 0.70239 0.63362 0.0
O569 O 0.71164 0.6127 0.63508 0.0
O570 O 0.71272 0.58821 0.58731 0.0
H571 H 0.73136 0.68421 0.48402 0.0
H572 H 0.74948 0.65245 0.49335 0.0
C573 C 0.73057 0.66459 0.49845 0.0
H574 H 0.71258 0.6525 0.4896 0.0
H575 H 0.70048 0.60044 0.49911 0.0
O576 O 0.73297 0.66595 0.67169 0.0
C577 C 0.7039 0.59206 0.6177 0.0
Co578 Co 0.60894 0.48287 0.87971 0.0
Co579 Co 0.6384 0.48777 0.80809 0.0
C580 C 0.63693 0.53459 0.858 0.0
O581 O 0.62348 0.52047 0.87947 0.0
O582 O 0.64351 0.52466 0.82915 0.0
C583 C 0.57613 0.50067 0.93562 0.0
O584 O 0.57562 0.52374 0.91819 0.0
C585 C 0.64644 0.51389 0.74181 0.0
C586 C 0.67541 0.4862 0.71548 0.0
C587 C 0.662 0.51135 0.71194 0.0
N588 N 0.65097 0.49177 0.76169 0.0
N589 N 0.66807 0.47512 0.74562 0.0
C590 C 0.62695 0.53636 0.75182 0.0
H591 H 0.61195 0.5287 0.7709 0.0
H592 H 0.61568 0.54423 0.72925 0.0
H593 H 0.63866 0.55342 0.76379 0.0
C594 C 0.56212 0.46799 0.83697 0.0
N595 N 0.58872 0.47492 0.84027 0.0
N596 N 0.60022 0.47673 0.80998 0.0
C597 C 0.58072 0.47122 0.78627 0.0
C598 C 0.55604 0.4654 0.80271 0.0
C599 C 0.54261 0.4658 0.86631 0.0
H600 H 0.55146 0.45199 0.88595 0.0
H601 H 0.53981 0.48645 0.87785 0.0
H602 H 0.52228 0.4578 0.85839 0.0
O603 O 0.6405 0.45809 0.88364 0.0
O604 O 0.66364 0.46214 0.83494 0.0
H605 H 0.60594 0.46346 0.74248 0.0
H606 H 0.5692 0.45988 0.73518 0.0
C607 C 0.58532 0.47188 0.74867 0.0
H608 H 0.58434 0.49349 0.73968 0.0
H609 H 0.67549 0.45666 0.7557 0.0
O610 O 0.58742 0.47953 0.92252 0.0
C611 C 0.66111 0.45229 0.86501 0.0
Co612 Co 0.76678 0.3612 0.13021 0.0
Co613 Co 0.75987 0.39031 0.05831 0.0
C614 C 0.71386 0.3881 0.10894 0.0
O615 O 0.72886 0.3754 0.13026 0.0
O616 O 0.72301 0.39458 0.07965 0.0
C617 C 0.74967 0.32748 0.18551 0.0
O618 O 0.72666 0.32653 0.16795 0.0
C619 C 0.73469 0.40892 0.99338 0.0
C620 C 0.76977 0.40863 0.95774 0.0
C621 C 0.74156 0.41273 0.9593 0.0
N622 N 0.75752 0.40197 0.01092 0.0
N623 N 0.77849 0.40222 0.98942 0.0
C624 C 0.70737 0.41425 0.00969 0.0
H625 H 0.69798 0.39437 0.01736 0.0
H626 H 0.6931 0.42544 0.99258 0.0
H627 H 0.71047 0.42705 0.03273 0.0
C628 C 0.78129 0.31437 0.08742 0.0
N629 N 0.77459 0.34102 0.0908 0.0
N630 N 0.77064 0.35204 0.06055 0.0
C631 C 0.77357 0.33196 0.03691 0.0
C632 C 0.78089 0.30763 0.05322 0.0
C633 C 0.78523 0.29516 0.11681 0.0
H634 H 0.79823 0.30513 0.13646 0.0
H635 H 0.76488 0.29045 0.12824 0.0
H636 H 0.79502 0.2756 0.10886 0.0
O637 O 0.79128 0.39277 0.13378 0.0
O638 O 0.7855 0.41583 0.08528 0.0
H639 H 0.78502 0.34621 0.9876 0.0
H640 H 0.7649 0.31511 0.98714 0.0
C641 C 0.76755 0.33534 0.99984 0.0
H642 H 0.74868 0.34789 0.99637 0.0
H643 H 0.79872 0.39742 0.99622 0.0
O644 O 0.77049 0.33961 0.17283 0.0
C645 C 0.79617 0.41349 0.11499 0.0
Co646 Co 0.8892 0.51627 0.38085 0.0
Co647 Co 0.85983 0.51012 0.30885 0.0
C648 C 0.86191 0.46375 0.35904 0.0
O649 O 0.87473 0.47852 0.38048 0.0
O650 O 0.85541 0.47312 0.32984 0.0
C651 C 0.92246 0.49853 0.4364 0.0
O652 O 0.92302 0.47551 0.41887 0.0
C653 C 0.84132 0.48559 0.24336 0.0
C654 C 0.83988 0.5214 0.20888 0.0
C655 C 0.83656 0.49307 0.20964 0.0
N656 N 0.84795 0.50824 0.26144 0.0
N657 N 0.84673 0.52962 0.24063 0.0
C658 C 0.83707 0.45783 0.25899 0.0
H659 H 0.82386 0.46006 0.28182 0.0
H660 H 0.85727 0.44928 0.26696 0.0
H661 H 0.82675 0.44328 0.24143 0.0
C662 C 0.93611 0.53048 0.33803 0.0
N663 N 0.90938 0.52406 0.34143 0.0
N664 N 0.89818 0.52072 0.31116 0.0
C665 C 0.91815 0.524 0.28744 0.0
C666 C 0.94265 0.53071 0.30378 0.0
C667 C 0.95552 0.53378 0.36735 0.0
H668 H 0.94613 0.54736 0.38684 0.0
H669 H 0.95925 0.51334 0.37908 0.0
H670 H 0.97554 0.54255 0.35925 0.0
O671 O 0.85772 0.54098 0.38471 0.0
O672 O 0.83449 0.53561 0.33625 0.0
H673 H 0.90295 0.53652 0.23895 0.0
H674 H 0.93458 0.51719 0.23702 0.0
C675 C 0.91444 0.51901 0.25019 0.0
H676 H 0.90228 0.49996 0.24614 0.0
H677 H 0.85103 0.54981 0.24794 0.0
O678 O 0.91084 0.5196 0.42357 0.0
C679 C 0.83696 0.54607 0.36604 0.0
Co680 Co 0.73178 0.36052 0.3859 0.0
Co681 Co 0.73874 0.38953 0.45781 0.0
C682 C 0.78481 0.38713 0.4074 0.0
O683 O 0.76975 0.37456 0.38603 0.0
O684 O 0.7757 0.39361 0.43671 0.0
C685 C 0.74896 0.32697 0.33045 0.0
O686 O 0.77196 0.32599 0.34801 0.0
C687 C 0.76355 0.40772 0.5231 0.0
C688 C 0.72801 0.40831 0.55805 0.0
C689 C 0.75631 0.41186 0.557 0.0
N690 N 0.74081 0.40115 0.50518 0.0
N691 N 0.71958 0.40189 0.52626 0.0
C692 C 0.79118 0.41238 0.50726 0.0
H693 H 0.80007 0.3923 0.49947 0.0
H694 H 0.8056 0.42305 0.52468 0.0
H695 H 0.78866 0.4254 0.48431 0.0
C696 C 0.71723 0.31366 0.42864 0.0
N697 N 0.72385 0.34033 0.42526 0.0
N698 N 0.7278 0.35134 0.4555 0.0
C699 C 0.72492 0.33127 0.47915 0.0
C700 C 0.71765 0.30692 0.46285 0.0
C701 C 0.71347 0.29441 0.39925 0.0
H702 H 0.70046 0.30431 0.37954 0.0
H703 H 0.73387 0.28982 0.3879 0.0
H704 H 0.70376 0.27481 0.40719 0.0
O705 O 0.70744 0.39223 0.38227 0.0
O706 O 0.7134 0.41522 0.43077 0.0
H707 H 0.71371 0.34587 0.52839 0.0
H708 H 0.73336 0.31445 0.52902 0.0
C709 C 0.73099 0.33468 0.51621 0.0
H710 H 0.75006 0.34695 0.51958 0.0
H711 H 0.69935 0.39746 0.5191 0.0
O712 O 0.7281 0.33901 0.34322 0.0
C713 C 0.70273 0.413 0.40106 0.0
Co714 Co 0.88905 0.48041 0.63692 0.0
Co715 Co 0.85956 0.48658 0.7083 0.0
C716 C 0.86203 0.53295 0.65807 0.0
O717 O 0.87525 0.51841 0.63679 0.0
O718 O 0.85513 0.52331 0.68693 0.0
C719 C 0.92287 0.49741 0.5815 0.0
O720 O 0.92415 0.52033 0.59916 0.0
C721 C 0.85169 0.51343 0.77407 0.0
C722 C 0.82292 0.486 0.80113 0.0
C723 C 0.8364 0.51114 0.80417 0.0
N724 N 0.84697 0.49115 0.75455 0.0
N725 N 0.82996 0.47467 0.77103 0.0
C726 C 0.87117 0.53576 0.76358 0.0
H727 H 0.88588 0.52799 0.74422 0.0
H728 H 0.88279 0.54361 0.78588 0.0
H729 H 0.8594 0.55286 0.75179 0.0
C730 C 0.93548 0.46479 0.68017 0.0
N731 N 0.90899 0.47207 0.67656 0.0
N732 N 0.89758 0.47503 0.70676 0.0
C733 C 0.91712 0.47035 0.73067 0.0
C734 C 0.9417 0.46365 0.71453 0.0
C735 C 0.95492 0.46115 0.65096 0.0
H736 H 0.94451 0.44991 0.63007 0.0
H737 H 0.96125 0.48169 0.64137 0.0
H738 H 0.9735 0.44947 0.65853 0.0
O739 O 0.85712 0.45623 0.63304 0.0
O740 O 0.834 0.4611 0.68165 0.0
H741 H 0.89216 0.46532 0.77531 0.0
H742 H 0.92883 0.4612 0.78233 0.0
C743 C 0.91288 0.47294 0.7682 0.0
H744 H 0.91455 0.4949 0.77561 0.0
H745 H 0.82249 0.45611 0.76132 0.0
O746 O 0.91059 0.47667 0.5942 0.0
C747 C 0.83641 0.45093 0.65172 0.0
Co748 Co 0.76323 0.64395 0.88598 0.0
Co749 Co 0.76 0.61197 0.95644 0.0
C750 C 0.71284 0.61345 0.906 0.0
O751 O 0.72606 0.62858 0.88536 0.0
O752 O 0.72335 0.60595 0.93427 0.0
C753 C 0.74663 0.67769 0.83009 0.0
O754 O 0.72259 0.67687 0.84538 0.0
C755 C 0.73554 0.59327 0.02182 0.0
C756 C 0.77184 0.589 0.05521 0.0
C757 C 0.74335 0.58724 0.05515 0.0
N758 N 0.75823 0.59908 1.00338 0.0
N759 N 0.77987 0.59622 0.02353 0.0
C760 C 0.70735 0.59099 1.00669 0.0
H761 H 0.70039 0.61161 0.99808 0.0
H762 H 0.69214 0.58218 0.02462 0.0
H763 H 0.70835 0.57722 0.98425 0.0
C764 C 0.776 0.68993 0.93037 0.0
N765 N 0.7705 0.66312 0.92604 0.0
N766 N 0.76883 0.65082 0.95584 0.0
C767 C 0.77261 0.67009 0.98034 0.0
C768 C 0.77764 0.69532 0.96482 0.0
C769 C 0.77756 0.71029 0.90184 0.0
H770 H 0.75715 0.71166 0.88928 0.0
H771 H 0.78349 0.73104 0.91088 0.0
H772 H 0.79274 0.70312 0.88271 0.0
O773 O 0.7885 0.61329 0.881 0.0
O774 O 0.7872 0.58874 0.92872 0.0
H775 H 0.76998 0.68443 0.0323 0.0
H776 H 0.751 0.65319 0.02295 0.0
C777 C 0.77015 0.66487 0.01769 0.0
H778 H 0.7879 0.65226 0.02618 0.0
H779 H 0.80015 0.59961 0.01582 0.0
O780 O 0.76732 0.6666 0.84442 0.0
C781 C 0.79608 0.59257 0.89837 0.0
Co782 Co 0.61164 0.51881 0.13605 0.0
Co783 Co 0.64089 0.51171 0.20794 0.0
C784 C 0.63789 0.46559 0.15766 0.0
O785 O 0.62537 0.48071 0.13632 0.0
O786 O 0.64458 0.47471 0.18688 0.0
C787 C 0.57777 0.50169 0.08073 0.0
O788 O 0.57667 0.47874 0.09837 0.0
C789 C 0.65922 0.48663 0.27313 0.0
C790 C 0.66043 0.52208 0.30816 0.0
C791 C 0.66372 0.49376 0.30701 0.0
N792 N 0.65272 0.50945 0.25532 0.0
N793 N 0.65382 0.53062 0.27647 0.0
C794 C 0.66353 0.459 0.25718 0.0
H795 H 0.67656 0.46142 0.23422 0.0
H796 H 0.64332 0.45037 0.24941 0.0
H797 H 0.67406 0.44441 0.27452 0.0
C798 C 0.56514 0.5342 0.17903 0.0
N799 N 0.59171 0.52717 0.17554 0.0
N800 N 0.60276 0.52301 0.20573 0.0
C801 C 0.58275 0.52605 0.22944 0.0
C802 C 0.55842 0.5337 0.21328 0.0
C803 C 0.54593 0.53824 0.14964 0.0
H804 H 0.54034 0.51785 0.13894 0.0
H805 H 0.52684 0.54903 0.15733 0.0
H806 H 0.55629 0.5504 0.12949 0.0
O807 O 0.64353 0.54287 0.13218 0.0
O808 O 0.66665 0.53685 0.18062 0.0
H809 H 0.59782 0.5368 0.27863 0.0
H810 H 0.56604 0.51776 0.27943 0.0
C811 C 0.58623 0.51978 0.26645 0.0
H812 H 0.59819 0.5005 0.26962 0.0
H813 H 0.64953 0.5509 0.26942 0.0
O814 O 0.59004 0.52246 0.09336 0.0
C815 C 0.66436 0.5475 0.1509 0.0
Co816 Co 0.25791 0.3549 0.38655 0.0
Co817 Co 0.26009 0.38733 0.45628 0.0
C818 C 0.21036 0.38761 0.40911 0.0
O819 O 0.2212 0.37117 0.38791 0.0
O820 O 0.22321 0.39506 0.43584 0.0
C821 C 0.23854 0.3226 0.3307 0.0
O822 O 0.21487 0.32458 0.34672 0.0
C823 C 0.23524 0.39682 0.52256 0.0
C824 C 0.26313 0.4263 0.54768 0.0
C825 C 0.23799 0.41299 0.55185 0.0
N826 N 0.25721 0.40091 0.50231 0.0
N827 N 0.274 0.41833 0.51764 0.0
C828 C 0.21262 0.37721 0.51344 0.0
H829 H 0.22023 0.36141 0.49537 0.0
H830 H 0.20439 0.36695 0.53653 0.0
H831 H 0.1958 0.38861 0.50052 0.0
C832 C 0.2706 0.30854 0.4308 0.0
N833 N 0.26601 0.33551 0.42635 0.0
N834 N 0.2679 0.34839 0.45576 0.0
C835 C 0.27402 0.32957 0.48005 0.0
C836 C 0.27582 0.3038 0.46486 0.0
C837 C 0.26916 0.28767 0.40282 0.0
H838 H 0.28458 0.29284 0.383 0.0
H839 H 0.24847 0.28847 0.3909 0.0
H840 H 0.27302 0.26651 0.41223 0.0
O841 O 0.28402 0.38512 0.38012 0.0
O842 O 0.28734 0.40943 0.42788 0.0
H843 H 0.28788 0.3563 0.52002 0.0
H844 H 0.29041 0.31979 0.52956 0.0
C845 C 0.27784 0.33594 0.51695 0.0
H846 H 0.25742 0.33666 0.52954 0.0
H847 H 0.29237 0.42556 0.50709 0.0
O848 O 0.2601 0.33219 0.34473 0.0
C849 C 0.29395 0.40528 0.39675 0.0
Co850 Co 0.39173 0.51097 0.1356 0.0
Co851 Co 0.36167 0.50856 0.20688 0.0
C852 C 0.36224 0.46062 0.15808 0.0
O853 O 0.37659 0.47354 0.13633 0.0
O854 O 0.35555 0.47171 0.18624 0.0
C855 C 0.42435 0.49316 0.07935 0.0
O856 O 0.42386 0.46957 0.09568 0.0
C857 C 0.35294 0.48257 0.27282 0.0
C858 C 0.32497 0.51099 0.29962 0.0
C859 C 0.33755 0.4854 0.30267 0.0
N860 N 0.3491 0.50497 0.25322 0.0
N861 N 0.33262 0.52207 0.26958 0.0
C862 C 0.37168 0.45947 0.26278 0.0
H863 H 0.38779 0.467 0.24505 0.0
H864 H 0.38153 0.45017 0.28553 0.0
H865 H 0.35966 0.44348 0.24918 0.0
C866 C 0.43881 0.52474 0.1785 0.0
N867 N 0.41197 0.51891 0.17497 0.0
N868 N 0.40008 0.51841 0.20511 0.0
C869 C 0.41947 0.52388 0.22895 0.0
C870 C 0.44454 0.52811 0.21271 0.0
C871 C 0.45884 0.52538 0.14956 0.0
H872 H 0.45976 0.5047 0.13766 0.0
H873 H 0.4798 0.53127 0.15799 0.0
H874 H 0.45158 0.54019 0.13003 0.0
O875 O 0.36059 0.53633 0.13097 0.0
O876 O 0.33726 0.53462 0.17971 0.0
H877 H 0.43092 0.53609 0.27976 0.0
H878 H 0.41405 0.50321 0.27639 0.0
C879 C 0.41438 0.52457 0.26644 0.0
H880 H 0.39414 0.53422 0.27179 0.0
H881 H 0.3258 0.54085 0.25974 0.0
O882 O 0.41357 0.51425 0.09317 0.0
C883 C 0.34018 0.54346 0.14923 0.0
Co884 Co 0.23322 0.63754 0.88445 0.0
Co885 Co 0.24151 0.60809 0.95578 0.0
C886 C 0.28655 0.61043 0.90406 0.0
O887 O 0.27112 0.62308 0.88315 0.0
O888 O 0.27805 0.6041 0.93369 0.0
C889 C 0.24922 0.67272 0.83 0.0
O890 O 0.2725 0.67354 0.84703 0.0
C891 C 0.2673 0.58846 0.01997 0.0
C892 C 0.23271 0.58949 0.05634 0.0
C893 C 0.2608 0.58469 0.05419 0.0
N894 N 0.2444 0.59605 1.00296 0.0
N895 N 0.22373 0.59623 0.02489 0.0
C896 C 0.29428 0.58263 1.00304 0.0
H897 H 0.29063 0.57075 0.97938 0.0
H898 H 0.30438 0.60239 0.99631 0.0
H899 H 0.3082 0.57036 0.01947 0.0
C900 C 0.21924 0.68409 0.92802 0.0
N901 N 0.22602 0.65748 0.92424 0.0
N902 N 0.23067 0.64636 0.95427 0.0
C903 C 0.22823 0.66635 0.97812 0.0
C904 C 0.22042 0.69072 0.96222 0.0
C905 C 0.21443 0.70341 0.89893 0.0
H906 H 0.20144 0.69328 0.87941 0.0
H907 H 0.23451 0.70879 0.88724 0.0
H908 H 0.2042 0.72262 0.9073 0.0
O909 O 0.20856 0.6061 0.88096 0.0
O910 O 0.21564 0.58266 0.92891 0.0
H911 H 0.21786 0.65239 0.02791 0.0
H912 H 0.23858 0.68307 0.02745 0.0
C913 C 0.2352 0.66287 0.01493 0.0
H914 H 0.25391 0.64996 0.01765 0.0
H915 H 0.20353 0.60156 0.01854 0.0
O916 O 0.22886 0.65974 0.84251 0.0
C917 C 0.20429 0.58516 0.8996 0.0
Co918 Co 0.10561 0.48818 0.63525 0.0
Co919 Co 0.13807 0.4902 0.70565 0.0
C920 C 0.13548 0.53842 0.65686 0.0
O921 O 0.12041 0.52545 0.63596 0.0
O922 O 0.14345 0.52734 0.68458 0.0
C923 C 0.07194 0.5067 0.58043 0.0
O924 O 0.07237 0.52988 0.59765 0.0
C925 C 0.15743 0.51415 0.7711 0.0
C926 C 0.16134 0.47779 0.80438 0.0
C927 C 0.16345 0.50625 0.80438 0.0
N928 N 0.15126 0.49158 0.7526 0.0
N929 N 0.15394 0.46989 0.7727 0.0
C930 C 0.16022 0.54231 0.75608 0.0
H931 H 0.17376 0.54105 0.73344 0.0
H932 H 0.13966 0.54979 0.74788 0.0
H933 H 0.16959 0.55724 0.77394 0.0
C934 C 0.06016 0.47348 0.67957 0.0
N935 N 0.08681 0.47971 0.67526 0.0
N936 N 0.09928 0.48084 0.70502 0.0
C937 C 0.08023 0.47596 0.7295 0.0
C938 C 0.05501 0.47074 0.71398 0.0
C939 C 0.03973 0.47222 0.6511 0.0
H940 H 0.04709 0.45759 0.63143 0.0
H941 H 0.038 0.49285 0.63922 0.0
H942 H 0.01911 0.46578 0.66004 0.0
O943 O 0.13659 0.46338 0.62928 0.0
O944 O 0.16137 0.46368 0.67689 0.0
H945 H 0.09818 0.45941 0.77458 0.0
H946 H 0.06611 0.47727 0.78162 0.0
C947 C 0.08562 0.47743 0.76689 0.0
H948 H 0.09739 0.49639 0.77287 0.0
H949 H 0.15029 0.44968 0.76495 0.0
O950 O 0.0829 0.48535 0.59341 0.0
C951 C 0.15743 0.45548 0.64625 0.0
Co952 Co 0.26401 0.64441 0.63024 0.0
Co953 Co 0.26063 0.61232 0.55979 0.0
C954 C 0.21303 0.61531 0.60933 0.0
O955 O 0.22646 0.63011 0.63011 0.0
O956 O 0.22367 0.60732 0.58136 0.0
C957 C 0.2468 0.67811 0.68564 0.0
O958 O 0.2233 0.67807 0.66906 0.0
C959 C 0.2359 0.5942 0.49432 0.0
C960 C 0.27205 0.58939 0.46086 0.0
C961 C 0.24353 0.58822 0.46094 0.0
N962 N 0.25871 0.59946 0.5128 0.0
N963 N 0.28027 0.59627 0.49259 0.0
C964 C 0.20768 0.59236 0.50941 0.0
H965 H 0.20108 0.61306 0.51816 0.0
H966 H 0.19231 0.58391 0.49141 0.0
H967 H 0.20844 0.57843 0.53172 0.0
C968 C 0.27813 0.69 0.58583 0.0
N969 N 0.27221 0.66329 0.59023 0.0
N970 N 0.27032 0.65097 0.56045 0.0
C971 C 0.2743 0.67016 0.5359 0.0
C972 C 0.27976 0.69533 0.55135 0.0
C973 C 0.27974 0.7104 0.6143 0.0
H974 H 0.29425 0.7028 0.63399 0.0
H975 H 0.25912 0.71249 0.62615 0.0
H976 H 0.28658 0.7309 0.60536 0.0
O977 O 0.28839 0.61306 0.63572 0.0
O978 O 0.28711 0.5885 0.58801 0.0
H979 H 0.28878 0.65204 0.48984 0.0
H980 H 0.27144 0.68455 0.48397 0.0
C981 C 0.27136 0.665 0.49859 0.0
H982 H 0.25193 0.6537 0.49361 0.0
H983 H 0.30063 0.59925 0.5003 0.0
O984 O 0.26775 0.66689 0.67205 0.0
C985 C 0.29571 0.59215 0.61853 0.0
Co986 Co 0.11024 0.52291 0.3813 0.0
Co987 Co 0.13942 0.5133 0.30998 0.0
C988 C 0.13663 0.46897 0.3622 0.0
O989 O 0.12448 0.48496 0.3829 0.0
O990 O 0.14285 0.47682 0.33226 0.0
C991 C 0.07519 0.50696 0.43576 0.0
O992 O 0.07391 0.48397 0.41822 0.0
C993 C 0.15722 0.48726 0.245 0.0
C994 C 0.16032 0.52279 0.2102 0.0
C995 C 0.16252 0.49435 0.21124 0.0
N996 N 0.15141 0.51029 0.26278 0.0
N997 N 0.15358 0.53147 0.24177 0.0
C998 C 0.15988 0.45939 0.26092 0.0
H999 H 0.1728 0.461 0.28409 0.0
H1000 H 0.13918 0.45188 0.26848 0.0
H1001 H 0.16973 0.44428 0.24367 0.0
C1002 C 0.06366 0.53662 0.33748 0.0
N1003 N 0.09028 0.52989 0.34142 0.0
N1004 N 0.10136 0.52472 0.31151 0.0
C1005 C 0.08137 0.52677 0.28761 0.0
C1006 C 0.05697 0.53483 0.3033 0.0
C1007 C 0.04432 0.54166 0.36649 0.0
H1008 H 0.05462 0.55435 0.38619 0.0
H1009 H 0.03847 0.52164 0.37799 0.0
H1010 H 0.02534 0.55232 0.35807 0.0
O1011 O 0.14194 0.54724 0.38443 0.0
O1012 O 0.16533 0.53872 0.33679 0.0
H1013 H 0.09712 0.53535 0.2381 0.0
H1014 H 0.06479 0.51715 0.23792 0.0
C1015 C 0.08494 0.51913 0.25103 0.0
H1016 H 0.09643 0.49945 0.24909 0.0
H1017 H 0.15 0.55185 0.24884 0.0
O1018 O 0.08824 0.52736 0.42344 0.0
C1019 C 0.16307 0.55059 0.36579 0.0
Co1020 Co 0.22802 0.36065 0.13081 0.0
Co1021 Co 0.237 0.39025 0.05962 0.0
C1022 C 0.28206 0.38627 0.11119 0.0
O1023 O 0.26636 0.3739 0.13205 0.0
O1024 O 0.27364 0.39316 0.0817 0.0
C1025 C 0.24267 0.32557 0.18617 0.0
O1026 O 0.26623 0.32415 0.16982 0.0
C1027 C 0.26311 0.40859 0.99494 0.0
C1028 C 0.22795 0.41 0.95941 0.0
C1029 C 0.2563 0.41308 0.96092 0.0
N1030 N 0.24005 0.4023 0.01243 0.0
N1031 N 0.21907 0.40353 0.99099 0.0
C1032 C 0.29068 0.41243 0.01129 0.0
H1033 H 0.29928 0.39202 0.01823 0.0
H1034 H 0.30532 0.42342 0.99446 0.0
H1035 H 0.28825 0.42477 0.03482 0.0
C1036 C 0.21344 0.31454 0.08687 0.0
N1037 N 0.22026 0.34111 0.09088 0.0
N1038 N 0.2253 0.35228 0.06098 0.0
C1039 C 0.22314 0.33236 0.03703 0.0
C1040 C 0.21508 0.30795 0.05266 0.0
C1041 C 0.20873 0.2951 0.11587 0.0
H1042 H 0.19589 0.30519 0.13557 0.0
H1043 H 0.22886 0.28956 0.12735 0.0
H1044 H 0.19834 0.27598 0.10747 0.0
O1045 O 0.20436 0.39275 0.13444 0.0
O1046 O 0.21179 0.41626 0.08664 0.0
H1047 H 0.21446 0.34752 0.98726 0.0
H1048 H 0.23349 0.31573 0.9876 0.0
C1049 C 0.23094 0.3359 1.00048 0.0
H1050 H 0.25035 0.34784 0.99858 0.0
H1051 H 0.19872 0.39937 0.99773 0.0
O1052 O 0.22275 0.33872 0.17282 0.0
C1053 C 0.20051 0.41389 0.116 0.0
Co1054 Co 0.38948 0.48023 0.87872 0.0
Co1055 Co 0.35989 0.48499 0.8073 0.0
C1056 C 0.36276 0.53241 0.85641 0.0
O1057 O 0.37626 0.51846 0.87806 0.0
O1058 O 0.3556 0.52199 0.82805 0.0
C1059 C 0.42341 0.4965 0.93462 0.0
O1060 O 0.42439 0.51996 0.91802 0.0
C1061 C 0.3519 0.51162 0.74145 0.0
C1062 C 0.32247 0.48457 0.71486 0.0
C1063 C 0.33615 0.5096 0.7117 0.0
N1064 N 0.34722 0.48934 0.76099 0.0
N1065 N 0.32985 0.47307 0.74476 0.0
C1066 C 0.3717 0.53378 0.75157 0.0
H1067 H 0.38699 0.52569 0.77002 0.0
H1068 H 0.38257 0.54207 0.72894 0.0
H1069 H 0.36033 0.55065 0.76438 0.0
C1070 C 0.43581 0.46375 0.83613 0.0
N1071 N 0.40931 0.47108 0.83936 0.0
N1072 N 0.39794 0.47336 0.80905 0.0
C1073 C 0.41754 0.46811 0.78538 0.0
C1074 C 0.44211 0.46174 0.80186 0.0
C1075 C 0.45518 0.46097 0.86556 0.0
H1076 H 0.44537 0.44856 0.88588 0.0
H1077 H 0.45977 0.48171 0.87595 0.0
H1078 H 0.47471 0.45095 0.8581 0.0
O1079 O 0.35728 0.45651 0.88333 0.0
O1080 O 0.33415 0.46001 0.83457 0.0
H1081 H 0.39248 0.46245 0.74092 0.0
H1082 H 0.42912 0.45762 0.73408 0.0
C1083 C 0.41334 0.4699 0.74777 0.0
H1084 H 0.4153 0.49166 0.73962 0.0
H1085 H 0.32224 0.4546 0.7546 0.0
O1086 O 0.41107 0.47611 0.92122 0.0
C1087 C 0.33655 0.45069 0.86494 0.0
C1088 C 0.15774 0.05325 0.1769 0.0
C1089 C 0.17018 0.02723 0.17957 0.0
H1090 H 0.15877 0.0931 0.15366 0.0
C1091 C 0.19012 0.01968 0.15531 0.0
H1092 H 0.14148 0.05924 0.19425 0.0
C1093 C 0.19948 0.03891 0.13119 0.0
C1094 C 0.18898 0.0659 0.13105 0.0
H1095 H 0.19973 0.99957 0.15639 0.0
H1096 H 0.21647 0.03339 0.11468 0.0
C1097 C 0.16727 0.07247 0.15324 0.0
C1098 C 0.18031 0.9172 0.4019 0.0
C1099 C 0.18649 0.93919 0.37997 0.0
H1100 H 0.19388 0.89151 0.44284 0.0
C1101 C 0.21321 0.95036 0.38052 0.0
H1102 H 0.15988 0.9082 0.40201 0.0
C1103 C 0.2325 0.94132 0.40477 0.0
C1104 C 0.22528 0.92107 0.42878 0.0
H1105 H 0.21842 0.96759 0.36425 0.0
H1106 H 0.25236 0.95142 0.40617 0.0
C1107 C 0.1996 0.90801 0.4257 0.0
C1108 C 0.33504 0.93141 0.65141 0.0
C1109 C 0.31276 0.93752 0.62987 0.0
H1110 H 0.36089 0.94489 0.69226 0.0
C1111 C 0.30123 0.96406 0.63098 0.0
H1112 H 0.34433 0.91112 0.65109 0.0
C1113 C 0.31023 0.98322 0.65541 0.0
C1114 C 0.3308 0.97602 0.67903 0.0
H1115 H 0.28377 0.9692 0.61502 0.0
H1116 H 0.29987 0.00292 0.65726 0.0
C1117 C 0.34418 0.95056 0.67539 0.0
C1118 C 0.28769 0.05135 0.88175 0.0
C1119 C 0.31435 0.06262 0.8806 0.0
H1120 H 0.24881 0.05043 0.90802 0.0
C1121 C 0.32067 0.0849 0.90202 0.0
H1122 H 0.2824 0.0339 0.86588 0.0
C1123 C 0.30157 0.09432 0.92591 0.0
C1124 C 0.27598 0.08118 0.92963 0.0
H1125 H 0.34105 0.09397 0.90167 0.0
H1126 H 0.30739 0.11104 0.94268 0.0
C1127 C 0.2686 0.0606 0.90612 0.0
C1128 C 0.16683 0.92765 0.86299 0.0
C1129 C 0.18869 0.93389 0.88513 0.0
H1130 H 0.14117 0.94124 0.82201 0.0
C1131 C 0.1996 0.9607 0.88492 0.0
H1132 H 0.15801 0.90716 0.86261 0.0
C1133 C 0.19048 0.98006 0.8608 0.0
C1134 C 0.17038 0.97282 0.83659 0.0
H1135 H 0.21672 0.96597 0.90136 0.0
H1136 H 0.2004 2e-05 0.85967 0.0
C1137 C 0.15755 0.947 0.83932 0.0
C1138 C 0.26894 0.93794 0.10986 0.0
C1139 C 0.27633 0.91762 0.08601 0.0
H1140 H 0.28277 0.9644 0.15033 0.0
C1141 C 0.30205 0.90467 0.0893 0.0
H1142 H 0.24904 0.94796 0.10829 0.0
C1143 C 0.32121 0.91401 0.11317 0.0
C1144 C 0.31486 0.93605 0.13496 0.0
H1145 H 0.3079 0.88815 0.07226 0.0
H1146 H 0.34167 0.90507 0.11322 0.0
C1147 C 0.28811 0.94713 0.13418 0.0
C1148 C 0.30232 0.0354 0.38473 0.0
C1149 C 0.3139 0.06193 0.38568 0.0
H1150 H 0.30074 0.99649 0.35859 0.0
C1151 C 0.33604 0.06796 0.3639 0.0
H1152 H 0.28497 0.03032 0.40088 0.0
C1153 C 0.345 0.04874 0.33989 0.0
C1154 C 0.33157 0.02329 0.33644 0.0
H1155 H 0.34536 0.08823 0.36408 0.0
H1156 H 0.36163 0.05435 0.32288 0.0
C1157 C 0.31113 0.01618 0.36027 0.0
C1158 C 0.21439 0.04903 0.63521 0.0
C1159 C 0.18787 0.06065 0.63604 0.0
H1160 H 0.25342 0.04746 0.60931 0.0
C1161 C 0.18197 0.08288 0.61434 0.0
H1162 H 0.21938 0.03161 0.65129 0.0
C1163 C 0.20131 0.09189 0.5905 0.0
C1164 C 0.22676 0.07841 0.58714 0.0
H1165 H 0.1617 0.09223 0.61443 0.0
H1166 H 0.1958 0.10859 0.57355 0.0
C1167 C 0.23373 0.05788 0.61092 0.0
C1168 C 0.84485 0.95024 0.84004 0.0
C1169 C 0.83174 0.97587 0.83666 0.0
H1170 H 0.84462 0.91067 0.86401 0.0
C1171 C 0.81131 0.98317 0.86041 0.0
H1172 H 0.86145 0.94448 0.82307 0.0
C1173 C 0.80217 0.96398 0.88471 0.0
C1174 C 0.8134 0.9373 0.88555 0.0
H1175 H 0.80117 0.00299 0.85875 0.0
H1176 H 0.78482 0.96923 0.90078 0.0
C1177 C 0.83556 0.93106 0.86389 0.0
C1178 C 0.76907 0.06068 0.61083 0.0
C1179 C 0.7763 0.08078 0.58663 0.0
H1180 H 0.78318 0.03455 0.65148 0.0
C1181 C 0.80207 0.09371 0.58945 0.0
H1182 H 0.74915 0.05069 0.60963 0.0
C1183 C 0.82141 0.08453 0.6132 0.0
C1184 C 0.8152 0.06269 0.63535 0.0
H1185 H 0.80781 0.11009 0.57214 0.0
H1186 H 0.84187 0.09344 0.6129 0.0
C1187 C 0.78842 0.05166 0.63504 0.0
C1188 C 0.69954 0.03699 0.38509 0.0
C1189 C 0.68823 0.06364 0.38594 0.0
H1190 H 0.70063 0.99798 0.35916 0.0
C1191 C 0.66604 0.0698 0.36428 0.0
H1192 H 0.71693 0.03181 0.40115 0.0
C1193 C 0.65678 0.05058 0.34044 0.0
C1194 C 0.66996 0.025 0.33705 0.0
H1195 H 0.65692 0.09017 0.36439 0.0
H1196 H 0.64014 0.0563 0.32348 0.0
C1197 C 0.69043 0.01777 0.3608 0.0
C1198 C 0.70048 0.9071 0.09027 0.0
C1199 C 0.72585 0.92068 0.08677 0.0
H1200 H 0.66095 0.90661 0.1144 0.0
C1201 C 0.73285 0.9412 0.11054 0.0
H1202 H 0.69497 0.89039 0.07332 0.0
C1203 C 0.71357 0.94996 0.13495 0.0
C1204 C 0.68709 0.93825 0.13589 0.0
H1205 H 0.75248 0.9517 0.10882 0.0
H1206 H 0.71854 0.96739 0.15101 0.0
C1207 C 0.68119 0.91602 0.11422 0.0
C1208 C 0.83428 0.07092 0.15233 0.0
C1209 C 0.81229 0.0646 0.13044 0.0
H1210 H 0.86012 0.05754 0.19324 0.0
C1211 C 0.80131 0.03781 0.131 0.0
H1212 H 0.84315 0.0914 0.15245 0.0
C1213 C 0.81052 0.01858 0.15522 0.0
C1214 C 0.83077 0.02594 0.17919 0.0
H1215 H 0.78408 0.03249 0.11475 0.0
H1216 H 0.80057 0.99865 0.15662 0.0
C1217 C 0.84364 0.0517 0.17611 0.0
C1218 C 0.71273 0.05169 0.88121 0.0
C1219 C 0.68593 0.06269 0.88062 0.0
H1220 H 0.75185 0.05086 0.90695 0.0
C1221 C 0.67958 0.08464 0.90254 0.0
H1222 H 0.71806 0.0345 0.86494 0.0
C1223 C 0.69879 0.09395 0.92639 0.0
C1224 C 0.72455 0.08104 0.92951 0.0
H1225 H 0.6591 0.09352 0.90262 0.0
H1226 H 0.69294 0.1104 0.94353 0.0
C1227 C 0.73193 0.06084 0.90551 0.0
C1228 C 0.69015 0.98298 0.65553 0.0
C1229 C 0.66971 0.97568 0.67926 0.0
H1230 H 0.71668 0.96904 0.61519 0.0
C1231 C 0.65661 0.95006 0.67585 0.0
H1232 H 0.70029 0.0028 0.65719 0.0
C1233 C 0.66593 0.93087 0.65202 0.0
C1234 C 0.6881 0.93711 0.63038 0.0
H1235 H 0.64 0.94429 0.6928 0.0
H1236 H 0.65688 0.91048 0.65189 0.0
C1237 C 0.69932 0.96379 0.63124 0.0
C1238 C 0.80109 0.90735 0.42578 0.0
C1239 C 0.77559 0.9207 0.42922 0.0
H1240 H 0.84064 0.90719 0.40171 0.0
C1241 C 0.76843 0.94114 0.40542 0.0
H1242 H 0.80674 0.89072 0.44276 0.0
C1243 C 0.78766 0.95006 0.38102 0.0
C1244 C 0.81424 0.93859 0.38013 0.0
H1245 H 0.7487 0.95147 0.40709 0.0
H1246 H 0.78253 0.96743 0.36493 0.0
C1247 C 0.82032 0.91642 0.40184 0.0
C1248 C 0.66365 0.56017 0.6893 0.0
C1249 C 0.66764 0.53181 0.68418 0.0
H1250 H 0.67054 0.60103 0.67155 0.0
C1251 C 0.68017 0.52337 0.65342 0.0
H1252 H 0.65521 0.56819 0.71256 0.0
C1253 C 0.68992 0.5428 0.62969 0.0
C1254 C 0.68729 0.57112 0.63623 0.0
H1255 H 0.68367 0.50172 0.6484 0.0
H1256 H 0.70114 0.53568 0.60756 0.0
C1257 C 0.67293 0.57938 0.66557 0.0
C1258 C 0.71088 0.44734 0.88109 0.0
C1259 C 0.68381 0.43704 0.88171 0.0
H1260 H 0.75048 0.44789 0.9057 0.0
C1261 C 0.67729 0.41598 0.90483 0.0
H1262 H 0.71637 0.46384 0.86383 0.0
C1263 C 0.69669 0.40687 0.92855 0.0
C1264 C 0.72284 0.41915 0.93038 0.0
H1265 H 0.65661 0.40761 0.90583 0.0
H1266 H 0.69074 0.39106 0.94654 0.0
C1267 C 0.73028 0.43843 0.90528 0.0
C1268 C 0.84287 0.44923 0.17686 0.0
C1269 C 0.82977 0.47485 0.18035 0.0
H1270 H 0.84264 0.40971 0.15273 0.0
C1271 C 0.80934 0.48219 0.1566 0.0
H1272 H 0.85948 0.44341 0.1938 0.0
C1273 C 0.80019 0.46306 0.13221 0.0
C1274 C 0.81143 0.43638 0.13124 0.0
H1275 H 0.7992 0.50201 0.15831 0.0
H1276 H 0.78284 0.46835 0.11615 0.0
C1277 C 0.83358 0.4301 0.15292 0.0
C1278 C 0.80127 0.59292 0.42788 0.0
C1279 C 0.77576 0.57964 0.43179 0.0
H1280 H 0.84068 0.59277 0.4034 0.0
C1281 C 0.76846 0.55896 0.40837 0.0
H1282 H 0.80701 0.60978 0.44446 0.0
C1283 C 0.78751 0.5498 0.38389 0.0
C1284 C 0.8141 0.56124 0.38251 0.0
H1285 H 0.74872 0.54869 0.41035 0.0
H1286 H 0.78225 0.53231 0.36806 0.0
C1287 C 0.82036 0.58355 0.40391 0.0
C1288 C 0.65692 0.44958 0.3389 0.0
C1289 C 0.67013 0.4752 0.3361 0.0
H1290 H 0.65674 0.4098 0.36234 0.0
C1291 C 0.69032 0.4822 0.3603 0.0
H1292 H 0.64048 0.44403 0.32158 0.0
C1293 C 0.69913 0.46276 0.38451 0.0
C1294 C 0.68779 0.43611 0.38482 0.0
H1295 H 0.70053 0.502 0.35911 0.0
H1296 H 0.7163 0.46781 0.40097 0.0
C1297 C 0.66588 0.43015 0.36266 0.0
C1298 C 0.81986 0.41428 0.61272 0.0
C1299 C 0.81355 0.43586 0.6352 0.0
H1300 H 0.80636 0.3891 0.57127 0.0
C1301 C 0.78673 0.44679 0.63508 0.0
H1302 H 0.84035 0.40544 0.61229 0.0
C1303 C 0.76743 0.43798 0.61072 0.0
C1304 C 0.77475 0.41817 0.5862 0.0
H1305 H 0.78143 0.4637 0.65182 0.0
H1306 H 0.74748 0.44792 0.60967 0.0
C1307 C 0.80056 0.40528 0.58882 0.0
C1308 C 0.83544 0.56006 0.82651 0.0
C1309 C 0.83121 0.53176 0.83186 0.0
H1310 H 0.82912 0.60106 0.84411 0.0
C1311 C 0.81891 0.52356 0.86285 0.0
H1312 H 0.84372 0.56793 0.8031 0.0
C1313 C 0.80956 0.54317 0.88658 0.0
C1314 C 0.8124 0.57143 0.87982 0.0
H1315 H 0.81525 0.50197 0.86806 0.0
H1316 H 0.79847 0.53625 0.9089 0.0
C1317 C 0.82658 0.57945 0.85026 0.0
C1318 C 0.68148 0.58525 0.11389 0.0
C1319 C 0.68742 0.56239 0.13453 0.0
H1320 H 0.69493 0.61172 0.07363 0.0
C1321 C 0.71361 0.55017 0.13217 0.0
H1322 H 0.66145 0.59504 0.11515 0.0
C1323 C 0.7325 0.55915 0.10743 0.0
C1324 C 0.72543 0.58042 0.08472 0.0
H1325 H 0.71858 0.53224 0.14738 0.0
H1326 H 0.75186 0.5483 0.10464 0.0
C1327 C 0.70043 0.59442 0.08965 0.0
C1328 C 0.33162 0.43632 0.32227 0.0
C1329 C 0.3312 0.46461 0.32964 0.0
H1330 H 0.32153 0.39562 0.33816 0.0
C1331 C 0.32153 0.47294 0.36191 0.0
H1332 H 0.3376 0.42872 0.2976 0.0
C1333 C 0.31138 0.45355 0.38541 0.0
C1334 C 0.3106 0.42543 0.37699 0.0
H1335 H 0.32073 0.49459 0.36847 0.0
H1336 H 0.3026 0.46075 0.40913 0.0
C1337 C 0.32185 0.41709 0.34566 0.0
C1338 C 0.32548 0.57927 0.10783 0.0
C1339 C 0.31813 0.55913 0.13182 0.0
H1340 H 0.3129 0.60395 0.06551 0.0
C1341 C 0.29063 0.5501 0.13299 0.0
H1342 H 0.34651 0.58667 0.10641 0.0
C1343 C 0.27151 0.55934 0.10865 0.0
C1344 C 0.27964 0.57772 0.08283 0.0
H1345 H 0.28447 0.53432 0.15092 0.0
H1346 H 0.25087 0.55087 0.10881 0.0
C1347 C 0.30637 0.58875 0.08397 0.0
C1348 C 0.2011 0.53586 0.88113 0.0
C1349 C 0.18912 0.56216 0.88344 0.0
H1350 H 0.20251 0.4975 0.85378 0.0
C1351 C 0.16619 0.5682 0.86293 0.0
H1352 H 0.21906 0.53079 0.89625 0.0
C1353 C 0.15674 0.54925 0.83884 0.0
C1354 C 0.17051 0.52412 0.83393 0.0
H1355 H 0.15657 0.58831 0.86413 0.0
H1356 H 0.13944 0.55486 0.82288 0.0
C1357 C 0.19183 0.51695 0.85655 0.0
C1358 C 0.16994 0.42552 0.59736 0.0
C1359 C 0.17829 0.43915 0.62719 0.0
H1360 H 0.18113 0.40829 0.55008 0.0
C1361 C 0.20663 0.44109 0.6341 0.0
H1362 H 0.14828 0.42371 0.59104 0.0
C1363 C 0.22604 0.43119 0.6104 0.0
C1364 C 0.21753 0.41918 0.57938 0.0
H1365 H 0.21382 0.45176 0.6566 0.0
H1366 H 0.24774 0.43405 0.61573 0.0
C1367 C 0.18913 0.41611 0.57371 0.0
C1368 C 0.33409 0.55882 0.69085 0.0
C1369 C 0.3306 0.53056 0.68453 0.0
H1370 H 0.32727 0.6 0.67432 0.0
C1371 C 0.31874 0.5227 0.65315 0.0
H1372 H 0.34188 0.56634 0.71472 0.0
C1373 C 0.30932 0.54259 0.62977 0.0
C1374 C 0.31162 0.57079 0.63732 0.0
H1375 H 0.31558 0.50114 0.64729 0.0
H1376 H 0.29872 0.53589 0.60698 0.0
C1377 C 0.32517 0.57849 0.66749 0.0
C1378 C 0.20075 0.59668 0.42661 0.0
C1379 C 0.22538 0.582 0.43137 0.0
H1380 H 0.16165 0.59834 0.40142 0.0
C1381 C 0.23176 0.56056 0.4086 0.0
H1382 H 0.19579 0.61408 0.44271 0.0
C1383 C 0.2125 0.55209 0.38401 0.0
C1384 C 0.18661 0.56497 0.38187 0.0
H1385 H 0.25084 0.54919 0.41126 0.0
H1386 H 0.21691 0.53402 0.36879 0.0
C1387 C 0.18142 0.58802 0.40251 0.0
C1388 C 0.15508 0.45063 0.17847 0.0
C1389 C 0.16888 0.47586 0.18205 0.0
H1390 H 0.15407 0.41126 0.15399 0.0
C1391 C 0.18943 0.48272 0.15824 0.0
H1392 H 0.13832 0.44523 0.19538 0.0
C1393 C 0.19795 0.46346 0.13365 0.0
C1394 C 0.18595 0.43713 0.13251 0.0
H1395 H 0.2001 0.50225 0.15999 0.0
H1396 H 0.21538 0.46835 0.11754 0.0
C1397 C 0.16372 0.43137 0.1543 0.0
C1398 C 0.3009 0.40643 0.92966 0.0
C1399 C 0.27502 0.41923 0.93188 0.0
H1400 H 0.34066 0.40619 0.90608 0.0
C1401 C 0.26767 0.43855 0.90674 0.0
H1402 H 0.30674 0.39053 0.94758 0.0
C1403 C 0.28691 0.44691 0.88206 0.0
C1404 C 0.31374 0.43601 0.88218 0.0
H1405 H 0.24766 0.4484 0.90742 0.0
H1406 H 0.28152 0.46342 0.86477 0.0
C1407 C 0.32015 0.41498 0.90543 0.0
C1408 C 0.22888 0.18051 0.27731 0.0
C1409 C 0.25388 0.17858 0.29523 0.0
H1410 H 0.20907 0.18017 0.2286 0.0
C1411 C 0.27873 0.1794 0.27698 0.0
H1412 H 0.20935 0.18006 0.29062 0.0
C1413 C 0.27855 0.17981 0.24141 0.0
C1414 C 0.2535 0.17899 0.22346 0.0
H1415 H 0.29832 0.17822 0.2901 0.0
H1416 H 0.29805 0.17882 0.2281 0.0
C1417 C 0.22869 0.18049 0.24174 0.0
C1418 C 0.07035 0.97602 0.49013 0.0
C1419 C 0.07171 0.00103 0.47225 0.0
H1420 H 0.07082 0.9562 0.5387 0.0
C1421 C 0.07053 0.02587 0.49055 0.0
H1422 H 0.07093 0.95655 0.47669 0.0
C1423 C 0.07082 0.02569 0.52611 0.0
C1424 C 0.07186 0.00067 0.54397 0.0
H1425 H 0.07139 0.04551 0.47753 0.0
H1426 H 0.07177 0.04515 0.53954 0.0
C1427 C 0.07021 0.97584 0.52568 0.0
C1428 C 0.22733 0.81906 0.73836 0.0
C1429 C 0.25235 0.82084 0.72048 0.0
H1430 H 0.20749 0.81944 0.78704 0.0
C1431 C 0.27719 0.81982 0.73877 0.0
H1432 H 0.20781 0.81968 0.72501 0.0
C1433 C 0.27698 0.81932 0.77433 0.0
C1434 C 0.25193 0.82028 0.79225 0.0
H1435 H 0.29679 0.82088 0.72567 0.0
H1436 H 0.29648 0.82014 0.78768 0.0
C1437 C 0.22711 0.819 0.77393 0.0
C1438 C 0.43099 0.97443 0.98954 0.0
C1439 C 0.42954 0.99958 0.9719 0.0
H1440 H 0.43019 0.9543 0.03802 0.0
C1441 C 0.43083 0.02428 0.99042 0.0
H1442 H 0.43018 0.95502 0.97601 0.0
C1443 C 0.4312 0.02384 0.02598 0.0
C1444 C 0.42985 0.99869 0.04363 0.0
H1445 H 0.43003 0.04397 0.97751 0.0
H1446 H 0.43054 0.04325 0.03952 0.0
C1447 C 0.43092 0.97399 0.0251 0.0
C1448 C 0.77561 0.82087 0.73987 0.0
C1449 C 0.75046 0.82219 0.72216 0.0
H1450 H 0.79572 0.82185 0.78839 0.0
C1451 C 0.72575 0.82106 0.74069 0.0
H1452 H 0.79503 0.82159 0.72636 0.0
C1453 C 0.72617 0.82083 0.77627 0.0
C1454 C 0.75132 0.82219 0.79398 0.0
H1455 H 0.70606 0.8218 0.72775 0.0
H1456 H 0.70674 0.82153 0.78977 0.0
C1457 C 0.77603 0.82109 0.77545 0.0
C1458 C 0.93086 0.97512 0.49 0.0
C1459 C 0.92976 -0.0 0.47182 0.0
H1460 H 0.93036 0.95571 0.53882 0.0
C1461 C 0.93134 0.02497 0.4898 0.0
H1462 H 0.92996 0.95556 0.47681 0.0
C1463 C 0.93122 0.02509 0.52536 0.0
C1464 C 0.92994 0.00023 0.54355 0.0
H1465 H 0.93068 0.04451 0.47654 0.0
H1466 H 0.93059 0.04467 0.53855 0.0
C1467 C 0.93117 0.97524 0.52556 0.0
C1468 C 0.77455 0.18081 0.2761 0.0
C1469 C 0.74957 0.17919 0.29408 0.0
H1470 H 0.79424 0.18007 0.22735 0.0
C1471 C 0.72468 0.18026 0.2759 0.0
H1472 H 0.7941 0.18017 0.28936 0.0
C1473 C 0.72478 0.18056 0.24035 0.0
C1474 C 0.74978 0.17935 0.22235 0.0
H1475 H 0.70511 0.17934 0.28909 0.0
H1476 H 0.70524 0.17972 0.22708 0.0
C1477 C 0.77465 0.18067 0.24054 0.0
C1478 C 0.57022 0.97463 0.99023 0.0
C1479 C 0.57139 0.99966 0.97233 0.0
H1480 H 0.5714 0.95483 0.03891 0.0
C1481 C 0.57 0.02448 0.99061 0.0
H1482 H 0.57111 0.95513 0.97689 0.0
C1483 C 0.56981 0.02427 0.02617 0.0
C1484 C 0.57144 0.99926 0.04407 0.0
H1485 H 0.57058 0.04409 0.97749 0.0
H1486 H 0.57038 0.04378 0.0395 0.0
C1487 C 0.57046 0.97443 0.02579 0.0
C1488 C 0.77588 0.68661 0.74204 0.0
C1489 C 0.75185 0.6849 0.72222 0.0
H1490 H 0.79306 0.68589 0.79218 0.0
C1491 C 0.72609 0.6864 0.73841 0.0
H1492 H 0.79605 0.68578 0.73033 0.0
C1493 C 0.72438 0.68671 0.77388 0.0
C1494 C 0.74842 0.68521 0.79373 0.0
H1495 H 0.7072 0.68553 0.72375 0.0
H1496 H 0.70421 0.68593 0.7856 0.0
C1497 C 0.77417 0.68661 0.77752 0.0
C1498 C 0.56852 0.47617 0.99084 0.0
C1499 C 0.56978 0.50092 0.97241 0.0
H1500 H 0.56939 0.45703 0.03984 0.0
C1501 C 0.56889 0.52602 0.99022 0.0
H1502 H 0.56891 0.45652 0.97782 0.0
C1503 C 0.56953 0.52634 0.02577 0.0
C1504 C 0.57064 0.50156 0.04415 0.0
H1505 H 0.56969 0.54547 0.97677 0.0
H1506 H 0.57068 0.54597 0.03877 0.0
C1507 C 0.56873 0.47649 0.02641 0.0
C1508 C 0.77415 0.31888 0.27596 0.0
C1509 C 0.74909 0.32019 0.2938 0.0
H1510 H 0.79401 0.3201 0.22733 0.0
C1511 C 0.72428 0.31898 0.27548 0.0
H1512 H 0.79364 0.31962 0.28934 0.0
C1513 C 0.72452 0.31889 0.23992 0.0
C1514 C 0.74957 0.32045 0.2221 0.0
H1515 H 0.70465 0.31967 0.28856 0.0
H1516 H 0.70502 0.31964 0.22655 0.0
C1517 C 0.77439 0.31923 0.24041 0.0
C1518 C 0.9305 0.47283 0.52637 0.0
C1519 C 0.92957 0.49759 0.5448 0.0
H1520 H 0.92969 0.45373 0.47736 0.0
C1521 C 0.9311 0.52268 0.52705 0.0
H1522 H 0.92963 0.45318 0.53937 0.0
C1523 C 0.93077 0.52302 0.49148 0.0
C1524 C 0.92933 0.49828 0.47306 0.0
H1525 H 0.93055 0.54213 0.54051 0.0
H1526 H 0.9301 0.54268 0.47849 0.0
C1527 C 0.93061 0.47317 0.49081 0.0
C1528 C 0.21565 0.31759 0.2394 0.0
C1529 C 0.2411 0.31758 0.2224 0.0
H1530 H 0.19482 0.31847 0.28729 0.0
C1531 C 0.26536 0.31386 0.24138 0.0
H1532 H 0.19658 0.32005 0.22539 0.0
C1533 C 0.26439 0.31322 0.2769 0.0
C1534 C 0.23912 0.31594 0.29401 0.0
H1535 H 0.28529 0.31354 0.22902 0.0
H1536 H 0.28357 0.31233 0.29096 0.0
C1537 C 0.21465 0.31659 0.2749 0.0
C1538 C 0.43296 0.51995 0.98995 0.0
C1539 C 0.43075 0.49547 0.97109 0.0
H1540 H 0.4328 0.53844 0.03941 0.0
C1541 C 0.43158 0.47014 0.9883 0.0
H1542 H 0.43257 0.53982 0.97743 0.0
C1543 C 0.43202 0.46935 0.02383 0.0
C1544 C 0.43125 0.4939 0.04274 0.0
H1545 H 0.43025 0.45092 0.9744 0.0
H1546 H 0.43089 0.44952 0.03635 0.0
C1547 C 0.43302 0.51918 0.0255 0.0
C1548 C 0.2226 0.68448 0.74112 0.0
C1549 C 0.24729 0.6843 0.72244 0.0
H1550 H 0.20386 0.68099 0.79023 0.0
C1551 C 0.27246 0.68555 0.74001 0.0
H1552 H 0.20285 0.68371 0.72835 0.0
C1553 C 0.27301 0.68429 0.77551 0.0
C1554 C 0.2484 0.68136 0.79398 0.0
H1555 H 0.29181 0.68576 0.72628 0.0
H1556 H 0.2928 0.68347 0.78821 0.0
C1557 C 0.22316 0.68281 0.7766 0.0
C1558 C 0.06431 0.48229 0.48989 0.0
C1559 C 0.06722 0.50721 0.47204 0.0
H1560 H 0.06337 0.46257 0.53861 0.0
C1561 C 0.06643 0.5321 0.4902 0.0
H1562 H 0.06466 0.46275 0.47662 0.0
C1563 C 0.06532 0.53199 0.52572 0.0
C1564 C 0.06543 0.50696 0.54369 0.0
H1565 H 0.06829 0.55163 0.47708 0.0
H1566 H 0.06652 0.55148 0.53903 0.0
C1567 C 0.06362 0.48216 0.52544 0.0
C1568 C 0.33694 0.07731 0.1681 0.0
C1569 C 0.35089 0.05992 0.14539 0.0
H1570 H 0.30614 0.10825 0.17417 0.0
C1571 C 0.34884 0.06511 0.11024 0.0
H1572 H 0.33877 0.07447 0.1953 0.0
C1573 C 0.33004 0.08447 0.09801 0.0
C1574 C 0.31319 0.09906 0.12073 0.0
H1575 H 0.35981 0.05252 0.09196 0.0
H1576 H 0.32727 0.0864 0.07082 0.0
C1577 C 0.31831 0.09682 0.15588 0.0
C1578 C 0.16642 0.07968 0.34845 0.0
C1579 C 0.15169 0.06267 0.37087 0.0
H1580 H 0.19853 0.10934 0.34294 0.0
C1581 C 0.15378 0.06755 0.40609 0.0
H1582 H 0.16462 0.0771 0.32121 0.0
C1583 C 0.1733 0.08603 0.41865 0.0
C1584 C 0.19087 0.10005 0.39621 0.0
H1585 H 0.14224 0.05528 0.42416 0.0
H1586 H 0.17604 0.08762 0.44589 0.0
C1587 C 0.1858 0.09831 0.36101 0.0
C1588 C 0.17203 0.91402 0.59745 0.0
C1589 C 0.18952 0.89982 0.61982 0.0
H1590 H 0.14133 0.94515 0.59204 0.0
C1591 C 0.18456 0.9016 0.65504 0.0
H1592 H 0.17468 0.9124 0.5702 0.0
C1593 C 0.16544 0.92047 0.66767 0.0
C1594 C 0.15089 0.93767 0.6453 0.0
H1595 H 0.19721 0.89042 0.67306 0.0
H1596 H 0.16377 0.92308 0.69492 0.0
C1597 C 0.15276 0.93273 0.61008 0.0
C1598 C 0.34838 0.93326 0.90501 0.0
C1599 C 0.3502 0.93864 0.86989 0.0
H1600 H 0.32697 0.91189 0.94448 0.0
C1601 C 0.33598 0.92147 0.84717 0.0
H1602 H 0.35957 0.94567 0.92328 0.0
C1603 C 0.31731 0.90201 0.85943 0.0
C1604 C 0.31244 0.8996 0.89461 0.0
H1605 H 0.33761 0.92445 0.81998 0.0
H1606 H 0.30493 0.89077 0.84118 0.0
C1607 C 0.32956 0.91395 0.91727 0.0
C1608 C 0.66571 0.92196 0.84772 0.0
C1609 C 0.65105 0.9389 0.87028 0.0
H1610 H 0.69756 0.89204 0.84201 0.0
C1611 C 0.65294 0.9337 0.90544 0.0
H1612 H 0.66403 0.92479 0.8205 0.0
C1613 C 0.67224 0.91493 0.91787 0.0
C1614 C 0.68976 0.90094 0.89535 0.0
H1615 H 0.64144 0.94592 0.92361 0.0
H1616 H 0.67486 0.91307 0.94511 0.0
C1617 C 0.68486 0.90303 0.86015 0.0
C1618 C 0.84848 0.93394 0.61042 0.0
C1619 C 0.85042 0.9391 0.64559 0.0
H1620 H 0.82657 0.91328 0.57079 0.0
C1621 C 0.83585 0.9221 0.66816 0.0
H1622 H 0.85991 0.94621 0.59225 0.0
C1623 C 0.81674 0.90313 0.65576 0.0
C1624 C 0.81179 0.90104 0.62056 0.0
H1625 H 0.83756 0.92491 0.69538 0.0
H1626 H 0.80412 0.89207 0.67391 0.0
C1627 C 0.82923 0.91512 0.59802 0.0
C1628 C 0.84832 0.06689 0.40554 0.0
C1629 C 0.85033 0.0619 0.37035 0.0
H1630 H 0.8264 0.08747 0.44522 0.0
C1631 C 0.83594 0.07912 0.34783 0.0
H1632 H 0.85961 0.05445 0.42368 0.0
C1633 C 0.81691 0.09814 0.36029 0.0
C1634 C 0.81184 0.10006 0.39548 0.0
H1635 H 0.83771 0.07644 0.3206 0.0
H1636 H 0.80441 0.10937 0.34215 0.0
C1637 C 0.82913 0.08577 0.418 0.0
C1638 C 0.66452 0.0786 0.1684 0.0
C1639 C 0.65026 0.06132 0.14585 0.0
H1640 H 0.69581 0.1091 0.17414 0.0
C1641 C 0.65222 0.06639 0.11066 0.0
H1642 H 0.66279 0.07587 0.19562 0.0
C1643 C 0.67125 0.08543 0.09824 0.0
C1644 C 0.68843 0.09982 0.12079 0.0
H1645 H 0.64101 0.05389 0.09251 0.0
H1646 H 0.67396 0.0872 0.07102 0.0
C1647 C 0.68339 0.0978 0.15597 0.0
C1648 C 0.82971 0.58473 0.5994 0.0
C1649 C 0.81265 0.599 0.62216 0.0
H1650 H 0.85963 0.55292 0.59308 0.0
C1651 C 0.81701 0.59583 0.65735 0.0
H1652 H 0.82739 0.58732 0.57222 0.0
C1653 C 0.83532 0.57594 0.66942 0.0
C1654 C 0.84985 0.55921 0.64649 0.0
H1655 H 0.80446 0.60681 0.67567 0.0
H1656 H 0.83641 0.57225 0.69657 0.0
C1657 C 0.84833 0.56511 0.61146 0.0
C1658 C 0.68327 0.59654 0.85856 0.0
C1659 C 0.68748 0.59986 0.89377 0.0
H1660 H 0.66365 0.5731 0.81937 0.0
C1661 C 0.67013 0.58595 0.91652 0.0
H1662 H 0.69609 0.60723 0.84027 0.0
C1663 C 0.65122 0.56663 0.90445 0.0
C1664 C 0.64971 0.56061 0.86944 0.0
H1665 H 0.67239 0.58862 0.9437 0.0
H1666 H 0.6396 0.55476 0.92285 0.0
C1667 C 0.66469 0.57691 0.8465 0.0
C1668 C 0.65171 0.43401 0.11057 0.0
C1669 C 0.64978 0.43927 0.14571 0.0
H1670 H 0.67335 0.41288 0.07112 0.0
C1671 C 0.66391 0.42198 0.16839 0.0
H1672 H 0.64058 0.44649 0.09232 0.0
C1673 C 0.68272 0.40265 0.15614 0.0
C1674 C 0.68779 0.40047 0.12098 0.0
H1675 H 0.66215 0.42484 0.19559 0.0
H1676 H 0.69509 0.3914 0.17439 0.0
C1677 C 0.67065 0.4148 0.09832 0.0
C1678 C 0.84748 0.43232 0.40599 0.0
C1679 C 0.84952 0.43764 0.37087 0.0
H1680 H 0.82552 0.41141 0.44535 0.0
C1681 C 0.83515 0.42063 0.3481 0.0
H1682 H 0.85877 0.44459 0.42431 0.0
C1683 C 0.81608 0.40152 0.36027 0.0
C1684 C 0.81098 0.3993 0.39541 0.0
H1685 H 0.83696 0.42354 0.32091 0.0
H1686 H 0.80358 0.39048 0.34196 0.0
C1687 C 0.82827 0.41336 0.41815 0.0
C1688 C 0.17703 0.40299 0.36467 0.0
C1689 C 0.18509 0.4025 0.39908 0.0
H1690 H 0.15494 0.42456 0.32581 0.0
C1691 C 0.17198 0.42025 0.42215 0.0
H1692 H 0.18646 0.38934 0.34623 0.0
C1693 C 0.15361 0.44021 0.4104 0.0
C1694 C 0.14844 0.44304 0.37533 0.0
H1695 H 0.17745 0.4201 0.44888 0.0
H1696 H 0.1455 0.45496 0.4285 0.0
C1697 C 0.15903 0.42326 0.35285 0.0
C1698 C 0.32731 0.40943 0.10111 0.0
C1699 C 0.30832 0.39776 0.12384 0.0
H1700 H 0.36018 0.43809 0.09437 0.0
C1701 C 0.31203 0.40185 0.15899 0.0
H1702 H 0.32542 0.40609 0.07398 0.0
C1703 C 0.3318 0.42042 0.17075 0.0
C1704 C 0.34841 0.43487 0.14758 0.0
H1705 H 0.29799 0.39283 0.17728 0.0
H1706 H 0.33245 0.4251 0.19769 0.0
C1707 C 0.34734 0.4277 0.1129 0.0
C1708 C 0.34971 0.56583 0.90193 0.0
C1709 C 0.35037 0.55882 0.86719 0.0
H1710 H 0.329 0.58834 0.94105 0.0
C1711 C 0.33458 0.57432 0.84416 0.0
H1712 H 0.36199 0.55465 0.92034 0.0
C1713 C 0.31581 0.59383 0.85611 0.0
C1714 C 0.31229 0.59786 0.8913 0.0
H1715 H 0.33499 0.5698 0.81718 0.0
H1716 H 0.30227 0.60368 0.83789 0.0
C1717 C 0.33069 0.58509 0.9139 0.0
C1718 C 0.18212 0.60008 0.65629 0.0
C1719 C 0.18711 0.60262 0.62114 0.0
H1720 H 0.1612 0.5778 0.69544 0.0
C1721 C 0.16992 0.58866 0.59826 0.0
H1722 H 0.19467 0.61097 0.67469 0.0
C1723 C 0.1506 0.56975 0.61026 0.0
C1724 C 0.14848 0.56428 0.64535 0.0
H1725 H 0.17267 0.59085 0.57109 0.0
H1726 H 0.13924 0.55766 0.59183 0.0
C1727 C 0.16305 0.58091 0.66829 0.0
C1728 C 0.24257 0.23767 0.03483 0.0
C1729 C 0.21868 0.22194 0.03973 0.0
H1730 H 0.25994 0.27829 0.03432 0.0
C1731 C 0.19297 0.23508 0.04064 0.0
H1732 H 0.26262 0.22786 0.03474 0.0
C1733 C 0.19143 0.26381 0.04029 0.0
C1734 C 0.21559 0.27961 0.03925 0.0
H1735 H 0.17439 0.22326 0.04505 0.0
H1736 H 0.17167 0.27363 0.04446 0.0
C1737 C 0.24104 0.26644 0.03457 0.0
C1738 C 0.9864 0.94355 0.29078 0.0
C1739 C 0.97161 0.96832 0.2891 0.0
H1740 H 0.02624 0.9249 0.29568 0.0
C1741 C 0.98581 0.99309 0.2837 0.0
H1742 H 0.97578 0.92432 0.29553 0.0
C1743 C 0.01463 0.99343 0.28377 0.0
C1744 C 0.02939 0.96899 0.28924 0.0
H1745 H 0.97472 0.01245 0.28295 0.0
H1746 H 0.02526 0.01304 0.28308 0.0
C1747 C 0.01518 0.94389 0.29086 0.0
C1748 C 0.30753 0.73667 0.53836 0.0
C1749 C 0.28212 0.72303 0.53643 0.0
H1750 H 0.32791 0.7756 0.5436 0.0
C1751 C 0.25805 0.73833 0.53069 0.0
H1752 H 0.32622 0.72521 0.54351 0.0
C1753 C 0.259 0.76712 0.53089 0.0
C1754 C 0.28402 0.78074 0.53685 0.0
H1755 H 0.23821 0.72814 0.52987 0.0
H1756 H 0.23987 0.77859 0.53005 0.0
C1757 C 0.30848 0.76543 0.53852 0.0
C1758 C 0.48569 0.00838 0.78378 0.0
C1759 C 0.47128 0.033 0.78944 0.0
H1760 H 0.5253 0.98877 0.78293 0.0
C1761 C 0.48586 0.05788 0.79131 0.0
H1762 H 0.47477 0.98894 0.78288 0.0
C1763 C 0.51464 0.05779 0.79135 0.0
C1764 C 0.52906 0.03281 0.78949 0.0
H1765 H 0.47507 0.077 0.79626 0.0
H1766 H 0.52553 0.07683 0.79632 0.0
C1767 C 0.51451 0.00829 0.78381 0.0
C1768 C 0.1949 0.76242 0.97465 0.0
C1769 C 0.21994 0.77678 0.97558 0.0
H1770 H 0.17547 0.72292 0.97063 0.0
C1771 C 0.24458 0.76217 0.98035 0.0
H1772 H 0.17576 0.77336 0.97036 0.0
C1773 C 0.24442 0.73336 0.98045 0.0
C1774 C 0.21963 0.719 0.97578 0.0
H1775 H 0.26413 0.77292 0.98049 0.0
H1776 H 0.26386 0.72241 0.98062 0.0
C1777 C 0.19474 0.73365 0.97482 0.0
C1778 C 0.51525 0.94124 0.22494 0.0
C1779 C 0.52957 0.96627 0.22678 0.0
H1780 H 0.47578 0.92187 0.21989 0.0
C1781 C 0.51491 0.99075 0.23231 0.0
H1782 H 0.52624 0.92222 0.22009 0.0
C1783 C 0.48609 0.99056 0.2322 0.0
C1784 C 0.47179 0.96587 0.22655 0.0
H1785 H 0.52563 0.01031 0.23318 0.0
H1786 H 0.47509 0.00996 0.23299 0.0
C1787 C 0.48647 0.94104 0.22483 0.0
C1788 C 0.30831 0.23529 0.47629 0.0
C1789 C 0.28465 0.21888 0.47925 0.0
H1790 H 0.32398 0.27628 0.47031 0.0
C1791 C 0.25931 0.23137 0.48676 0.0
H1792 H 0.32796 0.226 0.47007 0.0
C1793 C 0.25708 0.26007 0.48713 0.0
C1794 C 0.28017 0.27646 0.48005 0.0
H1795 H 0.24076 0.21905 0.48864 0.0
H1796 H 0.23683 0.26933 0.48908 0.0
C1797 C 0.30606 0.26399 0.47657 0.0
C1798 C 0.01559 0.00784 0.73213 0.0
C1799 C 0.03016 0.0324 0.7267 0.0
H1800 H 0.97585 0.98849 0.73274 0.0
C1801 C 0.01574 0.05737 0.72493 0.0
H1802 H 0.02639 0.98833 0.73294 0.0
C1803 C 0.98696 0.05747 0.72479 0.0
C1804 C 0.97237 0.03258 0.72646 0.0
H1805 H 0.02665 0.07645 0.72016 0.0
H1806 H 0.97619 0.07661 0.71992 0.0
C1807 C 0.98677 0.00794 0.73201 0.0
C1808 C 0.75765 0.76741 0.98452 0.0
C1809 C 0.78279 0.78072 0.97828 0.0
H1810 H 0.73646 0.72867 0.98614 0.0
C1811 C 0.80709 0.76515 0.97676 0.0
H1812 H 0.73865 0.77909 0.98525 0.0
C1813 C 0.80585 0.73641 0.97742 0.0
C1814 C 0.78031 0.72303 0.97963 0.0
H1815 H 0.82661 0.77508 0.9715 0.0
H1816 H 0.82442 0.72471 0.97238 0.0
C1817 C 0.75641 0.73863 0.98516 0.0
C1818 C 0.74162 0.23553 0.482 0.0
C1819 C 0.7171 0.22087 0.47667 0.0
H1820 H 0.76083 0.27533 0.48249 0.0
C1821 C 0.69205 0.23519 0.47495 0.0
H1822 H 0.76118 0.22482 0.48276 0.0
C1823 C 0.69184 0.26395 0.47477 0.0
C1824 C 0.71669 0.27863 0.47633 0.0
H1825 H 0.67301 0.2242 0.47024 0.0
H1826 H 0.67264 0.27464 0.46996 0.0
C1827 C 0.74141 0.26434 0.48184 0.0
C1828 C 0.80699 0.23606 0.04127 0.0
C1829 C 0.78204 0.22158 0.03961 0.0
H1830 H 0.82613 0.27565 0.04611 0.0
C1831 C 0.75742 0.23607 0.03424 0.0
H1832 H 0.82611 0.22521 0.04601 0.0
C1833 C 0.75743 0.26488 0.03431 0.0
C1834 C 0.78205 0.27934 0.03975 0.0
H1835 H 0.73793 0.22523 0.03352 0.0
H1836 H 0.73794 0.27574 0.03364 0.0
C1837 C 0.807 0.26483 0.04133 0.0
C1838 C 0.69415 0.76508 0.53954 0.0
C1839 C 0.7186 0.7804 0.53806 0.0
H1840 H 0.6764 0.72483 0.54384 0.0
C1841 C 0.74362 0.76682 0.53192 0.0
H1842 H 0.67472 0.77521 0.54474 0.0
C1843 C 0.74457 0.73803 0.53127 0.0
C1844 C 0.7205 0.72267 0.53671 0.0
H1845 H 0.76274 0.77831 0.53122 0.0
H1846 H 0.76442 0.72786 0.53033 0.0
C1847 C 0.69509 0.73632 0.53886 0.0
C1848 C 0.5129 0.48537 0.77946 0.0
C1849 C 0.52812 0.46193 0.78855 0.0
H1850 H 0.47263 0.50338 0.77577 0.0
C1851 C 0.51439 0.43682 0.79333 0.0
H1852 H 0.52312 0.50502 0.77622 0.0
C1853 C 0.4856 0.43586 0.79298 0.0
C1854 C 0.47031 0.46004 0.78802 0.0
H1855 H 0.52577 0.41863 0.80089 0.0
H1856 H 0.47536 0.41696 0.80033 0.0
C1857 C 0.48407 0.48442 0.77917 0.0
C1858 C 0.015 0.50948 0.28534 0.0
C1859 C 0.0286 0.53471 0.28988 0.0
H1860 H 0.97605 0.48857 0.28545 0.0
C1861 C 0.01318 0.55913 0.29066 0.0
H1862 H 0.02655 0.49039 0.28528 0.0
C1863 C 0.98441 0.55809 0.29082 0.0
C1864 C 0.97082 0.53262 0.29004 0.0
H1865 H 0.02333 0.57873 0.29471 0.0
H1866 H 0.9729 0.57689 0.29502 0.0
C1867 C 0.98619 0.50844 0.28544 0.0
C1868 C 0.0146 0.44108 0.72502 0.0
C1869 C 0.02751 0.46672 0.72898 0.0
H1870 H 0.97626 0.4199 0.71811 0.0
C1871 C 0.01153 0.48991 0.73691 0.0
H1872 H 0.02659 0.42308 0.71822 0.0
C1873 C 0.98276 0.48809 0.73679 0.0
C1874 C 0.96985 0.46311 0.7286 0.0
H1875 H 0.02112 0.50995 0.73938 0.0
H1876 H 0.97073 0.50678 0.73929 0.0
C1877 C 0.98587 0.43927 0.72487 0.0
C1878 C 0.48561 0.55693 0.22368 0.0
C1879 C 0.47233 0.53145 0.22711 0.0
H1880 H 0.52426 0.57768 0.21752 0.0
C1881 C 0.48799 0.50786 0.23422 0.0
H1882 H 0.47387 0.57523 0.21747 0.0
C1883 C 0.51677 0.50922 0.23403 0.0
C1884 C 0.53006 0.53418 0.22673 0.0
H1885 H 0.47809 0.48793 0.23621 0.0
H1886 H 0.52853 0.49032 0.23599 0.0
C1887 C 0.51436 0.55831 0.22362 0.0
loop_
_geom_bond_atom_site_label_1
_geom_bond_atom_site_label_2
_geom_bond_distance
_geom_bond_site_symmetry_2
_ccdc_geom_bond_type
Co0 O3 1.970 . S
Co0 N17 1.989 . S
Co0 O25 1.967 . S
Co0 O32 1.920 . S
Co1 O4 1.966 . S
Co1 N10 2.022 . S
Co1 N18 1.993 . S
Co1 O26 1.941 . S
C2 O3 1.258 . S
C2 O4 1.263 . S
O3 Co0 1.970 . S
O3 C2 1.258 . S
O4 Co1 1.966 . S
O4 C2 1.263 . S
C5 O6 1.235 . S
C5 O32 1.289 . S
O6 C5 1.235 . S
C7 C9 1.400 . S
C7 N10 1.351 1_556 S
C7 C12 1.501 . S
C8 C9 1.387 . S
C8 N11 1.341 . S
C9 C7 1.400 . S
C9 C8 1.387 . S
N10 Co1 2.022 . S
N10 C7 1.351 1_554 S
N10 N11 1.365 1_554 S
N11 C8 1.341 . S
N11 N10 1.365 1_556 S
N11 H31 0.862 . S
C12 C7 1.501 . S
C12 H13 0.961 1_556 S
C12 H14 0.961 . S
C12 H15 0.960 . S
H13 C12 0.961 1_554 S
H14 C12 0.961 . S
H15 C12 0.960 . S
C16 N17 1.342 . S
C16 C20 1.401 . S
C16 C21 1.499 . S
N17 Co0 1.989 . S
N17 C16 1.342 . S
N17 N18 1.388 . S
N18 Co1 1.993 . S
N18 N17 1.388 . S
N18 C19 1.346 . S
C19 N18 1.346 . S
C19 C20 1.396 . S
C19 C29 1.510 . S
C20 C16 1.401 . S
C20 C19 1.396 . S
C21 C16 1.499 . S
C21 H22 0.959 . S
C21 H23 0.960 . S
C21 H24 0.961 . S
H22 C21 0.959 . S
H23 C21 0.960 . S
H24 C21 0.961 . S
O25 Co0 1.967 . S
O25 C33 1.258 . S
O26 Co1 1.941 . S
O26 C33 1.266 . S
H27 C29 0.950 1_556 S
H28 C29 0.961 1_556 S
C29 C19 1.510 . S
C29 H27 0.950 1_554 S
C29 H28 0.961 1_554 S
C29 H30 0.955 1_554 S
H30 C29 0.955 1_556 S
H31 N11 0.862 . S
O32 Co0 1.920 . S
O32 C5 1.289 . S
C33 O25 1.258 . S
C33 O26 1.266 . S
Co34 O37 1.970 1_565 S
Co34 N51 1.989 . S
Co34 O59 1.967 . S
Co34 O66 1.920 . S
Co35 O38 1.966 1_565 S
Co35 N44 2.022 . S
Co35 N52 1.993 . S
Co35 O60 1.941 . S
C36 O37 1.258 . S
C36 O38 1.263 . S
O37 Co34 1.970 1_545 S
O37 C36 1.258 . S
O38 Co35 1.966 1_545 S
O38 C36 1.263 . S
C39 O40 1.235 1_565 S
C39 O66 1.289 . S
O40 C39 1.235 1_545 S
C41 C43 1.400 . S
C41 N44 1.351 . S
C41 C46 1.501 1_565 S
C42 C43 1.387 . S
C42 N45 1.341 . S
C43 C41 1.400 . S
C43 C42 1.387 . S
N44 Co35 2.022 . S
N44 C41 1.351 . S
N44 N45 1.365 . S
N45 C42 1.341 . S
N45 N44 1.365 . S
N45 H65 0.862 . S
C46 C41 1.501 1_545 S
C46 H47 0.961 . S
C46 H48 0.961 . S
C46 H49 0.960 . S
H47 C46 0.961 . S
H48 C46 0.961 . S
H49 C46 0.960 . S
C50 N51 1.342 . S
C50 C54 1.401 . S
C50 C55 1.499 . S
N51 Co34 1.989 . S
N51 C50 1.342 . S
N51 N52 1.388 . S
N52 Co35 1.993 . S
N52 N51 1.388 . S
N52 C53 1.346 . S
C53 N52 1.346 . S
C53 C54 1.396 . S
C53 C63 1.510 . S
C54 C50 1.401 . S
C54 C53 1.396 . S
C55 C50 1.499 . S
C55 H56 0.959 . S
C55 H57 0.960 . S
C55 H58 0.961 . S
H56 C55 0.959 . S
H57 C55 0.960 . S
H58 C55 0.961 . S
O59 Co34 1.967 . S
O59 C67 1.258 . S
O60 Co35 1.941 . S
O60 C67 1.266 . S
H61 C63 0.959 . S
H62 C63 0.961 . S
C63 C53 1.510 . S
C63 H61 0.959 . S
C63 H62 0.961 . S
C63 H64 0.960 . S
H64 C63 0.960 . S
H65 N45 0.862 . S
O66 Co34 1.920 . S
O66 C39 1.289 . S
C67 O59 1.258 . S
C67 O60 1.266 . S
Co68 O71 1.970 . S
Co68 N85 1.989 . S
Co68 O93 1.967 . S
Co68 O100 1.920 . S
Co69 O72 1.966 . S
Co69 N78 2.022 . S
Co69 N86 1.993 . S
Co69 O94 1.941 . S
C70 O71 1.258 . S
C70 O72 1.263 . S
O71 Co68 1.970 . S
O71 C70 1.258 . S
O72 Co69 1.966 . S
O72 C70 1.263 . S
C73 O74 1.235 . S
C73 O100 1.289 . S
O74 C73 1.235 . S
C75 C77 1.400 . S
C75 N78 1.351 . S
C75 C80 1.501 . S
C76 C77 1.387 . S
C76 N79 1.341 . S
C77 C75 1.400 . S
C77 C76 1.387 . S
N78 Co69 2.022 . S
N78 C75 1.351 . S
N78 N79 1.365 . S
N79 C76 1.341 . S
N79 N78 1.365 . S
N79 H99 0.862 . S
C80 C75 1.501 . S
C80 H81 0.961 . S
C80 H82 0.961 . S
C80 H83 0.960 . S
H81 C80 0.961 . S
H82 C80 0.961 . S
H83 C80 0.960 . S
C84 N85 1.342 . S
C84 C88 1.401 . S
C84 C89 1.499 . S
N85 Co68 1.989 . S
N85 C84 1.342 . S
N85 N86 1.388 . S
N86 Co69 1.993 . S
N86 N85 1.388 . S
N86 C87 1.346 . S
C87 N86 1.346 . S
C87 C88 1.396 . S
C87 C97 1.510 . S
C88 C84 1.401 . S
C88 C87 1.396 . S
C89 C84 1.499 . S
C89 H90 0.959 . S
C89 H91 0.960 . S
C89 H92 0.961 . S
H90 C89 0.959 . S
H91 C89 0.960 . S
H92 C89 0.961 . S
O93 Co68 1.967 . S
O93 C101 1.258 . S
O94 Co69 1.941 . S
O94 C101 1.266 . S
H95 C97 0.959 . S
H96 C97 0.961 . S
C97 C87 1.510 . S
C97 H95 0.959 . S
C97 H96 0.961 . S
C97 H98 0.960 . S
H98 C97 0.960 . S
H99 N79 0.862 . S
O100 Co68 1.920 . S
O100 C73 1.289 . S
C101 O93 1.258 . S
C101 O94 1.266 . S
Co102 O105 1.970 1_545 S
Co102 N119 1.989 . S
Co102 O127 1.967 . S
Co102 O134 1.920 . S
Co103 O106 1.966 1_545 S
Co103 N112 2.022 . S
Co103 N120 1.993 . S
Co103 O128 1.941 . S
C104 O105 1.258 . S
C104 O106 1.263 . S
O105 Co102 1.970 1_565 S
O105 C104 1.258 . S
O106 Co103 1.966 1_565 S
O106 C104 1.263 . S
C107 O108 1.235 1_545 S
C107 O134 1.289 . S
O108 C107 1.235 1_565 S
C109 C111 1.400 . S
C109 N112 1.351 . S
C109 C114 1.501 1_545 S
C110 C111 1.387 . S
C110 N113 1.341 . S
C111 C109 1.400 . S
C111 C110 1.387 . S
N112 Co103 2.022 . S
N112 C109 1.351 . S
N112 N113 1.365 . S
N113 C110 1.341 . S
N113 N112 1.365 . S
N113 H133 0.862 . S
C114 C109 1.501 1_565 S
C114 H115 0.961 . S
C114 H116 0.961 . S
C114 H117 0.960 . S
H115 C114 0.961 . S
H116 C114 0.961 . S
H117 C114 0.960 . S
C118 N119 1.342 . S
C118 C122 1.401 . S
C118 C123 1.499 . S
N119 Co102 1.989 . S
N119 C118 1.342 . S
N119 N120 1.388 . S
N120 Co103 1.993 . S
N120 N119 1.388 . S
N120 C121 1.346 . S
C121 N120 1.346 . S
C121 C122 1.396 . S
C121 C131 1.510 . S
C122 C118 1.401 . S
C122 C121 1.396 . S
C123 C118 1.499 . S
C123 H124 0.959 . S
C123 H125 0.960 . S
C123 H126 0.961 . S
H124 C123 0.959 . S
H125 C123 0.960 . S
H126 C123 0.961 . S
O127 Co102 1.967 . S
O127 C135 1.258 . S
O128 Co103 1.941 . S
O128 C135 1.266 . S
H129 C131 0.959 . S
H130 C131 0.961 . S
C131 C121 1.510 . S
C131 H129 0.959 . S
C131 H130 0.961 . S
C131 H132 0.960 . S
H132 C131 0.960 . S
H133 N113 0.862 . S
O134 Co102 1.920 . S
O134 C107 1.289 . S
C135 O127 1.258 . S
C135 O128 1.266 . S
Co136 O139 1.970 . S
Co136 N153 1.989 . S
Co136 O161 1.967 . S
Co136 O168 1.920 . S
Co137 O140 1.966 . S
Co137 N146 2.022 . S
Co137 N154 1.993 . S
Co137 O162 1.941 . S
C138 O139 1.258 . S
C138 O140 1.263 . S
O139 Co136 1.970 . S
O139 C138 1.258 . S
O140 Co137 1.966 . S
O140 C138 1.263 . S
C141 O142 1.235 . S
C141 O168 1.289 . S
O142 C141 1.235 . S
C143 C145 1.400 . S
C143 N146 1.351 1_554 S
C143 C148 1.501 . S
C144 C145 1.387 . S
C144 N147 1.341 . S
C145 C143 1.400 . S
C145 C144 1.387 . S
N146 Co137 2.022 . S
N146 C143 1.351 1_556 S
N146 N147 1.365 1_556 S
N147 C144 1.341 . S
N147 N146 1.365 1_554 S
N147 H167 0.862 . S
C148 C143 1.501 . S
C148 H149 0.961 1_554 S
C148 H150 0.961 . S
C148 H151 0.960 . S
H149 C148 0.961 1_556 S
H150 C148 0.961 . S
H151 C148 0.960 . S
C152 N153 1.342 . S
C152 C156 1.401 . S
C152 C157 1.499 . S
N153 Co136 1.989 . S
N153 C152 1.342 . S
N153 N154 1.388 . S
N154 Co137 1.993 . S
N154 N153 1.388 . S
N154 C155 1.346 . S
C155 N154 1.346 . S
C155 C156 1.396 . S
C155 C165 1.510 . S
C156 C152 1.401 . S
C156 C155 1.396 . S
C157 C152 1.499 . S
C157 H158 0.959 . S
C157 H159 0.960 . S
C157 H160 0.961 . S
H158 C157 0.959 . S
H159 C157 0.960 . S
H160 C157 0.961 . S
O161 Co136 1.967 . S
O161 C169 1.258 . S
O162 Co137 1.941 . S
O162 C169 1.266 . S
H163 C165 0.950 1_554 S
H164 C165 0.961 1_554 S
C165 C155 1.510 . S
C165 H163 0.950 1_556 S
C165 H164 0.961 1_556 S
C165 H166 0.955 1_556 S
H166 C165 0.955 1_554 S
H167 N147 0.862 . S
O168 Co136 1.920 . S
O168 C141 1.289 . S
C169 O161 1.258 . S
C169 O162 1.266 . S
Co170 O173 1.970 1_565 S
Co170 N187 1.989 . S
Co170 O195 1.967 . S
Co170 O202 1.920 . S
Co171 O174 1.966 1_565 S
Co171 N180 2.022 . S
Co171 N188 1.993 . S
Co171 O196 1.941 . S
C172 O173 1.258 . S
C172 O174 1.263 . S
O173 Co170 1.970 1_545 S
O173 C172 1.258 . S
O174 Co171 1.966 1_545 S
O174 C172 1.263 . S
C175 O176 1.235 1_565 S
C175 O202 1.289 . S
O176 C175 1.235 1_545 S
C177 C179 1.400 . S
C177 N180 1.351 . S
C177 C182 1.501 1_565 S
C178 C179 1.387 . S
C178 N181 1.341 . S
C179 C177 1.400 . S
C179 C178 1.387 . S
N180 Co171 2.022 . S
N180 C177 1.351 . S
N180 N181 1.365 . S
N181 C178 1.341 . S
N181 N180 1.365 . S
N181 H201 0.862 . S
C182 C177 1.501 1_545 S
C182 H183 0.961 . S
C182 H184 0.961 . S
C182 H185 0.960 . S
H183 C182 0.961 . S
H184 C182 0.961 . S
H185 C182 0.960 . S
C186 N187 1.342 . S
C186 C190 1.401 . S
C186 C191 1.499 . S
N187 Co170 1.989 . S
N187 C186 1.342 . S
N187 N188 1.388 . S
N188 Co171 1.993 . S
N188 N187 1.388 . S
N188 C189 1.346 . S
C189 N188 1.346 . S
C189 C190 1.396 . S
C189 C199 1.510 . S
C190 C186 1.401 . S
C190 C189 1.396 . S
C191 C186 1.499 . S
C191 H192 0.959 . S
C191 H193 0.960 . S
C191 H194 0.961 . S
H192 C191 0.959 . S
H193 C191 0.960 . S
H194 C191 0.961 . S
O195 Co170 1.967 . S
O195 C203 1.258 . S
O196 Co171 1.941 . S
O196 C203 1.266 . S
H197 C199 0.959 . S
H198 C199 0.961 . S
C199 C189 1.510 . S
C199 H197 0.959 . S
C199 H198 0.961 . S
C199 H200 0.960 . S
H200 C199 0.960 . S
H201 N181 0.862 . S
O202 Co170 1.920 . S
O202 C175 1.289 . S
C203 O195 1.258 . S
C203 O196 1.266 . S
Co204 O207 1.970 . S
Co204 N221 1.989 . S
Co204 O229 1.967 . S
Co204 O236 1.920 . S
Co205 O208 1.966 . S
Co205 N214 2.022 . S
Co205 N222 1.993 . S
Co205 O230 1.941 . S
C206 O207 1.258 . S
C206 O208 1.263 . S
O207 Co204 1.970 . S
O207 C206 1.258 . S
O208 Co205 1.966 . S
O208 C206 1.263 . S
C209 O210 1.235 . S
C209 O236 1.289 . S
O210 C209 1.235 . S
C211 C213 1.400 . S
C211 N214 1.351 . S
C211 C216 1.501 . S
C212 C213 1.387 . S
C212 N215 1.341 . S
C213 C211 1.400 . S
C213 C212 1.387 . S
N214 Co205 2.022 . S
N214 C211 1.351 . S
N214 N215 1.365 . S
N215 C212 1.341 . S
N215 N214 1.365 . S
N215 H235 0.862 . S
C216 C211 1.501 . S
C216 H217 0.961 . S
C216 H218 0.961 . S
C216 H219 0.960 . S
H217 C216 0.961 . S
H218 C216 0.961 . S
H219 C216 0.960 . S
C220 N221 1.342 . S
C220 C224 1.401 . S
C220 C225 1.499 . S
N221 Co204 1.989 . S
N221 C220 1.342 . S
N221 N222 1.388 . S
N222 Co205 1.993 . S
N222 N221 1.388 . S
N222 C223 1.346 . S
C223 N222 1.346 . S
C223 C224 1.396 . S
C223 C233 1.510 . S
C224 C220 1.401 . S
C224 C223 1.396 . S
C225 C220 1.499 . S
C225 H226 0.959 . S
C225 H227 0.960 . S
C225 H228 0.961 . S
H226 C225 0.959 . S
H227 C225 0.960 . S
H228 C225 0.961 . S
O229 Co204 1.967 . S
O229 C237 1.258 . S
O230 Co205 1.941 . S
O230 C237 1.266 . S
H231 C233 0.959 . S
H232 C233 0.961 . S
C233 C223 1.510 . S
C233 H231 0.959 . S
C233 H232 0.961 . S
C233 H234 0.960 . S
H234 C233 0.960 . S
H235 N215 0.862 . S
O236 Co204 1.920 . S
O236 C209 1.289 . S
C237 O229 1.258 . S
C237 O230 1.266 . S
Co238 O241 1.970 1_545 S
Co238 N255 1.989 . S
Co238 O263 1.967 . S
Co238 O270 1.920 . S
Co239 O242 1.966 1_545 S
Co239 N248 2.022 . S
Co239 N256 1.993 . S
Co239 O264 1.941 . S
C240 O241 1.258 . S
C240 O242 1.263 . S
O241 Co238 1.970 1_565 S
O241 C240 1.258 . S
O242 Co239 1.966 1_565 S
O242 C240 1.263 . S
C243 O244 1.235 1_545 S
C243 O270 1.289 . S
O244 C243 1.235 1_565 S
C245 C247 1.400 . S
C245 N248 1.351 . S
C245 C250 1.501 1_545 S
C246 C247 1.387 . S
C246 N249 1.341 . S
C247 C245 1.400 . S
C247 C246 1.387 . S
N248 Co239 2.022 . S
N248 C245 1.351 . S
N248 N249 1.365 . S
N249 C246 1.341 . S
N249 N248 1.365 . S
N249 H269 0.862 . S
C250 C245 1.501 1_565 S
C250 H251 0.961 . S
C250 H252 0.961 . S
C250 H253 0.960 . S
H251 C250 0.961 . S
H252 C250 0.961 . S
H253 C250 0.960 . S
C254 N255 1.342 . S
C254 C258 1.401 . S
C254 C259 1.499 . S
N255 Co238 1.989 . S
N255 C254 1.342 . S
N255 N256 1.388 . S
N256 Co239 1.993 . S
N256 N255 1.388 . S
N256 C257 1.346 . S
C257 N256 1.346 . S
C257 C258 1.396 . S
C257 C267 1.510 . S
C258 C254 1.401 . S
C258 C257 1.396 . S
C259 C254 1.499 . S
C259 H260 0.959 . S
C259 H261 0.960 . S
C259 H262 0.961 . S
H260 C259 0.959 . S
H261 C259 0.960 . S
H262 C259 0.961 . S
O263 Co238 1.967 . S
O263 C271 1.258 . S
O264 Co239 1.941 . S
O264 C271 1.266 . S
H265 C267 0.959 . S
H266 C267 0.961 . S
C267 C257 1.510 . S
C267 H265 0.959 . S
C267 H266 0.961 . S
C267 H268 0.960 . S
H268 C267 0.960 . S
H269 N249 0.862 . S
O270 Co238 1.920 . S
O270 C243 1.289 . S
C271 O263 1.258 . S
C271 O264 1.266 . S
Co272 O275 1.970 . S
Co272 N289 1.989 . S
Co272 O297 1.967 . S
Co272 O304 1.920 . S
Co273 O276 1.966 . S
Co273 N282 2.022 . S
Co273 N290 1.993 . S
Co273 O298 1.941 . S
C274 O275 1.258 . S
C274 O276 1.263 . S
O275 Co272 1.970 . S
O275 C274 1.258 . S
O276 Co273 1.966 . S
O276 C274 1.263 . S
C277 O278 1.235 . S
C277 O304 1.289 . S
O278 C277 1.235 . S
C279 C281 1.400 . S
C279 N282 1.351 1_554 S
C279 C284 1.501 . S
C280 C281 1.387 . S
C280 N283 1.341 . S
C281 C279 1.400 . S
C281 C280 1.387 . S
N282 Co273 2.022 . S
N282 C279 1.351 1_556 S
N282 N283 1.365 1_556 S
N283 C280 1.341 . S
N283 N282 1.365 1_554 S
N283 H303 0.862 . S
C284 C279 1.501 . S
C284 H285 0.961 1_554 S
C284 H286 0.961 . S
C284 H287 0.960 . S
H285 C284 0.961 1_556 S
H286 C284 0.961 . S
H287 C284 0.960 . S
C288 N289 1.342 . S
C288 C292 1.401 . S
C288 C293 1.499 . S
N289 Co272 1.989 . S
N289 C288 1.342 . S
N289 N290 1.388 . S
N290 Co273 1.993 . S
N290 N289 1.388 . S
N290 C291 1.346 . S
C291 N290 1.346 . S
C291 C292 1.396 . S
C291 C301 1.510 . S
C292 C288 1.401 . S
C292 C291 1.396 . S
C293 C288 1.499 . S
C293 H294 0.959 . S
C293 H295 0.960 . S
C293 H296 0.961 . S
H294 C293 0.959 . S
H295 C293 0.960 . S
H296 C293 0.961 . S
O297 Co272 1.967 . S
O297 C305 1.258 . S
O298 Co273 1.941 . S
O298 C305 1.266 . S
H299 C301 0.950 1_554 S
H300 C301 0.961 1_554 S
C301 C291 1.510 . S
C301 H299 0.950 1_556 S
C301 H300 0.961 1_556 S
C301 H302 0.955 1_556 S
H302 C301 0.955 1_554 S
H303 N283 0.862 . S
O304 Co272 1.920 . S
O304 C277 1.289 . S
C305 O297 1.258 . S
C305 O298 1.266 . S
Co306 O309 1.970 1_545 S
Co306 N323 1.989 . S
Co306 O331 1.967 . S
Co306 O338 1.920 . S
Co307 O310 1.966 1_545 S
Co307 N316 2.022 . S
Co307 N324 1.993 . S
Co307 O332 1.941 . S
C308 O309 1.258 . S
C308 O310 1.263 . S
O309 Co306 1.970 1_565 S
O309 C308 1.258 . S
O310 Co307 1.966 1_565 S
O310 C308 1.263 . S
C311 O312 1.235 1_545 S
C311 O338 1.289 . S
O312 C311 1.235 1_565 S
C313 C315 1.400 . S
C313 N316 1.351 . S
C313 C318 1.501 1_545 S
C314 C315 1.387 . S
C314 N317 1.341 . S
C315 C313 1.400 . S
C315 C314 1.387 . S
N316 Co307 2.022 . S
N316 C313 1.351 . S
N316 N317 1.365 . S
N317 C314 1.341 . S
N317 N316 1.365 . S
N317 H337 0.862 . S
C318 C313 1.501 1_565 S
C318 H319 0.961 . S
C318 H320 0.961 . S
C318 H321 0.960 . S
H319 C318 0.961 . S
H320 C318 0.961 . S
H321 C318 0.960 . S
C322 N323 1.342 . S
C322 C326 1.401 . S
C322 C327 1.499 . S
N323 Co306 1.989 . S
N323 C322 1.342 . S
N323 N324 1.388 . S
N324 Co307 1.993 . S
N324 N323 1.388 . S
N324 C325 1.346 . S
C325 N324 1.346 . S
C325 C326 1.396 . S
C325 C335 1.510 . S
C326 C322 1.401 . S
C326 C325 1.396 . S
C327 C322 1.499 . S
C327 H328 0.959 . S
C327 H329 0.960 . S
C327 H330 0.961 . S
H328 C327 0.959 . S
H329 C327 0.960 . S
H330 C327 0.961 . S
O331 Co306 1.967 . S
O331 C339 1.258 . S
O332 Co307 1.941 . S
O332 C339 1.266 . S
H333 C335 0.959 . S
H334 C335 0.961 . S
C335 C325 1.510 . S
C335 H333 0.959 . S
C335 H334 0.961 . S
C335 H336 0.960 . S
H336 C335 0.960 . S
H337 N317 0.862 . S
O338 Co306 1.920 . S
O338 C311 1.289 . S
C339 O331 1.258 . S
C339 O332 1.266 . S
Co340 O343 1.970 . S
Co340 N357 1.989 . S
Co340 O365 1.967 . S
Co340 O372 1.920 . S
Co341 O344 1.966 . S
Co341 N350 2.022 . S
Co341 N358 1.993 . S
Co341 O366 1.941 . S
C342 O343 1.258 . S
C342 O344 1.263 . S
O343 Co340 1.970 . S
O343 C342 1.258 . S
O344 Co341 1.966 . S
O344 C342 1.263 . S
C345 O346 1.235 . S
C345 O372 1.289 . S
O346 C345 1.235 . S
C347 C349 1.400 . S
C347 N350 1.351 . S
C347 C352 1.501 . S
C348 C349 1.387 . S
C348 N351 1.341 . S
C349 C347 1.400 . S
C349 C348 1.387 . S
N350 Co341 2.022 . S
N350 C347 1.351 . S
N350 N351 1.365 . S
N351 C348 1.341 . S
N351 N350 1.365 . S
N351 H371 0.862 . S
C352 C347 1.501 . S
C352 H353 0.961 . S
C352 H354 0.961 . S
C352 H355 0.960 . S
H353 C352 0.961 . S
H354 C352 0.961 . S
H355 C352 0.960 . S
C356 N357 1.342 . S
C356 C360 1.401 . S
C356 C361 1.499 . S
N357 Co340 1.989 . S
N357 C356 1.342 . S
N357 N358 1.388 . S
N358 Co341 1.993 . S
N358 N357 1.388 . S
N358 C359 1.346 . S
C359 N358 1.346 . S
C359 C360 1.396 . S
C359 C369 1.510 . S
C360 C356 1.401 . S
C360 C359 1.396 . S
C361 C356 1.499 . S
C361 H362 0.959 . S
C361 H363 0.960 . S
C361 H364 0.961 . S
H362 C361 0.959 . S
H363 C361 0.960 . S
H364 C361 0.961 . S
O365 Co340 1.967 . S
O365 C373 1.258 . S
O366 Co341 1.941 . S
O366 C373 1.266 . S
H367 C369 0.959 . S
H368 C369 0.961 . S
C369 C359 1.510 . S
C369 H367 0.959 . S
C369 H368 0.961 . S
C369 H370 0.960 . S
H370 C369 0.960 . S
H371 N351 0.862 . S
O372 Co340 1.920 . S
O372 C345 1.289 . S
C373 O365 1.258 . S
C373 O366 1.266 . S
Co374 O377 1.970 1_565 S
Co374 N391 1.989 . S
Co374 O399 1.967 . S
Co374 O406 1.920 . S
Co375 O378 1.966 1_565 S
Co375 N384 2.022 . S
Co375 N392 1.993 . S
Co375 O400 1.941 . S
C376 O377 1.258 . S
C376 O378 1.263 . S
O377 Co374 1.970 1_545 S
O377 C376 1.258 . S
O378 Co375 1.966 1_545 S
O378 C376 1.263 . S
C379 O380 1.235 1_565 S
C379 O406 1.289 . S
O380 C379 1.235 1_545 S
C381 C383 1.400 . S
C381 N384 1.351 . S
C381 C386 1.501 1_565 S
C382 C383 1.387 . S
C382 N385 1.341 . S
C383 C381 1.400 . S
C383 C382 1.387 . S
N384 Co375 2.022 . S
N384 C381 1.351 . S
N384 N385 1.365 . S
N385 C382 1.341 . S
N385 N384 1.365 . S
N385 H405 0.862 . S
C386 C381 1.501 1_545 S
C386 H387 0.961 . S
C386 H388 0.961 . S
C386 H389 0.960 . S
H387 C386 0.961 . S
H388 C386 0.961 . S
H389 C386 0.960 . S
C390 N391 1.342 . S
C390 C394 1.401 . S
C390 C395 1.499 . S
N391 Co374 1.989 . S
N391 C390 1.342 . S
N391 N392 1.388 . S
N392 Co375 1.993 . S
N392 N391 1.388 . S
N392 C393 1.346 . S
C393 N392 1.346 . S
C393 C394 1.396 . S
C393 C403 1.510 . S
C394 C390 1.401 . S
C394 C393 1.396 . S
C395 C390 1.499 . S
C395 H396 0.959 . S
C395 H397 0.960 . S
C395 H398 0.961 . S
H396 C395 0.959 . S
H397 C395 0.960 . S
H398 C395 0.961 . S
O399 Co374 1.967 . S
O399 C407 1.258 . S
O400 Co375 1.941 . S
O400 C407 1.266 . S
H401 C403 0.959 . S
H402 C403 0.961 . S
C403 C393 1.510 . S
C403 H401 0.959 . S
C403 H402 0.961 . S
C403 H404 0.960 . S
H404 C403 0.960 . S
H405 N385 0.862 . S
O406 Co374 1.920 . S
O406 C379 1.289 . S
C407 O399 1.258 . S
C407 O400 1.266 . S
Co408 O411 1.970 . S
Co408 N425 1.989 . S
Co408 O433 1.967 . S
Co408 O440 1.920 . S
Co409 O412 1.966 . S
Co409 N418 2.022 . S
Co409 N426 1.993 . S
Co409 O434 1.941 . S
C410 O411 1.258 . S
C410 O412 1.263 . S
O411 Co408 1.970 . S
O411 C410 1.258 . S
O412 Co409 1.966 . S
O412 C410 1.263 . S
C413 O414 1.235 . S
C413 O440 1.289 . S
O414 C413 1.235 . S
C415 C417 1.400 . S
C415 N418 1.351 1_556 S
C415 C420 1.501 . S
C416 C417 1.387 . S
C416 N419 1.341 . S
C417 C415 1.400 . S
C417 C416 1.387 . S
N418 Co409 2.022 . S
N418 C415 1.351 1_554 S
N418 N419 1.365 1_554 S
N419 C416 1.341 . S
N419 N418 1.365 1_556 S
N419 H439 0.862 . S
C420 C415 1.501 . S
C420 H421 0.961 1_556 S
C420 H422 0.961 . S
C420 H423 0.960 . S
H421 C420 0.961 1_554 S
H422 C420 0.961 . S
H423 C420 0.960 . S
C424 N425 1.342 . S
C424 C428 1.401 . S
C424 C429 1.499 . S
N425 Co408 1.989 . S
N425 C424 1.342 . S
N425 N426 1.388 . S
N426 Co409 1.993 . S
N426 N425 1.388 . S
N426 C427 1.346 . S
C427 N426 1.346 . S
C427 C428 1.396 . S
C427 C437 1.510 . S
C428 C424 1.401 . S
C428 C427 1.396 . S
C429 C424 1.499 . S
C429 H430 0.959 . S
C429 H431 0.960 . S
C429 H432 0.961 . S
H430 C429 0.959 . S
H431 C429 0.960 . S
H432 C429 0.961 . S
O433 Co408 1.967 . S
O433 C441 1.258 . S
O434 Co409 1.941 . S
O434 C441 1.266 . S
H435 C437 0.950 1_556 S
H436 C437 0.961 1_556 S
C437 C427 1.510 . S
C437 H435 0.950 1_554 S
C437 H436 0.961 1_554 S
C437 H438 0.955 1_554 S
H438 C437 0.955 1_556 S
H439 N419 0.862 . S
O440 Co408 1.920 . S
O440 C413 1.289 . S
C441 O433 1.258 . S
C441 O434 1.266 . S
Co442 O445 1.970 1_545 S
Co442 N459 1.989 . S
Co442 O467 1.967 . S
Co442 O474 1.920 . S
Co443 O446 1.966 1_545 S
Co443 N452 2.022 . S
Co443 N460 1.993 . S
Co443 O468 1.941 . S
C444 O445 1.258 . S
C444 O446 1.263 . S
O445 Co442 1.970 1_565 S
O445 C444 1.258 . S
O446 Co443 1.966 1_565 S
O446 C444 1.263 . S
C447 O448 1.235 1_545 S
C447 O474 1.289 . S
O448 C447 1.235 1_565 S
C449 C451 1.400 . S
C449 N452 1.351 . S
C449 C454 1.501 1_545 S
C450 C451 1.387 . S
C450 N453 1.341 . S
C451 C449 1.400 . S
C451 C450 1.387 . S
N452 Co443 2.022 . S
N452 C449 1.351 . S
N452 N453 1.365 . S
N453 C450 1.341 . S
N453 N452 1.365 . S
N453 H473 0.862 . S
C454 C449 1.501 1_565 S
C454 H455 0.961 . S
C454 H456 0.961 . S
C454 H457 0.960 . S
H455 C454 0.961 . S
H456 C454 0.961 . S
H457 C454 0.960 . S
C458 N459 1.342 . S
C458 C462 1.401 . S
C458 C463 1.499 . S
N459 Co442 1.989 . S
N459 C458 1.342 . S
N459 N460 1.388 . S
N460 Co443 1.993 . S
N460 N459 1.388 . S
N460 C461 1.346 . S
C461 N460 1.346 . S
C461 C462 1.396 . S
C461 C471 1.510 . S
C462 C458 1.401 . S
C462 C461 1.396 . S
C463 C458 1.499 . S
C463 H464 0.959 . S
C463 H465 0.960 . S
C463 H466 0.961 . S
H464 C463 0.959 . S
H465 C463 0.960 . S
H466 C463 0.961 . S
O467 Co442 1.967 . S
O467 C475 1.258 . S
O468 Co443 1.941 . S
O468 C475 1.266 . S
H469 C471 0.959 . S
H470 C471 0.961 . S
C471 C461 1.510 . S
C471 H469 0.959 . S
C471 H470 0.961 . S
C471 H472 0.960 . S
H472 C471 0.960 . S
H473 N453 0.862 . S
O474 Co442 1.920 . S
O474 C447 1.289 . S
C475 O467 1.258 . S
C475 O468 1.266 . S
Co476 O479 1.970 . S
Co476 N493 1.989 . S
Co476 O501 1.967 . S
Co476 O508 1.920 . S
Co477 O480 1.966 . S
Co477 N486 2.022 . S
Co477 N494 1.993 . S
Co477 O502 1.941 . S
C478 O479 1.258 . S
C478 O480 1.263 . S
O479 Co476 1.970 . S
O479 C478 1.258 . S
O480 Co477 1.966 . S
O480 C478 1.263 . S
C481 O482 1.235 . S
C481 O508 1.289 . S
O482 C481 1.235 . S
C483 C485 1.400 . S
C483 N486 1.351 . S
C483 C488 1.501 . S
C484 C485 1.387 . S
C484 N487 1.341 . S
C485 C483 1.400 . S
C485 C484 1.387 . S
N486 Co477 2.022 . S
N486 C483 1.351 . S
N486 N487 1.365 . S
N487 C484 1.341 . S
N487 N486 1.365 . S
N487 H507 0.862 . S
C488 C483 1.501 . S
C488 H489 0.961 . S
C488 H490 0.961 . S
C488 H491 0.960 . S
H489 C488 0.961 . S
H490 C488 0.961 . S
H491 C488 0.960 . S
C492 N493 1.342 . S
C492 C496 1.401 . S
C492 C497 1.499 . S
N493 Co476 1.989 . S
N493 C492 1.342 . S
N493 N494 1.388 . S
N494 Co477 1.993 . S
N494 N493 1.388 . S
N494 C495 1.346 . S
C495 N494 1.346 . S
C495 C496 1.396 . S
C495 C505 1.510 . S
C496 C492 1.401 . S
C496 C495 1.396 . S
C497 C492 1.499 . S
C497 H498 0.959 . S
C497 H499 0.960 . S
C497 H500 0.961 . S
H498 C497 0.959 . S
H499 C497 0.960 . S
H500 C497 0.961 . S
O501 Co476 1.967 . S
O501 C509 1.258 . S
O502 Co477 1.941 . S
O502 C509 1.266 . S
H503 C505 0.959 . S
H504 C505 0.961 . S
C505 C495 1.510 . S
C505 H503 0.959 . S
C505 H504 0.961 . S
C505 H506 0.960 . S
H506 C505 0.960 . S
H507 N487 0.862 . S
O508 Co476 1.920 . S
O508 C481 1.289 . S
C509 O501 1.258 . S
C509 O502 1.266 . S
Co510 O513 1.970 1_565 S
Co510 N527 1.989 . S
Co510 O535 1.967 . S
Co510 O542 1.920 . S
Co511 O514 1.966 1_565 S
Co511 N520 2.022 . S
Co511 N528 1.993 . S
Co511 O536 1.941 . S
C512 O513 1.258 . S
C512 O514 1.263 . S
O513 Co510 1.970 1_545 S
O513 C512 1.258 . S
O514 Co511 1.966 1_545 S
O514 C512 1.263 . S
C515 O516 1.235 1_565 S
C515 O542 1.289 . S
O516 C515 1.235 1_545 S
C517 C519 1.400 . S
C517 N520 1.351 . S
C517 C522 1.501 1_565 S
C518 C519 1.387 . S
C518 N521 1.341 . S
C519 C517 1.400 . S
C519 C518 1.387 . S
N520 Co511 2.022 . S
N520 C517 1.351 . S
N520 N521 1.365 . S
N521 C518 1.341 . S
N521 N520 1.365 . S
N521 H541 0.862 . S
C522 C517 1.501 1_545 S
C522 H523 0.961 . S
C522 H524 0.961 . S
C522 H525 0.960 . S
H523 C522 0.961 . S
H524 C522 0.961 . S
H525 C522 0.960 . S
C526 N527 1.342 . S
C526 C530 1.401 . S
C526 C531 1.499 . S
N527 Co510 1.989 . S
N527 C526 1.342 . S
N527 N528 1.388 . S
N528 Co511 1.993 . S
N528 N527 1.388 . S
N528 C529 1.346 . S
C529 N528 1.346 . S
C529 C530 1.396 . S
C529 C539 1.510 . S
C530 C526 1.401 . S
C530 C529 1.396 . S
C531 C526 1.499 . S
C531 H532 0.959 . S
C531 H533 0.960 . S
C531 H534 0.961 . S
H532 C531 0.959 . S
H533 C531 0.960 . S
H534 C531 0.961 . S
O535 Co510 1.967 . S
O535 C543 1.258 . S
O536 Co511 1.941 . S
O536 C543 1.266 . S
H537 C539 0.959 . S
H538 C539 0.961 . S
C539 C529 1.510 . S
C539 H537 0.959 . S
C539 H538 0.961 . S
C539 H540 0.960 . S
H540 C539 0.960 . S
H541 N521 0.862 . S
O542 Co510 1.920 . S
O542 C515 1.289 . S
C543 O535 1.258 . S
C543 O536 1.266 . S
Co544 O547 1.970 . S
Co544 N561 1.989 . S
Co544 O569 1.967 . S
Co544 O576 1.920 . S
Co545 O548 1.966 . S
Co545 N554 2.022 . S
Co545 N562 1.993 . S
Co545 O570 1.941 . S
C546 O547 1.258 . S
C546 O548 1.263 . S
O547 Co544 1.970 . S
O547 C546 1.258 . S
O548 Co545 1.966 . S
O548 C546 1.263 . S
C549 O550 1.235 . S
C549 O576 1.289 . S
O550 C549 1.235 . S
C551 C553 1.400 . S
C551 N554 1.351 . S
C551 C556 1.501 . S
C552 C553 1.387 . S
C552 N555 1.341 . S
C553 C551 1.400 . S
C553 C552 1.387 . S
N554 Co545 2.022 . S
N554 C551 1.351 . S
N554 N555 1.365 . S
N555 C552 1.341 . S
N555 N554 1.365 . S
N555 H575 0.862 . S
C556 C551 1.501 . S
C556 H557 0.961 . S
C556 H558 0.961 . S
C556 H559 0.960 . S
H557 C556 0.961 . S
H558 C556 0.961 . S
H559 C556 0.960 . S
C560 N561 1.342 . S
C560 C564 1.401 . S
C560 C565 1.499 . S
N561 Co544 1.989 . S
N561 C560 1.342 . S
N561 N562 1.388 . S
N562 Co545 1.993 . S
N562 N561 1.388 . S
N562 C563 1.346 . S
C563 N562 1.346 . S
C563 C564 1.396 . S
C563 C573 1.510 . S
C564 C560 1.401 . S
C564 C563 1.396 . S
C565 C560 1.499 . S
C565 H566 0.959 . S
C565 H567 0.960 . S
C565 H568 0.961 . S
H566 C565 0.959 . S
H567 C565 0.960 . S
H568 C565 0.961 . S
O569 Co544 1.967 . S
O569 C577 1.258 . S
O570 Co545 1.941 . S
O570 C577 1.266 . S
H571 C573 0.959 . S
H572 C573 0.961 . S
C573 C563 1.510 . S
C573 H571 0.959 . S
C573 H572 0.961 . S
C573 H574 0.960 . S
H574 C573 0.960 . S
H575 N555 0.862 . S
O576 Co544 1.920 . S
O576 C549 1.289 . S
C577 O569 1.258 . S
C577 O570 1.266 . S
Co578 O581 1.970 . S
Co578 N595 1.989 . S
Co578 O603 1.967 . S
Co578 O610 1.920 . S
Co579 O582 1.966 . S
Co579 N588 2.022 . S
Co579 N596 1.993 . S
Co579 O604 1.941 . S
C580 O581 1.258 . S
C580 O582 1.263 . S
O581 Co578 1.970 . S
O581 C580 1.258 . S
O582 Co579 1.966 . S
O582 C580 1.263 . S
C583 O584 1.235 . S
C583 O610 1.289 . S
O584 C583 1.235 . S
C585 C587 1.400 . S
C585 N588 1.351 . S
C585 C590 1.501 . S
C586 C587 1.387 . S
C586 N589 1.341 . S
C587 C585 1.400 . S
C587 C586 1.387 . S
N588 Co579 2.022 . S
N588 C585 1.351 . S
N588 N589 1.365 . S
N589 C586 1.341 . S
N589 N588 1.365 . S
N589 H609 0.862 . S
C590 C585 1.501 . S
C590 H591 0.961 . S
C590 H592 0.961 . S
C590 H593 0.960 . S
H591 C590 0.961 . S
H592 C590 0.961 . S
H593 C590 0.960 . S
C594 N595 1.342 . S
C594 C598 1.401 . S
C594 C599 1.499 . S
N595 Co578 1.989 . S
N595 C594 1.342 . S
N595 N596 1.388 . S
N596 Co579 1.993 . S
N596 N595 1.388 . S
N596 C597 1.346 . S
C597 N596 1.346 . S
C597 C598 1.396 . S
C597 C607 1.510 . S
C598 C594 1.401 . S
C598 C597 1.396 . S
C599 C594 1.499 . S
C599 H600 0.959 . S
C599 H601 0.960 . S
C599 H602 0.961 . S
H600 C599 0.959 . S
H601 C599 0.960 . S
H602 C599 0.961 . S
O603 Co578 1.967 . S
O603 C611 1.258 . S
O604 Co579 1.941 . S
O604 C611 1.266 . S
H605 C607 0.959 . S
H606 C607 0.961 . S
C607 C597 1.510 . S
C607 H605 0.959 . S
C607 H606 0.961 . S
C607 H608 0.960 . S
H608 C607 0.960 . S
H609 N589 0.862 . S
O610 Co578 1.920 . S
O610 C583 1.289 . S
C611 O603 1.258 . S
C611 O604 1.266 . S
Co612 O615 1.970 . S
Co612 N629 1.989 . S
Co612 O637 1.967 . S
Co612 O644 1.920 . S
Co613 O616 1.966 . S
Co613 N622 2.022 . S
Co613 N630 1.993 . S
Co613 O638 1.941 . S
C614 O615 1.258 . S
C614 O616 1.263 . S
O615 Co612 1.970 . S
O615 C614 1.258 . S
O616 Co613 1.966 . S
O616 C614 1.263 . S
C617 O618 1.235 . S
C617 O644 1.289 . S
O618 C617 1.235 . S
C619 C621 1.400 . S
C619 N622 1.351 1_556 S
C619 C624 1.501 . S
C620 C621 1.387 . S
C620 N623 1.341 . S
C621 C619 1.400 . S
C621 C620 1.387 . S
N622 Co613 2.022 . S
N622 C619 1.351 1_554 S
N622 N623 1.365 1_554 S
N623 C620 1.341 . S
N623 N622 1.365 1_556 S
N623 H643 0.862 . S
C624 C619 1.501 . S
C624 H625 0.961 1_556 S
C624 H626 0.961 . S
C624 H627 0.960 . S
H625 C624 0.961 1_554 S
H626 C624 0.961 . S
H627 C624 0.960 . S
C628 N629 1.342 . S
C628 C632 1.401 . S
C628 C633 1.499 . S
N629 Co612 1.989 . S
N629 C628 1.342 . S
N629 N630 1.388 . S
N630 Co613 1.993 . S
N630 N629 1.388 . S
N630 C631 1.346 . S
C631 N630 1.346 . S
C631 C632 1.396 . S
C631 C641 1.510 . S
C632 C628 1.401 . S
C632 C631 1.396 . S
C633 C628 1.499 . S
C633 H634 0.959 . S
C633 H635 0.960 . S
C633 H636 0.961 . S
H634 C633 0.959 . S
H635 C633 0.960 . S
H636 C633 0.961 . S
O637 Co612 1.967 . S
O637 C645 1.258 . S
O638 Co613 1.941 . S
O638 C645 1.266 . S
H639 C641 0.950 1_556 S
H640 C641 0.961 1_556 S
C641 C631 1.510 . S
C641 H639 0.950 1_554 S
C641 H640 0.961 1_554 S
C641 H642 0.955 1_554 S
H642 C641 0.955 1_556 S
H643 N623 0.862 . S
O644 Co612 1.920 . S
O644 C617 1.289 . S
C645 O637 1.258 . S
C645 O638 1.266 . S
Co646 O649 1.970 . S
Co646 N663 1.989 . S
Co646 O671 1.967 . S
Co646 O678 1.920 . S
Co647 O650 1.966 . S
Co647 N656 2.022 . S
Co647 N664 1.993 . S
Co647 O672 1.941 . S
C648 O649 1.258 . S
C648 O650 1.263 . S
O649 Co646 1.970 . S
O649 C648 1.258 . S
O650 Co647 1.966 . S
O650 C648 1.263 . S
C651 O652 1.235 . S
C651 O678 1.289 . S
O652 C651 1.235 . S
C653 C655 1.400 . S
C653 N656 1.351 . S
C653 C658 1.501 . S
C654 C655 1.387 . S
C654 N657 1.341 . S
C655 C653 1.400 . S
C655 C654 1.387 . S
N656 Co647 2.022 . S
N656 C653 1.351 . S
N656 N657 1.365 . S
N657 C654 1.341 . S
N657 N656 1.365 . S
N657 H677 0.862 . S
C658 C653 1.501 . S
C658 H659 0.961 . S
C658 H660 0.961 . S
C658 H661 0.960 . S
H659 C658 0.961 . S
H660 C658 0.961 . S
H661 C658 0.960 . S
C662 N663 1.342 . S
C662 C666 1.401 . S
C662 C667 1.499 . S
N663 Co646 1.989 . S
N663 C662 1.342 . S
N663 N664 1.388 . S
N664 Co647 1.993 . S
N664 N663 1.388 . S
N664 C665 1.346 . S
C665 N664 1.346 . S
C665 C666 1.396 . S
C665 C675 1.510 . S
C666 C662 1.401 . S
C666 C665 1.396 . S
C667 C662 1.499 . S
C667 H668 0.959 . S
C667 H669 0.960 . S
C667 H670 0.961 . S
H668 C667 0.959 . S
H669 C667 0.960 . S
H670 C667 0.961 . S
O671 Co646 1.967 . S
O671 C679 1.258 . S
O672 Co647 1.941 . S
O672 C679 1.266 . S
H673 C675 0.959 . S
H674 C675 0.961 . S
C675 C665 1.510 . S
C675 H673 0.959 . S
C675 H674 0.961 . S
C675 H676 0.960 . S
H676 C675 0.960 . S
H677 N657 0.862 . S
O678 Co646 1.920 . S
O678 C651 1.289 . S
C679 O671 1.258 . S
C679 O672 1.266 . S
Co680 O683 1.970 . S
Co680 N697 1.989 . S
Co680 O705 1.967 . S
Co680 O712 1.920 . S
Co681 O684 1.966 . S
Co681 N690 2.022 . S
Co681 N698 1.993 . S
Co681 O706 1.941 . S
C682 O683 1.258 . S
C682 O684 1.263 . S
O683 Co680 1.970 . S
O683 C682 1.258 . S
O684 Co681 1.966 . S
O684 C682 1.263 . S
C685 O686 1.235 . S
C685 O712 1.289 . S
O686 C685 1.235 . S
C687 C689 1.400 . S
C687 N690 1.351 . S
C687 C692 1.501 . S
C688 C689 1.387 . S
C688 N691 1.341 . S
C689 C687 1.400 . S
C689 C688 1.387 . S
N690 Co681 2.022 . S
N690 C687 1.351 . S
N690 N691 1.365 . S
N691 C688 1.341 . S
N691 N690 1.365 . S
N691 H711 0.862 . S
C692 C687 1.501 . S
C692 H693 0.961 . S
C692 H694 0.961 . S
C692 H695 0.960 . S
H693 C692 0.961 . S
H694 C692 0.961 . S
H695 C692 0.960 . S
C696 N697 1.342 . S
C696 C700 1.401 . S
C696 C701 1.499 . S
N697 Co680 1.989 . S
N697 C696 1.342 . S
N697 N698 1.388 . S
N698 Co681 1.993 . S
N698 N697 1.388 . S
N698 C699 1.346 . S
C699 N698 1.346 . S
C699 C700 1.396 . S
C699 C709 1.510 . S
C700 C696 1.401 . S
C700 C699 1.396 . S
C701 C696 1.499 . S
C701 H702 0.959 . S
C701 H703 0.960 . S
C701 H704 0.961 . S
H702 C701 0.959 . S
H703 C701 0.960 . S
H704 C701 0.961 . S
O705 Co680 1.967 . S
O705 C713 1.258 . S
O706 Co681 1.941 . S
O706 C713 1.266 . S
H707 C709 0.959 . S
H708 C709 0.961 . S
C709 C699 1.510 . S
C709 H707 0.959 . S
C709 H708 0.961 . S
C709 H710 0.960 . S
H710 C709 0.960 . S
H711 N691 0.862 . S
O712 Co680 1.920 . S
O712 C685 1.289 . S
C713 O705 1.258 . S
C713 O706 1.266 . S
Co714 O717 1.970 . S
Co714 N731 1.989 . S
Co714 O739 1.967 . S
Co714 O746 1.920 . S
Co715 O718 1.966 . S
Co715 N724 2.022 . S
Co715 N732 1.993 . S
Co715 O740 1.941 . S
C716 O717 1.258 . S
C716 O718 1.263 . S
O717 Co714 1.970 . S
O717 C716 1.258 . S
O718 Co715 1.966 . S
O718 C716 1.263 . S
C719 O720 1.235 . S
C719 O746 1.289 . S
O720 C719 1.235 . S
C721 C723 1.400 . S
C721 N724 1.351 . S
C721 C726 1.501 . S
C722 C723 1.387 . S
C722 N725 1.341 . S
C723 C721 1.400 . S
C723 C722 1.387 . S
N724 Co715 2.022 . S
N724 C721 1.351 . S
N724 N725 1.365 . S
N725 C722 1.341 . S
N725 N724 1.365 . S
N725 H745 0.862 . S
C726 C721 1.501 . S
C726 H727 0.961 . S
C726 H728 0.961 . S
C726 H729 0.960 . S
H727 C726 0.961 . S
H728 C726 0.961 . S
H729 C726 0.960 . S
C730 N731 1.342 . S
C730 C734 1.401 . S
C730 C735 1.499 . S
N731 Co714 1.989 . S
N731 C730 1.342 . S
N731 N732 1.388 . S
N732 Co715 1.993 . S
N732 N731 1.388 . S
N732 C733 1.346 . S
C733 N732 1.346 . S
C733 C734 1.396 . S
C733 C743 1.510 . S
C734 C730 1.401 . S
C734 C733 1.396 . S
C735 C730 1.499 . S
C735 H736 0.959 . S
C735 H737 0.960 . S
C735 H738 0.961 . S
H736 C735 0.959 . S
H737 C735 0.960 . S
H738 C735 0.961 . S
O739 Co714 1.967 . S
O739 C747 1.258 . S
O740 Co715 1.941 . S
O740 C747 1.266 . S
H741 C743 0.959 . S
H742 C743 0.961 . S
C743 C733 1.510 . S
C743 H741 0.959 . S
C743 H742 0.961 . S
C743 H744 0.960 . S
H744 C743 0.960 . S
H745 N725 0.862 . S
O746 Co714 1.920 . S
O746 C719 1.289 . S
C747 O739 1.258 . S
C747 O740 1.266 . S
Co748 O751 1.970 . S
Co748 N765 1.989 . S
Co748 O773 1.967 . S
Co748 O780 1.920 . S
Co749 O752 1.966 . S
Co749 N758 2.022 . S
Co749 N766 1.993 . S
Co749 O774 1.941 . S
C750 O751 1.258 . S
C750 O752 1.263 . S
O751 Co748 1.970 . S
O751 C750 1.258 . S
O752 Co749 1.966 . S
O752 C750 1.263 . S
C753 O754 1.235 . S
C753 O780 1.289 . S
O754 C753 1.235 . S
C755 C757 1.400 . S
C755 N758 1.351 1_554 S
C755 C760 1.501 . S
C756 C757 1.387 . S
C756 N759 1.341 . S
C757 C755 1.400 . S
C757 C756 1.387 . S
N758 Co749 2.022 . S
N758 C755 1.351 1_556 S
N758 N759 1.365 1_556 S
N759 C756 1.341 . S
N759 N758 1.365 1_554 S
N759 H779 0.862 . S
C760 C755 1.501 . S
C760 H761 0.961 1_554 S
C760 H762 0.961 . S
C760 H763 0.960 . S
H761 C760 0.961 1_556 S
H762 C760 0.961 . S
H763 C760 0.960 . S
C764 N765 1.342 . S
C764 C768 1.401 . S
C764 C769 1.499 . S
N765 Co748 1.989 . S
N765 C764 1.342 . S
N765 N766 1.388 . S
N766 Co749 1.993 . S
N766 N765 1.388 . S
N766 C767 1.346 . S
C767 N766 1.346 . S
C767 C768 1.396 . S
C767 C777 1.510 . S
C768 C764 1.401 . S
C768 C767 1.396 . S
C769 C764 1.499 . S
C769 H770 0.959 . S
C769 H771 0.960 . S
C769 H772 0.961 . S
H770 C769 0.959 . S
H771 C769 0.960 . S
H772 C769 0.961 . S
O773 Co748 1.967 . S
O773 C781 1.258 . S
O774 Co749 1.941 . S
O774 C781 1.266 . S
H775 C777 0.950 1_554 S
H776 C777 0.961 1_554 S
C777 C767 1.510 . S
C777 H775 0.950 1_556 S
C777 H776 0.961 1_556 S
C777 H778 0.955 1_556 S
H778 C777 0.955 1_554 S
H779 N759 0.862 . S
O780 Co748 1.920 . S
O780 C753 1.289 . S
C781 O773 1.258 . S
C781 O774 1.266 . S
Co782 O785 1.970 . S
Co782 N799 1.989 . S
Co782 O807 1.967 . S
Co782 O814 1.920 . S
Co783 O786 1.966 . S
Co783 N792 2.022 . S
Co783 N800 1.993 . S
Co783 O808 1.941 . S
C784 O785 1.258 . S
C784 O786 1.263 . S
O785 Co782 1.970 . S
O785 C784 1.258 . S
O786 Co783 1.966 . S
O786 C784 1.263 . S
C787 O788 1.235 . S
C787 O814 1.289 . S
O788 C787 1.235 . S
C789 C791 1.400 . S
C789 N792 1.351 . S
C789 C794 1.501 . S
C790 C791 1.387 . S
C790 N793 1.341 . S
C791 C789 1.400 . S
C791 C790 1.387 . S
N792 Co783 2.022 . S
N792 C789 1.351 . S
N792 N793 1.365 . S
N793 C790 1.341 . S
N793 N792 1.365 . S
N793 H813 0.862 . S
C794 C789 1.501 . S
C794 H795 0.961 . S
C794 H796 0.961 . S
C794 H797 0.960 . S
H795 C794 0.961 . S
H796 C794 0.961 . S
H797 C794 0.960 . S
C798 N799 1.342 . S
C798 C802 1.401 . S
C798 C803 1.499 . S
N799 Co782 1.989 . S
N799 C798 1.342 . S
N799 N800 1.388 . S
N800 Co783 1.993 . S
N800 N799 1.388 . S
N800 C801 1.346 . S
C801 N800 1.346 . S
C801 C802 1.396 . S
C801 C811 1.510 . S
C802 C798 1.401 . S
C802 C801 1.396 . S
C803 C798 1.499 . S
C803 H804 0.959 . S
C803 H805 0.960 . S
C803 H806 0.961 . S
H804 C803 0.959 . S
H805 C803 0.960 . S
H806 C803 0.961 . S
O807 Co782 1.967 . S
O807 C815 1.258 . S
O808 Co783 1.941 . S
O808 C815 1.266 . S
H809 C811 0.959 . S
H810 C811 0.961 . S
C811 C801 1.510 . S
C811 H809 0.959 . S
C811 H810 0.961 . S
C811 H812 0.960 . S
H812 C811 0.960 . S
H813 N793 0.862 . S
O814 Co782 1.920 . S
O814 C787 1.289 . S
C815 O807 1.258 . S
C815 O808 1.266 . S
Co816 O819 1.970 . S
Co816 N833 1.989 . S
Co816 O841 1.967 . S
Co816 O848 1.920 . S
Co817 O820 1.966 . S
Co817 N826 2.022 . S
Co817 N834 1.993 . S
Co817 O842 1.941 . S
C818 O819 1.258 . S
C818 O820 1.263 . S
O819 Co816 1.970 . S
O819 C818 1.258 . S
O820 Co817 1.966 . S
O820 C818 1.263 . S
C821 O822 1.235 . S
C821 O848 1.289 . S
O822 C821 1.235 . S
C823 C825 1.400 . S
C823 N826 1.351 . S
C823 C828 1.501 . S
C824 C825 1.387 . S
C824 N827 1.341 . S
C825 C823 1.400 . S
C825 C824 1.387 . S
N826 Co817 2.022 . S
N826 C823 1.351 . S
N826 N827 1.365 . S
N827 C824 1.341 . S
N827 N826 1.365 . S
N827 H847 0.862 . S
C828 C823 1.501 . S
C828 H829 0.961 . S
C828 H830 0.961 . S
C828 H831 0.960 . S
H829 C828 0.961 . S
H830 C828 0.961 . S
H831 C828 0.960 . S
C832 N833 1.342 . S
C832 C836 1.401 . S
C832 C837 1.499 . S
N833 Co816 1.989 . S
N833 C832 1.342 . S
N833 N834 1.388 . S
N834 Co817 1.993 . S
N834 N833 1.388 . S
N834 C835 1.346 . S
C835 N834 1.346 . S
C835 C836 1.396 . S
C835 C845 1.510 . S
C836 C832 1.401 . S
C836 C835 1.396 . S
C837 C832 1.499 . S
C837 H838 0.959 . S
C837 H839 0.960 . S
C837 H840 0.961 . S
H838 C837 0.959 . S
H839 C837 0.960 . S
H840 C837 0.961 . S
O841 Co816 1.967 . S
O841 C849 1.258 . S
O842 Co817 1.941 . S
O842 C849 1.266 . S
H843 C845 0.959 . S
H844 C845 0.961 . S
C845 C835 1.510 . S
C845 H843 0.959 . S
C845 H844 0.961 . S
C845 H846 0.960 . S
H846 C845 0.960 . S
H847 N827 0.862 . S
O848 Co816 1.920 . S
O848 C821 1.289 . S
C849 O841 1.258 . S
C849 O842 1.266 . S
Co850 O853 1.970 . S
Co850 N867 1.989 . S
Co850 O875 1.967 . S
Co850 O882 1.920 . S
Co851 O854 1.966 . S
Co851 N860 2.022 . S
Co851 N868 1.993 . S
Co851 O876 1.941 . S
C852 O853 1.258 . S
C852 O854 1.263 . S
O853 Co850 1.970 . S
O853 C852 1.258 . S
O854 Co851 1.966 . S
O854 C852 1.263 . S
C855 O856 1.235 . S
C855 O882 1.289 . S
O856 C855 1.235 . S
C857 C859 1.400 . S
C857 N860 1.351 . S
C857 C862 1.501 . S
C858 C859 1.387 . S
C858 N861 1.341 . S
C859 C857 1.400 . S
C859 C858 1.387 . S
N860 Co851 2.022 . S
N860 C857 1.351 . S
N860 N861 1.365 . S
N861 C858 1.341 . S
N861 N860 1.365 . S
N861 H881 0.862 . S
C862 C857 1.501 . S
C862 H863 0.961 . S
C862 H864 0.961 . S
C862 H865 0.960 . S
H863 C862 0.961 . S
H864 C862 0.961 . S
H865 C862 0.960 . S
C866 N867 1.342 . S
C866 C870 1.401 . S
C866 C871 1.499 . S
N867 Co850 1.989 . S
N867 C866 1.342 . S
N867 N868 1.388 . S
N868 Co851 1.993 . S
N868 N867 1.388 . S
N868 C869 1.346 . S
C869 N868 1.346 . S
C869 C870 1.396 . S
C869 C879 1.510 . S
C870 C866 1.401 . S
C870 C869 1.396 . S
C871 C866 1.499 . S
C871 H872 0.959 . S
C871 H873 0.960 . S
C871 H874 0.961 . S
H872 C871 0.959 . S
H873 C871 0.960 . S
H874 C871 0.961 . S
O875 Co850 1.967 . S
O875 C883 1.258 . S
O876 Co851 1.941 . S
O876 C883 1.266 . S
H877 C879 0.959 . S
H878 C879 0.961 . S
C879 C869 1.510 . S
C879 H877 0.959 . S
C879 H878 0.961 . S
C879 H880 0.960 . S
H880 C879 0.960 . S
H881 N861 0.862 . S
O882 Co850 1.920 . S
O882 C855 1.289 . S
C883 O875 1.258 . S
C883 O876 1.266 . S
Co884 O887 1.970 . S
Co884 N901 1.989 . S
Co884 O909 1.967 . S
Co884 O916 1.920 . S
Co885 O888 1.966 . S
Co885 N894 2.022 . S
Co885 N902 1.993 . S
Co885 O910 1.941 . S
C886 O887 1.258 . S
C886 O888 1.263 . S
O887 Co884 1.970 . S
O887 C886 1.258 . S
O888 Co885 1.966 . S
O888 C886 1.263 . S
C889 O890 1.235 . S
C889 O916 1.289 . S
O890 C889 1.235 . S
C891 C893 1.400 . S
C891 N894 1.351 1_554 S
C891 C896 1.501 . S
C892 C893 1.387 . S
C892 N895 1.341 . S
C893 C891 1.400 . S
C893 C892 1.387 . S
N894 Co885 2.022 . S
N894 C891 1.351 1_556 S
N894 N895 1.365 1_556 S
N895 C892 1.341 . S
N895 N894 1.365 1_554 S
N895 H915 0.862 . S
C896 C891 1.501 . S
C896 H897 0.961 1_554 S
C896 H898 0.961 . S
C896 H899 0.960 . S
H897 C896 0.961 1_556 S
H898 C896 0.961 . S
H899 C896 0.960 . S
C900 N901 1.342 . S
C900 C904 1.401 . S
C900 C905 1.499 . S
N901 Co884 1.989 . S
N901 C900 1.342 . S
N901 N902 1.388 . S
N902 Co885 1.993 . S
N902 N901 1.388 . S
N902 C903 1.346 . S
C903 N902 1.346 . S
C903 C904 1.396 . S
C903 C913 1.510 . S
C904 C900 1.401 . S
C904 C903 1.396 . S
C905 C900 1.499 . S
C905 H906 0.959 . S
C905 H907 0.960 . S
C905 H908 0.961 . S
H906 C905 0.959 . S
H907 C905 0.960 . S
H908 C905 0.961 . S
O909 Co884 1.967 . S
O909 C917 1.258 . S
O910 Co885 1.941 . S
O910 C917 1.266 . S
H911 C913 0.950 1_554 S
H912 C913 0.961 1_554 S
C913 C903 1.510 . S
C913 H911 0.950 1_556 S
C913 H912 0.961 1_556 S
C913 H914 0.955 1_556 S
H914 C913 0.955 1_554 S
H915 N895 0.862 . S
O916 Co884 1.920 . S
O916 C889 1.289 . S
C917 O909 1.258 . S
C917 O910 1.266 . S
Co918 O921 1.970 . S
Co918 N935 1.989 . S
Co918 O943 1.967 . S
Co918 O950 1.920 . S
Co919 O922 1.966 . S
Co919 N928 2.022 . S
Co919 N936 1.993 . S
Co919 O944 1.941 . S
C920 O921 1.258 . S
C920 O922 1.263 . S
O921 Co918 1.970 . S
O921 C920 1.258 . S
O922 Co919 1.966 . S
O922 C920 1.263 . S
C923 O924 1.235 . S
C923 O950 1.289 . S
O924 C923 1.235 . S
C925 C927 1.400 . S
C925 N928 1.351 . S
C925 C930 1.501 . S
C926 C927 1.387 . S
C926 N929 1.341 . S
C927 C925 1.400 . S
C927 C926 1.387 . S
N928 Co919 2.022 . S
N928 C925 1.351 . S
N928 N929 1.365 . S
N929 C926 1.341 . S
N929 N928 1.365 . S
N929 H949 0.862 . S
C930 C925 1.501 . S
C930 H931 0.961 . S
C930 H932 0.961 . S
C930 H933 0.960 . S
H931 C930 0.961 . S
H932 C930 0.961 . S
H933 C930 0.960 . S
C934 N935 1.342 . S
C934 C938 1.401 . S
C934 C939 1.499 . S
N935 Co918 1.989 . S
N935 C934 1.342 . S
N935 N936 1.388 . S
N936 Co919 1.993 . S
N936 N935 1.388 . S
N936 C937 1.346 . S
C937 N936 1.346 . S
C937 C938 1.396 . S
C937 C947 1.510 . S
C938 C934 1.401 . S
C938 C937 1.396 . S
C939 C934 1.499 . S
C939 H940 0.959 . S
C939 H941 0.960 . S
C939 H942 0.961 . S
H940 C939 0.959 . S
H941 C939 0.960 . S
H942 C939 0.961 . S
O943 Co918 1.967 . S
O943 C951 1.258 . S
O944 Co919 1.941 . S
O944 C951 1.266 . S
H945 C947 0.959 . S
H946 C947 0.961 . S
C947 C937 1.510 . S
C947 H945 0.959 . S
C947 H946 0.961 . S
C947 H948 0.960 . S
H948 C947 0.960 . S
H949 N929 0.862 . S
O950 Co918 1.920 . S
O950 C923 1.289 . S
C951 O943 1.258 . S
C951 O944 1.266 . S
Co952 O955 1.970 . S
Co952 N969 1.989 . S
Co952 O977 1.967 . S
Co952 O984 1.920 . S
Co953 O956 1.966 . S
Co953 N962 2.022 . S
Co953 N970 1.993 . S
Co953 O978 1.941 . S
C954 O955 1.258 . S
C954 O956 1.263 . S
O955 Co952 1.970 . S
O955 C954 1.258 . S
O956 Co953 1.966 . S
O956 C954 1.263 . S
C957 O958 1.235 . S
C957 O984 1.289 . S
O958 C957 1.235 . S
C959 C961 1.400 . S
C959 N962 1.351 . S
C959 C964 1.501 . S
C960 C961 1.387 . S
C960 N963 1.341 . S
C961 C959 1.400 . S
C961 C960 1.387 . S
N962 Co953 2.022 . S
N962 C959 1.351 . S
N962 N963 1.365 . S
N963 C960 1.341 . S
N963 N962 1.365 . S
N963 H983 0.862 . S
C964 C959 1.501 . S
C964 H965 0.961 . S
C964 H966 0.961 . S
C964 H967 0.960 . S
H965 C964 0.961 . S
H966 C964 0.961 . S
H967 C964 0.960 . S
C968 N969 1.342 . S
C968 C972 1.401 . S
C968 C973 1.499 . S
N969 Co952 1.989 . S
N969 C968 1.342 . S
N969 N970 1.388 . S
N970 Co953 1.993 . S
N970 N969 1.388 . S
N970 C971 1.346 . S
C971 N970 1.346 . S
C971 C972 1.396 . S
C971 C981 1.510 . S
C972 C968 1.401 . S
C972 C971 1.396 . S
C973 C968 1.499 . S
C973 H974 0.959 . S
C973 H975 0.960 . S
C973 H976 0.961 . S
H974 C973 0.959 . S
H975 C973 0.960 . S
H976 C973 0.961 . S
O977 Co952 1.967 . S
O977 C985 1.258 . S
O978 Co953 1.941 . S
O978 C985 1.266 . S
H979 C981 0.959 . S
H980 C981 0.961 . S
C981 C971 1.510 . S
C981 H979 0.959 . S
C981 H980 0.961 . S
C981 H982 0.960 . S
H982 C981 0.960 . S
H983 N963 0.862 . S
O984 Co952 1.920 . S
O984 C957 1.289 . S
C985 O977 1.258 . S
C985 O978 1.266 . S
Co986 O989 1.970 . S
Co986 N1003 1.989 . S
Co986 O1011 1.967 . S
Co986 O1018 1.920 . S
Co987 O990 1.966 . S
Co987 N996 2.022 . S
Co987 N1004 1.993 . S
Co987 O1012 1.941 . S
C988 O989 1.258 . S
C988 O990 1.263 . S
O989 Co986 1.970 . S
O989 C988 1.258 . S
O990 Co987 1.966 . S
O990 C988 1.263 . S
C991 O992 1.235 . S
C991 O1018 1.289 . S
O992 C991 1.235 . S
C993 C995 1.400 . S
C993 N996 1.351 . S
C993 C998 1.501 . S
C994 C995 1.387 . S
C994 N997 1.341 . S
C995 C993 1.400 . S
C995 C994 1.387 . S
N996 Co987 2.022 . S
N996 C993 1.351 . S
N996 N997 1.365 . S
N997 C994 1.341 . S
N997 N996 1.365 . S
N997 H1017 0.862 . S
C998 C993 1.501 . S
C998 H999 0.961 . S
C998 H1000 0.961 . S
C998 H1001 0.960 . S
H999 C998 0.961 . S
H1000 C998 0.961 . S
H1001 C998 0.960 . S
C1002 N1003 1.342 . S
C1002 C1006 1.401 . S
C1002 C1007 1.499 . S
N1003 Co986 1.989 . S
N1003 C1002 1.342 . S
N1003 N1004 1.388 . S
N1004 Co987 1.993 . S
N1004 N1003 1.388 . S
N1004 C1005 1.346 . S
C1005 N1004 1.346 . S
C1005 C1006 1.396 . S
C1005 C1015 1.510 . S
C1006 C1002 1.401 . S
C1006 C1005 1.396 . S
C1007 C1002 1.499 . S
C1007 H1008 0.959 . S
C1007 H1009 0.960 . S
C1007 H1010 0.961 . S
H1008 C1007 0.959 . S
H1009 C1007 0.960 . S
H1010 C1007 0.961 . S
O1011 Co986 1.967 . S
O1011 C1019 1.258 . S
O1012 Co987 1.941 . S
O1012 C1019 1.266 . S
H1013 C1015 0.959 . S
H1014 C1015 0.961 . S
C1015 C1005 1.510 . S
C1015 H1013 0.959 . S
C1015 H1014 0.961 . S
C1015 H1016 0.960 . S
H1016 C1015 0.960 . S
H1017 N997 0.862 . S
O1018 Co986 1.920 . S
O1018 C991 1.289 . S
C1019 O1011 1.258 . S
C1019 O1012 1.266 . S
Co1020 O1023 1.970 . S
Co1020 N1037 1.989 . S
Co1020 O1045 1.967 . S
Co1020 O1052 1.920 . S
Co1021 O1024 1.966 . S
Co1021 N1030 2.022 . S
Co1021 N1038 1.993 . S
Co1021 O1046 1.941 . S
C1022 O1023 1.258 . S
C1022 O1024 1.263 . S
O1023 Co1020 1.970 . S
O1023 C1022 1.258 . S
O1024 Co1021 1.966 . S
O1024 C1022 1.263 . S
C1025 O1026 1.235 . S
C1025 O1052 1.289 . S
O1026 C1025 1.235 . S
C1027 C1029 1.400 . S
C1027 N1030 1.351 1_556 S
C1027 C1032 1.501 . S
C1028 C1029 1.387 . S
C1028 N1031 1.341 . S
C1029 C1027 1.400 . S
C1029 C1028 1.387 . S
N1030 Co1021 2.022 . S
N1030 C1027 1.351 1_554 S
N1030 N1031 1.365 1_554 S
N1031 C1028 1.341 . S
N1031 N1030 1.365 1_556 S
N1031 H1051 0.862 . S
C1032 C1027 1.501 . S
C1032 H1033 0.961 1_556 S
C1032 H1034 0.961 . S
C1032 H1035 0.960 . S
H1033 C1032 0.961 1_554 S
H1034 C1032 0.961 . S
H1035 C1032 0.960 . S
C1036 N1037 1.342 . S
C1036 C1040 1.401 . S
C1036 C1041 1.499 . S
N1037 Co1020 1.989 . S
N1037 C1036 1.342 . S
N1037 N1038 1.388 . S
N1038 Co1021 1.993 . S
N1038 N1037 1.388 . S
N1038 C1039 1.346 . S
C1039 N1038 1.346 . S
C1039 C1040 1.396 . S
C1039 C1049 1.510 . S
C1040 C1036 1.401 . S
C1040 C1039 1.396 . S
C1041 C1036 1.499 . S
C1041 H1042 0.959 . S
C1041 H1043 0.960 . S
C1041 H1044 0.961 . S
H1042 C1041 0.959 . S
H1043 C1041 0.960 . S
H1044 C1041 0.961 . S
O1045 Co1020 1.967 . S
O1045 C1053 1.258 . S
O1046 Co1021 1.941 . S
O1046 C1053 1.266 . S
H1047 C1049 0.950 1_556 S
H1048 C1049 0.961 1_556 S
C1049 C1039 1.510 . S
C1049 H1047 0.950 1_554 S
C1049 H1048 0.961 1_554 S
C1049 H1050 0.955 1_554 S
H1050 C1049 0.955 1_556 S
H1051 N1031 0.862 . S
O1052 Co1020 1.920 . S
O1052 C1025 1.289 . S
C1053 O1045 1.258 . S
C1053 O1046 1.266 . S
Co1054 O1057 1.970 . S
Co1054 N1071 1.989 . S
Co1054 O1079 1.967 . S
Co1054 O1086 1.920 . S
Co1055 O1058 1.966 . S
Co1055 N1064 2.022 . S
Co1055 N1072 1.993 . S
Co1055 O1080 1.941 . S
C1056 O1057 1.258 . S
C1056 O1058 1.263 . S
O1057 Co1054 1.970 . S
O1057 C1056 1.258 . S
O1058 Co1055 1.966 . S
O1058 C1056 1.263 . S
C1059 O1060 1.235 . S
C1059 O1086 1.289 . S
O1060 C1059 1.235 . S
C1061 C1063 1.400 . S
C1061 N1064 1.351 . S
C1061 C1066 1.501 . S
C1062 C1063 1.387 . S
C1062 N1065 1.341 . S
C1063 C1061 1.400 . S
C1063 C1062 1.387 . S
N1064 Co1055 2.022 . S
N1064 C1061 1.351 . S
N1064 N1065 1.365 . S
N1065 C1062 1.341 . S
N1065 N1064 1.365 . S
N1065 H1085 0.862 . S
C1066 C1061 1.501 . S
C1066 H1067 0.961 . S
C1066 H1068 0.961 . S
C1066 H1069 0.960 . S
H1067 C1066 0.961 . S
H1068 C1066 0.961 . S
H1069 C1066 0.960 . S
C1070 N1071 1.342 . S
C1070 C1074 1.401 . S
C1070 C1075 1.499 . S
N1071 Co1054 1.989 . S
N1071 C1070 1.342 . S
N1071 N1072 1.388 . S
N1072 Co1055 1.993 . S
N1072 N1071 1.388 . S
N1072 C1073 1.346 . S
C1073 N1072 1.346 . S
C1073 C1074 1.396 . S
C1073 C1083 1.510 . S
C1074 C1070 1.401 . S
C1074 C1073 1.396 . S
C1075 C1070 1.499 . S
C1075 H1076 0.959 . S
C1075 H1077 0.960 . S
C1075 H1078 0.961 . S
H1076 C1075 0.959 . S
H1077 C1075 0.960 . S
H1078 C1075 0.961 . S
O1079 Co1054 1.967 . S
O1079 C1087 1.258 . S
O1080 Co1055 1.941 . S
O1080 C1087 1.266 . S
H1081 C1083 0.959 . S
H1082 C1083 0.961 . S
C1083 C1073 1.510 . S
C1083 H1081 0.959 . S
C1083 H1082 0.961 . S
C1083 H1084 0.960 . S
H1084 C1083 0.960 . S
H1085 N1065 0.862 . S
O1086 Co1054 1.920 . S
O1086 C1059 1.289 . S
C1087 O1079 1.258 . S
C1087 O1080 1.266 . S
C1088 C1089 1.387 . S
C1088 H1092 0.950 . S
C1088 C1097 1.390 . S
C1089 C1088 1.387 . S
C1089 C1091 1.387 . S
H1090 C1097 0.950 . S
C1091 C1089 1.387 . S
C1091 C1093 1.390 . S
C1091 H1095 0.950 1_545 S
H1092 C1088 0.950 . S
C1093 C1091 1.390 . S
C1093 C1094 1.387 . S
C1093 H1096 0.950 . S
C1094 C1093 1.387 . S
C1094 C1097 1.387 . S
H1095 C1091 0.950 1_565 S
H1096 C1093 0.950 . S
C1097 C1088 1.390 . S
C1097 H1090 0.950 . S
C1097 C1094 1.387 . S
C1098 C1099 1.387 . S
C1098 H1102 0.950 . S
C1098 C1107 1.390 . S
C1099 C1098 1.387 . S
C1099 C1101 1.387 . S
H1100 C1107 0.950 . S
C1101 C1099 1.387 . S
C1101 C1103 1.390 . S
C1101 H1105 0.950 . S
H1102 C1098 0.950 . S
C1103 C1101 1.390 . S
C1103 C1104 1.387 . S
C1103 H1106 0.950 . S
C1104 C1103 1.387 . S
C1104 C1107 1.387 . S
H1105 C1101 0.950 . S
H1106 C1103 0.950 . S
C1107 C1098 1.390 . S
C1107 H1100 0.950 . S
C1107 C1104 1.387 . S
C1108 C1109 1.387 . S
C1108 H1112 0.950 . S
C1108 C1117 1.390 . S
C1109 C1108 1.387 . S
C1109 C1111 1.387 . S
H1110 C1117 0.950 . S
C1111 C1109 1.387 . S
C1111 C1113 1.390 . S
C1111 H1115 0.950 . S
H1112 C1108 0.950 . S
C1113 C1111 1.390 . S
C1113 C1114 1.387 . S
C1113 H1116 0.950 1_565 S
C1114 C1113 1.387 . S
C1114 C1117 1.387 . S
H1115 C1111 0.950 . S
H1116 C1113 0.950 1_545 S
C1117 C1108 1.390 . S
C1117 H1110 0.950 . S
C1117 C1114 1.387 . S
C1118 C1119 1.387 . S
C1118 H1122 0.950 . S
C1118 C1127 1.390 . S
C1119 C1118 1.387 . S
C1119 C1121 1.387 . S
H1120 C1127 0.950 . S
C1121 C1119 1.387 . S
C1121 C1123 1.390 . S
C1121 H1125 0.950 . S
H1122 C1118 0.950 . S
C1123 C1121 1.390 . S
C1123 C1124 1.387 . S
C1123 H1126 0.950 . S
C1124 C1123 1.387 . S
C1124 C1127 1.387 . S
H1125 C1121 0.950 . S
H1126 C1123 0.950 . S
C1127 C1118 1.390 . S
C1127 H1120 0.950 . S
C1127 C1124 1.387 . S
C1128 C1129 1.387 . S
C1128 H1132 0.950 . S
C1128 C1137 1.390 . S
C1129 C1128 1.387 . S
C1129 C1131 1.387 . S
H1130 C1137 0.950 . S
C1131 C1129 1.387 . S
C1131 C1133 1.390 . S
C1131 H1135 0.950 . S
H1132 C1128 0.950 . S
C1133 C1131 1.390 . S
C1133 C1134 1.387 . S
C1133 H1136 0.950 1_565 S
C1134 C1133 1.387 . S
C1134 C1137 1.387 . S
H1135 C1131 0.950 . S
H1136 C1133 0.950 1_545 S
C1137 C1128 1.390 . S
C1137 H1130 0.950 . S
C1137 C1134 1.387 . S
C1138 C1139 1.387 . S
C1138 H1142 0.950 . S
C1138 C1147 1.390 . S
C1139 C1138 1.387 . S
C1139 C1141 1.387 . S
H1140 C1147 0.950 . S
C1141 C1139 1.387 . S
C1141 C1143 1.390 . S
C1141 H1145 0.950 . S
H1142 C1138 0.950 . S
C1143 C1141 1.390 . S
C1143 C1144 1.387 . S
C1143 H1146 0.950 . S
C1144 C1143 1.387 . S
C1144 C1147 1.387 . S
H1145 C1141 0.950 . S
H1146 C1143 0.950 . S
C1147 C1138 1.390 . S
C1147 H1140 0.950 . S
C1147 C1144 1.387 . S
C1148 C1149 1.387 . S
C1148 H1152 0.950 . S
C1148 C1157 1.390 . S
C1149 C1148 1.387 . S
C1149 C1151 1.387 . S
H1150 C1157 0.950 1_565 S
C1151 C1149 1.387 . S
C1151 C1153 1.390 . S
C1151 H1155 0.950 . S
H1152 C1148 0.950 . S
C1153 C1151 1.390 . S
C1153 C1154 1.387 . S
C1153 H1156 0.950 . S
C1154 C1153 1.387 . S
C1154 C1157 1.387 . S
H1155 C1151 0.950 . S
H1156 C1153 0.950 . S
C1157 C1148 1.390 . S
C1157 H1150 0.950 1_545 S
C1157 C1154 1.387 . S
C1158 C1159 1.387 . S
C1158 H1162 0.950 . S
C1158 C1167 1.390 . S
C1159 C1158 1.387 . S
C1159 C1161 1.387 . S
H1160 C1167 0.950 . S
C1161 C1159 1.387 . S
C1161 C1163 1.390 . S
C1161 H1165 0.950 . S
H1162 C1158 0.950 . S
C1163 C1161 1.390 . S
C1163 C1164 1.387 . S
C1163 H1166 0.950 . S
C1164 C1163 1.387 . S
C1164 C1167 1.387 . S
H1165 C1161 0.950 . S
H1166 C1163 0.950 . S
C1167 C1158 1.390 . S
C1167 H1160 0.950 . S
C1167 C1164 1.387 . S
C1168 C1169 1.387 . S
C1168 H1172 0.950 . S
C1168 C1177 1.390 . S
C1169 C1168 1.387 . S
C1169 C1171 1.387 . S
H1170 C1177 0.950 . S
C1171 C1169 1.387 . S
C1171 C1173 1.390 . S
C1171 H1175 0.920 1_565 S
H1172 C1168 0.950 . S
C1173 C1171 1.390 . S
C1173 C1174 1.387 . S
C1173 H1176 0.950 . S
C1174 C1173 1.387 . S
C1174 C1177 1.387 . S
H1175 C1171 0.920 1_545 S
H1176 C1173 0.950 . S
C1177 C1168 1.390 . S
C1177 H1170 0.950 . S
C1177 C1174 1.387 . S
C1178 C1179 1.387 . S
C1178 H1182 0.950 . S
C1178 C1187 1.390 . S
C1179 C1178 1.387 . S
C1179 C1181 1.387 . S
H1180 C1187 0.950 . S
C1181 C1179 1.387 . S
C1181 C1183 1.390 . S
C1181 H1185 0.950 . S
H1182 C1178 0.950 . S
C1183 C1181 1.390 . S
C1183 C1184 1.387 . S
C1183 H1186 0.950 . S
C1184 C1183 1.387 . S
C1184 C1187 1.387 . S
H1185 C1181 0.950 . S
H1186 C1183 0.950 . S
C1187 C1178 1.390 . S
C1187 H1180 0.950 . S
C1187 C1184 1.387 . S
C1188 C1189 1.387 . S
C1188 H1192 0.950 . S
C1188 C1197 1.390 . S
C1189 C1188 1.387 . S
C1189 C1191 1.387 . S
H1190 C1197 0.950 . S
C1191 C1189 1.387 . S
C1191 C1193 1.390 . S
C1191 H1195 0.950 . S
H1192 C1188 0.950 . S
C1193 C1191 1.390 . S
C1193 C1194 1.387 . S
C1193 H1196 0.950 . S
C1194 C1193 1.387 . S
C1194 C1197 1.387 . S
H1195 C1191 0.950 . S
H1196 C1193 0.950 . S
C1197 C1188 1.390 . S
C1197 H1190 0.950 . S
C1197 C1194 1.387 . S
C1198 C1199 1.387 . S
C1198 H1202 0.950 . S
C1198 C1207 1.390 . S
C1199 C1198 1.387 . S
C1199 C1201 1.387 . S
H1200 C1207 0.950 . S
C1201 C1199 1.387 . S
C1201 C1203 1.390 . S
C1201 H1205 0.950 . S
H1202 C1198 0.950 . S
C1203 C1201 1.390 . S
C1203 C1204 1.387 . S
C1203 H1206 0.950 . S
C1204 C1203 1.387 . S
C1204 C1207 1.387 . S
H1205 C1201 0.950 . S
H1206 C1203 0.950 . S
C1207 C1198 1.390 . S
C1207 H1200 0.950 . S
C1207 C1204 1.387 . S
C1208 C1209 1.387 . S
C1208 H1212 0.950 . S
C1208 C1217 1.390 . S
C1209 C1208 1.387 . S
C1209 C1211 1.387 . S
H1210 C1217 0.950 . S
C1211 C1209 1.387 . S
C1211 C1213 1.390 . S
C1211 H1215 0.950 . S
H1212 C1208 0.950 . S
C1213 C1211 1.390 . S
C1213 C1214 1.387 . S
C1213 H1216 0.950 1_545 S
C1214 C1213 1.387 . S
C1214 C1217 1.387 . S
H1215 C1211 0.950 . S
H1216 C1213 0.950 1_565 S
C1217 C1208 1.390 . S
C1217 H1210 0.950 . S
C1217 C1214 1.387 . S
C1218 C1219 1.387 . S
C1218 H1222 0.950 . S
C1218 C1227 1.390 . S
C1219 C1218 1.387 . S
C1219 C1221 1.387 . S
H1220 C1227 0.950 . S
C1221 C1219 1.387 . S
C1221 C1223 1.390 . S
C1221 H1225 0.950 . S
H1222 C1218 0.950 . S
C1223 C1221 1.390 . S
C1223 C1224 1.387 . S
C1223 H1226 0.950 . S
C1224 C1223 1.387 . S
C1224 C1227 1.387 . S
H1225 C1221 0.950 . S
H1226 C1223 0.950 . S
C1227 C1218 1.390 . S
C1227 H1220 0.950 . S
C1227 C1224 1.387 . S
C1228 C1229 1.387 . S
C1228 H1232 0.950 . S
C1228 C1237 1.390 . S
C1229 C1228 1.387 . S
C1229 C1231 1.387 . S
H1230 C1237 0.950 . S
C1231 C1229 1.387 . S
C1231 C1233 1.390 . S
C1231 H1235 0.950 . S
H1232 C1228 0.950 . S
C1233 C1231 1.390 . S
C1233 C1234 1.387 . S
C1233 H1236 0.950 . S
C1234 C1233 1.387 . S
C1234 C1237 1.387 . S
H1235 C1231 0.950 . S
H1236 C1233 0.950 . S
C1237 C1228 1.390 . S
C1237 H1230 0.950 . S
C1237 C1234 1.387 . S
C1238 C1239 1.387 . S
C1238 H1242 0.950 . S
C1238 C1247 1.390 . S
C1239 C1238 1.387 . S
C1239 C1241 1.387 . S
H1240 C1247 0.950 . S
C1241 C1239 1.387 . S
C1241 C1243 1.390 . S
C1241 H1245 0.950 . S
H1242 C1238 0.950 . S
C1243 C1241 1.390 . S
C1243 C1244 1.387 . S
C1243 H1246 0.950 . S
C1244 C1243 1.387 . S
C1244 C1247 1.387 . S
H1245 C1241 0.950 . S
H1246 C1243 0.950 . S
C1247 C1238 1.390 . S
C1247 H1240 0.950 . S
C1247 C1244 1.387 . S
C1248 C1249 1.387 . S
C1248 H1252 0.950 . S
C1248 C1257 1.390 . S
C1249 C1248 1.387 . S
C1249 C1251 1.387 . S
H1250 C1257 0.950 . S
C1251 C1249 1.387 . S
C1251 C1253 1.390 . S
C1251 H1255 0.950 . S
H1252 C1248 0.950 . S
C1253 C1251 1.390 . S
C1253 C1254 1.387 . S
C1253 H1256 0.950 . S
C1254 C1253 1.387 . S
C1254 C1257 1.387 . S
H1255 C1251 0.950 . S
H1256 C1253 0.950 . S
C1257 C1248 1.390 . S
C1257 H1250 0.950 . S
C1257 C1254 1.387 . S
C1258 C1259 1.387 . S
C1258 H1262 0.950 . S
C1258 C1267 1.390 . S
C1259 C1258 1.387 . S
C1259 C1261 1.387 . S
H1260 C1267 0.950 . S
C1261 C1259 1.387 . S
C1261 C1263 1.390 . S
C1261 H1265 0.950 . S
H1262 C1258 0.950 . S
C1263 C1261 1.390 . S
C1263 C1264 1.387 . S
C1263 H1266 0.950 . S
C1264 C1263 1.387 . S
C1264 C1267 1.387 . S
H1265 C1261 0.950 . S
H1266 C1263 0.950 . S
C1267 C1258 1.390 . S
C1267 H1260 0.950 . S
C1267 C1264 1.387 . S
C1268 C1269 1.387 . S
C1268 H1272 0.950 . S
C1268 C1277 1.390 . S
C1269 C1268 1.387 . S
C1269 C1271 1.387 . S
H1270 C1277 0.950 . S
C1271 C1269 1.387 . S
C1271 C1273 1.390 . S
C1271 H1275 0.950 . S
H1272 C1268 0.950 . S
C1273 C1271 1.390 . S
C1273 C1274 1.387 . S
C1273 H1276 0.950 . S
C1274 C1273 1.387 . S
C1274 C1277 1.387 . S
H1275 C1271 0.950 . S
H1276 C1273 0.950 . S
C1277 C1268 1.390 . S
C1277 H1270 0.950 . S
C1277 C1274 1.387 . S
C1278 C1279 1.387 . S
C1278 H1282 0.950 . S
C1278 C1287 1.390 . S
C1279 C1278 1.387 . S
C1279 C1281 1.387 . S
H1280 C1287 0.950 . S
C1281 C1279 1.387 . S
C1281 C1283 1.390 . S
C1281 H1285 0.950 . S
H1282 C1278 0.950 . S
C1283 C1281 1.390 . S
C1283 C1284 1.387 . S
C1283 H1286 0.950 . S
C1284 C1283 1.387 . S
C1284 C1287 1.387 . S
H1285 C1281 0.950 . S
H1286 C1283 0.950 . S
C1287 C1278 1.390 . S
C1287 H1280 0.950 . S
C1287 C1284 1.387 . S
C1288 C1289 1.387 . S
C1288 H1292 0.950 . S
C1288 C1297 1.390 . S
C1289 C1288 1.387 . S
C1289 C1291 1.387 . S
H1290 C1297 0.950 . S
C1291 C1289 1.387 . S
C1291 C1293 1.390 . S
C1291 H1295 0.950 . S
H1292 C1288 0.950 . S
C1293 C1291 1.390 . S
C1293 C1294 1.387 . S
C1293 H1296 0.950 . S
C1294 C1293 1.387 . S
C1294 C1297 1.387 . S
H1295 C1291 0.950 . S
H1296 C1293 0.950 . S
C1297 C1288 1.390 . S
C1297 H1290 0.950 . S
C1297 C1294 1.387 . S
C1298 C1299 1.387 . S
C1298 H1302 0.950 . S
C1298 C1307 1.390 . S
C1299 C1298 1.387 . S
C1299 C1301 1.387 . S
H1300 C1307 0.950 . S
C1301 C1299 1.387 . S
C1301 C1303 1.390 . S
C1301 H1305 0.950 . S
H1302 C1298 0.950 . S
C1303 C1301 1.390 . S
C1303 C1304 1.387 . S
C1303 H1306 0.950 . S
C1304 C1303 1.387 . S
C1304 C1307 1.387 . S
H1305 C1301 0.950 . S
H1306 C1303 0.950 . S
C1307 C1298 1.390 . S
C1307 H1300 0.950 . S
C1307 C1304 1.387 . S
C1308 C1309 1.387 . S
C1308 H1312 0.950 . S
C1308 C1317 1.390 . S
C1309 C1308 1.387 . S
C1309 C1311 1.387 . S
H1310 C1317 0.950 . S
C1311 C1309 1.387 . S
C1311 C1313 1.390 . S
C1311 H1315 0.950 . S
H1312 C1308 0.950 . S
C1313 C1311 1.390 . S
C1313 C1314 1.387 . S
C1313 H1316 0.950 . S
C1314 C1313 1.387 . S
C1314 C1317 1.387 . S
H1315 C1311 0.950 . S
H1316 C1313 0.950 . S
C1317 C1308 1.390 . S
C1317 H1310 0.950 . S
C1317 C1314 1.387 . S
C1318 C1319 1.387 . S
C1318 H1322 0.950 . S
C1318 C1327 1.390 . S
C1319 C1318 1.387 . S
C1319 C1321 1.387 . S
H1320 C1327 0.950 . S
C1321 C1319 1.387 . S
C1321 C1323 1.390 . S
C1321 H1325 0.950 . S
H1322 C1318 0.950 . S
C1323 C1321 1.390 . S
C1323 C1324 1.387 . S
C1323 H1326 0.950 . S
C1324 C1323 1.387 . S
C1324 C1327 1.387 . S
H1325 C1321 0.950 . S
H1326 C1323 0.950 . S
C1327 C1318 1.390 . S
C1327 H1320 0.950 . S
C1327 C1324 1.387 . S
C1328 C1329 1.387 . S
C1328 H1332 0.950 . S
C1328 C1337 1.390 . S
C1329 C1328 1.387 . S
C1329 C1331 1.387 . S
H1330 C1337 0.950 . S
C1331 C1329 1.387 . S
C1331 C1333 1.390 . S
C1331 H1335 0.950 . S
H1332 C1328 0.950 . S
C1333 C1331 1.390 . S
C1333 C1334 1.387 . S
C1333 H1336 0.950 . S
C1334 C1333 1.387 . S
C1334 C1337 1.387 . S
H1335 C1331 0.950 . S
H1336 C1333 0.950 . S
C1337 C1328 1.390 . S
C1337 H1330 0.950 . S
C1337 C1334 1.387 . S
C1338 C1339 1.387 . S
C1338 H1342 0.950 . S
C1338 C1347 1.390 . S
C1339 C1338 1.387 . S
C1339 C1341 1.387 . S
H1340 C1347 0.950 . S
C1341 C1339 1.387 . S
C1341 C1343 1.390 . S
C1341 H1345 0.950 . S
H1342 C1338 0.950 . S
C1343 C1341 1.390 . S
C1343 C1344 1.387 . S
C1343 H1346 0.950 . S
C1344 C1343 1.387 . S
C1344 C1347 1.387 . S
H1345 C1341 0.950 . S
H1346 C1343 0.950 . S
C1347 C1338 1.390 . S
C1347 H1340 0.950 . S
C1347 C1344 1.387 . S
C1348 C1349 1.387 . S
C1348 H1352 0.950 . S
C1348 C1357 1.390 . S
C1349 C1348 1.387 . S
C1349 C1351 1.387 . S
H1350 C1357 0.950 . S
C1351 C1349 1.387 . S
C1351 C1353 1.390 . S
C1351 H1355 0.950 . S
H1352 C1348 0.950 . S
C1353 C1351 1.390 . S
C1353 C1354 1.387 . S
C1353 H1356 0.950 . S
C1354 C1353 1.387 . S
C1354 C1357 1.387 . S
H1355 C1351 0.950 . S
H1356 C1353 0.950 . S
C1357 C1348 1.390 . S
C1357 H1350 0.950 . S
C1357 C1354 1.387 . S
C1358 C1359 1.387 . S
C1358 H1362 0.950 . S
C1358 C1367 1.390 . S
C1359 C1358 1.387 . S
C1359 C1361 1.387 . S
H1360 C1367 0.950 . S
C1361 C1359 1.387 . S
C1361 C1363 1.390 . S
C1361 H1365 0.950 . S
H1362 C1358 0.950 . S
C1363 C1361 1.390 . S
C1363 C1364 1.387 . S
C1363 H1366 0.950 . S
C1364 C1363 1.387 . S
C1364 C1367 1.387 . S
H1365 C1361 0.950 . S
H1366 C1363 0.950 . S
C1367 C1358 1.390 . S
C1367 H1360 0.950 . S
C1367 C1364 1.387 . S
C1368 C1369 1.387 . S
C1368 H1372 0.950 . S
C1368 C1377 1.390 . S
C1369 C1368 1.387 . S
C1369 C1371 1.387 . S
H1370 C1377 0.950 . S
C1371 C1369 1.387 . S
C1371 C1373 1.390 . S
C1371 H1375 0.950 . S
H1372 C1368 0.950 . S
C1373 C1371 1.390 . S
C1373 C1374 1.387 . S
C1373 H1376 0.950 . S
C1374 C1373 1.387 . S
C1374 C1377 1.387 . S
H1375 C1371 0.950 . S
H1376 C1373 0.950 . S
C1377 C1368 1.390 . S
C1377 H1370 0.950 . S
C1377 C1374 1.387 . S
C1378 C1379 1.387 . S
C1378 H1382 0.950 . S
C1378 C1387 1.390 . S
C1379 C1378 1.387 . S
C1379 C1381 1.387 . S
H1380 C1387 0.950 . S
C1381 C1379 1.387 . S
C1381 C1383 1.390 . S
C1381 H1385 0.950 . S
H1382 C1378 0.950 . S
C1383 C1381 1.390 . S
C1383 C1384 1.387 . S
C1383 H1386 0.950 . S
C1384 C1383 1.387 . S
C1384 C1387 1.387 . S
H1385 C1381 0.950 . S
H1386 C1383 0.950 . S
C1387 C1378 1.390 . S
C1387 H1380 0.950 . S
C1387 C1384 1.387 . S
C1388 C1389 1.387 . S
C1388 H1392 0.950 . S
C1388 C1397 1.390 . S
C1389 C1388 1.387 . S
C1389 C1391 1.387 . S
H1390 C1397 0.950 . S
C1391 C1389 1.387 . S
C1391 C1393 1.390 . S
C1391 H1395 0.950 . S
H1392 C1388 0.950 . S
C1393 C1391 1.390 . S
C1393 C1394 1.387 . S
C1393 H1396 0.950 . S
C1394 C1393 1.387 . S
C1394 C1397 1.387 . S
H1395 C1391 0.950 . S
H1396 C1393 0.950 . S
C1397 C1388 1.390 . S
C1397 H1390 0.950 . S
C1397 C1394 1.387 . S
C1398 C1399 1.387 . S
C1398 H1402 0.950 . S
C1398 C1407 1.390 . S
C1399 C1398 1.387 . S
C1399 C1401 1.387 . S
H1400 C1407 0.950 . S
C1401 C1399 1.387 . S
C1401 C1403 1.390 . S
C1401 H1405 0.950 . S
H1402 C1398 0.950 . S
C1403 C1401 1.390 . S
C1403 C1404 1.387 . S
C1403 H1406 0.950 . S
C1404 C1403 1.387 . S
C1404 C1407 1.387 . S
H1405 C1401 0.950 . S
H1406 C1403 0.950 . S
C1407 C1398 1.390 . S
C1407 H1400 0.950 . S
C1407 C1404 1.387 . S
C1408 C1409 1.387 . S
C1408 H1412 0.950 . S
C1408 C1417 1.390 . S
C1409 C1408 1.387 . S
C1409 C1411 1.387 . S
H1410 C1417 0.950 . S
C1411 C1409 1.387 . S
C1411 C1413 1.390 . S
C1411 H1415 0.950 . S
H1412 C1408 0.950 . S
C1413 C1411 1.390 . S
C1413 C1414 1.387 . S
C1413 H1416 0.950 . S
C1414 C1413 1.387 . S
C1414 C1417 1.387 . S
H1415 C1411 0.950 . S
H1416 C1413 0.950 . S
C1417 C1408 1.390 . S
C1417 H1410 0.950 . S
C1417 C1414 1.387 . S
C1418 C1419 1.387 . S
C1418 H1422 0.950 . S
C1418 C1427 1.390 1_565 S
C1419 C1418 1.387 . S
C1419 C1421 1.387 . S
H1420 C1427 0.950 . S
C1421 C1419 1.387 . S
C1421 C1423 1.390 1_565 S
C1421 H1425 0.950 . S
H1422 C1418 0.950 . S
C1423 C1421 1.390 1_545 S
C1423 C1424 1.387 . S
C1423 H1426 0.950 . S
C1424 C1423 1.387 . S
C1424 C1427 1.387 . S
H1425 C1421 0.950 . S
H1426 C1423 0.950 . S
C1427 C1418 1.390 1_545 S
C1427 H1420 0.950 . S
C1427 C1424 1.387 . S
C1428 C1429 1.387 . S
C1428 H1432 0.950 . S
C1428 C1437 1.390 . S
C1429 C1428 1.387 . S
C1429 C1431 1.387 . S
H1430 C1437 0.950 . S
C1431 C1429 1.387 . S
C1431 C1433 1.390 . S
C1431 H1435 0.950 . S
H1432 C1428 0.950 . S
C1433 C1431 1.390 . S
C1433 C1434 1.387 . S
C1433 H1436 0.950 . S
C1434 C1433 1.387 . S
C1434 C1437 1.387 . S
H1435 C1431 0.950 . S
H1436 C1433 0.950 . S
C1437 C1428 1.390 . S
C1437 H1430 0.950 . S
C1437 C1434 1.387 . S
C1438 C1439 1.387 . S
C1438 H1442 0.950 . S
C1438 C1447 1.390 1_546 S
C1439 C1438 1.387 . S
C1439 C1441 1.387 . S
H1440 C1447 0.950 . S
C1441 C1439 1.387 . S
C1441 C1443 1.390 1_546 S
C1441 H1445 0.950 . S
H1442 C1438 0.950 . S
C1443 C1441 1.390 1_564 S
C1443 C1444 1.387 . S
C1443 H1446 0.950 . S
C1444 C1443 1.387 . S
C1444 C1447 1.387 . S
H1445 C1441 0.950 . S
H1446 C1443 0.950 . S
C1447 C1438 1.390 1_564 S
C1447 H1440 0.950 . S
C1447 C1444 1.387 . S
C1448 C1449 1.387 . S
C1448 H1452 0.950 . S
C1448 C1457 1.390 . S
C1449 C1448 1.387 . S
C1449 C1451 1.387 . S
H1450 C1457 0.950 . S
C1451 C1449 1.387 . S
C1451 C1453 1.390 . S
C1451 H1455 0.950 . S
H1452 C1448 0.950 . S
C1453 C1451 1.390 . S
C1453 C1454 1.387 . S
C1453 H1456 0.950 . S
C1454 C1453 1.387 . S
C1454 C1457 1.387 . S
H1455 C1451 0.950 . S
H1456 C1453 0.950 . S
C1457 C1448 1.390 . S
C1457 H1450 0.950 . S
C1457 C1454 1.387 . S
C1458 C1459 1.387 . S
C1458 H1462 0.950 . S
C1458 C1467 1.390 1_565 S
C1459 C1458 1.387 . S
C1459 C1461 1.387 . S
H1460 C1467 0.950 . S
C1461 C1459 1.387 . S
C1461 C1463 1.390 1_565 S
C1461 H1465 0.950 . S
H1462 C1458 0.950 . S
C1463 C1461 1.390 1_545 S
C1463 C1464 1.387 . S
C1463 H1466 0.950 . S
C1464 C1463 1.387 . S
C1464 C1467 1.387 . S
H1465 C1461 0.950 . S
H1466 C1463 0.950 . S
C1467 C1458 1.390 1_545 S
C1467 H1460 0.950 . S
C1467 C1464 1.387 . S
C1468 C1469 1.387 . S
C1468 H1472 0.950 . S
C1468 C1477 1.390 . S
C1469 C1468 1.387 . S
C1469 C1471 1.387 . S
H1470 C1477 0.950 . S
C1471 C1469 1.387 . S
C1471 C1473 1.390 . S
C1471 H1475 0.950 . S
H1472 C1468 0.950 . S
C1473 C1471 1.390 . S
C1473 C1474 1.387 . S
C1473 H1476 0.950 . S
C1474 C1473 1.387 . S
C1474 C1477 1.387 . S
H1475 C1471 0.950 . S
H1476 C1473 0.950 . S
C1477 C1468 1.390 . S
C1477 H1470 0.950 . S
C1477 C1474 1.387 . S
C1478 C1479 1.387 . S
C1478 H1482 0.950 . S
C1478 C1487 1.390 1_546 S
C1479 C1478 1.387 . S
C1479 C1481 1.387 . S
H1480 C1487 0.950 . S
C1481 C1479 1.387 . S
C1481 C1483 1.390 1_546 S
C1481 H1485 0.950 . S
H1482 C1478 0.950 . S
C1483 C1481 1.390 1_564 S
C1483 C1484 1.387 . S
C1483 H1486 0.950 . S
C1484 C1483 1.387 . S
C1484 C1487 1.387 . S
H1485 C1481 0.950 . S
H1486 C1483 0.950 . S
C1487 C1478 1.390 1_564 S
C1487 H1480 0.950 . S
C1487 C1484 1.387 . S
C1488 C1489 1.387 . S
C1488 H1492 0.950 . S
C1488 C1497 1.390 . S
C1489 C1488 1.387 . S
C1489 C1491 1.387 . S
H1490 C1497 0.950 . S
C1491 C1489 1.387 . S
C1491 C1493 1.390 . S
C1491 H1495 0.950 . S
H1492 C1488 0.950 . S
C1493 C1491 1.390 . S
C1493 C1494 1.387 . S
C1493 H1496 0.950 . S
C1494 C1493 1.387 . S
C1494 C1497 1.387 . S
H1495 C1491 0.950 . S
H1496 C1493 0.950 . S
C1497 C1488 1.390 . S
C1497 H1490 0.950 . S
C1497 C1494 1.387 . S
C1498 C1499 1.387 . S
C1498 H1502 0.950 . S
C1498 C1507 1.390 1_556 S
C1499 C1498 1.387 . S
C1499 C1501 1.387 . S
H1500 C1507 0.950 . S
C1501 C1499 1.387 . S
C1501 C1503 1.390 1_556 S
C1501 H1505 0.950 . S
H1502 C1498 0.950 . S
C1503 C1501 1.390 1_554 S
C1503 C1504 1.387 . S
C1503 H1506 0.950 . S
C1504 C1503 1.387 . S
C1504 C1507 1.387 . S
H1505 C1501 0.950 . S
H1506 C1503 0.950 . S
C1507 C1498 1.390 1_554 S
C1507 H1500 0.950 . S
C1507 C1504 1.387 . S
C1508 C1509 1.387 . S
C1508 H1512 0.950 . S
C1508 C1517 1.390 . S
C1509 C1508 1.387 . S
C1509 C1511 1.387 . S
H1510 C1517 0.950 . S
C1511 C1509 1.387 . S
C1511 C1513 1.390 . S
C1511 H1515 0.950 . S
H1512 C1508 0.950 . S
C1513 C1511 1.390 . S
C1513 C1514 1.387 . S
C1513 H1516 0.950 . S
C1514 C1513 1.387 . S
C1514 C1517 1.387 . S
H1515 C1511 0.950 . S
H1516 C1513 0.950 . S
C1517 C1508 1.390 . S
C1517 H1510 0.950 . S
C1517 C1514 1.387 . S
C1518 C1519 1.387 . S
C1518 H1522 0.950 . S
C1518 C1527 1.390 . S
C1519 C1518 1.387 . S
C1519 C1521 1.387 . S
H1520 C1527 0.950 . S
C1521 C1519 1.387 . S
C1521 C1523 1.390 . S
C1521 H1525 0.950 . S
H1522 C1518 0.950 . S
C1523 C1521 1.390 . S
C1523 C1524 1.387 . S
C1523 H1526 0.950 . S
C1524 C1523 1.387 . S
C1524 C1527 1.387 . S
H1525 C1521 0.950 . S
H1526 C1523 0.950 . S
C1527 C1518 1.390 . S
C1527 H1520 0.950 . S
C1527 C1524 1.387 . S
C1528 C1529 1.387 . S
C1528 H1532 0.950 . S
C1528 C1537 1.390 . S
C1529 C1528 1.387 . S
C1529 C1531 1.387 . S
H1530 C1537 0.950 . S
C1531 C1529 1.387 . S
C1531 C1533 1.390 . S
C1531 H1535 0.950 . S
H1532 C1528 0.950 . S
C1533 C1531 1.390 . S
C1533 C1534 1.387 . S
C1533 H1536 0.950 . S
C1534 C1533 1.387 . S
C1534 C1537 1.387 . S
H1535 C1531 0.950 . S
H1536 C1533 0.950 . S
C1537 C1528 1.390 . S
C1537 H1530 0.950 . S
C1537 C1534 1.387 . S
C1538 C1539 1.387 . S
C1538 H1542 0.950 . S
C1538 C1547 1.390 1_556 S
C1539 C1538 1.387 . S
C1539 C1541 1.387 . S
H1540 C1547 0.950 . S
C1541 C1539 1.387 . S
C1541 C1543 1.390 1_556 S
C1541 H1545 0.950 . S
H1542 C1538 0.950 . S
C1543 C1541 1.390 1_554 S
C1543 C1544 1.387 . S
C1543 H1546 0.950 . S
C1544 C1543 1.387 . S
C1544 C1547 1.387 . S
H1545 C1541 0.950 . S
H1546 C1543 0.950 . S
C1547 C1538 1.390 1_554 S
C1547 H1540 0.950 . S
C1547 C1544 1.387 . S
C1548 C1549 1.387 . S
C1548 H1552 0.950 . S
C1548 C1557 1.390 . S
C1549 C1548 1.387 . S
C1549 C1551 1.387 . S
H1550 C1557 0.950 . S
C1551 C1549 1.387 . S
C1551 C1553 1.390 . S
C1551 H1555 0.950 . S
H1552 C1548 0.950 . S
C1553 C1551 1.390 . S
C1553 C1554 1.387 . S
C1553 H1556 0.950 . S
C1554 C1553 1.387 . S
C1554 C1557 1.387 . S
H1555 C1551 0.950 . S
H1556 C1553 0.950 . S
C1557 C1548 1.390 . S
C1557 H1550 0.950 . S
C1557 C1554 1.387 . S
C1558 C1559 1.387 . S
C1558 H1562 0.950 . S
C1558 C1567 1.390 . S
C1559 C1558 1.387 . S
C1559 C1561 1.387 . S
H1560 C1567 0.950 . S
C1561 C1559 1.387 . S
C1561 C1563 1.390 . S
C1561 H1565 0.950 . S
H1562 C1558 0.950 . S
C1563 C1561 1.390 . S
C1563 C1564 1.387 . S
C1563 H1566 0.950 . S
C1564 C1563 1.387 . S
C1564 C1567 1.387 . S
H1565 C1561 0.950 . S
H1566 C1563 0.950 . S
C1567 C1558 1.390 . S
C1567 H1560 0.950 . S
C1567 C1564 1.387 . S
C1568 C1569 1.387 . S
C1568 H1572 0.950 . S
C1568 C1577 1.390 . S
C1569 C1568 1.387 . S
C1569 C1571 1.387 . S
H1570 C1577 0.950 . S
C1571 C1569 1.387 . S
C1571 C1573 1.390 . S
C1571 H1575 0.950 . S
H1572 C1568 0.950 . S
C1573 C1571 1.390 . S
C1573 C1574 1.387 . S
C1573 H1576 0.950 . S
C1574 C1573 1.387 . S
C1574 C1577 1.387 . S
H1575 C1571 0.950 . S
H1576 C1573 0.950 . S
C1577 C1568 1.390 . S
C1577 H1570 0.950 . S
C1577 C1574 1.387 . S
C1578 C1579 1.387 . S
C1578 H1582 0.950 . S
C1578 C1587 1.390 . S
C1579 C1578 1.387 . S
C1579 C1581 1.387 . S
H1580 C1587 0.950 . S
C1581 C1579 1.387 . S
C1581 C1583 1.390 . S
C1581 H1585 0.950 . S
H1582 C1578 0.950 . S
C1583 C1581 1.390 . S
C1583 C1584 1.387 . S
C1583 H1586 0.950 . S
C1584 C1583 1.387 . S
C1584 C1587 1.387 . S
H1585 C1581 0.950 . S
H1586 C1583 0.950 . S
C1587 C1578 1.390 . S
C1587 H1580 0.950 . S
C1587 C1584 1.387 . S
C1588 C1589 1.387 . S
C1588 H1592 0.950 . S
C1588 C1597 1.390 . S
C1589 C1588 1.387 . S
C1589 C1591 1.387 . S
H1590 C1597 0.950 . S
C1591 C1589 1.387 . S
C1591 C1593 1.390 . S
C1591 H1595 0.950 . S
H1592 C1588 0.950 . S
C1593 C1591 1.390 . S
C1593 C1594 1.387 . S
C1593 H1596 0.950 . S
C1594 C1593 1.387 . S
C1594 C1597 1.387 . S
H1595 C1591 0.950 . S
H1596 C1593 0.950 . S
C1597 C1588 1.390 . S
C1597 H1590 0.950 . S
C1597 C1594 1.387 . S
C1598 C1599 1.387 . S
C1598 H1602 0.950 . S
C1598 C1607 1.390 . S
C1599 C1598 1.387 . S
C1599 C1601 1.387 . S
H1600 C1607 0.950 . S
C1601 C1599 1.387 . S
C1601 C1603 1.390 . S
C1601 H1605 0.950 . S
H1602 C1598 0.950 . S
C1603 C1601 1.390 . S
C1603 C1604 1.387 . S
C1603 H1606 0.950 . S
C1604 C1603 1.387 . S
C1604 C1607 1.387 . S
H1605 C1601 0.950 . S
H1606 C1603 0.950 . S
C1607 C1598 1.390 . S
C1607 H1600 0.950 . S
C1607 C1604 1.387 . S
C1608 C1609 1.387 . S
C1608 H1612 0.950 . S
C1608 C1617 1.390 . S
C1609 C1608 1.387 . S
C1609 C1611 1.387 . S
H1610 C1617 0.950 . S
C1611 C1609 1.387 . S
C1611 C1613 1.390 . S
C1611 H1615 0.950 . S
H1612 C1608 0.950 . S
C1613 C1611 1.390 . S
C1613 C1614 1.387 . S
C1613 H1616 0.950 . S
C1614 C1613 1.387 . S
C1614 C1617 1.387 . S
H1615 C1611 0.950 . S
H1616 C1613 0.950 . S
C1617 C1608 1.390 . S
C1617 H1610 0.950 . S
C1617 C1614 1.387 . S
C1618 C1619 1.387 . S
C1618 H1622 0.950 . S
C1618 C1627 1.390 . S
C1619 C1618 1.387 . S
C1619 C1621 1.387 . S
H1620 C1627 0.950 . S
C1621 C1619 1.387 . S
C1621 C1623 1.390 . S
C1621 H1625 0.950 . S
H1622 C1618 0.950 . S
C1623 C1621 1.390 . S
C1623 C1624 1.387 . S
C1623 H1626 0.950 . S
C1624 C1623 1.387 . S
C1624 C1627 1.387 . S
H1625 C1621 0.950 . S
H1626 C1623 0.950 . S
C1627 C1618 1.390 . S
C1627 H1620 0.950 . S
C1627 C1624 1.387 . S
C1628 C1629 1.387 . S
C1628 H1632 0.950 . S
C1628 C1637 1.390 . S
C1629 C1628 1.387 . S
C1629 C1631 1.387 . S
H1630 C1637 0.950 . S
C1631 C1629 1.387 . S
C1631 C1633 1.390 . S
C1631 H1635 0.950 . S
H1632 C1628 0.950 . S
C1633 C1631 1.390 . S
C1633 C1634 1.387 . S
C1633 H1636 0.950 . S
C1634 C1633 1.387 . S
C1634 C1637 1.387 . S
H1635 C1631 0.950 . S
H1636 C1633 0.950 . S
C1637 C1628 1.390 . S
C1637 H1630 0.950 . S
C1637 C1634 1.387 . S
C1638 C1639 1.387 . S
C1638 H1642 0.950 . S
C1638 C1647 1.390 . S
C1639 C1638 1.387 . S
C1639 C1641 1.387 . S
H1640 C1647 0.950 . S
C1641 C1639 1.387 . S
C1641 C1643 1.390 . S
C1641 H1645 0.950 . S
H1642 C1638 0.950 . S
C1643 C1641 1.390 . S
C1643 C1644 1.387 . S
C1643 H1646 0.950 . S
C1644 C1643 1.387 . S
C1644 C1647 1.387 . S
H1645 C1641 0.950 . S
H1646 C1643 0.950 . S
C1647 C1638 1.390 . S
C1647 H1640 0.950 . S
C1647 C1644 1.387 . S
C1648 C1649 1.387 . S
C1648 H1652 0.950 . S
C1648 C1657 1.390 . S
C1649 C1648 1.387 . S
C1649 C1651 1.387 . S
H1650 C1657 0.950 . S
C1651 C1649 1.387 . S
C1651 C1653 1.390 . S
C1651 H1655 0.950 . S
H1652 C1648 0.950 . S
C1653 C1651 1.390 . S
C1653 C1654 1.387 . S
C1653 H1656 0.950 . S
C1654 C1653 1.387 . S
C1654 C1657 1.387 . S
H1655 C1651 0.950 . S
H1656 C1653 0.950 . S
C1657 C1648 1.390 . S
C1657 H1650 0.950 . S
C1657 C1654 1.387 . S
C1658 C1659 1.387 . S
C1658 H1662 0.950 . S
C1658 C1667 1.390 . S
C1659 C1658 1.387 . S
C1659 C1661 1.387 . S
H1660 C1667 0.950 . S
C1661 C1659 1.387 . S
C1661 C1663 1.390 . S
C1661 H1665 0.950 . S
H1662 C1658 0.950 . S
C1663 C1661 1.390 . S
C1663 C1664 1.387 . S
C1663 H1666 0.950 . S
C1664 C1663 1.387 . S
C1664 C1667 1.387 . S
H1665 C1661 0.950 . S
H1666 C1663 0.950 . S
C1667 C1658 1.390 . S
C1667 H1660 0.950 . S
C1667 C1664 1.387 . S
C1668 C1669 1.387 . S
C1668 H1672 0.950 . S
C1668 C1677 1.390 . S
C1669 C1668 1.387 . S
C1669 C1671 1.387 . S
H1670 C1677 0.950 . S
C1671 C1669 1.387 . S
C1671 C1673 1.390 . S
C1671 H1675 0.950 . S
H1672 C1668 0.950 . S
C1673 C1671 1.390 . S
C1673 C1674 1.387 . S
C1673 H1676 0.950 . S
C1674 C1673 1.387 . S
C1674 C1677 1.387 . S
H1675 C1671 0.950 . S
H1676 C1673 0.950 . S
C1677 C1668 1.390 . S
C1677 H1670 0.950 . S
C1677 C1674 1.387 . S
C1678 C1679 1.387 . S
C1678 H1682 0.950 . S
C1678 C1687 1.390 . S
C1679 C1678 1.387 . S
C1679 C1681 1.387 . S
H1680 C1687 0.950 . S
C1681 C1679 1.387 . S
C1681 C1683 1.390 . S
C1681 H1685 0.950 . S
H1682 C1678 0.950 . S
C1683 C1681 1.390 . S
C1683 C1684 1.387 . S
C1683 H1686 0.950 . S
C1684 C1683 1.387 . S
C1684 C1687 1.387 . S
H1685 C1681 0.950 . S
H1686 C1683 0.950 . S
C1687 C1678 1.390 . S
C1687 H1680 0.950 . S
C1687 C1684 1.387 . S
C1688 C1689 1.387 . S
C1688 H1692 0.950 . S
C1688 C1697 1.390 . S
C1689 C1688 1.387 . S
C1689 C1691 1.387 . S
H1690 C1697 0.950 . S
C1691 C1689 1.387 . S
C1691 C1693 1.390 . S
C1691 H1695 0.950 . S
H1692 C1688 0.950 . S
C1693 C1691 1.390 . S
C1693 C1694 1.387 . S
C1693 H1696 0.950 . S
C1694 C1693 1.387 . S
C1694 C1697 1.387 . S
H1695 C1691 0.950 . S
H1696 C1693 0.950 . S
C1697 C1688 1.390 . S
C1697 H1690 0.950 . S
C1697 C1694 1.387 . S
C1698 C1699 1.387 . S
C1698 H1702 0.950 . S
C1698 C1707 1.390 . S
C1699 C1698 1.387 . S
C1699 C1701 1.387 . S
H1700 C1707 0.950 . S
C1701 C1699 1.387 . S
C1701 C1703 1.390 . S
C1701 H1705 0.950 . S
H1702 C1698 0.950 . S
C1703 C1701 1.390 . S
C1703 C1704 1.387 . S
C1703 H1706 0.950 . S
C1704 C1703 1.387 . S
C1704 C1707 1.387 . S
H1705 C1701 0.950 . S
H1706 C1703 0.950 . S
C1707 C1698 1.390 . S
C1707 H1700 0.950 . S
C1707 C1704 1.387 . S
C1708 C1709 1.387 . S
C1708 H1712 0.950 . S
C1708 C1717 1.390 . S
C1709 C1708 1.387 . S
C1709 C1711 1.387 . S
H1710 C1717 0.950 . S
C1711 C1709 1.387 . S
C1711 C1713 1.390 . S
C1711 H1715 0.950 . S
H1712 C1708 0.950 . S
C1713 C1711 1.390 . S
C1713 C1714 1.387 . S
C1713 H1716 0.950 . S
C1714 C1713 1.387 . S
C1714 C1717 1.387 . S
H1715 C1711 0.950 . S
H1716 C1713 0.950 . S
C1717 C1708 1.390 . S
C1717 H1710 0.950 . S
C1717 C1714 1.387 . S
C1718 C1719 1.387 . S
C1718 H1722 0.950 . S
C1718 C1727 1.390 . S
C1719 C1718 1.387 . S
C1719 C1721 1.387 . S
H1720 C1727 0.950 . S
C1721 C1719 1.387 . S
C1721 C1723 1.390 . S
C1721 H1725 0.950 . S
H1722 C1718 0.950 . S
C1723 C1721 1.390 . S
C1723 C1724 1.387 . S
C1723 H1726 0.950 . S
C1724 C1723 1.387 . S
C1724 C1727 1.387 . S
H1725 C1721 0.950 . S
H1726 C1723 0.950 . S
C1727 C1718 1.390 . S
C1727 H1720 0.950 . S
C1727 C1724 1.387 . S
C1728 C1729 1.387 . S
C1728 H1732 0.950 . S
C1728 C1737 1.390 . S
C1729 C1728 1.387 . S
C1729 C1731 1.387 . S
H1730 C1737 0.950 . S
C1731 C1729 1.387 . S
C1731 C1733 1.390 . S
C1731 H1735 0.950 . S
H1732 C1728 0.950 . S
C1733 C1731 1.390 . S
C1733 C1734 1.387 . S
C1733 H1736 0.950 . S
C1734 C1733 1.387 . S
C1734 C1737 1.387 . S
H1735 C1731 0.950 . S
H1736 C1733 0.950 . S
C1737 C1728 1.390 . S
C1737 H1730 0.950 . S
C1737 C1734 1.387 . S
C1738 C1739 1.387 . S
C1738 H1742 0.950 . S
C1738 C1747 1.390 1_655 S
C1739 C1738 1.387 . S
C1739 C1741 1.387 . S
H1740 C1747 0.950 . S
C1741 C1739 1.387 . S
C1741 C1743 1.390 1_655 S
C1741 H1745 0.950 . S
H1742 C1738 0.950 . S
C1743 C1741 1.390 1_455 S
C1743 C1744 1.387 . S
C1743 H1746 0.950 . S
C1744 C1743 1.387 . S
C1744 C1747 1.387 . S
H1745 C1741 0.950 . S
H1746 C1743 0.950 . S
C1747 C1738 1.390 1_455 S
C1747 H1740 0.950 . S
C1747 C1744 1.387 . S
C1748 C1749 1.387 . S
C1748 H1752 0.950 . S
C1748 C1757 1.390 . S
C1749 C1748 1.387 . S
C1749 C1751 1.387 . S
H1750 C1757 0.950 . S
C1751 C1749 1.387 . S
C1751 C1753 1.390 . S
C1751 H1755 0.950 . S
H1752 C1748 0.950 . S
C1753 C1751 1.390 . S
C1753 C1754 1.387 . S
C1753 H1756 0.950 . S
C1754 C1753 1.387 . S
C1754 C1757 1.387 . S
H1755 C1751 0.950 . S
H1756 C1753 0.950 . S
C1757 C1748 1.390 . S
C1757 H1750 0.950 . S
C1757 C1754 1.387 . S
C1758 C1759 1.387 . S
C1758 H1762 0.950 . S
C1758 C1767 1.390 . S
C1759 C1758 1.387 . S
C1759 C1761 1.387 . S
H1760 C1767 0.950 . S
C1761 C1759 1.387 . S
C1761 C1763 1.390 . S
C1761 H1765 0.950 . S
H1762 C1758 0.950 . S
C1763 C1761 1.390 . S
C1763 C1764 1.387 . S
C1763 H1766 0.950 . S
C1764 C1763 1.387 . S
C1764 C1767 1.387 . S
H1765 C1761 0.950 . S
H1766 C1763 0.950 . S
C1767 C1758 1.390 . S
C1767 H1760 0.950 . S
C1767 C1764 1.387 . S
C1768 C1769 1.387 . S
C1768 H1772 0.950 . S
C1768 C1777 1.390 . S
C1769 C1768 1.387 . S
C1769 C1771 1.387 . S
H1770 C1777 0.950 . S
C1771 C1769 1.387 . S
C1771 C1773 1.390 . S
C1771 H1775 0.950 . S
H1772 C1768 0.950 . S
C1773 C1771 1.390 . S
C1773 C1774 1.387 . S
C1773 H1776 0.950 . S
C1774 C1773 1.387 . S
C1774 C1777 1.387 . S
H1775 C1771 0.950 . S
H1776 C1773 0.950 . S
C1777 C1768 1.390 . S
C1777 H1770 0.950 . S
C1777 C1774 1.387 . S
C1778 C1779 1.387 . S
C1778 H1782 0.950 . S
C1778 C1787 1.390 . S
C1779 C1778 1.387 . S
C1779 C1781 1.387 . S
H1780 C1787 0.950 . S
C1781 C1779 1.387 . S
C1781 C1783 1.390 . S
C1781 H1785 0.950 . S
H1782 C1778 0.950 . S
C1783 C1781 1.390 . S
C1783 C1784 1.387 . S
C1783 H1786 0.950 . S
C1784 C1783 1.387 . S
C1784 C1787 1.387 . S
H1785 C1781 0.950 . S
H1786 C1783 0.950 . S
C1787 C1778 1.390 . S
C1787 H1780 0.950 . S
C1787 C1784 1.387 . S
C1788 C1789 1.387 . S
C1788 H1792 0.950 . S
C1788 C1797 1.390 . S
C1789 C1788 1.387 . S
C1789 C1791 1.387 . S
H1790 C1797 0.950 . S
C1791 C1789 1.387 . S
C1791 C1793 1.390 . S
C1791 H1795 0.950 . S
H1792 C1788 0.950 . S
C1793 C1791 1.390 . S
C1793 C1794 1.387 . S
C1793 H1796 0.950 . S
C1794 C1793 1.387 . S
C1794 C1797 1.387 . S
H1795 C1791 0.950 . S
H1796 C1793 0.950 . S
C1797 C1788 1.390 . S
C1797 H1790 0.950 . S
C1797 C1794 1.387 . S
C1798 C1799 1.387 . S
C1798 H1802 0.950 . S
C1798 C1807 1.390 1_455 S
C1799 C1798 1.387 . S
C1799 C1801 1.387 . S
H1800 C1807 0.950 . S
C1801 C1799 1.387 . S
C1801 C1803 1.390 1_455 S
C1801 H1805 0.950 . S
H1802 C1798 0.950 . S
C1803 C1801 1.390 1_655 S
C1803 C1804 1.387 . S
C1803 H1806 0.950 . S
C1804 C1803 1.387 . S
C1804 C1807 1.387 . S
H1805 C1801 0.950 . S
H1806 C1803 0.950 . S
C1807 C1798 1.390 1_655 S
C1807 H1800 0.950 . S
C1807 C1804 1.387 . S
C1808 C1809 1.387 . S
C1808 H1812 0.950 . S
C1808 C1817 1.390 . S
C1809 C1808 1.387 . S
C1809 C1811 1.387 . S
H1810 C1817 0.950 . S
C1811 C1809 1.387 . S
C1811 C1813 1.390 . S
C1811 H1815 0.950 . S
H1812 C1808 0.950 . S
C1813 C1811 1.390 . S
C1813 C1814 1.387 . S
C1813 H1816 0.950 . S
C1814 C1813 1.387 . S
C1814 C1817 1.387 . S
H1815 C1811 0.950 . S
H1816 C1813 0.950 . S
C1817 C1808 1.390 . S
C1817 H1810 0.950 . S
C1817 C1814 1.387 . S
C1818 C1819 1.387 . S
C1818 H1822 0.950 . S
C1818 C1827 1.390 . S
C1819 C1818 1.387 . S
C1819 C1821 1.387 . S
H1820 C1827 0.950 . S
C1821 C1819 1.387 . S
C1821 C1823 1.390 . S
C1821 H1825 0.950 . S
H1822 C1818 0.950 . S
C1823 C1821 1.390 . S
C1823 C1824 1.387 . S
C1823 H1826 0.950 . S
C1824 C1823 1.387 . S
C1824 C1827 1.387 . S
H1825 C1821 0.950 . S
H1826 C1823 0.950 . S
C1827 C1818 1.390 . S
C1827 H1820 0.950 . S
C1827 C1824 1.387 . S
C1828 C1829 1.387 . S
C1828 H1832 0.950 . S
C1828 C1837 1.390 . S
C1829 C1828 1.387 . S
C1829 C1831 1.387 . S
H1830 C1837 0.950 . S
C1831 C1829 1.387 . S
C1831 C1833 1.390 . S
C1831 H1835 0.950 . S
H1832 C1828 0.950 . S
C1833 C1831 1.390 . S
C1833 C1834 1.387 . S
C1833 H1836 0.950 . S
C1834 C1833 1.387 . S
C1834 C1837 1.387 . S
H1835 C1831 0.950 . S
H1836 C1833 0.950 . S
C1837 C1828 1.390 . S
C1837 H1830 0.950 . S
C1837 C1834 1.387 . S
C1838 C1839 1.387 . S
C1838 H1842 0.950 . S
C1838 C1847 1.390 . S
C1839 C1838 1.387 . S
C1839 C1841 1.387 . S
H1840 C1847 0.950 . S
C1841 C1839 1.387 . S
C1841 C1843 1.390 . S
C1841 H1845 0.950 . S
H1842 C1838 0.950 . S
C1843 C1841 1.390 . S
C1843 C1844 1.387 . S
C1843 H1846 0.950 . S
C1844 C1843 1.387 . S
C1844 C1847 1.387 . S
H1845 C1841 0.950 . S
H1846 C1843 0.950 . S
C1847 C1838 1.390 . S
C1847 H1840 0.950 . S
C1847 C1844 1.387 . S
C1848 C1849 1.387 . S
C1848 H1852 0.950 . S
C1848 C1857 1.390 . S
C1849 C1848 1.387 . S
C1849 C1851 1.387 . S
H1850 C1857 0.950 . S
C1851 C1849 1.387 . S
C1851 C1853 1.390 . S
C1851 H1855 0.950 . S
H1852 C1848 0.950 . S
C1853 C1851 1.390 . S
C1853 C1854 1.387 . S
C1853 H1856 0.950 . S
C1854 C1853 1.387 . S
C1854 C1857 1.387 . S
H1855 C1851 0.950 . S
H1856 C1853 0.950 . S
C1857 C1848 1.390 . S
C1857 H1850 0.950 . S
C1857 C1854 1.387 . S
C1858 C1859 1.387 . S
C1858 H1862 0.950 . S
C1858 C1867 1.390 1_455 S
C1859 C1858 1.387 . S
C1859 C1861 1.387 . S
H1860 C1867 0.950 . S
C1861 C1859 1.387 . S
C1861 C1863 1.390 1_455 S
C1861 H1865 0.950 . S
H1862 C1858 0.950 . S
C1863 C1861 1.390 1_655 S
C1863 C1864 1.387 . S
C1863 H1866 0.950 . S
C1864 C1863 1.387 . S
C1864 C1867 1.387 . S
H1865 C1861 0.950 . S
H1866 C1863 0.950 . S
C1867 C1858 1.390 1_655 S
C1867 H1860 0.950 . S
C1867 C1864 1.387 . S
C1868 C1869 1.387 . S
C1868 H1872 0.950 . S
C1868 C1877 1.390 1_455 S
C1869 C1868 1.387 . S
C1869 C1871 1.387 . S
H1870 C1877 0.950 . S
C1871 C1869 1.387 . S
C1871 C1873 1.390 1_455 S
C1871 H1875 0.950 . S
H1872 C1868 0.950 . S
C1873 C1871 1.390 1_655 S
C1873 C1874 1.387 . S
C1873 H1876 0.950 . S
C1874 C1873 1.387 . S
C1874 C1877 1.387 . S
H1875 C1871 0.950 . S
H1876 C1873 0.950 . S
C1877 C1868 1.390 1_655 S
C1877 H1870 0.950 . S
C1877 C1874 1.387 . S
C1878 C1879 1.387 . S
C1878 H1882 0.950 . S
C1878 C1887 1.390 . S
C1879 C1878 1.387 . S
C1879 C1881 1.387 . S
H1880 C1887 0.950 . S
C1881 C1879 1.387 . S
C1881 C1883 1.390 . S
C1881 H1885 0.950 . S
H1882 C1878 0.950 . S
C1883 C1881 1.390 . S
C1883 C1884 1.387 . S
C1883 H1886 0.950 . S
C1884 C1883 1.387 . S
C1884 C1887 1.387 . S
H1885 C1881 0.950 . S
H1886 C1883 0.950 . S
C1887 C1878 1.390 . S
C1887 H1880 0.950 . S
C1887 C1884 1.387 . S
C1089 C43 1.911 1_545 S
C1094 C33 1.819 . S
C1099 C67 1.821 . S
C1104 C77 1.911 . S
C1109 C101 1.820 . S
C1114 C111 1.912 1_565 S
C1119 C135 1.820 . S
C1124 C9 1.910 . S
C1129 C169 1.820 . S
C1134 C247 1.911 1_565 S
C1139 C145 1.910 . S
C1144 C203 1.820 . S
C1149 C237 1.823 . S
C1154 C179 1.911 1_545 S
C1159 C271 1.821 . S
C1164 C213 1.910 . S
C1169 C315 1.910 1_565 S
C1174 C305 1.821 . S
C1179 C349 1.911 . S
C1184 C339 1.820 . S
C1189 C373 1.822 . S
C1194 C383 1.911 1_545 S
C1199 C281 1.910 . S
C1204 C407 1.820 . S
C1209 C441 1.822 . S
C1214 C519 1.910 1_545 S
C1219 C475 1.821 . S
C1224 C417 1.911 . S
C1229 C451 1.912 1_565 S
C1234 C509 1.821 . S
C1239 C485 1.910 . S
C1244 C543 1.820 . S
C1249 C587 1.911 . S
C1254 C577 1.819 . S
C1259 C611 1.821 . S
C1264 C621 1.910 . S
C1269 C655 1.911 . S
C1274 C645 1.819 . S
C1279 C553 1.911 . S
C1284 C679 1.821 . S
C1289 C791 1.911 . S
C1294 C713 1.819 . S
C1299 C747 1.821 . S
C1304 C689 1.911 . S
C1309 C723 1.911 . S
C1314 C781 1.819 . S
C1319 C815 1.821 . S
C1324 C757 1.911 . S
C1329 C859 1.911 . S
C1334 C849 1.822 . S
C1339 C883 1.822 . S
C1344 C893 1.910 . S
C1349 C917 1.819 . S
C1354 C927 1.911 . S
C1359 C951 1.822 . S
C1364 C825 1.911 . S
C1369 C1063 1.911 . S
C1374 C985 1.822 . S
C1379 C961 1.910 . S
C1384 C1019 1.820 . S
C1389 C995 1.910 . S
C1394 C1053 1.822 . S
C1399 C1029 1.910 . S
C1404 C1087 1.821 . S
C1409 C209 1.021 . S
C1414 C5 1.021 . S
C1419 C39 1.023 . S
C1424 C243 1.023 . S
C1429 C73 1.021 . S
C1434 C141 1.021 . S
C1439 C107 1.022 . S
C1444 C175 1.022 . S
C1449 C481 1.022 . S
C1454 C277 1.022 . S
C1459 C515 1.021 . S
C1464 C311 1.021 . S
C1469 C345 1.022 . S
C1474 C413 1.022 . S
C1479 C447 1.020 . S
C1484 C379 1.020 . S
C1489 C549 1.021 . S
C1494 C753 1.021 . S
C1499 C583 1.022 . S
C1504 C787 1.022 . S
C1509 C685 1.022 . S
C1514 C617 1.022 . S
C1519 C719 1.022 . S
C1524 C651 1.022 . S
C1529 C1025 1.022 . S
C1534 C821 1.022 . S
C1539 C1059 1.022 . S
C1544 C855 1.022 . S
C1549 C957 1.022 . S
C1554 C889 1.022 . S
C1559 C991 1.021 . S
C1564 C923 1.021 . S
C1569 C172 1.125 . S
C1574 C2 1.125 . S
C1579 C36 1.125 . S
C1584 C206 1.125 . S
C1589 C70 1.124 . S
C1594 C240 1.124 . S
C1599 C104 1.123 . S
C1604 C138 1.123 . S
C1609 C444 1.124 . S
C1614 C274 1.124 . S
C1619 C308 1.125 . S
C1624 C478 1.125 . S
C1629 C512 1.125 . S
C1634 C342 1.124 . S
C1639 C376 1.124 . S
C1644 C410 1.124 . S
C1649 C546 1.124 . S
C1654 C716 1.124 . S
C1659 C750 1.125 . S
C1664 C580 1.125 . S
C1669 C784 1.123 . S
C1674 C614 1.123 . S
C1679 C648 1.124 . S
C1684 C682 1.124 . S
C1689 C818 1.125 . S
C1694 C988 1.125 . S
C1699 C1022 1.126 . S
C1704 C852 1.126 . S
C1709 C1056 1.126 . S
C1714 C886 1.126 . S
C1719 C954 1.125 . S
C1724 C920 1.125 . S
C1729 C20 1.551 . S
C1734 C1040 1.550 . S
C1739 C530 1.550 . S
C1744 C54 1.552 . S
C1749 C972 1.550 . S
C1754 C88 1.552 . S
C1759 C122 1.550 . S
C1764 C462 1.552 . S
C1769 C156 1.551 . S
C1774 C904 1.550 . S
C1779 C394 1.550 . S
C1784 C190 1.552 . S
C1789 C224 1.552 . S
C1794 C836 1.550 . S
C1799 C258 1.550 . S
C1804 C326 1.552 . S
C1809 C292 1.551 . S
C1814 C768 1.550 . S
C1819 C360 1.552 . S
C1824 C700 1.550 . S
C1829 C428 1.550 . S
C1834 C632 1.551 . S
C1839 C496 1.550 . S
C1844 C564 1.551 . S
C1849 C598 1.550 . S
C1854 C1074 1.552 . S
C1859 C1006 1.551 . S
C1864 C666 1.550 . S
C1869 C938 1.551 . S
C1874 C734 1.550 . S
C1879 C870 1.550 . S
C1884 C802 1.552 . S
