# Generated by pormake.
# Topology wna, (6)-cn, num edge types: 1
# Building blocks:
#     Node 0, Type 0, BuildingBlock: BETFAJ_clean_sbu_0, # of connection points: 6
#     Node 1, Type 0, BuildingBlock: BETFAJ_clean_sbu_0, # of connection points: 6
#     Node 2, Type 0, BuildingBlock: BETFAJ_clean_sbu_0, # of connection points: 6
#     Node 3, Type 0, BuildingBlock: BETFAJ_clean_sbu_0, # of connection points: 6
#     Node 4, Type 0, BuildingBlock: BETFAJ_clean_sbu_0, # of connection points: 6
#     Node 5, Type 0, BuildingBlock: BETFAJ_clean_sbu_0, # of connection points: 6
#     Node 6, Type 0, BuildingBlock: BETFAJ_clean_sbu_0, # of connection points: 6
#     Node 7, Type 0, BuildingBlock: BETFAJ_clean_sbu_0, # of connection points: 6
#     Node 8, Type 0, BuildingBlock: BETFAJ_clean_sbu_0, # of connection points: 6
#     Node 9, Type 0, BuildingBlock: BETFAJ_clean_sbu_0, # of connection points: 6
#     Node 10, Type 0, BuildingBlock: BETFAJ_clean_sbu_0, # of connection points: 6
#     Node 11, Type 0, BuildingBlock: BETFAJ_clean_sbu_0, # of connection points: 6
#     Node 12, Type 0, BuildingBlock: BETFAJ_clean_sbu_0, # of connection points: 6
#     Node 13, Type 0, BuildingBlock: BETFAJ_clean_sbu_0, # of connection points: 6
#     Node 14, Type 0, BuildingBlock: BETFAJ_clean_sbu_0, # of connection points: 6
#     Node 15, Type 0, BuildingBlock: BETFAJ_clean_sbu_0, # of connection points: 6
#     Node 16, Type 0, BuildingBlock: BETFAJ_clean_sbu_0, # of connection points: 6
#     Node 17, Type 0, BuildingBlock: BETFAJ_clean_sbu_0, # of connection points: 6
#     Node 18, Type 0, BuildingBlock: BETFAJ_clean_sbu_0, # of connection points: 6
#     Node 19, Type 0, BuildingBlock: BETFAJ_clean_sbu_0, # of connection points: 6
#     Node 20, Type 0, BuildingBlock: BETFAJ_clean_sbu_0, # of connection points: 6
#     Node 21, Type 0, BuildingBlock: BETFAJ_clean_sbu_0, # of connection points: 6
#     Node 22, Type 0, BuildingBlock: BETFAJ_clean_sbu_0, # of connection points: 6
#     Node 23, Type 0, BuildingBlock: BETFAJ_clean_sbu_0, # of connection points: 6
#     Node 24, Type 0, BuildingBlock: BETFAJ_clean_sbu_0, # of connection points: 6
#     Node 25, Type 0, BuildingBlock: BETFAJ_clean_sbu_0, # of connection points: 6
#     Node 26, Type 0, BuildingBlock: BETFAJ_clean_sbu_0, # of connection points: 6
#     Node 27, Type 0, BuildingBlock: BETFAJ_clean_sbu_0, # of connection points: 6
#     Node 28, Type 0, BuildingBlock: BETFAJ_clean_sbu_0, # of connection points: 6
#     Node 29, Type 0, BuildingBlock: BETFAJ_clean_sbu_0, # of connection points: 6
#     Node 30, Type 0, BuildingBlock: BETFAJ_clean_sbu_0, # of connection points: 6
#     Node 31, Type 0, BuildingBlock: BETFAJ_clean_sbu_0, # of connection points: 6
#     Node 32, Type 0, BuildingBlock: BETFAJ_clean_sbu_0, # of connection points: 6
#     Node 33, Type 0, BuildingBlock: BETFAJ_clean_sbu_0, # of connection points: 6
#     Node 34, Type 0, BuildingBlock: BETFAJ_clean_sbu_0, # of connection points: 6
#     Node 35, Type 0, BuildingBlock: BETFAJ_clean_sbu_0, # of connection points: 6
#     Edge 36, Type (0, 0), BuildingBlock: TEMPAE_clean_linker_10, # of connection points: 2
#     Edge 37, Type (0, 0), BuildingBlock: TEMPAE_clean_linker_10, # of connection points: 2
#     Edge 38, Type (0, 0), BuildingBlock: TEMPAE_clean_linker_10, # of connection points: 2
#     Edge 39, Type (0, 0), BuildingBlock: TEMPAE_clean_linker_10, # of connection points: 2
#     Edge 40, Type (0, 0), BuildingBlock: TEMPAE_clean_linker_10, # of connection points: 2
#     Edge 41, Type (0, 0), BuildingBlock: TEMPAE_clean_linker_10, # of connection points: 2
#     Edge 42, Type (0, 0), BuildingBlock: TEMPAE_clean_linker_10, # of connection points: 2
#     Edge 43, Type (0, 0), BuildingBlock: TEMPAE_clean_linker_10, # of connection points: 2
#     Edge 44, Type (0, 0), BuildingBlock: TEMPAE_clean_linker_10, # of connection points: 2
#     Edge 45, Type (0, 0), BuildingBlock: TEMPAE_clean_linker_10, # of connection points: 2
#     Edge 46, Type (0, 0), BuildingBlock: TEMPAE_clean_linker_10, # of connection points: 2
#     Edge 47, Type (0, 0), BuildingBlock: TEMPAE_clean_linker_10, # of connection points: 2
#     Edge 48, Type (0, 0), BuildingBlock: TEMPAE_clean_linker_10, # of connection points: 2
#     Edge 49, Type (0, 0), BuildingBlock: TEMPAE_clean_linker_10, # of connection points: 2
#     Edge 50, Type (0, 0), BuildingBlock: TEMPAE_clean_linker_10, # of connection points: 2
#     Edge 51, Type (0, 0), BuildingBlock: TEMPAE_clean_linker_10, # of connection points: 2
#     Edge 52, Type (0, 0), BuildingBlock: TEMPAE_clean_linker_10, # of connection points: 2
#     Edge 53, Type (0, 0), BuildingBlock: TEMPAE_clean_linker_10, # of connection points: 2
#     Edge 54, Type (0, 0), BuildingBlock: TEMPAE_clean_linker_10, # of connection points: 2
#     Edge 55, Type (0, 0), BuildingBlock: TEMPAE_clean_linker_10, # of connection points: 2
#     Edge 56, Type (0, 0), BuildingBlock: TEMPAE_clean_linker_10, # of connection points: 2
#     Edge 57, Type (0, 0), BuildingBlock: TEMPAE_clean_linker_10, # of connection points: 2
#     Edge 58, Type (0, 0), BuildingBlock: TEMPAE_clean_linker_10, # of connection points: 2
#     Edge 59, Type (0, 0), BuildingBlock: TEMPAE_clean_linker_10, # of connection points: 2
#     Edge 60, Type (0, 0), BuildingBlock: TEMPAE_clean_linker_10, # of connection points: 2
#     Edge 61, Type (0, 0), BuildingBlock: TEMPAE_clean_linker_10, # of connection points: 2
#     Edge 62, Type (0, 0), BuildingBlock: TEMPAE_clean_linker_10, # of connection points: 2
#     Edge 63, Type (0, 0), BuildingBlock: TEMPAE_clean_linker_10, # of connection points: 2
#     Edge 64, Type (0, 0), BuildingBlock: TEMPAE_clean_linker_10, # of connection points: 2
#     Edge 65, Type (0, 0), BuildingBlock: TEMPAE_clean_linker_10, # of connection points: 2
#     Edge 66, Type (0, 0), BuildingBlock: TEMPAE_clean_linker_10, # of connection points: 2
#     Edge 67, Type (0, 0), BuildingBlock: TEMPAE_clean_linker_10, # of connection points: 2
#     Edge 68, Type (0, 0), BuildingBlock: TEMPAE_clean_linker_10, # of connection points: 2
#     Edge 69, Type (0, 0), BuildingBlock: TEMPAE_clean_linker_10, # of connection points: 2
#     Edge 70, Type (0, 0), BuildingBlock: TEMPAE_clean_linker_10, # of connection points: 2
#     Edge 71, Type (0, 0), BuildingBlock: TEMPAE_clean_linker_10, # of connection points: 2
#     Edge 72, Type (0, 0), BuildingBlock: TEMPAE_clean_linker_10, # of connection points: 2
#     Edge 73, Type (0, 0), BuildingBlock: TEMPAE_clean_linker_10, # of connection points: 2
#     Edge 74, Type (0, 0), BuildingBlock: TEMPAE_clean_linker_10, # of connection points: 2
#     Edge 75, Type (0, 0), BuildingBlock: TEMPAE_clean_linker_10, # of connection points: 2
#     Edge 76, Type (0, 0), BuildingBlock: TEMPAE_clean_linker_10, # of connection points: 2
#     Edge 77, Type (0, 0), BuildingBlock: TEMPAE_clean_linker_10, # of connection points: 2
#     Edge 78, Type (0, 0), BuildingBlock: TEMPAE_clean_linker_10, # of connection points: 2
#     Edge 79, Type (0, 0), BuildingBlock: TEMPAE_clean_linker_10, # of connection points: 2
#     Edge 80, Type (0, 0), BuildingBlock: TEMPAE_clean_linker_10, # of connection points: 2
#     Edge 81, Type (0, 0), BuildingBlock: TEMPAE_clean_linker_10, # of connection points: 2
#     Edge 82, Type (0, 0), BuildingBlock: TEMPAE_clean_linker_10, # of connection points: 2
#     Edge 83, Type (0, 0), BuildingBlock: TEMPAE_clean_linker_10, # of connection points: 2
#     Edge 84, Type (0, 0), BuildingBlock: TEMPAE_clean_linker_10, # of connection points: 2
#     Edge 85, Type (0, 0), BuildingBlock: TEMPAE_clean_linker_10, # of connection points: 2
#     Edge 86, Type (0, 0), BuildingBlock: TEMPAE_clean_linker_10, # of connection points: 2
#     Edge 87, Type (0, 0), BuildingBlock: TEMPAE_clean_linker_10, # of connection points: 2
#     Edge 88, Type (0, 0), BuildingBlock: TEMPAE_clean_linker_10, # of connection points: 2
#     Edge 89, Type (0, 0), BuildingBlock: TEMPAE_clean_linker_10, # of connection points: 2
#     Edge 90, Type (0, 0), BuildingBlock: TEMPAE_clean_linker_10, # of connection points: 2
#     Edge 91, Type (0, 0), BuildingBlock: TEMPAE_clean_linker_10, # of connection points: 2
#     Edge 92, Type (0, 0), BuildingBlock: TEMPAE_clean_linker_10, # of connection points: 2
#     Edge 93, Type (0, 0), BuildingBlock: TEMPAE_clean_linker_10, # of connection points: 2
#     Edge 94, Type (0, 0), BuildingBlock: TEMPAE_clean_linker_10, # of connection points: 2
#     Edge 95, Type (0, 0), BuildingBlock: TEMPAE_clean_linker_10, # of connection points: 2
#     Edge 96, Type (0, 0), BuildingBlock: TEMPAE_clean_linker_10, # of connection points: 2
#     Edge 97, Type (0, 0), BuildingBlock: TEMPAE_clean_linker_10, # of connection points: 2
#     Edge 98, Type (0, 0), BuildingBlock: TEMPAE_clean_linker_10, # of connection points: 2
#     Edge 99, Type (0, 0), BuildingBlock: TEMPAE_clean_linker_10, # of connection points: 2
#     Edge 100, Type (0, 0), BuildingBlock: TEMPAE_clean_linker_10, # of connection points: 2
#     Edge 101, Type (0, 0), BuildingBlock: TEMPAE_clean_linker_10, # of connection points: 2
#     Edge 102, Type (0, 0), BuildingBlock: TEMPAE_clean_linker_10, # of connection points: 2
#     Edge 103, Type (0, 0), BuildingBlock: TEMPAE_clean_linker_10, # of connection points: 2
#     Edge 104, Type (0, 0), BuildingBlock: TEMPAE_clean_linker_10, # of connection points: 2
#     Edge 105, Type (0, 0), BuildingBlock: TEMPAE_clean_linker_10, # of connection points: 2
#     Edge 106, Type (0, 0), BuildingBlock: TEMPAE_clean_linker_10, # of connection points: 2
#     Edge 107, Type (0, 0), BuildingBlock: TEMPAE_clean_linker_10, # of connection points: 2
#     Edge 108, Type (0, 0), BuildingBlock: TEMPAE_clean_linker_10, # of connection points: 2
#     Edge 109, Type (0, 0), BuildingBlock: TEMPAE_clean_linker_10, # of connection points: 2
#     Edge 110, Type (0, 0), BuildingBlock: TEMPAE_clean_linker_10, # of connection points: 2
#     Edge 111, Type (0, 0), BuildingBlock: TEMPAE_clean_linker_10, # of connection points: 2
#     Edge 112, Type (0, 0), BuildingBlock: TEMPAE_clean_linker_10, # of connection points: 2
#     Edge 113, Type (0, 0), BuildingBlock: TEMPAE_clean_linker_10, # of connection points: 2
#     Edge 114, Type (0, 0), BuildingBlock: TEMPAE_clean_linker_10, # of connection points: 2
#     Edge 115, Type (0, 0), BuildingBlock: TEMPAE_clean_linker_10, # of connection points: 2
#     Edge 116, Type (0, 0), BuildingBlock: TEMPAE_clean_linker_10, # of connection points: 2
#     Edge 117, Type (0, 0), BuildingBlock: TEMPAE_clean_linker_10, # of connection points: 2
#     Edge 118, Type (0, 0), BuildingBlock: TEMPAE_clean_linker_10, # of connection points: 2
#     Edge 119, Type (0, 0), BuildingBlock: TEMPAE_clean_linker_10, # of connection points: 2
#     Edge 120, Type (0, 0), BuildingBlock: TEMPAE_clean_linker_10, # of connection points: 2
#     Edge 121, Type (0, 0), BuildingBlock: TEMPAE_clean_linker_10, # of connection points: 2
#     Edge 122, Type (0, 0), BuildingBlock: TEMPAE_clean_linker_10, # of connection points: 2
#     Edge 123, Type (0, 0), BuildingBlock: TEMPAE_clean_linker_10, # of connection points: 2
#     Edge 124, Type (0, 0), BuildingBlock: TEMPAE_clean_linker_10, # of connection points: 2
#     Edge 125, Type (0, 0), BuildingBlock: TEMPAE_clean_linker_10, # of connection points: 2
#     Edge 126, Type (0, 0), BuildingBlock: TEMPAE_clean_linker_10, # of connection points: 2
#     Edge 127, Type (0, 0), BuildingBlock: TEMPAE_clean_linker_10, # of connection points: 2
#     Edge 128, Type (0, 0), BuildingBlock: TEMPAE_clean_linker_10, # of connection points: 2
#     Edge 129, Type (0, 0), BuildingBlock: TEMPAE_clean_linker_10, # of connection points: 2
#     Edge 130, Type (0, 0), BuildingBlock: TEMPAE_clean_linker_10, # of connection points: 2
#     Edge 131, Type (0, 0), BuildingBlock: TEMPAE_clean_linker_10, # of connection points: 2
#     Edge 132, Type (0, 0), BuildingBlock: TEMPAE_clean_linker_10, # of connection points: 2
#     Edge 133, Type (0, 0), BuildingBlock: TEMPAE_clean_linker_10, # of connection points: 2
#     Edge 134, Type (0, 0), BuildingBlock: TEMPAE_clean_linker_10, # of connection points: 2
#     Edge 135, Type (0, 0), BuildingBlock: TEMPAE_clean_linker_10, # of connection points: 2
#     Edge 136, Type (0, 0), BuildingBlock: TEMPAE_clean_linker_10, # of connection points: 2
#     Edge 137, Type (0, 0), BuildingBlock: TEMPAE_clean_linker_10, # of connection points: 2
#     Edge 138, Type (0, 0), BuildingBlock: TEMPAE_clean_linker_10, # of connection points: 2
#     Edge 139, Type (0, 0), BuildingBlock: TEMPAE_clean_linker_10, # of connection points: 2
#     Edge 140, Type (0, 0), BuildingBlock: TEMPAE_clean_linker_10, # of connection points: 2
#     Edge 141, Type (0, 0), BuildingBlock: TEMPAE_clean_linker_10, # of connection points: 2
#     Edge 142, Type (0, 0), BuildingBlock: TEMPAE_clean_linker_10, # of connection points: 2
#     Edge 143, Type (0, 0), BuildingBlock: TEMPAE_clean_linker_10, # of connection points: 2
# Relax obj value: 0.159
# Max RMSD: 0.226
# Mean RMSD: 0.209
data_MOF--net-wna--node1-BETFAJ_clean_sbu_0--edge1-TEMPAE_clean_linker_10
_symmetry_space_group_name_H-M    P1
_symmetry_Int_Tables_number       1
_symmetry_cell_setting            triclinic
loop_
_symmetry_equiv_pos_as_xyz
'x, y, z'
_cell_length_a     41.783865
_cell_length_b     41.802175
_cell_length_c     153.53117
_cell_angle_alpha  90.00273
_cell_angle_beta   89.960993
_cell_angle_gamma 119.98948
loop_
_atom_site_label
_atom_site_type_symbol
_atom_site_fract_x
_atom_site_fract_y
_atom_site_fract_z
_atom_type_partial_charge
Sm0 Sm 0.11055 0.249 0.16898 0.0
Sm1 Sm 0.12124 0.24615 0.18963 0.0
C2 C 0.10526 0.26943 0.15286 0.0
C3 C 0.12117 0.28096 0.14394 0.0
C4 C 0.14192 0.31854 0.14166 0.0
C5 C 0.15203 0.32926 0.13296 0.0
C6 C 0.14143 0.30271 0.12628 0.0
C7 C 0.12153 0.26513 0.12863 0.0
C8 C 0.1115 0.25444 0.13731 0.0
C9 C 0.12123 0.19257 0.17445 0.0
C10 C 0.19577 0.29538 0.17753 0.0
C11 C 0.12714 0.22638 0.20572 0.0
C12 C 0.10872 0.21982 0.21433 0.0
C13 C 0.10873 0.19341 0.21996 0.0
C14 C 0.09175 0.18672 0.22816 0.0
C15 C 0.07428 0.20633 0.23094 0.0
C16 C 0.07425 0.2328 0.22525 0.0
C17 C 0.09119 0.23939 0.21702 0.0
C18 C 0.09199 0.29195 0.18578 0.0
C19 C 0.04074 0.19031 0.18048 0.0
O20 O 0.11923 0.2928 0.15936 0.0
O21 O 0.09301 0.23513 0.15521 0.0
O22 O 0.13744 0.2249 0.17766 0.0
O23 O 0.10137 0.19054 0.16773 0.0
O24 O 0.17462 0.28567 0.17043 0.0
O25 O 0.18208 0.28396 0.18545 0.0
O26 O 0.10868 0.20256 0.19955 0.0
O27 O 0.1455 0.26057 0.20291 0.0
O28 O 0.10016 0.27382 0.18063 0.0
O29 O 0.1006 0.28709 0.19358 0.0
O30 O 0.06453 0.19518 0.18673 0.0
O31 O 0.05029 0.21299 0.17371 0.0
H32 H 0.14947 0.33977 0.14656 0.0
H33 H 0.16778 0.35845 0.13145 0.0
H34 H 0.1123 0.24381 0.1237 0.0
H35 H 0.09491 0.22526 0.13877 0.0
H36 H 0.1221 0.178 0.21803 0.0
H37 H 0.09282 0.16651 0.23237 0.0
H38 H 0.06072 0.24812 0.2271 0.0
H39 H 0.09054 0.25975 0.21277 0.0
Sm40 Sm 0.76429 0.86633 0.16938 0.0
Sm41 Sm 0.76976 0.8803 0.19006 0.0
C42 C 0.7423 0.83951 0.15341 0.0
C43 C 0.72777 0.84085 0.14464 0.0
C44 C 0.69679 0.80905 0.14139 0.0
C45 C 0.68579 0.8072 0.13269 0.0
C46 C 0.70557 0.83712 0.12697 0.0
C47 C 0.73578 0.86955 0.13033 0.0
C48 C 0.74683 0.87135 0.13905 0.0
C49 C 0.82091 0.9339 0.17462 0.0
C50 C 0.71767 0.90365 0.17842 0.0
C51 C 0.7904 0.90621 0.2061 0.0
C52 C 0.79798 0.89445 0.21461 0.0
C53 C 0.82741 0.92018 0.21975 0.0
C54 C 0.83493 0.91006 0.22788 0.0
C55 C 0.8131 0.87387 0.2311 0.0
C56 C 0.78366 0.84805 0.22591 0.0
C57 C 0.77625 0.85818 0.21775 0.0
C58 C 0.72525 0.80485 0.18642 0.0
C59 C 0.82533 0.85693 0.18037 0.0
O60 O 0.72001 0.82829 0.16015 0.0
O61 O 0.77624 0.8645 0.15538 0.0
O62 O 0.78894 0.91742 0.17804 0.0
O63 O 0.82246 0.91607 0.16783 0.0
O64 O 0.72692 0.89251 0.17121 0.0
O65 O 0.73002 0.90162 0.18625 0.0
O66 O 0.81395 0.91231 0.19979 0.0
O67 O 0.75596 0.88987 0.20343 0.0
O68 O 0.74133 0.83119 0.18115 0.0
O69 O 0.73274 0.81844 0.19422 0.0
O70 O 0.8211 0.87609 0.18667 0.0
O71 O 0.80187 0.84333 0.17375 0.0
H72 H 0.68173 0.785 0.14551 0.0
H73 H 0.66204 0.782 0.13041 0.0
H74 H 0.75188 0.89306 0.12613 0.0
H75 H 0.77104 0.8962 0.14131 0.0
H76 H 0.84454 0.94832 0.21749 0.0
H77 H 0.85752 0.93085 0.23171 0.0
H78 H 0.76654 0.81984 0.2281 0.0
H79 H 0.75352 0.83764 0.2139 0.0
Sm80 Sm 0.14822 0.90254 0.16879 0.0
Sm81 Sm 0.13352 0.89356 0.1895 0.0
C82 C 0.17554 0.90795 0.15286 0.0
C83 C 0.17398 0.89136 0.1442 0.0
C84 C 0.20679 0.89602 0.14051 0.0
C85 C 0.20765 0.88571 0.13187 0.0
C86 C 0.17564 0.87045 0.12666 0.0
C87 C 0.14242 0.86458 0.13048 0.0
C88 C 0.1416 0.87496 0.13914 0.0
C89 C 0.0806 0.89153 0.17397 0.0
C90 C 0.1106 0.81841 0.17773 0.0
C91 C 0.10741 0.88787 0.20552 0.0
C92 C 0.11925 0.90692 0.21407 0.0
C93 C 0.0952 0.91496 0.21873 0.0
C94 C 0.10527 0.93225 0.22689 0.0
C95 C 0.1397 0.94188 0.23065 0.0
C96 C 0.16391 0.93404 0.22591 0.0
C97 C 0.15385 0.91684 0.21773 0.0
C98 C 0.20891 0.92397 0.18583 0.0
C99 C 0.15738 0.97274 0.17991 0.0
O100 O 0.18718 0.8975 0.15962 0.0
O101 O 0.14996 0.91614 0.15479 0.0
O102 O 0.09699 0.87601 0.1774 0.0
O103 O 0.09847 0.9109 0.16719 0.0
O104 O 0.12289 0.83908 0.17058 0.0
O105 O 0.11152 0.83262 0.18553 0.0
O106 O 0.1015 0.90563 0.19926 0.0
O107 O 0.12339 0.86949 0.2028 0.0
O108 O 0.18247 0.91392 0.18062 0.0
O109 O 0.19551 0.91801 0.19365 0.0
O110 O 0.13804 0.94924 0.18617 0.0
O111 O 0.17102 0.96301 0.17326 0.0
H112 H 0.23225 0.90902 0.14423 0.0
H113 H 0.23386 0.89116 0.12917 0.0
H114 H 0.11709 0.8524 0.12673 0.0
H115 H 0.11586 0.87106 0.14179 0.0
H116 H 0.06844 0.90777 0.21605 0.0
H117 H 0.0861 0.93837 0.23022 0.0
H118 H 0.19047 0.94062 0.2286 0.0
H119 H 0.17308 0.91112 0.21429 0.0
Sm120 Sm 0.2493 0.1001 0.35224 0.0
Sm121 Sm 0.24639 0.11213 0.33155 0.0
C122 C 0.26983 0.09251 0.36813 0.0
C123 C 0.28445 0.10816 0.37687 0.0
C124 C 0.31695 0.10966 0.37985 0.0
C125 C 0.32828 0.11865 0.38853 0.0
C126 C 0.30718 0.12611 0.39448 0.0
C127 C 0.27532 0.12589 0.39141 0.0
C128 C 0.26407 0.11701 0.38271 0.0
C129 C 0.19308 0.11132 0.34689 0.0
C130 C 0.29626 0.18571 0.34395 0.0
C131 C 0.22648 0.1186 0.31553 0.0
C132 C 0.21908 0.10004 0.30692 0.0
C133 C 0.18948 0.0965 0.30188 0.0
C134 C 0.18193 0.07944 0.29369 0.0
C135 C 0.20388 0.0655 0.2903 0.0
C136 C 0.23343 0.06886 0.29542 0.0
C137 C 0.24091 0.08588 0.30364 0.0
C138 C 0.29209 0.08265 0.33542 0.0
C139 C 0.18989 0.03145 0.34061 0.0
O140 O 0.29236 0.10335 0.36143 0.0
O141 O 0.23627 0.08486 0.36613 0.0
O142 O 0.22548 0.12762 0.34369 0.0
O143 O 0.19086 0.09105 0.35355 0.0
O144 O 0.28745 0.16397 0.35094 0.0
O145 O 0.28368 0.17262 0.33604 0.0
O146 O 0.20268 0.10062 0.32175 0.0
O147 O 0.26082 0.13642 0.31827 0.0
O148 O 0.27336 0.09045 0.34044 0.0
O149 O 0.28774 0.09165 0.32761 0.0
O150 O 0.19515 0.05551 0.33439 0.0
O151 O 0.21254 0.04036 0.34736 0.0
H152 H 0.33291 0.10243 0.37554 0.0
H153 H 0.35273 0.11818 0.39067 0.0
H154 H 0.25871 0.13204 0.39576 0.0
H155 H 0.23878 0.11598 0.38066 0.0
H156 H 0.17209 0.10698 0.30429 0.0
H157 H 0.15854 0.07684 0.29006 0.0
H158 H 0.2512 0.05884 0.29303 0.0
H159 H 0.26386 0.08809 0.3074 0.0
Sm160 Sm 0.90439 0.14648 0.3531 0.0
Sm161 Sm 0.89636 0.13235 0.3326 0.0
C162 C 0.91338 0.18047 0.36828 0.0
C163 C 0.89926 0.17885 0.37725 0.0
C164 C 0.9024 0.21104 0.38092 0.0
C165 C 0.89323 0.21187 0.38967 0.0
C166 C 0.8806 0.18042 0.39502 0.0
C167 C 0.87657 0.14782 0.39124 0.0
C168 C 0.88582 0.14705 0.38247 0.0
C169 C 0.87972 0.07255 0.34989 0.0
C170 C 0.82142 0.10386 0.34398 0.0
C171 C 0.89824 0.11584 0.3159 0.0
C172 C 0.91983 0.13027 0.30767 0.0
C173 C 0.94352 0.11745 0.30487 0.0
C174 C 0.96149 0.12819 0.29679 0.0
C175 C 0.95614 0.1519 0.29122 0.0
C176 C 0.93281 0.16512 0.29408 0.0
C177 C 0.91486 0.1544 0.30218 0.0
C178 C 0.91501 0.20309 0.33817 0.0
C179 C 0.97477 0.15104 0.34238 0.0
O180 O 0.89561 0.18455 0.36172 0.0
O181 O 0.92742 0.15934 0.36647 0.0
O182 O 0.88597 0.0975 0.34442 0.0
O183 O 0.88676 0.08684 0.35767 0.0
O184 O 0.8424 0.12741 0.35014 0.0
O185 O 0.83608 0.09678 0.33711 0.0
O186 O 0.91294 0.10635 0.3222 0.0
O187 O 0.87941 0.13101 0.31878 0.0
O188 O 0.92721 0.18322 0.34118 0.0
O189 O 0.89263 0.18594 0.33178 0.0
O190 O 0.95406 0.14014 0.33528 0.0
O191 O 0.96348 0.15881 0.34975 0.0
H192 H 0.91305 0.23605 0.37707 0.0
H193 H 0.89729 0.23765 0.39232 0.0
H194 H 0.86646 0.12289 0.39509 0.0
H195 H 0.88313 0.1218 0.37982 0.0
H196 H 0.94757 0.09838 0.30886 0.0
H197 H 0.97874 0.11695 0.29479 0.0
H198 H 0.92831 0.18375 0.29005 0.0
H199 H 0.89662 0.16463 0.30406 0.0
Sm200 Sm 0.86407 0.75975 0.35295 0.0
Sm201 Sm 0.87736 0.76587 0.33225 0.0
C202 C 0.83824 0.73727 0.369 0.0
C203 C 0.84274 0.72579 0.37791 0.0
C204 C 0.82257 0.68847 0.38042 0.0
C205 C 0.82194 0.67806 0.38915 0.0
C206 C 0.8412 0.70473 0.39564 0.0
C207 C 0.8623 0.74197 0.39306 0.0
C208 C 0.863 0.75234 0.38434 0.0
C209 C 0.93172 0.81623 0.34766 0.0
C210 C 0.90251 0.71455 0.34366 0.0
C211 C 0.90241 0.78728 0.31617 0.0
C212 C 0.89039 0.79496 0.30766 0.0
C213 C 0.90777 0.83124 0.30439 0.0
C214 C 0.89799 0.839 0.29625 0.0
C215 C 0.87069 0.81062 0.29109 0.0
C216 C 0.85321 0.77428 0.29438 0.0
C217 C 0.86289 0.76655 0.30255 0.0
C218 C 0.80207 0.72041 0.336 0.0
C219 C 0.85418 0.82092 0.34225 0.0
O220 O 0.83037 0.71446 0.36243 0.0
O221 O 0.85889 0.77196 0.36677 0.0
O222 O 0.91472 0.7845 0.34419 0.0
O223 O 0.91456 0.81757 0.35461 0.0
O224 O 0.89116 0.72325 0.35092 0.0
O225 O 0.9 0.72696 0.33588 0.0
O226 O 0.90841 0.81047 0.32256 0.0
O227 O 0.88705 0.75282 0.3188 0.0
O228 O 0.82846 0.73668 0.34125 0.0
O229 O 0.81549 0.72827 0.32819 0.0
O230 O 0.8736 0.81726 0.33592 0.0
O231 O 0.84015 0.79668 0.34871 0.0
H232 H 0.80626 0.66732 0.37568 0.0
H233 H 0.80582 0.64907 0.39082 0.0
H234 H 0.87712 0.76344 0.39783 0.0
H235 H 0.87837 0.78143 0.38271 0.0
H236 H 0.92932 0.8537 0.30811 0.0
H237 H 0.91246 0.86722 0.29391 0.0
H238 H 0.83179 0.75175 0.29065 0.0
H239 H 0.84891 0.73824 0.30483 0.0
Sm240 Sm 0.90114 0.77158 0.8329 0.0
Sm241 Sm 0.90728 0.76081 0.85355 0.0
C242 C 0.89728 0.7934 0.81689 0.0
C243 C 0.9153 0.7989 0.80818 0.0
C244 C 0.94833 0.83165 0.80618 0.0
C245 C 0.96408 0.83738 0.79784 0.0
C246 C 0.94726 0.81062 0.79125 0.0
C247 C 0.91433 0.77782 0.79327 0.0
C248 C 0.89852 0.77212 0.8016 0.0
C249 C 0.92999 0.72458 0.83615 0.0
C250 C 0.97828 0.82431 0.84317 0.0
C251 C 0.91121 0.73632 0.86932 0.0
C252 C 0.8965 0.72681 0.87838 0.0
C253 C 0.87309 0.68981 0.88086 0.0
C254 C 0.8638 0.68033 0.88965 0.0
C255 C 0.87805 0.70755 0.89621 0.0
C256 C 0.90054 0.74464 0.89368 0.0
C257 C 0.90967 0.75412 0.88491 0.0
C258 C 0.89663 0.81868 0.84916 0.0
C259 C 0.82419 0.71854 0.84406 0.0
O260 O 0.91652 0.81633 0.82317 0.0
O261 O 0.8764 0.75931 0.81963 0.0
O262 O 0.91947 0.74011 0.84147 0.0
O263 O 0.9252 0.73389 0.82843 0.0
O264 O 0.95518 0.8226 0.83708 0.0
O265 O 0.96818 0.79798 0.84915 0.0
O266 O 0.89264 0.71424 0.86286 0.0
O267 O 0.92879 0.77116 0.86706 0.0
O268 O 0.88237 0.78792 0.84525 0.0
O269 O 0.91358 0.81778 0.85617 0.0
O270 O 0.84412 0.72198 0.85113 0.0
O271 O 0.83937 0.73596 0.83665 0.0
H272 H 0.96197 0.85308 0.81103 0.0
H273 H 0.98964 0.8628 0.79657 0.0
H274 H 0.90023 0.75679 0.78836 0.0
H275 H 0.87281 0.74683 0.80286 0.0
H276 H 0.86295 0.66798 0.87605 0.0
H277 H 0.8467 0.65146 0.89135 0.0
H278 H 0.91163 0.76641 0.89851 0.0
H279 H 0.92809 0.78286 0.88329 0.0
Sm280 Sm 0.24791 0.13502 0.8342 0.0
Sm281 Sm 0.25606 0.14738 0.85454 0.0
C282 C 0.22896 0.11861 0.81754 0.0
C283 C 0.22307 0.13304 0.80918 0.0
C284 C 0.18745 0.11668 0.80556 0.0
C285 C 0.18161 0.12731 0.79732 0.0
C286 C 0.21129 0.15452 0.79244 0.0
C287 C 0.24691 0.17133 0.79613 0.0
C288 C 0.25274 0.16074 0.80439 0.0
C289 C 0.30069 0.20543 0.83974 0.0
C290 C 0.18886 0.15244 0.84465 0.0
C291 C 0.28167 0.18091 0.86973 0.0
C292 C 0.29364 0.17821 0.87866 0.0
C293 C 0.32315 0.20968 0.88244 0.0
C294 C 0.33259 0.20956 0.89119 0.0
C295 C 0.31268 0.17788 0.8964 0.0
C296 C 0.28369 0.14597 0.89251 0.0
C297 C 0.27426 0.14612 0.88374 0.0
C298 C 0.20715 0.07344 0.85149 0.0
C299 C 0.29594 0.10621 0.84482 0.0
O300 O 0.20497 0.11108 0.82381 0.0
O301 O 0.26279 0.13217 0.82042 0.0
O302 O 0.269 0.18553 0.84295 0.0
O303 O 0.30524 0.18846 0.8332 0.0
O304 O 0.19907 0.1445 0.83717 0.0
O305 O 0.20721 0.15712 0.85201 0.0
O306 O 0.30334 0.18446 0.86316 0.0
O307 O 0.24644 0.16073 0.86789 0.0
O308 O 0.22406 0.09825 0.84583 0.0
O309 O 0.21642 0.08768 0.85924 0.0
O310 O 0.29944 0.12971 0.85107 0.0
O311 O 0.27292 0.09903 0.83823 0.0
H312 H 0.16411 0.09491 0.80902 0.0
H313 H 0.15389 0.11334 0.79467 0.0
H314 H 0.27038 0.19269 0.79263 0.0
H315 H 0.28061 0.17387 0.80695 0.0
H316 H 0.33828 0.23486 0.87868 0.0
H317 H 0.3547 0.23482 0.89394 0.0
H318 H 0.26806 0.1209 0.89627 0.0
H319 H 0.25134 0.12143 0.88099 0.0
Sm320 Sm 0.88265 0.11727 0.83221 0.0
Sm321 Sm 0.86748 0.11179 0.85389 0.0
C322 C 0.90808 0.12009 0.81626 0.0
C323 C 0.89578 0.10136 0.80769 0.0
C324 C 0.91585 0.08654 0.80375 0.0
C325 C 0.90538 0.0692 0.79561 0.0
C326 C 0.87461 0.06636 0.79117 0.0
C327 C 0.85448 0.08123 0.79513 0.0
C328 C 0.86486 0.09844 0.80331 0.0
C329 C 0.80852 0.09158 0.83672 0.0
C330 C 0.8633 0.04101 0.84303 0.0
C331 C 0.83408 0.10228 0.86916 0.0
C332 C 0.83795 0.11598 0.87828 0.0
C333 C 0.8232 0.13841 0.88075 0.0
C334 C 0.82278 0.14768 0.88951 0.0
C335 C 0.83685 0.13456 0.89608 0.0
C336 C 0.85232 0.11277 0.89357 0.0
C337 C 0.85277 0.10354 0.88482 0.0
C338 C 0.94031 0.13475 0.84972 0.0
C339 C 0.90779 0.19336 0.84396 0.0
O340 O 0.9115 0.10087 0.82258 0.0
O341 O 0.89479 0.1411 0.81887 0.0
O342 O 0.83568 0.09925 0.84151 0.0
O343 O 0.82064 0.09819 0.82875 0.0
O344 O 0.87735 0.06174 0.83599 0.0
O345 O 0.85262 0.05208 0.85004 0.0
O346 O 0.83142 0.12199 0.86282 0.0
O347 O 0.85247 0.08566 0.86693 0.0
O348 O 0.91366 0.12679 0.84468 0.0
O349 O 0.92883 0.13188 0.85774 0.0
O350 O 0.88762 0.17351 0.85073 0.0
O351 O 0.91253 0.17834 0.83677 0.0
H352 H 0.93989 0.08858 0.80696 0.0
H353 H 0.92185 0.05855 0.79273 0.0
H354 H 0.83041 0.07921 0.79194 0.0
H355 H 0.84869 0.10944 0.80618 0.0
H356 H 0.81115 0.14812 0.87592 0.0
H357 H 0.81107 0.1649 0.89115 0.0
H358 H 0.86292 0.10166 0.89842 0.0
H359 H 0.86381 0.08571 0.88321 0.0
Sm360 Sm 0.77145 0.89866 0.6904 0.0
Sm361 Sm 0.76521 0.90808 0.66982 0.0
C362 C 0.79253 0.89226 0.70627 0.0
C363 C 0.79979 0.91107 0.71483 0.0
C364 C 0.83097 0.9174 0.71963 0.0
C365 C 0.8384 0.93491 0.72776 0.0
C366 C 0.8147 0.94641 0.7313 0.0
C367 C 0.78347 0.94011 0.72645 0.0
C368 C 0.77617 0.92277 0.71829 0.0
C369 C 0.72633 0.92921 0.68711 0.0
C370 C 0.82645 0.97802 0.68085 0.0
C371 C 0.74308 0.91371 0.65395 0.0
C372 C 0.7276 0.89711 0.64533 0.0
C373 C 0.69759 0.89961 0.64204 0.0
C374 C 0.68587 0.88964 0.63342 0.0
C375 C 0.70395 0.87699 0.62785 0.0
C376 C 0.73304 0.87299 0.63127 0.0
C377 C 0.74482 0.88304 0.63991 0.0
C378 C 0.82183 0.8966 0.67484 0.0
C379 C 0.71847 0.82391 0.67866 0.0
O380 O 0.81595 0.91047 0.69999 0.0
O381 O 0.75809 0.87382 0.70361 0.0
O382 O 0.74249 0.91946 0.68174 0.0
O383 O 0.73407 0.92277 0.69485 0.0
O384 O 0.82256 0.9544 0.68706 0.0
O385 O 0.80275 0.96842 0.6743 0.0
O386 O 0.72121 0.90351 0.66076 0.0
O387 O 0.77684 0.92163 0.65581 0.0
O388 O 0.78986 0.88105 0.67823 0.0
O389 O 0.82347 0.91647 0.66816 0.0
O390 O 0.72674 0.8447 0.67153 0.0
O391 O 0.73209 0.83793 0.68644 0.0
H392 H 0.84958 0.90863 0.71711 0.0
H393 H 0.86245 0.9389 0.73135 0.0
H394 H 0.76488 0.94899 0.72892 0.0
H395 H 0.75207 0.91854 0.71469 0.0
H396 H 0.68396 0.91057 0.64606 0.0
H397 H 0.66299 0.8925 0.63107 0.0
H398 H 0.74779 0.86358 0.62716 0.0
H399 H 0.7682 0.88099 0.64223 0.0
Sm400 Sm 0.11821 0.87314 0.68872 0.0
Sm401 Sm 0.10844 0.86238 0.66937 0.0
C402 C 0.11797 0.88777 0.70564 0.0
C403 C 0.09614 0.87482 0.71388 0.0
C404 C 0.06823 0.88322 0.71583 0.0
C405 C 0.05065 0.87433 0.72399 0.0
C406 C 0.06061 0.85697 0.73045 0.0
C407 C 0.088 0.84792 0.72841 0.0
C408 C 0.10558 0.85683 0.72027 0.0
C409 C 0.09728 0.80196 0.68318 0.0
C410 C 0.03829 0.85403 0.68003 0.0
C411 C 0.1027 0.83811 0.65308 0.0
C412 C 0.1187 0.83883 0.64436 0.0
C413 C 0.11162 0.80537 0.64056 0.0
C414 C 0.12125 0.80403 0.63187 0.0
C415 C 0.13824 0.83621 0.6267 0.0
C416 C 0.14646 0.86998 0.63063 0.0
C417 C 0.13675 0.87128 0.63934 0.0
C418 C 0.12217 0.9309 0.67455 0.0
C419 C 0.19342 0.89916 0.67773 0.0
O420 O 0.10674 0.90163 0.69953 0.0
O421 O 0.13219 0.86855 0.70251 0.0
O422 O 0.08417 0.8215 0.68046 0.0
O423 O 0.12215 0.81981 0.68904 0.0
O424 O 0.06166 0.86926 0.68655 0.0
O425 O 0.04783 0.84259 0.67299 0.0
O426 O 0.10994 0.82295 0.6597 0.0
O427 O 0.09822 0.86581 0.65532 0.0
O428 O 0.13845 0.91466 0.67764 0.0
O429 O 0.10028 0.91226 0.66819 0.0
O430 O 0.17144 0.88208 0.67101 0.0
O431 O 0.17985 0.90315 0.68515 0.0
H432 H 0.0605 0.8975 0.71113 0.0
H433 H 0.03005 0.88218 0.72533 0.0
H434 H 0.0961 0.83406 0.73313 0.0
H435 H 0.12718 0.85027 0.71904 0.0
H436 H 0.09726 0.77984 0.64422 0.0
H437 H 0.11393 0.77741 0.6291 0.0
H438 H 0.16002 0.89546 0.62694 0.0
H439 H 0.14249 0.89753 0.64206 0.0
Sm440 Sm 0.14143 0.2472 0.68939 0.0
Sm441 Sm 0.15324 0.24918 0.67009 0.0
C442 C 0.12547 0.23153 0.70623 0.0
C443 C 0.13803 0.22269 0.71447 0.0
C444 C 0.11251 0.19273 0.71952 0.0
C445 C 0.12248 0.18538 0.72768 0.0
C446 C 0.15831 0.20791 0.73102 0.0
C447 C 0.1841 0.23758 0.72587 0.0
C448 C 0.1741 0.24487 0.71769 0.0
C449 C 0.21272 0.29811 0.68405 0.0
C450 C 0.16282 0.18817 0.68066 0.0
C451 C 0.17797 0.26873 0.65387 0.0
C452 C 0.17632 0.28406 0.64525 0.0
C453 C 0.20848 0.31427 0.64187 0.0
C454 C 0.20972 0.3258 0.63325 0.0
C455 C 0.17884 0.30731 0.62773 0.0
C456 C 0.14611 0.27796 0.63124 0.0
C457 C 0.14489 0.26639 0.63988 0.0
C458 C 0.08441 0.19398 0.67501 0.0
C459 C 0.11567 0.29648 0.67844 0.0
O460 O 0.1126 0.20648 0.7001 0.0
O461 O 0.14462 0.26508 0.70315 0.0
O462 O 0.19351 0.26558 0.68126 0.0
O463 O 0.19457 0.30469 0.68993 0.0
O464 O 0.14644 0.1952 0.68713 0.0
O465 O 0.17449 0.20968 0.67372 0.0
O466 O 0.19221 0.29106 0.66054 0.0
O467 O 0.15121 0.23589 0.65605 0.0
O468 O 0.10042 0.22629 0.6782 0.0
O469 O 0.10358 0.19107 0.66872 0.0
O470 O 0.13348 0.29231 0.67177 0.0
O471 O 0.11109 0.27834 0.68579 0.0
H472 H 0.08445 0.17539 0.71724 0.0
H473 H 0.10169 0.16262 0.73147 0.0
H474 H 0.21206 0.25523 0.72816 0.0
H475 H 0.19446 0.26817 0.71395 0.0
H476 H 0.23321 0.32825 0.64582 0.0
H477 H 0.2352 0.34889 0.63085 0.0
H478 H 0.12186 0.26286 0.62719 0.0
H479 H 0.11973 0.2428 0.64225 0.0
Sm480 Sm 0.77461 0.58355 0.50294 0.0
Sm481 Sm 0.78486 0.58172 0.522 0.0
C482 C 0.76924 0.6018 0.48656 0.0
C483 C 0.78575 0.61439 0.47773 0.0
C484 C 0.80423 0.65205 0.47545 0.0
C485 C 0.81465 0.6632 0.46678 0.0
C486 C 0.80663 0.63701 0.46013 0.0
C487 C 0.78902 0.59943 0.46247 0.0
C488 C 0.77869 0.58832 0.47113 0.0
C489 C 0.78771 0.52757 0.5076 0.0
C490 C 0.85934 0.6295 0.51109 0.0
C491 C 0.78495 0.56734 0.53895 0.0
C492 C 0.76433 0.56086 0.54731 0.0
C493 C 0.74419 0.52492 0.55075 0.0
C494 C 0.72768 0.51864 0.559 0.0
C495 C 0.731 0.54816 0.5641 0.0
C496 C 0.75069 0.58409 0.56059 0.0
C497 C 0.76719 0.59037 0.55232 0.0
C498 C 0.7638 0.63245 0.51666 0.0
C499 C 0.70467 0.52247 0.51361 0.0
O500 O 0.78001 0.62534 0.49304 0.0
O501 O 0.76042 0.56848 0.48904 0.0
O502 O 0.80442 0.55975 0.51086 0.0
O503 O 0.76577 0.52535 0.50138 0.0
O504 O 0.83703 0.62864 0.50484 0.0
O505 O 0.8458 0.60843 0.51804 0.0
O506 O 0.77058 0.54178 0.53295 0.0
O507 O 0.80193 0.60067 0.53566 0.0
O508 O 0.75032 0.59973 0.51405 0.0
O509 O 0.78968 0.63971 0.52227 0.0
O510 O 0.72876 0.52904 0.51986 0.0
O511 O 0.71381 0.54474 0.50681 0.0
H512 H 0.80972 0.67291 0.48032 0.0
H513 H 0.82859 0.69242 0.46528 0.0
H514 H 0.78176 0.5783 0.45757 0.0
H515 H 0.76386 0.55904 0.47258 0.0
H516 H 0.74192 0.50161 0.54714 0.0
H517 H 0.71327 0.49067 0.56149 0.0
H518 H 0.75351 0.6075 0.56426 0.0
H519 H 0.78272 0.61847 0.54994 0.0
Sm520 Sm 0.43082 0.19978 0.5021 0.0
Sm521 Sm 0.43789 0.20866 0.52286 0.0
C522 C 0.41028 0.18371 0.48567 0.0
C523 C 0.39961 0.17639 0.47634 0.0
C524 C 0.37705 0.14027 0.47322 0.0
C525 C 0.36654 0.134 0.46442 0.0
C526 C 0.37836 0.16372 0.45854 0.0
C527 C 0.40128 0.19976 0.46169 0.0
C528 C 0.41168 0.20599 0.47046 0.0
C529 C 0.48891 0.26472 0.50808 0.0
C530 C 0.38318 0.23211 0.51262 0.0
C531 C 0.45901 0.23221 0.53903 0.0
C532 C 0.46555 0.22 0.54758 0.0
C533 C 0.49576 0.2449 0.55264 0.0
C534 C 0.50177 0.2349 0.56092 0.0
C535 C 0.4776 0.19968 0.56439 0.0
C536 C 0.44761 0.1745 0.55923 0.0
C537 C 0.44165 0.18454 0.55092 0.0
C538 C 0.38958 0.13484 0.51851 0.0
C539 C 0.49396 0.18851 0.51171 0.0
O540 O 0.40319 0.15779 0.49145 0.0
O541 O 0.42804 0.21748 0.4887 0.0
O542 O 0.45685 0.24848 0.51142 0.0
O543 O 0.49035 0.24761 0.50115 0.0
O544 O 0.3876 0.21726 0.50542 0.0
O545 O 0.4007 0.23386 0.51996 0.0
O546 O 0.48238 0.23736 0.53274 0.0
O547 O 0.4247 0.21743 0.53634 0.0
O548 O 0.40636 0.16187 0.51343 0.0
O549 O 0.39829 0.14682 0.52642 0.0
O550 O 0.48751 0.20152 0.51897 0.0
O551 O 0.47328 0.18105 0.50462 0.0
H552 H 0.3672 0.11688 0.47759 0.0
H553 H 0.3486 0.10589 0.46226 0.0
H554 H 0.41154 0.2233 0.45736 0.0
H555 H 0.42927 0.23418 0.47262 0.0
H556 H 0.51464 0.27236 0.5502 0.0
H557 H 0.52553 0.25482 0.5646 0.0
H558 H 0.42822 0.14726 0.56169 0.0
H559 H 0.41813 0.16472 0.54715 0.0
Sm560 Sm 0.81777 0.23556 0.50182 0.0
Sm561 Sm 0.80363 0.22989 0.52355 0.0
C562 C 0.85164 0.24521 0.48661 0.0
C563 C 0.85023 0.23153 0.47761 0.0
C564 C 0.8822 0.2337 0.47405 0.0
C565 C 0.88343 0.22512 0.46527 0.0
C566 C 0.85265 0.21413 0.4598 0.0
C567 C 0.82014 0.21079 0.46345 0.0
C568 C 0.81897 0.21951 0.47225 0.0
C569 C 0.74506 0.21234 0.50617 0.0
C570 C 0.77908 0.15378 0.51174 0.0
C571 C 0.77864 0.22597 0.53963 0.0
C572 C 0.79124 0.24398 0.54832 0.0
C573 C 0.78807 0.27492 0.55057 0.0
C574 C 0.79798 0.29061 0.5589 0.0
C575 C 0.81121 0.27574 0.56524 0.0
C576 C 0.81459 0.24492 0.56296 0.0
C577 C 0.8046 0.22918 0.55463 0.0
C578 C 0.87753 0.25625 0.519 0.0
C579 C 0.8231 0.30652 0.51282 0.0
O580 O 0.85594 0.22731 0.49313 0.0
O581 O 0.83041 0.25911 0.4885 0.0
O582 O 0.77184 0.2203 0.51119 0.0
O583 O 0.75639 0.21559 0.49813 0.0
O584 O 0.79592 0.17348 0.50466 0.0
O585 O 0.77669 0.16868 0.51921 0.0
O586 O 0.7747 0.24523 0.5334 0.0
O587 O 0.79186 0.20517 0.53682 0.0
O588 O 0.85023 0.24751 0.51414 0.0
O589 O 0.86571 0.25037 0.52698 0.0
O590 O 0.8093 0.28579 0.51989 0.0
O591 O 0.8329 0.2952 0.50572 0.0
H592 H 0.90671 0.24299 0.47802 0.0
H593 H 0.90872 0.22742 0.46276 0.0
H594 H 0.79597 0.20266 0.45944 0.0
H595 H 0.79395 0.21771 0.4748 0.0
H596 H 0.77758 0.28693 0.54593 0.0
H597 H 0.79539 0.31455 0.56037 0.0
H598 H 0.82416 0.23236 0.56769 0.0
H599 H 0.80691 0.20505 0.55319 0.0
Sm600 Sm 0.91779 0.43749 0.68677 0.0
Sm601 Sm 0.91508 0.44679 0.66757 0.0
C602 C 0.93761 0.43254 0.70298 0.0
C603 C 0.95179 0.4493 0.71168 0.0
C604 C 0.98215 0.44813 0.71523 0.0
C605 C 0.99276 0.45834 0.72391 0.0
C606 C 0.97317 0.4699 0.7293 0.0
C607 C 0.94351 0.47229 0.72564 0.0
C608 C 0.93291 0.46208 0.71694 0.0
C609 C 0.86275 0.45174 0.68203 0.0
C610 C 0.96496 0.52217 0.67827 0.0
C611 C 0.89921 0.44595 0.6507 0.0
C612 C 0.8916 0.42451 0.64246 0.0
C613 C 0.8564 0.39421 0.64066 0.0
C614 C 0.84859 0.37668 0.63251 0.0
C615 C 0.87568 0.38909 0.62592 0.0
C616 C 0.91107 0.41892 0.6278 0.0
C617 C 0.91885 0.43644 0.63594 0.0
C618 C 0.96594 0.42605 0.67281 0.0
C619 C 0.85562 0.3675 0.67646 0.0
O620 O 0.96043 0.44237 0.69635 0.0
O621 O 0.90423 0.42466 0.70076 0.0
O622 O 0.89486 0.46758 0.67874 0.0
O623 O 0.85995 0.42987 0.68835 0.0
O624 O 0.96124 0.50034 0.68493 0.0
O625 O 0.94614 0.50838 0.67101 0.0
O626 O 0.87425 0.43295 0.65686 0.0
O627 O 0.93286 0.4622 0.65377 0.0
O628 O 0.93344 0.41282 0.67561 0.0
O629 O 0.97252 0.45088 0.66698 0.0
O630 O 0.86167 0.39135 0.67017 0.0
O631 O 0.87864 0.37662 0.68309 0.0
H632 H 0.99688 0.43789 0.71138 0.0
H633 H 0.01542 0.45564 0.72649 0.0
H634 H 0.92809 0.48158 0.72953 0.0
H635 H 0.90928 0.4632 0.71443 0.0
H636 H 0.83454 0.3845 0.64547 0.0
H637 H 0.8209 0.35412 0.63128 0.0
H638 H 0.93282 0.42897 0.62296 0.0
H639 H 0.94613 0.45991 0.63706 0.0
Sm640 Sm 0.57674 0.48439 0.68661 0.0
Sm641 Sm 0.56727 0.47371 0.6673 0.0
C642 C 0.58171 0.50818 0.70291 0.0
C643 C 0.56504 0.50639 0.7116 0.0
C644 C 0.56562 0.53802 0.7149 0.0
C645 C 0.55581 0.53938 0.72357 0.0
C646 C 0.54528 0.50915 0.72921 0.0
C647 C 0.54328 0.47691 0.7258 0.0
C648 C 0.55314 0.47557 0.71711 0.0
C649 C 0.56394 0.41604 0.68149 0.0
C650 C 0.49201 0.44701 0.67824 0.0
C651 C 0.56747 0.45906 0.65038 0.0
C652 C 0.58898 0.47188 0.64214 0.0
C653 C 0.59332 0.44647 0.63702 0.0
C654 C 0.61064 0.45664 0.62886 0.0
C655 C 0.62406 0.49258 0.62557 0.0
C656 C 0.62027 0.51825 0.63079 0.0
C657 C 0.60296 0.50804 0.63898 0.0
C658 C 0.58721 0.54458 0.67293 0.0
C659 C 0.64752 0.49472 0.67602 0.0
O660 O 0.57367 0.52277 0.69631 0.0
O661 O 0.58773 0.48149 0.70063 0.0
O662 O 0.54735 0.43189 0.67835 0.0
O663 O 0.58585 0.43509 0.6878 0.0
O664 O 0.51387 0.46454 0.68493 0.0
O665 O 0.5057 0.4429 0.67085 0.0
O666 O 0.57929 0.44557 0.65645 0.0
O667 O 0.55326 0.47824 0.65355 0.0
O668 O 0.60071 0.52532 0.67556 0.0
O669 O 0.56247 0.52668 0.66704 0.0
O670 O 0.62422 0.47861 0.66952 0.0
O671 O 0.63757 0.50614 0.68298 0.0
H672 H 0.57498 0.56233 0.71085 0.0
H673 H 0.55711 0.56446 0.7259 0.0
H674 H 0.53559 0.45317 0.72994 0.0
H675 H 0.55268 0.45085 0.71482 0.0
H676 H 0.58251 0.41833 0.63925 0.0
H677 H 0.61251 0.43592 0.62502 0.0
H678 H 0.63066 0.5463 0.62855 0.0
H679 H 0.60008 0.52832 0.64276 0.0
Sm680 Sm 0.52935 0.09275 0.68722 0.0
Sm681 Sm 0.54424 0.09988 0.66682 0.0
C682 C 0.49639 0.06816 0.70254 0.0
C683 C 0.50088 0.05838 0.71163 0.0
C684 C 0.48706 0.0213 0.71405 0.0
C685 C 0.48731 0.01163 0.7228 0.0
C686 C 0.50115 0.03874 0.72938 0.0
C687 C 0.51564 0.0759 0.72691 0.0
C688 C 0.51542 0.08556 0.71818 0.0
C689 C 0.6034 0.14258 0.68425 0.0
C690 C 0.57233 0.05311 0.6781 0.0
C691 C 0.563 0.11894 0.65026 0.0
C692 C 0.55054 0.12666 0.64187 0.0
C693 C 0.57483 0.15861 0.63721 0.0
C694 C 0.56523 0.16561 0.62898 0.0
C695 C 0.53103 0.14073 0.62516 0.0
C696 C 0.50632 0.10905 0.62993 0.0
C697 C 0.51598 0.10206 0.63819 0.0
C698 C 0.47345 0.04687 0.67218 0.0
C699 C 0.52368 0.15814 0.67659 0.0
O700 O 0.49384 0.0461 0.69614 0.0
O701 O 0.51431 0.10315 0.70034 0.0
O702 O 0.57878 0.12431 0.67868 0.0
O703 O 0.58876 0.13427 0.69198 0.0
O704 O 0.54805 0.0497 0.68416 0.0
O705 O 0.57998 0.07558 0.67138 0.0
O706 O 0.57144 0.14296 0.65654 0.0
O707 O 0.5468 0.08478 0.65305 0.0
O708 O 0.49284 0.07882 0.67528 0.0
O709 O 0.49107 0.04223 0.6658 0.0
O710 O 0.53497 0.14888 0.66946 0.0
O711 O 0.51622 0.13895 0.68393 0.0
H712 H 0.47524 0.99957 0.70921 0.0
H713 H 0.47634 0.98278 0.72441 0.0
H714 H 0.526 0.09756 0.73177 0.0
H715 H 0.52574 0.11434 0.71661 0.0
H716 H 0.60163 0.17803 0.63989 0.0
H717 H 0.58471 0.19061 0.6256 0.0
H718 H 0.47987 0.08912 0.62719 0.0
H719 H 0.49666 0.07714 0.64162 0.0
Sm720 Sm 0.56328 0.1003 0.16578 0.0
Sm721 Sm 0.56688 0.09353 0.18658 0.0
C722 C 0.56334 0.12306 0.14965 0.0
C723 C 0.58307 0.12985 0.14118 0.0
C724 C 0.60225 0.1659 0.1378 0.0
C725 C 0.61949 0.17295 0.12964 0.0
C726 C 0.61785 0.14408 0.12457 0.0
C727 C 0.59896 0.10798 0.12801 0.0
C728 C 0.58176 0.10093 0.1362 0.0
C729 C 0.58512 0.04892 0.17015 0.0
C730 C 0.64161 0.15318 0.17652 0.0
C731 C 0.56182 0.07313 0.20305 0.0
C732 C 0.55809 0.06238 0.21239 0.0
C733 C 0.57342 0.0416 0.21567 0.0
C734 C 0.56896 0.03105 0.22448 0.0
C735 C 0.54902 0.04102 0.23021 0.0
C736 C 0.53406 0.06214 0.2269 0.0
C737 C 0.53848 0.07261 0.21813 0.0
C738 C 0.56234 0.15326 0.18068 0.0
C739 C 0.48608 0.04911 0.17627 0.0
O740 O 0.58142 0.1456 0.15608 0.0
O741 O 0.54211 0.08873 0.1522 0.0
O742 O 0.57723 0.06776 0.17513 0.0
O743 O 0.57994 0.05589 0.16222 0.0
O744 O 0.62082 0.14799 0.16956 0.0
O745 O 0.62879 0.13212 0.18358 0.0
O746 O 0.58119 0.06637 0.19735 0.0
O747 O 0.5456 0.09055 0.19992 0.0
O748 O 0.54508 0.12106 0.17745 0.0
O749 O 0.58133 0.15406 0.18746 0.0
O750 O 0.50604 0.04963 0.18306 0.0
O751 O 0.50144 0.06928 0.16923 0.0
H752 H 0.60367 0.18873 0.14146 0.0
H753 H 0.63423 0.20118 0.12731 0.0
H754 H 0.59672 0.08495 0.12428 0.0
H755 H 0.56708 0.07277 0.13857 0.0
H756 H 0.5886 0.0332 0.21143 0.0
H757 H 0.58059 0.01452 0.22676 0.0
H758 H 0.51913 0.07095 0.23112 0.0
H759 H 0.52645 0.08878 0.21584 0.0
Sm760 Sm 0.91367 0.46654 0.16697 0.0
Sm761 Sm 0.91494 0.47882 0.18616 0.0
C762 C 0.89851 0.4504 0.15013 0.0
C763 C 0.88999 0.46274 0.14181 0.0
C764 C 0.86137 0.43667 0.13655 0.0
C765 C 0.85444 0.44649 0.12834 0.0
C766 C 0.87606 0.48273 0.12514 0.0
C767 C 0.90423 0.50911 0.13052 0.0
C768 C 0.91116 0.49923 0.13876 0.0
C769 C 0.96383 0.53842 0.17222 0.0
C770 C 0.85361 0.48683 0.17543 0.0
C771 C 0.9343 0.50416 0.20233 0.0
C772 C 0.94838 0.50143 0.21102 0.0
C773 C 0.97957 0.53249 0.21447 0.0
C774 C 0.9903 0.53287 0.22313 0.0
C775 C 0.96999 0.5022 0.22861 0.0
C776 C 0.93948 0.47059 0.22506 0.0
C777 C 0.92878 0.4702 0.21638 0.0
C778 C 0.85996 0.40982 0.1814 0.0
C779 C 0.96251 0.44073 0.17808 0.0
O780 O 0.87326 0.43781 0.15621 0.0
O781 O 0.93197 0.46955 0.15324 0.0
O782 O 0.93127 0.51886 0.17496 0.0
O783 O 0.97086 0.52032 0.16642 0.0
O784 O 0.86035 0.46933 0.16918 0.0
O785 O 0.87585 0.50029 0.18221 0.0
O786 O 0.95726 0.51698 0.19573 0.0
O787 O 0.90093 0.47869 0.20009 0.0
O788 O 0.89236 0.42563 0.17822 0.0
O789 O 0.85687 0.42928 0.18758 0.0
O790 O 0.95737 0.45785 0.18476 0.0
O791 O 0.94545 0.43683 0.1706 0.0
H792 H 0.84465 0.40837 0.13874 0.0
H793 H 0.83209 0.42557 0.12448 0.0
H794 H 0.92164 0.5372 0.12828 0.0
H795 H 0.93349 0.51996 0.14267 0.0
H796 H 0.99489 0.55714 0.21055 0.0
H797 H 0.01364 0.55787 0.22564 0.0
H798 H 0.92349 0.44626 0.22903 0.0
H799 H 0.90452 0.44583 0.21395 0.0
Sm800 Sm 0.54893 0.45172 0.16563 0.0
Sm801 Sm 0.53064 0.44353 0.1872 0.0
C802 C 0.57601 0.4553 0.14983 0.0
C803 C 0.56421 0.43684 0.14122 0.0
C804 C 0.58747 0.42726 0.13672 0.0
C805 C 0.57724 0.40989 0.12858 0.0
C806 C 0.54346 0.40173 0.12471 0.0
C807 C 0.52014 0.41135 0.12924 0.0
C808 C 0.53033 0.4286 0.13742 0.0
C809 C 0.47426 0.42611 0.1696 0.0
C810 C 0.52559 0.37341 0.17598 0.0
C811 C 0.49637 0.43473 0.20235 0.0
C812 C 0.50052 0.44755 0.21157 0.0
C813 C 0.48758 0.47132 0.2142 0.0
C814 C 0.48744 0.48004 0.22303 0.0
C815 C 0.5 0.46503 0.2295 0.0
C816 C 0.51362 0.44183 0.22684 0.0
C817 C 0.5138 0.43315 0.21802 0.0
C818 C 0.60324 0.46342 0.18352 0.0
C819 C 0.57409 0.52662 0.17771 0.0
O820 O 0.57877 0.43577 0.15616 0.0
O821 O 0.56245 0.47617 0.15236 0.0
O822 O 0.50072 0.43335 0.1746 0.0
O823 O 0.48749 0.43344 0.16174 0.0
O824 O 0.54184 0.39531 0.16921 0.0
O825 O 0.51378 0.38377 0.18291 0.0
O826 O 0.49631 0.45631 0.19613 0.0
O827 O 0.51244 0.41592 0.20004 0.0
O828 O 0.57825 0.45973 0.17835 0.0
O829 O 0.58986 0.45745 0.19142 0.0
O830 O 0.55358 0.50625 0.1844 0.0
O831 O 0.57881 0.51219 0.17044 0.0
H832 H 0.61376 0.43337 0.13951 0.0
H833 H 0.59612 0.40335 0.12526 0.0
H834 H 0.49374 0.40512 0.12651 0.0
H835 H 0.51167 0.43539 0.14077 0.0
H836 H 0.47673 0.48258 0.20945 0.0
H837 H 0.47718 0.49839 0.22478 0.0
H838 H 0.52302 0.42924 0.2316 0.0
H839 H 0.52344 0.41427 0.21629 0.0
Sm840 Sm 0.43796 0.2317 0.02389 0.0
Sm841 Sm 0.43196 0.24071 1.00326 0.0
C842 C 0.45905 0.22612 0.03983 0.0
C843 C 0.46654 0.2453 0.04838 0.0
C844 C 0.50064 0.25717 0.0525 0.0
C845 C 0.50826 0.27477 0.06063 0.0
C846 C 0.48185 0.28079 0.06487 0.0
C847 C 0.44769 0.26896 0.06071 0.0
C848 C 0.44016 0.25153 0.05255 0.0
C849 C 0.39267 0.2619 0.02044 0.0
C850 C 0.49281 0.31096 0.01427 0.0
C851 C 0.41009 0.246 0.98733 0.0
C852 C 0.39501 0.22947 0.97867 0.0
C853 C 0.36535 0.23226 0.97525 0.0
C854 C 0.35407 0.22238 0.9666 0.0
C855 C 0.37225 0.2095 0.96112 0.0
C856 C 0.40098 0.20521 0.96467 0.0
C857 C 0.41232 0.21519 0.97334 0.0
C858 C 0.48844 0.22915 1.00841 0.0
C859 C 0.38523 0.15669 0.01218 0.0
O860 O 0.48245 0.24386 0.03352 0.0
O861 O 0.42459 0.20752 0.03718 0.0
O862 O 0.40901 0.25213 0.01513 0.0
O863 O 0.40033 0.25573 0.02821 0.0
O864 O 0.48898 0.28748 0.02051 0.0
O865 O 0.46919 0.30114 1.00769 0.0
O866 O 0.388 0.23563 0.9941 0.0
O867 O 0.44387 0.2542 0.98925 0.0
O868 O 0.45645 0.21382 0.01178 0.0
O869 O 0.49019 0.24888 1.00168 0.0
O870 O 0.39346 0.1774 1.00505 0.0
O871 O 0.39883 0.17081 0.01996 0.0
H872 H 0.52142 0.2526 0.04945 0.0
H873 H 0.53467 0.28307 0.06366 0.0
H874 H 0.42687 0.27351 0.06373 0.0
H875 H 0.41366 0.24292 0.04953 0.0
H876 H 0.35166 0.24338 0.97919 0.0
H877 H 0.33146 0.22547 0.96416 0.0
H878 H 0.41579 0.19562 0.96065 0.0
H879 H 0.43543 0.21291 0.97576 0.0
Sm880 Sm 0.785 0.2101 0.02351 0.0
Sm881 Sm 0.77343 0.19553 1.0028 0.0
C882 C 0.79209 0.23683 0.03952 0.0
C883 C 0.77394 0.22531 0.04813 0.0
C884 C 0.77992 0.25228 0.05436 0.0
C885 C 0.76305 0.24217 0.06256 0.0
C886 C 0.73973 0.20474 0.06475 0.0
C887 C 0.73364 0.17774 0.05844 0.0
C888 C 0.75054 0.18793 0.05022 0.0
C889 C 0.75536 0.13502 0.01969 0.0
C890 C 0.70456 0.18649 0.01439 0.0
C891 C 0.767 0.16886 0.98676 0.0
C892 C 0.78358 0.17211 0.97798 0.0
C893 C 0.79737 0.14879 0.97559 0.0
C894 C 0.80768 0.14756 0.96695 0.0
C895 C 0.8042 0.16939 0.96044 0.0
C896 C 0.79148 0.19356 0.96291 0.0
C897 C 0.78125 0.19484 0.97154 0.0
C898 C 0.78577 0.2633 1.00826 0.0
C899 C 0.85876 0.23319 1.01122 0.0
O900 O 0.77338 0.24198 0.03337 0.0
O901 O 0.80993 0.22042 0.03672 0.0
O902 O 0.76319 0.16135 0.0146 0.0
O903 O 0.76438 0.14849 0.02748 0.0
O904 O 0.72858 0.20516 0.02063 0.0
O905 O 0.71352 0.17278 1.00763 0.0
O906 O 0.77885 0.15774 0.99338 0.0
O907 O 0.75722 0.19302 0.98897 0.0
O908 O 0.80133 0.24647 1.01141 0.0
O909 O 0.7657 0.24586 1.00153 0.0
O910 O 0.83723 0.22063 1.0042 0.0
O911 O 0.84548 0.23275 0.01911 0.0
H912 H 0.79765 0.2813 0.05286 0.0
H913 H 0.76794 0.26381 0.06716 0.0
H914 H 0.71619 0.14867 0.05989 0.0
H915 H 0.74542 0.16663 0.0455 0.0
H916 H 0.79911 0.13057 0.98034 0.0
H917 H 0.81785 0.12899 0.96535 0.0
H918 H 0.7879 0.21044 0.9581 0.0
H919 H 0.7702 0.21272 0.97309 0.0
Sm920 Sm 0.80819 0.58122 0.02237 0.0
Sm921 Sm 0.81926 0.58159 1.00311 0.0
C922 C 0.79294 0.56676 0.03927 0.0
C923 C 0.80532 0.55765 0.04753 0.0
C924 C 0.78233 0.52369 0.05165 0.0
C925 C 0.79144 0.5158 0.05985 0.0
C926 C 0.82376 0.54177 0.0642 0.0
C927 C 0.84723 0.57548 0.05998 0.0
C928 C 0.8381 0.58337 0.05176 0.0
C929 C 0.87937 0.63169 0.01684 0.0
C930 C 0.82908 0.52147 0.01399 0.0
C931 C 0.84261 0.59897 0.98672 0.0
C932 C 0.8385 0.61068 0.97781 0.0
C933 C 0.8549 0.64825 0.97552 0.0
C934 C 0.85572 0.65888 0.9668 0.0
C935 C 0.84057 0.63223 0.96013 0.0
C936 C 0.82317 0.5947 0.96248 0.0
C937 C 0.82222 0.5841 0.97117 0.0
C938 C 0.75037 0.52702 1.00822 0.0
C939 C 0.78255 0.63009 1.01127 0.0
O940 O 0.77903 0.54146 0.03321 0.0
O941 O 0.81262 0.60006 0.0361 0.0
O942 O 0.86011 0.59895 0.01419 0.0
O943 O 0.8613 0.63871 0.02265 0.0
O944 O 0.81258 0.52884 0.02037 0.0
O945 O 0.84109 0.5428 1.00702 0.0
O946 O 0.85505 0.62301 0.9931 0.0
O947 O 0.81852 0.56562 0.98929 0.0
O948 O 0.76662 0.55955 1.01128 0.0
O949 O 0.76925 0.52363 1.00195 0.0
O950 O 0.79983 0.62512 1.0046 0.0
O951 O 0.77816 0.6125 0.0187 0.0
H952 H 0.75678 0.5034 0.0486 0.0
H953 H 0.77297 0.48931 0.06281 0.0
H954 H 0.87215 0.59633 0.06313 0.0
H955 H 0.85636 0.60995 0.04882 0.0
H956 H 0.86822 0.66952 0.98043 0.0
H957 H 0.86962 0.68804 0.96524 0.0
H958 H 0.81074 0.57338 0.95755 0.0
H959 H 0.80976 0.55495 0.97265 0.0
Sm960 Sm 0.44626 0.91675 0.83642 0.0
Sm961 Sm 0.45533 0.9114 0.85702 0.0
C962 C 0.44107 0.93906 0.82051 0.0
C963 C 0.45666 0.95162 0.81162 0.0
C964 C 0.46899 0.98823 0.80904 0.0
C965 C 0.47809 0.99906 0.80032 0.0
C966 C 0.4748 0.97347 0.79391 0.0
C967 C 0.46365 0.93711 0.79656 0.0
C968 C 0.45464 0.92632 0.80528 0.0
C969 C 0.45743 0.86014 0.84148 0.0
C970 C 0.53066 0.96276 0.84522 0.0
C971 C 0.46226 0.89185 0.87306 0.0
C972 C 0.44445 0.88571 0.88172 0.0
C973 C 0.45025 0.86463 0.88796 0.0
C974 C 0.43411 0.85876 0.89624 0.0
C975 C 0.41171 0.87386 0.8985 0.0
C976 C 0.40571 0.89478 0.89218 0.0
C977 C 0.42189 0.90063 0.88388 0.0
C978 C 0.4241 0.95584 0.85346 0.0
C979 C 0.37637 0.85532 0.84751 0.0
O980 O 0.45532 0.96176 0.82712 0.0
O981 O 0.42871 0.9045 0.82263 0.0
O982 O 0.47291 0.89197 0.84496 0.0
O983 O 0.43825 0.85888 0.83469 0.0
O984 O 0.51006 0.95336 0.83805 0.0
O985 O 0.51635 0.95085 0.85308 0.0
O986 O 0.44326 0.86795 0.86694 0.0
O987 O 0.48041 0.92599 0.87021 0.0
O988 O 0.43432 0.93977 0.84819 0.0
O989 O 0.43044 0.9484 0.86124 0.0
O990 O 0.40002 0.85958 0.85373 0.0
O991 O 0.38586 0.87909 0.84096 0.0
H992 H 0.47044 0.00831 0.81372 0.0
H993 H 0.48712 0.02743 0.79858 0.0
H994 H 0.46032 0.91645 0.79183 0.0
H995 H 0.44475 0.89773 0.80698 0.0
H996 H 0.46737 0.85267 0.88642 0.0
H997 H 0.4389 0.84197 0.90084 0.0
H998 H 0.38897 0.90717 0.89368 0.0
H999 H 0.41694 0.91695 0.87916 0.0
Sm1000 Sm 0.09887 0.53166 0.83598 0.0
Sm1001 Sm 0.10619 0.54687 0.85668 0.0
C1002 C 0.07709 0.50451 0.82002 0.0
C1003 C 0.06109 0.50498 0.81141 0.0
C1004 C 0.03205 0.47189 0.80806 0.0
C1005 C 0.02026 0.46977 0.79943 0.0
C1006 C 0.03729 0.50071 0.79388 0.0
C1007 C 0.06537 0.5343 0.79735 0.0
C1008 C 0.07721 0.53639 0.806 0.0
C1009 C 0.15607 0.59942 0.84099 0.0
C1010 C 0.05455 0.57116 0.84508 0.0
C1011 C 0.12643 0.57282 0.8727 0.0
C1012 C 0.13208 0.56072 0.88137 0.0
C1013 C 0.1605 0.58618 0.88676 0.0
C1014 C 0.16606 0.5758 0.89506 0.0
C1015 C 0.14323 0.53961 0.89819 0.0
C1016 C 0.11494 0.514 0.8927 0.0
C1017 C 0.10945 0.52442 0.88438 0.0
C1018 C 0.06004 0.47135 0.85313 0.0
C1019 C 0.16115 0.52328 0.84686 0.0
O1020 O 0.05547 0.49155 0.82685 0.0
O1021 O 0.1103 0.53137 0.82189 0.0
O1022 O 0.1244 0.58304 0.84452 0.0
O1023 O 0.15704 0.58144 0.83418 0.0
O1024 O 0.05921 0.55533 0.83804 0.0
O1025 O 0.07079 0.57283 0.85263 0.0
O1026 O 0.15013 0.57708 0.86657 0.0
O1027 O 0.09231 0.5581 0.86986 0.0
O1028 O 0.07637 0.49766 0.84788 0.0
O1029 O 0.06789 0.48505 0.86091 0.0
O1030 O 0.15739 0.54282 0.85313 0.0
O1031 O 0.13722 0.50929 0.84032 0.0
H1032 H 0.01929 0.44718 0.81204 0.0
H1033 H 0.99815 0.44361 0.79705 0.0
H1034 H 0.07933 0.55864 0.79328 0.0
H1035 H 0.09986 0.56227 0.80835 0.0
H1036 H 0.17845 0.61426 0.88457 0.0
H1037 H 0.18855 0.59615 0.89899 0.0
H1038 H 0.09657 0.48601 0.89488 0.0
H1039 H 0.08737 0.50416 0.88034 0.0
Sm1040 Sm 0.48488 0.56958 0.83617 0.0
Sm1041 Sm 0.47071 0.56109 0.85685 0.0
C1042 C 0.51204 0.57487 0.82022 0.0
C1043 C 0.51032 0.55846 0.81152 0.0
C1044 C 0.54297 0.56278 0.80781 0.0
C1045 C 0.54374 0.55273 0.79914 0.0
C1046 C 0.51181 0.53809 0.79391 0.0
C1047 C 0.47873 0.53256 0.79774 0.0
C1048 C 0.478 0.54267 0.80644 0.0
C1049 C 0.41715 0.55838 0.84133 0.0
C1050 C 0.44767 0.48561 0.84518 0.0
C1051 C 0.44489 0.55496 0.87294 0.0
C1052 C 0.45654 0.57319 0.88158 0.0
C1053 C 0.43098 0.57707 0.88675 0.0
C1054 C 0.44081 0.59325 0.89504 0.0
C1055 C 0.47655 0.60595 0.8984 0.0
C1056 C 0.50229 0.60237 0.89314 0.0
C1057 C 0.49242 0.58623 0.88483 0.0
C1058 C 0.54624 0.59218 0.85315 0.0
C1059 C 0.49325 0.63974 0.84718 0.0
O1060 O 0.5235 0.56409 0.82696 0.0
O1061 O 0.48674 0.5834 0.82219 0.0
O1062 O 0.43361 0.54298 0.84481 0.0
O1063 O 0.43506 0.57769 0.83455 0.0
O1064 O 0.45947 0.50609 0.83799 0.0
O1065 O 0.44906 0.50006 0.85297 0.0
O1066 O 0.4393 0.57331 0.86677 0.0
O1067 O 0.46079 0.53667 0.87011 0.0
O1068 O 0.51973 0.58171 0.84794 0.0
O1069 O 0.53284 0.58633 0.86096 0.0
O1070 O 0.47414 0.61626 0.85347 0.0
O1071 O 0.50717 0.63009 0.84057 0.0
H1072 H 0.56839 0.57532 0.81154 0.0
H1073 H 0.56985 0.55791 0.79643 0.0
H1074 H 0.45344 0.52085 0.79399 0.0
H1075 H 0.45238 0.53906 0.80909 0.0
H1076 H 0.4032 0.56742 0.88439 0.0
H1077 H 0.42038 0.59606 0.89878 0.0
H1078 H 0.52993 0.61144 0.8955 0.0
H1079 H 0.51278 0.58371 0.88098 0.0
Sm1080 Sm 0.58583 0.77277 0.01971 0.0
Sm1081 Sm 0.58459 0.78241 1.00033 0.0
C1082 C 0.60541 0.76795 0.03596 0.0
C1083 C 0.62013 0.7845 0.04465 0.0
C1084 C 0.64861 0.7804 0.04836 0.0
C1085 C 0.65948 0.79057 0.05703 0.0
C1086 C 0.64209 0.8051 0.06227 0.0
C1087 C 0.61434 0.81034 0.05845 0.0
C1088 C 0.60345 0.80011 0.04976 0.0
C1089 C 0.5303 0.78546 0.01458 0.0
C1090 C 0.63236 0.85785 1.01132 0.0
C1091 C 0.56901 0.7816 0.98344 0.0
C1092 C 0.55843 0.75903 0.97532 0.0
C1093 C 0.52543 0.75071 0.97106 0.0
C1094 C 0.51639 0.73268 0.96297 0.0
C1095 C 0.54022 0.72257 0.95889 0.0
C1096 C 0.57292 0.73016 0.96327 0.0
C1097 C 0.58195 0.74821 0.97137 0.0
C1098 C 0.63572 0.76273 1.00593 0.0
C1099 C 0.52537 0.70198 1.00912 0.0
O1100 O 0.62804 0.77672 0.02932 0.0
O1101 O 0.57239 0.76128 0.03375 0.0
O1102 O 0.56271 0.80192 1.01144 0.0
O1103 O 0.52745 0.7638 0.02096 0.0
O1104 O 0.62727 0.83611 0.0181 0.0
O1105 O 0.61587 0.84414 1.0038 0.0
O1106 O 0.54431 0.77191 0.98961 0.0
O1107 O 0.60243 0.79441 0.98648 0.0
O1108 O 0.60295 0.74914 1.00859 0.0
O1109 O 0.64246 0.78752 1.00005 0.0
O1110 O 0.53281 0.72519 1.00258 0.0
O1111 O 0.54645 0.71199 0.01613 0.0
H1112 H 0.66159 0.76795 0.04463 0.0
H1113 H 0.68054 0.78559 0.05972 0.0
H1114 H 0.60066 0.82195 0.06221 0.0
H1115 H 0.5813 0.80352 0.04713 0.0
H1116 H 0.50683 0.75884 0.9739 0.0
H1117 H 0.49069 0.72681 0.95991 0.0
H1118 H 0.59218 0.72317 0.96032 0.0
H1119 H 0.60775 0.75436 0.97444 0.0
Sm1120 Sm 0.24345 0.81706 0.01963 0.0
Sm1121 Sm 0.2342 0.80672 1.00034 0.0
C1122 C 0.24818 0.84078 0.03593 0.0
C1123 C 0.23113 0.83879 0.04457 0.0
C1124 C 0.23106 0.87018 0.04782 0.0
C1125 C 0.22088 0.87141 0.05646 0.0
C1126 C 0.21062 0.8413 0.06212 0.0
C1127 C 0.20925 0.80927 0.05875 0.0
C1128 C 0.21949 0.80806 0.0501 0.0
C1129 C 0.23015 0.74859 0.0145 0.0
C1130 C 0.1588 0.78018 1.01118 0.0
C1131 C 0.23516 0.79262 0.98341 0.0
C1132 C 0.25791 0.80535 0.97531 0.0
C1133 C 0.27702 0.7876 0.97239 0.0
C1134 C 0.29526 0.79665 0.96433 0.0
C1135 C 0.29476 0.82358 0.9589 0.0
C1136 C 0.27623 0.84184 0.9619 0.0
C1137 C 0.25797 0.83277 0.96997 0.0
C1138 C 0.25426 0.87751 1.00604 0.0
C1139 C 0.31435 0.82743 1.00907 0.0
O1140 O 0.24025 0.85541 0.02931 0.0
O1141 O 0.2543 0.81414 0.03367 0.0
O1142 O 0.21387 0.76471 1.01135 0.0
O1143 O 0.25205 0.76746 0.02083 0.0
O1144 O 0.1806 0.79738 0.01791 0.0
O1145 O 0.17255 0.77628 1.00378 0.0
O1146 O 0.24507 0.77766 0.98955 0.0
O1147 O 0.22176 0.81262 0.98652 0.0
O1148 O 0.2677 0.85816 1.00864 0.0
O1149 O 0.22943 0.85972 1.00016 0.0
O1150 O 0.29111 0.81157 1.00255 0.0
O1151 O 0.30432 0.83857 0.01607 0.0
H1152 H 0.2402 0.89441 0.04375 0.0
H1153 H 0.22168 0.8963 0.05875 0.0
H1154 H 0.20179 0.78565 0.06292 0.0
H1155 H 0.21953 0.78353 0.04785 0.0
H1156 H 0.27728 0.76609 0.97627 0.0
H1157 H 0.30961 0.78232 0.96232 0.0
H1158 H 0.27479 0.86238 0.95789 0.0
H1159 H 0.24312 0.84668 0.97192 0.0
Sm1160 Sm 0.19832 0.42935 0.01939 0.0
Sm1161 Sm 0.21016 0.43258 1.00018 0.0
C1162 C 0.17467 0.40971 0.0357 0.0
C1163 C 0.17838 0.39635 0.04445 0.0
C1164 C 0.15634 0.35896 0.04677 0.0
C1165 C 0.15534 0.34738 0.05541 0.0
C1166 C 0.17612 0.37293 0.06198 0.0
C1167 C 0.19902 0.41014 0.05958 0.0
C1168 C 0.20006 0.42168 0.05096 0.0
C1169 C 0.26721 0.48549 0.01462 0.0
C1170 C 0.23804 0.38467 1.01085 0.0
C1171 C 0.22574 0.449 0.98337 0.0
C1172 C 0.21328 0.45826 0.97515 0.0
C1173 C 0.2369 0.4918 0.97094 0.0
C1174 C 0.22763 0.50009 0.96282 0.0
C1175 C 0.19448 0.47495 0.95863 0.0
C1176 C 0.17039 0.44165 0.96294 0.0
C1177 C 0.17971 0.43335 0.97109 0.0
C1178 C 0.1388 0.38079 1.00549 0.0
C1179 C 0.18808 0.49051 1.00906 0.0
O1180 O 0.16194 0.38668 0.02912 0.0
O1181 O 0.19919 0.44326 0.03336 0.0
O1182 O 0.25135 0.45346 1.01132 0.0
O1183 O 0.24796 0.48762 0.02099 0.0
O1184 O 0.21714 0.38542 0.01728 0.0
O1185 O 0.24414 0.40522 1.00385 0.0
O1186 O 0.23827 0.47374 0.98956 0.0
O1187 O 0.20706 0.41522 0.98635 0.0
O1188 O 0.15777 0.41331 1.00829 0.0
O1189 O 0.15745 0.37449 0.99968 0.0
O1190 O 0.2051 0.48428 1.00261 0.0
O1191 O 0.17604 0.46826 0.01588 0.0
H1192 H 0.1389 0.33874 0.04198 0.0
H1193 H 0.13777 0.31842 0.05695 0.0
H1194 H 0.21503 0.43081 0.06444 0.0
H1195 H 0.21686 0.45081 0.04947 0.0
H1196 H 0.26301 0.51146 0.97389 0.0
H1197 H 0.24661 0.52626 0.9598 0.0
H1198 H 0.14478 0.42146 0.9599 0.0
H1199 H 0.16093 0.40715 0.97413 0.0
Sm1200 Sm 0.23142 0.43123 0.50152 0.0
Sm1201 Sm 0.24029 0.42953 0.52082 0.0
C1202 C 0.23245 0.44636 0.48459 0.0
C1203 C 0.25352 0.45406 0.47629 0.0
C1204 C 0.26402 0.48723 0.47184 0.0
C1205 C 0.28049 0.4938 0.46359 0.0
C1206 C 0.28682 0.46726 0.45951 0.0
C1207 C 0.27711 0.43437 0.46408 0.0
C1208 C 0.26059 0.4278 0.47235 0.0
C1209 C 0.25192 0.38057 0.50716 0.0
C1210 C 0.31079 0.49073 0.51038 0.0
C1211 C 0.24487 0.40981 0.53705 0.0
C1212 C 0.22798 0.39493 0.5457 0.0
C1213 C 0.23067 0.3654 0.54926 0.0
C1214 C 0.22031 0.35427 0.5579 0.0
C1215 C 0.20704 0.37247 0.56326 0.0
C1216 C 0.20313 0.40124 0.55959 0.0
C1217 C 0.21352 0.41238 0.55092 0.0
C1218 C 0.22804 0.48539 0.51578 0.0
C1219 C 0.15553 0.38302 0.51223 0.0
O1220 O 0.24546 0.47169 0.49065 0.0
O1221 O 0.2167 0.4129 0.48777 0.0
O1222 O 0.2649 0.41317 0.50983 0.0
O1223 O 0.22744 0.3737 0.5012 0.0
O1224 O 0.28722 0.48437 0.50401 0.0
O1225 O 0.30132 0.46831 0.51715 0.0
O1226 O 0.23617 0.38726 0.53041 0.0
O1227 O 0.25167 0.44287 0.53486 0.0
O1228 O 0.21128 0.45305 0.51258 0.0
O1229 O 0.24967 0.4879 0.52213 0.0
O1230 O 0.17699 0.38749 0.51903 0.0
O1231 O 0.16966 0.40044 0.50483 0.0
H1232 H 0.25876 0.50789 0.47468 0.0
H1233 H 0.28812 0.51971 0.46038 0.0
H1234 H 0.28122 0.41314 0.46114 0.0
H1235 H 0.25265 0.40182 0.47556 0.0
H1236 H 0.24222 0.35179 0.54544 0.0
H1237 H 0.22423 0.33238 0.56049 0.0
H1238 H 0.19251 0.41557 0.56345 0.0
H1239 H 0.21121 0.43534 0.5484 0.0
Sm1240 Sm 0.57845 0.80393 0.50107 0.0
Sm1241 Sm 0.58479 0.81578 0.52156 0.0
C1242 C 0.55945 0.78669 0.48444 0.0
C1243 C 0.54955 0.79877 0.47626 0.0
C1244 C 0.51685 0.77411 0.47189 0.0
C1245 C 0.50836 0.78319 0.46376 0.0
C1246 C 0.53246 0.81718 0.45973 0.0
C1247 C 0.56483 0.84227 0.46422 0.0
C1248 C 0.5733 0.83317 0.47238 0.0
C1249 C 0.6303 0.87403 0.50681 0.0
C1250 C 0.51868 0.82132 0.51132 0.0
C1251 C 0.60927 0.84921 0.53679 0.0
C1252 C 0.62163 0.84654 0.54567 0.0
C1253 C 0.65093 0.87816 0.54946 0.0
C1254 C 0.66081 0.87791 0.55816 0.0
C1255 C 0.64156 0.84596 0.56332 0.0
C1256 C 0.61277 0.81392 0.55943 0.0
C1257 C 0.60291 0.8142 0.5507 0.0
C1258 C 0.53675 0.74195 0.51818 0.0
C1259 C 0.62825 0.77733 0.51198 0.0
O1260 O 0.53549 0.77484 0.49083 0.0
O1261 O 0.59368 0.8054 0.48715 0.0
O1262 O 0.5984 0.85391 0.50992 0.0
O1263 O 0.63537 0.8576 0.50024 0.0
O1264 O 0.53005 0.81456 0.50384 0.0
O1265 O 0.53582 0.82484 0.51881 0.0
O1266 O 0.63131 0.85399 0.53021 0.0
O1267 O 0.57417 0.828 0.53494 0.0
O1268 O 0.5543 0.76725 0.51267 0.0
O1269 O 0.54515 0.75569 0.526 0.0
O1270 O 0.62789 0.79747 0.51864 0.0
O1271 O 0.60794 0.77186 0.50492 0.0
H1272 H 0.49809 0.74738 0.47471 0.0
H1273 H 0.48288 0.76339 0.46061 0.0
H1274 H 0.58425 0.86855 0.46132 0.0
H1275 H 0.59883 0.85278 0.47555 0.0
H1276 H 0.66556 0.90352 0.54575 0.0
H1277 H 0.68274 0.90325 0.56093 0.0
H1278 H 0.59765 0.78867 0.56315 0.0
H1279 H 0.58019 0.78937 0.54794 0.0
Sm1280 Sm 0.20905 0.78023 0.49876 0.0
Sm1281 Sm 0.19622 0.77888 0.51948 0.0
C1282 C 0.22786 0.77582 0.48243 0.0
C1283 C 0.21377 0.75474 0.47418 0.0
C1284 C 0.23327 0.73919 0.47028 0.0
C1285 C 0.2223 0.72133 0.46221 0.0
C1286 C 0.19155 0.71864 0.45778 0.0
C1287 C 0.1717 0.73381 0.46175 0.0
C1288 C 0.18265 0.75162 0.46986 0.0
C1289 C 0.13842 0.7633 0.50395 0.0
C1290 C 0.19147 0.70551 0.50997 0.0
C1291 C 0.16419 0.77252 0.53485 0.0
C1292 C 0.16671 0.78668 0.54386 0.0
C1293 C 0.13653 0.78849 0.54731 0.0
C1294 C 0.1357 0.79696 0.55612 0.0
C1295 C 0.16507 0.80379 0.56175 0.0
C1296 C 0.19592 0.80321 0.5582 0.0
C1297 C 0.19669 0.79465 0.54937 0.0
C1298 C 0.27004 0.80386 0.51587 0.0
C1299 C 0.23567 0.85803 0.50894 0.0
O1300 O 0.23345 0.75914 0.48897 0.0
O1301 O 0.2151 0.79737 0.48487 0.0
O1302 O 0.15869 0.75317 0.50775 0.0
O1303 O 0.15443 0.78058 0.49683 0.0
O1304 O 0.20157 0.72383 0.50252 0.0
O1305 O 0.18459 0.71914 0.5171 0.0
O1306 O 0.16079 0.79083 0.52831 0.0
O1307 O 0.1837 0.75678 0.53293 0.0
O1308 O 0.24386 0.79452 0.51061 0.0
O1309 O 0.25761 0.80153 0.52376 0.0
O1310 O 0.2123 0.83869 0.51529 0.0
O1311 O 0.2434 0.84174 0.50253 0.0
H1312 H 0.25754 0.74147 0.47342 0.0
H1313 H 0.23859 0.71048 0.45933 0.0
H1314 H 0.14763 0.73189 0.4586 0.0
H1315 H 0.16696 0.76326 0.47268 0.0
H1316 H 0.11295 0.78228 0.54324 0.0
H1317 H 0.11176 0.79775 0.55854 0.0
H1318 H 0.21895 0.80804 0.56232 0.0
H1319 H 0.22029 0.79327 0.54693 0.0
Sm1320 Sm 0.09837 0.55763 0.35588 0.0
Sm1321 Sm 0.09656 0.56815 0.33514 0.0
C1322 C 0.11708 0.5515 0.37204 0.0
C1323 C 0.12336 0.56992 0.38065 0.0
C1324 C 0.15479 0.57727 0.38549 0.0
C1325 C 0.16125 0.59407 0.39369 0.0
C1326 C 0.13633 0.60386 0.39729 0.0
C1327 C 0.10485 0.59657 0.3924 0.0
C1328 C 0.09848 0.57989 0.38416 0.0
C1329 C 0.05282 0.58681 0.35168 0.0
C1330 C 0.15616 0.63774 0.34664 0.0
C1331 C 0.07786 0.57453 0.31895 0.0
C1332 C 0.06092 0.55775 0.31043 0.0
C1333 C 0.03306 0.56357 0.30703 0.0
C1334 C 0.02069 0.55353 0.29844 0.0
C1335 C 0.03602 0.53752 0.293 0.0
C1336 C 0.06287 0.53028 0.29654 0.0
C1337 C 0.07525 0.54035 0.30514 0.0
C1338 C 0.1524 0.55731 0.34105 0.0
C1339 C 0.04839 0.48326 0.34377 0.0
O1340 O 0.14136 0.56977 0.36593 0.0
O1341 O 0.08303 0.53317 0.36912 0.0
O1342 O 0.0715 0.57868 0.3467 0.0
O1343 O 0.05713 0.57832 0.35954 0.0
O1344 O 0.14982 0.61419 0.35307 0.0
O1345 O 0.13457 0.62835 0.33967 0.0
O1346 O 0.0565 0.56953 0.32568 0.0
O1347 O 0.10936 0.57693 0.32105 0.0
O1348 O 0.11965 0.54104 0.34402 0.0
O1349 O 0.15545 0.57785 0.33438 0.0
O1350 O 0.05735 0.50448 0.33669 0.0
O1351 O 0.06106 0.49692 0.35164 0.0
H1352 H 0.17434 0.56976 0.38294 0.0
H1353 H 0.18552 0.59879 0.39729 0.0
H1354 H 0.08529 0.60412 0.39491 0.0
H1355 H 0.07411 0.5748 0.38056 0.0
H1356 H 0.02171 0.57718 0.31092 0.0
H1357 H 0.99954 0.55896 0.29602 0.0
H1358 H 0.07552 0.51826 0.29255 0.0
H1359 H 0.09698 0.53571 0.30753 0.0
Sm1360 Sm 0.4485 0.5368 0.35619 0.0
Sm1361 Sm 0.4401 0.52558 0.3369 0.0
C1362 C 0.44847 0.55232 0.37304 0.0
C1363 C 0.4282 0.53999 0.38144 0.0
C1364 C 0.42482 0.56586 0.3866 0.0
C1365 C 0.40864 0.5563 0.39488 0.0
C1366 C 0.3954 0.52052 0.39825 0.0
C1367 C 0.39798 0.49429 0.39297 0.0
C1368 C 0.41428 0.50393 0.38466 0.0
C1369 C 0.42835 0.46545 0.35076 0.0
C1370 C 0.3689 0.51616 0.3473 0.0
C1371 C 0.43564 0.50184 0.32058 0.0
C1372 C 0.45216 0.5045 0.3118 0.0
C1373 C 0.46314 0.47907 0.30928 0.0
C1374 C 0.47277 0.47726 0.3006 0.0
C1375 C 0.4714 0.50064 0.29418 0.0
C1376 C 0.46158 0.52691 0.29678 0.0
C1377 C 0.45204 0.52876 0.30546 0.0
C1378 C 0.45287 0.59423 0.34181 0.0
C1379 C 0.52445 0.56497 0.34546 0.0
O1380 O 0.43474 0.56382 0.36696 0.0
O1381 O 0.46399 0.53423 0.36993 0.0
O1382 O 0.41529 0.48485 0.34796 0.0
O1383 O 0.45301 0.48357 0.35666 0.0
O1384 O 0.39203 0.53251 0.3538 0.0
O1385 O 0.37902 0.50425 0.34043 0.0
O1386 O 0.44516 0.48841 0.32717 0.0
O1387 O 0.42786 0.52728 0.32291 0.0
O1388 O 0.469 0.57822 0.34508 0.0
O1389 O 0.4317 0.57533 0.33539 0.0
O1390 O 0.5029 0.54438 0.33899 0.0
O1391 O 0.50986 0.57078 0.35249 0.0
H1392 H 0.43533 0.59384 0.38428 0.0
H1393 H 0.40657 0.57707 0.39866 0.0
H1394 H 0.38832 0.46655 0.39535 0.0
H1395 H 0.41655 0.48338 0.38084 0.0
H1396 H 0.4631 0.45964 0.31395 0.0
H1397 H 0.48071 0.45705 0.2989 0.0
H1398 H 0.45967 0.54508 0.29205 0.0
H1399 H 0.44314 0.5483 0.3071 0.0
Sm1400 Sm 0.46783 0.90682 0.35726 0.0
Sm1401 Sm 0.48295 0.91135 0.33666 0.0
C1402 C 0.44097 0.8875 0.37327 0.0
C1403 C 0.45227 0.88142 0.382 0.0
C1404 C 0.42662 0.85203 0.38716 0.0
C1405 C 0.43617 0.84604 0.39551 0.0
C1406 C 0.47169 0.86941 0.39894 0.0
C1407 C 0.49751 0.89869 0.39369 0.0
C1408 C 0.48793 0.9046 0.38532 0.0
C1409 C 0.54344 0.95197 0.35373 0.0
C1410 C 0.49226 0.85125 0.34802 0.0
C1411 C 0.5113 0.93334 0.32082 0.0
C1412 C 0.50971 0.94701 0.31198 0.0
C1413 C 0.5393 0.98076 0.30908 0.0
C1414 C 0.5415 0.99173 0.30037 0.0
C1415 C 0.51423 0.96908 0.29431 0.0
C1416 C 0.48395 0.93583 0.2973 0.0
C1417 C 0.48172 0.9249 0.30602 0.0
C1418 C 0.41524 0.85454 0.34184 0.0
C1419 C 0.44345 0.95689 0.34509 0.0
O1420 O 0.4361 0.86344 0.36719 0.0
O1421 O 0.45673 0.92158 0.37037 0.0
O1422 O 0.51721 0.93531 0.34847 0.0
O1423 O 0.52962 0.94477 0.36151 0.0
O1424 O 0.47253 0.85543 0.35419 0.0
O1425 O 0.50634 0.87469 0.34141 0.0
O1426 O 0.52067 0.95591 0.32748 0.0
O1427 O 0.48744 0.89904 0.32282 0.0
O1428 O 0.43141 0.88669 0.34514 0.0
O1429 O 0.43347 0.85288 0.33514 0.0
O1430 O 0.45529 0.94755 0.33801 0.0
O1431 O 0.44554 0.94535 0.35301 0.0
H1432 H 0.39901 0.83365 0.38473 0.0
H1433 H 0.41571 0.82282 0.39924 0.0
H1434 H 0.52499 0.9175 0.39611 0.0
H1435 H 0.50835 0.92744 0.38147 0.0
H1436 H 0.56158 0.99809 0.31348 0.0
H1437 H 0.56542 0.01729 0.2983 0.0
H1438 H 0.46215 0.91795 0.29286 0.0
H1439 H 0.4586 0.89862 0.30802 0.0
C1440 C 0.16229 0.16991 0.18061 0.0
C1441 C 0.12931 0.16271 0.17654 0.0
C1442 C 0.17115 0.14166 0.18164 0.0
C1443 C 0.14616 0.10539 0.17866 0.0
C1444 C 0.11229 0.09794 0.17483 0.0
C1445 C 0.10447 0.12667 0.17377 0.0
C1446 C 0.20755 0.15076 0.18573 0.0
C1447 C 0.08439 0.05963 0.17172 0.0
C1448 C 0.1738 0.03369 0.17287 0.0
C1449 C 0.16012 0.00973 0.18005 0.0
C1450 C 0.1714 0.06614 0.17254 0.0
C1451 C 0.15482 0.07483 0.17953 0.0
C1452 C 0.14279 0.05178 0.18698 0.0
C1453 C 0.14566 0.01971 0.18715 0.0
C1454 C 0.18488 0.09013 0.16452 0.0
C1455 C 0.12481 0.05976 0.19456 0.0
H1456 H 0.18166 0.1978 0.18271 0.0
H1457 H 0.07882 0.12095 0.17067 0.0
H1458 H 0.20283 0.1325 0.19141 0.0
H1459 H 0.22449 0.14566 0.18097 0.0
H1460 H 0.2235 0.17997 0.18792 0.0
H1461 H 0.05888 0.05821 0.16914 0.0
H1462 H 0.09674 0.05079 0.16652 0.0
H1463 H 0.0766 0.03956 0.17715 0.0
H1464 H 0.18508 0.02642 0.16736 0.0
H1465 H 0.13522 1.0017 0.19278 0.0
H1466 H 0.20247 0.11957 0.16636 0.0
H1467 H 0.16087 0.08769 0.16085 0.0
H1468 H 0.2009 0.08217 0.16013 0.0
H1469 H 0.14179 0.08895 0.19666 0.0
H1470 H 0.12065 0.04157 0.20023 0.0
H1471 H 0.09749 0.05555 0.19253 0.0
C1472 C 0.99491 0.13055 0.18757 0.0
C1473 C 1.00389 0.15579 0.18068 0.0
C1474 C 0.96303 0.09541 0.18735 0.0
C1475 C 0.93911 0.08501 0.18007 0.0
C1476 C 0.94683 0.11104 0.17331 0.0
C1477 C 0.97911 0.14603 0.17368 0.0
C1478 C 0.95615 0.06864 0.19468 0.0
C1479 C 0.92193 0.10128 0.16547 0.0
C1480 C 0.88672 0.98347 0.17363 0.0
C1481 C 0.85097 0.97179 0.17673 0.0
C1482 C 0.91556 0.01993 0.17481 0.0
C1483 C 0.90851 0.04581 0.17909 0.0
C1484 C 0.87253 0.03402 0.18239 0.0
C1485 C 0.8442 0.99701 0.18123 0.0
C1486 C 0.95354 0.03084 0.17135 0.0
C1487 C 0.86381 0.06069 0.18696 0.0
H1488 H 0.0136 0.13762 0.19305 0.0
H1489 H 0.98557 0.16518 0.16832 0.0
H1490 H 0.92719 0.05596 0.197 0.0
H1491 H 0.96033 0.04595 0.19228 0.0
H1492 H 0.97497 0.08211 0.20029 0.0
H1493 H 0.92927 0.12567 0.16128 0.0
H1494 H 0.92406 0.0802 0.16151 0.0
H1495 H 0.89268 0.08909 0.16754 0.0
H1496 H 0.89217 0.964 0.1702 0.0
H1497 H 0.81656 0.98815 0.1836 0.0
H1498 H 0.97423 0.04257 0.17666 0.0
H1499 H 0.96174 0.0526 0.16631 0.0
H1500 H 0.95475 0.00713 0.16844 0.0
H1501 H 0.88266 0.07351 0.19258 0.0
H1502 H 0.83482 0.0471 0.18934 0.0
H1503 H 0.86841 0.08333 0.18245 0.0
C1504 C 0.03143 0.90826 0.17309 0.0
C1505 C 0.04286 0.88394 0.17612 0.0
C1506 C 0.99507 0.90086 0.17431 0.0
C1507 C 0.96909 0.86791 0.17856 0.0
C1508 C 0.98063 0.84346 0.18179 0.0
C1509 C 0.01755 0.85193 0.18059 0.0
C1510 C 0.9844 0.92821 0.17094 0.0
C1511 C 0.95379 0.80803 0.18633 0.0
C1512 C 0.88514 0.87032 0.18728 0.0
C1513 C 0.85972 0.85444 0.18041 0.0
C1514 C 0.92009 0.87319 0.18697 0.0
C1515 C 0.93007 0.85965 0.17962 0.0
C1516 C 0.90386 0.84172 0.17288 0.0
C1517 C 0.86906 0.83941 0.17334 0.0
C1518 C 0.9471 0.8927 0.19428 0.0
C1519 C 0.91325 0.82659 0.16497 0.0
H1520 H 0.05102 0.93319 0.16968 0.0
H1521 H 0.02626 0.83298 0.18291 0.0
H1522 H 0.96252 0.9149 0.16592 0.0
H1523 H 0.9729 0.93721 0.1763 0.0
H1524 H 1.00819 0.95308 0.16803 0.0
H1525 H 0.9672 0.79235 0.18862 0.0
H1526 H 0.94118 0.81404 0.192 0.0
H1527 H 0.931 0.79027 0.18182 0.0
H1528 H 0.87834 0.88188 0.19283 0.0
H1529 H 0.84974 0.82699 0.168 0.0
H1530 H 0.96996 0.91949 0.19189 0.0
H1531 H 0.95952 0.8761 0.19653 0.0
H1532 H 0.9339 0.89815 0.19994 0.0
H1533 H 0.9344 0.84977 0.16102 0.0
H1534 H 0.88871 0.80982 0.1608 0.0
H1535 H 0.92524 0.80927 0.16696 0.0
C1536 C 0.1268 0.09343 0.34718 0.0
C1537 C 0.1631 0.11916 0.34475 0.0
C1538 C 0.09789 0.10106 0.34617 0.0
C1539 C 0.10546 0.13566 0.34277 0.0
C1540 C 0.14198 0.16147 0.34009 0.0
C1541 C 0.17038 0.15277 0.34104 0.0
C1542 C 0.05935 0.07228 0.34894 0.0
C1543 C 0.15126 0.19869 0.33648 0.0
C1544 C 0.02087 0.13887 0.33475 0.0
C1545 C 0.01094 0.15192 0.34213 0.0
C1546 C 0.05242 0.13498 0.33473 0.0
C1547 C 0.075 0.14463 0.34223 0.0
C1548 C 0.06623 0.15956 0.34955 0.0
C1549 C 0.03429 0.16288 0.34943 0.0
C1550 C 0.06043 0.11867 0.32681 0.0
C1551 C 0.08975 0.17057 0.35766 0.0
H1552 H 0.12102 0.06727 0.35 0.0
H1553 H 0.19847 0.17281 0.3392 0.0
H1554 H 0.05017 0.08299 0.35443 0.0
H1555 H 0.03965 0.06622 0.3435 0.0
H1556 H 0.05773 0.04605 0.35101 0.0
H1557 H 0.1805 0.21498 0.33431 0.0
H1558 H 0.13303 0.19527 0.33088 0.0
H1559 H 0.14625 0.21467 0.34153 0.0
H1560 H 1.00322 0.13029 0.32905 0.0
H1561 H 0.02712 0.17313 0.35515 0.0
H1562 H 0.05594 0.09085 0.32843 0.0
H1563 H 0.08972 0.13594 0.32481 0.0
H1564 H 0.04247 0.11601 0.3212 0.0
H1565 H 0.08715 0.14555 0.36084 0.0
H1566 H 0.08155 0.18519 0.36242 0.0
H1567 H 0.1193 0.18871 0.35596 0.0
C1568 C 0.8723 0.88385 0.33644 0.0
C1569 C 0.85182 0.8554 0.34245 0.0
C1570 C 0.87436 0.91838 0.33707 0.0
C1571 C 0.85506 0.92478 0.34379 0.0
C1572 C 0.83285 0.89566 0.34963 0.0
C1573 C 0.8317 0.86145 0.34893 0.0
C1574 C 0.89886 0.94865 0.33079 0.0
C1575 C 0.81136 0.9011 0.35681 0.0
C1576 C 0.89488 0.02294 0.35233 0.0
C1577 C 0.87381 0.03535 0.34792 0.0
C1578 C 0.88942 0.98735 0.35092 0.0
C1579 C 0.86106 0.96286 0.34522 0.0
C1580 C 0.83934 0.9752 0.3408 0.0
C1581 C 0.84649 0.01164 0.34208 0.0
C1582 C 0.91421 0.97608 0.35552 0.0
C1583 C 0.80822 0.94974 0.33485 0.0
H1584 H 0.88804 0.87974 0.3314 0.0
H1585 H 0.81569 0.83975 0.35359 0.0
H1586 H 0.88347 0.96101 0.32776 0.0
H1587 H 0.92254 0.97099 0.33438 0.0
H1588 H 0.90985 0.93852 0.32554 0.0
H1589 H 0.79217 0.87477 0.36015 0.0
H1590 H 0.83078 0.92065 0.36171 0.0
H1591 H 0.7952 0.91338 0.35416 0.0
H1592 H 0.91616 0.04141 0.35682 0.0
H1593 H 0.82995 0.02118 0.33874 0.0
H1594 H 0.92798 0.96724 0.35068 0.0
H1595 H 0.89754 0.95217 0.35985 0.0
H1596 H 0.93584 0.99885 0.35949 0.0
H1597 H 0.81921 0.94093 0.32935 0.0
H1598 H 0.79297 0.96301 0.33219 0.0
H1599 H 0.78848 0.92443 0.33845 0.0
C1600 C 0.98283 0.88132 0.34883 0.0
C1601 C 0.9697 0.84576 0.34545 0.0
C1602 C 0.01943 0.90953 0.34745 0.0
C1603 C 0.04389 0.90197 0.34266 0.0
C1604 C 0.03063 0.86618 0.3391 0.0
C1605 C 0.99354 0.83853 0.34048 0.0
C1606 C 0.032 0.9474 0.35121 0.0
C1607 C 0.05581 0.85695 0.33399 0.0
C1608 C 0.12859 0.98754 0.33388 0.0
C1609 C 0.1548 0.99517 0.34047 0.0
C1610 C 0.09301 0.95636 0.33429 0.0
C1611 C 0.08321 0.93181 0.34143 0.0
C1612 C 0.11015 0.93812 0.34785 0.0
C1613 C 0.14554 0.96974 0.34731 0.0
C1614 C 0.06522 0.95096 0.32733 0.0
C1615 C 0.101 0.91244 0.35553 0.0
H1616 H 0.9644 0.8871 0.35263 0.0
H1617 H 0.98353 0.81102 0.33789 0.0
H1618 H 0.05459 0.95462 0.35596 0.0
H1619 H 0.04319 0.96851 0.34597 0.0
H1620 H 0.00926 0.94906 0.35454 0.0
H1621 H 0.04115 0.82812 0.33152 0.0
H1622 H 0.06792 0.87607 0.32839 0.0
H1623 H 0.07908 0.86069 0.33818 0.0
H1624 H 0.13525 0.00679 0.32853 0.0
H1625 H 0.16546 0.97516 0.35243 0.0
H1626 H 0.04356 0.95583 0.33015 0.0
H1627 H 0.05129 0.92218 0.32486 0.0
H1628 H 0.07815 0.9701 0.32174 0.0
H1629 H 0.08107 0.91497 0.35985 0.0
H1630 H 0.12591 0.91869 0.3594 0.0
H1631 H 0.08764 0.88333 0.3533 0.0
C1632 C 0.91336 0.88434 0.85085 0.0
C1633 C 0.88972 0.84948 0.84726 0.0
C1634 C 0.90667 0.91384 0.84977 0.0
C1635 C 0.87508 0.90831 0.8451 0.0
C1636 C 0.85122 0.87318 0.84136 0.0
C1637 C 0.85903 0.84421 0.84241 0.0
C1638 C 0.9334 0.95093 0.85369 0.0
C1639 C 0.81715 0.86605 0.83639 0.0
C1640 C 0.84597 0.97973 0.85008 0.0
C1641 C 0.86231 1.00478 0.84318 0.0
C1642 C 0.84828 0.94724 0.85057 0.0
C1643 C 0.86777 0.93974 0.84406 0.0
C1644 C 0.88328 0.96432 0.83695 0.0
C1645 C 0.88021 0.99626 0.83657 0.0
C1646 C 0.831 0.92159 0.85822 0.0
C1647 C 0.90478 0.95787 0.82992 0.0
H1648 H 0.93729 0.88859 0.85454 0.0
H1649 H 0.84057 0.81722 0.83967 0.0
H1650 H 0.94428 0.97248 0.84855 0.0
H1651 H 0.91892 0.95885 0.85854 0.0
H1652 H 0.95713 0.95089 0.85694 0.0
H1653 H 0.80129 0.83724 0.83393 0.0
H1654 H 0.79887 0.87141 0.84065 0.0
H1655 H 0.82501 0.88525 0.83078 0.0
H1656 H 0.83197 0.98582 0.85521 0.0
H1657 H 0.89315 0.01528 0.8312 0.0
H1658 H 0.85303 0.92242 0.86241 0.0
H1659 H 0.81368 0.89271 0.85593 0.0
H1660 H 0.81367 0.92917 0.86224 0.0
H1661 H 0.93044 0.96051 0.83275 0.0
H1662 H 0.91252 0.97785 0.82447 0.0
H1663 H 0.88843 0.92948 0.82728 0.0
C1664 C 0.17579 0.01508 0.84258 0.0
C1665 C 0.1762 0.03564 0.84983 0.0
C1666 C 0.14621 0.97885 0.84124 0.0
C1667 C 0.11577 0.96356 0.84708 0.0
C1668 C 0.11613 0.98461 0.85435 0.0
C1669 C 0.14659 0.01999 0.85571 0.0
C1670 C 0.14745 0.95698 0.83356 0.0
C1671 C 0.08382 0.97022 0.86057 0.0
C1672 C 0.02036 0.89063 0.83933 0.0
C1673 C 0.015 0.85871 0.84368 0.0
C1674 C 0.05335 0.92449 0.84018 0.0
C1675 C 0.08233 0.92669 0.84538 0.0
C1676 C 0.07777 0.8943 0.84952 0.0
C1677 C 0.04399 0.86079 0.84872 0.0
C1678 C 0.05641 0.95834 0.83583 0.0
C1679 C 0.10826 0.89528 0.85498 0.0
H1680 H 0.19886 0.02705 0.83807 0.0
H1681 H 0.14674 0.03598 0.86129 0.0
H1682 H 0.14231 0.9295 0.83575 0.0
H1683 H 0.1253 0.95218 0.82887 0.0
H1684 H 0.17444 0.97134 0.83011 0.0
H1685 H 0.0884 0.99008 0.86589 0.0
H1686 H 0.05844 0.96446 0.85698 0.0
H1687 H 0.07866 0.94384 0.86352 0.0
H1688 H 0.99815 0.8896 0.83548 0.0
H1689 H 0.04023 0.83633 0.85207 0.0
H1690 H 0.08157 0.97198 0.83171 0.0
H1691 H 0.05902 0.97857 0.84086 0.0
H1692 H 0.03205 0.95171 0.8317 0.0
H1693 H 0.13476 0.90897 0.85134 0.0
H1694 H 0.10215 0.86719 0.85693 0.0
H1695 H 0.11212 0.91171 0.86096 0.0
C1696 C 0.0087 0.17181 0.85107 0.0
C1697 C 0.97757 0.14217 0.84727 0.0
C1698 C 0.04412 0.17636 0.84988 0.0
C1699 C 0.04825 0.14957 0.84513 0.0
C1700 C 0.01678 0.11991 0.84111 0.0
C1701 C 0.98188 0.11699 0.8421 0.0
C1702 C 0.07693 0.20915 0.85399 0.0
C1703 C 0.01951 0.08997 0.83625 0.0
C1704 C 0.14385 0.1685 0.83793 0.0
C1705 C 0.15397 0.15365 0.84489 0.0
C1706 C 0.1099 0.16808 0.83798 0.0
C1707 C 0.08481 0.151 0.84497 0.0
C1708 C 0.09481 0.13548 0.85194 0.0
C1709 C 0.12949 0.13763 0.85189 0.0
C1710 C 0.10099 0.18614 0.83059 0.0
C1711 C 0.06855 0.11592 0.85939 0.0
H1712 H 1.00524 0.19119 0.8551 0.0
H1713 H 0.95761 0.09367 0.83929 0.0
H1714 H 0.08713 0.19979 0.85955 0.0
H1715 H 0.09988 0.22267 0.84923 0.0
H1716 H 0.06991 0.22992 0.85643 0.0
H1717 H 0.99294 0.06987 0.83314 0.0
H1718 H 0.04117 0.10217 0.83116 0.0
H1719 H 0.0277 0.0748 0.84084 0.0
H1720 H 0.16272 0.18088 0.83251 0.0
H1721 H 0.13694 0.12552 0.8572 0.0
H1722 H 0.09487 0.20727 0.8332 0.0
H1723 H 0.07593 0.16531 0.82711 0.0
H1724 H 0.12402 0.19955 0.82583 0.0
H1725 H 0.06287 0.13557 0.86298 0.0
H1726 H 0.07968 0.10359 0.86405 0.0
H1727 H 0.04177 0.09365 0.85683 0.0
C1728 C 0.84474 0.85643 0.68141 0.0
C1729 C 0.85174 0.88849 0.67691 0.0
C1730 C 0.87284 0.8474 0.68253 0.0
C1731 C 0.90882 0.87131 0.67921 0.0
C1732 C 0.91615 0.90438 0.67496 0.0
C1733 C 0.88752 0.91235 0.67381 0.0
C1734 C 0.86381 0.81186 0.68708 0.0
C1735 C 0.95416 0.93115 0.67147 0.0
C1736 C 0.99444 0.87025 0.68733 0.0
C1737 C 1.00233 0.85351 0.68034 0.0
C1738 C 0.96323 0.87471 0.68724 0.0
C1739 C 0.93894 0.86193 0.68001 0.0
C1740 C 0.94565 0.8433 0.67315 0.0
C1741 C 0.97727 0.83944 0.67338 0.0
C1742 C 0.95741 0.89492 0.69467 0.0
C1743 C 0.92031 0.82893 0.66536 0.0
H1744 H 0.81707 0.83784 0.68379 0.0
H1745 H 0.89314 0.93734 0.67039 0.0
H1746 H 0.86766 0.79352 0.68249 0.0
H1747 H 0.88298 0.81755 0.69261 0.0
H1748 H 0.83498 0.79693 0.68956 0.0
H1749 H 0.95573 0.95644 0.66869 0.0
H1750 H 0.97502 0.93948 0.67674 0.0
H1751 H 0.96183 0.91757 0.66632 0.0
H1752 H 0.01346 0.88124 0.69276 0.0
H1753 H 0.98291 0.82638 0.66796 0.0
H1754 H 0.92853 0.8792 0.69707 0.0
H1755 H 0.96213 0.92208 0.69234 0.0
H1756 H 0.97641 0.89971 0.7002 0.0
H1757 H 0.89114 0.81215 0.66751 0.0
H1758 H 0.92705 0.8118 0.66103 0.0
H1759 H 0.92263 0.8525 0.66153 0.0
C1760 C 0.14856 0.12852 0.68784 0.0
C1761 C 0.16457 0.15344 0.68088 0.0
C1762 C 0.14499 0.09326 0.68761 0.0
C1763 C 0.15785 0.08249 0.68026 0.0
C1764 C 0.17593 0.10824 0.67345 0.0
C1765 C 0.17901 0.14333 0.67383 0.0
C1766 C 0.12545 0.06675 0.69501 0.0
C1767 C 0.19028 0.09803 0.66552 0.0
C1768 C 0.16358 0.99395 0.68098 0.0
C1769 C 0.13109 0.96913 0.6766 0.0
C1770 C 0.17274 0.03099 0.68228 0.0
C1771 C 0.14857 0.04319 0.67923 0.0
C1772 C 0.11522 0.01776 0.67504 0.0
C1773 C 0.10705 0.98123 0.67374 0.0
C1774 C 0.20855 0.05723 0.68676 0.0
C1775 C 0.08826 0.02922 0.67181 0.0
H1776 H 0.13739 0.13594 0.69335 0.0
H1777 H 0.19155 0.1623 0.66843 0.0
H1778 H 0.09815 0.04438 0.69274 0.0
H1779 H 0.14148 0.0536 0.69719 0.0
H1780 H 0.121 0.08059 0.70068 0.0
H1781 H 0.2073 0.12227 0.66128 0.0
H1782 H 0.20716 0.08552 0.66749 0.0
H1783 H 0.16667 0.07709 0.66164 0.0
H1784 H 0.18225 0.98469 0.68319 0.0
H1785 H 0.08171 0.96203 0.67042 0.0
H1786 H 0.2031 0.07011 0.69247 0.0
H1787 H 0.22652 0.07987 0.68224 0.0
H1788 H 0.22377 0.04326 0.68899 0.0
H1789 H 0.07993 0.04105 0.67724 0.0
H1790 H 0.06296 0.00576 0.66896 0.0
H1791 H 0.10167 0.05103 0.66678 0.0
C1792 C 0.88605 0.0245 0.6878 0.0
C1793 C 0.86088 0.01481 0.68087 0.0
C1794 C 0.92121 0.05622 0.68744 0.0
C1795 C 0.93166 0.07917 0.67998 0.0
C1796 C 0.90565 0.07085 0.67319 0.0
C1797 C 0.87061 0.03874 0.6737 0.0
C1798 C 0.94799 0.06384 0.69481 0.0
C1799 C 0.91554 0.09478 0.66516 0.0
C1800 C 0.02062 0.17301 0.6809 0.0
C1801 C 0.04567 0.16503 0.67672 0.0
C1802 C 0.98325 0.14551 0.68195 0.0
C1803 C 0.97094 0.10917 0.67887 0.0
C1804 C 0.99648 0.10097 0.67483 0.0
C1805 C 0.03335 0.129 0.67376 0.0
C1806 C 0.95687 0.15538 0.68625 0.0
C1807 C 0.98489 0.06253 0.6716 0.0
H1808 H 0.8789 0.0065 0.69342 0.0
H1809 H 0.85146 0.03169 0.66832 0.0
H1810 H 0.97055 0.05916 0.69255 0.0
H1811 H 0.96086 0.09307 0.69692 0.0
H1812 H 0.93445 0.04578 0.70054 0.0
H1813 H 0.89108 0.08731 0.66099 0.0
H1814 H 0.92828 0.12432 0.66701 0.0
H1815 H 0.9362 0.09168 0.66127 0.0
H1816 H 0.03002 0.20088 0.68317 0.0
H1817 H 0.0527 0.12264 0.67059 0.0
H1818 H 0.94431 0.13785 0.69209 0.0
H1819 H 0.93399 0.14983 0.68172 0.0
H1820 H 0.97067 0.18485 0.68825 0.0
H1821 H 0.97317 0.04247 0.67705 0.0
H1822 H 1.00827 0.06061 0.66872 0.0
H1823 H 0.96294 0.05407 0.66661 0.0
C1824 C 0.83788 0.36643 0.50545 0.0
C1825 C 0.825 0.34318 0.51277 0.0
C1826 C 0.83576 0.39902 0.50504 0.0
C1827 C 0.82016 0.40858 0.51208 0.0
C1828 C 0.80859 0.38608 0.51962 0.0
C1829 C 0.81124 0.35387 0.51988 0.0
C1830 C 0.8487 0.42236 0.4969 0.0
C1831 C 0.79153 0.39492 0.52726 0.0
C1832 C 0.8295 0.50451 0.51311 0.0
C1833 C 0.7962 0.49765 0.50928 0.0
C1834 C 0.83795 0.47593 0.51403 0.0
C1835 C 0.8122 0.43963 0.5112 0.0
C1836 C 0.77816 0.4326 0.50755 0.0
C1837 C 0.77078 0.46166 0.50658 0.0
C1838 C 0.87458 0.48463 0.51791 0.0
C1839 C 0.7495 0.39432 0.5046 0.0
H1840 H 0.8487 0.3587 0.49992 0.0
H1841 H 0.80123 0.33638 0.5256 0.0
H1842 H 0.82452 0.42023 0.49339 0.0
H1843 H 0.867 0.45185 0.49861 0.0
H1844 H 0.86381 0.41361 0.49243 0.0
H1845 H 0.78734 0.37687 0.53296 0.0
H1846 H 0.80917 0.42413 0.52927 0.0
H1847 H 0.76432 0.39127 0.52532 0.0
H1848 H 0.84927 0.53233 0.51517 0.0
H1849 H 0.74484 0.45615 0.50368 0.0
H1850 H 0.89024 0.47762 0.51319 0.0
H1851 H 0.87003 0.4675 0.5238 0.0
H1852 H 0.89171 0.51422 0.51972 0.0
H1853 H 0.76111 0.38479 0.49937 0.0
H1854 H 0.72405 0.3933 0.50211 0.0
H1855 H 0.74176 0.37453 0.51009 0.0
C1856 C 0.51153 0.32711 0.51488 0.0
C1857 C 0.51875 0.3024 0.5103 0.0
C1858 C 0.53937 0.36422 0.51604 0.0
C1859 C 0.57529 0.37656 0.51266 0.0
C1860 C 0.5829 0.35117 0.50833 0.0
C1861 C 0.55451 0.31456 0.50715 0.0
C1862 C 0.53014 0.39043 0.52067 0.0
C1863 C 0.62093 0.36282 0.50478 0.0
C1864 C 0.64337 0.47691 0.50699 0.0
C1865 C 0.66852 0.48745 0.51392 0.0
C1866 C 0.61171 0.44153 0.50673 0.0
C1867 C 0.60514 0.41597 0.51353 0.0
C1868 C 0.62943 0.42713 0.52074 0.0
C1869 C 0.66065 0.46267 0.52086 0.0
C1870 C 0.58628 0.43086 0.49897 0.0
C1871 C 0.62368 0.40081 0.5281 0.0
H1872 H 0.48383 0.3178 0.51728 0.0
H1873 H 0.56023 0.2954 0.50366 0.0
H1874 H 0.54941 0.40395 0.52618 0.0
H1875 H 0.53362 0.41259 0.51612 0.0
H1876 H 0.50137 0.37627 0.5232 0.0
H1877 H 0.62263 0.33936 0.50188 0.0
H1878 H 0.62843 0.38434 0.49971 0.0
H1879 H 0.64182 0.3751 0.51004 0.0
H1880 H 0.64905 0.4958 0.50161 0.0
H1881 H 0.67972 0.47043 0.52628 0.0
H1882 H 0.55711 0.41813 0.50113 0.0
H1883 H 0.58879 0.40995 0.49503 0.0
H1884 H 0.5928 0.45491 0.49473 0.0
H1885 H 0.59479 0.38746 0.5305 0.0
H1886 H 0.64263 0.41485 0.53366 0.0
H1887 H 0.62857 0.37857 0.5257 0.0
C1888 C 0.53965 0.17287 0.51814 0.0
C1889 C 0.52862 0.187 0.51121 0.0
C1890 C 0.57402 0.17416 0.51799 0.0
C1891 C 0.59865 0.19153 0.51094 0.0
C1892 C 0.58765 0.20622 0.50397 0.0
C1893 C 0.55254 0.20313 0.50412 0.0
C1894 C 0.58396 0.15696 0.52538 0.0
C1895 C 0.61338 0.22611 0.49647 0.0
C1896 C 0.70227 0.22868 0.51376 0.0
C1897 C 0.70748 0.20388 0.50866 0.0
C1898 C 0.66688 0.22467 0.51472 0.0
C1899 C 0.63585 0.19433 0.51075 0.0
C1900 C 0.64094 0.16801 0.50605 0.0
C1901 C 0.67679 0.17362 0.50489 0.0
C1902 C 0.6631 0.25413 0.51951 0.0
C1903 C 0.60868 0.13456 0.50198 0.0
H1904 H 0.52125 0.1606 0.52365 0.0
H1905 H 0.54441 0.21484 0.49885 0.0
H1906 H 0.59138 0.13673 0.52278 0.0
H1907 H 0.60851 0.17851 0.52889 0.0
H1908 H 0.56098 0.14268 0.53013 0.0
H1909 H 0.60132 0.2374 0.49177 0.0
H1910 H 0.63978 0.24922 0.49896 0.0
H1911 H 0.62003 0.20703 0.49293 0.0
H1912 H 0.72618 0.25251 0.51653 0.0
H1913 H 0.68094 0.15456 0.5009 0.0
H1914 H 0.64168 0.24155 0.52466 0.0
H1915 H 0.654 0.26846 0.51491 0.0
H1916 H 0.68948 0.27499 0.52256 0.0
H1917 H 0.58593 0.12052 0.50678 0.0
H1918 H 0.61655 0.11441 0.49955 0.0
H1919 H 0.59781 0.14327 0.49644 0.0
C1920 C 0.79755 0.43737 0.68313 0.0
C1921 C 0.83356 0.46098 0.68013 0.0
C1922 C 0.76935 0.44582 0.68187 0.0
C1923 C 0.77736 0.47903 0.67759 0.0
C1924 C 0.81363 0.50281 0.67443 0.0
C1925 C 0.84131 0.49335 0.67568 0.0
C1926 C 0.73098 0.41928 0.68521 0.0
C1927 C 0.82329 0.53847 0.66986 0.0
C1928 C 0.69243 0.4796 0.66892 0.0
C1929 C 0.68384 0.49614 0.67582 0.0
C1930 C 0.72384 0.47555 0.6692 0.0
C1931 C 0.74751 0.48853 0.67653 0.0
C1932 C 0.74021 0.50716 0.68327 0.0
C1933 C 0.70844 0.51065 0.68285 0.0
C1934 C 0.73043 0.4554 0.66188 0.0
C1935 C 0.7649 0.52169 0.69117 0.0
H1936 H 0.79136 0.41211 0.6865 0.0
H1937 H 0.86915 0.51167 0.67337 0.0
H1938 H 0.7228 0.43314 0.69017 0.0
H1939 H 0.71069 0.41066 0.67981 0.0
H1940 H 0.72909 0.39414 0.68817 0.0
H1941 H 0.85251 0.55356 0.66763 0.0
H1942 H 0.80504 0.53285 0.66413 0.0
H1943 H 0.81859 0.55662 0.67431 0.0
H1944 H 0.67376 0.46832 0.66343 0.0
H1945 H 0.70224 0.52361 0.6882 0.0
H1946 H 0.7254 0.42819 0.66425 0.0
H1947 H 0.75955 0.47111 0.65964 0.0
H1948 H 0.71202 0.4507 0.65622 0.0
H1949 H 0.76205 0.49817 0.69512 0.0
H1950 H 0.75793 0.53906 0.69535 0.0
H1951 H 0.79427 0.53824 0.68916 0.0
C1952 C 0.51048 0.2046 0.68378 0.0
C1953 C 0.52208 0.19302 0.67644 0.0
C1954 C 0.51343 0.23966 0.68405 0.0
C1955 C 0.52863 0.26397 0.67685 0.0
C1956 C 0.53877 0.25179 0.66928 0.0
C1957 C 0.53524 0.21653 0.66915 0.0
C1958 C 0.50188 0.25135 0.69221 0.0
C1959 C 0.55537 0.27679 0.66149 0.0
C1960 C 0.52131 0.35165 0.67592 0.0
C1961 C 0.55504 0.37767 0.67964 0.0
C1962 C 0.51218 0.31446 0.67493 0.0
C1963 C 0.53769 0.30333 0.6776 0.0
C1964 C 0.57226 0.32996 0.68109 0.0
C1965 C 0.58032 0.3666 0.68213 0.0
C1966 C 0.47499 0.28692 0.67124 0.0
C1967 C 0.60068 0.3197 0.68386 0.0
H1968 H 0.5001 0.18673 0.68943 0.0
H1969 H 0.54428 0.20806 0.66343 0.0
H1970 H 0.52673 0.2733 0.69556 0.0
H1971 H 0.484 0.2631 0.69056 0.0
H1972 H 0.48679 0.22802 0.69682 0.0
H1973 H 0.55823 0.262 0.65579 0.0
H1974 H 0.53818 0.289 0.65956 0.0
H1975 H 0.58315 0.29995 0.66321 0.0
H1976 H 0.50164 0.3601 0.67402 0.0
H1977 H 0.60659 0.38672 0.68494 0.0
H1978 H 0.45899 0.26528 0.67616 0.0
H1979 H 0.47853 0.2729 0.66549 0.0
H1980 H 0.45865 0.30006 0.66927 0.0
H1981 H 0.58942 0.29915 0.68921 0.0
H1982 H 0.62679 0.34398 0.68612 0.0
H1983 H 0.60717 0.3067 0.67835 0.0
C1984 C 0.81722 0.30044 0.6806 0.0
C1985 C 0.82026 0.33182 0.67651 0.0
C1986 C 0.78291 0.26742 0.68112 0.0
C1987 C 0.75068 0.26621 0.67777 0.0
C1988 C 0.75382 0.29777 0.67354 0.0
C1989 C 0.78858 0.32991 0.67284 0.0
C1990 C 0.78099 0.23415 0.68548 0.0
C1991 C 0.72018 0.29832 0.67014 0.0
C1992 C 0.65957 0.17557 0.67463 0.0
C1993 C 0.64125 0.1733 0.68246 0.0
C1994 C 0.69569 0.20503 0.6731 0.0
C1995 C 0.71329 0.23341 0.67941 0.0
C1996 C 0.69455 0.23122 0.68727 0.0
C1997 C 0.65912 0.20097 0.68875 0.0
C1998 C 0.71505 0.2058 0.66474 0.0
C1999 C 0.71158 0.26127 0.69408 0.0
H2000 H 0.84163 0.30173 0.68341 0.0
H2001 H 0.79064 0.35423 0.66977 0.0
H2002 H 0.76607 0.22879 0.69177 0.0
H2003 H 0.76532 0.20924 0.68136 0.0
H2004 H 0.80887 0.23801 0.68677 0.0
H2005 H 0.72749 0.32439 0.66665 0.0
H2006 H 0.70439 0.27481 0.66564 0.0
H2007 H 0.7016 0.29513 0.67565 0.0
H2008 H 0.64587 0.15408 0.66978 0.0
H2009 H 0.64495 0.19945 0.69479 0.0
H2010 H 0.74224 0.20835 0.66621 0.0
H2011 H 0.72044 0.23029 0.66082 0.0
H2012 H 0.6986 0.18061 0.66074 0.0
H2013 H 0.73794 0.26406 0.69643 0.0
H2014 H 0.69307 0.25576 0.69976 0.0
H2015 H 0.71808 0.28818 0.69118 0.0
C2016 C 0.52144 0.17678 0.17498 0.0
C2017 C 0.5548 0.18361 0.17877 0.0
C2018 C 0.51278 0.20523 0.17418 0.0
C2019 C 0.53839 0.2414 0.1771 0.0
C2020 C 0.57265 0.24852 0.18064 0.0
C2021 C 0.58023 0.21952 0.1815 0.0
C2022 C 0.4759 0.19641 0.17042 0.0
C2023 C 0.60122 0.28674 0.18363 0.0
C2024 C 0.53728 0.32644 0.1687 0.0
C2025 C 0.52365 0.33674 0.17592 0.0
C2026 C 0.54072 0.2947 0.16886 0.0
C2027 C 0.52999 0.27218 0.17639 0.0
C2028 C 0.51435 0.28121 0.18353 0.0
C2029 C 0.51148 0.31341 0.18322 0.0
C2030 C 0.55778 0.28642 0.16113 0.0
C2031 C 0.50214 0.2577 0.19164 0.0
H2032 H 0.50158 0.14896 0.17293 0.0
H2033 H 0.60612 0.2249 0.1844 0.0
H2034 H 0.45998 0.20222 0.17534 0.0
H2035 H 0.48 0.21433 0.16472 0.0
H2036 H 0.45922 0.16708 0.16837 0.0
H2037 H 0.62698 0.28792 0.18595 0.0
H2038 H 0.60838 0.3068 0.17822 0.0
H2039 H 0.58978 0.29577 0.189 0.0
H2040 H 0.54663 0.34393 0.16298 0.0
H2041 H 0.50083 0.32088 0.18883 0.0
H2042 H 0.5403 0.25727 0.15906 0.0
H2043 H 0.58513 0.29024 0.16299 0.0
H2044 H 0.56165 0.30465 0.15549 0.0
H2045 H 0.48408 0.22819 0.18992 0.0
H2046 H 0.487 0.26604 0.19622 0.0
H2047 H 0.52666 0.26013 0.19505 0.0
C2048 C 0.83932 0.34464 0.17666 0.0
C2049 C 0.8309 0.37108 0.17979 0.0
C2050 C 0.81155 0.30722 0.17591 0.0
C2051 C 0.77453 0.29633 0.17817 0.0
C2052 C 0.76595 0.32331 0.18109 0.0
C2053 C 0.79425 0.36018 0.18194 0.0
C2054 C 0.82188 0.27928 0.17284 0.0
C2055 C 0.72683 0.31328 0.18337 0.0
C2056 C 0.69167 0.20987 0.16924 0.0
C2057 C 0.67903 0.18684 0.17662 0.0
C2058 C 0.72379 0.24474 0.16952 0.0
C2059 C 0.74427 0.25701 0.17735 0.0
C2060 C 0.73311 0.23301 0.18465 0.0
C2061 C 0.70056 0.19828 0.18421 0.0
C2062 C 0.73438 0.26938 0.16159 0.0
C2063 C 0.75445 0.24482 0.19308 0.0
H2064 H 0.86771 0.35298 0.17506 0.0
H2065 H 0.78763 0.38065 0.1843 0.0
H2066 H 0.81468 0.25787 0.17793 0.0
H2067 H 0.80588 0.26502 0.16692 0.0
H2068 H 0.85181 0.29212 0.17134 0.0
H2069 H 0.72468 0.3377 0.18535 0.0
H2070 H 0.70839 0.30007 0.1777 0.0
H2071 H 0.71643 0.29296 0.18878 0.0
H2072 H 0.6756 0.20142 0.16329 0.0
H2073 H 0.69127 0.18079 0.18994 0.0
H2074 H 0.76413 0.28115 0.16008 0.0
H2075 H 0.72976 0.29285 0.16293 0.0
H2076 H 0.718 0.25444 0.15576 0.0
H2077 H 0.78443 0.25665 0.19184 0.0
H2078 H 0.74517 0.22152 0.19775 0.0
H2079 H 0.7507 0.26672 0.19618 0.0
C2080 C 0.78745 0.45914 0.17099 0.0
C2081 C 0.81839 0.48753 0.17524 0.0
C2082 C 0.75262 0.45652 0.17151 0.0
C2083 C 0.74866 0.48351 0.17621 0.0
C2084 C 0.78024 0.51332 0.18013 0.0
C2085 C 0.81459 0.51465 0.17972 0.0
C2086 C 0.71966 0.42362 0.16747 0.0
C2087 C 0.77748 0.54314 0.18504 0.0
C2088 C 0.65854 0.48575 0.17363 0.0
C2089 C 0.63979 0.468 0.18128 0.0
C2090 C 0.69427 0.49153 0.1719 0.0
C2091 C 0.71098 0.47826 0.17785 0.0
C2092 C 0.69148 0.45944 0.18546 0.0
C2093 C 0.65651 0.45509 0.18713 0.0
C2094 C 0.71439 0.51238 0.16381 0.0
C2095 C 0.7075 0.44372 0.19185 0.0
H2096 H 0.79003 0.43779 0.16759 0.0
H2097 H 0.8384 0.53674 0.18298 0.0
H2098 H 0.70072 0.40585 0.17269 0.0
H2099 H 0.70395 0.4327 0.16333 0.0
H2100 H 0.72776 0.40669 0.16346 0.0
H2101 H 0.80509 0.56673 0.18674 0.0
H2102 H 0.76232 0.55357 0.18111 0.0
H2103 H 0.76167 0.53155 0.19115 0.0
H2104 H 0.64572 0.49594 0.16912 0.0
H2105 H 0.64196 0.44109 0.19303 0.0
H2106 H 0.72143 0.49496 0.1597 0.0
H2107 H 0.74078 0.53726 0.16566 0.0
H2108 H 0.69779 0.52115 0.15988 0.0
H2109 H 0.7146 0.42465 0.18846 0.0
H2110 H 0.68811 0.42845 0.19726 0.0
H2111 H 0.73339 0.46629 0.19468 0.0
C2112 C 0.64315 0.17018 1.00762 0.0
C2113 C 0.66817 0.18517 0.01458 0.0
C2114 C 0.61141 0.17383 1.00721 0.0
C2115 C 0.60452 0.19312 0.01388 0.0
C2116 C 0.62866 0.20667 0.02112 0.0
C2117 C 0.65998 0.20244 0.02139 0.0
C2118 C 0.58621 0.15862 0.99942 0.0
C2119 C 0.62264 0.22758 0.02836 0.0
C2120 C 0.55377 0.24375 1.00725 0.0
C2121 C 0.51802 0.22054 1.01046 0.0
C2122 C 0.58209 0.23535 1.00844 0.0
C2123 C 0.57449 0.20253 0.01286 0.0
C2124 C 0.53852 0.1792 0.01625 0.0
C2125 C 0.51074 0.18864 0.01508 0.0
C2126 C 0.62012 0.26152 1.00487 0.0
C2127 C 0.52921 0.14394 0.02097 0.0
H2128 H 0.649 0.15672 1.00233 0.0
H2129 H 0.67887 0.21407 0.02683 0.0
H2130 H 0.55698 0.14226 1.00155 0.0
H2131 H 0.58879 0.18178 0.99537 0.0
H2132 H 0.5929 0.14087 0.99531 0.0
H2133 H 0.64156 0.23296 0.03394 0.0
H2134 H 0.62735 0.25447 0.02584 0.0
H2135 H 0.59373 0.21204 0.03074 0.0
H2136 H 0.55962 0.26858 1.00373 0.0
H2137 H 0.48309 0.17054 0.01754 0.0
H2138 H 0.62771 0.24719 0.9999 0.0
H2139 H 0.64097 0.27049 1.01015 0.0
H2140 H 0.6218 0.28646 1.00184 0.0
H2141 H 0.53331 0.12531 0.01654 0.0
H2142 H 0.50025 0.12918 0.02338 0.0
H2143 H 0.54807 0.15 0.02659 0.0
C2144 C 0.77048 0.31352 1.00768 0.0
C2145 C 0.79429 0.30117 1.01055 0.0
C2146 C 0.77895 0.35015 1.00896 0.0
C2147 C 0.81241 0.37544 0.01313 0.0
C2148 C 0.83621 0.3629 0.01626 0.0
C2149 C 0.82672 0.32575 0.01499 0.0
C2150 C 0.75233 0.36195 1.00567 0.0
C2151 C 0.87212 0.38896 0.02073 0.0
C2152 C 0.84438 0.47561 1.00736 0.0
C2153 C 0.83037 0.4865 0.01436 0.0
C2154 C 0.84067 0.44023 1.00712 0.0
C2155 C 0.82234 0.41499 0.01402 0.0
C2156 C 0.80993 0.42653 0.0213 0.0
C2157 C 0.81416 0.46208 0.0214 0.0
C2158 C 0.85461 0.42918 0.99926 0.0
C2159 C 0.79013 0.4006 0.02878 0.0
H2160 H 0.74521 0.29448 1.00431 0.0
H2161 H 0.84523 0.3163 0.0172 0.0
H2162 H 0.74452 0.37452 1.01103 0.0
H2163 H 0.76583 0.38327 1.00054 0.0
H2164 H 0.72672 0.33851 1.00293 0.0
H2165 H 0.88668 0.37461 0.02315 0.0
H2166 H 0.89056 0.41093 0.01611 0.0
H2167 H 0.86701 0.40275 0.02629 0.0
H2168 H 0.85706 0.4942 1.0019 0.0
H2169 H 0.80331 0.4701 0.02687 0.0
H2170 H 0.83079 0.40822 0.99544 0.0
H2171 H 0.87115 0.41641 1.00131 0.0
H2172 H 0.87184 0.45306 0.99495 0.0
H2173 H 0.76261 0.37845 0.02657 0.0
H2174 H 0.78611 0.415 0.0344 0.0
H2175 H 0.80572 0.38708 0.03103 0.0
C2176 C 0.5369 0.37157 1.00707 0.0
C2177 C 0.52707 0.34788 0.01429 0.0
C2178 C 0.57185 0.40378 1.00657 0.0
C2179 C 0.59768 0.41249 0.01342 0.0
C2180 C 0.58709 0.38983 0.02093 0.0
C2181 C 0.55202 0.35798 0.02128 0.0
C2182 C 0.58189 0.42737 0.99848 0.0
C2183 C 0.61365 0.39787 0.02838 0.0
C2184 C 0.6994 0.46195 1.00725 0.0
C2185 C 0.71168 0.49819 1.01005 0.0
C2186 C 0.66256 0.43398 1.00838 0.0
C2187 C 0.63699 0.44242 0.01231 0.0
C2188 C 0.64928 0.47896 0.01523 0.0
C2189 C 0.68663 0.50643 0.01412 0.0
C2190 C 0.65101 0.39533 1.00531 0.0
C2191 C 0.62287 0.48908 0.01942 0.0
H2192 H 0.51792 0.36421 1.00165 0.0
H2193 H 0.54478 0.34018 0.02694 0.0
H2194 H 0.59458 0.45698 1.00024 0.0
H2195 H 0.60265 0.42411 0.99466 0.0
H2196 H 0.55752 0.41969 0.99426 0.0
H2197 H 0.59993 0.38016 0.03414 0.0
H2198 H 0.63624 0.393 0.02624 0.0
H2199 H 0.62652 0.42724 0.03037 0.0
H2200 H 0.71875 0.45539 1.00416 0.0
H2201 H 0.69601 0.53446 0.01626 0.0
H2202 H 0.62917 0.38658 1.00028 0.0
H2203 H 0.63916 0.3756 1.01082 0.0
H2204 H 0.67444 0.39322 1.00253 0.0
H2205 H 0.60016 0.48349 0.01483 0.0
H2206 H 0.63671 0.51861 0.02137 0.0
H2207 H 0.61008 0.47174 0.02527 0.0
C2208 C 0.49754 0.83668 0.84784 0.0
C2209 C 0.46527 0.83003 0.8435 0.0
C2210 C 0.50615 0.80825 0.84888 0.0
C2211 C 0.48159 0.77231 0.84565 0.0
C2212 C 0.44841 0.7654 0.84152 0.0
C2213 C 0.44087 0.79433 0.84045 0.0
C2214 C 0.54182 0.81681 0.85329 0.0
C2215 C 0.42094 0.72744 0.83814 0.0
C2216 C 0.51007 0.70088 0.84016 0.0
C2217 C 0.49543 0.67651 0.84724 0.0
C2218 C 0.50759 0.7333 0.83977 0.0
C2219 C 0.4899 0.74152 0.84659 0.0
C2220 C 0.47669 0.71794 0.85394 0.0
C2221 C 0.47971 0.68594 0.85418 0.0
C2222 C 0.52234 0.75784 0.83186 0.0
C2223 C 0.45744 0.72535 0.86134 0.0
H2224 H 0.51657 0.8643 0.85016 0.0
H2225 H 0.41574 0.789 0.83714 0.0
H2226 H 0.53608 0.79821 0.85895 0.0
H2227 H 0.55933 0.81175 0.84869 0.0
H2228 H 0.55765 0.84589 0.85557 0.0
H2229 H 0.39595 0.7264 0.83532 0.0
H2230 H 0.43408 0.71897 0.83305 0.0
H2231 H 0.41213 0.70686 0.84348 0.0
H2232 H 0.52233 0.69405 0.83477 0.0
H2233 H 0.46845 0.6676 0.85973 0.0
H2234 H 0.53977 0.78712 0.83385 0.0
H2235 H 0.49896 0.75582 0.828 0.0
H2236 H 0.53891 0.75009 0.8276 0.0
H2237 H 0.47419 0.7543 0.86361 0.0
H2238 H 0.4521 0.70658 0.86696 0.0
H2239 H 0.43061 0.72157 0.85903 0.0
C2240 C 0.17979 0.66233 0.84771 0.0
C2241 C 0.18628 0.63725 0.84306 0.0
C2242 C 0.20823 0.69924 0.84891 0.0
C2243 C 0.24405 0.71103 0.84551 0.0
C2244 C 0.25081 0.68531 0.84105 0.0
C2245 C 0.22184 0.64895 0.83983 0.0
C2246 C 0.1998 0.72577 0.85366 0.0
C2247 C 0.28864 0.69625 0.83749 0.0
C2248 C 0.31499 0.8116 0.84052 0.0
C2249 C 0.33968 0.82063 0.84751 0.0
C2250 C 0.28266 0.77669 0.84002 0.0
C2251 C 0.27485 0.75003 0.84662 0.0
C2252 C 0.29875 0.75964 0.85388 0.0
C2253 C 0.33067 0.7947 0.85425 0.0
C2254 C 0.25776 0.76773 0.8322 0.0
C2255 C 0.29177 0.73216 0.86106 0.0
H2256 H 0.15228 0.65343 0.85018 0.0
H2257 H 0.22704 0.62957 0.83629 0.0
H2258 H 0.21836 0.73762 0.85936 0.0
H2259 H 0.20508 0.74909 0.84931 0.0
H2260 H 0.17069 0.71232 0.85594 0.0
H2261 H 0.28957 0.67269 0.8344 0.0
H2262 H 0.29688 0.71846 0.83257 0.0
H2263 H 0.30945 0.70739 0.84278 0.0
H2264 H 0.32149 0.8313 0.83529 0.0
H2265 H 0.34929 0.80122 0.85973 0.0
H2266 H 0.22854 0.75558 0.83429 0.0
H2267 H 0.25967 0.74687 0.82811 0.0
H2268 H 0.26526 0.7925 0.82813 0.0
H2269 H 0.2629 0.7196 0.86343 0.0
H2270 H 0.3108 0.74497 0.86666 0.0
H2271 H 0.29553 0.70946 0.85847 0.0
C2272 C 0.36799 0.5751 0.8404 0.0
C2273 C 0.37913 0.55042 0.84334 0.0
C2274 C 0.33144 0.56746 0.84141 0.0
C2275 C 0.30494 0.53388 0.84534 0.0
C2276 C 0.31614 0.509 0.84846 0.0
C2277 C 0.35326 0.51772 0.84749 0.0
C2278 C 0.32117 0.59529 0.83817 0.0
C2279 C 0.28876 0.47288 0.85265 0.0
C2280 C 0.22027 0.53535 0.85392 0.0
C2281 C 0.19547 0.52058 0.8469 0.0
C2282 C 0.25518 0.53811 0.85368 0.0
C2283 C 0.26581 0.52559 0.84626 0.0
C2284 C 0.24021 0.50876 0.83935 0.0
C2285 C 0.2054 0.50653 0.83973 0.0
C2286 C 0.2815 0.55644 0.86118 0.0
C2287 C 0.25027 0.49472 0.83135 0.0
H2288 H 0.38798 0.60054 0.83723 0.0
H2289 H 0.36173 0.49846 0.84971 0.0
H2290 H 0.29982 0.58269 0.83302 0.0
H2291 H 0.30913 0.60359 0.84356 0.0
H2292 H 0.34527 0.62052 0.83548 0.0
H2293 H 0.30186 0.45679 0.85485 0.0
H2294 H 0.27556 0.47801 0.85834 0.0
H2295 H 0.26646 0.45591 0.84796 0.0
H2296 H 0.21302 0.5461 0.85954 0.0
H2297 H 0.18658 0.495 0.83428 0.0
H2298 H 0.30474 0.58346 0.85902 0.0
H2299 H 0.29348 0.53936 0.86335 0.0
H2300 H 0.26785 0.56127 0.86684 0.0
H2301 H 0.2718 0.51843 0.82759 0.0
H2302 H 0.2261 0.4786 0.82703 0.0
H2303 H 0.26202 0.47707 0.83323 0.0
C2304 C 0.46491 0.7705 0.01553 0.0
C2305 C 0.50101 0.79453 0.01265 0.0
C2306 C 0.43663 0.77888 0.01434 0.0
C2307 C 0.44465 0.81247 1.01025 0.0
C2308 C 0.481 0.83665 1.00719 0.0
C2309 C 0.50877 0.82726 1.00837 0.0
C2310 C 0.3982 0.75191 0.01757 0.0
C2311 C 0.49068 0.87273 1.00283 0.0
C2312 C 0.35966 0.8134 1.00178 0.0
C2313 C 0.35077 0.82908 1.00881 0.0
C2314 C 0.39122 0.8096 1.00195 0.0
C2315 C 0.41474 0.82194 1.00931 0.0
C2316 C 0.40713 0.83974 0.0162 0.0
C2317 C 0.37522 0.84302 0.01588 0.0
C2318 C 0.39813 0.79034 0.99447 0.0
C2319 C 0.43165 0.85359 0.02414 0.0
H2320 H 0.45873 0.74499 0.01878 0.0
H2321 H 0.53669 0.84593 1.00616 0.0
H2322 H 0.3899 0.76516 0.02267 0.0
H2323 H 0.37802 0.74392 0.01216 0.0
H2324 H 0.39627 0.72644 0.02034 0.0
H2325 H 0.5199 0.88802 1.00062 0.0
H2326 H 0.47243 0.86765 0.99713 0.0
H2327 H 0.48598 0.89046 1.00743 0.0
H2328 H 0.34113 0.80261 0.99625 0.0
H2329 H 0.36879 0.85532 0.02133 0.0
H2330 H 0.39312 0.76291 0.99667 0.0
H2331 H 0.42731 0.80638 0.9923 0.0
H2332 H 0.37987 0.78621 0.98882 0.0
H2333 H 0.42883 0.82974 0.02794 0.0
H2334 H 0.4245 0.87048 0.02844 0.0
H2335 H 0.46106 0.87043 0.02218 0.0
C2336 C 0.18755 0.68486 1.00856 0.0
C2337 C 0.22065 0.71 0.01268 0.0
C2338 C 0.17788 0.64755 1.00749 0.0
C2339 C 0.20215 0.63541 1.0105 0.0
C2340 C 0.23603 0.6611 0.01445 0.0
C2341 C 0.24468 0.69789 0.01553 0.0
C2342 C 0.14148 0.62102 1.00328 0.0
C2343 C 0.26313 0.64971 0.0176 0.0
C2344 C 0.17237 0.53548 0.01606 0.0
C2345 C 0.18607 0.5251 1.00891 0.0
C2346 C 0.17542 0.57058 0.01644 0.0
C2347 C 0.19274 0.59603 1.00953 0.0
C2348 C 0.20481 0.58496 1.00209 0.0
C2349 C 0.20124 0.54971 1.00186 0.0
C2350 C 0.16187 0.58113 0.02446 0.0
C2351 C 0.22357 0.61114 0.99459 0.0
H2352 H 0.16885 0.6941 1.00637 0.0
H2353 H 0.27045 0.71732 0.01866 0.0
H2354 H 0.14619 0.60789 0.99752 0.0
H2355 H 0.12417 0.59859 1.00792 0.0
H2356 H 0.12592 0.63482 1.00119 0.0
H2357 H 0.28868 0.67327 0.02033 0.0
H2358 H 0.25005 0.62817 0.02271 0.0
H2359 H 0.271 0.63754 0.01217 0.0
H2360 H 0.1605 0.51675 0.02153 0.0
H2361 H 0.21179 0.54208 0.99627 0.0
H2362 H 0.14491 0.59368 0.02259 0.0
H2363 H 0.18587 0.60213 0.02822 0.0
H2364 H 0.14518 0.55704 0.02876 0.0
H2365 H 0.20721 0.62402 0.99249 0.0
H2366 H 0.22763 0.5971 0.9889 0.0
H2367 H 0.25102 0.63373 0.99672 0.0
C2368 C 0.3178 0.55073 0.01591 0.0
C2369 C 0.3057 0.51489 0.01284 0.0
C2370 C 0.35447 0.57912 0.01474 0.0
C2371 C 0.38002 0.57149 1.01049 0.0
C2372 C 0.36788 0.53536 1.00728 0.0
C2373 C 0.33071 0.50751 1.00843 0.0
C2374 C 0.36589 0.61729 0.01813 0.0
C2375 C 0.39425 0.52604 1.00277 0.0
C2376 C 0.46553 0.65697 1.00196 0.0
C2377 C 0.49051 0.66559 1.00889 0.0
C2378 C 0.43015 0.62542 1.00219 0.0
C2379 C 0.41935 0.6016 1.0095 0.0
C2380 C 0.44513 0.60897 0.01628 0.0
C2381 C 0.48031 0.64089 0.01591 0.0
C2382 C 0.40359 0.6188 0.99483 0.0
C2383 C 0.43491 0.58415 0.02416 0.0
H2384 H 0.29847 0.55663 0.01925 0.0
H2385 H 0.32147 0.4798 1.00607 0.0
H2386 H 0.3877 0.62539 0.02315 0.0
H2387 H 0.37774 0.63779 0.01278 0.0
H2388 H 0.3424 0.61892 0.02105 0.0
H2389 H 0.38052 0.49673 1.00064 0.0
H2390 H 0.40652 0.54403 0.99698 0.0
H2391 H 0.41733 0.53137 1.00721 0.0
H2392 H 0.47298 0.67571 0.99648 0.0
H2393 H 0.49934 0.6471 0.02129 0.0
H2394 H 0.38112 0.62345 0.99718 0.0
H2395 H 0.39055 0.58978 0.99255 0.0
H2396 H 0.41735 0.63744 0.9892 0.0
H2397 H 0.41399 0.58672 0.02808 0.0
H2398 H 0.45917 0.59119 0.02837 0.0
H2399 H 0.42235 0.55484 0.02213 0.0
C2400 C 0.1854 0.50794 0.51069 0.0
C2401 C 0.21974 0.51527 0.51395 0.0
C2402 C 0.17697 0.53653 0.50981 0.0
C2403 C 0.20379 0.57328 0.51208 0.0
C2404 C 0.23889 0.58077 0.5151 0.0
C2405 C 0.24625 0.55168 0.51607 0.0
C2406 C 0.13918 0.52736 0.50662 0.0
C2407 C 0.26871 0.61953 0.51739 0.0
C2408 C 0.2014 0.65679 0.50304 0.0
C2409 C 0.19014 0.66917 0.51031 0.0
C2410 C 0.20446 0.62484 0.50341 0.0
C2411 C 0.19577 0.60428 0.51124 0.0
C2412 C 0.18276 0.61556 0.51849 0.0
C2413 C 0.18026 0.64793 0.51796 0.0
C2414 C 0.21883 0.61419 0.49555 0.0
C2415 C 0.17286 0.59424 0.52694 0.0
H2416 H 0.16478 0.47975 0.5091 0.0
H2417 H 0.27296 0.55748 0.51852 0.0
H2418 H 0.12509 0.53491 0.51167 0.0
H2419 H 0.14175 0.54378 0.50072 0.0
H2420 H 0.12154 0.49757 0.50505 0.0
H2421 H 0.29493 0.62085 0.51935 0.0
H2422 H 0.27443 0.63816 0.51173 0.0
H2423 H 0.25923 0.63029 0.52281 0.0
H2424 H 0.20914 0.67276 0.49707 0.0
H2425 H 0.17142 0.65702 0.52362 0.0
H2426 H 0.20035 0.58465 0.49393 0.0
H2427 H 0.24646 0.61787 0.49703 0.0
H2428 H 0.22134 0.63112 0.48974 0.0
H2429 H 0.15383 0.56442 0.5257 0.0
H2430 H 0.15963 0.60424 0.53165 0.0
H2431 H 0.1982 0.59694 0.52997 0.0
C2432 C 0.47897 0.68569 0.52273 0.0
C2433 C 0.50596 0.70421 0.51632 0.0
C2434 C 0.44851 0.65047 0.52122 0.0
C2435 C 0.44539 0.63255 0.51318 0.0
C2436 C 0.47304 0.65078 0.50672 0.0
C2437 C 0.50275 0.68673 0.50831 0.0
C2438 C 0.41921 0.63281 0.52819 0.0
C2439 C 0.47125 0.63227 0.49816 0.0
C2440 C 0.3783 0.52864 0.51413 0.0
C2441 C 0.34649 0.52599 0.51039 0.0
C2442 C 0.41146 0.56284 0.51458 0.0
C2443 C 0.41237 0.59534 0.51153 0.0
C2444 C 0.3803 0.5926 0.50767 0.0
C2445 C 0.34803 0.55793 0.50702 0.0
C2446 C 0.44524 0.56434 0.51853 0.0
C2447 C 0.37937 0.62652 0.50465 0.0
H2448 H 0.48115 0.69922 0.5289 0.0
H2449 H 0.52366 0.70094 0.50336 0.0
H2450 H 0.39197 0.62652 0.52554 0.0
H2451 H 0.41672 0.60629 0.5303 0.0
H2452 H 0.42534 0.6508 0.534 0.0
H2453 H 0.49592 0.64916 0.49403 0.0
H2454 H 0.46895 0.605 0.49935 0.0
H2455 H 0.44625 0.62718 0.49451 0.0
H2456 H 0.37724 0.50398 0.51671 0.0
H2457 H 0.32334 0.55612 0.50423 0.0
H2458 H 0.45138 0.57868 0.52491 0.0
H2459 H 0.46964 0.58035 0.51428 0.0
H2460 H 0.44147 0.53635 0.51956 0.0
H2461 H 0.38334 0.64463 0.51031 0.0
H2462 H 0.35284 0.61953 0.50144 0.0
H2463 H 0.40229 0.64266 0.50003 0.0
C2464 C 0.47502 0.83972 0.50481 0.0
C2465 C 0.48368 0.82223 0.51144 0.0
C2466 C 0.4412 0.83958 0.50486 0.0
C2467 C 0.41481 0.82011 0.51148 0.0
C2468 C 0.4233 0.8018 0.51808 0.0
C2469 C 0.45785 0.80372 0.51807 0.0
C2470 C 0.43387 0.86058 0.4979 0.0
C2471 C 0.39563 0.77962 0.52509 0.0
C2472 C 0.33815 0.83921 0.51815 0.0
C2473 C 0.30762 0.81134 0.51374 0.0
C2474 C 0.37366 0.84394 0.517 0.0
C2475 C 0.37843 0.81901 0.51164 0.0
C2476 C 0.34761 0.79117 0.50704 0.0
C2477 C 0.31268 0.78817 0.50801 0.0
C2478 C 0.40584 0.87488 0.52177 0.0
C2479 C 0.35099 0.76309 0.50153 0.0
H2480 H 0.49498 0.85403 0.49968 0.0
H2481 H 0.46423 0.78964 0.52312 0.0
H2482 H 0.40928 0.84137 0.49403 0.0
H2483 H 0.42769 0.88094 0.50096 0.0
H2484 H 0.4577 0.87543 0.4934 0.0
H2485 H 0.40565 0.76522 0.52943 0.0
H2486 H 0.38963 0.79799 0.52913 0.0
H2487 H 0.36921 0.75871 0.52208 0.0
H2488 H 0.33414 0.85714 0.52258 0.0
H2489 H 0.28889 0.76625 0.5047 0.0
H2490 H 0.42959 0.89006 0.51728 0.0
H2491 H 0.41502 0.86331 0.52707 0.0
H2492 H 0.39856 0.89476 0.52467 0.0
H2493 H 0.37366 0.77706 0.49672 0.0
H2494 H 0.32501 0.74455 0.49799 0.0
H2495 H 0.35802 0.74594 0.50575 0.0
C2496 C 0.21832 0.57376 0.34082 0.0
C2497 C 0.18193 0.54909 0.34341 0.0
C2498 C 0.24675 0.56563 0.3421 0.0
C2499 C 0.23863 0.53163 0.34597 0.0
C2500 C 0.20203 0.50694 0.34882 0.0
C2501 C 0.1741 0.51609 0.34756 0.0
C2502 C 0.2854 0.59321 0.33912 0.0
C2503 C 0.19222 0.47044 0.35297 0.0
C2504 C 0.30867 0.50176 0.34025 0.0
C2505 C 0.33251 0.51472 0.34745 0.0
C2506 C 0.27683 0.50522 0.33989 0.0
C2507 C 0.26863 0.52218 0.34688 0.0
C2508 C 0.29157 0.53359 0.35434 0.0
C2509 C 0.32308 0.52967 0.35454 0.0
C2510 C 0.25298 0.49241 0.33184 0.0
C2511 C 0.28407 0.55192 0.36192 0.0
H2512 H 0.22454 0.59946 0.33766 0.0
H2513 H 0.14596 0.49688 0.34954 0.0
H2514 H 0.30517 0.60037 0.34459 0.0
H2515 H 0.29417 0.58085 0.3339 0.0
H2516 H 0.28744 0.61907 0.33659 0.0
H2517 H 0.163 0.45507 0.35519 0.0
H2518 H 0.19676 0.45307 0.34823 0.0
H2519 H 0.21046 0.47487 0.35863 0.0
H2520 H 0.31553 0.4901 0.33474 0.0
H2521 H 0.3411 0.53969 0.36017 0.0
H2522 H 0.25593 0.51673 0.32822 0.0
H2523 H 0.22344 0.47515 0.33365 0.0
H2524 H 0.26063 0.47626 0.32741 0.0
H2525 H 0.28911 0.57955 0.3599 0.0
H2526 H 0.30195 0.55545 0.36762 0.0
H2527 H 0.25474 0.53555 0.36398 0.0
C2528 C 0.43843 0.64497 0.34053 0.0
C2529 C 0.46205 0.63274 0.34362 0.0
C2530 C 0.4467 0.68161 0.34171 0.0
C2531 C 0.47978 0.70703 0.34601 0.0
C2532 C 0.5037 0.69479 0.34921 0.0
C2533 C 0.4944 0.65764 0.34804 0.0
C2534 C 0.41999 0.69311 0.33833 0.0
C2535 C 0.53926 0.72101 0.35379 0.0
C2536 C 0.50983 0.80756 0.34103 0.0
C2537 C 0.49461 0.8168 0.34808 0.0
C2538 C 0.50711 0.77262 0.34051 0.0
C2539 C 0.48862 0.74617 0.34717 0.0
C2540 C 0.475 0.75607 0.35452 0.0
C2541 C 0.47823 0.79116 0.3549 0.0
C2542 C 0.52231 0.76333 0.33259 0.0
C2543 C 0.455 0.72883 0.36177 0.0
H2544 H 0.41324 0.62573 0.33716 0.0
H2545 H 0.51279 0.64831 0.35041 0.0
H2546 H 0.41084 0.70434 0.34372 0.0
H2547 H 0.43392 0.71539 0.33342 0.0
H2548 H 0.39516 0.66981 0.33528 0.0
H2549 H 0.55506 0.70735 0.3558 0.0
H2550 H 0.5569 0.74451 0.34943 0.0
H2551 H 0.53328 0.73265 0.35965 0.0
H2552 H 0.52263 0.82705 0.33574 0.0
H2553 H 0.46651 0.79789 0.36042 0.0
H2554 H 0.49911 0.74275 0.32855 0.0
H2555 H 0.53908 0.75071 0.33456 0.0
H2556 H 0.53964 0.78804 0.32851 0.0
H2557 H 0.42813 0.70633 0.35932 0.0
H2558 H 0.44963 0.74195 0.36745 0.0
H2559 H 0.47122 0.71595 0.36399 0.0
C2560 C 0.21553 0.68284 0.354 0.0
C2561 C 0.19121 0.67414 0.34692 0.0
C2562 C 0.25107 0.71422 0.3539 0.0
C2563 C 0.26282 0.73791 0.34656 0.0
C2564 C 0.23775 0.73047 0.33959 0.0
C2565 C 0.20235 0.69868 0.33984 0.0
C2566 C 0.27677 0.72082 0.36146 0.0
C2567 C 0.24897 0.75514 0.33168 0.0
C2568 C 0.35148 0.83214 0.34798 0.0
C2569 C 0.37697 0.82483 0.34379 0.0
C2570 C 0.31419 0.8042 0.34896 0.0
C2571 C 0.30235 0.76806 0.34579 0.0
C2572 C 0.32846 0.76044 0.34183 0.0
C2573 C 0.36523 0.78891 0.34082 0.0
C2574 C 0.28728 0.81354 0.35319 0.0
C2575 C 0.31747 0.72226 0.33853 0.0
H2576 H 0.20742 0.66433 0.35954 0.0
H2577 H 0.18394 0.69244 0.33434 0.0
H2578 H 0.29949 0.71618 0.35932 0.0
H2579 H 0.28955 0.74984 0.36372 0.0
H2580 H 0.26236 0.70219 0.36704 0.0
H2581 H 0.22526 0.74803 0.32727 0.0
H2582 H 0.26128 0.78447 0.33366 0.0
H2583 H 0.27038 0.75251 0.32798 0.0
H2584 H 0.36039 0.85992 0.35024 0.0
H2585 H 0.38491 0.78306 0.33763 0.0
H2586 H 0.27352 0.79492 0.3588 0.0
H2587 H 0.26535 0.80915 0.34847 0.0
H2588 H 0.30093 0.84259 0.3555 0.0
H2589 H 0.30473 0.70174 0.34385 0.0
H2590 H 0.34136 0.72057 0.3359 0.0
H2591 H 0.29648 0.71423 0.33331 0.0
C2592 C 0.25859 0.34553 0.18236 0.0
C2593 C 0.23675 0.31697 0.17654 0.0
C2594 C 0.29751 0.36526 0.18168 0.0
C2595 C 0.3153 0.35516 0.17526 0.0
C2596 C 0.29325 0.3258 0.16947 0.0
C2597 C 0.25435 0.30764 0.17007 0.0
C2598 C 0.31956 0.39726 0.18776 0.0
C2599 C 0.31075 0.31306 0.16273 0.0
C2600 C 0.41301 0.42139 0.16698 0.0
C2601 C 0.43466 0.41103 0.1719 0.0
C2602 C 0.37459 0.40476 0.16832 0.0
C2603 C 0.35682 0.37567 0.17445 0.0
C2604 C 0.37872 0.36531 0.17949 0.0
C2605 C 0.41745 0.38363 0.17828 0.0
C2606 C 0.35293 0.41796 0.16305 0.0
C2607 C 0.36107 0.33366 0.18587 0.0
H2608 H 0.24513 0.35286 0.18738 0.0
H2609 H 0.23767 0.28519 0.16564 0.0
H2610 H 0.33822 0.39171 0.1918 0.0
H2611 H 0.33721 0.42263 0.18393 0.0
H2612 H 0.30162 0.40263 0.19214 0.0
H2613 H 0.28995 0.28839 0.1591 0.0
H2614 H 0.32666 0.33555 0.15799 0.0
H2615 H 0.33049 0.3063 0.1659 0.0
H2616 H 0.4262 0.44255 0.16204 0.0
H2617 H 0.434 0.37514 0.182 0.0
H2618 H 0.33505 0.42358 0.16739 0.0
H2619 H 0.3346 0.39614 0.15841 0.0
H2620 H 0.37121 0.44342 0.1593 0.0
H2621 H 0.3442 0.33856 0.19069 0.0
H2622 H 0.38184 0.32947 0.18942 0.0
H2623 H 0.34214 0.30784 0.18234 0.0
C2624 C 0.62724 0.03507 0.17907 0.0
C2625 C 0.60015 0.02458 0.1726 0.0
C2626 C 0.64566 0.01489 0.18044 0.0
C2627 C 0.63571 0.98258 0.17546 0.0
C2628 C 0.60685 0.97089 0.16926 0.0
C2629 C 0.59013 0.99247 0.16777 0.0
C2630 C 0.6771 0.02929 0.18688 0.0
C2631 C 0.59412 0.93596 0.16405 0.0
C2632 C 0.70491 0.94974 0.17113 0.0
C2633 C 0.69586 0.92281 0.17759 0.0
C2634 C 0.68633 0.97001 0.17055 0.0
C2635 C 0.65678 0.96221 0.17633 0.0
C2636 C 0.64703 0.93441 0.18275 0.0
C2637 C 0.66722 0.91569 0.18343 0.0
C2638 C 0.69871 1.00019 0.1638 0.0
C2639 C 0.61486 0.92401 0.18882 0.0
H2640 H 0.63546 0.06021 0.18272 0.0
H2641 H 0.5692 0.98429 0.16275 0.0
H2642 H 0.6725 0.00757 0.19167 0.0
H2643 H 0.7032 0.03681 0.18339 0.0
H2644 H 0.68062 0.05396 0.19045 0.0
H2645 H 0.56856 0.92831 0.1603 0.0
H2646 H 0.61606 0.93967 0.15941 0.0
H2647 H 0.58885 0.91269 0.16843 0.0
H2648 H 0.72743 0.95578 0.16669 0.0
H2649 H 0.66013 0.89489 0.18844 0.0
H2650 H 0.70477 0.02651 0.16696 0.0
H2651 H 0.67629 0.99312 0.15901 0.0
H2652 H 0.72375 1.00465 0.16022 0.0
H2653 H 0.61981 0.94818 0.1928 0.0
H2654 H 0.61002 0.90104 0.19327 0.0
H2655 H 0.58937 0.91556 0.18497 0.0
C2656 C 0.089 0.75526 0.1841 0.0
C2657 C 0.09196 0.77733 0.1769 0.0
C2658 C 0.06968 0.71636 0.18355 0.0
C2659 C 0.05189 0.6988 0.17566 0.0
C2660 C 0.0549 0.72096 0.16836 0.0
C2661 C 0.07521 0.75981 0.16904 0.0
C2662 C 0.0681 0.69404 0.19143 0.0
C2663 C 0.03582 0.70362 0.15989 0.0
C2664 C 0.02418 0.59806 0.17115 0.0
C2665 C 0.98672 0.57912 0.17351 0.0
C2666 C 0.04588 0.63677 0.172 0.0
C2667 C 0.02958 0.65734 0.17509 0.0
C2668 C 0.99171 0.63825 0.1775 0.0
C2669 C 0.97093 0.59944 0.17679 0.0
C2670 C 0.08627 0.65567 0.16957 0.0
C2671 C 0.97288 0.65892 0.18065 0.0
H2672 H 0.10193 0.76844 0.1902 0.0
H2673 H 0.07693 0.77649 0.16346 0.0
H2674 H 0.03912 0.67714 0.19368 0.0
H2675 H 0.078 0.67467 0.1897 0.0
H2676 H 0.08507 0.71174 0.19691 0.0
H2677 H 0.04073 0.72457 0.15482 0.0
H2678 H 0.04561 0.68513 0.15738 0.0
H2679 H 1.0056 0.68639 0.16099 0.0
H2680 H 0.03662 0.58254 0.16864 0.0
H2681 H 0.94196 0.58506 0.17859 0.0
H2682 H 0.10343 0.67257 0.17511 0.0
H2683 H 0.09172 0.67472 0.16402 0.0
H2684 H 0.09525 0.63567 0.16772 0.0
H2685 H 0.9869 0.67507 0.18657 0.0
H2686 H 0.94323 0.64015 0.18219 0.0
H2687 H 0.97496 0.67886 0.1756 0.0
C2688 C 0.31834 0.24331 0.35302 0.0
C2689 C 0.31858 0.22671 0.34509 0.0
C2690 C 0.33679 0.2821 0.35394 0.0
C2691 C 0.3569 0.30512 0.34683 0.0
C2692 C 0.35816 0.28845 0.33889 0.0
C2693 C 0.33865 0.24963 0.33808 0.0
C2694 C 0.33389 0.29845 0.36247 0.0
C2695 C 0.37993 0.31166 0.3312 0.0
C2696 C 0.37502 0.40447 0.34594 0.0
C2697 C 0.41079 0.42474 0.34942 0.0
C2698 C 0.35717 0.36569 0.34513 0.0
C2699 C 0.37577 0.34655 0.34763 0.0
C2700 C 0.41229 0.36707 0.35093 0.0
C2701 C 0.42911 0.40575 0.35189 0.0
C2702 C 0.31804 0.34511 0.34174 0.0
C2703 C 0.43363 0.34815 0.35347 0.0
H2704 H 0.30264 0.22597 0.35845 0.0
H2705 H 0.33921 0.23717 0.33193 0.0
H2706 H 0.36183 0.31687 0.36517 0.0
H2707 H 0.32081 0.31559 0.36137 0.0
H2708 H 0.31739 0.27693 0.36739 0.0
H2709 H 0.38009 0.29459 0.32567 0.0
H2710 H 0.36798 0.32863 0.32891 0.0
H2711 H 0.4089 0.33098 0.33316 0.0
H2712 H 0.36054 0.41885 0.34405 0.0
H2713 H 0.45679 0.42121 0.35455 0.0
H2714 H 0.29971 0.32457 0.34664 0.0
H2715 H 0.31671 0.32966 0.33575 0.0
H2716 H 0.30712 0.36386 0.34023 0.0
H2717 H 0.41931 0.32848 0.35887 0.0
H2718 H 0.46228 0.36808 0.35556 0.0
H2719 H 0.43484 0.33191 0.34789 0.0
C2720 C 0.60935 0.97666 0.35802 0.0
C2721 C 0.58371 0.97381 0.35173 0.0
C2722 C 0.64769 0.99772 0.35652 0.0
C2723 C 0.66111 0.01771 0.34864 0.0
C2724 C 0.63527 0.0152 0.34227 0.0
C2725 C 0.59692 0.99284 0.34384 0.0
C2726 C 0.67386 0.99833 0.36339 0.0
C2727 C 0.64812 0.03672 0.33387 0.0
C2728 C 0.76136 0.09772 0.34935 0.0
C2729 C 0.78035 0.08268 0.345 0.0
C2730 C 0.72251 0.07748 0.35029 0.0
C2731 C 0.70212 0.04075 0.34708 0.0
C2732 C 0.72133 0.02541 0.34275 0.0
C2733 C 0.75993 0.04669 0.34164 0.0
C2734 C 0.70327 0.0954 0.35474 0.0
C2735 C 0.70125 0.98608 0.33948 0.0
H2736 H 0.59935 0.9619 0.36413 0.0
H2737 H 0.57729 0.99115 0.339 0.0
H2738 H 0.69258 0.9895 0.36051 0.0
H2739 H 0.6914 0.02684 0.36586 0.0
H2740 H 0.65907 0.97998 0.36898 0.0
H2741 H 0.62469 0.03234 0.32965 0.0
H2742 H 0.66524 0.06665 0.33532 0.0
H2743 H 0.66578 0.02856 0.3302 0.0
H2744 H 0.77684 0.12554 0.35192 0.0
H2745 H 0.77434 0.03464 0.33834 0.0
H2746 H 0.69051 0.08072 0.36091 0.0
H2747 H 0.68067 0.09333 0.35055 0.0
H2748 H 0.7225 0.12497 0.35625 0.0
H2749 H 0.68719 0.96693 0.345 0.0
H2750 H 0.72015 0.97814 0.3363 0.0
H2751 H 0.67958 0.98225 0.33475 0.0
C2752 C 0.91747 0.66644 0.33833 0.0
C2753 C 0.92281 0.69378 0.3444 0.0
C2754 C 0.9373 0.64731 0.33894 0.0
C2755 C 0.96439 0.65684 0.34553 0.0
C2756 C 0.97044 0.68514 0.35154 0.0
C2757 C 0.94912 0.70265 0.35101 0.0
C2758 C 0.92875 0.61641 0.33262 0.0
C2759 C 0.99979 0.69728 0.35849 0.0
C2760 C 0.99559 0.5906 0.35386 0.0
C2761 C 0.02858 0.60204 0.34927 0.0
C2762 C 0.97355 0.60682 0.35236 0.0
C2763 C 0.98557 0.63656 0.34639 0.0
C2764 C 0.01883 0.648 0.34167 0.0
C2765 C 0.03954 0.6301 0.34303 0.0
C2766 C 0.93771 0.59252 0.3573 0.0
C2767 C 0.03354 0.68038 0.33549 0.0
H2768 H 0.8972 0.65949 0.33321 0.0
H2769 H 0.95385 0.72421 0.35562 0.0
H2770 H 0.95382 0.62263 0.32883 0.0
H2771 H 0.92024 0.59041 0.33625 0.0
H2772 H 0.9064 0.61178 0.32799 0.0
H2773 H 1.00304 0.72151 0.36221 0.0
H2774 H 0.99266 0.67432 0.36312 0.0
H2775 H 0.02676 0.7045 0.35549 0.0
H2776 H 0.98697 0.56886 0.35868 0.0
H2777 H 0.06529 0.63935 0.33956 0.0
H2778 H 0.91492 0.58725 0.35275 0.0
H2779 H 0.94009 0.61358 0.36205 0.0
H2780 H 0.93015 0.56663 0.36089 0.0
H2781 H 0.01242 0.67599 0.33054 0.0
H2782 H 0.05903 0.68511 0.33209 0.0
H2783 H 0.03984 0.70574 0.33917 0.0
C2784 C 0.61198 0.63641 0.85695 0.0
C2785 C 0.58639 0.61079 0.85105 0.0
C2786 C 0.65029 0.65365 0.85543 0.0
C2787 C 0.66373 0.64407 0.84797 0.0
C2788 C 0.63792 0.61794 0.842 0.0
C2789 C 0.59956 0.60211 0.84353 0.0
C2790 C 0.6764 0.68229 0.86182 0.0
C2791 C 0.65082 0.60598 0.83411 0.0
C2792 C 0.76243 0.71143 0.84044 0.0
C2793 C 0.78304 0.69799 0.84471 0.0
C2794 C 0.72375 0.6941 0.84139 0.0
C2795 C 0.70473 0.66159 0.84649 0.0
C2796 C 0.72534 0.64719 0.85058 0.0
C2797 C 0.76423 0.66594 0.8498 0.0
C2798 C 0.70341 0.71143 0.83718 0.0
C2799 C 0.70632 0.61208 0.85586 0.0
H2800 H 0.60195 0.64334 0.86276 0.0
H2801 H 0.57992 0.58195 0.83902 0.0
H2802 H 0.69392 0.6726 0.86496 0.0
H2803 H 0.69515 0.70837 0.85835 0.0
H2804 H 0.66155 0.68833 0.86699 0.0
H2805 H 0.62741 0.58533 0.83012 0.0
H2806 H 0.66859 0.63019 0.82997 0.0
H2807 H 0.66785 0.59379 0.83622 0.0
H2808 H 0.77678 0.73648 0.8366 0.0
H2809 H 0.77993 0.65531 0.85309 0.0
H2810 H 0.68964 0.71915 0.84228 0.0
H2811 H 0.6815 0.69133 0.8328 0.0
H2812 H 0.7221 0.73652 0.83336 0.0
H2813 H 0.69384 0.61657 0.86178 0.0
H2814 H 0.72565 0.60252 0.85791 0.0
H2815 H 0.68355 0.58985 0.85203 0.0
C2816 C 0.30042 0.04932 0.84207 0.0
C2817 C 0.31617 0.08525 0.84547 0.0
C2818 C 0.31801 0.02818 0.84294 0.0
C2819 C 0.35294 0.04359 0.84708 0.0
C2820 C 0.36948 0.0803 0.85031 0.0
C2821 C 0.35066 0.10039 0.84961 0.0
C2822 C 0.29858 0.98887 0.83967 0.0
C2823 C 0.40702 0.09829 0.85458 0.0
C2824 C 0.38259 0.98003 0.85786 0.0
C2825 C 0.40523 0.97728 0.8515 0.0
C2826 C 0.36497 1.00079 0.85643 0.0
C2827 C 0.371 0.02056 0.84852 0.0
C2828 C 0.39408 0.01807 0.84207 0.0
C2829 C 0.41044 0.99601 0.84358 0.0
C2830 C 0.33973 1.00142 0.86339 0.0
C2831 C 0.40212 0.03935 0.83365 0.0
H2832 H 0.27359 0.03718 0.83895 0.0
H2833 H 0.36315 0.12817 0.85221 0.0
H2834 H 0.31631 0.98491 0.83492 0.0
H2835 H 0.29343 0.9697 0.84518 0.0
H2836 H 0.27175 0.98107 0.8365 0.0
H2837 H 0.41755 0.12792 0.85605 0.0
H2838 H 0.40555 0.0838 0.86075 0.0
H2839 H 0.42717 0.09602 0.85028 0.0
H2840 H 0.37827 0.96548 0.86398 0.0
H2841 H 0.42818 0.9943 0.83868 0.0
H2842 H 0.31205 0.9926 0.8606 0.0
H2843 H 0.35086 0.02994 0.86587 0.0
H2844 H 0.33643 0.98308 0.86896 0.0
H2845 H 0.37603 0.03109 0.8301 0.0
H2846 H 0.42087 0.03485 0.82934 0.0
H2847 H 0.41504 0.06931 0.83507 0.0
C2848 C 0.96368 0.25502 0.84083 0.0
C2849 C 0.92858 0.23453 0.84466 0.0
C2850 C 0.98496 0.29368 0.84181 0.0
C2851 C 0.97047 0.31283 0.8465 0.0
C2852 C 0.93452 0.29237 0.85016 0.0
C2853 C 0.91434 0.2535 0.84934 0.0
C2854 C 0.02353 0.31386 0.83806 0.0
C2855 C 0.91744 0.31153 0.85501 0.0
C2856 C 0.03646 0.40545 0.85722 0.0
C2857 C 0.03795 0.43114 0.85111 0.0
C2858 C 0.01528 0.36715 0.85572 0.0
C2859 C 0.99378 0.35381 0.84803 0.0
C2860 C 0.99492 0.37971 0.84186 0.0
C2861 C 0.01742 0.41803 0.84341 0.0
C2862 C 0.01614 0.34094 0.86236 0.0
C2863 C 0.97176 0.36693 0.8337 0.0
H2864 H 0.97516 0.2406 0.8373 0.0
H2865 H 0.88721 0.23796 0.85229 0.0
H2866 H 0.02649 0.3359 0.83356 0.0
H2867 H 0.04387 0.32743 0.84339 0.0
H2868 H 0.03062 0.29512 0.83449 0.0
H2869 H 0.88813 0.29229 0.85677 0.0
H2870 H 0.93318 0.32407 0.86107 0.0
H2871 H 0.91884 0.33426 0.85099 0.0
H2872 H 0.05237 0.41539 0.86318 0.0
H2873 H 0.01803 0.43771 0.83873 0.0
H2874 H 0.02434 0.32226 0.85918 0.0
H2875 H 0.98818 0.32338 0.86515 0.0
H2876 H 0.03568 0.35568 0.86777 0.0
H2877 H 0.97902 0.34916 0.82979 0.0
H2878 H 0.97544 0.39039 0.82958 0.0
H2879 H 0.94212 0.34996 0.83547 0.0
C2880 C 0.58552 0.60367 0.67203 0.0
C2881 C 0.60446 0.58511 0.67434 0.0
C2882 C 0.60211 0.6423 0.67292 0.0
C2883 C 0.63897 0.66314 0.67599 0.0
C2884 C 0.65814 0.64443 0.67836 0.0
C2885 C 0.64052 0.60567 0.67762 0.0
C2886 C 0.58025 0.66084 0.67053 0.0
C2887 C 0.69764 0.66544 0.6815 0.0
C2888 C 0.69514 0.7655 0.66992 0.0
C2889 C 0.69591 0.78292 0.6778 0.0
C2890 C 0.67673 0.72669 0.66924 0.0
C2891 C 0.65775 0.70451 0.67655 0.0
C2892 C 0.65745 0.72198 0.68445 0.0
C2893 C 0.67689 0.76084 0.68501 0.0
C2894 C 0.67851 0.70941 0.66075 0.0
C2895 C 0.63684 0.69958 0.69234 0.0
H2896 H 0.55759 0.58792 0.66953 0.0
H2897 H 0.65541 0.59155 0.67937 0.0
H2898 H 0.57994 0.67772 0.67608 0.0
H2899 H 0.59358 0.67985 0.66496 0.0
H2900 H 0.55128 0.64062 0.66873 0.0
H2901 H 0.70878 0.6469 0.68304 0.0
H2902 H 0.71536 0.6854 0.67643 0.0
H2903 H 0.69965 0.6816 0.68741 0.0
H2904 H 0.71006 0.78223 0.66434 0.0
H2905 H 0.67718 0.77399 0.69111 0.0
H2906 H 0.65022 0.69065 0.65828 0.0
H2907 H 0.69181 0.69245 0.66182 0.0
H2908 H 0.69427 0.73038 0.65567 0.0
H2909 H 0.60763 0.67996 0.69062 0.0
H2910 H 0.63737 0.71722 0.69781 0.0
H2911 H 0.64922 0.68296 0.6946 0.0
C2912 C 0.41424 0.98603 0.67115 0.0
C2913 C 0.43276 0.02348 0.67349 0.0
C2914 C 0.37549 0.964 0.67193 0.0
C2915 C 0.35442 0.98001 0.67486 0.0
C2916 C 0.37309 0.01792 0.67722 0.0
C2917 C 0.41196 0.03896 0.67664 0.0
C2918 C 0.3571 0.92354 0.66963 0.0
C2919 C 0.35193 0.03654 0.68016 0.0
C2920 C 0.25168 0.9329 0.66881 0.0
C2921 C 0.23439 0.91731 0.67677 0.0
C2922 C 0.29058 0.95331 0.66809 0.0
C2923 C 0.31293 0.9573 0.67543 0.0
C2924 C 0.29549 0.94037 0.6834 0.0
C2925 C 0.2566 0.92122 0.68401 0.0
C2926 C 0.30776 0.97165 0.65953 0.0
C2927 C 0.31792 0.94274 0.69133 0.0
H2928 H 0.43015 0.97386 0.66873 0.0
H2929 H 0.426 0.06796 0.6784 0.0
H2930 H 0.34008 0.90655 0.67518 0.0
H2931 H 0.33822 0.91758 0.66402 0.0
H2932 H 0.37744 0.9148 0.66792 0.0
H2933 H 0.37036 0.06638 0.68153 0.0
H2934 H 0.33182 0.03361 0.67506 0.0
H2935 H 0.33591 0.02299 0.68613 0.0
H2936 H 0.23479 0.93042 0.66321 0.0
H2937 H 0.24349 0.90914 0.69018 0.0
H2938 H 0.32658 0.96202 0.65716 0.0
H2939 H 0.32464 1.00198 0.66047 0.0
H2940 H 0.2867 0.96593 0.65443 0.0
H2941 H 0.3378 0.93336 0.68968 0.0
H2942 H 0.30031 0.92576 0.69682 0.0
H2943 H 0.33427 0.97183 0.69352 0.0
C2944 C 0.02706 0.42844 0.6721 0.0
C2945 C 0.98918 0.40864 0.67402 0.0
C2946 C 0.04929 0.412 0.67289 0.0
C2947 C 0.03308 0.37442 0.6754 0.0
C2948 C 0.99473 0.35428 0.67732 0.0
C2949 C 0.9734 0.37177 0.67674 0.0
C2950 C 0.09016 0.4349 0.67104 0.0
C2951 C 0.97603 0.31399 0.67982 0.0
C2952 C 0.08291 0.32153 0.6694 0.0
C2953 C 0.09716 0.31886 0.67746 0.0
C2954 C 0.06204 0.33947 0.66863 0.0
C2955 C 0.05615 0.35616 0.67604 0.0
C2956 C 0.07169 0.35466 0.68413 0.0
C2957 C 0.09143 0.33557 0.68477 0.0
C2958 C 0.04526 0.33952 0.65993 0.0
C2959 C 0.06719 0.37295 0.69215 0.0
H2960 H 0.03942 0.45698 0.67003 0.0
H2961 H 0.94408 0.35622 0.67817 0.0
H2962 H 0.10613 0.43429 0.67675 0.0
H2963 H 0.09757 0.42308 0.66545 0.0
H2964 H 0.09881 0.46411 0.66954 0.0
H2965 H 0.94584 0.30193 0.68087 0.0
H2966 H 0.98039 0.29803 0.67464 0.0
H2967 H 0.98843 0.31058 0.68589 0.0
H2968 H 0.08683 0.30832 0.66374 0.0
H2969 H 0.10248 0.33375 0.69102 0.0
H2970 H 0.05481 0.36827 0.65781 0.0
H2971 H 0.01473 0.32538 0.66053 0.0
H2972 H 0.05245 0.32547 0.65478 0.0
H2973 H 0.07649 0.40239 0.69078 0.0
H2974 H 0.08308 0.37151 0.69779 0.0
H2975 H 0.0376 0.35943 0.694 0.0
C2976 C 0.92003 0.63161 0.51061 0.0
C2977 C 0.90004 0.65022 0.50987 0.0
C2978 C 0.95872 0.65035 0.50965 0.0
C2979 C 0.9783 0.6891 0.5083 0.0
C2980 C 0.95817 0.70815 0.50771 0.0
C2981 C 0.91921 0.68836 0.50832 0.0
C2982 C 0.97856 0.6285 0.50997 0.0
C2983 C 0.97784 0.74953 0.50658 0.0
C2984 C 0.08191 0.7383 0.51353 0.0
C2985 C 0.09769 0.74513 0.50519 0.0
C2986 C 0.04326 0.72136 0.51464 0.0
C2987 C 0.01964 0.70933 0.50725 0.0
C2988 C 0.03558 0.71561 0.49883 0.0
C2989 C 0.07429 0.73407 0.49791 0.0
C2990 C 0.02772 0.71651 0.52373 0.0
C2991 C 0.01174 0.70195 0.49078 0.0
H2992 H 0.9052 0.60206 0.51178 0.0
H2993 H 0.90382 0.70284 0.50785 0.0
H2994 H 0.9949 0.63323 0.50392 0.0
H2995 H 0.99823 0.63795 0.5155 0.0
H2996 H 0.95919 0.59837 0.51069 0.0
H2997 H 0.9585 0.76049 0.50674 0.0
H2998 H 0.9987 0.76304 0.51181 0.0
H2999 H 0.99285 0.75737 0.50028 0.0
H3000 H 0.09982 0.74679 0.51917 0.0
H3001 H 0.08626 0.73887 0.49144 0.0
H3002 H 0.01103 0.68671 0.52532 0.0
H3003 H 0.00906 0.72821 0.52413 0.0
H3004 H 0.04976 0.73009 0.52872 0.0
H3005 H 0.99289 0.67165 0.49122 0.0
H3006 H 0.02835 0.70807 0.48472 0.0
H3007 H 0.99424 0.7149 0.49028 0.0
C3008 C 0.34447 0.25605 0.51963 0.0
C3009 C 0.36072 0.25083 0.51215 0.0
C3010 C 0.32492 0.27549 0.51924 0.0
C3011 C 0.3225 0.29124 0.51125 0.0
C3012 C 0.33895 0.28607 0.5037 0.0
C3013 C 0.35729 0.26557 0.50422 0.0
C3014 C 0.30693 0.27929 0.5274 0.0
C3015 C 0.33806 0.30309 0.49509 0.0
C3016 C 0.24952 0.3193 0.50705 0.0
C3017 C 0.26917 0.35735 0.50875 0.0
C3018 C 0.26602 0.29724 0.50816 0.0
C3019 C 0.30354 0.31375 0.51078 0.0
C3020 C 0.3234 0.35222 0.51255 0.0
C3021 C 0.30583 0.37338 0.51165 0.0
C3022 C 0.24338 0.25627 0.50646 0.0
C3023 C 0.36364 0.37131 0.51511 0.0
H3024 H 0.34689 0.24474 0.52578 0.0
H3025 H 0.37013 0.26219 0.49842 0.0
H3026 H 0.32 0.30878 0.52929 0.0
H3027 H 0.27725 0.2694 0.52618 0.0
H3028 H 0.30922 0.2635 0.53295 0.0
H3029 H 0.35256 0.29697 0.48985 0.0
H3030 H 0.30907 0.2927 0.49304 0.0
H3031 H 0.35126 0.33351 0.4958 0.0
H3032 H 0.22111 0.30671 0.50486 0.0
H3033 H 0.32126 0.40281 0.51293 0.0
H3034 H 0.24506 0.24064 0.51211 0.0
H3035 H 0.25463 0.24895 0.50073 0.0
H3036 H 0.21386 0.24716 0.50519 0.0
H3037 H 0.36724 0.3585 0.52108 0.0
H3038 H 0.37514 0.40129 0.51633 0.0
H3039 H 0.37999 0.36792 0.50987 0.0
C3040 C 0.6379 0.93485 0.51173 0.0
C3041 C 0.65352 0.91446 0.50841 0.0
C3042 C 0.65881 0.97368 0.51242 0.0
C3043 C 0.69666 0.99262 0.50998 0.0
C3044 C 0.71286 0.97189 0.50695 0.0
C3045 C 0.69099 0.93323 0.50607 0.0
C3046 C 0.64003 0.99453 0.51547 0.0
C3047 C 0.75327 0.99059 0.50455 0.0
C3048 C 0.74297 0.09452 0.50339 0.0
C3049 C 0.7598 0.11266 0.51118 0.0
C3050 C 0.72218 0.05564 0.50293 0.0
C3051 C 0.71897 0.03411 0.51038 0.0
C3052 C 0.73681 0.05233 0.5182 0.0
C3053 C 0.75641 0.09127 0.51855 0.0
C3054 C 0.70288 0.03762 0.49452 0.0
C3055 C 0.73519 0.03068 0.52622 0.0
H3056 H 0.60887 0.92057 0.51349 0.0
H3057 H 0.70325 0.91761 0.50352 0.0
H3058 H 0.65431 0.01131 0.52129 0.0
H3059 H 0.64177 0.01392 0.5103 0.0
H3060 H 0.61048 0.97583 0.51712 0.0
H3061 H 0.76233 0.97042 0.50293 0.0
H3062 H 0.75867 0.00886 0.49884 0.0
H3063 H 0.77041 0.00825 0.51 0.0
H3064 H 0.74499 0.11079 0.4977 0.0
H3065 H 0.76941 0.10504 0.52459 0.0
H3066 H 0.67273 0.02022 0.49569 0.0
H3067 H 0.71286 0.01918 0.49208 0.0
H3068 H 0.70744 0.05816 0.48938 0.0
H3069 H 0.70621 0.01397 0.52849 0.0
H3070 H 0.75216 0.04885 0.53164 0.0
H3071 H 0.7451 0.01117 0.52464 0.0
C3072 C 0.04227 0.74033 0.67944 0.0
C3073 C 0.0794 0.76124 0.68198 0.0
C3074 C 0.02435 0.70146 0.67896 0.0
C3075 C 0.04428 0.68296 0.68081 0.0
C3076 C 0.08211 0.70414 0.68314 0.0
C3077 C 0.099 0.74288 0.68382 0.0
C3078 C 0.98383 0.68011 0.67666 0.0
C3079 C 0.10481 0.68589 0.68489 0.0
C3080 C 0.99113 0.58056 0.68716 0.0
C3081 C 0.98766 0.56311 0.67912 0.0
C3082 C 0.00937 0.61943 0.6878 0.0
C3083 C 0.02556 0.64154 0.68029 0.0
C3084 C 0.02323 0.62396 0.67223 0.0
C3085 C 1.00385 0.58511 0.67172 0.0
C3086 C 0.01031 0.63682 0.69648 0.0
C3087 C 0.04096 0.64621 0.66411 0.0
H3088 H 0.02686 0.7543 0.67808 0.0
H3089 H 0.12774 0.7589 0.68576 0.0
H3090 H 0.97972 0.66384 0.67064 0.0
H3091 H 0.96815 0.66023 0.68194 0.0
H3092 H 0.972 0.69844 0.67564 0.0
H3093 H 0.13425 0.7063 0.68623 0.0
H3094 H 0.09335 0.66709 0.69057 0.0
H3095 H 0.10345 0.66883 0.67921 0.0
H3096 H 0.97832 0.5638 0.69288 0.0
H3097 H 1.00142 0.57185 0.66549 0.0
H3098 H 0.99642 0.65347 0.69592 0.0
H3099 H 0.03929 0.65589 0.69846 0.0
H3100 H 0.99647 0.61592 0.7017 0.0
H3101 H 0.02754 0.66242 0.66231 0.0
H3102 H 0.03883 0.62849 0.65849 0.0
H3103 H 0.07059 0.66618 0.66533 0.0
C3104 C 0.27153 0.35917 0.68471 0.0
C3105 C 0.25335 0.32131 0.68279 0.0
C3106 C 0.31019 0.3813 0.68388 0.0
C3107 C 0.33145 0.36501 0.68131 0.0
C3108 C 0.31313 0.3267 0.67938 0.0
C3109 C 0.27433 0.30548 0.68001 0.0
C3110 C 0.32829 0.42215 0.68573 0.0
C3111 C 0.3346 0.30791 0.67682 0.0
C3112 C 0.4287 0.42302 0.67191 0.0
C3113 C 0.45111 0.42851 0.67921 0.0
C3114 C 0.38987 0.4035 0.67256 0.0
C3115 C 0.37279 0.38792 0.68065 0.0
C3116 C 0.39533 0.39354 0.68806 0.0
C3117 C 0.43415 0.4142 0.68727 0.0
C3118 C 0.3671 0.39927 0.66456 0.0
C3119 C 0.37847 0.37671 0.69675 0.0
H3120 H 0.25543 0.37157 0.68682 0.0
H3121 H 0.26049 0.27618 0.67857 0.0
H3122 H 0.3475 0.42941 0.69132 0.0
H3123 H 0.34492 0.43813 0.68003 0.0
H3124 H 0.3078 0.43089 0.68726 0.0
H3125 H 0.31639 0.27778 0.67576 0.0
H3126 H 0.35041 0.32038 0.67076 0.0
H3127 H 0.35491 0.31208 0.68199 0.0
H3128 H 0.44159 0.43413 0.66566 0.0
H3129 H 0.45125 0.41795 0.69292 0.0
H3130 H 0.34709 0.40871 0.66597 0.0
H3131 H 0.35089 0.36973 0.66269 0.0
H3132 H 0.38447 0.41518 0.65893 0.0
H3133 H 0.35941 0.38641 0.6989 0.0
H3134 H 0.39969 0.38366 0.70188 0.0
H3135 H 0.3619 0.3462 0.69613 0.0
C3136 C 0.70059 0.96916 0.69168 0.0
C3137 C 0.70392 0.9471 0.68526 0.0
C3138 C 0.67902 0.98596 0.69032 0.0
C3139 C 0.65913 0.97971 0.68243 0.0
C3140 C 0.66211 0.95709 0.67594 0.0
C3141 C 0.68487 0.9415 0.67739 0.0
C3142 C 0.67783 0.01074 0.69732 0.0
C3143 C 0.64076 0.94887 0.66753 0.0
C3144 C 0.57859 0.99908 0.68326 0.0
C3145 C 0.59367 0.03344 0.67907 0.0
C3146 C 0.59903 0.98065 0.68411 0.0
C3147 C 0.63592 0.9975 0.68098 0.0
C3148 C 0.65129 0.03238 0.67682 0.0
C3149 C 0.62988 0.04956 0.67581 0.0
C3150 C 0.58114 0.94314 0.68839 0.0
C3151 C 0.69078 0.0521 0.67364 0.0
H3152 H 0.71534 0.97372 0.69777 0.0
H3153 H 0.68694 0.9241 0.67245 0.0
H3154 H 0.68669 0.03852 0.69458 0.0
H3155 H 0.64914 0.99939 0.69972 0.0
H3156 H 0.6959 0.01386 0.70294 0.0
H3157 H 0.64542 0.93023 0.66322 0.0
H3158 H 0.61077 0.93579 0.66896 0.0
H3159 H 0.64886 0.9749 0.66397 0.0
H3160 H 0.5506 0.98633 0.68575 0.0
H3161 H 0.64196 0.07631 0.67265 0.0
H3162 H 0.59572 0.94463 0.69454 0.0
H3163 H 0.58343 0.92305 0.68409 0.0
H3164 H 0.5515 0.93255 0.68989 0.0
H3165 H 0.70975 0.05702 0.67918 0.0
H3166 H 0.69865 0.07905 0.67054 0.0
H3167 H 0.69501 0.03467 0.66885 0.0
C3168 C 0.26162 0.93404 0.17601 0.0
C3169 C 0.24895 0.94201 0.18371 0.0
C3170 C 0.29983 0.94959 0.17437 0.0
C3171 C 0.32599 0.97463 0.18045 0.0
C3172 C 0.31309 0.98338 0.18812 0.0
C3173 C 0.27489 0.9665 0.18972 0.0
C3174 C 0.3122 0.9386 0.16623 0.0
C3175 C 0.33967 0.01082 0.19465 0.0
C3176 C 0.42617 0.99542 0.18166 0.0
C3177 C 0.44497 0.02837 0.1769 0.0
C3178 C 0.38733 0.97673 0.18252 0.0
C3179 C 0.36682 0.99205 0.17882 0.0
C3180 C 0.38579 0.02536 0.17401 0.0
C3181 C 0.42441 0.0427 0.17299 0.0
C3182 C 0.36828 0.94078 0.18749 0.0
C3183 C 0.3655 0.04354 0.17021 0.0
H3184 H 0.24169 0.91471 0.17141 0.0
H3185 H 0.26522 0.97285 0.19568 0.0
H3186 H 0.32995 0.96335 0.16224 0.0
H3187 H 0.3291 0.92589 0.16803 0.0
H3188 H 0.28853 0.91867 0.16219 0.0
H3189 H 0.32521 0.01607 0.20006 0.0
H3190 H 0.35723 1.00048 0.19746 0.0
H3191 H 0.35833 0.03744 0.19137 0.0
H3192 H 0.44183 0.98411 0.18467 0.0
H3193 H 0.43875 0.06843 0.16939 0.0
H3194 H 0.34524 0.9193 0.18357 0.0
H3195 H 0.35618 0.94443 0.19358 0.0
H3196 H 0.38751 0.93067 0.18922 0.0
H3197 H 0.34325 0.02418 0.16579 0.0
H3198 H 0.38413 0.06909 0.16653 0.0
H3199 H 0.35217 0.05071 0.17553 0.0
C3200 C 0.00984 0.42496 0.17282 0.0
C3201 C 0.98439 0.4218 0.17921 0.0
C3202 C 0.02916 0.40539 0.17352 0.0
C3203 C 0.02159 0.38061 0.18056 0.0
C3204 C 0.99543 0.377 0.18696 0.0
C3205 C 0.97776 0.39818 0.1863 0.0
C3206 C 0.05785 0.41146 0.16674 0.0
C3207 C 0.98539 0.35006 0.19441 0.0
C3208 C 0.04588 0.30378 0.17803 0.0
C3209 C 0.0763 0.31598 0.18361 0.0
C3210 C 0.02774 0.32441 0.17697 0.0
C3211 C 0.0413 0.35884 0.18131 0.0
C3212 C 0.0732 0.37195 0.18661 0.0
C3213 C 0.08965 0.34998 0.18787 0.0
C3214 C 0.99309 0.30858 0.17152 0.0
C3215 C 0.08975 0.40905 0.19107 0.0
H3216 H 0.01495 0.44312 0.16731 0.0
H3217 H 0.9576 0.39513 0.19116 0.0
H3218 H 0.08464 0.41954 0.16995 0.0
H3219 H 0.04945 0.38544 0.16315 0.0
H3220 H 0.06206 0.43322 0.16197 0.0
H3221 H 0.96316 0.34905 0.19857 0.0
H3222 H 0.97607 0.32194 0.19183 0.0
H3223 H 0.00999 0.35783 0.19852 0.0
H3224 H 0.03512 0.27722 0.17484 0.0
H3225 H 0.11316 0.35946 0.1922 0.0
H3226 H 0.99634 0.328 0.16623 0.0
H3227 H 0.96955 0.30478 0.17563 0.0
H3228 H 0.98608 0.28156 0.16858 0.0
H3229 H 0.09398 0.43076 0.18629 0.0
H3230 H 0.11663 0.41692 0.19421 0.0
H3231 H 0.07051 0.40845 0.19613 0.0
C3232 C 0.58071 0.58672 0.18316 0.0
C3233 C 0.59504 0.56772 0.17854 0.0
C3234 C 0.60076 0.62563 0.18389 0.0
C3235 C 0.63665 0.64607 0.1802 0.0
C3236 C 0.65128 0.62685 0.17559 0.0
C3237 C 0.63014 0.58817 0.1747 0.0
C3238 C 0.58357 0.64489 0.18866 0.0
C3239 C 0.68981 0.64701 0.17182 0.0
C3240 C 0.68319 0.75105 0.17676 0.0
C3241 C 0.7037 0.7646 0.18445 0.0
C3242 C 0.66079 0.71262 0.17532 0.0
C3243 C 0.65979 0.68713 0.1816 0.0
C3244 C 0.68139 0.70093 0.18925 0.0
C3245 C 0.70243 0.7393 0.19064 0.0
C3246 C 0.63752 0.69931 0.16719 0.0
C3247 C 0.68246 0.67515 0.19599 0.0
H3248 H 0.55356 0.57121 0.1861 0.0
H3249 H 0.64165 0.57371 0.1712 0.0
H3250 H 0.59947 0.65798 0.19467 0.0
H3251 H 0.58463 0.66721 0.18454 0.0
H3252 H 0.55437 0.62559 0.19049 0.0
H3253 H 0.69709 0.62816 0.16836 0.0
H3254 H 0.69251 0.6686 0.16719 0.0
H3255 H 0.71018 0.66116 0.17711 0.0
H3256 H 0.68371 0.77045 0.172 0.0
H3257 H 0.71835 0.74959 0.19659 0.0
H3258 H 0.60793 0.68228 0.16899 0.0
H3259 H 0.64489 0.68144 0.16335 0.0
H3260 H 0.64101 0.72249 0.16299 0.0
H3261 H 0.65456 0.65769 0.19882 0.0
H3262 H 0.70207 0.69025 0.20136 0.0
H3263 H 0.69068 0.65635 0.19289 0.0
C3264 C 0.30747 0.93843 1.01085 0.0
C3265 C 0.27145 0.91798 1.00754 0.0
C3266 C 0.32506 0.97715 0.01169 0.0
C3267 C 0.30588 0.99593 1.00939 0.0
C3268 C 0.26904 0.97519 1.0063 0.0
C3269 C 0.25249 0.9366 1.00531 0.0
C3270 C 0.36455 0.99806 0.01483 0.0
C3271 C 0.24717 0.9938 1.00399 0.0
C3272 C 0.34388 0.09349 0.01852 0.0
C3273 C 0.36281 0.11569 1.01132 0.0
C3274 C 0.32445 0.05463 0.01792 0.0
C3275 C 0.32469 0.0373 1.01 0.0
C3276 C 0.34362 0.05959 1.00271 0.0
C3277 C 0.362 0.09838 1.00342 0.0
C3278 C 0.30389 0.03209 0.0258 0.0
C3279 C 0.34535 0.04246 0.99419 0.0
H3280 H 0.32238 0.92427 0.01254 0.0
H3281 H 0.22458 0.92094 1.0028 0.0
H3282 H 0.38229 0.01812 1.00978 0.0
H3283 H 0.36656 0.0141 0.02076 0.0
H3284 H 0.37566 0.97947 0.01634 0.0
H3285 H 0.21817 0.97362 1.00219 0.0
H3286 H 0.24693 0.01057 1.00956 0.0
H3287 H 0.26044 0.01292 0.99843 0.0
H3288 H 0.34419 0.10654 0.02465 0.0
H3289 H 0.37685 0.11519 0.99785 0.0
H3290 H 0.31625 0.01538 0.02801 0.0
H3291 H 0.27466 0.01254 0.02409 0.0
H3292 H 0.30451 0.04963 0.03131 0.0
H3293 H 0.35857 0.02542 0.99522 0.0
H3294 H 0.36116 0.06353 0.98912 0.0
H3295 H 0.31705 0.02383 0.99171 0.0
C3296 C 0.07935 0.3203 1.00409 0.0
C3297 C 0.09802 0.3575 1.00665 0.0
C3298 C 0.0406 0.29834 1.00486 0.0
C3299 C 0.01971 0.31412 1.00806 0.0
C3300 C 0.03852 0.35174 1.01065 0.0
C3301 C 0.07735 0.37277 1.01002 0.0
C3302 C 0.02199 0.25821 1.00224 0.0
C3303 C 0.01754 0.37004 0.01394 0.0
C3304 C 0.91686 0.26852 1.0023 0.0
C3305 C 0.89976 0.25151 1.01018 0.0
C3306 C 0.95572 0.28878 1.0015 0.0
C3307 C 0.97826 0.29145 1.0087 0.0
C3308 C 0.96107 0.27326 0.01658 0.0
C3309 C 0.92221 0.25401 0.01726 0.0
C3310 C 0.97266 0.30829 0.99304 0.0
C3311 C 0.98378 0.27446 0.02434 0.0
H3312 H 0.09513 0.30826 1.00152 0.0
H3313 H 0.0915 0.40155 0.01197 0.0
H3314 H 1.00538 0.2405 1.00775 0.0
H3315 H 1.00269 0.25301 0.99676 0.0
H3316 H 0.04216 0.24968 1.00021 0.0
H3317 H 0.03608 0.39967 0.01553 0.0
H3318 H 0.99733 0.36789 1.00896 0.0
H3319 H 1.00164 0.35568 0.01987 0.0
H3320 H 0.89987 0.26712 0.99682 0.0
H3321 H 0.90935 0.24085 0.02337 0.0
H3322 H 0.99145 0.29903 0.99043 0.0
H3323 H 0.98953 0.33848 0.99419 0.0
H3324 H 0.95147 0.30323 0.98803 0.0
H3325 H 1.00336 0.26503 0.02244 0.0
H3326 H 0.96634 0.25693 0.0298 0.0
H3327 H 1.00047 0.30327 0.02671 0.0
C3328 C 0.75965 0.6703 0.01758 0.0
C3329 C 0.76468 0.65306 1.01028 0.0
C3330 C 0.74043 0.6899 0.01697 0.0
C3331 C 0.72473 0.69146 1.00891 0.0
C3332 C 0.72998 0.67432 1.00149 0.0
C3333 C 0.75032 0.65581 1.00224 0.0
C3334 C 0.73658 0.70861 0.02499 0.0
C3335 C 0.71305 0.67448 0.99282 0.0
C3336 C 0.64273 0.70818 1.00983 0.0
C3337 C 0.65875 0.74507 1.00711 0.0
C3338 C 0.66374 0.69034 1.01034 0.0
C3339 C 0.70201 0.7101 1.00832 0.0
C3340 C 0.71847 0.7477 1.0058 0.0
C3341 C 0.69656 0.76452 1.00511 0.0
C3342 C 0.64477 0.65006 0.01287 0.0
C3343 C 0.75929 0.7702 1.00386 0.0
H3344 H 0.77081 0.66845 0.02381 0.0
H3345 H 0.75372 0.64222 0.99659 0.0
H3346 H 0.74614 0.73808 0.02358 0.0
H3347 H 0.70709 0.69544 0.02692 0.0
H3348 H 0.7526 0.70712 0.03059 0.0
H3349 H 0.71992 0.66025 0.98766 0.0
H3350 H 0.68254 0.66056 0.99348 0.0
H3351 H 0.72275 0.70326 0.99071 0.0
H3352 H 0.61346 0.69288 1.01132 0.0
H3353 H 0.7091 0.79307 1.00303 0.0
H3354 H 0.65731 0.64657 0.0189 0.0
H3355 H 0.6487 0.63389 1.00767 0.0
H3356 H 0.61467 0.6383 0.01398 0.0
H3357 H 0.77541 0.76952 1.00952 0.0
H3358 H 0.76817 0.79945 1.00233 0.0
H3359 H 0.76625 0.7581 0.99825 0.0
C3360 C 0.74764 0.0883 0.83465 0.0
C3361 C 0.76934 0.07723 0.8393 0.0
C3362 C 0.70939 0.07206 0.83618 0.0
C3363 C 0.69178 0.04261 0.84223 0.0
C3364 C 0.71376 0.03164 0.84704 0.0
C3365 C 0.75237 0.04958 0.84564 0.0
C3366 C 0.68767 0.0859 0.83116 0.0
C3367 C 0.69626 0.99959 0.85331 0.0
C3368 C 0.5936 0.01204 0.85031 0.0
C3369 C 0.57171 0.98416 0.84435 0.0
C3370 C 0.63255 0.03165 0.84965 0.0
C3371 C 0.65027 0.02208 0.84309 0.0
C3372 C 0.62814 0.99332 0.83717 0.0
C3373 C 0.58928 0.97531 0.83776 0.0
C3374 C 0.65472 0.06302 0.85587 0.0
C3375 C 0.64554 0.98113 0.83027 0.0
H3376 H 0.76065 0.10965 0.82974 0.0
H3377 H 0.76895 0.04053 0.84915 0.0
H3378 H 0.66924 0.06463 0.82642 0.0
H3379 H 0.6699 0.09108 0.83564 0.0
H3380 H 0.70592 0.11176 0.82754 0.0
H3381 H 0.71713 0.99533 0.85679 0.0
H3382 H 0.67929 1.00402 0.85819 0.0
H3383 H 0.67745 0.97396 0.84969 0.0
H3384 H 0.58019 0.019 0.85542 0.0
H3385 H 0.57256 0.95337 0.83322 0.0
H3386 H 0.67215 0.0888 0.85215 0.0
H3387 H 0.67359 0.05718 0.85974 0.0
H3388 H 0.63685 0.06784 0.86041 0.0
H3389 H 0.66126 1.00396 0.8256 0.0
H3390 H 0.62468 0.95668 0.82659 0.0
H3391 H 0.66542 0.97422 0.83331 0.0
C3392 C 0.93903 0.68013 0.84555 0.0
C3393 C 0.94776 0.70211 0.83806 0.0
C3394 C 0.95444 0.65718 0.84699 0.0
C3395 C 0.9803 0.65727 0.84095 0.0
C3396 C 0.98987 0.68032 0.8335 0.0
C3397 C 0.97298 0.70177 0.83207 0.0
C3398 C 0.94247 0.63227 0.85486 0.0
C3399 C 0.01828 0.68265 0.82706 0.0
C3400 C 0.04766 0.62602 0.84851 0.0
C3401 C 0.03417 0.59187 0.84429 0.0
C3402 C 0.03041 0.6474 0.84751 0.0
C3403 C 0.99788 0.63384 0.84242 0.0
C3404 C 0.98347 0.59876 0.83836 0.0
C3405 C 1.00219 0.5786 0.83918 0.0
C3406 C 0.0478 0.68515 0.85168 0.0
C3407 C 0.94831 0.58258 0.8331 0.0
H3408 H 0.91929 0.68001 0.85016 0.0
H3409 H 0.97999 0.71886 0.82629 0.0
H3410 H 0.93088 0.60313 0.85277 0.0
H3411 H 0.96663 0.63917 0.85907 0.0
H3412 H 0.92137 0.63455 0.85879 0.0
H3413 H 0.02411 0.70334 0.82186 0.0
H3414 H 0.0445 0.69013 0.83048 0.0
H3415 H 0.00852 0.65536 0.82396 0.0
H3416 H 0.07267 0.63673 0.85237 0.0
H3417 H 0.99153 0.55219 0.83593 0.0
H3418 H 0.02785 0.68692 0.85613 0.0
H3419 H 0.05515 0.70652 0.84657 0.0
H3420 H 0.07313 0.69176 0.85542 0.0
H3421 H 0.92606 0.58307 0.83695 0.0
H3422 H 0.9388 0.5537 0.83105 0.0
H3423 H 0.95272 0.59951 0.82718 0.0
C3424 C 0.36088 0.26518 0.83838 0.0
C3425 C 0.32403 0.24601 0.84123 0.0
C3426 C 0.38267 0.30389 0.83926 0.0
C3427 C 0.36703 0.32429 0.84285 0.0
C3428 C 0.32982 0.30495 0.84578 0.0
C3429 C 0.30902 0.26611 0.84505 0.0
C3430 C 0.42242 0.323 0.83629 0.0
C3431 C 0.31159 0.32538 0.84945 0.0
C3432 C 0.42794 0.42272 0.85151 0.0
C3433 C 0.42906 0.44448 0.84441 0.0
C3434 C 0.40879 0.38378 0.85102 0.0
C3435 C 0.38918 0.36583 0.84333 0.0
C3436 C 0.39025 0.38771 0.83615 0.0
C3437 C 0.41052 0.4266 0.83673 0.0
C3438 C 0.40943 0.36182 0.85875 0.0
C3439 C 0.36912 0.37001 0.8279 0.0
H3440 H 0.37272 0.24985 0.83545 0.0
H3441 H 0.2805 0.25158 0.84722 0.0
H3442 H 0.4263 0.34163 0.83075 0.0
H3443 H 0.44082 0.34036 0.84162 0.0
H3444 H 0.43122 0.30311 0.83421 0.0
H3445 H 0.28248 0.30643 0.85142 0.0
H3446 H 0.32712 0.34184 0.85521 0.0
H3447 H 0.31204 0.34502 0.84452 0.0
H3448 H 0.44225 0.43619 0.85747 0.0
H3449 H 0.41079 0.44304 0.83124 0.0
H3450 H 0.41906 0.34257 0.85671 0.0
H3451 H 0.3811 0.34482 0.8614 0.0
H3452 H 0.4277 0.3798 0.86404 0.0
H3453 H 0.37861 0.35177 0.82507 0.0
H3454 H 0.37243 0.39074 0.82292 0.0
H3455 H 0.33928 0.35245 0.82941 0.0
C3456 C 0.67868 0.92145 1.00612 0.0
C3457 C 0.65312 0.89864 0.01242 0.0
C3458 C 0.69717 0.96027 1.00689 0.0
C3459 C 0.6886 0.97682 0.0139 0.0
C3460 C 0.66225 0.95372 0.0202 0.0
C3461 C 0.64546 0.91501 0.01948 0.0
C3462 C 0.72614 0.98357 1.00023 0.0
C3463 C 0.65114 0.96988 0.02761 0.0
C3464 C 0.75432 0.07525 0.02167 0.0
C3465 C 0.74058 0.09557 0.01742 0.0
C3466 C 0.73884 0.03706 0.02025 0.0
C3467 C 0.70753 0.01816 0.01477 0.0
C3468 C 0.69361 0.0387 1.01043 0.0
C3469 C 0.71082 0.0773 0.01166 0.0
C3470 C 0.75575 0.01686 0.02472 0.0
C3471 C 0.65951 0.01969 1.00481 0.0
H3472 H 0.68459 0.90885 1.00064 0.0
H3473 H 0.62521 0.89745 0.02428 0.0
H3474 H 0.7176 1.00113 0.99666 0.0
H3475 H 0.75262 1.00235 1.00355 0.0
H3476 H 0.73099 0.96653 0.99544 0.0
H3477 H 0.62869 0.94825 0.03166 0.0
H3478 H 0.67527 0.98669 0.03187 0.0
H3479 H 0.64168 0.98854 0.02502 0.0
H3480 H 0.77738 0.08936 0.02612 0.0
H3481 H 0.69982 0.09288 1.00847 0.0
H3482 H 0.76077 0.99996 0.01993 0.0
H3483 H 0.73638 0.99773 0.02969 0.0
H3484 H 0.78227 0.03607 0.02797 0.0
H3485 H 0.66358 1.00399 0.99953 0.0
H3486 H 0.65229 0.03949 1.00184 0.0
H3487 H 0.63577 0.9995 1.00879 0.0
C3488 C 0.94098 0.6388 0.01289 0.0
C3489 C 0.92002 0.65478 0.01558 0.0
C3490 C 0.9798 0.65995 0.01228 0.0
C3491 C 0.99816 0.69832 0.01415 0.0
C3492 C 0.97693 0.71474 0.01663 0.0
C3493 C 0.93825 0.6927 0.01744 0.0
C3494 C 1.00123 0.64103 1.0098 0.0
C3495 C 0.99508 0.75564 0.01843 0.0
C3496 C 0.1008 0.74757 0.02019 0.0
C3497 C 0.11787 0.76174 0.01213 0.0
C3498 C 0.06197 0.72692 0.02095 0.0
C3499 C 0.03952 0.72117 0.01351 0.0
C3500 C 0.05671 0.73659 1.00543 0.0
C3501 C 0.09555 0.75612 1.00481 0.0
C3502 C 0.04498 0.71029 0.02965 0.0
C3503 C 0.03406 0.73219 0.99739 0.0
H3504 H 0.9271 0.60946 0.0115 0.0
H3505 H 0.92217 0.70522 0.01949 0.0
H3506 H 0.01718 0.65338 1.00375 0.0
H3507 H 0.02142 0.64525 0.015 0.0
H3508 H 0.98299 0.61089 1.00876 0.0
H3509 H 0.97461 0.76448 0.01989 0.0
H3510 H 0.01421 0.763 0.02403 0.0
H3511 H 0.0118 0.77148 0.01272 0.0
H3512 H 0.11781 0.7514 0.02586 0.0
H3513 H 0.10852 0.76712 0.99856 0.0
H3514 H 0.0284 0.67978 0.02906 0.0
H3515 H 0.02591 0.72006 0.03173 0.0
H3516 H 0.06613 0.71734 0.0348 0.0
H3517 H 0.01782 0.7026 0.99557 0.0
H3518 H 0.0515 0.74792 0.99175 0.0
H3519 H 0.01407 0.74172 0.99874 0.0
C3520 C 0.24475 0.33157 0.01655 0.0
C3521 C 0.25918 0.36486 0.01192 0.0
C3522 C 0.26515 0.31314 0.01749 0.0
C3523 C 0.30145 0.32905 0.01401 0.0
C3524 C 0.31619 0.3629 1.00941 0.0
C3525 C 0.29472 0.37997 1.0083 0.0
C3526 C 0.24788 0.27665 0.02223 0.0
C3527 C 0.35512 0.38175 1.00587 0.0
C3528 C 0.36775 0.30286 0.02471 0.0
C3529 C 0.37012 0.27955 0.01849 0.0
C3530 C 0.34598 0.31939 0.02328 0.0
C3531 C 0.32481 0.31148 0.01555 0.0
C3532 C 0.32679 0.28755 1.00927 0.0
C3533 C 0.34986 0.27234 1.01075 0.0
C3534 C 0.34598 0.34569 0.03003 0.0
C3535 C 0.30402 0.27749 1.00105 0.0
H3536 H 0.21727 0.31965 0.01932 0.0
H3537 H 0.30632 0.40593 1.0048 0.0
H3538 H 0.24948 0.25558 0.01815 0.0
H3539 H 0.26338 0.27948 0.02832 0.0
H3540 H 0.2185 0.26649 0.02393 0.0
H3541 H 0.36262 0.40813 1.00251 0.0
H3542 H 0.37498 0.38761 1.01126 0.0
H3543 H 0.3584 0.36332 1.00121 0.0
H3544 H 0.38344 0.30864 0.0307 0.0
H3545 H 0.35118 0.25394 1.00599 0.0
H3546 H 0.31773 0.33489 0.03268 0.0
H3547 H 0.35431 0.37282 0.02698 0.0
H3548 H 0.36503 0.35006 0.03552 0.0
H3549 H 0.2743 0.26486 1.00274 0.0
H3550 H 0.30787 0.25784 0.99692 0.0
H3551 H 0.31156 0.30269 0.99718 0.0
C3552 C 0.09677 0.36502 0.52039 0.0
C3553 C 0.11457 0.36114 0.51306 0.0
C3554 C 0.05787 0.34747 0.52082 0.0
C3555 C 0.03605 0.32422 0.5139 0.0
C3556 C 0.05403 0.31932 0.50661 0.0
C3557 C 0.09297 0.33846 0.5062 0.0
C3558 C 0.04014 0.35456 0.52859 0.0
C3559 C 0.03214 0.29371 0.49927 0.0
C3560 C 0.93628 0.2548 0.52013 0.0
C3561 C 0.91666 0.27061 0.51648 0.0
C3562 C 0.97472 0.27089 0.51895 0.0
C3563 C 0.99452 0.30477 0.51438 0.0
C3564 C 0.97463 0.32063 0.51059 0.0
C3565 C 0.93584 0.30298 0.51154 0.0
C3566 C 0.99423 0.25201 0.52279 0.0
C3567 C 0.99453 0.35727 0.50592 0.0
H3568 H 0.11333 0.38301 0.52564 0.0
H3569 H 0.10662 0.3354 0.50051 0.0
H3570 H 0.02197 0.36527 0.52638 0.0
H3571 H 0.02252 0.32839 0.53213 0.0
H3572 H 0.0609 0.37474 0.5332 0.0
H3573 H 0.05018 0.29134 0.4943 0.0
H3574 H 0.01289 0.26577 0.50187 0.0
H3575 H 0.01513 0.30378 0.49603 0.0
H3576 H 0.9215 0.2299 0.524 0.0
H3577 H 0.92081 0.31566 0.50888 0.0
H3578 H 0.01207 0.26865 0.52827 0.0
H3579 H 0.01238 0.24979 0.51783 0.0
H3580 H 0.97451 0.22391 0.52525 0.0
H3581 H 0.01348 0.37899 0.51052 0.0
H3582 H 0.97515 0.36555 0.50317 0.0
H3583 H 0.0117 0.3561 0.50056 0.0
C3584 C 0.65611 0.74631 0.52069 0.0
C3585 C 0.65066 0.75864 0.51262 0.0
C3586 C 0.67501 0.72631 0.52131 0.0
C3587 C 0.68999 0.7194 0.51372 0.0
C3588 C 0.68552 0.73282 0.50559 0.0
C3589 C 0.66541 0.75164 0.50512 0.0
C3590 C 0.67802 0.71166 0.53008 0.0
C3591 C 0.7019 0.72721 0.49736 0.0
C3592 C 0.76501 0.69323 0.51704 0.0
C3593 C 0.74547 0.65499 0.51558 0.0
C3594 C 0.74761 0.71464 0.51625 0.0
C3595 C 0.70938 0.69728 0.51425 0.0
C3596 C 0.68953 0.65856 0.51283 0.0
C3597 C 0.70791 0.63806 0.51337 0.0
C3598 C 0.77021 0.75589 0.51754 0.0
C3599 C 0.64862 0.63858 0.51092 0.0
H3600 H 0.64447 0.75122 0.52651 0.0
H3601 H 0.66151 0.76122 0.49886 0.0
H3602 H 0.6648 0.68112 0.5298 0.0
H3603 H 0.70747 0.72263 0.53179 0.0
H3604 H 0.6647 0.71912 0.53535 0.0
H3605 H 0.69825 0.74151 0.49168 0.0
H3606 H 0.73186 0.73762 0.49828 0.0
H3607 H 0.68869 0.69732 0.49586 0.0
H3608 H 0.79406 0.7065 0.51871 0.0
H3609 H 0.69254 0.60847 0.51229 0.0
H3610 H 0.75971 0.76415 0.52325 0.0
H3611 H 0.76748 0.77034 0.51177 0.0
H3612 H 0.79996 0.76546 0.51859 0.0
H3613 H 0.63372 0.6436 0.51625 0.0
H3614 H 0.63696 0.60831 0.51021 0.0
H3615 H 0.64323 0.6494 0.50484 0.0
C3616 C 0.29206 0.91925 0.50581 0.0
C3617 C 0.25638 0.89923 0.50938 0.0
C3618 C 0.31336 0.95794 0.50665 0.0
C3619 C 0.29839 0.97752 0.51096 0.0
C3620 C 0.26181 0.95757 0.51428 0.0
C3621 C 0.24152 0.91869 0.51358 0.0
C3622 C 0.35254 0.97764 0.50327 0.0
C3623 C 0.24433 0.97724 0.51873 0.0
C3624 C 0.36366 0.06847 0.52229 0.0
C3625 C 0.36703 0.09501 0.5162 0.0
C3626 C 0.34203 0.03045 0.52059 0.0
C3627 C 0.3221 0.01825 0.51267 0.0
C3628 C 0.32523 0.04497 0.50648 0.0
C3629 C 0.34809 0.08306 0.50827 0.0
C3630 C 0.34067 1.00329 0.52728 0.0
C3631 C 0.30387 0.03331 0.49805 0.0
H3632 H 0.304 0.90448 0.50264 0.0
H3633 H 0.21393 0.90352 0.5163 0.0
H3634 H 0.3569 1.00038 0.49882 0.0
H3635 H 0.37204 0.99024 0.50879 0.0
H3636 H 0.35957 0.95877 0.49973 0.0
H3637 H 0.21452 0.95845 0.5201 0.0
H3638 H 0.25865 0.98917 0.52498 0.0
H3639 H 0.24734 1.00045 0.51463 0.0
H3640 H 0.37839 0.07749 0.52842 0.0
H3641 H 0.35033 0.10344 0.50357 0.0
H3642 H 0.34893 0.98439 0.52425 0.0
H3643 H 0.31203 0.98605 0.52972 0.0
H3644 H 0.35909 0.01722 0.53292 0.0
H3645 H 0.31119 0.01518 0.49431 0.0
H3646 H 0.30925 0.05731 0.49392 0.0
H3647 H 0.27383 0.01702 0.49947 0.0
C3648 C 0.02651 0.42464 0.33512 0.0
C3649 C 0.0258 0.44219 0.34285 0.0
C3650 C 1.00796 0.38574 0.33446 0.0
C3651 C 0.98725 0.36359 0.34163 0.0
C3652 C 0.98552 0.38124 0.34936 0.0
C3653 C 1.00515 0.42014 0.34992 0.0
C3654 C 0.01138 0.36833 0.32616 0.0
C3655 C 0.96305 0.359 0.35709 0.0
C3656 C 0.91473 0.26288 0.33681 0.0
C3657 C 0.93247 0.24372 0.33961 0.0
C3658 C 0.93177 0.30162 0.33762 0.0
C3659 C 0.96798 0.32207 0.3411 0.0
C3660 C 0.98593 0.30274 0.34398 0.0
C3661 C 0.9678 0.26388 0.34332 0.0
C3662 C 0.91106 0.32071 0.3347 0.0
C3663 C 0.02473 0.32322 0.34757 0.0
H3664 H 0.04268 0.44131 0.32965 0.0
H3665 H 1.00425 0.43335 0.35592 0.0
H3666 H 0.02396 0.35098 0.32759 0.0
H3667 H 0.98363 0.34993 0.32336 0.0
H3668 H 0.02856 0.38924 0.32119 0.0
H3669 H 0.96271 0.37678 0.36243 0.0
H3670 H 0.93416 0.3397 0.35506 0.0
H3671 H 0.97453 0.34205 0.35967 0.0
H3672 H 0.88739 0.24751 0.33397 0.0
H3673 H 0.98184 0.24937 0.34544 0.0
H3674 H 0.92581 0.33952 0.32918 0.0
H3675 H 0.90992 0.33788 0.34007 0.0
H3676 H 0.8824 0.30082 0.3326 0.0
H3677 H 0.04372 0.34298 0.34262 0.0
H3678 H 0.03503 0.30431 0.34945 0.0
H3679 H 0.02578 0.33957 0.35336 0.0
C3680 C 0.73611 0.69556 0.33184 0.0
C3681 C 0.7619 0.69787 0.33803 0.0
C3682 C 0.69783 0.67366 0.33328 0.0
C3683 C 0.68464 0.65224 0.34098 0.0
C3684 C 0.71064 0.6542 0.34724 0.0
C3685 C 0.74894 0.67747 0.34575 0.0
C3686 C 0.67148 0.67375 0.32657 0.0
C3687 C 0.698 0.63118 0.35542 0.0
C3688 C 0.58575 0.62156 0.34816 0.0
C3689 C 0.56547 0.58622 0.34445 0.0
C3690 C 0.62433 0.64311 0.34712 0.0
C3691 C 0.64368 0.62866 0.3425 0.0
C3692 C 0.62344 0.59254 0.33893 0.0
C3693 C 0.58455 0.57206 0.3398 0.0
C3694 C 0.64422 0.68185 0.35076 0.0
C3695 C 0.64288 0.57556 0.33416 0.0
H3696 H 0.74594 0.71138 0.32587 0.0
H3697 H 0.76873 0.67883 0.35051 0.0
H3698 H 0.65425 0.64562 0.32385 0.0
H3699 H 0.65248 0.68175 0.32966 0.0
H3700 H 0.6861 0.69309 0.32111 0.0
H3701 H 0.72155 0.63491 0.35952 0.0
H3702 H 0.68036 0.63859 0.35934 0.0
H3703 H 0.68093 0.60153 0.35369 0.0
H3704 H 0.57123 0.63295 0.35168 0.0
H3705 H 0.56914 0.54473 0.33695 0.0
H3706 H 0.6582 0.70197 0.34541 0.0
H3707 H 0.66592 0.68501 0.35541 0.0
H3708 H 0.6252 0.68908 0.35416 0.0
H3709 H 0.65554 0.59124 0.32809 0.0
H3710 H 0.6238 0.54622 0.33242 0.0
H3711 H 0.66557 0.57717 0.33823 0.0
C3712 C 0.30637 0.04093 0.3444 0.0
C3713 C 0.31631 0.06736 0.33778 0.0
C3714 C 0.32726 0.02337 0.34595 0.0
C3715 C 0.35977 0.03361 0.34101 0.0
C3716 C 0.37075 0.06167 0.33462 0.0
C3717 C 0.34848 0.0775 0.33295 0.0
C3718 C 0.31362 0.99272 0.35259 0.0
C3719 C 0.40583 0.07469 0.32943 0.0
C3720 C 0.42914 0.00638 0.34958 0.0
C3721 C 0.42307 0.97739 0.34397 0.0
C3722 C 0.40923 0.02529 0.34863 0.0
C3723 C 0.38131 0.01385 0.34218 0.0
C3724 C 0.37456 0.98392 0.33664 0.0
C3725 C 0.39599 0.96664 0.33749 0.0
C3726 C 0.41851 0.05791 0.35444 0.0
C3727 C 0.3443 0.96975 0.32988 0.0
H3728 H 0.28129 0.03273 0.34808 0.0
H3729 H 0.35636 0.09805 0.32785 0.0
H3730 H 0.30743 0.96655 0.34932 0.0
H3731 H 0.33533 0.99881 0.35751 0.0
H3732 H 0.28831 0.98845 0.35599 0.0
H3733 H 0.4126 0.09938 0.32541 0.0
H3734 H 0.42936 0.0815 0.33386 0.0
H3735 H 0.40293 0.05232 0.32504 0.0
H3736 H 0.45003 0.01476 0.35461 0.0
H3737 H 0.39074 0.94383 0.33323 0.0
H3738 H 0.39402 0.05259 0.35835 0.0
H3739 H 0.42615 0.08273 0.3504 0.0
H3740 H 0.44169 0.0641 0.35895 0.0
H3741 H 0.31769 0.96317 0.33298 0.0
H3742 H 0.34076 0.94463 0.32653 0.0
H3743 H 0.35064 0.99138 0.32492 0.0
C3744 C 0.13805 0.33556 0.07485 0.0
C3745 C 0.1726 0.36134 0.07136 0.0
C3746 C 0.1339 0.32574 0.08373 0.0
C3747 C 0.16496 0.34213 0.08934 0.0
C3748 C 0.19999 0.3678 0.08586 0.0
C3749 C 0.20339 0.377 0.07694 0.0
C3750 C 0.09603 0.29822 0.08714 0.0
C3751 C 0.23386 0.38592 0.09158 0.0
C3752 C 0.14644 0.34389 0.11368 0.0
C3753 C 0.1494 0.31396 0.11688 0.0
C3754 C 0.15197 0.35364 0.1048 0.0
C3755 C 0.16056 0.33296 0.09888 0.0
C3756 C 0.1641 0.30307 0.10207 0.0
C3757 C 0.15857 0.294 0.111 0.0
C3758 C 0.14795 0.38574 0.10171 0.0
C3759 C 0.17327 0.28029 0.09603 0.0
H3760 H 0.1139 0.32364 0.07069 0.0
H3761 H 0.23032 0.39654 0.07434 0.0
H3762 H 0.09685 0.2749 0.09037 0.0
H3763 H 0.08727 0.31155 0.09211 0.0
H3764 H 0.0749 0.28699 0.0819 0.0
H3765 H 0.25923 0.40475 0.08786 0.0
H3766 H 0.22992 0.402 0.0968 0.0
H3767 H 0.23808 0.36457 0.09481 0.0
H3768 H 0.13881 0.35922 0.11808 0.0
H3769 H 0.16149 0.27119 0.11338 0.0
H3770 H 0.12487 0.37589 0.09698 0.0
H3771 H 0.17343 0.40618 0.09828 0.0
H3772 H 0.1425 0.39988 0.10715 0.0
H3773 H 0.15141 0.267 0.09101 0.0
H3774 H 0.17585 0.25844 0.09954 0.0
H3775 H 0.19959 0.29834 0.09257 0.0
C3776 C 0.68842 0.82783 0.07462 0.0
C3777 C 0.65175 0.81305 0.07175 0.0
C3778 C 0.6975 0.83324 0.08354 0.0
C3779 C 0.66933 0.82382 0.08984 0.0
C3780 C 0.63241 0.80968 0.087 0.0
C3781 C 0.62408 0.80443 0.07803 0.0
C3782 C 0.73724 0.84847 0.08624 0.0
C3783 C 0.60146 0.79924 0.09345 0.0
C3784 C 0.68583 0.80095 0.11293 0.0
C3785 C 0.69573 0.83379 0.11748 0.0
C3786 C 0.67716 0.79739 0.10399 0.0
C3787 C 0.67828 0.82734 0.09939 0.0
C3788 C 0.68813 0.86055 0.10394 0.0
C3789 C 0.69679 0.8634 0.11289 0.0
C3790 C 0.66708 0.76155 0.09943 0.0
C3791 C 0.68948 0.8931 0.09933 0.0
H3792 H 0.71018 0.83517 0.06986 0.0
H3793 H 0.59559 0.79252 0.07597 0.0
H3794 H 0.74652 0.87358 0.09028 0.0
H3795 H 0.73974 0.82787 0.0903 0.0
H3796 H 0.75609 0.85556 0.08056 0.0
H3797 H 0.57457 0.79049 0.09021 0.0
H3798 H 0.59853 0.77625 0.09763 0.0
H3799 H 0.60796 0.82291 0.0978 0.0
H3800 H 0.68553 0.77809 0.11633 0.0
H3801 H 0.70402 0.88878 0.11632 0.0
H3802 H 0.68691 0.76671 0.09407 0.0
H3803 H 0.63924 0.74976 0.09647 0.0
H3804 H 0.66713 0.74074 0.10393 0.0
H3805 H 0.70958 0.90213 0.09388 0.0
H3806 H 0.69749 0.91692 0.10377 0.0
H3807 H 0.66206 0.88493 0.09648 0.0
C3808 C 0.1583 0.87088 0.11092 0.0
C3809 C 0.17751 0.86253 0.1172 0.0
C3810 C 0.16171 0.86591 0.10196 0.0
C3811 C 0.18501 0.85234 0.09914 0.0
C3812 C 0.20383 0.84308 0.10544 0.0
C3813 C 0.19983 0.84821 0.11436 0.0
C3814 C 0.14112 0.87615 0.0955 0.0
C3815 C 0.22887 0.82843 0.10275 0.0
C3816 C 0.17466 0.81404 0.07603 0.0
C3817 C 0.20328 0.84409 0.07157 0.0
C3818 C 0.16823 0.81633 0.08497 0.0
C3819 C 0.19101 0.84941 0.08961 0.0
C3820 C 0.21986 0.87983 0.08514 0.0
C3821 C 0.22562 0.87681 0.07621 0.0
C3822 C 0.13706 0.78331 0.08945 0.0
C3823 C 0.24498 0.91557 0.0898 0.0
H3824 H 0.1414 0.88244 0.11299 0.0
H3825 H 0.21438 0.8411 0.11912 0.0
H3826 H 0.16113 0.89953 0.09141 0.0
H3827 H 0.12449 0.8526 0.09107 0.0
H3828 H 0.12245 0.88426 0.09873 0.0
H3829 H 0.24045 0.8212 0.10843 0.0
H3830 H 0.21351 0.80352 0.09862 0.0
H3831 H 0.25209 0.84945 0.09878 0.0
H3832 H 0.157 0.78875 0.07252 0.0
H3833 H 0.24823 0.89999 0.0729 0.0
H3834 H 0.1174 0.79097 0.0923 0.0
H3835 H 0.14809 0.77423 0.0949 0.0
H3836 H 0.12171 0.75968 0.08494 0.0
H3837 H 0.22843 0.9268 0.09277 0.0
H3838 H 0.26586 0.93681 0.08539 0.0
H3839 H 0.25961 0.91044 0.09517 0.0
C3840 C 0.36554 0.12799 0.44448 0.0
C3841 C 0.36689 0.15749 0.44917 0.0
C3842 C 0.35567 0.12253 0.43561 0.0
C3843 C 0.34696 0.14716 0.43128 0.0
C3844 C 0.34801 0.17681 0.43599 0.0
C3845 C 0.35783 0.18153 0.44485 0.0
C3846 C 0.35486 0.09055 0.43085 0.0
C3847 C 0.33881 0.20364 0.43165 0.0
C3848 C 0.35446 0.15401 0.40649 0.0
C3849 C 0.31741 0.13234 0.40391 0.0
C3850 C 0.36444 0.15909 0.41535 0.0
C3851 C 0.33678 0.142 0.42183 0.0
C3852 C 0.29935 0.12017 0.41928 0.0
C3853 C 0.29014 0.11565 0.41037 0.0
C3854 C 0.40463 0.18282 0.41778 0.0
C3855 C 0.269 0.10128 0.42595 0.0
H3856 H 0.37287 0.10949 0.44771 0.0
H3857 H 0.35812 0.20403 0.44842 0.0
H3858 H 0.32707 0.0726 0.42801 0.0
H3859 H 0.37486 0.101 0.42537 0.0
H3860 H 0.36174 0.07351 0.43517 0.0
H3861 H 0.34106 0.22535 0.4362 0.0
H3862 H 0.3577 0.21722 0.42607 0.0
H3863 H 0.31028 0.18863 0.42903 0.0
H3864 H 0.3757 0.16732 0.40156 0.0
H3865 H 0.26152 0.09836 0.40847 0.0
H3866 H 0.41379 0.16644 0.42165 0.0
H3867 H 0.40832 0.20617 0.42193 0.0
H3868 H 0.4228 0.19416 0.41198 0.0
H3869 H 0.27406 0.08216 0.42996 0.0
H3870 H 0.24125 0.08537 0.42291 0.0
H3871 H 0.26893 0.12206 0.43044 0.0
C3872 C 0.88337 0.16458 0.4108 0.0
C3873 C 0.87311 0.18228 0.40452 0.0
C3874 C 0.87854 0.16794 0.41978 0.0
C3875 C 0.86317 0.18965 0.42263 0.0
C3876 C 0.85204 0.20695 0.41634 0.0
C3877 C 0.85704 0.203 0.4074 0.0
C3878 C 0.89077 0.14895 0.42623 0.0
C3879 C 0.83548 0.23029 0.41905 0.0
C3880 C 0.82559 0.17797 0.44589 0.0
C3881 C 0.85508 0.20751 0.45027 0.0
C3882 C 0.82783 0.17169 0.43694 0.0
C3883 C 0.86025 0.19561 0.43218 0.0
C3884 C 0.89001 0.22554 0.43656 0.0
C3885 C 0.88708 0.23107 0.4455 0.0
C3886 C 0.79553 0.13934 0.43256 0.0
C3887 C 0.92498 0.25195 0.43177 0.0
H3888 H 0.89625 0.1489 0.40872 0.0
H3889 H 0.84838 0.21632 0.40266 0.0
H3890 H 0.91377 0.16992 0.43025 0.0
H3891 H 0.86777 0.1315 0.43073 0.0
H3892 H 0.9002 0.13135 0.42299 0.0
H3893 H 0.82706 0.24087 0.41338 0.0
H3894 H 0.81095 0.21398 0.42324 0.0
H3895 H 0.85583 0.25417 0.42295 0.0
H3896 H 0.80088 0.15936 0.4495 0.0
H3897 H 0.90981 0.25436 0.44875 0.0
H3898 H 0.80447 0.12062 0.42975 0.0
H3899 H 0.78531 0.14921 0.42711 0.0
H3900 H 0.77231 0.12328 0.43714 0.0
H3901 H 0.93758 0.23662 0.42882 0.0
H3902 H 0.94568 0.27376 0.4361 0.0
H3903 H 0.91844 0.26542 0.42638 0.0
C3904 C 0.80394 0.66689 0.40855 0.0
C3905 C 0.83791 0.69412 0.40509 0.0
C3906 C 0.79992 0.65766 0.41747 0.0
C3907 C 0.83053 0.67613 0.42316 0.0
C3908 C 0.86499 0.70337 0.41971 0.0
C3909 C 0.86828 0.71195 0.41076 0.0
C3910 C 0.76267 0.62842 0.42082 0.0
C3911 C 0.89838 0.72375 0.42551 0.0
C3912 C 0.80959 0.6768 0.44739 0.0
C3913 C 0.81485 0.64844 0.45074 0.0
C3914 C 0.81521 0.68647 0.4385 0.0
C3915 C 0.82623 0.6673 0.43272 0.0
C3916 C 0.83214 0.63907 0.43606 0.0
C3917 C 0.8265 0.63008 0.44499 0.0
C3918 C 0.80863 0.7168 0.43526 0.0
C3919 C 0.84393 0.61792 0.43016 0.0
H3920 H 0.78006 0.65329 0.40433 0.0
H3921 H 0.89481 0.73265 0.40818 0.0
H3922 H 0.76523 0.60624 0.42415 0.0
H3923 H 0.75231 0.64064 0.4257 0.0
H3924 H 0.74188 0.61582 0.41554 0.0
H3925 H 0.92333 0.74381 0.42183 0.0
H3926 H 0.89263 0.73888 0.43065 0.0
H3927 H 0.90445 0.70383 0.42884 0.0
H3928 H 0.80007 0.69089 0.45169 0.0
H3929 H 0.83123 0.60853 0.44747 0.0
H3930 H 0.78567 0.70537 0.43048 0.0
H3931 H 0.83358 0.73828 0.43185 0.0
H3932 H 0.80163 0.7301 0.44062 0.0
H3933 H 0.8226 0.60321 0.42509 0.0
H3934 H 0.84828 0.59738 0.43378 0.0
H3935 H 0.86995 0.63727 0.42675 0.0
C3936 C 0.89998 0.71403 0.91174 0.0
C3937 C 0.8711 0.69727 0.90565 0.0
C3938 C 0.89441 0.70406 0.9206 0.0
C3939 C 0.85901 0.67669 0.92354 0.0
C3940 C 0.8296 0.65995 0.91746 0.0
C3941 C 0.83602 0.67028 0.90861 0.0
C3942 C 0.92669 0.72239 0.9268 0.0
C3943 C 0.79137 0.63088 0.92031 0.0
C3944 C 0.85395 0.62499 0.94448 0.0
C3945 C 0.84442 0.64334 0.95073 0.0
C3946 C 0.85846 0.63535 0.93564 0.0
C3947 C 0.85319 0.66477 0.93291 0.0
C3948 C 0.84328 0.68326 0.93917 0.0
C3949 C 0.83919 0.67247 0.94799 0.0
C3950 C 0.86941 0.61508 0.92924 0.0
C3951 C 0.83713 0.71457 0.93655 0.0
H3952 H 0.92733 0.73447 0.90953 0.0
H3953 H 0.81343 0.6574 0.904 0.0
H3954 H 0.91996 0.73548 0.93224 0.0
H3955 H 0.93229 0.70134 0.92968 0.0
H3956 H 0.95224 0.74378 0.92354 0.0
H3957 H 0.77116 0.62143 0.91487 0.0
H3958 H 0.79218 0.60665 0.92299 0.0
H3959 H 0.78142 0.64188 0.92558 0.0
H3960 H 0.85867 0.60288 0.94652 0.0
H3961 H 0.83152 0.68664 0.95274 0.0
H3962 H 0.89631 0.63467 0.92619 0.0
H3963 H 0.84871 0.60318 0.92393 0.0
H3964 H 0.87189 0.59245 0.93236 0.0
H3965 H 0.86287 0.73744 0.93372 0.0
H3966 H 0.82859 0.7255 0.94213 0.0
H3967 H 0.81552 0.70512 0.93144 0.0
C3968 C 0.35796 0.19807 0.90889 0.0
C3969 C 0.32127 0.17886 0.90591 0.0
C3970 C 0.36629 0.20141 0.91785 0.0
C3971 C 0.3373 0.18506 0.92404 0.0
C3972 C 0.30027 0.16481 0.92108 0.0
C3973 C 0.29271 0.16201 0.91208 0.0
C3974 C 0.40616 0.22316 0.92069 0.0
C3975 C 0.2685 0.14692 0.92743 0.0
C3976 C 0.36086 0.172 0.94737 0.0
C3977 C 0.36252 0.20248 0.95166 0.0
C3978 C 0.35242 0.16577 0.93842 0.0
C3979 C 0.34564 0.1907 0.9336 0.0
C3980 C 0.34722 0.22146 0.93789 0.0
C3981 C 0.35559 0.22693 0.94683 0.0
C3982 C 0.35079 0.13252 0.93412 0.0
C3983 C 0.34047 0.24891 0.93302 0.0
H3984 H 0.38031 0.21071 0.90421 0.0
H3985 H 0.26425 0.14751 0.9099 0.0
H3986 H 0.41066 0.24752 0.92455 0.0
H3987 H 0.41296 0.206 0.92497 0.0
H3988 H 0.42557 0.23293 0.91508 0.0
H3989 H 0.2415 0.13023 0.9241 0.0
H3990 H 0.27273 0.1288 0.932 0.0
H3991 H 0.26729 0.16851 0.93139 0.0
H3992 H 0.36583 0.15275 0.95103 0.0
H3993 H 0.35742 0.25094 0.95002 0.0
H3994 H 0.37133 0.14153 0.92877 0.0
H3995 H 0.32313 0.11494 0.93118 0.0
H3996 H 0.35636 0.11554 0.93878 0.0
H3997 H 0.36105 0.2618 0.9277 0.0
H3998 H 0.34225 0.27112 0.93732 0.0
H3999 H 0.31272 0.23458 0.92995 0.0
C4000 C 0.86273 0.14929 0.91136 0.0
C4001 C 0.83405 0.14218 0.90551 0.0
C4002 C 0.85966 0.15482 0.9203 0.0
C4003 C 0.82716 0.15333 0.92353 0.0
C4004 C 0.79835 0.14671 0.91765 0.0
C4005 C 0.8021 0.14117 0.90875 0.0
C4006 C 0.89108 0.16186 0.92632 0.0
C4007 C 0.76321 0.14486 0.92079 0.0
C4008 C 0.80123 0.13077 0.9475 0.0
C4009 C 0.8119 0.16566 0.95106 0.0
C4010 C 0.80655 0.12649 0.93862 0.0
C4011 C 0.82283 0.15779 0.93308 0.0
C4012 C 0.83412 0.19315 0.93663 0.0
C4013 C 0.82859 0.19666 0.94556 0.0
C4014 C 0.7941 0.08827 0.93512 0.0
C4015 C 0.85163 0.22727 0.93098 0.0
H4016 H 0.88775 0.15065 0.90894 0.0
H4017 H 0.77949 0.13514 0.90436 0.0
H4018 H 0.90084 0.18834 0.92983 0.0
H4019 H 0.88132 0.13971 0.9313 0.0
H4020 H 0.91481 0.16297 0.92278 0.0
H4021 H 0.74391 0.14069 0.91537 0.0
H4022 H 0.74894 0.12181 0.9255 0.0
H4023 H 0.76976 0.17071 0.92427 0.0
H4024 H 0.78777 0.1065 0.95162 0.0
H4025 H 0.83742 0.22381 0.94823 0.0
H4026 H 0.81748 0.08765 0.93186 0.0
H4027 H 0.77221 0.0809 0.93016 0.0
H4028 H 0.78313 0.06692 0.94032 0.0
H4029 H 0.87657 0.22999 0.92772 0.0
H4030 H 0.85967 0.25285 0.93476 0.0
H4031 H 0.83206 0.2248 0.92579 0.0
C4032 C 0.68739 0.86616 0.57568 0.0
C4033 C 0.65058 0.84675 0.57279 0.0
C4034 C 0.69611 0.86934 0.58461 0.0
C4035 C 0.66739 0.85267 0.59086 0.0
C4036 C 0.63026 0.8322 0.58798 0.0
C4037 C 0.62231 0.82953 0.57901 0.0
C4038 C 0.73608 0.89131 0.58737 0.0
C4039 C 0.59877 0.81398 0.59441 0.0
C4040 C 0.69217 0.83963 0.61406 0.0
C4041 C 0.69377 0.86997 0.61841 0.0
C4042 C 0.68335 0.83344 0.60513 0.0
C4043 C 0.67611 0.85825 0.60039 0.0
C4044 C 0.67761 0.88884 0.60475 0.0
C4045 C 0.68637 0.89429 0.61367 0.0
C4046 C 0.68184 0.80037 0.60076 0.0
C4047 C 0.67035 0.91614 0.59997 0.0
H4048 H 0.70951 0.87909 0.57095 0.0
H4049 H 0.59376 0.81486 0.57689 0.0
H4050 H 0.74056 0.91558 0.59126 0.0
H4051 H 0.74322 0.87425 0.59158 0.0
H4052 H 0.75526 0.90124 0.58171 0.0
H4053 H 0.57168 0.79714 0.59113 0.0
H4054 H 0.60342 0.79595 0.59891 0.0
H4055 H 0.5975 0.83539 0.59842 0.0
H4056 H 0.69749 0.82048 0.61766 0.0
H4057 H 0.68816 0.91818 0.6169 0.0
H4058 H 0.70217 0.80959 0.59536 0.0
H4059 H 0.6541 0.78266 0.59787 0.0
H4060 H 0.68778 0.78347 0.60536 0.0
H4061 H 0.6907 0.92924 0.59462 0.0
H4062 H 0.67209 0.93821 0.60431 0.0
H4063 H 0.6425 0.90165 0.59696 0.0
C4064 C 0.12939 0.78917 0.57586 0.0
C4065 C 0.16276 0.81006 0.57131 0.0
C4066 C 0.12662 0.7943 0.58484 0.0
C4067 C 0.15794 0.82106 0.58947 0.0
C4068 C 0.19173 0.84228 0.58494 0.0
C4069 C 0.19376 0.83649 0.57595 0.0
C4070 C 0.09008 0.77084 0.58938 0.0
C4071 C 0.22577 0.87123 0.58959 0.0
C4072 C 0.13959 0.85526 0.611 0.0
C4073 C 0.14564 0.83406 0.6172 0.0
C4074 C 0.14427 0.85193 0.60202 0.0
C4075 C 0.15517 0.82666 0.59906 0.0
C4076 C 0.16202 0.8057 0.60527 0.0
C4077 C 0.15727 0.80968 0.61422 0.0
C4078 C 0.13665 0.87486 0.59566 0.0
C4079 C 0.17376 0.77849 0.60245 0.0
H4080 H 0.1054 0.76821 0.57242 0.0
H4081 H 0.2196 0.85307 0.57252 0.0
H4082 H 0.09341 0.75471 0.59468 0.0
H4083 H 0.08061 0.78875 0.59242 0.0
H4084 H 0.06827 0.75135 0.58486 0.0
H4085 H 0.24996 0.88538 0.58517 0.0
H4086 H 0.2202 0.89223 0.59251 0.0
H4087 H 0.23298 0.85836 0.595 0.0
H4088 H 0.13009 0.8738 0.61315 0.0
H4089 H 0.16264 0.79355 0.6189 0.0
H4090 H 0.11286 0.8565 0.59146 0.0
H4091 H 0.16083 0.89056 0.59132 0.0
H4092 H 0.13034 0.89466 0.59899 0.0
H4093 H 0.15188 0.75666 0.59835 0.0
H4094 H 0.17918 0.76514 0.60807 0.0
H4095 H 0.19914 0.79261 0.59841 0.0
C4096 C 0.20971 0.39039 0.57906 0.0
C4097 C 0.19924 0.36266 0.57272 0.0
C4098 C 0.20487 0.38185 0.58802 0.0
C4099 C 0.18924 0.34464 0.59076 0.0
C4100 C 0.17783 0.31643 0.58441 0.0
C4101 C 0.18291 0.32574 0.5755 0.0
C4102 C 0.21746 0.41283 0.59455 0.0
C4103 C 0.16093 0.2764 0.58702 0.0
C4104 C 0.21326 0.32576 0.61347 0.0
C4105 C 0.18143 0.31746 0.61829 0.0
C4106 C 0.21612 0.33467 0.60455 0.0
C4107 C 0.18644 0.33539 0.60028 0.0
C4108 C 0.15424 0.32714 0.6051 0.0
C4109 C 0.15209 0.31822 0.61402 0.0
C4110 C 0.25088 0.34304 0.59969 0.0
C4111 C 0.12204 0.32776 0.60082 0.0
H4112 H 0.22283 0.41904 0.57705 0.0
H4113 H 0.17418 0.30399 0.57069 0.0
H4114 H 0.19463 0.40732 0.5991 0.0
H4115 H 0.24046 0.41448 0.5985 0.0
H4116 H 0.22704 0.44002 0.59138 0.0
H4117 H 0.15212 0.25761 0.5813 0.0
H4118 H 0.18124 0.27241 0.59083 0.0
H4119 H 0.1366 0.2683 0.59128 0.0
H4120 H 0.23585 0.32462 0.61663 0.0
H4121 H 0.12751 0.3122 0.61767 0.0
H4122 H 0.2636 0.37104 0.59677 0.0
H4123 H 0.24404 0.32311 0.59427 0.0
H4124 H 0.2716 0.34165 0.60396 0.0
H4125 H 0.13121 0.35554 0.59805 0.0
H4126 H 0.09902 0.32079 0.60545 0.0
H4127 H 0.11147 0.3078 0.59534 0.0
C4128 C 0.01949 0.49554 0.74161 0.0
C4129 C 0.98255 0.47758 0.73879 0.0
C4130 C 0.02854 0.50083 0.75053 0.0
C4131 C 1.00004 0.48792 0.75686 0.0
C4132 C 0.96275 0.47049 0.75406 0.0
C4133 C 0.95448 0.46552 0.7451 0.0
C4134 C 0.06866 0.51967 0.75319 0.0
C4135 C 0.93145 0.45622 0.76056 0.0
C4136 C 0.02063 0.46608 0.77963 0.0
C4137 C 0.02704 0.49739 0.78443 0.0
C4138 C 0.01177 0.46268 0.77071 0.0
C4139 C 0.00917 0.49124 0.76639 0.0
C4140 C 0.01546 0.52288 0.77118 0.0
C4141 C 0.02437 0.52561 0.78011 0.0
C4142 C 1.00552 0.42855 0.76589 0.0
C4143 C 0.01278 0.55389 0.76686 0.0
H4144 H 0.04147 0.50547 0.73682 0.0
H4145 H 0.92584 0.45113 0.74305 0.0
H4146 H 0.07538 0.54374 0.75742 0.0
H4147 H 0.07394 0.50032 0.75704 0.0
H4148 H 0.08761 0.52931 0.74749 0.0
H4149 H 0.90409 0.44508 0.75736 0.0
H4150 H 0.93126 0.43398 0.76455 0.0
H4151 H 0.93545 0.47861 0.76509 0.0
H4152 H 0.02324 0.44438 0.78283 0.0
H4153 H 0.0289 0.54976 0.78374 0.0
H4154 H 0.02578 0.43642 0.76049 0.0
H4155 H 0.97755 0.41445 0.76293 0.0
H4156 H 1.00817 0.40864 0.77019 0.0
H4157 H 0.03282 0.56541 0.7614 0.0
H4158 H 0.01831 0.57657 0.77147 0.0
H4159 H 0.98479 0.54318 0.76405 0.0
C4160 C 0.50953 0.48213 0.74317 0.0
C4161 C 0.53827 0.512 0.73869 0.0
C4162 C 0.50336 0.48447 0.75213 0.0
C4163 C 0.52653 0.51744 0.75677 0.0
C4164 C 0.55551 0.54768 0.75228 0.0
C4165 C 0.561 0.5446 0.74334 0.0
C4166 C 0.47204 0.45164 0.75663 0.0
C4167 C 0.58105 0.58328 0.75694 0.0
C4168 C 0.49462 0.53922 0.77818 0.0
C4169 C 0.5136 0.53041 0.78442 0.0
C4170 C 0.49788 0.53434 0.7692 0.0
C4171 C 0.52079 0.52041 0.76632 0.0
C4172 C 0.53943 0.51074 0.77258 0.0
C4173 C 0.53558 0.51578 0.78152 0.0
C4174 C 0.47749 0.54503 0.76278 0.0
C4175 C 0.56406 0.4957 0.76984 0.0
H4176 H 0.49155 0.45693 0.73966 0.0
H4177 H 0.58371 0.56766 0.74002 0.0
H4178 H 0.48296 0.44231 0.76205 0.0
H4179 H 0.45267 0.45961 0.75951 0.0
H4180 H 0.45638 0.42808 0.75212 0.0
H4181 H 0.602 0.60439 0.75252 0.0
H4182 H 0.56484 0.59482 0.75995 0.0
H4183 H 0.59561 0.57788 0.76228 0.0
H4184 H 0.47798 0.55102 0.78028 0.0
H4185 H 0.54996 0.50831 0.78625 0.0
H4186 H 0.46052 0.52158 0.75836 0.0
H4187 H 0.49763 0.5683 0.75868 0.0
H4188 H 0.45917 0.55349 0.76606 0.0
H4189 H 0.54838 0.47083 0.76571 0.0
H4190 H 0.57561 0.48827 0.77549 0.0
H4191 H 0.58731 0.51656 0.76585 0.0
C4192 C 0.46796 0.99684 0.74212 0.0
C4193 C 0.49918 0.02834 0.73881 0.0
C4194 C 0.46493 0.98762 0.75102 0.0
C4195 C 0.49373 0.01044 0.75684 0.0
C4196 C 0.52553 0.04198 0.75354 0.0
C4197 C 0.52789 0.05049 0.74459 0.0
C4198 C 0.43053 0.95374 0.75423 0.0
C4199 C 0.55692 0.06706 0.75948 0.0
C4200 C 0.46902 0.00719 0.7809 0.0
C4201 C 0.48112 0.98407 0.78446 0.0
C4202 C 0.47334 0.01628 0.77199 0.0
C4203 C 0.49006 1.00185 0.7664 0.0
C4204 C 0.50264 0.97878 0.76994 0.0
C4205 C 0.49808 0.97023 0.77889 0.0
C4206 C 0.45949 0.04096 0.76852 0.0
C4207 C 0.52066 0.96282 0.76423 0.0
H4208 H 0.44531 0.97976 0.73778 0.0
H4209 H 0.55239 0.07458 0.74213 0.0
H4210 H 0.43805 0.93514 0.7577 0.0
H4211 H 0.41583 0.96193 0.75896 0.0
H4212 H 0.41124 0.93808 0.74885 0.0
H4213 H 0.58014 0.08999 0.75588 0.0
H4214 H 0.54683 0.07905 0.76449 0.0
H4215 H 0.56753 0.05101 0.76296 0.0
H4216 H 0.45529 0.01759 0.78506 0.0
H4217 H 0.50798 0.95274 0.78155 0.0
H4218 H 0.4376 0.02581 0.7636 0.0
H4219 H 0.48227 0.06533 0.76522 0.0
H4220 H 0.44808 0.05079 0.77374 0.0
H4221 H 0.50112 0.94536 0.75908 0.0
H4222 H 0.52946 0.94582 0.76799 0.0
H4223 H 0.54519 0.98538 0.76093 0.0
C4224 C 0.50964 0.01831 0.24375 0.0
C4225 C 0.54361 0.02951 0.23959 0.0
C4226 C 0.50429 0.0083 0.2526 0.0
C4227 C 0.53353 0.00928 0.25748 0.0
C4228 C 0.56778 0.0202 0.25332 0.0
C4229 C 0.5724 0.03016 0.24445 0.0
C4230 C 0.46729 0.9967 0.25675 0.0
C4231 C 0.59969 0.02165 0.25827 0.0
C4232 C 0.53149 0.01605 0.28227 0.0
C4233 C 0.51828 0.97932 0.28486 0.0
C4234 C 0.53652 0.02615 0.27341 0.0
C4235 C 0.52826 0.99894 0.26693 0.0
C4236 C 0.51478 0.9618 0.2695 0.0
C4237 C 0.50994 0.95247 0.2784 0.0
C4238 C 0.55071 0.066 0.27098 0.0
C4239 C 0.50575 0.93192 0.26283 0.0
H4240 H 0.48696 0.01705 0.24005 0.0
H4241 H 0.59888 0.03915 0.24136 0.0
H4242 H 0.4552 0.96825 0.25937 0.0
H4243 H 0.47085 0.01513 0.26231 0.0
H4244 H 0.44738 0.99749 0.25208 0.0
H4245 H 0.62433 0.03014 0.25407 0.0
H4246 H 0.60756 0.04143 0.26376 0.0
H4247 H 0.59133 0.99416 0.2611 0.0
H4248 H 0.53765 0.03696 0.28718 0.0
H4249 H 0.50032 0.92413 0.28031 0.0
H4250 H 0.53043 0.06814 0.26671 0.0
H4251 H 0.57681 0.0768 0.26723 0.0
H4252 H 0.55589 0.08385 0.27677 0.0
H4253 H 0.48461 0.93044 0.25822 0.0
H4254 H 0.49525 0.90433 0.26587 0.0
H4255 H 0.53077 0.93862 0.25896 0.0
C4256 C 0.0208 0.49825 0.27943 0.0
C4257 C 0.0254 0.53023 0.28358 0.0
C4258 C 0.01161 0.49174 0.27052 0.0
C4259 C 1.00695 0.51782 0.2656 0.0
C4260 C 0.01148 0.55009 0.26976 0.0
C4261 C 0.02063 0.55588 0.27866 0.0
C4262 C 1.0069 0.45691 0.26637 0.0
C4263 C 1.00696 0.57874 0.26478 0.0
C4264 C 0.01653 0.52156 0.24082 0.0
C4265 C 0.97952 0.50403 0.23808 0.0
C4266 C 0.02582 0.5255 0.24973 0.0
C4267 C 0.99747 0.51163 0.2561 0.0
C4268 C 0.96006 0.49321 0.25338 0.0
C4269 C 0.95156 0.48965 0.24444 0.0
C4270 C 0.06605 0.54517 0.25232 0.0
C4271 C 0.92894 0.47809 0.25994 0.0
H4272 H 0.02405 0.47807 0.28316 0.0
H4273 H 0.02476 0.58101 0.28173 0.0
H4274 H 0.97867 0.44058 0.26362 0.0
H4275 H 0.02664 0.46403 0.26089 0.0
H4276 H 0.01142 0.43935 0.27106 0.0
H4277 H 0.01099 0.60213 0.26898 0.0
H4278 H 0.02719 0.58983 0.25936 0.0
H4279 H 0.97897 0.56593 0.26186 0.0
H4280 H 0.03837 0.53234 0.23599 0.0
H4281 H 0.9229 0.47653 0.24243 0.0
H4282 H 0.07163 0.52728 0.25665 0.0
H4283 H 0.07278 0.57053 0.25604 0.0
H4284 H 0.08476 0.55305 0.24659 0.0
H4285 H 0.93188 0.45929 0.26455 0.0
H4286 H 0.90136 0.46279 0.25679 0.0
H4287 H 0.9302 0.50108 0.26382 0.0
C4288 C 0.52559 0.47711 0.24484 0.0
C4289 C 0.49765 0.47235 0.239 0.0
C4290 C 0.52296 0.48255 0.25382 0.0
C4291 C 0.49167 0.48339 0.2571 0.0
C4292 C 0.46361 0.47908 0.25123 0.0
C4293 C 0.46689 0.47357 0.2423 0.0
C4294 C 0.55357 0.48707 0.25981 0.0
C4295 C 0.42975 0.47975 0.25442 0.0
C4296 C 0.46518 0.46123 0.28109 0.0
C4297 C 0.47826 0.49646 0.28475 0.0
C4298 C 0.46982 0.45667 0.27217 0.0
C4299 C 0.48786 0.48802 0.26668 0.0
C4300 C 0.50152 0.52367 0.27033 0.0
C4301 C 0.49663 0.52745 0.27928 0.0
C4302 C 0.45481 0.41813 0.2686 0.0
C4303 C 0.52097 0.55787 0.26474 0.0
H4304 H 0.54974 0.47676 0.2424 0.0
H4305 H 0.4448 0.46937 0.23791 0.0
H4306 H 0.56511 0.51366 0.26337 0.0
H4307 H 0.54241 0.46472 0.26476 0.0
H4308 H 0.57635 0.48635 0.25625 0.0
H4309 H 0.41091 0.47709 0.24901 0.0
H4310 H 0.4143 0.45682 0.25909 0.0
H4311 H 0.43804 0.50592 0.25794 0.0
H4312 H 0.4504 0.43698 0.28517 0.0
H4313 H 0.50733 0.55484 0.282 0.0
H4314 H 0.47714 0.41573 0.2653 0.0
H4315 H 0.43327 0.41243 0.26365 0.0
H4316 H 0.44258 0.39668 0.27376 0.0
H4317 H 0.54512 0.55888 0.26146 0.0
H4318 H 0.53063 0.58363 0.26857 0.0
H4319 H 0.50204 0.557 0.25956 0.0
C4320 C 0.01028 0.16898 0.28116 0.0
C4321 C 0.97395 0.16185 0.28239 0.0
C4322 C 0.02687 0.1771 0.27286 0.0
C4323 C 1.00678 0.17817 0.26553 0.0
C4324 C 0.97029 0.17145 0.26673 0.0
C4325 C 0.95438 0.16339 0.27511 0.0
C4326 C 0.06587 0.18425 0.27191 0.0
C4327 C 0.94778 0.17218 0.25913 0.0
C4328 C 0.05998 0.22842 0.24496 0.0
C4329 C 0.05635 0.19917 0.23974 0.0
C4330 C 0.04397 0.22204 0.25333 0.0
C4331 C 0.02364 0.18548 0.2566 0.0
C4332 C 0.01959 0.15582 0.25133 0.0
C4333 C 0.03594 0.163 0.24301 0.0
C4334 C 0.04912 0.2545 0.25871 0.0
C4335 C 0.998 0.11641 0.2545 0.0
H4336 H 0.02594 0.16841 0.28673 0.0
H4337 H 0.92616 0.15745 0.27593 0.0
H4338 H 0.06621 0.16343 0.26748 0.0
H4339 H 0.08365 0.21177 0.26892 0.0
H4340 H 0.07809 0.18319 0.27825 0.0
H4341 H 0.92022 0.16744 0.26116 0.0
H4342 H 0.96275 0.1992 0.25574 0.0
H4343 H 0.94377 0.1506 0.25434 0.0
H4344 H 0.07601 0.2565 0.24258 0.0
H4345 H 0.03241 0.1401 0.23901 0.0
H4346 H 0.06366 0.25582 0.26486 0.0
H4347 H 0.02183 0.25099 0.26051 0.0
H4348 H 0.06523 0.28117 0.2552 0.0
H4349 H 0.01055 0.11326 0.26058 0.0
H4350 H 0.99712 0.0964 0.24961 0.0
H4351 H 0.96925 0.10922 0.25608 0.0
C4352 C 0.855 0.79539 0.27518 0.0
C4353 C 0.86096 0.8189 0.28229 0.0
C4354 C 0.84672 0.80332 0.26683 0.0
C4355 C 0.84412 0.83552 0.2655 0.0
C4356 C 0.84974 0.85917 0.27266 0.0
C4357 C 0.85812 0.85064 0.28093 0.0
C4358 C 0.84117 0.77742 0.25939 0.0
C4359 C 0.84702 0.89362 0.27159 0.0
C4360 C 0.85748 0.8761 0.24257 0.0
C4361 C 0.82096 0.86334 0.23985 0.0
C4362 C 0.86535 0.86706 0.25084 0.0
C4363 C 0.83606 0.84475 0.25661 0.0
C4364 C 0.79912 0.8316 0.25389 0.0
C4365 C 0.79203 0.84095 0.24557 0.0
C4366 C 0.90512 0.8815 0.25341 0.0
C4367 C 0.76702 0.80794 0.25982 0.0
H4368 H 0.85756 0.77106 0.27609 0.0
H4369 H 0.86214 0.86877 0.28638 0.0
H4370 H 0.81354 0.76727 0.25643 0.0
H4371 H 0.86201 0.79239 0.25424 0.0
H4372 H 0.84352 0.75325 0.2615 0.0
H4373 H 0.85154 0.90885 0.27781 0.0
H4374 H 0.86779 0.91233 0.26678 0.0
H4375 H 0.81938 0.88632 0.26902 0.0
H4376 H 0.88006 0.89294 0.23819 0.0
H4377 H 0.76374 0.83128 0.24361 0.0
H4378 H 0.90952 0.85813 0.25505 0.0
H4379 H 0.91174 0.89895 0.25932 0.0
H4380 H 0.92473 0.89811 0.24816 0.0
H4381 H 0.7678 0.78272 0.26172 0.0
H4382 H 0.73993 0.7995 0.25672 0.0
H4383 H 0.76918 0.82326 0.2659 0.0
C4384 C 0.19925 0.01631 0.27993 0.0
C4385 C 0.19588 0.04765 0.28148 0.0
C4386 C 0.19112 0.99897 0.27171 0.0
C4387 C 0.17914 0.01307 0.26483 0.0
C4388 C 0.17595 0.04481 0.26632 0.0
C4389 C 0.18442 0.0617 0.27458 0.0
C4390 C 0.19498 0.96526 0.27042 0.0
C4391 C 0.16334 0.06086 0.2592 0.0
C4392 C 0.18645 0.98781 0.24125 0.0
C4393 C 0.15009 0.95981 0.23946 0.0
C4394 C 0.19637 1.00506 0.24947 0.0
C4395 C 0.16932 0.99432 0.25611 0.0
C4396 C 0.13265 0.96599 0.25437 0.0
C4397 C 0.12354 0.94908 0.24611 0.0
C4398 C 0.23579 0.03506 0.25103 0.0
C4399 C 0.10289 0.95361 0.26124 0.0
H4400 H 0.2076 1.00484 0.2852 0.0
H4401 H 0.18231 0.08622 0.27562 0.0
H4402 H 0.16778 0.94118 0.2687 0.0
H4403 H 0.21402 0.9698 0.26491 0.0
H4404 H 0.20562 0.95831 0.27633 0.0
H4405 H 0.16253 0.0858 0.26137 0.0
H4406 H 0.18212 0.06837 0.2535 0.0
H4407 H 0.13532 0.03991 0.25695 0.0
H4408 H 0.20716 0.99677 0.23616 0.0
H4409 H 0.09554 0.92709 0.2449 0.0
H4410 H 0.24735 0.02788 0.25671 0.0
H4411 H 0.23664 0.06139 0.25259 0.0
H4412 H 0.25378 0.03958 0.24529 0.0
H4413 H 0.11094 0.94372 0.26709 0.0
H4414 H 0.07575 0.93113 0.25889 0.0
H4415 H 0.09964 0.97728 0.26329 0.0
C4416 C 0.96414 0.78836 0.77762 0.0
C4417 C 0.96369 0.81708 0.78228 0.0
C4418 C 0.97939 0.79405 0.76919 0.0
C4419 C 0.9946 0.82934 0.76524 0.0
C4420 C 0.99416 0.85842 0.76988 0.0
C4421 C 0.9788 0.85198 0.77832 0.0
C4422 C 0.97944 0.7623 0.76452 0.0
C4423 C 0.00987 0.89643 0.76594 0.0
C4424 C 0.06492 0.8546 0.74683 0.0
C4425 C 0.04341 0.84935 0.73936 0.0
C4426 C 0.04941 0.84803 0.75525 0.0
C4427 C 0.01134 0.83598 0.75629 0.0
C4428 C 0.98942 0.83057 0.74879 0.0
C4429 C 1.00565 0.83728 0.74045 0.0
C4430 C 0.07391 0.85428 0.76303 0.0
C4431 C 0.94874 0.81768 0.74958 0.0
H4432 H 0.95302 0.76141 0.78063 0.0
H4433 H 0.97815 0.87426 0.78177 0.0
H4434 H 0.96463 0.75707 0.75822 0.0
H4435 H 1.00825 0.76945 0.76302 0.0
H4436 H 0.96618 0.73645 0.76842 0.0
H4437 H 1.00735 0.91607 0.77037 0.0
H4438 H 0.03948 0.90768 0.76434 0.0
H4439 H 0.99536 0.89476 0.75976 0.0
H4440 H 0.09421 0.86452 0.74613 0.0
H4441 H 0.98857 0.83265 0.73475 0.0
H4442 H 0.06282 0.82857 0.76694 0.0
H4443 H 0.07416 0.87581 0.76731 0.0
H4444 H 0.1028 0.86303 0.76113 0.0
H4445 H 0.93437 0.79064 0.75298 0.0
H4446 H 0.93546 0.81478 0.74314 0.0
H4447 H 0.94476 0.83755 0.75358 0.0
C4448 C 0.18959 0.23042 0.74561 0.0
C4449 C 0.16824 0.20095 0.73993 0.0
C4450 C 0.19782 0.22417 0.75412 0.0
C4451 C 0.18448 0.18754 0.75709 0.0
C4452 C 0.16335 0.1577 0.75136 0.0
C4453 C 0.15551 0.16474 0.74289 0.0
C4454 C 0.22036 0.25682 0.76 0.0
C4455 C 0.14873 0.11823 0.75421 0.0
C4456 C 0.23013 0.17001 0.77668 0.0
C4457 C 0.20517 0.1644 0.78344 0.0
C4458 C 0.22398 0.1779 0.76812 0.0
C4459 C 0.19207 0.18033 0.76622 0.0
C4460 C 0.16701 0.17518 0.77303 0.0
C4461 C 0.17382 0.16729 0.78153 0.0
C4462 C 0.25138 0.18307 0.76108 0.0
C4463 C 0.13276 0.17772 0.77134 0.0
H4464 H 0.19919 0.25848 0.74347 0.0
H4465 H 0.13948 0.14175 0.73854 0.0
H4466 H 0.20382 0.25528 0.7658 0.0
H4467 H 0.24512 0.25618 0.76237 0.0
H4468 H 0.22952 0.28359 0.75666 0.0
H4469 H 0.13329 0.09814 0.74895 0.0
H4470 H 0.17189 0.11425 0.75632 0.0
H4471 H 0.13008 0.11193 0.75989 0.0
H4472 H 0.25417 0.16738 0.77802 0.0
H4473 H 0.15459 0.16354 0.7867 0.0
H4474 H 0.2618 0.21032 0.75789 0.0
H4475 H 0.23758 0.16165 0.75598 0.0
H4476 H 0.27532 0.18133 0.76364 0.0
H4477 H 0.1405 0.20506 0.7685 0.0
H4478 H 0.11638 0.17374 0.77735 0.0
H4479 H 0.11496 0.15647 0.76651 0.0
C4480 C 0.85363 0.06391 0.77566 0.0
C4481 C 0.86393 0.04827 0.78242 0.0
C4482 C 0.84477 0.0478 0.76732 0.0
C4483 C 0.846 0.01507 0.76566 0.0
C4484 C 0.85585 0.99885 0.77249 0.0
C4485 C 0.86474 0.01564 0.78076 0.0
C4486 C 0.83463 0.06613 0.76022 0.0
C4487 C 0.85723 0.96383 0.77106 0.0
C4488 C 0.79394 0.95506 0.74611 0.0
C4489 C 0.82249 0.96467 0.74003 0.0
C4490 C 0.80111 0.97135 0.75443 0.0
C4491 C 0.83771 0.99813 0.75676 0.0
C4492 C 0.86656 0.00829 0.75062 0.0
C4493 C 0.85864 0.99142 0.74237 0.0
C4494 C 0.76957 0.95951 0.76078 0.0
C4495 C 0.90591 0.03691 0.75279 0.0
H4496 H 0.8533 0.08931 0.77684 0.0
H4497 H 0.87214 1.00302 0.78596 0.0
H4498 H 0.85478 0.07441 0.75479 0.0
H4499 H 0.80703 0.0464 0.75753 0.0
H4500 H 0.83415 0.09101 0.76259 0.0
H4501 H 0.86455 0.95421 0.77708 0.0
H4502 H 0.83005 0.94157 0.7687 0.0
H4503 H 0.87791 0.96841 0.76595 0.0
H4504 H 0.766 0.93415 0.74441 0.0
H4505 H 0.88081 0.99943 0.73769 0.0
H4506 H 0.76767 0.98384 0.76294 0.0
H4507 H 0.77471 0.94735 0.76667 0.0
H4508 H 0.74261 0.93888 0.75793 0.0
H4509 H 0.90736 0.06323 0.75468 0.0
H4510 H 0.92506 0.04235 0.74725 0.0
H4511 H 0.91563 0.02757 0.75845 0.0
C4512 C 0.63327 0.52466 0.61105 0.0
C4513 C 0.64099 0.50275 0.61665 0.0
C4514 C 0.64783 0.53318 0.60254 0.0
C4515 C 0.67077 0.51955 0.59948 0.0
C4516 C 0.67904 0.49781 0.60512 0.0
C4517 C 0.66413 0.48972 0.6136 0.0
C4518 C 0.63822 0.5564 0.59676 0.0
C4519 C 0.70348 0.48283 0.60217 0.0
C4520 C 0.68046 0.51037 0.57496 0.0
C4521 C 0.71495 0.54152 0.57311 0.0
C4522 C 0.66568 0.50312 0.58345 0.0
C4523 C 0.68573 0.52755 0.59035 0.0
C4524 C 0.72034 0.55925 0.58852 0.0
C4525 C 0.73448 0.56582 0.57997 0.0
C4526 C 0.62864 0.46909 0.58507 0.0
C4527 C 0.74273 0.58602 0.59565 0.0
H4528 H 0.61508 0.53451 0.61325 0.0
H4529 H 0.6708 0.47326 0.61787 0.0
H4530 H 0.66381 0.58109 0.59446 0.0
H4531 H 0.62316 0.54033 0.59092 0.0
H4532 H 0.6208 0.56568 0.60016 0.0
H4533 H 0.70773 0.46681 0.60736 0.0
H4534 H 0.69104 0.46464 0.59643 0.0
H4535 H 0.73083 0.50585 0.60013 0.0
H4536 H 0.6648 0.49164 0.56973 0.0
H4537 H 0.76135 0.58968 0.57869 0.0
H4538 H 0.60923 0.47701 0.58794 0.0
H4539 H 0.63171 0.45083 0.58983 0.0
H4540 H 0.61621 0.45314 0.57901 0.0
H4541 H 0.72616 0.5966 0.5989 0.0
H4542 H 0.76865 0.60987 0.59315 0.0
H4543 H 0.74997 0.57163 0.60068 0.0
C4544 C 0.54878 0.16171 0.60963 0.0
C4545 C 0.52169 0.14765 0.61619 0.0
C4546 C 0.54086 0.16914 0.60121 0.0
C4547 C 0.50487 0.1623 0.59922 0.0
C4548 C 0.47723 0.14767 0.60577 0.0
C4549 C 0.48594 0.14053 0.61415 0.0
C4550 C 0.57117 0.1846 0.59444 0.0
C4551 C 0.43852 0.13998 0.60395 0.0
C4552 C 0.49542 0.21561 0.58016 0.0
C4553 C 0.48357 0.18958 0.57338 0.0
C4554 C 0.50202 0.20697 0.58859 0.0
C4555 C 0.49653 0.1713 0.59036 0.0
C4556 C 0.48407 0.1447 0.58359 0.0
C4557 C 0.47779 0.15413 0.5752 0.0
C4558 C 0.5152 0.23619 0.59559 0.0
C4559 C 0.47785 0.10636 0.58518 0.0
H4560 H 0.5763 0.1667 0.61105 0.0
H4561 H 0.46486 0.13001 0.61917 0.0
H4562 H 0.56263 0.16618 0.58867 0.0
H4563 H 0.57616 0.21195 0.5922 0.0
H4564 H 0.59755 0.18784 0.59697 0.0
H4565 H 0.41988 0.12758 0.60964 0.0
H4566 H 0.43918 0.16603 0.60217 0.0
H4567 H 0.42671 0.12093 0.59832 0.0
H4568 H 0.49934 0.24285 0.5789 0.0
H4569 H 0.46903 0.13387 0.57002 0.0
H4570 H 0.54265 0.24216 0.59801 0.0
H4571 H 0.49591 0.22603 0.60121 0.0
H4572 H 0.51748 0.26236 0.59322 0.0
H4573 H 0.50424 0.10802 0.58709 0.0
H4574 H 0.46688 0.08843 0.57933 0.0
H4575 H 0.45816 0.09312 0.59064 0.0
C4576 C 0.84421 0.33347 0.61601 0.0
C4577 C 0.86679 0.37184 0.61704 0.0
C4578 C 0.83518 0.31714 0.60768 0.0
C4579 C 0.84901 0.3396 0.60015 0.0
C4580 C 0.87196 0.37828 0.60114 0.0
C4581 C 0.88049 0.39387 0.60953 0.0
C4582 C 0.81071 0.2758 0.60694 0.0
C4583 C 0.88725 0.40332 0.5933 0.0
C4584 C 0.85221 0.29575 0.57855 0.0
C4585 C 0.82089 0.29195 0.57421 0.0
C4586 C 0.86158 0.31099 0.58698 0.0
C4587 C 0.83912 0.32277 0.59123 0.0
C4588 C 0.80741 0.31887 0.58691 0.0
C4589 C 0.79871 0.30358 0.57848 0.0
C4590 C 0.89572 0.31478 0.59131 0.0
C4591 C 0.78257 0.33086 0.5912 0.0
H4592 H 0.83381 0.31607 0.62173 0.0
H4593 H 0.89743 0.42357 0.6102 0.0
H4594 H 0.78543 0.26918 0.6032 0.0
H4595 H 0.82531 0.26392 0.60332 0.0
H4596 H 0.80236 0.26213 0.61341 0.0
H4597 H 0.90534 0.43271 0.59516 0.0
H4598 H 0.90339 0.39463 0.58919 0.0
H4599 H 0.86423 0.40109 0.58926 0.0
H4600 H 0.86981 0.2873 0.5753 0.0
H4601 H 0.77415 0.30028 0.57528 0.0
H4602 H 0.88828 0.29984 0.59762 0.0
H4603 H 0.91537 0.34428 0.59274 0.0
H4604 H 0.90997 0.3038 0.58721 0.0
H4605 H 0.7717 0.31579 0.59742 0.0
H4606 H 0.75886 0.32584 0.587 0.0
H4607 H 0.7986 0.36074 0.59277 0.0
C4608 C 0.74132 0.21323 0.08106 0.0
C4609 C 0.72186 0.19414 0.07356 0.0
C4610 C 0.72465 0.2044 0.08934 0.0
C4611 C 0.68751 0.17561 0.09023 0.0
C4612 C 0.66783 0.15585 0.08272 0.0
C4613 C 0.68517 0.16534 0.0745 0.0
C4614 C 0.74673 0.22617 0.09715 0.0
C4615 C 0.62822 0.12497 0.08335 0.0
C4616 C 0.65387 0.13336 0.11281 0.0
C4617 C 0.63531 0.15164 0.11571 0.0
C4618 C 0.67066 0.14061 0.10453 0.0
C4619 C 0.66904 0.16686 0.09898 0.0
C4620 C 0.65019 0.18523 0.10184 0.0
C4621 C 0.63356 0.17737 0.11013 0.0
C4622 C 0.69044 0.12038 0.10175 0.0
C4623 C 0.64769 0.21336 0.09615 0.0
H4624 H 0.76984 0.23507 0.08046 0.0
H4625 H 0.66963 0.15065 0.06877 0.0
H4626 H 0.73311 0.24025 0.10025 0.0
H4627 H 0.74771 0.20728 0.10208 0.0
H4628 H 0.77549 0.2473 0.09541 0.0
H4629 H 0.61711 0.11144 0.07696 0.0
H4630 H 0.62599 0.10378 0.08805 0.0
H4631 H 0.61063 0.1359 0.08584 0.0
H4632 H 0.65584 0.11377 0.11707 0.0
H4633 H 0.61878 0.19121 0.1122 0.0
H4634 H 0.72005 0.14045 0.10054 0.0
H4635 H 0.67863 0.10549 0.09555 0.0
H4636 H 0.68851 0.10017 0.10672 0.0
H4637 H 0.67584 0.2363 0.09461 0.0
H4638 H 0.63186 0.22508 0.0993 0.0
H4639 H 0.63418 0.20051 0.08988 0.0
C4640 C 0.87147 0.5265 0.11451 0.0
C4641 C 0.86961 0.49255 0.11617 0.0
C4642 C 0.86493 0.53565 0.10611 0.0
C4643 C 0.85632 0.51032 0.09915 0.0
C4644 C 0.85476 0.4762 0.10076 0.0
C4645 C 0.86143 0.46778 0.10921 0.0
C4646 C 0.86682 0.57229 0.1047 0.0
C4647 C 0.84585 0.4484 0.09356 0.0
C4648 C 0.80407 0.5162 0.07938 0.0
C4649 C 0.83235 0.53403 0.07318 0.0
C4650 C 0.81153 0.50861 0.08783 0.0
C4651 C 0.84823 0.5191 0.09023 0.0
C4652 C 0.87697 0.53733 0.08404 0.0
C4653 C 0.86872 0.54455 0.07562 0.0
C4654 C 0.78001 0.48922 0.09421 0.0
C4655 C 0.91646 0.54893 0.08629 0.0
H4656 H 0.87739 0.54573 0.11982 0.0
H4657 H 0.86057 0.44178 0.11035 0.0
H4658 H 0.8872 0.5881 0.09952 0.0
H4659 H 0.83959 0.56767 0.10246 0.0
H4660 H 0.87471 0.58933 0.11072 0.0
H4661 H 0.84617 0.42334 0.09584 0.0
H4662 H 0.81813 0.43989 0.09084 0.0
H4663 H 0.8661 0.4611 0.08818 0.0
H4664 H 0.77598 0.50851 0.07766 0.0
H4665 H 0.89078 0.55797 0.07088 0.0
H4666 H 0.78538 0.5065 0.10011 0.0
H4667 H 0.77784 0.46284 0.09633 0.0
H4668 H 0.7531 0.48319 0.09138 0.0
H4669 H 0.92543 0.56739 0.09206 0.0
H4670 H 0.93577 0.56354 0.08083 0.0
H4671 H 0.91859 0.52431 0.08804 0.0
C4672 C 0.5168 0.39526 0.10963 0.0
C4673 C 0.53284 0.38342 0.11597 0.0
C4674 C 0.50768 0.37893 0.10131 0.0
C4675 C 0.51453 0.34984 0.09924 0.0
C4676 C 0.53028 0.33745 0.10564 0.0
C4677 C 0.53928 0.35439 0.11389 0.0
C4678 C 0.49116 0.39317 0.09468 0.0
C4679 C 0.53778 0.30635 0.10376 0.0
C4680 C 0.46297 0.28551 0.08022 0.0
C4681 C 0.48987 0.29904 0.07362 0.0
C4682 C 0.4705 0.30184 0.08855 0.0
C4683 C 0.50575 0.33267 0.09035 0.0
C4684 C 0.53287 0.34672 0.08368 0.0
C4685 C 0.52466 0.32974 0.07543 0.0
C4686 C 0.44085 0.28577 0.09546 0.0
C4687 C 0.57069 0.37968 0.08528 0.0
H4688 H 0.51207 0.41791 0.11112 0.0
H4689 H 0.55114 0.34463 0.11876 0.0
H4690 H 0.50951 0.40392 0.0889 0.0
H4691 H 0.46415 0.37033 0.0924 0.0
H4692 H 0.48698 0.41554 0.09733 0.0
H4693 H 0.54949 0.29946 0.10948 0.0
H4694 H 0.51185 0.28125 0.10179 0.0
H4695 H 0.55745 0.31401 0.09825 0.0
H4696 H 0.43616 0.26158 0.07893 0.0
H4697 H 0.54548 0.34075 0.07036 0.0
H4698 H 0.43505 0.3073 0.09793 0.0
H4699 H 0.45058 0.27617 0.10107 0.0
H4700 H 0.41468 0.26217 0.093 0.0
H4701 H 0.56808 0.40362 0.08743 0.0
H4702 H 0.58845 0.38776 0.07938 0.0
H4703 H 0.58473 0.37341 0.09058 0.0
C4704 C 0.4148 0.86826 0.91483 0.0
C4705 C 0.39482 0.86776 0.90741 0.0
C4706 C 0.39912 0.86179 0.92322 0.0
C4707 C 0.36245 0.85469 0.9243 0.0
C4708 C 0.34222 0.85451 0.91687 0.0
C4709 C 0.35857 0.86101 0.90855 0.0
C4710 C 0.42179 0.86238 0.93093 0.0
C4711 C 0.30307 0.84703 0.91771 0.0
C4712 C 0.3096 0.80305 0.94474 0.0
C4713 C 0.31248 0.83174 0.95006 0.0
C4714 C 0.32561 0.81011 0.93638 0.0
C4715 C 0.3451 0.84682 0.93319 0.0
C4716 C 0.34815 0.87593 0.93851 0.0
C4717 C 0.33185 0.86808 0.94685 0.0
C4718 C 0.32152 0.77818 0.93094 0.0
C4719 C 0.36875 0.91547 0.93539 0.0
H4720 H 0.443 0.87405 0.91409 0.0
H4721 H 0.34262 0.86008 0.9029 0.0
H4722 H 0.42416 0.88331 0.93573 0.0
H4723 H 0.4078 0.83518 0.93426 0.0
H4724 H 0.45003 0.86875 0.92903 0.0
H4725 H 0.29133 0.8487 0.91135 0.0
H4726 H 0.28523 0.8191 0.9205 0.0
H4727 H 0.30211 0.86717 0.92225 0.0
H4728 H 0.29422 0.77481 0.94706 0.0
H4729 H 0.33468 0.89055 0.95091 0.0
H4730 H 0.34918 0.78238 0.92925 0.0
H4731 H 0.3073 0.77685 0.92474 0.0
H4732 H 0.3056 0.75127 0.93436 0.0
H4733 H 0.39789 0.92372 0.93394 0.0
H4734 H 0.36846 0.93495 0.94027 0.0
H4735 H 0.3563 0.91819 0.92926 0.0
C4736 C 0.14957 0.47444 0.9475 0.0
C4737 C 0.18568 0.4832 0.94972 0.0
C4738 C 0.14125 0.48249 0.93917 0.0
C4739 C 0.16964 0.49974 0.93286 0.0
C4740 C 0.20604 0.50836 0.93503 0.0
C4741 C 0.21358 0.49998 0.94339 0.0
C4742 C 0.10208 0.47284 0.93715 0.0
C4743 C 0.23717 0.5266 0.92852 0.0
C4744 C 0.1453 0.49403 0.90868 0.0
C4745 C 0.14896 0.52885 0.90713 0.0
C4746 C 0.1514 0.484 0.91702 0.0
C4747 C 0.16155 0.50935 0.92402 0.0
C4748 C 0.16491 0.54435 0.92253 0.0
C4749 C 0.15853 0.5536 0.91414 0.0
C4750 C 0.1475 0.44641 0.91831 0.0
C4751 C 0.17559 0.57223 0.92978 0.0
H4752 H 0.12784 0.46182 0.95234 0.0
H4753 H 0.24142 0.50629 0.94495 0.0
H4754 H 0.10125 0.49829 0.93553 0.0
H4755 H 0.09185 0.45454 0.93136 0.0
H4756 H 0.08298 0.45879 0.94268 0.0
H4757 H 0.26388 0.53124 0.93118 0.0
H4758 H 0.23049 0.50927 0.92258 0.0
H4759 H 0.24059 0.55362 0.92649 0.0
H4760 H 0.13837 0.47478 0.90333 0.0
H4761 H 0.16081 0.5803 0.91309 0.0
H4762 H 0.12738 0.43136 0.92359 0.0
H4763 H 0.17439 0.44953 0.92034 0.0
H4764 H 0.13819 0.42937 0.9123 0.0
H4765 H 0.15567 0.56018 0.93525 0.0
H4766 H 0.17641 0.59798 0.92761 0.0
H4767 H 0.20321 0.57947 0.93235 0.0
C4768 C 0.52184 0.65308 0.90905 0.0
C4769 C 0.4867 0.62261 0.90735 0.0
C4770 C 0.53142 0.66922 0.9174 0.0
C4771 C 0.5053 0.65476 0.92428 0.0
C4772 C 0.46991 0.62389 0.92263 0.0
C4773 C 0.46111 0.60822 0.91424 0.0
C4774 C 0.56945 0.70208 0.91884 0.0
C4775 C 0.44117 0.60747 0.92974 0.0
C4776 C 0.53873 0.67666 0.94789 0.0
C4777 C 0.53141 0.7051 0.95001 0.0
C4778 C 0.53058 0.66019 0.93957 0.0
C4779 C 0.51465 0.67232 0.93314 0.0
C4780 C 0.50731 0.70107 0.93522 0.0
C4781 C 0.51578 0.71706 0.94358 0.0
C4782 C 0.53883 0.62962 0.93766 0.0
C4783 C 0.49047 0.715 0.9286 0.0
H4784 H 0.54176 0.66483 0.9038 0.0
H4785 H 0.43412 0.58434 0.91309 0.0
H4786 H 0.56712 0.72634 0.92083 0.0
H4787 H 0.58357 0.69622 0.9242 0.0
H4788 H 0.58697 0.70946 0.9129 0.0
H4789 H 0.41508 0.58324 0.92745 0.0
H4790 H 0.45203 0.59875 0.93529 0.0
H4791 H 0.43482 0.6286 0.93224 0.0
H4792 H 0.55039 0.66683 0.9528 0.0
H4793 H 0.51057 0.73941 0.94505 0.0
H4794 H 0.55771 0.63719 0.93199 0.0
H4795 H 0.51296 0.60399 0.93592 0.0
H4796 H 0.55172 0.62368 0.94329 0.0
H4797 H 0.50843 0.72536 0.92275 0.0
H4798 H 0.4865 0.73756 0.93121 0.0
H4799 H 0.46329 0.69204 0.92644 0.0
C4800 C 0.3286 0.46315 0.44817 0.0
C4801 C 0.30256 0.4736 0.45048 0.0
C4802 C 0.34374 0.46937 0.43971 0.0
C4803 C 0.33263 0.48644 0.43335 0.0
C4804 C 0.30611 0.49671 0.43561 0.0
C4805 C 0.29144 0.49018 0.4441 0.0
C4806 C 0.37198 0.45805 0.43761 0.0
C4807 C 0.29331 0.51484 0.42905 0.0
C4808 C 0.39617 0.53663 0.41411 0.0
C4809 C 0.3797 0.51111 0.40729 0.0
C4810 C 0.38145 0.52877 0.4226 0.0
C4811 C 0.34935 0.49446 0.42439 0.0
C4812 C 0.33282 0.46835 0.41758 0.0
C4813 C 0.34818 0.47693 0.40913 0.0
C4814 C 0.40015 0.55738 0.42965 0.0
C4815 C 0.29855 0.4315 0.41917 0.0
H4816 H 0.33772 0.45067 0.45303 0.0
H4817 H 0.27087 0.49776 0.44572 0.0
H4818 H 0.36267 0.43904 0.43194 0.0
H4819 H 0.39855 0.48272 0.43577 0.0
H4820 H 0.37698 0.44418 0.44318 0.0
H4821 H 0.27206 0.52061 0.43177 0.0
H4822 H 0.31716 0.54125 0.4268 0.0
H4823 H 0.28163 0.49685 0.42325 0.0
H4824 H 0.42089 0.56283 0.41283 0.0
H4825 H 0.33499 0.45711 0.40392 0.0
H4826 H 0.40798 0.54547 0.43515 0.0
H4827 H 0.38072 0.56586 0.43225 0.0
H4828 H 0.42534 0.58238 0.42726 0.0
H4829 H 0.30358 0.4166 0.42449 0.0
H4830 H 0.28964 0.41376 0.41327 0.0
H4831 H 0.2756 0.4358 0.4213 0.0
C4832 C 0.45563 0.85206 0.41475 0.0
C4833 C 0.48154 0.86323 0.40794 0.0
C4834 C 0.46411 0.84537 0.42319 0.0
C4835 C 0.4995 0.85007 0.42496 0.0
C4836 C 0.52597 0.86178 0.41816 0.0
C4837 C 0.51669 0.86813 0.40976 0.0
C4838 C 0.43503 0.83298 0.43023 0.0
C4839 C 0.56401 0.86717 0.41973 0.0
C4840 C 0.53156 0.8616 0.44867 0.0
C4841 C 0.52425 0.82588 0.45081 0.0
C4842 C 0.52389 0.86993 0.4403 0.0
C4843 C 0.50846 0.84192 0.43386 0.0
C4844 C 0.50117 0.80588 0.43596 0.0
C4845 C 0.50917 0.79835 0.44436 0.0
C4846 C 0.53209 0.90871 0.43836 0.0
C4847 C 0.48484 0.77516 0.42931 0.0
H4848 H 0.42863 0.84878 0.41351 0.0
H4849 H 0.53685 0.8763 0.40456 0.0
H4850 H 0.42865 0.80552 0.43274 0.0
H4851 H 0.44557 0.85254 0.43578 0.0
H4852 H 0.40902 0.83105 0.42785 0.0
H4853 H 0.58185 0.87746 0.41385 0.0
H4854 H 0.57775 0.88711 0.42512 0.0
H4855 H 0.56176 0.84063 0.42174 0.0
H4856 H 0.54281 0.88304 0.45359 0.0
H4857 H 0.50401 0.77082 0.44585 0.0
H4858 H 0.50624 0.90838 0.43653 0.0
H4859 H 0.55121 0.92007 0.43273 0.0
H4860 H 0.54467 0.92753 0.444 0.0
H4861 H 0.45771 0.77081 0.42707 0.0
H4862 H 0.48088 0.74867 0.43195 0.0
H4863 H 0.50312 0.78288 0.42352 0.0
C4864 C 0.17039 0.71665 0.44229 0.0
C4865 C 0.18096 0.70089 0.44898 0.0
C4866 C 0.16197 0.70117 0.43388 0.0
C4867 C 0.16405 0.66901 0.43206 0.0
C4868 C 0.17411 0.65262 0.43881 0.0
C4869 C 0.18244 0.66872 0.44715 0.0
C4870 C 0.15151 0.71964 0.42688 0.0
C4871 C 0.17645 0.61822 0.43719 0.0
C4872 C 0.11411 0.61038 0.41213 0.0
C4873 C 0.14312 0.62131 0.40612 0.0
C4874 C 0.12042 0.62579 0.42055 0.0
C4875 C 0.15661 0.65299 0.42305 0.0
C4876 C 0.18591 0.66449 0.41698 0.0
C4877 C 0.17885 0.64853 0.40862 0.0
C4878 C 0.0884 0.61258 0.42681 0.0
C4879 C 0.22486 0.69358 0.41933 0.0
H4880 H 0.16958 0.74173 0.44358 0.0
H4881 H 0.19003 0.65596 0.45228 0.0
H4882 H 0.17209 0.7291 0.42153 0.0
H4883 H 0.12433 0.69963 0.42404 0.0
H4884 H 0.15 0.74378 0.4294 0.0
H4885 H 0.18371 0.60828 0.44317 0.0
H4886 H 0.14964 0.59582 0.43469 0.0
H4887 H 0.19759 0.62379 0.43214 0.0
H4888 H 0.0865 0.58911 0.41031 0.0
H4889 H 0.20138 0.65761 0.40401 0.0
H4890 H 0.08572 0.63628 0.42911 0.0
H4891 H 0.09356 0.60003 0.43262 0.0
H4892 H 0.06181 0.59186 0.42382 0.0
H4893 H 0.22548 0.71936 0.42135 0.0
H4894 H 0.24446 0.70003 0.41383 0.0
H4895 H 0.23464 0.68407 0.42495 0.0
loop_
_geom_bond_atom_site_label_1
_geom_bond_atom_site_label_2
_geom_bond_distance
_geom_bond_site_symmetry_2
_ccdc_geom_bond_type
Sm0 C2 2.846 . S
Sm0 O20 2.543 . S
Sm0 O21 2.450 . S
Sm0 O22 2.681 . S
Sm0 O23 2.464 . S
Sm0 O24 2.396 . S
Sm0 O28 2.386 . S
Sm0 O31 2.408 . S
Sm1 C11 2.846 . S
Sm1 O22 2.386 . S
Sm1 O25 2.408 . S
Sm1 O26 2.543 . S
Sm1 O27 2.450 . S
Sm1 O28 2.681 . S
Sm1 O29 2.464 . S
Sm1 O30 2.396 . S
C2 Sm0 2.846 . S
C2 C3 1.506 . S
C2 O20 1.261 . S
C2 O21 1.242 . S
C3 C2 1.506 . S
C3 C4 1.358 . S
C3 C8 1.382 . S
C4 C3 1.358 . S
C4 C5 1.385 . S
C4 H32 0.930 . S
C5 C4 1.385 . S
C5 C6 1.395 . S
C5 H33 0.929 . S
C6 C5 1.395 . S
C6 C7 1.335 . S
C7 C6 1.335 . S
C7 C8 1.398 . S
C7 H34 0.930 . S
C8 C3 1.382 . S
C8 C7 1.398 . S
C8 H35 0.929 . S
C9 O22 1.271 . S
C9 O23 1.251 . S
C10 O24 1.252 . S
C10 O25 1.272 . S
C11 Sm1 2.846 . S
C11 C12 1.506 . S
C11 O26 1.261 . S
C11 O27 1.242 . S
C12 C11 1.506 . S
C12 C13 1.358 . S
C12 C17 1.382 . S
C13 C12 1.358 . S
C13 C14 1.385 . S
C13 H36 0.930 . S
C14 C13 1.385 . S
C14 C15 1.395 . S
C14 H37 0.929 . S
C15 C14 1.395 . S
C15 C16 1.335 . S
C16 C15 1.335 . S
C16 C17 1.398 . S
C16 H38 0.930 . S
C17 C12 1.382 . S
C17 C16 1.398 . S
C17 H39 0.929 . S
C18 O28 1.271 . S
C18 O29 1.251 . S
C19 O30 1.252 . S
C19 O31 1.272 . S
O20 Sm0 2.543 . S
O20 C2 1.261 . S
O21 Sm0 2.450 . S
O21 C2 1.242 . S
O22 Sm0 2.681 . S
O22 Sm1 2.386 . S
O22 C9 1.271 . S
O23 Sm0 2.464 . S
O23 C9 1.251 . S
O24 Sm0 2.396 . S
O24 C10 1.252 . S
O25 Sm1 2.408 . S
O25 C10 1.272 . S
O26 Sm1 2.543 . S
O26 C11 1.261 . S
O27 Sm1 2.450 . S
O27 C11 1.242 . S
O28 Sm0 2.386 . S
O28 Sm1 2.681 . S
O28 C18 1.271 . S
O29 Sm1 2.464 . S
O29 C18 1.251 . S
O30 Sm1 2.396 . S
O30 C19 1.252 . S
O31 Sm0 2.408 . S
O31 C19 1.272 . S
H32 C4 0.930 . S
H33 C5 0.929 . S
H34 C7 0.930 . S
H35 C8 0.929 . S
H36 C13 0.930 . S
H37 C14 0.929 . S
H38 C16 0.930 . S
H39 C17 0.929 . S
Sm40 C42 2.846 . S
Sm40 O60 2.543 . S
Sm40 O61 2.450 . S
Sm40 O62 2.681 . S
Sm40 O63 2.464 . S
Sm40 O64 2.396 . S
Sm40 O68 2.386 . S
Sm40 O71 2.408 . S
Sm41 C51 2.846 . S
Sm41 O62 2.386 . S
Sm41 O65 2.408 . S
Sm41 O66 2.543 . S
Sm41 O67 2.450 . S
Sm41 O68 2.681 . S
Sm41 O69 2.464 . S
Sm41 O70 2.396 . S
C42 Sm40 2.846 . S
C42 C43 1.506 . S
C42 O60 1.261 . S
C42 O61 1.242 . S
C43 C42 1.506 . S
C43 C44 1.358 . S
C43 C48 1.382 . S
C44 C43 1.358 . S
C44 C45 1.385 . S
C44 H72 0.930 . S
C45 C44 1.385 . S
C45 C46 1.395 . S
C45 H73 0.929 . S
C46 C45 1.395 . S
C46 C47 1.335 . S
C47 C46 1.335 . S
C47 C48 1.398 . S
C47 H74 0.930 . S
C48 C43 1.382 . S
C48 C47 1.398 . S
C48 H75 0.929 . S
C49 O62 1.271 . S
C49 O63 1.251 . S
C50 O64 1.252 . S
C50 O65 1.272 . S
C51 Sm41 2.846 . S
C51 C52 1.506 . S
C51 O66 1.261 . S
C51 O67 1.242 . S
C52 C51 1.506 . S
C52 C53 1.358 . S
C52 C57 1.382 . S
C53 C52 1.358 . S
C53 C54 1.385 . S
C53 H76 0.930 . S
C54 C53 1.385 . S
C54 C55 1.395 . S
C54 H77 0.929 . S
C55 C54 1.395 . S
C55 C56 1.335 . S
C56 C55 1.335 . S
C56 C57 1.398 . S
C56 H78 0.930 . S
C57 C52 1.382 . S
C57 C56 1.398 . S
C57 H79 0.929 . S
C58 O68 1.271 . S
C58 O69 1.251 . S
C59 O70 1.252 . S
C59 O71 1.272 . S
O60 Sm40 2.543 . S
O60 C42 1.261 . S
O61 Sm40 2.450 . S
O61 C42 1.242 . S
O62 Sm40 2.681 . S
O62 Sm41 2.386 . S
O62 C49 1.271 . S
O63 Sm40 2.464 . S
O63 C49 1.251 . S
O64 Sm40 2.396 . S
O64 C50 1.252 . S
O65 Sm41 2.408 . S
O65 C50 1.272 . S
O66 Sm41 2.543 . S
O66 C51 1.261 . S
O67 Sm41 2.450 . S
O67 C51 1.242 . S
O68 Sm40 2.386 . S
O68 Sm41 2.681 . S
O68 C58 1.271 . S
O69 Sm41 2.464 . S
O69 C58 1.251 . S
O70 Sm41 2.396 . S
O70 C59 1.252 . S
O71 Sm40 2.408 . S
O71 C59 1.272 . S
H72 C44 0.930 . S
H73 C45 0.929 . S
H74 C47 0.930 . S
H75 C48 0.929 . S
H76 C53 0.930 . S
H77 C54 0.929 . S
H78 C56 0.930 . S
H79 C57 0.929 . S
Sm80 C82 2.846 . S
Sm80 O100 2.543 . S
Sm80 O101 2.450 . S
Sm80 O102 2.681 . S
Sm80 O103 2.464 . S
Sm80 O104 2.396 . S
Sm80 O108 2.386 . S
Sm80 O111 2.408 . S
Sm81 C91 2.846 . S
Sm81 O102 2.386 . S
Sm81 O105 2.408 . S
Sm81 O106 2.543 . S
Sm81 O107 2.450 . S
Sm81 O108 2.681 . S
Sm81 O109 2.464 . S
Sm81 O110 2.396 . S
C82 Sm80 2.846 . S
C82 C83 1.506 . S
C82 O100 1.261 . S
C82 O101 1.242 . S
C83 C82 1.506 . S
C83 C84 1.358 . S
C83 C88 1.382 . S
C84 C83 1.358 . S
C84 C85 1.385 . S
C84 H112 0.930 . S
C85 C84 1.385 . S
C85 C86 1.395 . S
C85 H113 0.929 . S
C86 C85 1.395 . S
C86 C87 1.335 . S
C87 C86 1.335 . S
C87 C88 1.398 . S
C87 H114 0.930 . S
C88 C83 1.382 . S
C88 C87 1.398 . S
C88 H115 0.929 . S
C89 O102 1.271 . S
C89 O103 1.251 . S
C90 O104 1.252 . S
C90 O105 1.272 . S
C91 Sm81 2.846 . S
C91 C92 1.506 . S
C91 O106 1.261 . S
C91 O107 1.242 . S
C92 C91 1.506 . S
C92 C93 1.358 . S
C92 C97 1.382 . S
C93 C92 1.358 . S
C93 C94 1.385 . S
C93 H116 0.930 . S
C94 C93 1.385 . S
C94 C95 1.395 . S
C94 H117 0.929 . S
C95 C94 1.395 . S
C95 C96 1.335 . S
C96 C95 1.335 . S
C96 C97 1.398 . S
C96 H118 0.930 . S
C97 C92 1.382 . S
C97 C96 1.398 . S
C97 H119 0.929 . S
C98 O108 1.271 . S
C98 O109 1.251 . S
C99 O110 1.252 . S
C99 O111 1.272 . S
O100 Sm80 2.543 . S
O100 C82 1.261 . S
O101 Sm80 2.450 . S
O101 C82 1.242 . S
O102 Sm80 2.681 . S
O102 Sm81 2.386 . S
O102 C89 1.271 . S
O103 Sm80 2.464 . S
O103 C89 1.251 . S
O104 Sm80 2.396 . S
O104 C90 1.252 . S
O105 Sm81 2.408 . S
O105 C90 1.272 . S
O106 Sm81 2.543 . S
O106 C91 1.261 . S
O107 Sm81 2.450 . S
O107 C91 1.242 . S
O108 Sm80 2.386 . S
O108 Sm81 2.681 . S
O108 C98 1.271 . S
O109 Sm81 2.464 . S
O109 C98 1.251 . S
O110 Sm81 2.396 . S
O110 C99 1.252 . S
O111 Sm80 2.408 . S
O111 C99 1.272 . S
H112 C84 0.930 . S
H113 C85 0.929 . S
H114 C87 0.930 . S
H115 C88 0.929 . S
H116 C93 0.930 . S
H117 C94 0.929 . S
H118 C96 0.930 . S
H119 C97 0.929 . S
Sm120 C122 2.846 . S
Sm120 O140 2.543 . S
Sm120 O141 2.450 . S
Sm120 O142 2.681 . S
Sm120 O143 2.464 . S
Sm120 O144 2.396 . S
Sm120 O148 2.386 . S
Sm120 O151 2.408 . S
Sm121 C131 2.846 . S
Sm121 O142 2.386 . S
Sm121 O145 2.408 . S
Sm121 O146 2.543 . S
Sm121 O147 2.450 . S
Sm121 O148 2.681 . S
Sm121 O149 2.464 . S
Sm121 O150 2.396 . S
C122 Sm120 2.846 . S
C122 C123 1.506 . S
C122 O140 1.261 . S
C122 O141 1.242 . S
C123 C122 1.506 . S
C123 C124 1.358 . S
C123 C128 1.382 . S
C124 C123 1.358 . S
C124 C125 1.385 . S
C124 H152 0.930 . S
C125 C124 1.385 . S
C125 C126 1.395 . S
C125 H153 0.929 . S
C126 C125 1.395 . S
C126 C127 1.335 . S
C127 C126 1.335 . S
C127 C128 1.398 . S
C127 H154 0.930 . S
C128 C123 1.382 . S
C128 C127 1.398 . S
C128 H155 0.929 . S
C129 O142 1.271 . S
C129 O143 1.251 . S
C130 O144 1.252 . S
C130 O145 1.272 . S
C131 Sm121 2.846 . S
C131 C132 1.506 . S
C131 O146 1.261 . S
C131 O147 1.242 . S
C132 C131 1.506 . S
C132 C133 1.358 . S
C132 C137 1.382 . S
C133 C132 1.358 . S
C133 C134 1.385 . S
C133 H156 0.930 . S
C134 C133 1.385 . S
C134 C135 1.395 . S
C134 H157 0.929 . S
C135 C134 1.395 . S
C135 C136 1.335 . S
C136 C135 1.335 . S
C136 C137 1.398 . S
C136 H158 0.930 . S
C137 C132 1.382 . S
C137 C136 1.398 . S
C137 H159 0.929 . S
C138 O148 1.271 . S
C138 O149 1.251 . S
C139 O150 1.252 . S
C139 O151 1.272 . S
O140 Sm120 2.543 . S
O140 C122 1.261 . S
O141 Sm120 2.450 . S
O141 C122 1.242 . S
O142 Sm120 2.681 . S
O142 Sm121 2.386 . S
O142 C129 1.271 . S
O143 Sm120 2.464 . S
O143 C129 1.251 . S
O144 Sm120 2.396 . S
O144 C130 1.252 . S
O145 Sm121 2.408 . S
O145 C130 1.272 . S
O146 Sm121 2.543 . S
O146 C131 1.261 . S
O147 Sm121 2.450 . S
O147 C131 1.242 . S
O148 Sm120 2.386 . S
O148 Sm121 2.681 . S
O148 C138 1.271 . S
O149 Sm121 2.464 . S
O149 C138 1.251 . S
O150 Sm121 2.396 . S
O150 C139 1.252 . S
O151 Sm120 2.408 . S
O151 C139 1.272 . S
H152 C124 0.930 . S
H153 C125 0.929 . S
H154 C127 0.930 . S
H155 C128 0.929 . S
H156 C133 0.930 . S
H157 C134 0.929 . S
H158 C136 0.930 . S
H159 C137 0.929 . S
Sm160 C162 2.846 . S
Sm160 O180 2.543 . S
Sm160 O181 2.450 . S
Sm160 O182 2.681 . S
Sm160 O183 2.464 . S
Sm160 O184 2.396 . S
Sm160 O188 2.386 . S
Sm160 O191 2.408 . S
Sm161 C171 2.846 . S
Sm161 O182 2.386 . S
Sm161 O185 2.408 . S
Sm161 O186 2.543 . S
Sm161 O187 2.450 . S
Sm161 O188 2.681 . S
Sm161 O189 2.464 . S
Sm161 O190 2.396 . S
C162 Sm160 2.846 . S
C162 C163 1.506 . S
C162 O180 1.261 . S
C162 O181 1.242 . S
C163 C162 1.506 . S
C163 C164 1.358 . S
C163 C168 1.382 . S
C164 C163 1.358 . S
C164 C165 1.385 . S
C164 H192 0.930 . S
C165 C164 1.385 . S
C165 C166 1.395 . S
C165 H193 0.929 . S
C166 C165 1.395 . S
C166 C167 1.335 . S
C167 C166 1.335 . S
C167 C168 1.398 . S
C167 H194 0.930 . S
C168 C163 1.382 . S
C168 C167 1.398 . S
C168 H195 0.929 . S
C169 O182 1.271 . S
C169 O183 1.251 . S
C170 O184 1.252 . S
C170 O185 1.272 . S
C171 Sm161 2.846 . S
C171 C172 1.506 . S
C171 O186 1.261 . S
C171 O187 1.242 . S
C172 C171 1.506 . S
C172 C173 1.358 . S
C172 C177 1.382 . S
C173 C172 1.358 . S
C173 C174 1.385 . S
C173 H196 0.930 . S
C174 C173 1.385 . S
C174 C175 1.395 . S
C174 H197 0.929 . S
C175 C174 1.395 . S
C175 C176 1.335 . S
C176 C175 1.335 . S
C176 C177 1.398 . S
C176 H198 0.930 . S
C177 C172 1.382 . S
C177 C176 1.398 . S
C177 H199 0.929 . S
C178 O188 1.271 . S
C178 O189 1.251 . S
C179 O190 1.252 . S
C179 O191 1.272 . S
O180 Sm160 2.543 . S
O180 C162 1.261 . S
O181 Sm160 2.450 . S
O181 C162 1.242 . S
O182 Sm160 2.681 . S
O182 Sm161 2.386 . S
O182 C169 1.271 . S
O183 Sm160 2.464 . S
O183 C169 1.251 . S
O184 Sm160 2.396 . S
O184 C170 1.252 . S
O185 Sm161 2.408 . S
O185 C170 1.272 . S
O186 Sm161 2.543 . S
O186 C171 1.261 . S
O187 Sm161 2.450 . S
O187 C171 1.242 . S
O188 Sm160 2.386 . S
O188 Sm161 2.681 . S
O188 C178 1.271 . S
O189 Sm161 2.464 . S
O189 C178 1.251 . S
O190 Sm161 2.396 . S
O190 C179 1.252 . S
O191 Sm160 2.408 . S
O191 C179 1.272 . S
H192 C164 0.930 . S
H193 C165 0.929 . S
H194 C167 0.930 . S
H195 C168 0.929 . S
H196 C173 0.930 . S
H197 C174 0.929 . S
H198 C176 0.930 . S
H199 C177 0.929 . S
Sm200 C202 2.846 . S
Sm200 O220 2.543 . S
Sm200 O221 2.450 . S
Sm200 O222 2.681 . S
Sm200 O223 2.464 . S
Sm200 O224 2.396 . S
Sm200 O228 2.386 . S
Sm200 O231 2.408 . S
Sm201 C211 2.846 . S
Sm201 O222 2.386 . S
Sm201 O225 2.408 . S
Sm201 O226 2.543 . S
Sm201 O227 2.450 . S
Sm201 O228 2.681 . S
Sm201 O229 2.464 . S
Sm201 O230 2.396 . S
C202 Sm200 2.846 . S
C202 C203 1.506 . S
C202 O220 1.261 . S
C202 O221 1.242 . S
C203 C202 1.506 . S
C203 C204 1.358 . S
C203 C208 1.382 . S
C204 C203 1.358 . S
C204 C205 1.385 . S
C204 H232 0.930 . S
C205 C204 1.385 . S
C205 C206 1.395 . S
C205 H233 0.929 . S
C206 C205 1.395 . S
C206 C207 1.335 . S
C207 C206 1.335 . S
C207 C208 1.398 . S
C207 H234 0.930 . S
C208 C203 1.382 . S
C208 C207 1.398 . S
C208 H235 0.929 . S
C209 O222 1.271 . S
C209 O223 1.251 . S
C210 O224 1.252 . S
C210 O225 1.272 . S
C211 Sm201 2.846 . S
C211 C212 1.506 . S
C211 O226 1.261 . S
C211 O227 1.242 . S
C212 C211 1.506 . S
C212 C213 1.358 . S
C212 C217 1.382 . S
C213 C212 1.358 . S
C213 C214 1.385 . S
C213 H236 0.930 . S
C214 C213 1.385 . S
C214 C215 1.395 . S
C214 H237 0.929 . S
C215 C214 1.395 . S
C215 C216 1.335 . S
C216 C215 1.335 . S
C216 C217 1.398 . S
C216 H238 0.930 . S
C217 C212 1.382 . S
C217 C216 1.398 . S
C217 H239 0.929 . S
C218 O228 1.271 . S
C218 O229 1.251 . S
C219 O230 1.252 . S
C219 O231 1.272 . S
O220 Sm200 2.543 . S
O220 C202 1.261 . S
O221 Sm200 2.450 . S
O221 C202 1.242 . S
O222 Sm200 2.681 . S
O222 Sm201 2.386 . S
O222 C209 1.271 . S
O223 Sm200 2.464 . S
O223 C209 1.251 . S
O224 Sm200 2.396 . S
O224 C210 1.252 . S
O225 Sm201 2.408 . S
O225 C210 1.272 . S
O226 Sm201 2.543 . S
O226 C211 1.261 . S
O227 Sm201 2.450 . S
O227 C211 1.242 . S
O228 Sm200 2.386 . S
O228 Sm201 2.681 . S
O228 C218 1.271 . S
O229 Sm201 2.464 . S
O229 C218 1.251 . S
O230 Sm201 2.396 . S
O230 C219 1.252 . S
O231 Sm200 2.408 . S
O231 C219 1.272 . S
H232 C204 0.930 . S
H233 C205 0.929 . S
H234 C207 0.930 . S
H235 C208 0.929 . S
H236 C213 0.930 . S
H237 C214 0.929 . S
H238 C216 0.930 . S
H239 C217 0.929 . S
Sm240 C242 2.846 . S
Sm240 O260 2.543 . S
Sm240 O261 2.450 . S
Sm240 O262 2.681 . S
Sm240 O263 2.464 . S
Sm240 O264 2.396 . S
Sm240 O268 2.386 . S
Sm240 O271 2.408 . S
Sm241 C251 2.846 . S
Sm241 O262 2.386 . S
Sm241 O265 2.408 . S
Sm241 O266 2.543 . S
Sm241 O267 2.450 . S
Sm241 O268 2.681 . S
Sm241 O269 2.464 . S
Sm241 O270 2.396 . S
C242 Sm240 2.846 . S
C242 C243 1.506 . S
C242 O260 1.261 . S
C242 O261 1.242 . S
C243 C242 1.506 . S
C243 C244 1.358 . S
C243 C248 1.382 . S
C244 C243 1.358 . S
C244 C245 1.385 . S
C244 H272 0.930 . S
C245 C244 1.385 . S
C245 C246 1.395 . S
C245 H273 0.929 . S
C246 C245 1.395 . S
C246 C247 1.335 . S
C247 C246 1.335 . S
C247 C248 1.398 . S
C247 H274 0.930 . S
C248 C243 1.382 . S
C248 C247 1.398 . S
C248 H275 0.929 . S
C249 O262 1.271 . S
C249 O263 1.251 . S
C250 O264 1.252 . S
C250 O265 1.272 . S
C251 Sm241 2.846 . S
C251 C252 1.506 . S
C251 O266 1.261 . S
C251 O267 1.242 . S
C252 C251 1.506 . S
C252 C253 1.358 . S
C252 C257 1.382 . S
C253 C252 1.358 . S
C253 C254 1.385 . S
C253 H276 0.930 . S
C254 C253 1.385 . S
C254 C255 1.395 . S
C254 H277 0.929 . S
C255 C254 1.395 . S
C255 C256 1.335 . S
C256 C255 1.335 . S
C256 C257 1.398 . S
C256 H278 0.930 . S
C257 C252 1.382 . S
C257 C256 1.398 . S
C257 H279 0.929 . S
C258 O268 1.271 . S
C258 O269 1.251 . S
C259 O270 1.252 . S
C259 O271 1.272 . S
O260 Sm240 2.543 . S
O260 C242 1.261 . S
O261 Sm240 2.450 . S
O261 C242 1.242 . S
O262 Sm240 2.681 . S
O262 Sm241 2.386 . S
O262 C249 1.271 . S
O263 Sm240 2.464 . S
O263 C249 1.251 . S
O264 Sm240 2.396 . S
O264 C250 1.252 . S
O265 Sm241 2.408 . S
O265 C250 1.272 . S
O266 Sm241 2.543 . S
O266 C251 1.261 . S
O267 Sm241 2.450 . S
O267 C251 1.242 . S
O268 Sm240 2.386 . S
O268 Sm241 2.681 . S
O268 C258 1.271 . S
O269 Sm241 2.464 . S
O269 C258 1.251 . S
O270 Sm241 2.396 . S
O270 C259 1.252 . S
O271 Sm240 2.408 . S
O271 C259 1.272 . S
H272 C244 0.930 . S
H273 C245 0.929 . S
H274 C247 0.930 . S
H275 C248 0.929 . S
H276 C253 0.930 . S
H277 C254 0.929 . S
H278 C256 0.930 . S
H279 C257 0.929 . S
Sm280 C282 2.846 . S
Sm280 O300 2.543 . S
Sm280 O301 2.450 . S
Sm280 O302 2.681 . S
Sm280 O303 2.464 . S
Sm280 O304 2.396 . S
Sm280 O308 2.386 . S
Sm280 O311 2.408 . S
Sm281 C291 2.846 . S
Sm281 O302 2.386 . S
Sm281 O305 2.408 . S
Sm281 O306 2.543 . S
Sm281 O307 2.450 . S
Sm281 O308 2.681 . S
Sm281 O309 2.464 . S
Sm281 O310 2.396 . S
C282 Sm280 2.846 . S
C282 C283 1.506 . S
C282 O300 1.261 . S
C282 O301 1.242 . S
C283 C282 1.506 . S
C283 C284 1.358 . S
C283 C288 1.382 . S
C284 C283 1.358 . S
C284 C285 1.385 . S
C284 H312 0.930 . S
C285 C284 1.385 . S
C285 C286 1.395 . S
C285 H313 0.929 . S
C286 C285 1.395 . S
C286 C287 1.335 . S
C287 C286 1.335 . S
C287 C288 1.398 . S
C287 H314 0.930 . S
C288 C283 1.382 . S
C288 C287 1.398 . S
C288 H315 0.929 . S
C289 O302 1.271 . S
C289 O303 1.251 . S
C290 O304 1.252 . S
C290 O305 1.272 . S
C291 Sm281 2.846 . S
C291 C292 1.506 . S
C291 O306 1.261 . S
C291 O307 1.242 . S
C292 C291 1.506 . S
C292 C293 1.358 . S
C292 C297 1.382 . S
C293 C292 1.358 . S
C293 C294 1.385 . S
C293 H316 0.930 . S
C294 C293 1.385 . S
C294 C295 1.395 . S
C294 H317 0.929 . S
C295 C294 1.395 . S
C295 C296 1.335 . S
C296 C295 1.335 . S
C296 C297 1.398 . S
C296 H318 0.930 . S
C297 C292 1.382 . S
C297 C296 1.398 . S
C297 H319 0.929 . S
C298 O308 1.271 . S
C298 O309 1.251 . S
C299 O310 1.252 . S
C299 O311 1.272 . S
O300 Sm280 2.543 . S
O300 C282 1.261 . S
O301 Sm280 2.450 . S
O301 C282 1.242 . S
O302 Sm280 2.681 . S
O302 Sm281 2.386 . S
O302 C289 1.271 . S
O303 Sm280 2.464 . S
O303 C289 1.251 . S
O304 Sm280 2.396 . S
O304 C290 1.252 . S
O305 Sm281 2.408 . S
O305 C290 1.272 . S
O306 Sm281 2.543 . S
O306 C291 1.261 . S
O307 Sm281 2.450 . S
O307 C291 1.242 . S
O308 Sm280 2.386 . S
O308 Sm281 2.681 . S
O308 C298 1.271 . S
O309 Sm281 2.464 . S
O309 C298 1.251 . S
O310 Sm281 2.396 . S
O310 C299 1.252 . S
O311 Sm280 2.408 . S
O311 C299 1.272 . S
H312 C284 0.930 . S
H313 C285 0.929 . S
H314 C287 0.930 . S
H315 C288 0.929 . S
H316 C293 0.930 . S
H317 C294 0.929 . S
H318 C296 0.930 . S
H319 C297 0.929 . S
Sm320 C322 2.846 . S
Sm320 O340 2.543 . S
Sm320 O341 2.450 . S
Sm320 O342 2.681 . S
Sm320 O343 2.464 . S
Sm320 O344 2.396 . S
Sm320 O348 2.386 . S
Sm320 O351 2.408 . S
Sm321 C331 2.846 . S
Sm321 O342 2.386 . S
Sm321 O345 2.408 . S
Sm321 O346 2.543 . S
Sm321 O347 2.450 . S
Sm321 O348 2.681 . S
Sm321 O349 2.464 . S
Sm321 O350 2.396 . S
C322 Sm320 2.846 . S
C322 C323 1.506 . S
C322 O340 1.261 . S
C322 O341 1.242 . S
C323 C322 1.506 . S
C323 C324 1.358 . S
C323 C328 1.382 . S
C324 C323 1.358 . S
C324 C325 1.385 . S
C324 H352 0.930 . S
C325 C324 1.385 . S
C325 C326 1.395 . S
C325 H353 0.929 . S
C326 C325 1.395 . S
C326 C327 1.335 . S
C327 C326 1.335 . S
C327 C328 1.398 . S
C327 H354 0.930 . S
C328 C323 1.382 . S
C328 C327 1.398 . S
C328 H355 0.929 . S
C329 O342 1.271 . S
C329 O343 1.251 . S
C330 O344 1.252 . S
C330 O345 1.272 . S
C331 Sm321 2.846 . S
C331 C332 1.506 . S
C331 O346 1.261 . S
C331 O347 1.242 . S
C332 C331 1.506 . S
C332 C333 1.358 . S
C332 C337 1.382 . S
C333 C332 1.358 . S
C333 C334 1.385 . S
C333 H356 0.930 . S
C334 C333 1.385 . S
C334 C335 1.395 . S
C334 H357 0.929 . S
C335 C334 1.395 . S
C335 C336 1.335 . S
C336 C335 1.335 . S
C336 C337 1.398 . S
C336 H358 0.930 . S
C337 C332 1.382 . S
C337 C336 1.398 . S
C337 H359 0.929 . S
C338 O348 1.271 . S
C338 O349 1.251 . S
C339 O350 1.252 . S
C339 O351 1.272 . S
O340 Sm320 2.543 . S
O340 C322 1.261 . S
O341 Sm320 2.450 . S
O341 C322 1.242 . S
O342 Sm320 2.681 . S
O342 Sm321 2.386 . S
O342 C329 1.271 . S
O343 Sm320 2.464 . S
O343 C329 1.251 . S
O344 Sm320 2.396 . S
O344 C330 1.252 . S
O345 Sm321 2.408 . S
O345 C330 1.272 . S
O346 Sm321 2.543 . S
O346 C331 1.261 . S
O347 Sm321 2.450 . S
O347 C331 1.242 . S
O348 Sm320 2.386 . S
O348 Sm321 2.681 . S
O348 C338 1.271 . S
O349 Sm321 2.464 . S
O349 C338 1.251 . S
O350 Sm321 2.396 . S
O350 C339 1.252 . S
O351 Sm320 2.408 . S
O351 C339 1.272 . S
H352 C324 0.930 . S
H353 C325 0.929 . S
H354 C327 0.930 . S
H355 C328 0.929 . S
H356 C333 0.930 . S
H357 C334 0.929 . S
H358 C336 0.930 . S
H359 C337 0.929 . S
Sm360 C362 2.846 . S
Sm360 O380 2.543 . S
Sm360 O381 2.450 . S
Sm360 O382 2.681 . S
Sm360 O383 2.464 . S
Sm360 O384 2.396 . S
Sm360 O388 2.386 . S
Sm360 O391 2.408 . S
Sm361 C371 2.846 . S
Sm361 O382 2.386 . S
Sm361 O385 2.408 . S
Sm361 O386 2.543 . S
Sm361 O387 2.450 . S
Sm361 O388 2.681 . S
Sm361 O389 2.464 . S
Sm361 O390 2.396 . S
C362 Sm360 2.846 . S
C362 C363 1.506 . S
C362 O380 1.261 . S
C362 O381 1.242 . S
C363 C362 1.506 . S
C363 C364 1.358 . S
C363 C368 1.382 . S
C364 C363 1.358 . S
C364 C365 1.385 . S
C364 H392 0.930 . S
C365 C364 1.385 . S
C365 C366 1.395 . S
C365 H393 0.929 . S
C366 C365 1.395 . S
C366 C367 1.335 . S
C367 C366 1.335 . S
C367 C368 1.398 . S
C367 H394 0.930 . S
C368 C363 1.382 . S
C368 C367 1.398 . S
C368 H395 0.929 . S
C369 O382 1.271 . S
C369 O383 1.251 . S
C370 O384 1.252 . S
C370 O385 1.272 . S
C371 Sm361 2.846 . S
C371 C372 1.506 . S
C371 O386 1.261 . S
C371 O387 1.242 . S
C372 C371 1.506 . S
C372 C373 1.358 . S
C372 C377 1.382 . S
C373 C372 1.358 . S
C373 C374 1.385 . S
C373 H396 0.930 . S
C374 C373 1.385 . S
C374 C375 1.395 . S
C374 H397 0.929 . S
C375 C374 1.395 . S
C375 C376 1.335 . S
C376 C375 1.335 . S
C376 C377 1.398 . S
C376 H398 0.930 . S
C377 C372 1.382 . S
C377 C376 1.398 . S
C377 H399 0.929 . S
C378 O388 1.271 . S
C378 O389 1.251 . S
C379 O390 1.252 . S
C379 O391 1.272 . S
O380 Sm360 2.543 . S
O380 C362 1.261 . S
O381 Sm360 2.450 . S
O381 C362 1.242 . S
O382 Sm360 2.681 . S
O382 Sm361 2.386 . S
O382 C369 1.271 . S
O383 Sm360 2.464 . S
O383 C369 1.251 . S
O384 Sm360 2.396 . S
O384 C370 1.252 . S
O385 Sm361 2.408 . S
O385 C370 1.272 . S
O386 Sm361 2.543 . S
O386 C371 1.261 . S
O387 Sm361 2.450 . S
O387 C371 1.242 . S
O388 Sm360 2.386 . S
O388 Sm361 2.681 . S
O388 C378 1.271 . S
O389 Sm361 2.464 . S
O389 C378 1.251 . S
O390 Sm361 2.396 . S
O390 C379 1.252 . S
O391 Sm360 2.408 . S
O391 C379 1.272 . S
H392 C364 0.930 . S
H393 C365 0.929 . S
H394 C367 0.930 . S
H395 C368 0.929 . S
H396 C373 0.930 . S
H397 C374 0.929 . S
H398 C376 0.930 . S
H399 C377 0.929 . S
Sm400 C402 2.846 . S
Sm400 O420 2.543 . S
Sm400 O421 2.450 . S
Sm400 O422 2.681 . S
Sm400 O423 2.464 . S
Sm400 O424 2.396 . S
Sm400 O428 2.386 . S
Sm400 O431 2.408 . S
Sm401 C411 2.846 . S
Sm401 O422 2.386 . S
Sm401 O425 2.408 . S
Sm401 O426 2.543 . S
Sm401 O427 2.450 . S
Sm401 O428 2.681 . S
Sm401 O429 2.464 . S
Sm401 O430 2.396 . S
C402 Sm400 2.846 . S
C402 C403 1.506 . S
C402 O420 1.261 . S
C402 O421 1.242 . S
C403 C402 1.506 . S
C403 C404 1.358 . S
C403 C408 1.382 . S
C404 C403 1.358 . S
C404 C405 1.385 . S
C404 H432 0.930 . S
C405 C404 1.385 . S
C405 C406 1.395 . S
C405 H433 0.929 . S
C406 C405 1.395 . S
C406 C407 1.335 . S
C407 C406 1.335 . S
C407 C408 1.398 . S
C407 H434 0.930 . S
C408 C403 1.382 . S
C408 C407 1.398 . S
C408 H435 0.929 . S
C409 O422 1.271 . S
C409 O423 1.251 . S
C410 O424 1.252 . S
C410 O425 1.272 . S
C411 Sm401 2.846 . S
C411 C412 1.506 . S
C411 O426 1.261 . S
C411 O427 1.242 . S
C412 C411 1.506 . S
C412 C413 1.358 . S
C412 C417 1.382 . S
C413 C412 1.358 . S
C413 C414 1.385 . S
C413 H436 0.930 . S
C414 C413 1.385 . S
C414 C415 1.395 . S
C414 H437 0.929 . S
C415 C414 1.395 . S
C415 C416 1.335 . S
C416 C415 1.335 . S
C416 C417 1.398 . S
C416 H438 0.930 . S
C417 C412 1.382 . S
C417 C416 1.398 . S
C417 H439 0.929 . S
C418 O428 1.271 . S
C418 O429 1.251 . S
C419 O430 1.252 . S
C419 O431 1.272 . S
O420 Sm400 2.543 . S
O420 C402 1.261 . S
O421 Sm400 2.450 . S
O421 C402 1.242 . S
O422 Sm400 2.681 . S
O422 Sm401 2.386 . S
O422 C409 1.271 . S
O423 Sm400 2.464 . S
O423 C409 1.251 . S
O424 Sm400 2.396 . S
O424 C410 1.252 . S
O425 Sm401 2.408 . S
O425 C410 1.272 . S
O426 Sm401 2.543 . S
O426 C411 1.261 . S
O427 Sm401 2.450 . S
O427 C411 1.242 . S
O428 Sm400 2.386 . S
O428 Sm401 2.681 . S
O428 C418 1.271 . S
O429 Sm401 2.464 . S
O429 C418 1.251 . S
O430 Sm401 2.396 . S
O430 C419 1.252 . S
O431 Sm400 2.408 . S
O431 C419 1.272 . S
H432 C404 0.930 . S
H433 C405 0.929 . S
H434 C407 0.930 . S
H435 C408 0.929 . S
H436 C413 0.930 . S
H437 C414 0.929 . S
H438 C416 0.930 . S
H439 C417 0.929 . S
Sm440 C442 2.846 . S
Sm440 O460 2.543 . S
Sm440 O461 2.450 . S
Sm440 O462 2.681 . S
Sm440 O463 2.464 . S
Sm440 O464 2.396 . S
Sm440 O468 2.386 . S
Sm440 O471 2.408 . S
Sm441 C451 2.846 . S
Sm441 O462 2.386 . S
Sm441 O465 2.408 . S
Sm441 O466 2.543 . S
Sm441 O467 2.450 . S
Sm441 O468 2.681 . S
Sm441 O469 2.464 . S
Sm441 O470 2.396 . S
C442 Sm440 2.846 . S
C442 C443 1.506 . S
C442 O460 1.261 . S
C442 O461 1.242 . S
C443 C442 1.506 . S
C443 C444 1.358 . S
C443 C448 1.382 . S
C444 C443 1.358 . S
C444 C445 1.385 . S
C444 H472 0.930 . S
C445 C444 1.385 . S
C445 C446 1.395 . S
C445 H473 0.929 . S
C446 C445 1.395 . S
C446 C447 1.335 . S
C447 C446 1.335 . S
C447 C448 1.398 . S
C447 H474 0.930 . S
C448 C443 1.382 . S
C448 C447 1.398 . S
C448 H475 0.929 . S
C449 O462 1.271 . S
C449 O463 1.251 . S
C450 O464 1.252 . S
C450 O465 1.272 . S
C451 Sm441 2.846 . S
C451 C452 1.506 . S
C451 O466 1.261 . S
C451 O467 1.242 . S
C452 C451 1.506 . S
C452 C453 1.358 . S
C452 C457 1.382 . S
C453 C452 1.358 . S
C453 C454 1.385 . S
C453 H476 0.930 . S
C454 C453 1.385 . S
C454 C455 1.395 . S
C454 H477 0.929 . S
C455 C454 1.395 . S
C455 C456 1.335 . S
C456 C455 1.335 . S
C456 C457 1.398 . S
C456 H478 0.930 . S
C457 C452 1.382 . S
C457 C456 1.398 . S
C457 H479 0.929 . S
C458 O468 1.271 . S
C458 O469 1.251 . S
C459 O470 1.252 . S
C459 O471 1.272 . S
O460 Sm440 2.543 . S
O460 C442 1.261 . S
O461 Sm440 2.450 . S
O461 C442 1.242 . S
O462 Sm440 2.681 . S
O462 Sm441 2.386 . S
O462 C449 1.271 . S
O463 Sm440 2.464 . S
O463 C449 1.251 . S
O464 Sm440 2.396 . S
O464 C450 1.252 . S
O465 Sm441 2.408 . S
O465 C450 1.272 . S
O466 Sm441 2.543 . S
O466 C451 1.261 . S
O467 Sm441 2.450 . S
O467 C451 1.242 . S
O468 Sm440 2.386 . S
O468 Sm441 2.681 . S
O468 C458 1.271 . S
O469 Sm441 2.464 . S
O469 C458 1.251 . S
O470 Sm441 2.396 . S
O470 C459 1.252 . S
O471 Sm440 2.408 . S
O471 C459 1.272 . S
H472 C444 0.930 . S
H473 C445 0.929 . S
H474 C447 0.930 . S
H475 C448 0.929 . S
H476 C453 0.930 . S
H477 C454 0.929 . S
H478 C456 0.930 . S
H479 C457 0.929 . S
Sm480 C482 2.846 . S
Sm480 O500 2.543 . S
Sm480 O501 2.450 . S
Sm480 O502 2.681 . S
Sm480 O503 2.464 . S
Sm480 O504 2.396 . S
Sm480 O508 2.386 . S
Sm480 O511 2.408 . S
Sm481 C491 2.846 . S
Sm481 O502 2.386 . S
Sm481 O505 2.408 . S
Sm481 O506 2.543 . S
Sm481 O507 2.450 . S
Sm481 O508 2.681 . S
Sm481 O509 2.464 . S
Sm481 O510 2.396 . S
C482 Sm480 2.846 . S
C482 C483 1.506 . S
C482 O500 1.261 . S
C482 O501 1.242 . S
C483 C482 1.506 . S
C483 C484 1.358 . S
C483 C488 1.382 . S
C484 C483 1.358 . S
C484 C485 1.385 . S
C484 H512 0.930 . S
C485 C484 1.385 . S
C485 C486 1.395 . S
C485 H513 0.929 . S
C486 C485 1.395 . S
C486 C487 1.335 . S
C487 C486 1.335 . S
C487 C488 1.398 . S
C487 H514 0.930 . S
C488 C483 1.382 . S
C488 C487 1.398 . S
C488 H515 0.929 . S
C489 O502 1.271 . S
C489 O503 1.251 . S
C490 O504 1.252 . S
C490 O505 1.272 . S
C491 Sm481 2.846 . S
C491 C492 1.506 . S
C491 O506 1.261 . S
C491 O507 1.242 . S
C492 C491 1.506 . S
C492 C493 1.358 . S
C492 C497 1.382 . S
C493 C492 1.358 . S
C493 C494 1.385 . S
C493 H516 0.930 . S
C494 C493 1.385 . S
C494 C495 1.395 . S
C494 H517 0.929 . S
C495 C494 1.395 . S
C495 C496 1.335 . S
C496 C495 1.335 . S
C496 C497 1.398 . S
C496 H518 0.930 . S
C497 C492 1.382 . S
C497 C496 1.398 . S
C497 H519 0.929 . S
C498 O508 1.271 . S
C498 O509 1.251 . S
C499 O510 1.252 . S
C499 O511 1.272 . S
O500 Sm480 2.543 . S
O500 C482 1.261 . S
O501 Sm480 2.450 . S
O501 C482 1.242 . S
O502 Sm480 2.681 . S
O502 Sm481 2.386 . S
O502 C489 1.271 . S
O503 Sm480 2.464 . S
O503 C489 1.251 . S
O504 Sm480 2.396 . S
O504 C490 1.252 . S
O505 Sm481 2.408 . S
O505 C490 1.272 . S
O506 Sm481 2.543 . S
O506 C491 1.261 . S
O507 Sm481 2.450 . S
O507 C491 1.242 . S
O508 Sm480 2.386 . S
O508 Sm481 2.681 . S
O508 C498 1.271 . S
O509 Sm481 2.464 . S
O509 C498 1.251 . S
O510 Sm481 2.396 . S
O510 C499 1.252 . S
O511 Sm480 2.408 . S
O511 C499 1.272 . S
H512 C484 0.930 . S
H513 C485 0.929 . S
H514 C487 0.930 . S
H515 C488 0.929 . S
H516 C493 0.930 . S
H517 C494 0.929 . S
H518 C496 0.930 . S
H519 C497 0.929 . S
Sm520 C522 2.846 . S
Sm520 O540 2.543 . S
Sm520 O541 2.450 . S
Sm520 O542 2.681 . S
Sm520 O543 2.464 . S
Sm520 O544 2.396 . S
Sm520 O548 2.386 . S
Sm520 O551 2.408 . S
Sm521 C531 2.846 . S
Sm521 O542 2.386 . S
Sm521 O545 2.408 . S
Sm521 O546 2.543 . S
Sm521 O547 2.450 . S
Sm521 O548 2.681 . S
Sm521 O549 2.464 . S
Sm521 O550 2.396 . S
C522 Sm520 2.846 . S
C522 C523 1.506 . S
C522 O540 1.261 . S
C522 O541 1.242 . S
C523 C522 1.506 . S
C523 C524 1.358 . S
C523 C528 1.382 . S
C524 C523 1.358 . S
C524 C525 1.385 . S
C524 H552 0.930 . S
C525 C524 1.385 . S
C525 C526 1.395 . S
C525 H553 0.929 . S
C526 C525 1.395 . S
C526 C527 1.335 . S
C527 C526 1.335 . S
C527 C528 1.398 . S
C527 H554 0.930 . S
C528 C523 1.382 . S
C528 C527 1.398 . S
C528 H555 0.929 . S
C529 O542 1.271 . S
C529 O543 1.251 . S
C530 O544 1.252 . S
C530 O545 1.272 . S
C531 Sm521 2.846 . S
C531 C532 1.506 . S
C531 O546 1.261 . S
C531 O547 1.242 . S
C532 C531 1.506 . S
C532 C533 1.358 . S
C532 C537 1.382 . S
C533 C532 1.358 . S
C533 C534 1.385 . S
C533 H556 0.930 . S
C534 C533 1.385 . S
C534 C535 1.395 . S
C534 H557 0.929 . S
C535 C534 1.395 . S
C535 C536 1.335 . S
C536 C535 1.335 . S
C536 C537 1.398 . S
C536 H558 0.930 . S
C537 C532 1.382 . S
C537 C536 1.398 . S
C537 H559 0.929 . S
C538 O548 1.271 . S
C538 O549 1.251 . S
C539 O550 1.252 . S
C539 O551 1.272 . S
O540 Sm520 2.543 . S
O540 C522 1.261 . S
O541 Sm520 2.450 . S
O541 C522 1.242 . S
O542 Sm520 2.681 . S
O542 Sm521 2.386 . S
O542 C529 1.271 . S
O543 Sm520 2.464 . S
O543 C529 1.251 . S
O544 Sm520 2.396 . S
O544 C530 1.252 . S
O545 Sm521 2.408 . S
O545 C530 1.272 . S
O546 Sm521 2.543 . S
O546 C531 1.261 . S
O547 Sm521 2.450 . S
O547 C531 1.242 . S
O548 Sm520 2.386 . S
O548 Sm521 2.681 . S
O548 C538 1.271 . S
O549 Sm521 2.464 . S
O549 C538 1.251 . S
O550 Sm521 2.396 . S
O550 C539 1.252 . S
O551 Sm520 2.408 . S
O551 C539 1.272 . S
H552 C524 0.930 . S
H553 C525 0.929 . S
H554 C527 0.930 . S
H555 C528 0.929 . S
H556 C533 0.930 . S
H557 C534 0.929 . S
H558 C536 0.930 . S
H559 C537 0.929 . S
Sm560 C562 2.846 . S
Sm560 O580 2.543 . S
Sm560 O581 2.450 . S
Sm560 O582 2.681 . S
Sm560 O583 2.464 . S
Sm560 O584 2.396 . S
Sm560 O588 2.386 . S
Sm560 O591 2.408 . S
Sm561 C571 2.846 . S
Sm561 O582 2.386 . S
Sm561 O585 2.408 . S
Sm561 O586 2.543 . S
Sm561 O587 2.450 . S
Sm561 O588 2.681 . S
Sm561 O589 2.464 . S
Sm561 O590 2.396 . S
C562 Sm560 2.846 . S
C562 C563 1.506 . S
C562 O580 1.261 . S
C562 O581 1.242 . S
C563 C562 1.506 . S
C563 C564 1.358 . S
C563 C568 1.382 . S
C564 C563 1.358 . S
C564 C565 1.385 . S
C564 H592 0.930 . S
C565 C564 1.385 . S
C565 C566 1.395 . S
C565 H593 0.929 . S
C566 C565 1.395 . S
C566 C567 1.335 . S
C567 C566 1.335 . S
C567 C568 1.398 . S
C567 H594 0.930 . S
C568 C563 1.382 . S
C568 C567 1.398 . S
C568 H595 0.929 . S
C569 O582 1.271 . S
C569 O583 1.251 . S
C570 O584 1.252 . S
C570 O585 1.272 . S
C571 Sm561 2.846 . S
C571 C572 1.506 . S
C571 O586 1.261 . S
C571 O587 1.242 . S
C572 C571 1.506 . S
C572 C573 1.358 . S
C572 C577 1.382 . S
C573 C572 1.358 . S
C573 C574 1.385 . S
C573 H596 0.930 . S
C574 C573 1.385 . S
C574 C575 1.395 . S
C574 H597 0.929 . S
C575 C574 1.395 . S
C575 C576 1.335 . S
C576 C575 1.335 . S
C576 C577 1.398 . S
C576 H598 0.930 . S
C577 C572 1.382 . S
C577 C576 1.398 . S
C577 H599 0.929 . S
C578 O588 1.271 . S
C578 O589 1.251 . S
C579 O590 1.252 . S
C579 O591 1.272 . S
O580 Sm560 2.543 . S
O580 C562 1.261 . S
O581 Sm560 2.450 . S
O581 C562 1.242 . S
O582 Sm560 2.681 . S
O582 Sm561 2.386 . S
O582 C569 1.271 . S
O583 Sm560 2.464 . S
O583 C569 1.251 . S
O584 Sm560 2.396 . S
O584 C570 1.252 . S
O585 Sm561 2.408 . S
O585 C570 1.272 . S
O586 Sm561 2.543 . S
O586 C571 1.261 . S
O587 Sm561 2.450 . S
O587 C571 1.242 . S
O588 Sm560 2.386 . S
O588 Sm561 2.681 . S
O588 C578 1.271 . S
O589 Sm561 2.464 . S
O589 C578 1.251 . S
O590 Sm561 2.396 . S
O590 C579 1.252 . S
O591 Sm560 2.408 . S
O591 C579 1.272 . S
H592 C564 0.930 . S
H593 C565 0.929 . S
H594 C567 0.930 . S
H595 C568 0.929 . S
H596 C573 0.930 . S
H597 C574 0.929 . S
H598 C576 0.930 . S
H599 C577 0.929 . S
Sm600 C602 2.846 . S
Sm600 O620 2.543 . S
Sm600 O621 2.450 . S
Sm600 O622 2.681 . S
Sm600 O623 2.464 . S
Sm600 O624 2.396 . S
Sm600 O628 2.386 . S
Sm600 O631 2.408 . S
Sm601 C611 2.846 . S
Sm601 O622 2.386 . S
Sm601 O625 2.408 . S
Sm601 O626 2.543 . S
Sm601 O627 2.450 . S
Sm601 O628 2.681 . S
Sm601 O629 2.464 . S
Sm601 O630 2.396 . S
C602 Sm600 2.846 . S
C602 C603 1.506 . S
C602 O620 1.261 . S
C602 O621 1.242 . S
C603 C602 1.506 . S
C603 C604 1.358 . S
C603 C608 1.382 . S
C604 C603 1.358 . S
C604 C605 1.385 1_655 S
C604 H632 0.930 1_655 S
C605 C604 1.385 1_455 S
C605 C606 1.395 1_455 S
C605 H633 0.929 . S
C606 C605 1.395 1_655 S
C606 C607 1.335 . S
C607 C606 1.335 . S
C607 C608 1.398 . S
C607 H634 0.930 . S
C608 C603 1.382 . S
C608 C607 1.398 . S
C608 H635 0.929 . S
C609 O622 1.271 . S
C609 O623 1.251 . S
C610 O624 1.252 . S
C610 O625 1.272 . S
C611 Sm601 2.846 . S
C611 C612 1.506 . S
C611 O626 1.261 . S
C611 O627 1.242 . S
C612 C611 1.506 . S
C612 C613 1.358 . S
C612 C617 1.382 . S
C613 C612 1.358 . S
C613 C614 1.385 . S
C613 H636 0.930 . S
C614 C613 1.385 . S
C614 C615 1.395 . S
C614 H637 0.929 . S
C615 C614 1.395 . S
C615 C616 1.335 . S
C616 C615 1.335 . S
C616 C617 1.398 . S
C616 H638 0.930 . S
C617 C612 1.382 . S
C617 C616 1.398 . S
C617 H639 0.929 . S
C618 O628 1.271 . S
C618 O629 1.251 . S
C619 O630 1.252 . S
C619 O631 1.272 . S
O620 Sm600 2.543 . S
O620 C602 1.261 . S
O621 Sm600 2.450 . S
O621 C602 1.242 . S
O622 Sm600 2.681 . S
O622 Sm601 2.386 . S
O622 C609 1.271 . S
O623 Sm600 2.464 . S
O623 C609 1.251 . S
O624 Sm600 2.396 . S
O624 C610 1.252 . S
O625 Sm601 2.408 . S
O625 C610 1.272 . S
O626 Sm601 2.543 . S
O626 C611 1.261 . S
O627 Sm601 2.450 . S
O627 C611 1.242 . S
O628 Sm600 2.386 . S
O628 Sm601 2.681 . S
O628 C618 1.271 . S
O629 Sm601 2.464 . S
O629 C618 1.251 . S
O630 Sm601 2.396 . S
O630 C619 1.252 . S
O631 Sm600 2.408 . S
O631 C619 1.272 . S
H632 C604 0.930 1_455 S
H633 C605 0.929 . S
H634 C607 0.930 . S
H635 C608 0.929 . S
H636 C613 0.930 . S
H637 C614 0.929 . S
H638 C616 0.930 . S
H639 C617 0.929 . S
Sm640 C642 2.846 . S
Sm640 O660 2.543 . S
Sm640 O661 2.450 . S
Sm640 O662 2.681 . S
Sm640 O663 2.464 . S
Sm640 O664 2.396 . S
Sm640 O668 2.386 . S
Sm640 O671 2.408 . S
Sm641 C651 2.846 . S
Sm641 O662 2.386 . S
Sm641 O665 2.408 . S
Sm641 O666 2.543 . S
Sm641 O667 2.450 . S
Sm641 O668 2.681 . S
Sm641 O669 2.464 . S
Sm641 O670 2.396 . S
C642 Sm640 2.846 . S
C642 C643 1.506 . S
C642 O660 1.261 . S
C642 O661 1.242 . S
C643 C642 1.506 . S
C643 C644 1.358 . S
C643 C648 1.382 . S
C644 C643 1.358 . S
C644 C645 1.385 . S
C644 H672 0.930 . S
C645 C644 1.385 . S
C645 C646 1.395 . S
C645 H673 0.929 . S
C646 C645 1.395 . S
C646 C647 1.335 . S
C647 C646 1.335 . S
C647 C648 1.398 . S
C647 H674 0.930 . S
C648 C643 1.382 . S
C648 C647 1.398 . S
C648 H675 0.929 . S
C649 O662 1.271 . S
C649 O663 1.251 . S
C650 O664 1.252 . S
C650 O665 1.272 . S
C651 Sm641 2.846 . S
C651 C652 1.506 . S
C651 O666 1.261 . S
C651 O667 1.242 . S
C652 C651 1.506 . S
C652 C653 1.358 . S
C652 C657 1.382 . S
C653 C652 1.358 . S
C653 C654 1.385 . S
C653 H676 0.930 . S
C654 C653 1.385 . S
C654 C655 1.395 . S
C654 H677 0.929 . S
C655 C654 1.395 . S
C655 C656 1.335 . S
C656 C655 1.335 . S
C656 C657 1.398 . S
C656 H678 0.930 . S
C657 C652 1.382 . S
C657 C656 1.398 . S
C657 H679 0.929 . S
C658 O668 1.271 . S
C658 O669 1.251 . S
C659 O670 1.252 . S
C659 O671 1.272 . S
O660 Sm640 2.543 . S
O660 C642 1.261 . S
O661 Sm640 2.450 . S
O661 C642 1.242 . S
O662 Sm640 2.681 . S
O662 Sm641 2.386 . S
O662 C649 1.271 . S
O663 Sm640 2.464 . S
O663 C649 1.251 . S
O664 Sm640 2.396 . S
O664 C650 1.252 . S
O665 Sm641 2.408 . S
O665 C650 1.272 . S
O666 Sm641 2.543 . S
O666 C651 1.261 . S
O667 Sm641 2.450 . S
O667 C651 1.242 . S
O668 Sm640 2.386 . S
O668 Sm641 2.681 . S
O668 C658 1.271 . S
O669 Sm641 2.464 . S
O669 C658 1.251 . S
O670 Sm641 2.396 . S
O670 C659 1.252 . S
O671 Sm640 2.408 . S
O671 C659 1.272 . S
H672 C644 0.930 . S
H673 C645 0.929 . S
H674 C647 0.930 . S
H675 C648 0.929 . S
H676 C653 0.930 . S
H677 C654 0.929 . S
H678 C656 0.930 . S
H679 C657 0.929 . S
Sm680 C682 2.846 . S
Sm680 O700 2.543 . S
Sm680 O701 2.450 . S
Sm680 O702 2.681 . S
Sm680 O703 2.464 . S
Sm680 O704 2.396 . S
Sm680 O708 2.386 . S
Sm680 O711 2.408 . S
Sm681 C691 2.846 . S
Sm681 O702 2.386 . S
Sm681 O705 2.408 . S
Sm681 O706 2.543 . S
Sm681 O707 2.450 . S
Sm681 O708 2.681 . S
Sm681 O709 2.464 . S
Sm681 O710 2.396 . S
C682 Sm680 2.846 . S
C682 C683 1.506 . S
C682 O700 1.261 . S
C682 O701 1.242 . S
C683 C682 1.506 . S
C683 C684 1.358 . S
C683 C688 1.382 . S
C684 C683 1.358 . S
C684 C685 1.385 1_545 S
C684 H712 0.930 1_545 S
C685 C684 1.385 1_565 S
C685 C686 1.395 1_565 S
C685 H713 0.929 . S
C686 C685 1.395 1_545 S
C686 C687 1.335 . S
C687 C686 1.335 . S
C687 C688 1.398 . S
C687 H714 0.930 . S
C688 C683 1.382 . S
C688 C687 1.398 . S
C688 H715 0.929 . S
C689 O702 1.271 . S
C689 O703 1.251 . S
C690 O704 1.252 . S
C690 O705 1.272 . S
C691 Sm681 2.846 . S
C691 C692 1.506 . S
C691 O706 1.261 . S
C691 O707 1.242 . S
C692 C691 1.506 . S
C692 C693 1.358 . S
C692 C697 1.382 . S
C693 C692 1.358 . S
C693 C694 1.385 . S
C693 H716 0.930 . S
C694 C693 1.385 . S
C694 C695 1.395 . S
C694 H717 0.929 . S
C695 C694 1.395 . S
C695 C696 1.335 . S
C696 C695 1.335 . S
C696 C697 1.398 . S
C696 H718 0.930 . S
C697 C692 1.382 . S
C697 C696 1.398 . S
C697 H719 0.929 . S
C698 O708 1.271 . S
C698 O709 1.251 . S
C699 O710 1.252 . S
C699 O711 1.272 . S
O700 Sm680 2.543 . S
O700 C682 1.261 . S
O701 Sm680 2.450 . S
O701 C682 1.242 . S
O702 Sm680 2.681 . S
O702 Sm681 2.386 . S
O702 C689 1.271 . S
O703 Sm680 2.464 . S
O703 C689 1.251 . S
O704 Sm680 2.396 . S
O704 C690 1.252 . S
O705 Sm681 2.408 . S
O705 C690 1.272 . S
O706 Sm681 2.543 . S
O706 C691 1.261 . S
O707 Sm681 2.450 . S
O707 C691 1.242 . S
O708 Sm680 2.386 . S
O708 Sm681 2.681 . S
O708 C698 1.271 . S
O709 Sm681 2.464 . S
O709 C698 1.251 . S
O710 Sm681 2.396 . S
O710 C699 1.252 . S
O711 Sm680 2.408 . S
O711 C699 1.272 . S
H712 C684 0.930 1_565 S
H713 C685 0.929 . S
H714 C687 0.930 . S
H715 C688 0.929 . S
H716 C693 0.930 . S
H717 C694 0.929 . S
H718 C696 0.930 . S
H719 C697 0.929 . S
Sm720 C722 2.846 . S
Sm720 O740 2.543 . S
Sm720 O741 2.450 . S
Sm720 O742 2.681 . S
Sm720 O743 2.464 . S
Sm720 O744 2.396 . S
Sm720 O748 2.386 . S
Sm720 O751 2.408 . S
Sm721 C731 2.846 . S
Sm721 O742 2.386 . S
Sm721 O745 2.408 . S
Sm721 O746 2.543 . S
Sm721 O747 2.450 . S
Sm721 O748 2.681 . S
Sm721 O749 2.464 . S
Sm721 O750 2.396 . S
C722 Sm720 2.846 . S
C722 C723 1.506 . S
C722 O740 1.261 . S
C722 O741 1.242 . S
C723 C722 1.506 . S
C723 C724 1.358 . S
C723 C728 1.382 . S
C724 C723 1.358 . S
C724 C725 1.385 . S
C724 H752 0.930 . S
C725 C724 1.385 . S
C725 C726 1.395 . S
C725 H753 0.929 . S
C726 C725 1.395 . S
C726 C727 1.335 . S
C727 C726 1.335 . S
C727 C728 1.398 . S
C727 H754 0.930 . S
C728 C723 1.382 . S
C728 C727 1.398 . S
C728 H755 0.929 . S
C729 O742 1.271 . S
C729 O743 1.251 . S
C730 O744 1.252 . S
C730 O745 1.272 . S
C731 Sm721 2.846 . S
C731 C732 1.506 . S
C731 O746 1.261 . S
C731 O747 1.242 . S
C732 C731 1.506 . S
C732 C733 1.358 . S
C732 C737 1.382 . S
C733 C732 1.358 . S
C733 C734 1.385 1_545 S
C733 H756 0.907 1_545 S
C734 C733 1.385 1_565 S
C734 C735 1.395 1_565 S
C734 H757 0.929 . S
C735 C734 1.395 1_545 S
C735 C736 1.335 . S
C736 C735 1.335 . S
C736 C737 1.398 . S
C736 H758 0.930 . S
C737 C732 1.382 . S
C737 C736 1.398 . S
C737 H759 0.929 . S
C738 O748 1.271 . S
C738 O749 1.251 . S
C739 O750 1.252 . S
C739 O751 1.272 . S
O740 Sm720 2.543 . S
O740 C722 1.261 . S
O741 Sm720 2.450 . S
O741 C722 1.242 . S
O742 Sm720 2.681 . S
O742 Sm721 2.386 . S
O742 C729 1.271 . S
O743 Sm720 2.464 . S
O743 C729 1.251 . S
O744 Sm720 2.396 . S
O744 C730 1.252 . S
O745 Sm721 2.408 . S
O745 C730 1.272 . S
O746 Sm721 2.543 . S
O746 C731 1.261 . S
O747 Sm721 2.450 . S
O747 C731 1.242 . S
O748 Sm720 2.386 . S
O748 Sm721 2.681 . S
O748 C738 1.271 . S
O749 Sm721 2.464 . S
O749 C738 1.251 . S
O750 Sm721 2.396 . S
O750 C739 1.252 . S
O751 Sm720 2.408 . S
O751 C739 1.272 . S
H752 C724 0.930 . S
H753 C725 0.929 . S
H754 C727 0.930 . S
H755 C728 0.929 . S
H756 C733 0.907 1_565 S
H757 C734 0.929 . S
H758 C736 0.930 . S
H759 C737 0.929 . S
Sm760 C762 2.846 . S
Sm760 O780 2.543 . S
Sm760 O781 2.450 . S
Sm760 O782 2.681 . S
Sm760 O783 2.464 . S
Sm760 O784 2.396 . S
Sm760 O788 2.386 . S
Sm760 O791 2.408 . S
Sm761 C771 2.846 . S
Sm761 O782 2.386 . S
Sm761 O785 2.408 . S
Sm761 O786 2.543 . S
Sm761 O787 2.450 . S
Sm761 O788 2.681 . S
Sm761 O789 2.464 . S
Sm761 O790 2.396 . S
C762 Sm760 2.846 . S
C762 C763 1.506 . S
C762 O780 1.261 . S
C762 O781 1.242 . S
C763 C762 1.506 . S
C763 C764 1.358 . S
C763 C768 1.382 . S
C764 C763 1.358 . S
C764 C765 1.385 . S
C764 H792 0.930 . S
C765 C764 1.385 . S
C765 C766 1.395 . S
C765 H793 0.929 . S
C766 C765 1.395 . S
C766 C767 1.335 . S
C767 C766 1.335 . S
C767 C768 1.398 . S
C767 H794 0.930 . S
C768 C763 1.382 . S
C768 C767 1.398 . S
C768 H795 0.929 . S
C769 O782 1.271 . S
C769 O783 1.251 . S
C770 O784 1.252 . S
C770 O785 1.272 . S
C771 Sm761 2.846 . S
C771 C772 1.506 . S
C771 O786 1.261 . S
C771 O787 1.242 . S
C772 C771 1.506 . S
C772 C773 1.358 . S
C772 C777 1.382 . S
C773 C772 1.358 . S
C773 C774 1.385 1_655 S
C773 H796 0.925 1_655 S
C774 C773 1.385 1_455 S
C774 C775 1.395 1_455 S
C774 H797 0.929 . S
C775 C774 1.395 1_655 S
C775 C776 1.335 . S
C776 C775 1.335 . S
C776 C777 1.398 . S
C776 H798 0.930 . S
C777 C772 1.382 . S
C777 C776 1.398 . S
C777 H799 0.929 . S
C778 O788 1.271 . S
C778 O789 1.251 . S
C779 O790 1.252 . S
C779 O791 1.272 . S
O780 Sm760 2.543 . S
O780 C762 1.261 . S
O781 Sm760 2.450 . S
O781 C762 1.242 . S
O782 Sm760 2.681 . S
O782 Sm761 2.386 . S
O782 C769 1.271 . S
O783 Sm760 2.464 . S
O783 C769 1.251 . S
O784 Sm760 2.396 . S
O784 C770 1.252 . S
O785 Sm761 2.408 . S
O785 C770 1.272 . S
O786 Sm761 2.543 . S
O786 C771 1.261 . S
O787 Sm761 2.450 . S
O787 C771 1.242 . S
O788 Sm760 2.386 . S
O788 Sm761 2.681 . S
O788 C778 1.271 . S
O789 Sm761 2.464 . S
O789 C778 1.251 . S
O790 Sm761 2.396 . S
O790 C779 1.252 . S
O791 Sm760 2.408 . S
O791 C779 1.272 . S
H792 C764 0.930 . S
H793 C765 0.929 . S
H794 C767 0.930 . S
H795 C768 0.929 . S
H796 C773 0.925 1_455 S
H797 C774 0.929 . S
H798 C776 0.930 . S
H799 C777 0.929 . S
Sm800 C802 2.846 . S
Sm800 O820 2.543 . S
Sm800 O821 2.450 . S
Sm800 O822 2.681 . S
Sm800 O823 2.464 . S
Sm800 O824 2.396 . S
Sm800 O828 2.386 . S
Sm800 O831 2.408 . S
Sm801 C811 2.846 . S
Sm801 O822 2.386 . S
Sm801 O825 2.408 . S
Sm801 O826 2.543 . S
Sm801 O827 2.450 . S
Sm801 O828 2.681 . S
Sm801 O829 2.464 . S
Sm801 O830 2.396 . S
C802 Sm800 2.846 . S
C802 C803 1.506 . S
C802 O820 1.261 . S
C802 O821 1.242 . S
C803 C802 1.506 . S
C803 C804 1.358 . S
C803 C808 1.382 . S
C804 C803 1.358 . S
C804 C805 1.385 . S
C804 H832 0.930 . S
C805 C804 1.385 . S
C805 C806 1.395 . S
C805 H833 0.929 . S
C806 C805 1.395 . S
C806 C807 1.335 . S
C807 C806 1.335 . S
C807 C808 1.398 . S
C807 H834 0.930 . S
C808 C803 1.382 . S
C808 C807 1.398 . S
C808 H835 0.929 . S
C809 O822 1.271 . S
C809 O823 1.251 . S
C810 O824 1.252 . S
C810 O825 1.272 . S
C811 Sm801 2.846 . S
C811 C812 1.506 . S
C811 O826 1.261 . S
C811 O827 1.242 . S
C812 C811 1.506 . S
C812 C813 1.358 . S
C812 C817 1.382 . S
C813 C812 1.358 . S
C813 C814 1.385 . S
C813 H836 0.930 . S
C814 C813 1.385 . S
C814 C815 1.395 . S
C814 H837 0.929 . S
C815 C814 1.395 . S
C815 C816 1.335 . S
C816 C815 1.335 . S
C816 C817 1.398 . S
C816 H838 0.930 . S
C817 C812 1.382 . S
C817 C816 1.398 . S
C817 H839 0.929 . S
C818 O828 1.271 . S
C818 O829 1.251 . S
C819 O830 1.252 . S
C819 O831 1.272 . S
O820 Sm800 2.543 . S
O820 C802 1.261 . S
O821 Sm800 2.450 . S
O821 C802 1.242 . S
O822 Sm800 2.681 . S
O822 Sm801 2.386 . S
O822 C809 1.271 . S
O823 Sm800 2.464 . S
O823 C809 1.251 . S
O824 Sm800 2.396 . S
O824 C810 1.252 . S
O825 Sm801 2.408 . S
O825 C810 1.272 . S
O826 Sm801 2.543 . S
O826 C811 1.261 . S
O827 Sm801 2.450 . S
O827 C811 1.242 . S
O828 Sm800 2.386 . S
O828 Sm801 2.681 . S
O828 C818 1.271 . S
O829 Sm801 2.464 . S
O829 C818 1.251 . S
O830 Sm801 2.396 . S
O830 C819 1.252 . S
O831 Sm800 2.408 . S
O831 C819 1.272 . S
H832 C804 0.930 . S
H833 C805 0.929 . S
H834 C807 0.930 . S
H835 C808 0.929 . S
H836 C813 0.930 . S
H837 C814 0.929 . S
H838 C816 0.930 . S
H839 C817 0.929 . S
Sm840 C842 2.846 . S
Sm840 O860 2.543 . S
Sm840 O861 2.450 . S
Sm840 O862 2.681 1_554 S
Sm840 O863 2.464 . S
Sm840 O864 2.396 . S
Sm840 O868 2.386 . S
Sm840 O871 2.408 . S
Sm841 C851 2.846 . S
Sm841 O862 2.386 . S
Sm841 O865 2.408 . S
Sm841 O866 2.543 . S
Sm841 O867 2.450 . S
Sm841 O868 2.681 1_556 S
Sm841 O869 2.464 . S
Sm841 O870 2.396 . S
C842 Sm840 2.846 . S
C842 C843 1.506 . S
C842 O860 1.261 . S
C842 O861 1.242 . S
C843 C842 1.506 . S
C843 C844 1.358 . S
C843 C848 1.382 . S
C844 C843 1.358 . S
C844 C845 1.385 . S
C844 H872 0.930 . S
C845 C844 1.385 . S
C845 C846 1.395 . S
C845 H873 0.929 . S
C846 C845 1.395 . S
C846 C847 1.335 . S
C847 C846 1.335 . S
C847 C848 1.398 . S
C847 H874 0.930 . S
C848 C843 1.382 . S
C848 C847 1.398 . S
C848 H875 0.929 . S
C849 O862 1.271 1_554 S
C849 O863 1.251 . S
C850 O864 1.252 . S
C850 O865 1.272 1_554 S
C851 Sm841 2.846 . S
C851 C852 1.506 . S
C851 O866 1.261 . S
C851 O867 1.242 . S
C852 C851 1.506 . S
C852 C853 1.358 . S
C852 C857 1.382 . S
C853 C852 1.358 . S
C853 C854 1.385 . S
C853 H876 0.930 . S
C854 C853 1.385 . S
C854 C855 1.395 . S
C854 H877 0.929 . S
C855 C854 1.395 . S
C855 C856 1.335 . S
C856 C855 1.335 . S
C856 C857 1.398 . S
C856 H878 0.930 . S
C857 C852 1.382 . S
C857 C856 1.398 . S
C857 H879 0.929 . S
C858 O868 1.271 1_556 S
C858 O869 1.251 . S
C859 O870 1.252 . S
C859 O871 1.272 1_556 S
O860 Sm840 2.543 . S
O860 C842 1.261 . S
O861 Sm840 2.450 . S
O861 C842 1.242 . S
O862 Sm840 2.681 1_556 S
O862 Sm841 2.386 . S
O862 C849 1.271 1_556 S
O863 Sm840 2.464 . S
O863 C849 1.251 . S
O864 Sm840 2.396 . S
O864 C850 1.252 . S
O865 Sm841 2.408 . S
O865 C850 1.272 1_556 S
O866 Sm841 2.543 . S
O866 C851 1.261 . S
O867 Sm841 2.450 . S
O867 C851 1.242 . S
O868 Sm840 2.386 . S
O868 Sm841 2.681 1_554 S
O868 C858 1.271 1_554 S
O869 Sm841 2.464 . S
O869 C858 1.251 . S
O870 Sm841 2.396 . S
O870 C859 1.252 . S
O871 Sm840 2.408 . S
O871 C859 1.272 1_554 S
H872 C844 0.930 . S
H873 C845 0.929 . S
H874 C847 0.930 . S
H875 C848 0.929 . S
H876 C853 0.930 . S
H877 C854 0.929 . S
H878 C856 0.930 . S
H879 C857 0.929 . S
Sm880 C882 2.846 . S
Sm880 O900 2.543 . S
Sm880 O901 2.450 . S
Sm880 O902 2.681 1_554 S
Sm880 O903 2.464 . S
Sm880 O904 2.396 . S
Sm880 O908 2.386 . S
Sm880 O911 2.408 . S
Sm881 C891 2.846 . S
Sm881 O902 2.386 . S
Sm881 O905 2.408 . S
Sm881 O906 2.543 . S
Sm881 O907 2.450 . S
Sm881 O908 2.681 1_556 S
Sm881 O909 2.464 . S
Sm881 O910 2.396 . S
C882 Sm880 2.846 . S
C882 C883 1.506 . S
C882 O900 1.261 . S
C882 O901 1.242 . S
C883 C882 1.506 . S
C883 C884 1.358 . S
C883 C888 1.382 . S
C884 C883 1.358 . S
C884 C885 1.385 . S
C884 H912 0.930 . S
C885 C884 1.385 . S
C885 C886 1.395 . S
C885 H913 0.929 . S
C886 C885 1.395 . S
C886 C887 1.335 . S
C887 C886 1.335 . S
C887 C888 1.398 . S
C887 H914 0.930 . S
C888 C883 1.382 . S
C888 C887 1.398 . S
C888 H915 0.929 . S
C889 O902 1.271 1_554 S
C889 O903 1.251 . S
C890 O904 1.252 . S
C890 O905 1.272 1_554 S
C891 Sm881 2.846 . S
C891 C892 1.506 . S
C891 O906 1.261 . S
C891 O907 1.242 . S
C892 C891 1.506 . S
C892 C893 1.358 . S
C892 C897 1.382 . S
C893 C892 1.358 . S
C893 C894 1.385 . S
C893 H916 0.930 . S
C894 C893 1.385 . S
C894 C895 1.395 . S
C894 H917 0.929 . S
C895 C894 1.395 . S
C895 C896 1.335 . S
C896 C895 1.335 . S
C896 C897 1.398 . S
C896 H918 0.930 . S
C897 C892 1.382 . S
C897 C896 1.398 . S
C897 H919 0.929 . S
C898 O908 1.271 1_556 S
C898 O909 1.251 . S
C899 O910 1.252 . S
C899 O911 1.272 1_556 S
O900 Sm880 2.543 . S
O900 C882 1.261 . S
O901 Sm880 2.450 . S
O901 C882 1.242 . S
O902 Sm880 2.681 1_556 S
O902 Sm881 2.386 . S
O902 C889 1.271 1_556 S
O903 Sm880 2.464 . S
O903 C889 1.251 . S
O904 Sm880 2.396 . S
O904 C890 1.252 . S
O905 Sm881 2.408 . S
O905 C890 1.272 1_556 S
O906 Sm881 2.543 . S
O906 C891 1.261 . S
O907 Sm881 2.450 . S
O907 C891 1.242 . S
O908 Sm880 2.386 . S
O908 Sm881 2.681 1_554 S
O908 C898 1.271 1_554 S
O909 Sm881 2.464 . S
O909 C898 1.251 . S
O910 Sm881 2.396 . S
O910 C899 1.252 . S
O911 Sm880 2.408 . S
O911 C899 1.272 1_554 S
H912 C884 0.930 . S
H913 C885 0.929 . S
H914 C887 0.930 . S
H915 C888 0.929 . S
H916 C893 0.930 . S
H917 C894 0.929 . S
H918 C896 0.930 . S
H919 C897 0.929 . S
Sm920 C922 2.846 . S
Sm920 O940 2.543 . S
Sm920 O941 2.450 . S
Sm920 O942 2.681 1_554 S
Sm920 O943 2.464 . S
Sm920 O944 2.396 . S
Sm920 O948 2.386 . S
Sm920 O951 2.408 . S
Sm921 C931 2.846 . S
Sm921 O942 2.386 . S
Sm921 O945 2.408 . S
Sm921 O946 2.543 . S
Sm921 O947 2.450 . S
Sm921 O948 2.681 1_556 S
Sm921 O949 2.464 . S
Sm921 O950 2.396 . S
C922 Sm920 2.846 . S
C922 C923 1.506 . S
C922 O940 1.261 . S
C922 O941 1.242 . S
C923 C922 1.506 . S
C923 C924 1.358 . S
C923 C928 1.382 . S
C924 C923 1.358 . S
C924 C925 1.385 . S
C924 H952 0.930 . S
C925 C924 1.385 . S
C925 C926 1.395 . S
C925 H953 0.929 . S
C926 C925 1.395 . S
C926 C927 1.335 . S
C927 C926 1.335 . S
C927 C928 1.398 . S
C927 H954 0.930 . S
C928 C923 1.382 . S
C928 C927 1.398 . S
C928 H955 0.929 . S
C929 O942 1.271 1_554 S
C929 O943 1.251 . S
C930 O944 1.252 . S
C930 O945 1.272 1_554 S
C931 Sm921 2.846 . S
C931 C932 1.506 . S
C931 O946 1.261 . S
C931 O947 1.242 . S
C932 C931 1.506 . S
C932 C933 1.358 . S
C932 C937 1.382 . S
C933 C932 1.358 . S
C933 C934 1.385 . S
C933 H956 0.930 . S
C934 C933 1.385 . S
C934 C935 1.395 . S
C934 H957 0.929 . S
C935 C934 1.395 . S
C935 C936 1.335 . S
C936 C935 1.335 . S
C936 C937 1.398 . S
C936 H958 0.930 . S
C937 C932 1.382 . S
C937 C936 1.398 . S
C937 H959 0.929 . S
C938 O948 1.271 1_556 S
C938 O949 1.251 . S
C939 O950 1.252 . S
C939 O951 1.272 1_556 S
O940 Sm920 2.543 . S
O940 C922 1.261 . S
O941 Sm920 2.450 . S
O941 C922 1.242 . S
O942 Sm920 2.681 1_556 S
O942 Sm921 2.386 . S
O942 C929 1.271 1_556 S
O943 Sm920 2.464 . S
O943 C929 1.251 . S
O944 Sm920 2.396 . S
O944 C930 1.252 . S
O945 Sm921 2.408 . S
O945 C930 1.272 1_556 S
O946 Sm921 2.543 . S
O946 C931 1.261 . S
O947 Sm921 2.450 . S
O947 C931 1.242 . S
O948 Sm920 2.386 . S
O948 Sm921 2.681 1_554 S
O948 C938 1.271 1_554 S
O949 Sm921 2.464 . S
O949 C938 1.251 . S
O950 Sm921 2.396 . S
O950 C939 1.252 . S
O951 Sm920 2.408 . S
O951 C939 1.272 1_554 S
H952 C924 0.930 . S
H953 C925 0.929 . S
H954 C927 0.930 . S
H955 C928 0.929 . S
H956 C933 0.930 . S
H957 C934 0.929 . S
H958 C936 0.930 . S
H959 C937 0.929 . S
Sm960 C962 2.846 . S
Sm960 O980 2.543 . S
Sm960 O981 2.450 . S
Sm960 O982 2.681 . S
Sm960 O983 2.464 . S
Sm960 O984 2.396 . S
Sm960 O988 2.386 . S
Sm960 O991 2.408 . S
Sm961 C971 2.846 . S
Sm961 O982 2.386 . S
Sm961 O985 2.408 . S
Sm961 O986 2.543 . S
Sm961 O987 2.450 . S
Sm961 O988 2.681 . S
Sm961 O989 2.464 . S
Sm961 O990 2.396 . S
C962 Sm960 2.846 . S
C962 C963 1.506 . S
C962 O980 1.261 . S
C962 O981 1.242 . S
C963 C962 1.506 . S
C963 C964 1.358 . S
C963 C968 1.382 . S
C964 C963 1.358 . S
C964 C965 1.385 1_565 S
C964 H992 0.907 1_565 S
C965 C964 1.385 1_545 S
C965 C966 1.395 1_545 S
C965 H993 0.929 . S
C966 C965 1.395 1_565 S
C966 C967 1.335 . S
C967 C966 1.335 . S
C967 C968 1.398 . S
C967 H994 0.930 . S
C968 C963 1.382 . S
C968 C967 1.398 . S
C968 H995 0.929 . S
C969 O982 1.271 . S
C969 O983 1.251 . S
C970 O984 1.252 . S
C970 O985 1.272 . S
C971 Sm961 2.846 . S
C971 C972 1.506 . S
C971 O986 1.261 . S
C971 O987 1.242 . S
C972 C971 1.506 . S
C972 C973 1.358 . S
C972 C977 1.382 . S
C973 C972 1.358 . S
C973 C974 1.385 . S
C973 H996 0.930 . S
C974 C973 1.385 . S
C974 C975 1.395 . S
C974 H997 0.929 . S
C975 C974 1.395 . S
C975 C976 1.335 . S
C976 C975 1.335 . S
C976 C977 1.398 . S
C976 H998 0.930 . S
C977 C972 1.382 . S
C977 C976 1.398 . S
C977 H999 0.929 . S
C978 O988 1.271 . S
C978 O989 1.251 . S
C979 O990 1.252 . S
C979 O991 1.272 . S
O980 Sm960 2.543 . S
O980 C962 1.261 . S
O981 Sm960 2.450 . S
O981 C962 1.242 . S
O982 Sm960 2.681 . S
O982 Sm961 2.386 . S
O982 C969 1.271 . S
O983 Sm960 2.464 . S
O983 C969 1.251 . S
O984 Sm960 2.396 . S
O984 C970 1.252 . S
O985 Sm961 2.408 . S
O985 C970 1.272 . S
O986 Sm961 2.543 . S
O986 C971 1.261 . S
O987 Sm961 2.450 . S
O987 C971 1.242 . S
O988 Sm960 2.386 . S
O988 Sm961 2.681 . S
O988 C978 1.271 . S
O989 Sm961 2.464 . S
O989 C978 1.251 . S
O990 Sm961 2.396 . S
O990 C979 1.252 . S
O991 Sm960 2.408 . S
O991 C979 1.272 . S
H992 C964 0.907 1_545 S
H993 C965 0.929 . S
H994 C967 0.930 . S
H995 C968 0.929 . S
H996 C973 0.930 . S
H997 C974 0.929 . S
H998 C976 0.930 . S
H999 C977 0.929 . S
Sm1000 C1002 2.846 . S
Sm1000 O1020 2.543 . S
Sm1000 O1021 2.450 . S
Sm1000 O1022 2.681 . S
Sm1000 O1023 2.464 . S
Sm1000 O1024 2.396 . S
Sm1000 O1028 2.386 . S
Sm1000 O1031 2.408 . S
Sm1001 C1011 2.846 . S
Sm1001 O1022 2.386 . S
Sm1001 O1025 2.408 . S
Sm1001 O1026 2.543 . S
Sm1001 O1027 2.450 . S
Sm1001 O1028 2.681 . S
Sm1001 O1029 2.464 . S
Sm1001 O1030 2.396 . S
C1002 Sm1000 2.846 . S
C1002 C1003 1.506 . S
C1002 O1020 1.261 . S
C1002 O1021 1.242 . S
C1003 C1002 1.506 . S
C1003 C1004 1.358 . S
C1003 C1008 1.382 . S
C1004 C1003 1.358 . S
C1004 C1005 1.385 1_455 S
C1004 H1032 0.925 1_455 S
C1005 C1004 1.385 1_655 S
C1005 C1006 1.395 1_655 S
C1005 H1033 0.929 . S
C1006 C1005 1.395 1_455 S
C1006 C1007 1.335 . S
C1007 C1006 1.335 . S
C1007 C1008 1.398 . S
C1007 H1034 0.930 . S
C1008 C1003 1.382 . S
C1008 C1007 1.398 . S
C1008 H1035 0.929 . S
C1009 O1022 1.271 . S
C1009 O1023 1.251 . S
C1010 O1024 1.252 . S
C1010 O1025 1.272 . S
C1011 Sm1001 2.846 . S
C1011 C1012 1.506 . S
C1011 O1026 1.261 . S
C1011 O1027 1.242 . S
C1012 C1011 1.506 . S
C1012 C1013 1.358 . S
C1012 C1017 1.382 . S
C1013 C1012 1.358 . S
C1013 C1014 1.385 . S
C1013 H1036 0.930 . S
C1014 C1013 1.385 . S
C1014 C1015 1.395 . S
C1014 H1037 0.929 . S
C1015 C1014 1.395 . S
C1015 C1016 1.335 . S
C1016 C1015 1.335 . S
C1016 C1017 1.398 . S
C1016 H1038 0.930 . S
C1017 C1012 1.382 . S
C1017 C1016 1.398 . S
C1017 H1039 0.929 . S
C1018 O1028 1.271 . S
C1018 O1029 1.251 . S
C1019 O1030 1.252 . S
C1019 O1031 1.272 . S
O1020 Sm1000 2.543 . S
O1020 C1002 1.261 . S
O1021 Sm1000 2.450 . S
O1021 C1002 1.242 . S
O1022 Sm1000 2.681 . S
O1022 Sm1001 2.386 . S
O1022 C1009 1.271 . S
O1023 Sm1000 2.464 . S
O1023 C1009 1.251 . S
O1024 Sm1000 2.396 . S
O1024 C1010 1.252 . S
O1025 Sm1001 2.408 . S
O1025 C1010 1.272 . S
O1026 Sm1001 2.543 . S
O1026 C1011 1.261 . S
O1027 Sm1001 2.450 . S
O1027 C1011 1.242 . S
O1028 Sm1000 2.386 . S
O1028 Sm1001 2.681 . S
O1028 C1018 1.271 . S
O1029 Sm1001 2.464 . S
O1029 C1018 1.251 . S
O1030 Sm1001 2.396 . S
O1030 C1019 1.252 . S
O1031 Sm1000 2.408 . S
O1031 C1019 1.272 . S
H1032 C1004 0.925 1_655 S
H1033 C1005 0.929 . S
H1034 C1007 0.930 . S
H1035 C1008 0.929 . S
H1036 C1013 0.930 . S
H1037 C1014 0.929 . S
H1038 C1016 0.930 . S
H1039 C1017 0.929 . S
Sm1040 C1042 2.846 . S
Sm1040 O1060 2.543 . S
Sm1040 O1061 2.450 . S
Sm1040 O1062 2.681 . S
Sm1040 O1063 2.464 . S
Sm1040 O1064 2.396 . S
Sm1040 O1068 2.386 . S
Sm1040 O1071 2.408 . S
Sm1041 C1051 2.846 . S
Sm1041 O1062 2.386 . S
Sm1041 O1065 2.408 . S
Sm1041 O1066 2.543 . S
Sm1041 O1067 2.450 . S
Sm1041 O1068 2.681 . S
Sm1041 O1069 2.464 . S
Sm1041 O1070 2.396 . S
C1042 Sm1040 2.846 . S
C1042 C1043 1.506 . S
C1042 O1060 1.261 . S
C1042 O1061 1.242 . S
C1043 C1042 1.506 . S
C1043 C1044 1.358 . S
C1043 C1048 1.382 . S
C1044 C1043 1.358 . S
C1044 C1045 1.385 . S
C1044 H1072 0.930 . S
C1045 C1044 1.385 . S
C1045 C1046 1.395 . S
C1045 H1073 0.929 . S
C1046 C1045 1.395 . S
C1046 C1047 1.335 . S
C1047 C1046 1.335 . S
C1047 C1048 1.398 . S
C1047 H1074 0.930 . S
C1048 C1043 1.382 . S
C1048 C1047 1.398 . S
C1048 H1075 0.929 . S
C1049 O1062 1.271 . S
C1049 O1063 1.251 . S
C1050 O1064 1.252 . S
C1050 O1065 1.272 . S
C1051 Sm1041 2.846 . S
C1051 C1052 1.506 . S
C1051 O1066 1.261 . S
C1051 O1067 1.242 . S
C1052 C1051 1.506 . S
C1052 C1053 1.358 . S
C1052 C1057 1.382 . S
C1053 C1052 1.358 . S
C1053 C1054 1.385 . S
C1053 H1076 0.930 . S
C1054 C1053 1.385 . S
C1054 C1055 1.395 . S
C1054 H1077 0.929 . S
C1055 C1054 1.395 . S
C1055 C1056 1.335 . S
C1056 C1055 1.335 . S
C1056 C1057 1.398 . S
C1056 H1078 0.930 . S
C1057 C1052 1.382 . S
C1057 C1056 1.398 . S
C1057 H1079 0.929 . S
C1058 O1068 1.271 . S
C1058 O1069 1.251 . S
C1059 O1070 1.252 . S
C1059 O1071 1.272 . S
O1060 Sm1040 2.543 . S
O1060 C1042 1.261 . S
O1061 Sm1040 2.450 . S
O1061 C1042 1.242 . S
O1062 Sm1040 2.681 . S
O1062 Sm1041 2.386 . S
O1062 C1049 1.271 . S
O1063 Sm1040 2.464 . S
O1063 C1049 1.251 . S
O1064 Sm1040 2.396 . S
O1064 C1050 1.252 . S
O1065 Sm1041 2.408 . S
O1065 C1050 1.272 . S
O1066 Sm1041 2.543 . S
O1066 C1051 1.261 . S
O1067 Sm1041 2.450 . S
O1067 C1051 1.242 . S
O1068 Sm1040 2.386 . S
O1068 Sm1041 2.681 . S
O1068 C1058 1.271 . S
O1069 Sm1041 2.464 . S
O1069 C1058 1.251 . S
O1070 Sm1041 2.396 . S
O1070 C1059 1.252 . S
O1071 Sm1040 2.408 . S
O1071 C1059 1.272 . S
H1072 C1044 0.930 . S
H1073 C1045 0.929 . S
H1074 C1047 0.930 . S
H1075 C1048 0.929 . S
H1076 C1053 0.930 . S
H1077 C1054 0.929 . S
H1078 C1056 0.930 . S
H1079 C1057 0.929 . S
Sm1080 C1082 2.846 . S
Sm1080 O1100 2.543 . S
Sm1080 O1101 2.450 . S
Sm1080 O1102 2.681 1_554 S
Sm1080 O1103 2.464 . S
Sm1080 O1104 2.396 . S
Sm1080 O1108 2.386 . S
Sm1080 O1111 2.408 . S
Sm1081 C1091 2.846 . S
Sm1081 O1102 2.386 . S
Sm1081 O1105 2.408 . S
Sm1081 O1106 2.543 . S
Sm1081 O1107 2.450 . S
Sm1081 O1108 2.681 1_556 S
Sm1081 O1109 2.464 . S
Sm1081 O1110 2.396 . S
C1082 Sm1080 2.846 . S
C1082 C1083 1.506 . S
C1082 O1100 1.261 . S
C1082 O1101 1.242 . S
C1083 C1082 1.506 . S
C1083 C1084 1.358 . S
C1083 C1088 1.382 . S
C1084 C1083 1.358 . S
C1084 C1085 1.385 . S
C1084 H1112 0.930 . S
C1085 C1084 1.385 . S
C1085 C1086 1.395 . S
C1085 H1113 0.929 . S
C1086 C1085 1.395 . S
C1086 C1087 1.335 . S
C1087 C1086 1.335 . S
C1087 C1088 1.398 . S
C1087 H1114 0.930 . S
C1088 C1083 1.382 . S
C1088 C1087 1.398 . S
C1088 H1115 0.929 . S
C1089 O1102 1.271 1_554 S
C1089 O1103 1.251 . S
C1090 O1104 1.252 . S
C1090 O1105 1.272 1_554 S
C1091 Sm1081 2.846 . S
C1091 C1092 1.506 . S
C1091 O1106 1.261 . S
C1091 O1107 1.242 . S
C1092 C1091 1.506 . S
C1092 C1093 1.358 . S
C1092 C1097 1.382 . S
C1093 C1092 1.358 . S
C1093 C1094 1.385 . S
C1093 H1116 0.930 . S
C1094 C1093 1.385 . S
C1094 C1095 1.395 . S
C1094 H1117 0.929 . S
C1095 C1094 1.395 . S
C1095 C1096 1.335 . S
C1096 C1095 1.335 . S
C1096 C1097 1.398 . S
C1096 H1118 0.930 . S
C1097 C1092 1.382 . S
C1097 C1096 1.398 . S
C1097 H1119 0.929 . S
C1098 O1108 1.271 1_556 S
C1098 O1109 1.251 . S
C1099 O1110 1.252 . S
C1099 O1111 1.272 1_556 S
O1100 Sm1080 2.543 . S
O1100 C1082 1.261 . S
O1101 Sm1080 2.450 . S
O1101 C1082 1.242 . S
O1102 Sm1080 2.681 1_556 S
O1102 Sm1081 2.386 . S
O1102 C1089 1.271 1_556 S
O1103 Sm1080 2.464 . S
O1103 C1089 1.251 . S
O1104 Sm1080 2.396 . S
O1104 C1090 1.252 . S
O1105 Sm1081 2.408 . S
O1105 C1090 1.272 1_556 S
O1106 Sm1081 2.543 . S
O1106 C1091 1.261 . S
O1107 Sm1081 2.450 . S
O1107 C1091 1.242 . S
O1108 Sm1080 2.386 . S
O1108 Sm1081 2.681 1_554 S
O1108 C1098 1.271 1_554 S
O1109 Sm1081 2.464 . S
O1109 C1098 1.251 . S
O1110 Sm1081 2.396 . S
O1110 C1099 1.252 . S
O1111 Sm1080 2.408 . S
O1111 C1099 1.272 1_554 S
H1112 C1084 0.930 . S
H1113 C1085 0.929 . S
H1114 C1087 0.930 . S
H1115 C1088 0.929 . S
H1116 C1093 0.930 . S
H1117 C1094 0.929 . S
H1118 C1096 0.930 . S
H1119 C1097 0.929 . S
Sm1120 C1122 2.846 . S
Sm1120 O1140 2.543 . S
Sm1120 O1141 2.450 . S
Sm1120 O1142 2.681 1_554 S
Sm1120 O1143 2.464 . S
Sm1120 O1144 2.396 . S
Sm1120 O1148 2.386 . S
Sm1120 O1151 2.408 . S
Sm1121 C1131 2.846 . S
Sm1121 O1142 2.386 . S
Sm1121 O1145 2.408 . S
Sm1121 O1146 2.543 . S
Sm1121 O1147 2.450 . S
Sm1121 O1148 2.681 1_556 S
Sm1121 O1149 2.464 . S
Sm1121 O1150 2.396 . S
C1122 Sm1120 2.846 . S
C1122 C1123 1.506 . S
C1122 O1140 1.261 . S
C1122 O1141 1.242 . S
C1123 C1122 1.506 . S
C1123 C1124 1.358 . S
C1123 C1128 1.382 . S
C1124 C1123 1.358 . S
C1124 C1125 1.385 . S
C1124 H1152 0.930 . S
C1125 C1124 1.385 . S
C1125 C1126 1.395 . S
C1125 H1153 0.929 . S
C1126 C1125 1.395 . S
C1126 C1127 1.335 . S
C1127 C1126 1.335 . S
C1127 C1128 1.398 . S
C1127 H1154 0.930 . S
C1128 C1123 1.382 . S
C1128 C1127 1.398 . S
C1128 H1155 0.929 . S
C1129 O1142 1.271 1_554 S
C1129 O1143 1.251 . S
C1130 O1144 1.252 . S
C1130 O1145 1.272 1_554 S
C1131 Sm1121 2.846 . S
C1131 C1132 1.506 . S
C1131 O1146 1.261 . S
C1131 O1147 1.242 . S
C1132 C1131 1.506 . S
C1132 C1133 1.358 . S
C1132 C1137 1.382 . S
C1133 C1132 1.358 . S
C1133 C1134 1.385 . S
C1133 H1156 0.930 . S
C1134 C1133 1.385 . S
C1134 C1135 1.395 . S
C1134 H1157 0.929 . S
C1135 C1134 1.395 . S
C1135 C1136 1.335 . S
C1136 C1135 1.335 . S
C1136 C1137 1.398 . S
C1136 H1158 0.930 . S
C1137 C1132 1.382 . S
C1137 C1136 1.398 . S
C1137 H1159 0.929 . S
C1138 O1148 1.271 1_556 S
C1138 O1149 1.251 . S
C1139 O1150 1.252 . S
C1139 O1151 1.272 1_556 S
O1140 Sm1120 2.543 . S
O1140 C1122 1.261 . S
O1141 Sm1120 2.450 . S
O1141 C1122 1.242 . S
O1142 Sm1120 2.681 1_556 S
O1142 Sm1121 2.386 . S
O1142 C1129 1.271 1_556 S
O1143 Sm1120 2.464 . S
O1143 C1129 1.251 . S
O1144 Sm1120 2.396 . S
O1144 C1130 1.252 . S
O1145 Sm1121 2.408 . S
O1145 C1130 1.272 1_556 S
O1146 Sm1121 2.543 . S
O1146 C1131 1.261 . S
O1147 Sm1121 2.450 . S
O1147 C1131 1.242 . S
O1148 Sm1120 2.386 . S
O1148 Sm1121 2.681 1_554 S
O1148 C1138 1.271 1_554 S
O1149 Sm1121 2.464 . S
O1149 C1138 1.251 . S
O1150 Sm1121 2.396 . S
O1150 C1139 1.252 . S
O1151 Sm1120 2.408 . S
O1151 C1139 1.272 1_554 S
H1152 C1124 0.930 . S
H1153 C1125 0.929 . S
H1154 C1127 0.930 . S
H1155 C1128 0.929 . S
H1156 C1133 0.930 . S
H1157 C1134 0.929 . S
H1158 C1136 0.930 . S
H1159 C1137 0.929 . S
Sm1160 C1162 2.846 . S
Sm1160 O1180 2.543 . S
Sm1160 O1181 2.450 . S
Sm1160 O1182 2.681 1_554 S
Sm1160 O1183 2.464 . S
Sm1160 O1184 2.396 . S
Sm1160 O1188 2.386 . S
Sm1160 O1191 2.408 . S
Sm1161 C1171 2.846 . S
Sm1161 O1182 2.386 . S
Sm1161 O1185 2.408 . S
Sm1161 O1186 2.543 . S
Sm1161 O1187 2.450 . S
Sm1161 O1188 2.681 1_556 S
Sm1161 O1189 2.464 . S
Sm1161 O1190 2.396 . S
C1162 Sm1160 2.846 . S
C1162 C1163 1.506 . S
C1162 O1180 1.261 . S
C1162 O1181 1.242 . S
C1163 C1162 1.506 . S
C1163 C1164 1.358 . S
C1163 C1168 1.382 . S
C1164 C1163 1.358 . S
C1164 C1165 1.385 . S
C1164 H1192 0.930 . S
C1165 C1164 1.385 . S
C1165 C1166 1.395 . S
C1165 H1193 0.929 . S
C1166 C1165 1.395 . S
C1166 C1167 1.335 . S
C1167 C1166 1.335 . S
C1167 C1168 1.398 . S
C1167 H1194 0.930 . S
C1168 C1163 1.382 . S
C1168 C1167 1.398 . S
C1168 H1195 0.929 . S
C1169 O1182 1.271 1_554 S
C1169 O1183 1.251 . S
C1170 O1184 1.252 . S
C1170 O1185 1.272 1_554 S
C1171 Sm1161 2.846 . S
C1171 C1172 1.506 . S
C1171 O1186 1.261 . S
C1171 O1187 1.242 . S
C1172 C1171 1.506 . S
C1172 C1173 1.358 . S
C1172 C1177 1.382 . S
C1173 C1172 1.358 . S
C1173 C1174 1.385 . S
C1173 H1196 0.930 . S
C1174 C1173 1.385 . S
C1174 C1175 1.395 . S
C1174 H1197 0.929 . S
C1175 C1174 1.395 . S
C1175 C1176 1.335 . S
C1176 C1175 1.335 . S
C1176 C1177 1.398 . S
C1176 H1198 0.930 . S
C1177 C1172 1.382 . S
C1177 C1176 1.398 . S
C1177 H1199 0.929 . S
C1178 O1188 1.271 1_556 S
C1178 O1189 1.251 . S
C1179 O1190 1.252 . S
C1179 O1191 1.272 1_556 S
O1180 Sm1160 2.543 . S
O1180 C1162 1.261 . S
O1181 Sm1160 2.450 . S
O1181 C1162 1.242 . S
O1182 Sm1160 2.681 1_556 S
O1182 Sm1161 2.386 . S
O1182 C1169 1.271 1_556 S
O1183 Sm1160 2.464 . S
O1183 C1169 1.251 . S
O1184 Sm1160 2.396 . S
O1184 C1170 1.252 . S
O1185 Sm1161 2.408 . S
O1185 C1170 1.272 1_556 S
O1186 Sm1161 2.543 . S
O1186 C1171 1.261 . S
O1187 Sm1161 2.450 . S
O1187 C1171 1.242 . S
O1188 Sm1160 2.386 . S
O1188 Sm1161 2.681 1_554 S
O1188 C1178 1.271 1_554 S
O1189 Sm1161 2.464 . S
O1189 C1178 1.251 . S
O1190 Sm1161 2.396 . S
O1190 C1179 1.252 . S
O1191 Sm1160 2.408 . S
O1191 C1179 1.272 1_554 S
H1192 C1164 0.930 . S
H1193 C1165 0.929 . S
H1194 C1167 0.930 . S
H1195 C1168 0.929 . S
H1196 C1173 0.930 . S
H1197 C1174 0.929 . S
H1198 C1176 0.930 . S
H1199 C1177 0.929 . S
Sm1200 C1202 2.846 . S
Sm1200 O1220 2.543 . S
Sm1200 O1221 2.450 . S
Sm1200 O1222 2.681 . S
Sm1200 O1223 2.464 . S
Sm1200 O1224 2.396 . S
Sm1200 O1228 2.386 . S
Sm1200 O1231 2.408 . S
Sm1201 C1211 2.846 . S
Sm1201 O1222 2.386 . S
Sm1201 O1225 2.408 . S
Sm1201 O1226 2.543 . S
Sm1201 O1227 2.450 . S
Sm1201 O1228 2.681 . S
Sm1201 O1229 2.464 . S
Sm1201 O1230 2.396 . S
C1202 Sm1200 2.846 . S
C1202 C1203 1.506 . S
C1202 O1220 1.261 . S
C1202 O1221 1.242 . S
C1203 C1202 1.506 . S
C1203 C1204 1.358 . S
C1203 C1208 1.382 . S
C1204 C1203 1.358 . S
C1204 C1205 1.385 . S
C1204 H1232 0.930 . S
C1205 C1204 1.385 . S
C1205 C1206 1.395 . S
C1205 H1233 0.929 . S
C1206 C1205 1.395 . S
C1206 C1207 1.335 . S
C1207 C1206 1.335 . S
C1207 C1208 1.398 . S
C1207 H1234 0.930 . S
C1208 C1203 1.382 . S
C1208 C1207 1.398 . S
C1208 H1235 0.929 . S
C1209 O1222 1.271 . S
C1209 O1223 1.251 . S
C1210 O1224 1.252 . S
C1210 O1225 1.272 . S
C1211 Sm1201 2.846 . S
C1211 C1212 1.506 . S
C1211 O1226 1.261 . S
C1211 O1227 1.242 . S
C1212 C1211 1.506 . S
C1212 C1213 1.358 . S
C1212 C1217 1.382 . S
C1213 C1212 1.358 . S
C1213 C1214 1.385 . S
C1213 H1236 0.930 . S
C1214 C1213 1.385 . S
C1214 C1215 1.395 . S
C1214 H1237 0.929 . S
C1215 C1214 1.395 . S
C1215 C1216 1.335 . S
C1216 C1215 1.335 . S
C1216 C1217 1.398 . S
C1216 H1238 0.930 . S
C1217 C1212 1.382 . S
C1217 C1216 1.398 . S
C1217 H1239 0.929 . S
C1218 O1228 1.271 . S
C1218 O1229 1.251 . S
C1219 O1230 1.252 . S
C1219 O1231 1.272 . S
O1220 Sm1200 2.543 . S
O1220 C1202 1.261 . S
O1221 Sm1200 2.450 . S
O1221 C1202 1.242 . S
O1222 Sm1200 2.681 . S
O1222 Sm1201 2.386 . S
O1222 C1209 1.271 . S
O1223 Sm1200 2.464 . S
O1223 C1209 1.251 . S
O1224 Sm1200 2.396 . S
O1224 C1210 1.252 . S
O1225 Sm1201 2.408 . S
O1225 C1210 1.272 . S
O1226 Sm1201 2.543 . S
O1226 C1211 1.261 . S
O1227 Sm1201 2.450 . S
O1227 C1211 1.242 . S
O1228 Sm1200 2.386 . S
O1228 Sm1201 2.681 . S
O1228 C1218 1.271 . S
O1229 Sm1201 2.464 . S
O1229 C1218 1.251 . S
O1230 Sm1201 2.396 . S
O1230 C1219 1.252 . S
O1231 Sm1200 2.408 . S
O1231 C1219 1.272 . S
H1232 C1204 0.930 . S
H1233 C1205 0.929 . S
H1234 C1207 0.930 . S
H1235 C1208 0.929 . S
H1236 C1213 0.930 . S
H1237 C1214 0.929 . S
H1238 C1216 0.930 . S
H1239 C1217 0.929 . S
Sm1240 C1242 2.846 . S
Sm1240 O1260 2.543 . S
Sm1240 O1261 2.450 . S
Sm1240 O1262 2.681 . S
Sm1240 O1263 2.464 . S
Sm1240 O1264 2.396 . S
Sm1240 O1268 2.386 . S
Sm1240 O1271 2.408 . S
Sm1241 C1251 2.846 . S
Sm1241 O1262 2.386 . S
Sm1241 O1265 2.408 . S
Sm1241 O1266 2.543 . S
Sm1241 O1267 2.450 . S
Sm1241 O1268 2.681 . S
Sm1241 O1269 2.464 . S
Sm1241 O1270 2.396 . S
C1242 Sm1240 2.846 . S
C1242 C1243 1.506 . S
C1242 O1260 1.261 . S
C1242 O1261 1.242 . S
C1243 C1242 1.506 . S
C1243 C1244 1.358 . S
C1243 C1248 1.382 . S
C1244 C1243 1.358 . S
C1244 C1245 1.385 . S
C1244 H1272 0.930 . S
C1245 C1244 1.385 . S
C1245 C1246 1.395 . S
C1245 H1273 0.929 . S
C1246 C1245 1.395 . S
C1246 C1247 1.335 . S
C1247 C1246 1.335 . S
C1247 C1248 1.398 . S
C1247 H1274 0.930 . S
C1248 C1243 1.382 . S
C1248 C1247 1.398 . S
C1248 H1275 0.929 . S
C1249 O1262 1.271 . S
C1249 O1263 1.251 . S
C1250 O1264 1.252 . S
C1250 O1265 1.272 . S
C1251 Sm1241 2.846 . S
C1251 C1252 1.506 . S
C1251 O1266 1.261 . S
C1251 O1267 1.242 . S
C1252 C1251 1.506 . S
C1252 C1253 1.358 . S
C1252 C1257 1.382 . S
C1253 C1252 1.358 . S
C1253 C1254 1.385 . S
C1253 H1276 0.930 . S
C1254 C1253 1.385 . S
C1254 C1255 1.395 . S
C1254 H1277 0.929 . S
C1255 C1254 1.395 . S
C1255 C1256 1.335 . S
C1256 C1255 1.335 . S
C1256 C1257 1.398 . S
C1256 H1278 0.930 . S
C1257 C1252 1.382 . S
C1257 C1256 1.398 . S
C1257 H1279 0.929 . S
C1258 O1268 1.271 . S
C1258 O1269 1.251 . S
C1259 O1270 1.252 . S
C1259 O1271 1.272 . S
O1260 Sm1240 2.543 . S
O1260 C1242 1.261 . S
O1261 Sm1240 2.450 . S
O1261 C1242 1.242 . S
O1262 Sm1240 2.681 . S
O1262 Sm1241 2.386 . S
O1262 C1249 1.271 . S
O1263 Sm1240 2.464 . S
O1263 C1249 1.251 . S
O1264 Sm1240 2.396 . S
O1264 C1250 1.252 . S
O1265 Sm1241 2.408 . S
O1265 C1250 1.272 . S
O1266 Sm1241 2.543 . S
O1266 C1251 1.261 . S
O1267 Sm1241 2.450 . S
O1267 C1251 1.242 . S
O1268 Sm1240 2.386 . S
O1268 Sm1241 2.681 . S
O1268 C1258 1.271 . S
O1269 Sm1241 2.464 . S
O1269 C1258 1.251 . S
O1270 Sm1241 2.396 . S
O1270 C1259 1.252 . S
O1271 Sm1240 2.408 . S
O1271 C1259 1.272 . S
H1272 C1244 0.930 . S
H1273 C1245 0.929 . S
H1274 C1247 0.930 . S
H1275 C1248 0.929 . S
H1276 C1253 0.930 . S
H1277 C1254 0.929 . S
H1278 C1256 0.930 . S
H1279 C1257 0.929 . S
Sm1280 C1282 2.846 . S
Sm1280 O1300 2.543 . S
Sm1280 O1301 2.450 . S
Sm1280 O1302 2.681 . S
Sm1280 O1303 2.464 . S
Sm1280 O1304 2.396 . S
Sm1280 O1308 2.386 . S
Sm1280 O1311 2.408 . S
Sm1281 C1291 2.846 . S
Sm1281 O1302 2.386 . S
Sm1281 O1305 2.408 . S
Sm1281 O1306 2.543 . S
Sm1281 O1307 2.450 . S
Sm1281 O1308 2.681 . S
Sm1281 O1309 2.464 . S
Sm1281 O1310 2.396 . S
C1282 Sm1280 2.846 . S
C1282 C1283 1.506 . S
C1282 O1300 1.261 . S
C1282 O1301 1.242 . S
C1283 C1282 1.506 . S
C1283 C1284 1.358 . S
C1283 C1288 1.382 . S
C1284 C1283 1.358 . S
C1284 C1285 1.385 . S
C1284 H1312 0.930 . S
C1285 C1284 1.385 . S
C1285 C1286 1.395 . S
C1285 H1313 0.929 . S
C1286 C1285 1.395 . S
C1286 C1287 1.335 . S
C1287 C1286 1.335 . S
C1287 C1288 1.398 . S
C1287 H1314 0.930 . S
C1288 C1283 1.382 . S
C1288 C1287 1.398 . S
C1288 H1315 0.929 . S
C1289 O1302 1.271 . S
C1289 O1303 1.251 . S
C1290 O1304 1.252 . S
C1290 O1305 1.272 . S
C1291 Sm1281 2.846 . S
C1291 C1292 1.506 . S
C1291 O1306 1.261 . S
C1291 O1307 1.242 . S
C1292 C1291 1.506 . S
C1292 C1293 1.358 . S
C1292 C1297 1.382 . S
C1293 C1292 1.358 . S
C1293 C1294 1.385 . S
C1293 H1316 0.930 . S
C1294 C1293 1.385 . S
C1294 C1295 1.395 . S
C1294 H1317 0.929 . S
C1295 C1294 1.395 . S
C1295 C1296 1.335 . S
C1296 C1295 1.335 . S
C1296 C1297 1.398 . S
C1296 H1318 0.930 . S
C1297 C1292 1.382 . S
C1297 C1296 1.398 . S
C1297 H1319 0.929 . S
C1298 O1308 1.271 . S
C1298 O1309 1.251 . S
C1299 O1310 1.252 . S
C1299 O1311 1.272 . S
O1300 Sm1280 2.543 . S
O1300 C1282 1.261 . S
O1301 Sm1280 2.450 . S
O1301 C1282 1.242 . S
O1302 Sm1280 2.681 . S
O1302 Sm1281 2.386 . S
O1302 C1289 1.271 . S
O1303 Sm1280 2.464 . S
O1303 C1289 1.251 . S
O1304 Sm1280 2.396 . S
O1304 C1290 1.252 . S
O1305 Sm1281 2.408 . S
O1305 C1290 1.272 . S
O1306 Sm1281 2.543 . S
O1306 C1291 1.261 . S
O1307 Sm1281 2.450 . S
O1307 C1291 1.242 . S
O1308 Sm1280 2.386 . S
O1308 Sm1281 2.681 . S
O1308 C1298 1.271 . S
O1309 Sm1281 2.464 . S
O1309 C1298 1.251 . S
O1310 Sm1281 2.396 . S
O1310 C1299 1.252 . S
O1311 Sm1280 2.408 . S
O1311 C1299 1.272 . S
H1312 C1284 0.930 . S
H1313 C1285 0.929 . S
H1314 C1287 0.930 . S
H1315 C1288 0.929 . S
H1316 C1293 0.930 . S
H1317 C1294 0.929 . S
H1318 C1296 0.930 . S
H1319 C1297 0.929 . S
Sm1320 C1322 2.846 . S
Sm1320 O1340 2.543 . S
Sm1320 O1341 2.450 . S
Sm1320 O1342 2.681 . S
Sm1320 O1343 2.464 . S
Sm1320 O1344 2.396 . S
Sm1320 O1348 2.386 . S
Sm1320 O1351 2.408 . S
Sm1321 C1331 2.846 . S
Sm1321 O1342 2.386 . S
Sm1321 O1345 2.408 . S
Sm1321 O1346 2.543 . S
Sm1321 O1347 2.450 . S
Sm1321 O1348 2.681 . S
Sm1321 O1349 2.464 . S
Sm1321 O1350 2.396 . S
C1322 Sm1320 2.846 . S
C1322 C1323 1.506 . S
C1322 O1340 1.261 . S
C1322 O1341 1.242 . S
C1323 C1322 1.506 . S
C1323 C1324 1.358 . S
C1323 C1328 1.382 . S
C1324 C1323 1.358 . S
C1324 C1325 1.385 . S
C1324 H1352 0.930 . S
C1325 C1324 1.385 . S
C1325 C1326 1.395 . S
C1325 H1353 0.929 . S
C1326 C1325 1.395 . S
C1326 C1327 1.335 . S
C1327 C1326 1.335 . S
C1327 C1328 1.398 . S
C1327 H1354 0.930 . S
C1328 C1323 1.382 . S
C1328 C1327 1.398 . S
C1328 H1355 0.929 . S
C1329 O1342 1.271 . S
C1329 O1343 1.251 . S
C1330 O1344 1.252 . S
C1330 O1345 1.272 . S
C1331 Sm1321 2.846 . S
C1331 C1332 1.506 . S
C1331 O1346 1.261 . S
C1331 O1347 1.242 . S
C1332 C1331 1.506 . S
C1332 C1333 1.358 . S
C1332 C1337 1.382 . S
C1333 C1332 1.358 . S
C1333 C1334 1.385 1_455 S
C1333 H1356 0.930 1_455 S
C1334 C1333 1.385 1_655 S
C1334 C1335 1.395 1_655 S
C1334 H1357 0.929 . S
C1335 C1334 1.395 1_455 S
C1335 C1336 1.335 . S
C1336 C1335 1.335 . S
C1336 C1337 1.398 . S
C1336 H1358 0.930 . S
C1337 C1332 1.382 . S
C1337 C1336 1.398 . S
C1337 H1359 0.929 . S
C1338 O1348 1.271 . S
C1338 O1349 1.251 . S
C1339 O1350 1.252 . S
C1339 O1351 1.272 . S
O1340 Sm1320 2.543 . S
O1340 C1322 1.261 . S
O1341 Sm1320 2.450 . S
O1341 C1322 1.242 . S
O1342 Sm1320 2.681 . S
O1342 Sm1321 2.386 . S
O1342 C1329 1.271 . S
O1343 Sm1320 2.464 . S
O1343 C1329 1.251 . S
O1344 Sm1320 2.396 . S
O1344 C1330 1.252 . S
O1345 Sm1321 2.408 . S
O1345 C1330 1.272 . S
O1346 Sm1321 2.543 . S
O1346 C1331 1.261 . S
O1347 Sm1321 2.450 . S
O1347 C1331 1.242 . S
O1348 Sm1320 2.386 . S
O1348 Sm1321 2.681 . S
O1348 C1338 1.271 . S
O1349 Sm1321 2.464 . S
O1349 C1338 1.251 . S
O1350 Sm1321 2.396 . S
O1350 C1339 1.252 . S
O1351 Sm1320 2.408 . S
O1351 C1339 1.272 . S
H1352 C1324 0.930 . S
H1353 C1325 0.929 . S
H1354 C1327 0.930 . S
H1355 C1328 0.929 . S
H1356 C1333 0.930 1_655 S
H1357 C1334 0.929 . S
H1358 C1336 0.930 . S
H1359 C1337 0.929 . S
Sm1360 C1362 2.846 . S
Sm1360 O1380 2.543 . S
Sm1360 O1381 2.450 . S
Sm1360 O1382 2.681 . S
Sm1360 O1383 2.464 . S
Sm1360 O1384 2.396 . S
Sm1360 O1388 2.386 . S
Sm1360 O1391 2.408 . S
Sm1361 C1371 2.846 . S
Sm1361 O1382 2.386 . S
Sm1361 O1385 2.408 . S
Sm1361 O1386 2.543 . S
Sm1361 O1387 2.450 . S
Sm1361 O1388 2.681 . S
Sm1361 O1389 2.464 . S
Sm1361 O1390 2.396 . S
C1362 Sm1360 2.846 . S
C1362 C1363 1.506 . S
C1362 O1380 1.261 . S
C1362 O1381 1.242 . S
C1363 C1362 1.506 . S
C1363 C1364 1.358 . S
C1363 C1368 1.382 . S
C1364 C1363 1.358 . S
C1364 C1365 1.385 . S
C1364 H1392 0.930 . S
C1365 C1364 1.385 . S
C1365 C1366 1.395 . S
C1365 H1393 0.929 . S
C1366 C1365 1.395 . S
C1366 C1367 1.335 . S
C1367 C1366 1.335 . S
C1367 C1368 1.398 . S
C1367 H1394 0.930 . S
C1368 C1363 1.382 . S
C1368 C1367 1.398 . S
C1368 H1395 0.929 . S
C1369 O1382 1.271 . S
C1369 O1383 1.251 . S
C1370 O1384 1.252 . S
C1370 O1385 1.272 . S
C1371 Sm1361 2.846 . S
C1371 C1372 1.506 . S
C1371 O1386 1.261 . S
C1371 O1387 1.242 . S
C1372 C1371 1.506 . S
C1372 C1373 1.358 . S
C1372 C1377 1.382 . S
C1373 C1372 1.358 . S
C1373 C1374 1.385 . S
C1373 H1396 0.930 . S
C1374 C1373 1.385 . S
C1374 C1375 1.395 . S
C1374 H1397 0.929 . S
C1375 C1374 1.395 . S
C1375 C1376 1.335 . S
C1376 C1375 1.335 . S
C1376 C1377 1.398 . S
C1376 H1398 0.930 . S
C1377 C1372 1.382 . S
C1377 C1376 1.398 . S
C1377 H1399 0.929 . S
C1378 O1388 1.271 . S
C1378 O1389 1.251 . S
C1379 O1390 1.252 . S
C1379 O1391 1.272 . S
O1380 Sm1360 2.543 . S
O1380 C1362 1.261 . S
O1381 Sm1360 2.450 . S
O1381 C1362 1.242 . S
O1382 Sm1360 2.681 . S
O1382 Sm1361 2.386 . S
O1382 C1369 1.271 . S
O1383 Sm1360 2.464 . S
O1383 C1369 1.251 . S
O1384 Sm1360 2.396 . S
O1384 C1370 1.252 . S
O1385 Sm1361 2.408 . S
O1385 C1370 1.272 . S
O1386 Sm1361 2.543 . S
O1386 C1371 1.261 . S
O1387 Sm1361 2.450 . S
O1387 C1371 1.242 . S
O1388 Sm1360 2.386 . S
O1388 Sm1361 2.681 . S
O1388 C1378 1.271 . S
O1389 Sm1361 2.464 . S
O1389 C1378 1.251 . S
O1390 Sm1361 2.396 . S
O1390 C1379 1.252 . S
O1391 Sm1360 2.408 . S
O1391 C1379 1.272 . S
H1392 C1364 0.930 . S
H1393 C1365 0.929 . S
H1394 C1367 0.930 . S
H1395 C1368 0.929 . S
H1396 C1373 0.930 . S
H1397 C1374 0.929 . S
H1398 C1376 0.930 . S
H1399 C1377 0.929 . S
Sm1400 C1402 2.846 . S
Sm1400 O1420 2.543 . S
Sm1400 O1421 2.450 . S
Sm1400 O1422 2.681 . S
Sm1400 O1423 2.464 . S
Sm1400 O1424 2.396 . S
Sm1400 O1428 2.386 . S
Sm1400 O1431 2.408 . S
Sm1401 C1411 2.846 . S
Sm1401 O1422 2.386 . S
Sm1401 O1425 2.408 . S
Sm1401 O1426 2.543 . S
Sm1401 O1427 2.450 . S
Sm1401 O1428 2.681 . S
Sm1401 O1429 2.464 . S
Sm1401 O1430 2.396 . S
C1402 Sm1400 2.846 . S
C1402 C1403 1.506 . S
C1402 O1420 1.261 . S
C1402 O1421 1.242 . S
C1403 C1402 1.506 . S
C1403 C1404 1.358 . S
C1403 C1408 1.382 . S
C1404 C1403 1.358 . S
C1404 C1405 1.385 . S
C1404 H1432 0.930 . S
C1405 C1404 1.385 . S
C1405 C1406 1.395 . S
C1405 H1433 0.929 . S
C1406 C1405 1.395 . S
C1406 C1407 1.335 . S
C1407 C1406 1.335 . S
C1407 C1408 1.398 . S
C1407 H1434 0.930 . S
C1408 C1403 1.382 . S
C1408 C1407 1.398 . S
C1408 H1435 0.929 . S
C1409 O1422 1.271 . S
C1409 O1423 1.251 . S
C1410 O1424 1.252 . S
C1410 O1425 1.272 . S
C1411 Sm1401 2.846 . S
C1411 C1412 1.506 . S
C1411 O1426 1.261 . S
C1411 O1427 1.242 . S
C1412 C1411 1.506 . S
C1412 C1413 1.358 . S
C1412 C1417 1.382 . S
C1413 C1412 1.358 . S
C1413 C1414 1.385 1_565 S
C1413 H1436 0.930 1_565 S
C1414 C1413 1.385 1_545 S
C1414 C1415 1.395 1_545 S
C1414 H1437 0.929 . S
C1415 C1414 1.395 1_565 S
C1415 C1416 1.335 . S
C1416 C1415 1.335 . S
C1416 C1417 1.398 . S
C1416 H1438 0.930 . S
C1417 C1412 1.382 . S
C1417 C1416 1.398 . S
C1417 H1439 0.929 . S
C1418 O1428 1.271 . S
C1418 O1429 1.251 . S
C1419 O1430 1.252 . S
C1419 O1431 1.272 . S
O1420 Sm1400 2.543 . S
O1420 C1402 1.261 . S
O1421 Sm1400 2.450 . S
O1421 C1402 1.242 . S
O1422 Sm1400 2.681 . S
O1422 Sm1401 2.386 . S
O1422 C1409 1.271 . S
O1423 Sm1400 2.464 . S
O1423 C1409 1.251 . S
O1424 Sm1400 2.396 . S
O1424 C1410 1.252 . S
O1425 Sm1401 2.408 . S
O1425 C1410 1.272 . S
O1426 Sm1401 2.543 . S
O1426 C1411 1.261 . S
O1427 Sm1401 2.450 . S
O1427 C1411 1.242 . S
O1428 Sm1400 2.386 . S
O1428 Sm1401 2.681 . S
O1428 C1418 1.271 . S
O1429 Sm1401 2.464 . S
O1429 C1418 1.251 . S
O1430 Sm1401 2.396 . S
O1430 C1419 1.252 . S
O1431 Sm1400 2.408 . S
O1431 C1419 1.272 . S
H1432 C1404 0.930 . S
H1433 C1405 0.929 . S
H1434 C1407 0.930 . S
H1435 C1408 0.929 . S
H1436 C1413 0.930 1_545 S
H1437 C1414 0.929 . S
H1438 C1416 0.930 . S
H1439 C1417 0.929 . S
C1440 C1441 1.391 . S
C1440 C1442 1.394 . S
C1440 H1456 0.931 . S
C1441 C1440 1.391 . S
C1441 C1445 1.376 . S
C1442 C1440 1.394 . S
C1442 C1443 1.369 . S
C1442 C1446 1.531 . S
C1443 C1442 1.369 . S
C1443 C1444 1.410 . S
C1443 C1451 1.503 . S
C1444 C1443 1.410 . S
C1444 C1445 1.392 . S
C1444 C1447 1.511 . S
C1445 C1441 1.376 . S
C1445 C1444 1.392 . S
C1445 H1457 0.929 . S
C1446 C1442 1.531 . S
C1446 H1458 0.960 . S
C1446 H1459 0.962 . S
C1446 H1460 0.960 . S
C1447 C1444 1.511 . S
C1447 H1461 0.961 . S
C1447 H1462 0.961 . S
C1447 H1463 0.961 . S
C1448 C1449 1.370 . S
C1448 C1450 1.363 1_565 S
C1448 H1464 0.931 . S
C1449 C1448 1.370 . S
C1449 C1453 1.408 . S
C1450 C1448 1.363 1_545 S
C1450 C1451 1.370 . S
C1450 C1454 1.524 . S
C1451 C1443 1.503 . S
C1451 C1450 1.370 . S
C1451 C1452 1.403 . S
C1452 C1451 1.403 . S
C1452 C1453 1.404 1_545 S
C1452 C1455 1.539 . S
C1453 C1449 1.408 . S
C1453 C1452 1.404 1_565 S
C1453 H1465 0.930 . S
C1454 C1450 1.524 . S
C1454 H1466 0.956 . S
C1454 H1467 0.961 . S
C1454 H1468 0.961 . S
C1455 C1452 1.539 . S
C1455 H1469 0.958 . S
C1455 H1470 0.961 . S
C1455 H1471 0.960 . S
H1456 C1440 0.931 . S
H1457 C1445 0.929 . S
H1458 C1446 0.960 . S
H1459 C1446 0.962 . S
H1460 C1446 0.960 . S
H1461 C1447 0.961 . S
H1462 C1447 0.961 . S
H1463 C1447 0.961 . S
H1464 C1448 0.931 . S
H1465 C1453 0.930 . S
H1466 C1454 0.956 . S
H1467 C1454 0.961 . S
H1468 C1454 0.961 . S
H1469 C1455 0.958 . S
H1470 C1455 0.961 . S
H1471 C1455 0.960 . S
C1472 C1473 1.391 . S
C1472 C1474 1.394 1_455 S
C1472 H1488 0.931 . S
C1473 C1472 1.391 . S
C1473 C1477 1.376 1_455 S
C1474 C1472 1.394 1_655 S
C1474 C1475 1.369 . S
C1474 C1478 1.531 . S
C1475 C1474 1.369 . S
C1475 C1476 1.410 . S
C1475 C1483 1.503 . S
C1476 C1475 1.410 . S
C1476 C1477 1.392 . S
C1476 C1479 1.511 . S
C1477 C1473 1.376 1_655 S
C1477 C1476 1.392 . S
C1477 H1489 0.929 1_655 S
C1478 C1474 1.531 . S
C1478 H1490 0.960 . S
C1478 H1491 0.962 . S
C1478 H1492 0.960 . S
C1479 C1476 1.511 . S
C1479 H1493 0.961 . S
C1479 H1494 0.961 . S
C1479 H1495 0.961 . S
C1480 C1481 1.370 . S
C1480 C1482 1.363 . S
C1480 H1496 0.931 1_545 S
C1481 C1480 1.370 . S
C1481 C1485 1.408 . S
C1482 C1480 1.363 . S
C1482 C1483 1.370 . S
C1482 C1486 1.524 . S
C1483 C1475 1.503 . S
C1483 C1482 1.370 . S
C1483 C1484 1.403 . S
C1484 C1483 1.403 . S
C1484 C1485 1.404 . S
C1484 C1487 1.539 . S
C1485 C1481 1.408 . S
C1485 C1484 1.404 . S
C1485 H1497 0.930 . S
C1486 C1482 1.524 . S
C1486 H1498 0.956 . S
C1486 H1499 0.961 . S
C1486 H1500 0.961 . S
C1487 C1484 1.539 . S
C1487 H1501 0.958 . S
C1487 H1502 0.961 . S
C1487 H1503 0.960 . S
H1488 C1472 0.931 . S
H1489 C1477 0.929 1_455 S
H1490 C1478 0.960 . S
H1491 C1478 0.962 . S
H1492 C1478 0.960 . S
H1493 C1479 0.961 . S
H1494 C1479 0.961 . S
H1495 C1479 0.961 . S
H1496 C1480 0.931 1_565 S
H1497 C1485 0.930 . S
H1498 C1486 0.956 . S
H1499 C1486 0.961 . S
H1500 C1486 0.961 . S
H1501 C1487 0.958 . S
H1502 C1487 0.961 . S
H1503 C1487 0.960 . S
C1504 C1505 1.391 1_455 S
C1504 C1506 1.394 1_455 S
C1504 H1520 0.931 . S
C1505 C1504 1.391 1_655 S
C1505 C1509 1.376 . S
C1506 C1504 1.394 1_655 S
C1506 C1507 1.369 . S
C1506 C1510 1.531 . S
C1507 C1506 1.369 . S
C1507 C1508 1.410 . S
C1507 C1515 1.503 . S
C1508 C1507 1.410 . S
C1508 C1509 1.392 . S
C1508 C1511 1.511 . S
C1509 C1505 1.376 . S
C1509 C1508 1.392 . S
C1509 H1521 0.929 . S
C1510 C1506 1.531 . S
C1510 H1522 0.960 . S
C1510 H1523 0.962 . S
C1510 H1524 0.960 1_655 S
C1511 C1508 1.511 . S
C1511 H1525 0.961 . S
C1511 H1526 0.961 . S
C1511 H1527 0.961 . S
C1512 C1513 1.370 . S
C1512 C1514 1.363 . S
C1512 H1528 0.931 . S
C1513 C1512 1.370 . S
C1513 C1517 1.408 . S
C1514 C1512 1.363 . S
C1514 C1515 1.370 . S
C1514 C1518 1.524 . S
C1515 C1507 1.503 . S
C1515 C1514 1.370 . S
C1515 C1516 1.403 . S
C1516 C1515 1.403 . S
C1516 C1517 1.404 . S
C1516 C1519 1.539 . S
C1517 C1513 1.408 . S
C1517 C1516 1.404 . S
C1517 H1529 0.930 . S
C1518 C1514 1.524 . S
C1518 H1530 0.956 . S
C1518 H1531 0.961 . S
C1518 H1532 0.961 . S
C1519 C1516 1.539 . S
C1519 H1533 0.958 . S
C1519 H1534 0.961 . S
C1519 H1535 0.960 . S
H1520 C1504 0.931 . S
H1521 C1509 0.929 . S
H1522 C1510 0.960 . S
H1523 C1510 0.962 . S
H1524 C1510 0.960 1_455 S
H1525 C1511 0.961 . S
H1526 C1511 0.961 . S
H1527 C1511 0.961 . S
H1528 C1512 0.931 . S
H1529 C1517 0.930 . S
H1530 C1518 0.956 . S
H1531 C1518 0.961 . S
H1532 C1518 0.961 . S
H1533 C1519 0.958 . S
H1534 C1519 0.961 . S
H1535 C1519 0.960 . S
C1536 C1537 1.391 . S
C1536 C1538 1.394 . S
C1536 H1552 0.931 . S
C1537 C1536 1.391 . S
C1537 C1541 1.376 . S
C1538 C1536 1.394 . S
C1538 C1539 1.369 . S
C1538 C1542 1.531 . S
C1539 C1538 1.369 . S
C1539 C1540 1.410 . S
C1539 C1547 1.503 . S
C1540 C1539 1.410 . S
C1540 C1541 1.392 . S
C1540 C1543 1.511 . S
C1541 C1537 1.376 . S
C1541 C1540 1.392 . S
C1541 H1553 0.929 . S
C1542 C1538 1.531 . S
C1542 H1554 0.960 . S
C1542 H1555 0.962 . S
C1542 H1556 0.960 . S
C1543 C1540 1.511 . S
C1543 H1557 0.961 . S
C1543 H1558 0.961 . S
C1543 H1559 0.961 . S
C1544 C1545 1.370 1_455 S
C1544 C1546 1.363 . S
C1544 H1560 0.931 . S
C1545 C1544 1.370 1_655 S
C1545 C1549 1.408 . S
C1546 C1544 1.363 . S
C1546 C1547 1.370 . S
C1546 C1550 1.524 . S
C1547 C1539 1.503 . S
C1547 C1546 1.370 . S
C1547 C1548 1.403 . S
C1548 C1547 1.403 . S
C1548 C1549 1.404 1_455 S
C1548 C1551 1.539 . S
C1549 C1545 1.408 . S
C1549 C1548 1.404 1_655 S
C1549 H1561 0.930 . S
C1550 C1546 1.524 . S
C1550 H1562 0.956 . S
C1550 H1563 0.961 . S
C1550 H1564 0.961 . S
C1551 C1548 1.539 . S
C1551 H1565 0.958 . S
C1551 H1566 0.971 . S
C1551 H1567 0.960 . S
H1552 C1536 0.931 . S
H1553 C1541 0.929 . S
H1554 C1542 0.960 . S
H1555 C1542 0.962 . S
H1556 C1542 0.960 . S
H1557 C1543 0.961 . S
H1558 C1543 0.961 . S
H1559 C1543 0.961 . S
H1560 C1544 0.931 . S
H1561 C1549 0.930 . S
H1562 C1550 0.956 . S
H1563 C1550 0.961 . S
H1564 C1550 0.961 . S
H1565 C1551 0.958 . S
H1566 C1551 0.971 . S
H1567 C1551 0.960 . S
C1568 C1569 1.391 . S
C1568 C1570 1.394 . S
C1568 H1584 0.931 . S
C1569 C1568 1.391 . S
C1569 C1573 1.376 . S
C1570 C1568 1.394 . S
C1570 C1571 1.369 . S
C1570 C1574 1.531 . S
C1571 C1570 1.369 . S
C1571 C1572 1.410 . S
C1571 C1579 1.503 . S
C1572 C1571 1.410 . S
C1572 C1573 1.392 . S
C1572 C1575 1.511 . S
C1573 C1569 1.376 . S
C1573 C1572 1.392 . S
C1573 H1585 0.929 . S
C1574 C1570 1.531 . S
C1574 H1586 0.960 . S
C1574 H1587 0.962 . S
C1574 H1588 0.960 . S
C1575 C1572 1.511 . S
C1575 H1589 0.961 . S
C1575 H1590 0.961 . S
C1575 H1591 0.961 . S
C1576 C1577 1.370 . S
C1576 C1578 1.363 . S
C1576 H1592 0.931 1_565 S
C1577 C1576 1.370 . S
C1577 C1581 1.408 . S
C1578 C1576 1.363 . S
C1578 C1579 1.370 . S
C1578 C1582 1.524 . S
C1579 C1571 1.503 . S
C1579 C1578 1.370 . S
C1579 C1580 1.403 . S
C1580 C1579 1.403 . S
C1580 C1581 1.404 . S
C1580 C1583 1.539 . S
C1581 C1577 1.408 . S
C1581 C1580 1.404 . S
C1581 H1593 0.930 . S
C1582 C1578 1.524 . S
C1582 H1594 0.956 . S
C1582 H1595 0.961 . S
C1582 H1596 0.961 . S
C1583 C1580 1.539 . S
C1583 H1597 0.958 . S
C1583 H1598 0.961 . S
C1583 H1599 0.960 . S
H1584 C1568 0.931 . S
H1585 C1573 0.929 . S
H1586 C1574 0.960 . S
H1587 C1574 0.962 . S
H1588 C1574 0.960 . S
H1589 C1575 0.961 . S
H1590 C1575 0.961 . S
H1591 C1575 0.961 . S
H1592 C1576 0.931 1_545 S
H1593 C1581 0.930 . S
H1594 C1582 0.956 . S
H1595 C1582 0.961 . S
H1596 C1582 0.961 . S
H1597 C1583 0.958 . S
H1598 C1583 0.961 . S
H1599 C1583 0.960 . S
C1600 C1601 1.391 . S
C1600 C1602 1.394 . S
C1600 H1616 0.931 1_455 S
C1601 C1600 1.391 . S
C1601 C1605 1.376 . S
C1602 C1600 1.394 . S
C1602 C1603 1.369 . S
C1602 C1606 1.531 . S
C1603 C1602 1.369 . S
C1603 C1604 1.410 . S
C1603 C1611 1.503 . S
C1604 C1603 1.410 . S
C1604 C1605 1.392 . S
C1604 C1607 1.511 . S
C1605 C1601 1.376 . S
C1605 C1604 1.392 . S
C1605 H1617 0.929 . S
C1606 C1602 1.531 . S
C1606 H1618 0.960 . S
C1606 H1619 0.962 . S
C1606 H1620 0.960 . S
C1607 C1604 1.511 . S
C1607 H1621 0.961 . S
C1607 H1622 0.961 . S
C1607 H1623 0.961 . S
C1608 C1609 1.370 . S
C1608 C1610 1.363 1_545 S
C1608 H1624 0.931 . S
C1609 C1608 1.370 . S
C1609 C1613 1.408 . S
C1610 C1608 1.363 1_565 S
C1610 C1611 1.370 . S
C1610 C1614 1.524 . S
C1611 C1603 1.503 . S
C1611 C1610 1.370 . S
C1611 C1612 1.403 . S
C1612 C1611 1.403 . S
C1612 C1613 1.404 1_565 S
C1612 C1615 1.539 . S
C1613 C1609 1.408 . S
C1613 C1612 1.404 1_545 S
C1613 H1625 0.930 . S
C1614 C1610 1.524 . S
C1614 H1626 0.956 . S
C1614 H1627 0.961 . S
C1614 H1628 0.961 . S
C1615 C1612 1.539 . S
C1615 H1629 0.958 . S
C1615 H1630 0.961 . S
C1615 H1631 0.960 . S
H1616 C1600 0.931 1_655 S
H1617 C1605 0.929 . S
H1618 C1606 0.960 . S
H1619 C1606 0.962 . S
H1620 C1606 0.960 . S
H1621 C1607 0.961 . S
H1622 C1607 0.961 . S
H1623 C1607 0.961 . S
H1624 C1608 0.931 . S
H1625 C1613 0.930 . S
H1626 C1614 0.956 . S
H1627 C1614 0.961 . S
H1628 C1614 0.961 . S
H1629 C1615 0.958 . S
H1630 C1615 0.961 . S
H1631 C1615 0.960 . S
C1632 C1633 1.391 . S
C1632 C1634 1.394 . S
C1632 H1648 0.931 . S
C1633 C1632 1.391 . S
C1633 C1637 1.376 . S
C1634 C1632 1.394 . S
C1634 C1635 1.369 . S
C1634 C1638 1.531 . S
C1635 C1634 1.369 . S
C1635 C1636 1.410 . S
C1635 C1643 1.503 . S
C1636 C1635 1.410 . S
C1636 C1637 1.392 . S
C1636 C1639 1.511 . S
C1637 C1633 1.376 . S
C1637 C1636 1.392 . S
C1637 H1649 0.929 . S
C1638 C1634 1.531 . S
C1638 H1650 0.960 . S
C1638 H1651 0.962 . S
C1638 H1652 0.960 . S
C1639 C1636 1.511 . S
C1639 H1653 0.961 . S
C1639 H1654 0.961 . S
C1639 H1655 0.961 . S
C1640 C1641 1.370 1_565 S
C1640 C1642 1.363 . S
C1640 H1656 0.925 1_565 S
C1641 C1640 1.370 1_545 S
C1641 C1645 1.408 . S
C1642 C1640 1.363 . S
C1642 C1643 1.370 . S
C1642 C1646 1.524 . S
C1643 C1635 1.503 . S
C1643 C1642 1.370 . S
C1643 C1644 1.403 . S
C1644 C1643 1.403 . S
C1644 C1645 1.404 1_565 S
C1644 C1647 1.539 . S
C1645 C1641 1.408 . S
C1645 C1644 1.404 1_545 S
C1645 H1657 0.930 . S
C1646 C1642 1.524 . S
C1646 H1658 0.956 . S
C1646 H1659 0.961 . S
C1646 H1660 0.961 . S
C1647 C1644 1.539 . S
C1647 H1661 0.958 . S
C1647 H1662 0.961 . S
C1647 H1663 0.960 . S
H1648 C1632 0.931 . S
H1649 C1637 0.929 . S
H1650 C1638 0.960 . S
H1651 C1638 0.962 . S
H1652 C1638 0.960 . S
H1653 C1639 0.961 . S
H1654 C1639 0.961 . S
H1655 C1639 0.961 . S
H1656 C1640 0.925 1_545 S
H1657 C1645 0.930 . S
H1658 C1646 0.956 . S
H1659 C1646 0.961 . S
H1660 C1646 0.961 . S
H1661 C1647 0.958 . S
H1662 C1647 0.961 . S
H1663 C1647 0.960 . S
C1664 C1665 1.391 . S
C1664 C1666 1.394 . S
C1664 H1680 0.931 . S
C1665 C1664 1.391 . S
C1665 C1669 1.355 1_565 S
C1666 C1664 1.394 . S
C1666 C1667 1.369 . S
C1666 C1670 1.531 . S
C1667 C1666 1.369 . S
C1667 C1668 1.410 . S
C1667 C1675 1.503 . S
C1668 C1667 1.410 . S
C1668 C1669 1.381 1_565 S
C1668 C1671 1.511 . S
C1669 C1665 1.355 1_545 S
C1669 C1668 1.381 1_545 S
C1669 H1681 0.962 . S
C1670 C1666 1.531 . S
C1670 H1682 0.960 . S
C1670 H1683 0.962 . S
C1670 H1684 0.960 . S
C1671 C1668 1.511 . S
C1671 H1685 0.961 1_565 S
C1671 H1686 0.961 . S
C1671 H1687 0.961 . S
C1672 C1673 1.370 . S
C1672 C1674 1.363 1_655 S
C1672 H1688 0.931 . S
C1673 C1672 1.370 . S
C1673 C1677 1.408 . S
C1674 C1672 1.363 1_455 S
C1674 C1675 1.370 . S
C1674 C1678 1.524 . S
C1675 C1667 1.503 . S
C1675 C1674 1.370 . S
C1675 C1676 1.403 . S
C1676 C1675 1.403 . S
C1676 C1677 1.404 1_455 S
C1676 C1679 1.539 . S
C1677 C1673 1.408 . S
C1677 C1676 1.404 1_655 S
C1677 H1689 0.930 . S
C1678 C1674 1.524 . S
C1678 H1690 0.956 . S
C1678 H1691 0.961 . S
C1678 H1692 0.961 . S
C1679 C1676 1.539 . S
C1679 H1693 0.958 . S
C1679 H1694 0.961 . S
C1679 H1695 0.960 . S
H1680 C1664 0.931 . S
H1681 C1669 0.962 . S
H1682 C1670 0.960 . S
H1683 C1670 0.962 . S
H1684 C1670 0.960 . S
H1685 C1671 0.961 1_545 S
H1686 C1671 0.961 . S
H1687 C1671 0.961 . S
H1688 C1672 0.931 . S
H1689 C1677 0.930 . S
H1690 C1678 0.956 . S
H1691 C1678 0.961 . S
H1692 C1678 0.961 . S
H1693 C1679 0.958 . S
H1694 C1679 0.961 . S
H1695 C1679 0.960 . S
C1696 C1697 1.391 . S
C1696 C1698 1.394 . S
C1696 H1712 0.931 . S
C1697 C1696 1.391 . S
C1697 C1701 1.376 . S
C1698 C1696 1.394 . S
C1698 C1699 1.369 . S
C1698 C1702 1.531 . S
C1699 C1698 1.369 . S
C1699 C1700 1.410 . S
C1699 C1707 1.503 . S
C1700 C1699 1.410 . S
C1700 C1701 1.392 . S
C1700 C1703 1.511 . S
C1701 C1697 1.376 . S
C1701 C1700 1.392 . S
C1701 H1713 0.929 1_455 S
C1702 C1698 1.531 . S
C1702 H1714 0.960 . S
C1702 H1715 0.962 . S
C1702 H1716 0.960 . S
C1703 C1700 1.511 . S
C1703 H1717 0.961 . S
C1703 H1718 0.961 . S
C1703 H1719 0.961 . S
C1704 C1705 1.370 . S
C1704 C1706 1.363 . S
C1704 H1720 0.931 . S
C1705 C1704 1.370 . S
C1705 C1709 1.408 . S
C1706 C1704 1.363 . S
C1706 C1707 1.370 . S
C1706 C1710 1.524 . S
C1707 C1699 1.503 . S
C1707 C1706 1.370 . S
C1707 C1708 1.403 . S
C1708 C1707 1.403 . S
C1708 C1709 1.404 . S
C1708 C1711 1.539 . S
C1709 C1705 1.408 . S
C1709 C1708 1.404 . S
C1709 H1721 0.930 . S
C1710 C1706 1.524 . S
C1710 H1722 0.956 . S
C1710 H1723 0.961 . S
C1710 H1724 0.961 . S
C1711 C1708 1.539 . S
C1711 H1725 0.958 . S
C1711 H1726 0.961 . S
C1711 H1727 0.960 . S
H1712 C1696 0.931 . S
H1713 C1701 0.929 1_655 S
H1714 C1702 0.960 . S
H1715 C1702 0.962 . S
H1716 C1702 0.960 . S
H1717 C1703 0.961 . S
H1718 C1703 0.961 . S
H1719 C1703 0.961 . S
H1720 C1704 0.931 . S
H1721 C1709 0.930 . S
H1722 C1710 0.956 . S
H1723 C1710 0.961 . S
H1724 C1710 0.961 . S
H1725 C1711 0.958 . S
H1726 C1711 0.961 . S
H1727 C1711 0.960 . S
C1728 C1729 1.391 . S
C1728 C1730 1.394 . S
C1728 H1744 0.931 . S
C1729 C1728 1.391 . S
C1729 C1733 1.376 . S
C1730 C1728 1.394 . S
C1730 C1731 1.369 . S
C1730 C1734 1.531 . S
C1731 C1730 1.369 . S
C1731 C1732 1.410 . S
C1731 C1739 1.503 . S
C1732 C1731 1.410 . S
C1732 C1733 1.392 . S
C1732 C1735 1.511 . S
C1733 C1729 1.376 . S
C1733 C1732 1.392 . S
C1733 H1745 0.929 . S
C1734 C1730 1.531 . S
C1734 H1746 0.960 . S
C1734 H1747 0.962 . S
C1734 H1748 0.960 . S
C1735 C1732 1.511 . S
C1735 H1749 0.961 . S
C1735 H1750 0.961 . S
C1735 H1751 0.961 . S
C1736 C1737 1.370 . S
C1736 C1738 1.363 1_455 S
C1736 H1752 0.931 . S
C1737 C1736 1.370 . S
C1737 C1741 1.408 . S
C1738 C1736 1.363 1_655 S
C1738 C1739 1.370 . S
C1738 C1742 1.524 . S
C1739 C1731 1.503 . S
C1739 C1738 1.370 . S
C1739 C1740 1.403 . S
C1740 C1739 1.403 . S
C1740 C1741 1.404 1_655 S
C1740 C1743 1.539 . S
C1741 C1737 1.408 . S
C1741 C1740 1.404 1_455 S
C1741 H1753 0.930 . S
C1742 C1738 1.524 . S
C1742 H1754 0.956 . S
C1742 H1755 0.961 . S
C1742 H1756 0.961 . S
C1743 C1740 1.539 . S
C1743 H1757 0.958 . S
C1743 H1758 0.961 . S
C1743 H1759 0.960 . S
H1744 C1728 0.931 . S
H1745 C1733 0.929 . S
H1746 C1734 0.960 . S
H1747 C1734 0.962 . S
H1748 C1734 0.960 . S
H1749 C1735 0.961 . S
H1750 C1735 0.961 . S
H1751 C1735 0.961 . S
H1752 C1736 0.931 . S
H1753 C1741 0.930 . S
H1754 C1742 0.956 . S
H1755 C1742 0.961 . S
H1756 C1742 0.961 . S
H1757 C1743 0.958 . S
H1758 C1743 0.961 . S
H1759 C1743 0.960 . S
C1760 C1761 1.391 . S
C1760 C1762 1.394 . S
C1760 H1776 0.931 . S
C1761 C1760 1.391 . S
C1761 C1765 1.376 . S
C1762 C1760 1.394 . S
C1762 C1763 1.369 . S
C1762 C1766 1.531 . S
C1763 C1762 1.369 . S
C1763 C1764 1.410 . S
C1763 C1771 1.503 . S
C1764 C1763 1.410 . S
C1764 C1765 1.392 . S
C1764 C1767 1.511 . S
C1765 C1761 1.376 . S
C1765 C1764 1.392 . S
C1765 H1777 0.929 . S
C1766 C1762 1.531 . S
C1766 H1778 0.960 . S
C1766 H1779 0.962 . S
C1766 H1780 0.960 . S
C1767 C1764 1.511 . S
C1767 H1781 0.961 . S
C1767 H1782 0.961 . S
C1767 H1783 0.961 . S
C1768 C1769 1.370 . S
C1768 C1770 1.363 . S
C1768 H1784 0.931 . S
C1769 C1768 1.370 . S
C1769 C1773 1.402 . S
C1770 C1768 1.363 . S
C1770 C1771 1.370 . S
C1770 C1774 1.524 . S
C1771 C1763 1.503 . S
C1771 C1770 1.370 . S
C1771 C1772 1.403 . S
C1772 C1771 1.403 . S
C1772 C1773 1.428 . S
C1772 C1775 1.539 . S
C1773 C1769 1.402 . S
C1773 C1772 1.428 . S
C1773 H1785 0.913 1_545 S
C1774 C1770 1.524 . S
C1774 H1786 0.956 . S
C1774 H1787 0.961 . S
C1774 H1788 0.961 . S
C1775 C1772 1.539 . S
C1775 H1789 0.958 . S
C1775 H1790 0.961 1_545 S
C1775 H1791 0.960 . S
H1776 C1760 0.931 . S
H1777 C1765 0.929 . S
H1778 C1766 0.960 . S
H1779 C1766 0.962 . S
H1780 C1766 0.960 . S
H1781 C1767 0.961 . S
H1782 C1767 0.961 . S
H1783 C1767 0.961 . S
H1784 C1768 0.931 . S
H1785 C1773 0.913 1_565 S
H1786 C1774 0.956 . S
H1787 C1774 0.961 . S
H1788 C1774 0.961 . S
H1789 C1775 0.958 . S
H1790 C1775 0.961 1_565 S
H1791 C1775 0.960 . S
C1792 C1793 1.391 . S
C1792 C1794 1.394 1_565 S
C1792 H1808 0.931 . S
C1793 C1792 1.391 . S
C1793 C1797 1.376 . S
C1794 C1792 1.394 1_545 S
C1794 C1795 1.369 . S
C1794 C1798 1.531 . S
C1795 C1794 1.369 . S
C1795 C1796 1.410 . S
C1795 C1803 1.503 . S
C1796 C1795 1.410 . S
C1796 C1797 1.392 1_545 S
C1796 C1799 1.511 . S
C1797 C1793 1.376 . S
C1797 C1796 1.392 1_565 S
C1797 H1809 0.929 . S
C1798 C1794 1.531 . S
C1798 H1810 0.960 . S
C1798 H1811 0.962 . S
C1798 H1812 0.960 . S
C1799 C1796 1.511 . S
C1799 H1813 0.961 . S
C1799 H1814 0.961 . S
C1799 H1815 0.961 . S
C1800 C1801 1.370 . S
C1800 C1802 1.363 . S
C1800 H1816 0.931 . S
C1801 C1800 1.370 . S
C1801 C1805 1.408 1_655 S
C1802 C1800 1.363 . S
C1802 C1803 1.370 . S
C1802 C1806 1.524 . S
C1803 C1795 1.503 . S
C1803 C1802 1.370 . S
C1803 C1804 1.403 . S
C1804 C1803 1.403 . S
C1804 C1805 1.404 1_655 S
C1804 C1807 1.539 . S
C1805 C1801 1.408 1_455 S
C1805 C1804 1.404 1_455 S
C1805 H1817 0.930 . S
C1806 C1802 1.524 . S
C1806 H1818 0.956 . S
C1806 H1819 0.961 . S
C1806 H1820 0.961 . S
C1807 C1804 1.539 . S
C1807 H1821 0.958 . S
C1807 H1822 0.961 1_655 S
C1807 H1823 0.960 . S
H1808 C1792 0.931 . S
H1809 C1797 0.929 . S
H1810 C1798 0.960 . S
H1811 C1798 0.962 . S
H1812 C1798 0.960 . S
H1813 C1799 0.961 . S
H1814 C1799 0.961 . S
H1815 C1799 0.961 . S
H1816 C1800 0.931 . S
H1817 C1805 0.930 . S
H1818 C1806 0.956 . S
H1819 C1806 0.961 . S
H1820 C1806 0.961 . S
H1821 C1807 0.958 . S
H1822 C1807 0.961 1_455 S
H1823 C1807 0.960 . S
C1824 C1825 1.391 . S
C1824 C1826 1.394 . S
C1824 H1840 0.931 . S
C1825 C1824 1.391 . S
C1825 C1829 1.376 . S
C1826 C1824 1.394 . S
C1826 C1827 1.369 . S
C1826 C1830 1.531 . S
C1827 C1826 1.369 . S
C1827 C1828 1.410 . S
C1827 C1835 1.503 . S
C1828 C1827 1.410 . S
C1828 C1829 1.392 . S
C1828 C1831 1.511 . S
C1829 C1825 1.376 . S
C1829 C1828 1.392 . S
C1829 H1841 0.929 . S
C1830 C1826 1.531 . S
C1830 H1842 0.960 . S
C1830 H1843 0.962 . S
C1830 H1844 0.960 . S
C1831 C1828 1.511 . S
C1831 H1845 0.961 . S
C1831 H1846 0.961 . S
C1831 H1847 0.961 . S
C1832 C1833 1.370 . S
C1832 C1834 1.363 . S
C1832 H1848 0.931 . S
C1833 C1832 1.370 . S
C1833 C1837 1.408 . S
C1834 C1832 1.363 . S
C1834 C1835 1.370 . S
C1834 C1838 1.524 . S
C1835 C1827 1.503 . S
C1835 C1834 1.370 . S
C1835 C1836 1.403 . S
C1836 C1835 1.403 . S
C1836 C1837 1.404 . S
C1836 C1839 1.539 . S
C1837 C1833 1.408 . S
C1837 C1836 1.404 . S
C1837 H1849 0.930 . S
C1838 C1834 1.524 . S
C1838 H1850 0.956 . S
C1838 H1851 0.961 . S
C1838 H1852 0.961 . S
C1839 C1836 1.539 . S
C1839 H1853 0.958 . S
C1839 H1854 0.961 . S
C1839 H1855 0.960 . S
H1840 C1824 0.931 . S
H1841 C1829 0.929 . S
H1842 C1830 0.960 . S
H1843 C1830 0.962 . S
H1844 C1830 0.960 . S
H1845 C1831 0.961 . S
H1846 C1831 0.961 . S
H1847 C1831 0.961 . S
H1848 C1832 0.931 . S
H1849 C1837 0.930 . S
H1850 C1838 0.956 . S
H1851 C1838 0.961 . S
H1852 C1838 0.961 . S
H1853 C1839 0.958 . S
H1854 C1839 0.961 . S
H1855 C1839 0.960 . S
C1856 C1857 1.391 . S
C1856 C1858 1.394 . S
C1856 H1872 0.931 . S
C1857 C1856 1.391 . S
C1857 C1861 1.376 . S
C1858 C1856 1.394 . S
C1858 C1859 1.369 . S
C1858 C1862 1.531 . S
C1859 C1858 1.369 . S
C1859 C1860 1.410 . S
C1859 C1867 1.503 . S
C1860 C1859 1.410 . S
C1860 C1861 1.392 . S
C1860 C1863 1.511 . S
C1861 C1857 1.376 . S
C1861 C1860 1.392 . S
C1861 H1873 0.929 . S
C1862 C1858 1.531 . S
C1862 H1874 0.960 . S
C1862 H1875 0.962 . S
C1862 H1876 0.960 . S
C1863 C1860 1.511 . S
C1863 H1877 0.961 . S
C1863 H1878 0.961 . S
C1863 H1879 0.961 . S
C1864 C1865 1.370 . S
C1864 C1866 1.363 . S
C1864 H1880 0.931 . S
C1865 C1864 1.370 . S
C1865 C1869 1.408 . S
C1866 C1864 1.363 . S
C1866 C1867 1.370 . S
C1866 C1870 1.524 . S
C1867 C1859 1.503 . S
C1867 C1866 1.370 . S
C1867 C1868 1.403 . S
C1868 C1867 1.403 . S
C1868 C1869 1.404 . S
C1868 C1871 1.539 . S
C1869 C1865 1.408 . S
C1869 C1868 1.404 . S
C1869 H1881 0.930 . S
C1870 C1866 1.524 . S
C1870 H1882 0.956 . S
C1870 H1883 0.961 . S
C1870 H1884 0.961 . S
C1871 C1868 1.539 . S
C1871 H1885 0.958 . S
C1871 H1886 0.961 . S
C1871 H1887 0.960 . S
H1872 C1856 0.931 . S
H1873 C1861 0.929 . S
H1874 C1862 0.960 . S
H1875 C1862 0.962 . S
H1876 C1862 0.960 . S
H1877 C1863 0.961 . S
H1878 C1863 0.961 . S
H1879 C1863 0.961 . S
H1880 C1864 0.931 . S
H1881 C1869 0.930 . S
H1882 C1870 0.956 . S
H1883 C1870 0.961 . S
H1884 C1870 0.961 . S
H1885 C1871 0.958 . S
H1886 C1871 0.961 . S
H1887 C1871 0.960 . S
C1888 C1889 1.391 . S
C1888 C1890 1.394 . S
C1888 H1904 0.931 . S
C1889 C1888 1.391 . S
C1889 C1893 1.376 . S
C1890 C1888 1.394 . S
C1890 C1891 1.369 . S
C1890 C1894 1.531 . S
C1891 C1890 1.369 . S
C1891 C1892 1.410 . S
C1891 C1899 1.503 . S
C1892 C1891 1.410 . S
C1892 C1893 1.392 . S
C1892 C1895 1.511 . S
C1893 C1889 1.376 . S
C1893 C1892 1.392 . S
C1893 H1905 0.929 . S
C1894 C1890 1.531 . S
C1894 H1906 0.960 . S
C1894 H1907 0.962 . S
C1894 H1908 0.960 . S
C1895 C1892 1.511 . S
C1895 H1909 0.961 . S
C1895 H1910 0.961 . S
C1895 H1911 0.961 . S
C1896 C1897 1.370 . S
C1896 C1898 1.363 . S
C1896 H1912 0.931 . S
C1897 C1896 1.370 . S
C1897 C1901 1.408 . S
C1898 C1896 1.363 . S
C1898 C1899 1.370 . S
C1898 C1902 1.524 . S
C1899 C1891 1.503 . S
C1899 C1898 1.370 . S
C1899 C1900 1.403 . S
C1900 C1899 1.403 . S
C1900 C1901 1.404 . S
C1900 C1903 1.539 . S
C1901 C1897 1.408 . S
C1901 C1900 1.404 . S
C1901 H1913 0.930 . S
C1902 C1898 1.524 . S
C1902 H1914 0.956 . S
C1902 H1915 0.961 . S
C1902 H1916 0.961 . S
C1903 C1900 1.539 . S
C1903 H1917 0.958 . S
C1903 H1918 0.961 . S
C1903 H1919 0.960 . S
H1904 C1888 0.931 . S
H1905 C1893 0.929 . S
H1906 C1894 0.960 . S
H1907 C1894 0.962 . S
H1908 C1894 0.960 . S
H1909 C1895 0.961 . S
H1910 C1895 0.961 . S
H1911 C1895 0.961 . S
H1912 C1896 0.931 . S
H1913 C1901 0.930 . S
H1914 C1902 0.956 . S
H1915 C1902 0.961 . S
H1916 C1902 0.961 . S
H1917 C1903 0.958 . S
H1918 C1903 0.961 . S
H1919 C1903 0.960 . S
C1920 C1921 1.391 . S
C1920 C1922 1.394 . S
C1920 H1936 0.931 . S
C1921 C1920 1.391 . S
C1921 C1925 1.376 . S
C1922 C1920 1.394 . S
C1922 C1923 1.369 . S
C1922 C1926 1.531 . S
C1923 C1922 1.369 . S
C1923 C1924 1.410 . S
C1923 C1931 1.503 . S
C1924 C1923 1.410 . S
C1924 C1925 1.392 . S
C1924 C1927 1.511 . S
C1925 C1921 1.376 . S
C1925 C1924 1.392 . S
C1925 H1937 0.929 . S
C1926 C1922 1.531 . S
C1926 H1938 0.960 . S
C1926 H1939 0.962 . S
C1926 H1940 0.960 . S
C1927 C1924 1.511 . S
C1927 H1941 0.961 . S
C1927 H1942 0.961 . S
C1927 H1943 0.961 . S
C1928 C1929 1.370 . S
C1928 C1930 1.363 . S
C1928 H1944 0.931 . S
C1929 C1928 1.370 . S
C1929 C1933 1.408 . S
C1930 C1928 1.363 . S
C1930 C1931 1.370 . S
C1930 C1934 1.524 . S
C1931 C1923 1.503 . S
C1931 C1930 1.370 . S
C1931 C1932 1.403 . S
C1932 C1931 1.403 . S
C1932 C1933 1.404 . S
C1932 C1935 1.539 . S
C1933 C1929 1.408 . S
C1933 C1932 1.404 . S
C1933 H1945 0.930 . S
C1934 C1930 1.524 . S
C1934 H1946 0.956 . S
C1934 H1947 0.961 . S
C1934 H1948 0.961 . S
C1935 C1932 1.539 . S
C1935 H1949 0.958 . S
C1935 H1950 0.961 . S
C1935 H1951 0.960 . S
H1936 C1920 0.931 . S
H1937 C1925 0.929 . S
H1938 C1926 0.960 . S
H1939 C1926 0.962 . S
H1940 C1926 0.960 . S
H1941 C1927 0.961 . S
H1942 C1927 0.961 . S
H1943 C1927 0.961 . S
H1944 C1928 0.931 . S
H1945 C1933 0.930 . S
H1946 C1934 0.956 . S
H1947 C1934 0.961 . S
H1948 C1934 0.961 . S
H1949 C1935 0.958 . S
H1950 C1935 0.961 . S
H1951 C1935 0.960 . S
C1952 C1953 1.391 . S
C1952 C1954 1.394 . S
C1952 H1968 0.931 . S
C1953 C1952 1.391 . S
C1953 C1957 1.376 . S
C1954 C1952 1.394 . S
C1954 C1955 1.369 . S
C1954 C1958 1.531 . S
C1955 C1954 1.369 . S
C1955 C1956 1.410 . S
C1955 C1963 1.503 . S
C1956 C1955 1.410 . S
C1956 C1957 1.392 . S
C1956 C1959 1.511 . S
C1957 C1953 1.376 . S
C1957 C1956 1.392 . S
C1957 H1969 0.929 . S
C1958 C1954 1.531 . S
C1958 H1970 0.960 . S
C1958 H1971 0.962 . S
C1958 H1972 0.960 . S
C1959 C1956 1.511 . S
C1959 H1973 0.961 . S
C1959 H1974 0.961 . S
C1959 H1975 0.961 . S
C1960 C1961 1.370 . S
C1960 C1962 1.363 . S
C1960 H1976 0.931 . S
C1961 C1960 1.370 . S
C1961 C1965 1.408 . S
C1962 C1960 1.363 . S
C1962 C1963 1.370 . S
C1962 C1966 1.524 . S
C1963 C1955 1.503 . S
C1963 C1962 1.370 . S
C1963 C1964 1.403 . S
C1964 C1963 1.403 . S
C1964 C1965 1.404 . S
C1964 C1967 1.539 . S
C1965 C1961 1.408 . S
C1965 C1964 1.404 . S
C1965 H1977 0.930 . S
C1966 C1962 1.524 . S
C1966 H1978 0.956 . S
C1966 H1979 0.961 . S
C1966 H1980 0.961 . S
C1967 C1964 1.539 . S
C1967 H1981 0.958 . S
C1967 H1982 0.961 . S
C1967 H1983 0.960 . S
H1968 C1952 0.931 . S
H1969 C1957 0.929 . S
H1970 C1958 0.960 . S
H1971 C1958 0.962 . S
H1972 C1958 0.960 . S
H1973 C1959 0.961 . S
H1974 C1959 0.961 . S
H1975 C1959 0.961 . S
H1976 C1960 0.931 . S
H1977 C1965 0.930 . S
H1978 C1966 0.956 . S
H1979 C1966 0.961 . S
H1980 C1966 0.961 . S
H1981 C1967 0.958 . S
H1982 C1967 0.961 . S
H1983 C1967 0.960 . S
C1984 C1985 1.391 . S
C1984 C1986 1.394 . S
C1984 H2000 0.931 . S
C1985 C1984 1.391 . S
C1985 C1989 1.376 . S
C1986 C1984 1.394 . S
C1986 C1987 1.369 . S
C1986 C1990 1.531 . S
C1987 C1986 1.369 . S
C1987 C1988 1.410 . S
C1987 C1995 1.503 . S
C1988 C1987 1.410 . S
C1988 C1989 1.392 . S
C1988 C1991 1.511 . S
C1989 C1985 1.376 . S
C1989 C1988 1.392 . S
C1989 H2001 0.929 . S
C1990 C1986 1.531 . S
C1990 H2002 0.960 . S
C1990 H2003 0.962 . S
C1990 H2004 0.960 . S
C1991 C1988 1.511 . S
C1991 H2005 0.961 . S
C1991 H2006 0.961 . S
C1991 H2007 0.961 . S
C1992 C1993 1.370 . S
C1992 C1994 1.363 . S
C1992 H2008 0.931 . S
C1993 C1992 1.370 . S
C1993 C1997 1.408 . S
C1994 C1992 1.363 . S
C1994 C1995 1.370 . S
C1994 C1998 1.524 . S
C1995 C1987 1.503 . S
C1995 C1994 1.370 . S
C1995 C1996 1.403 . S
C1996 C1995 1.403 . S
C1996 C1997 1.404 . S
C1996 C1999 1.539 . S
C1997 C1993 1.408 . S
C1997 C1996 1.404 . S
C1997 H2009 0.930 . S
C1998 C1994 1.524 . S
C1998 H2010 0.956 . S
C1998 H2011 0.961 . S
C1998 H2012 0.961 . S
C1999 C1996 1.539 . S
C1999 H2013 0.958 . S
C1999 H2014 0.961 . S
C1999 H2015 0.960 . S
H2000 C1984 0.931 . S
H2001 C1989 0.929 . S
H2002 C1990 0.960 . S
H2003 C1990 0.962 . S
H2004 C1990 0.960 . S
H2005 C1991 0.961 . S
H2006 C1991 0.961 . S
H2007 C1991 0.961 . S
H2008 C1992 0.931 . S
H2009 C1997 0.930 . S
H2010 C1998 0.956 . S
H2011 C1998 0.961 . S
H2012 C1998 0.961 . S
H2013 C1999 0.958 . S
H2014 C1999 0.961 . S
H2015 C1999 0.960 . S
C2016 C2017 1.391 . S
C2016 C2018 1.394 . S
C2016 H2032 0.931 . S
C2017 C2016 1.391 . S
C2017 C2021 1.376 . S
C2018 C2016 1.394 . S
C2018 C2019 1.369 . S
C2018 C2022 1.531 . S
C2019 C2018 1.369 . S
C2019 C2020 1.410 . S
C2019 C2027 1.503 . S
C2020 C2019 1.410 . S
C2020 C2021 1.392 . S
C2020 C2023 1.511 . S
C2021 C2017 1.376 . S
C2021 C2020 1.392 . S
C2021 H2033 0.929 . S
C2022 C2018 1.531 . S
C2022 H2034 0.960 . S
C2022 H2035 0.962 . S
C2022 H2036 0.960 . S
C2023 C2020 1.511 . S
C2023 H2037 0.961 . S
C2023 H2038 0.961 . S
C2023 H2039 0.961 . S
C2024 C2025 1.370 . S
C2024 C2026 1.363 . S
C2024 H2040 0.931 . S
C2025 C2024 1.370 . S
C2025 C2029 1.408 . S
C2026 C2024 1.363 . S
C2026 C2027 1.370 . S
C2026 C2030 1.524 . S
C2027 C2019 1.503 . S
C2027 C2026 1.370 . S
C2027 C2028 1.403 . S
C2028 C2027 1.403 . S
C2028 C2029 1.404 . S
C2028 C2031 1.539 . S
C2029 C2025 1.408 . S
C2029 C2028 1.404 . S
C2029 H2041 0.930 . S
C2030 C2026 1.524 . S
C2030 H2042 0.956 . S
C2030 H2043 0.961 . S
C2030 H2044 0.961 . S
C2031 C2028 1.539 . S
C2031 H2045 0.958 . S
C2031 H2046 0.961 . S
C2031 H2047 0.960 . S
H2032 C2016 0.931 . S
H2033 C2021 0.929 . S
H2034 C2022 0.960 . S
H2035 C2022 0.962 . S
H2036 C2022 0.960 . S
H2037 C2023 0.961 . S
H2038 C2023 0.961 . S
H2039 C2023 0.961 . S
H2040 C2024 0.931 . S
H2041 C2029 0.930 . S
H2042 C2030 0.956 . S
H2043 C2030 0.961 . S
H2044 C2030 0.961 . S
H2045 C2031 0.958 . S
H2046 C2031 0.961 . S
H2047 C2031 0.960 . S
C2048 C2049 1.391 . S
C2048 C2050 1.394 . S
C2048 H2064 0.931 . S
C2049 C2048 1.391 . S
C2049 C2053 1.376 . S
C2050 C2048 1.394 . S
C2050 C2051 1.369 . S
C2050 C2054 1.531 . S
C2051 C2050 1.369 . S
C2051 C2052 1.410 . S
C2051 C2059 1.503 . S
C2052 C2051 1.410 . S
C2052 C2053 1.392 . S
C2052 C2055 1.511 . S
C2053 C2049 1.376 . S
C2053 C2052 1.392 . S
C2053 H2065 0.929 . S
C2054 C2050 1.531 . S
C2054 H2066 0.960 . S
C2054 H2067 0.962 . S
C2054 H2068 0.960 . S
C2055 C2052 1.511 . S
C2055 H2069 0.961 . S
C2055 H2070 0.961 . S
C2055 H2071 0.961 . S
C2056 C2057 1.370 . S
C2056 C2058 1.363 . S
C2056 H2072 0.931 . S
C2057 C2056 1.370 . S
C2057 C2061 1.408 . S
C2058 C2056 1.363 . S
C2058 C2059 1.370 . S
C2058 C2062 1.524 . S
C2059 C2051 1.503 . S
C2059 C2058 1.370 . S
C2059 C2060 1.403 . S
C2060 C2059 1.403 . S
C2060 C2061 1.404 . S
C2060 C2063 1.539 . S
C2061 C2057 1.408 . S
C2061 C2060 1.404 . S
C2061 H2073 0.930 . S
C2062 C2058 1.524 . S
C2062 H2074 0.956 . S
C2062 H2075 0.961 . S
C2062 H2076 0.961 . S
C2063 C2060 1.539 . S
C2063 H2077 0.958 . S
C2063 H2078 0.961 . S
C2063 H2079 0.960 . S
H2064 C2048 0.931 . S
H2065 C2053 0.929 . S
H2066 C2054 0.960 . S
H2067 C2054 0.962 . S
H2068 C2054 0.960 . S
H2069 C2055 0.961 . S
H2070 C2055 0.961 . S
H2071 C2055 0.961 . S
H2072 C2056 0.931 . S
H2073 C2061 0.930 . S
H2074 C2062 0.956 . S
H2075 C2062 0.961 . S
H2076 C2062 0.961 . S
H2077 C2063 0.958 . S
H2078 C2063 0.961 . S
H2079 C2063 0.960 . S
C2080 C2081 1.391 . S
C2080 C2082 1.394 . S
C2080 H2096 0.931 . S
C2081 C2080 1.391 . S
C2081 C2085 1.376 . S
C2082 C2080 1.394 . S
C2082 C2083 1.369 . S
C2082 C2086 1.531 . S
C2083 C2082 1.369 . S
C2083 C2084 1.410 . S
C2083 C2091 1.503 . S
C2084 C2083 1.410 . S
C2084 C2085 1.392 . S
C2084 C2087 1.511 . S
C2085 C2081 1.376 . S
C2085 C2084 1.392 . S
C2085 H2097 0.929 . S
C2086 C2082 1.531 . S
C2086 H2098 0.960 . S
C2086 H2099 0.962 . S
C2086 H2100 0.960 . S
C2087 C2084 1.511 . S
C2087 H2101 0.961 . S
C2087 H2102 0.961 . S
C2087 H2103 0.961 . S
C2088 C2089 1.370 . S
C2088 C2090 1.363 . S
C2088 H2104 0.931 . S
C2089 C2088 1.370 . S
C2089 C2093 1.408 . S
C2090 C2088 1.363 . S
C2090 C2091 1.370 . S
C2090 C2094 1.524 . S
C2091 C2083 1.503 . S
C2091 C2090 1.370 . S
C2091 C2092 1.403 . S
C2092 C2091 1.403 . S
C2092 C2093 1.404 . S
C2092 C2095 1.539 . S
C2093 C2089 1.408 . S
C2093 C2092 1.404 . S
C2093 H2105 0.930 . S
C2094 C2090 1.524 . S
C2094 H2106 0.956 . S
C2094 H2107 0.961 . S
C2094 H2108 0.961 . S
C2095 C2092 1.539 . S
C2095 H2109 0.958 . S
C2095 H2110 0.961 . S
C2095 H2111 0.960 . S
H2096 C2080 0.931 . S
H2097 C2085 0.929 . S
H2098 C2086 0.960 . S
H2099 C2086 0.962 . S
H2100 C2086 0.960 . S
H2101 C2087 0.961 . S
H2102 C2087 0.961 . S
H2103 C2087 0.961 . S
H2104 C2088 0.931 . S
H2105 C2093 0.930 . S
H2106 C2094 0.956 . S
H2107 C2094 0.961 . S
H2108 C2094 0.961 . S
H2109 C2095 0.958 . S
H2110 C2095 0.961 . S
H2111 C2095 0.960 . S
C2112 C2113 1.391 1_556 S
C2112 C2114 1.394 . S
C2112 H2128 0.931 . S
C2113 C2112 1.391 1_554 S
C2113 C2117 1.376 . S
C2114 C2112 1.394 . S
C2114 C2115 1.369 1_556 S
C2114 C2118 1.531 . S
C2115 C2114 1.369 1_554 S
C2115 C2116 1.410 . S
C2115 C2123 1.503 . S
C2116 C2115 1.410 . S
C2116 C2117 1.392 . S
C2116 C2119 1.511 . S
C2117 C2113 1.376 . S
C2117 C2116 1.392 . S
C2117 H2129 0.929 . S
C2118 C2114 1.531 . S
C2118 H2130 0.960 . S
C2118 H2131 0.962 . S
C2118 H2132 0.960 . S
C2119 C2116 1.511 . S
C2119 H2133 0.961 . S
C2119 H2134 0.961 . S
C2119 H2135 0.961 . S
C2120 C2121 1.370 1_556 S
C2120 C2122 1.363 . S
C2120 H2136 0.931 . S
C2121 C2120 1.370 1_554 S
C2121 C2125 1.408 . S
C2122 C2120 1.363 . S
C2122 C2123 1.370 1_556 S
C2122 C2126 1.524 . S
C2123 C2115 1.503 . S
C2123 C2122 1.370 1_554 S
C2123 C2124 1.403 . S
C2124 C2123 1.403 . S
C2124 C2125 1.404 . S
C2124 C2127 1.539 . S
C2125 C2121 1.408 . S
C2125 C2124 1.404 . S
C2125 H2137 0.930 . S
C2126 C2122 1.524 . S
C2126 H2138 0.956 . S
C2126 H2139 0.961 . S
C2126 H2140 0.961 . S
C2127 C2124 1.539 . S
C2127 H2141 0.958 . S
C2127 H2142 0.961 . S
C2127 H2143 0.960 . S
H2128 C2112 0.931 . S
H2129 C2117 0.929 . S
H2130 C2118 0.960 . S
H2131 C2118 0.962 . S
H2132 C2118 0.960 . S
H2133 C2119 0.961 . S
H2134 C2119 0.961 . S
H2135 C2119 0.961 . S
H2136 C2120 0.931 . S
H2137 C2125 0.930 . S
H2138 C2126 0.956 . S
H2139 C2126 0.961 . S
H2140 C2126 0.961 . S
H2141 C2127 0.958 . S
H2142 C2127 0.961 . S
H2143 C2127 0.960 . S
C2144 C2145 1.391 . S
C2144 C2146 1.394 . S
C2144 H2160 0.931 . S
C2145 C2144 1.391 . S
C2145 C2149 1.371 1_554 S
C2146 C2144 1.394 . S
C2146 C2147 1.369 . S
C2146 C2150 1.531 . S
C2147 C2146 1.369 . S
C2147 C2148 1.454 . S
C2147 C2155 1.503 . S
C2148 C2147 1.454 . S
C2148 C2149 1.381 1_554 S
C2148 C2151 1.491 1_554 S
C2149 C2145 1.371 1_556 S
C2149 C2148 1.381 1_556 S
C2149 H2161 0.937 . S
C2150 C2146 1.531 . S
C2150 H2162 0.960 . S
C2150 H2163 0.962 . S
C2150 H2164 0.960 . S
C2151 C2148 1.491 1_556 S
C2151 H2165 0.961 . S
C2151 H2166 0.961 . S
C2151 H2167 0.961 1_556 S
C2152 C2153 1.370 1_556 S
C2152 C2154 1.363 . S
C2152 H2168 0.931 . S
C2153 C2152 1.370 1_554 S
C2153 C2157 1.408 . S
C2154 C2152 1.363 . S
C2154 C2155 1.370 1_556 S
C2154 C2158 1.524 . S
C2155 C2147 1.503 . S
C2155 C2154 1.370 1_554 S
C2155 C2156 1.403 . S
C2156 C2155 1.403 . S
C2156 C2157 1.404 . S
C2156 C2159 1.539 . S
C2157 C2153 1.408 . S
C2157 C2156 1.404 . S
C2157 H2169 0.930 . S
C2158 C2154 1.524 . S
C2158 H2170 0.956 . S
C2158 H2171 0.961 . S
C2158 H2172 0.961 . S
C2159 C2156 1.539 . S
C2159 H2173 0.958 . S
C2159 H2174 0.961 . S
C2159 H2175 0.960 . S
H2160 C2144 0.931 . S
H2161 C2149 0.937 . S
H2162 C2150 0.960 . S
H2163 C2150 0.962 . S
H2164 C2150 0.960 . S
H2165 C2151 0.961 . S
H2166 C2151 0.961 . S
H2167 C2151 0.961 1_554 S
H2168 C2152 0.931 . S
H2169 C2157 0.930 . S
H2170 C2158 0.956 . S
H2171 C2158 0.961 . S
H2172 C2158 0.961 . S
H2173 C2159 0.958 . S
H2174 C2159 0.961 . S
H2175 C2159 0.960 . S
C2176 C2177 1.391 . S
C2176 C2178 1.394 . S
C2176 H2192 0.931 . S
C2177 C2176 1.391 . S
C2177 C2181 1.430 . S
C2178 C2176 1.394 . S
C2178 C2179 1.369 . S
C2178 C2182 1.531 . S
C2179 C2178 1.369 . S
C2179 C2180 1.464 . S
C2179 C2187 1.503 . S
C2180 C2179 1.464 . S
C2180 C2181 1.392 . S
C2180 C2183 1.467 1_554 S
C2181 C2177 1.430 . S
C2181 C2180 1.392 . S
C2181 H2193 0.887 1_554 S
C2182 C2178 1.531 . S
C2182 H2194 0.960 . S
C2182 H2195 0.962 . S
C2182 H2196 0.960 . S
C2183 C2180 1.467 1_556 S
C2183 H2197 0.961 . S
C2183 H2198 0.961 . S
C2183 H2199 0.961 1_556 S
C2184 C2185 1.370 1_556 S
C2184 C2186 1.363 . S
C2184 H2200 0.931 . S
C2185 C2184 1.370 1_554 S
C2185 C2189 1.408 . S
C2186 C2184 1.363 . S
C2186 C2187 1.370 1_556 S
C2186 C2190 1.524 . S
C2187 C2179 1.503 . S
C2187 C2186 1.370 1_554 S
C2187 C2188 1.403 . S
C2188 C2187 1.403 . S
C2188 C2189 1.404 . S
C2188 C2191 1.539 . S
C2189 C2185 1.408 . S
C2189 C2188 1.404 . S
C2189 H2201 0.930 . S
C2190 C2186 1.524 . S
C2190 H2202 0.956 . S
C2190 H2203 0.961 . S
C2190 H2204 0.961 . S
C2191 C2188 1.539 . S
C2191 H2205 0.958 . S
C2191 H2206 0.961 . S
C2191 H2207 0.960 . S
H2192 C2176 0.931 . S
H2193 C2181 0.887 1_556 S
H2194 C2182 0.960 . S
H2195 C2182 0.962 . S
H2196 C2182 0.960 . S
H2197 C2183 0.961 . S
H2198 C2183 0.961 . S
H2199 C2183 0.961 1_554 S
H2200 C2184 0.931 . S
H2201 C2189 0.930 . S
H2202 C2190 0.956 . S
H2203 C2190 0.961 . S
H2204 C2190 0.961 . S
H2205 C2191 0.958 . S
H2206 C2191 0.961 . S
H2207 C2191 0.960 . S
C2208 C2209 1.391 . S
C2208 C2210 1.394 . S
C2208 H2224 0.931 . S
C2209 C2208 1.391 . S
C2209 C2213 1.376 . S
C2210 C2208 1.394 . S
C2210 C2211 1.369 . S
C2210 C2214 1.531 . S
C2211 C2210 1.369 . S
C2211 C2212 1.410 . S
C2211 C2219 1.503 . S
C2212 C2211 1.410 . S
C2212 C2213 1.392 . S
C2212 C2215 1.511 . S
C2213 C2209 1.376 . S
C2213 C2212 1.392 . S
C2213 H2225 0.929 . S
C2214 C2210 1.531 . S
C2214 H2226 0.960 . S
C2214 H2227 0.962 . S
C2214 H2228 0.960 . S
C2215 C2212 1.511 . S
C2215 H2229 0.961 . S
C2215 H2230 0.961 . S
C2215 H2231 0.961 . S
C2216 C2217 1.370 . S
C2216 C2218 1.363 . S
C2216 H2232 0.931 . S
C2217 C2216 1.370 . S
C2217 C2221 1.408 . S
C2218 C2216 1.363 . S
C2218 C2219 1.370 . S
C2218 C2222 1.524 . S
C2219 C2211 1.503 . S
C2219 C2218 1.370 . S
C2219 C2220 1.403 . S
C2220 C2219 1.403 . S
C2220 C2221 1.404 . S
C2220 C2223 1.539 . S
C2221 C2217 1.408 . S
C2221 C2220 1.404 . S
C2221 H2233 0.930 . S
C2222 C2218 1.524 . S
C2222 H2234 0.956 . S
C2222 H2235 0.961 . S
C2222 H2236 0.961 . S
C2223 C2220 1.539 . S
C2223 H2237 0.958 . S
C2223 H2238 0.961 . S
C2223 H2239 0.960 . S
H2224 C2208 0.931 . S
H2225 C2213 0.929 . S
H2226 C2214 0.960 . S
H2227 C2214 0.962 . S
H2228 C2214 0.960 . S
H2229 C2215 0.961 . S
H2230 C2215 0.961 . S
H2231 C2215 0.961 . S
H2232 C2216 0.931 . S
H2233 C2221 0.930 . S
H2234 C2222 0.956 . S
H2235 C2222 0.961 . S
H2236 C2222 0.961 . S
H2237 C2223 0.958 . S
H2238 C2223 0.961 . S
H2239 C2223 0.960 . S
C2240 C2241 1.391 . S
C2240 C2242 1.394 . S
C2240 H2256 0.931 . S
C2241 C2240 1.391 . S
C2241 C2245 1.376 . S
C2242 C2240 1.394 . S
C2242 C2243 1.369 . S
C2242 C2246 1.531 . S
C2243 C2242 1.369 . S
C2243 C2244 1.410 . S
C2243 C2251 1.503 . S
C2244 C2243 1.410 . S
C2244 C2245 1.392 . S
C2244 C2247 1.511 . S
C2245 C2241 1.376 . S
C2245 C2244 1.392 . S
C2245 H2257 0.929 . S
C2246 C2242 1.531 . S
C2246 H2258 0.960 . S
C2246 H2259 0.962 . S
C2246 H2260 0.960 . S
C2247 C2244 1.511 . S
C2247 H2261 0.961 . S
C2247 H2262 0.961 . S
C2247 H2263 0.961 . S
C2248 C2249 1.370 . S
C2248 C2250 1.363 . S
C2248 H2264 0.931 . S
C2249 C2248 1.370 . S
C2249 C2253 1.408 . S
C2250 C2248 1.363 . S
C2250 C2251 1.370 . S
C2250 C2254 1.524 . S
C2251 C2243 1.503 . S
C2251 C2250 1.370 . S
C2251 C2252 1.403 . S
C2252 C2251 1.403 . S
C2252 C2253 1.404 . S
C2252 C2255 1.539 . S
C2253 C2249 1.408 . S
C2253 C2252 1.404 . S
C2253 H2265 0.930 . S
C2254 C2250 1.524 . S
C2254 H2266 0.956 . S
C2254 H2267 0.961 . S
C2254 H2268 0.961 . S
C2255 C2252 1.539 . S
C2255 H2269 0.958 . S
C2255 H2270 0.961 . S
C2255 H2271 0.960 . S
H2256 C2240 0.931 . S
H2257 C2245 0.929 . S
H2258 C2246 0.960 . S
H2259 C2246 0.962 . S
H2260 C2246 0.960 . S
H2261 C2247 0.961 . S
H2262 C2247 0.961 . S
H2263 C2247 0.961 . S
H2264 C2248 0.931 . S
H2265 C2253 0.930 . S
H2266 C2254 0.956 . S
H2267 C2254 0.961 . S
H2268 C2254 0.961 . S
H2269 C2255 0.958 . S
H2270 C2255 0.961 . S
H2271 C2255 0.960 . S
C2272 C2273 1.391 . S
C2272 C2274 1.394 . S
C2272 H2288 0.931 . S
C2273 C2272 1.391 . S
C2273 C2277 1.376 . S
C2274 C2272 1.394 . S
C2274 C2275 1.369 . S
C2274 C2278 1.531 . S
C2275 C2274 1.369 . S
C2275 C2276 1.410 . S
C2275 C2283 1.503 . S
C2276 C2275 1.410 . S
C2276 C2277 1.392 . S
C2276 C2279 1.511 . S
C2277 C2273 1.376 . S
C2277 C2276 1.392 . S
C2277 H2289 0.929 . S
C2278 C2274 1.531 . S
C2278 H2290 0.960 . S
C2278 H2291 0.962 . S
C2278 H2292 0.960 . S
C2279 C2276 1.511 . S
C2279 H2293 0.961 . S
C2279 H2294 0.961 . S
C2279 H2295 0.961 . S
C2280 C2281 1.370 . S
C2280 C2282 1.363 . S
C2280 H2296 0.931 . S
C2281 C2280 1.370 . S
C2281 C2285 1.408 . S
C2282 C2280 1.363 . S
C2282 C2283 1.370 . S
C2282 C2286 1.524 . S
C2283 C2275 1.503 . S
C2283 C2282 1.370 . S
C2283 C2284 1.403 . S
C2284 C2283 1.403 . S
C2284 C2285 1.404 . S
C2284 C2287 1.539 . S
C2285 C2281 1.408 . S
C2285 C2284 1.404 . S
C2285 H2297 0.930 . S
C2286 C2282 1.524 . S
C2286 H2298 0.956 . S
C2286 H2299 0.961 . S
C2286 H2300 0.961 . S
C2287 C2284 1.539 . S
C2287 H2301 0.958 . S
C2287 H2302 0.961 . S
C2287 H2303 0.960 . S
H2288 C2272 0.931 . S
H2289 C2277 0.929 . S
H2290 C2278 0.960 . S
H2291 C2278 0.962 . S
H2292 C2278 0.960 . S
H2293 C2279 0.961 . S
H2294 C2279 0.961 . S
H2295 C2279 0.961 . S
H2296 C2280 0.931 . S
H2297 C2285 0.930 . S
H2298 C2286 0.956 . S
H2299 C2286 0.961 . S
H2300 C2286 0.961 . S
H2301 C2287 0.958 . S
H2302 C2287 0.961 . S
H2303 C2287 0.960 . S
C2304 C2305 1.390 1_554 S
C2304 C2306 1.394 . S
C2304 H2320 0.930 . S
C2305 C2304 1.390 1_556 S
C2305 C2309 1.376 . S
C2306 C2304 1.394 . S
C2306 C2307 1.368 . S
C2306 C2310 1.530 . S
C2307 C2306 1.368 . S
C2307 C2308 1.409 . S
C2307 C2315 1.503 1_554 S
C2308 C2307 1.409 . S
C2308 C2309 1.392 1_554 S
C2308 C2311 1.511 . S
C2309 C2305 1.376 . S
C2309 C2308 1.392 1_556 S
C2309 H2321 0.929 . S
C2310 C2306 1.530 . S
C2310 H2322 1.013 . S
C2310 H2323 0.866 1_554 S
C2310 H2324 1.016 . S
C2311 C2308 1.511 . S
C2311 H2325 0.967 1_554 S
C2311 H2326 0.969 1_554 S
C2311 H2327 0.946 . S
C2312 C2313 1.370 . S
C2312 C2314 1.363 . S
C2312 H2328 0.931 . S
C2313 C2312 1.370 . S
C2313 C2317 1.408 1_556 S
C2314 C2312 1.363 . S
C2314 C2315 1.370 . S
C2314 C2318 1.524 . S
C2315 C2307 1.503 1_556 S
C2315 C2314 1.370 . S
C2315 C2316 1.403 1_556 S
C2316 C2315 1.403 1_554 S
C2316 C2317 1.404 . S
C2316 C2319 1.539 . S
C2317 C2313 1.408 1_554 S
C2317 C2316 1.404 . S
C2317 H2329 0.930 . S
C2318 C2314 1.524 . S
C2318 H2330 0.956 . S
C2318 H2331 0.961 . S
C2318 H2332 0.961 . S
C2319 C2316 1.539 . S
C2319 H2333 0.958 . S
C2319 H2334 0.961 . S
C2319 H2335 0.960 . S
H2320 C2304 0.930 . S
H2321 C2309 0.929 . S
H2322 C2310 1.013 . S
H2323 C2310 0.866 1_556 S
H2324 C2310 1.016 . S
H2325 C2311 0.967 1_556 S
H2326 C2311 0.969 1_556 S
H2327 C2311 0.946 . S
H2328 C2312 0.931 . S
H2329 C2317 0.930 . S
H2330 C2318 0.956 . S
H2331 C2318 0.961 . S
H2332 C2318 0.961 . S
H2333 C2319 0.958 . S
H2334 C2319 0.961 . S
H2335 C2319 0.960 . S
C2336 C2337 1.391 . S
C2336 C2338 1.394 . S
C2336 H2352 0.931 . S
C2337 C2336 1.391 . S
C2337 C2341 1.376 1_556 S
C2338 C2336 1.394 . S
C2338 C2339 1.369 . S
C2338 C2342 1.531 . S
C2339 C2338 1.369 . S
C2339 C2340 1.410 1_556 S
C2339 C2347 1.503 . S
C2340 C2339 1.410 1_554 S
C2340 C2341 1.392 . S
C2340 C2343 1.511 . S
C2341 C2337 1.376 1_554 S
C2341 C2340 1.392 . S
C2341 H2353 0.929 . S
C2342 C2338 1.531 . S
C2342 H2354 0.960 . S
C2342 H2355 0.962 . S
C2342 H2356 0.960 . S
C2343 C2340 1.511 . S
C2343 H2357 0.961 . S
C2343 H2358 0.961 . S
C2343 H2359 0.961 . S
C2344 C2345 1.395 . S
C2344 C2346 1.362 . S
C2344 H2360 0.912 1_556 S
C2345 C2344 1.395 . S
C2345 C2349 1.408 . S
C2346 C2344 1.362 . S
C2346 C2347 1.371 . S
C2346 C2350 1.523 1_556 S
C2347 C2339 1.503 . S
C2347 C2346 1.371 . S
C2347 C2348 1.403 . S
C2348 C2347 1.403 . S
C2348 C2349 1.404 . S
C2348 C2351 1.539 . S
C2349 C2345 1.408 . S
C2349 C2348 1.404 . S
C2349 H2361 0.930 . S
C2350 C2346 1.523 1_554 S
C2350 H2362 0.890 1_554 S
C2350 H2363 0.961 . S
C2350 H2364 0.961 . S
C2351 C2348 1.539 . S
C2351 H2365 0.958 . S
C2351 H2366 0.961 . S
C2351 H2367 0.960 . S
H2352 C2336 0.931 . S
H2353 C2341 0.929 . S
H2354 C2342 0.960 . S
H2355 C2342 0.962 . S
H2356 C2342 0.960 . S
H2357 C2343 0.961 . S
H2358 C2343 0.961 . S
H2359 C2343 0.961 . S
H2360 C2344 0.912 1_554 S
H2361 C2349 0.930 . S
H2362 C2350 0.890 1_556 S
H2363 C2350 0.961 . S
H2364 C2350 0.961 . S
H2365 C2351 0.958 . S
H2366 C2351 0.961 . S
H2367 C2351 0.960 . S
C2368 C2369 1.390 . S
C2368 C2370 1.394 . S
C2368 H2384 0.931 . S
C2369 C2368 1.390 . S
C2369 C2373 1.377 1_556 S
C2370 C2368 1.394 . S
C2370 C2371 1.370 1_556 S
C2370 C2374 1.531 . S
C2371 C2370 1.370 1_554 S
C2371 C2372 1.408 . S
C2371 C2379 1.504 1_554 S
C2372 C2371 1.408 . S
C2372 C2373 1.392 . S
C2372 C2375 1.511 . S
C2373 C2369 1.377 1_554 S
C2373 C2372 1.392 . S
C2373 H2385 0.929 . S
C2374 C2370 1.531 . S
C2374 H2386 0.983 . S
C2374 H2387 0.962 . S
C2374 H2388 0.960 . S
C2375 C2372 1.511 . S
C2375 H2389 0.961 . S
C2375 H2390 1.030 . S
C2375 H2391 0.961 . S
C2376 C2377 1.370 . S
C2376 C2378 1.363 . S
C2376 H2392 0.931 . S
C2377 C2376 1.370 . S
C2377 C2381 1.408 1_556 S
C2378 C2376 1.363 . S
C2378 C2379 1.370 . S
C2378 C2382 1.524 . S
C2379 C2371 1.504 1_556 S
C2379 C2378 1.370 . S
C2379 C2380 1.403 1_556 S
C2380 C2379 1.403 1_554 S
C2380 C2381 1.404 . S
C2380 C2383 1.539 . S
C2381 C2377 1.408 1_554 S
C2381 C2380 1.404 . S
C2381 H2393 0.930 . S
C2382 C2378 1.524 . S
C2382 H2394 0.956 . S
C2382 H2395 0.961 . S
C2382 H2396 0.961 . S
C2383 C2380 1.539 . S
C2383 H2397 0.958 . S
C2383 H2398 0.961 . S
C2383 H2399 0.960 . S
H2384 C2368 0.931 . S
H2385 C2373 0.929 . S
H2386 C2374 0.983 . S
H2387 C2374 0.962 . S
H2388 C2374 0.960 . S
H2389 C2375 0.961 . S
H2390 C2375 1.030 . S
H2391 C2375 0.961 . S
H2392 C2376 0.931 . S
H2393 C2381 0.930 . S
H2394 C2382 0.956 . S
H2395 C2382 0.961 . S
H2396 C2382 0.961 . S
H2397 C2383 0.958 . S
H2398 C2383 0.961 . S
H2399 C2383 0.960 . S
C2400 C2401 1.391 . S
C2400 C2402 1.394 . S
C2400 H2416 0.931 . S
C2401 C2400 1.391 . S
C2401 C2405 1.376 . S
C2402 C2400 1.394 . S
C2402 C2403 1.369 . S
C2402 C2406 1.531 . S
C2403 C2402 1.369 . S
C2403 C2404 1.410 . S
C2403 C2411 1.503 . S
C2404 C2403 1.410 . S
C2404 C2405 1.392 . S
C2404 C2407 1.511 . S
C2405 C2401 1.376 . S
C2405 C2404 1.392 . S
C2405 H2417 0.929 . S
C2406 C2402 1.531 . S
C2406 H2418 0.960 . S
C2406 H2419 0.962 . S
C2406 H2420 0.960 . S
C2407 C2404 1.511 . S
C2407 H2421 0.961 . S
C2407 H2422 0.961 . S
C2407 H2423 0.961 . S
C2408 C2409 1.370 . S
C2408 C2410 1.363 . S
C2408 H2424 0.931 . S
C2409 C2408 1.370 . S
C2409 C2413 1.408 . S
C2410 C2408 1.363 . S
C2410 C2411 1.370 . S
C2410 C2414 1.524 . S
C2411 C2403 1.503 . S
C2411 C2410 1.370 . S
C2411 C2412 1.403 . S
C2412 C2411 1.403 . S
C2412 C2413 1.404 . S
C2412 C2415 1.539 . S
C2413 C2409 1.408 . S
C2413 C2412 1.404 . S
C2413 H2425 0.930 . S
C2414 C2410 1.524 . S
C2414 H2426 0.956 . S
C2414 H2427 0.961 . S
C2414 H2428 0.961 . S
C2415 C2412 1.539 . S
C2415 H2429 0.958 . S
C2415 H2430 0.961 . S
C2415 H2431 0.960 . S
H2416 C2400 0.931 . S
H2417 C2405 0.929 . S
H2418 C2406 0.960 . S
H2419 C2406 0.962 . S
H2420 C2406 0.960 . S
H2421 C2407 0.961 . S
H2422 C2407 0.961 . S
H2423 C2407 0.961 . S
H2424 C2408 0.931 . S
H2425 C2413 0.930 . S
H2426 C2414 0.956 . S
H2427 C2414 0.961 . S
H2428 C2414 0.961 . S
H2429 C2415 0.958 . S
H2430 C2415 0.961 . S
H2431 C2415 0.960 . S
C2432 C2433 1.391 . S
C2432 C2434 1.394 . S
C2432 H2448 0.931 . S
C2433 C2432 1.391 . S
C2433 C2437 1.376 . S
C2434 C2432 1.394 . S
C2434 C2435 1.369 . S
C2434 C2438 1.531 . S
C2435 C2434 1.369 . S
C2435 C2436 1.410 . S
C2435 C2443 1.503 . S
C2436 C2435 1.410 . S
C2436 C2437 1.392 . S
C2436 C2439 1.511 . S
C2437 C2433 1.376 . S
C2437 C2436 1.392 . S
C2437 H2449 0.929 . S
C2438 C2434 1.531 . S
C2438 H2450 0.960 . S
C2438 H2451 0.962 . S
C2438 H2452 0.960 . S
C2439 C2436 1.511 . S
C2439 H2453 0.961 . S
C2439 H2454 0.961 . S
C2439 H2455 0.961 . S
C2440 C2441 1.370 . S
C2440 C2442 1.363 . S
C2440 H2456 0.931 . S
C2441 C2440 1.370 . S
C2441 C2445 1.408 . S
C2442 C2440 1.363 . S
C2442 C2443 1.370 . S
C2442 C2446 1.524 . S
C2443 C2435 1.503 . S
C2443 C2442 1.370 . S
C2443 C2444 1.403 . S
C2444 C2443 1.403 . S
C2444 C2445 1.404 . S
C2444 C2447 1.539 . S
C2445 C2441 1.408 . S
C2445 C2444 1.404 . S
C2445 H2457 0.930 . S
C2446 C2442 1.524 . S
C2446 H2458 0.956 . S
C2446 H2459 0.961 . S
C2446 H2460 0.961 . S
C2447 C2444 1.539 . S
C2447 H2461 0.958 . S
C2447 H2462 0.961 . S
C2447 H2463 0.960 . S
H2448 C2432 0.931 . S
H2449 C2437 0.929 . S
H2450 C2438 0.960 . S
H2451 C2438 0.962 . S
H2452 C2438 0.960 . S
H2453 C2439 0.961 . S
H2454 C2439 0.961 . S
H2455 C2439 0.961 . S
H2456 C2440 0.931 . S
H2457 C2445 0.930 . S
H2458 C2446 0.956 . S
H2459 C2446 0.961 . S
H2460 C2446 0.961 . S
H2461 C2447 0.958 . S
H2462 C2447 0.961 . S
H2463 C2447 0.960 . S
C2464 C2465 1.391 . S
C2464 C2466 1.394 . S
C2464 H2480 0.931 . S
C2465 C2464 1.391 . S
C2465 C2469 1.376 . S
C2466 C2464 1.394 . S
C2466 C2467 1.369 . S
C2466 C2470 1.531 . S
C2467 C2466 1.369 . S
C2467 C2468 1.410 . S
C2467 C2475 1.503 . S
C2468 C2467 1.410 . S
C2468 C2469 1.392 . S
C2468 C2471 1.511 . S
C2469 C2465 1.376 . S
C2469 C2468 1.392 . S
C2469 H2481 0.929 . S
C2470 C2466 1.531 . S
C2470 H2482 0.960 . S
C2470 H2483 0.962 . S
C2470 H2484 0.960 . S
C2471 C2468 1.511 . S
C2471 H2485 0.961 . S
C2471 H2486 0.961 . S
C2471 H2487 0.961 . S
C2472 C2473 1.370 . S
C2472 C2474 1.363 . S
C2472 H2488 0.931 . S
C2473 C2472 1.370 . S
C2473 C2477 1.408 . S
C2474 C2472 1.363 . S
C2474 C2475 1.370 . S
C2474 C2478 1.524 . S
C2475 C2467 1.503 . S
C2475 C2474 1.370 . S
C2475 C2476 1.403 . S
C2476 C2475 1.403 . S
C2476 C2477 1.404 . S
C2476 C2479 1.539 . S
C2477 C2473 1.408 . S
C2477 C2476 1.404 . S
C2477 H2489 0.930 . S
C2478 C2474 1.524 . S
C2478 H2490 0.956 . S
C2478 H2491 0.961 . S
C2478 H2492 0.961 . S
C2479 C2476 1.539 . S
C2479 H2493 0.958 . S
C2479 H2494 0.961 . S
C2479 H2495 0.960 . S
H2480 C2464 0.931 . S
H2481 C2469 0.929 . S
H2482 C2470 0.960 . S
H2483 C2470 0.962 . S
H2484 C2470 0.960 . S
H2485 C2471 0.961 . S
H2486 C2471 0.961 . S
H2487 C2471 0.961 . S
H2488 C2472 0.931 . S
H2489 C2477 0.930 . S
H2490 C2478 0.956 . S
H2491 C2478 0.961 . S
H2492 C2478 0.961 . S
H2493 C2479 0.958 . S
H2494 C2479 0.961 . S
H2495 C2479 0.960 . S
C2496 C2497 1.391 . S
C2496 C2498 1.394 . S
C2496 H2512 0.931 . S
C2497 C2496 1.391 . S
C2497 C2501 1.376 . S
C2498 C2496 1.394 . S
C2498 C2499 1.369 . S
C2498 C2502 1.531 . S
C2499 C2498 1.369 . S
C2499 C2500 1.410 . S
C2499 C2507 1.503 . S
C2500 C2499 1.410 . S
C2500 C2501 1.392 . S
C2500 C2503 1.511 . S
C2501 C2497 1.376 . S
C2501 C2500 1.392 . S
C2501 H2513 0.929 . S
C2502 C2498 1.531 . S
C2502 H2514 0.960 . S
C2502 H2515 0.962 . S
C2502 H2516 0.960 . S
C2503 C2500 1.511 . S
C2503 H2517 0.961 . S
C2503 H2518 0.961 . S
C2503 H2519 0.961 . S
C2504 C2505 1.370 . S
C2504 C2506 1.363 . S
C2504 H2520 0.931 . S
C2505 C2504 1.370 . S
C2505 C2509 1.408 . S
C2506 C2504 1.363 . S
C2506 C2507 1.370 . S
C2506 C2510 1.524 . S
C2507 C2499 1.503 . S
C2507 C2506 1.370 . S
C2507 C2508 1.403 . S
C2508 C2507 1.403 . S
C2508 C2509 1.404 . S
C2508 C2511 1.539 . S
C2509 C2505 1.408 . S
C2509 C2508 1.404 . S
C2509 H2521 0.930 . S
C2510 C2506 1.524 . S
C2510 H2522 0.956 . S
C2510 H2523 0.961 . S
C2510 H2524 0.961 . S
C2511 C2508 1.539 . S
C2511 H2525 0.958 . S
C2511 H2526 0.961 . S
C2511 H2527 0.960 . S
H2512 C2496 0.931 . S
H2513 C2501 0.929 . S
H2514 C2502 0.960 . S
H2515 C2502 0.962 . S
H2516 C2502 0.960 . S
H2517 C2503 0.961 . S
H2518 C2503 0.961 . S
H2519 C2503 0.961 . S
H2520 C2504 0.931 . S
H2521 C2509 0.930 . S
H2522 C2510 0.956 . S
H2523 C2510 0.961 . S
H2524 C2510 0.961 . S
H2525 C2511 0.958 . S
H2526 C2511 0.961 . S
H2527 C2511 0.960 . S
C2528 C2529 1.391 . S
C2528 C2530 1.394 . S
C2528 H2544 0.931 . S
C2529 C2528 1.391 . S
C2529 C2533 1.376 . S
C2530 C2528 1.394 . S
C2530 C2531 1.369 . S
C2530 C2534 1.531 . S
C2531 C2530 1.369 . S
C2531 C2532 1.410 . S
C2531 C2539 1.503 . S
C2532 C2531 1.410 . S
C2532 C2533 1.392 . S
C2532 C2535 1.511 . S
C2533 C2529 1.376 . S
C2533 C2532 1.392 . S
C2533 H2545 0.929 . S
C2534 C2530 1.531 . S
C2534 H2546 0.960 . S
C2534 H2547 0.962 . S
C2534 H2548 0.960 . S
C2535 C2532 1.511 . S
C2535 H2549 0.961 . S
C2535 H2550 0.961 . S
C2535 H2551 0.961 . S
C2536 C2537 1.370 . S
C2536 C2538 1.363 . S
C2536 H2552 0.931 . S
C2537 C2536 1.370 . S
C2537 C2541 1.408 . S
C2538 C2536 1.363 . S
C2538 C2539 1.370 . S
C2538 C2542 1.524 . S
C2539 C2531 1.503 . S
C2539 C2538 1.370 . S
C2539 C2540 1.403 . S
C2540 C2539 1.403 . S
C2540 C2541 1.404 . S
C2540 C2543 1.539 . S
C2541 C2537 1.408 . S
C2541 C2540 1.404 . S
C2541 H2553 0.930 . S
C2542 C2538 1.524 . S
C2542 H2554 0.956 . S
C2542 H2555 0.961 . S
C2542 H2556 0.961 . S
C2543 C2540 1.539 . S
C2543 H2557 0.958 . S
C2543 H2558 0.961 . S
C2543 H2559 0.960 . S
H2544 C2528 0.931 . S
H2545 C2533 0.929 . S
H2546 C2534 0.960 . S
H2547 C2534 0.962 . S
H2548 C2534 0.960 . S
H2549 C2535 0.961 . S
H2550 C2535 0.961 . S
H2551 C2535 0.961 . S
H2552 C2536 0.931 . S
H2553 C2541 0.930 . S
H2554 C2542 0.956 . S
H2555 C2542 0.961 . S
H2556 C2542 0.961 . S
H2557 C2543 0.958 . S
H2558 C2543 0.961 . S
H2559 C2543 0.960 . S
C2560 C2561 1.391 . S
C2560 C2562 1.394 . S
C2560 H2576 0.931 . S
C2561 C2560 1.391 . S
C2561 C2565 1.376 . S
C2562 C2560 1.394 . S
C2562 C2563 1.369 . S
C2562 C2566 1.531 . S
C2563 C2562 1.369 . S
C2563 C2564 1.410 . S
C2563 C2571 1.503 . S
C2564 C2563 1.410 . S
C2564 C2565 1.392 . S
C2564 C2567 1.511 . S
C2565 C2561 1.376 . S
C2565 C2564 1.392 . S
C2565 H2577 0.929 . S
C2566 C2562 1.531 . S
C2566 H2578 0.960 . S
C2566 H2579 0.962 . S
C2566 H2580 0.960 . S
C2567 C2564 1.511 . S
C2567 H2581 0.961 . S
C2567 H2582 0.961 . S
C2567 H2583 0.961 . S
C2568 C2569 1.370 . S
C2568 C2570 1.363 . S
C2568 H2584 0.931 . S
C2569 C2568 1.370 . S
C2569 C2573 1.408 . S
C2570 C2568 1.363 . S
C2570 C2571 1.370 . S
C2570 C2574 1.524 . S
C2571 C2563 1.503 . S
C2571 C2570 1.370 . S
C2571 C2572 1.403 . S
C2572 C2571 1.403 . S
C2572 C2573 1.404 . S
C2572 C2575 1.539 . S
C2573 C2569 1.408 . S
C2573 C2572 1.404 . S
C2573 H2585 0.930 . S
C2574 C2570 1.524 . S
C2574 H2586 0.956 . S
C2574 H2587 0.961 . S
C2574 H2588 0.961 . S
C2575 C2572 1.539 . S
C2575 H2589 0.958 . S
C2575 H2590 0.961 . S
C2575 H2591 0.960 . S
H2576 C2560 0.931 . S
H2577 C2565 0.929 . S
H2578 C2566 0.960 . S
H2579 C2566 0.962 . S
H2580 C2566 0.960 . S
H2581 C2567 0.961 . S
H2582 C2567 0.961 . S
H2583 C2567 0.961 . S
H2584 C2568 0.931 . S
H2585 C2573 0.930 . S
H2586 C2574 0.956 . S
H2587 C2574 0.961 . S
H2588 C2574 0.961 . S
H2589 C2575 0.958 . S
H2590 C2575 0.961 . S
H2591 C2575 0.960 . S
C2592 C2593 1.391 . S
C2592 C2594 1.394 . S
C2592 H2608 0.931 . S
C2593 C2592 1.391 . S
C2593 C2597 1.376 . S
C2594 C2592 1.394 . S
C2594 C2595 1.369 . S
C2594 C2598 1.531 . S
C2595 C2594 1.369 . S
C2595 C2596 1.410 . S
C2595 C2603 1.503 . S
C2596 C2595 1.410 . S
C2596 C2597 1.392 . S
C2596 C2599 1.511 . S
C2597 C2593 1.376 . S
C2597 C2596 1.392 . S
C2597 H2609 0.929 . S
C2598 C2594 1.531 . S
C2598 H2610 0.960 . S
C2598 H2611 0.962 . S
C2598 H2612 0.960 . S
C2599 C2596 1.511 . S
C2599 H2613 0.961 . S
C2599 H2614 0.961 . S
C2599 H2615 0.961 . S
C2600 C2601 1.370 . S
C2600 C2602 1.363 . S
C2600 H2616 0.931 . S
C2601 C2600 1.370 . S
C2601 C2605 1.408 . S
C2602 C2600 1.363 . S
C2602 C2603 1.370 . S
C2602 C2606 1.524 . S
C2603 C2595 1.503 . S
C2603 C2602 1.370 . S
C2603 C2604 1.403 . S
C2604 C2603 1.403 . S
C2604 C2605 1.404 . S
C2604 C2607 1.539 . S
C2605 C2601 1.408 . S
C2605 C2604 1.404 . S
C2605 H2617 0.930 . S
C2606 C2602 1.524 . S
C2606 H2618 0.956 . S
C2606 H2619 0.961 . S
C2606 H2620 0.961 . S
C2607 C2604 1.539 . S
C2607 H2621 0.958 . S
C2607 H2622 0.961 . S
C2607 H2623 0.960 . S
H2608 C2592 0.931 . S
H2609 C2597 0.929 . S
H2610 C2598 0.960 . S
H2611 C2598 0.962 . S
H2612 C2598 0.960 . S
H2613 C2599 0.961 . S
H2614 C2599 0.961 . S
H2615 C2599 0.961 . S
H2616 C2600 0.931 . S
H2617 C2605 0.930 . S
H2618 C2606 0.956 . S
H2619 C2606 0.961 . S
H2620 C2606 0.961 . S
H2621 C2607 0.958 . S
H2622 C2607 0.961 . S
H2623 C2607 0.960 . S
C2624 C2625 1.391 . S
C2624 C2626 1.394 1_545 S
C2624 H2640 0.931 . S
C2625 C2624 1.391 . S
C2625 C2629 1.376 1_545 S
C2626 C2624 1.394 1_565 S
C2626 C2627 1.369 . S
C2626 C2630 1.534 1_565 S
C2627 C2626 1.369 . S
C2627 C2628 1.410 . S
C2627 C2635 1.503 . S
C2628 C2627 1.410 . S
C2628 C2629 1.392 . S
C2628 C2631 1.511 . S
C2629 C2625 1.376 1_565 S
C2629 C2628 1.392 . S
C2629 H2641 0.929 . S
C2630 C2626 1.534 1_545 S
C2630 H2642 0.938 1_545 S
C2630 H2643 0.970 . S
C2630 H2644 0.972 . S
C2631 C2628 1.511 . S
C2631 H2645 0.961 . S
C2631 H2646 0.961 . S
C2631 H2647 0.961 . S
C2632 C2633 1.370 . S
C2632 C2634 1.363 . S
C2632 H2648 0.931 . S
C2633 C2632 1.370 . S
C2633 C2637 1.408 . S
C2634 C2632 1.363 . S
C2634 C2635 1.370 . S
C2634 C2638 1.524 1_565 S
C2635 C2627 1.503 . S
C2635 C2634 1.370 . S
C2635 C2636 1.403 . S
C2636 C2635 1.403 . S
C2636 C2637 1.404 . S
C2636 C2639 1.539 . S
C2637 C2633 1.408 . S
C2637 C2636 1.404 . S
C2637 H2649 0.930 . S
C2638 C2634 1.524 1_545 S
C2638 H2650 0.956 . S
C2638 H2651 0.961 . S
C2638 H2652 0.961 . S
C2639 C2636 1.539 . S
C2639 H2653 0.958 . S
C2639 H2654 0.961 . S
C2639 H2655 0.960 . S
H2640 C2624 0.931 . S
H2641 C2629 0.929 . S
H2642 C2630 0.938 1_565 S
H2643 C2630 0.970 . S
H2644 C2630 0.972 . S
H2645 C2631 0.961 . S
H2646 C2631 0.961 . S
H2647 C2631 0.961 . S
H2648 C2632 0.931 . S
H2649 C2637 0.930 . S
H2650 C2638 0.956 . S
H2651 C2638 0.961 . S
H2652 C2638 0.961 . S
H2653 C2639 0.958 . S
H2654 C2639 0.961 . S
H2655 C2639 0.960 . S
C2656 C2657 1.391 . S
C2656 C2658 1.394 . S
C2656 H2672 0.931 . S
C2657 C2656 1.391 . S
C2657 C2661 1.376 . S
C2658 C2656 1.394 . S
C2658 C2659 1.369 . S
C2658 C2662 1.531 . S
C2659 C2658 1.369 . S
C2659 C2660 1.410 . S
C2659 C2667 1.503 . S
C2660 C2659 1.410 . S
C2660 C2661 1.392 . S
C2660 C2663 1.511 1_455 S
C2661 C2657 1.376 . S
C2661 C2660 1.392 . S
C2661 H2673 0.929 . S
C2662 C2658 1.531 . S
C2662 H2674 0.960 . S
C2662 H2675 0.962 . S
C2662 H2676 0.960 . S
C2663 C2660 1.511 1_655 S
C2663 H2677 0.963 1_655 S
C2663 H2678 0.961 . S
C2663 H2679 0.961 . S
C2664 C2665 1.370 1_455 S
C2664 C2666 1.363 . S
C2664 H2680 0.931 . S
C2665 C2664 1.370 1_655 S
C2665 C2669 1.408 . S
C2666 C2664 1.363 . S
C2666 C2667 1.370 . S
C2666 C2670 1.524 . S
C2667 C2659 1.503 . S
C2667 C2666 1.370 . S
C2667 C2668 1.403 1_455 S
C2668 C2667 1.403 1_655 S
C2668 C2669 1.404 . S
C2668 C2671 1.539 . S
C2669 C2665 1.408 . S
C2669 C2668 1.404 . S
C2669 H2681 0.930 . S
C2670 C2666 1.524 . S
C2670 H2682 0.956 . S
C2670 H2683 0.961 . S
C2670 H2684 0.961 . S
C2671 C2668 1.539 . S
C2671 H2685 0.958 . S
C2671 H2686 0.961 . S
C2671 H2687 0.960 . S
H2672 C2656 0.931 . S
H2673 C2661 0.929 . S
H2674 C2662 0.960 . S
H2675 C2662 0.962 . S
H2676 C2662 0.960 . S
H2677 C2663 0.963 1_455 S
H2678 C2663 0.961 . S
H2679 C2663 0.961 . S
H2680 C2664 0.931 . S
H2681 C2669 0.930 . S
H2682 C2670 0.956 . S
H2683 C2670 0.961 . S
H2684 C2670 0.961 . S
H2685 C2671 0.958 . S
H2686 C2671 0.961 . S
H2687 C2671 0.960 . S
C2688 C2689 1.391 . S
C2688 C2690 1.394 . S
C2688 H2704 0.931 . S
C2689 C2688 1.391 . S
C2689 C2693 1.376 . S
C2690 C2688 1.394 . S
C2690 C2691 1.369 . S
C2690 C2694 1.531 . S
C2691 C2690 1.369 . S
C2691 C2692 1.410 . S
C2691 C2699 1.503 . S
C2692 C2691 1.410 . S
C2692 C2693 1.392 . S
C2692 C2695 1.511 . S
C2693 C2689 1.376 . S
C2693 C2692 1.392 . S
C2693 H2705 0.929 . S
C2694 C2690 1.531 . S
C2694 H2706 0.960 . S
C2694 H2707 0.962 . S
C2694 H2708 0.960 . S
C2695 C2692 1.511 . S
C2695 H2709 0.961 . S
C2695 H2710 0.961 . S
C2695 H2711 0.961 . S
C2696 C2697 1.370 . S
C2696 C2698 1.363 . S
C2696 H2712 0.931 . S
C2697 C2696 1.370 . S
C2697 C2701 1.408 . S
C2698 C2696 1.363 . S
C2698 C2699 1.370 . S
C2698 C2702 1.524 . S
C2699 C2691 1.503 . S
C2699 C2698 1.370 . S
C2699 C2700 1.403 . S
C2700 C2699 1.403 . S
C2700 C2701 1.404 . S
C2700 C2703 1.539 . S
C2701 C2697 1.408 . S
C2701 C2700 1.404 . S
C2701 H2713 0.930 . S
C2702 C2698 1.524 . S
C2702 H2714 0.956 . S
C2702 H2715 0.961 . S
C2702 H2716 0.961 . S
C2703 C2700 1.539 . S
C2703 H2717 0.958 . S
C2703 H2718 0.961 . S
C2703 H2719 0.960 . S
H2704 C2688 0.931 . S
H2705 C2693 0.929 . S
H2706 C2694 0.960 . S
H2707 C2694 0.962 . S
H2708 C2694 0.960 . S
H2709 C2695 0.961 . S
H2710 C2695 0.961 . S
H2711 C2695 0.961 . S
H2712 C2696 0.931 . S
H2713 C2701 0.930 . S
H2714 C2702 0.956 . S
H2715 C2702 0.961 . S
H2716 C2702 0.961 . S
H2717 C2703 0.958 . S
H2718 C2703 0.961 . S
H2719 C2703 0.960 . S
C2720 C2721 1.391 1_545 S
C2720 C2722 1.394 . S
C2720 H2736 0.931 . S
C2721 C2720 1.391 1_565 S
C2721 C2725 1.376 . S
C2722 C2720 1.394 . S
C2722 C2723 1.369 . S
C2722 C2726 1.531 . S
C2723 C2722 1.369 . S
C2723 C2724 1.410 1_545 S
C2723 C2731 1.503 . S
C2724 C2723 1.410 1_565 S
C2724 C2725 1.392 . S
C2724 C2727 1.511 . S
C2725 C2721 1.376 . S
C2725 C2724 1.392 . S
C2725 H2737 0.929 . S
C2726 C2722 1.531 . S
C2726 H2738 0.960 . S
C2726 H2739 0.962 . S
C2726 H2740 0.960 . S
C2727 C2724 1.511 . S
C2727 H2741 0.961 . S
C2727 H2742 0.961 1_565 S
C2727 H2743 0.961 . S
C2728 C2729 1.370 . S
C2728 C2730 1.363 . S
C2728 H2744 0.931 . S
C2729 C2728 1.370 . S
C2729 C2733 1.408 . S
C2730 C2728 1.363 . S
C2730 C2731 1.370 . S
C2730 C2734 1.524 . S
C2731 C2723 1.503 . S
C2731 C2730 1.370 . S
C2731 C2732 1.403 . S
C2732 C2731 1.403 . S
C2732 C2733 1.404 . S
C2732 C2735 1.539 1_545 S
C2733 C2729 1.408 . S
C2733 C2732 1.404 . S
C2733 H2745 0.930 . S
C2734 C2730 1.524 . S
C2734 H2746 0.956 . S
C2734 H2747 0.961 . S
C2734 H2748 0.961 . S
C2735 C2732 1.539 1_565 S
C2735 H2749 0.958 . S
C2735 H2750 0.961 . S
C2735 H2751 0.960 . S
H2736 C2720 0.931 . S
H2737 C2725 0.929 . S
H2738 C2726 0.960 . S
H2739 C2726 0.962 . S
H2740 C2726 0.960 . S
H2741 C2727 0.961 . S
H2742 C2727 0.961 1_545 S
H2743 C2727 0.961 . S
H2744 C2728 0.931 . S
H2745 C2733 0.930 . S
H2746 C2734 0.956 . S
H2747 C2734 0.961 . S
H2748 C2734 0.961 . S
H2749 C2735 0.958 . S
H2750 C2735 0.961 . S
H2751 C2735 0.960 . S
C2752 C2753 1.391 . S
C2752 C2754 1.394 . S
C2752 H2768 0.931 . S
C2753 C2752 1.391 . S
C2753 C2757 1.376 . S
C2754 C2752 1.394 . S
C2754 C2755 1.369 . S
C2754 C2758 1.531 . S
C2755 C2754 1.369 . S
C2755 C2756 1.410 . S
C2755 C2763 1.503 . S
C2756 C2755 1.410 . S
C2756 C2757 1.392 . S
C2756 C2759 1.511 1_655 S
C2757 C2753 1.376 . S
C2757 C2756 1.392 . S
C2757 H2769 0.929 . S
C2758 C2754 1.531 . S
C2758 H2770 0.960 . S
C2758 H2771 0.962 . S
C2758 H2772 0.960 . S
C2759 C2756 1.511 1_455 S
C2759 H2773 0.961 . S
C2759 H2774 0.961 . S
C2759 H2775 0.961 . S
C2760 C2761 1.370 1_655 S
C2760 C2762 1.363 . S
C2760 H2776 0.931 . S
C2761 C2760 1.370 1_455 S
C2761 C2765 1.408 . S
C2762 C2760 1.363 . S
C2762 C2763 1.370 . S
C2762 C2766 1.524 . S
C2763 C2755 1.503 . S
C2763 C2762 1.370 . S
C2763 C2764 1.403 1_655 S
C2764 C2763 1.403 1_455 S
C2764 C2765 1.404 . S
C2764 C2767 1.539 . S
C2765 C2761 1.408 . S
C2765 C2764 1.404 . S
C2765 H2777 0.930 . S
C2766 C2762 1.524 . S
C2766 H2778 0.956 . S
C2766 H2779 0.961 . S
C2766 H2780 0.961 . S
C2767 C2764 1.539 . S
C2767 H2781 0.958 . S
C2767 H2782 0.961 . S
C2767 H2783 0.960 . S
H2768 C2752 0.931 . S
H2769 C2757 0.929 . S
H2770 C2758 0.960 . S
H2771 C2758 0.962 . S
H2772 C2758 0.960 . S
H2773 C2759 0.961 . S
H2774 C2759 0.961 . S
H2775 C2759 0.961 . S
H2776 C2760 0.931 . S
H2777 C2765 0.930 . S
H2778 C2766 0.956 . S
H2779 C2766 0.961 . S
H2780 C2766 0.961 . S
H2781 C2767 0.958 . S
H2782 C2767 0.961 . S
H2783 C2767 0.960 . S
C2784 C2785 1.391 . S
C2784 C2786 1.394 . S
C2784 H2800 0.931 . S
C2785 C2784 1.391 . S
C2785 C2789 1.376 . S
C2786 C2784 1.394 . S
C2786 C2787 1.369 . S
C2786 C2790 1.531 . S
C2787 C2786 1.369 . S
C2787 C2788 1.410 . S
C2787 C2795 1.503 . S
C2788 C2787 1.410 . S
C2788 C2789 1.392 . S
C2788 C2791 1.511 . S
C2789 C2785 1.376 . S
C2789 C2788 1.392 . S
C2789 H2801 0.929 . S
C2790 C2786 1.531 . S
C2790 H2802 0.960 . S
C2790 H2803 0.962 . S
C2790 H2804 0.960 . S
C2791 C2788 1.511 . S
C2791 H2805 0.961 . S
C2791 H2806 0.961 . S
C2791 H2807 0.961 . S
C2792 C2793 1.370 . S
C2792 C2794 1.363 . S
C2792 H2808 0.931 . S
C2793 C2792 1.370 . S
C2793 C2797 1.408 . S
C2794 C2792 1.363 . S
C2794 C2795 1.370 . S
C2794 C2798 1.524 . S
C2795 C2787 1.503 . S
C2795 C2794 1.370 . S
C2795 C2796 1.403 . S
C2796 C2795 1.403 . S
C2796 C2797 1.404 . S
C2796 C2799 1.539 . S
C2797 C2793 1.408 . S
C2797 C2796 1.404 . S
C2797 H2809 0.930 . S
C2798 C2794 1.524 . S
C2798 H2810 0.956 . S
C2798 H2811 0.961 . S
C2798 H2812 0.961 . S
C2799 C2796 1.539 . S
C2799 H2813 0.958 . S
C2799 H2814 0.961 . S
C2799 H2815 0.960 . S
H2800 C2784 0.931 . S
H2801 C2789 0.929 . S
H2802 C2790 0.960 . S
H2803 C2790 0.962 . S
H2804 C2790 0.960 . S
H2805 C2791 0.961 . S
H2806 C2791 0.961 . S
H2807 C2791 0.961 . S
H2808 C2792 0.931 . S
H2809 C2797 0.930 . S
H2810 C2798 0.956 . S
H2811 C2798 0.961 . S
H2812 C2798 0.961 . S
H2813 C2799 0.958 . S
H2814 C2799 0.961 . S
H2815 C2799 0.960 . S
C2816 C2817 1.391 . S
C2816 C2818 1.394 . S
C2816 H2832 0.931 . S
C2817 C2816 1.391 . S
C2817 C2821 1.376 . S
C2818 C2816 1.394 . S
C2818 C2819 1.369 . S
C2818 C2822 1.531 1_545 S
C2819 C2818 1.369 . S
C2819 C2820 1.410 . S
C2819 C2827 1.503 . S
C2820 C2819 1.410 . S
C2820 C2821 1.392 . S
C2820 C2823 1.511 . S
C2821 C2817 1.376 . S
C2821 C2820 1.392 . S
C2821 H2833 0.929 . S
C2822 C2818 1.531 1_565 S
C2822 H2834 0.960 . S
C2822 H2835 0.962 . S
C2822 H2836 0.960 . S
C2823 C2820 1.511 . S
C2823 H2837 0.961 . S
C2823 H2838 0.961 . S
C2823 H2839 0.961 . S
C2824 C2825 1.370 . S
C2824 C2826 1.363 1_565 S
C2824 H2840 0.931 . S
C2825 C2824 1.370 . S
C2825 C2829 1.408 . S
C2826 C2824 1.363 1_545 S
C2826 C2827 1.370 . S
C2826 C2830 1.524 . S
C2827 C2819 1.503 . S
C2827 C2826 1.370 . S
C2827 C2828 1.403 . S
C2828 C2827 1.403 . S
C2828 C2829 1.404 1_545 S
C2828 C2831 1.539 . S
C2829 C2825 1.408 . S
C2829 C2828 1.404 1_565 S
C2829 H2841 0.930 . S
C2830 C2826 1.524 . S
C2830 H2842 0.956 . S
C2830 H2843 0.961 . S
C2830 H2844 0.961 . S
C2831 C2828 1.539 . S
C2831 H2845 0.958 . S
C2831 H2846 0.961 . S
C2831 H2847 0.960 . S
H2832 C2816 0.931 . S
H2833 C2821 0.929 . S
H2834 C2822 0.960 . S
H2835 C2822 0.962 . S
H2836 C2822 0.960 . S
H2837 C2823 0.961 . S
H2838 C2823 0.961 . S
H2839 C2823 0.961 . S
H2840 C2824 0.931 . S
H2841 C2829 0.930 . S
H2842 C2830 0.956 . S
H2843 C2830 0.961 . S
H2844 C2830 0.961 . S
H2845 C2831 0.958 . S
H2846 C2831 0.961 . S
H2847 C2831 0.960 . S
C2848 C2849 1.391 . S
C2848 C2850 1.394 . S
C2848 H2864 0.931 . S
C2849 C2848 1.391 . S
C2849 C2853 1.376 . S
C2850 C2848 1.394 . S
C2850 C2851 1.369 . S
C2850 C2854 1.531 1_655 S
C2851 C2850 1.369 . S
C2851 C2852 1.410 . S
C2851 C2859 1.503 . S
C2852 C2851 1.410 . S
C2852 C2853 1.392 . S
C2852 C2855 1.511 . S
C2853 C2849 1.376 . S
C2853 C2852 1.392 . S
C2853 H2865 0.929 . S
C2854 C2850 1.531 1_455 S
C2854 H2866 0.960 . S
C2854 H2867 0.962 . S
C2854 H2868 0.960 . S
C2855 C2852 1.511 . S
C2855 H2869 0.961 . S
C2855 H2870 0.961 . S
C2855 H2871 0.961 . S
C2856 C2857 1.370 . S
C2856 C2858 1.363 1_455 S
C2856 H2872 0.931 . S
C2857 C2856 1.370 . S
C2857 C2861 1.408 1_455 S
C2858 C2856 1.363 1_655 S
C2858 C2859 1.370 . S
C2858 C2862 1.534 . S
C2859 C2851 1.503 . S
C2859 C2858 1.370 . S
C2859 C2860 1.403 . S
C2860 C2859 1.403 . S
C2860 C2861 1.404 . S
C2860 C2863 1.539 . S
C2861 C2857 1.408 1_655 S
C2861 C2860 1.404 . S
C2861 H2873 0.930 . S
C2862 C2858 1.534 . S
C2862 H2874 0.936 1_655 S
C2862 H2875 0.975 . S
C2862 H2876 0.956 1_655 S
C2863 C2860 1.539 . S
C2863 H2877 0.958 . S
C2863 H2878 0.961 . S
C2863 H2879 0.960 . S
H2864 C2848 0.931 . S
H2865 C2853 0.929 . S
H2866 C2854 0.960 . S
H2867 C2854 0.962 . S
H2868 C2854 0.960 . S
H2869 C2855 0.961 . S
H2870 C2855 0.961 . S
H2871 C2855 0.961 . S
H2872 C2856 0.931 . S
H2873 C2861 0.930 . S
H2874 C2862 0.936 1_455 S
H2875 C2862 0.975 . S
H2876 C2862 0.956 1_455 S
H2877 C2863 0.958 . S
H2878 C2863 0.961 . S
H2879 C2863 0.960 . S
C2880 C2881 1.391 . S
C2880 C2882 1.394 . S
C2880 H2896 0.931 . S
C2881 C2880 1.391 . S
C2881 C2885 1.376 . S
C2882 C2880 1.394 . S
C2882 C2883 1.369 . S
C2882 C2886 1.531 . S
C2883 C2882 1.369 . S
C2883 C2884 1.410 . S
C2883 C2891 1.503 . S
C2884 C2883 1.410 . S
C2884 C2885 1.392 . S
C2884 C2887 1.511 . S
C2885 C2881 1.376 . S
C2885 C2884 1.392 . S
C2885 H2897 0.929 . S
C2886 C2882 1.531 . S
C2886 H2898 0.960 . S
C2886 H2899 0.962 . S
C2886 H2900 0.960 . S
C2887 C2884 1.511 . S
C2887 H2901 0.961 . S
C2887 H2902 0.961 . S
C2887 H2903 0.961 . S
C2888 C2889 1.370 . S
C2888 C2890 1.363 . S
C2888 H2904 0.931 . S
C2889 C2888 1.370 . S
C2889 C2893 1.408 . S
C2890 C2888 1.363 . S
C2890 C2891 1.370 . S
C2890 C2894 1.524 . S
C2891 C2883 1.503 . S
C2891 C2890 1.370 . S
C2891 C2892 1.403 . S
C2892 C2891 1.403 . S
C2892 C2893 1.404 . S
C2892 C2895 1.539 . S
C2893 C2889 1.408 . S
C2893 C2892 1.404 . S
C2893 H2905 0.930 . S
C2894 C2890 1.524 . S
C2894 H2906 0.956 . S
C2894 H2907 0.961 . S
C2894 H2908 0.961 . S
C2895 C2892 1.539 . S
C2895 H2909 0.958 . S
C2895 H2910 0.961 . S
C2895 H2911 0.960 . S
H2896 C2880 0.931 . S
H2897 C2885 0.929 . S
H2898 C2886 0.960 . S
H2899 C2886 0.962 . S
H2900 C2886 0.960 . S
H2901 C2887 0.961 . S
H2902 C2887 0.961 . S
H2903 C2887 0.961 . S
H2904 C2888 0.931 . S
H2905 C2893 0.930 . S
H2906 C2894 0.956 . S
H2907 C2894 0.961 . S
H2908 C2894 0.961 . S
H2909 C2895 0.958 . S
H2910 C2895 0.961 . S
H2911 C2895 0.960 . S
C2912 C2913 1.391 1_565 S
C2912 C2914 1.394 . S
C2912 H2928 0.931 . S
C2913 C2912 1.391 1_545 S
C2913 C2917 1.376 . S
C2914 C2912 1.394 . S
C2914 C2915 1.369 . S
C2914 C2918 1.531 . S
C2915 C2914 1.369 . S
C2915 C2916 1.410 1_565 S
C2915 C2923 1.503 . S
C2916 C2915 1.410 1_545 S
C2916 C2917 1.392 . S
C2916 C2919 1.511 . S
C2917 C2913 1.376 . S
C2917 C2916 1.392 . S
C2917 H2929 0.929 . S
C2918 C2914 1.531 . S
C2918 H2930 0.960 . S
C2918 H2931 0.962 . S
C2918 H2932 0.960 . S
C2919 C2916 1.511 . S
C2919 H2933 0.961 . S
C2919 H2934 0.961 . S
C2919 H2935 0.961 . S
C2920 C2921 1.370 . S
C2920 C2922 1.363 . S
C2920 H2936 0.931 . S
C2921 C2920 1.370 . S
C2921 C2925 1.408 . S
C2922 C2920 1.363 . S
C2922 C2923 1.370 . S
C2922 C2926 1.524 . S
C2923 C2915 1.503 . S
C2923 C2922 1.370 . S
C2923 C2924 1.403 . S
C2924 C2923 1.403 . S
C2924 C2925 1.404 . S
C2924 C2927 1.539 1_565 S
C2925 C2921 1.408 . S
C2925 C2924 1.404 . S
C2925 H2937 0.930 . S
C2926 C2922 1.524 . S
C2926 H2938 0.956 . S
C2926 H2939 0.961 . S
C2926 H2940 0.961 . S
C2927 C2924 1.539 1_545 S
C2927 H2941 0.958 . S
C2927 H2942 0.961 . S
C2927 H2943 0.960 . S
H2928 C2912 0.931 . S
H2929 C2917 0.929 . S
H2930 C2918 0.960 . S
H2931 C2918 0.962 . S
H2932 C2918 0.960 . S
H2933 C2919 0.961 . S
H2934 C2919 0.961 . S
H2935 C2919 0.961 . S
H2936 C2920 0.931 . S
H2937 C2925 0.930 . S
H2938 C2926 0.956 . S
H2939 C2926 0.961 . S
H2940 C2926 0.961 . S
H2941 C2927 0.958 . S
H2942 C2927 0.961 . S
H2943 C2927 0.960 . S
C2944 C2945 1.391 1_455 S
C2944 C2946 1.394 . S
C2944 H2960 0.931 . S
C2945 C2944 1.391 1_655 S
C2945 C2949 1.376 . S
C2946 C2944 1.394 . S
C2946 C2947 1.369 . S
C2946 C2950 1.531 . S
C2947 C2946 1.369 . S
C2947 C2948 1.410 1_455 S
C2947 C2955 1.503 . S
C2948 C2947 1.410 1_655 S
C2948 C2949 1.392 . S
C2948 C2951 1.511 . S
C2949 C2945 1.376 . S
C2949 C2948 1.392 . S
C2949 H2961 0.929 . S
C2950 C2946 1.531 . S
C2950 H2962 0.960 . S
C2950 H2963 0.962 . S
C2950 H2964 0.960 . S
C2951 C2948 1.511 . S
C2951 H2965 0.961 . S
C2951 H2966 0.961 . S
C2951 H2967 0.961 . S
C2952 C2953 1.370 . S
C2952 C2954 1.363 . S
C2952 H2968 0.931 . S
C2953 C2952 1.370 . S
C2953 C2957 1.408 . S
C2954 C2952 1.363 . S
C2954 C2955 1.370 . S
C2954 C2958 1.524 . S
C2955 C2947 1.503 . S
C2955 C2954 1.370 . S
C2955 C2956 1.403 . S
C2956 C2955 1.403 . S
C2956 C2957 1.404 . S
C2956 C2959 1.539 . S
C2957 C2953 1.408 . S
C2957 C2956 1.404 . S
C2957 H2969 0.930 . S
C2958 C2954 1.524 . S
C2958 H2970 0.956 . S
C2958 H2971 0.961 . S
C2958 H2972 0.961 . S
C2959 C2956 1.539 . S
C2959 H2973 0.958 . S
C2959 H2974 0.961 1_455 S
C2959 H2975 0.960 1_455 S
H2960 C2944 0.931 . S
H2961 C2949 0.929 . S
H2962 C2950 0.960 . S
H2963 C2950 0.962 . S
H2964 C2950 0.960 . S
H2965 C2951 0.961 . S
H2966 C2951 0.961 . S
H2967 C2951 0.961 . S
H2968 C2952 0.931 . S
H2969 C2957 0.930 . S
H2970 C2958 0.956 . S
H2971 C2958 0.961 . S
H2972 C2958 0.961 . S
H2973 C2959 0.958 . S
H2974 C2959 0.961 1_655 S
H2975 C2959 0.960 1_655 S
C2976 C2977 1.391 . S
C2976 C2978 1.394 . S
C2976 H2992 0.931 . S
C2977 C2976 1.391 . S
C2977 C2981 1.376 . S
C2978 C2976 1.394 . S
C2978 C2979 1.372 1_655 S
C2978 C2982 1.531 1_655 S
C2979 C2978 1.372 1_455 S
C2979 C2980 1.381 1_455 S
C2979 C2987 1.529 . S
C2980 C2979 1.381 1_655 S
C2980 C2981 1.392 . S
C2980 C2983 1.511 . S
C2981 C2977 1.376 . S
C2981 C2980 1.392 . S
C2981 H2993 0.929 . S
C2982 C2978 1.531 1_455 S
C2982 H2994 0.960 . S
C2982 H2995 0.962 . S
C2982 H2996 0.960 1_455 S
C2983 C2980 1.511 . S
C2983 H2997 0.961 . S
C2983 H2998 0.961 1_655 S
C2983 H2999 0.961 . S
C2984 C2985 1.370 . S
C2984 C2986 1.363 . S
C2984 H3000 0.931 . S
C2985 C2984 1.370 . S
C2985 C2989 1.408 . S
C2986 C2984 1.363 . S
C2986 C2987 1.370 . S
C2986 C2990 1.524 . S
C2987 C2979 1.529 . S
C2987 C2986 1.370 . S
C2987 C2988 1.403 . S
C2988 C2987 1.403 . S
C2988 C2989 1.404 . S
C2988 C2991 1.539 . S
C2989 C2985 1.408 . S
C2989 C2988 1.404 . S
C2989 H3001 0.930 . S
C2990 C2986 1.524 . S
C2990 H3002 0.956 . S
C2990 H3003 0.961 . S
C2990 H3004 0.961 . S
C2991 C2988 1.539 . S
C2991 H3005 0.958 . S
C2991 H3006 0.961 . S
C2991 H3007 0.960 . S
H2992 C2976 0.931 . S
H2993 C2981 0.929 . S
H2994 C2982 0.960 . S
H2995 C2982 0.962 . S
H2996 C2982 0.960 1_655 S
H2997 C2983 0.961 . S
H2998 C2983 0.961 1_455 S
H2999 C2983 0.961 . S
H3000 C2984 0.931 . S
H3001 C2989 0.930 . S
H3002 C2990 0.956 . S
H3003 C2990 0.961 . S
H3004 C2990 0.961 . S
H3005 C2991 0.958 . S
H3006 C2991 0.961 . S
H3007 C2991 0.960 . S
C3008 C3009 1.391 . S
C3008 C3010 1.394 . S
C3008 H3024 0.931 . S
C3009 C3008 1.391 . S
C3009 C3013 1.376 . S
C3010 C3008 1.394 . S
C3010 C3011 1.369 . S
C3010 C3014 1.531 . S
C3011 C3010 1.369 . S
C3011 C3012 1.410 . S
C3011 C3019 1.503 . S
C3012 C3011 1.410 . S
C3012 C3013 1.392 . S
C3012 C3015 1.511 . S
C3013 C3009 1.376 . S
C3013 C3012 1.392 . S
C3013 H3025 0.929 . S
C3014 C3010 1.531 . S
C3014 H3026 0.960 . S
C3014 H3027 0.962 . S
C3014 H3028 0.960 . S
C3015 C3012 1.511 . S
C3015 H3029 0.961 . S
C3015 H3030 0.961 . S
C3015 H3031 0.961 . S
C3016 C3017 1.370 . S
C3016 C3018 1.363 . S
C3016 H3032 0.931 . S
C3017 C3016 1.370 . S
C3017 C3021 1.408 . S
C3018 C3016 1.363 . S
C3018 C3019 1.370 . S
C3018 C3022 1.524 . S
C3019 C3011 1.503 . S
C3019 C3018 1.370 . S
C3019 C3020 1.403 . S
C3020 C3019 1.403 . S
C3020 C3021 1.404 . S
C3020 C3023 1.539 . S
C3021 C3017 1.408 . S
C3021 C3020 1.404 . S
C3021 H3033 0.930 . S
C3022 C3018 1.524 . S
C3022 H3034 0.956 . S
C3022 H3035 0.961 . S
C3022 H3036 0.961 . S
C3023 C3020 1.539 . S
C3023 H3037 0.958 . S
C3023 H3038 0.961 . S
C3023 H3039 0.960 . S
H3024 C3008 0.931 . S
H3025 C3013 0.929 . S
H3026 C3014 0.960 . S
H3027 C3014 0.962 . S
H3028 C3014 0.960 . S
H3029 C3015 0.961 . S
H3030 C3015 0.961 . S
H3031 C3015 0.961 . S
H3032 C3016 0.931 . S
H3033 C3021 0.930 . S
H3034 C3022 0.956 . S
H3035 C3022 0.961 . S
H3036 C3022 0.961 . S
H3037 C3023 0.958 . S
H3038 C3023 0.961 . S
H3039 C3023 0.960 . S
C3040 C3041 1.391 . S
C3040 C3042 1.394 . S
C3040 H3056 0.931 . S
C3041 C3040 1.391 . S
C3041 C3045 1.376 . S
C3042 C3040 1.394 . S
C3042 C3043 1.369 . S
C3042 C3046 1.531 . S
C3043 C3042 1.369 . S
C3043 C3044 1.410 . S
C3043 C3051 1.503 . S
C3044 C3043 1.410 . S
C3044 C3045 1.392 . S
C3044 C3047 1.511 . S
C3045 C3041 1.376 . S
C3045 C3044 1.392 . S
C3045 H3057 0.929 . S
C3046 C3042 1.531 . S
C3046 H3058 0.960 . S
C3046 H3059 0.962 . S
C3046 H3060 0.960 . S
C3047 C3044 1.511 . S
C3047 H3061 0.961 . S
C3047 H3062 0.961 . S
C3047 H3063 0.961 . S
C3048 C3049 1.370 . S
C3048 C3050 1.363 . S
C3048 H3064 0.931 . S
C3049 C3048 1.370 . S
C3049 C3053 1.408 . S
C3050 C3048 1.363 . S
C3050 C3051 1.370 1_545 S
C3050 C3054 1.537 . S
C3051 C3043 1.503 . S
C3051 C3050 1.370 1_565 S
C3051 C3052 1.403 1_565 S
C3052 C3051 1.403 1_545 S
C3052 C3053 1.404 . S
C3052 C3055 1.539 1_545 S
C3053 C3049 1.408 . S
C3053 C3052 1.404 . S
C3053 H3065 0.930 . S
C3054 C3050 1.537 . S
C3054 H3066 0.954 1_545 S
C3054 H3067 0.941 1_545 S
C3054 H3068 0.970 . S
C3055 C3052 1.539 1_565 S
C3055 H3069 0.958 . S
C3055 H3070 0.961 1_565 S
C3055 H3071 0.960 . S
H3056 C3040 0.931 . S
H3057 C3045 0.929 . S
H3058 C3046 0.960 . S
H3059 C3046 0.962 . S
H3060 C3046 0.960 . S
H3061 C3047 0.961 . S
H3062 C3047 0.961 . S
H3063 C3047 0.961 . S
H3064 C3048 0.931 . S
H3065 C3053 0.930 . S
H3066 C3054 0.954 1_565 S
H3067 C3054 0.941 1_565 S
H3068 C3054 0.970 . S
H3069 C3055 0.958 . S
H3070 C3055 0.961 1_545 S
H3071 C3055 0.960 . S
C3072 C3073 1.391 . S
C3072 C3074 1.394 . S
C3072 H3088 0.931 . S
C3073 C3072 1.391 . S
C3073 C3077 1.376 . S
C3074 C3072 1.394 . S
C3074 C3075 1.369 . S
C3074 C3078 1.531 . S
C3075 C3074 1.369 . S
C3075 C3076 1.410 . S
C3075 C3083 1.503 . S
C3076 C3075 1.410 . S
C3076 C3077 1.392 . S
C3076 C3079 1.511 . S
C3077 C3073 1.376 . S
C3077 C3076 1.392 . S
C3077 H3089 0.929 . S
C3078 C3074 1.531 . S
C3078 H3090 0.960 . S
C3078 H3091 0.962 1_455 S
C3078 H3092 0.960 . S
C3079 C3076 1.511 . S
C3079 H3093 0.961 . S
C3079 H3094 0.961 . S
C3079 H3095 0.961 . S
C3080 C3081 1.370 1_455 S
C3080 C3082 1.363 . S
C3080 H3096 0.931 1_455 S
C3081 C3080 1.370 1_655 S
C3081 C3085 1.408 1_655 S
C3082 C3080 1.363 . S
C3082 C3083 1.370 . S
C3082 C3086 1.524 . S
C3083 C3075 1.503 . S
C3083 C3082 1.370 . S
C3083 C3084 1.403 . S
C3084 C3083 1.403 . S
C3084 C3085 1.404 . S
C3084 C3087 1.539 . S
C3085 C3081 1.408 1_455 S
C3085 C3084 1.404 . S
C3085 H3097 0.930 . S
C3086 C3082 1.524 . S
C3086 H3098 0.956 . S
C3086 H3099 0.961 . S
C3086 H3100 0.961 . S
C3087 C3084 1.539 . S
C3087 H3101 0.958 . S
C3087 H3102 0.961 . S
C3087 H3103 0.960 . S
H3088 C3072 0.931 . S
H3089 C3077 0.929 . S
H3090 C3078 0.960 . S
H3091 C3078 0.962 1_655 S
H3092 C3078 0.960 . S
H3093 C3079 0.961 . S
H3094 C3079 0.961 . S
H3095 C3079 0.961 . S
H3096 C3080 0.931 1_655 S
H3097 C3085 0.930 . S
H3098 C3086 0.956 . S
H3099 C3086 0.961 . S
H3100 C3086 0.961 . S
H3101 C3087 0.958 . S
H3102 C3087 0.961 . S
H3103 C3087 0.960 . S
C3104 C3105 1.391 . S
C3104 C3106 1.394 . S
C3104 H3120 0.931 . S
C3105 C3104 1.391 . S
C3105 C3109 1.376 . S
C3106 C3104 1.394 . S
C3106 C3107 1.369 . S
C3106 C3110 1.531 . S
C3107 C3106 1.369 . S
C3107 C3108 1.410 . S
C3107 C3115 1.503 . S
C3108 C3107 1.410 . S
C3108 C3109 1.392 . S
C3108 C3111 1.511 . S
C3109 C3105 1.376 . S
C3109 C3108 1.392 . S
C3109 H3121 0.929 . S
C3110 C3106 1.531 . S
C3110 H3122 0.960 . S
C3110 H3123 0.962 . S
C3110 H3124 0.960 . S
C3111 C3108 1.511 . S
C3111 H3125 0.961 . S
C3111 H3126 0.961 . S
C3111 H3127 0.961 . S
C3112 C3113 1.370 . S
C3112 C3114 1.363 . S
C3112 H3128 0.931 . S
C3113 C3112 1.370 . S
C3113 C3117 1.408 . S
C3114 C3112 1.363 . S
C3114 C3115 1.370 . S
C3114 C3118 1.524 . S
C3115 C3107 1.503 . S
C3115 C3114 1.370 . S
C3115 C3116 1.403 . S
C3116 C3115 1.403 . S
C3116 C3117 1.404 . S
C3116 C3119 1.539 . S
C3117 C3113 1.408 . S
C3117 C3116 1.404 . S
C3117 H3129 0.930 . S
C3118 C3114 1.524 . S
C3118 H3130 0.956 . S
C3118 H3131 0.961 . S
C3118 H3132 0.961 . S
C3119 C3116 1.539 . S
C3119 H3133 0.958 . S
C3119 H3134 0.961 . S
C3119 H3135 0.960 . S
H3120 C3104 0.931 . S
H3121 C3109 0.929 . S
H3122 C3110 0.960 . S
H3123 C3110 0.962 . S
H3124 C3110 0.960 . S
H3125 C3111 0.961 . S
H3126 C3111 0.961 . S
H3127 C3111 0.961 . S
H3128 C3112 0.931 . S
H3129 C3117 0.930 . S
H3130 C3118 0.956 . S
H3131 C3118 0.961 . S
H3132 C3118 0.961 . S
H3133 C3119 0.958 . S
H3134 C3119 0.961 . S
H3135 C3119 0.960 . S
C3136 C3137 1.391 . S
C3136 C3138 1.394 . S
C3136 H3152 0.931 . S
C3137 C3136 1.391 . S
C3137 C3141 1.376 . S
C3138 C3136 1.394 . S
C3138 C3139 1.369 . S
C3138 C3142 1.531 . S
C3139 C3138 1.369 . S
C3139 C3140 1.410 . S
C3139 C3147 1.503 . S
C3140 C3139 1.410 . S
C3140 C3141 1.392 . S
C3140 C3143 1.511 . S
C3141 C3137 1.376 . S
C3141 C3140 1.392 . S
C3141 H3153 0.929 . S
C3142 C3138 1.531 . S
C3142 H3154 0.960 . S
C3142 H3155 0.962 . S
C3142 H3156 0.960 . S
C3143 C3140 1.511 . S
C3143 H3157 0.961 . S
C3143 H3158 0.961 . S
C3143 H3159 0.961 . S
C3144 C3145 1.370 1_565 S
C3144 C3146 1.363 . S
C3144 H3160 0.931 . S
C3145 C3144 1.370 1_545 S
C3145 C3149 1.408 . S
C3146 C3144 1.363 . S
C3146 C3147 1.370 . S
C3146 C3150 1.524 . S
C3147 C3139 1.503 . S
C3147 C3146 1.370 . S
C3147 C3148 1.400 . S
C3148 C3147 1.400 . S
C3148 C3149 1.407 1_565 S
C3148 C3151 1.539 1_565 S
C3149 C3145 1.408 . S
C3149 C3148 1.407 1_545 S
C3149 H3161 0.930 . S
C3150 C3146 1.524 . S
C3150 H3162 0.956 . S
C3150 H3163 0.961 . S
C3150 H3164 0.961 . S
C3151 C3148 1.539 1_545 S
C3151 H3165 0.958 . S
C3151 H3166 0.961 . S
C3151 H3167 0.960 . S
H3152 C3136 0.931 . S
H3153 C3141 0.929 . S
H3154 C3142 0.960 . S
H3155 C3142 0.962 . S
H3156 C3142 0.960 . S
H3157 C3143 0.961 . S
H3158 C3143 0.961 . S
H3159 C3143 0.961 . S
H3160 C3144 0.931 . S
H3161 C3149 0.930 . S
H3162 C3150 0.956 . S
H3163 C3150 0.961 . S
H3164 C3150 0.961 . S
H3165 C3151 0.958 . S
H3166 C3151 0.961 . S
H3167 C3151 0.960 . S
C3168 C3169 1.391 . S
C3168 C3170 1.394 . S
C3168 H3184 0.931 . S
C3169 C3168 1.391 . S
C3169 C3173 1.376 . S
C3170 C3168 1.394 . S
C3170 C3171 1.369 . S
C3170 C3174 1.531 . S
C3171 C3170 1.369 . S
C3171 C3172 1.410 . S
C3171 C3179 1.503 . S
C3172 C3171 1.410 . S
C3172 C3173 1.392 . S
C3172 C3175 1.511 . S
C3173 C3169 1.376 . S
C3173 C3172 1.392 . S
C3173 H3185 0.929 . S
C3174 C3170 1.531 . S
C3174 H3186 0.960 . S
C3174 H3187 0.962 . S
C3174 H3188 0.960 . S
C3175 C3172 1.511 . S
C3175 H3189 0.961 . S
C3175 H3190 0.961 . S
C3175 H3191 0.961 1_565 S
C3176 C3177 1.370 1_565 S
C3176 C3178 1.363 . S
C3176 H3192 0.931 . S
C3177 C3176 1.370 1_545 S
C3177 C3181 1.408 . S
C3178 C3176 1.363 . S
C3178 C3179 1.370 . S
C3178 C3182 1.524 . S
C3179 C3171 1.503 . S
C3179 C3178 1.370 . S
C3179 C3180 1.403 . S
C3180 C3179 1.403 . S
C3180 C3181 1.404 1_565 S
C3180 C3183 1.539 1_565 S
C3181 C3177 1.408 . S
C3181 C3180 1.404 1_545 S
C3181 H3193 0.930 . S
C3182 C3178 1.524 . S
C3182 H3194 0.956 . S
C3182 H3195 0.961 . S
C3182 H3196 0.961 . S
C3183 C3180 1.539 1_545 S
C3183 H3197 0.958 1_545 S
C3183 H3198 0.961 . S
C3183 H3199 0.963 1_545 S
H3184 C3168 0.931 . S
H3185 C3173 0.929 . S
H3186 C3174 0.960 . S
H3187 C3174 0.962 . S
H3188 C3174 0.960 . S
H3189 C3175 0.961 . S
H3190 C3175 0.961 . S
H3191 C3175 0.961 1_545 S
H3192 C3176 0.931 . S
H3193 C3181 0.930 . S
H3194 C3182 0.956 . S
H3195 C3182 0.961 . S
H3196 C3182 0.961 . S
H3197 C3183 0.958 1_565 S
H3198 C3183 0.961 . S
H3199 C3183 0.963 1_565 S
C3200 C3201 1.391 1_455 S
C3200 C3202 1.394 . S
C3200 H3216 0.931 . S
C3201 C3200 1.391 1_655 S
C3201 C3205 1.376 . S
C3202 C3200 1.394 . S
C3202 C3203 1.369 . S
C3202 C3206 1.531 . S
C3203 C3202 1.369 . S
C3203 C3204 1.410 . S
C3203 C3211 1.503 . S
C3204 C3203 1.410 . S
C3204 C3205 1.392 1_455 S
C3204 C3207 1.511 . S
C3205 C3201 1.376 . S
C3205 C3204 1.392 1_655 S
C3205 H3217 0.929 . S
C3206 C3202 1.531 . S
C3206 H3218 0.960 . S
C3206 H3219 0.962 . S
C3206 H3220 0.960 . S
C3207 C3204 1.511 . S
C3207 H3221 0.961 1_455 S
C3207 H3222 0.961 . S
C3207 H3223 0.961 . S
C3208 C3209 1.370 . S
C3208 C3210 1.363 . S
C3208 H3224 0.931 . S
C3209 C3208 1.370 . S
C3209 C3213 1.408 . S
C3210 C3208 1.363 . S
C3210 C3211 1.370 . S
C3210 C3214 1.524 . S
C3211 C3203 1.503 . S
C3211 C3210 1.370 . S
C3211 C3212 1.403 . S
C3212 C3211 1.403 . S
C3212 C3213 1.404 . S
C3212 C3215 1.539 . S
C3213 C3209 1.408 . S
C3213 C3212 1.404 . S
C3213 H3225 0.930 . S
C3214 C3210 1.524 . S
C3214 H3226 0.956 . S
C3214 H3227 0.961 1_455 S
C3214 H3228 0.961 . S
C3215 C3212 1.539 . S
C3215 H3229 0.958 . S
C3215 H3230 0.961 . S
C3215 H3231 0.960 . S
H3216 C3200 0.931 . S
H3217 C3205 0.929 . S
H3218 C3206 0.960 . S
H3219 C3206 0.962 . S
H3220 C3206 0.960 . S
H3221 C3207 0.961 1_655 S
H3222 C3207 0.961 . S
H3223 C3207 0.961 . S
H3224 C3208 0.931 . S
H3225 C3213 0.930 . S
H3226 C3214 0.956 . S
H3227 C3214 0.961 1_655 S
H3228 C3214 0.961 . S
H3229 C3215 0.958 . S
H3230 C3215 0.961 . S
H3231 C3215 0.960 . S
C3232 C3233 1.391 . S
C3232 C3234 1.394 . S
C3232 H3248 0.931 . S
C3233 C3232 1.391 . S
C3233 C3237 1.376 . S
C3234 C3232 1.394 . S
C3234 C3235 1.369 . S
C3234 C3238 1.531 . S
C3235 C3234 1.369 . S
C3235 C3236 1.410 . S
C3235 C3243 1.503 . S
C3236 C3235 1.410 . S
C3236 C3237 1.392 . S
C3236 C3239 1.511 . S
C3237 C3233 1.376 . S
C3237 C3236 1.392 . S
C3237 H3249 0.929 . S
C3238 C3234 1.531 . S
C3238 H3250 0.960 . S
C3238 H3251 0.962 . S
C3238 H3252 0.960 . S
C3239 C3236 1.511 . S
C3239 H3253 0.961 . S
C3239 H3254 0.961 . S
C3239 H3255 0.961 . S
C3240 C3241 1.370 . S
C3240 C3242 1.363 . S
C3240 H3256 0.931 . S
C3241 C3240 1.370 . S
C3241 C3245 1.408 . S
C3242 C3240 1.363 . S
C3242 C3243 1.370 . S
C3242 C3246 1.524 . S
C3243 C3235 1.503 . S
C3243 C3242 1.370 . S
C3243 C3244 1.403 . S
C3244 C3243 1.403 . S
C3244 C3245 1.404 . S
C3244 C3247 1.539 . S
C3245 C3241 1.408 . S
C3245 C3244 1.404 . S
C3245 H3257 0.930 . S
C3246 C3242 1.524 . S
C3246 H3258 0.956 . S
C3246 H3259 0.961 . S
C3246 H3260 0.961 . S
C3247 C3244 1.539 . S
C3247 H3261 0.958 . S
C3247 H3262 0.961 . S
C3247 H3263 0.960 . S
H3248 C3232 0.931 . S
H3249 C3237 0.929 . S
H3250 C3238 0.960 . S
H3251 C3238 0.962 . S
H3252 C3238 0.960 . S
H3253 C3239 0.961 . S
H3254 C3239 0.961 . S
H3255 C3239 0.961 . S
H3256 C3240 0.931 . S
H3257 C3245 0.930 . S
H3258 C3246 0.956 . S
H3259 C3246 0.961 . S
H3260 C3246 0.961 . S
H3261 C3247 0.958 . S
H3262 C3247 0.961 . S
H3263 C3247 0.960 . S
C3264 C3265 1.429 . S
C3264 C3266 1.394 . S
C3264 H3280 0.931 . S
C3265 C3264 1.429 . S
C3265 C3269 1.354 1_556 S
C3266 C3264 1.394 . S
C3266 C3267 1.369 . S
C3266 C3270 1.531 . S
C3267 C3266 1.369 . S
C3267 C3268 1.410 1_556 S
C3267 C3275 1.503 1_565 S
C3268 C3267 1.410 1_554 S
C3268 C3269 1.392 . S
C3268 C3271 1.511 . S
C3269 C3265 1.354 1_554 S
C3269 C3268 1.392 . S
C3269 H3281 0.929 . S
C3270 C3266 1.531 . S
C3270 H3282 0.960 . S
C3270 H3283 0.962 . S
C3270 H3284 0.960 . S
C3271 C3268 1.511 . S
C3271 H3285 0.961 . S
C3271 H3286 0.961 . S
C3271 H3287 0.965 1_554 S
C3272 C3273 1.370 1_554 S
C3272 C3274 1.363 . S
C3272 H3288 0.931 . S
C3273 C3272 1.370 1_556 S
C3273 C3277 1.408 . S
C3274 C3272 1.363 . S
C3274 C3275 1.370 1_554 S
C3274 C3278 1.524 1_545 S
C3275 C3267 1.503 1_545 S
C3275 C3274 1.370 1_556 S
C3275 C3276 1.403 . S
C3276 C3275 1.403 . S
C3276 C3277 1.404 . S
C3276 C3279 1.539 . S
C3277 C3273 1.408 . S
C3277 C3276 1.404 . S
C3277 H3289 0.930 . S
C3278 C3274 1.524 1_565 S
C3278 H3290 0.956 . S
C3278 H3291 0.961 . S
C3278 H3292 0.961 1_565 S
C3279 C3276 1.539 . S
C3279 H3293 0.958 1_545 S
C3279 H3294 0.961 . S
C3279 H3295 0.960 1_545 S
H3280 C3264 0.931 . S
H3281 C3269 0.929 . S
H3282 C3270 0.960 . S
H3283 C3270 0.962 . S
H3284 C3270 0.960 . S
H3285 C3271 0.961 . S
H3286 C3271 0.961 . S
H3287 C3271 0.965 1_556 S
H3288 C3272 0.931 . S
H3289 C3277 0.930 . S
H3290 C3278 0.956 . S
H3291 C3278 0.961 . S
H3292 C3278 0.961 1_545 S
H3293 C3279 0.958 1_565 S
H3294 C3279 0.961 . S
H3295 C3279 0.960 1_565 S
C3296 C3297 1.439 . S
C3296 C3298 1.394 . S
C3296 H3312 0.931 . S
C3297 C3296 1.439 . S
C3297 C3301 1.335 1_554 S
C3298 C3296 1.394 . S
C3298 C3299 1.399 . S
C3298 C3302 1.531 . S
C3299 C3298 1.399 . S
C3299 C3300 1.384 1_554 S
C3299 C3307 1.491 1_454 S
C3300 C3299 1.384 1_556 S
C3300 C3301 1.392 . S
C3300 C3303 1.511 . S
C3301 C3297 1.335 1_556 S
C3301 C3300 1.392 . S
C3301 H3313 0.929 . S
C3302 C3298 1.531 . S
C3302 H3314 0.960 . S
C3302 H3315 0.962 . S
C3302 H3316 0.960 . S
C3303 C3300 1.511 . S
C3303 H3317 0.961 . S
C3303 H3318 0.961 . S
C3303 H3319 0.961 . S
C3304 C3305 1.370 . S
C3304 C3306 1.363 . S
C3304 H3320 0.931 . S
C3305 C3304 1.370 . S
C3305 C3309 1.408 1_556 S
C3306 C3304 1.363 . S
C3306 C3307 1.452 . S
C3306 C3310 1.524 1_655 S
C3307 C3299 1.491 1_656 S
C3307 C3306 1.452 . S
C3307 C3308 1.336 1_556 S
C3308 C3307 1.336 1_554 S
C3308 C3309 1.404 . S
C3308 C3311 1.539 . S
C3309 C3305 1.408 1_554 S
C3309 C3308 1.404 . S
C3309 H3321 0.930 . S
C3310 C3306 1.524 1_455 S
C3310 H3322 0.956 . S
C3310 H3323 0.961 . S
C3310 H3324 0.961 1_455 S
C3311 C3308 1.539 . S
C3311 H3325 0.958 . S
C3311 H3326 0.961 . S
C3311 H3327 0.960 1_655 S
H3312 C3296 0.931 . S
H3313 C3301 0.929 . S
H3314 C3302 0.960 . S
H3315 C3302 0.962 . S
H3316 C3302 0.960 . S
H3317 C3303 0.961 . S
H3318 C3303 0.961 . S
H3319 C3303 0.961 . S
H3320 C3304 0.931 . S
H3321 C3309 0.930 . S
H3322 C3310 0.956 . S
H3323 C3310 0.961 . S
H3324 C3310 0.961 1_655 S
H3325 C3311 0.958 . S
H3326 C3311 0.961 . S
H3327 C3311 0.960 1_455 S
C3328 C3329 1.391 1_554 S
C3328 C3330 1.394 . S
C3328 H3344 0.931 . S
C3329 C3328 1.391 1_556 S
C3329 C3333 1.376 . S
C3330 C3328 1.394 . S
C3330 C3331 1.343 1_554 S
C3330 C3334 1.531 . S
C3331 C3330 1.343 1_556 S
C3331 C3332 1.445 . S
C3331 C3339 1.503 . S
C3332 C3331 1.445 . S
C3332 C3333 1.392 . S
C3332 C3335 1.511 . S
C3333 C3329 1.376 . S
C3333 C3332 1.392 . S
C3333 H3345 0.929 . S
C3334 C3330 1.531 . S
C3334 H3346 0.960 . S
C3334 H3347 0.962 . S
C3334 H3348 0.960 . S
C3335 C3332 1.511 . S
C3335 H3349 0.961 . S
C3335 H3350 0.961 . S
C3335 H3351 0.961 . S
C3336 C3337 1.369 1_556 S
C3336 C3338 1.363 . S
C3336 H3352 0.931 . S
C3337 C3336 1.369 1_554 S
C3337 C3341 1.410 . S
C3338 C3336 1.363 . S
C3338 C3339 1.387 . S
C3338 C3342 1.524 . S
C3339 C3331 1.503 . S
C3339 C3338 1.387 . S
C3339 C3340 1.385 1_556 S
C3340 C3339 1.385 1_554 S
C3340 C3341 1.404 . S
C3340 C3343 1.539 . S
C3341 C3337 1.410 . S
C3341 C3340 1.404 . S
C3341 H3353 0.930 . S
C3342 C3338 1.524 . S
C3342 H3354 0.956 . S
C3342 H3355 0.961 . S
C3342 H3356 0.961 . S
C3343 C3340 1.539 . S
C3343 H3357 0.958 . S
C3343 H3358 0.961 . S
C3343 H3359 0.960 . S
H3344 C3328 0.931 . S
H3345 C3333 0.929 . S
H3346 C3334 0.960 . S
H3347 C3334 0.962 . S
H3348 C3334 0.960 . S
H3349 C3335 0.961 . S
H3350 C3335 0.961 . S
H3351 C3335 0.961 . S
H3352 C3336 0.931 . S
H3353 C3341 0.930 . S
H3354 C3342 0.956 . S
H3355 C3342 0.961 . S
H3356 C3342 0.961 . S
H3357 C3343 0.958 . S
H3358 C3343 0.961 . S
H3359 C3343 0.960 . S
C3360 C3361 1.391 . S
C3360 C3362 1.394 . S
C3360 H3376 0.931 . S
C3361 C3360 1.391 . S
C3361 C3365 1.376 . S
C3362 C3360 1.394 . S
C3362 C3363 1.369 . S
C3362 C3366 1.531 . S
C3363 C3362 1.369 . S
C3363 C3364 1.410 . S
C3363 C3371 1.503 . S
C3364 C3363 1.410 . S
C3364 C3365 1.392 . S
C3364 C3367 1.511 . S
C3365 C3361 1.376 . S
C3365 C3364 1.392 . S
C3365 H3377 0.929 . S
C3366 C3362 1.531 . S
C3366 H3378 0.960 . S
C3366 H3379 0.962 . S
C3366 H3380 0.960 . S
C3367 C3364 1.511 . S
C3367 H3381 0.961 . S
C3367 H3382 0.961 1_545 S
C3367 H3383 0.961 1_545 S
C3368 C3369 1.370 1_545 S
C3368 C3370 1.363 . S
C3368 H3384 0.931 . S
C3369 C3368 1.370 1_565 S
C3369 C3373 1.408 . S
C3370 C3368 1.363 . S
C3370 C3371 1.370 . S
C3370 C3374 1.524 . S
C3371 C3363 1.503 . S
C3371 C3370 1.370 . S
C3371 C3372 1.403 . S
C3372 C3371 1.403 . S
C3372 C3373 1.404 1_545 S
C3372 C3375 1.539 . S
C3373 C3369 1.408 . S
C3373 C3372 1.404 1_565 S
C3373 H3385 0.930 . S
C3374 C3370 1.524 . S
C3374 H3386 0.956 . S
C3374 H3387 0.961 . S
C3374 H3388 0.961 . S
C3375 C3372 1.539 . S
C3375 H3389 0.958 . S
C3375 H3390 0.961 1_545 S
C3375 H3391 0.960 . S
H3376 C3360 0.931 . S
H3377 C3365 0.929 . S
H3378 C3366 0.960 . S
H3379 C3366 0.962 . S
H3380 C3366 0.960 . S
H3381 C3367 0.961 . S
H3382 C3367 0.961 1_565 S
H3383 C3367 0.961 1_565 S
H3384 C3368 0.931 . S
H3385 C3373 0.930 . S
H3386 C3374 0.956 . S
H3387 C3374 0.961 . S
H3388 C3374 0.961 . S
H3389 C3375 0.958 . S
H3390 C3375 0.961 1_565 S
H3391 C3375 0.960 . S
C3392 C3393 1.391 . S
C3392 C3394 1.394 . S
C3392 H3408 0.931 . S
C3393 C3392 1.391 . S
C3393 C3397 1.376 . S
C3394 C3392 1.394 . S
C3394 C3395 1.369 . S
C3394 C3398 1.531 . S
C3395 C3394 1.369 . S
C3395 C3396 1.410 . S
C3395 C3403 1.503 . S
C3396 C3395 1.410 . S
C3396 C3397 1.392 . S
C3396 C3399 1.511 . S
C3397 C3393 1.376 . S
C3397 C3396 1.392 . S
C3397 H3409 0.929 . S
C3398 C3394 1.531 . S
C3398 H3410 0.960 . S
C3398 H3411 0.962 . S
C3398 H3412 0.960 . S
C3399 C3396 1.511 . S
C3399 H3413 0.961 1_655 S
C3399 H3414 0.961 1_655 S
C3399 H3415 0.961 1_655 S
C3400 C3401 1.370 1_655 S
C3400 C3402 1.363 . S
C3400 H3416 0.931 . S
C3401 C3400 1.370 1_455 S
C3401 C3405 1.408 1_455 S
C3402 C3400 1.363 . S
C3402 C3403 1.370 . S
C3402 C3406 1.524 . S
C3403 C3395 1.503 . S
C3403 C3402 1.370 . S
C3403 C3404 1.403 . S
C3404 C3403 1.403 . S
C3404 C3405 1.404 . S
C3404 C3407 1.539 . S
C3405 C3401 1.408 1_655 S
C3405 C3404 1.404 . S
C3405 H3417 0.930 1_655 S
C3406 C3402 1.524 . S
C3406 H3418 0.956 . S
C3406 H3419 0.961 . S
C3406 H3420 0.961 . S
C3407 C3404 1.539 . S
C3407 H3421 0.958 . S
C3407 H3422 0.961 . S
C3407 H3423 0.960 . S
H3408 C3392 0.931 . S
H3409 C3397 0.929 . S
H3410 C3398 0.960 . S
H3411 C3398 0.962 . S
H3412 C3398 0.960 . S
H3413 C3399 0.961 1_455 S
H3414 C3399 0.961 1_455 S
H3415 C3399 0.961 1_455 S
H3416 C3400 0.931 . S
H3417 C3405 0.930 1_455 S
H3418 C3406 0.956 . S
H3419 C3406 0.961 . S
H3420 C3406 0.961 . S
H3421 C3407 0.958 . S
H3422 C3407 0.961 . S
H3423 C3407 0.960 . S
C3424 C3425 1.391 . S
C3424 C3426 1.394 . S
C3424 H3440 0.931 . S
C3425 C3424 1.391 . S
C3425 C3429 1.376 . S
C3426 C3424 1.394 . S
C3426 C3427 1.369 . S
C3426 C3430 1.531 . S
C3427 C3426 1.369 . S
C3427 C3428 1.410 . S
C3427 C3435 1.503 . S
C3428 C3427 1.410 . S
C3428 C3429 1.392 . S
C3428 C3431 1.511 . S
C3429 C3425 1.376 . S
C3429 C3428 1.392 . S
C3429 H3441 0.929 . S
C3430 C3426 1.531 . S
C3430 H3442 0.960 . S
C3430 H3443 0.962 . S
C3430 H3444 0.960 . S
C3431 C3428 1.511 . S
C3431 H3445 0.961 . S
C3431 H3446 0.961 . S
C3431 H3447 0.961 . S
C3432 C3433 1.370 . S
C3432 C3434 1.363 . S
C3432 H3448 0.931 . S
C3433 C3432 1.370 . S
C3433 C3437 1.408 . S
C3434 C3432 1.363 . S
C3434 C3435 1.370 . S
C3434 C3438 1.524 . S
C3435 C3427 1.503 . S
C3435 C3434 1.370 . S
C3435 C3436 1.403 . S
C3436 C3435 1.403 . S
C3436 C3437 1.404 . S
C3436 C3439 1.539 . S
C3437 C3433 1.408 . S
C3437 C3436 1.404 . S
C3437 H3449 0.930 . S
C3438 C3434 1.524 . S
C3438 H3450 0.956 . S
C3438 H3451 0.961 . S
C3438 H3452 0.961 . S
C3439 C3436 1.539 . S
C3439 H3453 0.958 . S
C3439 H3454 0.961 . S
C3439 H3455 0.960 . S
H3440 C3424 0.931 . S
H3441 C3429 0.929 . S
H3442 C3430 0.960 . S
H3443 C3430 0.962 . S
H3444 C3430 0.960 . S
H3445 C3431 0.961 . S
H3446 C3431 0.961 . S
H3447 C3431 0.961 . S
H3448 C3432 0.931 . S
H3449 C3437 0.930 . S
H3450 C3438 0.956 . S
H3451 C3438 0.961 . S
H3452 C3438 0.961 . S
H3453 C3439 0.958 . S
H3454 C3439 0.961 . S
H3455 C3439 0.960 . S
C3456 C3457 1.391 1_556 S
C3456 C3458 1.394 . S
C3456 H3472 0.931 . S
C3457 C3456 1.391 1_554 S
C3457 C3461 1.376 . S
C3458 C3456 1.394 . S
C3458 C3459 1.290 1_556 S
C3458 C3462 1.531 . S
C3459 C3458 1.290 1_554 S
C3459 C3460 1.508 . S
C3459 C3467 1.502 1_565 S
C3460 C3459 1.508 . S
C3460 C3461 1.392 . S
C3460 C3463 1.511 1_565 S
C3461 C3457 1.376 . S
C3461 C3460 1.392 . S
C3461 H3473 0.929 . S
C3462 C3458 1.531 . S
C3462 H3474 0.960 1_565 S
C3462 H3475 0.962 . S
C3462 H3476 0.960 . S
C3463 C3460 1.511 1_545 S
C3463 H3477 0.961 1_545 S
C3463 H3478 0.961 . S
C3463 H3479 0.961 . S
C3464 C3465 1.376 1_554 S
C3464 C3466 1.363 . S
C3464 H3480 0.931 . S
C3465 C3464 1.376 1_556 S
C3465 C3469 1.403 . S
C3466 C3464 1.363 . S
C3466 C3467 1.408 . S
C3466 C3470 1.524 . S
C3467 C3459 1.502 1_545 S
C3467 C3466 1.408 . S
C3467 C3468 1.364 1_554 S
C3468 C3467 1.364 1_556 S
C3468 C3469 1.404 . S
C3468 C3471 1.539 . S
C3469 C3465 1.403 . S
C3469 C3468 1.404 . S
C3469 H3481 0.930 . S
C3470 C3466 1.524 . S
C3470 H3482 0.956 . S
C3470 H3483 0.961 . S
C3470 H3484 0.961 . S
C3471 C3468 1.539 . S
C3471 H3485 0.958 . S
C3471 H3486 0.961 . S
C3471 H3487 0.960 . S
H3472 C3456 0.931 . S
H3473 C3461 0.929 . S
H3474 C3462 0.960 1_545 S
H3475 C3462 0.962 . S
H3476 C3462 0.960 . S
H3477 C3463 0.961 1_565 S
H3478 C3463 0.961 . S
H3479 C3463 0.961 . S
H3480 C3464 0.931 . S
H3481 C3469 0.930 . S
H3482 C3470 0.956 . S
H3483 C3470 0.961 . S
H3484 C3470 0.961 . S
H3485 C3471 0.958 . S
H3486 C3471 0.961 . S
H3487 C3471 0.960 . S
C3488 C3489 1.385 1_554 S
C3488 C3490 1.393 . S
C3488 H3504 0.928 . S
C3489 C3488 1.385 1_556 S
C3489 C3493 1.395 . S
C3490 C3488 1.393 . S
C3490 C3491 1.363 1_554 S
C3490 C3494 1.531 . S
C3491 C3490 1.363 1_556 S
C3491 C3492 1.425 . S
C3491 C3499 1.490 1_656 S
C3492 C3491 1.425 . S
C3492 C3493 1.392 . S
C3492 C3495 1.511 . S
C3493 C3489 1.395 . S
C3493 C3492 1.392 . S
C3493 H3505 0.929 . S
C3494 C3490 1.531 . S
C3494 H3506 0.960 1_554 S
C3494 H3507 0.962 . S
C3494 H3508 0.960 1_554 S
C3495 C3492 1.511 . S
C3495 H3509 0.961 . S
C3495 H3510 0.962 1_556 S
C3495 H3511 0.961 . S
C3496 C3497 1.370 . S
C3496 C3498 1.363 . S
C3496 H3512 0.931 . S
C3497 C3496 1.370 . S
C3497 C3501 1.408 1_554 S
C3498 C3496 1.363 . S
C3498 C3499 1.440 . S
C3498 C3502 1.524 1_455 S
C3499 C3491 1.490 1_454 S
C3499 C3498 1.440 . S
C3499 C3500 1.344 1_554 S
C3500 C3499 1.344 1_556 S
C3500 C3501 1.404 . S
C3500 C3503 1.539 . S
C3501 C3497 1.408 1_556 S
C3501 C3500 1.404 . S
C3501 H3513 0.930 . S
C3502 C3498 1.524 1_655 S
C3502 H3514 0.956 . S
C3502 H3515 0.961 . S
C3502 H3516 0.961 1_655 S
C3503 C3500 1.539 . S
C3503 H3517 0.958 . S
C3503 H3518 0.961 . S
C3503 H3519 0.960 1_455 S
H3504 C3488 0.928 . S
H3505 C3493 0.929 . S
H3506 C3494 0.960 1_556 S
H3507 C3494 0.962 . S
H3508 C3494 0.960 1_556 S
H3509 C3495 0.961 . S
H3510 C3495 0.962 1_554 S
H3511 C3495 0.961 . S
H3512 C3496 0.931 . S
H3513 C3501 0.930 . S
H3514 C3502 0.956 . S
H3515 C3502 0.961 . S
H3516 C3502 0.961 1_455 S
H3517 C3503 0.958 . S
H3518 C3503 0.961 . S
H3519 C3503 0.960 1_655 S
C3520 C3521 1.391 . S
C3520 C3522 1.393 1_554 S
C3520 H3536 0.943 . S
C3521 C3520 1.391 . S
C3521 C3525 1.376 . S
C3522 C3520 1.393 1_556 S
C3522 C3523 1.368 1_556 S
C3522 C3526 1.531 . S
C3523 C3522 1.368 1_554 S
C3523 C3524 1.412 . S
C3523 C3531 1.503 . S
C3524 C3523 1.412 . S
C3524 C3525 1.392 . S
C3524 C3527 1.511 . S
C3525 C3521 1.376 . S
C3525 C3524 1.392 . S
C3525 H3537 0.929 . S
C3526 C3522 1.531 . S
C3526 H3538 0.960 . S
C3526 H3539 0.962 1_556 S
C3526 H3540 0.960 . S
C3527 C3524 1.511 . S
C3527 H3541 0.961 . S
C3527 H3542 0.961 . S
C3527 H3543 0.961 1_554 S
C3528 C3529 1.358 1_554 S
C3528 C3530 1.363 . S
C3528 H3544 0.931 . S
C3529 C3528 1.358 1_556 S
C3529 C3533 1.421 . S
C3530 C3528 1.363 . S
C3530 C3531 1.361 . S
C3530 C3534 1.524 . S
C3531 C3523 1.503 . S
C3531 C3530 1.361 . S
C3531 C3532 1.413 1_554 S
C3532 C3531 1.413 1_556 S
C3532 C3533 1.404 . S
C3532 C3535 1.539 . S
C3533 C3529 1.421 . S
C3533 C3532 1.404 . S
C3533 H3545 0.930 . S
C3534 C3530 1.524 . S
C3534 H3546 0.956 . S
C3534 H3547 0.961 . S
C3534 H3548 0.961 . S
C3535 C3532 1.539 . S
C3535 H3549 0.958 . S
C3535 H3550 0.961 . S
C3535 H3551 0.960 . S
H3536 C3520 0.943 . S
H3537 C3525 0.929 . S
H3538 C3526 0.960 . S
H3539 C3526 0.962 1_554 S
H3540 C3526 0.960 . S
H3541 C3527 0.961 . S
H3542 C3527 0.961 . S
H3543 C3527 0.961 1_556 S
H3544 C3528 0.931 . S
H3545 C3533 0.930 . S
H3546 C3534 0.956 . S
H3547 C3534 0.961 . S
H3548 C3534 0.961 . S
H3549 C3535 0.958 . S
H3550 C3535 0.961 . S
H3551 C3535 0.960 . S
C3552 C3553 1.391 . S
C3552 C3554 1.394 . S
C3552 H3568 0.931 . S
C3553 C3552 1.391 . S
C3553 C3557 1.376 . S
C3554 C3552 1.394 . S
C3554 C3555 1.369 1_455 S
C3554 C3558 1.531 1_455 S
C3555 C3554 1.369 1_655 S
C3555 C3556 1.410 1_655 S
C3555 C3563 1.503 . S
C3556 C3555 1.410 1_455 S
C3556 C3557 1.392 . S
C3556 C3559 1.511 1_455 S
C3557 C3553 1.376 . S
C3557 C3556 1.392 . S
C3557 H3569 0.929 . S
C3558 C3554 1.531 1_655 S
C3558 H3570 0.960 . S
C3558 H3571 0.962 . S
C3558 H3572 0.960 1_655 S
C3559 C3556 1.511 1_655 S
C3559 H3573 0.961 1_655 S
C3559 H3574 0.961 . S
C3559 H3575 0.961 . S
C3560 C3561 1.370 . S
C3560 C3562 1.363 . S
C3560 H3576 0.931 . S
C3561 C3560 1.370 . S
C3561 C3565 1.408 . S
C3562 C3560 1.363 . S
C3562 C3563 1.370 . S
C3562 C3566 1.524 . S
C3563 C3555 1.503 . S
C3563 C3562 1.370 . S
C3563 C3564 1.403 . S
C3564 C3563 1.403 . S
C3564 C3565 1.404 . S
C3564 C3567 1.539 . S
C3565 C3561 1.408 . S
C3565 C3564 1.404 . S
C3565 H3577 0.930 . S
C3566 C3562 1.524 . S
C3566 H3578 0.956 . S
C3566 H3579 0.961 . S
C3566 H3580 0.961 . S
C3567 C3564 1.539 . S
C3567 H3581 0.958 . S
C3567 H3582 0.961 . S
C3567 H3583 0.960 . S
H3568 C3552 0.931 . S
H3569 C3557 0.929 . S
H3570 C3558 0.960 . S
H3571 C3558 0.962 . S
H3572 C3558 0.960 1_455 S
H3573 C3559 0.961 1_455 S
H3574 C3559 0.961 . S
H3575 C3559 0.961 . S
H3576 C3560 0.931 . S
H3577 C3565 0.930 . S
H3578 C3566 0.956 . S
H3579 C3566 0.961 . S
H3580 C3566 0.961 . S
H3581 C3567 0.958 . S
H3582 C3567 0.961 . S
H3583 C3567 0.960 . S
C3584 C3585 1.391 . S
C3584 C3586 1.394 . S
C3584 H3600 0.931 . S
C3585 C3584 1.391 . S
C3585 C3589 1.376 . S
C3586 C3584 1.394 . S
C3586 C3587 1.369 . S
C3586 C3590 1.531 . S
C3587 C3586 1.369 . S
C3587 C3588 1.410 . S
C3587 C3595 1.503 . S
C3588 C3587 1.410 . S
C3588 C3589 1.392 . S
C3588 C3591 1.511 . S
C3589 C3585 1.376 . S
C3589 C3588 1.392 . S
C3589 H3601 0.929 . S
C3590 C3586 1.531 . S
C3590 H3602 0.960 . S
C3590 H3603 0.962 . S
C3590 H3604 0.960 . S
C3591 C3588 1.511 . S
C3591 H3605 0.961 . S
C3591 H3606 0.961 . S
C3591 H3607 0.961 . S
C3592 C3593 1.370 . S
C3592 C3594 1.363 . S
C3592 H3608 0.931 . S
C3593 C3592 1.370 . S
C3593 C3597 1.408 . S
C3594 C3592 1.363 . S
C3594 C3595 1.370 . S
C3594 C3598 1.524 . S
C3595 C3587 1.503 . S
C3595 C3594 1.370 . S
C3595 C3596 1.403 . S
C3596 C3595 1.403 . S
C3596 C3597 1.404 . S
C3596 C3599 1.539 . S
C3597 C3593 1.408 . S
C3597 C3596 1.404 . S
C3597 H3609 0.930 . S
C3598 C3594 1.524 . S
C3598 H3610 0.956 . S
C3598 H3611 0.961 . S
C3598 H3612 0.961 . S
C3599 C3596 1.539 . S
C3599 H3613 0.958 . S
C3599 H3614 0.961 . S
C3599 H3615 0.960 . S
H3600 C3584 0.931 . S
H3601 C3589 0.929 . S
H3602 C3590 0.960 . S
H3603 C3590 0.962 . S
H3604 C3590 0.960 . S
H3605 C3591 0.961 . S
H3606 C3591 0.961 . S
H3607 C3591 0.961 . S
H3608 C3592 0.931 . S
H3609 C3597 0.930 . S
H3610 C3598 0.956 . S
H3611 C3598 0.961 . S
H3612 C3598 0.961 . S
H3613 C3599 0.958 . S
H3614 C3599 0.961 . S
H3615 C3599 0.960 . S
C3616 C3617 1.391 . S
C3616 C3618 1.394 . S
C3616 H3632 0.931 . S
C3617 C3616 1.391 . S
C3617 C3621 1.376 . S
C3618 C3616 1.394 . S
C3618 C3619 1.369 1_565 S
C3618 C3622 1.531 1_565 S
C3619 C3618 1.369 1_545 S
C3619 C3620 1.410 1_545 S
C3619 C3627 1.503 . S
C3620 C3619 1.410 1_565 S
C3620 C3621 1.392 . S
C3620 C3623 1.511 . S
C3621 C3617 1.376 . S
C3621 C3620 1.392 . S
C3621 H3633 0.929 . S
C3622 C3618 1.531 1_545 S
C3622 H3634 0.960 . S
C3622 H3635 0.962 . S
C3622 H3636 0.957 1_545 S
C3623 C3620 1.511 . S
C3623 H3637 0.961 . S
C3623 H3638 0.961 1_565 S
C3623 H3639 0.976 . S
C3624 C3625 1.370 . S
C3624 C3626 1.363 . S
C3624 H3640 0.931 . S
C3625 C3624 1.370 . S
C3625 C3629 1.408 . S
C3626 C3624 1.363 . S
C3626 C3627 1.370 . S
C3626 C3630 1.524 . S
C3627 C3619 1.503 . S
C3627 C3626 1.370 . S
C3627 C3628 1.403 . S
C3628 C3627 1.403 . S
C3628 C3629 1.404 . S
C3628 C3631 1.539 . S
C3629 C3625 1.408 . S
C3629 C3628 1.404 . S
C3629 H3641 0.930 . S
C3630 C3626 1.524 . S
C3630 H3642 0.956 . S
C3630 H3643 0.961 . S
C3630 H3644 0.961 . S
C3631 C3628 1.539 . S
C3631 H3645 0.958 . S
C3631 H3646 0.961 . S
C3631 H3647 0.960 . S
H3632 C3616 0.931 . S
H3633 C3621 0.929 . S
H3634 C3622 0.960 . S
H3635 C3622 0.962 . S
H3636 C3622 0.957 1_565 S
H3637 C3623 0.961 . S
H3638 C3623 0.961 1_545 S
H3639 C3623 0.976 . S
H3640 C3624 0.931 . S
H3641 C3629 0.930 . S
H3642 C3630 0.956 . S
H3643 C3630 0.961 . S
H3644 C3630 0.961 . S
H3645 C3631 0.958 . S
H3646 C3631 0.961 . S
H3647 C3631 0.960 . S
C3648 C3649 1.391 1_655 S
C3648 C3650 1.394 . S
C3648 H3664 0.931 . S
C3649 C3648 1.391 1_455 S
C3649 C3653 1.376 . S
C3650 C3648 1.394 . S
C3650 C3651 1.369 . S
C3650 C3654 1.531 . S
C3651 C3650 1.369 . S
C3651 C3652 1.410 . S
C3651 C3659 1.503 . S
C3652 C3651 1.410 . S
C3652 C3653 1.392 1_655 S
C3652 C3655 1.511 1_655 S
C3653 C3649 1.376 . S
C3653 C3652 1.392 1_455 S
C3653 H3665 0.929 . S
C3654 C3650 1.531 . S
C3654 H3666 0.960 . S
C3654 H3667 0.962 . S
C3654 H3668 0.960 . S
C3655 C3652 1.511 1_455 S
C3655 H3669 0.961 . S
C3655 H3670 0.961 1_455 S
C3655 H3671 0.961 . S
C3656 C3657 1.370 . S
C3656 C3658 1.363 . S
C3656 H3672 0.931 . S
C3657 C3656 1.370 . S
C3657 C3661 1.408 . S
C3658 C3656 1.363 . S
C3658 C3659 1.370 . S
C3658 C3662 1.524 . S
C3659 C3651 1.503 . S
C3659 C3658 1.370 . S
C3659 C3660 1.403 . S
C3660 C3659 1.403 . S
C3660 C3661 1.404 . S
C3660 C3663 1.539 . S
C3661 C3657 1.408 . S
C3661 C3660 1.404 . S
C3661 H3673 0.930 . S
C3662 C3658 1.524 . S
C3662 H3674 0.956 . S
C3662 H3675 0.961 . S
C3662 H3676 0.961 . S
C3663 C3660 1.539 . S
C3663 H3677 0.958 . S
C3663 H3678 0.961 . S
C3663 H3679 0.960 . S
H3664 C3648 0.931 . S
H3665 C3653 0.929 . S
H3666 C3654 0.960 . S
H3667 C3654 0.962 . S
H3668 C3654 0.960 . S
H3669 C3655 0.961 . S
H3670 C3655 0.961 1_655 S
H3671 C3655 0.961 . S
H3672 C3656 0.931 . S
H3673 C3661 0.930 . S
H3674 C3662 0.956 . S
H3675 C3662 0.961 . S
H3676 C3662 0.961 . S
H3677 C3663 0.958 . S
H3678 C3663 0.961 . S
H3679 C3663 0.960 . S
C3680 C3681 1.391 . S
C3680 C3682 1.394 . S
C3680 H3696 0.931 . S
C3681 C3680 1.391 . S
C3681 C3685 1.376 . S
C3682 C3680 1.394 . S
C3682 C3683 1.369 . S
C3682 C3686 1.531 . S
C3683 C3682 1.369 . S
C3683 C3684 1.410 . S
C3683 C3691 1.503 . S
C3684 C3683 1.410 . S
C3684 C3685 1.392 . S
C3684 C3687 1.511 . S
C3685 C3681 1.376 . S
C3685 C3684 1.392 . S
C3685 H3697 0.929 . S
C3686 C3682 1.531 . S
C3686 H3698 0.960 . S
C3686 H3699 0.962 . S
C3686 H3700 0.960 . S
C3687 C3684 1.511 . S
C3687 H3701 0.961 . S
C3687 H3702 0.961 . S
C3687 H3703 0.961 . S
C3688 C3689 1.370 . S
C3688 C3690 1.363 . S
C3688 H3704 0.931 . S
C3689 C3688 1.370 . S
C3689 C3693 1.408 . S
C3690 C3688 1.363 . S
C3690 C3691 1.370 . S
C3690 C3694 1.524 . S
C3691 C3683 1.503 . S
C3691 C3690 1.370 . S
C3691 C3692 1.403 . S
C3692 C3691 1.403 . S
C3692 C3693 1.404 . S
C3692 C3695 1.539 . S
C3693 C3689 1.408 . S
C3693 C3692 1.404 . S
C3693 H3705 0.930 . S
C3694 C3690 1.524 . S
C3694 H3706 0.956 . S
C3694 H3707 0.961 . S
C3694 H3708 0.961 . S
C3695 C3692 1.539 . S
C3695 H3709 0.958 . S
C3695 H3710 0.961 . S
C3695 H3711 0.960 . S
H3696 C3680 0.931 . S
H3697 C3685 0.929 . S
H3698 C3686 0.960 . S
H3699 C3686 0.962 . S
H3700 C3686 0.960 . S
H3701 C3687 0.961 . S
H3702 C3687 0.961 . S
H3703 C3687 0.961 . S
H3704 C3688 0.931 . S
H3705 C3693 0.930 . S
H3706 C3694 0.956 . S
H3707 C3694 0.961 . S
H3708 C3694 0.961 . S
H3709 C3695 0.958 . S
H3710 C3695 0.961 . S
H3711 C3695 0.960 . S
C3712 C3713 1.391 . S
C3712 C3714 1.394 . S
C3712 H3728 0.931 . S
C3713 C3712 1.391 . S
C3713 C3717 1.376 . S
C3714 C3712 1.394 . S
C3714 C3715 1.369 . S
C3714 C3718 1.531 . S
C3715 C3714 1.369 . S
C3715 C3716 1.410 . S
C3715 C3723 1.503 . S
C3716 C3715 1.410 . S
C3716 C3717 1.392 . S
C3716 C3719 1.511 . S
C3717 C3713 1.376 . S
C3717 C3716 1.392 . S
C3717 H3729 0.929 . S
C3718 C3714 1.531 . S
C3718 H3730 0.960 1_545 S
C3718 H3731 0.962 . S
C3718 H3732 0.960 1_545 S
C3719 C3716 1.511 . S
C3719 H3733 0.961 . S
C3719 H3734 0.961 . S
C3719 H3735 0.961 . S
C3720 C3721 1.370 1_545 S
C3720 C3722 1.363 . S
C3720 H3736 0.931 . S
C3721 C3720 1.370 1_565 S
C3721 C3725 1.413 . S
C3722 C3720 1.363 . S
C3722 C3723 1.370 . S
C3722 C3726 1.524 . S
C3723 C3715 1.503 . S
C3723 C3722 1.370 . S
C3723 C3724 1.403 . S
C3724 C3723 1.403 . S
C3724 C3725 1.388 1_545 S
C3724 C3727 1.539 . S
C3725 C3721 1.413 . S
C3725 C3724 1.388 1_565 S
C3725 H3737 0.941 . S
C3726 C3722 1.524 . S
C3726 H3738 0.956 . S
C3726 H3739 0.961 . S
C3726 H3740 0.961 . S
C3727 C3724 1.539 . S
C3727 H3741 0.958 . S
C3727 H3742 0.961 . S
C3727 H3743 0.960 . S
H3728 C3712 0.931 . S
H3729 C3717 0.929 . S
H3730 C3718 0.960 1_565 S
H3731 C3718 0.962 . S
H3732 C3718 0.960 1_565 S
H3733 C3719 0.961 . S
H3734 C3719 0.961 . S
H3735 C3719 0.961 . S
H3736 C3720 0.931 . S
H3737 C3725 0.941 . S
H3738 C3726 0.956 . S
H3739 C3726 0.961 . S
H3740 C3726 0.961 . S
H3741 C3727 0.958 . S
H3742 C3727 0.961 . S
H3743 C3727 0.960 . S
C3744 C3745 1.391 . S
C3744 C3746 1.394 . S
C3744 H3760 0.931 . S
C3745 C3744 1.391 . S
C3745 C3749 1.376 . S
C3746 C3744 1.394 . S
C3746 C3747 1.369 . S
C3746 C3750 1.531 . S
C3747 C3746 1.369 . S
C3747 C3748 1.410 . S
C3747 C3755 1.503 . S
C3748 C3747 1.410 . S
C3748 C3749 1.392 . S
C3748 C3751 1.511 . S
C3749 C3745 1.376 . S
C3749 C3748 1.392 . S
C3749 H3761 0.929 . S
C3750 C3746 1.531 . S
C3750 H3762 0.960 . S
C3750 H3763 0.962 . S
C3750 H3764 0.960 . S
C3751 C3748 1.511 . S
C3751 H3765 0.961 . S
C3751 H3766 0.961 . S
C3751 H3767 0.961 . S
C3752 C3753 1.370 . S
C3752 C3754 1.363 . S
C3752 H3768 0.931 . S
C3753 C3752 1.370 . S
C3753 C3757 1.408 . S
C3754 C3752 1.363 . S
C3754 C3755 1.370 . S
C3754 C3758 1.524 . S
C3755 C3747 1.503 . S
C3755 C3754 1.370 . S
C3755 C3756 1.403 . S
C3756 C3755 1.403 . S
C3756 C3757 1.404 . S
C3756 C3759 1.539 . S
C3757 C3753 1.408 . S
C3757 C3756 1.404 . S
C3757 H3769 0.930 . S
C3758 C3754 1.524 . S
C3758 H3770 0.956 . S
C3758 H3771 0.961 . S
C3758 H3772 0.961 . S
C3759 C3756 1.539 . S
C3759 H3773 0.958 . S
C3759 H3774 0.961 . S
C3759 H3775 0.960 . S
H3760 C3744 0.931 . S
H3761 C3749 0.929 . S
H3762 C3750 0.960 . S
H3763 C3750 0.962 . S
H3764 C3750 0.960 . S
H3765 C3751 0.961 . S
H3766 C3751 0.961 . S
H3767 C3751 0.961 . S
H3768 C3752 0.931 . S
H3769 C3757 0.930 . S
H3770 C3758 0.956 . S
H3771 C3758 0.961 . S
H3772 C3758 0.961 . S
H3773 C3759 0.958 . S
H3774 C3759 0.961 . S
H3775 C3759 0.960 . S
C3776 C3777 1.391 . S
C3776 C3778 1.394 . S
C3776 H3792 0.931 . S
C3777 C3776 1.391 . S
C3777 C3781 1.376 . S
C3778 C3776 1.394 . S
C3778 C3779 1.369 . S
C3778 C3782 1.531 . S
C3779 C3778 1.369 . S
C3779 C3780 1.410 . S
C3779 C3787 1.503 . S
C3780 C3779 1.410 . S
C3780 C3781 1.392 . S
C3780 C3783 1.511 . S
C3781 C3777 1.376 . S
C3781 C3780 1.392 . S
C3781 H3793 0.929 . S
C3782 C3778 1.531 . S
C3782 H3794 0.960 . S
C3782 H3795 0.962 . S
C3782 H3796 0.960 . S
C3783 C3780 1.511 . S
C3783 H3797 0.961 . S
C3783 H3798 0.961 . S
C3783 H3799 0.961 . S
C3784 C3785 1.370 . S
C3784 C3786 1.363 . S
C3784 H3800 0.931 . S
C3785 C3784 1.370 . S
C3785 C3789 1.408 . S
C3786 C3784 1.363 . S
C3786 C3787 1.370 . S
C3786 C3790 1.524 . S
C3787 C3779 1.503 . S
C3787 C3786 1.370 . S
C3787 C3788 1.403 . S
C3788 C3787 1.403 . S
C3788 C3789 1.404 . S
C3788 C3791 1.539 . S
C3789 C3785 1.408 . S
C3789 C3788 1.404 . S
C3789 H3801 0.930 . S
C3790 C3786 1.524 . S
C3790 H3802 0.956 . S
C3790 H3803 0.961 . S
C3790 H3804 0.961 . S
C3791 C3788 1.539 . S
C3791 H3805 0.958 1_565 S
C3791 H3806 0.961 1_565 S
C3791 H3807 0.960 . S
H3792 C3776 0.931 . S
H3793 C3781 0.929 . S
H3794 C3782 0.960 . S
H3795 C3782 0.962 . S
H3796 C3782 0.960 . S
H3797 C3783 0.961 . S
H3798 C3783 0.961 . S
H3799 C3783 0.961 . S
H3800 C3784 0.931 . S
H3801 C3789 0.930 . S
H3802 C3790 0.956 . S
H3803 C3790 0.961 . S
H3804 C3790 0.961 . S
H3805 C3791 0.958 1_545 S
H3806 C3791 0.961 1_545 S
H3807 C3791 0.960 . S
C3808 C3809 1.391 . S
C3808 C3810 1.394 . S
C3808 H3824 0.931 . S
C3809 C3808 1.391 . S
C3809 C3813 1.376 . S
C3810 C3808 1.394 . S
C3810 C3811 1.369 . S
C3810 C3814 1.531 . S
C3811 C3810 1.369 . S
C3811 C3812 1.410 . S
C3811 C3819 1.503 . S
C3812 C3811 1.410 . S
C3812 C3813 1.392 . S
C3812 C3815 1.511 . S
C3813 C3809 1.376 . S
C3813 C3812 1.392 . S
C3813 H3825 0.929 . S
C3814 C3810 1.531 . S
C3814 H3826 0.960 . S
C3814 H3827 0.962 . S
C3814 H3828 0.960 . S
C3815 C3812 1.511 . S
C3815 H3829 0.961 . S
C3815 H3830 0.961 . S
C3815 H3831 0.961 . S
C3816 C3817 1.370 . S
C3816 C3818 1.363 . S
C3816 H3832 0.931 . S
C3817 C3816 1.370 . S
C3817 C3821 1.408 . S
C3818 C3816 1.363 . S
C3818 C3819 1.370 . S
C3818 C3822 1.524 . S
C3819 C3811 1.503 . S
C3819 C3818 1.370 . S
C3819 C3820 1.403 . S
C3820 C3819 1.403 . S
C3820 C3821 1.404 . S
C3820 C3823 1.539 . S
C3821 C3817 1.408 . S
C3821 C3820 1.404 . S
C3821 H3833 0.930 . S
C3822 C3818 1.524 . S
C3822 H3834 0.956 . S
C3822 H3835 0.961 . S
C3822 H3836 0.961 . S
C3823 C3820 1.539 . S
C3823 H3837 0.958 . S
C3823 H3838 0.961 . S
C3823 H3839 0.960 . S
H3824 C3808 0.931 . S
H3825 C3813 0.929 . S
H3826 C3814 0.960 . S
H3827 C3814 0.962 . S
H3828 C3814 0.960 . S
H3829 C3815 0.961 . S
H3830 C3815 0.961 . S
H3831 C3815 0.961 . S
H3832 C3816 0.931 . S
H3833 C3821 0.930 . S
H3834 C3822 0.956 . S
H3835 C3822 0.961 . S
H3836 C3822 0.961 . S
H3837 C3823 0.958 . S
H3838 C3823 0.961 . S
H3839 C3823 0.960 . S
C3840 C3841 1.391 . S
C3840 C3842 1.394 . S
C3840 H3856 0.931 . S
C3841 C3840 1.391 . S
C3841 C3845 1.376 . S
C3842 C3840 1.394 . S
C3842 C3843 1.369 . S
C3842 C3846 1.531 . S
C3843 C3842 1.369 . S
C3843 C3844 1.410 . S
C3843 C3851 1.503 . S
C3844 C3843 1.410 . S
C3844 C3845 1.392 . S
C3844 C3847 1.511 . S
C3845 C3841 1.376 . S
C3845 C3844 1.392 . S
C3845 H3857 0.929 . S
C3846 C3842 1.531 . S
C3846 H3858 0.960 . S
C3846 H3859 0.962 . S
C3846 H3860 0.960 . S
C3847 C3844 1.511 . S
C3847 H3861 0.961 . S
C3847 H3862 0.961 . S
C3847 H3863 0.961 . S
C3848 C3849 1.370 . S
C3848 C3850 1.363 . S
C3848 H3864 0.931 . S
C3849 C3848 1.370 . S
C3849 C3853 1.408 . S
C3850 C3848 1.363 . S
C3850 C3851 1.370 . S
C3850 C3854 1.524 . S
C3851 C3843 1.503 . S
C3851 C3850 1.370 . S
C3851 C3852 1.403 . S
C3852 C3851 1.403 . S
C3852 C3853 1.404 . S
C3852 C3855 1.539 . S
C3853 C3849 1.408 . S
C3853 C3852 1.404 . S
C3853 H3865 0.930 . S
C3854 C3850 1.524 . S
C3854 H3866 0.956 . S
C3854 H3867 0.961 . S
C3854 H3868 0.961 . S
C3855 C3852 1.539 . S
C3855 H3869 0.958 . S
C3855 H3870 0.961 . S
C3855 H3871 0.960 . S
H3856 C3840 0.931 . S
H3857 C3845 0.929 . S
H3858 C3846 0.960 . S
H3859 C3846 0.962 . S
H3860 C3846 0.960 . S
H3861 C3847 0.961 . S
H3862 C3847 0.961 . S
H3863 C3847 0.961 . S
H3864 C3848 0.931 . S
H3865 C3853 0.930 . S
H3866 C3854 0.956 . S
H3867 C3854 0.961 . S
H3868 C3854 0.961 . S
H3869 C3855 0.958 . S
H3870 C3855 0.961 . S
H3871 C3855 0.960 . S
C3872 C3873 1.391 . S
C3872 C3874 1.394 . S
C3872 H3888 0.931 . S
C3873 C3872 1.391 . S
C3873 C3877 1.376 . S
C3874 C3872 1.394 . S
C3874 C3875 1.369 . S
C3874 C3878 1.531 . S
C3875 C3874 1.369 . S
C3875 C3876 1.410 . S
C3875 C3883 1.503 . S
C3876 C3875 1.410 . S
C3876 C3877 1.392 . S
C3876 C3879 1.511 . S
C3877 C3873 1.376 . S
C3877 C3876 1.392 . S
C3877 H3889 0.929 . S
C3878 C3874 1.531 . S
C3878 H3890 0.960 . S
C3878 H3891 0.962 . S
C3878 H3892 0.960 . S
C3879 C3876 1.511 . S
C3879 H3893 0.961 . S
C3879 H3894 0.961 . S
C3879 H3895 0.961 . S
C3880 C3881 1.370 . S
C3880 C3882 1.363 . S
C3880 H3896 0.931 . S
C3881 C3880 1.370 . S
C3881 C3885 1.408 . S
C3882 C3880 1.363 . S
C3882 C3883 1.370 . S
C3882 C3886 1.524 . S
C3883 C3875 1.503 . S
C3883 C3882 1.370 . S
C3883 C3884 1.403 . S
C3884 C3883 1.403 . S
C3884 C3885 1.404 . S
C3884 C3887 1.539 . S
C3885 C3881 1.408 . S
C3885 C3884 1.404 . S
C3885 H3897 0.930 . S
C3886 C3882 1.524 . S
C3886 H3898 0.956 . S
C3886 H3899 0.961 . S
C3886 H3900 0.961 . S
C3887 C3884 1.539 . S
C3887 H3901 0.958 . S
C3887 H3902 0.961 . S
C3887 H3903 0.960 . S
H3888 C3872 0.931 . S
H3889 C3877 0.929 . S
H3890 C3878 0.960 . S
H3891 C3878 0.962 . S
H3892 C3878 0.960 . S
H3893 C3879 0.961 . S
H3894 C3879 0.961 . S
H3895 C3879 0.961 . S
H3896 C3880 0.931 . S
H3897 C3885 0.930 . S
H3898 C3886 0.956 . S
H3899 C3886 0.961 . S
H3900 C3886 0.961 . S
H3901 C3887 0.958 . S
H3902 C3887 0.961 . S
H3903 C3887 0.960 . S
C3904 C3905 1.391 . S
C3904 C3906 1.394 . S
C3904 H3920 0.931 . S
C3905 C3904 1.391 . S
C3905 C3909 1.376 . S
C3906 C3904 1.394 . S
C3906 C3907 1.369 . S
C3906 C3910 1.531 . S
C3907 C3906 1.369 . S
C3907 C3908 1.410 . S
C3907 C3915 1.503 . S
C3908 C3907 1.410 . S
C3908 C3909 1.392 . S
C3908 C3911 1.511 . S
C3909 C3905 1.376 . S
C3909 C3908 1.392 . S
C3909 H3921 0.929 . S
C3910 C3906 1.531 . S
C3910 H3922 0.960 . S
C3910 H3923 0.962 . S
C3910 H3924 0.960 . S
C3911 C3908 1.511 . S
C3911 H3925 0.957 1_655 S
C3911 H3926 0.961 . S
C3911 H3927 0.961 . S
C3912 C3913 1.370 . S
C3912 C3914 1.363 . S
C3912 H3928 0.931 . S
C3913 C3912 1.370 . S
C3913 C3917 1.408 . S
C3914 C3912 1.363 . S
C3914 C3915 1.370 . S
C3914 C3918 1.524 . S
C3915 C3907 1.503 . S
C3915 C3914 1.370 . S
C3915 C3916 1.403 . S
C3916 C3915 1.403 . S
C3916 C3917 1.404 . S
C3916 C3919 1.539 . S
C3917 C3913 1.408 . S
C3917 C3916 1.404 . S
C3917 H3929 0.930 . S
C3918 C3914 1.524 . S
C3918 H3930 0.956 . S
C3918 H3931 0.961 . S
C3918 H3932 0.961 . S
C3919 C3916 1.539 . S
C3919 H3933 0.958 . S
C3919 H3934 0.961 . S
C3919 H3935 0.960 . S
H3920 C3904 0.931 . S
H3921 C3909 0.929 . S
H3922 C3910 0.960 . S
H3923 C3910 0.962 . S
H3924 C3910 0.960 . S
H3925 C3911 0.957 1_455 S
H3926 C3911 0.961 . S
H3927 C3911 0.961 . S
H3928 C3912 0.931 . S
H3929 C3917 0.930 . S
H3930 C3918 0.956 . S
H3931 C3918 0.961 . S
H3932 C3918 0.961 . S
H3933 C3919 0.958 . S
H3934 C3919 0.961 . S
H3935 C3919 0.960 . S
C3936 C3937 1.391 . S
C3936 C3938 1.394 . S
C3936 H3952 0.931 . S
C3937 C3936 1.391 . S
C3937 C3941 1.376 . S
C3938 C3936 1.394 . S
C3938 C3939 1.369 . S
C3938 C3942 1.531 . S
C3939 C3938 1.369 . S
C3939 C3940 1.410 . S
C3939 C3947 1.503 . S
C3940 C3939 1.410 . S
C3940 C3941 1.392 . S
C3940 C3943 1.511 . S
C3941 C3937 1.376 . S
C3941 C3940 1.392 . S
C3941 H3953 0.929 . S
C3942 C3938 1.531 . S
C3942 H3954 0.960 . S
C3942 H3955 0.962 . S
C3942 H3956 0.960 . S
C3943 C3940 1.511 . S
C3943 H3957 0.961 . S
C3943 H3958 0.961 . S
C3943 H3959 0.961 . S
C3944 C3945 1.370 . S
C3944 C3946 1.363 . S
C3944 H3960 0.931 . S
C3945 C3944 1.370 . S
C3945 C3949 1.408 . S
C3946 C3944 1.363 . S
C3946 C3947 1.370 . S
C3946 C3950 1.524 . S
C3947 C3939 1.503 . S
C3947 C3946 1.370 . S
C3947 C3948 1.403 . S
C3948 C3947 1.403 . S
C3948 C3949 1.404 . S
C3948 C3951 1.539 . S
C3949 C3945 1.408 . S
C3949 C3948 1.404 . S
C3949 H3961 0.930 . S
C3950 C3946 1.524 . S
C3950 H3962 0.956 . S
C3950 H3963 0.961 . S
C3950 H3964 0.961 . S
C3951 C3948 1.539 . S
C3951 H3965 0.958 . S
C3951 H3966 0.961 . S
C3951 H3967 0.960 . S
H3952 C3936 0.931 . S
H3953 C3941 0.929 . S
H3954 C3942 0.960 . S
H3955 C3942 0.962 . S
H3956 C3942 0.960 . S
H3957 C3943 0.961 . S
H3958 C3943 0.961 . S
H3959 C3943 0.961 . S
H3960 C3944 0.931 . S
H3961 C3949 0.930 . S
H3962 C3950 0.956 . S
H3963 C3950 0.961 . S
H3964 C3950 0.961 . S
H3965 C3951 0.958 . S
H3966 C3951 0.961 . S
H3967 C3951 0.960 . S
C3968 C3969 1.391 . S
C3968 C3970 1.394 . S
C3968 H3984 0.931 . S
C3969 C3968 1.391 . S
C3969 C3973 1.376 . S
C3970 C3968 1.394 . S
C3970 C3971 1.369 . S
C3970 C3974 1.531 . S
C3971 C3970 1.369 . S
C3971 C3972 1.410 . S
C3971 C3979 1.503 . S
C3972 C3971 1.410 . S
C3972 C3973 1.392 . S
C3972 C3975 1.511 . S
C3973 C3969 1.376 . S
C3973 C3972 1.392 . S
C3973 H3985 0.929 . S
C3974 C3970 1.531 . S
C3974 H3986 0.960 . S
C3974 H3987 0.962 . S
C3974 H3988 0.960 . S
C3975 C3972 1.511 . S
C3975 H3989 0.961 . S
C3975 H3990 0.961 . S
C3975 H3991 0.961 . S
C3976 C3977 1.370 . S
C3976 C3978 1.363 . S
C3976 H3992 0.931 . S
C3977 C3976 1.370 . S
C3977 C3981 1.408 . S
C3978 C3976 1.363 . S
C3978 C3979 1.370 . S
C3978 C3982 1.524 . S
C3979 C3971 1.503 . S
C3979 C3978 1.370 . S
C3979 C3980 1.403 . S
C3980 C3979 1.403 . S
C3980 C3981 1.404 . S
C3980 C3983 1.539 . S
C3981 C3977 1.408 . S
C3981 C3980 1.404 . S
C3981 H3993 0.930 . S
C3982 C3978 1.524 . S
C3982 H3994 0.956 . S
C3982 H3995 0.961 . S
C3982 H3996 0.961 . S
C3983 C3980 1.539 . S
C3983 H3997 0.958 . S
C3983 H3998 0.961 . S
C3983 H3999 0.960 . S
H3984 C3968 0.931 . S
H3985 C3973 0.929 . S
H3986 C3974 0.960 . S
H3987 C3974 0.962 . S
H3988 C3974 0.960 . S
H3989 C3975 0.961 . S
H3990 C3975 0.961 . S
H3991 C3975 0.961 . S
H3992 C3976 0.931 . S
H3993 C3981 0.930 . S
H3994 C3982 0.956 . S
H3995 C3982 0.961 . S
H3996 C3982 0.961 . S
H3997 C3983 0.958 . S
H3998 C3983 0.961 . S
H3999 C3983 0.960 . S
C4000 C4001 1.391 . S
C4000 C4002 1.394 . S
C4000 H4016 0.931 . S
C4001 C4000 1.391 . S
C4001 C4005 1.376 . S
C4002 C4000 1.394 . S
C4002 C4003 1.369 . S
C4002 C4006 1.531 . S
C4003 C4002 1.369 . S
C4003 C4004 1.410 . S
C4003 C4011 1.503 . S
C4004 C4003 1.410 . S
C4004 C4005 1.392 . S
C4004 C4007 1.511 . S
C4005 C4001 1.376 . S
C4005 C4004 1.392 . S
C4005 H4017 0.929 . S
C4006 C4002 1.531 . S
C4006 H4018 0.960 . S
C4006 H4019 0.962 . S
C4006 H4020 0.960 1_655 S
C4007 C4004 1.511 . S
C4007 H4021 0.961 . S
C4007 H4022 0.961 . S
C4007 H4023 0.961 . S
C4008 C4009 1.370 . S
C4008 C4010 1.363 . S
C4008 H4024 0.931 . S
C4009 C4008 1.370 . S
C4009 C4013 1.408 . S
C4010 C4008 1.363 . S
C4010 C4011 1.370 . S
C4010 C4014 1.524 . S
C4011 C4003 1.503 . S
C4011 C4010 1.370 . S
C4011 C4012 1.403 . S
C4012 C4011 1.403 . S
C4012 C4013 1.404 . S
C4012 C4015 1.539 . S
C4013 C4009 1.408 . S
C4013 C4012 1.404 . S
C4013 H4025 0.930 . S
C4014 C4010 1.524 . S
C4014 H4026 0.956 . S
C4014 H4027 0.961 . S
C4014 H4028 0.961 . S
C4015 C4012 1.539 . S
C4015 H4029 0.958 . S
C4015 H4030 0.961 . S
C4015 H4031 0.960 . S
H4016 C4000 0.931 . S
H4017 C4005 0.929 . S
H4018 C4006 0.960 . S
H4019 C4006 0.962 . S
H4020 C4006 0.960 1_455 S
H4021 C4007 0.961 . S
H4022 C4007 0.961 . S
H4023 C4007 0.961 . S
H4024 C4008 0.931 . S
H4025 C4013 0.930 . S
H4026 C4014 0.956 . S
H4027 C4014 0.961 . S
H4028 C4014 0.961 . S
H4029 C4015 0.958 . S
H4030 C4015 0.961 . S
H4031 C4015 0.960 . S
C4032 C4033 1.391 . S
C4032 C4034 1.394 . S
C4032 H4048 0.931 . S
C4033 C4032 1.391 . S
C4033 C4037 1.376 . S
C4034 C4032 1.394 . S
C4034 C4035 1.369 . S
C4034 C4038 1.531 . S
C4035 C4034 1.369 . S
C4035 C4036 1.410 . S
C4035 C4043 1.503 . S
C4036 C4035 1.410 . S
C4036 C4037 1.392 . S
C4036 C4039 1.511 . S
C4037 C4033 1.376 . S
C4037 C4036 1.392 . S
C4037 H4049 0.929 . S
C4038 C4034 1.531 . S
C4038 H4050 0.960 . S
C4038 H4051 0.962 . S
C4038 H4052 0.960 . S
C4039 C4036 1.511 . S
C4039 H4053 0.961 . S
C4039 H4054 0.961 . S
C4039 H4055 0.961 . S
C4040 C4041 1.370 . S
C4040 C4042 1.363 . S
C4040 H4056 0.931 . S
C4041 C4040 1.370 . S
C4041 C4045 1.408 . S
C4042 C4040 1.363 . S
C4042 C4043 1.370 . S
C4042 C4046 1.524 . S
C4043 C4035 1.503 . S
C4043 C4042 1.370 . S
C4043 C4044 1.403 . S
C4044 C4043 1.403 . S
C4044 C4045 1.404 . S
C4044 C4047 1.539 . S
C4045 C4041 1.408 . S
C4045 C4044 1.404 . S
C4045 H4057 0.930 . S
C4046 C4042 1.524 . S
C4046 H4058 0.956 . S
C4046 H4059 0.961 . S
C4046 H4060 0.961 . S
C4047 C4044 1.539 . S
C4047 H4061 0.958 . S
C4047 H4062 0.961 . S
C4047 H4063 0.960 . S
H4048 C4032 0.931 . S
H4049 C4037 0.929 . S
H4050 C4038 0.960 . S
H4051 C4038 0.962 . S
H4052 C4038 0.960 . S
H4053 C4039 0.961 . S
H4054 C4039 0.961 . S
H4055 C4039 0.961 . S
H4056 C4040 0.931 . S
H4057 C4045 0.930 . S
H4058 C4046 0.956 . S
H4059 C4046 0.961 . S
H4060 C4046 0.961 . S
H4061 C4047 0.958 . S
H4062 C4047 0.961 . S
H4063 C4047 0.960 . S
C4064 C4065 1.391 . S
C4064 C4066 1.394 . S
C4064 H4080 0.931 . S
C4065 C4064 1.391 . S
C4065 C4069 1.376 . S
C4066 C4064 1.394 . S
C4066 C4067 1.369 . S
C4066 C4070 1.531 . S
C4067 C4066 1.369 . S
C4067 C4068 1.410 . S
C4067 C4075 1.503 . S
C4068 C4067 1.410 . S
C4068 C4069 1.392 . S
C4068 C4071 1.511 . S
C4069 C4065 1.376 . S
C4069 C4068 1.392 . S
C4069 H4081 0.929 . S
C4070 C4066 1.531 . S
C4070 H4082 0.960 . S
C4070 H4083 0.962 . S
C4070 H4084 0.960 . S
C4071 C4068 1.511 . S
C4071 H4085 0.961 . S
C4071 H4086 0.961 . S
C4071 H4087 0.961 . S
C4072 C4073 1.370 . S
C4072 C4074 1.363 . S
C4072 H4088 0.931 . S
C4073 C4072 1.370 . S
C4073 C4077 1.408 . S
C4074 C4072 1.363 . S
C4074 C4075 1.370 . S
C4074 C4078 1.524 . S
C4075 C4067 1.503 . S
C4075 C4074 1.370 . S
C4075 C4076 1.403 . S
C4076 C4075 1.403 . S
C4076 C4077 1.404 . S
C4076 C4079 1.539 . S
C4077 C4073 1.408 . S
C4077 C4076 1.404 . S
C4077 H4089 0.930 . S
C4078 C4074 1.524 . S
C4078 H4090 0.956 . S
C4078 H4091 0.961 . S
C4078 H4092 0.961 . S
C4079 C4076 1.539 . S
C4079 H4093 0.958 . S
C4079 H4094 0.961 . S
C4079 H4095 0.960 . S
H4080 C4064 0.931 . S
H4081 C4069 0.929 . S
H4082 C4070 0.960 . S
H4083 C4070 0.962 . S
H4084 C4070 0.960 . S
H4085 C4071 0.961 . S
H4086 C4071 0.961 . S
H4087 C4071 0.961 . S
H4088 C4072 0.931 . S
H4089 C4077 0.930 . S
H4090 C4078 0.956 . S
H4091 C4078 0.961 . S
H4092 C4078 0.961 . S
H4093 C4079 0.958 . S
H4094 C4079 0.961 . S
H4095 C4079 0.960 . S
C4096 C4097 1.391 . S
C4096 C4098 1.394 . S
C4096 H4112 0.931 . S
C4097 C4096 1.391 . S
C4097 C4101 1.376 . S
C4098 C4096 1.394 . S
C4098 C4099 1.369 . S
C4098 C4102 1.531 . S
C4099 C4098 1.369 . S
C4099 C4100 1.410 . S
C4099 C4107 1.503 . S
C4100 C4099 1.410 . S
C4100 C4101 1.392 . S
C4100 C4103 1.511 . S
C4101 C4097 1.376 . S
C4101 C4100 1.392 . S
C4101 H4113 0.929 . S
C4102 C4098 1.531 . S
C4102 H4114 0.960 . S
C4102 H4115 0.962 . S
C4102 H4116 0.960 . S
C4103 C4100 1.511 . S
C4103 H4117 0.961 . S
C4103 H4118 0.961 . S
C4103 H4119 0.961 . S
C4104 C4105 1.370 . S
C4104 C4106 1.363 . S
C4104 H4120 0.931 . S
C4105 C4104 1.370 . S
C4105 C4109 1.408 . S
C4106 C4104 1.363 . S
C4106 C4107 1.370 . S
C4106 C4110 1.524 . S
C4107 C4099 1.503 . S
C4107 C4106 1.370 . S
C4107 C4108 1.403 . S
C4108 C4107 1.403 . S
C4108 C4109 1.404 . S
C4108 C4111 1.539 . S
C4109 C4105 1.408 . S
C4109 C4108 1.404 . S
C4109 H4121 0.930 . S
C4110 C4106 1.524 . S
C4110 H4122 0.956 . S
C4110 H4123 0.961 . S
C4110 H4124 0.961 . S
C4111 C4108 1.539 . S
C4111 H4125 0.958 . S
C4111 H4126 0.961 . S
C4111 H4127 0.960 . S
H4112 C4096 0.931 . S
H4113 C4101 0.929 . S
H4114 C4102 0.960 . S
H4115 C4102 0.962 . S
H4116 C4102 0.960 . S
H4117 C4103 0.961 . S
H4118 C4103 0.961 . S
H4119 C4103 0.961 . S
H4120 C4104 0.931 . S
H4121 C4109 0.930 . S
H4122 C4110 0.956 . S
H4123 C4110 0.961 . S
H4124 C4110 0.961 . S
H4125 C4111 0.958 . S
H4126 C4111 0.961 . S
H4127 C4111 0.960 . S
C4128 C4129 1.391 1_455 S
C4128 C4130 1.394 . S
C4128 H4144 0.931 . S
C4129 C4128 1.391 1_655 S
C4129 C4133 1.376 . S
C4130 C4128 1.394 . S
C4130 C4131 1.369 . S
C4130 C4134 1.531 . S
C4131 C4130 1.369 . S
C4131 C4132 1.410 1_455 S
C4131 C4139 1.503 . S
C4132 C4131 1.410 1_655 S
C4132 C4133 1.392 . S
C4132 C4135 1.511 . S
C4133 C4129 1.376 . S
C4133 C4132 1.392 . S
C4133 H4145 0.929 . S
C4134 C4130 1.531 . S
C4134 H4146 0.960 . S
C4134 H4147 0.962 . S
C4134 H4148 0.960 . S
C4135 C4132 1.511 . S
C4135 H4149 0.961 . S
C4135 H4150 0.961 . S
C4135 H4151 0.961 . S
C4136 C4137 1.370 . S
C4136 C4138 1.363 . S
C4136 H4152 0.931 . S
C4137 C4136 1.370 . S
C4137 C4141 1.408 . S
C4138 C4136 1.363 . S
C4138 C4139 1.370 . S
C4138 C4142 1.524 1_455 S
C4139 C4131 1.503 . S
C4139 C4138 1.370 . S
C4139 C4140 1.403 . S
C4140 C4139 1.403 . S
C4140 C4141 1.404 . S
C4140 C4143 1.539 . S
C4141 C4137 1.408 . S
C4141 C4140 1.404 . S
C4141 H4153 0.930 . S
C4142 C4138 1.524 1_655 S
C4142 H4154 0.956 1_655 S
C4142 H4155 0.961 . S
C4142 H4156 0.961 . S
C4143 C4140 1.539 . S
C4143 H4157 0.958 . S
C4143 H4158 0.961 . S
C4143 H4159 0.975 . S
H4144 C4128 0.931 . S
H4145 C4133 0.929 . S
H4146 C4134 0.960 . S
H4147 C4134 0.962 . S
H4148 C4134 0.960 . S
H4149 C4135 0.961 . S
H4150 C4135 0.961 . S
H4151 C4135 0.961 . S
H4152 C4136 0.931 . S
H4153 C4141 0.930 . S
H4154 C4142 0.956 1_455 S
H4155 C4142 0.961 . S
H4156 C4142 0.961 . S
H4157 C4143 0.958 . S
H4158 C4143 0.961 . S
H4159 C4143 0.975 . S
C4160 C4161 1.391 . S
C4160 C4162 1.394 . S
C4160 H4176 0.931 . S
C4161 C4160 1.391 . S
C4161 C4165 1.376 . S
C4162 C4160 1.394 . S
C4162 C4163 1.369 . S
C4162 C4166 1.531 . S
C4163 C4162 1.369 . S
C4163 C4164 1.410 . S
C4163 C4171 1.503 . S
C4164 C4163 1.410 . S
C4164 C4165 1.392 . S
C4164 C4167 1.511 . S
C4165 C4161 1.376 . S
C4165 C4164 1.392 . S
C4165 H4177 0.929 . S
C4166 C4162 1.531 . S
C4166 H4178 0.960 . S
C4166 H4179 0.962 . S
C4166 H4180 0.960 . S
C4167 C4164 1.511 . S
C4167 H4181 0.961 . S
C4167 H4182 0.961 . S
C4167 H4183 0.961 . S
C4168 C4169 1.370 . S
C4168 C4170 1.363 . S
C4168 H4184 0.931 . S
C4169 C4168 1.370 . S
C4169 C4173 1.408 . S
C4170 C4168 1.363 . S
C4170 C4171 1.370 . S
C4170 C4174 1.524 . S
C4171 C4163 1.503 . S
C4171 C4170 1.370 . S
C4171 C4172 1.403 . S
C4172 C4171 1.403 . S
C4172 C4173 1.404 . S
C4172 C4175 1.539 . S
C4173 C4169 1.408 . S
C4173 C4172 1.404 . S
C4173 H4185 0.930 . S
C4174 C4170 1.524 . S
C4174 H4186 0.956 . S
C4174 H4187 0.961 . S
C4174 H4188 0.961 . S
C4175 C4172 1.539 . S
C4175 H4189 0.958 . S
C4175 H4190 0.961 . S
C4175 H4191 0.960 . S
H4176 C4160 0.931 . S
H4177 C4165 0.929 . S
H4178 C4166 0.960 . S
H4179 C4166 0.962 . S
H4180 C4166 0.960 . S
H4181 C4167 0.961 . S
H4182 C4167 0.961 . S
H4183 C4167 0.961 . S
H4184 C4168 0.931 . S
H4185 C4173 0.930 . S
H4186 C4174 0.956 . S
H4187 C4174 0.961 . S
H4188 C4174 0.961 . S
H4189 C4175 0.958 . S
H4190 C4175 0.961 . S
H4191 C4175 0.960 . S
C4192 C4193 1.382 1_565 S
C4192 C4194 1.394 . S
C4192 H4208 0.931 . S
C4193 C4192 1.382 1_545 S
C4193 C4197 1.382 . S
C4194 C4192 1.394 . S
C4194 C4195 1.369 . S
C4194 C4198 1.531 . S
C4195 C4194 1.369 . S
C4195 C4196 1.410 1_565 S
C4195 C4203 1.503 . S
C4196 C4195 1.410 1_545 S
C4196 C4197 1.392 . S
C4196 C4199 1.511 . S
C4197 C4193 1.382 . S
C4197 C4196 1.392 . S
C4197 H4209 0.929 . S
C4198 C4194 1.531 . S
C4198 H4210 0.960 . S
C4198 H4211 0.962 . S
C4198 H4212 0.960 . S
C4199 C4196 1.511 . S
C4199 H4213 0.961 . S
C4199 H4214 0.961 . S
C4199 H4215 0.961 . S
C4200 C4201 1.370 1_545 S
C4200 C4202 1.363 . S
C4200 H4216 0.931 . S
C4201 C4200 1.370 1_565 S
C4201 C4205 1.408 . S
C4202 C4200 1.363 . S
C4202 C4203 1.370 1_545 S
C4202 C4206 1.524 . S
C4203 C4195 1.503 . S
C4203 C4202 1.370 1_565 S
C4203 C4204 1.403 . S
C4204 C4203 1.403 . S
C4204 C4205 1.404 . S
C4204 C4207 1.539 . S
C4205 C4201 1.408 . S
C4205 C4204 1.404 . S
C4205 H4217 0.930 . S
C4206 C4202 1.524 . S
C4206 H4218 0.956 . S
C4206 H4219 0.961 . S
C4206 H4220 0.961 . S
C4207 C4204 1.539 . S
C4207 H4221 0.958 . S
C4207 H4222 0.961 . S
C4207 H4223 0.960 . S
H4208 C4192 0.931 . S
H4209 C4197 0.929 . S
H4210 C4198 0.960 . S
H4211 C4198 0.962 . S
H4212 C4198 0.960 . S
H4213 C4199 0.961 . S
H4214 C4199 0.961 . S
H4215 C4199 0.961 . S
H4216 C4200 0.931 . S
H4217 C4205 0.930 . S
H4218 C4206 0.956 . S
H4219 C4206 0.961 . S
H4220 C4206 0.961 . S
H4221 C4207 0.958 . S
H4222 C4207 0.961 . S
H4223 C4207 0.960 . S
C4224 C4225 1.391 1_565 S
C4224 C4226 1.394 . S
C4224 H4240 0.931 . S
C4225 C4224 1.391 1_545 S
C4225 C4229 1.376 . S
C4226 C4224 1.394 . S
C4226 C4227 1.369 . S
C4226 C4230 1.531 . S
C4227 C4226 1.369 . S
C4227 C4228 1.410 1_565 S
C4227 C4235 1.503 . S
C4228 C4227 1.410 1_545 S
C4228 C4229 1.392 . S
C4228 C4231 1.511 . S
C4229 C4225 1.376 . S
C4229 C4228 1.392 . S
C4229 H4241 0.929 . S
C4230 C4226 1.531 . S
C4230 H4242 0.960 . S
C4230 H4243 0.962 . S
C4230 H4244 0.960 . S
C4231 C4228 1.511 . S
C4231 H4245 0.961 . S
C4231 H4246 0.961 . S
C4231 H4247 0.961 . S
C4232 C4233 1.370 1_545 S
C4232 C4234 1.363 . S
C4232 H4248 0.931 . S
C4233 C4232 1.370 1_565 S
C4233 C4237 1.408 . S
C4234 C4232 1.363 . S
C4234 C4235 1.370 1_545 S
C4234 C4238 1.524 . S
C4235 C4227 1.503 . S
C4235 C4234 1.370 1_565 S
C4235 C4236 1.403 . S
C4236 C4235 1.403 . S
C4236 C4237 1.404 . S
C4236 C4239 1.539 . S
C4237 C4233 1.408 . S
C4237 C4236 1.404 . S
C4237 H4249 0.930 . S
C4238 C4234 1.524 . S
C4238 H4250 0.956 . S
C4238 H4251 0.961 . S
C4238 H4252 0.961 . S
C4239 C4236 1.539 . S
C4239 H4253 0.958 . S
C4239 H4254 0.961 . S
C4239 H4255 0.960 . S
H4240 C4224 0.931 . S
H4241 C4229 0.929 . S
H4242 C4230 0.960 . S
H4243 C4230 0.962 . S
H4244 C4230 0.960 . S
H4245 C4231 0.961 . S
H4246 C4231 0.961 . S
H4247 C4231 0.961 . S
H4248 C4232 0.931 . S
H4249 C4237 0.930 . S
H4250 C4238 0.956 . S
H4251 C4238 0.961 . S
H4252 C4238 0.961 . S
H4253 C4239 0.958 . S
H4254 C4239 0.961 . S
H4255 C4239 0.960 . S
C4256 C4257 1.391 . S
C4256 C4258 1.394 . S
C4256 H4272 0.931 . S
C4257 C4256 1.391 . S
C4257 C4261 1.376 . S
C4258 C4256 1.394 . S
C4258 C4259 1.369 . S
C4258 C4262 1.531 . S
C4259 C4258 1.369 . S
C4259 C4260 1.410 . S
C4259 C4267 1.503 . S
C4260 C4259 1.410 . S
C4260 C4261 1.392 . S
C4260 C4263 1.511 . S
C4261 C4257 1.376 . S
C4261 C4260 1.392 . S
C4261 H4273 0.929 . S
C4262 C4258 1.531 . S
C4262 H4274 0.960 . S
C4262 H4275 0.962 1_655 S
C4262 H4276 0.960 . S
C4263 C4260 1.511 . S
C4263 H4277 0.961 . S
C4263 H4278 0.961 . S
C4263 H4279 0.961 . S
C4264 C4265 1.370 1_455 S
C4264 C4266 1.363 . S
C4264 H4280 0.931 . S
C4265 C4264 1.370 1_655 S
C4265 C4269 1.408 . S
C4266 C4264 1.363 . S
C4266 C4267 1.370 1_455 S
C4266 C4270 1.524 . S
C4267 C4259 1.503 . S
C4267 C4266 1.370 1_655 S
C4267 C4268 1.403 . S
C4268 C4267 1.403 . S
C4268 C4269 1.404 . S
C4268 C4271 1.539 . S
C4269 C4265 1.408 . S
C4269 C4268 1.404 . S
C4269 H4281 0.930 . S
C4270 C4266 1.524 . S
C4270 H4282 0.956 . S
C4270 H4283 0.961 . S
C4270 H4284 0.961 . S
C4271 C4268 1.539 . S
C4271 H4285 0.958 . S
C4271 H4286 0.961 . S
C4271 H4287 0.960 . S
H4272 C4256 0.931 . S
H4273 C4261 0.929 . S
H4274 C4262 0.960 . S
H4275 C4262 0.962 1_455 S
H4276 C4262 0.960 . S
H4277 C4263 0.961 . S
H4278 C4263 0.961 . S
H4279 C4263 0.961 . S
H4280 C4264 0.931 . S
H4281 C4269 0.930 . S
H4282 C4270 0.956 . S
H4283 C4270 0.961 . S
H4284 C4270 0.961 . S
H4285 C4271 0.958 . S
H4286 C4271 0.961 . S
H4287 C4271 0.960 . S
C4288 C4289 1.391 . S
C4288 C4290 1.394 . S
C4288 H4304 0.931 . S
C4289 C4288 1.391 . S
C4289 C4293 1.376 . S
C4290 C4288 1.394 . S
C4290 C4291 1.369 . S
C4290 C4294 1.531 . S
C4291 C4290 1.369 . S
C4291 C4292 1.410 . S
C4291 C4299 1.503 . S
C4292 C4291 1.410 . S
C4292 C4293 1.392 . S
C4292 C4295 1.511 . S
C4293 C4289 1.376 . S
C4293 C4292 1.392 . S
C4293 H4305 0.929 . S
C4294 C4290 1.531 . S
C4294 H4306 0.960 . S
C4294 H4307 0.962 . S
C4294 H4308 0.960 . S
C4295 C4292 1.511 . S
C4295 H4309 0.961 . S
C4295 H4310 0.961 . S
C4295 H4311 0.961 . S
C4296 C4297 1.370 . S
C4296 C4298 1.363 . S
C4296 H4312 0.931 . S
C4297 C4296 1.370 . S
C4297 C4301 1.408 . S
C4298 C4296 1.363 . S
C4298 C4299 1.370 . S
C4298 C4302 1.524 . S
C4299 C4291 1.503 . S
C4299 C4298 1.370 . S
C4299 C4300 1.403 . S
C4300 C4299 1.403 . S
C4300 C4301 1.404 . S
C4300 C4303 1.539 . S
C4301 C4297 1.408 . S
C4301 C4300 1.404 . S
C4301 H4313 0.930 . S
C4302 C4298 1.524 . S
C4302 H4314 0.956 . S
C4302 H4315 0.961 . S
C4302 H4316 0.961 . S
C4303 C4300 1.539 . S
C4303 H4317 0.958 . S
C4303 H4318 0.961 . S
C4303 H4319 0.960 . S
H4304 C4288 0.931 . S
H4305 C4293 0.929 . S
H4306 C4294 0.960 . S
H4307 C4294 0.962 . S
H4308 C4294 0.960 . S
H4309 C4295 0.961 . S
H4310 C4295 0.961 . S
H4311 C4295 0.961 . S
H4312 C4296 0.931 . S
H4313 C4301 0.930 . S
H4314 C4302 0.956 . S
H4315 C4302 0.961 . S
H4316 C4302 0.961 . S
H4317 C4303 0.958 . S
H4318 C4303 0.961 . S
H4319 C4303 0.960 . S
C4320 C4321 1.391 . S
C4320 C4322 1.394 1_655 S
C4320 H4336 0.931 1_655 S
C4321 C4320 1.391 . S
C4321 C4325 1.376 . S
C4322 C4320 1.394 1_455 S
C4322 C4323 1.369 1_455 S
C4322 C4326 1.531 . S
C4323 C4322 1.369 1_655 S
C4323 C4324 1.410 . S
C4323 C4331 1.503 1_655 S
C4324 C4323 1.410 . S
C4324 C4325 1.392 . S
C4324 C4327 1.511 . S
C4325 C4321 1.376 . S
C4325 C4324 1.392 . S
C4325 H4337 0.929 . S
C4326 C4322 1.531 . S
C4326 H4338 0.960 . S
C4326 H4339 0.962 . S
C4326 H4340 0.960 . S
C4327 C4324 1.511 . S
C4327 H4341 0.961 . S
C4327 H4342 0.961 . S
C4327 H4343 0.961 . S
C4328 C4329 1.370 . S
C4328 C4330 1.363 . S
C4328 H4344 0.931 . S
C4329 C4328 1.370 . S
C4329 C4333 1.408 . S
C4330 C4328 1.363 . S
C4330 C4331 1.370 . S
C4330 C4334 1.524 . S
C4331 C4323 1.503 1_455 S
C4331 C4330 1.370 . S
C4331 C4332 1.403 . S
C4332 C4331 1.403 . S
C4332 C4333 1.404 . S
C4332 C4335 1.539 1_455 S
C4333 C4329 1.408 . S
C4333 C4332 1.404 . S
C4333 H4345 0.930 . S
C4334 C4330 1.524 . S
C4334 H4346 0.956 . S
C4334 H4347 0.961 . S
C4334 H4348 0.961 . S
C4335 C4332 1.539 1_655 S
C4335 H4349 0.958 . S
C4335 H4350 0.961 . S
C4335 H4351 0.960 . S
H4336 C4320 0.931 1_455 S
H4337 C4325 0.929 . S
H4338 C4326 0.960 . S
H4339 C4326 0.962 . S
H4340 C4326 0.960 . S
H4341 C4327 0.961 . S
H4342 C4327 0.961 . S
H4343 C4327 0.961 . S
H4344 C4328 0.931 . S
H4345 C4333 0.930 . S
H4346 C4334 0.956 . S
H4347 C4334 0.961 . S
H4348 C4334 0.961 . S
H4349 C4335 0.958 . S
H4350 C4335 0.961 . S
H4351 C4335 0.960 . S
C4352 C4353 1.391 . S
C4352 C4354 1.394 . S
C4352 H4368 0.931 . S
C4353 C4352 1.391 . S
C4353 C4357 1.376 . S
C4354 C4352 1.394 . S
C4354 C4355 1.369 . S
C4354 C4358 1.531 . S
C4355 C4354 1.369 . S
C4355 C4356 1.410 . S
C4355 C4363 1.503 . S
C4356 C4355 1.410 . S
C4356 C4357 1.392 . S
C4356 C4359 1.511 . S
C4357 C4353 1.376 . S
C4357 C4356 1.392 . S
C4357 H4369 0.929 . S
C4358 C4354 1.531 . S
C4358 H4370 0.960 . S
C4358 H4371 0.962 . S
C4358 H4372 0.960 . S
C4359 C4356 1.511 . S
C4359 H4373 0.961 . S
C4359 H4374 0.961 . S
C4359 H4375 0.961 . S
C4360 C4361 1.370 . S
C4360 C4362 1.363 . S
C4360 H4376 0.931 . S
C4361 C4360 1.370 . S
C4361 C4365 1.408 . S
C4362 C4360 1.363 . S
C4362 C4363 1.370 . S
C4362 C4366 1.524 . S
C4363 C4355 1.503 . S
C4363 C4362 1.370 . S
C4363 C4364 1.403 . S
C4364 C4363 1.403 . S
C4364 C4365 1.404 . S
C4364 C4367 1.539 . S
C4365 C4361 1.408 . S
C4365 C4364 1.404 . S
C4365 H4377 0.930 . S
C4366 C4362 1.524 . S
C4366 H4378 0.956 . S
C4366 H4379 0.961 . S
C4366 H4380 0.961 . S
C4367 C4364 1.539 . S
C4367 H4381 0.958 . S
C4367 H4382 0.961 . S
C4367 H4383 0.960 . S
H4368 C4352 0.931 . S
H4369 C4357 0.929 . S
H4370 C4358 0.960 . S
H4371 C4358 0.962 . S
H4372 C4358 0.960 . S
H4373 C4359 0.961 . S
H4374 C4359 0.961 . S
H4375 C4359 0.961 . S
H4376 C4360 0.931 . S
H4377 C4365 0.930 . S
H4378 C4366 0.956 . S
H4379 C4366 0.961 . S
H4380 C4366 0.961 . S
H4381 C4367 0.958 . S
H4382 C4367 0.961 . S
H4383 C4367 0.960 . S
C4384 C4385 1.391 . S
C4384 C4386 1.394 1_545 S
C4384 H4400 0.931 1_545 S
C4385 C4384 1.391 . S
C4385 C4389 1.376 . S
C4386 C4384 1.394 1_565 S
C4386 C4387 1.369 1_565 S
C4386 C4390 1.531 . S
C4387 C4386 1.369 1_545 S
C4387 C4388 1.410 . S
C4387 C4395 1.503 1_545 S
C4388 C4387 1.410 . S
C4388 C4389 1.392 . S
C4388 C4391 1.511 . S
C4389 C4385 1.376 . S
C4389 C4388 1.392 . S
C4389 H4401 0.929 . S
C4390 C4386 1.531 . S
C4390 H4402 0.960 . S
C4390 H4403 0.962 . S
C4390 H4404 0.960 . S
C4391 C4388 1.511 . S
C4391 H4405 0.961 . S
C4391 H4406 0.961 . S
C4391 H4407 0.961 . S
C4392 C4393 1.370 . S
C4392 C4394 1.363 . S
C4392 H4408 0.931 . S
C4393 C4392 1.370 . S
C4393 C4397 1.408 . S
C4394 C4392 1.363 . S
C4394 C4395 1.370 . S
C4394 C4398 1.524 1_565 S
C4395 C4387 1.503 1_565 S
C4395 C4394 1.370 . S
C4395 C4396 1.403 . S
C4396 C4395 1.403 . S
C4396 C4397 1.404 . S
C4396 C4399 1.539 . S
C4397 C4393 1.408 . S
C4397 C4396 1.404 . S
C4397 H4409 0.930 . S
C4398 C4394 1.524 1_545 S
C4398 H4410 0.956 . S
C4398 H4411 0.961 . S
C4398 H4412 0.961 . S
C4399 C4396 1.539 . S
C4399 H4413 0.958 . S
C4399 H4414 0.961 . S
C4399 H4415 0.960 . S
H4400 C4384 0.931 1_565 S
H4401 C4389 0.929 . S
H4402 C4390 0.960 . S
H4403 C4390 0.962 . S
H4404 C4390 0.960 . S
H4405 C4391 0.961 . S
H4406 C4391 0.961 . S
H4407 C4391 0.961 . S
H4408 C4392 0.931 . S
H4409 C4397 0.930 . S
H4410 C4398 0.956 . S
H4411 C4398 0.961 . S
H4412 C4398 0.961 . S
H4413 C4399 0.958 . S
H4414 C4399 0.961 . S
H4415 C4399 0.960 . S
C4416 C4417 1.391 . S
C4416 C4418 1.394 . S
C4416 H4432 0.931 . S
C4417 C4416 1.391 . S
C4417 C4421 1.376 . S
C4418 C4416 1.394 . S
C4418 C4419 1.369 . S
C4418 C4422 1.531 . S
C4419 C4418 1.369 . S
C4419 C4420 1.410 . S
C4419 C4427 1.503 1_655 S
C4420 C4419 1.410 . S
C4420 C4421 1.392 . S
C4420 C4423 1.511 . S
C4421 C4417 1.376 . S
C4421 C4420 1.392 . S
C4421 H4433 0.929 . S
C4422 C4418 1.531 . S
C4422 H4434 0.960 . S
C4422 H4435 0.962 1_655 S
C4422 H4436 0.960 . S
C4423 C4420 1.511 . S
C4423 H4437 0.961 . S
C4423 H4438 0.961 1_655 S
C4423 H4439 0.961 . S
C4424 C4425 1.370 . S
C4424 C4426 1.363 . S
C4424 H4440 0.931 . S
C4425 C4424 1.370 . S
C4425 C4429 1.405 1_455 S
C4426 C4424 1.363 . S
C4426 C4427 1.370 . S
C4426 C4430 1.524 . S
C4427 C4419 1.503 1_455 S
C4427 C4426 1.370 . S
C4427 C4428 1.403 1_455 S
C4428 C4427 1.403 1_655 S
C4428 C4429 1.405 . S
C4428 C4431 1.539 . S
C4429 C4425 1.405 1_655 S
C4429 C4428 1.405 . S
C4429 H4441 0.932 . S
C4430 C4426 1.524 . S
C4430 H4442 0.956 . S
C4430 H4443 0.961 . S
C4430 H4444 0.961 . S
C4431 C4428 1.539 . S
C4431 H4445 0.958 . S
C4431 H4446 0.961 . S
C4431 H4447 0.960 . S
H4432 C4416 0.931 . S
H4433 C4421 0.929 . S
H4434 C4422 0.960 . S
H4435 C4422 0.962 1_455 S
H4436 C4422 0.960 . S
H4437 C4423 0.961 . S
H4438 C4423 0.961 1_455 S
H4439 C4423 0.961 . S
H4440 C4424 0.931 . S
H4441 C4429 0.932 . S
H4442 C4430 0.956 . S
H4443 C4430 0.961 . S
H4444 C4430 0.961 . S
H4445 C4431 0.958 . S
H4446 C4431 0.961 . S
H4447 C4431 0.960 . S
C4448 C4449 1.391 . S
C4448 C4450 1.394 . S
C4448 H4464 0.931 . S
C4449 C4448 1.391 . S
C4449 C4453 1.376 . S
C4450 C4448 1.394 . S
C4450 C4451 1.369 . S
C4450 C4454 1.531 . S
C4451 C4450 1.369 . S
C4451 C4452 1.410 . S
C4451 C4459 1.503 . S
C4452 C4451 1.410 . S
C4452 C4453 1.392 . S
C4452 C4455 1.511 . S
C4453 C4449 1.376 . S
C4453 C4452 1.392 . S
C4453 H4465 0.929 . S
C4454 C4450 1.531 . S
C4454 H4466 0.960 . S
C4454 H4467 0.962 . S
C4454 H4468 0.960 . S
C4455 C4452 1.511 . S
C4455 H4469 0.961 . S
C4455 H4470 0.961 . S
C4455 H4471 0.961 . S
C4456 C4457 1.370 . S
C4456 C4458 1.363 . S
C4456 H4472 0.931 . S
C4457 C4456 1.370 . S
C4457 C4461 1.408 . S
C4458 C4456 1.363 . S
C4458 C4459 1.370 . S
C4458 C4462 1.524 . S
C4459 C4451 1.503 . S
C4459 C4458 1.370 . S
C4459 C4460 1.403 . S
C4460 C4459 1.403 . S
C4460 C4461 1.404 . S
C4460 C4463 1.539 . S
C4461 C4457 1.408 . S
C4461 C4460 1.404 . S
C4461 H4473 0.930 . S
C4462 C4458 1.524 . S
C4462 H4474 0.956 . S
C4462 H4475 0.961 . S
C4462 H4476 0.961 . S
C4463 C4460 1.539 . S
C4463 H4477 0.958 . S
C4463 H4478 0.961 . S
C4463 H4479 0.960 . S
H4464 C4448 0.931 . S
H4465 C4453 0.929 . S
H4466 C4454 0.960 . S
H4467 C4454 0.962 . S
H4468 C4454 0.960 . S
H4469 C4455 0.961 . S
H4470 C4455 0.961 . S
H4471 C4455 0.961 . S
H4472 C4456 0.931 . S
H4473 C4461 0.930 . S
H4474 C4462 0.956 . S
H4475 C4462 0.961 . S
H4476 C4462 0.961 . S
H4477 C4463 0.958 . S
H4478 C4463 0.961 . S
H4479 C4463 0.960 . S
C4480 C4481 1.391 . S
C4480 C4482 1.394 . S
C4480 H4496 0.931 . S
C4481 C4480 1.391 . S
C4481 C4485 1.376 . S
C4482 C4480 1.394 . S
C4482 C4483 1.369 . S
C4482 C4486 1.531 . S
C4483 C4482 1.369 . S
C4483 C4484 1.411 1_545 S
C4483 C4491 1.503 1_545 S
C4484 C4483 1.411 1_565 S
C4484 C4485 1.393 1_565 S
C4484 C4487 1.508 . S
C4485 C4481 1.376 . S
C4485 C4484 1.393 1_545 S
C4485 H4497 0.929 . S
C4486 C4482 1.531 . S
C4486 H4498 0.960 . S
C4486 H4499 0.962 . S
C4486 H4500 0.960 . S
C4487 C4484 1.508 . S
C4487 H4501 0.961 . S
C4487 H4502 0.961 . S
C4487 H4503 0.961 . S
C4488 C4489 1.370 . S
C4488 C4490 1.363 . S
C4488 H4504 0.931 . S
C4489 C4488 1.370 . S
C4489 C4493 1.408 . S
C4490 C4488 1.363 . S
C4490 C4491 1.370 . S
C4490 C4494 1.524 . S
C4491 C4483 1.503 1_565 S
C4491 C4490 1.370 . S
C4491 C4492 1.403 1_565 S
C4492 C4491 1.403 1_545 S
C4492 C4493 1.404 1_545 S
C4492 C4495 1.539 . S
C4493 C4489 1.408 . S
C4493 C4492 1.404 1_565 S
C4493 H4505 0.930 . S
C4494 C4490 1.524 . S
C4494 H4506 0.956 . S
C4494 H4507 0.961 . S
C4494 H4508 0.961 . S
C4495 C4492 1.539 . S
C4495 H4509 0.958 . S
C4495 H4510 0.961 . S
C4495 H4511 0.960 . S
H4496 C4480 0.931 . S
H4497 C4485 0.929 . S
H4498 C4486 0.960 . S
H4499 C4486 0.962 . S
H4500 C4486 0.960 . S
H4501 C4487 0.961 . S
H4502 C4487 0.961 . S
H4503 C4487 0.961 . S
H4504 C4488 0.931 . S
H4505 C4493 0.930 . S
H4506 C4494 0.956 . S
H4507 C4494 0.961 . S
H4508 C4494 0.961 . S
H4509 C4495 0.958 . S
H4510 C4495 0.961 . S
H4511 C4495 0.960 . S
C4512 C4513 1.391 . S
C4512 C4514 1.394 . S
C4512 H4528 0.931 . S
C4513 C4512 1.391 . S
C4513 C4517 1.376 . S
C4514 C4512 1.394 . S
C4514 C4515 1.369 . S
C4514 C4518 1.531 . S
C4515 C4514 1.369 . S
C4515 C4516 1.410 . S
C4515 C4523 1.503 . S
C4516 C4515 1.410 . S
C4516 C4517 1.392 . S
C4516 C4519 1.511 . S
C4517 C4513 1.376 . S
C4517 C4516 1.392 . S
C4517 H4529 0.929 . S
C4518 C4514 1.531 . S
C4518 H4530 0.960 . S
C4518 H4531 0.962 . S
C4518 H4532 0.960 . S
C4519 C4516 1.511 . S
C4519 H4533 0.961 . S
C4519 H4534 0.961 . S
C4519 H4535 0.961 . S
C4520 C4521 1.370 . S
C4520 C4522 1.363 . S
C4520 H4536 0.931 . S
C4521 C4520 1.370 . S
C4521 C4525 1.408 . S
C4522 C4520 1.363 . S
C4522 C4523 1.370 . S
C4522 C4526 1.524 . S
C4523 C4515 1.503 . S
C4523 C4522 1.370 . S
C4523 C4524 1.403 . S
C4524 C4523 1.403 . S
C4524 C4525 1.404 . S
C4524 C4527 1.539 . S
C4525 C4521 1.408 . S
C4525 C4524 1.404 . S
C4525 H4537 0.930 . S
C4526 C4522 1.524 . S
C4526 H4538 0.956 . S
C4526 H4539 0.961 . S
C4526 H4540 0.961 . S
C4527 C4524 1.539 . S
C4527 H4541 0.958 . S
C4527 H4542 0.961 . S
C4527 H4543 0.960 . S
H4528 C4512 0.931 . S
H4529 C4517 0.929 . S
H4530 C4518 0.960 . S
H4531 C4518 0.962 . S
H4532 C4518 0.960 . S
H4533 C4519 0.961 . S
H4534 C4519 0.961 . S
H4535 C4519 0.961 . S
H4536 C4520 0.931 . S
H4537 C4525 0.930 . S
H4538 C4526 0.956 . S
H4539 C4526 0.961 . S
H4540 C4526 0.961 . S
H4541 C4527 0.958 . S
H4542 C4527 0.961 . S
H4543 C4527 0.960 . S
C4544 C4545 1.391 . S
C4544 C4546 1.394 . S
C4544 H4560 0.931 . S
C4545 C4544 1.391 . S
C4545 C4549 1.376 . S
C4546 C4544 1.394 . S
C4546 C4547 1.369 . S
C4546 C4550 1.531 . S
C4547 C4546 1.369 . S
C4547 C4548 1.410 . S
C4547 C4555 1.503 . S
C4548 C4547 1.410 . S
C4548 C4549 1.392 . S
C4548 C4551 1.511 . S
C4549 C4545 1.376 . S
C4549 C4548 1.392 . S
C4549 H4561 0.929 . S
C4550 C4546 1.531 . S
C4550 H4562 0.960 . S
C4550 H4563 0.962 . S
C4550 H4564 0.960 . S
C4551 C4548 1.511 . S
C4551 H4565 0.961 . S
C4551 H4566 0.961 . S
C4551 H4567 0.961 . S
C4552 C4553 1.370 . S
C4552 C4554 1.363 . S
C4552 H4568 0.931 . S
C4553 C4552 1.370 . S
C4553 C4557 1.408 . S
C4554 C4552 1.363 . S
C4554 C4555 1.370 . S
C4554 C4558 1.524 . S
C4555 C4547 1.503 . S
C4555 C4554 1.370 . S
C4555 C4556 1.403 . S
C4556 C4555 1.403 . S
C4556 C4557 1.404 . S
C4556 C4559 1.539 . S
C4557 C4553 1.408 . S
C4557 C4556 1.404 . S
C4557 H4569 0.930 . S
C4558 C4554 1.524 . S
C4558 H4570 0.956 . S
C4558 H4571 0.961 . S
C4558 H4572 0.961 . S
C4559 C4556 1.539 . S
C4559 H4573 0.958 . S
C4559 H4574 0.961 . S
C4559 H4575 0.960 . S
H4560 C4544 0.931 . S
H4561 C4549 0.929 . S
H4562 C4550 0.960 . S
H4563 C4550 0.962 . S
H4564 C4550 0.960 . S
H4565 C4551 0.961 . S
H4566 C4551 0.961 . S
H4567 C4551 0.961 . S
H4568 C4552 0.931 . S
H4569 C4557 0.930 . S
H4570 C4558 0.956 . S
H4571 C4558 0.961 . S
H4572 C4558 0.961 . S
H4573 C4559 0.958 . S
H4574 C4559 0.961 . S
H4575 C4559 0.960 . S
C4576 C4577 1.391 . S
C4576 C4578 1.394 . S
C4576 H4592 0.931 . S
C4577 C4576 1.391 . S
C4577 C4581 1.376 . S
C4578 C4576 1.394 . S
C4578 C4579 1.369 . S
C4578 C4582 1.531 . S
C4579 C4578 1.369 . S
C4579 C4580 1.410 . S
C4579 C4587 1.503 . S
C4580 C4579 1.410 . S
C4580 C4581 1.392 . S
C4580 C4583 1.511 . S
C4581 C4577 1.376 . S
C4581 C4580 1.392 . S
C4581 H4593 0.929 . S
C4582 C4578 1.531 . S
C4582 H4594 0.960 . S
C4582 H4595 0.962 . S
C4582 H4596 0.960 . S
C4583 C4580 1.511 . S
C4583 H4597 0.961 . S
C4583 H4598 0.961 . S
C4583 H4599 0.961 . S
C4584 C4585 1.370 . S
C4584 C4586 1.363 . S
C4584 H4600 0.931 . S
C4585 C4584 1.370 . S
C4585 C4589 1.408 . S
C4586 C4584 1.363 . S
C4586 C4587 1.370 . S
C4586 C4590 1.524 . S
C4587 C4579 1.503 . S
C4587 C4586 1.370 . S
C4587 C4588 1.403 . S
C4588 C4587 1.403 . S
C4588 C4589 1.404 . S
C4588 C4591 1.539 . S
C4589 C4585 1.408 . S
C4589 C4588 1.404 . S
C4589 H4601 0.930 . S
C4590 C4586 1.524 . S
C4590 H4602 0.956 . S
C4590 H4603 0.961 . S
C4590 H4604 0.961 . S
C4591 C4588 1.539 . S
C4591 H4605 0.958 . S
C4591 H4606 0.961 . S
C4591 H4607 0.960 . S
H4592 C4576 0.931 . S
H4593 C4581 0.929 . S
H4594 C4582 0.960 . S
H4595 C4582 0.962 . S
H4596 C4582 0.960 . S
H4597 C4583 0.961 . S
H4598 C4583 0.961 . S
H4599 C4583 0.961 . S
H4600 C4584 0.931 . S
H4601 C4589 0.930 . S
H4602 C4590 0.956 . S
H4603 C4590 0.961 . S
H4604 C4590 0.961 . S
H4605 C4591 0.958 . S
H4606 C4591 0.961 . S
H4607 C4591 0.960 . S
C4608 C4609 1.391 . S
C4608 C4610 1.394 . S
C4608 H4624 0.931 . S
C4609 C4608 1.391 . S
C4609 C4613 1.376 . S
C4610 C4608 1.394 . S
C4610 C4611 1.369 . S
C4610 C4614 1.531 . S
C4611 C4610 1.369 . S
C4611 C4612 1.410 . S
C4611 C4619 1.503 . S
C4612 C4611 1.410 . S
C4612 C4613 1.392 . S
C4612 C4615 1.511 . S
C4613 C4609 1.376 . S
C4613 C4612 1.392 . S
C4613 H4625 0.929 . S
C4614 C4610 1.531 . S
C4614 H4626 0.960 . S
C4614 H4627 0.962 . S
C4614 H4628 0.960 . S
C4615 C4612 1.511 . S
C4615 H4629 0.961 . S
C4615 H4630 0.961 . S
C4615 H4631 0.961 . S
C4616 C4617 1.370 . S
C4616 C4618 1.363 . S
C4616 H4632 0.931 . S
C4617 C4616 1.370 . S
C4617 C4621 1.408 . S
C4618 C4616 1.363 . S
C4618 C4619 1.370 . S
C4618 C4622 1.524 . S
C4619 C4611 1.503 . S
C4619 C4618 1.370 . S
C4619 C4620 1.403 . S
C4620 C4619 1.403 . S
C4620 C4621 1.404 . S
C4620 C4623 1.539 . S
C4621 C4617 1.408 . S
C4621 C4620 1.404 . S
C4621 H4633 0.930 . S
C4622 C4618 1.524 . S
C4622 H4634 0.956 . S
C4622 H4635 0.961 . S
C4622 H4636 0.961 . S
C4623 C4620 1.539 . S
C4623 H4637 0.958 . S
C4623 H4638 0.961 . S
C4623 H4639 0.960 . S
H4624 C4608 0.931 . S
H4625 C4613 0.929 . S
H4626 C4614 0.960 . S
H4627 C4614 0.962 . S
H4628 C4614 0.960 . S
H4629 C4615 0.961 . S
H4630 C4615 0.961 . S
H4631 C4615 0.961 . S
H4632 C4616 0.931 . S
H4633 C4621 0.930 . S
H4634 C4622 0.956 . S
H4635 C4622 0.961 . S
H4636 C4622 0.961 . S
H4637 C4623 0.958 . S
H4638 C4623 0.961 . S
H4639 C4623 0.960 . S
C4640 C4641 1.391 . S
C4640 C4642 1.394 . S
C4640 H4656 0.931 . S
C4641 C4640 1.391 . S
C4641 C4645 1.376 . S
C4642 C4640 1.394 . S
C4642 C4643 1.369 . S
C4642 C4646 1.531 . S
C4643 C4642 1.369 . S
C4643 C4644 1.410 . S
C4643 C4651 1.503 . S
C4644 C4643 1.410 . S
C4644 C4645 1.392 . S
C4644 C4647 1.511 . S
C4645 C4641 1.376 . S
C4645 C4644 1.392 . S
C4645 H4657 0.929 . S
C4646 C4642 1.531 . S
C4646 H4658 0.960 . S
C4646 H4659 0.962 . S
C4646 H4660 0.960 . S
C4647 C4644 1.511 . S
C4647 H4661 0.961 . S
C4647 H4662 0.961 . S
C4647 H4663 0.961 . S
C4648 C4649 1.370 . S
C4648 C4650 1.363 . S
C4648 H4664 0.931 . S
C4649 C4648 1.370 . S
C4649 C4653 1.408 . S
C4650 C4648 1.363 . S
C4650 C4651 1.370 . S
C4650 C4654 1.524 . S
C4651 C4643 1.503 . S
C4651 C4650 1.370 . S
C4651 C4652 1.403 . S
C4652 C4651 1.403 . S
C4652 C4653 1.404 . S
C4652 C4655 1.539 . S
C4653 C4649 1.408 . S
C4653 C4652 1.404 . S
C4653 H4665 0.930 . S
C4654 C4650 1.524 . S
C4654 H4666 0.956 . S
C4654 H4667 0.961 . S
C4654 H4668 0.961 . S
C4655 C4652 1.539 . S
C4655 H4669 0.958 . S
C4655 H4670 0.961 . S
C4655 H4671 0.960 . S
H4656 C4640 0.931 . S
H4657 C4645 0.929 . S
H4658 C4646 0.960 . S
H4659 C4646 0.962 . S
H4660 C4646 0.960 . S
H4661 C4647 0.961 . S
H4662 C4647 0.961 . S
H4663 C4647 0.961 . S
H4664 C4648 0.931 . S
H4665 C4653 0.930 . S
H4666 C4654 0.956 . S
H4667 C4654 0.961 . S
H4668 C4654 0.961 . S
H4669 C4655 0.958 . S
H4670 C4655 0.961 . S
H4671 C4655 0.960 . S
C4672 C4673 1.391 . S
C4672 C4674 1.394 . S
C4672 H4688 0.931 . S
C4673 C4672 1.391 . S
C4673 C4677 1.376 . S
C4674 C4672 1.394 . S
C4674 C4675 1.369 . S
C4674 C4678 1.531 . S
C4675 C4674 1.369 . S
C4675 C4676 1.410 . S
C4675 C4683 1.503 . S
C4676 C4675 1.410 . S
C4676 C4677 1.392 . S
C4676 C4679 1.511 . S
C4677 C4673 1.376 . S
C4677 C4676 1.392 . S
C4677 H4689 0.929 . S
C4678 C4674 1.531 . S
C4678 H4690 0.960 . S
C4678 H4691 0.962 . S
C4678 H4692 0.960 . S
C4679 C4676 1.511 . S
C4679 H4693 0.961 . S
C4679 H4694 0.961 . S
C4679 H4695 0.961 . S
C4680 C4681 1.370 . S
C4680 C4682 1.363 . S
C4680 H4696 0.931 . S
C4681 C4680 1.370 . S
C4681 C4685 1.408 . S
C4682 C4680 1.363 . S
C4682 C4683 1.370 . S
C4682 C4686 1.524 . S
C4683 C4675 1.503 . S
C4683 C4682 1.370 . S
C4683 C4684 1.403 . S
C4684 C4683 1.403 . S
C4684 C4685 1.404 . S
C4684 C4687 1.539 . S
C4685 C4681 1.408 . S
C4685 C4684 1.404 . S
C4685 H4697 0.930 . S
C4686 C4682 1.524 . S
C4686 H4698 0.956 . S
C4686 H4699 0.961 . S
C4686 H4700 0.961 . S
C4687 C4684 1.539 . S
C4687 H4701 0.958 . S
C4687 H4702 0.961 . S
C4687 H4703 0.960 . S
H4688 C4672 0.931 . S
H4689 C4677 0.929 . S
H4690 C4678 0.960 . S
H4691 C4678 0.962 . S
H4692 C4678 0.960 . S
H4693 C4679 0.961 . S
H4694 C4679 0.961 . S
H4695 C4679 0.961 . S
H4696 C4680 0.931 . S
H4697 C4685 0.930 . S
H4698 C4686 0.956 . S
H4699 C4686 0.961 . S
H4700 C4686 0.961 . S
H4701 C4687 0.958 . S
H4702 C4687 0.961 . S
H4703 C4687 0.960 . S
C4704 C4705 1.391 . S
C4704 C4706 1.394 . S
C4704 H4720 0.931 . S
C4705 C4704 1.391 . S
C4705 C4709 1.376 . S
C4706 C4704 1.394 . S
C4706 C4707 1.369 . S
C4706 C4710 1.531 . S
C4707 C4706 1.369 . S
C4707 C4708 1.410 . S
C4707 C4715 1.503 . S
C4708 C4707 1.410 . S
C4708 C4709 1.392 . S
C4708 C4711 1.511 . S
C4709 C4705 1.376 . S
C4709 C4708 1.392 . S
C4709 H4721 0.929 . S
C4710 C4706 1.531 . S
C4710 H4722 0.960 . S
C4710 H4723 0.962 . S
C4710 H4724 0.960 . S
C4711 C4708 1.511 . S
C4711 H4725 0.961 . S
C4711 H4726 0.961 . S
C4711 H4727 0.961 . S
C4712 C4713 1.370 . S
C4712 C4714 1.363 . S
C4712 H4728 0.931 . S
C4713 C4712 1.370 . S
C4713 C4717 1.408 . S
C4714 C4712 1.363 . S
C4714 C4715 1.370 . S
C4714 C4718 1.524 . S
C4715 C4707 1.503 . S
C4715 C4714 1.370 . S
C4715 C4716 1.403 . S
C4716 C4715 1.403 . S
C4716 C4717 1.404 . S
C4716 C4719 1.539 . S
C4717 C4713 1.408 . S
C4717 C4716 1.404 . S
C4717 H4729 0.930 . S
C4718 C4714 1.524 . S
C4718 H4730 0.956 . S
C4718 H4731 0.961 . S
C4718 H4732 0.961 . S
C4719 C4716 1.539 . S
C4719 H4733 0.958 . S
C4719 H4734 0.961 . S
C4719 H4735 0.960 . S
H4720 C4704 0.931 . S
H4721 C4709 0.929 . S
H4722 C4710 0.960 . S
H4723 C4710 0.962 . S
H4724 C4710 0.960 . S
H4725 C4711 0.961 . S
H4726 C4711 0.961 . S
H4727 C4711 0.961 . S
H4728 C4712 0.931 . S
H4729 C4717 0.930 . S
H4730 C4718 0.956 . S
H4731 C4718 0.961 . S
H4732 C4718 0.961 . S
H4733 C4719 0.958 . S
H4734 C4719 0.961 . S
H4735 C4719 0.960 . S
C4736 C4737 1.391 . S
C4736 C4738 1.394 . S
C4736 H4752 0.931 . S
C4737 C4736 1.391 . S
C4737 C4741 1.376 . S
C4738 C4736 1.394 . S
C4738 C4739 1.369 . S
C4738 C4742 1.531 . S
C4739 C4738 1.369 . S
C4739 C4740 1.410 . S
C4739 C4747 1.503 . S
C4740 C4739 1.410 . S
C4740 C4741 1.392 . S
C4740 C4743 1.511 . S
C4741 C4737 1.376 . S
C4741 C4740 1.392 . S
C4741 H4753 0.929 . S
C4742 C4738 1.531 . S
C4742 H4754 0.960 . S
C4742 H4755 0.962 . S
C4742 H4756 0.960 . S
C4743 C4740 1.511 . S
C4743 H4757 0.961 . S
C4743 H4758 0.961 . S
C4743 H4759 0.961 . S
C4744 C4745 1.370 . S
C4744 C4746 1.363 . S
C4744 H4760 0.931 . S
C4745 C4744 1.370 . S
C4745 C4749 1.408 . S
C4746 C4744 1.363 . S
C4746 C4747 1.370 . S
C4746 C4750 1.524 . S
C4747 C4739 1.503 . S
C4747 C4746 1.370 . S
C4747 C4748 1.403 . S
C4748 C4747 1.403 . S
C4748 C4749 1.404 . S
C4748 C4751 1.539 . S
C4749 C4745 1.408 . S
C4749 C4748 1.404 . S
C4749 H4761 0.930 . S
C4750 C4746 1.524 . S
C4750 H4762 0.956 . S
C4750 H4763 0.961 . S
C4750 H4764 0.961 . S
C4751 C4748 1.539 . S
C4751 H4765 0.958 . S
C4751 H4766 0.961 . S
C4751 H4767 0.960 . S
H4752 C4736 0.931 . S
H4753 C4741 0.929 . S
H4754 C4742 0.960 . S
H4755 C4742 0.962 . S
H4756 C4742 0.960 . S
H4757 C4743 0.961 . S
H4758 C4743 0.961 . S
H4759 C4743 0.961 . S
H4760 C4744 0.931 . S
H4761 C4749 0.930 . S
H4762 C4750 0.956 . S
H4763 C4750 0.961 . S
H4764 C4750 0.961 . S
H4765 C4751 0.958 . S
H4766 C4751 0.961 . S
H4767 C4751 0.960 . S
C4768 C4769 1.391 . S
C4768 C4770 1.394 . S
C4768 H4784 0.931 . S
C4769 C4768 1.391 . S
C4769 C4773 1.376 . S
C4770 C4768 1.394 . S
C4770 C4771 1.369 . S
C4770 C4774 1.531 . S
C4771 C4770 1.369 . S
C4771 C4772 1.410 . S
C4771 C4779 1.503 . S
C4772 C4771 1.410 . S
C4772 C4773 1.392 . S
C4772 C4775 1.511 . S
C4773 C4769 1.376 . S
C4773 C4772 1.392 . S
C4773 H4785 0.929 . S
C4774 C4770 1.531 . S
C4774 H4786 0.960 . S
C4774 H4787 0.962 . S
C4774 H4788 0.960 . S
C4775 C4772 1.511 . S
C4775 H4789 0.961 . S
C4775 H4790 0.961 . S
C4775 H4791 0.961 . S
C4776 C4777 1.370 . S
C4776 C4778 1.363 . S
C4776 H4792 0.931 . S
C4777 C4776 1.370 . S
C4777 C4781 1.408 . S
C4778 C4776 1.363 . S
C4778 C4779 1.370 . S
C4778 C4782 1.524 . S
C4779 C4771 1.503 . S
C4779 C4778 1.370 . S
C4779 C4780 1.403 . S
C4780 C4779 1.403 . S
C4780 C4781 1.404 . S
C4780 C4783 1.539 . S
C4781 C4777 1.408 . S
C4781 C4780 1.404 . S
C4781 H4793 0.930 . S
C4782 C4778 1.524 . S
C4782 H4794 0.956 . S
C4782 H4795 0.961 . S
C4782 H4796 0.961 . S
C4783 C4780 1.539 . S
C4783 H4797 0.958 . S
C4783 H4798 0.961 . S
C4783 H4799 0.960 . S
H4784 C4768 0.931 . S
H4785 C4773 0.929 . S
H4786 C4774 0.960 . S
H4787 C4774 0.962 . S
H4788 C4774 0.960 . S
H4789 C4775 0.961 . S
H4790 C4775 0.961 . S
H4791 C4775 0.961 . S
H4792 C4776 0.931 . S
H4793 C4781 0.930 . S
H4794 C4782 0.956 . S
H4795 C4782 0.961 . S
H4796 C4782 0.961 . S
H4797 C4783 0.958 . S
H4798 C4783 0.961 . S
H4799 C4783 0.960 . S
C4800 C4801 1.391 . S
C4800 C4802 1.394 . S
C4800 H4816 0.931 . S
C4801 C4800 1.391 . S
C4801 C4805 1.376 . S
C4802 C4800 1.394 . S
C4802 C4803 1.369 . S
C4802 C4806 1.531 . S
C4803 C4802 1.369 . S
C4803 C4804 1.410 . S
C4803 C4811 1.503 . S
C4804 C4803 1.410 . S
C4804 C4805 1.392 . S
C4804 C4807 1.511 . S
C4805 C4801 1.376 . S
C4805 C4804 1.392 . S
C4805 H4817 0.929 . S
C4806 C4802 1.531 . S
C4806 H4818 0.960 . S
C4806 H4819 0.962 . S
C4806 H4820 0.960 . S
C4807 C4804 1.511 . S
C4807 H4821 0.961 . S
C4807 H4822 0.961 . S
C4807 H4823 0.961 . S
C4808 C4809 1.370 . S
C4808 C4810 1.363 . S
C4808 H4824 0.931 . S
C4809 C4808 1.370 . S
C4809 C4813 1.408 . S
C4810 C4808 1.363 . S
C4810 C4811 1.370 . S
C4810 C4814 1.524 . S
C4811 C4803 1.503 . S
C4811 C4810 1.370 . S
C4811 C4812 1.403 . S
C4812 C4811 1.403 . S
C4812 C4813 1.404 . S
C4812 C4815 1.539 . S
C4813 C4809 1.408 . S
C4813 C4812 1.404 . S
C4813 H4825 0.930 . S
C4814 C4810 1.524 . S
C4814 H4826 0.956 . S
C4814 H4827 0.961 . S
C4814 H4828 0.961 . S
C4815 C4812 1.539 . S
C4815 H4829 0.958 . S
C4815 H4830 0.961 . S
C4815 H4831 0.960 . S
H4816 C4800 0.931 . S
H4817 C4805 0.929 . S
H4818 C4806 0.960 . S
H4819 C4806 0.962 . S
H4820 C4806 0.960 . S
H4821 C4807 0.961 . S
H4822 C4807 0.961 . S
H4823 C4807 0.961 . S
H4824 C4808 0.931 . S
H4825 C4813 0.930 . S
H4826 C4814 0.956 . S
H4827 C4814 0.961 . S
H4828 C4814 0.961 . S
H4829 C4815 0.958 . S
H4830 C4815 0.961 . S
H4831 C4815 0.960 . S
C4832 C4833 1.391 . S
C4832 C4834 1.394 . S
C4832 H4848 0.931 . S
C4833 C4832 1.391 . S
C4833 C4837 1.376 . S
C4834 C4832 1.394 . S
C4834 C4835 1.369 . S
C4834 C4838 1.531 . S
C4835 C4834 1.369 . S
C4835 C4836 1.410 . S
C4835 C4843 1.503 . S
C4836 C4835 1.410 . S
C4836 C4837 1.392 . S
C4836 C4839 1.511 . S
C4837 C4833 1.376 . S
C4837 C4836 1.392 . S
C4837 H4849 0.929 . S
C4838 C4834 1.531 . S
C4838 H4850 0.960 . S
C4838 H4851 0.962 . S
C4838 H4852 0.960 . S
C4839 C4836 1.511 . S
C4839 H4853 0.961 . S
C4839 H4854 0.961 . S
C4839 H4855 0.961 . S
C4840 C4841 1.370 . S
C4840 C4842 1.363 . S
C4840 H4856 0.931 . S
C4841 C4840 1.370 . S
C4841 C4845 1.408 . S
C4842 C4840 1.363 . S
C4842 C4843 1.370 . S
C4842 C4846 1.524 . S
C4843 C4835 1.503 . S
C4843 C4842 1.370 . S
C4843 C4844 1.403 . S
C4844 C4843 1.403 . S
C4844 C4845 1.404 . S
C4844 C4847 1.539 . S
C4845 C4841 1.408 . S
C4845 C4844 1.404 . S
C4845 H4857 0.930 . S
C4846 C4842 1.524 . S
C4846 H4858 0.956 . S
C4846 H4859 0.961 . S
C4846 H4860 0.961 . S
C4847 C4844 1.539 . S
C4847 H4861 0.958 . S
C4847 H4862 0.961 . S
C4847 H4863 0.960 . S
H4848 C4832 0.931 . S
H4849 C4837 0.929 . S
H4850 C4838 0.960 . S
H4851 C4838 0.962 . S
H4852 C4838 0.960 . S
H4853 C4839 0.961 . S
H4854 C4839 0.961 . S
H4855 C4839 0.961 . S
H4856 C4840 0.931 . S
H4857 C4845 0.930 . S
H4858 C4846 0.956 . S
H4859 C4846 0.961 . S
H4860 C4846 0.961 . S
H4861 C4847 0.958 . S
H4862 C4847 0.961 . S
H4863 C4847 0.960 . S
C4864 C4865 1.391 . S
C4864 C4866 1.394 . S
C4864 H4880 0.931 . S
C4865 C4864 1.391 . S
C4865 C4869 1.376 . S
C4866 C4864 1.394 . S
C4866 C4867 1.369 . S
C4866 C4870 1.531 . S
C4867 C4866 1.369 . S
C4867 C4868 1.410 . S
C4867 C4875 1.503 . S
C4868 C4867 1.410 . S
C4868 C4869 1.392 . S
C4868 C4871 1.511 . S
C4869 C4865 1.376 . S
C4869 C4868 1.392 . S
C4869 H4881 0.929 . S
C4870 C4866 1.531 . S
C4870 H4882 0.960 . S
C4870 H4883 0.962 . S
C4870 H4884 0.960 . S
C4871 C4868 1.511 . S
C4871 H4885 0.961 . S
C4871 H4886 0.961 . S
C4871 H4887 0.961 . S
C4872 C4873 1.370 . S
C4872 C4874 1.363 . S
C4872 H4888 0.931 . S
C4873 C4872 1.370 . S
C4873 C4877 1.408 . S
C4874 C4872 1.363 . S
C4874 C4875 1.370 . S
C4874 C4878 1.524 . S
C4875 C4867 1.503 . S
C4875 C4874 1.370 . S
C4875 C4876 1.403 . S
C4876 C4875 1.403 . S
C4876 C4877 1.404 . S
C4876 C4879 1.539 . S
C4877 C4873 1.408 . S
C4877 C4876 1.404 . S
C4877 H4889 0.930 . S
C4878 C4874 1.524 . S
C4878 H4890 0.956 . S
C4878 H4891 0.961 . S
C4878 H4892 0.961 . S
C4879 C4876 1.539 . S
C4879 H4893 0.958 . S
C4879 H4894 0.961 . S
C4879 H4895 0.960 . S
H4880 C4864 0.931 . S
H4881 C4869 0.929 . S
H4882 C4870 0.960 . S
H4883 C4870 0.962 . S
H4884 C4870 0.960 . S
H4885 C4871 0.961 . S
H4886 C4871 0.961 . S
H4887 C4871 0.961 . S
H4888 C4872 0.931 . S
H4889 C4877 0.930 . S
H4890 C4878 0.956 . S
H4891 C4878 0.961 . S
H4892 C4878 0.961 . S
H4893 C4879 0.958 . S
H4894 C4879 0.961 . S
H4895 C4879 0.960 . S
C1441 C9 1.744 . S
C1449 C99 1.798 . S
C1473 C19 1.798 . S
C1481 C49 1.736 1_545 S
C1505 C89 1.686 1_655 S
C1513 C59 1.783 . S
C1537 C129 1.763 . S
C1545 C179 1.863 . S
C1569 C219 1.847 . S
C1577 C169 1.797 1_565 S
C1601 C209 1.793 1_455 S
C1609 C139 1.860 . S
C1633 C258 1.709 . S
C1641 C330 1.797 . S
C1665 C298 1.691 1_565 S
C1673 C250 1.784 . S
C1697 C338 1.689 1_455 S
C1705 C290 1.792 . S
C1729 C378 1.779 . S
C1737 C410 1.859 . S
C1761 C450 1.877 . S
C1769 C418 1.796 1_545 S
C1793 C370 1.866 . S
C1801 C458 1.787 1_655 S
C1825 C579 1.864 . S
C1833 C489 1.786 . S
C1857 C529 1.769 . S
C1865 C499 1.859 . S
C1889 C539 1.833 . S
C1897 C569 1.777 . S
C1921 C609 1.814 . S
C1929 C659 1.880 . S
C1953 C699 1.897 . S
C1961 C649 1.822 . S
C1985 C619 1.867 . S
C1993 C689 1.805 . S
C2017 C738 1.735 . S
C2025 C810 1.817 . S
C2049 C778 1.730 . S
C2057 C730 1.817 . S
C2081 C770 1.802 . S
C2089 C818 1.746 . S
C2113 C890 1.718 . S
C2121 C858 1.672 1_554 S
C2145 C898 1.684 1_554 S
C2153 C930 1.720 . S
C2177 C850 1.728 . S
C2185 C938 1.662 1_554 S
C2209 C969 1.783 . S
C2217 C1059 1.828 . S
C2241 C1009 1.761 . S
C2249 C979 1.831 . S
C2273 C1049 1.725 . S
C2281 C1019 1.816 . S
C2305 C1089 1.633 1_556 S
C2313 C1139 1.708 . S
C2337 C1129 1.646 1_556 S
C2345 C1179 1.720 . S
C2369 C1169 1.628 1_556 S
C2377 C1099 1.708 . S
C2401 C1218 1.751 . S
C2409 C1290 1.851 . S
C2433 C1258 1.764 . S
C2441 C1210 1.860 . S
C2465 C1250 1.868 . S
C2473 C1298 1.794 . S
C2497 C1338 1.841 . S
C2505 C1370 1.890 . S
C2529 C1378 1.841 . S
C2537 C1410 1.889 . S
C2561 C1330 1.892 . S
C2569 C1418 1.811 . S
C2593 C10 1.773 . S
C2601 C809 1.789 . S
C2625 C729 1.796 . S
C2633 C50 1.797 . S
C2657 C90 1.766 . S
C2665 C769 1.783 . S
C2689 C130 1.699 . S
C2697 C1369 1.684 . S
C2721 C1409 1.649 . S
C2729 C170 1.683 . S
C2753 C210 1.661 . S
C2761 C1329 1.676 . S
C2785 C1058 1.763 . S
C2793 C259 1.798 . S
C2817 C299 1.780 . S
C2825 C978 1.792 . S
C2849 C339 1.788 . S
C2857 C1018 1.793 . S
C2881 C658 1.682 . S
C2889 C379 1.679 . S
C2913 C698 1.679 . S
C2921 C419 1.680 . S
C2945 C618 1.685 . S
C2953 C459 1.679 . S
C2977 C490 1.744 . S
C2985 C1289 1.719 . S
C3009 C530 1.742 . S
C3017 C1209 1.719 . S
C3041 C1249 1.741 . S
C3049 C570 1.735 . S
C3073 C409 1.737 . S
C3081 C610 1.727 . S
C3105 C449 1.699 . S
C3113 C650 1.737 . S
C3137 C369 1.691 . S
C3145 C690 1.722 . S
C3169 C98 1.780 . S
C3177 C739 1.775 . S
C3201 C779 1.802 . S
C3209 C18 1.775 . S
C3233 C819 1.791 . S
C3241 C58 1.769 . S
C3265 C1138 1.719 . S
C3273 C859 1.765 . S
C3297 C1178 1.729 1_554 S
C3305 C899 1.746 . S
C3329 C939 1.753 . S
C3337 C1098 1.741 1_554 S
C3361 C329 1.751 . S
C3369 C970 1.785 . S
C3393 C249 1.753 . S
C3401 C1010 1.787 . S
C3425 C289 1.751 . S
C3433 C1050 1.785 . S
C3457 C1090 1.725 . S
C3465 C889 1.731 1_556 S
C3489 C929 1.734 1_556 S
C3497 C1130 1.751 . S
C3521 C1170 1.735 . S
C3529 C849 1.737 1_556 S
C3553 C1219 1.713 . S
C3561 C578 1.733 . S
C3585 C1259 1.715 . S
C3593 C498 1.727 . S
C3617 C1299 1.735 . S
C3625 C538 1.740 . S
C3649 C1339 1.727 . S
C3657 C178 1.704 . S
C3681 C218 1.688 . S
C3689 C1379 1.736 . S
C3713 C138 1.686 . S
C3721 C1419 1.734 . S
C3745 C1166 2.309 . S
C3753 C6 2.284 . S
C3777 C1086 2.305 . S
C3785 C46 2.288 . S
C3809 C86 2.282 . S
C3817 C1126 2.276 . S
C3841 C526 2.543 . S
C3849 C126 2.532 . S
C3873 C166 2.519 . S
C3881 C566 2.533 . S
C3905 C206 2.546 . S
C3913 C486 2.537 . S
C3937 C255 2.291 . S
C3945 C935 2.288 . S
C3969 C295 2.280 . S
C3977 C855 2.280 . S
C4001 C335 2.311 . S
C4009 C895 2.277 . S
C4033 C1255 2.522 . S
C4041 C375 2.533 . S
C4065 C1295 2.517 . S
C4073 C415 2.539 . S
C4097 C1215 2.538 . S
C4105 C455 2.541 . S
C4129 C606 2.596 . S
C4137 C1006 2.598 . S
C4161 C646 2.575 . S
C4169 C1046 2.598 . S
C4193 C686 2.603 . S
C4201 C966 2.596 . S
C4225 C735 2.594 . S
C4233 C1415 2.585 . S
C4257 C1335 2.597 1_655 S
C4265 C775 2.589 . S
C4289 C815 2.602 . S
C4297 C1375 2.588 . S
C4321 C175 1.157 . S
C4329 C15 1.153 . S
C4353 C215 1.131 . S
C4361 C55 1.142 . S
C4385 C135 1.158 . S
C4393 C95 1.153 . S
C4417 C246 1.144 . S
C4425 C406 1.149 . S
C4449 C446 1.145 . S
C4457 C286 1.151 . S
C4481 C326 1.154 . S
C4489 C366 1.153 . S
C4513 C655 1.229 . S
C4521 C495 1.232 . S
C4545 C695 1.217 . S
C4553 C535 1.229 . S
C4577 C615 1.244 . S
C4585 C575 1.239 . S
C4609 C886 1.509 . S
C4617 C726 1.524 . S
C4641 C766 1.495 . S
C4649 C926 1.506 . S
C4673 C806 1.502 . S
C4681 C846 1.517 . S
C4705 C975 1.495 . S
C4713 C1135 1.505 . S
C4737 C1175 1.510 . S
C4745 C1015 1.525 . S
C4769 C1055 1.511 . S
C4777 C1095 1.511 . S
C4801 C1206 1.225 . S
C4809 C1366 1.234 . S
C4833 C1406 1.238 . S
C4841 C1246 1.234 . S
C4865 C1286 1.237 . S
C4873 C1326 1.238 . S
