# Generated by pormake.
# Topology uku, (4)-cn, num edge types: 1
# Building blocks:
#     Node 0, Type 0, BuildingBlock: ICAMEG_clean_sbu_1, # of connection points: 4
#     Node 1, Type 0, BuildingBlock: ICAMEG_clean_sbu_1, # of connection points: 4
#     Node 2, Type 0, BuildingBlock: ICAMEG_clean_sbu_1, # of connection points: 4
#     Node 3, Type 0, BuildingBlock: ICAMEG_clean_sbu_1, # of connection points: 4
#     Node 4, Type 0, BuildingBlock: ICAMEG_clean_sbu_1, # of connection points: 4
#     Node 5, Type 0, BuildingBlock: ICAMEG_clean_sbu_1, # of connection points: 4
#     Node 6, Type 0, BuildingBlock: ICAMEG_clean_sbu_1, # of connection points: 4
#     Node 7, Type 0, BuildingBlock: ICAMEG_clean_sbu_1, # of connection points: 4
#     Node 8, Type 0, BuildingBlock: ICAMEG_clean_sbu_1, # of connection points: 4
#     Node 9, Type 0, BuildingBlock: ICAMEG_clean_sbu_1, # of connection points: 4
#     Node 10, Type 0, BuildingBlock: ICAMEG_clean_sbu_1, # of connection points: 4
#     Node 11, Type 0, BuildingBlock: ICAMEG_clean_sbu_1, # of connection points: 4
#     Edge 12, Type (0, 0), BuildingBlock: XUDNAN_clean_linker_2, # of connection points: 2
#     Edge 13, Type (0, 0), BuildingBlock: XUDNAN_clean_linker_2, # of connection points: 2
#     Edge 14, Type (0, 0), BuildingBlock: XUDNAN_clean_linker_2, # of connection points: 2
#     Edge 15, Type (0, 0), BuildingBlock: XUDNAN_clean_linker_2, # of connection points: 2
#     Edge 16, Type (0, 0), BuildingBlock: XUDNAN_clean_linker_2, # of connection points: 2
#     Edge 17, Type (0, 0), BuildingBlock: XUDNAN_clean_linker_2, # of connection points: 2
#     Edge 18, Type (0, 0), BuildingBlock: XUDNAN_clean_linker_2, # of connection points: 2
#     Edge 19, Type (0, 0), BuildingBlock: XUDNAN_clean_linker_2, # of connection points: 2
#     Edge 20, Type (0, 0), BuildingBlock: XUDNAN_clean_linker_2, # of connection points: 2
#     Edge 21, Type (0, 0), BuildingBlock: XUDNAN_clean_linker_2, # of connection points: 2
#     Edge 22, Type (0, 0), BuildingBlock: XUDNAN_clean_linker_2, # of connection points: 2
#     Edge 23, Type (0, 0), BuildingBlock: XUDNAN_clean_linker_2, # of connection points: 2
#     Edge 24, Type (0, 0), BuildingBlock: XUDNAN_clean_linker_2, # of connection points: 2
#     Edge 25, Type (0, 0), BuildingBlock: XUDNAN_clean_linker_2, # of connection points: 2
#     Edge 26, Type (0, 0), BuildingBlock: XUDNAN_clean_linker_2, # of connection points: 2
#     Edge 27, Type (0, 0), BuildingBlock: XUDNAN_clean_linker_2, # of connection points: 2
#     Edge 28, Type (0, 0), BuildingBlock: XUDNAN_clean_linker_2, # of connection points: 2
#     Edge 29, Type (0, 0), BuildingBlock: XUDNAN_clean_linker_2, # of connection points: 2
#     Edge 30, Type (0, 0), BuildingBlock: XUDNAN_clean_linker_2, # of connection points: 2
#     Edge 31, Type (0, 0), BuildingBlock: XUDNAN_clean_linker_2, # of connection points: 2
#     Edge 32, Type (0, 0), BuildingBlock: XUDNAN_clean_linker_2, # of connection points: 2
#     Edge 33, Type (0, 0), BuildingBlock: XUDNAN_clean_linker_2, # of connection points: 2
#     Edge 34, Type (0, 0), BuildingBlock: XUDNAN_clean_linker_2, # of connection points: 2
#     Edge 35, Type (0, 0), BuildingBlock: XUDNAN_clean_linker_2, # of connection points: 2
# Relax obj value: 0.340
# Max RMSD: 0.222
# Mean RMSD: 0.222
data_MOF--net-uku--node1-ICAMEG_clean_sbu_1--edge1-XUDNAN_clean_linker_2
_symmetry_space_group_name_H-M    P1
_symmetry_Int_Tables_number       1
_symmetry_cell_setting            triclinic
loop_
_symmetry_equiv_pos_as_xyz
'x, y, z'
_cell_length_a     43.306258
_cell_length_b     43.271971
_cell_length_c     43.305839
_cell_angle_alpha  89.993901
_cell_angle_beta   90.011029
_cell_angle_gamma 89.993687
loop_
_atom_site_label
_atom_site_type_symbol
_atom_site_fract_x
_atom_site_fract_y
_atom_site_fract_z
_atom_type_partial_charge
Co0 Co 0.07824 0.15163 0.66855 0.0
Co1 Co 0.11705 0.1927 0.6121 0.0
O2 O 0.08238 0.16706 0.62609 0.0
C3 C 0.06857 0.09608 0.62882 0.0
O4 O 0.0894 0.10636 0.60938 0.0
C5 C 0.06174 0.22782 0.59186 0.0
O6 O 0.04821 0.22149 0.61823 0.0
O7 O 0.11108 0.22182 0.64723 0.0
O8 O 0.09369 0.1915 0.6855 0.0
H9 H 0.2151 0.25317 0.62597 0.0
H10 H 0.02485 0.14828 0.62581 0.0
O11 O 0.06209 0.11116 0.65318 0.0
H12 H 0.98956 0.21239 0.71306 0.0
H13 H 0.02546 0.09448 0.75508 0.0
H14 H 0.11687 0.15536 0.72496 0.0
H15 H 0.04211 0.19046 0.71268 0.0
H16 H 0.03062 0.11459 0.70205 0.0
O17 O 0.08885 0.21817 0.58627 0.0
H18 H 0.17149 0.22059 0.64278 0.0
H19 H 0.13563 0.2199 0.55147 0.0
H20 H 0.11249 0.13597 0.7783 0.0
H21 H 0.97204 0.16957 0.62536 0.0
H22 H 0.06652 0.10527 0.79367 0.0
H23 H 0.9541 0.20195 0.66919 0.0
O24 O 0.12117 0.13491 0.66801 0.0
H25 H 0.081 0.12858 0.52236 0.0
H26 H 0.17123 0.16037 0.58403 0.0
H27 H 0.17827 0.12382 0.54094 0.0
H28 H 0.13293 0.10775 0.50968 0.0
H29 H 0.07499 0.16467 0.566 0.0
H30 H 0.1787 0.25268 0.53374 0.0
H31 H 0.21889 0.26943 0.57109 0.0
O32 O 0.14656 0.16791 0.63707 0.0
C33 C 0.10375 0.21724 0.6754 0.0
C34 C 0.19778 0.24594 0.60946 0.0
C35 C 0.17733 0.2457 0.5577 0.0
N36 N 0.15117 0.21815 0.5981 0.0
C37 C 0.17309 0.22742 0.61882 0.0
C38 C 0.15296 0.22719 0.5679 0.0
C39 C 0.19988 0.25508 0.57867 0.0
C40 C 0.01712 0.16207 0.64512 0.0
N41 N 0.03651 0.16798 0.66931 0.0
C42 C 0.98723 0.17418 0.64467 0.0
C43 C 0.9772 0.1924 0.66924 0.0
C44 C 0.99709 0.19829 0.69385 0.0
C45 C 0.02686 0.18586 0.69347 0.0
C46 C 0.04557 0.10787 0.74868 0.0
C47 C 0.09671 0.14217 0.7315 0.0
C48 C 0.04867 0.11925 0.71865 0.0
N49 N 0.07396 0.13627 0.71044 0.0
C50 C 0.0944 0.13119 0.76173 0.0
C51 C 0.06862 0.11394 0.77032 0.0
C52 C 0.14599 0.14556 0.65621 0.0
C53 C 0.10094 0.1354 0.53579 0.0
C54 C 0.15137 0.15319 0.57082 0.0
C55 C 0.15551 0.13264 0.5463 0.0
C56 C 0.13007 0.12369 0.52873 0.0
N57 N 0.12273 0.1645 0.57769 0.0
C58 C 0.09771 0.15594 0.56046 0.0
Co59 Co 0.92208 0.85949 0.6705 0.0
Co60 Co 0.8856 0.82014 0.61155 0.0
O61 O 0.91961 0.84505 0.62775 0.0
C62 C 0.93223 0.91543 0.63205 0.0
O63 O 0.91045 0.90579 0.61333 0.0
C64 C 0.94083 0.7835 0.59543 0.0
O65 O 0.94934 0.78496 0.6245 0.0
O66 O 0.88959 0.79023 0.6463 0.0
O67 O 0.90565 0.81938 0.68608 0.0
H68 H 0.78688 0.75955 0.6184 0.0
H69 H 0.97711 0.86272 0.62989 0.0
O70 O 0.9391 0.90001 0.65612 0.0
H71 H 0.00819 0.79711 0.71767 0.0
H72 H 0.9716 0.91511 0.75986 0.0
H73 H 0.88139 0.85474 0.72537 0.0
H74 H 0.95601 0.8198 0.71554 0.0
H75 H 0.96837 0.89593 0.70632 0.0
O76 O 0.91558 0.79571 0.58674 0.0
H77 H 0.82946 0.79167 0.63845 0.0
H78 H 0.87056 0.79435 0.54943 0.0
H79 H 0.88382 0.8732 0.77916 0.0
H80 H 0.0296 0.84064 0.63119 0.0
H81 H 0.92917 0.90365 0.79673 0.0
H82 H 0.04541 0.80751 0.67528 0.0
O83 O 0.87935 0.87639 0.66845 0.0
H84 H 0.92581 0.88582 0.5247 0.0
H85 H 0.83296 0.85371 0.58219 0.0
H86 H 0.82792 0.89108 0.53951 0.0
H87 H 0.87458 0.9073 0.51034 0.0
H88 H 0.92984 0.84895 0.5679 0.0
H89 H 0.82856 0.76206 0.52848 0.0
H90 H 0.78627 0.74454 0.56304 0.0
O91 O 0.85486 0.84433 0.63574 0.0
C92 C 0.89577 0.79402 0.67487 0.0
C93 C 0.80513 0.76713 0.60309 0.0
C94 C 0.82854 0.7685 0.55263 0.0
N95 N 0.85232 0.79509 0.59508 0.0
C96 C 0.82924 0.78539 0.61429 0.0
C97 C 0.85229 0.78673 0.56464 0.0
C98 C 0.80481 0.75869 0.57203 0.0
C99 C 0.98392 0.84858 0.6493 0.0
N100 N 0.96358 0.84274 0.6727 0.0
C101 C 0.01363 0.83603 0.64985 0.0
C102 C 0.02247 0.81741 0.67457 0.0
C103 C 0.00159 0.81155 0.69835 0.0
C104 C 0.97206 0.82444 0.697 0.0
C105 C 0.95173 0.90184 0.75249 0.0
C106 C 0.90128 0.86784 0.73286 0.0
C107 C 0.94973 0.891 0.72218 0.0
N108 N 0.92477 0.87413 0.71275 0.0
C109 C 0.90249 0.87829 0.76335 0.0
C110 C 0.92792 0.89539 0.77317 0.0
C111 C 0.85491 0.86616 0.6555 0.0
C112 C 0.9053 0.87893 0.53721 0.0
C113 C 0.85338 0.86092 0.56987 0.0
C114 C 0.85038 0.88195 0.54559 0.0
C115 C 0.87656 0.891 0.5292 0.0
N116 N 0.88165 0.84922 0.57763 0.0
C117 C 0.90741 0.85795 0.56162 0.0
Co118 Co 0.08778 0.85454 0.34078 0.0
Co119 Co 0.12756 0.81297 0.39626 0.0
O120 O 0.09324 0.83975 0.38333 0.0
C121 C 0.07835 0.91078 0.38045 0.0
O122 O 0.09719 0.89973 0.40143 0.0
C123 C 0.07218 0.77953 0.41809 0.0
O124 O 0.05901 0.78497 0.39133 0.0
O125 O 0.11921 0.78349 0.36189 0.0
O126 O 0.10138 0.81396 0.32402 0.0
H127 H 0.22283 0.74885 0.37957 0.0
H128 H 0.03644 0.85957 0.38582 0.0
O129 O 0.07318 0.8959 0.35564 0.0
H130 H 0.99571 0.79564 0.30085 0.0
H131 H 0.03329 0.91124 0.25494 0.0
H132 H 0.12416 0.84859 0.2831 0.0
H133 H 0.04865 0.81642 0.29858 0.0
H134 H 0.0399 0.89217 0.30819 0.0
O135 O 0.09939 0.78902 0.42352 0.0
H136 H 0.17974 0.7827 0.36393 0.0
H137 H 0.14753 0.78599 0.45652 0.0
H138 H 0.11828 0.86689 0.22952 0.0
H139 H 0.9833 0.83943 0.38894 0.0
H140 H 0.07258 0.89848 0.21513 0.0
H141 H 0.96261 0.80713 0.34627 0.0
O142 O 0.13123 0.86992 0.33947 0.0
H143 H 0.09812 0.87882 0.48719 0.0
H144 H 0.18395 0.84418 0.42095 0.0
H145 H 0.19431 0.8808 0.4633 0.0
H146 H 0.15121 0.89828 0.49687 0.0
H147 H 0.08874 0.84267 0.44419 0.0
H148 H 0.19012 0.75197 0.4731 0.0
H149 H 0.22821 0.73327 0.43452 0.0
O150 O 0.15681 0.83625 0.36962 0.0
C151 C 0.11095 0.78801 0.33399 0.0
C152 C 0.20643 0.75693 0.39662 0.0
C153 C 0.18805 0.75864 0.4491 0.0
N154 N 0.16128 0.78649 0.40931 0.0
C155 C 0.18203 0.77616 0.38791 0.0
C156 C 0.16394 0.77784 0.43956 0.0
C157 C 0.20942 0.74817 0.42744 0.0
C158 C 0.02752 0.84585 0.36699 0.0
N159 N 0.04561 0.83936 0.34196 0.0
C160 C 0.99744 0.83438 0.36896 0.0
C161 C 0.98587 0.8162 0.34504 0.0
C162 C 0.00443 0.80972 0.31956 0.0
C163 C 0.03443 0.82151 0.31844 0.0
C164 C 0.05329 0.89746 0.26091 0.0
C165 C 0.10413 0.86219 0.27701 0.0
C166 C 0.05721 0.88668 0.29106 0.0
N167 N 0.08235 0.86917 0.29875 0.0
C168 C 0.10096 0.87255 0.24663 0.0
C169 C 0.07533 0.89029 0.23859 0.0
C170 C 0.15617 0.85839 0.35024 0.0
C171 C 0.1171 0.87137 0.47274 0.0
C172 C 0.16503 0.852 0.43515 0.0
C173 C 0.17106 0.87257 0.45925 0.0
C174 C 0.14688 0.88232 0.47812 0.0
N175 N 0.13575 0.84144 0.42993 0.0
C176 C 0.11195 0.85079 0.44843 0.0
Co177 Co 0.92829 0.14477 0.33182 0.0
Co178 Co 0.88767 0.18268 0.38911 0.0
O179 O 0.92324 0.15898 0.37445 0.0
C180 C 0.93854 0.08888 0.37058 0.0
O181 O 0.91575 0.09777 0.38843 0.0
C182 C 0.94059 0.22154 0.40819 0.0
O183 O 0.95087 0.22072 0.37968 0.0
O184 O 0.8919 0.21279 0.35442 0.0
O185 O 0.91147 0.18443 0.31567 0.0
H186 H 0.78696 0.23921 0.37781 0.0
H187 H 0.9812 0.14283 0.37528 0.0
O188 O 0.94582 0.10459 0.34682 0.0
H189 H 0.01495 0.20983 0.28957 0.0
H190 H 0.98407 0.09112 0.24496 0.0
H191 H 0.89084 0.14941 0.27461 0.0
H192 H 0.96337 0.18571 0.28885 0.0
H193 H 0.9773 0.10959 0.2984 0.0
O194 O 0.91545 0.2082 0.4153 0.0
H195 H 0.83169 0.20892 0.35971 0.0
H196 H 0.86885 0.20782 0.45049 0.0
H197 H 0.8968 0.13166 0.22088 0.0
H198 H 0.03305 0.16633 0.37683 0.0
H199 H 0.9437 0.10225 0.20574 0.0
H200 H 0.05021 0.20015 0.33379 0.0
O201 O 0.88585 0.12673 0.3314 0.0
H202 H 0.9268 0.11827 0.47742 0.0
H203 H 0.83511 0.14739 0.41653 0.0
H204 H 0.82977 0.10972 0.45893 0.0
H205 H 0.87583 0.09502 0.4898 0.0
H206 H 0.93117 0.15536 0.43445 0.0
H207 H 0.82466 0.23831 0.46951 0.0
H208 H 0.78325 0.2541 0.43308 0.0
O209 O 0.85904 0.15738 0.36367 0.0
C210 C 0.89967 0.20925 0.32619 0.0
C211 C 0.80481 0.23238 0.39393 0.0
C212 C 0.82599 0.23192 0.44539 0.0
N213 N 0.85273 0.2064 0.40406 0.0
C214 C 0.83014 0.21516 0.38383 0.0
C215 C 0.851 0.21471 0.43446 0.0
C216 C 0.80276 0.24076 0.42493 0.0
C217 C 0.9886 0.15728 0.35632 0.0
N218 N 0.96935 0.1627 0.33191 0.0
C219 C 0.01795 0.17063 0.35739 0.0
C220 C 0.02754 0.18964 0.33325 0.0
C221 C 0.00777 0.19509 0.30844 0.0
C222 C 0.97856 0.1814 0.30819 0.0
C223 C 0.96352 0.10389 0.25128 0.0
C224 C 0.91133 0.13669 0.26822 0.0
C225 C 0.9595 0.1143 0.28154 0.0
N226 N 0.93367 0.13054 0.28966 0.0
C227 C 0.91457 0.12666 0.23775 0.0
C228 C 0.94087 0.11016 0.22928 0.0
C229 C 0.86059 0.13597 0.34354 0.0
C230 C 0.90655 0.12448 0.46415 0.0
C231 C 0.8553 0.1408 0.42957 0.0
C232 C 0.85212 0.11961 0.45369 0.0
C233 C 0.87796 0.11141 0.47104 0.0
N234 N 0.88342 0.15345 0.42287 0.0
C235 C 0.90885 0.14558 0.43985 0.0
Co236 Co 0.6767 0.07206 0.14922 0.0
Co237 Co 0.61963 0.11253 0.18485 0.0
O238 O 0.63401 0.07593 0.16271 0.0
C239 C 0.64148 0.05119 0.09343 0.0
O240 O 0.62444 0.07629 0.09401 0.0
C241 C 0.59761 0.06027 0.22236 0.0
O242 O 0.62648 0.05111 0.22386 0.0
O243 O 0.65234 0.10669 0.21663 0.0
O244 O 0.69215 0.09586 0.18554 0.0
H245 H 0.63173 0.21313 0.24149 0.0
H246 H 0.63787 0.01615 0.15656 0.0
O247 O 0.66293 0.04719 0.11307 0.0
H248 H 0.72752 0.99955 0.2248 0.0
H249 H 0.76809 0.01634 0.10357 0.0
H250 H 0.72978 0.11518 0.14532 0.0
H251 H 0.72353 0.04677 0.19325 0.0
H252 H 0.71439 0.0211 0.12189 0.0
O253 O 0.59083 0.08545 0.20874 0.0
H254 H 0.64976 0.1674 0.21267 0.0
H255 H 0.5578 0.13391 0.20627 0.0
H256 H 0.78372 0.11133 0.12758 0.0
H257 H 0.64109 0.96841 0.1875 0.0
H258 H 0.80322 0.06163 0.10652 0.0
H259 H 0.68612 0.95992 0.22202 0.0
O260 O 0.67244 0.11109 0.12544 0.0
H261 H 0.53407 0.07738 0.11473 0.0
H262 H 0.59743 0.16619 0.14763 0.0
H263 H 0.55777 0.17345 0.1074 0.0
H264 H 0.52568 0.12887 0.09078 0.0
H265 H 0.57424 0.07105 0.15459 0.0
H266 H 0.53879 0.17912 0.23531 0.0
H267 H 0.57586 0.2192 0.25299 0.0
O268 O 0.64808 0.14023 0.16079 0.0
C269 C 0.68117 0.10317 0.21183 0.0
C270 C 0.61533 0.19588 0.23381 0.0
C271 C 0.56317 0.17677 0.23038 0.0
N272 N 0.60482 0.1482 0.20753 0.0
C273 C 0.6254 0.16999 0.21739 0.0
C274 C 0.57408 0.1512 0.21401 0.0
C275 C 0.58399 0.19926 0.24029 0.0
C276 C 0.65768 0.01249 0.1713 0.0
N277 N 0.68049 0.03424 0.17305 0.0
C278 C 0.65932 0.98546 0.18885 0.0
C279 C 0.68456 0.98074 0.20825 0.0
C280 C 0.70779 0.00297 0.20985 0.0
C281 C 0.70534 0.02973 0.19199 0.0
C282 C 0.75988 0.03811 0.11273 0.0
C283 C 0.7381 0.09342 0.13631 0.0
C284 C 0.72946 0.04097 0.12305 0.0
N285 N 0.71899 0.06834 0.13485 0.0
C286 C 0.76867 0.09141 0.12624 0.0
C287 C 0.77958 0.06352 0.11441 0.0
C288 C 0.66422 0.13728 0.13625 0.0
C289 C 0.54786 0.09701 0.12183 0.0
C290 C 0.58367 0.14663 0.14041 0.0
C291 C 0.56119 0.15091 0.11768 0.0
C292 C 0.54319 0.12589 0.10838 0.0
N293 N 0.58805 0.11825 0.15356 0.0
C294 C 0.57056 0.09359 0.14448 0.0
Co295 Co 0.33319 0.91808 0.1479 0.0
Co296 Co 0.39057 0.87593 0.18354 0.0
O297 O 0.37644 0.9111 0.15886 0.0
C298 C 0.36589 0.92329 0.08763 0.0
O299 O 0.38098 0.89765 0.09354 0.0
C300 C 0.41663 0.93047 0.21538 0.0
O301 O 0.38983 0.94425 0.21209 0.0
O302 O 0.35909 0.88459 0.21605 0.0
O303 O 0.31918 0.90345 0.18897 0.0
H304 H 0.37702 0.77967 0.24698 0.0
H305 H 0.3786 0.96882 0.1402 0.0
O306 O 0.34599 0.93359 0.10659 0.0
H307 H 0.3007 0.00904 0.21285 0.0
H308 H 0.24525 0.97706 0.09963 0.0
H309 H 0.27495 0.88318 0.15695 0.0
H310 H 0.29557 0.95668 0.191 0.0
H311 H 0.29952 0.96817 0.11443 0.0
O312 O 0.42066 0.9031 0.20549 0.0
H313 H 0.35962 0.82385 0.21544 0.0
H314 H 0.45235 0.85399 0.20482 0.0
H315 H 0.2204 0.8913 0.14289 0.0
H316 H 0.38447 0.02141 0.1613 0.0
H317 H 0.20523 0.93853 0.114 0.0
H318 H 0.34538 0.04181 0.19798 0.0
O319 O 0.32938 0.87522 0.1314 0.0
H320 H 0.474 0.90497 0.10835 0.0
H321 H 0.4115 0.81937 0.14999 0.0
H322 H 0.44945 0.80884 0.10887 0.0
H323 H 0.48108 0.85184 0.08781 0.0
H324 H 0.43552 0.91447 0.14924 0.0
H325 H 0.47073 0.8103 0.23646 0.0
H326 H 0.43294 0.7727 0.25767 0.0
O327 O 0.36107 0.84774 0.16204 0.0
C328 C 0.33102 0.89325 0.21384 0.0
C329 C 0.39372 0.79585 0.23778 0.0
C330 C 0.44631 0.81307 0.23192 0.0
N331 N 0.40496 0.84132 0.2081 0.0
C332 C 0.38401 0.82085 0.21984 0.0
C333 C 0.43576 0.8378 0.21408 0.0
C334 C 0.4251 0.79196 0.2438 0.0
C335 C 0.36131 0.97764 0.15588 0.0
N336 N 0.33672 0.9597 0.16426 0.0
C337 C 0.36483 0.0074 0.16786 0.0
C338 C 0.34293 0.0188 0.18849 0.0
C339 C 0.31787 0.00041 0.19687 0.0
C340 C 0.31514 0.97074 0.18448 0.0
C341 C 0.25157 0.9564 0.11223 0.0
C342 C 0.26854 0.90385 0.14449 0.0
C343 C 0.28228 0.95119 0.12059 0.0
N344 N 0.29041 0.92522 0.13662 0.0
C345 C 0.23761 0.90829 0.13654 0.0
C346 C 0.22912 0.93478 0.12031 0.0
C347 C 0.34005 0.84962 0.14147 0.0
C348 C 0.46038 0.88603 0.11735 0.0
C349 C 0.42498 0.83821 0.14077 0.0
C350 C 0.44654 0.8321 0.11759 0.0
C351 C 0.46431 0.85623 0.10581 0.0
N352 N 0.42122 0.86749 0.15196 0.0
C353 C 0.43861 0.89125 0.14057 0.0
Co354 Co 0.66687 0.91832 0.84963 0.0
Co355 Co 0.60915 0.88756 0.80367 0.0
O356 O 0.62448 0.91745 0.8341 0.0
C357 C 0.62581 0.93086 0.90495 0.0
O358 O 0.60056 0.92975 0.88831 0.0
C359 C 0.59621 0.94827 0.77599 0.0
O360 O 0.62531 0.95506 0.7811 0.0
O361 O 0.64489 0.89522 0.77586 0.0
O362 O 0.6832 0.90947 0.80764 0.0
H363 H 0.61716 0.79844 0.72972 0.0
H364 H 0.62446 0.97256 0.85822 0.0
O365 O 0.65238 0.92697 0.89288 0.0
H366 H 0.71623 0.0138 0.8053 0.0
H367 H 0.75521 0.95799 0.91419 0.0
H368 H 0.72203 0.87919 0.83894 0.0
H369 H 0.71328 0.95869 0.81908 0.0
H370 H 0.70192 0.95789 0.89402 0.0
O371 O 0.58584 0.92161 0.78292 0.0
H372 H 0.63652 0.8356 0.76833 0.0
H373 H 0.54803 0.87762 0.77365 0.0
H374 H 0.77556 0.87862 0.85828 0.0
H375 H 0.62661 0.02771 0.84522 0.0
H376 H 0.79247 0.91824 0.8962 0.0
H377 H 0.67273 0.04881 0.81847 0.0
O378 O 0.66511 0.8734 0.85885 0.0
H379 H 0.51799 0.9179 0.8689 0.0
H380 H 0.57973 0.83074 0.82933 0.0
H381 H 0.53531 0.82037 0.86337 0.0
H382 H 0.50401 0.86413 0.88331 0.0
H383 H 0.56293 0.92728 0.8353 0.0
H384 H 0.52777 0.84105 0.73493 0.0
H385 H 0.56241 0.80103 0.71278 0.0
O386 O 0.63244 0.85314 0.82393 0.0
C387 C 0.67301 0.90216 0.78107 0.0
C388 C 0.60181 0.8157 0.73928 0.0
C389 C 0.55165 0.83965 0.74217 0.0
N390 N 0.59335 0.85857 0.77341 0.0
C391 C 0.61262 0.83675 0.76121 0.0
C392 C 0.56326 0.86032 0.76405 0.0
C393 C 0.5711 0.81719 0.72976 0.0
C394 C 0.6449 0.98142 0.84728 0.0
N395 N 0.66902 0.96229 0.84025 0.0
C396 C 0.64587 0.01277 0.83966 0.0
C397 C 0.6717 0.02458 0.82457 0.0
C398 C 0.6961 0.00495 0.81718 0.0
C399 C 0.69429 0.97372 0.82511 0.0
C400 C 0.74813 0.94065 0.89764 0.0
C401 C 0.72925 0.89663 0.85528 0.0
C402 C 0.71797 0.94043 0.8862 0.0
N403 N 0.70893 0.9187 0.86514 0.0
C404 C 0.75958 0.89613 0.86622 0.0
C405 C 0.76903 0.91834 0.88752 0.0
C406 C 0.65235 0.85042 0.8455 0.0
C407 C 0.53146 0.89863 0.86038 0.0
C408 C 0.56651 0.84995 0.83824 0.0
C409 C 0.54124 0.84391 0.85735 0.0
C410 C 0.52365 0.86847 0.86848 0.0
N411 N 0.5741 0.87961 0.83047 0.0
C412 C 0.55689 0.90379 0.84123 0.0
Co413 Co 0.3392 0.07292 0.84318 0.0
Co414 Co 0.38494 0.12769 0.80869 0.0
O415 O 0.37943 0.0888 0.83094 0.0
C416 C 0.34947 0.05979 0.90921 0.0
O417 O 0.32589 0.07804 0.91477 0.0
C418 C 0.41824 0.08133 0.77193 0.0
O419 O 0.39269 0.06501 0.77229 0.0
O420 O 0.35432 0.11498 0.77696 0.0
O421 O 0.31917 0.08921 0.80498 0.0
H422 H 0.34982 0.22328 0.75296 0.0
H423 H 0.39262 0.03005 0.84282 0.0
O424 O 0.35884 0.05599 0.88158 0.0
H425 H 0.31782 0.98527 0.76958 0.0
H426 H 0.26636 0.99315 0.88673 0.0
H427 H 0.27568 0.09832 0.84388 0.0
H428 H 0.30582 0.0336 0.79722 0.0
H429 H 0.31705 0.01336 0.8704 0.0
O430 O 0.41887 0.10798 0.78435 0.0
H431 H 0.3429 0.17452 0.78161 0.0
H432 H 0.44012 0.16261 0.78681 0.0
H433 H 0.22453 0.07896 0.85972 0.0
H434 H 0.40497 0.9811 0.81664 0.0
H435 H 0.21963 0.02602 0.88135 0.0
H436 H 0.36769 0.95858 0.7793 0.0
O437 O 0.33009 0.1126 0.86444 0.0
H438 H 0.47643 0.1127 0.87854 0.0
H439 H 0.39465 0.18495 0.84581 0.0
H440 H 0.4318 0.20099 0.88588 0.0
H441 H 0.47313 0.16478 0.90242 0.0
H442 H 0.43863 0.09748 0.83874 0.0
H443 H 0.4481 0.2111 0.7579 0.0
H444 H 0.40274 0.24186 0.74091 0.0
O445 O 0.35131 0.14806 0.83304 0.0
C446 C 0.32782 0.10255 0.78021 0.0
C447 C 0.36977 0.21013 0.76032 0.0
C448 C 0.42493 0.20327 0.76306 0.0
N449 N 0.39108 0.16589 0.7861 0.0
C450 C 0.366 0.18255 0.77663 0.0
C451 C 0.42027 0.1758 0.77935 0.0
C452 C 0.39947 0.22053 0.75354 0.0
C453 C 0.37599 0.02015 0.82708 0.0
N454 N 0.34843 0.03459 0.82178 0.0
C455 C 0.38325 0.99255 0.81206 0.0
C456 C 0.36229 0.97992 0.79117 0.0
C457 C 0.33432 0.99489 0.7857 0.0
C458 C 0.32772 0.02235 0.80132 0.0
C459 C 0.26818 0.01624 0.8773 0.0
C460 C 0.27373 0.07522 0.85317 0.0
C461 C 0.29682 0.0278 0.86801 0.0
N462 N 0.2993 0.05695 0.85605 0.0
C463 C 0.2447 0.0644 0.86214 0.0
C464 C 0.24198 0.0347 0.87428 0.0
C465 C 0.33392 0.14048 0.85559 0.0
C466 C 0.45858 0.12871 0.87147 0.0
C467 C 0.41248 0.169 0.85297 0.0
C468 C 0.4335 0.17825 0.87562 0.0
C469 C 0.45669 0.15793 0.88488 0.0
N470 N 0.41457 0.14035 0.83982 0.0
C471 C 0.43716 0.12025 0.84888 0.0
Co472 Co 0.13192 0.67551 0.08234 0.0
Co473 Co 0.17342 0.61509 0.1131 0.0
O474 O 0.14524 0.63226 0.08233 0.0
C475 C 0.07456 0.63847 0.07529 0.0
O476 O 0.08508 0.61929 0.09626 0.0
C477 C 0.21977 0.58538 0.07219 0.0
O478 O 0.24116 0.60341 0.0839 0.0
O479 O 0.20393 0.64833 0.10409 0.0
O480 O 0.17376 0.68962 0.09563 0.0
H481 H 0.24847 0.62048 0.20142 0.0
H482 H 0.12299 0.63671 0.02655 0.0
O483 O 0.08978 0.66262 0.06826 0.0
H484 H 0.18651 0.72485 0.99227 0.0
H485 H 0.07451 0.76783 0.04075 0.0
H486 H 0.14208 0.72911 0.12385 0.0
H487 H 0.16925 0.72097 0.04636 0.0
H488 H 0.09226 0.71367 0.04074 0.0
O489 O 0.19163 0.5883 0.08022 0.0
H490 H 0.21188 0.64149 0.16315 0.0
H491 H 0.19621 0.55142 0.12744 0.0
H492 H 0.12519 0.7835 0.12452 0.0
H493 H 0.1395 0.63985 0.97214 0.0
H494 H 0.09109 0.80318 0.08279 0.0
H495 H 0.17152 0.68415 0.95469 0.0
O496 O 0.11897 0.67244 0.12642 0.0
H497 H 0.09868 0.53091 0.08457 0.0
H498 H 0.14546 0.58903 0.17058 0.0
H499 H 0.10703 0.54855 0.18178 0.0
H500 H 0.08346 0.51904 0.13859 0.0
H501 H 0.1367 0.57203 0.0744 0.0
H502 H 0.23273 0.52946 0.16522 0.0
H503 H 0.25912 0.56408 0.20261 0.0
O504 O 0.15526 0.64122 0.14649 0.0
C505 C 0.20005 0.67735 0.10059 0.0
C506 C 0.23709 0.60515 0.18529 0.0
C507 C 0.22826 0.55407 0.16496 0.0
N508 N 0.20184 0.59771 0.14315 0.0
C509 C 0.21631 0.61691 0.16359 0.0
C510 C 0.20762 0.56665 0.1436 0.0
C511 C 0.24306 0.57351 0.18593 0.0
C512 C 0.13675 0.65617 0.0191 0.0
N513 N 0.14497 0.67872 0.03959 0.0
C514 C 0.14611 0.65777 0.98828 0.0
C515 C 0.1641 0.68262 0.97851 0.0
C516 C 0.17253 0.70545 0.99958 0.0
C517 C 0.16275 0.70308 0.03021 0.0
C518 C 0.08935 0.75952 0.05907 0.0
C519 C 0.12737 0.73751 0.10551 0.0
C520 C 0.09939 0.72884 0.05925 0.0
N521 N 0.11825 0.71823 0.08224 0.0
C522 C 0.11782 0.76833 0.10607 0.0
C523 C 0.09868 0.77935 0.08265 0.0
C524 C 0.13319 0.66053 0.14937 0.0
C525 C 0.10881 0.54357 0.1036 0.0
C526 C 0.13503 0.57661 0.15166 0.0
C527 C 0.11342 0.55355 0.15814 0.0
C528 C 0.10025 0.53696 0.1339 0.0
N529 N 0.14333 0.58298 0.12188 0.0
C530 C 0.1305 0.56679 0.098 0.0
Co531 Co 0.1393 0.33549 0.92736 0.0
Co532 Co 0.1924 0.38277 0.89 0.0
O533 O 0.16082 0.37505 0.92182 0.0
C534 C 0.08986 0.38457 0.93665 0.0
O535 O 0.10832 0.40702 0.92813 0.0
C536 C 0.22241 0.39879 0.94892 0.0
O537 O 0.21065 0.37339 0.96056 0.0
O538 O 0.21464 0.34361 0.9 0.0
O539 O 0.17842 0.31251 0.92025 0.0
H540 H 0.25981 0.35472 0.79985 0.0
H541 H 0.13818 0.38484 0.97578 0.0
O542 O 0.09878 0.35653 0.93556 0.0
H543 H 0.17548 0.29131 0.02877 0.0
H544 H 0.06347 0.262 0.97657 0.0
H545 H 0.14131 0.27544 0.89457 0.0
H546 H 0.16214 0.28975 0.97351 0.0
H547 H 0.09133 0.31135 0.97099 0.0
O548 O 0.21828 0.40548 0.92066 0.0
H549 H 0.2201 0.34561 0.83961 0.0
H550 H 0.23172 0.437 0.87348 0.0
H551 H 0.11412 0.22563 0.89948 0.0
H552 H 0.15042 0.38724 0.0311 0.0
H553 H 0.07486 0.21867 0.94072 0.0
H554 H 0.16945 0.3403 0.05805 0.0
O555 O 0.12943 0.33355 0.88227 0.0
H556 H 0.14187 0.48436 0.91483 0.0
H557 H 0.17132 0.41258 0.83153 0.0
H558 H 0.14408 0.46089 0.81853 0.0
H559 H 0.12926 0.49726 0.86036 0.0
H560 H 0.16857 0.43551 0.92679 0.0
H561 H 0.27168 0.44705 0.83415 0.0
H562 H 0.2859 0.40577 0.79693 0.0
O563 O 0.1671 0.36059 0.85872 0.0
C564 C 0.20574 0.31766 0.9107 0.0
C565 C 0.25376 0.37293 0.81588 0.0
C566 C 0.26045 0.42473 0.83517 0.0
N567 N 0.22348 0.39079 0.85874 0.0
C568 C 0.23124 0.36793 0.83841 0.0
C569 C 0.23786 0.41888 0.85743 0.0
C570 C 0.26841 0.40156 0.81428 0.0
C571 C 0.14576 0.36411 0.98726 0.0
N572 N 0.149 0.33705 0.97126 0.0
C573 C 0.15296 0.36569 0.01866 0.0
C574 C 0.16372 0.33939 0.03374 0.0
C575 C 0.16715 0.31192 0.01732 0.0
C576 C 0.15969 0.31121 0.98595 0.0
C577 C 0.08053 0.26475 0.95851 0.0
C578 C 0.12438 0.27256 0.91267 0.0
C579 C 0.09631 0.29269 0.95516 0.0
N580 N 0.11801 0.29629 0.93249 0.0
C581 C 0.109 0.24431 0.9153 0.0
C582 C 0.08695 0.24044 0.93841 0.0
C583 C 0.14329 0.34326 0.85808 0.0
C584 C 0.14815 0.4687 0.89639 0.0
C585 C 0.16449 0.42801 0.84987 0.0
C586 C 0.14929 0.45547 0.84236 0.0
C587 C 0.14105 0.47589 0.86584 0.0
N588 N 0.17125 0.42102 0.87989 0.0
C589 C 0.16338 0.44103 0.903 0.0
Co590 Co 0.84405 0.66638 0.91742 0.0
Co591 Co 0.80883 0.60843 0.87525 0.0
O592 O 0.8323 0.62302 0.9112 0.0
C593 C 0.90187 0.63044 0.92905 0.0
O594 O 0.89392 0.61065 0.90753 0.0
C595 C 0.77462 0.58312 0.92896 0.0
O596 O 0.77807 0.60968 0.9432 0.0
O597 O 0.77661 0.64077 0.8816 0.0
O598 O 0.80366 0.68059 0.90074 0.0
H599 H 0.75007 0.62109 0.776 0.0
H600 H 0.84868 0.62209 0.96949 0.0
O601 O 0.88497 0.65375 0.93493 0.0
H602 H 0.77653 0.7028 0.00486 0.0
H603 H 0.89168 0.7554 0.97535 0.0
H604 H 0.83697 0.72376 0.88063 0.0
H605 H 0.80047 0.70603 0.95332 0.0
H606 H 0.87641 0.70106 0.96757 0.0
O607 O 0.78508 0.57929 0.90182 0.0
H608 H 0.77988 0.63885 0.82116 0.0
H609 H 0.78744 0.5465 0.85359 0.0
H610 H 0.85151 0.77837 0.88763 0.0
H611 H 0.82545 0.61807 0.0213 0.0
H612 H 0.87911 0.79452 0.93528 0.0
H613 H 0.78902 0.6586 0.03927 0.0
O614 O 0.8623 0.6687 0.87515 0.0
H615 H 0.87918 0.5225 0.90911 0.0
H616 H 0.84506 0.58601 0.82099 0.0
H617 H 0.88524 0.54642 0.81309 0.0
H618 H 0.90248 0.51424 0.85736 0.0
H619 H 0.83947 0.56273 0.91605 0.0
H620 H 0.75749 0.52779 0.80891 0.0
H621 H 0.73869 0.56519 0.76966 0.0
O622 O 0.83205 0.63684 0.8475 0.0
C623 C 0.77905 0.66906 0.8895 0.0
C624 C 0.75822 0.60456 0.7929 0.0
C625 C 0.76234 0.5522 0.81139 0.0
N626 N 0.78558 0.59373 0.83988 0.0
C627 C 0.77518 0.61447 0.81848 0.0
C628 C 0.77923 0.56294 0.83668 0.0
C629 C 0.75181 0.57319 0.78937 0.0
C630 C 0.83313 0.64 0.97726 0.0
N631 N 0.82607 0.66434 0.95842 0.0
C632 C 0.81993 0.63752 0.00658 0.0
C633 C 0.79944 0.66023 0.01662 0.0
C634 C 0.79239 0.68502 0.99731 0.0
C635 C 0.80597 0.68668 0.9681 0.0
C636 C 0.87965 0.74866 0.95451 0.0
C637 C 0.84884 0.7306 0.90149 0.0
C638 C 0.87103 0.7179 0.94992 0.0
N639 N 0.85572 0.70923 0.9237 0.0
C640 C 0.85708 0.76156 0.9053 0.0
C641 C 0.87258 0.7706 0.93202 0.0
C642 C 0.85288 0.65756 0.84952 0.0
C643 C 0.87185 0.53635 0.88963 0.0
C644 C 0.85271 0.5724 0.84041 0.0
C645 C 0.87533 0.54986 0.83577 0.0
C646 C 0.88495 0.53177 0.86061 0.0
N647 N 0.84003 0.57683 0.86895 0.0
C648 C 0.84926 0.55909 0.89338 0.0
Co649 Co 0.85517 0.32799 0.076 0.0
Co650 Co 0.80909 0.38164 0.11331 0.0
O651 O 0.83849 0.3697 0.08104 0.0
C652 C 0.91038 0.36991 0.07337 0.0
O653 O 0.89807 0.38827 0.0941 0.0
C654 C 0.77808 0.40026 0.05555 0.0
O655 O 0.78207 0.3719 0.04553 0.0
O656 O 0.78164 0.34575 0.10371 0.0
O657 O 0.81398 0.30962 0.08492 0.0
H658 H 0.73964 0.3639 0.20453 0.0
H659 H 0.86163 0.37543 0.02694 0.0
O660 O 0.89679 0.34507 0.06549 0.0
H661 H 0.80947 0.28732 0.97704 0.0
H662 H 0.92067 0.24582 0.02585 0.0
H663 H 0.84829 0.26934 0.11054 0.0
H664 H 0.82511 0.2845 0.03173 0.0
H665 H 0.89836 0.29796 0.0312 0.0
O666 O 0.78659 0.4077 0.08265 0.0
H667 H 0.77693 0.34895 0.16416 0.0
H668 H 0.77817 0.44095 0.12998 0.0
H669 H 0.8699 0.21681 0.10592 0.0
H670 H 0.84667 0.37915 0.97214 0.0
H671 H 0.90638 0.20477 0.06333 0.0
H672 H 0.82027 0.33493 0.94685 0.0
O673 O 0.86644 0.32601 0.12076 0.0
H674 H 0.87321 0.47491 0.08728 0.0
H675 H 0.83534 0.40807 0.17134 0.0
H676 H 0.86938 0.45204 0.18368 0.0
H677 H 0.88846 0.48591 0.14148 0.0
H678 H 0.83966 0.43034 0.07594 0.0
H679 H 0.74074 0.45686 0.16985 0.0
H680 H 0.72131 0.41821 0.20756 0.0
O681 O 0.83136 0.35614 0.14445 0.0
C682 C 0.78742 0.31858 0.09384 0.0
C683 C 0.748 0.38097 0.18829 0.0
C684 C 0.74858 0.43313 0.16879 0.0
N685 N 0.77986 0.39408 0.14487 0.0
C686 C 0.76917 0.37265 0.16542 0.0
C687 C 0.76972 0.42397 0.14622 0.0
C688 C 0.7377 0.41144 0.18995 0.0
C689 C 0.85031 0.35601 0.01608 0.0
N690 N 0.84413 0.32981 0.03258 0.0
C691 C 0.84184 0.35828 0.98504 0.0
C692 C 0.827 0.33348 0.97087 0.0
C693 C 0.8209 0.30678 0.9878 0.0
C694 C 0.82968 0.30535 0.0188 0.0
C695 C 0.90479 0.25077 0.04449 0.0
C696 C 0.86403 0.26424 0.09185 0.0
C697 C 0.89217 0.2803 0.04771 0.0
N698 N 0.87198 0.28668 0.07113 0.0
C699 C 0.87624 0.23447 0.08939 0.0
C700 C 0.89674 0.22775 0.06552 0.0
C701 C 0.85351 0.33672 0.14504 0.0
C702 C 0.86504 0.46034 0.10588 0.0
C703 C 0.84385 0.42245 0.15283 0.0
C704 C 0.86297 0.44744 0.15997 0.0
C705 C 0.87362 0.46646 0.13629 0.0
N706 N 0.83557 0.41654 0.12296 0.0
C707 C 0.8459 0.43513 0.09962 0.0
H708 H 0.92962 0.21706 0.46993 0.0
H709 H 0.99506 0.25394 0.40354 0.0
H710 H 0.02932 0.26955 0.44647 0.0
H711 H 0.94471 0.27342 0.53413 0.0
H712 H 0.94111 0.24338 0.56276 0.0
H713 H 0.91893 0.24137 0.52757 0.0
H714 H 0.94146 0.18699 0.51637 0.0
H715 H 0.96354 0.18882 0.55141 0.0
H716 H 0.98276 0.18195 0.51513 0.0
H717 H 0.0597 0.27306 0.49504 0.0
H718 H 0.08515 0.26173 0.54467 0.0
H719 H 0.00016 0.22197 0.57954 0.0
C720 C 0.95069 0.22933 0.46434 0.0
C721 C 0.95956 0.23457 0.43336 0.0
C722 C 0.9877 0.24993 0.4271 0.0
C723 C 0.00719 0.25902 0.45135 0.0
C724 C 0.99808 0.2527 0.48163 0.0
C725 C 0.97043 0.23822 0.48817 0.0
C726 C 0.96786 0.22998 0.52206 0.0
C727 C 0.94159 0.24813 0.53754 0.0
C728 C 0.96368 0.19487 0.52647 0.0
C729 C 0.99906 0.24078 0.53344 0.0
C730 C 0.01584 0.25447 0.50989 0.0
C731 C 0.04655 0.26309 0.51381 0.0
C732 C 0.06081 0.25653 0.54206 0.0
C733 C 0.04441 0.24135 0.56594 0.0
C734 C 0.01287 0.23446 0.56198 0.0
H735 H 0.0099 0.78288 0.42756 0.0
H736 H 0.09512 0.74941 0.46813 0.0
H737 H 0.06777 0.73821 0.51675 0.0
H738 H 0.98687 0.82362 0.48934 0.0
H739 H 0.94605 0.81613 0.48626 0.0
H740 H 0.96995 0.81441 0.45242 0.0
H741 H 0.95173 0.75839 0.44171 0.0
H742 H 0.92736 0.76002 0.47544 0.0
H743 H 0.95539 0.72948 0.47147 0.0
H744 H 0.03443 0.7406 0.56338 0.0
H745 H 0.99676 0.75468 0.60389 0.0
H746 H 0.93311 0.78611 0.53304 0.0
C747 C 0.0224 0.77186 0.44622 0.0
C748 C 0.05446 0.7667 0.44409 0.0
C749 C 0.07044 0.75335 0.46933 0.0
C750 C 0.0551 0.7468 0.49699 0.0
C751 C 0.02374 0.75357 0.49898 0.0
C752 C 0.00744 0.76544 0.47413 0.0
C753 C 0.97506 0.7746 0.48351 0.0
C754 C 0.96917 0.80923 0.47754 0.0
C755 C 0.95096 0.7544 0.46705 0.0
C756 C 0.97629 0.76749 0.5177 0.0
C757 C 0.00435 0.75491 0.52613 0.0
C758 C 0.01202 0.74965 0.557 0.0
C759 C 0.99057 0.75783 0.57986 0.0
C760 C 0.96193 0.77123 0.57165 0.0
C761 C 0.95457 0.77538 0.54011 0.0
H762 H 0.42837 0.99242 0.21098 0.0
H763 H 0.46631 0.90615 0.24501 0.0
H764 H 0.51503 0.93265 0.25809 0.0
H765 H 0.49379 0.01518 0.17295 0.0
H766 H 0.4903 0.05594 0.18075 0.0
H767 H 0.45636 0.03206 0.17991 0.0
H768 H 0.44207 0.04982 0.23523 0.0
H769 H 0.47597 0.07399 0.2362 0.0
H770 H 0.4698 0.04556 0.266 0.0
H771 H 0.56161 0.96614 0.26046 0.0
H772 H 0.60307 0.00407 0.25099 0.0
H773 H 0.53541 0.06858 0.21457 0.0
C774 C 0.44655 0.97945 0.22227 0.0
C775 C 0.44354 0.94741 0.22745 0.0
C776 C 0.46817 0.93082 0.24112 0.0
C777 C 0.49586 0.94568 0.24874 0.0
C778 C 0.49856 0.97713 0.24245 0.0
C779 C 0.47455 0.99389 0.2296 0.0
C780 C 0.48473 0.02639 0.22156 0.0
C781 C 0.48108 0.03274 0.18674 0.0
C782 C 0.46709 0.05036 0.24091 0.0
C783 C 0.51841 0.02489 0.23087 0.0
C784 C 0.52579 0.99646 0.24337 0.0
C785 C 0.55603 0.98872 0.25128 0.0
C786 C 0.57944 0.0104 0.24577 0.0
C787 C 0.57249 0.03937 0.23226 0.0
C788 C 0.54144 0.04684 0.2254 0.0
H789 H 0.53452 0.94189 0.76452 0.0
H790 H 0.60845 0.00963 0.76588 0.0
H791 H 0.5705 0.05106 0.75611 0.0
H792 H 0.48484 0.98195 0.70549 0.0
H793 H 0.45006 0.97084 0.72548 0.0
H794 H 0.48352 0.94606 0.72661 0.0
H795 H 0.48279 0.94712 0.78668 0.0
H796 H 0.44904 0.97107 0.78504 0.0
H797 H 0.48251 0.98392 0.80624 0.0
H798 H 0.52426 0.08546 0.75464 0.0
H799 H 0.47349 0.11019 0.76197 0.0
H800 H 0.42964 0.02 0.76148 0.0
C801 C 0.54289 0.96533 0.76188 0.0
C802 C 0.57446 0.97251 0.76581 0.0
C803 C 0.5844 0.00353 0.7627 0.0
C804 C 0.56302 0.02722 0.75706 0.0
C805 C 0.5319 0.01944 0.75425 0.0
C806 C 0.5219 0.98918 0.75629 0.0
C807 C 0.48702 0.98719 0.75583 0.0
C808 C 0.4757 0.97053 0.7266 0.0
C809 C 0.47466 0.97143 0.78522 0.0
C810 C 0.47886 0.02118 0.75496 0.0
C811 C 0.50507 0.03938 0.75339 0.0
C812 C 0.50355 0.07148 0.75519 0.0
C813 C 0.4746 0.08531 0.75945 0.0
C814 C 0.44759 0.06703 0.76205 0.0
C815 C 0.44976 0.03462 0.75891 0.0
H816 H 0.19519 0.41824 0.00155 0.0
H817 H 0.27161 0.43691 0.93991 0.0
H818 H 0.28296 0.48521 0.96849 0.0
H819 H 0.16786 0.49236 0.0008 0.0
H820 H 0.15472 0.49315 0.0403 0.0
H821 H 0.15682 0.45702 0.0199 0.0
H822 H 0.19228 0.43423 0.06233 0.0
H823 H 0.18986 0.47013 0.0833 0.0
H824 H 0.22705 0.45446 0.07309 0.0
H825 H 0.28276 0.5338 0.00114 0.0
H826 H 0.26942 0.57946 0.03318 0.0
H827 H 0.18984 0.53036 0.06914 0.0
C828 C 0.21517 0.4318 0.99506 0.0
C829 C 0.23325 0.42355 0.96935 0.0
C830 C 0.2581 0.44265 0.96017 0.0
C831 C 0.26462 0.47008 0.97619 0.0
C832 C 0.24565 0.4782 0.00091 0.0
C833 C 0.22136 0.4596 0.01022 0.0
C834 C 0.20179 0.47537 0.03445 0.0
C835 C 0.16833 0.47973 0.02317 0.0
C836 C 0.20283 0.45748 0.06511 0.0
C837 C 0.2185 0.50592 0.03694 0.0
C838 C 0.24411 0.50697 0.01796 0.0
C839 C 0.26282 0.53319 0.01619 0.0
C840 C 0.25508 0.55898 0.03434 0.0
C841 C 0.22847 0.55847 0.05325 0.0
C842 C 0.21013 0.53154 0.05456 0.0
H843 H 0.77749 0.57109 0.99097 0.0
H844 H 0.74756 0.53257 0.9035 0.0
H845 H 0.73777 0.48247 0.92874 0.0
H846 H 0.81975 0.50896 0.01326 0.0
H847 H 0.81089 0.5106 0.05389 0.0
H848 H 0.80921 0.54517 0.03096 0.0
H849 H 0.7525 0.55419 0.04769 0.0
H850 H 0.75406 0.51973 0.07106 0.0
H851 H 0.72438 0.52396 0.04217 0.0
H852 H 0.74014 0.43479 0.96069 0.0
H853 H 0.75264 0.39337 0.99794 0.0
H854 H 0.78061 0.46264 0.06486 0.0
C855 C 0.76761 0.55247 0.97749 0.0
C856 C 0.76292 0.55571 0.94542 0.0
C857 C 0.75109 0.53054 0.92819 0.0
C858 C 0.74539 0.50202 0.94233 0.0
C859 C 0.75151 0.49908 0.97374 0.0
C860 C 0.76204 0.5237 0.99124 0.0
C861 C 0.77032 0.51344 0.02364 0.0
C862 C 0.80456 0.51992 0.03083 0.0
C863 C 0.74903 0.52874 0.04755 0.0
C864 C 0.76402 0.47911 0.02115 0.0
C865 C 0.75281 0.47133 0.99233 0.0
C866 C 0.74818 0.44063 0.98362 0.0
C867 C 0.75545 0.41725 0.00486 0.0
C868 C 0.76726 0.42475 0.03439 0.0
C869 C 0.771 0.45614 0.0427 0.0
H870 H 0.15901 0.11302 0.70929 0.0
H871 H 0.2017 0.1523 0.62749 0.0
H872 H 0.25294 0.13956 0.64792 0.0
H873 H 0.21082 0.14385 0.76089 0.0
H874 H 0.21196 0.11131 0.78686 0.0
H875 H 0.17819 0.11813 0.76367 0.0
H876 H 0.18229 0.06293 0.74087 0.0
H877 H 0.21603 0.05584 0.76422 0.0
H878 H 0.21782 0.05068 0.72295 0.0
H879 H 0.29945 0.12981 0.67976 0.0
H880 H 0.33821 0.1221 0.72082 0.0
H881 H 0.26597 0.08929 0.78225 0.0
C882 C 0.17908 0.11799 0.69523 0.0
C883 C 0.17618 0.13335 0.66658 0.0
C884 C 0.20314 0.14026 0.64932 0.0
C885 C 0.23247 0.13309 0.66072 0.0
C886 C 0.2346 0.11896 0.68946 0.0
C887 C 0.20867 0.11123 0.70644 0.0
C888 C 0.21754 0.09907 0.73803 0.0
C889 C 0.20382 0.1193 0.76387 0.0
C890 C 0.20785 0.0651 0.74172 0.0
C891 C 0.25236 0.10221 0.7364 0.0
C892 C 0.26173 0.1134 0.70806 0.0
C893 C 0.29252 0.12046 0.70188 0.0
C894 C 0.31435 0.11614 0.72538 0.0
C895 C 0.30523 0.10491 0.75471 0.0
C896 C 0.27384 0.09748 0.75998 0.0
H897 H 0.73489 0.91492 0.78356 0.0
H898 H 0.66229 0.88608 0.72055 0.0
H899 H 0.70095 0.88052 0.67902 0.0
H900 H 0.78241 0.95717 0.72647 0.0
H901 H 0.81793 0.94417 0.74386 0.0
H902 H 0.78404 0.94971 0.7674 0.0
H903 H 0.78838 0.89327 0.78701 0.0
H904 H 0.82219 0.8876 0.7636 0.0
H905 H 0.78955 0.8621 0.75942 0.0
H906 H 0.74788 0.87203 0.6466 0.0
H907 H 0.79945 0.86063 0.62573 0.0
H908 H 0.84135 0.89635 0.70953 0.0
C909 C 0.72687 0.90803 0.76091 0.0
C910 C 0.69544 0.90107 0.75533 0.0
C911 C 0.68618 0.8917 0.72538 0.0
C912 C 0.70796 0.88858 0.70161 0.0
C913 C 0.7388 0.89518 0.70811 0.0
C914 C 0.74822 0.90484 0.737 0.0
C915 C 0.78299 0.908 0.73879 0.0
C916 C 0.79239 0.94178 0.74446 0.0
C917 C 0.79656 0.88646 0.76367 0.0
C918 C 0.7918 0.89761 0.70663 0.0
C919 C 0.76595 0.89065 0.68921 0.0
C920 C 0.76827 0.87799 0.65977 0.0
C921 C 0.79773 0.87159 0.64811 0.0
C922 C 0.82455 0.87787 0.66584 0.0
C923 C 0.82142 0.89185 0.69514 0.0
H924 H 0.26968 0.90798 0.21633 0.0
H925 H 0.34499 0.87248 0.27241 0.0
H926 H 0.30881 0.86593 0.31611 0.0
H927 H 0.22806 0.94866 0.27813 0.0
H928 H 0.19089 0.93815 0.26259 0.0
H929 H 0.22339 0.94336 0.2371 0.0
H930 H 0.21517 0.88825 0.21518 0.0
H931 H 0.18271 0.88287 0.24051 0.0
H932 H 0.21433 0.8558 0.24128 0.0
H933 H 0.26371 0.85836 0.35141 0.0
H934 H 0.21327 0.84877 0.37544 0.0
H935 H 0.16745 0.88997 0.29629 0.0
C936 C 0.27888 0.89931 0.2379 0.0
C937 C 0.31033 0.89089 0.24094 0.0
C938 C 0.32109 0.87925 0.26955 0.0
C939 C 0.30072 0.87556 0.29451 0.0
C940 C 0.26982 0.88379 0.29048 0.0
C941 C 0.25898 0.89546 0.26288 0.0
C942 C 0.22434 0.90025 0.26358 0.0
C943 C 0.2162 0.93466 0.26016 0.0
C944 C 0.2082 0.88062 0.23867 0.0
C945 C 0.21715 0.88864 0.29571 0.0
C946 C 0.24375 0.87959 0.31094 0.0
C947 C 0.2428 0.86586 0.33994 0.0
C948 C 0.21393 0.86054 0.35342 0.0
C949 C 0.18627 0.86892 0.33794 0.0
C950 C 0.18809 0.88387 0.30902 0.0
H951 H 0.74406 0.09999 0.20831 0.0
H952 H 0.66907 0.11541 0.27316 0.0
H953 H 0.70722 0.12003 0.31552 0.0
H954 H 0.79213 0.05414 0.25884 0.0
H955 H 0.82748 0.07071 0.24437 0.0
H956 H 0.7942 0.06773 0.21954 0.0
H957 H 0.79657 0.12659 0.20872 0.0
H958 H 0.82999 0.1297 0.23321 0.0
H959 H 0.79651 0.15327 0.2407 0.0
H960 H 0.75381 0.12582 0.34985 0.0
H961 H 0.80486 0.13488 0.37315 0.0
H962 H 0.84881 0.11273 0.28588 0.0
C963 C 0.73543 0.10414 0.2314 0.0
C964 C 0.70346 0.1072 0.23741 0.0
C965 C 0.69341 0.11297 0.26799 0.0
C966 C 0.71489 0.11543 0.29218 0.0
C967 C 0.74619 0.11184 0.28537 0.0
C968 C 0.75638 0.10641 0.25568 0.0
C969 C 0.79124 0.1046 0.25407 0.0
C970 C 0.80188 0.07237 0.24359 0.0
C971 C 0.80433 0.13006 0.23294 0.0
C972 C 0.79925 0.11038 0.28755 0.0
C973 C 0.77294 0.11437 0.30524 0.0
C974 C 0.77453 0.12232 0.33632 0.0
C975 C 0.8037 0.12734 0.34937 0.0
C976 C 0.83092 0.12426 0.33143 0.0
C977 C 0.82856 0.11468 0.30038 0.0
H978 H 0.67543 0.19272 0.16421 0.0
H979 H 0.68265 0.14516 0.07631 0.0
H980 H 0.70821 0.19102 0.05383 0.0
H981 H 0.66513 0.27264 0.13377 0.0
H982 H 0.6891 0.28901 0.16362 0.0
H983 H 0.66669 0.25474 0.17134 0.0
H984 H 0.71631 0.22595 0.18832 0.0
H985 H 0.73884 0.26001 0.18066 0.0
H986 H 0.74869 0.22399 0.16222 0.0
H987 H 0.73758 0.23897 0.04258 0.0
H988 H 0.77191 0.28435 0.04398 0.0
H989 H 0.74766 0.30046 0.13966 0.0
C990 C 0.68153 0.1923 0.13997 0.0
C991 C 0.67666 0.16558 0.12181 0.0
C992 C 0.68597 0.1655 0.09051 0.0
C993 C 0.70033 0.19149 0.07754 0.0
C994 C 0.70531 0.21726 0.09624 0.0
C995 C 0.69631 0.21785 0.12683 0.0
C996 C 0.70773 0.24682 0.14292 0.0
C997 C 0.68053 0.267 0.15353 0.0
C998 C 0.72917 0.23869 0.17012 0.0
C999 C 0.72535 0.26205 0.11681 0.0
C1000 C 0.72312 0.24483 0.08996 0.0
C1001 C 0.73921 0.25281 0.06333 0.0
C1002 C 0.7588 0.27848 0.06439 0.0
C1003 C 0.76233 0.29575 0.09189 0.0
C1004 C 0.74475 0.28798 0.11818 0.0
H1005 H 0.20097 0.74031 0.09318 0.0
H1006 H 0.25996 0.66213 0.11536 0.0
H1007 H 0.30373 0.69783 0.12327 0.0
H1008 H 0.25964 0.78653 0.05302 0.0
H1009 H 0.24509 0.82238 0.06845 0.0
H1010 H 0.21915 0.79046 0.0619 0.0
H1011 H 0.2016 0.79289 0.11905 0.0
H1012 H 0.22745 0.82474 0.12578 0.0
H1013 H 0.23013 0.79047 0.14929 0.0
H1014 H 0.33943 0.74211 0.13363 0.0
H1015 H 0.36477 0.79157 0.14539 0.0
H1016 H 0.28303 0.84097 0.11479 0.0
C1017 C 0.22316 0.73051 0.09923 0.0
C1018 C 0.22699 0.69828 0.10349 0.0
C1019 C 0.25643 0.68665 0.11176 0.0
C1020 C 0.28146 0.70675 0.11627 0.0
C1021 C 0.27672 0.73837 0.11219 0.0
C1022 C 0.24834 0.75017 0.10372 0.0
C1023 C 0.24887 0.78517 0.10249 0.0
C1024 C 0.24284 0.79681 0.0695 0.0
C1025 C 0.22564 0.79913 0.12552 0.0
C1026 C 0.28186 0.79129 0.11229 0.0
C1027 C 0.29754 0.76396 0.11762 0.0
C1028 C 0.32758 0.76364 0.12902 0.0
C1029 C 0.34179 0.79194 0.13562 0.0
C1030 C 0.3261 0.82029 0.13067 0.0
C1031 C 0.29591 0.81982 0.11826 0.0
H1032 H 0.77544 0.72979 0.90638 0.0
H1033 H 0.72378 0.65744 0.85983 0.0
H1034 H 0.68276 0.69532 0.8474 0.0
H1035 H 0.70927 0.77171 0.93821 0.0
H1036 H 0.7273 0.80873 0.93194 0.0
H1037 H 0.75073 0.77517 0.93962 0.0
H1038 H 0.78127 0.7849 0.88907 0.0
H1039 H 0.75793 0.81837 0.88119 0.0
H1040 H 0.76066 0.78784 0.85301 0.0
H1041 H 0.64992 0.74267 0.83594 0.0
H1042 H 0.62818 0.79464 0.82678 0.0
H1043 H 0.7018 0.83485 0.8818 0.0
C1044 C 0.75532 0.72156 0.89405 0.0
C1045 C 0.75284 0.69048 0.88424 0.0
C1046 C 0.72615 0.68104 0.86782 0.0
C1047 C 0.70273 0.7024 0.86065 0.0
C1048 C 0.70629 0.73299 0.87028 0.0
C1049 C 0.73189 0.74243 0.88678 0.0
C1050 C 0.73137 0.77682 0.89292 0.0
C1051 C 0.72955 0.78349 0.92774 0.0
C1052 C 0.75946 0.79291 0.87816 0.0
C1053 C 0.7017 0.78553 0.87674 0.0
C1054 C 0.68742 0.75998 0.86395 0.0
C1055 C 0.66068 0.76275 0.84625 0.0
C1056 C 0.64851 0.79241 0.84117 0.0
C1057 C 0.66309 0.81893 0.85376 0.0
C1058 C 0.68974 0.81515 0.8722 0.0
H1059 H 0.32814 0.20135 0.83822 0.0
H1060 H 0.29938 0.13563 0.90844 0.0
H1061 H 0.26798 0.17608 0.93317 0.0
H1062 H 0.33064 0.27019 0.88835 0.0
H1063 H 0.31529 0.29514 0.85874 0.0
H1064 H 0.33825 0.262 0.84824 0.0
H1065 H 0.29395 0.24222 0.81326 0.0
H1066 H 0.27091 0.27525 0.8236 0.0
H1067 H 0.25598 0.23681 0.82947 0.0
H1068 H 0.23646 0.22153 0.94768 0.0
H1069 H 0.20548 0.26898 0.9505 0.0
H1070 H 0.25417 0.30603 0.87115 0.0
C1071 C 0.3157 0.19554 0.85911 0.0
C1072 C 0.31646 0.16525 0.87148 0.0
C1073 C 0.29935 0.1586 0.89856 0.0
C1074 C 0.28151 0.18148 0.91286 0.0
C1075 C 0.28102 0.21092 0.89987 0.0
C1076 C 0.29762 0.21807 0.87361 0.0
C1077 C 0.2912 0.2509 0.86309 0.0
C1078 C 0.3206 0.27073 0.86471 0.0
C1079 C 0.27717 0.2513 0.83043 0.0
C1080 C 0.26785 0.26083 0.88719 0.0
C1081 C 0.26261 0.23745 0.90831 0.0
C1082 C 0.24062 0.24016 0.93154 0.0
C1083 C 0.22304 0.26722 0.93289 0.0
C1084 C 0.22747 0.29132 0.91118 0.0
C1085 C 0.25068 0.28828 0.88843 0.0
H1086 H 0.09271 0.78872 0.27344 0.0
H1087 H 0.1341 0.72935 0.343 0.0
H1088 H 0.13941 0.68793 0.30401 0.0
H1089 H 0.05015 0.72824 0.23228 0.0
H1090 H 0.0572 0.74571 0.19515 0.0
H1091 H 0.05442 0.76957 0.22915 0.0
H1092 H 0.1083 0.79287 0.21739 0.0
H1093 H 0.11117 0.76915 0.1834 0.0
H1094 H 0.14089 0.7674 0.21249 0.0
H1095 H 0.14454 0.65509 0.25637 0.0
H1096 H 0.14938 0.6333 0.20411 0.0
H1097 H 0.10267 0.71364 0.16627 0.0
C1098 C 0.10248 0.76689 0.28079 0.0
C1099 C 0.11286 0.7623 0.31145 0.0
C1100 C 0.12582 0.73341 0.31975 0.0
C1101 C 0.12887 0.70973 0.29778 0.0
C1102 C 0.11858 0.71523 0.26773 0.0
C1103 C 0.10553 0.74307 0.25929 0.0
C1104 C 0.09781 0.74386 0.22519 0.0
C1105 C 0.06281 0.74702 0.22016 0.0
C1106 C 0.11561 0.76985 0.20866 0.0
C1107 C 0.10923 0.71229 0.2155 0.0
C1108 C 0.12097 0.69607 0.2404 0.0
C1109 C 0.13493 0.66733 0.23681 0.0
C1110 C 0.13752 0.65513 0.20695 0.0
C1111 C 0.1261 0.67156 0.18098 0.0
C1112 C 0.11114 0.70021 0.18558 0.0
H1113 H 0.09119 0.21564 0.73745 0.0
H1114 H 0.12551 0.2761 0.66503 0.0
H1115 H 0.13409 0.31713 0.70375 0.0
H1116 H 0.05259 0.27543 0.78356 0.0
H1117 H 0.0635 0.25765 0.8196 0.0
H1118 H 0.05742 0.2341 0.7858 0.0
H1119 H 0.11233 0.21108 0.79179 0.0
H1120 H 0.11854 0.23447 0.82557 0.0
H1121 H 0.1451 0.23671 0.79361 0.0
H1122 H 0.14329 0.34955 0.75067 0.0
H1123 H 0.15321 0.371 0.80228 0.0
H1124 H 0.11179 0.28985 0.84418 0.0
C1125 C 0.10008 0.23763 0.7295 0.0
C1126 C 0.10754 0.24263 0.69805 0.0
C1127 C 0.11948 0.2717 0.6889 0.0
C1128 C 0.12435 0.29518 0.71073 0.0
C1129 C 0.11697 0.28929 0.74152 0.0
C1130 C 0.10503 0.26125 0.75089 0.0
C1131 C 0.10082 0.26008 0.78562 0.0
C1132 C 0.06654 0.25662 0.79414 0.0
C1133 C 0.12037 0.23405 0.79998 0.0
C1134 C 0.11298 0.29166 0.79447 0.0
C1135 C 0.12194 0.3082 0.76864 0.0
C1136 C 0.13591 0.33703 0.77101 0.0
C1137 C 0.14147 0.34903 0.80051 0.0
C1138 C 0.13301 0.3323 0.82737 0.0
C1139 C 0.11794 0.30352 0.82416 0.0
H1140 H 0.88066 0.71407 0.84011 0.0
H1141 H 0.84931 0.63178 0.79204 0.0
H1142 H 0.86077 0.65637 0.74226 0.0
H1143 H 0.84635 0.76632 0.78981 0.0
H1144 H 0.87673 0.79475 0.79121 0.0
H1145 H 0.87063 0.7693 0.8235 0.0
H1146 H 0.92751 0.75102 0.82039 0.0
H1147 H 0.93389 0.77667 0.78822 0.0
H1148 H 0.94232 0.73605 0.78447 0.0
H1149 H 0.87012 0.69145 0.69756 0.0
H1150 H 0.87845 0.73448 0.66106 0.0
H1151 H 0.90272 0.79437 0.7379 0.0
C1152 C 0.87706 0.70088 0.81918 0.0
C1153 C 0.86439 0.6708 0.82014 0.0
C1154 C 0.85928 0.65469 0.79207 0.0
C1155 C 0.86568 0.66848 0.76357 0.0
C1156 C 0.87716 0.69848 0.76338 0.0
C1157 C 0.88302 0.71448 0.79041 0.0
C1158 C 0.89296 0.74736 0.78365 0.0
C1159 C 0.87031 0.7708 0.79788 0.0
C1160 C 0.92615 0.7531 0.79484 0.0
C1161 C 0.89112 0.74741 0.7487 0.0
C1162 C 0.8822 0.71895 0.73746 0.0
C1163 C 0.87753 0.71378 0.70602 0.0
C1164 C 0.8822 0.7384 0.68547 0.0
C1165 C 0.89137 0.76783 0.69648 0.0
C1166 C 0.89598 0.77216 0.72857 0.0
H1167 H 0.91172 0.20927 0.26399 0.0
H1168 H 0.87431 0.26653 0.33746 0.0
H1169 H 0.86251 0.30729 0.29927 0.0
H1170 H 0.94578 0.27153 0.21829 0.0
H1171 H 0.93563 0.25359 0.18211 0.0
H1172 H 0.94334 0.23002 0.21556 0.0
H1173 H 0.88981 0.20394 0.20967 0.0
H1174 H 0.88193 0.22739 0.17626 0.0
H1175 H 0.85559 0.22764 0.20848 0.0
H1176 H 0.85121 0.33988 0.25274 0.0
H1177 H 0.84081 0.36204 0.20153 0.0
H1178 H 0.88633 0.28375 0.15832 0.0
C1179 C 0.90142 0.2305 0.27229 0.0
C1180 C 0.89408 0.23468 0.3039 0.0
C1181 C 0.88031 0.26278 0.31348 0.0
C1182 C 0.87356 0.28609 0.29195 0.0
C1183 C 0.88084 0.281 0.26098 0.0
C1184 C 0.89452 0.25392 0.25118 0.0
C1185 C 0.8985 0.25344 0.2164 0.0
C1186 C 0.93286 0.25207 0.20758 0.0
C1187 C 0.88037 0.22651 0.20186 0.0
C1188 C 0.88445 0.28437 0.20804 0.0
C1189 C 0.87456 0.29993 0.23412 0.0
C1190 C 0.85924 0.32812 0.23221 0.0
C1191 C 0.85346 0.34053 0.2029 0.0
C1192 C 0.86304 0.32487 0.17574 0.0
C1193 C 0.87919 0.29662 0.17854 0.0
H1194 H 0.04231 0.05721 0.67048 0.0
H1195 H 0.0538 0.07183 0.57208 0.0
H1196 H 0.01885 0.02757 0.56161 0.0
H1197 H 0.04158 0.97335 0.66704 0.0
H1198 H 0.01368 0.97001 0.69774 0.0
H1199 H 0.03978 0.00239 0.69684 0.0
H1200 H 0.99315 0.03992 0.69862 0.0
H1201 H 0.9669 0.00766 0.69917 0.0
H1202 H 0.96334 0.03689 0.66971 0.0
H1203 H 0.97933 0.98355 0.56263 0.0
H1204 H 0.94442 0.93975 0.5748 0.0
H1205 H 0.96205 0.95318 0.67247 0.0
C1206 C 0.03768 0.05095 0.6467 0.0
C1207 C 0.0506 0.0679 0.62204 0.0
C1208 C 0.04422 0.05893 0.59127 0.0
C1209 C 0.02427 0.03401 0.58514 0.0
C1210 C 0.0114 0.01813 0.61009 0.0
C1211 C 0.01837 0.02596 0.64024 0.0
C1212 C 0.0022 0.00502 0.66304 0.0
C1213 C 0.02572 0.9866 0.68229 0.0
C1214 C 0.98009 0.02348 0.68385 0.0
C1215 C 0.98469 0.9843 0.64108 0.0
C1216 C 0.98992 0.99235 0.61063 0.0
C1217 C 0.97533 0.9769 0.58638 0.0
C1218 C 0.9554 0.95224 0.59349 0.0
C1219 C 0.9507 0.94309 0.62453 0.0
C1220 C 0.96542 0.95954 0.6485 0.0
H1221 H 0.9721 0.05254 0.33161 0.0
H1222 H 0.94845 0.0644 0.4282 0.0
H1223 H 0.98394 0.0216 0.44201 0.0
H1224 H 0.97535 0.96919 0.33378 0.0
H1225 H 0.00676 0.96705 0.30657 0.0
H1226 H 0.97998 0.99883 0.30489 0.0
H1227 H 0.02557 0.0374 0.30934 0.0
H1228 H 0.05246 0.00571 0.31138 0.0
H1229 H 0.05181 0.03442 0.34153 0.0
H1230 H 0.02427 0.97849 0.44502 0.0
H1231 H 0.06029 0.93475 0.43634 0.0
H1232 H 0.05455 0.95009 0.33753 0.0
C1233 C 0.97432 0.04607 0.35568 0.0
C1234 C 0.95767 0.06181 0.37888 0.0
C1235 C 0.96091 0.0525 0.41006 0.0
C1236 C 0.98117 0.02839 0.41812 0.0
C1237 C 0.99761 0.01361 0.39466 0.0
C1238 C 0.99392 0.0218 0.36401 0.0
C1239 C 0.0132 0.00163 0.34299 0.0
C1240 C 0.99259 0.98307 0.32075 0.0
C1241 C 0.03718 0.02095 0.32527 0.0
C1242 C 0.02849 0.98084 0.36654 0.0
C1243 C 0.01961 0.9883 0.39627 0.0
C1244 C 0.03122 0.97237 0.42181 0.0
C1245 C 0.05182 0.94774 0.4167 0.0
C1246 C 0.06013 0.93907 0.3863 0.0
C1247 C 0.04852 0.95615 0.36105 0.0
H1248 H 0.59538 0.98048 0.9293 0.0
H1249 H 0.65528 0.90378 0.95278 0.0
H1250 H 0.65975 0.92348 0.00612 0.0
H1251 H 0.63838 0.03548 0.96772 0.0
H1252 H 0.60647 0.05871 0.98096 0.0
H1253 H 0.60251 0.03573 0.94658 0.0
H1254 H 0.55461 0.00847 0.96981 0.0
H1255 H 0.55825 0.03159 0.00426 0.0
H1256 H 0.55751 0.99003 0.00703 0.0
H1257 H 0.66262 0.95355 0.05403 0.0
H1258 H 0.66598 0.99342 0.09406 0.0
H1259 H 0.60651 0.05343 0.03979 0.0
C1260 C 0.60841 0.96733 0.94614 0.0
C1261 C 0.62439 0.94024 0.93747 0.0
C1262 C 0.64249 0.92426 0.9594 0.0
C1263 C 0.64508 0.93525 0.98966 0.0
C1264 C 0.62972 0.96245 0.99743 0.0
C1265 C 0.61178 0.97841 0.97638 0.0
C1266 C 0.60109 0.0091 0.98966 0.0
C1267 C 0.61283 0.03636 0.97006 0.0
C1268 C 0.56576 0.00983 0.99288 0.0
C1269 C 0.61666 0.00826 0.02104 0.0
C1270 C 0.63249 0.98081 0.02511 0.0
C1271 C 0.65007 0.975 0.0513 0.0
C1272 C 0.65195 0.99798 0.07385 0.0
C1273 C 0.63661 0.02671 0.07005 0.0
C1274 C 0.61827 0.03166 0.04347 0.0
H1275 H 0.34064 0.97875 0.07232 0.0
H1276 H 0.40376 0.90858 0.03837 0.0
H1277 H 0.41068 0.93879 0.99016 0.0
H1278 H 0.30253 0.99208 0.00276 0.0
H1279 H 0.29781 0.03298 0.00912 0.0
H1280 H 0.30045 0.00713 0.04153 0.0
H1281 H 0.34638 0.03889 0.0632 0.0
H1282 H 0.34396 0.06483 0.03073 0.0
H1283 H 0.37983 0.04551 0.03931 0.0
H1284 H 0.40733 0.9755 0.94413 0.0
H1285 H 0.39301 0.01381 0.90429 0.0
H1286 H 0.33211 0.05903 0.96984 0.0
C1287 C 0.35618 0.96968 0.05496 0.0
C1288 C 0.37161 0.9412 0.05909 0.0
C1289 C 0.3917 0.93034 0.03569 0.0
C1290 C 0.39583 0.9474 0.00832 0.0
C1291 C 0.3799 0.97527 0.00496 0.0
C1292 C 0.36054 0.98627 0.02777 0.0
C1293 C 0.3446 0.01582 0.0182 0.0
C1294 C 0.30927 0.01174 0.01787 0.0
C1295 C 0.35429 0.04286 0.0391 0.0
C1296 C 0.35738 0.0195 0.98599 0.0
C1297 C 0.37798 0.99615 0.9788 0.0
C1298 C 0.3915 0.99404 0.94967 0.0
C1299 C 0.38323 0.01595 0.92721 0.0
C1300 C 0.36147 0.03951 0.93397 0.0
C1301 C 0.34898 0.04152 0.96397 0.0
H1302 H 0.93676 0.67343 0.95886 0.0
H1303 H 0.92764 0.57464 0.94468 0.0
H1304 H 0.96955 0.56545 0.98265 0.0
H1305 H 0.02028 0.67352 0.96535 0.0
H1306 H 0.02048 0.70385 0.99388 0.0
H1307 H 0.98993 0.70205 0.96573 0.0
H1308 H 0.94952 0.70139 0.00988 0.0
H1309 H 0.97997 0.70276 0.03818 0.0
H1310 H 0.95188 0.67204 0.03934 0.0
H1311 H 0.01068 0.56751 0.02491 0.0
H1312 H 0.05231 0.58069 0.06192 0.0
H1313 H 0.03585 0.67818 0.04544 0.0
C1314 C 0.94374 0.64985 0.96358 0.0
C1315 C 0.92898 0.6247 0.94896 0.0
C1316 C 0.93886 0.59421 0.95552 0.0
C1317 C 0.96244 0.5888 0.9772 0.0
C1318 C 0.97612 0.61416 0.99168 0.0
C1319 C 0.96751 0.6441 0.98463 0.0
C1320 C 0.98638 0.66745 0.00252 0.0
C1321 C 0.0054 0.68791 0.98056 0.0
C1322 C 0.9657 0.68706 0.02373 0.0
C1323 C 0.00688 0.64602 0.02099 0.0
C1324 C 0.00039 0.61536 0.01481 0.0
C1325 C 0.01607 0.59145 0.02973 0.0
C1326 C 0.03949 0.59914 0.05088 0.0
C1327 C 0.04724 0.63043 0.05649 0.0
C1328 C 0.03044 0.65405 0.04154 0.0
H1329 H 0.04384 0.34406 0.9506 0.0
H1330 H 0.07163 0.43956 0.96328 0.0
H1331 H 0.0283 0.44706 -7e-05 0.0
H1332 H 0.96043 0.35619 0.95641 0.0
H1333 H 0.95486 0.32029 0.97678 0.0
H1334 H 0.98602 0.32405 0.94949 0.0
H1335 H 0.02483 0.30761 0.99197 0.0
H1336 H 0.99394 0.30433 0.01955 0.0
H1337 H 0.02646 0.32905 0.02761 0.0
H1338 H 0.98354 0.44219 0.0389 0.0
H1339 H 0.93975 0.42662 0.07244 0.0
H1340 H 0.94396 0.33408 0.03404 0.0
C1341 C 0.04057 0.36678 0.96059 0.0
C1342 C 0.06112 0.39124 0.954 0.0
C1343 C 0.05598 0.42054 0.9677 0.0
C1344 C 0.03157 0.42494 0.98873 0.0
C1345 C 0.01248 0.39986 0.99563 0.0
C1346 C 0.01657 0.37148 0.98155 0.0
C1347 C 0.99394 0.34776 0.9935 0.0
C1348 C 0.97254 0.33642 0.9675 0.0
C1349 C 0.01081 0.3206 0.00909 0.0
C1350 C 0.97657 0.36703 0.0168 0.0
C1351 C 0.98741 0.39704 0.01783 0.0
C1352 C 0.97481 0.41877 0.03809 0.0
C1353 C 0.9501 0.40968 0.05722 0.0
C1354 C 0.93836 0.37914 0.05591 0.0
C1355 C 0.9522 0.35764 0.03563 0.0
loop_
_geom_bond_atom_site_label_1
_geom_bond_atom_site_label_2
_geom_bond_distance
_geom_bond_site_symmetry_2
_ccdc_geom_bond_type
Co0 O2 2.143 . S
Co0 O8 2.074 . S
Co0 O11 2.093 . S
Co0 O24 2.097 . S
Co0 N41 2.151 . S
Co0 N49 2.214 . S
Co1 O2 2.160 . S
Co1 O7 2.058 . S
Co1 O17 2.057 . S
Co1 O32 2.037 . S
Co1 N36 2.145 . S
Co1 N57 2.257 . S
O2 Co0 2.143 . S
O2 Co1 2.160 . S
C3 O4 1.278 . S
C3 O11 1.224 . S
O4 C3 1.278 . S
C5 O6 1.245 . S
C5 O17 1.232 . S
O6 C5 1.245 . S
O7 Co1 2.058 . S
O7 C33 1.269 . S
O8 Co0 2.074 . S
O8 C33 1.257 . S
H9 C34 0.930 . S
H10 C40 0.930 . S
O11 Co0 2.093 . S
O11 C3 1.224 . S
H12 C44 0.929 . S
H13 C46 0.930 . S
H14 C47 0.930 . S
H15 C45 0.929 . S
H16 C48 0.928 . S
O17 Co1 2.057 . S
O17 C5 1.232 . S
H18 C37 0.929 . S
H19 C38 0.929 . S
H20 C50 0.931 . S
H21 C42 0.929 . S
H22 C51 0.930 . S
H23 C43 0.931 . S
O24 Co0 2.097 . S
O24 C52 1.214 . S
H25 C53 0.929 . S
H26 C54 0.929 . S
H27 C55 0.930 . S
H28 C56 0.929 . S
H29 C58 0.930 . S
H30 C35 0.930 . S
H31 C39 0.930 . S
O32 Co1 2.037 . S
O32 C52 1.234 . S
C33 O7 1.269 . S
C33 O8 1.257 . S
C34 H9 0.930 . S
C34 C37 1.388 . S
C34 C39 1.418 . S
C35 H30 0.930 . S
C35 C38 1.404 . S
C35 C39 1.353 . S
N36 Co1 2.145 . S
N36 C37 1.397 . S
N36 C38 1.334 . S
C37 H18 0.929 . S
C37 C34 1.388 . S
C37 N36 1.397 . S
C38 H19 0.929 . S
C38 C35 1.404 . S
C38 N36 1.334 . S
C39 H31 0.930 . S
C39 C34 1.418 . S
C39 C35 1.353 . S
C40 H10 0.930 . S
C40 N41 1.330 . S
C40 C42 1.446 1_455 S
N41 Co0 2.151 . S
N41 C40 1.330 . S
N41 C45 1.418 . S
C42 H21 0.929 . S
C42 C40 1.446 1_655 S
C42 C43 1.332 . S
C43 H23 0.931 . S
C43 C42 1.332 . S
C43 C44 1.267 . S
C44 H12 0.929 . S
C44 C43 1.267 . S
C44 C45 1.251 1_655 S
C45 H15 0.929 . S
C45 N41 1.418 . S
C45 C44 1.251 1_455 S
C46 H13 0.930 . S
C46 C48 1.406 . S
C46 C51 1.261 . S
C47 H14 0.930 . S
C47 N49 1.325 . S
C47 C50 1.357 . S
C48 H16 0.928 . S
C48 C46 1.406 . S
C48 N49 1.261 . S
N49 Co0 2.214 . S
N49 C47 1.325 . S
N49 C48 1.261 . S
C50 H20 0.931 . S
C50 C47 1.357 . S
C50 C51 1.312 . S
C51 H22 0.930 . S
C51 C46 1.261 . S
C51 C50 1.312 . S
C52 O24 1.214 . S
C52 O32 1.234 . S
C53 H25 0.929 . S
C53 C56 1.391 . S
C53 C58 1.391 . S
C54 H26 0.929 . S
C54 C55 1.390 . S
C54 N57 1.391 . S
C55 H27 0.930 . S
C55 C54 1.390 . S
C55 C56 1.392 . S
C56 H28 0.929 . S
C56 C53 1.391 . S
C56 C55 1.392 . S
N57 Co1 2.257 . S
N57 C54 1.391 . S
N57 C58 1.388 . S
C58 H29 0.930 . S
C58 C53 1.391 . S
C58 N57 1.388 . S
Co59 O61 2.143 . S
Co59 O67 2.074 . S
Co59 O70 2.093 . S
Co59 O83 2.097 . S
Co59 N100 2.151 . S
Co59 N108 2.214 . S
Co60 O61 2.160 . S
Co60 O66 2.058 . S
Co60 O76 2.057 . S
Co60 O91 2.037 . S
Co60 N95 2.145 . S
Co60 N116 2.257 . S
O61 Co59 2.143 . S
O61 Co60 2.160 . S
C62 O63 1.278 . S
C62 O70 1.224 . S
O63 C62 1.278 . S
C64 O65 1.245 . S
C64 O76 1.232 . S
O65 C64 1.245 . S
O66 Co60 2.058 . S
O66 C92 1.269 . S
O67 Co59 2.074 . S
O67 C92 1.257 . S
H68 C93 0.930 . S
H69 C99 0.930 . S
O70 Co59 2.093 . S
O70 C62 1.224 . S
H71 C103 0.929 . S
H72 C105 0.930 . S
H73 C106 0.930 . S
H74 C104 0.929 . S
H75 C107 0.928 . S
O76 Co60 2.057 . S
O76 C64 1.232 . S
H77 C96 0.929 . S
H78 C97 0.929 . S
H79 C109 0.931 . S
H80 C101 0.929 . S
H81 C110 0.930 . S
H82 C102 0.931 . S
O83 Co59 2.097 . S
O83 C111 1.214 . S
H84 C112 0.929 . S
H85 C113 0.929 . S
H86 C114 0.930 . S
H87 C115 0.929 . S
H88 C117 0.930 . S
H89 C94 0.930 . S
H90 C98 0.930 . S
O91 Co60 2.037 . S
O91 C111 1.234 . S
C92 O66 1.269 . S
C92 O67 1.257 . S
C93 H68 0.930 . S
C93 C96 1.388 . S
C93 C98 1.418 . S
C94 H89 0.930 . S
C94 C97 1.404 . S
C94 C98 1.353 . S
N95 Co60 2.145 . S
N95 C96 1.397 . S
N95 C97 1.334 . S
C96 H77 0.929 . S
C96 C93 1.388 . S
C96 N95 1.397 . S
C97 H78 0.929 . S
C97 C94 1.404 . S
C97 N95 1.334 . S
C98 H90 0.930 . S
C98 C93 1.418 . S
C98 C94 1.353 . S
C99 H69 0.930 . S
C99 N100 1.330 . S
C99 C101 1.446 1_655 S
N100 Co59 2.151 . S
N100 C99 1.330 . S
N100 C104 1.418 . S
C101 H80 0.929 . S
C101 C99 1.446 1_455 S
C101 C102 1.332 . S
C102 H82 0.931 . S
C102 C101 1.332 . S
C102 C103 1.267 . S
C103 H71 0.929 . S
C103 C102 1.267 . S
C103 C104 1.251 1_455 S
C104 H74 0.929 . S
C104 N100 1.418 . S
C104 C103 1.251 1_655 S
C105 H72 0.930 . S
C105 C107 1.406 . S
C105 C110 1.261 . S
C106 H73 0.930 . S
C106 N108 1.325 . S
C106 C109 1.357 . S
C107 H75 0.928 . S
C107 C105 1.406 . S
C107 N108 1.261 . S
N108 Co59 2.214 . S
N108 C106 1.325 . S
N108 C107 1.261 . S
C109 H79 0.931 . S
C109 C106 1.357 . S
C109 C110 1.312 . S
C110 H81 0.930 . S
C110 C105 1.261 . S
C110 C109 1.312 . S
C111 O83 1.214 . S
C111 O91 1.234 . S
C112 H84 0.929 . S
C112 C115 1.391 . S
C112 C117 1.391 . S
C113 H85 0.929 . S
C113 C114 1.390 . S
C113 N116 1.391 . S
C114 H86 0.930 . S
C114 C113 1.390 . S
C114 C115 1.392 . S
C115 H87 0.929 . S
C115 C112 1.391 . S
C115 C114 1.392 . S
N116 Co60 2.257 . S
N116 C113 1.391 . S
N116 C117 1.388 . S
C117 H88 0.930 . S
C117 C112 1.391 . S
C117 N116 1.388 . S
Co118 O120 2.143 . S
Co118 O126 2.074 . S
Co118 O129 2.093 . S
Co118 O142 2.097 . S
Co118 N159 2.151 . S
Co118 N167 2.214 . S
Co119 O120 2.160 . S
Co119 O125 2.058 . S
Co119 O135 2.057 . S
Co119 O150 2.037 . S
Co119 N154 2.145 . S
Co119 N175 2.257 . S
O120 Co118 2.143 . S
O120 Co119 2.160 . S
C121 O122 1.278 . S
C121 O129 1.224 . S
O122 C121 1.278 . S
C123 O124 1.245 . S
C123 O135 1.232 . S
O124 C123 1.245 . S
O125 Co119 2.058 . S
O125 C151 1.269 . S
O126 Co118 2.074 . S
O126 C151 1.257 . S
H127 C152 0.930 . S
H128 C158 0.930 . S
O129 Co118 2.093 . S
O129 C121 1.224 . S
H130 C162 0.929 . S
H131 C164 0.930 . S
H132 C165 0.930 . S
H133 C163 0.929 . S
H134 C166 0.928 . S
O135 Co119 2.057 . S
O135 C123 1.232 . S
H136 C155 0.929 . S
H137 C156 0.929 . S
H138 C168 0.931 . S
H139 C160 0.929 . S
H140 C169 0.930 . S
H141 C161 0.931 . S
O142 Co118 2.097 . S
O142 C170 1.214 . S
H143 C171 0.929 . S
H144 C172 0.929 . S
H145 C173 0.930 . S
H146 C174 0.929 . S
H147 C176 0.930 . S
H148 C153 0.930 . S
H149 C157 0.930 . S
O150 Co119 2.037 . S
O150 C170 1.234 . S
C151 O125 1.269 . S
C151 O126 1.257 . S
C152 H127 0.930 . S
C152 C155 1.388 . S
C152 C157 1.418 . S
C153 H148 0.930 . S
C153 C156 1.404 . S
C153 C157 1.353 . S
N154 Co119 2.145 . S
N154 C155 1.397 . S
N154 C156 1.334 . S
C155 H136 0.929 . S
C155 C152 1.388 . S
C155 N154 1.397 . S
C156 H137 0.929 . S
C156 C153 1.404 . S
C156 N154 1.334 . S
C157 H149 0.930 . S
C157 C152 1.418 . S
C157 C153 1.353 . S
C158 H128 0.930 . S
C158 N159 1.330 . S
C158 C160 1.446 1_455 S
N159 Co118 2.151 . S
N159 C158 1.330 . S
N159 C163 1.418 . S
C160 H139 0.929 . S
C160 C158 1.446 1_655 S
C160 C161 1.332 . S
C161 H141 0.931 . S
C161 C160 1.332 . S
C161 C162 1.267 . S
C162 H130 0.929 . S
C162 C161 1.267 . S
C162 C163 1.251 1_655 S
C163 H133 0.929 . S
C163 N159 1.418 . S
C163 C162 1.251 1_455 S
C164 H131 0.930 . S
C164 C166 1.406 . S
C164 C169 1.261 . S
C165 H132 0.930 . S
C165 N167 1.325 . S
C165 C168 1.357 . S
C166 H134 0.928 . S
C166 C164 1.406 . S
C166 N167 1.261 . S
N167 Co118 2.214 . S
N167 C165 1.325 . S
N167 C166 1.261 . S
C168 H138 0.931 . S
C168 C165 1.357 . S
C168 C169 1.312 . S
C169 H140 0.930 . S
C169 C164 1.261 . S
C169 C168 1.312 . S
C170 O142 1.214 . S
C170 O150 1.234 . S
C171 H143 0.929 . S
C171 C174 1.391 . S
C171 C176 1.391 . S
C172 H144 0.929 . S
C172 C173 1.390 . S
C172 N175 1.391 . S
C173 H145 0.930 . S
C173 C172 1.390 . S
C173 C174 1.392 . S
C174 H146 0.929 . S
C174 C171 1.391 . S
C174 C173 1.392 . S
N175 Co119 2.257 . S
N175 C172 1.391 . S
N175 C176 1.388 . S
C176 H147 0.930 . S
C176 C171 1.391 . S
C176 N175 1.388 . S
Co177 O179 2.143 . S
Co177 O185 2.074 . S
Co177 O188 2.093 . S
Co177 O201 2.097 . S
Co177 N218 2.151 . S
Co177 N226 2.214 . S
Co178 O179 2.160 . S
Co178 O184 2.058 . S
Co178 O194 2.057 . S
Co178 O209 2.037 . S
Co178 N213 2.145 . S
Co178 N234 2.257 . S
O179 Co177 2.143 . S
O179 Co178 2.160 . S
C180 O181 1.278 . S
C180 O188 1.224 . S
O181 C180 1.278 . S
C182 O183 1.245 . S
C182 O194 1.232 . S
O183 C182 1.245 . S
O184 Co178 2.058 . S
O184 C210 1.269 . S
O185 Co177 2.074 . S
O185 C210 1.257 . S
H186 C211 0.930 . S
H187 C217 0.930 . S
O188 Co177 2.093 . S
O188 C180 1.224 . S
H189 C221 0.929 . S
H190 C223 0.930 . S
H191 C224 0.930 . S
H192 C222 0.929 . S
H193 C225 0.928 . S
O194 Co178 2.057 . S
O194 C182 1.232 . S
H195 C214 0.929 . S
H196 C215 0.929 . S
H197 C227 0.931 . S
H198 C219 0.929 . S
H199 C228 0.930 . S
H200 C220 0.931 . S
O201 Co177 2.097 . S
O201 C229 1.214 . S
H202 C230 0.929 . S
H203 C231 0.929 . S
H204 C232 0.930 . S
H205 C233 0.929 . S
H206 C235 0.930 . S
H207 C212 0.930 . S
H208 C216 0.930 . S
O209 Co178 2.037 . S
O209 C229 1.234 . S
C210 O184 1.269 . S
C210 O185 1.257 . S
C211 H186 0.930 . S
C211 C214 1.388 . S
C211 C216 1.418 . S
C212 H207 0.930 . S
C212 C215 1.404 . S
C212 C216 1.353 . S
N213 Co178 2.145 . S
N213 C214 1.397 . S
N213 C215 1.334 . S
C214 H195 0.929 . S
C214 C211 1.388 . S
C214 N213 1.397 . S
C215 H196 0.929 . S
C215 C212 1.404 . S
C215 N213 1.334 . S
C216 H208 0.930 . S
C216 C211 1.418 . S
C216 C212 1.353 . S
C217 H187 0.930 . S
C217 N218 1.330 . S
C217 C219 1.446 1_655 S
N218 Co177 2.151 . S
N218 C217 1.330 . S
N218 C222 1.418 . S
C219 H198 0.929 . S
C219 C217 1.446 1_455 S
C219 C220 1.332 . S
C220 H200 0.931 . S
C220 C219 1.332 . S
C220 C221 1.267 . S
C221 H189 0.929 . S
C221 C220 1.267 . S
C221 C222 1.251 1_455 S
C222 H192 0.929 . S
C222 N218 1.418 . S
C222 C221 1.251 1_655 S
C223 H190 0.930 . S
C223 C225 1.406 . S
C223 C228 1.261 . S
C224 H191 0.930 . S
C224 N226 1.325 . S
C224 C227 1.357 . S
C225 H193 0.928 . S
C225 C223 1.406 . S
C225 N226 1.261 . S
N226 Co177 2.214 . S
N226 C224 1.325 . S
N226 C225 1.261 . S
C227 H197 0.931 . S
C227 C224 1.357 . S
C227 C228 1.312 . S
C228 H199 0.930 . S
C228 C223 1.261 . S
C228 C227 1.312 . S
C229 O201 1.214 . S
C229 O209 1.234 . S
C230 H202 0.929 . S
C230 C233 1.391 . S
C230 C235 1.391 . S
C231 H203 0.929 . S
C231 C232 1.390 . S
C231 N234 1.391 . S
C232 H204 0.930 . S
C232 C231 1.390 . S
C232 C233 1.392 . S
C233 H205 0.929 . S
C233 C230 1.391 . S
C233 C232 1.392 . S
N234 Co178 2.257 . S
N234 C231 1.391 . S
N234 C235 1.388 . S
C235 H206 0.930 . S
C235 C230 1.391 . S
C235 N234 1.388 . S
Co236 O238 2.143 . S
Co236 O244 2.074 . S
Co236 O247 2.093 . S
Co236 O260 2.097 . S
Co236 N277 2.151 . S
Co236 N285 2.214 . S
Co237 O238 2.160 . S
Co237 O243 2.058 . S
Co237 O253 2.057 . S
Co237 O268 2.037 . S
Co237 N272 2.145 . S
Co237 N293 2.257 . S
O238 Co236 2.143 . S
O238 Co237 2.160 . S
C239 O240 1.278 . S
C239 O247 1.224 . S
O240 C239 1.278 . S
C241 O242 1.245 . S
C241 O253 1.232 . S
O242 C241 1.245 . S
O243 Co237 2.058 . S
O243 C269 1.269 . S
O244 Co236 2.074 . S
O244 C269 1.257 . S
H245 C270 0.930 . S
H246 C276 0.930 . S
O247 Co236 2.093 . S
O247 C239 1.224 . S
H248 C280 0.929 . S
H249 C282 0.930 . S
H250 C283 0.930 . S
H251 C281 0.929 . S
H252 C284 0.928 . S
O253 Co237 2.057 . S
O253 C241 1.232 . S
H254 C273 0.929 . S
H255 C274 0.929 . S
H256 C286 0.931 . S
H257 C278 0.929 . S
H258 C287 0.930 . S
H259 C279 0.931 . S
O260 Co236 2.097 . S
O260 C288 1.214 . S
H261 C289 0.929 . S
H262 C290 0.929 . S
H263 C291 0.930 . S
H264 C292 0.929 . S
H265 C294 0.930 . S
H266 C271 0.930 . S
H267 C275 0.930 . S
O268 Co237 2.037 . S
O268 C288 1.234 . S
C269 O243 1.269 . S
C269 O244 1.257 . S
C270 H245 0.930 . S
C270 C273 1.388 . S
C270 C275 1.418 . S
C271 H266 0.930 . S
C271 C274 1.404 . S
C271 C275 1.353 . S
N272 Co237 2.145 . S
N272 C273 1.397 . S
N272 C274 1.334 . S
C273 H254 0.929 . S
C273 C270 1.388 . S
C273 N272 1.397 . S
C274 H255 0.929 . S
C274 C271 1.404 . S
C274 N272 1.334 . S
C275 H267 0.930 . S
C275 C270 1.418 . S
C275 C271 1.353 . S
C276 H246 0.930 . S
C276 N277 1.330 . S
C276 C278 1.446 1_545 S
N277 Co236 2.151 . S
N277 C276 1.330 . S
N277 C281 1.418 . S
C278 H257 0.929 . S
C278 C276 1.446 1_565 S
C278 C279 1.332 . S
C279 H259 0.931 . S
C279 C278 1.332 . S
C279 C280 1.267 . S
C280 H248 0.929 . S
C280 C279 1.267 . S
C280 C281 1.251 1_565 S
C281 H251 0.929 . S
C281 N277 1.418 . S
C281 C280 1.251 1_545 S
C282 H249 0.930 . S
C282 C284 1.406 . S
C282 C287 1.261 . S
C283 H250 0.930 . S
C283 N285 1.325 . S
C283 C286 1.357 . S
C284 H252 0.928 . S
C284 C282 1.406 . S
C284 N285 1.261 . S
N285 Co236 2.214 . S
N285 C283 1.325 . S
N285 C284 1.261 . S
C286 H256 0.931 . S
C286 C283 1.357 . S
C286 C287 1.312 . S
C287 H258 0.930 . S
C287 C282 1.261 . S
C287 C286 1.312 . S
C288 O260 1.214 . S
C288 O268 1.234 . S
C289 H261 0.929 . S
C289 C292 1.391 . S
C289 C294 1.391 . S
C290 H262 0.929 . S
C290 C291 1.390 . S
C290 N293 1.391 . S
C291 H263 0.930 . S
C291 C290 1.390 . S
C291 C292 1.392 . S
C292 H264 0.929 . S
C292 C289 1.391 . S
C292 C291 1.392 . S
N293 Co237 2.257 . S
N293 C290 1.391 . S
N293 C294 1.388 . S
C294 H265 0.930 . S
C294 C289 1.391 . S
C294 N293 1.388 . S
Co295 O297 2.143 . S
Co295 O303 2.074 . S
Co295 O306 2.093 . S
Co295 O319 2.097 . S
Co295 N336 2.151 . S
Co295 N344 2.214 . S
Co296 O297 2.160 . S
Co296 O302 2.058 . S
Co296 O312 2.057 . S
Co296 O327 2.037 . S
Co296 N331 2.145 . S
Co296 N352 2.257 . S
O297 Co295 2.143 . S
O297 Co296 2.160 . S
C298 O299 1.278 . S
C298 O306 1.224 . S
O299 C298 1.278 . S
C300 O301 1.245 . S
C300 O312 1.232 . S
O301 C300 1.245 . S
O302 Co296 2.058 . S
O302 C328 1.269 . S
O303 Co295 2.074 . S
O303 C328 1.257 . S
H304 C329 0.930 . S
H305 C335 0.930 . S
O306 Co295 2.093 . S
O306 C298 1.224 . S
H307 C339 0.929 . S
H308 C341 0.930 . S
H309 C342 0.930 . S
H310 C340 0.929 . S
H311 C343 0.928 . S
O312 Co296 2.057 . S
O312 C300 1.232 . S
H313 C332 0.929 . S
H314 C333 0.929 . S
H315 C345 0.931 . S
H316 C337 0.929 . S
H317 C346 0.930 . S
H318 C338 0.931 . S
O319 Co295 2.097 . S
O319 C347 1.214 . S
H320 C348 0.929 . S
H321 C349 0.929 . S
H322 C350 0.930 . S
H323 C351 0.929 . S
H324 C353 0.930 . S
H325 C330 0.930 . S
H326 C334 0.930 . S
O327 Co296 2.037 . S
O327 C347 1.234 . S
C328 O302 1.269 . S
C328 O303 1.257 . S
C329 H304 0.930 . S
C329 C332 1.388 . S
C329 C334 1.418 . S
C330 H325 0.930 . S
C330 C333 1.404 . S
C330 C334 1.353 . S
N331 Co296 2.145 . S
N331 C332 1.397 . S
N331 C333 1.334 . S
C332 H313 0.929 . S
C332 C329 1.388 . S
C332 N331 1.397 . S
C333 H314 0.929 . S
C333 C330 1.404 . S
C333 N331 1.334 . S
C334 H326 0.930 . S
C334 C329 1.418 . S
C334 C330 1.353 . S
C335 H305 0.930 . S
C335 N336 1.330 . S
C335 C337 1.446 1_565 S
N336 Co295 2.151 . S
N336 C335 1.330 . S
N336 C340 1.418 . S
C337 H316 0.929 . S
C337 C335 1.446 1_545 S
C337 C338 1.332 . S
C338 H318 0.931 . S
C338 C337 1.332 . S
C338 C339 1.267 . S
C339 H307 0.929 . S
C339 C338 1.267 . S
C339 C340 1.251 1_545 S
C340 H310 0.929 . S
C340 N336 1.418 . S
C340 C339 1.251 1_565 S
C341 H308 0.930 . S
C341 C343 1.406 . S
C341 C346 1.261 . S
C342 H309 0.930 . S
C342 N344 1.325 . S
C342 C345 1.357 . S
C343 H311 0.928 . S
C343 C341 1.406 . S
C343 N344 1.261 . S
N344 Co295 2.214 . S
N344 C342 1.325 . S
N344 C343 1.261 . S
C345 H315 0.931 . S
C345 C342 1.357 . S
C345 C346 1.312 . S
C346 H317 0.930 . S
C346 C341 1.261 . S
C346 C345 1.312 . S
C347 O319 1.214 . S
C347 O327 1.234 . S
C348 H320 0.929 . S
C348 C351 1.391 . S
C348 C353 1.391 . S
C349 H321 0.929 . S
C349 C350 1.390 . S
C349 N352 1.391 . S
C350 H322 0.930 . S
C350 C349 1.390 . S
C350 C351 1.392 . S
C351 H323 0.929 . S
C351 C348 1.391 . S
C351 C350 1.392 . S
N352 Co296 2.257 . S
N352 C349 1.391 . S
N352 C353 1.388 . S
C353 H324 0.930 . S
C353 C348 1.391 . S
C353 N352 1.388 . S
Co354 O356 2.143 . S
Co354 O362 2.074 . S
Co354 O365 2.093 . S
Co354 O378 2.097 . S
Co354 N395 2.151 . S
Co354 N403 2.214 . S
Co355 O356 2.160 . S
Co355 O361 2.058 . S
Co355 O371 2.057 . S
Co355 O386 2.037 . S
Co355 N390 2.145 . S
Co355 N411 2.257 . S
O356 Co354 2.143 . S
O356 Co355 2.160 . S
C357 O358 1.278 . S
C357 O365 1.224 . S
O358 C357 1.278 . S
C359 O360 1.245 . S
C359 O371 1.232 . S
O360 C359 1.245 . S
O361 Co355 2.058 . S
O361 C387 1.269 . S
O362 Co354 2.074 . S
O362 C387 1.257 . S
H363 C388 0.930 . S
H364 C394 0.930 . S
O365 Co354 2.093 . S
O365 C357 1.224 . S
H366 C398 0.929 . S
H367 C400 0.930 . S
H368 C401 0.930 . S
H369 C399 0.929 . S
H370 C402 0.928 . S
O371 Co355 2.057 . S
O371 C359 1.232 . S
H372 C391 0.929 . S
H373 C392 0.929 . S
H374 C404 0.931 . S
H375 C396 0.929 . S
H376 C405 0.930 . S
H377 C397 0.931 . S
O378 Co354 2.097 . S
O378 C406 1.214 . S
H379 C407 0.929 . S
H380 C408 0.929 . S
H381 C409 0.930 . S
H382 C410 0.929 . S
H383 C412 0.930 . S
H384 C389 0.930 . S
H385 C393 0.930 . S
O386 Co355 2.037 . S
O386 C406 1.234 . S
C387 O361 1.269 . S
C387 O362 1.257 . S
C388 H363 0.930 . S
C388 C391 1.388 . S
C388 C393 1.418 . S
C389 H384 0.930 . S
C389 C392 1.404 . S
C389 C393 1.353 . S
N390 Co355 2.145 . S
N390 C391 1.397 . S
N390 C392 1.334 . S
C391 H372 0.929 . S
C391 C388 1.388 . S
C391 N390 1.397 . S
C392 H373 0.929 . S
C392 C389 1.404 . S
C392 N390 1.334 . S
C393 H385 0.930 . S
C393 C388 1.418 . S
C393 C389 1.353 . S
C394 H364 0.930 . S
C394 N395 1.330 . S
C394 C396 1.446 1_565 S
N395 Co354 2.151 . S
N395 C394 1.330 . S
N395 C399 1.418 . S
C396 H375 0.929 . S
C396 C394 1.446 1_545 S
C396 C397 1.332 . S
C397 H377 0.931 . S
C397 C396 1.332 . S
C397 C398 1.267 . S
C398 H366 0.929 . S
C398 C397 1.267 . S
C398 C399 1.251 1_545 S
C399 H369 0.929 . S
C399 N395 1.418 . S
C399 C398 1.251 1_565 S
C400 H367 0.930 . S
C400 C402 1.406 . S
C400 C405 1.261 . S
C401 H368 0.930 . S
C401 N403 1.325 . S
C401 C404 1.357 . S
C402 H370 0.928 . S
C402 C400 1.406 . S
C402 N403 1.261 . S
N403 Co354 2.214 . S
N403 C401 1.325 . S
N403 C402 1.261 . S
C404 H374 0.931 . S
C404 C401 1.357 . S
C404 C405 1.312 . S
C405 H376 0.930 . S
C405 C400 1.261 . S
C405 C404 1.312 . S
C406 O378 1.214 . S
C406 O386 1.234 . S
C407 H379 0.929 . S
C407 C410 1.391 . S
C407 C412 1.391 . S
C408 H380 0.929 . S
C408 C409 1.390 . S
C408 N411 1.391 . S
C409 H381 0.930 . S
C409 C408 1.390 . S
C409 C410 1.392 . S
C410 H382 0.929 . S
C410 C407 1.391 . S
C410 C409 1.392 . S
N411 Co355 2.257 . S
N411 C408 1.391 . S
N411 C412 1.388 . S
C412 H383 0.930 . S
C412 C407 1.391 . S
C412 N411 1.388 . S
Co413 O415 2.143 . S
Co413 O421 2.074 . S
Co413 O424 2.093 . S
Co413 O437 2.097 . S
Co413 N454 2.151 . S
Co413 N462 2.214 . S
Co414 O415 2.160 . S
Co414 O420 2.058 . S
Co414 O430 2.057 . S
Co414 O445 2.037 . S
Co414 N449 2.145 . S
Co414 N470 2.257 . S
O415 Co413 2.143 . S
O415 Co414 2.160 . S
C416 O417 1.278 . S
C416 O424 1.224 . S
O417 C416 1.278 . S
C418 O419 1.245 . S
C418 O430 1.232 . S
O419 C418 1.245 . S
O420 Co414 2.058 . S
O420 C446 1.269 . S
O421 Co413 2.074 . S
O421 C446 1.257 . S
H422 C447 0.930 . S
H423 C453 0.930 . S
O424 Co413 2.093 . S
O424 C416 1.224 . S
H425 C457 0.929 . S
H426 C459 0.930 . S
H427 C460 0.930 . S
H428 C458 0.929 . S
H429 C461 0.928 . S
O430 Co414 2.057 . S
O430 C418 1.232 . S
H431 C450 0.929 . S
H432 C451 0.929 . S
H433 C463 0.931 . S
H434 C455 0.929 . S
H435 C464 0.930 . S
H436 C456 0.931 . S
O437 Co413 2.097 . S
O437 C465 1.214 . S
H438 C466 0.929 . S
H439 C467 0.929 . S
H440 C468 0.930 . S
H441 C469 0.929 . S
H442 C471 0.930 . S
H443 C448 0.930 . S
H444 C452 0.930 . S
O445 Co414 2.037 . S
O445 C465 1.234 . S
C446 O420 1.269 . S
C446 O421 1.257 . S
C447 H422 0.930 . S
C447 C450 1.388 . S
C447 C452 1.418 . S
C448 H443 0.930 . S
C448 C451 1.404 . S
C448 C452 1.353 . S
N449 Co414 2.145 . S
N449 C450 1.397 . S
N449 C451 1.334 . S
C450 H431 0.929 . S
C450 C447 1.388 . S
C450 N449 1.397 . S
C451 H432 0.929 . S
C451 C448 1.404 . S
C451 N449 1.334 . S
C452 H444 0.930 . S
C452 C447 1.418 . S
C452 C448 1.353 . S
C453 H423 0.930 . S
C453 N454 1.330 . S
C453 C455 1.446 1_545 S
N454 Co413 2.151 . S
N454 C453 1.330 . S
N454 C458 1.418 . S
C455 H434 0.929 . S
C455 C453 1.446 1_565 S
C455 C456 1.332 . S
C456 H436 0.931 . S
C456 C455 1.332 . S
C456 C457 1.267 . S
C457 H425 0.929 . S
C457 C456 1.267 . S
C457 C458 1.251 1_565 S
C458 H428 0.929 . S
C458 N454 1.418 . S
C458 C457 1.251 1_545 S
C459 H426 0.930 . S
C459 C461 1.406 . S
C459 C464 1.261 . S
C460 H427 0.930 . S
C460 N462 1.325 . S
C460 C463 1.357 . S
C461 H429 0.928 . S
C461 C459 1.406 . S
C461 N462 1.261 . S
N462 Co413 2.214 . S
N462 C460 1.325 . S
N462 C461 1.261 . S
C463 H433 0.931 . S
C463 C460 1.357 . S
C463 C464 1.312 . S
C464 H435 0.930 . S
C464 C459 1.261 . S
C464 C463 1.312 . S
C465 O437 1.214 . S
C465 O445 1.234 . S
C466 H438 0.929 . S
C466 C469 1.391 . S
C466 C471 1.391 . S
C467 H439 0.929 . S
C467 C468 1.390 . S
C467 N470 1.391 . S
C468 H440 0.930 . S
C468 C467 1.390 . S
C468 C469 1.392 . S
C469 H441 0.929 . S
C469 C466 1.391 . S
C469 C468 1.392 . S
N470 Co414 2.257 . S
N470 C467 1.391 . S
N470 C471 1.388 . S
C471 H442 0.930 . S
C471 C466 1.391 . S
C471 N470 1.388 . S
Co472 O474 2.143 . S
Co472 O480 2.074 . S
Co472 O483 2.093 . S
Co472 O496 2.097 . S
Co472 N513 2.151 . S
Co472 N521 2.214 . S
Co473 O474 2.160 . S
Co473 O479 2.058 . S
Co473 O489 2.057 . S
Co473 O504 2.037 . S
Co473 N508 2.145 . S
Co473 N529 2.257 . S
O474 Co472 2.143 . S
O474 Co473 2.160 . S
C475 O476 1.278 . S
C475 O483 1.224 . S
O476 C475 1.278 . S
C477 O478 1.245 . S
C477 O489 1.232 . S
O478 C477 1.245 . S
O479 Co473 2.058 . S
O479 C505 1.269 . S
O480 Co472 2.074 . S
O480 C505 1.257 . S
H481 C506 0.930 . S
H482 C512 0.930 . S
O483 Co472 2.093 . S
O483 C475 1.224 . S
H484 C516 0.929 . S
H485 C518 0.930 . S
H486 C519 0.930 . S
H487 C517 0.929 . S
H488 C520 0.928 . S
O489 Co473 2.057 . S
O489 C477 1.232 . S
H490 C509 0.929 . S
H491 C510 0.929 . S
H492 C522 0.931 . S
H493 C514 0.929 . S
H494 C523 0.930 . S
H495 C515 0.931 . S
O496 Co472 2.097 . S
O496 C524 1.214 . S
H497 C525 0.929 . S
H498 C526 0.929 . S
H499 C527 0.930 . S
H500 C528 0.929 . S
H501 C530 0.930 . S
H502 C507 0.930 . S
H503 C511 0.930 . S
O504 Co473 2.037 . S
O504 C524 1.234 . S
C505 O479 1.269 . S
C505 O480 1.257 . S
C506 H481 0.930 . S
C506 C509 1.388 . S
C506 C511 1.418 . S
C507 H502 0.930 . S
C507 C510 1.404 . S
C507 C511 1.353 . S
N508 Co473 2.145 . S
N508 C509 1.397 . S
N508 C510 1.334 . S
C509 H490 0.929 . S
C509 C506 1.388 . S
C509 N508 1.397 . S
C510 H491 0.929 . S
C510 C507 1.404 . S
C510 N508 1.334 . S
C511 H503 0.930 . S
C511 C506 1.418 . S
C511 C507 1.353 . S
C512 H482 0.930 . S
C512 N513 1.330 . S
C512 C514 1.446 1_554 S
N513 Co472 2.151 . S
N513 C512 1.330 . S
N513 C517 1.418 . S
C514 H493 0.929 . S
C514 C512 1.446 1_556 S
C514 C515 1.332 . S
C515 H495 0.931 . S
C515 C514 1.332 . S
C515 C516 1.267 . S
C516 H484 0.929 . S
C516 C515 1.267 . S
C516 C517 1.251 1_556 S
C517 H487 0.929 . S
C517 N513 1.418 . S
C517 C516 1.251 1_554 S
C518 H485 0.930 . S
C518 C520 1.406 . S
C518 C523 1.261 . S
C519 H486 0.930 . S
C519 N521 1.325 . S
C519 C522 1.357 . S
C520 H488 0.928 . S
C520 C518 1.406 . S
C520 N521 1.261 . S
N521 Co472 2.214 . S
N521 C519 1.325 . S
N521 C520 1.261 . S
C522 H492 0.931 . S
C522 C519 1.357 . S
C522 C523 1.312 . S
C523 H494 0.930 . S
C523 C518 1.261 . S
C523 C522 1.312 . S
C524 O496 1.214 . S
C524 O504 1.234 . S
C525 H497 0.929 . S
C525 C528 1.391 . S
C525 C530 1.391 . S
C526 H498 0.929 . S
C526 C527 1.390 . S
C526 N529 1.391 . S
C527 H499 0.930 . S
C527 C526 1.390 . S
C527 C528 1.392 . S
C528 H500 0.929 . S
C528 C525 1.391 . S
C528 C527 1.392 . S
N529 Co473 2.257 . S
N529 C526 1.391 . S
N529 C530 1.388 . S
C530 H501 0.930 . S
C530 C525 1.391 . S
C530 N529 1.388 . S
Co531 O533 2.143 . S
Co531 O539 2.074 . S
Co531 O542 2.093 . S
Co531 O555 2.097 . S
Co531 N572 2.151 . S
Co531 N580 2.214 . S
Co532 O533 2.160 . S
Co532 O538 2.058 . S
Co532 O548 2.057 . S
Co532 O563 2.037 . S
Co532 N567 2.145 . S
Co532 N588 2.257 . S
O533 Co531 2.143 . S
O533 Co532 2.160 . S
C534 O535 1.278 . S
C534 O542 1.224 . S
O535 C534 1.278 . S
C536 O537 1.245 . S
C536 O548 1.232 . S
O537 C536 1.245 . S
O538 Co532 2.058 . S
O538 C564 1.269 . S
O539 Co531 2.074 . S
O539 C564 1.257 . S
H540 C565 0.930 . S
H541 C571 0.930 . S
O542 Co531 2.093 . S
O542 C534 1.224 . S
H543 C575 0.929 . S
H544 C577 0.930 . S
H545 C578 0.930 . S
H546 C576 0.929 . S
H547 C579 0.928 . S
O548 Co532 2.057 . S
O548 C536 1.232 . S
H549 C568 0.929 . S
H550 C569 0.929 . S
H551 C581 0.931 . S
H552 C573 0.929 . S
H553 C582 0.930 . S
H554 C574 0.931 . S
O555 Co531 2.097 . S
O555 C583 1.214 . S
H556 C584 0.929 . S
H557 C585 0.929 . S
H558 C586 0.930 . S
H559 C587 0.929 . S
H560 C589 0.930 . S
H561 C566 0.930 . S
H562 C570 0.930 . S
O563 Co532 2.037 . S
O563 C583 1.234 . S
C564 O538 1.269 . S
C564 O539 1.257 . S
C565 H540 0.930 . S
C565 C568 1.388 . S
C565 C570 1.418 . S
C566 H561 0.930 . S
C566 C569 1.404 . S
C566 C570 1.353 . S
N567 Co532 2.145 . S
N567 C568 1.397 . S
N567 C569 1.334 . S
C568 H549 0.929 . S
C568 C565 1.388 . S
C568 N567 1.397 . S
C569 H550 0.929 . S
C569 C566 1.404 . S
C569 N567 1.334 . S
C570 H562 0.930 . S
C570 C565 1.418 . S
C570 C566 1.353 . S
C571 H541 0.930 . S
C571 N572 1.330 . S
C571 C573 1.446 1_556 S
N572 Co531 2.151 . S
N572 C571 1.330 . S
N572 C576 1.418 . S
C573 H552 0.929 . S
C573 C571 1.446 1_554 S
C573 C574 1.332 . S
C574 H554 0.931 . S
C574 C573 1.332 . S
C574 C575 1.267 . S
C575 H543 0.929 . S
C575 C574 1.267 . S
C575 C576 1.251 1_554 S
C576 H546 0.929 . S
C576 N572 1.418 . S
C576 C575 1.251 1_556 S
C577 H544 0.930 . S
C577 C579 1.406 . S
C577 C582 1.261 . S
C578 H545 0.930 . S
C578 N580 1.325 . S
C578 C581 1.357 . S
C579 H547 0.928 . S
C579 C577 1.406 . S
C579 N580 1.261 . S
N580 Co531 2.214 . S
N580 C578 1.325 . S
N580 C579 1.261 . S
C581 H551 0.931 . S
C581 C578 1.357 . S
C581 C582 1.312 . S
C582 H553 0.930 . S
C582 C577 1.261 . S
C582 C581 1.312 . S
C583 O555 1.214 . S
C583 O563 1.234 . S
C584 H556 0.929 . S
C584 C587 1.391 . S
C584 C589 1.391 . S
C585 H557 0.929 . S
C585 C586 1.390 . S
C585 N588 1.391 . S
C586 H558 0.930 . S
C586 C585 1.390 . S
C586 C587 1.392 . S
C587 H559 0.929 . S
C587 C584 1.391 . S
C587 C586 1.392 . S
N588 Co532 2.257 . S
N588 C585 1.391 . S
N588 C589 1.388 . S
C589 H560 0.930 . S
C589 C584 1.391 . S
C589 N588 1.388 . S
Co590 O592 2.143 . S
Co590 O598 2.074 . S
Co590 O601 2.093 . S
Co590 O614 2.097 . S
Co590 N631 2.151 . S
Co590 N639 2.214 . S
Co591 O592 2.160 . S
Co591 O597 2.058 . S
Co591 O607 2.057 . S
Co591 O622 2.037 . S
Co591 N626 2.145 . S
Co591 N647 2.257 . S
O592 Co590 2.143 . S
O592 Co591 2.160 . S
C593 O594 1.278 . S
C593 O601 1.224 . S
O594 C593 1.278 . S
C595 O596 1.245 . S
C595 O607 1.232 . S
O596 C595 1.245 . S
O597 Co591 2.058 . S
O597 C623 1.269 . S
O598 Co590 2.074 . S
O598 C623 1.257 . S
H599 C624 0.930 . S
H600 C630 0.930 . S
O601 Co590 2.093 . S
O601 C593 1.224 . S
H602 C634 0.929 . S
H603 C636 0.930 . S
H604 C637 0.930 . S
H605 C635 0.929 . S
H606 C638 0.928 . S
O607 Co591 2.057 . S
O607 C595 1.232 . S
H608 C627 0.929 . S
H609 C628 0.929 . S
H610 C640 0.931 . S
H611 C632 0.929 . S
H612 C641 0.930 . S
H613 C633 0.931 . S
O614 Co590 2.097 . S
O614 C642 1.214 . S
H615 C643 0.929 . S
H616 C644 0.929 . S
H617 C645 0.930 . S
H618 C646 0.929 . S
H619 C648 0.930 . S
H620 C625 0.930 . S
H621 C629 0.930 . S
O622 Co591 2.037 . S
O622 C642 1.234 . S
C623 O597 1.269 . S
C623 O598 1.257 . S
C624 H599 0.930 . S
C624 C627 1.388 . S
C624 C629 1.418 . S
C625 H620 0.930 . S
C625 C628 1.404 . S
C625 C629 1.353 . S
N626 Co591 2.145 . S
N626 C627 1.397 . S
N626 C628 1.334 . S
C627 H608 0.929 . S
C627 C624 1.388 . S
C627 N626 1.397 . S
C628 H609 0.929 . S
C628 C625 1.404 . S
C628 N626 1.334 . S
C629 H621 0.930 . S
C629 C624 1.418 . S
C629 C625 1.353 . S
C630 H600 0.930 . S
C630 N631 1.330 . S
C630 C632 1.446 1_556 S
N631 Co590 2.151 . S
N631 C630 1.330 . S
N631 C635 1.418 . S
C632 H611 0.929 . S
C632 C630 1.446 1_554 S
C632 C633 1.332 . S
C633 H613 0.931 . S
C633 C632 1.332 . S
C633 C634 1.267 . S
C634 H602 0.929 . S
C634 C633 1.267 . S
C634 C635 1.251 1_554 S
C635 H605 0.929 . S
C635 N631 1.418 . S
C635 C634 1.251 1_556 S
C636 H603 0.930 . S
C636 C638 1.406 . S
C636 C641 1.261 . S
C637 H604 0.930 . S
C637 N639 1.325 . S
C637 C640 1.357 . S
C638 H606 0.928 . S
C638 C636 1.406 . S
C638 N639 1.261 . S
N639 Co590 2.214 . S
N639 C637 1.325 . S
N639 C638 1.261 . S
C640 H610 0.931 . S
C640 C637 1.357 . S
C640 C641 1.312 . S
C641 H612 0.930 . S
C641 C636 1.261 . S
C641 C640 1.312 . S
C642 O614 1.214 . S
C642 O622 1.234 . S
C643 H615 0.929 . S
C643 C646 1.391 . S
C643 C648 1.391 . S
C644 H616 0.929 . S
C644 C645 1.390 . S
C644 N647 1.391 . S
C645 H617 0.930 . S
C645 C644 1.390 . S
C645 C646 1.392 . S
C646 H618 0.929 . S
C646 C643 1.391 . S
C646 C645 1.392 . S
N647 Co591 2.257 . S
N647 C644 1.391 . S
N647 C648 1.388 . S
C648 H619 0.930 . S
C648 C643 1.391 . S
C648 N647 1.388 . S
Co649 O651 2.143 . S
Co649 O657 2.074 . S
Co649 O660 2.093 . S
Co649 O673 2.097 . S
Co649 N690 2.151 . S
Co649 N698 2.214 . S
Co650 O651 2.160 . S
Co650 O656 2.058 . S
Co650 O666 2.057 . S
Co650 O681 2.037 . S
Co650 N685 2.145 . S
Co650 N706 2.257 . S
O651 Co649 2.143 . S
O651 Co650 2.160 . S
C652 O653 1.278 . S
C652 O660 1.224 . S
O653 C652 1.278 . S
C654 O655 1.245 . S
C654 O666 1.232 . S
O655 C654 1.245 . S
O656 Co650 2.058 . S
O656 C682 1.269 . S
O657 Co649 2.074 . S
O657 C682 1.257 . S
H658 C683 0.930 . S
H659 C689 0.930 . S
O660 Co649 2.093 . S
O660 C652 1.224 . S
H661 C693 0.929 . S
H662 C695 0.930 . S
H663 C696 0.930 . S
H664 C694 0.929 . S
H665 C697 0.928 . S
O666 Co650 2.057 . S
O666 C654 1.232 . S
H667 C686 0.929 . S
H668 C687 0.929 . S
H669 C699 0.931 . S
H670 C691 0.929 . S
H671 C700 0.930 . S
H672 C692 0.931 . S
O673 Co649 2.097 . S
O673 C701 1.214 . S
H674 C702 0.929 . S
H675 C703 0.929 . S
H676 C704 0.930 . S
H677 C705 0.929 . S
H678 C707 0.930 . S
H679 C684 0.930 . S
H680 C688 0.930 . S
O681 Co650 2.037 . S
O681 C701 1.234 . S
C682 O656 1.269 . S
C682 O657 1.257 . S
C683 H658 0.930 . S
C683 C686 1.388 . S
C683 C688 1.418 . S
C684 H679 0.930 . S
C684 C687 1.404 . S
C684 C688 1.353 . S
N685 Co650 2.145 . S
N685 C686 1.397 . S
N685 C687 1.334 . S
C686 H667 0.929 . S
C686 C683 1.388 . S
C686 N685 1.397 . S
C687 H668 0.929 . S
C687 C684 1.404 . S
C687 N685 1.334 . S
C688 H680 0.930 . S
C688 C683 1.418 . S
C688 C684 1.353 . S
C689 H659 0.930 . S
C689 N690 1.330 . S
C689 C691 1.446 1_554 S
N690 Co649 2.151 . S
N690 C689 1.330 . S
N690 C694 1.418 . S
C691 H670 0.929 . S
C691 C689 1.446 1_556 S
C691 C692 1.332 . S
C692 H672 0.931 . S
C692 C691 1.332 . S
C692 C693 1.267 . S
C693 H661 0.929 . S
C693 C692 1.267 . S
C693 C694 1.251 1_556 S
C694 H664 0.929 . S
C694 N690 1.418 . S
C694 C693 1.251 1_554 S
C695 H662 0.930 . S
C695 C697 1.406 . S
C695 C700 1.261 . S
C696 H663 0.930 . S
C696 N698 1.325 . S
C696 C699 1.357 . S
C697 H665 0.928 . S
C697 C695 1.406 . S
C697 N698 1.261 . S
N698 Co649 2.214 . S
N698 C696 1.325 . S
N698 C697 1.261 . S
C699 H669 0.931 . S
C699 C696 1.357 . S
C699 C700 1.312 . S
C700 H671 0.930 . S
C700 C695 1.261 . S
C700 C699 1.312 . S
C701 O673 1.214 . S
C701 O681 1.234 . S
C702 H674 0.929 . S
C702 C705 1.391 . S
C702 C707 1.391 . S
C703 H675 0.929 . S
C703 C704 1.390 . S
C703 N706 1.391 . S
C704 H676 0.930 . S
C704 C703 1.390 . S
C704 C705 1.392 . S
C705 H677 0.929 . S
C705 C702 1.391 . S
C705 C704 1.392 . S
N706 Co650 2.257 . S
N706 C703 1.391 . S
N706 C707 1.388 . S
C707 H678 0.930 . S
C707 C702 1.391 . S
C707 N706 1.388 . S
H708 C720 0.930 . S
H709 C722 0.930 . S
H710 C723 0.930 1_455 S
H711 C727 0.959 . S
H712 C727 0.959 . S
H713 C727 0.961 . S
H714 C728 0.960 1_655 S
H715 C728 0.961 . S
H716 C728 0.959 . S
H717 C731 0.929 . S
H718 C732 0.931 . S
H719 C734 0.930 . S
C720 H708 0.930 . S
C720 C721 1.399 . S
C720 C725 1.399 . S
C721 C720 1.399 . S
C721 C722 1.376 . S
C722 H709 0.930 . S
C722 C721 1.376 . S
C722 C723 1.388 . S
C723 H710 0.930 1_655 S
C723 C722 1.388 . S
C723 C724 1.390 . S
C724 C723 1.390 . S
C724 C725 1.394 . S
C724 C730 1.465 1_655 S
C725 C720 1.399 . S
C725 C724 1.394 . S
C725 C726 1.516 . S
C726 C725 1.516 . S
C726 C727 1.502 . S
C726 C728 1.561 1_655 S
C726 C729 1.526 1_655 S
C727 H711 0.959 . S
C727 H712 0.959 . S
C727 H713 0.961 . S
C727 C726 1.502 . S
C728 H714 0.960 1_455 S
C728 H715 0.961 . S
C728 H716 0.959 . S
C728 C726 1.561 1_455 S
C729 C726 1.526 1_455 S
C729 C730 1.396 . S
C729 C734 1.390 . S
C730 C724 1.465 1_455 S
C730 C729 1.396 . S
C730 C731 1.399 . S
C731 H717 0.929 . S
C731 C730 1.399 . S
C731 C732 1.385 . S
C732 H718 0.931 . S
C732 C731 1.385 . S
C732 C733 1.389 . S
C733 C732 1.389 . S
C733 C734 1.387 . S
C734 H719 0.930 . S
C734 C729 1.390 . S
C734 C733 1.387 . S
H735 C747 0.930 . S
H736 C749 0.930 . S
H737 C750 0.930 . S
H738 C754 0.959 . S
H739 C754 0.959 . S
H740 C754 0.961 . S
H741 C755 0.960 . S
H742 C755 0.961 1_655 S
H743 C755 0.959 . S
H744 C758 0.929 1_455 S
H745 C759 0.931 . S
H746 C761 0.930 . S
C747 H735 0.930 . S
C747 C748 1.399 . S
C747 C752 1.399 . S
C748 C747 1.399 . S
C748 C749 1.376 . S
C749 H736 0.930 . S
C749 C748 1.376 . S
C749 C750 1.388 . S
C750 H737 0.930 . S
C750 C749 1.388 . S
C750 C751 1.390 . S
C751 C750 1.390 . S
C751 C752 1.394 . S
C751 C757 1.465 1_455 S
C752 C747 1.399 . S
C752 C751 1.394 . S
C752 C753 1.516 1_455 S
C753 C752 1.516 1_655 S
C753 C754 1.502 . S
C753 C755 1.561 1_655 S
C753 C756 1.526 . S
C754 H738 0.959 . S
C754 H739 0.959 . S
C754 H740 0.961 . S
C754 C753 1.502 . S
C755 H741 0.960 . S
C755 H742 0.961 1_455 S
C755 H743 0.959 . S
C755 C753 1.561 1_455 S
C756 C753 1.526 . S
C756 C757 1.396 . S
C756 C761 1.390 . S
C757 C751 1.465 1_655 S
C757 C756 1.396 . S
C757 C758 1.399 . S
C758 H744 0.929 1_655 S
C758 C757 1.399 . S
C758 C759 1.385 . S
C759 H745 0.931 . S
C759 C758 1.385 . S
C759 C760 1.389 . S
C760 C759 1.389 . S
C760 C761 1.387 . S
C761 H746 0.930 . S
C761 C756 1.390 . S
C761 C760 1.387 . S
H762 C774 0.930 . S
H763 C776 0.930 . S
H764 C777 0.930 . S
H765 C781 0.959 . S
H766 C781 0.959 . S
H767 C781 0.961 . S
H768 C782 0.960 . S
H769 C782 0.961 . S
H770 C782 0.959 . S
H771 C785 0.910 1_565 S
H772 C786 0.931 . S
H773 C788 0.930 . S
C774 H762 0.930 . S
C774 C775 1.399 . S
C774 C779 1.399 . S
C775 C774 1.399 . S
C775 C776 1.376 . S
C776 H763 0.930 . S
C776 C775 1.376 . S
C776 C777 1.388 . S
C777 H764 0.930 . S
C777 C776 1.388 . S
C777 C778 1.390 . S
C778 C777 1.390 . S
C778 C779 1.394 . S
C778 C784 1.465 1_565 S
C779 C774 1.399 . S
C779 C778 1.394 . S
C779 C780 1.516 1_565 S
C780 C779 1.516 1_545 S
C780 C781 1.502 . S
C780 C782 1.561 . S
C780 C783 1.526 . S
C781 H765 0.959 . S
C781 H766 0.959 . S
C781 H767 0.961 . S
C781 C780 1.502 . S
C782 H768 0.960 . S
C782 H769 0.961 . S
C782 H770 0.959 . S
C782 C780 1.561 . S
C783 C780 1.526 . S
C783 C784 1.396 . S
C783 C788 1.390 . S
C784 C778 1.465 1_545 S
C784 C783 1.396 . S
C784 C785 1.400 . S
C785 H771 0.910 1_545 S
C785 C784 1.400 . S
C785 C786 1.404 . S
C786 H772 0.931 . S
C786 C785 1.404 . S
C786 C787 1.389 . S
C787 C786 1.389 . S
C787 C788 1.387 . S
C788 H773 0.930 . S
C788 C783 1.390 . S
C788 C787 1.387 . S
H789 C801 0.930 . S
H790 C803 0.930 . S
H791 C804 0.930 . S
H792 C808 0.959 . S
H793 C808 0.959 . S
H794 C808 0.961 1_565 S
H795 C809 0.960 . S
H796 C809 0.961 . S
H797 C809 0.959 . S
H798 C812 0.929 . S
H799 C813 0.931 . S
H800 C815 0.930 . S
C801 H789 0.930 . S
C801 C802 1.399 . S
C801 C806 1.399 . S
C802 C801 1.399 . S
C802 C803 1.376 . S
C803 H790 0.930 . S
C803 C802 1.376 . S
C803 C804 1.388 . S
C804 H791 0.930 . S
C804 C803 1.388 . S
C804 C805 1.390 . S
C805 C804 1.390 . S
C805 C806 1.394 . S
C805 C811 1.465 1_565 S
C806 C801 1.399 . S
C806 C805 1.394 . S
C806 C807 1.516 . S
C807 C806 1.516 . S
C807 C808 1.502 1_565 S
C807 C809 1.561 . S
C807 C810 1.526 1_565 S
C808 H792 0.959 . S
C808 H793 0.959 . S
C808 H794 0.961 1_545 S
C808 C807 1.502 1_545 S
C809 H795 0.960 . S
C809 H796 0.961 . S
C809 H797 0.959 . S
C809 C807 1.561 . S
C810 C807 1.526 1_545 S
C810 C811 1.396 . S
C810 C815 1.390 . S
C811 C805 1.465 1_545 S
C811 C810 1.396 . S
C811 C812 1.399 . S
C812 H798 0.929 . S
C812 C811 1.399 . S
C812 C813 1.385 . S
C813 H799 0.931 . S
C813 C812 1.385 . S
C813 C814 1.389 . S
C814 C813 1.389 . S
C814 C815 1.387 . S
C815 H800 0.930 . S
C815 C810 1.390 . S
C815 C814 1.387 . S
H816 C828 0.930 . S
H817 C830 0.930 . S
H818 C831 0.930 . S
H819 C835 0.959 . S
H820 C835 0.959 1_554 S
H821 C835 0.961 . S
H822 C836 0.960 . S
H823 C836 0.961 . S
H824 C836 0.959 . S
H825 C839 0.929 . S
H826 C840 0.931 . S
H827 C842 0.930 . S
C828 H816 0.930 . S
C828 C829 1.399 . S
C828 C833 1.399 . S
C829 C828 1.399 . S
C829 C830 1.376 . S
C830 H817 0.930 . S
C830 C829 1.376 . S
C830 C831 1.388 . S
C831 H818 0.930 . S
C831 C830 1.388 . S
C831 C832 1.390 . S
C832 C831 1.390 . S
C832 C833 1.394 . S
C832 C838 1.465 1_556 S
C833 C828 1.399 . S
C833 C832 1.394 . S
C833 C834 1.516 1_556 S
C834 C833 1.516 1_554 S
C834 C835 1.502 1_554 S
C834 C836 1.561 . S
C834 C837 1.526 . S
C835 H819 0.959 . S
C835 H820 0.959 1_556 S
C835 H821 0.961 . S
C835 C834 1.502 1_556 S
C836 H822 0.960 . S
C836 H823 0.961 . S
C836 H824 0.959 . S
C836 C834 1.561 . S
C837 C834 1.526 . S
C837 C838 1.396 . S
C837 C842 1.390 . S
C838 C832 1.465 1_554 S
C838 C837 1.396 . S
C838 C839 1.399 . S
C839 H825 0.929 . S
C839 C838 1.399 . S
C839 C840 1.385 . S
C840 H826 0.931 . S
C840 C839 1.385 . S
C840 C841 1.389 . S
C841 C840 1.389 . S
C841 C842 1.387 . S
C842 H827 0.930 . S
C842 C837 1.390 . S
C842 C841 1.387 . S
H843 C855 0.930 . S
H844 C857 0.930 . S
H845 C858 0.930 . S
H846 C862 0.959 . S
H847 C862 0.959 . S
H848 C862 0.961 . S
H849 C863 0.960 . S
H850 C863 0.961 . S
H851 C863 0.959 . S
H852 C866 0.929 . S
H853 C867 0.931 . S
H854 C869 0.930 . S
C855 H843 0.930 . S
C855 C856 1.399 . S
C855 C860 1.399 . S
C856 C855 1.399 . S
C856 C857 1.376 . S
C857 H844 0.930 . S
C857 C856 1.376 . S
C857 C858 1.388 . S
C858 H845 0.930 . S
C858 C857 1.388 . S
C858 C859 1.390 . S
C859 C858 1.390 . S
C859 C860 1.394 . S
C859 C865 1.466 1_556 S
C860 C855 1.399 . S
C860 C859 1.394 . S
C860 C861 1.516 1_556 S
C861 C860 1.516 1_554 S
C861 C862 1.502 . S
C861 C863 1.561 . S
C861 C864 1.526 . S
C862 H846 0.959 . S
C862 H847 0.959 . S
C862 H848 0.961 . S
C862 C861 1.502 . S
C863 H849 0.960 . S
C863 H850 0.961 . S
C863 H851 0.959 . S
C863 C861 1.561 . S
C864 C861 1.526 . S
C864 C865 1.394 . S
C864 C869 1.390 . S
C865 C859 1.466 1_554 S
C865 C864 1.394 . S
C865 C866 1.399 1_554 S
C866 H852 0.929 . S
C866 C865 1.399 1_556 S
C866 C867 1.385 1_556 S
C867 H853 0.931 . S
C867 C866 1.385 1_554 S
C867 C868 1.389 . S
C868 C867 1.389 . S
C868 C869 1.387 . S
C869 H854 0.930 . S
C869 C864 1.390 . S
C869 C868 1.387 . S
H870 C882 0.930 . S
H871 C884 0.930 . S
H872 C885 0.930 . S
H873 C889 0.959 . S
H874 C889 0.959 . S
H875 C889 0.961 . S
H876 C890 0.960 . S
H877 C890 0.961 . S
H878 C890 0.959 . S
H879 C893 0.929 . S
H880 C894 0.931 . S
H881 C896 0.930 . S
C882 H870 0.930 . S
C882 C883 1.399 . S
C882 C887 1.399 . S
C883 C882 1.399 . S
C883 C884 1.376 . S
C884 H871 0.930 . S
C884 C883 1.376 . S
C884 C885 1.388 . S
C885 H872 0.930 . S
C885 C884 1.388 . S
C885 C886 1.390 . S
C886 C885 1.390 . S
C886 C887 1.394 . S
C886 C892 1.465 . S
C887 C882 1.399 . S
C887 C886 1.394 . S
C887 C888 1.516 . S
C888 C887 1.516 . S
C888 C889 1.502 . S
C888 C890 1.561 . S
C888 C891 1.526 . S
C889 H873 0.959 . S
C889 H874 0.959 . S
C889 H875 0.961 . S
C889 C888 1.502 . S
C890 H876 0.960 . S
C890 H877 0.961 . S
C890 H878 0.959 . S
C890 C888 1.561 . S
C891 C888 1.526 . S
C891 C892 1.396 . S
C891 C896 1.390 . S
C892 C886 1.465 . S
C892 C891 1.396 . S
C892 C893 1.399 . S
C893 H879 0.929 . S
C893 C892 1.399 . S
C893 C894 1.385 . S
C894 H880 0.931 . S
C894 C893 1.385 . S
C894 C895 1.389 . S
C895 C894 1.389 . S
C895 C896 1.387 . S
C896 H881 0.930 . S
C896 C891 1.390 . S
C896 C895 1.387 . S
H897 C909 0.930 . S
H898 C911 0.930 . S
H899 C912 0.930 . S
H900 C916 0.959 . S
H901 C916 0.959 . S
H902 C916 0.961 . S
H903 C917 0.960 . S
H904 C917 0.961 . S
H905 C917 0.959 . S
H906 C920 0.929 . S
H907 C921 0.931 . S
H908 C923 0.930 . S
C909 H897 0.930 . S
C909 C910 1.399 . S
C909 C914 1.399 . S
C910 C909 1.399 . S
C910 C911 1.376 . S
C911 H898 0.930 . S
C911 C910 1.376 . S
C911 C912 1.388 . S
C912 H899 0.930 . S
C912 C911 1.388 . S
C912 C913 1.390 . S
C913 C912 1.390 . S
C913 C914 1.394 . S
C913 C919 1.465 . S
C914 C909 1.399 . S
C914 C913 1.394 . S
C914 C915 1.516 . S
C915 C914 1.516 . S
C915 C916 1.502 . S
C915 C917 1.561 . S
C915 C918 1.526 . S
C916 H900 0.959 . S
C916 H901 0.959 . S
C916 H902 0.961 . S
C916 C915 1.502 . S
C917 H903 0.960 . S
C917 H904 0.961 . S
C917 H905 0.959 . S
C917 C915 1.561 . S
C918 C915 1.526 . S
C918 C919 1.396 . S
C918 C923 1.390 . S
C919 C913 1.465 . S
C919 C918 1.396 . S
C919 C920 1.399 . S
C920 H906 0.929 . S
C920 C919 1.399 . S
C920 C921 1.385 . S
C921 H907 0.931 . S
C921 C920 1.385 . S
C921 C922 1.389 . S
C922 C921 1.389 . S
C922 C923 1.387 . S
C923 H908 0.930 . S
C923 C918 1.390 . S
C923 C922 1.387 . S
H924 C936 0.930 . S
H925 C938 0.930 . S
H926 C939 0.930 . S
H927 C943 0.959 . S
H928 C943 0.959 . S
H929 C943 0.961 . S
H930 C944 0.960 . S
H931 C944 0.961 . S
H932 C944 0.959 . S
H933 C947 0.929 . S
H934 C948 0.931 . S
H935 C950 0.930 . S
C936 H924 0.930 . S
C936 C937 1.399 . S
C936 C941 1.399 . S
C937 C936 1.399 . S
C937 C938 1.376 . S
C938 H925 0.930 . S
C938 C937 1.376 . S
C938 C939 1.388 . S
C939 H926 0.930 . S
C939 C938 1.388 . S
C939 C940 1.390 . S
C940 C939 1.390 . S
C940 C941 1.394 . S
C940 C946 1.465 . S
C941 C936 1.399 . S
C941 C940 1.394 . S
C941 C942 1.516 . S
C942 C941 1.516 . S
C942 C943 1.502 . S
C942 C944 1.561 . S
C942 C945 1.526 . S
C943 H927 0.959 . S
C943 H928 0.959 . S
C943 H929 0.961 . S
C943 C942 1.502 . S
C944 H930 0.960 . S
C944 H931 0.961 . S
C944 H932 0.959 . S
C944 C942 1.561 . S
C945 C942 1.526 . S
C945 C946 1.396 . S
C945 C950 1.390 . S
C946 C940 1.465 . S
C946 C945 1.396 . S
C946 C947 1.399 . S
C947 H933 0.929 . S
C947 C946 1.399 . S
C947 C948 1.385 . S
C948 H934 0.931 . S
C948 C947 1.385 . S
C948 C949 1.389 . S
C949 C948 1.389 . S
C949 C950 1.387 . S
C950 H935 0.930 . S
C950 C945 1.390 . S
C950 C949 1.387 . S
H951 C963 0.930 . S
H952 C965 0.930 . S
H953 C966 0.930 . S
H954 C970 0.959 . S
H955 C970 0.959 . S
H956 C970 0.961 . S
H957 C971 0.960 . S
H958 C971 0.961 . S
H959 C971 0.959 . S
H960 C974 0.929 . S
H961 C975 0.931 . S
H962 C977 0.930 . S
C963 H951 0.930 . S
C963 C964 1.399 . S
C963 C968 1.399 . S
C964 C963 1.399 . S
C964 C965 1.376 . S
C965 H952 0.930 . S
C965 C964 1.376 . S
C965 C966 1.388 . S
C966 H953 0.930 . S
C966 C965 1.388 . S
C966 C967 1.390 . S
C967 C966 1.390 . S
C967 C968 1.394 . S
C967 C973 1.465 . S
C968 C963 1.399 . S
C968 C967 1.394 . S
C968 C969 1.516 . S
C969 C968 1.516 . S
C969 C970 1.502 . S
C969 C971 1.561 . S
C969 C972 1.526 . S
C970 H954 0.959 . S
C970 H955 0.959 . S
C970 H956 0.961 . S
C970 C969 1.502 . S
C971 H957 0.960 . S
C971 H958 0.961 . S
C971 H959 0.959 . S
C971 C969 1.561 . S
C972 C969 1.526 . S
C972 C973 1.396 . S
C972 C977 1.390 . S
C973 C967 1.465 . S
C973 C972 1.396 . S
C973 C974 1.399 . S
C974 H960 0.929 . S
C974 C973 1.399 . S
C974 C975 1.385 . S
C975 H961 0.931 . S
C975 C974 1.385 . S
C975 C976 1.389 . S
C976 C975 1.389 . S
C976 C977 1.387 . S
C977 H962 0.930 . S
C977 C972 1.390 . S
C977 C976 1.387 . S
H978 C990 0.930 . S
H979 C992 0.930 . S
H980 C993 0.930 . S
H981 C997 0.959 . S
H982 C997 0.959 . S
H983 C997 0.961 . S
H984 C998 0.960 . S
H985 C998 0.961 . S
H986 C998 0.959 . S
H987 C1001 0.929 . S
H988 C1002 0.931 . S
H989 C1004 0.930 . S
C990 H978 0.930 . S
C990 C991 1.399 . S
C990 C995 1.399 . S
C991 C990 1.399 . S
C991 C992 1.376 . S
C992 H979 0.930 . S
C992 C991 1.376 . S
C992 C993 1.388 . S
C993 H980 0.930 . S
C993 C992 1.388 . S
C993 C994 1.390 . S
C994 C993 1.390 . S
C994 C995 1.394 . S
C994 C1000 1.465 . S
C995 C990 1.399 . S
C995 C994 1.394 . S
C995 C996 1.516 . S
C996 C995 1.516 . S
C996 C997 1.502 . S
C996 C998 1.561 . S
C996 C999 1.526 . S
C997 H981 0.959 . S
C997 H982 0.959 . S
C997 H983 0.961 . S
C997 C996 1.502 . S
C998 H984 0.960 . S
C998 H985 0.961 . S
C998 H986 0.959 . S
C998 C996 1.561 . S
C999 C996 1.526 . S
C999 C1000 1.396 . S
C999 C1004 1.390 . S
C1000 C994 1.465 . S
C1000 C999 1.396 . S
C1000 C1001 1.399 . S
C1001 H987 0.929 . S
C1001 C1000 1.399 . S
C1001 C1002 1.385 . S
C1002 H988 0.931 . S
C1002 C1001 1.385 . S
C1002 C1003 1.389 . S
C1003 C1002 1.389 . S
C1003 C1004 1.387 . S
C1004 H989 0.930 . S
C1004 C999 1.390 . S
C1004 C1003 1.387 . S
H1005 C1017 0.930 . S
H1006 C1019 0.930 . S
H1007 C1020 0.930 . S
H1008 C1024 0.959 . S
H1009 C1024 0.959 . S
H1010 C1024 0.961 . S
H1011 C1025 0.960 . S
H1012 C1025 0.961 . S
H1013 C1025 0.959 . S
H1014 C1028 0.929 . S
H1015 C1029 0.931 . S
H1016 C1031 0.930 . S
C1017 H1005 0.930 . S
C1017 C1018 1.399 . S
C1017 C1022 1.399 . S
C1018 C1017 1.399 . S
C1018 C1019 1.376 . S
C1019 H1006 0.930 . S
C1019 C1018 1.376 . S
C1019 C1020 1.388 . S
C1020 H1007 0.930 . S
C1020 C1019 1.388 . S
C1020 C1021 1.390 . S
C1021 C1020 1.390 . S
C1021 C1022 1.394 . S
C1021 C1027 1.465 . S
C1022 C1017 1.399 . S
C1022 C1021 1.394 . S
C1022 C1023 1.516 . S
C1023 C1022 1.516 . S
C1023 C1024 1.502 . S
C1023 C1025 1.561 . S
C1023 C1026 1.526 . S
C1024 H1008 0.959 . S
C1024 H1009 0.959 . S
C1024 H1010 0.961 . S
C1024 C1023 1.502 . S
C1025 H1011 0.960 . S
C1025 H1012 0.961 . S
C1025 H1013 0.959 . S
C1025 C1023 1.561 . S
C1026 C1023 1.526 . S
C1026 C1027 1.396 . S
C1026 C1031 1.390 . S
C1027 C1021 1.465 . S
C1027 C1026 1.396 . S
C1027 C1028 1.399 . S
C1028 H1014 0.929 . S
C1028 C1027 1.399 . S
C1028 C1029 1.385 . S
C1029 H1015 0.931 . S
C1029 C1028 1.385 . S
C1029 C1030 1.389 . S
C1030 C1029 1.389 . S
C1030 C1031 1.387 . S
C1031 H1016 0.930 . S
C1031 C1026 1.390 . S
C1031 C1030 1.387 . S
H1032 C1044 0.930 . S
H1033 C1046 0.930 . S
H1034 C1047 0.930 . S
H1035 C1051 0.959 . S
H1036 C1051 0.959 . S
H1037 C1051 0.961 . S
H1038 C1052 0.960 . S
H1039 C1052 0.961 . S
H1040 C1052 0.959 . S
H1041 C1055 0.929 . S
H1042 C1056 0.931 . S
H1043 C1058 0.930 . S
C1044 H1032 0.930 . S
C1044 C1045 1.399 . S
C1044 C1049 1.399 . S
C1045 C1044 1.399 . S
C1045 C1046 1.376 . S
C1046 H1033 0.930 . S
C1046 C1045 1.376 . S
C1046 C1047 1.388 . S
C1047 H1034 0.930 . S
C1047 C1046 1.388 . S
C1047 C1048 1.390 . S
C1048 C1047 1.390 . S
C1048 C1049 1.394 . S
C1048 C1054 1.465 . S
C1049 C1044 1.399 . S
C1049 C1048 1.394 . S
C1049 C1050 1.516 . S
C1050 C1049 1.516 . S
C1050 C1051 1.502 . S
C1050 C1052 1.561 . S
C1050 C1053 1.526 . S
C1051 H1035 0.959 . S
C1051 H1036 0.959 . S
C1051 H1037 0.961 . S
C1051 C1050 1.502 . S
C1052 H1038 0.960 . S
C1052 H1039 0.961 . S
C1052 H1040 0.959 . S
C1052 C1050 1.561 . S
C1053 C1050 1.526 . S
C1053 C1054 1.396 . S
C1053 C1058 1.390 . S
C1054 C1048 1.465 . S
C1054 C1053 1.396 . S
C1054 C1055 1.399 . S
C1055 H1041 0.929 . S
C1055 C1054 1.399 . S
C1055 C1056 1.385 . S
C1056 H1042 0.931 . S
C1056 C1055 1.385 . S
C1056 C1057 1.389 . S
C1057 C1056 1.389 . S
C1057 C1058 1.387 . S
C1058 H1043 0.930 . S
C1058 C1053 1.390 . S
C1058 C1057 1.387 . S
H1059 C1071 0.930 . S
H1060 C1073 0.930 . S
H1061 C1074 0.930 . S
H1062 C1078 0.959 . S
H1063 C1078 0.959 . S
H1064 C1078 0.961 . S
H1065 C1079 0.960 . S
H1066 C1079 0.961 . S
H1067 C1079 0.959 . S
H1068 C1082 0.929 . S
H1069 C1083 0.931 . S
H1070 C1085 0.930 . S
C1071 H1059 0.930 . S
C1071 C1072 1.399 . S
C1071 C1076 1.399 . S
C1072 C1071 1.399 . S
C1072 C1073 1.376 . S
C1073 H1060 0.930 . S
C1073 C1072 1.376 . S
C1073 C1074 1.388 . S
C1074 H1061 0.930 . S
C1074 C1073 1.388 . S
C1074 C1075 1.390 . S
C1075 C1074 1.390 . S
C1075 C1076 1.394 . S
C1075 C1081 1.465 . S
C1076 C1071 1.399 . S
C1076 C1075 1.394 . S
C1076 C1077 1.516 . S
C1077 C1076 1.516 . S
C1077 C1078 1.502 . S
C1077 C1079 1.561 . S
C1077 C1080 1.526 . S
C1078 H1062 0.959 . S
C1078 H1063 0.959 . S
C1078 H1064 0.961 . S
C1078 C1077 1.502 . S
C1079 H1065 0.960 . S
C1079 H1066 0.961 . S
C1079 H1067 0.959 . S
C1079 C1077 1.561 . S
C1080 C1077 1.526 . S
C1080 C1081 1.396 . S
C1080 C1085 1.390 . S
C1081 C1075 1.465 . S
C1081 C1080 1.396 . S
C1081 C1082 1.399 . S
C1082 H1068 0.929 . S
C1082 C1081 1.399 . S
C1082 C1083 1.385 . S
C1083 H1069 0.931 . S
C1083 C1082 1.385 . S
C1083 C1084 1.389 . S
C1084 C1083 1.389 . S
C1084 C1085 1.387 . S
C1085 H1070 0.930 . S
C1085 C1080 1.390 . S
C1085 C1084 1.387 . S
H1086 C1098 0.930 . S
H1087 C1100 0.930 . S
H1088 C1101 0.930 . S
H1089 C1105 0.959 . S
H1090 C1105 0.959 . S
H1091 C1105 0.961 . S
H1092 C1106 0.960 . S
H1093 C1106 0.961 . S
H1094 C1106 0.959 . S
H1095 C1109 0.929 . S
H1096 C1110 0.931 . S
H1097 C1112 0.930 . S
C1098 H1086 0.930 . S
C1098 C1099 1.399 . S
C1098 C1103 1.399 . S
C1099 C1098 1.399 . S
C1099 C1100 1.376 . S
C1100 H1087 0.930 . S
C1100 C1099 1.376 . S
C1100 C1101 1.388 . S
C1101 H1088 0.930 . S
C1101 C1100 1.388 . S
C1101 C1102 1.390 . S
C1102 C1101 1.390 . S
C1102 C1103 1.394 . S
C1102 C1108 1.465 . S
C1103 C1098 1.399 . S
C1103 C1102 1.394 . S
C1103 C1104 1.516 . S
C1104 C1103 1.516 . S
C1104 C1105 1.502 . S
C1104 C1106 1.561 . S
C1104 C1107 1.526 . S
C1105 H1089 0.959 . S
C1105 H1090 0.959 . S
C1105 H1091 0.961 . S
C1105 C1104 1.502 . S
C1106 H1092 0.960 . S
C1106 H1093 0.961 . S
C1106 H1094 0.959 . S
C1106 C1104 1.561 . S
C1107 C1104 1.526 . S
C1107 C1108 1.396 . S
C1107 C1112 1.390 . S
C1108 C1102 1.465 . S
C1108 C1107 1.396 . S
C1108 C1109 1.399 . S
C1109 H1095 0.929 . S
C1109 C1108 1.399 . S
C1109 C1110 1.385 . S
C1110 H1096 0.931 . S
C1110 C1109 1.385 . S
C1110 C1111 1.389 . S
C1111 C1110 1.389 . S
C1111 C1112 1.387 . S
C1112 H1097 0.930 . S
C1112 C1107 1.390 . S
C1112 C1111 1.387 . S
H1113 C1125 0.930 . S
H1114 C1127 0.930 . S
H1115 C1128 0.930 . S
H1116 C1132 0.959 . S
H1117 C1132 0.959 . S
H1118 C1132 0.961 . S
H1119 C1133 0.960 . S
H1120 C1133 0.961 . S
H1121 C1133 0.959 . S
H1122 C1136 0.929 . S
H1123 C1137 0.931 . S
H1124 C1139 0.930 . S
C1125 H1113 0.930 . S
C1125 C1126 1.399 . S
C1125 C1130 1.399 . S
C1126 C1125 1.399 . S
C1126 C1127 1.376 . S
C1127 H1114 0.930 . S
C1127 C1126 1.376 . S
C1127 C1128 1.388 . S
C1128 H1115 0.930 . S
C1128 C1127 1.388 . S
C1128 C1129 1.390 . S
C1129 C1128 1.390 . S
C1129 C1130 1.394 . S
C1129 C1135 1.465 . S
C1130 C1125 1.399 . S
C1130 C1129 1.394 . S
C1130 C1131 1.516 . S
C1131 C1130 1.516 . S
C1131 C1132 1.502 . S
C1131 C1133 1.561 . S
C1131 C1134 1.526 . S
C1132 H1116 0.959 . S
C1132 H1117 0.959 . S
C1132 H1118 0.961 . S
C1132 C1131 1.502 . S
C1133 H1119 0.960 . S
C1133 H1120 0.961 . S
C1133 H1121 0.959 . S
C1133 C1131 1.561 . S
C1134 C1131 1.526 . S
C1134 C1135 1.396 . S
C1134 C1139 1.390 . S
C1135 C1129 1.465 . S
C1135 C1134 1.396 . S
C1135 C1136 1.399 . S
C1136 H1122 0.929 . S
C1136 C1135 1.399 . S
C1136 C1137 1.385 . S
C1137 H1123 0.931 . S
C1137 C1136 1.385 . S
C1137 C1138 1.389 . S
C1138 C1137 1.389 . S
C1138 C1139 1.387 . S
C1139 H1124 0.930 . S
C1139 C1134 1.390 . S
C1139 C1138 1.387 . S
H1140 C1152 0.930 . S
H1141 C1154 0.930 . S
H1142 C1155 0.930 . S
H1143 C1159 0.959 . S
H1144 C1159 0.959 . S
H1145 C1159 0.961 . S
H1146 C1160 0.960 . S
H1147 C1160 0.961 . S
H1148 C1160 0.959 . S
H1149 C1163 0.929 . S
H1150 C1164 0.931 . S
H1151 C1166 0.930 . S
C1152 H1140 0.930 . S
C1152 C1153 1.399 . S
C1152 C1157 1.399 . S
C1153 C1152 1.399 . S
C1153 C1154 1.376 . S
C1154 H1141 0.930 . S
C1154 C1153 1.376 . S
C1154 C1155 1.388 . S
C1155 H1142 0.930 . S
C1155 C1154 1.388 . S
C1155 C1156 1.390 . S
C1156 C1155 1.390 . S
C1156 C1157 1.394 . S
C1156 C1162 1.465 . S
C1157 C1152 1.399 . S
C1157 C1156 1.394 . S
C1157 C1158 1.516 . S
C1158 C1157 1.516 . S
C1158 C1159 1.502 . S
C1158 C1160 1.561 . S
C1158 C1161 1.526 . S
C1159 H1143 0.959 . S
C1159 H1144 0.959 . S
C1159 H1145 0.961 . S
C1159 C1158 1.502 . S
C1160 H1146 0.960 . S
C1160 H1147 0.961 . S
C1160 H1148 0.959 . S
C1160 C1158 1.561 . S
C1161 C1158 1.526 . S
C1161 C1162 1.396 . S
C1161 C1166 1.390 . S
C1162 C1156 1.465 . S
C1162 C1161 1.396 . S
C1162 C1163 1.399 . S
C1163 H1149 0.929 . S
C1163 C1162 1.399 . S
C1163 C1164 1.385 . S
C1164 H1150 0.931 . S
C1164 C1163 1.385 . S
C1164 C1165 1.389 . S
C1165 C1164 1.389 . S
C1165 C1166 1.387 . S
C1166 H1151 0.930 . S
C1166 C1161 1.390 . S
C1166 C1165 1.387 . S
H1167 C1179 0.930 . S
H1168 C1181 0.930 . S
H1169 C1182 0.930 . S
H1170 C1186 0.959 . S
H1171 C1186 0.959 . S
H1172 C1186 0.961 . S
H1173 C1187 0.960 . S
H1174 C1187 0.961 . S
H1175 C1187 0.959 . S
H1176 C1190 0.929 . S
H1177 C1191 0.931 . S
H1178 C1193 0.930 . S
C1179 H1167 0.930 . S
C1179 C1180 1.399 . S
C1179 C1184 1.399 . S
C1180 C1179 1.399 . S
C1180 C1181 1.376 . S
C1181 H1168 0.930 . S
C1181 C1180 1.376 . S
C1181 C1182 1.388 . S
C1182 H1169 0.930 . S
C1182 C1181 1.388 . S
C1182 C1183 1.390 . S
C1183 C1182 1.390 . S
C1183 C1184 1.394 . S
C1183 C1189 1.465 . S
C1184 C1179 1.399 . S
C1184 C1183 1.394 . S
C1184 C1185 1.516 . S
C1185 C1184 1.516 . S
C1185 C1186 1.502 . S
C1185 C1187 1.561 . S
C1185 C1188 1.526 . S
C1186 H1170 0.959 . S
C1186 H1171 0.959 . S
C1186 H1172 0.961 . S
C1186 C1185 1.502 . S
C1187 H1173 0.960 . S
C1187 H1174 0.961 . S
C1187 H1175 0.959 . S
C1187 C1185 1.561 . S
C1188 C1185 1.526 . S
C1188 C1189 1.396 . S
C1188 C1193 1.390 . S
C1189 C1183 1.465 . S
C1189 C1188 1.396 . S
C1189 C1190 1.399 . S
C1190 H1176 0.929 . S
C1190 C1189 1.399 . S
C1190 C1191 1.385 . S
C1191 H1177 0.931 . S
C1191 C1190 1.385 . S
C1191 C1192 1.389 . S
C1192 C1191 1.389 . S
C1192 C1193 1.387 . S
C1193 H1178 0.930 . S
C1193 C1188 1.390 . S
C1193 C1192 1.387 . S
H1194 C1206 0.930 . S
H1195 C1208 0.930 . S
H1196 C1209 0.930 1_655 S
H1197 C1213 0.959 . S
H1198 C1213 0.959 . S
H1199 C1213 0.961 . S
H1200 C1214 0.965 . S
H1201 C1214 0.961 1_565 S
H1202 C1214 0.959 . S
H1203 C1217 0.929 . S
H1204 C1218 0.931 . S
H1205 C1220 0.930 . S
C1206 H1194 0.930 . S
C1206 C1207 1.399 . S
C1206 C1211 1.399 . S
C1207 C1206 1.399 . S
C1207 C1208 1.376 . S
C1208 H1195 0.930 . S
C1208 C1207 1.376 . S
C1208 C1209 1.388 . S
C1209 H1196 0.930 1_455 S
C1209 C1208 1.388 . S
C1209 C1210 1.390 . S
C1210 C1209 1.390 . S
C1210 C1211 1.398 . S
C1210 C1216 1.461 1_445 S
C1211 C1206 1.399 . S
C1211 C1210 1.398 . S
C1211 C1212 1.516 1_545 S
C1212 C1211 1.516 1_565 S
C1212 C1213 1.502 . S
C1212 C1214 1.561 1_465 S
C1212 C1215 1.526 1_455 S
C1213 H1197 0.959 . S
C1213 H1198 0.959 . S
C1213 H1199 0.961 . S
C1213 C1212 1.502 . S
C1214 H1200 0.965 . S
C1214 H1201 0.961 1_545 S
C1214 H1202 0.959 . S
C1214 C1212 1.561 1_645 S
C1215 C1212 1.526 1_655 S
C1215 C1216 1.396 . S
C1215 C1220 1.390 . S
C1216 C1210 1.461 1_665 S
C1216 C1215 1.396 . S
C1216 C1217 1.399 . S
C1217 H1203 0.929 . S
C1217 C1216 1.399 . S
C1217 C1218 1.385 . S
C1218 H1204 0.931 . S
C1218 C1217 1.385 . S
C1218 C1219 1.389 . S
C1219 C1218 1.389 . S
C1219 C1220 1.387 . S
C1220 H1205 0.930 . S
C1220 C1215 1.390 . S
C1220 C1219 1.387 . S
H1221 C1233 0.930 . S
H1222 C1235 0.930 . S
H1223 C1236 0.930 1_455 S
H1224 C1240 0.959 . S
H1225 C1240 0.959 . S
H1226 C1240 0.961 . S
H1227 C1241 0.960 . S
H1228 C1241 0.961 1_565 S
H1229 C1241 0.959 . S
H1230 C1244 0.929 . S
H1231 C1245 0.931 . S
H1232 C1247 0.930 . S
C1233 H1221 0.930 . S
C1233 C1234 1.399 . S
C1233 C1238 1.399 . S
C1234 C1233 1.399 . S
C1234 C1235 1.376 . S
C1235 H1222 0.930 . S
C1235 C1234 1.376 . S
C1235 C1236 1.388 . S
C1236 H1223 0.930 1_655 S
C1236 C1235 1.388 . S
C1236 C1237 1.392 . S
C1237 C1236 1.392 . S
C1237 C1238 1.405 . S
C1237 C1243 1.454 1_645 S
C1238 C1233 1.399 . S
C1238 C1237 1.405 . S
C1238 C1239 1.516 1_545 S
C1239 C1238 1.516 1_565 S
C1239 C1240 1.502 . S
C1239 C1241 1.561 1_665 S
C1239 C1242 1.526 1_655 S
C1240 H1224 0.959 . S
C1240 H1225 0.959 . S
C1240 H1226 0.961 . S
C1240 C1239 1.502 . S
C1241 H1227 0.960 . S
C1241 H1228 0.961 1_545 S
C1241 H1229 0.959 . S
C1241 C1239 1.561 1_445 S
C1242 C1239 1.526 1_455 S
C1242 C1243 1.396 . S
C1242 C1247 1.390 . S
C1243 C1237 1.454 1_465 S
C1243 C1242 1.396 . S
C1243 C1244 1.399 . S
C1244 H1230 0.929 . S
C1244 C1243 1.399 . S
C1244 C1245 1.385 . S
C1245 H1231 0.931 . S
C1245 C1244 1.385 . S
C1245 C1246 1.389 . S
C1246 C1245 1.389 . S
C1246 C1247 1.387 . S
C1247 H1232 0.930 . S
C1247 C1242 1.390 . S
C1247 C1246 1.387 . S
H1248 C1260 0.930 . S
H1249 C1262 0.930 . S
H1250 C1263 0.930 . S
H1251 C1267 0.959 . S
H1252 C1267 0.959 . S
H1253 C1267 0.961 . S
H1254 C1268 0.960 . S
H1255 C1268 0.961 1_554 S
H1256 C1268 0.959 1_564 S
H1257 C1271 0.929 . S
H1258 C1272 0.931 . S
H1259 C1274 0.930 . S
C1260 H1248 0.930 . S
C1260 C1261 1.399 . S
C1260 C1265 1.399 . S
C1261 C1260 1.399 . S
C1261 C1262 1.376 . S
C1262 H1249 0.930 . S
C1262 C1261 1.376 . S
C1262 C1263 1.388 . S
C1263 H1250 0.930 . S
C1263 C1262 1.388 . S
C1263 C1264 1.390 . S
C1264 C1263 1.390 . S
C1264 C1265 1.394 . S
C1264 C1270 1.465 1_556 S
C1265 C1260 1.399 . S
C1265 C1264 1.394 . S
C1265 C1266 1.516 1_565 S
C1266 C1265 1.516 1_545 S
C1266 C1267 1.502 . S
C1266 C1268 1.561 . S
C1266 C1269 1.526 1_556 S
C1267 H1251 0.959 . S
C1267 H1252 0.959 . S
C1267 H1253 0.961 . S
C1267 C1266 1.502 . S
C1268 H1254 0.960 . S
C1268 H1255 0.961 1_556 S
C1268 H1256 0.959 1_546 S
C1268 C1266 1.561 . S
C1269 C1266 1.526 1_554 S
C1269 C1270 1.396 1_545 S
C1269 C1274 1.390 . S
C1270 C1264 1.465 1_554 S
C1270 C1269 1.396 1_565 S
C1270 C1271 1.399 . S
C1271 H1257 0.929 . S
C1271 C1270 1.399 . S
C1271 C1272 1.385 1_565 S
C1272 H1258 0.931 . S
C1272 C1271 1.385 1_545 S
C1272 C1273 1.389 . S
C1273 C1272 1.389 . S
C1273 C1274 1.387 . S
C1274 H1259 0.930 . S
C1274 C1269 1.390 . S
C1274 C1273 1.387 . S
H1275 C1287 0.930 1_545 S
H1276 C1289 0.930 . S
H1277 C1290 0.930 . S
H1278 C1294 0.959 . S
H1279 C1294 0.959 . S
H1280 C1294 0.961 . S
H1281 C1295 0.960 . S
H1282 C1295 0.961 . S
H1283 C1295 0.959 . S
H1284 C1298 0.929 . S
H1285 C1299 0.934 . S
H1286 C1301 0.930 . S
C1287 H1275 0.930 1_565 S
C1287 C1288 1.399 . S
C1287 C1292 1.402 . S
C1288 C1287 1.399 . S
C1288 C1289 1.376 . S
C1289 H1276 0.930 . S
C1289 C1288 1.376 . S
C1289 C1290 1.388 . S
C1290 H1277 0.930 . S
C1290 C1289 1.388 . S
C1290 C1291 1.390 . S
C1291 C1290 1.390 . S
C1291 C1292 1.399 . S
C1291 C1297 1.465 1_554 S
C1292 C1287 1.402 . S
C1292 C1291 1.399 . S
C1292 C1293 1.509 1_565 S
C1293 C1292 1.509 1_545 S
C1293 C1294 1.502 . S
C1293 C1295 1.561 . S
C1293 C1296 1.526 1_554 S
C1294 H1278 0.959 . S
C1294 H1279 0.959 . S
C1294 H1280 0.961 . S
C1294 C1293 1.502 . S
C1295 H1281 0.960 . S
C1295 H1282 0.961 . S
C1295 H1283 0.959 . S
C1295 C1293 1.561 . S
C1296 C1293 1.526 1_556 S
C1296 C1297 1.396 1_545 S
C1296 C1301 1.390 . S
C1297 C1291 1.465 1_556 S
C1297 C1296 1.396 1_565 S
C1297 C1298 1.399 . S
C1298 H1284 0.929 . S
C1298 C1297 1.399 . S
C1298 C1299 1.385 1_565 S
C1299 H1285 0.934 . S
C1299 C1298 1.385 1_545 S
C1299 C1300 1.389 . S
C1300 C1299 1.389 . S
C1300 C1301 1.387 . S
C1301 H1286 0.930 . S
C1301 C1296 1.390 . S
C1301 C1300 1.387 . S
H1302 C1314 0.930 . S
H1303 C1316 0.930 . S
H1304 C1317 0.930 . S
H1305 C1321 0.959 . S
H1306 C1321 0.959 . S
H1307 C1321 0.961 . S
H1308 C1322 0.960 . S
H1309 C1322 0.961 1_455 S
H1310 C1322 0.959 . S
H1311 C1325 0.929 . S
H1312 C1326 0.931 . S
H1313 C1328 0.930 . S
C1314 H1302 0.930 . S
C1314 C1315 1.399 . S
C1314 C1319 1.399 . S
C1315 C1314 1.399 . S
C1315 C1316 1.376 . S
C1316 H1303 0.930 . S
C1316 C1315 1.376 . S
C1316 C1317 1.388 . S
C1317 H1304 0.930 . S
C1317 C1316 1.388 . S
C1317 C1318 1.390 . S
C1318 C1317 1.390 . S
C1318 C1319 1.394 . S
C1318 C1324 1.465 1_656 S
C1319 C1314 1.399 . S
C1319 C1318 1.394 . S
C1319 C1320 1.516 1_655 S
C1320 C1319 1.516 1_455 S
C1320 C1321 1.502 . S
C1320 C1322 1.561 1_456 S
C1320 C1323 1.526 1_556 S
C1321 H1305 0.959 . S
C1321 H1306 0.959 . S
C1321 H1307 0.961 . S
C1321 C1320 1.502 . S
C1322 H1308 0.960 . S
C1322 H1309 0.961 1_655 S
C1322 H1310 0.959 . S
C1322 C1320 1.561 1_654 S
C1323 C1320 1.526 1_554 S
C1323 C1324 1.396 . S
C1323 C1328 1.390 . S
C1324 C1318 1.465 1_454 S
C1324 C1323 1.396 . S
C1324 C1325 1.399 . S
C1325 H1311 0.929 . S
C1325 C1324 1.399 . S
C1325 C1326 1.385 . S
C1326 H1312 0.931 . S
C1326 C1325 1.385 . S
C1326 C1327 1.389 . S
C1327 C1326 1.389 . S
C1327 C1328 1.387 . S
C1328 H1313 0.930 . S
C1328 C1323 1.390 . S
C1328 C1327 1.387 . S
H1329 C1341 0.930 . S
H1330 C1343 0.930 . S
H1331 C1344 0.930 . S
H1332 C1348 0.959 . S
H1333 C1348 0.959 . S
H1334 C1348 0.961 1_455 S
H1335 C1349 0.960 . S
H1336 C1349 0.941 1_655 S
H1337 C1349 0.959 . S
H1338 C1352 0.929 . S
H1339 C1353 0.931 . S
H1340 C1355 0.930 . S
C1341 H1329 0.930 . S
C1341 C1342 1.399 . S
C1341 C1346 1.399 . S
C1342 C1341 1.399 . S
C1342 C1343 1.376 . S
C1343 H1330 0.930 . S
C1343 C1342 1.376 . S
C1343 C1344 1.388 . S
C1344 H1331 0.930 . S
C1344 C1343 1.388 . S
C1344 C1345 1.390 . S
C1345 C1344 1.390 . S
C1345 C1346 1.394 . S
C1345 C1351 1.465 1_456 S
C1346 C1341 1.399 . S
C1346 C1345 1.394 . S
C1346 C1347 1.517 1_456 S
C1347 C1346 1.517 1_654 S
C1347 C1348 1.504 1_554 S
C1347 C1349 1.558 1_655 S
C1347 C1350 1.525 . S
C1348 H1332 0.959 . S
C1348 H1333 0.959 . S
C1348 H1334 0.961 1_655 S
C1348 C1347 1.504 1_556 S
C1349 H1335 0.960 . S
C1349 H1336 0.941 1_455 S
C1349 H1337 0.959 . S
C1349 C1347 1.558 1_455 S
C1350 C1347 1.525 . S
C1350 C1351 1.396 . S
C1350 C1355 1.390 . S
C1351 C1345 1.465 1_654 S
C1351 C1350 1.396 . S
C1351 C1352 1.399 . S
C1352 H1338 0.929 . S
C1352 C1351 1.399 . S
C1352 C1353 1.385 . S
C1353 H1339 0.931 . S
C1353 C1352 1.385 . S
C1353 C1354 1.389 . S
C1354 C1353 1.389 . S
C1354 C1355 1.387 . S
C1355 H1340 0.930 . S
C1355 C1350 1.390 . S
C1355 C1354 1.387 . S
C721 C182 0.968 . S
C733 C5 1.011 . S
C748 C123 0.970 . S
C760 C64 0.924 . S
C775 C300 1.011 . S
C787 C241 0.981 . S
C802 C359 0.938 . S
C814 C418 0.935 . S
C829 C536 0.998 . S
C841 C477 1.001 . S
C856 C595 1.012 . S
C868 C654 0.970 . S
C883 C52 1.203 . S
C895 C446 1.151 . S
C910 C387 1.097 . S
C922 C111 1.198 . S
C937 C328 1.101 . S
C949 C170 1.200 . S
C964 C269 1.198 . S
C976 C229 1.184 . S
C991 C288 1.179 . S
C1003 C682 1.157 . S
C1018 C505 1.200 . S
C1030 C347 1.185 . S
C1045 C623 1.098 . S
C1057 C406 1.199 . S
C1072 C465 1.179 . S
C1084 C564 1.152 . S
C1099 C151 1.159 . S
C1111 C524 1.202 . S
C1126 C33 1.132 . S
C1138 C583 1.204 . S
C1153 C642 1.187 . S
C1165 C92 1.199 . S
C1180 C210 1.159 . S
C1192 C701 1.202 . S
C1207 C3 1.287 . S
C1219 C62 1.275 . S
C1234 C180 1.287 . S
C1246 C121 1.276 . S
C1261 C357 1.260 . S
C1273 C239 1.276 . S
C1288 C298 1.271 . S
C1300 C416 1.286 . S
C1315 C593 1.286 . S
C1327 C475 1.278 . S
C1342 C534 1.286 . S
C1354 C652 1.279 . S
