# Generated by pormake.
# Topology cbo, (4)-cn, num edge types: 1
# Building blocks:
#     Node 0, Type 0, BuildingBlock: ESEHIV_clean_sbu_0, # of connection points: 4
#     Node 1, Type 0, BuildingBlock: ESEHIV_clean_sbu_0, # of connection points: 4
#     Node 2, Type 0, BuildingBlock: ESEHIV_clean_sbu_0, # of connection points: 4
#     Node 3, Type 0, BuildingBlock: ESEHIV_clean_sbu_0, # of connection points: 4
#     Node 4, Type 0, BuildingBlock: ESEHIV_clean_sbu_0, # of connection points: 4
#     Node 5, Type 0, BuildingBlock: ESEHIV_clean_sbu_0, # of connection points: 4
#     Node 6, Type 0, BuildingBlock: ESEHIV_clean_sbu_0, # of connection points: 4
#     Node 7, Type 0, BuildingBlock: ESEHIV_clean_sbu_0, # of connection points: 4
#     Node 8, Type 0, BuildingBlock: ESEHIV_clean_sbu_0, # of connection points: 4
#     Node 9, Type 0, BuildingBlock: ESEHIV_clean_sbu_0, # of connection points: 4
#     Node 10, Type 0, BuildingBlock: ESEHIV_clean_sbu_0, # of connection points: 4
#     Node 11, Type 0, BuildingBlock: ESEHIV_clean_sbu_0, # of connection points: 4
#     Node 12, Type 0, BuildingBlock: ESEHIV_clean_sbu_0, # of connection points: 4
#     Node 13, Type 0, BuildingBlock: ESEHIV_clean_sbu_0, # of connection points: 4
#     Node 14, Type 0, BuildingBlock: ESEHIV_clean_sbu_0, # of connection points: 4
#     Node 15, Type 0, BuildingBlock: ESEHIV_clean_sbu_0, # of connection points: 4
#     Node 16, Type 0, BuildingBlock: ESEHIV_clean_sbu_0, # of connection points: 4
#     Node 17, Type 0, BuildingBlock: ESEHIV_clean_sbu_0, # of connection points: 4
#     Node 18, Type 0, BuildingBlock: ESEHIV_clean_sbu_0, # of connection points: 4
#     Node 19, Type 0, BuildingBlock: ESEHIV_clean_sbu_0, # of connection points: 4
#     Node 20, Type 0, BuildingBlock: ESEHIV_clean_sbu_0, # of connection points: 4
#     Node 21, Type 0, BuildingBlock: ESEHIV_clean_sbu_0, # of connection points: 4
#     Node 22, Type 0, BuildingBlock: ESEHIV_clean_sbu_0, # of connection points: 4
#     Node 23, Type 0, BuildingBlock: ESEHIV_clean_sbu_0, # of connection points: 4
#     Edge 24, Type (0, 0), BuildingBlock: XUDNAN_clean_linker_2, # of connection points: 2
#     Edge 25, Type (0, 0), BuildingBlock: XUDNAN_clean_linker_2, # of connection points: 2
#     Edge 26, Type (0, 0), BuildingBlock: XUDNAN_clean_linker_2, # of connection points: 2
#     Edge 27, Type (0, 0), BuildingBlock: XUDNAN_clean_linker_2, # of connection points: 2
#     Edge 28, Type (0, 0), BuildingBlock: XUDNAN_clean_linker_2, # of connection points: 2
#     Edge 29, Type (0, 0), BuildingBlock: XUDNAN_clean_linker_2, # of connection points: 2
#     Edge 30, Type (0, 0), BuildingBlock: XUDNAN_clean_linker_2, # of connection points: 2
#     Edge 31, Type (0, 0), BuildingBlock: XUDNAN_clean_linker_2, # of connection points: 2
#     Edge 32, Type (0, 0), BuildingBlock: XUDNAN_clean_linker_2, # of connection points: 2
#     Edge 33, Type (0, 0), BuildingBlock: XUDNAN_clean_linker_2, # of connection points: 2
#     Edge 34, Type (0, 0), BuildingBlock: XUDNAN_clean_linker_2, # of connection points: 2
#     Edge 35, Type (0, 0), BuildingBlock: XUDNAN_clean_linker_2, # of connection points: 2
#     Edge 36, Type (0, 0), BuildingBlock: XUDNAN_clean_linker_2, # of connection points: 2
#     Edge 37, Type (0, 0), BuildingBlock: XUDNAN_clean_linker_2, # of connection points: 2
#     Edge 38, Type (0, 0), BuildingBlock: XUDNAN_clean_linker_2, # of connection points: 2
#     Edge 39, Type (0, 0), BuildingBlock: XUDNAN_clean_linker_2, # of connection points: 2
#     Edge 40, Type (0, 0), BuildingBlock: XUDNAN_clean_linker_2, # of connection points: 2
#     Edge 41, Type (0, 0), BuildingBlock: XUDNAN_clean_linker_2, # of connection points: 2
#     Edge 42, Type (0, 0), BuildingBlock: XUDNAN_clean_linker_2, # of connection points: 2
#     Edge 43, Type (0, 0), BuildingBlock: XUDNAN_clean_linker_2, # of connection points: 2
#     Edge 44, Type (0, 0), BuildingBlock: XUDNAN_clean_linker_2, # of connection points: 2
#     Edge 45, Type (0, 0), BuildingBlock: XUDNAN_clean_linker_2, # of connection points: 2
#     Edge 46, Type (0, 0), BuildingBlock: XUDNAN_clean_linker_2, # of connection points: 2
#     Edge 47, Type (0, 0), BuildingBlock: XUDNAN_clean_linker_2, # of connection points: 2
#     Edge 48, Type (0, 0), BuildingBlock: XUDNAN_clean_linker_2, # of connection points: 2
#     Edge 49, Type (0, 0), BuildingBlock: XUDNAN_clean_linker_2, # of connection points: 2
#     Edge 50, Type (0, 0), BuildingBlock: XUDNAN_clean_linker_2, # of connection points: 2
#     Edge 51, Type (0, 0), BuildingBlock: XUDNAN_clean_linker_2, # of connection points: 2
#     Edge 52, Type (0, 0), BuildingBlock: XUDNAN_clean_linker_2, # of connection points: 2
#     Edge 53, Type (0, 0), BuildingBlock: XUDNAN_clean_linker_2, # of connection points: 2
#     Edge 54, Type (0, 0), BuildingBlock: XUDNAN_clean_linker_2, # of connection points: 2
#     Edge 55, Type (0, 0), BuildingBlock: XUDNAN_clean_linker_2, # of connection points: 2
#     Edge 56, Type (0, 0), BuildingBlock: XUDNAN_clean_linker_2, # of connection points: 2
#     Edge 57, Type (0, 0), BuildingBlock: XUDNAN_clean_linker_2, # of connection points: 2
#     Edge 58, Type (0, 0), BuildingBlock: XUDNAN_clean_linker_2, # of connection points: 2
#     Edge 59, Type (0, 0), BuildingBlock: XUDNAN_clean_linker_2, # of connection points: 2
#     Edge 60, Type (0, 0), BuildingBlock: XUDNAN_clean_linker_2, # of connection points: 2
#     Edge 61, Type (0, 0), BuildingBlock: XUDNAN_clean_linker_2, # of connection points: 2
#     Edge 62, Type (0, 0), BuildingBlock: XUDNAN_clean_linker_2, # of connection points: 2
#     Edge 63, Type (0, 0), BuildingBlock: XUDNAN_clean_linker_2, # of connection points: 2
#     Edge 64, Type (0, 0), BuildingBlock: XUDNAN_clean_linker_2, # of connection points: 2
#     Edge 65, Type (0, 0), BuildingBlock: XUDNAN_clean_linker_2, # of connection points: 2
#     Edge 66, Type (0, 0), BuildingBlock: XUDNAN_clean_linker_2, # of connection points: 2
#     Edge 67, Type (0, 0), BuildingBlock: XUDNAN_clean_linker_2, # of connection points: 2
#     Edge 68, Type (0, 0), BuildingBlock: XUDNAN_clean_linker_2, # of connection points: 2
#     Edge 69, Type (0, 0), BuildingBlock: XUDNAN_clean_linker_2, # of connection points: 2
#     Edge 70, Type (0, 0), BuildingBlock: XUDNAN_clean_linker_2, # of connection points: 2
#     Edge 71, Type (0, 0), BuildingBlock: XUDNAN_clean_linker_2, # of connection points: 2
# Relax obj value: 0.118
# Max RMSD: 0.287
# Mean RMSD: 0.269
data_MOF--net-cbo--node1-ESEHIV_clean_sbu_0--edge1-XUDNAN_clean_linker_2
_symmetry_space_group_name_H-M    P1
_symmetry_Int_Tables_number       1
_symmetry_cell_setting            triclinic
loop_
_symmetry_equiv_pos_as_xyz
'x, y, z'
_cell_length_a     54.89802
_cell_length_b     59.842493
_cell_length_c     56.826133
_cell_angle_alpha  90.012737
_cell_angle_beta   89.972733
_cell_angle_gamma 89.932555
loop_
_atom_site_label
_atom_site_type_symbol
_atom_site_fract_x
_atom_site_fract_y
_atom_site_fract_z
_atom_type_partial_charge
Cu0 Cu 0.12217 0.18745 0.3222 0.0
N1 N 0.13253 0.19719 0.35187 0.0
N2 N 0.13918 0.20026 0.39058 0.0
C3 C 0.12998 0.18739 0.37312 0.0
C4 C 0.14792 0.21868 0.37982 0.0
C5 C 0.14385 0.21671 0.35605 0.0
O6 O 0.09247 0.16974 0.32474 0.0
C7 C 0.16818 0.17955 0.30206 0.0
O8 O 0.17168 0.20043 0.30835 0.0
H9 H 0.1212 0.17139 0.37576 0.0
H10 H 0.14874 0.22876 0.34268 0.0
N11 N 0.11575 0.21259 0.30361 0.0
N12 N 0.11554 0.23642 0.27327 0.0
C13 C 0.12136 0.21563 0.28073 0.0
C14 C 0.10598 0.23205 0.31081 0.0
C15 C 0.10578 0.24674 0.29219 0.0
C16 C 0.07287 0.17876 0.33209 0.0
O17 O 0.07335 0.19968 0.33904 0.0
H18 H 0.13032 0.20309 0.27007 0.0
H19 H 0.09994 0.23552 0.32856 0.0
O20 O 0.1479 0.1703 0.30692 0.0
H21 H 0.15696 0.23248 0.38848 0.0
H22 H 0.0991 0.26376 0.29265 0.0
Cu23 Cu 0.3953 0.83153 0.82385 0.0
N24 N 0.38562 0.82268 0.854 0.0
N25 N 0.37954 0.82027 0.89284 0.0
C26 C 0.39011 0.83199 0.8752 0.0
C27 C 0.36792 0.80315 0.88224 0.0
C28 C 0.37162 0.80474 0.8584 0.0
O29 O 0.42597 0.84793 0.82487 0.0
C30 C 0.37053 0.85819 0.78998 0.0
O31 O 0.39049 0.85588 0.77747 0.0
H32 H 0.40094 0.84692 0.87763 0.0
H33 H 0.3644 0.79367 0.84507 0.0
N34 N 0.39908 0.80551 0.80567 0.0
N35 N 0.39731 0.78088 0.7761 0.0
C36 C 0.39323 0.80218 0.78288 0.0
C37 C 0.40702 0.78554 0.81348 0.0
C38 C 0.40592 0.77032 0.79532 0.0
C39 C 0.44562 0.83798 0.8306 0.0
O40 O 0.44471 0.81682 0.83662 0.0
H41 H 0.38536 0.81479 0.77163 0.0
H42 H 0.41284 0.78218 0.83131 0.0
O43 O 0.36934 0.84971 0.81047 0.0
H44 H 0.35698 0.79064 0.89104 0.0
H45 H 0.41112 0.75288 0.79617 0.0
Cu46 Cu 0.61751 0.33134 0.70363 0.0
N47 N 0.62722 0.31773 0.67562 0.0
N48 N 0.63473 0.31205 0.63736 0.0
C49 C 0.62497 0.32593 0.65366 0.0
C50 C 0.64339 0.29446 0.64973 0.0
C51 C 0.63875 0.29803 0.67326 0.0
O52 O 0.58896 0.34963 0.69706 0.0
C53 C 0.64784 0.35313 0.73708 0.0
O54 O 0.63132 0.34647 0.75225 0.0
H55 H 0.61635 0.34178 0.64982 0.0
H56 H 0.64377 0.28717 0.68767 0.0
N57 N 0.60949 0.30914 0.72548 0.0
N58 N 0.61332 0.2814 0.75153 0.0
C59 C 0.62497 0.295 0.73627 0.0
C60 C 0.58729 0.3042 0.73408 0.0
C61 C 0.58961 0.28718 0.75029 0.0
C62 C 0.57625 0.35891 0.71306 0.0
O63 O 0.58323 0.35731 0.73509 0.0
H64 H 0.64445 0.29494 0.73326 0.0
H65 H 0.57055 0.31237 0.72893 0.0
O66 O 0.64484 0.34891 0.71532 0.0
H67 H 0.65301 0.28026 0.64246 0.0
H68 H 0.57498 0.2794 0.76008 0.0
Cu69 Cu 0.89991 0.67715 0.20079 0.0
N70 N 0.88458 0.67747 0.17155 0.0
N71 N 0.87657 0.67783 0.13302 0.0
C72 C 0.89414 0.67836 0.14971 0.0
C73 C 0.85531 0.67671 0.1449 0.0
C74 C 0.86032 0.67652 0.16858 0.0
O75 O 0.93108 0.66151 0.19901 0.0
C76 C 0.8708 0.64255 0.21949 0.0
O77 O 0.88106 0.63044 0.20293 0.0
H78 H 0.91349 0.67911 0.14616 0.0
H79 H 0.84717 0.67576 0.18274 0.0
N80 N 0.90399 0.70648 0.21117 0.0
N81 N 0.90724 0.73612 0.23494 0.0
C82 C 0.90561 0.7136 0.2336 0.0
C83 C 0.90452 0.72502 0.19783 0.0
C84 C 0.90659 0.74331 0.2124 0.0
C85 C 0.95064 0.67203 0.19428 0.0
O86 O 0.94962 0.69365 0.19041 0.0
H87 H 0.90548 0.70243 0.24857 0.0
H88 H 0.90309 0.7252 0.17884 0.0
O89 O 0.87753 0.66269 0.2223 0.0
H90 H 0.83735 0.67643 0.13707 0.0
H91 H 0.90685 0.76059 0.2068 0.0
Cu92 Cu 0.33408 0.11281 0.16568 0.0
N93 N 0.33099 0.08496 0.15096 0.0
N94 N 0.32907 0.04801 0.14501 0.0
C95 C 0.33262 0.06455 0.1609 0.0
C96 C 0.32501 0.05851 0.12436 0.0
C97 C 0.32614 0.08122 0.1281 0.0
O98 O 0.36587 0.11534 0.18072 0.0
C99 C 0.30562 0.1326 0.20222 0.0
O100 O 0.32255 0.14811 0.20224 0.0
H101 H 0.33636 0.06196 0.17939 0.0
H102 H 0.32322 0.09411 0.11508 0.0
N103 N 0.33256 0.13536 0.14293 0.0
N104 N 0.3261 0.16798 0.12482 0.0
C105 C 0.32006 0.15481 0.14324 0.0
C106 C 0.34672 0.13629 0.12363 0.0
C107 C 0.34278 0.15632 0.11244 0.0
C108 C 0.38488 0.10822 0.17022 0.0
O109 O 0.38244 0.09761 0.15012 0.0
H110 H 0.30768 0.15965 0.15716 0.0
H111 H 0.35956 0.12351 0.1184 0.0
O112 O 0.30757 0.11614 0.18816 0.0
H113 H 0.32079 0.05042 0.10783 0.0
H114 H 0.3518 0.16203 0.0966 0.0
Cu115 Cu 0.19375 0.91733 0.6647 0.0
N116 N 0.19915 0.94459 0.64954 0.0
N117 N 0.20429 0.98102 0.64226 0.0
C118 C 0.20222 0.96506 0.65902 0.0
C119 C 0.20255 0.9701 0.62156 0.0
C120 C 0.1994 0.94771 0.6261 0.0
O121 O 0.1607 0.91792 0.6772 0.0
C122 C 0.22557 0.89424 0.6964 0.0
O123 O 0.21632 0.87594 0.68735 0.0
H124 H 0.20239 0.96821 0.67778 0.0
H125 H 0.19722 0.93461 0.61317 0.0
N126 N 0.19551 0.89492 0.64175 0.0
N127 N 0.20805 0.86797 0.61736 0.0
C128 C 0.21415 0.88142 0.63553 0.0
C129 C 0.17726 0.88997 0.62684 0.0
C130 C 0.1849 0.87337 0.61183 0.0
C131 C 0.14847 0.90022 0.68107 0.0
O132 O 0.15906 0.88068 0.67844 0.0
H133 H 0.2319 0.88166 0.64381 0.0
H134 H 0.1596 0.898 0.6269 0.0
O135 O 0.21792 0.91325 0.68954 0.0
H136 H 0.2037 0.97771 0.60431 0.0
H137 H 0.17414 0.86563 0.59812 0.0
Cu138 Cu 0.8305 0.41568 0.85092 0.0
N139 N 0.82315 0.44251 0.86616 0.0
N140 N 0.82298 0.47848 0.8767 0.0
C141 C 0.83306 0.46282 0.86256 0.0
C142 C 0.80624 0.46754 0.88971 0.0
C143 C 0.80646 0.44539 0.88324 0.0
O144 O 0.86491 0.41513 0.84315 0.0
C145 C 0.7864 0.41063 0.82797 0.0
O146 O 0.77889 0.41319 0.84975 0.0
H147 H 0.84707 0.46609 0.84961 0.0
H148 H 0.79522 0.43226 0.89051 0.0
N149 N 0.82416 0.39206 0.87138 0.0
N150 N 0.80831 0.36012 0.88487 0.0
C151 C 0.81273 0.37293 0.86575 0.0
C152 C 0.82754 0.3913 0.89479 0.0
C153 C 0.81778 0.37162 0.90318 0.0
C154 C 0.87453 0.39955 0.83107 0.0
O155 O 0.8605 0.38399 0.82201 0.0
H156 H 0.80735 0.36883 0.84797 0.0
H157 H 0.83568 0.40451 0.90511 0.0
O158 O 0.80917 0.41188 0.82374 0.0
H159 H 0.79487 0.47495 0.90319 0.0
H160 H 0.81686 0.36672 0.92148 0.0
Cu161 Cu 0.69113 0.60035 0.34583 0.0
N162 N 0.69763 0.5756 0.36463 0.0
N163 N 0.69877 0.54053 0.37801 0.0
C164 C 0.6889 0.5547 0.36215 0.0
C165 C 0.7142 0.55305 0.39097 0.0
C166 C 0.71343 0.57467 0.38268 0.0
O167 O 0.65706 0.5994 0.33636 0.0
C168 C 0.71915 0.61631 0.3071 0.0
O169 O 0.70762 0.63526 0.31061 0.0
H170 H 0.67619 0.54989 0.3485 0.0
H171 H 0.72394 0.58869 0.38907 0.0
N172 N 0.69708 0.62612 0.36346 0.0
N173 N 0.71469 0.65753 0.37624 0.0
C174 C 0.7171 0.63907 0.36275 0.0
C175 C 0.68167 0.63639 0.37835 0.0
C176 C 0.69243 0.6558 0.38622 0.0
C177 C 0.64509 0.61685 0.3308 0.0
O178 O 0.65641 0.63614 0.32968 0.0
H179 H 0.73299 0.63512 0.35228 0.0
H180 H 0.66355 0.63052 0.38256 0.0
O181 O 0.71354 0.59927 0.31935 0.0
H182 H 0.72528 0.54702 0.40538 0.0
H183 H 0.68407 0.66806 0.39767 0.0
Cu184 Cu 0.18067 0.34368 0.09495 0.0
N185 N 0.18747 0.37127 0.10886 0.0
N186 N 0.18712 0.4076 0.11824 0.0
C187 C 0.17653 0.3912 0.10541 0.0
C188 C 0.2054 0.39748 0.13006 0.0
C189 C 0.20559 0.37517 0.12421 0.0
O190 O 0.16242 0.34797 0.06601 0.0
C191 C 0.1571 0.32907 0.13716 0.0
O192 O 0.15982 0.34979 0.14429 0.0
H193 H 0.16114 0.39354 0.09377 0.0
H194 H 0.21822 0.36263 0.13049 0.0
N195 N 0.21026 0.33028 0.08731 0.0
N196 N 0.2424 0.30733 0.08741 0.0
C197 C 0.22085 0.31247 0.09762 0.0
C198 C 0.22546 0.3366 0.07002 0.0
C199 C 0.24528 0.32249 0.07002 0.0
C200 C 0.16007 0.33176 0.05168 0.0
O201 O 0.16886 0.3121 0.05754 0.0
H202 H 0.21302 0.30368 0.11244 0.0
H203 H 0.22222 0.35044 0.05818 0.0
O204 O 0.16383 0.32365 0.1165 0.0
H205 H 0.21819 0.40567 0.1417 0.0
H206 H 0.26043 0.32318 0.05786 0.0
Cu207 Cu 0.67566 0.17025 0.92087 0.0
N208 N 0.68849 0.14174 0.91522 0.0
N209 N 0.69163 0.1057 0.90513 0.0
C210 C 0.67636 0.12313 0.90883 0.0
C211 C 0.71416 0.11379 0.90937 0.0
C212 C 0.71216 0.13594 0.91553 0.0
O213 O 0.65487 0.16983 0.9487 0.0
C214 C 0.67118 0.17894 0.87345 0.0
O215 O 0.69245 0.16886 0.87393 0.0
H216 H 0.65678 0.12252 0.90682 0.0
H217 H 0.72703 0.14717 0.91939 0.0
N218 N 0.70106 0.19031 0.92632 0.0
N219 N 0.72536 0.21993 0.92141 0.0
C220 C 0.70503 0.20925 0.91418 0.0
C221 C 0.71931 0.189 0.94205 0.0
C222 C 0.73436 0.20721 0.93904 0.0
C223 C 0.66264 0.15923 0.96663 0.0
O224 O 0.68337 0.14837 0.96497 0.0
H225 H 0.69307 0.21507 0.90037 0.0
H226 H 0.72176 0.17555 0.95452 0.0
O227 O 0.65924 0.18077 0.89259 0.0
H228 H 0.73104 0.10462 0.90743 0.0
H229 H 0.75093 0.21047 0.94874 0.0
Cu230 Cu 0.85889 0.84014 0.41619 0.0
N231 N 0.84353 0.8668 0.40782 0.0
N232 N 0.83727 0.90274 0.39871 0.0
C233 C 0.85357 0.88726 0.4061 0.0
C234 C 0.81621 0.89139 0.39574 0.0
C235 C 0.82014 0.86929 0.40136 0.0
O236 O 0.87838 0.84448 0.44439 0.0
C237 C 0.88408 0.80971 0.38683 0.0
O238 O 0.87896 0.79524 0.4035 0.0
H239 H 0.87245 0.8906 0.41021 0.0
H240 H 0.80698 0.85588 0.40045 0.0
N241 N 0.83534 0.8184 0.42242 0.0
N242 N 0.81077 0.789 0.41735 0.0
C243 C 0.82479 0.80458 0.40673 0.0
C244 C 0.82753 0.81151 0.44365 0.0
C245 C 0.81235 0.79346 0.44059 0.0
C246 C 0.86856 0.85424 0.4619 0.0
O247 O 0.84628 0.86204 0.45972 0.0
H248 H 0.82802 0.80557 0.38797 0.0
H249 H 0.83329 0.81845 0.46029 0.0
O250 O 0.87831 0.83015 0.38961 0.0
H251 H 0.79926 0.89833 0.38935 0.0
H252 H 0.80416 0.7837 0.45453 0.0
Cu253 Cu 0.33822 0.68094 0.59076 0.0
N254 N 0.32507 0.65366 0.60078 0.0
N255 N 0.31951 0.6174 0.60836 0.0
C256 C 0.33587 0.63347 0.60296 0.0
C257 C 0.29779 0.62781 0.60976 0.0
C258 C 0.3013 0.65014 0.60524 0.0
O259 O 0.35969 0.67664 0.56383 0.0
C260 C 0.35217 0.693 0.63757 0.0
O261 O 0.33802 0.67653 0.64435 0.0
H262 H 0.35504 0.63046 0.59979 0.0
H263 H 0.28735 0.6629 0.60471 0.0
N264 N 0.31274 0.69956 0.5811 0.0
N265 N 0.28936 0.72971 0.5757 0.0
C266 C 0.30903 0.72118 0.58683 0.0
C267 C 0.29468 0.69426 0.5661 0.0
C268 C 0.28031 0.7128 0.56269 0.0
C269 C 0.35214 0.66605 0.54584 0.0
O270 O 0.33062 0.65652 0.54655 0.0
H271 H 0.3208 0.73059 0.59845 0.0
H272 H 0.29205 0.67801 0.55823 0.0
O273 O 0.35528 0.69662 0.61571 0.0
H274 H 0.2806 0.61976 0.61362 0.0
H275 H 0.26428 0.71372 0.55164 0.0
Cu276 Cu 0.93331 0.84669 0.69568 0.0
N277 N 0.91836 0.84193 0.66662 0.0
N278 N 0.90829 0.84241 0.62857 0.0
C279 C 0.92534 0.84791 0.64474 0.0
C280 C 0.89017 0.8325 0.64072 0.0
C281 C 0.89647 0.83216 0.6641 0.0
O282 O 0.966 0.8588 0.69236 0.0
C283 C 0.89539 0.87772 0.70709 0.0
O284 O 0.89389 0.88099 0.68428 0.0
H285 H 0.94213 0.85663 0.64085 0.0
H286 H 0.88568 0.82561 0.67845 0.0
N287 N 0.93542 0.8192 0.71086 0.0
N288 N 0.93156 0.79347 0.73902 0.0
C289 C 0.9322 0.8155 0.73401 0.0
C290 C 0.93702 0.79886 0.70088 0.0
C291 C 0.93456 0.78291 0.71824 0.0
C292 C 0.97113 0.87937 0.69506 0.0
O293 O 0.95352 0.89363 0.69955 0.0
H294 H 0.92901 0.82868 0.74671 0.0
H295 H 0.93882 0.79587 0.68218 0.0
O296 O 0.91205 0.86506 0.7152 0.0
H297 H 0.87354 0.82593 0.63318 0.0
H298 H 0.9344 0.76498 0.71571 0.0
Cu299 Cu 0.6027 0.16756 0.20214 0.0
N300 N 0.61698 0.16823 0.17226 0.0
N301 N 0.6256 0.16706 0.13384 0.0
C302 C 0.6077 0.16759 0.15024 0.0
C303 C 0.64668 0.16773 0.14599 0.0
C304 C 0.6413 0.1685 0.16954 0.0
O305 O 0.56851 0.15883 0.2025 0.0
C306 C 0.62954 0.12881 0.21376 0.0
O307 O 0.62009 0.12107 0.19415 0.0
H308 H 0.58843 0.16695 0.14633 0.0
H309 H 0.65426 0.16891 0.18387 0.0
N310 N 0.60526 0.19594 0.21533 0.0
N311 N 0.61033 0.22285 0.24209 0.0
C312 C 0.60608 0.2009 0.23842 0.0
C313 C 0.60898 0.21536 0.20397 0.0
C314 C 0.61217 0.23201 0.22046 0.0
C315 C 0.5585 0.1439 0.18982 0.0
O316 O 0.57172 0.13264 0.17463 0.0
H317 H 0.60467 0.1885 0.25221 0.0
H318 H 0.60997 0.21713 0.18505 0.0
O319 O 0.62293 0.14795 0.22115 0.0
H320 H 0.66475 0.1677 0.13837 0.0
H321 H 0.61587 0.24944 0.21682 0.0
Cu322 Cu 0.43282 0.6774 0.31747 0.0
N323 N 0.41722 0.68469 0.34564 0.0
N324 N 0.40484 0.68484 0.38307 0.0
C325 C 0.42211 0.67785 0.36777 0.0
C326 C 0.38868 0.69656 0.37013 0.0
C327 C 0.39642 0.69651 0.34711 0.0
O328 O 0.46429 0.66348 0.32284 0.0
C329 C 0.3939 0.64753 0.30665 0.0
O330 O 0.39101 0.64624 0.32955 0.0
H331 H 0.43735 0.66723 0.37239 0.0
H332 H 0.38714 0.70394 0.33225 0.0
N333 N 0.43836 0.70352 0.30053 0.0
N334 N 0.43531 0.72972 0.2727 0.0
C335 C 0.42506 0.71142 0.28244 0.0
C336 C 0.45759 0.71731 0.30242 0.0
C337 C 0.45578 0.73349 0.28524 0.0
C338 C 0.46826 0.64256 0.32193 0.0
O339 O 0.44997 0.62885 0.31833 0.0
H340 H 0.4087 0.70339 0.27602 0.0
H341 H 0.47217 0.71537 0.31506 0.0
O342 O 0.41144 0.65896 0.29831 0.0
H343 H 0.3723 0.70439 0.37684 0.0
H344 H 0.4686 0.7469 0.28215 0.0
Cu345 Cu 0.09306 0.33866 0.81808 0.0
N346 N 0.10788 0.33063 0.84641 0.0
N347 N 0.11876 0.32859 0.88429 0.0
C348 C 0.10446 0.33896 0.86823 0.0
C349 C 0.13159 0.31327 0.87198 0.0
C350 C 0.12485 0.31458 0.84871 0.0
O351 O 0.06295 0.35508 0.82378 0.0
C352 C 0.13273 0.36786 0.80719 0.0
O353 O 0.13479 0.37042 0.83006 0.0
H354 H 0.09165 0.35219 0.8722 0.0
H355 H 0.13191 0.30462 0.83436 0.0
N356 N 0.08656 0.31247 0.80145 0.0
N357 N 0.089 0.28579 0.77398 0.0
C358 C 0.09753 0.30574 0.78147 0.0
C359 C 0.07059 0.29628 0.80693 0.0
C360 C 0.07202 0.2798 0.79001 0.0
C361 C 0.04515 0.35409 0.80944 0.0
O362 O 0.04743 0.34234 0.79004 0.0
H363 H 0.11182 0.31516 0.77291 0.0
H364 H 0.05875 0.29649 0.82214 0.0
O365 O 0.1156 0.35586 0.799 0.0
H366 H 0.14527 0.30216 0.87915 0.0
H367 H 0.06121 0.2647 0.78949 0.0
Cu368 Cu 0.68321 0.91002 0.82692 0.0
N369 N 0.65519 0.89429 0.81833 0.0
N370 N 0.61663 0.88251 0.81613 0.0
C371 C 0.63182 0.89859 0.82413 0.0
C372 C 0.63101 0.86769 0.8048 0.0
C373 C 0.65473 0.87504 0.80613 0.0
O374 O 0.67488 0.93945 0.83872 0.0
C375 C 0.69478 0.87599 0.86093 0.0
O376 O 0.67203 0.8695 0.85894 0.0
H377 H 0.62619 0.91279 0.83461 0.0
H378 H 0.67066 0.86671 0.79912 0.0
N379 N 0.70381 0.91285 0.80101 0.0
N380 N 0.73847 0.91159 0.78017 0.0
C381 C 0.72825 0.91136 0.80185 0.0
C382 C 0.69813 0.91425 0.77808 0.0
C383 C 0.71943 0.91351 0.76518 0.0
C384 C 0.69019 0.95057 0.85075 0.0
O385 O 0.7115 0.94161 0.85545 0.0
H386 H 0.73811 0.9096 0.8182 0.0
H387 H 0.67977 0.91494 0.77121 0.0
O388 O 0.70197 0.89325 0.84991 0.0
H389 H 0.62481 0.8526 0.79619 0.0
H390 H 0.72053 0.91351 0.74618 0.0
Cu391 Cu 0.83726 0.1014 0.33098 0.0
N392 N 0.86482 0.11768 0.32221 0.0
N393 N 0.90303 0.13032 0.3197 0.0
C394 C 0.88838 0.11376 0.32756 0.0
C395 C 0.88811 0.14505 0.30893 0.0
C396 C 0.8646 0.13718 0.31047 0.0
O397 O 0.84649 0.07398 0.34681 0.0
C398 C 0.82405 0.13544 0.36369 0.0
O399 O 0.84761 0.13871 0.36571 0.0
H400 H 0.89453 0.09951 0.33767 0.0
H401 H 0.84835 0.14532 0.30395 0.0
N402 N 0.81944 0.09389 0.30424 0.0
N403 N 0.78805 0.08925 0.27968 0.0
C404 C 0.79578 0.09842 0.30008 0.0
C405 C 0.82701 0.08154 0.28587 0.0
C406 C 0.80769 0.07863 0.27068 0.0
C407 C 0.83006 0.06045 0.35355 0.0
O408 O 0.80708 0.06601 0.35072 0.0
H409 H 0.7843 0.10766 0.31215 0.0
H410 H 0.8452 0.07484 0.28389 0.0
O411 O 0.81631 0.11977 0.35055 0.0
H412 H 0.89377 0.16045 0.30059 0.0
H413 H 0.80811 0.06944 0.25429 0.0
Cu414 Cu 0.1891 0.60216 0.18059 0.0
N415 N 0.16054 0.61543 0.19185 0.0
N416 N 0.12186 0.62615 0.19678 0.0
C417 C 0.13713 0.61186 0.18566 0.0
C418 C 0.1362 0.63897 0.21052 0.0
C419 C 0.15997 0.63228 0.2075 0.0
O420 O 0.18318 0.57261 0.16776 0.0
C421 C 0.19668 0.63983 0.15027 0.0
O422 O 0.17389 0.6449 0.15488 0.0
H423 H 0.1315 0.59958 0.17277 0.0
H424 H 0.17588 0.63948 0.21576 0.0
N425 N 0.21049 0.5987 0.20575 0.0
N426 N 0.24441 0.60073 0.22739 0.0
C427 C 0.23355 0.6062 0.20683 0.0
C428 C 0.20648 0.58812 0.22625 0.0
C429 C 0.22737 0.58938 0.23968 0.0
C430 C 0.17376 0.56852 0.14779 0.0
O431 O 0.16673 0.5852 0.13438 0.0
H432 H 0.24204 0.61572 0.19288 0.0
H433 H 0.18959 0.57999 0.23101 0.0
O434 O 0.20561 0.62172 0.15829 0.0
H435 H 0.12993 0.65228 0.22194 0.0
H436 H 0.22987 0.58218 0.25698 0.0
Cu437 Cu 0.3386 0.42444 0.6876 0.0
N438 N 0.36934 0.42315 0.70173 0.0
N439 N 0.40908 0.41636 0.70708 0.0
C440 C 0.39003 0.41527 0.69201 0.0
C441 C 0.39987 0.42532 0.72701 0.0
C442 C 0.37543 0.42943 0.72368 0.0
O443 O 0.33703 0.44894 0.66508 0.0
C444 C 0.31579 0.39237 0.65773 0.0
O445 O 0.30382 0.40956 0.64918 0.0
H446 H 0.39089 0.40849 0.67437 0.0
H447 H 0.36299 0.43646 0.73643 0.0
N448 N 0.31437 0.42904 0.71016 0.0
N449 N 0.27937 0.42479 0.72976 0.0
C450 C 0.29402 0.41673 0.71266 0.0
C451 C 0.31249 0.44556 0.72614 0.0
C452 C 0.29098 0.44288 0.7384 0.0
C453 C 0.34708 0.46765 0.66959 0.0
O454 O 0.35966 0.46985 0.6891 0.0
H455 H 0.29002 0.40216 0.70208 0.0
H456 H 0.3256 0.45887 0.72839 0.0
O457 O 0.33208 0.39559 0.67328 0.0
H458 H 0.41004 0.42887 0.74288 0.0
H459 H 0.28408 0.45376 0.7521 0.0
Cu460 Cu 0.84293 0.70304 0.91828 0.0
N461 N 0.83069 0.67616 0.90647 0.0
N462 N 0.82651 0.64031 0.89632 0.0
C463 C 0.84167 0.65604 0.90508 0.0
C464 C 0.80535 0.65101 0.89195 0.0
C465 C 0.808 0.67307 0.89818 0.0
O466 O 0.85948 0.6982 0.94805 0.0
C467 C 0.86112 0.71554 0.87373 0.0
O468 O 0.84256 0.70382 0.86599 0.0
H469 H 0.86013 0.65291 0.91092 0.0
H470 H 0.79428 0.68599 0.89686 0.0
N471 N 0.81687 0.72245 0.92354 0.0
N472 N 0.79208 0.75198 0.92105 0.0
C473 C 0.8135 0.7429 0.91422 0.0
C474 C 0.79701 0.71848 0.93677 0.0
C475 C 0.78165 0.73663 0.93522 0.0
C476 C 0.85007 0.68561 0.96363 0.0
O477 O 0.82968 0.67509 0.9588 0.0
H478 H 0.8262 0.75069 0.90218 0.0
H479 H 0.79374 0.70329 0.94655 0.0
O480 O 0.86484 0.7169 0.89579 0.0
H481 H 0.78913 0.64346 0.88461 0.0
H482 H 0.76419 0.7384 0.94389 0.0
Cu483 Cu 0.32865 0.82702 0.10622 0.0
N484 N 0.31604 0.85215 0.12151 0.0
N485 N 0.31176 0.8862 0.13716 0.0
C486 C 0.32501 0.87312 0.12254 0.0
C487 C 0.29379 0.87301 0.14544 0.0
C488 C 0.29646 0.85209 0.13575 0.0
O489 O 0.3428 0.83516 0.07606 0.0
C490 C 0.3462 0.80542 0.14646 0.0
O491 O 0.32315 0.80671 0.15257 0.0
H492 H 0.34131 0.87846 0.11342 0.0
H493 H 0.28518 0.83765 0.1392 0.0
N494 N 0.30321 0.80688 0.10082 0.0
N495 N 0.28043 0.7759 0.10077 0.0
C496 C 0.30226 0.78497 0.10625 0.0
C497 C 0.28142 0.81179 0.09136 0.0
C498 C 0.2673 0.79276 0.09135 0.0
C499 C 0.34956 0.81968 0.06213 0.0
O500 O 0.34774 0.79882 0.06911 0.0
H501 H 0.31702 0.77604 0.11467 0.0
H502 H 0.27607 0.82818 0.08521 0.0
O503 O 0.35279 0.81327 0.12664 0.0
H504 H 0.27974 0.87812 0.15769 0.0
H505 H 0.2488 0.79148 0.08493 0.0
Cu506 Cu 0.19521 0.2 0.6019 0.0
N507 N 0.21345 0.17624 0.6139 0.0
N508 N 0.22322 0.14255 0.62806 0.0
C509 C 0.20625 0.15487 0.6167 0.0
C510 C 0.24179 0.15671 0.63244 0.0
C511 C 0.23572 0.17744 0.62368 0.0
O512 O 0.18013 0.19083 0.57242 0.0
C513 C 0.16415 0.22759 0.63019 0.0
O514 O 0.17223 0.2442 0.61726 0.0
H515 H 0.18858 0.14872 0.6113 0.0
H516 H 0.24656 0.19247 0.62484 0.0
N517 N 0.21583 0.22437 0.59621 0.0
N518 N 0.23933 0.25438 0.60179 0.0
C519 C 0.22737 0.23728 0.61214 0.0
C520 C 0.221 0.23345 0.57512 0.0
C521 C 0.23536 0.25203 0.57851 0.0
C522 C 0.16773 0.20443 0.56004 0.0
O523 O 0.16384 0.22472 0.56806 0.0
H524 H 0.22633 0.23461 0.63095 0.0
H525 H 0.21453 0.22717 0.55842 0.0
O526 O 0.17104 0.20773 0.62563 0.0
H527 H 0.25853 0.15241 0.64143 0.0
H528 H 0.24239 0.26294 0.56492 0.0
Cu529 Cu 0.68776 0.31647 0.42361 0.0
N530 N 0.70063 0.34335 0.4126 0.0
N531 N 0.70409 0.37918 0.40208 0.0
C532 C 0.6889 0.36294 0.40966 0.0
C533 C 0.72614 0.36935 0.40012 0.0
C534 C 0.72394 0.34727 0.40658 0.0
O535 O 0.67209 0.32196 0.45367 0.0
C536 C 0.67117 0.30401 0.37904 0.0
O537 O 0.69175 0.31344 0.37267 0.0
H538 H 0.66975 0.36531 0.41349 0.0
H539 H 0.73834 0.33493 0.40692 0.0
N540 N 0.71299 0.29599 0.42786 0.0
N541 N 0.73568 0.26517 0.42422 0.0
C542 C 0.71526 0.27595 0.41733 0.0
C543 C 0.73252 0.29799 0.44196 0.0
C544 C 0.74663 0.27903 0.43969 0.0
C545 C 0.66788 0.30628 0.46822 0.0
O546 O 0.673 0.28559 0.46221 0.0
H547 H 0.70235 0.26958 0.40462 0.0
H548 H 0.73621 0.31226 0.45308 0.0
O549 O 0.66529 0.30402 0.40071 0.0
H550 H 0.74266 0.37748 0.39425 0.0
H551 H 0.76347 0.27561 0.44893 0.0
H552 H 0.14529 0.33443 0.18369 0.0
H553 H 0.14985 0.28439 0.12852 0.0
H554 H 0.13831 0.25518 0.15716 0.0
H555 H 0.17125 0.30133 0.22867 0.0
H556 H 0.15191 0.31212 0.25166 0.0
H557 H 0.15897 0.32921 0.22652 0.0
H558 H 0.11289 0.33457 0.21825 0.0
H559 H 0.10568 0.31755 0.24344 0.0
H560 H 0.09366 0.31037 0.21491 0.0
H561 H 0.12818 0.23113 0.19256 0.0
H562 H 0.11949 0.21447 0.23147 0.0
H563 H 0.12232 0.28042 0.26313 0.0
C564 C 0.14356 0.31739 0.1775 0.0
C565 C 0.14838 0.31175 0.1538 0.0
C566 C 0.14615 0.28917 0.14656 0.0
C567 C 0.13962 0.27244 0.1627 0.0
C568 C 0.13534 0.27857 0.18601 0.0
C569 C 0.13713 0.30052 0.19336 0.0
C570 C 0.13245 0.30265 0.21951 0.0
C571 C 0.15499 0.31187 0.23234 0.0
C572 C 0.10982 0.31714 0.2243 0.0
C573 C 0.1279 0.27845 0.2258 0.0
C574 C 0.1296 0.26479 0.20627 0.0
C575 C 0.12671 0.2417 0.20795 0.0
C576 C 0.12193 0.23237 0.23016 0.0
C577 C 0.1201 0.24609 0.25042 0.0
C578 C 0.12312 0.26944 0.24802 0.0
H579 H 0.38239 0.73861 0.76644 0.0
H580 H 0.40208 0.80161 0.734 0.0
H581 H 0.39452 0.78533 0.69466 0.0
H582 H 0.40842 0.70216 0.72197 0.0
H583 H 0.38396 0.68216 0.72368 0.0
H584 H 0.39198 0.69848 0.74916 0.0
H585 H 0.34748 0.71268 0.75237 0.0
H586 H 0.33931 0.69637 0.72696 0.0
H587 H 0.33349 0.72601 0.72734 0.0
H588 H 0.38495 0.76208 0.65894 0.0
H589 H 0.37097 0.73462 0.6295 0.0
H590 H 0.35601 0.68711 0.68539 0.0
C591 C 0.38538 0.74887 0.75103 0.0
C592 C 0.39297 0.77133 0.75322 0.0
C593 C 0.39616 0.78441 0.73268 0.0
C594 C 0.39206 0.77526 0.7103 0.0
C595 C 0.3846 0.75305 0.70876 0.0
C596 C 0.38108 0.74008 0.72859 0.0
C597 C 0.37187 0.71701 0.72216 0.0
C598 C 0.39015 0.69888 0.72969 0.0
C599 C 0.34653 0.71278 0.73284 0.0
C600 C 0.37065 0.71906 0.69562 0.0
C601 C 0.37836 0.73989 0.68824 0.0
C602 C 0.37887 0.74572 0.66452 0.0
C603 C 0.37097 0.72996 0.64792 0.0
C604 C 0.36239 0.7087 0.65513 0.0
C605 C 0.36244 0.70321 0.67932 0.0
H606 H 0.59949 0.26902 0.79559 0.0
H607 H 0.65127 0.25478 0.73993 0.0
H608 H 0.66981 0.22516 0.76438 0.0
H609 H 0.64149 0.26219 0.84295 0.0
H610 H 0.61969 0.24969 0.86266 0.0
H611 H 0.60957 0.26883 0.84026 0.0
H612 H 0.57981 0.23884 0.82435 0.0
H613 H 0.58993 0.21955 0.84666 0.0
H614 H 0.59139 0.21176 0.81605 0.0
H615 H 0.68309 0.19778 0.79478 0.0
H616 H 0.69248 0.17595 0.8303 0.0
H617 H 0.63274 0.2083 0.86718 0.0
C618 C 0.61453 0.25945 0.78849 0.0
C619 C 0.62392 0.26408 0.76583 0.0
C620 C 0.64395 0.25157 0.75729 0.0
C621 C 0.65445 0.23462 0.77097 0.0
C622 C 0.64479 0.23049 0.79323 0.0
C623 C 0.62542 0.24263 0.80205 0.0
C624 C 0.61946 0.23561 0.82706 0.0
C625 C 0.62276 0.25525 0.84424 0.0
C626 C 0.59361 0.22586 0.82861 0.0
C627 C 0.63861 0.21771 0.83095 0.0
C628 C 0.65283 0.21491 0.81108 0.0
C629 C 0.67205 0.19977 0.81043 0.0
C630 C 0.67722 0.18743 0.83075 0.0
C631 C 0.66335 0.19036 0.85158 0.0
C632 C 0.64354 0.20551 0.8515 0.0
H633 H 0.89155 0.72508 0.27905 0.0
H634 H 0.9251 0.77836 0.23861 0.0
H635 H 0.9249 0.80243 0.27379 0.0
H636 H 0.85232 0.75915 0.31278 0.0
H637 H 0.8555 0.74317 0.33947 0.0
H638 H 0.85926 0.72973 0.31137 0.0
H639 H 0.90211 0.71589 0.32382 0.0
H640 H 0.89847 0.72928 0.35201 0.0
H641 H 0.92443 0.73582 0.33384 0.0
H642 H 0.91852 0.82164 0.3127 0.0
H643 H 0.90722 0.8341 0.35276 0.0
H644 H 0.87978 0.76774 0.36826 0.0
C645 C 0.89928 0.74163 0.27761 0.0
C646 C 0.90829 0.74976 0.2559 0.0
C647 C 0.91777 0.77178 0.25486 0.0
C648 C 0.91791 0.78556 0.27483 0.0
C649 C 0.90867 0.77708 0.29582 0.0
C650 C 0.89965 0.75559 0.2974 0.0
C651 C 0.89009 0.75076 0.3219 0.0
C652 C 0.86267 0.74539 0.32133 0.0
C653 C 0.90465 0.73182 0.33358 0.0
C654 C 0.89492 0.77298 0.33377 0.0
C655 C 0.90562 0.78796 0.31843 0.0
C656 C 0.91046 0.80997 0.32498 0.0
C657 C 0.90397 0.8169 0.34773 0.0
C658 C 0.89297 0.80182 0.36371 0.0
C659 C 0.8887 0.77952 0.35664 0.0
H660 H 0.29231 0.16849 0.22958 0.0
H661 H 0.26951 0.10171 0.20953 0.0
H662 H 0.23262 0.10577 0.23409 0.0
H663 H 0.27059 0.16652 0.28994 0.0
H664 H 0.26074 0.19526 0.28987 0.0
H665 H 0.28585 0.18667 0.27155 0.0
H666 H 0.26368 0.20245 0.23487 0.0
H667 H 0.23851 0.21108 0.25306 0.0
H668 H 0.23328 0.19305 0.22817 0.0
H669 H 0.1974 0.11766 0.26007 0.0
H670 H 0.1666 0.13663 0.28481 0.0
H671 H 0.21245 0.19564 0.28749 0.0
C672 C 0.2797 0.15462 0.23051 0.0
C673 C 0.2839 0.13474 0.21766 0.0
C674 C 0.26675 0.1171 0.2192 0.0
C675 C 0.24573 0.11923 0.23315 0.0
C676 C 0.24208 0.13911 0.24545 0.0
C677 C 0.25859 0.1565 0.24424 0.0
C678 C 0.25001 0.17639 0.25853 0.0
C679 C 0.26786 0.1815 0.27867 0.0
C680 C 0.24614 0.19695 0.24271 0.0
C681 C 0.22603 0.16754 0.26786 0.0
C682 C 0.2218 0.14598 0.26021 0.0
C683 C 0.20059 0.13451 0.26623 0.0
C684 C 0.18319 0.14543 0.28031 0.0
C685 C 0.18707 0.16762 0.28817 0.0
C686 C 0.20891 0.17865 0.2819 0.0
H687 H 0.35036 0.8465 0.74811 0.0
H688 H 0.34066 0.89047 0.80795 0.0
H689 H 0.30292 0.90565 0.78992 0.0
H690 H 0.32666 0.88287 0.70268 0.0
H691 H 0.31125 0.86062 0.68734 0.0
H692 H 0.33835 0.85473 0.7041 0.0
H693 H 0.31485 0.82483 0.72799 0.0
H694 H 0.28769 0.83068 0.71134 0.0
H695 H 0.28714 0.83254 0.74299 0.0
H696 H 0.26697 0.91684 0.76421 0.0
H697 H 0.23309 0.91995 0.7355 0.0
H698 H 0.26396 0.86536 0.69513 0.0
C699 C 0.34041 0.85955 0.7572 0.0
C700 C 0.3485 0.86774 0.77912 0.0
C701 C 0.33475 0.88426 0.79098 0.0
C702 C 0.31338 0.89295 0.78086 0.0
C703 C 0.30578 0.88448 0.75918 0.0
C704 C 0.31868 0.86787 0.7477 0.0
C705 C 0.30572 0.86042 0.72552 0.0
C706 C 0.32144 0.86494 0.70362 0.0
C707 C 0.29842 0.83565 0.72707 0.0
C708 C 0.28359 0.87554 0.72618 0.0
C709 C 0.28416 0.8896 0.74549 0.0
C710 C 0.26619 0.90574 0.7492 0.0
C711 C 0.24709 0.90742 0.73283 0.0
C712 C 0.24583 0.89269 0.7134 0.0
C713 C 0.2643 0.87656 0.71011 0.0
H714 H 0.73879 0.39943 0.83439 0.0
H715 H 0.79371 0.40689 0.78002 0.0
H716 H 0.76361 0.39469 0.75011 0.0
H717 H 0.71268 0.3499 0.81188 0.0
H718 H 0.68204 0.35724 0.82032 0.0
H719 H 0.70747 0.36789 0.83683 0.0
H720 H 0.69222 0.40839 0.82999 0.0
H721 H 0.6667 0.39787 0.81345 0.0
H722 H 0.68694 0.41807 0.80039 0.0
H723 H 0.72708 0.38051 0.72638 0.0
H724 H 0.68849 0.36459 0.71139 0.0
H725 H 0.65862 0.36598 0.78211 0.0
C726 C 0.74452 0.39879 0.81617 0.0
C727 C 0.76859 0.4043 0.80952 0.0
C728 C 0.77534 0.40285 0.7855 0.0
C729 C 0.75835 0.39597 0.76841 0.0
C730 C 0.73478 0.39053 0.77568 0.0
C731 C 0.72796 0.39183 0.79904 0.0
C732 C 0.70198 0.38415 0.80265 0.0
C733 C 0.701 0.36358 0.81887 0.0
C734 C 0.68602 0.40327 0.81218 0.0
C735 C 0.69513 0.3782 0.77767 0.0
C736 C 0.71417 0.3821 0.76228 0.0
C737 C 0.71207 0.37748 0.7383 0.0
C738 C 0.69005 0.36846 0.72995 0.0
C739 C 0.67048 0.36403 0.74555 0.0
C740 C 0.67315 0.36919 0.76967 0.0
H741 H 0.8374 0.66645 0.24513 0.0
H742 H 0.85569 0.59905 0.22302 0.0
H743 H 0.81855 0.58491 0.24261 0.0
H744 H 0.81184 0.65213 0.30204 0.0
H745 H 0.78813 0.67292 0.3002 0.0
H746 H 0.81676 0.67741 0.28546 0.0
H747 H 0.79388 0.68322 0.24605 0.0
H748 H 0.7652 0.67853 0.26061 0.0
H749 H 0.77358 0.66178 0.23551 0.0
H750 H 0.77926 0.5782 0.26473 0.0
H751 H 0.74083 0.5795 0.28748 0.0
H752 H 0.74741 0.65156 0.29319 0.0
C753 C 0.8338 0.64867 0.24466 0.0
C754 C 0.84957 0.63381 0.23269 0.0
C755 C 0.84393 0.61072 0.23216 0.0
C756 C 0.82286 0.60255 0.24321 0.0
C757 C 0.80752 0.6177 0.25455 0.0
C758 C 0.81273 0.64028 0.25534 0.0
C759 C 0.79292 0.65315 0.26805 0.0
C760 C 0.80302 0.66457 0.29025 0.0
C761 C 0.78067 0.67017 0.25156 0.0
C762 C 0.77572 0.63429 0.27428 0.0
C763 C 0.78453 0.61395 0.26648 0.0
C764 C 0.77212 0.59405 0.27081 0.0
C765 C 0.75031 0.59495 0.28369 0.0
C766 C 0.74098 0.61564 0.29184 0.0
C767 C 0.75381 0.63553 0.28681 0.0
H768 H 0.28088 0.18567 0.13176 0.0
H769 H 0.35367 0.20129 0.10713 0.0
H770 H 0.34035 0.23944 0.09699 0.0
H771 H 0.24953 0.21495 0.08671 0.0
H772 H 0.22524 0.22492 0.10533 0.0
H773 H 0.24079 0.19931 0.11247 0.0
H774 H 0.25118 0.21487 0.15381 0.0
H775 H 0.2356 0.24055 0.14678 0.0
H776 H 0.2669 0.24119 0.15632 0.0
H777 H 0.3192 0.27506 0.08794 0.0
H778 H 0.29113 0.30615 0.07967 0.0
H779 H 0.23132 0.26776 0.10901 0.0
C780 C 0.29403 0.19729 0.12458 0.0
C781 C 0.3183 0.19054 0.12018 0.0
C782 C 0.33494 0.20605 0.11039 0.0
C783 C 0.32759 0.22779 0.10473 0.0
C784 C 0.30349 0.23383 0.10891 0.0
C785 C 0.2869 0.2191 0.11859 0.0
C786 C 0.26176 0.22962 0.12004 0.0
C787 C 0.24324 0.21641 0.10525 0.0
C788 C 0.25337 0.23168 0.14577 0.0
C789 C 0.26683 0.2524 0.10937 0.0
C790 C 0.29108 0.25447 0.10329 0.0
C791 C 0.30016 0.27367 0.09263 0.0
C792 C 0.28399 0.2912 0.08783 0.0
C793 C 0.25893 0.28945 0.09352 0.0
C794 C 0.25037 0.26979 0.10467 0.0
H795 H 0.80783 0.3292 0.92028 0.0
H796 H 0.77692 0.34412 0.85162 0.0
H797 H 0.75327 0.30939 0.85328 0.0
H798 H 0.81203 0.26963 0.91326 0.0
H799 H 0.80324 0.26367 0.94317 0.0
H800 H 0.81866 0.28942 0.9363 0.0
H801 H 0.78338 0.31192 0.95526 0.0
H802 H 0.76788 0.28626 0.96223 0.0
H803 H 0.75262 0.30748 0.94521 0.0
H804 H 0.73273 0.27308 0.86227 0.0
H805 H 0.71603 0.23824 0.87837 0.0
H806 H 0.7582 0.24796 0.94228 0.0
C807 C 0.79607 0.32531 0.90558 0.0
C808 C 0.7946 0.33952 0.88572 0.0
C809 C 0.77897 0.33349 0.86686 0.0
C810 C 0.76524 0.31378 0.86768 0.0
C811 C 0.76715 0.30026 0.88751 0.0
C812 C 0.78207 0.30578 0.90617 0.0
C813 C 0.78031 0.2886 0.92568 0.0
C814 C 0.80503 0.27715 0.92984 0.0
C815 C 0.77045 0.2992 0.94844 0.0
C816 C 0.76204 0.27256 0.91503 0.0
C817 C 0.75478 0.27957 0.89297 0.0
C818 C 0.73815 0.26749 0.8796 0.0
C819 C 0.72861 0.24773 0.88905 0.0
C820 C 0.73554 0.24024 0.91179 0.0
C821 C 0.75257 0.25295 0.92482 0.0
H822 H 0.77231 0.76571 0.43485 0.0
H823 H 0.8221 0.76906 0.37557 0.0
H824 H 0.80256 0.73583 0.35823 0.0
H825 H 0.77249 0.70621 0.44 0.0
H826 H 0.74076 0.70448 0.44796 0.0
H827 H 0.758 0.72913 0.45514 0.0
H828 H 0.72657 0.75365 0.43292 0.0
H829 H 0.7092 0.72907 0.42572 0.0
H830 H 0.71951 0.74743 0.40264 0.0
H831 H 0.77795 0.70152 0.34782 0.0
H832 H 0.74991 0.66953 0.34481 0.0
H833 H 0.71756 0.68787 0.41187 0.0
C834 C 0.77919 0.75948 0.41825 0.0
C835 C 0.79873 0.77015 0.40659 0.0
C836 C 0.80692 0.76151 0.38472 0.0
C837 C 0.79604 0.7425 0.37479 0.0
C838 C 0.77699 0.7323 0.38693 0.0
C839 C 0.76862 0.74053 0.40816 0.0
C840 C 0.74816 0.72633 0.41787 0.0
C841 C 0.75529 0.71592 0.44165 0.0
C842 C 0.72446 0.73993 0.4199 0.0
C843 C 0.74633 0.70876 0.39881 0.0
C844 C 0.76309 0.71248 0.3811 0.0
C845 C 0.7648 0.69842 0.36163 0.0
C846 C 0.74888 0.68014 0.36019 0.0
C847 C 0.73148 0.67601 0.37816 0.0
C848 C 0.73039 0.69059 0.39771 0.0
H849 H 0.23991 0.83953 0.63861 0.0
H850 H 0.20826 0.85729 0.57129 0.0
H851 H 0.22928 0.82542 0.55265 0.0
H852 H 0.29934 0.81855 0.61528 0.0
H853 H 0.30068 0.79605 0.63633 0.0
H854 H 0.28571 0.8219 0.64394 0.0
H855 H 0.24644 0.80009 0.65421 0.0
H856 H 0.26118 0.77422 0.64655 0.0
H857 H 0.23299 0.78195 0.63247 0.0
H858 H 0.24974 0.78999 0.5421 0.0
H859 H 0.26904 0.75282 0.54002 0.0
H860 H 0.28792 0.75717 0.61395 0.0
C861 C 0.23802 0.83701 0.61984 0.0
C862 C 0.22256 0.85088 0.60631 0.0
C863 C 0.21994 0.84677 0.58192 0.0
C864 C 0.23191 0.82881 0.57118 0.0
C865 C 0.24652 0.81508 0.58506 0.0
C866 C 0.24977 0.81896 0.60883 0.0
C867 C 0.26491 0.80053 0.61998 0.0
C868 C 0.2891 0.80982 0.62944 0.0
C869 C 0.25051 0.78849 0.63945 0.0
C870 C 0.26904 0.78544 0.59887 0.0
C871 C 0.25844 0.79434 0.5789 0.0
C872 C 0.25838 0.78296 0.55753 0.0
C873 C 0.26922 0.7618 0.55655 0.0
C874 C 0.27997 0.75216 0.57678 0.0
C875 C 0.2802 0.76433 0.59813 0.0
H876 H 0.86235 0.71147 0.82574 0.0
H877 H 0.89425 0.74847 0.88374 0.0
H878 H 0.91755 0.77139 0.85542 0.0
H879 H 0.91678 0.71126 0.78843 0.0
H880 H 0.89942 0.71435 0.76171 0.0
H881 H 0.88633 0.70014 0.78663 0.0
H882 H 0.84951 0.72728 0.78582 0.0
H883 H 0.8625 0.74159 0.76096 0.0
H884 H 0.8548 0.75698 0.78721 0.0
H885 H 0.93463 0.79233 0.82056 0.0
H886 H 0.94592 0.80823 0.78182 0.0
H887 H 0.90402 0.75664 0.74691 0.0
C888 C 0.87443 0.72424 0.83253 0.0
C889 C 0.87647 0.72819 0.85696 0.0
C890 C 0.89247 0.74507 0.8651 0.0
C891 C 0.90576 0.75819 0.84915 0.0
C892 C 0.90305 0.75404 0.82515 0.0
C893 C 0.88798 0.73731 0.81689 0.0
C894 C 0.88788 0.73655 0.79025 0.0
C895 C 0.89822 0.71425 0.78123 0.0
C896 C 0.86215 0.74087 0.7805 0.0
C897 C 0.90487 0.75576 0.78479 0.0
C898 C 0.91343 0.76566 0.80514 0.0
C899 C 0.9283 0.78452 0.80451 0.0
C900 C 0.93453 0.79349 0.7825 0.0
C901 C 0.92605 0.78351 0.76145 0.0
C902 C 0.91121 0.76429 0.76271 0.0
H903 H 0.64113 0.2572 0.25117 0.0
H904 H 0.58853 0.21287 0.2836 0.0
H905 H 0.5963 0.2306 0.32224 0.0
H906 H 0.6838 0.25558 0.2975 0.0
H907 H 0.69282 0.28441 0.29461 0.0
H908 H 0.68161 0.26942 0.2694 0.0
H909 H 0.64844 0.2997 0.26308 0.0
H910 H 0.65956 0.3148 0.28831 0.0
H911 H 0.62802 0.3066 0.28686 0.0
H912 H 0.61099 0.25257 0.3576 0.0
H913 H 0.63294 0.2754 0.38703 0.0
H914 H 0.67649 0.3046 0.33118 0.0
C915 C 0.63091 0.25152 0.26631 0.0
C916 C 0.61408 0.23378 0.26439 0.0
C917 C 0.60156 0.22639 0.28474 0.0
C918 C 0.60575 0.23645 0.3067 0.0
C919 C 0.62261 0.25381 0.30801 0.0
C920 C 0.63505 0.26121 0.28835 0.0
C921 C 0.65331 0.27917 0.29465 0.0
C922 C 0.67942 0.27169 0.28869 0.0
C923 C 0.64694 0.30138 0.28251 0.0
C924 C 0.64939 0.28059 0.32098 0.0
C925 C 0.63142 0.26603 0.32834 0.0
C926 C 0.62501 0.2641 0.35201 0.0
C927 C 0.63755 0.27717 0.36859 0.0
C928 C 0.65643 0.29179 0.36143 0.0
C929 C 0.66213 0.29362 0.33725 0.0
H930 H 0.38836 0.73575 0.25905 0.0
H931 H 0.46302 0.75139 0.24038 0.0
H932 H 0.4485 0.77206 0.20544 0.0
H933 H 0.36609 0.72768 0.19992 0.0
H934 H 0.33694 0.74038 0.20584 0.0
H935 H 0.35332 0.72656 0.22913 0.0
H936 H 0.35142 0.76268 0.25426 0.0
H937 H 0.33502 0.7766 0.23106 0.0
H938 H 0.36287 0.78848 0.24222 0.0
H939 H 0.42564 0.79057 0.17203 0.0
H940 H 0.39613 0.80715 0.14412 0.0
H941 H 0.33653 0.78003 0.18538 0.0
C942 C 0.40165 0.74338 0.24751 0.0
C943 C 0.42683 0.74193 0.25243 0.0
C944 C 0.44364 0.75247 0.2371 0.0
C945 C 0.43557 0.76412 0.21713 0.0
C946 C 0.41062 0.76519 0.21279 0.0
C947 C 0.3939 0.75522 0.22763 0.0
C948 C 0.36806 0.7593 0.21937 0.0
C949 C 0.35536 0.73716 0.21319 0.0
C950 C 0.35349 0.77256 0.23783 0.0
C951 C 0.37284 0.77316 0.19757 0.0
C952 C 0.39749 0.77624 0.19394 0.0
C953 C 0.40628 0.78832 0.17475 0.0
C954 C 0.3894 0.79764 0.15896 0.0
C955 C 0.36404 0.79499 0.16262 0.0
C956 C 0.35579 0.7825 0.18217 0.0
H957 H 0.1538 0.2683 0.65013 0.0
H958 H 0.14102 0.19715 0.65847 0.0
H959 H 0.1187 0.20454 0.69542 0.0
H960 H 0.16525 0.27961 0.71001 0.0
H961 H 0.15044 0.30651 0.7101 0.0
H962 H 0.16369 0.29588 0.68336 0.0
H963 H 0.12227 0.30035 0.66199 0.0
H964 H 0.10893 0.31114 0.68865 0.0
H965 H 0.09547 0.28737 0.67418 0.0
H966 H 0.09972 0.21952 0.73259 0.0
H967 H 0.08551 0.24088 0.76707 0.0
H968 H 0.1106 0.30226 0.73435 0.0
C969 C 0.14598 0.25428 0.6595 0.0
C970 C 0.14907 0.23214 0.65131 0.0
C971 C 0.13884 0.21426 0.66434 0.0
C972 C 0.12612 0.21829 0.68535 0.0
C973 C 0.12377 0.24028 0.69311 0.0
C974 C 0.13335 0.25799 0.68055 0.0
C975 C 0.12924 0.27993 0.69327 0.0
C976 C 0.1536 0.29113 0.69955 0.0
C977 C 0.11301 0.29562 0.67865 0.0
C978 C 0.11611 0.27177 0.71508 0.0
C979 C 0.113 0.24888 0.71459 0.0
C980 C 0.10186 0.23749 0.73306 0.0
C981 C 0.09373 0.24982 0.75256 0.0
C982 C 0.09683 0.27333 0.75354 0.0
C983 C 0.1081 0.28433 0.73438 0.0
H984 H 0.7603 0.91686 0.73704 0.0
H985 H 0.77541 0.89877 0.80973 0.0
H986 H 0.81806 0.89192 0.79945 0.0
H987 H 0.79643 0.87459 0.71172 0.0
H988 H 0.80682 0.89141 0.68741 0.0
H989 H 0.77783 0.8972 0.70088 0.0
H990 H 0.7912 0.93808 0.70852 0.0
H991 H 0.82032 0.93238 0.69512 0.0
H992 H 0.81889 0.94343 0.7246 0.0
H993 H 0.85865 0.88412 0.78096 0.0
H994 H 0.89354 0.87515 0.75522 0.0
H995 H 0.85221 0.89768 0.69455 0.0
C996 C 0.77243 0.91159 0.75095 0.0
C997 C 0.764 0.90853 0.77432 0.0
C998 C 0.78097 0.90163 0.79176 0.0
C999 C 0.80545 0.89761 0.7861 0.0
C1000 C 0.81293 0.90055 0.76291 0.0
C1001 C 0.79694 0.90738 0.7456 0.0
C1002 C 0.8093 0.90796 0.72174 0.0
C1003 C 0.79686 0.89183 0.70443 0.0
C1004 C 0.80997 0.93189 0.71192 0.0
C1005 C 0.8346 0.89993 0.72831 0.0
C1006 C 0.83638 0.89596 0.75219 0.0
C1007 C 0.85756 0.88739 0.76226 0.0
C1008 C 0.87731 0.88235 0.74748 0.0
C1009 C 0.87573 0.88582 0.72286 0.0
C1010 C 0.85418 0.89512 0.71331 0.0
H1011 H 0.66072 0.14488 0.24764 0.0
H1012 H 0.64648 0.08683 0.20394 0.0
H1013 H 0.68447 0.06938 0.21814 0.0
H1014 H 0.72323 0.14726 0.23708 0.0
H1015 H 0.73166 0.15575 0.2664 0.0
H1016 H 0.702 0.16267 0.25507 0.0
H1017 H 0.68167 0.14315 0.2907 0.0
H1018 H 0.71132 0.13631 0.30228 0.0
H1019 H 0.68928 0.11452 0.29732 0.0
H1020 H 0.72576 0.05976 0.23409 0.0
H1021 H 0.76669 0.05801 0.25191 0.0
H1022 H 0.75442 0.12238 0.285 0.0
C1023 C 0.66525 0.12826 0.24149 0.0
C1024 C 0.6505 0.11717 0.22475 0.0
C1025 C 0.6574 0.09562 0.21682 0.0
C1026 C 0.67896 0.08556 0.22479 0.0
C1027 C 0.69342 0.0972 0.24077 0.0
C1028 C 0.68678 0.11799 0.2492 0.0
C1029 C 0.70629 0.12752 0.2652 0.0
C1030 C 0.71639 0.1496 0.25534 0.0
C1031 C 0.69656 0.13055 0.29037 0.0
C1032 C 0.72516 0.10904 0.26404 0.0
C1033 C 0.71731 0.09166 0.24995 0.0
C1034 C 0.732 0.07317 0.24533 0.0
C1035 C 0.75532 0.07242 0.25538 0.0
C1036 C 0.76381 0.09003 0.26988 0.0
C1037 C 0.74835 0.10849 0.27433 0.0
H1038 H 0.34937 0.63012 0.3185 0.0
H1039 H 0.39595 0.64421 0.25856 0.0
H1040 H 0.36331 0.63173 0.23173 0.0
H1041 H 0.31897 0.58076 0.2938 0.0
H1042 H 0.28997 0.58805 0.30657 0.0
H1043 H 0.31779 0.59614 0.32106 0.0
H1044 H 0.30362 0.63746 0.32079 0.0
H1045 H 0.27585 0.62954 0.30621 0.0
H1046 H 0.29535 0.65041 0.29328 0.0
H1047 H 0.3247 0.61995 0.21138 0.0
H1048 H 0.28322 0.6095 0.19902 0.0
H1049 H 0.26152 0.6042 0.27229 0.0
C1050 C 0.35292 0.63017 0.29976 0.0
C1051 C 0.37531 0.638 0.29065 0.0
C1052 C 0.379 0.63818 0.26597 0.0
C1053 C 0.36057 0.63112 0.25058 0.0
C1054 C 0.33855 0.62391 0.26013 0.0
C1055 C 0.33468 0.62332 0.28416 0.0
C1056 C 0.30892 0.61605 0.28988 0.0
C1057 C 0.30892 0.59393 0.30364 0.0
C1058 C 0.29513 0.63447 0.30333 0.0
C1059 C 0.29879 0.61295 0.26531 0.0
C1060 C 0.31621 0.61743 0.24841 0.0
C1061 C 0.31093 0.61632 0.22447 0.0
C1062 C 0.28722 0.61054 0.21763 0.0
C1063 C 0.26895 0.60604 0.23464 0.0
C1064 C 0.27503 0.60718 0.2588 0.0
H1065 H 0.25893 0.42619 0.77335 0.0
H1066 H 0.24654 0.40401 0.70169 0.0
H1067 H 0.20659 0.38873 0.71338 0.0
H1068 H 0.23279 0.37867 0.80121 0.0
H1069 H 0.21944 0.39421 0.82514 0.0
H1070 H 0.2465 0.40445 0.81087 0.0
H1071 H 0.22473 0.44199 0.80212 0.0
H1072 H 0.19757 0.43184 0.81635 0.0
H1073 H 0.19617 0.44188 0.78648 0.0
H1074 H 0.16846 0.37515 0.73296 0.0
H1075 H 0.13557 0.36264 0.75939 0.0
H1076 H 0.17278 0.39328 0.81861 0.0
C1077 C 0.24765 0.41838 0.76009 0.0
C1078 C 0.25584 0.41631 0.7366 0.0
C1079 C 0.24076 0.40558 0.71982 0.0
C1080 C 0.21796 0.397 0.72626 0.0
C1081 C 0.21049 0.39922 0.74957 0.0
C1082 C 0.2249 0.40956 0.76627 0.0
C1083 C 0.21303 0.40884 0.79035 0.0
C1084 C 0.22888 0.39576 0.80792 0.0
C1085 C 0.20755 0.43255 0.79935 0.0
C1086 C 0.18978 0.39634 0.7846 0.0
C1087 C 0.1886 0.39112 0.76095 0.0
C1088 C 0.16913 0.37922 0.7515 0.0
C1089 C 0.1505 0.37221 0.76668 0.0
C1090 C 0.15151 0.377 0.7911 0.0
C1091 C 0.17136 0.38944 0.80004 0.0
H1092 H 0.74418 0.76241 0.91614 0.0
H1093 H 0.81709 0.78952 0.90955 0.0
H1094 H 0.79978 0.82556 0.89637 0.0
H1095 H 0.72016 0.7878 0.86528 0.0
H1096 H 0.69046 0.79295 0.87771 0.0
H1097 H 0.70857 0.76996 0.88826 0.0
H1098 H 0.70524 0.78531 0.93079 0.0
H1099 H 0.68715 0.80842 0.92035 0.0
H1100 H 0.71456 0.8136 0.93691 0.0
H1101 H 0.77455 0.85803 0.88232 0.0
H1102 H 0.7436 0.88384 0.86646 0.0
H1103 H 0.68707 0.83536 0.88218 0.0
C1104 C 0.75649 0.77604 0.91235 0.0
C1105 C 0.782 0.77319 0.914 0.0
C1106 C 0.79751 0.79129 0.90827 0.0
C1107 C 0.78784 0.81186 0.90095 0.0
C1108 C 0.76261 0.81406 0.89944 0.0
C1109 C 0.74715 0.79661 0.90491 0.0
C1110 C 0.72079 0.80285 0.90049 0.0
C1111 C 0.70933 0.78748 0.88182 0.0
C1112 C 0.70607 0.80253 0.92351 0.0
C1113 C 0.72385 0.82644 0.89134 0.0
C1114 C 0.74808 0.83267 0.89111 0.0
C1115 C 0.75551 0.85339 0.88258 0.0
C1116 C 0.73775 0.86795 0.87363 0.0
C1117 C 0.71285 0.86168 0.87312 0.0
C1118 C 0.70588 0.84077 0.8825 0.0
H1119 H 0.18486 0.68233 0.13616 0.0
H1120 H 0.24519 0.63544 0.13935 0.0
H1121 H 0.27296 0.66476 0.1247 0.0
H1122 H 0.20504 0.71251 0.08317 0.0
H1123 H 0.19481 0.73908 0.09441 0.0
H1124 H 0.17937 0.71378 0.10293 0.0
H1125 H 0.1864 0.72352 0.14684 0.0
H1126 H 0.20198 0.74874 0.13848 0.0
H1127 H 0.21694 0.72863 0.15717 0.0
H1128 H 0.29479 0.70022 0.11288 0.0
H1129 H 0.30854 0.73853 0.10359 0.0
H1130 H 0.23394 0.76205 0.10864 0.0
C1131 C 0.20381 0.67803 0.13333 0.0
C1132 C 0.21278 0.6565 0.13881 0.0
C1133 C 0.23781 0.65176 0.13516 0.0
C1134 C 0.25375 0.66832 0.12686 0.0
C1135 C 0.24439 0.68952 0.12217 0.0
C1136 C 0.21995 0.69436 0.12511 0.0
C1137 C 0.21469 0.71874 0.12004 0.0
C1138 C 0.19746 0.72116 0.09887 0.0
C1139 C 0.2044 0.7306 0.14194 0.0
C1140 C 0.24005 0.72697 0.11418 0.0
C1141 C 0.25693 0.70987 0.1154 0.0
C1142 C 0.28168 0.71369 0.11167 0.0
C1143 C 0.28935 0.73554 0.10657 0.0
C1144 C 0.27235 0.75335 0.10527 0.0
C1145 C 0.24737 0.74882 0.10903 0.0
H1146 H 0.2862 0.37875 0.6214 0.0
H1147 H 0.32825 0.35371 0.68048 0.0
H1148 H 0.31341 0.31557 0.67242 0.0
H1149 H 0.23447 0.34391 0.62924 0.0
H1150 H 0.22933 0.33948 0.59827 0.0
H1151 H 0.24374 0.36479 0.60821 0.0
H1152 H 0.28067 0.35694 0.581 0.0
H1153 H 0.26629 0.33167 0.57085 0.0
H1154 H 0.29649 0.33061 0.58325 0.0
H1155 H 0.29178 0.28047 0.65957 0.0
H1156 H 0.26779 0.25048 0.64046 0.0
H1157 H 0.2414 0.29797 0.58885 0.0
C1158 C 0.29247 0.36522 0.63251 0.0
C1159 C 0.3084 0.36926 0.65158 0.0
C1160 C 0.31616 0.35106 0.66569 0.0
C1161 C 0.30775 0.32932 0.66132 0.0
C1162 C 0.2918 0.32596 0.6426 0.0
C1163 C 0.28449 0.34335 0.62822 0.0
C1164 C 0.26731 0.33521 0.6092 0.0
C1165 C 0.24223 0.34652 0.61137 0.0
C1166 C 0.27836 0.33882 0.58462 0.0
C1167 C 0.26592 0.31059 0.61528 0.0
C1168 C 0.28002 0.30562 0.63472 0.0
C1169 C 0.28087 0.28412 0.64418 0.0
C1170 C 0.26711 0.26724 0.63334 0.0
C1171 C 0.25295 0.27189 0.61312 0.0
C1172 C 0.25241 0.29388 0.60405 0.0
H1173 H 0.78262 0.25071 0.42166 0.0
H1174 H 0.70789 0.23065 0.40874 0.0
H1175 H 0.72233 0.1942 0.39394 0.0
H1176 H 0.80786 0.22596 0.37074 0.0
H1177 H 0.83578 0.21736 0.38477 0.0
H1178 H 0.81946 0.24135 0.3956 0.0
H1179 H 0.81767 0.22356 0.43714 0.0
H1180 H 0.83399 0.19947 0.42643 0.0
H1181 H 0.8049 0.19602 0.44069 0.0
H1182 H 0.74499 0.16059 0.37896 0.0
H1183 H 0.77424 0.13261 0.36405 0.0
H1184 H 0.83423 0.17442 0.38721 0.0
C1185 C 0.76926 0.23853 0.41611 0.0
C1186 C 0.7441 0.24357 0.41639 0.0
C1187 C 0.72726 0.2273 0.40846 0.0
C1188 C 0.73528 0.20646 0.40019 0.0
C1189 C 0.76021 0.20212 0.4 0.0
C1190 C 0.77696 0.21768 0.40775 0.0
C1191 C 0.80279 0.20921 0.40473 0.0
C1192 C 0.81732 0.22437 0.38796 0.0
C1193 C 0.81559 0.20693 0.42868 0.0
C1194 C 0.79796 0.18656 0.39382 0.0
C1195 C 0.77327 0.18273 0.39137 0.0
C1196 C 0.76437 0.16332 0.38095 0.0
C1197 C 0.78114 0.14752 0.37254 0.0
C1198 C 0.80655 0.15124 0.37454 0.0
C1199 C 0.81495 0.17094 0.38562 0.0
H1200 H 0.15341 0.23282 0.52496 0.0
H1201 H 0.16627 0.16269 0.53986 0.0
H1202 H 0.15703 0.15341 0.49835 0.0
H1203 H 0.10429 0.22539 0.48187 0.0
H1204 H 0.11503 0.24801 0.4637 0.0
H1205 H 0.12008 0.24864 0.49503 0.0
H1206 H 0.16644 0.25333 0.48794 0.0
H1207 H 0.16156 0.25263 0.45665 0.0
H1208 H 0.18238 0.23313 0.47009 0.0
H1209 H 0.14846 0.15225 0.45426 0.0
H1210 H 0.14338 0.1596 0.41162 0.0
H1211 H 0.13736 0.23052 0.42606 0.0
C1212 C 0.15381 0.21544 0.51966 0.0
C1213 C 0.16034 0.19845 0.53574 0.0
C1214 C 0.16119 0.17598 0.52789 0.0
C1215 C 0.15592 0.17055 0.50435 0.0
C1216 C 0.14991 0.18778 0.48886 0.0
C1217 C 0.14889 0.20978 0.49624 0.0
C1218 C 0.14377 0.22542 0.4759 0.0
C1219 C 0.11934 0.23758 0.47934 0.0
C1220 C 0.16479 0.2421 0.47245 0.0
C1221 C 0.14245 0.20886 0.45581 0.0
C1222 C 0.1457 0.18719 0.46361 0.0
C1223 C 0.14575 0.16916 0.44802 0.0
C1224 C 0.14276 0.17346 0.42385 0.0
C1225 C 0.14008 0.19562 0.41549 0.0
C1226 C 0.13961 0.21342 0.43185 0.0
H1227 H 0.35897 0.7899 0.0268 0.0
H1228 H 0.35778 0.86093 0.04213 0.0
H1229 H 0.36872 0.86899 1.00071 0.0
H1230 H 0.40938 0.79082 0.98457 0.0
H1231 H 0.39551 0.76989 0.96614 0.0
H1232 H 0.38985 0.76989 0.99738 0.0
H1233 H 0.34336 0.77143 0.98959 0.0
H1234 H 0.34885 0.77148 0.95838 0.0
H1235 H 0.33109 0.79353 0.97157 0.0
H1236 H 0.37759 0.86906 0.95652 0.0
H1237 H 0.38181 0.86111 0.9139 0.0
H1238 H 0.37667 0.79015 0.92831 0.0
C1239 C 0.36137 0.80717 0.02161 0.0
C1240 C 0.35764 0.82478 0.03779 0.0
C1241 C 0.36063 0.84715 0.03009 0.0
C1242 C 0.36689 0.85188 1.0066 0.0
C1243 C 0.37012 0.83407 0.99104 0.0
C1244 C 0.36745 0.81216 0.9983 0.0
C1245 C 0.37041 0.79604 0.97799 0.0
C1246 C 0.39261 0.78076 0.98175 0.0
C1247 C 0.34703 0.78232 0.97416 0.0
C1248 C 0.37468 0.81226 0.95802 0.0
C1249 C 0.37478 0.83413 0.96584 0.0
C1250 C 0.37772 0.85197 0.95028 0.0
C1251 C 0.38022 0.84732 0.92611 0.0
C1252 C 0.37947 0.82502 0.91774 0.0
C1253 C 0.37707 0.80737 0.93409 0.0
H1254 H 0.66111 0.27705 0.50486 0.0
H1255 H 0.65587 0.34731 0.48645 0.0
H1256 H 0.64468 0.35624 0.52749 0.0
H1257 H 0.61066 0.27645 0.54714 0.0
H1258 H 0.62604 0.25728 0.56658 0.0
H1259 H 0.63187 0.25631 0.53539 0.0
H1260 H 0.67806 0.26116 0.54329 0.0
H1261 H 0.67237 0.26228 0.57446 0.0
H1262 H 0.68844 0.28478 0.56022 0.0
H1263 H 0.63667 0.35775 0.5712 0.0
H1264 H 0.63209 0.35175 0.61386 0.0
H1265 H 0.64184 0.28038 0.60344 0.0
C1266 C 0.65727 0.29429 0.50933 0.0
C1267 C 0.65931 0.31147 0.49237 0.0
C1268 C 0.65436 0.33383 0.49909 0.0
C1269 C 0.64798 0.33908 0.52237 0.0
C1270 C 0.64652 0.32178 0.53872 0.0
C1271 C 0.6509 0.29982 0.53247 0.0
C1272 C 0.64907 0.28445 0.55357 0.0
C1273 C 0.62816 0.26763 0.55048 0.0
C1274 C 0.67343 0.27247 0.55815 0.0
C1275 C 0.64341 0.30124 0.57276 0.0
C1276 C 0.64186 0.32265 0.56383 0.0
C1277 C 0.63756 0.34101 0.57834 0.0
C1278 C 0.63487 0.33739 0.60261 0.0
C1279 C 0.63652 0.31556 0.61224 0.0
C1280 C 0.64066 0.29731 0.59688 0.0
H1281 H 0.84639 0.65963 0.10055 0.0
H1282 H 0.91278 0.6981 0.10822 0.0
H1283 H 0.91532 0.70199 0.06489 0.0
H1284 H 0.86328 0.63071 0.04614 0.0
H1285 H 0.83272 0.63205 0.03463 0.0
H1286 H 0.83762 0.63069 0.06595 0.0
H1287 H 0.81232 0.66693 0.07146 0.0
H1288 H 0.80737 0.66842 0.04021 0.0
H1289 H 0.82079 0.69176 0.05548 0.0
H1290 H 0.90817 0.70442 0.02065 0.0
H1291 H 0.89261 0.70447 0.97978 0.0
H1292 H 0.831 0.6642 1.0019 0.0
C1293 C 0.86155 0.66879 0.09316 0.0
C1294 C 0.87935 0.67864 0.10779 0.0
C1295 C 0.89908 0.69023 0.09735 0.0
C1296 C 0.9006 0.69258 0.07277 0.0
C1297 C 0.8824 0.68302 0.05891 0.0
C1298 C 0.86337 0.6712 0.06878 0.0
C1299 C 0.84552 0.66334 0.05029 0.0
C1300 C 0.84475 0.63767 0.04919 0.0
C1301 C 0.82 0.67321 0.05462 0.0
C1302 C 0.8571 0.67306 0.02844 0.0
C1303 C 0.87845 0.68424 0.03367 0.0
C1304 C 0.89163 0.69548 0.01635 0.0
C1305 C 0.88263 0.69544 0.99319 0.0
C1306 C 0.86063 0.68426 0.98759 0.0
C1307 C 0.84799 0.67273 1.00549 0.0
H1308 H 0.42875 0.09647 0.1507 0.0
H1309 H 0.39708 0.1329 0.2093 0.0
H1310 H 0.43828 0.14467 0.22173 0.0
H1311 H 0.48376 0.07767 0.18129 0.0
H1312 H 0.50265 0.08099 0.15557 0.0
H1313 H 0.47084 0.07425 0.15235 0.0
H1314 H 0.465 0.10893 0.12563 0.0
H1315 H 0.49672 0.11585 0.12887 0.0
H1316 H 0.47368 0.13611 0.13642 0.0
H1317 H 0.48281 0.15455 0.2261 0.0
H1318 H 0.52713 0.16078 0.22292 0.0
H1319 H 0.52963 0.11759 0.16156 0.0
C1320 C 0.43043 0.10667 0.16636 0.0
C1321 C 0.40961 0.11371 0.17906 0.0
C1322 C 0.41271 0.1272 0.19933 0.0
C1323 C 0.43606 0.134 0.20651 0.0
C1324 C 0.45613 0.12707 0.19332 0.0
C1325 C 0.45355 0.11356 0.17376 0.0
C1326 C 0.47793 0.10905 0.16214 0.0
C1327 C 0.48416 0.084 0.16289 0.0
C1328 C 0.47834 0.11803 0.13677 0.0
C1329 C 0.49464 0.1224 0.178 0.0
C1330 C 0.48173 0.13262 0.19591 0.0
C1331 C 0.49311 0.14646 0.21227 0.0
C1332 C 0.51832 0.14994 0.21026 0.0
C1333 C 0.53195 0.13962 0.19204 0.0
C1334 C 0.51984 0.12558 0.17581 0.0
H1335 H 1.0123 0.85381 0.68861 0.0
H1336 H 0.98825 0.92223 0.69924 0.0
H1337 H 0.03104 0.9349 0.6982 0.0
H1338 H 0.06636 0.85729 0.72441 0.0
H1339 H 0.08426 0.83979 0.7052 0.0
H1340 H 0.05175 0.83607 0.70687 0.0
H1341 H 0.04835 0.84145 0.66174 0.0
H1342 H 0.08085 0.84506 0.65992 0.0
H1343 H 0.0608 0.86627 0.64841 0.0
H1344 H 0.07662 0.9402 0.69535 0.0
H1345 H 0.12125 0.93774 0.69026 0.0
H1346 H 0.11544 0.8658 0.68213 0.0
C1347 C 0.01598 0.87148 0.69071 0.0
C1348 C 0.99684 0.88702 0.694 0.0
C1349 C 1.00255 0.90998 0.69669 0.0
C1350 C 0.02682 0.91735 0.69617 0.0
C1351 C 0.04523 0.90157 0.69301 0.0
C1352 C 0.0401 0.87911 0.6903 0.0
C1353 C 0.0632 0.86559 0.68694 0.0
C1354 C 0.06659 0.84869 0.70706 0.0
C1355 C 0.0633 0.85391 0.66282 0.0
C1356 C 0.08214 0.88396 0.68805 0.0
C1357 C 0.07143 0.90459 0.69159 0.0
C1358 C 0.08521 0.92412 0.69267 0.0
C1359 C 0.11057 0.92254 0.68978 0.0
C1360 C 0.12193 0.90158 0.68591 0.0
C1361 C 0.10742 0.88206 0.68529 0.0
H1362 H 1.00052 0.34523 0.79019 0.0
H1363 H 0.0366 0.38767 0.84132 0.0
H1364 H 0.99711 0.40557 0.85072 0.0
H1365 H 0.95612 0.38571 0.76944 0.0
H1366 H 0.93213 0.36531 0.76692 0.0
H1367 H 0.96343 0.35694 0.76317 0.0
H1368 H 0.9583 0.32712 0.79586 0.0
H1369 H 0.92701 0.33535 0.79967 0.0
H1370 H 0.94745 0.33551 0.82448 0.0
H1371 H 0.95342 0.41847 0.85479 0.0
H1372 H 0.90878 0.4235 0.85542 0.0
H1373 H 0.90117 0.37134 0.80283 0.0
C1374 C 1.00019 0.35847 0.80317 0.0
C1375 C 0.02169 0.36521 0.81488 0.0
C1376 C 0.02037 0.38229 0.83209 0.0
C1377 C 0.99804 0.3926 0.83748 0.0
C1378 C 0.97718 0.38549 0.82565 0.0
C1379 C 0.97805 0.3687 0.80898 0.0
C1380 C 0.95286 0.36323 0.79976 0.0
C1381 C 0.95104 0.36809 0.77325 0.0
C1382 C 0.94601 0.33886 0.80528 0.0
C1383 C 0.93761 0.37949 0.81393 0.0
C1384 C 0.952 0.39238 0.82854 0.0
C1385 C 0.94199 0.40848 0.84341 0.0
C1386 C 0.91659 0.41124 0.84359 0.0
C1387 C 0.90142 0.3978 0.8292 0.0
C1388 C 0.91222 0.38188 0.81405 0.0
H1389 H 0.51053 0.66689 0.32423 0.0
H1390 H 0.48336 0.59879 0.32284 0.0
H1391 H 0.52568 0.58464 0.32408 0.0
H1392 H 0.56233 0.65753 0.2871 0.0
H1393 H 0.58181 0.67633 0.30318 0.0
H1394 H 0.54941 0.68104 0.30256 0.0
H1395 H 0.54817 0.68074 0.34815 0.0
H1396 H 0.58059 0.67617 0.34892 0.0
H1397 H 0.56044 0.6571 0.36387 0.0
H1398 H 0.57127 0.57801 0.32581 0.0
H1399 H 0.61622 0.57947 0.32818 0.0
H1400 H 0.61316 0.65197 0.32748 0.0
C1401 C 0.51341 0.64898 0.3243 0.0
C1402 C 0.49357 0.63395 0.3235 0.0
C1403 C 0.49823 0.61065 0.32347 0.0
C1404 C 0.52222 0.60245 0.32415 0.0
C1405 C 0.54134 0.61776 0.32474 0.0
C1406 C 0.53718 0.64053 0.32483 0.0
C1407 C 0.56085 0.65348 0.32545 0.0
C1408 C 0.56376 0.66794 0.30325 0.0
C1409 C 0.56261 0.66771 0.34794 0.0
C1410 C 0.57903 0.63445 0.32574 0.0
C1411 C 0.56745 0.61396 0.32536 0.0
C1412 C 0.58052 0.59397 0.32603 0.0
C1413 C 0.60605 0.59497 0.32735 0.0
C1414 C 0.61827 0.61582 0.32789 0.0
C1415 C 0.60445 0.63575 0.32687 0.0
H1416 H 0.19663 0.43711 0.15352 0.0
H1417 H 0.16382 0.43174 0.08429 0.0
H1418 H 0.1551 0.47226 0.08481 0.0
H1419 H 0.15549 0.47883 0.17693 0.0
H1420 H 0.17914 0.49307 0.19299 0.0
H1421 H 0.18155 0.46349 0.18754 0.0
H1422 H 0.22364 0.46951 0.16787 0.0
H1423 H 0.22136 0.49908 0.17324 0.0
H1424 H 0.22633 0.48893 0.14376 0.0
H1425 H 0.15184 0.51412 0.09233 0.0
H1426 H 0.15386 0.55322 0.10638 0.0
H1427 H 0.18926 0.53063 0.17042 0.0
C1428 C 0.18766 0.44436 0.1384 0.0
C1429 C 0.18098 0.4311 0.11884 0.0
C1430 C 0.1689 0.44139 0.09961 0.0
C1431 C 0.16397 0.46446 0.0997 0.0
C1432 C 0.17112 0.47702 0.11917 0.0
C1433 C 0.18263 0.46728 0.1382 0.0
C1434 C 0.18901 0.48445 0.15676 0.0
C1435 C 0.17548 0.47967 0.17992 0.0
C1436 C 0.21673 0.48556 0.16062 0.0
C1437 C 0.17956 0.50548 0.14512 0.0
C1438 C 0.16922 0.5009 0.12348 0.0
C1439 C 0.15978 0.51785 0.10931 0.0
C1440 C 0.16102 0.54002 0.11743 0.0
C1441 C 0.17167 0.54505 0.13953 0.0
C1442 C 0.18089 0.52742 0.1535 0.0
H1443 H 0.71822 0.97784 0.87838 0.0
H1444 H 0.64962 0.97565 0.84049 0.0
H1445 H 0.64143 0.0148 0.85193 0.0
H1446 H 0.69681 0.01271 0.92694 0.0
H1447 H 0.72523 0.02762 0.92911 0.0
H1448 H 0.72494 0.99911 0.91893 0.0
H1449 H 0.74737 0.01112 0.88084 0.0
H1450 H 0.74765 0.03965 0.89085 0.0
H1451 H 0.73446 0.03284 0.86271 0.0
H1452 H 0.64195 0.05506 0.86582 0.0
H1453 H 0.651 0.09275 0.88109 0.0
H1454 H 0.71871 0.06791 0.9107 0.0
C1455 C 0.70136 0.98549 0.87263 0.0
C1456 C 0.68457 0.97365 0.85852 0.0
C1457 C 0.66275 0.98435 0.85135 0.0
C1458 C 0.65793 1.00659 0.85777 0.0
C1459 C 0.67501 0.01784 0.8715 0.0
C1460 C 0.69622 1.00759 0.87895 0.0
C1461 C 0.71193 0.02348 0.89305 0.0
C1462 C 0.71489 0.01523 0.91852 0.0
C1463 C 0.73682 0.02698 0.88114 0.0
C1464 C 0.6965 0.04442 0.89196 0.0
C1465 C 0.67521 0.04084 0.8796 0.0
C1466 C 0.65846 0.05798 0.87574 0.0
C1467 C 0.66372 0.07935 0.8846 0.0
C1468 C 0.6856 0.08345 0.89715 0.0
C1469 C 0.70196 0.06555 0.90101 0.0
H1470 H 0.79905 0.02763 0.36881 0.0
H1471 H 0.87574 0.04226 0.35838 0.0
H1472 H 0.88618 1.00383 0.37073 0.0
H1473 H 0.80675 0.9916 0.42037 0.0
H1474 H 0.7827 0.97297 0.41144 0.0
H1475 H 0.78153 1.00204 0.40329 0.0
H1476 H 0.77762 0.99079 0.35941 0.0
H1477 H 0.77893 0.96172 0.36739 0.0
H1478 H 0.80036 0.97285 0.34642 0.0
H1479 H 0.88793 0.9629 0.38169 0.0
H1480 H 0.88101 0.92323 0.39104 0.0
H1481 H 0.80319 0.93588 0.39529 0.0
C1482 C 0.81808 0.02289 0.36939 0.0
C1483 C 0.83658 0.03801 0.36265 0.0
C1484 C 0.86124 0.03102 0.36354 0.0
C1485 C 0.86736 0.00921 0.37053 0.0
C1486 C 0.84862 0.99463 0.37671 0.0
C1487 C 0.8245 1.00124 0.37637 0.0
C1488 C 0.80775 0.98218 0.38307 0.0
C1489 C 0.79387 0.98752 0.4059 0.0
C1490 C 0.79014 0.97656 0.36286 0.0
C1491 C 0.82618 0.96368 0.38681 0.0
C1492 C 0.84966 0.9712 0.38318 0.0
C1493 C 0.86963 0.9569 0.38486 0.0
C1494 C 0.86548 0.93434 0.3903 0.0
C1495 C 0.84152 0.92618 0.39402 0.0
C1496 C 0.82173 0.94129 0.3924 0.0
H1497 H 0.36845 0.509 0.67277 0.0
H1498 H 0.31564 0.47119 0.63224 0.0
H1499 H 0.30557 0.50516 0.60955 0.0
H1500 H 0.33429 0.5578 0.6782 0.0
H1501 H 0.35959 0.57677 0.67527 0.0
H1502 H 0.36449 0.54909 0.68667 0.0
H1503 H 0.39685 0.54168 0.6544 0.0
H1504 H 0.39211 0.56942 0.64292 0.0
H1505 H 0.38889 0.5455 0.62389 0.0
H1506 H 0.29764 0.54395 0.59478 0.0
H1507 H 0.29401 0.5846 0.58749 0.0
H1508 H 0.35316 0.59715 0.63601 0.0
C1509 C 0.35507 0.50774 0.65884 0.0
C1510 C 0.34284 0.48738 0.65429 0.0
C1511 C 0.32534 0.48652 0.636 0.0
C1512 C 0.3195 0.50575 0.62301 0.0
C1513 C 0.33154 0.52564 0.62828 0.0
C1514 C 0.34918 0.52672 0.64557 0.0
C1515 C 0.35858 0.55039 0.64852 0.0
C1516 C 0.35395 0.55901 0.67365 0.0
C1517 C 0.38572 0.55183 0.64204 0.0
C1518 C 0.34294 0.56261 0.6307 0.0
C1519 C 0.32751 0.54797 0.61917 0.0
C1520 C 0.30996 0.55549 0.60333 0.0
C1521 C 0.30796 0.57854 0.59934 0.0
C1522 C 0.32354 0.59379 0.61094 0.0
C1523 C 0.3415 0.58569 0.62651 0.0
H1524 H 0.84701 0.86133 0.50442 0.0
H1525 H 0.91694 0.84691 0.47221 0.0
H1526 H 0.93586 0.8452 0.51179 0.0
H1527 H 0.86908 0.89482 0.55367 0.0
H1528 H 0.84707 0.88321 0.57377 0.0
H1529 H 0.83991 0.88552 0.54293 0.0
H1530 H 0.83045 0.84311 0.54142 0.0
H1531 H 0.83763 0.84065 0.5722 0.0
H1532 H 0.85326 0.82341 0.551 0.0
H1533 H 0.94656 0.84375 0.55566 0.0
H1534 H 0.94726 0.84004 0.59919 0.0
H1535 H 0.86982 0.85377 0.60152 0.0
C1536 C 0.86641 0.85822 0.50559 0.0
C1537 C 0.88058 0.85451 0.48522 0.0
C1538 C 0.90578 0.84994 0.48761 0.0
C1539 C 0.91668 0.84901 0.51 0.0
C1540 C 0.90206 0.85252 0.52977 0.0
C1541 C 0.87743 0.85692 0.5277 0.0
C1542 C 0.86522 0.85839 0.55151 0.0
C1543 C 0.85471 0.88189 0.55571 0.0
C1544 C 0.84548 0.84031 0.55418 0.0
C1545 C 0.88673 0.85387 0.56739 0.0
C1546 C 0.90794 0.85085 0.55466 0.0
C1547 C 0.93005 0.84616 0.56576 0.0
C1548 C 0.93033 0.84417 0.59044 0.0
C1549 C 0.90858 0.8465 0.60361 0.0
C1550 C 0.88667 0.85169 0.59185 0.0
H1551 H 0.67715 0.14005 1.00772 0.0
H1552 H 0.62003 0.18149 0.978 0.0
H1553 H 0.60155 0.18538 0.01765 0.0
H1554 H 0.64004 0.11177 0.05222 0.0
H1555 H 0.66445 0.11204 0.07342 0.0
H1556 H 0.67127 0.11076 0.04243 0.0
H1557 H 0.69837 0.14602 0.04634 0.0
H1558 H 0.69162 0.14745 0.07726 0.0
H1559 H 0.68558 0.1712 0.05865 0.0
H1560 H 0.59119 0.18662 0.06194 0.0
H1561 H 0.59126 0.18622 0.1057 0.0
H1562 H 0.65567 0.14439 0.10488 0.0
C1563 C 0.66052 0.14967 0.00935 0.0
C1564 C 0.64999 0.16039 0.98969 0.0
C1565 C 0.62837 0.17302 0.99279 0.0
C1566 C 0.61773 0.17529 0.01524 0.0
C1567 C 0.6289 0.16476 0.03434 0.0
C1568 C 0.64982 0.15216 0.03148 0.0
C1569 C 0.65944 0.14372 0.05475 0.0
C1570 C 0.65875 0.11805 0.05576 0.0
C1571 C 0.68527 0.15264 0.05952 0.0
C1572 C 0.64102 0.15391 0.07134 0.0
C1573 C 0.62329 0.16576 0.05938 0.0
C1574 C 0.6049 0.17722 0.0714 0.0
C1575 C 0.60499 0.17686 0.09621 0.0
C1576 C 0.62355 0.16539 0.10861 0.0
C1577 C 0.6414 0.15347 0.09587 0.0
H1578 H 0.36385 0.67412 0.40674 0.0
H1579 H 0.44136 0.68466 0.41517 0.0
H1580 H 0.43716 0.67916 0.45833 0.0
H1581 H 0.34437 0.70227 0.45768 0.0
H1582 H 0.32032 0.68285 0.46451 0.0
H1583 H 0.32994 0.68656 0.43449 0.0
H1584 H 0.33831 0.64404 0.43098 0.0
H1585 H 0.32866 0.64019 0.46101 0.0
H1586 H 0.35834 0.63068 0.45182 0.0
H1587 H 0.42308 0.67627 0.50119 0.0
H1588 H 0.40122 0.67295 0.53925 0.0
H1589 H 0.33359 0.66179 0.50166 0.0
C1590 C 0.37994 0.67513 0.4177 0.0
C1591 C 0.40291 0.67995 0.40779 0.0
C1592 C 0.42365 0.68087 0.42254 0.0
C1593 C 0.42138 0.67785 0.447 0.0
C1594 C 0.39832 0.67347 0.45628 0.0
C1595 C 0.37805 0.67174 0.44197 0.0
C1596 C 0.35528 0.66701 0.45611 0.0
C1597 C 0.33638 0.68579 0.45301 0.0
C1598 C 0.34452 0.64412 0.44959 0.0
C1599 C 0.36572 0.66686 0.48073 0.0
C1600 C 0.39055 0.67072 0.48057 0.0
C1601 C 0.40373 0.67283 0.50146 0.0
C1602 C 0.39119 0.67099 0.52298 0.0
C1603 C 0.36581 0.66679 0.52339 0.0
C1604 C 0.35309 0.6645 0.50194 0.0
H1605 H 0.1571 0.30144 0.01573 0.0
H1606 H 0.13983 0.37018 0.03359 0.0
H1607 H 0.12503 0.37644 0.993 0.0
H1608 H 0.17997 0.31238 0.95914 0.0
H1609 H 0.16783 0.28732 0.94605 0.0
H1610 H 0.17511 0.28783 0.97691 0.0
H1611 H 0.13101 0.27578 0.98709 0.0
H1612 H 0.12361 0.27512 0.95622 0.0
H1613 H 0.10573 0.29194 0.9761 0.0
H1614 H 0.11418 0.37554 0.94943 0.0
H1615 H 0.1088 0.36769 0.90702 0.0
H1616 H 0.13318 0.29954 0.91837 0.0
C1617 C 0.14989 0.31775 0.01127 0.0
C1618 C 0.14954 0.33529 0.02792 0.0
C1619 C 0.14021 0.35645 0.02119 0.0
C1620 C 0.13174 0.36016 0.99816 0.0
C1621 C 0.13269 0.34254 0.9821 0.0
C1622 C 0.14148 0.32174 0.98843 0.0
C1623 C 0.14164 0.30586 0.96769 0.0
C1624 C 0.16768 0.29789 0.96212 0.0
C1625 C 0.12447 0.286 0.97204 0.0
C1626 C 0.13194 0.32104 0.94858 0.0
C1627 C 0.12668 0.34209 0.9572 0.0
C1628 C 0.11807 0.35905 0.94256 0.0
C1629 C 0.11496 0.3544 0.91848 0.0
C1630 C 0.12059 0.333 0.90923 0.0
C1631 C 0.12895 0.31614 0.9247 0.0
H1632 H 0.59037 0.84461 0.82207 0.0
H1633 H 0.58407 0.91668 0.81791 0.0
H1634 H 0.53923 0.91359 0.82206 0.0
H1635 H 0.5373 0.83119 0.78925 0.0
H1636 H 0.52921 0.80757 0.8073 0.0
H1637 H 0.56063 0.81574 0.80457 0.0
H1638 H 0.56394 0.81908 0.84993 0.0
H1639 H 0.53252 0.81089 0.85281 0.0
H1640 H 0.54285 0.83675 0.86563 0.0
H1641 H 0.4945 0.90196 0.82434 0.0
H1642 H 0.4544 0.88315 0.82699 0.0
H1643 H 0.49087 0.81891 0.83117 0.0
C1644 C 0.57955 0.85974 0.82198 0.0
C1645 C 0.59065 0.88089 0.81951 0.0
C1646 C 0.57591 0.90033 0.81991 0.0
C1647 C 0.55045 0.89871 0.82216 0.0
C1648 C 0.54007 0.87753 0.82432 0.0
C1649 C 0.55425 0.85842 0.82452 0.0
C1650 C 0.5388 0.83765 0.82723 0.0
C1651 C 0.54166 0.82213 0.80581 0.0
C1652 C 0.54489 0.82538 0.85027 0.0
C1653 C 0.51364 0.84796 0.82814 0.0
C1654 C 0.51466 0.87097 0.82638 0.0
C1655 C 0.49354 0.88397 0.82596 0.0
C1656 C 0.47084 0.87314 0.82742 0.0
C1657 C 0.46947 0.84958 0.82946 0.0
C1658 C 0.49125 0.83696 0.82992 0.0
H1659 H 0.92832 0.16873 0.32596 0.0
H1660 H 0.93655 0.09689 0.32048 0.0
H1661 H 0.98134 0.10098 0.3241 0.0
H1662 H 0.98053 0.18378 0.29259 0.0
H1663 H 0.9882 0.20736 0.31086 0.0
H1664 H 0.95699 0.19848 0.30843 0.0
H1665 H 0.95439 0.19453 0.35378 0.0
H1666 H 0.98561 0.20342 0.35636 0.0
H1667 H 0.97617 0.17717 0.36895 0.0
H1668 H 0.02579 0.11365 0.32582 0.0
H1669 H 0.06539 0.13342 0.32802 0.0
H1670 H 0.02714 0.19666 0.33401 0.0
C1671 C 0.93955 0.15386 0.32547 0.0
C1672 C 0.929 0.13249 0.32278 0.0
C1673 C 0.94428 0.1134 0.32265 0.0
C1674 C 0.96971 0.11559 0.3246 0.0
C1675 C 0.97953 0.13697 0.32698 0.0
C1676 C 0.96483 0.15574 0.32769 0.0
C1677 C 0.97972 0.17683 0.3305 0.0
C1678 C 0.97615 0.19253 0.30933 0.0
C1679 C 0.97361 0.18868 0.35379 0.0
C1680 C 1.00517 0.16711 0.33093 0.0
C1681 C 1.00478 0.1441 0.32878 0.0
C1682 C 0.02626 0.13164 0.32776 0.0
C1683 C 0.04866 0.143 0.32897 0.0
C1684 C 0.04938 0.16655 0.3314 0.0
C1685 C 0.02726 0.17862 0.3325 0.0
H1686 H 0.09545 0.66434 0.1979 0.0
H1687 H 0.08938 0.59258 0.18981 0.0
H1688 H 0.04438 0.59613 0.18772 0.0
H1689 H 0.04367 0.67231 0.23436 0.0
H1690 H 0.03493 0.6984 0.22092 0.0
H1691 H 0.06643 0.69001 0.22114 0.0
H1692 H 0.06816 0.69376 0.17572 0.0
H1693 H 0.03668 0.70225 0.17537 0.0
H1694 H 0.04649 0.67875 0.15791 0.0
H1695 H 0.99952 0.60787 0.18913 0.0
H1696 H 0.95939 0.62685 0.19073 0.0
H1697 H 0.99584 0.69092 0.19633 0.0
C1698 C 0.08465 0.64937 0.19572 0.0
C1699 C 0.09583 0.62815 0.19419 0.0
C1700 C 0.08113 0.60898 0.1909 0.0
C1701 C 0.05559 0.61085 0.18982 0.0
C1702 C 0.04513 0.63206 0.19173 0.0
C1703 C 0.05929 0.65098 0.19431 0.0
C1704 C 0.0438 0.67187 0.19574 0.0
C1705 C 0.04742 0.68384 0.21945 0.0
C1706 C 0.0491 0.68758 0.17494 0.0
C1707 C 0.01863 0.66178 0.19392 0.0
C1708 C 0.01967 0.6388 0.19173 0.0
C1709 C 0.99855 0.62588 0.19061 0.0
C1710 C 0.97584 0.63678 0.19161 0.0
C1711 C 0.97447 0.66036 0.19349 0.0
C1712 C 0.99623 0.6729 0.19462 0.0
H1713 H 0.44297 0.40512 0.74015 0.0
H1714 H 0.43185 0.411 0.66476 0.0
H1715 H 0.47394 0.39803 0.65797 0.0
H1716 H 0.50547 0.42461 0.7405 0.0
H1717 H 0.51461 0.40548 0.76335 0.0
H1718 H 0.48368 0.4155 0.76221 0.0
H1719 H 0.46794 0.37469 0.7612 0.0
H1720 H 0.49879 0.36455 0.76236 0.0
H1721 H 0.47897 0.35591 0.73878 0.0
H1722 H 0.51721 0.38334 0.65946 0.0
H1723 H 0.55783 0.36806 0.66918 0.0
H1724 H 0.54074 0.37308 0.7436 0.0
C1725 C 0.44936 0.40402 0.72219 0.0
C1726 C 0.43389 0.40914 0.70301 0.0
C1727 C 0.4431 0.40696 0.67979 0.0
C1728 C 0.46709 0.39974 0.67574 0.0
C1729 C 0.48177 0.39485 0.69507 0.0
C1730 C 0.47325 0.39694 0.71784 0.0
C1731 C 0.4925 0.39026 0.73558 0.0
C1732 C 0.49948 0.41015 0.75133 0.0
C1733 C 0.48404 0.37016 0.75034 0.0
C1734 C 0.51318 0.38392 0.71925 0.0
C1735 C 0.50666 0.38669 0.69594 0.0
C1736 C 0.52255 0.38125 0.67766 0.0
C1737 C 0.54559 0.37258 0.68336 0.0
C1738 C 0.55257 0.36947 0.70715 0.0
C1739 C 0.53612 0.37546 0.72525 0.0
H1740 H 0.79401 0.60643 0.89962 0.0
H1741 H 0.86991 0.621 0.88528 0.0
H1742 H 0.87761 0.58073 0.8782 0.0
H1743 H 0.80409 0.5548 0.93016 0.0
H1744 H 0.77726 0.54164 0.91829 0.0
H1745 H 0.77805 0.5715 0.92211 0.0
H1746 H 0.76752 0.5769 0.878 0.0
H1747 H 0.76673 0.54705 0.87403 0.0
H1748 H 0.78641 0.56392 0.85591 0.0
H1749 H 0.87631 0.53856 0.87153 0.0
H1750 H 0.86673 0.49822 0.86834 0.0
H1751 H 0.79178 0.51206 0.88752 0.0
C1752 C 0.81223 0.6012 0.89483 0.0
C1753 C 0.83135 0.61686 0.89285 0.0
C1754 C 0.85505 0.60925 0.88703 0.0
C1755 C 0.85953 0.58646 0.88286 0.0
C1756 C 0.84015 0.5715 0.88477 0.0
C1757 C 0.81702 0.5786 0.8908 0.0
C1758 C 0.79935 0.55927 0.89211 0.0
C1759 C 0.78909 0.55665 0.91715 0.0
C1760 C 0.77879 0.56195 0.87392 0.0
C1761 C 0.81609 0.54012 0.88577 0.0
C1762 C 0.83953 0.54744 0.88145 0.0
C1763 C 0.85802 0.53266 0.87495 0.0
C1764 C 0.8524 0.50982 0.87305 0.0
C1765 C 0.82855 0.50199 0.87781 0.0
C1766 C 0.81025 0.51746 0.88413 0.0
H1767 H 0.3284 0.91944 0.10876 0.0
H1768 H 0.30422 0.90507 0.17977 0.0
H1769 H 0.30871 0.9449 0.19026 0.0
H1770 H 0.37278 0.96327 0.12424 0.0
H1771 H 0.36543 0.98005 0.09888 0.0
H1772 H 0.36242 0.95009 0.09753 0.0
H1773 H 0.31733 0.95446 0.08486 0.0
H1774 H 0.32017 0.9844 0.08626 0.0
H1775 H 0.29681 0.97049 0.10304 0.0
H1776 H 0.31373 0.98649 0.19253 0.0
H1777 H 0.3176 0.02709 0.18602 0.0
H1778 H 0.33827 0.01474 0.11343 0.0
C1779 C 0.32453 0.92467 0.12661 0.0
C1780 C 0.31601 0.90919 0.14348 0.0
C1781 C 0.3106 0.9167 0.16655 0.0
C1782 C 0.31324 0.93925 0.1727 0.0
C1783 C 0.32127 0.95416 0.15558 0.0
C1784 C 0.32683 0.94722 0.13299 0.0
C1785 C 0.33363 0.96691 0.11755 0.0
C1786 C 0.36014 0.96496 0.10905 0.0
C1787 C 0.31593 0.96919 0.0967 0.0
C1788 C 0.33062 0.98599 0.13488 0.0
C1789 C 0.32377 0.97824 0.15679 0.0
C1790 C 0.3193 0.99275 0.17549 0.0
C1791 C 0.32166 0.01582 0.17165 0.0
C1792 C 0.32825 0.02422 0.14922 0.0
C1793 C 0.33301 0.00895 0.13073 0.0
H1794 H 0.18916 0.01427 0.61309 0.0
H1795 H 0.22736 1.00164 0.67856 0.0
H1796 H 0.23509 0.04215 0.68287 0.0
H1797 H 0.22845 0.0567 0.59182 0.0
H1798 H 0.20444 0.07324 0.57896 0.0
H1799 H 0.20089 0.04345 0.58172 0.0
H1800 H 0.1608 0.04932 0.60501 0.0
H1801 H 0.1642 0.07915 0.6023 0.0
H1802 H 0.16092 0.06663 0.63098 0.0
H1803 H 0.24092 0.08381 0.67857 0.0
H1804 H 0.2427 0.12359 0.66708 0.0
H1805 H 0.20021 0.10903 0.60465 0.0
C1806 C 0.19916 0.01999 0.62835 0.0
C1807 C 0.20774 1.00473 0.64547 0.0
C1808 C 0.22042 0.013 0.66535 0.0
C1809 C 0.22499 0.03597 0.66788 0.0
C1810 C 0.21654 0.05049 0.65049 0.0
C1811 C 0.2037 0.04284 0.63121 0.0
C1812 C 0.19687 0.06185 0.61487 0.0
C1813 C 0.20835 0.05861 0.5904 0.0
C1814 C 0.16904 0.06438 0.6132 0.0
C1815 C 0.20822 0.08139 0.62774 0.0
C1816 C 0.21949 0.07448 0.64825 0.0
C1817 C 0.23201 0.08941 0.66264 0.0
C1818 C 0.23306 0.11194 0.6559 0.0
C1819 C 0.22158 0.11941 0.63499 0.0
C1820 C 0.20886 0.10387 0.62088 0.0
H1821 H 0.73421 0.41484 0.40677 0.0
H1822 H 0.66079 0.39593 0.38699 0.0
H1823 H 0.65112 0.43554 0.37863 0.0
H1824 H 0.71835 0.46624 0.43545 0.0
H1825 H 0.74508 0.48082 0.42531 0.0
H1826 H 0.74606 0.45102 0.4296 0.0
H1827 H 0.76036 0.44567 0.38648 0.0
H1828 H 0.75946 0.47546 0.38207 0.0
H1829 H 0.74245 0.45728 0.36286 0.0
H1830 H 0.65003 0.47742 0.37148 0.0
H1831 H 0.65708 0.51812 0.36784 0.0
H1832 H 0.73111 0.50915 0.3927 0.0
C1833 C 0.71615 0.41898 0.40052 0.0
C1834 C 0.69827 0.40226 0.39745 0.0
C1835 C 0.6747 0.40847 0.38965 0.0
C1836 C 0.66909 0.4309 0.38475 0.0
C1837 C 0.68722 0.44694 0.38788 0.0
C1838 C 0.71023 0.44124 0.39571 0.0
C1839 C 0.72639 0.4616 0.39794 0.0
C1840 C 0.73443 0.46512 0.4236 0.0
C1841 C 0.74847 0.45989 0.38134 0.0
C1842 C 0.70893 0.47968 0.39007 0.0
C1843 C 0.68645 0.47092 0.38422 0.0
C1844 C 0.66755 0.48444 0.37608 0.0
C1845 C 0.67174 0.50751 0.37395 0.0
C1846 C 0.69459 0.51683 0.38009 0.0
C1847 C 0.71334 0.50261 0.38823 0.0
loop_
_geom_bond_atom_site_label_1
_geom_bond_atom_site_label_2
_geom_bond_distance
_geom_bond_site_symmetry_2
_ccdc_geom_bond_type
Cu0 N1 1.999 . S
Cu0 O6 1.974 . S
Cu0 N11 1.985 . S
Cu0 O20 1.959 . S
N1 Cu0 1.999 . S
N1 C3 1.263 . S
N1 C5 1.389 . S
N2 C3 1.358 . S
N2 C4 1.400 . S
C3 N1 1.263 . S
C3 N2 1.358 . S
C3 H9 0.930 . S
C4 N2 1.400 . S
C4 C5 1.351 . S
C4 H21 0.930 . S
C5 N1 1.389 . S
C5 C4 1.351 . S
C5 H10 0.930 . S
O6 Cu0 1.974 . S
O6 C16 1.282 . S
C7 O8 1.261 . S
C7 O20 1.251 . S
O8 C7 1.261 . S
H9 C3 0.930 . S
H10 C5 0.930 . S
N11 Cu0 1.985 . S
N11 C13 1.335 . S
N11 C14 1.390 . S
N12 C13 1.345 . S
N12 C15 1.336 . S
C13 N11 1.335 . S
C13 N12 1.345 . S
C13 H18 0.930 . S
C14 N11 1.390 . S
C14 C15 1.346 . S
C14 H19 0.930 . S
C15 N12 1.336 . S
C15 C14 1.346 . S
C15 H22 0.929 . S
C16 O6 1.282 . S
C16 O17 1.216 . S
O17 C16 1.216 . S
H18 C13 0.930 . S
H19 C14 0.930 . S
O20 Cu0 1.959 . S
O20 C7 1.251 . S
H21 C4 0.930 . S
H22 C15 0.929 . S
Cu23 N24 1.999 . S
Cu23 O29 1.974 . S
Cu23 N34 1.985 . S
Cu23 O43 1.959 . S
N24 Cu23 1.999 . S
N24 C26 1.263 . S
N24 C28 1.389 . S
N25 C26 1.358 . S
N25 C27 1.400 . S
C26 N24 1.263 . S
C26 N25 1.358 . S
C26 H32 0.930 . S
C27 N25 1.400 . S
C27 C28 1.351 . S
C27 H44 0.930 . S
C28 N24 1.389 . S
C28 C27 1.351 . S
C28 H33 0.930 . S
O29 Cu23 1.974 . S
O29 C39 1.282 . S
C30 O31 1.261 . S
C30 O43 1.251 . S
O31 C30 1.261 . S
H32 C26 0.930 . S
H33 C28 0.930 . S
N34 Cu23 1.985 . S
N34 C36 1.335 . S
N34 C37 1.390 . S
N35 C36 1.345 . S
N35 C38 1.336 . S
C36 N34 1.335 . S
C36 N35 1.345 . S
C36 H41 0.930 . S
C37 N34 1.390 . S
C37 C38 1.346 . S
C37 H42 0.930 . S
C38 N35 1.336 . S
C38 C37 1.346 . S
C38 H45 0.929 . S
C39 O29 1.282 . S
C39 O40 1.216 . S
O40 C39 1.216 . S
H41 C36 0.930 . S
H42 C37 0.930 . S
O43 Cu23 1.959 . S
O43 C30 1.251 . S
H44 C27 0.930 . S
H45 C38 0.929 . S
Cu46 N47 1.999 . S
Cu46 O52 1.974 . S
Cu46 N57 1.985 . S
Cu46 O66 1.959 . S
N47 Cu46 1.999 . S
N47 C49 1.263 . S
N47 C51 1.389 . S
N48 C49 1.358 . S
N48 C50 1.400 . S
C49 N47 1.263 . S
C49 N48 1.358 . S
C49 H55 0.930 . S
C50 N48 1.400 . S
C50 C51 1.351 . S
C50 H67 0.930 . S
C51 N47 1.389 . S
C51 C50 1.351 . S
C51 H56 0.930 . S
O52 Cu46 1.974 . S
O52 C62 1.282 . S
C53 O54 1.261 . S
C53 O66 1.251 . S
O54 C53 1.261 . S
H55 C49 0.930 . S
H56 C51 0.930 . S
N57 Cu46 1.985 . S
N57 C59 1.335 . S
N57 C60 1.390 . S
N58 C59 1.345 . S
N58 C61 1.336 . S
C59 N57 1.335 . S
C59 N58 1.345 . S
C59 H64 0.930 . S
C60 N57 1.390 . S
C60 C61 1.346 . S
C60 H65 0.930 . S
C61 N58 1.336 . S
C61 C60 1.346 . S
C61 H68 0.929 . S
C62 O52 1.282 . S
C62 O63 1.216 . S
O63 C62 1.216 . S
H64 C59 0.930 . S
H65 C60 0.930 . S
O66 Cu46 1.959 . S
O66 C53 1.251 . S
H67 C50 0.930 . S
H68 C61 0.929 . S
Cu69 N70 1.999 . S
Cu69 O75 1.974 . S
Cu69 N80 1.985 . S
Cu69 O89 1.959 . S
N70 Cu69 1.999 . S
N70 C72 1.263 . S
N70 C74 1.389 . S
N71 C72 1.358 . S
N71 C73 1.400 . S
C72 N70 1.263 . S
C72 N71 1.358 . S
C72 H78 0.930 . S
C73 N71 1.400 . S
C73 C74 1.351 . S
C73 H90 0.930 . S
C74 N70 1.389 . S
C74 C73 1.351 . S
C74 H79 0.930 . S
O75 Cu69 1.974 . S
O75 C85 1.282 . S
C76 O77 1.261 . S
C76 O89 1.251 . S
O77 C76 1.261 . S
H78 C72 0.930 . S
H79 C74 0.930 . S
N80 Cu69 1.985 . S
N80 C82 1.335 . S
N80 C83 1.390 . S
N81 C82 1.345 . S
N81 C84 1.336 . S
C82 N80 1.335 . S
C82 N81 1.345 . S
C82 H87 0.930 . S
C83 N80 1.390 . S
C83 C84 1.346 . S
C83 H88 0.930 . S
C84 N81 1.336 . S
C84 C83 1.346 . S
C84 H91 0.929 . S
C85 O75 1.282 . S
C85 O86 1.216 . S
O86 C85 1.216 . S
H87 C82 0.930 . S
H88 C83 0.930 . S
O89 Cu69 1.959 . S
O89 C76 1.251 . S
H90 C73 0.930 . S
H91 C84 0.929 . S
Cu92 N93 1.999 . S
Cu92 O98 1.974 . S
Cu92 N103 1.985 . S
Cu92 O112 1.959 . S
N93 Cu92 1.999 . S
N93 C95 1.263 . S
N93 C97 1.389 . S
N94 C95 1.358 . S
N94 C96 1.400 . S
C95 N93 1.263 . S
C95 N94 1.358 . S
C95 H101 0.930 . S
C96 N94 1.400 . S
C96 C97 1.351 . S
C96 H113 0.930 . S
C97 N93 1.389 . S
C97 C96 1.351 . S
C97 H102 0.930 . S
O98 Cu92 1.974 . S
O98 C108 1.282 . S
C99 O100 1.261 . S
C99 O112 1.251 . S
O100 C99 1.261 . S
H101 C95 0.930 . S
H102 C97 0.930 . S
N103 Cu92 1.985 . S
N103 C105 1.335 . S
N103 C106 1.390 . S
N104 C105 1.345 . S
N104 C107 1.336 . S
C105 N103 1.335 . S
C105 N104 1.345 . S
C105 H110 0.930 . S
C106 N103 1.390 . S
C106 C107 1.346 . S
C106 H111 0.930 . S
C107 N104 1.336 . S
C107 C106 1.346 . S
C107 H114 0.929 . S
C108 O98 1.282 . S
C108 O109 1.216 . S
O109 C108 1.216 . S
H110 C105 0.930 . S
H111 C106 0.930 . S
O112 Cu92 1.959 . S
O112 C99 1.251 . S
H113 C96 0.930 . S
H114 C107 0.929 . S
Cu115 N116 1.999 . S
Cu115 O121 1.974 . S
Cu115 N126 1.985 . S
Cu115 O135 1.959 . S
N116 Cu115 1.999 . S
N116 C118 1.263 . S
N116 C120 1.389 . S
N117 C118 1.358 . S
N117 C119 1.400 . S
C118 N116 1.263 . S
C118 N117 1.358 . S
C118 H124 0.930 . S
C119 N117 1.400 . S
C119 C120 1.351 . S
C119 H136 0.930 . S
C120 N116 1.389 . S
C120 C119 1.351 . S
C120 H125 0.930 . S
O121 Cu115 1.974 . S
O121 C131 1.282 . S
C122 O123 1.261 . S
C122 O135 1.251 . S
O123 C122 1.261 . S
H124 C118 0.930 . S
H125 C120 0.930 . S
N126 Cu115 1.985 . S
N126 C128 1.335 . S
N126 C129 1.390 . S
N127 C128 1.345 . S
N127 C130 1.336 . S
C128 N126 1.335 . S
C128 N127 1.345 . S
C128 H133 0.930 . S
C129 N126 1.390 . S
C129 C130 1.346 . S
C129 H134 0.930 . S
C130 N127 1.336 . S
C130 C129 1.346 . S
C130 H137 0.929 . S
C131 O121 1.282 . S
C131 O132 1.216 . S
O132 C131 1.216 . S
H133 C128 0.930 . S
H134 C129 0.930 . S
O135 Cu115 1.959 . S
O135 C122 1.251 . S
H136 C119 0.930 . S
H137 C130 0.929 . S
Cu138 N139 1.999 . S
Cu138 O144 1.974 . S
Cu138 N149 1.985 . S
Cu138 O158 1.959 . S
N139 Cu138 1.999 . S
N139 C141 1.263 . S
N139 C143 1.389 . S
N140 C141 1.358 . S
N140 C142 1.400 . S
C141 N139 1.263 . S
C141 N140 1.358 . S
C141 H147 0.930 . S
C142 N140 1.400 . S
C142 C143 1.351 . S
C142 H159 0.930 . S
C143 N139 1.389 . S
C143 C142 1.351 . S
C143 H148 0.930 . S
O144 Cu138 1.974 . S
O144 C154 1.282 . S
C145 O146 1.261 . S
C145 O158 1.251 . S
O146 C145 1.261 . S
H147 C141 0.930 . S
H148 C143 0.930 . S
N149 Cu138 1.985 . S
N149 C151 1.335 . S
N149 C152 1.390 . S
N150 C151 1.345 . S
N150 C153 1.336 . S
C151 N149 1.335 . S
C151 N150 1.345 . S
C151 H156 0.930 . S
C152 N149 1.390 . S
C152 C153 1.346 . S
C152 H157 0.930 . S
C153 N150 1.336 . S
C153 C152 1.346 . S
C153 H160 0.929 . S
C154 O144 1.282 . S
C154 O155 1.216 . S
O155 C154 1.216 . S
H156 C151 0.930 . S
H157 C152 0.930 . S
O158 Cu138 1.959 . S
O158 C145 1.251 . S
H159 C142 0.930 . S
H160 C153 0.929 . S
Cu161 N162 1.999 . S
Cu161 O167 1.974 . S
Cu161 N172 1.985 . S
Cu161 O181 1.959 . S
N162 Cu161 1.999 . S
N162 C164 1.263 . S
N162 C166 1.389 . S
N163 C164 1.358 . S
N163 C165 1.400 . S
C164 N162 1.263 . S
C164 N163 1.358 . S
C164 H170 0.930 . S
C165 N163 1.400 . S
C165 C166 1.351 . S
C165 H182 0.930 . S
C166 N162 1.389 . S
C166 C165 1.351 . S
C166 H171 0.930 . S
O167 Cu161 1.974 . S
O167 C177 1.282 . S
C168 O169 1.261 . S
C168 O181 1.251 . S
O169 C168 1.261 . S
H170 C164 0.930 . S
H171 C166 0.930 . S
N172 Cu161 1.985 . S
N172 C174 1.335 . S
N172 C175 1.390 . S
N173 C174 1.345 . S
N173 C176 1.336 . S
C174 N172 1.335 . S
C174 N173 1.345 . S
C174 H179 0.930 . S
C175 N172 1.390 . S
C175 C176 1.346 . S
C175 H180 0.930 . S
C176 N173 1.336 . S
C176 C175 1.346 . S
C176 H183 0.929 . S
C177 O167 1.282 . S
C177 O178 1.216 . S
O178 C177 1.216 . S
H179 C174 0.930 . S
H180 C175 0.930 . S
O181 Cu161 1.959 . S
O181 C168 1.251 . S
H182 C165 0.930 . S
H183 C176 0.929 . S
Cu184 N185 1.999 . S
Cu184 O190 1.974 . S
Cu184 N195 1.985 . S
Cu184 O204 1.959 . S
N185 Cu184 1.999 . S
N185 C187 1.263 . S
N185 C189 1.389 . S
N186 C187 1.358 . S
N186 C188 1.400 . S
C187 N185 1.263 . S
C187 N186 1.358 . S
C187 H193 0.930 . S
C188 N186 1.400 . S
C188 C189 1.351 . S
C188 H205 0.930 . S
C189 N185 1.389 . S
C189 C188 1.351 . S
C189 H194 0.930 . S
O190 Cu184 1.974 . S
O190 C200 1.282 . S
C191 O192 1.261 . S
C191 O204 1.251 . S
O192 C191 1.261 . S
H193 C187 0.930 . S
H194 C189 0.930 . S
N195 Cu184 1.985 . S
N195 C197 1.335 . S
N195 C198 1.390 . S
N196 C197 1.345 . S
N196 C199 1.336 . S
C197 N195 1.335 . S
C197 N196 1.345 . S
C197 H202 0.930 . S
C198 N195 1.390 . S
C198 C199 1.346 . S
C198 H203 0.930 . S
C199 N196 1.336 . S
C199 C198 1.346 . S
C199 H206 0.929 . S
C200 O190 1.282 . S
C200 O201 1.216 . S
O201 C200 1.216 . S
H202 C197 0.930 . S
H203 C198 0.930 . S
O204 Cu184 1.959 . S
O204 C191 1.251 . S
H205 C188 0.930 . S
H206 C199 0.929 . S
Cu207 N208 1.999 . S
Cu207 O213 1.974 . S
Cu207 N218 1.985 . S
Cu207 O227 1.959 . S
N208 Cu207 1.999 . S
N208 C210 1.263 . S
N208 C212 1.389 . S
N209 C210 1.358 . S
N209 C211 1.400 . S
C210 N208 1.263 . S
C210 N209 1.358 . S
C210 H216 0.930 . S
C211 N209 1.400 . S
C211 C212 1.351 . S
C211 H228 0.930 . S
C212 N208 1.389 . S
C212 C211 1.351 . S
C212 H217 0.930 . S
O213 Cu207 1.974 . S
O213 C223 1.282 . S
C214 O215 1.261 . S
C214 O227 1.251 . S
O215 C214 1.261 . S
H216 C210 0.930 . S
H217 C212 0.930 . S
N218 Cu207 1.985 . S
N218 C220 1.335 . S
N218 C221 1.390 . S
N219 C220 1.345 . S
N219 C222 1.336 . S
C220 N218 1.335 . S
C220 N219 1.345 . S
C220 H225 0.930 . S
C221 N218 1.390 . S
C221 C222 1.346 . S
C221 H226 0.930 . S
C222 N219 1.336 . S
C222 C221 1.346 . S
C222 H229 0.929 . S
C223 O213 1.282 . S
C223 O224 1.216 . S
O224 C223 1.216 . S
H225 C220 0.930 . S
H226 C221 0.930 . S
O227 Cu207 1.959 . S
O227 C214 1.251 . S
H228 C211 0.930 . S
H229 C222 0.929 . S
Cu230 N231 1.999 . S
Cu230 O236 1.974 . S
Cu230 N241 1.985 . S
Cu230 O250 1.959 . S
N231 Cu230 1.999 . S
N231 C233 1.263 . S
N231 C235 1.389 . S
N232 C233 1.358 . S
N232 C234 1.400 . S
C233 N231 1.263 . S
C233 N232 1.358 . S
C233 H239 0.930 . S
C234 N232 1.400 . S
C234 C235 1.351 . S
C234 H251 0.930 . S
C235 N231 1.389 . S
C235 C234 1.351 . S
C235 H240 0.930 . S
O236 Cu230 1.974 . S
O236 C246 1.282 . S
C237 O238 1.261 . S
C237 O250 1.251 . S
O238 C237 1.261 . S
H239 C233 0.930 . S
H240 C235 0.930 . S
N241 Cu230 1.985 . S
N241 C243 1.335 . S
N241 C244 1.390 . S
N242 C243 1.345 . S
N242 C245 1.336 . S
C243 N241 1.335 . S
C243 N242 1.345 . S
C243 H248 0.930 . S
C244 N241 1.390 . S
C244 C245 1.346 . S
C244 H249 0.930 . S
C245 N242 1.336 . S
C245 C244 1.346 . S
C245 H252 0.929 . S
C246 O236 1.282 . S
C246 O247 1.216 . S
O247 C246 1.216 . S
H248 C243 0.930 . S
H249 C244 0.930 . S
O250 Cu230 1.959 . S
O250 C237 1.251 . S
H251 C234 0.930 . S
H252 C245 0.929 . S
Cu253 N254 1.999 . S
Cu253 O259 1.974 . S
Cu253 N264 1.985 . S
Cu253 O273 1.959 . S
N254 Cu253 1.999 . S
N254 C256 1.263 . S
N254 C258 1.389 . S
N255 C256 1.358 . S
N255 C257 1.400 . S
C256 N254 1.263 . S
C256 N255 1.358 . S
C256 H262 0.930 . S
C257 N255 1.400 . S
C257 C258 1.351 . S
C257 H274 0.930 . S
C258 N254 1.389 . S
C258 C257 1.351 . S
C258 H263 0.930 . S
O259 Cu253 1.974 . S
O259 C269 1.282 . S
C260 O261 1.261 . S
C260 O273 1.251 . S
O261 C260 1.261 . S
H262 C256 0.930 . S
H263 C258 0.930 . S
N264 Cu253 1.985 . S
N264 C266 1.335 . S
N264 C267 1.390 . S
N265 C266 1.345 . S
N265 C268 1.336 . S
C266 N264 1.335 . S
C266 N265 1.345 . S
C266 H271 0.930 . S
C267 N264 1.390 . S
C267 C268 1.346 . S
C267 H272 0.930 . S
C268 N265 1.336 . S
C268 C267 1.346 . S
C268 H275 0.929 . S
C269 O259 1.282 . S
C269 O270 1.216 . S
O270 C269 1.216 . S
H271 C266 0.930 . S
H272 C267 0.930 . S
O273 Cu253 1.959 . S
O273 C260 1.251 . S
H274 C257 0.930 . S
H275 C268 0.929 . S
Cu276 N277 1.999 . S
Cu276 O282 1.974 . S
Cu276 N287 1.985 . S
Cu276 O296 1.959 . S
N277 Cu276 1.999 . S
N277 C279 1.263 . S
N277 C281 1.389 . S
N278 C279 1.358 . S
N278 C280 1.400 . S
C279 N277 1.263 . S
C279 N278 1.358 . S
C279 H285 0.930 . S
C280 N278 1.400 . S
C280 C281 1.351 . S
C280 H297 0.930 . S
C281 N277 1.389 . S
C281 C280 1.351 . S
C281 H286 0.930 . S
O282 Cu276 1.974 . S
O282 C292 1.282 . S
C283 O284 1.261 . S
C283 O296 1.251 . S
O284 C283 1.261 . S
H285 C279 0.930 . S
H286 C281 0.930 . S
N287 Cu276 1.985 . S
N287 C289 1.335 . S
N287 C290 1.390 . S
N288 C289 1.345 . S
N288 C291 1.336 . S
C289 N287 1.335 . S
C289 N288 1.345 . S
C289 H294 0.930 . S
C290 N287 1.390 . S
C290 C291 1.346 . S
C290 H295 0.930 . S
C291 N288 1.336 . S
C291 C290 1.346 . S
C291 H298 0.929 . S
C292 O282 1.282 . S
C292 O293 1.216 . S
O293 C292 1.216 . S
H294 C289 0.930 . S
H295 C290 0.930 . S
O296 Cu276 1.959 . S
O296 C283 1.251 . S
H297 C280 0.930 . S
H298 C291 0.929 . S
Cu299 N300 1.999 . S
Cu299 O305 1.974 . S
Cu299 N310 1.985 . S
Cu299 O319 1.959 . S
N300 Cu299 1.999 . S
N300 C302 1.263 . S
N300 C304 1.389 . S
N301 C302 1.358 . S
N301 C303 1.400 . S
C302 N300 1.263 . S
C302 N301 1.358 . S
C302 H308 0.930 . S
C303 N301 1.400 . S
C303 C304 1.351 . S
C303 H320 0.930 . S
C304 N300 1.389 . S
C304 C303 1.351 . S
C304 H309 0.930 . S
O305 Cu299 1.974 . S
O305 C315 1.282 . S
C306 O307 1.261 . S
C306 O319 1.251 . S
O307 C306 1.261 . S
H308 C302 0.930 . S
H309 C304 0.930 . S
N310 Cu299 1.985 . S
N310 C312 1.335 . S
N310 C313 1.390 . S
N311 C312 1.345 . S
N311 C314 1.336 . S
C312 N310 1.335 . S
C312 N311 1.345 . S
C312 H317 0.930 . S
C313 N310 1.390 . S
C313 C314 1.346 . S
C313 H318 0.930 . S
C314 N311 1.336 . S
C314 C313 1.346 . S
C314 H321 0.929 . S
C315 O305 1.282 . S
C315 O316 1.216 . S
O316 C315 1.216 . S
H317 C312 0.930 . S
H318 C313 0.930 . S
O319 Cu299 1.959 . S
O319 C306 1.251 . S
H320 C303 0.930 . S
H321 C314 0.929 . S
Cu322 N323 1.999 . S
Cu322 O328 1.974 . S
Cu322 N333 1.985 . S
Cu322 O342 1.959 . S
N323 Cu322 1.999 . S
N323 C325 1.263 . S
N323 C327 1.389 . S
N324 C325 1.358 . S
N324 C326 1.400 . S
C325 N323 1.263 . S
C325 N324 1.358 . S
C325 H331 0.930 . S
C326 N324 1.400 . S
C326 C327 1.351 . S
C326 H343 0.930 . S
C327 N323 1.389 . S
C327 C326 1.351 . S
C327 H332 0.930 . S
O328 Cu322 1.974 . S
O328 C338 1.282 . S
C329 O330 1.261 . S
C329 O342 1.251 . S
O330 C329 1.261 . S
H331 C325 0.930 . S
H332 C327 0.930 . S
N333 Cu322 1.985 . S
N333 C335 1.335 . S
N333 C336 1.390 . S
N334 C335 1.345 . S
N334 C337 1.336 . S
C335 N333 1.335 . S
C335 N334 1.345 . S
C335 H340 0.930 . S
C336 N333 1.390 . S
C336 C337 1.346 . S
C336 H341 0.930 . S
C337 N334 1.336 . S
C337 C336 1.346 . S
C337 H344 0.929 . S
C338 O328 1.282 . S
C338 O339 1.216 . S
O339 C338 1.216 . S
H340 C335 0.930 . S
H341 C336 0.930 . S
O342 Cu322 1.959 . S
O342 C329 1.251 . S
H343 C326 0.930 . S
H344 C337 0.929 . S
Cu345 N346 1.999 . S
Cu345 O351 1.974 . S
Cu345 N356 1.985 . S
Cu345 O365 1.959 . S
N346 Cu345 1.999 . S
N346 C348 1.263 . S
N346 C350 1.389 . S
N347 C348 1.358 . S
N347 C349 1.400 . S
C348 N346 1.263 . S
C348 N347 1.358 . S
C348 H354 0.930 . S
C349 N347 1.400 . S
C349 C350 1.351 . S
C349 H366 0.930 . S
C350 N346 1.389 . S
C350 C349 1.351 . S
C350 H355 0.930 . S
O351 Cu345 1.974 . S
O351 C361 1.282 . S
C352 O353 1.261 . S
C352 O365 1.251 . S
O353 C352 1.261 . S
H354 C348 0.930 . S
H355 C350 0.930 . S
N356 Cu345 1.985 . S
N356 C358 1.335 . S
N356 C359 1.390 . S
N357 C358 1.345 . S
N357 C360 1.336 . S
C358 N356 1.335 . S
C358 N357 1.345 . S
C358 H363 0.930 . S
C359 N356 1.390 . S
C359 C360 1.346 . S
C359 H364 0.930 . S
C360 N357 1.336 . S
C360 C359 1.346 . S
C360 H367 0.929 . S
C361 O351 1.282 . S
C361 O362 1.216 . S
O362 C361 1.216 . S
H363 C358 0.930 . S
H364 C359 0.930 . S
O365 Cu345 1.959 . S
O365 C352 1.251 . S
H366 C349 0.930 . S
H367 C360 0.929 . S
Cu368 N369 1.999 . S
Cu368 O374 1.974 . S
Cu368 N379 1.985 . S
Cu368 O388 1.959 . S
N369 Cu368 1.999 . S
N369 C371 1.263 . S
N369 C373 1.389 . S
N370 C371 1.358 . S
N370 C372 1.400 . S
C371 N369 1.263 . S
C371 N370 1.358 . S
C371 H377 0.930 . S
C372 N370 1.400 . S
C372 C373 1.351 . S
C372 H389 0.930 . S
C373 N369 1.389 . S
C373 C372 1.351 . S
C373 H378 0.930 . S
O374 Cu368 1.974 . S
O374 C384 1.282 . S
C375 O376 1.261 . S
C375 O388 1.251 . S
O376 C375 1.261 . S
H377 C371 0.930 . S
H378 C373 0.930 . S
N379 Cu368 1.985 . S
N379 C381 1.335 . S
N379 C382 1.390 . S
N380 C381 1.345 . S
N380 C383 1.336 . S
C381 N379 1.335 . S
C381 N380 1.345 . S
C381 H386 0.930 . S
C382 N379 1.390 . S
C382 C383 1.346 . S
C382 H387 0.930 . S
C383 N380 1.336 . S
C383 C382 1.346 . S
C383 H390 0.929 . S
C384 O374 1.282 . S
C384 O385 1.216 . S
O385 C384 1.216 . S
H386 C381 0.930 . S
H387 C382 0.930 . S
O388 Cu368 1.959 . S
O388 C375 1.251 . S
H389 C372 0.930 . S
H390 C383 0.929 . S
Cu391 N392 1.999 . S
Cu391 O397 1.974 . S
Cu391 N402 1.985 . S
Cu391 O411 1.959 . S
N392 Cu391 1.999 . S
N392 C394 1.263 . S
N392 C396 1.389 . S
N393 C394 1.358 . S
N393 C395 1.400 . S
C394 N392 1.263 . S
C394 N393 1.358 . S
C394 H400 0.930 . S
C395 N393 1.400 . S
C395 C396 1.351 . S
C395 H412 0.930 . S
C396 N392 1.389 . S
C396 C395 1.351 . S
C396 H401 0.930 . S
O397 Cu391 1.974 . S
O397 C407 1.282 . S
C398 O399 1.261 . S
C398 O411 1.251 . S
O399 C398 1.261 . S
H400 C394 0.930 . S
H401 C396 0.930 . S
N402 Cu391 1.985 . S
N402 C404 1.335 . S
N402 C405 1.390 . S
N403 C404 1.345 . S
N403 C406 1.336 . S
C404 N402 1.335 . S
C404 N403 1.345 . S
C404 H409 0.930 . S
C405 N402 1.390 . S
C405 C406 1.346 . S
C405 H410 0.930 . S
C406 N403 1.336 . S
C406 C405 1.346 . S
C406 H413 0.929 . S
C407 O397 1.282 . S
C407 O408 1.216 . S
O408 C407 1.216 . S
H409 C404 0.930 . S
H410 C405 0.930 . S
O411 Cu391 1.959 . S
O411 C398 1.251 . S
H412 C395 0.930 . S
H413 C406 0.929 . S
Cu414 N415 1.999 . S
Cu414 O420 1.974 . S
Cu414 N425 1.985 . S
Cu414 O434 1.959 . S
N415 Cu414 1.999 . S
N415 C417 1.263 . S
N415 C419 1.389 . S
N416 C417 1.358 . S
N416 C418 1.400 . S
C417 N415 1.263 . S
C417 N416 1.358 . S
C417 H423 0.930 . S
C418 N416 1.400 . S
C418 C419 1.351 . S
C418 H435 0.930 . S
C419 N415 1.389 . S
C419 C418 1.351 . S
C419 H424 0.930 . S
O420 Cu414 1.974 . S
O420 C430 1.282 . S
C421 O422 1.261 . S
C421 O434 1.251 . S
O422 C421 1.261 . S
H423 C417 0.930 . S
H424 C419 0.930 . S
N425 Cu414 1.985 . S
N425 C427 1.335 . S
N425 C428 1.390 . S
N426 C427 1.345 . S
N426 C429 1.336 . S
C427 N425 1.335 . S
C427 N426 1.345 . S
C427 H432 0.930 . S
C428 N425 1.390 . S
C428 C429 1.346 . S
C428 H433 0.930 . S
C429 N426 1.336 . S
C429 C428 1.346 . S
C429 H436 0.929 . S
C430 O420 1.282 . S
C430 O431 1.216 . S
O431 C430 1.216 . S
H432 C427 0.930 . S
H433 C428 0.930 . S
O434 Cu414 1.959 . S
O434 C421 1.251 . S
H435 C418 0.930 . S
H436 C429 0.929 . S
Cu437 N438 1.999 . S
Cu437 O443 1.974 . S
Cu437 N448 1.985 . S
Cu437 O457 1.959 . S
N438 Cu437 1.999 . S
N438 C440 1.263 . S
N438 C442 1.389 . S
N439 C440 1.358 . S
N439 C441 1.400 . S
C440 N438 1.263 . S
C440 N439 1.358 . S
C440 H446 0.930 . S
C441 N439 1.400 . S
C441 C442 1.351 . S
C441 H458 0.930 . S
C442 N438 1.389 . S
C442 C441 1.351 . S
C442 H447 0.930 . S
O443 Cu437 1.974 . S
O443 C453 1.282 . S
C444 O445 1.261 . S
C444 O457 1.251 . S
O445 C444 1.261 . S
H446 C440 0.930 . S
H447 C442 0.930 . S
N448 Cu437 1.985 . S
N448 C450 1.335 . S
N448 C451 1.390 . S
N449 C450 1.345 . S
N449 C452 1.336 . S
C450 N448 1.335 . S
C450 N449 1.345 . S
C450 H455 0.930 . S
C451 N448 1.390 . S
C451 C452 1.346 . S
C451 H456 0.930 . S
C452 N449 1.336 . S
C452 C451 1.346 . S
C452 H459 0.929 . S
C453 O443 1.282 . S
C453 O454 1.216 . S
O454 C453 1.216 . S
H455 C450 0.930 . S
H456 C451 0.930 . S
O457 Cu437 1.959 . S
O457 C444 1.251 . S
H458 C441 0.930 . S
H459 C452 0.929 . S
Cu460 N461 1.999 . S
Cu460 O466 1.974 . S
Cu460 N471 1.985 . S
Cu460 O480 1.959 . S
N461 Cu460 1.999 . S
N461 C463 1.263 . S
N461 C465 1.389 . S
N462 C463 1.358 . S
N462 C464 1.400 . S
C463 N461 1.263 . S
C463 N462 1.358 . S
C463 H469 0.930 . S
C464 N462 1.400 . S
C464 C465 1.351 . S
C464 H481 0.930 . S
C465 N461 1.389 . S
C465 C464 1.351 . S
C465 H470 0.930 . S
O466 Cu460 1.974 . S
O466 C476 1.282 . S
C467 O468 1.261 . S
C467 O480 1.251 . S
O468 C467 1.261 . S
H469 C463 0.930 . S
H470 C465 0.930 . S
N471 Cu460 1.985 . S
N471 C473 1.335 . S
N471 C474 1.390 . S
N472 C473 1.345 . S
N472 C475 1.336 . S
C473 N471 1.335 . S
C473 N472 1.345 . S
C473 H478 0.930 . S
C474 N471 1.390 . S
C474 C475 1.346 . S
C474 H479 0.930 . S
C475 N472 1.336 . S
C475 C474 1.346 . S
C475 H482 0.929 . S
C476 O466 1.282 . S
C476 O477 1.216 . S
O477 C476 1.216 . S
H478 C473 0.930 . S
H479 C474 0.930 . S
O480 Cu460 1.959 . S
O480 C467 1.251 . S
H481 C464 0.930 . S
H482 C475 0.929 . S
Cu483 N484 1.999 . S
Cu483 O489 1.974 . S
Cu483 N494 1.985 . S
Cu483 O503 1.959 . S
N484 Cu483 1.999 . S
N484 C486 1.263 . S
N484 C488 1.389 . S
N485 C486 1.358 . S
N485 C487 1.400 . S
C486 N484 1.263 . S
C486 N485 1.358 . S
C486 H492 0.930 . S
C487 N485 1.400 . S
C487 C488 1.351 . S
C487 H504 0.930 . S
C488 N484 1.389 . S
C488 C487 1.351 . S
C488 H493 0.930 . S
O489 Cu483 1.974 . S
O489 C499 1.282 . S
C490 O491 1.261 . S
C490 O503 1.251 . S
O491 C490 1.261 . S
H492 C486 0.930 . S
H493 C488 0.930 . S
N494 Cu483 1.985 . S
N494 C496 1.335 . S
N494 C497 1.390 . S
N495 C496 1.345 . S
N495 C498 1.336 . S
C496 N494 1.335 . S
C496 N495 1.345 . S
C496 H501 0.930 . S
C497 N494 1.390 . S
C497 C498 1.346 . S
C497 H502 0.930 . S
C498 N495 1.336 . S
C498 C497 1.346 . S
C498 H505 0.929 . S
C499 O489 1.282 . S
C499 O500 1.216 . S
O500 C499 1.216 . S
H501 C496 0.930 . S
H502 C497 0.930 . S
O503 Cu483 1.959 . S
O503 C490 1.251 . S
H504 C487 0.930 . S
H505 C498 0.929 . S
Cu506 N507 1.999 . S
Cu506 O512 1.974 . S
Cu506 N517 1.985 . S
Cu506 O526 1.959 . S
N507 Cu506 1.999 . S
N507 C509 1.263 . S
N507 C511 1.389 . S
N508 C509 1.358 . S
N508 C510 1.400 . S
C509 N507 1.263 . S
C509 N508 1.358 . S
C509 H515 0.930 . S
C510 N508 1.400 . S
C510 C511 1.351 . S
C510 H527 0.930 . S
C511 N507 1.389 . S
C511 C510 1.351 . S
C511 H516 0.930 . S
O512 Cu506 1.974 . S
O512 C522 1.282 . S
C513 O514 1.261 . S
C513 O526 1.251 . S
O514 C513 1.261 . S
H515 C509 0.930 . S
H516 C511 0.930 . S
N517 Cu506 1.985 . S
N517 C519 1.335 . S
N517 C520 1.390 . S
N518 C519 1.345 . S
N518 C521 1.336 . S
C519 N517 1.335 . S
C519 N518 1.345 . S
C519 H524 0.930 . S
C520 N517 1.390 . S
C520 C521 1.346 . S
C520 H525 0.930 . S
C521 N518 1.336 . S
C521 C520 1.346 . S
C521 H528 0.929 . S
C522 O512 1.282 . S
C522 O523 1.216 . S
O523 C522 1.216 . S
H524 C519 0.930 . S
H525 C520 0.930 . S
O526 Cu506 1.959 . S
O526 C513 1.251 . S
H527 C510 0.930 . S
H528 C521 0.929 . S
Cu529 N530 1.999 . S
Cu529 O535 1.974 . S
Cu529 N540 1.985 . S
Cu529 O549 1.959 . S
N530 Cu529 1.999 . S
N530 C532 1.263 . S
N530 C534 1.389 . S
N531 C532 1.358 . S
N531 C533 1.400 . S
C532 N530 1.263 . S
C532 N531 1.358 . S
C532 H538 0.930 . S
C533 N531 1.400 . S
C533 C534 1.351 . S
C533 H550 0.930 . S
C534 N530 1.389 . S
C534 C533 1.351 . S
C534 H539 0.930 . S
O535 Cu529 1.974 . S
O535 C545 1.282 . S
C536 O537 1.261 . S
C536 O549 1.251 . S
O537 C536 1.261 . S
H538 C532 0.930 . S
H539 C534 0.930 . S
N540 Cu529 1.985 . S
N540 C542 1.335 . S
N540 C543 1.390 . S
N541 C542 1.345 . S
N541 C544 1.336 . S
C542 N540 1.335 . S
C542 N541 1.345 . S
C542 H547 0.930 . S
C543 N540 1.390 . S
C543 C544 1.346 . S
C543 H548 0.930 . S
C544 N541 1.336 . S
C544 C543 1.346 . S
C544 H551 0.929 . S
C545 O535 1.282 . S
C545 O546 1.216 . S
O546 C545 1.216 . S
H547 C542 0.930 . S
H548 C543 0.930 . S
O549 Cu529 1.959 . S
O549 C536 1.251 . S
H550 C533 0.930 . S
H551 C544 0.929 . S
H552 C564 0.930 . S
H553 C566 0.930 . S
H554 C567 0.930 . S
H555 C571 0.959 . S
H556 C571 0.959 . S
H557 C571 0.961 . S
H558 C572 0.960 . S
H559 C572 0.961 . S
H560 C572 0.959 . S
H561 C575 0.929 . S
H562 C576 0.931 . S
H563 C578 0.930 . S
C564 H552 0.930 . S
C564 C565 1.399 . S
C564 C569 1.399 . S
C565 C564 1.399 . S
C565 C566 1.376 . S
C566 H553 0.930 . S
C566 C565 1.376 . S
C566 C567 1.388 . S
C567 H554 0.930 . S
C567 C566 1.388 . S
C567 C568 1.390 . S
C568 C567 1.390 . S
C568 C569 1.394 . S
C568 C574 1.465 . S
C569 C564 1.399 . S
C569 C568 1.394 . S
C569 C570 1.516 . S
C570 C569 1.516 . S
C570 C571 1.502 . S
C570 C572 1.561 . S
C570 C573 1.526 . S
C571 H555 0.959 . S
C571 H556 0.959 . S
C571 H557 0.961 . S
C571 C570 1.502 . S
C572 H558 0.960 . S
C572 H559 0.961 . S
C572 H560 0.959 . S
C572 C570 1.561 . S
C573 C570 1.526 . S
C573 C574 1.396 . S
C573 C578 1.390 . S
C574 C568 1.465 . S
C574 C573 1.396 . S
C574 C575 1.399 . S
C575 H561 0.929 . S
C575 C574 1.399 . S
C575 C576 1.385 . S
C576 H562 0.931 . S
C576 C575 1.385 . S
C576 C577 1.389 . S
C577 C576 1.389 . S
C577 C578 1.387 . S
C578 H563 0.930 . S
C578 C573 1.390 . S
C578 C577 1.387 . S
H579 C591 0.930 . S
H580 C593 0.930 . S
H581 C594 0.930 . S
H582 C598 0.959 . S
H583 C598 0.959 . S
H584 C598 0.961 . S
H585 C599 0.960 . S
H586 C599 0.961 . S
H587 C599 0.959 . S
H588 C602 0.929 . S
H589 C603 0.931 . S
H590 C605 0.930 . S
C591 H579 0.930 . S
C591 C592 1.399 . S
C591 C596 1.399 . S
C592 C591 1.399 . S
C592 C593 1.376 . S
C593 H580 0.930 . S
C593 C592 1.376 . S
C593 C594 1.388 . S
C594 H581 0.930 . S
C594 C593 1.388 . S
C594 C595 1.390 . S
C595 C594 1.390 . S
C595 C596 1.394 . S
C595 C601 1.465 . S
C596 C591 1.399 . S
C596 C595 1.394 . S
C596 C597 1.516 . S
C597 C596 1.516 . S
C597 C598 1.502 . S
C597 C599 1.561 . S
C597 C600 1.526 . S
C598 H582 0.959 . S
C598 H583 0.959 . S
C598 H584 0.961 . S
C598 C597 1.502 . S
C599 H585 0.960 . S
C599 H586 0.961 . S
C599 H587 0.959 . S
C599 C597 1.561 . S
C600 C597 1.526 . S
C600 C601 1.396 . S
C600 C605 1.390 . S
C601 C595 1.465 . S
C601 C600 1.396 . S
C601 C602 1.399 . S
C602 H588 0.929 . S
C602 C601 1.399 . S
C602 C603 1.385 . S
C603 H589 0.931 . S
C603 C602 1.385 . S
C603 C604 1.389 . S
C604 C603 1.389 . S
C604 C605 1.387 . S
C605 H590 0.930 . S
C605 C600 1.390 . S
C605 C604 1.387 . S
H606 C618 0.930 . S
H607 C620 0.930 . S
H608 C621 0.930 . S
H609 C625 0.959 . S
H610 C625 0.959 . S
H611 C625 0.961 . S
H612 C626 0.960 . S
H613 C626 0.961 . S
H614 C626 0.959 . S
H615 C629 0.929 . S
H616 C630 0.931 . S
H617 C632 0.930 . S
C618 H606 0.930 . S
C618 C619 1.399 . S
C618 C623 1.399 . S
C619 C618 1.399 . S
C619 C620 1.376 . S
C620 H607 0.930 . S
C620 C619 1.376 . S
C620 C621 1.388 . S
C621 H608 0.930 . S
C621 C620 1.388 . S
C621 C622 1.390 . S
C622 C621 1.390 . S
C622 C623 1.394 . S
C622 C628 1.465 . S
C623 C618 1.399 . S
C623 C622 1.394 . S
C623 C624 1.516 . S
C624 C623 1.516 . S
C624 C625 1.502 . S
C624 C626 1.561 . S
C624 C627 1.526 . S
C625 H609 0.959 . S
C625 H610 0.959 . S
C625 H611 0.961 . S
C625 C624 1.502 . S
C626 H612 0.960 . S
C626 H613 0.961 . S
C626 H614 0.959 . S
C626 C624 1.561 . S
C627 C624 1.526 . S
C627 C628 1.396 . S
C627 C632 1.390 . S
C628 C622 1.465 . S
C628 C627 1.396 . S
C628 C629 1.399 . S
C629 H615 0.929 . S
C629 C628 1.399 . S
C629 C630 1.385 . S
C630 H616 0.931 . S
C630 C629 1.385 . S
C630 C631 1.389 . S
C631 C630 1.389 . S
C631 C632 1.387 . S
C632 H617 0.930 . S
C632 C627 1.390 . S
C632 C631 1.387 . S
H633 C645 0.930 . S
H634 C647 0.930 . S
H635 C648 0.930 . S
H636 C652 0.959 . S
H637 C652 0.959 . S
H638 C652 0.961 . S
H639 C653 0.960 . S
H640 C653 0.961 . S
H641 C653 0.959 . S
H642 C656 0.929 . S
H643 C657 0.931 . S
H644 C659 0.930 . S
C645 H633 0.930 . S
C645 C646 1.399 . S
C645 C650 1.399 . S
C646 C645 1.399 . S
C646 C647 1.376 . S
C647 H634 0.930 . S
C647 C646 1.376 . S
C647 C648 1.388 . S
C648 H635 0.930 . S
C648 C647 1.388 . S
C648 C649 1.390 . S
C649 C648 1.390 . S
C649 C650 1.394 . S
C649 C655 1.465 . S
C650 C645 1.399 . S
C650 C649 1.394 . S
C650 C651 1.516 . S
C651 C650 1.516 . S
C651 C652 1.502 . S
C651 C653 1.561 . S
C651 C654 1.526 . S
C652 H636 0.959 . S
C652 H637 0.959 . S
C652 H638 0.961 . S
C652 C651 1.502 . S
C653 H639 0.960 . S
C653 H640 0.961 . S
C653 H641 0.959 . S
C653 C651 1.561 . S
C654 C651 1.526 . S
C654 C655 1.396 . S
C654 C659 1.390 . S
C655 C649 1.465 . S
C655 C654 1.396 . S
C655 C656 1.399 . S
C656 H642 0.929 . S
C656 C655 1.399 . S
C656 C657 1.385 . S
C657 H643 0.931 . S
C657 C656 1.385 . S
C657 C658 1.389 . S
C658 C657 1.389 . S
C658 C659 1.387 . S
C659 H644 0.930 . S
C659 C654 1.390 . S
C659 C658 1.387 . S
H660 C672 0.930 . S
H661 C674 0.930 . S
H662 C675 0.930 . S
H663 C679 0.959 . S
H664 C679 0.959 . S
H665 C679 0.961 . S
H666 C680 0.960 . S
H667 C680 0.961 . S
H668 C680 0.959 . S
H669 C683 0.929 . S
H670 C684 0.931 . S
H671 C686 0.930 . S
C672 H660 0.930 . S
C672 C673 1.399 . S
C672 C677 1.399 . S
C673 C672 1.399 . S
C673 C674 1.376 . S
C674 H661 0.930 . S
C674 C673 1.376 . S
C674 C675 1.388 . S
C675 H662 0.930 . S
C675 C674 1.388 . S
C675 C676 1.390 . S
C676 C675 1.390 . S
C676 C677 1.394 . S
C676 C682 1.465 . S
C677 C672 1.399 . S
C677 C676 1.394 . S
C677 C678 1.516 . S
C678 C677 1.516 . S
C678 C679 1.502 . S
C678 C680 1.561 . S
C678 C681 1.526 . S
C679 H663 0.959 . S
C679 H664 0.959 . S
C679 H665 0.961 . S
C679 C678 1.502 . S
C680 H666 0.960 . S
C680 H667 0.961 . S
C680 H668 0.959 . S
C680 C678 1.561 . S
C681 C678 1.526 . S
C681 C682 1.396 . S
C681 C686 1.390 . S
C682 C676 1.465 . S
C682 C681 1.396 . S
C682 C683 1.399 . S
C683 H669 0.929 . S
C683 C682 1.399 . S
C683 C684 1.385 . S
C684 H670 0.931 . S
C684 C683 1.385 . S
C684 C685 1.389 . S
C685 C684 1.389 . S
C685 C686 1.387 . S
C686 H671 0.930 . S
C686 C681 1.390 . S
C686 C685 1.387 . S
H687 C699 0.930 . S
H688 C701 0.930 . S
H689 C702 0.930 . S
H690 C706 0.959 . S
H691 C706 0.959 . S
H692 C706 0.961 . S
H693 C707 0.960 . S
H694 C707 0.961 . S
H695 C707 0.959 . S
H696 C710 0.929 . S
H697 C711 0.931 . S
H698 C713 0.930 . S
C699 H687 0.930 . S
C699 C700 1.399 . S
C699 C704 1.399 . S
C700 C699 1.399 . S
C700 C701 1.376 . S
C701 H688 0.930 . S
C701 C700 1.376 . S
C701 C702 1.388 . S
C702 H689 0.930 . S
C702 C701 1.388 . S
C702 C703 1.390 . S
C703 C702 1.390 . S
C703 C704 1.394 . S
C703 C709 1.465 . S
C704 C699 1.399 . S
C704 C703 1.394 . S
C704 C705 1.516 . S
C705 C704 1.516 . S
C705 C706 1.502 . S
C705 C707 1.561 . S
C705 C708 1.526 . S
C706 H690 0.959 . S
C706 H691 0.959 . S
C706 H692 0.961 . S
C706 C705 1.502 . S
C707 H693 0.960 . S
C707 H694 0.961 . S
C707 H695 0.959 . S
C707 C705 1.561 . S
C708 C705 1.526 . S
C708 C709 1.396 . S
C708 C713 1.390 . S
C709 C703 1.465 . S
C709 C708 1.396 . S
C709 C710 1.399 . S
C710 H696 0.929 . S
C710 C709 1.399 . S
C710 C711 1.385 . S
C711 H697 0.931 . S
C711 C710 1.385 . S
C711 C712 1.389 . S
C712 C711 1.389 . S
C712 C713 1.387 . S
C713 H698 0.930 . S
C713 C708 1.390 . S
C713 C712 1.387 . S
H714 C726 0.930 . S
H715 C728 0.930 . S
H716 C729 0.930 . S
H717 C733 0.959 . S
H718 C733 0.959 . S
H719 C733 0.961 . S
H720 C734 0.960 . S
H721 C734 0.961 . S
H722 C734 0.959 . S
H723 C737 0.929 . S
H724 C738 0.931 . S
H725 C740 0.930 . S
C726 H714 0.930 . S
C726 C727 1.399 . S
C726 C731 1.399 . S
C727 C726 1.399 . S
C727 C728 1.376 . S
C728 H715 0.930 . S
C728 C727 1.376 . S
C728 C729 1.388 . S
C729 H716 0.930 . S
C729 C728 1.388 . S
C729 C730 1.390 . S
C730 C729 1.390 . S
C730 C731 1.394 . S
C730 C736 1.465 . S
C731 C726 1.399 . S
C731 C730 1.394 . S
C731 C732 1.516 . S
C732 C731 1.516 . S
C732 C733 1.502 . S
C732 C734 1.561 . S
C732 C735 1.526 . S
C733 H717 0.959 . S
C733 H718 0.959 . S
C733 H719 0.961 . S
C733 C732 1.502 . S
C734 H720 0.960 . S
C734 H721 0.961 . S
C734 H722 0.959 . S
C734 C732 1.561 . S
C735 C732 1.526 . S
C735 C736 1.396 . S
C735 C740 1.390 . S
C736 C730 1.465 . S
C736 C735 1.396 . S
C736 C737 1.399 . S
C737 H723 0.929 . S
C737 C736 1.399 . S
C737 C738 1.385 . S
C738 H724 0.931 . S
C738 C737 1.385 . S
C738 C739 1.389 . S
C739 C738 1.389 . S
C739 C740 1.387 . S
C740 H725 0.930 . S
C740 C735 1.390 . S
C740 C739 1.387 . S
H741 C753 0.930 . S
H742 C755 0.930 . S
H743 C756 0.930 . S
H744 C760 0.959 . S
H745 C760 0.959 . S
H746 C760 0.961 . S
H747 C761 0.960 . S
H748 C761 0.961 . S
H749 C761 0.959 . S
H750 C764 0.929 . S
H751 C765 0.931 . S
H752 C767 0.930 . S
C753 H741 0.930 . S
C753 C754 1.399 . S
C753 C758 1.399 . S
C754 C753 1.399 . S
C754 C755 1.376 . S
C755 H742 0.930 . S
C755 C754 1.376 . S
C755 C756 1.388 . S
C756 H743 0.930 . S
C756 C755 1.388 . S
C756 C757 1.390 . S
C757 C756 1.390 . S
C757 C758 1.394 . S
C757 C763 1.465 . S
C758 C753 1.399 . S
C758 C757 1.394 . S
C758 C759 1.516 . S
C759 C758 1.516 . S
C759 C760 1.502 . S
C759 C761 1.561 . S
C759 C762 1.526 . S
C760 H744 0.959 . S
C760 H745 0.959 . S
C760 H746 0.961 . S
C760 C759 1.502 . S
C761 H747 0.960 . S
C761 H748 0.961 . S
C761 H749 0.959 . S
C761 C759 1.561 . S
C762 C759 1.526 . S
C762 C763 1.396 . S
C762 C767 1.390 . S
C763 C757 1.465 . S
C763 C762 1.396 . S
C763 C764 1.399 . S
C764 H750 0.929 . S
C764 C763 1.399 . S
C764 C765 1.385 . S
C765 H751 0.931 . S
C765 C764 1.385 . S
C765 C766 1.389 . S
C766 C765 1.389 . S
C766 C767 1.387 . S
C767 H752 0.930 . S
C767 C762 1.390 . S
C767 C766 1.387 . S
H768 C780 0.930 . S
H769 C782 0.930 . S
H770 C783 0.930 . S
H771 C787 0.959 . S
H772 C787 0.959 . S
H773 C787 0.961 . S
H774 C788 0.960 . S
H775 C788 0.961 . S
H776 C788 0.959 . S
H777 C791 0.929 . S
H778 C792 0.931 . S
H779 C794 0.930 . S
C780 H768 0.930 . S
C780 C781 1.399 . S
C780 C785 1.399 . S
C781 C780 1.399 . S
C781 C782 1.376 . S
C782 H769 0.930 . S
C782 C781 1.376 . S
C782 C783 1.388 . S
C783 H770 0.930 . S
C783 C782 1.388 . S
C783 C784 1.390 . S
C784 C783 1.390 . S
C784 C785 1.394 . S
C784 C790 1.465 . S
C785 C780 1.399 . S
C785 C784 1.394 . S
C785 C786 1.516 . S
C786 C785 1.516 . S
C786 C787 1.502 . S
C786 C788 1.561 . S
C786 C789 1.526 . S
C787 H771 0.959 . S
C787 H772 0.959 . S
C787 H773 0.961 . S
C787 C786 1.502 . S
C788 H774 0.960 . S
C788 H775 0.961 . S
C788 H776 0.959 . S
C788 C786 1.561 . S
C789 C786 1.526 . S
C789 C790 1.396 . S
C789 C794 1.390 . S
C790 C784 1.465 . S
C790 C789 1.396 . S
C790 C791 1.399 . S
C791 H777 0.929 . S
C791 C790 1.399 . S
C791 C792 1.385 . S
C792 H778 0.931 . S
C792 C791 1.385 . S
C792 C793 1.389 . S
C793 C792 1.389 . S
C793 C794 1.387 . S
C794 H779 0.930 . S
C794 C789 1.390 . S
C794 C793 1.387 . S
H795 C807 0.930 . S
H796 C809 0.930 . S
H797 C810 0.930 . S
H798 C814 0.959 . S
H799 C814 0.959 . S
H800 C814 0.961 . S
H801 C815 0.960 . S
H802 C815 0.961 . S
H803 C815 0.959 . S
H804 C818 0.929 . S
H805 C819 0.931 . S
H806 C821 0.930 . S
C807 H795 0.930 . S
C807 C808 1.399 . S
C807 C812 1.399 . S
C808 C807 1.399 . S
C808 C809 1.376 . S
C809 H796 0.930 . S
C809 C808 1.376 . S
C809 C810 1.388 . S
C810 H797 0.930 . S
C810 C809 1.388 . S
C810 C811 1.390 . S
C811 C810 1.390 . S
C811 C812 1.394 . S
C811 C817 1.465 . S
C812 C807 1.399 . S
C812 C811 1.394 . S
C812 C813 1.516 . S
C813 C812 1.516 . S
C813 C814 1.502 . S
C813 C815 1.561 . S
C813 C816 1.526 . S
C814 H798 0.959 . S
C814 H799 0.959 . S
C814 H800 0.961 . S
C814 C813 1.502 . S
C815 H801 0.960 . S
C815 H802 0.961 . S
C815 H803 0.959 . S
C815 C813 1.561 . S
C816 C813 1.526 . S
C816 C817 1.396 . S
C816 C821 1.390 . S
C817 C811 1.465 . S
C817 C816 1.396 . S
C817 C818 1.399 . S
C818 H804 0.929 . S
C818 C817 1.399 . S
C818 C819 1.385 . S
C819 H805 0.931 . S
C819 C818 1.385 . S
C819 C820 1.389 . S
C820 C819 1.389 . S
C820 C821 1.387 . S
C821 H806 0.930 . S
C821 C816 1.390 . S
C821 C820 1.387 . S
H822 C834 0.930 . S
H823 C836 0.930 . S
H824 C837 0.930 . S
H825 C841 0.959 . S
H826 C841 0.959 . S
H827 C841 0.961 . S
H828 C842 0.960 . S
H829 C842 0.961 . S
H830 C842 0.959 . S
H831 C845 0.929 . S
H832 C846 0.931 . S
H833 C848 0.930 . S
C834 H822 0.930 . S
C834 C835 1.399 . S
C834 C839 1.399 . S
C835 C834 1.399 . S
C835 C836 1.376 . S
C836 H823 0.930 . S
C836 C835 1.376 . S
C836 C837 1.388 . S
C837 H824 0.930 . S
C837 C836 1.388 . S
C837 C838 1.390 . S
C838 C837 1.390 . S
C838 C839 1.394 . S
C838 C844 1.465 . S
C839 C834 1.399 . S
C839 C838 1.394 . S
C839 C840 1.516 . S
C840 C839 1.516 . S
C840 C841 1.502 . S
C840 C842 1.561 . S
C840 C843 1.526 . S
C841 H825 0.959 . S
C841 H826 0.959 . S
C841 H827 0.961 . S
C841 C840 1.502 . S
C842 H828 0.960 . S
C842 H829 0.961 . S
C842 H830 0.959 . S
C842 C840 1.561 . S
C843 C840 1.526 . S
C843 C844 1.396 . S
C843 C848 1.390 . S
C844 C838 1.465 . S
C844 C843 1.396 . S
C844 C845 1.399 . S
C845 H831 0.929 . S
C845 C844 1.399 . S
C845 C846 1.385 . S
C846 H832 0.931 . S
C846 C845 1.385 . S
C846 C847 1.389 . S
C847 C846 1.389 . S
C847 C848 1.387 . S
C848 H833 0.930 . S
C848 C843 1.390 . S
C848 C847 1.387 . S
H849 C861 0.930 . S
H850 C863 0.930 . S
H851 C864 0.930 . S
H852 C868 0.959 . S
H853 C868 0.959 . S
H854 C868 0.961 . S
H855 C869 0.960 . S
H856 C869 0.961 . S
H857 C869 0.959 . S
H858 C872 0.929 . S
H859 C873 0.931 . S
H860 C875 0.930 . S
C861 H849 0.930 . S
C861 C862 1.399 . S
C861 C866 1.399 . S
C862 C861 1.399 . S
C862 C863 1.376 . S
C863 H850 0.930 . S
C863 C862 1.376 . S
C863 C864 1.388 . S
C864 H851 0.930 . S
C864 C863 1.388 . S
C864 C865 1.390 . S
C865 C864 1.390 . S
C865 C866 1.394 . S
C865 C871 1.465 . S
C866 C861 1.399 . S
C866 C865 1.394 . S
C866 C867 1.516 . S
C867 C866 1.516 . S
C867 C868 1.502 . S
C867 C869 1.561 . S
C867 C870 1.526 . S
C868 H852 0.959 . S
C868 H853 0.959 . S
C868 H854 0.961 . S
C868 C867 1.502 . S
C869 H855 0.960 . S
C869 H856 0.961 . S
C869 H857 0.959 . S
C869 C867 1.561 . S
C870 C867 1.526 . S
C870 C871 1.396 . S
C870 C875 1.390 . S
C871 C865 1.465 . S
C871 C870 1.396 . S
C871 C872 1.399 . S
C872 H858 0.929 . S
C872 C871 1.399 . S
C872 C873 1.385 . S
C873 H859 0.931 . S
C873 C872 1.385 . S
C873 C874 1.389 . S
C874 C873 1.389 . S
C874 C875 1.387 . S
C875 H860 0.930 . S
C875 C870 1.390 . S
C875 C874 1.387 . S
H876 C888 0.930 . S
H877 C890 0.930 . S
H878 C891 0.930 . S
H879 C895 0.959 . S
H880 C895 0.959 . S
H881 C895 0.961 . S
H882 C896 0.960 . S
H883 C896 0.961 . S
H884 C896 0.959 . S
H885 C899 0.929 . S
H886 C900 0.931 . S
H887 C902 0.930 . S
C888 H876 0.930 . S
C888 C889 1.399 . S
C888 C893 1.399 . S
C889 C888 1.399 . S
C889 C890 1.376 . S
C890 H877 0.930 . S
C890 C889 1.376 . S
C890 C891 1.388 . S
C891 H878 0.930 . S
C891 C890 1.388 . S
C891 C892 1.390 . S
C892 C891 1.390 . S
C892 C893 1.394 . S
C892 C898 1.465 . S
C893 C888 1.399 . S
C893 C892 1.394 . S
C893 C894 1.516 . S
C894 C893 1.516 . S
C894 C895 1.502 . S
C894 C896 1.561 . S
C894 C897 1.526 . S
C895 H879 0.959 . S
C895 H880 0.959 . S
C895 H881 0.961 . S
C895 C894 1.502 . S
C896 H882 0.960 . S
C896 H883 0.961 . S
C896 H884 0.959 . S
C896 C894 1.561 . S
C897 C894 1.526 . S
C897 C898 1.396 . S
C897 C902 1.390 . S
C898 C892 1.465 . S
C898 C897 1.396 . S
C898 C899 1.399 . S
C899 H885 0.929 . S
C899 C898 1.399 . S
C899 C900 1.385 . S
C900 H886 0.931 . S
C900 C899 1.385 . S
C900 C901 1.389 . S
C901 C900 1.389 . S
C901 C902 1.387 . S
C902 H887 0.930 . S
C902 C897 1.390 . S
C902 C901 1.387 . S
H903 C915 0.930 . S
H904 C917 0.930 . S
H905 C918 0.930 . S
H906 C922 0.959 . S
H907 C922 0.959 . S
H908 C922 0.961 . S
H909 C923 0.960 . S
H910 C923 0.961 . S
H911 C923 0.959 . S
H912 C926 0.929 . S
H913 C927 0.931 . S
H914 C929 0.930 . S
C915 H903 0.930 . S
C915 C916 1.399 . S
C915 C920 1.399 . S
C916 C915 1.399 . S
C916 C917 1.376 . S
C917 H904 0.930 . S
C917 C916 1.376 . S
C917 C918 1.388 . S
C918 H905 0.930 . S
C918 C917 1.388 . S
C918 C919 1.390 . S
C919 C918 1.390 . S
C919 C920 1.394 . S
C919 C925 1.465 . S
C920 C915 1.399 . S
C920 C919 1.394 . S
C920 C921 1.516 . S
C921 C920 1.516 . S
C921 C922 1.502 . S
C921 C923 1.561 . S
C921 C924 1.526 . S
C922 H906 0.959 . S
C922 H907 0.959 . S
C922 H908 0.961 . S
C922 C921 1.502 . S
C923 H909 0.960 . S
C923 H910 0.961 . S
C923 H911 0.959 . S
C923 C921 1.561 . S
C924 C921 1.526 . S
C924 C925 1.396 . S
C924 C929 1.390 . S
C925 C919 1.465 . S
C925 C924 1.396 . S
C925 C926 1.399 . S
C926 H912 0.929 . S
C926 C925 1.399 . S
C926 C927 1.385 . S
C927 H913 0.931 . S
C927 C926 1.385 . S
C927 C928 1.389 . S
C928 C927 1.389 . S
C928 C929 1.387 . S
C929 H914 0.930 . S
C929 C924 1.390 . S
C929 C928 1.387 . S
H930 C942 0.930 . S
H931 C944 0.930 . S
H932 C945 0.930 . S
H933 C949 0.959 . S
H934 C949 0.959 . S
H935 C949 0.961 . S
H936 C950 0.960 . S
H937 C950 0.961 . S
H938 C950 0.959 . S
H939 C953 0.929 . S
H940 C954 0.931 . S
H941 C956 0.930 . S
C942 H930 0.930 . S
C942 C943 1.399 . S
C942 C947 1.399 . S
C943 C942 1.399 . S
C943 C944 1.376 . S
C944 H931 0.930 . S
C944 C943 1.376 . S
C944 C945 1.388 . S
C945 H932 0.930 . S
C945 C944 1.388 . S
C945 C946 1.390 . S
C946 C945 1.390 . S
C946 C947 1.394 . S
C946 C952 1.465 . S
C947 C942 1.399 . S
C947 C946 1.394 . S
C947 C948 1.516 . S
C948 C947 1.516 . S
C948 C949 1.502 . S
C948 C950 1.561 . S
C948 C951 1.526 . S
C949 H933 0.959 . S
C949 H934 0.959 . S
C949 H935 0.961 . S
C949 C948 1.502 . S
C950 H936 0.960 . S
C950 H937 0.961 . S
C950 H938 0.959 . S
C950 C948 1.561 . S
C951 C948 1.526 . S
C951 C952 1.396 . S
C951 C956 1.390 . S
C952 C946 1.465 . S
C952 C951 1.396 . S
C952 C953 1.399 . S
C953 H939 0.929 . S
C953 C952 1.399 . S
C953 C954 1.385 . S
C954 H940 0.931 . S
C954 C953 1.385 . S
C954 C955 1.389 . S
C955 C954 1.389 . S
C955 C956 1.387 . S
C956 H941 0.930 . S
C956 C951 1.390 . S
C956 C955 1.387 . S
H957 C969 0.930 . S
H958 C971 0.930 . S
H959 C972 0.930 . S
H960 C976 0.959 . S
H961 C976 0.959 . S
H962 C976 0.961 . S
H963 C977 0.960 . S
H964 C977 0.961 . S
H965 C977 0.959 . S
H966 C980 0.929 . S
H967 C981 0.931 . S
H968 C983 0.930 . S
C969 H957 0.930 . S
C969 C970 1.399 . S
C969 C974 1.399 . S
C970 C969 1.399 . S
C970 C971 1.376 . S
C971 H958 0.930 . S
C971 C970 1.376 . S
C971 C972 1.388 . S
C972 H959 0.930 . S
C972 C971 1.388 . S
C972 C973 1.390 . S
C973 C972 1.390 . S
C973 C974 1.394 . S
C973 C979 1.465 . S
C974 C969 1.399 . S
C974 C973 1.394 . S
C974 C975 1.516 . S
C975 C974 1.516 . S
C975 C976 1.502 . S
C975 C977 1.561 . S
C975 C978 1.526 . S
C976 H960 0.959 . S
C976 H961 0.959 . S
C976 H962 0.961 . S
C976 C975 1.502 . S
C977 H963 0.960 . S
C977 H964 0.961 . S
C977 H965 0.959 . S
C977 C975 1.561 . S
C978 C975 1.526 . S
C978 C979 1.396 . S
C978 C983 1.390 . S
C979 C973 1.465 . S
C979 C978 1.396 . S
C979 C980 1.399 . S
C980 H966 0.929 . S
C980 C979 1.399 . S
C980 C981 1.385 . S
C981 H967 0.931 . S
C981 C980 1.385 . S
C981 C982 1.389 . S
C982 C981 1.389 . S
C982 C983 1.387 . S
C983 H968 0.930 . S
C983 C978 1.390 . S
C983 C982 1.387 . S
H984 C996 0.930 . S
H985 C998 0.930 . S
H986 C999 0.930 . S
H987 C1003 0.959 . S
H988 C1003 0.959 . S
H989 C1003 0.961 . S
H990 C1004 0.960 . S
H991 C1004 0.961 . S
H992 C1004 0.959 . S
H993 C1007 0.929 . S
H994 C1008 0.931 . S
H995 C1010 0.930 . S
C996 H984 0.930 . S
C996 C997 1.399 . S
C996 C1001 1.399 . S
C997 C996 1.399 . S
C997 C998 1.376 . S
C998 H985 0.930 . S
C998 C997 1.376 . S
C998 C999 1.388 . S
C999 H986 0.930 . S
C999 C998 1.388 . S
C999 C1000 1.390 . S
C1000 C999 1.390 . S
C1000 C1001 1.394 . S
C1000 C1006 1.465 . S
C1001 C996 1.399 . S
C1001 C1000 1.394 . S
C1001 C1002 1.516 . S
C1002 C1001 1.516 . S
C1002 C1003 1.502 . S
C1002 C1004 1.561 . S
C1002 C1005 1.526 . S
C1003 H987 0.959 . S
C1003 H988 0.959 . S
C1003 H989 0.961 . S
C1003 C1002 1.502 . S
C1004 H990 0.960 . S
C1004 H991 0.961 . S
C1004 H992 0.959 . S
C1004 C1002 1.561 . S
C1005 C1002 1.526 . S
C1005 C1006 1.396 . S
C1005 C1010 1.390 . S
C1006 C1000 1.465 . S
C1006 C1005 1.396 . S
C1006 C1007 1.399 . S
C1007 H993 0.929 . S
C1007 C1006 1.399 . S
C1007 C1008 1.385 . S
C1008 H994 0.931 . S
C1008 C1007 1.385 . S
C1008 C1009 1.389 . S
C1009 C1008 1.389 . S
C1009 C1010 1.387 . S
C1010 H995 0.930 . S
C1010 C1005 1.390 . S
C1010 C1009 1.387 . S
H1011 C1023 0.930 . S
H1012 C1025 0.930 . S
H1013 C1026 0.930 . S
H1014 C1030 0.959 . S
H1015 C1030 0.959 . S
H1016 C1030 0.961 . S
H1017 C1031 0.960 . S
H1018 C1031 0.961 . S
H1019 C1031 0.959 . S
H1020 C1034 0.929 . S
H1021 C1035 0.931 . S
H1022 C1037 0.930 . S
C1023 H1011 0.930 . S
C1023 C1024 1.399 . S
C1023 C1028 1.399 . S
C1024 C1023 1.399 . S
C1024 C1025 1.376 . S
C1025 H1012 0.930 . S
C1025 C1024 1.376 . S
C1025 C1026 1.388 . S
C1026 H1013 0.930 . S
C1026 C1025 1.388 . S
C1026 C1027 1.390 . S
C1027 C1026 1.390 . S
C1027 C1028 1.394 . S
C1027 C1033 1.465 . S
C1028 C1023 1.399 . S
C1028 C1027 1.394 . S
C1028 C1029 1.516 . S
C1029 C1028 1.516 . S
C1029 C1030 1.502 . S
C1029 C1031 1.561 . S
C1029 C1032 1.526 . S
C1030 H1014 0.959 . S
C1030 H1015 0.959 . S
C1030 H1016 0.961 . S
C1030 C1029 1.502 . S
C1031 H1017 0.960 . S
C1031 H1018 0.961 . S
C1031 H1019 0.959 . S
C1031 C1029 1.561 . S
C1032 C1029 1.526 . S
C1032 C1033 1.396 . S
C1032 C1037 1.390 . S
C1033 C1027 1.465 . S
C1033 C1032 1.396 . S
C1033 C1034 1.399 . S
C1034 H1020 0.929 . S
C1034 C1033 1.399 . S
C1034 C1035 1.385 . S
C1035 H1021 0.931 . S
C1035 C1034 1.385 . S
C1035 C1036 1.389 . S
C1036 C1035 1.389 . S
C1036 C1037 1.387 . S
C1037 H1022 0.930 . S
C1037 C1032 1.390 . S
C1037 C1036 1.387 . S
H1038 C1050 0.930 . S
H1039 C1052 0.930 . S
H1040 C1053 0.930 . S
H1041 C1057 0.959 . S
H1042 C1057 0.959 . S
H1043 C1057 0.961 . S
H1044 C1058 0.960 . S
H1045 C1058 0.961 . S
H1046 C1058 0.959 . S
H1047 C1061 0.929 . S
H1048 C1062 0.931 . S
H1049 C1064 0.930 . S
C1050 H1038 0.930 . S
C1050 C1051 1.399 . S
C1050 C1055 1.399 . S
C1051 C1050 1.399 . S
C1051 C1052 1.376 . S
C1052 H1039 0.930 . S
C1052 C1051 1.376 . S
C1052 C1053 1.388 . S
C1053 H1040 0.930 . S
C1053 C1052 1.388 . S
C1053 C1054 1.390 . S
C1054 C1053 1.390 . S
C1054 C1055 1.394 . S
C1054 C1060 1.465 . S
C1055 C1050 1.399 . S
C1055 C1054 1.394 . S
C1055 C1056 1.516 . S
C1056 C1055 1.516 . S
C1056 C1057 1.502 . S
C1056 C1058 1.561 . S
C1056 C1059 1.526 . S
C1057 H1041 0.959 . S
C1057 H1042 0.959 . S
C1057 H1043 0.961 . S
C1057 C1056 1.502 . S
C1058 H1044 0.960 . S
C1058 H1045 0.961 . S
C1058 H1046 0.959 . S
C1058 C1056 1.561 . S
C1059 C1056 1.526 . S
C1059 C1060 1.396 . S
C1059 C1064 1.390 . S
C1060 C1054 1.465 . S
C1060 C1059 1.396 . S
C1060 C1061 1.399 . S
C1061 H1047 0.929 . S
C1061 C1060 1.399 . S
C1061 C1062 1.385 . S
C1062 H1048 0.931 . S
C1062 C1061 1.385 . S
C1062 C1063 1.389 . S
C1063 C1062 1.389 . S
C1063 C1064 1.387 . S
C1064 H1049 0.930 . S
C1064 C1059 1.390 . S
C1064 C1063 1.387 . S
H1065 C1077 0.930 . S
H1066 C1079 0.930 . S
H1067 C1080 0.930 . S
H1068 C1084 0.959 . S
H1069 C1084 0.959 . S
H1070 C1084 0.961 . S
H1071 C1085 0.960 . S
H1072 C1085 0.961 . S
H1073 C1085 0.959 . S
H1074 C1088 0.929 . S
H1075 C1089 0.931 . S
H1076 C1091 0.930 . S
C1077 H1065 0.930 . S
C1077 C1078 1.399 . S
C1077 C1082 1.399 . S
C1078 C1077 1.399 . S
C1078 C1079 1.376 . S
C1079 H1066 0.930 . S
C1079 C1078 1.376 . S
C1079 C1080 1.388 . S
C1080 H1067 0.930 . S
C1080 C1079 1.388 . S
C1080 C1081 1.390 . S
C1081 C1080 1.390 . S
C1081 C1082 1.394 . S
C1081 C1087 1.465 . S
C1082 C1077 1.399 . S
C1082 C1081 1.394 . S
C1082 C1083 1.516 . S
C1083 C1082 1.516 . S
C1083 C1084 1.502 . S
C1083 C1085 1.561 . S
C1083 C1086 1.526 . S
C1084 H1068 0.959 . S
C1084 H1069 0.959 . S
C1084 H1070 0.961 . S
C1084 C1083 1.502 . S
C1085 H1071 0.960 . S
C1085 H1072 0.961 . S
C1085 H1073 0.959 . S
C1085 C1083 1.561 . S
C1086 C1083 1.526 . S
C1086 C1087 1.396 . S
C1086 C1091 1.390 . S
C1087 C1081 1.465 . S
C1087 C1086 1.396 . S
C1087 C1088 1.399 . S
C1088 H1074 0.929 . S
C1088 C1087 1.399 . S
C1088 C1089 1.385 . S
C1089 H1075 0.931 . S
C1089 C1088 1.385 . S
C1089 C1090 1.389 . S
C1090 C1089 1.389 . S
C1090 C1091 1.387 . S
C1091 H1076 0.930 . S
C1091 C1086 1.390 . S
C1091 C1090 1.387 . S
H1092 C1104 0.930 . S
H1093 C1106 0.930 . S
H1094 C1107 0.930 . S
H1095 C1111 0.959 . S
H1096 C1111 0.959 . S
H1097 C1111 0.961 . S
H1098 C1112 0.960 . S
H1099 C1112 0.961 . S
H1100 C1112 0.959 . S
H1101 C1115 0.929 . S
H1102 C1116 0.931 . S
H1103 C1118 0.930 . S
C1104 H1092 0.930 . S
C1104 C1105 1.399 . S
C1104 C1109 1.399 . S
C1105 C1104 1.399 . S
C1105 C1106 1.376 . S
C1106 H1093 0.930 . S
C1106 C1105 1.376 . S
C1106 C1107 1.388 . S
C1107 H1094 0.930 . S
C1107 C1106 1.388 . S
C1107 C1108 1.390 . S
C1108 C1107 1.390 . S
C1108 C1109 1.394 . S
C1108 C1114 1.465 . S
C1109 C1104 1.399 . S
C1109 C1108 1.394 . S
C1109 C1110 1.516 . S
C1110 C1109 1.516 . S
C1110 C1111 1.502 . S
C1110 C1112 1.561 . S
C1110 C1113 1.526 . S
C1111 H1095 0.959 . S
C1111 H1096 0.959 . S
C1111 H1097 0.961 . S
C1111 C1110 1.502 . S
C1112 H1098 0.960 . S
C1112 H1099 0.961 . S
C1112 H1100 0.959 . S
C1112 C1110 1.561 . S
C1113 C1110 1.526 . S
C1113 C1114 1.396 . S
C1113 C1118 1.390 . S
C1114 C1108 1.465 . S
C1114 C1113 1.396 . S
C1114 C1115 1.399 . S
C1115 H1101 0.929 . S
C1115 C1114 1.399 . S
C1115 C1116 1.385 . S
C1116 H1102 0.931 . S
C1116 C1115 1.385 . S
C1116 C1117 1.389 . S
C1117 C1116 1.389 . S
C1117 C1118 1.387 . S
C1118 H1103 0.930 . S
C1118 C1113 1.390 . S
C1118 C1117 1.387 . S
H1119 C1131 0.930 . S
H1120 C1133 0.930 . S
H1121 C1134 0.930 . S
H1122 C1138 0.959 . S
H1123 C1138 0.959 . S
H1124 C1138 0.961 . S
H1125 C1139 0.960 . S
H1126 C1139 0.961 . S
H1127 C1139 0.959 . S
H1128 C1142 0.929 . S
H1129 C1143 0.931 . S
H1130 C1145 0.930 . S
C1131 H1119 0.930 . S
C1131 C1132 1.399 . S
C1131 C1136 1.399 . S
C1132 C1131 1.399 . S
C1132 C1133 1.376 . S
C1133 H1120 0.930 . S
C1133 C1132 1.376 . S
C1133 C1134 1.388 . S
C1134 H1121 0.930 . S
C1134 C1133 1.388 . S
C1134 C1135 1.390 . S
C1135 C1134 1.390 . S
C1135 C1136 1.394 . S
C1135 C1141 1.465 . S
C1136 C1131 1.399 . S
C1136 C1135 1.394 . S
C1136 C1137 1.516 . S
C1137 C1136 1.516 . S
C1137 C1138 1.502 . S
C1137 C1139 1.561 . S
C1137 C1140 1.526 . S
C1138 H1122 0.959 . S
C1138 H1123 0.959 . S
C1138 H1124 0.961 . S
C1138 C1137 1.502 . S
C1139 H1125 0.960 . S
C1139 H1126 0.961 . S
C1139 H1127 0.959 . S
C1139 C1137 1.561 . S
C1140 C1137 1.526 . S
C1140 C1141 1.396 . S
C1140 C1145 1.390 . S
C1141 C1135 1.465 . S
C1141 C1140 1.396 . S
C1141 C1142 1.399 . S
C1142 H1128 0.929 . S
C1142 C1141 1.399 . S
C1142 C1143 1.385 . S
C1143 H1129 0.931 . S
C1143 C1142 1.385 . S
C1143 C1144 1.389 . S
C1144 C1143 1.389 . S
C1144 C1145 1.387 . S
C1145 H1130 0.930 . S
C1145 C1140 1.390 . S
C1145 C1144 1.387 . S
H1146 C1158 0.930 . S
H1147 C1160 0.930 . S
H1148 C1161 0.930 . S
H1149 C1165 0.959 . S
H1150 C1165 0.959 . S
H1151 C1165 0.961 . S
H1152 C1166 0.960 . S
H1153 C1166 0.961 . S
H1154 C1166 0.959 . S
H1155 C1169 0.929 . S
H1156 C1170 0.931 . S
H1157 C1172 0.930 . S
C1158 H1146 0.930 . S
C1158 C1159 1.399 . S
C1158 C1163 1.399 . S
C1159 C1158 1.399 . S
C1159 C1160 1.376 . S
C1160 H1147 0.930 . S
C1160 C1159 1.376 . S
C1160 C1161 1.388 . S
C1161 H1148 0.930 . S
C1161 C1160 1.388 . S
C1161 C1162 1.390 . S
C1162 C1161 1.390 . S
C1162 C1163 1.394 . S
C1162 C1168 1.465 . S
C1163 C1158 1.399 . S
C1163 C1162 1.394 . S
C1163 C1164 1.516 . S
C1164 C1163 1.516 . S
C1164 C1165 1.502 . S
C1164 C1166 1.561 . S
C1164 C1167 1.526 . S
C1165 H1149 0.959 . S
C1165 H1150 0.959 . S
C1165 H1151 0.961 . S
C1165 C1164 1.502 . S
C1166 H1152 0.960 . S
C1166 H1153 0.961 . S
C1166 H1154 0.959 . S
C1166 C1164 1.561 . S
C1167 C1164 1.526 . S
C1167 C1168 1.396 . S
C1167 C1172 1.390 . S
C1168 C1162 1.465 . S
C1168 C1167 1.396 . S
C1168 C1169 1.399 . S
C1169 H1155 0.929 . S
C1169 C1168 1.399 . S
C1169 C1170 1.385 . S
C1170 H1156 0.931 . S
C1170 C1169 1.385 . S
C1170 C1171 1.389 . S
C1171 C1170 1.389 . S
C1171 C1172 1.387 . S
C1172 H1157 0.930 . S
C1172 C1167 1.390 . S
C1172 C1171 1.387 . S
H1173 C1185 0.930 . S
H1174 C1187 0.930 . S
H1175 C1188 0.930 . S
H1176 C1192 0.959 . S
H1177 C1192 0.959 . S
H1178 C1192 0.961 . S
H1179 C1193 0.960 . S
H1180 C1193 0.961 . S
H1181 C1193 0.959 . S
H1182 C1196 0.929 . S
H1183 C1197 0.931 . S
H1184 C1199 0.930 . S
C1185 H1173 0.930 . S
C1185 C1186 1.399 . S
C1185 C1190 1.399 . S
C1186 C1185 1.399 . S
C1186 C1187 1.376 . S
C1187 H1174 0.930 . S
C1187 C1186 1.376 . S
C1187 C1188 1.388 . S
C1188 H1175 0.930 . S
C1188 C1187 1.388 . S
C1188 C1189 1.390 . S
C1189 C1188 1.390 . S
C1189 C1190 1.394 . S
C1189 C1195 1.465 . S
C1190 C1185 1.399 . S
C1190 C1189 1.394 . S
C1190 C1191 1.516 . S
C1191 C1190 1.516 . S
C1191 C1192 1.502 . S
C1191 C1193 1.561 . S
C1191 C1194 1.526 . S
C1192 H1176 0.959 . S
C1192 H1177 0.959 . S
C1192 H1178 0.961 . S
C1192 C1191 1.502 . S
C1193 H1179 0.960 . S
C1193 H1180 0.961 . S
C1193 H1181 0.959 . S
C1193 C1191 1.561 . S
C1194 C1191 1.526 . S
C1194 C1195 1.396 . S
C1194 C1199 1.390 . S
C1195 C1189 1.465 . S
C1195 C1194 1.396 . S
C1195 C1196 1.399 . S
C1196 H1182 0.929 . S
C1196 C1195 1.399 . S
C1196 C1197 1.385 . S
C1197 H1183 0.931 . S
C1197 C1196 1.385 . S
C1197 C1198 1.389 . S
C1198 C1197 1.389 . S
C1198 C1199 1.387 . S
C1199 H1184 0.930 . S
C1199 C1194 1.390 . S
C1199 C1198 1.387 . S
H1200 C1212 0.930 . S
H1201 C1214 0.930 . S
H1202 C1215 0.930 . S
H1203 C1219 0.959 . S
H1204 C1219 0.959 . S
H1205 C1219 0.961 . S
H1206 C1220 0.960 . S
H1207 C1220 0.961 . S
H1208 C1220 0.959 . S
H1209 C1223 0.929 . S
H1210 C1224 0.931 . S
H1211 C1226 0.930 . S
C1212 H1200 0.930 . S
C1212 C1213 1.399 . S
C1212 C1217 1.399 . S
C1213 C1212 1.399 . S
C1213 C1214 1.376 . S
C1214 H1201 0.930 . S
C1214 C1213 1.376 . S
C1214 C1215 1.388 . S
C1215 H1202 0.930 . S
C1215 C1214 1.388 . S
C1215 C1216 1.390 . S
C1216 C1215 1.390 . S
C1216 C1217 1.394 . S
C1216 C1222 1.465 . S
C1217 C1212 1.399 . S
C1217 C1216 1.394 . S
C1217 C1218 1.516 . S
C1218 C1217 1.516 . S
C1218 C1219 1.502 . S
C1218 C1220 1.561 . S
C1218 C1221 1.526 . S
C1219 H1203 0.959 . S
C1219 H1204 0.959 . S
C1219 H1205 0.961 . S
C1219 C1218 1.502 . S
C1220 H1206 0.960 . S
C1220 H1207 0.961 . S
C1220 H1208 0.959 . S
C1220 C1218 1.561 . S
C1221 C1218 1.526 . S
C1221 C1222 1.396 . S
C1221 C1226 1.390 . S
C1222 C1216 1.465 . S
C1222 C1221 1.396 . S
C1222 C1223 1.399 . S
C1223 H1209 0.929 . S
C1223 C1222 1.399 . S
C1223 C1224 1.385 . S
C1224 H1210 0.931 . S
C1224 C1223 1.385 . S
C1224 C1225 1.389 . S
C1225 C1224 1.389 . S
C1225 C1226 1.387 . S
C1226 H1211 0.930 . S
C1226 C1221 1.390 . S
C1226 C1225 1.387 . S
H1227 C1239 0.930 . S
H1228 C1241 0.930 . S
H1229 C1242 0.930 . S
H1230 C1246 0.959 . S
H1231 C1246 0.959 . S
H1232 C1246 0.961 . S
H1233 C1247 0.960 . S
H1234 C1247 0.961 . S
H1235 C1247 0.959 . S
H1236 C1250 0.929 . S
H1237 C1251 0.931 . S
H1238 C1253 0.930 . S
C1239 H1227 0.930 . S
C1239 C1240 1.399 . S
C1239 C1244 1.399 1_554 S
C1240 C1239 1.399 . S
C1240 C1241 1.376 . S
C1241 H1228 0.930 . S
C1241 C1240 1.376 . S
C1241 C1242 1.388 . S
C1242 H1229 0.930 . S
C1242 C1241 1.388 . S
C1242 C1243 1.390 1_554 S
C1243 C1242 1.390 1_556 S
C1243 C1244 1.394 . S
C1243 C1249 1.465 . S
C1244 C1239 1.399 1_556 S
C1244 C1243 1.394 . S
C1244 C1245 1.516 . S
C1245 C1244 1.516 . S
C1245 C1246 1.502 . S
C1245 C1247 1.561 . S
C1245 C1248 1.526 . S
C1246 H1230 0.959 . S
C1246 H1231 0.959 . S
C1246 H1232 0.961 . S
C1246 C1245 1.502 . S
C1247 H1233 0.960 . S
C1247 H1234 0.961 . S
C1247 H1235 0.959 . S
C1247 C1245 1.561 . S
C1248 C1245 1.526 . S
C1248 C1249 1.396 . S
C1248 C1253 1.390 . S
C1249 C1243 1.465 . S
C1249 C1248 1.396 . S
C1249 C1250 1.399 . S
C1250 H1236 0.929 . S
C1250 C1249 1.399 . S
C1250 C1251 1.385 . S
C1251 H1237 0.931 . S
C1251 C1250 1.385 . S
C1251 C1252 1.389 . S
C1252 C1251 1.389 . S
C1252 C1253 1.387 . S
C1253 H1238 0.930 . S
C1253 C1248 1.390 . S
C1253 C1252 1.387 . S
H1254 C1266 0.930 . S
H1255 C1268 0.930 . S
H1256 C1269 0.930 . S
H1257 C1273 0.959 . S
H1258 C1273 0.959 . S
H1259 C1273 0.961 . S
H1260 C1274 0.960 . S
H1261 C1274 0.961 . S
H1262 C1274 0.959 . S
H1263 C1277 0.929 . S
H1264 C1278 0.931 . S
H1265 C1280 0.930 . S
C1266 H1254 0.930 . S
C1266 C1267 1.399 . S
C1266 C1271 1.399 . S
C1267 C1266 1.399 . S
C1267 C1268 1.376 . S
C1268 H1255 0.930 . S
C1268 C1267 1.376 . S
C1268 C1269 1.388 . S
C1269 H1256 0.930 . S
C1269 C1268 1.388 . S
C1269 C1270 1.390 . S
C1270 C1269 1.390 . S
C1270 C1271 1.394 . S
C1270 C1276 1.465 . S
C1271 C1266 1.399 . S
C1271 C1270 1.394 . S
C1271 C1272 1.516 . S
C1272 C1271 1.516 . S
C1272 C1273 1.502 . S
C1272 C1274 1.561 . S
C1272 C1275 1.526 . S
C1273 H1257 0.959 . S
C1273 H1258 0.959 . S
C1273 H1259 0.961 . S
C1273 C1272 1.502 . S
C1274 H1260 0.960 . S
C1274 H1261 0.961 . S
C1274 H1262 0.959 . S
C1274 C1272 1.561 . S
C1275 C1272 1.526 . S
C1275 C1276 1.396 . S
C1275 C1280 1.390 . S
C1276 C1270 1.465 . S
C1276 C1275 1.396 . S
C1276 C1277 1.399 . S
C1277 H1263 0.929 . S
C1277 C1276 1.399 . S
C1277 C1278 1.385 . S
C1278 H1264 0.931 . S
C1278 C1277 1.385 . S
C1278 C1279 1.389 . S
C1279 C1278 1.389 . S
C1279 C1280 1.387 . S
C1280 H1265 0.930 . S
C1280 C1275 1.390 . S
C1280 C1279 1.387 . S
H1281 C1293 0.930 . S
H1282 C1295 0.930 . S
H1283 C1296 0.930 . S
H1284 C1300 0.959 . S
H1285 C1300 0.959 . S
H1286 C1300 0.961 . S
H1287 C1301 0.960 . S
H1288 C1301 0.961 . S
H1289 C1301 0.959 . S
H1290 C1304 0.929 . S
H1291 C1305 0.931 . S
H1292 C1307 0.930 . S
C1293 H1281 0.930 . S
C1293 C1294 1.399 . S
C1293 C1298 1.399 . S
C1294 C1293 1.399 . S
C1294 C1295 1.376 . S
C1295 H1282 0.930 . S
C1295 C1294 1.376 . S
C1295 C1296 1.388 . S
C1296 H1283 0.930 . S
C1296 C1295 1.388 . S
C1296 C1297 1.390 . S
C1297 C1296 1.390 . S
C1297 C1298 1.394 . S
C1297 C1303 1.465 . S
C1298 C1293 1.399 . S
C1298 C1297 1.394 . S
C1298 C1299 1.516 . S
C1299 C1298 1.516 . S
C1299 C1300 1.502 . S
C1299 C1301 1.561 . S
C1299 C1302 1.526 . S
C1300 H1284 0.959 . S
C1300 H1285 0.959 . S
C1300 H1286 0.961 . S
C1300 C1299 1.502 . S
C1301 H1287 0.960 . S
C1301 H1288 0.961 . S
C1301 H1289 0.959 . S
C1301 C1299 1.561 . S
C1302 C1299 1.526 . S
C1302 C1303 1.396 . S
C1302 C1307 1.390 1_554 S
C1303 C1297 1.465 . S
C1303 C1302 1.396 . S
C1303 C1304 1.399 . S
C1304 H1290 0.929 . S
C1304 C1303 1.399 . S
C1304 C1305 1.385 1_554 S
C1305 H1291 0.931 . S
C1305 C1304 1.385 1_556 S
C1305 C1306 1.389 . S
C1306 C1305 1.389 . S
C1306 C1307 1.387 . S
C1307 H1292 0.930 . S
C1307 C1302 1.390 1_556 S
C1307 C1306 1.387 . S
H1308 C1320 0.930 . S
H1309 C1322 0.930 . S
H1310 C1323 0.930 . S
H1311 C1327 0.959 . S
H1312 C1327 0.959 . S
H1313 C1327 0.961 . S
H1314 C1328 0.960 . S
H1315 C1328 0.961 . S
H1316 C1328 0.959 . S
H1317 C1331 0.929 . S
H1318 C1332 0.931 . S
H1319 C1334 0.930 . S
C1320 H1308 0.930 . S
C1320 C1321 1.399 . S
C1320 C1325 1.399 . S
C1321 C1320 1.399 . S
C1321 C1322 1.376 . S
C1322 H1309 0.930 . S
C1322 C1321 1.376 . S
C1322 C1323 1.388 . S
C1323 H1310 0.930 . S
C1323 C1322 1.388 . S
C1323 C1324 1.390 . S
C1324 C1323 1.390 . S
C1324 C1325 1.394 . S
C1324 C1330 1.465 . S
C1325 C1320 1.399 . S
C1325 C1324 1.394 . S
C1325 C1326 1.516 . S
C1326 C1325 1.516 . S
C1326 C1327 1.502 . S
C1326 C1328 1.561 . S
C1326 C1329 1.526 . S
C1327 H1311 0.959 . S
C1327 H1312 0.959 . S
C1327 H1313 0.961 . S
C1327 C1326 1.502 . S
C1328 H1314 0.960 . S
C1328 H1315 0.961 . S
C1328 H1316 0.959 . S
C1328 C1326 1.561 . S
C1329 C1326 1.526 . S
C1329 C1330 1.396 . S
C1329 C1334 1.390 . S
C1330 C1324 1.465 . S
C1330 C1329 1.396 . S
C1330 C1331 1.399 . S
C1331 H1317 0.929 . S
C1331 C1330 1.399 . S
C1331 C1332 1.385 . S
C1332 H1318 0.931 . S
C1332 C1331 1.385 . S
C1332 C1333 1.389 . S
C1333 C1332 1.389 . S
C1333 C1334 1.387 . S
C1334 H1319 0.930 . S
C1334 C1329 1.390 . S
C1334 C1333 1.387 . S
H1335 C1347 0.935 . S
H1336 C1349 0.930 . S
H1337 C1350 0.930 . S
H1338 C1354 0.959 . S
H1339 C1354 0.959 . S
H1340 C1354 0.961 . S
H1341 C1355 0.960 . S
H1342 C1355 0.961 . S
H1343 C1355 0.959 . S
H1344 C1358 0.929 . S
H1345 C1359 0.931 . S
H1346 C1361 0.930 . S
C1347 H1335 0.935 . S
C1347 C1348 1.399 1_455 S
C1347 C1352 1.399 . S
C1348 C1347 1.399 1_655 S
C1348 C1349 1.376 . S
C1349 H1336 0.930 . S
C1349 C1348 1.376 . S
C1349 C1350 1.388 1_655 S
C1350 H1337 0.930 . S
C1350 C1349 1.388 1_455 S
C1350 C1351 1.390 . S
C1351 C1350 1.390 . S
C1351 C1352 1.394 . S
C1351 C1357 1.465 . S
C1352 C1347 1.399 . S
C1352 C1351 1.394 . S
C1352 C1353 1.516 . S
C1353 C1352 1.516 . S
C1353 C1354 1.502 . S
C1353 C1355 1.561 . S
C1353 C1356 1.526 . S
C1354 H1338 0.959 . S
C1354 H1339 0.959 . S
C1354 H1340 0.961 . S
C1354 C1353 1.502 . S
C1355 H1341 0.960 . S
C1355 H1342 0.961 . S
C1355 H1343 0.959 . S
C1355 C1353 1.561 . S
C1356 C1353 1.526 . S
C1356 C1357 1.396 . S
C1356 C1361 1.390 . S
C1357 C1351 1.465 . S
C1357 C1356 1.396 . S
C1357 C1358 1.399 . S
C1358 H1344 0.929 . S
C1358 C1357 1.399 . S
C1358 C1359 1.385 . S
C1359 H1345 0.931 . S
C1359 C1358 1.385 . S
C1359 C1360 1.389 . S
C1360 C1359 1.389 . S
C1360 C1361 1.387 . S
C1361 H1346 0.930 . S
C1361 C1356 1.390 . S
C1361 C1360 1.387 . S
H1362 C1374 0.935 . S
H1363 C1376 0.930 . S
H1364 C1377 0.930 . S
H1365 C1381 0.959 . S
H1366 C1381 0.959 . S
H1367 C1381 0.961 . S
H1368 C1382 0.960 . S
H1369 C1382 0.961 . S
H1370 C1382 0.959 . S
H1371 C1385 0.929 . S
H1372 C1386 0.931 . S
H1373 C1388 0.930 . S
C1374 H1362 0.935 . S
C1374 C1375 1.409 . S
C1374 C1379 1.384 1_455 S
C1375 C1374 1.409 . S
C1375 C1376 1.376 . S
C1376 H1363 0.930 . S
C1376 C1375 1.376 . S
C1376 C1377 1.388 1_455 S
C1377 H1364 0.930 . S
C1377 C1376 1.388 1_655 S
C1377 C1378 1.390 . S
C1378 C1377 1.390 . S
C1378 C1379 1.394 . S
C1378 C1384 1.465 . S
C1379 C1374 1.384 1_655 S
C1379 C1378 1.394 . S
C1379 C1380 1.516 . S
C1380 C1379 1.516 . S
C1380 C1381 1.502 . S
C1380 C1382 1.561 . S
C1380 C1383 1.526 . S
C1381 H1365 0.959 . S
C1381 H1366 0.959 . S
C1381 H1367 0.961 . S
C1381 C1380 1.502 . S
C1382 H1368 0.960 . S
C1382 H1369 0.961 . S
C1382 H1370 0.959 . S
C1382 C1380 1.561 . S
C1383 C1380 1.526 . S
C1383 C1384 1.396 . S
C1383 C1388 1.390 . S
C1384 C1378 1.465 . S
C1384 C1383 1.396 . S
C1384 C1385 1.399 . S
C1385 H1371 0.929 . S
C1385 C1384 1.399 . S
C1385 C1386 1.385 . S
C1386 H1372 0.931 . S
C1386 C1385 1.385 . S
C1386 C1387 1.389 . S
C1387 C1386 1.389 . S
C1387 C1388 1.387 . S
C1388 H1373 0.930 . S
C1388 C1383 1.390 . S
C1388 C1387 1.387 . S
H1389 C1401 0.930 . S
H1390 C1403 0.930 . S
H1391 C1404 0.930 . S
H1392 C1408 0.959 . S
H1393 C1408 0.959 . S
H1394 C1408 0.961 . S
H1395 C1409 0.960 . S
H1396 C1409 0.961 . S
H1397 C1409 0.959 . S
H1398 C1412 0.929 . S
H1399 C1413 0.931 . S
H1400 C1415 0.930 . S
C1401 H1389 0.930 . S
C1401 C1402 1.399 . S
C1401 C1406 1.399 . S
C1402 C1401 1.399 . S
C1402 C1403 1.376 . S
C1403 H1390 0.930 . S
C1403 C1402 1.376 . S
C1403 C1404 1.388 . S
C1404 H1391 0.930 . S
C1404 C1403 1.388 . S
C1404 C1405 1.390 . S
C1405 C1404 1.390 . S
C1405 C1406 1.394 . S
C1405 C1411 1.465 . S
C1406 C1401 1.399 . S
C1406 C1405 1.394 . S
C1406 C1407 1.516 . S
C1407 C1406 1.516 . S
C1407 C1408 1.502 . S
C1407 C1409 1.561 . S
C1407 C1410 1.526 . S
C1408 H1392 0.959 . S
C1408 H1393 0.959 . S
C1408 H1394 0.961 . S
C1408 C1407 1.502 . S
C1409 H1395 0.960 . S
C1409 H1396 0.961 . S
C1409 H1397 0.959 . S
C1409 C1407 1.561 . S
C1410 C1407 1.526 . S
C1410 C1411 1.396 . S
C1410 C1415 1.390 . S
C1411 C1405 1.465 . S
C1411 C1410 1.396 . S
C1411 C1412 1.399 . S
C1412 H1398 0.929 . S
C1412 C1411 1.399 . S
C1412 C1413 1.385 . S
C1413 H1399 0.931 . S
C1413 C1412 1.385 . S
C1413 C1414 1.389 . S
C1414 C1413 1.389 . S
C1414 C1415 1.387 . S
C1415 H1400 0.930 . S
C1415 C1410 1.390 . S
C1415 C1414 1.387 . S
H1416 C1428 0.930 . S
H1417 C1430 0.930 . S
H1418 C1431 0.930 . S
H1419 C1435 0.959 . S
H1420 C1435 0.959 . S
H1421 C1435 0.961 . S
H1422 C1436 0.960 . S
H1423 C1436 0.961 . S
H1424 C1436 0.959 . S
H1425 C1439 0.929 . S
H1426 C1440 0.931 . S
H1427 C1442 0.930 . S
C1428 H1416 0.930 . S
C1428 C1429 1.399 . S
C1428 C1433 1.399 . S
C1429 C1428 1.399 . S
C1429 C1430 1.376 . S
C1430 H1417 0.930 . S
C1430 C1429 1.376 . S
C1430 C1431 1.388 . S
C1431 H1418 0.930 . S
C1431 C1430 1.388 . S
C1431 C1432 1.390 . S
C1432 C1431 1.390 . S
C1432 C1433 1.394 . S
C1432 C1438 1.465 . S
C1433 C1428 1.399 . S
C1433 C1432 1.394 . S
C1433 C1434 1.516 . S
C1434 C1433 1.516 . S
C1434 C1435 1.502 . S
C1434 C1436 1.561 . S
C1434 C1437 1.526 . S
C1435 H1419 0.959 . S
C1435 H1420 0.959 . S
C1435 H1421 0.961 . S
C1435 C1434 1.502 . S
C1436 H1422 0.960 . S
C1436 H1423 0.961 . S
C1436 H1424 0.959 . S
C1436 C1434 1.561 . S
C1437 C1434 1.526 . S
C1437 C1438 1.396 . S
C1437 C1442 1.390 . S
C1438 C1432 1.465 . S
C1438 C1437 1.396 . S
C1438 C1439 1.399 . S
C1439 H1425 0.929 . S
C1439 C1438 1.399 . S
C1439 C1440 1.385 . S
C1440 H1426 0.931 . S
C1440 C1439 1.385 . S
C1440 C1441 1.389 . S
C1441 C1440 1.389 . S
C1441 C1442 1.387 . S
C1442 H1427 0.930 . S
C1442 C1437 1.390 . S
C1442 C1441 1.387 . S
H1443 C1455 0.930 . S
H1444 C1457 0.930 . S
H1445 C1458 0.930 . S
H1446 C1462 0.959 . S
H1447 C1462 0.959 . S
H1448 C1462 0.961 1_565 S
H1449 C1463 0.960 . S
H1450 C1463 0.961 . S
H1451 C1463 0.959 . S
H1452 C1466 0.929 . S
H1453 C1467 0.931 . S
H1454 C1469 0.930 . S
C1455 H1443 0.930 . S
C1455 C1456 1.399 . S
C1455 C1460 1.399 1_565 S
C1456 C1455 1.399 . S
C1456 C1457 1.376 . S
C1457 H1444 0.930 . S
C1457 C1456 1.376 . S
C1457 C1458 1.388 1_565 S
C1458 H1445 0.930 . S
C1458 C1457 1.388 1_545 S
C1458 C1459 1.390 . S
C1459 C1458 1.390 . S
C1459 C1460 1.394 . S
C1459 C1465 1.465 . S
C1460 C1455 1.399 1_545 S
C1460 C1459 1.394 . S
C1460 C1461 1.516 . S
C1461 C1460 1.516 . S
C1461 C1462 1.502 . S
C1461 C1463 1.561 . S
C1461 C1464 1.526 . S
C1462 H1446 0.959 . S
C1462 H1447 0.959 . S
C1462 H1448 0.961 1_545 S
C1462 C1461 1.502 . S
C1463 H1449 0.960 . S
C1463 H1450 0.961 . S
C1463 H1451 0.959 . S
C1463 C1461 1.561 . S
C1464 C1461 1.526 . S
C1464 C1465 1.396 . S
C1464 C1469 1.390 . S
C1465 C1459 1.465 . S
C1465 C1464 1.396 . S
C1465 C1466 1.399 . S
C1466 H1452 0.929 . S
C1466 C1465 1.399 . S
C1466 C1467 1.385 . S
C1467 H1453 0.931 . S
C1467 C1466 1.385 . S
C1467 C1468 1.389 . S
C1468 C1467 1.389 . S
C1468 C1469 1.387 . S
C1469 H1454 0.930 . S
C1469 C1464 1.390 . S
C1469 C1468 1.387 . S
H1470 C1482 0.930 . S
H1471 C1484 0.930 . S
H1472 C1485 0.930 . S
H1473 C1489 0.959 . S
H1474 C1489 0.959 . S
H1475 C1489 0.961 1_545 S
H1476 C1490 0.960 . S
H1477 C1490 0.961 . S
H1478 C1490 0.959 . S
H1479 C1493 0.929 . S
H1480 C1494 0.931 . S
H1481 C1496 0.930 . S
C1482 H1470 0.930 . S
C1482 C1483 1.399 . S
C1482 C1487 1.399 1_545 S
C1483 C1482 1.399 . S
C1483 C1484 1.376 . S
C1484 H1471 0.930 . S
C1484 C1483 1.376 . S
C1484 C1485 1.388 1_545 S
C1485 H1472 0.930 . S
C1485 C1484 1.388 1_565 S
C1485 C1486 1.390 . S
C1486 C1485 1.390 . S
C1486 C1487 1.394 . S
C1486 C1492 1.465 . S
C1487 C1482 1.399 1_565 S
C1487 C1486 1.394 . S
C1487 C1488 1.516 . S
C1488 C1487 1.516 . S
C1488 C1489 1.502 . S
C1488 C1490 1.561 . S
C1488 C1491 1.526 . S
C1489 H1473 0.959 . S
C1489 H1474 0.959 . S
C1489 H1475 0.961 1_565 S
C1489 C1488 1.502 . S
C1490 H1476 0.960 . S
C1490 H1477 0.961 . S
C1490 H1478 0.959 . S
C1490 C1488 1.561 . S
C1491 C1488 1.526 . S
C1491 C1492 1.396 . S
C1491 C1496 1.390 . S
C1492 C1486 1.465 . S
C1492 C1491 1.396 . S
C1492 C1493 1.399 . S
C1493 H1479 0.929 . S
C1493 C1492 1.399 . S
C1493 C1494 1.385 . S
C1494 H1480 0.931 . S
C1494 C1493 1.385 . S
C1494 C1495 1.389 . S
C1495 C1494 1.389 . S
C1495 C1496 1.387 . S
C1496 H1481 0.930 . S
C1496 C1491 1.390 . S
C1496 C1495 1.387 . S
H1497 C1509 0.930 . S
H1498 C1511 0.930 . S
H1499 C1512 0.930 . S
H1500 C1516 0.959 . S
H1501 C1516 0.959 . S
H1502 C1516 0.961 . S
H1503 C1517 0.960 . S
H1504 C1517 0.961 . S
H1505 C1517 0.959 . S
H1506 C1520 0.929 . S
H1507 C1521 0.931 . S
H1508 C1523 0.930 . S
C1509 H1497 0.930 . S
C1509 C1510 1.399 . S
C1509 C1514 1.399 . S
C1510 C1509 1.399 . S
C1510 C1511 1.376 . S
C1511 H1498 0.930 . S
C1511 C1510 1.376 . S
C1511 C1512 1.388 . S
C1512 H1499 0.930 . S
C1512 C1511 1.388 . S
C1512 C1513 1.390 . S
C1513 C1512 1.390 . S
C1513 C1514 1.394 . S
C1513 C1519 1.465 . S
C1514 C1509 1.399 . S
C1514 C1513 1.394 . S
C1514 C1515 1.516 . S
C1515 C1514 1.516 . S
C1515 C1516 1.502 . S
C1515 C1517 1.561 . S
C1515 C1518 1.526 . S
C1516 H1500 0.959 . S
C1516 H1501 0.959 . S
C1516 H1502 0.961 . S
C1516 C1515 1.502 . S
C1517 H1503 0.960 . S
C1517 H1504 0.961 . S
C1517 H1505 0.959 . S
C1517 C1515 1.561 . S
C1518 C1515 1.526 . S
C1518 C1519 1.396 . S
C1518 C1523 1.390 . S
C1519 C1513 1.465 . S
C1519 C1518 1.396 . S
C1519 C1520 1.399 . S
C1520 H1506 0.929 . S
C1520 C1519 1.399 . S
C1520 C1521 1.385 . S
C1521 H1507 0.931 . S
C1521 C1520 1.385 . S
C1521 C1522 1.389 . S
C1522 C1521 1.389 . S
C1522 C1523 1.387 . S
C1523 H1508 0.930 . S
C1523 C1518 1.390 . S
C1523 C1522 1.387 . S
H1524 C1536 0.930 . S
H1525 C1538 0.930 . S
H1526 C1539 0.930 . S
H1527 C1543 0.959 . S
H1528 C1543 0.959 . S
H1529 C1543 0.961 . S
H1530 C1544 0.960 . S
H1531 C1544 0.961 . S
H1532 C1544 0.959 . S
H1533 C1547 0.929 . S
H1534 C1548 0.931 . S
H1535 C1550 0.930 . S
C1536 H1524 0.930 . S
C1536 C1537 1.399 . S
C1536 C1541 1.399 . S
C1537 C1536 1.399 . S
C1537 C1538 1.376 . S
C1538 H1525 0.930 . S
C1538 C1537 1.376 . S
C1538 C1539 1.388 . S
C1539 H1526 0.930 . S
C1539 C1538 1.388 . S
C1539 C1540 1.390 . S
C1540 C1539 1.390 . S
C1540 C1541 1.394 . S
C1540 C1546 1.465 . S
C1541 C1536 1.399 . S
C1541 C1540 1.394 . S
C1541 C1542 1.516 . S
C1542 C1541 1.516 . S
C1542 C1543 1.502 . S
C1542 C1544 1.561 . S
C1542 C1545 1.526 . S
C1543 H1527 0.959 . S
C1543 H1528 0.959 . S
C1543 H1529 0.961 . S
C1543 C1542 1.502 . S
C1544 H1530 0.960 . S
C1544 H1531 0.961 . S
C1544 H1532 0.959 . S
C1544 C1542 1.561 . S
C1545 C1542 1.526 . S
C1545 C1546 1.396 . S
C1545 C1550 1.390 . S
C1546 C1540 1.465 . S
C1546 C1545 1.396 . S
C1546 C1547 1.399 . S
C1547 H1533 0.929 . S
C1547 C1546 1.399 . S
C1547 C1548 1.385 . S
C1548 H1534 0.931 . S
C1548 C1547 1.385 . S
C1548 C1549 1.389 . S
C1549 C1548 1.389 . S
C1549 C1550 1.387 . S
C1550 H1535 0.930 . S
C1550 C1545 1.390 . S
C1550 C1549 1.387 . S
H1551 C1563 0.930 . S
H1552 C1565 0.930 . S
H1553 C1566 0.930 . S
H1554 C1570 0.959 . S
H1555 C1570 0.959 . S
H1556 C1570 0.961 1_556 S
H1557 C1571 0.960 . S
H1558 C1571 0.961 . S
H1559 C1571 0.959 . S
H1560 C1574 0.929 . S
H1561 C1575 0.931 . S
H1562 C1577 0.930 . S
C1563 H1551 0.930 . S
C1563 C1564 1.399 . S
C1563 C1568 1.399 1_556 S
C1564 C1563 1.399 . S
C1564 C1565 1.376 . S
C1565 H1552 0.930 . S
C1565 C1564 1.376 . S
C1565 C1566 1.388 1_556 S
C1566 H1553 0.930 . S
C1566 C1565 1.388 1_554 S
C1566 C1567 1.390 . S
C1567 C1566 1.390 . S
C1567 C1568 1.394 . S
C1567 C1573 1.465 . S
C1568 C1563 1.399 1_554 S
C1568 C1567 1.394 . S
C1568 C1569 1.516 . S
C1569 C1568 1.516 . S
C1569 C1570 1.502 . S
C1569 C1571 1.561 . S
C1569 C1572 1.526 . S
C1570 H1554 0.959 . S
C1570 H1555 0.959 . S
C1570 H1556 0.961 1_554 S
C1570 C1569 1.502 . S
C1571 H1557 0.960 . S
C1571 H1558 0.961 . S
C1571 H1559 0.959 . S
C1571 C1569 1.561 . S
C1572 C1569 1.526 . S
C1572 C1573 1.396 . S
C1572 C1577 1.390 . S
C1573 C1567 1.465 . S
C1573 C1572 1.396 . S
C1573 C1574 1.399 . S
C1574 H1560 0.929 . S
C1574 C1573 1.399 . S
C1574 C1575 1.385 . S
C1575 H1561 0.931 . S
C1575 C1574 1.385 . S
C1575 C1576 1.389 . S
C1576 C1575 1.389 . S
C1576 C1577 1.387 . S
C1577 H1562 0.930 . S
C1577 C1572 1.390 . S
C1577 C1576 1.387 . S
H1578 C1590 0.930 . S
H1579 C1592 0.930 . S
H1580 C1593 0.930 . S
H1581 C1597 0.959 . S
H1582 C1597 0.959 . S
H1583 C1597 0.961 . S
H1584 C1598 0.960 . S
H1585 C1598 0.961 . S
H1586 C1598 0.959 . S
H1587 C1601 0.929 . S
H1588 C1602 0.931 . S
H1589 C1604 0.930 . S
C1590 H1578 0.930 . S
C1590 C1591 1.399 . S
C1590 C1595 1.399 . S
C1591 C1590 1.399 . S
C1591 C1592 1.376 . S
C1592 H1579 0.930 . S
C1592 C1591 1.376 . S
C1592 C1593 1.388 . S
C1593 H1580 0.930 . S
C1593 C1592 1.388 . S
C1593 C1594 1.390 . S
C1594 C1593 1.390 . S
C1594 C1595 1.394 . S
C1594 C1600 1.465 . S
C1595 C1590 1.399 . S
C1595 C1594 1.394 . S
C1595 C1596 1.516 . S
C1596 C1595 1.516 . S
C1596 C1597 1.502 . S
C1596 C1598 1.561 . S
C1596 C1599 1.526 . S
C1597 H1581 0.959 . S
C1597 H1582 0.959 . S
C1597 H1583 0.961 . S
C1597 C1596 1.502 . S
C1598 H1584 0.960 . S
C1598 H1585 0.961 . S
C1598 H1586 0.959 . S
C1598 C1596 1.561 . S
C1599 C1596 1.526 . S
C1599 C1600 1.396 . S
C1599 C1604 1.390 . S
C1600 C1594 1.465 . S
C1600 C1599 1.396 . S
C1600 C1601 1.399 . S
C1601 H1587 0.929 . S
C1601 C1600 1.399 . S
C1601 C1602 1.385 . S
C1602 H1588 0.931 . S
C1602 C1601 1.385 . S
C1602 C1603 1.389 . S
C1603 C1602 1.389 . S
C1603 C1604 1.387 . S
C1604 H1589 0.930 . S
C1604 C1599 1.390 . S
C1604 C1603 1.387 . S
H1605 C1617 0.930 . S
H1606 C1619 0.930 . S
H1607 C1620 0.930 . S
H1608 C1624 0.959 . S
H1609 C1624 0.959 . S
H1610 C1624 0.961 . S
H1611 C1625 0.960 . S
H1612 C1625 0.961 . S
H1613 C1625 0.959 . S
H1614 C1628 0.929 . S
H1615 C1629 0.931 . S
H1616 C1631 0.930 . S
C1617 H1605 0.930 . S
C1617 C1618 1.399 . S
C1617 C1622 1.399 1_554 S
C1618 C1617 1.399 . S
C1618 C1619 1.376 . S
C1619 H1606 0.930 . S
C1619 C1618 1.376 . S
C1619 C1620 1.388 . S
C1620 H1607 0.930 . S
C1620 C1619 1.388 . S
C1620 C1621 1.390 1_554 S
C1621 C1620 1.390 1_556 S
C1621 C1622 1.394 . S
C1621 C1627 1.465 . S
C1622 C1617 1.399 1_556 S
C1622 C1621 1.394 . S
C1622 C1623 1.516 . S
C1623 C1622 1.516 . S
C1623 C1624 1.502 . S
C1623 C1625 1.561 . S
C1623 C1626 1.526 . S
C1624 H1608 0.959 . S
C1624 H1609 0.959 . S
C1624 H1610 0.961 . S
C1624 C1623 1.502 . S
C1625 H1611 0.960 . S
C1625 H1612 0.961 . S
C1625 H1613 0.959 . S
C1625 C1623 1.561 . S
C1626 C1623 1.526 . S
C1626 C1627 1.396 . S
C1626 C1631 1.390 . S
C1627 C1621 1.465 . S
C1627 C1626 1.396 . S
C1627 C1628 1.399 . S
C1628 H1614 0.929 . S
C1628 C1627 1.399 . S
C1628 C1629 1.385 . S
C1629 H1615 0.931 . S
C1629 C1628 1.385 . S
C1629 C1630 1.389 . S
C1630 C1629 1.389 . S
C1630 C1631 1.387 . S
C1631 H1616 0.930 . S
C1631 C1626 1.390 . S
C1631 C1630 1.387 . S
H1632 C1644 0.930 . S
H1633 C1646 0.930 . S
H1634 C1647 0.930 . S
H1635 C1651 0.959 . S
H1636 C1651 0.959 . S
H1637 C1651 0.961 . S
H1638 C1652 0.960 . S
H1639 C1652 0.961 . S
H1640 C1652 0.959 . S
H1641 C1655 0.929 . S
H1642 C1656 0.931 . S
H1643 C1658 0.930 . S
C1644 H1632 0.930 . S
C1644 C1645 1.399 . S
C1644 C1649 1.399 . S
C1645 C1644 1.399 . S
C1645 C1646 1.376 . S
C1646 H1633 0.930 . S
C1646 C1645 1.376 . S
C1646 C1647 1.388 . S
C1647 H1634 0.930 . S
C1647 C1646 1.388 . S
C1647 C1648 1.390 . S
C1648 C1647 1.390 . S
C1648 C1649 1.394 . S
C1648 C1654 1.465 . S
C1649 C1644 1.399 . S
C1649 C1648 1.394 . S
C1649 C1650 1.516 . S
C1650 C1649 1.516 . S
C1650 C1651 1.502 . S
C1650 C1652 1.561 . S
C1650 C1653 1.526 . S
C1651 H1635 0.959 . S
C1651 H1636 0.959 . S
C1651 H1637 0.961 . S
C1651 C1650 1.502 . S
C1652 H1638 0.960 . S
C1652 H1639 0.961 . S
C1652 H1640 0.959 . S
C1652 C1650 1.561 . S
C1653 C1650 1.526 . S
C1653 C1654 1.396 . S
C1653 C1658 1.390 . S
C1654 C1648 1.465 . S
C1654 C1653 1.396 . S
C1654 C1655 1.399 . S
C1655 H1641 0.929 . S
C1655 C1654 1.399 . S
C1655 C1656 1.385 . S
C1656 H1642 0.931 . S
C1656 C1655 1.385 . S
C1656 C1657 1.389 . S
C1657 C1656 1.389 . S
C1657 C1658 1.387 . S
C1658 H1643 0.930 . S
C1658 C1653 1.390 . S
C1658 C1657 1.387 . S
H1659 C1671 0.930 . S
H1660 C1673 0.930 . S
H1661 C1674 0.930 . S
H1662 C1678 0.959 . S
H1663 C1678 0.959 . S
H1664 C1678 0.961 . S
H1665 C1679 0.960 . S
H1666 C1679 0.961 1_455 S
H1667 C1679 0.959 . S
H1668 C1682 0.929 1_655 S
H1669 C1683 0.931 . S
H1670 C1685 0.930 . S
C1671 H1659 0.930 . S
C1671 C1672 1.399 . S
C1671 C1676 1.399 . S
C1672 C1671 1.399 . S
C1672 C1673 1.376 . S
C1673 H1660 0.930 . S
C1673 C1672 1.376 . S
C1673 C1674 1.388 . S
C1674 H1661 0.930 . S
C1674 C1673 1.388 . S
C1674 C1675 1.390 . S
C1675 C1674 1.390 . S
C1675 C1676 1.394 . S
C1675 C1681 1.465 . S
C1676 C1671 1.399 . S
C1676 C1675 1.394 . S
C1676 C1677 1.516 . S
C1677 C1676 1.516 . S
C1677 C1678 1.502 . S
C1677 C1679 1.561 . S
C1677 C1680 1.526 1_655 S
C1678 H1662 0.959 . S
C1678 H1663 0.959 . S
C1678 H1664 0.961 . S
C1678 C1677 1.502 . S
C1679 H1665 0.960 . S
C1679 H1666 0.961 1_655 S
C1679 H1667 0.959 . S
C1679 C1677 1.561 . S
C1680 C1677 1.526 1_455 S
C1680 C1681 1.396 1_455 S
C1680 C1685 1.390 . S
C1681 C1675 1.465 . S
C1681 C1680 1.396 1_655 S
C1681 C1682 1.399 1_655 S
C1682 H1668 0.929 1_455 S
C1682 C1681 1.399 1_455 S
C1682 C1683 1.385 . S
C1683 H1669 0.931 . S
C1683 C1682 1.385 . S
C1683 C1684 1.389 . S
C1684 C1683 1.389 . S
C1684 C1685 1.387 . S
C1685 H1670 0.930 . S
C1685 C1680 1.390 . S
C1685 C1684 1.387 . S
H1686 C1698 0.930 . S
H1687 C1700 0.930 . S
H1688 C1701 0.930 . S
H1689 C1705 0.959 . S
H1690 C1705 0.959 1_655 S
H1691 C1705 0.961 . S
H1692 C1706 0.960 . S
H1693 C1706 0.961 1_655 S
H1694 C1706 0.959 . S
H1695 C1709 0.945 . S
H1696 C1710 0.931 . S
H1697 C1712 0.930 . S
C1698 H1686 0.930 . S
C1698 C1699 1.399 . S
C1698 C1703 1.399 . S
C1699 C1698 1.399 . S
C1699 C1700 1.376 . S
C1700 H1687 0.930 . S
C1700 C1699 1.376 . S
C1700 C1701 1.388 . S
C1701 H1688 0.930 . S
C1701 C1700 1.388 . S
C1701 C1702 1.390 . S
C1702 C1701 1.390 . S
C1702 C1703 1.394 . S
C1702 C1708 1.465 . S
C1703 C1698 1.399 . S
C1703 C1702 1.394 . S
C1703 C1704 1.516 . S
C1704 C1703 1.516 . S
C1704 C1705 1.502 . S
C1704 C1706 1.561 . S
C1704 C1707 1.526 1_455 S
C1705 H1689 0.959 . S
C1705 H1690 0.959 1_455 S
C1705 H1691 0.961 . S
C1705 C1704 1.502 . S
C1706 H1692 0.960 . S
C1706 H1693 0.961 1_455 S
C1706 H1694 0.959 . S
C1706 C1704 1.561 . S
C1707 C1704 1.526 1_655 S
C1707 C1708 1.396 1_655 S
C1707 C1712 1.390 . S
C1708 C1702 1.465 . S
C1708 C1707 1.396 1_455 S
C1708 C1709 1.411 . S
C1709 H1695 0.945 . S
C1709 C1708 1.411 . S
C1709 C1710 1.357 1_455 S
C1710 H1696 0.931 . S
C1710 C1709 1.357 1_655 S
C1710 C1711 1.389 . S
C1711 C1710 1.389 . S
C1711 C1712 1.387 . S
C1712 H1697 0.930 . S
C1712 C1707 1.390 . S
C1712 C1711 1.387 . S
H1713 C1725 0.930 . S
H1714 C1727 0.930 . S
H1715 C1728 0.930 . S
H1716 C1732 0.959 . S
H1717 C1732 0.959 . S
H1718 C1732 0.961 . S
H1719 C1733 0.960 . S
H1720 C1733 0.961 . S
H1721 C1733 0.959 . S
H1722 C1736 0.929 . S
H1723 C1737 0.931 . S
H1724 C1739 0.930 . S
C1725 H1713 0.930 . S
C1725 C1726 1.399 . S
C1725 C1730 1.399 . S
C1726 C1725 1.399 . S
C1726 C1727 1.376 . S
C1727 H1714 0.930 . S
C1727 C1726 1.376 . S
C1727 C1728 1.388 . S
C1728 H1715 0.930 . S
C1728 C1727 1.388 . S
C1728 C1729 1.390 . S
C1729 C1728 1.390 . S
C1729 C1730 1.394 . S
C1729 C1735 1.465 . S
C1730 C1725 1.399 . S
C1730 C1729 1.394 . S
C1730 C1731 1.516 . S
C1731 C1730 1.516 . S
C1731 C1732 1.502 . S
C1731 C1733 1.561 . S
C1731 C1734 1.526 . S
C1732 H1716 0.959 . S
C1732 H1717 0.959 . S
C1732 H1718 0.961 . S
C1732 C1731 1.502 . S
C1733 H1719 0.960 . S
C1733 H1720 0.961 . S
C1733 H1721 0.959 . S
C1733 C1731 1.561 . S
C1734 C1731 1.526 . S
C1734 C1735 1.396 . S
C1734 C1739 1.390 . S
C1735 C1729 1.465 . S
C1735 C1734 1.396 . S
C1735 C1736 1.399 . S
C1736 H1722 0.929 . S
C1736 C1735 1.399 . S
C1736 C1737 1.385 . S
C1737 H1723 0.931 . S
C1737 C1736 1.385 . S
C1737 C1738 1.389 . S
C1738 C1737 1.389 . S
C1738 C1739 1.387 . S
C1739 H1724 0.930 . S
C1739 C1734 1.390 . S
C1739 C1738 1.387 . S
H1740 C1752 0.930 . S
H1741 C1754 0.930 . S
H1742 C1755 0.930 . S
H1743 C1759 0.959 . S
H1744 C1759 0.959 . S
H1745 C1759 0.961 . S
H1746 C1760 0.960 . S
H1747 C1760 0.961 . S
H1748 C1760 0.959 . S
H1749 C1763 0.929 . S
H1750 C1764 0.931 . S
H1751 C1766 0.930 . S
C1752 H1740 0.930 . S
C1752 C1753 1.399 . S
C1752 C1757 1.399 . S
C1753 C1752 1.399 . S
C1753 C1754 1.376 . S
C1754 H1741 0.930 . S
C1754 C1753 1.376 . S
C1754 C1755 1.388 . S
C1755 H1742 0.930 . S
C1755 C1754 1.388 . S
C1755 C1756 1.390 . S
C1756 C1755 1.390 . S
C1756 C1757 1.394 . S
C1756 C1762 1.465 . S
C1757 C1752 1.399 . S
C1757 C1756 1.394 . S
C1757 C1758 1.516 . S
C1758 C1757 1.516 . S
C1758 C1759 1.502 . S
C1758 C1760 1.561 . S
C1758 C1761 1.526 . S
C1759 H1743 0.959 . S
C1759 H1744 0.959 . S
C1759 H1745 0.961 . S
C1759 C1758 1.502 . S
C1760 H1746 0.960 . S
C1760 H1747 0.961 . S
C1760 H1748 0.959 . S
C1760 C1758 1.561 . S
C1761 C1758 1.526 . S
C1761 C1762 1.396 . S
C1761 C1766 1.390 . S
C1762 C1756 1.465 . S
C1762 C1761 1.396 . S
C1762 C1763 1.399 . S
C1763 H1749 0.929 . S
C1763 C1762 1.399 . S
C1763 C1764 1.385 . S
C1764 H1750 0.931 . S
C1764 C1763 1.385 . S
C1764 C1765 1.389 . S
C1765 C1764 1.389 . S
C1765 C1766 1.387 . S
C1766 H1751 0.930 . S
C1766 C1761 1.390 . S
C1766 C1765 1.387 . S
H1767 C1779 0.930 . S
H1768 C1781 0.930 . S
H1769 C1782 0.930 . S
H1770 C1786 0.959 . S
H1771 C1786 0.959 . S
H1772 C1786 0.961 . S
H1773 C1787 0.960 . S
H1774 C1787 0.961 . S
H1775 C1787 0.959 . S
H1776 C1790 0.929 . S
H1777 C1791 0.931 1_545 S
H1778 C1793 0.930 1_545 S
C1779 H1767 0.930 . S
C1779 C1780 1.399 . S
C1779 C1784 1.399 . S
C1780 C1779 1.399 . S
C1780 C1781 1.376 . S
C1781 H1768 0.930 . S
C1781 C1780 1.376 . S
C1781 C1782 1.388 . S
C1782 H1769 0.930 . S
C1782 C1781 1.388 . S
C1782 C1783 1.390 . S
C1783 C1782 1.390 . S
C1783 C1784 1.394 . S
C1783 C1789 1.465 . S
C1784 C1779 1.399 . S
C1784 C1783 1.394 . S
C1784 C1785 1.516 . S
C1785 C1784 1.516 . S
C1785 C1786 1.502 . S
C1785 C1787 1.561 . S
C1785 C1788 1.526 . S
C1786 H1770 0.959 . S
C1786 H1771 0.959 . S
C1786 H1772 0.961 . S
C1786 C1785 1.502 . S
C1787 H1773 0.960 . S
C1787 H1774 0.961 . S
C1787 H1775 0.959 . S
C1787 C1785 1.561 . S
C1788 C1785 1.526 . S
C1788 C1789 1.396 . S
C1788 C1793 1.390 . S
C1789 C1783 1.465 . S
C1789 C1788 1.396 . S
C1789 C1790 1.399 . S
C1790 H1776 0.929 . S
C1790 C1789 1.399 . S
C1790 C1791 1.385 . S
C1791 H1777 0.931 1_565 S
C1791 C1790 1.385 . S
C1791 C1792 1.389 1_565 S
C1792 C1791 1.389 1_545 S
C1792 C1793 1.387 1_545 S
C1793 H1778 0.930 1_565 S
C1793 C1788 1.390 . S
C1793 C1792 1.387 1_565 S
H1794 C1806 0.930 1_565 S
H1795 C1808 0.930 1_565 S
H1796 C1809 0.930 . S
H1797 C1813 0.959 . S
H1798 C1813 0.959 . S
H1799 C1813 0.961 . S
H1800 C1814 0.960 . S
H1801 C1814 0.961 . S
H1802 C1814 0.959 . S
H1803 C1817 0.929 . S
H1804 C1818 0.931 . S
H1805 C1820 0.930 . S
C1806 H1794 0.930 1_545 S
C1806 C1807 1.399 1_545 S
C1806 C1811 1.399 . S
C1807 C1806 1.399 1_565 S
C1807 C1808 1.376 1_565 S
C1808 H1795 0.930 1_545 S
C1808 C1807 1.376 1_545 S
C1808 C1809 1.388 . S
C1809 H1796 0.930 . S
C1809 C1808 1.388 . S
C1809 C1810 1.390 . S
C1810 C1809 1.390 . S
C1810 C1811 1.394 . S
C1810 C1816 1.465 . S
C1811 C1806 1.399 . S
C1811 C1810 1.394 . S
C1811 C1812 1.516 . S
C1812 C1811 1.516 . S
C1812 C1813 1.502 . S
C1812 C1814 1.561 . S
C1812 C1815 1.526 . S
C1813 H1797 0.959 . S
C1813 H1798 0.959 . S
C1813 H1799 0.961 . S
C1813 C1812 1.502 . S
C1814 H1800 0.960 . S
C1814 H1801 0.961 . S
C1814 H1802 0.959 . S
C1814 C1812 1.561 . S
C1815 C1812 1.526 . S
C1815 C1816 1.396 . S
C1815 C1820 1.390 . S
C1816 C1810 1.465 . S
C1816 C1815 1.396 . S
C1816 C1817 1.399 . S
C1817 H1803 0.929 . S
C1817 C1816 1.399 . S
C1817 C1818 1.385 . S
C1818 H1804 0.931 . S
C1818 C1817 1.385 . S
C1818 C1819 1.389 . S
C1819 C1818 1.389 . S
C1819 C1820 1.387 . S
C1820 H1805 0.930 . S
C1820 C1815 1.390 . S
C1820 C1819 1.387 . S
H1821 C1833 0.930 . S
H1822 C1835 0.930 . S
H1823 C1836 0.930 . S
H1824 C1840 0.959 . S
H1825 C1840 0.959 . S
H1826 C1840 0.961 . S
H1827 C1841 0.960 . S
H1828 C1841 0.961 . S
H1829 C1841 0.959 . S
H1830 C1844 0.929 . S
H1831 C1845 0.931 . S
H1832 C1847 0.930 . S
C1833 H1821 0.930 . S
C1833 C1834 1.399 . S
C1833 C1838 1.399 . S
C1834 C1833 1.399 . S
C1834 C1835 1.376 . S
C1835 H1822 0.930 . S
C1835 C1834 1.376 . S
C1835 C1836 1.388 . S
C1836 H1823 0.930 . S
C1836 C1835 1.388 . S
C1836 C1837 1.390 . S
C1837 C1836 1.390 . S
C1837 C1838 1.394 . S
C1837 C1843 1.465 . S
C1838 C1833 1.399 . S
C1838 C1837 1.394 . S
C1838 C1839 1.516 . S
C1839 C1838 1.516 . S
C1839 C1840 1.502 . S
C1839 C1841 1.561 . S
C1839 C1842 1.526 . S
C1840 H1824 0.959 . S
C1840 H1825 0.959 . S
C1840 H1826 0.961 . S
C1840 C1839 1.502 . S
C1841 H1827 0.960 . S
C1841 H1828 0.961 . S
C1841 H1829 0.959 . S
C1841 C1839 1.561 . S
C1842 C1839 1.526 . S
C1842 C1843 1.396 . S
C1842 C1847 1.390 . S
C1843 C1837 1.465 . S
C1843 C1842 1.396 . S
C1843 C1844 1.399 . S
C1844 H1830 0.929 . S
C1844 C1843 1.399 . S
C1844 C1845 1.385 . S
C1845 H1831 0.931 . S
C1845 C1844 1.385 . S
C1845 C1846 1.389 . S
C1846 C1845 1.389 . S
C1846 C1847 1.387 . S
C1847 H1832 0.930 . S
C1847 C1842 1.390 . S
C1847 C1846 1.387 . S
C565 C191 1.760 . S
C577 N12 1.802 . S
C592 N35 1.815 . S
C604 C260 1.759 . S
C619 N58 1.745 . S
C631 C214 1.815 . S
C646 N81 1.742 . S
C658 C237 1.819 . S
C673 C99 1.838 . S
C685 C7 1.794 . S
C700 C30 1.833 . S
C712 C122 1.799 . S
C727 C145 1.770 . S
C739 C53 1.853 . S
C754 C76 1.836 . S
C766 C168 1.796 . S
C781 N104 1.629 . S
C793 N196 1.547 . S
C808 N150 1.635 . S
C820 N219 1.578 . S
C835 N242 1.545 . S
C847 N173 1.639 . S
C862 N127 1.610 . S
C874 N265 1.571 . S
C889 C467 1.716 . S
C901 N288 1.774 . S
C916 N311 1.753 . S
C928 C536 1.705 . S
C943 N334 1.748 . S
C955 C490 1.707 . S
C970 C513 1.764 . S
C982 N357 1.710 . S
C997 N380 1.718 . S
C1009 C283 1.671 . S
C1024 C306 1.689 . S
C1036 N403 1.657 . S
C1051 C329 1.713 . S
C1063 N426 1.683 . S
C1078 N449 1.717 . S
C1090 C352 1.673 . S
C1105 N472 1.675 . S
C1117 C375 1.665 . S
C1132 C421 1.681 . S
C1144 N495 1.658 . S
C1159 C444 1.684 . S
C1171 N518 1.652 . S
C1186 N541 1.683 . S
C1198 C398 1.653 . S
C1213 C522 1.944 . S
C1225 N2 1.758 . S
C1240 C499 1.944 . S
C1252 N25 1.768 . S
C1267 C545 1.944 . S
C1279 N48 1.748 . S
C1294 N71 1.695 . S
C1306 C476 1.902 . S
C1321 C108 1.680 . S
C1333 C315 1.791 . S
C1348 C292 1.781 . S
C1360 C131 1.740 . S
C1375 C361 1.817 . S
C1387 C154 1.725 . S
C1402 C338 1.796 . S
C1414 C177 1.754 . S
C1429 N186 1.695 . S
C1441 C430 1.859 . S
C1456 C384 1.888 . S
C1468 N209 1.661 . S
C1483 C407 1.893 . S
C1495 N232 1.669 . S
C1510 C453 1.887 . S
C1522 N255 1.659 . S
C1537 C246 1.898 . S
C1549 N278 1.678 . S
C1564 C223 1.913 . S
C1576 N301 1.672 . S
C1591 N324 1.735 . S
C1603 C269 1.883 . S
C1618 C200 1.900 . S
C1630 N347 1.776 . S
C1645 N370 1.680 . S
C1657 C39 1.887 . S
C1672 N393 1.717 . S
C1684 C16 1.872 . S
C1699 N416 1.696 . S
C1711 C85 1.878 . S
C1726 N439 1.680 . S
C1738 C62 1.916 . S
C1753 N462 1.792 . S
C1765 N140 1.834 . S
C1780 N485 1.697 . S
C1792 N94 1.855 . S
C1807 N117 1.869 . S
C1819 N508 1.721 . S
C1834 N531 1.775 . S
C1846 N163 1.860 . S
